# Generated by pormake.
# Topology wjf, (4)-cn, num edge types: 1
# Building blocks:
#     Node 0, Type 0, BuildingBlock: ICAMEG_clean_sbu_1, # of connection points: 4
#     Node 1, Type 0, BuildingBlock: ICAMEG_clean_sbu_1, # of connection points: 4
#     Node 2, Type 0, BuildingBlock: ICAMEG_clean_sbu_1, # of connection points: 4
#     Node 3, Type 0, BuildingBlock: ICAMEG_clean_sbu_1, # of connection points: 4
#     Node 4, Type 0, BuildingBlock: ICAMEG_clean_sbu_1, # of connection points: 4
#     Node 5, Type 0, BuildingBlock: ICAMEG_clean_sbu_1, # of connection points: 4
#     Node 6, Type 0, BuildingBlock: ICAMEG_clean_sbu_1, # of connection points: 4
#     Node 7, Type 0, BuildingBlock: ICAMEG_clean_sbu_1, # of connection points: 4
#     Node 8, Type 0, BuildingBlock: ICAMEG_clean_sbu_1, # of connection points: 4
#     Node 9, Type 0, BuildingBlock: ICAMEG_clean_sbu_1, # of connection points: 4
#     Node 10, Type 0, BuildingBlock: ICAMEG_clean_sbu_1, # of connection points: 4
#     Node 11, Type 0, BuildingBlock: ICAMEG_clean_sbu_1, # of connection points: 4
#     Edge 12, Type (0, 0), BuildingBlock: AJUNOK_clean_linker_0, # of connection points: 2
#     Edge 13, Type (0, 0), BuildingBlock: AJUNOK_clean_linker_0, # of connection points: 2
#     Edge 14, Type (0, 0), BuildingBlock: AJUNOK_clean_linker_0, # of connection points: 2
#     Edge 15, Type (0, 0), BuildingBlock: AJUNOK_clean_linker_0, # of connection points: 2
#     Edge 16, Type (0, 0), BuildingBlock: AJUNOK_clean_linker_0, # of connection points: 2
#     Edge 17, Type (0, 0), BuildingBlock: AJUNOK_clean_linker_0, # of connection points: 2
#     Edge 18, Type (0, 0), BuildingBlock: AJUNOK_clean_linker_0, # of connection points: 2
#     Edge 19, Type (0, 0), BuildingBlock: AJUNOK_clean_linker_0, # of connection points: 2
#     Edge 20, Type (0, 0), BuildingBlock: AJUNOK_clean_linker_0, # of connection points: 2
#     Edge 21, Type (0, 0), BuildingBlock: AJUNOK_clean_linker_0, # of connection points: 2
#     Edge 22, Type (0, 0), BuildingBlock: AJUNOK_clean_linker_0, # of connection points: 2
#     Edge 23, Type (0, 0), BuildingBlock: AJUNOK_clean_linker_0, # of connection points: 2
#     Edge 24, Type (0, 0), BuildingBlock: AJUNOK_clean_linker_0, # of connection points: 2
#     Edge 25, Type (0, 0), BuildingBlock: AJUNOK_clean_linker_0, # of connection points: 2
#     Edge 26, Type (0, 0), BuildingBlock: AJUNOK_clean_linker_0, # of connection points: 2
#     Edge 27, Type (0, 0), BuildingBlock: AJUNOK_clean_linker_0, # of connection points: 2
#     Edge 28, Type (0, 0), BuildingBlock: AJUNOK_clean_linker_0, # of connection points: 2
#     Edge 29, Type (0, 0), BuildingBlock: AJUNOK_clean_linker_0, # of connection points: 2
#     Edge 30, Type (0, 0), BuildingBlock: AJUNOK_clean_linker_0, # of connection points: 2
#     Edge 31, Type (0, 0), BuildingBlock: AJUNOK_clean_linker_0, # of connection points: 2
#     Edge 32, Type (0, 0), BuildingBlock: AJUNOK_clean_linker_0, # of connection points: 2
#     Edge 33, Type (0, 0), BuildingBlock: AJUNOK_clean_linker_0, # of connection points: 2
#     Edge 34, Type (0, 0), BuildingBlock: AJUNOK_clean_linker_0, # of connection points: 2
#     Edge 35, Type (0, 0), BuildingBlock: AJUNOK_clean_linker_0, # of connection points: 2
# Relax obj value: 0.049
# Max RMSD: 0.070
# Mean RMSD: 0.070
data_MOF--net-wjf--node1-ICAMEG_clean_sbu_1--edge1-AJUNOK_clean_linker_0
_symmetry_space_group_name_H-M    P1
_symmetry_Int_Tables_number       1
_symmetry_cell_setting            triclinic
loop_
_symmetry_equiv_pos_as_xyz
'x, y, z'
_cell_length_a     41.272858
_cell_length_b     41.254615
_cell_length_c     22.599429
_cell_angle_alpha  90.005087
_cell_angle_beta   90.001742
_cell_angle_gamma 119.9936
loop_
_atom_site_label
_atom_site_type_symbol
_atom_site_fract_x
_atom_site_fract_y
_atom_site_fract_z
_atom_type_partial_charge
Co0 Co 0.36614 0.36901 0.08363 0.0
Co1 Co 0.34906 0.43954 0.03782 0.0
O2 O 0.33795 0.39588 0.0867 0.0
C3 C 0.37364 0.39398 0.2077 0.0
O4 O 0.37816 0.42586 0.18778 0.0
C5 C 0.26686 0.38662 0.01527 0.0
O6 O 0.27101 0.35726 0.02124 0.0
O7 O 0.35297 0.41399 0.96542 0.0
O8 O 0.3659 0.36977 0.99564 0.0
H9 H 0.42134 0.53716 0.88371 0.0
H10 H 0.29712 0.33843 0.15581 0.0
O11 O 0.36766 0.36769 0.17205 0.0
H12 H 0.27202 0.24159 0.00627 0.0
H13 H 0.39629 0.2702 0.14808 0.0
H14 H 0.42994 0.37621 0.01295 0.0
H15 H 0.33306 0.29996 0.00928 0.0
H16 H 0.36136 0.3043 0.15013 0.0
O17 O 0.29471 0.41954 0.02089 0.0
H18 H 0.40673 0.48311 0.94779 0.0
H19 H 0.31466 0.48797 0.02191 0.0
H20 H 0.46542 0.34273 0.00902 0.0
H21 H 0.23577 0.28035 0.15465 0.0
H22 H 0.44863 0.28928 0.07696 0.0
H23 H 0.22288 0.2315 0.07934 0.0
O24 O 0.41519 0.41663 0.08434 0.0
H25 H 0.28967 0.44529 0.2286 0.0
H26 H 0.39251 0.51668 0.08799 0.0
H27 H 0.38835 0.54739 0.17906 0.0
H28 H 0.3366 0.51156 0.25017 0.0
H29 H 0.29532 0.41562 0.13742 0.0
H30 H 0.328 0.54174 0.95814 0.0
H31 H 0.3818 0.5668 0.88861 0.0
O32 O 0.40373 0.46186 0.05398 0.0
C33 C 0.36014 0.38778 0.95518 0.0
C34 C 0.3979 0.52657 0.91398 0.0
C35 C 0.34548 0.5291 0.95567 0.0
N36 N 0.36008 0.48257 0.98891 0.0
C37 C 0.38958 0.49607 0.95053 0.0
C38 C 0.33799 0.49856 0.99155 0.0
C39 C 0.37568 0.54316 0.9167 0.0
C40 C 0.29184 0.31712 0.12331 0.0
N41 N 0.31868 0.32249 0.08286 0.0
C42 C 0.257 0.28437 0.1227 0.0
C43 C 0.24977 0.257 0.08037 0.0
C44 C 0.27732 0.26266 0.03932 0.0
C45 C 0.3118 0.2958 0.04117 0.0
C46 C 0.40379 0.29337 0.11813 0.0
C47 C 0.4223 0.35281 0.04231 0.0
C48 C 0.38415 0.31281 0.11913 0.0
N49 N 0.39337 0.34197 0.08123 0.0
C50 C 0.44257 0.33404 0.04004 0.0
C51 C 0.43316 0.30408 0.07821 0.0
C52 C 0.42577 0.45062 0.07171 0.0
C53 C 0.31243 0.46116 0.1981 0.0
C54 C 0.37029 0.50082 0.11915 0.0
C55 C 0.36787 0.51841 0.1704 0.0
C56 C 0.33879 0.49833 0.2102 0.0
N57 N 0.34463 0.46424 0.10794 0.0
C58 C 0.31577 0.44451 0.14638 0.0
Co59 Co 1.00135 0.36288 0.42189 0.0
Co60 Co 0.91655 0.34131 0.3629 0.0
O61 O 0.94662 0.33246 0.42079 0.0
C62 C 0.98121 0.366 0.54615 0.0
O63 O 0.95357 0.37019 0.52674 0.0
C64 C 0.88257 0.25797 0.3498 0.0
O65 O 0.91559 0.26207 0.33817 0.0
O66 O 0.9452 0.33555 0.29714 0.0
O67 O 0.00348 0.36688 0.33328 0.0
H68 H 0.89633 0.39829 0.18003 0.0
H69 H 0.96384 0.29025 0.48453 0.0
O70 O 1.00173 0.36056 0.5102 0.0
H71 H 0.04577 0.27889 0.33723 0.0
H72 H 0.13055 0.39788 0.49248 0.0
H73 H 0.05699 0.43294 0.36259 0.0
H74 H 0.04402 0.33755 0.34653 0.0
H75 H 0.06183 0.35872 0.48778 0.0
O76 O 0.87926 0.28644 0.36109 0.0
H77 H 0.93365 0.38768 0.2546 0.0
H78 H 0.83462 0.31128 0.34615 0.0
H79 H 0.12567 0.47277 0.36557 0.0
H80 H 0.96491 0.2311 0.47707 0.0
H81 H 0.16294 0.45529 0.43086 0.0
H82 H 0.00604 0.22515 0.40289 0.0
O83 O 0.99822 0.40927 0.42787 0.0
H84 H 0.8453 0.30493 0.55454 0.0
H85 H 0.89446 0.39809 0.3936 0.0
H86 H 0.86065 0.40658 0.4766 0.0
H87 H 0.83569 0.35973 0.55775 0.0
H88 H 0.87978 0.2978 0.47111 0.0
H89 H 0.79619 0.32079 0.27223 0.0
H90 H 0.82706 0.36471 0.18859 0.0
O91 O 0.95216 0.39665 0.36324 0.0
C92 C 0.98061 0.35218 0.29032 0.0
C93 C 0.88255 0.37918 0.2164 0.0
C94 C 0.82635 0.33566 0.26811 0.0
N95 N 0.88639 0.34917 0.30503 0.0
C96 C 0.90356 0.37316 0.25889 0.0
C97 C 0.84827 0.33033 0.30977 0.0
C98 C 0.84369 0.36031 0.22119 0.0
C99 C 0.98201 0.28792 0.45247 0.0
N100 N 0.00394 0.31733 0.41621 0.0
C101 C 0.98241 0.25434 0.44831 0.0
C102 C 0.00546 0.25101 0.40663 0.0
C103 C 0.02774 0.28114 0.36975 0.0
C104 C 0.02657 0.31426 0.37512 0.0
C105 C 0.11465 0.40568 0.46359 0.0
C106 C 0.07304 0.425 0.39076 0.0
C107 C 0.07574 0.38359 0.46069 0.0
N108 N 0.05548 0.39321 0.42419 0.0
C109 C 0.11191 0.44773 0.3924 0.0
C110 C 0.1328 0.43791 0.42906 0.0
C111 C 0.97944 0.41921 0.39564 0.0
C112 C 0.85596 0.32548 0.51936 0.0
C113 C 0.88391 0.37769 0.42892 0.0
C114 C 0.86466 0.38258 0.4757 0.0
C115 C 0.85063 0.35627 0.52119 0.0
N116 N 0.88904 0.34742 0.42745 0.0
C117 C 0.87535 0.3215 0.47187 0.0
Co118 Co 0.64031 1.00065 0.75144 0.0
Co119 Co 0.56748 0.91417 0.70639 0.0
O120 O 0.61122 0.94566 0.75563 0.0
C121 C 0.61305 0.98513 0.8747 0.0
O122 O 0.58098 0.95858 0.85399 0.0
C123 C 0.61793 0.88185 0.68586 0.0
O124 O 0.64796 0.91453 0.69462 0.0
O125 O 0.59414 0.94248 0.63381 0.0
O126 O 0.64068 0.99868 0.66336 0.0
H127 H 0.47262 0.89113 0.54852 0.0
H128 H 0.66693 0.96049 0.82821 0.0
O129 O 0.64026 0.00426 0.83984 0.0
H130 H 0.76723 0.02756 0.68163 0.0
H131 H 0.74163 0.12794 0.81797 0.0
H132 H 0.6397 0.05876 0.675 0.0
H133 H 0.71033 0.03292 0.6798 0.0
H134 H 0.70446 0.05902 0.82096 0.0
O135 O 0.5854 0.8779 0.69083 0.0
H136 H 0.52672 0.92969 0.61301 0.0
H137 H 0.51558 0.83178 0.69422 0.0
H138 H 0.67619 0.12766 0.67006 0.0
H139 H 0.72352 0.95463 0.83202 0.0
H140 H 0.72764 0.16275 0.74201 0.0
H141 H 0.77412 0.98824 0.75823 0.0
O142 O 0.59409 0.00485 0.74866 0.0
H143 H 0.55631 0.84701 0.8973 0.0
H144 H 0.49205 0.88855 0.75878 0.0
H145 H 0.46003 0.85551 0.85032 0.0
H146 H 0.49222 0.83449 0.92033 0.0
H147 H 0.58744 0.88055 0.80556 0.0
H148 H 0.46159 0.79217 0.6303 0.0
H149 H 0.43971 0.82185 0.55689 0.0
O150 O 0.5474 0.94848 0.72016 0.0
C151 C 0.62171 0.97508 0.62315 0.0
C152 C 0.48181 0.87788 0.58047 0.0
C153 C 0.47563 0.82233 0.62634 0.0
N154 N 0.52414 0.88303 0.6576 0.0
C155 C 0.51235 0.89956 0.61721 0.0
C156 C 0.50625 0.84491 0.66237 0.0
C157 C 0.46338 0.839 0.58515 0.0
C158 C 0.68899 0.97547 0.79632 0.0
N159 N 0.68542 0.99714 0.75402 0.0
C160 C 0.72089 0.97193 0.79853 0.0
C161 C 0.74924 0.99075 0.75706 0.0
C162 C 0.74539 0.0128 0.71404 0.0
C163 C 0.71306 0.01564 0.71312 0.0
C164 C 0.71928 0.11299 0.7864 0.0
C165 C 0.66201 0.07383 0.7063 0.0
C166 C 0.69804 0.07396 0.78799 0.0
N167 N 0.66984 0.05487 0.74813 0.0
C168 C 0.6826 0.11284 0.70336 0.0
C169 C 0.71143 0.1325 0.74376 0.0
C170 C 0.55989 0.98231 0.73575 0.0
C171 C 0.54196 0.85595 0.86708 0.0
C172 C 0.50628 0.87963 0.78914 0.0
C173 C 0.48797 0.86082 0.84081 0.0
C174 C 0.50602 0.84899 0.88002 0.0
N175 N 0.54157 0.88645 0.77685 0.0
C176 C 0.5594 0.87483 0.81498 0.0
Co177 Co 0.64372 0.64367 0.08174 0.0
Co178 Co 0.66138 0.57354 0.0365 0.0
O179 O 0.67237 0.61726 0.08546 0.0
C180 C 0.63601 0.61978 0.20626 0.0
O181 O 0.63284 0.5882 0.18765 0.0
C182 C 0.7447 0.62554 0.0205 0.0
O183 O 0.74239 0.65507 0.03525 0.0
O184 O 0.65888 0.59947 0.96386 0.0
O185 O 0.6434 0.64188 0.9937 0.0
H186 H 0.592 0.47734 0.87901 0.0
H187 H 0.7127 0.67644 0.1542 0.0
O188 O 0.64236 0.64587 0.16998 0.0
H189 H 0.73582 0.77091 0.00133 0.0
H190 H 0.61135 0.74125 0.14419 0.0
H191 H 0.57883 0.63428 0.01171 0.0
H192 H 0.67571 0.71156 0.00483 0.0
H193 H 0.64787 0.7088 0.14612 0.0
O194 O 0.71587 0.59298 0.02091 0.0
H195 H 0.60574 0.5312 0.94295 0.0
H196 H 0.69443 0.52382 0.02499 0.0
H197 H 0.54176 0.66612 0.00795 0.0
H198 H 0.77306 0.73566 0.15282 0.0
H199 H 0.55793 0.72 0.0746 0.0
H200 H 0.78495 0.78331 0.07582 0.0
O201 O 0.59524 0.59584 0.08428 0.0
H202 H 0.71881 0.56413 0.22708 0.0
H203 H 0.61267 0.49807 0.08969 0.0
H204 H 0.61496 0.46645 0.18085 0.0
H205 H 0.66835 0.4995 0.25025 0.0
H206 H 0.71521 0.59485 0.13568 0.0
H207 H 0.68191 0.47015 0.96154 0.0
H208 H 0.63028 0.44648 0.88804 0.0
O209 O 0.6066 0.55171 0.04954 0.0
C210 C 0.65031 0.62464 0.95332 0.0
C211 C 0.61448 0.48731 0.91103 0.0
C212 C 0.66495 0.48328 0.95732 0.0
N213 N 0.65063 0.53045 0.98802 0.0
C214 C 0.62231 0.51771 0.94749 0.0
C215 C 0.67193 0.51371 0.99309 0.0
C216 C 0.63599 0.47003 0.91607 0.0
C217 C 0.71756 0.69722 0.12094 0.0
N218 N 0.69072 0.6906 0.07974 0.0
C219 C 0.75184 0.73061 0.12021 0.0
C220 C 0.75851 0.75731 0.07693 0.0
C221 C 0.73097 0.75036 0.03507 0.0
C222 C 0.69705 0.71663 0.03713 0.0
C223 C 0.60413 0.71791 0.11475 0.0
C224 C 0.58628 0.65796 0.0404 0.0
C225 C 0.6247 0.69943 0.11565 0.0
N226 N 0.61576 0.66995 0.07856 0.0
C227 C 0.56509 0.67577 0.03825 0.0
C228 C 0.57415 0.70596 0.07571 0.0
C229 C 0.58442 0.56223 0.06911 0.0
C230 C 0.69547 0.54939 0.19709 0.0
C231 C 0.63596 0.51269 0.11971 0.0
C232 C 0.63714 0.4946 0.17121 0.0
C233 C 0.66712 0.51315 0.21011 0.0
N234 N 0.66392 0.54821 0.10718 0.0
C235 C 0.69339 0.56658 0.14512 0.0
Co236 Co 0.00287 0.63563 0.41367 0.0
Co237 Co 0.08816 0.65169 0.3612 0.0
O238 O 0.05788 0.66293 0.4152 0.0
C239 C 0.02054 0.62799 0.53706 0.0
O240 O 0.04608 0.62102 0.51611 0.0
C241 C 0.12331 0.73504 0.34828 0.0
O242 O 0.09025 0.73231 0.35047 0.0
O243 O 0.06128 0.65658 0.29215 0.0
O244 O 0.00252 0.63396 0.32504 0.0
H245 H 0.10851 0.5889 0.18605 0.0
H246 H 0.04284 0.70594 0.48232 0.0
O247 O 1.00124 0.63583 0.50214 0.0
H248 H 0.96968 0.7291 0.33286 0.0
H249 H 0.8753 0.60828 0.48073 0.0
H250 H 0.94494 0.57086 0.34623 0.0
H251 H 0.9666 0.6679 0.33818 0.0
H252 H 0.94432 0.64251 0.48063 0.0
O253 O 0.12663 0.70614 0.35457 0.0
H254 H 0.07137 0.60338 0.25542 0.0
H255 H 0.16964 0.67719 0.35093 0.0
H256 H 0.87594 0.53607 0.34445 0.0
H257 H 0.04649 0.76748 0.47894 0.0
H258 H 0.84066 0.55475 0.41208 0.0
H259 H 0.0098 0.77938 0.40368 0.0
O260 O 1.00107 0.58659 0.41721 0.0
H261 H 0.15598 0.69252 0.55542 0.0
H262 H 0.10712 0.59421 0.40222 0.0
H263 H 0.13803 0.58698 0.49052 0.0
H264 H 0.16275 0.63639 0.56787 0.0
H265 H 0.1244 0.69839 0.46675 0.0
H266 H 0.20792 0.66375 0.28231 0.0
H267 H 0.17733 0.6192 0.19926 0.0
O268 O 0.05155 0.59691 0.36484 0.0
C269 C 0.02667 0.64507 0.28348 0.0
C270 C 0.12216 0.60827 0.22217 0.0
C271 C 0.17794 0.65027 0.2762 0.0
N272 N 0.11824 0.64084 0.30751 0.0
C273 C 0.10125 0.6165 0.2617 0.0
C274 C 0.15612 0.65777 0.3149 0.0
C275 C 0.16077 0.62529 0.22959 0.0
C276 C 0.02655 0.71084 0.4498 0.0
N277 N 0.00444 0.68336 0.41066 0.0
C278 C 0.02884 0.74577 0.44795 0.0
C279 C 0.00828 0.75244 0.40565 0.0
C280 C 0.98579 0.72425 0.36587 0.0
C281 C 0.98424 0.68969 0.36898 0.0
C282 C 0.89036 0.59995 0.45093 0.0
C283 C 0.92978 0.57933 0.37544 0.0
C284 C 0.92943 0.61919 0.45073 0.0
N285 N 0.94862 0.60893 0.413 0.0
C286 C 0.89072 0.55945 0.37439 0.0
C287 C 0.87094 0.56992 0.41239 0.0
C288 C 0.02094 0.57531 0.39113 0.0
C289 C 0.14544 0.67088 0.52192 0.0
C290 C 0.11768 0.61579 0.43575 0.0
C291 C 0.13527 0.61158 0.48558 0.0
C292 C 0.14917 0.63933 0.52893 0.0
N293 N 0.1141 0.6468 0.42922 0.0
C294 C 0.12771 0.67414 0.47149 0.0
Co295 Co 0.36681 0.00528 0.75185 0.0
Co296 Co 0.43263 0.09203 0.69772 0.0
O297 O 0.39135 0.06021 0.75117 0.0
C298 C 0.39129 0.02534 0.87572 0.0
O299 O 0.42313 0.05261 0.85557 0.0
C300 C 0.37993 0.12275 0.68391 0.0
O301 O 0.35029 0.08959 0.69132 0.0
O302 O 0.40338 0.06193 0.62797 0.0
O303 O 0.36775 0.00382 0.66368 0.0
H304 H 0.52137 0.11612 0.52931 0.0
H305 H 0.33315 0.04278 0.81875 0.0
O306 O 0.36518 0.00458 0.8402 0.0
H307 H 0.23774 0.96324 0.67223 0.0
H308 H 0.27217 0.87616 0.82233 0.0
H309 H 0.37887 0.94916 0.68877 0.0
H310 H 0.29785 0.96417 0.67803 0.0
H311 H 0.30291 0.94504 0.81937 0.0
O312 O 0.41264 0.12694 0.68597 0.0
H313 H 0.46988 0.07717 0.59784 0.0
H314 H 0.48238 0.17464 0.68275 0.0
H315 H 0.34882 0.88032 0.69004 0.0
H316 H 0.27325 0.04246 0.8149 0.0
H317 H 0.29501 0.84334 0.75712 0.0
H318 H 0.2251 0.00257 0.74109 0.0
O319 O 0.41585 0.00686 0.75531 0.0
H320 H 0.4488 0.16057 0.88897 0.0
H321 H 0.51076 0.12137 0.74228 0.0
H322 H 0.54556 0.15619 0.83084 0.0
H323 H 0.51455 0.17608 0.90501 0.0
H324 H 0.41493 0.12526 0.80001 0.0
H325 H 0.53378 0.21464 0.61481 0.0
H326 H 0.55373 0.18539 0.53761 0.0
O327 O 0.4553 0.05949 0.7074 0.0
C328 C 0.38091 0.0269 0.6208 0.0
C329 C 0.513 0.1292 0.56287 0.0
C330 C 0.51996 0.18449 0.61085 0.0
N331 N 0.47337 0.12357 0.64466 0.0
C332 C 0.48391 0.10729 0.60187 0.0
C333 C 0.49079 0.16168 0.64915 0.0
C334 C 0.53114 0.16806 0.56754 0.0
C335 C 0.31218 0.02509 0.78688 0.0
N336 N 0.31897 0.00349 0.74871 0.0
C337 C 0.27838 0.02514 0.78476 0.0
C338 C 0.25141 0.0028 0.74326 0.0
C339 C 0.2585 0.98076 0.70457 0.0
C340 C 0.29265 0.9815 0.7079 0.0
C341 C 0.29547 0.89195 0.7927 0.0
C342 C 0.35532 0.93324 0.71782 0.0
C343 C 0.31299 0.93096 0.79082 0.0
N344 N 0.34229 0.95106 0.75326 0.0
C345 C 0.33849 0.89428 0.71847 0.0
C346 C 0.30832 0.87355 0.75613 0.0
C347 C 0.4477 0.02885 0.73246 0.0
C348 C 0.46264 0.15211 0.85693 0.0
C349 C 0.49699 0.12965 0.77443 0.0
C350 C 0.5169 0.14954 0.82442 0.0
C351 C 0.4995 0.16075 0.86596 0.0
N352 N 0.46081 0.12117 0.76592 0.0
C353 C 0.44365 0.13223 0.80635 0.0
Co354 Co 0.63631 0.64171 0.57887 0.0
Co355 Co 0.56788 0.65863 0.63165 0.0
O356 O 0.60955 0.66977 0.57826 0.0
C357 C 0.61291 0.63656 0.45458 0.0
O358 O 0.5801 0.62956 0.47416 0.0
C359 C 0.61664 0.74147 0.65155 0.0
O360 O 0.64493 0.73691 0.66598 0.0
O361 O 0.59874 0.66169 0.70161 0.0
O362 O 0.63411 0.63863 0.66707 0.0
H363 H 0.48117 0.59377 0.80222 0.0
H364 H 0.66807 0.71362 0.51446 0.0
O365 O 0.63926 0.64347 0.4906 0.0
H366 H 0.76308 0.73169 0.66327 0.0
H367 H 0.73543 0.61277 0.51145 0.0
H368 H 0.62597 0.5739 0.64102 0.0
H369 H 0.70451 0.67117 0.65482 0.0
H370 H 0.70255 0.64889 0.51394 0.0
O371 O 0.58519 0.71336 0.63779 0.0
H372 H 0.53288 0.60746 0.73344 0.0
H373 H 0.51529 0.68817 0.64481 0.0
H374 H 0.65808 0.53706 0.64011 0.0
H375 H 0.72642 0.77459 0.52101 0.0
H376 H 0.71329 0.55649 0.57505 0.0
H377 H 0.77437 0.78391 0.59593 0.0
O378 O 0.5885 0.59347 0.57348 0.0
H379 H 0.54391 0.7021 0.43736 0.0
H380 H 0.49056 0.60393 0.59052 0.0
H381 H 0.45294 0.59881 0.50257 0.0
H382 H 0.47957 0.64818 0.42526 0.0
H383 H 0.58076 0.70585 0.52563 0.0
H384 H 0.46364 0.6756 0.71298 0.0
H385 H 0.44615 0.62795 0.79221 0.0
O386 O 0.54835 0.6035 0.62593 0.0
C387 C 0.62124 0.64925 0.70948 0.0
C388 C 0.48846 0.61451 0.76777 0.0
C389 C 0.47865 0.66047 0.71773 0.0
N390 N 0.52694 0.64839 0.68488 0.0
C391 C 0.51765 0.62232 0.72859 0.0
C392 C 0.50799 0.66754 0.67935 0.0
C393 C 0.46884 0.63373 0.76217 0.0
C394 C 0.68894 0.71743 0.54689 0.0
N395 N 0.68296 0.68886 0.58407 0.0
C396 C 0.72186 0.75202 0.55051 0.0
C397 C 0.74873 0.75725 0.59261 0.0
C398 C 0.74241 0.72797 0.63043 0.0
C399 C 0.70913 0.69379 0.62557 0.0
C400 C 0.71154 0.60414 0.54024 0.0
C401 C 0.65015 0.58269 0.61292 0.0
C402 C 0.69283 0.62449 0.54187 0.0
N403 N 0.66276 0.61387 0.57836 0.0
C404 C 0.66814 0.56165 0.61245 0.0
C405 C 0.69909 0.57255 0.57589 0.0
C406 C 0.55692 0.58187 0.59837 0.0
C407 C 0.53195 0.68047 0.47082 0.0
C408 C 0.50243 0.62545 0.55699 0.0
C409 C 0.48094 0.62245 0.50735 0.0
C410 C 0.49588 0.65018 0.46402 0.0
N411 N 0.53779 0.65526 0.56337 0.0
C412 C 0.55262 0.68253 0.52104 0.0
Co413 Co 0.99941 0.63463 0.91034 0.0
Co414 Co 0.91071 0.56849 0.95743 0.0
O415 O 0.94477 0.60993 0.90625 0.0
C416 C 0.98304 0.60874 0.78643 0.0
O417 O 0.95443 0.57751 0.80562 0.0
C418 C 0.88184 0.62148 0.98357 0.0
O419 O 0.91443 0.64691 0.00458 0.0
O420 O 0.93918 0.59603 0.02986 0.0
O421 O 0.99766 0.63488 0.9982 0.0
H422 H 0.87838 0.47519 0.12171 0.0
H423 H 0.96296 0.6663 0.83608 0.0
O424 O 0.00311 0.635 0.8222 0.0
H425 H 0.03919 0.76535 0.97996 0.0
H426 H 0.13061 0.72827 0.84718 0.0
H427 H 0.05339 0.62439 0.98317 0.0
H428 H 0.03869 0.70536 0.9807 0.0
H429 H 0.06176 0.69738 0.84402 0.0
O430 O 0.8772 0.59046 0.96423 0.0
H431 H 0.92066 0.527 0.05615 0.0
H432 H 0.82743 0.52259 0.96864 0.0
H433 H 0.12215 0.65472 0.98825 0.0
H434 H 0.96287 0.72604 0.83327 0.0
H435 H 0.16126 0.70709 0.91991 0.0
H436 H 1.00114 0.77604 0.90569 0.0
O437 O 0.99809 0.58565 0.91213 0.0
H438 H 0.84975 0.55746 0.76027 0.0
H439 H 0.87714 0.48968 0.91351 0.0
H440 H 0.84337 0.45628 0.82339 0.0
H441 H 0.82933 0.49023 0.74595 0.0
H442 H 0.88401 0.5898 0.85074 0.0
H443 H 0.78418 0.47113 0.03384 0.0
H444 H 0.80959 0.44691 0.1108 0.0
O445 O 0.9423 0.54438 0.95044 0.0
C446 C 0.97358 0.62003 0.0394 0.0
C447 C 0.86696 0.48542 0.08822 0.0
C448 C 0.81409 0.48318 0.03896 0.0
N449 N 0.87657 0.52763 0.00825 0.0
C450 C 0.89076 0.51467 0.05083 0.0
C451 C 0.83875 0.51244 0.0023 0.0
C452 C 0.82837 0.46959 0.08211 0.0
C453 C 0.97983 0.68801 0.86752 0.0
N454 N 1.00083 0.68235 0.90852 0.0
C455 C 0.97961 0.72174 0.86581 0.0
C456 C 1.00105 0.74977 0.90649 0.0
C457 C 0.02238 0.74378 0.9482 0.0
C458 C 0.02187 0.70967 0.94861 0.0
C459 C 0.11389 0.7056 0.87736 0.0
C460 C 0.07023 0.64732 0.95355 0.0
C461 C 0.07489 0.68798 0.87576 0.0
N462 N 0.05359 0.65941 0.91389 0.0
C463 C 0.10915 0.66432 0.95652 0.0
C464 C 0.13106 0.69368 0.91815 0.0
C465 C 0.97469 0.55305 0.93119 0.0
C466 C 0.8558 0.54237 0.79357 0.0
C467 C 0.87179 0.50475 0.87968 0.0
C468 C 0.85233 0.48564 0.8289 0.0
C469 C 0.84439 0.50467 0.78554 0.0
N470 N 0.88308 0.54175 0.88718 0.0
C471 C 0.87517 0.56053 0.84496 0.0
Co472 Co 0.36331 0.9986 0.2494 0.0
Co473 Co 0.34649 0.91136 0.29365 0.0
O474 O 0.33593 0.94384 0.24378 0.0
C475 C 0.37137 0.98466 0.12397 0.0
O476 O 0.37582 0.95682 0.1414 0.0
C477 C 0.26317 0.87604 0.31601 0.0
O478 O 0.26719 0.90803 0.33447 0.0
O479 O 0.34383 0.93702 0.36694 0.0
O480 O 0.36393 0.99604 0.33734 0.0
H481 H 0.41682 0.84796 0.37147 0.0
H482 H 0.29352 0.96063 0.17924 0.0
O483 O 0.3642 0.00331 0.16125 0.0
H484 H 0.26964 0.03012 0.33449 0.0
H485 H 0.39259 0.12851 0.19262 0.0
H486 H 0.428 0.05408 0.31982 0.0
H487 H 0.33077 0.03315 0.32812 0.0
H488 H 0.35733 0.05953 0.18839 0.0
O489 O 0.29152 0.87408 0.29868 0.0
H490 H 0.40748 0.88948 0.30636 0.0
H491 H 0.30748 0.86424 0.39719 0.0
H492 H 0.46381 0.12299 0.3259 0.0
H493 H 0.23203 0.95701 0.1837 0.0
H494 H 0.44618 0.16068 0.26192 0.0
H495 H 0.2198 0.99189 0.26184 0.0
O496 O 0.41208 1.00006 0.24556 0.0
H497 H 0.29277 0.83584 0.10717 0.0
H498 H 0.40869 0.90923 0.22015 0.0
H499 H 0.41003 0.8777 0.13052 0.0
H500 H 0.35185 0.84008 0.07285 0.0
H501 H 0.29225 0.86785 0.19732 0.0
H502 H 0.31607 0.82234 0.46375 0.0
H503 H 0.371 0.81363 0.45122 0.0
O504 O 0.40162 0.9474 0.29101 0.0
C505 C 0.35438 0.97131 0.37766 0.0
C506 C 0.3923 0.85082 0.37657 0.0
C507 C 0.33586 0.83647 0.42832 0.0
N508 N 0.35554 0.87811 0.34437 0.0
C509 C 0.38643 0.87419 0.33873 0.0
C510 C 0.33091 0.86004 0.38964 0.0
C511 C 0.36668 0.83167 0.42142 0.0
C512 C 0.28844 0.97608 0.21307 0.0
N513 N 0.31571 0.99722 0.25313 0.0
C514 C 0.25357 0.97384 0.21551 0.0
C515 C 0.2467 0.99338 0.25941 0.0
C516 C 0.27465 0.01483 0.3002 0.0
C517 C 0.30918 0.01638 0.29644 0.0
C518 C 0.40045 0.1124 0.2209 0.0
C519 C 0.41993 0.07029 0.29227 0.0
C520 C 0.3806 0.07334 0.21869 0.0
N521 N 0.39033 0.0528 0.25434 0.0
C522 C 0.44041 0.1093 0.29573 0.0
C523 C 0.43052 0.13043 0.25977 0.0
C524 C 0.42352 0.9792 0.26772 0.0
C525 C 0.31804 0.85074 0.13328 0.0
C526 C 0.3824 0.89135 0.19892 0.0
C527 C 0.38372 0.87418 0.14638 0.0
C528 C 0.35117 0.85329 0.11384 0.0
N529 N 0.34928 0.88686 0.22034 0.0
C530 C 0.31778 0.86828 0.18599 0.0
Co531 Co 0.36401 0.36381 0.58115 0.0
Co532 Co 0.43372 0.34638 0.62904 0.0
O533 O 0.39099 0.33584 0.5785 0.0
C534 C 0.38948 0.37241 0.45723 0.0
O535 O 0.42126 0.37661 0.4769 0.0
C536 C 0.38177 0.26421 0.65408 0.0
O537 O 0.35352 0.26974 0.66362 0.0
O538 O 0.40662 0.34835 0.70107 0.0
O539 O 0.36474 0.36397 0.66919 0.0
H540 H 0.52803 0.41536 0.78901 0.0
H541 H 0.33405 0.29449 0.50997 0.0
O542 O 0.36283 0.36528 0.49276 0.0
H543 H 0.23641 0.26965 0.65776 0.0
H544 H 0.26488 0.39317 0.51555 0.0
H545 H 0.37172 0.42867 0.64961 0.0
H546 H 0.29457 0.33083 0.65459 0.0
H547 H 0.29876 0.35804 0.51507 0.0
O548 O 0.41388 0.29156 0.64099 0.0
H549 H 0.47503 0.40181 0.72321 0.0
H550 H 0.48246 0.31231 0.64422 0.0
H551 H 0.33848 0.46441 0.65192 0.0
H552 H 0.27615 0.23296 0.51119 0.0
H553 H 0.28459 0.44668 0.58455 0.0
H554 H 0.22689 0.22021 0.58562 0.0
O555 O 0.41157 0.41282 0.58047 0.0
H556 H 0.44537 0.2922 0.43643 0.0
H557 H 0.5115 0.39278 0.58295 0.0
H558 H 0.54487 0.39121 0.4934 0.0
H559 H 0.51173 0.34062 0.41936 0.0
H560 H 0.41303 0.2951 0.52635 0.0
H561 H 0.53524 0.32463 0.7096 0.0
H562 H 0.55849 0.37661 0.78244 0.0
O563 O 0.45574 0.40142 0.61656 0.0
C564 C 0.38151 0.35724 0.71054 0.0
C565 C 0.51823 0.39271 0.75731 0.0
C566 C 0.52223 0.34175 0.71282 0.0
N567 N 0.47581 0.35648 0.67959 0.0
C568 C 0.48831 0.38498 0.7198 0.0
C569 C 0.49223 0.33481 0.67605 0.0
C570 C 0.53528 0.37093 0.75366 0.0
C571 C 0.31259 0.28922 0.54216 0.0
N572 N 0.31761 0.31624 0.58201 0.0
C573 C 0.27993 0.2543 0.54278 0.0
C574 C 0.25233 0.24715 0.58459 0.0
C575 C 0.25766 0.27487 0.62511 0.0
C576 C 0.2907 0.30943 0.62322 0.0
C577 C 0.2882 0.40106 0.54531 0.0
C578 C 0.34818 0.42067 0.6204 0.0
C579 C 0.30749 0.38127 0.54525 0.0
N580 N 0.3369 0.39101 0.58284 0.0
C581 C 0.32951 0.44106 0.62181 0.0
C582 C 0.2993 0.43111 0.584 0.0
C583 C 0.44499 0.42341 0.59663 0.0
C584 C 0.46009 0.31445 0.46827 0.0
C585 C 0.49682 0.37094 0.55061 0.0
C586 C 0.51591 0.37004 0.50017 0.0
C587 C 0.49731 0.34163 0.4587 0.0
N588 N 0.46024 0.34438 0.55947 0.0
C589 C 0.44193 0.31622 0.51927 0.0
Co590 Co 0.00629 0.36245 0.91913 0.0
Co591 Co 0.09318 0.43522 0.96134 0.0
O592 O 0.06099 0.39164 0.91243 0.0
C593 C 0.01957 0.38797 0.79528 0.0
O594 O 0.04552 0.42065 0.81512 0.0
C595 C 0.12631 0.38584 0.98296 0.0
O596 O 0.09292 0.35729 0.99384 0.0
O597 O 0.06715 0.40785 0.03498 0.0
O598 O 0.00974 0.36341 0.00688 0.0
H599 H 0.11941 0.5291 0.1225 0.0
H600 H 0.04613 0.33511 0.84316 0.0
O601 O 1.00129 0.36097 0.83092 0.0
H602 H 0.98088 0.23684 0.99351 0.0
H603 H 0.87781 0.26031 0.85928 0.0
H604 H 0.94974 0.36401 0.99842 0.0
H605 H 0.97478 0.29334 0.993 0.0
H606 H 0.94661 0.29743 0.85284 0.0
O607 O 0.13022 0.41762 0.96976 0.0
H608 H 0.07963 0.47511 0.0586 0.0
H609 H 0.17575 0.48736 0.96951 0.0
H610 H 0.88103 0.32748 0.00675 0.0
H611 H 0.05282 0.27893 0.8418 0.0
H612 H 0.84456 0.27521 0.93675 0.0
H613 H 0.02013 0.22937 0.91749 0.0
O614 O 1.00218 0.40871 0.92071 0.0
H615 H 0.15513 0.44896 0.76429 0.0
H616 H 0.11779 0.51146 0.91304 0.0
H617 H 0.14834 0.54474 0.82087 0.0
H618 H 0.16729 0.51344 0.74573 0.0
H619 H 0.12381 0.4165 0.85657 0.0
H620 H 0.21658 0.54128 0.03277 0.0
H621 H 0.18841 0.56257 0.10978 0.0
O622 O 0.0578 0.45476 0.95299 0.0
C623 C 0.03419 0.38126 0.04655 0.0
C624 C 0.13201 0.52017 0.08896 0.0
C625 C 0.18655 0.52697 0.03867 0.0
N626 N 0.12531 0.47826 0.01006 0.0
C627 C 0.10962 0.4897 0.05252 0.0
C628 C 0.16328 0.49635 0.00307 0.0
C629 C 0.17073 0.53891 0.08185 0.0
C630 C 0.03157 0.3135 0.8759 0.0
N631 N 0.00994 0.31739 0.91788 0.0
C632 C 0.03556 0.28182 0.87505 0.0
C633 C 0.01725 0.25404 0.91758 0.0
C634 C 0.99524 0.25823 0.96026 0.0
C635 C 0.99193 0.2903 0.9598 0.0
C636 C 0.89338 0.28305 0.88998 0.0
C637 C 0.9341 0.34126 0.96791 0.0
C638 C 0.93234 0.30426 0.88641 0.0
N639 N 0.95219 0.33297 0.92513 0.0
C640 C 0.89518 0.32069 0.9728 0.0
C641 C 0.87474 0.2914 0.93349 0.0
C642 C 0.02416 0.44259 0.93619 0.0
C643 C 0.14696 0.46288 0.79665 0.0
C644 C 0.12549 0.49752 0.88023 0.0
C645 C 0.14303 0.51658 0.8283 0.0
C646 C 0.15373 0.49904 0.78623 0.0
N647 N 0.11868 0.46197 0.88995 0.0
C648 C 0.12929 0.44467 0.84904 0.0
Co649 Co 0.64125 0.0043 0.24799 0.0
Co650 Co 0.65831 0.09082 0.29939 0.0
O651 O 0.66927 0.0594 0.24735 0.0
C652 C 0.63326 0.02285 0.1243 0.0
O653 O 0.62993 0.05091 0.14425 0.0
C654 C 0.74032 0.11968 0.32044 0.0
O655 O 0.73548 0.08586 0.3151 0.0
O656 O 0.65549 0.06038 0.36996 0.0
O657 O 0.64119 0.00361 0.33613 0.0
H658 H 0.58756 0.11318 0.46 0.0
H659 H 0.71034 0.04418 0.17649 0.0
O660 O 0.63972 0.00271 0.15954 0.0
H661 H 0.73551 0.97007 0.32133 0.0
H662 H 0.61197 0.87667 0.17742 0.0
H663 H 0.57581 0.94629 0.31417 0.0
H664 H 0.67434 0.96712 0.31946 0.0
H665 H 0.64731 0.94567 0.17963 0.0
O666 O 0.71281 0.12529 0.31497 0.0
H667 H 0.60192 0.07494 0.3927 0.0
H668 H 0.69185 0.17328 0.31783 0.0
H669 H 0.53985 0.87728 0.31381 0.0
H670 H 0.77185 0.04778 0.1765 0.0
H671 H 0.55791 0.84199 0.24507 0.0
H672 H 0.78477 0.01062 0.24944 0.0
O673 O 0.59228 0.00292 0.24823 0.0
H674 H 0.71574 0.1613 0.11138 0.0
H675 H 0.61154 0.1216 0.25253 0.0
H676 H 0.61429 0.15813 0.16435 0.0
H677 H 0.66672 0.17827 0.09306 0.0
H678 H 0.71164 0.12439 0.19986 0.0
H679 H 0.67869 0.21255 0.38469 0.0
H680 H 0.6261 0.1825 0.45624 0.0
O681 O 0.60364 0.05835 0.28482 0.0
C682 C 0.64744 0.02653 0.37824 0.0
C683 C 0.61047 0.1266 0.42887 0.0
C684 C 0.66165 0.18237 0.38667 0.0
N685 N 0.64751 0.12184 0.35108 0.0
C686 C 0.61866 0.1051 0.39054 0.0
C687 C 0.66903 0.15998 0.34903 0.0
C688 C 0.63214 0.1655 0.42679 0.0
C689 C 0.71566 0.02766 0.20796 0.0
N690 N 0.68876 0.00537 0.24776 0.0
C691 C 0.75057 0.02992 0.20792 0.0
C692 C 0.75782 0.00911 0.24893 0.0
C693 C 0.73021 0.98638 0.28931 0.0
C694 C 0.69566 0.9849 0.28815 0.0
C695 C 0.60396 0.89171 0.20783 0.0
C696 C 0.58401 0.93112 0.28448 0.0
C697 C 0.62389 0.93079 0.20932 0.0
N698 N 0.614 0.94998 0.24772 0.0
C699 C 0.56347 0.89205 0.28433 0.0
C700 C 0.57361 0.87228 0.24574 0.0
C701 C 0.58175 0.02578 0.26445 0.0
C702 C 0.69276 0.15269 0.14211 0.0
C703 C 0.63429 0.13005 0.22148 0.0
C704 C 0.63579 0.15087 0.17177 0.0
C705 C 0.66523 0.16217 0.13182 0.0
N706 N 0.66129 0.12072 0.23114 0.0
C707 C 0.69034 0.13187 0.19234 0.0
C708 C 0.39456 0.36864 0.29023 0.0
C709 C 0.37724 0.38886 0.27146 0.0
C710 C 0.39897 0.36386 0.35057 0.0
C711 C 0.38511 0.37809 0.394 0.0
H712 H 0.40534 0.35694 0.25804 0.0
H713 H 0.41277 0.34844 0.36331 0.0
S714 S 0.33729 0.43273 0.36795 0.0
N715 N 0.34655 0.42349 0.30097 0.0
N716 N 0.35355 0.41334 0.41438 0.0
C717 C 0.36741 0.39802 0.37582 0.0
C718 C 0.36384 0.40374 0.31449 0.0
C719 C 0.96359 0.35497 0.65301 0.0
C720 C 0.99133 0.37156 0.60932 0.0
C721 C 0.97308 0.35989 0.71328 0.0
C722 C 0.01045 0.38258 0.73165 0.0
H723 H 0.9345 0.33767 0.64052 0.0
H724 H 0.95094 0.34639 0.74573 0.0
S725 S 0.09319 0.43318 0.63425 0.0
N726 N 0.05754 0.4117 0.58822 0.0
N727 N 0.07515 0.422 0.70141 0.0
C728 C 0.03831 0.39977 0.68832 0.0
C729 C 0.02879 0.39396 0.6271 0.0
C730 C 0.63893 0.03154 0.95718 0.0
C731 C 0.6175 0.99407 0.93846 0.0
C732 C 0.64332 0.04086 0.01751 0.0
C733 C 0.62743 0.01289 0.06101 0.0
H734 H 0.652 0.05388 0.92492 0.0
H735 H 0.65983 0.07002 0.03022 0.0
S736 S 0.56898 0.91068 0.03518 0.0
N737 N 0.57982 0.92901 0.96815 0.0
N738 N 0.58921 0.94632 0.08153 0.0
C739 C 0.60615 0.97534 0.04289 0.0
C740 C 0.60086 0.96597 0.98156 0.0
C741 C 0.64585 0.61285 0.31324 0.0
C742 C 0.62999 0.6245 0.26911 0.0
C743 C 0.64074 0.6176 0.37327 0.0
C744 C 0.61863 0.63307 0.39104 0.0
H745 H 0.66275 0.60049 0.30128 0.0
H746 H 0.65362 0.60844 0.40603 0.0
S747 S 0.56986 0.66662 0.29228 0.0
N748 N 0.59108 0.65183 0.24682 0.0
N749 N 0.58034 0.65947 0.3598 0.0
C750 C 0.6021 0.64422 0.34729 0.0
C751 C 0.60812 0.6403 0.28621 0.0
C752 C 0.96507 0.60217 0.67988 0.0
C753 C 0.99302 0.61345 0.72323 0.0
C754 C 0.97436 0.60774 0.6196 0.0
C755 C 0.01178 0.62369 0.60079 0.0
H756 H 0.93594 0.58962 0.69267 0.0
H757 H 0.95203 0.59891 0.58745 0.0
S758 S 0.09509 0.65672 0.6971 0.0
N759 N 0.05951 0.64108 0.74357 0.0
N760 N 0.07678 0.65018 0.63015 0.0
C761 C 0.03988 0.63445 0.64372 0.0
C762 C 0.03054 0.62971 0.70505 0.0
C763 C 0.36162 0.96825 0.01688 0.0
C764 C 0.37651 0.99572 0.0612 0.0
C765 C 0.36603 0.97826 0.95694 0.0
C766 C 0.38648 0.01603 0.93932 0.0
H767 H 0.34604 0.93886 0.02864 0.0
H768 H 0.35389 0.95619 0.92411 0.0
S769 S 0.43226 0.09843 0.03856 0.0
N770 N 0.41274 0.06218 0.08384 0.0
N771 N 0.42221 0.08091 0.97094 0.0
C772 C 0.40205 0.04373 0.98324 0.0
C773 C 0.39671 0.03358 0.0443 0.0
C774 C 0.19505 0.41314 0.96907 0.0
C775 C 0.16066 0.38265 0.98742 0.0
C776 C 0.2287 0.41328 0.97664 0.0
C777 C 0.22979 0.38287 0.00266 0.0
H778 H 0.19633 0.4377 0.94942 0.0
H779 H 0.25425 0.43788 0.96252 0.0
S780 S 0.14771 0.29486 0.05501 0.0
N781 N 0.12965 0.32013 0.0303 0.0
N782 N 0.19332 0.32044 0.0443 0.0
C783 C 0.19562 0.3514 0.01906 0.0
C784 C 0.16101 0.35129 0.01154 0.0
C785 C 0.8138 0.21774 0.36514 0.0
C786 C 0.84779 0.22069 0.34682 0.0
C787 C 0.7797 0.18464 0.35797 0.0
C788 C 0.77776 0.15261 0.33247 0.0
H789 H 0.8132 0.24152 0.38427 0.0
H790 H 0.75448 0.18443 0.37194 0.0
S791 S 0.85847 0.14418 0.28036 0.0
N792 N 0.87747 0.18773 0.30446 0.0
N793 N 0.81297 0.12513 0.29135 0.0
C794 C 0.81151 0.15436 0.31618 0.0
C795 C 0.84657 0.18843 0.32324 0.0
C796 C 0.64852 0.84239 0.69625 0.0
C797 C 0.62075 0.84834 0.67097 0.0
C798 C 0.64802 0.80826 0.68812 0.0
C799 C 0.61981 0.77904 0.65429 0.0
H800 H 0.66976 0.86354 0.72452 0.0
H801 H 0.66903 0.80427 0.71032 0.0
S802 S 0.54455 0.78352 0.57065 0.0
N803 N 0.56714 0.82414 0.6051 0.0
N804 N 0.56611 0.76053 0.58966 0.0
C805 C 0.59334 0.78579 0.62591 0.0
C806 C 0.59383 0.82029 0.6343 0.0
C807 C 0.81418 0.65358 0.0349 0.0
C808 C 0.78105 0.62877 0.00475 0.0
C809 C 0.84741 0.65244 0.02602 0.0
C810 C 0.8486 0.62659 0.9865 0.0
H811 H 0.81395 0.67265 0.06761 0.0
H812 H 0.87179 0.67078 0.05218 0.0
S813 S 0.77072 0.56024 0.88943 0.0
N814 N 0.75261 0.58094 0.92887 0.0
N815 N 0.81454 0.57896 0.91159 0.0
C816 C 0.81615 0.60351 0.95325 0.0
C817 C 0.78254 0.60455 0.96255 0.0
C818 C 0.16183 0.8054 0.35747 0.0
C819 C 0.15748 0.77145 0.3358 0.0
C820 C 0.19568 0.83941 0.3497 0.0
C821 C 0.22627 0.84067 0.31962 0.0
H822 H 0.13942 0.80552 0.38224 0.0
H823 H 0.19816 0.86464 0.36869 0.0
S824 S 0.22677 0.75978 0.24741 0.0
N825 N 0.185 0.74178 0.27787 0.0
N826 N 0.24818 0.80473 0.26377 0.0
C827 C 0.22135 0.80693 0.2955 0.0
C828 C 0.18711 0.77262 0.30345 0.0
C829 C 0.40713 0.18777 0.64589 0.0
C830 C 0.37682 0.15665 0.67283 0.0
C831 C 0.4076 0.22162 0.63886 0.0
C832 C 0.37784 0.22633 0.65866 0.0
H833 H 0.43117 0.18625 0.6304 0.0
H834 H 0.43202 0.24449 0.61822 0.0
S835 S 0.2906 0.15288 0.72937 0.0
N836 N 0.31525 0.13199 0.71713 0.0
N837 N 0.31611 0.19605 0.70412 0.0
C838 C 0.34659 0.19506 0.68387 0.0
C839 C 0.34607 0.16018 0.69088 0.0
C840 C 0.39099 0.35537 0.82001 0.0
C841 C 0.37298 0.36234 0.77288 0.0
C842 C 0.38598 0.3629 0.87873 0.0
C843 C 0.36319 0.37825 0.89293 0.0
H844 H 0.40967 0.34456 0.81164 0.0
H845 H 0.40095 0.35751 0.91309 0.0
S846 S 0.30698 0.39878 0.78742 0.0
N847 N 0.32893 0.38303 0.7457 0.0
N848 N 0.32053 0.39794 0.8558 0.0
C849 C 0.34419 0.38444 0.84674 0.0
C850 C 0.34878 0.37626 0.78692 0.0
C851 C 0.97129 0.34085 0.18113 0.0
C852 C 0.99588 0.3572 0.22915 0.0
C853 C 0.98422 0.34777 0.12271 0.0
C854 C 0.02235 0.37169 0.10934 0.0
H855 H 0.94152 0.32306 0.18842 0.0
H856 H 0.96373 0.33487 0.08778 0.0
S857 S 0.09917 0.41899 0.21877 0.0
N858 N 0.06097 0.39635 0.2592 0.0
N859 N 0.08505 0.40973 0.1494 0.0
C860 C 0.04757 0.38714 0.15686 0.0
C861 C 0.03442 0.37981 0.21661 0.0
C862 C 0.64844 0.02568 0.54653 0.0
C863 C 0.63084 0.98732 0.56062 0.0
C864 C 0.65433 0.03804 0.48772 0.0
C865 C 0.64353 0.01264 0.44022 0.0
H866 H 0.65683 0.04649 0.58108 0.0
H867 H 0.66704 0.06782 0.47961 0.0
S868 S 0.60029 0.90921 0.4536 0.0
N869 N 0.60507 0.9241 0.52253 0.0
N870 N 0.61708 0.94711 0.41207 0.0
C871 C 0.62758 0.97421 0.45385 0.0
C872 C 0.62099 0.96162 0.51389 0.0
C873 C 0.6186 0.65714 0.8192 0.0
C874 C 0.63167 0.64521 0.77109 0.0
C875 C 0.62576 0.65138 0.87771 0.0
C876 C 0.64599 0.63306 0.89086 0.0
H877 H 0.60213 0.67058 0.81185 0.0
H878 H 0.6144 0.66057 0.91285 0.0
S879 S 0.68908 0.59876 0.7816 0.0
N880 N 0.66809 0.61613 0.74116 0.0
N881 N 0.68097 0.605 0.85093 0.0
C882 C 0.66021 0.62194 0.84338 0.0
C883 C 0.65323 0.6281 0.78369 0.0
C884 C 0.97518 0.61837 0.20797 0.0
C885 C 0.01327 0.6421 0.22165 0.0
C886 C 0.96239 0.61225 0.14926 0.0
C887 C 0.9871 0.6298 0.10166 0.0
H888 H 0.9551 0.60336 0.24269 0.0
H889 H 0.93301 0.59285 0.14125 0.0
S890 S 0.08924 0.69773 0.11442 0.0
N891 N 0.07515 0.68539 0.18319 0.0
N892 N 0.05148 0.67429 0.07337 0.0
C893 C 0.02509 0.65494 0.11515 0.0
C894 C 0.03807 0.66096 0.17488 0.0
C895 C 0.37862 0.02295 0.45262 0.0
C896 C 0.35802 0.9843 0.44002 0.0
C897 C 0.38509 0.03637 0.51082 0.0
C898 C 0.37102 0.01183 0.55937 0.0
H899 H 0.39079 0.04328 0.41729 0.0
H900 H 0.40188 0.06631 0.51759 0.0
S901 S 0.31234 0.90799 0.55055 0.0
N902 N 0.32159 0.92172 0.48101 0.0
N903 N 0.3333 0.94665 0.59034 0.0
C904 C 0.34912 0.97307 0.54738 0.0
C905 C 0.34277 0.95942 0.48789 0.0
C906 C 0.49276 0.46996 0.05381 0.0
C907 C 0.4661 0.47854 0.07576 0.0
C908 C 0.53089 0.49703 0.05247 0.0
C909 C 0.54395 0.53374 0.07354 0.0
H910 H 0.48401 0.44245 0.03584 0.0
H911 H 0.55012 0.48912 0.03381 0.0
S912 S 0.4854 0.56858 0.14268 0.0
N913 N 0.45546 0.52492 0.12402 0.0
N914 N 0.52682 0.57596 0.12157 0.0
C915 C 0.51752 0.54211 0.09782 0.0
C916 C 0.47872 0.51451 0.09888 0.0
C917 C 1.00209 0.51594 0.44558 0.0
C918 C 0.00861 0.53518 0.39163 0.0
C919 C 0.99343 0.47841 0.4468 0.0
C920 C 0.99014 0.45894 0.39403 0.0
H921 H 0.00462 0.53024 0.48701 0.0
H922 H 0.98878 0.46439 0.48909 0.0
S923 S 0.00391 0.49677 0.24166 0.0
N924 N 0.01127 0.53225 0.28454 0.0
N925 N 0.9938 0.46142 0.28671 0.0
C926 C 0.99604 0.47777 0.33992 0.0
C927 C 0.00564 0.51605 0.33876 0.0
C928 C 0.49671 0.97275 0.76079 0.0
C929 C 0.5328 0.99583 0.73778 0.0
C930 C 0.46965 0.98385 0.75969 0.0
C931 C 0.47738 0.01828 0.7346 0.0
H932 H 0.4893 0.94586 0.77994 0.0
H933 H 0.44232 0.96497 0.77806 0.0
S934 S 0.56766 0.08797 0.66546 0.0
N935 N 0.57482 0.0541 0.6883 0.0
N936 N 0.52423 0.07487 0.68444 0.0
C937 C 0.51356 0.0415 0.71109 0.0
C938 C 0.54119 0.03035 0.71322 0.0
C939 C 0.49316 0.52797 0.6225 0.0
C940 C 0.52844 0.54131 0.59542 0.0
C941 C 0.46588 0.48991 0.6212 0.0
C942 C 0.47291 0.46364 0.59344 0.0
H943 H 0.4865 0.54695 0.64546 0.0
H944 H 0.43948 0.48087 0.64346 0.0
S945 S 0.55872 0.48345 0.51165 0.0
N946 N 0.5676 0.52465 0.53684 0.0
N947 N 0.51612 0.45336 0.53477 0.0
C948 C 0.50742 0.4764 0.56505 0.0
C949 C 0.53522 0.51515 0.56593 0.0
C950 C 0.02396 0.53449 0.92323 0.0
C951 C 0.98616 0.52397 0.93193 0.0
C952 C 0.03585 0.50806 0.92481 0.0
C953 C 0.01045 0.46975 0.93396 0.0
H954 H 0.04483 0.56352 0.9158 0.0
H955 H 0.06525 0.51786 0.91826 0.0
S956 S 0.90845 0.4271 0.96023 0.0
N957 N 0.9235 0.47215 0.95203 0.0
N958 N 0.94573 0.42262 0.95226 0.0
C959 C 0.97257 0.45869 0.9422 0.0
C960 C 0.9605 0.48571 0.942 0.0
C961 C 0.51603 0.98202 0.29403 0.0
C962 C 0.54164 0.01356 0.26191 0.0
C963 C 0.47812 0.97155 0.29623 0.0
C964 C 0.46418 0.99177 0.26539 0.0
H965 H 0.52554 0.96595 0.31906 0.0
H966 H 0.45982 0.94766 0.32314 0.0
S967 S 0.52053 0.07578 0.17189 0.0
N968 N 0.55108 0.06445 0.19725 0.0
N969 N 0.47975 0.04466 0.20005 0.0
C970 C 0.48978 0.02324 0.23227 0.0
C971 C 0.52849 0.0341 0.23079 0.0
loop_
_geom_bond_atom_site_label_1
_geom_bond_atom_site_label_2
_geom_bond_distance
_geom_bond_site_symmetry_2
_ccdc_geom_bond_type
Co0 O2 2.143 . S
Co0 O8 2.074 1_554 S
Co0 O11 2.093 . S
Co0 O24 2.097 . S
Co0 N41 2.151 . S
Co0 N49 2.214 . S
Co1 O2 2.160 . S
Co1 O7 2.058 1_554 S
Co1 O17 2.057 . S
Co1 O32 2.037 . S
Co1 N36 2.145 1_554 S
Co1 N57 2.257 . S
O2 Co0 2.143 . S
O2 Co1 2.160 . S
C3 O4 1.278 . S
C3 O11 1.224 . S
O4 C3 1.278 . S
C5 O6 1.245 . S
C5 O17 1.232 . S
O6 C5 1.245 . S
O7 Co1 2.058 1_556 S
O7 C33 1.269 . S
O8 Co0 2.074 1_556 S
O8 C33 1.257 . S
H9 C34 0.930 . S
H10 C40 0.930 . S
O11 Co0 2.093 . S
O11 C3 1.224 . S
H12 C44 0.929 . S
H13 C46 0.930 . S
H14 C47 0.930 . S
H15 C45 0.929 . S
H16 C48 0.928 . S
O17 Co1 2.057 . S
O17 C5 1.232 . S
H18 C37 0.929 . S
H19 C38 0.929 . S
H20 C50 0.931 1_556 S
H21 C42 0.929 . S
H22 C51 0.930 . S
H23 C43 0.931 . S
O24 Co0 2.097 . S
O24 C52 1.214 . S
H25 C53 0.929 . S
H26 C54 0.929 . S
H27 C55 0.930 . S
H28 C56 0.929 . S
H29 C58 0.930 . S
H30 C35 0.930 . S
H31 C39 0.930 . S
O32 Co1 2.037 . S
O32 C52 1.234 . S
C33 O7 1.269 . S
C33 O8 1.257 . S
C34 H9 0.930 . S
C34 C37 1.388 . S
C34 C39 1.418 . S
C35 H30 0.930 . S
C35 C38 1.404 . S
C35 C39 1.353 . S
N36 Co1 2.145 1_556 S
N36 C37 1.397 . S
N36 C38 1.334 . S
C37 H18 0.929 . S
C37 C34 1.388 . S
C37 N36 1.397 . S
C38 H19 0.929 . S
C38 C35 1.404 . S
C38 N36 1.334 . S
C39 H31 0.930 . S
C39 C34 1.418 . S
C39 C35 1.353 . S
C40 H10 0.930 . S
C40 N41 1.330 . S
C40 C42 1.446 . S
N41 Co0 2.151 . S
N41 C40 1.330 . S
N41 C45 1.418 . S
C42 H21 0.929 . S
C42 C40 1.446 . S
C42 C43 1.332 . S
C43 H23 0.931 . S
C43 C42 1.332 . S
C43 C44 1.267 . S
C44 H12 0.929 . S
C44 C43 1.267 . S
C44 C45 1.251 . S
C45 H15 0.929 . S
C45 N41 1.418 . S
C45 C44 1.251 . S
C46 H13 0.930 . S
C46 C48 1.406 . S
C46 C51 1.261 . S
C47 H14 0.930 . S
C47 N49 1.325 . S
C47 C50 1.357 . S
C48 H16 0.928 . S
C48 C46 1.406 . S
C48 N49 1.261 . S
N49 Co0 2.214 . S
N49 C47 1.325 . S
N49 C48 1.261 . S
C50 H20 0.931 1_554 S
C50 C47 1.357 . S
C50 C51 1.312 . S
C51 H22 0.930 . S
C51 C46 1.261 . S
C51 C50 1.312 . S
C52 O24 1.214 . S
C52 O32 1.234 . S
C53 H25 0.929 . S
C53 C56 1.391 . S
C53 C58 1.391 . S
C54 H26 0.929 . S
C54 C55 1.390 . S
C54 N57 1.391 . S
C55 H27 0.930 . S
C55 C54 1.390 . S
C55 C56 1.392 . S
C56 H28 0.929 . S
C56 C53 1.391 . S
C56 C55 1.392 . S
N57 Co1 2.257 . S
N57 C54 1.391 . S
N57 C58 1.388 . S
C58 H29 0.930 . S
C58 C53 1.391 . S
C58 N57 1.388 . S
Co59 O61 2.143 1_455 S
Co59 O67 2.074 . S
Co59 O70 2.093 . S
Co59 O83 2.097 . S
Co59 N100 2.151 . S
Co59 N108 2.214 . S
Co60 O61 2.160 . S
Co60 O66 2.058 . S
Co60 O76 2.057 . S
Co60 O91 2.037 . S
Co60 N95 2.145 . S
Co60 N116 2.257 . S
O61 Co59 2.143 1_655 S
O61 Co60 2.160 . S
C62 O63 1.278 . S
C62 O70 1.224 1_655 S
O63 C62 1.278 . S
C64 O65 1.245 . S
C64 O76 1.232 . S
O65 C64 1.245 . S
O66 Co60 2.058 . S
O66 C92 1.269 . S
O67 Co59 2.074 . S
O67 C92 1.257 1_455 S
H68 C93 0.930 . S
H69 C99 0.930 1_655 S
O70 Co59 2.093 . S
O70 C62 1.224 1_455 S
H71 C103 0.929 . S
H72 C105 0.930 . S
H73 C106 0.930 . S
H74 C104 0.929 . S
H75 C107 0.928 . S
O76 Co60 2.057 . S
O76 C64 1.232 . S
H77 C96 0.929 . S
H78 C97 0.929 . S
H79 C109 0.931 . S
H80 C101 0.929 . S
H81 C110 0.930 . S
H82 C102 0.931 . S
O83 Co59 2.097 . S
O83 C111 1.214 1_455 S
H84 C112 0.929 . S
H85 C113 0.929 . S
H86 C114 0.930 . S
H87 C115 0.929 . S
H88 C117 0.930 . S
H89 C94 0.930 . S
H90 C98 0.930 . S
O91 Co60 2.037 . S
O91 C111 1.234 . S
C92 O66 1.269 . S
C92 O67 1.257 1_655 S
C93 H68 0.930 . S
C93 C96 1.388 . S
C93 C98 1.418 . S
C94 H89 0.930 . S
C94 C97 1.404 . S
C94 C98 1.353 . S
N95 Co60 2.145 . S
N95 C96 1.397 . S
N95 C97 1.334 . S
C96 H77 0.929 . S
C96 C93 1.388 . S
C96 N95 1.397 . S
C97 H78 0.929 . S
C97 C94 1.404 . S
C97 N95 1.334 . S
C98 H90 0.930 . S
C98 C93 1.418 . S
C98 C94 1.353 . S
C99 H69 0.930 1_455 S
C99 N100 1.330 . S
C99 C101 1.446 . S
N100 Co59 2.151 . S
N100 C99 1.330 . S
N100 C104 1.418 . S
C101 H80 0.929 . S
C101 C99 1.446 . S
C101 C102 1.332 . S
C102 H82 0.931 . S
C102 C101 1.332 . S
C102 C103 1.267 . S
C103 H71 0.929 . S
C103 C102 1.267 . S
C103 C104 1.251 . S
C104 H74 0.929 . S
C104 N100 1.418 . S
C104 C103 1.251 . S
C105 H72 0.930 . S
C105 C107 1.406 . S
C105 C110 1.261 . S
C106 H73 0.930 . S
C106 N108 1.325 . S
C106 C109 1.357 . S
C107 H75 0.928 . S
C107 C105 1.406 . S
C107 N108 1.261 . S
N108 Co59 2.214 . S
N108 C106 1.325 . S
N108 C107 1.261 . S
C109 H79 0.931 . S
C109 C106 1.357 . S
C109 C110 1.312 . S
C110 H81 0.930 . S
C110 C105 1.261 . S
C110 C109 1.312 . S
C111 O83 1.214 1_655 S
C111 O91 1.234 . S
C112 H84 0.929 . S
C112 C115 1.391 . S
C112 C117 1.391 . S
C113 H85 0.929 . S
C113 C114 1.390 . S
C113 N116 1.391 . S
C114 H86 0.930 . S
C114 C113 1.390 . S
C114 C115 1.392 . S
C115 H87 0.929 . S
C115 C112 1.391 . S
C115 C114 1.392 . S
N116 Co60 2.257 . S
N116 C113 1.391 . S
N116 C117 1.388 . S
C117 H88 0.930 . S
C117 C112 1.391 . S
C117 N116 1.388 . S
Co118 O120 2.143 1_545 S
Co118 O126 2.074 . S
Co118 O129 2.093 . S
Co118 O142 2.097 . S
Co118 N159 2.151 . S
Co118 N167 2.214 . S
Co119 O120 2.160 . S
Co119 O125 2.058 . S
Co119 O135 2.057 . S
Co119 O150 2.037 . S
Co119 N154 2.145 . S
Co119 N175 2.257 . S
O120 Co118 2.143 1_565 S
O120 Co119 2.160 . S
C121 O122 1.278 . S
C121 O129 1.224 1_565 S
O122 C121 1.278 . S
C123 O124 1.245 . S
C123 O135 1.232 . S
O124 C123 1.245 . S
O125 Co119 2.058 . S
O125 C151 1.269 . S
O126 Co118 2.074 . S
O126 C151 1.257 1_545 S
H127 C152 0.930 . S
H128 C158 0.930 1_565 S
O129 Co118 2.093 . S
O129 C121 1.224 1_545 S
H130 C162 0.929 . S
H131 C164 0.930 . S
H132 C165 0.930 . S
H133 C163 0.929 . S
H134 C166 0.928 . S
O135 Co119 2.057 . S
O135 C123 1.232 . S
H136 C155 0.929 . S
H137 C156 0.929 . S
H138 C168 0.931 . S
H139 C160 0.929 . S
H140 C169 0.930 . S
H141 C161 0.931 . S
O142 Co118 2.097 . S
O142 C170 1.214 1_545 S
H143 C171 0.929 . S
H144 C172 0.929 . S
H145 C173 0.930 . S
H146 C174 0.929 . S
H147 C176 0.930 . S
H148 C153 0.930 . S
H149 C157 0.930 . S
O150 Co119 2.037 . S
O150 C170 1.234 . S
C151 O125 1.269 . S
C151 O126 1.257 1_565 S
C152 H127 0.930 . S
C152 C155 1.388 . S
C152 C157 1.418 . S
C153 H148 0.930 . S
C153 C156 1.404 . S
C153 C157 1.353 . S
N154 Co119 2.145 . S
N154 C155 1.397 . S
N154 C156 1.334 . S
C155 H136 0.929 . S
C155 C152 1.388 . S
C155 N154 1.397 . S
C156 H137 0.929 . S
C156 C153 1.404 . S
C156 N154 1.334 . S
C157 H149 0.930 . S
C157 C152 1.418 . S
C157 C153 1.353 . S
C158 H128 0.930 1_545 S
C158 N159 1.330 . S
C158 C160 1.446 . S
N159 Co118 2.151 . S
N159 C158 1.330 . S
N159 C163 1.418 . S
C160 H139 0.929 . S
C160 C158 1.446 . S
C160 C161 1.332 . S
C161 H141 0.931 . S
C161 C160 1.332 . S
C161 C162 1.267 . S
C162 H130 0.929 . S
C162 C161 1.267 . S
C162 C163 1.251 . S
C163 H133 0.929 . S
C163 N159 1.418 . S
C163 C162 1.251 . S
C164 H131 0.930 . S
C164 C166 1.406 . S
C164 C169 1.261 . S
C165 H132 0.930 . S
C165 N167 1.325 . S
C165 C168 1.357 . S
C166 H134 0.928 . S
C166 C164 1.406 . S
C166 N167 1.261 . S
N167 Co118 2.214 . S
N167 C165 1.325 . S
N167 C166 1.261 . S
C168 H138 0.931 . S
C168 C165 1.357 . S
C168 C169 1.312 . S
C169 H140 0.930 . S
C169 C164 1.261 . S
C169 C168 1.312 . S
C170 O142 1.214 1_565 S
C170 O150 1.234 . S
C171 H143 0.929 . S
C171 C174 1.391 . S
C171 C176 1.391 . S
C172 H144 0.929 . S
C172 C173 1.390 . S
C172 N175 1.391 . S
C173 H145 0.930 . S
C173 C172 1.390 . S
C173 C174 1.392 . S
C174 H146 0.929 . S
C174 C171 1.391 . S
C174 C173 1.392 . S
N175 Co119 2.257 . S
N175 C172 1.391 . S
N175 C176 1.388 . S
C176 H147 0.930 . S
C176 C171 1.391 . S
C176 N175 1.388 . S
Co177 O179 2.143 . S
Co177 O185 2.074 1_554 S
Co177 O188 2.093 . S
Co177 O201 2.097 . S
Co177 N218 2.151 . S
Co177 N226 2.214 . S
Co178 O179 2.160 . S
Co178 O184 2.058 1_554 S
Co178 O194 2.057 . S
Co178 O209 2.037 . S
Co178 N213 2.145 1_554 S
Co178 N234 2.257 . S
O179 Co177 2.143 . S
O179 Co178 2.160 . S
C180 O181 1.278 . S
C180 O188 1.224 . S
O181 C180 1.278 . S
C182 O183 1.245 . S
C182 O194 1.232 . S
O183 C182 1.245 . S
O184 Co178 2.058 1_556 S
O184 C210 1.269 . S
O185 Co177 2.074 1_556 S
O185 C210 1.257 . S
H186 C211 0.930 . S
H187 C217 0.930 . S
O188 Co177 2.093 . S
O188 C180 1.224 . S
H189 C221 0.929 . S
H190 C223 0.930 . S
H191 C224 0.930 . S
H192 C222 0.929 . S
H193 C225 0.928 . S
O194 Co178 2.057 . S
O194 C182 1.232 . S
H195 C214 0.929 . S
H196 C215 0.929 . S
H197 C227 0.931 1_556 S
H198 C219 0.929 . S
H199 C228 0.930 . S
H200 C220 0.931 . S
O201 Co177 2.097 . S
O201 C229 1.214 . S
H202 C230 0.929 . S
H203 C231 0.929 . S
H204 C232 0.930 . S
H205 C233 0.929 . S
H206 C235 0.930 . S
H207 C212 0.930 . S
H208 C216 0.930 . S
O209 Co178 2.037 . S
O209 C229 1.234 . S
C210 O184 1.269 . S
C210 O185 1.257 . S
C211 H186 0.930 . S
C211 C214 1.388 . S
C211 C216 1.418 . S
C212 H207 0.930 . S
C212 C215 1.404 . S
C212 C216 1.353 . S
N213 Co178 2.145 1_556 S
N213 C214 1.397 . S
N213 C215 1.334 . S
C214 H195 0.929 . S
C214 C211 1.388 . S
C214 N213 1.397 . S
C215 H196 0.929 . S
C215 C212 1.404 . S
C215 N213 1.334 . S
C216 H208 0.930 . S
C216 C211 1.418 . S
C216 C212 1.353 . S
C217 H187 0.930 . S
C217 N218 1.330 . S
C217 C219 1.446 . S
N218 Co177 2.151 . S
N218 C217 1.330 . S
N218 C222 1.418 . S
C219 H198 0.929 . S
C219 C217 1.446 . S
C219 C220 1.332 . S
C220 H200 0.931 . S
C220 C219 1.332 . S
C220 C221 1.267 . S
C221 H189 0.929 . S
C221 C220 1.267 . S
C221 C222 1.251 . S
C222 H192 0.929 . S
C222 N218 1.418 . S
C222 C221 1.251 . S
C223 H190 0.930 . S
C223 C225 1.406 . S
C223 C228 1.261 . S
C224 H191 0.930 . S
C224 N226 1.325 . S
C224 C227 1.357 . S
C225 H193 0.928 . S
C225 C223 1.406 . S
C225 N226 1.261 . S
N226 Co177 2.214 . S
N226 C224 1.325 . S
N226 C225 1.261 . S
C227 H197 0.931 1_554 S
C227 C224 1.357 . S
C227 C228 1.312 . S
C228 H199 0.930 . S
C228 C223 1.261 . S
C228 C227 1.312 . S
C229 O201 1.214 . S
C229 O209 1.234 . S
C230 H202 0.929 . S
C230 C233 1.391 . S
C230 C235 1.391 . S
C231 H203 0.929 . S
C231 C232 1.390 . S
C231 N234 1.391 . S
C232 H204 0.930 . S
C232 C231 1.390 . S
C232 C233 1.392 . S
C233 H205 0.929 . S
C233 C230 1.391 . S
C233 C232 1.392 . S
N234 Co178 2.257 . S
N234 C231 1.391 . S
N234 C235 1.388 . S
C235 H206 0.930 . S
C235 C230 1.391 . S
C235 N234 1.388 . S
Co236 O238 2.143 1_655 S
Co236 O244 2.074 . S
Co236 O247 2.093 . S
Co236 O260 2.097 . S
Co236 N277 2.151 . S
Co236 N285 2.214 . S
Co237 O238 2.160 . S
Co237 O243 2.058 . S
Co237 O253 2.057 . S
Co237 O268 2.037 . S
Co237 N272 2.145 . S
Co237 N293 2.257 . S
O238 Co236 2.143 1_455 S
O238 Co237 2.160 . S
C239 O240 1.278 . S
C239 O247 1.224 1_455 S
O240 C239 1.278 . S
C241 O242 1.245 . S
C241 O253 1.232 . S
O242 C241 1.245 . S
O243 Co237 2.058 . S
O243 C269 1.269 . S
O244 Co236 2.074 . S
O244 C269 1.257 1_655 S
H245 C270 0.930 . S
H246 C276 0.930 1_455 S
O247 Co236 2.093 . S
O247 C239 1.224 1_655 S
H248 C280 0.929 . S
H249 C282 0.930 . S
H250 C283 0.930 . S
H251 C281 0.929 . S
H252 C284 0.928 . S
O253 Co237 2.057 . S
O253 C241 1.232 . S
H254 C273 0.929 . S
H255 C274 0.929 . S
H256 C286 0.931 . S
H257 C278 0.929 . S
H258 C287 0.930 . S
H259 C279 0.931 . S
O260 Co236 2.097 . S
O260 C288 1.214 1_655 S
H261 C289 0.929 . S
H262 C290 0.929 . S
H263 C291 0.930 . S
H264 C292 0.929 . S
H265 C294 0.930 . S
H266 C271 0.930 . S
H267 C275 0.930 . S
O268 Co237 2.037 . S
O268 C288 1.234 . S
C269 O243 1.269 . S
C269 O244 1.257 1_455 S
C270 H245 0.930 . S
C270 C273 1.388 . S
C270 C275 1.418 . S
C271 H266 0.930 . S
C271 C274 1.404 . S
C271 C275 1.353 . S
N272 Co237 2.145 . S
N272 C273 1.397 . S
N272 C274 1.334 . S
C273 H254 0.929 . S
C273 C270 1.388 . S
C273 N272 1.397 . S
C274 H255 0.929 . S
C274 C271 1.404 . S
C274 N272 1.334 . S
C275 H267 0.930 . S
C275 C270 1.418 . S
C275 C271 1.353 . S
C276 H246 0.930 1_655 S
C276 N277 1.330 . S
C276 C278 1.446 . S
N277 Co236 2.151 . S
N277 C276 1.330 . S
N277 C281 1.418 . S
C278 H257 0.929 . S
C278 C276 1.446 . S
C278 C279 1.332 . S
C279 H259 0.931 . S
C279 C278 1.332 . S
C279 C280 1.267 . S
C280 H248 0.929 . S
C280 C279 1.267 . S
C280 C281 1.251 . S
C281 H251 0.929 . S
C281 N277 1.418 . S
C281 C280 1.251 . S
C282 H249 0.930 . S
C282 C284 1.406 . S
C282 C287 1.261 . S
C283 H250 0.930 . S
C283 N285 1.325 . S
C283 C286 1.357 . S
C284 H252 0.928 . S
C284 C282 1.406 . S
C284 N285 1.261 . S
N285 Co236 2.214 . S
N285 C283 1.325 . S
N285 C284 1.261 . S
C286 H256 0.931 . S
C286 C283 1.357 . S
C286 C287 1.312 . S
C287 H258 0.930 . S
C287 C282 1.261 . S
C287 C286 1.312 . S
C288 O260 1.214 1_455 S
C288 O268 1.234 . S
C289 H261 0.929 . S
C289 C292 1.391 . S
C289 C294 1.391 . S
C290 H262 0.929 . S
C290 C291 1.390 . S
C290 N293 1.391 . S
C291 H263 0.930 . S
C291 C290 1.390 . S
C291 C292 1.392 . S
C292 H264 0.929 . S
C292 C289 1.391 . S
C292 C291 1.392 . S
N293 Co237 2.257 . S
N293 C290 1.391 . S
N293 C294 1.388 . S
C294 H265 0.930 . S
C294 C289 1.391 . S
C294 N293 1.388 . S
Co295 O297 2.143 1_565 S
Co295 O303 2.074 . S
Co295 O306 2.093 . S
Co295 O319 2.097 . S
Co295 N336 2.151 . S
Co295 N344 2.214 . S
Co296 O297 2.160 . S
Co296 O302 2.058 . S
Co296 O312 2.057 . S
Co296 O327 2.037 . S
Co296 N331 2.145 . S
Co296 N352 2.257 . S
O297 Co295 2.143 1_545 S
O297 Co296 2.160 . S
C298 O299 1.278 . S
C298 O306 1.224 1_545 S
O299 C298 1.278 . S
C300 O301 1.245 . S
C300 O312 1.232 . S
O301 C300 1.245 . S
O302 Co296 2.058 . S
O302 C328 1.269 . S
O303 Co295 2.074 . S
O303 C328 1.257 1_565 S
H304 C329 0.930 . S
H305 C335 0.930 1_545 S
O306 Co295 2.093 . S
O306 C298 1.224 1_565 S
H307 C339 0.929 . S
H308 C341 0.930 . S
H309 C342 0.930 . S
H310 C340 0.929 . S
H311 C343 0.928 . S
O312 Co296 2.057 . S
O312 C300 1.232 . S
H313 C332 0.929 . S
H314 C333 0.929 . S
H315 C345 0.931 . S
H316 C337 0.929 . S
H317 C346 0.930 . S
H318 C338 0.931 . S
O319 Co295 2.097 . S
O319 C347 1.214 1_565 S
H320 C348 0.929 . S
H321 C349 0.929 . S
H322 C350 0.930 . S
H323 C351 0.929 . S
H324 C353 0.930 . S
H325 C330 0.930 . S
H326 C334 0.930 . S
O327 Co296 2.037 . S
O327 C347 1.234 . S
C328 O302 1.269 . S
C328 O303 1.257 1_545 S
C329 H304 0.930 . S
C329 C332 1.388 . S
C329 C334 1.418 . S
C330 H325 0.930 . S
C330 C333 1.404 . S
C330 C334 1.353 . S
N331 Co296 2.145 . S
N331 C332 1.397 . S
N331 C333 1.334 . S
C332 H313 0.929 . S
C332 C329 1.388 . S
C332 N331 1.397 . S
C333 H314 0.929 . S
C333 C330 1.404 . S
C333 N331 1.334 . S
C334 H326 0.930 . S
C334 C329 1.418 . S
C334 C330 1.353 . S
C335 H305 0.930 1_565 S
C335 N336 1.330 . S
C335 C337 1.446 . S
N336 Co295 2.151 . S
N336 C335 1.330 . S
N336 C340 1.418 . S
C337 H316 0.929 . S
C337 C335 1.446 . S
C337 C338 1.332 . S
C338 H318 0.931 . S
C338 C337 1.332 . S
C338 C339 1.267 . S
C339 H307 0.929 . S
C339 C338 1.267 . S
C339 C340 1.251 . S
C340 H310 0.929 . S
C340 N336 1.418 . S
C340 C339 1.251 . S
C341 H308 0.930 . S
C341 C343 1.406 . S
C341 C346 1.261 . S
C342 H309 0.930 . S
C342 N344 1.325 . S
C342 C345 1.357 . S
C343 H311 0.928 . S
C343 C341 1.406 . S
C343 N344 1.261 . S
N344 Co295 2.214 . S
N344 C342 1.325 . S
N344 C343 1.261 . S
C345 H315 0.931 . S
C345 C342 1.357 . S
C345 C346 1.312 . S
C346 H317 0.930 . S
C346 C341 1.261 . S
C346 C345 1.312 . S
C347 O319 1.214 1_545 S
C347 O327 1.234 . S
C348 H320 0.929 . S
C348 C351 1.391 . S
C348 C353 1.391 . S
C349 H321 0.929 . S
C349 C350 1.390 . S
C349 N352 1.391 . S
C350 H322 0.930 . S
C350 C349 1.390 . S
C350 C351 1.392 . S
C351 H323 0.929 . S
C351 C348 1.391 . S
C351 C350 1.392 . S
N352 Co296 2.257 . S
N352 C349 1.391 . S
N352 C353 1.388 . S
C353 H324 0.930 . S
C353 C348 1.391 . S
C353 N352 1.388 . S
Co354 O356 2.143 . S
Co354 O362 2.074 . S
Co354 O365 2.093 . S
Co354 O378 2.097 . S
Co354 N395 2.151 . S
Co354 N403 2.214 . S
Co355 O356 2.160 . S
Co355 O361 2.058 . S
Co355 O371 2.057 . S
Co355 O386 2.037 . S
Co355 N390 2.145 . S
Co355 N411 2.257 . S
O356 Co354 2.143 . S
O356 Co355 2.160 . S
C357 O358 1.278 . S
C357 O365 1.224 . S
O358 C357 1.278 . S
C359 O360 1.245 . S
C359 O371 1.232 . S
O360 C359 1.245 . S
O361 Co355 2.058 . S
O361 C387 1.269 . S
O362 Co354 2.074 . S
O362 C387 1.257 . S
H363 C388 0.930 . S
H364 C394 0.930 . S
O365 Co354 2.093 . S
O365 C357 1.224 . S
H366 C398 0.929 . S
H367 C400 0.930 . S
H368 C401 0.930 . S
H369 C399 0.929 . S
H370 C402 0.928 . S
O371 Co355 2.057 . S
O371 C359 1.232 . S
H372 C391 0.929 . S
H373 C392 0.929 . S
H374 C404 0.931 . S
H375 C396 0.929 . S
H376 C405 0.930 . S
H377 C397 0.931 . S
O378 Co354 2.097 . S
O378 C406 1.214 . S
H379 C407 0.929 . S
H380 C408 0.929 . S
H381 C409 0.930 . S
H382 C410 0.929 . S
H383 C412 0.930 . S
H384 C389 0.930 . S
H385 C393 0.930 . S
O386 Co355 2.037 . S
O386 C406 1.234 . S
C387 O361 1.269 . S
C387 O362 1.257 . S
C388 H363 0.930 . S
C388 C391 1.388 . S
C388 C393 1.418 . S
C389 H384 0.930 . S
C389 C392 1.404 . S
C389 C393 1.353 . S
N390 Co355 2.145 . S
N390 C391 1.397 . S
N390 C392 1.334 . S
C391 H372 0.929 . S
C391 C388 1.388 . S
C391 N390 1.397 . S
C392 H373 0.929 . S
C392 C389 1.404 . S
C392 N390 1.334 . S
C393 H385 0.930 . S
C393 C388 1.418 . S
C393 C389 1.353 . S
C394 H364 0.930 . S
C394 N395 1.330 . S
C394 C396 1.446 . S
N395 Co354 2.151 . S
N395 C394 1.330 . S
N395 C399 1.418 . S
C396 H375 0.929 . S
C396 C394 1.446 . S
C396 C397 1.332 . S
C397 H377 0.931 . S
C397 C396 1.332 . S
C397 C398 1.267 . S
C398 H366 0.929 . S
C398 C397 1.267 . S
C398 C399 1.251 . S
C399 H369 0.929 . S
C399 N395 1.418 . S
C399 C398 1.251 . S
C400 H367 0.930 . S
C400 C402 1.406 . S
C400 C405 1.261 . S
C401 H368 0.930 . S
C401 N403 1.325 . S
C401 C404 1.357 . S
C402 H370 0.928 . S
C402 C400 1.406 . S
C402 N403 1.261 . S
N403 Co354 2.214 . S
N403 C401 1.325 . S
N403 C402 1.261 . S
C404 H374 0.931 . S
C404 C401 1.357 . S
C404 C405 1.312 . S
C405 H376 0.930 . S
C405 C400 1.261 . S
C405 C404 1.312 . S
C406 O378 1.214 . S
C406 O386 1.234 . S
C407 H379 0.929 . S
C407 C410 1.391 . S
C407 C412 1.391 . S
C408 H380 0.929 . S
C408 C409 1.390 . S
C408 N411 1.391 . S
C409 H381 0.930 . S
C409 C408 1.390 . S
C409 C410 1.392 . S
C410 H382 0.929 . S
C410 C407 1.391 . S
C410 C409 1.392 . S
N411 Co355 2.257 . S
N411 C408 1.391 . S
N411 C412 1.388 . S
C412 H383 0.930 . S
C412 C407 1.391 . S
C412 N411 1.388 . S
Co413 O415 2.143 1_455 S
Co413 O421 2.074 1_556 S
Co413 O424 2.093 . S
Co413 O437 2.097 . S
Co413 N454 2.151 . S
Co413 N462 2.214 . S
Co414 O415 2.160 . S
Co414 O420 2.058 1_556 S
Co414 O430 2.057 . S
Co414 O445 2.037 . S
Co414 N449 2.145 1_556 S
Co414 N470 2.257 . S
O415 Co413 2.143 1_655 S
O415 Co414 2.160 . S
C416 O417 1.278 . S
C416 O424 1.224 1_655 S
O417 C416 1.278 . S
C418 O419 1.245 . S
C418 O430 1.232 . S
O419 C418 1.245 . S
O420 Co414 2.058 1_554 S
O420 C446 1.269 . S
O421 Co413 2.074 1_554 S
O421 C446 1.257 1_455 S
H422 C447 0.930 . S
H423 C453 0.930 1_655 S
O424 Co413 2.093 . S
O424 C416 1.224 1_455 S
H425 C457 0.929 . S
H426 C459 0.930 . S
H427 C460 0.930 . S
H428 C458 0.929 . S
H429 C461 0.928 . S
O430 Co414 2.057 . S
O430 C418 1.232 . S
H431 C450 0.929 . S
H432 C451 0.929 . S
H433 C463 0.931 1_554 S
H434 C455 0.929 . S
H435 C464 0.930 . S
H436 C456 0.931 . S
O437 Co413 2.097 . S
O437 C465 1.214 1_455 S
H438 C466 0.929 . S
H439 C467 0.929 . S
H440 C468 0.930 . S
H441 C469 0.929 . S
H442 C471 0.930 . S
H443 C448 0.930 . S
H444 C452 0.930 . S
O445 Co414 2.037 . S
O445 C465 1.234 . S
C446 O420 1.269 . S
C446 O421 1.257 1_655 S
C447 H422 0.930 . S
C447 C450 1.388 . S
C447 C452 1.418 . S
C448 H443 0.930 . S
C448 C451 1.404 . S
C448 C452 1.353 . S
N449 Co414 2.145 1_554 S
N449 C450 1.397 . S
N449 C451 1.334 . S
C450 H431 0.929 . S
C450 C447 1.388 . S
C450 N449 1.397 . S
C451 H432 0.929 . S
C451 C448 1.404 . S
C451 N449 1.334 . S
C452 H444 0.930 . S
C452 C447 1.418 . S
C452 C448 1.353 . S
C453 H423 0.930 1_455 S
C453 N454 1.330 . S
C453 C455 1.446 . S
N454 Co413 2.151 . S
N454 C453 1.330 . S
N454 C458 1.418 . S
C455 H434 0.929 . S
C455 C453 1.446 . S
C455 C456 1.332 . S
C456 H436 0.931 . S
C456 C455 1.332 . S
C456 C457 1.267 . S
C457 H425 0.929 . S
C457 C456 1.267 . S
C457 C458 1.251 . S
C458 H428 0.929 . S
C458 N454 1.418 . S
C458 C457 1.251 . S
C459 H426 0.930 . S
C459 C461 1.406 . S
C459 C464 1.261 . S
C460 H427 0.930 . S
C460 N462 1.325 . S
C460 C463 1.357 . S
C461 H429 0.928 . S
C461 C459 1.406 . S
C461 N462 1.261 . S
N462 Co413 2.214 . S
N462 C460 1.325 . S
N462 C461 1.261 . S
C463 H433 0.931 1_556 S
C463 C460 1.357 . S
C463 C464 1.312 . S
C464 H435 0.930 . S
C464 C459 1.261 . S
C464 C463 1.312 . S
C465 O437 1.214 1_655 S
C465 O445 1.234 . S
C466 H438 0.929 . S
C466 C469 1.391 . S
C466 C471 1.391 . S
C467 H439 0.929 . S
C467 C468 1.390 . S
C467 N470 1.391 . S
C468 H440 0.930 . S
C468 C467 1.390 . S
C468 C469 1.392 . S
C469 H441 0.929 . S
C469 C466 1.391 . S
C469 C468 1.392 . S
N470 Co414 2.257 . S
N470 C467 1.391 . S
N470 C471 1.388 . S
C471 H442 0.930 . S
C471 C466 1.391 . S
C471 N470 1.388 . S
Co472 O474 2.143 1_545 S
Co472 O480 2.074 . S
Co472 O483 2.093 . S
Co472 O496 2.097 . S
Co472 N513 2.151 . S
Co472 N521 2.214 . S
Co473 O474 2.160 . S
Co473 O479 2.058 . S
Co473 O489 2.057 . S
Co473 O504 2.037 . S
Co473 N508 2.145 . S
Co473 N529 2.257 . S
O474 Co472 2.143 1_565 S
O474 Co473 2.160 . S
C475 O476 1.278 . S
C475 O483 1.224 1_565 S
O476 C475 1.278 . S
C477 O478 1.245 . S
C477 O489 1.232 . S
O478 C477 1.245 . S
O479 Co473 2.058 . S
O479 C505 1.269 . S
O480 Co472 2.074 . S
O480 C505 1.257 1_545 S
H481 C506 0.930 . S
H482 C512 0.930 1_565 S
O483 Co472 2.093 . S
O483 C475 1.224 1_545 S
H484 C516 0.929 . S
H485 C518 0.930 . S
H486 C519 0.930 . S
H487 C517 0.929 . S
H488 C520 0.928 . S
O489 Co473 2.057 . S
O489 C477 1.232 . S
H490 C509 0.929 . S
H491 C510 0.929 . S
H492 C522 0.931 . S
H493 C514 0.929 . S
H494 C523 0.930 . S
H495 C515 0.931 . S
O496 Co472 2.097 . S
O496 C524 1.214 1_545 S
H497 C525 0.929 . S
H498 C526 0.929 . S
H499 C527 0.930 . S
H500 C528 0.929 . S
H501 C530 0.930 . S
H502 C507 0.930 . S
H503 C511 0.930 . S
O504 Co473 2.037 . S
O504 C524 1.234 . S
C505 O479 1.269 . S
C505 O480 1.257 1_565 S
C506 H481 0.930 . S
C506 C509 1.388 . S
C506 C511 1.418 . S
C507 H502 0.930 . S
C507 C510 1.404 . S
C507 C511 1.353 . S
N508 Co473 2.145 . S
N508 C509 1.397 . S
N508 C510 1.334 . S
C509 H490 0.929 . S
C509 C506 1.388 . S
C509 N508 1.397 . S
C510 H491 0.929 . S
C510 C507 1.404 . S
C510 N508 1.334 . S
C511 H503 0.930 . S
C511 C506 1.418 . S
C511 C507 1.353 . S
C512 H482 0.930 1_545 S
C512 N513 1.330 . S
C512 C514 1.446 . S
N513 Co472 2.151 . S
N513 C512 1.330 . S
N513 C517 1.418 . S
C514 H493 0.929 . S
C514 C512 1.446 . S
C514 C515 1.332 . S
C515 H495 0.931 . S
C515 C514 1.332 . S
C515 C516 1.267 . S
C516 H484 0.929 . S
C516 C515 1.267 . S
C516 C517 1.251 . S
C517 H487 0.929 . S
C517 N513 1.418 . S
C517 C516 1.251 . S
C518 H485 0.930 . S
C518 C520 1.406 . S
C518 C523 1.261 . S
C519 H486 0.930 . S
C519 N521 1.325 . S
C519 C522 1.357 . S
C520 H488 0.928 . S
C520 C518 1.406 . S
C520 N521 1.261 . S
N521 Co472 2.214 . S
N521 C519 1.325 . S
N521 C520 1.261 . S
C522 H492 0.931 . S
C522 C519 1.357 . S
C522 C523 1.312 . S
C523 H494 0.930 . S
C523 C518 1.261 . S
C523 C522 1.312 . S
C524 O496 1.214 1_565 S
C524 O504 1.234 . S
C525 H497 0.929 . S
C525 C528 1.391 . S
C525 C530 1.391 . S
C526 H498 0.929 . S
C526 C527 1.390 . S
C526 N529 1.391 . S
C527 H499 0.930 . S
C527 C526 1.390 . S
C527 C528 1.392 . S
C528 H500 0.929 . S
C528 C525 1.391 . S
C528 C527 1.392 . S
N529 Co473 2.257 . S
N529 C526 1.391 . S
N529 C530 1.388 . S
C530 H501 0.930 . S
C530 C525 1.391 . S
C530 N529 1.388 . S
Co531 O533 2.143 . S
Co531 O539 2.074 . S
Co531 O542 2.093 . S
Co531 O555 2.097 . S
Co531 N572 2.151 . S
Co531 N580 2.214 . S
Co532 O533 2.160 . S
Co532 O538 2.058 . S
Co532 O548 2.057 . S
Co532 O563 2.037 . S
Co532 N567 2.145 . S
Co532 N588 2.257 . S
O533 Co531 2.143 . S
O533 Co532 2.160 . S
C534 O535 1.278 . S
C534 O542 1.224 . S
O535 C534 1.278 . S
C536 O537 1.245 . S
C536 O548 1.232 . S
O537 C536 1.245 . S
O538 Co532 2.058 . S
O538 C564 1.269 . S
O539 Co531 2.074 . S
O539 C564 1.257 . S
H540 C565 0.930 . S
H541 C571 0.930 . S
O542 Co531 2.093 . S
O542 C534 1.224 . S
H543 C575 0.929 . S
H544 C577 0.930 . S
H545 C578 0.930 . S
H546 C576 0.929 . S
H547 C579 0.928 . S
O548 Co532 2.057 . S
O548 C536 1.232 . S
H549 C568 0.929 . S
H550 C569 0.929 . S
H551 C581 0.931 . S
H552 C573 0.929 . S
H553 C582 0.930 . S
H554 C574 0.931 . S
O555 Co531 2.097 . S
O555 C583 1.214 . S
H556 C584 0.929 . S
H557 C585 0.929 . S
H558 C586 0.930 . S
H559 C587 0.929 . S
H560 C589 0.930 . S
H561 C566 0.930 . S
H562 C570 0.930 . S
O563 Co532 2.037 . S
O563 C583 1.234 . S
C564 O538 1.269 . S
C564 O539 1.257 . S
C565 H540 0.930 . S
C565 C568 1.388 . S
C565 C570 1.418 . S
C566 H561 0.930 . S
C566 C569 1.404 . S
C566 C570 1.353 . S
N567 Co532 2.145 . S
N567 C568 1.397 . S
N567 C569 1.334 . S
C568 H549 0.929 . S
C568 C565 1.388 . S
C568 N567 1.397 . S
C569 H550 0.929 . S
C569 C566 1.404 . S
C569 N567 1.334 . S
C570 H562 0.930 . S
C570 C565 1.418 . S
C570 C566 1.353 . S
C571 H541 0.930 . S
C571 N572 1.330 . S
C571 C573 1.446 . S
N572 Co531 2.151 . S
N572 C571 1.330 . S
N572 C576 1.418 . S
C573 H552 0.929 . S
C573 C571 1.446 . S
C573 C574 1.332 . S
C574 H554 0.931 . S
C574 C573 1.332 . S
C574 C575 1.267 . S
C575 H543 0.929 . S
C575 C574 1.267 . S
C575 C576 1.251 . S
C576 H546 0.929 . S
C576 N572 1.418 . S
C576 C575 1.251 . S
C577 H544 0.930 . S
C577 C579 1.406 . S
C577 C582 1.261 . S
C578 H545 0.930 . S
C578 N580 1.325 . S
C578 C581 1.357 . S
C579 H547 0.928 . S
C579 C577 1.406 . S
C579 N580 1.261 . S
N580 Co531 2.214 . S
N580 C578 1.325 . S
N580 C579 1.261 . S
C581 H551 0.931 . S
C581 C578 1.357 . S
C581 C582 1.312 . S
C582 H553 0.930 . S
C582 C577 1.261 . S
C582 C581 1.312 . S
C583 O555 1.214 . S
C583 O563 1.234 . S
C584 H556 0.929 . S
C584 C587 1.391 . S
C584 C589 1.391 . S
C585 H557 0.929 . S
C585 C586 1.390 . S
C585 N588 1.391 . S
C586 H558 0.930 . S
C586 C585 1.390 . S
C586 C587 1.392 . S
C587 H559 0.929 . S
C587 C584 1.391 . S
C587 C586 1.392 . S
N588 Co532 2.257 . S
N588 C585 1.391 . S
N588 C589 1.388 . S
C589 H560 0.930 . S
C589 C584 1.391 . S
C589 N588 1.388 . S
Co590 O592 2.143 1_655 S
Co590 O598 2.074 1_556 S
Co590 O601 2.093 . S
Co590 O614 2.097 . S
Co590 N631 2.151 . S
Co590 N639 2.214 . S
Co591 O592 2.160 . S
Co591 O597 2.058 1_556 S
Co591 O607 2.057 . S
Co591 O622 2.037 . S
Co591 N626 2.145 1_556 S
Co591 N647 2.257 . S
O592 Co590 2.143 1_455 S
O592 Co591 2.160 . S
C593 O594 1.278 . S
C593 O601 1.224 1_455 S
O594 C593 1.278 . S
C595 O596 1.245 . S
C595 O607 1.232 . S
O596 C595 1.245 . S
O597 Co591 2.058 1_554 S
O597 C623 1.269 . S
O598 Co590 2.074 1_554 S
O598 C623 1.257 1_655 S
H599 C624 0.930 . S
H600 C630 0.930 1_455 S
O601 Co590 2.093 . S
O601 C593 1.224 1_655 S
H602 C634 0.929 . S
H603 C636 0.930 . S
H604 C637 0.930 . S
H605 C635 0.929 . S
H606 C638 0.928 . S
O607 Co591 2.057 . S
O607 C595 1.232 . S
H608 C627 0.929 . S
H609 C628 0.929 . S
H610 C640 0.931 1_554 S
H611 C632 0.929 . S
H612 C641 0.930 . S
H613 C633 0.931 . S
O614 Co590 2.097 . S
O614 C642 1.214 1_655 S
H615 C643 0.929 . S
H616 C644 0.929 . S
H617 C645 0.930 . S
H618 C646 0.929 . S
H619 C648 0.930 . S
H620 C625 0.930 . S
H621 C629 0.930 . S
O622 Co591 2.037 . S
O622 C642 1.234 . S
C623 O597 1.269 . S
C623 O598 1.257 1_455 S
C624 H599 0.930 . S
C624 C627 1.388 . S
C624 C629 1.418 . S
C625 H620 0.930 . S
C625 C628 1.404 . S
C625 C629 1.353 . S
N626 Co591 2.145 1_554 S
N626 C627 1.397 . S
N626 C628 1.334 . S
C627 H608 0.929 . S
C627 C624 1.388 . S
C627 N626 1.397 . S
C628 H609 0.929 . S
C628 C625 1.404 . S
C628 N626 1.334 . S
C629 H621 0.930 . S
C629 C624 1.418 . S
C629 C625 1.353 . S
C630 H600 0.930 1_655 S
C630 N631 1.330 . S
C630 C632 1.446 . S
N631 Co590 2.151 . S
N631 C630 1.330 . S
N631 C635 1.418 . S
C632 H611 0.929 . S
C632 C630 1.446 . S
C632 C633 1.332 . S
C633 H613 0.931 . S
C633 C632 1.332 . S
C633 C634 1.267 . S
C634 H602 0.929 . S
C634 C633 1.267 . S
C634 C635 1.251 . S
C635 H605 0.929 . S
C635 N631 1.418 . S
C635 C634 1.251 . S
C636 H603 0.930 . S
C636 C638 1.406 . S
C636 C641 1.261 . S
C637 H604 0.930 . S
C637 N639 1.325 . S
C637 C640 1.357 . S
C638 H606 0.928 . S
C638 C636 1.406 . S
C638 N639 1.261 . S
N639 Co590 2.214 . S
N639 C637 1.325 . S
N639 C638 1.261 . S
C640 H610 0.931 1_556 S
C640 C637 1.357 . S
C640 C641 1.312 . S
C641 H612 0.930 . S
C641 C636 1.261 . S
C641 C640 1.312 . S
C642 O614 1.214 1_455 S
C642 O622 1.234 . S
C643 H615 0.929 . S
C643 C646 1.391 . S
C643 C648 1.391 . S
C644 H616 0.929 . S
C644 C645 1.390 . S
C644 N647 1.391 . S
C645 H617 0.930 . S
C645 C644 1.390 . S
C645 C646 1.392 . S
C646 H618 0.929 . S
C646 C643 1.391 . S
C646 C645 1.392 . S
N647 Co591 2.257 . S
N647 C644 1.391 . S
N647 C648 1.388 . S
C648 H619 0.930 . S
C648 C643 1.391 . S
C648 N647 1.388 . S
Co649 O651 2.143 1_565 S
Co649 O657 2.074 . S
Co649 O660 2.093 . S
Co649 O673 2.097 . S
Co649 N690 2.151 . S
Co649 N698 2.214 . S
Co650 O651 2.160 . S
Co650 O656 2.058 . S
Co650 O666 2.057 . S
Co650 O681 2.037 . S
Co650 N685 2.145 . S
Co650 N706 2.257 . S
O651 Co649 2.143 1_545 S
O651 Co650 2.160 . S
C652 O653 1.278 . S
C652 O660 1.224 1_545 S
O653 C652 1.278 . S
C654 O655 1.245 . S
C654 O666 1.232 . S
O655 C654 1.245 . S
O656 Co650 2.058 . S
O656 C682 1.269 . S
O657 Co649 2.074 . S
O657 C682 1.257 1_565 S
H658 C683 0.930 . S
H659 C689 0.930 1_545 S
O660 Co649 2.093 . S
O660 C652 1.224 1_565 S
H661 C693 0.929 . S
H662 C695 0.930 . S
H663 C696 0.930 . S
H664 C694 0.929 . S
H665 C697 0.928 . S
O666 Co650 2.057 . S
O666 C654 1.232 . S
H667 C686 0.929 . S
H668 C687 0.929 . S
H669 C699 0.931 . S
H670 C691 0.929 . S
H671 C700 0.930 . S
H672 C692 0.931 . S
O673 Co649 2.097 . S
O673 C701 1.214 1_565 S
H674 C702 0.929 . S
H675 C703 0.929 . S
H676 C704 0.930 . S
H677 C705 0.929 . S
H678 C707 0.930 . S
H679 C684 0.930 . S
H680 C688 0.930 . S
O681 Co650 2.037 . S
O681 C701 1.234 . S
C682 O656 1.269 . S
C682 O657 1.257 1_545 S
C683 H658 0.930 . S
C683 C686 1.388 . S
C683 C688 1.418 . S
C684 H679 0.930 . S
C684 C687 1.404 . S
C684 C688 1.353 . S
N685 Co650 2.145 . S
N685 C686 1.397 . S
N685 C687 1.334 . S
C686 H667 0.929 . S
C686 C683 1.388 . S
C686 N685 1.397 . S
C687 H668 0.929 . S
C687 C684 1.404 . S
C687 N685 1.334 . S
C688 H680 0.930 . S
C688 C683 1.418 . S
C688 C684 1.353 . S
C689 H659 0.930 1_565 S
C689 N690 1.330 . S
C689 C691 1.446 . S
N690 Co649 2.151 . S
N690 C689 1.330 . S
N690 C694 1.418 . S
C691 H670 0.929 . S
C691 C689 1.446 . S
C691 C692 1.332 . S
C692 H672 0.931 . S
C692 C691 1.332 . S
C692 C693 1.267 . S
C693 H661 0.929 . S
C693 C692 1.267 . S
C693 C694 1.251 . S
C694 H664 0.929 . S
C694 N690 1.418 . S
C694 C693 1.251 . S
C695 H662 0.930 . S
C695 C697 1.406 . S
C695 C700 1.261 . S
C696 H663 0.930 . S
C696 N698 1.325 . S
C696 C699 1.357 . S
C697 H665 0.928 . S
C697 C695 1.406 . S
C697 N698 1.261 . S
N698 Co649 2.214 . S
N698 C696 1.325 . S
N698 C697 1.261 . S
C699 H669 0.931 . S
C699 C696 1.357 . S
C699 C700 1.312 . S
C700 H671 0.930 . S
C700 C695 1.261 . S
C700 C699 1.312 . S
C701 O673 1.214 1_545 S
C701 O681 1.234 . S
C702 H674 0.929 . S
C702 C705 1.391 . S
C702 C707 1.391 . S
C703 H675 0.929 . S
C703 C704 1.390 . S
C703 N706 1.391 . S
C704 H676 0.930 . S
C704 C703 1.390 . S
C704 C705 1.392 . S
C705 H677 0.929 . S
C705 C702 1.391 . S
C705 C704 1.392 . S
N706 Co650 2.257 . S
N706 C703 1.391 . S
N706 C707 1.388 . S
C707 H678 0.930 . S
C707 C702 1.391 . S
C707 N706 1.388 . S
C708 C709 1.369 . S
C708 C710 1.419 . S
C708 H712 0.930 . S
C709 C708 1.369 . S
C709 C718 1.429 . S
C710 C708 1.419 . S
C710 C711 1.363 . S
C710 H713 0.929 . S
C711 C710 1.363 . S
C711 C717 1.428 . S
H712 C708 0.930 . S
H713 C710 0.929 . S
S714 N715 1.613 . S
S714 N716 1.610 . S
N715 S714 1.613 . S
N715 C718 1.350 . S
N716 S714 1.610 . S
N716 C717 1.351 . S
C717 C711 1.428 . S
C717 N716 1.351 . S
C717 C718 1.434 . S
C718 C709 1.429 . S
C718 N715 1.350 . S
C718 C717 1.434 . S
C719 C720 1.369 . S
C719 C721 1.419 . S
C719 H723 0.930 . S
C720 C719 1.369 . S
C720 C729 1.429 1_655 S
C721 C719 1.419 . S
C721 C722 1.363 1_655 S
C721 H724 0.929 . S
C722 C721 1.363 1_455 S
C722 C728 1.428 . S
H723 C719 0.930 . S
H724 C721 0.929 . S
S725 N726 1.613 . S
S725 N727 1.610 . S
N726 S725 1.613 . S
N726 C729 1.350 . S
N727 S725 1.610 . S
N727 C728 1.351 . S
C728 C722 1.428 . S
C728 N727 1.351 . S
C728 C729 1.434 . S
C729 C720 1.429 1_455 S
C729 N726 1.350 . S
C729 C728 1.434 . S
C730 C731 1.369 1_545 S
C730 C732 1.419 1_556 S
C730 H734 0.930 . S
C731 C730 1.369 1_565 S
C731 C740 1.429 . S
C732 C730 1.419 1_554 S
C732 C733 1.363 . S
C732 H735 0.929 . S
C733 C732 1.363 . S
C733 C739 1.428 1_545 S
H734 C730 0.930 . S
H735 C732 0.929 . S
S736 N737 1.613 1_554 S
S736 N738 1.610 . S
N737 S736 1.613 1_556 S
N737 C740 1.350 . S
N738 S736 1.610 . S
N738 C739 1.351 . S
C739 C733 1.428 1_565 S
C739 N738 1.351 . S
C739 C740 1.434 1_554 S
C740 C731 1.429 . S
C740 N737 1.350 . S
C740 C739 1.434 1_556 S
C741 C742 1.369 . S
C741 C743 1.419 . S
C741 H745 0.930 . S
C742 C741 1.369 . S
C742 C751 1.429 . S
C743 C741 1.419 . S
C743 C744 1.363 . S
C743 H746 0.929 . S
C744 C743 1.363 . S
C744 C750 1.428 . S
H745 C741 0.930 . S
H746 C743 0.929 . S
S747 N748 1.613 . S
S747 N749 1.610 . S
N748 S747 1.613 . S
N748 C751 1.350 . S
N749 S747 1.610 . S
N749 C750 1.351 . S
C750 C744 1.428 . S
C750 N749 1.351 . S
C750 C751 1.434 . S
C751 C742 1.429 . S
C751 N748 1.350 . S
C751 C750 1.434 . S
C752 C753 1.369 . S
C752 C754 1.419 . S
C752 H756 0.930 . S
C753 C752 1.369 . S
C753 C762 1.429 1_655 S
C754 C752 1.419 . S
C754 C755 1.363 1_655 S
C754 H757 0.929 . S
C755 C754 1.363 1_455 S
C755 C761 1.428 . S
H756 C752 0.930 . S
H757 C754 0.929 . S
S758 N759 1.613 . S
S758 N760 1.610 . S
N759 S758 1.613 . S
N759 C762 1.350 . S
N760 S758 1.610 . S
N760 C761 1.351 . S
C761 C755 1.428 . S
C761 N760 1.351 . S
C761 C762 1.434 . S
C762 C753 1.429 1_455 S
C762 N759 1.350 . S
C762 C761 1.434 . S
C763 C764 1.369 . S
C763 C765 1.419 1_554 S
C763 H767 0.930 . S
C764 C763 1.369 . S
C764 C773 1.429 1_565 S
C765 C763 1.419 1_556 S
C765 C766 1.363 1_565 S
C765 H768 0.929 . S
C766 C765 1.363 1_545 S
C766 C772 1.428 . S
H767 C763 0.930 . S
H768 C765 0.929 . S
S769 N770 1.613 . S
S769 N771 1.610 1_554 S
N770 S769 1.613 . S
N770 C773 1.350 . S
N771 S769 1.610 1_556 S
N771 C772 1.351 . S
C772 C766 1.428 . S
C772 N771 1.351 . S
C772 C773 1.434 1_556 S
C773 C764 1.429 1_545 S
C773 N770 1.350 . S
C773 C772 1.434 1_554 S
C774 C775 1.369 . S
C774 C776 1.419 . S
C774 H778 0.930 . S
C775 C774 1.369 . S
C775 C784 1.429 1_556 S
C776 C774 1.419 . S
C776 C777 1.363 1_556 S
C776 H779 0.929 . S
C777 C776 1.363 1_554 S
C777 C783 1.428 . S
H778 C774 0.930 . S
H779 C776 0.929 . S
S780 N781 1.613 . S
S780 N782 1.610 . S
N781 S780 1.613 . S
N781 C784 1.350 . S
N782 S780 1.610 . S
N782 C783 1.351 . S
C783 C777 1.428 . S
C783 N782 1.351 . S
C783 C784 1.434 . S
C784 C775 1.429 1_554 S
C784 N781 1.350 . S
C784 C783 1.434 . S
C785 C786 1.369 . S
C785 C787 1.419 . S
C785 H789 0.930 . S
C786 C785 1.369 . S
C786 C795 1.429 . S
C787 C785 1.419 . S
C787 C788 1.363 . S
C787 H790 0.929 . S
C788 C787 1.363 . S
C788 C794 1.428 . S
H789 C785 0.930 . S
H790 C787 0.929 . S
S791 N792 1.613 . S
S791 N793 1.610 . S
N792 S791 1.613 . S
N792 C795 1.350 . S
N793 S791 1.610 . S
N793 C794 1.351 . S
C794 C788 1.428 . S
C794 N793 1.351 . S
C794 C795 1.434 . S
C795 C786 1.429 . S
C795 N792 1.350 . S
C795 C794 1.434 . S
C796 C797 1.369 . S
C796 C798 1.419 . S
C796 H800 0.930 . S
C797 C796 1.369 . S
C797 C806 1.429 . S
C798 C796 1.419 . S
C798 C799 1.363 . S
C798 H801 0.929 . S
C799 C798 1.363 . S
C799 C805 1.428 . S
H800 C796 0.930 . S
H801 C798 0.929 . S
S802 N803 1.613 . S
S802 N804 1.610 . S
N803 S802 1.613 . S
N803 C806 1.350 . S
N804 S802 1.610 . S
N804 C805 1.351 . S
C805 C799 1.428 . S
C805 N804 1.351 . S
C805 C806 1.434 . S
C806 C797 1.429 . S
C806 N803 1.350 . S
C806 C805 1.434 . S
C807 C808 1.369 . S
C807 C809 1.419 . S
C807 H811 0.930 . S
C808 C807 1.369 . S
C808 C817 1.429 1_554 S
C809 C807 1.419 . S
C809 C810 1.363 1_554 S
C809 H812 0.929 . S
C810 C809 1.363 1_556 S
C810 C816 1.428 . S
H811 C807 0.930 . S
H812 C809 0.929 . S
S813 N814 1.613 . S
S813 N815 1.610 . S
N814 S813 1.613 . S
N814 C817 1.350 . S
N815 S813 1.610 . S
N815 C816 1.351 . S
C816 C810 1.428 . S
C816 N815 1.351 . S
C816 C817 1.434 . S
C817 C808 1.429 1_556 S
C817 N814 1.350 . S
C817 C816 1.434 . S
C818 C819 1.369 . S
C818 C820 1.419 . S
C818 H822 0.930 . S
C819 C818 1.369 . S
C819 C828 1.429 . S
C820 C818 1.419 . S
C820 C821 1.363 . S
C820 H823 0.929 . S
C821 C820 1.363 . S
C821 C827 1.428 . S
H822 C818 0.930 . S
H823 C820 0.929 . S
S824 N825 1.613 . S
S824 N826 1.610 . S
N825 S824 1.613 . S
N825 C828 1.350 . S
N826 S824 1.610 . S
N826 C827 1.351 . S
C827 C821 1.428 . S
C827 N826 1.351 . S
C827 C828 1.434 . S
C828 C819 1.429 . S
C828 N825 1.350 . S
C828 C827 1.434 . S
C829 C830 1.369 . S
C829 C831 1.419 . S
C829 H833 0.930 . S
C830 C829 1.369 . S
C830 C839 1.429 . S
C831 C829 1.419 . S
C831 C832 1.363 . S
C831 H834 0.929 . S
C832 C831 1.363 . S
C832 C838 1.428 . S
H833 C829 0.930 . S
H834 C831 0.929 . S
S835 N836 1.613 . S
S835 N837 1.610 . S
N836 S835 1.613 . S
N836 C839 1.350 . S
N837 S835 1.610 . S
N837 C838 1.351 . S
C838 C832 1.428 . S
C838 N837 1.351 . S
C838 C839 1.434 . S
C839 C830 1.429 . S
C839 N836 1.350 . S
C839 C838 1.434 . S
C840 C841 1.369 . S
C840 C842 1.419 . S
C840 H844 0.930 . S
C841 C840 1.369 . S
C841 C850 1.429 . S
C842 C840 1.419 . S
C842 C843 1.363 . S
C842 H845 0.929 . S
C843 C842 1.363 . S
C843 C849 1.428 . S
H844 C840 0.930 . S
H845 C842 0.929 . S
S846 N847 1.613 . S
S846 N848 1.610 . S
N847 S846 1.613 . S
N847 C850 1.350 . S
N848 S846 1.610 . S
N848 C849 1.351 . S
C849 C843 1.428 . S
C849 N848 1.351 . S
C849 C850 1.434 . S
C850 C841 1.429 . S
C850 N847 1.350 . S
C850 C849 1.434 . S
C851 C852 1.369 . S
C851 C853 1.419 . S
C851 H855 0.930 . S
C852 C851 1.369 . S
C852 C861 1.429 1_655 S
C853 C851 1.419 . S
C853 C854 1.363 1_655 S
C853 H856 0.929 . S
C854 C853 1.363 1_455 S
C854 C860 1.428 . S
H855 C851 0.930 . S
H856 C853 0.929 . S
S857 N858 1.613 . S
S857 N859 1.610 . S
N858 S857 1.613 . S
N858 C861 1.350 . S
N859 S857 1.610 . S
N859 C860 1.351 . S
C860 C854 1.428 . S
C860 N859 1.351 . S
C860 C861 1.434 . S
C861 C852 1.429 1_455 S
C861 N858 1.350 . S
C861 C860 1.434 . S
C862 C863 1.369 1_545 S
C862 C864 1.419 . S
C862 H866 0.930 . S
C863 C862 1.369 1_565 S
C863 C872 1.429 . S
C864 C862 1.419 . S
C864 C865 1.363 . S
C864 H867 0.929 . S
C865 C864 1.363 . S
C865 C871 1.428 1_545 S
H866 C862 0.930 . S
H867 C864 0.929 . S
S868 N869 1.613 . S
S868 N870 1.610 . S
N869 S868 1.613 . S
N869 C872 1.350 . S
N870 S868 1.610 . S
N870 C871 1.351 . S
C871 C865 1.428 1_565 S
C871 N870 1.351 . S
C871 C872 1.434 . S
C872 C863 1.429 . S
C872 N869 1.350 . S
C872 C871 1.434 . S
C873 C874 1.369 . S
C873 C875 1.419 . S
C873 H877 0.930 . S
C874 C873 1.369 . S
C874 C883 1.429 . S
C875 C873 1.419 . S
C875 C876 1.363 . S
C875 H878 0.929 . S
C876 C875 1.363 . S
C876 C882 1.428 . S
H877 C873 0.930 . S
H878 C875 0.929 . S
S879 N880 1.613 . S
S879 N881 1.610 . S
N880 S879 1.613 . S
N880 C883 1.350 . S
N881 S879 1.610 . S
N881 C882 1.351 . S
C882 C876 1.428 . S
C882 N881 1.351 . S
C882 C883 1.434 . S
C883 C874 1.429 . S
C883 N880 1.350 . S
C883 C882 1.434 . S
C884 C885 1.369 1_655 S
C884 C886 1.419 . S
C884 H888 0.930 . S
C885 C884 1.369 1_455 S
C885 C894 1.429 . S
C886 C884 1.419 . S
C886 C887 1.363 . S
C886 H889 0.929 . S
C887 C886 1.363 . S
C887 C893 1.428 1_655 S
H888 C884 0.930 . S
H889 C886 0.929 . S
S890 N891 1.613 . S
S890 N892 1.610 . S
N891 S890 1.613 . S
N891 C894 1.350 . S
N892 S890 1.610 . S
N892 C893 1.351 . S
C893 C887 1.428 1_455 S
C893 N892 1.351 . S
C893 C894 1.434 . S
C894 C885 1.429 . S
C894 N891 1.350 . S
C894 C893 1.434 . S
C895 C896 1.369 1_545 S
C895 C897 1.419 . S
C895 H899 0.930 . S
C896 C895 1.369 1_565 S
C896 C905 1.429 . S
C897 C895 1.419 . S
C897 C898 1.363 . S
C897 H900 0.929 . S
C898 C897 1.363 . S
C898 C904 1.428 1_545 S
H899 C895 0.930 . S
H900 C897 0.929 . S
S901 N902 1.613 . S
S901 N903 1.610 . S
N902 S901 1.613 . S
N902 C905 1.350 . S
N903 S901 1.610 . S
N903 C904 1.351 . S
C904 C898 1.428 1_565 S
C904 N903 1.351 . S
C904 C905 1.434 . S
C905 C896 1.429 . S
C905 N902 1.350 . S
C905 C904 1.434 . S
C906 C907 1.369 . S
C906 C908 1.419 . S
C906 H910 0.930 . S
C907 C906 1.369 . S
C907 C916 1.429 . S
C908 C906 1.419 . S
C908 C909 1.363 . S
C908 H911 0.929 . S
C909 C908 1.363 . S
C909 C915 1.428 . S
H910 C906 0.930 . S
H911 C908 0.929 . S
S912 N913 1.613 . S
S912 N914 1.610 . S
N913 S912 1.613 . S
N913 C916 1.350 . S
N914 S912 1.610 . S
N914 C915 1.351 . S
C915 C909 1.428 . S
C915 N914 1.351 . S
C915 C916 1.434 . S
C916 C907 1.429 . S
C916 N913 1.350 . S
C916 C915 1.434 . S
C917 C918 1.369 1_655 S
C917 C919 1.419 . S
C917 H921 0.930 . S
C918 C917 1.369 1_455 S
C918 C927 1.429 . S
C919 C917 1.419 . S
C919 C920 1.363 . S
C919 H922 0.929 . S
C920 C919 1.363 . S
C920 C926 1.428 1_655 S
H921 C917 0.930 . S
H922 C919 0.929 . S
S923 N924 1.613 . S
S923 N925 1.610 . S
N924 S923 1.613 . S
N924 C927 1.350 . S
N925 S923 1.610 . S
N925 C926 1.351 . S
C926 C920 1.428 1_455 S
C926 N925 1.351 . S
C926 C927 1.434 . S
C927 C918 1.429 . S
C927 N924 1.350 . S
C927 C926 1.434 . S
C928 C929 1.369 . S
C928 C930 1.419 . S
C928 H932 0.930 . S
C929 C928 1.369 . S
C929 C938 1.429 1_565 S
C930 C928 1.419 . S
C930 C931 1.363 1_565 S
C930 H933 0.929 . S
C931 C930 1.363 1_545 S
C931 C937 1.428 . S
H932 C928 0.930 . S
H933 C930 0.929 . S
S934 N935 1.613 . S
S934 N936 1.610 . S
N935 S934 1.613 . S
N935 C938 1.350 . S
N936 S934 1.610 . S
N936 C937 1.351 . S
C937 C931 1.428 . S
C937 N936 1.351 . S
C937 C938 1.434 . S
C938 C929 1.429 1_545 S
C938 N935 1.350 . S
C938 C937 1.434 . S
C939 C940 1.369 . S
C939 C941 1.419 . S
C939 H943 0.930 . S
C940 C939 1.369 . S
C940 C949 1.429 . S
C941 C939 1.419 . S
C941 C942 1.363 . S
C941 H944 0.929 . S
C942 C941 1.363 . S
C942 C948 1.428 . S
H943 C939 0.930 . S
H944 C941 0.929 . S
S945 N946 1.613 . S
S945 N947 1.610 . S
N946 S945 1.613 . S
N946 C949 1.350 . S
N947 S945 1.610 . S
N947 C948 1.351 . S
C948 C942 1.428 . S
C948 N947 1.351 . S
C948 C949 1.434 . S
C949 C940 1.429 . S
C949 N946 1.350 . S
C949 C948 1.434 . S
C950 C951 1.369 1_455 S
C950 C952 1.419 . S
C950 H954 0.930 . S
C951 C950 1.369 1_655 S
C951 C960 1.429 . S
C952 C950 1.419 . S
C952 C953 1.363 . S
C952 H955 0.929 . S
C953 C952 1.363 . S
C953 C959 1.428 1_455 S
H954 C950 0.930 . S
H955 C952 0.929 . S
S956 N957 1.613 . S
S956 N958 1.610 . S
N957 S956 1.613 . S
N957 C960 1.350 . S
N958 S956 1.610 . S
N958 C959 1.351 . S
C959 C953 1.428 1_655 S
C959 N958 1.351 . S
C959 C960 1.434 . S
C960 C951 1.429 . S
C960 N957 1.350 . S
C960 C959 1.434 . S
C961 C962 1.369 1_565 S
C961 C963 1.419 . S
C961 H965 0.930 . S
C962 C961 1.369 1_545 S
C962 C971 1.429 . S
C963 C961 1.419 . S
C963 C964 1.363 . S
C963 H966 0.929 . S
C964 C963 1.363 . S
C964 C970 1.428 1_565 S
H965 C961 0.930 . S
H966 C963 0.929 . S
S967 N968 1.613 . S
S967 N969 1.610 . S
N968 S967 1.613 . S
N968 C971 1.350 . S
N969 S967 1.610 . S
N969 C970 1.351 . S
C970 C964 1.428 1_545 S
C970 N969 1.351 . S
C970 C971 1.434 . S
C971 C962 1.429 . S
C971 N968 1.350 . S
C971 C970 1.434 . S
C709 C3 1.563 . S
C711 C534 1.563 . S
C720 C62 1.567 . S
C722 C593 1.566 . S
C731 C121 1.562 . S
C733 C652 1.562 . S
C742 C180 1.567 . S
C744 C357 1.567 . S
C753 C416 1.566 . S
C755 C239 1.566 . S
C764 C475 1.563 . S
C766 C298 1.564 . S
C775 C595 1.571 . S
C777 C5 1.575 . S
C786 C64 1.571 . S
C788 C654 1.575 . S
C797 C123 1.573 . S
C799 C359 1.573 . S
C808 C182 1.571 . S
C810 C418 1.575 . S
C819 C241 1.574 . S
C821 C477 1.572 . S
C830 C300 1.575 . S
C832 C536 1.572 . S
C841 C564 1.085 . S
C843 C33 1.078 . S
C852 C92 1.083 . S
C854 C623 1.077 . S
C863 C151 1.076 . S
C865 C682 1.084 . S
C874 C387 1.081 . S
C876 C210 1.078 . S
C885 C269 1.076 . S
C887 C446 1.084 . S
C896 C505 1.076 . S
C898 C328 1.083 . S
C907 C52 1.577 . S
C909 C229 1.579 . S
C918 C288 1.579 . S
C920 C111 1.579 . S
C929 C170 1.579 . S
C931 C347 1.578 . S
C940 C406 1.578 . S
C942 C583 1.577 . S
C951 C465 1.577 . S
C953 C642 1.579 . S
C962 C701 1.577 . S
C964 C524 1.579 . S
