# Generated by pormake.
# Topology umo, (4)-cn, num edge types: 1
# Building blocks:
#     Node 0, Type 0, BuildingBlock: ESEHIV_clean_sbu_0, # of connection points: 4
#     Node 1, Type 0, BuildingBlock: ESEHIV_clean_sbu_0, # of connection points: 4
#     Node 2, Type 0, BuildingBlock: ESEHIV_clean_sbu_0, # of connection points: 4
#     Node 3, Type 0, BuildingBlock: ESEHIV_clean_sbu_0, # of connection points: 4
#     Node 4, Type 0, BuildingBlock: ESEHIV_clean_sbu_0, # of connection points: 4
#     Node 5, Type 0, BuildingBlock: ESEHIV_clean_sbu_0, # of connection points: 4
#     Node 6, Type 0, BuildingBlock: ESEHIV_clean_sbu_0, # of connection points: 4
#     Node 7, Type 0, BuildingBlock: ESEHIV_clean_sbu_0, # of connection points: 4
#     Node 8, Type 0, BuildingBlock: ESEHIV_clean_sbu_0, # of connection points: 4
#     Node 9, Type 0, BuildingBlock: ESEHIV_clean_sbu_0, # of connection points: 4
#     Node 10, Type 0, BuildingBlock: ESEHIV_clean_sbu_0, # of connection points: 4
#     Node 11, Type 0, BuildingBlock: ESEHIV_clean_sbu_0, # of connection points: 4
#     Edge 12, Type (0, 0), BuildingBlock: AJUNOK_clean_linker_0, # of connection points: 2
#     Edge 13, Type (0, 0), BuildingBlock: AJUNOK_clean_linker_0, # of connection points: 2
#     Edge 14, Type (0, 0), BuildingBlock: AJUNOK_clean_linker_0, # of connection points: 2
#     Edge 15, Type (0, 0), BuildingBlock: AJUNOK_clean_linker_0, # of connection points: 2
#     Edge 16, Type (0, 0), BuildingBlock: AJUNOK_clean_linker_0, # of connection points: 2
#     Edge 17, Type (0, 0), BuildingBlock: AJUNOK_clean_linker_0, # of connection points: 2
#     Edge 18, Type (0, 0), BuildingBlock: AJUNOK_clean_linker_0, # of connection points: 2
#     Edge 19, Type (0, 0), BuildingBlock: AJUNOK_clean_linker_0, # of connection points: 2
#     Edge 20, Type (0, 0), BuildingBlock: AJUNOK_clean_linker_0, # of connection points: 2
#     Edge 21, Type (0, 0), BuildingBlock: AJUNOK_clean_linker_0, # of connection points: 2
#     Edge 22, Type (0, 0), BuildingBlock: AJUNOK_clean_linker_0, # of connection points: 2
#     Edge 23, Type (0, 0), BuildingBlock: AJUNOK_clean_linker_0, # of connection points: 2
#     Edge 24, Type (0, 0), BuildingBlock: AJUNOK_clean_linker_0, # of connection points: 2
#     Edge 25, Type (0, 0), BuildingBlock: AJUNOK_clean_linker_0, # of connection points: 2
#     Edge 26, Type (0, 0), BuildingBlock: AJUNOK_clean_linker_0, # of connection points: 2
#     Edge 27, Type (0, 0), BuildingBlock: AJUNOK_clean_linker_0, # of connection points: 2
#     Edge 28, Type (0, 0), BuildingBlock: AJUNOK_clean_linker_0, # of connection points: 2
#     Edge 29, Type (0, 0), BuildingBlock: AJUNOK_clean_linker_0, # of connection points: 2
#     Edge 30, Type (0, 0), BuildingBlock: AJUNOK_clean_linker_0, # of connection points: 2
#     Edge 31, Type (0, 0), BuildingBlock: AJUNOK_clean_linker_0, # of connection points: 2
#     Edge 32, Type (0, 0), BuildingBlock: AJUNOK_clean_linker_0, # of connection points: 2
#     Edge 33, Type (0, 0), BuildingBlock: AJUNOK_clean_linker_0, # of connection points: 2
#     Edge 34, Type (0, 0), BuildingBlock: AJUNOK_clean_linker_0, # of connection points: 2
#     Edge 35, Type (0, 0), BuildingBlock: AJUNOK_clean_linker_0, # of connection points: 2
# Relax obj value: 0.177
# Max RMSD: 0.172
# Mean RMSD: 0.172
data_MOF--net-umo--node1-ESEHIV_clean_sbu_0--edge1-AJUNOK_clean_linker_0
_symmetry_space_group_name_H-M    P1
_symmetry_Int_Tables_number       1
_symmetry_cell_setting            triclinic
loop_
_symmetry_equiv_pos_as_xyz
'x, y, z'
_cell_length_a     43.679783
_cell_length_b     43.666973
_cell_length_c     25.03284
_cell_angle_alpha  89.525988
_cell_angle_beta   90.587013
_cell_angle_gamma 119.70427
loop_
_atom_site_label
_atom_site_type_symbol
_atom_site_fract_x
_atom_site_fract_y
_atom_site_fract_z
_atom_type_partial_charge
Cu0 Cu 0.22278 0.57838 0.38049 0.0
N1 N 0.25891 0.57225 0.41111 0.0
N2 N 0.3182 0.60004 0.41746 0.0
C3 C 0.28875 0.6024 0.42338 0.0
C4 C 0.30643 0.56639 0.40241 0.0
C5 C 0.26991 0.54937 0.39819 0.0
O6 O 0.24738 0.59909 0.31316 0.0
C7 C 0.20706 0.5938 0.4777 0.0
O8 O 0.19634 0.55991 0.48068 0.0
H9 H 0.28918 0.62723 0.42834 0.0
H10 H 0.25354 0.52422 0.3791 0.0
N11 N 0.17682 0.53788 0.37133 0.0
N12 N 0.11729 0.50451 0.36595 0.0
C13 C 0.14578 0.53747 0.36237 0.0
C14 C 0.1674 0.50396 0.38075 0.0
C15 C 0.13107 0.48356 0.3777 0.0
C16 C 0.25246 0.57789 0.28449 0.0
O17 O 0.22888 0.54425 0.28738 0.0
H18 H 0.14399 0.56111 0.35643 0.0
H19 H 0.18558 0.49484 0.39157 0.0
O20 O 0.21883 0.60933 0.43292 0.0
H21 H 0.32308 0.55623 0.38862 0.0
H22 H 0.11582 0.45546 0.38506 0.0
Cu23 Cu 0.64114 0.17908 0.54011 0.0
N24 N 0.61312 0.19939 0.52402 0.0
N25 N 0.59739 0.24086 0.52906 0.0
C26 C 0.62418 0.23421 0.52233 0.0
C27 C 0.56821 0.20893 0.53345 0.0
C28 C 0.57797 0.18344 0.53022 0.0
O29 O 0.68628 0.20812 0.50115 0.0
C30 C 0.6426 0.20345 0.64677 0.0
O31 O 0.65502 0.23401 0.62264 0.0
H32 H 0.65172 0.25429 0.52325 0.0
H33 H 0.5612 0.15552 0.5375 0.0
N34 N 0.61861 0.1332 0.50904 0.0
N35 N 0.59552 0.07566 0.48782 0.0
C36 C 0.61363 0.10114 0.52499 0.0
C37 C 0.60371 0.12753 0.4602 0.0
C38 C 0.58968 0.09258 0.44711 0.0
C39 C 0.71212 0.23887 0.51127 0.0
O40 O 0.71304 0.25359 0.55721 0.0
H41 H 0.62273 0.0965 0.56296 0.0
H42 H 0.60333 0.14777 0.43545 0.0
O43 O 0.63977 0.17723 0.61989 0.0
H44 H 0.54214 0.20444 0.54269 0.0
H45 H 0.57668 0.08064 0.40977 0.0
Cu46 Cu 0.48675 0.64865 0.75786 0.0
N47 N 0.48853 0.67784 0.81362 0.0
N48 N 0.44807 0.68175 0.86351 0.0
C49 C 0.46087 0.68352 0.81415 0.0
C50 C 0.46975 0.67642 0.89617 0.0
C51 C 0.49492 0.67445 0.86544 0.0
O52 O 0.47356 0.66862 0.69651 0.0
C53 C 0.46331 0.59171 0.82657 0.0
O54 O 0.49612 0.59874 0.82368 0.0
H55 H 0.44542 0.68077 0.77857 0.0
H56 H 0.51196 0.66457 0.87908 0.0
N57 N 0.52863 0.64732 0.74289 0.0
N58 N 0.56394 0.62639 0.71655 0.0
C59 C 0.53042 0.62018 0.72022 0.0
C60 C 0.56231 0.67157 0.75381 0.0
C61 C 0.58406 0.6588 0.73763 0.0
C62 C 0.49585 0.70142 0.69079 0.0
O63 O 0.52491 0.71444 0.7196 0.0
H64 H 0.50741 0.59586 0.70806 0.0
H65 H 0.57043 0.69642 0.77352 0.0
O66 O 0.45164 0.60383 0.78974 0.0
H67 H 0.46445 0.66881 0.93779 0.0
H68 H 0.61234 0.67168 0.74332 0.0
Cu69 Cu 0.86742 0.45183 0.87445 0.0
N70 N 0.842 0.40252 0.87142 0.0
N71 N 0.80201 0.34817 0.89809 0.0
C72 C 0.81156 0.38271 0.89755 0.0
C73 C 0.82717 0.34613 0.87 0.0
C74 C 0.85197 0.37973 0.854 0.0
O75 O 0.84226 0.46894 0.82656 0.0
C76 C 0.87966 0.44362 0.98173 0.0
O77 O 0.89227 0.42548 0.95815 0.0
H78 H 0.79731 0.39381 0.91697 0.0
H79 H 0.87642 0.38715 0.83371 0.0
N80 N 0.9134 0.46897 0.84689 0.0
N81 N 0.97207 0.49842 0.83304 0.0
C82 C 0.94558 0.49195 0.86741 0.0
C83 C 0.91989 0.46126 0.79788 0.0
C84 C 0.95569 0.47922 0.78923 0.0
C85 C 0.81187 0.46588 0.83354 0.0
O86 O 0.79577 0.45308 0.87911 0.0
H87 H 0.94949 0.50381 0.90648 0.0
H88 H 0.89974 0.44424 0.76976 0.0
O89 O 0.86905 0.4607 0.95213 0.0
H90 H 0.82843 0.32229 0.86358 0.0
H91 H 0.96851 0.47909 0.75254 0.0
Cu92 Cu 0.38573 0.85061 0.05224 0.0
N93 N 0.34568 0.80864 0.07526 0.0
N94 N 0.32547 0.75115 0.09452 0.0
C95 C 0.34317 0.7779 0.05957 0.0
C96 C 0.31477 0.76522 0.13293 0.0
C97 C 0.3275 0.80065 0.1213 0.0
O98 O 0.38773 0.83739 0.97804 0.0
C99 C 0.41384 0.86263 0.15208 0.0
O100 O 0.3907 0.87341 0.15475 0.0
H101 H 0.35759 0.77626 0.0259 0.0
H102 H 0.327 0.81978 0.14786 0.0
N103 N 0.3866 0.89467 0.05224 0.0
N104 N 0.40789 0.95318 0.04168 0.0
C105 C 0.41465 0.92611 0.03821 0.0
C106 C 0.36118 0.90209 0.06513 0.0
C107 C 0.37412 0.93791 0.05851 0.0
C108 C 0.36633 0.8406 0.9463 0.0
O109 O 0.35527 0.86246 0.95954 0.0
H110 H 0.43927 0.92878 0.02451 0.0
H111 H 0.33506 0.8828 0.07826 0.0
O112 O 0.42006 0.8541 0.10626 0.0
H113 H 0.30203 0.75195 0.16963 0.0
H114 H 0.35973 0.9517 0.06597 0.0
Cu115 Cu 0.57961 0.41721 0.23171 0.0
N116 N 0.58889 0.38978 0.28004 0.0
N117 N 0.63297 0.3844 0.3181 0.0
C118 C 0.61876 0.38845 0.27225 0.0
C119 C 0.61056 0.3824 0.35661 0.0
C120 C 0.58361 0.38601 0.33313 0.0
O121 O 0.58514 0.39851 0.1618 0.0
C122 C 0.60959 0.47646 0.29957 0.0
O123 O 0.57637 0.46635 0.30851 0.0
H124 H 0.63285 0.39633 0.23483 0.0
H125 H 0.56474 0.39064 0.35406 0.0
N126 N 0.53449 0.41473 0.2365 0.0
N127 N 0.49083 0.42866 0.22921 0.0
C128 C 0.52356 0.43598 0.21301 0.0
C129 C 0.50768 0.39313 0.26827 0.0
C130 C 0.48109 0.4015 0.2639 0.0
C131 C 0.56512 0.36517 0.15478 0.0
O132 O 0.54075 0.34777 0.19073 0.0
H133 H 0.53953 0.45643 0.18472 0.0
H134 H 0.50777 0.37316 0.29401 0.0
O135 O 0.61709 0.46288 0.26006 0.0
H136 H 0.6152 0.38207 0.39912 0.0
H137 H 0.45672 0.38894 0.28606 0.0
Cu138 Cu 0.48624 0.8246 0.44819 0.0
N139 N 0.48705 0.78541 0.41945 0.0
N140 N 0.45424 0.72659 0.40681 0.0
C141 C 0.45537 0.7581 0.40565 0.0
C142 C 0.48745 0.73475 0.42099 0.0
C143 C 0.50742 0.77088 0.42951 0.0
O144 O 0.46789 0.80433 0.51874 0.0
C145 C 0.47285 0.83983 0.34938 0.0
O146 O 0.50381 0.8419 0.34566 0.0
H147 H 0.43222 0.76099 0.40218 0.0
H148 H 0.53347 0.78469 0.44726 0.0
N149 N 0.52732 0.86975 0.45542 0.0
N150 N 0.55788 0.92877 0.46788 0.0
C151 C 0.526 0.89891 0.46983 0.0
C152 C 0.56144 0.88146 0.44423 0.0
C153 C 0.58029 0.91765 0.45222 0.0
C154 C 0.49202 0.80504 0.54891 0.0
O155 O 0.52497 0.82548 0.53491 0.0
H156 H 0.50176 0.89802 0.48121 0.0
H157 H 0.57175 0.86505 0.42998 0.0
O158 O 0.45782 0.83249 0.39506 0.0
H159 H 0.49651 0.7161 0.42803 0.0
H160 H 0.60816 0.93466 0.44503 0.0
Cu161 Cu 0.66634 0.48016 0.61361 0.0
N162 N 0.63605 0.43127 0.61478 0.0
N163 N 0.61363 0.37389 0.59639 0.0
C164 C 0.64241 0.40644 0.59451 0.0
C165 C 0.58835 0.37859 0.61913 0.0
C166 C 0.60215 0.4139 0.63008 0.0
O167 O 0.70748 0.48916 0.65965 0.0
C168 C 0.67567 0.51649 0.50889 0.0
O169 O 0.68174 0.54511 0.53442 0.0
H170 H 0.66762 0.41232 0.57851 0.0
H171 H 0.58809 0.42618 0.64654 0.0
N172 N 0.64289 0.50084 0.64968 0.0
N173 N 0.61576 0.53034 0.67728 0.0
C174 C 0.63117 0.52344 0.63566 0.0
C175 C 0.63442 0.49356 0.70158 0.0
C176 C 0.61771 0.51135 0.71849 0.0
C177 C 0.72977 0.47845 0.65435 0.0
O178 O 0.73017 0.46332 0.60944 0.0
H179 H 0.63313 0.53412 0.59599 0.0
H180 H 0.64013 0.47628 0.72564 0.0
O181 O 0.67271 0.4901 0.53558 0.0
H182 H 0.56142 0.35809 0.62592 0.0
H183 H 0.60825 0.51089 0.75846 0.0
Cu184 Cu 0.22469 0.65171 0.80258 0.0
N185 N 0.25214 0.63408 0.83445 0.0
N186 N 0.29985 0.63263 0.86552 0.0
C187 C 0.28653 0.65303 0.84827 0.0
C188 C 0.27251 0.5993 0.86287 0.0
C189 C 0.24314 0.6003 0.84403 0.0
O190 O 0.25006 0.70238 0.81767 0.0
C191 C 0.22435 0.65987 0.68619 0.0
O192 O 0.23543 0.6935 0.69365 0.0
H193 H 0.30218 0.68108 0.84312 0.0
H194 H 0.21742 0.5779 0.8359 0.0
N195 N 0.17983 0.63067 0.83519 0.0
N196 N 0.12172 0.5974 0.85177 0.0
C197 C 0.14812 0.60534 0.81649 0.0
C198 C 0.17318 0.63897 0.88369 0.0
C199 C 0.13761 0.61873 0.89391 0.0
C200 C 0.28138 0.72373 0.8022 0.0
O201 O 0.29602 0.71333 0.76635 0.0
H202 H 0.14446 0.59358 0.7774 0.0
H203 H 0.19293 0.65854 0.90984 0.0
O204 O 0.21876 0.6397 0.72647 0.0
H205 H 0.27393 0.57575 0.87201 0.0
H206 H 0.1245 0.61941 0.92998 0.0
Cu207 Cu 0.57318 0.20445 0.96744 0.0
N208 N 0.61626 0.21008 0.99195 0.0
N209 N 0.67512 0.23724 0.98867 0.0
C210 C 0.64639 0.24106 0.98719 0.0
C211 C 0.66278 0.20237 0.99486 0.0
C212 C 0.62638 0.18565 0.99744 0.0
O213 O 0.56726 0.24249 1.00242 0.0
C214 C 0.58603 0.18585 0.86513 0.0
O215 O 0.58446 0.15965 0.89336 0.0
H216 H 0.64717 0.26537 0.97598 0.0
H217 H 0.60863 0.15749 0.99725 0.0
N218 N 0.53362 0.16052 0.98821 0.0
N219 N 0.49265 0.10379 1.00506 0.0
C220 C 0.52595 0.12621 0.98753 0.0
C221 C 0.50431 0.15929 1.00707 0.0
C222 C 0.47935 0.12488 1.01729 0.0
C223 C 0.58384 0.27605 0.99535 0.0
O224 O 0.60652 0.28942 0.95613 0.0
H225 H 0.54387 0.11776 0.97337 0.0
H226 H 0.50118 0.18212 1.01258 0.0
O227 O 0.57916 0.20777 0.88859 0.0
H228 H 0.67867 0.18969 0.99326 0.0
H229 H 0.45322 0.11603 0.03279 0.0
Cu230 Cu 0.38712 0.57484 0.14371 0.0
N231 N 0.34919 0.58259 0.12721 0.0
N232 N 0.32812 0.61962 0.11015 0.0
C233 C 0.35675 0.61629 0.12068 0.0
C234 C 0.30099 0.586 0.1101 0.0
C235 C 0.31406 0.56318 0.12023 0.0
O236 O 0.41187 0.60818 0.20179 0.0
C237 C 0.39657 0.57019 0.03523 0.0
O238 O 0.36269 0.54764 0.03912 0.0
H239 H 0.38307 0.63801 0.12697 0.0
H240 H 0.29899 0.53475 0.1232 0.0
N241 N 0.3828 0.53038 0.16231 0.0
N242 N 0.40308 0.49219 0.17829 0.0
C243 C 0.41042 0.52637 0.17868 0.0
C244 C 0.35693 0.49754 0.15115 0.0
C245 C 0.36911 0.47415 0.16139 0.0
C246 C 0.39974 0.62039 0.23738 0.0
O247 O 0.42235 0.64517 0.26932 0.0
H248 H 0.43573 0.54853 0.1893 0.0
H249 H 0.33164 0.49119 0.13402 0.0
O250 O 0.41356 0.58668 0.07712 0.0
H251 H 0.2736 0.57834 0.1034 0.0
H252 H 0.3544 0.44604 0.15427 0.0
Cu253 Cu 0.8624 0.4058 0.32085 0.0
N254 N 0.83151 0.42337 0.33516 0.0
N255 N 0.7801 0.4236 0.33865 0.0
C256 C 0.79674 0.40604 0.32302 0.0
C257 C 0.80563 0.45323 0.362 0.0
C258 C 0.83723 0.45306 0.3597 0.0
O259 O 0.83922 0.36022 0.36035 0.0
C260 C 0.86839 0.43182 0.21611 0.0
O261 O 0.87201 0.45893 0.24356 0.0
H262 H 0.78375 0.38048 0.30428 0.0
H263 H 0.86247 0.47307 0.37509 0.0
N264 N 0.90894 0.43427 0.34993 0.0
N265 N 0.96761 0.4594 0.36655 0.0
C266 C 0.94115 0.44269 0.32998 0.0
C267 C 0.91564 0.4462 0.40049 0.0
C268 C 0.95133 0.4614 0.41079 0.0
C269 C 0.81047 0.33262 0.34709 0.0
O270 O 0.79806 0.33068 0.29847 0.0
H271 H 0.9449 0.43516 0.29055 0.0
H272 H 0.89562 0.44275 0.42882 0.0
O273 O 0.8647 0.40469 0.24188 0.0
H274 H 0.80184 0.47372 0.37935 0.0
H275 H 0.9643 0.47236 0.44858 0.0
C276 C 0.35848 0.65983 0.38251 0.0
C277 C 0.35346 0.6298 0.41092 0.0
C278 C 0.3918 0.69003 0.3784 0.0
C279 C 0.42187 0.69244 0.40401 0.0
H280 H 0.33628 0.66013 0.36347 0.0
H281 H 0.39367 0.71213 0.35584 0.0
S282 S 0.42309 0.61941 0.48024 0.0
N283 N 0.38151 0.60284 0.46147 0.0
N284 N 0.44413 0.66 0.45613 0.0
C285 C 0.41748 0.66176 0.43059 0.0
C286 C 0.38334 0.63051 0.43367 0.0
C287 C 0.58183 0.27653 0.58718 0.0
C288 C 0.60083 0.27431 0.54378 0.0
C289 C 0.58632 0.30906 0.60404 0.0
C290 C 0.60989 0.3408 0.57812 0.0
H291 H 0.56401 0.25302 0.60923 0.0
H292 H 0.57162 0.30938 0.63836 0.0
S293 S 0.66452 0.34864 0.46044 0.0
N294 N 0.64333 0.3061 0.47439 0.0
N295 N 0.65137 0.36734 0.50489 0.0
C296 C 0.62876 0.33881 0.53413 0.0
C297 C 0.62431 0.30559 0.5173 0.0
C298 C 0.3502 0.62226 0.85518 0.0
C299 C 0.33683 0.64373 0.87327 0.0
C300 C 0.38653 0.63456 0.85429 0.0
C301 C 0.41106 0.66843 0.87253 0.0
H302 H 0.33267 0.59655 0.83849 0.0
H303 H 0.3958 0.61824 0.8365 0.0
S304 S 0.39037 0.73468 0.92612 0.0
N305 N 0.35143 0.70033 0.91241 0.0
N306 N 0.41985 0.72311 0.91011 0.0
C307 C 0.39831 0.68978 0.89256 0.0
C308 C 0.36118 0.67746 0.89321 0.0
C309 C 0.75499 0.28553 0.90218 0.0
C310 C 0.77198 0.31961 0.92449 0.0
C311 C 0.72432 0.258 0.92504 0.0
C312 C 0.70949 0.26361 0.97092 0.0
H313 H 0.76471 0.28043 0.86564 0.0
H314 H 0.71115 0.23263 0.90535 0.0
S315 S 0.74584 0.34594 0.04932 0.0
N316 N 0.77353 0.35583 0.99921 0.0
N317 N 0.71512 0.30441 0.04029 0.0
C318 C 0.72683 0.29693 0.99486 0.0
C319 C 0.75826 0.32484 0.97218 0.0
C320 C 0.29645 0.68664 0.11443 0.0
C321 C 0.32607 0.71812 0.09726 0.0
C322 C 0.29695 0.65451 0.11753 0.0
C323 C 0.32717 0.65243 0.10375 0.0
H324 H 0.27268 0.68689 0.12551 0.0
H325 H 0.27368 0.6313 0.13192 0.0
S326 S 0.41255 0.72797 0.05921 0.0
N327 N 0.3873 0.74548 0.06993 0.0
N328 N 0.3875 0.68551 0.07143 0.0
C329 C 0.35689 0.68388 0.08619 0.0
C330 C 0.35654 0.71652 0.08405 0.0
C331 C 0.72604 0.42239 0.37208 0.0
C332 C 0.74283 0.41256 0.33346 0.0
C333 C 0.69006 0.41224 0.36777 0.0
C334 C 0.6691 0.39177 0.32467 0.0
H335 H 0.74077 0.43794 0.40622 0.0
H336 H 0.67873 0.42096 0.39816 0.0
S337 S 0.6998 0.35918 0.21225 0.0
N338 N 0.73533 0.38156 0.24972 0.0
N339 N 0.66779 0.3616 0.24292 0.0
C340 C 0.6854 0.38146 0.28604 0.0
C341 C 0.72209 0.39196 0.29016 0.0
C342 C 0.19673 0.60837 0.62417 0.0
C343 C 0.21832 0.64491 0.6312 0.0
C344 C 0.19207 0.59276 0.5739 0.0
C345 C 0.20899 0.61279 0.52804 0.0
H346 H 0.18353 0.59143 0.658 0.0
H347 H 0.1756 0.56438 0.57143 0.0
S348 S 0.26745 0.70986 0.52401 0.0
N349 N 0.25585 0.70115 0.58734 0.0
N350 N 0.2474 0.67158 0.49278 0.0
C351 C 0.22979 0.64957 0.53395 0.0
C352 C 0.23439 0.66564 0.58545 0.0
C353 C 0.61921 0.16902 0.73311 0.0
C354 C 0.62817 0.19938 0.70238 0.0
C355 C 0.60513 0.16483 0.78488 0.0
C356 C 0.5989 0.1906 0.80846 0.0
H357 H 0.62335 0.14835 0.71729 0.0
H358 H 0.59926 0.14105 0.80671 0.0
S359 S 0.61573 0.27429 0.74389 0.0
N360 N 0.62828 0.25531 0.6991 0.0
N361 N 0.60195 0.2472 0.79563 0.0
C362 C 0.6071 0.2208 0.77779 0.0
C363 C 0.62166 0.22522 0.72518 0.0
C364 C 0.39397 0.56562 0.9351 0.0
C365 C 0.41411 0.57496 0.98273 0.0
C366 C 0.40968 0.56957 0.88485 0.0
C367 C 0.44613 0.58284 0.8801 0.0
H368 H 0.36582 0.55568 0.93646 0.0
H369 H 0.39319 0.56261 0.8494 0.0
S370 S 0.51019 0.6082 0.99321 0.0
N371 N 0.47208 0.5961 0.02211 0.0
N372 N 0.50166 0.60311 0.92852 0.0
C373 C 0.46633 0.59087 0.92778 0.0
C374 C 0.45038 0.58727 0.97877 0.0
C375 C 0.87912 0.41326 0.12602 0.0
C376 C 0.86943 0.43404 0.15626 0.0
C377 C 0.88245 0.41688 0.07007 0.0
C378 C 0.87586 0.44114 0.04142 0.0
H379 H 0.88492 0.39454 0.14577 0.0
H380 H 0.89031 0.4003 0.04915 0.0
S381 S 0.84711 0.5001 0.10128 0.0
N382 N 0.85161 0.4788 0.15285 0.0
N383 N 0.85752 0.48512 0.04814 0.0
C384 C 0.86525 0.46143 0.07106 0.0
C385 C 0.86216 0.45801 0.12817 0.0
C386 C 0.45795 0.85202 0.20227 0.0
C387 C 0.42855 0.85691 0.20277 0.0
C388 C 0.47182 0.84651 0.24991 0.0
C389 C 0.45666 0.8452 0.30012 0.0
H390 H 0.47056 0.85272 0.16488 0.0
H391 H 0.49468 0.8431 0.24709 0.0
S392 S 0.37823 0.85483 0.32342 0.0
N393 N 0.38392 0.85903 0.25814 0.0
N394 N 0.41006 0.84847 0.34704 0.0
C395 C 0.42693 0.8495 0.30117 0.0
C396 C 0.41292 0.85543 0.25274 0.0
C397 C 0.65425 0.47893 0.36669 0.0
C398 C 0.63479 0.49396 0.34493 0.0
C399 C 0.66888 0.48748 0.41877 0.0
C400 C 0.66555 0.51217 0.45069 0.0
H401 H 0.65599 0.45855 0.34496 0.0
H402 H 0.68181 0.47372 0.43496 0.0
S403 S 0.62073 0.56214 0.40944 0.0
N404 N 0.61535 0.53662 0.3578 0.0
N405 N 0.64387 0.55381 0.45389 0.0
C406 C 0.64856 0.52939 0.42747 0.0
C407 C 0.63299 0.52004 0.37516 0.0
C408 C 1.02057 0.45931 0.4039 0.0
C409 C 1.00482 0.4696 0.36335 0.0
C410 C 0.05699 0.47062 0.40417 0.0
C411 C 0.07982 0.49371 0.36476 0.0
H412 H 1.00445 0.44218 0.4358 0.0
H413 H 0.06754 0.46169 0.43618 0.0
S414 S 0.05229 0.52896 0.24988 0.0
N415 N 1.01516 0.50415 0.28234 0.0
N416 N 0.0836 0.52626 0.28366 0.0
C417 C 0.06452 0.50444 0.3241 0.0
C418 C 1.02713 0.49216 0.32313 0.0
C419 C 0.59902 0.99056 0.49792 0.0
C420 C 0.56607 0.96511 0.47653 0.0
C421 C 0.608 0.02629 0.50418 0.0
C422 C 0.5846 0.03824 0.48864 0.0
H423 H 0.61817 0.98284 0.5096 0.0
H424 H 0.63391 0.04493 0.51941 0.0
S425 S 0.4948 0.98273 0.4319 0.0
N426 N 0.50994 0.9551 0.44052 0.0
N427 N 0.52642 0.0213 0.4532 0.0
C428 C 0.55134 1.01295 0.46848 0.0
C429 C 0.54218 0.97673 0.46224 0.0
C430 C 0.55679 0.56638 0.7181 0.0
C431 C 0.57546 0.60176 0.70106 0.0
C432 C 0.56946 0.54294 0.70834 0.0
C433 C 0.60096 0.55358 0.6801 0.0
H434 H 0.53295 0.55714 0.74116 0.0
H435 H 0.55486 0.51635 0.72399 0.0
S436 S 0.65838 0.64259 0.62328 0.0
N437 N 0.62621 0.64577 0.65211 0.0
N438 N 0.64964 0.60157 0.63316 0.0
C439 C 0.61907 0.58842 0.66078 0.0
C440 C 0.60648 0.61252 0.67152 0.0
C441 C 0.05891 0.57896 0.86972 0.0
C442 C 0.08428 0.57212 0.8466 0.0
C443 C 1.02249 0.55463 0.86618 0.0
C444 C 1.00974 0.52232 0.83932 0.0
H445 H 0.06723 0.60365 0.8901 0.0
H446 H 1.00415 0.56154 0.88357 0.0
S447 S 0.06504 0.48965 0.7772 0.0
N448 N 0.09381 0.52926 0.79937 0.0
N449 N 1.02583 0.48371 0.79282 0.0
C450 C 0.03486 0.51476 0.81718 0.0
C451 C 0.0719 0.53956 0.82072 0.0
C452 C 0.4367 0.04685 0.99844 0.0
C453 C 0.47327 0.06543 1.00906 0.0
C454 C 0.41601 1.01041 1.008 0.0
C455 C 0.43069 0.99039 0.02871 0.0
H456 H 0.42373 0.06078 0.98309 0.0
H457 H 0.38806 0.99781 0.99932 0.0
S458 S 0.52526 0.02594 0.06343 0.0
N459 N 0.52341 0.06069 0.04102 0.0
N460 N 0.48468 0.99227 0.05915 0.0
C461 C 0.46747 1.00836 0.03824 0.0
C462 C 0.48866 0.04573 0.02837 0.0
C463 C 0.41158 0.44196 0.20758 0.0
C464 C 0.42613 0.47736 0.19063 0.0
C465 C 0.4327 0.42652 0.21913 0.0
C466 C 0.46985 0.44545 0.21466 0.0
H467 H 0.38339 0.42583 0.21259 0.0
H468 H 0.41947 0.39917 0.23147 0.0
S469 S 0.52195 0.53901 0.17073 0.0
N470 N 0.48074 0.53067 0.16826 0.0
N471 N 0.5202 0.50225 0.19178 0.0
C472 C 0.48492 0.48091 0.19749 0.0
C473 C 0.46327 0.49667 0.18532 0.0
C474 C 0.31506 0.62391 0.26051 0.0
C475 C 0.28895 0.5882 0.26548 0.0
C476 C 0.35052 0.63392 0.25009 0.0
C477 C 0.36148 0.60872 0.24365 0.0
H478 H 0.30827 0.64438 0.2661 0.0
H479 H 0.36968 0.66176 0.24765 0.0
S480 S 0.30449 0.51192 0.25413 0.0
N481 N 0.27732 0.52747 0.26282 0.0
N482 N 0.34372 0.54674 0.24487 0.0
C483 C 0.33583 0.57308 0.24817 0.0
C484 C 0.29969 0.56273 0.25826 0.0
C485 C 0.79318 0.31455 0.44347 0.0
C486 C 0.78786 0.30599 0.38868 0.0
C487 C 0.76933 0.29224 0.48264 0.0
C488 C 0.73911 0.25996 0.46924 0.0
H489 H 0.81521 0.33946 0.45622 0.0
H490 H 0.7743 0.30089 0.52382 0.0
S491 S 0.71433 0.22354 0.33195 0.0
N492 N 0.75083 0.26164 0.32362 0.0
N493 N 0.70657 0.21983 0.39676 0.0
C494 C 0.73434 0.25031 0.41484 0.0
C495 C 0.75845 0.27322 0.37486 0.0
C496 C 0.51287 0.7629 0.66423 0.0
C497 C 0.48944 0.72649 0.65778 0.0
C498 C 0.51086 0.78813 0.63203 0.0
C499 C 0.48534 0.7785 0.59148 0.0
H500 H 0.53398 0.77235 0.69355 0.0
H501 H 0.53087 0.81552 0.63715 0.0
S502 S 0.41399 0.68742 0.56268 0.0
N503 N 0.43689 0.68237 0.61154 0.0
N504 N 0.43352 0.73017 0.54993 0.0
C505 C 0.45995 0.74249 0.58674 0.0
C506 C 0.46194 0.71643 0.62005 0.0
C507 C 0.80166 0.47163 0.73485 0.0
C508 C 0.79299 0.47305 0.78858 0.0
C509 C 0.78179 0.47436 0.69201 0.0
C510 C 0.75263 0.47934 0.70061 0.0
H511 H 0.82325 0.46707 0.72565 0.0
H512 H 0.78908 0.47196 0.65169 0.0
S513 S 0.7202 0.48734 0.8336 0.0
N514 N 0.75388 0.48133 0.84764 0.0
N515 N 0.71727 0.48714 0.76778 0.0
C516 C 0.74456 0.48221 0.75414 0.0
C517 C 0.76444 0.47887 0.79777 0.0
C518 C 0.36049 0.79613 0.877 0.0
C519 C 0.34561 0.81307 0.90558 0.0
C520 C 0.33998 0.7685 0.84125 0.0
C521 C 0.30363 0.75624 0.8337 0.0
H522 H 0.38803 0.80401 0.88271 0.0
H523 H 0.35242 0.75569 0.82113 0.0
S524 S 0.25178 0.79147 0.89893 0.0
N525 N 0.29206 0.81558 0.92309 0.0
N526 N 0.25395 0.76361 0.85714 0.0
C527 C 0.28863 0.77326 0.86149 0.0
C528 C 0.30948 0.80164 0.89705 0.0
C529 C 0.54678 0.30751 0.10776 0.0
C530 C 0.56995 0.34436 0.11077 0.0
C531 C 0.55119 0.28605 0.07033 0.0
C532 C 0.57891 0.30012 0.03323 0.0
H533 H 0.525 0.29467 0.13529 0.0
H534 H 0.53268 0.25799 0.07086 0.0
S535 S 0.64711 0.39502 0.02285 0.0
N536 N 0.6218 0.39389 0.07227 0.0
N537 N 0.63003 0.35398 1.00178 0.0
C538 C 0.60206 0.33707 0.03498 0.0
C539 C 0.59762 0.35898 0.07356 0.0
loop_
_geom_bond_atom_site_label_1
_geom_bond_atom_site_label_2
_geom_bond_distance
_geom_bond_site_symmetry_2
_ccdc_geom_bond_type
Cu0 N1 1.999 . S
Cu0 O6 1.974 . S
Cu0 N11 1.985 . S
Cu0 O20 1.959 . S
N1 Cu0 1.999 . S
N1 C3 1.263 . S
N1 C5 1.389 . S
N2 C3 1.358 . S
N2 C4 1.400 . S
C3 N1 1.263 . S
C3 N2 1.358 . S
C3 H9 0.930 . S
C4 N2 1.400 . S
C4 C5 1.351 . S
C4 H21 0.930 . S
C5 N1 1.389 . S
C5 C4 1.351 . S
C5 H10 0.930 . S
O6 Cu0 1.974 . S
O6 C16 1.282 . S
C7 O8 1.261 . S
C7 O20 1.251 . S
O8 C7 1.261 . S
H9 C3 0.930 . S
H10 C5 0.930 . S
N11 Cu0 1.985 . S
N11 C13 1.335 . S
N11 C14 1.390 . S
N12 C13 1.345 . S
N12 C15 1.336 . S
C13 N11 1.335 . S
C13 N12 1.345 . S
C13 H18 0.930 . S
C14 N11 1.390 . S
C14 C15 1.346 . S
C14 H19 0.930 . S
C15 N12 1.336 . S
C15 C14 1.346 . S
C15 H22 0.929 . S
C16 O6 1.282 . S
C16 O17 1.216 . S
O17 C16 1.216 . S
H18 C13 0.930 . S
H19 C14 0.930 . S
O20 Cu0 1.959 . S
O20 C7 1.251 . S
H21 C4 0.930 . S
H22 C15 0.929 . S
Cu23 N24 1.999 . S
Cu23 O29 1.974 . S
Cu23 N34 1.985 . S
Cu23 O43 1.959 . S
N24 Cu23 1.999 . S
N24 C26 1.263 . S
N24 C28 1.389 . S
N25 C26 1.358 . S
N25 C27 1.400 . S
C26 N24 1.263 . S
C26 N25 1.358 . S
C26 H32 0.930 . S
C27 N25 1.400 . S
C27 C28 1.351 . S
C27 H44 0.930 . S
C28 N24 1.389 . S
C28 C27 1.351 . S
C28 H33 0.930 . S
O29 Cu23 1.974 . S
O29 C39 1.282 . S
C30 O31 1.261 . S
C30 O43 1.251 . S
O31 C30 1.261 . S
H32 C26 0.930 . S
H33 C28 0.930 . S
N34 Cu23 1.985 . S
N34 C36 1.335 . S
N34 C37 1.390 . S
N35 C36 1.345 . S
N35 C38 1.336 . S
C36 N34 1.335 . S
C36 N35 1.345 . S
C36 H41 0.930 . S
C37 N34 1.390 . S
C37 C38 1.346 . S
C37 H42 0.930 . S
C38 N35 1.336 . S
C38 C37 1.346 . S
C38 H45 0.929 . S
C39 O29 1.282 . S
C39 O40 1.216 . S
O40 C39 1.216 . S
H41 C36 0.930 . S
H42 C37 0.930 . S
O43 Cu23 1.959 . S
O43 C30 1.251 . S
H44 C27 0.930 . S
H45 C38 0.929 . S
Cu46 N47 1.999 . S
Cu46 O52 1.974 . S
Cu46 N57 1.985 . S
Cu46 O66 1.959 . S
N47 Cu46 1.999 . S
N47 C49 1.263 . S
N47 C51 1.389 . S
N48 C49 1.358 . S
N48 C50 1.400 . S
C49 N47 1.263 . S
C49 N48 1.358 . S
C49 H55 0.930 . S
C50 N48 1.400 . S
C50 C51 1.351 . S
C50 H67 0.930 . S
C51 N47 1.389 . S
C51 C50 1.351 . S
C51 H56 0.930 . S
O52 Cu46 1.974 . S
O52 C62 1.282 . S
C53 O54 1.261 . S
C53 O66 1.251 . S
O54 C53 1.261 . S
H55 C49 0.930 . S
H56 C51 0.930 . S
N57 Cu46 1.985 . S
N57 C59 1.335 . S
N57 C60 1.390 . S
N58 C59 1.345 . S
N58 C61 1.336 . S
C59 N57 1.335 . S
C59 N58 1.345 . S
C59 H64 0.930 . S
C60 N57 1.390 . S
C60 C61 1.346 . S
C60 H65 0.930 . S
C61 N58 1.336 . S
C61 C60 1.346 . S
C61 H68 0.929 . S
C62 O52 1.282 . S
C62 O63 1.216 . S
O63 C62 1.216 . S
H64 C59 0.930 . S
H65 C60 0.930 . S
O66 Cu46 1.959 . S
O66 C53 1.251 . S
H67 C50 0.930 . S
H68 C61 0.929 . S
Cu69 N70 1.999 . S
Cu69 O75 1.974 . S
Cu69 N80 1.985 . S
Cu69 O89 1.959 . S
N70 Cu69 1.999 . S
N70 C72 1.263 . S
N70 C74 1.389 . S
N71 C72 1.358 . S
N71 C73 1.400 . S
C72 N70 1.263 . S
C72 N71 1.358 . S
C72 H78 0.930 . S
C73 N71 1.400 . S
C73 C74 1.351 . S
C73 H90 0.930 . S
C74 N70 1.389 . S
C74 C73 1.351 . S
C74 H79 0.930 . S
O75 Cu69 1.974 . S
O75 C85 1.282 . S
C76 O77 1.260 1_556 S
C76 O89 1.262 . S
O77 C76 1.260 1_554 S
H78 C72 0.930 . S
H79 C74 0.930 . S
N80 Cu69 1.985 . S
N80 C82 1.335 . S
N80 C83 1.390 . S
N81 C82 1.345 . S
N81 C84 1.336 . S
C82 N80 1.335 . S
C82 N81 1.345 . S
C82 H87 0.930 . S
C83 N80 1.390 . S
C83 C84 1.346 . S
C83 H88 0.930 . S
C84 N81 1.336 . S
C84 C83 1.346 . S
C84 H91 0.929 . S
C85 O75 1.282 . S
C85 O86 1.216 . S
O86 C85 1.216 . S
H87 C82 0.930 . S
H88 C83 0.930 . S
O89 Cu69 1.959 . S
O89 C76 1.262 . S
H90 C73 0.930 . S
H91 C84 0.929 . S
Cu92 N93 1.999 . S
Cu92 O98 1.974 . S
Cu92 N103 1.985 . S
Cu92 O112 1.959 . S
N93 Cu92 1.999 . S
N93 C95 1.263 . S
N93 C97 1.389 . S
N94 C95 1.358 . S
N94 C96 1.400 . S
C95 N93 1.263 . S
C95 N94 1.358 . S
C95 H101 0.930 . S
C96 N94 1.400 . S
C96 C97 1.351 . S
C96 H113 0.930 . S
C97 N93 1.389 . S
C97 C96 1.351 . S
C97 H102 0.930 . S
O98 Cu92 1.974 . S
O98 C108 1.282 . S
C99 O100 1.261 . S
C99 O112 1.251 . S
O100 C99 1.261 . S
H101 C95 0.930 . S
H102 C97 0.930 . S
N103 Cu92 1.985 . S
N103 C105 1.335 . S
N103 C106 1.390 . S
N104 C105 1.345 . S
N104 C107 1.336 . S
C105 N103 1.335 . S
C105 N104 1.345 . S
C105 H110 0.930 . S
C106 N103 1.390 . S
C106 C107 1.346 . S
C106 H111 0.930 . S
C107 N104 1.336 . S
C107 C106 1.346 . S
C107 H114 0.929 . S
C108 O98 1.282 . S
C108 O109 1.216 . S
O109 C108 1.216 . S
H110 C105 0.930 . S
H111 C106 0.930 . S
O112 Cu92 1.959 . S
O112 C99 1.251 . S
H113 C96 0.930 . S
H114 C107 0.929 . S
Cu115 N116 1.999 . S
Cu115 O121 1.974 . S
Cu115 N126 1.985 . S
Cu115 O135 1.959 . S
N116 Cu115 1.999 . S
N116 C118 1.263 . S
N116 C120 1.389 . S
N117 C118 1.358 . S
N117 C119 1.400 . S
C118 N116 1.263 . S
C118 N117 1.358 . S
C118 H124 0.930 . S
C119 N117 1.400 . S
C119 C120 1.351 . S
C119 H136 0.930 . S
C120 N116 1.389 . S
C120 C119 1.351 . S
C120 H125 0.930 . S
O121 Cu115 1.974 . S
O121 C131 1.282 . S
C122 O123 1.261 . S
C122 O135 1.251 . S
O123 C122 1.261 . S
H124 C118 0.930 . S
H125 C120 0.930 . S
N126 Cu115 1.985 . S
N126 C128 1.335 . S
N126 C129 1.390 . S
N127 C128 1.345 . S
N127 C130 1.336 . S
C128 N126 1.335 . S
C128 N127 1.345 . S
C128 H133 0.930 . S
C129 N126 1.390 . S
C129 C130 1.346 . S
C129 H134 0.930 . S
C130 N127 1.336 . S
C130 C129 1.346 . S
C130 H137 0.929 . S
C131 O121 1.282 . S
C131 O132 1.216 . S
O132 C131 1.216 . S
H133 C128 0.930 . S
H134 C129 0.930 . S
O135 Cu115 1.959 . S
O135 C122 1.251 . S
H136 C119 0.930 . S
H137 C130 0.929 . S
Cu138 N139 1.999 . S
Cu138 O144 1.974 . S
Cu138 N149 1.985 . S
Cu138 O158 1.959 . S
N139 Cu138 1.999 . S
N139 C141 1.263 . S
N139 C143 1.389 . S
N140 C141 1.358 . S
N140 C142 1.400 . S
C141 N139 1.263 . S
C141 N140 1.358 . S
C141 H147 0.930 . S
C142 N140 1.400 . S
C142 C143 1.351 . S
C142 H159 0.930 . S
C143 N139 1.389 . S
C143 C142 1.351 . S
C143 H148 0.930 . S
O144 Cu138 1.974 . S
O144 C154 1.282 . S
C145 O146 1.261 . S
C145 O158 1.251 . S
O146 C145 1.261 . S
H147 C141 0.930 . S
H148 C143 0.930 . S
N149 Cu138 1.985 . S
N149 C151 1.335 . S
N149 C152 1.390 . S
N150 C151 1.345 . S
N150 C153 1.336 . S
C151 N149 1.335 . S
C151 N150 1.345 . S
C151 H156 0.930 . S
C152 N149 1.390 . S
C152 C153 1.346 . S
C152 H157 0.930 . S
C153 N150 1.336 . S
C153 C152 1.346 . S
C153 H160 0.929 . S
C154 O144 1.282 . S
C154 O155 1.216 . S
O155 C154 1.216 . S
H156 C151 0.930 . S
H157 C152 0.930 . S
O158 Cu138 1.959 . S
O158 C145 1.251 . S
H159 C142 0.930 . S
H160 C153 0.929 . S
Cu161 N162 1.999 . S
Cu161 O167 1.974 . S
Cu161 N172 1.985 . S
Cu161 O181 1.959 . S
N162 Cu161 1.999 . S
N162 C164 1.263 . S
N162 C166 1.389 . S
N163 C164 1.358 . S
N163 C165 1.400 . S
C164 N162 1.263 . S
C164 N163 1.358 . S
C164 H170 0.930 . S
C165 N163 1.400 . S
C165 C166 1.351 . S
C165 H182 0.930 . S
C166 N162 1.389 . S
C166 C165 1.351 . S
C166 H171 0.930 . S
O167 Cu161 1.974 . S
O167 C177 1.282 . S
C168 O169 1.261 . S
C168 O181 1.251 . S
O169 C168 1.261 . S
H170 C164 0.930 . S
H171 C166 0.930 . S
N172 Cu161 1.985 . S
N172 C174 1.335 . S
N172 C175 1.390 . S
N173 C174 1.345 . S
N173 C176 1.336 . S
C174 N172 1.335 . S
C174 N173 1.345 . S
C174 H179 0.930 . S
C175 N172 1.390 . S
C175 C176 1.346 . S
C175 H180 0.930 . S
C176 N173 1.336 . S
C176 C175 1.346 . S
C176 H183 0.929 . S
C177 O167 1.282 . S
C177 O178 1.216 . S
O178 C177 1.216 . S
H179 C174 0.930 . S
H180 C175 0.930 . S
O181 Cu161 1.959 . S
O181 C168 1.251 . S
H182 C165 0.930 . S
H183 C176 0.929 . S
Cu184 N185 1.999 . S
Cu184 O190 1.974 . S
Cu184 N195 1.985 . S
Cu184 O204 1.959 . S
N185 Cu184 1.999 . S
N185 C187 1.263 . S
N185 C189 1.389 . S
N186 C187 1.358 . S
N186 C188 1.400 . S
C187 N185 1.263 . S
C187 N186 1.358 . S
C187 H193 0.930 . S
C188 N186 1.400 . S
C188 C189 1.351 . S
C188 H205 0.930 . S
C189 N185 1.389 . S
C189 C188 1.351 . S
C189 H194 0.930 . S
O190 Cu184 1.974 . S
O190 C200 1.282 . S
C191 O192 1.261 . S
C191 O204 1.251 . S
O192 C191 1.261 . S
H193 C187 0.930 . S
H194 C189 0.930 . S
N195 Cu184 1.985 . S
N195 C197 1.335 . S
N195 C198 1.390 . S
N196 C197 1.345 . S
N196 C199 1.336 . S
C197 N195 1.335 . S
C197 N196 1.345 . S
C197 H202 0.930 . S
C198 N195 1.390 . S
C198 C199 1.346 . S
C198 H203 0.930 . S
C199 N196 1.336 . S
C199 C198 1.346 . S
C199 H206 0.929 . S
C200 O190 1.282 . S
C200 O201 1.216 . S
O201 C200 1.216 . S
H202 C197 0.930 . S
H203 C198 0.930 . S
O204 Cu184 1.959 . S
O204 C191 1.251 . S
H205 C188 0.930 . S
H206 C199 0.929 . S
Cu207 N208 1.999 . S
Cu207 O213 1.974 . S
Cu207 N218 1.985 . S
Cu207 O227 1.959 . S
N208 Cu207 1.999 . S
N208 C210 1.263 . S
N208 C212 1.389 . S
N209 C210 1.358 . S
N209 C211 1.400 . S
C210 N208 1.263 . S
C210 N209 1.358 . S
C210 H216 0.930 . S
C211 N209 1.400 . S
C211 C212 1.351 . S
C211 H228 0.930 . S
C212 N208 1.389 . S
C212 C211 1.351 . S
C212 H217 0.930 . S
O213 Cu207 1.974 . S
O213 C223 1.282 . S
C214 O215 1.261 . S
C214 O227 1.251 . S
O215 C214 1.261 . S
H216 C210 0.930 . S
H217 C212 0.930 . S
N218 Cu207 1.985 . S
N218 C220 1.335 . S
N218 C221 1.390 . S
N219 C220 1.345 . S
N219 C222 1.336 . S
C220 N218 1.335 . S
C220 N219 1.345 . S
C220 H225 0.930 . S
C221 N218 1.390 . S
C221 C222 1.346 . S
C221 H226 0.930 . S
C222 N219 1.336 . S
C222 C221 1.346 . S
C222 H229 0.929 . S
C223 O213 1.282 . S
C223 O224 1.216 . S
O224 C223 1.216 . S
H225 C220 0.930 . S
H226 C221 0.930 . S
O227 Cu207 1.959 . S
O227 C214 1.251 . S
H228 C211 0.930 . S
H229 C222 0.929 . S
Cu230 N231 1.999 . S
Cu230 O236 1.974 . S
Cu230 N241 1.985 . S
Cu230 O250 1.959 . S
N231 Cu230 1.999 . S
N231 C233 1.263 . S
N231 C235 1.389 . S
N232 C233 1.358 . S
N232 C234 1.400 . S
C233 N231 1.263 . S
C233 N232 1.358 . S
C233 H239 0.930 . S
C234 N232 1.400 . S
C234 C235 1.351 . S
C234 H251 0.930 . S
C235 N231 1.389 . S
C235 C234 1.351 . S
C235 H240 0.930 . S
O236 Cu230 1.974 . S
O236 C246 1.282 . S
C237 O238 1.260 1_554 S
C237 O250 1.262 . S
O238 C237 1.260 1_556 S
H239 C233 0.930 . S
H240 C235 0.930 . S
N241 Cu230 1.985 . S
N241 C243 1.335 . S
N241 C244 1.390 . S
N242 C243 1.345 . S
N242 C245 1.336 . S
C243 N241 1.335 . S
C243 N242 1.345 . S
C243 H248 0.930 . S
C244 N241 1.390 . S
C244 C245 1.346 . S
C244 H249 0.930 . S
C245 N242 1.336 . S
C245 C244 1.346 . S
C245 H252 0.929 . S
C246 O236 1.282 . S
C246 O247 1.216 . S
O247 C246 1.216 . S
H248 C243 0.930 . S
H249 C244 0.930 . S
O250 Cu230 1.959 . S
O250 C237 1.262 . S
H251 C234 0.930 . S
H252 C245 0.929 . S
Cu253 N254 1.999 . S
Cu253 O259 1.974 . S
Cu253 N264 1.985 . S
Cu253 O273 1.959 . S
N254 Cu253 1.999 . S
N254 C256 1.263 . S
N254 C258 1.389 . S
N255 C256 1.358 . S
N255 C257 1.400 . S
C256 N254 1.263 . S
C256 N255 1.358 . S
C256 H262 0.930 . S
C257 N255 1.400 . S
C257 C258 1.351 . S
C257 H274 0.930 . S
C258 N254 1.389 . S
C258 C257 1.351 . S
C258 H263 0.930 . S
O259 Cu253 1.974 . S
O259 C269 1.282 . S
C260 O261 1.261 . S
C260 O273 1.251 . S
O261 C260 1.261 . S
H262 C256 0.930 . S
H263 C258 0.930 . S
N264 Cu253 1.985 . S
N264 C266 1.335 . S
N264 C267 1.390 . S
N265 C266 1.345 . S
N265 C268 1.336 . S
C266 N264 1.335 . S
C266 N265 1.345 . S
C266 H271 0.930 . S
C267 N264 1.390 . S
C267 C268 1.346 . S
C267 H272 0.930 . S
C268 N265 1.336 . S
C268 C267 1.346 . S
C268 H275 0.929 . S
C269 O259 1.282 . S
C269 O270 1.216 . S
O270 C269 1.216 . S
H271 C266 0.930 . S
H272 C267 0.930 . S
O273 Cu253 1.959 . S
O273 C260 1.251 . S
H274 C257 0.930 . S
H275 C268 0.929 . S
C276 C277 1.369 . S
C276 C278 1.419 . S
C276 H280 0.930 . S
C277 C276 1.369 . S
C277 C286 1.429 . S
C278 C276 1.419 . S
C278 C279 1.363 . S
C278 H281 0.929 . S
C279 C278 1.363 . S
C279 C285 1.428 . S
H280 C276 0.930 . S
H281 C278 0.929 . S
S282 N283 1.613 . S
S282 N284 1.610 . S
N283 S282 1.613 . S
N283 C286 1.350 . S
N284 S282 1.610 . S
N284 C285 1.351 . S
C285 C279 1.428 . S
C285 N284 1.351 . S
C285 C286 1.434 . S
C286 C277 1.429 . S
C286 N283 1.350 . S
C286 C285 1.434 . S
C287 C288 1.369 . S
C287 C289 1.419 . S
C287 H291 0.930 . S
C288 C287 1.369 . S
C288 C297 1.429 . S
C289 C287 1.419 . S
C289 C290 1.363 . S
C289 H292 0.929 . S
C290 C289 1.363 . S
C290 C296 1.428 . S
H291 C287 0.930 . S
H292 C289 0.929 . S
S293 N294 1.613 . S
S293 N295 1.610 . S
N294 S293 1.613 . S
N294 C297 1.350 . S
N295 S293 1.610 . S
N295 C296 1.351 . S
C296 C290 1.428 . S
C296 N295 1.351 . S
C296 C297 1.434 . S
C297 C288 1.429 . S
C297 N294 1.350 . S
C297 C296 1.434 . S
C298 C299 1.369 . S
C298 C300 1.419 . S
C298 H302 0.930 . S
C299 C298 1.369 . S
C299 C308 1.429 . S
C300 C298 1.419 . S
C300 C301 1.363 . S
C300 H303 0.929 . S
C301 C300 1.363 . S
C301 C307 1.428 . S
H302 C298 0.930 . S
H303 C300 0.929 . S
S304 N305 1.613 . S
S304 N306 1.610 . S
N305 S304 1.613 . S
N305 C308 1.350 . S
N306 S304 1.610 . S
N306 C307 1.351 . S
C307 C301 1.428 . S
C307 N306 1.351 . S
C307 C308 1.434 . S
C308 C299 1.429 . S
C308 N305 1.350 . S
C308 C307 1.434 . S
C309 C310 1.369 . S
C309 C311 1.419 . S
C309 H313 0.930 . S
C310 C309 1.369 . S
C310 C319 1.429 . S
C311 C309 1.419 . S
C311 C312 1.363 . S
C311 H314 0.929 . S
C312 C311 1.363 . S
C312 C318 1.428 . S
H313 C309 0.930 . S
H314 C311 0.929 . S
S315 N316 1.613 . S
S315 N317 1.610 . S
N316 S315 1.613 . S
N316 C319 1.350 1_554 S
N317 S315 1.610 . S
N317 C318 1.351 1_554 S
C318 C312 1.428 . S
C318 N317 1.351 1_556 S
C318 C319 1.434 . S
C319 C310 1.429 . S
C319 N316 1.350 1_556 S
C319 C318 1.434 . S
C320 C321 1.369 . S
C320 C322 1.419 . S
C320 H324 0.930 . S
C321 C320 1.369 . S
C321 C330 1.429 . S
C322 C320 1.419 . S
C322 C323 1.363 . S
C322 H325 0.929 . S
C323 C322 1.363 . S
C323 C329 1.428 . S
H324 C320 0.930 . S
H325 C322 0.929 . S
S326 N327 1.613 . S
S326 N328 1.610 . S
N327 S326 1.613 . S
N327 C330 1.350 . S
N328 S326 1.610 . S
N328 C329 1.351 . S
C329 C323 1.428 . S
C329 N328 1.351 . S
C329 C330 1.434 . S
C330 C321 1.429 . S
C330 N327 1.350 . S
C330 C329 1.434 . S
C331 C332 1.369 . S
C331 C333 1.419 . S
C331 H335 0.930 . S
C332 C331 1.369 . S
C332 C341 1.429 . S
C333 C331 1.419 . S
C333 C334 1.363 . S
C333 H336 0.929 . S
C334 C333 1.363 . S
C334 C340 1.428 . S
H335 C331 0.930 . S
H336 C333 0.929 . S
S337 N338 1.613 . S
S337 N339 1.610 . S
N338 S337 1.613 . S
N338 C341 1.350 . S
N339 S337 1.610 . S
N339 C340 1.351 . S
C340 C334 1.428 . S
C340 N339 1.351 . S
C340 C341 1.434 . S
C341 C332 1.429 . S
C341 N338 1.350 . S
C341 C340 1.434 . S
C342 C343 1.369 . S
C342 C344 1.419 . S
C342 H346 0.930 . S
C343 C342 1.369 . S
C343 C352 1.429 . S
C344 C342 1.419 . S
C344 C345 1.363 . S
C344 H347 0.929 . S
C345 C344 1.363 . S
C345 C351 1.428 . S
H346 C342 0.930 . S
H347 C344 0.929 . S
S348 N349 1.613 . S
S348 N350 1.610 . S
N349 S348 1.613 . S
N349 C352 1.350 . S
N350 S348 1.610 . S
N350 C351 1.351 . S
C351 C345 1.428 . S
C351 N350 1.351 . S
C351 C352 1.434 . S
C352 C343 1.429 . S
C352 N349 1.350 . S
C352 C351 1.434 . S
C353 C354 1.369 . S
C353 C355 1.419 . S
C353 H357 0.930 . S
C354 C353 1.369 . S
C354 C363 1.429 . S
C355 C353 1.419 . S
C355 C356 1.363 . S
C355 H358 0.929 . S
C356 C355 1.363 . S
C356 C362 1.428 . S
H357 C353 0.930 . S
H358 C355 0.929 . S
S359 N360 1.613 . S
S359 N361 1.610 . S
N360 S359 1.613 . S
N360 C363 1.350 . S
N361 S359 1.610 . S
N361 C362 1.351 . S
C362 C356 1.428 . S
C362 N361 1.351 . S
C362 C363 1.434 . S
C363 C354 1.429 . S
C363 N360 1.350 . S
C363 C362 1.434 . S
C364 C365 1.369 . S
C364 C366 1.419 . S
C364 H368 0.930 . S
C365 C364 1.369 . S
C365 C374 1.429 . S
C366 C364 1.419 . S
C366 C367 1.363 . S
C366 H369 0.929 . S
C367 C366 1.363 . S
C367 C373 1.428 . S
H368 C364 0.930 . S
H369 C366 0.929 . S
S370 N371 1.613 . S
S370 N372 1.610 1_554 S
N371 S370 1.613 . S
N371 C374 1.350 1_554 S
N372 S370 1.610 1_556 S
N372 C373 1.351 . S
C373 C367 1.428 . S
C373 N372 1.351 . S
C373 C374 1.434 . S
C374 C365 1.429 . S
C374 N371 1.350 1_556 S
C374 C373 1.434 . S
C375 C376 1.369 . S
C375 C377 1.419 . S
C375 H379 0.930 . S
C376 C375 1.369 . S
C376 C385 1.429 . S
C377 C375 1.419 . S
C377 C378 1.363 . S
C377 H380 0.929 . S
C378 C377 1.363 . S
C378 C384 1.428 . S
H379 C375 0.930 . S
H380 C377 0.929 . S
S381 N382 1.613 . S
S381 N383 1.610 . S
N382 S381 1.613 . S
N382 C385 1.350 . S
N383 S381 1.610 . S
N383 C384 1.351 . S
C384 C378 1.428 . S
C384 N383 1.351 . S
C384 C385 1.434 . S
C385 C376 1.429 . S
C385 N382 1.350 . S
C385 C384 1.434 . S
C386 C387 1.369 . S
C386 C388 1.419 . S
C386 H390 0.930 . S
C387 C386 1.369 . S
C387 C396 1.429 . S
C388 C386 1.419 . S
C388 C389 1.363 . S
C388 H391 0.929 . S
C389 C388 1.363 . S
C389 C395 1.428 . S
H390 C386 0.930 . S
H391 C388 0.929 . S
S392 N393 1.613 . S
S392 N394 1.610 . S
N393 S392 1.613 . S
N393 C396 1.350 . S
N394 S392 1.610 . S
N394 C395 1.351 . S
C395 C389 1.428 . S
C395 N394 1.351 . S
C395 C396 1.434 . S
C396 C387 1.429 . S
C396 N393 1.350 . S
C396 C395 1.434 . S
C397 C398 1.369 . S
C397 C399 1.419 . S
C397 H401 0.930 . S
C398 C397 1.369 . S
C398 C407 1.429 . S
C399 C397 1.419 . S
C399 C400 1.363 . S
C399 H402 0.929 . S
C400 C399 1.363 . S
C400 C406 1.428 . S
H401 C397 0.930 . S
H402 C399 0.929 . S
S403 N404 1.613 . S
S403 N405 1.610 . S
N404 S403 1.613 . S
N404 C407 1.350 . S
N405 S403 1.610 . S
N405 C406 1.351 . S
C406 C400 1.428 . S
C406 N405 1.351 . S
C406 C407 1.434 . S
C407 C398 1.429 . S
C407 N404 1.350 . S
C407 C406 1.434 . S
C408 C409 1.369 . S
C408 C410 1.419 1_655 S
C408 H412 0.930 . S
C409 C408 1.369 . S
C409 C418 1.429 . S
C410 C408 1.419 1_455 S
C410 C411 1.363 . S
C410 H413 0.929 . S
C411 C410 1.363 . S
C411 C417 1.428 . S
H412 C408 0.930 . S
H413 C410 0.929 . S
S414 N415 1.622 . S
S414 N416 1.610 . S
N415 S414 1.622 . S
N415 C418 1.354 1_455 S
N416 S414 1.610 . S
N416 C417 1.351 . S
C417 C411 1.428 . S
C417 N416 1.351 . S
C417 C418 1.434 1_455 S
C418 C409 1.429 . S
C418 N415 1.354 1_655 S
C418 C417 1.434 1_655 S
C419 C420 1.369 . S
C419 C421 1.419 1_565 S
C419 H423 0.930 . S
C420 C419 1.369 . S
C420 C429 1.429 . S
C421 C419 1.419 1_545 S
C421 C422 1.363 . S
C421 H424 0.929 . S
C422 C421 1.363 . S
C422 C428 1.428 . S
H423 C419 0.930 . S
H424 C421 0.929 . S
S425 N426 1.613 1_545 S
S425 N427 1.610 . S
N426 S425 1.613 1_565 S
N426 C429 1.350 . S
N427 S425 1.610 . S
N427 C428 1.351 . S
C428 C422 1.428 . S
C428 N427 1.351 . S
C428 C429 1.434 1_545 S
C429 C420 1.429 . S
C429 N426 1.350 . S
C429 C428 1.434 1_565 S
C430 C431 1.369 . S
C430 C432 1.419 . S
C430 H434 0.930 . S
C431 C430 1.369 . S
C431 C440 1.429 . S
C432 C430 1.419 . S
C432 C433 1.363 . S
C432 H435 0.929 . S
C433 C432 1.363 . S
C433 C439 1.428 . S
H434 C430 0.930 . S
H435 C432 0.929 . S
S436 N437 1.613 . S
S436 N438 1.610 . S
N437 S436 1.613 . S
N437 C440 1.350 . S
N438 S436 1.610 . S
N438 C439 1.351 . S
C439 C433 1.428 . S
C439 N438 1.351 . S
C439 C440 1.434 . S
C440 C431 1.429 . S
C440 N437 1.350 . S
C440 C439 1.434 . S
C441 C442 1.369 . S
C441 C443 1.419 1_455 S
C441 H445 0.930 . S
C442 C441 1.369 . S
C442 C451 1.435 . S
C443 C441 1.419 1_655 S
C443 C444 1.363 . S
C443 H446 0.929 . S
C444 C443 1.363 . S
C444 C450 1.428 . S
H445 C441 0.930 . S
H446 C443 0.929 . S
S447 N448 1.613 . S
S447 N449 1.610 . S
N448 S447 1.613 . S
N448 C451 1.353 1_655 S
N449 S447 1.610 . S
N449 C450 1.351 . S
C450 C444 1.428 . S
C450 N449 1.351 . S
C450 C451 1.423 1_655 S
C451 C442 1.435 . S
C451 N448 1.353 1_455 S
C451 C450 1.423 1_455 S
C452 C453 1.369 . S
C452 C454 1.419 1_546 S
C452 H456 0.930 . S
C453 C452 1.369 . S
C453 C462 1.429 . S
C454 C452 1.419 1_564 S
C454 C455 1.363 . S
C454 H457 0.929 . S
C455 C454 1.363 . S
C455 C461 1.428 . S
H456 C452 0.930 . S
H457 C454 0.929 . S
S458 N459 1.613 1_554 S
S458 N460 1.610 1_545 S
N459 S458 1.613 1_556 S
N459 C462 1.350 . S
N460 S458 1.610 1_565 S
N460 C461 1.351 . S
C461 C455 1.428 . S
C461 N460 1.351 . S
C461 C462 1.434 1_564 S
C462 C453 1.429 . S
C462 N459 1.350 . S
C462 C461 1.434 1_546 S
C463 C464 1.369 . S
C463 C465 1.419 . S
C463 H467 0.930 . S
C464 C463 1.369 . S
C464 C473 1.429 . S
C465 C463 1.419 . S
C465 C466 1.363 . S
C465 H468 0.929 . S
C466 C465 1.363 . S
C466 C472 1.428 . S
H467 C463 0.930 . S
H468 C465 0.929 . S
S469 N470 1.613 . S
S469 N471 1.610 . S
N470 S469 1.613 . S
N470 C473 1.350 . S
N471 S469 1.610 . S
N471 C472 1.351 . S
C472 C466 1.428 . S
C472 N471 1.351 . S
C472 C473 1.434 . S
C473 C464 1.429 . S
C473 N470 1.350 . S
C473 C472 1.434 . S
C474 C475 1.369 . S
C474 C476 1.419 . S
C474 H478 0.930 . S
C475 C474 1.369 . S
C475 C484 1.429 . S
C476 C474 1.419 . S
C476 C477 1.363 . S
C476 H479 0.929 . S
C477 C476 1.363 . S
C477 C483 1.428 . S
H478 C474 0.930 . S
H479 C476 0.929 . S
S480 N481 1.613 . S
S480 N482 1.610 . S
N481 S480 1.613 . S
N481 C484 1.350 . S
N482 S480 1.610 . S
N482 C483 1.351 . S
C483 C477 1.428 . S
C483 N482 1.351 . S
C483 C484 1.434 . S
C484 C475 1.429 . S
C484 N481 1.350 . S
C484 C483 1.434 . S
C485 C486 1.369 . S
C485 C487 1.419 . S
C485 H489 0.930 . S
C486 C485 1.369 . S
C486 C495 1.429 . S
C487 C485 1.419 . S
C487 C488 1.363 . S
C487 H490 0.929 . S
C488 C487 1.363 . S
C488 C494 1.428 . S
H489 C485 0.930 . S
H490 C487 0.929 . S
S491 N492 1.613 . S
S491 N493 1.610 . S
N492 S491 1.613 . S
N492 C495 1.350 . S
N493 S491 1.610 . S
N493 C494 1.351 . S
C494 C488 1.428 . S
C494 N493 1.351 . S
C494 C495 1.434 . S
C495 C486 1.429 . S
C495 N492 1.350 . S
C495 C494 1.434 . S
C496 C497 1.369 . S
C496 C498 1.419 . S
C496 H500 0.930 . S
C497 C496 1.369 . S
C497 C506 1.429 . S
C498 C496 1.419 . S
C498 C499 1.363 . S
C498 H501 0.929 . S
C499 C498 1.363 . S
C499 C505 1.428 . S
H500 C496 0.930 . S
H501 C498 0.929 . S
S502 N503 1.613 . S
S502 N504 1.610 . S
N503 S502 1.613 . S
N503 C506 1.350 . S
N504 S502 1.610 . S
N504 C505 1.351 . S
C505 C499 1.428 . S
C505 N504 1.351 . S
C505 C506 1.434 . S
C506 C497 1.429 . S
C506 N503 1.350 . S
C506 C505 1.434 . S
C507 C508 1.369 . S
C507 C509 1.419 . S
C507 H511 0.930 . S
C508 C507 1.369 . S
C508 C517 1.429 . S
C509 C507 1.419 . S
C509 C510 1.363 . S
C509 H512 0.929 . S
C510 C509 1.363 . S
C510 C516 1.428 . S
H511 C507 0.930 . S
H512 C509 0.929 . S
S513 N514 1.613 . S
S513 N515 1.610 . S
N514 S513 1.613 . S
N514 C517 1.350 . S
N515 S513 1.610 . S
N515 C516 1.351 . S
C516 C510 1.428 . S
C516 N515 1.351 . S
C516 C517 1.434 . S
C517 C508 1.429 . S
C517 N514 1.350 . S
C517 C516 1.434 . S
C518 C519 1.369 . S
C518 C520 1.419 . S
C518 H522 0.930 . S
C519 C518 1.369 . S
C519 C528 1.429 . S
C520 C518 1.419 . S
C520 C521 1.363 . S
C520 H523 0.929 . S
C521 C520 1.363 . S
C521 C527 1.428 . S
H522 C518 0.930 . S
H523 C520 0.929 . S
S524 N525 1.613 . S
S524 N526 1.610 1_554 S
N525 S524 1.613 . S
N525 C528 1.350 1_554 S
N526 S524 1.610 1_556 S
N526 C527 1.351 . S
C527 C521 1.428 . S
C527 N526 1.351 . S
C527 C528 1.434 . S
C528 C519 1.429 . S
C528 N525 1.350 1_556 S
C528 C527 1.434 . S
C529 C530 1.369 . S
C529 C531 1.419 . S
C529 H533 0.930 . S
C530 C529 1.369 . S
C530 C539 1.429 . S
C531 C529 1.419 . S
C531 C532 1.363 . S
C531 H534 0.929 . S
C532 C531 1.363 . S
C532 C538 1.428 . S
H533 C529 0.930 . S
H534 C531 0.929 . S
S535 N536 1.613 . S
S535 N537 1.610 . S
N536 S535 1.613 . S
N536 C539 1.350 . S
N537 S535 1.610 . S
N537 C538 1.351 . S
C538 C532 1.428 . S
C538 N537 1.351 . S
C538 C539 1.434 . S
C539 C530 1.429 . S
C539 N536 1.350 . S
C539 C538 1.434 . S
C277 N2 1.366 . S
C279 N140 1.365 . S
C288 N25 1.366 . S
C290 N163 1.365 . S
C299 N186 1.365 . S
C301 N48 1.363 . S
C310 N71 1.359 . S
C312 N209 1.360 . S
C321 N94 1.355 . S
C323 N232 1.356 . S
C332 N255 1.355 . S
C334 N117 1.356 . S
C343 C191 1.569 . S
C345 C7 1.564 . S
C354 C30 1.569 . S
C356 C214 1.564 . S
C365 C237 1.553 1_556 S
C367 C53 1.567 . S
C376 C260 1.565 . S
C378 C76 1.553 1_554 S
C387 C99 1.571 . S
C389 C145 1.566 . S
C398 C122 1.565 . S
C400 C168 1.569 . S
C409 N265 1.810 . S
C411 N12 1.801 . S
C420 N150 1.808 . S
C422 N35 1.803 . S
C431 N58 1.799 . S
C433 N173 1.808 . S
C442 N196 1.810 . S
C444 N81 1.801 . S
C453 N219 1.806 . S
C455 N104 1.805 . S
C464 N242 1.807 . S
C466 N127 1.804 . S
C475 C16 1.698 . S
C477 C246 1.696 . S
C486 C269 1.696 . S
C488 C39 1.699 . S
C497 C62 1.699 . S
C499 C154 1.696 . S
C508 C85 1.695 . S
C510 C177 1.699 . S
C519 C108 1.695 1_556 S
C521 C200 1.699 . S
C530 C131 1.696 . S
C532 C223 1.698 1_554 S
