# Generated by pormake.
# Topology unh, (4)-cn, num edge types: 1
# Building blocks:
#     Node 0, Type 0, BuildingBlock: KOZSID_clean_sbu_0, # of connection points: 4
#     Node 1, Type 0, BuildingBlock: KOZSID_clean_sbu_0, # of connection points: 4
#     Node 2, Type 0, BuildingBlock: KOZSID_clean_sbu_0, # of connection points: 4
#     Node 3, Type 0, BuildingBlock: KOZSID_clean_sbu_0, # of connection points: 4
#     Node 4, Type 0, BuildingBlock: KOZSID_clean_sbu_0, # of connection points: 4
#     Node 5, Type 0, BuildingBlock: KOZSID_clean_sbu_0, # of connection points: 4
#     Edge 6, Type (0, 0), BuildingBlock: ZUJKAS_clean_linker_0, # of connection points: 2
#     Edge 7, Type (0, 0), BuildingBlock: ZUJKAS_clean_linker_0, # of connection points: 2
#     Edge 8, Type (0, 0), BuildingBlock: ZUJKAS_clean_linker_0, # of connection points: 2
#     Edge 9, Type (0, 0), BuildingBlock: ZUJKAS_clean_linker_0, # of connection points: 2
#     Edge 10, Type (0, 0), BuildingBlock: ZUJKAS_clean_linker_0, # of connection points: 2
#     Edge 11, Type (0, 0), BuildingBlock: ZUJKAS_clean_linker_0, # of connection points: 2
#     Edge 12, Type (0, 0), BuildingBlock: ZUJKAS_clean_linker_0, # of connection points: 2
#     Edge 13, Type (0, 0), BuildingBlock: ZUJKAS_clean_linker_0, # of connection points: 2
#     Edge 14, Type (0, 0), BuildingBlock: ZUJKAS_clean_linker_0, # of connection points: 2
#     Edge 15, Type (0, 0), BuildingBlock: ZUJKAS_clean_linker_0, # of connection points: 2
#     Edge 16, Type (0, 0), BuildingBlock: ZUJKAS_clean_linker_0, # of connection points: 2
#     Edge 17, Type (0, 0), BuildingBlock: ZUJKAS_clean_linker_0, # of connection points: 2
# Relax obj value: 0.012
# Max RMSD: 0.271
# Mean RMSD: 0.251
data_MOF--net-unh--node1-KOZSID_clean_sbu_0--edge1-ZUJKAS_clean_linker_0
_symmetry_space_group_name_H-M    P1
_symmetry_Int_Tables_number       1
_symmetry_cell_setting            triclinic
loop_
_symmetry_equiv_pos_as_xyz
'x, y, z'
_cell_length_a     67.794419
_cell_length_b     72.793607
_cell_length_c     28.343286
_cell_angle_alpha  90.049012
_cell_angle_beta   89.927774
_cell_angle_gamma 120.02916
loop_
_atom_site_label
_atom_site_type_symbol
_atom_site_fract_x
_atom_site_fract_y
_atom_site_fract_z
_atom_type_partial_charge
C0 C 0.21058 0.60775 0.17868 0.0
C1 C 0.2217 0.62529 0.20803 0.0
C2 C 0.21477 0.63927 0.19483 0.0
C3 C 0.19986 0.62955 0.15827 0.0
N4 N 0.19653 0.6101 0.14812 0.0
Co5 Co 0.17772 0.59174 0.09483 0.0
N6 N 0.16266 0.60897 0.08478 0.0
C7 C 0.16989 0.62859 0.10177 0.0
C8 C 0.15607 0.63655 0.0891 0.0
C9 C 0.13913 0.621 0.06219 0.0
C10 C 0.14363 0.60442 0.05985 0.0
N11 N 0.15926 0.57363 0.04121 0.0
C12 C 0.1407 0.57223 0.01977 0.0
C13 C 0.13339 0.55773 0.98283 0.0
C14 C 0.14782 0.54973 0.98129 0.0
C15 C 0.1631 0.55978 0.01707 0.0
N16 N 0.19247 0.57423 0.10466 0.0
C17 C 0.19157 0.55938 0.07489 0.0
C18 C 0.20287 0.54944 0.09113 0.0
C19 C 0.2119 0.55887 0.13345 0.0
C20 C 0.20578 0.57426 0.1404 0.0
N21 N 0.15343 0.57373 0.13947 0.0
C22 C 0.11888 0.54901 0.20495 0.0
C23 C 0.12522 0.53943 0.16952 0.0
C24 C 0.14254 0.55205 0.13724 0.0
C25 C 0.13013 0.57121 0.20624 0.0
C26 C 0.1472 0.58316 0.17354 0.0
N27 N 0.20214 0.61037 0.0509 0.0
C28 C 0.24225 0.6345 0.03911 0.0
C29 C 0.23769 0.64474 1.00247 0.0
C30 C 0.21494 0.63614 0.98798 0.0
C31 C 0.19748 0.61885 1.01232 0.0
C32 C 0.22437 0.61738 0.06241 0.0
H33 H 0.18013 0.61309 1.00135 0.0
H34 H 0.22866 0.61074 0.09166 0.0
H35 H 0.14712 0.54427 0.11059 0.0
H36 H 0.15528 0.60014 0.17591 0.0
C37 C 0.18755 0.63751 0.13483 0.0
C38 C 0.2163 0.59077 0.17672 0.0
C39 C 0.13039 0.58519 0.03139 0.0
C40 C 0.17847 0.55397 0.03398 0.0
H41 H 0.23415 0.62802 0.23502 0.0
H42 H 0.22007 0.6547 0.20996 0.0
H43 H 0.15766 0.65155 0.09948 0.0
H44 H 0.12514 0.62182 0.046 0.0
H45 H 0.11913 0.55338 0.95936 0.0
H46 H 0.14671 0.53742 0.9581 0.0
H47 H 0.20432 0.53682 0.07429 0.0
H48 H 0.22267 0.55549 0.15568 0.0
H49 H 0.11712 0.52232 0.16709 0.0
H50 H 0.1256 0.57946 0.23203 0.0
H51 H 0.25944 0.64039 0.05184 0.0
H52 H 0.21055 0.64306 0.95892 0.0
C53 C 0.61693 0.1904 0.35709 0.0
C54 C 0.60754 0.19967 0.38526 0.0
C55 C 0.58619 0.19314 0.36805 0.0
C56 C 0.58367 0.18019 0.3306 0.0
N57 N 0.60189 0.17773 0.32366 0.0
Co58 Co 0.60546 0.16131 0.27122 0.0
N59 N 0.57245 0.1472 0.25469 0.0
C60 C 0.55764 0.15328 0.26895 0.0
C61 C 0.53587 0.14013 0.25304 0.0
C62 C 0.53704 0.12484 0.22695 0.0
C63 C 0.55958 0.12962 0.22816 0.0
N64 N 0.60906 0.14525 0.21834 0.0
C65 C 0.59314 0.12822 0.1941 0.0
C66 C 0.60311 0.12238 0.15867 0.0
C67 C 0.62607 0.13613 0.1612 0.0
C68 C 0.62881 0.1496 0.19767 0.0
N69 N 0.63847 0.1751 0.28773 0.0
C70 C 0.65489 0.17516 0.26069 0.0
C71 C 0.67616 0.18601 0.28035 0.0
C72 C 0.67317 0.19375 0.32201 0.0
C73 C 0.65012 0.18721 0.32544 0.0
N74 N 0.59879 0.13794 0.31489 0.0
C75 C 0.58747 0.10362 0.37606 0.0
C76 C 0.60641 0.11121 0.34594 0.0
C77 C 0.61168 0.12828 0.31542 0.0
C78 C 0.57464 0.11384 0.3753 0.0
C79 C 0.58061 0.13091 0.34489 0.0
N80 N 0.61172 0.18479 0.2279 0.0
C81 C 0.62856 0.22247 0.21592 0.0
C82 C 0.61478 0.21914 0.17649 0.0
C83 C 0.60045 0.19818 0.16144 0.0
C84 C 0.59944 0.18125 0.18721 0.0
C85 C 0.62677 0.20522 0.24087 0.0
H86 H 0.58806 0.16531 0.17515 0.0
H87 H 0.63695 0.20861 0.27192 0.0
H88 H 0.62605 0.13351 0.29201 0.0
H89 H 0.57028 0.13828 0.34556 0.0
C90 C 0.56396 0.16898 0.30338 0.0
C91 C 0.6411 0.19643 0.35948 0.0
C92 C 0.5685 0.11791 0.20188 0.0
C93 C 0.64953 0.1638 0.21852 0.0
H94 H 0.61565 0.21066 0.41413 0.0
H95 H 0.57399 0.19737 0.3812 0.0
H96 H 0.52075 0.14098 0.26116 0.0
H97 H 0.5229 0.11166 0.20927 0.0
H98 H 0.59471 0.10953 0.13358 0.0
H99 H 0.63923 0.13577 0.14023 0.0
H100 H 0.69199 0.18822 0.26593 0.0
H101 H 0.68671 0.20398 0.34584 0.0
H102 H 0.61679 0.10374 0.34521 0.0
H103 H 0.56009 0.1088 0.39842 0.0
H104 H 0.63986 0.23832 0.2291 0.0
H105 H 0.58981 0.19486 0.13054 0.0
C106 C 0.43779 0.6038 0.34405 0.0
C107 C 0.44512 0.62179 0.31635 0.0
C108 C 0.46682 0.636 0.33049 0.0
C109 C 0.47156 0.62598 0.36593 0.0
N110 N 0.4544 0.60611 0.37445 0.0
Co111 Co 0.45389 0.58722 0.42612 0.0
N112 N 0.48728 0.60527 0.43766 0.0
C113 C 0.5007 0.62522 0.42209 0.0
C114 C 0.52307 0.63365 0.43534 0.0
C115 C 0.52377 0.61805 0.4611 0.0
C116 C 0.50171 0.60096 0.4622 0.0
N117 N 0.45323 0.56867 0.47839 0.0
C118 C 0.47052 0.56772 0.49994 0.0
C119 C 0.46244 0.55262 0.53567 0.0
C120 C 0.43927 0.54374 0.53625 0.0
C121 C 0.43453 0.5539 0.50116 0.0
N122 N 0.42054 0.56879 0.41445 0.0
C123 C 0.40561 0.553 0.44261 0.0
C124 C 0.38381 0.54266 0.42538 0.0
C125 C 0.38483 0.55282 0.38416 0.0
C126 C 0.40728 0.569 0.37884 0.0
N127 N 0.46031 0.57058 0.38029 0.0
C128 C 0.47211 0.54789 0.31659 0.0
C129 C 0.45491 0.53727 0.35046 0.0
C130 C 0.44928 0.54889 0.38193 0.0
C131 C 0.48278 0.57007 0.31486 0.0
C132 C 0.47673 0.581 0.34679 0.0
N133 N 0.448 0.60444 0.4715 0.0
C134 C 0.43098 0.62609 0.48632 0.0
C135 C 0.44658 0.63685 0.52246 0.0
C136 C 0.46171 0.62985 0.53522 0.0
C137 C 0.46183 0.61334 0.50989 0.0
C138 C 0.432 0.61006 0.46141 0.0
H139 H 0.47394 0.60857 0.51994 0.0
H140 H 0.42064 0.60317 0.43225 0.0
H141 H 0.43624 0.54032 0.40794 0.0
H142 H 0.48566 0.59802 0.34453 0.0
C143 C 0.49233 0.63416 0.38984 0.0
C144 C 0.41405 0.58633 0.3448 0.0
C145 C 0.49475 0.58146 0.48924 0.0
C146 C 0.41291 0.54742 0.48325 0.0
H147 H 0.43548 0.62465 0.28988 0.0
H148 H 0.47777 0.65181 0.31675 0.0
H149 H 0.53731 0.64903 0.4261 0.0
H150 H 0.53876 0.61916 0.47739 0.0
H151 H 0.47223 0.54839 0.55881 0.0
H152 H 0.42728 0.53078 0.55824 0.0
H153 H 0.36892 0.52939 0.44099 0.0
H154 H 0.37047 0.54942 0.36176 0.0
H155 H 0.4462 0.52015 0.35345 0.0
H156 H 0.4958 0.57906 0.28882 0.0
H157 H 0.41893 0.63089 0.47523 0.0
H158 H 0.47375 0.63744 0.56371 0.0
C159 C 0.85403 0.43877 0.68267 0.0
C160 C 0.84384 0.42171 0.71357 0.0
C161 C 0.85058 0.40763 0.69996 0.0
C162 C 0.86458 0.41686 0.66181 0.0
N163 N 0.86749 0.43611 0.65105 0.0
Co164 Co 0.88558 0.4541 0.5968 0.0
N165 N 0.90098 0.43718 0.58665 0.0
C166 C 0.89411 0.4177 0.60402 0.0
C167 C 0.90815 0.40999 0.59122 0.0
C168 C 0.92486 0.42556 0.56387 0.0
C169 C 0.92 0.44192 0.56142 0.0
N170 N 0.90337 0.47185 0.54222 0.0
C171 C 0.92208 0.47357 0.52069 0.0
C172 C 0.92879 0.48763 0.48298 0.0
C173 C 0.91378 0.49498 0.48099 0.0
C174 C 0.89879 0.48501 0.51732 0.0
N175 N 0.87042 0.47126 0.6065 0.0
C176 C 0.87016 0.48511 0.57529 0.0
C177 C 0.85801 0.49438 0.59042 0.0
C178 C 0.84967 0.4856 0.63357 0.0
C179 C 0.85721 0.47132 0.64249 0.0
N180 N 0.9101 0.47271 0.64022 0.0
C181 C 0.94474 0.4982 0.70466 0.0
C182 C 0.93794 0.50737 0.66922 0.0
C183 C 0.92055 0.49435 0.63746 0.0
C184 C 0.93398 0.47603 0.70638 0.0
C185 C 0.91687 0.46371 0.67418 0.0
N186 N 0.86086 0.43488 0.5542 0.0
C187 C 0.82071 0.41045 0.54394 0.0
C188 C 0.8251 0.40028 0.50681 0.0
C189 C 0.84776 0.40896 0.49154 0.0
C190 C 0.86533 0.42635 0.5154 0.0
C191 C 0.83868 0.42768 0.56675 0.0
H192 H 0.88262 0.4322 0.50381 0.0
H193 H 0.8345 0.43429 0.59635 0.0
H194 H 0.91552 0.50176 0.61083 0.0
H195 H 0.90915 0.44677 0.67695 0.0
C196 C 0.8768 0.40887 0.63794 0.0
C197 C 0.84818 0.45571 0.68106 0.0
C198 C 0.93294 0.46115 0.5328 0.0
C199 C 0.88292 0.49027 0.53387 0.0
H200 H 0.83217 0.41939 0.74205 0.0
H201 H 0.84591 0.39253 0.71612 0.0
H202 H 0.90692 0.39518 0.60194 0.0
H203 H 0.93895 0.42493 0.54757 0.0
H204 H 0.94299 0.49207 0.45923 0.0
H205 H 0.91429 0.50679 0.45708 0.0
H206 H 0.85547 0.5061 0.57222 0.0
H207 H 0.83844 0.48876 0.65483 0.0
H208 H 0.9457 0.52444 0.66646 0.0
H209 H 0.9389 0.46812 0.73221 0.0
H210 H 0.80361 0.40447 0.55733 0.0
H211 H 0.85201 0.40206 0.46215 0.0
C212 C 0.44518 0.85532 0.85491 0.0
C213 C 0.45442 0.84568 0.88222 0.0
C214 C 0.4757 0.85213 0.86462 0.0
C215 C 0.47832 0.86539 0.82783 0.0
N216 N 0.46024 0.86816 0.8217 0.0
Co217 Co 0.45675 0.88489 0.76993 0.0
N218 N 0.48969 0.89872 0.75276 0.0
C219 C 0.50438 0.8924 0.76636 0.0
C220 C 0.52602 0.9051 0.74919 0.0
C221 C 0.52491 0.92037 0.72295 0.0
C222 C 0.50257 0.9161 0.72569 0.0
N223 N 0.45319 0.90111 0.71733 0.0
C224 C 0.46914 0.91801 0.69273 0.0
C225 C 0.45911 0.92467 0.65923 0.0
C226 C 0.43611 0.91134 0.66273 0.0
C227 C 0.43337 0.89744 0.69814 0.0
N228 N 0.42387 0.87161 0.78764 0.0
C229 C 0.40749 0.87219 0.76188 0.0
C230 C 0.38639 0.86174 0.78243 0.0
C231 C 0.38942 0.85359 0.82337 0.0
C232 C 0.41233 0.8595 0.82547 0.0
N233 N 0.46403 0.90835 0.81389 0.0
C234 C 0.47609 0.94257 0.8761 0.0
C235 C 0.4578 0.93601 0.84454 0.0
C236 C 0.45205 0.9189 0.81383 0.0
C237 C 0.48788 0.93133 0.87604 0.0
C238 C 0.48169 0.91448 0.84483 0.0
N239 N 0.44992 0.86125 0.72643 0.0
C240 C 0.43267 0.82345 0.71603 0.0
C241 C 0.44795 0.82625 0.67973 0.0
C242 C 0.46254 0.84704 0.66376 0.0
C243 C 0.46297 0.86428 0.6871 0.0
C244 C 0.43402 0.84099 0.73884 0.0
H245 H 0.47478 0.88007 0.6748 0.0
H246 H 0.42285 0.83788 0.76813 0.0
H247 H 0.43806 0.91435 0.78981 0.0
H248 H 0.49142 0.90652 0.84575 0.0
C249 C 0.49799 0.87655 0.80041 0.0
C250 C 0.42112 0.84957 0.85799 0.0
C251 C 0.49381 0.92778 0.69917 0.0
C252 C 0.41275 0.88368 0.71997 0.0
H253 H 0.44625 0.8345 0.91076 0.0
H254 H 0.48776 0.84761 0.87705 0.0
H255 H 0.54099 0.90383 0.7561 0.0
H256 H 0.53884 0.93308 0.70369 0.0
H257 H 0.46747 0.93792 0.63515 0.0
H258 H 0.42293 0.9124 0.64346 0.0
H259 H 0.37061 0.86004 0.76904 0.0
H260 H 0.37597 0.84348 0.84753 0.0
H261 H 0.44821 0.94423 0.84288 0.0
H262 H 0.50181 0.93537 0.90025 0.0
H263 H 0.42023 0.80776 0.72827 0.0
H264 H 0.4744 0.85014 0.63516 0.0
C265 C 0.62443 0.44217 0.83896 0.0
C266 C 0.61651 0.42465 0.80944 0.0
C267 C 0.59491 0.41039 0.82414 0.0
C268 C 0.59077 0.41998 0.86149 0.0
N269 N 0.60821 0.43962 0.8707 0.0
Co270 Co 0.60927 0.45826 0.92344 0.0
N271 N 0.57587 0.44053 0.93547 0.0
C272 C 0.56216 0.42071 0.91943 0.0
C273 C 0.53983 0.41258 0.93272 0.0
C274 C 0.53947 0.42823 0.95902 0.0
C275 C 0.5617 0.44504 0.96049 0.0
N276 N 0.61039 0.47659 0.97666 0.0
C277 C 0.59334 0.47779 0.99879 0.0
C278 C 0.60172 0.49239 0.03555 0.0
C279 C 0.62481 0.50069 0.03614 0.0
C280 C 0.62921 0.49069 1.00007 0.0
N281 N 0.64266 0.4763 0.91158 0.0
C282 C 0.65782 0.49123 0.94106 0.0
C283 C 0.67975 0.50098 0.92468 0.0
C284 C 0.67856 0.49137 0.88258 0.0
C285 C 0.6558 0.47613 0.87554 0.0
N286 N 0.60318 0.47547 0.87877 0.0
C287 C 0.59354 0.49901 0.81332 0.0
C288 C 0.6104 0.50923 0.84799 0.0
C289 C 0.61502 0.49718 0.88023 0.0
C290 C 0.58154 0.4768 0.81278 0.0
C291 C 0.58657 0.46544 0.8455 0.0
N292 N 0.61494 0.44049 0.96747 0.0
C293 C 0.63161 0.41845 0.98075 0.0
C294 C 0.61678 0.4083 0.01851 0.0
C295 C 0.60207 0.41567 0.03231 0.0
C296 C 0.60165 0.43197 1.00674 0.0
C297 C 0.63044 0.43441 0.95595 0.0
H298 H 0.58983 0.437 0.01759 0.0
H299 H 0.6414 0.44096 0.92593 0.0
H300 H 0.62815 0.50541 0.90626 0.0
H301 H 0.5768 0.44843 0.84379 0.0
C302 C 0.57015 0.41182 0.88605 0.0
C303 C 0.64832 0.45945 0.83937 0.0
C304 C 0.56904 0.46452 0.98805 0.0
C305 C 0.65073 0.49663 0.98232 0.0
H306 H 0.62571 0.42217 0.78125 0.0
H307 H 0.58358 0.39491 0.80927 0.0
H308 H 0.52538 0.39744 0.92292 0.0
H309 H 0.52456 0.42735 0.9752 0.0
H310 H 0.59218 0.49658 0.05959 0.0
H311 H 0.63699 0.51312 0.05897 0.0
H312 H 0.69485 0.51349 0.94149 0.0
H313 H 0.69307 0.49461 0.86091 0.0
H314 H 0.62018 0.52639 0.8498 0.0
H315 H 0.56802 0.46809 0.78754 0.0
H316 H 0.64326 0.41335 0.96858 0.0
H317 H 0.59063 0.40861 0.06197 0.0
H318 H 0.0864 0.55385 0.04345 0.0
H319 H 0.05445 0.54351 0.98864 0.0
H320 H 0.09719 0.59727 0.90054 0.0
H321 H 0.12915 0.6075 0.95524 0.0
H322 H 0.03226 0.56567 0.95045 0.0
H323 H 0.07669 0.54499 0.81339 0.0
H324 H 0.08549 0.54918 0.87439 0.0
H325 H 0.09243 0.57145 0.83677 0.0
C326 C 0.0887 0.56374 1.01304 0.0
C327 C 0.11004 0.58164 1.00385 0.0
C328 C 0.07052 0.55778 0.98163 0.0
C329 C 0.07348 0.56945 0.94014 0.0
C330 C 0.09456 0.58789 0.93203 0.0
H331 H 0.98531 0.53536 0.68994 0.0
H332 H 1.01617 0.5549 0.74682 0.0
C333 C 0.11271 0.59388 0.96351 0.0
C334 C 0.05496 0.56158 0.90422 0.0
H335 H 0.04093 0.54062 0.79309 0.0
C336 C 0.03418 0.56028 0.91596 0.0
C337 C 0.05747 0.55458 0.85914 0.0
C338 C 0.07912 0.55491 0.84505 0.0
C339 C 1.01586 0.55219 0.8839 0.0
C340 C 1.01815 0.54469 0.83919 0.0
C341 C 0.03912 0.54639 0.82719 0.0
C342 C 0.99872 0.53392 0.80545 0.0
C343 C 0.99429 0.55195 0.89816 0.0
C344 C 0.97855 0.51564 0.81927 0.0
C345 C 0.96087 0.50457 0.78699 0.0
C346 C 0.96294 0.51129 0.73972 0.0
C347 C 0.98299 0.52983 0.72607 0.0
C348 C 1.00073 0.54094 0.75852 0.0
H349 H 0.99772 0.56428 0.92516 0.0
H350 H 0.98592 0.5546 0.86735 0.0
H351 H 0.98225 0.53629 0.91381 0.0
H352 H 0.97668 0.50956 0.85484 0.0
H353 H 0.94562 0.49053 0.79905 0.0
H354 H 0.51941 0.97267 0.902 0.0
H355 H 0.53106 1.00138 0.95887 0.0
H356 H 0.46086 0.98418 0.97949 0.0
H357 H 0.44889 0.95461 0.92415 0.0
H358 H 0.52672 0.03575 0.95892 0.0
H359 H 0.48105 0.98623 0.11423 0.0
H360 H 0.48419 0.97501 0.05991 0.0
H361 H 0.4629 0.98276 0.06494 0.0
C362 C 0.50633 0.97471 0.91906 0.0
C363 C 0.48313 0.96099 0.90881 0.0
C364 C 0.51308 0.99132 0.95138 0.0
C365 C 0.49686 0.99479 0.97434 0.0
C366 C 0.47371 0.98157 0.96322 0.0
H367 H 0.54179 0.11469 0.12642 0.0
H368 H 0.52187 0.08447 0.07251 0.0
C369 C 0.4669 0.96481 0.93097 0.0
C370 C 0.50447 1.01243 1.00929 0.0
H371 H 0.49977 0.02348 0.1248 0.0
C372 C 0.52074 0.03306 0.99514 0.0
C373 C 0.49696 1.00893 0.05684 0.0
C374 C 0.48048 0.98702 0.07514 0.0
C375 C 0.52979 0.05017 0.02701 0.0
C376 C 0.52193 0.04677 0.0743 0.0
C377 C 0.50559 0.02616 0.08848 0.0
C378 C 0.53141 0.06418 0.11003 0.0
C379 C 0.54835 0.07157 1.01002 0.0
C380 C 0.54235 0.0625 0.15055 0.0
C381 C 0.55325 0.07958 0.18194 0.0
C382 C 0.55331 0.09862 0.1736 0.0
C383 C 0.54161 0.10003 0.13413 0.0
C384 C 0.53055 0.08289 0.10294 0.0
H385 H 0.55655 0.07024 0.97724 0.0
H386 H 0.54086 0.08173 1.00216 0.0
H387 H 0.56171 0.07962 0.03734 0.0
H388 H 0.54325 0.04827 0.15692 0.0
H389 H 0.56246 0.07826 0.21174 0.0
H390 H 0.51536 0.55967 0.2871 0.0
H391 H 0.52725 0.54218 0.22968 0.0
H392 H 0.45766 0.49169 0.21508 0.0
H393 H 0.44541 0.50963 0.27131 0.0
H394 H 0.52447 0.50404 0.23097 0.0
H395 H 0.47552 0.50807 0.07837 0.0
H396 H 0.47912 0.52266 0.13222 0.0
H397 H 0.45851 0.49482 0.12925 0.0
C398 C 0.50246 0.54499 0.2713 0.0
C399 C 0.47932 0.53628 0.2835 0.0
C400 C 0.50935 0.53489 0.23865 0.0
C401 C 0.49335 0.51578 0.21722 0.0
C402 C 0.4703 0.50666 0.23022 0.0
H403 H 0.54176 0.44121 0.06144 0.0
H404 H 0.52056 0.45133 0.11572 0.0
C405 C 0.46335 0.51682 0.26291 0.0
C406 C 0.50112 0.50551 0.18184 0.0
H407 H 0.49592 0.48994 0.06634 0.0
C408 C 0.51812 0.50086 0.19505 0.0
C409 C 0.49309 0.50159 0.13469 0.0
C410 C 0.47571 0.5072 0.11749 0.0
C411 C 0.52743 0.49263 0.16258 0.0
C412 C 0.51915 0.48839 0.11562 0.0
C413 C 0.50206 0.49292 0.10241 0.0
C414 C 0.52907 0.4805 0.07922 0.0
C415 C 0.54669 0.48935 0.17851 0.0
C416 C 0.53983 0.49285 0.0391 0.0
C417 C 0.55152 0.48683 1.00757 0.0
C418 C 0.55253 0.46826 0.01534 0.0
C419 C 0.54085 0.45537 0.05417 0.0
C420 C 0.52905 0.46133 0.08556 0.0
H421 H 0.55476 0.49826 0.2114 0.0
H422 H 0.53995 0.47225 0.18569 0.0
H423 H 0.56 0.49442 0.1508 0.0
H424 H 0.54009 0.50768 0.03334 0.0
H425 H 0.56072 0.49719 0.97833 0.0
H426 H 0.97655 0.49326 0.54465 0.0
H427 H 1.00871 0.50416 0.48996 0.0
H428 H 0.96716 0.44977 0.40251 0.0
H429 H 0.935 0.43896 0.45712 0.0
H430 H 0.03183 0.48249 0.45219 0.0
H431 H 0.98656 0.5019 0.31493 0.0
H432 H 0.97781 0.49778 0.37601 0.0
H433 H 0.97122 0.47548 0.33872 0.0
C434 C 0.97457 0.48336 0.51443 0.0
C435 C 0.95351 0.46511 0.50541 0.0
C436 C 0.99286 0.48963 0.48309 0.0
C437 C 0.99028 0.47793 0.44182 0.0
C438 C 0.96949 0.45916 0.43386 0.0
H439 H 0.07812 0.51194 0.19117 0.0
H440 H 0.04742 0.4927 0.24853 0.0
C441 C 0.95124 0.45285 0.46529 0.0
C442 C 1.00885 0.48606 0.40592 0.0
H443 H 1.02258 0.50683 0.29461 0.0
C444 C 1.0298 0.48774 0.41766 0.0
C445 C 1.00619 0.49289 0.3608 0.0
C446 C 0.98433 0.49213 0.34674 0.0
C447 C 0.04812 0.49598 0.3855 0.0
C448 C 0.04565 0.50326 0.34071 0.0
C449 C 1.02453 0.50124 0.32877 0.0
C450 C 0.06498 0.51399 0.30663 0.0
C451 C 0.06985 0.49655 0.39972 0.0
C452 C 0.08516 0.53236 0.31996 0.0
C453 C 0.10279 0.54326 0.2874 0.0
C454 C 0.10065 0.53627 0.24031 0.0
C455 C 0.08053 0.51768 0.22714 0.0
C456 C 0.06287 0.50673 0.25988 0.0
H457 H 0.06663 0.48439 0.42696 0.0
H458 H 0.07827 0.49389 0.36895 0.0
H459 H 0.08176 0.51232 0.41504 0.0
H460 H 0.08711 0.53862 0.35538 0.0
H461 H 0.11808 0.55734 0.29914 0.0
H462 H 0.61478 0.09563 0.43421 0.0
H463 H 0.60285 0.06652 0.491 0.0
H464 H 0.53308 0.04066 0.44647 0.0
H465 H 0.54484 0.06987 0.39068 0.0
H466 H 0.53556 0.04193 0.53944 0.0
H467 H 0.58491 1.00539 0.47274 0.0
H468 H 0.60228 0.03299 0.48703 0.0
H469 H 0.582 0.02505 0.43963 0.0
C470 C 0.59695 0.08356 0.43612 0.0
C471 C 0.58076 0.08512 0.408 0.0
C472 C 0.59013 0.06685 0.46852 0.0
C473 C 0.56704 0.05115 0.47285 0.0
C474 C 0.55097 0.05253 0.44405 0.0
H475 H 0.50341 0.92773 0.60596 0.0
H476 H 0.52322 0.95852 0.55352 0.0
C477 C 0.55772 0.06928 0.41214 0.0
C478 C 0.55924 0.03381 0.50865 0.0
H479 H 0.56543 0.99219 0.54536 0.0
C480 C 0.54214 0.03108 0.5407 0.0
C481 C 0.56761 1.01946 0.51021 0.0
C482 C 0.58505 1.02068 0.4753 0.0
C483 C 0.53304 1.01443 0.57372 0.0
C484 C 0.54174 1.00034 0.576 0.0
C485 C 0.55895 1.00311 0.54416 0.0
C486 C 0.5321 0.98184 0.60898 0.0
C487 C 0.51353 1.01163 0.60451 0.0
C488 C 0.5312 0.98458 0.65797 0.0
C489 C 0.5197 0.96696 0.68783 0.0
C490 C 0.50925 0.94633 0.66931 0.0
C491 C 0.51141 0.94354 0.62092 0.0
C492 C 0.52269 0.96112 0.59103 0.0
H493 H 0.50502 1.02004 0.58988 0.0
H494 H 0.50059 0.99459 0.60863 0.0
H495 H 0.52015 1.01832 0.63999 0.0
H496 H 0.53885 1.00036 0.67296 0.0
H497 H 0.51825 0.96943 0.72508 0.0
H498 H 0.59016 0.53489 0.82681 0.0
H499 H 0.57733 0.55208 0.76972 0.0
H500 H 0.57148 0.50745 0.66295 0.0
H501 H 0.58445 0.49039 0.71926 0.0
H502 H 0.59394 0.57027 0.67624 0.0
H503 H 0.50686 0.50001 0.67111 0.0
H504 H 0.52708 0.50391 0.71692 0.0
H505 H 0.5293 0.49425 0.65992 0.0
C506 C 0.58648 0.52894 0.79099 0.0
C507 C 0.58803 0.51102 0.77793 0.0
C508 C 0.57906 0.53874 0.75843 0.0
C509 C 0.57301 0.5308 0.71228 0.0
C510 C 0.57557 0.51358 0.69861 0.0
H511 H 0.50649 0.55138 0.47304 0.0
H512 H 0.52792 0.54086 0.52554 0.0
C513 C 0.58296 0.50381 0.73097 0.0
C514 C 0.56321 0.53986 0.6787 0.0
H515 H 0.51524 0.52695 0.61489 0.0
C516 C 0.5767 0.56086 0.66295 0.0
C517 C 0.54071 0.52759 0.66137 0.0
C518 C 0.52502 0.50525 0.67843 0.0
C519 C 0.56849 0.5697 0.62938 0.0
C520 C 0.54603 0.55733 0.61172 0.0
C521 C 0.53251 0.53641 0.62798 0.0
C522 C 0.53589 0.56565 0.57691 0.0
C523 C 0.58416 0.592 0.61221 0.0
C524 C 0.53353 0.58332 0.58767 0.0
C525 C 0.52151 0.58945 0.55737 0.0
C526 C 0.51157 0.57799 0.51582 0.0
C527 C 0.51445 0.56072 0.50435 0.0
C528 C 0.52652 0.55463 0.53453 0.0
H529 H 0.60234 0.59698 0.61843 0.0
H530 H 0.58169 0.59349 0.57398 0.0
H531 H 0.58036 0.6031 0.63171 0.0
H532 H 0.54001 0.59176 0.62061 0.0
H533 H 0.51892 0.60244 0.56758 0.0
H534 H 0.22508 0.58412 0.26773 0.0
H535 H 0.26044 0.58679 0.29829 0.0
H536 H 0.2915 0.60713 0.16109 0.0
H537 H 0.25667 0.60507 0.13133 0.0
H538 H 0.28027 0.56459 0.27064 0.0
H539 H 0.34183 0.64978 0.24243 0.0
H540 H 0.31143 0.63908 0.23903 0.0
H541 H 0.32684 0.63703 0.18938 0.0
C542 C 0.2397 0.58962 0.24465 0.0
C543 C 0.23828 0.59457 0.19741 0.0
C544 C 0.25983 0.59104 0.26192 0.0
C545 C 0.27886 0.59748 0.23223 0.0
C546 C 0.27742 0.6027 0.18516 0.0
H547 H 0.39939 0.58316 0.2532 0.0
H548 H 0.36702 0.58663 0.2245 0.0
C549 C 0.25744 0.60142 0.16807 0.0
C550 C 0.29962 0.59733 0.24919 0.0
H551 H 0.35778 0.62737 0.25618 0.0
C552 C 0.29716 0.57839 0.26777 0.0
C553 C 0.32179 0.61532 0.24553 0.0
C554 C 0.32564 0.6365 0.22846 0.0
C555 C 0.31618 0.57686 0.28183 0.0
C556 C 0.33825 0.59465 0.27709 0.0
C557 C 0.34081 0.61366 0.25906 0.0
C558 C 0.3587 0.59395 0.29313 0.0
C559 C 0.3127 0.55622 0.30165 0.0
C560 C 0.36486 0.59723 0.34086 0.0
C561 C 0.38322 0.59535 0.35706 0.0
C562 C 0.39579 0.59008 0.32587 0.0
C563 C 0.38999 0.58728 0.27781 0.0
C564 C 0.37155 0.58923 0.26151 0.0
H565 H 0.29458 0.54339 0.3002 0.0
H566 H 0.32323 0.55107 0.28179 0.0
H567 H 0.31842 0.55859 0.33897 0.0
H568 H 0.35515 0.60086 0.36577 0.0
H569 H 0.38725 0.59751 0.3943 0.0
H570 H 0.66955 0.20445 0.43515 0.0
H571 H 0.70032 0.23926 0.4622 0.0
H572 H 0.68097 0.27013 0.35719 0.0
H573 H 0.65039 0.23557 0.33041 0.0
H574 H 0.72823 0.28241 0.35669 0.0
H575 H 0.69755 0.28764 0.5355 0.0
H576 H 0.69767 0.26351 0.52236 0.0
H577 H 0.67883 0.26973 0.49074 0.0
C578 C 0.67166 0.21874 0.41866 0.0
C579 C 0.65763 0.21736 0.38081 0.0
C580 C 0.6892 0.23858 0.43401 0.0
C581 C 0.69291 0.25732 0.41177 0.0
C582 C 0.67845 0.25591 0.37485 0.0
H583 H 0.78051 0.38933 0.49022 0.0
H584 H 0.74898 0.35476 0.46632 0.0
C585 C 0.66093 0.23616 0.35968 0.0
C586 C 0.71257 0.27834 0.42491 0.0
H587 H 0.73448 0.31487 0.5139 0.0
C588 C 0.72962 0.28951 0.39109 0.0
C589 C 0.71425 0.28765 0.46962 0.0
C590 C 0.69606 0.27666 0.50667 0.0
C591 C 0.74839 0.30965 0.4009 0.0
C592 C 0.75024 0.31884 0.44583 0.0
C593 C 0.73309 0.30775 0.47954 0.0
C594 C 0.76971 0.34007 0.45837 0.0
C595 C 0.76589 0.32112 0.36284 0.0
C596 C 0.79193 0.34338 0.46153 0.0
C597 C 0.81003 0.36313 0.47558 0.0
C598 C 0.8063 0.38 0.48687 0.0
C599 C 0.78405 0.37669 0.48251 0.0
C600 C 0.76597 0.35693 0.46871 0.0
H601 H 0.75956 0.31403 0.32747 0.0
H602 H 0.77083 0.33815 0.36169 0.0
H603 H 0.7814 0.3202 0.37068 0.0
H604 H 0.79518 0.33052 0.45433 0.0
H605 H 0.82678 0.36488 0.47931 0.0
H606 H 0.4425 0.79178 0.72945 0.0
H607 H 0.44399 0.76107 0.70084 0.0
H608 H 0.45988 0.78795 0.56101 0.0
H609 H 0.457 0.81844 0.58886 0.0
H610 H 0.42914 0.74675 0.55717 0.0
H611 H 0.49911 0.75657 0.67322 0.0
H612 H 0.47603 0.7551 0.70708 0.0
H613 H 0.49152 0.77691 0.66692 0.0
C614 C 0.44598 0.79116 0.69237 0.0
C615 C 0.44941 0.80767 0.66145 0.0
C616 C 0.44727 0.77367 0.67624 0.0
C617 C 0.45257 0.77233 0.62899 0.0
C618 C 0.45597 0.78869 0.59779 0.0
H619 H 0.4848 0.67535 0.53667 0.0
H620 H 0.48687 0.70857 0.56097 0.0
C621 C 0.45447 0.80621 0.61385 0.0
C622 C 0.4537 0.75345 0.61222 0.0
H623 H 0.4766 0.72214 0.63801 0.0
C624 C 0.4397 0.7415 0.57455 0.0
C625 C 0.46778 0.74672 0.6342 0.0
C626 C 0.48463 0.75965 0.67223 0.0
C627 C 0.43881 0.72269 0.55939 0.0
C628 C 0.45173 0.7152 0.58351 0.0
C629 C 0.46633 0.72757 0.62005 0.0
C630 C 0.45051 0.69473 0.5711 0.0
C631 C 0.42425 0.71124 0.51718 0.0
C632 C 0.42949 0.67568 0.57024 0.0
C633 C 0.42827 0.65671 0.55604 0.0
C634 C 0.4481 0.65628 0.54339 0.0
C635 C 0.46925 0.67513 0.54662 0.0
C636 C 0.47043 0.69416 0.56023 0.0
H637 H 0.42159 0.72218 0.49421 0.0
H638 H 0.43204 0.70376 0.4957 0.0
H639 H 0.40726 0.69864 0.52947 0.0
H640 H 0.41396 0.67549 0.58004 0.0
H641 H 0.41176 0.6424 0.55442 0.0
H642 H 0.65813 0.42839 0.86054 0.0
H643 H 0.69061 0.42522 0.83356 0.0
H644 H 0.71227 0.48011 0.74461 0.0
H645 H 0.67904 0.48266 0.77009 0.0
H646 H 0.71915 0.45158 0.70114 0.0
H647 H 0.75385 0.46215 0.88207 0.0
H648 H 0.72579 0.43953 0.87736 0.0
H649 H 0.73007 0.46575 0.86798 0.0
C650 C 0.66958 0.43949 0.83447 0.0
C651 C 0.66614 0.4558 0.81738 0.0
C652 C 0.68835 0.43788 0.81961 0.0
C653 C 0.70438 0.45283 0.78816 0.0
C654 C 0.70031 0.4685 0.76926 0.0
H655 H 0.84433 0.48062 0.74873 0.0
H656 H 0.80915 0.47924 0.77578 0.0
C657 C 0.68132 0.46993 0.78363 0.0
C658 C 0.72555 0.45237 0.77567 0.0
H659 H 0.77195 0.45239 0.82323 0.0
C660 C 0.7307 0.45179 0.72787 0.0
C661 C 0.74096 0.45309 0.81043 0.0
C662 C 0.73755 0.45539 0.86228 0.0
C663 C 0.75054 0.45164 0.7139 0.0
C664 C 0.76541 0.45136 0.74872 0.0
C665 C 0.76043 0.45224 0.7965 0.0
C666 C 0.78658 0.45093 0.73617 0.0
C667 C 0.75567 0.45244 0.66185 0.0
C668 C 0.78566 0.43499 0.70665 0.0
C669 C 0.80572 0.43591 0.69094 0.0
C670 C 0.8271 0.45251 0.70531 0.0
C671 C 0.82803 0.46761 0.73744 0.0
C672 C 0.80794 0.46686 0.75266 0.0
H673 H 0.74666 0.45896 0.64115 0.0
H674 H 0.77423 0.4623 0.65485 0.0
H675 H 0.74981 0.43612 0.6489 0.0
H676 H 0.76943 0.42215 0.69459 0.0
H677 H 0.80455 0.42412 0.66599 0.0
H678 H 0.39276 0.84087 0.93427 0.0
H679 H 0.36206 0.80583 0.96036 0.0
H680 H 0.38095 0.77588 0.852 0.0
H681 H 0.41147 0.81067 0.82616 0.0
H682 H 0.3337 0.76335 0.85346 0.0
H683 H 0.36542 0.75711 0.03011 0.0
H684 H 0.36503 0.78123 0.01875 0.0
H685 H 0.38382 0.77543 0.98555 0.0
C686 C 0.39053 0.82673 0.91674 0.0
C687 C 0.40442 0.82843 0.87825 0.0
C688 C 0.37304 0.80675 0.93158 0.0
C689 C 0.36924 0.78821 0.90818 0.0
C690 C 0.38353 0.78994 0.87053 0.0
H691 H 0.28219 0.65572 0.98432 0.0
H692 H 0.31361 0.69039 0.96045 0.0
C693 C 0.401 0.80982 0.85587 0.0
C694 C 0.34972 0.76707 0.92106 0.0
H695 H 0.32836 0.72999 1.009 0.0
C696 C 0.33251 0.75606 0.88749 0.0
C697 C 0.3483 0.75749 0.96528 0.0
C698 C 0.36667 0.76828 1.00201 0.0
C699 C 0.31384 0.73583 0.89709 0.0
C700 C 0.31224 0.72638 0.94156 0.0
C701 C 0.32955 0.7373 0.975 0.0
C702 C 0.29283 0.70509 0.95395 0.0
C703 C 0.29617 0.72455 0.85927 0.0
C704 C 0.27062 0.70174 0.95792 0.0
C705 C 0.2526 0.68196 0.97194 0.0
C706 C 0.25638 0.66505 0.9824 0.0
C707 C 0.27862 0.66838 0.97723 0.0
C708 C 0.29663 0.68819 0.96345 0.0
H709 H 0.30237 0.73179 0.82396 0.0
H710 H 0.29118 0.70752 0.85753 0.0
H711 H 0.28072 0.72548 0.86783 0.0
H712 H 0.26733 0.71463 0.95141 0.0
H713 H 0.23587 0.68019 0.97633 0.0
H714 H 0.65239 0.40239 0.04269 0.0
H715 H 0.65053 0.36958 0.06935 0.0
H716 H 0.57718 0.33822 0.071 0.0
H717 H 0.57886 0.37088 0.04342 0.0
H718 H 0.62985 0.34404 0.15076 0.0
H719 H 0.59103 0.30022 0.98452 0.0
H720 H 0.60423 0.32871 0.98888 0.0
H721 H 0.57624 0.31198 1.0127 0.0
C722 C 0.63585 0.38853 0.04884 0.0
C723 C 0.61577 0.38925 0.04059 0.0
C724 C 0.63482 0.36981 0.0642 0.0
C725 C 0.61372 0.35134 0.0713 0.0
C726 C 0.59365 0.35218 0.06493 0.0
H727 H 0.57772 0.22192 0.14815 0.0
H728 H 0.5771 0.25369 0.1217 0.0
C729 C 0.59465 0.37095 0.04974 0.0
C730 C 0.61284 0.33118 0.08476 0.0
H731 H 0.59612 0.281 0.0458 0.0
C732 C 0.62248 0.33026 0.12783 0.0
C733 C 0.60316 0.31319 0.05484 0.0
C734 C 0.59322 0.3135 1.00745 0.0
C735 C 0.62255 0.31178 0.14201 0.0
C736 C 0.61322 0.29388 0.11175 0.0
C737 C 0.60334 0.29473 0.06889 0.0
C738 C 0.6137 0.27421 0.124 0.0
C739 C 0.63226 0.31151 0.18973 0.0
C740 C 0.6345 0.27494 0.13224 0.0
C741 C 0.6349 0.25683 0.14726 0.0
C742 C 0.6145 0.23749 0.15389 0.0
C743 C 0.59373 0.2365 0.14308 0.0
C744 C 0.59335 0.25469 0.12826 0.0
H745 H 0.63264 0.32381 0.21358 0.0
H746 H 0.62221 0.29577 0.20693 0.0
H747 H 0.65002 0.31486 0.18529 0.0
H748 H 0.65046 0.28965 0.12785 0.0
H749 H 0.6512 0.25805 0.15451 0.0
loop_
_geom_bond_atom_site_label_1
_geom_bond_atom_site_label_2
_geom_bond_distance
_geom_bond_site_symmetry_2
_ccdc_geom_bond_type
C0 C1 1.443 . S
C0 N4 1.376 . S
C0 C38 1.389 . S
C1 C0 1.443 . S
C1 C2 1.340 . S
C1 H41 0.951 . S
C2 C1 1.340 . S
C2 C3 1.439 . S
C2 H42 0.950 . S
C3 C2 1.439 . S
C3 N4 1.374 . S
C3 C37 1.395 . S
N4 C0 1.376 . S
N4 C3 1.374 . S
N4 Co5 2.008 . S
Co5 N4 2.008 . S
Co5 N6 1.995 . S
Co5 N11 2.008 . S
Co5 N16 1.995 . S
Co5 N21 2.282 . S
Co5 N27 2.282 . S
N6 Co5 1.995 . S
N6 C7 1.376 . S
N6 C10 1.383 . S
C7 N6 1.376 . S
C7 C8 1.446 . S
C7 C37 1.391 . S
C8 C7 1.446 . S
C8 C9 1.339 . S
C8 H43 0.949 . S
C9 C8 1.339 . S
C9 C10 1.439 . S
C9 H44 0.950 . S
C10 N6 1.383 . S
C10 C9 1.439 . S
C10 C39 1.392 . S
N11 Co5 2.008 . S
N11 C12 1.376 . S
N11 C15 1.374 . S
C12 N11 1.376 . S
C12 C13 1.443 . S
C12 C39 1.389 . S
C13 C12 1.443 . S
C13 C14 1.340 . S
C13 H45 0.951 1_554 S
C14 C13 1.340 . S
C14 C15 1.439 . S
C14 H46 0.950 . S
C15 N11 1.374 . S
C15 C14 1.439 . S
C15 C40 1.395 . S
N16 Co5 1.995 . S
N16 C17 1.376 . S
N16 C20 1.383 . S
C17 N16 1.376 . S
C17 C18 1.446 . S
C17 C40 1.391 . S
C18 C17 1.446 . S
C18 C19 1.339 . S
C18 H47 0.949 . S
C19 C18 1.339 . S
C19 C20 1.439 . S
C19 H48 0.950 . S
C20 N16 1.383 . S
C20 C19 1.439 . S
C20 C38 1.392 . S
N21 Co5 2.282 . S
N21 C24 1.332 . S
N21 C26 1.332 . S
C22 C23 1.386 . S
C22 C25 1.388 . S
C23 C22 1.386 . S
C23 C24 1.382 . S
C23 H49 0.950 . S
C24 N21 1.332 . S
C24 C23 1.382 . S
C24 H35 0.952 . S
C25 C22 1.388 . S
C25 C26 1.382 . S
C25 H50 0.950 . S
C26 N21 1.332 . S
C26 C25 1.382 . S
C26 H36 0.948 . S
N27 Co5 2.282 . S
N27 C31 1.332 . S
N27 C32 1.332 . S
C28 C29 1.388 . S
C28 C32 1.382 . S
C28 H51 0.950 1_554 S
C29 C28 1.388 . S
C29 C30 1.386 . S
C30 C29 1.386 . S
C30 C31 1.382 . S
C30 H52 0.950 . S
C31 N27 1.332 . S
C31 C30 1.382 . S
C31 H33 0.952 . S
C32 N27 1.332 . S
C32 C28 1.382 . S
C32 H34 0.948 . S
H33 C31 0.952 . S
H34 C32 0.948 . S
H35 C24 0.952 . S
H36 C26 0.948 . S
C37 C3 1.395 . S
C37 C7 1.391 . S
C38 C0 1.389 . S
C38 C20 1.392 . S
C39 C10 1.392 . S
C39 C12 1.389 . S
C40 C15 1.395 . S
C40 C17 1.391 . S
H41 C1 0.951 . S
H42 C2 0.950 . S
H43 C8 0.949 . S
H44 C9 0.950 . S
H45 C13 0.951 1_556 S
H46 C14 0.950 . S
H47 C18 0.949 . S
H48 C19 0.950 . S
H49 C23 0.950 . S
H50 C25 0.950 . S
H51 C28 0.950 1_556 S
H52 C30 0.950 . S
C53 C54 1.443 . S
C53 N57 1.376 . S
C53 C91 1.389 . S
C54 C53 1.443 . S
C54 C55 1.340 . S
C54 H94 0.951 . S
C55 C54 1.340 . S
C55 C56 1.439 . S
C55 H95 0.950 . S
C56 C55 1.439 . S
C56 N57 1.374 . S
C56 C90 1.395 . S
N57 C53 1.376 . S
N57 C56 1.374 . S
N57 Co58 2.008 . S
Co58 N57 2.008 . S
Co58 N59 1.995 . S
Co58 N64 2.008 . S
Co58 N69 1.995 . S
Co58 N74 2.282 . S
Co58 N80 2.282 . S
N59 Co58 1.995 . S
N59 C60 1.376 . S
N59 C63 1.383 . S
C60 N59 1.376 . S
C60 C61 1.446 . S
C60 C90 1.391 . S
C61 C60 1.446 . S
C61 C62 1.339 . S
C61 H96 0.949 . S
C62 C61 1.339 . S
C62 C63 1.439 . S
C62 H97 0.950 . S
C63 N59 1.383 . S
C63 C62 1.439 . S
C63 C92 1.392 . S
N64 Co58 2.008 . S
N64 C65 1.376 . S
N64 C68 1.374 . S
C65 N64 1.376 . S
C65 C66 1.443 . S
C65 C92 1.389 . S
C66 C65 1.443 . S
C66 C67 1.340 . S
C66 H98 0.951 . S
C67 C66 1.340 . S
C67 C68 1.439 . S
C67 H99 0.950 . S
C68 N64 1.374 . S
C68 C67 1.439 . S
C68 C93 1.395 . S
N69 Co58 1.995 . S
N69 C70 1.376 . S
N69 C73 1.383 . S
C70 N69 1.376 . S
C70 C71 1.446 . S
C70 C93 1.391 . S
C71 C70 1.446 . S
C71 C72 1.339 . S
C71 H100 0.949 . S
C72 C71 1.339 . S
C72 C73 1.439 . S
C72 H101 0.950 . S
C73 N69 1.383 . S
C73 C72 1.439 . S
C73 C91 1.392 . S
N74 Co58 2.282 . S
N74 C77 1.332 . S
N74 C79 1.332 . S
C75 C76 1.386 . S
C75 C78 1.388 . S
C76 C75 1.386 . S
C76 C77 1.382 . S
C76 H102 0.950 . S
C77 N74 1.332 . S
C77 C76 1.382 . S
C77 H88 0.952 . S
C78 C75 1.388 . S
C78 C79 1.382 . S
C78 H103 0.950 . S
C79 N74 1.332 . S
C79 C78 1.382 . S
C79 H89 0.948 . S
N80 Co58 2.282 . S
N80 C84 1.332 . S
N80 C85 1.332 . S
C81 C82 1.388 . S
C81 C85 1.382 . S
C81 H104 0.950 . S
C82 C81 1.388 . S
C82 C83 1.386 . S
C83 C82 1.386 . S
C83 C84 1.382 . S
C83 H105 0.950 . S
C84 N80 1.332 . S
C84 C83 1.382 . S
C84 H86 0.952 . S
C85 N80 1.332 . S
C85 C81 1.382 . S
C85 H87 0.948 . S
H86 C84 0.952 . S
H87 C85 0.948 . S
H88 C77 0.952 . S
H89 C79 0.948 . S
C90 C56 1.395 . S
C90 C60 1.391 . S
C91 C53 1.389 . S
C91 C73 1.392 . S
C92 C63 1.392 . S
C92 C65 1.389 . S
C93 C68 1.395 . S
C93 C70 1.391 . S
H94 C54 0.951 . S
H95 C55 0.950 . S
H96 C61 0.949 . S
H97 C62 0.950 . S
H98 C66 0.951 . S
H99 C67 0.950 . S
H100 C71 0.949 . S
H101 C72 0.950 . S
H102 C76 0.950 . S
H103 C78 0.950 . S
H104 C81 0.950 . S
H105 C83 0.950 . S
C106 C107 1.443 . S
C106 N110 1.376 . S
C106 C144 1.389 . S
C107 C106 1.443 . S
C107 C108 1.340 . S
C107 H147 0.951 . S
C108 C107 1.340 . S
C108 C109 1.439 . S
C108 H148 0.950 . S
C109 C108 1.439 . S
C109 N110 1.374 . S
C109 C143 1.395 . S
N110 C106 1.376 . S
N110 C109 1.374 . S
N110 Co111 2.008 . S
Co111 N110 2.008 . S
Co111 N112 1.995 . S
Co111 N117 2.008 . S
Co111 N122 1.995 . S
Co111 N127 2.282 . S
Co111 N133 2.282 . S
N112 Co111 1.995 . S
N112 C113 1.376 . S
N112 C116 1.383 . S
C113 N112 1.376 . S
C113 C114 1.446 . S
C113 C143 1.391 . S
C114 C113 1.446 . S
C114 C115 1.339 . S
C114 H149 0.949 . S
C115 C114 1.339 . S
C115 C116 1.439 . S
C115 H150 0.950 . S
C116 N112 1.383 . S
C116 C115 1.439 . S
C116 C145 1.392 . S
N117 Co111 2.008 . S
N117 C118 1.376 . S
N117 C121 1.374 . S
C118 N117 1.376 . S
C118 C119 1.443 . S
C118 C145 1.389 . S
C119 C118 1.443 . S
C119 C120 1.340 . S
C119 H151 0.951 . S
C120 C119 1.340 . S
C120 C121 1.439 . S
C120 H152 0.950 . S
C121 N117 1.374 . S
C121 C120 1.439 . S
C121 C146 1.395 . S
N122 Co111 1.995 . S
N122 C123 1.376 . S
N122 C126 1.383 . S
C123 N122 1.376 . S
C123 C124 1.446 . S
C123 C146 1.391 . S
C124 C123 1.446 . S
C124 C125 1.339 . S
C124 H153 0.949 . S
C125 C124 1.339 . S
C125 C126 1.439 . S
C125 H154 0.950 . S
C126 N122 1.383 . S
C126 C125 1.439 . S
C126 C144 1.392 . S
N127 Co111 2.282 . S
N127 C130 1.332 . S
N127 C132 1.332 . S
C128 C129 1.386 . S
C128 C131 1.388 . S
C129 C128 1.386 . S
C129 C130 1.382 . S
C129 H155 0.950 . S
C130 N127 1.332 . S
C130 C129 1.382 . S
C130 H141 0.952 . S
C131 C128 1.388 . S
C131 C132 1.382 . S
C131 H156 0.950 . S
C132 N127 1.332 . S
C132 C131 1.382 . S
C132 H142 0.948 . S
N133 Co111 2.282 . S
N133 C137 1.332 . S
N133 C138 1.332 . S
C134 C135 1.388 . S
C134 C138 1.382 . S
C134 H157 0.950 . S
C135 C134 1.388 . S
C135 C136 1.386 . S
C136 C135 1.386 . S
C136 C137 1.382 . S
C136 H158 0.950 . S
C137 N133 1.332 . S
C137 C136 1.382 . S
C137 H139 0.952 . S
C138 N133 1.332 . S
C138 C134 1.382 . S
C138 H140 0.948 . S
H139 C137 0.952 . S
H140 C138 0.948 . S
H141 C130 0.952 . S
H142 C132 0.948 . S
C143 C109 1.395 . S
C143 C113 1.391 . S
C144 C106 1.389 . S
C144 C126 1.392 . S
C145 C116 1.392 . S
C145 C118 1.389 . S
C146 C121 1.395 . S
C146 C123 1.391 . S
H147 C107 0.951 . S
H148 C108 0.950 . S
H149 C114 0.949 . S
H150 C115 0.950 . S
H151 C119 0.951 . S
H152 C120 0.950 . S
H153 C124 0.949 . S
H154 C125 0.950 . S
H155 C129 0.950 . S
H156 C131 0.950 . S
H157 C134 0.950 . S
H158 C136 0.950 . S
C159 C160 1.443 . S
C159 N163 1.376 . S
C159 C197 1.389 . S
C160 C159 1.443 . S
C160 C161 1.340 . S
C160 H200 0.951 . S
C161 C160 1.340 . S
C161 C162 1.439 . S
C161 H201 0.950 . S
C162 C161 1.439 . S
C162 N163 1.374 . S
C162 C196 1.395 . S
N163 C159 1.376 . S
N163 C162 1.374 . S
N163 Co164 2.008 . S
Co164 N163 2.008 . S
Co164 N165 1.995 . S
Co164 N170 2.008 . S
Co164 N175 1.995 . S
Co164 N180 2.282 . S
Co164 N186 2.282 . S
N165 Co164 1.995 . S
N165 C166 1.376 . S
N165 C169 1.383 . S
C166 N165 1.376 . S
C166 C167 1.446 . S
C166 C196 1.391 . S
C167 C166 1.446 . S
C167 C168 1.339 . S
C167 H202 0.949 . S
C168 C167 1.339 . S
C168 C169 1.439 . S
C168 H203 0.950 . S
C169 N165 1.383 . S
C169 C168 1.439 . S
C169 C198 1.392 . S
N170 Co164 2.008 . S
N170 C171 1.376 . S
N170 C174 1.374 . S
C171 N170 1.376 . S
C171 C172 1.443 . S
C171 C198 1.389 . S
C172 C171 1.443 . S
C172 C173 1.340 . S
C172 H204 0.951 . S
C173 C172 1.340 . S
C173 C174 1.439 . S
C173 H205 0.950 . S
C174 N170 1.374 . S
C174 C173 1.439 . S
C174 C199 1.395 . S
N175 Co164 1.995 . S
N175 C176 1.376 . S
N175 C179 1.383 . S
C176 N175 1.376 . S
C176 C177 1.446 . S
C176 C199 1.391 . S
C177 C176 1.446 . S
C177 C178 1.339 . S
C177 H206 0.949 . S
C178 C177 1.339 . S
C178 C179 1.439 . S
C178 H207 0.950 . S
C179 N175 1.383 . S
C179 C178 1.439 . S
C179 C197 1.392 . S
N180 Co164 2.282 . S
N180 C183 1.332 . S
N180 C185 1.332 . S
C181 C182 1.386 . S
C181 C184 1.388 . S
C182 C181 1.386 . S
C182 C183 1.382 . S
C182 H208 0.950 . S
C183 N180 1.332 . S
C183 C182 1.382 . S
C183 H194 0.952 . S
C184 C181 1.388 . S
C184 C185 1.382 . S
C184 H209 0.950 . S
C185 N180 1.332 . S
C185 C184 1.382 . S
C185 H195 0.948 . S
N186 Co164 2.282 . S
N186 C190 1.332 . S
N186 C191 1.332 . S
C187 C188 1.388 . S
C187 C191 1.382 . S
C187 H210 0.950 . S
C188 C187 1.388 . S
C188 C189 1.386 . S
C189 C188 1.386 . S
C189 C190 1.382 . S
C189 H211 0.950 . S
C190 N186 1.332 . S
C190 C189 1.382 . S
C190 H192 0.952 . S
C191 N186 1.332 . S
C191 C187 1.382 . S
C191 H193 0.948 . S
H192 C190 0.952 . S
H193 C191 0.948 . S
H194 C183 0.952 . S
H195 C185 0.948 . S
C196 C162 1.395 . S
C196 C166 1.391 . S
C197 C159 1.389 . S
C197 C179 1.392 . S
C198 C169 1.392 . S
C198 C171 1.389 . S
C199 C174 1.395 . S
C199 C176 1.391 . S
H200 C160 0.951 . S
H201 C161 0.950 . S
H202 C167 0.949 . S
H203 C168 0.950 . S
H204 C172 0.951 . S
H205 C173 0.950 . S
H206 C177 0.949 . S
H207 C178 0.950 . S
H208 C182 0.950 . S
H209 C184 0.950 . S
H210 C187 0.950 . S
H211 C189 0.950 . S
C212 C213 1.443 . S
C212 N216 1.376 . S
C212 C250 1.389 . S
C213 C212 1.443 . S
C213 C214 1.340 . S
C213 H253 0.951 . S
C214 C213 1.340 . S
C214 C215 1.439 . S
C214 H254 0.950 . S
C215 C214 1.439 . S
C215 N216 1.374 . S
C215 C249 1.395 . S
N216 C212 1.376 . S
N216 C215 1.374 . S
N216 Co217 2.008 . S
Co217 N216 2.008 . S
Co217 N218 1.995 . S
Co217 N223 2.008 . S
Co217 N228 1.995 . S
Co217 N233 2.282 . S
Co217 N239 2.282 . S
N218 Co217 1.995 . S
N218 C219 1.376 . S
N218 C222 1.383 . S
C219 N218 1.376 . S
C219 C220 1.446 . S
C219 C249 1.391 . S
C220 C219 1.446 . S
C220 C221 1.339 . S
C220 H255 0.949 . S
C221 C220 1.339 . S
C221 C222 1.439 . S
C221 H256 0.950 . S
C222 N218 1.383 . S
C222 C221 1.439 . S
C222 C251 1.392 . S
N223 Co217 2.008 . S
N223 C224 1.376 . S
N223 C227 1.374 . S
C224 N223 1.376 . S
C224 C225 1.443 . S
C224 C251 1.389 . S
C225 C224 1.443 . S
C225 C226 1.340 . S
C225 H257 0.951 . S
C226 C225 1.340 . S
C226 C227 1.439 . S
C226 H258 0.950 . S
C227 N223 1.374 . S
C227 C226 1.439 . S
C227 C252 1.395 . S
N228 Co217 1.995 . S
N228 C229 1.376 . S
N228 C232 1.383 . S
C229 N228 1.376 . S
C229 C230 1.446 . S
C229 C252 1.391 . S
C230 C229 1.446 . S
C230 C231 1.339 . S
C230 H259 0.949 . S
C231 C230 1.339 . S
C231 C232 1.439 . S
C231 H260 0.950 . S
C232 N228 1.383 . S
C232 C231 1.439 . S
C232 C250 1.392 . S
N233 Co217 2.282 . S
N233 C236 1.332 . S
N233 C238 1.332 . S
C234 C235 1.386 . S
C234 C237 1.388 . S
C235 C234 1.386 . S
C235 C236 1.382 . S
C235 H261 0.950 . S
C236 N233 1.332 . S
C236 C235 1.382 . S
C236 H247 0.952 . S
C237 C234 1.388 . S
C237 C238 1.382 . S
C237 H262 0.950 . S
C238 N233 1.332 . S
C238 C237 1.382 . S
C238 H248 0.948 . S
N239 Co217 2.282 . S
N239 C243 1.332 . S
N239 C244 1.332 . S
C240 C241 1.388 . S
C240 C244 1.382 . S
C240 H263 0.950 . S
C241 C240 1.388 . S
C241 C242 1.386 . S
C242 C241 1.386 . S
C242 C243 1.382 . S
C242 H264 0.950 . S
C243 N239 1.332 . S
C243 C242 1.382 . S
C243 H245 0.952 . S
C244 N239 1.332 . S
C244 C240 1.382 . S
C244 H246 0.948 . S
H245 C243 0.952 . S
H246 C244 0.948 . S
H247 C236 0.952 . S
H248 C238 0.948 . S
C249 C215 1.395 . S
C249 C219 1.391 . S
C250 C212 1.389 . S
C250 C232 1.392 . S
C251 C222 1.392 . S
C251 C224 1.389 . S
C252 C227 1.395 . S
C252 C229 1.391 . S
H253 C213 0.951 . S
H254 C214 0.950 . S
H255 C220 0.949 . S
H256 C221 0.950 . S
H257 C225 0.951 . S
H258 C226 0.950 . S
H259 C230 0.949 . S
H260 C231 0.950 . S
H261 C235 0.950 . S
H262 C237 0.950 . S
H263 C240 0.950 . S
H264 C242 0.950 . S
C265 C266 1.443 . S
C265 N269 1.376 . S
C265 C303 1.389 . S
C266 C265 1.443 . S
C266 C267 1.340 . S
C266 H306 0.951 . S
C267 C266 1.340 . S
C267 C268 1.439 . S
C267 H307 0.950 . S
C268 C267 1.439 . S
C268 N269 1.374 . S
C268 C302 1.395 . S
N269 C265 1.376 . S
N269 C268 1.374 . S
N269 Co270 2.008 . S
Co270 N269 2.008 . S
Co270 N271 1.995 . S
Co270 N276 2.008 . S
Co270 N281 1.995 . S
Co270 N286 2.282 . S
Co270 N292 2.282 . S
N271 Co270 1.995 . S
N271 C272 1.376 . S
N271 C275 1.383 . S
C272 N271 1.376 . S
C272 C273 1.446 . S
C272 C302 1.391 . S
C273 C272 1.446 . S
C273 C274 1.339 . S
C273 H308 0.949 . S
C274 C273 1.339 . S
C274 C275 1.439 . S
C274 H309 0.950 . S
C275 N271 1.383 . S
C275 C274 1.439 . S
C275 C304 1.392 . S
N276 Co270 2.008 . S
N276 C277 1.376 . S
N276 C280 1.374 . S
C277 N276 1.376 . S
C277 C278 1.443 . S
C277 C304 1.389 . S
C278 C277 1.443 . S
C278 C279 1.340 . S
C278 H310 0.951 . S
C279 C278 1.340 . S
C279 C280 1.439 . S
C279 H311 0.950 . S
C280 N276 1.374 . S
C280 C279 1.439 . S
C280 C305 1.395 . S
N281 Co270 1.995 . S
N281 C282 1.376 . S
N281 C285 1.383 . S
C282 N281 1.376 . S
C282 C283 1.446 . S
C282 C305 1.391 . S
C283 C282 1.446 . S
C283 C284 1.339 . S
C283 H312 0.949 . S
C284 C283 1.339 . S
C284 C285 1.439 . S
C284 H313 0.950 . S
C285 N281 1.383 . S
C285 C284 1.439 . S
C285 C303 1.392 . S
N286 Co270 2.282 . S
N286 C289 1.332 . S
N286 C291 1.332 . S
C287 C288 1.386 . S
C287 C290 1.388 . S
C288 C287 1.386 . S
C288 C289 1.382 . S
C288 H314 0.950 . S
C289 N286 1.332 . S
C289 C288 1.382 . S
C289 H300 0.952 . S
C290 C287 1.388 . S
C290 C291 1.382 . S
C290 H315 0.950 . S
C291 N286 1.332 . S
C291 C290 1.382 . S
C291 H301 0.948 . S
N292 Co270 2.282 . S
N292 C296 1.332 . S
N292 C297 1.332 . S
C293 C294 1.388 . S
C293 C297 1.382 . S
C293 H316 0.950 . S
C294 C293 1.388 . S
C294 C295 1.386 . S
C295 C294 1.386 . S
C295 C296 1.382 . S
C295 H317 0.950 . S
C296 N292 1.332 . S
C296 C295 1.382 . S
C296 H298 0.952 . S
C297 N292 1.332 . S
C297 C293 1.382 . S
C297 H299 0.948 . S
H298 C296 0.952 . S
H299 C297 0.948 . S
H300 C289 0.952 . S
H301 C291 0.948 . S
C302 C268 1.395 . S
C302 C272 1.391 . S
C303 C265 1.389 . S
C303 C285 1.392 . S
C304 C275 1.392 . S
C304 C277 1.389 . S
C305 C280 1.395 . S
C305 C282 1.391 . S
H306 C266 0.951 . S
H307 C267 0.950 . S
H308 C273 0.949 . S
H309 C274 0.950 . S
H310 C278 0.951 . S
H311 C279 0.950 . S
H312 C283 0.949 . S
H313 C284 0.950 . S
H314 C288 0.950 . S
H315 C290 0.950 . S
H316 C293 0.950 . S
H317 C295 0.950 . S
H318 C326 0.929 . S
H319 C328 0.930 . S
H320 C330 0.930 . S
H321 C333 0.929 . S
H322 C336 0.930 . S
H323 C338 0.960 . S
H324 C338 0.960 . S
H325 C338 0.960 . S
C326 H318 0.929 . S
C326 C327 1.377 1_554 S
C326 C328 1.384 1_554 S
C327 C326 1.377 1_556 S
C327 C333 1.390 . S
C328 H319 0.930 . S
C328 C326 1.384 1_556 S
C328 C329 1.372 . S
C329 C328 1.372 . S
C329 C330 1.400 . S
C329 C334 1.490 . S
C330 H320 0.930 . S
C330 C329 1.400 . S
C330 C333 1.386 . S
H331 C347 0.930 . S
H332 C348 0.931 . S
C333 H321 0.929 . S
C333 C327 1.390 . S
C333 C330 1.386 . S
C334 C329 1.490 . S
C334 C336 1.395 . S
C334 C337 1.403 . S
H335 C341 0.930 . S
C336 H322 0.930 . S
C336 C334 1.395 . S
C336 C339 1.403 1_455 S
C337 C334 1.403 . S
C337 C338 1.524 . S
C337 C341 1.400 . S
C338 H323 0.960 . S
C338 H324 0.960 . S
C338 H325 0.960 . S
C338 C337 1.524 . S
C339 C336 1.403 1_655 S
C339 C340 1.392 . S
C339 C343 1.495 . S
C340 C339 1.392 . S
C340 C341 1.385 1_655 S
C340 C342 1.478 . S
C341 H335 0.930 . S
C341 C337 1.400 . S
C341 C340 1.385 1_455 S
C342 C340 1.478 . S
C342 C344 1.381 . S
C342 C348 1.383 . S
C343 C339 1.495 . S
C343 H349 0.959 . S
C343 H350 0.961 . S
C343 H351 0.960 . S
C344 C342 1.381 . S
C344 C345 1.394 . S
C344 H352 0.930 . S
C345 C344 1.394 . S
C345 C346 1.383 . S
C345 H353 0.929 . S
C346 C345 1.383 . S
C346 C347 1.377 . S
C347 H331 0.930 . S
C347 C346 1.377 . S
C347 C348 1.379 . S
C348 H332 0.931 . S
C348 C342 1.383 . S
C348 C347 1.379 . S
H349 C343 0.959 . S
H350 C343 0.961 . S
H351 C343 0.960 . S
H352 C344 0.930 . S
H353 C345 0.929 . S
H354 C362 0.929 . S
H355 C364 0.930 . S
H356 C366 0.930 . S
H357 C369 0.929 . S
H358 C372 0.930 . S
H359 C374 0.960 . S
H360 C374 0.960 . S
H361 C374 0.960 . S
C362 H354 0.929 . S
C362 C363 1.377 . S
C362 C364 1.384 . S
C363 C362 1.377 . S
C363 C369 1.390 . S
C364 H355 0.930 . S
C364 C362 1.384 . S
C364 C365 1.372 . S
C365 C364 1.372 . S
C365 C366 1.400 . S
C365 C370 1.490 1_556 S
C366 H356 0.930 . S
C366 C365 1.400 . S
C366 C369 1.386 . S
H367 C383 0.930 . S
H368 C384 0.931 . S
C369 H357 0.929 . S
C369 C363 1.390 . S
C369 C366 1.386 . S
C370 C365 1.490 1_554 S
C370 C372 1.395 1_564 S
C370 C373 1.403 . S
H371 C377 0.930 . S
C372 H358 0.930 . S
C372 C370 1.395 1_546 S
C372 C375 1.403 1_556 S
C373 C370 1.403 . S
C373 C374 1.524 . S
C373 C377 1.400 1_565 S
C374 H359 0.960 . S
C374 H360 0.960 . S
C374 H361 0.960 . S
C374 C373 1.524 . S
C375 C372 1.403 1_554 S
C375 C376 1.392 . S
C375 C379 1.495 . S
C376 C375 1.392 . S
C376 C377 1.385 . S
C376 C378 1.478 . S
C377 H371 0.930 . S
C377 C373 1.400 1_545 S
C377 C376 1.385 . S
C378 C376 1.478 . S
C378 C380 1.381 . S
C378 C384 1.383 . S
C379 C375 1.495 . S
C379 H385 0.959 1_554 S
C379 H386 0.961 . S
C379 H387 0.960 . S
C380 C378 1.381 . S
C380 C381 1.394 . S
C380 H388 0.930 . S
C381 C380 1.394 . S
C381 C382 1.383 . S
C381 H389 0.929 . S
C382 C381 1.383 . S
C382 C383 1.377 . S
C383 H367 0.930 . S
C383 C382 1.377 . S
C383 C384 1.379 . S
C384 H368 0.931 . S
C384 C378 1.383 . S
C384 C383 1.379 . S
H385 C379 0.959 1_556 S
H386 C379 0.961 . S
H387 C379 0.960 . S
H388 C380 0.930 . S
H389 C381 0.929 . S
H390 C398 0.929 . S
H391 C400 0.930 . S
H392 C402 0.930 . S
H393 C405 0.929 . S
H394 C408 0.930 . S
H395 C410 0.960 . S
H396 C410 0.960 . S
H397 C410 0.960 . S
C398 H390 0.929 . S
C398 C399 1.377 . S
C398 C400 1.384 . S
C399 C398 1.377 . S
C399 C405 1.390 . S
C400 H391 0.930 . S
C400 C398 1.384 . S
C400 C401 1.372 . S
C401 C400 1.372 . S
C401 C402 1.400 . S
C401 C406 1.490 . S
C402 H392 0.930 . S
C402 C401 1.400 . S
C402 C405 1.386 . S
H403 C419 0.930 1_556 S
H404 C420 0.931 . S
C405 H393 0.929 . S
C405 C399 1.390 . S
C405 C402 1.386 . S
C406 C401 1.490 . S
C406 C408 1.395 . S
C406 C409 1.403 . S
H407 C413 0.930 . S
C408 H394 0.930 . S
C408 C406 1.395 . S
C408 C411 1.403 . S
C409 C406 1.403 . S
C409 C410 1.524 . S
C409 C413 1.400 . S
C410 H395 0.960 . S
C410 H396 0.960 . S
C410 H397 0.960 . S
C410 C409 1.524 . S
C411 C408 1.403 . S
C411 C412 1.392 . S
C411 C415 1.495 . S
C412 C411 1.392 . S
C412 C413 1.385 . S
C412 C414 1.478 . S
C413 H407 0.930 . S
C413 C409 1.400 . S
C413 C412 1.385 . S
C414 C412 1.478 . S
C414 C416 1.381 . S
C414 C420 1.383 . S
C415 C411 1.495 . S
C415 H421 0.959 . S
C415 H422 0.961 . S
C415 H423 0.960 . S
C416 C414 1.381 . S
C416 C417 1.394 . S
C416 H424 0.930 . S
C417 C416 1.394 . S
C417 C418 1.383 1_554 S
C417 H425 0.929 1_554 S
C418 C417 1.383 1_556 S
C418 C419 1.377 1_556 S
C419 H403 0.930 1_554 S
C419 C418 1.377 1_554 S
C419 C420 1.379 . S
C420 H404 0.931 . S
C420 C414 1.383 . S
C420 C419 1.379 . S
H421 C415 0.959 . S
H422 C415 0.961 . S
H423 C415 0.960 . S
H424 C416 0.930 . S
H425 C417 0.929 1_556 S
H426 C434 0.929 . S
H427 C436 0.930 . S
H428 C438 0.930 . S
H429 C441 0.929 . S
H430 C444 0.930 . S
H431 C446 0.960 . S
H432 C446 0.960 . S
H433 C446 0.960 . S
C434 H426 0.929 . S
C434 C435 1.377 . S
C434 C436 1.384 . S
C435 C434 1.377 . S
C435 C441 1.390 . S
C436 H427 0.930 . S
C436 C434 1.384 . S
C436 C437 1.372 . S
C437 C436 1.372 . S
C437 C438 1.400 . S
C437 C442 1.490 . S
C438 H428 0.930 . S
C438 C437 1.400 . S
C438 C441 1.386 . S
H439 C455 0.930 . S
H440 C456 0.931 . S
C441 H429 0.929 . S
C441 C435 1.390 . S
C441 C438 1.386 . S
C442 C437 1.490 . S
C442 C444 1.395 . S
C442 C445 1.403 . S
H443 C449 0.930 . S
C444 H430 0.930 . S
C444 C442 1.395 . S
C444 C447 1.403 1_655 S
C445 C442 1.403 . S
C445 C446 1.524 . S
C445 C449 1.400 . S
C446 H431 0.960 . S
C446 H432 0.960 . S
C446 H433 0.960 . S
C446 C445 1.524 . S
C447 C444 1.403 1_455 S
C447 C448 1.392 . S
C447 C451 1.495 . S
C448 C447 1.392 . S
C448 C449 1.385 1_455 S
C448 C450 1.478 . S
C449 H443 0.930 . S
C449 C445 1.400 . S
C449 C448 1.385 1_655 S
C450 C448 1.478 . S
C450 C452 1.381 . S
C450 C456 1.383 . S
C451 C447 1.495 . S
C451 H457 0.959 . S
C451 H458 0.961 . S
C451 H459 0.960 . S
C452 C450 1.381 . S
C452 C453 1.394 . S
C452 H460 0.930 . S
C453 C452 1.394 . S
C453 C454 1.383 . S
C453 H461 0.929 . S
C454 C453 1.383 . S
C454 C455 1.377 . S
C455 H439 0.930 . S
C455 C454 1.377 . S
C455 C456 1.379 . S
C456 H440 0.931 . S
C456 C450 1.383 . S
C456 C455 1.379 . S
H457 C451 0.959 . S
H458 C451 0.961 . S
H459 C451 0.960 . S
H460 C452 0.930 . S
H461 C453 0.929 . S
H462 C470 0.929 . S
H463 C472 0.930 . S
H464 C474 0.930 . S
H465 C477 0.929 . S
H466 C480 0.930 . S
H467 C482 0.960 . S
H468 C482 0.960 . S
H469 C482 0.960 . S
C470 H462 0.929 . S
C470 C471 1.377 . S
C470 C472 1.384 . S
C471 C470 1.377 . S
C471 C477 1.390 . S
C472 H463 0.930 . S
C472 C470 1.384 . S
C472 C473 1.372 . S
C473 C472 1.372 . S
C473 C474 1.400 . S
C473 C478 1.490 . S
C474 H464 0.930 . S
C474 C473 1.400 . S
C474 C477 1.386 . S
H475 C491 0.930 . S
H476 C492 0.931 . S
C477 H465 0.929 . S
C477 C471 1.390 . S
C477 C474 1.386 . S
C478 C473 1.490 . S
C478 C480 1.395 . S
C478 C481 1.403 1_545 S
H479 C485 0.930 . S
C480 H466 0.930 . S
C480 C478 1.395 . S
C480 C483 1.403 1_545 S
C481 C478 1.403 1_565 S
C481 C482 1.524 . S
C481 C485 1.400 . S
C482 H467 0.960 . S
C482 H468 0.960 . S
C482 H469 0.960 . S
C482 C481 1.524 . S
C483 C480 1.403 1_565 S
C483 C484 1.392 . S
C483 C487 1.495 1_565 S
C484 C483 1.392 . S
C484 C485 1.385 . S
C484 C486 1.478 . S
C485 H479 0.930 . S
C485 C481 1.400 . S
C485 C484 1.385 . S
C486 C484 1.478 . S
C486 C488 1.381 . S
C486 C492 1.383 . S
C487 C483 1.495 1_545 S
C487 H493 0.959 . S
C487 H494 0.961 1_545 S
C487 H495 0.955 1_545 S
C488 C486 1.381 . S
C488 C489 1.394 . S
C488 H496 0.930 . S
C489 C488 1.394 . S
C489 C490 1.383 . S
C489 H497 0.929 . S
C490 C489 1.383 . S
C490 C491 1.377 . S
C491 H475 0.930 . S
C491 C490 1.377 . S
C491 C492 1.379 . S
C492 H476 0.931 . S
C492 C486 1.383 . S
C492 C491 1.379 . S
H493 C487 0.959 . S
H494 C487 0.961 1_565 S
H495 C487 0.955 1_565 S
H496 C488 0.930 . S
H497 C489 0.929 . S
H498 C506 0.929 . S
H499 C508 0.930 . S
H500 C510 0.930 . S
H501 C513 0.929 . S
H502 C516 0.930 . S
H503 C518 0.960 . S
H504 C518 0.960 . S
H505 C518 0.960 . S
C506 H498 0.929 . S
C506 C507 1.377 . S
C506 C508 1.384 . S
C507 C506 1.377 . S
C507 C513 1.390 . S
C508 H499 0.930 . S
C508 C506 1.384 . S
C508 C509 1.372 . S
C509 C508 1.372 . S
C509 C510 1.400 . S
C509 C514 1.490 . S
C510 H500 0.930 . S
C510 C509 1.400 . S
C510 C513 1.386 . S
H511 C527 0.930 . S
H512 C528 0.931 . S
C513 H501 0.929 . S
C513 C507 1.390 . S
C513 C510 1.386 . S
C514 C509 1.490 . S
C514 C516 1.395 . S
C514 C517 1.403 . S
H515 C521 0.930 . S
C516 H502 0.930 . S
C516 C514 1.395 . S
C516 C519 1.403 . S
C517 C514 1.403 . S
C517 C518 1.524 . S
C517 C521 1.400 . S
C518 H503 0.960 . S
C518 H504 0.960 . S
C518 H505 0.960 . S
C518 C517 1.524 . S
C519 C516 1.403 . S
C519 C520 1.392 . S
C519 C523 1.495 . S
C520 C519 1.392 . S
C520 C521 1.385 . S
C520 C522 1.478 . S
C521 H515 0.930 . S
C521 C517 1.400 . S
C521 C520 1.385 . S
C522 C520 1.478 . S
C522 C524 1.381 . S
C522 C528 1.383 . S
C523 C519 1.495 . S
C523 H529 0.959 . S
C523 H530 0.961 . S
C523 H531 0.960 . S
C524 C522 1.381 . S
C524 C525 1.394 . S
C524 H532 0.930 . S
C525 C524 1.394 . S
C525 C526 1.383 . S
C525 H533 0.929 . S
C526 C525 1.383 . S
C526 C527 1.377 . S
C527 H511 0.930 . S
C527 C526 1.377 . S
C527 C528 1.379 . S
C528 H512 0.931 . S
C528 C522 1.383 . S
C528 C527 1.379 . S
H529 C523 0.959 . S
H530 C523 0.961 . S
H531 C523 0.960 . S
H532 C524 0.930 . S
H533 C525 0.929 . S
H534 C542 0.929 . S
H535 C544 0.930 . S
H536 C546 0.930 . S
H537 C549 0.929 . S
H538 C552 0.930 . S
H539 C554 0.960 . S
H540 C554 0.960 . S
H541 C554 0.960 . S
C542 H534 0.929 . S
C542 C543 1.377 . S
C542 C544 1.384 . S
C543 C542 1.377 . S
C543 C549 1.390 . S
C544 H535 0.930 . S
C544 C542 1.384 . S
C544 C545 1.372 . S
C545 C544 1.372 . S
C545 C546 1.400 . S
C545 C550 1.490 . S
C546 H536 0.930 . S
C546 C545 1.400 . S
C546 C549 1.386 . S
H547 C563 0.930 . S
H548 C564 0.931 . S
C549 H537 0.929 . S
C549 C543 1.390 . S
C549 C546 1.386 . S
C550 C545 1.490 . S
C550 C552 1.395 . S
C550 C553 1.403 . S
H551 C557 0.930 . S
C552 H538 0.930 . S
C552 C550 1.395 . S
C552 C555 1.403 . S
C553 C550 1.403 . S
C553 C554 1.524 . S
C553 C557 1.400 . S
C554 H539 0.960 . S
C554 H540 0.960 . S
C554 H541 0.960 . S
C554 C553 1.524 . S
C555 C552 1.403 . S
C555 C556 1.392 . S
C555 C559 1.495 . S
C556 C555 1.392 . S
C556 C557 1.385 . S
C556 C558 1.478 . S
C557 H551 0.930 . S
C557 C553 1.400 . S
C557 C556 1.385 . S
C558 C556 1.478 . S
C558 C560 1.381 . S
C558 C564 1.383 . S
C559 C555 1.495 . S
C559 H565 0.959 . S
C559 H566 0.961 . S
C559 H567 0.960 . S
C560 C558 1.381 . S
C560 C561 1.394 . S
C560 H568 0.930 . S
C561 C560 1.394 . S
C561 C562 1.383 . S
C561 H569 0.929 . S
C562 C561 1.383 . S
C562 C563 1.377 . S
C563 H547 0.930 . S
C563 C562 1.377 . S
C563 C564 1.379 . S
C564 H548 0.931 . S
C564 C558 1.383 . S
C564 C563 1.379 . S
H565 C559 0.959 . S
H566 C559 0.961 . S
H567 C559 0.960 . S
H568 C560 0.930 . S
H569 C561 0.929 . S
H570 C578 0.929 . S
H571 C580 0.930 . S
H572 C582 0.930 . S
H573 C585 0.929 . S
H574 C588 0.930 . S
H575 C590 0.960 . S
H576 C590 0.960 . S
H577 C590 0.960 . S
C578 H570 0.929 . S
C578 C579 1.377 . S
C578 C580 1.384 . S
C579 C578 1.377 . S
C579 C585 1.390 . S
C580 H571 0.930 . S
C580 C578 1.384 . S
C580 C581 1.372 . S
C581 C580 1.372 . S
C581 C582 1.400 . S
C581 C586 1.490 . S
C582 H572 0.930 . S
C582 C581 1.400 . S
C582 C585 1.386 . S
H583 C599 0.930 . S
H584 C600 0.931 . S
C585 H573 0.929 . S
C585 C579 1.390 . S
C585 C582 1.386 . S
C586 C581 1.490 . S
C586 C588 1.395 . S
C586 C589 1.403 . S
H587 C593 0.930 . S
C588 H574 0.930 . S
C588 C586 1.395 . S
C588 C591 1.403 . S
C589 C586 1.403 . S
C589 C590 1.524 . S
C589 C593 1.400 . S
C590 H575 0.960 . S
C590 H576 0.960 . S
C590 H577 0.960 . S
C590 C589 1.524 . S
C591 C588 1.403 . S
C591 C592 1.392 . S
C591 C595 1.495 . S
C592 C591 1.392 . S
C592 C593 1.385 . S
C592 C594 1.478 . S
C593 H587 0.930 . S
C593 C589 1.400 . S
C593 C592 1.385 . S
C594 C592 1.478 . S
C594 C596 1.381 . S
C594 C600 1.383 . S
C595 C591 1.495 . S
C595 H601 0.959 . S
C595 H602 0.961 . S
C595 H603 0.960 . S
C596 C594 1.381 . S
C596 C597 1.394 . S
C596 H604 0.930 . S
C597 C596 1.394 . S
C597 C598 1.383 . S
C597 H605 0.929 . S
C598 C597 1.383 . S
C598 C599 1.377 . S
C599 H583 0.930 . S
C599 C598 1.377 . S
C599 C600 1.379 . S
C600 H584 0.931 . S
C600 C594 1.383 . S
C600 C599 1.379 . S
H601 C595 0.959 . S
H602 C595 0.961 . S
H603 C595 0.960 . S
H604 C596 0.930 . S
H605 C597 0.929 . S
H606 C614 0.929 . S
H607 C616 0.930 . S
H608 C618 0.930 . S
H609 C621 0.929 . S
H610 C624 0.930 . S
H611 C626 0.960 . S
H612 C626 0.960 . S
H613 C626 0.960 . S
C614 H606 0.929 . S
C614 C615 1.377 . S
C614 C616 1.384 . S
C615 C614 1.377 . S
C615 C621 1.390 . S
C616 H607 0.930 . S
C616 C614 1.384 . S
C616 C617 1.372 . S
C617 C616 1.372 . S
C617 C618 1.400 . S
C617 C622 1.490 . S
C618 H608 0.930 . S
C618 C617 1.400 . S
C618 C621 1.386 . S
H619 C635 0.930 . S
H620 C636 0.931 . S
C621 H609 0.929 . S
C621 C615 1.390 . S
C621 C618 1.386 . S
C622 C617 1.490 . S
C622 C624 1.395 . S
C622 C625 1.403 . S
H623 C629 0.930 . S
C624 H610 0.930 . S
C624 C622 1.395 . S
C624 C627 1.403 . S
C625 C622 1.403 . S
C625 C626 1.524 . S
C625 C629 1.400 . S
C626 H611 0.960 . S
C626 H612 0.960 . S
C626 H613 0.960 . S
C626 C625 1.524 . S
C627 C624 1.403 . S
C627 C628 1.392 . S
C627 C631 1.495 . S
C628 C627 1.392 . S
C628 C629 1.385 . S
C628 C630 1.478 . S
C629 H623 0.930 . S
C629 C625 1.400 . S
C629 C628 1.385 . S
C630 C628 1.478 . S
C630 C632 1.381 . S
C630 C636 1.383 . S
C631 C627 1.495 . S
C631 H637 0.959 . S
C631 H638 0.961 . S
C631 H639 0.960 . S
C632 C630 1.381 . S
C632 C633 1.394 . S
C632 H640 0.930 . S
C633 C632 1.394 . S
C633 C634 1.383 . S
C633 H641 0.929 . S
C634 C633 1.383 . S
C634 C635 1.377 . S
C635 H619 0.930 . S
C635 C634 1.377 . S
C635 C636 1.379 . S
C636 H620 0.931 . S
C636 C630 1.383 . S
C636 C635 1.379 . S
H637 C631 0.959 . S
H638 C631 0.961 . S
H639 C631 0.960 . S
H640 C632 0.930 . S
H641 C633 0.929 . S
H642 C650 0.929 . S
H643 C652 0.930 . S
H644 C654 0.930 . S
H645 C657 0.929 . S
H646 C660 0.930 . S
H647 C662 0.960 . S
H648 C662 0.960 . S
H649 C662 0.960 . S
C650 H642 0.929 . S
C650 C651 1.377 . S
C650 C652 1.384 . S
C651 C650 1.377 . S
C651 C657 1.390 . S
C652 H643 0.930 . S
C652 C650 1.384 . S
C652 C653 1.372 . S
C653 C652 1.372 . S
C653 C654 1.400 . S
C653 C658 1.490 . S
C654 H644 0.930 . S
C654 C653 1.400 . S
C654 C657 1.386 . S
H655 C671 0.930 . S
H656 C672 0.931 . S
C657 H645 0.929 . S
C657 C651 1.390 . S
C657 C654 1.386 . S
C658 C653 1.490 . S
C658 C660 1.395 . S
C658 C661 1.403 . S
H659 C665 0.930 . S
C660 H646 0.930 . S
C660 C658 1.395 . S
C660 C663 1.403 . S
C661 C658 1.403 . S
C661 C662 1.524 . S
C661 C665 1.400 . S
C662 H647 0.960 . S
C662 H648 0.960 . S
C662 H649 0.960 . S
C662 C661 1.524 . S
C663 C660 1.403 . S
C663 C664 1.392 . S
C663 C667 1.495 . S
C664 C663 1.392 . S
C664 C665 1.385 . S
C664 C666 1.478 . S
C665 H659 0.930 . S
C665 C661 1.400 . S
C665 C664 1.385 . S
C666 C664 1.478 . S
C666 C668 1.381 . S
C666 C672 1.383 . S
C667 C663 1.495 . S
C667 H673 0.959 . S
C667 H674 0.961 . S
C667 H675 0.960 . S
C668 C666 1.381 . S
C668 C669 1.394 . S
C668 H676 0.930 . S
C669 C668 1.394 . S
C669 C670 1.383 . S
C669 H677 0.929 . S
C670 C669 1.383 . S
C670 C671 1.377 . S
C671 H655 0.930 . S
C671 C670 1.377 . S
C671 C672 1.379 . S
C672 H656 0.931 . S
C672 C666 1.383 . S
C672 C671 1.379 . S
H673 C667 0.959 . S
H674 C667 0.961 . S
H675 C667 0.960 . S
H676 C668 0.930 . S
H677 C669 0.929 . S
H678 C686 0.929 . S
H679 C688 0.930 . S
H680 C690 0.930 . S
H681 C693 0.929 . S
H682 C696 0.930 . S
H683 C698 0.960 . S
H684 C698 0.960 . S
H685 C698 0.960 . S
C686 H678 0.929 . S
C686 C687 1.377 . S
C686 C688 1.384 . S
C687 C686 1.377 . S
C687 C693 1.390 . S
C688 H679 0.930 . S
C688 C686 1.384 . S
C688 C689 1.372 . S
C689 C688 1.372 . S
C689 C690 1.400 . S
C689 C694 1.490 . S
C690 H680 0.930 . S
C690 C689 1.400 . S
C690 C693 1.386 . S
H691 C707 0.930 . S
H692 C708 0.931 . S
C693 H681 0.929 . S
C693 C687 1.390 . S
C693 C690 1.386 . S
C694 C689 1.490 . S
C694 C696 1.395 . S
C694 C697 1.403 . S
H695 C701 0.930 . S
C696 H682 0.930 . S
C696 C694 1.395 . S
C696 C699 1.403 . S
C697 C694 1.403 . S
C697 C698 1.524 . S
C697 C701 1.400 . S
C698 H683 0.960 . S
C698 H684 0.960 . S
C698 H685 0.960 . S
C698 C697 1.524 . S
C699 C696 1.403 . S
C699 C700 1.392 . S
C699 C703 1.495 . S
C700 C699 1.392 . S
C700 C701 1.385 . S
C700 C702 1.478 . S
C701 H695 0.930 . S
C701 C697 1.400 . S
C701 C700 1.385 . S
C702 C700 1.478 . S
C702 C704 1.381 . S
C702 C708 1.383 . S
C703 C699 1.495 . S
C703 H709 0.959 . S
C703 H710 0.961 . S
C703 H711 0.960 . S
C704 C702 1.381 . S
C704 C705 1.394 1_556 S
C704 H712 0.930 1_556 S
C705 C704 1.394 1_554 S
C705 C706 1.383 1_554 S
C705 H713 0.929 . S
C706 C705 1.383 1_556 S
C706 C707 1.377 . S
C707 H691 0.930 . S
C707 C706 1.377 . S
C707 C708 1.379 . S
C708 H692 0.931 . S
C708 C702 1.383 . S
C708 C707 1.379 . S
H709 C703 0.959 . S
H710 C703 0.961 . S
H711 C703 0.960 . S
H712 C704 0.930 1_554 S
H713 C705 0.929 . S
H714 C722 0.929 1_556 S
H715 C724 0.930 . S
H716 C726 0.930 . S
H717 C729 0.929 . S
H718 C732 0.930 . S
H719 C734 0.960 . S
H720 C734 0.960 . S
H721 C734 0.960 1_554 S
C722 H714 0.929 1_554 S
C722 C723 1.377 . S
C722 C724 1.384 . S
C723 C722 1.377 . S
C723 C729 1.390 . S
C724 H715 0.930 . S
C724 C722 1.384 . S
C724 C725 1.372 . S
C725 C724 1.372 . S
C725 C726 1.400 . S
C725 C730 1.490 . S
C726 H716 0.930 . S
C726 C725 1.400 . S
C726 C729 1.386 . S
H727 C743 0.930 . S
H728 C744 0.931 . S
C729 H717 0.929 . S
C729 C723 1.390 . S
C729 C726 1.386 . S
C730 C725 1.490 . S
C730 C732 1.395 . S
C730 C733 1.403 . S
H731 C737 0.930 . S
C732 H718 0.930 . S
C732 C730 1.395 . S
C732 C735 1.403 . S
C733 C730 1.403 . S
C733 C734 1.524 1_554 S
C733 C737 1.400 . S
C734 H719 0.960 . S
C734 H720 0.960 . S
C734 H721 0.960 1_556 S
C734 C733 1.524 1_556 S
C735 C732 1.403 . S
C735 C736 1.392 . S
C735 C739 1.495 . S
C736 C735 1.392 . S
C736 C737 1.385 . S
C736 C738 1.478 . S
C737 H731 0.930 . S
C737 C733 1.400 . S
C737 C736 1.385 . S
C738 C736 1.478 . S
C738 C740 1.381 . S
C738 C744 1.383 . S
C739 C735 1.495 . S
C739 H745 0.959 . S
C739 H746 0.961 . S
C739 H747 0.960 . S
C740 C738 1.381 . S
C740 C741 1.394 . S
C740 H748 0.930 . S
C741 C740 1.394 . S
C741 C742 1.383 . S
C741 H749 0.929 . S
C742 C741 1.383 . S
C742 C743 1.377 . S
C743 H727 0.930 . S
C743 C742 1.377 . S
C743 C744 1.379 . S
C744 H728 0.931 . S
C744 C738 1.383 . S
C744 C743 1.379 . S
H745 C739 0.959 . S
H746 C739 0.961 . S
H747 C739 0.960 . S
H748 C740 0.930 . S
H749 C741 0.929 . S
C327 C39 1.943 1_556 S
C346 C181 1.938 . S
C363 C234 1.881 . S
C382 C92 1.866 . S
C399 C128 1.911 . S
C418 C304 1.893 . S
C435 C198 1.942 . S
C454 C22 1.938 . S
C471 C75 1.885 . S
C490 C251 1.880 . S
C507 C287 1.914 . S
C526 C145 1.915 . S
C543 C38 1.932 . S
C562 C144 1.916 . S
C579 C91 1.833 . S
C598 C188 1.809 . S
C615 C241 1.698 . S
C634 C135 1.693 . S
C651 C303 1.932 . S
C670 C197 1.918 . S
C687 C250 1.833 . S
C706 C29 1.809 1_556 S
C723 C294 1.697 1_554 S
C742 C82 1.693 . S
