# Generated by pormake.
# Topology bcs, (6)-cn, num edge types: 1
# Building blocks:
#     Node 0, Type 0, BuildingBlock: BETFAJ_clean_sbu_0, # of connection points: 6
#     Node 1, Type 0, BuildingBlock: BETFAJ_clean_sbu_0, # of connection points: 6
#     Node 2, Type 0, BuildingBlock: BETFAJ_clean_sbu_0, # of connection points: 6
#     Node 3, Type 0, BuildingBlock: BETFAJ_clean_sbu_0, # of connection points: 6
#     Node 4, Type 0, BuildingBlock: BETFAJ_clean_sbu_0, # of connection points: 6
#     Node 5, Type 0, BuildingBlock: BETFAJ_clean_sbu_0, # of connection points: 6
#     Node 6, Type 0, BuildingBlock: BETFAJ_clean_sbu_0, # of connection points: 6
#     Node 7, Type 0, BuildingBlock: BETFAJ_clean_sbu_0, # of connection points: 6
#     Node 8, Type 0, BuildingBlock: BETFAJ_clean_sbu_0, # of connection points: 6
#     Node 9, Type 0, BuildingBlock: BETFAJ_clean_sbu_0, # of connection points: 6
#     Node 10, Type 0, BuildingBlock: BETFAJ_clean_sbu_0, # of connection points: 6
#     Node 11, Type 0, BuildingBlock: BETFAJ_clean_sbu_0, # of connection points: 6
#     Node 12, Type 0, BuildingBlock: BETFAJ_clean_sbu_0, # of connection points: 6
#     Node 13, Type 0, BuildingBlock: BETFAJ_clean_sbu_0, # of connection points: 6
#     Node 14, Type 0, BuildingBlock: BETFAJ_clean_sbu_0, # of connection points: 6
#     Node 15, Type 0, BuildingBlock: BETFAJ_clean_sbu_0, # of connection points: 6
#     Edge 16, Type (0, 0), BuildingBlock: KIFKEQ_clean_linker_1, # of connection points: 2
#     Edge 17, Type (0, 0), BuildingBlock: KIFKEQ_clean_linker_1, # of connection points: 2
#     Edge 18, Type (0, 0), BuildingBlock: KIFKEQ_clean_linker_1, # of connection points: 2
#     Edge 19, Type (0, 0), BuildingBlock: KIFKEQ_clean_linker_1, # of connection points: 2
#     Edge 20, Type (0, 0), BuildingBlock: KIFKEQ_clean_linker_1, # of connection points: 2
#     Edge 21, Type (0, 0), BuildingBlock: KIFKEQ_clean_linker_1, # of connection points: 2
#     Edge 22, Type (0, 0), BuildingBlock: KIFKEQ_clean_linker_1, # of connection points: 2
#     Edge 23, Type (0, 0), BuildingBlock: KIFKEQ_clean_linker_1, # of connection points: 2
#     Edge 24, Type (0, 0), BuildingBlock: KIFKEQ_clean_linker_1, # of connection points: 2
#     Edge 25, Type (0, 0), BuildingBlock: KIFKEQ_clean_linker_1, # of connection points: 2
#     Edge 26, Type (0, 0), BuildingBlock: KIFKEQ_clean_linker_1, # of connection points: 2
#     Edge 27, Type (0, 0), BuildingBlock: KIFKEQ_clean_linker_1, # of connection points: 2
#     Edge 28, Type (0, 0), BuildingBlock: KIFKEQ_clean_linker_1, # of connection points: 2
#     Edge 29, Type (0, 0), BuildingBlock: KIFKEQ_clean_linker_1, # of connection points: 2
#     Edge 30, Type (0, 0), BuildingBlock: KIFKEQ_clean_linker_1, # of connection points: 2
#     Edge 31, Type (0, 0), BuildingBlock: KIFKEQ_clean_linker_1, # of connection points: 2
#     Edge 32, Type (0, 0), BuildingBlock: KIFKEQ_clean_linker_1, # of connection points: 2
#     Edge 33, Type (0, 0), BuildingBlock: KIFKEQ_clean_linker_1, # of connection points: 2
#     Edge 34, Type (0, 0), BuildingBlock: KIFKEQ_clean_linker_1, # of connection points: 2
#     Edge 35, Type (0, 0), BuildingBlock: KIFKEQ_clean_linker_1, # of connection points: 2
#     Edge 36, Type (0, 0), BuildingBlock: KIFKEQ_clean_linker_1, # of connection points: 2
#     Edge 37, Type (0, 0), BuildingBlock: KIFKEQ_clean_linker_1, # of connection points: 2
#     Edge 38, Type (0, 0), BuildingBlock: KIFKEQ_clean_linker_1, # of connection points: 2
#     Edge 39, Type (0, 0), BuildingBlock: KIFKEQ_clean_linker_1, # of connection points: 2
#     Edge 40, Type (0, 0), BuildingBlock: KIFKEQ_clean_linker_1, # of connection points: 2
#     Edge 41, Type (0, 0), BuildingBlock: KIFKEQ_clean_linker_1, # of connection points: 2
#     Edge 42, Type (0, 0), BuildingBlock: KIFKEQ_clean_linker_1, # of connection points: 2
#     Edge 43, Type (0, 0), BuildingBlock: KIFKEQ_clean_linker_1, # of connection points: 2
#     Edge 44, Type (0, 0), BuildingBlock: KIFKEQ_clean_linker_1, # of connection points: 2
#     Edge 45, Type (0, 0), BuildingBlock: KIFKEQ_clean_linker_1, # of connection points: 2
#     Edge 46, Type (0, 0), BuildingBlock: KIFKEQ_clean_linker_1, # of connection points: 2
#     Edge 47, Type (0, 0), BuildingBlock: KIFKEQ_clean_linker_1, # of connection points: 2
#     Edge 48, Type (0, 0), BuildingBlock: KIFKEQ_clean_linker_1, # of connection points: 2
#     Edge 49, Type (0, 0), BuildingBlock: KIFKEQ_clean_linker_1, # of connection points: 2
#     Edge 50, Type (0, 0), BuildingBlock: KIFKEQ_clean_linker_1, # of connection points: 2
#     Edge 51, Type (0, 0), BuildingBlock: KIFKEQ_clean_linker_1, # of connection points: 2
#     Edge 52, Type (0, 0), BuildingBlock: KIFKEQ_clean_linker_1, # of connection points: 2
#     Edge 53, Type (0, 0), BuildingBlock: KIFKEQ_clean_linker_1, # of connection points: 2
#     Edge 54, Type (0, 0), BuildingBlock: KIFKEQ_clean_linker_1, # of connection points: 2
#     Edge 55, Type (0, 0), BuildingBlock: KIFKEQ_clean_linker_1, # of connection points: 2
#     Edge 56, Type (0, 0), BuildingBlock: KIFKEQ_clean_linker_1, # of connection points: 2
#     Edge 57, Type (0, 0), BuildingBlock: KIFKEQ_clean_linker_1, # of connection points: 2
#     Edge 58, Type (0, 0), BuildingBlock: KIFKEQ_clean_linker_1, # of connection points: 2
#     Edge 59, Type (0, 0), BuildingBlock: KIFKEQ_clean_linker_1, # of connection points: 2
#     Edge 60, Type (0, 0), BuildingBlock: KIFKEQ_clean_linker_1, # of connection points: 2
#     Edge 61, Type (0, 0), BuildingBlock: KIFKEQ_clean_linker_1, # of connection points: 2
#     Edge 62, Type (0, 0), BuildingBlock: KIFKEQ_clean_linker_1, # of connection points: 2
#     Edge 63, Type (0, 0), BuildingBlock: KIFKEQ_clean_linker_1, # of connection points: 2
# Relax obj value: 0.173
# Max RMSD: 0.241
# Mean RMSD: 0.202
data_MOF--net-bcs--node1-BETFAJ_clean_sbu_0--edge1-KIFKEQ_clean_linker_1
_symmetry_space_group_name_H-M    P1
_symmetry_Int_Tables_number       1
_symmetry_cell_setting            triclinic
loop_
_symmetry_equiv_pos_as_xyz
'x, y, z'
_cell_length_a     45.507974
_cell_length_b     44.592725
_cell_length_c     40.854455
_cell_angle_alpha  73.541179
_cell_angle_beta   112.00937
_cell_angle_gamma 121.7858
loop_
_atom_site_label
_atom_site_type_symbol
_atom_site_fract_x
_atom_site_fract_y
_atom_site_fract_z
_atom_type_partial_charge
Sm0 Sm 0.03206 0.97483 0.99241 0.0
Sm1 Sm 0.04154 0.03572 0.03209 0.0
C2 C 0.03352 0.93703 0.95393 0.0
C3 C 0.05287 0.92968 0.93776 0.0
C4 C 0.0904 0.94328 0.94972 0.0
C5 C 0.1071 0.93036 0.93871 0.0
C6 C 0.08646 0.90327 0.91603 0.0
C7 C 0.04913 0.89102 0.90295 0.0
C8 C 0.03258 0.90417 0.91362 0.0
C9 C 0.99708 0.94343 0.04693 0.0
C10 C 0.10713 0.01819 0.05298 0.0
C11 C 0.03842 0.07286 0.07009 0.0
C12 C 1.01601 0.07814 0.08407 0.0
C13 C 0.97832 0.06125 0.07142 0.0
C14 C 0.95821 0.07141 0.08065 0.0
C15 C 0.97541 0.09893 0.10245 0.0
C16 C 1.01315 0.11475 0.11596 0.0
C17 C 0.0331 0.10442 0.10691 0.0
C18 C 0.07633 0.06709 0.97736 0.0
C19 C 0.96667 0.99252 0.97135 0.0
O20 O 1.02526 0.96293 0.93947 0.0
O21 O 0.04123 0.93223 0.98867 0.0
O22 O 1.01524 0.97611 0.03772 0.0
O23 O 0.99815 0.9262 0.02702 0.0
O24 O 0.09152 0.0016 0.02411 0.0
O25 O 0.09106 0.02836 0.06535 0.0
O26 O 0.04604 0.04655 0.08458 0.0
O27 O 0.03313 0.07899 0.03559 0.0
O28 O 0.05826 0.03441 0.9867 0.0
O29 O 0.07539 0.08436 0.99735 0.0
O30 O 0.98217 0.00905 1.00022 0.0
O31 O 0.98284 0.98248 0.95902 0.0
H32 H 0.10653 0.96271 0.96869 0.0
H33 H 0.13589 0.94025 0.94936 0.0
H34 H 0.03253 0.87053 0.88511 0.0
H35 H 1.00357 0.89309 0.90429 0.0
H36 H 0.96455 0.04106 0.05351 0.0
H37 H 0.92922 0.05811 0.07015 0.0
H38 H 1.02764 0.13634 0.13227 0.0
H39 H 0.06219 0.1182 0.11655 0.0
Sm40 Sm 0.30717 0.73964 0.27902 0.0
Sm41 Sm 0.25164 0.76165 0.2394 0.0
C42 C 0.35032 0.71569 0.32654 0.0
C43 C 0.34505 0.67956 0.33996 0.0
C44 C 0.31142 0.65169 0.34395 0.0
C45 C 0.30552 0.61664 0.35218 0.0
C46 C 0.33294 0.60912 0.35576 0.0
C47 C 0.36675 0.63722 0.35263 0.0
C48 C 0.37273 0.67213 0.34482 0.0
C49 C 0.26314 0.70767 0.21781 0.0
C50 C 0.22984 0.69749 0.29792 0.0
C51 C 0.20902 0.78653 0.19252 0.0
C52 C 0.21524 0.82319 0.17869 0.0
C53 C 0.23488 0.84341 0.15353 0.0
C54 C 0.24259 0.87887 0.14265 0.0
C55 C 0.2311 0.89474 0.15699 0.0
C56 C 0.2114 0.87446 0.18197 0.0
C57 C 0.20337 0.83904 0.19253 0.0
C58 C 0.29635 0.79376 0.30052 0.0
C59 C 0.32922 0.8039 0.22044 0.0
O60 O 0.33207 0.72565 0.3352 0.0
O61 O 0.35029 0.72493 0.29322 0.0
O62 O 0.25272 0.71192 0.23977 0.0
O63 O 0.2974 0.71854 0.22852 0.0
O64 O 0.26495 0.70993 0.31085 0.0
O65 O 0.21605 0.70843 0.26538 0.0
O66 O 0.22573 0.77505 0.18336 0.0
O67 O 0.20937 0.77733 0.22597 0.0
O68 O 0.30624 0.7895 0.27815 0.0
O69 O 0.26201 0.78244 0.29053 0.0
O70 O 0.29419 0.79241 0.20776 0.0
O71 O 0.34283 0.79227 0.2527 0.0
H72 H 0.28948 0.65688 0.33981 0.0
H73 H 0.27938 0.59543 0.35478 0.0
H74 H 0.38865 0.63218 0.35618 0.0
H75 H 0.39869 0.69325 0.34159 0.0
H76 H 0.24447 0.832 0.14236 0.0
H77 H 0.25746 0.89387 0.12304 0.0
H78 H 0.20127 0.88571 0.19267 0.0
H79 H 0.18802 0.8241 0.21177 0.0
Sm80 Sm 0.52245 0.99569 0.54133 0.0
Sm81 Sm 0.54124 0.00675 0.47781 0.0
C82 C 0.51861 0.00953 0.59782 0.0
C83 C 0.49966 0.0229 0.60706 0.0
C84 C 0.51997 0.05124 0.62784 0.0
C85 C 0.50314 0.06544 0.6363 0.0
C86 C 0.46553 0.05133 0.62438 0.0
C87 C 0.44516 0.02284 0.60352 0.0
C88 C 0.46211 0.00879 0.59481 0.0
C89 C 0.471 0.94606 0.49649 0.0
C90 C 0.48866 0.04809 0.46541 0.0
C91 C 0.54722 0.99536 0.42117 0.0
C92 C 0.56687 0.98248 0.41224 0.0
C93 C 0.5476 0.95 0.39787 0.0
C94 C 0.56541 0.93691 0.3894 0.0
C95 C 0.60281 0.95627 0.39477 0.0
C96 C 0.62214 0.98892 0.4089 0.0
C97 C 0.60434 0.00191 0.41769 0.0
C98 C 0.59266 0.05519 0.52375 0.0
C99 C 0.57511 0.9544 0.55357 0.0
O100 O 0.54169 0.03274 0.57984 0.0
O101 O 0.50005 0.97776 0.58724 0.0
O102 O 0.48758 0.97892 0.48789 0.0
O103 O 0.48034 0.93777 0.53068 0.0
O104 O 0.49204 0.03375 0.50052 0.0
O105 O 0.50615 0.04096 0.45029 0.0
O106 O 0.52303 0.97166 0.43773 0.0
O107 O 0.56549 0.02652 0.43299 0.0
O108 O 0.57606 0.02226 0.53142 0.0
O109 O 0.58251 0.06461 0.48999 0.0
O110 O 0.56984 0.96692 0.5179 0.0
O111 O 0.55944 0.96336 0.56923 0.0
H112 H 0.54902 0.06267 0.63727 0.0
H113 H 0.51969 0.08779 0.65183 0.0
H114 H 0.41612 0.01113 0.59424 0.0
H115 H 0.44587 0.98704 0.5785 0.0
H116 H 0.51866 0.93471 0.39316 0.0
H117 H 0.54983 0.91192 0.37804 0.0
H118 H 0.65104 0.00424 0.41344 0.0
H119 H 0.61992 0.02705 0.42875 0.0
Sm120 Sm 0.29084 0.22327 0.76294 0.0
Sm121 Sm 0.27872 0.28436 0.75658 0.0
C122 C 0.29439 0.17042 0.75035 0.0
C123 C 0.31383 0.1639 0.73353 0.0
C124 C 0.29836 0.15522 0.69839 0.0
C125 C 0.31545 0.1469 0.68294 0.0
C126 C 0.34822 0.14678 0.7024 0.0
C127 C 0.36388 0.15585 0.7374 0.0
C128 C 0.34683 0.16426 0.75284 0.0
C129 C 0.33912 0.26895 0.81378 0.0
C130 C 0.33125 0.29774 0.71164 0.0
C131 C 0.27645 0.33738 0.77038 0.0
C132 C 0.25489 0.34401 0.7839 0.0
C133 C 0.27169 0.36228 0.814 0.0
C134 C 0.25239 0.37029 0.82666 0.0
C135 C 0.21598 0.36043 0.80921 0.0
C136 C 0.19899 0.34168 0.77936 0.0
C137 C 0.21825 0.3334 0.76686 0.0
C138 C 0.22954 0.2388 0.70574 0.0
C139 C 0.23815 0.20958 0.80784 0.0
O140 O 0.27194 0.18216 0.72915 0.0
O141 O 0.31228 0.18495 0.78017 0.0
O142 O 0.32837 0.27783 0.78117 0.0
O143 O 0.32509 0.23465 0.82074 0.0
O144 O 0.32043 0.26309 0.71976 0.0
O145 O 0.3215 0.31348 0.72543 0.0
O146 O 0.29494 0.32198 0.79338 0.0
O147 O 0.26216 0.32632 0.73889 0.0
O148 O 0.24109 0.2298 0.73815 0.0
O149 O 0.24234 0.27303 0.69942 0.0
O150 O 0.24812 0.24404 0.79897 0.0
O151 O 0.24871 0.19401 0.79483 0.0
H152 H 0.27276 0.15438 0.68293 0.0
H153 H 0.30288 0.14034 0.65582 0.0
H154 H 0.3888 0.15541 0.75331 0.0
H155 H 0.35922 0.17037 0.78011 0.0
H156 H 0.29996 0.37081 0.82744 0.0
H157 H 0.26622 0.38513 0.84947 0.0
H158 H 0.17084 0.33354 0.76565 0.0
H159 H 0.20455 0.31907 0.74369 0.0
Sm160 Sm 0.06551 0.00513 0.5363 0.0
Sm161 Sm 0.99989 0.00917 0.48516 0.0
C162 C 0.11771 0.01092 0.59506 0.0
C163 C 0.12043 0.98642 0.62673 0.0
C164 C 0.15158 0.99697 0.65509 0.0
C165 C 0.15779 0.97134 0.68109 0.0
C166 C 0.13332 0.93509 0.67796 0.0
C167 C 0.09983 0.92536 0.65227 0.0
C168 C 0.09343 0.951 0.62673 0.0
C169 C 1.02217 0.95085 0.49343 0.0
C170 C 0.98824 0.96141 0.56018 0.0
C171 C 0.9499 0.00851 0.42617 0.0
C172 C 0.95169 0.03596 0.39612 0.0
C173 C 0.93627 0.02693 0.3613 0.0
C174 C 0.93626 0.05314 0.33284 0.0
C175 C 0.95081 0.08844 0.33909 0.0
C176 C 0.9697 0.0977 0.37396 0.0
C177 C 0.97031 0.07171 0.40216 0.0
C178 C 0.04409 0.0634 0.52807 0.0
C179 C 0.07656 0.05104 0.46053 0.0
O180 O 0.09478 0.02201 0.59031 0.0
O181 O 0.11539 1.00144 0.5662 0.0
O182 O 1.01195 0.96385 0.50781 0.0
O183 O 0.05704 0.96412 0.50429 0.0
O184 O 1.02387 0.97535 0.57023 0.0
O185 O 0.97127 0.96737 0.52675 0.0
O186 O 0.96997 0.99413 0.43049 0.0
O187 O 0.95156 0.01596 0.45588 0.0
O188 O 0.05355 0.05036 0.51293 0.0
O189 O 1.00923 0.04958 0.51866 0.0
O190 O 0.04098 0.03736 0.45072 0.0
O191 O 0.09367 0.04563 0.49399 0.0
H192 H 0.17221 0.02449 0.65566 0.0
H193 H 0.18337 0.97957 0.70131 0.0
H194 H 0.08028 0.89777 0.64911 0.0
H195 H 0.06887 0.94275 0.60513 0.0
H196 H 0.92319 0.99955 0.35621 0.0
H197 H 0.92255 0.04531 0.30619 0.0
H198 H 0.98133 0.12443 0.38017 0.0
H199 H 0.98388 0.07944 0.42887 0.0
Sm200 Sm 0.26662 0.72592 0.80022 0.0
Sm201 Sm 0.28541 0.74866 0.72763 0.0
C202 C 0.25189 0.72744 0.85663 0.0
C203 C 0.2326 0.74277 0.86291 0.0
C204 C 0.24871 0.76299 0.89145 0.0
C205 C 0.23252 0.7803 0.89614 0.0
C206 C 0.19991 0.77823 0.87211 0.0
C207 C 0.18361 0.75744 0.84376 0.0
C208 C 0.19962 0.73974 0.83942 0.0
C209 C 0.22753 0.67549 0.7537 0.0
C210 C 0.2296 0.76854 0.73115 0.0
C211 C 0.30253 0.74757 0.67291 0.0
C212 C 0.31964 0.72948 0.66751 0.0
C213 C 0.31004 0.69368 0.68056 0.0
C214 C 0.3274 0.67736 0.6763 0.0
C215 C 0.35502 0.69655 0.65927 0.0
C216 C 0.36473 0.73242 0.6465 0.0
C217 C 0.34715 0.74864 0.65049 0.0
C218 C 0.32483 0.79976 0.77369 0.0
C219 C 0.32205 0.70687 0.79476 0.0
O220 O 0.28183 0.75053 0.84828 0.0
O221 O 0.23283 0.70034 0.83796 0.0
O222 O 0.23652 0.708 0.74591 0.0
O223 O 0.23801 0.66762 0.78791 0.0
O224 O 0.23994 0.7605 0.76587 0.0
O225 O 0.24071 0.76371 0.70845 0.0
O226 O 0.27015 0.72762 0.67721 0.0
O227 O 0.32331 0.77232 0.69442 0.0
O228 O 0.3155 0.76716 0.78197 0.0
O229 O 0.31529 0.80712 0.73937 0.0
O230 O 0.30624 0.70911 0.76042 0.0
O231 O 0.31514 0.71637 0.81766 0.0
H232 H 0.27416 0.76576 0.90996 0.0
H233 H 0.24565 0.79526 0.91876 0.0
H234 H 0.15882 0.7554 0.82435 0.0
H235 H 0.18651 0.72418 0.81727 0.0
H236 H 0.2893 0.67834 0.69432 0.0
H237 H 0.3196 0.64985 0.68685 0.0
H238 H 0.38566 0.74787 0.63301 0.0
H239 H 0.35521 0.7763 0.64044 0.0
Sm240 Sm 0.54121 0.97233 0.01394 0.0
Sm241 Sm 0.51677 0.0286 1.0013 0.0
C242 C 0.56045 0.92697 0.00947 0.0
C243 C 0.58265 0.92341 0.99326 0.0
C244 C 0.57137 0.91881 0.95709 0.0
C245 C 0.59098 0.9122 0.94306 0.0
C246 C 0.62233 0.90999 0.96482 0.0
C247 C 0.63393 0.91533 1.00081 0.0
C248 C 0.61428 0.9218 0.01484 0.0
C249 C 0.57933 0.02057 0.06281 0.0
C250 C 0.57082 0.04486 0.95863 0.0
C251 C 0.50132 0.07544 0.0093 0.0
C252 C 0.47722 0.07855 0.0232 0.0
C253 C 0.48588 0.08175 0.05937 0.0
C254 C 0.46485 0.08805 0.07161 0.0
C255 C 0.43476 0.09158 0.04798 0.0
C256 C 0.42573 0.08765 0.01196 0.0
C257 C 0.44672 0.08134 0.99974 0.0
C258 C 0.47723 0.98038 0.95225 0.0
C259 C 0.48488 0.95437 0.05475 0.0
O260 O 0.5313 0.92861 0.98861 0.0
O261 O 0.57729 0.94759 0.03484 0.0
O262 O 0.56929 0.02784 0.02967 0.0
O263 O 0.57038 0.98711 0.07123 0.0
O264 O 0.56286 0.01109 0.96752 0.0
O265 O 0.56041 0.0601 0.9722 0.0
O266 O 0.52664 0.0683 0.03226 0.0
O267 O 0.48699 0.05983 0.98041 0.0
O268 O 0.48862 0.97318 0.98524 0.0
O269 O 0.48432 0.01343 0.94446 0.0
O270 O 0.49166 0.98783 0.0452 0.0
O271 O 0.49735 0.93999 0.04273 0.0
H272 H 0.54705 0.9197 0.93967 0.0
H273 H 0.58145 0.90866 0.91515 0.0
H274 H 0.65761 0.91334 0.01851 0.0
H275 H 0.62343 0.92473 0.04289 0.0
H276 H 0.50943 0.08022 0.07817 0.0
H277 H 0.47292 0.09134 0.09942 0.0
H278 H 0.4025 0.08973 0.99306 0.0
H279 H 0.43942 0.07934 0.97169 0.0
Sm280 Sm 0.26235 0.22688 0.23044 0.0
Sm281 Sm 0.30231 0.27642 0.28679 0.0
C282 C 0.24813 0.19605 0.17547 0.0
C283 C 0.26702 0.18625 0.16117 0.0
C284 C 0.30432 0.20626 0.16582 0.0
C285 C 0.32184 0.19564 0.15325 0.0
C286 C 0.30249 0.16458 0.1361 0.0
C287 C 0.26513 0.14461 0.13165 0.0
C288 C 0.24762 0.15539 0.144 0.0
C289 C 0.21991 0.19847 0.27698 0.0
C290 C 0.32869 0.20866 0.30469 0.0
C291 C 0.31592 0.3064 0.34202 0.0
C292 C 0.29546 0.31475 0.35556 0.0
C293 C 0.25772 0.29652 0.34593 0.0
C294 C 0.23857 0.30632 0.35697 0.0
C295 C 0.25674 0.33486 0.37757 0.0
C296 C 0.29464 0.3529 0.38726 0.0
C297 C 0.31375 0.34292 0.37637 0.0
C298 C 0.34432 0.30579 0.23978 0.0
C299 C 0.23597 0.29461 0.21268 0.0
O300 O 0.2585 0.22986 0.17371 0.0
O301 O 0.24151 0.17852 0.20562 0.0
O302 O 0.24977 0.22659 0.27931 0.0
O303 O 0.21046 0.1858 0.24771 0.0
O304 O 0.30316 0.20043 0.27253 0.0
O305 O 0.33318 0.2376 0.31565 0.0
O306 O 0.30651 0.27283 0.34372 0.0
O307 O 0.3225 0.3243 0.31195 0.0
O308 O 0.31467 0.27732 0.23736 0.0
O309 O 0.35345 0.31839 0.269 0.0
O310 O 0.25989 0.30143 0.24582 0.0
O311 O 0.23311 0.26707 0.20067 0.0
H312 H 0.31998 0.22986 0.17952 0.0
H313 H 0.35068 0.2114 0.15759 0.0
H314 H 0.24931 0.12078 0.11829 0.0
H315 H 0.21886 0.13942 0.14034 0.0
H316 H 0.24303 0.27498 0.32948 0.0
H317 H 0.20948 0.29146 0.34936 0.0
H318 H 0.30961 0.37534 0.40256 0.0
H319 H 0.34287 0.35766 0.38366 0.0
Sm320 Sm 0.56704 0.49896 0.03555 0.0
Sm321 Sm 0.50595 0.50839 0.98735 0.0
C322 C 0.61499 0.49295 0.09438 0.0
C323 C 0.60969 0.46574 0.12474 0.0
C324 C 0.57581 0.43574 0.12277 0.0
C325 C 0.57144 0.40723 0.14914 0.0
C326 C 0.60126 0.40785 0.17716 0.0
C327 C 0.63434 0.43944 0.18087 0.0
C328 C 0.6385 0.46827 0.15469 0.0
C329 C 0.52202 0.44817 0.98884 0.0
C330 C 0.48975 0.45869 0.05866 0.0
C331 C 0.45948 0.51727 0.92903 0.0
C332 C 0.46726 0.54801 0.90231 0.0
C333 C 0.44099 0.54834 0.8707 0.0
C334 C 0.44705 0.57998 0.84839 0.0
C335 C 0.4793 0.61149 0.85784 0.0
C336 C 0.50698 0.60996 0.88757 0.0
C337 C 0.50089 0.57842 0.9098 0.0
C338 C 0.55146 0.55926 0.03408 0.0
C339 C 0.58218 0.54745 0.96298 0.0
O340 O 0.60073 0.51321 0.08994 0.0
O341 O 0.60867 0.48183 0.06482 0.0
O342 O 0.51236 0.45942 1.00575 0.0
O343 O 0.55686 0.4629 0.99696 0.0
O344 O 0.52535 0.47301 0.06923 0.0
O345 O 0.47359 0.46456 0.02501 0.0
O346 O 0.47463 0.49837 0.93147 0.0
O347 O 0.46291 0.52383 0.95992 0.0
O348 O 0.56076 0.548 0.01682 0.0
O349 O 0.51668 0.54441 0.02637 0.0
O350 O 0.54668 0.53372 0.95298 0.0
O351 O 0.59874 0.54149 0.99648 0.0
H352 H 0.55328 0.43324 0.09967 0.0
H353 H 0.54567 0.38335 0.1457 0.0
H354 H 0.65798 0.44067 0.20197 0.0
H355 H 0.66471 0.49146 0.15668 0.0
H356 H 0.4151 0.52491 0.86446 0.0
H357 H 0.42504 0.5805 0.82582 0.0
H358 H 0.53193 0.63387 0.89542 0.0
H359 H 0.52155 0.57849 0.93417 0.0
Sm360 Sm 0.77693 0.2492 0.28882 0.0
Sm361 Sm 0.78661 0.2697 0.21279 0.0
C362 C 0.76695 0.25357 0.34686 0.0
C363 C 0.74735 0.26928 0.3518 0.0
C364 C 0.75684 0.28134 0.38426 0.0
C365 C 0.73909 0.29731 0.38854 0.0
C366 C 0.71158 0.30187 0.36028 0.0
C367 C 0.70227 0.28971 0.32774 0.0
C368 C 0.71981 0.27352 0.32362 0.0
C369 C 0.7291 0.1985 0.24297 0.0
C370 C 0.73905 0.29371 0.2257 0.0
C371 C 0.79725 0.26584 0.15491 0.0
C372 C 0.81608 0.24947 0.14953 0.0
C373 C 0.8034 0.23395 0.1183 0.0
C374 C 0.82001 0.21694 0.11372 0.0
C375 C 0.84972 0.21492 0.14035 0.0
C376 C 0.86228 0.2305 0.1717 0.0
C377 C 0.84566 0.24749 0.17624 0.0
C378 C 0.83441 0.31956 0.25987 0.0
C379 C 0.82086 0.22123 0.27457 0.0
O380 O 0.79613 0.27604 0.33674 0.0
O381 O 0.74724 0.2253 0.32987 0.0
O382 O 0.7398 0.23139 0.23526 0.0
O383 O 0.74218 0.19083 0.2766 0.0
O384 O 0.75695 0.29025 0.2592 0.0
O385 O 0.74139 0.28298 0.20026 0.0
O386 O 0.76762 0.24375 0.16431 0.0
O387 O 0.81726 0.29375 0.17247 0.0
O388 O 0.82374 0.28667 0.26652 0.0
O389 O 0.8207 0.32786 0.22657 0.0
O390 O 0.80506 0.22795 0.24112 0.0
O391 O 0.81917 0.23152 0.30086 0.0
H392 H 0.77801 0.27843 0.40636 0.0
H393 H 0.74672 0.30571 0.41419 0.0
H394 H 0.6817 0.29307 0.30516 0.0
H395 H 0.7119 0.26446 0.29825 0.0
H396 H 0.78035 0.23465 0.09753 0.0
H397 H 0.80909 0.2048 0.08948 0.0
H398 H 0.88522 0.22988 0.19271 0.0
H399 H 0.85584 0.25892 0.2008 0.0
Sm400 Sm 0.0374 0.46586 0.50964 0.0
Sm401 Sm 1.02218 0.52599 0.50775 0.0
C402 C 0.04683 0.4178 0.49462 0.0
C403 C 0.07077 0.41461 0.48061 0.0
C404 C 0.05824 0.40431 0.44644 0.0
C405 C 0.07929 0.39841 0.43387 0.0
C406 C 0.11337 0.40239 0.45525 0.0
C407 C 0.12616 0.41333 0.48923 0.0
C408 C 0.10513 0.41931 0.50177 0.0
C409 C 0.0833 0.50955 0.56259 0.0
C410 C 0.07315 0.54267 0.46152 0.0
C411 C 1.01219 0.57418 0.52186 0.0
C412 C 0.98928 0.57833 0.53655 0.0
C413 C 1.0038 0.59168 0.56949 0.0
C414 C 0.98386 0.59897 0.58227 0.0
C415 C 0.94888 0.59334 0.56233 0.0
C416 C 0.93409 0.57927 0.52966 0.0
C417 C 0.95403 0.57192 0.51691 0.0
C418 C 0.97674 0.48209 0.45463 0.0
C419 C 0.9881 0.45002 0.55725 0.0
O420 O 1.02546 0.43042 0.47228 0.0
O421 O 0.05987 0.42842 0.52615 0.0
O422 O 0.07208 0.51961 0.53051 0.0
O423 O 0.07185 0.47556 0.56754 0.0
O424 O 0.06095 0.50798 0.46534 0.0
O425 O 0.06696 0.5576 0.4801 0.0
O426 O 0.03465 0.56279 0.54398 0.0
O427 O 0.99786 0.56191 0.49101 0.0
O428 O 0.98756 0.47218 0.48687 0.0
O429 O 0.98849 0.51614 0.44958 0.0
O430 O 1.00032 0.48471 0.55313 0.0
O431 O 0.99328 0.43469 0.53814 0.0
H432 H 0.03181 0.40024 0.42956 0.0
H433 H 0.06871 0.39054 0.40739 0.0
H434 H 0.15203 0.41624 0.50666 0.0
H435 H 0.11556 0.42689 0.52837 0.0
H436 H 1.03095 0.59716 0.58516 0.0
H437 H 0.99601 0.60924 0.60777 0.0
H438 H 0.90747 0.57497 0.5133 0.0
H439 H 0.94205 0.56198 0.49125 0.0
Sm440 Sm 0.79471 0.72498 0.26679 0.0
Sm441 Sm 0.78108 0.78525 0.25962 0.0
C442 C 0.79803 0.67214 0.25403 0.0
C443 C 0.81903 0.66515 0.24006 0.0
C444 C 0.80122 0.64531 0.21101 0.0
C445 C 0.81997 0.63703 0.19784 0.0
C446 C 0.85684 0.64822 0.21371 0.0
C447 C 0.8748 0.66847 0.24255 0.0
C448 C 0.85607 0.677 0.25558 0.0
C449 C 0.84275 0.77106 0.31759 0.0
C450 C 0.83487 0.79973 0.21569 0.0
C451 C 0.77597 0.83779 0.2706 0.0
C452 C 0.75508 0.84459 0.28507 0.0
C453 C 0.77068 0.8574 0.31839 0.0
C454 C 0.75241 0.86631 0.33157 0.0
C455 C 0.71835 0.86295 0.31149 0.0
C456 C 0.70248 0.84965 0.27838 0.0
C457 C 0.72067 0.84054 0.26526 0.0
C458 C 0.7339 0.73907 0.20886 0.0
C459 C 0.74055 0.71046 0.31024 0.0
O460 O 0.77865 0.6866 0.23099 0.0
O461 O 0.8131 0.68429 0.28505 0.0
O462 O 0.83127 0.77975 0.28507 0.0
O463 O 0.83037 0.73688 0.3242 0.0
O464 O 0.82473 0.76522 0.22408 0.0
O465 O 0.82434 0.81507 0.22903 0.0
O466 O 0.79722 0.82532 0.29344 0.0
O467 O 0.76002 0.82392 0.24046 0.0
O468 O 0.7445 0.73057 0.24157 0.0
O469 O 0.74736 0.7733 0.20174 0.0
O470 O 0.7518 0.74523 0.30305 0.0
O471 O 0.75039 0.69514 0.29605 0.0
H472 H 0.77262 0.63579 0.19877 0.0
H473 H 0.8054 0.62103 0.17585 0.0
H474 H 0.9033 0.67765 0.25504 0.0
H475 H 0.87049 0.69253 0.27791 0.0
H476 H 0.79737 0.86122 0.334 0.0
H477 H 0.76548 0.87696 0.35695 0.0
H478 H 0.6761 0.84657 0.26251 0.0
H479 H 0.70799 0.83089 0.23941 0.0
Sm480 Sm 0.80917 0.23828 0.7839 0.0
Sm481 Sm 0.75536 0.2633 0.73823 0.0
C482 C 0.86 0.22202 0.82584 0.0
C483 C 0.85734 0.18715 0.84274 0.0
C484 C 0.83606 0.16615 0.86642 0.0
C485 C 0.82985 0.13124 0.87835 0.0
C486 C 0.84425 0.11668 0.86627 0.0
C487 C 0.86598 0.13785 0.84315 0.0
C488 C 0.87264 0.17283 0.83168 0.0
C489 C 0.75936 0.19868 0.72892 0.0
C490 C 0.73223 0.19675 0.79909 0.0
C491 C 0.70485 0.27961 0.69536 0.0
C492 C 0.70882 0.31483 0.67934 0.0
C493 C 0.74217 0.34224 0.67426 0.0
C494 C 0.74809 0.3772 0.66475 0.0
C495 C 0.72091 0.38519 0.66075 0.0
C496 C 0.68718 0.35747 0.66471 0.0
C497 C 0.68123 0.32254 0.67404 0.0
C498 C 0.8049 0.30318 0.79326 0.0
C499 C 0.83137 0.3033 0.72164 0.0
O500 O 0.84578 0.23461 0.83733 0.0
O501 O 0.85278 0.22626 0.79122 0.0
O502 O 0.77523 0.23187 0.72711 0.0
O503 O 0.77016 0.18471 0.76038 0.0
O504 O 0.76666 0.2065 0.8141 0.0
O505 O 0.72075 0.2106 0.76698 0.0
O506 O 0.7199 0.26765 0.68428 0.0
O507 O 0.71115 0.27485 0.72988 0.0
O508 O 0.78955 0.26995 0.79523 0.0
O509 O 0.79335 0.31672 0.76183 0.0
O510 O 0.7968 0.29272 0.70702 0.0
O511 O 0.84346 0.29101 0.7544 0.0
H512 H 0.82356 0.17632 0.87516 0.0
H513 H 0.8134 0.11546 0.89654 0.0
H514 H 0.87818 0.12745 0.83426 0.0
H515 H 0.88899 0.18843 0.81337 0.0
H516 H 0.76407 0.33683 0.67888 0.0
H517 H 0.7742 0.39806 0.66169 0.0
H518 H 0.66545 0.36285 0.6609 0.0
H519 H 0.65554 0.30176 0.67826 0.0
Sm520 Sm 0.76438 0.7283 0.72958 0.0
Sm521 Sm 0.80214 0.77659 0.78944 0.0
C522 C 0.75314 0.69988 0.67419 0.0
C523 C 0.77337 0.69045 0.66141 0.0
C524 C 0.81103 0.70968 0.66896 0.0
C525 C 0.82977 0.6991 0.65818 0.0
C526 C 0.81133 0.66887 0.63987 0.0
C527 C 0.77354 0.6498 0.63237 0.0
C528 C 0.75485 0.66051 0.643 0.0
C529 C 0.7217 0.69782 0.77657 0.0
C530 C 0.82993 0.71002 0.80522 0.0
C531 C 0.81365 0.80475 0.84514 0.0
C532 C 0.79339 0.81359 0.85845 0.0
C533 C 0.75568 0.79768 0.84676 0.0
C534 C 0.73708 0.80807 0.85801 0.0
C535 C 0.75582 0.83472 0.88104 0.0
C536 C 0.79365 0.85038 0.89273 0.0
C537 C 0.81217 0.83992 0.88154 0.0
C538 C 0.84521 0.80713 0.74296 0.0
C539 C 0.7365 0.79482 0.71366 0.0
O540 O 0.76399 0.73366 0.67354 0.0
O541 O 0.74409 0.68115 0.7031 0.0
O542 O 0.75107 0.72631 0.77831 0.0
O543 O 0.71271 0.68533 0.74727 0.0
O544 O 0.80733 0.7042 0.77134 0.0
O545 O 0.83141 0.73631 0.81813 0.0
O546 O 0.80315 0.77108 0.84572 0.0
O547 O 0.82193 0.82353 0.81593 0.0
O548 O 0.81571 0.77867 0.74077 0.0
O549 O 0.85396 0.81943 0.77229 0.0
O550 O 0.75908 0.80063 0.74758 0.0
O551 O 0.73507 0.76855 0.70078 0.0
H552 H 0.82599 0.73267 0.68348 0.0
H553 H 0.85875 0.71478 0.66407 0.0
H554 H 0.75836 0.62608 0.61893 0.0
H555 H 0.72584 0.64502 0.63728 0.0
H556 H 0.74065 0.7775 0.82866 0.0
H557 H 0.70799 0.7951 0.84876 0.0
H558 H 0.80909 0.87134 0.90996 0.0
H559 H 0.84129 0.85284 0.8905 0.0
Sm560 Sm 0.52326 0.47048 0.48405 0.0
Sm561 Sm 0.54066 0.53181 0.52877 0.0
C562 C 0.52031 0.43464 0.43998 0.0
C563 C 0.54207 0.4295 0.42498 0.0
C564 C 0.57937 0.44286 0.4399 0.0
C565 C 0.5984 0.43245 0.42927 0.0
C566 C 0.58042 0.40827 0.40373 0.0
C567 C 0.54332 0.39631 0.38782 0.0
C568 C 0.52441 0.40679 0.39836 0.0
C569 C 0.49155 0.43942 0.5408 0.0
C570 C 0.60215 0.50948 0.54285 0.0
C571 C 0.54479 0.5679 0.57332 0.0
C572 C 0.52372 0.57287 0.58933 0.0
C573 C 0.48614 0.55271 0.58137 0.0
C574 C 0.46646 0.56162 0.59281 0.0
C575 C 0.48402 0.59104 0.61216 0.0
C576 C 0.52185 0.61033 0.62087 0.0
C577 C 0.54139 0.60128 0.60962 0.0
C578 C 0.57154 0.56264 0.47154 0.0
C579 C 0.46175 0.49284 0.47013 0.0
O580 O 0.51682 0.4636 0.42915 0.0
O581 O 0.52379 0.42474 0.47402 0.0
O582 O 0.5109 0.4721 0.53236 0.0
O583 O 0.48983 0.42201 0.51895 0.0
O584 O 0.58284 0.49156 0.51475 0.0
O585 O 0.58994 0.52291 0.55655 0.0
O586 O 0.54857 0.53911 0.58389 0.0
O587 O 0.54008 0.57742 0.53911 0.0
O588 O 0.55292 0.53002 0.48067 0.0
O589 O 0.57278 0.58036 0.49272 0.0
O590 O 0.48094 0.51029 0.49858 0.0
O591 O 0.4741 0.47981 0.45609 0.0
H592 H 0.59347 0.46016 0.46074 0.0
H593 H 0.62687 0.44206 0.44227 0.0
H594 H 0.52868 0.37819 0.36766 0.0
H595 H 0.49561 0.396 0.38664 0.0
H596 H 0.47199 0.5308 0.56547 0.0
H597 H 0.43747 0.54578 0.58602 0.0
H598 H 0.53643 0.63345 0.63512 0.0
H599 H 0.57036 0.61746 0.61561 0.0
Sm600 Sm 1.02554 0.4991 0.04124 0.0
Sm601 Sm 0.04159 0.50676 0.97588 0.0
C602 C 1.02404 0.51476 0.09806 0.0
C603 C 1.00615 0.52864 0.10847 0.0
C604 C 1.02649 0.56238 0.12042 0.0
C605 C 1.01055 0.5763 0.13071 0.0
C606 C 0.97397 0.55658 0.12971 0.0
C607 C 0.95357 0.52273 0.11777 0.0
C608 C 0.96951 0.50888 0.1072 0.0
C609 C 0.97153 0.45045 0.99603 0.0
C610 C 0.99079 0.55009 0.96465 0.0
C611 C 0.04339 0.49126 0.91915 0.0
C612 C 0.06229 0.47814 0.90926 0.0
C613 C 0.04353 0.44357 0.8995 0.0
C614 C 0.06067 0.4304 0.89002 0.0
C615 C 0.09679 0.45171 0.88969 0.0
C616 C 0.11553 0.48644 0.89912 0.0
C617 C 0.09846 0.49955 0.90892 0.0
C618 C 0.09512 0.55654 0.01997 0.0
C619 C 0.07611 0.45558 0.0526 0.0
O620 O 0.04607 0.53736 0.07882 0.0
O621 O 1.00515 0.48257 0.08841 0.0
O622 O 0.9898 0.48303 0.98821 0.0
O623 O 0.98052 0.4415 0.03013 0.0
O624 O 0.99748 0.53914 1.00067 0.0
O625 O 1.00477 0.5394 0.94861 0.0
O626 O 1.02158 0.46841 0.93854 0.0
O627 O 0.06152 0.52356 0.92842 0.0
O628 O 0.07766 0.52391 0.02868 0.0
O629 O 0.08566 0.56458 0.98576 0.0
O630 O 0.06966 0.46674 0.01662 0.0
O631 O 0.06195 0.4661 0.06857 0.0
H632 H 0.05484 0.57808 0.12176 0.0
H633 H 1.0269 0.60266 0.13924 0.0
H634 H 0.92543 0.50668 0.11715 0.0
H635 H 0.95318 0.48269 0.09826 0.0
H636 H 1.0155 0.42669 0.89914 0.0
H637 H 0.04547 0.40372 0.88234 0.0
H638 H 0.14348 0.50332 0.89923 0.0
H639 H 0.1136 0.52637 0.91619 0.0
H640 H 0.20142 0.22839 0.83187 0.0
H641 H 0.2183 0.14015 0.83835 0.0
H642 H 0.16128 0.19283 0.86972 0.0
H643 H 0.17921 0.10476 0.87759 0.0
H644 H 0.0846 0.03879 0.92985 0.0
H645 H 0.12199 0.07179 0.88814 0.0
H646 H 0.15781 0.1698 0.92643 0.0
H647 H 0.11997 0.1374 0.96611 0.0
C648 C 0.19692 0.20147 0.84162 0.0
C649 C 0.21361 0.18756 0.83187 0.0
C650 C 0.17383 0.18084 0.86378 0.0
C651 C 0.16672 0.14546 0.87763 0.0
C652 C 0.18327 0.13149 0.86756 0.0
C653 C 0.20613 0.15208 0.84508 0.0
C654 C 0.10031 0.0674 0.92905 0.0
C655 C 0.09876 0.08525 0.95134 0.0
C656 C 0.1221 0.08652 0.90521 0.0
C657 C 0.14314 0.12406 0.90304 0.0
C658 C 0.14165 0.14136 0.92593 0.0
C659 C 0.1199 0.12247 0.94926 0.0
H660 H 0.16189 0.04096 0.02532 0.0
H661 H 0.13381 0.00631 0.1242 0.0
H662 H 0.21391 0.03067 0.05386 0.0
H663 H 0.18437 0.99407 0.15246 0.0
H664 H 0.25399 0.94832 0.1951 0.0
H665 H 0.24298 0.99946 0.17253 0.0
H666 H 0.20578 0.97232 0.06557 0.0
H667 H 0.21761 0.92236 0.08807 0.0
C668 C 0.16763 0.03216 0.05351 0.0
C669 C 0.14358 0.02342 0.07252 0.0
C670 C 0.1973 0.02619 0.06983 0.0
C671 C 0.20254 0.01019 0.10503 0.0
C672 C 0.18123 0.00624 0.12524 0.0
C673 C 0.15199 0.01302 0.10906 0.0
C674 C 0.24466 0.95423 0.16667 0.0
C675 C 0.23565 0.93094 0.14334 0.0
C676 C 0.23836 0.98346 0.15375 0.0
C677 C 0.22245 0.98945 0.11738 0.0
C678 C 0.21808 0.96877 0.09377 0.0
C679 C 0.22469 0.93982 0.10666 0.0
H680 H 0.42645 0.87465 0.50824 0.0
H681 H 0.45417 0.96149 0.4253 0.0
H682 H 0.38245 0.83384 0.46269 0.0
H683 H 0.4115 0.9209 0.38051 0.0
H684 H 0.36906 0.82991 0.3166 0.0
H685 H 0.41069 0.86383 0.36714 0.0
H686 H 0.32172 0.83242 0.40677 0.0
H687 H 0.27966 0.79872 0.35564 0.0
C688 C 0.42316 0.88492 0.48042 0.0
C689 C 0.44382 0.92105 0.4702 0.0
C690 C 0.39811 0.86171 0.45455 0.0
C691 C 0.39412 0.87444 0.41837 0.0
C692 C 0.41452 0.91055 0.40832 0.0
C693 C 0.43887 0.93369 0.43396 0.0
C694 C 0.35839 0.83003 0.3362 0.0
C695 C 0.32123 0.81218 0.33214 0.0
C696 C 0.38216 0.84931 0.36505 0.0
C697 C 0.36918 0.85055 0.39056 0.0
C698 C 0.33217 0.83151 0.3874 0.0
C699 C 0.30824 0.81259 0.35815 0.0
H700 H 0.31513 0.09201 0.66221 0.0
H701 H 0.41969 0.17604 0.70792 0.0
H702 H 0.34347 0.0707 0.64075 0.0
H703 H 0.44798 0.1543 0.68685 0.0
H704 H 0.48231 0.07323 0.68799 0.0
H705 H 0.4543 0.09896 0.70362 0.0
H706 H 0.38009 0.08839 0.59858 0.0
H707 H 0.40866 0.06325 0.58248 0.0
C708 C 0.3441 0.1063 0.66716 0.0
C709 C 0.36521 0.13559 0.68696 0.0
C710 C 0.36029 0.09404 0.65491 0.0
C711 C 0.39788 0.11071 0.66239 0.0
C712 C 0.41894 0.14063 0.68122 0.0
C713 C 0.40276 0.15301 0.69331 0.0
C714 C 0.46036 0.07682 0.66801 0.0
C715 C 0.44783 0.06633 0.63392 0.0
C716 C 0.44432 0.09155 0.677 0.0
C717 C 0.41522 0.09586 0.65222 0.0
C718 C 0.40238 0.08513 0.61823 0.0
C719 C 0.41863 0.07061 0.60911 0.0
H720 H 0.19873 0.94416 0.68382 0.0
H721 H 0.09634 0.86548 0.7042 0.0
H722 H 0.215 0.89833 0.69321 0.0
H723 H 0.11239 0.81893 0.71206 0.0
H724 H 0.18374 0.7608 0.76354 0.0
H725 H 0.15648 0.79844 0.75193 0.0
H726 H 0.19384 0.85007 0.65796 0.0
H727 H 0.2225 0.81302 0.67057 0.0
C728 C 0.18 0.9172 0.69129 0.0
C729 C 0.14614 0.90848 0.69325 0.0
C730 C 0.189 0.89082 0.69567 0.0
C731 C 0.16436 0.85513 0.70195 0.0
C732 C 0.13156 0.84635 0.70659 0.0
C733 C 0.12251 0.87292 0.70231 0.0
C734 C 0.18577 0.7799 0.74021 0.0
C735 C 0.2062 0.78499 0.71863 0.0
C736 C 0.1698 0.80114 0.73335 0.0
C737 C 0.17394 0.82765 0.70463 0.0
C738 C 0.19116 0.83025 0.68085 0.0
C739 C 0.20726 0.80897 0.68783 0.0
H740 H 0.35603 0.87201 0.75981 0.0
H741 H 0.34616 0.78766 0.84565 0.0
H742 H 0.3942 0.91561 0.80232 0.0
H743 H 0.37991 0.83034 0.88845 0.0
H744 H 0.46561 0.91233 0.9616 0.0
H745 H 0.43212 0.87026 0.91802 0.0
H746 H 0.39978 0.94505 0.84216 0.0
H747 H 0.43734 0.98844 0.88472 0.0
C748 C 0.36139 0.8628 0.7879 0.0
C749 C 0.34744 0.82639 0.79944 0.0
C750 C 0.383 0.88783 0.81251 0.0
C751 C 0.39029 0.87704 0.8494 0.0
C752 C 0.37593 0.84033 0.86061 0.0
C753 C 0.3556 0.8155 0.83596 0.0
C754 C 0.45205 0.91996 0.9353 0.0
C755 C 0.45483 0.95392 0.92634 0.0
C756 C 0.432 0.89548 0.91026 0.0
C757 C 0.41269 0.9037 0.87597 0.0
C758 C 0.41482 0.93761 0.86759 0.0
C759 C 0.43608 0.96254 0.89224 0.0
H760 H 0.41449 0.06622 0.10999 0.0
H761 H 0.40773 0.13812 0.01446 0.0
H762 H 0.38223 0.08327 0.13114 0.0
H763 H 0.37471 0.15434 0.03512 0.0
H764 H 0.35542 0.20593 0.10208 0.0
H765 H 0.38647 0.18743 0.08113 0.0
H766 H 0.32242 0.07846 0.1185 0.0
H767 H 0.29189 0.09709 0.14026 0.0
C768 C 0.40609 0.0856 0.09346 0.0
C769 C 0.4138 0.10078 0.06049 0.0
C770 C 0.38727 0.09512 0.10544 0.0
C771 C 0.37592 0.12027 0.08489 0.0
C772 C 0.38338 0.1352 0.05183 0.0
C773 C 0.40198 0.12556 0.03979 0.0
C774 C 0.34813 0.17806 0.10611 0.0
C775 C 0.32119 0.15307 0.12298 0.0
C776 C 0.36568 0.16738 0.09374 0.0
C777 C 0.35695 0.13143 0.09804 0.0
C778 C 0.33006 0.10639 0.11499 0.0
C779 C 0.31231 0.11705 0.12717 0.0
H780 H 0.05117 0.06904 0.38908 0.0
H781 H 0.15019 0.0864 0.47111 0.0
H782 H 0.08524 0.10662 0.34594 0.0
H783 H 0.18433 0.1236 0.42783 0.0
H784 H 0.15309 0.14145 0.26953 0.0
H785 H 0.11933 0.10771 0.31326 0.0
H786 H 0.20468 0.17926 0.39028 0.0
H787 H 0.23893 0.21285 0.34614 0.0
C788 C 0.08022 0.08071 0.39801 0.0
C789 C 0.09766 0.07423 0.43384 0.0
C790 C 0.09993 0.10232 0.37308 0.0
C791 C 0.13788 0.11841 0.38297 0.0
C792 C 0.15531 0.11224 0.41894 0.0
C793 C 0.13558 0.09052 0.44387 0.0
C794 C 0.16467 0.1503 0.29569 0.0
C795 C 0.19883 0.18016 0.30403 0.0
C796 C 0.14507 0.1309 0.32092 0.0
C797 C 0.15888 0.14042 0.35572 0.0
C798 C 0.19304 0.17063 0.36404 0.0
C799 C 0.21266 0.19024 0.33856 0.0
H800 H 0.8625 0.21538 0.07947 0.0
H801 H 0.87771 0.17327 0.19006 0.0
H802 H 0.89117 0.18596 0.07128 0.0
H803 H 0.9058 0.14327 0.18181 0.0
H804 H 0.98786 0.12424 0.16326 0.0
H805 H 0.95787 0.15177 0.17237 0.0
H806 H 0.88441 0.13082 0.06744 0.0
H807 H 0.91583 0.10536 0.05748 0.0
C808 C 0.87148 0.19945 0.102 0.0
C809 C 0.86743 0.19669 0.13542 0.0
C810 C 0.88795 0.18241 0.09728 0.0
C811 C 0.9008 0.16188 0.12578 0.0
C812 C 0.8968 0.15915 0.15924 0.0
C813 C 0.88051 0.17638 0.164 0.0
C814 C 0.9655 0.1257 0.14194 0.0
C815 C 0.95465 0.11265 0.10946 0.0
C816 C 0.94789 0.14116 0.14738 0.0
C817 C 0.91867 0.1439 0.12061 0.0
C818 C 0.90717 0.12991 0.08853 0.0
C819 C 0.92491 0.11466 0.083 0.0
H820 H 0.07461 0.52262 0.4053 0.0
H821 H 0.12111 0.61331 0.4614 0.0
H822 H 0.11189 0.55954 0.36454 0.0
H823 H 0.15871 0.64997 0.42087 0.0
H824 H 0.24966 0.68537 0.36995 0.0
H825 H 0.21068 0.64771 0.40883 0.0
H826 H 0.11809 0.61634 0.31735 0.0
H827 H 0.15703 0.65457 0.27815 0.0
C828 C 0.0928 0.5504 0.40893 0.0
C829 C 0.09507 0.56513 0.43655 0.0
C830 C 0.11392 0.57147 0.38552 0.0
C831 C 0.1381 0.60742 0.38976 0.0
C832 C 0.14034 0.6222 0.41728 0.0
C833 C 0.11876 0.6013 0.4403 0.0
C834 C 0.22102 0.6703 0.35806 0.0
C835 C 0.20633 0.67291 0.32102 0.0
C836 C 0.19877 0.64898 0.38033 0.0
C837 C 0.16151 0.62941 0.36597 0.0
C838 C 0.14682 0.63122 0.32894 0.0
C839 C 0.16904 0.65309 0.30661 0.0
H840 H 0.60432 0.93358 0.63095 0.0
H841 H 0.60473 0.91684 0.53339 0.0
H842 H 0.63835 0.90067 0.66433 0.0
H843 H 0.63795 0.88302 0.56678 0.0
H844 H 0.69485 0.8034 0.63683 0.0
H845 H 0.6616 0.83707 0.60309 0.0
H846 H 0.68496 0.87698 0.69816 0.0
H847 H 0.71905 0.8441 0.73168 0.0
C848 C 0.61093 0.92327 0.61524 0.0
C849 C 0.59886 0.9308 0.57658 0.0
C850 C 0.63178 0.90313 0.63569 0.0
C851 C 0.64384 0.8862 0.62122 0.0
C852 C 0.6315 0.89347 0.5825 0.0
C853 C 0.61117 0.91417 0.56204 0.0
C854 C 0.69379 0.81909 0.65187 0.0
C855 C 0.71259 0.81814 0.68991 0.0
C856 C 0.67345 0.83973 0.63121 0.0
C857 C 0.66759 0.86266 0.64493 0.0
C858 C 0.68613 0.86144 0.68305 0.0
C859 C 0.70701 0.84131 0.70358 0.0
H860 H 0.45157 0.40212 0.98501 0.0
H861 H 0.53458 0.43236 0.93697 0.0
H862 H 0.40829 0.35772 0.94334 0.0
H863 H 0.49084 0.38839 0.89453 0.0
H864 H 0.38464 0.33914 0.8003 0.0
H865 H 0.43044 0.38152 0.84343 0.0
H866 H 0.40119 0.29911 0.92927 0.0
H867 H 0.35596 0.25643 0.88613 0.0
C868 C 0.46056 0.3992 0.96556 0.0
C869 C 0.49646 0.4206 0.96426 0.0
C870 C 0.43582 0.37372 0.94182 0.0
C871 C 0.44622 0.36964 0.91574 0.0
C872 C 0.48212 0.3911 0.91434 0.0
C873 C 0.50713 0.41608 0.93866 0.0
C874 C 0.38813 0.33005 0.82838 0.0
C875 C 0.3668 0.29448 0.8399 0.0
C876 C 0.41443 0.35425 0.85302 0.0
C877 C 0.41939 0.34356 0.88965 0.0
C878 C 0.39787 0.30804 0.90117 0.0
C879 C 0.37209 0.28365 0.87653 0.0
H880 H 0.86667 0.84243 0.30906 0.0
H881 H 0.88192 0.75836 0.38457 0.0
H882 H 0.91073 0.88502 0.3524 0.0
H883 H 0.92733 0.80152 0.4274 0.0
H884 H 0.03674 0.91142 0.4667 0.0
H885 H 0.99411 0.86667 0.42459 0.0
H886 H 0.90862 0.88448 0.42129 0.0
H887 H 0.9504 0.92766 0.46429 0.0
C888 C 0.87946 0.83305 0.33486 0.0
C889 C 0.87046 0.79694 0.34355 0.0
C890 C 0.90478 0.85746 0.35957 0.0
C891 C 0.92242 0.84651 0.39314 0.0
C892 C 0.9142 0.81061 0.4016 0.0
C893 C 0.88815 0.78597 0.37717 0.0
C894 C 1.00881 0.90556 0.45712 0.0
C895 C 0.99701 0.92329 0.46858 0.0
C896 C 0.98448 0.87998 0.43314 0.0
C897 C 0.9482 0.87237 0.41962 0.0
C898 C 0.93649 0.89006 0.43113 0.0
C899 C 0.96048 0.91482 0.4557 0.0
H900 H 0.50142 0.61972 0.67252 0.0
H901 H 0.41951 0.5901 0.57293 0.0
H902 H 0.47019 0.64399 0.68517 0.0
H903 H 0.38794 0.61355 0.58618 0.0
H904 H 0.32452 0.63122 0.6373 0.0
H905 H 0.35458 0.60351 0.62799 0.0
H906 H 0.4573 0.69516 0.66091 0.0
H907 H 0.42727 0.72269 0.67056 0.0
C908 C 0.47679 0.61831 0.65327 0.0
C909 C 0.46323 0.603 0.62154 0.0
C910 C 0.45885 0.63222 0.66062 0.0
C911 C 0.42663 0.63087 0.63664 0.0
C912 C 0.41248 0.61468 0.60542 0.0
C913 C 0.43058 0.60107 0.5979 0.0
C914 C 0.35355 0.64531 0.64285 0.0
C915 C 0.37347 0.67923 0.65457 0.0
C916 C 0.37075 0.62955 0.63724 0.0
C917 C 0.40835 0.64712 0.64363 0.0
C918 C 0.42833 0.68077 0.65598 0.0
C919 C 0.4111 0.69669 0.6612 0.0
H920 H 0.58529 0.11197 0.92573 0.0
H921 H 0.60564 0.02524 0.93411 0.0
H922 H 0.62248 0.14675 0.88464 0.0
H923 H 0.64256 0.05999 0.89314 0.0
H924 H 0.74314 0.15354 0.85937 0.0
H925 H 0.70228 0.11562 0.89631 0.0
H926 H 0.62209 0.14489 0.82254 0.0
H927 H 0.66296 0.18298 0.78541 0.0
C928 C 0.59758 0.10031 0.91877 0.0
C929 C 0.59264 0.06594 0.93328 0.0
C930 C 0.61862 0.1201 0.89509 0.0
C931 C 0.63534 0.10598 0.88582 0.0
C932 C 0.63018 0.07157 0.9001 0.0
C933 C 0.60892 0.05168 0.92346 0.0
C934 C 0.71669 0.15167 0.85084 0.0
C935 C 0.70628 0.1713 0.81955 0.0
C936 C 0.69328 0.12987 0.87192 0.0
C937 C 0.65916 0.12754 0.8623 0.0
C938 C 0.64842 0.14656 0.83067 0.0
C939 C 0.6717 0.16809 0.80933 0.0
H940 H 0.10782 0.43719 0.13001 0.0
H941 H 0.10255 0.41497 0.03243 0.0
H942 H 0.14155 0.40399 0.16337 0.0
H943 H 0.13545 0.38086 0.06585 0.0
H944 H 0.1917 0.30085 0.13654 0.0
H945 H 0.15873 0.33479 0.10278 0.0
H946 H 0.18789 0.37987 0.19652 0.0
H947 H 0.22168 0.3467 0.23001 0.0
C948 C 0.11307 0.42558 0.1143 0.0
C949 C 0.09957 0.43172 0.07563 0.0
C950 C 0.13374 0.40526 0.13473 0.0
C951 C 0.14413 0.38674 0.12027 0.0
C952 C 0.13035 0.39261 0.08156 0.0
C953 C 0.11022 0.41349 0.06108 0.0
C954 C 0.19201 0.31776 0.15127 0.0
C955 C 0.21228 0.31812 0.18893 0.0
C956 C 0.17184 0.33856 0.1306 0.0
C957 C 0.16768 0.36301 0.14397 0.0
C958 C 0.18769 0.3631 0.18172 0.0
C959 C 0.20839 0.34279 0.20223 0.0
H960 H 0.55623 0.56443 0.89164 0.0
H961 H 0.65604 0.58431 0.97322 0.0
H962 H 0.5895 0.60234 0.84809 0.0
H963 H 0.68953 0.62213 0.92934 0.0
H964 H 0.65657 0.6385 0.77075 0.0
H965 H 0.62408 0.60384 0.81541 0.0
H966 H 0.70772 0.67816 0.89063 0.0
H967 H 0.74056 0.71284 0.84548 0.0
C968 C 0.58533 0.57672 0.9004 0.0
C969 C 0.60319 0.5708 0.93623 0.0
C970 C 0.60457 0.59854 0.87519 0.0
C971 C 0.64252 0.61551 0.88474 0.0
C972 C 0.66045 0.60998 0.92072 0.0
C973 C 0.64114 0.58794 0.94598 0.0
C974 C 0.66804 0.64775 0.7967 0.0
C975 C 0.70132 0.67874 0.80423 0.0
C976 C 0.64919 0.6278 0.82248 0.0
C977 C 0.66291 0.63786 0.85705 0.0
C978 C 0.69621 0.66911 0.86459 0.0
C979 C 0.71503 0.6893 0.83854 0.0
H980 H 0.66819 0.25921 0.19221 0.0
H981 H 0.74961 0.35035 0.24851 0.0
H982 H 0.62149 0.27071 0.19283 0.0
H983 H 0.70393 0.36367 0.24719 0.0
H984 H 0.63092 0.39113 0.24759 0.0
H985 H 0.65606 0.35028 0.26695 0.0
H986 H 0.59937 0.30999 0.16438 0.0
H987 H 0.57309 0.34859 0.14633 0.0
C988 C 0.67599 0.28242 0.20359 0.0
C989 C 0.71224 0.30474 0.21918 0.0
C990 C 0.64935 0.28872 0.20451 0.0
C991 C 0.65873 0.31795 0.22034 0.0
C992 C 0.69534 0.3403 0.23566 0.0
C993 C 0.72172 0.33343 0.23551 0.0
C994 C 0.62244 0.37211 0.23007 0.0
C995 C 0.60139 0.37411 0.19498 0.0
C996 C 0.63715 0.34904 0.24089 0.0
C997 C 0.63163 0.32864 0.21632 0.0
C998 C 0.605 0.32579 0.18387 0.0
C999 C 0.58972 0.34817 0.17342 0.0
H1000 H 0.94047 0.40973 0.4614 0.0
H1001 H 0.96552 0.50141 0.38336 0.0
H1002 H 0.9055 0.37091 0.41416 0.0
H1003 H 0.93228 0.46285 0.33602 0.0
H1004 H 0.87508 0.30901 0.3258 0.0
H1005 H 0.90986 0.3485 0.37231 0.0
H1006 H 0.87541 0.42442 0.30348 0.0
H1007 H 0.84216 0.38539 0.25638 0.0
C1008 C 0.93865 0.42153 0.43407 0.0
C1009 C 0.95554 0.45854 0.42601 0.0
C1010 C 0.91885 0.3993 0.40691 0.0
C1011 C 0.91599 0.41355 0.371 0.0
C1012 C 0.93317 0.45074 0.36314 0.0
C1013 C 0.95247 0.47293 0.39031 0.0
C1014 C 0.8752 0.33429 0.32061 0.0
C1015 C 0.8561 0.34425 0.28747 0.0
C1016 C 0.89487 0.35686 0.34742 0.0
C1017 C 0.89546 0.38978 0.34199 0.0
C1018 C 0.87623 0.39965 0.30863 0.0
C1019 C 0.85699 0.37724 0.28159 0.0
H1020 H 0.58762 0.62814 0.43635 0.0
H1021 H 0.60235 0.53824 0.4445 0.0
H1022 H 0.62599 0.662 0.397 0.0
H1023 H 0.64302 0.57292 0.40629 0.0
H1024 H 0.6993 0.63759 0.31756 0.0
H1025 H 0.65698 0.60068 0.35319 0.0
H1026 H 0.68284 0.69454 0.39246 0.0
H1027 H 0.72356 0.73128 0.35531 0.0
C1028 C 0.59907 0.61548 0.42957 0.0
C1029 C 0.59151 0.58025 0.44358 0.0
C1030 C 0.62183 0.63528 0.40721 0.0
C1031 C 0.63897 0.62112 0.39845 0.0
C1032 C 0.63055 0.58526 0.41179 0.0
C1033 C 0.60702 0.56508 0.43382 0.0
C1034 C 0.69592 0.65042 0.33376 0.0
C1035 C 0.71506 0.68774 0.33319 0.0
C1036 C 0.67156 0.62902 0.35459 0.0
C1037 C 0.66557 0.64398 0.37612 0.0
C1038 C 0.68533 0.6814 0.37586 0.0
C1039 C 0.70926 0.70281 0.35461 0.0
H1040 H 0.83803 0.28127 0.85853 0.0
H1041 H 0.81932 0.36918 0.79833 0.0
H1042 H 0.87591 0.3152 0.90959 0.0
H1043 H 0.85486 0.40221 0.8498 0.0
H1044 H 0.95696 0.46923 0.92563 0.0
H1045 H 0.9154 0.43221 0.87863 0.0
H1046 H 0.8806 0.34115 0.95618 0.0
H1047 H 0.92484 0.37872 1.00408 0.0
C1048 C 0.84185 0.30778 0.85641 0.0
C1049 C 0.82652 0.32301 0.82441 0.0
C1050 C 0.86312 0.32703 0.88578 0.0
C1051 C 0.86883 0.36163 0.88376 0.0
C1052 C 0.85196 0.37605 0.85204 0.0
C1053 C 0.83147 0.35714 0.82253 0.0
C1054 C 0.94054 0.4413 0.93286 0.0
C1055 C 0.94426 0.42677 0.96855 0.0
C1056 C 0.91625 0.42005 0.90575 0.0
C1057 C 0.89417 0.38371 0.91347 0.0
C1058 C 0.89744 0.36904 0.94931 0.0
C1059 C 0.9225 0.39046 0.97672 0.0
H1060 H 0.87147 0.78121 0.19121 0.0
H1061 H 0.85504 0.86941 0.18607 0.0
H1062 H 0.9117 0.81713 0.15349 0.0
H1063 H 0.89422 0.90518 0.14695 0.0
H1064 H 0.98912 0.97142 0.09496 0.0
H1065 H 0.95161 0.93814 0.13656 0.0
H1066 H 0.91481 0.8406 0.09674 0.0
H1067 H 0.95276 0.87322 0.0572 0.0
C1068 C 0.8761 0.80821 0.18178 0.0
C1069 C 0.85952 0.822 0.19184 0.0
C1070 C 0.89922 0.82904 0.1597 0.0
C1071 C 0.90646 0.86451 0.14626 0.0
C1072 C 0.89005 0.87838 0.15667 0.0
C1073 C 0.86714 0.85758 0.17907 0.0
C1074 C 0.97316 0.94285 0.09541 0.0
C1075 C 0.97449 0.92518 0.07277 0.0
C1076 C 0.95132 0.92359 0.11918 0.0
C1077 C 0.93001 0.88609 0.12089 0.0
C1078 C 0.93121 0.86898 0.0976 0.0
C1079 C 0.95302 0.88801 0.07435 0.0
H1080 H 0.82237 0.06386 0.82796 0.0
H1081 H 0.85633 0.08863 0.93501 0.0
H1082 H 0.83225 0.01206 0.85068 0.0
H1083 H 0.86753 0.03825 0.95777 0.0
H1084 H 0.94032 0.00401 0.90011 0.0
H1085 H 0.88995 0.01637 0.87137 0.0
H1086 H 0.85979 0.98034 0.96964 0.0
H1087 H 0.91177 0.97006 0.9987 0.0
C1088 C 0.83097 0.05753 0.85642 0.0
C1089 C 0.83959 0.08055 0.8798 0.0
C1090 C 0.83666 0.02796 0.86943 0.0
C1091 C 0.8518 0.02155 0.90593 0.0
C1092 C 0.85583 0.04209 0.92948 0.0
C1093 C 0.84965 0.0713 0.91647 0.0
C1094 C 0.92205 0.99747 0.91508 0.0
C1095 C 0.93031 0.98731 0.95166 0.0
C1096 C 0.89289 0.0043 0.89861 0.0
C1097 C 0.87149 1.00059 0.91859 0.0
C1098 C 0.87651 0.9847 0.95386 0.0
C1099 C 0.90615 0.97872 0.97047 0.0
H1100 H 0.75084 0.22503 0.65937 0.0
H1101 H 0.71305 0.12815 0.72925 0.0
H1102 H 0.71241 0.19194 0.60791 0.0
H1103 H 0.67298 0.09516 0.67801 0.0
H1104 H 0.61248 0.12466 0.52388 0.0
H1105 H 0.65261 0.16059 0.57353 0.0
H1106 H 0.67553 0.07462 0.63317 0.0
H1107 H 0.63409 0.03855 0.58468 0.0
C1108 C 0.73394 0.19664 0.66361 0.0
C1109 C 0.73502 0.17891 0.69809 0.0
C1110 C 0.71175 0.17772 0.63417 0.0
C1111 C 0.6898 0.14081 0.63873 0.0
C1112 C 0.69025 0.1234 0.67345 0.0
C1113 C 0.71295 0.14223 0.70284 0.0
C1114 C 0.62652 0.11386 0.54756 0.0
C1115 C 0.62025 0.07899 0.55076 0.0
C1116 C 0.64949 0.13431 0.57597 0.0
C1117 C 0.6669 0.12028 0.60763 0.0
C1118 C 0.66175 0.08591 0.60975 0.0
C1119 C 0.63835 0.06537 0.58181 0.0
H1120 H 0.59478 0.8892 0.40986 0.0
H1121 H 0.65226 0.99264 0.357 0.0
H1122 H 0.62264 0.86579 0.39019 0.0
H1123 H 0.68055 0.96939 0.33783 0.0
H1124 H 0.68596 0.90381 0.27381 0.0
H1125 H 0.65856 0.92617 0.29534 0.0
H1126 H 0.68384 0.87281 0.39984 0.0
H1127 H 0.71072 0.84983 0.3781 0.0
C1128 C 0.61348 0.9069 0.39415 0.0
C1129 C 0.62132 0.94265 0.3848 0.0
C1130 C 0.62958 0.89359 0.38315 0.0
C1131 C 0.65355 0.91577 0.36236 0.0
C1132 C 0.66183 0.95166 0.35351 0.0
C1133 C 0.64596 0.96502 0.36475 0.0
C1134 C 0.68525 0.89651 0.30125 0.0
C1135 C 0.70036 0.87506 0.3243 0.0
C1136 C 0.66998 0.90963 0.31366 0.0
C1137 C 0.66934 0.90138 0.34928 0.0
C1138 C 0.68389 0.87943 0.37222 0.0
C1139 C 0.69942 0.8665 0.35986 0.0
H1140 H 0.80935 0.17892 0.23072 0.0
H1141 H 0.87897 0.2227 0.33023 0.0
H1142 H 0.84662 0.15444 0.23378 0.0
H1143 H 0.91608 0.19642 0.3341 0.0
H1144 H 0.98746 0.16167 0.32749 0.0
H1145 H 0.95764 0.19859 0.30616 0.0
H1146 H 0.85634 0.10695 0.26907 0.0
H1147 H 0.8852 0.07044 0.29073 0.0
C1148 C 0.83264 0.18312 0.2535 0.0
C1149 C 0.8413 0.20264 0.2804 0.0
C1150 C 0.85414 0.16924 0.25504 0.0
C1151 C 0.8846 0.17402 0.28378 0.0
C1152 C 0.89317 0.19313 0.31112 0.0
C1153 C 0.87158 0.2074 0.30943 0.0
C1154 C 0.959 0.14971 0.3138 0.0
C1155 C 0.93847 0.11276 0.31238 0.0
C1156 C 0.94198 0.17081 0.30182 0.0
C1157 C 0.90453 0.15528 0.28735 0.0
C1158 C 0.88524 0.11969 0.28047 0.0
C1159 C 0.90207 0.09863 0.29276 0.0
H1160 H 0.68803 0.20713 0.17626 0.0
H1161 H 0.7191 0.13142 0.25051 0.0
H1162 H 0.65028 0.16417 0.13282 0.0
H1163 H 0.68304 0.08898 0.20663 0.0
H1164 H 0.59037 0.00744 0.13433 0.0
H1165 H 0.62479 0.05024 0.17771 0.0
H1166 H 0.65073 0.13585 0.0932 0.0
H1167 H 0.61446 0.0928 0.04979 0.0
C1168 C 0.68691 0.18129 0.18314 0.0
C1169 C 0.70626 0.17245 0.21675 0.0
C1170 C 0.6655 0.15671 0.15814 0.0
C1171 C 0.66342 0.12289 0.166 0.0
C1172 C 0.68319 0.11434 0.19973 0.0
C1173 C 0.7041 0.13874 0.22489 0.0
C1174 C 0.60335 0.03545 0.12511 0.0
C1175 C 0.59989 0.04684 0.08878 0.0
C1176 C 0.62337 0.06006 0.14999 0.0
C1177 C 0.64098 0.09671 0.13921 0.0
C1178 C 0.63721 0.10799 0.10264 0.0
C1179 C 0.61664 0.08333 0.07769 0.0
H1180 H 0.77052 0.85231 0.94668 0.0
H1181 H 0.69661 0.84393 0.84155 0.0
H1182 H 0.7389 0.87181 0.96539 0.0
H1183 H 0.66491 0.86338 0.86032 0.0
H1184 H 0.59421 0.86106 0.91867 0.0
H1185 H 0.62633 0.84387 0.89777 0.0
H1186 H 0.72758 0.92081 0.95776 0.0
H1187 H 0.69541 0.93791 0.97877 0.0
C1188 C 0.74772 0.85492 0.92741 0.0
C1189 C 0.73618 0.84643 0.89256 0.0
C1190 C 0.72956 0.86617 0.93817 0.0
C1191 C 0.69928 0.86927 0.91441 0.0
C1192 C 0.68775 0.86082 0.87954 0.0
C1193 C 0.70594 0.84958 0.86877 0.0
C1194 C 0.62334 0.87469 0.92704 0.0
C1195 C 0.64214 0.90085 0.95053 0.0
C1196 C 0.64181 0.86479 0.91504 0.0
C1197 C 0.67963 0.88078 0.92616 0.0
C1198 C 0.69845 0.9074 0.94915 0.0
C1199 C 0.67998 0.91727 0.96118 0.0
H1200 H 0.91445 0.92474 0.54931 0.0
H1201 H 1.01358 0.94241 0.63127 0.0
H1202 H 0.88031 0.88585 0.59228 0.0
H1203 H 0.97956 0.90325 0.67402 0.0
H1204 H 0.91131 0.8651 0.75074 0.0
H1205 H 0.94486 0.90048 0.70707 0.0
H1206 H 0.86075 0.82934 0.6292 0.0
H1207 H 0.82673 0.79403 0.67334 0.0
C1208 C 0.92908 0.92035 0.57645 0.0
C1209 C 0.96703 0.93722 0.58657 0.0
C1210 C 0.90936 0.89767 0.6012 0.0
C1211 C 0.92684 0.89112 0.63705 0.0
C1212 C 0.96482 0.9078 0.64699 0.0
C1213 C 0.9845 0.93033 0.62226 0.0
C1214 C 0.89997 0.85667 0.72441 0.0
C1215 C 0.86621 0.8264 0.71585 0.0
C1216 C 0.91944 0.87704 0.6992 0.0
C1217 C 0.90592 0.86812 0.66419 0.0
C1218 C 0.87216 0.83752 0.65562 0.0
C1219 C 0.85267 0.81692 0.68109 0.0
H1220 H 0.12788 0.75781 0.85703 0.0
H1221 H 0.23369 0.84315 0.89725 0.0
H1222 H 0.10088 0.78917 0.86448 0.0
H1223 H 0.20669 0.87318 0.9073 0.0
H1224 H 0.14842 0.9348 0.89537 0.0
H1225 H 0.17521 0.90578 0.88239 0.0
H1226 H 0.08953 0.80331 0.90741 0.0
H1227 H 0.06236 0.83242 0.91888 0.0
C1228 C 0.14552 0.78327 0.86745 0.0
C1229 C 0.18316 0.79764 0.87664 0.0
C1230 C 0.12993 0.80112 0.87229 0.0
C1231 C 0.15141 0.83377 0.88689 0.0
C1232 C 0.18905 0.84835 0.89568 0.0
C1233 C 0.20464 0.83069 0.89046 0.0
C1234 C 0.13537 0.90608 0.89798 0.0
C1235 C 0.10313 0.88596 0.90792 0.0
C1236 C 0.15079 0.88933 0.89071 0.0
C1237 C 0.13466 0.85198 0.8937 0.0
C1238 C 0.10248 0.83202 0.9039 0.0
C1239 C 0.08688 0.84875 0.91067 0.0
H1240 H 0.99061 0.47139 0.61483 0.0
H1241 H 0.93977 0.37945 0.55914 0.0
H1242 H 0.95478 0.43595 0.65707 0.0
H1243 H 0.9036 0.34428 0.60117 0.0
H1244 H 0.81363 0.31704 0.64985 0.0
H1245 H 0.85392 0.35194 0.61212 0.0
H1246 H 0.94552 0.37759 0.70478 0.0
H1247 H 0.90506 0.34185 0.7431 0.0
C1248 C 0.97185 0.44361 0.61168 0.0
C1249 C 0.9677 0.42817 0.58357 0.0
C1250 C 0.95163 0.42338 0.63598 0.0
C1251 C 0.92652 0.38758 0.63216 0.0
C1252 C 0.92278 0.37196 0.60445 0.0
C1253 C 0.94347 0.39201 0.58053 0.0
C1254 C 0.84233 0.33022 0.66235 0.0
C1255 C 0.85622 0.3267 0.69949 0.0
C1256 C 0.86533 0.34995 0.64067 0.0
C1257 C 0.90266 0.36704 0.65564 0.0
C1258 C 0.91673 0.36448 0.69276 0.0
C1259 C 0.89365 0.3441 0.71457 0.0
H1260 H 0.41786 0.04205 0.46212 0.0
H1261 H 0.5011 0.11284 0.41133 0.0
H1262 H 0.38386 0.07495 0.42764 0.0
H1263 H 0.46828 0.14713 0.37869 0.0
H1264 H 0.40658 0.22815 0.34478 0.0
H1265 H 0.44019 0.19459 0.37758 0.0
H1266 H 0.34246 0.0973 0.35852 0.0
H1267 H 0.30925 0.13084 0.32366 0.0
C1268 C 0.43036 0.06474 0.44417 0.0
C1269 C 0.46518 0.07193 0.44247 0.0
C1270 C 0.40954 0.08484 0.42304 0.0
C1271 C 0.42048 0.11668 0.39754 0.0
C1272 C 0.45562 0.12426 0.3964 0.0
C1273 C 0.47572 0.10331 0.41641 0.0
C1274 C 0.39093 0.19952 0.34659 0.0
C1275 C 0.35231 0.18511 0.32856 0.0
C1276 C 0.41149 0.17899 0.36665 0.0
C1277 C 0.39692 0.14032 0.37373 0.0
C1278 C 0.35818 0.12593 0.35633 0.0
C1279 C 0.33787 0.14645 0.335 0.0
H1280 H 0.62202 0.60502 0.038 0.0
H1281 H 0.53919 0.57494 0.08621 0.0
H1282 H 0.66545 0.64936 0.07974 0.0
H1283 H 0.58305 0.61881 0.1287 0.0
H1284 H 0.68893 0.66873 0.22269 0.0
H1285 H 0.64351 0.62598 0.17978 0.0
H1286 H 0.67244 0.70802 0.09361 0.0
H1287 H 0.71728 0.75108 0.13651 0.0
C1288 C 0.61311 0.60795 0.05751 0.0
C1289 C 0.57722 0.58665 0.05881 0.0
C1290 C 0.63794 0.63338 0.0813 0.0
C1291 C 0.62761 0.6375 0.10743 0.0
C1292 C 0.59172 0.61607 0.10887 0.0
C1293 C 0.56664 0.59114 0.08451 0.0
C1294 C 0.68547 0.67766 0.19458 0.0
C1295 C 0.70657 0.71324 0.18289 0.0
C1296 C 0.65939 0.65324 0.17007 0.0
C1297 C 0.65443 0.66372 0.1334 0.0
C1298 C 0.67577 0.69924 0.12173 0.0
C1299 C 0.70133 0.72385 0.14624 0.0
H1300 H 0.19057 0.25316 0.63958 0.0
H1301 H 0.20296 0.16699 0.71358 0.0
H1302 H 0.14334 0.21095 0.59653 0.0
H1303 H 0.15693 0.12525 0.66992 0.0
H1304 H 0.11633 0.08824 0.55297 0.0
H1305 H 0.15937 0.13026 0.59683 0.0
H1306 H 0.07435 0.1434 0.60301 0.0
H1307 H 1.03048 0.09981 0.55995 0.0
C1308 C 0.18328 0.22528 0.64662 0.0
C1309 C 0.2007 0.21341 0.67983 0.0
C1310 C 0.1562 0.2012 0.62207 0.0
C1311 C 0.14662 0.16499 0.63007 0.0
C1312 C 0.16392 0.15309 0.66324 0.0
C1313 C 0.19035 0.17699 0.68808 0.0
C1314 C 0.10664 0.09984 0.56378 0.0
C1315 C 0.0699 0.09039 0.55331 0.0
C1316 C 0.13133 0.12391 0.58883 0.0
C1317 C 0.12006 0.13984 0.60325 0.0
C1318 C 0.08357 0.13133 0.59218 0.0
C1319 C 0.05857 0.10647 0.56764 0.0
H1320 H 0.64024 0.28581 0.33135 0.0
H1321 H 0.73954 0.35701 0.39924 0.0
H1322 H 0.60935 0.31317 0.33896 0.0
H1323 H 0.7081 0.38296 0.40847 0.0
H1324 H 0.64829 0.444 0.39422 0.0
H1325 H 0.6798 0.41977 0.38179 0.0
H1326 H 0.58775 0.31549 0.38242 0.0
H1327 H 0.5563 0.33976 0.39435 0.0
C1328 C 0.65563 0.30735 0.34786 0.0
C1329 C 0.69255 0.31893 0.36478 0.0
C1330 C 0.63769 0.32279 0.35262 0.0
C1331 C 0.65602 0.35021 0.3746 0.0
C1332 C 0.69303 0.36216 0.39111 0.0
C1333 C 0.71102 0.34682 0.38622 0.0
C1334 C 0.63482 0.4159 0.39174 0.0
C1335 C 0.59964 0.39394 0.39516 0.0
C1336 C 0.65293 0.40193 0.38467 0.0
C1337 C 0.63644 0.36556 0.38103 0.0
C1338 C 0.60119 0.3437 0.38432 0.0
C1339 C 0.58308 0.35767 0.39122 0.0
H1340 H 0.44447 0.97077 0.07451 0.0
H1341 H 0.47403 0.88896 0.09049 0.0
H1342 H 0.4075 0.93552 0.11543 0.0
H1343 H 0.43683 0.85368 0.1315 0.0
H1344 H 0.3994 0.8219 0.23218 0.0
H1345 H 0.43732 0.8587 0.19216 0.0
H1346 H 0.3506 0.8773 0.11667 0.0
H1347 H 0.31257 0.84054 0.15661 0.0
C1348 C 0.4431 0.94527 0.08674 0.0
C1349 C 0.46219 0.93263 0.07925 0.0
C1350 C 0.42178 0.92505 0.11003 0.0
C1351 C 0.41938 0.89196 0.1266 0.0
C1352 C 0.43852 0.87931 0.11928 0.0
C1353 C 0.45959 0.89938 0.09566 0.0
C1354 C 0.38851 0.83409 0.20719 0.0
C1355 C 0.353 0.82833 0.19752 0.0
C1356 C 0.41013 0.85488 0.1842 0.0
C1357 C 0.39678 0.87061 0.15131 0.0
C1358 C 0.36159 0.86559 0.14199 0.0
C1359 C 0.33982 0.84449 0.16481 0.0
H1360 H 0.95951 0.56895 0.88728 0.0
H1361 H 0.96359 0.58981 0.985 0.0
H1362 H 0.9256 0.602 0.85403 0.0
H1363 H 0.93042 0.62368 0.95171 0.0
H1364 H 0.87265 0.70234 0.88174 0.0
H1365 H 0.90588 0.66863 0.91534 0.0
H1366 H 0.88011 0.62678 0.82064 0.0
H1367 H 0.84613 0.65978 0.78726 0.0
C1368 C 0.95394 0.58023 0.90303 0.0
C1369 C 0.9672 0.5738 0.94169 0.0
C1370 C 0.93316 0.60044 0.88268 0.0
C1371 C 0.92235 0.61849 0.89724 0.0
C1372 C 0.93586 0.6123 0.93594 0.0
C1373 C 0.95615 0.59157 0.95633 0.0
C1374 C 0.87318 0.68622 0.86676 0.0
C1375 C 0.85378 0.68668 0.82888 0.0
C1376 C 0.8935 0.66556 0.88733 0.0
C1377 C 0.89866 0.64207 0.87364 0.0
C1378 C 0.8795 0.64278 0.83569 0.0
C1379 C 0.85869 0.66298 0.81524 0.0
H1380 H 0.51414 0.44089 0.13023 0.0
H1381 H 0.41577 0.42145 0.04652 0.0
H1382 H 0.47949 0.40183 0.17239 0.0
H1383 H 0.38088 0.38285 0.089 0.0
H1384 H 0.32623 0.2922 0.17037 0.0
H1385 H 0.36076 0.32714 0.12653 0.0
H1386 H 0.44416 0.39888 0.20421 0.0
H1387 H 0.4103 0.36382 0.24755 0.0
C1388 C 0.48508 0.42842 0.1207 0.0
C1389 C 0.46803 0.43475 0.08469 0.0
C1390 C 0.465 0.40598 0.14511 0.0
C1391 C 0.427 0.38894 0.13458 0.0
C1392 C 0.40993 0.39496 0.09841 0.0
C1393 C 0.43007 0.41749 0.07394 0.0
C1394 C 0.35216 0.31514 0.17813 0.0
C1395 C 0.36544 0.32486 0.21276 0.0
C1396 C 0.37193 0.33553 0.15284 0.0
C1397 C 0.40566 0.36617 0.16145 0.0
C1398 C 0.41883 0.37538 0.1963 0.0
C1399 C 0.39914 0.3552 0.22133 0.0
H1400 H 0.46132 0.63826 0.78828 0.0
H1401 H 0.49454 0.66056 0.89626 0.0
H1402 H 0.43242 0.6758 0.76893 0.0
H1403 H 0.46395 0.69554 0.87781 0.0
H1404 H 0.38739 0.73947 0.84156 0.0
H1405 H 0.44078 0.7345 0.84976 0.0
H1406 H 0.37652 0.65251 0.77852 0.0
H1407 H 0.32446 0.65921 0.76913 0.0
C1408 C 0.46379 0.65245 0.80755 0.0
C1409 C 0.47889 0.64556 0.84382 0.0
C1410 C 0.44682 0.67349 0.79668 0.0
C1411 C 0.44388 0.68668 0.8222 0.0
C1412 C 0.46493 0.68526 0.85742 0.0
C1413 C 0.48268 0.66508 0.86809 0.0
C1414 C 0.3849 0.72004 0.82828 0.0
C1415 C 0.35192 0.69907 0.80543 0.0
C1416 C 0.41547 0.71755 0.83248 0.0
C1417 C 0.41327 0.69355 0.81436 0.0
C1418 C 0.37981 0.67223 0.79199 0.0
C1419 C 0.34963 0.67525 0.78732 0.0
H1420 H 0.12265 0.58148 0.55498 0.0
H1421 H 0.09465 0.491 0.634 0.0
H1422 H 0.15949 0.62089 0.60158 0.0
H1423 H 0.12972 0.53038 0.68082 0.0
H1424 H 0.21955 0.60889 0.76001 0.0
H1425 H 0.18672 0.5686 0.71386 0.0
H1426 H 0.1549 0.64495 0.64134 0.0
H1427 H 0.18922 0.68544 0.68659 0.0
C1428 C 0.12423 0.5701 0.58241 0.0
C1429 C 0.10587 0.53328 0.59095 0.0
C1430 C 0.14512 0.59267 0.60921 0.0
C1431 C 0.14748 0.57902 0.64521 0.0
C1432 C 0.12912 0.54197 0.6536 0.0
C1433 C 0.10878 0.51935 0.62676 0.0
C1434 C 0.20549 0.61685 0.73411 0.0
C1435 C 0.20691 0.6502 0.7268 0.0
C1436 C 0.18652 0.59377 0.70767 0.0
C1437 C 0.16813 0.60342 0.67358 0.0
C1438 C 0.16935 0.63675 0.66677 0.0
C1439 C 0.18877 0.65993 0.69289 0.0
H1440 H 0.35326 0.36795 0.68312 0.0
H1441 H 0.36608 0.27803 0.68593 0.0
H1442 H 0.39248 0.40325 0.64398 0.0
H1443 H 0.40634 0.31345 0.64819 0.0
H1444 H 0.44666 0.36943 0.55134 0.0
H1445 H 0.40944 0.33736 0.59155 0.0
H1446 H 0.44967 0.43505 0.63306 0.0
H1447 H 0.48647 0.46783 0.59078 0.0
C1448 C 0.36456 0.35563 0.6756 0.0
C1449 C 0.35588 0.31971 0.68771 0.0
C1450 C 0.3875 0.37615 0.65319 0.0
C1451 C 0.40291 0.36167 0.6421 0.0
C1452 C 0.39466 0.32586 0.65492 0.0
C1453 C 0.37151 0.30531 0.67701 0.0
C1454 C 0.4479 0.38437 0.56904 0.0
C1455 C 0.47008 0.42146 0.56767 0.0
C1456 C 0.42649 0.36565 0.59267 0.0
C1457 C 0.42636 0.38295 0.61658 0.0
C1458 C 0.44851 0.42034 0.61521 0.0
C1459 C 0.46999 0.43932 0.59107 0.0
H1460 H 0.28175 0.7047 0.16326 0.0
H1461 H 0.19025 0.67074 0.20015 0.0
H1462 H 0.24134 0.67172 0.11142 0.0
H1463 H 0.15018 0.63739 0.14882 0.0
H1464 H 0.11269 0.54078 0.09106 0.0
H1465 H 0.15333 0.58148 0.13607 0.0
H1466 H 0.17979 0.66953 0.05434 0.0
H1467 H 0.13767 0.62855 1.0085 0.0
C1468 C 0.25303 0.69039 0.1601 0.0
C1469 C 0.239 0.68979 0.18574 0.0
C1470 C 0.23005 0.6719 0.13043 0.0
C1471 C 0.19292 0.65225 0.12644 0.0
C1472 C 0.17883 0.65249 0.15153 0.0
C1473 C 0.20169 0.67141 0.18083 0.0
C1474 C 0.12701 0.56881 0.08252 0.0
C1475 C 0.12178 0.58166 0.04632 0.0
C1476 C 0.15017 0.592 0.10831 0.0
C1477 C 0.16916 0.62842 0.09844 0.0
C1478 C 0.16512 0.64141 0.06231 0.0
C1479 C 0.1412 0.61811 0.03628 0.0
H1480 H 0.70373 0.41821 0.69148 0.0
H1481 H 0.75215 0.43565 0.61046 0.0
H1482 H 0.6953 0.46985 0.66555 0.0
H1483 H 0.74572 0.48915 0.58523 0.0
H1484 H 0.63895 0.49377 0.51708 0.0
H1485 H 0.68964 0.4838 0.55039 0.0
H1486 H 0.70126 0.52606 0.64028 0.0
H1487 H 0.64851 0.53439 0.60693 0.0
C1488 C 0.71369 0.43396 0.66872 0.0
C1489 C 0.72683 0.42208 0.65183 0.0
C1490 C 0.70951 0.46413 0.65409 0.0
C1491 C 0.71843 0.48296 0.62225 0.0
C1492 C 0.73731 0.47443 0.609 0.0
C1493 C 0.74112 0.44386 0.62348 0.0
C1494 C 0.65254 0.50149 0.54378 0.0
C1495 C 0.63847 0.51289 0.56014 0.0
C1496 C 0.68237 0.49645 0.56283 0.0
C1497 C 0.69887 0.50281 0.5987 0.0
C1498 C 0.68829 0.51963 0.61312 0.0
C1499 C 0.65801 0.52432 0.59407 0.0
H1500 H 0.85438 0.65089 0.14522 0.0
H1501 H 0.90201 0.62074 0.25371 0.0
H1502 H 0.88367 0.63017 0.12432 0.0
H1503 H 0.93069 0.59933 0.23298 0.0
H1504 H 1.00341 0.59416 0.18635 0.0
H1505 H 0.97684 0.61905 0.20539 0.0
H1506 H 0.87969 0.57525 0.12025 0.0
H1507 H 0.90711 0.55208 0.09992 0.0
C1508 C 0.87108 0.63975 0.16454 0.0
C1509 C 0.87602 0.63744 0.20105 0.0
C1510 C 0.88772 0.62775 0.15261 0.0
C1511 C 0.90942 0.61299 0.17698 0.0
C1512 C 0.91463 0.61108 0.21353 0.0
C1513 C 0.89821 0.62331 0.22544 0.0
C1514 C 0.97658 0.59028 0.17135 0.0
C1515 C 0.9574 0.57121 0.14155 0.0
C1516 C 0.96117 0.60416 0.18256 0.0
C1517 C 0.92612 0.59906 0.16441 0.0
C1518 C 0.90692 0.58002 0.13457 0.0
C1519 C 0.92243 0.5663 0.12322 0.0
H1520 H 0.97493 0.65131 0.596 0.0
H1521 H 0.87639 0.55824 0.55697 0.0
H1522 H 0.94177 0.66848 0.61522 0.0
H1523 H 0.84314 0.57565 0.57601 0.0
H1524 H 0.79155 0.64032 0.57871 0.0
H1525 H 0.82408 0.62099 0.56116 0.0
H1526 H 0.90919 0.65132 0.65854 0.0
H1527 H 0.87653 0.67028 0.67637 0.0
C1528 C 0.94626 0.63421 0.59189 0.0
C1529 C 0.92847 0.60328 0.57491 0.0
C1530 C 0.92718 0.64414 0.6029 0.0
C1531 C 0.88971 0.62352 0.59719 0.0
C1532 C 0.87189 0.59249 0.58039 0.0
C1533 C 0.891 0.58249 0.56944 0.0
C1534 C 0.81701 0.64255 0.59664 0.0
C1535 C 0.83133 0.65705 0.62899 0.0
C1536 C 0.8357 0.63143 0.58652 0.0
C1537 C 0.86936 0.63462 0.60836 0.0
C1538 C 0.88364 0.64898 0.64075 0.0
C1539 C 0.86488 0.65996 0.65095 0.0
H1540 H 0.42532 0.50844 0.49657 0.0
H1541 H 0.41464 0.46759 0.40628 0.0
H1542 H 0.37318 0.51627 0.46464 0.0
H1543 H 0.36045 0.47383 0.37433 0.0
H1544 H 0.34908 0.57737 0.32242 0.0
H1545 H 0.3615 0.52801 0.3481 0.0
H1546 H 0.3152 0.50693 0.43249 0.0
H1547 H 0.30469 0.5582 0.40735 0.0
C1548 C 0.41126 0.50026 0.47006 0.0
C1549 C 0.42523 0.48916 0.45324 0.0
C1550 C 0.3806 0.50408 0.45182 0.0
C1551 C 0.36302 0.49677 0.41627 0.0
C1552 C 0.37407 0.48085 0.40126 0.0
C1553 C 0.40516 0.47733 0.41951 0.0
C1554 C 0.34064 0.56152 0.34592 0.0
C1555 C 0.3276 0.57245 0.36391 0.0
C1556 C 0.34726 0.53272 0.36051 0.0
C1557 C 0.3409 0.51436 0.39341 0.0
C1558 C 0.32178 0.52146 0.40787 0.0
C1559 C 0.31553 0.55068 0.39341 0.0
H1560 H 0.21482 0.35491 0.87702 0.0
H1561 H 0.17349 0.39073 0.76845 0.0
H1562 H 0.18573 0.37664 0.89711 0.0
H1563 H 0.14401 0.41197 0.78846 0.0
H1564 H 0.13782 0.48468 0.84332 0.0
H1565 H 0.1658 0.4611 0.82413 0.0
H1566 H 0.12311 0.36363 0.89197 0.0
H1567 H 0.09552 0.38743 0.91156 0.0
C1568 C 0.19936 0.36727 0.85751 0.0
C1569 C 0.19639 0.37122 0.82123 0.0
C1570 C 0.18257 0.37946 0.86894 0.0
C1571 C 0.16283 0.39612 0.84431 0.0
C1572 C 0.15941 0.39956 0.808 0.0
C1573 C 0.17593 0.38709 0.79654 0.0
C1574 C 0.13472 0.45836 0.85433 0.0
C1575 C 0.11455 0.43783 0.87888 0.0
C1576 C 0.15038 0.44475 0.84311 0.0
C1577 C 0.14641 0.41051 0.85646 0.0
C1578 C 0.12668 0.39017 0.88141 0.0
C1579 C 0.11074 0.40366 0.8924 0.0
H1580 H 0.1938 0.33726 0.33884 0.0
H1581 H 0.27327 0.35821 0.44085 0.0
H1582 H 0.15994 0.35463 0.35674 0.0
H1583 H 0.23953 0.37598 0.45854 0.0
H1584 H 0.18664 0.43723 0.4651 0.0
H1585 H 0.22161 0.42208 0.44599 0.0
H1586 H 0.12387 0.3332 0.39789 0.0
H1587 H 0.08898 0.34809 0.41716 0.0
C1588 C 0.20396 0.34527 0.36521 0.0
C1589 C 0.23626 0.34605 0.38843 0.0
C1590 C 0.18453 0.35534 0.37544 0.0
C1591 C 0.1969 0.36663 0.40914 0.0
C1592 C 0.22942 0.36787 0.43222 0.0
C1593 C 0.2488 0.35766 0.42203 0.0
C1594 C 0.17259 0.41432 0.45064 0.0
C1595 C 0.13488 0.39395 0.44269 0.0
C1596 C 0.19268 0.40564 0.43966 0.0
C1597 C 0.1756 0.37641 0.42037 0.0
C1598 C 0.13791 0.35623 0.41219 0.0
C1599 C 0.11785 0.36484 0.42323 0.0
loop_
_geom_bond_atom_site_label_1
_geom_bond_atom_site_label_2
_geom_bond_distance
_geom_bond_site_symmetry_2
_ccdc_geom_bond_type
Sm0 C2 2.874 . S
Sm0 O20 2.543 1_655 S
Sm0 O21 2.450 . S
Sm0 O22 2.681 1_556 S
Sm0 O23 2.446 1_556 S
Sm0 O24 2.396 1_656 S
Sm0 O28 2.386 1_665 S
Sm0 O31 2.408 . S
Sm1 C11 2.846 . S
Sm1 O22 2.386 1_445 S
Sm1 O25 2.408 . S
Sm1 O26 2.543 1_455 S
Sm1 O27 2.450 . S
Sm1 O28 2.681 1_554 S
Sm1 O29 2.458 1_554 S
Sm1 O30 2.396 1_454 S
C2 Sm0 2.874 . S
C2 C3 1.478 1_655 S
C2 O20 1.258 1_655 S
C2 O21 1.272 . S
C3 C2 1.478 1_455 S
C3 C4 1.358 . S
C3 C8 1.382 1_455 S
C4 C3 1.358 . S
C4 C5 1.385 . S
C4 H32 0.930 . S
C5 C4 1.385 . S
C5 C6 1.395 . S
C5 H33 0.929 . S
C6 C5 1.395 . S
C6 C7 1.335 1_455 S
C7 C6 1.335 1_655 S
C7 C8 1.398 . S
C7 H34 0.930 . S
C8 C3 1.382 1_655 S
C8 C7 1.398 . S
C8 H35 0.929 . S
C9 O22 1.271 . S
C9 O23 1.270 . S
C10 O24 1.252 . S
C10 O25 1.272 1_565 S
C11 Sm1 2.846 . S
C11 C12 1.506 1_455 S
C11 O26 1.261 1_455 S
C11 O27 1.242 . S
C12 C11 1.506 1_655 S
C12 C13 1.358 . S
C12 C17 1.382 1_655 S
C13 C12 1.358 . S
C13 C14 1.385 . S
C13 H36 0.930 . S
C14 C13 1.385 . S
C14 C15 1.395 . S
C14 H37 0.929 . S
C15 C14 1.395 . S
C15 C16 1.335 1_655 S
C16 C15 1.335 1_455 S
C16 C17 1.398 . S
C16 H38 0.930 . S
C17 C12 1.382 1_455 S
C17 C16 1.398 . S
C17 H39 0.929 . S
C18 O28 1.271 . S
C18 O29 1.257 . S
C19 O30 1.252 . S
C19 O31 1.272 1_545 S
O20 Sm0 2.543 1_455 S
O20 C2 1.258 1_455 S
O21 Sm0 2.450 . S
O21 C2 1.272 . S
O22 Sm0 2.681 1_554 S
O22 Sm1 2.386 1_665 S
O22 C9 1.271 . S
O23 Sm0 2.446 1_554 S
O23 C9 1.270 . S
O24 Sm0 2.396 1_454 S
O24 C10 1.252 . S
O25 Sm1 2.408 . S
O25 C10 1.272 1_545 S
O26 Sm1 2.543 1_655 S
O26 C11 1.261 1_655 S
O27 Sm1 2.450 . S
O27 C11 1.242 . S
O28 Sm0 2.386 1_445 S
O28 Sm1 2.681 1_556 S
O28 C18 1.271 . S
O29 Sm1 2.458 1_556 S
O29 C18 1.257 . S
O30 Sm1 2.396 1_656 S
O30 C19 1.252 . S
O31 Sm0 2.408 . S
O31 C19 1.272 1_565 S
H32 C4 0.930 . S
H33 C5 0.929 . S
H34 C7 0.930 . S
H35 C8 0.929 . S
H36 C13 0.930 . S
H37 C14 0.929 . S
H38 C16 0.930 . S
H39 C17 0.929 . S
Sm40 C42 2.846 . S
Sm40 O60 2.543 . S
Sm40 O61 2.450 . S
Sm40 O62 2.681 . S
Sm40 O63 2.464 . S
Sm40 O64 2.396 . S
Sm40 O68 2.386 . S
Sm40 O71 2.408 . S
Sm41 C51 2.846 . S
Sm41 O62 2.386 . S
Sm41 O65 2.408 . S
Sm41 O66 2.543 . S
Sm41 O67 2.450 . S
Sm41 O68 2.681 . S
Sm41 O69 2.464 . S
Sm41 O70 2.396 . S
C42 Sm40 2.846 . S
C42 C43 1.506 . S
C42 O60 1.261 . S
C42 O61 1.242 . S
C43 C42 1.506 . S
C43 C44 1.358 . S
C43 C48 1.382 . S
C44 C43 1.358 . S
C44 C45 1.385 . S
C44 H72 0.930 . S
C45 C44 1.385 . S
C45 C46 1.395 . S
C45 H73 0.929 . S
C46 C45 1.395 . S
C46 C47 1.335 . S
C47 C46 1.335 . S
C47 C48 1.398 . S
C47 H74 0.930 . S
C48 C43 1.382 . S
C48 C47 1.398 . S
C48 H75 0.929 . S
C49 O62 1.271 . S
C49 O63 1.251 . S
C50 O64 1.252 . S
C50 O65 1.272 . S
C51 Sm41 2.846 . S
C51 C52 1.506 . S
C51 O66 1.261 . S
C51 O67 1.242 . S
C52 C51 1.506 . S
C52 C53 1.358 . S
C52 C57 1.382 . S
C53 C52 1.358 . S
C53 C54 1.385 . S
C53 H76 0.930 . S
C54 C53 1.385 . S
C54 C55 1.395 . S
C54 H77 0.929 . S
C55 C54 1.395 . S
C55 C56 1.335 . S
C56 C55 1.335 . S
C56 C57 1.398 . S
C56 H78 0.930 . S
C57 C52 1.382 . S
C57 C56 1.398 . S
C57 H79 0.929 . S
C58 O68 1.271 . S
C58 O69 1.251 . S
C59 O70 1.252 . S
C59 O71 1.272 . S
O60 Sm40 2.543 . S
O60 C42 1.261 . S
O61 Sm40 2.450 . S
O61 C42 1.242 . S
O62 Sm40 2.681 . S
O62 Sm41 2.386 . S
O62 C49 1.271 . S
O63 Sm40 2.464 . S
O63 C49 1.251 . S
O64 Sm40 2.396 . S
O64 C50 1.252 . S
O65 Sm41 2.408 . S
O65 C50 1.272 . S
O66 Sm41 2.543 . S
O66 C51 1.261 . S
O67 Sm41 2.450 . S
O67 C51 1.242 . S
O68 Sm40 2.386 . S
O68 Sm41 2.681 . S
O68 C58 1.271 . S
O69 Sm41 2.464 . S
O69 C58 1.251 . S
O70 Sm41 2.396 . S
O70 C59 1.252 . S
O71 Sm40 2.408 . S
O71 C59 1.272 . S
H72 C44 0.930 . S
H73 C45 0.929 . S
H74 C47 0.930 . S
H75 C48 0.929 . S
H76 C53 0.930 . S
H77 C54 0.929 . S
H78 C56 0.930 . S
H79 C57 0.929 . S
Sm80 C82 2.846 1_565 S
Sm80 O100 2.543 1_565 S
Sm80 O101 2.450 . S
Sm80 O102 2.681 . S
Sm80 O103 2.464 . S
Sm80 O104 2.396 1_565 S
Sm80 O108 2.386 1_565 S
Sm80 O111 2.408 . S
Sm81 C91 2.846 1_545 S
Sm81 O102 2.386 1_545 S
Sm81 O105 2.408 . S
Sm81 O106 2.543 1_545 S
Sm81 O107 2.450 . S
Sm81 O108 2.681 . S
Sm81 O109 2.464 . S
Sm81 O110 2.396 1_545 S
C82 Sm80 2.846 1_545 S
C82 C83 1.506 . S
C82 O100 1.261 . S
C82 O101 1.242 1_545 S
C83 C82 1.506 . S
C83 C84 1.358 . S
C83 C88 1.382 1_545 S
C84 C83 1.358 . S
C84 C85 1.385 . S
C84 H112 0.930 . S
C85 C84 1.385 . S
C85 C86 1.395 . S
C85 H113 0.929 . S
C86 C85 1.395 . S
C86 C87 1.372 . S
C87 C86 1.372 . S
C87 C88 1.367 1_545 S
C87 H114 0.926 1_545 S
C88 C83 1.382 1_565 S
C88 C87 1.367 1_565 S
C88 H115 0.929 . S
C89 O102 1.271 . S
C89 O103 1.251 . S
C90 O104 1.252 . S
C90 O105 1.272 . S
C91 Sm81 2.846 1_565 S
C91 C92 1.506 . S
C91 O106 1.261 . S
C91 O107 1.242 1_565 S
C92 C91 1.506 . S
C92 C93 1.358 . S
C92 C97 1.382 1_565 S
C93 C92 1.358 . S
C93 C94 1.385 . S
C93 H116 0.930 . S
C94 C93 1.385 . S
C94 C95 1.395 . S
C94 H117 0.929 . S
C95 C94 1.395 . S
C95 C96 1.342 . S
C96 C95 1.342 . S
C96 C97 1.392 1_565 S
C96 H118 0.929 1_565 S
C97 C92 1.382 1_545 S
C97 C96 1.392 1_545 S
C97 H119 0.929 . S
C98 O108 1.271 . S
C98 O109 1.251 . S
C99 O110 1.252 . S
C99 O111 1.272 . S
O100 Sm80 2.543 1_545 S
O100 C82 1.261 . S
O101 Sm80 2.450 . S
O101 C82 1.242 1_565 S
O102 Sm80 2.681 . S
O102 Sm81 2.386 1_565 S
O102 C89 1.271 . S
O103 Sm80 2.464 . S
O103 C89 1.251 . S
O104 Sm80 2.396 1_545 S
O104 C90 1.252 . S
O105 Sm81 2.408 . S
O105 C90 1.272 . S
O106 Sm81 2.543 1_565 S
O106 C91 1.261 . S
O107 Sm81 2.450 . S
O107 C91 1.242 1_545 S
O108 Sm80 2.386 1_545 S
O108 Sm81 2.681 . S
O108 C98 1.271 . S
O109 Sm81 2.464 . S
O109 C98 1.251 . S
O110 Sm81 2.396 1_565 S
O110 C99 1.252 . S
O111 Sm80 2.408 . S
O111 C99 1.272 . S
H112 C84 0.930 . S
H113 C85 0.929 . S
H114 C87 0.926 1_565 S
H115 C88 0.929 . S
H116 C93 0.930 . S
H117 C94 0.929 . S
H118 C96 0.929 1_545 S
H119 C97 0.929 . S
Sm120 C122 2.846 . S
Sm120 O140 2.543 . S
Sm120 O141 2.450 . S
Sm120 O142 2.681 . S
Sm120 O143 2.464 . S
Sm120 O144 2.396 . S
Sm120 O148 2.386 . S
Sm120 O151 2.408 . S
Sm121 C131 2.846 . S
Sm121 O142 2.386 . S
Sm121 O145 2.408 . S
Sm121 O146 2.543 . S
Sm121 O147 2.450 . S
Sm121 O148 2.681 . S
Sm121 O149 2.464 . S
Sm121 O150 2.396 . S
C122 Sm120 2.846 . S
C122 C123 1.506 . S
C122 O140 1.261 . S
C122 O141 1.242 . S
C123 C122 1.506 . S
C123 C124 1.358 . S
C123 C128 1.382 . S
C124 C123 1.358 . S
C124 C125 1.385 . S
C124 H152 0.930 . S
C125 C124 1.385 . S
C125 C126 1.395 . S
C125 H153 0.929 . S
C126 C125 1.395 . S
C126 C127 1.335 . S
C127 C126 1.335 . S
C127 C128 1.398 . S
C127 H154 0.930 . S
C128 C123 1.382 . S
C128 C127 1.398 . S
C128 H155 0.929 . S
C129 O142 1.271 . S
C129 O143 1.251 . S
C130 O144 1.252 . S
C130 O145 1.272 . S
C131 Sm121 2.846 . S
C131 C132 1.506 . S
C131 O146 1.261 . S
C131 O147 1.242 . S
C132 C131 1.506 . S
C132 C133 1.358 . S
C132 C137 1.382 . S
C133 C132 1.358 . S
C133 C134 1.385 . S
C133 H156 0.930 . S
C134 C133 1.385 . S
C134 C135 1.395 . S
C134 H157 0.929 . S
C135 C134 1.395 . S
C135 C136 1.335 . S
C136 C135 1.335 . S
C136 C137 1.398 . S
C136 H158 0.930 . S
C137 C132 1.382 . S
C137 C136 1.398 . S
C137 H159 0.929 . S
C138 O148 1.271 . S
C138 O149 1.251 . S
C139 O150 1.252 . S
C139 O151 1.272 . S
O140 Sm120 2.543 . S
O140 C122 1.261 . S
O141 Sm120 2.450 . S
O141 C122 1.242 . S
O142 Sm120 2.681 . S
O142 Sm121 2.386 . S
O142 C129 1.271 . S
O143 Sm120 2.464 . S
O143 C129 1.251 . S
O144 Sm120 2.396 . S
O144 C130 1.252 . S
O145 Sm121 2.408 . S
O145 C130 1.272 . S
O146 Sm121 2.543 . S
O146 C131 1.261 . S
O147 Sm121 2.450 . S
O147 C131 1.242 . S
O148 Sm120 2.386 . S
O148 Sm121 2.681 . S
O148 C138 1.271 . S
O149 Sm121 2.464 . S
O149 C138 1.251 . S
O150 Sm121 2.396 . S
O150 C139 1.252 . S
O151 Sm120 2.408 . S
O151 C139 1.272 . S
H152 C124 0.930 . S
H153 C125 0.929 . S
H154 C127 0.930 . S
H155 C128 0.929 . S
H156 C133 0.930 . S
H157 C134 0.929 . S
H158 C136 0.930 . S
H159 C137 0.929 . S
Sm160 C162 2.846 . S
Sm160 O180 2.543 . S
Sm160 O181 2.450 . S
Sm160 O182 2.681 1_455 S
Sm160 O183 2.464 1_455 S
Sm160 O184 2.396 1_455 S
Sm160 O188 2.386 1_565 S
Sm160 O191 2.408 1_565 S
Sm161 C171 2.846 . S
Sm161 O182 2.386 1_545 S
Sm161 O185 2.408 1_545 S
Sm161 O186 2.543 . S
Sm161 O187 2.450 . S
Sm161 O188 2.681 1_655 S
Sm161 O189 2.464 1_655 S
Sm161 O190 2.396 1_655 S
C162 Sm160 2.846 . S
C162 C163 1.506 . S
C162 O180 1.261 . S
C162 O181 1.242 . S
C163 C162 1.506 . S
C163 C164 1.358 . S
C163 C168 1.382 . S
C164 C163 1.358 . S
C164 C165 1.385 . S
C164 H192 0.930 . S
C165 C164 1.385 . S
C165 C166 1.395 . S
C165 H193 0.929 . S
C166 C165 1.395 . S
C166 C167 1.335 . S
C167 C166 1.335 . S
C167 C168 1.398 . S
C167 H194 0.930 . S
C168 C163 1.382 . S
C168 C167 1.398 . S
C168 H195 0.929 . S
C169 O182 1.271 . S
C169 O183 1.251 . S
C170 O184 1.252 . S
C170 O185 1.272 . S
C171 Sm161 2.846 . S
C171 C172 1.506 . S
C171 O186 1.261 . S
C171 O187 1.242 . S
C172 C171 1.506 . S
C172 C173 1.358 . S
C172 C177 1.382 . S
C173 C172 1.358 . S
C173 C174 1.385 . S
C173 H196 0.930 . S
C174 C173 1.385 . S
C174 C175 1.395 . S
C174 H197 0.929 . S
C175 C174 1.395 . S
C175 C176 1.335 . S
C176 C175 1.335 . S
C176 C177 1.398 . S
C176 H198 0.930 . S
C177 C172 1.382 . S
C177 C176 1.398 . S
C177 H199 0.929 . S
C178 O188 1.271 . S
C178 O189 1.251 . S
C179 O190 1.252 . S
C179 O191 1.272 . S
O180 Sm160 2.543 . S
O180 C162 1.261 . S
O181 Sm160 2.450 . S
O181 C162 1.242 . S
O182 Sm160 2.681 1_655 S
O182 Sm161 2.386 1_565 S
O182 C169 1.271 . S
O183 Sm160 2.464 1_655 S
O183 C169 1.251 . S
O184 Sm160 2.396 1_655 S
O184 C170 1.252 . S
O185 Sm161 2.408 1_565 S
O185 C170 1.272 . S
O186 Sm161 2.543 . S
O186 C171 1.261 . S
O187 Sm161 2.450 . S
O187 C171 1.242 . S
O188 Sm160 2.386 1_545 S
O188 Sm161 2.681 1_455 S
O188 C178 1.271 . S
O189 Sm161 2.464 1_455 S
O189 C178 1.251 . S
O190 Sm161 2.396 1_455 S
O190 C179 1.252 . S
O191 Sm160 2.408 1_545 S
O191 C179 1.272 . S
H192 C164 0.930 . S
H193 C165 0.929 . S
H194 C167 0.930 . S
H195 C168 0.929 . S
H196 C173 0.930 . S
H197 C174 0.929 . S
H198 C176 0.930 . S
H199 C177 0.929 . S
Sm200 C202 2.846 . S
Sm200 O220 2.543 . S
Sm200 O221 2.450 . S
Sm200 O222 2.681 . S
Sm200 O223 2.464 . S
Sm200 O224 2.396 . S
Sm200 O228 2.386 . S
Sm200 O231 2.408 . S
Sm201 C211 2.846 . S
Sm201 O222 2.386 . S
Sm201 O225 2.408 . S
Sm201 O226 2.543 . S
Sm201 O227 2.450 . S
Sm201 O228 2.681 . S
Sm201 O229 2.464 . S
Sm201 O230 2.396 . S
C202 Sm200 2.846 . S
C202 C203 1.506 . S
C202 O220 1.261 . S
C202 O221 1.242 . S
C203 C202 1.506 . S
C203 C204 1.358 . S
C203 C208 1.382 . S
C204 C203 1.358 . S
C204 C205 1.385 . S
C204 H232 0.930 . S
C205 C204 1.385 . S
C205 C206 1.395 . S
C205 H233 0.929 . S
C206 C205 1.395 . S
C206 C207 1.335 . S
C207 C206 1.335 . S
C207 C208 1.398 . S
C207 H234 0.930 . S
C208 C203 1.382 . S
C208 C207 1.398 . S
C208 H235 0.929 . S
C209 O222 1.271 . S
C209 O223 1.251 . S
C210 O224 1.252 . S
C210 O225 1.272 . S
C211 Sm201 2.846 . S
C211 C212 1.506 . S
C211 O226 1.261 . S
C211 O227 1.242 . S
C212 C211 1.506 . S
C212 C213 1.358 . S
C212 C217 1.382 . S
C213 C212 1.358 . S
C213 C214 1.385 . S
C213 H236 0.930 . S
C214 C213 1.385 . S
C214 C215 1.395 . S
C214 H237 0.929 . S
C215 C214 1.395 . S
C215 C216 1.335 . S
C216 C215 1.335 . S
C216 C217 1.398 . S
C216 H238 0.930 . S
C217 C212 1.382 . S
C217 C216 1.398 . S
C217 H239 0.929 . S
C218 O228 1.271 . S
C218 O229 1.251 . S
C219 O230 1.252 . S
C219 O231 1.272 . S
O220 Sm200 2.543 . S
O220 C202 1.261 . S
O221 Sm200 2.450 . S
O221 C202 1.242 . S
O222 Sm200 2.681 . S
O222 Sm201 2.386 . S
O222 C209 1.271 . S
O223 Sm200 2.464 . S
O223 C209 1.251 . S
O224 Sm200 2.396 . S
O224 C210 1.252 . S
O225 Sm201 2.408 . S
O225 C210 1.272 . S
O226 Sm201 2.543 . S
O226 C211 1.261 . S
O227 Sm201 2.450 . S
O227 C211 1.242 . S
O228 Sm200 2.386 . S
O228 Sm201 2.681 . S
O228 C218 1.271 . S
O229 Sm201 2.464 . S
O229 C218 1.251 . S
O230 Sm201 2.396 . S
O230 C219 1.252 . S
O231 Sm200 2.408 . S
O231 C219 1.272 . S
H232 C204 0.930 . S
H233 C205 0.929 . S
H234 C207 0.930 . S
H235 C208 0.929 . S
H236 C213 0.930 . S
H237 C214 0.929 . S
H238 C216 0.930 . S
H239 C217 0.929 . S
Sm240 C242 2.846 1_554 S
Sm240 O260 2.543 1_554 S
Sm240 O261 2.450 . S
Sm240 O262 2.681 1_565 S
Sm240 O263 2.464 1_565 S
Sm240 O264 2.396 1_564 S
Sm240 O268 2.386 1_554 S
Sm240 O271 2.408 . S
Sm241 C251 2.846 1_556 S
Sm241 O262 2.386 1_556 S
Sm241 O265 2.408 . S
Sm241 O266 2.543 1_556 S
Sm241 O267 2.450 . S
Sm241 O268 2.681 1_545 S
Sm241 O269 2.464 1_545 S
Sm241 O270 2.396 1_546 S
C242 Sm240 2.846 1_556 S
C242 C243 1.506 . S
C242 O260 1.261 . S
C242 O261 1.242 1_556 S
C243 C242 1.506 . S
C243 C244 1.358 . S
C243 C248 1.382 . S
C244 C243 1.358 . S
C244 C245 1.385 . S
C244 H272 0.930 . S
C245 C244 1.385 . S
C245 C246 1.395 . S
C245 H273 0.929 . S
C246 C245 1.395 . S
C246 C247 1.335 . S
C247 C246 1.335 . S
C247 C248 1.398 . S
C247 H274 0.930 . S
C248 C243 1.382 . S
C248 C247 1.398 . S
C248 H275 0.929 1_556 S
C249 O262 1.271 . S
C249 O263 1.251 . S
C250 O264 1.252 . S
C250 O265 1.272 . S
C251 Sm241 2.846 1_554 S
C251 C252 1.506 . S
C251 O266 1.261 . S
C251 O267 1.242 1_554 S
C252 C251 1.506 . S
C252 C253 1.358 . S
C252 C257 1.382 . S
C253 C252 1.358 . S
C253 C254 1.385 . S
C253 H276 0.930 . S
C254 C253 1.385 . S
C254 C255 1.395 . S
C254 H277 0.929 . S
C255 C254 1.395 . S
C255 C256 1.335 . S
C256 C255 1.335 . S
C256 C257 1.398 . S
C256 H278 0.930 . S
C257 C252 1.382 . S
C257 C256 1.398 . S
C257 H279 0.929 1_554 S
C258 O268 1.271 . S
C258 O269 1.251 . S
C259 O270 1.252 . S
C259 O271 1.272 . S
O260 Sm240 2.543 1_556 S
O260 C242 1.261 . S
O261 Sm240 2.450 . S
O261 C242 1.242 1_554 S
O262 Sm240 2.681 1_545 S
O262 Sm241 2.386 1_554 S
O262 C249 1.271 . S
O263 Sm240 2.464 1_545 S
O263 C249 1.251 . S
O264 Sm240 2.396 1_546 S
O264 C250 1.252 . S
O265 Sm241 2.408 . S
O265 C250 1.272 . S
O266 Sm241 2.543 1_554 S
O266 C251 1.261 . S
O267 Sm241 2.450 . S
O267 C251 1.242 1_556 S
O268 Sm240 2.386 1_556 S
O268 Sm241 2.681 1_565 S
O268 C258 1.271 . S
O269 Sm241 2.464 1_565 S
O269 C258 1.251 . S
O270 Sm241 2.396 1_564 S
O270 C259 1.252 . S
O271 Sm240 2.408 . S
O271 C259 1.272 . S
H272 C244 0.930 . S
H273 C245 0.929 . S
H274 C247 0.930 . S
H275 C248 0.929 1_554 S
H276 C253 0.930 . S
H277 C254 0.929 . S
H278 C256 0.930 . S
H279 C257 0.929 1_556 S
Sm280 C282 2.846 . S
Sm280 O300 2.543 . S
Sm280 O301 2.450 . S
Sm280 O302 2.681 . S
Sm280 O303 2.464 . S
Sm280 O304 2.396 . S
Sm280 O308 2.386 . S
Sm280 O311 2.408 . S
Sm281 C291 2.846 . S
Sm281 O302 2.386 . S
Sm281 O305 2.408 . S
Sm281 O306 2.543 . S
Sm281 O307 2.450 . S
Sm281 O308 2.681 . S
Sm281 O309 2.464 . S
Sm281 O310 2.396 . S
C282 Sm280 2.846 . S
C282 C283 1.506 . S
C282 O300 1.261 . S
C282 O301 1.242 . S
C283 C282 1.506 . S
C283 C284 1.358 . S
C283 C288 1.382 . S
C284 C283 1.358 . S
C284 C285 1.385 . S
C284 H312 0.930 . S
C285 C284 1.385 . S
C285 C286 1.395 . S
C285 H313 0.929 . S
C286 C285 1.395 . S
C286 C287 1.335 . S
C287 C286 1.335 . S
C287 C288 1.398 . S
C287 H314 0.930 . S
C288 C283 1.382 . S
C288 C287 1.398 . S
C288 H315 0.929 . S
C289 O302 1.271 . S
C289 O303 1.251 . S
C290 O304 1.252 . S
C290 O305 1.272 . S
C291 Sm281 2.846 . S
C291 C292 1.506 . S
C291 O306 1.261 . S
C291 O307 1.242 . S
C292 C291 1.506 . S
C292 C293 1.358 . S
C292 C297 1.382 . S
C293 C292 1.358 . S
C293 C294 1.385 . S
C293 H316 0.930 . S
C294 C293 1.385 . S
C294 C295 1.395 . S
C294 H317 0.929 . S
C295 C294 1.395 . S
C295 C296 1.335 . S
C296 C295 1.335 . S
C296 C297 1.398 . S
C296 H318 0.930 . S
C297 C292 1.382 . S
C297 C296 1.398 . S
C297 H319 0.929 . S
C298 O308 1.271 . S
C298 O309 1.251 . S
C299 O310 1.252 . S
C299 O311 1.272 . S
O300 Sm280 2.543 . S
O300 C282 1.261 . S
O301 Sm280 2.450 . S
O301 C282 1.242 . S
O302 Sm280 2.681 . S
O302 Sm281 2.386 . S
O302 C289 1.271 . S
O303 Sm280 2.464 . S
O303 C289 1.251 . S
O304 Sm280 2.396 . S
O304 C290 1.252 . S
O305 Sm281 2.408 . S
O305 C290 1.272 . S
O306 Sm281 2.543 . S
O306 C291 1.261 . S
O307 Sm281 2.450 . S
O307 C291 1.242 . S
O308 Sm280 2.386 . S
O308 Sm281 2.681 . S
O308 C298 1.271 . S
O309 Sm281 2.464 . S
O309 C298 1.251 . S
O310 Sm281 2.396 . S
O310 C299 1.252 . S
O311 Sm280 2.408 . S
O311 C299 1.272 . S
H312 C284 0.930 . S
H313 C285 0.929 . S
H314 C287 0.930 . S
H315 C288 0.929 . S
H316 C293 0.930 . S
H317 C294 0.929 . S
H318 C296 0.930 . S
H319 C297 0.929 . S
Sm320 C322 2.846 . S
Sm320 O340 2.543 . S
Sm320 O341 2.450 . S
Sm320 O342 2.681 1_554 S
Sm320 O343 2.464 1_554 S
Sm320 O344 2.396 . S
Sm320 O348 2.386 . S
Sm320 O351 2.408 1_554 S
Sm321 C331 2.846 . S
Sm321 O342 2.386 . S
Sm321 O345 2.408 1_556 S
Sm321 O346 2.543 . S
Sm321 O347 2.450 . S
Sm321 O348 2.681 1_556 S
Sm321 O349 2.464 1_556 S
Sm321 O350 2.396 . S
C322 Sm320 2.846 . S
C322 C323 1.506 . S
C322 O340 1.261 . S
C322 O341 1.242 . S
C323 C322 1.506 . S
C323 C324 1.358 . S
C323 C328 1.382 . S
C324 C323 1.358 . S
C324 C325 1.385 . S
C324 H352 0.930 . S
C325 C324 1.385 . S
C325 C326 1.395 . S
C325 H353 0.929 . S
C326 C325 1.395 . S
C326 C327 1.335 . S
C327 C326 1.335 . S
C327 C328 1.398 . S
C327 H354 0.930 . S
C328 C323 1.382 . S
C328 C327 1.398 . S
C328 H355 0.929 . S
C329 O342 1.271 . S
C329 O343 1.251 . S
C330 O344 1.252 . S
C330 O345 1.272 . S
C331 Sm321 2.846 . S
C331 C332 1.506 . S
C331 O346 1.261 . S
C331 O347 1.242 . S
C332 C331 1.506 . S
C332 C333 1.358 . S
C332 C337 1.382 . S
C333 C332 1.358 . S
C333 C334 1.385 . S
C333 H356 0.930 . S
C334 C333 1.385 . S
C334 C335 1.395 . S
C334 H357 0.929 . S
C335 C334 1.395 . S
C335 C336 1.335 . S
C336 C335 1.335 . S
C336 C337 1.398 . S
C336 H358 0.930 . S
C337 C332 1.382 . S
C337 C336 1.398 . S
C337 H359 0.929 . S
C338 O348 1.271 . S
C338 O349 1.251 . S
C339 O350 1.252 . S
C339 O351 1.272 . S
O340 Sm320 2.543 . S
O340 C322 1.261 . S
O341 Sm320 2.450 . S
O341 C322 1.242 . S
O342 Sm320 2.681 1_556 S
O342 Sm321 2.386 . S
O342 C329 1.271 . S
O343 Sm320 2.464 1_556 S
O343 C329 1.251 . S
O344 Sm320 2.396 . S
O344 C330 1.252 . S
O345 Sm321 2.408 1_554 S
O345 C330 1.272 . S
O346 Sm321 2.543 . S
O346 C331 1.261 . S
O347 Sm321 2.450 . S
O347 C331 1.242 . S
O348 Sm320 2.386 . S
O348 Sm321 2.681 1_554 S
O348 C338 1.271 . S
O349 Sm321 2.464 1_554 S
O349 C338 1.251 . S
O350 Sm321 2.396 . S
O350 C339 1.252 . S
O351 Sm320 2.408 1_556 S
O351 C339 1.272 . S
H352 C324 0.930 . S
H353 C325 0.929 . S
H354 C327 0.930 . S
H355 C328 0.929 . S
H356 C333 0.930 . S
H357 C334 0.929 . S
H358 C336 0.930 . S
H359 C337 0.929 . S
Sm360 C362 2.846 . S
Sm360 O380 2.543 . S
Sm360 O381 2.450 . S
Sm360 O382 2.681 . S
Sm360 O383 2.464 . S
Sm360 O384 2.396 . S
Sm360 O388 2.386 . S
Sm360 O391 2.408 . S
Sm361 C371 2.846 . S
Sm361 O382 2.386 . S
Sm361 O385 2.408 . S
Sm361 O386 2.543 . S
Sm361 O387 2.450 . S
Sm361 O388 2.681 . S
Sm361 O389 2.464 . S
Sm361 O390 2.396 . S
C362 Sm360 2.846 . S
C362 C363 1.506 . S
C362 O380 1.261 . S
C362 O381 1.242 . S
C363 C362 1.506 . S
C363 C364 1.358 . S
C363 C368 1.382 . S
C364 C363 1.358 . S
C364 C365 1.385 . S
C364 H392 0.930 . S
C365 C364 1.385 . S
C365 C366 1.395 . S
C365 H393 0.929 . S
C366 C365 1.395 . S
C366 C367 1.335 . S
C367 C366 1.335 . S
C367 C368 1.398 . S
C367 H394 0.930 . S
C368 C363 1.382 . S
C368 C367 1.398 . S
C368 H395 0.929 . S
C369 O382 1.271 . S
C369 O383 1.251 . S
C370 O384 1.252 . S
C370 O385 1.272 . S
C371 Sm361 2.846 . S
C371 C372 1.506 . S
C371 O386 1.261 . S
C371 O387 1.242 . S
C372 C371 1.506 . S
C372 C373 1.358 . S
C372 C377 1.382 . S
C373 C372 1.358 . S
C373 C374 1.385 . S
C373 H396 0.930 . S
C374 C373 1.385 . S
C374 C375 1.395 . S
C374 H397 0.929 . S
C375 C374 1.395 . S
C375 C376 1.335 . S
C376 C375 1.335 . S
C376 C377 1.398 . S
C376 H398 0.930 . S
C377 C372 1.382 . S
C377 C376 1.398 . S
C377 H399 0.929 . S
C378 O388 1.271 . S
C378 O389 1.251 . S
C379 O390 1.252 . S
C379 O391 1.272 . S
O380 Sm360 2.543 . S
O380 C362 1.261 . S
O381 Sm360 2.450 . S
O381 C362 1.242 . S
O382 Sm360 2.681 . S
O382 Sm361 2.386 . S
O382 C369 1.271 . S
O383 Sm360 2.464 . S
O383 C369 1.251 . S
O384 Sm360 2.396 . S
O384 C370 1.252 . S
O385 Sm361 2.408 . S
O385 C370 1.272 . S
O386 Sm361 2.543 . S
O386 C371 1.261 . S
O387 Sm361 2.450 . S
O387 C371 1.242 . S
O388 Sm360 2.386 . S
O388 Sm361 2.681 . S
O388 C378 1.271 . S
O389 Sm361 2.464 . S
O389 C378 1.251 . S
O390 Sm361 2.396 . S
O390 C379 1.252 . S
O391 Sm360 2.408 . S
O391 C379 1.272 . S
H392 C364 0.930 . S
H393 C365 0.929 . S
H394 C367 0.930 . S
H395 C368 0.929 . S
H396 C373 0.930 . S
H397 C374 0.929 . S
H398 C376 0.930 . S
H399 C377 0.929 . S
Sm400 C402 2.846 . S
Sm400 O420 2.543 . S
Sm400 O421 2.450 . S
Sm400 O422 2.681 . S
Sm400 O423 2.464 . S
Sm400 O424 2.396 . S
Sm400 O428 2.386 1_455 S
Sm400 O431 2.408 1_455 S
Sm401 C411 2.846 . S
Sm401 O422 2.386 1_655 S
Sm401 O425 2.408 1_655 S
Sm401 O426 2.543 . S
Sm401 O427 2.450 . S
Sm401 O428 2.681 . S
Sm401 O429 2.464 . S
Sm401 O430 2.396 . S
C402 Sm400 2.846 . S
C402 C403 1.506 . S
C402 O420 1.261 . S
C402 O421 1.242 . S
C403 C402 1.506 . S
C403 C404 1.358 . S
C403 C408 1.382 . S
C404 C403 1.358 . S
C404 C405 1.385 . S
C404 H432 0.930 . S
C405 C404 1.385 . S
C405 C406 1.395 . S
C405 H433 0.929 . S
C406 C405 1.395 . S
C406 C407 1.335 . S
C407 C406 1.335 . S
C407 C408 1.398 . S
C407 H434 0.930 . S
C408 C403 1.382 . S
C408 C407 1.398 . S
C408 H435 0.929 . S
C409 O422 1.271 . S
C409 O423 1.251 . S
C410 O424 1.252 . S
C410 O425 1.272 . S
C411 Sm401 2.846 . S
C411 C412 1.506 . S
C411 O426 1.261 . S
C411 O427 1.242 . S
C412 C411 1.506 . S
C412 C413 1.358 . S
C412 C417 1.382 . S
C413 C412 1.358 . S
C413 C414 1.385 . S
C413 H436 0.930 . S
C414 C413 1.385 . S
C414 C415 1.395 . S
C414 H437 0.929 . S
C415 C414 1.395 . S
C415 C416 1.335 . S
C416 C415 1.335 . S
C416 C417 1.398 . S
C416 H438 0.930 . S
C417 C412 1.382 . S
C417 C416 1.398 . S
C417 H439 0.929 . S
C418 O428 1.271 . S
C418 O429 1.251 . S
C419 O430 1.252 . S
C419 O431 1.272 . S
O420 Sm400 2.543 . S
O420 C402 1.261 . S
O421 Sm400 2.450 . S
O421 C402 1.242 . S
O422 Sm400 2.681 . S
O422 Sm401 2.386 1_455 S
O422 C409 1.271 . S
O423 Sm400 2.464 . S
O423 C409 1.251 . S
O424 Sm400 2.396 . S
O424 C410 1.252 . S
O425 Sm401 2.408 1_455 S
O425 C410 1.272 . S
O426 Sm401 2.543 . S
O426 C411 1.261 . S
O427 Sm401 2.450 . S
O427 C411 1.242 . S
O428 Sm400 2.386 1_655 S
O428 Sm401 2.681 . S
O428 C418 1.271 . S
O429 Sm401 2.464 . S
O429 C418 1.251 . S
O430 Sm401 2.396 . S
O430 C419 1.252 . S
O431 Sm400 2.408 1_655 S
O431 C419 1.272 . S
H432 C404 0.930 . S
H433 C405 0.929 . S
H434 C407 0.930 . S
H435 C408 0.929 . S
H436 C413 0.930 . S
H437 C414 0.929 . S
H438 C416 0.930 . S
H439 C417 0.929 . S
Sm440 C442 2.846 . S
Sm440 O460 2.543 . S
Sm440 O461 2.450 . S
Sm440 O462 2.681 . S
Sm440 O463 2.464 . S
Sm440 O464 2.396 . S
Sm440 O468 2.386 . S
Sm440 O471 2.408 . S
Sm441 C451 2.846 . S
Sm441 O462 2.386 . S
Sm441 O465 2.408 . S
Sm441 O466 2.543 . S
Sm441 O467 2.450 . S
Sm441 O468 2.681 . S
Sm441 O469 2.464 . S
Sm441 O470 2.396 . S
C442 Sm440 2.846 . S
C442 C443 1.506 . S
C442 O460 1.261 . S
C442 O461 1.242 . S
C443 C442 1.506 . S
C443 C444 1.358 . S
C443 C448 1.382 . S
C444 C443 1.358 . S
C444 C445 1.385 . S
C444 H472 0.930 . S
C445 C444 1.385 . S
C445 C446 1.395 . S
C445 H473 0.929 . S
C446 C445 1.395 . S
C446 C447 1.335 . S
C447 C446 1.335 . S
C447 C448 1.398 . S
C447 H474 0.930 . S
C448 C443 1.382 . S
C448 C447 1.398 . S
C448 H475 0.929 . S
C449 O462 1.271 . S
C449 O463 1.251 . S
C450 O464 1.252 . S
C450 O465 1.272 . S
C451 Sm441 2.846 . S
C451 C452 1.506 . S
C451 O466 1.261 . S
C451 O467 1.242 . S
C452 C451 1.506 . S
C452 C453 1.358 . S
C452 C457 1.382 . S
C453 C452 1.358 . S
C453 C454 1.385 . S
C453 H476 0.930 . S
C454 C453 1.385 . S
C454 C455 1.395 . S
C454 H477 0.929 . S
C455 C454 1.395 . S
C455 C456 1.335 . S
C456 C455 1.335 . S
C456 C457 1.398 . S
C456 H478 0.930 . S
C457 C452 1.382 . S
C457 C456 1.398 . S
C457 H479 0.929 . S
C458 O468 1.271 . S
C458 O469 1.251 . S
C459 O470 1.252 . S
C459 O471 1.272 . S
O460 Sm440 2.543 . S
O460 C442 1.261 . S
O461 Sm440 2.450 . S
O461 C442 1.242 . S
O462 Sm440 2.681 . S
O462 Sm441 2.386 . S
O462 C449 1.271 . S
O463 Sm440 2.464 . S
O463 C449 1.251 . S
O464 Sm440 2.396 . S
O464 C450 1.252 . S
O465 Sm441 2.408 . S
O465 C450 1.272 . S
O466 Sm441 2.543 . S
O466 C451 1.261 . S
O467 Sm441 2.450 . S
O467 C451 1.242 . S
O468 Sm440 2.386 . S
O468 Sm441 2.681 . S
O468 C458 1.271 . S
O469 Sm441 2.464 . S
O469 C458 1.251 . S
O470 Sm441 2.396 . S
O470 C459 1.252 . S
O471 Sm440 2.408 . S
O471 C459 1.272 . S
H472 C444 0.930 . S
H473 C445 0.929 . S
H474 C447 0.930 . S
H475 C448 0.929 . S
H476 C453 0.930 . S
H477 C454 0.929 . S
H478 C456 0.930 . S
H479 C457 0.929 . S
Sm480 C482 2.846 . S
Sm480 O500 2.543 . S
Sm480 O501 2.450 . S
Sm480 O502 2.681 . S
Sm480 O503 2.464 . S
Sm480 O504 2.396 . S
Sm480 O508 2.386 . S
Sm480 O511 2.408 . S
Sm481 C491 2.846 . S
Sm481 O502 2.386 . S
Sm481 O505 2.408 . S
Sm481 O506 2.543 . S
Sm481 O507 2.450 . S
Sm481 O508 2.681 . S
Sm481 O509 2.464 . S
Sm481 O510 2.396 . S
C482 Sm480 2.846 . S
C482 C483 1.506 . S
C482 O500 1.261 . S
C482 O501 1.242 . S
C483 C482 1.506 . S
C483 C484 1.358 . S
C483 C488 1.382 . S
C484 C483 1.358 . S
C484 C485 1.385 . S
C484 H512 0.930 . S
C485 C484 1.385 . S
C485 C486 1.395 . S
C485 H513 0.929 . S
C486 C485 1.395 . S
C486 C487 1.335 . S
C487 C486 1.335 . S
C487 C488 1.398 . S
C487 H514 0.930 . S
C488 C483 1.382 . S
C488 C487 1.398 . S
C488 H515 0.929 . S
C489 O502 1.271 . S
C489 O503 1.251 . S
C490 O504 1.252 . S
C490 O505 1.272 . S
C491 Sm481 2.846 . S
C491 C492 1.506 . S
C491 O506 1.261 . S
C491 O507 1.242 . S
C492 C491 1.506 . S
C492 C493 1.358 . S
C492 C497 1.382 . S
C493 C492 1.358 . S
C493 C494 1.385 . S
C493 H516 0.930 . S
C494 C493 1.385 . S
C494 C495 1.395 . S
C494 H517 0.929 . S
C495 C494 1.395 . S
C495 C496 1.335 . S
C496 C495 1.335 . S
C496 C497 1.398 . S
C496 H518 0.930 . S
C497 C492 1.382 . S
C497 C496 1.398 . S
C497 H519 0.929 . S
C498 O508 1.271 . S
C498 O509 1.251 . S
C499 O510 1.252 . S
C499 O511 1.272 . S
O500 Sm480 2.543 . S
O500 C482 1.261 . S
O501 Sm480 2.450 . S
O501 C482 1.242 . S
O502 Sm480 2.681 . S
O502 Sm481 2.386 . S
O502 C489 1.271 . S
O503 Sm480 2.464 . S
O503 C489 1.251 . S
O504 Sm480 2.396 . S
O504 C490 1.252 . S
O505 Sm481 2.408 . S
O505 C490 1.272 . S
O506 Sm481 2.543 . S
O506 C491 1.261 . S
O507 Sm481 2.450 . S
O507 C491 1.242 . S
O508 Sm480 2.386 . S
O508 Sm481 2.681 . S
O508 C498 1.271 . S
O509 Sm481 2.464 . S
O509 C498 1.251 . S
O510 Sm481 2.396 . S
O510 C499 1.252 . S
O511 Sm480 2.408 . S
O511 C499 1.272 . S
H512 C484 0.930 . S
H513 C485 0.929 . S
H514 C487 0.930 . S
H515 C488 0.929 . S
H516 C493 0.930 . S
H517 C494 0.929 . S
H518 C496 0.930 . S
H519 C497 0.929 . S
Sm520 C522 2.846 . S
Sm520 O540 2.543 . S
Sm520 O541 2.450 . S
Sm520 O542 2.681 . S
Sm520 O543 2.464 . S
Sm520 O544 2.396 . S
Sm520 O548 2.386 . S
Sm520 O551 2.408 . S
Sm521 C531 2.846 . S
Sm521 O542 2.386 . S
Sm521 O545 2.408 . S
Sm521 O546 2.543 . S
Sm521 O547 2.450 . S
Sm521 O548 2.681 . S
Sm521 O549 2.464 . S
Sm521 O550 2.396 . S
C522 Sm520 2.846 . S
C522 C523 1.506 . S
C522 O540 1.261 . S
C522 O541 1.242 . S
C523 C522 1.506 . S
C523 C524 1.358 . S
C523 C528 1.382 . S
C524 C523 1.358 . S
C524 C525 1.385 . S
C524 H552 0.930 . S
C525 C524 1.385 . S
C525 C526 1.395 . S
C525 H553 0.929 . S
C526 C525 1.395 . S
C526 C527 1.335 . S
C527 C526 1.335 . S
C527 C528 1.398 . S
C527 H554 0.930 . S
C528 C523 1.382 . S
C528 C527 1.398 . S
C528 H555 0.929 . S
C529 O542 1.271 . S
C529 O543 1.251 . S
C530 O544 1.252 . S
C530 O545 1.272 . S
C531 Sm521 2.846 . S
C531 C532 1.506 . S
C531 O546 1.261 . S
C531 O547 1.242 . S
C532 C531 1.506 . S
C532 C533 1.358 . S
C532 C537 1.382 . S
C533 C532 1.358 . S
C533 C534 1.385 . S
C533 H556 0.930 . S
C534 C533 1.385 . S
C534 C535 1.395 . S
C534 H557 0.929 . S
C535 C534 1.395 . S
C535 C536 1.335 . S
C536 C535 1.335 . S
C536 C537 1.398 . S
C536 H558 0.930 . S
C537 C532 1.382 . S
C537 C536 1.398 . S
C537 H559 0.929 . S
C538 O548 1.271 . S
C538 O549 1.251 . S
C539 O550 1.252 . S
C539 O551 1.272 . S
O540 Sm520 2.543 . S
O540 C522 1.261 . S
O541 Sm520 2.450 . S
O541 C522 1.242 . S
O542 Sm520 2.681 . S
O542 Sm521 2.386 . S
O542 C529 1.271 . S
O543 Sm520 2.464 . S
O543 C529 1.251 . S
O544 Sm520 2.396 . S
O544 C530 1.252 . S
O545 Sm521 2.408 . S
O545 C530 1.272 . S
O546 Sm521 2.543 . S
O546 C531 1.261 . S
O547 Sm521 2.450 . S
O547 C531 1.242 . S
O548 Sm520 2.386 . S
O548 Sm521 2.681 . S
O548 C538 1.271 . S
O549 Sm521 2.464 . S
O549 C538 1.251 . S
O550 Sm521 2.396 . S
O550 C539 1.252 . S
O551 Sm520 2.408 . S
O551 C539 1.272 . S
H552 C524 0.930 . S
H553 C525 0.929 . S
H554 C527 0.930 . S
H555 C528 0.929 . S
H556 C533 0.930 . S
H557 C534 0.929 . S
H558 C536 0.930 . S
H559 C537 0.929 . S
Sm560 C562 2.846 . S
Sm560 O580 2.543 . S
Sm560 O581 2.450 . S
Sm560 O582 2.681 . S
Sm560 O583 2.464 . S
Sm560 O584 2.396 . S
Sm560 O588 2.386 . S
Sm560 O591 2.408 . S
Sm561 C571 2.846 . S
Sm561 O582 2.386 . S
Sm561 O585 2.408 . S
Sm561 O586 2.543 . S
Sm561 O587 2.450 . S
Sm561 O588 2.681 . S
Sm561 O589 2.464 . S
Sm561 O590 2.396 . S
C562 Sm560 2.846 . S
C562 C563 1.506 . S
C562 O580 1.261 . S
C562 O581 1.242 . S
C563 C562 1.506 . S
C563 C564 1.358 . S
C563 C568 1.382 . S
C564 C563 1.358 . S
C564 C565 1.385 . S
C564 H592 0.930 . S
C565 C564 1.385 . S
C565 C566 1.395 . S
C565 H593 0.929 . S
C566 C565 1.395 . S
C566 C567 1.335 . S
C567 C566 1.335 . S
C567 C568 1.398 . S
C567 H594 0.930 . S
C568 C563 1.382 . S
C568 C567 1.398 . S
C568 H595 0.929 . S
C569 O582 1.271 . S
C569 O583 1.251 . S
C570 O584 1.252 . S
C570 O585 1.272 . S
C571 Sm561 2.846 . S
C571 C572 1.506 . S
C571 O586 1.261 . S
C571 O587 1.242 . S
C572 C571 1.506 . S
C572 C573 1.358 . S
C572 C577 1.382 . S
C573 C572 1.358 . S
C573 C574 1.385 . S
C573 H596 0.930 . S
C574 C573 1.385 . S
C574 C575 1.395 . S
C574 H597 0.929 . S
C575 C574 1.395 . S
C575 C576 1.335 . S
C576 C575 1.335 . S
C576 C577 1.398 . S
C576 H598 0.930 . S
C577 C572 1.382 . S
C577 C576 1.398 . S
C577 H599 0.929 . S
C578 O588 1.271 . S
C578 O589 1.251 . S
C579 O590 1.252 . S
C579 O591 1.272 . S
O580 Sm560 2.543 . S
O580 C562 1.261 . S
O581 Sm560 2.450 . S
O581 C562 1.242 . S
O582 Sm560 2.681 . S
O582 Sm561 2.386 . S
O582 C569 1.271 . S
O583 Sm560 2.464 . S
O583 C569 1.251 . S
O584 Sm560 2.396 . S
O584 C570 1.252 . S
O585 Sm561 2.408 . S
O585 C570 1.272 . S
O586 Sm561 2.543 . S
O586 C571 1.261 . S
O587 Sm561 2.450 . S
O587 C571 1.242 . S
O588 Sm560 2.386 . S
O588 Sm561 2.681 . S
O588 C578 1.271 . S
O589 Sm561 2.464 . S
O589 C578 1.251 . S
O590 Sm561 2.396 . S
O590 C579 1.252 . S
O591 Sm560 2.408 . S
O591 C579 1.272 . S
H592 C564 0.930 . S
H593 C565 0.929 . S
H594 C567 0.930 . S
H595 C568 0.929 . S
H596 C573 0.930 . S
H597 C574 0.929 . S
H598 C576 0.930 . S
H599 C577 0.929 . S
Sm600 C602 2.846 . S
Sm600 O620 2.543 . S
Sm600 O621 2.450 . S
Sm600 O622 2.681 1_554 S
Sm600 O623 2.464 1_554 S
Sm600 O624 2.396 1_554 S
Sm600 O628 2.386 1_655 S
Sm600 O631 2.408 1_655 S
Sm601 C611 2.846 . S
Sm601 O622 2.386 1_455 S
Sm601 O625 2.401 1_455 S
Sm601 O626 2.543 . S
Sm601 O627 2.450 . S
Sm601 O628 2.681 1_556 S
Sm601 O629 2.464 1_556 S
Sm601 O630 2.396 1_556 S
C602 Sm600 2.846 . S
C602 C603 1.506 . S
C602 O620 1.261 . S
C602 O621 1.242 . S
C603 C602 1.506 . S
C603 C604 1.358 . S
C603 C608 1.382 . S
C604 C603 1.358 . S
C604 C605 1.385 . S
C604 H632 0.930 . S
C605 C604 1.385 . S
C605 C606 1.395 . S
C605 H633 0.929 . S
C606 C605 1.395 . S
C606 C607 1.335 . S
C607 C606 1.335 . S
C607 C608 1.398 . S
C607 H634 0.930 . S
C608 C603 1.382 . S
C608 C607 1.398 . S
C608 H635 0.929 . S
C609 O622 1.271 . S
C609 O623 1.251 . S
C610 O624 1.252 . S
C610 O625 1.279 . S
C611 Sm601 2.846 . S
C611 C612 1.506 . S
C611 O626 1.261 . S
C611 O627 1.242 . S
C612 C611 1.506 . S
C612 C613 1.358 . S
C612 C617 1.382 . S
C613 C612 1.358 . S
C613 C614 1.385 . S
C613 H636 0.930 . S
C614 C613 1.385 . S
C614 C615 1.395 . S
C614 H637 0.929 . S
C615 C614 1.395 . S
C615 C616 1.335 . S
C616 C615 1.335 . S
C616 C617 1.398 . S
C616 H638 0.930 . S
C617 C612 1.382 . S
C617 C616 1.398 . S
C617 H639 0.929 . S
C618 O628 1.271 . S
C618 O629 1.251 . S
C619 O630 1.252 . S
C619 O631 1.272 . S
O620 Sm600 2.543 . S
O620 C602 1.261 . S
O621 Sm600 2.450 . S
O621 C602 1.242 . S
O622 Sm600 2.681 1_556 S
O622 Sm601 2.386 1_655 S
O622 C609 1.271 . S
O623 Sm600 2.464 1_556 S
O623 C609 1.251 . S
O624 Sm600 2.396 1_556 S
O624 C610 1.252 . S
O625 Sm601 2.401 1_655 S
O625 C610 1.279 . S
O626 Sm601 2.543 . S
O626 C611 1.261 . S
O627 Sm601 2.450 . S
O627 C611 1.242 . S
O628 Sm600 2.386 1_455 S
O628 Sm601 2.681 1_554 S
O628 C618 1.271 . S
O629 Sm601 2.464 1_554 S
O629 C618 1.251 . S
O630 Sm601 2.396 1_554 S
O630 C619 1.252 . S
O631 Sm600 2.408 1_455 S
O631 C619 1.272 . S
H632 C604 0.930 . S
H633 C605 0.929 . S
H634 C607 0.930 . S
H635 C608 0.929 . S
H636 C613 0.930 . S
H637 C614 0.929 . S
H638 C616 0.930 . S
H639 C617 0.929 . S
H640 C648 0.950 . S
H641 C653 0.950 . S
H642 C650 0.950 . S
H643 C652 0.950 . S
H644 C654 0.950 . S
H645 C656 0.950 . S
H646 C658 0.950 . S
H647 C659 0.950 . S
C648 H640 0.950 . S
C648 C649 1.386 . S
C648 C650 1.391 . S
C649 C648 1.386 . S
C649 C653 1.393 . S
C650 H642 0.950 . S
C650 C648 1.391 . S
C650 C651 1.400 . S
C651 C650 1.400 . S
C651 C652 1.398 . S
C651 C657 1.491 . S
C652 H643 0.950 . S
C652 C651 1.398 . S
C652 C653 1.391 . S
C653 H641 0.950 . S
C653 C649 1.393 . S
C653 C652 1.391 . S
C654 H644 0.950 . S
C654 C655 1.386 . S
C654 C656 1.391 . S
C655 C654 1.386 . S
C655 C659 1.393 . S
C656 H645 0.950 . S
C656 C654 1.391 . S
C656 C657 1.400 . S
C657 C651 1.491 . S
C657 C656 1.400 . S
C657 C658 1.398 . S
C658 H646 0.950 . S
C658 C657 1.398 . S
C658 C659 1.391 . S
C659 H647 0.950 . S
C659 C655 1.393 . S
C659 C658 1.391 . S
H660 C668 0.950 . S
H661 C673 0.950 1_545 S
H662 C670 0.950 . S
H663 C672 0.950 . S
H664 C674 0.950 . S
H665 C676 0.950 . S
H666 C678 0.950 . S
H667 C679 0.950 . S
C668 H660 0.950 . S
C668 C669 1.386 . S
C668 C670 1.391 . S
C669 C668 1.386 . S
C669 C673 1.393 . S
C670 H662 0.950 . S
C670 C668 1.391 . S
C670 C671 1.400 . S
C671 C670 1.400 . S
C671 C672 1.398 . S
C671 C677 1.491 . S
C672 H663 0.950 . S
C672 C671 1.398 . S
C672 C673 1.391 . S
C673 H661 0.950 1_565 S
C673 C669 1.393 . S
C673 C672 1.391 . S
C674 H664 0.950 . S
C674 C675 1.386 . S
C674 C676 1.391 . S
C675 C674 1.386 . S
C675 C679 1.393 . S
C676 H665 0.950 . S
C676 C674 1.391 . S
C676 C677 1.400 . S
C677 C671 1.491 . S
C677 C676 1.400 . S
C677 C678 1.398 . S
C678 H666 0.950 . S
C678 C677 1.398 . S
C678 C679 1.391 . S
C679 H667 0.950 . S
C679 C675 1.393 . S
C679 C678 1.391 . S
H680 C688 0.950 . S
H681 C693 0.950 . S
H682 C690 0.950 . S
H683 C692 0.950 . S
H684 C694 0.950 . S
H685 C696 0.950 . S
H686 C698 0.950 . S
H687 C699 0.950 . S
C688 H680 0.950 . S
C688 C689 1.386 . S
C688 C690 1.391 . S
C689 C688 1.386 . S
C689 C693 1.393 . S
C690 H682 0.950 . S
C690 C688 1.391 . S
C690 C691 1.400 . S
C691 C690 1.400 . S
C691 C692 1.398 . S
C691 C697 1.491 . S
C692 H683 0.950 . S
C692 C691 1.398 . S
C692 C693 1.391 . S
C693 H681 0.950 . S
C693 C689 1.393 . S
C693 C692 1.391 . S
C694 H684 0.950 . S
C694 C695 1.386 . S
C694 C696 1.391 . S
C695 C694 1.386 . S
C695 C699 1.393 . S
C696 H685 0.950 . S
C696 C694 1.391 . S
C696 C697 1.400 . S
C697 C691 1.491 . S
C697 C696 1.400 . S
C697 C698 1.398 . S
C698 H686 0.950 . S
C698 C697 1.398 . S
C698 C699 1.391 . S
C699 H687 0.950 . S
C699 C695 1.393 . S
C699 C698 1.391 . S
H700 C708 0.950 . S
H701 C713 0.950 . S
H702 C710 0.950 . S
H703 C712 0.950 . S
H704 C714 0.950 . S
H705 C716 0.950 . S
H706 C718 0.950 . S
H707 C719 0.950 . S
C708 H700 0.950 . S
C708 C709 1.386 . S
C708 C710 1.391 . S
C709 C708 1.386 . S
C709 C713 1.393 . S
C710 H702 0.950 . S
C710 C708 1.391 . S
C710 C711 1.400 . S
C711 C710 1.400 . S
C711 C712 1.398 . S
C711 C717 1.491 . S
C712 H703 0.950 . S
C712 C711 1.398 . S
C712 C713 1.391 . S
C713 H701 0.950 . S
C713 C709 1.393 . S
C713 C712 1.391 . S
C714 H704 0.950 . S
C714 C715 1.386 . S
C714 C716 1.391 . S
C715 C714 1.386 . S
C715 C719 1.393 . S
C716 H705 0.950 . S
C716 C714 1.391 . S
C716 C717 1.400 . S
C717 C711 1.491 . S
C717 C716 1.400 . S
C717 C718 1.398 . S
C718 H706 0.950 . S
C718 C717 1.398 . S
C718 C719 1.391 . S
C719 H707 0.950 . S
C719 C715 1.393 . S
C719 C718 1.391 . S
H720 C728 0.950 . S
H721 C733 0.950 . S
H722 C730 0.950 . S
H723 C732 0.950 . S
H724 C734 0.950 . S
H725 C736 0.950 . S
H726 C738 0.950 . S
H727 C739 0.950 . S
C728 H720 0.950 . S
C728 C729 1.386 . S
C728 C730 1.391 . S
C729 C728 1.386 . S
C729 C733 1.393 . S
C730 H722 0.950 . S
C730 C728 1.391 . S
C730 C731 1.400 . S
C731 C730 1.400 . S
C731 C732 1.398 . S
C731 C737 1.491 . S
C732 H723 0.950 . S
C732 C731 1.398 . S
C732 C733 1.391 . S
C733 H721 0.950 . S
C733 C729 1.393 . S
C733 C732 1.391 . S
C734 H724 0.950 . S
C734 C735 1.386 . S
C734 C736 1.391 . S
C735 C734 1.386 . S
C735 C739 1.393 . S
C736 H725 0.950 . S
C736 C734 1.391 . S
C736 C737 1.400 . S
C737 C731 1.491 . S
C737 C736 1.400 . S
C737 C738 1.398 . S
C738 H726 0.950 . S
C738 C737 1.398 . S
C738 C739 1.391 . S
C739 H727 0.950 . S
C739 C735 1.393 . S
C739 C738 1.391 . S
H740 C748 0.950 . S
H741 C753 0.950 . S
H742 C750 0.950 . S
H743 C752 0.950 . S
H744 C754 0.950 . S
H745 C756 0.950 . S
H746 C758 0.950 . S
H747 C759 0.950 . S
C748 H740 0.950 . S
C748 C749 1.386 . S
C748 C750 1.391 . S
C749 C748 1.386 . S
C749 C753 1.393 . S
C750 H742 0.950 . S
C750 C748 1.391 . S
C750 C751 1.400 . S
C751 C750 1.400 . S
C751 C752 1.398 . S
C751 C757 1.491 . S
C752 H743 0.950 . S
C752 C751 1.398 . S
C752 C753 1.391 . S
C753 H741 0.950 . S
C753 C749 1.393 . S
C753 C752 1.391 . S
C754 H744 0.950 . S
C754 C755 1.386 . S
C754 C756 1.391 . S
C755 C754 1.386 . S
C755 C759 1.393 . S
C756 H745 0.950 . S
C756 C754 1.391 . S
C756 C757 1.400 . S
C757 C751 1.491 . S
C757 C756 1.400 . S
C757 C758 1.398 . S
C758 H746 0.950 . S
C758 C757 1.398 . S
C758 C759 1.391 . S
C759 H747 0.950 . S
C759 C755 1.393 . S
C759 C758 1.391 . S
H760 C768 0.950 . S
H761 C773 0.950 . S
H762 C770 0.950 . S
H763 C772 0.950 . S
H764 C774 0.950 . S
H765 C776 0.950 . S
H766 C778 0.950 . S
H767 C779 0.950 . S
C768 H760 0.950 . S
C768 C769 1.386 . S
C768 C770 1.391 . S
C769 C768 1.386 . S
C769 C773 1.393 . S
C770 H762 0.950 . S
C770 C768 1.391 . S
C770 C771 1.400 . S
C771 C770 1.400 . S
C771 C772 1.398 . S
C771 C777 1.491 . S
C772 H763 0.950 . S
C772 C771 1.398 . S
C772 C773 1.391 . S
C773 H761 0.950 . S
C773 C769 1.393 . S
C773 C772 1.391 . S
C774 H764 0.950 . S
C774 C775 1.386 . S
C774 C776 1.391 . S
C775 C774 1.386 . S
C775 C779 1.393 . S
C776 H765 0.950 . S
C776 C774 1.391 . S
C776 C777 1.400 . S
C777 C771 1.491 . S
C777 C776 1.400 . S
C777 C778 1.398 . S
C778 H766 0.950 . S
C778 C777 1.398 . S
C778 C779 1.391 . S
C779 H767 0.950 . S
C779 C775 1.393 . S
C779 C778 1.391 . S
H780 C788 0.950 . S
H781 C793 0.950 . S
H782 C790 0.950 . S
H783 C792 0.950 . S
H784 C794 0.950 . S
H785 C796 0.950 . S
H786 C798 0.950 . S
H787 C799 0.950 . S
C788 H780 0.950 . S
C788 C789 1.386 . S
C788 C790 1.391 . S
C789 C788 1.386 . S
C789 C793 1.393 . S
C790 H782 0.950 . S
C790 C788 1.391 . S
C790 C791 1.400 . S
C791 C790 1.400 . S
C791 C792 1.398 . S
C791 C797 1.491 . S
C792 H783 0.950 . S
C792 C791 1.398 . S
C792 C793 1.391 . S
C793 H781 0.950 . S
C793 C789 1.393 . S
C793 C792 1.391 . S
C794 H784 0.950 . S
C794 C795 1.386 . S
C794 C796 1.391 . S
C795 C794 1.386 . S
C795 C799 1.393 . S
C796 H785 0.950 . S
C796 C794 1.391 . S
C796 C797 1.400 . S
C797 C791 1.491 . S
C797 C796 1.400 . S
C797 C798 1.398 . S
C798 H786 0.950 . S
C798 C797 1.398 . S
C798 C799 1.391 . S
C799 H787 0.950 . S
C799 C795 1.393 . S
C799 C798 1.391 . S
H800 C808 0.950 . S
H801 C813 0.950 . S
H802 C810 0.950 . S
H803 C812 0.950 . S
H804 C814 0.950 1_455 S
H805 C816 0.950 . S
H806 C818 0.950 . S
H807 C819 0.950 . S
C808 H800 0.950 . S
C808 C809 1.386 . S
C808 C810 1.391 . S
C809 C808 1.386 . S
C809 C813 1.393 . S
C810 H802 0.950 . S
C810 C808 1.391 . S
C810 C811 1.400 . S
C811 C810 1.400 . S
C811 C812 1.398 . S
C811 C817 1.491 . S
C812 H803 0.950 . S
C812 C811 1.398 . S
C812 C813 1.391 . S
C813 H801 0.950 . S
C813 C809 1.393 . S
C813 C812 1.391 . S
C814 H804 0.950 1_655 S
C814 C815 1.386 . S
C814 C816 1.391 . S
C815 C814 1.386 . S
C815 C819 1.393 . S
C816 H805 0.950 . S
C816 C814 1.391 . S
C816 C817 1.400 . S
C817 C811 1.491 . S
C817 C816 1.400 . S
C817 C818 1.398 . S
C818 H806 0.950 . S
C818 C817 1.398 . S
C818 C819 1.391 . S
C819 H807 0.950 . S
C819 C815 1.393 . S
C819 C818 1.391 . S
H820 C828 0.950 . S
H821 C833 0.950 . S
H822 C830 0.950 . S
H823 C832 0.950 . S
H824 C834 0.950 . S
H825 C836 0.950 . S
H826 C838 0.950 . S
H827 C839 0.950 . S
C828 H820 0.950 . S
C828 C829 1.386 . S
C828 C830 1.391 . S
C829 C828 1.386 . S
C829 C833 1.393 . S
C830 H822 0.950 . S
C830 C828 1.391 . S
C830 C831 1.400 . S
C831 C830 1.400 . S
C831 C832 1.398 . S
C831 C837 1.491 . S
C832 H823 0.950 . S
C832 C831 1.398 . S
C832 C833 1.391 . S
C833 H821 0.950 . S
C833 C829 1.393 . S
C833 C832 1.391 . S
C834 H824 0.950 . S
C834 C835 1.386 . S
C834 C836 1.391 . S
C835 C834 1.386 . S
C835 C839 1.393 . S
C836 H825 0.950 . S
C836 C834 1.391 . S
C836 C837 1.400 . S
C837 C831 1.491 . S
C837 C836 1.400 . S
C837 C838 1.398 . S
C838 H826 0.950 . S
C838 C837 1.398 . S
C838 C839 1.391 . S
C839 H827 0.950 . S
C839 C835 1.393 . S
C839 C838 1.391 . S
H840 C848 0.950 . S
H841 C853 0.950 . S
H842 C850 0.950 . S
H843 C852 0.950 . S
H844 C854 0.950 . S
H845 C856 0.950 . S
H846 C858 0.950 . S
H847 C859 0.950 . S
C848 H840 0.950 . S
C848 C849 1.386 . S
C848 C850 1.391 . S
C849 C848 1.386 . S
C849 C853 1.393 . S
C850 H842 0.950 . S
C850 C848 1.391 . S
C850 C851 1.400 . S
C851 C850 1.400 . S
C851 C852 1.398 . S
C851 C857 1.491 . S
C852 H843 0.950 . S
C852 C851 1.398 . S
C852 C853 1.391 . S
C853 H841 0.950 . S
C853 C849 1.393 . S
C853 C852 1.391 . S
C854 H844 0.950 . S
C854 C855 1.386 . S
C854 C856 1.391 . S
C855 C854 1.386 . S
C855 C859 1.393 . S
C856 H845 0.950 . S
C856 C854 1.391 . S
C856 C857 1.400 . S
C857 C851 1.491 . S
C857 C856 1.400 . S
C857 C858 1.398 . S
C858 H846 0.950 . S
C858 C857 1.398 . S
C858 C859 1.391 . S
C859 H847 0.950 . S
C859 C855 1.393 . S
C859 C858 1.391 . S
H860 C868 0.950 . S
H861 C873 0.950 . S
H862 C870 0.950 . S
H863 C872 0.950 . S
H864 C874 0.950 . S
H865 C876 0.950 . S
H866 C878 0.950 . S
H867 C879 0.950 . S
C868 H860 0.950 . S
C868 C869 1.386 . S
C868 C870 1.391 . S
C869 C868 1.386 . S
C869 C873 1.393 . S
C870 H862 0.950 . S
C870 C868 1.391 . S
C870 C871 1.400 . S
C871 C870 1.400 . S
C871 C872 1.398 . S
C871 C877 1.491 . S
C872 H863 0.950 . S
C872 C871 1.398 . S
C872 C873 1.391 . S
C873 H861 0.950 . S
C873 C869 1.393 . S
C873 C872 1.391 . S
C874 H864 0.950 . S
C874 C875 1.386 . S
C874 C876 1.391 . S
C875 C874 1.386 . S
C875 C879 1.393 . S
C876 H865 0.950 . S
C876 C874 1.391 . S
C876 C877 1.400 . S
C877 C871 1.491 . S
C877 C876 1.400 . S
C877 C878 1.398 . S
C878 H866 0.950 . S
C878 C877 1.398 . S
C878 C879 1.391 . S
C879 H867 0.950 . S
C879 C875 1.393 . S
C879 C878 1.391 . S
H880 C888 0.950 . S
H881 C893 0.950 . S
H882 C890 0.950 . S
H883 C892 0.950 . S
H884 C894 0.950 . S
H885 C896 0.950 . S
H886 C898 0.950 . S
H887 C899 0.950 . S
C888 H880 0.950 . S
C888 C889 1.386 . S
C888 C890 1.391 . S
C889 C888 1.386 . S
C889 C893 1.393 . S
C890 H882 0.950 . S
C890 C888 1.391 . S
C890 C891 1.400 . S
C891 C890 1.400 . S
C891 C892 1.398 . S
C891 C897 1.491 . S
C892 H883 0.950 . S
C892 C891 1.398 . S
C892 C893 1.391 . S
C893 H881 0.950 . S
C893 C889 1.393 . S
C893 C892 1.391 . S
C894 H884 0.950 . S
C894 C895 1.386 . S
C894 C896 1.391 . S
C895 C894 1.386 . S
C895 C899 1.393 . S
C896 H885 0.950 . S
C896 C894 1.391 . S
C896 C897 1.400 . S
C897 C891 1.491 . S
C897 C896 1.400 . S
C897 C898 1.398 . S
C898 H886 0.950 . S
C898 C897 1.398 . S
C898 C899 1.391 . S
C899 H887 0.950 . S
C899 C895 1.393 . S
C899 C898 1.391 . S
H900 C908 0.950 . S
H901 C913 0.950 . S
H902 C910 0.950 . S
H903 C912 0.950 . S
H904 C914 0.950 . S
H905 C916 0.950 . S
H906 C918 0.950 . S
H907 C919 0.950 . S
C908 H900 0.950 . S
C908 C909 1.386 . S
C908 C910 1.391 . S
C909 C908 1.386 . S
C909 C913 1.393 . S
C910 H902 0.950 . S
C910 C908 1.391 . S
C910 C911 1.400 . S
C911 C910 1.400 . S
C911 C912 1.398 . S
C911 C917 1.491 . S
C912 H903 0.950 . S
C912 C911 1.398 . S
C912 C913 1.391 . S
C913 H901 0.950 . S
C913 C909 1.393 . S
C913 C912 1.391 . S
C914 H904 0.950 . S
C914 C915 1.386 . S
C914 C916 1.391 . S
C915 C914 1.386 . S
C915 C919 1.393 . S
C916 H905 0.950 . S
C916 C914 1.391 . S
C916 C917 1.400 . S
C917 C911 1.491 . S
C917 C916 1.400 . S
C917 C918 1.398 . S
C918 H906 0.950 . S
C918 C917 1.398 . S
C918 C919 1.391 . S
C919 H907 0.950 . S
C919 C915 1.393 . S
C919 C918 1.391 . S
H920 C928 0.950 . S
H921 C933 0.950 . S
H922 C930 0.950 . S
H923 C932 0.950 . S
H924 C934 0.950 . S
H925 C936 0.950 . S
H926 C938 0.950 . S
H927 C939 0.950 . S
C928 H920 0.950 . S
C928 C929 1.386 . S
C928 C930 1.391 . S
C929 C928 1.386 . S
C929 C933 1.393 . S
C930 H922 0.950 . S
C930 C928 1.391 . S
C930 C931 1.400 . S
C931 C930 1.400 . S
C931 C932 1.398 . S
C931 C937 1.491 . S
C932 H923 0.950 . S
C932 C931 1.398 . S
C932 C933 1.391 . S
C933 H921 0.950 . S
C933 C929 1.393 . S
C933 C932 1.391 . S
C934 H924 0.950 . S
C934 C935 1.386 . S
C934 C936 1.391 . S
C935 C934 1.386 . S
C935 C939 1.393 . S
C936 H925 0.950 . S
C936 C934 1.391 . S
C936 C937 1.400 . S
C937 C931 1.491 . S
C937 C936 1.400 . S
C937 C938 1.398 . S
C938 H926 0.950 . S
C938 C937 1.398 . S
C938 C939 1.391 . S
C939 H927 0.950 . S
C939 C935 1.393 . S
C939 C938 1.391 . S
H940 C948 0.950 . S
H941 C953 0.950 . S
H942 C950 0.950 . S
H943 C952 0.950 . S
H944 C954 0.950 . S
H945 C956 0.950 . S
H946 C958 0.950 . S
H947 C959 0.950 . S
C948 H940 0.950 . S
C948 C949 1.386 . S
C948 C950 1.391 . S
C949 C948 1.386 . S
C949 C953 1.393 . S
C950 H942 0.950 . S
C950 C948 1.391 . S
C950 C951 1.400 . S
C951 C950 1.400 . S
C951 C952 1.398 . S
C951 C957 1.491 . S
C952 H943 0.950 . S
C952 C951 1.398 . S
C952 C953 1.391 . S
C953 H941 0.950 . S
C953 C949 1.393 . S
C953 C952 1.391 . S
C954 H944 0.950 . S
C954 C955 1.386 . S
C954 C956 1.391 . S
C955 C954 1.386 . S
C955 C959 1.393 . S
C956 H945 0.950 . S
C956 C954 1.391 . S
C956 C957 1.400 . S
C957 C951 1.491 . S
C957 C956 1.400 . S
C957 C958 1.398 . S
C958 H946 0.950 . S
C958 C957 1.398 . S
C958 C959 1.391 . S
C959 H947 0.950 . S
C959 C955 1.393 . S
C959 C958 1.391 . S
H960 C968 0.950 . S
H961 C973 0.950 . S
H962 C970 0.950 . S
H963 C972 0.950 . S
H964 C974 0.950 . S
H965 C976 0.950 . S
H966 C978 0.950 . S
H967 C979 0.950 . S
C968 H960 0.950 . S
C968 C969 1.386 . S
C968 C970 1.391 . S
C969 C968 1.386 . S
C969 C973 1.393 . S
C970 H962 0.950 . S
C970 C968 1.391 . S
C970 C971 1.400 . S
C971 C970 1.400 . S
C971 C972 1.398 . S
C971 C977 1.491 . S
C972 H963 0.950 . S
C972 C971 1.398 . S
C972 C973 1.391 . S
C973 H961 0.950 . S
C973 C969 1.393 . S
C973 C972 1.391 . S
C974 H964 0.950 . S
C974 C975 1.386 . S
C974 C976 1.391 . S
C975 C974 1.386 . S
C975 C979 1.393 . S
C976 H965 0.950 . S
C976 C974 1.391 . S
C976 C977 1.400 . S
C977 C971 1.491 . S
C977 C976 1.400 . S
C977 C978 1.398 . S
C978 H966 0.950 . S
C978 C977 1.398 . S
C978 C979 1.391 . S
C979 H967 0.950 . S
C979 C975 1.393 . S
C979 C978 1.391 . S
H980 C988 0.950 . S
H981 C993 0.950 . S
H982 C990 0.950 . S
H983 C992 0.950 . S
H984 C994 0.950 . S
H985 C996 0.950 . S
H986 C998 0.950 . S
H987 C999 0.950 . S
C988 H980 0.950 . S
C988 C989 1.386 . S
C988 C990 1.391 . S
C989 C988 1.386 . S
C989 C993 1.393 . S
C990 H982 0.950 . S
C990 C988 1.391 . S
C990 C991 1.400 . S
C991 C990 1.400 . S
C991 C992 1.398 . S
C991 C997 1.491 . S
C992 H983 0.950 . S
C992 C991 1.398 . S
C992 C993 1.391 . S
C993 H981 0.950 . S
C993 C989 1.393 . S
C993 C992 1.391 . S
C994 H984 0.950 . S
C994 C995 1.386 . S
C994 C996 1.391 . S
C995 C994 1.386 . S
C995 C999 1.393 . S
C996 H985 0.950 . S
C996 C994 1.391 . S
C996 C997 1.400 . S
C997 C991 1.491 . S
C997 C996 1.400 . S
C997 C998 1.398 . S
C998 H986 0.950 . S
C998 C997 1.398 . S
C998 C999 1.391 . S
C999 H987 0.950 . S
C999 C995 1.393 . S
C999 C998 1.391 . S
H1000 C1008 0.950 . S
H1001 C1013 0.950 . S
H1002 C1010 0.950 . S
H1003 C1012 0.950 . S
H1004 C1014 0.950 . S
H1005 C1016 0.950 . S
H1006 C1018 0.950 . S
H1007 C1019 0.950 . S
C1008 H1000 0.950 . S
C1008 C1009 1.386 . S
C1008 C1010 1.391 . S
C1009 C1008 1.386 . S
C1009 C1013 1.393 . S
C1010 H1002 0.950 . S
C1010 C1008 1.391 . S
C1010 C1011 1.400 . S
C1011 C1010 1.400 . S
C1011 C1012 1.398 . S
C1011 C1017 1.491 . S
C1012 H1003 0.950 . S
C1012 C1011 1.398 . S
C1012 C1013 1.391 . S
C1013 H1001 0.950 . S
C1013 C1009 1.393 . S
C1013 C1012 1.391 . S
C1014 H1004 0.950 . S
C1014 C1015 1.386 . S
C1014 C1016 1.391 . S
C1015 C1014 1.386 . S
C1015 C1019 1.393 . S
C1016 H1005 0.950 . S
C1016 C1014 1.391 . S
C1016 C1017 1.400 . S
C1017 C1011 1.491 . S
C1017 C1016 1.400 . S
C1017 C1018 1.398 . S
C1018 H1006 0.950 . S
C1018 C1017 1.398 . S
C1018 C1019 1.391 . S
C1019 H1007 0.950 . S
C1019 C1015 1.393 . S
C1019 C1018 1.391 . S
H1020 C1028 0.950 . S
H1021 C1033 0.950 . S
H1022 C1030 0.950 . S
H1023 C1032 0.950 . S
H1024 C1034 0.950 . S
H1025 C1036 0.950 . S
H1026 C1038 0.950 . S
H1027 C1039 0.950 . S
C1028 H1020 0.950 . S
C1028 C1029 1.386 . S
C1028 C1030 1.391 . S
C1029 C1028 1.386 . S
C1029 C1033 1.393 . S
C1030 H1022 0.950 . S
C1030 C1028 1.391 . S
C1030 C1031 1.400 . S
C1031 C1030 1.400 . S
C1031 C1032 1.398 . S
C1031 C1037 1.491 . S
C1032 H1023 0.950 . S
C1032 C1031 1.398 . S
C1032 C1033 1.391 . S
C1033 H1021 0.950 . S
C1033 C1029 1.393 . S
C1033 C1032 1.391 . S
C1034 H1024 0.950 . S
C1034 C1035 1.386 . S
C1034 C1036 1.391 . S
C1035 C1034 1.386 . S
C1035 C1039 1.393 . S
C1036 H1025 0.950 . S
C1036 C1034 1.391 . S
C1036 C1037 1.400 . S
C1037 C1031 1.491 . S
C1037 C1036 1.400 . S
C1037 C1038 1.398 . S
C1038 H1026 0.950 . S
C1038 C1037 1.398 . S
C1038 C1039 1.391 . S
C1039 H1027 0.950 . S
C1039 C1035 1.393 . S
C1039 C1038 1.391 . S
H1040 C1048 0.950 . S
H1041 C1053 0.950 . S
H1042 C1050 0.950 . S
H1043 C1052 0.950 . S
H1044 C1054 0.950 . S
H1045 C1056 0.950 . S
H1046 C1058 0.950 . S
H1047 C1059 0.950 . S
C1048 H1040 0.950 . S
C1048 C1049 1.386 . S
C1048 C1050 1.391 . S
C1049 C1048 1.386 . S
C1049 C1053 1.393 . S
C1050 H1042 0.950 . S
C1050 C1048 1.391 . S
C1050 C1051 1.400 . S
C1051 C1050 1.400 . S
C1051 C1052 1.398 . S
C1051 C1057 1.491 . S
C1052 H1043 0.950 . S
C1052 C1051 1.398 . S
C1052 C1053 1.391 . S
C1053 H1041 0.950 . S
C1053 C1049 1.393 . S
C1053 C1052 1.391 . S
C1054 H1044 0.950 . S
C1054 C1055 1.386 . S
C1054 C1056 1.391 . S
C1055 C1054 1.386 . S
C1055 C1059 1.393 . S
C1056 H1045 0.950 . S
C1056 C1054 1.391 . S
C1056 C1057 1.400 . S
C1057 C1051 1.491 . S
C1057 C1056 1.400 . S
C1057 C1058 1.398 . S
C1058 H1046 0.950 . S
C1058 C1057 1.398 . S
C1058 C1059 1.391 . S
C1059 H1047 0.950 . S
C1059 C1055 1.393 . S
C1059 C1058 1.391 . S
H1060 C1068 0.950 . S
H1061 C1073 0.950 . S
H1062 C1070 0.950 . S
H1063 C1072 0.950 . S
H1064 C1074 0.950 . S
H1065 C1076 0.950 . S
H1066 C1078 0.950 . S
H1067 C1079 0.950 . S
C1068 H1060 0.950 . S
C1068 C1069 1.386 . S
C1068 C1070 1.391 . S
C1069 C1068 1.386 . S
C1069 C1073 1.393 . S
C1070 H1062 0.950 . S
C1070 C1068 1.391 . S
C1070 C1071 1.400 . S
C1071 C1070 1.400 . S
C1071 C1072 1.398 . S
C1071 C1077 1.491 . S
C1072 H1063 0.950 . S
C1072 C1071 1.398 . S
C1072 C1073 1.391 . S
C1073 H1061 0.950 . S
C1073 C1069 1.393 . S
C1073 C1072 1.391 . S
C1074 H1064 0.950 . S
C1074 C1075 1.386 . S
C1074 C1076 1.391 . S
C1075 C1074 1.386 . S
C1075 C1079 1.393 . S
C1076 H1065 0.950 . S
C1076 C1074 1.391 . S
C1076 C1077 1.400 . S
C1077 C1071 1.491 . S
C1077 C1076 1.400 . S
C1077 C1078 1.398 . S
C1078 H1066 0.950 . S
C1078 C1077 1.398 . S
C1078 C1079 1.391 . S
C1079 H1067 0.950 . S
C1079 C1075 1.393 . S
C1079 C1078 1.391 . S
H1080 C1088 0.950 . S
H1081 C1093 0.950 . S
H1082 C1090 0.950 . S
H1083 C1092 0.950 . S
H1084 C1094 0.950 . S
H1085 C1096 0.950 . S
H1086 C1098 0.950 . S
H1087 C1099 0.950 1_565 S
C1088 H1080 0.950 . S
C1088 C1089 1.386 . S
C1088 C1090 1.391 . S
C1089 C1088 1.386 . S
C1089 C1093 1.393 . S
C1090 H1082 0.950 . S
C1090 C1088 1.391 . S
C1090 C1091 1.400 . S
C1091 C1090 1.400 . S
C1091 C1092 1.398 . S
C1091 C1097 1.491 . S
C1092 H1083 0.950 . S
C1092 C1091 1.398 . S
C1092 C1093 1.391 . S
C1093 H1081 0.950 . S
C1093 C1089 1.393 . S
C1093 C1092 1.391 . S
C1094 H1084 0.950 . S
C1094 C1095 1.386 . S
C1094 C1096 1.391 . S
C1095 C1094 1.386 . S
C1095 C1099 1.393 . S
C1096 H1085 0.950 . S
C1096 C1094 1.391 . S
C1096 C1097 1.400 . S
C1097 C1091 1.491 . S
C1097 C1096 1.400 . S
C1097 C1098 1.398 . S
C1098 H1086 0.950 . S
C1098 C1097 1.398 . S
C1098 C1099 1.391 . S
C1099 H1087 0.950 1_545 S
C1099 C1095 1.393 . S
C1099 C1098 1.391 . S
H1100 C1108 0.950 . S
H1101 C1113 0.950 . S
H1102 C1110 0.950 . S
H1103 C1112 0.950 . S
H1104 C1114 0.950 . S
H1105 C1116 0.950 . S
H1106 C1118 0.950 . S
H1107 C1119 0.950 . S
C1108 H1100 0.950 . S
C1108 C1109 1.386 . S
C1108 C1110 1.391 . S
C1109 C1108 1.386 . S
C1109 C1113 1.393 . S
C1110 H1102 0.950 . S
C1110 C1108 1.391 . S
C1110 C1111 1.400 . S
C1111 C1110 1.400 . S
C1111 C1112 1.398 . S
C1111 C1117 1.491 . S
C1112 H1103 0.950 . S
C1112 C1111 1.398 . S
C1112 C1113 1.391 . S
C1113 H1101 0.950 . S
C1113 C1109 1.393 . S
C1113 C1112 1.391 . S
C1114 H1104 0.950 . S
C1114 C1115 1.386 . S
C1114 C1116 1.391 . S
C1115 C1114 1.386 . S
C1115 C1119 1.393 . S
C1116 H1105 0.950 . S
C1116 C1114 1.391 . S
C1116 C1117 1.400 . S
C1117 C1111 1.491 . S
C1117 C1116 1.400 . S
C1117 C1118 1.398 . S
C1118 H1106 0.950 . S
C1118 C1117 1.398 . S
C1118 C1119 1.391 . S
C1119 H1107 0.950 . S
C1119 C1115 1.393 . S
C1119 C1118 1.391 . S
H1120 C1128 0.950 . S
H1121 C1133 0.950 . S
H1122 C1130 0.950 . S
H1123 C1132 0.950 . S
H1124 C1134 0.950 . S
H1125 C1136 0.950 . S
H1126 C1138 0.950 . S
H1127 C1139 0.950 . S
C1128 H1120 0.950 . S
C1128 C1129 1.386 . S
C1128 C1130 1.391 . S
C1129 C1128 1.386 . S
C1129 C1133 1.393 . S
C1130 H1122 0.950 . S
C1130 C1128 1.391 . S
C1130 C1131 1.400 . S
C1131 C1130 1.400 . S
C1131 C1132 1.398 . S
C1131 C1137 1.491 . S
C1132 H1123 0.950 . S
C1132 C1131 1.398 . S
C1132 C1133 1.391 . S
C1133 H1121 0.950 . S
C1133 C1129 1.393 . S
C1133 C1132 1.391 . S
C1134 H1124 0.950 . S
C1134 C1135 1.386 . S
C1134 C1136 1.391 . S
C1135 C1134 1.386 . S
C1135 C1139 1.393 . S
C1136 H1125 0.950 . S
C1136 C1134 1.391 . S
C1136 C1137 1.400 . S
C1137 C1131 1.491 . S
C1137 C1136 1.400 . S
C1137 C1138 1.398 . S
C1138 H1126 0.950 . S
C1138 C1137 1.398 . S
C1138 C1139 1.391 . S
C1139 H1127 0.950 . S
C1139 C1135 1.393 . S
C1139 C1138 1.391 . S
H1140 C1148 0.950 . S
H1141 C1153 0.950 . S
H1142 C1150 0.950 . S
H1143 C1152 0.950 . S
H1144 C1154 0.950 . S
H1145 C1156 0.950 . S
H1146 C1158 0.950 . S
H1147 C1159 0.950 . S
C1148 H1140 0.950 . S
C1148 C1149 1.386 . S
C1148 C1150 1.391 . S
C1149 C1148 1.386 . S
C1149 C1153 1.393 . S
C1150 H1142 0.950 . S
C1150 C1148 1.391 . S
C1150 C1151 1.400 . S
C1151 C1150 1.400 . S
C1151 C1152 1.398 . S
C1151 C1157 1.491 . S
C1152 H1143 0.950 . S
C1152 C1151 1.398 . S
C1152 C1153 1.391 . S
C1153 H1141 0.950 . S
C1153 C1149 1.393 . S
C1153 C1152 1.391 . S
C1154 H1144 0.950 . S
C1154 C1155 1.386 . S
C1154 C1156 1.391 . S
C1155 C1154 1.386 . S
C1155 C1159 1.393 . S
C1156 H1145 0.950 . S
C1156 C1154 1.391 . S
C1156 C1157 1.400 . S
C1157 C1151 1.491 . S
C1157 C1156 1.400 . S
C1157 C1158 1.398 . S
C1158 H1146 0.950 . S
C1158 C1157 1.398 . S
C1158 C1159 1.391 . S
C1159 H1147 0.950 . S
C1159 C1155 1.393 . S
C1159 C1158 1.391 . S
H1160 C1168 0.950 . S
H1161 C1173 0.950 . S
H1162 C1170 0.950 . S
H1163 C1172 0.950 . S
H1164 C1174 0.950 . S
H1165 C1176 0.950 . S
H1166 C1178 0.950 . S
H1167 C1179 0.950 . S
C1168 H1160 0.950 . S
C1168 C1169 1.386 . S
C1168 C1170 1.391 . S
C1169 C1168 1.386 . S
C1169 C1173 1.393 . S
C1170 H1162 0.950 . S
C1170 C1168 1.391 . S
C1170 C1171 1.400 . S
C1171 C1170 1.400 . S
C1171 C1172 1.398 . S
C1171 C1177 1.491 . S
C1172 H1163 0.950 . S
C1172 C1171 1.398 . S
C1172 C1173 1.391 . S
C1173 H1161 0.950 . S
C1173 C1169 1.393 . S
C1173 C1172 1.391 . S
C1174 H1164 0.950 . S
C1174 C1175 1.386 . S
C1174 C1176 1.391 . S
C1175 C1174 1.386 . S
C1175 C1179 1.393 . S
C1176 H1165 0.950 . S
C1176 C1174 1.391 . S
C1176 C1177 1.400 . S
C1177 C1171 1.491 . S
C1177 C1176 1.400 . S
C1177 C1178 1.398 . S
C1178 H1166 0.950 . S
C1178 C1177 1.398 . S
C1178 C1179 1.391 . S
C1179 H1167 0.950 . S
C1179 C1175 1.393 . S
C1179 C1178 1.391 . S
H1180 C1188 0.950 . S
H1181 C1193 0.950 . S
H1182 C1190 0.950 . S
H1183 C1192 0.950 . S
H1184 C1194 0.950 . S
H1185 C1196 0.950 . S
H1186 C1198 0.950 . S
H1187 C1199 0.950 . S
C1188 H1180 0.950 . S
C1188 C1189 1.386 . S
C1188 C1190 1.391 . S
C1189 C1188 1.386 . S
C1189 C1193 1.393 . S
C1190 H1182 0.950 . S
C1190 C1188 1.391 . S
C1190 C1191 1.400 . S
C1191 C1190 1.400 . S
C1191 C1192 1.398 . S
C1191 C1197 1.491 . S
C1192 H1183 0.950 . S
C1192 C1191 1.398 . S
C1192 C1193 1.391 . S
C1193 H1181 0.950 . S
C1193 C1189 1.393 . S
C1193 C1192 1.391 . S
C1194 H1184 0.950 . S
C1194 C1195 1.386 . S
C1194 C1196 1.391 . S
C1195 C1194 1.386 . S
C1195 C1199 1.393 . S
C1196 H1185 0.950 . S
C1196 C1194 1.391 . S
C1196 C1197 1.400 . S
C1197 C1191 1.491 . S
C1197 C1196 1.400 . S
C1197 C1198 1.398 . S
C1198 H1186 0.950 . S
C1198 C1197 1.398 . S
C1198 C1199 1.391 . S
C1199 H1187 0.950 . S
C1199 C1195 1.393 . S
C1199 C1198 1.391 . S
H1200 C1208 0.950 . S
H1201 C1213 0.950 . S
H1202 C1210 0.950 . S
H1203 C1212 0.950 . S
H1204 C1214 0.950 . S
H1205 C1216 0.950 . S
H1206 C1218 0.950 . S
H1207 C1219 0.950 . S
C1208 H1200 0.950 . S
C1208 C1209 1.386 . S
C1208 C1210 1.391 . S
C1209 C1208 1.386 . S
C1209 C1213 1.393 . S
C1210 H1202 0.950 . S
C1210 C1208 1.391 . S
C1210 C1211 1.400 . S
C1211 C1210 1.400 . S
C1211 C1212 1.398 . S
C1211 C1217 1.491 . S
C1212 H1203 0.950 . S
C1212 C1211 1.398 . S
C1212 C1213 1.391 . S
C1213 H1201 0.950 . S
C1213 C1209 1.393 . S
C1213 C1212 1.391 . S
C1214 H1204 0.950 . S
C1214 C1215 1.386 . S
C1214 C1216 1.391 . S
C1215 C1214 1.386 . S
C1215 C1219 1.393 . S
C1216 H1205 0.950 . S
C1216 C1214 1.391 . S
C1216 C1217 1.400 . S
C1217 C1211 1.491 . S
C1217 C1216 1.400 . S
C1217 C1218 1.398 . S
C1218 H1206 0.950 . S
C1218 C1217 1.398 . S
C1218 C1219 1.391 . S
C1219 H1207 0.950 . S
C1219 C1215 1.393 . S
C1219 C1218 1.391 . S
H1220 C1228 0.950 . S
H1221 C1233 0.950 . S
H1222 C1230 0.950 . S
H1223 C1232 0.950 . S
H1224 C1234 0.950 . S
H1225 C1236 0.950 . S
H1226 C1238 0.950 . S
H1227 C1239 0.950 . S
C1228 H1220 0.950 . S
C1228 C1229 1.386 . S
C1228 C1230 1.391 . S
C1229 C1228 1.386 . S
C1229 C1233 1.393 . S
C1230 H1222 0.950 . S
C1230 C1228 1.391 . S
C1230 C1231 1.400 . S
C1231 C1230 1.400 . S
C1231 C1232 1.398 . S
C1231 C1237 1.491 . S
C1232 H1223 0.950 . S
C1232 C1231 1.398 . S
C1232 C1233 1.391 . S
C1233 H1221 0.950 . S
C1233 C1229 1.393 . S
C1233 C1232 1.391 . S
C1234 H1224 0.950 . S
C1234 C1235 1.386 . S
C1234 C1236 1.391 . S
C1235 C1234 1.386 . S
C1235 C1239 1.393 . S
C1236 H1225 0.950 . S
C1236 C1234 1.391 . S
C1236 C1237 1.400 . S
C1237 C1231 1.491 . S
C1237 C1236 1.400 . S
C1237 C1238 1.398 . S
C1238 H1226 0.950 . S
C1238 C1237 1.398 . S
C1238 C1239 1.391 . S
C1239 H1227 0.950 . S
C1239 C1235 1.393 . S
C1239 C1238 1.391 . S
H1240 C1248 0.950 . S
H1241 C1253 0.950 . S
H1242 C1250 0.950 . S
H1243 C1252 0.950 . S
H1244 C1254 0.950 . S
H1245 C1256 0.950 . S
H1246 C1258 0.950 . S
H1247 C1259 0.950 . S
C1248 H1240 0.950 . S
C1248 C1249 1.386 . S
C1248 C1250 1.391 . S
C1249 C1248 1.386 . S
C1249 C1253 1.393 . S
C1250 H1242 0.950 . S
C1250 C1248 1.391 . S
C1250 C1251 1.400 . S
C1251 C1250 1.400 . S
C1251 C1252 1.398 . S
C1251 C1257 1.491 . S
C1252 H1243 0.950 . S
C1252 C1251 1.398 . S
C1252 C1253 1.391 . S
C1253 H1241 0.950 . S
C1253 C1249 1.393 . S
C1253 C1252 1.391 . S
C1254 H1244 0.950 . S
C1254 C1255 1.386 . S
C1254 C1256 1.391 . S
C1255 C1254 1.386 . S
C1255 C1259 1.393 . S
C1256 H1245 0.950 . S
C1256 C1254 1.391 . S
C1256 C1257 1.400 . S
C1257 C1251 1.491 . S
C1257 C1256 1.400 . S
C1257 C1258 1.398 . S
C1258 H1246 0.950 . S
C1258 C1257 1.398 . S
C1258 C1259 1.391 . S
C1259 H1247 0.950 . S
C1259 C1255 1.393 . S
C1259 C1258 1.391 . S
H1260 C1268 0.950 . S
H1261 C1273 0.950 . S
H1262 C1270 0.950 . S
H1263 C1272 0.950 . S
H1264 C1274 0.950 . S
H1265 C1276 0.950 . S
H1266 C1278 0.950 . S
H1267 C1279 0.950 . S
C1268 H1260 0.950 . S
C1268 C1269 1.386 . S
C1268 C1270 1.391 . S
C1269 C1268 1.386 . S
C1269 C1273 1.393 . S
C1270 H1262 0.950 . S
C1270 C1268 1.391 . S
C1270 C1271 1.400 . S
C1271 C1270 1.400 . S
C1271 C1272 1.398 . S
C1271 C1277 1.491 . S
C1272 H1263 0.950 . S
C1272 C1271 1.398 . S
C1272 C1273 1.391 . S
C1273 H1261 0.950 . S
C1273 C1269 1.393 . S
C1273 C1272 1.391 . S
C1274 H1264 0.950 . S
C1274 C1275 1.386 . S
C1274 C1276 1.391 . S
C1275 C1274 1.386 . S
C1275 C1279 1.393 . S
C1276 H1265 0.950 . S
C1276 C1274 1.391 . S
C1276 C1277 1.400 . S
C1277 C1271 1.491 . S
C1277 C1276 1.400 . S
C1277 C1278 1.398 . S
C1278 H1266 0.950 . S
C1278 C1277 1.398 . S
C1278 C1279 1.391 . S
C1279 H1267 0.950 . S
C1279 C1275 1.393 . S
C1279 C1278 1.391 . S
H1280 C1288 0.950 . S
H1281 C1293 0.950 . S
H1282 C1290 0.950 . S
H1283 C1292 0.950 . S
H1284 C1294 0.950 . S
H1285 C1296 0.950 . S
H1286 C1298 0.950 . S
H1287 C1299 0.950 . S
C1288 H1280 0.950 . S
C1288 C1289 1.386 . S
C1288 C1290 1.391 . S
C1289 C1288 1.386 . S
C1289 C1293 1.393 . S
C1290 H1282 0.950 . S
C1290 C1288 1.391 . S
C1290 C1291 1.400 . S
C1291 C1290 1.400 . S
C1291 C1292 1.398 . S
C1291 C1297 1.491 . S
C1292 H1283 0.950 . S
C1292 C1291 1.398 . S
C1292 C1293 1.391 . S
C1293 H1281 0.950 . S
C1293 C1289 1.393 . S
C1293 C1292 1.391 . S
C1294 H1284 0.950 . S
C1294 C1295 1.386 . S
C1294 C1296 1.391 . S
C1295 C1294 1.386 . S
C1295 C1299 1.393 . S
C1296 H1285 0.950 . S
C1296 C1294 1.391 . S
C1296 C1297 1.400 . S
C1297 C1291 1.491 . S
C1297 C1296 1.400 . S
C1297 C1298 1.398 . S
C1298 H1286 0.950 . S
C1298 C1297 1.398 . S
C1298 C1299 1.391 . S
C1299 H1287 0.950 . S
C1299 C1295 1.393 . S
C1299 C1298 1.391 . S
H1300 C1308 0.950 . S
H1301 C1313 0.950 . S
H1302 C1310 0.950 . S
H1303 C1312 0.950 . S
H1304 C1314 0.950 . S
H1305 C1316 0.950 . S
H1306 C1318 0.950 . S
H1307 C1319 0.950 . S
C1308 H1300 0.950 . S
C1308 C1309 1.386 . S
C1308 C1310 1.391 . S
C1309 C1308 1.386 . S
C1309 C1313 1.393 . S
C1310 H1302 0.950 . S
C1310 C1308 1.391 . S
C1310 C1311 1.400 . S
C1311 C1310 1.400 . S
C1311 C1312 1.398 . S
C1311 C1317 1.491 . S
C1312 H1303 0.950 . S
C1312 C1311 1.398 . S
C1312 C1313 1.391 . S
C1313 H1301 0.950 . S
C1313 C1309 1.393 . S
C1313 C1312 1.391 . S
C1314 H1304 0.950 . S
C1314 C1315 1.386 . S
C1314 C1316 1.391 . S
C1315 C1314 1.386 . S
C1315 C1319 1.393 . S
C1316 H1305 0.950 . S
C1316 C1314 1.391 . S
C1316 C1317 1.400 . S
C1317 C1311 1.491 . S
C1317 C1316 1.400 . S
C1317 C1318 1.398 . S
C1318 H1306 0.950 . S
C1318 C1317 1.398 . S
C1318 C1319 1.391 . S
C1319 H1307 0.950 . S
C1319 C1315 1.393 . S
C1319 C1318 1.391 . S
H1320 C1328 0.950 . S
H1321 C1333 0.950 . S
H1322 C1330 0.950 . S
H1323 C1332 0.950 . S
H1324 C1334 0.950 . S
H1325 C1336 0.950 . S
H1326 C1338 0.950 . S
H1327 C1339 0.950 . S
C1328 H1320 0.950 . S
C1328 C1329 1.386 . S
C1328 C1330 1.391 . S
C1329 C1328 1.386 . S
C1329 C1333 1.393 . S
C1330 H1322 0.950 . S
C1330 C1328 1.391 . S
C1330 C1331 1.400 . S
C1331 C1330 1.400 . S
C1331 C1332 1.398 . S
C1331 C1337 1.491 . S
C1332 H1323 0.950 . S
C1332 C1331 1.398 . S
C1332 C1333 1.391 . S
C1333 H1321 0.950 . S
C1333 C1329 1.393 . S
C1333 C1332 1.391 . S
C1334 H1324 0.950 . S
C1334 C1335 1.386 . S
C1334 C1336 1.391 . S
C1335 C1334 1.386 . S
C1335 C1339 1.393 . S
C1336 H1325 0.950 . S
C1336 C1334 1.391 . S
C1336 C1337 1.400 . S
C1337 C1331 1.491 . S
C1337 C1336 1.400 . S
C1337 C1338 1.398 . S
C1338 H1326 0.950 . S
C1338 C1337 1.398 . S
C1338 C1339 1.391 . S
C1339 H1327 0.950 . S
C1339 C1335 1.393 . S
C1339 C1338 1.391 . S
H1340 C1348 0.950 . S
H1341 C1353 0.950 . S
H1342 C1350 0.950 . S
H1343 C1352 0.950 . S
H1344 C1354 0.950 . S
H1345 C1356 0.950 . S
H1346 C1358 0.950 . S
H1347 C1359 0.950 . S
C1348 H1340 0.950 . S
C1348 C1349 1.386 . S
C1348 C1350 1.391 . S
C1349 C1348 1.386 . S
C1349 C1353 1.393 . S
C1350 H1342 0.950 . S
C1350 C1348 1.391 . S
C1350 C1351 1.400 . S
C1351 C1350 1.400 . S
C1351 C1352 1.398 . S
C1351 C1357 1.491 . S
C1352 H1343 0.950 . S
C1352 C1351 1.398 . S
C1352 C1353 1.391 . S
C1353 H1341 0.950 . S
C1353 C1349 1.393 . S
C1353 C1352 1.391 . S
C1354 H1344 0.950 . S
C1354 C1355 1.386 . S
C1354 C1356 1.391 . S
C1355 C1354 1.386 . S
C1355 C1359 1.393 . S
C1356 H1345 0.950 . S
C1356 C1354 1.391 . S
C1356 C1357 1.400 . S
C1357 C1351 1.491 . S
C1357 C1356 1.400 . S
C1357 C1358 1.398 . S
C1358 H1346 0.950 . S
C1358 C1357 1.398 . S
C1358 C1359 1.391 . S
C1359 H1347 0.950 . S
C1359 C1355 1.393 . S
C1359 C1358 1.391 . S
H1360 C1368 0.950 . S
H1361 C1373 0.950 . S
H1362 C1370 0.950 . S
H1363 C1372 0.950 . S
H1364 C1374 0.950 . S
H1365 C1376 0.950 . S
H1366 C1378 0.950 . S
H1367 C1379 0.950 . S
C1368 H1360 0.950 . S
C1368 C1369 1.386 . S
C1368 C1370 1.391 . S
C1369 C1368 1.386 . S
C1369 C1373 1.393 . S
C1370 H1362 0.950 . S
C1370 C1368 1.391 . S
C1370 C1371 1.400 . S
C1371 C1370 1.400 . S
C1371 C1372 1.398 . S
C1371 C1377 1.491 . S
C1372 H1363 0.950 . S
C1372 C1371 1.398 . S
C1372 C1373 1.391 . S
C1373 H1361 0.950 . S
C1373 C1369 1.393 . S
C1373 C1372 1.391 . S
C1374 H1364 0.950 . S
C1374 C1375 1.386 . S
C1374 C1376 1.391 . S
C1375 C1374 1.386 . S
C1375 C1379 1.393 . S
C1376 H1365 0.950 . S
C1376 C1374 1.391 . S
C1376 C1377 1.400 . S
C1377 C1371 1.491 . S
C1377 C1376 1.400 . S
C1377 C1378 1.398 . S
C1378 H1366 0.950 . S
C1378 C1377 1.398 . S
C1378 C1379 1.391 . S
C1379 H1367 0.950 . S
C1379 C1375 1.393 . S
C1379 C1378 1.391 . S
H1380 C1388 0.950 . S
H1381 C1393 0.950 . S
H1382 C1390 0.950 . S
H1383 C1392 0.950 . S
H1384 C1394 0.950 . S
H1385 C1396 0.950 . S
H1386 C1398 0.950 . S
H1387 C1399 0.950 . S
C1388 H1380 0.950 . S
C1388 C1389 1.386 . S
C1388 C1390 1.391 . S
C1389 C1388 1.386 . S
C1389 C1393 1.393 . S
C1390 H1382 0.950 . S
C1390 C1388 1.391 . S
C1390 C1391 1.400 . S
C1391 C1390 1.400 . S
C1391 C1392 1.398 . S
C1391 C1397 1.491 . S
C1392 H1383 0.950 . S
C1392 C1391 1.398 . S
C1392 C1393 1.391 . S
C1393 H1381 0.950 . S
C1393 C1389 1.393 . S
C1393 C1392 1.391 . S
C1394 H1384 0.950 . S
C1394 C1395 1.386 . S
C1394 C1396 1.391 . S
C1395 C1394 1.386 . S
C1395 C1399 1.393 . S
C1396 H1385 0.950 . S
C1396 C1394 1.391 . S
C1396 C1397 1.400 . S
C1397 C1391 1.491 . S
C1397 C1396 1.400 . S
C1397 C1398 1.398 . S
C1398 H1386 0.950 . S
C1398 C1397 1.398 . S
C1398 C1399 1.391 . S
C1399 H1387 0.950 . S
C1399 C1395 1.393 . S
C1399 C1398 1.391 . S
H1400 C1408 0.950 . S
H1401 C1413 0.950 . S
H1402 C1410 0.950 . S
H1403 C1412 0.950 . S
H1404 C1414 0.950 . S
H1405 C1416 0.950 . S
H1406 C1418 0.950 . S
H1407 C1419 0.950 . S
C1408 H1400 0.950 . S
C1408 C1409 1.386 . S
C1408 C1410 1.391 . S
C1409 C1408 1.386 . S
C1409 C1413 1.393 . S
C1410 H1402 0.950 . S
C1410 C1408 1.391 . S
C1410 C1411 1.400 . S
C1411 C1410 1.400 . S
C1411 C1412 1.398 . S
C1411 C1417 1.491 . S
C1412 H1403 0.950 . S
C1412 C1411 1.398 . S
C1412 C1413 1.391 . S
C1413 H1401 0.950 . S
C1413 C1409 1.393 . S
C1413 C1412 1.391 . S
C1414 H1404 0.950 . S
C1414 C1415 1.386 . S
C1414 C1416 1.391 . S
C1415 C1414 1.386 . S
C1415 C1419 1.393 . S
C1416 H1405 0.950 . S
C1416 C1414 1.391 . S
C1416 C1417 1.400 . S
C1417 C1411 1.491 . S
C1417 C1416 1.400 . S
C1417 C1418 1.398 . S
C1418 H1406 0.950 . S
C1418 C1417 1.398 . S
C1418 C1419 1.391 . S
C1419 H1407 0.950 . S
C1419 C1415 1.393 . S
C1419 C1418 1.391 . S
H1420 C1428 0.950 . S
H1421 C1433 0.950 . S
H1422 C1430 0.950 . S
H1423 C1432 0.950 . S
H1424 C1434 0.950 . S
H1425 C1436 0.950 . S
H1426 C1438 0.950 . S
H1427 C1439 0.950 . S
C1428 H1420 0.950 . S
C1428 C1429 1.386 . S
C1428 C1430 1.391 . S
C1429 C1428 1.386 . S
C1429 C1433 1.393 . S
C1430 H1422 0.950 . S
C1430 C1428 1.391 . S
C1430 C1431 1.400 . S
C1431 C1430 1.400 . S
C1431 C1432 1.398 . S
C1431 C1437 1.491 . S
C1432 H1423 0.950 . S
C1432 C1431 1.398 . S
C1432 C1433 1.391 . S
C1433 H1421 0.950 . S
C1433 C1429 1.393 . S
C1433 C1432 1.391 . S
C1434 H1424 0.950 . S
C1434 C1435 1.386 . S
C1434 C1436 1.391 . S
C1435 C1434 1.386 . S
C1435 C1439 1.393 . S
C1436 H1425 0.950 . S
C1436 C1434 1.391 . S
C1436 C1437 1.400 . S
C1437 C1431 1.491 . S
C1437 C1436 1.400 . S
C1437 C1438 1.398 . S
C1438 H1426 0.950 . S
C1438 C1437 1.398 . S
C1438 C1439 1.391 . S
C1439 H1427 0.950 . S
C1439 C1435 1.393 . S
C1439 C1438 1.391 . S
H1440 C1448 0.950 . S
H1441 C1453 0.950 . S
H1442 C1450 0.950 . S
H1443 C1452 0.950 . S
H1444 C1454 0.950 . S
H1445 C1456 0.950 . S
H1446 C1458 0.950 . S
H1447 C1459 0.950 . S
C1448 H1440 0.950 . S
C1448 C1449 1.386 . S
C1448 C1450 1.391 . S
C1449 C1448 1.386 . S
C1449 C1453 1.393 . S
C1450 H1442 0.950 . S
C1450 C1448 1.391 . S
C1450 C1451 1.400 . S
C1451 C1450 1.400 . S
C1451 C1452 1.398 . S
C1451 C1457 1.491 . S
C1452 H1443 0.950 . S
C1452 C1451 1.398 . S
C1452 C1453 1.391 . S
C1453 H1441 0.950 . S
C1453 C1449 1.393 . S
C1453 C1452 1.391 . S
C1454 H1444 0.950 . S
C1454 C1455 1.386 . S
C1454 C1456 1.391 . S
C1455 C1454 1.386 . S
C1455 C1459 1.393 . S
C1456 H1445 0.950 . S
C1456 C1454 1.391 . S
C1456 C1457 1.400 . S
C1457 C1451 1.491 . S
C1457 C1456 1.400 . S
C1457 C1458 1.398 . S
C1458 H1446 0.950 . S
C1458 C1457 1.398 . S
C1458 C1459 1.391 . S
C1459 H1447 0.950 . S
C1459 C1455 1.393 . S
C1459 C1458 1.391 . S
H1460 C1468 0.950 . S
H1461 C1473 0.950 . S
H1462 C1470 0.950 . S
H1463 C1472 0.950 . S
H1464 C1474 0.950 . S
H1465 C1476 0.950 . S
H1466 C1478 0.950 . S
H1467 C1479 0.950 . S
C1468 H1460 0.950 . S
C1468 C1469 1.386 . S
C1468 C1470 1.391 . S
C1469 C1468 1.386 . S
C1469 C1473 1.393 . S
C1470 H1462 0.950 . S
C1470 C1468 1.391 . S
C1470 C1471 1.400 . S
C1471 C1470 1.400 . S
C1471 C1472 1.398 . S
C1471 C1477 1.491 . S
C1472 H1463 0.950 . S
C1472 C1471 1.398 . S
C1472 C1473 1.391 . S
C1473 H1461 0.950 . S
C1473 C1469 1.393 . S
C1473 C1472 1.391 . S
C1474 H1464 0.950 . S
C1474 C1475 1.386 . S
C1474 C1476 1.391 . S
C1475 C1474 1.386 . S
C1475 C1479 1.393 . S
C1476 H1465 0.950 . S
C1476 C1474 1.391 . S
C1476 C1477 1.400 . S
C1477 C1471 1.491 . S
C1477 C1476 1.400 . S
C1477 C1478 1.398 . S
C1478 H1466 0.950 . S
C1478 C1477 1.398 . S
C1478 C1479 1.391 . S
C1479 H1467 0.950 . S
C1479 C1475 1.393 . S
C1479 C1478 1.391 . S
H1480 C1488 0.950 . S
H1481 C1493 0.950 . S
H1482 C1490 0.950 . S
H1483 C1492 0.950 . S
H1484 C1494 0.950 . S
H1485 C1496 0.950 . S
H1486 C1498 0.950 . S
H1487 C1499 0.950 . S
C1488 H1480 0.950 . S
C1488 C1489 1.386 . S
C1488 C1490 1.391 . S
C1489 C1488 1.386 . S
C1489 C1493 1.393 . S
C1490 H1482 0.950 . S
C1490 C1488 1.391 . S
C1490 C1491 1.400 . S
C1491 C1490 1.400 . S
C1491 C1492 1.398 . S
C1491 C1497 1.491 . S
C1492 H1483 0.950 . S
C1492 C1491 1.398 . S
C1492 C1493 1.391 . S
C1493 H1481 0.950 . S
C1493 C1489 1.393 . S
C1493 C1492 1.391 . S
C1494 H1484 0.950 . S
C1494 C1495 1.386 . S
C1494 C1496 1.391 . S
C1495 C1494 1.386 . S
C1495 C1499 1.393 . S
C1496 H1485 0.950 . S
C1496 C1494 1.391 . S
C1496 C1497 1.400 . S
C1497 C1491 1.491 . S
C1497 C1496 1.400 . S
C1497 C1498 1.398 . S
C1498 H1486 0.950 . S
C1498 C1497 1.398 . S
C1498 C1499 1.391 . S
C1499 H1487 0.950 . S
C1499 C1495 1.393 . S
C1499 C1498 1.391 . S
H1500 C1508 0.950 . S
H1501 C1513 0.950 . S
H1502 C1510 0.950 . S
H1503 C1512 0.950 . S
H1504 C1514 0.950 . S
H1505 C1516 0.950 . S
H1506 C1518 0.950 . S
H1507 C1519 0.950 . S
C1508 H1500 0.950 . S
C1508 C1509 1.386 . S
C1508 C1510 1.391 . S
C1509 C1508 1.386 . S
C1509 C1513 1.393 . S
C1510 H1502 0.950 . S
C1510 C1508 1.391 . S
C1510 C1511 1.400 . S
C1511 C1510 1.400 . S
C1511 C1512 1.398 . S
C1511 C1517 1.491 . S
C1512 H1503 0.950 . S
C1512 C1511 1.398 . S
C1512 C1513 1.391 . S
C1513 H1501 0.950 . S
C1513 C1509 1.393 . S
C1513 C1512 1.391 . S
C1514 H1504 0.950 . S
C1514 C1515 1.386 . S
C1514 C1516 1.391 . S
C1515 C1514 1.386 . S
C1515 C1519 1.393 . S
C1516 H1505 0.950 . S
C1516 C1514 1.391 . S
C1516 C1517 1.400 . S
C1517 C1511 1.491 . S
C1517 C1516 1.400 . S
C1517 C1518 1.398 . S
C1518 H1506 0.950 . S
C1518 C1517 1.398 . S
C1518 C1519 1.391 . S
C1519 H1507 0.950 . S
C1519 C1515 1.393 . S
C1519 C1518 1.391 . S
H1520 C1528 0.950 . S
H1521 C1533 0.950 . S
H1522 C1530 0.950 . S
H1523 C1532 0.950 . S
H1524 C1534 0.950 . S
H1525 C1536 0.950 . S
H1526 C1538 0.950 . S
H1527 C1539 0.950 . S
C1528 H1520 0.950 . S
C1528 C1529 1.386 . S
C1528 C1530 1.391 . S
C1529 C1528 1.386 . S
C1529 C1533 1.393 . S
C1530 H1522 0.950 . S
C1530 C1528 1.391 . S
C1530 C1531 1.400 . S
C1531 C1530 1.400 . S
C1531 C1532 1.398 . S
C1531 C1537 1.491 . S
C1532 H1523 0.950 . S
C1532 C1531 1.398 . S
C1532 C1533 1.391 . S
C1533 H1521 0.950 . S
C1533 C1529 1.393 . S
C1533 C1532 1.391 . S
C1534 H1524 0.950 . S
C1534 C1535 1.386 . S
C1534 C1536 1.391 . S
C1535 C1534 1.386 . S
C1535 C1539 1.393 . S
C1536 H1525 0.950 . S
C1536 C1534 1.391 . S
C1536 C1537 1.400 . S
C1537 C1531 1.491 . S
C1537 C1536 1.400 . S
C1537 C1538 1.398 . S
C1538 H1526 0.950 . S
C1538 C1537 1.398 . S
C1538 C1539 1.391 . S
C1539 H1527 0.950 . S
C1539 C1535 1.393 . S
C1539 C1538 1.391 . S
H1540 C1548 0.950 . S
H1541 C1553 0.950 . S
H1542 C1550 0.950 . S
H1543 C1552 0.950 . S
H1544 C1554 0.950 . S
H1545 C1556 0.950 . S
H1546 C1558 0.950 . S
H1547 C1559 0.950 . S
C1548 H1540 0.950 . S
C1548 C1549 1.386 . S
C1548 C1550 1.391 . S
C1549 C1548 1.386 . S
C1549 C1553 1.393 . S
C1550 H1542 0.950 . S
C1550 C1548 1.391 . S
C1550 C1551 1.400 . S
C1551 C1550 1.400 . S
C1551 C1552 1.398 . S
C1551 C1557 1.491 . S
C1552 H1543 0.950 . S
C1552 C1551 1.398 . S
C1552 C1553 1.391 . S
C1553 H1541 0.950 . S
C1553 C1549 1.393 . S
C1553 C1552 1.391 . S
C1554 H1544 0.950 . S
C1554 C1555 1.386 . S
C1554 C1556 1.391 . S
C1555 C1554 1.386 . S
C1555 C1559 1.393 . S
C1556 H1545 0.950 . S
C1556 C1554 1.391 . S
C1556 C1557 1.400 . S
C1557 C1551 1.491 . S
C1557 C1556 1.400 . S
C1557 C1558 1.398 . S
C1558 H1546 0.950 . S
C1558 C1557 1.398 . S
C1558 C1559 1.391 . S
C1559 H1547 0.950 . S
C1559 C1555 1.393 . S
C1559 C1558 1.391 . S
H1560 C1568 0.950 . S
H1561 C1573 0.950 . S
H1562 C1570 0.950 . S
H1563 C1572 0.950 . S
H1564 C1574 0.950 . S
H1565 C1576 0.950 . S
H1566 C1578 0.950 . S
H1567 C1579 0.950 . S
C1568 H1560 0.950 . S
C1568 C1569 1.386 . S
C1568 C1570 1.391 . S
C1569 C1568 1.386 . S
C1569 C1573 1.393 . S
C1570 H1562 0.950 . S
C1570 C1568 1.391 . S
C1570 C1571 1.400 . S
C1571 C1570 1.400 . S
C1571 C1572 1.398 . S
C1571 C1577 1.491 . S
C1572 H1563 0.950 . S
C1572 C1571 1.398 . S
C1572 C1573 1.391 . S
C1573 H1561 0.950 . S
C1573 C1569 1.393 . S
C1573 C1572 1.391 . S
C1574 H1564 0.950 . S
C1574 C1575 1.386 . S
C1574 C1576 1.391 . S
C1575 C1574 1.386 . S
C1575 C1579 1.393 . S
C1576 H1565 0.950 . S
C1576 C1574 1.391 . S
C1576 C1577 1.400 . S
C1577 C1571 1.491 . S
C1577 C1576 1.400 . S
C1577 C1578 1.398 . S
C1578 H1566 0.950 . S
C1578 C1577 1.398 . S
C1578 C1579 1.391 . S
C1579 H1567 0.950 . S
C1579 C1575 1.393 . S
C1579 C1578 1.391 . S
H1580 C1588 0.950 . S
H1581 C1593 0.950 . S
H1582 C1590 0.950 . S
H1583 C1592 0.950 . S
H1584 C1594 0.950 . S
H1585 C1596 0.950 . S
H1586 C1598 0.950 . S
H1587 C1599 0.950 . S
C1588 H1580 0.950 . S
C1588 C1589 1.386 . S
C1588 C1590 1.391 . S
C1589 C1588 1.386 . S
C1589 C1593 1.393 . S
C1590 H1582 0.950 . S
C1590 C1588 1.391 . S
C1590 C1591 1.400 . S
C1591 C1590 1.400 . S
C1591 C1592 1.398 . S
C1591 C1597 1.491 . S
C1592 H1583 0.950 . S
C1592 C1591 1.398 . S
C1592 C1593 1.391 . S
C1593 H1581 0.950 . S
C1593 C1589 1.393 . S
C1593 C1592 1.391 . S
C1594 H1584 0.950 . S
C1594 C1595 1.386 . S
C1594 C1596 1.391 . S
C1595 C1594 1.386 . S
C1595 C1599 1.393 . S
C1596 H1585 0.950 . S
C1596 C1594 1.391 . S
C1596 C1597 1.400 . S
C1597 C1591 1.491 . S
C1597 C1596 1.400 . S
C1597 C1598 1.398 . S
C1598 H1586 0.950 . S
C1598 C1597 1.398 . S
C1598 C1599 1.391 . S
C1599 H1587 0.950 . S
C1599 C1595 1.393 . S
C1599 C1598 1.391 . S
C649 C139 1.811 . S
C655 C18 1.822 . S
C669 C10 1.177 . S
C675 C55 1.126 . S
C689 C89 0.836 . S
C695 C58 0.853 . S
C709 C126 1.564 . S
C715 C86 1.566 . S
C729 C166 1.228 . S
C735 C210 1.227 . S
C749 C218 0.891 . S
C755 C258 0.874 . S
C769 C255 1.272 . S
C775 C286 1.265 . S
C789 C179 1.846 . S
C795 C289 1.894 . S
C809 C375 1.258 . S
C815 C15 1.238 . S
C829 C410 1.729 . S
C835 C50 1.712 . S
C849 C99 3.892 . S
C855 C539 3.875 . S
C869 C329 0.859 . S
C875 C129 0.836 . S
C889 C449 0.851 . S
C895 C169 0.827 . S
C909 C575 1.254 . S
C915 C215 1.258 . S
C929 C250 1.719 . S
C935 C490 1.693 . S
C949 C619 3.890 . S
C955 C299 3.871 . S
C969 C339 1.848 . S
C975 C529 1.892 . S
C989 C370 1.235 . S
C995 C326 1.211 . S
C1009 C418 0.874 . S
C1015 C378 0.891 . S
C1029 C578 1.821 . S
C1035 C459 1.811 . S
C1049 C498 0.834 . S
C1055 C609 0.839 . S
C1069 C450 1.818 . S
C1075 C9 1.826 . S
C1089 C486 1.129 . S
C1095 C19 1.170 . S
C1109 C489 0.833 . S
C1115 C98 0.839 . S
C1129 C95 1.549 . S
C1135 C455 1.547 . S
C1149 C379 1.222 . S
C1155 C175 1.207 . S
C1169 C369 0.892 . S
C1175 C249 0.886 . S
C1189 C535 1.263 . S
C1195 C246 1.279 . S
C1209 C170 1.858 . S
C1215 C538 1.893 . S
C1229 C206 1.252 . S
C1235 C6 1.250 . S
C1249 C419 1.730 . S
C1255 C499 1.698 . S
C1269 C90 3.892 . S
C1275 C290 3.875 . S
C1289 C338 0.832 . S
C1295 C458 0.849 . S
C1309 C138 0.837 . S
C1315 C178 0.857 . S
C1329 C366 1.252 . S
C1335 C566 1.246 . S
C1349 C259 1.719 . S
C1355 C59 1.696 . S
C1369 C610 3.886 . S
C1375 C530 3.876 . S
C1389 C330 1.846 . S
C1395 C298 1.896 . S
C1409 C335 1.217 . S
C1415 C219 1.220 . S
C1429 C409 0.886 . S
C1435 C209 0.892 . S
C1449 C130 1.813 . S
C1455 C569 1.823 . S
C1469 C49 0.820 . S
C1475 C618 0.857 . S
C1489 C495 1.157 . S
C1495 C570 1.167 . S
C1509 C446 1.573 . S
C1515 C606 1.575 . S
C1529 C415 1.279 . S
C1535 C526 1.260 . S
C1549 C579 1.169 . S
C1555 C46 1.156 . S
C1569 C135 1.544 . S
C1575 C615 1.547 . S
C1589 C295 1.252 . S
C1595 C406 1.270 . S
