# Generated by pormake.
# Topology afw, (4)-cn, num edge types: 1
# Building blocks:
#     Node 0, Type 0, BuildingBlock: NAHDIM_clean_sbu_0, # of connection points: 4
#     Node 1, Type 0, BuildingBlock: NAHDIM_clean_sbu_0, # of connection points: 4
#     Node 2, Type 0, BuildingBlock: NAHDIM_clean_sbu_0, # of connection points: 4
#     Node 3, Type 0, BuildingBlock: NAHDIM_clean_sbu_0, # of connection points: 4
#     Node 4, Type 0, BuildingBlock: NAHDIM_clean_sbu_0, # of connection points: 4
#     Node 5, Type 0, BuildingBlock: NAHDIM_clean_sbu_0, # of connection points: 4
#     Node 6, Type 0, BuildingBlock: NAHDIM_clean_sbu_0, # of connection points: 4
#     Node 7, Type 0, BuildingBlock: NAHDIM_clean_sbu_0, # of connection points: 4
#     Node 8, Type 0, BuildingBlock: NAHDIM_clean_sbu_0, # of connection points: 4
#     Edge 9, Type (0, 0), BuildingBlock: ZUJKAS_clean_linker_0, # of connection points: 2
#     Edge 10, Type (0, 0), BuildingBlock: ZUJKAS_clean_linker_0, # of connection points: 2
#     Edge 11, Type (0, 0), BuildingBlock: ZUJKAS_clean_linker_0, # of connection points: 2
#     Edge 12, Type (0, 0), BuildingBlock: ZUJKAS_clean_linker_0, # of connection points: 2
#     Edge 13, Type (0, 0), BuildingBlock: ZUJKAS_clean_linker_0, # of connection points: 2
#     Edge 14, Type (0, 0), BuildingBlock: ZUJKAS_clean_linker_0, # of connection points: 2
#     Edge 15, Type (0, 0), BuildingBlock: ZUJKAS_clean_linker_0, # of connection points: 2
#     Edge 16, Type (0, 0), BuildingBlock: ZUJKAS_clean_linker_0, # of connection points: 2
#     Edge 17, Type (0, 0), BuildingBlock: ZUJKAS_clean_linker_0, # of connection points: 2
#     Edge 18, Type (0, 0), BuildingBlock: ZUJKAS_clean_linker_0, # of connection points: 2
#     Edge 19, Type (0, 0), BuildingBlock: ZUJKAS_clean_linker_0, # of connection points: 2
#     Edge 20, Type (0, 0), BuildingBlock: ZUJKAS_clean_linker_0, # of connection points: 2
#     Edge 21, Type (0, 0), BuildingBlock: ZUJKAS_clean_linker_0, # of connection points: 2
#     Edge 22, Type (0, 0), BuildingBlock: ZUJKAS_clean_linker_0, # of connection points: 2
#     Edge 23, Type (0, 0), BuildingBlock: ZUJKAS_clean_linker_0, # of connection points: 2
#     Edge 24, Type (0, 0), BuildingBlock: ZUJKAS_clean_linker_0, # of connection points: 2
#     Edge 25, Type (0, 0), BuildingBlock: ZUJKAS_clean_linker_0, # of connection points: 2
#     Edge 26, Type (0, 0), BuildingBlock: ZUJKAS_clean_linker_0, # of connection points: 2
# Relax obj value: 0.264
# Max RMSD: 0.262
# Mean RMSD: 0.245
data_MOF--net-afw--node1-NAHDIM_clean_sbu_0--edge1-ZUJKAS_clean_linker_0
_symmetry_space_group_name_H-M    P1
_symmetry_Int_Tables_number       1
_symmetry_cell_setting            triclinic
loop_
_symmetry_equiv_pos_as_xyz
'x, y, z'
_cell_length_a     51.263414
_cell_length_b     53.187009
_cell_length_c     45.328845
_cell_angle_alpha  92.428551
_cell_angle_beta   90.566791
_cell_angle_gamma 119.18658
loop_
_atom_site_label
_atom_site_type_symbol
_atom_site_fract_x
_atom_site_fract_y
_atom_site_fract_z
_atom_type_partial_charge
C0 C 0.00464 0.2653 0.98003 0.0
O1 O 0.00266 0.26912 0.00856 0.0
O2 O 0.02892 0.19976 0.98593 0.0
Zn3 Zn -0.00286 0.21007 -0.00433 0.0
O4 O 0.00171 0.22325 0.0383 0.0
C5 C 0.9535 0.15486 0.97043 0.0
O6 O 0.97502 0.15989 0.95213 0.0
O7 O 0.00165 0.24141 0.96973 0.0
C8 C -0.00317 0.20537 0.05803 0.0
O9 O 0.98993 0.17876 0.04998 0.0
C10 C 0.05613 0.21537 -0.00569 0.0
O11 O 0.0642 0.23936 0.0103 0.0
O12 O 0.9572 0.17433 0.98987 0.0
C13 C 0.77202 0.75525 0.04308 0.0
O14 O 0.78492 0.74865 0.02151 0.0
O15 O 0.84393 0.81317 0.02076 0.0
Zn16 Zn 0.8025 0.80843 0.01697 0.0
O17 O 0.78499 0.79317 0.97625 0.0
C18 C 0.82736 0.86849 0.0355 0.0
O19 O 0.84921 0.86494 0.04611 0.0
O20 O 0.77623 0.78082 0.04607 0.0
C21 C 0.79474 0.80971 0.9549 0.0
O22 O 0.81663 0.83625 0.95996 0.0
C23 C 0.85565 0.80468 0.00091 0.0
O24 O 0.84012 0.79119 0.97657 0.0
O25 O 0.80452 0.84698 0.02331 0.0
C26 C 0.25667 0.99367 0.96144 0.0
O27 O 0.26033 0.9899 0.98931 0.0
O28 O 0.17993 0.98667 0.99015 0.0
Zn29 Zn 0.22256 0.01774 0.98706 0.0
O30 O 0.24589 0.02421 0.02505 0.0
C31 C 0.20325 0.05279 0.95881 0.0
O32 O 0.18651 0.02821 0.94381 0.0
O33 O 0.24139 0.00574 0.95481 0.0
C34 C 0.23474 0.01383 0.04946 0.0
O35 O 0.20559 -0.00135 0.05138 0.0
C36 C 0.17157 0.96066 -0.00431 0.0
O37 O 0.1917 0.95263 0.00037 0.0
O38 O 0.22201 0.05411 0.97818 0.0
C39 C 0.65977 0.55228 0.2639 0.0
O40 O 0.64434 0.5521 0.28692 0.0
O41 O 0.70759 0.50755 0.29653 0.0
Zn42 Zn 0.67312 0.51546 0.29843 0.0
O43 O 0.67557 0.53776 0.33641 0.0
C44 C 0.61502 0.46671 0.27756 0.0
O45 O 0.61793 0.48093 0.25371 0.0
O46 O 0.6736 0.53792 0.26387 0.0
C47 C 0.65149 0.53238 0.34901 0.0
O48 O 0.62585 0.51251 0.33695 0.0
C49 C 0.73245 0.52271 0.31052 0.0
O50 O 0.73669 0.5454 0.327 0.0
O51 O 0.63546 0.4773 0.29774 0.0
C52 C 0.46375 0.1261 0.40351 0.0
O53 O 0.49209 0.14549 0.40201 0.0
O54 O 0.50692 0.14525 0.34003 0.0
Zn55 Zn 0.46307 0.13236 0.34072 0.0
O56 O 0.44006 0.10101 0.30988 0.0
C57 C 0.46124 0.1857 0.35032 0.0
O58 O 0.46807 0.18387 0.37786 0.0
O59 O 0.44715 0.11784 0.38019 0.0
C60 C 0.44833 0.10387 0.28336 0.0
O61 O 0.4734 0.12674 0.277 0.0
C62 C 0.51768 0.1282 0.33954 0.0
O63 O 0.49947 0.10024 0.33895 0.0
O64 O 0.45748 0.16592 0.33127 0.0
C65 C 0.94681 0.34772 0.39397 0.0
O66 O 0.9565 0.3605 0.36909 0.0
O67 O 0.89239 0.35822 0.35061 0.0
Zn68 Zn 0.89386 0.32216 0.359 0.0
O69 O 0.91221 0.31143 0.32531 0.0
C70 C 0.83735 0.27182 0.34299 0.0
O71 O 0.8513 0.27204 0.31878 0.0
O72 O 0.91926 0.32949 0.39563 0.0
C73 C 0.92284 0.29459 0.32896 0.0
O74 O 0.92204 0.2846 0.35515 0.0
C75 C 0.87973 0.35917 0.32678 0.0
O76 O 0.86904 0.3369 0.30763 0.0
O77 O 0.85143 0.29066 0.36382 0.0
C78 C 0.35525 0.92723 0.62985 0.0
O79 O 0.36166 0.93395 0.65819 0.0
O80 O 0.36695 0.85933 0.64782 0.0
Zn81 Zn 0.33504 0.8707 0.64965 0.0
O82 O 0.33492 0.88637 0.69042 0.0
C83 C 0.29361 0.81567 0.62297 0.0
O84 O 0.31694 0.82076 0.60728 0.0
O85 O 0.34308 0.90091 0.62063 0.0
C86 C 0.3323 0.87259 0.71338 0.0
O87 O 0.32961 0.84673 0.71072 0.0
C88 C 0.394 0.87608 0.65606 0.0
O89 O 0.40205 0.90245 0.66619 0.0
O90 O 0.29548 0.83506 0.64157 0.0
C91 C 0.14808 0.47141 0.76793 0.0
O92 O 0.17483 0.49411 0.77109 0.0
O93 O 0.20156 0.48997 0.70923 0.0
Zn94 Zn 0.15831 0.47971 0.70576 0.0
O95 O 0.13766 0.45268 0.67071 0.0
C96 C 0.17696 0.54 0.71064 0.0
O97 O 0.19865 0.54053 0.72681 0.0
O98 O 0.13686 0.46164 0.74213 0.0
C99 C 0.14618 0.46098 0.64498 0.0
O100 O 0.16946 0.48656 0.64212 0.0
C101 C 0.21305 0.47549 0.69801 0.0
O102 O 0.19583 0.45086 0.68331 0.0
O103 O 0.15637 0.51598 0.69972 0.0
C104 C 0.61253 0.66877 0.60899 0.0
O105 O 0.61877 0.66358 0.63546 0.0
O106 O 0.53811 0.6518 0.64914 0.0
Zn107 Zn 0.57748 0.687 0.6426 0.0
O108 O 0.60561 0.69631 0.67748 0.0
C109 C 0.56682 0.73264 0.66132 0.0
O110 O 0.57126 0.72465 0.68707 0.0
O111 O 0.59525 0.67945 0.60631 0.0
C112 C 0.63098 0.71897 0.6782 0.0
O113 O 0.63852 0.7357 0.65574 0.0
C114 C 0.52849 0.64393 0.67473 0.0
O115 O 0.54535 0.65847 0.69807 0.0
O116 O 0.56906 0.71988 0.63791 0.0
H117 H 0.23454 0.10711 0.98525 0.0
H118 H 0.21973 0.14447 0.98728 0.0
H119 H 0.14281 0.09041 0.93029 0.0
H120 H 0.15779 0.05333 0.9275 0.0
H121 H 0.16904 0.14839 0.91817 0.0
H122 H 0.15017 0.13271 0.03835 0.0
H123 H 0.18744 0.14329 0.02708 0.0
H124 H 0.15709 0.10866 0.01464 0.0
C125 C 0.21473 0.10336 0.97277 0.0
C126 C 0.19707 0.07707 0.95657 0.0
C127 C 0.20624 0.12468 0.97407 0.0
C128 C 0.1798 0.11989 0.95951 0.0
C129 C 0.16321 0.09445 0.94183 0.0
H130 H 0.0476 0.17022 0.95702 0.0
H131 H 0.08257 0.15246 0.94699 0.0
C132 C 0.17179 0.07325 0.94031 0.0
C133 C 0.16792 0.14007 0.96436 0.0
H134 H 0.13749 0.16479 0.01696 0.0
C135 C 0.16246 0.15228 0.93981 0.0
C136 C 0.15936 0.14509 -0.00734 0.0
C137 C 0.16354 0.13161 0.0197 0.0
C138 C 0.14788 0.16872 0.94269 0.0
C139 C 0.13831 0.17275 0.97076 0.0
C140 C 0.14499 0.1617 -0.0045 0.0
C141 C 0.11862 0.18563 0.97461 0.0
C142 C 0.14235 0.18121 0.9156 0.0
C143 C 0.12722 0.21002 -0.00627 0.0
C144 C 0.1072 0.22024 -0.00038 0.0
C145 C 0.07813 0.20592 0.98679 0.0
C146 C 0.06981 0.18175 0.96729 0.0
C147 C 0.08986 0.1717 0.9613 0.0
H148 H 0.15848 0.18381 0.89822 0.0
H149 H 0.11951 0.16636 0.90633 0.0
H150 H 0.14394 0.20247 0.92112 0.0
H151 H 0.14924 0.22085 0.00446 0.0
H152 H 0.11425 0.23888 0.01477 0.0
H153 H 0.87726 0.91978 0.05017 0.0
H154 H 0.88569 0.96792 0.04115 0.0
H155 H 0.79453 0.93197 0.0083 0.0
H156 H 0.78612 0.88342 0.01649 0.0
H157 H 0.83188 0.96784 0.97083 0.0
H158 H 0.86276 0.02205 0.08191 0.0
H159 H 0.8852 0.00546 0.0738 0.0
H160 H 0.84526 0.98333 0.07624 0.0
C161 C 0.85879 0.92208 0.04157 0.0
C162 C 0.83105 0.89776 0.03398 0.0
C163 C 0.86358 0.9497 0.03663 0.0
C164 C 0.8406 0.95363 0.02449 0.0
C165 C 0.81253 0.92944 0.01784 0.0
H166 H 0.90452 0.1371 0.00469 0.0
H167 H 0.86853 0.08743 0.01521 0.0
C168 C 0.80777 0.90174 0.02257 0.0
C169 C 0.84709 0.98267 0.016 0.0
H170 H 0.88355 0.05325 0.04077 0.0
C171 C 0.84255 0.98648 0.98627 0.0
C172 C 0.8603 0.00695 0.03619 0.0
C173 C 0.86332 0.00416 0.06887 0.0
C174 C 0.85308 0.01411 0.97578 0.0
C175 C 0.86926 0.03853 -0.00463 0.0
C176 C 0.8716 0.03459 0.02555 0.0
C177 C 0.88682 0.06806 0.98482 0.0
C178 C 0.84732 0.01679 0.94368 0.0
C179 C 0.90851 0.07369 0.96359 0.0
C180 C 0.92886 0.10199 0.95729 0.0
C181 C 0.92832 0.12527 0.97255 0.0
C182 C 0.90559 0.11961 -0.00737 0.0
C183 C 0.88502 0.09124 -0.0013 0.0
H184 H 0.82579 -0.00178 0.9353 0.0
H185 H 0.84676 0.03705 0.94013 0.0
H186 H 0.86531 0.01661 0.9304 0.0
H187 H 0.91093 0.05629 0.95314 0.0
H188 H 0.94615 0.10558 0.94181 0.0
H189 H 0.89285 0.80726 0.95714 0.0
H190 H 0.94687 0.8269 0.96133 0.0
H191 H 0.94446 0.83931 0.05578 0.0
H192 H 0.8905 0.82087 0.05151 0.0
H193 H 0.9843 0.88632 0.03479 0.0
H194 H 0.00223 0.79909 0.98699 0.0
H195 H 0.98068 0.80714 0.96158 0.0
H196 H 0.96565 0.79311 -0.00328 0.0
C197 C 0.90374 0.81365 0.97887 0.0
C198 C 0.8875 0.81269 0.00398 0.0
C199 C 0.93464 0.82464 0.98128 0.0
C200 C 0.94976 0.83419 0.00894 0.0
C201 C 0.9333 0.832 0.03422 0.0
H202 H 0.14545 0.90758 0.01945 0.0
H203 H 0.09189 0.87528 0.02556 0.0
C204 C 0.90248 0.8215 0.03175 0.0
C205 C 0.98293 0.84969 0.01096 0.0
H206 H 0.04459 0.84756 0.98627 0.0
C207 C -0.00256 0.87755 0.02463 0.0
C208 C 0.00025 0.83822 -0.00183 0.0
C209 C 0.98635 0.80761 0.98536 0.0
C210 C 0.02856 0.89477 0.02456 0.0
C211 C 0.04562 0.88423 0.00952 0.0
C212 C 0.03139 0.85582 -0.00273 0.0
C213 C 0.07793 0.903 0.00503 0.0
C214 C 0.04279 0.92419 0.04044 0.0
C215 C 0.08769 0.92884 -0.00922 0.0
C216 C 0.1181 0.94736 0.98755 0.0
C217 C 0.13939 0.94017 -0.00198 0.0
C218 C 0.12956 0.91373 0.01125 0.0
C219 C 0.09902 0.89528 0.01476 0.0
H220 H 0.02876 0.92495 0.05861 0.0
H221 H 0.06533 0.93033 0.04983 0.0
H222 H 0.04507 0.94045 0.02462 0.0
H223 H 0.07175 0.9348 0.98229 0.0
H224 H 0.12492 0.96737 0.97686 0.0
H225 H 0.84674 0.36428 0.28215 0.0
H226 H 0.83237 0.40148 0.27802 0.0
H227 H 0.88575 0.44658 0.35659 0.0
H228 H 0.89975 0.40902 0.3613 0.0
H229 H 0.82968 0.43725 0.36017 0.0
H230 H 0.8731 0.48334 0.25288 0.0
H231 H 0.85134 0.44478 0.24928 0.0
H232 H 0.88556 0.4615 0.27147 0.0
C233 C 0.85589 0.38236 0.29827 0.0
C234 C 0.87424 0.38358 0.32216 0.0
C235 C 0.84786 0.40379 0.29572 0.0
C236 C 0.85833 0.42706 0.31675 0.0
C237 C 0.87756 0.4289 0.34001 0.0
H238 H 0.78509 0.54549 0.34318 0.0
H239 H 0.82053 0.52705 0.3448 0.0
C240 C 0.8855 0.40739 0.34268 0.0
C241 C 0.84631 0.44736 0.31634 0.0
H242 H 0.8321 0.48935 0.27112 0.0
C243 C 0.83078 0.44917 0.34095 0.0
C244 C 0.84776 0.46289 0.29125 0.0
C245 C 0.86562 0.46328 0.26487 0.0
C246 C 0.81517 0.46467 0.34051 0.0
C247 C 0.81538 0.47898 0.31487 0.0
C248 C 0.83194 0.47825 0.29071 0.0
C249 C 0.79619 0.49238 0.31181 0.0
C250 C 0.79721 0.46433 0.36684 0.0
C251 C 0.77136 0.47948 0.29209 0.0
C252 C 0.75111 0.48987 0.29112 0.0
C253 C 0.75541 0.51349 0.30979 0.0
C254 C 0.78105 0.52717 0.32864 0.0
C255 C 0.80129 0.51666 0.32965 0.0
H256 H 0.79586 0.44872 0.3831 0.0
H257 H 0.80782 0.48613 0.37814 0.0
H258 H 0.77415 0.45876 0.35964 0.0
H259 H 0.7671 0.46072 0.27814 0.0
H260 H 0.73172 0.47896 0.27619 0.0
H261 H 0.48011 0.23656 0.38239 0.0
H262 H 0.4904 0.28264 0.36365 0.0
H263 H 0.45486 0.24131 0.27753 0.0
H264 H 0.44515 0.19512 0.29596 0.0
H265 H 0.50999 0.28428 0.27474 0.0
H266 H 0.4464 0.32411 0.34031 0.0
H267 H 0.46623 0.31277 0.36429 0.0
H268 H 0.43739 0.28672 0.339 0.0
C269 C 0.47376 0.23709 0.35966 0.0
C270 C 0.46218 0.21227 0.34057 0.0
C271 C 0.47938 0.26346 0.34902 0.0
C272 C 0.47308 0.2654 0.31924 0.0
C273 C 0.45975 0.24027 0.30061 0.0
H274 H 0.57073 0.43295 0.23621 0.0
H275 H 0.52936 0.38391 0.24174 0.0
C276 C 0.45431 0.21392 0.31118 0.0
C277 C 0.48503 0.29411 0.30677 0.0
H278 H 0.49381 0.36125 0.32171 0.0
C279 C 0.50576 0.30093 0.28434 0.0
C280 C 0.47941 0.31576 0.31922 0.0
C281 C 0.45587 0.30933 0.34181 0.0
C282 C 0.52299 0.32934 0.27593 0.0
C283 C 0.5191 0.35138 0.29016 0.0
C284 C 0.4968 0.34425 0.31097 0.0
C285 C 0.54112 0.38206 0.28725 0.0
C286 C 0.54688 0.33593 0.25363 0.0
C287 C 0.56075 0.39733 0.31125 0.0
C288 C 0.58429 0.42508 0.30817 0.0
C289 C 0.58861 0.43818 0.28102 0.0
C290 C 0.56809 0.42333 0.25733 0.0
C291 C 0.54449 0.39538 0.26042 0.0
H292 H 0.54897 0.31667 0.24692 0.0
H293 H 0.54139 0.34393 0.23357 0.0
H294 H 0.56888 0.35311 0.26281 0.0
H295 H 0.55851 0.38734 0.3321 0.0
H296 H 0.59947 0.43602 0.32697 0.0
H297 H 0.54891 0.09855 0.33555 0.0
H298 H 0.60333 0.1188 0.33646 0.0
H299 H 0.61478 0.20465 0.34634 0.0
H300 H 0.56069 0.18477 0.34497 0.0
H301 H 0.64949 0.19912 0.30332 0.0
H302 H 0.66165 0.15443 0.40802 0.0
H303 H 0.63592 0.1283 0.38079 0.0
H304 H 0.62785 0.15489 0.39743 0.0
C305 C 0.56303 0.12173 0.338 0.0
C306 C 0.55047 0.14004 0.34021 0.0
C307 C 0.5941 0.13324 0.3387 0.0
C308 C 0.61305 0.16319 0.34187 0.0
C309 C 0.60054 0.18146 0.34397 0.0
H310 H 0.80012 0.26974 0.38686 0.0
H311 H 0.74557 0.24079 0.3863 0.0
C312 C 0.56959 0.17003 0.34318 0.0
C313 C 0.64596 0.17585 0.34214 0.0
H314 H 0.70554 0.18045 0.38131 0.0
C315 C 0.66176 0.19495 0.32028 0.0
C316 C 0.66185 0.17056 0.3645 0.0
C317 C 0.64606 0.15113 0.3892 0.0
C318 C 0.69307 0.20913 0.32028 0.0
C319 C 0.70896 0.20359 0.34242 0.0
C320 C 0.69321 0.18439 0.36422 0.0
C321 C 0.74203 0.21872 0.34401 0.0
C322 C 0.70889 0.23062 0.29713 0.0
C323 C 0.75809 0.2152 0.32084 0.0
C324 C 0.78922 0.23176 0.32102 0.0
C325 C 0.80484 0.25202 0.3445 0.0
C326 C 0.78876 0.25442 0.3684 0.0
C327 C 0.75761 0.23788 0.36814 0.0
H328 H 0.69386 0.23716 0.28606 0.0
H329 H 0.72857 0.25025 0.30702 0.0
H330 H 0.71692 0.22075 0.27999 0.0
H331 H 0.74647 0.20012 0.30227 0.0
H332 H 0.80093 0.22919 0.30239 0.0
H333 H 0.3841 0.82307 0.63567 0.0
H334 H 0.41896 0.80422 0.63662 0.0
H335 H 0.48778 0.88542 0.6756 0.0
H336 H 0.45302 0.90472 0.67455 0.0
H337 H 0.50674 0.85994 0.62833 0.0
H338 H 0.44532 0.7837 0.71469 0.0
H339 H 0.42233 0.78132 0.68336 0.0
H340 H 0.43969 0.81376 0.70687 0.0
C341 C 0.40667 0.83703 0.64437 0.0
C342 C 0.41572 0.86533 0.6553 0.0
C343 C 0.42652 0.82617 0.64494 0.0
C344 C 0.45573 0.84332 0.65658 0.0
C345 C 0.46523 0.87186 0.66666 0.0
H346 H 0.56326 0.76575 0.70697 0.0
H347 H 0.54062 0.79684 0.70593 0.0
C348 C 0.44533 0.8828 0.6661 0.0
C349 C 0.47593 0.83095 0.65887 0.0
H350 H 0.48233 0.77693 0.69008 0.0
C351 C 0.50164 0.84195 0.642 0.0
C352 C 0.46935 0.8078 0.67706 0.0
C353 C 0.44283 0.79608 0.69676 0.0
C354 C 0.52045 0.82965 0.64209 0.0
C355 C 0.51305 0.8056 0.65923 0.0
C356 C 0.48787 0.79527 0.67681 0.0
C357 C 0.53046 0.7901 0.65888 0.0
C358 C 0.54806 0.84251 0.62394 0.0
C359 C 0.53267 0.77636 0.63265 0.0
C360 C 0.54571 0.75861 0.63314 0.0
C361 C 0.55641 0.75406 0.65994 0.0
C362 C 0.5551 0.76868 0.68598 0.0
C363 C 0.5422 0.78649 0.68544 0.0
H364 H 0.55513 0.86524 0.61923 0.0
H365 H 0.56691 0.84177 0.63537 0.0
H366 H 0.54317 0.82994 0.6025 0.0
H367 H 0.52319 0.77836 0.61201 0.0
H368 H 0.54629 0.74757 0.61273 0.0
H369 H 0.29027 0.76616 0.59948 0.0
H370 H 0.25419 0.71717 0.61063 0.0
H371 H 0.2031 0.74865 0.65942 0.0
H372 H 0.24006 0.79813 0.64932 0.0
H373 H 0.21509 0.71759 0.69246 0.0
H374 H 0.17298 0.65514 0.58669 0.0
H375 H 0.21293 0.67464 0.58618 0.0
H376 H 0.19229 0.69409 0.58879 0.0
C377 C 0.27093 0.76267 0.61185 0.0
C378 C 0.26822 0.78605 0.62381 0.0
C379 C 0.25005 0.7345 0.61801 0.0
C380 C 0.22564 0.72906 0.63563 0.0
C381 C 0.2217 0.75228 0.64574 0.0
H382 H 0.13488 0.54686 0.67959 0.0
H383 H 0.13903 0.59209 0.66368 0.0
C384 C 0.24284 0.78055 0.63994 0.0
C385 C 0.20764 0.70008 0.64739 0.0
H386 H 0.17819 0.62857 0.62773 0.0
C387 C 0.20625 0.6981 0.6782 0.0
C388 C 0.19535 0.67448 0.62901 0.0
C389 C 0.19318 0.67477 0.59584 0.0
C390 C 0.19553 0.6715 0.69108 0.0
C391 C 0.1869 0.64637 0.67268 0.0
C392 C 0.18554 0.64794 0.6419 0.0
C393 C 0.18265 0.61919 0.6847 0.0
C394 C 0.19453 0.6708 0.7243 0.0
C395 C 0.20575 0.61942 0.7018 0.0
C396 C 0.20337 0.59375 0.71108 0.0
C397 C 0.17804 0.56722 0.70301 0.0
C398 C 0.15469 0.56698 0.68619 0.0
C399 C 0.157 0.59278 0.67708 0.0
H400 H 0.1901 0.68788 0.73389 0.0
H401 H 0.17706 0.64958 0.73147 0.0
H402 H 0.21657 0.67507 0.73343 0.0
H403 H 0.22617 0.63941 0.70718 0.0
H404 H 0.22187 0.5947 0.72379 0.0
H405 H 0.24652 0.45454 0.67049 0.0
H406 H 0.30114 0.47827 0.6687 0.0
H407 H 0.30837 0.54809 0.72645 0.0
H408 H 0.25404 0.52481 0.72819 0.0
H409 H 0.33855 0.56536 0.67359 0.0
H410 H 0.3671 0.49097 0.73063 0.0
H411 H 0.33835 0.47457 0.70195 0.0
H412 H 0.33178 0.49035 0.73486 0.0
C413 C 0.25975 0.47471 0.68318 0.0
C414 C 0.24592 0.48787 0.69933 0.0
C415 C 0.29095 0.48815 0.68226 0.0
C416 C 0.30874 0.51481 0.69762 0.0
C417 C 0.295 0.52747 0.71451 0.0
H418 H 0.49913 0.62433 0.72601 0.0
H419 H 0.44593 0.59033 0.73101 0.0
C420 C 0.26393 0.51413 0.71543 0.0
C421 C 0.34145 0.53096 0.69404 0.0
H422 H 0.40665 0.53004 0.70758 0.0
C423 C 0.35344 0.55763 0.681 0.0
C424 C 0.36075 0.52083 0.70389 0.0
C425 C 0.34899 0.49272 0.71884 0.0
C426 C 0.38426 0.57452 0.67751 0.0
C427 C 0.40356 0.56426 0.68695 0.0
C428 C 0.39167 0.53764 0.70014 0.0
C429 C 0.43624 0.58157 0.68398 0.0
C430 C 0.39602 0.60351 0.66426 0.0
C431 C 0.44844 0.58712 0.65591 0.0
C432 C 0.47874 0.60655 0.65295 0.0
C433 C 0.49738 0.62073 0.67805 0.0
C434 C 0.48536 0.61391 0.70623 0.0
C435 C 0.45501 0.59444 0.70915 0.0
H436 H 0.37901 0.61071 0.66371 0.0
H437 H 0.41616 0.62015 0.67693 0.0
H438 H 0.40252 0.60201 0.64124 0.0
H439 H 0.43429 0.57711 0.63625 0.0
H440 H 0.48731 0.61112 0.63093 0.0
H441 H 0.01262 0.2648 0.92066 0.0
H442 H 0.0356 0.3063 0.88994 0.0
H443 H 0.04242 0.36263 0.96437 0.0
H444 H 0.01938 0.32115 -0.00447 0.0
H445 H 0.02178 0.37176 0.90337 0.0
H446 H 0.12808 0.36773 0.90753 0.0
H447 H 0.09494 0.3338 0.89881 0.0
H448 H 0.09971 0.35159 0.93461 0.0
C449 C 0.01859 0.28592 0.93048 0.0
C450 C 0.01449 0.28973 0.96063 0.0
C451 C 0.03174 0.30958 0.91289 0.0
C452 C 0.04096 0.3374 0.9251 0.0
C453 C 0.03548 0.34123 0.95471 0.0
H454 H 0.16772 0.48228 0.82588 0.0
H455 H 0.14151 0.45453 0.86809 0.0
C456 C 0.02234 0.31753 0.97242 0.0
C457 C 0.05805 0.36243 0.90715 0.0
H458 H 0.12359 0.39673 0.87151 0.0
C459 C 0.0442 0.37759 0.89667 0.0
C460 C 0.08743 0.37016 0.899 0.0
C461 C 0.10362 0.35518 0.91072 0.0
C462 C 0.05852 0.39939 0.87675 0.0
C463 C 0.08714 0.40578 0.86704 0.0
C464 C 0.10159 0.39169 0.87891 0.0
C465 C 0.10143 0.42489 0.8426 0.0
C466 C 0.04272 0.41503 0.86589 0.0
C467 C 0.0875 0.41739 0.81439 0.0
C468 C 0.10241 0.43303 0.79028 0.0
C469 C 0.13162 0.45639 0.79392 0.0
C470 C 0.14524 0.46439 0.82237 0.0
C471 C 0.1303 0.44863 0.8465 0.0
H472 H 0.02623 0.41449 0.88193 0.0
H473 H 0.05887 0.43785 0.86189 0.0
H474 H 0.03041 0.40428 0.84477 0.0
H475 H 0.06553 0.39872 0.81078 0.0
H476 H 0.09127 0.42632 0.76868 0.0
H477 H 0.80907 0.83986 0.90472 0.0
H478 H 0.78367 0.82365 0.85604 0.0
H479 H 0.72399 0.74042 0.88876 0.0
H480 H 0.74901 0.75639 0.93749 0.0
H481 H 0.7727 0.77399 0.81746 0.0
H482 H 0.66878 0.77076 0.85675 0.0
H483 H 0.70397 0.78966 0.8774 0.0
H484 H 0.68192 0.75111 0.87795 0.0
C485 C 0.79064 0.81806 0.90153 0.0
C486 C 0.78083 0.79949 0.92502 0.0
C487 C 0.77623 0.80885 0.87371 0.0
C488 C 0.75177 0.78104 0.86906 0.0
C489 C 0.74258 0.76214 0.89215 0.0
H490 H 0.62238 0.68832 0.72734 0.0
H491 H 0.65374 0.70311 0.77252 0.0
C492 C 0.75694 0.77129 0.91992 0.0
C493 C 0.73519 0.772 0.84034 0.0
H494 H 0.66703 0.75199 0.80809 0.0
C495 C 0.74963 0.76925 0.81528 0.0
C496 C 0.70517 0.76597 0.83775 0.0
C497 C 0.68904 0.76973 0.8638 0.0
C498 C 0.73449 0.7599 0.78765 0.0
C499 C 0.70438 0.75366 0.78514 0.0
C500 C 0.69008 0.75666 0.81019 0.0
C501 C 0.68705 0.74395 0.75679 0.0
C502 C 0.75056 0.75614 0.76157 0.0
C503 C 0.69553 0.76202 0.73298 0.0
C504 C 0.67768 0.75362 0.70707 0.0
C505 C 0.65094 0.72712 0.70472 0.0
C506 C 0.64281 0.70889 0.72847 0.0
C507 C 0.66069 0.71727 0.75429 0.0
H508 H 0.77067 0.75484 0.76863 0.0
H509 H 0.73553 0.73637 0.74781 0.0
H510 H 0.75794 0.77492 0.74762 0.0
H511 H 0.7155 0.78296 0.73473 0.0
H512 H 0.68448 0.76819 0.6892 0.0
H513 H 0.31849 0.84656 0.76624 0.0
H514 H 0.31064 0.86633 0.81308 0.0
H515 H 0.33347 0.94618 0.7728 0.0
H516 H 0.34156 0.92687 0.72617 0.0
H517 H 0.35856 0.95217 0.83195 0.0
H518 H 0.23572 0.87742 0.82088 0.0
H519 H 0.25952 0.86136 0.81918 0.0
H520 H 0.26014 0.88375 0.79036 0.0
C521 C 0.32216 0.86844 0.76747 0.0
C522 C 0.33027 0.88503 0.74243 0.0
C523 C 0.31761 0.87964 0.79418 0.0
C524 C 0.32116 0.90753 0.79615 0.0
C525 C 0.33059 0.92457 0.77162 0.0
H526 H 0.24798 0.99244 0.90173 0.0
H527 H 0.26581 0.97147 0.86327 0.0
C528 C 0.33505 0.91343 0.74496 0.0
C529 C 0.31319 0.91858 0.82299 0.0
H530 H 0.25317 0.91119 0.86138 0.0
C531 C 0.33561 0.94306 0.83869 0.0
C532 C 0.28313 0.90674 0.83131 0.0
C533 C 0.25811 0.88099 0.81453 0.0
C534 C 0.32862 0.95635 0.86235 0.0
C535 C 0.29853 0.9447 0.87038 0.0
C536 C 0.27622 0.91993 0.85505 0.0
C537 C 0.28938 0.95866 0.89371 0.0
C538 C 0.35319 0.98331 0.87793 0.0
C539 C 0.29691 0.95839 0.92344 0.0
C540 C 0.28669 0.97026 0.94548 0.0
C541 C 0.2688 0.98255 0.93806 0.0
C542 C 0.26175 0.98317 0.90816 0.0
C543 C 0.27186 0.97119 0.88618 0.0
H544 H 0.37455 0.99194 0.8662 0.0
H545 H 0.34654 0.00028 0.87998 0.0
H546 H 0.35707 0.97839 0.90058 0.0
H547 H 0.31017 0.94851 0.9296 0.0
H548 H 0.2925 0.96945 0.96832 0.0
H549 H 0.39376 0.05631 0.28917 0.0
H550 H 0.35536 0.03031 0.25027 0.0
H551 H 0.41646 0.08226 0.18512 0.0
H552 H 0.4551 0.10818 0.22375 0.0
H553 H 0.33464 0.05997 0.21764 0.0
H554 H 0.37519 0.00198 0.14348 0.0
H555 H 0.38989 0.01438 0.18084 0.0
H556 H 0.40275 0.039 0.15152 0.0
C557 C 0.39931 0.06172 0.26647 0.0
C558 C 0.42737 0.08456 0.25956 0.0
C559 C 0.37733 0.0468 0.2443 0.0
C560 C 0.38313 0.05427 0.21486 0.0
C561 C 0.4117 0.0758 0.20765 0.0
H562 H 0.29538 0.04702 0.05347 0.0
H563 H 0.32877 0.05296 0.09508 0.0
C564 C 0.43372 0.09074 0.22981 0.0
C565 C 0.35835 0.04278 0.19247 0.0
H566 H 0.33763 0.01152 0.12283 0.0
C567 C 0.33491 0.04885 0.19712 0.0
C568 C 0.35895 0.02843 0.16576 0.0
C569 C 0.3829 0.0203 0.16017 0.0
C570 C 0.31289 0.0424 0.17507 0.0
C571 C 0.31411 0.02902 0.1479 0.0
C572 C 0.33685 0.02186 0.1437 0.0
C573 C 0.29345 0.02444 0.12275 0.0
C574 C 0.28951 0.0514 0.18044 0.0
C575 C 0.26252 0.00633 0.12456 0.0
C576 C 0.24326 0.00309 0.10088 0.0
C577 C 0.25475 0.01771 0.07495 0.0
C578 C 0.2858 0.03553 0.07316 0.0
C579 C 0.30494 0.03885 0.09684 0.0
H580 H 0.29539 0.06666 0.20005 0.0
H581 H 0.28646 0.06174 0.16091 0.0
H582 H 0.26781 0.03203 0.18434 0.0
H583 H 0.25329 -0.00533 0.14424 0.0
H584 H 0.21948 0.98898 0.1028 0.0
H585 H 0.97815 0.1704 0.1047 0.0
H586 H 0.97036 0.18332 0.15508 0.0
H587 H 0.00468 0.27158 0.13233 0.0
H588 H 0.01263 0.25901 0.08202 0.0
H589 H 0.02404 0.26226 0.19108 0.0
H590 H 0.90098 0.2034 0.16726 0.0
H591 H 0.92096 0.18393 0.16015 0.0
H592 H 0.92766 0.21372 0.1383 0.0
C593 C 0.98447 0.19265 0.11053 0.0
C594 C -0.00434 0.21363 0.0893 0.0
C595 C 0.97997 0.19994 0.13928 0.0
C596 C 0.98668 0.22829 0.14717 0.0
C597 C -0.00064 0.24957 0.12654 0.0
H598 H 0.92255 0.30721 0.27132 0.0
H599 H 0.93988 0.2901 0.22905 0.0
C600 C 0.00376 0.24231 0.0978 0.0
C601 C 0.97823 0.23548 0.17603 0.0
H602 H 0.91777 0.22793 0.21371 0.0
C603 C 0.00084 0.25453 0.19629 0.0
C604 C 0.94791 0.2255 0.1824 0.0
C605 C 0.92287 0.20564 0.1609 0.0
C606 C 0.99383 0.26423 0.22275 0.0
C607 C 0.96354 0.25458 0.22885 0.0
C608 C 0.94096 0.23513 0.20885 0.0
C609 C 0.95471 0.26587 0.25489 0.0
C610 C 0.01874 0.28551 0.24353 0.0
C611 C 0.95743 0.25785 0.28332 0.0
C612 C 0.94744 0.26751 0.30758 0.0
C613 C 0.93461 0.28531 0.30366 0.0
C614 C 0.93235 0.29357 0.27511 0.0
C615 C 0.94221 0.28381 0.25093 0.0
H616 H 0.04108 0.29343 0.23391 0.0
H617 H 0.01546 0.30426 0.2493 0.0
H618 H 0.01836 0.27504 0.26431 0.0
H619 H 0.96678 0.24375 0.28666 0.0
H620 H 0.94948 0.26077 0.3293 0.0
H621 H 0.6429 0.59364 0.26148 0.0
H622 H 0.65243 0.62692 0.22209 0.0
H623 H 0.69317 0.58566 0.17139 0.0
H624 H 0.68381 0.55239 0.2105 0.0
H625 H 0.71184 0.66409 0.20328 0.0
H626 H 0.63675 0.59362 0.11069 0.0
H627 H 0.63068 0.58403 0.14878 0.0
H628 H 0.65807 0.57949 0.12828 0.0
C629 C 0.65344 0.59135 0.24173 0.0
C630 C 0.66276 0.57051 0.23912 0.0
C631 C 0.65883 0.61035 0.21929 0.0
C632 C 0.67315 0.60845 0.19378 0.0
C633 C 0.68159 0.58709 0.19071 0.0
H634 H 0.76468 0.70117 0.0469 0.0
H635 H 0.73714 0.66633 0.08366 0.0
C636 C 0.67644 0.56826 0.21318 0.0
C637 C 0.68226 0.63056 0.17171 0.0
H638 H 0.67731 0.63914 0.09813 0.0
C639 C 0.70394 0.65886 0.18036 0.0
C640 C 0.67192 0.62346 0.14193 0.0
C641 C 0.64786 0.59355 0.13183 0.0
C642 C 0.71687 0.68001 0.15962 0.0
C643 C 0.70723 0.67269 0.1296 0.0
C644 C 0.68465 0.64464 0.12117 0.0
C645 C 0.72196 0.69322 0.10634 0.0
C646 C 0.74186 0.7095 0.16978 0.0
C647 C 0.72202 0.71962 0.10661 0.0
C648 C 0.73801 0.73973 0.08581 0.0
C649 C 0.75387 0.73355 0.06419 0.0
C650 C 0.7528 0.70662 0.06333 0.0
C651 C 0.737 0.68665 0.08425 0.0
H652 H 0.75093 0.70958 0.19218 0.0
H653 H 0.76045 0.71722 0.15418 0.0
H654 H 0.73327 0.72503 0.17064 0.0
H655 H 0.71002 0.72482 0.12314 0.0
H656 H 0.73814 0.76017 0.08683 0.0
H657 H 0.15555 0.47424 0.58706 0.0
H658 H 0.1217 0.44852 0.54459 0.0
H659 H 0.06184 0.38286 0.60091 0.0
H660 H 0.09536 0.40847 0.64359 0.0
H661 H 0.09565 0.38899 0.52025 0.0
H662 H 0.01204 0.41754 0.56476 0.0
H663 H 0.05042 0.4352 0.57837 0.0
H664 H 0.02465 0.39959 0.58917 0.0
C665 C 0.13538 0.45414 0.59038 0.0
C666 C 0.12793 0.4436 0.61876 0.0
C667 C 0.11612 0.43947 0.56609 0.0
C668 C 0.08914 0.41411 0.56981 0.0
C669 C 0.08241 0.40267 0.59776 0.0
H670 H 0.9346 0.32415 0.44802 0.0
H671 H 0.96919 0.33687 0.49066 0.0
C672 C 0.10163 0.4173 0.62207 0.0
C673 C 0.06719 0.4008 0.54483 0.0
H674 H -0.00062 0.39005 0.51973 0.0
C675 C 0.07452 0.38904 0.52012 0.0
C676 C 0.03968 0.40094 0.54489 0.0
C677 C 0.03117 0.41416 0.57057 0.0
C678 C 0.05497 0.37742 0.49526 0.0
C679 C 0.02778 0.37821 0.49503 0.0
C680 C 0.02023 0.38944 0.52003 0.0
C681 C 0.00748 0.36897 0.4686 0.0
C682 C 0.06354 0.36431 0.46956 0.0
C683 C 0.01754 0.38295 0.44218 0.0
C684 C -0.00211 0.37575 0.41782 0.0
C685 C 0.96771 0.35463 0.41954 0.0
C686 C 0.95771 0.34053 0.446 0.0
C687 C 0.97743 0.34772 0.47035 0.0
H688 H 0.0798 0.3574 0.47658 0.0
H689 H 0.04361 0.34543 0.45894 0.0
H690 H 0.07425 0.38066 0.45283 0.0
H691 H 0.04046 0.39993 0.4406 0.0
H692 H 0.00628 0.3871 0.3978 0.0
H693 H 0.6037 0.52706 0.37943 0.0
H694 H 0.60407 0.55412 0.42434 0.0
H695 H 0.70046 0.60128 0.426 0.0
H696 H 0.70036 0.57447 0.3806 0.0
H697 H 0.63067 0.55685 0.47926 0.0
H698 H 0.67675 0.66504 0.43293 0.0
H699 H 0.66206 0.63221 0.40983 0.0
H700 H 0.69837 0.64698 0.42761 0.0
C701 C 0.62502 0.54322 0.38924 0.0
C702 C 0.65201 0.54869 0.3764 0.0
C703 C 0.62517 0.55865 0.41492 0.0
C704 C 0.65226 0.57987 0.42825 0.0
C705 C 0.67931 0.5853 0.41572 0.0
H706 H 0.65239 0.64864 0.60722 0.0
H707 H 0.66654 0.62965 0.56389 0.0
C708 C 0.6792 0.56987 0.3899 0.0
C709 C 0.65179 0.59575 0.4556 0.0
H710 H 0.66609 0.66201 0.48358 0.0
C711 C 0.63863 0.57988 0.48035 0.0
C712 C 0.66201 0.62574 0.4567 0.0
C713 C 0.6754 0.64357 0.43033 0.0
C714 C 0.63475 0.59307 0.50606 0.0
C715 C 0.64489 0.62307 0.50719 0.0
C716 C 0.65859 0.63907 0.48264 0.0
C717 C 0.6394 0.63766 0.5329 0.0
C718 C 0.61868 0.57456 0.53131 0.0
C719 C 0.62054 0.64962 0.52956 0.0
C720 C 0.6126 0.66071 0.5542 0.0
C721 C 0.62338 0.65995 0.5826 0.0
C722 C 0.64341 0.6492 0.58568 0.0
C723 C 0.65147 0.63827 0.56099 0.0
H724 H 0.60668 0.55123 0.52441 0.0
H725 H 0.63521 0.57796 0.54918 0.0
H726 H 0.60231 0.58049 0.54052 0.0
H727 H 0.6111 0.64942 0.508 0.0
H728 H 0.59725 0.66898 0.55108 0.0
H729 H 0.35069 0.9214 0.56953 0.0
H730 H 0.36885 0.96 0.53491 0.0
H731 H 0.39783 0.0235 0.60779 0.0
H732 H 0.37969 0.9851 0.64267 0.0
H733 H 0.36623 0.03211 0.55776 0.0
H734 H 0.46097 0.01476 0.52604 0.0
H735 H 0.42484 0.9829 0.52401 0.0
H736 H 0.44057 0.00125 0.55923 0.0
C737 C 0.36071 0.94355 0.57822 0.0
C738 C 0.36402 0.95023 0.60883 0.0
C739 C 0.37112 0.96553 0.55843 0.0
C740 C 0.38496 -0.00553 0.56894 0.0
C741 C 0.3873 0.00122 0.59938 0.0
H742 H 0.4944 0.13345 0.45575 0.0
H743 H 0.47553 0.10543 0.49959 0.0
C744 C 0.37699 0.97926 0.61922 0.0
C745 C 0.398 0.01768 0.54809 0.0
H746 H 0.45192 0.04606 0.49714 0.0
C747 C 0.38511 0.03539 0.54462 0.0
C748 C 0.42292 0.0221 0.5315 0.0
C749 C 0.43838 0.00445 0.53547 0.0
C750 C 0.39586 0.05682 0.52395 0.0
C751 C 0.41988 0.06028 0.50633 0.0
C752 C 0.43345 0.04326 0.51067 0.0
C753 C 0.43019 0.08001 0.48188 0.0
C754 C 0.3814 0.07544 0.52103 0.0
C755 C 0.4108 0.07515 0.45765 0.0
C756 C 0.42148 0.09101 0.4326 0.0
C757 C 0.45181 0.11188 0.43129 0.0
C758 C 0.47093 0.1175 0.45607 0.0
C759 C 0.46021 0.10155 0.48112 0.0
H760 H 0.3698 0.07602 0.54142 0.0
H761 H 0.39816 0.09785 0.51621 0.0
H762 H 0.3645 0.06643 0.5025 0.0
H763 H 0.38769 0.05821 0.45758 0.0
H764 H 0.40617 0.08619 0.4139 0.0
loop_
_geom_bond_atom_site_label_1
_geom_bond_atom_site_label_2
_geom_bond_distance
_geom_bond_site_symmetry_2
_ccdc_geom_bond_type
C0 O1 1.160 . S
C0 O7 1.185 . S
O1 C0 1.160 . S
O2 Zn3 1.899 . S
O2 C10 1.284 . S
Zn3 O2 1.899 . S
Zn3 O4 2.032 . S
Zn3 O7 2.086 1_554 S
Zn3 O12 1.977 1_454 S
O4 Zn3 2.032 . S
O4 C8 1.278 . S
C5 O6 1.203 . S
C5 O12 1.267 1_554 S
O6 C5 1.203 . S
O7 C0 1.185 . S
O7 Zn3 2.086 1_556 S
C8 O4 1.278 . S
C8 O9 1.211 1_455 S
O9 C8 1.211 1_655 S
C10 O2 1.284 . S
C10 O11 1.273 . S
O11 C10 1.273 . S
O12 Zn3 1.977 1_656 S
O12 C5 1.267 1_556 S
C13 O14 1.160 . S
C13 O20 1.185 . S
O14 C13 1.160 . S
O15 Zn16 1.899 . S
O15 C23 1.286 . S
Zn16 O15 1.899 . S
Zn16 O17 2.032 1_554 S
Zn16 O20 2.086 . S
Zn16 O25 1.977 . S
O17 Zn16 2.032 1_556 S
O17 C21 1.278 . S
C18 O19 1.203 . S
C18 O25 1.267 . S
O19 C18 1.203 . S
O20 C13 1.185 . S
O20 Zn16 2.086 . S
C21 O17 1.278 . S
C21 O22 1.211 . S
O22 C21 1.211 . S
C23 O15 1.286 . S
C23 O24 1.271 1_554 S
O24 C23 1.271 1_556 S
O25 Zn16 1.977 . S
O25 C18 1.267 . S
C26 O27 1.160 . S
C26 O33 1.185 1_565 S
O27 C26 1.160 . S
O28 Zn29 1.899 1_566 S
O28 C36 1.284 1_556 S
Zn29 O28 1.899 1_544 S
Zn29 O30 2.036 . S
Zn29 O33 2.080 1_554 S
Zn29 O38 1.976 1_554 S
O30 Zn29 2.036 . S
O30 C34 1.278 . S
C31 O32 1.203 . S
C31 O38 1.267 1_554 S
O32 C31 1.203 . S
O33 C26 1.185 1_545 S
O33 Zn29 2.080 1_556 S
C34 O30 1.278 . S
C34 O35 1.211 . S
O35 C34 1.211 . S
C36 O28 1.284 1_554 S
C36 O37 1.273 . S
O37 C36 1.273 . S
O38 Zn29 1.976 1_556 S
O38 C31 1.267 1_556 S
C39 O40 1.160 . S
C39 O46 1.185 . S
O40 C39 1.160 . S
O41 Zn42 1.899 . S
O41 C49 1.284 . S
Zn42 O41 1.899 . S
Zn42 O43 2.032 . S
Zn42 O46 2.086 . S
Zn42 O51 1.977 . S
O43 Zn42 2.032 . S
O43 C47 1.278 . S
C44 O45 1.203 . S
C44 O51 1.267 . S
O45 C44 1.203 . S
O46 C39 1.185 . S
O46 Zn42 2.086 . S
C47 O43 1.278 . S
C47 O48 1.211 . S
O48 C47 1.211 . S
C49 O41 1.284 . S
C49 O50 1.273 . S
O50 C49 1.273 . S
O51 Zn42 1.977 . S
O51 C44 1.267 . S
C52 O53 1.160 . S
C52 O59 1.185 . S
O53 C52 1.160 . S
O54 Zn55 1.899 . S
O54 C62 1.284 . S
Zn55 O54 1.899 . S
Zn55 O56 2.032 . S
Zn55 O59 2.086 . S
Zn55 O64 1.977 . S
O56 Zn55 2.032 . S
O56 C60 1.278 . S
C57 O58 1.203 . S
C57 O64 1.267 . S
O58 C57 1.203 . S
O59 C52 1.185 . S
O59 Zn55 2.086 . S
C60 O56 1.278 . S
C60 O61 1.211 . S
O61 C60 1.211 . S
C62 O54 1.284 . S
C62 O63 1.273 . S
O63 C62 1.273 . S
O64 Zn55 1.977 . S
O64 C57 1.267 . S
C65 O66 1.160 . S
C65 O72 1.185 . S
O66 C65 1.160 . S
O67 Zn68 1.899 . S
O67 C75 1.284 . S
Zn68 O67 1.899 . S
Zn68 O69 2.032 . S
Zn68 O72 2.086 . S
Zn68 O77 1.977 . S
O69 Zn68 2.032 . S
O69 C73 1.278 . S
C70 O71 1.203 . S
C70 O77 1.267 . S
O71 C70 1.203 . S
O72 C65 1.185 . S
O72 Zn68 2.086 . S
C73 O69 1.278 . S
C73 O74 1.211 . S
O74 C73 1.211 . S
C75 O67 1.284 . S
C75 O76 1.273 . S
O76 C75 1.273 . S
O77 Zn68 1.977 . S
O77 C70 1.267 . S
C78 O79 1.160 . S
C78 O85 1.185 . S
O79 C78 1.160 . S
O80 Zn81 1.899 . S
O80 C88 1.284 . S
Zn81 O80 1.899 . S
Zn81 O82 2.032 . S
Zn81 O85 2.086 . S
Zn81 O90 1.977 . S
O82 Zn81 2.032 . S
O82 C86 1.278 . S
C83 O84 1.203 . S
C83 O90 1.267 . S
O84 C83 1.203 . S
O85 C78 1.185 . S
O85 Zn81 2.086 . S
C86 O82 1.278 . S
C86 O87 1.211 . S
O87 C86 1.211 . S
C88 O80 1.284 . S
C88 O89 1.273 . S
O89 C88 1.273 . S
O90 Zn81 1.977 . S
O90 C83 1.267 . S
C91 O92 1.160 . S
C91 O98 1.185 . S
O92 C91 1.160 . S
O93 Zn94 1.899 . S
O93 C101 1.284 . S
Zn94 O93 1.899 . S
Zn94 O95 2.032 . S
Zn94 O98 2.086 . S
Zn94 O103 1.977 . S
O95 Zn94 2.032 . S
O95 C99 1.278 . S
C96 O97 1.203 . S
C96 O103 1.267 . S
O97 C96 1.203 . S
O98 C91 1.185 . S
O98 Zn94 2.086 . S
C99 O95 1.278 . S
C99 O100 1.211 . S
O100 C99 1.211 . S
C101 O93 1.284 . S
C101 O102 1.273 . S
O102 C101 1.273 . S
O103 Zn94 1.977 . S
O103 C96 1.267 . S
C104 O105 1.160 . S
C104 O111 1.185 . S
O105 C104 1.160 . S
O106 Zn107 1.899 . S
O106 C114 1.284 . S
Zn107 O106 1.899 . S
Zn107 O108 2.032 . S
Zn107 O111 2.086 . S
Zn107 O116 1.977 . S
O108 Zn107 2.032 . S
O108 C112 1.278 . S
C109 O110 1.203 . S
C109 O116 1.267 . S
O110 C109 1.203 . S
O111 C104 1.185 . S
O111 Zn107 2.086 . S
C112 O108 1.278 . S
C112 O113 1.211 . S
O113 C112 1.211 . S
C114 O106 1.284 . S
C114 O115 1.273 . S
O115 C114 1.273 . S
O116 Zn107 1.977 . S
O116 C109 1.267 . S
H117 C125 0.929 . S
H118 C127 0.930 . S
H119 C129 0.930 . S
H120 C132 0.929 . S
H121 C135 0.930 1_556 S
H122 C137 0.960 . S
H123 C137 0.960 . S
H124 C137 0.960 . S
C125 H117 0.929 . S
C125 C126 1.377 . S
C125 C127 1.384 . S
C126 C125 1.377 . S
C126 C132 1.390 1_554 S
C127 H118 0.930 . S
C127 C125 1.384 . S
C127 C128 1.372 . S
C128 C127 1.372 . S
C128 C129 1.400 1_554 S
C128 C133 1.490 . S
C129 H119 0.930 . S
C129 C128 1.400 1_556 S
C129 C132 1.386 . S
H130 C146 0.930 1_556 S
H131 C147 0.931 1_556 S
C132 H120 0.929 . S
C132 C126 1.390 1_556 S
C132 C129 1.386 . S
C133 C128 1.490 . S
C133 C135 1.395 . S
C133 C136 1.403 . S
H134 C140 0.930 . S
C135 H121 0.930 1_554 S
C135 C133 1.395 . S
C135 C138 1.403 . S
C136 C133 1.403 . S
C136 C137 1.524 . S
C136 C140 1.400 . S
C137 H122 0.960 . S
C137 H123 0.960 . S
C137 H124 0.960 . S
C137 C136 1.524 . S
C138 C135 1.403 . S
C138 C139 1.392 . S
C138 C142 1.495 1_554 S
C139 C138 1.392 . S
C139 C140 1.385 . S
C139 C141 1.478 . S
C140 H134 0.930 . S
C140 C136 1.400 . S
C140 C139 1.385 . S
C141 C139 1.478 . S
C141 C143 1.381 . S
C141 C147 1.383 . S
C142 C138 1.495 1_556 S
C142 H148 0.959 . S
C142 H149 0.961 . S
C142 H150 0.960 1_556 S
C143 C141 1.381 . S
C143 C144 1.394 . S
C143 H151 0.930 . S
C144 C143 1.394 . S
C144 C145 1.383 . S
C144 H152 0.929 . S
C145 C144 1.383 . S
C145 C146 1.377 . S
C146 H130 0.930 1_554 S
C146 C145 1.377 . S
C146 C147 1.379 . S
C147 H131 0.931 1_554 S
C147 C141 1.383 . S
C147 C146 1.379 . S
H148 C142 0.959 . S
H149 C142 0.961 . S
H150 C142 0.960 1_554 S
H151 C143 0.930 . S
H152 C144 0.929 . S
H153 C161 0.929 1_556 S
H154 C163 0.930 . S
H155 C165 0.930 . S
H156 C168 0.929 . S
H157 C171 0.930 . S
H158 C173 0.960 1_545 S
H159 C173 0.960 . S
H160 C173 0.960 . S
C161 H153 0.929 1_554 S
C161 C162 1.377 . S
C161 C163 1.384 1_554 S
C162 C161 1.377 . S
C162 C168 1.390 . S
C163 H154 0.930 . S
C163 C161 1.384 1_556 S
C163 C164 1.372 1_556 S
C164 C163 1.372 1_554 S
C164 C165 1.400 . S
C164 C169 1.490 . S
C165 H155 0.930 . S
C165 C164 1.400 . S
C165 C168 1.386 . S
H166 C182 0.930 . S
H167 C183 0.931 . S
C168 H156 0.929 . S
C168 C162 1.390 . S
C168 C165 1.386 . S
C169 C164 1.490 . S
C169 C171 1.395 1_554 S
C169 C172 1.403 1_565 S
H170 C176 0.930 . S
C171 H157 0.930 . S
C171 C169 1.395 1_556 S
C171 C174 1.403 1_565 S
C172 C169 1.403 1_545 S
C172 C173 1.524 1_545 S
C172 C176 1.400 . S
C173 H158 0.960 1_565 S
C173 H159 0.960 . S
C173 H160 0.960 . S
C173 C172 1.524 1_565 S
C174 C171 1.403 1_545 S
C174 C175 1.392 1_556 S
C174 C178 1.495 . S
C175 C174 1.392 1_554 S
C175 C176 1.385 . S
C175 C177 1.478 . S
C176 H170 0.930 . S
C176 C172 1.400 . S
C176 C175 1.385 . S
C177 C175 1.478 . S
C177 C179 1.381 1_554 S
C177 C183 1.383 . S
C178 C174 1.495 . S
C178 H184 0.959 . S
C178 H185 0.961 . S
C178 H186 0.960 . S
C179 C177 1.381 1_556 S
C179 C180 1.394 . S
C179 H187 0.930 . S
C180 C179 1.394 . S
C180 C181 1.383 1_556 S
C180 H188 0.929 . S
C181 C180 1.383 1_554 S
C181 C182 1.377 . S
C182 H166 0.930 . S
C182 C181 1.377 . S
C182 C183 1.379 . S
C183 H167 0.931 . S
C183 C177 1.383 . S
C183 C182 1.379 . S
H184 C178 0.959 . S
H185 C178 0.961 . S
H186 C178 0.960 . S
H187 C179 0.930 . S
H188 C180 0.929 . S
H189 C197 0.929 . S
H190 C199 0.930 . S
H191 C201 0.930 . S
H192 C204 0.929 . S
H193 C207 0.930 1_655 S
H194 C209 0.960 1_455 S
H195 C209 0.960 . S
H196 C209 0.960 . S
C197 H189 0.929 . S
C197 C198 1.377 1_556 S
C197 C199 1.384 . S
C198 C197 1.377 1_554 S
C198 C204 1.390 . S
C199 H190 0.930 . S
C199 C197 1.384 . S
C199 C200 1.372 1_556 S
C200 C199 1.372 1_554 S
C200 C201 1.400 . S
C200 C205 1.490 . S
C201 H191 0.930 . S
C201 C200 1.400 . S
C201 C204 1.386 . S
H202 C218 0.930 . S
H203 C219 0.931 . S
C204 H192 0.929 . S
C204 C198 1.390 . S
C204 C201 1.386 . S
C205 C200 1.490 . S
C205 C207 1.395 1_655 S
C205 C208 1.403 1_654 S
H206 C212 0.931 . S
C207 H193 0.930 1_455 S
C207 C205 1.395 1_455 S
C207 C210 1.403 . S
C208 C205 1.403 1_456 S
C208 C209 1.524 1_455 S
C208 C212 1.400 . S
C209 H194 0.960 1_655 S
C209 H195 0.960 . S
C209 H196 0.960 . S
C209 C208 1.524 1_655 S
C210 C207 1.403 . S
C210 C211 1.392 . S
C210 C214 1.495 . S
C211 C210 1.392 . S
C211 C212 1.385 1_554 S
C211 C213 1.478 . S
C212 H206 0.931 . S
C212 C208 1.400 . S
C212 C211 1.385 1_556 S
C213 C211 1.478 . S
C213 C215 1.381 . S
C213 C219 1.383 . S
C214 C210 1.495 . S
C214 H220 0.959 . S
C214 H221 0.961 . S
C214 H222 0.960 . S
C215 C213 1.381 . S
C215 C216 1.394 . S
C215 H223 0.930 1_554 S
C216 C215 1.394 . S
C216 C217 1.383 . S
C216 H224 0.929 1_554 S
C217 C216 1.383 . S
C217 C218 1.377 . S
C218 H202 0.930 . S
C218 C217 1.377 . S
C218 C219 1.379 . S
C219 H203 0.931 . S
C219 C213 1.383 . S
C219 C218 1.379 . S
H220 C214 0.959 . S
H221 C214 0.961 . S
H222 C214 0.960 . S
H223 C215 0.930 1_556 S
H224 C216 0.929 1_556 S
H225 C233 0.929 . S
H226 C235 0.930 . S
H227 C237 0.930 . S
H228 C240 0.929 . S
H229 C243 0.930 . S
H230 C245 0.960 . S
H231 C245 0.960 . S
H232 C245 0.960 . S
C233 H225 0.929 . S
C233 C234 1.377 . S
C233 C235 1.384 . S
C234 C233 1.377 . S
C234 C240 1.390 . S
C235 H226 0.930 . S
C235 C233 1.384 . S
C235 C236 1.372 . S
C236 C235 1.372 . S
C236 C237 1.400 . S
C236 C241 1.490 . S
C237 H227 0.930 . S
C237 C236 1.400 . S
C237 C240 1.386 . S
H238 C254 0.930 . S
H239 C255 0.931 . S
C240 H228 0.929 . S
C240 C234 1.390 . S
C240 C237 1.386 . S
C241 C236 1.490 . S
C241 C243 1.395 . S
C241 C244 1.403 . S
H242 C248 0.930 . S
C243 H229 0.930 . S
C243 C241 1.395 . S
C243 C246 1.403 . S
C244 C241 1.403 . S
C244 C245 1.524 . S
C244 C248 1.400 . S
C245 H230 0.960 . S
C245 H231 0.960 . S
C245 H232 0.960 . S
C245 C244 1.524 . S
C246 C243 1.403 . S
C246 C247 1.392 . S
C246 C250 1.495 . S
C247 C246 1.392 . S
C247 C248 1.385 . S
C247 C249 1.478 . S
C248 H242 0.930 . S
C248 C244 1.400 . S
C248 C247 1.385 . S
C249 C247 1.478 . S
C249 C251 1.381 . S
C249 C255 1.383 . S
C250 C246 1.495 . S
C250 H256 0.959 . S
C250 H257 0.961 . S
C250 H258 0.960 . S
C251 C249 1.381 . S
C251 C252 1.394 . S
C251 H259 0.930 . S
C252 C251 1.394 . S
C252 C253 1.383 . S
C252 H260 0.929 . S
C253 C252 1.383 . S
C253 C254 1.377 . S
C254 H238 0.930 . S
C254 C253 1.377 . S
C254 C255 1.379 . S
C255 H239 0.931 . S
C255 C249 1.383 . S
C255 C254 1.379 . S
H256 C250 0.959 . S
H257 C250 0.961 . S
H258 C250 0.960 . S
H259 C251 0.930 . S
H260 C252 0.929 . S
H261 C269 0.929 . S
H262 C271 0.930 . S
H263 C273 0.930 . S
H264 C276 0.929 . S
H265 C279 0.930 . S
H266 C281 0.960 . S
H267 C281 0.960 . S
H268 C281 0.960 . S
C269 H261 0.929 . S
C269 C270 1.377 . S
C269 C271 1.384 . S
C270 C269 1.377 . S
C270 C276 1.390 . S
C271 H262 0.930 . S
C271 C269 1.384 . S
C271 C272 1.372 . S
C272 C271 1.372 . S
C272 C273 1.400 . S
C272 C277 1.490 . S
C273 H263 0.930 . S
C273 C272 1.400 . S
C273 C276 1.386 . S
H274 C290 0.930 . S
H275 C291 0.931 . S
C276 H264 0.929 . S
C276 C270 1.390 . S
C276 C273 1.386 . S
C277 C272 1.490 . S
C277 C279 1.395 . S
C277 C280 1.403 . S
H278 C284 0.930 . S
C279 H265 0.930 . S
C279 C277 1.395 . S
C279 C282 1.403 . S
C280 C277 1.403 . S
C280 C281 1.524 . S
C280 C284 1.400 . S
C281 H266 0.960 . S
C281 H267 0.960 . S
C281 H268 0.960 . S
C281 C280 1.524 . S
C282 C279 1.403 . S
C282 C283 1.392 . S
C282 C286 1.495 . S
C283 C282 1.392 . S
C283 C284 1.385 . S
C283 C285 1.478 . S
C284 H278 0.930 . S
C284 C280 1.400 . S
C284 C283 1.385 . S
C285 C283 1.478 . S
C285 C287 1.381 . S
C285 C291 1.383 . S
C286 C282 1.495 . S
C286 H292 0.959 . S
C286 H293 0.961 . S
C286 H294 0.960 . S
C287 C285 1.381 . S
C287 C288 1.394 . S
C287 H295 0.930 . S
C288 C287 1.394 . S
C288 C289 1.383 . S
C288 H296 0.929 . S
C289 C288 1.383 . S
C289 C290 1.377 . S
C290 H274 0.930 . S
C290 C289 1.377 . S
C290 C291 1.379 . S
C291 H275 0.931 . S
C291 C285 1.383 . S
C291 C290 1.379 . S
H292 C286 0.959 . S
H293 C286 0.961 . S
H294 C286 0.960 . S
H295 C287 0.930 . S
H296 C288 0.929 . S
H297 C305 0.929 . S
H298 C307 0.930 . S
H299 C309 0.930 . S
H300 C312 0.929 . S
H301 C315 0.930 . S
H302 C317 0.960 . S
H303 C317 0.960 . S
H304 C317 0.960 . S
C305 H297 0.929 . S
C305 C306 1.377 . S
C305 C307 1.384 . S
C306 C305 1.377 . S
C306 C312 1.390 . S
C307 H298 0.930 . S
C307 C305 1.384 . S
C307 C308 1.372 . S
C308 C307 1.372 . S
C308 C309 1.400 . S
C308 C313 1.490 . S
C309 H299 0.930 . S
C309 C308 1.400 . S
C309 C312 1.386 . S
H310 C326 0.930 . S
H311 C327 0.931 . S
C312 H300 0.929 . S
C312 C306 1.390 . S
C312 C309 1.386 . S
C313 C308 1.490 . S
C313 C315 1.395 . S
C313 C316 1.403 . S
H314 C320 0.930 . S
C315 H301 0.930 . S
C315 C313 1.395 . S
C315 C318 1.403 . S
C316 C313 1.403 . S
C316 C317 1.524 . S
C316 C320 1.400 . S
C317 H302 0.960 . S
C317 H303 0.960 . S
C317 H304 0.960 . S
C317 C316 1.524 . S
C318 C315 1.403 . S
C318 C319 1.392 . S
C318 C322 1.495 . S
C319 C318 1.392 . S
C319 C320 1.385 . S
C319 C321 1.478 . S
C320 H314 0.930 . S
C320 C316 1.400 . S
C320 C319 1.385 . S
C321 C319 1.478 . S
C321 C323 1.381 . S
C321 C327 1.383 . S
C322 C318 1.495 . S
C322 H328 0.959 . S
C322 H329 0.961 . S
C322 H330 0.960 . S
C323 C321 1.381 . S
C323 C324 1.394 . S
C323 H331 0.930 . S
C324 C323 1.394 . S
C324 C325 1.383 . S
C324 H332 0.929 . S
C325 C324 1.383 . S
C325 C326 1.377 . S
C326 H310 0.930 . S
C326 C325 1.377 . S
C326 C327 1.379 . S
C327 H311 0.931 . S
C327 C321 1.383 . S
C327 C326 1.379 . S
H328 C322 0.959 . S
H329 C322 0.961 . S
H330 C322 0.960 . S
H331 C323 0.930 . S
H332 C324 0.929 . S
H333 C341 0.929 . S
H334 C343 0.930 . S
H335 C345 0.930 . S
H336 C348 0.929 . S
H337 C351 0.930 . S
H338 C353 0.960 . S
H339 C353 0.960 . S
H340 C353 0.960 . S
C341 H333 0.929 . S
C341 C342 1.377 . S
C341 C343 1.384 . S
C342 C341 1.377 . S
C342 C348 1.390 . S
C343 H334 0.930 . S
C343 C341 1.384 . S
C343 C344 1.372 . S
C344 C343 1.372 . S
C344 C345 1.400 . S
C344 C349 1.490 . S
C345 H335 0.930 . S
C345 C344 1.400 . S
C345 C348 1.386 . S
H346 C362 0.930 . S
H347 C363 0.931 . S
C348 H336 0.929 . S
C348 C342 1.390 . S
C348 C345 1.386 . S
C349 C344 1.490 . S
C349 C351 1.395 . S
C349 C352 1.403 . S
H350 C356 0.930 . S
C351 H337 0.930 . S
C351 C349 1.395 . S
C351 C354 1.403 . S
C352 C349 1.403 . S
C352 C353 1.524 . S
C352 C356 1.400 . S
C353 H338 0.960 . S
C353 H339 0.960 . S
C353 H340 0.960 . S
C353 C352 1.524 . S
C354 C351 1.403 . S
C354 C355 1.392 . S
C354 C358 1.495 . S
C355 C354 1.392 . S
C355 C356 1.385 . S
C355 C357 1.478 . S
C356 H350 0.930 . S
C356 C352 1.400 . S
C356 C355 1.385 . S
C357 C355 1.478 . S
C357 C359 1.381 . S
C357 C363 1.383 . S
C358 C354 1.495 . S
C358 H364 0.959 . S
C358 H365 0.961 . S
C358 H366 0.960 . S
C359 C357 1.381 . S
C359 C360 1.394 . S
C359 H367 0.930 . S
C360 C359 1.394 . S
C360 C361 1.383 . S
C360 H368 0.929 . S
C361 C360 1.383 . S
C361 C362 1.377 . S
C362 H346 0.930 . S
C362 C361 1.377 . S
C362 C363 1.379 . S
C363 H347 0.931 . S
C363 C357 1.383 . S
C363 C362 1.379 . S
H364 C358 0.959 . S
H365 C358 0.961 . S
H366 C358 0.960 . S
H367 C359 0.930 . S
H368 C360 0.929 . S
H369 C377 0.929 . S
H370 C379 0.930 . S
H371 C381 0.930 . S
H372 C384 0.929 . S
H373 C387 0.930 . S
H374 C389 0.960 . S
H375 C389 0.960 . S
H376 C389 0.960 . S
C377 H369 0.929 . S
C377 C378 1.377 . S
C377 C379 1.384 . S
C378 C377 1.377 . S
C378 C384 1.390 . S
C379 H370 0.930 . S
C379 C377 1.384 . S
C379 C380 1.372 . S
C380 C379 1.372 . S
C380 C381 1.400 . S
C380 C385 1.490 . S
C381 H371 0.930 . S
C381 C380 1.400 . S
C381 C384 1.386 . S
H382 C398 0.930 . S
H383 C399 0.931 . S
C384 H372 0.929 . S
C384 C378 1.390 . S
C384 C381 1.386 . S
C385 C380 1.490 . S
C385 C387 1.395 . S
C385 C388 1.403 . S
H386 C392 0.930 . S
C387 H373 0.930 . S
C387 C385 1.395 . S
C387 C390 1.403 . S
C388 C385 1.403 . S
C388 C389 1.524 . S
C388 C392 1.400 . S
C389 H374 0.960 . S
C389 H375 0.960 . S
C389 H376 0.960 . S
C389 C388 1.524 . S
C390 C387 1.403 . S
C390 C391 1.392 . S
C390 C394 1.495 . S
C391 C390 1.392 . S
C391 C392 1.385 . S
C391 C393 1.478 . S
C392 H386 0.930 . S
C392 C388 1.400 . S
C392 C391 1.385 . S
C393 C391 1.478 . S
C393 C395 1.381 . S
C393 C399 1.383 . S
C394 C390 1.495 . S
C394 H400 0.959 . S
C394 H401 0.961 . S
C394 H402 0.960 . S
C395 C393 1.381 . S
C395 C396 1.394 . S
C395 H403 0.930 . S
C396 C395 1.394 . S
C396 C397 1.383 . S
C396 H404 0.929 . S
C397 C396 1.383 . S
C397 C398 1.377 . S
C398 H382 0.930 . S
C398 C397 1.377 . S
C398 C399 1.379 . S
C399 H383 0.931 . S
C399 C393 1.383 . S
C399 C398 1.379 . S
H400 C394 0.959 . S
H401 C394 0.961 . S
H402 C394 0.960 . S
H403 C395 0.930 . S
H404 C396 0.929 . S
H405 C413 0.929 . S
H406 C415 0.930 . S
H407 C417 0.930 . S
H408 C420 0.929 . S
H409 C423 0.930 . S
H410 C425 0.960 . S
H411 C425 0.960 . S
H412 C425 0.960 . S
C413 H405 0.929 . S
C413 C414 1.377 . S
C413 C415 1.384 . S
C414 C413 1.377 . S
C414 C420 1.390 . S
C415 H406 0.930 . S
C415 C413 1.384 . S
C415 C416 1.372 . S
C416 C415 1.372 . S
C416 C417 1.400 . S
C416 C421 1.490 . S
C417 H407 0.930 . S
C417 C416 1.400 . S
C417 C420 1.386 . S
H418 C434 0.930 . S
H419 C435 0.931 . S
C420 H408 0.929 . S
C420 C414 1.390 . S
C420 C417 1.386 . S
C421 C416 1.490 . S
C421 C423 1.395 . S
C421 C424 1.403 . S
H422 C428 0.930 . S
C423 H409 0.930 . S
C423 C421 1.395 . S
C423 C426 1.403 . S
C424 C421 1.403 . S
C424 C425 1.524 . S
C424 C428 1.400 . S
C425 H410 0.960 . S
C425 H411 0.960 . S
C425 H412 0.960 . S
C425 C424 1.524 . S
C426 C423 1.403 . S
C426 C427 1.392 . S
C426 C430 1.495 . S
C427 C426 1.392 . S
C427 C428 1.385 . S
C427 C429 1.478 . S
C428 H422 0.930 . S
C428 C424 1.400 . S
C428 C427 1.385 . S
C429 C427 1.478 . S
C429 C431 1.381 . S
C429 C435 1.383 . S
C430 C426 1.495 . S
C430 H436 0.959 . S
C430 H437 0.961 . S
C430 H438 0.960 . S
C431 C429 1.381 . S
C431 C432 1.394 . S
C431 H439 0.930 . S
C432 C431 1.394 . S
C432 C433 1.383 . S
C432 H440 0.929 . S
C433 C432 1.383 . S
C433 C434 1.377 . S
C434 H418 0.930 . S
C434 C433 1.377 . S
C434 C435 1.379 . S
C435 H419 0.931 . S
C435 C429 1.383 . S
C435 C434 1.379 . S
H436 C430 0.959 . S
H437 C430 0.961 . S
H438 C430 0.960 . S
H439 C431 0.930 . S
H440 C432 0.929 . S
H441 C449 0.929 . S
H442 C451 0.930 . S
H443 C453 0.930 . S
H444 C456 0.929 . S
H445 C459 0.930 . S
H446 C461 0.960 . S
H447 C461 0.960 . S
H448 C461 0.960 . S
C449 H441 0.929 . S
C449 C450 1.377 . S
C449 C451 1.384 . S
C450 C449 1.377 . S
C450 C456 1.390 . S
C451 H442 0.930 . S
C451 C449 1.384 . S
C451 C452 1.372 . S
C452 C451 1.372 . S
C452 C453 1.400 . S
C452 C457 1.490 . S
C453 H443 0.930 . S
C453 C452 1.400 . S
C453 C456 1.386 . S
H454 C470 0.930 . S
H455 C471 0.931 . S
C456 H444 0.929 . S
C456 C450 1.390 . S
C456 C453 1.386 . S
C457 C452 1.490 . S
C457 C459 1.395 . S
C457 C460 1.403 . S
H458 C464 0.930 . S
C459 H445 0.930 . S
C459 C457 1.395 . S
C459 C462 1.403 . S
C460 C457 1.403 . S
C460 C461 1.524 . S
C460 C464 1.400 . S
C461 H446 0.960 . S
C461 H447 0.960 . S
C461 H448 0.960 . S
C461 C460 1.524 . S
C462 C459 1.403 . S
C462 C463 1.392 . S
C462 C466 1.495 . S
C463 C462 1.392 . S
C463 C464 1.385 . S
C463 C465 1.478 . S
C464 H458 0.930 . S
C464 C460 1.400 . S
C464 C463 1.385 . S
C465 C463 1.478 . S
C465 C467 1.381 . S
C465 C471 1.383 . S
C466 C462 1.495 . S
C466 H472 0.959 . S
C466 H473 0.961 . S
C466 H474 0.960 . S
C467 C465 1.381 . S
C467 C468 1.394 . S
C467 H475 0.930 . S
C468 C467 1.394 . S
C468 C469 1.383 . S
C468 H476 0.929 . S
C469 C468 1.383 . S
C469 C470 1.377 . S
C470 H454 0.930 . S
C470 C469 1.377 . S
C470 C471 1.379 . S
C471 H455 0.931 . S
C471 C465 1.383 . S
C471 C470 1.379 . S
H472 C466 0.959 . S
H473 C466 0.961 . S
H474 C466 0.960 . S
H475 C467 0.930 . S
H476 C468 0.929 . S
H477 C485 0.929 . S
H478 C487 0.930 . S
H479 C489 0.930 . S
H480 C492 0.929 . S
H481 C495 0.930 . S
H482 C497 0.960 . S
H483 C497 0.960 . S
H484 C497 0.960 . S
C485 H477 0.929 . S
C485 C486 1.377 . S
C485 C487 1.384 . S
C486 C485 1.377 . S
C486 C492 1.390 . S
C487 H478 0.930 . S
C487 C485 1.384 . S
C487 C488 1.372 . S
C488 C487 1.372 . S
C488 C489 1.400 . S
C488 C493 1.490 . S
C489 H479 0.930 . S
C489 C488 1.400 . S
C489 C492 1.386 . S
H490 C506 0.930 . S
H491 C507 0.931 . S
C492 H480 0.929 . S
C492 C486 1.390 . S
C492 C489 1.386 . S
C493 C488 1.490 . S
C493 C495 1.395 . S
C493 C496 1.403 . S
H494 C500 0.930 . S
C495 H481 0.930 . S
C495 C493 1.395 . S
C495 C498 1.403 . S
C496 C493 1.403 . S
C496 C497 1.524 . S
C496 C500 1.400 . S
C497 H482 0.960 . S
C497 H483 0.960 . S
C497 H484 0.960 . S
C497 C496 1.524 . S
C498 C495 1.403 . S
C498 C499 1.392 . S
C498 C502 1.495 . S
C499 C498 1.392 . S
C499 C500 1.385 . S
C499 C501 1.478 . S
C500 H494 0.930 . S
C500 C496 1.400 . S
C500 C499 1.385 . S
C501 C499 1.478 . S
C501 C503 1.381 . S
C501 C507 1.383 . S
C502 C498 1.495 . S
C502 H508 0.959 . S
C502 H509 0.961 . S
C502 H510 0.960 . S
C503 C501 1.381 . S
C503 C504 1.394 . S
C503 H511 0.930 . S
C504 C503 1.394 . S
C504 C505 1.383 . S
C504 H512 0.929 . S
C505 C504 1.383 . S
C505 C506 1.377 . S
C506 H490 0.930 . S
C506 C505 1.377 . S
C506 C507 1.379 . S
C507 H491 0.931 . S
C507 C501 1.383 . S
C507 C506 1.379 . S
H508 C502 0.959 . S
H509 C502 0.961 . S
H510 C502 0.960 . S
H511 C503 0.930 . S
H512 C504 0.929 . S
H513 C521 0.929 . S
H514 C523 0.930 . S
H515 C525 0.930 . S
H516 C528 0.929 . S
H517 C531 0.930 . S
H518 C533 0.960 . S
H519 C533 0.960 . S
H520 C533 0.960 . S
C521 H513 0.929 . S
C521 C522 1.377 . S
C521 C523 1.384 . S
C522 C521 1.377 . S
C522 C528 1.390 . S
C523 H514 0.930 . S
C523 C521 1.384 . S
C523 C524 1.372 . S
C524 C523 1.372 . S
C524 C525 1.400 . S
C524 C529 1.490 . S
C525 H515 0.930 . S
C525 C524 1.400 . S
C525 C528 1.386 . S
H526 C542 0.930 . S
H527 C543 0.931 1_545 S
C528 H516 0.929 . S
C528 C522 1.390 . S
C528 C525 1.386 . S
C529 C524 1.490 . S
C529 C531 1.395 . S
C529 C532 1.403 . S
H530 C536 0.930 . S
C531 H517 0.930 . S
C531 C529 1.395 . S
C531 C534 1.403 . S
C532 C529 1.403 . S
C532 C533 1.524 . S
C532 C536 1.400 . S
C533 H518 0.960 . S
C533 H519 0.960 . S
C533 H520 0.960 . S
C533 C532 1.524 . S
C534 C531 1.403 . S
C534 C535 1.392 . S
C534 C538 1.495 . S
C535 C534 1.392 . S
C535 C536 1.385 . S
C535 C537 1.478 . S
C536 H530 0.930 . S
C536 C532 1.400 . S
C536 C535 1.385 . S
C537 C535 1.478 . S
C537 C539 1.381 . S
C537 C543 1.383 . S
C538 C534 1.495 . S
C538 H544 0.959 . S
C538 H545 0.961 . S
C538 H546 0.960 . S
C539 C537 1.381 . S
C539 C540 1.394 . S
C539 H547 0.930 . S
C540 C539 1.394 . S
C540 C541 1.383 . S
C540 H548 0.929 . S
C541 C540 1.383 . S
C541 C542 1.377 1_565 S
C542 H526 0.930 . S
C542 C541 1.377 1_545 S
C542 C543 1.379 1_545 S
C543 H527 0.931 1_565 S
C543 C537 1.383 . S
C543 C542 1.379 1_565 S
H544 C538 0.959 . S
H545 C538 0.961 . S
H546 C538 0.960 . S
H547 C539 0.930 . S
H548 C540 0.929 . S
H549 C557 0.929 . S
H550 C559 0.930 . S
H551 C561 0.930 . S
H552 C564 0.929 . S
H553 C567 0.930 . S
H554 C569 0.960 . S
H555 C569 0.960 . S
H556 C569 0.960 . S
C557 H549 0.929 . S
C557 C558 1.377 . S
C557 C559 1.384 . S
C558 C557 1.377 . S
C558 C564 1.390 . S
C559 H550 0.930 . S
C559 C557 1.384 . S
C559 C560 1.372 . S
C560 C559 1.372 . S
C560 C561 1.400 . S
C560 C565 1.490 . S
C561 H551 0.930 . S
C561 C560 1.400 . S
C561 C564 1.386 . S
H562 C578 0.930 . S
H563 C579 0.931 . S
C564 H552 0.929 . S
C564 C558 1.390 . S
C564 C561 1.386 . S
C565 C560 1.490 . S
C565 C567 1.395 . S
C565 C568 1.403 . S
H566 C572 0.930 . S
C567 H553 0.930 . S
C567 C565 1.395 . S
C567 C570 1.403 . S
C568 C565 1.403 . S
C568 C569 1.524 . S
C568 C572 1.400 . S
C569 H554 0.960 . S
C569 H555 0.960 . S
C569 H556 0.960 . S
C569 C568 1.524 . S
C570 C567 1.403 . S
C570 C571 1.392 . S
C570 C574 1.495 . S
C571 C570 1.392 . S
C571 C572 1.385 . S
C571 C573 1.478 . S
C572 H566 0.930 . S
C572 C568 1.400 . S
C572 C571 1.385 . S
C573 C571 1.478 . S
C573 C575 1.381 . S
C573 C579 1.383 . S
C574 C570 1.495 . S
C574 H580 0.959 . S
C574 H581 0.961 . S
C574 H582 0.960 . S
C575 C573 1.381 . S
C575 C576 1.394 . S
C575 H583 0.930 . S
C576 C575 1.394 . S
C576 C577 1.383 . S
C576 H584 0.929 . S
C577 C576 1.383 . S
C577 C578 1.377 . S
C578 H562 0.930 . S
C578 C577 1.377 . S
C578 C579 1.379 . S
C579 H563 0.931 . S
C579 C573 1.383 . S
C579 C578 1.379 . S
H580 C574 0.959 . S
H581 C574 0.961 . S
H582 C574 0.960 . S
H583 C575 0.930 . S
H584 C576 0.929 . S
H585 C593 0.929 . S
H586 C595 0.930 . S
H587 C597 0.930 . S
H588 C600 0.929 . S
H589 C603 0.930 . S
H590 C605 0.960 . S
H591 C605 0.960 . S
H592 C605 0.960 1_455 S
C593 H585 0.929 . S
C593 C594 1.377 1_655 S
C593 C595 1.384 . S
C594 C593 1.377 1_455 S
C594 C600 1.390 . S
C595 H586 0.930 . S
C595 C593 1.384 . S
C595 C596 1.372 . S
C596 C595 1.372 . S
C596 C597 1.400 1_655 S
C596 C601 1.490 . S
C597 H587 0.930 . S
C597 C596 1.400 1_455 S
C597 C600 1.386 . S
H598 C614 0.930 . S
H599 C615 0.931 . S
C600 H588 0.929 . S
C600 C594 1.390 . S
C600 C597 1.386 . S
C601 C596 1.490 . S
C601 C603 1.395 . S
C601 C604 1.403 . S
H602 C608 0.930 . S
C603 H589 0.930 . S
C603 C601 1.395 . S
C603 C606 1.403 . S
C604 C601 1.403 . S
C604 C605 1.524 . S
C604 C608 1.400 . S
C605 H590 0.960 . S
C605 H591 0.960 . S
C605 H592 0.960 1_655 S
C605 C604 1.524 . S
C606 C603 1.403 . S
C606 C607 1.392 . S
C606 C610 1.495 . S
C607 C606 1.392 . S
C607 C608 1.385 . S
C607 C609 1.478 . S
C608 H602 0.930 . S
C608 C604 1.400 . S
C608 C607 1.385 . S
C609 C607 1.478 . S
C609 C611 1.381 . S
C609 C615 1.383 . S
C610 C606 1.495 . S
C610 H616 0.959 . S
C610 H617 0.961 . S
C610 H618 0.960 . S
C611 C609 1.381 . S
C611 C612 1.394 . S
C611 H619 0.930 . S
C612 C611 1.394 . S
C612 C613 1.383 . S
C612 H620 0.929 . S
C613 C612 1.383 . S
C613 C614 1.377 . S
C614 H598 0.930 . S
C614 C613 1.377 . S
C614 C615 1.379 . S
C615 H599 0.931 . S
C615 C609 1.383 . S
C615 C614 1.379 . S
H616 C610 0.959 . S
H617 C610 0.961 . S
H618 C610 0.960 . S
H619 C611 0.930 . S
H620 C612 0.929 . S
H621 C629 0.929 . S
H622 C631 0.930 . S
H623 C633 0.930 . S
H624 C636 0.929 . S
H625 C639 0.930 . S
H626 C641 0.960 . S
H627 C641 0.960 . S
H628 C641 0.960 . S
C629 H621 0.929 . S
C629 C630 1.377 . S
C629 C631 1.384 . S
C630 C629 1.377 . S
C630 C636 1.390 . S
C631 H622 0.930 . S
C631 C629 1.384 . S
C631 C632 1.372 . S
C632 C631 1.372 . S
C632 C633 1.400 . S
C632 C637 1.490 . S
C633 H623 0.930 . S
C633 C632 1.400 . S
C633 C636 1.386 . S
H634 C650 0.930 . S
H635 C651 0.931 . S
C636 H624 0.929 . S
C636 C630 1.390 . S
C636 C633 1.386 . S
C637 C632 1.490 . S
C637 C639 1.395 . S
C637 C640 1.403 . S
H638 C644 0.930 . S
C639 H625 0.930 . S
C639 C637 1.395 . S
C639 C642 1.403 . S
C640 C637 1.403 . S
C640 C641 1.524 . S
C640 C644 1.400 . S
C641 H626 0.960 . S
C641 H627 0.960 . S
C641 H628 0.960 . S
C641 C640 1.524 . S
C642 C639 1.403 . S
C642 C643 1.392 . S
C642 C646 1.495 . S
C643 C642 1.392 . S
C643 C644 1.385 . S
C643 C645 1.478 . S
C644 H638 0.930 . S
C644 C640 1.400 . S
C644 C643 1.385 . S
C645 C643 1.478 . S
C645 C647 1.381 . S
C645 C651 1.383 . S
C646 C642 1.495 . S
C646 H652 0.959 . S
C646 H653 0.961 . S
C646 H654 0.960 . S
C647 C645 1.381 . S
C647 C648 1.394 . S
C647 H655 0.930 . S
C648 C647 1.394 . S
C648 C649 1.383 . S
C648 H656 0.929 . S
C649 C648 1.383 . S
C649 C650 1.377 . S
C650 H634 0.930 . S
C650 C649 1.377 . S
C650 C651 1.379 . S
C651 H635 0.931 . S
C651 C645 1.383 . S
C651 C650 1.379 . S
H652 C646 0.959 . S
H653 C646 0.961 . S
H654 C646 0.960 . S
H655 C647 0.930 . S
H656 C648 0.929 . S
H657 C665 0.929 . S
H658 C667 0.930 . S
H659 C669 0.930 . S
H660 C672 0.929 . S
H661 C675 0.930 . S
H662 C677 0.960 1_655 S
H663 C677 0.960 . S
H664 C677 0.960 . S
C665 H657 0.929 . S
C665 C666 1.377 . S
C665 C667 1.384 . S
C666 C665 1.377 . S
C666 C672 1.390 . S
C667 H658 0.930 . S
C667 C665 1.384 . S
C667 C668 1.372 . S
C668 C667 1.372 . S
C668 C669 1.400 . S
C668 C673 1.490 . S
C669 H659 0.930 . S
C669 C668 1.400 . S
C669 C672 1.386 . S
H670 C686 0.930 . S
H671 C687 0.931 . S
C672 H660 0.929 . S
C672 C666 1.390 . S
C672 C669 1.386 . S
C673 C668 1.490 . S
C673 C675 1.395 . S
C673 C676 1.403 . S
H674 C680 0.930 1_655 S
C675 H661 0.930 . S
C675 C673 1.395 . S
C675 C678 1.403 . S
C676 C673 1.403 . S
C676 C677 1.524 . S
C676 C680 1.400 . S
C677 H662 0.960 1_455 S
C677 H663 0.960 . S
C677 H664 0.960 . S
C677 C676 1.524 . S
C678 C675 1.403 . S
C678 C679 1.392 . S
C678 C682 1.495 . S
C679 C678 1.392 . S
C679 C680 1.385 . S
C679 C681 1.478 1_455 S
C680 H674 0.930 1_455 S
C680 C676 1.400 . S
C680 C679 1.385 . S
C681 C679 1.478 1_655 S
C681 C683 1.381 1_655 S
C681 C687 1.383 . S
C682 C678 1.495 . S
C682 H688 0.959 . S
C682 H689 0.961 . S
C682 H690 0.960 . S
C683 C681 1.381 1_455 S
C683 C684 1.381 1_455 S
C683 H691 0.944 . S
C684 C683 1.381 1_655 S
C684 C685 1.383 . S
C684 H692 0.929 . S
C685 C684 1.383 . S
C685 C686 1.377 . S
C686 H670 0.930 . S
C686 C685 1.377 . S
C686 C687 1.379 . S
C687 H671 0.931 . S
C687 C681 1.383 . S
C687 C686 1.379 . S
H688 C682 0.959 . S
H689 C682 0.961 . S
H690 C682 0.960 . S
H691 C683 0.944 . S
H692 C684 0.929 . S
H693 C701 0.929 . S
H694 C703 0.930 . S
H695 C705 0.930 . S
H696 C708 0.929 . S
H697 C711 0.930 . S
H698 C713 0.960 . S
H699 C713 0.960 . S
H700 C713 0.960 . S
C701 H693 0.929 . S
C701 C702 1.377 . S
C701 C703 1.384 . S
C702 C701 1.377 . S
C702 C708 1.390 . S
C703 H694 0.930 . S
C703 C701 1.384 . S
C703 C704 1.372 . S
C704 C703 1.372 . S
C704 C705 1.400 . S
C704 C709 1.490 . S
C705 H695 0.930 . S
C705 C704 1.400 . S
C705 C708 1.386 . S
H706 C722 0.930 . S
H707 C723 0.931 . S
C708 H696 0.929 . S
C708 C702 1.390 . S
C708 C705 1.386 . S
C709 C704 1.490 . S
C709 C711 1.395 . S
C709 C712 1.403 . S
H710 C716 0.930 . S
C711 H697 0.930 . S
C711 C709 1.395 . S
C711 C714 1.403 . S
C712 C709 1.403 . S
C712 C713 1.524 . S
C712 C716 1.400 . S
C713 H698 0.960 . S
C713 H699 0.960 . S
C713 H700 0.960 . S
C713 C712 1.524 . S
C714 C711 1.403 . S
C714 C715 1.392 . S
C714 C718 1.495 . S
C715 C714 1.392 . S
C715 C716 1.385 . S
C715 C717 1.478 . S
C716 H710 0.930 . S
C716 C712 1.400 . S
C716 C715 1.385 . S
C717 C715 1.478 . S
C717 C719 1.381 . S
C717 C723 1.383 . S
C718 C714 1.495 . S
C718 H724 0.959 . S
C718 H725 0.961 . S
C718 H726 0.960 . S
C719 C717 1.381 . S
C719 C720 1.394 . S
C719 H727 0.930 . S
C720 C719 1.394 . S
C720 C721 1.383 . S
C720 H728 0.929 . S
C721 C720 1.383 . S
C721 C722 1.377 . S
C722 H706 0.930 . S
C722 C721 1.377 . S
C722 C723 1.379 . S
C723 H707 0.931 . S
C723 C717 1.383 . S
C723 C722 1.379 . S
H724 C718 0.959 . S
H725 C718 0.961 . S
H726 C718 0.960 . S
H727 C719 0.930 . S
H728 C720 0.929 . S
H729 C737 0.929 . S
H730 C739 0.930 . S
H731 C741 0.930 . S
H732 C744 0.929 . S
H733 C747 0.930 . S
H734 C749 0.960 . S
H735 C749 0.960 . S
H736 C749 0.960 . S
C737 H729 0.929 . S
C737 C738 1.377 . S
C737 C739 1.384 . S
C738 C737 1.377 . S
C738 C744 1.390 . S
C739 H730 0.930 . S
C739 C737 1.384 . S
C739 C740 1.372 . S
C740 C739 1.372 . S
C740 C741 1.400 . S
C740 C745 1.490 . S
C741 H731 0.930 . S
C741 C740 1.400 . S
C741 C744 1.386 . S
H742 C758 0.930 . S
H743 C759 0.931 . S
C744 H732 0.929 . S
C744 C738 1.390 . S
C744 C741 1.386 . S
C745 C740 1.490 . S
C745 C747 1.395 1_565 S
C745 C748 1.403 . S
H746 C752 0.930 1_565 S
C747 H733 0.930 . S
C747 C745 1.395 1_545 S
C747 C750 1.403 . S
C748 C745 1.403 . S
C748 C749 1.524 . S
C748 C752 1.400 1_565 S
C749 H734 0.960 . S
C749 H735 0.960 . S
C749 H736 0.960 . S
C749 C748 1.524 . S
C750 C747 1.403 . S
C750 C751 1.392 . S
C750 C754 1.495 . S
C751 C750 1.392 . S
C751 C752 1.385 . S
C751 C753 1.478 . S
C752 H746 0.930 1_545 S
C752 C748 1.400 1_545 S
C752 C751 1.385 . S
C753 C751 1.478 . S
C753 C755 1.381 . S
C753 C759 1.383 . S
C754 C750 1.495 . S
C754 H760 0.959 . S
C754 H761 0.961 . S
C754 H762 0.960 . S
C755 C753 1.381 . S
C755 C756 1.394 . S
C755 H763 0.930 . S
C756 C755 1.394 . S
C756 C757 1.383 . S
C756 H764 0.929 . S
C757 C756 1.383 . S
C757 C758 1.377 . S
C758 H742 0.930 . S
C758 C757 1.377 . S
C758 C759 1.379 . S
C759 H743 0.931 . S
C759 C753 1.383 . S
C759 C758 1.379 . S
H760 C754 0.959 . S
H761 C754 0.961 . S
H762 C754 0.960 . S
H763 C755 0.930 . S
H764 C756 0.929 . S
C126 C31 0.771 . S
C145 C10 0.811 . S
C162 C18 0.782 . S
C181 C5 0.857 . S
C198 C23 0.779 . S
C217 C36 0.757 . S
C234 C75 0.762 . S
C253 C49 0.730 . S
C270 C57 0.768 . S
C289 C44 0.716 . S
C306 C62 0.795 . S
C325 C70 0.712 . S
C342 C88 0.769 . S
C361 C109 0.804 . S
C378 C83 0.720 . S
C397 C96 0.750 . S
C414 C101 0.762 . S
C433 C114 0.732 . S
C450 C0 1.246 . S
C469 C91 1.247 . S
C486 C21 1.250 . S
C505 C112 1.253 . S
C522 C86 1.176 . S
C541 C26 1.205 . S
C558 C60 1.193 . S
C577 C34 1.163 . S
C594 C8 1.230 . S
C613 C73 1.217 . S
C630 C39 1.244 . S
C649 C13 1.217 . S
C666 C99 1.204 . S
C685 C65 1.229 . S
C702 C47 1.250 . S
C721 C104 1.225 . S
C738 C78 1.261 . S
C757 C52 1.250 . S
