# Generated by pormake.
# Topology upb, (4)-cn, num edge types: 1
# Building blocks:
#     Node 0, Type 0, BuildingBlock: UXUYUI_clean_sbu_0, # of connection points: 4
#     Node 1, Type 0, BuildingBlock: UXUYUI_clean_sbu_0, # of connection points: 4
#     Node 2, Type 0, BuildingBlock: UXUYUI_clean_sbu_0, # of connection points: 4
#     Node 3, Type 0, BuildingBlock: UXUYUI_clean_sbu_0, # of connection points: 4
#     Node 4, Type 0, BuildingBlock: UXUYUI_clean_sbu_0, # of connection points: 4
#     Node 5, Type 0, BuildingBlock: UXUYUI_clean_sbu_0, # of connection points: 4
#     Node 6, Type 0, BuildingBlock: UXUYUI_clean_sbu_0, # of connection points: 4
#     Node 7, Type 0, BuildingBlock: UXUYUI_clean_sbu_0, # of connection points: 4
#     Node 8, Type 0, BuildingBlock: UXUYUI_clean_sbu_0, # of connection points: 4
#     Node 9, Type 0, BuildingBlock: UXUYUI_clean_sbu_0, # of connection points: 4
#     Node 10, Type 0, BuildingBlock: UXUYUI_clean_sbu_0, # of connection points: 4
#     Node 11, Type 0, BuildingBlock: UXUYUI_clean_sbu_0, # of connection points: 4
#     Node 12, Type 0, BuildingBlock: UXUYUI_clean_sbu_0, # of connection points: 4
#     Node 13, Type 0, BuildingBlock: UXUYUI_clean_sbu_0, # of connection points: 4
#     Node 14, Type 0, BuildingBlock: UXUYUI_clean_sbu_0, # of connection points: 4
#     Node 15, Type 0, BuildingBlock: UXUYUI_clean_sbu_0, # of connection points: 4
#     Edge 16, Type (0, 0), BuildingBlock: CIFDUS_clean_linker_0, # of connection points: 2
#     Edge 17, Type (0, 0), BuildingBlock: CIFDUS_clean_linker_0, # of connection points: 2
#     Edge 18, Type (0, 0), BuildingBlock: CIFDUS_clean_linker_0, # of connection points: 2
#     Edge 19, Type (0, 0), BuildingBlock: CIFDUS_clean_linker_0, # of connection points: 2
#     Edge 20, Type (0, 0), BuildingBlock: CIFDUS_clean_linker_0, # of connection points: 2
#     Edge 21, Type (0, 0), BuildingBlock: CIFDUS_clean_linker_0, # of connection points: 2
#     Edge 22, Type (0, 0), BuildingBlock: CIFDUS_clean_linker_0, # of connection points: 2
#     Edge 23, Type (0, 0), BuildingBlock: CIFDUS_clean_linker_0, # of connection points: 2
#     Edge 24, Type (0, 0), BuildingBlock: CIFDUS_clean_linker_0, # of connection points: 2
#     Edge 25, Type (0, 0), BuildingBlock: CIFDUS_clean_linker_0, # of connection points: 2
#     Edge 26, Type (0, 0), BuildingBlock: CIFDUS_clean_linker_0, # of connection points: 2
#     Edge 27, Type (0, 0), BuildingBlock: CIFDUS_clean_linker_0, # of connection points: 2
#     Edge 28, Type (0, 0), BuildingBlock: CIFDUS_clean_linker_0, # of connection points: 2
#     Edge 29, Type (0, 0), BuildingBlock: CIFDUS_clean_linker_0, # of connection points: 2
#     Edge 30, Type (0, 0), BuildingBlock: CIFDUS_clean_linker_0, # of connection points: 2
#     Edge 31, Type (0, 0), BuildingBlock: CIFDUS_clean_linker_0, # of connection points: 2
#     Edge 32, Type (0, 0), BuildingBlock: CIFDUS_clean_linker_0, # of connection points: 2
#     Edge 33, Type (0, 0), BuildingBlock: CIFDUS_clean_linker_0, # of connection points: 2
#     Edge 34, Type (0, 0), BuildingBlock: CIFDUS_clean_linker_0, # of connection points: 2
#     Edge 35, Type (0, 0), BuildingBlock: CIFDUS_clean_linker_0, # of connection points: 2
#     Edge 36, Type (0, 0), BuildingBlock: CIFDUS_clean_linker_0, # of connection points: 2
#     Edge 37, Type (0, 0), BuildingBlock: CIFDUS_clean_linker_0, # of connection points: 2
#     Edge 38, Type (0, 0), BuildingBlock: CIFDUS_clean_linker_0, # of connection points: 2
#     Edge 39, Type (0, 0), BuildingBlock: CIFDUS_clean_linker_0, # of connection points: 2
#     Edge 40, Type (0, 0), BuildingBlock: CIFDUS_clean_linker_0, # of connection points: 2
#     Edge 41, Type (0, 0), BuildingBlock: CIFDUS_clean_linker_0, # of connection points: 2
#     Edge 42, Type (0, 0), BuildingBlock: CIFDUS_clean_linker_0, # of connection points: 2
#     Edge 43, Type (0, 0), BuildingBlock: CIFDUS_clean_linker_0, # of connection points: 2
#     Edge 44, Type (0, 0), BuildingBlock: CIFDUS_clean_linker_0, # of connection points: 2
#     Edge 45, Type (0, 0), BuildingBlock: CIFDUS_clean_linker_0, # of connection points: 2
#     Edge 46, Type (0, 0), BuildingBlock: CIFDUS_clean_linker_0, # of connection points: 2
#     Edge 47, Type (0, 0), BuildingBlock: CIFDUS_clean_linker_0, # of connection points: 2
# Relax obj value: 0.322
# Max RMSD: 0.141
# Mean RMSD: 0.140
data_MOF--net-upb--node1-UXUYUI_clean_sbu_0--edge1-CIFDUS_clean_linker_0
_symmetry_space_group_name_H-M    P1
_symmetry_Int_Tables_number       1
_symmetry_cell_setting            triclinic
loop_
_symmetry_equiv_pos_as_xyz
'x, y, z'
_cell_length_a     47.330351
_cell_length_b     47.272126
_cell_length_c     66.657412
_cell_angle_alpha  90.020979
_cell_angle_beta   90.006287
_cell_angle_gamma 90.003373
loop_
_atom_site_label
_atom_site_type_symbol
_atom_site_fract_x
_atom_site_fract_y
_atom_site_fract_z
_atom_type_partial_charge
Li0 Li 0.02659 0.28657 0.34581 0.0
Li1 Li 0.99762 0.31333 0.36971 0.0
Li2 Li 0.97559 0.28695 0.3422 0.0
Li3 Li 0.00214 0.33037 0.33621 0.0
C4 C 0.98302 0.2495 0.37086 0.0
N5 N 0.94914 0.20447 0.38183 0.0
C6 C 0.96339 0.25253 0.38638 0.0
C7 C 0.98551 0.22352 0.36099 0.0
C8 C 0.94648 0.2295 0.39172 0.0
C9 C 0.96813 0.20103 0.36671 0.0
C10 C 0.04748 0.33619 0.37167 0.0
C11 C 0.05512 0.37297 0.39618 0.0
N12 N 0.07534 0.3568 0.40505 0.0
C13 C 0.06842 0.31999 0.38098 0.0
C14 C 0.04084 0.36296 0.37926 0.0
C15 C 0.08224 0.33078 0.39785 0.0
C16 C 0.08125 0.27216 0.33075 0.0
N17 N 0.06015 0.26451 0.3435 0.0
C18 C 0.08625 0.22395 0.35412 0.0
C19 C 0.06242 0.24121 0.35532 0.0
C20 C 0.10789 0.23072 0.34055 0.0
C21 C 0.10529 0.2552 0.32879 0.0
H22 H 0.07929 0.29126 0.32195 0.0
H23 H 0.04571 0.23601 0.36572 0.0
C24 C 0.98043 0.34389 0.4051 0.0
N25 N 0.9954 0.3218 0.3975 0.0
C26 C 0.97962 0.34846 0.42584 0.0
C27 C 0.00961 0.30752 0.43029 0.0
C28 C 0.00997 0.30387 0.40958 0.0
C29 C 0.99408 0.32988 0.43869 0.0
H30 H 0.969 0.3578 0.39511 0.0
H31 H 0.02179 0.28657 0.40306 0.0
C32 C 0.02071 0.28351 0.30629 0.0
N33 N 0.05606 0.26216 0.27695 0.0
C34 C 0.03468 0.30184 0.29315 0.0
C35 C 0.02473 0.25431 0.30447 0.0
C36 C 0.05244 0.29063 0.27841 0.0
C37 C 0.0427 0.24394 0.28956 0.0
C38 C 0.95092 0.34732 0.34463 0.0
C39 C 0.92982 0.342 0.33046 0.0
C40 C 0.95646 0.37511 0.35062 0.0
C41 C 0.91468 0.36468 0.3224 0.0
C42 C 0.9409 0.39721 0.34218 0.0
N43 N 0.92051 0.39158 0.32836 0.0
C44 C 0.92073 0.26432 0.34722 0.0
C45 C 0.94712 0.24404 0.32064 0.0
C46 C 0.89994 0.2435 0.34526 0.0
N47 N 0.94413 0.26363 0.3354 0.0
C48 C 0.92704 0.22271 0.31828 0.0
C49 C 0.90352 0.22182 0.33108 0.0
H50 H 0.91903 0.28006 0.35894 0.0
H51 H 0.96576 0.24411 0.31135 0.0
C52 C 0.0268 0.3814 0.32368 0.0
N53 N 0.00566 0.36286 0.31956 0.0
C54 C 0.03292 0.40332 0.31039 0.0
C55 C 0.99469 0.38732 0.28917 0.0
C56 C 0.98935 0.36563 0.30289 0.0
C57 C 0.01724 0.40609 0.29259 0.0
H58 H 0.03985 0.37836 0.33679 0.0
H59 H 0.97301 0.35024 0.29979 0.0
O60 O 0.99914 0.27205 0.36498 0.0
O61 O 0.03315 0.32569 0.35548 0.0
O62 O 0.00327 0.29409 0.32087 0.0
O63 O 0.96619 0.32544 0.3525 0.0
H64 H 0.9609 0.27257 0.39403 0.0
H65 H 0.00038 0.22088 0.3488 0.0
H66 H 0.93109 0.23159 0.40362 0.0
H67 H 0.96965 0.1809 0.35907 0.0
H68 H 0.05003 0.39354 0.40231 0.0
H69 H 0.07376 0.2992 0.37538 0.0
H70 H 0.0245 0.37566 0.37236 0.0
H71 H 0.09839 0.31841 0.40526 0.0
H72 H 0.08749 0.2052 0.36341 0.0
H73 H 0.12173 0.26125 0.31834 0.0
H74 H 0.9673 0.36586 0.43179 0.0
H75 H 0.02137 0.29297 0.43966 0.0
H76 H 0.03203 0.32447 0.29436 0.0
H77 H 0.0146 0.2398 0.31474 0.0
H78 H 0.06341 0.30458 0.26818 0.0
H79 H 0.04617 0.22141 0.2881 0.0
H80 H 0.92534 0.32062 0.32561 0.0
H81 H 0.97287 0.37958 0.36147 0.0
H82 H 0.89835 0.36091 0.31136 0.0
H83 H 0.94508 0.41884 0.34657 0.0
H84 H 0.88217 0.24341 0.3555 0.0
H85 H 0.93033 0.20653 0.30701 0.0
H86 H 0.05085 0.41687 0.31347 0.0
H87 H 0.98198 0.38876 0.2757 0.0
Li88 Li 0.68261 0.99922 0.33435 0.0
Li89 Li 0.72433 0.02534 0.3462 0.0
Li90 Li 0.72254 0.97328 0.34643 0.0
Li91 Li 0.69424 0.00119 0.37008 0.0
C92 C 0.73938 0.98726 0.30992 0.0
N93 N 0.77749 0.96142 0.28445 0.0
C94 C 0.76623 0.99891 0.30713 0.0
C95 C 0.73179 0.96264 0.29963 0.0
C96 C 0.78522 0.98549 0.2942 0.0
C97 C 0.7514 0.94983 0.28687 0.0
C98 C 0.68132 0.06116 0.35017 0.0
C99 C 0.69061 0.10855 0.36188 0.0
N100 N 0.67795 0.11909 0.34515 0.0
C101 C 0.66832 0.07246 0.33313 0.0
C102 C 0.69244 0.07933 0.36472 0.0
C103 C 0.66684 0.1018 0.33087 0.0
C104 C 0.62593 0.00558 0.32142 0.0
N105 N 0.65294 0.00113 0.31526 0.0
C106 C 0.63971 0.00806 0.28106 0.0
C107 C 0.66002 0.00167 0.29552 0.0
C108 C 0.6118 0.01394 0.28697 0.0
C109 C 0.60484 0.01171 0.30743 0.0
H110 H 0.62104 0.00572 0.33725 0.0
H111 H 0.68177 0.9987 0.29109 0.0
C112 C 0.77094 0.06055 0.35418 0.0
N113 N 0.74811 0.05733 0.34203 0.0
C114 C 0.78875 0.08384 0.35193 0.0
C115 C 0.75935 0.10007 0.32459 0.0
C116 C 0.74234 0.07618 0.32717 0.0
C117 C 0.7829 0.10407 0.33708 0.0
H118 H 0.77538 0.04499 0.36561 0.0
H119 H 0.72446 0.07272 0.31739 0.0
C120 C 0.65767 0.95476 0.35029 0.0
N121 N 0.60618 0.93011 0.34168 0.0
C122 C 0.6346 0.95911 0.36301 0.0
C123 C 0.65466 0.9377 0.3333 0.0
C124 C 0.60872 0.94648 0.35837 0.0
C125 C 0.62842 0.9255 0.32917 0.0
C126 C 0.74536 0.99703 0.3868 0.0
C127 C 0.75423 0.97084 0.39422 0.0
C128 C 0.74521 0.02064 0.39944 0.0
C129 C 0.76255 0.96866 0.41427 0.0
C130 C 0.75361 0.01756 0.41941 0.0
N131 N 0.76203 0.99186 0.42635 0.0
C132 C 0.77333 0.94329 0.34143 0.0
C133 C 0.73298 0.91421 0.34588 0.0
C134 C 0.79082 0.91958 0.3405 0.0
N135 N 0.74501 0.94018 0.34395 0.0
C136 C 0.74977 0.8899 0.3454 0.0
C137 C 0.77907 0.8925 0.3427 0.0
H138 H 0.78239 0.96424 0.34051 0.0
H139 H 0.71044 0.91241 0.34819 0.0
C140 C 0.66642 0.02662 0.40298 0.0
N141 N 0.68001 0.0029 0.39671 0.0
C142 C 0.65922 0.02988 0.42315 0.0
C143 C 0.67901 0.98369 0.42981 0.0
C144 C 0.6854 0.98116 0.40946 0.0
C145 C 0.66631 0.00861 0.43702 0.0
H146 H 0.66181 0.04332 0.39243 0.0
H147 H 0.69584 0.96235 0.40396 0.0
O148 O 0.72064 0.99985 0.32272 0.0
O149 O 0.68323 0.03249 0.35258 0.0
O150 O 0.6831 0.96714 0.35447 0.0
O151 O 0.73668 0.9995 0.3673 0.0
H152 H 0.77243 0.01797 0.31497 0.0
H153 H 0.71108 0.95339 0.30164 0.0
H154 H 0.80613 0.99417 0.29196 0.0
H155 H 0.7459 0.93066 0.27891 0.0
H156 H 0.69929 0.12285 0.37295 0.0
H157 H 0.65966 0.05877 0.32168 0.0
H158 H 0.70266 0.07095 0.37796 0.0
H159 H 0.65694 0.11084 0.31772 0.0
H160 H 0.6463 0.01006 0.26558 0.0
H161 H 0.58358 0.01576 0.31269 0.0
H162 H 0.80669 0.08623 0.36188 0.0
H163 H 0.75441 0.11503 0.3128 0.0
H164 H 0.63661 0.97225 0.37623 0.0
H165 H 0.67236 0.93412 0.32334 0.0
H166 H 0.59063 0.94976 0.36801 0.0
H167 H 0.62572 0.91238 0.31601 0.0
H168 H 0.75442 0.95234 0.38468 0.0
H169 H 0.73837 0.04104 0.39394 0.0
H170 H 0.76932 0.9485 0.42025 0.0
H171 H 0.75337 0.0356 0.4294 0.0
H172 H 0.81339 0.92243 0.33875 0.0
H173 H 0.74001 0.86933 0.34719 0.0
H174 H 0.64876 0.04913 0.42787 0.0
H175 H 0.68516 0.96679 0.43986 0.0
Li176 Li 0.97657 0.71467 0.34481 0.0
Li177 Li 0.00459 0.68571 0.36968 0.0
Li178 Li 0.02808 0.71173 0.34325 0.0
Li179 Li 0.00311 0.66977 0.33581 0.0
C180 C 0.01892 0.74812 0.37362 0.0
N181 N 0.05154 0.79101 0.38962 0.0
C182 C 0.04167 0.74168 0.38618 0.0
C183 C 0.0126 0.77635 0.36931 0.0
C184 C 0.05795 0.76367 0.39409 0.0
C185 C 0.02938 0.79773 0.37752 0.0
C186 C 0.95272 0.664 0.36865 0.0
C187 C 0.94159 0.62786 0.39296 0.0
N188 N 0.9183 0.64273 0.39857 0.0
C189 C 0.92851 0.67878 0.37453 0.0
C190 C 0.95917 0.63819 0.37781 0.0
C191 C 0.91144 0.66772 0.38973 0.0
C192 C 0.93019 0.73843 0.32362 0.0
N193 N 0.94452 0.73814 0.3413 0.0
C194 C 0.91447 0.77399 0.35477 0.0
C195 C 0.93698 0.75517 0.35683 0.0
C196 C 0.89988 0.77549 0.33647 0.0
C197 C 0.90782 0.75731 0.32079 0.0
H198 H 0.93655 0.72443 0.3116 0.0
H199 H 0.94869 0.7543 0.37075 0.0
C200 C 0.02733 0.66147 0.40525 0.0
N201 N 0.00574 0.67696 0.39748 0.0
C202 C 0.02914 0.6571 0.42594 0.0
C203 C 0.9862 0.68421 0.4301 0.0
C204 C 0.9855 0.68848 0.40941 0.0
C205 C 0.0084 0.66862 0.4386 0.0
H206 H 0.04351 0.65315 0.39544 0.0
H207 H 0.9691 0.70145 0.40288 0.0
C208 C 0.01261 0.72096 0.30542 0.0
N209 N 0.03736 0.75064 0.27429 0.0
C210 C 0.03812 0.71173 0.29713 0.0
C211 C 0.99966 0.74529 0.29781 0.0
C212 C 0.05032 0.72703 0.28144 0.0
C213 C 0.01251 0.75999 0.28208 0.0
C214 C 0.05054 0.64927 0.34742 0.0
C215 C 0.07203 0.65031 0.33306 0.0
C216 C 0.04245 0.62321 0.35548 0.0
C217 C 0.0848 0.62518 0.32678 0.0
C218 C 0.0557 0.59854 0.34879 0.0
N219 N 0.0764 0.60002 0.33468 0.0
C220 C 0.08591 0.72818 0.34513 0.0
C221 C 0.05502 0.76249 0.33135 0.0
C222 C 0.10842 0.74731 0.34447 0.0
N223 N 0.05982 0.7361 0.33869 0.0
C224 C 0.07687 0.78219 0.33034 0.0
C225 C 0.10391 0.7749 0.3373 0.0
H226 H 0.08897 0.70744 0.35159 0.0
H227 H 0.03391 0.76871 0.32709 0.0
C228 C 0.97813 0.61878 0.32365 0.0
N229 N 0.99937 0.63701 0.31908 0.0
C230 C 0.97149 0.59653 0.31075 0.0
C231 C 0.00948 0.6114 0.28897 0.0
C232 C 0.01539 0.63341 0.30234 0.0
C233 C 0.98675 0.59306 0.29285 0.0
H234 H 0.96543 0.62223 0.33685 0.0
H235 H 0.03214 0.6481 0.29895 0.0
O236 O 0.00336 0.72686 0.36518 0.0
O237 O 0.96989 0.67469 0.35395 0.0
O238 O 0.00036 0.70629 0.32085 0.0
O239 O 0.03739 0.67359 0.3535 0.0
H240 H 0.04699 0.71992 0.3895 0.0
H241 H 0.9952 0.78166 0.35947 0.0
H242 H 0.07576 0.75901 0.4037 0.0
H243 H 0.02489 0.81967 0.3742 0.0
H244 H 0.94648 0.60803 0.40027 0.0
H245 H 0.92294 0.69858 0.36749 0.0
H246 H 0.97768 0.62636 0.3734 0.0
H247 H 0.89273 0.67902 0.39449 0.0
H248 H 0.90907 0.78782 0.36715 0.0
H249 H 0.8969 0.75778 0.30651 0.0
H250 H 0.04666 0.64509 0.43201 0.0
H251 H 0.97014 0.69388 0.43943 0.0
H252 H 0.0487 0.69331 0.30301 0.0
H253 H 0.98012 0.75301 0.30413 0.0
H254 H 0.07016 0.72019 0.275 0.0
H255 H 0.00276 0.7789 0.27612 0.0
H256 H 0.07871 0.67027 0.32672 0.0
H257 H 0.02602 0.62202 0.36669 0.0
H258 H 0.10135 0.62566 0.31559 0.0
H259 H 0.0495 0.57822 0.35481 0.0
H260 H 0.12879 0.74094 0.35033 0.0
H261 H 0.07243 0.80313 0.32457 0.0
H262 H 0.9535 0.58325 0.31421 0.0
H263 H 0.02195 0.60934 0.27543 0.0
Li264 Li 0.31153 0.00184 0.37295 0.0
Li265 Li 0.28301 0.03204 0.35111 0.0
Li266 Li 0.27574 0.97932 0.35254 0.0
Li267 Li 0.31706 0.99921 0.33536 0.0
C268 C 0.26304 0.01128 0.39351 0.0
N269 N 0.25039 0.01805 0.43372 0.0
C270 C 0.25514 0.03779 0.40091 0.0
C271 C 0.26406 0.98812 0.40654 0.0
C272 C 0.24891 0.04081 0.42129 0.0
C273 C 0.25774 0.992 0.42682 0.0
C274 C 0.33773 0.057 0.35068 0.0
C275 C 0.35631 0.09237 0.32817 0.0
N276 N 0.36392 0.10846 0.3442 0.0
C277 C 0.34619 0.07368 0.36693 0.0
C278 C 0.3432 0.06623 0.33114 0.0
C279 C 0.35921 0.09972 0.36334 0.0
C280 C 0.34395 0.9767 0.40394 0.0
N281 N 0.32986 0.00045 0.39834 0.0
C282 C 0.33438 0.01983 0.43126 0.0
C283 C 0.32594 0.02228 0.4113 0.0
C284 C 0.34752 0.99484 0.43789 0.0
C285 C 0.35317 0.9735 0.42372 0.0
H286 H 0.34709 0.95978 0.39326 0.0
H287 H 0.31472 0.04097 0.40644 0.0
C288 C 0.23904 0.0673 0.33826 0.0
N289 N 0.26338 0.06715 0.34909 0.0
C290 C 0.22205 0.09139 0.33775 0.0
C291 C 0.25525 0.11476 0.35977 0.0
C292 C 0.27182 0.09029 0.35964 0.0
C293 C 0.22987 0.11536 0.34887 0.0
H294 H 0.23229 0.04836 0.33055 0.0
H295 H 0.29067 0.08938 0.3687 0.0
C296 C 0.31439 0.93903 0.35515 0.0
N297 N 0.30951 0.88077 0.35407 0.0
C298 C 0.32196 0.92408 0.33787 0.0
C299 C 0.30476 0.92428 0.37198 0.0
C300 C 0.31925 0.89465 0.3376 0.0
C301 C 0.30231 0.89485 0.37111 0.0
C302 C 0.27043 0.01213 0.30953 0.0
C303 C 0.25498 0.99385 0.29722 0.0
C304 C 0.27923 0.03829 0.30204 0.0
C305 C 0.24912 0.00181 0.27747 0.0
C306 C 0.27292 0.04551 0.28223 0.0
N307 N 0.25817 0.02725 0.27044 0.0
C308 C 0.22797 0.94856 0.36556 0.0
C309 C 0.24868 0.93141 0.33558 0.0
C310 C 0.20729 0.92755 0.36482 0.0
N311 N 0.24815 0.95004 0.35112 0.0
C312 C 0.22837 0.91005 0.33421 0.0
C313 C 0.2072 0.908 0.34893 0.0
H314 H 0.22774 0.96382 0.3776 0.0
H315 H 0.26478 0.93328 0.32415 0.0
C316 C 0.36982 0.00037 0.31448 0.0
N317 N 0.34209 0.99294 0.3135 0.0
C318 C 0.38814 0.99361 0.2987 0.0
C319 C 0.34887 0.97199 0.2813 0.0
C320 C 0.33147 0.979 0.29736 0.0
C321 C 0.37766 0.97911 0.28186 0.0
H322 H 0.37781 0.01106 0.32767 0.0
H323 H 0.30971 0.97223 0.29731 0.0
O324 O 0.26968 0.00804 0.37364 0.0
O325 O 0.32516 0.03132 0.35396 0.0
O326 O 0.3164 0.96792 0.35558 0.0
O327 O 0.27641 0.00456 0.3289 0.0
H328 H 0.25392 0.05589 0.39107 0.0
H329 H 0.2699 0.96743 0.40109 0.0
H330 H 0.24294 0.06125 0.42722 0.0
H331 H 0.25872 0.9743 0.43708 0.0
H332 H 0.36055 0.09979 0.31312 0.0
H333 H 0.34257 0.06671 0.38215 0.0
H334 H 0.33773 0.05324 0.31839 0.0
H335 H 0.36562 0.11294 0.37579 0.0
H336 H 0.32912 0.03674 0.44155 0.0
H337 H 0.36379 0.95413 0.42798 0.0
H338 H 0.20234 0.09081 0.32949 0.0
H339 H 0.26189 0.13279 0.36862 0.0
H340 H 0.32973 0.93504 0.32478 0.0
H341 H 0.29914 0.93541 0.38555 0.0
H342 H 0.32487 0.88285 0.32427 0.0
H343 H 0.29468 0.88322 0.38399 0.0
H344 H 0.24771 0.97365 0.30282 0.0
H345 H 0.29036 0.05307 0.31152 0.0
H346 H 0.23736 0.98778 0.26774 0.0
H347 H 0.27963 0.06569 0.27625 0.0
H348 H 0.19159 0.92661 0.37661 0.0
H349 H 0.22889 0.89571 0.32154 0.0
H350 H 0.41023 0.99939 0.29974 0.0
H351 H 0.34004 0.96005 0.26892 0.0
Li352 Li 0.9991 0.68028 0.66038 0.0
Li353 Li 0.97131 0.71986 0.65099 0.0
Li354 Li 0.99469 0.69207 0.62508 0.0
Li355 Li 0.02302 0.72381 0.64938 0.0
C356 C 0.94265 0.66687 0.65333 0.0
N357 N 0.89887 0.64071 0.67349 0.0
C358 C 0.93417 0.67676 0.67214 0.0
C359 C 0.92881 0.64376 0.64472 0.0
C360 C 0.91201 0.66324 0.68211 0.0
C361 C 0.90674 0.63078 0.65517 0.0
C362 C 0.99651 0.73131 0.69086 0.0
C363 C 0.00332 0.7726 0.71161 0.0
N364 N 0.99122 0.75877 0.72729 0.0
C365 C 0.98434 0.71745 0.70725 0.0
C366 C 0.00626 0.75907 0.69309 0.0
C367 C 0.98178 0.73172 0.72551 0.0
C368 C 0.0229 0.65752 0.69424 0.0
N369 N 0.00476 0.65066 0.67924 0.0
C370 C 0.00067 0.6034 0.69171 0.0
C371 C 0.99354 0.62425 0.67767 0.0
C372 C 0.01936 0.61002 0.70741 0.0
C373 C 0.03046 0.63753 0.70854 0.0
H374 H 0.03206 0.67846 0.69479 0.0
H375 H 0.9796 0.6192 0.66533 0.0
C376 C 0.91741 0.73947 0.64055 0.0
N377 N 0.93748 0.74154 0.65507 0.0
C378 C 0.8936 0.75691 0.641 0.0
C379 C 0.91064 0.77706 0.67202 0.0
C380 C 0.93428 0.75953 0.67082 0.0
C381 C 0.8902 0.77644 0.65673 0.0
H382 H 0.92049 0.72498 0.62818 0.0
H383 H 0.95022 0.76089 0.68226 0.0
C384 C 0.04587 0.66078 0.64457 0.0
N385 N 0.07596 0.61299 0.65511 0.0
C386 C 0.06983 0.66311 0.6567 0.0
C387 C 0.03732 0.63421 0.63765 0.0
C388 C 0.08474 0.63868 0.6619 0.0
C389 C 0.05279 0.61029 0.64319 0.0
C390 C 0.9821 0.75902 0.62337 0.0
C391 C 0.96439 0.76054 0.60663 0.0
C392 C 0.98597 0.78294 0.63538 0.0
C393 C 0.95043 0.78588 0.60239 0.0
C394 C 0.97161 0.80788 0.63066 0.0
N395 N 0.95426 0.80882 0.61441 0.0
C396 C 0.96827 0.68254 0.58808 0.0
C397 C 0.01642 0.66888 0.58921 0.0
C398 C 0.9669 0.67622 0.56765 0.0
N399 N 0.99292 0.67932 0.59825 0.0
C400 C 0.0159 0.66184 0.56887 0.0
C401 C 0.99106 0.66609 0.55764 0.0
H402 H 0.94993 0.6909 0.59573 0.0
H403 H 0.03576 0.66659 0.5977 0.0
C404 C 0.07013 0.74648 0.66966 0.0
N405 N 0.05504 0.7474 0.65233 0.0
C406 C 0.09316 0.76453 0.67244 0.0
C407 C 0.0851 0.7835 0.63923 0.0
C408 C 0.06211 0.76522 0.63716 0.0
C409 C 0.10082 0.78344 0.65712 0.0
H410 H 0.06402 0.73194 0.68142 0.0
H411 H 0.04968 0.76544 0.62354 0.0
O412 O 0.96448 0.67954 0.64334 0.0
O413 O 0.99951 0.71758 0.67288 0.0
O414 O 0.03044 0.6843 0.63988 0.0
O415 O 0.99524 0.73415 0.62817 0.0
H416 H 0.94448 0.69472 0.67891 0.0
H417 H 0.93517 0.63586 0.63016 0.0
H418 H 0.90524 0.67068 0.69668 0.0
H419 H 0.89588 0.61282 0.64871 0.0
H420 H 0.01067 0.79411 0.7135 0.0
H421 H 0.97705 0.69584 0.70596 0.0
H422 H 0.01589 0.77013 0.68068 0.0
H423 H 0.97235 0.72125 0.73829 0.0
H424 H 0.99179 0.58238 0.69027 0.0
H425 H 0.04554 0.64337 0.72004 0.0
H426 H 0.87862 0.75582 0.62875 0.0
H427 H 0.90867 0.79126 0.68469 0.0
H428 H 0.07665 0.68353 0.66222 0.0
H429 H 0.01866 0.63207 0.62838 0.0
H430 H 0.10322 0.64012 0.6714 0.0
H431 H 0.0463 0.58956 0.63808 0.0
H432 H 0.96123 0.74229 0.59711 0.0
H433 H 0.99968 0.78215 0.64833 0.0
H434 H 0.93648 0.7873 0.58957 0.0
H435 H 0.97422 0.82647 0.63994 0.0
H436 H 0.94739 0.68029 0.55968 0.0
H437 H 0.03489 0.65356 0.56198 0.0
H438 H 0.1049 0.76364 0.68637 0.0
H439 H 0.09012 0.79796 0.62715 0.0
Li440 Li 0.28787 0.0236 0.64854 0.0
Li441 Li 0.32907 0.9988 0.65886 0.0
Li442 Li 0.31854 0.99892 0.62409 0.0
Li443 Li 0.28941 0.97069 0.64871 0.0
C444 C 0.3287 0.05667 0.62993 0.0
N445 N 0.32989 0.10598 0.60768 0.0
C446 C 0.34709 0.07858 0.63519 0.0
C447 C 0.31091 0.05987 0.61336 0.0
C448 C 0.34738 0.10335 0.62376 0.0
C449 C 0.31184 0.08493 0.60229 0.0
C450 C 0.29029 0.01168 0.68936 0.0
C451 C 0.2753 0.01553 0.72382 0.0
N452 N 0.28919 0.04063 0.72536 0.0
C453 C 0.30442 0.03752 0.69127 0.0
C454 C 0.27562 0.00057 0.70574 0.0
C455 C 0.3036 0.05183 0.7096 0.0
C456 C 0.23433 0.04771 0.6518 0.0
N457 N 0.26226 0.05415 0.6527 0.0
C458 C 0.25156 0.10268 0.65941 0.0
C459 C 0.27118 0.08094 0.6566 0.0
C460 C 0.22248 0.09679 0.65817 0.0
C461 C 0.21402 0.06879 0.65431 0.0
H462 H 0.22785 0.02614 0.64889 0.0
H463 H 0.2935 0.08546 0.65768 0.0
C464 C 0.3806 0.0189 0.67421 0.0
N465 N 0.35893 0.00081 0.67791 0.0
C466 C 0.40016 0.0251 0.68925 0.0
C467 C 0.37561 0.99264 0.7112 0.0
C468 C 0.35656 0.98704 0.69572 0.0
C469 C 0.3972 0.01264 0.70827 0.0
H470 H 0.38186 0.02958 0.6599 0.0
H471 H 0.33903 0.97278 0.69823 0.0
C472 C 0.25667 0.9936 0.6129 0.0
N473 N 0.21547 0.98634 0.58392 0.0
C474 C 0.24979 0.96648 0.60608 0.0
C475 C 0.24241 0.01702 0.60503 0.0
C476 C 0.22898 0.96325 0.5914 0.0
C477 C 0.2217 0.01291 0.59037 0.0
C478 C 0.35379 0.95359 0.6468 0.0
C479 C 0.37964 0.9628 0.63907 0.0
C480 C 0.35324 0.9329 0.66176 0.0
C481 C 0.40466 0.95124 0.64659 0.0
C482 C 0.37872 0.92185 0.66887 0.0
N483 N 0.40368 0.93119 0.66121 0.0
C484 C 0.35482 0.01479 0.59167 0.0
C485 C 0.31821 0.98256 0.58365 0.0
C486 C 0.36321 0.01592 0.57157 0.0
N487 N 0.33223 0.99879 0.59718 0.0
C488 C 0.3257 0.98317 0.56345 0.0
C489 C 0.34827 0.00029 0.55707 0.0
H490 H 0.36604 0.02704 0.60282 0.0
H491 H 0.30093 0.9694 0.58847 0.0
C492 C 0.24007 0.94215 0.65936 0.0
N493 N 0.26642 0.93834 0.65177 0.0
C494 C 0.22094 0.91969 0.65979 0.0
C495 C 0.25671 0.88971 0.64494 0.0
C496 C 0.27521 0.91274 0.6449 0.0
C497 C 0.22903 0.89316 0.65219 0.0
H498 H 0.23365 0.96291 0.66446 0.0
H499 H 0.29624 0.91049 0.63875 0.0
O500 O 0.328 0.03251 0.64123 0.0
O501 O 0.29128 0.99688 0.67173 0.0
O502 O 0.27666 0.99712 0.62758 0.0
O503 O 0.32916 0.9652 0.64002 0.0
H504 H 0.36088 0.07653 0.64807 0.0
H505 H 0.29679 0.04311 0.60895 0.0
H506 H 0.36147 0.12049 0.6277 0.0
H507 H 0.29822 0.08762 0.58939 0.0
H508 H 0.26407 0.00715 0.73665 0.0
H509 H 0.31614 0.0463 0.67884 0.0
H510 H 0.26471 0.98051 0.70451 0.0
H511 H 0.31451 0.07179 0.71131 0.0
H512 H 0.25911 0.12379 0.66273 0.0
H513 H 0.19191 0.06321 0.65294 0.0
H514 H 0.41627 0.04086 0.68639 0.0
H515 H 0.37277 0.98235 0.72558 0.0
H516 H 0.2607 0.94811 0.61182 0.0
H517 H 0.24713 0.03818 0.61019 0.0
H518 H 0.22359 0.94239 0.58594 0.0
H519 H 0.21055 0.03086 0.58416 0.0
H520 H 0.38036 0.97892 0.62755 0.0
H521 H 0.33336 0.92571 0.66796 0.0
H522 H 0.42485 0.95826 0.64085 0.0
H523 H 0.37866 0.90593 0.68052 0.0
H524 H 0.38103 0.02903 0.56742 0.0
H525 H 0.3133 0.97098 0.55289 0.0
H526 H 0.1997 0.92337 0.66524 0.0
H527 H 0.26382 0.86956 0.63909 0.0
Li528 Li 0.00072 0.31747 0.66111 0.0
Li529 Li 0.03375 0.28038 0.65105 0.0
Li530 Li 0.00316 0.30206 0.6264 0.0
Li531 Li 0.98447 0.27055 0.65246 0.0
C532 C 0.05516 0.33561 0.65083 0.0
N533 N 0.09871 0.36523 0.66877 0.0
C534 C 0.06393 0.32867 0.67025 0.0
C535 C 0.06858 0.35757 0.64053 0.0
C536 C 0.08598 0.34391 0.67905 0.0
C537 C 0.09054 0.37231 0.64987 0.0
C538 C 0.99967 0.26418 0.69008 0.0
C539 C 0.99164 0.21737 0.70337 0.0
N540 N 0.97886 0.22892 0.7197 0.0
C541 C 0.98683 0.27557 0.70714 0.0
C542 C 0.00246 0.23484 0.68832 0.0
C543 C 0.97631 0.25741 0.7219 0.0
C544 C 0.9659 0.34339 0.68775 0.0
N545 N 0.99097 0.348 0.67842 0.0
C546 C 0.99658 0.39204 0.69571 0.0
C547 C 0.00611 0.37206 0.68173 0.0
C548 C 0.97141 0.38696 0.70627 0.0
C549 C 0.95577 0.36253 0.70186 0.0
H550 H 0.95403 0.32438 0.68447 0.0
H551 H 0.02562 0.3757 0.67375 0.0
C552 C 0.08924 0.26454 0.63953 0.0
N553 N 0.07014 0.26365 0.65475 0.0
C554 C 0.11351 0.24776 0.64027 0.0
C555 C 0.0994 0.2318 0.67321 0.0
C556 C 0.07523 0.24856 0.6717 0.0
C557 C 0.11841 0.23035 0.65703 0.0
H558 H 0.08482 0.27706 0.62633 0.0
H559 H 0.06006 0.24873 0.68379 0.0
C560 C 0.95477 0.33095 0.63749 0.0
N561 N 0.92592 0.3791 0.62604 0.0
C562 C 0.92526 0.33118 0.63739 0.0
C563 C 0.96964 0.35522 0.6318 0.0
C564 C 0.91105 0.35573 0.63154 0.0
C565 C 0.95465 0.37934 0.62605 0.0
C566 C 0.02856 0.24319 0.62107 0.0
C567 C 0.04126 0.25081 0.60292 0.0
C568 C 0.03501 0.21703 0.62973 0.0
C569 C 0.06044 0.23231 0.59388 0.0
C570 C 0.05439 0.19916 0.62027 0.0
N571 N 0.0666 0.20712 0.60269 0.0
C572 C 0.01626 0.32769 0.5885 0.0
C573 C 0.97526 0.29893 0.59037 0.0
C574 C 0.01304 0.33035 0.56772 0.0
N575 N 0.99778 0.31164 0.59918 0.0
C576 C 0.97124 0.30101 0.56973 0.0
C577 C 0.99072 0.31621 0.55805 0.0
H578 H 0.03414 0.3373 0.59597 0.0
H579 H 0.96102 0.28626 0.59934 0.0
C580 C 0.93434 0.24914 0.67015 0.0
N581 N 0.9558 0.24331 0.65724 0.0
C582 C 0.91279 0.22938 0.67321 0.0
C583 C 0.93589 0.19823 0.64956 0.0
C584 C 0.95689 0.21855 0.64694 0.0
C585 C 0.91341 0.20352 0.6628 0.0
H586 H 0.93395 0.26917 0.678 0.0
H587 H 0.97389 0.21472 0.63649 0.0
O588 O 0.0337 0.32105 0.64174 0.0
O589 O 0.00975 0.28162 0.67531 0.0
O590 O 0.96889 0.3071 0.64337 0.0
O591 O 0.01 0.26122 0.63031 0.0
H592 H 0.05386 0.31184 0.67853 0.0
H593 H 0.06205 0.36319 0.62549 0.0
H594 H 0.09296 0.33879 0.69408 0.0
H595 H 0.10108 0.38939 0.64208 0.0
H596 H 0.99339 0.19463 0.70205 0.0
H597 H 0.9852 0.29818 0.70912 0.0
H598 H 0.01257 0.22565 0.67535 0.0
H599 H 0.96622 0.26598 0.73513 0.0
H600 H 0.00907 0.41079 0.69863 0.0
H601 H 0.93595 0.35816 0.70937 0.0
H602 H 0.12742 0.24735 0.62738 0.0
H603 H 0.10269 0.21947 0.68669 0.0
H604 H 0.91348 0.31257 0.64183 0.0
H605 H 0.99248 0.3555 0.63186 0.0
H606 H 0.8882 0.35622 0.63139 0.0
H607 H 0.96587 0.39827 0.62162 0.0
H608 H 0.03666 0.2709 0.59595 0.0
H609 H 0.02539 0.21062 0.6437 0.0
H610 H 0.07053 0.23805 0.5799 0.0
H611 H 0.05974 0.17899 0.62692 0.0
H612 H 0.02863 0.34206 0.55921 0.0
H613 H 0.95356 0.29012 0.56289 0.0
H614 H 0.89592 0.23423 0.68363 0.0
H615 H 0.93691 0.17883 0.64093 0.0
Li616 Li 0.71321 0.03255 0.65203 0.0
Li617 Li 0.68709 0.0053 0.62473 0.0
Li618 Li 0.67284 0.00349 0.65914 0.0
Li619 Li 0.71495 0.97866 0.64963 0.0
C620 C 0.64969 0.05021 0.64691 0.0
N621 N 0.59906 0.07369 0.65896 0.0
C622 C 0.62433 0.04078 0.63852 0.0
C623 C 0.64939 0.07171 0.66129 0.0
C624 C 0.59892 0.05288 0.64486 0.0
C625 C 0.62355 0.08329 0.66721 0.0
C626 C 0.74637 0.00835 0.6145 0.0
C627 C 0.77118 0.98505 0.58754 0.0
N628 N 0.78276 0.01023 0.5821 0.0
C629 C 0.75879 0.03394 0.60878 0.0
C630 C 0.75283 0.98364 0.60393 0.0
C631 C 0.77702 0.03448 0.5923 0.0
C632 C 0.75727 0.06039 0.67124 0.0
N633 N 0.7359 0.06424 0.65794 0.0
C634 C 0.7516 0.11119 0.65089 0.0
C635 C 0.73236 0.08912 0.64806 0.0
C636 C 0.77457 0.10751 0.66404 0.0
C637 C 0.77683 0.08191 0.67464 0.0
H638 H 0.75955 0.04026 0.67878 0.0
H639 H 0.71525 0.09137 0.63741 0.0
C640 C 0.65406 0.99009 0.59095 0.0
N641 N 0.67592 0.00645 0.59732 0.0
C642 C 0.64732 0.9887 0.57057 0.0
C643 C 0.68482 0.02209 0.56387 0.0
C644 C 0.69061 0.02301 0.58436 0.0
C645 C 0.6632 0.0044 0.55664 0.0
H646 H 0.64226 0.97762 0.60167 0.0
H647 H 0.70722 0.03658 0.58986 0.0
C648 C 0.70519 0.99427 0.69236 0.0
N649 N 0.69393 0.97599 0.73088 0.0
C650 C 0.69397 0.96731 0.69558 0.0
C651 C 0.71085 0.0119 0.70871 0.0
C652 C 0.68835 0.95848 0.71518 0.0
C653 C 0.705 0.00226 0.72808 0.0
C654 C 0.67405 0.94419 0.63351 0.0
C655 C 0.66029 0.92359 0.64497 0.0
C656 C 0.68633 0.93665 0.61522 0.0
C657 C 0.65923 0.89575 0.63796 0.0
C658 C 0.68481 0.9086 0.60872 0.0
N659 N 0.67142 0.88889 0.62014 0.0
C660 C 0.62048 0.98206 0.67231 0.0
C661 C 0.64038 0.01674 0.69376 0.0
C662 C 0.59966 0.97591 0.68647 0.0
N663 N 0.64096 0.00128 0.67657 0.0
C664 C 0.62006 0.01118 0.70839 0.0
C665 C 0.60005 0.98973 0.70512 0.0
H666 H 0.6211 0.97056 0.65831 0.0
H667 H 0.65658 0.03237 0.69656 0.0
C668 C 0.76851 0.95506 0.64996 0.0
N669 N 0.74105 0.94828 0.65341 0.0
C670 C 0.78964 0.93473 0.65194 0.0
C671 C 0.75407 0.90081 0.66175 0.0
C672 C 0.73354 0.92184 0.65944 0.0
C673 C 0.7826 0.90712 0.65791 0.0
H674 H 0.77405 0.97638 0.64563 0.0
H675 H 0.71175 0.91703 0.66268 0.0
O676 O 0.67467 0.03817 0.64125 0.0
O677 O 0.72847 0.00749 0.63062 0.0
O678 O 0.70997 0.00363 0.67325 0.0
O679 O 0.67545 0.97152 0.64025 0.0
H680 H 0.62428 0.02407 0.6274 0.0
H681 H 0.6689 0.07915 0.66794 0.0
H682 H 0.57909 0.04568 0.63861 0.0
H683 H 0.62294 0.09984 0.67842 0.0
H684 H 0.7763 0.96609 0.57921 0.0
H685 H 0.7542 0.05324 0.61686 0.0
H686 H 0.74408 0.96352 0.60844 0.0
H687 H 0.78661 0.05418 0.58763 0.0
H688 H 0.7492 0.1304 0.64221 0.0
H689 H 0.7939 0.0783 0.68516 0.0
H690 H 0.63008 0.97525 0.56577 0.0
H691 H 0.69782 0.03445 0.55379 0.0
H692 H 0.68908 0.95363 0.68306 0.0
H693 H 0.71938 0.0329 0.70643 0.0
H694 H 0.67942 0.93777 0.71789 0.0
H695 H 0.70915 0.0157 0.74088 0.0
H696 H 0.65091 0.92892 0.65928 0.0
H697 H 0.6968 0.95229 0.60606 0.0
H698 H 0.6488 0.87958 0.64673 0.0
H699 H 0.69425 0.90251 0.59458 0.0
H700 H 0.58466 0.95916 0.68337 0.0
H701 H 0.62081 0.02257 0.72248 0.0
H702 H 0.81125 0.94058 0.64859 0.0
H703 H 0.7477 0.87998 0.66677 0.0
Li704 Li 0.53045 0.78416 0.85035 0.0
Li705 Li 0.50587 0.81666 0.87447 0.0
Li706 Li 0.47973 0.7922 0.84913 0.0
Li707 Li 0.51036 0.83051 0.83964 0.0
C708 C 0.48519 0.75389 0.87748 0.0
N709 N 0.44838 0.71142 0.88873 0.0
C710 C 0.46586 0.75846 0.89299 0.0
C711 C 0.48605 0.72764 0.86784 0.0
C712 C 0.44736 0.73673 0.89842 0.0
C713 C 0.4672 0.70646 0.87372 0.0
C714 C 0.55418 0.84803 0.86429 0.0
C715 C 0.55113 0.89705 0.87408 0.0
N716 N 0.57982 0.89861 0.87425 0.0
C717 C 0.58362 0.85011 0.86452 0.0
C718 C 0.53775 0.87167 0.86907 0.0
C719 C 0.59619 0.87587 0.86961 0.0
C720 C 0.57749 0.76096 0.83023 0.0
N721 N 0.56049 0.75837 0.84656 0.0
C722 C 0.58572 0.71749 0.8575 0.0
C723 C 0.56429 0.73739 0.8602 0.0
C724 C 0.60343 0.71927 0.84061 0.0
C725 C 0.59923 0.74151 0.82693 0.0
H726 H 0.57388 0.77793 0.81965 0.0
H727 H 0.55058 0.73606 0.87314 0.0
C728 C 0.48223 0.83784 0.91023 0.0
N729 N 0.50648 0.82876 0.90144 0.0
C730 C 0.48186 0.84432 0.93067 0.0
C731 C 0.53166 0.833 0.93232 0.0
C732 C 0.53101 0.82652 0.9119 0.0
C733 C 0.50673 0.84152 0.94202 0.0
H734 H 0.46303 0.83925 0.90148 0.0
H735 H 0.54988 0.81895 0.90449 0.0
C736 C 0.50593 0.77951 0.809 0.0
N737 N 0.50457 0.75203 0.77243 0.0
C738 C 0.49921 0.79444 0.79156 0.0
C739 C 0.51232 0.75068 0.80783 0.0
C740 C 0.49852 0.78014 0.77322 0.0
C741 C 0.51141 0.73715 0.78921 0.0
C742 C 0.4546 0.84571 0.84673 0.0
C743 C 0.44779 0.83686 0.82731 0.0
C744 C 0.4394 0.86778 0.85556 0.0
C745 C 0.42592 0.85036 0.817 0.0
C746 C 0.41768 0.88076 0.84475 0.0
N747 N 0.41145 0.87185 0.82586 0.0
C748 C 0.4227 0.78052 0.8571 0.0
C749 C 0.44236 0.75094 0.83203 0.0
C750 C 0.39797 0.76444 0.85737 0.0
N751 N 0.4445 0.77316 0.84488 0.0
C752 C 0.418 0.73432 0.83176 0.0
C753 C 0.39568 0.74057 0.84492 0.0
H754 H 0.42509 0.79808 0.86737 0.0
H755 H 0.46004 0.74511 0.82276 0.0
C756 C 0.54523 0.85613 0.81303 0.0
N757 N 0.51965 0.86021 0.82176 0.0
C758 C 0.55658 0.87661 0.80041 0.0
C759 C 0.51459 0.90493 0.8054 0.0
C760 C 0.50421 0.88401 0.81829 0.0
C761 C 0.54127 0.9014 0.79655 0.0
H762 H 0.55701 0.83703 0.81619 0.0
H763 H 0.48415 0.88705 0.82568 0.0
O764 O 0.50279 0.77521 0.87148 0.0
O765 O 0.5416 0.82305 0.85905 0.0
O766 O 0.50733 0.79335 0.827 0.0
O767 O 0.47589 0.8329 0.85722 0.0
H768 H 0.46488 0.77869 0.90055 0.0
H769 H 0.50082 0.72382 0.85575 0.0
H770 H 0.43211 0.74004 0.91028 0.0
H771 H 0.46743 0.68613 0.86627 0.0
H772 H 0.53869 0.91552 0.8778 0.0
H773 H 0.59659 0.83201 0.86075 0.0
H774 H 0.51493 0.8705 0.86884 0.0
H775 H 0.61896 0.8778 0.86986 0.0
H776 H 0.58852 0.70101 0.8686 0.0
H777 H 0.61223 0.74353 0.81365 0.0
H778 H 0.46226 0.85097 0.93759 0.0
H779 H 0.55116 0.83019 0.94059 0.0
H780 H 0.49465 0.81687 0.79216 0.0
H781 H 0.51768 0.73883 0.82117 0.0
H782 H 0.49327 0.79141 0.7596 0.0
H783 H 0.51615 0.71482 0.78809 0.0
H784 H 0.45915 0.81975 0.82027 0.0
H785 H 0.4444 0.87484 0.8706 0.0
H786 H 0.42044 0.84373 0.80196 0.0
H787 H 0.40577 0.8979 0.85139 0.0
H788 H 0.38117 0.77013 0.86763 0.0
H789 H 0.41732 0.71587 0.82213 0.0
H790 H 0.57711 0.87307 0.79367 0.0
H791 H 0.50232 0.9239 0.80275 0.0
Li792 Li 0.18126 0.5121 0.83315 0.0
Li793 Li 0.22084 0.53947 0.84508 0.0
Li794 Li 0.2231 0.48582 0.84314 0.0
Li795 Li 0.19307 0.51133 0.8684 0.0
C796 C 0.22006 0.50999 0.80102 0.0
N797 N 0.22098 0.50159 0.75999 0.0
C798 C 0.21822 0.53306 0.78797 0.0
C799 C 0.22256 0.48265 0.7932 0.0
C800 C 0.21864 0.52837 0.76728 0.0
C801 C 0.22295 0.47885 0.77241 0.0
C802 C 0.17694 0.57238 0.85151 0.0
C803 C 0.18165 0.61871 0.86632 0.0
N804 N 0.17062 0.63042 0.84941 0.0
C805 C 0.16564 0.58488 0.83427 0.0
C806 C 0.18496 0.58941 0.86768 0.0
C807 C 0.16259 0.61426 0.83352 0.0
C808 C 0.12506 0.52364 0.82554 0.0
N809 N 0.1486 0.514 0.81607 0.0
C810 C 0.12554 0.51751 0.78427 0.0
C811 C 0.14868 0.5094 0.79594 0.0
C812 C 0.10182 0.52989 0.79349 0.0
C813 C 0.10125 0.53144 0.81455 0.0
H814 H 0.12535 0.52675 0.84162 0.0
H815 H 0.16703 0.50079 0.78866 0.0
C816 C 0.26633 0.57536 0.85442 0.0
N817 N 0.24354 0.57268 0.84217 0.0
C818 C 0.28408 0.5988 0.85283 0.0
C819 C 0.25488 0.61626 0.8258 0.0
C820 C 0.23762 0.59247 0.82797 0.0
C821 C 0.27849 0.61963 0.83835 0.0
H822 H 0.27107 0.55907 0.86524 0.0
H823 H 0.2196 0.58979 0.81824 0.0
C824 C 0.16048 0.46376 0.84496 0.0
N825 N 0.11279 0.4363 0.83118 0.0
C826 C 0.1349 0.46657 0.85522 0.0
C827 C 0.16193 0.44681 0.82782 0.0
C828 C 0.11099 0.45255 0.84798 0.0
C829 C 0.13754 0.43315 0.82106 0.0
C830 C 0.24564 0.50986 0.88407 0.0
C831 C 0.25879 0.48486 0.89025 0.0
C832 C 0.24306 0.53241 0.89752 0.0
C833 C 0.26886 0.48273 0.9099 0.0
C834 C 0.25335 0.52943 0.91705 0.0
N835 N 0.26592 0.50485 0.92278 0.0
C836 C 0.27367 0.46104 0.83096 0.0
C837 C 0.24218 0.42927 0.84702 0.0
C838 C 0.29458 0.44029 0.83016 0.0
N839 N 0.24828 0.45528 0.83952 0.0
C840 C 0.26256 0.40788 0.84663 0.0
C841 C 0.2894 0.41345 0.83846 0.0
H842 H 0.27789 0.48205 0.82526 0.0
H843 H 0.22188 0.42551 0.854 0.0
C844 C 0.16144 0.53049 0.90167 0.0
N845 N 0.17914 0.50986 0.8951 0.0
C846 C 0.15342 0.53156 0.92182 0.0
C847 C 0.18126 0.48955 0.92784 0.0
C848 C 0.18825 0.489 0.90752 0.0
C849 C 0.16398 0.51135 0.93537 0.0
H850 H 0.15396 0.54644 0.89135 0.0
H851 H 0.20188 0.47253 0.90178 0.0
O852 O 0.22003 0.5142 0.82131 0.0
O853 O 0.18027 0.54367 0.85252 0.0
O854 O 0.18391 0.47786 0.85151 0.0
O855 O 0.23529 0.51219 0.86498 0.0
H856 H 0.21626 0.55433 0.79374 0.0
H857 H 0.22402 0.46454 0.80303 0.0
H858 H 0.21708 0.54602 0.75701 0.0
H859 H 0.22478 0.45781 0.76615 0.0
H860 H 0.18786 0.63213 0.8787 0.0
H861 H 0.1597 0.57215 0.82148 0.0
H862 H 0.19378 0.58011 0.88112 0.0
H863 H 0.15399 0.62422 0.82024 0.0
H864 H 0.12714 0.51577 0.76812 0.0
H865 H 0.08316 0.53997 0.82244 0.0
H866 H 0.30239 0.60024 0.86252 0.0
H867 H 0.24976 0.63188 0.81448 0.0
H868 H 0.13349 0.47968 0.86851 0.0
H869 H 0.18162 0.44441 0.81976 0.0
H870 H 0.09098 0.45466 0.85569 0.0
H871 H 0.13829 0.42009 0.80774 0.0
H872 H 0.26106 0.46722 0.88004 0.0
H873 H 0.23298 0.55191 0.89297 0.0
H874 H 0.27896 0.46346 0.91491 0.0
H875 H 0.25131 0.54664 0.92765 0.0
H876 H 0.31478 0.44539 0.82345 0.0
H877 H 0.25775 0.38764 0.85342 0.0
H878 H 0.13945 0.54831 0.92673 0.0
H879 H 0.19027 0.47364 0.9376 0.0
Li880 Li 0.46943 0.21781 0.85356 0.0
Li881 Li 0.49717 0.18701 0.87704 0.0
Li882 Li 0.51999 0.21009 0.84952 0.0
Li883 Li 0.48864 0.17101 0.84301 0.0
C884 C 0.51719 0.2503 0.87677 0.0
N885 N 0.55431 0.29415 0.88422 0.0
C886 C 0.53806 0.24741 0.89147 0.0
C887 C 0.51496 0.27559 0.86603 0.0
C888 C 0.55668 0.26982 0.89497 0.0
C889 C 0.534 0.29748 0.86998 0.0
C890 C 0.44834 0.15458 0.87088 0.0
C891 C 0.45352 0.10626 0.88186 0.0
N892 N 0.42504 0.10447 0.88429 0.0
C893 C 0.41914 0.15227 0.87344 0.0
C894 C 0.46571 0.13141 0.87508 0.0
C895 C 0.40776 0.12675 0.88025 0.0
C896 C 0.42019 0.23954 0.83544 0.0
N897 N 0.43882 0.24318 0.85074 0.0
C898 C 0.41443 0.28453 0.8618 0.0
C899 C 0.43627 0.26493 0.86393 0.0
C900 C 0.39505 0.28168 0.84594 0.0
C901 C 0.39802 0.25868 0.83273 0.0
H902 H 0.42283 0.22199 0.82519 0.0
H903 H 0.4513 0.2671 0.87606 0.0
C904 C 0.52534 0.1684 0.91193 0.0
N905 N 0.50006 0.17683 0.90436 0.0
C906 C 0.52831 0.16356 0.9325 0.0
C907 C 0.47894 0.17527 0.93686 0.0
C908 C 0.47698 0.18005 0.91625 0.0
C909 C 0.50499 0.16738 0.94528 0.0
H910 H 0.54336 0.16623 0.90207 0.0
H911 H 0.45724 0.18712 0.90978 0.0
C912 C 0.48882 0.21962 0.81065 0.0
N913 N 0.48536 0.24372 0.77298 0.0
C914 C 0.49368 0.2032 0.79356 0.0
C915 C 0.48188 0.24822 0.80858 0.0
C916 C 0.49193 0.2158 0.77464 0.0
C917 C 0.48033 0.26003 0.78941 0.0
C918 C 0.54523 0.15659 0.84717 0.0
C919 C 0.54986 0.16449 0.82723 0.0
C920 C 0.56135 0.13489 0.85562 0.0
C921 C 0.5705 0.15044 0.81605 0.0
C922 C 0.58179 0.12134 0.84394 0.0
N923 N 0.58589 0.12933 0.82456 0.0
C924 C 0.57736 0.22359 0.85409 0.0
C925 C 0.55481 0.24986 0.82841 0.0
C926 C 0.6017 0.24009 0.85231 0.0
N927 N 0.55433 0.22919 0.84257 0.0
C928 C 0.57875 0.26676 0.82603 0.0
C929 C 0.60233 0.26244 0.83844 0.0
H930 H 0.57631 0.20719 0.86538 0.0
H931 H 0.53621 0.25427 0.81966 0.0
C932 C 0.45146 0.14452 0.8184 0.0
N933 N 0.47766 0.14058 0.82618 0.0
C934 C 0.43948 0.12421 0.80591 0.0
C935 C 0.48188 0.09608 0.80934 0.0
C936 C 0.49296 0.11689 0.82207 0.0
C937 C 0.45472 0.09962 0.80123 0.0
H938 H 0.43985 0.16358 0.82198 0.0
H939 H 0.51358 0.11398 0.82866 0.0
O940 O 0.49943 0.22825 0.87263 0.0
O941 O 0.45973 0.17935 0.86402 0.0
O942 O 0.48987 0.20747 0.82926 0.0
O943 O 0.52517 0.16993 0.85851 0.0
H944 H 0.54009 0.22793 0.89987 0.0
H945 H 0.49899 0.2781 0.85456 0.0
H946 H 0.5731 0.2678 0.90617 0.0
H947 H 0.53271 0.31708 0.86165 0.0
H948 H 0.4667 0.08816 0.88518 0.0
H949 H 0.40543 0.17001 0.87016 0.0
H950 H 0.48835 0.13276 0.87309 0.0
H951 H 0.38519 0.12464 0.88231 0.0
H952 H 0.41267 0.30164 0.87253 0.0
H953 H 0.38373 0.25582 0.8202 0.0
H954 H 0.54871 0.15733 0.93839 0.0
H955 H 0.46056 0.17886 0.94619 0.0
H956 H 0.49868 0.18094 0.79487 0.0
H957 H 0.47796 0.26122 0.82165 0.0
H958 H 0.49571 0.20337 0.76128 0.0
H959 H 0.47513 0.28216 0.78759 0.0
H960 H 0.53776 0.1813 0.82045 0.0
H961 H 0.55803 0.12856 0.87105 0.0
H962 H 0.57428 0.15634 0.8006 0.0
H963 H 0.59438 0.10447 0.85029 0.0
H964 H 0.61952 0.23592 0.86206 0.0
H965 H 0.5782 0.284 0.81533 0.0
H966 H 0.41863 0.12789 0.79974 0.0
H967 H 0.49418 0.07731 0.8061 0.0
Li968 Li 0.77478 0.516 0.84506 0.0
Li969 Li 0.80465 0.49609 0.87309 0.0
Li970 Li 0.81619 0.48721 0.83852 0.0
Li971 Li 0.77673 0.46322 0.85298 0.0
C972 C 0.83646 0.53767 0.84328 0.0
N973 N 0.88209 0.56157 0.82385 0.0
C974 C 0.86361 0.53471 0.85122 0.0
C975 C 0.83242 0.55288 0.82554 0.0
C976 C 0.88644 0.54692 0.84115 0.0
C977 C 0.85579 0.5648 0.81593 0.0
C978 C 0.75097 0.50128 0.88785 0.0
C979 C 0.74199 0.48967 0.92252 0.0
N980 N 0.72825 0.51472 0.92485 0.0
C981 C 0.73659 0.52683 0.89057 0.0
C982 C 0.75353 0.48245 0.90392 0.0
C983 C 0.7253 0.53326 0.90939 0.0
C984 C 0.72446 0.53885 0.83039 0.0
N985 N 0.74994 0.54576 0.83837 0.0
C986 C 0.73579 0.59395 0.84216 0.0
C987 C 0.75618 0.57272 0.84389 0.0
C988 C 0.70879 0.58725 0.83472 0.0
C989 C 0.70354 0.55941 0.82827 0.0
H990 H 0.72008 0.51711 0.82637 0.0
H991 H 0.77648 0.57739 0.85057 0.0
C992 C 0.83782 0.48645 0.90773 0.0
N993 N 0.81841 0.50397 0.89931 0.0
C994 C 0.84566 0.48993 0.92778 0.0
C995 C 0.81424 0.5301 0.92982 0.0
C996 C 0.80758 0.52625 0.90962 0.0
C997 C 0.83308 0.51141 0.93937 0.0
H998 H 0.84675 0.46937 0.899 0.0
H999 H 0.79279 0.54037 0.90239 0.0
C1000 C 0.78067 0.48074 0.80638 0.0
N1001 N 0.78649 0.47594 0.76527 0.0
C1002 C 0.79032 0.45546 0.79791 0.0
C1003 C 0.77389 0.50354 0.79393 0.0
C1004 C 0.79318 0.45348 0.7771 0.0
C1005 C 0.77697 0.50069 0.77318 0.0
C1006 C 0.81889 0.43185 0.86482 0.0
C1007 C 0.82766 0.41331 0.84971 0.0
C1008 C 0.81171 0.42115 0.88369 0.0
C1009 C 0.82896 0.38433 0.85371 0.0
C1010 C 0.81323 0.39203 0.88708 0.0
N1011 N 0.82175 0.37438 0.87215 0.0
C1012 C 0.86987 0.46678 0.82944 0.0
C1013 C 0.84924 0.49011 0.80167 0.0
C1014 C 0.89176 0.45666 0.81745 0.0
N1015 N 0.8483 0.48176 0.82119 0.0
C1016 C 0.87056 0.4801 0.78901 0.0
C1017 C 0.89145 0.46196 0.79672 0.0
H1018 H 0.86934 0.46143 0.8452 0.0
H1019 H 0.83273 0.50329 0.7956 0.0
C1020 C 0.73148 0.42949 0.86681 0.0
N1021 N 0.7535 0.42995 0.85373 0.0
C1022 C 0.71352 0.40612 0.86771 0.0
C1023 C 0.74084 0.3841 0.84139 0.0
C1024 C 0.75832 0.40792 0.84104 0.0
C1025 C 0.71805 0.38302 0.85486 0.0
H1026 H 0.72746 0.44747 0.87634 0.0
H1027 H 0.77564 0.40878 0.83057 0.0
O1028 O 0.81399 0.52524 0.85261 0.0
O1029 O 0.76249 0.49479 0.86957 0.0
O1030 O 0.77742 0.48307 0.8267 0.0
O1031 O 0.81721 0.46029 0.86115 0.0
H1032 H 0.86702 0.52285 0.86491 0.0
H1033 H 0.81151 0.55516 0.81917 0.0
H1034 H 0.90762 0.54469 0.84704 0.0
H1035 H 0.85304 0.57651 0.80213 0.0
H1036 H 0.74399 0.47536 0.9351 0.0
H1037 H 0.73424 0.54162 0.87832 0.0
H1038 H 0.76448 0.46256 0.90209 0.0
H1039 H 0.71423 0.55301 0.91171 0.0
H1040 H 0.74066 0.61499 0.84758 0.0
H1041 H 0.6832 0.55339 0.82218 0.0
H1042 H 0.86101 0.47554 0.93416 0.0
H1043 H 0.80371 0.54686 0.93797 0.0
H1044 H 0.79614 0.43779 0.8073 0.0
H1045 H 0.7665 0.5233 0.80021 0.0
H1046 H 0.80085 0.43413 0.77036 0.0
H1047 H 0.77187 0.51819 0.76337 0.0
H1048 H 0.83293 0.4211 0.83493 0.0
H1049 H 0.805 0.43514 0.89559 0.0
H1050 H 0.83554 0.36974 0.84211 0.0
H1051 H 0.80765 0.38347 0.9016 0.0
H1052 H 0.90799 0.44361 0.8242 0.0
H1053 H 0.86956 0.48503 0.77317 0.0
H1054 H 0.69584 0.40646 0.87803 0.0
H1055 H 0.74516 0.36671 0.83127 0.0
Li1056 Li 0.47298 0.2194 0.15679 0.0
Li1057 Li 0.49988 0.181 0.16715 0.0
Li1058 Li 0.52399 0.22302 0.15345 0.0
Li1059 Li 0.49459 0.18845 0.13144 0.0
C1060 C 0.48967 0.23338 0.19388 0.0
N1061 N 0.46411 0.26141 0.2254 0.0
C1062 C 0.46793 0.22038 0.20465 0.0
C1063 C 0.49867 0.26049 0.19929 0.0
C1064 C 0.4552 0.23493 0.2205 0.0
C1065 C 0.48541 0.27435 0.21523 0.0
C1066 C 0.4519 0.15424 0.15499 0.0
C1067 C 0.44228 0.10553 0.14668 0.0
N1068 N 0.42582 0.1033 0.16333 0.0
C1069 C 0.43462 0.15158 0.17189 0.0
C1070 C 0.45559 0.13113 0.14217 0.0
C1071 C 0.42174 0.1256 0.1759 0.0
C1072 C 0.41423 0.23066 0.15844 0.0
N1073 N 0.44022 0.24208 0.1616 0.0
C1074 C 0.41974 0.28681 0.16975 0.0
C1075 C 0.44334 0.26959 0.16713 0.0
C1076 C 0.39266 0.27574 0.16634 0.0
C1077 C 0.38999 0.24726 0.16065 0.0
H1078 H 0.41235 0.20882 0.15381 0.0
H1079 H 0.4642 0.27842 0.16899 0.0
C1080 C 0.5165 0.16292 0.20507 0.0
N1081 N 0.50568 0.15289 0.18757 0.0
C1082 C 0.52396 0.14445 0.22044 0.0
C1083 C 0.509 0.10533 0.19968 0.0
C1084 C 0.50188 0.12465 0.18464 0.0
C1085 C 0.52043 0.11518 0.21785 0.0
H1086 H 0.52037 0.18528 0.20686 0.0
H1087 H 0.49433 0.11691 0.17041 0.0
C1088 C 0.48075 0.25393 0.12583 0.0
N1089 N 0.45054 0.30059 0.1131 0.0
C1090 C 0.45582 0.2504 0.11488 0.0
C1091 C 0.49044 0.28118 0.1302 0.0
C1092 C 0.4408 0.27426 0.10864 0.0
C1093 C 0.47485 0.3045 0.12363 0.0
C1094 C 0.54738 0.16078 0.15267 0.0
C1095 C 0.56766 0.1657 0.1675 0.0
C1096 C 0.54381 0.13354 0.14493 0.0
C1097 C 0.58387 0.14309 0.17455 0.0
C1098 C 0.5605 0.11152 0.15233 0.0
N1099 N 0.57998 0.1167 0.16689 0.0
C1100 C 0.56882 0.25481 0.17063 0.0
C1101 C 0.56459 0.25708 0.13523 0.0
C1102 C 0.59085 0.27451 0.17029 0.0
N1103 N 0.55592 0.24701 0.15328 0.0
C1104 C 0.58651 0.27673 0.13418 0.0
C1105 C 0.59961 0.28613 0.1519 0.0
H1106 H 0.56155 0.24624 0.18476 0.0
H1107 H 0.55397 0.2503 0.12168 0.0
C1108 C 0.46744 0.17341 0.09521 0.0
N1109 N 0.4926 0.17402 0.10501 0.0
C1110 C 0.46642 0.16649 0.07486 0.0
C1111 C 0.51703 0.15961 0.07539 0.0
C1112 C 0.5171 0.16691 0.09568 0.0
C1113 C 0.49155 0.16004 0.06455 0.0
H1114 H 0.4483 0.17922 0.10306 0.0
H1115 H 0.53681 0.16775 0.10387 0.0
O1116 O 0.50228 0.2195 0.17825 0.0
O1117 O 0.4644 0.17959 0.15069 0.0
O1118 O 0.4954 0.23083 0.1325 0.0
O1119 O 0.53068 0.18243 0.14607 0.0
H1120 H 0.46099 0.19929 0.2008 0.0
H1121 H 0.5154 0.27091 0.19107 0.0
H1122 H 0.43826 0.22517 0.2289 0.0
H1123 H 0.49199 0.29543 0.21948 0.0
H1124 H 0.44511 0.0874 0.13697 0.0
H1125 H 0.43109 0.1694 0.18175 0.0
H1126 H 0.46885 0.1328 0.12902 0.0
H1127 H 0.40843 0.12319 0.18898 0.0
H1128 H 0.42271 0.30883 0.17373 0.0
H1129 H 0.36943 0.23801 0.15786 0.0
H1130 H 0.53347 0.15302 0.23391 0.0
H1131 H 0.50602 0.08294 0.19699 0.0
H1132 H 0.44792 0.22947 0.11153 0.0
H1133 H 0.50956 0.2843 0.13882 0.0
H1134 H 0.42134 0.27185 0.1003 0.0
H1135 H 0.482 0.32572 0.127 0.0
H1136 H 0.57053 0.18668 0.17369 0.0
H1137 H 0.52804 0.1294 0.13353 0.0
H1138 H 0.59949 0.14651 0.18615 0.0
H1139 H 0.55785 0.09027 0.14659 0.0
H1140 H 0.60021 0.28128 0.18432 0.0
H1141 H 0.59291 0.28473 0.11965 0.0
H1142 H 0.44632 0.16743 0.06712 0.0
H1143 H 0.53684 0.15431 0.06819 0.0
Li1144 Li 0.78539 0.52652 0.14908 0.0
Li1145 Li 0.82749 0.50173 0.16119 0.0
Li1146 Li 0.81365 0.49883 0.12607 0.0
Li1147 Li 0.78646 0.47495 0.15239 0.0
C1148 C 0.82688 0.56133 0.14199 0.0
N1149 N 0.82754 0.61965 0.14472 0.0
C1150 C 0.83778 0.57451 0.1591 0.0
C1151 C 0.81641 0.5778 0.12625 0.0
C1152 C 0.83794 0.60403 0.16018 0.0
C1153 C 0.81688 0.60726 0.12793 0.0
C1154 C 0.77224 0.49325 0.18799 0.0
C1155 C 0.76132 0.45851 0.21331 0.0
N1156 N 0.73512 0.46998 0.21538 0.0
C1157 C 0.74526 0.50477 0.19041 0.0
C1158 C 0.78041 0.47001 0.19958 0.0
C1159 C 0.72679 0.49268 0.20433 0.0
C1160 C 0.74087 0.56352 0.13881 0.0
N1161 N 0.76195 0.559 0.15227 0.0
C1162 C 0.74765 0.59939 0.17135 0.0
C1163 C 0.76561 0.5763 0.16836 0.0
C1164 C 0.72566 0.60458 0.15766 0.0
C1165 C 0.7225 0.58633 0.14117 0.0
H1166 H 0.73791 0.54907 0.12646 0.0
H1167 H 0.78226 0.57191 0.17903 0.0
C1168 C 0.88442 0.51276 0.17015 0.0
N1169 N 0.85913 0.50582 0.17847 0.0
C1170 C 0.90713 0.52047 0.18234 0.0
C1171 C 0.87759 0.51282 0.21143 0.0
C1172 C 0.85547 0.50519 0.19867 0.0
C1173 C 0.90362 0.52136 0.20326 0.0
H1174 H 0.88653 0.51358 0.15401 0.0
H1175 H 0.83497 0.5002 0.20485 0.0
C1176 C 0.76195 0.49338 0.11104 0.0
N1177 N 0.7437 0.48311 0.07233 0.0
C1178 C 0.75155 0.46671 0.10577 0.0
C1179 C 0.76296 0.51485 0.09663 0.0
C1180 C 0.74242 0.46195 0.08612 0.0
C1181 C 0.7537 0.50922 0.07714 0.0
C1182 C 0.85098 0.45539 0.14811 0.0
C1183 C 0.8737 0.45893 0.13496 0.0
C1184 C 0.85477 0.44036 0.16596 0.0
C1185 C 0.89999 0.44753 0.14 0.0
C1186 C 0.8814 0.42933 0.17046 0.0
N1187 N 0.90327 0.43312 0.1575 0.0
C1188 C 0.84027 0.5176 0.09024 0.0
C1189 C 0.82006 0.4718 0.08889 0.0
C1190 C 0.84696 0.51635 0.06985 0.0
N1191 N 0.82646 0.49578 0.09915 0.0
C1192 C 0.82573 0.46989 0.06842 0.0
C1193 C 0.83897 0.49256 0.05846 0.0
H1194 H 0.84562 0.5362 0.09888 0.0
H1195 H 0.80948 0.45459 0.09648 0.0
C1196 C 0.73458 0.44876 0.15815 0.0
N1197 N 0.76276 0.44341 0.15769 0.0
C1198 C 0.71534 0.42668 0.16024 0.0
C1199 C 0.75447 0.39385 0.16162 0.0
C1200 C 0.77304 0.41669 0.15954 0.0
C1201 C 0.72515 0.3987 0.16163 0.0
H1202 H 0.72705 0.47022 0.15638 0.0
H1203 H 0.79557 0.41305 0.15886 0.0
O1204 O 0.82599 0.53246 0.1408 0.0
O1205 O 0.79044 0.50443 0.17417 0.0
O1206 O 0.77143 0.49834 0.13013 0.0
O1207 O 0.82522 0.46683 0.14362 0.0
H1208 H 0.84574 0.56214 0.17151 0.0
H1209 H 0.80773 0.56795 0.11296 0.0
H1210 H 0.84621 0.61452 0.17336 0.0
H1211 H 0.8087 0.62026 0.11591 0.0
H1212 H 0.76729 0.44041 0.22229 0.0
H1213 H 0.73851 0.52264 0.18149 0.0
H1214 H 0.80116 0.46074 0.1978 0.0
H1215 H 0.7058 0.50129 0.2063 0.0
H1216 H 0.75088 0.61298 0.18423 0.0
H1217 H 0.70548 0.58915 0.13049 0.0
H1218 H 0.92687 0.52671 0.17542 0.0
H1219 H 0.87374 0.51368 0.22743 0.0
H1220 H 0.75084 0.44974 0.11662 0.0
H1221 H 0.77124 0.53551 0.10037 0.0
H1222 H 0.73443 0.44139 0.08181 0.0
H1223 H 0.75458 0.52557 0.06581 0.0
H1224 H 0.87113 0.47057 0.12111 0.0
H1225 H 0.83739 0.4375 0.1763 0.0
H1226 H 0.91781 0.45021 0.13002 0.0
H1227 H 0.8847 0.4178 0.18428 0.0
H1228 H 0.8579 0.53404 0.06308 0.0
H1229 H 0.81874 0.45124 0.06042 0.0
H1230 H 0.69296 0.43144 0.16048 0.0
H1231 H 0.76291 0.3726 0.16245 0.0
Li1232 Li 0.4958 0.81592 0.16459 0.0
Li1233 Li 0.52411 0.77819 0.15279 0.0
Li1234 Li 0.4973 0.80598 0.12854 0.0
Li1235 Li 0.4731 0.77172 0.15255 0.0
C1236 C 0.54026 0.84497 0.14472 0.0
N1237 N 0.56361 0.89844 0.14232 0.0
C1238 C 0.5665 0.85054 0.15352 0.0
C1239 C 0.52619 0.86645 0.13436 0.0
C1240 C 0.57787 0.87775 0.15224 0.0
C1241 C 0.53826 0.89338 0.1334 0.0
C1242 C 0.51297 0.77788 0.19388 0.0
C1243 C 0.51913 0.76379 0.22838 0.0
N1244 N 0.54281 0.78003 0.22948 0.0
C1245 C 0.53737 0.79438 0.19535 0.0
C1246 C 0.50376 0.76242 0.21051 0.0
C1247 C 0.55215 0.79522 0.21348 0.0
C1248 C 0.46228 0.84506 0.19081 0.0
N1249 N 0.48934 0.84467 0.18404 0.0
C1250 C 0.50114 0.8842 0.20487 0.0
C1251 C 0.50892 0.86339 0.19096 0.0
C1252 C 0.47296 0.88573 0.21132 0.0
C1253 C 0.45351 0.86571 0.20429 0.0
H1254 H 0.44737 0.82943 0.18549 0.0
H1255 H 0.53048 0.86224 0.18576 0.0
C1256 C 0.58124 0.76656 0.14475 0.0
N1257 N 0.55846 0.75775 0.15545 0.0
C1258 C 0.60565 0.75003 0.14406 0.0
C1259 C 0.58302 0.71625 0.16606 0.0
C1260 C 0.55903 0.73342 0.16629 0.0
C1261 C 0.60656 0.72421 0.1545 0.0
H1262 H 0.58002 0.78591 0.13613 0.0
H1263 H 0.54041 0.72678 0.17443 0.0
C1264 C 0.4421 0.82977 0.1427 0.0
N1265 N 0.39796 0.86692 0.13611 0.0
C1266 C 0.41503 0.81949 0.13856 0.0
C1267 C 0.44666 0.85897 0.14364 0.0
C1268 C 0.39302 0.8386 0.13521 0.0
C1269 C 0.42409 0.87739 0.14025 0.0
C1270 C 0.51379 0.74044 0.12454 0.0
C1271 C 0.53503 0.74228 0.11003 0.0
C1272 C 0.5079 0.71442 0.13356 0.0
C1273 C 0.55032 0.71802 0.10497 0.0
C1274 C 0.52362 0.69064 0.12805 0.0
N1275 N 0.54435 0.69293 0.11401 0.0
C1276 C 0.51911 0.82063 0.09062 0.0
C1277 C 0.46932 0.82413 0.09346 0.0
C1278 C 0.51765 0.82625 0.07007 0.0
N1279 N 0.49509 0.81917 0.10173 0.0
C1280 C 0.46691 0.83017 0.07307 0.0
C1281 C 0.49119 0.8305 0.06094 0.0
H1282 H 0.53929 0.81628 0.0976 0.0
H1283 H 0.4505 0.82236 0.10249 0.0
C1284 C 0.43163 0.73845 0.17251 0.0
N1285 N 0.44183 0.74708 0.15447 0.0
C1286 C 0.40809 0.72061 0.17337 0.0
C1287 C 0.40608 0.72121 0.13711 0.0
C1288 C 0.42972 0.73881 0.13695 0.0
C1289 C 0.39494 0.71191 0.15549 0.0
H1290 H 0.44168 0.74553 0.18619 0.0
H1291 H 0.4384 0.74608 0.12285 0.0
O1292 O 0.52897 0.81838 0.14581 0.0
O1293 O 0.49808 0.77672 0.17631 0.0
O1294 O 0.46383 0.81123 0.14605 0.0
O1295 O 0.49931 0.76411 0.13026 0.0
H1296 H 0.5779 0.83404 0.16134 0.0
H1297 H 0.5063 0.86236 0.12699 0.0
H1298 H 0.59805 0.88241 0.15911 0.0
H1299 H 0.52752 0.91022 0.1255 0.0
H1300 H 0.51224 0.75194 0.24137 0.0
H1301 H 0.54486 0.8064 0.18266 0.0
H1302 H 0.48493 0.74949 0.20961 0.0
H1303 H 0.57106 0.80794 0.21482 0.0
H1304 H 0.51672 0.8992 0.21022 0.0
H1305 H 0.43173 0.86593 0.20929 0.0
H1306 H 0.62342 0.75709 0.13513 0.0
H1307 H 0.58265 0.69635 0.1741 0.0
H1308 H 0.41106 0.79699 0.13788 0.0
H1309 H 0.46723 0.86737 0.1473 0.0
H1310 H 0.37199 0.83092 0.13192 0.0
H1311 H 0.42731 0.90002 0.14099 0.0
H1312 H 0.53992 0.7623 0.10299 0.0
H1313 H 0.49162 0.71271 0.14491 0.0
H1314 H 0.56699 0.71917 0.0939 0.0
H1315 H 0.51943 0.6704 0.135 0.0
H1316 H 0.53692 0.8259 0.06132 0.0
H1317 H 0.44611 0.83375 0.06679 0.0
H1318 H 0.40002 0.71403 0.18784 0.0
H1319 H 0.39682 0.71467 0.12299 0.0
Li1320 Li 0.21466 0.51706 0.14798 0.0
Li1321 Li 0.18458 0.49574 0.12201 0.0
Li1322 Li 0.17243 0.49279 0.15746 0.0
Li1323 Li 0.21216 0.4657 0.14393 0.0
C1324 C 0.15104 0.54051 0.14553 0.0
N1325 N 0.10032 0.56482 0.15659 0.0
C1326 C 0.12747 0.53814 0.13303 0.0
C1327 C 0.14891 0.55541 0.16358 0.0
C1328 C 0.10199 0.55056 0.1389 0.0
C1329 C 0.12305 0.56749 0.16893 0.0
C1330 C 0.23629 0.49909 0.10592 0.0
C1331 C 0.24217 0.48538 0.07128 0.0
N1332 N 0.25471 0.51068 0.06742 0.0
C1333 C 0.24923 0.52497 0.10158 0.0
C1334 C 0.23274 0.47911 0.09063 0.0
C1335 C 0.25842 0.53041 0.08204 0.0
C1336 C 0.26831 0.53941 0.15455 0.0
N1337 N 0.24057 0.5467 0.15374 0.0
C1338 C 0.25193 0.59511 0.16021 0.0
C1339 C 0.23201 0.57388 0.15648 0.0
C1340 C 0.28076 0.58811 0.16123 0.0
C1341 C 0.28883 0.55981 0.15845 0.0
H1342 H 0.27449 0.5177 0.15193 0.0
H1343 H 0.20981 0.57909 0.1556 0.0
C1344 C 0.15376 0.47834 0.08795 0.0
N1345 N 0.17036 0.49927 0.09543 0.0
C1346 C 0.14678 0.47794 0.06762 0.0
C1347 C 0.17294 0.52142 0.06332 0.0
C1348 C 0.17884 0.5213 0.08383 0.0
C1349 C 0.15735 0.49907 0.05478 0.0
H1350 H 0.14669 0.46145 0.09765 0.0
H1351 H 0.19162 0.53794 0.09028 0.0
C1352 C 0.22877 0.49696 0.18329 0.0
N1353 N 0.26754 0.51727 0.21075 0.0
C1354 C 0.25504 0.48377 0.18542 0.0
C1355 C 0.22218 0.5204 0.1952 0.0
C1356 C 0.27435 0.49436 0.19939 0.0
C1357 C 0.24209 0.53038 0.20896 0.0
C1358 C 0.16876 0.4338 0.13771 0.0
C1359 C 0.15945 0.42079 0.15534 0.0
C1360 C 0.17663 0.41718 0.12128 0.0
C1361 C 0.15814 0.39129 0.15623 0.0
C1362 C 0.17508 0.38774 0.12279 0.0
N1363 N 0.16595 0.37552 0.14008 0.0
C1364 C 0.11561 0.48376 0.16757 0.0
C1365 C 0.14582 0.49056 0.19553 0.0
C1366 C 0.09317 0.47666 0.18018 0.0
N1367 N 0.14139 0.48998 0.1754 0.0
C1368 C 0.12397 0.48361 0.2087 0.0
C1369 C 0.09744 0.47573 0.20103 0.0
H1370 H 0.11289 0.48295 0.15147 0.0
H1371 H 0.16667 0.49489 0.20134 0.0
C1372 C 0.24975 0.42363 0.13019 0.0
N1373 N 0.23317 0.43142 0.14587 0.0
C1374 C 0.26609 0.39916 0.13128 0.0
C1375 C 0.24833 0.39124 0.16481 0.0
C1376 C 0.23198 0.41573 0.16295 0.0
C1377 C 0.26572 0.3828 0.14882 0.0
H1378 H 0.25073 0.43665 0.11695 0.0
H1379 H 0.21869 0.42254 0.17525 0.0
O1380 O 0.17599 0.52801 0.14025 0.0
O1381 O 0.22701 0.49344 0.12496 0.0
O1382 O 0.20978 0.48723 0.16944 0.0
O1383 O 0.17097 0.46262 0.13672 0.0
H1384 H 0.12875 0.52662 0.11903 0.0
H1385 H 0.16696 0.55737 0.17344 0.0
H1386 H 0.08352 0.54879 0.12942 0.0
H1387 H 0.12103 0.57893 0.18292 0.0
H1388 H 0.23931 0.47021 0.05929 0.0
H1389 H 0.25197 0.54082 0.11311 0.0
H1390 H 0.22218 0.45925 0.09354 0.0
H1391 H 0.26841 0.55037 0.07848 0.0
H1392 H 0.24489 0.61671 0.1623 0.0
H1393 H 0.31086 0.55363 0.15876 0.0
H1394 H 0.1339 0.46078 0.06196 0.0
H1395 H 0.18184 0.53811 0.05418 0.0
H1396 H 0.26064 0.46579 0.17621 0.0
H1397 H 0.20208 0.53104 0.19362 0.0
H1398 H 0.2948 0.48445 0.20112 0.0
H1399 H 0.23734 0.54862 0.21817 0.0
H1400 H 0.15361 0.43328 0.16828 0.0
H1401 H 0.18424 0.42688 0.10762 0.0
H1402 H 0.15106 0.38094 0.16979 0.0
H1403 H 0.18126 0.37462 0.11024 0.0
H1404 H 0.07304 0.47085 0.17365 0.0
H1405 H 0.12836 0.48267 0.22463 0.0
H1406 H 0.27961 0.39362 0.11876 0.0
H1407 H 0.24752 0.37913 0.17859 0.0
H1408 H 0.14069 0.20962 0.37032 0.0
H1409 H 0.13033 0.20947 0.30607 0.0
H1410 H 0.16849 0.17482 0.30276 0.0
H1411 H 0.20269 0.1423 0.31842 0.0
H1412 H 0.21311 0.14286 0.3827 0.0
H1413 H 0.17726 0.1798 0.38574 0.0
C1414 C 0.14693 0.20204 0.35561 0.0
C1415 C 0.13265 0.21182 0.33848 0.0
C1416 C 0.16885 0.18222 0.35385 0.0
C1417 C 0.14114 0.20227 0.31945 0.0
C1418 C 0.16283 0.18238 0.31757 0.0
C1419 C 0.19719 0.15069 0.33306 0.0
C1420 C 0.21039 0.13982 0.35031 0.0
C1421 C 0.17651 0.17186 0.33469 0.0
C1422 C 0.20339 0.15106 0.36919 0.0
C1423 C 0.18276 0.17203 0.37095 0.0
H1424 H 0.8459 0.2217 0.33088 0.0
H1425 H 0.91839 0.16642 0.33122 0.0
H1426 H 0.8875 0.12511 0.33267 0.0
H1427 H 0.83998 0.10469 0.33483 0.0
H1428 H 0.76718 0.15945 0.33394 0.0
H1429 H 0.79798 0.20097 0.3316 0.0
C1430 C 0.85483 0.20058 0.33122 0.0
C1431 C 0.88433 0.19706 0.33088 0.0
C1432 C 0.83691 0.17687 0.33198 0.0
C1433 C 0.89572 0.16961 0.3312 0.0
C1434 C 0.8781 0.14601 0.33215 0.0
C1435 C 0.83091 0.12574 0.33415 0.0
C1436 C 0.80143 0.12909 0.33469 0.0
C1437 C 0.8487 0.14939 0.3327 0.0
C1438 C 0.78985 0.1564 0.33346 0.0
C1439 C 0.80744 0.18012 0.33222 0.0
H1440 H 0.81987 0.87819 0.31598 0.0
H1441 H 0.77985 0.85062 0.37068 0.0
H1442 H 0.81305 0.81111 0.37322 0.0
H1443 H 0.85514 0.78599 0.36081 0.0
H1444 H 0.8945 0.81291 0.30571 0.0
H1445 H 0.85982 0.85099 0.30227 0.0
C1446 C 0.81841 0.86341 0.32838 0.0
C1447 C 0.79764 0.86732 0.34319 0.0
C1448 C 0.83746 0.84072 0.32967 0.0
C1449 C 0.79562 0.84789 0.35906 0.0
C1450 C 0.81467 0.82542 0.36057 0.0
C1451 C 0.85597 0.80015 0.34802 0.0
C1452 C 0.87736 0.79684 0.3336 0.0
C1453 C 0.83591 0.82187 0.34612 0.0
C1454 C 0.87809 0.81502 0.31694 0.0
C1455 C 0.85838 0.83685 0.31503 0.0
H1456 H 0.09905 0.82989 0.3485 0.0
H1457 H 0.1601 0.76833 0.32832 0.0
H1458 H 0.19751 0.80394 0.33028 0.0
H1459 H 0.2128 0.85263 0.33784 0.0
H1460 H 0.15095 0.91423 0.35679 0.0
H1461 H 0.11393 0.8785 0.3551 0.0
C1462 C 0.12045 0.82431 0.34423 0.0
C1463 C 0.1267 0.79651 0.33814 0.0
C1464 C 0.14175 0.84488 0.34525 0.0
C1465 C 0.15473 0.78952 0.33319 0.0
C1466 C 0.1761 0.8099 0.33422 0.0
C1467 C 0.19117 0.8583 0.3414 0.0
C1468 C 0.18475 0.88608 0.34754 0.0
C1469 C 0.16985 0.83767 0.34023 0.0
C1470 C 0.15664 0.89294 0.35237 0.0
C1471 C 0.13538 0.87255 0.35128 0.0
H1472 H 0.14237 0.7963 0.63048 0.0
H1473 H 0.11259 0.81561 0.69009 0.0
H1474 H 0.15043 0.85031 0.69423 0.0
H1475 H 0.19085 0.87652 0.68039 0.0
H1476 H 0.22011 0.85763 0.62056 0.0
H1477 H 0.18376 0.82131 0.61709 0.0
C1478 C 0.14415 0.80817 0.64435 0.0
C1479 C 0.12463 0.8035 0.65991 0.0
C1480 C 0.16588 0.82813 0.6466 0.0
C1481 C 0.12748 0.81866 0.67794 0.0
C1482 C 0.14901 0.83861 0.68028 0.0
C1483 C 0.18924 0.86444 0.6666 0.0
C1484 C 0.20813 0.86982 0.65075 0.0
C1485 C 0.16816 0.84372 0.66464 0.0
C1486 C 0.20605 0.85371 0.63308 0.0
C1487 C 0.18514 0.83307 0.63101 0.0
H1488 H 0.22523 0.15162 0.64518 0.0
H1489 H 0.17135 0.09329 0.67718 0.0
H1490 H 0.13489 0.12945 0.67978 0.0
H1491 H 0.11754 0.17679 0.67193 0.0
H1492 H 0.17208 0.23636 0.64175 0.0
H1493 H 0.20907 0.20045 0.63956 0.0
C1494 C 0.20572 0.1469 0.65302 0.0
C1495 C 0.20104 0.11956 0.66077 0.0
C1496 C 0.18488 0.16796 0.65472 0.0
C1497 C 0.17538 0.11387 0.67065 0.0
C1498 C 0.15454 0.13462 0.67228 0.0
C1499 C 0.1377 0.18224 0.66525 0.0
C1500 C 0.14189 0.20936 0.65702 0.0
C1501 C 0.15897 0.16163 0.66423 0.0
C1502 C 0.16803 0.2156 0.64798 0.0
C1503 C 0.18928 0.19511 0.64681 0.0
H1504 H 0.85665 0.21308 0.66454 0.0
H1505 H 0.9188 0.14631 0.66633 0.0
H1506 H 0.88132 0.11093 0.66748 0.0
H1507 H 0.83119 0.09888 0.66617 0.0
H1508 H 0.76861 0.16528 0.6651 0.0
H1509 H 0.80605 0.20093 0.66543 0.0
C1510 C 0.86198 0.19081 0.66551 0.0
C1511 C 0.89049 0.18235 0.6652 0.0
C1512 C 0.84029 0.17053 0.66613 0.0
C1513 C 0.89703 0.15337 0.66622 0.0
C1514 C 0.87562 0.13313 0.66696 0.0
C1515 C 0.82564 0.12113 0.66642 0.0
C1516 C 0.79708 0.12934 0.66562 0.0
C1517 C 0.84721 0.14146 0.66665 0.0
C1518 C 0.79041 0.15834 0.66547 0.0
C1519 C 0.8118 0.17874 0.66575 0.0
H1520 H 0.77991 0.85111 0.64781 0.0
H1521 H 0.83582 0.91392 0.67311 0.0
H1522 H 0.8737 0.87917 0.67488 0.0
H1523 H 0.89149 0.83163 0.66826 0.0
H1524 H 0.83525 0.7677 0.64487 0.0
H1525 H 0.797 0.80232 0.64332 0.0
C1526 C 0.80023 0.85712 0.654 0.0
C1527 C 0.805 0.88525 0.66011 0.0
C1528 C 0.82195 0.8369 0.65521 0.0
C1529 C 0.83165 0.89264 0.66787 0.0
C1530 C 0.85332 0.87272 0.66902 0.0
C1531 C 0.87075 0.82501 0.66319 0.0
C1532 C 0.86637 0.79701 0.6567 0.0
C1533 C 0.84878 0.84488 0.66258 0.0
C1534 C 0.83943 0.78917 0.6497 0.0
C1535 C 0.81746 0.80893 0.64892 0.0
H1536 H 0.59973 0.66246 0.84588 0.0
H1537 H 0.65771 0.72809 0.82777 0.0
H1538 H 0.69508 0.69292 0.82333 0.0
H1539 H 0.71167 0.64364 0.8257 0.0
H1540 H 0.65375 0.57867 0.84525 0.0
H1541 H 0.61602 0.61345 0.84788 0.0
C1542 C 0.6206 0.66912 0.8411 0.0
C1543 C 0.62595 0.69789 0.83731 0.0
C1544 C 0.64201 0.64888 0.83876 0.0
C1545 C 0.65295 0.70606 0.83067 0.0
C1546 C 0.67438 0.68598 0.82823 0.0
C1547 C 0.69082 0.63711 0.83059 0.0
C1548 C 0.68562 0.60851 0.83519 0.0
C1549 C 0.66921 0.65735 0.8324 0.0
C1550 C 0.65832 0.60039 0.84125 0.0
C1551 C 0.63673 0.62033 0.84295 0.0
H1552 H 0.36645 0.71449 0.81489 0.0
H1553 H 0.37072 0.72209 0.87935 0.0
H1554 H 0.33354 0.68672 0.88292 0.0
H1555 H 0.30185 0.65159 0.86789 0.0
H1556 H 0.29859 0.6426 0.80352 0.0
H1557 H 0.33317 0.68063 0.79976 0.0
C1558 C 0.35918 0.70843 0.82971 0.0
C1559 C 0.37136 0.72092 0.84681 0.0
C1560 C 0.33804 0.68776 0.83168 0.0
C1561 C 0.36145 0.71312 0.86591 0.0
C1562 C 0.34035 0.69271 0.86799 0.0
C1563 C 0.30874 0.65794 0.85304 0.0
C1564 C 0.29782 0.64414 0.83603 0.0
C1565 C 0.32882 0.67959 0.851 0.0
C1566 C 0.30652 0.653 0.81686 0.0
C1567 C 0.32643 0.67462 0.81471 0.0
H1568 H 0.28571 0.35634 0.83245 0.0
H1569 H 0.34486 0.42256 0.84756 0.0
H1570 H 0.38265 0.38787 0.85055 0.0
H1571 H 0.39888 0.33877 0.84957 0.0
H1572 H 0.33977 0.27204 0.83578 0.0
H1573 H 0.30207 0.30688 0.83156 0.0
C1574 C 0.30684 0.36316 0.8365 0.0
C1575 C 0.31239 0.39208 0.83968 0.0
C1576 C 0.32851 0.34301 0.83845 0.0
C1577 C 0.34001 0.40055 0.84467 0.0
C1578 C 0.36164 0.38069 0.84655 0.0
C1579 C 0.37769 0.33179 0.84583 0.0
C1580 C 0.37215 0.30282 0.84311 0.0
C1581 C 0.3561 0.35188 0.84359 0.0
C1582 C 0.34469 0.29423 0.83781 0.0
C1583 C 0.32308 0.31413 0.8355 0.0
H1584 H 0.69602 0.35489 0.82283 0.0
H1585 H 0.69594 0.3562 0.88756 0.0
H1586 H 0.66122 0.31799 0.88814 0.0
H1587 H 0.62911 0.28599 0.87029 0.0
H1588 H 0.62894 0.28461 0.80558 0.0
H1589 H 0.66572 0.32096 0.80495 0.0
C1590 C 0.68874 0.3465 0.83706 0.0
C1591 C 0.69847 0.35847 0.85512 0.0
C1592 C 0.66867 0.32462 0.83729 0.0
C1593 C 0.68851 0.34763 0.87344 0.0
C1594 C 0.66874 0.32571 0.87379 0.0
C1595 C 0.63751 0.29325 0.85605 0.0
C1596 C 0.62637 0.28259 0.83801 0.0
C1597 C 0.65843 0.31428 0.85581 0.0
C1598 C 0.63704 0.29265 0.81967 0.0
C1599 C 0.65809 0.31338 0.81931 0.0
H1600 H 0.67757 0.39291 0.13942 0.0
H1601 H 0.72716 0.35063 0.18468 0.0
H1602 H 0.69307 0.31168 0.18541 0.0
H1603 H 0.64869 0.29005 0.17342 0.0
H1604 H 0.59885 0.33374 0.12889 0.0
H1605 H 0.63354 0.37174 0.12769 0.0
C1606 C 0.6808 0.37535 0.14963 0.0
C1607 C 0.70475 0.37482 0.1621 0.0
C1608 C 0.6611 0.35322 0.15005 0.0
C1609 C 0.70897 0.3515 0.17485 0.0
C1610 C 0.68942 0.3293 0.17534 0.0
C1611 C 0.64536 0.30797 0.16355 0.0
C1612 C 0.62123 0.30892 0.15119 0.0
C1613 C 0.66533 0.32999 0.16305 0.0
C1614 C 0.61743 0.33217 0.13831 0.0
C1615 C 0.63716 0.35404 0.13771 0.0
H1616 H 0.63263 0.69321 0.18364 0.0
H1617 H 0.63524 0.71135 0.12021 0.0
H1618 H 0.67349 0.67734 0.11586 0.0
H1619 H 0.70457 0.64072 0.12968 0.0
H1620 H 0.70096 0.62116 0.19285 0.0
H1621 H 0.66494 0.65755 0.1977 0.0
C1622 C 0.64158 0.6897 0.16887 0.0
C1623 C 0.63106 0.70482 0.15229 0.0
C1624 C 0.66339 0.66983 0.16641 0.0
C1625 C 0.64317 0.70031 0.13329 0.0
C1626 C 0.66491 0.68069 0.13075 0.0
C1627 C 0.69587 0.64439 0.14451 0.0
C1628 C 0.70534 0.62812 0.16084 0.0
C1629 C 0.67493 0.66508 0.14714 0.0
C1630 C 0.69424 0.63353 0.18004 0.0
C1631 C 0.67349 0.6542 0.1828 0.0
H1632 H 0.3875 0.66452 0.17799 0.0
H1633 H 0.34644 0.71668 0.13362 0.0
H1634 H 0.3066 0.68386 0.13242 0.0
H1635 H 0.28466 0.63901 0.14261 0.0
H1636 H 0.32609 0.58636 0.18649 0.0
H1637 H 0.36443 0.62079 0.1894 0.0
C1638 C 0.36963 0.66889 0.16828 0.0
C1639 C 0.36998 0.69291 0.15585 0.0
C1640 C 0.34693 0.64979 0.16752 0.0
C1641 C 0.34684 0.69813 0.14315 0.0
C1642 C 0.32401 0.67944 0.1425 0.0
C1643 C 0.30186 0.63533 0.15304 0.0
C1644 C 0.3026 0.61019 0.16429 0.0
C1645 C 0.324 0.65501 0.15443 0.0
C1646 C 0.32522 0.60546 0.17753 0.0
C1647 C 0.3471 0.62514 0.17923 0.0
H1648 H 0.30119 0.37077 0.17956 0.0
H1649 H 0.27342 0.34004 0.12193 0.0
H1650 H 0.30889 0.30245 0.12309 0.0
H1651 H 0.35031 0.28089 0.13922 0.0
H1652 H 0.37938 0.31291 0.19618 0.0
H1653 H 0.34081 0.34734 0.19666 0.0
C1654 C 0.30258 0.35548 0.16746 0.0
C1655 C 0.28481 0.35813 0.15068 0.0
C1656 C 0.3234 0.33435 0.16805 0.0
C1657 C 0.28706 0.33848 0.13493 0.0
C1658 C 0.30731 0.31702 0.13559 0.0
C1659 C 0.34784 0.29506 0.1519 0.0
C1660 C 0.36762 0.29445 0.16762 0.0
C1661 C 0.32597 0.31511 0.15188 0.0
C1662 C 0.3645 0.3132 0.18383 0.0
C1663 C 0.34246 0.33284 0.18412 0.0
H1664 H 0.02014 0.39632 0.25253 0.0
H1665 H 0.03649 0.4605 0.29711 0.0
H1666 H 0.06041 0.48949 0.27194 0.0
H1667 H 0.08133 0.49389 0.23822 0.0
H1668 H 0.06551 0.42879 0.19419 0.0
H1669 H 0.03589 0.40342 0.21802 0.0
C1670 C 0.02817 0.41701 0.25667 0.0
C1671 C 0.0268 0.42605 0.27675 0.0
C1672 C 0.04214 0.43338 0.2422 0.0
C1673 C 0.03771 0.45279 0.28183 0.0
C1674 C 0.05136 0.4694 0.26744 0.0
C1675 C 0.07112 0.47431 0.2338 0.0
C1676 C 0.07583 0.46318 0.2145 0.0
C1677 C 0.05454 0.45945 0.24774 0.0
C1678 C 0.06209 0.43802 0.20887 0.0
C1679 C 0.04534 0.42331 0.22256 0.0
H1680 H 0.57311 0.05562 0.29313 0.0
H1681 H 0.60458 0.99903 0.24743 0.0
H1682 H 0.57705 0.0241 0.22207 0.0
H1683 H 0.5484 0.0653 0.21247 0.0
H1684 H 0.51567 0.12054 0.25854 0.0
H1685 H 0.53909 0.09233 0.28424 0.0
C1686 C 0.57338 0.04811 0.27776 0.0
C1687 C 0.59127 0.02564 0.27222 0.0
C1688 C 0.55751 0.06258 0.26326 0.0
C1689 C 0.59151 0.01664 0.25209 0.0
C1690 C 0.57569 0.03091 0.23757 0.0
C1691 C 0.54574 0.07077 0.22816 0.0
C1692 C 0.53068 0.09531 0.23351 0.0
C1693 C 0.55928 0.05444 0.2429 0.0
C1694 C 0.5277 0.10215 0.25394 0.0
C1695 C 0.541 0.08598 0.26867 0.0
H1696 H 0.92095 0.50408 0.24042 0.0
H1697 H 0.93505 0.56843 0.19558 0.0
H1698 H 0.96545 0.59426 0.21864 0.0
H1699 H 0.98255 0.60197 0.25278 0.0
H1700 H 0.96751 0.53883 0.29827 0.0
H1701 H 0.9428 0.50929 0.27378 0.0
C1702 C 0.9309 0.52362 0.23566 0.0
C1703 C 0.92552 0.53436 0.21633 0.0
C1704 C 0.9479 0.5388 0.24919 0.0
C1705 C 0.93898 0.55947 0.21027 0.0
C1706 C 0.95619 0.57445 0.22353 0.0
C1707 C 0.9746 0.5814 0.25725 0.0
C1708 C 0.97663 0.57278 0.27739 0.0
C1709 C 0.96009 0.56475 0.24319 0.0
C1710 C 0.96582 0.54618 0.28293 0.0
C1711 C 0.95171 0.52927 0.26893 0.0
H1712 H 0.42983 0.9551 0.28533 0.0
H1713 H 0.36771 0.98095 0.24161 0.0
H1714 H 0.39391 0.95666 0.21523 0.0
H1715 H 0.43088 0.92304 0.20553 0.0
H1716 H 0.49314 0.89687 0.24884 0.0
H1717 H 0.47094 0.92689 0.27441 0.0
C1718 C 0.42245 0.95607 0.26994 0.0
C1719 C 0.39657 0.96935 0.2655 0.0
C1720 C 0.43753 0.94182 0.25484 0.0
C1721 C 0.38724 0.97033 0.24548 0.0
C1722 C 0.40222 0.95649 0.23039 0.0
C1723 C 0.43982 0.92439 0.2205 0.0
C1724 C 0.46329 0.90768 0.22549 0.0
C1725 C 0.42678 0.94133 0.23504 0.0
C1726 C 0.47503 0.90965 0.24477 0.0
C1727 C 0.46223 0.92663 0.25937 0.0
H1728 H 0.08056 0.5145 0.75665 0.0
H1729 H 0.07402 0.57896 0.80246 0.0
H1730 H 0.044 0.60703 0.7808 0.0
H1731 H 0.02489 0.61658 0.74754 0.0
H1732 H 0.03505 0.5551 0.70029 0.0
H1733 H 0.05809 0.52266 0.72378 0.0
C1734 C 0.0725 0.53463 0.76195 0.0
C1735 C 0.07987 0.54448 0.78123 0.0
C1736 C 0.05603 0.55143 0.74905 0.0
C1737 C 0.06855 0.57038 0.78792 0.0
C1738 C 0.05156 0.58675 0.77541 0.0
C1739 C 0.03199 0.59599 0.74241 0.0
C1740 C 0.0287 0.58844 0.72215 0.0
C1741 C 0.04599 0.57794 0.75577 0.0
C1742 C 0.03731 0.56141 0.71582 0.0
C1743 C 0.05071 0.54296 0.72921 0.0
H1744 H 0.47879 0.07525 0.76843 0.0
H1745 H 0.40219 0.07675 0.80346 0.0
H1746 H 0.37858 0.04705 0.77862 0.0
H1747 H 0.3781 0.02538 0.74541 0.0
H1748 H 0.45393 0.02472 0.7095 0.0
H1749 H 0.47955 0.04924 0.73627 0.0
C1750 C 0.45712 0.06854 0.77077 0.0
C1751 C 0.44213 0.07834 0.78761 0.0
C1752 C 0.44349 0.05189 0.75621 0.0
C1753 C 0.414 0.06973 0.79045 0.0
C1754 C 0.40051 0.05276 0.77628 0.0
C1755 C 0.40043 0.02988 0.74362 0.0
C1756 C 0.41406 0.02329 0.72547 0.0
C1757 C 0.41481 0.04438 0.75886 0.0
C1758 C 0.44288 0.02983 0.72327 0.0
C1759 C 0.45753 0.04383 0.73856 0.0
H1760 H 0.95494 0.37241 0.74347 0.0
H1761 H 0.96563 0.44468 0.70484 0.0
H1762 H 0.94383 0.47527 0.73029 0.0
H1763 H 0.91814 0.48033 0.76248 0.0
H1764 H 0.90646 0.40666 0.79993 0.0
H1765 H 0.93256 0.37793 0.77614 0.0
C1766 C 0.95258 0.3949 0.74067 0.0
C1767 C 0.96142 0.40627 0.72226 0.0
C1768 C 0.93986 0.4121 0.75517 0.0
C1769 C 0.95889 0.4355 0.71894 0.0
C1770 C 0.94631 0.45291 0.73342 0.0
C1771 C 0.92146 0.45803 0.76546 0.0
C1772 C 0.91032 0.44579 0.78305 0.0
C1773 C 0.93612 0.4413 0.75143 0.0
C1774 C 0.91515 0.41689 0.78677 0.0
C1775 C 0.92985 0.40027 0.77305 0.0
H1776 H 0.61743 0.97865 0.74279 0.0
H1777 H 0.54382 0.97553 0.70472 0.0
H1778 H 0.51764 0.95044 0.73097 0.0
H1779 H 0.51771 0.92481 0.76331 0.0
H1780 H 0.59259 0.92617 0.80013 0.0
H1781 H 0.61618 0.95701 0.77597 0.0
C1782 C 0.59541 0.9732 0.74043 0.0
C1783 C 0.58254 0.97894 0.72188 0.0
C1784 C 0.58085 0.95823 0.75532 0.0
C1785 C 0.55419 0.97116 0.71887 0.0
C1786 C 0.53926 0.95681 0.73385 0.0
C1787 C 0.53897 0.9324 0.76615 0.0
C1788 C 0.55355 0.92321 0.78332 0.0
C1789 C 0.55265 0.94952 0.75191 0.0
C1790 C 0.58115 0.93286 0.78687 0.0
C1791 C 0.59461 0.95044 0.77309 0.0
H1792 H 0.98409 0.28861 0.46571 0.0
H1793 H 0.00037 0.3781 0.46111 0.0
H1794 H 0.00023 0.38215 0.49779 0.0
H1795 H 0.997 0.3596 0.53125 0.0
H1796 H 0.98111 0.26983 0.53506 0.0
H1797 H 0.97964 0.26654 0.49863 0.0
C1798 C 0.98773 0.30899 0.47275 0.0
C1799 C 0.99252 0.33296 0.46079 0.0
C1800 C 0.98769 0.31109 0.4937 0.0
C1801 C 0.99656 0.35936 0.47005 0.0
C1802 C 0.99662 0.36164 0.491 0.0
C1803 C 0.99324 0.33936 0.52405 0.0
C1804 C 0.98904 0.31504 0.53585 0.0
C1805 C 0.99247 0.33757 0.50299 0.0
C1806 C 0.98397 0.28896 0.52634 0.0
C1807 C 0.98329 0.287 0.5055 0.0
H1808 H 0.66613 0.04548 0.52798 0.0
H1809 H 0.64968 0.9563 0.53575 0.0
H1810 H 0.64622 0.95038 0.49951 0.0
H1811 H 0.6515 0.9697 0.46556 0.0
H1812 H 0.67287 0.05793 0.45804 0.0
H1813 H 0.67057 0.06493 0.49415 0.0
C1814 C 0.66192 0.02469 0.52179 0.0
C1815 C 0.6584 0.00138 0.53468 0.0
C1816 C 0.66087 0.02121 0.50091 0.0
C1817 C 0.65219 0.97475 0.5263 0.0
C1818 C 0.65046 0.97126 0.50552 0.0
C1819 C 0.65577 0.99046 0.47178 0.0
C1820 C 0.66242 0.01318 0.45896 0.0
C1821 C 0.65536 0.99422 0.49268 0.0
C1822 C 0.66725 0.04007 0.46738 0.0
C1823 C 0.66623 0.04409 0.48811 0.0
H1824 H 0.0337 0.67625 0.53103 0.0
H1825 H 0.94764 0.64612 0.53419 0.0
H1826 H 0.94565 0.64358 0.49768 0.0
H1827 H 0.96766 0.65203 0.46473 0.0
H1828 H 0.0543 0.6799 0.46179 0.0
H1829 H 0.05703 0.68031 0.49842 0.0
C1830 C 0.01467 0.66848 0.52386 0.0
C1831 C 0.99076 0.66169 0.53549 0.0
C1832 C 0.01378 0.66662 0.50286 0.0
C1833 C 0.96619 0.65213 0.5257 0.0
C1834 C 0.96506 0.65048 0.50479 0.0
C1835 C 0.98716 0.65799 0.47217 0.0
C1836 C 0.0107 0.66606 0.46066 0.0
C1837 C 0.98858 0.65811 0.49321 0.0
C1838 C 0.03597 0.67344 0.47038 0.0
C1839 C 0.03748 0.67384 0.4913 0.0
H1840 H 0.34733 0.95861 0.5288 0.0
H1841 H 0.36401 0.04779 0.5363 0.0
H1842 H 0.3691 0.05312 0.50009 0.0
H1843 H 0.36398 0.03352 0.46618 0.0
H1844 H 0.34195 0.9454 0.45892 0.0
H1845 H 0.34416 0.93866 0.49503 0.0
C1846 C 0.35203 0.97926 0.52255 0.0
C1847 C 0.35492 0.0028 0.53532 0.0
C1848 C 0.35393 0.98241 0.50167 0.0
C1849 C 0.36185 0.02921 0.52692 0.0
C1850 C 0.36451 0.03235 0.50616 0.0
C1851 C 0.35964 0.01282 0.47245 0.0
C1852 C 0.35262 0.99011 0.4597 0.0
C1853 C 0.35982 0.00926 0.49337 0.0
C1854 C 0.34779 0.96328 0.46819 0.0
C1855 C 0.34873 0.95941 0.48893 0.0
H1856 H 0.46793 0.82103 0.968 0.0
H1857 H 0.54495 0.86966 0.96553 0.0
H1858 H 0.54617 0.87199 0.00222 0.0
H1859 H 0.52632 0.85834 0.03496 0.0
H1860 H 0.45053 0.80747 0.03687 0.0
H1861 H 0.44745 0.80867 0.00048 0.0
C1862 C 0.48471 0.83259 0.97548 0.0
C1863 C 0.50628 0.8452 0.9641 0.0
C1864 C 0.48547 0.83348 0.99649 0.0
C1865 C 0.52819 0.85962 0.97401 0.0
C1866 C 0.52887 0.86098 0.99496 0.0
C1867 C 0.50916 0.84746 0.02742 0.0
C1868 C 0.48867 0.83293 0.03875 0.0
C1869 C 0.50784 0.84761 0.00636 0.0
C1870 C 0.46635 0.8193 0.02867 0.0
C1871 C 0.46468 0.81972 0.00779 0.0
H1872 H 0.15687 0.46861 0.96257 0.0
H1873 H 0.15878 0.55975 0.95785 0.0
H1874 H 0.15338 0.56386 0.99402 0.0
H1875 H 0.15172 0.54179 0.02723 0.0
H1876 H 0.15635 0.45071 0.03202 0.0
H1877 H 0.15534 0.44657 0.99572 0.0
C1878 C 0.15634 0.48942 0.96939 0.0
C1879 C 0.15839 0.51378 0.95732 0.0
C1880 C 0.15438 0.49172 0.99034 0.0
C1881 C 0.15684 0.54054 0.96656 0.0
C1882 C 0.15403 0.54296 0.98735 0.0
C1883 C 0.1527 0.52099 0.02042 0.0
C1884 C 0.15416 0.49667 0.03258 0.0
C1885 C 0.15336 0.5187 0.99942 0.0
C1886 C 0.15468 0.46991 0.02326 0.0
C1887 C 0.15444 0.46746 0.0024 0.0
H1888 H 0.53039 0.17891 0.03762 0.0
H1889 H 0.45217 0.13224 0.04156 0.0
H1890 H 0.44998 0.1294 0.00499 0.0
H1891 H 0.46929 0.14201 0.97186 0.0
H1892 H 0.5477 0.18831 0.9683 0.0
H1893 H 0.55125 0.18858 0.00481 0.0
C1894 C 0.51314 0.16756 0.03057 0.0
C1895 C 0.49143 0.15591 0.0424 0.0
C1896 C 0.51207 0.16588 0.00957 0.0
C1897 C 0.46897 0.14179 0.03286 0.0
C1898 C 0.46775 0.14004 0.01194 0.0
C1899 C 0.48718 0.15207 0.9791 0.0
C1900 C 0.50815 0.16518 0.96737 0.0
C1901 C 0.48898 0.15238 0.00014 0.0
C1902 C 0.53142 0.17781 0.97695 0.0
C1903 C 0.53337 0.17816 0.99784 0.0
H1904 H 0.84291 0.468 0.96559 0.0
H1905 H 0.83432 0.55899 0.96326 0.0
H1906 H 0.83598 0.56115 -0.00027 0.0
H1907 H 0.83636 0.53699 0.03219 0.0
H1908 H 0.85028 0.44666 0.03436 0.0
H1909 H 0.85032 0.44474 0.99789 0.0
C1910 C 0.84216 0.48847 0.97288 0.0
C1911 C 0.83799 0.51322 0.96147 0.0
C1912 C 0.84382 0.48973 0.99389 0.0
C1913 C 0.83666 0.53941 0.97151 0.0
C1914 C 0.83784 0.54074 0.99243 0.0
C1915 C 0.84016 0.51691 0.02482 0.0
C1916 C 0.84278 0.49194 0.03624 0.0
C1917 C 0.84086 0.51597 0.00377 0.0
C1918 C 0.8473 0.46617 0.02613 0.0
C1919 C 0.84757 0.46503 0.0052 0.0
loop_
_geom_bond_atom_site_label_1
_geom_bond_atom_site_label_2
_geom_bond_distance
_geom_bond_site_symmetry_2
_ccdc_geom_bond_type
Li0 N17 1.990 . S
Li0 O60 1.956 1_455 S
Li0 O61 1.970 . S
Li0 O62 1.961 . S
Li1 N25 1.990 . S
Li1 O60 1.970 1_455 S
Li1 O61 1.956 . S
Li1 O63 1.961 1_455 S
Li2 N47 1.990 . S
Li2 O60 1.961 . S
Li2 O62 1.956 1_655 S
Li2 O63 1.970 . S
Li3 N53 1.990 . S
Li3 O61 1.961 . S
Li3 O62 1.970 . S
Li3 O63 1.956 1_455 S
C4 C6 1.348 . S
C4 C7 1.356 . S
C4 O60 1.325 . S
N5 C8 1.314 . S
N5 C9 1.279 . S
C6 C4 1.348 . S
C6 C8 1.353 . S
C6 H64 0.929 1_655 S
C7 C4 1.356 . S
C7 C9 1.358 . S
C7 H65 0.930 . S
C8 N5 1.314 . S
C8 C6 1.353 . S
C8 H66 0.930 . S
C9 N5 1.279 . S
C9 C7 1.358 . S
C9 H67 0.930 . S
C10 C13 1.348 . S
C10 C14 1.356 . S
C10 O61 1.325 . S
C11 N12 1.279 . S
C11 C14 1.358 . S
C11 H68 0.930 . S
N12 C11 1.279 . S
N12 C15 1.314 . S
C13 C10 1.348 . S
C13 C15 1.353 . S
C13 H69 0.929 . S
C14 C10 1.356 . S
C14 C11 1.358 . S
C14 H70 0.930 . S
C15 N12 1.314 . S
C15 C13 1.353 . S
C15 H71 0.930 . S
C16 N17 1.314 . S
C16 C21 1.353 . S
C16 H22 0.930 . S
N17 Li0 1.990 . S
N17 C16 1.314 . S
N17 C19 1.279 . S
C18 C19 1.358 . S
C18 C20 1.356 . S
C18 H72 0.930 . S
C19 N17 1.279 . S
C19 C18 1.358 . S
C19 H23 0.930 . S
C20 C18 1.356 . S
C20 C21 1.348 . S
C21 C16 1.353 . S
C21 C20 1.348 . S
C21 H73 0.929 . S
H22 C16 0.930 . S
H23 C19 0.930 . S
C24 N25 1.314 1_655 S
C24 C26 1.353 . S
C24 H30 0.930 . S
N25 Li1 1.990 . S
N25 C24 1.314 1_455 S
N25 C28 1.279 . S
C26 C24 1.353 . S
C26 C29 1.348 . S
C26 H74 0.929 . S
C27 C28 1.358 . S
C27 C29 1.356 1_455 S
C27 H75 0.930 . S
C28 N25 1.279 . S
C28 C27 1.358 . S
C28 H31 0.930 . S
C29 C26 1.348 . S
C29 C27 1.356 1_655 S
H30 C24 0.930 . S
H31 C28 0.930 . S
C32 C34 1.348 . S
C32 C35 1.356 . S
C32 O62 1.325 . S
N33 C36 1.314 . S
N33 C37 1.279 . S
C34 C32 1.348 . S
C34 C36 1.353 . S
C34 H76 0.928 1_455 S
C35 C32 1.356 . S
C35 C37 1.358 . S
C35 H77 0.930 . S
C36 N33 1.314 . S
C36 C34 1.353 . S
C36 H78 0.930 . S
C37 N33 1.279 . S
C37 C35 1.358 . S
C37 H79 0.930 . S
C38 C39 1.348 . S
C38 C40 1.356 . S
C38 O63 1.325 . S
C39 C38 1.348 . S
C39 C41 1.353 . S
C39 H80 0.929 . S
C40 C38 1.356 . S
C40 C42 1.358 . S
C40 H81 0.930 . S
C41 C39 1.353 . S
C41 N43 1.314 . S
C41 H82 0.930 . S
C42 C40 1.358 . S
C42 N43 1.279 . S
C42 H83 0.930 . S
N43 C41 1.314 . S
N43 C42 1.279 . S
C44 C46 1.353 . S
C44 N47 1.314 . S
C44 H50 0.930 . S
C45 N47 1.279 . S
C45 C48 1.358 . S
C45 H51 0.930 . S
C46 C44 1.353 . S
C46 C49 1.348 . S
C46 H84 0.929 . S
N47 Li2 1.990 . S
N47 C44 1.314 . S
N47 C45 1.279 . S
C48 C45 1.358 . S
C48 C49 1.356 . S
C48 H85 0.930 . S
C49 C46 1.348 . S
C49 C48 1.356 . S
H50 C44 0.930 . S
H51 C45 0.930 . S
C52 N53 1.314 . S
C52 C54 1.353 . S
C52 H58 0.930 . S
N53 Li3 1.990 . S
N53 C52 1.314 . S
N53 C56 1.279 1_455 S
C54 C52 1.353 . S
C54 C57 1.348 . S
C54 H86 0.929 . S
C55 C56 1.358 1_455 S
C55 C57 1.356 . S
C55 H87 0.930 1_455 S
C56 N53 1.279 1_655 S
C56 C55 1.358 1_655 S
C56 H59 0.930 . S
C57 C54 1.348 . S
C57 C55 1.356 . S
H58 C52 0.930 . S
H59 C56 0.930 . S
O60 Li0 1.956 1_655 S
O60 Li1 1.970 1_655 S
O60 Li2 1.961 . S
O60 C4 1.325 . S
O61 Li0 1.970 . S
O61 Li1 1.956 . S
O61 Li3 1.961 . S
O61 C10 1.325 . S
O62 Li0 1.961 . S
O62 Li2 1.956 1_455 S
O62 Li3 1.970 . S
O62 C32 1.325 . S
O63 Li1 1.961 1_655 S
O63 Li2 1.970 . S
O63 Li3 1.956 1_655 S
O63 C38 1.325 . S
H64 C6 0.929 1_455 S
H65 C7 0.930 . S
H66 C8 0.930 . S
H67 C9 0.930 . S
H68 C11 0.930 . S
H69 C13 0.929 . S
H70 C14 0.930 . S
H71 C15 0.930 . S
H72 C18 0.930 . S
H73 C21 0.929 . S
H74 C26 0.929 . S
H75 C27 0.930 . S
H76 C34 0.928 1_655 S
H77 C35 0.930 . S
H78 C36 0.930 . S
H79 C37 0.930 . S
H80 C39 0.929 . S
H81 C40 0.930 . S
H82 C41 0.930 . S
H83 C42 0.930 . S
H84 C46 0.929 . S
H85 C48 0.930 . S
H86 C54 0.929 . S
H87 C55 0.930 1_655 S
Li88 N105 1.990 . S
Li88 O148 1.956 . S
Li88 O149 1.970 . S
Li88 O150 1.961 1_545 S
Li89 N113 1.990 . S
Li89 O148 1.970 . S
Li89 O149 1.956 . S
Li89 O151 1.961 1_545 S
Li90 N135 1.990 . S
Li90 O148 1.961 1_565 S
Li90 O150 1.956 . S
Li90 O151 1.970 . S
Li91 N141 1.990 . S
Li91 O149 1.961 . S
Li91 O150 1.970 1_545 S
Li91 O151 1.956 1_545 S
C92 C94 1.348 . S
C92 C95 1.356 1_545 S
C92 O148 1.325 . S
N93 C96 1.314 . S
N93 C97 1.279 1_545 S
C94 C92 1.348 . S
C94 C96 1.353 . S
C94 H152 0.929 . S
C95 C92 1.356 1_565 S
C95 C97 1.358 . S
C95 H153 0.930 . S
C96 N93 1.314 . S
C96 C94 1.353 . S
C96 H154 0.930 . S
C97 N93 1.279 1_565 S
C97 C95 1.358 . S
C97 H155 0.930 . S
C98 C101 1.348 . S
C98 C102 1.356 . S
C98 O149 1.325 . S
C99 N100 1.279 . S
C99 C102 1.358 . S
C99 H156 0.930 . S
N100 C99 1.279 . S
N100 C103 1.314 . S
C101 C98 1.348 . S
C101 C103 1.353 . S
C101 H157 0.929 . S
C102 C98 1.356 . S
C102 C99 1.358 . S
C102 H158 0.930 . S
C103 N100 1.314 . S
C103 C101 1.353 . S
C103 H159 0.930 . S
C104 N105 1.314 . S
C104 C109 1.353 . S
C104 H110 0.930 . S
N105 Li88 1.990 . S
N105 C104 1.314 . S
N105 C107 1.279 . S
C106 C107 1.358 . S
C106 C108 1.356 . S
C106 H160 0.930 . S
C107 N105 1.279 . S
C107 C106 1.358 . S
C107 H111 0.930 . S
C108 C106 1.356 . S
C108 C109 1.348 . S
C109 C104 1.353 . S
C109 C108 1.348 . S
C109 H161 0.929 . S
H110 C104 0.930 . S
H111 C107 0.930 . S
C112 N113 1.314 . S
C112 C114 1.353 . S
C112 H118 0.930 . S
N113 Li89 1.990 . S
N113 C112 1.314 . S
N113 C116 1.279 . S
C114 C112 1.353 . S
C114 C117 1.348 . S
C114 H162 0.929 . S
C115 C116 1.358 . S
C115 C117 1.356 . S
C115 H163 0.930 . S
C116 N113 1.279 . S
C116 C115 1.358 . S
C116 H119 0.930 . S
C117 C114 1.348 . S
C117 C115 1.356 . S
H118 C112 0.930 . S
H119 C116 0.930 . S
C120 C122 1.348 . S
C120 C123 1.356 . S
C120 O150 1.325 . S
N121 C124 1.314 . S
N121 C125 1.279 . S
C122 C120 1.348 . S
C122 C124 1.353 . S
C122 H164 0.929 . S
C123 C120 1.356 . S
C123 C125 1.358 . S
C123 H165 0.930 . S
C124 N121 1.314 . S
C124 C122 1.353 . S
C124 H166 0.930 . S
C125 N121 1.279 . S
C125 C123 1.358 . S
C125 H167 0.930 . S
C126 C127 1.348 . S
C126 C128 1.356 1_565 S
C126 O151 1.325 . S
C127 C126 1.348 . S
C127 C129 1.353 . S
C127 H168 0.929 . S
C128 C126 1.356 1_545 S
C128 C130 1.358 . S
C128 H169 0.930 . S
C129 C127 1.353 . S
C129 N131 1.314 . S
C129 H170 0.930 . S
C130 C128 1.358 . S
C130 N131 1.279 1_545 S
C130 H171 0.930 . S
N131 C129 1.314 . S
N131 C130 1.279 1_565 S
C132 C134 1.353 . S
C132 N135 1.314 . S
C132 H138 0.930 . S
C133 N135 1.279 . S
C133 C136 1.358 . S
C133 H139 0.930 . S
C134 C132 1.353 . S
C134 C137 1.348 . S
C134 H172 0.929 . S
N135 Li90 1.990 . S
N135 C132 1.314 . S
N135 C133 1.279 . S
C136 C133 1.358 . S
C136 C137 1.356 . S
C136 H173 0.930 . S
C137 C134 1.348 . S
C137 C136 1.356 . S
H138 C132 0.930 . S
H139 C133 0.930 . S
C140 N141 1.314 . S
C140 C142 1.353 . S
C140 H146 0.930 . S
N141 Li91 1.990 . S
N141 C140 1.314 . S
N141 C144 1.279 1_545 S
C142 C140 1.353 . S
C142 C145 1.348 1_545 S
C142 H174 0.929 . S
C143 C144 1.358 . S
C143 C145 1.356 . S
C143 H175 0.930 . S
C144 N141 1.279 1_565 S
C144 C143 1.358 . S
C144 H147 0.930 . S
C145 C142 1.348 1_565 S
C145 C143 1.356 . S
H146 C140 0.930 . S
H147 C144 0.930 . S
O148 Li88 1.956 . S
O148 Li89 1.970 . S
O148 Li90 1.961 1_545 S
O148 C92 1.325 . S
O149 Li88 1.970 . S
O149 Li89 1.956 . S
O149 Li91 1.961 . S
O149 C98 1.325 . S
O150 Li88 1.961 1_565 S
O150 Li90 1.956 . S
O150 Li91 1.970 1_565 S
O150 C120 1.325 . S
O151 Li89 1.961 1_565 S
O151 Li90 1.970 . S
O151 Li91 1.956 1_565 S
O151 C126 1.325 . S
H152 C94 0.929 . S
H153 C95 0.930 . S
H154 C96 0.930 . S
H155 C97 0.930 . S
H156 C99 0.930 . S
H157 C101 0.929 . S
H158 C102 0.930 . S
H159 C103 0.930 . S
H160 C106 0.930 . S
H161 C109 0.929 . S
H162 C114 0.929 . S
H163 C115 0.930 . S
H164 C122 0.929 . S
H165 C123 0.930 . S
H166 C124 0.930 . S
H167 C125 0.930 . S
H168 C127 0.929 . S
H169 C128 0.930 . S
H170 C129 0.930 . S
H171 C130 0.930 . S
H172 C134 0.929 . S
H173 C136 0.930 . S
H174 C142 0.929 . S
H175 C143 0.930 . S
Li176 N193 1.990 . S
Li176 O236 1.956 1_655 S
Li176 O237 1.970 . S
Li176 O238 1.961 . S
Li177 N201 1.990 . S
Li177 O236 1.970 1_655 S
Li177 O237 1.956 . S
Li177 O239 1.961 1_655 S
Li178 N223 1.990 . S
Li178 O236 1.961 . S
Li178 O238 1.956 1_455 S
Li178 O239 1.970 . S
Li179 N229 1.990 . S
Li179 O237 1.961 . S
Li179 O238 1.970 . S
Li179 O239 1.956 1_655 S
C180 C182 1.348 . S
C180 C183 1.356 . S
C180 O236 1.325 . S
N181 C184 1.314 . S
N181 C185 1.279 . S
C182 C180 1.348 . S
C182 C184 1.353 . S
C182 H240 0.929 1_455 S
C183 C180 1.356 . S
C183 C185 1.358 . S
C183 H241 0.930 . S
C184 N181 1.314 . S
C184 C182 1.353 . S
C184 H242 0.930 . S
C185 N181 1.279 . S
C185 C183 1.358 . S
C185 H243 0.930 . S
C186 C189 1.348 . S
C186 C190 1.356 . S
C186 O237 1.325 . S
C187 N188 1.279 . S
C187 C190 1.358 . S
C187 H244 0.930 . S
N188 C187 1.279 . S
N188 C191 1.314 . S
C189 C186 1.348 . S
C189 C191 1.353 . S
C189 H245 0.929 . S
C190 C186 1.356 . S
C190 C187 1.358 . S
C190 H246 0.930 . S
C191 N188 1.314 . S
C191 C189 1.353 . S
C191 H247 0.930 . S
C192 N193 1.314 . S
C192 C197 1.353 . S
C192 H198 0.930 . S
N193 Li176 1.990 . S
N193 C192 1.314 . S
N193 C195 1.279 . S
C194 C195 1.358 . S
C194 C196 1.356 . S
C194 H248 0.930 . S
C195 N193 1.279 . S
C195 C194 1.358 . S
C195 H199 0.930 . S
C196 C194 1.356 . S
C196 C197 1.348 . S
C197 C192 1.353 . S
C197 C196 1.348 . S
C197 H249 0.929 . S
H198 C192 0.930 . S
H199 C195 0.930 . S
C200 N201 1.314 1_455 S
C200 C202 1.353 . S
C200 H206 0.930 . S
N201 Li177 1.990 . S
N201 C200 1.314 1_655 S
N201 C204 1.279 . S
C202 C200 1.353 . S
C202 C205 1.348 . S
C202 H250 0.929 . S
C203 C204 1.358 . S
C203 C205 1.356 1_655 S
C203 H251 0.930 . S
C204 N201 1.279 . S
C204 C203 1.358 . S
C204 H207 0.930 . S
C205 C202 1.348 . S
C205 C203 1.356 1_455 S
H206 C200 0.930 . S
H207 C204 0.930 . S
C208 C210 1.348 . S
C208 C211 1.356 . S
C208 O238 1.325 . S
N209 C212 1.314 . S
N209 C213 1.279 . S
C210 C208 1.348 . S
C210 C212 1.353 . S
C210 H252 0.928 1_655 S
C211 C208 1.356 . S
C211 C213 1.358 . S
C211 H253 0.930 . S
C212 N209 1.314 . S
C212 C210 1.353 . S
C212 H254 0.930 . S
C213 N209 1.279 . S
C213 C211 1.358 . S
C213 H255 0.930 . S
C214 C215 1.348 . S
C214 C216 1.356 . S
C214 O239 1.325 . S
C215 C214 1.348 . S
C215 C217 1.353 . S
C215 H256 0.929 . S
C216 C214 1.356 . S
C216 C218 1.358 . S
C216 H257 0.930 . S
C217 C215 1.353 . S
C217 N219 1.314 . S
C217 H258 0.930 . S
C218 C216 1.358 . S
C218 N219 1.279 . S
C218 H259 0.930 . S
N219 C217 1.314 . S
N219 C218 1.279 . S
C220 C222 1.353 . S
C220 N223 1.314 . S
C220 H226 0.930 . S
C221 N223 1.279 . S
C221 C224 1.358 . S
C221 H227 0.930 . S
C222 C220 1.353 . S
C222 C225 1.348 . S
C222 H260 0.929 . S
N223 Li178 1.990 . S
N223 C220 1.314 . S
N223 C221 1.279 . S
C224 C221 1.358 . S
C224 C225 1.356 . S
C224 H261 0.930 . S
C225 C222 1.348 . S
C225 C224 1.356 . S
H226 C220 0.930 . S
H227 C221 0.930 . S
C228 N229 1.314 . S
C228 C230 1.353 . S
C228 H234 0.930 . S
N229 Li179 1.990 . S
N229 C228 1.314 . S
N229 C232 1.279 1_655 S
C230 C228 1.353 . S
C230 C233 1.348 . S
C230 H262 0.929 . S
C231 C232 1.358 1_655 S
C231 C233 1.356 . S
C231 H263 0.930 1_655 S
C232 N229 1.279 1_455 S
C232 C231 1.358 1_455 S
C232 H235 0.930 . S
C233 C230 1.348 . S
C233 C231 1.356 . S
H234 C228 0.930 . S
H235 C232 0.930 . S
O236 Li176 1.956 1_455 S
O236 Li177 1.970 1_455 S
O236 Li178 1.961 . S
O236 C180 1.325 . S
O237 Li176 1.970 . S
O237 Li177 1.956 . S
O237 Li179 1.961 . S
O237 C186 1.325 . S
O238 Li176 1.961 . S
O238 Li178 1.956 1_655 S
O238 Li179 1.970 . S
O238 C208 1.325 . S
O239 Li177 1.961 1_455 S
O239 Li178 1.970 . S
O239 Li179 1.956 1_455 S
O239 C214 1.325 . S
H240 C182 0.929 1_655 S
H241 C183 0.930 . S
H242 C184 0.930 . S
H243 C185 0.930 . S
H244 C187 0.930 . S
H245 C189 0.929 . S
H246 C190 0.930 . S
H247 C191 0.930 . S
H248 C194 0.930 . S
H249 C197 0.929 . S
H250 C202 0.929 . S
H251 C203 0.930 . S
H252 C210 0.928 1_455 S
H253 C211 0.930 . S
H254 C212 0.930 . S
H255 C213 0.930 . S
H256 C215 0.929 . S
H257 C216 0.930 . S
H258 C217 0.930 . S
H259 C218 0.930 . S
H260 C222 0.929 . S
H261 C224 0.930 . S
H262 C230 0.929 . S
H263 C231 0.930 1_455 S
Li264 N281 1.990 . S
Li264 O324 1.956 1_565 S
Li264 O325 1.970 1_565 S
Li264 O326 1.961 . S
Li265 N289 1.990 . S
Li265 O324 1.970 . S
Li265 O325 1.956 . S
Li265 O327 1.961 1_545 S
Li266 N311 1.990 . S
Li266 O324 1.961 1_565 S
Li266 O326 1.956 . S
Li266 O327 1.970 . S
Li267 N317 1.990 . S
Li267 O325 1.961 1_565 S
Li267 O326 1.970 . S
Li267 O327 1.956 . S
C268 C270 1.348 . S
C268 C271 1.356 1_545 S
C268 O324 1.325 . S
N269 C272 1.314 . S
N269 C273 1.279 1_545 S
C270 C268 1.348 . S
C270 C272 1.353 . S
C270 H328 0.929 . S
C271 C268 1.356 1_565 S
C271 C273 1.358 . S
C271 H329 0.930 . S
C272 N269 1.314 . S
C272 C270 1.353 . S
C272 H330 0.930 . S
C273 N269 1.279 1_565 S
C273 C271 1.358 . S
C273 H331 0.930 . S
C274 C277 1.348 . S
C274 C278 1.356 . S
C274 O325 1.325 . S
C275 N276 1.279 . S
C275 C278 1.358 . S
C275 H332 0.930 . S
N276 C275 1.279 . S
N276 C279 1.314 . S
C277 C274 1.348 . S
C277 C279 1.353 . S
C277 H333 0.929 . S
C278 C274 1.356 . S
C278 C275 1.358 . S
C278 H334 0.930 . S
C279 N276 1.314 . S
C279 C277 1.353 . S
C279 H335 0.930 . S
C280 N281 1.314 . S
C280 C285 1.353 . S
C280 H286 0.930 . S
N281 Li264 1.990 . S
N281 C280 1.314 . S
N281 C283 1.279 1_565 S
C282 C283 1.358 . S
C282 C284 1.356 . S
C282 H336 0.930 . S
C283 N281 1.279 1_545 S
C283 C282 1.358 . S
C283 H287 0.930 . S
C284 C282 1.356 . S
C284 C285 1.348 1_545 S
C285 C280 1.353 . S
C285 C284 1.348 1_565 S
C285 H337 0.929 . S
H286 C280 0.930 . S
H287 C283 0.930 . S
C288 N289 1.314 . S
C288 C290 1.353 . S
C288 H294 0.930 . S
N289 Li265 1.990 . S
N289 C288 1.314 . S
N289 C292 1.279 . S
C290 C288 1.353 . S
C290 C293 1.348 . S
C290 H338 0.929 . S
C291 C292 1.358 . S
C291 C293 1.356 . S
C291 H339 0.930 . S
C292 N289 1.279 . S
C292 C291 1.358 . S
C292 H295 0.930 . S
C293 C290 1.348 . S
C293 C291 1.356 . S
H294 C288 0.930 . S
H295 C292 0.930 . S
C296 C298 1.348 . S
C296 C299 1.356 . S
C296 O326 1.325 . S
N297 C300 1.314 . S
N297 C301 1.279 . S
C298 C296 1.348 . S
C298 C300 1.353 . S
C298 H340 0.929 . S
C299 C296 1.356 . S
C299 C301 1.358 . S
C299 H341 0.930 . S
C300 N297 1.314 . S
C300 C298 1.353 . S
C300 H342 0.930 . S
C301 N297 1.279 . S
C301 C299 1.358 . S
C301 H343 0.930 . S
C302 C303 1.348 . S
C302 C304 1.356 1_565 S
C302 O327 1.325 . S
C303 C302 1.348 . S
C303 C305 1.353 . S
C303 H344 0.929 . S
C304 C302 1.356 1_545 S
C304 C306 1.358 . S
C304 H345 0.930 . S
C305 C303 1.353 . S
C305 N307 1.314 . S
C305 H346 0.930 . S
C306 C304 1.358 . S
C306 N307 1.279 1_545 S
C306 H347 0.930 . S
N307 C305 1.314 . S
N307 C306 1.279 1_565 S
C308 C310 1.353 . S
C308 N311 1.314 . S
C308 H314 0.930 . S
C309 N311 1.279 . S
C309 C312 1.358 . S
C309 H315 0.930 . S
C310 C308 1.353 . S
C310 C313 1.348 . S
C310 H348 0.929 . S
N311 Li266 1.990 . S
N311 C308 1.314 . S
N311 C309 1.279 . S
C312 C309 1.358 . S
C312 C313 1.356 . S
C312 H349 0.930 . S
C313 C310 1.348 . S
C313 C312 1.356 . S
H314 C308 0.930 . S
H315 C309 0.930 . S
C316 N317 1.314 . S
C316 C318 1.353 . S
C316 H322 0.930 . S
N317 Li267 1.990 . S
N317 C316 1.314 . S
N317 C320 1.279 . S
C318 C316 1.353 . S
C318 C321 1.348 . S
C318 H350 0.929 . S
C319 C320 1.358 . S
C319 C321 1.356 . S
C319 H351 0.930 . S
C320 N317 1.279 . S
C320 C319 1.358 . S
C320 H323 0.930 . S
C321 C318 1.348 . S
C321 C319 1.356 . S
H322 C316 0.930 . S
H323 C320 0.930 . S
O324 Li264 1.956 1_545 S
O324 Li265 1.970 . S
O324 Li266 1.961 1_545 S
O324 C268 1.325 . S
O325 Li264 1.970 1_545 S
O325 Li265 1.956 . S
O325 Li267 1.961 1_545 S
O325 C274 1.325 . S
O326 Li264 1.961 . S
O326 Li266 1.956 . S
O326 Li267 1.970 . S
O326 C296 1.325 . S
O327 Li265 1.961 1_565 S
O327 Li266 1.970 . S
O327 Li267 1.956 . S
O327 C302 1.325 . S
H328 C270 0.929 . S
H329 C271 0.930 . S
H330 C272 0.930 . S
H331 C273 0.930 . S
H332 C275 0.930 . S
H333 C277 0.929 . S
H334 C278 0.930 . S
H335 C279 0.930 . S
H336 C282 0.930 . S
H337 C285 0.929 . S
H338 C290 0.929 . S
H339 C291 0.930 . S
H340 C298 0.929 . S
H341 C299 0.930 . S
H342 C300 0.930 . S
H343 C301 0.930 . S
H344 C303 0.929 . S
H345 C304 0.930 . S
H346 C305 0.930 . S
H347 C306 0.930 . S
H348 C310 0.929 . S
H349 C312 0.930 . S
H350 C318 0.929 . S
H351 C319 0.930 . S
Li352 N369 1.990 . S
Li352 O412 1.956 1_455 S
Li352 O413 1.970 . S
Li352 O414 1.961 . S
Li353 N377 1.990 . S
Li353 O412 1.970 . S
Li353 O413 1.956 1_655 S
Li353 O415 1.961 . S
Li354 N399 1.990 . S
Li354 O412 1.961 1_455 S
Li354 O414 1.956 . S
Li354 O415 1.970 1_455 S
Li355 N405 1.990 . S
Li355 O413 1.961 . S
Li355 O414 1.970 . S
Li355 O415 1.956 1_455 S
C356 C358 1.348 . S
C356 C359 1.356 . S
C356 O412 1.325 . S
N357 C360 1.314 . S
N357 C361 1.279 . S
C358 C356 1.348 . S
C358 C360 1.353 . S
C358 H416 0.929 . S
C359 C356 1.356 . S
C359 C361 1.358 . S
C359 H417 0.930 . S
C360 N357 1.314 . S
C360 C358 1.353 . S
C360 H418 0.930 . S
C361 N357 1.279 . S
C361 C359 1.358 . S
C361 H419 0.930 . S
C362 C365 1.348 . S
C362 C366 1.356 . S
C362 O413 1.325 . S
C363 N364 1.279 . S
C363 C366 1.358 . S
C363 H420 0.930 . S
N364 C363 1.279 . S
N364 C367 1.314 . S
C365 C362 1.348 . S
C365 C367 1.353 . S
C365 H421 0.928 1_455 S
C366 C362 1.356 . S
C366 C363 1.358 . S
C366 H422 0.930 . S
C367 N364 1.314 . S
C367 C365 1.353 . S
C367 H423 0.930 . S
C368 N369 1.314 . S
C368 C373 1.353 . S
C368 H374 0.930 . S
N369 Li352 1.990 . S
N369 C368 1.314 . S
N369 C371 1.279 1_455 S
C370 C371 1.358 1_455 S
C370 C372 1.356 . S
C370 H424 0.930 1_455 S
C371 N369 1.279 1_655 S
C371 C370 1.358 1_655 S
C371 H375 0.930 . S
C372 C370 1.356 . S
C372 C373 1.348 . S
C373 C368 1.353 . S
C373 C372 1.348 . S
C373 H425 0.929 . S
H374 C368 0.930 . S
H375 C371 0.930 . S
C376 N377 1.314 . S
C376 C378 1.353 . S
C376 H382 0.930 . S
N377 Li353 1.990 . S
N377 C376 1.314 . S
N377 C380 1.279 . S
C378 C376 1.353 . S
C378 C381 1.348 . S
C378 H426 0.929 . S
C379 C380 1.358 . S
C379 C381 1.356 . S
C379 H427 0.930 . S
C380 N377 1.279 . S
C380 C379 1.358 . S
C380 H383 0.930 . S
C381 C378 1.348 . S
C381 C379 1.356 . S
H382 C376 0.930 . S
H383 C380 0.930 . S
C384 C386 1.348 . S
C384 C387 1.356 . S
C384 O414 1.325 . S
N385 C388 1.314 . S
N385 C389 1.279 . S
C386 C384 1.348 . S
C386 C388 1.353 . S
C386 H428 0.929 . S
C387 C384 1.356 . S
C387 C389 1.358 . S
C387 H429 0.930 . S
C388 N385 1.314 . S
C388 C386 1.353 . S
C388 H430 0.930 . S
C389 N385 1.279 . S
C389 C387 1.358 . S
C389 H431 0.930 . S
C390 C391 1.348 . S
C390 C392 1.356 . S
C390 O415 1.325 . S
C391 C390 1.348 . S
C391 C393 1.353 . S
C391 H432 0.929 1_655 S
C392 C390 1.356 . S
C392 C394 1.358 . S
C392 H433 0.930 . S
C393 C391 1.353 . S
C393 N395 1.314 . S
C393 H434 0.930 . S
C394 C392 1.358 . S
C394 N395 1.279 . S
C394 H435 0.930 . S
N395 C393 1.314 . S
N395 C394 1.279 . S
C396 C398 1.353 . S
C396 N399 1.314 1_655 S
C396 H402 0.930 . S
C397 N399 1.279 . S
C397 C400 1.358 . S
C397 H403 0.930 . S
C398 C396 1.353 . S
C398 C401 1.348 . S
C398 H436 0.929 . S
N399 Li354 1.990 . S
N399 C396 1.314 1_455 S
N399 C397 1.279 . S
C400 C397 1.358 . S
C400 C401 1.356 1_455 S
C400 H437 0.930 . S
C401 C398 1.348 . S
C401 C400 1.356 1_655 S
H402 C396 0.930 . S
H403 C397 0.930 . S
C404 N405 1.314 . S
C404 C406 1.353 . S
C404 H410 0.930 . S
N405 Li355 1.990 . S
N405 C404 1.314 . S
N405 C408 1.279 . S
C406 C404 1.353 . S
C406 C409 1.348 . S
C406 H438 0.929 . S
C407 C408 1.358 . S
C407 C409 1.356 . S
C407 H439 0.930 . S
C408 N405 1.279 . S
C408 C407 1.358 . S
C408 H411 0.930 . S
C409 C406 1.348 . S
C409 C407 1.356 . S
H410 C404 0.930 . S
H411 C408 0.930 . S
O412 Li352 1.956 1_655 S
O412 Li353 1.970 . S
O412 Li354 1.961 1_655 S
O412 C356 1.325 . S
O413 Li352 1.970 . S
O413 Li353 1.956 1_455 S
O413 Li355 1.961 . S
O413 C362 1.325 . S
O414 Li352 1.961 . S
O414 Li354 1.956 . S
O414 Li355 1.970 . S
O414 C384 1.325 . S
O415 Li353 1.961 . S
O415 Li354 1.970 1_655 S
O415 Li355 1.956 1_655 S
O415 C390 1.325 . S
H416 C358 0.929 . S
H417 C359 0.930 . S
H418 C360 0.930 . S
H419 C361 0.930 . S
H420 C363 0.930 . S
H421 C365 0.928 1_655 S
H422 C366 0.930 . S
H423 C367 0.930 . S
H424 C370 0.930 1_655 S
H425 C373 0.929 . S
H426 C378 0.929 . S
H427 C379 0.930 . S
H428 C386 0.929 . S
H429 C387 0.930 . S
H430 C388 0.930 . S
H431 C389 0.930 . S
H432 C391 0.929 1_455 S
H433 C392 0.930 . S
H434 C393 0.930 . S
H435 C394 0.930 . S
H436 C398 0.929 . S
H437 C400 0.930 . S
H438 C406 0.929 . S
H439 C407 0.930 . S
Li440 N457 1.990 . S
Li440 O500 1.956 . S
Li440 O501 1.970 . S
Li440 O502 1.961 1_545 S
Li441 N465 1.990 . S
Li441 O500 1.970 . S
Li441 O501 1.956 . S
Li441 O503 1.961 1_545 S
Li442 N487 1.990 . S
Li442 O500 1.961 . S
Li442 O502 1.956 1_545 S
Li442 O503 1.970 1_545 S
Li443 N493 1.990 . S
Li443 O501 1.961 1_565 S
Li443 O502 1.970 . S
Li443 O503 1.956 . S
C444 C446 1.348 . S
C444 C447 1.356 . S
C444 O500 1.325 . S
N445 C448 1.314 . S
N445 C449 1.279 . S
C446 C444 1.348 . S
C446 C448 1.353 . S
C446 H504 0.929 . S
C447 C444 1.356 . S
C447 C449 1.358 . S
C447 H505 0.930 . S
C448 N445 1.314 . S
C448 C446 1.353 . S
C448 H506 0.930 . S
C449 N445 1.279 . S
C449 C447 1.358 . S
C449 H507 0.930 . S
C450 C453 1.348 . S
C450 C454 1.356 1_545 S
C450 O501 1.325 . S
C451 N452 1.279 1_565 S
C451 C454 1.358 . S
C451 H508 0.930 . S
N452 C451 1.279 1_545 S
N452 C455 1.314 . S
C453 C450 1.348 . S
C453 C455 1.353 . S
C453 H509 0.929 . S
C454 C450 1.356 1_565 S
C454 C451 1.358 . S
C454 H510 0.930 . S
C455 N452 1.314 . S
C455 C453 1.353 . S
C455 H511 0.930 . S
C456 N457 1.314 . S
C456 C461 1.353 . S
C456 H462 0.930 . S
N457 Li440 1.990 . S
N457 C456 1.314 . S
N457 C459 1.279 . S
C458 C459 1.358 . S
C458 C460 1.356 . S
C458 H512 0.930 . S
C459 N457 1.279 . S
C459 C458 1.358 . S
C459 H463 0.930 . S
C460 C458 1.356 . S
C460 C461 1.348 . S
C461 C456 1.353 . S
C461 C460 1.348 . S
C461 H513 0.929 . S
H462 C456 0.930 . S
H463 C459 0.930 . S
C464 N465 1.314 . S
C464 C466 1.353 . S
C464 H470 0.930 . S
N465 Li441 1.990 . S
N465 C464 1.314 . S
N465 C468 1.279 . S
C466 C464 1.353 . S
C466 C469 1.348 . S
C466 H514 0.929 . S
C467 C468 1.358 . S
C467 C469 1.356 . S
C467 H515 0.930 . S
C468 N465 1.279 . S
C468 C467 1.358 . S
C468 H471 0.930 . S
C469 C466 1.348 . S
C469 C467 1.356 . S
H470 C464 0.930 . S
H471 C468 0.930 . S
C472 C474 1.348 . S
C472 C475 1.356 1_565 S
C472 O502 1.325 . S
N473 C476 1.314 . S
N473 C477 1.279 1_565 S
C474 C472 1.348 . S
C474 C476 1.353 . S
C474 H516 0.929 . S
C475 C472 1.356 1_545 S
C475 C477 1.358 . S
C475 H517 0.930 . S
C476 N473 1.314 . S
C476 C474 1.353 . S
C476 H518 0.930 . S
C477 N473 1.279 1_545 S
C477 C475 1.358 . S
C477 H519 0.930 . S
C478 C479 1.348 . S
C478 C480 1.356 . S
C478 O503 1.325 . S
C479 C478 1.348 . S
C479 C481 1.353 . S
C479 H520 0.929 . S
C480 C478 1.356 . S
C480 C482 1.358 . S
C480 H521 0.930 . S
C481 C479 1.353 . S
C481 N483 1.314 . S
C481 H522 0.930 . S
C482 C480 1.358 . S
C482 N483 1.279 . S
C482 H523 0.930 . S
N483 C481 1.314 . S
N483 C482 1.279 . S
C484 C486 1.353 . S
C484 N487 1.314 . S
C484 H490 0.930 . S
C485 N487 1.279 1_565 S
C485 C488 1.358 . S
C485 H491 0.930 . S
C486 C484 1.353 . S
C486 C489 1.348 1_545 S
C486 H524 0.929 . S
N487 Li442 1.990 . S
N487 C484 1.314 . S
N487 C485 1.279 1_545 S
C488 C485 1.358 . S
C488 C489 1.356 . S
C488 H525 0.930 . S
C489 C486 1.348 1_565 S
C489 C488 1.356 . S
H490 C484 0.930 . S
H491 C485 0.930 . S
C492 N493 1.314 . S
C492 C494 1.353 . S
C492 H498 0.930 . S
N493 Li443 1.990 . S
N493 C492 1.314 . S
N493 C496 1.279 . S
C494 C492 1.353 . S
C494 C497 1.348 . S
C494 H526 0.929 . S
C495 C496 1.358 . S
C495 C497 1.356 . S
C495 H527 0.930 . S
C496 N493 1.279 . S
C496 C495 1.358 . S
C496 H499 0.930 . S
C497 C494 1.348 . S
C497 C495 1.356 . S
H498 C492 0.930 . S
H499 C496 0.930 . S
O500 Li440 1.956 . S
O500 Li441 1.970 . S
O500 Li442 1.961 . S
O500 C444 1.325 . S
O501 Li440 1.970 . S
O501 Li441 1.956 . S
O501 Li443 1.961 1_545 S
O501 C450 1.325 . S
O502 Li440 1.961 1_565 S
O502 Li442 1.956 1_565 S
O502 Li443 1.970 . S
O502 C472 1.325 . S
O503 Li441 1.961 1_565 S
O503 Li442 1.970 1_565 S
O503 Li443 1.956 . S
O503 C478 1.325 . S
H504 C446 0.929 . S
H505 C447 0.930 . S
H506 C448 0.930 . S
H507 C449 0.930 . S
H508 C451 0.930 . S
H509 C453 0.929 . S
H510 C454 0.930 . S
H511 C455 0.930 . S
H512 C458 0.930 . S
H513 C461 0.929 . S
H514 C466 0.929 . S
H515 C467 0.930 . S
H516 C474 0.929 . S
H517 C475 0.930 . S
H518 C476 0.930 . S
H519 C477 0.930 . S
H520 C479 0.929 . S
H521 C480 0.930 . S
H522 C481 0.930 . S
H523 C482 0.930 . S
H524 C486 0.929 . S
H525 C488 0.930 . S
H526 C494 0.929 . S
H527 C495 0.930 . S
Li528 N545 1.990 . S
Li528 O588 1.956 1_655 S
Li528 O589 1.970 . S
Li528 O590 1.961 . S
Li529 N553 1.990 . S
Li529 O588 1.970 . S
Li529 O589 1.956 1_455 S
Li529 O591 1.961 . S
Li530 N575 1.990 . S
Li530 O588 1.961 1_655 S
Li530 O590 1.956 . S
Li530 O591 1.970 1_655 S
Li531 N581 1.990 . S
Li531 O589 1.961 . S
Li531 O590 1.970 . S
Li531 O591 1.956 1_655 S
C532 C534 1.348 . S
C532 C535 1.356 . S
C532 O588 1.325 . S
N533 C536 1.314 . S
N533 C537 1.279 . S
C534 C532 1.348 . S
C534 C536 1.353 . S
C534 H592 0.929 . S
C535 C532 1.356 . S
C535 C537 1.358 . S
C535 H593 0.930 . S
C536 N533 1.314 . S
C536 C534 1.353 . S
C536 H594 0.930 . S
C537 N533 1.279 . S
C537 C535 1.358 . S
C537 H595 0.930 . S
C538 C541 1.348 . S
C538 C542 1.356 . S
C538 O589 1.325 . S
C539 N540 1.279 . S
C539 C542 1.358 . S
C539 H596 0.930 . S
N540 C539 1.279 . S
N540 C543 1.314 . S
C541 C538 1.348 . S
C541 C543 1.353 . S
C541 H597 0.928 1_655 S
C542 C538 1.356 . S
C542 C539 1.358 . S
C542 H598 0.930 . S
C543 N540 1.314 . S
C543 C541 1.353 . S
C543 H599 0.930 . S
C544 N545 1.314 . S
C544 C549 1.353 . S
C544 H550 0.930 . S
N545 Li528 1.990 . S
N545 C544 1.314 . S
N545 C547 1.279 1_655 S
C546 C547 1.358 1_655 S
C546 C548 1.356 . S
C546 H600 0.930 1_655 S
C547 N545 1.279 1_455 S
C547 C546 1.358 1_455 S
C547 H551 0.930 . S
C548 C546 1.356 . S
C548 C549 1.348 . S
C549 C544 1.353 . S
C549 C548 1.348 . S
C549 H601 0.929 . S
H550 C544 0.930 . S
H551 C547 0.930 . S
C552 N553 1.314 . S
C552 C554 1.353 . S
C552 H558 0.930 . S
N553 Li529 1.990 . S
N553 C552 1.314 . S
N553 C556 1.279 . S
C554 C552 1.353 . S
C554 C557 1.348 . S
C554 H602 0.929 . S
C555 C556 1.358 . S
C555 C557 1.356 . S
C555 H603 0.930 . S
C556 N553 1.279 . S
C556 C555 1.358 . S
C556 H559 0.930 . S
C557 C554 1.348 . S
C557 C555 1.356 . S
H558 C552 0.930 . S
H559 C556 0.930 . S
C560 C562 1.348 . S
C560 C563 1.356 . S
C560 O590 1.325 . S
N561 C564 1.314 . S
N561 C565 1.279 . S
C562 C560 1.348 . S
C562 C564 1.353 . S
C562 H604 0.929 . S
C563 C560 1.356 . S
C563 C565 1.358 . S
C563 H605 0.930 . S
C564 N561 1.314 . S
C564 C562 1.353 . S
C564 H606 0.930 . S
C565 N561 1.279 . S
C565 C563 1.358 . S
C565 H607 0.930 . S
C566 C567 1.348 . S
C566 C568 1.356 . S
C566 O591 1.325 . S
C567 C566 1.348 . S
C567 C569 1.353 . S
C567 H608 0.929 1_455 S
C568 C566 1.356 . S
C568 C570 1.358 . S
C568 H609 0.930 . S
C569 C567 1.353 . S
C569 N571 1.314 . S
C569 H610 0.930 . S
C570 C568 1.358 . S
C570 N571 1.279 . S
C570 H611 0.930 . S
N571 C569 1.314 . S
N571 C570 1.279 . S
C572 C574 1.353 . S
C572 N575 1.314 1_455 S
C572 H578 0.930 . S
C573 N575 1.279 . S
C573 C576 1.358 . S
C573 H579 0.930 . S
C574 C572 1.353 . S
C574 C577 1.348 . S
C574 H612 0.929 . S
N575 Li530 1.990 . S
N575 C572 1.314 1_655 S
N575 C573 1.279 . S
C576 C573 1.358 . S
C576 C577 1.356 1_655 S
C576 H613 0.930 . S
C577 C574 1.348 . S
C577 C576 1.356 1_455 S
H578 C572 0.930 . S
H579 C573 0.930 . S
C580 N581 1.314 . S
C580 C582 1.353 . S
C580 H586 0.930 . S
N581 Li531 1.990 . S
N581 C580 1.314 . S
N581 C584 1.279 . S
C582 C580 1.353 . S
C582 C585 1.348 . S
C582 H614 0.929 . S
C583 C584 1.358 . S
C583 C585 1.356 . S
C583 H615 0.930 . S
C584 N581 1.279 . S
C584 C583 1.358 . S
C584 H587 0.930 . S
C585 C582 1.348 . S
C585 C583 1.356 . S
H586 C580 0.930 . S
H587 C584 0.930 . S
O588 Li528 1.956 1_455 S
O588 Li529 1.970 . S
O588 Li530 1.961 1_455 S
O588 C532 1.325 . S
O589 Li528 1.970 . S
O589 Li529 1.956 1_655 S
O589 Li531 1.961 . S
O589 C538 1.325 . S
O590 Li528 1.961 . S
O590 Li530 1.956 . S
O590 Li531 1.970 . S
O590 C560 1.325 . S
O591 Li529 1.961 . S
O591 Li530 1.970 1_455 S
O591 Li531 1.956 1_455 S
O591 C566 1.325 . S
H592 C534 0.929 . S
H593 C535 0.930 . S
H594 C536 0.930 . S
H595 C537 0.930 . S
H596 C539 0.930 . S
H597 C541 0.928 1_455 S
H598 C542 0.930 . S
H599 C543 0.930 . S
H600 C546 0.930 1_455 S
H601 C549 0.929 . S
H602 C554 0.929 . S
H603 C555 0.930 . S
H604 C562 0.929 . S
H605 C563 0.930 . S
H606 C564 0.930 . S
H607 C565 0.930 . S
H608 C567 0.929 1_655 S
H609 C568 0.930 . S
H610 C569 0.930 . S
H611 C570 0.930 . S
H612 C574 0.929 . S
H613 C576 0.930 . S
H614 C582 0.929 . S
H615 C583 0.930 . S
Li616 N633 1.990 . S
Li616 O676 1.956 . S
Li616 O677 1.970 . S
Li616 O678 1.961 1_545 S
Li617 N641 1.990 . S
Li617 O676 1.970 1_565 S
Li617 O677 1.956 1_565 S
Li617 O679 1.961 . S
Li618 N663 1.990 . S
Li618 O676 1.961 1_565 S
Li618 O678 1.956 . S
Li618 O679 1.970 . S
Li619 N669 1.990 . S
Li619 O677 1.961 1_565 S
Li619 O678 1.970 . S
Li619 O679 1.956 . S
C620 C622 1.348 . S
C620 C623 1.356 . S
C620 O676 1.325 . S
N621 C624 1.314 . S
N621 C625 1.279 . S
C622 C620 1.348 . S
C622 C624 1.353 . S
C622 H680 0.929 . S
C623 C620 1.356 . S
C623 C625 1.358 . S
C623 H681 0.930 . S
C624 N621 1.314 . S
C624 C622 1.353 . S
C624 H682 0.930 . S
C625 N621 1.279 . S
C625 C623 1.358 . S
C625 H683 0.930 . S
C626 C629 1.348 . S
C626 C630 1.356 1_545 S
C626 O677 1.325 . S
C627 N628 1.279 1_565 S
C627 C630 1.358 . S
C627 H684 0.930 . S
N628 C627 1.279 1_545 S
N628 C631 1.314 . S
C629 C626 1.348 . S
C629 C631 1.353 . S
C629 H685 0.929 . S
C630 C626 1.356 1_565 S
C630 C627 1.358 . S
C630 H686 0.930 . S
C631 N628 1.314 . S
C631 C629 1.353 . S
C631 H687 0.930 . S
C632 N633 1.314 . S
C632 C637 1.353 . S
C632 H638 0.930 . S
N633 Li616 1.990 . S
N633 C632 1.314 . S
N633 C635 1.279 . S
C634 C635 1.358 . S
C634 C636 1.356 . S
C634 H688 0.930 . S
C635 N633 1.279 . S
C635 C634 1.358 . S
C635 H639 0.930 . S
C636 C634 1.356 . S
C636 C637 1.348 . S
C637 C632 1.353 . S
C637 C636 1.348 . S
C637 H689 0.929 . S
H638 C632 0.930 . S
H639 C635 0.930 . S
C640 N641 1.314 . S
C640 C642 1.353 . S
C640 H646 0.930 . S
N641 Li617 1.990 . S
N641 C640 1.314 . S
N641 C644 1.279 1_565 S
C642 C640 1.353 . S
C642 C645 1.348 1_565 S
C642 H690 0.929 . S
C643 C644 1.358 . S
C643 C645 1.356 . S
C643 H691 0.930 . S
C644 N641 1.279 1_545 S
C644 C643 1.358 . S
C644 H647 0.930 . S
C645 C642 1.348 1_545 S
C645 C643 1.356 . S
H646 C640 0.930 . S
H647 C644 0.930 . S
C648 C650 1.348 . S
C648 C651 1.356 1_565 S
C648 O678 1.325 . S
N649 C652 1.314 . S
N649 C653 1.279 1_565 S
C650 C648 1.348 . S
C650 C652 1.353 . S
C650 H692 0.929 . S
C651 C648 1.356 1_545 S
C651 C653 1.358 . S
C651 H693 0.930 . S
C652 N649 1.314 . S
C652 C650 1.353 . S
C652 H694 0.930 . S
C653 N649 1.279 1_545 S
C653 C651 1.358 . S
C653 H695 0.930 . S
C654 C655 1.348 . S
C654 C656 1.356 . S
C654 O679 1.325 . S
C655 C654 1.348 . S
C655 C657 1.353 . S
C655 H696 0.929 . S
C656 C654 1.356 . S
C656 C658 1.358 . S
C656 H697 0.930 . S
C657 C655 1.353 . S
C657 N659 1.314 . S
C657 H698 0.930 . S
C658 C656 1.358 . S
C658 N659 1.279 . S
C658 H699 0.930 . S
N659 C657 1.314 . S
N659 C658 1.279 . S
C660 C662 1.353 . S
C660 N663 1.314 . S
C660 H666 0.930 . S
C661 N663 1.279 . S
C661 C664 1.358 . S
C661 H667 0.930 . S
C662 C660 1.353 . S
C662 C665 1.348 . S
C662 H700 0.929 . S
N663 Li618 1.990 . S
N663 C660 1.314 . S
N663 C661 1.279 . S
C664 C661 1.358 . S
C664 C665 1.356 . S
C664 H701 0.930 . S
C665 C662 1.348 . S
C665 C664 1.356 . S
H666 C660 0.930 . S
H667 C661 0.930 . S
C668 N669 1.314 . S
C668 C670 1.353 . S
C668 H674 0.930 . S
N669 Li619 1.990 . S
N669 C668 1.314 . S
N669 C672 1.279 . S
C670 C668 1.353 . S
C670 C673 1.348 . S
C670 H702 0.929 . S
C671 C672 1.358 . S
C671 C673 1.356 . S
C671 H703 0.930 . S
C672 N669 1.279 . S
C672 C671 1.358 . S
C672 H675 0.930 . S
C673 C670 1.348 . S
C673 C671 1.356 . S
H674 C668 0.930 . S
H675 C672 0.930 . S
O676 Li616 1.956 . S
O676 Li617 1.970 1_545 S
O676 Li618 1.961 1_545 S
O676 C620 1.325 . S
O677 Li616 1.970 . S
O677 Li617 1.956 1_545 S
O677 Li619 1.961 1_545 S
O677 C626 1.325 . S
O678 Li616 1.961 1_565 S
O678 Li618 1.956 . S
O678 Li619 1.970 . S
O678 C648 1.325 . S
O679 Li617 1.961 . S
O679 Li618 1.970 . S
O679 Li619 1.956 . S
O679 C654 1.325 . S
H680 C622 0.929 . S
H681 C623 0.930 . S
H682 C624 0.930 . S
H683 C625 0.930 . S
H684 C627 0.930 . S
H685 C629 0.929 . S
H686 C630 0.930 . S
H687 C631 0.930 . S
H688 C634 0.930 . S
H689 C637 0.929 . S
H690 C642 0.929 . S
H691 C643 0.930 . S
H692 C650 0.929 . S
H693 C651 0.930 . S
H694 C652 0.930 . S
H695 C653 0.930 . S
H696 C655 0.929 . S
H697 C656 0.930 . S
H698 C657 0.930 . S
H699 C658 0.930 . S
H700 C662 0.929 . S
H701 C664 0.930 . S
H702 C670 0.929 . S
H703 C671 0.930 . S
Li704 N721 1.990 . S
Li704 O764 1.956 . S
Li704 O765 1.970 . S
Li704 O766 1.961 . S
Li705 N729 1.990 . S
Li705 O764 1.970 . S
Li705 O765 1.956 . S
Li705 O767 1.961 . S
Li706 N751 1.990 . S
Li706 O764 1.961 . S
Li706 O766 1.956 . S
Li706 O767 1.970 . S
Li707 N757 1.990 . S
Li707 O765 1.961 . S
Li707 O766 1.970 . S
Li707 O767 1.956 . S
C708 C710 1.348 . S
C708 C711 1.356 . S
C708 O764 1.325 . S
N709 C712 1.314 . S
N709 C713 1.279 . S
C710 C708 1.348 . S
C710 C712 1.353 . S
C710 H768 0.929 . S
C711 C708 1.356 . S
C711 C713 1.358 . S
C711 H769 0.930 . S
C712 N709 1.314 . S
C712 C710 1.353 . S
C712 H770 0.930 . S
C713 N709 1.279 . S
C713 C711 1.358 . S
C713 H771 0.930 . S
C714 C717 1.348 . S
C714 C718 1.356 . S
C714 O765 1.325 . S
C715 N716 1.279 . S
C715 C718 1.358 . S
C715 H772 0.930 . S
N716 C715 1.279 . S
N716 C719 1.314 . S
C717 C714 1.348 . S
C717 C719 1.353 . S
C717 H773 0.929 . S
C718 C714 1.356 . S
C718 C715 1.358 . S
C718 H774 0.930 . S
C719 N716 1.314 . S
C719 C717 1.353 . S
C719 H775 0.930 . S
C720 N721 1.314 . S
C720 C725 1.353 . S
C720 H726 0.930 . S
N721 Li704 1.990 . S
N721 C720 1.314 . S
N721 C723 1.279 . S
C722 C723 1.358 . S
C722 C724 1.356 . S
C722 H776 0.930 . S
C723 N721 1.279 . S
C723 C722 1.358 . S
C723 H727 0.930 . S
C724 C722 1.356 . S
C724 C725 1.348 . S
C725 C720 1.353 . S
C725 C724 1.348 . S
C725 H777 0.929 . S
H726 C720 0.930 . S
H727 C723 0.930 . S
C728 N729 1.314 . S
C728 C730 1.353 . S
C728 H734 0.930 . S
N729 Li705 1.990 . S
N729 C728 1.314 . S
N729 C732 1.279 . S
C730 C728 1.353 . S
C730 C733 1.348 . S
C730 H778 0.929 . S
C731 C732 1.358 . S
C731 C733 1.356 . S
C731 H779 0.930 . S
C732 N729 1.279 . S
C732 C731 1.358 . S
C732 H735 0.930 . S
C733 C730 1.348 . S
C733 C731 1.356 . S
H734 C728 0.930 . S
H735 C732 0.930 . S
C736 C738 1.348 . S
C736 C739 1.356 . S
C736 O766 1.325 . S
N737 C740 1.314 . S
N737 C741 1.279 . S
C738 C736 1.348 . S
C738 C740 1.353 . S
C738 H780 0.929 . S
C739 C736 1.356 . S
C739 C741 1.358 . S
C739 H781 0.930 . S
C740 N737 1.314 . S
C740 C738 1.353 . S
C740 H782 0.930 . S
C741 N737 1.279 . S
C741 C739 1.358 . S
C741 H783 0.930 . S
C742 C743 1.348 . S
C742 C744 1.356 . S
C742 O767 1.325 . S
C743 C742 1.348 . S
C743 C745 1.353 . S
C743 H784 0.929 . S
C744 C742 1.356 . S
C744 C746 1.358 . S
C744 H785 0.930 . S
C745 C743 1.353 . S
C745 N747 1.314 . S
C745 H786 0.930 . S
C746 C744 1.358 . S
C746 N747 1.279 . S
C746 H787 0.930 . S
N747 C745 1.314 . S
N747 C746 1.279 . S
C748 C750 1.353 . S
C748 N751 1.314 . S
C748 H754 0.930 . S
C749 N751 1.279 . S
C749 C752 1.358 . S
C749 H755 0.930 . S
C750 C748 1.353 . S
C750 C753 1.348 . S
C750 H788 0.929 . S
N751 Li706 1.990 . S
N751 C748 1.314 . S
N751 C749 1.279 . S
C752 C749 1.358 . S
C752 C753 1.356 . S
C752 H789 0.930 . S
C753 C750 1.348 . S
C753 C752 1.356 . S
H754 C748 0.930 . S
H755 C749 0.930 . S
C756 N757 1.314 . S
C756 C758 1.353 . S
C756 H762 0.930 . S
N757 Li707 1.990 . S
N757 C756 1.314 . S
N757 C760 1.279 . S
C758 C756 1.353 . S
C758 C761 1.348 . S
C758 H790 0.929 . S
C759 C760 1.358 . S
C759 C761 1.356 . S
C759 H791 0.930 . S
C760 N757 1.279 . S
C760 C759 1.358 . S
C760 H763 0.930 . S
C761 C758 1.348 . S
C761 C759 1.356 . S
H762 C756 0.930 . S
H763 C760 0.930 . S
O764 Li704 1.956 . S
O764 Li705 1.970 . S
O764 Li706 1.961 . S
O764 C708 1.325 . S
O765 Li704 1.970 . S
O765 Li705 1.956 . S
O765 Li707 1.961 . S
O765 C714 1.325 . S
O766 Li704 1.961 . S
O766 Li706 1.956 . S
O766 Li707 1.970 . S
O766 C736 1.325 . S
O767 Li705 1.961 . S
O767 Li706 1.970 . S
O767 Li707 1.956 . S
O767 C742 1.325 . S
H768 C710 0.929 . S
H769 C711 0.930 . S
H770 C712 0.930 . S
H771 C713 0.930 . S
H772 C715 0.930 . S
H773 C717 0.929 . S
H774 C718 0.930 . S
H775 C719 0.930 . S
H776 C722 0.930 . S
H777 C725 0.929 . S
H778 C730 0.929 . S
H779 C731 0.930 . S
H780 C738 0.929 . S
H781 C739 0.930 . S
H782 C740 0.930 . S
H783 C741 0.930 . S
H784 C743 0.929 . S
H785 C744 0.930 . S
H786 C745 0.930 . S
H787 C746 0.930 . S
H788 C750 0.929 . S
H789 C752 0.930 . S
H790 C758 0.929 . S
H791 C759 0.930 . S
Li792 N809 1.990 . S
Li792 O852 1.956 . S
Li792 O853 1.970 . S
Li792 O854 1.961 . S
Li793 N817 1.990 . S
Li793 O852 1.970 . S
Li793 O853 1.956 . S
Li793 O855 1.961 . S
Li794 N839 1.990 . S
Li794 O852 1.961 . S
Li794 O854 1.956 . S
Li794 O855 1.970 . S
Li795 N845 1.990 . S
Li795 O853 1.961 . S
Li795 O854 1.970 . S
Li795 O855 1.956 . S
C796 C798 1.348 . S
C796 C799 1.356 . S
C796 O852 1.325 . S
N797 C800 1.314 . S
N797 C801 1.279 . S
C798 C796 1.348 . S
C798 C800 1.353 . S
C798 H856 0.929 . S
C799 C796 1.356 . S
C799 C801 1.358 . S
C799 H857 0.930 . S
C800 N797 1.314 . S
C800 C798 1.353 . S
C800 H858 0.930 . S
C801 N797 1.279 . S
C801 C799 1.358 . S
C801 H859 0.930 . S
C802 C805 1.348 . S
C802 C806 1.356 . S
C802 O853 1.325 . S
C803 N804 1.279 . S
C803 C806 1.358 . S
C803 H860 0.930 . S
N804 C803 1.279 . S
N804 C807 1.314 . S
C805 C802 1.348 . S
C805 C807 1.353 . S
C805 H861 0.929 . S
C806 C802 1.356 . S
C806 C803 1.358 . S
C806 H862 0.930 . S
C807 N804 1.314 . S
C807 C805 1.353 . S
C807 H863 0.930 . S
C808 N809 1.314 . S
C808 C813 1.353 . S
C808 H814 0.930 . S
N809 Li792 1.990 . S
N809 C808 1.314 . S
N809 C811 1.279 . S
C810 C811 1.358 . S
C810 C812 1.356 . S
C810 H864 0.930 . S
C811 N809 1.279 . S
C811 C810 1.358 . S
C811 H815 0.930 . S
C812 C810 1.356 . S
C812 C813 1.348 . S
C813 C808 1.353 . S
C813 C812 1.348 . S
C813 H865 0.929 . S
H814 C808 0.930 . S
H815 C811 0.930 . S
C816 N817 1.314 . S
C816 C818 1.353 . S
C816 H822 0.930 . S
N817 Li793 1.990 . S
N817 C816 1.314 . S
N817 C820 1.279 . S
C818 C816 1.353 . S
C818 C821 1.348 . S
C818 H866 0.929 . S
C819 C820 1.358 . S
C819 C821 1.356 . S
C819 H867 0.930 . S
C820 N817 1.279 . S
C820 C819 1.358 . S
C820 H823 0.930 . S
C821 C818 1.348 . S
C821 C819 1.356 . S
H822 C816 0.930 . S
H823 C820 0.930 . S
C824 C826 1.348 . S
C824 C827 1.356 . S
C824 O854 1.325 . S
N825 C828 1.314 . S
N825 C829 1.279 . S
C826 C824 1.348 . S
C826 C828 1.353 . S
C826 H868 0.929 . S
C827 C824 1.356 . S
C827 C829 1.358 . S
C827 H869 0.930 . S
C828 N825 1.314 . S
C828 C826 1.353 . S
C828 H870 0.930 . S
C829 N825 1.279 . S
C829 C827 1.358 . S
C829 H871 0.930 . S
C830 C831 1.348 . S
C830 C832 1.356 . S
C830 O855 1.325 . S
C831 C830 1.348 . S
C831 C833 1.353 . S
C831 H872 0.929 . S
C832 C830 1.356 . S
C832 C834 1.358 . S
C832 H873 0.930 . S
C833 C831 1.353 . S
C833 N835 1.314 . S
C833 H874 0.930 . S
C834 C832 1.358 . S
C834 N835 1.279 . S
C834 H875 0.930 . S
N835 C833 1.314 . S
N835 C834 1.279 . S
C836 C838 1.353 . S
C836 N839 1.314 . S
C836 H842 0.930 . S
C837 N839 1.279 . S
C837 C840 1.358 . S
C837 H843 0.930 . S
C838 C836 1.353 . S
C838 C841 1.348 . S
C838 H876 0.929 . S
N839 Li794 1.990 . S
N839 C836 1.314 . S
N839 C837 1.279 . S
C840 C837 1.358 . S
C840 C841 1.356 . S
C840 H877 0.930 . S
C841 C838 1.348 . S
C841 C840 1.356 . S
H842 C836 0.930 . S
H843 C837 0.930 . S
C844 N845 1.314 . S
C844 C846 1.353 . S
C844 H850 0.930 . S
N845 Li795 1.990 . S
N845 C844 1.314 . S
N845 C848 1.279 . S
C846 C844 1.353 . S
C846 C849 1.348 . S
C846 H878 0.929 . S
C847 C848 1.358 . S
C847 C849 1.356 . S
C847 H879 0.930 . S
C848 N845 1.279 . S
C848 C847 1.358 . S
C848 H851 0.930 . S
C849 C846 1.348 . S
C849 C847 1.356 . S
H850 C844 0.930 . S
H851 C848 0.930 . S
O852 Li792 1.956 . S
O852 Li793 1.970 . S
O852 Li794 1.961 . S
O852 C796 1.325 . S
O853 Li792 1.970 . S
O853 Li793 1.956 . S
O853 Li795 1.961 . S
O853 C802 1.325 . S
O854 Li792 1.961 . S
O854 Li794 1.956 . S
O854 Li795 1.970 . S
O854 C824 1.325 . S
O855 Li793 1.961 . S
O855 Li794 1.970 . S
O855 Li795 1.956 . S
O855 C830 1.325 . S
H856 C798 0.929 . S
H857 C799 0.930 . S
H858 C800 0.930 . S
H859 C801 0.930 . S
H860 C803 0.930 . S
H861 C805 0.929 . S
H862 C806 0.930 . S
H863 C807 0.930 . S
H864 C810 0.930 . S
H865 C813 0.929 . S
H866 C818 0.929 . S
H867 C819 0.930 . S
H868 C826 0.929 . S
H869 C827 0.930 . S
H870 C828 0.930 . S
H871 C829 0.930 . S
H872 C831 0.929 . S
H873 C832 0.930 . S
H874 C833 0.930 . S
H875 C834 0.930 . S
H876 C838 0.929 . S
H877 C840 0.930 . S
H878 C846 0.929 . S
H879 C847 0.930 . S
Li880 N897 1.990 . S
Li880 O940 1.956 . S
Li880 O941 1.970 . S
Li880 O942 1.961 . S
Li881 N905 1.990 . S
Li881 O940 1.970 . S
Li881 O941 1.956 . S
Li881 O943 1.961 . S
Li882 N927 1.990 . S
Li882 O940 1.961 . S
Li882 O942 1.956 . S
Li882 O943 1.970 . S
Li883 N933 1.990 . S
Li883 O941 1.961 . S
Li883 O942 1.970 . S
Li883 O943 1.956 . S
C884 C886 1.348 . S
C884 C887 1.356 . S
C884 O940 1.325 . S
N885 C888 1.314 . S
N885 C889 1.279 . S
C886 C884 1.348 . S
C886 C888 1.353 . S
C886 H944 0.929 . S
C887 C884 1.356 . S
C887 C889 1.358 . S
C887 H945 0.930 . S
C888 N885 1.314 . S
C888 C886 1.353 . S
C888 H946 0.930 . S
C889 N885 1.279 . S
C889 C887 1.358 . S
C889 H947 0.930 . S
C890 C893 1.348 . S
C890 C894 1.356 . S
C890 O941 1.325 . S
C891 N892 1.279 . S
C891 C894 1.358 . S
C891 H948 0.930 . S
N892 C891 1.279 . S
N892 C895 1.314 . S
C893 C890 1.348 . S
C893 C895 1.353 . S
C893 H949 0.929 . S
C894 C890 1.356 . S
C894 C891 1.358 . S
C894 H950 0.930 . S
C895 N892 1.314 . S
C895 C893 1.353 . S
C895 H951 0.930 . S
C896 N897 1.314 . S
C896 C901 1.353 . S
C896 H902 0.930 . S
N897 Li880 1.990 . S
N897 C896 1.314 . S
N897 C899 1.279 . S
C898 C899 1.358 . S
C898 C900 1.356 . S
C898 H952 0.930 . S
C899 N897 1.279 . S
C899 C898 1.358 . S
C899 H903 0.930 . S
C900 C898 1.356 . S
C900 C901 1.348 . S
C901 C896 1.353 . S
C901 C900 1.348 . S
C901 H953 0.929 . S
H902 C896 0.930 . S
H903 C899 0.930 . S
C904 N905 1.314 . S
C904 C906 1.353 . S
C904 H910 0.930 . S
N905 Li881 1.990 . S
N905 C904 1.314 . S
N905 C908 1.279 . S
C906 C904 1.353 . S
C906 C909 1.348 . S
C906 H954 0.929 . S
C907 C908 1.358 . S
C907 C909 1.356 . S
C907 H955 0.930 . S
C908 N905 1.279 . S
C908 C907 1.358 . S
C908 H911 0.930 . S
C909 C906 1.348 . S
C909 C907 1.356 . S
H910 C904 0.930 . S
H911 C908 0.930 . S
C912 C914 1.348 . S
C912 C915 1.356 . S
C912 O942 1.325 . S
N913 C916 1.314 . S
N913 C917 1.279 . S
C914 C912 1.348 . S
C914 C916 1.353 . S
C914 H956 0.929 . S
C915 C912 1.356 . S
C915 C917 1.358 . S
C915 H957 0.930 . S
C916 N913 1.314 . S
C916 C914 1.353 . S
C916 H958 0.930 . S
C917 N913 1.279 . S
C917 C915 1.358 . S
C917 H959 0.930 . S
C918 C919 1.348 . S
C918 C920 1.356 . S
C918 O943 1.325 . S
C919 C918 1.348 . S
C919 C921 1.353 . S
C919 H960 0.929 . S
C920 C918 1.356 . S
C920 C922 1.358 . S
C920 H961 0.930 . S
C921 C919 1.353 . S
C921 N923 1.314 . S
C921 H962 0.930 . S
C922 C920 1.358 . S
C922 N923 1.279 . S
C922 H963 0.930 . S
N923 C921 1.314 . S
N923 C922 1.279 . S
C924 C926 1.353 . S
C924 N927 1.314 . S
C924 H930 0.930 . S
C925 N927 1.279 . S
C925 C928 1.358 . S
C925 H931 0.930 . S
C926 C924 1.353 . S
C926 C929 1.348 . S
C926 H964 0.929 . S
N927 Li882 1.990 . S
N927 C924 1.314 . S
N927 C925 1.279 . S
C928 C925 1.358 . S
C928 C929 1.356 . S
C928 H965 0.930 . S
C929 C926 1.348 . S
C929 C928 1.356 . S
H930 C924 0.930 . S
H931 C925 0.930 . S
C932 N933 1.314 . S
C932 C934 1.353 . S
C932 H938 0.930 . S
N933 Li883 1.990 . S
N933 C932 1.314 . S
N933 C936 1.279 . S
C934 C932 1.353 . S
C934 C937 1.348 . S
C934 H966 0.929 . S
C935 C936 1.358 . S
C935 C937 1.356 . S
C935 H967 0.930 . S
C936 N933 1.279 . S
C936 C935 1.358 . S
C936 H939 0.930 . S
C937 C934 1.348 . S
C937 C935 1.356 . S
H938 C932 0.930 . S
H939 C936 0.930 . S
O940 Li880 1.956 . S
O940 Li881 1.970 . S
O940 Li882 1.961 . S
O940 C884 1.325 . S
O941 Li880 1.970 . S
O941 Li881 1.956 . S
O941 Li883 1.961 . S
O941 C890 1.325 . S
O942 Li880 1.961 . S
O942 Li882 1.956 . S
O942 Li883 1.970 . S
O942 C912 1.325 . S
O943 Li881 1.961 . S
O943 Li882 1.970 . S
O943 Li883 1.956 . S
O943 C918 1.325 . S
H944 C886 0.929 . S
H945 C887 0.930 . S
H946 C888 0.930 . S
H947 C889 0.930 . S
H948 C891 0.930 . S
H949 C893 0.929 . S
H950 C894 0.930 . S
H951 C895 0.930 . S
H952 C898 0.930 . S
H953 C901 0.929 . S
H954 C906 0.929 . S
H955 C907 0.930 . S
H956 C914 0.929 . S
H957 C915 0.930 . S
H958 C916 0.930 . S
H959 C917 0.930 . S
H960 C919 0.929 . S
H961 C920 0.930 . S
H962 C921 0.930 . S
H963 C922 0.930 . S
H964 C926 0.929 . S
H965 C928 0.930 . S
H966 C934 0.929 . S
H967 C935 0.930 . S
Li968 N985 1.990 . S
Li968 O1028 1.956 . S
Li968 O1029 1.970 . S
Li968 O1030 1.961 . S
Li969 N993 1.990 . S
Li969 O1028 1.970 . S
Li969 O1029 1.956 . S
Li969 O1031 1.961 . S
Li970 N1015 1.990 . S
Li970 O1028 1.961 . S
Li970 O1030 1.956 . S
Li970 O1031 1.970 . S
Li971 N1021 1.990 . S
Li971 O1029 1.961 . S
Li971 O1030 1.970 . S
Li971 O1031 1.956 . S
C972 C974 1.348 . S
C972 C975 1.356 . S
C972 O1028 1.325 . S
N973 C976 1.314 . S
N973 C977 1.279 . S
C974 C972 1.348 . S
C974 C976 1.353 . S
C974 H1032 0.929 . S
C975 C972 1.356 . S
C975 C977 1.358 . S
C975 H1033 0.930 . S
C976 N973 1.314 . S
C976 C974 1.353 . S
C976 H1034 0.930 . S
C977 N973 1.279 . S
C977 C975 1.358 . S
C977 H1035 0.930 . S
C978 C981 1.348 . S
C978 C982 1.356 . S
C978 O1029 1.325 . S
C979 N980 1.279 . S
C979 C982 1.358 . S
C979 H1036 0.930 . S
N980 C979 1.279 . S
N980 C983 1.314 . S
C981 C978 1.348 . S
C981 C983 1.353 . S
C981 H1037 0.929 . S
C982 C978 1.356 . S
C982 C979 1.358 . S
C982 H1038 0.930 . S
C983 N980 1.314 . S
C983 C981 1.353 . S
C983 H1039 0.930 . S
C984 N985 1.314 . S
C984 C989 1.353 . S
C984 H990 0.930 . S
N985 Li968 1.990 . S
N985 C984 1.314 . S
N985 C987 1.279 . S
C986 C987 1.358 . S
C986 C988 1.356 . S
C986 H1040 0.930 . S
C987 N985 1.279 . S
C987 C986 1.358 . S
C987 H991 0.930 . S
C988 C986 1.356 . S
C988 C989 1.348 . S
C989 C984 1.353 . S
C989 C988 1.348 . S
C989 H1041 0.929 . S
H990 C984 0.930 . S
H991 C987 0.930 . S
C992 N993 1.314 . S
C992 C994 1.353 . S
C992 H998 0.930 . S
N993 Li969 1.990 . S
N993 C992 1.314 . S
N993 C996 1.279 . S
C994 C992 1.353 . S
C994 C997 1.348 . S
C994 H1042 0.929 . S
C995 C996 1.358 . S
C995 C997 1.356 . S
C995 H1043 0.930 . S
C996 N993 1.279 . S
C996 C995 1.358 . S
C996 H999 0.930 . S
C997 C994 1.348 . S
C997 C995 1.356 . S
H998 C992 0.930 . S
H999 C996 0.930 . S
C1000 C1002 1.348 . S
C1000 C1003 1.356 . S
C1000 O1030 1.325 . S
N1001 C1004 1.314 . S
N1001 C1005 1.279 . S
C1002 C1000 1.348 . S
C1002 C1004 1.353 . S
C1002 H1044 0.929 . S
C1003 C1000 1.356 . S
C1003 C1005 1.358 . S
C1003 H1045 0.930 . S
C1004 N1001 1.314 . S
C1004 C1002 1.353 . S
C1004 H1046 0.930 . S
C1005 N1001 1.279 . S
C1005 C1003 1.358 . S
C1005 H1047 0.930 . S
C1006 C1007 1.348 . S
C1006 C1008 1.356 . S
C1006 O1031 1.325 . S
C1007 C1006 1.348 . S
C1007 C1009 1.353 . S
C1007 H1048 0.929 . S
C1008 C1006 1.356 . S
C1008 C1010 1.358 . S
C1008 H1049 0.930 . S
C1009 C1007 1.353 . S
C1009 N1011 1.314 . S
C1009 H1050 0.930 . S
C1010 C1008 1.358 . S
C1010 N1011 1.279 . S
C1010 H1051 0.930 . S
N1011 C1009 1.314 . S
N1011 C1010 1.279 . S
C1012 C1014 1.353 . S
C1012 N1015 1.314 . S
C1012 H1018 0.930 . S
C1013 N1015 1.279 . S
C1013 C1016 1.358 . S
C1013 H1019 0.930 . S
C1014 C1012 1.353 . S
C1014 C1017 1.348 . S
C1014 H1052 0.929 . S
N1015 Li970 1.990 . S
N1015 C1012 1.314 . S
N1015 C1013 1.279 . S
C1016 C1013 1.358 . S
C1016 C1017 1.356 . S
C1016 H1053 0.930 . S
C1017 C1014 1.348 . S
C1017 C1016 1.356 . S
H1018 C1012 0.930 . S
H1019 C1013 0.930 . S
C1020 N1021 1.314 . S
C1020 C1022 1.353 . S
C1020 H1026 0.930 . S
N1021 Li971 1.990 . S
N1021 C1020 1.314 . S
N1021 C1024 1.279 . S
C1022 C1020 1.353 . S
C1022 C1025 1.348 . S
C1022 H1054 0.929 . S
C1023 C1024 1.358 . S
C1023 C1025 1.356 . S
C1023 H1055 0.930 . S
C1024 N1021 1.279 . S
C1024 C1023 1.358 . S
C1024 H1027 0.930 . S
C1025 C1022 1.348 . S
C1025 C1023 1.356 . S
H1026 C1020 0.930 . S
H1027 C1024 0.930 . S
O1028 Li968 1.956 . S
O1028 Li969 1.970 . S
O1028 Li970 1.961 . S
O1028 C972 1.325 . S
O1029 Li968 1.970 . S
O1029 Li969 1.956 . S
O1029 Li971 1.961 . S
O1029 C978 1.325 . S
O1030 Li968 1.961 . S
O1030 Li970 1.956 . S
O1030 Li971 1.970 . S
O1030 C1000 1.325 . S
O1031 Li969 1.961 . S
O1031 Li970 1.970 . S
O1031 Li971 1.956 . S
O1031 C1006 1.325 . S
H1032 C974 0.929 . S
H1033 C975 0.930 . S
H1034 C976 0.930 . S
H1035 C977 0.930 . S
H1036 C979 0.930 . S
H1037 C981 0.929 . S
H1038 C982 0.930 . S
H1039 C983 0.930 . S
H1040 C986 0.930 . S
H1041 C989 0.929 . S
H1042 C994 0.929 . S
H1043 C995 0.930 . S
H1044 C1002 0.929 . S
H1045 C1003 0.930 . S
H1046 C1004 0.930 . S
H1047 C1005 0.930 . S
H1048 C1007 0.929 . S
H1049 C1008 0.930 . S
H1050 C1009 0.930 . S
H1051 C1010 0.930 . S
H1052 C1014 0.929 . S
H1053 C1016 0.930 . S
H1054 C1022 0.929 . S
H1055 C1023 0.930 . S
Li1056 N1073 1.990 . S
Li1056 O1116 1.956 . S
Li1056 O1117 1.970 . S
Li1056 O1118 1.961 . S
Li1057 N1081 1.990 . S
Li1057 O1116 1.970 . S
Li1057 O1117 1.956 . S
Li1057 O1119 1.961 . S
Li1058 N1103 1.990 . S
Li1058 O1116 1.961 . S
Li1058 O1118 1.956 . S
Li1058 O1119 1.970 . S
Li1059 N1109 1.990 . S
Li1059 O1117 1.961 . S
Li1059 O1118 1.970 . S
Li1059 O1119 1.956 . S
C1060 C1062 1.348 . S
C1060 C1063 1.356 . S
C1060 O1116 1.325 . S
N1061 C1064 1.314 . S
N1061 C1065 1.279 . S
C1062 C1060 1.348 . S
C1062 C1064 1.353 . S
C1062 H1120 0.929 . S
C1063 C1060 1.356 . S
C1063 C1065 1.358 . S
C1063 H1121 0.930 . S
C1064 N1061 1.314 . S
C1064 C1062 1.353 . S
C1064 H1122 0.930 . S
C1065 N1061 1.279 . S
C1065 C1063 1.358 . S
C1065 H1123 0.930 . S
C1066 C1069 1.348 . S
C1066 C1070 1.356 . S
C1066 O1117 1.325 . S
C1067 N1068 1.279 . S
C1067 C1070 1.358 . S
C1067 H1124 0.930 . S
N1068 C1067 1.279 . S
N1068 C1071 1.314 . S
C1069 C1066 1.348 . S
C1069 C1071 1.353 . S
C1069 H1125 0.929 . S
C1070 C1066 1.356 . S
C1070 C1067 1.358 . S
C1070 H1126 0.930 . S
C1071 N1068 1.314 . S
C1071 C1069 1.353 . S
C1071 H1127 0.930 . S
C1072 N1073 1.314 . S
C1072 C1077 1.353 . S
C1072 H1078 0.930 . S
N1073 Li1056 1.990 . S
N1073 C1072 1.314 . S
N1073 C1075 1.279 . S
C1074 C1075 1.358 . S
C1074 C1076 1.356 . S
C1074 H1128 0.930 . S
C1075 N1073 1.279 . S
C1075 C1074 1.358 . S
C1075 H1079 0.930 . S
C1076 C1074 1.356 . S
C1076 C1077 1.348 . S
C1077 C1072 1.353 . S
C1077 C1076 1.348 . S
C1077 H1129 0.929 . S
H1078 C1072 0.930 . S
H1079 C1075 0.930 . S
C1080 N1081 1.314 . S
C1080 C1082 1.353 . S
C1080 H1086 0.930 . S
N1081 Li1057 1.990 . S
N1081 C1080 1.314 . S
N1081 C1084 1.279 . S
C1082 C1080 1.353 . S
C1082 C1085 1.348 . S
C1082 H1130 0.929 . S
C1083 C1084 1.358 . S
C1083 C1085 1.356 . S
C1083 H1131 0.930 . S
C1084 N1081 1.279 . S
C1084 C1083 1.358 . S
C1084 H1087 0.930 . S
C1085 C1082 1.348 . S
C1085 C1083 1.356 . S
H1086 C1080 0.930 . S
H1087 C1084 0.930 . S
C1088 C1090 1.348 . S
C1088 C1091 1.356 . S
C1088 O1118 1.325 . S
N1089 C1092 1.314 . S
N1089 C1093 1.279 . S
C1090 C1088 1.348 . S
C1090 C1092 1.353 . S
C1090 H1132 0.929 . S
C1091 C1088 1.356 . S
C1091 C1093 1.358 . S
C1091 H1133 0.930 . S
C1092 N1089 1.314 . S
C1092 C1090 1.353 . S
C1092 H1134 0.930 . S
C1093 N1089 1.279 . S
C1093 C1091 1.358 . S
C1093 H1135 0.930 . S
C1094 C1095 1.348 . S
C1094 C1096 1.356 . S
C1094 O1119 1.325 . S
C1095 C1094 1.348 . S
C1095 C1097 1.353 . S
C1095 H1136 0.929 . S
C1096 C1094 1.356 . S
C1096 C1098 1.358 . S
C1096 H1137 0.930 . S
C1097 C1095 1.353 . S
C1097 N1099 1.314 . S
C1097 H1138 0.930 . S
C1098 C1096 1.358 . S
C1098 N1099 1.279 . S
C1098 H1139 0.930 . S
N1099 C1097 1.314 . S
N1099 C1098 1.279 . S
C1100 C1102 1.353 . S
C1100 N1103 1.314 . S
C1100 H1106 0.930 . S
C1101 N1103 1.279 . S
C1101 C1104 1.358 . S
C1101 H1107 0.930 . S
C1102 C1100 1.353 . S
C1102 C1105 1.348 . S
C1102 H1140 0.929 . S
N1103 Li1058 1.990 . S
N1103 C1100 1.314 . S
N1103 C1101 1.279 . S
C1104 C1101 1.358 . S
C1104 C1105 1.356 . S
C1104 H1141 0.930 . S
C1105 C1102 1.348 . S
C1105 C1104 1.356 . S
H1106 C1100 0.930 . S
H1107 C1101 0.930 . S
C1108 N1109 1.314 . S
C1108 C1110 1.353 . S
C1108 H1114 0.930 . S
N1109 Li1059 1.990 . S
N1109 C1108 1.314 . S
N1109 C1112 1.279 . S
C1110 C1108 1.353 . S
C1110 C1113 1.348 . S
C1110 H1142 0.929 . S
C1111 C1112 1.358 . S
C1111 C1113 1.356 . S
C1111 H1143 0.930 . S
C1112 N1109 1.279 . S
C1112 C1111 1.358 . S
C1112 H1115 0.930 . S
C1113 C1110 1.348 . S
C1113 C1111 1.356 . S
H1114 C1108 0.930 . S
H1115 C1112 0.930 . S
O1116 Li1056 1.956 . S
O1116 Li1057 1.970 . S
O1116 Li1058 1.961 . S
O1116 C1060 1.325 . S
O1117 Li1056 1.970 . S
O1117 Li1057 1.956 . S
O1117 Li1059 1.961 . S
O1117 C1066 1.325 . S
O1118 Li1056 1.961 . S
O1118 Li1058 1.956 . S
O1118 Li1059 1.970 . S
O1118 C1088 1.325 . S
O1119 Li1057 1.961 . S
O1119 Li1058 1.970 . S
O1119 Li1059 1.956 . S
O1119 C1094 1.325 . S
H1120 C1062 0.929 . S
H1121 C1063 0.930 . S
H1122 C1064 0.930 . S
H1123 C1065 0.930 . S
H1124 C1067 0.930 . S
H1125 C1069 0.929 . S
H1126 C1070 0.930 . S
H1127 C1071 0.930 . S
H1128 C1074 0.930 . S
H1129 C1077 0.929 . S
H1130 C1082 0.929 . S
H1131 C1083 0.930 . S
H1132 C1090 0.929 . S
H1133 C1091 0.930 . S
H1134 C1092 0.930 . S
H1135 C1093 0.930 . S
H1136 C1095 0.929 . S
H1137 C1096 0.930 . S
H1138 C1097 0.930 . S
H1139 C1098 0.930 . S
H1140 C1102 0.929 . S
H1141 C1104 0.930 . S
H1142 C1110 0.929 . S
H1143 C1111 0.930 . S
Li1144 N1161 1.990 . S
Li1144 O1204 1.956 . S
Li1144 O1205 1.970 . S
Li1144 O1206 1.961 . S
Li1145 N1169 1.990 . S
Li1145 O1204 1.970 . S
Li1145 O1205 1.956 . S
Li1145 O1207 1.961 . S
Li1146 N1191 1.990 . S
Li1146 O1204 1.961 . S
Li1146 O1206 1.956 . S
Li1146 O1207 1.970 . S
Li1147 N1197 1.990 . S
Li1147 O1205 1.961 . S
Li1147 O1206 1.970 . S
Li1147 O1207 1.956 . S
C1148 C1150 1.348 . S
C1148 C1151 1.356 . S
C1148 O1204 1.325 . S
N1149 C1152 1.314 . S
N1149 C1153 1.279 . S
C1150 C1148 1.348 . S
C1150 C1152 1.353 . S
C1150 H1208 0.929 . S
C1151 C1148 1.356 . S
C1151 C1153 1.358 . S
C1151 H1209 0.930 . S
C1152 N1149 1.314 . S
C1152 C1150 1.353 . S
C1152 H1210 0.930 . S
C1153 N1149 1.279 . S
C1153 C1151 1.358 . S
C1153 H1211 0.930 . S
C1154 C1157 1.348 . S
C1154 C1158 1.356 . S
C1154 O1205 1.325 . S
C1155 N1156 1.279 . S
C1155 C1158 1.358 . S
C1155 H1212 0.930 . S
N1156 C1155 1.279 . S
N1156 C1159 1.314 . S
C1157 C1154 1.348 . S
C1157 C1159 1.353 . S
C1157 H1213 0.929 . S
C1158 C1154 1.356 . S
C1158 C1155 1.358 . S
C1158 H1214 0.930 . S
C1159 N1156 1.314 . S
C1159 C1157 1.353 . S
C1159 H1215 0.930 . S
C1160 N1161 1.314 . S
C1160 C1165 1.353 . S
C1160 H1166 0.930 . S
N1161 Li1144 1.990 . S
N1161 C1160 1.314 . S
N1161 C1163 1.279 . S
C1162 C1163 1.358 . S
C1162 C1164 1.356 . S
C1162 H1216 0.930 . S
C1163 N1161 1.279 . S
C1163 C1162 1.358 . S
C1163 H1167 0.930 . S
C1164 C1162 1.356 . S
C1164 C1165 1.348 . S
C1165 C1160 1.353 . S
C1165 C1164 1.348 . S
C1165 H1217 0.929 . S
H1166 C1160 0.930 . S
H1167 C1163 0.930 . S
C1168 N1169 1.314 . S
C1168 C1170 1.353 . S
C1168 H1174 0.930 . S
N1169 Li1145 1.990 . S
N1169 C1168 1.314 . S
N1169 C1172 1.279 . S
C1170 C1168 1.353 . S
C1170 C1173 1.348 . S
C1170 H1218 0.929 . S
C1171 C1172 1.358 . S
C1171 C1173 1.356 . S
C1171 H1219 0.930 . S
C1172 N1169 1.279 . S
C1172 C1171 1.358 . S
C1172 H1175 0.930 . S
C1173 C1170 1.348 . S
C1173 C1171 1.356 . S
H1174 C1168 0.930 . S
H1175 C1172 0.930 . S
C1176 C1178 1.348 . S
C1176 C1179 1.356 . S
C1176 O1206 1.325 . S
N1177 C1180 1.314 . S
N1177 C1181 1.279 . S
C1178 C1176 1.348 . S
C1178 C1180 1.353 . S
C1178 H1220 0.929 . S
C1179 C1176 1.356 . S
C1179 C1181 1.358 . S
C1179 H1221 0.930 . S
C1180 N1177 1.314 . S
C1180 C1178 1.353 . S
C1180 H1222 0.930 . S
C1181 N1177 1.279 . S
C1181 C1179 1.358 . S
C1181 H1223 0.930 . S
C1182 C1183 1.348 . S
C1182 C1184 1.356 . S
C1182 O1207 1.325 . S
C1183 C1182 1.348 . S
C1183 C1185 1.353 . S
C1183 H1224 0.929 . S
C1184 C1182 1.356 . S
C1184 C1186 1.358 . S
C1184 H1225 0.930 . S
C1185 C1183 1.353 . S
C1185 N1187 1.314 . S
C1185 H1226 0.930 . S
C1186 C1184 1.358 . S
C1186 N1187 1.279 . S
C1186 H1227 0.930 . S
N1187 C1185 1.314 . S
N1187 C1186 1.279 . S
C1188 C1190 1.353 . S
C1188 N1191 1.314 . S
C1188 H1194 0.930 . S
C1189 N1191 1.279 . S
C1189 C1192 1.358 . S
C1189 H1195 0.930 . S
C1190 C1188 1.353 . S
C1190 C1193 1.348 . S
C1190 H1228 0.929 . S
N1191 Li1146 1.990 . S
N1191 C1188 1.314 . S
N1191 C1189 1.279 . S
C1192 C1189 1.358 . S
C1192 C1193 1.356 . S
C1192 H1229 0.930 . S
C1193 C1190 1.348 . S
C1193 C1192 1.356 . S
H1194 C1188 0.930 . S
H1195 C1189 0.930 . S
C1196 N1197 1.314 . S
C1196 C1198 1.353 . S
C1196 H1202 0.930 . S
N1197 Li1147 1.990 . S
N1197 C1196 1.314 . S
N1197 C1200 1.279 . S
C1198 C1196 1.353 . S
C1198 C1201 1.348 . S
C1198 H1230 0.929 . S
C1199 C1200 1.358 . S
C1199 C1201 1.356 . S
C1199 H1231 0.930 . S
C1200 N1197 1.279 . S
C1200 C1199 1.358 . S
C1200 H1203 0.930 . S
C1201 C1198 1.348 . S
C1201 C1199 1.356 . S
H1202 C1196 0.930 . S
H1203 C1200 0.930 . S
O1204 Li1144 1.956 . S
O1204 Li1145 1.970 . S
O1204 Li1146 1.961 . S
O1204 C1148 1.325 . S
O1205 Li1144 1.970 . S
O1205 Li1145 1.956 . S
O1205 Li1147 1.961 . S
O1205 C1154 1.325 . S
O1206 Li1144 1.961 . S
O1206 Li1146 1.956 . S
O1206 Li1147 1.970 . S
O1206 C1176 1.325 . S
O1207 Li1145 1.961 . S
O1207 Li1146 1.970 . S
O1207 Li1147 1.956 . S
O1207 C1182 1.325 . S
H1208 C1150 0.929 . S
H1209 C1151 0.930 . S
H1210 C1152 0.930 . S
H1211 C1153 0.930 . S
H1212 C1155 0.930 . S
H1213 C1157 0.929 . S
H1214 C1158 0.930 . S
H1215 C1159 0.930 . S
H1216 C1162 0.930 . S
H1217 C1165 0.929 . S
H1218 C1170 0.929 . S
H1219 C1171 0.930 . S
H1220 C1178 0.929 . S
H1221 C1179 0.930 . S
H1222 C1180 0.930 . S
H1223 C1181 0.930 . S
H1224 C1183 0.929 . S
H1225 C1184 0.930 . S
H1226 C1185 0.930 . S
H1227 C1186 0.930 . S
H1228 C1190 0.929 . S
H1229 C1192 0.930 . S
H1230 C1198 0.929 . S
H1231 C1199 0.930 . S
Li1232 N1249 1.990 . S
Li1232 O1292 1.956 . S
Li1232 O1293 1.970 . S
Li1232 O1294 1.961 . S
Li1233 N1257 1.990 . S
Li1233 O1292 1.970 . S
Li1233 O1293 1.956 . S
Li1233 O1295 1.961 . S
Li1234 N1279 1.990 . S
Li1234 O1292 1.961 . S
Li1234 O1294 1.956 . S
Li1234 O1295 1.970 . S
Li1235 N1285 1.990 . S
Li1235 O1293 1.961 . S
Li1235 O1294 1.970 . S
Li1235 O1295 1.956 . S
C1236 C1238 1.348 . S
C1236 C1239 1.356 . S
C1236 O1292 1.325 . S
N1237 C1240 1.314 . S
N1237 C1241 1.279 . S
C1238 C1236 1.348 . S
C1238 C1240 1.353 . S
C1238 H1296 0.929 . S
C1239 C1236 1.356 . S
C1239 C1241 1.358 . S
C1239 H1297 0.930 . S
C1240 N1237 1.314 . S
C1240 C1238 1.353 . S
C1240 H1298 0.930 . S
C1241 N1237 1.279 . S
C1241 C1239 1.358 . S
C1241 H1299 0.930 . S
C1242 C1245 1.348 . S
C1242 C1246 1.356 . S
C1242 O1293 1.325 . S
C1243 N1244 1.279 . S
C1243 C1246 1.358 . S
C1243 H1300 0.930 . S
N1244 C1243 1.279 . S
N1244 C1247 1.314 . S
C1245 C1242 1.348 . S
C1245 C1247 1.353 . S
C1245 H1301 0.929 . S
C1246 C1242 1.356 . S
C1246 C1243 1.358 . S
C1246 H1302 0.930 . S
C1247 N1244 1.314 . S
C1247 C1245 1.353 . S
C1247 H1303 0.930 . S
C1248 N1249 1.314 . S
C1248 C1253 1.353 . S
C1248 H1254 0.930 . S
N1249 Li1232 1.990 . S
N1249 C1248 1.314 . S
N1249 C1251 1.279 . S
C1250 C1251 1.358 . S
C1250 C1252 1.356 . S
C1250 H1304 0.930 . S
C1251 N1249 1.279 . S
C1251 C1250 1.358 . S
C1251 H1255 0.930 . S
C1252 C1250 1.356 . S
C1252 C1253 1.348 . S
C1253 C1248 1.353 . S
C1253 C1252 1.348 . S
C1253 H1305 0.929 . S
H1254 C1248 0.930 . S
H1255 C1251 0.930 . S
C1256 N1257 1.314 . S
C1256 C1258 1.353 . S
C1256 H1262 0.930 . S
N1257 Li1233 1.990 . S
N1257 C1256 1.314 . S
N1257 C1260 1.279 . S
C1258 C1256 1.353 . S
C1258 C1261 1.348 . S
C1258 H1306 0.929 . S
C1259 C1260 1.358 . S
C1259 C1261 1.356 . S
C1259 H1307 0.930 . S
C1260 N1257 1.279 . S
C1260 C1259 1.358 . S
C1260 H1263 0.930 . S
C1261 C1258 1.348 . S
C1261 C1259 1.356 . S
H1262 C1256 0.930 . S
H1263 C1260 0.930 . S
C1264 C1266 1.348 . S
C1264 C1267 1.356 . S
C1264 O1294 1.325 . S
N1265 C1268 1.314 . S
N1265 C1269 1.279 . S
C1266 C1264 1.348 . S
C1266 C1268 1.353 . S
C1266 H1308 0.929 . S
C1267 C1264 1.356 . S
C1267 C1269 1.358 . S
C1267 H1309 0.930 . S
C1268 N1265 1.314 . S
C1268 C1266 1.353 . S
C1268 H1310 0.930 . S
C1269 N1265 1.279 . S
C1269 C1267 1.358 . S
C1269 H1311 0.930 . S
C1270 C1271 1.348 . S
C1270 C1272 1.356 . S
C1270 O1295 1.325 . S
C1271 C1270 1.348 . S
C1271 C1273 1.353 . S
C1271 H1312 0.929 . S
C1272 C1270 1.356 . S
C1272 C1274 1.358 . S
C1272 H1313 0.930 . S
C1273 C1271 1.353 . S
C1273 N1275 1.314 . S
C1273 H1314 0.930 . S
C1274 C1272 1.358 . S
C1274 N1275 1.279 . S
C1274 H1315 0.930 . S
N1275 C1273 1.314 . S
N1275 C1274 1.279 . S
C1276 C1278 1.353 . S
C1276 N1279 1.314 . S
C1276 H1282 0.930 . S
C1277 N1279 1.279 . S
C1277 C1280 1.358 . S
C1277 H1283 0.930 . S
C1278 C1276 1.353 . S
C1278 C1281 1.348 . S
C1278 H1316 0.929 . S
N1279 Li1234 1.990 . S
N1279 C1276 1.314 . S
N1279 C1277 1.279 . S
C1280 C1277 1.358 . S
C1280 C1281 1.356 . S
C1280 H1317 0.930 . S
C1281 C1278 1.348 . S
C1281 C1280 1.356 . S
H1282 C1276 0.930 . S
H1283 C1277 0.930 . S
C1284 N1285 1.314 . S
C1284 C1286 1.353 . S
C1284 H1290 0.930 . S
N1285 Li1235 1.990 . S
N1285 C1284 1.314 . S
N1285 C1288 1.279 . S
C1286 C1284 1.353 . S
C1286 C1289 1.348 . S
C1286 H1318 0.929 . S
C1287 C1288 1.358 . S
C1287 C1289 1.356 . S
C1287 H1319 0.930 . S
C1288 N1285 1.279 . S
C1288 C1287 1.358 . S
C1288 H1291 0.930 . S
C1289 C1286 1.348 . S
C1289 C1287 1.356 . S
H1290 C1284 0.930 . S
H1291 C1288 0.930 . S
O1292 Li1232 1.956 . S
O1292 Li1233 1.970 . S
O1292 Li1234 1.961 . S
O1292 C1236 1.325 . S
O1293 Li1232 1.970 . S
O1293 Li1233 1.956 . S
O1293 Li1235 1.961 . S
O1293 C1242 1.325 . S
O1294 Li1232 1.961 . S
O1294 Li1234 1.956 . S
O1294 Li1235 1.970 . S
O1294 C1264 1.325 . S
O1295 Li1233 1.961 . S
O1295 Li1234 1.970 . S
O1295 Li1235 1.956 . S
O1295 C1270 1.325 . S
H1296 C1238 0.929 . S
H1297 C1239 0.930 . S
H1298 C1240 0.930 . S
H1299 C1241 0.930 . S
H1300 C1243 0.930 . S
H1301 C1245 0.929 . S
H1302 C1246 0.930 . S
H1303 C1247 0.930 . S
H1304 C1250 0.930 . S
H1305 C1253 0.929 . S
H1306 C1258 0.929 . S
H1307 C1259 0.930 . S
H1308 C1266 0.929 . S
H1309 C1267 0.930 . S
H1310 C1268 0.930 . S
H1311 C1269 0.930 . S
H1312 C1271 0.929 . S
H1313 C1272 0.930 . S
H1314 C1273 0.930 . S
H1315 C1274 0.930 . S
H1316 C1278 0.929 . S
H1317 C1280 0.930 . S
H1318 C1286 0.929 . S
H1319 C1287 0.930 . S
Li1320 N1337 1.990 . S
Li1320 O1380 1.956 . S
Li1320 O1381 1.970 . S
Li1320 O1382 1.961 . S
Li1321 N1345 1.990 . S
Li1321 O1380 1.970 . S
Li1321 O1381 1.956 . S
Li1321 O1383 1.961 . S
Li1322 N1367 1.990 . S
Li1322 O1380 1.961 . S
Li1322 O1382 1.956 . S
Li1322 O1383 1.970 . S
Li1323 N1373 1.990 . S
Li1323 O1381 1.961 . S
Li1323 O1382 1.970 . S
Li1323 O1383 1.956 . S
C1324 C1326 1.348 . S
C1324 C1327 1.356 . S
C1324 O1380 1.325 . S
N1325 C1328 1.314 . S
N1325 C1329 1.279 . S
C1326 C1324 1.348 . S
C1326 C1328 1.353 . S
C1326 H1384 0.929 . S
C1327 C1324 1.356 . S
C1327 C1329 1.358 . S
C1327 H1385 0.930 . S
C1328 N1325 1.314 . S
C1328 C1326 1.353 . S
C1328 H1386 0.930 . S
C1329 N1325 1.279 . S
C1329 C1327 1.358 . S
C1329 H1387 0.930 . S
C1330 C1333 1.348 . S
C1330 C1334 1.356 . S
C1330 O1381 1.325 . S
C1331 N1332 1.279 . S
C1331 C1334 1.358 . S
C1331 H1388 0.930 . S
N1332 C1331 1.279 . S
N1332 C1335 1.314 . S
C1333 C1330 1.348 . S
C1333 C1335 1.353 . S
C1333 H1389 0.929 . S
C1334 C1330 1.356 . S
C1334 C1331 1.358 . S
C1334 H1390 0.930 . S
C1335 N1332 1.314 . S
C1335 C1333 1.353 . S
C1335 H1391 0.930 . S
C1336 N1337 1.314 . S
C1336 C1341 1.353 . S
C1336 H1342 0.930 . S
N1337 Li1320 1.990 . S
N1337 C1336 1.314 . S
N1337 C1339 1.279 . S
C1338 C1339 1.358 . S
C1338 C1340 1.356 . S
C1338 H1392 0.930 . S
C1339 N1337 1.279 . S
C1339 C1338 1.358 . S
C1339 H1343 0.930 . S
C1340 C1338 1.356 . S
C1340 C1341 1.348 . S
C1341 C1336 1.353 . S
C1341 C1340 1.348 . S
C1341 H1393 0.929 . S
H1342 C1336 0.930 . S
H1343 C1339 0.930 . S
C1344 N1345 1.314 . S
C1344 C1346 1.353 . S
C1344 H1350 0.930 . S
N1345 Li1321 1.990 . S
N1345 C1344 1.314 . S
N1345 C1348 1.279 . S
C1346 C1344 1.353 . S
C1346 C1349 1.348 . S
C1346 H1394 0.929 . S
C1347 C1348 1.358 . S
C1347 C1349 1.356 . S
C1347 H1395 0.930 . S
C1348 N1345 1.279 . S
C1348 C1347 1.358 . S
C1348 H1351 0.930 . S
C1349 C1346 1.348 . S
C1349 C1347 1.356 . S
H1350 C1344 0.930 . S
H1351 C1348 0.930 . S
C1352 C1354 1.348 . S
C1352 C1355 1.356 . S
C1352 O1382 1.325 . S
N1353 C1356 1.314 . S
N1353 C1357 1.279 . S
C1354 C1352 1.348 . S
C1354 C1356 1.353 . S
C1354 H1396 0.929 . S
C1355 C1352 1.356 . S
C1355 C1357 1.358 . S
C1355 H1397 0.930 . S
C1356 N1353 1.314 . S
C1356 C1354 1.353 . S
C1356 H1398 0.930 . S
C1357 N1353 1.279 . S
C1357 C1355 1.358 . S
C1357 H1399 0.930 . S
C1358 C1359 1.348 . S
C1358 C1360 1.356 . S
C1358 O1383 1.325 . S
C1359 C1358 1.348 . S
C1359 C1361 1.353 . S
C1359 H1400 0.929 . S
C1360 C1358 1.356 . S
C1360 C1362 1.358 . S
C1360 H1401 0.930 . S
C1361 C1359 1.353 . S
C1361 N1363 1.314 . S
C1361 H1402 0.930 . S
C1362 C1360 1.358 . S
C1362 N1363 1.279 . S
C1362 H1403 0.930 . S
N1363 C1361 1.314 . S
N1363 C1362 1.279 . S
C1364 C1366 1.353 . S
C1364 N1367 1.314 . S
C1364 H1370 0.930 . S
C1365 N1367 1.279 . S
C1365 C1368 1.358 . S
C1365 H1371 0.930 . S
C1366 C1364 1.353 . S
C1366 C1369 1.348 . S
C1366 H1404 0.929 . S
N1367 Li1322 1.990 . S
N1367 C1364 1.314 . S
N1367 C1365 1.279 . S
C1368 C1365 1.358 . S
C1368 C1369 1.356 . S
C1368 H1405 0.930 . S
C1369 C1366 1.348 . S
C1369 C1368 1.356 . S
H1370 C1364 0.930 . S
H1371 C1365 0.930 . S
C1372 N1373 1.314 . S
C1372 C1374 1.353 . S
C1372 H1378 0.930 . S
N1373 Li1323 1.990 . S
N1373 C1372 1.314 . S
N1373 C1376 1.279 . S
C1374 C1372 1.353 . S
C1374 C1377 1.348 . S
C1374 H1406 0.929 . S
C1375 C1376 1.358 . S
C1375 C1377 1.356 . S
C1375 H1407 0.930 . S
C1376 N1373 1.279 . S
C1376 C1375 1.358 . S
C1376 H1379 0.930 . S
C1377 C1374 1.348 . S
C1377 C1375 1.356 . S
H1378 C1372 0.930 . S
H1379 C1376 0.930 . S
O1380 Li1320 1.956 . S
O1380 Li1321 1.970 . S
O1380 Li1322 1.961 . S
O1380 C1324 1.325 . S
O1381 Li1320 1.970 . S
O1381 Li1321 1.956 . S
O1381 Li1323 1.961 . S
O1381 C1330 1.325 . S
O1382 Li1320 1.961 . S
O1382 Li1322 1.956 . S
O1382 Li1323 1.970 . S
O1382 C1352 1.325 . S
O1383 Li1321 1.961 . S
O1383 Li1322 1.970 . S
O1383 Li1323 1.956 . S
O1383 C1358 1.325 . S
H1384 C1326 0.929 . S
H1385 C1327 0.930 . S
H1386 C1328 0.930 . S
H1387 C1329 0.930 . S
H1388 C1331 0.930 . S
H1389 C1333 0.929 . S
H1390 C1334 0.930 . S
H1391 C1335 0.930 . S
H1392 C1338 0.930 . S
H1393 C1341 0.929 . S
H1394 C1346 0.929 . S
H1395 C1347 0.930 . S
H1396 C1354 0.929 . S
H1397 C1355 0.930 . S
H1398 C1356 0.930 . S
H1399 C1357 0.930 . S
H1400 C1359 0.929 . S
H1401 C1360 0.930 . S
H1402 C1361 0.930 . S
H1403 C1362 0.930 . S
H1404 C1366 0.929 . S
H1405 C1368 0.930 . S
H1406 C1374 0.929 . S
H1407 C1375 0.930 . S
H1408 C1414 0.930 . S
H1409 C1417 0.930 . S
H1410 C1418 0.930 . S
H1411 C1419 0.930 . S
H1412 C1422 0.930 . S
H1413 C1423 0.930 . S
C1414 H1408 0.930 . S
C1414 C1415 1.355 . S
C1414 C1416 1.415 . S
C1415 C1414 1.355 . S
C1415 C1417 1.419 . S
C1416 C1414 1.415 . S
C1416 C1421 1.425 . S
C1416 C1423 1.409 . S
C1417 H1409 0.930 . S
C1417 C1415 1.419 . S
C1417 C1418 1.362 . S
C1418 H1410 0.930 . S
C1418 C1417 1.362 . S
C1418 C1421 1.409 . S
C1419 H1411 0.930 . S
C1419 C1420 1.355 . S
C1419 C1421 1.415 . S
C1420 C1419 1.355 . S
C1420 C1422 1.419 . S
C1421 C1416 1.425 . S
C1421 C1418 1.409 . S
C1421 C1419 1.415 . S
C1422 H1412 0.930 . S
C1422 C1420 1.419 . S
C1422 C1423 1.362 . S
C1423 H1413 0.930 . S
C1423 C1416 1.409 . S
C1423 C1422 1.362 . S
H1424 C1430 0.930 . S
H1425 C1433 0.930 . S
H1426 C1434 0.930 . S
H1427 C1435 0.930 . S
H1428 C1438 0.930 . S
H1429 C1439 0.930 . S
C1430 H1424 0.930 . S
C1430 C1431 1.355 . S
C1430 C1432 1.415 . S
C1431 C1430 1.355 . S
C1431 C1433 1.419 . S
C1432 C1430 1.415 . S
C1432 C1437 1.425 . S
C1432 C1439 1.409 . S
C1433 H1425 0.930 . S
C1433 C1431 1.419 . S
C1433 C1434 1.362 . S
C1434 H1426 0.930 . S
C1434 C1433 1.362 . S
C1434 C1437 1.409 . S
C1435 H1427 0.930 . S
C1435 C1436 1.355 . S
C1435 C1437 1.415 . S
C1436 C1435 1.355 . S
C1436 C1438 1.419 . S
C1437 C1432 1.425 . S
C1437 C1434 1.409 . S
C1437 C1435 1.415 . S
C1438 H1428 0.930 . S
C1438 C1436 1.419 . S
C1438 C1439 1.362 . S
C1439 H1429 0.930 . S
C1439 C1432 1.409 . S
C1439 C1438 1.362 . S
H1440 C1446 0.930 . S
H1441 C1449 0.930 . S
H1442 C1450 0.930 . S
H1443 C1451 0.930 . S
H1444 C1454 0.930 . S
H1445 C1455 0.930 . S
C1446 H1440 0.930 . S
C1446 C1447 1.355 . S
C1446 C1448 1.415 . S
C1447 C1446 1.355 . S
C1447 C1449 1.419 . S
C1448 C1446 1.415 . S
C1448 C1453 1.425 . S
C1448 C1455 1.409 . S
C1449 H1441 0.930 . S
C1449 C1447 1.419 . S
C1449 C1450 1.362 . S
C1450 H1442 0.930 . S
C1450 C1449 1.362 . S
C1450 C1453 1.409 . S
C1451 H1443 0.930 . S
C1451 C1452 1.355 . S
C1451 C1453 1.415 . S
C1452 C1451 1.355 . S
C1452 C1454 1.419 . S
C1453 C1448 1.425 . S
C1453 C1450 1.409 . S
C1453 C1451 1.415 . S
C1454 H1444 0.930 . S
C1454 C1452 1.419 . S
C1454 C1455 1.362 . S
C1455 H1445 0.930 . S
C1455 C1448 1.409 . S
C1455 C1454 1.362 . S
H1456 C1462 0.930 . S
H1457 C1465 0.930 . S
H1458 C1466 0.930 . S
H1459 C1467 0.930 . S
H1460 C1470 0.930 . S
H1461 C1471 0.930 . S
C1462 H1456 0.930 . S
C1462 C1463 1.355 . S
C1462 C1464 1.415 . S
C1463 C1462 1.355 . S
C1463 C1465 1.419 . S
C1464 C1462 1.415 . S
C1464 C1469 1.425 . S
C1464 C1471 1.409 . S
C1465 H1457 0.930 . S
C1465 C1463 1.419 . S
C1465 C1466 1.362 . S
C1466 H1458 0.930 . S
C1466 C1465 1.362 . S
C1466 C1469 1.409 . S
C1467 H1459 0.930 . S
C1467 C1468 1.355 . S
C1467 C1469 1.415 . S
C1468 C1467 1.355 . S
C1468 C1470 1.419 . S
C1469 C1464 1.425 . S
C1469 C1466 1.409 . S
C1469 C1467 1.415 . S
C1470 H1460 0.930 . S
C1470 C1468 1.419 . S
C1470 C1471 1.362 . S
C1471 H1461 0.930 . S
C1471 C1464 1.409 . S
C1471 C1470 1.362 . S
H1472 C1478 0.930 . S
H1473 C1481 0.930 . S
H1474 C1482 0.930 . S
H1475 C1483 0.930 . S
H1476 C1486 0.930 . S
H1477 C1487 0.930 . S
C1478 H1472 0.930 . S
C1478 C1479 1.355 . S
C1478 C1480 1.415 . S
C1479 C1478 1.355 . S
C1479 C1481 1.419 . S
C1480 C1478 1.415 . S
C1480 C1485 1.425 . S
C1480 C1487 1.409 . S
C1481 H1473 0.930 . S
C1481 C1479 1.419 . S
C1481 C1482 1.362 . S
C1482 H1474 0.930 . S
C1482 C1481 1.362 . S
C1482 C1485 1.409 . S
C1483 H1475 0.930 . S
C1483 C1484 1.355 . S
C1483 C1485 1.415 . S
C1484 C1483 1.355 . S
C1484 C1486 1.419 . S
C1485 C1480 1.425 . S
C1485 C1482 1.409 . S
C1485 C1483 1.415 . S
C1486 H1476 0.930 . S
C1486 C1484 1.419 . S
C1486 C1487 1.362 . S
C1487 H1477 0.930 . S
C1487 C1480 1.409 . S
C1487 C1486 1.362 . S
H1488 C1494 0.930 . S
H1489 C1497 0.930 . S
H1490 C1498 0.930 . S
H1491 C1499 0.930 . S
H1492 C1502 0.930 . S
H1493 C1503 0.930 . S
C1494 H1488 0.930 . S
C1494 C1495 1.355 . S
C1494 C1496 1.415 . S
C1495 C1494 1.355 . S
C1495 C1497 1.419 . S
C1496 C1494 1.415 . S
C1496 C1501 1.425 . S
C1496 C1503 1.409 . S
C1497 H1489 0.930 . S
C1497 C1495 1.419 . S
C1497 C1498 1.362 . S
C1498 H1490 0.930 . S
C1498 C1497 1.362 . S
C1498 C1501 1.409 . S
C1499 H1491 0.930 . S
C1499 C1500 1.355 . S
C1499 C1501 1.415 . S
C1500 C1499 1.355 . S
C1500 C1502 1.419 . S
C1501 C1496 1.425 . S
C1501 C1498 1.409 . S
C1501 C1499 1.415 . S
C1502 H1492 0.930 . S
C1502 C1500 1.419 . S
C1502 C1503 1.362 . S
C1503 H1493 0.930 . S
C1503 C1496 1.409 . S
C1503 C1502 1.362 . S
H1504 C1510 0.930 . S
H1505 C1513 0.930 . S
H1506 C1514 0.930 . S
H1507 C1515 0.930 . S
H1508 C1518 0.930 . S
H1509 C1519 0.930 . S
C1510 H1504 0.930 . S
C1510 C1511 1.355 . S
C1510 C1512 1.415 . S
C1511 C1510 1.355 . S
C1511 C1513 1.419 . S
C1512 C1510 1.415 . S
C1512 C1517 1.425 . S
C1512 C1519 1.409 . S
C1513 H1505 0.930 . S
C1513 C1511 1.419 . S
C1513 C1514 1.362 . S
C1514 H1506 0.930 . S
C1514 C1513 1.362 . S
C1514 C1517 1.409 . S
C1515 H1507 0.930 . S
C1515 C1516 1.355 . S
C1515 C1517 1.415 . S
C1516 C1515 1.355 . S
C1516 C1518 1.419 . S
C1517 C1512 1.425 . S
C1517 C1514 1.409 . S
C1517 C1515 1.415 . S
C1518 H1508 0.930 . S
C1518 C1516 1.419 . S
C1518 C1519 1.362 . S
C1519 H1509 0.930 . S
C1519 C1512 1.409 . S
C1519 C1518 1.362 . S
H1520 C1526 0.930 . S
H1521 C1529 0.930 . S
H1522 C1530 0.930 . S
H1523 C1531 0.930 . S
H1524 C1534 0.930 . S
H1525 C1535 0.930 . S
C1526 H1520 0.930 . S
C1526 C1527 1.355 . S
C1526 C1528 1.415 . S
C1527 C1526 1.355 . S
C1527 C1529 1.419 . S
C1528 C1526 1.415 . S
C1528 C1533 1.425 . S
C1528 C1535 1.409 . S
C1529 H1521 0.930 . S
C1529 C1527 1.419 . S
C1529 C1530 1.362 . S
C1530 H1522 0.930 . S
C1530 C1529 1.362 . S
C1530 C1533 1.409 . S
C1531 H1523 0.930 . S
C1531 C1532 1.355 . S
C1531 C1533 1.415 . S
C1532 C1531 1.355 . S
C1532 C1534 1.419 . S
C1533 C1528 1.425 . S
C1533 C1530 1.409 . S
C1533 C1531 1.415 . S
C1534 H1524 0.930 . S
C1534 C1532 1.419 . S
C1534 C1535 1.362 . S
C1535 H1525 0.930 . S
C1535 C1528 1.409 . S
C1535 C1534 1.362 . S
H1536 C1542 0.930 . S
H1537 C1545 0.930 . S
H1538 C1546 0.930 . S
H1539 C1547 0.930 . S
H1540 C1550 0.930 . S
H1541 C1551 0.930 . S
C1542 H1536 0.930 . S
C1542 C1543 1.355 . S
C1542 C1544 1.415 . S
C1543 C1542 1.355 . S
C1543 C1545 1.419 . S
C1544 C1542 1.415 . S
C1544 C1549 1.425 . S
C1544 C1551 1.409 . S
C1545 H1537 0.930 . S
C1545 C1543 1.419 . S
C1545 C1546 1.362 . S
C1546 H1538 0.930 . S
C1546 C1545 1.362 . S
C1546 C1549 1.409 . S
C1547 H1539 0.930 . S
C1547 C1548 1.355 . S
C1547 C1549 1.415 . S
C1548 C1547 1.355 . S
C1548 C1550 1.419 . S
C1549 C1544 1.425 . S
C1549 C1546 1.409 . S
C1549 C1547 1.415 . S
C1550 H1540 0.930 . S
C1550 C1548 1.419 . S
C1550 C1551 1.362 . S
C1551 H1541 0.930 . S
C1551 C1544 1.409 . S
C1551 C1550 1.362 . S
H1552 C1558 0.930 . S
H1553 C1561 0.930 . S
H1554 C1562 0.930 . S
H1555 C1563 0.930 . S
H1556 C1566 0.930 . S
H1557 C1567 0.930 . S
C1558 H1552 0.930 . S
C1558 C1559 1.355 . S
C1558 C1560 1.415 . S
C1559 C1558 1.355 . S
C1559 C1561 1.419 . S
C1560 C1558 1.415 . S
C1560 C1565 1.425 . S
C1560 C1567 1.409 . S
C1561 H1553 0.930 . S
C1561 C1559 1.419 . S
C1561 C1562 1.362 . S
C1562 H1554 0.930 . S
C1562 C1561 1.362 . S
C1562 C1565 1.409 . S
C1563 H1555 0.930 . S
C1563 C1564 1.355 . S
C1563 C1565 1.415 . S
C1564 C1563 1.355 . S
C1564 C1566 1.419 . S
C1565 C1560 1.425 . S
C1565 C1562 1.409 . S
C1565 C1563 1.415 . S
C1566 H1556 0.930 . S
C1566 C1564 1.419 . S
C1566 C1567 1.362 . S
C1567 H1557 0.930 . S
C1567 C1560 1.409 . S
C1567 C1566 1.362 . S
H1568 C1574 0.930 . S
H1569 C1577 0.930 . S
H1570 C1578 0.930 . S
H1571 C1579 0.930 . S
H1572 C1582 0.930 . S
H1573 C1583 0.930 . S
C1574 H1568 0.930 . S
C1574 C1575 1.355 . S
C1574 C1576 1.415 . S
C1575 C1574 1.355 . S
C1575 C1577 1.419 . S
C1576 C1574 1.415 . S
C1576 C1581 1.425 . S
C1576 C1583 1.409 . S
C1577 H1569 0.930 . S
C1577 C1575 1.419 . S
C1577 C1578 1.362 . S
C1578 H1570 0.930 . S
C1578 C1577 1.362 . S
C1578 C1581 1.409 . S
C1579 H1571 0.930 . S
C1579 C1580 1.355 . S
C1579 C1581 1.415 . S
C1580 C1579 1.355 . S
C1580 C1582 1.419 . S
C1581 C1576 1.425 . S
C1581 C1578 1.409 . S
C1581 C1579 1.415 . S
C1582 H1572 0.930 . S
C1582 C1580 1.419 . S
C1582 C1583 1.362 . S
C1583 H1573 0.930 . S
C1583 C1576 1.409 . S
C1583 C1582 1.362 . S
H1584 C1590 0.930 . S
H1585 C1593 0.930 . S
H1586 C1594 0.930 . S
H1587 C1595 0.930 . S
H1588 C1598 0.930 . S
H1589 C1599 0.930 . S
C1590 H1584 0.930 . S
C1590 C1591 1.355 . S
C1590 C1592 1.415 . S
C1591 C1590 1.355 . S
C1591 C1593 1.419 . S
C1592 C1590 1.415 . S
C1592 C1597 1.425 . S
C1592 C1599 1.409 . S
C1593 H1585 0.930 . S
C1593 C1591 1.419 . S
C1593 C1594 1.362 . S
C1594 H1586 0.930 . S
C1594 C1593 1.362 . S
C1594 C1597 1.409 . S
C1595 H1587 0.930 . S
C1595 C1596 1.355 . S
C1595 C1597 1.415 . S
C1596 C1595 1.355 . S
C1596 C1598 1.419 . S
C1597 C1592 1.425 . S
C1597 C1594 1.409 . S
C1597 C1595 1.415 . S
C1598 H1588 0.930 . S
C1598 C1596 1.419 . S
C1598 C1599 1.362 . S
C1599 H1589 0.930 . S
C1599 C1592 1.409 . S
C1599 C1598 1.362 . S
H1600 C1606 0.930 . S
H1601 C1609 0.930 . S
H1602 C1610 0.930 . S
H1603 C1611 0.930 . S
H1604 C1614 0.930 . S
H1605 C1615 0.930 . S
C1606 H1600 0.930 . S
C1606 C1607 1.355 . S
C1606 C1608 1.415 . S
C1607 C1606 1.355 . S
C1607 C1609 1.419 . S
C1608 C1606 1.415 . S
C1608 C1613 1.425 . S
C1608 C1615 1.409 . S
C1609 H1601 0.930 . S
C1609 C1607 1.419 . S
C1609 C1610 1.362 . S
C1610 H1602 0.930 . S
C1610 C1609 1.362 . S
C1610 C1613 1.409 . S
C1611 H1603 0.930 . S
C1611 C1612 1.355 . S
C1611 C1613 1.415 . S
C1612 C1611 1.355 . S
C1612 C1614 1.419 . S
C1613 C1608 1.425 . S
C1613 C1610 1.409 . S
C1613 C1611 1.415 . S
C1614 H1604 0.930 . S
C1614 C1612 1.419 . S
C1614 C1615 1.362 . S
C1615 H1605 0.930 . S
C1615 C1608 1.409 . S
C1615 C1614 1.362 . S
H1616 C1622 0.930 . S
H1617 C1625 0.930 . S
H1618 C1626 0.930 . S
H1619 C1627 0.930 . S
H1620 C1630 0.930 . S
H1621 C1631 0.930 . S
C1622 H1616 0.930 . S
C1622 C1623 1.355 . S
C1622 C1624 1.415 . S
C1623 C1622 1.355 . S
C1623 C1625 1.419 . S
C1624 C1622 1.415 . S
C1624 C1629 1.425 . S
C1624 C1631 1.409 . S
C1625 H1617 0.930 . S
C1625 C1623 1.419 . S
C1625 C1626 1.362 . S
C1626 H1618 0.930 . S
C1626 C1625 1.362 . S
C1626 C1629 1.409 . S
C1627 H1619 0.930 . S
C1627 C1628 1.355 . S
C1627 C1629 1.415 . S
C1628 C1627 1.355 . S
C1628 C1630 1.419 . S
C1629 C1624 1.425 . S
C1629 C1626 1.409 . S
C1629 C1627 1.415 . S
C1630 H1620 0.930 . S
C1630 C1628 1.419 . S
C1630 C1631 1.362 . S
C1631 H1621 0.930 . S
C1631 C1624 1.409 . S
C1631 C1630 1.362 . S
H1632 C1638 0.930 . S
H1633 C1641 0.930 . S
H1634 C1642 0.930 . S
H1635 C1643 0.930 . S
H1636 C1646 0.930 . S
H1637 C1647 0.930 . S
C1638 H1632 0.930 . S
C1638 C1639 1.355 . S
C1638 C1640 1.415 . S
C1639 C1638 1.355 . S
C1639 C1641 1.419 . S
C1640 C1638 1.415 . S
C1640 C1645 1.425 . S
C1640 C1647 1.409 . S
C1641 H1633 0.930 . S
C1641 C1639 1.419 . S
C1641 C1642 1.362 . S
C1642 H1634 0.930 . S
C1642 C1641 1.362 . S
C1642 C1645 1.409 . S
C1643 H1635 0.930 . S
C1643 C1644 1.355 . S
C1643 C1645 1.415 . S
C1644 C1643 1.355 . S
C1644 C1646 1.419 . S
C1645 C1640 1.425 . S
C1645 C1642 1.409 . S
C1645 C1643 1.415 . S
C1646 H1636 0.930 . S
C1646 C1644 1.419 . S
C1646 C1647 1.362 . S
C1647 H1637 0.930 . S
C1647 C1640 1.409 . S
C1647 C1646 1.362 . S
H1648 C1654 0.930 . S
H1649 C1657 0.930 . S
H1650 C1658 0.930 . S
H1651 C1659 0.930 . S
H1652 C1662 0.930 . S
H1653 C1663 0.930 . S
C1654 H1648 0.930 . S
C1654 C1655 1.355 . S
C1654 C1656 1.415 . S
C1655 C1654 1.355 . S
C1655 C1657 1.419 . S
C1656 C1654 1.415 . S
C1656 C1661 1.425 . S
C1656 C1663 1.409 . S
C1657 H1649 0.930 . S
C1657 C1655 1.419 . S
C1657 C1658 1.362 . S
C1658 H1650 0.930 . S
C1658 C1657 1.362 . S
C1658 C1661 1.409 . S
C1659 H1651 0.930 . S
C1659 C1660 1.355 . S
C1659 C1661 1.415 . S
C1660 C1659 1.355 . S
C1660 C1662 1.419 . S
C1661 C1656 1.425 . S
C1661 C1658 1.409 . S
C1661 C1659 1.415 . S
C1662 H1652 0.930 . S
C1662 C1660 1.419 . S
C1662 C1663 1.362 . S
C1663 H1653 0.930 . S
C1663 C1656 1.409 . S
C1663 C1662 1.362 . S
H1664 C1670 0.930 . S
H1665 C1673 0.930 . S
H1666 C1674 0.930 . S
H1667 C1675 0.930 . S
H1668 C1678 0.930 . S
H1669 C1679 0.930 . S
C1670 H1664 0.930 . S
C1670 C1671 1.355 . S
C1670 C1672 1.415 . S
C1671 C1670 1.355 . S
C1671 C1673 1.419 . S
C1672 C1670 1.415 . S
C1672 C1677 1.425 . S
C1672 C1679 1.409 . S
C1673 H1665 0.930 . S
C1673 C1671 1.419 . S
C1673 C1674 1.362 . S
C1674 H1666 0.930 . S
C1674 C1673 1.362 . S
C1674 C1677 1.409 . S
C1675 H1667 0.930 . S
C1675 C1676 1.355 . S
C1675 C1677 1.415 . S
C1676 C1675 1.355 . S
C1676 C1678 1.419 . S
C1677 C1672 1.425 . S
C1677 C1674 1.409 . S
C1677 C1675 1.415 . S
C1678 H1668 0.930 . S
C1678 C1676 1.419 . S
C1678 C1679 1.362 . S
C1679 H1669 0.930 . S
C1679 C1672 1.409 . S
C1679 C1678 1.362 . S
H1680 C1686 0.930 . S
H1681 C1689 0.930 1_565 S
H1682 C1690 0.930 . S
H1683 C1691 0.930 . S
H1684 C1694 0.930 . S
H1685 C1695 0.930 . S
C1686 H1680 0.930 . S
C1686 C1687 1.355 . S
C1686 C1688 1.415 . S
C1687 C1686 1.355 . S
C1687 C1689 1.419 . S
C1688 C1686 1.415 . S
C1688 C1693 1.425 . S
C1688 C1695 1.409 . S
C1689 H1681 0.930 1_545 S
C1689 C1687 1.419 . S
C1689 C1690 1.362 . S
C1690 H1682 0.930 . S
C1690 C1689 1.362 . S
C1690 C1693 1.409 . S
C1691 H1683 0.930 . S
C1691 C1692 1.355 . S
C1691 C1693 1.415 . S
C1692 C1691 1.355 . S
C1692 C1694 1.419 . S
C1693 C1688 1.425 . S
C1693 C1690 1.409 . S
C1693 C1691 1.415 . S
C1694 H1684 0.930 . S
C1694 C1692 1.419 . S
C1694 C1695 1.362 . S
C1695 H1685 0.930 . S
C1695 C1688 1.409 . S
C1695 C1694 1.362 . S
H1696 C1702 0.930 . S
H1697 C1705 0.930 . S
H1698 C1706 0.930 . S
H1699 C1707 0.930 . S
H1700 C1710 0.930 . S
H1701 C1711 0.930 . S
C1702 H1696 0.930 . S
C1702 C1703 1.355 . S
C1702 C1704 1.415 . S
C1703 C1702 1.355 . S
C1703 C1705 1.419 . S
C1704 C1702 1.415 . S
C1704 C1709 1.425 . S
C1704 C1711 1.409 . S
C1705 H1697 0.930 . S
C1705 C1703 1.419 . S
C1705 C1706 1.362 . S
C1706 H1698 0.930 . S
C1706 C1705 1.362 . S
C1706 C1709 1.409 . S
C1707 H1699 0.930 . S
C1707 C1708 1.355 . S
C1707 C1709 1.415 . S
C1708 C1707 1.355 . S
C1708 C1710 1.419 . S
C1709 C1704 1.425 . S
C1709 C1706 1.409 . S
C1709 C1707 1.415 . S
C1710 H1700 0.930 . S
C1710 C1708 1.419 . S
C1710 C1711 1.362 . S
C1711 H1701 0.930 . S
C1711 C1704 1.409 . S
C1711 C1710 1.362 . S
H1712 C1718 0.930 . S
H1713 C1721 0.930 . S
H1714 C1722 0.930 . S
H1715 C1723 0.930 . S
H1716 C1726 0.930 . S
H1717 C1727 0.930 . S
C1718 H1712 0.930 . S
C1718 C1719 1.355 . S
C1718 C1720 1.415 . S
C1719 C1718 1.355 . S
C1719 C1721 1.419 . S
C1720 C1718 1.415 . S
C1720 C1725 1.425 . S
C1720 C1727 1.409 . S
C1721 H1713 0.930 . S
C1721 C1719 1.419 . S
C1721 C1722 1.362 . S
C1722 H1714 0.930 . S
C1722 C1721 1.362 . S
C1722 C1725 1.409 . S
C1723 H1715 0.930 . S
C1723 C1724 1.355 . S
C1723 C1725 1.415 . S
C1724 C1723 1.355 . S
C1724 C1726 1.419 . S
C1725 C1720 1.425 . S
C1725 C1722 1.409 . S
C1725 C1723 1.415 . S
C1726 H1716 0.930 . S
C1726 C1724 1.419 . S
C1726 C1727 1.362 . S
C1727 H1717 0.930 . S
C1727 C1720 1.409 . S
C1727 C1726 1.362 . S
H1728 C1734 0.930 . S
H1729 C1737 0.930 . S
H1730 C1738 0.930 . S
H1731 C1739 0.930 . S
H1732 C1742 0.930 1_655 S
H1733 C1743 0.930 . S
C1734 H1728 0.930 . S
C1734 C1735 1.355 . S
C1734 C1736 1.415 . S
C1735 C1734 1.355 . S
C1735 C1737 1.419 . S
C1736 C1734 1.415 . S
C1736 C1741 1.425 . S
C1736 C1743 1.409 . S
C1737 H1729 0.930 . S
C1737 C1735 1.419 . S
C1737 C1738 1.362 . S
C1738 H1730 0.930 . S
C1738 C1737 1.362 . S
C1738 C1741 1.409 . S
C1739 H1731 0.930 . S
C1739 C1740 1.355 . S
C1739 C1741 1.415 . S
C1740 C1739 1.355 . S
C1740 C1742 1.419 . S
C1741 C1736 1.425 . S
C1741 C1738 1.409 . S
C1741 C1739 1.415 . S
C1742 H1732 0.930 1_455 S
C1742 C1740 1.419 . S
C1742 C1743 1.362 . S
C1743 H1733 0.930 . S
C1743 C1736 1.409 . S
C1743 C1742 1.362 . S
H1744 C1750 0.930 . S
H1745 C1753 0.930 . S
H1746 C1754 0.930 . S
H1747 C1755 0.930 . S
H1748 C1758 0.930 . S
H1749 C1759 0.930 . S
C1750 H1744 0.930 . S
C1750 C1751 1.355 . S
C1750 C1752 1.415 . S
C1751 C1750 1.355 . S
C1751 C1753 1.419 . S
C1752 C1750 1.415 . S
C1752 C1757 1.425 . S
C1752 C1759 1.409 . S
C1753 H1745 0.930 . S
C1753 C1751 1.419 . S
C1753 C1754 1.362 . S
C1754 H1746 0.930 . S
C1754 C1753 1.362 . S
C1754 C1757 1.409 . S
C1755 H1747 0.930 . S
C1755 C1756 1.355 . S
C1755 C1757 1.415 . S
C1756 C1755 1.355 . S
C1756 C1758 1.419 . S
C1757 C1752 1.425 . S
C1757 C1754 1.409 . S
C1757 C1755 1.415 . S
C1758 H1748 0.930 . S
C1758 C1756 1.419 . S
C1758 C1759 1.362 . S
C1759 H1749 0.930 . S
C1759 C1752 1.409 . S
C1759 C1758 1.362 . S
H1760 C1766 0.930 . S
H1761 C1769 0.930 . S
H1762 C1770 0.930 . S
H1763 C1771 0.930 . S
H1764 C1774 0.930 . S
H1765 C1775 0.930 . S
C1766 H1760 0.930 . S
C1766 C1767 1.355 . S
C1766 C1768 1.415 . S
C1767 C1766 1.355 . S
C1767 C1769 1.419 . S
C1768 C1766 1.415 . S
C1768 C1773 1.425 . S
C1768 C1775 1.409 . S
C1769 H1761 0.930 . S
C1769 C1767 1.419 . S
C1769 C1770 1.362 . S
C1770 H1762 0.930 . S
C1770 C1769 1.362 . S
C1770 C1773 1.409 . S
C1771 H1763 0.930 . S
C1771 C1772 1.355 . S
C1771 C1773 1.415 . S
C1772 C1771 1.355 . S
C1772 C1774 1.419 . S
C1773 C1768 1.425 . S
C1773 C1770 1.409 . S
C1773 C1771 1.415 . S
C1774 H1764 0.930 . S
C1774 C1772 1.419 . S
C1774 C1775 1.362 . S
C1775 H1765 0.930 . S
C1775 C1768 1.409 . S
C1775 C1774 1.362 . S
H1776 C1782 0.930 . S
H1777 C1785 0.930 . S
H1778 C1786 0.930 . S
H1779 C1787 0.930 . S
H1780 C1790 0.930 . S
H1781 C1791 0.930 . S
C1782 H1776 0.930 . S
C1782 C1783 1.355 . S
C1782 C1784 1.415 . S
C1783 C1782 1.355 . S
C1783 C1785 1.419 . S
C1784 C1782 1.415 . S
C1784 C1789 1.425 . S
C1784 C1791 1.409 . S
C1785 H1777 0.930 . S
C1785 C1783 1.419 . S
C1785 C1786 1.362 . S
C1786 H1778 0.930 . S
C1786 C1785 1.362 . S
C1786 C1789 1.409 . S
C1787 H1779 0.930 . S
C1787 C1788 1.355 . S
C1787 C1789 1.415 . S
C1788 C1787 1.355 . S
C1788 C1790 1.419 . S
C1789 C1784 1.425 . S
C1789 C1786 1.409 . S
C1789 C1787 1.415 . S
C1790 H1780 0.930 . S
C1790 C1788 1.419 . S
C1790 C1791 1.362 . S
C1791 H1781 0.930 . S
C1791 C1784 1.409 . S
C1791 C1790 1.362 . S
H1792 C1798 0.930 . S
H1793 C1801 0.930 . S
H1794 C1802 0.930 . S
H1795 C1803 0.930 . S
H1796 C1806 0.930 . S
H1797 C1807 0.930 . S
C1798 H1792 0.930 . S
C1798 C1799 1.355 . S
C1798 C1800 1.415 . S
C1799 C1798 1.355 . S
C1799 C1801 1.419 1_655 S
C1800 C1798 1.415 . S
C1800 C1805 1.425 1_655 S
C1800 C1807 1.409 . S
C1801 H1793 0.930 . S
C1801 C1799 1.419 1_455 S
C1801 C1802 1.362 . S
C1802 H1794 0.930 . S
C1802 C1801 1.362 . S
C1802 C1805 1.409 . S
C1803 H1795 0.930 . S
C1803 C1804 1.355 . S
C1803 C1805 1.415 . S
C1804 C1803 1.355 . S
C1804 C1806 1.419 1_455 S
C1805 C1800 1.425 1_455 S
C1805 C1802 1.409 . S
C1805 C1803 1.415 . S
C1806 H1796 0.930 . S
C1806 C1804 1.419 1_655 S
C1806 C1807 1.362 . S
C1807 H1797 0.930 . S
C1807 C1800 1.409 . S
C1807 C1806 1.362 . S
H1808 C1814 0.930 . S
H1809 C1817 0.930 . S
H1810 C1818 0.930 . S
H1811 C1819 0.930 . S
H1812 C1822 0.930 . S
H1813 C1823 0.930 . S
C1814 H1808 0.930 . S
C1814 C1815 1.369 . S
C1814 C1816 1.415 . S
C1815 C1814 1.369 . S
C1815 C1817 1.399 1_545 S
C1816 C1814 1.415 . S
C1816 C1821 1.425 1_545 S
C1816 C1823 1.409 . S
C1817 H1809 0.930 . S
C1817 C1815 1.399 1_565 S
C1817 C1818 1.362 . S
C1818 H1810 0.930 . S
C1818 C1817 1.362 . S
C1818 C1821 1.409 . S
C1819 H1811 0.930 . S
C1819 C1820 1.369 . S
C1819 C1821 1.415 . S
C1820 C1819 1.369 . S
C1820 C1822 1.399 1_565 S
C1821 C1816 1.425 1_565 S
C1821 C1818 1.409 . S
C1821 C1819 1.415 . S
C1822 H1812 0.930 . S
C1822 C1820 1.399 1_545 S
C1822 C1823 1.362 . S
C1823 H1813 0.930 . S
C1823 C1816 1.409 . S
C1823 C1822 1.362 . S
H1824 C1830 0.930 . S
H1825 C1833 0.930 . S
H1826 C1834 0.930 . S
H1827 C1835 0.930 . S
H1828 C1838 0.930 . S
H1829 C1839 0.930 . S
C1830 H1824 0.930 . S
C1830 C1831 1.355 1_455 S
C1830 C1832 1.415 . S
C1831 C1830 1.355 1_655 S
C1831 C1833 1.419 . S
C1832 C1830 1.415 . S
C1832 C1837 1.425 1_455 S
C1832 C1839 1.409 . S
C1833 H1825 0.930 . S
C1833 C1831 1.419 . S
C1833 C1834 1.362 . S
C1834 H1826 0.930 . S
C1834 C1833 1.362 . S
C1834 C1837 1.409 . S
C1835 H1827 0.930 . S
C1835 C1836 1.355 1_655 S
C1835 C1837 1.415 . S
C1836 C1835 1.355 1_455 S
C1836 C1838 1.419 . S
C1837 C1832 1.425 1_655 S
C1837 C1834 1.409 . S
C1837 C1835 1.415 . S
C1838 H1828 0.930 . S
C1838 C1836 1.419 . S
C1838 C1839 1.362 . S
C1839 H1829 0.930 . S
C1839 C1832 1.409 . S
C1839 C1838 1.362 . S
H1840 C1846 0.930 . S
H1841 C1849 0.930 . S
H1842 C1850 0.930 . S
H1843 C1851 0.930 . S
H1844 C1854 0.930 . S
H1845 C1855 0.930 . S
C1846 H1840 0.930 . S
C1846 C1847 1.355 . S
C1846 C1848 1.415 . S
C1847 C1846 1.355 . S
C1847 C1849 1.419 1_565 S
C1848 C1846 1.415 . S
C1848 C1853 1.425 1_565 S
C1848 C1855 1.409 . S
C1849 H1841 0.930 . S
C1849 C1847 1.419 1_545 S
C1849 C1850 1.362 . S
C1850 H1842 0.930 . S
C1850 C1849 1.362 . S
C1850 C1853 1.409 . S
C1851 H1843 0.930 . S
C1851 C1852 1.355 . S
C1851 C1853 1.415 . S
C1852 C1851 1.355 . S
C1852 C1854 1.419 1_545 S
C1853 C1848 1.425 1_545 S
C1853 C1850 1.409 . S
C1853 C1851 1.415 . S
C1854 H1844 0.930 . S
C1854 C1852 1.419 1_565 S
C1854 C1855 1.362 . S
C1855 H1845 0.930 . S
C1855 C1848 1.409 . S
C1855 C1854 1.362 . S
H1856 C1862 0.930 . S
H1857 C1865 0.930 . S
H1858 C1866 0.930 . S
H1859 C1867 0.930 . S
H1860 C1870 0.930 . S
H1861 C1871 0.930 . S
C1862 H1856 0.930 . S
C1862 C1863 1.355 . S
C1862 C1864 1.415 . S
C1863 C1862 1.355 . S
C1863 C1865 1.419 . S
C1864 C1862 1.415 . S
C1864 C1869 1.425 1_556 S
C1864 C1871 1.409 1_556 S
C1865 H1857 0.930 . S
C1865 C1863 1.419 . S
C1865 C1866 1.362 . S
C1866 H1858 0.930 . S
C1866 C1865 1.362 . S
C1866 C1869 1.409 1_556 S
C1867 H1859 0.930 . S
C1867 C1868 1.355 . S
C1867 C1869 1.415 . S
C1868 C1867 1.355 . S
C1868 C1870 1.419 . S
C1869 C1864 1.425 1_554 S
C1869 C1866 1.409 1_554 S
C1869 C1867 1.415 . S
C1870 H1860 0.930 . S
C1870 C1868 1.419 . S
C1870 C1871 1.362 . S
C1871 H1861 0.930 . S
C1871 C1864 1.409 1_554 S
C1871 C1870 1.362 . S
H1872 C1878 0.930 . S
H1873 C1881 0.930 . S
H1874 C1882 0.930 . S
H1875 C1883 0.930 . S
H1876 C1886 0.930 . S
H1877 C1887 0.930 . S
C1878 H1872 0.930 . S
C1878 C1879 1.355 . S
C1878 C1880 1.415 . S
C1879 C1878 1.355 . S
C1879 C1881 1.419 . S
C1880 C1878 1.415 . S
C1880 C1885 1.425 1_556 S
C1880 C1887 1.409 1_556 S
C1881 H1873 0.930 . S
C1881 C1879 1.419 . S
C1881 C1882 1.362 . S
C1882 H1874 0.930 . S
C1882 C1881 1.362 . S
C1882 C1885 1.409 1_556 S
C1883 H1875 0.930 . S
C1883 C1884 1.355 . S
C1883 C1885 1.415 . S
C1884 C1883 1.355 . S
C1884 C1886 1.419 . S
C1885 C1880 1.425 1_554 S
C1885 C1882 1.409 1_554 S
C1885 C1883 1.415 . S
C1886 H1876 0.930 . S
C1886 C1884 1.419 . S
C1886 C1887 1.362 . S
C1887 H1877 0.930 . S
C1887 C1880 1.409 1_554 S
C1887 C1886 1.362 . S
H1888 C1894 0.930 . S
H1889 C1897 0.930 . S
H1890 C1898 0.930 . S
H1891 C1899 0.930 . S
H1892 C1902 0.930 . S
H1893 C1903 0.930 . S
C1894 H1888 0.930 . S
C1894 C1895 1.355 . S
C1894 C1896 1.415 . S
C1895 C1894 1.355 . S
C1895 C1897 1.419 . S
C1896 C1894 1.415 . S
C1896 C1901 1.425 1_554 S
C1896 C1903 1.409 1_554 S
C1897 H1889 0.930 . S
C1897 C1895 1.419 . S
C1897 C1898 1.362 . S
C1898 H1890 0.930 . S
C1898 C1897 1.362 . S
C1898 C1901 1.409 1_554 S
C1899 H1891 0.930 . S
C1899 C1900 1.355 . S
C1899 C1901 1.415 . S
C1900 C1899 1.355 . S
C1900 C1902 1.419 . S
C1901 C1896 1.425 1_556 S
C1901 C1898 1.409 1_556 S
C1901 C1899 1.415 . S
C1902 H1892 0.930 . S
C1902 C1900 1.419 . S
C1902 C1903 1.362 . S
C1903 H1893 0.930 . S
C1903 C1896 1.409 1_556 S
C1903 C1902 1.362 . S
H1904 C1910 0.930 . S
H1905 C1913 0.930 . S
H1906 C1914 0.930 . S
H1907 C1915 0.930 . S
H1908 C1918 0.930 . S
H1909 C1919 0.930 . S
C1910 H1904 0.930 . S
C1910 C1911 1.355 . S
C1910 C1912 1.415 . S
C1911 C1910 1.355 . S
C1911 C1913 1.419 . S
C1912 C1910 1.415 . S
C1912 C1917 1.425 1_556 S
C1912 C1919 1.409 1_556 S
C1913 H1905 0.930 . S
C1913 C1911 1.419 . S
C1913 C1914 1.362 . S
C1914 H1906 0.930 . S
C1914 C1913 1.362 . S
C1914 C1917 1.409 1_556 S
C1915 H1907 0.930 . S
C1915 C1916 1.355 . S
C1915 C1917 1.415 . S
C1916 C1915 1.355 . S
C1916 C1918 1.419 . S
C1917 C1912 1.425 1_554 S
C1917 C1914 1.409 1_554 S
C1917 C1915 1.415 . S
C1918 H1908 0.930 . S
C1918 C1916 1.419 . S
C1918 C1919 1.362 . S
C1919 H1909 0.930 . S
C1919 C1912 1.409 1_554 S
C1919 C1918 1.362 . S
C1415 C20 1.663 . S
C1420 C293 1.570 . S
C1431 C49 1.552 . S
C1436 C117 1.654 . S
C1447 C137 1.571 . S
C1452 C196 1.664 . S
C1463 C225 1.614 . S
C1468 C313 1.675 . S
C1479 C409 1.663 . S
C1484 C497 1.567 . S
C1495 C460 1.667 . S
C1500 C557 1.587 . S
C1511 C585 1.677 . S
C1516 C636 1.618 . S
C1527 C673 1.669 . S
C1532 C381 1.594 . S
C1543 C724 1.671 . S
C1548 C988 1.589 . S
C1559 C753 1.539 . S
C1564 C821 1.651 . S
C1575 C841 1.566 . S
C1580 C900 1.664 . S
C1591 C1025 1.674 . S
C1596 C929 1.612 . S
C1607 C1201 1.625 . S
C1612 C1105 1.679 . S
C1623 C1261 1.551 . S
C1628 C1164 1.655 . S
C1639 C1289 1.678 . S
C1644 C1340 1.614 . S
C1655 C1377 1.676 . S
C1660 C1076 1.619 . S
C1671 C57 0.923 . S
C1676 C1369 0.940 . S
C1687 C108 0.968 . S
C1692 C1085 0.887 . S
C1703 C1173 0.940 . S
C1708 C233 0.923 . S
C1719 C321 0.903 . S
C1724 C1252 0.932 . S
C1735 C812 0.879 . S
C1740 C372 0.957 . S
C1751 C937 0.889 . S
C1756 C469 0.967 . S
C1767 C548 0.952 . S
C1772 C1017 0.906 . S
C1783 C665 0.960 . S
C1788 C761 0.902 . S
C1799 C29 1.520 . S
C1804 C577 1.474 . S
C1815 C645 1.478 . S
C1820 C145 1.498 . S
C1831 C401 1.513 . S
C1836 C205 1.494 . S
C1847 C489 1.509 . S
C1852 C284 1.466 . S
C1863 C733 1.508 . S
C1868 C1281 1.472 . S
C1879 C849 1.511 . S
C1884 C1349 1.465 . S
C1895 C1113 1.518 . S
C1900 C909 1.485 . S
C1911 C997 1.487 . S
C1916 C1193 1.514 . S
