# Generated by pormake.
# Topology vby, (6)-cn, num edge types: 1
# Building blocks:
#     Node 0, Type 0, BuildingBlock: PAMTUU_clean_sbu_0, # of connection points: 6
#     Node 1, Type 0, BuildingBlock: PAMTUU_clean_sbu_0, # of connection points: 6
#     Node 2, Type 0, BuildingBlock: PAMTUU_clean_sbu_0, # of connection points: 6
#     Node 3, Type 0, BuildingBlock: PAMTUU_clean_sbu_0, # of connection points: 6
#     Node 4, Type 0, BuildingBlock: PAMTUU_clean_sbu_0, # of connection points: 6
#     Node 5, Type 0, BuildingBlock: PAMTUU_clean_sbu_0, # of connection points: 6
#     Node 6, Type 0, BuildingBlock: PAMTUU_clean_sbu_0, # of connection points: 6
#     Node 7, Type 0, BuildingBlock: PAMTUU_clean_sbu_0, # of connection points: 6
#     Edge 8, Type (0, 0), BuildingBlock: MIFKUJ_clean_linker_0, # of connection points: 2
#     Edge 9, Type (0, 0), BuildingBlock: MIFKUJ_clean_linker_0, # of connection points: 2
#     Edge 10, Type (0, 0), BuildingBlock: MIFKUJ_clean_linker_0, # of connection points: 2
#     Edge 11, Type (0, 0), BuildingBlock: MIFKUJ_clean_linker_0, # of connection points: 2
#     Edge 12, Type (0, 0), BuildingBlock: MIFKUJ_clean_linker_0, # of connection points: 2
#     Edge 13, Type (0, 0), BuildingBlock: MIFKUJ_clean_linker_0, # of connection points: 2
#     Edge 14, Type (0, 0), BuildingBlock: MIFKUJ_clean_linker_0, # of connection points: 2
#     Edge 15, Type (0, 0), BuildingBlock: MIFKUJ_clean_linker_0, # of connection points: 2
#     Edge 16, Type (0, 0), BuildingBlock: MIFKUJ_clean_linker_0, # of connection points: 2
#     Edge 17, Type (0, 0), BuildingBlock: MIFKUJ_clean_linker_0, # of connection points: 2
#     Edge 18, Type (0, 0), BuildingBlock: MIFKUJ_clean_linker_0, # of connection points: 2
#     Edge 19, Type (0, 0), BuildingBlock: MIFKUJ_clean_linker_0, # of connection points: 2
#     Edge 20, Type (0, 0), BuildingBlock: MIFKUJ_clean_linker_0, # of connection points: 2
#     Edge 21, Type (0, 0), BuildingBlock: MIFKUJ_clean_linker_0, # of connection points: 2
#     Edge 22, Type (0, 0), BuildingBlock: MIFKUJ_clean_linker_0, # of connection points: 2
#     Edge 23, Type (0, 0), BuildingBlock: MIFKUJ_clean_linker_0, # of connection points: 2
#     Edge 24, Type (0, 0), BuildingBlock: MIFKUJ_clean_linker_0, # of connection points: 2
#     Edge 25, Type (0, 0), BuildingBlock: MIFKUJ_clean_linker_0, # of connection points: 2
#     Edge 26, Type (0, 0), BuildingBlock: MIFKUJ_clean_linker_0, # of connection points: 2
#     Edge 27, Type (0, 0), BuildingBlock: MIFKUJ_clean_linker_0, # of connection points: 2
#     Edge 28, Type (0, 0), BuildingBlock: MIFKUJ_clean_linker_0, # of connection points: 2
#     Edge 29, Type (0, 0), BuildingBlock: MIFKUJ_clean_linker_0, # of connection points: 2
#     Edge 30, Type (0, 0), BuildingBlock: MIFKUJ_clean_linker_0, # of connection points: 2
#     Edge 31, Type (0, 0), BuildingBlock: MIFKUJ_clean_linker_0, # of connection points: 2
# Relax obj value: 0.137
# Max RMSD: 0.177
# Mean RMSD: 0.177
data_MOF--net-vby--node1-PAMTUU_clean_sbu_0--edge1-MIFKUJ_clean_linker_0
_symmetry_space_group_name_H-M    P1
_symmetry_Int_Tables_number       1
_symmetry_cell_setting            triclinic
loop_
_symmetry_equiv_pos_as_xyz
'x, y, z'
_cell_length_a     19.845566
_cell_length_b     122.10935
_cell_length_c     38.788055
_cell_angle_alpha  90.038729
_cell_angle_beta   80.9557
_cell_angle_gamma 89.739092
loop_
_atom_site_label
_atom_site_type_symbol
_atom_site_fract_x
_atom_site_fract_y
_atom_site_fract_z
_atom_type_partial_charge
Tb0 Tb 0.10195 0.37362 0.01537 0.0
Tb1 Tb 0.10019 0.4009 0.02224 0.0
C2 C 0.09225 0.38911 0.95018 0.0
C3 C 0.13712 0.34262 0.01688 0.0
C4 C 0.18809 0.32106 0.02224 0.0
C5 C 0.21214 0.32765 0.99321 0.0
C6 C 0.18687 0.33828 0.99051 0.0
C7 C 0.1152 0.33621 0.04661 0.0
C8 C 0.14063 0.32558 0.04935 0.0
C9 C 0.10061 0.35292 0.01089 0.0
O10 O 0.20809 0.37849 0.00187 0.0
O11 O 0.20137 0.3952 0.02945 0.0
O12 O 0.06393 0.39369 0.07282 0.0
O13 O 0.12377 0.37761 0.06719 0.0
O14 O 0.14479 0.41615 0.00752 0.0
O15 O 0.06355 0.41479 0.05154 0.0
O16 O 0.9984 0.39711 0.01196 0.0
O17 O 0.99491 0.37877 0.02715 0.0
O18 O 0.07963 0.37963 0.96583 0.0
O19 O 0.1091 0.39794 0.96631 0.0
C20 C 0.23718 0.38692 0.01445 0.0
O21 O 0.07047 0.35841 0.0379 0.0
O22 O 0.1286 0.35939 0.98601 0.0
C23 C 0.09099 0.3853 0.08674 0.0
C24 C 0.08169 0.43252 0.02611 0.0
C25 C 0.05423 0.45506 0.01769 0.0
C26 C 0.04625 0.45029 0.05109 0.0
C27 C 0.05968 0.43918 0.05518 0.0
C28 C 0.08801 0.43711 0.99255 0.0
C29 C 0.07416 0.44828 0.98838 0.0
C30 C 0.10571 0.42134 0.03251 0.0
C31 C 0.96475 0.38792 0.01957 0.0
H32 H 0.24942 0.32449 0.9721 0.0
H33 H 0.20444 0.34291 0.96705 0.0
H34 H 0.07608 0.33923 0.06712 0.0
H35 H 0.12049 0.32071 0.07192 0.0
H36 H 0.03244 0.45522 0.07436 0.0
H37 H 0.05552 0.43588 0.08136 0.0
H38 H 0.10532 0.43216 0.96964 0.0
H39 H 0.08004 0.45162 0.96224 0.0
Tb40 Tb 0.95634 0.62705 0.0428 0.0
Tb41 Tb 0.96007 0.65432 0.03968 0.0
C42 C 0.97442 0.63987 0.97246 0.0
C43 C 0.97766 0.59548 0.03977 0.0
C44 C 1.00881 0.57294 0.02984 0.0
C45 C 0.99796 0.57955 0.0015 0.0
C46 C 0.98211 0.5907 0.00645 0.0
C47 C 0.99234 0.58899 0.06757 0.0
C48 C 1.00783 0.57787 0.06267 0.0
C49 C 0.94647 0.60643 0.04762 0.0
O50 O 0.06304 0.63097 0.04392 0.0
O51 O 0.06657 0.64927 0.02785 0.0
O52 O 0.98895 0.64895 0.08851 0.0
O53 O 0.92407 0.63357 0.09507 0.0
O54 O 0.98644 0.66904 0.01259 0.0
O55 O 0.94044 0.66907 0.06698 0.0
O56 O 0.85234 0.65025 0.05341 0.0
O57 O 0.85512 0.6323 0.03499 0.0
O58 O 0.99707 0.63167 0.98947 0.0
O59 O 0.94302 0.64831 0.98899 0.0
C60 C 0.09674 0.64007 0.03484 0.0
O61 O 0.97025 0.61259 0.07037 0.0
O62 O 0.92765 0.61214 0.02234 0.0
C63 C 0.95781 0.64129 0.10843 0.0
C64 C 0.92406 0.68517 0.0344 0.0
C65 C 0.87094 0.70656 0.02879 0.0
C66 C 0.85396 0.70049 0.0597 0.0
C67 C 0.88028 0.68994 0.0625 0.0
C68 C 0.93868 0.69105 0.00296 0.0
C69 C 0.91209 0.7016 0.00012 0.0
C70 C 0.96264 0.67504 0.03971 0.0
C71 C 0.82157 0.64136 0.04483 0.0
H72 H 0.99806 0.57598 0.97593 0.0
H73 H 0.97026 0.59543 0.98455 0.0
H74 H 0.98853 0.5924 0.09361 0.0
H75 H 1.01696 0.57304 0.08491 0.0
H76 H 0.82159 0.704 0.0821 0.0
H77 H 0.86847 0.68573 0.08726 0.0
H78 H 0.97314 0.6877 0.98103 0.0
H79 H 0.92662 0.70608 0.97603 0.0
Tb80 Tb 0.10626 0.62411 0.53018 0.0
Tb81 Tb 0.10106 0.65145 0.52663 0.0
C82 C 0.08662 0.63864 0.59607 0.0
C83 C 0.08666 0.59254 0.53035 0.0
C84 C 0.0583 0.56996 0.52417 0.0
C85 C 0.04493 0.57526 0.55673 0.0
C86 C 0.05905 0.5864 0.55977 0.0
C87 C 0.09687 0.58739 0.49745 0.0
C88 C 0.08245 0.57623 0.49438 0.0
C89 C 0.11525 0.60351 0.53556 0.0
O90 O 0.99735 0.62807 0.53869 0.0
O91 O 0.99835 0.6463 0.5219 0.0
O92 O 0.13161 0.64534 0.47355 0.0
O93 O 0.08101 0.6284 0.47952 0.0
O94 O 0.10812 0.66626 0.55308 0.0
O95 O 0.08432 0.66617 0.50062 0.0
O96 O 0.20571 0.64744 0.53249 0.0
O97 O 0.21104 0.6294 0.51462 0.0
O98 O 0.12492 0.63096 0.57943 0.0
O99 O 0.05761 0.64601 0.57871 0.0
C100 C 0.96605 0.63707 0.53067 0.0
O101 O 0.1433 0.60907 0.50833 0.0
O102 O 0.08289 0.60983 0.55991 0.0
C103 C 0.10487 0.63677 0.46015 0.0
C104 C 0.13422 0.68257 0.51957 0.0
C105 C 0.18498 0.70429 0.51404 0.0
C106 C 0.14155 0.70044 0.49133 0.0
C107 C 0.11634 0.68974 0.49416 0.0
C108 C 0.18034 0.68621 0.54117 0.0
C109 C 0.20553 0.69693 0.53837 0.0
C110 C 0.09587 0.6722 0.52684 0.0
C111 C 0.24049 0.63846 0.52274 0.0
H112 H 1.02537 0.57072 0.58012 0.0
H113 H 0.0514 0.59007 0.58553 0.0
H114 H 0.11896 0.59183 0.47429 0.0
H115 H 0.09367 0.57238 0.46894 0.0
H116 H 0.12557 0.7058 0.47186 0.0
H117 H 0.08039 0.68722 0.47739 0.0
H118 H 0.19468 0.68095 0.56132 0.0
H119 H 0.23842 0.69961 0.55649 0.0
Tb120 Tb 0.95704 0.3706 0.53152 0.0
Tb121 Tb 0.95282 0.39795 0.53161 0.0
C122 C 0.94879 0.3844 0.59919 0.0
C123 C 0.92642 0.33965 0.52357 0.0
C124 C 0.87756 0.31823 0.51437 0.0
C125 C 0.84326 0.3252 0.54036 0.0
C126 C 0.86753 0.33578 0.545 0.0
C127 C 0.95884 0.33287 0.49665 0.0
C128 C 0.93462 0.32231 0.49202 0.0
C129 C 0.96056 0.34987 0.53211 0.0
O130 O 0.8493 0.37496 0.54328 0.0
O131 O 0.85333 0.39257 0.52187 0.0
O132 O 0.99912 0.3926 0.47975 0.0
O133 O 0.94326 0.37619 0.47984 0.0
O134 O 0.9597 0.41258 0.55937 0.0
O135 O 0.92973 0.41275 0.50809 0.0
O136 O 0.05857 0.39415 0.53571 0.0
O137 O 0.06354 0.37559 0.52252 0.0
O138 O 0.98067 0.37635 0.58108 0.0
O139 O 0.91636 0.3919 0.58392 0.0
C140 C 0.81923 0.38372 0.5329 0.0
O141 O 0.99089 0.35583 0.50637 0.0
O142 O 0.93069 0.35587 0.55798 0.0
C143 C 0.97743 0.38428 0.46302 0.0
C144 C 0.97375 0.42953 0.52828 0.0
C145 C 1.00879 0.45197 0.51963 0.0
C146 C 1.00386 0.4453 0.49048 0.0
C147 C 0.98624 0.43421 0.49476 0.0
C148 C 0.98147 0.43608 0.55717 0.0
C149 C 0.99876 0.44713 0.55294 0.0
C150 C 0.94183 0.41862 0.53457 0.0
C151 C 0.09276 0.38491 0.52869 0.0
H152 H 0.79952 0.32231 0.55824 0.0
H153 H 0.84171 0.34072 0.56628 0.0
H154 H 1.00472 0.33556 0.47996 0.0
H155 H 0.96162 0.31724 0.47136 0.0
H156 H 1.01214 0.44869 0.46438 0.0
H157 H 0.98001 0.42943 0.47196 0.0
H158 H 0.97079 0.43279 0.58339 0.0
H159 H 1.00083 0.452 0.5761 0.0
Tb160 Tb 0.59252 0.87263 0.00241 0.0
Tb161 Tb 0.59756 0.89976 -0.00135 0.0
C162 C 0.59709 0.88541 0.93305 0.0
C163 C 0.62846 0.84186 0.00841 0.0
C164 C 0.68405 0.82064 0.01364 0.0
C165 C 0.70064 0.8268 0.98291 0.0
C166 C 0.67312 0.83727 0.98029 0.0
C167 C 0.61428 0.8359 0.03968 0.0
C168 C 0.64207 0.82543 0.04234 0.0
C169 C 0.58884 0.85191 0.00345 0.0
O170 O 0.70025 0.87655 0.98711 0.0
O171 O 0.69794 0.89427 0.00729 0.0
O172 O 0.55545 0.89519 0.05204 0.0
O173 O 0.612 0.8788 0.05246 0.0
O174 O 0.58209 0.91442 0.97239 0.0
O175 O 0.62958 0.91451 0.01882 0.0
O176 O 0.4921 0.89576 0.99474 0.0
O177 O 0.48638 0.87794 0.01535 0.0
O178 O 0.56477 0.87793 0.95329 0.0
O179 O 0.63043 0.89324 0.94627 0.0
C180 C 0.7313 0.88528 0.99661 0.0
O181 O 0.56743 0.85805 0.03056 0.0
O182 O 0.60867 0.85774 0.97557 0.0
C183 C 0.57932 0.8871 0.06914 0.0
C184 C 0.57875 0.93139 0.00424 0.0
C185 C 0.54628 0.95397 0.01314 0.0
C186 C 0.58799 0.94873 0.03432 0.0
C187 C 0.60413 0.9376 0.02986 0.0
C188 C 0.53443 0.93648 0.98415 0.0
C189 C 0.51818 0.94762 0.98865 0.0
C190 C 0.60855 0.92042 0.99461 0.0
C191 C 0.4573 0.88691 0.00563 0.0
H192 H 0.73362 0.82341 0.9605 0.0
H193 H 0.68477 0.84157 0.95567 0.0
H194 H 0.57924 0.83912 0.06163 0.0
H195 H 0.62782 0.82086 0.0663 0.0
H196 H 0.61132 0.95334 0.05314 0.0
H197 H 0.63948 0.934 0.0453 0.0
H198 H 0.51455 0.93198 0.96389 0.0
H199 H 0.485 0.95133 0.97225 0.0
Tb200 Tb 0.44858 0.12647 0.04255 0.0
Tb201 Tb 0.45168 0.15381 0.04008 0.0
C202 C 0.46547 0.13952 0.97263 0.0
C203 C 0.46831 0.09485 0.03619 0.0
C204 C 0.50019 0.07225 0.02705 0.0
C205 C 0.45826 0.07754 0.00607 0.0
C206 C 0.4424 0.08867 0.01066 0.0
C207 C 0.51286 0.08971 0.05606 0.0
C208 C 0.52882 0.07856 0.05144 0.0
C209 C 0.43869 0.1058 0.04611 0.0
O210 O 0.55516 0.13043 0.04368 0.0
O211 O 0.55831 0.14879 0.02826 0.0
O212 O 0.48056 0.14838 0.08886 0.0
O213 O 0.41758 0.13276 0.09525 0.0
O214 O 0.47887 0.16853 0.0131 0.0
O215 O 0.4312 0.16859 0.06724 0.0
O216 O 0.34405 0.14973 0.05403 0.0
O217 O 0.34682 0.13175 0.03578 0.0
O218 O 0.48884 0.13131 0.98932 0.0
O219 O 0.43356 0.14786 0.98951 0.0
C220 C 0.58866 0.13957 0.03497 0.0
O221 O 0.46577 0.11178 0.0682 0.0
O222 O 0.41664 0.11174 0.02223 0.0
C223 C 0.45057 0.14058 0.10863 0.0
C224 C 0.41666 0.18474 0.03433 0.0
C225 C 0.36424 0.20621 0.02926 0.0
C226 C 0.33989 0.1995 0.05796 0.0
C227 C 0.36581 0.1889 0.0605 0.0
C228 C 0.43881 0.19126 0.00491 0.0
C229 C 0.41268 0.20185 0.00231 0.0
C230 C 0.45438 0.17454 0.04008 0.0
C231 C 0.31328 0.1408 0.04572 0.0
H232 H 0.43454 0.07295 0.98734 0.0
H233 H 0.40683 0.0923 0.99541 0.0
H234 H 0.53312 0.09418 0.07626 0.0
H235 H 0.56217 0.07482 0.06768 0.0
H236 H 0.30189 0.20255 0.07893 0.0
H237 H 0.34789 0.18417 0.0837 0.0
H238 H 0.47874 0.18836 0.9846 0.0
H239 H 0.43305 0.20681 0.98 0.0
Tb240 Tb 0.60034 0.12472 0.5309 0.0
Tb241 Tb 0.59487 0.15196 0.52624 0.0
C242 C 0.58109 0.13948 0.59623 0.0
C243 C 0.57974 0.09326 0.53205 0.0
C244 C 0.54791 0.07076 0.52757 0.0
C245 C 0.52717 0.07667 0.55859 0.0
C246 C 0.54308 0.08776 0.56083 0.0
C247 C 0.59751 0.0875 0.50047 0.0
C248 C 0.58148 0.07639 0.49821 0.0
C249 C 0.60937 0.10416 0.5371 0.0
O250 O 0.49132 0.12858 0.5395 0.0
O251 O 0.49191 0.14676 0.52236 0.0
O252 O 0.62559 0.14567 0.47341 0.0
O253 O 0.57473 0.12877 0.48011 0.0
O254 O 0.6051 0.16695 0.55117 0.0
O255 O 0.57451 0.16648 0.50009 0.0
O256 O 0.69979 0.14805 0.53199 0.0
O257 O 0.70504 0.12996 0.51482 0.0
O258 O 0.6196 0.1318 0.57972 0.0
O259 O 0.55188 0.14679 0.57869 0.0
C260 C 0.45977 0.13754 0.53144 0.0
O261 O 0.63758 0.10962 0.5097 0.0
O262 O 0.57737 0.11059 0.56126 0.0
C263 C 0.59874 0.13706 0.46036 0.0
C264 C 0.62643 0.18301 0.51603 0.0
C265 C 0.67911 0.20454 0.50815 0.0
C266 C 0.62394 0.20135 0.49172 0.0
C267 C 0.59789 0.19073 0.49569 0.0
C268 C 0.68383 0.18597 0.53104 0.0
C269 C 0.71002 0.19663 0.52704 0.0
C270 C 0.58912 0.17268 0.52525 0.0
C271 C 0.73457 0.13905 0.52257 0.0
H272 H 0.50032 0.07263 0.58153 0.0
H273 H 0.5294 0.0919 0.58567 0.0
H274 H 0.62675 0.09142 0.47794 0.0
H275 H 0.59871 0.07208 0.474 0.0
H276 H 0.59968 0.20717 0.47646 0.0
H277 H 0.55338 0.18869 0.48404 0.0
H278 H 0.70676 0.18022 0.54707 0.0
H279 H 0.75235 0.1988 0.54018 0.0
Tb280 Tb 0.44666 0.8718 0.51534 0.0
Tb281 Tb 0.44038 0.89904 0.51228 0.0
C282 C 0.44502 0.88647 0.58216 0.0
C283 C 0.41324 0.84066 0.52187 0.0
C284 C 0.36268 0.81893 0.52738 0.0
C285 C 0.4059 0.82279 0.55017 0.0
C286 C 0.43101 0.83351 0.54735 0.0
C287 C 0.36734 0.837 0.50018 0.0
C288 C 0.34224 0.82627 0.50298 0.0
C289 C 0.45153 0.85104 0.51461 0.0
O290 O 0.34159 0.87586 0.51015 0.0
O291 O 0.33648 0.89366 0.52994 0.0
O292 O 0.42098 0.89215 0.46323 0.0
O293 O 0.49 0.87732 0.46321 0.0
O294 O 0.4024 0.91409 0.5336 0.0
O295 O 0.46332 0.91322 0.48218 0.0
O296 O 0.54962 0.8953 0.50519 0.0
O297 O 0.54996 0.87683 0.51913 0.0
O298 O 0.41924 0.87775 0.56899 0.0
O299 O 0.46703 0.89492 0.56268 0.0
C300 C 0.30666 0.8847 0.52132 0.0
O301 O 0.43865 0.85705 0.48864 0.0
O302 O 0.4638 0.85699 0.54083 0.0
C303 C 0.46047 0.88471 0.44613 0.0
C304 C 0.46043 0.93049 0.51173 0.0
C305 C 0.49229 0.95297 0.5167 0.0
C306 C 0.51346 0.9471 0.48564 0.0
C307 C 0.49754 0.93602 0.48316 0.0
C308 C 0.44224 0.9362 0.54337 0.0
C309 C 0.45829 0.9473 0.54587 0.0
C310 C 0.43092 0.9196 0.50637 0.0
C311 C 0.58144 0.88622 0.512 0.0
H312 H 0.4218 0.81745 0.56968 0.0
H313 H 0.46681 0.83604 0.56418 0.0
H314 H 0.35312 0.84224 0.47996 0.0
H315 H 0.30953 0.82358 0.48479 0.0
H316 H 0.54064 0.95117 0.46284 0.0
H317 H 0.51158 0.93192 0.45827 0.0
H318 H 0.41267 0.93225 0.56574 0.0
H319 H 0.44074 0.95158 0.57011 0.0
H320 H 0.32698 0.36969 0.00055 0.0
H321 H 0.45049 0.36975 0.00047 0.0
H322 H 0.44183 0.40419 0.02534 0.0
H323 H 0.31845 0.4042 0.02572 0.0
H324 H 0.55057 0.3986 0.97234 0.0
H325 H 0.45361 0.38646 0.08807 0.0
H326 H 0.38259 0.37452 0.13022 0.0
H327 H 0.49981 0.34649 0.08894 0.0
H328 H 0.57092 0.35825 0.04618 0.0
H329 H 0.87727 0.40544 0.02069 0.0
H330 H 0.75461 0.40511 0.01933 0.0
H331 H 0.76035 0.36981 0.01472 0.0
H332 H 0.88246 0.37007 0.01743 0.0
H333 H 0.65234 0.37553 0.05617 0.0
H334 H 0.7496 0.38665 0.94118 0.0
H335 H 0.8212 0.39777 0.89677 0.0
H336 H 0.70512 0.42649 0.93242 0.0
H337 H 0.63341 0.41557 0.97739 0.0
C338 C 0.35131 0.37729 0.00588 0.0
C339 C 0.31255 0.38693 0.01328 0.0
C340 C 0.42195 0.3773 0.00593 0.0
C341 C 0.45544 0.38696 0.01311 0.0
C342 C 0.41716 0.39664 0.01974 0.0
C343 C 0.34648 0.39661 0.0201 0.0
C344 C 0.53015 0.38697 0.01429 0.0
C345 C 0.57282 0.39365 0.99091 0.0
C346 C 0.5595 0.38027 0.03781 0.0
C347 C 0.51713 0.37322 0.0637 0.0
C348 C 0.46389 0.37774 0.0878 0.0
C349 C 0.42369 0.371 0.11184 0.0
C350 C 0.43657 0.35975 0.1122 0.0
C351 C 0.48983 0.35521 0.0886 0.0
C352 C 0.53013 0.3619 0.06447 0.0
C353 C 0.85246 0.3976 0.01941 0.0
C354 C 0.88994 0.38778 0.01909 0.0
C355 C 0.7822 0.39742 0.01842 0.0
C356 C 0.74794 0.38744 0.01627 0.0
C357 C 0.78524 0.37763 0.01634 0.0
C358 C 0.85529 0.37779 0.01784 0.0
C359 C 0.67332 0.3872 0.01421 0.0
C360 C 0.63047 0.38047 0.03745 0.0
C361 C 0.64398 0.39372 0.99013 0.0
C362 C 0.68651 0.4003 0.96287 0.0
C363 C 0.7396 0.39535 0.93969 0.0
C364 C 0.78018 0.40162 0.9144 0.0
C365 C 0.76781 0.41284 0.91183 0.0
C366 C 0.71469 0.4178 0.93447 0.0
C367 C 0.67401 0.41158 0.95985 0.0
H368 H 0.79929 0.41768 0.89225 0.0
H369 H 0.40538 0.35455 0.13083 0.0
H370 H 0.17938 0.65792 0.03486 0.0
H371 H 0.30151 0.65824 0.03668 0.0
H372 H 0.30742 0.62292 0.03417 0.0
H373 H 0.18425 0.62253 0.03367 0.0
H374 H 0.37973 0.62971 0.07977 0.0
H375 H 0.36909 0.63961 0.96148 0.0
H376 H 0.32998 0.65018 0.9142 0.0
H377 H 0.41283 0.67955 0.9513 0.0
H378 H 0.4513 0.6692 -0.00071 0.0
H379 H 0.73906 0.62397 0.03672 0.0
H380 H 0.61672 0.62411 0.03527 0.0
H381 H 0.6105 0.65904 0.05183 0.0
H382 H 0.73367 0.65902 0.05317 0.0
H383 H 0.53925 0.65267 -0.00071 0.0
H384 H 0.55034 0.64215 0.11771 0.0
H385 H 0.58951 0.63112 0.16403 0.0
H386 H 0.50714 0.60215 0.12402 0.0
H387 H 0.46833 0.61299 0.07714 0.0
C388 C 0.20662 0.6502 0.03439 0.0
C389 C 0.17188 0.64019 0.03391 0.0
C390 C 0.27675 0.6504 0.03531 0.0
C391 C 0.31432 0.64061 0.03499 0.0
C392 C 0.27979 0.6306 0.03439 0.0
C393 C 0.20932 0.63038 0.03398 0.0
C394 C 0.38914 0.64083 0.03618 0.0
C395 C 0.41463 0.63461 0.06178 0.0
C396 C 0.43489 0.64741 0.01329 0.0
C397 C 0.41254 0.65364 0.98419 0.0
C398 C 0.37858 0.64833 0.95971 0.0
C399 C 0.35655 0.65429 0.93276 0.0
C400 C 0.36882 0.66553 0.92976 0.0
C401 C 0.4033 0.67084 0.95368 0.0
C402 C 0.42524 0.66493 0.98076 0.0
C403 C 0.7119 0.63171 0.04018 0.0
C404 C 0.74648 0.64149 0.04517 0.0
C405 C 0.64171 0.63175 0.03945 0.0
C406 C 0.60419 0.64156 0.04373 0.0
C407 C 0.6384 0.65136 0.04854 0.0
C408 C 0.70878 0.65133 0.04947 0.0
C409 C 0.52947 0.64153 0.04275 0.0
C410 C 0.50413 0.64778 0.01721 0.0
C411 C 0.48395 0.63489 0.06543 0.0
C412 C 0.50698 0.62837 0.09372 0.0
C413 C 0.54105 0.63342 0.11862 0.0
C414 C 0.56311 0.6272 0.14501 0.0
C415 C 0.55097 0.61594 0.14692 0.0
C416 C 0.51658 0.61087 0.12249 0.0
C417 C 0.49448 0.61705 0.09602 0.0
H418 H 0.56808 0.61114 0.16737 0.0
H419 H 0.35171 0.67012 0.90886 0.0
H420 H 0.88232 0.65444 0.52289 0.0
H421 H 0.76002 0.65431 0.52163 0.0
H422 H 0.7563 0.61934 0.53713 0.0
H423 H 0.87955 0.61936 0.53823 0.0
H424 H 0.68361 0.62595 0.48508 0.0
H425 H 0.69899 0.63614 0.60321 0.0
H426 H 0.74078 0.64716 0.64865 0.0
H427 H 0.65093 0.67605 0.61175 0.0
H428 H 0.61011 0.66526 0.56543 0.0
H429 H 0.32447 0.62061 0.52123 0.0
H430 H 0.44673 0.62025 0.52268 0.0
H431 H 0.44996 0.65558 0.52336 0.0
H432 H 0.3266 0.65599 0.52331 0.0
H433 H 0.52401 0.64855 0.56757 0.0
H434 H 0.51319 0.63937 0.44862 0.0
H435 H 0.47575 0.62919 0.40012 0.0
H436 H 0.55885 0.59947 0.43549 0.0
H437 H 0.596 0.60944 0.4845 0.0
C438 C 0.8558 0.6467 0.52612 0.0
C439 C 0.89107 0.6369 0.53079 0.0
C440 C 0.78561 0.64665 0.52549 0.0
C441 C 0.74879 0.63684 0.52961 0.0
C442 C 0.78369 0.62702 0.53398 0.0
C443 C 0.8541 0.62706 0.53477 0.0
C444 C 0.67395 0.63687 0.52912 0.0
C445 C 0.64847 0.63075 0.50344 0.0
C446 C 0.62846 0.64343 0.55238 0.0
C447 C 0.65196 0.6499 0.58063 0.0
C448 C 0.68854 0.64486 0.6046 0.0
C449 C 0.71202 0.65106 0.63055 0.0
C450 C 0.69849 0.66229 0.63312 0.0
C451 C 0.6614 0.66735 0.60973 0.0
C452 C 0.63811 0.66119 0.5836 0.0
C453 C 0.35113 0.62833 0.52142 0.0
C454 C 0.31561 0.63834 0.52195 0.0
C455 C 0.42137 0.6281 0.5221 0.0
C456 C 0.45826 0.63788 0.52251 0.0
C457 C 0.42289 0.64791 0.52299 0.0
C458 C 0.35231 0.64814 0.52285 0.0
C459 C 0.53324 0.63764 0.52336 0.0
C460 C 0.55889 0.64373 0.54916 0.0
C461 C 0.57905 0.63116 0.4999 0.0
C462 C 0.55678 0.62514 0.47044 0.0
C463 C 0.52302 0.63065 0.44622 0.0
C464 C 0.50193 0.62492 0.41861 0.0
C465 C 0.51475 0.61368 0.41478 0.0
C466 C 0.54886 0.60817 0.43852 0.0
C467 C 0.57 0.61386 0.4662 0.0
H468 H 0.4984 0.60926 0.39339 0.0
H469 H 0.71669 0.66708 0.65325 0.0
H470 H 0.73777 0.40092 0.52031 0.0
H471 H 0.61501 0.40093 0.51997 0.0
H472 H 0.60709 0.36654 0.54539 0.0
H473 H 0.73053 0.36642 0.54564 0.0
H474 H 0.53395 0.37164 0.49252 0.0
H475 H 0.55172 0.3852 0.60724 0.0
H476 H 0.59384 0.3974 0.64976 0.0
H477 H 0.50979 0.42525 0.60366 0.0
H478 H 0.46801 0.41322 0.56053 0.0
H479 H 0.17535 0.36722 0.53368 0.0
H480 H 0.29782 0.36703 0.53459 0.0
H481 H 0.30325 0.40218 0.5232 0.0
H482 H 0.17976 0.40247 0.5236 0.0
H483 H 0.37867 0.39663 0.56891 0.0
H484 H 0.36223 0.38378 0.45397 0.0
H485 H 0.32125 0.3721 0.40977 0.0
H486 H 0.40414 0.34368 0.45335 0.0
H487 H 0.4448 0.35517 0.49813 0.0
C488 C 0.71016 0.39334 0.52588 0.0
C489 C 0.74426 0.38367 0.5331 0.0
C490 C 0.63976 0.39338 0.52581 0.0
C491 C 0.60167 0.38377 0.53299 0.0
C492 C 0.63546 0.37406 0.53986 0.0
C493 C 0.706 0.37402 0.54012 0.0
C494 C 0.52671 0.38386 0.53295 0.0
C495 C 0.49978 0.37698 0.50957 0.0
C496 C 0.48244 0.39108 0.55442 0.0
C497 C 0.50729 0.39832 0.58045 0.0
C498 C 0.54269 0.39393 0.60599 0.0
C499 C 0.56642 0.40081 0.63024 0.0
C500 C 0.55464 0.41209 0.62936 0.0
C501 C 0.51895 0.41651 0.60429 0.0
C502 C 0.49518 0.40966 0.57995 0.0
C503 C 0.20253 0.37492 0.53116 0.0
C504 C 0.16767 0.38486 0.52834 0.0
C505 C 0.27284 0.37479 0.53154 0.0
C506 C 0.31038 0.38456 0.52829 0.0
C507 C 0.27562 0.39452 0.52565 0.0
C508 C 0.20498 0.39467 0.5258 0.0
C509 C 0.38553 0.3844 0.52839 0.0
C510 C 0.41263 0.39127 0.55179 0.0
C511 C 0.43007 0.37726 0.50663 0.0
C512 C 0.40601 0.37033 0.4796 0.0
C513 C 0.3713 0.37503 0.45428 0.0
C514 C 0.34819 0.36844 0.4291 0.0
C515 C 0.35994 0.35715 0.4288 0.0
C516 C 0.395 0.35242 0.45363 0.0
C517 C 0.41815 0.35897 0.4789 0.0
H518 H 0.342 0.35206 0.40929 0.0
H519 H 0.57305 0.41741 0.64816 0.0
H520 H 0.82895 0.87266 0.9566 0.0
H521 H 0.95243 0.8728 0.95683 0.0
H522 H 0.9246 0.89695 0.03925 0.0
H523 H 0.80245 0.89727 0.03762 0.0
H524 H 0.02788 0.9025 -0.00134 0.0
H525 H 0.95852 0.86813 0.0513 0.0
H526 H 0.90417 0.84996 0.05583 0.0
H527 H 0.03859 0.83924 0.96422 0.0
H528 H 0.09319 0.85741 0.95889 0.0
H529 H 0.35988 0.87504 0.0471 0.0
H530 H 0.23715 0.87463 0.04539 0.0
H531 H 0.2648 0.89735 0.95916 0.0
H532 H 0.38673 0.89823 0.96213 0.0
H533 H 0.1618 0.86827 0.00255 0.0
H534 H 0.12801 0.91299 0.95718 0.0
H535 H 0.17898 0.93118 0.96286 0.0
H536 H 0.24371 0.92121 0.05868 0.0
H537 H 0.1924 0.90303 0.0538 0.0
C538 C 0.84937 0.87798 0.97475 0.0
C539 C 0.80594 0.88497 0.99703 0.0
C540 C 0.92001 0.87802 0.97503 0.0
C541 C 0.9484 0.88479 -0.00161 0.0
C542 C 0.90462 0.8917 0.02078 0.0
C543 C 0.8345 0.89185 0.01992 0.0
C544 C 1.02346 0.88486 -0.0005 0.0
C545 C 0.05694 0.89499 -0.0005 0.0
C546 C 0.06191 0.87511 0.0013 0.0
C547 C 0.02945 0.86416 0.0045 0.0
C548 C 0.97618 0.86192 0.03199 0.0
C549 C 0.94537 0.85162 0.03472 0.0
C550 C 0.96778 0.84346 0.01027 0.0
C551 C 1.02121 0.84557 0.9831 0.0
C552 C 0.05214 0.85587 0.98023 0.0
C553 C 0.33956 0.88003 0.02803 0.0
C554 C 0.38275 0.8868 0.00516 0.0
C555 C 0.26939 0.87974 0.0269 0.0
C556 C 0.24099 0.88608 0.0025 0.0
C557 C 0.28466 0.89262 0.97896 0.0
C558 C 0.35452 0.89311 0.98064 0.0
C559 C 0.16587 0.8859 0.00183 0.0
C560 C 0.13257 0.87576 0.00171 0.0
C561 C 0.12691 0.89564 0.00147 0.0
C562 C 0.15695 0.90662 0.00491 0.0
C563 C 0.15287 0.9147 0.97953 0.0
C564 C 0.18187 0.925 0.98259 0.0
C565 C 0.21476 0.92734 0.01105 0.0
C566 C 0.21845 0.91939 0.03659 0.0
C567 C 0.18946 0.90908 0.03367 0.0
H568 H 0.23726 0.93531 0.01334 0.0
H569 H 0.94385 0.83549 0.01242 0.0
H570 H 0.22555 0.15848 0.05263 0.0
H571 H 0.1029 0.15848 0.05053 0.0
H572 H 0.10813 0.12335 0.03831 0.0
H573 H 0.23051 0.12332 0.03949 0.0
H574 H 0.0349 0.13161 0.99495 0.0
H575 H 0.04073 0.13629 0.11692 0.0
H576 H 0.07383 0.1448 0.1694 0.0
H577 H 0.98059 0.17509 0.14552 0.0
H578 H 0.94769 0.16679 0.09261 0.0
H579 H 0.67558 0.12206 0.03653 0.0
H580 H 0.79844 0.12249 0.03806 0.0
H581 H 0.79464 0.15777 0.03417 0.0
H582 H 0.67212 0.15744 0.03249 0.0
H583 H 0.8661 0.14967 0.08531 0.0
H584 H 0.85611 0.14388 0.96358 0.0
H585 H 0.81913 0.13434 0.91382 0.0
H586 H 0.9189 0.10491 0.93985 0.0
H587 H 0.95503 0.11419 0.9904 0.0
C588 C 0.20054 0.15075 0.04971 0.0
C589 C 0.23813 0.14091 0.04627 0.0
C590 C 0.13023 0.15075 0.0486 0.0
C591 C 0.09579 0.1409 0.04455 0.0
C592 C 0.13328 0.13107 0.04133 0.0
C593 C 0.20345 0.13107 0.04214 0.0
C594 C 1.02106 0.14077 0.04309 0.0
C595 C 0.99805 0.13545 0.01498 0.0
C596 C 0.97263 0.14592 0.06885 0.0
C597 C 0.99241 0.15095 0.1006 0.0
C598 C 0.02778 0.14479 0.1227 0.0
C599 C 0.04641 0.14957 0.15256 0.0
C600 C 0.0295 0.16049 0.16073 0.0
C601 C 0.99376 0.16664 0.13912 0.0
C602 C 0.97506 0.1619 0.10921 0.0
C603 C 0.70085 0.12991 0.03581 0.0
C604 C 0.66381 0.13971 0.03423 0.0
C605 C 0.77116 0.13015 0.03665 0.0
C606 C 0.80579 0.14017 0.03613 0.0
C607 C 0.76899 0.14995 0.03463 0.0
C608 C 0.69892 0.14972 0.03344 0.0
C609 C 0.88034 0.14049 0.03731 0.0
C610 C 0.90318 0.14585 0.06532 0.0
C611 C 0.92849 0.13525 0.01173 0.0
C612 C 0.90772 0.12971 0.981 0.0
C613 C 0.86972 0.13535 0.95889 0.0
C614 C 0.84897 0.12999 0.9305 0.0
C615 C 0.86665 0.11903 0.92365 0.0
C616 C 0.90519 0.1134 0.94519 0.0
C617 C 0.92578 0.1187 0.97374 0.0
H618 H 0.85055 0.1149 0.90164 0.0
H619 H 0.04394 0.16418 0.18386 0.0
H620 H 0.3756 0.15491 0.52441 0.0
H621 H 0.25326 0.15474 0.52332 0.0
H622 H 0.25021 0.11974 0.53794 0.0
H623 H 0.37355 0.11979 0.53888 0.0
H624 H 0.17765 0.12643 0.48599 0.0
H625 H 0.19098 0.13627 0.6046 0.0
H626 H 0.23166 0.1471 0.65083 0.0
H627 H 0.14409 0.17621 0.61399 0.0
H628 H 0.10411 0.1656 0.56702 0.0
H629 H 0.81834 0.12118 0.52114 0.0
H630 H 0.94043 0.12077 0.52294 0.0
H631 H 0.94415 0.1561 0.5238 0.0
H632 H 0.82088 0.15656 0.52335 0.0
H633 H 1.0174 0.14894 0.56844 0.0
H634 H 1.00793 0.13993 0.44913 0.0
H635 H 0.97088 0.1298 0.40042 0.0
H636 H 0.05317 0.10002 0.43584 0.0
H637 H 0.08991 0.10994 0.48505 0.0
C638 C 0.34921 0.14714 0.5275 0.0
C639 C 0.38471 0.13735 0.53184 0.0
C640 C 0.27899 0.14708 0.52698 0.0
C641 C 0.24236 0.13725 0.53087 0.0
C642 C 0.27746 0.12743 0.53497 0.0
C643 C 0.34791 0.12749 0.53567 0.0
C644 C 0.16756 0.13727 0.53024 0.0
C645 C 0.14236 0.13121 0.50434 0.0
C646 C 0.12187 0.14379 0.55352 0.0
C647 C 0.14502 0.15015 0.58209 0.0
C648 C 0.1808 0.14499 0.60619 0.0
C649 C 0.20369 0.15109 0.63255 0.0
C650 C 0.1905 0.16233 0.63535 0.0
C651 C 0.1543 0.1675 0.61179 0.0
C652 C 0.1315 0.16145 0.58529 0.0
C653 C 0.84505 0.12889 0.52143 0.0
C654 C 0.80968 0.13892 0.52188 0.0
C655 C 0.9152 0.12863 0.52232 0.0
C656 C 0.95219 0.1384 0.52289 0.0
C657 C 0.917 0.14844 0.5233 0.0
C658 C 0.84648 0.1487 0.52292 0.0
C659 C 0.02707 0.13812 0.52401 0.0
C660 C 0.05243 0.14414 0.55004 0.0
C661 C 0.07306 0.13165 0.50059 0.0
C662 C 0.05107 0.12566 0.47098 0.0
C663 C 1.01766 0.1312 0.44669 0.0
C664 C 0.9968 0.1255 0.41896 0.0
C665 C 1.0095 0.11427 0.41509 0.0
C666 C 0.04327 0.10872 0.4389 0.0
C667 C 0.06418 0.11438 0.46669 0.0
H668 H 0.99331 0.10987 0.3936 0.0
H669 H 0.20826 0.16703 0.65579 0.0
H670 H 0.6623 0.90411 0.51824 0.0
H671 H 0.78422 0.90421 0.52227 0.0
H672 H 0.79127 0.86904 0.51112 0.0
H673 H 0.66948 0.86886 0.50829 0.0
H674 H 0.86152 0.87445 0.55907 0.0
H675 H 0.85351 0.88732 0.44256 0.0
H676 H 0.81611 0.89937 0.3981 0.0
H677 H 0.89925 0.92723 0.44402 0.0
H678 H 0.9364 0.91536 0.48904 0.0
H679 H 0.2224 0.86754 0.5113 0.0
H680 H 0.09889 0.86811 0.51171 0.0
H681 H 0.09645 0.90264 0.53522 0.0
H682 H 0.21954 0.90217 0.53481 0.0
H683 H 1.02417 0.89807 0.48268 0.0
H684 H 0.03637 0.8845 0.59791 0.0
H685 H 0.07463 0.87204 0.641 0.0
H686 H 0.98483 0.84481 0.59513 0.0
H687 H 0.94679 0.8571 0.55145 0.0
C688 C 0.68995 0.89641 0.51642 0.0
C689 C 0.65607 0.88649 0.51273 0.0
C690 C 0.75978 0.89647 0.51868 0.0
C691 C 0.79752 0.88664 0.51656 0.0
C692 C 0.76358 0.87674 0.5129 0.0
C693 C 0.69378 0.87666 0.51112 0.0
C694 C 0.8722 0.88657 0.5182 0.0
C695 C 0.89708 0.87952 0.54201 0.0
C696 C 0.91886 0.89334 0.49657 0.0
C697 C 0.89712 0.90047 0.46936 0.0
C698 C 0.86342 0.89603 0.4433 0.0
C699 C 0.84232 0.90282 0.41799 0.0
C700 C 0.85513 0.91406 0.4183 0.0
C701 C 0.88927 0.91853 0.44385 0.0
C702 C 0.91042 0.91177 0.46925 0.0
C703 C 0.1956 0.87525 0.51677 0.0
C704 C 0.23117 0.8848 0.5231 0.0
C705 C 0.12488 0.87555 0.51708 0.0
C706 C 0.08822 0.88541 0.52368 0.0
C707 C 0.12355 0.89494 0.53006 0.0
C708 C 0.19407 0.89464 0.52996 0.0
C709 C 1.01333 0.88587 0.52322 0.0
C710 C 0.98848 0.893 0.4997 0.0
C711 C 0.96682 0.8791 0.54484 0.0
C712 C 0.98931 0.87171 0.5712 0.0
C713 C 1.02524 0.87584 0.59684 0.0
C714 C 0.0468 0.86881 0.62141 0.0
C715 C 0.03233 0.85763 0.62075 0.0
C716 C 0.99608 0.85347 0.59558 0.0
C717 C 0.97444 0.86047 0.57094 0.0
H718 H 0.04908 0.8522 0.63979 0.0
H719 H 0.83873 0.91931 0.39868 0.0
H720 H 0.94511 0.55733 0.07321 0.0
H721 H 0.9551 0.53748 0.0676 0.0
H722 H 0.09774 0.54116 0.97225 0.0
H723 H 0.08684 0.56116 0.97749 0.0
H724 H 1.01189 0.52517 0.96501 0.0
H725 H 0.15101 0.53411 0.05049 0.0
H726 H 0.17981 0.54265 0.10389 0.0
H727 H 1.022 0.5242 0.16634 0.0
H728 H 0.99154 0.51566 0.11325 0.0
H729 H 0.12894 0.46908 0.97105 0.0
H730 H 0.12126 0.48908 0.96924 0.0
H731 H 0.95487 0.48855 0.05524 0.0
H732 H 0.96021 0.46858 0.05646 0.0
H733 H 0.06091 0.50289 0.06516 0.0
H734 H 0.92153 0.49438 0.97768 0.0
H735 H 0.89697 0.48574 0.92357 0.0
H736 H 0.06295 0.50326 0.86404 0.0
H737 H 0.08917 0.51189 0.91791 0.0
C738 C 0.97921 0.55393 0.05122 0.0
C739 C 1.01597 0.56083 0.02606 0.0
C740 C 0.98486 0.54256 0.04801 0.0
C741 C 0.02827 0.53778 0.01987 0.0
C742 C 0.06415 0.54464 0.99429 0.0
C743 C 0.05796 0.55606 0.99731 0.0
C744 C 0.0356 0.52564 0.01735 0.0
C745 C 1.02375 0.52032 0.98672 0.0
C746 C 0.05022 0.51925 0.04579 0.0
C747 C 0.06863 0.52431 0.07784 0.0
C748 C 0.12212 0.53193 0.07559 0.0
C749 C 0.13878 0.53676 0.10581 0.0
C750 C 0.10266 0.53398 0.13848 0.0
C751 C 0.0499 0.52635 0.14101 0.0
C752 C 0.03295 0.5215 0.11086 0.0
C753 C 0.08957 0.47317 0.98906 0.0
C754 C 0.04549 0.46715 0.01407 0.0
C755 C 0.0856 0.48463 0.98812 0.0
C756 C 0.03772 0.4903 0.01222 0.0
C757 C 0.9926 0.48434 0.03659 0.0
C758 C 0.99599 0.4729 0.03732 0.0
C759 C 0.03624 0.50247 0.01311 0.0
C760 C 0.04943 0.50777 0.04343 0.0
C761 C 1.02366 0.50883 0.98429 0.0
C762 C 1.00779 0.50368 0.95188 0.0
C763 C 0.9532 0.49632 0.9531 0.0
C764 C 0.93889 0.49144 0.92246 0.0
C765 C 0.97851 0.49393 0.8904 0.0
C766 C 0.03239 0.50133 0.8889 0.0
C767 C 0.04697 0.50622 0.91948 0.0
H768 H 0.96734 0.49014 0.86671 0.0
H769 H 0.11564 0.53774 0.16185 0.0
H770 H 0.08395 0.46531 0.55617 0.0
H771 H 0.09121 0.48527 0.55446 0.0
H772 H 0.96703 0.48611 0.47277 0.0
H773 H 0.95771 0.46615 0.47493 0.0
H774 H 0.07813 0.50054 0.46104 0.0
H775 H 0.89416 0.49173 0.55277 0.0
H776 H 0.84005 0.48247 0.60647 0.0
H777 H 0.9834 0.49743 0.66396 0.0
H778 H 0.03903 0.50666 0.61046 0.0
H779 H 1.00352 0.55788 0.4755 0.0
H780 H 0.99503 0.5379 0.47199 0.0
H781 H 0.09195 0.53468 0.56359 0.0
H782 H 0.09954 0.55456 0.56747 0.0
H783 H 0.99003 0.5213 0.56884 0.0
H784 H 0.17714 0.5296 0.47843 0.0
H785 H 0.23522 0.53866 0.4252 0.0
H786 H 0.09175 0.52462 0.36588 0.0
H787 H 0.03224 0.51558 0.41889 0.0
C788 C 0.05793 0.4697 0.53787 0.0
C789 C 1.01971 0.46405 0.5159 0.0
C790 C 0.06238 0.48113 0.53685 0.0
C791 C 0.02897 0.48719 0.51379 0.0
C792 C 0.99321 0.4816 0.49079 0.0
C793 C 0.98831 0.47015 0.49194 0.0
C794 C 0.02957 0.49938 0.51456 0.0
C795 C 0.05806 0.5051 0.48444 0.0
C796 C 1.00463 0.50532 0.5453 0.0
C797 C 0.97117 0.4998 0.57753 0.0
C798 C 0.91451 0.49297 0.5768 0.0
C799 C 0.8835 0.48774 0.60721 0.0
C800 C 0.90838 0.48934 0.63859 0.0
C801 C 0.96424 0.49619 0.63963 0.0
C802 C 0.9955 0.50143 0.60927 0.0
C803 C 1.02315 0.5529 0.49481 0.0
C804 C 0.05185 0.55783 0.52187 0.0
C805 C 1.01847 0.54147 0.49274 0.0
C806 C 0.04348 0.53472 0.51733 0.0
C807 C 0.07196 0.53966 0.54437 0.0
C808 C 0.07608 0.55106 0.54663 0.0
C809 C 0.03951 0.52254 0.5154 0.0
C810 C 1.01011 0.51678 0.54534 0.0
C811 C 0.06421 0.51658 0.48457 0.0
C812 C 0.0998 0.52202 0.4527 0.0
C813 C 0.15764 0.52852 0.45409 0.0
C814 C 0.19088 0.53363 0.42395 0.0
C815 C 0.16707 0.53224 0.3922 0.0
C816 C 0.11006 0.5257 0.39051 0.0
C817 C 0.07658 0.52058 0.42058 0.0
H818 H 0.19289 0.5362 0.36889 0.0
H819 H 0.88428 0.48529 0.66211 0.0
H820 H 0.54381 0.96832 0.95892 0.0
H821 H 0.53484 0.98825 0.96138 0.0
H822 H 0.52126 0.98724 0.0734 0.0
H823 H 0.52736 0.96723 0.07131 0.0
H824 H 0.4338 1.00189 0.05543 0.0
H825 H 0.67158 0.99393 0.01934 0.0
H826 H 0.77157 0.98561 0.98271 0.0
H827 H 0.72232 1.0026 0.89295 0.0
H828 H 0.62148 1.01091 0.92897 0.0
H829 H 0.50277 0.05787 0.08117 0.0
H830 H 0.51143 0.03794 0.07862 0.0
H831 H 0.52418 0.039 0.96665 0.0
H832 H 0.5183 0.05901 0.96883 0.0
H833 H 0.61199 0.02433 0.98454 0.0
H834 H 0.37423 0.03231 0.02075 0.0
H835 H 0.27441 0.04065 0.05748 0.0
H836 H 0.32383 0.02363 0.14714 0.0
H837 H 0.42451 0.0153 0.11102 0.0
C838 C 0.53766 0.97229 0.98419 0.0
C839 C 0.53643 0.96611 0.01493 0.0
C840 C 0.53347 0.98374 0.9855 0.0
C841 C 0.52865 0.9893 0.01751 0.0
C842 C 0.52544 0.98316 0.04834 0.0
C843 C 0.52942 0.9717 0.04707 0.0
C844 C 0.52737 1.00151 0.01884 0.0
C845 C 0.47329 1.00679 0.04028 0.0
C846 C 0.57801 1.00795 -0.0015 0.0
C847 C 0.6386 1.00296 0.97679 0.0
C848 C 0.68177 0.99583 0.99174 0.0
C849 C 0.73865 0.99113 0.97109 0.0
C850 C 0.75319 0.99355 0.93551 0.0
C851 C 0.71095 1.00071 0.92051 0.0
C852 C 0.65396 1.00543 0.94103 0.0
C853 C 0.50865 0.05391 0.05589 0.0
C854 C 0.50974 0.06011 0.02519 0.0
C855 C 0.51267 0.04247 0.05453 0.0
C856 C 0.51721 0.03692 0.02251 0.0
C857 C 0.52023 0.04308 0.99172 0.0
C858 C 0.51639 0.05453 0.99303 0.0
C859 C 0.51842 0.02471 0.02113 0.0
C860 C 0.5725 0.01943 -0.00031 0.0
C861 C 0.4678 0.01827 0.04149 0.0
C862 C 0.40728 0.02327 0.06324 0.0
C863 C 0.36411 0.03041 0.04835 0.0
C864 C 0.30733 0.03513 0.06905 0.0
C865 C 0.29289 0.03269 0.10464 0.0
C866 C 0.33513 0.02552 0.11958 0.0
C867 C 0.39202 0.0208 0.09901 0.0
H868 H 0.24889 0.03635 0.12061 0.0
H869 H 0.79726 0.98991 0.91957 0.0
H870 H 0.56805 0.05589 0.57767 0.0
H871 H 0.55823 0.03599 0.57568 0.0
H872 H 0.50099 0.03816 0.47314 0.0
H873 H 0.50909 0.05817 0.4753 0.0
H874 H 0.42166 0.02364 0.51418 0.0
H875 H 0.66091 0.0305 0.4826 0.0
H876 H 0.77268 0.03825 0.48923 0.0
H877 H 0.76873 0.02085 0.58568 0.0
H878 H 0.65641 0.01311 0.57987 0.0
H879 H 0.47255 0.9679 0.46673 0.0
H880 H 0.4823 0.98779 0.469 0.0
H881 H 0.5387 0.98549 0.5717 0.0
H882 H 0.53059 0.96548 0.56927 0.0
H883 H 0.61839 1.00007 0.53075 0.0
H884 H 0.37922 0.99318 0.56227 0.0
H885 H 0.26752 0.98542 0.55559 0.0
H886 H 0.27135 1.00287 0.45923 0.0
H887 H 0.38361 1.01062 0.46508 0.0
C888 C 0.5524 0.05217 0.55486 0.0
C889 C 0.53916 0.05865 0.52666 0.0
C890 C 0.54757 0.04076 0.55361 0.0
C891 C 0.52973 0.03556 0.52408 0.0
C892 C 0.51514 0.042 0.49614 0.0
C893 C 0.52017 0.05343 0.49732 0.0
C894 C 0.52642 0.0234 0.52244 0.0
C895 C 0.46498 0.01849 0.5173 0.0
C896 C 0.58242 0.01666 0.52737 0.0
C897 C 0.64991 0.02132 0.53097 0.0
C898 C 0.68359 0.0284 0.50538 0.0
C899 C 0.7471 0.03278 0.50896 0.0
C900 C 0.7777 0.03006 0.53791 0.0
C901 C 0.74491 0.02295 0.5633 0.0
C902 C 0.68135 0.01856 0.55986 0.0
C903 C 0.48799 0.97159 0.48964 0.0
C904 C 0.50101 0.96507 0.5178 0.0
C905 C 0.49279 0.98299 0.49104 0.0
C906 C 0.51039 0.98816 0.52069 0.0
C907 C 0.52475 0.98169 0.5486 0.0
C908 C 0.51972 0.97026 0.54727 0.0
C909 C 0.51364 1.00031 0.52248 0.0
C910 C 0.57507 1.00522 0.52764 0.0
C911 C 0.45763 1.00705 0.51756 0.0
C912 C 0.39016 1.00239 0.51394 0.0
C913 C 0.35653 0.99529 0.5395 0.0
C914 C 0.29306 0.99091 0.53589 0.0
C915 C 0.26244 0.99363 0.50696 0.0
C916 C 0.29518 1.00076 0.4816 0.0
C917 C 0.3587 1.00515 0.48507 0.0
H918 H 0.21328 0.99023 0.50422 0.0
H919 H 0.82689 0.03346 0.54062 0.0
H920 H 0.20229 0.30623 0.96864 0.0
H921 H 0.23218 0.28684 0.97022 0.0
H922 H 0.24839 0.28971 0.07943 0.0
H923 H 0.22008 0.30924 0.07784 0.0
H924 H 0.35266 0.27764 0.04449 0.0
H925 H 0.10898 0.27818 0.05439 0.0
H926 H 0.99787 0.28307 0.03764 0.0
H927 H 0.05407 0.26668 0.93928 0.0
H928 H 0.16598 0.26182 0.95524 0.0
H929 H 0.34859 0.22091 0.08321 0.0
H930 H 0.31836 0.2403 0.08187 0.0
H931 H 0.30349 0.2376 0.97247 0.0
H932 H 0.33236 0.21808 0.97378 0.0
H933 H 0.19839 0.24957 0.00766 0.0
H934 H 0.44209 0.24907 -0.00229 0.0
H935 H 0.55325 0.24419 0.0144 0.0
H936 H 0.497 0.26052 0.11286 0.0
H937 H 0.38504 0.26537 0.09695 0.0
C938 C 0.21312 0.3028 0.99292 0.0
C939 C 0.20888 0.30932 0.02312 0.0
C940 C 0.22948 0.29166 0.99387 0.0
C941 C 0.24168 0.28677 0.02505 0.0
C942 C 0.23888 0.29329 0.0551 0.0
C943 C 0.22229 0.30444 0.05421 0.0
C944 C 0.25719 0.27484 0.02624 0.0
C945 C 0.31845 0.2715 0.03692 0.0
C946 C 0.21338 0.26682 0.01556 0.0
C947 C 0.14614 0.26973 0.00588 0.0
C948 C 0.09789 0.2757 0.02906 0.0
C949 C 0.03471 0.27845 0.01974 0.0
C950 C 1.01899 0.27521 0.98738 0.0
C951 C 0.06636 0.26919 0.96432 0.0
C952 C 0.12965 0.26643 0.9735 0.0
C953 C 0.33798 0.22439 0.05894 0.0
C954 C 0.34282 0.21792 0.02859 0.0
C955 C 0.3214 0.23552 0.05814 0.0
C956 C 0.30947 0.24046 0.02697 0.0
C957 C 0.31277 0.23398 0.99679 0.0
C958 C 0.32966 0.22284 -0.00247 0.0
C959 C 0.29384 0.25238 0.02591 0.0
C960 C 0.23257 0.25572 0.01525 0.0
C961 C 0.33764 0.2604 0.03661 0.0
C962 C 0.40489 0.25748 0.04628 0.0
C963 C 0.45317 0.25154 0.02305 0.0
C964 C 0.51638 0.24879 0.03234 0.0
C965 C 0.53211 0.25202 0.06471 0.0
C966 C 0.48471 0.25802 0.08782 0.0
C967 C 0.42138 0.26077 0.07866 0.0
H968 H 0.58109 0.24989 0.07185 0.0
H969 H 0.97004 0.27734 0.98022 0.0
H970 H 0.73319 0.80993 0.06687 0.0
H971 H 0.76523 0.79057 0.06924 0.0
H972 H 0.71738 0.78571 0.96564 0.0
H973 H 0.68409 0.80496 0.96337 0.0
H974 H 0.66441 0.76959 0.00963 0.0
H975 H 0.88093 0.78717 0.97838 0.0
H976 H 0.97091 0.80055 0.98465 0.0
H977 H 0.99084 0.78708 0.0848 0.0
H978 H 0.90018 0.77372 0.07935 0.0
H979 H 0.82253 0.71729 0.97539 0.0
H980 H 0.79144 0.73669 0.97278 0.0
H981 H 0.84013 0.7416 0.07618 0.0
H982 H 0.87253 0.72232 0.07869 0.0
H983 H 0.89283 0.75771 0.03225 0.0
H984 H 0.67614 0.74021 0.06372 0.0
H985 H 0.58558 0.7269 0.05779 0.0
H986 H 0.56568 0.74025 0.95748 0.0
H987 H 0.65686 0.75355 0.9626 0.0
C988 C 0.72946 0.80473 0.04463 0.0
C989 C 0.70651 0.80901 0.01485 0.0
C990 C 0.74816 0.79369 0.04592 0.0
C991 C 0.74419 0.7867 0.01749 0.0
C992 C 0.72102 0.79095 0.98784 0.0
C993 C 0.70266 0.80198 0.98646 0.0
C994 C 0.76337 0.77494 0.01875 0.0
C995 C 0.71466 0.76699 0.01411 0.0
C996 C 0.82842 0.77154 0.02536 0.0
C997 C 0.88327 0.77952 0.02861 0.0
C998 C 0.90411 0.78712 0.00187 0.0
C999 C 0.9553 0.79469 0.00525 0.0
C1000 C 0.98644 0.79469 0.03514 0.0
C1001 C 0.96659 0.78708 0.06168 0.0
C1002 C 0.91534 0.7795 0.05845 0.0
C1003 C 0.82671 0.72251 -0.00247 0.0
C1004 C 0.84956 0.71823 0.02734 0.0
C1005 C 0.80855 0.73358 0.9961 0.0
C1006 C 0.81293 0.74059 0.02442 0.0
C1007 C 0.83616 0.73635 0.05407 0.0
C1008 C 0.85401 0.72529 0.05558 0.0
C1009 C 0.79386 0.75236 0.0231 0.0
C1010 C 0.84259 0.76031 0.02774 0.0
C1011 C 0.7288 0.75576 0.01651 0.0
C1012 C 0.67383 0.74779 0.01339 0.0
C1013 C 0.65285 0.74024 0.04027 0.0
C1014 C 0.60134 0.73271 0.03708 0.0
C1015 C 0.57003 0.73271 0.00723 0.0
C1016 C 0.59006 0.74025 0.98056 0.0
C1017 C 0.64162 0.74779 0.9836 0.0
H1018 H 0.53014 0.72687 0.00481 0.0
H1019 H 1.02606 0.80055 0.03772 0.0
H1020 H 0.30908 0.71308 0.52225 0.0
H1021 H 0.33914 0.73245 0.52471 0.0
H1022 H 0.13643 0.74158 0.5083 0.0
H1023 H 0.10591 0.72229 0.50601 0.0
H1024 H 0.22893 0.75405 0.46953 0.0
H1025 H 0.18438 0.74287 0.58963 0.0
H1026 H 0.19781 0.73149 0.64062 0.0
H1027 H 0.40976 0.74005 0.62923 0.0
H1028 H 0.3978 0.75138 0.57786 0.0
H1029 H 0.23874 0.81011 0.51907 0.0
H1030 H 0.20888 0.79073 0.5166 0.0
H1031 H 0.41155 0.78165 0.5332 0.0
H1032 H 0.44187 0.80096 0.53552 0.0
H1033 H 0.31922 0.76915 0.57183 0.0
H1034 H 0.36388 0.78033 0.4518 0.0
H1035 H 0.35059 0.79172 0.40079 0.0
H1036 H 0.13867 0.78314 0.41201 0.0
H1037 H 0.15049 0.77182 0.4634 0.0
C1038 C 0.27078 0.7192 0.51929 0.0
C1039 C 0.20503 0.71608 0.5139 0.0
C1040 C 0.28806 0.73029 0.52071 0.0
C1041 C 0.23983 0.73852 0.51708 0.0
C1042 C 0.17462 0.73542 0.51109 0.0
C1043 C 0.15736 0.72435 0.50962 0.0
C1044 C 0.25696 0.75034 0.51969 0.0
C1045 C 0.24786 0.75737 0.49212 0.0
C1046 C 0.28304 0.75468 0.54879 0.0
C1047 C 0.29035 0.74788 0.57968 0.0
C1048 C 0.23398 0.74226 0.59783 0.0
C1049 C 0.24131 0.73583 0.62683 0.0
C1050 C 0.30464 0.73502 0.6381 0.0
C1051 C 0.36076 0.74067 0.62044 0.0
C1052 C 0.35373 0.7471 0.59139 0.0
C1053 C 0.27707 0.80399 0.52207 0.0
C1054 C 0.34275 0.80714 0.52752 0.0
C1055 C 0.25991 0.7929 0.52064 0.0
C1056 C 0.30819 0.78469 0.52431 0.0
C1057 C 0.37332 0.7878 0.53037 0.0
C1058 C 0.39047 0.79888 0.53186 0.0
C1059 C 0.29117 0.77286 0.52169 0.0
C1060 C 0.3003 0.76583 0.54925 0.0
C1061 C 0.26514 0.76852 0.49257 0.0
C1062 C 0.25792 0.77532 0.46166 0.0
C1063 C 0.31432 0.78094 0.44356 0.0
C1064 C 0.30707 0.78737 0.41455 0.0
C1065 C 0.24378 0.78818 0.40322 0.0
C1066 C 0.18764 0.78253 0.42084 0.0
C1067 C 0.19459 0.77609 0.44989 0.0
H1068 H 0.23828 0.79316 0.38076 0.0
H1069 H 0.31021 0.73004 0.66056 0.0
H1070 H 0.96005 0.30014 0.50295 0.0
H1071 H 0.92659 0.28099 0.50063 0.0
H1072 H 0.71451 0.29056 0.5188 0.0
H1073 H 0.74771 0.30982 0.5211 0.0
H1074 H 0.73563 0.27345 0.55869 0.0
H1075 H 0.79432 0.28236 0.43745 0.0
H1076 H 0.86717 0.28939 0.38482 0.0
H1077 H 1.02028 0.26532 0.39658 0.0
H1078 H 0.94872 0.25824 0.44959 0.0
H1079 H 0.59818 0.22284 0.51505 0.0
H1080 H 0.63309 0.24198 0.51509 0.0
H1081 H 0.8443 0.23196 0.50098 0.0
H1082 H 0.80969 0.21271 0.50005 0.0
H1083 H 0.82432 0.24921 0.45896 0.0
H1084 H 0.76492 0.24028 0.58016 0.0
H1085 H 0.69165 0.23326 0.63266 0.0
H1086 H 0.53914 0.25742 0.62072 0.0
H1087 H 0.61113 0.26448 0.56782 0.0
C1088 C 0.90624 0.29821 0.50591 0.0
C1089 C 0.8566 0.30656 0.51191 0.0
C1090 C 0.88716 0.28723 0.50467 0.0
C1091 C 0.81799 0.28431 0.5091 0.0
C1092 C 0.76822 0.2926 0.51529 0.0
C1093 C 0.78728 0.30361 0.51664 0.0
C1094 C 0.79774 0.27258 0.50797 0.0
C1095 C 0.75423 0.2682 0.53664 0.0
C1096 C 0.82336 0.26562 0.47962 0.0
C1097 C 0.86642 0.26984 0.44769 0.0
C1098 C 0.84375 0.27862 0.42897 0.0
C1099 C 0.88477 0.2826 0.39905 0.0
C1100 C 0.94839 0.27782 0.38742 0.0
C1101 C 0.97103 0.26902 0.40565 0.0
C1102 C 0.93023 0.26502 0.43562 0.0
C1103 C 0.65216 0.22468 0.5115 0.0
C1104 C 0.70115 0.21621 0.50741 0.0
C1105 C 0.67201 0.23565 0.51192 0.0
C1106 C 0.7413 0.23842 0.50845 0.0
C1107 C 0.79051 0.23002 0.50384 0.0
C1108 C 0.77064 0.21902 0.50353 0.0
C1109 C 0.7621 0.2501 0.50961 0.0
C1110 C 0.80573 0.25447 0.48098 0.0
C1111 C 0.73652 0.25706 0.53797 0.0
C1112 C 0.69316 0.25284 0.56982 0.0
C1113 C 0.71552 0.24404 0.58856 0.0
C1114 C 0.67426 0.24006 0.61842 0.0
C1115 C 0.6107 0.24487 0.62997 0.0
C1116 C 0.58835 0.25369 0.61172 0.0
C1117 C 0.62939 0.25769 0.58181 0.0
H1118 H 0.57884 0.24179 0.65311 0.0
H1119 H 0.98007 0.28092 0.36424 0.0
H1120 H 0.16743 0.3736 0.12729 0.0
H1121 H 0.15266 0.37307 0.19126 0.0
H1122 H 0.97683 0.39432 0.19664 0.0
H1123 H 0.99318 0.39525 0.13322 0.0
H1124 H 0.04642 0.40092 0.24159 0.0
H1125 H 0.96678 0.36562 0.21228 0.0
H1126 H 0.97436 0.34766 0.18276 0.0
H1127 H 0.14421 0.33875 0.23333 0.0
H1128 H 0.13818 0.35673 0.2628 0.0
H1129 H 0.91395 0.37201 0.41879 0.0
H1130 H 0.9363 0.37182 0.35501 0.0
H1131 H 0.09828 0.39521 0.35625 0.0
H1132 H 0.07422 0.39578 0.41996 0.0
H1133 H 0.03673 0.36614 0.30812 0.0
H1134 H 0.11301 0.4117 0.28646 0.0
H1135 H 0.08906 0.42957 0.31567 0.0
H1136 H 0.89528 0.41777 0.36664 0.0
H1137 H 0.91768 0.39989 0.33739 0.0
C1138 C 0.12557 0.37812 0.14222 0.0
C1139 C 0.08153 0.38448 0.12525 0.0
C1140 C 0.11699 0.37779 0.17877 0.0
C1141 C 0.06319 0.38358 0.19893 0.0
C1142 C 1.01899 0.38984 0.18183 0.0
C1143 C 0.02827 0.39033 0.14547 0.0
C1144 C 0.05278 0.38332 0.2378 0.0
C1145 C 0.04448 0.3933 0.25606 0.0
C1146 C 0.04905 0.3734 0.25691 0.0
C1147 C 0.05246 0.36256 0.23946 0.0
C1148 C 1.00602 0.35985 0.21692 0.0
C1149 C 1.01 0.34967 0.20022 0.0
C1150 C 0.05986 0.34208 0.20609 0.0
C1151 C 0.10569 0.34465 0.22876 0.0
C1152 C 0.10199 0.35483 0.24549 0.0
C1153 C 0.95422 0.37713 0.40546 0.0
C1154 C 0.99181 0.384 0.42441 0.0
C1155 C 0.96719 0.37698 0.36897 0.0
C1156 C 1.01841 0.38361 0.35067 0.0
C1157 C 0.05741 0.39022 0.36964 0.0
C1158 C 0.04368 0.39052 0.40611 0.0
C1159 C 0.03005 0.38374 0.3118 0.0
C1160 C 0.03892 0.37375 0.29358 0.0
C1161 C 0.03181 0.39364 0.29267 0.0
C1162 C 1.01742 0.40442 0.31002 0.0
C1163 C 0.0652 0.41293 0.3038 0.0
C1164 C 0.05191 0.42306 0.32038 0.0
C1165 C 0.9908 0.42479 0.3431 0.0
C1166 C 0.94271 0.41641 0.34915 0.0
C1167 C 0.9557 0.40627 0.3326 0.0
H1168 H 0.98066 0.43263 0.35595 0.0
H1169 H 0.06289 0.3342 0.19312 0.0
H1170 H 0.92616 0.62454 0.15538 0.0
H1171 H 0.95071 0.62356 0.21524 0.0
H1172 H 0.03307 0.65625 0.20553 0.0
H1173 H 1.01005 0.6572 0.1457 0.0
H1174 H 0.11664 0.64322 0.23256 0.0
H1175 H 0.87541 0.65046 0.25475 0.0
H1176 H 0.75436 0.64732 0.25044 0.0
H1177 H 0.76466 0.61555 0.2968 0.0
H1178 H 0.8861 0.61845 0.30094 0.0
H1179 H 0.13322 0.65338 0.41237 0.0
H1180 H 0.10904 0.65384 0.35244 0.0
H1181 H 0.03289 0.62079 0.3635 0.0
H1182 H 0.05605 0.6203 0.42337 0.0
H1183 H 0.94653 0.63364 0.3358 0.0
H1184 H 0.18741 0.62652 0.31424 0.0
H1185 H 0.30845 0.62967 0.31851 0.0
H1186 H 0.29865 0.66127 0.27098 0.0
H1187 H 0.17722 0.65836 0.26687 0.0
C1188 C 0.94874 0.63157 0.16615 0.0
C1189 C 0.96619 0.64094 0.14573 0.0
C1190 C 0.96269 0.631 0.20041 0.0
C1191 C 0.99352 0.63986 0.21501 0.0
C1192 C 1.00958 0.6493 0.19484 0.0
C1193 C 0.99611 0.64984 0.16062 0.0
C1194 C 1.01144 0.6392 0.25079 0.0
C1195 C 0.07917 0.64127 0.2552 0.0
C1196 C 0.96309 0.63638 0.28025 0.0
C1197 C 0.89006 0.63463 0.27781 0.0
C1198 C 0.85203 0.64277 0.26375 0.0
C1199 C 0.78331 0.64104 0.26139 0.0
C1200 C 0.75189 0.63123 0.27325 0.0
C1201 C 0.78909 0.62314 0.28757 0.0
C1202 C 0.85785 0.62482 0.28996 0.0
C1203 C 0.11209 0.64616 0.40194 0.0
C1204 C 0.0966 0.6368 0.42278 0.0
C1205 C 0.09835 0.64643 0.36762 0.0
C1206 C 0.06934 0.63733 0.35339 0.0
C1207 C 0.05504 0.62792 0.37393 0.0
C1208 C 0.06863 0.62765 0.40818 0.0
C1209 C 0.05162 0.63771 0.31755 0.0
C1210 C 0.98397 0.63559 0.31314 0.0
C1211 C 0.10001 0.64049 0.28808 0.0
C1212 C 0.17301 0.64227 0.29058 0.0
C1213 C 0.21089 0.63418 0.30498 0.0
C1214 C 0.27961 0.63591 0.30731 0.0
C1215 C 0.31117 0.64568 0.2951 0.0
C1216 C 0.27411 0.65372 0.28047 0.0
C1217 C 0.20535 0.65203 0.27811 0.0
H1218 H 0.36439 0.64701 0.29692 0.0
H1219 H 0.69868 0.62991 0.2714 0.0
H1220 H 0.04099 0.62429 0.9287 0.0
H1221 H 0.05986 0.62419 0.8649 0.0
H1222 H 0.95162 0.65489 0.8646 0.0
H1223 H 0.93188 0.65502 0.92838 0.0
H1224 H 0.91311 0.64053 0.81815 0.0
H1225 H 0.12475 0.65402 0.84726 0.0
H1226 H 0.22717 0.65357 0.87596 0.0
H1227 H 0.29124 0.62345 0.82332 0.0
H1228 H 0.18872 0.62365 0.79467 0.0
H1229 H 1.01501 0.65382 0.63944 0.0
H1230 H 0.9958 0.65403 0.70324 0.0
H1231 H 0.11227 0.62414 0.70415 0.0
H1232 H 0.13275 0.62397 0.64039 0.0
H1233 H 0.1466 0.63816 0.75045 0.0
H1234 H 0.93697 0.62422 0.72208 0.0
H1235 H 0.83362 0.62392 0.69416 0.0
H1236 H 0.76509 0.65404 0.74553 0.0
H1237 H 0.86854 0.65459 0.77343 0.0
C1238 C 1.02108 0.63102 0.91512 0.0
C1239 C 0.98506 0.63968 0.93374 0.0
C1240 C 0.0322 0.63097 0.87861 0.0
C1241 C 1.00783 0.6396 0.85996 0.0
C1242 C 0.971 0.64816 0.87845 0.0
C1243 C 0.95993 0.64823 0.91494 0.0
C1244 C 1.02041 0.63967 0.82118 0.0
C1245 C 0.96421 0.64017 0.80332 0.0
C1246 C 0.087 0.63891 0.80185 0.0
C1247 C 0.14871 0.6388 0.81907 0.0
C1248 C 0.16039 0.64726 0.84202 0.0
C1249 C 0.21852 0.64705 0.85825 0.0
C1250 C 0.26559 0.63847 0.85152 0.0
C1251 C 0.25469 0.63009 0.82853 0.0
C1252 C 0.19662 0.63025 0.81227 0.0
C1253 C 0.03658 0.64729 0.65318 0.0
C1254 C 0.0753 0.63886 0.63476 0.0
C1255 C 1.02527 0.64739 0.6897 0.0
C1256 C 0.05188 0.63903 0.70854 0.0
C1257 C 0.09118 0.63068 0.6902 0.0
C1258 C 0.10271 0.63058 0.65371 0.0
C1259 C 0.03927 0.63901 0.74735 0.0
C1260 C 0.09547 0.63854 0.76524 0.0
C1261 C 0.97265 0.63972 0.76671 0.0
C1262 C 0.91083 0.63949 0.7496 0.0
C1263 C 0.90019 0.63083 0.72717 0.0
C1264 C 0.84153 0.63061 0.7114 0.0
C1265 C 0.79285 0.63896 0.71806 0.0
C1266 C 0.80285 0.64757 0.74041 0.0
C1267 C 0.86147 0.64784 0.75622 0.0
H1268 H 0.74721 0.63872 0.70607 0.0
H1269 H 0.31062 0.63832 0.86403 0.0
H1270 H 0.99833 0.36926 0.64055 0.0
H1271 H 1.01537 0.37135 0.70112 0.0
H1272 H 0.92954 0.4039 0.70362 0.0
H1273 H 0.91243 0.4019 0.64269 0.0
H1274 H 0.05082 0.40305 0.73053 0.0
H1275 H 0.83813 0.38395 0.7464 0.0
H1276 H 0.7583 0.36937 0.73575 0.0
H1277 H 0.8907 0.34514 0.7699 0.0
H1278 H 0.97182 0.35956 0.7803 0.0
H1279 H 0.05436 0.4071 0.91534 0.0
H1280 H 1.02376 0.40755 0.85653 0.0
H1281 H 0.07611 0.37329 0.84326 0.0
H1282 H 0.10405 0.37272 0.90223 0.0
H1283 H 0.96039 0.37657 0.82306 0.0
H1284 H 0.17787 0.39497 0.80185 0.0
H1285 H 0.26133 0.40917 0.81096 0.0
H1286 H 0.12452 0.43421 0.78575 0.0
H1287 H 0.03989 0.42016 0.77688 0.0
C1288 C 0.98244 0.37684 0.654 0.0
C1289 C 0.95384 0.3854 0.63677 0.0
C1290 C 0.99209 0.37801 0.68869 0.0
C1291 C 0.97333 0.38776 0.70696 0.0
C1292 C 0.94427 0.39631 0.69 0.0
C1293 C 0.93417 0.39512 0.65526 0.0
C1294 C 0.98619 0.38905 0.74343 0.0
C1295 C 0.03014 0.39739 0.75099 0.0
C1296 C 0.96026 0.38153 0.76987 0.0
C1297 C 0.91129 0.37284 0.7639 0.0
C1298 C 0.85046 0.3755 0.75141 0.0
C1299 C 0.80493 0.36727 0.74546 0.0
C1300 C 0.81948 0.35633 0.75208 0.0
C1301 C 0.87951 0.35361 0.76476 0.0
C1302 C 0.92524 0.36182 0.77074 0.0
C1303 C 0.06024 0.39972 0.89962 0.0
C1304 C 0.0816 0.38987 0.91336 0.0
C1305 C 0.04276 0.39998 0.86599 0.0
C1306 C 0.04787 0.39046 0.84527 0.0
C1307 C 0.0712 0.38073 0.85873 0.0
C1308 C 0.08748 0.38042 0.89242 0.0
C1309 C 0.02673 0.3904 0.81009 0.0
C1310 C 0.98084 0.3823 0.80277 0.0
C1311 C 0.05142 0.39808 0.78382 0.0
C1312 C 0.10228 0.40653 0.78909 0.0
C1313 C 0.16539 0.40351 0.79851 0.0
C1314 C 0.21294 0.41153 0.80358 0.0
C1315 C 0.19815 0.42259 0.79905 0.0
C1316 C 0.13585 0.42565 0.78932 0.0
C1317 C 0.0881 0.41766 0.78424 0.0
H1318 H 0.23503 0.42879 0.80298 0.0
H1319 H 0.78418 0.34997 0.74745 0.0
H1320 H 0.50442 0.9017 0.11378 0.0
H1321 H 0.4847 0.90135 0.17764 0.0
H1322 H 0.61065 0.87242 0.1762 0.0
H1323 H 0.62945 0.87257 0.11251 0.0
H1324 H 0.49902 0.87002 0.22225 0.0
H1325 H 0.6679 0.89808 0.19649 0.0
H1326 H 0.71718 0.9151 0.16936 0.0
H1327 H 0.54752 0.93354 0.22286 0.0
H1328 H 0.49674 0.9166 0.24995 0.0
H1329 H 0.53988 0.87068 0.40144 0.0
H1330 H 0.56062 0.87121 0.33758 0.0
H1331 H 0.42903 0.89947 0.33918 0.0
H1332 H 0.40876 0.89911 0.40292 0.0
H1333 H 0.54361 0.90223 0.29321 0.0
H1334 H 0.37512 0.87402 0.31898 0.0
H1335 H 0.32708 0.85697 0.34641 0.0
H1336 H 0.49778 0.83874 0.29302 0.0
H1337 H 0.54734 0.85573 0.26563 0.0
C1338 C 0.52818 0.89529 0.12704 0.0
C1339 C 0.56867 0.88718 0.10793 0.0
C1340 C 0.51702 0.89512 0.1636 0.0
C1341 C 0.54674 0.88692 0.18185 0.0
C1342 C 0.5871 0.87883 0.16279 0.0
C1343 C 0.59799 0.87895 0.12629 0.0
C1344 C 0.53515 0.88666 0.22075 0.0
C1345 C 0.50966 0.87702 0.23773 0.0
C1346 C 0.54759 0.89585 0.24109 0.0
C1347 C 0.57819 0.90606 0.22497 0.0
C1348 C 0.64084 0.90576 0.20227 0.0
C1349 C 0.66909 0.91539 0.18693 0.0
C1350 C 0.63541 0.92539 0.19431 0.0
C1351 C 0.5735 0.92578 0.21713 0.0
C1352 C 0.54499 0.91617 0.23251 0.0
C1353 C 0.51519 0.877 0.38822 0.0
C1354 C 0.47242 0.88483 0.40737 0.0
C1355 C 0.52696 0.87727 0.35168 0.0
C1356 C 0.49587 0.88532 0.33351 0.0
C1357 C 0.45358 0.89318 0.35258 0.0
C1358 C 0.44182 0.89293 0.38907 0.0
C1359 C 0.50755 0.8856 0.29465 0.0
C1360 C 0.53302 0.89523 0.27769 0.0
C1361 C 0.49526 0.8764 0.27433 0.0
C1362 C 0.46525 0.86616 0.29052 0.0
C1363 C 0.40265 0.86639 0.31328 0.0
C1364 C 0.37511 0.85673 0.32879 0.0
C1365 C 0.40944 0.84678 0.32153 0.0
C1366 C 0.47129 0.84646 0.29865 0.0
C1367 C 0.4991 0.8561 0.2831 0.0
H1368 H 0.38805 0.83931 0.33357 0.0
H1369 H 0.65736 0.93284 0.18241 0.0
H1370 H 0.4211 0.12372 0.15544 0.0
H1371 H 0.44624 0.1228 0.21522 0.0
H1372 H 0.52521 0.1557 0.20568 0.0
H1373 H 0.50155 0.15661 0.14597 0.0
H1374 H 0.61034 0.14286 0.23248 0.0
H1375 H 0.36841 0.14953 0.2549 0.0
H1376 H 0.24764 0.14606 0.25072 0.0
H1377 H 0.26131 0.11437 0.29708 0.0
H1378 H 0.38249 0.11759 0.30109 0.0
H1379 H 0.62636 0.15352 0.41201 0.0
H1380 H 0.60244 0.1537 0.35203 0.0
H1381 H 0.52825 0.12056 0.3641 0.0
H1382 H 0.55108 0.12035 0.42406 0.0
H1383 H 0.44139 0.13303 0.3359 0.0
H1384 H 0.68283 0.12654 0.31456 0.0
H1385 H 0.80365 0.13002 0.31857 0.0
H1386 H 0.79096 0.16141 0.2701 0.0
H1387 H 0.66973 0.15819 0.26626 0.0
C1388 C 0.44308 0.13081 0.16623 0.0
C1389 C 0.45935 0.14024 0.14588 0.0
C1390 C 0.45737 0.13027 0.20044 0.0
C1391 C 0.48743 0.13921 0.21506 0.0
C1392 C 0.50235 0.14869 0.19497 0.0
C1393 C 0.48851 0.14921 0.16081 0.0
C1394 C 0.50558 0.13861 0.25082 0.0
C1395 C 0.57313 0.14085 0.25517 0.0
C1396 C 0.45759 0.1357 0.28033 0.0
C1397 C 0.38473 0.13376 0.27795 0.0
C1398 C 0.34582 0.14179 0.26394 0.0
C1399 C 0.27727 0.13987 0.26165 0.0
C1400 C 0.24687 0.12999 0.27354 0.0
C1401 C 0.28494 0.12201 0.28783 0.0
C1402 C 0.35355 0.12388 0.29013 0.0
C1403 C 0.60572 0.14622 0.40179 0.0
C1404 C 0.59065 0.13692 0.42295 0.0
C1405 C 0.59215 0.14633 0.36743 0.0
C1406 C 0.56377 0.13712 0.35345 0.0
C1407 C 0.54993 0.12777 0.37431 0.0
C1408 C 0.56331 0.12766 0.40862 0.0
C1409 C 0.54605 0.13735 0.31758 0.0
C1410 C 0.47861 0.13503 0.31321 0.0
C1411 C 0.59412 0.1402 0.28804 0.0
C1412 C 0.66697 0.14217 0.29045 0.0
C1413 C 0.70562 0.13423 0.30504 0.0
C1414 C 0.77422 0.13615 0.30723 0.0
C1415 C 0.80491 0.14594 0.29468 0.0
C1416 C 0.76709 0.15383 0.27986 0.0
C1417 C 0.69844 0.15196 0.27765 0.0
H1418 H 0.85805 0.1474 0.29638 0.0
H1419 H 0.19378 0.12852 0.27176 0.0
H1420 H 0.54154 0.12511 0.92805 0.0
H1421 H 0.56082 0.12541 0.86422 0.0
H1422 H 0.43326 0.15414 0.86556 0.0
H1423 H 0.41345 0.1539 0.92936 0.0
H1424 H 0.4048 0.1392 0.81782 0.0
H1425 H 0.60278 0.1567 0.84777 0.0
H1426 H 0.70488 0.1589 0.87599 0.0
H1427 H 0.79423 0.1301 0.82369 0.0
H1428 H 0.6922 0.12764 0.79545 0.0
H1429 H 0.50259 0.15394 0.63953 0.0
H1430 H 0.48254 0.15409 0.70337 0.0
H1431 H 0.61265 0.12574 0.7044 0.0
H1432 H 0.63367 0.1256 0.64064 0.0
H1433 H 0.63925 0.1408 0.75103 0.0
H1434 H 0.43951 0.12336 0.72118 0.0
H1435 H 0.33837 0.1217 0.69189 0.0
H1436 H 0.25263 0.15083 0.7436 0.0
H1437 H 0.35372 0.15274 0.77291 0.0
C1438 C 0.5174 0.13148 0.91482 0.0
C1439 C 0.47605 0.1395 0.93389 0.0
C1440 C 0.52875 0.13167 0.8783 0.0
C1441 C 0.49899 0.13986 0.86011 0.0
C1442 C 0.4568 0.14775 0.87905 0.0
C1443 C 0.44571 0.14762 0.91555 0.0
C1444 C 0.51185 0.14018 0.82134 0.0
C1445 C 0.45601 0.13969 0.80321 0.0
C1446 C 0.57872 0.14062 0.80226 0.0
C1447 C 0.63955 0.14193 0.81975 0.0
C1448 C 0.64387 0.15077 0.84257 0.0
C1449 C 0.7018 0.15208 0.85849 0.0
C1450 C 0.75598 0.14465 0.85163 0.0
C1451 C 0.75221 0.13585 0.82896 0.0
C1452 C 0.69437 0.1345 0.81296 0.0
C1453 C 0.52705 0.14774 0.65331 0.0
C1454 C 0.56962 0.13974 0.63493 0.0
C1455 C 0.51527 0.14781 0.68983 0.0
C1456 C 0.54548 0.13985 0.70869 0.0
C1457 C 0.58874 0.13195 0.69041 0.0
C1458 C 0.60055 0.13188 0.65392 0.0
C1459 C 0.53227 0.13975 0.74749 0.0
C1460 C 0.58804 0.14029 0.76563 0.0
C1461 C 0.46533 0.13938 0.76656 0.0
C1462 C 0.40446 0.13825 0.74901 0.0
C1463 C 0.39933 0.12946 0.72611 0.0
C1464 C 0.34198 0.12846 0.70954 0.0
C1465 C 0.28916 0.13616 0.71586 0.0
C1466 C 0.2936 0.14488 0.73874 0.0
C1467 C 0.35088 0.14591 0.75537 0.0
H1468 H 0.24467 0.13534 0.70313 0.0
H1469 H 0.80103 0.14574 0.86373 0.0
H1470 H 0.49803 0.90295 0.61708 0.0
H1471 H 0.52316 0.90279 0.67651 0.0
H1472 H 0.43888 0.87036 0.69178 0.0
H1473 H 0.41322 0.87041 0.6319 0.0
H1474 H 0.4016 0.88432 0.74975 0.0
H1475 H 0.60492 0.87289 0.67397 0.0
H1476 H 0.69515 0.87455 0.62273 0.0
H1477 H 0.75949 0.90496 0.66239 0.0
H1478 H 0.66881 0.90358 0.7136 0.0
H1479 H 0.5429 0.86935 0.89735 0.0
H1480 H 0.51942 0.86984 0.83764 0.0
H1481 H 0.60993 0.90189 0.82362 0.0
H1482 H 0.63433 0.90144 0.88379 0.0
H1483 H 0.64396 0.88849 0.76505 0.0
H1484 H 0.44237 0.9 0.84085 0.0
H1485 H 0.35255 0.89852 0.89232 0.0
H1486 H 0.28471 0.86833 0.85281 0.0
H1487 H 0.37498 0.86953 0.80136 0.0
C1488 C 0.48415 0.89579 0.63301 0.0
C1489 C 0.45396 0.88665 0.61949 0.0
C1490 C 0.49879 0.89572 0.66705 0.0
C1491 C 0.48379 0.88651 0.68842 0.0
C1492 C 0.45108 0.87754 0.67565 0.0
C1493 C 0.43655 0.87758 0.64141 0.0
C1494 C 0.50486 0.88617 0.72352 0.0
C1495 C 0.45463 0.88508 0.75309 0.0
C1496 C 0.57399 0.88745 0.72788 0.0
C1497 C 0.62961 0.88818 0.69749 0.0
C1498 C 0.63801 0.87997 0.67167 0.0
C1499 C 0.68926 0.88086 0.64263 0.0
C1500 C 0.73292 0.88987 0.63926 0.0
C1501 C 0.72557 0.89799 0.66501 0.0
C1502 C 0.67428 0.89715 0.69407 0.0
C1503 C 0.55845 0.87649 0.88161 0.0
C1504 C 0.58993 0.88541 0.89554 0.0
C1505 C 0.54482 0.87676 0.84742 0.0
C1506 C 0.5618 0.88597 0.82636 0.0
C1507 C 0.59611 0.89471 0.83951 0.0
C1508 C 0.60997 0.89444 0.87388 0.0
C1509 C 0.54073 0.88659 0.79129 0.0
C1510 C 0.59092 0.88774 0.76173 0.0
C1511 C 0.47152 0.88541 0.78693 0.0
C1512 C 0.41586 0.88481 0.81735 0.0
C1513 C 0.40855 0.89301 0.84321 0.0
C1514 C 0.35756 0.89222 0.87239 0.0
C1515 C 0.31305 0.88332 0.87587 0.0
C1516 C 0.31928 0.87522 0.85009 0.0
C1517 C 0.37032 0.87595 0.82089 0.0
H1518 H 0.27368 0.88272 0.89851 0.0
H1519 H 0.7725 0.89054 0.61673 0.0
loop_
_geom_bond_atom_site_label_1
_geom_bond_atom_site_label_2
_geom_bond_distance
_geom_bond_site_symmetry_2
_ccdc_geom_bond_type
Tb0 C9 2.764 . S
Tb0 O10 2.325 . S
Tb0 O13 2.303 . S
Tb0 O17 2.322 1_455 S
Tb0 O18 2.349 1_554 S
Tb0 O21 2.415 . S
Tb0 O22 2.399 1_554 S
Tb1 O11 2.322 . S
Tb1 O12 2.349 . S
Tb1 O14 2.415 1_554 S
Tb1 O15 2.399 . S
Tb1 O16 2.325 1_455 S
Tb1 O19 2.303 1_554 S
Tb1 C30 2.764 . S
C2 O18 1.261 . S
C2 O19 1.257 . S
C3 C6 1.358 . S
C3 C7 1.332 . S
C3 C9 1.504 . S
C4 C5 1.373 . S
C4 C8 1.308 . S
C5 C4 1.373 . S
C5 C6 1.429 . S
C5 H32 0.932 1_554 S
C6 C3 1.358 . S
C6 C5 1.429 . S
C6 H33 0.930 1_554 S
C7 C3 1.332 . S
C7 C8 1.394 . S
C7 H34 0.932 . S
C8 C4 1.308 . S
C8 C7 1.394 . S
C8 H35 0.929 . S
C9 Tb0 2.764 . S
C9 C3 1.504 . S
C9 O21 1.239 . S
C9 O22 1.263 1_554 S
O10 Tb0 2.325 . S
O10 C20 1.236 . S
O11 Tb1 2.322 . S
O11 C20 1.257 . S
O12 Tb1 2.349 . S
O12 C23 1.261 . S
O13 Tb0 2.303 . S
O13 C23 1.257 . S
O14 Tb1 2.415 1_556 S
O14 C30 1.239 1_556 S
O15 Tb1 2.399 . S
O15 C30 1.263 . S
O16 Tb1 2.325 1_655 S
O16 C31 1.236 . S
O17 Tb0 2.322 1_655 S
O17 C31 1.257 . S
O18 Tb0 2.349 1_556 S
O18 C2 1.261 . S
O19 Tb1 2.303 1_556 S
O19 C2 1.257 . S
C20 O10 1.236 . S
C20 O11 1.257 . S
O21 Tb0 2.415 . S
O21 C9 1.239 . S
O22 Tb0 2.399 1_556 S
O22 C9 1.263 1_556 S
C23 O12 1.261 . S
C23 O13 1.257 . S
C24 C27 1.358 . S
C24 C28 1.332 1_554 S
C24 C30 1.504 1_655 S
C25 C26 1.373 . S
C25 C29 1.308 1_554 S
C26 C25 1.373 . S
C26 C27 1.429 . S
C26 H36 0.932 . S
C27 C24 1.358 . S
C27 C26 1.429 . S
C27 H37 0.930 . S
C28 C24 1.332 1_556 S
C28 C29 1.394 . S
C28 H38 0.932 . S
C29 C25 1.308 1_556 S
C29 C28 1.394 . S
C29 H39 0.929 . S
C30 Tb1 2.764 . S
C30 O14 1.239 1_554 S
C30 O15 1.263 . S
C30 C24 1.504 1_455 S
C31 O16 1.236 . S
C31 O17 1.257 . S
H32 C5 0.932 1_556 S
H33 C6 0.930 1_556 S
H34 C7 0.932 . S
H35 C8 0.929 . S
H36 C26 0.932 . S
H37 C27 0.930 . S
H38 C28 0.932 . S
H39 C29 0.929 . S
Tb40 C49 2.764 . S
Tb40 O50 2.325 1_655 S
Tb40 O53 2.303 . S
Tb40 O57 2.322 . S
Tb40 O58 2.349 1_554 S
Tb40 O61 2.415 . S
Tb40 O62 2.395 1_554 S
Tb41 O51 2.322 1_655 S
Tb41 O52 2.349 . S
Tb41 O54 2.424 . S
Tb41 O55 2.399 . S
Tb41 O56 2.325 . S
Tb41 O59 2.303 1_554 S
Tb41 C70 2.764 . S
C42 O58 1.261 . S
C42 O59 1.257 . S
C43 C46 1.358 . S
C43 C47 1.332 . S
C43 C49 1.504 1_455 S
C44 C45 1.373 . S
C44 C48 1.308 . S
C45 C44 1.373 . S
C45 C46 1.429 . S
C45 H72 0.932 1_554 S
C46 C43 1.358 . S
C46 C45 1.429 . S
C46 H73 0.930 1_554 S
C47 C43 1.332 . S
C47 C48 1.394 . S
C47 H74 0.932 . S
C48 C44 1.308 . S
C48 C47 1.394 . S
C48 H75 0.929 . S
C49 Tb40 2.764 . S
C49 C43 1.504 1_655 S
C49 O61 1.239 . S
C49 O62 1.250 1_554 S
O50 Tb40 2.325 1_455 S
O50 C60 1.236 . S
O51 Tb41 2.322 1_455 S
O51 C60 1.257 . S
O52 Tb41 2.349 . S
O52 C63 1.261 . S
O53 Tb40 2.303 . S
O53 C63 1.257 . S
O54 Tb41 2.424 . S
O54 C70 1.251 . S
O55 Tb41 2.399 . S
O55 C70 1.263 . S
O56 Tb41 2.325 . S
O56 C71 1.236 . S
O57 Tb40 2.322 . S
O57 C71 1.257 . S
O58 Tb40 2.349 1_556 S
O58 C42 1.261 . S
O59 Tb41 2.303 1_556 S
O59 C42 1.257 . S
C60 O50 1.236 . S
C60 O51 1.257 . S
O61 Tb40 2.415 . S
O61 C49 1.239 . S
O62 Tb40 2.395 1_556 S
O62 C49 1.250 1_556 S
C63 O52 1.261 . S
C63 O53 1.257 . S
C64 C67 1.358 . S
C64 C68 1.332 1_554 S
C64 C70 1.504 . S
C65 C66 1.373 . S
C65 C69 1.308 1_554 S
C66 C65 1.373 . S
C66 C67 1.429 . S
C66 H76 0.932 . S
C67 C64 1.358 . S
C67 C66 1.429 . S
C67 H77 0.930 . S
C68 C64 1.332 1_556 S
C68 C69 1.394 . S
C68 H78 0.932 . S
C69 C65 1.308 1_556 S
C69 C68 1.394 . S
C69 H79 0.929 . S
C70 Tb41 2.764 . S
C70 O54 1.251 . S
C70 O55 1.263 . S
C70 C64 1.504 . S
C71 O56 1.236 . S
C71 O57 1.257 . S
H72 C45 0.932 1_556 S
H73 C46 0.930 1_556 S
H74 C47 0.932 . S
H75 C48 0.929 . S
H76 C66 0.932 . S
H77 C67 0.930 . S
H78 C68 0.932 . S
H79 C69 0.929 . S
Tb80 C89 2.764 . S
Tb80 O90 2.325 1_455 S
Tb80 O93 2.303 . S
Tb80 O97 2.322 . S
Tb80 O98 2.349 . S
Tb80 O101 2.415 . S
Tb80 O102 2.399 . S
Tb81 O91 2.322 1_455 S
Tb81 O92 2.349 . S
Tb81 O94 2.415 . S
Tb81 O95 2.399 . S
Tb81 O96 2.325 . S
Tb81 O99 2.303 . S
Tb81 C110 2.764 . S
C82 O98 1.261 . S
C82 O99 1.257 . S
C83 C86 1.358 . S
C83 C87 1.332 . S
C83 C89 1.504 1_655 S
C84 C85 1.373 . S
C84 C88 1.308 . S
C85 C84 1.373 . S
C85 C86 1.429 . S
C85 H112 0.932 . S
C86 C83 1.358 . S
C86 C85 1.429 . S
C86 H113 0.930 . S
C87 C83 1.332 . S
C87 C88 1.394 . S
C87 H114 0.932 . S
C88 C84 1.308 . S
C88 C87 1.394 . S
C88 H115 0.929 . S
C89 Tb80 2.764 . S
C89 C83 1.504 1_455 S
C89 O101 1.239 . S
C89 O102 1.263 . S
O90 Tb80 2.325 1_655 S
O90 C100 1.236 . S
O91 Tb81 2.322 1_655 S
O91 C100 1.257 . S
O92 Tb81 2.349 . S
O92 C103 1.261 . S
O93 Tb80 2.303 . S
O93 C103 1.257 . S
O94 Tb81 2.415 . S
O94 C110 1.239 . S
O95 Tb81 2.399 . S
O95 C110 1.263 . S
O96 Tb81 2.325 . S
O96 C111 1.236 . S
O97 Tb80 2.322 . S
O97 C111 1.257 . S
O98 Tb80 2.349 . S
O98 C82 1.261 . S
O99 Tb81 2.303 . S
O99 C82 1.257 . S
C100 O90 1.236 . S
C100 O91 1.257 . S
O101 Tb80 2.415 . S
O101 C89 1.239 . S
O102 Tb80 2.399 . S
O102 C89 1.263 . S
C103 O92 1.261 . S
C103 O93 1.257 . S
C104 C107 1.358 . S
C104 C108 1.332 . S
C104 C110 1.504 . S
C105 C106 1.373 . S
C105 C109 1.308 . S
C106 C105 1.373 . S
C106 C107 1.429 . S
C106 H116 0.932 . S
C107 C104 1.358 . S
C107 C106 1.429 . S
C107 H117 0.930 . S
C108 C104 1.332 . S
C108 C109 1.394 . S
C108 H118 0.932 . S
C109 C105 1.308 . S
C109 C108 1.394 . S
C109 H119 0.929 . S
C110 Tb81 2.764 . S
C110 O94 1.239 . S
C110 O95 1.263 . S
C110 C104 1.504 . S
C111 O96 1.236 . S
C111 O97 1.257 . S
H112 C85 0.932 . S
H113 C86 0.930 . S
H114 C87 0.932 . S
H115 C88 0.929 . S
H116 C106 0.932 . S
H117 C107 0.930 . S
H118 C108 0.932 . S
H119 C109 0.929 . S
Tb120 C129 2.764 . S
Tb120 O130 2.325 . S
Tb120 O133 2.303 . S
Tb120 O137 2.322 1_655 S
Tb120 O138 2.349 . S
Tb120 O141 2.415 . S
Tb120 O142 2.399 . S
Tb121 O131 2.322 . S
Tb121 O132 2.349 . S
Tb121 O134 2.415 . S
Tb121 O135 2.399 . S
Tb121 O136 2.325 1_655 S
Tb121 O139 2.303 . S
Tb121 C150 2.764 . S
C122 O138 1.261 . S
C122 O139 1.257 . S
C123 C126 1.358 . S
C123 C127 1.332 . S
C123 C129 1.504 . S
C124 C125 1.373 . S
C124 C128 1.308 . S
C125 C124 1.373 . S
C125 C126 1.429 . S
C125 H152 0.932 . S
C126 C123 1.358 . S
C126 C125 1.429 . S
C126 H153 0.930 . S
C127 C123 1.332 . S
C127 C128 1.394 . S
C127 H154 0.932 . S
C128 C124 1.308 . S
C128 C127 1.394 . S
C128 H155 0.929 . S
C129 Tb120 2.764 . S
C129 C123 1.504 . S
C129 O141 1.239 . S
C129 O142 1.263 . S
O130 Tb120 2.325 . S
O130 C140 1.236 . S
O131 Tb121 2.322 . S
O131 C140 1.257 . S
O132 Tb121 2.349 . S
O132 C143 1.261 . S
O133 Tb120 2.303 . S
O133 C143 1.257 . S
O134 Tb121 2.415 . S
O134 C150 1.239 . S
O135 Tb121 2.399 . S
O135 C150 1.263 . S
O136 Tb121 2.325 1_455 S
O136 C151 1.236 . S
O137 Tb120 2.322 1_455 S
O137 C151 1.257 . S
O138 Tb120 2.349 . S
O138 C122 1.261 . S
O139 Tb121 2.303 . S
O139 C122 1.257 . S
C140 O130 1.236 . S
C140 O131 1.257 . S
O141 Tb120 2.415 . S
O141 C129 1.239 . S
O142 Tb120 2.399 . S
O142 C129 1.263 . S
C143 O132 1.261 . S
C143 O133 1.257 . S
C144 C147 1.358 . S
C144 C148 1.332 . S
C144 C150 1.504 1_455 S
C145 C146 1.373 . S
C145 C149 1.308 . S
C146 C145 1.373 . S
C146 C147 1.429 . S
C146 H156 0.932 . S
C147 C144 1.358 . S
C147 C146 1.429 . S
C147 H157 0.930 . S
C148 C144 1.332 . S
C148 C149 1.394 . S
C148 H158 0.932 . S
C149 C145 1.308 . S
C149 C148 1.394 . S
C149 H159 0.929 . S
C150 Tb121 2.764 . S
C150 O134 1.239 . S
C150 O135 1.263 . S
C150 C144 1.504 1_655 S
C151 O136 1.236 . S
C151 O137 1.257 . S
H152 C125 0.932 . S
H153 C126 0.930 . S
H154 C127 0.932 . S
H155 C128 0.929 . S
H156 C146 0.932 . S
H157 C147 0.930 . S
H158 C148 0.932 . S
H159 C149 0.929 . S
Tb160 C169 2.764 . S
Tb160 O170 2.325 . S
Tb160 O173 2.303 . S
Tb160 O177 2.322 . S
Tb160 O178 2.349 1_554 S
Tb160 O181 2.415 . S
Tb160 O182 2.399 1_554 S
Tb161 O171 2.322 . S
Tb161 O172 2.349 . S
Tb161 O174 2.415 1_554 S
Tb161 O175 2.399 . S
Tb161 O176 2.325 . S
Tb161 O179 2.303 1_554 S
Tb161 C190 2.764 . S
C162 O178 1.261 . S
C162 O179 1.257 . S
C163 C166 1.358 . S
C163 C167 1.332 . S
C163 C169 1.504 . S
C164 C165 1.373 . S
C164 C168 1.308 . S
C165 C164 1.373 . S
C165 C166 1.429 . S
C165 H192 0.932 1_554 S
C166 C163 1.358 . S
C166 C165 1.429 . S
C166 H193 0.930 1_554 S
C167 C163 1.332 . S
C167 C168 1.394 . S
C167 H194 0.932 . S
C168 C164 1.308 . S
C168 C167 1.394 . S
C168 H195 0.929 . S
C169 Tb160 2.764 . S
C169 C163 1.504 . S
C169 O181 1.239 . S
C169 O182 1.263 1_554 S
O170 Tb160 2.325 . S
O170 C180 1.236 . S
O171 Tb161 2.322 . S
O171 C180 1.257 . S
O172 Tb161 2.349 . S
O172 C183 1.261 . S
O173 Tb160 2.303 . S
O173 C183 1.257 . S
O174 Tb161 2.415 1_556 S
O174 C190 1.239 1_556 S
O175 Tb161 2.399 . S
O175 C190 1.263 . S
O176 Tb161 2.325 . S
O176 C191 1.236 . S
O177 Tb160 2.322 . S
O177 C191 1.257 . S
O178 Tb160 2.349 1_556 S
O178 C162 1.261 . S
O179 Tb161 2.303 1_556 S
O179 C162 1.257 . S
C180 O170 1.236 . S
C180 O171 1.257 . S
O181 Tb160 2.415 . S
O181 C169 1.239 . S
O182 Tb160 2.399 1_556 S
O182 C169 1.263 1_556 S
C183 O172 1.261 . S
C183 O173 1.257 . S
C184 C187 1.358 . S
C184 C188 1.332 1_554 S
C184 C190 1.504 . S
C185 C186 1.373 . S
C185 C189 1.308 1_554 S
C186 C185 1.373 . S
C186 C187 1.429 . S
C186 H196 0.932 . S
C187 C184 1.358 . S
C187 C186 1.429 . S
C187 H197 0.930 . S
C188 C184 1.332 1_556 S
C188 C189 1.394 . S
C188 H198 0.932 . S
C189 C185 1.308 1_556 S
C189 C188 1.394 . S
C189 H199 0.929 . S
C190 Tb161 2.764 . S
C190 O174 1.239 1_554 S
C190 O175 1.263 . S
C190 C184 1.504 . S
C191 O176 1.236 . S
C191 O177 1.257 . S
H192 C165 0.932 1_556 S
H193 C166 0.930 1_556 S
H194 C167 0.932 . S
H195 C168 0.929 . S
H196 C186 0.932 . S
H197 C187 0.930 . S
H198 C188 0.932 . S
H199 C189 0.929 . S
Tb200 C209 2.764 . S
Tb200 O210 2.325 . S
Tb200 O213 2.303 . S
Tb200 O217 2.322 . S
Tb200 O218 2.349 1_554 S
Tb200 O221 2.415 . S
Tb200 O222 2.395 1_554 S
Tb201 O211 2.322 . S
Tb201 O212 2.349 . S
Tb201 O214 2.425 . S
Tb201 O215 2.399 . S
Tb201 O216 2.325 . S
Tb201 O219 2.303 1_554 S
Tb201 C230 2.764 . S
C202 O218 1.261 . S
C202 O219 1.257 . S
C203 C206 1.358 . S
C203 C207 1.332 . S
C203 C209 1.504 . S
C204 C205 1.373 . S
C204 C208 1.308 . S
C205 C204 1.373 . S
C205 C206 1.429 . S
C205 H232 0.932 1_554 S
C206 C203 1.358 . S
C206 C205 1.429 . S
C206 H233 0.930 1_554 S
C207 C203 1.332 . S
C207 C208 1.394 . S
C207 H234 0.932 . S
C208 C204 1.308 . S
C208 C207 1.394 . S
C208 H235 0.929 . S
C209 Tb200 2.764 . S
C209 C203 1.504 . S
C209 O221 1.239 . S
C209 O222 1.250 1_554 S
O210 Tb200 2.325 . S
O210 C220 1.236 . S
O211 Tb201 2.322 . S
O211 C220 1.257 . S
O212 Tb201 2.349 . S
O212 C223 1.261 . S
O213 Tb200 2.303 . S
O213 C223 1.257 . S
O214 Tb201 2.425 . S
O214 C230 1.252 . S
O215 Tb201 2.399 . S
O215 C230 1.263 . S
O216 Tb201 2.325 . S
O216 C231 1.236 . S
O217 Tb200 2.322 . S
O217 C231 1.257 . S
O218 Tb200 2.349 1_556 S
O218 C202 1.261 . S
O219 Tb201 2.303 1_556 S
O219 C202 1.257 . S
C220 O210 1.236 . S
C220 O211 1.257 . S
O221 Tb200 2.415 . S
O221 C209 1.239 . S
O222 Tb200 2.395 1_556 S
O222 C209 1.250 1_556 S
C223 O212 1.261 . S
C223 O213 1.257 . S
C224 C227 1.358 . S
C224 C228 1.332 1_554 S
C224 C230 1.504 . S
C225 C226 1.373 . S
C225 C229 1.308 1_554 S
C226 C225 1.373 . S
C226 C227 1.429 . S
C226 H236 0.932 . S
C227 C224 1.358 . S
C227 C226 1.429 . S
C227 H237 0.930 . S
C228 C224 1.332 1_556 S
C228 C229 1.394 . S
C228 H238 0.932 . S
C229 C225 1.308 1_556 S
C229 C228 1.394 . S
C229 H239 0.929 . S
C230 Tb201 2.764 . S
C230 O214 1.252 . S
C230 O215 1.263 . S
C230 C224 1.504 . S
C231 O216 1.236 . S
C231 O217 1.257 . S
H232 C205 0.932 1_556 S
H233 C206 0.930 1_556 S
H234 C207 0.932 . S
H235 C208 0.929 . S
H236 C226 0.932 . S
H237 C227 0.930 . S
H238 C228 0.932 . S
H239 C229 0.929 . S
Tb240 C249 2.764 . S
Tb240 O250 2.325 . S
Tb240 O253 2.303 . S
Tb240 O257 2.322 . S
Tb240 O258 2.349 . S
Tb240 O261 2.415 . S
Tb240 O262 2.399 . S
Tb241 O251 2.322 . S
Tb241 O252 2.349 . S
Tb241 O254 2.415 . S
Tb241 O255 2.399 . S
Tb241 O256 2.325 . S
Tb241 O259 2.303 . S
Tb241 C270 2.764 . S
C242 O258 1.261 . S
C242 O259 1.257 . S
C243 C246 1.358 . S
C243 C247 1.332 . S
C243 C249 1.504 . S
C244 C245 1.373 . S
C244 C248 1.308 . S
C245 C244 1.373 . S
C245 C246 1.429 . S
C245 H272 0.932 . S
C246 C243 1.358 . S
C246 C245 1.429 . S
C246 H273 0.930 . S
C247 C243 1.332 . S
C247 C248 1.394 . S
C247 H274 0.932 . S
C248 C244 1.308 . S
C248 C247 1.394 . S
C248 H275 0.929 . S
C249 Tb240 2.764 . S
C249 C243 1.504 . S
C249 O261 1.239 . S
C249 O262 1.263 . S
O250 Tb240 2.325 . S
O250 C260 1.236 . S
O251 Tb241 2.322 . S
O251 C260 1.257 . S
O252 Tb241 2.349 . S
O252 C263 1.261 . S
O253 Tb240 2.303 . S
O253 C263 1.257 . S
O254 Tb241 2.415 . S
O254 C270 1.239 . S
O255 Tb241 2.399 . S
O255 C270 1.263 . S
O256 Tb241 2.325 . S
O256 C271 1.236 . S
O257 Tb240 2.322 . S
O257 C271 1.257 . S
O258 Tb240 2.349 . S
O258 C242 1.261 . S
O259 Tb241 2.303 . S
O259 C242 1.257 . S
C260 O250 1.236 . S
C260 O251 1.257 . S
O261 Tb240 2.415 . S
O261 C249 1.239 . S
O262 Tb240 2.399 . S
O262 C249 1.263 . S
C263 O252 1.261 . S
C263 O253 1.257 . S
C264 C267 1.358 . S
C264 C268 1.332 . S
C264 C270 1.504 . S
C265 C266 1.373 . S
C265 C269 1.308 . S
C266 C265 1.373 . S
C266 C267 1.429 . S
C266 H276 0.932 . S
C267 C264 1.358 . S
C267 C266 1.429 . S
C267 H277 0.930 . S
C268 C264 1.332 . S
C268 C269 1.394 . S
C268 H278 0.932 . S
C269 C265 1.308 . S
C269 C268 1.394 . S
C269 H279 0.929 . S
C270 Tb241 2.764 . S
C270 O254 1.239 . S
C270 O255 1.263 . S
C270 C264 1.504 . S
C271 O256 1.236 . S
C271 O257 1.257 . S
H272 C245 0.932 . S
H273 C246 0.930 . S
H274 C247 0.932 . S
H275 C248 0.929 . S
H276 C266 0.932 . S
H277 C267 0.930 . S
H278 C268 0.932 . S
H279 C269 0.929 . S
Tb280 C289 2.764 . S
Tb280 O290 2.325 . S
Tb280 O293 2.303 . S
Tb280 O297 2.322 . S
Tb280 O298 2.349 . S
Tb280 O301 2.415 . S
Tb280 O302 2.399 . S
Tb281 O291 2.322 . S
Tb281 O292 2.349 . S
Tb281 O294 2.415 . S
Tb281 O295 2.399 . S
Tb281 O296 2.325 . S
Tb281 O299 2.303 . S
Tb281 C310 2.764 . S
C282 O298 1.261 . S
C282 O299 1.257 . S
C283 C286 1.358 . S
C283 C287 1.332 . S
C283 C289 1.504 . S
C284 C285 1.373 . S
C284 C288 1.308 . S
C285 C284 1.373 . S
C285 C286 1.429 . S
C285 H312 0.932 . S
C286 C283 1.358 . S
C286 C285 1.429 . S
C286 H313 0.930 . S
C287 C283 1.332 . S
C287 C288 1.394 . S
C287 H314 0.932 . S
C288 C284 1.308 . S
C288 C287 1.394 . S
C288 H315 0.929 . S
C289 Tb280 2.764 . S
C289 C283 1.504 . S
C289 O301 1.239 . S
C289 O302 1.263 . S
O290 Tb280 2.325 . S
O290 C300 1.236 . S
O291 Tb281 2.322 . S
O291 C300 1.257 . S
O292 Tb281 2.349 . S
O292 C303 1.261 . S
O293 Tb280 2.303 . S
O293 C303 1.257 . S
O294 Tb281 2.415 . S
O294 C310 1.239 . S
O295 Tb281 2.399 . S
O295 C310 1.263 . S
O296 Tb281 2.325 . S
O296 C311 1.236 . S
O297 Tb280 2.322 . S
O297 C311 1.257 . S
O298 Tb280 2.349 . S
O298 C282 1.261 . S
O299 Tb281 2.303 . S
O299 C282 1.257 . S
C300 O290 1.236 . S
C300 O291 1.257 . S
O301 Tb280 2.415 . S
O301 C289 1.239 . S
O302 Tb280 2.399 . S
O302 C289 1.263 . S
C303 O292 1.261 . S
C303 O293 1.257 . S
C304 C307 1.358 . S
C304 C308 1.332 . S
C304 C310 1.504 . S
C305 C306 1.373 . S
C305 C309 1.308 . S
C306 C305 1.373 . S
C306 C307 1.429 . S
C306 H316 0.932 . S
C307 C304 1.358 . S
C307 C306 1.429 . S
C307 H317 0.930 . S
C308 C304 1.332 . S
C308 C309 1.394 . S
C308 H318 0.932 . S
C309 C305 1.308 . S
C309 C308 1.394 . S
C309 H319 0.929 . S
C310 Tb281 2.764 . S
C310 O294 1.239 . S
C310 O295 1.263 . S
C310 C304 1.504 . S
C311 O296 1.236 . S
C311 O297 1.257 . S
H312 C285 0.932 . S
H313 C286 0.930 . S
H314 C287 0.932 . S
H315 C288 0.929 . S
H316 C306 0.932 . S
H317 C307 0.930 . S
H318 C308 0.932 . S
H319 C309 0.929 . S
H320 C338 0.951 . S
H321 C340 0.951 . S
H322 C342 0.950 . S
H323 C343 0.950 . S
H324 C345 0.950 . S
H325 C348 0.950 . S
H326 C349 0.950 . S
H327 C351 0.950 . S
H328 C352 0.950 . S
H329 C353 0.951 . S
H330 C355 0.951 . S
H331 C357 0.950 . S
H332 C358 0.962 . S
H333 C360 0.950 . S
H334 C363 0.953 . S
H335 C364 0.950 . S
H336 C366 0.950 . S
H337 C367 0.950 . S
C338 H320 0.951 . S
C338 C339 1.366 1_556 S
C338 C340 1.388 . S
C339 C338 1.366 1_554 S
C339 C343 1.385 . S
C340 H321 0.951 . S
C340 C338 1.388 . S
C340 C341 1.366 1_556 S
C341 C340 1.366 1_554 S
C341 C342 1.414 . S
C341 C344 1.499 . S
C342 H322 0.950 . S
C342 C341 1.414 . S
C342 C343 1.374 . S
C343 H323 0.950 . S
C343 C339 1.385 . S
C343 C342 1.374 . S
C344 C341 1.499 . S
C344 C345 1.373 . S
C344 C346 1.389 . S
C345 H324 0.950 . S
C345 C344 1.373 . S
C345 C361 1.377 . S
C346 C344 1.389 . S
C346 C347 1.524 . S
C346 C360 1.377 . S
C347 C346 1.524 . S
C347 C348 1.397 . S
C347 C352 1.363 1_554 S
C348 H325 0.950 . S
C348 C347 1.397 . S
C348 C349 1.334 . S
C349 H326 0.950 . S
C349 C348 1.334 . S
C349 C350 1.287 . S
C350 C349 1.287 . S
C350 C351 1.524 1_554 S
C350 H369 0.913 . S
C351 H327 0.950 . S
C351 C350 1.524 1_556 S
C351 C352 1.415 . S
C352 H328 0.950 . S
C352 C347 1.363 1_556 S
C352 C351 1.415 . S
C353 H329 0.951 . S
C353 C354 1.366 . S
C353 C355 1.388 . S
C354 C353 1.366 . S
C354 C358 1.369 1_554 S
C355 H330 0.951 . S
C355 C353 1.388 . S
C355 C356 1.366 . S
C356 C355 1.366 . S
C356 C357 1.414 1_554 S
C356 C359 1.499 . S
C357 H331 0.950 . S
C357 C356 1.414 1_556 S
C357 C358 1.378 . S
C358 H332 0.962 . S
C358 C354 1.369 1_556 S
C358 C357 1.378 . S
C359 C356 1.499 . S
C359 C360 1.373 . S
C359 C361 1.389 . S
C360 H333 0.950 . S
C360 C346 1.377 . S
C360 C359 1.373 . S
C361 C345 1.377 . S
C361 C359 1.389 . S
C361 C362 1.524 . S
C362 C361 1.524 . S
C362 C363 1.393 1_554 S
C362 C367 1.363 . S
C363 H334 0.953 . S
C363 C362 1.393 1_556 S
C363 C364 1.334 . S
C364 H335 0.950 . S
C364 C363 1.334 . S
C364 C365 1.287 1_556 S
C365 C364 1.287 1_554 S
C365 C366 1.524 . S
C365 H368 0.999 . S
C366 H336 0.950 . S
C366 C365 1.524 . S
C366 C367 1.415 . S
C367 H337 0.950 . S
C367 C362 1.363 . S
C367 C366 1.415 . S
H368 C365 0.999 . S
H369 C350 0.913 . S
H370 C388 0.951 . S
H371 C390 0.951 . S
H372 C392 0.950 . S
H373 C393 0.950 . S
H374 C395 0.963 . S
H375 C398 0.950 . S
H376 C399 0.950 . S
H377 C401 0.950 . S
H378 C402 0.950 . S
H379 C403 0.968 . S
H380 C405 0.978 . S
H381 C407 0.950 . S
H382 C408 0.950 . S
H383 C410 0.950 . S
H384 C413 0.950 . S
H385 C414 0.950 . S
H386 C416 0.950 . S
H387 C417 0.950 . S
C388 H370 0.951 . S
C388 C389 1.366 . S
C388 C390 1.388 . S
C389 C388 1.366 . S
C389 C393 1.385 1_554 S
C390 H371 0.951 . S
C390 C388 1.388 . S
C390 C391 1.366 . S
C391 C390 1.366 . S
C391 C392 1.414 1_554 S
C391 C394 1.499 . S
C392 H372 0.950 . S
C392 C391 1.414 1_556 S
C392 C393 1.374 . S
C393 H373 0.950 . S
C393 C389 1.385 1_556 S
C393 C392 1.374 . S
C394 C391 1.499 . S
C394 C395 1.373 . S
C394 C396 1.389 . S
C395 H374 0.963 . S
C395 C394 1.373 . S
C395 C411 1.377 . S
C396 C394 1.389 . S
C396 C397 1.524 . S
C396 C410 1.377 . S
C397 C396 1.524 . S
C397 C398 1.397 . S
C397 C402 1.363 . S
C398 H375 0.950 . S
C398 C397 1.397 . S
C398 C399 1.334 . S
C399 H376 0.950 . S
C399 C398 1.334 . S
C399 C400 1.287 . S
C400 C399 1.287 . S
C400 C401 1.524 . S
C400 H419 0.913 . S
C401 H377 0.950 . S
C401 C400 1.524 . S
C401 C402 1.415 . S
C402 H378 0.950 . S
C402 C397 1.363 . S
C402 C401 1.415 . S
C403 H379 0.968 . S
C403 C404 1.346 1_556 S
C403 C405 1.387 . S
C404 C403 1.346 1_554 S
C404 C408 1.385 . S
C405 H380 0.978 . S
C405 C403 1.387 . S
C405 C406 1.344 1_556 S
C406 C405 1.344 1_554 S
C406 C407 1.414 . S
C406 C409 1.499 . S
C407 H381 0.950 . S
C407 C406 1.414 . S
C407 C408 1.374 . S
C408 H382 0.950 . S
C408 C404 1.385 . S
C408 C407 1.374 . S
C409 C406 1.499 . S
C409 C410 1.373 . S
C409 C411 1.389 . S
C410 H383 0.950 . S
C410 C396 1.377 . S
C410 C409 1.373 . S
C411 C395 1.377 . S
C411 C409 1.389 . S
C411 C412 1.529 . S
C412 C411 1.529 . S
C412 C413 1.411 . S
C412 C417 1.345 1_554 S
C413 H384 0.950 . S
C413 C412 1.411 . S
C413 C414 1.334 . S
C414 H385 0.950 . S
C414 C413 1.334 . S
C414 C415 1.287 1_554 S
C415 C414 1.287 1_556 S
C415 C416 1.524 . S
C415 H418 0.999 . S
C416 H386 0.950 . S
C416 C415 1.524 . S
C416 C417 1.415 . S
C417 H387 0.950 . S
C417 C412 1.345 1_556 S
C417 C416 1.415 . S
H418 C415 0.999 . S
H419 C400 0.913 . S
H420 C438 0.951 . S
H421 C440 0.951 . S
H422 C442 0.950 . S
H423 C443 0.950 . S
H424 C445 0.950 . S
H425 C448 0.950 . S
H426 C449 0.950 . S
H427 C451 0.950 . S
H428 C452 0.950 . S
H429 C453 0.951 . S
H430 C455 0.951 . S
H431 C457 0.950 . S
H432 C458 0.950 . S
H433 C460 0.950 . S
H434 C463 0.950 . S
H435 C464 0.950 . S
H436 C466 0.950 . S
H437 C467 0.950 . S
C438 H420 0.951 . S
C438 C439 1.366 . S
C438 C440 1.388 . S
C439 C438 1.366 . S
C439 C443 1.385 . S
C440 H421 0.951 . S
C440 C438 1.388 . S
C440 C441 1.366 . S
C441 C440 1.366 . S
C441 C442 1.414 . S
C441 C444 1.499 . S
C442 H422 0.950 . S
C442 C441 1.414 . S
C442 C443 1.374 . S
C443 H423 0.950 . S
C443 C439 1.385 . S
C443 C442 1.374 . S
C444 C441 1.499 . S
C444 C445 1.373 . S
C444 C446 1.389 . S
C445 H424 0.950 . S
C445 C444 1.373 . S
C445 C461 1.377 . S
C446 C444 1.389 . S
C446 C447 1.524 . S
C446 C460 1.377 . S
C447 C446 1.524 . S
C447 C448 1.397 . S
C447 C452 1.363 . S
C448 H425 0.950 . S
C448 C447 1.397 . S
C448 C449 1.334 . S
C449 H426 0.950 . S
C449 C448 1.334 . S
C449 C450 1.287 . S
C450 C449 1.287 . S
C450 C451 1.524 . S
C450 H469 0.913 . S
C451 H427 0.950 . S
C451 C450 1.524 . S
C451 C452 1.415 . S
C452 H428 0.950 . S
C452 C447 1.363 . S
C452 C451 1.415 . S
C453 H429 0.951 . S
C453 C454 1.366 . S
C453 C455 1.388 . S
C454 C453 1.366 . S
C454 C458 1.385 . S
C455 H430 0.951 . S
C455 C453 1.388 . S
C455 C456 1.366 . S
C456 C455 1.366 . S
C456 C457 1.414 . S
C456 C459 1.499 . S
C457 H431 0.950 . S
C457 C456 1.414 . S
C457 C458 1.374 . S
C458 H432 0.950 . S
C458 C454 1.385 . S
C458 C457 1.374 . S
C459 C456 1.499 . S
C459 C460 1.373 . S
C459 C461 1.389 . S
C460 H433 0.950 . S
C460 C446 1.377 . S
C460 C459 1.373 . S
C461 C445 1.377 . S
C461 C459 1.389 . S
C461 C462 1.524 . S
C462 C461 1.524 . S
C462 C463 1.397 . S
C462 C467 1.363 . S
C463 H434 0.950 . S
C463 C462 1.397 . S
C463 C464 1.334 . S
C464 H435 0.950 . S
C464 C463 1.334 . S
C464 C465 1.287 . S
C465 C464 1.287 . S
C465 C466 1.524 . S
C465 H468 0.999 . S
C466 H436 0.950 . S
C466 C465 1.524 . S
C466 C467 1.415 . S
C467 H437 0.950 . S
C467 C462 1.363 . S
C467 C466 1.415 . S
H468 C465 0.999 . S
H469 C450 0.913 . S
H470 C488 0.951 . S
H471 C490 0.951 . S
H472 C492 0.950 . S
H473 C493 0.950 . S
H474 C495 0.950 . S
H475 C498 0.950 . S
H476 C499 0.950 . S
H477 C501 0.950 . S
H478 C502 0.950 . S
H479 C503 0.951 . S
H480 C505 0.951 . S
H481 C507 0.950 . S
H482 C508 0.950 . S
H483 C510 0.950 . S
H484 C513 0.950 . S
H485 C514 0.950 . S
H486 C516 0.950 . S
H487 C517 0.950 . S
C488 H470 0.951 . S
C488 C489 1.366 . S
C488 C490 1.388 . S
C489 C488 1.366 . S
C489 C493 1.385 . S
C490 H471 0.951 . S
C490 C488 1.388 . S
C490 C491 1.366 . S
C491 C490 1.366 . S
C491 C492 1.414 . S
C491 C494 1.499 . S
C492 H472 0.950 . S
C492 C491 1.414 . S
C492 C493 1.374 . S
C493 H473 0.950 . S
C493 C489 1.385 . S
C493 C492 1.374 . S
C494 C491 1.499 . S
C494 C495 1.373 . S
C494 C496 1.389 . S
C495 H474 0.950 . S
C495 C494 1.373 . S
C495 C511 1.377 . S
C496 C494 1.389 . S
C496 C497 1.524 . S
C496 C510 1.377 . S
C497 C496 1.524 . S
C497 C498 1.397 . S
C497 C502 1.363 . S
C498 H475 0.950 . S
C498 C497 1.397 . S
C498 C499 1.334 . S
C499 H476 0.950 . S
C499 C498 1.334 . S
C499 C500 1.287 . S
C500 C499 1.287 . S
C500 C501 1.524 . S
C500 H519 0.913 . S
C501 H477 0.950 . S
C501 C500 1.524 . S
C501 C502 1.415 . S
C502 H478 0.950 . S
C502 C497 1.363 . S
C502 C501 1.415 . S
C503 H479 0.951 . S
C503 C504 1.366 . S
C503 C505 1.388 . S
C504 C503 1.366 . S
C504 C508 1.385 . S
C505 H480 0.951 . S
C505 C503 1.388 . S
C505 C506 1.366 . S
C506 C505 1.366 . S
C506 C507 1.414 . S
C506 C509 1.499 . S
C507 H481 0.950 . S
C507 C506 1.414 . S
C507 C508 1.374 . S
C508 H482 0.950 . S
C508 C504 1.385 . S
C508 C507 1.374 . S
C509 C506 1.499 . S
C509 C510 1.373 . S
C509 C511 1.389 . S
C510 H483 0.950 . S
C510 C496 1.377 . S
C510 C509 1.373 . S
C511 C495 1.377 . S
C511 C509 1.389 . S
C511 C512 1.524 . S
C512 C511 1.524 . S
C512 C513 1.397 . S
C512 C517 1.363 . S
C513 H484 0.950 . S
C513 C512 1.397 . S
C513 C514 1.334 . S
C514 H485 0.950 . S
C514 C513 1.334 . S
C514 C515 1.287 . S
C515 C514 1.287 . S
C515 C516 1.524 . S
C515 H518 0.999 . S
C516 H486 0.950 . S
C516 C515 1.524 . S
C516 C517 1.415 . S
C517 H487 0.950 . S
C517 C512 1.363 . S
C517 C516 1.415 . S
H518 C515 0.999 . S
H519 C500 0.913 . S
H520 C538 0.951 . S
H521 C540 0.951 . S
H522 C542 0.950 . S
H523 C543 0.950 . S
H524 C545 0.950 1_655 S
H525 C548 0.950 1_554 S
H526 C549 0.950 . S
H527 C551 0.950 . S
H528 C552 0.950 . S
H529 C553 0.951 . S
H530 C555 0.951 . S
H531 C557 0.950 . S
H532 C558 0.950 . S
H533 C560 0.952 . S
H534 C563 0.950 . S
H535 C564 0.950 . S
H536 C566 0.950 . S
H537 C567 0.950 . S
C538 H520 0.951 . S
C538 C539 1.366 1_556 S
C538 C540 1.388 . S
C539 C538 1.366 1_554 S
C539 C543 1.385 . S
C540 H521 0.951 . S
C540 C538 1.388 . S
C540 C541 1.366 1_556 S
C541 C540 1.366 1_554 S
C541 C542 1.414 . S
C541 C544 1.499 . S
C542 H522 0.950 . S
C542 C541 1.414 . S
C542 C543 1.374 . S
C543 H523 0.950 . S
C543 C539 1.385 . S
C543 C542 1.374 . S
C544 C541 1.499 . S
C544 C545 1.373 1_655 S
C544 C546 1.394 1_655 S
C545 H524 0.950 1_455 S
C545 C544 1.373 1_455 S
C545 C561 1.377 . S
C546 C544 1.394 1_455 S
C546 C547 1.519 1_554 S
C546 C560 1.378 1_554 S
C547 C546 1.519 1_556 S
C547 C548 1.397 1_455 S
C547 C552 1.363 . S
C548 H525 0.950 1_556 S
C548 C547 1.397 1_655 S
C548 C549 1.334 . S
C549 H526 0.950 . S
C549 C548 1.334 . S
C549 C550 1.287 . S
C550 C549 1.287 . S
C550 C551 1.524 1_655 S
C550 H569 0.913 . S
C551 H527 0.950 . S
C551 C550 1.524 1_455 S
C551 C552 1.415 . S
C552 H528 0.950 . S
C552 C547 1.363 . S
C552 C551 1.415 . S
C553 H529 0.951 . S
C553 C554 1.366 . S
C553 C555 1.388 . S
C554 C553 1.366 . S
C554 C558 1.385 1_554 S
C555 H530 0.951 . S
C555 C553 1.388 . S
C555 C556 1.366 . S
C556 C555 1.366 . S
C556 C557 1.414 1_554 S
C556 C559 1.499 . S
C557 H531 0.950 . S
C557 C556 1.414 1_556 S
C557 C558 1.374 . S
C558 H532 0.950 . S
C558 C554 1.385 1_556 S
C558 C557 1.374 . S
C559 C556 1.499 . S
C559 C560 1.371 1_554 S
C559 C561 1.389 . S
C560 H533 0.952 . S
C560 C546 1.378 1_556 S
C560 C559 1.371 1_556 S
C561 C545 1.377 . S
C561 C559 1.389 . S
C561 C562 1.524 . S
C562 C561 1.524 . S
C562 C563 1.397 . S
C562 C567 1.363 . S
C563 H534 0.950 . S
C563 C562 1.397 . S
C563 C564 1.334 . S
C564 H535 0.950 . S
C564 C563 1.334 . S
C564 C565 1.287 . S
C565 C564 1.287 . S
C565 C566 1.524 . S
C565 H568 0.999 . S
C566 H536 0.950 . S
C566 C565 1.524 . S
C566 C567 1.415 . S
C567 H537 0.950 . S
C567 C562 1.363 . S
C567 C566 1.415 . S
H568 C565 0.999 . S
H569 C550 0.913 . S
H570 C588 0.951 . S
H571 C590 0.951 . S
H572 C592 0.950 1_556 S
H573 C593 0.950 1_556 S
H574 C595 0.950 1_455 S
H575 C598 0.950 . S
H576 C599 0.950 . S
H577 C601 0.950 . S
H578 C602 0.950 . S
H579 C603 0.979 . S
H580 C605 0.971 . S
H581 C607 0.950 . S
H582 C608 0.950 . S
H583 C610 0.950 . S
H584 C613 0.950 . S
H585 C614 0.950 . S
H586 C616 0.950 . S
H587 C617 0.950 . S
C588 H570 0.951 . S
C588 C589 1.366 . S
C588 C590 1.388 . S
C589 C588 1.366 . S
C589 C593 1.385 . S
C590 H571 0.951 . S
C590 C588 1.388 . S
C590 C591 1.366 . S
C591 C590 1.366 . S
C591 C592 1.414 . S
C591 C594 1.499 . S
C592 H572 0.950 1_554 S
C592 C591 1.414 . S
C592 C593 1.374 . S
C593 H573 0.950 1_554 S
C593 C589 1.385 . S
C593 C592 1.374 . S
C594 C591 1.499 . S
C594 C595 1.373 1_454 S
C594 C596 1.389 1_455 S
C595 H574 0.950 1_655 S
C595 C594 1.373 1_656 S
C595 C611 1.377 . S
C596 C594 1.389 1_655 S
C596 C597 1.524 . S
C596 C610 1.377 . S
C597 C596 1.524 . S
C597 C598 1.397 1_655 S
C597 C602 1.363 . S
C598 H575 0.950 . S
C598 C597 1.397 1_455 S
C598 C599 1.334 . S
C599 H576 0.950 . S
C599 C598 1.334 . S
C599 C600 1.287 . S
C600 C599 1.287 . S
C600 C601 1.524 1_455 S
C600 H619 0.913 . S
C601 H577 0.950 . S
C601 C600 1.524 1_655 S
C601 C602 1.415 . S
C602 H578 0.950 . S
C602 C597 1.363 . S
C602 C601 1.415 . S
C603 H579 0.979 . S
C603 C604 1.344 1_556 S
C603 C605 1.387 . S
C604 C603 1.344 1_554 S
C604 C608 1.385 . S
C605 H580 0.971 . S
C605 C603 1.387 . S
C605 C606 1.341 1_556 S
C606 C605 1.341 1_554 S
C606 C607 1.414 . S
C606 C609 1.499 . S
C607 H581 0.950 . S
C607 C606 1.414 . S
C607 C608 1.374 . S
C608 H582 0.950 . S
C608 C604 1.385 . S
C608 C607 1.374 . S
C609 C606 1.499 . S
C609 C610 1.373 . S
C609 C611 1.389 1_554 S
C610 H583 0.950 . S
C610 C596 1.377 . S
C610 C609 1.373 . S
C611 C595 1.377 . S
C611 C609 1.389 1_556 S
C611 C612 1.524 . S
C612 C611 1.524 . S
C612 C613 1.397 . S
C612 C617 1.363 . S
C613 H584 0.950 . S
C613 C612 1.397 . S
C613 C614 1.334 . S
C614 H585 0.950 . S
C614 C613 1.334 . S
C614 C615 1.287 . S
C615 C614 1.287 . S
C615 C616 1.524 . S
C615 H618 0.999 . S
C616 H586 0.950 . S
C616 C615 1.524 . S
C616 C617 1.415 . S
C617 H587 0.950 . S
C617 C612 1.363 . S
C617 C616 1.415 . S
H618 C615 0.999 . S
H619 C600 0.913 . S
H620 C638 0.951 . S
H621 C640 0.951 . S
H622 C642 0.950 . S
H623 C643 0.950 . S
H624 C645 0.950 . S
H625 C648 0.950 . S
H626 C649 0.950 . S
H627 C651 0.950 . S
H628 C652 0.950 . S
H629 C653 0.951 . S
H630 C655 0.951 . S
H631 C657 0.950 . S
H632 C658 0.950 . S
H633 C660 0.950 . S
H634 C663 0.950 . S
H635 C664 0.950 . S
H636 C666 0.950 . S
H637 C667 0.950 1_455 S
C638 H620 0.951 . S
C638 C639 1.366 . S
C638 C640 1.388 . S
C639 C638 1.366 . S
C639 C643 1.385 . S
C640 H621 0.951 . S
C640 C638 1.388 . S
C640 C641 1.366 . S
C641 C640 1.366 . S
C641 C642 1.414 . S
C641 C644 1.499 . S
C642 H622 0.950 . S
C642 C641 1.414 . S
C642 C643 1.374 . S
C643 H623 0.950 . S
C643 C639 1.385 . S
C643 C642 1.374 . S
C644 C641 1.499 . S
C644 C645 1.373 . S
C644 C646 1.389 . S
C645 H624 0.950 . S
C645 C644 1.373 . S
C645 C661 1.377 . S
C646 C644 1.389 . S
C646 C647 1.524 . S
C646 C660 1.377 . S
C647 C646 1.524 . S
C647 C648 1.397 . S
C647 C652 1.363 . S
C648 H625 0.950 . S
C648 C647 1.397 . S
C648 C649 1.334 . S
C649 H626 0.950 . S
C649 C648 1.334 . S
C649 C650 1.287 . S
C650 C649 1.287 . S
C650 C651 1.524 . S
C650 H669 0.913 . S
C651 H627 0.950 . S
C651 C650 1.524 . S
C651 C652 1.415 . S
C652 H628 0.950 . S
C652 C647 1.363 . S
C652 C651 1.415 . S
C653 H629 0.951 . S
C653 C654 1.366 . S
C653 C655 1.388 . S
C654 C653 1.366 . S
C654 C658 1.385 . S
C655 H630 0.951 . S
C655 C653 1.388 . S
C655 C656 1.366 . S
C656 C655 1.366 . S
C656 C657 1.414 . S
C656 C659 1.499 . S
C657 H631 0.950 . S
C657 C656 1.414 . S
C657 C658 1.374 . S
C658 H632 0.950 . S
C658 C654 1.385 . S
C658 C657 1.374 . S
C659 C656 1.499 . S
C659 C660 1.373 1_655 S
C659 C661 1.389 1_655 S
C660 H633 0.950 . S
C660 C646 1.377 . S
C660 C659 1.373 1_455 S
C661 C645 1.377 . S
C661 C659 1.389 1_455 S
C661 C662 1.524 1_455 S
C662 C661 1.524 1_655 S
C662 C663 1.397 . S
C662 C667 1.363 . S
C663 H634 0.950 . S
C663 C662 1.397 . S
C663 C664 1.334 . S
C664 H635 0.950 . S
C664 C663 1.334 . S
C664 C665 1.287 . S
C665 C664 1.287 . S
C665 C666 1.524 . S
C665 H668 0.999 . S
C666 H636 0.950 . S
C666 C665 1.524 . S
C666 C667 1.415 . S
C667 H637 0.950 1_655 S
C667 C662 1.363 . S
C667 C666 1.415 . S
H668 C665 0.999 . S
H669 C650 0.913 . S
H670 C688 0.951 . S
H671 C690 0.951 . S
H672 C692 0.950 . S
H673 C693 0.950 . S
H674 C695 0.950 . S
H675 C698 0.950 . S
H676 C699 0.950 . S
H677 C701 0.950 . S
H678 C702 0.950 . S
H679 C703 0.951 . S
H680 C705 0.951 . S
H681 C707 0.950 . S
H682 C708 0.950 . S
H683 C710 0.950 . S
H684 C713 0.950 . S
H685 C714 0.950 . S
H686 C716 0.950 . S
H687 C717 0.950 . S
C688 H670 0.951 . S
C688 C689 1.366 . S
C688 C690 1.388 . S
C689 C688 1.366 . S
C689 C693 1.385 . S
C690 H671 0.951 . S
C690 C688 1.388 . S
C690 C691 1.366 . S
C691 C690 1.366 . S
C691 C692 1.414 . S
C691 C694 1.499 . S
C692 H672 0.950 . S
C692 C691 1.414 . S
C692 C693 1.374 . S
C693 H673 0.950 . S
C693 C689 1.385 . S
C693 C692 1.374 . S
C694 C691 1.499 . S
C694 C695 1.373 . S
C694 C696 1.389 . S
C695 H674 0.950 . S
C695 C694 1.373 . S
C695 C711 1.377 . S
C696 C694 1.389 . S
C696 C697 1.524 . S
C696 C710 1.377 . S
C697 C696 1.524 . S
C697 C698 1.397 . S
C697 C702 1.363 . S
C698 H675 0.950 . S
C698 C697 1.397 . S
C698 C699 1.334 . S
C699 H676 0.950 . S
C699 C698 1.334 . S
C699 C700 1.287 . S
C700 C699 1.287 . S
C700 C701 1.524 . S
C700 H719 0.913 . S
C701 H677 0.950 . S
C701 C700 1.524 . S
C701 C702 1.415 . S
C702 H678 0.950 . S
C702 C697 1.363 . S
C702 C701 1.415 . S
C703 H679 0.951 . S
C703 C704 1.366 . S
C703 C705 1.388 . S
C704 C703 1.366 . S
C704 C708 1.385 . S
C705 H680 0.951 . S
C705 C703 1.388 . S
C705 C706 1.366 . S
C706 C705 1.366 . S
C706 C707 1.414 . S
C706 C709 1.499 . S
C707 H681 0.950 . S
C707 C706 1.414 . S
C707 C708 1.374 . S
C708 H682 0.950 . S
C708 C704 1.385 . S
C708 C707 1.374 . S
C709 C706 1.499 . S
C709 C710 1.373 1_455 S
C709 C711 1.389 1_455 S
C710 H683 0.950 . S
C710 C696 1.377 . S
C710 C709 1.373 1_655 S
C711 C695 1.377 . S
C711 C709 1.389 1_655 S
C711 C712 1.524 . S
C712 C711 1.524 . S
C712 C713 1.397 1_655 S
C712 C717 1.363 . S
C713 H684 0.950 . S
C713 C712 1.397 1_455 S
C713 C714 1.334 . S
C714 H685 0.950 . S
C714 C713 1.334 . S
C714 C715 1.287 . S
C715 C714 1.287 . S
C715 C716 1.524 . S
C715 H718 0.999 . S
C716 H686 0.950 . S
C716 C715 1.524 . S
C716 C717 1.415 1_455 S
C717 H687 0.950 . S
C717 C712 1.363 . S
C717 C716 1.415 1_655 S
H718 C715 0.999 . S
H719 C700 0.913 . S
H720 C738 0.951 . S
H721 C740 0.951 1_655 S
H722 C742 0.950 1_556 S
H723 C743 0.950 1_556 S
H724 C745 0.950 . S
H725 C748 0.950 . S
H726 C749 0.950 . S
H727 C751 0.950 . S
H728 C752 0.950 1_655 S
H729 C753 0.951 . S
H730 C755 0.951 1_455 S
H731 C757 0.950 . S
H732 C758 0.950 . S
H733 C760 0.950 . S
H734 C763 0.950 . S
H735 C764 0.950 . S
H736 C766 0.950 . S
H737 C767 0.950 1_455 S
C738 H720 0.951 . S
C738 C739 1.366 . S
C738 C740 1.388 . S
C739 C738 1.366 . S
C739 C743 1.385 . S
C740 H721 0.951 1_455 S
C740 C738 1.388 . S
C740 C741 1.366 . S
C741 C740 1.366 . S
C741 C742 1.414 . S
C741 C744 1.499 . S
C742 H722 0.950 1_554 S
C742 C741 1.414 . S
C742 C743 1.374 . S
C743 H723 0.950 1_554 S
C743 C739 1.385 . S
C743 C742 1.374 . S
C744 C741 1.499 . S
C744 C745 1.373 1_554 S
C744 C746 1.389 . S
C745 H724 0.950 . S
C745 C744 1.373 1_556 S
C745 C761 1.377 1_455 S
C746 C744 1.389 . S
C746 C747 1.524 . S
C746 C760 1.377 1_455 S
C747 C746 1.524 . S
C747 C748 1.397 . S
C747 C752 1.363 . S
C748 H725 0.950 . S
C748 C747 1.397 . S
C748 C749 1.334 . S
C749 H726 0.950 . S
C749 C748 1.334 . S
C749 C750 1.287 . S
C750 C749 1.287 . S
C750 C751 1.524 . S
C750 H769 0.913 . S
C751 H727 0.950 . S
C751 C750 1.524 . S
C751 C752 1.415 . S
C752 H728 0.950 1_455 S
C752 C747 1.363 . S
C752 C751 1.415 . S
C753 H729 0.951 . S
C753 C754 1.366 1_556 S
C753 C755 1.388 . S
C754 C753 1.366 1_554 S
C754 C758 1.385 . S
C755 H730 0.951 1_655 S
C755 C753 1.388 . S
C755 C756 1.366 1_556 S
C756 C755 1.366 1_554 S
C756 C757 1.414 . S
C756 C759 1.499 . S
C757 H731 0.950 . S
C757 C756 1.414 . S
C757 C758 1.374 . S
C758 H732 0.950 . S
C758 C754 1.385 . S
C758 C757 1.374 . S
C759 C756 1.499 . S
C759 C760 1.373 . S
C759 C761 1.389 1_554 S
C760 H733 0.950 . S
C760 C746 1.377 1_655 S
C760 C759 1.373 . S
C761 C745 1.377 1_655 S
C761 C759 1.389 1_556 S
C761 C762 1.524 . S
C762 C761 1.524 . S
C762 C763 1.397 . S
C762 C767 1.363 . S
C763 H734 0.950 . S
C763 C762 1.397 . S
C763 C764 1.334 . S
C764 H735 0.950 . S
C764 C763 1.334 . S
C764 C765 1.287 . S
C765 C764 1.287 . S
C765 C766 1.524 . S
C765 H768 0.999 . S
C766 H736 0.950 . S
C766 C765 1.524 . S
C766 C767 1.415 . S
C767 H737 0.950 1_655 S
C767 C762 1.363 . S
C767 C766 1.415 . S
H768 C765 0.999 . S
H769 C750 0.913 . S
H770 C788 0.951 . S
H771 C790 0.951 . S
H772 C792 0.950 . S
H773 C793 0.950 . S
H774 C795 0.950 . S
H775 C798 0.950 . S
H776 C799 0.950 . S
H777 C801 0.950 . S
H778 C802 0.950 . S
H779 C803 0.951 . S
H780 C805 0.951 . S
H781 C807 0.950 . S
H782 C808 0.950 . S
H783 C810 0.950 . S
H784 C813 0.950 . S
H785 C814 0.950 . S
H786 C816 0.950 . S
H787 C817 0.950 . S
C788 H770 0.951 . S
C788 C789 1.366 . S
C788 C790 1.388 . S
C789 C788 1.366 . S
C789 C793 1.385 . S
C790 H771 0.951 . S
C790 C788 1.388 . S
C790 C791 1.366 . S
C791 C790 1.366 . S
C791 C792 1.414 . S
C791 C794 1.499 . S
C792 H772 0.950 . S
C792 C791 1.414 . S
C792 C793 1.374 . S
C793 H773 0.950 . S
C793 C789 1.385 . S
C793 C792 1.374 . S
C794 C791 1.499 . S
C794 C795 1.373 . S
C794 C796 1.389 1_455 S
C795 H774 0.950 . S
C795 C794 1.373 . S
C795 C811 1.377 . S
C796 C794 1.389 1_655 S
C796 C797 1.524 . S
C796 C810 1.377 . S
C797 C796 1.524 . S
C797 C798 1.397 . S
C797 C802 1.363 . S
C798 H775 0.950 . S
C798 C797 1.397 . S
C798 C799 1.334 . S
C799 H776 0.950 . S
C799 C798 1.334 . S
C799 C800 1.287 . S
C800 C799 1.287 . S
C800 C801 1.524 . S
C800 H819 0.913 . S
C801 H777 0.950 . S
C801 C800 1.524 . S
C801 C802 1.415 . S
C802 H778 0.950 . S
C802 C797 1.363 . S
C802 C801 1.415 . S
C803 H779 0.951 . S
C803 C804 1.366 . S
C803 C805 1.388 . S
C804 C803 1.366 . S
C804 C808 1.385 . S
C805 H780 0.951 . S
C805 C803 1.388 . S
C805 C806 1.366 . S
C806 C805 1.366 . S
C806 C807 1.414 . S
C806 C809 1.499 . S
C807 H781 0.950 . S
C807 C806 1.414 . S
C807 C808 1.374 . S
C808 H782 0.950 . S
C808 C804 1.385 . S
C808 C807 1.374 . S
C809 C806 1.499 . S
C809 C810 1.373 . S
C809 C811 1.389 1_655 S
C810 H783 0.950 . S
C810 C796 1.377 . S
C810 C809 1.373 . S
C811 C795 1.377 . S
C811 C809 1.389 1_455 S
C811 C812 1.524 . S
C812 C811 1.524 . S
C812 C813 1.397 . S
C812 C817 1.363 . S
C813 H784 0.950 . S
C813 C812 1.397 . S
C813 C814 1.334 . S
C814 H785 0.950 . S
C814 C813 1.334 . S
C814 C815 1.287 . S
C815 C814 1.287 . S
C815 C816 1.524 . S
C815 H818 0.999 . S
C816 H786 0.950 . S
C816 C815 1.524 . S
C816 C817 1.415 . S
C817 H787 0.950 . S
C817 C812 1.363 . S
C817 C816 1.415 . S
H818 C815 0.999 . S
H819 C800 0.913 . S
H820 C838 0.951 . S
H821 C840 0.951 . S
H822 C842 0.950 . S
H823 C843 0.950 . S
H824 C845 0.950 . S
H825 C848 0.950 1_554 S
H826 C849 0.950 . S
H827 C851 0.950 . S
H828 C852 0.950 . S
H829 C853 0.951 . S
H830 C855 0.951 . S
H831 C857 0.950 1_556 S
H832 C858 0.950 1_556 S
H833 C860 0.950 1_556 S
H834 C863 0.950 . S
H835 C864 0.950 . S
H836 C866 0.950 . S
H837 C867 0.950 . S
C838 H820 0.951 . S
C838 C839 1.366 1_556 S
C838 C840 1.388 . S
C839 C838 1.366 1_554 S
C839 C843 1.385 . S
C840 H821 0.951 . S
C840 C838 1.388 . S
C840 C841 1.366 1_556 S
C841 C840 1.366 1_554 S
C841 C842 1.414 . S
C841 C844 1.499 . S
C842 H822 0.950 . S
C842 C841 1.414 . S
C842 C843 1.374 . S
C843 H823 0.950 . S
C843 C839 1.385 . S
C843 C842 1.374 . S
C844 C841 1.499 . S
C844 C845 1.373 . S
C844 C846 1.389 . S
C845 H824 0.950 . S
C845 C844 1.373 . S
C845 C861 1.377 1_565 S
C846 C844 1.389 . S
C846 C847 1.524 1_554 S
C846 C860 1.377 1_565 S
C847 C846 1.524 1_556 S
C847 C848 1.397 . S
C847 C852 1.363 . S
C848 H825 0.950 1_556 S
C848 C847 1.397 . S
C848 C849 1.334 . S
C849 H826 0.950 . S
C849 C848 1.334 . S
C849 C850 1.287 . S
C850 C849 1.287 . S
C850 C851 1.524 . S
C850 H869 0.913 . S
C851 H827 0.950 . S
C851 C850 1.524 . S
C851 C852 1.415 . S
C852 H828 0.950 . S
C852 C847 1.363 . S
C852 C851 1.415 . S
C853 H829 0.951 . S
C853 C854 1.366 . S
C853 C855 1.388 . S
C854 C853 1.366 . S
C854 C858 1.385 . S
C855 H830 0.951 . S
C855 C853 1.388 . S
C855 C856 1.366 . S
C856 C855 1.366 . S
C856 C857 1.414 . S
C856 C859 1.499 . S
C857 H831 0.950 1_554 S
C857 C856 1.414 . S
C857 C858 1.374 . S
C858 H832 0.950 1_554 S
C858 C854 1.385 . S
C858 C857 1.374 . S
C859 C856 1.499 . S
C859 C860 1.373 . S
C859 C861 1.389 . S
C860 H833 0.950 1_554 S
C860 C846 1.377 1_545 S
C860 C859 1.373 . S
C861 C845 1.377 1_545 S
C861 C859 1.389 . S
C861 C862 1.524 . S
C862 C861 1.524 . S
C862 C863 1.397 . S
C862 C867 1.363 . S
C863 H834 0.950 . S
C863 C862 1.397 . S
C863 C864 1.334 . S
C864 H835 0.950 . S
C864 C863 1.334 . S
C864 C865 1.287 . S
C865 C864 1.287 . S
C865 C866 1.524 . S
C865 H868 0.999 . S
C866 H836 0.950 . S
C866 C865 1.524 . S
C866 C867 1.415 . S
C867 H837 0.950 . S
C867 C862 1.363 . S
C867 C866 1.415 . S
H868 C865 0.999 . S
H869 C850 0.913 . S
H870 C888 0.951 . S
H871 C890 0.951 . S
H872 C892 0.950 . S
H873 C893 0.950 . S
H874 C895 0.950 . S
H875 C898 0.950 . S
H876 C899 0.950 . S
H877 C901 0.950 . S
H878 C902 0.950 . S
H879 C903 0.951 . S
H880 C905 0.951 . S
H881 C907 0.950 . S
H882 C908 0.950 . S
H883 C910 0.950 . S
H884 C913 0.950 . S
H885 C914 0.950 . S
H886 C916 0.950 . S
H887 C917 0.950 . S
C888 H870 0.951 . S
C888 C889 1.366 . S
C888 C890 1.388 . S
C889 C888 1.366 . S
C889 C893 1.385 . S
C890 H871 0.951 . S
C890 C888 1.388 . S
C890 C891 1.366 . S
C891 C890 1.366 . S
C891 C892 1.414 . S
C891 C894 1.499 . S
C892 H872 0.950 . S
C892 C891 1.414 . S
C892 C893 1.374 . S
C893 H873 0.950 . S
C893 C889 1.385 . S
C893 C892 1.374 . S
C894 C891 1.499 . S
C894 C895 1.373 . S
C894 C896 1.389 . S
C895 H874 0.950 . S
C895 C894 1.373 . S
C895 C911 1.377 1_545 S
C896 C894 1.389 . S
C896 C897 1.524 . S
C896 C910 1.377 1_545 S
C897 C896 1.524 . S
C897 C898 1.397 . S
C897 C902 1.363 . S
C898 H875 0.950 . S
C898 C897 1.397 . S
C898 C899 1.334 . S
C899 H876 0.950 . S
C899 C898 1.334 . S
C899 C900 1.287 . S
C900 C899 1.287 . S
C900 C901 1.524 . S
C900 H919 0.913 . S
C901 H877 0.950 . S
C901 C900 1.524 . S
C901 C902 1.415 . S
C902 H878 0.950 . S
C902 C897 1.363 . S
C902 C901 1.415 . S
C903 H879 0.951 . S
C903 C904 1.366 . S
C903 C905 1.388 . S
C904 C903 1.366 . S
C904 C908 1.385 . S
C905 H880 0.951 . S
C905 C903 1.388 . S
C905 C906 1.366 . S
C906 C905 1.366 . S
C906 C907 1.414 . S
C906 C909 1.499 . S
C907 H881 0.950 . S
C907 C906 1.414 . S
C907 C908 1.374 . S
C908 H882 0.950 . S
C908 C904 1.385 . S
C908 C907 1.374 . S
C909 C906 1.499 . S
C909 C910 1.373 . S
C909 C911 1.389 . S
C910 H883 0.950 . S
C910 C896 1.377 1_565 S
C910 C909 1.373 . S
C911 C895 1.377 1_565 S
C911 C909 1.389 . S
C911 C912 1.524 . S
C912 C911 1.524 . S
C912 C913 1.397 . S
C912 C917 1.363 . S
C913 H884 0.950 . S
C913 C912 1.397 . S
C913 C914 1.334 . S
C914 H885 0.950 . S
C914 C913 1.334 . S
C914 C915 1.287 . S
C915 C914 1.287 . S
C915 C916 1.524 . S
C915 H918 0.999 . S
C916 H886 0.950 . S
C916 C915 1.524 . S
C916 C917 1.415 . S
C917 H887 0.950 . S
C917 C912 1.363 . S
C917 C916 1.415 . S
H918 C915 0.999 . S
H919 C900 0.913 . S
H920 C938 0.951 1_556 S
H921 C940 0.951 1_556 S
H922 C942 0.950 . S
H923 C943 0.950 . S
H924 C945 0.950 . S
H925 C948 0.950 . S
H926 C949 0.950 . S
H927 C951 0.959 1_655 S
H928 C952 0.950 1_556 S
H929 C953 0.951 . S
H930 C955 0.951 . S
H931 C957 0.950 . S
H932 C958 0.950 . S
H933 C960 0.950 . S
H934 C963 0.950 . S
H935 C964 0.950 . S
H936 C966 0.950 . S
H937 C967 0.950 . S
C938 H920 0.951 1_554 S
C938 C939 1.366 . S
C938 C940 1.388 . S
C939 C938 1.366 . S
C939 C943 1.385 . S
C940 H921 0.951 1_554 S
C940 C938 1.388 . S
C940 C941 1.366 . S
C941 C940 1.366 . S
C941 C942 1.414 . S
C941 C944 1.499 . S
C942 H922 0.950 . S
C942 C941 1.414 . S
C942 C943 1.374 . S
C943 H923 0.950 . S
C943 C939 1.385 . S
C943 C942 1.374 . S
C944 C941 1.499 . S
C944 C945 1.373 . S
C944 C946 1.389 . S
C945 H924 0.950 . S
C945 C944 1.373 . S
C945 C961 1.377 . S
C946 C944 1.389 . S
C946 C947 1.524 . S
C946 C960 1.377 . S
C947 C946 1.524 . S
C947 C948 1.397 . S
C947 C952 1.363 . S
C948 H925 0.950 . S
C948 C947 1.397 . S
C948 C949 1.334 . S
C949 H926 0.950 . S
C949 C948 1.334 . S
C949 C950 1.287 1_455 S
C950 C949 1.287 1_655 S
C950 C951 1.524 1_655 S
C950 H969 0.913 . S
C951 H927 0.959 1_455 S
C951 C950 1.524 1_455 S
C951 C952 1.415 . S
C952 H928 0.950 1_554 S
C952 C947 1.363 . S
C952 C951 1.415 . S
C953 H929 0.951 . S
C953 C954 1.366 . S
C953 C955 1.388 . S
C954 C953 1.366 . S
C954 C958 1.385 1_554 S
C955 H930 0.951 . S
C955 C953 1.388 . S
C955 C956 1.366 . S
C956 C955 1.366 . S
C956 C957 1.414 1_554 S
C956 C959 1.499 . S
C957 H931 0.950 . S
C957 C956 1.414 1_556 S
C957 C958 1.374 . S
C958 H932 0.950 . S
C958 C954 1.385 1_556 S
C958 C957 1.374 . S
C959 C956 1.499 . S
C959 C960 1.373 . S
C959 C961 1.389 . S
C960 H933 0.950 . S
C960 C946 1.377 . S
C960 C959 1.373 . S
C961 C945 1.377 . S
C961 C959 1.389 . S
C961 C962 1.524 . S
C962 C961 1.524 . S
C962 C963 1.397 1_554 S
C962 C967 1.363 . S
C963 H934 0.950 . S
C963 C962 1.397 1_556 S
C963 C964 1.334 . S
C964 H935 0.950 . S
C964 C963 1.334 . S
C964 C965 1.287 1_556 S
C965 C964 1.287 1_554 S
C965 C966 1.524 . S
C965 H968 0.999 1_554 S
C966 H936 0.950 . S
C966 C965 1.524 . S
C966 C967 1.415 . S
C967 H937 0.950 . S
C967 C962 1.363 . S
C967 C966 1.415 . S
H968 C965 0.999 1_556 S
H969 C950 0.913 . S
H970 C988 0.951 . S
H971 C990 0.951 . S
H972 C992 0.950 . S
H973 C993 0.950 . S
H974 C995 0.950 . S
H975 C998 0.950 . S
H976 C999 0.950 . S
H977 C1001 0.950 1_455 S
H978 C1002 0.950 . S
H979 C1003 0.951 1_556 S
H980 C1005 0.951 1_556 S
H981 C1007 0.950 . S
H982 C1008 0.950 . S
H983 C1010 0.950 . S
H984 C1013 0.950 . S
H985 C1014 0.950 . S
H986 C1016 0.950 . S
H987 C1017 0.950 . S
C988 H970 0.951 . S
C988 C989 1.366 . S
C988 C990 1.388 . S
C989 C988 1.366 . S
C989 C993 1.385 . S
C990 H971 0.951 . S
C990 C988 1.388 . S
C990 C991 1.366 . S
C991 C990 1.366 . S
C991 C992 1.414 . S
C991 C994 1.499 . S
C992 H972 0.950 . S
C992 C991 1.414 . S
C992 C993 1.374 . S
C993 H973 0.950 . S
C993 C989 1.385 . S
C993 C992 1.374 . S
C994 C991 1.499 . S
C994 C995 1.373 . S
C994 C996 1.389 . S
C995 H974 0.950 . S
C995 C994 1.373 . S
C995 C1011 1.377 . S
C996 C994 1.389 . S
C996 C997 1.524 1_554 S
C996 C1010 1.377 . S
C997 C996 1.524 1_556 S
C997 C998 1.397 . S
C997 C1002 1.363 1_556 S
C998 H975 0.950 . S
C998 C997 1.397 . S
C998 C999 1.334 . S
C999 H976 0.950 . S
C999 C998 1.334 . S
C999 C1000 1.287 . S
C1000 C999 1.287 . S
C1000 C1001 1.524 . S
C1000 H1019 0.913 . S
C1001 H977 0.950 1_655 S
C1001 C1000 1.524 . S
C1001 C1002 1.415 1_556 S
C1002 H978 0.950 . S
C1002 C997 1.363 1_554 S
C1002 C1001 1.415 1_554 S
C1003 H979 0.951 1_554 S
C1003 C1004 1.366 . S
C1003 C1005 1.388 . S
C1004 C1003 1.366 . S
C1004 C1008 1.385 . S
C1005 H980 0.951 1_554 S
C1005 C1003 1.388 . S
C1005 C1006 1.366 . S
C1006 C1005 1.366 . S
C1006 C1007 1.414 . S
C1006 C1009 1.499 . S
C1007 H981 0.950 . S
C1007 C1006 1.414 . S
C1007 C1008 1.374 . S
C1008 H982 0.950 . S
C1008 C1004 1.385 . S
C1008 C1007 1.374 . S
C1009 C1006 1.499 . S
C1009 C1010 1.373 . S
C1009 C1011 1.389 . S
C1010 H983 0.950 . S
C1010 C996 1.377 . S
C1010 C1009 1.373 . S
C1011 C995 1.377 . S
C1011 C1009 1.389 . S
C1011 C1012 1.524 . S
C1012 C1011 1.524 . S
C1012 C1013 1.397 . S
C1012 C1017 1.363 . S
C1013 H984 0.950 . S
C1013 C1012 1.397 . S
C1013 C1014 1.334 . S
C1014 H985 0.950 . S
C1014 C1013 1.334 . S
C1014 C1015 1.287 . S
C1015 C1014 1.287 . S
C1015 C1016 1.524 . S
C1015 H1018 0.999 . S
C1016 H986 0.950 . S
C1016 C1015 1.524 . S
C1016 C1017 1.415 . S
C1017 H987 0.950 . S
C1017 C1012 1.363 . S
C1017 C1016 1.415 . S
H1018 C1015 0.999 . S
H1019 C1000 0.913 . S
H1020 C1038 0.951 . S
H1021 C1040 0.951 . S
H1022 C1042 0.950 . S
H1023 C1043 0.950 . S
H1024 C1045 0.950 . S
H1025 C1048 0.950 . S
H1026 C1049 0.950 . S
H1027 C1051 0.950 . S
H1028 C1052 0.950 . S
H1029 C1053 0.951 . S
H1030 C1055 0.951 . S
H1031 C1057 0.950 . S
H1032 C1058 0.950 . S
H1033 C1060 0.950 . S
H1034 C1063 0.950 . S
H1035 C1064 0.950 . S
H1036 C1066 0.950 . S
H1037 C1067 0.950 . S
C1038 H1020 0.951 . S
C1038 C1039 1.366 . S
C1038 C1040 1.388 . S
C1039 C1038 1.366 . S
C1039 C1043 1.385 . S
C1040 H1021 0.951 . S
C1040 C1038 1.388 . S
C1040 C1041 1.366 . S
C1041 C1040 1.366 . S
C1041 C1042 1.414 . S
C1041 C1044 1.499 . S
C1042 H1022 0.950 . S
C1042 C1041 1.414 . S
C1042 C1043 1.374 . S
C1043 H1023 0.950 . S
C1043 C1039 1.385 . S
C1043 C1042 1.374 . S
C1044 C1041 1.499 . S
C1044 C1045 1.373 . S
C1044 C1046 1.389 . S
C1045 H1024 0.950 . S
C1045 C1044 1.373 . S
C1045 C1061 1.377 . S
C1046 C1044 1.389 . S
C1046 C1047 1.524 . S
C1046 C1060 1.377 . S
C1047 C1046 1.524 . S
C1047 C1048 1.397 . S
C1047 C1052 1.363 . S
C1048 H1025 0.950 . S
C1048 C1047 1.397 . S
C1048 C1049 1.334 . S
C1049 H1026 0.950 . S
C1049 C1048 1.334 . S
C1049 C1050 1.287 . S
C1050 C1049 1.287 . S
C1050 C1051 1.524 . S
C1050 H1069 0.913 . S
C1051 H1027 0.950 . S
C1051 C1050 1.524 . S
C1051 C1052 1.415 . S
C1052 H1028 0.950 . S
C1052 C1047 1.363 . S
C1052 C1051 1.415 . S
C1053 H1029 0.951 . S
C1053 C1054 1.366 . S
C1053 C1055 1.388 . S
C1054 C1053 1.366 . S
C1054 C1058 1.385 . S
C1055 H1030 0.951 . S
C1055 C1053 1.388 . S
C1055 C1056 1.366 . S
C1056 C1055 1.366 . S
C1056 C1057 1.414 . S
C1056 C1059 1.499 . S
C1057 H1031 0.950 . S
C1057 C1056 1.414 . S
C1057 C1058 1.374 . S
C1058 H1032 0.950 . S
C1058 C1054 1.385 . S
C1058 C1057 1.374 . S
C1059 C1056 1.499 . S
C1059 C1060 1.373 . S
C1059 C1061 1.389 . S
C1060 H1033 0.950 . S
C1060 C1046 1.377 . S
C1060 C1059 1.373 . S
C1061 C1045 1.377 . S
C1061 C1059 1.389 . S
C1061 C1062 1.524 . S
C1062 C1061 1.524 . S
C1062 C1063 1.397 . S
C1062 C1067 1.363 . S
C1063 H1034 0.950 . S
C1063 C1062 1.397 . S
C1063 C1064 1.334 . S
C1064 H1035 0.950 . S
C1064 C1063 1.334 . S
C1064 C1065 1.287 . S
C1065 C1064 1.287 . S
C1065 C1066 1.524 . S
C1065 H1068 0.999 . S
C1066 H1036 0.950 . S
C1066 C1065 1.524 . S
C1066 C1067 1.415 . S
C1067 H1037 0.950 . S
C1067 C1062 1.363 . S
C1067 C1066 1.415 . S
H1068 C1065 0.999 . S
H1069 C1050 0.913 . S
H1070 C1088 0.951 . S
H1071 C1090 0.951 . S
H1072 C1092 0.950 . S
H1073 C1093 0.950 . S
H1074 C1095 0.950 . S
H1075 C1098 0.950 . S
H1076 C1099 0.950 . S
H1077 C1101 0.950 . S
H1078 C1102 0.950 . S
H1079 C1103 0.951 . S
H1080 C1105 0.951 . S
H1081 C1107 0.950 . S
H1082 C1108 0.950 . S
H1083 C1110 0.950 . S
H1084 C1113 0.950 . S
H1085 C1114 0.950 . S
H1086 C1116 0.950 . S
H1087 C1117 0.950 . S
C1088 H1070 0.951 . S
C1088 C1089 1.366 . S
C1088 C1090 1.388 . S
C1089 C1088 1.366 . S
C1089 C1093 1.385 . S
C1090 H1071 0.951 . S
C1090 C1088 1.388 . S
C1090 C1091 1.366 . S
C1091 C1090 1.366 . S
C1091 C1092 1.414 . S
C1091 C1094 1.499 . S
C1092 H1072 0.950 . S
C1092 C1091 1.414 . S
C1092 C1093 1.374 . S
C1093 H1073 0.950 . S
C1093 C1089 1.385 . S
C1093 C1092 1.374 . S
C1094 C1091 1.499 . S
C1094 C1095 1.373 . S
C1094 C1096 1.389 . S
C1095 H1074 0.950 . S
C1095 C1094 1.373 . S
C1095 C1111 1.377 . S
C1096 C1094 1.389 . S
C1096 C1097 1.524 . S
C1096 C1110 1.377 . S
C1097 C1096 1.524 . S
C1097 C1098 1.397 . S
C1097 C1102 1.363 . S
C1098 H1075 0.950 . S
C1098 C1097 1.397 . S
C1098 C1099 1.334 . S
C1099 H1076 0.950 . S
C1099 C1098 1.334 . S
C1099 C1100 1.287 . S
C1100 C1099 1.287 . S
C1100 C1101 1.524 . S
C1100 H1119 0.913 . S
C1101 H1077 0.950 . S
C1101 C1100 1.524 . S
C1101 C1102 1.415 . S
C1102 H1078 0.950 . S
C1102 C1097 1.363 . S
C1102 C1101 1.415 . S
C1103 H1079 0.951 . S
C1103 C1104 1.366 . S
C1103 C1105 1.388 . S
C1104 C1103 1.366 . S
C1104 C1108 1.385 . S
C1105 H1080 0.951 . S
C1105 C1103 1.388 . S
C1105 C1106 1.366 . S
C1106 C1105 1.366 . S
C1106 C1107 1.414 . S
C1106 C1109 1.499 . S
C1107 H1081 0.950 . S
C1107 C1106 1.414 . S
C1107 C1108 1.374 . S
C1108 H1082 0.950 . S
C1108 C1104 1.385 . S
C1108 C1107 1.374 . S
C1109 C1106 1.499 . S
C1109 C1110 1.373 . S
C1109 C1111 1.389 . S
C1110 H1083 0.950 . S
C1110 C1096 1.377 . S
C1110 C1109 1.373 . S
C1111 C1095 1.377 . S
C1111 C1109 1.389 . S
C1111 C1112 1.524 . S
C1112 C1111 1.524 . S
C1112 C1113 1.397 . S
C1112 C1117 1.363 . S
C1113 H1084 0.950 . S
C1113 C1112 1.397 . S
C1113 C1114 1.334 . S
C1114 H1085 0.950 . S
C1114 C1113 1.334 . S
C1114 C1115 1.287 . S
C1115 C1114 1.287 . S
C1115 C1116 1.524 . S
C1115 H1118 0.999 . S
C1116 H1086 0.950 . S
C1116 C1115 1.524 . S
C1116 C1117 1.415 . S
C1117 H1087 0.950 . S
C1117 C1112 1.363 . S
C1117 C1116 1.415 . S
H1118 C1115 0.999 . S
H1119 C1100 0.913 . S
H1120 C1138 0.951 . S
H1121 C1140 0.951 . S
H1122 C1142 0.950 . S
H1123 C1143 0.950 . S
H1124 C1145 0.950 . S
H1125 C1148 0.950 1_655 S
H1126 C1149 0.950 . S
H1127 C1151 0.950 . S
H1128 C1152 0.950 . S
H1129 C1153 0.951 . S
H1130 C1155 0.951 . S
H1131 C1157 0.950 . S
H1132 C1158 0.950 . S
H1133 C1160 0.950 . S
H1134 C1163 0.950 1_455 S
H1135 C1164 0.950 . S
H1136 C1166 0.950 . S
H1137 C1167 0.950 . S
C1138 H1120 0.951 . S
C1138 C1139 1.366 . S
C1138 C1140 1.388 . S
C1139 C1138 1.366 . S
C1139 C1143 1.385 1_455 S
C1140 H1121 0.951 . S
C1140 C1138 1.388 . S
C1140 C1141 1.366 . S
C1141 C1140 1.366 . S
C1141 C1142 1.414 1_455 S
C1141 C1144 1.499 . S
C1142 H1122 0.950 . S
C1142 C1141 1.414 1_655 S
C1142 C1143 1.374 . S
C1143 H1123 0.950 . S
C1143 C1139 1.385 1_655 S
C1143 C1142 1.374 . S
C1144 C1141 1.499 . S
C1144 C1145 1.373 1_455 S
C1144 C1146 1.389 . S
C1145 H1124 0.950 . S
C1145 C1144 1.373 1_655 S
C1145 C1161 1.377 . S
C1146 C1144 1.389 . S
C1146 C1147 1.524 . S
C1146 C1160 1.377 . S
C1147 C1146 1.524 . S
C1147 C1148 1.397 . S
C1147 C1152 1.363 . S
C1148 H1125 0.950 1_455 S
C1148 C1147 1.397 . S
C1148 C1149 1.334 . S
C1149 H1126 0.950 . S
C1149 C1148 1.334 . S
C1149 C1150 1.287 . S
C1150 C1149 1.287 . S
C1150 C1151 1.524 . S
C1150 H1169 0.913 . S
C1151 H1127 0.950 . S
C1151 C1150 1.524 . S
C1151 C1152 1.415 . S
C1152 H1128 0.950 . S
C1152 C1147 1.363 . S
C1152 C1151 1.415 . S
C1153 H1129 0.951 . S
C1153 C1154 1.366 . S
C1153 C1155 1.388 . S
C1154 C1153 1.366 . S
C1154 C1158 1.385 1_655 S
C1155 H1130 0.951 . S
C1155 C1153 1.388 . S
C1155 C1156 1.366 . S
C1156 C1155 1.366 . S
C1156 C1157 1.414 1_655 S
C1156 C1159 1.499 . S
C1157 H1131 0.950 . S
C1157 C1156 1.414 1_455 S
C1157 C1158 1.374 . S
C1158 H1132 0.950 . S
C1158 C1154 1.385 1_455 S
C1158 C1157 1.374 . S
C1159 C1156 1.499 . S
C1159 C1160 1.373 1_655 S
C1159 C1161 1.389 . S
C1160 H1133 0.950 . S
C1160 C1146 1.377 . S
C1160 C1159 1.373 1_455 S
C1161 C1145 1.377 . S
C1161 C1159 1.389 . S
C1161 C1162 1.524 . S
C1162 C1161 1.524 . S
C1162 C1163 1.397 . S
C1162 C1167 1.363 . S
C1163 H1134 0.950 1_655 S
C1163 C1162 1.397 . S
C1163 C1164 1.334 . S
C1164 H1135 0.950 . S
C1164 C1163 1.334 . S
C1164 C1165 1.287 . S
C1165 C1164 1.287 . S
C1165 C1166 1.524 . S
C1165 H1168 0.999 . S
C1166 H1136 0.950 . S
C1166 C1165 1.524 . S
C1166 C1167 1.415 . S
C1167 H1137 0.950 . S
C1167 C1162 1.363 . S
C1167 C1166 1.415 . S
H1168 C1165 0.999 . S
H1169 C1150 0.913 . S
H1170 C1188 0.951 . S
H1171 C1190 0.951 . S
H1172 C1192 0.950 1_455 S
H1173 C1193 0.950 . S
H1174 C1195 0.950 . S
H1175 C1198 0.950 . S
H1176 C1199 0.950 . S
H1177 C1201 0.950 . S
H1178 C1202 0.950 . S
H1179 C1203 0.951 . S
H1180 C1205 0.951 . S
H1181 C1207 0.950 1_655 S
H1182 C1208 0.950 . S
H1183 C1210 0.950 . S
H1184 C1213 0.950 . S
H1185 C1214 0.950 . S
H1186 C1216 0.950 . S
H1187 C1217 0.950 . S
C1188 H1170 0.951 . S
C1188 C1189 1.366 . S
C1188 C1190 1.388 . S
C1189 C1188 1.366 . S
C1189 C1193 1.385 . S
C1190 H1171 0.951 . S
C1190 C1188 1.388 . S
C1190 C1191 1.366 . S
C1191 C1190 1.366 . S
C1191 C1192 1.414 . S
C1191 C1194 1.499 . S
C1192 H1172 0.950 1_655 S
C1192 C1191 1.414 . S
C1192 C1193 1.374 . S
C1193 H1173 0.950 . S
C1193 C1189 1.385 . S
C1193 C1192 1.374 . S
C1194 C1191 1.499 . S
C1194 C1195 1.373 1_655 S
C1194 C1196 1.389 . S
C1195 H1174 0.950 . S
C1195 C1194 1.373 1_455 S
C1195 C1211 1.377 . S
C1196 C1194 1.389 . S
C1196 C1197 1.524 . S
C1196 C1210 1.377 . S
C1197 C1196 1.524 . S
C1197 C1198 1.397 . S
C1197 C1202 1.363 . S
C1198 H1175 0.950 . S
C1198 C1197 1.397 . S
C1198 C1199 1.334 . S
C1199 H1176 0.950 . S
C1199 C1198 1.334 . S
C1199 C1200 1.287 . S
C1200 C1199 1.287 . S
C1200 C1201 1.524 . S
C1200 H1219 0.913 . S
C1201 H1177 0.950 . S
C1201 C1200 1.524 . S
C1201 C1202 1.415 . S
C1202 H1178 0.950 . S
C1202 C1197 1.363 . S
C1202 C1201 1.415 . S
C1203 H1179 0.951 . S
C1203 C1204 1.366 . S
C1203 C1205 1.388 . S
C1204 C1203 1.366 . S
C1204 C1208 1.385 . S
C1205 H1180 0.951 . S
C1205 C1203 1.388 . S
C1205 C1206 1.366 . S
C1206 C1205 1.366 . S
C1206 C1207 1.414 . S
C1206 C1209 1.499 . S
C1207 H1181 0.950 1_455 S
C1207 C1206 1.414 . S
C1207 C1208 1.374 . S
C1208 H1182 0.950 . S
C1208 C1204 1.385 . S
C1208 C1207 1.374 . S
C1209 C1206 1.499 . S
C1209 C1210 1.373 1_455 S
C1209 C1211 1.389 . S
C1210 H1183 0.950 . S
C1210 C1196 1.377 . S
C1210 C1209 1.373 1_655 S
C1211 C1195 1.377 . S
C1211 C1209 1.389 . S
C1211 C1212 1.524 . S
C1212 C1211 1.524 . S
C1212 C1213 1.397 . S
C1212 C1217 1.363 . S
C1213 H1184 0.950 . S
C1213 C1212 1.397 . S
C1213 C1214 1.334 . S
C1214 H1185 0.950 . S
C1214 C1213 1.334 . S
C1214 C1215 1.287 . S
C1215 C1214 1.287 . S
C1215 C1216 1.524 . S
C1215 H1218 0.999 . S
C1216 H1186 0.950 . S
C1216 C1215 1.524 . S
C1216 C1217 1.415 . S
C1217 H1187 0.950 . S
C1217 C1212 1.363 . S
C1217 C1216 1.415 . S
H1218 C1215 0.999 . S
H1219 C1200 0.913 . S
H1220 C1238 0.951 1_455 S
H1221 C1240 0.951 . S
H1222 C1242 0.950 . S
H1223 C1243 0.950 . S
H1224 C1245 0.950 . S
H1225 C1248 0.950 . S
H1226 C1249 0.950 . S
H1227 C1251 0.950 . S
H1228 C1252 0.950 . S
H1229 C1253 0.951 1_655 S
H1230 C1255 0.951 . S
H1231 C1257 0.950 . S
H1232 C1258 0.950 . S
H1233 C1260 0.950 . S
H1234 C1263 0.950 . S
H1235 C1264 0.950 . S
H1236 C1266 0.950 . S
H1237 C1267 0.950 . S
C1238 H1220 0.951 1_655 S
C1238 C1239 1.366 . S
C1238 C1240 1.388 1_655 S
C1239 C1238 1.366 . S
C1239 C1243 1.385 . S
C1240 H1221 0.951 . S
C1240 C1238 1.388 1_455 S
C1240 C1241 1.366 1_455 S
C1241 C1240 1.366 1_655 S
C1241 C1242 1.414 . S
C1241 C1244 1.499 . S
C1242 H1222 0.950 . S
C1242 C1241 1.414 . S
C1242 C1243 1.374 . S
C1243 H1223 0.950 . S
C1243 C1239 1.385 . S
C1243 C1242 1.374 . S
C1244 C1241 1.499 . S
C1244 C1245 1.373 . S
C1244 C1246 1.389 1_655 S
C1245 H1224 0.950 . S
C1245 C1244 1.373 . S
C1245 C1261 1.377 . S
C1246 C1244 1.389 1_455 S
C1246 C1247 1.524 . S
C1246 C1260 1.377 . S
C1247 C1246 1.524 . S
C1247 C1248 1.397 . S
C1247 C1252 1.363 . S
C1248 H1225 0.950 . S
C1248 C1247 1.397 . S
C1248 C1249 1.334 . S
C1249 H1226 0.950 . S
C1249 C1248 1.334 . S
C1249 C1250 1.287 . S
C1250 C1249 1.287 . S
C1250 C1251 1.524 . S
C1250 H1269 0.913 . S
C1251 H1227 0.950 . S
C1251 C1250 1.524 . S
C1251 C1252 1.415 . S
C1252 H1228 0.950 . S
C1252 C1247 1.363 . S
C1252 C1251 1.415 . S
C1253 H1229 0.951 1_455 S
C1253 C1254 1.366 . S
C1253 C1255 1.388 1_455 S
C1254 C1253 1.366 . S
C1254 C1258 1.385 . S
C1255 H1230 0.951 . S
C1255 C1253 1.388 1_655 S
C1255 C1256 1.366 1_655 S
C1256 C1255 1.366 1_455 S
C1256 C1257 1.414 . S
C1256 C1259 1.499 . S
C1257 H1231 0.950 . S
C1257 C1256 1.414 . S
C1257 C1258 1.374 . S
C1258 H1232 0.950 . S
C1258 C1254 1.385 . S
C1258 C1257 1.374 . S
C1259 C1256 1.499 . S
C1259 C1260 1.373 . S
C1259 C1261 1.389 1_455 S
C1260 H1233 0.950 . S
C1260 C1246 1.377 . S
C1260 C1259 1.373 . S
C1261 C1245 1.377 . S
C1261 C1259 1.389 1_655 S
C1261 C1262 1.524 . S
C1262 C1261 1.524 . S
C1262 C1263 1.397 . S
C1262 C1267 1.363 . S
C1263 H1234 0.950 . S
C1263 C1262 1.397 . S
C1263 C1264 1.334 . S
C1264 H1235 0.950 . S
C1264 C1263 1.334 . S
C1264 C1265 1.287 . S
C1265 C1264 1.287 . S
C1265 C1266 1.524 . S
C1265 H1268 0.999 . S
C1266 H1236 0.950 . S
C1266 C1265 1.524 . S
C1266 C1267 1.415 . S
C1267 H1237 0.950 . S
C1267 C1262 1.363 . S
C1267 C1266 1.415 . S
H1268 C1265 0.999 . S
H1269 C1250 0.913 . S
H1270 C1288 0.951 . S
H1271 C1290 0.951 . S
H1272 C1292 0.950 . S
H1273 C1293 0.950 . S
H1274 C1295 0.950 . S
H1275 C1298 0.950 . S
H1276 C1299 0.950 . S
H1277 C1301 0.950 . S
H1278 C1302 0.950 . S
H1279 C1303 0.951 . S
H1280 C1305 0.951 . S
H1281 C1307 0.950 . S
H1282 C1308 0.950 . S
H1283 C1310 0.950 . S
H1284 C1313 0.950 . S
H1285 C1314 0.950 . S
H1286 C1316 0.950 . S
H1287 C1317 0.950 . S
C1288 H1270 0.951 . S
C1288 C1289 1.366 1_455 S
C1288 C1290 1.388 . S
C1289 C1288 1.366 1_655 S
C1289 C1293 1.385 . S
C1290 H1271 0.951 . S
C1290 C1288 1.388 . S
C1290 C1291 1.366 1_455 S
C1291 C1290 1.366 1_655 S
C1291 C1292 1.414 . S
C1291 C1294 1.499 . S
C1292 H1272 0.950 . S
C1292 C1291 1.414 . S
C1292 C1293 1.374 . S
C1293 H1273 0.950 . S
C1293 C1289 1.385 . S
C1293 C1292 1.374 . S
C1294 C1291 1.499 . S
C1294 C1295 1.373 . S
C1294 C1296 1.389 1_655 S
C1295 H1274 0.950 . S
C1295 C1294 1.373 . S
C1295 C1311 1.377 . S
C1296 C1294 1.389 1_455 S
C1296 C1297 1.524 . S
C1296 C1310 1.377 . S
C1297 C1296 1.524 . S
C1297 C1298 1.397 1_455 S
C1297 C1302 1.363 . S
C1298 H1275 0.950 . S
C1298 C1297 1.397 1_655 S
C1298 C1299 1.334 . S
C1299 H1276 0.950 . S
C1299 C1298 1.334 . S
C1299 C1300 1.287 1_655 S
C1300 C1299 1.287 1_455 S
C1300 C1301 1.524 . S
C1300 H1319 0.913 . S
C1301 H1277 0.950 . S
C1301 C1300 1.524 . S
C1301 C1302 1.415 . S
C1302 H1278 0.950 . S
C1302 C1297 1.363 . S
C1302 C1301 1.415 . S
C1303 H1279 0.951 . S
C1303 C1304 1.366 1_655 S
C1303 C1305 1.388 . S
C1304 C1303 1.366 1_455 S
C1304 C1308 1.385 . S
C1305 H1280 0.951 . S
C1305 C1303 1.388 . S
C1305 C1306 1.366 1_655 S
C1306 C1305 1.366 1_455 S
C1306 C1307 1.414 . S
C1306 C1309 1.499 . S
C1307 H1281 0.950 . S
C1307 C1306 1.414 . S
C1307 C1308 1.374 . S
C1308 H1282 0.950 . S
C1308 C1304 1.385 . S
C1308 C1307 1.374 . S
C1309 C1306 1.499 . S
C1309 C1310 1.373 . S
C1309 C1311 1.389 1_455 S
C1310 H1283 0.950 . S
C1310 C1296 1.377 . S
C1310 C1309 1.373 . S
C1311 C1295 1.377 . S
C1311 C1309 1.389 1_655 S
C1311 C1312 1.524 . S
C1312 C1311 1.524 . S
C1312 C1313 1.397 1_655 S
C1312 C1317 1.363 . S
C1313 H1284 0.950 . S
C1313 C1312 1.397 1_455 S
C1313 C1314 1.334 . S
C1314 H1285 0.950 . S
C1314 C1313 1.334 . S
C1314 C1315 1.287 1_455 S
C1315 C1314 1.287 1_655 S
C1315 C1316 1.524 . S
C1315 H1318 0.999 . S
C1316 H1286 0.950 . S
C1316 C1315 1.524 . S
C1316 C1317 1.415 . S
C1317 H1287 0.950 . S
C1317 C1312 1.363 . S
C1317 C1316 1.415 . S
H1318 C1315 0.999 . S
H1319 C1300 0.913 . S
H1320 C1338 0.951 . S
H1321 C1340 0.951 . S
H1322 C1342 0.950 . S
H1323 C1343 0.950 . S
H1324 C1345 0.950 . S
H1325 C1348 0.950 . S
H1326 C1349 0.950 . S
H1327 C1351 0.950 . S
H1328 C1352 0.950 . S
H1329 C1353 0.951 . S
H1330 C1355 0.951 . S
H1331 C1357 0.950 . S
H1332 C1358 0.950 . S
H1333 C1360 0.950 . S
H1334 C1363 0.950 . S
H1335 C1364 0.950 . S
H1336 C1366 0.950 . S
H1337 C1367 0.950 . S
C1338 H1320 0.951 . S
C1338 C1339 1.366 . S
C1338 C1340 1.388 . S
C1339 C1338 1.366 . S
C1339 C1343 1.385 . S
C1340 H1321 0.951 . S
C1340 C1338 1.388 . S
C1340 C1341 1.366 . S
C1341 C1340 1.366 . S
C1341 C1342 1.414 . S
C1341 C1344 1.499 . S
C1342 H1322 0.950 . S
C1342 C1341 1.414 . S
C1342 C1343 1.374 . S
C1343 H1323 0.950 . S
C1343 C1339 1.385 . S
C1343 C1342 1.374 . S
C1344 C1341 1.499 . S
C1344 C1345 1.373 . S
C1344 C1346 1.389 . S
C1345 H1324 0.950 . S
C1345 C1344 1.373 . S
C1345 C1361 1.377 . S
C1346 C1344 1.389 . S
C1346 C1347 1.524 . S
C1346 C1360 1.377 . S
C1347 C1346 1.524 . S
C1347 C1348 1.397 . S
C1347 C1352 1.363 . S
C1348 H1325 0.950 . S
C1348 C1347 1.397 . S
C1348 C1349 1.334 . S
C1349 H1326 0.950 . S
C1349 C1348 1.334 . S
C1349 C1350 1.287 . S
C1350 C1349 1.287 . S
C1350 C1351 1.524 . S
C1350 H1369 0.913 . S
C1351 H1327 0.950 . S
C1351 C1350 1.524 . S
C1351 C1352 1.415 . S
C1352 H1328 0.950 . S
C1352 C1347 1.363 . S
C1352 C1351 1.415 . S
C1353 H1329 0.951 . S
C1353 C1354 1.366 . S
C1353 C1355 1.388 . S
C1354 C1353 1.366 . S
C1354 C1358 1.385 . S
C1355 H1330 0.951 . S
C1355 C1353 1.388 . S
C1355 C1356 1.366 . S
C1356 C1355 1.366 . S
C1356 C1357 1.414 . S
C1356 C1359 1.499 . S
C1357 H1331 0.950 . S
C1357 C1356 1.414 . S
C1357 C1358 1.374 . S
C1358 H1332 0.950 . S
C1358 C1354 1.385 . S
C1358 C1357 1.374 . S
C1359 C1356 1.499 . S
C1359 C1360 1.373 . S
C1359 C1361 1.389 . S
C1360 H1333 0.950 . S
C1360 C1346 1.377 . S
C1360 C1359 1.373 . S
C1361 C1345 1.377 . S
C1361 C1359 1.389 . S
C1361 C1362 1.524 . S
C1362 C1361 1.524 . S
C1362 C1363 1.397 . S
C1362 C1367 1.363 . S
C1363 H1334 0.950 . S
C1363 C1362 1.397 . S
C1363 C1364 1.334 . S
C1364 H1335 0.950 . S
C1364 C1363 1.334 . S
C1364 C1365 1.287 . S
C1365 C1364 1.287 . S
C1365 C1366 1.524 . S
C1365 H1368 0.999 . S
C1366 H1336 0.950 . S
C1366 C1365 1.524 . S
C1366 C1367 1.415 . S
C1367 H1337 0.950 . S
C1367 C1362 1.363 . S
C1367 C1366 1.415 . S
H1368 C1365 0.999 . S
H1369 C1350 0.913 . S
H1370 C1388 0.951 . S
H1371 C1390 0.951 . S
H1372 C1392 0.950 . S
H1373 C1393 0.950 . S
H1374 C1395 0.950 . S
H1375 C1398 0.950 . S
H1376 C1399 0.950 . S
H1377 C1401 0.950 . S
H1378 C1402 0.950 . S
H1379 C1403 0.951 . S
H1380 C1405 0.951 . S
H1381 C1407 0.950 . S
H1382 C1408 0.950 . S
H1383 C1410 0.950 . S
H1384 C1413 0.950 . S
H1385 C1414 0.950 . S
H1386 C1416 0.950 . S
H1387 C1417 0.950 . S
C1388 H1370 0.951 . S
C1388 C1389 1.366 . S
C1388 C1390 1.388 . S
C1389 C1388 1.366 . S
C1389 C1393 1.385 . S
C1390 H1371 0.951 . S
C1390 C1388 1.388 . S
C1390 C1391 1.366 . S
C1391 C1390 1.366 . S
C1391 C1392 1.414 . S
C1391 C1394 1.499 . S
C1392 H1372 0.950 . S
C1392 C1391 1.414 . S
C1392 C1393 1.374 . S
C1393 H1373 0.950 . S
C1393 C1389 1.385 . S
C1393 C1392 1.374 . S
C1394 C1391 1.499 . S
C1394 C1395 1.373 . S
C1394 C1396 1.389 . S
C1395 H1374 0.950 . S
C1395 C1394 1.373 . S
C1395 C1411 1.377 . S
C1396 C1394 1.389 . S
C1396 C1397 1.524 . S
C1396 C1410 1.377 . S
C1397 C1396 1.524 . S
C1397 C1398 1.397 . S
C1397 C1402 1.363 . S
C1398 H1375 0.950 . S
C1398 C1397 1.397 . S
C1398 C1399 1.334 . S
C1399 H1376 0.950 . S
C1399 C1398 1.334 . S
C1399 C1400 1.287 . S
C1400 C1399 1.287 . S
C1400 C1401 1.524 . S
C1400 H1419 0.913 . S
C1401 H1377 0.950 . S
C1401 C1400 1.524 . S
C1401 C1402 1.415 . S
C1402 H1378 0.950 . S
C1402 C1397 1.363 . S
C1402 C1401 1.415 . S
C1403 H1379 0.951 . S
C1403 C1404 1.366 . S
C1403 C1405 1.388 . S
C1404 C1403 1.366 . S
C1404 C1408 1.385 . S
C1405 H1380 0.951 . S
C1405 C1403 1.388 . S
C1405 C1406 1.366 . S
C1406 C1405 1.366 . S
C1406 C1407 1.414 . S
C1406 C1409 1.499 . S
C1407 H1381 0.950 . S
C1407 C1406 1.414 . S
C1407 C1408 1.374 . S
C1408 H1382 0.950 . S
C1408 C1404 1.385 . S
C1408 C1407 1.374 . S
C1409 C1406 1.499 . S
C1409 C1410 1.373 . S
C1409 C1411 1.389 . S
C1410 H1383 0.950 . S
C1410 C1396 1.377 . S
C1410 C1409 1.373 . S
C1411 C1395 1.377 . S
C1411 C1409 1.389 . S
C1411 C1412 1.524 . S
C1412 C1411 1.524 . S
C1412 C1413 1.397 . S
C1412 C1417 1.363 . S
C1413 H1384 0.950 . S
C1413 C1412 1.397 . S
C1413 C1414 1.334 . S
C1414 H1385 0.950 . S
C1414 C1413 1.334 . S
C1414 C1415 1.287 . S
C1415 C1414 1.287 . S
C1415 C1416 1.524 . S
C1415 H1418 0.999 . S
C1416 H1386 0.950 . S
C1416 C1415 1.524 . S
C1416 C1417 1.415 . S
C1417 H1387 0.950 . S
C1417 C1412 1.363 . S
C1417 C1416 1.415 . S
H1418 C1415 0.999 . S
H1419 C1400 0.913 . S
H1420 C1438 0.951 . S
H1421 C1440 0.951 . S
H1422 C1442 0.950 . S
H1423 C1443 0.950 . S
H1424 C1445 0.950 . S
H1425 C1448 0.950 . S
H1426 C1449 0.950 . S
H1427 C1451 0.950 . S
H1428 C1452 0.950 . S
H1429 C1453 0.951 . S
H1430 C1455 0.951 . S
H1431 C1457 0.950 . S
H1432 C1458 0.950 . S
H1433 C1460 0.950 . S
H1434 C1463 0.950 . S
H1435 C1464 0.950 . S
H1436 C1466 0.950 . S
H1437 C1467 0.950 . S
C1438 H1420 0.951 . S
C1438 C1439 1.366 . S
C1438 C1440 1.388 . S
C1439 C1438 1.366 . S
C1439 C1443 1.385 . S
C1440 H1421 0.951 . S
C1440 C1438 1.388 . S
C1440 C1441 1.366 . S
C1441 C1440 1.366 . S
C1441 C1442 1.414 . S
C1441 C1444 1.499 . S
C1442 H1422 0.950 . S
C1442 C1441 1.414 . S
C1442 C1443 1.374 . S
C1443 H1423 0.950 . S
C1443 C1439 1.385 . S
C1443 C1442 1.374 . S
C1444 C1441 1.499 . S
C1444 C1445 1.373 . S
C1444 C1446 1.389 . S
C1445 H1424 0.950 . S
C1445 C1444 1.373 . S
C1445 C1461 1.377 . S
C1446 C1444 1.389 . S
C1446 C1447 1.524 . S
C1446 C1460 1.377 . S
C1447 C1446 1.524 . S
C1447 C1448 1.397 . S
C1447 C1452 1.363 . S
C1448 H1425 0.950 . S
C1448 C1447 1.397 . S
C1448 C1449 1.334 . S
C1449 H1426 0.950 . S
C1449 C1448 1.334 . S
C1449 C1450 1.287 . S
C1450 C1449 1.287 . S
C1450 C1451 1.524 . S
C1450 H1469 0.913 . S
C1451 H1427 0.950 . S
C1451 C1450 1.524 . S
C1451 C1452 1.415 . S
C1452 H1428 0.950 . S
C1452 C1447 1.363 . S
C1452 C1451 1.415 . S
C1453 H1429 0.951 . S
C1453 C1454 1.366 . S
C1453 C1455 1.388 . S
C1454 C1453 1.366 . S
C1454 C1458 1.385 . S
C1455 H1430 0.951 . S
C1455 C1453 1.388 . S
C1455 C1456 1.366 . S
C1456 C1455 1.366 . S
C1456 C1457 1.414 . S
C1456 C1459 1.499 . S
C1457 H1431 0.950 . S
C1457 C1456 1.414 . S
C1457 C1458 1.374 . S
C1458 H1432 0.950 . S
C1458 C1454 1.385 . S
C1458 C1457 1.374 . S
C1459 C1456 1.499 . S
C1459 C1460 1.373 . S
C1459 C1461 1.389 . S
C1460 H1433 0.950 . S
C1460 C1446 1.377 . S
C1460 C1459 1.373 . S
C1461 C1445 1.377 . S
C1461 C1459 1.389 . S
C1461 C1462 1.524 . S
C1462 C1461 1.524 . S
C1462 C1463 1.397 . S
C1462 C1467 1.363 . S
C1463 H1434 0.950 . S
C1463 C1462 1.397 . S
C1463 C1464 1.334 . S
C1464 H1435 0.950 . S
C1464 C1463 1.334 . S
C1464 C1465 1.287 . S
C1465 C1464 1.287 . S
C1465 C1466 1.524 . S
C1465 H1468 0.999 . S
C1466 H1436 0.950 . S
C1466 C1465 1.524 . S
C1466 C1467 1.415 . S
C1467 H1437 0.950 . S
C1467 C1462 1.363 . S
C1467 C1466 1.415 . S
H1468 C1465 0.999 . S
H1469 C1450 0.913 . S
H1470 C1488 0.951 . S
H1471 C1490 0.951 . S
H1472 C1492 0.950 . S
H1473 C1493 0.950 . S
H1474 C1495 0.950 . S
H1475 C1498 0.950 . S
H1476 C1499 0.950 . S
H1477 C1501 0.950 . S
H1478 C1502 0.950 . S
H1479 C1503 0.951 . S
H1480 C1505 0.951 . S
H1481 C1507 0.950 . S
H1482 C1508 0.950 . S
H1483 C1510 0.950 . S
H1484 C1513 0.950 . S
H1485 C1514 0.950 . S
H1486 C1516 0.950 . S
H1487 C1517 0.950 . S
C1488 H1470 0.951 . S
C1488 C1489 1.366 . S
C1488 C1490 1.388 . S
C1489 C1488 1.366 . S
C1489 C1493 1.385 . S
C1490 H1471 0.951 . S
C1490 C1488 1.388 . S
C1490 C1491 1.366 . S
C1491 C1490 1.366 . S
C1491 C1492 1.414 . S
C1491 C1494 1.499 . S
C1492 H1472 0.950 . S
C1492 C1491 1.414 . S
C1492 C1493 1.374 . S
C1493 H1473 0.950 . S
C1493 C1489 1.385 . S
C1493 C1492 1.374 . S
C1494 C1491 1.499 . S
C1494 C1495 1.373 . S
C1494 C1496 1.389 . S
C1495 H1474 0.950 . S
C1495 C1494 1.373 . S
C1495 C1511 1.377 . S
C1496 C1494 1.389 . S
C1496 C1497 1.524 . S
C1496 C1510 1.377 . S
C1497 C1496 1.524 . S
C1497 C1498 1.397 . S
C1497 C1502 1.363 . S
C1498 H1475 0.950 . S
C1498 C1497 1.397 . S
C1498 C1499 1.334 . S
C1499 H1476 0.950 . S
C1499 C1498 1.334 . S
C1499 C1500 1.287 . S
C1500 C1499 1.287 . S
C1500 C1501 1.524 . S
C1500 H1519 0.913 . S
C1501 H1477 0.950 . S
C1501 C1500 1.524 . S
C1501 C1502 1.415 . S
C1502 H1478 0.950 . S
C1502 C1497 1.363 . S
C1502 C1501 1.415 . S
C1503 H1479 0.951 . S
C1503 C1504 1.366 . S
C1503 C1505 1.388 . S
C1504 C1503 1.366 . S
C1504 C1508 1.385 . S
C1505 H1480 0.951 . S
C1505 C1503 1.388 . S
C1505 C1506 1.366 . S
C1506 C1505 1.366 . S
C1506 C1507 1.414 . S
C1506 C1509 1.499 . S
C1507 H1481 0.950 . S
C1507 C1506 1.414 . S
C1507 C1508 1.374 . S
C1508 H1482 0.950 . S
C1508 C1504 1.385 . S
C1508 C1507 1.374 . S
C1509 C1506 1.499 . S
C1509 C1510 1.373 . S
C1509 C1511 1.389 . S
C1510 H1483 0.950 . S
C1510 C1496 1.377 . S
C1510 C1509 1.373 . S
C1511 C1495 1.377 . S
C1511 C1509 1.389 . S
C1511 C1512 1.524 . S
C1512 C1511 1.524 . S
C1512 C1513 1.397 . S
C1512 C1517 1.363 . S
C1513 H1484 0.950 . S
C1513 C1512 1.397 . S
C1513 C1514 1.334 . S
C1514 H1485 0.950 . S
C1514 C1513 1.334 . S
C1514 C1515 1.287 . S
C1515 C1514 1.287 . S
C1515 C1516 1.524 . S
C1515 H1518 0.999 . S
C1516 H1486 0.950 . S
C1516 C1515 1.524 . S
C1516 C1517 1.415 . S
C1517 H1487 0.950 . S
C1517 C1512 1.363 . S
C1517 C1516 1.415 . S
H1518 C1515 0.999 . S
H1519 C1500 0.913 . S
C339 C20 2.139 . S
C354 C31 2.139 . S
C389 C60 2.139 . S
C404 C71 2.139 . S
C439 C100 2.139 . S
C454 C111 2.139 . S
C489 C140 2.139 . S
C504 C151 2.139 . S
C539 C180 2.139 . S
C554 C191 2.139 . S
C589 C231 2.139 . S
C604 C220 2.139 . S
C639 C260 2.139 . S
C654 C271 2.139 . S
C689 C311 2.139 . S
C704 C300 2.139 . S
C739 C44 2.264 . S
C754 C25 2.264 . S
C789 C145 2.264 . S
C804 C84 2.264 . S
C839 C185 2.264 . S
C854 C204 2.264 . S
C889 C244 2.264 . S
C904 C305 2.264 . S
C939 C4 1.667 . S
C954 C225 1.667 . S
C989 C164 1.667 . S
C1004 C65 1.667 . S
C1039 C105 1.667 . S
C1054 C284 1.667 . S
C1089 C124 1.667 . S
C1104 C265 1.667 . S
C1139 C23 1.398 . S
C1154 C143 1.399 . S
C1189 C63 1.698 . S
C1204 C103 1.698 . S
C1239 C42 1.399 . S
C1254 C82 1.399 . S
C1289 C122 1.699 . S
C1304 C2 1.698 . S
C1339 C183 1.400 . S
C1354 C303 1.399 . S
C1389 C223 1.698 . S
C1404 C263 1.698 . S
C1439 C202 1.398 . S
C1454 C242 1.399 . S
C1489 C282 1.698 . S
C1504 C162 1.697 . S
