# Generated by pormake.
# Topology umc, (4)-cn, num edge types: 1
# Building blocks:
#     Node 0, Type 0, BuildingBlock: NAWXER_clean_sbu_0, # of connection points: 4
#     Node 1, Type 0, BuildingBlock: NAWXER_clean_sbu_0, # of connection points: 4
#     Node 2, Type 0, BuildingBlock: NAWXER_clean_sbu_0, # of connection points: 4
#     Node 3, Type 0, BuildingBlock: NAWXER_clean_sbu_0, # of connection points: 4
#     Node 4, Type 0, BuildingBlock: NAWXER_clean_sbu_0, # of connection points: 4
#     Node 5, Type 0, BuildingBlock: NAWXER_clean_sbu_0, # of connection points: 4
#     Node 6, Type 0, BuildingBlock: NAWXER_clean_sbu_0, # of connection points: 4
#     Node 7, Type 0, BuildingBlock: NAWXER_clean_sbu_0, # of connection points: 4
#     Node 8, Type 0, BuildingBlock: NAWXER_clean_sbu_0, # of connection points: 4
#     Node 9, Type 0, BuildingBlock: NAWXER_clean_sbu_0, # of connection points: 4
#     Node 10, Type 0, BuildingBlock: NAWXER_clean_sbu_0, # of connection points: 4
#     Node 11, Type 0, BuildingBlock: NAWXER_clean_sbu_0, # of connection points: 4
#     Node 12, Type 0, BuildingBlock: NAWXER_clean_sbu_0, # of connection points: 4
#     Node 13, Type 0, BuildingBlock: NAWXER_clean_sbu_0, # of connection points: 4
#     Node 14, Type 0, BuildingBlock: NAWXER_clean_sbu_0, # of connection points: 4
#     Node 15, Type 0, BuildingBlock: NAWXER_clean_sbu_0, # of connection points: 4
#     Edge 16, Type (0, 0), BuildingBlock: OJICUG_clean_linker_0, # of connection points: 2
#     Edge 17, Type (0, 0), BuildingBlock: OJICUG_clean_linker_0, # of connection points: 2
#     Edge 18, Type (0, 0), BuildingBlock: OJICUG_clean_linker_0, # of connection points: 2
#     Edge 19, Type (0, 0), BuildingBlock: OJICUG_clean_linker_0, # of connection points: 2
#     Edge 20, Type (0, 0), BuildingBlock: OJICUG_clean_linker_0, # of connection points: 2
#     Edge 21, Type (0, 0), BuildingBlock: OJICUG_clean_linker_0, # of connection points: 2
#     Edge 22, Type (0, 0), BuildingBlock: OJICUG_clean_linker_0, # of connection points: 2
#     Edge 23, Type (0, 0), BuildingBlock: OJICUG_clean_linker_0, # of connection points: 2
#     Edge 24, Type (0, 0), BuildingBlock: OJICUG_clean_linker_0, # of connection points: 2
#     Edge 25, Type (0, 0), BuildingBlock: OJICUG_clean_linker_0, # of connection points: 2
#     Edge 26, Type (0, 0), BuildingBlock: OJICUG_clean_linker_0, # of connection points: 2
#     Edge 27, Type (0, 0), BuildingBlock: OJICUG_clean_linker_0, # of connection points: 2
#     Edge 28, Type (0, 0), BuildingBlock: OJICUG_clean_linker_0, # of connection points: 2
#     Edge 29, Type (0, 0), BuildingBlock: OJICUG_clean_linker_0, # of connection points: 2
#     Edge 30, Type (0, 0), BuildingBlock: OJICUG_clean_linker_0, # of connection points: 2
#     Edge 31, Type (0, 0), BuildingBlock: OJICUG_clean_linker_0, # of connection points: 2
#     Edge 32, Type (0, 0), BuildingBlock: OJICUG_clean_linker_0, # of connection points: 2
#     Edge 33, Type (0, 0), BuildingBlock: OJICUG_clean_linker_0, # of connection points: 2
#     Edge 34, Type (0, 0), BuildingBlock: OJICUG_clean_linker_0, # of connection points: 2
#     Edge 35, Type (0, 0), BuildingBlock: OJICUG_clean_linker_0, # of connection points: 2
#     Edge 36, Type (0, 0), BuildingBlock: OJICUG_clean_linker_0, # of connection points: 2
#     Edge 37, Type (0, 0), BuildingBlock: OJICUG_clean_linker_0, # of connection points: 2
#     Edge 38, Type (0, 0), BuildingBlock: OJICUG_clean_linker_0, # of connection points: 2
#     Edge 39, Type (0, 0), BuildingBlock: OJICUG_clean_linker_0, # of connection points: 2
#     Edge 40, Type (0, 0), BuildingBlock: OJICUG_clean_linker_0, # of connection points: 2
#     Edge 41, Type (0, 0), BuildingBlock: OJICUG_clean_linker_0, # of connection points: 2
#     Edge 42, Type (0, 0), BuildingBlock: OJICUG_clean_linker_0, # of connection points: 2
#     Edge 43, Type (0, 0), BuildingBlock: OJICUG_clean_linker_0, # of connection points: 2
#     Edge 44, Type (0, 0), BuildingBlock: OJICUG_clean_linker_0, # of connection points: 2
#     Edge 45, Type (0, 0), BuildingBlock: OJICUG_clean_linker_0, # of connection points: 2
#     Edge 46, Type (0, 0), BuildingBlock: OJICUG_clean_linker_0, # of connection points: 2
#     Edge 47, Type (0, 0), BuildingBlock: OJICUG_clean_linker_0, # of connection points: 2
# Relax obj value: 0.015
# Max RMSD: 0.104
# Mean RMSD: 0.104
data_MOF--net-umc--node1-NAWXER_clean_sbu_0--edge1-OJICUG_clean_linker_0
_symmetry_space_group_name_H-M    P1
_symmetry_Int_Tables_number       1
_symmetry_cell_setting            triclinic
loop_
_symmetry_equiv_pos_as_xyz
'x, y, z'
_cell_length_a     39.385451
_cell_length_b     16.048175
_cell_length_c     42.587937
_cell_angle_alpha  89.99843
_cell_angle_beta   90.000021
_cell_angle_gamma 90.005821
loop_
_atom_site_label
_atom_site_type_symbol
_atom_site_fract_x
_atom_site_fract_y
_atom_site_fract_z
_atom_type_partial_charge
C0 C 0.37113 0.97811 0.43441 0.0
C1 C 0.3625 -0.00241 0.31969 0.0
O2 O 0.3817 0.04676 0.42257 0.0
Zn3 Zn 0.38699 0.10665 0.37833 0.0
O4 O 0.35917 0.92187 0.41645 0.0
Zn5 Zn 0.3664 0.98307 0.3771 0.0
O6 O 0.42089 0.99017 0.37467 0.0
O7 O 0.43551 0.12286 0.37571 0.0
O8 O 0.35493 0.9347 0.33652 0.0
O9 O 0.37444 0.06319 0.33271 0.0
O10 O 0.35723 0.20143 0.3826 0.0
O11 O 0.32974 0.08162 0.38109 0.0
C12 C 0.44402 0.04649 0.37435 0.0
C13 C 0.32935 0.16138 0.38297 0.0
C14 C 0.70018 0.83291 0.38351 0.0
C15 C 0.58564 0.94824 0.37445 0.0
O16 O 0.69987 0.91264 0.38145 0.0
Zn17 Zn 0.6633 0.01131 0.3772 0.0
O18 O 0.67226 0.79303 0.3832 0.0
Zn19 Zn 0.64261 0.88794 0.37864 0.0
O20 O 0.65532 0.93062 0.33293 0.0
O21 O 0.67494 0.05904 0.33655 0.0
O22 O 0.5941 0.87186 0.37596 0.0
O23 O 0.60879 0.00449 0.37469 0.0
O24 O 0.67056 0.0731 0.4164 0.0
O25 O 0.64778 0.94855 0.42279 0.0
C26 C 0.66737 0.99598 0.31982 0.0
C27 C 0.65842 0.01734 0.43446 0.0
C28 C 0.37189 0.01688 0.06969 0.0
C29 C 0.36289 0.99527 0.18429 0.0
O30 O 0.38248 0.94801 0.08132 0.0
Zn31 Zn 0.38758 0.88722 0.12545 0.0
O32 O 0.35976 0.07259 0.08777 0.0
Zn33 Zn 0.36697 0.01064 0.12692 0.0
O34 O 0.42147 0.00362 0.12942 0.0
O35 O 0.43609 0.87095 0.12814 0.0
O36 O 0.35535 0.05833 0.16754 0.0
O37 O 0.37491 0.92988 0.17118 0.0
O38 O 0.35785 0.79244 0.12085 0.0
O39 O 0.33033 0.91215 0.12263 0.0
C40 C 0.44459 0.9473 0.12966 0.0
C41 C 0.32996 0.83243 0.12054 0.0
C42 C 0.66778 -0.00258 0.1844 0.0
C43 C 0.6591 0.97618 0.06972 0.0
O44 O 0.6558 0.0628 0.17126 0.0
Zn45 Zn 0.64324 0.10556 0.12553 0.0
O46 O 0.67539 0.93436 0.16768 0.0
Zn47 Zn 0.66389 0.98215 0.127 0.0
O48 O 0.70051 0.08076 0.12282 0.0
O49 O 0.67294 0.2004 0.12104 0.0
O50 O 0.67119 0.92038 0.08779 0.0
O51 O 0.64847 0.04497 0.08139 0.0
O52 O 0.59473 0.12174 0.12813 0.0
O53 O 0.60937 0.98908 0.12941 0.0
C54 C 0.70084 0.16049 0.12077 0.0
C55 C 0.58624 0.04537 0.12963 0.0
C56 C 0.65841 0.01736 0.56972 0.0
C57 C 0.66736 0.996 0.68436 0.0
O58 O 0.67055 0.07312 0.58778 0.0
Zn59 Zn 0.66329 0.01133 0.62698 0.0
O60 O 0.64777 0.94857 0.58139 0.0
Zn61 Zn 0.6426 0.88796 0.62554 0.0
O62 O 0.59409 0.87188 0.62823 0.0
O63 O 0.60878 0.00451 0.62949 0.0
O64 O 0.65531 0.93064 0.67125 0.0
O65 O 0.67493 0.05906 0.66762 0.0
O66 O 0.69987 0.91266 0.62273 0.0
O67 O 0.67225 0.79305 0.62099 0.0
C68 C 0.58563 0.94826 0.62973 0.0
C69 C 0.70017 0.83293 0.62068 0.0
C70 C 0.37112 0.97812 0.56978 0.0
C71 C 0.36249 -0.00239 0.6845 0.0
O72 O 0.35916 0.92189 0.58773 0.0
Zn73 Zn 0.3664 0.98309 0.62708 0.0
O74 O 0.38169 0.04678 0.58161 0.0
Zn75 Zn 0.38698 0.10666 0.62586 0.0
O76 O 0.4355 0.12288 0.62847 0.0
O77 O 0.42088 0.99019 0.62951 0.0
O78 O 0.37443 0.0632 0.67147 0.0
O79 O 0.35492 0.93471 0.66767 0.0
O80 O 0.32973 0.08163 0.62309 0.0
O81 O 0.35722 0.20144 0.62158 0.0
C82 C 0.44401 0.04651 0.62983 0.0
C83 C 0.32934 0.16139 0.62121 0.0
C84 C 0.6591 0.97618 0.93446 0.0
C85 C 0.66777 -0.00257 0.81978 0.0
O86 O 0.67118 0.92038 0.91639 0.0
Zn87 Zn 0.66389 0.98216 0.87718 0.0
O88 O 0.64847 0.04498 0.92279 0.0
Zn89 Zn 0.64323 0.10557 0.87865 0.0
O90 O 0.59473 0.12175 0.87605 0.0
O91 O 0.60937 0.98909 0.87477 0.0
O92 O 0.65579 0.06282 0.83292 0.0
O93 O 0.67538 0.93438 0.8365 0.0
O94 O 0.70051 0.08077 0.88136 0.0
O95 O 0.67293 0.20041 0.88314 0.0
C96 C 0.58623 0.04538 0.87455 0.0
C97 C 0.70084 0.1605 0.88341 0.0
C98 C 0.37189 0.01688 0.93449 0.0
C99 C 0.36288 0.99529 0.81989 0.0
O100 O 0.35975 0.07259 0.91641 0.0
Zn101 Zn 0.36696 0.01064 0.87726 0.0
O102 O 0.38248 0.94801 0.92286 0.0
Zn103 Zn 0.38758 0.88722 0.87873 0.0
O104 O 0.43608 0.87095 0.87605 0.0
O105 O 0.42147 0.00362 0.87476 0.0
O106 O 0.3749 0.92989 0.833 0.0
O107 O 0.35534 0.05835 0.83664 0.0
O108 O 0.33032 0.91216 0.88156 0.0
O109 O 0.35784 0.79245 0.88333 0.0
C110 C 0.44459 0.94731 0.87453 0.0
C111 C 0.32996 0.83244 0.88364 0.0
C112 C 0.87099 0.476 0.43447 0.0
C113 C 0.86232 0.49756 0.31981 0.0
O114 O 0.8816 0.54485 0.42283 0.0
Zn115 Zn 0.88681 0.6056 0.37872 0.0
O116 O 0.8589 0.42025 0.41638 0.0
Zn117 Zn 0.86618 0.48217 0.3772 0.0
O118 O 0.9207 0.48923 0.37479 0.0
O119 O 0.9353 0.62192 0.37613 0.0
O120 O 0.85471 0.43447 0.33651 0.0
O121 O 0.87428 0.56294 0.33297 0.0
O122 O 0.85709 0.70036 0.38325 0.0
O123 O 0.82953 0.58069 0.38141 0.0
C124 C 0.94382 0.54558 0.3746 0.0
C125 C 0.82919 0.66041 0.3835 0.0
C126 C 0.15834 0.51701 0.43444 0.0
C127 C 0.16709 0.49644 0.31976 0.0
O128 O 0.14776 0.44824 0.42271 0.0
Zn129 Zn 0.14254 0.38791 0.37853 0.0
O130 O 0.17037 0.57299 0.41641 0.0
Zn131 Zn 0.16311 0.51144 0.37715 0.0
O132 O 0.10861 0.50427 0.37473 0.0
O133 O 0.09404 0.37156 0.3759 0.0
O134 O 0.17461 0.55949 0.33652 0.0
O135 O 0.15513 0.43095 0.33284 0.0
O136 O 0.17231 0.29317 0.38293 0.0
O137 O 0.1998 0.41297 0.38122 0.0
C138 C 0.0855 0.4479 0.37447 0.0
C139 C 0.20019 0.33323 0.3832 0.0
C140 C 0.87163 0.51732 0.06972 0.0
C141 C 0.86277 0.49614 0.18438 0.0
O142 O 0.88225 0.44853 0.08141 0.0
Zn143 Zn 0.88745 0.38799 0.12556 0.0
O144 O 0.85953 0.57313 0.08778 0.0
Zn145 Zn 0.8668 0.51139 0.12699 0.0
O146 O 0.92132 0.50446 0.12944 0.0
O147 O 0.93594 0.3718 0.12822 0.0
O148 O 0.85522 0.5592 0.16764 0.0
O149 O 0.87478 0.43074 0.17128 0.0
O150 O 0.85776 0.29312 0.12105 0.0
O151 O 0.83018 0.41276 0.12279 0.0
C152 C 0.94444 0.44816 0.12969 0.0
C153 C 0.82986 0.33303 0.12075 0.0
C154 C 0.08611 0.54601 0.12955 0.0
C155 C 0.20081 0.66053 0.12057 0.0
O156 O 0.10922 0.48964 0.12938 0.0
Zn157 Zn 0.16372 0.48244 0.12696 0.0
O158 O 0.09465 0.62234 0.12799 0.0
Zn159 Zn 0.14315 0.60592 0.12539 0.0
O160 O 0.1483 0.54503 0.08131 0.0
O161 O 0.17096 0.4204 0.08781 0.0
O162 O 0.17294 0.70058 0.12082 0.0
O163 O 0.20041 0.58082 0.12269 0.0
O164 O 0.17519 0.43482 0.16765 0.0
O165 O 0.15566 0.56333 0.17116 0.0
C166 C 0.15888 0.47612 0.0697 0.0
C167 C 0.16759 0.49795 0.18434 0.0
C168 C 0.15833 0.51703 0.56974 0.0
C169 C 0.16708 0.49646 0.68442 0.0
O170 O 0.17036 0.57301 0.58776 0.0
Zn171 Zn 0.1631 0.51146 0.62703 0.0
O172 O 0.14775 0.44825 0.58146 0.0
Zn173 Zn 0.14253 0.38793 0.62565 0.0
O174 O 0.09403 0.37158 0.62828 0.0
O175 O 0.1086 0.50429 0.62945 0.0
O176 O 0.15513 0.43097 0.67134 0.0
O177 O 0.1746 0.5595 0.66765 0.0
O178 O 0.19979 0.41299 0.62295 0.0
O179 O 0.1723 0.29319 0.62125 0.0
C180 C 0.0855 0.44792 0.62971 0.0
C181 C 0.20018 0.33324 0.62098 0.0
C182 C 0.82918 0.66043 0.62068 0.0
C183 C 0.94381 0.5456 0.62958 0.0
O184 O 0.85708 0.70038 0.62093 0.0
Zn185 Zn 0.8868 0.60562 0.62546 0.0
O186 O 0.82952 0.58071 0.62277 0.0
Zn187 Zn 0.86617 0.48219 0.62698 0.0
O188 O 0.8547 0.43449 0.66767 0.0
O189 O 0.87427 0.56296 0.67121 0.0
O190 O 0.9207 0.48926 0.62939 0.0
O191 O 0.93529 0.62194 0.62805 0.0
O192 O 0.88159 0.54487 0.58135 0.0
O193 O 0.85889 0.42027 0.58781 0.0
C194 C 0.86231 0.49758 0.68438 0.0
C195 C 0.87098 0.47602 0.56971 0.0
C196 C 0.15887 0.47612 0.93448 0.0
C197 C 0.16759 0.49796 0.81984 0.0
O198 O 0.17096 0.4204 0.91637 0.0
Zn199 Zn 0.16372 0.48244 0.87722 0.0
O200 O 0.1483 0.54503 0.92287 0.0
Zn201 Zn 0.14314 0.60593 0.87878 0.0
O202 O 0.09464 0.62234 0.87619 0.0
O203 O 0.10921 0.48964 0.8748 0.0
O204 O 0.15565 0.56334 0.83302 0.0
O205 O 0.17518 0.43483 0.83653 0.0
O206 O 0.20041 0.58083 0.88149 0.0
O207 O 0.17293 0.70059 0.88336 0.0
C208 C 0.08611 0.54601 0.87463 0.0
C209 C 0.2008 0.66054 0.88361 0.0
C210 C 0.87163 0.51733 0.93446 0.0
C211 C 0.86277 0.49615 0.8198 0.0
O212 O 0.85953 0.57314 0.9164 0.0
Zn213 Zn 0.86679 0.5114 0.87719 0.0
O214 O 0.88225 0.44854 0.92278 0.0
Zn215 Zn 0.88744 0.388 0.87862 0.0
O216 O 0.93594 0.37181 0.87597 0.0
O217 O 0.92131 0.50447 0.87474 0.0
O218 O 0.87478 0.43076 0.83291 0.0
O219 O 0.85522 0.55921 0.83654 0.0
O220 O 0.83018 0.41277 0.88139 0.0
O221 O 0.85776 0.29313 0.88313 0.0
C222 C 0.94444 0.44817 0.87449 0.0
C223 C 0.82985 0.33304 0.88343 0.0
C224 C 0.39461 0.02147 0.4858 0.0
C225 C 0.3732 0.9678 0.46891 0.0
H226 H 0.41099 0.06546 0.53036 0.0
C227 C 0.35301 0.91041 0.48555 0.0
H228 H 0.41099 0.06545 0.47383 0.0
C229 C 0.35301 0.91041 0.51863 0.0
C230 C 0.37319 0.96781 0.53527 0.0
H231 H 0.33633 0.86811 0.47312 0.0
H232 H 0.33633 0.86811 0.53107 0.0
C233 C 0.39461 0.02147 0.51838 0.0
C234 C 0.63402 0.97665 0.51839 0.0
C235 C 0.65622 0.0284 0.53526 0.0
H236 H 0.61707 0.93403 0.4738 0.0
C237 C 0.67714 0.08418 0.51862 0.0
H238 H 0.61707 0.93404 0.53038 0.0
C239 C 0.67714 0.08418 0.48555 0.0
C240 C 0.65622 0.02838 0.46892 0.0
H241 H 0.69443 0.12497 0.53106 0.0
H242 H 0.69444 0.12496 0.47312 0.0
C243 C 0.63402 0.97664 0.48579 0.0
C244 C 0.39647 0.97674 0.01839 0.0
C245 C 0.37413 0.0281 0.03525 0.0
H246 H 0.41353 0.9344 0.97379 0.0
C247 C 0.35307 0.08358 0.01863 0.0
H248 H 0.41353 0.93441 0.03039 0.0
C249 C 0.35307 0.08358 0.98556 0.0
C250 C 0.37412 0.02809 0.96893 0.0
H251 H 0.33566 0.12405 0.03106 0.0
H252 H 0.33566 0.12405 0.97312 0.0
C253 C 0.39647 0.97674 0.9858 0.0
C254 C 0.63478 0.01703 0.98579 0.0
C255 C 0.65693 0.96518 0.96892 0.0
H256 H 0.61786 0.05971 0.03038 0.0
C257 C 0.67781 0.90931 0.98555 0.0
H258 H 0.61785 0.05971 0.9738 0.0
C259 C 0.67781 0.90931 0.01863 0.0
C260 C 0.65693 0.96519 0.03526 0.0
H261 H 0.69507 0.86845 0.97311 0.0
H262 H 0.69507 0.86845 0.03106 0.0
C263 C 0.63478 0.01703 0.01838 0.0
C264 C 0.85219 0.40922 0.51863 0.0
C265 C 0.87317 0.46488 0.53526 0.0
H266 H 0.83485 0.36857 0.47312 0.0
C267 C 0.89544 0.51645 0.51839 0.0
H268 H 0.83485 0.36858 0.53107 0.0
C269 C 0.89544 0.51644 0.4858 0.0
C270 C 0.87318 0.46487 0.46892 0.0
H271 H 0.91244 0.55893 0.53038 0.0
H272 H 0.91245 0.55892 0.4738 0.0
C273 C 0.85219 0.40922 0.48556 0.0
C274 C 0.13425 0.47542 0.51838 0.0
C275 C 0.15619 0.52781 0.53526 0.0
H276 H 0.11748 0.43236 0.4738 0.0
C277 C 0.17687 0.58413 0.51862 0.0
H278 H 0.11748 0.43237 0.53037 0.0
C279 C 0.17687 0.58412 0.48555 0.0
C280 C 0.15619 0.52779 0.46891 0.0
H281 H 0.19396 0.62542 0.53106 0.0
H282 H 0.19397 0.62541 0.47311 0.0
C283 C 0.13425 0.47542 0.48579 0.0
C284 C 0.89595 0.47643 0.9858 0.0
C285 C 0.87381 0.52831 0.96892 0.0
H286 H 0.91287 0.43373 0.03038 0.0
C287 C 0.85295 0.58421 0.98555 0.0
H288 H 0.91287 0.43374 0.9738 0.0
C289 C 0.85295 0.58421 0.01863 0.0
C290 C 0.87381 0.5283 0.03526 0.0
H291 H 0.8357 0.6251 0.97312 0.0
H292 H 0.8357 0.62509 0.03106 0.0
C293 C 0.89595 0.47643 0.01839 0.0
C294 C 0.17768 0.40933 0.01863 0.0
C295 C 0.15666 0.46489 0.03526 0.0
H296 H 0.19506 0.36878 0.97311 0.0
C297 C 0.13435 0.51633 0.01838 0.0
H298 H 0.19506 0.36878 0.03107 0.0
C299 C 0.13435 0.51633 0.98579 0.0
C300 C 0.15665 0.46489 0.96892 0.0
H301 H 0.11731 0.55874 0.03038 0.0
H302 H 0.11731 0.55874 0.97379 0.0
C303 C 0.17767 0.40933 0.98555 0.0
C304 C 0.52353 0.91285 0.37313 0.0
C305 C 0.54939 0.97313 0.37327 0.0
H306 H 0.47013 0.88863 0.37326 0.0
C307 C 0.54028 0.05796 0.37297 0.0
H308 H 0.52961 0.84703 0.37332 0.0
C309 C 0.50613 0.08193 0.37298 0.0
C310 C 0.48027 0.02165 0.37323 0.0
H311 H 0.55954 0.10614 0.37305 0.0
H312 H 0.50004 0.14774 0.37305 0.0
C313 C 0.48938 0.93682 0.37308 0.0
C314 C 0.5067 0.91179 0.13097 0.0
C315 C 0.48086 0.97211 0.13081 0.0
H316 H 0.56009 0.88751 0.13083 0.0
C317 C 0.48999 0.05692 0.13105 0.0
H318 H 0.50059 0.84598 0.13082 0.0
C319 C 0.52414 0.08085 0.13101 0.0
C320 C 0.54998 0.02053 0.13079 0.0
H321 H 0.47075 0.10513 0.13095 0.0
H322 H 0.53025 0.14666 0.13089 0.0
C323 C 0.54085 0.93572 0.13099 0.0
C324 C 0.52352 0.91287 0.63105 0.0
C325 C 0.54938 0.97315 0.63091 0.0
H326 H 0.47012 0.88865 0.63093 0.0
C327 C 0.54027 0.05798 0.63121 0.0
H328 H 0.5296 0.84705 0.63086 0.0
C329 C 0.50612 0.08195 0.6312 0.0
C330 C 0.48027 0.02166 0.63095 0.0
H331 H 0.55953 0.10616 0.63112 0.0
H332 H 0.50003 0.14776 0.63113 0.0
C333 C 0.48938 0.93684 0.6311 0.0
C334 C 0.52413 0.08086 0.87317 0.0
C335 C 0.54998 0.02054 0.8734 0.0
H336 H 0.47074 0.10514 0.87323 0.0
C337 C 0.54084 0.93573 0.87319 0.0
H338 H 0.53024 0.14666 0.87329 0.0
C339 C 0.50669 0.9118 0.87321 0.0
C340 C 0.48085 0.97211 0.87337 0.0
H341 H 0.56009 0.88752 0.87335 0.0
H342 H 0.50058 0.84599 0.87336 0.0
C343 C 0.48998 0.05693 0.87313 0.0
C344 C 1.00591 0.58124 0.37327 0.0
C345 C 0.98009 0.52085 0.37344 0.0
H346 H 0.05929 0.60567 0.37335 0.0
C347 C 0.98925 0.43606 0.37316 0.0
H348 H 0.99978 0.64703 0.37344 0.0
C349 C 0.02341 0.41223 0.37315 0.0
C350 C 0.04923 0.47261 0.37337 0.0
H351 H 0.97002 0.3878 0.37327 0.0
H352 H 0.02955 0.34644 0.37325 0.0
C353 C 0.04007 0.5574 0.3732 0.0
C354 C 0.02402 0.58164 0.13089 0.0
C355 C 0.04985 0.52128 0.13073 0.0
H356 H 0.97063 0.60599 0.13079 0.0
C357 C 0.04069 0.43648 0.13103 0.0
H358 H 0.03015 0.64743 0.13069 0.0
C359 C 1.00653 0.41261 0.13104 0.0
C360 C 0.98071 0.47296 0.13081 0.0
H361 H 0.05992 0.38823 0.13093 0.0
H362 H 1.00041 0.34681 0.13096 0.0
C363 C 0.98986 0.55776 0.13095 0.0
C364 C 1.0059 0.58126 0.63091 0.0
C365 C 0.98008 0.52087 0.63074 0.0
H366 H 0.05928 0.60569 0.63083 0.0
C367 C 0.98924 0.43608 0.63102 0.0
H368 H 0.99977 0.64705 0.63073 0.0
C369 C 0.0234 0.41225 0.63103 0.0
C370 C 0.04922 0.47263 0.63081 0.0
H371 H 0.97002 0.38782 0.63091 0.0
H372 H 0.02954 0.34646 0.63094 0.0
C373 C 0.04006 0.55742 0.63097 0.0
C374 C 0.04068 0.43648 0.87315 0.0
C375 C 0.04984 0.52128 0.87345 0.0
H376 H 1.0004 0.34681 0.87322 0.0
C377 C 0.02401 0.58164 0.87329 0.0
H378 H 0.05991 0.38824 0.87325 0.0
C379 C 0.98985 0.55777 0.87323 0.0
C380 C 0.9807 0.47297 0.87337 0.0
H381 H 0.03014 0.64744 0.87349 0.0
H382 H 0.97062 0.606 0.87339 0.0
C383 C 1.00653 0.41261 0.87314 0.0
C384 C 0.26378 0.33425 0.38491 0.0
C385 C 0.23316 0.28901 0.38472 0.0
H386 H 0.31812 0.32974 0.38459 0.0
C387 C 0.23451 0.20159 0.38505 0.0
H388 H 0.26369 0.40174 0.38472 0.0
C389 C 0.26576 0.16037 0.38497 0.0
C390 C 0.29639 0.20561 0.38458 0.0
H391 H 0.21143 0.16488 0.38494 0.0
H392 H 0.26586 0.09287 0.38483 0.0
C393 C 0.29504 0.29302 0.38485 0.0
C394 C 0.76376 0.83358 0.38551 0.0
C395 C 0.7331 0.7885 0.38515 0.0
H396 H 0.81809 0.82879 0.38537 0.0
C397 C 0.73437 0.70107 0.38541 0.0
H398 H 0.76373 0.90107 0.38539 0.0
C399 C 0.76559 0.65968 0.38539 0.0
C400 C 0.79626 0.70477 0.38514 0.0
H401 H 0.71126 0.66448 0.38518 0.0
H402 H 0.76563 0.59219 0.38518 0.0
C403 C 0.79498 0.79219 0.38552 0.0
C404 C 0.23512 0.79216 0.11853 0.0
C405 C 0.23377 0.70475 0.1189 0.0
H406 H 0.26647 0.90089 0.11866 0.0
C407 C 0.2644 0.65952 0.11863 0.0
H408 H 0.21205 0.82887 0.11869 0.0
C409 C 0.29566 0.70076 0.1186 0.0
C410 C 0.29701 0.78818 0.11888 0.0
H411 H 0.2643 0.59203 0.11883 0.0
H412 H 0.31874 0.66406 0.11882 0.0
C413 C 0.26638 0.8334 0.11854 0.0
C414 C 0.73505 0.2923 0.11881 0.0
C415 C 0.73377 0.20488 0.11915 0.0
H416 H 0.76631 0.4012 0.11897 0.0
C417 C 0.76443 0.1598 0.11886 0.0
H418 H 0.71194 0.3289 0.11899 0.0
C419 C 0.79566 0.20121 0.11883 0.0
C420 C 0.79693 0.28863 0.11913 0.0
H421 H 0.76439 0.09231 0.11903 0.0
H422 H 0.81876 0.16461 0.11903 0.0
C423 C 0.76627 0.3337 0.11882 0.0
C424 C 0.73436 0.70109 0.61877 0.0
C425 C 0.73309 0.78852 0.61903 0.0
H426 H 0.76562 0.59221 0.619 0.0
C427 C 0.76375 0.8336 0.61867 0.0
H428 H 0.71125 0.6645 0.619 0.0
C429 C 0.79497 0.79221 0.61866 0.0
C430 C 0.79625 0.70478 0.61904 0.0
H431 H 0.76372 0.90109 0.61879 0.0
H432 H 0.81808 0.82881 0.61881 0.0
C433 C 0.76558 0.6597 0.61879 0.0
C434 C 0.2345 0.20161 0.61913 0.0
C435 C 0.23315 0.28903 0.61946 0.0
H436 H 0.26585 0.09289 0.61935 0.0
C437 C 0.26377 0.33427 0.61927 0.0
H438 H 0.21142 0.16489 0.61925 0.0
C439 C 0.29503 0.29304 0.61933 0.0
C440 C 0.29638 0.20562 0.6196 0.0
H441 H 0.26368 0.40176 0.61946 0.0
H442 H 0.31811 0.32976 0.61958 0.0
C443 C 0.26576 0.16038 0.61922 0.0
C444 C 0.73504 0.29231 0.88537 0.0
C445 C 0.73376 0.20489 0.88503 0.0
H446 H 0.7663 0.40121 0.88521 0.0
C447 C 0.76442 0.15981 0.88533 0.0
H448 H 0.71193 0.32891 0.88519 0.0
C449 C 0.79565 0.20122 0.88535 0.0
C450 C 0.79693 0.28864 0.88506 0.0
H451 H 0.76439 0.09232 0.88515 0.0
H452 H 0.81876 0.16462 0.88516 0.0
C453 C 0.76626 0.33371 0.88536 0.0
C454 C 0.23512 0.79216 0.88565 0.0
C455 C 0.23377 0.70475 0.88527 0.0
H456 H 0.26647 0.9009 0.88552 0.0
C457 C 0.26439 0.65952 0.88555 0.0
H458 H 0.21204 0.82887 0.88549 0.0
C459 C 0.29566 0.70077 0.88558 0.0
C460 C 0.297 0.78818 0.8853 0.0
H461 H 0.2643 0.59203 0.88535 0.0
H462 H 0.31873 0.66406 0.88536 0.0
C463 C 0.26638 0.83341 0.88565 0.0
C464 C 0.35832 0.9208 0.26857 0.0
C465 C 0.35885 0.99627 0.28513 0.0
H466 H 0.35935 0.86153 0.22358 0.0
C467 C 0.35805 0.0717 0.26822 0.0
H468 H 0.35892 0.86182 0.28093 0.0
C469 C 0.35789 0.07171 0.2354 0.0
C470 C 0.3591 0.99628 0.21883 0.0
H471 H 0.35815 0.131 0.28038 0.0
H472 H 0.35813 0.13072 0.22305 0.0
C473 C 0.35872 0.92082 0.23574 0.0
C474 C 0.672 0.072 0.2358 0.0
C475 C 0.6714 0.99645 0.21896 0.0
H476 H 0.67176 0.13131 0.28093 0.0
C477 C 0.67214 0.9211 0.2356 0.0
H478 H 0.67172 0.13122 0.22359 0.0
C479 C 0.67175 0.92133 0.26843 0.0
C480 C 0.67117 -0.00311 0.28527 0.0
H481 H 0.67171 0.86202 0.2233 0.0
H482 H 0.67129 0.86212 0.28064 0.0
C483 C 0.67216 0.07223 0.26863 0.0
C484 C 0.67214 0.92112 0.76858 0.0
C485 C 0.67139 0.99647 0.78522 0.0
H486 H 0.67129 0.86214 0.72354 0.0
C487 C 0.67199 0.07202 0.76838 0.0
H488 H 0.67171 0.86204 0.78088 0.0
C489 C 0.67216 0.07225 0.73555 0.0
C490 C 0.67117 -0.00309 0.71891 0.0
H491 H 0.67171 0.13124 0.78059 0.0
H492 H 0.67175 0.13133 0.72325 0.0
C493 C 0.67174 0.92135 0.73575 0.0
C494 C 0.35871 0.92083 0.76845 0.0
C495 C 0.35909 0.9963 0.78535 0.0
H496 H 0.35891 0.86183 0.72325 0.0
C497 C 0.35788 0.07172 0.76878 0.0
H498 H 0.35934 0.86155 0.7806 0.0
C499 C 0.35804 0.07172 0.73596 0.0
C500 C 0.35884 0.99629 0.71905 0.0
H501 H 0.35812 0.13074 0.78113 0.0
H502 H 0.35814 0.13102 0.7238 0.0
C503 C 0.35831 0.92081 0.73561 0.0
C504 C 0.85835 0.42151 0.23577 0.0
C505 C 0.85897 0.49707 0.21893 0.0
H506 H 0.85833 0.3622 0.28089 0.0
C507 C 0.85803 0.57241 0.23557 0.0
H508 H 0.85877 0.3623 0.22356 0.0
C509 C 0.85818 0.57218 0.2684 0.0
C510 C 0.85872 0.49662 0.28524 0.0
H511 H 0.85847 0.63149 0.22327 0.0
H512 H 0.85849 0.63139 0.28061 0.0
C513 C 0.85794 0.42128 0.2686 0.0
C514 C 0.17159 0.4219 0.26837 0.0
C515 C 0.17089 0.49745 0.28521 0.0
H516 H 0.17168 0.36261 0.22325 0.0
C517 C 0.17178 0.57281 0.26858 0.0
H518 H 0.17122 0.36268 0.28058 0.0
C519 C 0.17164 0.57259 0.23575 0.0
C520 C 0.17117 0.49704 0.21891 0.0
H521 H 0.17128 0.63187 0.28088 0.0
H522 H 0.17129 0.63181 0.22354 0.0
C523 C 0.17201 0.42169 0.23554 0.0
C524 C 0.172 0.42171 0.76864 0.0
C525 C 0.17116 0.49705 0.78527 0.0
H526 H 0.17121 0.36269 0.7236 0.0
C527 C 0.17163 0.57261 0.76843 0.0
H528 H 0.17167 0.36263 0.78094 0.0
C529 C 0.17177 0.57282 0.73559 0.0
C530 C 0.17089 0.49746 0.71897 0.0
H531 H 0.17128 0.63183 0.78064 0.0
H532 H 0.17127 0.63189 0.72329 0.0
C533 C 0.17159 0.42192 0.73581 0.0
C534 C 0.85794 0.4213 0.73559 0.0
C535 C 0.85871 0.49664 0.71894 0.0
H536 H 0.85876 0.36232 0.78063 0.0
C537 C 0.85818 0.5722 0.73578 0.0
H538 H 0.85832 0.36222 0.72329 0.0
C539 C 0.85802 0.57243 0.76861 0.0
C540 C 0.85897 0.49709 0.78525 0.0
H541 H 0.85848 0.63141 0.72357 0.0
H542 H 0.85846 0.63151 0.78091 0.0
C543 C 0.85834 0.42153 0.76842 0.0
loop_
_geom_bond_atom_site_label_1
_geom_bond_atom_site_label_2
_geom_bond_distance
_geom_bond_site_symmetry_2
_ccdc_geom_bond_type
C0 O2 1.247 . S
C0 O4 1.258 . S
C1 O8 1.247 . S
C1 O9 1.258 . S
O2 C0 1.247 . S
O2 Zn3 2.028 . S
Zn3 O2 2.028 . S
Zn3 O7 2.035 . S
Zn3 O9 2.035 . S
Zn3 O10 2.028 . S
O4 C0 1.258 . S
O4 Zn5 2.035 . S
Zn5 O4 2.035 . S
Zn5 O6 2.028 . S
Zn5 O8 2.028 . S
Zn5 O11 2.035 . S
O6 Zn5 2.028 . S
O6 C12 1.247 . S
O7 Zn3 2.035 . S
O7 C12 1.258 . S
O8 C1 1.247 . S
O8 Zn5 2.028 . S
O9 C1 1.258 . S
O9 Zn3 2.035 . S
O10 Zn3 2.028 . S
O10 C13 1.247 . S
O11 Zn5 2.035 . S
O11 C13 1.258 . S
C12 O6 1.247 . S
C12 O7 1.258 . S
C13 O10 1.247 . S
C13 O11 1.258 . S
C14 O16 1.247 . S
C14 O18 1.258 . S
C15 O22 1.247 . S
C15 O23 1.258 . S
O16 C14 1.247 . S
O16 Zn17 2.028 . S
Zn17 O16 2.028 . S
Zn17 O21 2.035 . S
Zn17 O23 2.035 . S
Zn17 O24 2.028 . S
O18 C14 1.258 . S
O18 Zn19 2.035 . S
Zn19 O18 2.035 . S
Zn19 O20 2.028 . S
Zn19 O22 2.028 . S
Zn19 O25 2.035 . S
O20 Zn19 2.028 . S
O20 C26 1.247 . S
O21 Zn17 2.035 . S
O21 C26 1.258 . S
O22 C15 1.247 . S
O22 Zn19 2.028 . S
O23 C15 1.258 . S
O23 Zn17 2.035 . S
O24 Zn17 2.028 . S
O24 C27 1.247 . S
O25 Zn19 2.035 . S
O25 C27 1.258 . S
C26 O20 1.247 . S
C26 O21 1.258 . S
C27 O24 1.247 . S
C27 O25 1.258 . S
C28 O30 1.247 . S
C28 O32 1.258 . S
C29 O36 1.247 . S
C29 O37 1.258 . S
O30 C28 1.247 . S
O30 Zn31 2.028 . S
Zn31 O30 2.028 . S
Zn31 O35 2.035 . S
Zn31 O37 2.035 . S
Zn31 O38 2.028 . S
O32 C28 1.258 . S
O32 Zn33 2.035 . S
Zn33 O32 2.035 . S
Zn33 O34 2.028 . S
Zn33 O36 2.028 . S
Zn33 O39 2.035 . S
O34 Zn33 2.028 . S
O34 C40 1.247 . S
O35 Zn31 2.035 . S
O35 C40 1.258 . S
O36 C29 1.247 . S
O36 Zn33 2.028 . S
O37 C29 1.258 . S
O37 Zn31 2.035 . S
O38 Zn31 2.028 . S
O38 C41 1.247 . S
O39 Zn33 2.035 . S
O39 C41 1.258 . S
C40 O34 1.247 . S
C40 O35 1.258 . S
C41 O38 1.247 . S
C41 O39 1.258 . S
C42 O44 1.247 . S
C42 O46 1.258 . S
C43 O50 1.247 . S
C43 O51 1.258 . S
O44 C42 1.247 . S
O44 Zn45 2.028 . S
Zn45 O44 2.028 . S
Zn45 O49 2.035 . S
Zn45 O51 2.035 . S
Zn45 O52 2.028 . S
O46 C42 1.258 . S
O46 Zn47 2.035 . S
Zn47 O46 2.035 . S
Zn47 O48 2.028 . S
Zn47 O50 2.028 . S
Zn47 O53 2.035 . S
O48 Zn47 2.028 . S
O48 C54 1.247 . S
O49 Zn45 2.035 . S
O49 C54 1.258 . S
O50 C43 1.247 . S
O50 Zn47 2.028 . S
O51 C43 1.258 . S
O51 Zn45 2.035 . S
O52 Zn45 2.028 . S
O52 C55 1.247 . S
O53 Zn47 2.035 . S
O53 C55 1.258 . S
C54 O48 1.247 . S
C54 O49 1.258 . S
C55 O52 1.247 . S
C55 O53 1.258 . S
C56 O58 1.247 . S
C56 O60 1.258 . S
C57 O64 1.247 . S
C57 O65 1.258 . S
O58 C56 1.247 . S
O58 Zn59 2.028 . S
Zn59 O58 2.028 . S
Zn59 O63 2.035 . S
Zn59 O65 2.035 . S
Zn59 O66 2.028 . S
O60 C56 1.258 . S
O60 Zn61 2.035 . S
Zn61 O60 2.035 . S
Zn61 O62 2.028 . S
Zn61 O64 2.028 . S
Zn61 O67 2.035 . S
O62 Zn61 2.028 . S
O62 C68 1.247 . S
O63 Zn59 2.035 . S
O63 C68 1.258 . S
O64 C57 1.247 . S
O64 Zn61 2.028 . S
O65 C57 1.258 . S
O65 Zn59 2.035 . S
O66 Zn59 2.028 . S
O66 C69 1.247 . S
O67 Zn61 2.035 . S
O67 C69 1.258 . S
C68 O62 1.247 . S
C68 O63 1.258 . S
C69 O66 1.247 . S
C69 O67 1.258 . S
C70 O72 1.247 . S
C70 O74 1.258 . S
C71 O78 1.247 . S
C71 O79 1.258 . S
O72 C70 1.247 . S
O72 Zn73 2.028 . S
Zn73 O72 2.028 . S
Zn73 O77 2.035 . S
Zn73 O79 2.035 . S
Zn73 O80 2.028 . S
O74 C70 1.258 . S
O74 Zn75 2.035 . S
Zn75 O74 2.035 . S
Zn75 O76 2.028 . S
Zn75 O78 2.028 . S
Zn75 O81 2.035 . S
O76 Zn75 2.028 . S
O76 C82 1.247 . S
O77 Zn73 2.035 . S
O77 C82 1.258 . S
O78 C71 1.247 . S
O78 Zn75 2.028 . S
O79 C71 1.258 . S
O79 Zn73 2.035 . S
O80 Zn73 2.028 . S
O80 C83 1.247 . S
O81 Zn75 2.035 . S
O81 C83 1.258 . S
C82 O76 1.247 . S
C82 O77 1.258 . S
C83 O80 1.247 . S
C83 O81 1.258 . S
C84 O86 1.247 . S
C84 O88 1.258 . S
C85 O92 1.247 . S
C85 O93 1.258 . S
O86 C84 1.247 . S
O86 Zn87 2.028 . S
Zn87 O86 2.028 . S
Zn87 O91 2.035 . S
Zn87 O93 2.035 . S
Zn87 O94 2.028 . S
O88 C84 1.258 . S
O88 Zn89 2.035 . S
Zn89 O88 2.035 . S
Zn89 O90 2.028 . S
Zn89 O92 2.028 . S
Zn89 O95 2.035 . S
O90 Zn89 2.028 . S
O90 C96 1.247 . S
O91 Zn87 2.035 . S
O91 C96 1.258 . S
O92 C85 1.247 . S
O92 Zn89 2.028 . S
O93 C85 1.258 . S
O93 Zn87 2.035 . S
O94 Zn87 2.028 . S
O94 C97 1.247 . S
O95 Zn89 2.035 . S
O95 C97 1.258 . S
C96 O90 1.247 . S
C96 O91 1.258 . S
C97 O94 1.247 . S
C97 O95 1.258 . S
C98 O100 1.247 . S
C98 O102 1.258 . S
C99 O106 1.247 . S
C99 O107 1.258 . S
O100 C98 1.247 . S
O100 Zn101 2.028 . S
Zn101 O100 2.028 . S
Zn101 O105 2.035 . S
Zn101 O107 2.035 . S
Zn101 O108 2.028 . S
O102 C98 1.258 . S
O102 Zn103 2.035 . S
Zn103 O102 2.035 . S
Zn103 O104 2.028 . S
Zn103 O106 2.028 . S
Zn103 O109 2.035 . S
O104 Zn103 2.028 . S
O104 C110 1.247 . S
O105 Zn101 2.035 . S
O105 C110 1.258 . S
O106 C99 1.247 . S
O106 Zn103 2.028 . S
O107 C99 1.258 . S
O107 Zn101 2.035 . S
O108 Zn101 2.028 . S
O108 C111 1.247 . S
O109 Zn103 2.035 . S
O109 C111 1.258 . S
C110 O104 1.247 . S
C110 O105 1.258 . S
C111 O108 1.247 . S
C111 O109 1.258 . S
C112 O114 1.247 . S
C112 O116 1.258 . S
C113 O120 1.247 . S
C113 O121 1.258 . S
O114 C112 1.247 . S
O114 Zn115 2.028 . S
Zn115 O114 2.028 . S
Zn115 O119 2.035 . S
Zn115 O121 2.035 . S
Zn115 O122 2.028 . S
O116 C112 1.258 . S
O116 Zn117 2.035 . S
Zn117 O116 2.035 . S
Zn117 O118 2.028 . S
Zn117 O120 2.028 . S
Zn117 O123 2.035 . S
O118 Zn117 2.028 . S
O118 C124 1.247 . S
O119 Zn115 2.035 . S
O119 C124 1.258 . S
O120 C113 1.247 . S
O120 Zn117 2.028 . S
O121 C113 1.258 . S
O121 Zn115 2.035 . S
O122 Zn115 2.028 . S
O122 C125 1.247 . S
O123 Zn117 2.035 . S
O123 C125 1.258 . S
C124 O118 1.247 . S
C124 O119 1.258 . S
C125 O122 1.247 . S
C125 O123 1.258 . S
C126 O128 1.247 . S
C126 O130 1.258 . S
C127 O134 1.247 . S
C127 O135 1.258 . S
O128 C126 1.247 . S
O128 Zn129 2.028 . S
Zn129 O128 2.028 . S
Zn129 O133 2.035 . S
Zn129 O135 2.035 . S
Zn129 O136 2.028 . S
O130 C126 1.258 . S
O130 Zn131 2.035 . S
Zn131 O130 2.035 . S
Zn131 O132 2.028 . S
Zn131 O134 2.028 . S
Zn131 O137 2.035 . S
O132 Zn131 2.028 . S
O132 C138 1.247 . S
O133 Zn129 2.035 . S
O133 C138 1.258 . S
O134 C127 1.247 . S
O134 Zn131 2.028 . S
O135 C127 1.258 . S
O135 Zn129 2.035 . S
O136 Zn129 2.028 . S
O136 C139 1.247 . S
O137 Zn131 2.035 . S
O137 C139 1.258 . S
C138 O132 1.247 . S
C138 O133 1.258 . S
C139 O136 1.247 . S
C139 O137 1.258 . S
C140 O142 1.247 . S
C140 O144 1.258 . S
C141 O148 1.247 . S
C141 O149 1.258 . S
O142 C140 1.247 . S
O142 Zn143 2.028 . S
Zn143 O142 2.028 . S
Zn143 O147 2.035 . S
Zn143 O149 2.035 . S
Zn143 O150 2.028 . S
O144 C140 1.258 . S
O144 Zn145 2.035 . S
Zn145 O144 2.035 . S
Zn145 O146 2.028 . S
Zn145 O148 2.028 . S
Zn145 O151 2.035 . S
O146 Zn145 2.028 . S
O146 C152 1.247 . S
O147 Zn143 2.035 . S
O147 C152 1.258 . S
O148 C141 1.247 . S
O148 Zn145 2.028 . S
O149 C141 1.258 . S
O149 Zn143 2.035 . S
O150 Zn143 2.028 . S
O150 C153 1.247 . S
O151 Zn145 2.035 . S
O151 C153 1.258 . S
C152 O146 1.247 . S
C152 O147 1.258 . S
C153 O150 1.247 . S
C153 O151 1.258 . S
C154 O156 1.247 . S
C154 O158 1.258 . S
C155 O162 1.247 . S
C155 O163 1.258 . S
O156 C154 1.247 . S
O156 Zn157 2.028 . S
Zn157 O156 2.028 . S
Zn157 O161 2.035 . S
Zn157 O163 2.035 . S
Zn157 O164 2.028 . S
O158 C154 1.258 . S
O158 Zn159 2.035 . S
Zn159 O158 2.035 . S
Zn159 O160 2.028 . S
Zn159 O162 2.028 . S
Zn159 O165 2.035 . S
O160 Zn159 2.028 . S
O160 C166 1.247 . S
O161 Zn157 2.035 . S
O161 C166 1.258 . S
O162 C155 1.247 . S
O162 Zn159 2.028 . S
O163 C155 1.258 . S
O163 Zn157 2.035 . S
O164 Zn157 2.028 . S
O164 C167 1.247 . S
O165 Zn159 2.035 . S
O165 C167 1.258 . S
C166 O160 1.247 . S
C166 O161 1.258 . S
C167 O164 1.247 . S
C167 O165 1.258 . S
C168 O170 1.247 . S
C168 O172 1.258 . S
C169 O176 1.247 . S
C169 O177 1.258 . S
O170 C168 1.247 . S
O170 Zn171 2.028 . S
Zn171 O170 2.028 . S
Zn171 O175 2.035 . S
Zn171 O177 2.035 . S
Zn171 O178 2.028 . S
O172 C168 1.258 . S
O172 Zn173 2.035 . S
Zn173 O172 2.035 . S
Zn173 O174 2.028 . S
Zn173 O176 2.028 . S
Zn173 O179 2.035 . S
O174 Zn173 2.028 . S
O174 C180 1.247 . S
O175 Zn171 2.035 . S
O175 C180 1.258 . S
O176 C169 1.247 . S
O176 Zn173 2.028 . S
O177 C169 1.258 . S
O177 Zn171 2.035 . S
O178 Zn171 2.028 . S
O178 C181 1.247 . S
O179 Zn173 2.035 . S
O179 C181 1.258 . S
C180 O174 1.247 . S
C180 O175 1.258 . S
C181 O178 1.247 . S
C181 O179 1.258 . S
C182 O184 1.247 . S
C182 O186 1.258 . S
C183 O190 1.247 . S
C183 O191 1.258 . S
O184 C182 1.247 . S
O184 Zn185 2.028 . S
Zn185 O184 2.028 . S
Zn185 O189 2.035 . S
Zn185 O191 2.035 . S
Zn185 O192 2.028 . S
O186 C182 1.258 . S
O186 Zn187 2.035 . S
Zn187 O186 2.035 . S
Zn187 O188 2.028 . S
Zn187 O190 2.028 . S
Zn187 O193 2.035 . S
O188 Zn187 2.028 . S
O188 C194 1.247 . S
O189 Zn185 2.035 . S
O189 C194 1.258 . S
O190 C183 1.247 . S
O190 Zn187 2.028 . S
O191 C183 1.258 . S
O191 Zn185 2.035 . S
O192 Zn185 2.028 . S
O192 C195 1.247 . S
O193 Zn187 2.035 . S
O193 C195 1.258 . S
C194 O188 1.247 . S
C194 O189 1.258 . S
C195 O192 1.247 . S
C195 O193 1.258 . S
C196 O198 1.247 . S
C196 O200 1.258 . S
C197 O204 1.247 . S
C197 O205 1.258 . S
O198 C196 1.247 . S
O198 Zn199 2.028 . S
Zn199 O198 2.028 . S
Zn199 O203 2.035 . S
Zn199 O205 2.035 . S
Zn199 O206 2.028 . S
O200 C196 1.258 . S
O200 Zn201 2.035 . S
Zn201 O200 2.035 . S
Zn201 O202 2.028 . S
Zn201 O204 2.028 . S
Zn201 O207 2.035 . S
O202 Zn201 2.028 . S
O202 C208 1.247 . S
O203 Zn199 2.035 . S
O203 C208 1.258 . S
O204 C197 1.247 . S
O204 Zn201 2.028 . S
O205 C197 1.258 . S
O205 Zn199 2.035 . S
O206 Zn199 2.028 . S
O206 C209 1.247 . S
O207 Zn201 2.035 . S
O207 C209 1.258 . S
C208 O202 1.247 . S
C208 O203 1.258 . S
C209 O206 1.247 . S
C209 O207 1.258 . S
C210 O212 1.247 . S
C210 O214 1.258 . S
C211 O218 1.247 . S
C211 O219 1.258 . S
O212 C210 1.247 . S
O212 Zn213 2.028 . S
Zn213 O212 2.028 . S
Zn213 O217 2.035 . S
Zn213 O219 2.035 . S
Zn213 O220 2.028 . S
O214 C210 1.258 . S
O214 Zn215 2.035 . S
Zn215 O214 2.035 . S
Zn215 O216 2.028 . S
Zn215 O218 2.028 . S
Zn215 O221 2.035 . S
O216 Zn215 2.028 . S
O216 C222 1.247 . S
O217 Zn213 2.035 . S
O217 C222 1.258 . S
O218 C211 1.247 . S
O218 Zn215 2.028 . S
O219 C211 1.258 . S
O219 Zn213 2.035 . S
O220 Zn213 2.028 . S
O220 C223 1.247 . S
O221 Zn215 2.035 . S
O221 C223 1.258 . S
C222 O216 1.247 . S
C222 O217 1.258 . S
C223 O220 1.247 . S
C223 O221 1.258 . S
C224 C225 1.387 . S
C224 H228 0.950 . S
C224 C233 1.390 . S
C225 C224 1.387 . S
C225 C227 1.387 . S
H226 C233 0.950 . S
C227 C225 1.387 . S
C227 C229 1.390 . S
C227 H231 0.950 . S
H228 C224 0.950 . S
C229 C227 1.390 . S
C229 C230 1.387 . S
C229 H232 0.950 . S
C230 C229 1.387 . S
C230 C233 1.387 . S
H231 C227 0.950 . S
H232 C229 0.950 . S
C233 C224 1.390 . S
C233 H226 0.950 . S
C233 C230 1.387 . S
C234 C235 1.387 . S
C234 H238 0.950 . S
C234 C243 1.390 . S
C235 C234 1.387 . S
C235 C237 1.387 . S
H236 C243 0.950 . S
C237 C235 1.387 . S
C237 C239 1.390 . S
C237 H241 0.950 . S
H238 C234 0.950 . S
C239 C237 1.390 . S
C239 C240 1.387 . S
C239 H242 0.950 . S
C240 C239 1.387 . S
C240 C243 1.387 . S
H241 C237 0.950 . S
H242 C239 0.950 . S
C243 C234 1.390 . S
C243 H236 0.950 . S
C243 C240 1.387 . S
C244 C245 1.387 . S
C244 H248 0.950 . S
C244 C253 1.390 1_554 S
C245 C244 1.387 . S
C245 C247 1.387 . S
H246 C253 0.950 . S
C247 C245 1.387 . S
C247 C249 1.390 1_554 S
C247 H251 0.950 . S
H248 C244 0.950 . S
C249 C247 1.390 1_556 S
C249 C250 1.387 . S
C249 H252 0.950 . S
C250 C249 1.387 . S
C250 C253 1.387 . S
H251 C247 0.950 . S
H252 C249 0.950 . S
C253 C244 1.390 1_556 S
C253 H246 0.950 . S
C253 C250 1.387 . S
C254 C255 1.387 . S
C254 H258 0.950 . S
C254 C263 1.390 1_556 S
C255 C254 1.387 . S
C255 C257 1.387 . S
H256 C263 0.950 . S
C257 C255 1.387 . S
C257 C259 1.390 1_556 S
C257 H261 0.950 . S
H258 C254 0.950 . S
C259 C257 1.390 1_554 S
C259 C260 1.387 . S
C259 H262 0.950 . S
C260 C259 1.387 . S
C260 C263 1.387 . S
H261 C257 0.950 . S
H262 C259 0.950 . S
C263 C254 1.390 1_554 S
C263 H256 0.950 . S
C263 C260 1.387 . S
C264 C265 1.387 . S
C264 H268 0.950 . S
C264 C273 1.390 . S
C265 C264 1.387 . S
C265 C267 1.387 . S
H266 C273 0.950 . S
C267 C265 1.387 . S
C267 C269 1.390 . S
C267 H271 0.950 . S
H268 C264 0.950 . S
C269 C267 1.390 . S
C269 C270 1.387 . S
C269 H272 0.950 . S
C270 C269 1.387 . S
C270 C273 1.387 . S
H271 C267 0.950 . S
H272 C269 0.950 . S
C273 C264 1.390 . S
C273 H266 0.950 . S
C273 C270 1.387 . S
C274 C275 1.387 . S
C274 H278 0.950 . S
C274 C283 1.390 . S
C275 C274 1.387 . S
C275 C277 1.387 . S
H276 C283 0.950 . S
C277 C275 1.387 . S
C277 C279 1.390 . S
C277 H281 0.950 . S
H278 C274 0.950 . S
C279 C277 1.390 . S
C279 C280 1.387 . S
C279 H282 0.950 . S
C280 C279 1.387 . S
C280 C283 1.387 . S
H281 C277 0.950 . S
H282 C279 0.950 . S
C283 C274 1.390 . S
C283 H276 0.950 . S
C283 C280 1.387 . S
C284 C285 1.387 . S
C284 H288 0.950 . S
C284 C293 1.390 1_556 S
C285 C284 1.387 . S
C285 C287 1.387 . S
H286 C293 0.950 . S
C287 C285 1.387 . S
C287 C289 1.390 1_556 S
C287 H291 0.950 . S
H288 C284 0.950 . S
C289 C287 1.390 1_554 S
C289 C290 1.387 . S
C289 H292 0.950 . S
C290 C289 1.387 . S
C290 C293 1.387 . S
H291 C287 0.950 . S
H292 C289 0.950 . S
C293 C284 1.390 1_554 S
C293 H286 0.950 . S
C293 C290 1.387 . S
C294 C295 1.387 . S
C294 H298 0.950 . S
C294 C303 1.390 1_554 S
C295 C294 1.387 . S
C295 C297 1.387 . S
H296 C303 0.950 . S
C297 C295 1.387 . S
C297 C299 1.390 1_554 S
C297 H301 0.950 . S
H298 C294 0.950 . S
C299 C297 1.390 1_556 S
C299 C300 1.387 . S
C299 H302 0.950 . S
C300 C299 1.387 . S
C300 C303 1.387 . S
H301 C297 0.950 . S
H302 C299 0.950 . S
C303 C294 1.390 1_556 S
C303 H296 0.950 . S
C303 C300 1.387 . S
C304 C305 1.387 . S
C304 H308 0.950 . S
C304 C313 1.390 1_565 S
C305 C304 1.387 . S
C305 C307 1.387 . S
H306 C313 0.950 . S
C307 C305 1.387 . S
C307 C309 1.390 1_565 S
C307 H311 0.950 . S
H308 C304 0.950 . S
C309 C307 1.390 1_545 S
C309 C310 1.387 . S
C309 H312 0.950 . S
C310 C309 1.387 . S
C310 C313 1.387 . S
H311 C307 0.950 . S
H312 C309 0.950 . S
C313 C304 1.390 1_545 S
C313 H306 0.950 . S
C313 C310 1.387 . S
C314 C315 1.387 . S
C314 H318 0.950 . S
C314 C323 1.390 1_565 S
C315 C314 1.387 . S
C315 C317 1.387 . S
H316 C323 0.950 . S
C317 C315 1.387 . S
C317 C319 1.390 1_565 S
C317 H321 0.950 . S
H318 C314 0.950 . S
C319 C317 1.390 1_545 S
C319 C320 1.387 . S
C319 H322 0.950 . S
C320 C319 1.387 . S
C320 C323 1.387 . S
H321 C317 0.950 . S
H322 C319 0.950 . S
C323 C314 1.390 1_545 S
C323 H316 0.950 . S
C323 C320 1.387 . S
C324 C325 1.387 . S
C324 H328 0.950 . S
C324 C333 1.390 1_565 S
C325 C324 1.387 . S
C325 C327 1.387 . S
H326 C333 0.950 . S
C327 C325 1.387 . S
C327 C329 1.390 1_565 S
C327 H331 0.950 . S
H328 C324 0.950 . S
C329 C327 1.390 1_545 S
C329 C330 1.387 . S
C329 H332 0.950 . S
C330 C329 1.387 . S
C330 C333 1.387 . S
H331 C327 0.950 . S
H332 C329 0.950 . S
C333 C324 1.390 1_545 S
C333 H326 0.950 . S
C333 C330 1.387 . S
C334 C335 1.387 . S
C334 H338 0.950 . S
C334 C343 1.390 1_545 S
C335 C334 1.387 . S
C335 C337 1.387 . S
H336 C343 0.950 . S
C337 C335 1.387 . S
C337 C339 1.390 1_545 S
C337 H341 0.950 . S
H338 C334 0.950 . S
C339 C337 1.390 1_565 S
C339 C340 1.387 . S
C339 H342 0.950 . S
C340 C339 1.387 . S
C340 C343 1.387 . S
H341 C337 0.950 . S
H342 C339 0.950 . S
C343 C334 1.390 1_565 S
C343 H336 0.950 . S
C343 C340 1.387 . S
C344 C345 1.387 . S
C344 H348 0.950 . S
C344 C353 1.390 1_655 S
C345 C344 1.387 . S
C345 C347 1.387 . S
H346 C353 0.950 . S
C347 C345 1.387 . S
C347 C349 1.390 1_655 S
C347 H351 0.950 . S
H348 C344 0.950 . S
C349 C347 1.390 1_455 S
C349 C350 1.387 . S
C349 H352 0.950 . S
C350 C349 1.387 . S
C350 C353 1.387 . S
H351 C347 0.950 . S
H352 C349 0.950 . S
C353 C344 1.390 1_455 S
C353 H346 0.950 . S
C353 C350 1.387 . S
C354 C355 1.387 . S
C354 H358 0.950 . S
C354 C363 1.390 1_455 S
C355 C354 1.387 . S
C355 C357 1.387 . S
H356 C363 0.950 . S
C357 C355 1.387 . S
C357 C359 1.390 1_455 S
C357 H361 0.950 . S
H358 C354 0.950 . S
C359 C357 1.390 1_655 S
C359 C360 1.387 . S
C359 H362 0.950 . S
C360 C359 1.387 . S
C360 C363 1.387 . S
H361 C357 0.950 . S
H362 C359 0.950 . S
C363 C354 1.390 1_655 S
C363 H356 0.950 . S
C363 C360 1.387 . S
C364 C365 1.387 . S
C364 H368 0.950 . S
C364 C373 1.390 1_655 S
C365 C364 1.387 . S
C365 C367 1.387 . S
H366 C373 0.950 . S
C367 C365 1.387 . S
C367 C369 1.390 1_655 S
C367 H371 0.950 . S
H368 C364 0.950 . S
C369 C367 1.390 1_455 S
C369 C370 1.387 . S
C369 H372 0.950 . S
C370 C369 1.387 . S
C370 C373 1.387 . S
H371 C367 0.950 . S
H372 C369 0.950 . S
C373 C364 1.390 1_455 S
C373 H366 0.950 . S
C373 C370 1.387 . S
C374 C375 1.387 . S
C374 H378 0.950 . S
C374 C383 1.390 1_455 S
C375 C374 1.387 . S
C375 C377 1.387 . S
H376 C383 0.950 . S
C377 C375 1.387 . S
C377 C379 1.390 1_455 S
C377 H381 0.950 . S
H378 C374 0.950 . S
C379 C377 1.390 1_655 S
C379 C380 1.387 . S
C379 H382 0.950 . S
C380 C379 1.387 . S
C380 C383 1.387 . S
H381 C377 0.950 . S
H382 C379 0.950 . S
C383 C374 1.390 1_655 S
C383 H376 0.950 . S
C383 C380 1.387 . S
C384 C385 1.387 . S
C384 H388 0.950 . S
C384 C393 1.390 . S
C385 C384 1.387 . S
C385 C387 1.387 . S
H386 C393 0.950 . S
C387 C385 1.387 . S
C387 C389 1.390 . S
C387 H391 0.950 . S
H388 C384 0.950 . S
C389 C387 1.390 . S
C389 C390 1.387 . S
C389 H392 0.950 . S
C390 C389 1.387 . S
C390 C393 1.387 . S
H391 C387 0.950 . S
H392 C389 0.950 . S
C393 C384 1.390 . S
C393 H386 0.950 . S
C393 C390 1.387 . S
C394 C395 1.387 . S
C394 H398 0.950 . S
C394 C403 1.390 . S
C395 C394 1.387 . S
C395 C397 1.387 . S
H396 C403 0.950 . S
C397 C395 1.387 . S
C397 C399 1.390 . S
C397 H401 0.950 . S
H398 C394 0.950 . S
C399 C397 1.390 . S
C399 C400 1.387 . S
C399 H402 0.950 . S
C400 C399 1.387 . S
C400 C403 1.387 . S
H401 C397 0.950 . S
H402 C399 0.950 . S
C403 C394 1.390 . S
C403 H396 0.950 . S
C403 C400 1.387 . S
C404 C405 1.387 . S
C404 H408 0.950 . S
C404 C413 1.390 . S
C405 C404 1.387 . S
C405 C407 1.387 . S
H406 C413 0.950 . S
C407 C405 1.387 . S
C407 C409 1.390 . S
C407 H411 0.950 . S
H408 C404 0.950 . S
C409 C407 1.390 . S
C409 C410 1.387 . S
C409 H412 0.950 . S
C410 C409 1.387 . S
C410 C413 1.387 . S
H411 C407 0.950 . S
H412 C409 0.950 . S
C413 C404 1.390 . S
C413 H406 0.950 . S
C413 C410 1.387 . S
C414 C415 1.387 . S
C414 H418 0.950 . S
C414 C423 1.390 . S
C415 C414 1.387 . S
C415 C417 1.387 . S
H416 C423 0.950 . S
C417 C415 1.387 . S
C417 C419 1.390 . S
C417 H421 0.950 . S
H418 C414 0.950 . S
C419 C417 1.390 . S
C419 C420 1.387 . S
C419 H422 0.950 . S
C420 C419 1.387 . S
C420 C423 1.387 . S
H421 C417 0.950 . S
H422 C419 0.950 . S
C423 C414 1.390 . S
C423 H416 0.950 . S
C423 C420 1.387 . S
C424 C425 1.387 . S
C424 H428 0.950 . S
C424 C433 1.390 . S
C425 C424 1.387 . S
C425 C427 1.387 . S
H426 C433 0.950 . S
C427 C425 1.387 . S
C427 C429 1.390 . S
C427 H431 0.950 . S
H428 C424 0.950 . S
C429 C427 1.390 . S
C429 C430 1.387 . S
C429 H432 0.950 . S
C430 C429 1.387 . S
C430 C433 1.387 . S
H431 C427 0.950 . S
H432 C429 0.950 . S
C433 C424 1.390 . S
C433 H426 0.950 . S
C433 C430 1.387 . S
C434 C435 1.387 . S
C434 H438 0.950 . S
C434 C443 1.390 . S
C435 C434 1.387 . S
C435 C437 1.387 . S
H436 C443 0.950 . S
C437 C435 1.387 . S
C437 C439 1.390 . S
C437 H441 0.950 . S
H438 C434 0.950 . S
C439 C437 1.390 . S
C439 C440 1.387 . S
C439 H442 0.950 . S
C440 C439 1.387 . S
C440 C443 1.387 . S
H441 C437 0.950 . S
H442 C439 0.950 . S
C443 C434 1.390 . S
C443 H436 0.950 . S
C443 C440 1.387 . S
C444 C445 1.387 . S
C444 H448 0.950 . S
C444 C453 1.390 . S
C445 C444 1.387 . S
C445 C447 1.387 . S
H446 C453 0.950 . S
C447 C445 1.387 . S
C447 C449 1.390 . S
C447 H451 0.950 . S
H448 C444 0.950 . S
C449 C447 1.390 . S
C449 C450 1.387 . S
C449 H452 0.950 . S
C450 C449 1.387 . S
C450 C453 1.387 . S
H451 C447 0.950 . S
H452 C449 0.950 . S
C453 C444 1.390 . S
C453 H446 0.950 . S
C453 C450 1.387 . S
C454 C455 1.387 . S
C454 H458 0.950 . S
C454 C463 1.390 . S
C455 C454 1.387 . S
C455 C457 1.387 . S
H456 C463 0.950 . S
C457 C455 1.387 . S
C457 C459 1.390 . S
C457 H461 0.950 . S
H458 C454 0.950 . S
C459 C457 1.390 . S
C459 C460 1.387 . S
C459 H462 0.950 . S
C460 C459 1.387 . S
C460 C463 1.387 . S
H461 C457 0.950 . S
H462 C459 0.950 . S
C463 C454 1.390 . S
C463 H456 0.950 . S
C463 C460 1.387 . S
C464 C465 1.387 . S
C464 H468 0.950 . S
C464 C473 1.390 1_545 S
C465 C464 1.387 . S
C465 C467 1.387 . S
H466 C473 0.950 . S
C467 C465 1.387 . S
C467 C469 1.390 1_545 S
C467 H471 0.950 . S
H468 C464 0.950 . S
C469 C467 1.390 1_565 S
C469 C470 1.387 . S
C469 H472 0.950 . S
C470 C469 1.387 . S
C470 C473 1.387 . S
H471 C467 0.950 . S
H472 C469 0.950 . S
C473 C464 1.390 1_565 S
C473 H466 0.950 . S
C473 C470 1.387 . S
C474 C475 1.387 . S
C474 H478 0.950 . S
C474 C483 1.390 1_545 S
C475 C474 1.387 . S
C475 C477 1.387 . S
H476 C483 0.950 . S
C477 C475 1.387 . S
C477 C479 1.390 1_545 S
C477 H481 0.950 . S
H478 C474 0.950 . S
C479 C477 1.390 1_565 S
C479 C480 1.387 . S
C479 H482 0.950 . S
C480 C479 1.387 . S
C480 C483 1.387 . S
H481 C477 0.950 . S
H482 C479 0.950 . S
C483 C474 1.390 1_565 S
C483 H476 0.950 . S
C483 C480 1.387 . S
C484 C485 1.387 . S
C484 H488 0.950 . S
C484 C493 1.390 1_545 S
C485 C484 1.387 . S
C485 C487 1.387 . S
H486 C493 0.950 . S
C487 C485 1.387 . S
C487 C489 1.390 1_545 S
C487 H491 0.950 . S
H488 C484 0.950 . S
C489 C487 1.390 1_565 S
C489 C490 1.387 . S
C489 H492 0.950 . S
C490 C489 1.387 . S
C490 C493 1.387 . S
H491 C487 0.950 . S
H492 C489 0.950 . S
C493 C484 1.390 1_565 S
C493 H486 0.950 . S
C493 C490 1.387 . S
C494 C495 1.387 . S
C494 H498 0.950 . S
C494 C503 1.390 1_565 S
C495 C494 1.387 . S
C495 C497 1.387 . S
H496 C503 0.950 . S
C497 C495 1.387 . S
C497 C499 1.390 1_565 S
C497 H501 0.950 . S
H498 C494 0.950 . S
C499 C497 1.390 1_545 S
C499 C500 1.387 . S
C499 H502 0.950 . S
C500 C499 1.387 . S
C500 C503 1.387 . S
H501 C497 0.950 . S
H502 C499 0.950 . S
C503 C494 1.390 1_545 S
C503 H496 0.950 . S
C503 C500 1.387 . S
C504 C505 1.387 . S
C504 H508 0.950 . S
C504 C513 1.390 . S
C505 C504 1.387 . S
C505 C507 1.387 . S
H506 C513 0.950 . S
C507 C505 1.387 . S
C507 C509 1.390 . S
C507 H511 0.950 . S
H508 C504 0.950 . S
C509 C507 1.390 . S
C509 C510 1.387 . S
C509 H512 0.950 . S
C510 C509 1.387 . S
C510 C513 1.387 . S
H511 C507 0.950 . S
H512 C509 0.950 . S
C513 C504 1.390 . S
C513 H506 0.950 . S
C513 C510 1.387 . S
C514 C515 1.387 . S
C514 H518 0.950 . S
C514 C523 1.390 . S
C515 C514 1.387 . S
C515 C517 1.387 . S
H516 C523 0.950 . S
C517 C515 1.387 . S
C517 C519 1.390 . S
C517 H521 0.950 . S
H518 C514 0.950 . S
C519 C517 1.390 . S
C519 C520 1.387 . S
C519 H522 0.950 . S
C520 C519 1.387 . S
C520 C523 1.387 . S
H521 C517 0.950 . S
H522 C519 0.950 . S
C523 C514 1.390 . S
C523 H516 0.950 . S
C523 C520 1.387 . S
C524 C525 1.387 . S
C524 H528 0.950 . S
C524 C533 1.390 . S
C525 C524 1.387 . S
C525 C527 1.387 . S
H526 C533 0.950 . S
C527 C525 1.387 . S
C527 C529 1.390 . S
C527 H531 0.950 . S
H528 C524 0.950 . S
C529 C527 1.390 . S
C529 C530 1.387 . S
C529 H532 0.950 . S
C530 C529 1.387 . S
C530 C533 1.387 . S
H531 C527 0.950 . S
H532 C529 0.950 . S
C533 C524 1.390 . S
C533 H526 0.950 . S
C533 C530 1.387 . S
C534 C535 1.387 . S
C534 H538 0.950 . S
C534 C543 1.390 . S
C535 C534 1.387 . S
C535 C537 1.387 . S
H536 C543 0.950 . S
C537 C535 1.387 . S
C537 C539 1.390 . S
C537 H541 0.950 . S
H538 C534 0.950 . S
C539 C537 1.390 . S
C539 C540 1.387 . S
C539 H542 0.950 . S
C540 C539 1.387 . S
C540 C543 1.387 . S
H541 C537 0.950 . S
H542 C539 0.950 . S
C543 C534 1.390 . S
C543 H536 0.950 . S
C543 C540 1.387 . S
C225 C0 1.595 . S
C230 C70 1.593 . S
C235 C56 1.595 . S
C240 C27 1.594 . S
C245 C28 1.594 . S
C250 C98 1.594 . S
C255 C84 1.594 . S
C260 C43 1.594 . S
C265 C195 1.595 . S
C270 C112 1.596 . S
C275 C168 1.594 . S
C280 C126 1.594 . S
C285 C210 1.595 . S
C290 C140 1.595 . S
C295 C166 1.594 . S
C300 C196 1.594 . S
C305 C15 1.504 . S
C310 C12 1.505 . S
C315 C40 1.504 . S
C320 C55 1.504 . S
C325 C68 1.504 . S
C330 C82 1.504 . S
C335 C96 1.504 . S
C340 C110 1.504 . S
C345 C124 1.504 . S
C350 C138 1.504 . S
C355 C154 1.504 . S
C360 C152 1.504 . S
C365 C183 1.505 . S
C370 C180 1.504 . S
C375 C208 1.503 . S
C380 C222 1.503 . S
C385 C139 1.504 . S
C390 C13 1.504 . S
C395 C14 1.504 . S
C400 C125 1.504 . S
C405 C155 1.503 . S
C410 C41 1.503 . S
C415 C54 1.504 . S
C420 C153 1.503 . S
C425 C69 1.504 . S
C430 C182 1.504 . S
C435 C181 1.504 . S
C440 C83 1.504 . S
C445 C97 1.504 . S
C450 C223 1.504 . S
C455 C209 1.504 . S
C460 C111 1.504 . S
C465 C1 1.629 . S
C470 C29 1.629 . S
C475 C42 1.629 . S
C480 C26 1.629 . S
C485 C85 1.629 . S
C490 C57 1.629 . S
C495 C99 1.629 . S
C500 C71 1.629 . S
C505 C141 1.629 . S
C510 C113 1.629 . S
C515 C127 1.629 . S
C520 C167 1.629 . S
C525 C197 1.629 . S
C530 C169 1.629 . S
C535 C194 1.628 . S
C540 C211 1.630 . S
