# Generated by pormake.
# Topology uot, (4)-cn, num edge types: 1
# Building blocks:
#     Node 0, Type 0, BuildingBlock: KUFVIS_clean_sbu_0, # of connection points: 4
#     Node 1, Type 0, BuildingBlock: KUFVIS_clean_sbu_0, # of connection points: 4
#     Node 2, Type 0, BuildingBlock: KUFVIS_clean_sbu_0, # of connection points: 4
#     Node 3, Type 0, BuildingBlock: KUFVIS_clean_sbu_0, # of connection points: 4
#     Node 4, Type 0, BuildingBlock: KUFVIS_clean_sbu_0, # of connection points: 4
#     Node 5, Type 0, BuildingBlock: KUFVIS_clean_sbu_0, # of connection points: 4
#     Node 6, Type 0, BuildingBlock: KUFVIS_clean_sbu_0, # of connection points: 4
#     Node 7, Type 0, BuildingBlock: KUFVIS_clean_sbu_0, # of connection points: 4
#     Node 8, Type 0, BuildingBlock: KUFVIS_clean_sbu_0, # of connection points: 4
#     Node 9, Type 0, BuildingBlock: KUFVIS_clean_sbu_0, # of connection points: 4
#     Node 10, Type 0, BuildingBlock: KUFVIS_clean_sbu_0, # of connection points: 4
#     Node 11, Type 0, BuildingBlock: KUFVIS_clean_sbu_0, # of connection points: 4
#     Node 12, Type 0, BuildingBlock: KUFVIS_clean_sbu_0, # of connection points: 4
#     Node 13, Type 0, BuildingBlock: KUFVIS_clean_sbu_0, # of connection points: 4
#     Node 14, Type 0, BuildingBlock: KUFVIS_clean_sbu_0, # of connection points: 4
#     Node 15, Type 0, BuildingBlock: KUFVIS_clean_sbu_0, # of connection points: 4
#     Edge 16, Type (0, 0), BuildingBlock: CIFDUS_clean_linker_0, # of connection points: 2
#     Edge 17, Type (0, 0), BuildingBlock: CIFDUS_clean_linker_0, # of connection points: 2
#     Edge 18, Type (0, 0), BuildingBlock: CIFDUS_clean_linker_0, # of connection points: 2
#     Edge 19, Type (0, 0), BuildingBlock: CIFDUS_clean_linker_0, # of connection points: 2
#     Edge 20, Type (0, 0), BuildingBlock: CIFDUS_clean_linker_0, # of connection points: 2
#     Edge 21, Type (0, 0), BuildingBlock: CIFDUS_clean_linker_0, # of connection points: 2
#     Edge 22, Type (0, 0), BuildingBlock: CIFDUS_clean_linker_0, # of connection points: 2
#     Edge 23, Type (0, 0), BuildingBlock: CIFDUS_clean_linker_0, # of connection points: 2
#     Edge 24, Type (0, 0), BuildingBlock: CIFDUS_clean_linker_0, # of connection points: 2
#     Edge 25, Type (0, 0), BuildingBlock: CIFDUS_clean_linker_0, # of connection points: 2
#     Edge 26, Type (0, 0), BuildingBlock: CIFDUS_clean_linker_0, # of connection points: 2
#     Edge 27, Type (0, 0), BuildingBlock: CIFDUS_clean_linker_0, # of connection points: 2
#     Edge 28, Type (0, 0), BuildingBlock: CIFDUS_clean_linker_0, # of connection points: 2
#     Edge 29, Type (0, 0), BuildingBlock: CIFDUS_clean_linker_0, # of connection points: 2
#     Edge 30, Type (0, 0), BuildingBlock: CIFDUS_clean_linker_0, # of connection points: 2
#     Edge 31, Type (0, 0), BuildingBlock: CIFDUS_clean_linker_0, # of connection points: 2
#     Edge 32, Type (0, 0), BuildingBlock: CIFDUS_clean_linker_0, # of connection points: 2
#     Edge 33, Type (0, 0), BuildingBlock: CIFDUS_clean_linker_0, # of connection points: 2
#     Edge 34, Type (0, 0), BuildingBlock: CIFDUS_clean_linker_0, # of connection points: 2
#     Edge 35, Type (0, 0), BuildingBlock: CIFDUS_clean_linker_0, # of connection points: 2
#     Edge 36, Type (0, 0), BuildingBlock: CIFDUS_clean_linker_0, # of connection points: 2
#     Edge 37, Type (0, 0), BuildingBlock: CIFDUS_clean_linker_0, # of connection points: 2
#     Edge 38, Type (0, 0), BuildingBlock: CIFDUS_clean_linker_0, # of connection points: 2
#     Edge 39, Type (0, 0), BuildingBlock: CIFDUS_clean_linker_0, # of connection points: 2
#     Edge 40, Type (0, 0), BuildingBlock: CIFDUS_clean_linker_0, # of connection points: 2
#     Edge 41, Type (0, 0), BuildingBlock: CIFDUS_clean_linker_0, # of connection points: 2
#     Edge 42, Type (0, 0), BuildingBlock: CIFDUS_clean_linker_0, # of connection points: 2
#     Edge 43, Type (0, 0), BuildingBlock: CIFDUS_clean_linker_0, # of connection points: 2
#     Edge 44, Type (0, 0), BuildingBlock: CIFDUS_clean_linker_0, # of connection points: 2
#     Edge 45, Type (0, 0), BuildingBlock: CIFDUS_clean_linker_0, # of connection points: 2
#     Edge 46, Type (0, 0), BuildingBlock: CIFDUS_clean_linker_0, # of connection points: 2
#     Edge 47, Type (0, 0), BuildingBlock: CIFDUS_clean_linker_0, # of connection points: 2
# Relax obj value: 0.078
# Max RMSD: 0.116
# Mean RMSD: 0.116
data_MOF--net-uot--node1-KUFVIS_clean_sbu_0--edge1-CIFDUS_clean_linker_0
_symmetry_space_group_name_H-M    P1
_symmetry_Int_Tables_number       1
_symmetry_cell_setting            triclinic
loop_
_symmetry_equiv_pos_as_xyz
'x, y, z'
_cell_length_a     38.759774
_cell_length_b     38.770414
_cell_length_c     35.519271
_cell_angle_alpha  89.915596
_cell_angle_beta   89.878978
_cell_angle_gamma 89.903425
loop_
_atom_site_label
_atom_site_type_symbol
_atom_site_fract_x
_atom_site_fract_y
_atom_site_fract_z
_atom_type_partial_charge
Mn0 Mn 0.1801 0.42232 0.34932 0.0
Mn1 Mn 0.13748 0.36619 0.4047 0.0
C2 C 0.14218 0.38308 0.32342 0.0
C3 C 0.18071 0.4758 0.31971 0.0
C4 C 0.21331 0.35882 0.38459 0.0
O5 O 0.18457 0.44349 0.40133 0.0
O6 O 0.15264 0.4061 0.43563 0.0
C7 C 0.07623 0.40885 0.42265 0.0
N8 N 0.09007 0.37965 0.40755 0.0
C9 C 0.0341 0.35958 0.38831 0.0
C10 C 0.01923 0.38932 0.40389 0.0
C11 C 0.0404 0.41405 0.42114 0.0
C12 C 0.06993 0.35563 0.39101 0.0
H13 H 0.09244 0.4281 0.43557 0.0
C14 C 0.17076 0.43359 0.43218 0.0
O15 O 0.20944 0.45934 0.32585 0.0
O16 O 0.15259 0.4619 0.3321 0.0
N17 N 0.12122 0.3269 0.37739 0.0
C18 C 0.13979 0.30062 0.3619 0.0
C19 C 0.12253 0.27409 0.34279 0.0
C20 C 0.08641 0.27489 0.33976 0.0
C21 C 0.06784 0.30214 0.35604 0.0
C22 C 0.08641 0.32762 0.37517 0.0
H23 H 0.16758 0.30002 0.36387 0.0
O24 O 0.16624 0.39668 0.30276 0.0
O25 O 0.14195 0.39248 0.3584 0.0
O26 O 0.21545 0.3849 0.36268 0.0
O27 O 0.18574 0.35026 0.40209 0.0
C28 C 0.03173 0.30542 0.35333 0.0
C29 C 0.01487 0.33411 0.36945 0.0
H30 H 0.99164 0.39359 0.40247 0.0
H31 H 0.02913 0.43716 0.43303 0.0
H32 H 0.13705 0.25322 0.33018 0.0
H33 H 0.07323 0.25463 0.32456 0.0
H34 H 0.01672 0.28623 0.3385 0.0
H35 H 0.98714 0.33655 0.36678 0.0
Mn36 Mn 0.42756 0.81686 0.67689 0.0
Mn37 Mn 0.37294 0.85231 0.6139 0.0
C38 C 0.38495 0.85443 0.69686 0.0
C39 C 0.4798 0.81885 0.70885 0.0
C40 C 0.36659 0.77869 0.64227 0.0
O41 O 0.45178 0.80891 0.62686 0.0
O42 O 0.41502 0.83557 0.58719 0.0
C43 C 0.4148 0.91273 0.59128 0.0
N44 N 0.38503 0.89951 0.60571 0.0
C45 C 0.36099 0.95631 0.61375 0.0
C46 C 0.39129 0.9705 0.59872 0.0
C47 C 0.41832 0.94861 0.58748 0.0
C48 C 0.35883 0.92034 0.61656 0.0
H49 H 0.43574 0.89602 0.58284 0.0
C50 C 0.44309 0.81919 0.59407 0.0
O51 O 0.46382 0.78975 0.70412 0.0
O52 O 0.46587 0.84625 0.6945 0.0
N53 N 0.33147 0.86998 0.63609 0.0
C54 C 0.30495 0.85233 0.65235 0.0
C55 C 0.27638 0.87055 0.66643 0.0
C56 C 0.27532 0.90668 0.66354 0.0
C57 C 0.30279 0.92426 0.64643 0.0
C58 C 0.33043 0.9047 0.63258 0.0
H59 H 0.3057 0.82458 0.65484 0.0
O60 O 0.3989 0.8329 0.72038 0.0
O61 O 0.39658 0.85332 0.66252 0.0
O62 O 0.39211 0.77934 0.6649 0.0
O63 O 0.35801 0.80422 0.62148 0.0
C64 C 0.30415 0.96046 0.6433 0.0
C65 C 0.33321 0.97647 0.62695 0.0
H66 H 0.39423 0.99818 0.59607 0.0
H67 H 0.44187 0.95938 0.57607 0.0
H68 H 0.25531 0.85681 0.67966 0.0
H69 H 0.2534 0.92066 0.6748 0.0
H70 H 0.28321 0.97626 0.65388 0.0
H71 H 0.3342 0.00435 0.62525 0.0
Mn72 Mn 0.81373 0.57806 0.31435 0.0
Mn73 Mn 0.84245 0.62999 0.38345 0.0
C74 C 0.85574 0.61913 0.30194 0.0
C75 C 0.81883 0.52616 0.28173 0.0
C76 C 0.77255 0.63878 0.34586 0.0
O77 O 0.79895 0.55306 0.36224 0.0
O78 O 0.8227 0.58749 0.40636 0.0
C79 C 0.89967 0.58704 0.41271 0.0
N80 N 0.8884 0.61708 0.397 0.0
C81 C 0.94612 0.63983 0.39505 0.0
C82 C 0.95829 0.60923 0.41143 0.0
C83 C 0.93496 0.58273 0.42028 0.0
C84 C 0.91061 0.64282 0.38853 0.0
H85 H 0.88188 0.56647 0.41928 0.0
C86 C 0.80638 0.56023 0.39639 0.0
O87 O 0.78981 0.54299 0.28214 0.0
O88 O 0.8443 0.53909 0.30047 0.0
N89 N 0.86274 0.67147 0.36425 0.0
C90 C 0.84717 0.69838 0.3463 0.0
C91 C 0.86713 0.72657 0.33437 0.0
C92 C 0.90284 0.72678 0.34098 0.0
C93 C 0.91828 0.69884 0.3596 0.0
C94 C 0.89702 0.67164 0.37121 0.0
H95 H 0.81978 0.69825 0.34087 0.0
O96 O 0.83698 0.60706 0.27474 0.0
O97 O 0.84858 0.60716 0.33511 0.0
O98 O 0.7758 0.61461 0.32169 0.0
O99 O 0.79546 0.64569 0.37056 0.0
C100 C 0.95402 0.69657 0.36631 0.0
C101 C 0.96792 0.6671 0.38406 0.0
H102 H 0.98554 0.60565 0.41697 0.0
H103 H 0.94419 0.55895 0.43273 0.0
H104 H 0.85505 0.74797 0.31988 0.0
H105 H 0.91821 0.74838 0.33133 0.0
H106 H 0.97111 0.71715 0.3575 0.0
H107 H 0.9955 0.66547 0.38862 0.0
Mn108 Mn 0.58693 0.17327 0.65446 0.0
Mn109 Mn 0.63811 0.12595 0.59756 0.0
C110 C 0.62389 0.13237 0.67917 0.0
C111 C 0.53476 0.17904 0.6866 0.0
C112 C 0.65306 0.20035 0.61755 0.0
O113 O 0.56463 0.17971 0.60322 0.0
O114 O 0.59991 0.14654 0.56775 0.0
C115 C 0.58815 0.07075 0.57954 0.0
N116 N 0.6191 0.0806 0.59404 0.0
C117 C 0.63306 0.0221 0.61099 0.0
C118 C 0.60144 0.01131 0.596 0.0
C119 C 0.57889 0.03575 0.58023 0.0
C120 C 0.64101 0.05729 0.60925 0.0
H121 H 0.57059 0.08948 0.56769 0.0
C122 C 0.57382 0.16659 0.57178 0.0
O123 O 0.55345 0.20601 0.67907 0.0
O124 O 0.54559 0.14962 0.67415 0.0
N125 N 0.67578 0.1044 0.62333 0.0
C126 C 0.70464 0.11922 0.63794 0.0
C127 C 0.72963 0.09835 0.65533 0.0
C128 C 0.7247 0.06251 0.65747 0.0
C129 C 0.69492 0.04782 0.64197 0.0
C130 C 0.67112 0.06986 0.62455 0.0
H131 H 0.70846 0.14677 0.63656 0.0
O132 O 0.61291 0.15751 0.70009 0.0
O133 O 0.61326 0.13257 0.64461 0.0
O134 O 0.62679 0.20507 0.6388 0.0
O135 O 0.65956 0.17185 0.60088 0.0
C136 C 0.68762 0.01227 0.6437 0.0
C137 C 0.6567 0.99942 0.62825 0.0
H138 H 0.59408 0.98437 0.59674 0.0
H139 H 0.55435 0.02765 0.56879 0.0
H140 H 0.75251 0.10989 0.6673 0.0
H141 H 0.74382 0.04656 0.67134 0.0
H142 H 0.70542 0.99463 0.65722 0.0
H143 H 0.6512 0.97209 0.63013 0.0
Mn144 Mn 0.17184 0.59029 0.67276 0.0
Mn145 Mn 0.12951 0.64664 0.617 0.0
C146 C 0.13567 0.63123 0.69898 0.0
C147 C 0.17277 0.53623 0.70153 0.0
C148 C 0.20577 0.65248 0.63514 0.0
O149 O 0.17528 0.56853 0.62102 0.0
O150 O 0.1438 0.60598 0.5865 0.0
C151 C 0.06739 0.605 0.60072 0.0
N152 N 0.08184 0.63431 0.61463 0.0
C153 C 0.02615 0.6573 0.63122 0.0
C154 C 0.01065 0.62746 0.61682 0.0
C155 C 0.03137 0.60119 0.60156 0.0
C156 C 0.06215 0.65978 0.62933 0.0
H157 H 0.08325 0.58464 0.5892 0.0
C158 C 0.16166 0.5783 0.59012 0.0
O159 O 0.20132 0.5527 0.69477 0.0
O160 O 0.14428 0.55098 0.69141 0.0
N161 N 0.11409 0.68689 0.64329 0.0
C162 C 0.13322 0.71282 0.65845 0.0
C163 C 0.11647 0.74051 0.67625 0.0
C164 C 0.08027 0.74129 0.6782 0.0
C165 C 0.06113 0.7144 0.66221 0.0
C166 C 0.07923 0.68765 0.6445 0.0
H167 H 0.16106 0.71224 0.65722 0.0
O168 O 0.15951 0.61683 0.71929 0.0
O169 O 0.13407 0.62117 0.66418 0.0
O170 O 0.20773 0.62671 0.65754 0.0
O171 O 0.17798 0.66157 0.61852 0.0
C172 C 0.02485 0.71272 0.66387 0.0
C173 C 0.00737 0.68421 0.64835 0.0
H174 H 0.9829 0.62427 0.61776 0.0
H175 H 0.01961 0.57798 0.59062 0.0
H176 H 0.13143 0.76112 0.68862 0.0
H177 H 0.06747 0.76251 0.69231 0.0
H178 H 0.01016 0.73296 0.67751 0.0
H179 H 0.97951 0.68294 0.65036 0.0
Mn180 Mn 0.57719 0.83093 0.32597 0.0
Mn181 Mn 0.62579 0.86415 0.39561 0.0
C182 C 0.61935 0.87167 0.31294 0.0
C183 C 0.52789 0.83512 0.28849 0.0
C184 C 0.63636 0.79203 0.36423 0.0
O185 O 0.54929 0.81948 0.37316 0.0
O186 O 0.58271 0.84467 0.41732 0.0
C187 C 0.58046 0.92197 0.41855 0.0
N188 N 0.61142 0.91049 0.40534 0.0
C189 C 0.63328 0.96842 0.40098 0.0
C190 C 0.6017 0.98085 0.41476 0.0
C191 C 0.57518 0.95752 0.42357 0.0
C192 C 0.63718 0.9327 0.39696 0.0
H193 H 0.5599 0.90416 0.42506 0.0
C194 C 0.55572 0.82799 0.40721 0.0
O195 O 0.54375 0.80577 0.2925 0.0
O196 O 0.53982 0.86113 0.30705 0.0
N197 N 0.66784 0.88418 0.3776 0.0
C198 C 0.6959 0.86817 0.3624 0.0
C199 C 0.72433 0.88799 0.35087 0.0
C200 C 0.72361 0.924 0.35509 0.0
C201 C 0.69449 0.93988 0.37095 0.0
C202 C 0.66707 0.91877 0.38229 0.0
H203 H 0.69648 0.84053 0.3588 0.0
O204 O 0.60875 0.85102 0.28668 0.0
O205 O 0.60544 0.86702 0.34574 0.0
O206 O 0.61287 0.79318 0.33899 0.0
O207 O 0.64268 0.81695 0.38669 0.0
C208 C 0.69129 0.97587 0.37518 0.0
C209 C 0.66072 0.99013 0.39022 0.0
H210 H 0.5974 0.00827 0.41833 0.0
H211 H 0.55067 0.96692 0.43402 0.0
H212 H 0.74666 0.87556 0.33852 0.0
H213 H 0.74542 0.93923 0.34575 0.0
H214 H 0.71201 0.99284 0.36651 0.0
H215 H 0.65841 0.01786 0.39289 0.0
Mn216 Mn 0.81367 0.42449 0.66146 0.0
Mn217 Mn 0.85222 0.37695 0.5941 0.0
C218 C 0.85714 0.38601 0.67689 0.0
C219 C 0.81089 0.47422 0.6974 0.0
C220 C 0.78105 0.36114 0.62507 0.0
O221 O 0.80124 0.45026 0.61349 0.0
O222 O 0.8291 0.41758 0.57051 0.0
C223 C 0.90578 0.42702 0.57071 0.0
N224 N 0.89713 0.39544 0.58465 0.0
C225 C 0.95688 0.37959 0.59125 0.0
C226 C 0.96641 0.41185 0.57672 0.0
C227 C 0.94074 0.43566 0.56642 0.0
C228 C 0.92163 0.37229 0.59455 0.0
H229 H 0.88617 0.44554 0.56306 0.0
C230 C 0.81049 0.44367 0.57972 0.0
O231 O 0.7836 0.45541 0.69241 0.0
O232 O 0.83911 0.46478 0.68073 0.0
N233 N 0.87597 0.33744 0.6136 0.0
C234 C 0.86251 0.30808 0.62878 0.0
C235 C 0.88481 0.2819 0.64127 0.0
C236 C 0.92068 0.28616 0.63804 0.0
C237 C 0.93392 0.3165 0.62212 0.0
C238 C 0.91043 0.34152 0.60973 0.0
H239 H 0.83498 0.30478 0.63163 0.0
O240 O 0.83489 0.3956 0.70218 0.0
O241 O 0.85269 0.3989 0.64351 0.0
O242 O 0.77992 0.38601 0.64847 0.0
O243 O 0.80665 0.35564 0.60311 0.0
C244 C 0.96951 0.32315 0.6187 0.0
C245 C 0.98099 0.35468 0.60328 0.0
H246 H 0.99335 0.41873 0.57365 0.0
H247 H 0.94789 0.46069 0.55537 0.0
H248 H 0.87439 0.2586 0.65364 0.0
H249 H 0.9378 0.26609 0.64816 0.0
H250 H 0.98828 0.30436 0.62823 0.0
H251 H 0.00841 0.35965 0.60118 0.0
Mn252 Mn 0.42016 0.17662 0.32886 0.0
Mn253 Mn 0.36184 0.14442 0.38974 0.0
C254 C 0.37806 0.1388 0.30868 0.0
C255 C 0.47263 0.16991 0.29778 0.0
C256 C 0.35965 0.21793 0.36031 0.0
O257 O 0.44254 0.18513 0.37977 0.0
O258 O 0.4029 0.16046 0.4181 0.0
C259 C 0.4007 0.0831 0.41572 0.0
N260 N 0.3723 0.09694 0.39893 0.0
C261 C 0.34868 0.04061 0.38722 0.0
C262 C 0.37756 0.02576 0.40462 0.0
C263 C 0.40367 0.04711 0.41893 0.0
C264 C 0.34694 0.07665 0.38521 0.0
H265 H 0.42102 0.09939 0.42638 0.0
C266 C 0.43163 0.176 0.4123 0.0
O267 O 0.45859 0.20028 0.3008 0.0
O268 O 0.4573 0.14452 0.31441 0.0
N269 N 0.32139 0.12772 0.36489 0.0
C270 C 0.2963 0.14603 0.34691 0.0
C271 C 0.26869 0.12846 0.3301 0.0
C272 C 0.2672 0.09229 0.33188 0.0
C273 C 0.29328 0.07402 0.35064 0.0
C274 C 0.31992 0.09295 0.36729 0.0
H275 H 0.29749 0.17381 0.34515 0.0
O276 O 0.39261 0.15963 0.28486 0.0
O277 O 0.38796 0.14196 0.34326 0.0
O278 O 0.38569 0.21595 0.33828 0.0
O279 O 0.34908 0.19289 0.38074 0.0
C280 C 0.2943 0.03774 0.35269 0.0
C281 C 0.32198 0.02105 0.37097 0.0
H282 H 0.38012 0.99801 0.40681 0.0
H283 H 0.42614 0.03583 0.43219 0.0
H284 H 0.24874 0.14274 0.31554 0.0
H285 H 0.24611 0.07881 0.31844 0.0
H286 H 0.27416 0.02241 0.33988 0.0
H287 H 0.32269 0.99313 0.37195 0.0
Mn288 Mn 0.68623 0.92265 0.83588 0.0
Mn289 Mn 0.64954 0.87182 0.90134 0.0
C290 C 0.64545 0.88222 0.81858 0.0
C291 C 0.68545 0.97372 0.80206 0.0
C292 C 0.72271 0.86158 0.87243 0.0
O293 O 0.69601 0.94792 0.88467 0.0
O294 O 0.66749 0.91425 0.92624 0.0
C295 C 0.59045 0.9162 0.92278 0.0
N296 N 0.60269 0.88585 0.90877 0.0
C297 C 0.54508 0.86489 0.89835 0.0
C298 C 0.53188 0.89582 0.9129 0.0
C299 C 0.55468 0.92157 0.92517 0.0
C300 C 0.58098 0.86081 0.89707 0.0
H301 H 0.60783 0.93624 0.93187 0.0
C302 C 0.6849 0.94133 0.91776 0.0
O303 O 0.71411 0.95674 0.8064 0.0
O304 O 0.65798 0.96153 0.81796 0.0
N305 N 0.63057 0.83067 0.87998 0.0
C306 C 0.64742 0.80324 0.86452 0.0
C307 C 0.62829 0.77563 0.84989 0.0
C308 C 0.59208 0.77653 0.8512 0.0
C309 C 0.57532 0.805 0.86732 0.0
C310 C 0.59574 0.83157 0.88189 0.0
H311 H 0.67523 0.80252 0.86308 0.0
O312 O 0.66744 0.89366 0.79395 0.0
O313 O 0.64891 0.89435 0.85235 0.0
O314 O 0.72233 0.88597 0.8483 0.0
O315 O 0.69735 0.85494 0.89437 0.0
C316 C 0.53914 0.80839 0.8687 0.0
C317 C 0.52404 0.8383 0.88423 0.0
H318 H 0.50431 0.90021 0.91444 0.0
H319 H 0.54469 0.9456 0.93622 0.0
H320 H 0.64142 0.75382 0.83734 0.0
H321 H 0.57742 0.75539 0.83943 0.0
H322 H 0.5227 0.78834 0.85747 0.0
H323 H 0.4962 0.84079 0.88472 0.0
Mn324 Mn 0.93554 0.32028 0.16279 0.0
Mn325 Mn 0.88275 0.3534 0.09682 0.0
C326 C 0.89496 0.3616 0.17895 0.0
C327 C 0.98715 0.32192 0.19551 0.0
C328 C 0.87336 0.28213 0.13076 0.0
O329 O 0.95983 0.30795 0.11386 0.0
O330 O 0.92414 0.333 0.07175 0.0
C331 C 0.92735 0.41017 0.06956 0.0
N332 N 0.89717 0.39938 0.08535 0.0
C333 C 0.87691 0.45783 0.09144 0.0
C334 C 0.90767 0.46953 0.07499 0.0
C335 C 0.93299 0.44558 0.06402 0.0
C336 C 0.87259 0.42221 0.09592 0.0
H337 H 0.94703 0.3919 0.0614 0.0
C338 C 0.95161 0.3162 0.08023 0.0
O339 O 0.96989 0.29335 0.19274 0.0
O340 O 0.97496 0.34894 0.17861 0.0
N341 N 0.84229 0.37439 0.11777 0.0
C342 C 0.81477 0.35901 0.13479 0.0
C343 C 0.78744 0.37947 0.14816 0.0
C344 C 0.7887 0.41547 0.14392 0.0
C345 C 0.8172 0.43069 0.12612 0.0
C346 C 0.84346 0.40897 0.11293 0.0
H347 H 0.81377 0.33138 0.13839 0.0
O348 O 0.90726 0.34093 0.20441 0.0
O349 O 0.90657 0.35691 0.14503 0.0
O350 O 0.89877 0.28367 0.1534 0.0
O351 O 0.86553 0.30645 0.10794 0.0
C352 C 0.82086 0.4666 0.12157 0.0
C353 C 0.85069 0.48017 0.10424 0.0
H354 H 0.91224 0.49684 0.07095 0.0
H355 H 0.95687 0.45442 0.0515 0.0
H356 H 0.76559 0.36754 0.16197 0.0
H357 H 0.76778 0.43119 0.15471 0.0
H358 H 0.80105 0.48405 0.13166 0.0
H359 H 0.85337 0.50784 0.10126 0.0
Mn360 Mn 0.33318 0.083 0.82295 0.0
Mn361 Mn 0.36853 0.13082 0.89154 0.0
C362 C 0.37369 0.1248 0.80826 0.0
C363 C 0.3364 0.03371 0.78586 0.0
C364 C 0.29568 0.14234 0.86232 0.0
O365 O 0.32297 0.05496 0.87014 0.0
O366 O 0.34949 0.08755 0.91401 0.0
C367 C 0.42672 0.08518 0.91255 0.0
N368 N 0.41506 0.11616 0.89961 0.0
C369 C 0.47303 0.1373 0.89228 0.0
C370 C 0.48564 0.1057 0.90576 0.0
C371 C 0.46238 0.07955 0.91595 0.0
C372 C 0.43721 0.14161 0.88999 0.0
H373 H 0.40897 0.06486 0.92005 0.0
C374 C 0.3326 0.06063 0.90394 0.0
O375 O 0.30709 0.04957 0.79043 0.0
O376 O 0.36288 0.04578 0.80344 0.0
N377 N 0.3883 0.17269 0.87273 0.0
C378 C 0.37205 0.20069 0.8577 0.0
C379 C 0.39174 0.22866 0.84471 0.0
C380 C 0.42788 0.22755 0.84723 0.0
C381 C 0.44402 0.19848 0.86284 0.0
C382 C 0.42305 0.17152 0.87569 0.0
H383 H 0.3443 0.20153 0.85531 0.0
O384 O 0.35191 0.11443 0.78301 0.0
O385 O 0.37011 0.1109 0.84132 0.0
O386 O 0.29599 0.11879 0.83714 0.0
O387 O 0.32114 0.14818 0.88424 0.0
C388 C 0.48012 0.19488 0.86534 0.0
C389 C 0.49461 0.16433 0.8801 0.0
H390 H 0.51314 0.10111 0.90802 0.0
H391 H 0.47192 0.05502 0.92616 0.0
H392 H 0.37909 0.25093 0.83253 0.0
H393 H 0.44299 0.24902 0.83678 0.0
H394 H 0.49699 0.21527 0.85554 0.0
H395 H 0.52241 0.16169 0.88142 0.0
Mn396 Mn 0.08139 0.67805 0.17845 0.0
Mn397 Mn 0.12757 0.63059 0.11714 0.0
C398 C 0.1207 0.63775 0.20016 0.0
C399 C 0.03034 0.6826 0.21278 0.0
C400 C 0.1425 0.70606 0.13347 0.0
O401 O 0.05508 0.6834 0.12968 0.0
O402 O 0.08524 0.64793 0.09143 0.0
C403 C 0.07912 0.57232 0.10762 0.0
N404 N 0.11077 0.58425 0.11786 0.0
C405 C 0.12928 0.52729 0.13585 0.0
C406 C 0.09697 0.51437 0.12522 0.0
C407 C 0.07179 0.537 0.11106 0.0
C408 C 0.13524 0.56268 0.1314 0.0
H409 H 0.05954 0.58966 0.09711 0.0
C410 C 0.05978 0.6682 0.09829 0.0
O411 O 0.04814 0.71008 0.20467 0.0
O412 O 0.04214 0.65337 0.20101 0.0
N413 N 0.1686 0.61199 0.13931 0.0
C414 C 0.19756 0.62889 0.15066 0.0
C415 C 0.22488 0.61009 0.1666 0.0
C416 C 0.22213 0.57416 0.17076 0.0
C417 C 0.19211 0.55733 0.15881 0.0
C418 C 0.1659 0.57736 0.14268 0.0
H419 H 0.19971 0.65653 0.14783 0.0
O420 O 0.11094 0.66289 0.22186 0.0
O421 O 0.10757 0.63796 0.16666 0.0
O422 O 0.11937 0.71045 0.15881 0.0
O423 O 0.14688 0.67761 0.11584 0.0
C424 C 0.18684 0.52159 0.16309 0.0
C425 C 0.15546 0.50658 0.15161 0.0
H426 H 0.09109 0.4872 0.12821 0.0
H427 H 0.04671 0.52726 0.10304 0.0
H428 H 0.24791 0.62329 0.17591 0.0
H429 H 0.24307 0.55982 0.18354 0.0
H430 H 0.20657 0.50549 0.17568 0.0
H431 H 0.15152 0.47915 0.15555 0.0
Mn432 Mn 0.6875 0.08851 0.17615 0.0
Mn433 Mn 0.6434 0.13492 0.11213 0.0
C434 C 0.65023 0.13149 0.19566 0.0
C435 C 0.68913 0.03903 0.21324 0.0
C436 C 0.71912 0.14676 0.12939 0.0
O437 O 0.69166 0.05975 0.12881 0.0
O438 O 0.65976 0.09121 0.08829 0.0
C439 C 0.58361 0.08822 0.10337 0.0
N440 N 0.59645 0.11985 0.11226 0.0
C441 C 0.53978 0.14121 0.12746 0.0
C442 C 0.52593 0.10895 0.11816 0.0
C443 C 0.54795 0.08235 0.10608 0.0
C444 C 0.57548 0.14566 0.12384 0.0
H445 H 0.60048 0.06757 0.09448 0.0
C446 C 0.67812 0.06472 0.09661 0.0
O447 O 0.71758 0.05482 0.20422 0.0
O448 O 0.66059 0.05182 0.20065 0.0
N449 N 0.62583 0.17743 0.13181 0.0
C450 C 0.64353 0.20624 0.14208 0.0
C451 C 0.62537 0.23493 0.15594 0.0
C452 C 0.58927 0.23369 0.1591 0.0
C453 C 0.5716 0.20381 0.14817 0.0
C454 C 0.59103 0.17619 0.13408 0.0
H455 H 0.67131 0.20724 0.14001 0.0
O456 O 0.67453 0.12074 0.21788 0.0
O457 O 0.6489 0.11667 0.16293 0.0
O458 O 0.72216 0.12374 0.15505 0.0
O459 O 0.6911 0.1524 0.11142 0.0
C460 C 0.53557 0.20008 0.1515 0.0
C461 C 0.51967 0.1688 0.14116 0.0
H462 H 0.49848 0.1042 0.12062 0.0
H463 H 0.53748 0.0573 0.09913 0.0
H464 H 0.6392 0.25786 0.16443 0.0
H465 H 0.5754 0.25571 0.17025 0.0
H466 H 0.5199 0.22093 0.16249 0.0
H467 H 0.49202 0.16606 0.14442 0.0
Mn468 Mn 0.07826 0.31516 0.80965 0.0
Mn469 Mn 0.13103 0.34926 0.87478 0.0
C470 C 0.11719 0.35807 0.79318 0.0
C471 C 0.02545 0.31729 0.77854 0.0
C472 C 0.1413 0.27774 0.84137 0.0
O473 O 0.05516 0.30205 0.85921 0.0
O474 O 0.08997 0.32925 0.90053 0.0
C475 C 0.08657 0.40637 0.90161 0.0
N476 N 0.11661 0.39539 0.88562 0.0
C477 C 0.1365 0.45377 0.87801 0.0
C478 C 0.10588 0.46567 0.89463 0.0
C479 C 0.08081 0.44185 0.90647 0.0
C480 C 0.14097 0.41808 0.87425 0.0
H481 H 0.06706 0.3882 0.9104 0.0
C482 C 0.06303 0.3115 0.89256 0.0
O483 O 0.04303 0.28873 0.78 0.0
O484 O 0.03809 0.34384 0.79562 0.0
N485 N 0.17107 0.37 0.85268 0.0
C486 C 0.19819 0.35445 0.83504 0.0
C487 C 0.22512 0.37475 0.82058 0.0
C488 C 0.22387 0.41079 0.82433 0.0
C489 C 0.19573 0.42621 0.84265 0.0
C490 C 0.16986 0.40464 0.85691 0.0
H491 H 0.19917 0.32678 0.8318 0.0
O492 O 0.10523 0.33737 0.76764 0.0
O493 O 0.10661 0.35195 0.82713 0.0
O494 O 0.1163 0.27892 0.81799 0.0
O495 O 0.14817 0.30219 0.86432 0.0
C496 C 0.19197 0.46218 0.84653 0.0
C497 C 0.16238 0.47595 0.8642 0.0
H498 H 0.10119 0.49303 0.89809 0.0
H499 H 0.05702 0.45085 0.9191 0.0
H500 H 0.24667 0.36267 0.80634 0.0
H501 H 0.24447 0.42639 0.8127 0.0
H502 H 0.21146 0.47951 0.83557 0.0
H503 H 0.15957 0.50366 0.86656 0.0
Mn504 Mn 0.31492 0.92146 0.16701 0.0
Mn505 Mn 0.35119 0.86734 0.10436 0.0
C506 C 0.35174 0.87845 0.18763 0.0
C507 C 0.31607 0.97327 0.19919 0.0
C508 C 0.27678 0.8614 0.13064 0.0
O509 O 0.30869 0.94642 0.1173 0.0
O510 O 0.33589 0.91019 0.07752 0.0
C511 C 0.41275 0.90873 0.08444 0.0
N512 N 0.39878 0.87904 0.09819 0.0
C513 C 0.45509 0.85514 0.11001 0.0
C514 C 0.47005 0.88535 0.09571 0.0
C515 C 0.44878 0.91225 0.08288 0.0
C516 C 0.41902 0.85293 0.11049 0.0
H517 H 0.39654 0.92965 0.07491 0.0
C518 C 0.31999 0.93852 0.0847 0.0
O519 O 0.28706 0.95742 0.19347 0.0
O520 O 0.34397 0.95929 0.18598 0.0
N521 N 0.36772 0.82555 0.12686 0.0
C522 C 0.34928 0.79904 0.14205 0.0
C523 C 0.36676 0.7705 0.15722 0.0
C524 C 0.40298 0.7695 0.15665 0.0
C525 C 0.42141 0.79699 0.14071 0.0
C526 C 0.40258 0.82456 0.12556 0.0
H527 H 0.32145 0.79978 0.14291 0.0
O528 O 0.32954 0.89221 0.21058 0.0
O529 O 0.35149 0.8904 0.15338 0.0
O530 O 0.27754 0.88672 0.15344 0.0
O531 O 0.3025 0.85265 0.11011 0.0
C532 C 0.45772 0.79845 0.14002 0.0
C533 C 0.47455 0.8275 0.12468 0.0
H534 H 0.49782 0.88832 0.09483 0.0
H535 H 0.46013 0.93574 0.07203 0.0
H536 H 0.35236 0.74943 0.16958 0.0
H537 H 0.41638 0.74763 0.1688 0.0
H538 H 0.47295 0.77759 0.15168 0.0
H539 H 0.50247 0.82855 0.12481 0.0
Mn540 Mn 0.91092 0.66774 0.84153 0.0
Mn541 Mn 0.86441 0.62851 0.90912 0.0
C542 C 0.86861 0.62854 0.82573 0.0
C543 C 0.95919 0.66662 0.80269 0.0
C544 C 0.85282 0.70289 0.88543 0.0
O545 O 0.94003 0.67487 0.88811 0.0
O546 O 0.90811 0.64628 0.93134 0.0
C547 C 0.91051 0.56928 0.92486 0.0
N548 N 0.87929 0.58163 0.91354 0.0
C549 C 0.8581 0.5242 0.90267 0.0
C550 C 0.88995 0.51086 0.91444 0.0
C551 C 0.91626 0.53351 0.9256 0.0
C552 C 0.85369 0.56006 0.90303 0.0
H553 H 0.93094 0.58657 0.9331 0.0
C554 C 0.93487 0.66354 0.92138 0.0
O555 O 0.94367 0.69567 0.80985 0.0
O556 O 0.94736 0.63915 0.81874 0.0
N557 N 0.82215 0.60983 0.89025 0.0
C558 C 0.79378 0.6269 0.87731 0.0
C559 C 0.76555 0.608 0.86378 0.0
C560 C 0.7668 0.57179 0.86362 0.0
C561 C 0.79625 0.55479 0.87713 0.0
C562 C 0.82345 0.57499 0.89065 0.0
H563 H 0.79283 0.65474 0.87697 0.0
O564 O 0.87837 0.65173 0.80157 0.0
O565 O 0.88332 0.63007 0.85844 0.0
O566 O 0.87595 0.70397 0.85973 0.0
O567 O 0.84695 0.67616 0.90556 0.0
C568 C 0.79997 0.51864 0.87692 0.0
C569 C 0.83085 0.50335 0.88974 0.0
H570 H 0.89462 0.48331 0.91466 0.0
H571 H 0.94098 0.52342 0.93453 0.0
H572 H 0.74298 0.62131 0.85323 0.0
H573 H 0.74513 0.55731 0.85276 0.0
H574 H 0.77941 0.50237 0.86653 0.0
H575 H 0.83356 0.47555 0.88902 0.0
H576 H 0.26716 0.34996 0.3357 0.0
H577 H 0.22655 0.31516 0.44252 0.0
H578 H 0.27066 0.27058 0.44578 0.0
H579 H 0.31662 0.23801 0.41583 0.0
H580 H 0.35703 0.27039 0.30816 0.0
H581 H 0.31747 0.31977 0.308 0.0
C582 C 0.2684 0.33301 0.35998 0.0
C583 C 0.24335 0.33562 0.3886 0.0
C584 C 0.29355 0.30684 0.36139 0.0
C585 C 0.24523 0.31342 0.41986 0.0
C586 C 0.27044 0.28789 0.42178 0.0
C587 C 0.31701 0.25595 0.39236 0.0
C588 C 0.33933 0.25022 0.36178 0.0
C589 C 0.29402 0.28377 0.39223 0.0
C590 C 0.33997 0.27414 0.332 0.0
C591 C 0.31725 0.30228 0.33183 0.0
H592 H 0.31556 0.76475 0.59272 0.0
H593 H 0.36534 0.7243 0.69209 0.0
H594 H 0.32132 0.67938 0.697 0.0
H595 H 0.26532 0.65538 0.67655 0.0
H596 H 0.21566 0.69822 0.57816 0.0
H597 H 0.26304 0.73835 0.56961 0.0
C598 C 0.31712 0.74595 0.61531 0.0
C599 C 0.34353 0.74824 0.64223 0.0
C600 C 0.29146 0.72076 0.61842 0.0
C601 C 0.34526 0.72327 0.67097 0.0
C602 C 0.31996 0.69766 0.67395 0.0
C603 C 0.26511 0.6732 0.65299 0.0
C604 C 0.23667 0.67403 0.6284 0.0
C605 C 0.2924 0.69673 0.64838 0.0
C606 C 0.23689 0.69727 0.59792 0.0
C607 C 0.26404 0.72026 0.59289 0.0
H608 H 0.64919 0.74141 0.31166 0.0
H609 H 0.67412 0.77303 0.42498 0.0
H610 H 0.71623 0.72689 0.42993 0.0
H611 H 0.74928 0.68072 0.4011 0.0
H612 H 0.7265 0.64827 0.28773 0.0
H613 H 0.68003 0.69112 0.28409 0.0
C614 C 0.6635 0.73785 0.33758 0.0
C615 C 0.6587 0.76104 0.36769 0.0
C616 C 0.68826 0.71123 0.34024 0.0
C617 C 0.67753 0.756 0.4011 0.0
C618 C 0.70167 0.72953 0.40406 0.0
C619 C 0.73407 0.68276 0.37559 0.0
C620 C 0.7417 0.66153 0.34461 0.0
C621 C 0.7078 0.70755 0.37357 0.0
C622 C 0.72126 0.66429 0.31204 0.0
C623 C 0.69477 0.68892 0.30987 0.0
H624 H 0.65296 0.26363 0.65146 0.0
H625 H 0.70994 0.20107 0.57208 0.0
H626 H 0.75315 0.24605 0.56588 0.0
H627 H 0.77643 0.30167 0.58497 0.0
H628 H 0.72057 0.36425 0.66516 0.0
H629 H 0.67525 0.32077 0.66866 0.0
C630 C 0.67469 0.25988 0.63262 0.0
C631 C 0.67813 0.22882 0.6125 0.0
C632 C 0.69978 0.28582 0.62929 0.0
C633 C 0.70654 0.22455 0.58815 0.0
C634 C 0.73137 0.2503 0.58451 0.0
C635 C 0.75424 0.30606 0.60301 0.0
C636 C 0.75212 0.33619 0.62488 0.0
C637 C 0.72847 0.28083 0.60526 0.0
C638 C 0.72306 0.34127 0.64807 0.0
C639 C 0.6971 0.31638 0.65017 0.0
H640 H 0.73534 0.80982 0.92223 0.0
H641 H 0.77802 0.86 0.82403 0.0
H642 H 0.8238 0.81677 0.821 0.0
H643 H 0.84883 0.76192 0.84312 0.0
H644 H 0.80488 0.71192 0.94088 0.0
H645 H 0.76275 0.758 0.94707 0.0
C646 C 0.75479 0.8116 0.90032 0.0
C647 C 0.7529 0.838 0.87321 0.0
C648 C 0.7808 0.78649 0.89843 0.0
C649 C 0.77865 0.83993 0.84527 0.0
C650 C 0.80483 0.81512 0.8434 0.0
C651 C 0.83032 0.76128 0.86605 0.0
C652 C 0.82994 0.73316 0.89118 0.0
C653 C 0.80573 0.78784 0.86937 0.0
C654 C 0.80573 0.73296 0.92081 0.0
C655 C 0.78151 0.75934 0.92444 0.0
H656 H 0.77898 0.15426 0.16936 0.0
H657 H 0.72524 0.19226 0.07117 0.0
H658 H 0.76941 0.2358 0.06164 0.0
H659 H 0.82058 0.26613 0.08365 0.0
H660 H 0.87449 0.22922 0.18213 0.0
H661 H 0.83316 0.18217 0.18866 0.0
C662 C 0.77716 0.17173 0.14557 0.0
C663 C 0.74853 0.17008 0.12133 0.0
C664 C 0.80257 0.19716 0.14036 0.0
C665 C 0.74673 0.19301 0.0906 0.0
C666 C 0.772 0.21804 0.08507 0.0
C667 C 0.82355 0.24769 0.10641 0.0
C668 C 0.85047 0.25154 0.13253 0.0
C669 C 0.79958 0.22085 0.11023 0.0
C670 C 0.85397 0.22707 0.16161 0.0
C671 C 0.83027 0.20014 0.16547 0.0
H672 H 0.18781 0.26009 0.89494 0.0
H673 H 0.14785 0.227 0.78761 0.0
H674 H 0.19052 0.18037 0.78559 0.0
H675 H 0.24208 0.15156 0.81253 0.0
H676 H 0.28113 0.18625 0.91986 0.0
H677 H 0.23586 0.22943 0.9235 0.0
C678 C 0.18819 0.24263 0.8711 0.0
C679 C 0.16479 0.24737 0.84131 0.0
C680 C 0.21283 0.21612 0.87001 0.0
C681 C 0.16554 0.22408 0.81096 0.0
C682 C 0.19005 0.19744 0.80972 0.0
C683 C 0.24041 0.16825 0.83693 0.0
C684 C 0.26535 0.1657 0.86566 0.0
C685 C 0.21424 0.19355 0.83884 0.0
C686 C 0.26266 0.18769 0.89706 0.0
C687 C 0.23671 0.2125 0.89925 0.0
H688 H 0.2657 0.80368 0.08883 0.0
H689 H 0.21805 0.86825 0.17328 0.0
H690 H 0.17099 0.827 0.17993 0.0
H691 H 0.14591 0.77019 0.1657 0.0
H692 H 0.19468 0.70578 0.08173 0.0
H693 H 0.23844 0.74945 0.07114 0.0
C694 C 0.24485 0.80906 0.10838 0.0
C695 C 0.24576 0.83896 0.13074 0.0
C696 C 0.21807 0.78504 0.11252 0.0
C697 C 0.21826 0.84541 0.15576 0.0
C698 C 0.19132 0.82174 0.15974 0.0
C699 C 0.16589 0.76581 0.14483 0.0
C700 C 0.167 0.73444 0.12494 0.0
C701 C 0.19138 0.79105 0.13889 0.0
C702 C 0.19311 0.72945 0.0978 0.0
C703 C 0.21829 0.75446 0.09164 0.0
H704 H 0.13017 0.49119 0.27238 0.0
H705 H 0.22622 0.53047 0.31528 0.0
H706 H 0.21696 0.58497 0.28083 0.0
H707 H 0.17857 0.6226 0.24159 0.0
H708 H 0.08374 0.58005 0.19868 0.0
H709 H 0.09527 0.5256 0.2303 0.0
C710 C 0.14918 0.51166 0.27415 0.0
C711 C 0.17846 0.50731 0.29671 0.0
C712 C 0.14371 0.54231 0.25443 0.0
C713 C 0.20336 0.53352 0.29811 0.0
C714 C 0.19794 0.56463 0.27863 0.0
C715 C 0.16081 0.60115 0.23907 0.0
C716 C 0.13065 0.60488 0.21751 0.0
C717 C 0.1678 0.56955 0.25723 0.0
C718 C 0.10741 0.57734 0.21462 0.0
C719 C 0.11389 0.54631 0.23278 0.0
H720 H 0.49434 0.86751 0.75941 0.0
H721 H 0.53657 0.77661 0.7071 0.0
H722 H 0.59232 0.78696 0.7381 0.0
H723 H 0.63021 0.82546 0.77608 0.0
H724 H 0.58534 0.91433 0.83026 0.0
H725 H 0.52934 0.90122 0.80282 0.0
C726 C 0.51571 0.8498 0.75514 0.0
C727 C 0.51182 0.82171 0.73076 0.0
C728 C 0.54714 0.85568 0.7733 0.0
C729 C 0.53926 0.79848 0.7258 0.0
C730 C 0.57107 0.80451 0.74333 0.0
C731 C 0.60792 0.84147 0.78216 0.0
C732 C 0.61156 0.87054 0.80537 0.0
C733 C 0.57554 0.83353 0.7665 0.0
C734 C 0.58283 0.89149 0.81293 0.0
C735 C 0.55089 0.88415 0.7971 0.0
H736 H 0.83706 0.3747 0.22061 0.0
H737 H 0.923 0.42339 0.16479 0.0
H738 H 0.9056 0.47941 0.18973 0.0
H739 H 0.86886 0.51368 0.23163 0.0
H740 H 0.7804 0.46714 0.28456 0.0
H741 H 0.79525 0.4112 0.25615 0.0
C742 C 0.8515 0.39777 0.21359 0.0
C743 C 0.88101 0.39521 0.19071 0.0
C744 C 0.84094 0.43011 0.22757 0.0
C745 C 0.89989 0.42501 0.18194 0.0
C746 C 0.89007 0.45697 0.19631 0.0
C747 C 0.85258 0.49133 0.23639 0.0
C748 C 0.82384 0.49414 0.26021 0.0
C749 C 0.86105 0.4597 0.21968 0.0
C750 C 0.80262 0.46535 0.26611 0.0
C751 C 0.81127 0.43342 0.25013 0.0
H752 H 0.52349 0.13817 0.74543 0.0
H753 H 0.47798 0.22163 0.68267 0.0
H754 H 0.42374 0.21479 0.71818 0.0
H755 H 0.38754 0.17968 0.76209 0.0
H756 H 0.43506 0.09614 0.82332 0.0
H757 H 0.49045 0.10874 0.79416 0.0
C758 C 0.50182 0.15524 0.74001 0.0
C759 C 0.50429 0.18004 0.71138 0.0
C760 C 0.47116 0.15108 0.76035 0.0
C761 C 0.47644 0.20235 0.7047 0.0
C762 C 0.44547 0.19826 0.72482 0.0
C763 C 0.41032 0.16492 0.76954 0.0
C764 C 0.40752 0.13754 0.79542 0.0
C765 C 0.44221 0.17197 0.75198 0.0
C766 C 0.43688 0.11799 0.80438 0.0
C767 C 0.46848 0.12491 0.78737 0.0
H768 H 0.12521 0.51462 0.75063 0.0
H769 H 0.21758 0.48174 0.69334 0.0
H770 H 0.20945 0.42274 0.71744 0.0
H771 H 0.17261 0.3796 0.75098 0.0
H772 H 0.08201 0.41518 0.81003 0.0
H773 H 0.09269 0.474 0.78901 0.0
C774 C 0.14377 0.49458 0.74375 0.0
C775 C 0.17166 0.50217 0.71999 0.0
C776 C 0.13898 0.46118 0.75775 0.0
C777 C 0.19588 0.47631 0.71168 0.0
C778 C 0.19107 0.44261 0.72519 0.0
C779 C 0.15559 0.40044 0.7594 0.0
C780 C 0.12678 0.39336 0.78222 0.0
C781 C 0.1622 0.43455 0.74759 0.0
C782 C 0.10459 0.42028 0.79287 0.0
C783 C 0.1106 0.45386 0.78078 0.0
H784 H 0.41781 0.89647 0.17862 0.0
H785 H 0.35274 0.82245 0.23442 0.0
H786 H 0.403 0.79862 0.26768 0.0
H787 H 0.46498 0.80319 0.28541 0.0
H788 H 0.52787 0.88068 0.23188 0.0
H789 H 0.47946 0.89814 0.19228 0.0
C790 C 0.41488 0.87444 0.19725 0.0
C791 C 0.382 0.86051 0.2034 0.0
C792 C 0.4436 0.86164 0.21674 0.0
C793 C 0.37808 0.83306 0.22884 0.0
C794 C 0.40676 0.81956 0.24787 0.0
C795 C 0.46807 0.82332 0.26444 0.0
C796 C 0.49979 0.84062 0.26129 0.0
C797 C 0.4396 0.83416 0.24267 0.0
C798 C 0.50357 0.86709 0.23462 0.0
C799 C 0.47591 0.87719 0.21215 0.0
H800 H 0.85538 0.48301 0.75326 0.0
H801 H 0.76773 0.53025 0.6996 0.0
H802 H 0.77551 0.58247 0.73804 0.0
H803 H 0.81208 0.61661 0.78195 0.0
H804 H 0.89914 0.56721 0.83497 0.0
H805 H 0.88644 0.51355 0.8025 0.0
C806 C 0.83772 0.50463 0.75047 0.0
C807 C 0.81143 0.50339 0.72358 0.0
C808 C 0.84226 0.53401 0.77261 0.0
C809 C 0.78823 0.53102 0.72026 0.0
C810 C 0.7928 0.56079 0.74205 0.0
C811 C 0.82762 0.59375 0.78686 0.0
C812 C 0.85606 0.59547 0.81121 0.0
C813 C 0.82038 0.56292 0.7676 0.0
C814 C 0.87656 0.56609 0.81706 0.0
C815 C 0.86957 0.53553 0.79821 0.0
H816 H 0.58699 0.10551 0.19509 0.0
H817 H 0.64571 0.19172 0.23589 0.0
H818 H 0.59438 0.21402 0.26888 0.0
H819 H 0.53319 0.20609 0.28941 0.0
H820 H 0.47757 0.11674 0.25044 0.0
H821 H 0.52685 0.09896 0.21261 0.0
C822 C 0.58827 0.12962 0.21052 0.0
C823 C 0.61947 0.14761 0.21231 0.0
C824 C 0.55918 0.14156 0.22982 0.0
C825 C 0.62151 0.17795 0.23366 0.0
C826 C 0.59226 0.19057 0.25251 0.0
C827 C 0.53194 0.18305 0.2722 0.0
C828 C 0.50204 0.16258 0.27278 0.0
C829 C 0.56098 0.17227 0.25124 0.0
C830 C 0.50056 0.13262 0.25068 0.0
C831 C 0.52868 0.12241 0.22908 0.0
H832 H 0.63573 0.98634 0.75266 0.0
H833 H 0.72897 0.02943 0.79838 0.0
H834 H 0.71857 0.08349 0.76368 0.0
H835 H 0.67997 0.11953 0.72349 0.0
H836 H 0.58891 0.07331 0.67581 0.0
H837 H 0.60113 0.01931 0.70836 0.0
C838 C 0.6539 0.00753 0.75474 0.0
C839 C 0.68273 0.00445 0.77817 0.0
C840 C 0.6479 0.03791 0.73467 0.0
C841 C 0.70655 0.03156 0.78036 0.0
C842 C 0.70046 0.0624 0.76081 0.0
C843 C 0.66319 0.0974 0.72015 0.0
C844 C 0.6339 0.0999 0.69714 0.0
C845 C 0.67079 0.06609 0.73844 0.0
C846 C 0.6119 0.0715 0.69304 0.0
C847 C 0.61879 0.04074 0.71167 0.0
H848 H 0.13178 0.32849 0.27622 0.0
H849 H 0.08144 0.41508 0.32912 0.0
H850 H 0.02839 0.40288 0.29502 0.0
H851 H 0.99748 0.37 0.24746 0.0
H852 H 0.0446 0.28065 0.197 0.0
H853 H 0.09773 0.29093 0.23317 0.0
C854 C 0.10894 0.34423 0.28043 0.0
C855 C 0.11009 0.37234 0.30524 0.0
C856 C 0.0782 0.33665 0.26115 0.0
C857 C 0.08073 0.39298 0.31047 0.0
C858 C 0.05051 0.38615 0.29091 0.0
C859 C 0.01938 0.35268 0.24466 0.0
C860 C 0.01772 0.32503 0.21947 0.0
C861 C 0.04914 0.35841 0.26583 0.0
C862 C 0.04569 0.30221 0.21632 0.0
C863 C 0.07597 0.30819 0.23679 0.0
H864 H 0.30623 0.97014 0.78761 0.0
H865 H 0.37961 0.03282 0.72727 0.0
H866 H 0.39922 0.98266 0.69174 0.0
H867 H 0.40088 0.92028 0.68391 0.0
H868 H 0.32984 0.85584 0.74498 0.0
H869 H 0.30414 0.90705 0.77477 0.0
C870 C 0.32572 0.97275 0.76584 0.0
C871 C 0.34137 0.00492 0.75964 0.0
C872 C 0.33773 0.94344 0.74636 0.0
C873 C 0.36718 0.00818 0.73214 0.0
C874 C 0.3786 0.97953 0.71212 0.0
C875 C 0.37905 0.91762 0.70287 0.0
C876 C 0.36646 0.88472 0.71152 0.0
C877 C 0.36486 0.94693 0.71987 0.0
C878 C 0.33938 0.8812 0.73751 0.0
C879 C 0.32477 0.9104 0.75447 0.0
H880 H 0.87453 0.67597 0.26055 0.0
H881 H 0.91474 0.58957 0.32331 0.0
H882 H 0.9734 0.60527 0.3059 0.0
H883 H 0.01257 0.63932 0.26752 0.0
H884 H 0.97461 0.72566 0.20343 0.0
H885 H 0.91591 0.71515 0.22744 0.0
C886 C 0.89632 0.66106 0.27068 0.0
C887 C 0.89059 0.63197 0.29353 0.0
C888 C 0.93025 0.6703 0.26046 0.0
C889 C 0.91874 0.61241 0.30623 0.0
C890 C 0.95224 0.62128 0.2962 0.0
C891 C 0.99153 0.65634 0.25955 0.0
C892 C 0.99759 0.68306 0.23379 0.0
C893 C 0.95821 0.64967 0.27275 0.0
C894 C 0.9704 0.7051 0.22359 0.0
C895 C 0.93686 0.69877 0.23691 0.0
H896 H 0.64305 0.02531 0.26668 0.0
H897 H 0.73132 0.982 0.21003 0.0
H898 H 0.71895 0.92528 0.23821 0.0
H899 H 0.678 0.88685 0.27291 0.0
H900 H 0.58972 0.9323 0.32794 0.0
H901 H 0.60689 0.98935 0.30642 0.0
C902 C 0.65999 0.00356 0.26115 0.0
C903 C 0.68781 0.00749 0.23626 0.0
C904 C 0.65234 0.97136 0.27675 0.0
C905 C 0.70984 0.97942 0.22939 0.0
C906 C 0.7025 0.947 0.24512 0.0
C907 C 0.663 0.90944 0.28047 0.0
C908 C 0.63299 0.90568 0.30238 0.0
C909 C 0.67305 0.94241 0.26781 0.0
C910 C 0.61329 0.93483 0.31171 0.0
C911 C 0.62299 0.9674 0.2993 0.0
H912 H 0.87347 0.32761 0.71637 0.0
H913 H 0.91691 0.41896 0.66588 0.0
H914 H 0.97364 0.40432 0.69084 0.0
H915 H 0.00985 0.36814 0.7309 0.0
H916 H 0.96896 0.27476 0.77906 0.0
H917 H 0.91235 0.28698 0.75063 0.0
C918 C 0.89558 0.34389 0.71057 0.0
C919 C 0.89135 0.37406 0.68909 0.0
C920 C 0.92839 0.33497 0.72459 0.0
C921 C 0.91987 0.39532 0.6819 0.0
C922 C 0.95222 0.38707 0.69627 0.0
C923 C 0.9886 0.35026 0.73471 0.0
C924 C 0.99315 0.32087 0.75719 0.0
C925 C 0.95663 0.35731 0.71812 0.0
C926 C 0.96581 0.29754 0.76171 0.0
C927 C 0.9335 0.30469 0.74573 0.0
H928 H 0.3236 0.12466 0.26239 0.0
H929 H 0.40759 0.07824 0.32381 0.0
H930 H 0.39403 0.02203 0.29731 0.0
H931 H 0.36161 0.9871 0.25293 0.0
H932 H 0.27552 0.03088 0.1931 0.0
H933 H 0.28593 0.08708 0.22312 0.0
C934 C 0.33844 0.10201 0.27016 0.0
C935 C 0.36625 0.1052 0.29513 0.0
C936 C 0.3302 0.06952 0.2551 0.0
C937 C 0.38573 0.07604 0.30499 0.0
C938 C 0.37812 0.04398 0.28977 0.0
C939 C 0.34491 0.00892 0.24688 0.0
C940 C 0.31824 0.00538 0.22073 0.0
C941 C 0.35088 0.04058 0.26433 0.0
C942 C 0.29627 0.03336 0.21329 0.0
C943 C 0.30237 0.0654 0.23021 0.0
H944 H 0.07071 0.61062 0.6922 0.0
H945 H 0.13422 0.68465 0.74953 0.0
H946 H 0.08347 0.70615 0.78416 0.0
H947 H 0.02128 0.70012 0.80125 0.0
H948 H 0.96004 0.62367 0.74418 0.0
H949 H 0.00928 0.60758 0.70518 0.0
C950 C 0.07322 0.63207 0.7116 0.0
C951 C 0.10564 0.64684 0.71767 0.0
C952 C 0.04426 0.64383 0.73126 0.0
C953 C 0.10915 0.67346 0.74407 0.0
C954 C 0.0802 0.68568 0.76375 0.0
C955 C 0.01872 0.68066 0.77953 0.0
C956 C 0.98727 0.66314 0.77522 0.0
C957 C 0.04761 0.67073 0.75791 0.0
C958 C 0.98413 0.63745 0.7477 0.0
C959 C 0.01226 0.62807 0.72565 0.0
H960 H 0.17091 0.50901 0.58894 0.0
H961 H 0.16178 0.59795 0.51644 0.0
H962 H 0.16707 0.56107 0.46097 0.0
H963 H 0.17144 0.50328 0.43311 0.0
H964 H 0.17547 0.41402 0.50555 0.0
H965 H 0.17538 0.45126 0.5611 0.0
C966 C 0.1704 0.52032 0.56099 0.0
C967 C 0.16604 0.5561 0.55674 0.0
C968 C 0.17254 0.4989 0.52927 0.0
C969 C 0.16493 0.57041 0.52039 0.0
C970 C 0.16804 0.54938 0.48869 0.0
C971 C 0.17282 0.49208 0.46108 0.0
C972 C 0.17374 0.45608 0.46538 0.0
C973 C 0.17151 0.51357 0.4928 0.0
C974 C 0.17478 0.44173 0.50169 0.0
C975 C 0.17467 0.46298 0.53339 0.0
H976 H 0.56812 0.81555 0.48087 0.0
H977 H 0.48564 0.82362 0.4 0.0
H978 H 0.44301 0.81951 0.45081 0.0
H979 H 0.42958 0.8188 0.51874 0.0
H980 H 0.51255 0.80908 0.59903 0.0
H981 H 0.55457 0.80838 0.54785 0.0
C982 C 0.54079 0.81602 0.47434 0.0
C983 C 0.53001 0.82027 0.43683 0.0
C984 C 0.51655 0.81357 0.50359 0.0
C985 C 0.49456 0.82032 0.42866 0.0
C986 C 0.47021 0.8182 0.45772 0.0
C987 C 0.45684 0.81619 0.525 0.0
C988 C 0.46789 0.81439 0.56271 0.0
C989 C 0.48094 0.81563 0.49537 0.0
C990 C 0.50328 0.81051 0.57031 0.0
C991 C 0.52738 0.81027 0.54106 0.0
H992 H 0.79687 0.5712 0.47123 0.0
H993 H 0.80075 0.49054 0.38773 0.0
H994 H 0.79967 0.44687 0.43737 0.0
H995 H 0.80401 0.43189 0.50458 0.0
H996 H 0.7985 0.51256 0.58798 0.0
H997 H 0.7935 0.55587 0.53831 0.0
C998 C 0.79694 0.54405 0.46389 0.0
C999 C 0.79928 0.53415 0.42587 0.0
C1000 C 0.79631 0.51907 0.49256 0.0
C1001 C 0.79889 0.49888 0.41676 0.0
C1002 C 0.79854 0.47387 0.44515 0.0
C1003 C 0.80126 0.45892 0.51187 0.0
C1004 C 0.80206 0.46901 0.5499 0.0
C1005 C 0.79824 0.4837 0.48316 0.0
C1006 C 0.79796 0.50407 0.55894 0.0
C1007 C 0.79529 0.5289 0.53054 0.0
H1008 H 0.5015 0.17606 0.4137 0.0
H1009 H 0.41178 0.18707 0.48476 0.0
H1010 H 0.44845 0.18879 0.54058 0.0
H1011 H 0.50549 0.18185 0.56948 0.0
H1012 H 0.59467 0.1661 0.49858 0.0
H1013 H 0.55885 0.17174 0.44247 0.0
C1014 C 0.49009 0.17947 0.44137 0.0
C1015 C 0.45408 0.18143 0.44519 0.0
C1016 C 0.51121 0.17924 0.47339 0.0
C1017 C 0.4395 0.18534 0.4812 0.0
C1018 C 0.46042 0.18628 0.5131 0.0
C1019 C 0.51713 0.18019 0.54173 0.0
C1020 C 0.5526 0.17346 0.53815 0.0
C1021 C 0.49624 0.18245 0.5096 0.0
C1022 C 0.56732 0.171 0.50204 0.0
C1023 C 0.54689 0.17425 0.46994 0.0
H1024 H 0.68501 0.07326 0.02115 0.0
H1025 H 0.68137 0.99546 0.10795 0.0
H1026 H 0.6848 0.95006 0.06037 0.0
H1027 H 0.68568 0.93254 0.99381 0.0
H1028 H 0.69275 0.01047 0.90725 0.0
H1029 H 0.69168 0.05567 0.95496 0.0
C1030 C 0.68513 0.04635 0.02955 0.0
C1031 C 0.68258 0.03764 0.06785 0.0
C1032 C 0.68783 0.02041 0.00212 0.0
C1033 C 0.68332 0.00274 0.07856 0.0
C1034 C 0.68519 0.97679 0.05139 0.0
C1035 C 0.68737 0.9594 0.98545 0.0
C1036 C 0.68909 0.96809 0.94705 0.0
C1037 C 0.68704 0.98532 0.01306 0.0
C1038 C 0.6916 0.00302 0.93664 0.0
C1039 C 0.69073 0.02894 0.96389 0.0
H1040 H 0.07653 0.30586 0.96737 0.0
H1041 H 0.99337 0.30299 0.88687 0.0
H1042 H 0.95124 0.30187 0.93812 0.0
H1043 H 0.93801 0.30751 0.00569 0.0
H1044 H 0.02129 0.30843 0.08614 0.0
H1045 H 0.06333 0.30421 0.03506 0.0
C1046 C 0.0492 0.30449 0.96106 0.0
C1047 C 0.03811 0.30486 0.92337 0.0
C1048 C 0.02511 0.30378 0.99066 0.0
C1049 C 0.00262 0.30265 0.91563 0.0
C1050 C 0.97848 0.30226 0.94493 0.0
C1051 C 0.96535 0.30637 0.01203 0.0
C1052 C 0.9765 0.30868 0.04963 0.0
C1053 C 0.98942 0.30372 0.98253 0.0
C1054 C 0.01199 0.30668 0.05746 0.0
C1055 C 0.03608 0.30445 0.02825 0.0
H1056 H 0.32308 0.06953 0.9791 0.0
H1057 H 0.3278 0.99111 0.89325 0.0
H1058 H 0.32319 0.9461 0.94132 0.0
H1059 H 0.32134 0.92898 0.00834 0.0
H1060 H 0.3135 0.00793 0.09355 0.0
H1061 H 0.31553 0.05255 0.04525 0.0
C1062 C 0.32281 0.04258 0.97092 0.0
C1063 C 0.32604 0.03369 0.93271 0.0
C1064 C 0.31969 0.01686 0.99864 0.0
C1065 C 0.32523 0.99867 0.92248 0.0
C1066 C 0.32278 0.9729 0.94998 0.0
C1067 C 0.31976 0.95594 0.01628 0.0
C1068 C 0.31748 0.965 0.05458 0.0
C1069 C 0.32052 0.98166 0.98823 0.0
C1070 C 0.31512 0.00011 0.06433 0.0
C1071 C 0.31647 0.02574 0.03672 0.0
H1072 H 0.92721 0.67238 0.99653 0.0
H1073 H 0.00408 0.66533 0.90889 0.0
H1074 H 0.04999 0.66712 0.95594 0.0
H1075 H 0.06805 0.6671 0.02237 0.0
H1076 H 0.99114 0.67764 0.10962 0.0
H1077 H 0.94548 0.6783 0.06238 0.0
C1078 C 0.95404 0.67153 0.98781 0.0
C1079 C 0.96233 0.66845 0.94947 0.0
C1080 C 0.98025 0.67307 0.0149 0.0
C1081 C 0.99713 0.66782 0.93833 0.0
C1082 C 0.02337 0.66865 0.96519 0.0
C1083 C 0.0413 0.66981 0.03091 0.0
C1084 C 0.0329 0.67204 0.06931 0.0
C1085 C 0.0152 0.67072 0.00359 0.0
C1086 C 0.99822 0.67599 0.08014 0.0
C1087 C 0.97208 0.67621 0.0532 0.0
loop_
_geom_bond_atom_site_label_1
_geom_bond_atom_site_label_2
_geom_bond_distance
_geom_bond_site_symmetry_2
_ccdc_geom_bond_type
Mn0 O5 2.095 . S
Mn0 O15 2.162 . S
Mn0 O16 2.297 . S
Mn0 O24 2.385 . S
Mn0 O25 2.209 . S
Mn0 O26 2.094 . S
Mn1 O6 2.121 . S
Mn1 N8 2.257 . S
Mn1 N17 2.282 . S
Mn1 O25 2.215 . S
Mn1 O27 2.117 . S
C2 O24 1.234 . S
C2 O25 1.283 . S
C3 O15 1.281 . S
C3 O16 1.236 . S
C4 O26 1.240 . S
C4 O27 1.264 . S
O5 Mn0 2.095 . S
O5 C14 1.250 . S
O6 Mn1 2.121 . S
O6 C14 1.258 . S
C7 N8 1.326 . S
C7 C11 1.460 . S
C7 H13 0.929 . S
N8 Mn1 2.257 . S
N8 C7 1.326 . S
N8 C12 1.362 . S
C9 C10 1.258 . S
C9 C12 1.431 . S
C9 C29 1.449 . S
C10 C9 1.258 . S
C10 C11 1.477 . S
C10 H30 0.931 . S
C11 C7 1.460 . S
C11 C10 1.477 . S
C11 H31 0.930 . S
C12 N8 1.362 . S
C12 C9 1.431 . S
C12 C22 1.476 . S
H13 C7 0.929 . S
C14 O5 1.250 . S
C14 O6 1.258 . S
O15 Mn0 2.162 . S
O15 C3 1.281 . S
O16 Mn0 2.297 . S
O16 C3 1.236 . S
N17 Mn1 2.282 . S
N17 C18 1.328 . S
N17 C22 1.318 . S
C18 N17 1.328 . S
C18 C19 1.457 . S
C18 H23 0.929 . S
C19 C18 1.457 . S
C19 C20 1.291 . S
C19 H32 0.931 . S
C20 C19 1.291 . S
C20 C21 1.373 . S
C20 H33 0.929 . S
C21 C20 1.373 . S
C21 C22 1.396 . S
C21 C28 1.403 . S
C22 C12 1.476 . S
C22 N17 1.318 . S
C22 C21 1.396 . S
H23 C18 0.929 . S
O24 Mn0 2.385 . S
O24 C2 1.234 . S
O25 Mn0 2.209 . S
O25 Mn1 2.215 . S
O25 C2 1.283 . S
O26 Mn0 2.094 . S
O26 C4 1.240 . S
O27 Mn1 2.117 . S
O27 C4 1.264 . S
C28 C21 1.403 . S
C28 C29 1.399 . S
C28 H34 0.929 . S
C29 C9 1.449 . S
C29 C28 1.399 . S
C29 H35 0.930 . S
H30 C10 0.931 . S
H31 C11 0.930 . S
H32 C19 0.931 . S
H33 C20 0.929 . S
H34 C28 0.929 . S
H35 C29 0.930 . S
Mn36 O41 2.095 . S
Mn36 O51 2.162 . S
Mn36 O52 2.297 . S
Mn36 O60 2.385 . S
Mn36 O61 2.209 . S
Mn36 O62 2.094 . S
Mn37 O42 2.121 . S
Mn37 N44 2.257 . S
Mn37 N53 2.282 . S
Mn37 O61 2.215 . S
Mn37 O63 2.117 . S
C38 O60 1.234 . S
C38 O61 1.283 . S
C39 O51 1.281 . S
C39 O52 1.236 . S
C40 O62 1.240 . S
C40 O63 1.264 . S
O41 Mn36 2.095 . S
O41 C50 1.250 . S
O42 Mn37 2.121 . S
O42 C50 1.258 . S
C43 N44 1.326 . S
C43 C47 1.460 . S
C43 H49 0.929 . S
N44 Mn37 2.257 . S
N44 C43 1.326 . S
N44 C48 1.362 . S
C45 C46 1.258 . S
C45 C48 1.431 . S
C45 C65 1.449 . S
C46 C45 1.258 . S
C46 C47 1.477 . S
C46 H66 0.931 . S
C47 C43 1.460 . S
C47 C46 1.477 . S
C47 H67 0.930 . S
C48 N44 1.362 . S
C48 C45 1.431 . S
C48 C58 1.476 . S
H49 C43 0.929 . S
C50 O41 1.250 . S
C50 O42 1.258 . S
O51 Mn36 2.162 . S
O51 C39 1.281 . S
O52 Mn36 2.297 . S
O52 C39 1.236 . S
N53 Mn37 2.282 . S
N53 C54 1.328 . S
N53 C58 1.318 . S
C54 N53 1.328 . S
C54 C55 1.457 . S
C54 H59 0.929 . S
C55 C54 1.457 . S
C55 C56 1.291 . S
C55 H68 0.931 . S
C56 C55 1.291 . S
C56 C57 1.373 . S
C56 H69 0.929 . S
C57 C56 1.373 . S
C57 C58 1.396 . S
C57 C64 1.403 . S
C58 C48 1.476 . S
C58 N53 1.318 . S
C58 C57 1.396 . S
H59 C54 0.929 . S
O60 Mn36 2.385 . S
O60 C38 1.234 . S
O61 Mn36 2.209 . S
O61 Mn37 2.215 . S
O61 C38 1.283 . S
O62 Mn36 2.094 . S
O62 C40 1.240 . S
O63 Mn37 2.117 . S
O63 C40 1.264 . S
C64 C57 1.403 . S
C64 C65 1.399 . S
C64 H70 0.929 . S
C65 C45 1.449 . S
C65 C64 1.399 . S
C65 H71 0.930 . S
H66 C46 0.931 . S
H67 C47 0.930 . S
H68 C55 0.931 . S
H69 C56 0.929 . S
H70 C64 0.929 . S
H71 C65 0.930 . S
Mn72 O77 2.095 . S
Mn72 O87 2.162 . S
Mn72 O88 2.297 . S
Mn72 O96 2.385 . S
Mn72 O97 2.209 . S
Mn72 O98 2.094 . S
Mn73 O78 2.121 . S
Mn73 N80 2.257 . S
Mn73 N89 2.282 . S
Mn73 O97 2.215 . S
Mn73 O99 2.117 . S
C74 O96 1.234 . S
C74 O97 1.283 . S
C75 O87 1.281 . S
C75 O88 1.236 . S
C76 O98 1.240 . S
C76 O99 1.264 . S
O77 Mn72 2.095 . S
O77 C86 1.250 . S
O78 Mn73 2.121 . S
O78 C86 1.258 . S
C79 N80 1.326 . S
C79 C83 1.460 . S
C79 H85 0.929 . S
N80 Mn73 2.257 . S
N80 C79 1.326 . S
N80 C84 1.362 . S
C81 C82 1.258 . S
C81 C84 1.431 . S
C81 C101 1.449 . S
C82 C81 1.258 . S
C82 C83 1.477 . S
C82 H102 0.931 . S
C83 C79 1.460 . S
C83 C82 1.477 . S
C83 H103 0.930 . S
C84 N80 1.362 . S
C84 C81 1.431 . S
C84 C94 1.476 . S
H85 C79 0.929 . S
C86 O77 1.250 . S
C86 O78 1.258 . S
O87 Mn72 2.162 . S
O87 C75 1.281 . S
O88 Mn72 2.297 . S
O88 C75 1.236 . S
N89 Mn73 2.282 . S
N89 C90 1.328 . S
N89 C94 1.318 . S
C90 N89 1.328 . S
C90 C91 1.457 . S
C90 H95 0.929 . S
C91 C90 1.457 . S
C91 C92 1.291 . S
C91 H104 0.931 . S
C92 C91 1.291 . S
C92 C93 1.373 . S
C92 H105 0.929 . S
C93 C92 1.373 . S
C93 C94 1.396 . S
C93 C100 1.403 . S
C94 C84 1.476 . S
C94 N89 1.318 . S
C94 C93 1.396 . S
H95 C90 0.929 . S
O96 Mn72 2.385 . S
O96 C74 1.234 . S
O97 Mn72 2.209 . S
O97 Mn73 2.215 . S
O97 C74 1.283 . S
O98 Mn72 2.094 . S
O98 C76 1.240 . S
O99 Mn73 2.117 . S
O99 C76 1.264 . S
C100 C93 1.403 . S
C100 C101 1.399 . S
C100 H106 0.929 . S
C101 C81 1.449 . S
C101 C100 1.399 . S
C101 H107 0.930 . S
H102 C82 0.931 . S
H103 C83 0.930 . S
H104 C91 0.931 . S
H105 C92 0.929 . S
H106 C100 0.929 . S
H107 C101 0.930 . S
Mn108 O113 2.095 . S
Mn108 O123 2.162 . S
Mn108 O124 2.297 . S
Mn108 O132 2.385 . S
Mn108 O133 2.209 . S
Mn108 O134 2.094 . S
Mn109 O114 2.121 . S
Mn109 N116 2.257 . S
Mn109 N125 2.282 . S
Mn109 O133 2.215 . S
Mn109 O135 2.117 . S
C110 O132 1.234 . S
C110 O133 1.283 . S
C111 O123 1.281 . S
C111 O124 1.236 . S
C112 O134 1.240 . S
C112 O135 1.264 . S
O113 Mn108 2.095 . S
O113 C122 1.250 . S
O114 Mn109 2.121 . S
O114 C122 1.258 . S
C115 N116 1.326 . S
C115 C119 1.460 . S
C115 H121 0.929 . S
N116 Mn109 2.257 . S
N116 C115 1.326 . S
N116 C120 1.362 . S
C117 C118 1.258 . S
C117 C120 1.431 . S
C117 C137 1.449 . S
C118 C117 1.258 . S
C118 C119 1.477 . S
C118 H138 0.931 . S
C119 C115 1.460 . S
C119 C118 1.477 . S
C119 H139 0.930 . S
C120 N116 1.362 . S
C120 C117 1.431 . S
C120 C130 1.476 . S
H121 C115 0.929 . S
C122 O113 1.250 . S
C122 O114 1.258 . S
O123 Mn108 2.162 . S
O123 C111 1.281 . S
O124 Mn108 2.297 . S
O124 C111 1.236 . S
N125 Mn109 2.282 . S
N125 C126 1.328 . S
N125 C130 1.318 . S
C126 N125 1.328 . S
C126 C127 1.457 . S
C126 H131 0.929 . S
C127 C126 1.457 . S
C127 C128 1.291 . S
C127 H140 0.931 . S
C128 C127 1.291 . S
C128 C129 1.373 . S
C128 H141 0.929 . S
C129 C128 1.373 . S
C129 C130 1.396 . S
C129 C136 1.403 . S
C130 C120 1.476 . S
C130 N125 1.318 . S
C130 C129 1.396 . S
H131 C126 0.929 . S
O132 Mn108 2.385 . S
O132 C110 1.234 . S
O133 Mn108 2.209 . S
O133 Mn109 2.215 . S
O133 C110 1.283 . S
O134 Mn108 2.094 . S
O134 C112 1.240 . S
O135 Mn109 2.117 . S
O135 C112 1.264 . S
C136 C129 1.403 . S
C136 C137 1.399 . S
C136 H142 0.929 . S
C137 C117 1.449 . S
C137 C136 1.399 . S
C137 H143 0.930 . S
H138 C118 0.931 . S
H139 C119 0.930 . S
H140 C127 0.931 . S
H141 C128 0.929 . S
H142 C136 0.929 . S
H143 C137 0.930 . S
Mn144 O149 2.095 . S
Mn144 O159 2.162 . S
Mn144 O160 2.297 . S
Mn144 O168 2.385 . S
Mn144 O169 2.209 . S
Mn144 O170 2.094 . S
Mn145 O150 2.121 . S
Mn145 N152 2.257 . S
Mn145 N161 2.282 . S
Mn145 O169 2.215 . S
Mn145 O171 2.117 . S
C146 O168 1.234 . S
C146 O169 1.283 . S
C147 O159 1.281 . S
C147 O160 1.236 . S
C148 O170 1.240 . S
C148 O171 1.264 . S
O149 Mn144 2.095 . S
O149 C158 1.250 . S
O150 Mn145 2.121 . S
O150 C158 1.258 . S
C151 N152 1.326 . S
C151 C155 1.460 . S
C151 H157 0.929 . S
N152 Mn145 2.257 . S
N152 C151 1.326 . S
N152 C156 1.362 . S
C153 C154 1.258 . S
C153 C156 1.431 . S
C153 C173 1.449 . S
C154 C153 1.258 . S
C154 C155 1.477 . S
C154 H174 0.931 . S
C155 C151 1.460 . S
C155 C154 1.477 . S
C155 H175 0.930 . S
C156 N152 1.362 . S
C156 C153 1.431 . S
C156 C166 1.476 . S
H157 C151 0.929 . S
C158 O149 1.250 . S
C158 O150 1.258 . S
O159 Mn144 2.162 . S
O159 C147 1.281 . S
O160 Mn144 2.297 . S
O160 C147 1.236 . S
N161 Mn145 2.282 . S
N161 C162 1.328 . S
N161 C166 1.318 . S
C162 N161 1.328 . S
C162 C163 1.457 . S
C162 H167 0.929 . S
C163 C162 1.457 . S
C163 C164 1.291 . S
C163 H176 0.931 . S
C164 C163 1.291 . S
C164 C165 1.373 . S
C164 H177 0.929 . S
C165 C164 1.373 . S
C165 C166 1.396 . S
C165 C172 1.403 . S
C166 C156 1.476 . S
C166 N161 1.318 . S
C166 C165 1.396 . S
H167 C162 0.929 . S
O168 Mn144 2.385 . S
O168 C146 1.234 . S
O169 Mn144 2.209 . S
O169 Mn145 2.215 . S
O169 C146 1.283 . S
O170 Mn144 2.094 . S
O170 C148 1.240 . S
O171 Mn145 2.117 . S
O171 C148 1.264 . S
C172 C165 1.403 . S
C172 C173 1.399 . S
C172 H178 0.929 . S
C173 C153 1.449 . S
C173 C172 1.399 . S
C173 H179 0.930 . S
H174 C154 0.931 . S
H175 C155 0.930 . S
H176 C163 0.931 . S
H177 C164 0.929 . S
H178 C172 0.929 . S
H179 C173 0.930 . S
Mn180 O185 2.095 . S
Mn180 O195 2.162 . S
Mn180 O196 2.297 . S
Mn180 O204 2.385 . S
Mn180 O205 2.209 . S
Mn180 O206 2.094 . S
Mn181 O186 2.121 . S
Mn181 N188 2.257 . S
Mn181 N197 2.282 . S
Mn181 O205 2.215 . S
Mn181 O207 2.117 . S
C182 O204 1.234 . S
C182 O205 1.283 . S
C183 O195 1.281 . S
C183 O196 1.236 . S
C184 O206 1.240 . S
C184 O207 1.264 . S
O185 Mn180 2.095 . S
O185 C194 1.250 . S
O186 Mn181 2.121 . S
O186 C194 1.258 . S
C187 N188 1.326 . S
C187 C191 1.460 . S
C187 H193 0.929 . S
N188 Mn181 2.257 . S
N188 C187 1.326 . S
N188 C192 1.362 . S
C189 C190 1.258 . S
C189 C192 1.431 . S
C189 C209 1.449 . S
C190 C189 1.258 . S
C190 C191 1.477 . S
C190 H210 0.931 . S
C191 C187 1.460 . S
C191 C190 1.477 . S
C191 H211 0.930 . S
C192 N188 1.362 . S
C192 C189 1.431 . S
C192 C202 1.476 . S
H193 C187 0.929 . S
C194 O185 1.250 . S
C194 O186 1.258 . S
O195 Mn180 2.162 . S
O195 C183 1.281 . S
O196 Mn180 2.297 . S
O196 C183 1.236 . S
N197 Mn181 2.282 . S
N197 C198 1.328 . S
N197 C202 1.318 . S
C198 N197 1.328 . S
C198 C199 1.457 . S
C198 H203 0.929 . S
C199 C198 1.457 . S
C199 C200 1.291 . S
C199 H212 0.931 . S
C200 C199 1.291 . S
C200 C201 1.373 . S
C200 H213 0.929 . S
C201 C200 1.373 . S
C201 C202 1.396 . S
C201 C208 1.403 . S
C202 C192 1.476 . S
C202 N197 1.318 . S
C202 C201 1.396 . S
H203 C198 0.929 . S
O204 Mn180 2.385 . S
O204 C182 1.234 . S
O205 Mn180 2.209 . S
O205 Mn181 2.215 . S
O205 C182 1.283 . S
O206 Mn180 2.094 . S
O206 C184 1.240 . S
O207 Mn181 2.117 . S
O207 C184 1.264 . S
C208 C201 1.403 . S
C208 C209 1.399 . S
C208 H214 0.929 . S
C209 C189 1.449 . S
C209 C208 1.399 . S
C209 H215 0.930 . S
H210 C190 0.931 . S
H211 C191 0.930 . S
H212 C199 0.931 . S
H213 C200 0.929 . S
H214 C208 0.929 . S
H215 C209 0.930 . S
Mn216 O221 2.095 . S
Mn216 O231 2.162 . S
Mn216 O232 2.297 . S
Mn216 O240 2.385 . S
Mn216 O241 2.209 . S
Mn216 O242 2.094 . S
Mn217 O222 2.121 . S
Mn217 N224 2.257 . S
Mn217 N233 2.282 . S
Mn217 O241 2.215 . S
Mn217 O243 2.117 . S
C218 O240 1.234 . S
C218 O241 1.283 . S
C219 O231 1.281 . S
C219 O232 1.236 . S
C220 O242 1.240 . S
C220 O243 1.264 . S
O221 Mn216 2.095 . S
O221 C230 1.250 . S
O222 Mn217 2.121 . S
O222 C230 1.258 . S
C223 N224 1.326 . S
C223 C227 1.460 . S
C223 H229 0.929 . S
N224 Mn217 2.257 . S
N224 C223 1.326 . S
N224 C228 1.362 . S
C225 C226 1.258 . S
C225 C228 1.431 . S
C225 C245 1.449 . S
C226 C225 1.258 . S
C226 C227 1.477 . S
C226 H246 0.931 . S
C227 C223 1.460 . S
C227 C226 1.477 . S
C227 H247 0.930 . S
C228 N224 1.362 . S
C228 C225 1.431 . S
C228 C238 1.476 . S
H229 C223 0.929 . S
C230 O221 1.250 . S
C230 O222 1.258 . S
O231 Mn216 2.162 . S
O231 C219 1.281 . S
O232 Mn216 2.297 . S
O232 C219 1.236 . S
N233 Mn217 2.282 . S
N233 C234 1.328 . S
N233 C238 1.318 . S
C234 N233 1.328 . S
C234 C235 1.457 . S
C234 H239 0.929 . S
C235 C234 1.457 . S
C235 C236 1.291 . S
C235 H248 0.931 . S
C236 C235 1.291 . S
C236 C237 1.373 . S
C236 H249 0.929 . S
C237 C236 1.373 . S
C237 C238 1.396 . S
C237 C244 1.403 . S
C238 C228 1.476 . S
C238 N233 1.318 . S
C238 C237 1.396 . S
H239 C234 0.929 . S
O240 Mn216 2.385 . S
O240 C218 1.234 . S
O241 Mn216 2.209 . S
O241 Mn217 2.215 . S
O241 C218 1.283 . S
O242 Mn216 2.094 . S
O242 C220 1.240 . S
O243 Mn217 2.117 . S
O243 C220 1.264 . S
C244 C237 1.403 . S
C244 C245 1.399 . S
C244 H250 0.929 . S
C245 C225 1.449 . S
C245 C244 1.399 . S
C245 H251 0.930 . S
H246 C226 0.931 . S
H247 C227 0.930 . S
H248 C235 0.931 . S
H249 C236 0.929 . S
H250 C244 0.929 . S
H251 C245 0.930 . S
Mn252 O257 2.095 . S
Mn252 O267 2.162 . S
Mn252 O268 2.297 . S
Mn252 O276 2.385 . S
Mn252 O277 2.209 . S
Mn252 O278 2.094 . S
Mn253 O258 2.121 . S
Mn253 N260 2.257 . S
Mn253 N269 2.282 . S
Mn253 O277 2.215 . S
Mn253 O279 2.117 . S
C254 O276 1.234 . S
C254 O277 1.283 . S
C255 O267 1.281 . S
C255 O268 1.236 . S
C256 O278 1.240 . S
C256 O279 1.264 . S
O257 Mn252 2.095 . S
O257 C266 1.250 . S
O258 Mn253 2.121 . S
O258 C266 1.258 . S
C259 N260 1.326 . S
C259 C263 1.460 . S
C259 H265 0.929 . S
N260 Mn253 2.257 . S
N260 C259 1.326 . S
N260 C264 1.362 . S
C261 C262 1.258 . S
C261 C264 1.431 . S
C261 C281 1.449 . S
C262 C261 1.258 . S
C262 C263 1.477 . S
C262 H282 0.931 . S
C263 C259 1.460 . S
C263 C262 1.477 . S
C263 H283 0.930 . S
C264 N260 1.362 . S
C264 C261 1.431 . S
C264 C274 1.476 . S
H265 C259 0.929 . S
C266 O257 1.250 . S
C266 O258 1.258 . S
O267 Mn252 2.162 . S
O267 C255 1.281 . S
O268 Mn252 2.297 . S
O268 C255 1.236 . S
N269 Mn253 2.282 . S
N269 C270 1.328 . S
N269 C274 1.318 . S
C270 N269 1.328 . S
C270 C271 1.457 . S
C270 H275 0.929 . S
C271 C270 1.457 . S
C271 C272 1.291 . S
C271 H284 0.931 . S
C272 C271 1.291 . S
C272 C273 1.373 . S
C272 H285 0.929 . S
C273 C272 1.373 . S
C273 C274 1.396 . S
C273 C280 1.403 . S
C274 C264 1.476 . S
C274 N269 1.318 . S
C274 C273 1.396 . S
H275 C270 0.929 . S
O276 Mn252 2.385 . S
O276 C254 1.234 . S
O277 Mn252 2.209 . S
O277 Mn253 2.215 . S
O277 C254 1.283 . S
O278 Mn252 2.094 . S
O278 C256 1.240 . S
O279 Mn253 2.117 . S
O279 C256 1.264 . S
C280 C273 1.403 . S
C280 C281 1.399 . S
C280 H286 0.929 . S
C281 C261 1.449 . S
C281 C280 1.399 . S
C281 H287 0.930 . S
H282 C262 0.931 . S
H283 C263 0.930 . S
H284 C271 0.931 . S
H285 C272 0.929 . S
H286 C280 0.929 . S
H287 C281 0.930 . S
Mn288 O293 2.095 . S
Mn288 O303 2.162 1_565 S
Mn288 O304 2.297 1_565 S
Mn288 O312 2.385 . S
Mn288 O313 2.209 . S
Mn288 O314 2.094 . S
Mn289 O294 2.121 . S
Mn289 N296 2.257 . S
Mn289 N305 2.282 . S
Mn289 O313 2.215 . S
Mn289 O315 2.117 . S
C290 O312 1.234 . S
C290 O313 1.283 . S
C291 O303 1.281 . S
C291 O304 1.236 . S
C292 O314 1.240 . S
C292 O315 1.264 . S
O293 Mn288 2.095 . S
O293 C302 1.250 . S
O294 Mn289 2.121 . S
O294 C302 1.258 . S
C295 N296 1.326 . S
C295 C299 1.460 . S
C295 H301 0.929 . S
N296 Mn289 2.257 . S
N296 C295 1.326 . S
N296 C300 1.362 . S
C297 C298 1.258 . S
C297 C300 1.431 . S
C297 C317 1.449 . S
C298 C297 1.258 . S
C298 C299 1.477 . S
C298 H318 0.931 . S
C299 C295 1.460 . S
C299 C298 1.477 . S
C299 H319 0.930 . S
C300 N296 1.362 . S
C300 C297 1.431 . S
C300 C310 1.476 . S
H301 C295 0.929 . S
C302 O293 1.250 . S
C302 O294 1.258 . S
O303 Mn288 2.162 1_545 S
O303 C291 1.281 . S
O304 Mn288 2.297 1_545 S
O304 C291 1.236 . S
N305 Mn289 2.282 . S
N305 C306 1.328 . S
N305 C310 1.318 . S
C306 N305 1.328 . S
C306 C307 1.457 . S
C306 H311 0.929 . S
C307 C306 1.457 . S
C307 C308 1.291 . S
C307 H320 0.931 . S
C308 C307 1.291 . S
C308 C309 1.373 . S
C308 H321 0.929 . S
C309 C308 1.373 . S
C309 C310 1.396 . S
C309 C316 1.403 . S
C310 C300 1.476 . S
C310 N305 1.318 . S
C310 C309 1.396 . S
H311 C306 0.929 . S
O312 Mn288 2.385 . S
O312 C290 1.234 . S
O313 Mn288 2.209 . S
O313 Mn289 2.215 . S
O313 C290 1.283 . S
O314 Mn288 2.094 . S
O314 C292 1.240 . S
O315 Mn289 2.117 . S
O315 C292 1.264 . S
C316 C309 1.403 . S
C316 C317 1.399 . S
C316 H322 0.929 . S
C317 C297 1.449 . S
C317 C316 1.399 . S
C317 H323 0.930 . S
H318 C298 0.931 . S
H319 C299 0.930 . S
H320 C307 0.931 . S
H321 C308 0.929 . S
H322 C316 0.929 . S
H323 C317 0.930 . S
Mn324 O329 2.095 . S
Mn324 O339 2.162 1_655 S
Mn324 O340 2.297 1_655 S
Mn324 O348 2.385 . S
Mn324 O349 2.209 . S
Mn324 O350 2.094 . S
Mn325 O330 2.121 . S
Mn325 N332 2.257 . S
Mn325 N341 2.282 . S
Mn325 O349 2.215 . S
Mn325 O351 2.117 . S
C326 O348 1.234 . S
C326 O349 1.283 . S
C327 O339 1.281 . S
C327 O340 1.236 . S
C328 O350 1.240 . S
C328 O351 1.264 . S
O329 Mn324 2.095 . S
O329 C338 1.250 . S
O330 Mn325 2.121 . S
O330 C338 1.258 . S
C331 N332 1.326 . S
C331 C335 1.460 . S
C331 H337 0.929 . S
N332 Mn325 2.257 . S
N332 C331 1.326 . S
N332 C336 1.362 . S
C333 C334 1.258 . S
C333 C336 1.431 . S
C333 C353 1.449 . S
C334 C333 1.258 . S
C334 C335 1.477 . S
C334 H354 0.931 . S
C335 C331 1.460 . S
C335 C334 1.477 . S
C335 H355 0.930 . S
C336 N332 1.362 . S
C336 C333 1.431 . S
C336 C346 1.476 . S
H337 C331 0.929 . S
C338 O329 1.250 . S
C338 O330 1.258 . S
O339 Mn324 2.162 1_455 S
O339 C327 1.281 . S
O340 Mn324 2.297 1_455 S
O340 C327 1.236 . S
N341 Mn325 2.282 . S
N341 C342 1.328 . S
N341 C346 1.318 . S
C342 N341 1.328 . S
C342 C343 1.457 . S
C342 H347 0.929 . S
C343 C342 1.457 . S
C343 C344 1.291 . S
C343 H356 0.931 . S
C344 C343 1.291 . S
C344 C345 1.373 . S
C344 H357 0.929 . S
C345 C344 1.373 . S
C345 C346 1.396 . S
C345 C352 1.403 . S
C346 C336 1.476 . S
C346 N341 1.318 . S
C346 C345 1.396 . S
H347 C342 0.929 . S
O348 Mn324 2.385 . S
O348 C326 1.234 . S
O349 Mn324 2.209 . S
O349 Mn325 2.215 . S
O349 C326 1.283 . S
O350 Mn324 2.094 . S
O350 C328 1.240 . S
O351 Mn325 2.117 . S
O351 C328 1.264 . S
C352 C345 1.403 . S
C352 C353 1.399 . S
C352 H358 0.929 . S
C353 C333 1.449 . S
C353 C352 1.399 . S
C353 H359 0.930 . S
H354 C334 0.931 . S
H355 C335 0.930 . S
H356 C343 0.931 . S
H357 C344 0.929 . S
H358 C352 0.929 . S
H359 C353 0.930 . S
Mn360 O365 2.095 . S
Mn360 O375 2.162 1_545 S
Mn360 O376 2.297 1_545 S
Mn360 O384 2.385 . S
Mn360 O385 2.209 . S
Mn360 O386 2.094 . S
Mn361 O366 2.121 . S
Mn361 N368 2.257 . S
Mn361 N377 2.282 . S
Mn361 O385 2.215 . S
Mn361 O387 2.117 . S
C362 O384 1.234 . S
C362 O385 1.283 . S
C363 O375 1.281 . S
C363 O376 1.236 . S
C364 O386 1.240 . S
C364 O387 1.264 . S
O365 Mn360 2.095 . S
O365 C374 1.250 . S
O366 Mn361 2.121 . S
O366 C374 1.258 . S
C367 N368 1.326 . S
C367 C371 1.460 . S
C367 H373 0.929 . S
N368 Mn361 2.257 . S
N368 C367 1.326 . S
N368 C372 1.362 . S
C369 C370 1.258 . S
C369 C372 1.431 . S
C369 C389 1.449 . S
C370 C369 1.258 . S
C370 C371 1.477 . S
C370 H390 0.931 . S
C371 C367 1.460 . S
C371 C370 1.477 . S
C371 H391 0.930 . S
C372 N368 1.362 . S
C372 C369 1.431 . S
C372 C382 1.476 . S
H373 C367 0.929 . S
C374 O365 1.250 . S
C374 O366 1.258 . S
O375 Mn360 2.162 1_565 S
O375 C363 1.281 . S
O376 Mn360 2.297 1_565 S
O376 C363 1.236 . S
N377 Mn361 2.282 . S
N377 C378 1.328 . S
N377 C382 1.318 . S
C378 N377 1.328 . S
C378 C379 1.457 . S
C378 H383 0.929 . S
C379 C378 1.457 . S
C379 C380 1.291 . S
C379 H392 0.931 . S
C380 C379 1.291 . S
C380 C381 1.373 . S
C380 H393 0.929 . S
C381 C380 1.373 . S
C381 C382 1.396 . S
C381 C388 1.403 . S
C382 C372 1.476 . S
C382 N377 1.318 . S
C382 C381 1.396 . S
H383 C378 0.929 . S
O384 Mn360 2.385 . S
O384 C362 1.234 . S
O385 Mn360 2.209 . S
O385 Mn361 2.215 . S
O385 C362 1.283 . S
O386 Mn360 2.094 . S
O386 C364 1.240 . S
O387 Mn361 2.117 . S
O387 C364 1.264 . S
C388 C381 1.403 . S
C388 C389 1.399 . S
C388 H394 0.929 . S
C389 C369 1.449 . S
C389 C388 1.399 . S
C389 H395 0.930 . S
H390 C370 0.931 . S
H391 C371 0.930 . S
H392 C379 0.931 . S
H393 C380 0.929 . S
H394 C388 0.929 . S
H395 C389 0.930 . S
Mn396 O401 2.095 . S
Mn396 O411 2.162 1_455 S
Mn396 O412 2.297 1_455 S
Mn396 O420 2.385 . S
Mn396 O421 2.209 . S
Mn396 O422 2.094 . S
Mn397 O402 2.121 . S
Mn397 N404 2.257 . S
Mn397 N413 2.282 . S
Mn397 O421 2.215 . S
Mn397 O423 2.117 . S
C398 O420 1.234 . S
C398 O421 1.283 . S
C399 O411 1.281 . S
C399 O412 1.236 . S
C400 O422 1.240 . S
C400 O423 1.264 . S
O401 Mn396 2.095 . S
O401 C410 1.250 . S
O402 Mn397 2.121 . S
O402 C410 1.258 . S
C403 N404 1.326 . S
C403 C407 1.460 . S
C403 H409 0.929 . S
N404 Mn397 2.257 . S
N404 C403 1.326 . S
N404 C408 1.362 . S
C405 C406 1.258 . S
C405 C408 1.431 . S
C405 C425 1.449 . S
C406 C405 1.258 . S
C406 C407 1.477 . S
C406 H426 0.931 . S
C407 C403 1.460 . S
C407 C406 1.477 . S
C407 H427 0.930 . S
C408 N404 1.362 . S
C408 C405 1.431 . S
C408 C418 1.476 . S
H409 C403 0.929 . S
C410 O401 1.250 . S
C410 O402 1.258 . S
O411 Mn396 2.162 1_655 S
O411 C399 1.281 . S
O412 Mn396 2.297 1_655 S
O412 C399 1.236 . S
N413 Mn397 2.282 . S
N413 C414 1.328 . S
N413 C418 1.318 . S
C414 N413 1.328 . S
C414 C415 1.457 . S
C414 H419 0.929 . S
C415 C414 1.457 . S
C415 C416 1.291 . S
C415 H428 0.931 . S
C416 C415 1.291 . S
C416 C417 1.373 . S
C416 H429 0.929 . S
C417 C416 1.373 . S
C417 C418 1.396 . S
C417 C424 1.403 . S
C418 C408 1.476 . S
C418 N413 1.318 . S
C418 C417 1.396 . S
H419 C414 0.929 . S
O420 Mn396 2.385 . S
O420 C398 1.234 . S
O421 Mn396 2.209 . S
O421 Mn397 2.215 . S
O421 C398 1.283 . S
O422 Mn396 2.094 . S
O422 C400 1.240 . S
O423 Mn397 2.117 . S
O423 C400 1.264 . S
C424 C417 1.403 . S
C424 C425 1.399 . S
C424 H430 0.929 . S
C425 C405 1.449 . S
C425 C424 1.399 . S
C425 H431 0.930 . S
H426 C406 0.931 . S
H427 C407 0.930 . S
H428 C415 0.931 . S
H429 C416 0.929 . S
H430 C424 0.929 . S
H431 C425 0.930 . S
Mn432 O437 2.095 . S
Mn432 O447 2.162 1_545 S
Mn432 O448 2.297 1_545 S
Mn432 O456 2.385 . S
Mn432 O457 2.209 . S
Mn432 O458 2.094 . S
Mn433 O438 2.121 . S
Mn433 N440 2.257 . S
Mn433 N449 2.282 . S
Mn433 O457 2.215 . S
Mn433 O459 2.117 . S
C434 O456 1.234 . S
C434 O457 1.283 . S
C435 O447 1.281 . S
C435 O448 1.236 . S
C436 O458 1.240 . S
C436 O459 1.264 . S
O437 Mn432 2.095 . S
O437 C446 1.250 . S
O438 Mn433 2.121 . S
O438 C446 1.258 . S
C439 N440 1.326 . S
C439 C443 1.460 . S
C439 H445 0.929 . S
N440 Mn433 2.257 . S
N440 C439 1.326 . S
N440 C444 1.362 . S
C441 C442 1.258 . S
C441 C444 1.431 . S
C441 C461 1.449 . S
C442 C441 1.258 . S
C442 C443 1.477 . S
C442 H462 0.931 . S
C443 C439 1.460 . S
C443 C442 1.477 . S
C443 H463 0.930 . S
C444 N440 1.362 . S
C444 C441 1.431 . S
C444 C454 1.476 . S
H445 C439 0.929 . S
C446 O437 1.250 . S
C446 O438 1.258 . S
O447 Mn432 2.162 1_565 S
O447 C435 1.281 . S
O448 Mn432 2.297 1_565 S
O448 C435 1.236 . S
N449 Mn433 2.282 . S
N449 C450 1.328 . S
N449 C454 1.318 . S
C450 N449 1.328 . S
C450 C451 1.457 . S
C450 H455 0.929 . S
C451 C450 1.457 . S
C451 C452 1.291 . S
C451 H464 0.931 . S
C452 C451 1.291 . S
C452 C453 1.373 . S
C452 H465 0.929 . S
C453 C452 1.373 . S
C453 C454 1.396 . S
C453 C460 1.403 . S
C454 C444 1.476 . S
C454 N449 1.318 . S
C454 C453 1.396 . S
H455 C450 0.929 . S
O456 Mn432 2.385 . S
O456 C434 1.234 . S
O457 Mn432 2.209 . S
O457 Mn433 2.215 . S
O457 C434 1.283 . S
O458 Mn432 2.094 . S
O458 C436 1.240 . S
O459 Mn433 2.117 . S
O459 C436 1.264 . S
C460 C453 1.403 . S
C460 C461 1.399 . S
C460 H466 0.929 . S
C461 C441 1.449 . S
C461 C460 1.399 . S
C461 H467 0.930 . S
H462 C442 0.931 . S
H463 C443 0.930 . S
H464 C451 0.931 . S
H465 C452 0.929 . S
H466 C460 0.929 . S
H467 C461 0.930 . S
Mn468 O473 2.095 . S
Mn468 O483 2.162 1_455 S
Mn468 O484 2.297 1_455 S
Mn468 O492 2.385 . S
Mn468 O493 2.209 . S
Mn468 O494 2.094 . S
Mn469 O474 2.121 . S
Mn469 N476 2.257 . S
Mn469 N485 2.282 . S
Mn469 O493 2.215 . S
Mn469 O495 2.117 . S
C470 O492 1.234 . S
C470 O493 1.283 . S
C471 O483 1.281 . S
C471 O484 1.236 . S
C472 O494 1.240 . S
C472 O495 1.264 . S
O473 Mn468 2.095 . S
O473 C482 1.250 . S
O474 Mn469 2.121 . S
O474 C482 1.258 . S
C475 N476 1.326 . S
C475 C479 1.460 . S
C475 H481 0.929 . S
N476 Mn469 2.257 . S
N476 C475 1.326 . S
N476 C480 1.362 . S
C477 C478 1.258 . S
C477 C480 1.431 . S
C477 C497 1.449 . S
C478 C477 1.258 . S
C478 C479 1.477 . S
C478 H498 0.931 . S
C479 C475 1.460 . S
C479 C478 1.477 . S
C479 H499 0.930 . S
C480 N476 1.362 . S
C480 C477 1.431 . S
C480 C490 1.476 . S
H481 C475 0.929 . S
C482 O473 1.250 . S
C482 O474 1.258 . S
O483 Mn468 2.162 1_655 S
O483 C471 1.281 . S
O484 Mn468 2.297 1_655 S
O484 C471 1.236 . S
N485 Mn469 2.282 . S
N485 C486 1.328 . S
N485 C490 1.318 . S
C486 N485 1.328 . S
C486 C487 1.457 . S
C486 H491 0.929 . S
C487 C486 1.457 . S
C487 C488 1.291 . S
C487 H500 0.931 . S
C488 C487 1.291 . S
C488 C489 1.373 . S
C488 H501 0.929 . S
C489 C488 1.373 . S
C489 C490 1.396 . S
C489 C496 1.403 . S
C490 C480 1.476 . S
C490 N485 1.318 . S
C490 C489 1.396 . S
H491 C486 0.929 . S
O492 Mn468 2.385 . S
O492 C470 1.234 . S
O493 Mn468 2.209 . S
O493 Mn469 2.215 . S
O493 C470 1.283 . S
O494 Mn468 2.094 . S
O494 C472 1.240 . S
O495 Mn469 2.117 . S
O495 C472 1.264 . S
C496 C489 1.403 . S
C496 C497 1.399 . S
C496 H502 0.929 . S
C497 C477 1.449 . S
C497 C496 1.399 . S
C497 H503 0.930 . S
H498 C478 0.931 . S
H499 C479 0.930 . S
H500 C487 0.931 . S
H501 C488 0.929 . S
H502 C496 0.929 . S
H503 C497 0.930 . S
Mn504 O509 2.095 . S
Mn504 O519 2.162 1_565 S
Mn504 O520 2.297 1_565 S
Mn504 O528 2.385 . S
Mn504 O529 2.209 . S
Mn504 O530 2.094 . S
Mn505 O510 2.121 . S
Mn505 N512 2.257 . S
Mn505 N521 2.282 . S
Mn505 O529 2.215 . S
Mn505 O531 2.117 . S
C506 O528 1.234 . S
C506 O529 1.283 . S
C507 O519 1.281 . S
C507 O520 1.236 . S
C508 O530 1.240 . S
C508 O531 1.264 . S
O509 Mn504 2.095 . S
O509 C518 1.250 . S
O510 Mn505 2.121 . S
O510 C518 1.258 . S
C511 N512 1.326 . S
C511 C515 1.460 . S
C511 H517 0.929 . S
N512 Mn505 2.257 . S
N512 C511 1.326 . S
N512 C516 1.362 . S
C513 C514 1.258 . S
C513 C516 1.431 . S
C513 C533 1.449 . S
C514 C513 1.258 . S
C514 C515 1.477 . S
C514 H534 0.931 . S
C515 C511 1.460 . S
C515 C514 1.477 . S
C515 H535 0.930 . S
C516 N512 1.362 . S
C516 C513 1.431 . S
C516 C526 1.476 . S
H517 C511 0.929 . S
C518 O509 1.250 . S
C518 O510 1.258 . S
O519 Mn504 2.162 1_545 S
O519 C507 1.281 . S
O520 Mn504 2.297 1_545 S
O520 C507 1.236 . S
N521 Mn505 2.282 . S
N521 C522 1.328 . S
N521 C526 1.318 . S
C522 N521 1.328 . S
C522 C523 1.457 . S
C522 H527 0.929 . S
C523 C522 1.457 . S
C523 C524 1.291 . S
C523 H536 0.931 . S
C524 C523 1.291 . S
C524 C525 1.373 . S
C524 H537 0.929 . S
C525 C524 1.373 . S
C525 C526 1.396 . S
C525 C532 1.403 . S
C526 C516 1.476 . S
C526 N521 1.318 . S
C526 C525 1.396 . S
H527 C522 0.929 . S
O528 Mn504 2.385 . S
O528 C506 1.234 . S
O529 Mn504 2.209 . S
O529 Mn505 2.215 . S
O529 C506 1.283 . S
O530 Mn504 2.094 . S
O530 C508 1.240 . S
O531 Mn505 2.117 . S
O531 C508 1.264 . S
C532 C525 1.403 . S
C532 C533 1.399 . S
C532 H538 0.929 . S
C533 C513 1.449 . S
C533 C532 1.399 . S
C533 H539 0.930 . S
H534 C514 0.931 . S
H535 C515 0.930 . S
H536 C523 0.931 . S
H537 C524 0.929 . S
H538 C532 0.929 . S
H539 C533 0.930 . S
Mn540 O545 2.095 . S
Mn540 O555 2.162 1_655 S
Mn540 O556 2.297 1_655 S
Mn540 O564 2.385 . S
Mn540 O565 2.209 . S
Mn540 O566 2.094 . S
Mn541 O546 2.121 . S
Mn541 N548 2.257 . S
Mn541 N557 2.282 . S
Mn541 O565 2.215 . S
Mn541 O567 2.117 . S
C542 O564 1.234 . S
C542 O565 1.283 . S
C543 O555 1.281 . S
C543 O556 1.236 . S
C544 O566 1.240 . S
C544 O567 1.264 . S
O545 Mn540 2.095 . S
O545 C554 1.250 . S
O546 Mn541 2.121 . S
O546 C554 1.258 . S
C547 N548 1.326 . S
C547 C551 1.460 . S
C547 H553 0.929 . S
N548 Mn541 2.257 . S
N548 C547 1.326 . S
N548 C552 1.362 . S
C549 C550 1.258 . S
C549 C552 1.431 . S
C549 C569 1.449 . S
C550 C549 1.258 . S
C550 C551 1.477 . S
C550 H570 0.931 . S
C551 C547 1.460 . S
C551 C550 1.477 . S
C551 H571 0.930 . S
C552 N548 1.362 . S
C552 C549 1.431 . S
C552 C562 1.476 . S
H553 C547 0.929 . S
C554 O545 1.250 . S
C554 O546 1.258 . S
O555 Mn540 2.162 1_455 S
O555 C543 1.281 . S
O556 Mn540 2.297 1_455 S
O556 C543 1.236 . S
N557 Mn541 2.282 . S
N557 C558 1.328 . S
N557 C562 1.318 . S
C558 N557 1.328 . S
C558 C559 1.457 . S
C558 H563 0.929 . S
C559 C558 1.457 . S
C559 C560 1.291 . S
C559 H572 0.931 . S
C560 C559 1.291 . S
C560 C561 1.373 . S
C560 H573 0.929 . S
C561 C560 1.373 . S
C561 C562 1.396 . S
C561 C568 1.403 . S
C562 C552 1.476 . S
C562 N557 1.318 . S
C562 C561 1.396 . S
H563 C558 0.929 . S
O564 Mn540 2.385 . S
O564 C542 1.234 . S
O565 Mn540 2.209 . S
O565 Mn541 2.215 . S
O565 C542 1.283 . S
O566 Mn540 2.094 . S
O566 C544 1.240 . S
O567 Mn541 2.117 . S
O567 C544 1.264 . S
C568 C561 1.403 . S
C568 C569 1.399 . S
C568 H574 0.929 . S
C569 C549 1.449 . S
C569 C568 1.399 . S
C569 H575 0.930 . S
H570 C550 0.931 . S
H571 C551 0.930 . S
H572 C559 0.931 . S
H573 C560 0.929 . S
H574 C568 0.929 . S
H575 C569 0.930 . S
H576 C582 0.930 . S
H577 C585 0.930 . S
H578 C586 0.930 . S
H579 C587 0.930 . S
H580 C590 0.930 . S
H581 C591 0.930 . S
C582 H576 0.930 . S
C582 C583 1.355 . S
C582 C584 1.415 . S
C583 C582 1.355 . S
C583 C585 1.419 . S
C584 C582 1.415 . S
C584 C589 1.425 . S
C584 C591 1.409 . S
C585 H577 0.930 . S
C585 C583 1.419 . S
C585 C586 1.362 . S
C586 H578 0.930 . S
C586 C585 1.362 . S
C586 C589 1.409 . S
C587 H579 0.930 . S
C587 C588 1.355 . S
C587 C589 1.415 . S
C588 C587 1.355 . S
C588 C590 1.419 . S
C589 C584 1.425 . S
C589 C586 1.409 . S
C589 C587 1.415 . S
C590 H580 0.930 . S
C590 C588 1.419 . S
C590 C591 1.362 . S
C591 H581 0.930 . S
C591 C584 1.409 . S
C591 C590 1.362 . S
H592 C598 0.930 . S
H593 C601 0.930 . S
H594 C602 0.930 . S
H595 C603 0.930 . S
H596 C606 0.930 . S
H597 C607 0.930 . S
C598 H592 0.930 . S
C598 C599 1.355 . S
C598 C600 1.415 . S
C599 C598 1.355 . S
C599 C601 1.419 . S
C600 C598 1.415 . S
C600 C605 1.425 . S
C600 C607 1.409 . S
C601 H593 0.930 . S
C601 C599 1.419 . S
C601 C602 1.362 . S
C602 H594 0.930 . S
C602 C601 1.362 . S
C602 C605 1.409 . S
C603 H595 0.930 . S
C603 C604 1.355 . S
C603 C605 1.415 . S
C604 C603 1.355 . S
C604 C606 1.419 . S
C605 C600 1.425 . S
C605 C602 1.409 . S
C605 C603 1.415 . S
C606 H596 0.930 . S
C606 C604 1.419 . S
C606 C607 1.362 . S
C607 H597 0.930 . S
C607 C600 1.409 . S
C607 C606 1.362 . S
H608 C614 0.930 . S
H609 C617 0.930 . S
H610 C618 0.930 . S
H611 C619 0.930 . S
H612 C622 0.930 . S
H613 C623 0.930 . S
C614 H608 0.930 . S
C614 C615 1.355 . S
C614 C616 1.415 . S
C615 C614 1.355 . S
C615 C617 1.419 . S
C616 C614 1.415 . S
C616 C621 1.425 . S
C616 C623 1.409 . S
C617 H609 0.930 . S
C617 C615 1.419 . S
C617 C618 1.362 . S
C618 H610 0.930 . S
C618 C617 1.362 . S
C618 C621 1.409 . S
C619 H611 0.930 . S
C619 C620 1.355 . S
C619 C621 1.415 . S
C620 C619 1.355 . S
C620 C622 1.419 . S
C621 C616 1.425 . S
C621 C618 1.409 . S
C621 C619 1.415 . S
C622 H612 0.930 . S
C622 C620 1.419 . S
C622 C623 1.362 . S
C623 H613 0.930 . S
C623 C616 1.409 . S
C623 C622 1.362 . S
H624 C630 0.930 . S
H625 C633 0.930 . S
H626 C634 0.930 . S
H627 C635 0.930 . S
H628 C638 0.930 . S
H629 C639 0.930 . S
C630 H624 0.930 . S
C630 C631 1.355 . S
C630 C632 1.415 . S
C631 C630 1.355 . S
C631 C633 1.419 . S
C632 C630 1.415 . S
C632 C637 1.425 . S
C632 C639 1.409 . S
C633 H625 0.930 . S
C633 C631 1.419 . S
C633 C634 1.362 . S
C634 H626 0.930 . S
C634 C633 1.362 . S
C634 C637 1.409 . S
C635 H627 0.930 . S
C635 C636 1.355 . S
C635 C637 1.415 . S
C636 C635 1.355 . S
C636 C638 1.419 . S
C637 C632 1.425 . S
C637 C634 1.409 . S
C637 C635 1.415 . S
C638 H628 0.930 . S
C638 C636 1.419 . S
C638 C639 1.362 . S
C639 H629 0.930 . S
C639 C632 1.409 . S
C639 C638 1.362 . S
H640 C646 0.930 . S
H641 C649 0.930 . S
H642 C650 0.930 . S
H643 C651 0.930 . S
H644 C654 0.930 . S
H645 C655 0.930 . S
C646 H640 0.930 . S
C646 C647 1.355 . S
C646 C648 1.415 . S
C647 C646 1.355 . S
C647 C649 1.419 . S
C648 C646 1.415 . S
C648 C653 1.425 . S
C648 C655 1.409 . S
C649 H641 0.930 . S
C649 C647 1.419 . S
C649 C650 1.362 . S
C650 H642 0.930 . S
C650 C649 1.362 . S
C650 C653 1.409 . S
C651 H643 0.930 . S
C651 C652 1.355 . S
C651 C653 1.415 . S
C652 C651 1.355 . S
C652 C654 1.419 . S
C653 C648 1.425 . S
C653 C650 1.409 . S
C653 C651 1.415 . S
C654 H644 0.930 . S
C654 C652 1.419 . S
C654 C655 1.362 . S
C655 H645 0.930 . S
C655 C648 1.409 . S
C655 C654 1.362 . S
H656 C662 0.930 . S
H657 C665 0.930 . S
H658 C666 0.930 . S
H659 C667 0.930 . S
H660 C670 0.930 . S
H661 C671 0.930 . S
C662 H656 0.930 . S
C662 C663 1.355 . S
C662 C664 1.415 . S
C663 C662 1.355 . S
C663 C665 1.419 . S
C664 C662 1.415 . S
C664 C669 1.425 . S
C664 C671 1.409 . S
C665 H657 0.930 . S
C665 C663 1.419 . S
C665 C666 1.362 . S
C666 H658 0.930 . S
C666 C665 1.362 . S
C666 C669 1.409 . S
C667 H659 0.930 . S
C667 C668 1.355 . S
C667 C669 1.415 . S
C668 C667 1.355 . S
C668 C670 1.419 . S
C669 C664 1.425 . S
C669 C666 1.409 . S
C669 C667 1.415 . S
C670 H660 0.930 . S
C670 C668 1.419 . S
C670 C671 1.362 . S
C671 H661 0.930 . S
C671 C664 1.409 . S
C671 C670 1.362 . S
H672 C678 0.930 . S
H673 C681 0.930 . S
H674 C682 0.930 . S
H675 C683 0.930 . S
H676 C686 0.930 . S
H677 C687 0.930 . S
C678 H672 0.930 . S
C678 C679 1.355 . S
C678 C680 1.415 . S
C679 C678 1.355 . S
C679 C681 1.419 . S
C680 C678 1.415 . S
C680 C685 1.425 . S
C680 C687 1.409 . S
C681 H673 0.930 . S
C681 C679 1.419 . S
C681 C682 1.362 . S
C682 H674 0.930 . S
C682 C681 1.362 . S
C682 C685 1.409 . S
C683 H675 0.930 . S
C683 C684 1.355 . S
C683 C685 1.415 . S
C684 C683 1.355 . S
C684 C686 1.419 . S
C685 C680 1.425 . S
C685 C682 1.409 . S
C685 C683 1.415 . S
C686 H676 0.930 . S
C686 C684 1.419 . S
C686 C687 1.362 . S
C687 H677 0.930 . S
C687 C680 1.409 . S
C687 C686 1.362 . S
H688 C694 0.930 . S
H689 C697 0.930 . S
H690 C698 0.930 . S
H691 C699 0.930 . S
H692 C702 0.930 . S
H693 C703 0.930 . S
C694 H688 0.930 . S
C694 C695 1.355 . S
C694 C696 1.415 . S
C695 C694 1.355 . S
C695 C697 1.419 . S
C696 C694 1.415 . S
C696 C701 1.425 . S
C696 C703 1.409 . S
C697 H689 0.930 . S
C697 C695 1.419 . S
C697 C698 1.362 . S
C698 H690 0.930 . S
C698 C697 1.362 . S
C698 C701 1.409 . S
C699 H691 0.930 . S
C699 C700 1.355 . S
C699 C701 1.415 . S
C700 C699 1.355 . S
C700 C702 1.419 . S
C701 C696 1.425 . S
C701 C698 1.409 . S
C701 C699 1.415 . S
C702 H692 0.930 . S
C702 C700 1.419 . S
C702 C703 1.362 . S
C703 H693 0.930 . S
C703 C696 1.409 . S
C703 C702 1.362 . S
H704 C710 0.930 . S
H705 C713 0.930 . S
H706 C714 0.930 . S
H707 C715 0.930 . S
H708 C718 0.930 . S
H709 C719 0.930 . S
C710 H704 0.930 . S
C710 C711 1.355 . S
C710 C712 1.415 . S
C711 C710 1.355 . S
C711 C713 1.419 . S
C712 C710 1.415 . S
C712 C717 1.425 . S
C712 C719 1.409 . S
C713 H705 0.930 . S
C713 C711 1.419 . S
C713 C714 1.362 . S
C714 H706 0.930 . S
C714 C713 1.362 . S
C714 C717 1.409 . S
C715 H707 0.930 . S
C715 C716 1.355 . S
C715 C717 1.415 . S
C716 C715 1.355 . S
C716 C718 1.419 . S
C717 C712 1.425 . S
C717 C714 1.409 . S
C717 C715 1.415 . S
C718 H708 0.930 . S
C718 C716 1.419 . S
C718 C719 1.362 . S
C719 H709 0.930 . S
C719 C712 1.409 . S
C719 C718 1.362 . S
H720 C726 0.930 . S
H721 C729 0.930 . S
H722 C730 0.930 . S
H723 C731 0.930 . S
H724 C734 0.930 . S
H725 C735 0.930 . S
C726 H720 0.930 . S
C726 C727 1.355 . S
C726 C728 1.415 . S
C727 C726 1.355 . S
C727 C729 1.419 . S
C728 C726 1.415 . S
C728 C733 1.425 . S
C728 C735 1.409 . S
C729 H721 0.930 . S
C729 C727 1.419 . S
C729 C730 1.362 . S
C730 H722 0.930 . S
C730 C729 1.362 . S
C730 C733 1.409 . S
C731 H723 0.930 . S
C731 C732 1.355 . S
C731 C733 1.415 . S
C732 C731 1.355 . S
C732 C734 1.419 . S
C733 C728 1.425 . S
C733 C730 1.409 . S
C733 C731 1.415 . S
C734 H724 0.930 . S
C734 C732 1.419 . S
C734 C735 1.362 . S
C735 H725 0.930 . S
C735 C728 1.409 . S
C735 C734 1.362 . S
H736 C742 0.930 . S
H737 C745 0.930 . S
H738 C746 0.930 . S
H739 C747 0.930 . S
H740 C750 0.930 . S
H741 C751 0.930 . S
C742 H736 0.930 . S
C742 C743 1.355 . S
C742 C744 1.415 . S
C743 C742 1.355 . S
C743 C745 1.419 . S
C744 C742 1.415 . S
C744 C749 1.425 . S
C744 C751 1.409 . S
C745 H737 0.930 . S
C745 C743 1.419 . S
C745 C746 1.362 . S
C746 H738 0.930 . S
C746 C745 1.362 . S
C746 C749 1.409 . S
C747 H739 0.930 . S
C747 C748 1.355 . S
C747 C749 1.415 . S
C748 C747 1.355 . S
C748 C750 1.419 . S
C749 C744 1.425 . S
C749 C746 1.409 . S
C749 C747 1.415 . S
C750 H740 0.930 . S
C750 C748 1.419 . S
C750 C751 1.362 . S
C751 H741 0.930 . S
C751 C744 1.409 . S
C751 C750 1.362 . S
H752 C758 0.930 . S
H753 C761 0.930 . S
H754 C762 0.930 . S
H755 C763 0.930 . S
H756 C766 0.930 . S
H757 C767 0.930 . S
C758 H752 0.930 . S
C758 C759 1.355 . S
C758 C760 1.415 . S
C759 C758 1.355 . S
C759 C761 1.419 . S
C760 C758 1.415 . S
C760 C765 1.425 . S
C760 C767 1.409 . S
C761 H753 0.930 . S
C761 C759 1.419 . S
C761 C762 1.362 . S
C762 H754 0.930 . S
C762 C761 1.362 . S
C762 C765 1.409 . S
C763 H755 0.930 . S
C763 C764 1.355 . S
C763 C765 1.415 . S
C764 C763 1.355 . S
C764 C766 1.419 . S
C765 C760 1.425 . S
C765 C762 1.409 . S
C765 C763 1.415 . S
C766 H756 0.930 . S
C766 C764 1.419 . S
C766 C767 1.362 . S
C767 H757 0.930 . S
C767 C760 1.409 . S
C767 C766 1.362 . S
H768 C774 0.930 . S
H769 C777 0.930 . S
H770 C778 0.930 . S
H771 C779 0.930 . S
H772 C782 0.930 . S
H773 C783 0.930 . S
C774 H768 0.930 . S
C774 C775 1.355 . S
C774 C776 1.415 . S
C775 C774 1.355 . S
C775 C777 1.419 . S
C776 C774 1.415 . S
C776 C781 1.425 . S
C776 C783 1.409 . S
C777 H769 0.930 . S
C777 C775 1.419 . S
C777 C778 1.362 . S
C778 H770 0.930 . S
C778 C777 1.362 . S
C778 C781 1.409 . S
C779 H771 0.930 . S
C779 C780 1.355 . S
C779 C781 1.415 . S
C780 C779 1.355 . S
C780 C782 1.419 . S
C781 C776 1.425 . S
C781 C778 1.409 . S
C781 C779 1.415 . S
C782 H772 0.930 . S
C782 C780 1.419 . S
C782 C783 1.362 . S
C783 H773 0.930 . S
C783 C776 1.409 . S
C783 C782 1.362 . S
H784 C790 0.930 . S
H785 C793 0.930 . S
H786 C794 0.930 . S
H787 C795 0.930 . S
H788 C798 0.930 . S
H789 C799 0.930 . S
C790 H784 0.930 . S
C790 C791 1.355 . S
C790 C792 1.415 . S
C791 C790 1.355 . S
C791 C793 1.419 . S
C792 C790 1.415 . S
C792 C797 1.425 . S
C792 C799 1.409 . S
C793 H785 0.930 . S
C793 C791 1.419 . S
C793 C794 1.362 . S
C794 H786 0.930 . S
C794 C793 1.362 . S
C794 C797 1.409 . S
C795 H787 0.930 . S
C795 C796 1.355 . S
C795 C797 1.415 . S
C796 C795 1.355 . S
C796 C798 1.419 . S
C797 C792 1.425 . S
C797 C794 1.409 . S
C797 C795 1.415 . S
C798 H788 0.930 . S
C798 C796 1.419 . S
C798 C799 1.362 . S
C799 H789 0.930 . S
C799 C792 1.409 . S
C799 C798 1.362 . S
H800 C806 0.930 . S
H801 C809 0.930 . S
H802 C810 0.930 . S
H803 C811 0.930 . S
H804 C814 0.930 . S
H805 C815 0.930 . S
C806 H800 0.930 . S
C806 C807 1.355 . S
C806 C808 1.415 . S
C807 C806 1.355 . S
C807 C809 1.419 . S
C808 C806 1.415 . S
C808 C813 1.425 . S
C808 C815 1.409 . S
C809 H801 0.930 . S
C809 C807 1.419 . S
C809 C810 1.362 . S
C810 H802 0.930 . S
C810 C809 1.362 . S
C810 C813 1.409 . S
C811 H803 0.930 . S
C811 C812 1.355 . S
C811 C813 1.415 . S
C812 C811 1.355 . S
C812 C814 1.419 . S
C813 C808 1.425 . S
C813 C810 1.409 . S
C813 C811 1.415 . S
C814 H804 0.930 . S
C814 C812 1.419 . S
C814 C815 1.362 . S
C815 H805 0.930 . S
C815 C808 1.409 . S
C815 C814 1.362 . S
H816 C822 0.930 . S
H817 C825 0.930 . S
H818 C826 0.930 . S
H819 C827 0.930 . S
H820 C830 0.930 . S
H821 C831 0.930 . S
C822 H816 0.930 . S
C822 C823 1.355 . S
C822 C824 1.415 . S
C823 C822 1.355 . S
C823 C825 1.419 . S
C824 C822 1.415 . S
C824 C829 1.425 . S
C824 C831 1.409 . S
C825 H817 0.930 . S
C825 C823 1.419 . S
C825 C826 1.362 . S
C826 H818 0.930 . S
C826 C825 1.362 . S
C826 C829 1.409 . S
C827 H819 0.930 . S
C827 C828 1.355 . S
C827 C829 1.415 . S
C828 C827 1.355 . S
C828 C830 1.419 . S
C829 C824 1.425 . S
C829 C826 1.409 . S
C829 C827 1.415 . S
C830 H820 0.930 . S
C830 C828 1.419 . S
C830 C831 1.362 . S
C831 H821 0.930 . S
C831 C824 1.409 . S
C831 C830 1.362 . S
H832 C838 0.930 . S
H833 C841 0.930 . S
H834 C842 0.930 . S
H835 C843 0.930 . S
H836 C846 0.930 . S
H837 C847 0.930 . S
C838 H832 0.930 . S
C838 C839 1.355 . S
C838 C840 1.415 . S
C839 C838 1.355 . S
C839 C841 1.419 . S
C840 C838 1.415 . S
C840 C845 1.425 . S
C840 C847 1.409 . S
C841 H833 0.930 . S
C841 C839 1.419 . S
C841 C842 1.362 . S
C842 H834 0.930 . S
C842 C841 1.362 . S
C842 C845 1.409 . S
C843 H835 0.930 . S
C843 C844 1.355 . S
C843 C845 1.415 . S
C844 C843 1.355 . S
C844 C846 1.419 . S
C845 C840 1.425 . S
C845 C842 1.409 . S
C845 C843 1.415 . S
C846 H836 0.930 . S
C846 C844 1.419 . S
C846 C847 1.362 . S
C847 H837 0.930 . S
C847 C840 1.409 . S
C847 C846 1.362 . S
H848 C854 0.930 . S
H849 C857 0.930 . S
H850 C858 0.930 . S
H851 C859 0.930 . S
H852 C862 0.930 . S
H853 C863 0.930 . S
C854 H848 0.930 . S
C854 C855 1.355 . S
C854 C856 1.415 . S
C855 C854 1.355 . S
C855 C857 1.419 . S
C856 C854 1.415 . S
C856 C861 1.425 . S
C856 C863 1.409 . S
C857 H849 0.930 . S
C857 C855 1.419 . S
C857 C858 1.362 . S
C858 H850 0.930 . S
C858 C857 1.362 . S
C858 C861 1.409 . S
C859 H851 0.930 . S
C859 C860 1.355 . S
C859 C861 1.415 . S
C860 C859 1.355 . S
C860 C862 1.419 . S
C861 C856 1.425 . S
C861 C858 1.409 . S
C861 C859 1.415 . S
C862 H852 0.930 . S
C862 C860 1.419 . S
C862 C863 1.362 . S
C863 H853 0.930 . S
C863 C856 1.409 . S
C863 C862 1.362 . S
H864 C870 0.930 . S
H865 C873 0.930 . S
H866 C874 0.930 . S
H867 C875 0.930 . S
H868 C878 0.930 . S
H869 C879 0.930 . S
C870 H864 0.930 . S
C870 C871 1.355 . S
C870 C872 1.415 . S
C871 C870 1.355 . S
C871 C873 1.419 . S
C872 C870 1.415 . S
C872 C877 1.425 . S
C872 C879 1.409 . S
C873 H865 0.930 . S
C873 C871 1.419 . S
C873 C874 1.362 . S
C874 H866 0.930 . S
C874 C873 1.362 . S
C874 C877 1.409 . S
C875 H867 0.930 . S
C875 C876 1.355 . S
C875 C877 1.415 . S
C876 C875 1.355 . S
C876 C878 1.419 . S
C877 C872 1.425 . S
C877 C874 1.409 . S
C877 C875 1.415 . S
C878 H868 0.930 . S
C878 C876 1.419 . S
C878 C879 1.362 . S
C879 H869 0.930 . S
C879 C872 1.409 . S
C879 C878 1.362 . S
H880 C886 0.930 . S
H881 C889 0.930 . S
H882 C890 0.930 . S
H883 C891 0.930 . S
H884 C894 0.930 . S
H885 C895 0.930 . S
C886 H880 0.930 . S
C886 C887 1.355 . S
C886 C888 1.415 . S
C887 C886 1.355 . S
C887 C889 1.419 . S
C888 C886 1.415 . S
C888 C893 1.425 . S
C888 C895 1.409 . S
C889 H881 0.930 . S
C889 C887 1.419 . S
C889 C890 1.362 . S
C890 H882 0.930 . S
C890 C889 1.362 . S
C890 C893 1.409 . S
C891 H883 0.930 . S
C891 C892 1.355 . S
C891 C893 1.415 . S
C892 C891 1.355 . S
C892 C894 1.419 . S
C893 C888 1.425 . S
C893 C890 1.409 . S
C893 C891 1.415 . S
C894 H884 0.930 . S
C894 C892 1.419 . S
C894 C895 1.362 . S
C895 H885 0.930 . S
C895 C888 1.409 . S
C895 C894 1.362 . S
H896 C902 0.930 . S
H897 C905 0.930 . S
H898 C906 0.930 . S
H899 C907 0.930 . S
H900 C910 0.930 . S
H901 C911 0.930 . S
C902 H896 0.930 . S
C902 C903 1.355 . S
C902 C904 1.415 . S
C903 C902 1.355 . S
C903 C905 1.419 . S
C904 C902 1.415 . S
C904 C909 1.425 . S
C904 C911 1.409 . S
C905 H897 0.930 . S
C905 C903 1.419 . S
C905 C906 1.362 . S
C906 H898 0.930 . S
C906 C905 1.362 . S
C906 C909 1.409 . S
C907 H899 0.930 . S
C907 C908 1.355 . S
C907 C909 1.415 . S
C908 C907 1.355 . S
C908 C910 1.419 . S
C909 C904 1.425 . S
C909 C906 1.409 . S
C909 C907 1.415 . S
C910 H900 0.930 . S
C910 C908 1.419 . S
C910 C911 1.362 . S
C911 H901 0.930 . S
C911 C904 1.409 . S
C911 C910 1.362 . S
H912 C918 0.930 . S
H913 C921 0.930 . S
H914 C922 0.930 . S
H915 C923 0.930 . S
H916 C926 0.930 . S
H917 C927 0.930 . S
C918 H912 0.930 . S
C918 C919 1.355 . S
C918 C920 1.415 . S
C919 C918 1.355 . S
C919 C921 1.419 . S
C920 C918 1.415 . S
C920 C925 1.425 . S
C920 C927 1.409 . S
C921 H913 0.930 . S
C921 C919 1.419 . S
C921 C922 1.362 . S
C922 H914 0.930 . S
C922 C921 1.362 . S
C922 C925 1.409 . S
C923 H915 0.930 . S
C923 C924 1.355 . S
C923 C925 1.415 . S
C924 C923 1.355 . S
C924 C926 1.419 . S
C925 C920 1.425 . S
C925 C922 1.409 . S
C925 C923 1.415 . S
C926 H916 0.930 . S
C926 C924 1.419 . S
C926 C927 1.362 . S
C927 H917 0.930 . S
C927 C920 1.409 . S
C927 C926 1.362 . S
H928 C934 0.930 . S
H929 C937 0.930 . S
H930 C938 0.930 . S
H931 C939 0.930 . S
H932 C942 0.930 . S
H933 C943 0.930 . S
C934 H928 0.930 . S
C934 C935 1.355 . S
C934 C936 1.415 . S
C935 C934 1.355 . S
C935 C937 1.419 . S
C936 C934 1.415 . S
C936 C941 1.425 . S
C936 C943 1.409 . S
C937 H929 0.930 . S
C937 C935 1.419 . S
C937 C938 1.362 . S
C938 H930 0.930 . S
C938 C937 1.362 . S
C938 C941 1.409 . S
C939 H931 0.930 . S
C939 C940 1.355 . S
C939 C941 1.415 . S
C940 C939 1.355 . S
C940 C942 1.419 . S
C941 C936 1.425 . S
C941 C938 1.409 . S
C941 C939 1.415 . S
C942 H932 0.930 . S
C942 C940 1.419 . S
C942 C943 1.362 . S
C943 H933 0.930 . S
C943 C936 1.409 . S
C943 C942 1.362 . S
H944 C950 0.930 . S
H945 C953 0.930 . S
H946 C954 0.930 . S
H947 C955 0.930 . S
H948 C958 0.930 . S
H949 C959 0.930 . S
C950 H944 0.930 . S
C950 C951 1.355 . S
C950 C952 1.415 . S
C951 C950 1.355 . S
C951 C953 1.419 . S
C952 C950 1.415 . S
C952 C957 1.425 . S
C952 C959 1.409 . S
C953 H945 0.930 . S
C953 C951 1.419 . S
C953 C954 1.362 . S
C954 H946 0.930 . S
C954 C953 1.362 . S
C954 C957 1.409 . S
C955 H947 0.930 . S
C955 C956 1.355 . S
C955 C957 1.415 . S
C956 C955 1.355 . S
C956 C958 1.419 . S
C957 C952 1.425 . S
C957 C954 1.409 . S
C957 C955 1.415 . S
C958 H948 0.930 . S
C958 C956 1.419 . S
C958 C959 1.362 . S
C959 H949 0.930 . S
C959 C952 1.409 . S
C959 C958 1.362 . S
H960 C966 0.930 . S
H961 C969 0.930 . S
H962 C970 0.930 . S
H963 C971 0.930 . S
H964 C974 0.930 . S
H965 C975 0.930 . S
C966 H960 0.930 . S
C966 C967 1.355 . S
C966 C968 1.415 . S
C967 C966 1.355 . S
C967 C969 1.419 . S
C968 C966 1.415 . S
C968 C973 1.425 . S
C968 C975 1.409 . S
C969 H961 0.930 . S
C969 C967 1.419 . S
C969 C970 1.362 . S
C970 H962 0.930 . S
C970 C969 1.362 . S
C970 C973 1.409 . S
C971 H963 0.930 . S
C971 C972 1.355 . S
C971 C973 1.415 . S
C972 C971 1.355 . S
C972 C974 1.419 . S
C973 C968 1.425 . S
C973 C970 1.409 . S
C973 C971 1.415 . S
C974 H964 0.930 . S
C974 C972 1.419 . S
C974 C975 1.362 . S
C975 H965 0.930 . S
C975 C968 1.409 . S
C975 C974 1.362 . S
H976 C982 0.930 . S
H977 C985 0.930 . S
H978 C986 0.930 . S
H979 C987 0.930 . S
H980 C990 0.930 . S
H981 C991 0.930 . S
C982 H976 0.930 . S
C982 C983 1.355 . S
C982 C984 1.415 . S
C983 C982 1.355 . S
C983 C985 1.419 . S
C984 C982 1.415 . S
C984 C989 1.425 . S
C984 C991 1.409 . S
C985 H977 0.930 . S
C985 C983 1.419 . S
C985 C986 1.362 . S
C986 H978 0.930 . S
C986 C985 1.362 . S
C986 C989 1.409 . S
C987 H979 0.930 . S
C987 C988 1.355 . S
C987 C989 1.415 . S
C988 C987 1.355 . S
C988 C990 1.419 . S
C989 C984 1.425 . S
C989 C986 1.409 . S
C989 C987 1.415 . S
C990 H980 0.930 . S
C990 C988 1.419 . S
C990 C991 1.362 . S
C991 H981 0.930 . S
C991 C984 1.409 . S
C991 C990 1.362 . S
H992 C998 0.930 . S
H993 C1001 0.930 . S
H994 C1002 0.930 . S
H995 C1003 0.930 . S
H996 C1006 0.930 . S
H997 C1007 0.930 . S
C998 H992 0.930 . S
C998 C999 1.355 . S
C998 C1000 1.415 . S
C999 C998 1.355 . S
C999 C1001 1.419 . S
C1000 C998 1.415 . S
C1000 C1005 1.425 . S
C1000 C1007 1.409 . S
C1001 H993 0.930 . S
C1001 C999 1.419 . S
C1001 C1002 1.362 . S
C1002 H994 0.930 . S
C1002 C1001 1.362 . S
C1002 C1005 1.409 . S
C1003 H995 0.930 . S
C1003 C1004 1.355 . S
C1003 C1005 1.415 . S
C1004 C1003 1.355 . S
C1004 C1006 1.419 . S
C1005 C1000 1.425 . S
C1005 C1002 1.409 . S
C1005 C1003 1.415 . S
C1006 H996 0.930 . S
C1006 C1004 1.419 . S
C1006 C1007 1.362 . S
C1007 H997 0.930 . S
C1007 C1000 1.409 . S
C1007 C1006 1.362 . S
H1008 C1014 0.930 . S
H1009 C1017 0.930 . S
H1010 C1018 0.930 . S
H1011 C1019 0.930 . S
H1012 C1022 0.930 . S
H1013 C1023 0.930 . S
C1014 H1008 0.930 . S
C1014 C1015 1.355 . S
C1014 C1016 1.415 . S
C1015 C1014 1.355 . S
C1015 C1017 1.419 . S
C1016 C1014 1.415 . S
C1016 C1021 1.425 . S
C1016 C1023 1.409 . S
C1017 H1009 0.930 . S
C1017 C1015 1.419 . S
C1017 C1018 1.362 . S
C1018 H1010 0.930 . S
C1018 C1017 1.362 . S
C1018 C1021 1.409 . S
C1019 H1011 0.930 . S
C1019 C1020 1.355 . S
C1019 C1021 1.415 . S
C1020 C1019 1.355 . S
C1020 C1022 1.419 . S
C1021 C1016 1.425 . S
C1021 C1018 1.409 . S
C1021 C1019 1.415 . S
C1022 H1012 0.930 . S
C1022 C1020 1.419 . S
C1022 C1023 1.362 . S
C1023 H1013 0.930 . S
C1023 C1016 1.409 . S
C1023 C1022 1.362 . S
H1024 C1030 0.930 . S
H1025 C1033 0.930 . S
H1026 C1034 0.930 . S
H1027 C1035 0.930 . S
H1028 C1038 0.930 . S
H1029 C1039 0.930 . S
C1030 H1024 0.930 . S
C1030 C1031 1.355 . S
C1030 C1032 1.415 . S
C1031 C1030 1.355 . S
C1031 C1033 1.419 1_545 S
C1032 C1030 1.415 . S
C1032 C1037 1.425 1_544 S
C1032 C1039 1.409 1_554 S
C1033 H1025 0.930 . S
C1033 C1031 1.419 1_565 S
C1033 C1034 1.362 . S
C1034 H1026 0.930 . S
C1034 C1033 1.362 . S
C1034 C1037 1.409 1_554 S
C1035 H1027 0.930 . S
C1035 C1036 1.355 . S
C1035 C1037 1.415 . S
C1036 C1035 1.355 . S
C1036 C1038 1.419 1_565 S
C1037 C1032 1.425 1_566 S
C1037 C1034 1.409 1_556 S
C1037 C1035 1.415 . S
C1038 H1028 0.930 . S
C1038 C1036 1.419 1_545 S
C1038 C1039 1.362 . S
C1039 H1029 0.930 . S
C1039 C1032 1.409 1_556 S
C1039 C1038 1.362 . S
H1040 C1046 0.930 . S
H1041 C1049 0.930 . S
H1042 C1050 0.930 . S
H1043 C1051 0.930 . S
H1044 C1054 0.930 . S
H1045 C1055 0.930 . S
C1046 H1040 0.930 . S
C1046 C1047 1.355 . S
C1046 C1048 1.415 . S
C1047 C1046 1.355 . S
C1047 C1049 1.419 1_455 S
C1048 C1046 1.415 . S
C1048 C1053 1.425 1_456 S
C1048 C1055 1.409 1_556 S
C1049 H1041 0.930 . S
C1049 C1047 1.419 1_655 S
C1049 C1050 1.362 . S
C1050 H1042 0.930 . S
C1050 C1049 1.362 . S
C1050 C1053 1.409 1_556 S
C1051 H1043 0.930 . S
C1051 C1052 1.355 . S
C1051 C1053 1.415 . S
C1052 C1051 1.355 . S
C1052 C1054 1.419 1_655 S
C1053 C1048 1.425 1_654 S
C1053 C1050 1.409 1_554 S
C1053 C1051 1.415 . S
C1054 H1044 0.930 . S
C1054 C1052 1.419 1_455 S
C1054 C1055 1.362 . S
C1055 H1045 0.930 . S
C1055 C1048 1.409 1_554 S
C1055 C1054 1.362 . S
H1056 C1062 0.930 . S
H1057 C1065 0.930 . S
H1058 C1066 0.930 . S
H1059 C1067 0.930 . S
H1060 C1070 0.930 . S
H1061 C1071 0.930 . S
C1062 H1056 0.930 . S
C1062 C1063 1.355 . S
C1062 C1064 1.415 1_545 S
C1063 C1062 1.355 . S
C1063 C1065 1.419 . S
C1064 C1062 1.415 1_565 S
C1064 C1069 1.425 1_566 S
C1064 C1071 1.409 1_556 S
C1065 H1057 0.930 . S
C1065 C1063 1.419 . S
C1065 C1066 1.362 . S
C1066 H1058 0.930 . S
C1066 C1065 1.362 . S
C1066 C1069 1.409 1_556 S
C1067 H1059 0.930 . S
C1067 C1068 1.355 . S
C1067 C1069 1.415 1_565 S
C1068 C1067 1.355 . S
C1068 C1070 1.419 . S
C1069 C1064 1.425 1_544 S
C1069 C1066 1.409 1_554 S
C1069 C1067 1.415 1_545 S
C1070 H1060 0.930 . S
C1070 C1068 1.419 . S
C1070 C1071 1.362 . S
C1071 H1061 0.930 . S
C1071 C1064 1.409 1_554 S
C1071 C1070 1.362 . S
H1072 C1078 0.930 . S
H1073 C1081 0.930 . S
H1074 C1082 0.930 . S
H1075 C1083 0.930 . S
H1076 C1086 0.930 . S
H1077 C1087 0.930 . S
C1078 H1072 0.930 . S
C1078 C1079 1.355 . S
C1078 C1080 1.415 . S
C1079 C1078 1.355 . S
C1079 C1081 1.419 1_655 S
C1080 C1078 1.415 . S
C1080 C1085 1.425 1_656 S
C1080 C1087 1.409 1_556 S
C1081 H1073 0.930 . S
C1081 C1079 1.419 1_455 S
C1081 C1082 1.362 . S
C1082 H1074 0.930 . S
C1082 C1081 1.362 . S
C1082 C1085 1.409 1_556 S
C1083 H1075 0.930 . S
C1083 C1084 1.355 . S
C1083 C1085 1.415 . S
C1084 C1083 1.355 . S
C1084 C1086 1.419 1_455 S
C1085 C1080 1.425 1_454 S
C1085 C1082 1.409 1_554 S
C1085 C1083 1.415 . S
C1086 H1076 0.930 . S
C1086 C1084 1.419 1_655 S
C1086 C1087 1.362 . S
C1087 H1077 0.930 . S
C1087 C1080 1.409 1_554 S
C1087 C1086 1.362 . S
C583 C4 1.277 . S
C588 C256 1.233 . S
C599 C40 1.286 . S
C604 C148 1.224 . S
C615 C184 1.274 . S
C620 C76 1.237 . S
C631 C112 1.243 . S
C636 C220 1.267 . S
C647 C292 1.240 . S
C652 C544 1.270 . S
C663 C436 1.229 . S
C668 C328 1.281 . S
C679 C472 1.285 . S
C684 C364 1.224 . S
C695 C508 1.236 . S
C700 C400 1.274 . S
C711 C3 1.397 . S
C716 C398 1.379 . S
C727 C39 1.373 . S
C732 C290 1.401 . S
C743 C326 1.400 . S
C748 C75 1.378 . S
C759 C111 1.396 . S
C764 C362 1.390 . S
C775 C147 1.356 . S
C780 C470 1.399 . S
C791 C506 1.388 . S
C796 C183 1.349 . S
C807 C219 1.397 . S
C812 C542 1.388 . S
C823 C434 1.387 . S
C828 C255 1.350 . S
C839 C291 1.397 . S
C844 C110 1.388 . S
C855 C2 1.399 . S
C860 C327 1.383 . S
C871 C363 1.383 . S
C876 C38 1.373 . S
C887 C74 1.379 . S
C892 C399 1.397 . S
C903 C435 1.397 . S
C908 C182 1.389 . S
C919 C218 1.384 . S
C924 C471 1.398 . S
C935 C254 1.401 . S
C940 C507 1.368 . S
C951 C146 1.390 . S
C956 C543 1.349 . S
C967 C158 1.525 . S
C972 C14 1.522 . S
C983 C194 1.571 . S
C988 C50 1.571 . S
C999 C86 1.542 . S
C1004 C230 1.544 . S
C1015 C266 1.510 . S
C1020 C122 1.511 . S
C1031 C446 1.572 . S
C1036 C302 1.572 . S
C1047 C482 1.572 . S
C1052 C338 1.572 . S
C1063 C374 1.544 . S
C1068 C518 1.547 . S
C1079 C554 1.570 . S
C1084 C410 1.571 . S
