# Generated by pormake.
# Topology vbm, (6)-cn, num edge types: 1
# Building blocks:
#     Node 0, Type 0, BuildingBlock: CUKXOW_clean_sbu_0, # of connection points: 6
#     Node 1, Type 0, BuildingBlock: CUKXOW_clean_sbu_0, # of connection points: 6
#     Node 2, Type 0, BuildingBlock: CUKXOW_clean_sbu_0, # of connection points: 6
#     Node 3, Type 0, BuildingBlock: CUKXOW_clean_sbu_0, # of connection points: 6
#     Node 4, Type 0, BuildingBlock: CUKXOW_clean_sbu_0, # of connection points: 6
#     Node 5, Type 0, BuildingBlock: CUKXOW_clean_sbu_0, # of connection points: 6
#     Node 6, Type 0, BuildingBlock: CUKXOW_clean_sbu_0, # of connection points: 6
#     Node 7, Type 0, BuildingBlock: CUKXOW_clean_sbu_0, # of connection points: 6
#     Node 8, Type 0, BuildingBlock: CUKXOW_clean_sbu_0, # of connection points: 6
#     Node 9, Type 0, BuildingBlock: CUKXOW_clean_sbu_0, # of connection points: 6
#     Node 10, Type 0, BuildingBlock: CUKXOW_clean_sbu_0, # of connection points: 6
#     Node 11, Type 0, BuildingBlock: CUKXOW_clean_sbu_0, # of connection points: 6
#     Node 12, Type 0, BuildingBlock: CUKXOW_clean_sbu_0, # of connection points: 6
#     Node 13, Type 0, BuildingBlock: CUKXOW_clean_sbu_0, # of connection points: 6
#     Node 14, Type 0, BuildingBlock: CUKXOW_clean_sbu_0, # of connection points: 6
#     Node 15, Type 0, BuildingBlock: CUKXOW_clean_sbu_0, # of connection points: 6
#     Edge 16, Type (0, 0), BuildingBlock: AJUNOK_clean_linker_0, # of connection points: 2
#     Edge 17, Type (0, 0), BuildingBlock: AJUNOK_clean_linker_0, # of connection points: 2
#     Edge 18, Type (0, 0), BuildingBlock: AJUNOK_clean_linker_0, # of connection points: 2
#     Edge 19, Type (0, 0), BuildingBlock: AJUNOK_clean_linker_0, # of connection points: 2
#     Edge 20, Type (0, 0), BuildingBlock: AJUNOK_clean_linker_0, # of connection points: 2
#     Edge 21, Type (0, 0), BuildingBlock: AJUNOK_clean_linker_0, # of connection points: 2
#     Edge 22, Type (0, 0), BuildingBlock: AJUNOK_clean_linker_0, # of connection points: 2
#     Edge 23, Type (0, 0), BuildingBlock: AJUNOK_clean_linker_0, # of connection points: 2
#     Edge 24, Type (0, 0), BuildingBlock: AJUNOK_clean_linker_0, # of connection points: 2
#     Edge 25, Type (0, 0), BuildingBlock: AJUNOK_clean_linker_0, # of connection points: 2
#     Edge 26, Type (0, 0), BuildingBlock: AJUNOK_clean_linker_0, # of connection points: 2
#     Edge 27, Type (0, 0), BuildingBlock: AJUNOK_clean_linker_0, # of connection points: 2
#     Edge 28, Type (0, 0), BuildingBlock: AJUNOK_clean_linker_0, # of connection points: 2
#     Edge 29, Type (0, 0), BuildingBlock: AJUNOK_clean_linker_0, # of connection points: 2
#     Edge 30, Type (0, 0), BuildingBlock: AJUNOK_clean_linker_0, # of connection points: 2
#     Edge 31, Type (0, 0), BuildingBlock: AJUNOK_clean_linker_0, # of connection points: 2
#     Edge 32, Type (0, 0), BuildingBlock: AJUNOK_clean_linker_0, # of connection points: 2
#     Edge 33, Type (0, 0), BuildingBlock: AJUNOK_clean_linker_0, # of connection points: 2
#     Edge 34, Type (0, 0), BuildingBlock: AJUNOK_clean_linker_0, # of connection points: 2
#     Edge 35, Type (0, 0), BuildingBlock: AJUNOK_clean_linker_0, # of connection points: 2
#     Edge 36, Type (0, 0), BuildingBlock: AJUNOK_clean_linker_0, # of connection points: 2
#     Edge 37, Type (0, 0), BuildingBlock: AJUNOK_clean_linker_0, # of connection points: 2
#     Edge 38, Type (0, 0), BuildingBlock: AJUNOK_clean_linker_0, # of connection points: 2
#     Edge 39, Type (0, 0), BuildingBlock: AJUNOK_clean_linker_0, # of connection points: 2
#     Edge 40, Type (0, 0), BuildingBlock: AJUNOK_clean_linker_0, # of connection points: 2
#     Edge 41, Type (0, 0), BuildingBlock: AJUNOK_clean_linker_0, # of connection points: 2
#     Edge 42, Type (0, 0), BuildingBlock: AJUNOK_clean_linker_0, # of connection points: 2
#     Edge 43, Type (0, 0), BuildingBlock: AJUNOK_clean_linker_0, # of connection points: 2
#     Edge 44, Type (0, 0), BuildingBlock: AJUNOK_clean_linker_0, # of connection points: 2
#     Edge 45, Type (0, 0), BuildingBlock: AJUNOK_clean_linker_0, # of connection points: 2
#     Edge 46, Type (0, 0), BuildingBlock: AJUNOK_clean_linker_0, # of connection points: 2
#     Edge 47, Type (0, 0), BuildingBlock: AJUNOK_clean_linker_0, # of connection points: 2
#     Edge 48, Type (0, 0), BuildingBlock: AJUNOK_clean_linker_0, # of connection points: 2
#     Edge 49, Type (0, 0), BuildingBlock: AJUNOK_clean_linker_0, # of connection points: 2
#     Edge 50, Type (0, 0), BuildingBlock: AJUNOK_clean_linker_0, # of connection points: 2
#     Edge 51, Type (0, 0), BuildingBlock: AJUNOK_clean_linker_0, # of connection points: 2
#     Edge 52, Type (0, 0), BuildingBlock: AJUNOK_clean_linker_0, # of connection points: 2
#     Edge 53, Type (0, 0), BuildingBlock: AJUNOK_clean_linker_0, # of connection points: 2
#     Edge 54, Type (0, 0), BuildingBlock: AJUNOK_clean_linker_0, # of connection points: 2
#     Edge 55, Type (0, 0), BuildingBlock: AJUNOK_clean_linker_0, # of connection points: 2
#     Edge 56, Type (0, 0), BuildingBlock: AJUNOK_clean_linker_0, # of connection points: 2
#     Edge 57, Type (0, 0), BuildingBlock: AJUNOK_clean_linker_0, # of connection points: 2
#     Edge 58, Type (0, 0), BuildingBlock: AJUNOK_clean_linker_0, # of connection points: 2
#     Edge 59, Type (0, 0), BuildingBlock: AJUNOK_clean_linker_0, # of connection points: 2
#     Edge 60, Type (0, 0), BuildingBlock: AJUNOK_clean_linker_0, # of connection points: 2
#     Edge 61, Type (0, 0), BuildingBlock: AJUNOK_clean_linker_0, # of connection points: 2
#     Edge 62, Type (0, 0), BuildingBlock: AJUNOK_clean_linker_0, # of connection points: 2
#     Edge 63, Type (0, 0), BuildingBlock: AJUNOK_clean_linker_0, # of connection points: 2
# Relax obj value: 0.135
# Max RMSD: 0.184
# Mean RMSD: 0.184
data_MOF--net-vbm--node1-CUKXOW_clean_sbu_0--edge1-AJUNOK_clean_linker_0
_symmetry_space_group_name_H-M    P1
_symmetry_Int_Tables_number       1
_symmetry_cell_setting            triclinic
loop_
_symmetry_equiv_pos_as_xyz
'x, y, z'
_cell_length_a     55.871062
_cell_length_b     10.456347
_cell_length_c     44.8156
_cell_angle_alpha  90.13025
_cell_angle_beta   90.115375
_cell_angle_gamma 90.12714
loop_
_atom_site_label
_atom_site_type_symbol
_atom_site_fract_x
_atom_site_fract_y
_atom_site_fract_z
_atom_type_partial_charge
Tb0 Tb 0.09354 0.12377 0.12767 0.0
C1 C 0.12209 0.12313 0.06661 0.0
Tb2 Tb 0.15039 0.15059 0.12744 0.0
O3 O 0.08536 0.33027 0.12904 0.0
O4 O 0.1198 0.26899 0.12915 0.0
O5 O 0.10276 0.08487 0.08139 0.0
C6 C 0.19517 0.23758 0.12992 0.0
O7 O 0.14188 0.16537 0.08005 0.0
C8 C 0.13664 0.90644 0.12515 0.0
C9 C 0.12225 0.11471 0.18769 0.0
O10 O 0.17964 0.26656 0.10937 0.0
O11 O 0.18528 0.16169 0.14913 0.0
O12 O 0.15882 0.94385 0.12458 0.0
O13 O 0.12422 1.00666 0.12618 0.0
O14 O 0.14055 0.17244 0.17432 0.0
O15 O 0.10322 0.07156 0.17293 0.0
C16 C 0.04743 0.0599 0.12617 0.0
O17 O 0.06032 0.07067 0.15021 0.0
O18 O 0.06086 0.0791 0.10301 0.0
C19 C 0.10734 0.36903 0.12936 0.0
Tb20 Tb 0.8979 0.98016 0.12757 0.0
C21 C 0.87108 0.94987 0.06647 0.0
Tb22 Tb 0.84107 0.95437 0.12638 0.0
O23 O 0.90585 0.77236 0.12902 0.0
O24 O 0.87155 0.83622 0.12801 0.0
O25 O 0.88966 1.00136 0.08058 0.0
C26 C 0.79588 0.87351 0.12473 0.0
O27 O 0.85178 0.90676 0.08069 0.0
C28 C 0.85466 0.19842 0.12448 0.0
C29 C 0.86831 1.00468 0.18722 0.0
O30 O 0.80744 0.92442 0.10267 0.0
O31 O 0.81001 0.86488 0.14773 0.0
O32 O 0.83258 0.15993 0.12436 0.0
O33 O 0.86732 0.09901 0.12561 0.0
O34 O 0.84895 0.95442 0.17427 0.0
O35 O 0.88767 1.04003 0.17215 0.0
C36 C 0.94382 1.04729 0.12752 0.0
O37 O 0.93185 1.00956 0.15069 0.0
O38 O 0.92959 1.05266 0.1046 0.0
C39 C 0.88374 0.73545 0.12852 0.0
Tb40 Tb 0.09319 0.97398 0.37478 0.0
C41 C 0.12075 0.93682 0.43525 0.0
Tb42 Tb 0.15006 0.94837 0.37526 0.0
O43 O 0.08498 0.7675 0.37214 0.0
O44 O 0.11945 0.82959 0.37294 0.0
O45 O 0.10202 0.99063 0.42197 0.0
C46 C 0.19489 0.86446 0.37703 0.0
O47 O 0.13949 0.89327 0.42016 0.0
C48 C 0.13623 0.19252 0.37787 0.0
C49 C 0.1231 1.00801 0.31514 0.0
O50 O 0.18403 0.92469 0.39838 0.0
O51 O 0.18034 0.84956 0.35457 0.0
O52 O 0.1584 0.15573 0.37739 0.0
O53 O 0.12388 0.09169 0.37733 0.0
O54 O 0.14231 0.9554 0.32766 0.0
O55 O 0.10332 1.03726 0.33019 0.0
C56 C 0.04718 1.03935 0.37582 0.0
O57 O 0.05927 1.01005 0.35207 0.0
O58 O 0.06135 1.03773 0.39884 0.0
C59 C 0.10698 0.72931 0.37205 0.0
Tb60 Tb 0.89757 0.13213 0.37597 0.0
C61 C 0.86977 0.16565 0.4361 0.0
Tb62 Tb 0.84072 0.15806 0.37534 0.0
O63 O 0.9058 0.33876 0.3739 0.0
O64 O 0.87135 0.27668 0.3739 0.0
O65 O 0.8886 0.11275 0.42291 0.0
C66 C 0.79602 0.24494 0.37656 0.0
O67 O 0.85107 0.20956 0.42086 0.0
C68 C 0.85442 0.91383 0.37782 0.0
C69 C 0.86847 0.10214 0.31553 0.0
O70 O 0.80698 0.18928 0.39848 0.0
O71 O 0.81036 0.25335 0.35383 0.0
O72 O 0.83226 0.95077 0.37699 0.0
O73 O 0.86682 1.0145 0.3776 0.0
O74 O 0.84907 0.15432 0.32774 0.0
O75 O 0.88766 0.06897 0.33129 0.0
C76 C 0.94359 0.06699 0.3765 0.0
O77 O 0.93128 0.09647 0.35292 0.0
O78 O 0.92965 0.06842 0.39967 0.0
C79 C 0.8838 0.37695 0.37334 0.0
Tb80 Tb 0.84098 0.95069 0.87628 0.0
C81 C 0.86778 1.00748 0.8155 0.0
Tb82 Tb 0.89796 0.9785 0.87497 0.0
O83 O 0.83256 0.15784 0.87793 0.0
O84 O 0.86714 0.09496 0.877 0.0
O85 O 0.8487 0.9555 0.82853 0.0
C86 C 0.94404 1.04489 0.87616 0.0
O87 O 0.88764 1.03891 0.83026 0.0
C88 C 0.88408 0.7332 0.87366 0.0
C89 C 0.87107 0.94745 0.93617 0.0
O90 O 0.93244 1.00366 0.8529 0.0
O91 O 0.92936 1.05415 0.89852 0.0
O92 O 0.90608 0.77184 0.87328 0.0
O93 O 0.87166 0.83331 0.87448 0.0
O94 O 0.8897 0.99803 0.92206 0.0
O95 O 0.85165 0.90474 0.922 0.0
C96 C 0.79626 0.86182 0.87538 0.0
O97 O 0.80626 0.92163 0.89756 0.0
O98 O 0.81167 0.84925 0.85389 0.0
C99 C 0.85474 0.19534 0.87764 0.0
Tb100 Tb 0.14995 0.12465 0.87544 0.0
C101 C 0.12202 0.07585 0.81494 0.0
Tb102 Tb 0.09478 0.10564 0.87527 0.0
O103 O 0.15893 0.91926 0.87508 0.0
O104 O 0.12395 0.979 0.87504 0.0
O105 O 0.14145 0.12627 0.82759 0.0
C106 C 0.04771 0.06652 0.88057 0.0
O107 O 0.10292 1.04266 0.83054 0.0
C108 C 0.11249 0.3377 0.86556 0.0
C109 C 0.12225 0.10671 0.93637 0.0
O110 O 0.06131 1.01786 0.86009 0.0
O111 O 0.06073 0.13491 0.89853 0.0
O112 O 0.09247 0.295 0.85498 0.0
O113 O 0.12084 0.25318 0.88269 0.0
O114 O 0.10323 0.0639 0.9216 0.0
O115 O 0.14151 0.15194 0.92254 0.0
C116 C 0.19479 0.21255 0.87453 0.0
O117 O 0.18632 0.12991 0.89332 0.0
O118 O 0.17783 0.24745 0.85638 0.0
C119 C 0.13688 0.88034 0.87475 0.0
Tb120 Tb 0.84051 0.16437 0.62699 0.0
C121 C 0.86774 0.11485 0.68773 0.0
Tb122 Tb 0.89758 0.13972 0.62774 0.0
O123 O 0.83217 0.95735 0.62528 0.0
O124 O 0.86679 1.02136 0.62668 0.0
O125 O 0.84851 0.16461 0.67463 0.0
C126 C 0.94387 0.08302 0.62885 0.0
O127 O 0.88762 0.0842 0.673 0.0
C128 C 0.88326 0.38365 0.62856 0.0
C129 C 0.87029 0.1749 0.56663 0.0
O130 O 0.93309 0.15956 0.64716 0.0
O131 O 0.92842 1.03329 0.61034 0.0
O132 O 0.90533 0.3469 0.62823 0.0
O133 O 0.87101 0.28264 0.62803 0.0
O134 O 0.88978 0.1301 0.58015 0.0
O135 O 0.85084 0.21201 0.58138 0.0
C136 C 0.79574 0.24966 0.62711 0.0
O137 O 0.80615 0.19298 0.60488 0.0
O138 O 0.81075 0.26121 0.64915 0.0
C139 C 0.85434 0.92069 0.62592 0.0
Tb140 Tb 0.14966 0.93513 0.62662 0.0
C141 C 0.12139 0.97848 0.6868 0.0
Tb142 Tb 0.0925 0.96037 0.62598 0.0
O143 O 0.15814 0.14092 0.62502 0.0
O144 O 0.12341 0.07875 0.62581 0.0
O145 O 0.14104 0.93174 0.6741 0.0
C146 C 0.04649 1.02225 0.62746 0.0
O147 O 0.10189 1.01127 0.67159 0.0
C148 C 0.10702 0.71631 0.62592 0.0
C149 C 0.12021 0.92606 0.56556 0.0
O150 O 0.05637 0.93065 0.6424 0.0
O151 O 0.06261 0.08247 0.61187 0.0
O152 O 0.08488 0.75208 0.62506 0.0
O153 O 0.11909 0.818 0.62663 0.0
O154 O 0.10057 0.97035 0.57871 0.0
O155 O 0.13961 0.88905 0.58059 0.0
C156 C 0.19469 0.85281 0.62758 0.0
O157 O 0.18401 0.90325 0.60475 0.0
O158 O 0.17977 0.84502 0.64971 0.0
C159 C 0.13605 0.17882 0.62492 0.0
Tb160 Tb 0.59292 0.6402 0.12585 0.0
C161 C 0.62036 0.67218 0.06504 0.0
Tb162 Tb 0.64975 0.66624 0.12523 0.0
O163 O 0.58494 0.84804 0.12737 0.0
O164 O 0.61924 0.78416 0.12695 0.0
O165 O 0.60148 0.62106 0.07862 0.0
C166 C 0.69493 0.7471 0.12444 0.0
O167 O 0.63927 0.71633 0.07989 0.0
C168 C 0.63618 0.42196 0.12275 0.0
C169 C 0.62277 0.61716 0.18572 0.0
O170 O 0.68298 0.70552 0.10154 0.0
O171 O 0.68121 0.7464 0.14783 0.0
O172 O 0.65824 0.46064 0.12276 0.0
O173 O 0.62351 0.52133 0.1239 0.0
O174 O 0.64162 0.67114 0.17272 0.0
O175 O 0.60321 0.5818 0.1708 0.0
C176 C 0.54693 0.57264 0.1257 0.0
O177 O 0.55902 0.60978 0.14892 0.0
O178 O 0.56109 0.56806 0.10274 0.0
C179 C 0.60706 0.88498 0.1273 0.0
Tb180 Tb 0.39706 0.49397 0.12609 0.0
C181 C 0.36934 0.4725 0.06515 0.0
Tb182 Tb 0.34014 0.46663 0.12523 0.0
O183 O 0.40525 0.2875 0.12784 0.0
O184 O 0.37082 0.34875 0.12646 0.0
O185 O 0.38787 0.52401 0.07947 0.0
C186 C 0.29556 0.37714 0.12591 0.0
O187 O 0.35036 0.42502 0.07922 0.0
C188 C 0.35391 0.71103 0.12437 0.0
C189 C 0.36734 0.52244 0.18601 0.0
O190 O 0.30448 0.45173 0.10565 0.0
O191 O 0.31196 0.35068 0.14556 0.0
O192 O 0.33173 0.67372 0.12455 0.0
O193 O 0.36633 0.61064 0.12459 0.0
O194 O 0.34789 0.47399 0.17296 0.0
O195 O 0.38731 0.55097 0.17128 0.0
C196 C 0.4432 0.55802 0.12495 0.0
O197 O 0.4307 0.53798 0.14889 0.0
O198 O 0.42936 0.54826 0.10174 0.0
C199 C 0.38327 0.24874 0.12728 0.0
Tb200 Tb 0.59378 0.48847 0.37362 0.0
C201 C 0.62143 0.45731 0.4343 0.0
Tb202 Tb 0.65066 0.46248 0.37401 0.0
O203 O 0.58558 0.28175 0.37204 0.0
O204 O 0.62003 0.34391 0.37242 0.0
O205 O 0.60253 0.50843 0.4208 0.0
C206 C 0.69539 0.37621 0.37582 0.0
O207 O 0.64018 0.4128 0.41936 0.0
C208 C 0.63694 0.70681 0.37584 0.0
C209 C 0.62342 0.51462 0.31363 0.0
O210 O 0.68422 0.43125 0.39767 0.0
O211 O 0.68123 0.36802 0.35282 0.0
O212 O 0.65911 0.66981 0.37558 0.0
O213 O 0.62453 0.6062 0.37541 0.0
O214 O 0.64253 0.46228 0.32644 0.0
O215 O 0.60381 0.54746 0.32865 0.0
C216 C 0.5477 0.55333 0.37408 0.0
O217 O 0.55966 0.51696 0.35076 0.0
O218 O 0.56204 0.55889 0.39693 0.0
C219 C 0.60757 0.24361 0.37186 0.0
Tb220 Tb 0.39801 0.6425 0.37429 0.0
C221 C 0.3702 0.66807 0.43489 0.0
Tb222 Tb 0.34123 0.66698 0.37486 0.0
O223 O 0.40602 0.85032 0.37181 0.0
O224 O 0.37172 0.78588 0.37304 0.0
O225 O 0.38864 0.61406 0.42105 0.0
C226 C 0.296 0.74569 0.37614 0.0
O227 O 0.35176 0.71709 0.42015 0.0
C228 C 0.3548 0.42302 0.37728 0.0
C229 C 0.36835 0.62297 0.31414 0.0
O230 O 0.30835 0.70874 0.39906 0.0
O231 O 0.30933 0.7418 0.35244 0.0
O232 O 0.33274 0.46117 0.37714 0.0
O233 O 0.36746 0.52267 0.37631 0.0
O234 O 0.34938 0.67426 0.32741 0.0
O235 O 0.3881 0.5892 0.32881 0.0
C236 C 0.444 0.57541 0.37603 0.0
O237 O 0.43106 0.5841 0.35201 0.0
O238 O 0.43069 0.59904 0.39908 0.0
C239 C 0.38391 0.88684 0.37224 0.0
Tb240 Tb 0.34014 0.44432 0.87348 0.0
C241 C 0.36872 0.48312 0.81353 0.0
Tb242 Tb 0.39712 0.47093 0.87372 0.0
O243 O 0.33183 0.65102 0.87696 0.0
O244 O 0.36639 0.58784 0.87547 0.0
O245 O 0.35001 0.42647 0.82635 0.0
C246 C 0.44328 0.53532 0.87276 0.0
O247 O 0.38728 0.52733 0.82892 0.0
C248 C 0.38322 0.22584 0.87126 0.0
C249 C 0.36865 0.46641 0.93469 0.0
O250 O 0.42963 0.52179 0.8495 0.0
O251 O 0.4306 0.51834 0.8967 0.0
O252 O 0.40521 0.26443 0.87208 0.0
O253 O 0.37079 0.32605 0.87148 0.0
O254 O 0.38806 0.50545 0.92016 0.0
O255 O 0.34874 0.42686 0.92098 0.0
C256 C 0.29512 0.3587 0.87098 0.0
O257 O 0.31092 0.32535 0.89083 0.0
O258 O 0.30489 0.43801 0.85242 0.0
C259 C 0.35401 0.68824 0.87659 0.0
Tb260 Tb 0.64989 0.65389 0.87382 0.0
C261 C 0.62183 0.60353 0.81388 0.0
Tb262 Tb 0.59297 0.62771 0.87414 0.0
O263 O 0.65839 0.44835 0.87628 0.0
O264 O 0.62366 0.50911 0.87569 0.0
O265 O 0.64106 0.65702 0.82631 0.0
C266 C 0.547 0.56035 0.87173 0.0
O267 O 0.60293 0.56588 0.82953 0.0
C268 C 0.60716 0.87246 0.87235 0.0
C269 C 0.62075 0.66238 0.93453 0.0
O270 O 0.55963 0.60216 0.84955 0.0
O271 O 0.56056 0.55199 0.89529 0.0
O272 O 0.58504 0.83561 0.87295 0.0
O273 O 0.61932 0.77152 0.8724 0.0
O274 O 0.60167 0.61126 0.92126 0.0
O275 O 0.63973 0.70421 0.91946 0.0
C276 C 0.69522 0.7341 0.87322 0.0
O277 O 0.68365 0.69544 0.89661 0.0
O278 O 0.68099 0.73184 0.85026 0.0
C279 C 0.63633 0.40969 0.87665 0.0
Tb280 Tb 0.34038 0.63945 0.62593 0.0
C281 C 0.36831 0.58222 0.6856 0.0
Tb282 Tb 0.39725 0.61522 0.62555 0.0
O283 O 0.33185 0.43388 0.62294 0.0
O284 O 0.36662 0.49556 0.62362 0.0
O285 O 0.34896 0.63523 0.67351 0.0
C286 C 0.44332 0.55229 0.62769 0.0
O287 O 0.38738 0.54886 0.66978 0.0
C288 C 0.38298 0.8595 0.62782 0.0
C289 C 0.36954 0.65076 0.56527 0.0
O290 O 0.43066 0.59305 0.64997 0.0
O291 O 0.42971 0.54202 0.60419 0.0
O292 O 0.40509 0.82337 0.62725 0.0
O293 O 0.37087 0.75813 0.62763 0.0
O294 O 0.38861 0.59967 0.5784 0.0
O295 O 0.35054 0.69147 0.58044 0.0
C296 C 0.29531 0.7211 0.62732 0.0
O297 O 0.3061 0.6751 0.60405 0.0
O298 O 0.31016 0.72498 0.64966 0.0
C299 C 0.35393 0.39587 0.62248 0.0
Tb300 Tb 0.6499 0.45531 0.6259 0.0
C301 C 0.6217 0.50663 0.68564 0.0
Tb302 Tb 0.59311 0.48088 0.62482 0.0
O303 O 0.65843 0.66248 0.62461 0.0
O304 O 0.62383 0.59894 0.62369 0.0
O305 O 0.64121 0.45624 0.67338 0.0
C306 C 0.547 0.54407 0.62599 0.0
O307 O 0.60254 0.54013 0.66991 0.0
C308 C 0.60686 0.23604 0.62729 0.0
C309 C 0.62138 0.45573 0.56487 0.0
O310 O 0.56046 0.52549 0.64917 0.0
O311 O 0.55985 0.53285 0.60197 0.0
O312 O 0.58489 0.27425 0.62655 0.0
O313 O 0.61933 0.33624 0.6269 0.0
O314 O 0.60255 0.5081 0.57822 0.0
O315 O 0.63984 0.40836 0.58003 0.0
C316 C 0.69465 0.36892 0.62667 0.0
O317 O 0.68406 0.42026 0.60387 0.0
O318 O 0.67982 0.36328 0.64892 0.0
C319 C 0.63627 0.69946 0.62368 0.0
C320 C 0.22992 0.34636 0.10614 0.0
C321 C 0.22064 0.2747 0.12994 0.0
C322 C 0.25428 0.37772 0.10491 0.0
C323 C 0.2702 0.33848 0.12744 0.0
H324 H 0.21834 0.37776 0.08818 0.0
H325 H 0.26065 0.43333 0.08616 0.0
S326 S 0.25474 0.15088 0.19488 0.0
N327 N 0.22914 0.16657 0.1768 0.0
N328 N 0.27495 0.2256 0.17445 0.0
C329 C 0.26114 0.26727 0.15145 0.0
C330 C 0.23632 0.23544 0.15273 0.0
C331 C 0.7581 0.81451 0.15091 0.0
C332 C 0.77031 0.83891 0.12412 0.0
C333 C 0.7335 0.78748 0.15092 0.0
C334 C 0.72046 0.78206 0.1241 0.0
H335 H 0.76752 0.81779 0.17205 0.0
H336 H 0.72474 0.76901 0.17202 0.0
S337 S 0.74409 0.83843 0.04797 0.0
N338 N 0.76752 0.85664 0.0701 0.0
N339 N 0.72142 0.80376 0.07012 0.0
C340 C 0.73247 0.80568 0.09717 0.0
C341 C 0.7574 0.83462 0.09718 0.0
C342 C 0.25702 0.77892 0.35019 0.0
C343 C 0.2704 0.77833 0.37679 0.0
C344 C 0.23237 0.80364 0.35051 0.0
C345 C 0.22044 0.83051 0.37737 0.0
H346 H 0.26558 0.7586 0.32904 0.0
H347 H 0.22269 0.80364 0.32953 0.0
S348 S 0.24751 0.84181 0.45302 0.0
N349 N 0.27001 0.80653 0.43066 0.0
N350 N 0.2238 0.85521 0.43121 0.0
C351 C 0.23366 0.8308 0.40409 0.0
C352 C 0.25865 0.80416 0.4038 0.0
C353 C 0.7581 0.29739 0.34981 0.0
C354 C 0.77058 0.28159 0.37681 0.0
C355 C 0.73354 0.32491 0.34962 0.0
C356 C 0.72083 0.33984 0.37644 0.0
H357 H 0.76727 0.28647 0.32868 0.0
H358 H 0.72455 0.33647 0.32836 0.0
S359 S 0.74539 0.3097 0.45307 0.0
N360 N 0.76848 0.28269 0.43101 0.0
N361 N 0.72249 0.3373 0.43066 0.0
C362 C 0.73316 0.32531 0.40357 0.0
C363 C 0.75803 0.29543 0.40376 0.0
C364 C 0.73281 0.79222 0.89995 0.0
C365 C 0.72085 0.76828 0.87288 0.0
C366 C 0.75728 0.82152 0.90051 0.0
C367 C 0.77075 0.8255 0.87407 0.0
H368 H 0.72316 0.78919 0.92088 0.0
H369 H 0.76572 0.84075 0.92184 0.0
S370 S 0.74792 0.76912 0.79737 0.0
N371 N 0.72422 0.75088 0.81893 0.0
N372 N 0.77039 0.80333 0.82004 0.0
C373 C 0.75907 0.80075 0.84685 0.0
C374 C 0.73404 0.773 0.84623 0.0
C375 C 0.26091 0.23724 0.89284 0.0
C376 C 0.2696 0.32105 0.87091 0.0
C377 C 0.23662 0.20367 0.89392 0.0
C378 C 0.22014 0.25288 0.87315 0.0
H379 H 0.27292 0.19754 0.90939 0.0
H380 H 0.23075 0.13844 0.91118 0.0
S381 S 0.2338 0.47613 0.81126 0.0
N382 N 0.25983 0.45259 0.82785 0.0
N383 N 0.21419 0.38958 0.82998 0.0
C384 C 0.22857 0.33677 0.85109 0.0
C385 C 0.25333 0.37075 0.84993 0.0
C386 C 0.73288 0.32041 0.60082 0.0
C387 C 0.7202 0.33514 0.62765 0.0
C388 C 0.75741 0.29357 0.60091 0.0
C389 C 0.77019 0.28332 0.62783 0.0
H390 H 0.72376 0.32908 0.57955 0.0
H391 H 0.76645 0.28149 0.57973 0.0
S392 S 0.74535 0.31498 0.70416 0.0
N393 N 0.72214 0.33712 0.68187 0.0
N394 N 0.76846 0.28956 0.68203 0.0
C395 C 0.75779 0.29884 0.65484 0.0
C396 C 0.7327 0.32382 0.65475 0.0
C397 C 0.2329 0.80577 0.60147 0.0
C398 C 0.22016 0.81667 0.62835 0.0
C399 C 0.25729 0.77523 0.60141 0.0
C400 C 0.26984 0.75681 0.62825 0.0
H401 H 0.22396 0.82028 0.58027 0.0
H402 H 0.26639 0.76678 0.58018 0.0
S403 S 0.24471 0.77552 0.70466 0.0
N404 N 0.22178 0.80622 0.68251 0.0
N405 N 0.26781 0.7514 0.68243 0.0
C406 C 0.25737 0.7683 0.65531 0.0
C407 C 0.23243 0.79737 0.65535 0.0
C408 C 0.102 1.04722 0.26685 0.0
C409 C 0.12363 1.03751 0.2828 0.0
C410 C 0.10178 0.07368 0.23624 0.0
C411 C 0.12316 0.09361 0.22037 0.0
H412 H 0.08502 1.03226 0.27796 0.0
H413 H 0.08464 0.07853 0.22495 0.0
S414 S 0.18467 0.08309 0.25185 0.0
N415 N 0.16707 1.05273 0.28054 0.0
N416 N 0.16664 0.10353 0.22302 0.0
C417 C 0.14495 0.08647 0.23611 0.0
C418 C 0.14519 0.05789 0.26728 0.0
C419 C 0.84713 0.07168 0.26648 0.0
C420 C 0.86868 0.07646 0.28286 0.0
C421 C 0.84702 1.04572 0.23568 0.0
C422 C 0.86848 1.02544 0.22 0.0
H423 H 0.83016 0.0872 0.27753 0.0
H424 H 0.83003 1.04386 0.224 0.0
S425 S 0.92978 1.02523 0.25235 0.0
N426 N 0.9121 0.05697 0.28084 0.0
N427 N 0.91184 1.00848 0.22332 0.0
C428 C 0.89013 1.02919 0.23612 0.0
C429 C 0.89025 0.05456 0.26742 0.0
C430 C 0.8885 0.07601 0.73639 0.0
C431 C 0.86699 0.089 0.72031 0.0
C432 C 0.8885 1.04998 0.76705 0.0
C433 C 0.86699 1.03394 0.78293 0.0
H434 H 0.90559 0.08697 0.72529 0.0
H435 H 0.9056 1.04128 0.7783 0.0
S436 S 0.80563 0.05675 0.75129 0.0
N437 N 0.82346 0.08306 0.72262 0.0
N438 N 0.82347 1.03324 0.78017 0.0
C439 C 0.84529 1.04591 0.76713 0.0
C440 C 0.84529 0.07387 0.7359 0.0
C441 C 0.14301 1.04829 0.76578 0.0
C442 C 0.12158 1.05192 0.78225 0.0
C443 C 0.14289 1.0219 0.73502 0.0
C444 C 0.12132 0.99987 0.71951 0.0
H445 H 0.16004 0.06474 0.77672 0.0
H446 H 0.15981 1.02085 0.72326 0.0
S447 S 0.06029 0.99712 0.75218 0.0
N448 N 0.07814 1.03027 0.78053 0.0
N449 N 0.07802 0.98088 0.72305 0.0
C450 C 0.0998 1.00295 0.73571 0.0
C451 C 0.0999 1.02887 0.76697 0.0
C452 C 0.60234 0.552 0.2651 0.0
C453 C 0.62395 0.54015 0.28105 0.0
C454 C 0.60218 0.57663 0.23437 0.0
C455 C 0.62361 0.59252 0.21834 0.0
H456 H 0.58532 0.54091 0.27636 0.0
H457 H 0.58504 0.58431 0.22316 0.0
S458 S 0.68512 0.57262 0.24962 0.0
N459 N 0.66744 0.54716 0.27847 0.0
N460 N 0.66714 0.59441 0.22081 0.0
C461 C 0.64539 0.58187 0.23403 0.0
C462 C 0.64555 0.55525 0.26531 0.0
C463 C 0.38878 0.58553 0.26525 0.0
C464 C 0.3674 0.59949 0.28146 0.0
C465 C 0.38852 0.56123 0.23448 0.0
C466 C 0.36686 0.54802 0.21863 0.0
H467 H 0.40596 0.59423 0.27634 0.0
H468 H 0.40552 0.55148 0.22313 0.0
S469 S 0.30578 0.57484 0.25062 0.0
N470 N 0.32386 0.59777 0.27932 0.0
N471 N 0.32336 0.55143 0.22158 0.0
C472 C 0.3453 0.5613 0.23457 0.0
C473 C 0.34557 0.5874 0.2659 0.0
C474 C 0.34723 0.51374 0.76479 0.0
C475 C 0.36884 0.50237 0.78075 0.0
C476 C 0.34714 0.54101 0.73409 0.0
C477 C 0.36866 0.55585 0.71813 0.0
H478 H 0.33024 0.50431 0.77619 0.0
H479 H 0.33007 0.54953 0.72276 0.0
S480 S 0.43015 0.53189 0.74945 0.0
N481 N 0.41235 0.50555 0.77813 0.0
N482 N 0.41221 0.5563 0.72075 0.0
C483 C 0.39039 0.54296 0.73382 0.0
C484 C 0.39048 0.51639 0.76502 0.0
C485 C 0.64301 0.56905 0.76515 0.0
C486 C 0.62147 0.58103 0.78116 0.0
C487 C 0.64297 0.54319 0.73437 0.0
C488 C 0.62139 0.53031 0.71833 0.0
H489 H 0.66006 0.57787 0.77653 0.0
H490 H 0.66 0.53474 0.72304 0.0
S491 S 0.56004 0.55534 0.74971 0.0
N492 N 0.57794 0.57944 0.77851 0.0
N493 N 0.57786 0.53142 0.72094 0.0
C494 C 0.59972 0.543 0.73407 0.0
C495 C 0.59977 0.56811 0.76539 0.0
C496 C 0.14292 0.12877 0.98581 0.0
C497 C 0.1217 0.10788 0.96952 0.0
C498 C 0.14288 0.13312 0.01708 0.0
C499 C 0.1216 0.11688 0.03345 0.0
H500 H 0.15981 0.14167 0.97438 0.0
H501 H 0.15975 0.14905 0.02845 0.0
S502 S 0.06084 0.06501 0.00145 0.0
N503 N 0.0786 0.07411 0.97218 0.0
N504 N 0.07848 0.08243 0.03074 0.0
C505 C 0.10017 0.09642 0.01741 0.0
C506 C 0.10023 0.09186 0.98555 0.0
C507 C 0.85071 0.91823 0.98563 0.0
C508 C 0.87181 0.9414 0.96933 0.0
C509 C 0.85071 0.91881 0.01696 0.0
C510 C 0.8718 0.94262 0.03332 0.0
H511 H 0.83388 0.902 0.97417 0.0
H512 H 0.83389 0.90299 0.02836 0.0
S513 S 0.9324 0.99677 0.00144 0.0
N514 N 0.91476 0.98038 0.97211 0.0
N515 N 0.91477 0.98147 0.0307 0.0
C516 C 0.89319 0.96207 0.0173 0.0
C517 C 0.89319 0.96146 0.98543 0.0
C518 C 0.10094 0.96923 0.48478 0.0
C519 C 0.12084 0.92652 0.46837 0.0
C520 C 0.10079 0.96613 0.51601 0.0
C521 C 0.12054 0.9203 0.53236 0.0
H522 H 0.08532 1.00694 0.47351 0.0
H523 H 0.08507 1.002 0.52734 0.0
S524 S 0.17693 0.7919 0.50019 0.0
N525 N 0.16071 0.83284 0.47094 0.0
N526 N 0.1604 0.82688 0.52954 0.0
C527 C 0.14043 0.87462 0.51625 0.0
C528 C 0.14059 0.87776 0.48435 0.0
C529 C 0.88958 0.13265 0.51706 0.0
C530 C 0.87005 0.18078 0.53338 0.0
C531 C 0.8894 0.12982 0.48579 0.0
C532 C 0.86968 0.17507 0.4693 0.0
H533 H 0.90514 0.09478 0.52844 0.0
H534 H 0.90486 0.0903 0.47455 0.0
S535 S 0.81423 0.31638 0.50105 0.0
N536 N 0.8306 0.27913 0.53043 0.0
N537 N 0.83025 0.27358 0.47182 0.0
C538 C 0.85016 0.22599 0.48527 0.0
C539 C 0.85035 0.2289 0.5172 0.0
C540 C 0.60164 0.62167 0.01546 0.0
C541 C 0.62056 0.67714 0.0318 0.0
C542 C 0.60178 0.61904 0.98419 0.0
C543 C 0.62085 0.67175 0.96773 0.0
H544 H 0.58662 0.57803 0.02683 0.0
H545 H 0.58684 0.57356 0.97294 0.0
S546 S 0.67439 0.83457 -0.00041 0.0
N547 N 0.65864 0.79062 0.02895 0.0
N548 N 0.65889 0.78565 0.97032 0.0
C549 C 0.63972 0.72994 0.98374 0.0
C550 C 0.63958 0.73266 0.01566 0.0
C551 C 0.34828 0.44675 0.98446 0.0
C552 C 0.36934 0.46773 0.96794 0.0
C553 C 0.34848 0.44753 0.01578 0.0
C554 C 0.36973 0.46953 0.03196 0.0
H555 H 0.33138 0.43034 0.97318 0.0
H556 H 0.33172 0.43211 0.02734 0.0
S557 S 0.43017 0.522 -0.00037 0.0
N558 N 0.41238 0.50605 0.97044 0.0
N559 N 0.41266 0.50758 0.02902 0.0
C560 C 0.39101 0.48901 0.01577 0.0
C561 C 0.39083 0.48809 0.98389 0.0
C562 C 0.60206 0.49726 0.48393 0.0
C563 C 0.62172 0.45118 0.46753 0.0
C564 C 0.60208 0.49709 0.51521 0.0
C565 C 0.62176 0.4508 0.53162 0.0
H566 H 0.58647 0.53498 0.47259 0.0
H567 H 0.58648 0.53457 0.52653 0.0
S568 S 0.67776 0.317 0.4996 0.0
N569 N 0.66144 0.35586 0.47029 0.0
N570 N 0.66146 0.3556 0.5289 0.0
C571 C 0.64149 0.40293 0.51555 0.0
C572 C 0.64147 0.4031 0.48362 0.0
C573 C 0.38833 0.60762 0.51549 0.0
C574 C 0.3695 0.66157 0.53213 0.0
C575 C 0.38852 0.61194 0.48425 0.0
C576 C 0.3699 0.67048 0.46812 0.0
H577 H 0.40304 0.55989 0.52659 0.0
H578 H 0.40336 0.56741 0.47272 0.0
S579 S 0.31679 0.83204 0.50087 0.0
N580 N 0.33201 0.77982 0.52996 0.0
N581 N 0.33235 0.78791 0.47136 0.0
C582 C 0.35112 0.72712 0.48444 0.0
C583 C 0.35092 0.72265 0.51634 0.0
C584 C 0.98339 1.04618 0.15301 0.0
C585 C 0.97013 0.05653 0.12643 0.0
C586 C 0.00844 1.04395 0.15261 0.0
C587 C 0.0211 1.05126 0.12561 0.0
H588 H 0.97436 1.03907 0.17432 0.0
H589 H 0.01793 1.03743 0.17366 0.0
S590 S 0.99478 0.07674 0.04975 0.0
N591 N 0.97146 0.07266 0.07231 0.0
N592 N 0.01858 0.06782 0.07154 0.0
C593 C 0.00808 0.06078 0.09883 0.0
C594 C 0.98256 0.06389 0.09925 0.0
C595 C 0.98271 0.05473 0.35022 0.0
C596 C 0.96988 0.05473 0.37717 0.0
C597 C 0.00777 1.05258 0.35006 0.0
C598 C 0.02089 1.05146 0.37684 0.0
H599 H 0.97334 0.05691 0.32904 0.0
H600 H 0.0169 1.05133 0.32876 0.0
S601 S 0.99581 1.05119 0.45344 0.0
N602 N 0.97211 1.05323 0.43137 0.0
N603 N 0.01927 1.05029 0.43107 0.0
C604 C 0.00831 1.05193 0.40397 0.0
C605 C 0.98276 1.05297 0.40413 0.0
C606 C 0.00926 1.02403 0.85436 0.0
C607 C 0.02133 0.06061 0.88056 0.0
C608 C 0.98423 1.02349 0.85295 0.0
C609 C 0.97033 0.05793 0.87782 0.0
H610 H 0.01921 0.99693 0.8346 0.0
H611 H 0.97573 0.99396 0.8323 0.0
S612 S 0.99335 0.15764 0.95206 0.0
N613 N 0.01766 0.13129 0.93205 0.0
N614 N 0.97049 0.12779 0.92964 0.0
C615 C 0.98217 0.09428 0.90425 0.0
C616 C 0.00773 0.09614 0.90556 0.0
C617 C 0.9804 0.94955 0.62247 0.0
C618 C 0.97 0.06982 0.62711 0.0
C619 C 0.00534 0.93548 0.62258 0.0
C620 C 0.02054 1.04201 0.62602 0.0
H621 H 0.96924 0.86559 0.61962 0.0
H622 H 0.01281 0.84063 0.61983 0.0
S623 S 0.00206 0.3784 0.63673 0.0
N624 N 0.97663 0.29779 0.63451 0.0
N625 N 0.02359 0.27156 0.63292 0.0
C626 C 0.01038 0.16326 0.62948 0.0
C627 C 0.98502 0.17709 0.63049 0.0
C628 C 0.48242 0.57326 0.15115 0.0
C629 C 0.46955 0.56689 0.12422 0.0
C630 C 0.50749 0.57177 0.15139 0.0
C631 C 0.52058 0.56279 0.12471 0.0
H632 H 0.47308 0.57885 0.17228 0.0
H633 H 0.51665 0.57837 0.17267 0.0
S634 S 0.49535 0.5435 0.04817 0.0
N635 N 0.4717 0.55155 0.07012 0.0
N636 N 0.51885 0.54778 0.07058 0.0
C637 C 0.50795 0.55588 0.0976 0.0
C638 C 0.4824 0.55849 0.09734 0.0
C639 C 0.48283 0.54652 0.34964 0.0
C640 C 0.47035 0.56522 0.37649 0.0
C641 C 0.5079 0.54601 0.34901 0.0
C642 C 0.52139 0.56481 0.37518 0.0
H643 H 0.47317 0.53283 0.32888 0.0
H644 H 0.51675 0.52984 0.32785 0.0
S645 S 0.49733 0.61982 0.45121 0.0
N646 N 0.47335 0.60401 0.42993 0.0
N647 N 0.52048 0.60363 0.42868 0.0
C648 C 0.50916 0.58435 0.40217 0.0
C649 C 0.48362 0.58414 0.40285 0.0
C650 C 0.48289 0.53642 0.89859 0.0
C651 C 0.46962 0.54637 0.87199 0.0
C652 C 0.50799 0.53692 0.89826 0.0
C653 C 0.52067 0.54803 0.87132 0.0
H654 H 0.47384 0.52699 0.91984 0.0
H655 H 0.51749 0.53045 0.91929 0.0
S656 S 0.49433 0.57544 0.7955 0.0
N657 N 0.471 0.56652 0.81797 0.0
N658 N 0.51812 0.5681 0.81733 0.0
C659 C 0.50761 0.55775 0.84456 0.0
C660 C 0.48208 0.55696 0.8449 0.0
C661 C 0.48227 0.53487 0.60084 0.0
C662 C 0.46967 0.54445 0.62787 0.0
C663 C 0.50735 0.53904 0.6003 0.0
C664 C 0.52066 0.55217 0.6268 0.0
H665 H 0.47269 0.52589 0.57989 0.0
H666 H 0.51636 0.53021 0.57902 0.0
S667 S 0.4962 0.58051 0.70345 0.0
N668 N 0.47236 0.56758 0.68182 0.0
N669 N 0.51944 0.57477 0.68081 0.0
C670 C 0.50828 0.56171 0.65398 0.0
C671 C 0.48279 0.55779 0.65452 0.0
C672 C 0.14582 0.67152 0.12629 0.0
C673 C 0.12865 0.77055 0.1258 0.0
C674 C 0.13905 0.5417 0.12756 0.0
C675 C 0.11482 0.5059 0.12833 0.0
H676 H 0.16473 0.69441 0.12582 0.0
H677 H 0.15285 0.46927 0.128 0.0
S678 S 0.06285 0.72795 0.12747 0.0
N679 N 0.08644 0.82306 0.12618 0.0
N680 N 0.07355 0.58102 0.12852 0.0
C681 C 0.0975 0.60423 0.12783 0.0
C682 C 0.10443 0.73595 0.12657 0.0
C683 C 0.88592 0.37097 0.13058 0.0
C684 C 0.86217 0.33498 0.12456 0.0
C685 C 0.89256 0.50093 0.13194 0.0
C686 C 0.87573 0.59971 0.12734 0.0
H687 H 0.89938 0.29857 0.13459 0.0
H688 H 0.91107 0.52415 0.13679 0.0
S689 S 0.81164 0.55562 0.10869 0.0
N690 N 0.82198 0.40888 0.11263 0.0
N691 N 0.83465 0.65136 0.115 0.0
C692 C 0.85209 0.56469 0.1208 0.0
C693 C 0.84528 0.43282 0.11944 0.0
C694 C 0.14534 0.42792 0.37781 0.0
C695 C 0.12823 0.32825 0.37651 0.0
C696 C 0.13862 0.55763 0.37612 0.0
C697 C 0.11449 0.59262 0.37298 0.0
H698 H 0.16417 0.40565 0.38021 0.0
H699 H 0.15236 0.63066 0.37746 0.0
S700 S 0.06275 0.36883 0.36787 0.0
N701 N 0.08622 0.27446 0.37154 0.0
N702 N 0.07342 0.51615 0.36826 0.0
C703 C 0.09724 0.49369 0.3715 0.0
C704 C 0.10412 0.36213 0.37329 0.0
C705 C 0.85211 0.5486 0.37675 0.0
C706 C 0.87626 0.51362 0.37393 0.0
C707 C 0.84534 0.67834 0.3781 0.0
C708 C 0.86243 0.77805 0.37677 0.0
H709 H 0.83839 0.47552 0.3781 0.0
H710 H 0.8265 0.70062 0.38028 0.0
S711 S 0.92794 0.73748 0.36869 0.0
N712 N 0.91731 0.5901 0.36935 0.0
N713 N 0.90445 0.83187 0.37199 0.0
C714 C 0.88656 0.74416 0.37382 0.0
C715 C 0.89348 0.61258 0.37237 0.0
C716 C 0.84564 0.43069 0.87836 0.0
C717 C 0.86272 0.3314 0.87663 0.0
C718 C 0.8524 0.56066 0.87721 0.0
C719 C 0.87653 0.59631 0.87424 0.0
H720 H 0.82682 0.40792 0.88068 0.0
H721 H 0.83868 0.63335 0.87881 0.0
S722 S 0.92818 0.37379 0.86809 0.0
N723 N 0.9047 0.27878 0.87129 0.0
N724 N 0.91756 0.52087 0.8692 0.0
C725 C 0.89374 0.49777 0.87233 0.0
C726 C 0.88682 0.36599 0.87351 0.0
C727 C 0.14061 0.51737 0.87848 0.0
C728 C 0.11827 0.47663 0.86755 0.0
C729 C 0.14623 0.64817 0.88089 0.0
C730 C 0.12955 0.74369 0.87317 0.0
H731 H 0.15394 0.44776 0.88502 0.0
H732 H 0.16384 0.67466 0.889 0.0
S733 S 0.0683 0.68843 0.84398 0.0
N734 N 0.07923 0.54341 0.84894 0.0
N735 N 0.08971 0.78802 0.85444 0.0
C736 C 0.10704 0.70445 0.86267 0.0
C737 C 0.10144 0.57132 0.85959 0.0
C738 C 0.84557 0.68612 0.6205 0.0
C739 C 0.86221 0.78476 0.6267 0.0
C740 C 0.85211 0.55601 0.62158 0.0
C741 C 0.87557 0.51984 0.62892 0.0
H742 H 0.8273 0.70959 0.61457 0.0
H743 H 0.83884 0.48374 0.61625 0.0
S744 S 0.92528 0.73975 0.64987 0.0
N745 N 0.90264 0.8357 0.64239 0.0
N746 N 0.91515 0.59329 0.6442 0.0
C747 C 0.89222 0.61753 0.63576 0.0
C748 C 0.88552 0.74941 0.6347 0.0
C749 C 0.10477 0.35184 0.62943 0.0
C750 C 0.12857 0.31551 0.62417 0.0
C751 C 0.09816 0.48181 0.62992 0.0
C752 C 0.11507 0.58059 0.62532 0.0
H753 H 0.09125 0.27976 0.63357 0.0
H754 H 0.0796 0.50507 0.63423 0.0
S755 S 0.17938 0.53594 0.60864 0.0
N756 N 0.16895 0.38935 0.61297 0.0
N757 N 0.15632 0.63184 0.61388 0.0
C758 C 0.13878 0.54537 0.6196 0.0
C759 C 0.14556 0.41338 0.61903 0.0
C760 C 0.59819 0.11973 0.1299 0.0
C761 C 0.61508 1.02069 0.12602 0.0
C762 C 0.60485 0.24961 0.12842 0.0
C763 C 0.62867 0.28533 0.12294 0.0
H764 H 0.57962 0.09678 0.13429 0.0
H765 H 0.59132 0.32222 0.13188 0.0
S766 S 0.67946 0.06381 0.10917 0.0
N767 N 0.65637 0.9684 0.11509 0.0
N768 N 0.66905 0.21076 0.11237 0.0
C769 C 0.64564 0.18719 0.11855 0.0
C770 C 0.63883 0.05537 0.12008 0.0
C771 C 0.3448 0.94609 0.12406 0.0
C772 C 0.36193 0.84694 0.12514 0.0
C773 C 0.35157 0.07601 0.12485 0.0
C774 C 0.37576 0.1118 0.1269 0.0
H775 H 0.32591 0.92325 0.12249 0.0
H776 H 0.33781 0.14854 0.12371 0.0
S777 S 0.42761 0.88948 0.13063 0.0
N778 N 0.40405 0.79434 0.12845 0.0
N779 N 0.41694 1.03655 0.13011 0.0
C780 C 0.39304 1.01336 0.12809 0.0
C781 C 0.38611 0.88153 0.12717 0.0
C782 C 0.63927 0.07202 0.37528 0.0
C783 C 0.61512 0.107 0.37244 0.0
C784 C 0.64604 0.94227 0.37646 0.0
C785 C 0.62895 0.84259 0.3749 0.0
H786 H 0.653 0.14509 0.37676 0.0
H787 H 0.66489 0.91996 0.37868 0.0
S788 S 0.56343 0.88322 0.36671 0.0
N789 N 0.57406 1.03058 0.36766 0.0
N790 N 0.58693 0.78881 0.36987 0.0
C791 C 0.60482 0.8765 0.37192 0.0
C792 C 0.59789 1.00807 0.37069 0.0
C793 C 0.39277 0.12177 0.36961 0.0
C794 C 0.37588 1.02236 0.37345 0.0
C795 C 0.38612 0.2515 0.37127 0.0
C796 C 0.3623 0.28662 0.37686 0.0
H797 H 0.41134 0.09925 0.36519 0.0
H798 H 0.39964 0.32444 0.36787 0.0
S799 S 0.31152 0.06394 0.39041 0.0
N800 N 0.33459 0.96908 0.38434 0.0
N801 N 0.32194 0.21113 0.38739 0.0
C802 C 0.34533 0.18811 0.38115 0.0
C803 C 0.35214 0.05648 0.37944 0.0
C804 C 0.34483 0.92321 0.87576 0.0
C805 C 0.36201 0.82416 0.87569 0.0
C806 C 0.35156 1.05303 0.8741 0.0
C807 C 0.37575 0.0889 0.87237 0.0
H808 H 0.32594 0.90034 0.87699 0.0
H809 H 0.33775 0.1254 0.87418 0.0
S810 S 0.42771 0.86679 0.871 0.0
N811 N 0.40418 0.7717 0.87346 0.0
N812 N 0.41698 1.01372 0.87037 0.0
C813 C 0.39308 0.99053 0.87219 0.0
C814 C 0.38619 0.85879 0.87386 0.0
C815 C 0.60489 0.23715 0.87172 0.0
C816 C 0.62883 0.27298 0.87649 0.0
C817 C 0.59822 0.10722 0.87031 0.0
C818 C 0.6152 1.00821 0.87356 0.0
H819 H 0.59128 0.3097 0.86876 0.0
H820 H 0.57955 0.08422 0.86648 0.0
S821 S 0.67997 1.05155 0.88822 0.0
N822 N 0.66946 0.19847 0.88559 0.0
N823 N 0.65675 0.95606 0.88299 0.0
C824 C 0.63908 1.04299 0.87874 0.0
C825 C 0.64591 0.17485 0.8802 0.0
C826 C 0.39182 0.09445 0.63038 0.0
C827 C 0.37493 0.995 0.62639 0.0
C828 C 0.38521 0.22419 0.62862 0.0
C829 C 0.36143 0.25938 0.62274 0.0
H830 H 0.41036 0.07195 0.63507 0.0
H831 H 0.39872 0.2971 0.63223 0.0
S832 S 0.3107 1.0366 0.60843 0.0
N833 N 0.33372 0.94173 0.61484 0.0
N834 N 0.32111 0.18383 0.61164 0.0
C835 C 0.34447 0.16082 0.61822 0.0
C836 C 0.35124 1.02913 0.62004 0.0
C837 C 0.64539 0.93478 0.62384 0.0
C838 C 0.62826 0.83515 0.62453 0.0
C839 C 0.6386 0.06449 0.62494 0.0
C840 C 0.61439 0.09944 0.62684 0.0
H841 H 0.66428 0.91247 0.62239 0.0
H842 H 0.65236 0.13756 0.62416 0.0
S843 S 0.56258 0.87565 0.62993 0.0
N844 N 0.58614 0.78125 0.62756 0.0
N845 N 0.57323 1.02301 0.62977 0.0
C846 C 0.59713 1.00053 0.62771 0.0
C847 C 0.60407 0.86898 0.62651 0.0
loop_
_geom_bond_atom_site_label_1
_geom_bond_atom_site_label_2
_geom_bond_distance
_geom_bond_site_symmetry_2
_ccdc_geom_bond_type
Tb0 O3 2.453 . S
Tb0 O4 2.596 . S
Tb0 O5 2.374 . S
Tb0 O13 2.343 . S
Tb0 O15 2.353 . S
Tb0 O17 2.427 . S
Tb0 O18 2.513 . S
C1 O5 1.251 . S
C1 O7 1.263 . S
Tb2 O4 2.343 . S
Tb2 O7 2.353 . S
Tb2 O10 2.427 . S
Tb2 O11 2.513 . S
Tb2 O12 2.453 1_545 S
Tb2 O13 2.596 . S
Tb2 O14 2.374 . S
O3 Tb0 2.453 . S
O3 C19 1.245 . S
O4 Tb0 2.596 . S
O4 Tb2 2.343 . S
O4 C19 1.259 . S
O5 Tb0 2.374 . S
O5 C1 1.251 . S
C6 O10 1.275 . S
C6 O11 1.246 . S
O7 C1 1.263 . S
O7 Tb2 2.353 . S
C8 O12 1.245 . S
C8 O13 1.259 1_565 S
C9 O14 1.250 . S
C9 O15 1.263 . S
O10 Tb2 2.427 . S
O10 C6 1.275 . S
O11 Tb2 2.513 . S
O11 C6 1.246 . S
O12 Tb2 2.453 1_565 S
O12 C8 1.245 . S
O13 Tb0 2.343 . S
O13 Tb2 2.596 . S
O13 C8 1.259 1_545 S
O14 Tb2 2.374 . S
O14 C9 1.250 . S
O15 Tb0 2.353 . S
O15 C9 1.263 . S
C16 O17 1.275 . S
C16 O18 1.246 . S
O17 Tb0 2.427 . S
O17 C16 1.275 . S
O18 Tb0 2.513 . S
O18 C16 1.246 . S
C19 O3 1.245 . S
C19 O4 1.259 . S
Tb20 O23 2.453 . S
Tb20 O24 2.596 . S
Tb20 O25 2.374 . S
Tb20 O33 2.343 . S
Tb20 O35 2.353 . S
Tb20 O37 2.427 . S
Tb20 O38 2.513 . S
C21 O25 1.251 . S
C21 O27 1.263 . S
Tb22 O24 2.343 . S
Tb22 O27 2.353 . S
Tb22 O30 2.427 . S
Tb22 O31 2.513 . S
Tb22 O32 2.453 1_565 S
Tb22 O33 2.596 . S
Tb22 O34 2.374 . S
O23 Tb20 2.453 . S
O23 C39 1.245 . S
O24 Tb20 2.596 . S
O24 Tb22 2.343 . S
O24 C39 1.259 . S
O25 Tb20 2.374 . S
O25 C21 1.251 . S
C26 O30 1.275 . S
C26 O31 1.246 . S
O27 C21 1.263 . S
O27 Tb22 2.353 . S
C28 O32 1.245 . S
C28 O33 1.259 1_545 S
C29 O34 1.250 . S
C29 O35 1.263 . S
O30 Tb22 2.427 . S
O30 C26 1.275 . S
O31 Tb22 2.513 . S
O31 C26 1.246 . S
O32 Tb22 2.453 1_545 S
O32 C28 1.245 . S
O33 Tb20 2.343 . S
O33 Tb22 2.596 . S
O33 C28 1.259 1_565 S
O34 Tb22 2.374 . S
O34 C29 1.250 . S
O35 Tb20 2.353 . S
O35 C29 1.263 . S
C36 O37 1.275 . S
C36 O38 1.246 . S
O37 Tb20 2.427 . S
O37 C36 1.275 . S
O38 Tb20 2.513 . S
O38 C36 1.246 . S
C39 O23 1.245 . S
C39 O24 1.259 . S
Tb40 O43 2.453 . S
Tb40 O44 2.596 . S
Tb40 O45 2.374 . S
Tb40 O53 2.343 . S
Tb40 O55 2.353 . S
Tb40 O57 2.427 . S
Tb40 O58 2.513 . S
C41 O45 1.251 . S
C41 O47 1.263 . S
Tb42 O44 2.343 . S
Tb42 O47 2.353 . S
Tb42 O50 2.427 . S
Tb42 O51 2.513 . S
Tb42 O52 2.453 1_565 S
Tb42 O53 2.596 . S
Tb42 O54 2.374 . S
O43 Tb40 2.453 . S
O43 C59 1.245 . S
O44 Tb40 2.596 . S
O44 Tb42 2.343 . S
O44 C59 1.259 . S
O45 Tb40 2.374 . S
O45 C41 1.251 . S
C46 O50 1.275 . S
C46 O51 1.246 . S
O47 C41 1.263 . S
O47 Tb42 2.353 . S
C48 O52 1.245 . S
C48 O53 1.259 1_545 S
C49 O54 1.250 . S
C49 O55 1.263 . S
O50 Tb42 2.427 . S
O50 C46 1.275 . S
O51 Tb42 2.513 . S
O51 C46 1.246 . S
O52 Tb42 2.453 1_545 S
O52 C48 1.245 . S
O53 Tb40 2.343 . S
O53 Tb42 2.596 . S
O53 C48 1.259 1_565 S
O54 Tb42 2.374 . S
O54 C49 1.250 . S
O55 Tb40 2.353 . S
O55 C49 1.263 . S
C56 O57 1.275 . S
C56 O58 1.246 . S
O57 Tb40 2.427 . S
O57 C56 1.275 . S
O58 Tb40 2.513 . S
O58 C56 1.246 . S
C59 O43 1.245 . S
C59 O44 1.259 . S
Tb60 O63 2.453 . S
Tb60 O64 2.596 . S
Tb60 O65 2.374 . S
Tb60 O73 2.343 . S
Tb60 O75 2.353 . S
Tb60 O77 2.427 . S
Tb60 O78 2.513 . S
C61 O65 1.251 . S
C61 O67 1.263 . S
Tb62 O64 2.343 . S
Tb62 O67 2.353 . S
Tb62 O70 2.427 . S
Tb62 O71 2.513 . S
Tb62 O72 2.453 1_545 S
Tb62 O73 2.596 . S
Tb62 O74 2.374 . S
O63 Tb60 2.453 . S
O63 C79 1.245 . S
O64 Tb60 2.596 . S
O64 Tb62 2.343 . S
O64 C79 1.259 . S
O65 Tb60 2.374 . S
O65 C61 1.251 . S
C66 O70 1.275 . S
C66 O71 1.246 . S
O67 C61 1.263 . S
O67 Tb62 2.353 . S
C68 O72 1.245 . S
C68 O73 1.259 1_565 S
C69 O74 1.250 . S
C69 O75 1.263 . S
O70 Tb62 2.427 . S
O70 C66 1.275 . S
O71 Tb62 2.513 . S
O71 C66 1.246 . S
O72 Tb62 2.453 1_565 S
O72 C68 1.245 . S
O73 Tb60 2.343 . S
O73 Tb62 2.596 . S
O73 C68 1.259 1_545 S
O74 Tb62 2.374 . S
O74 C69 1.250 . S
O75 Tb60 2.353 . S
O75 C69 1.263 . S
C76 O77 1.275 . S
C76 O78 1.246 . S
O77 Tb60 2.427 . S
O77 C76 1.275 . S
O78 Tb60 2.513 . S
O78 C76 1.246 . S
C79 O63 1.245 . S
C79 O64 1.259 . S
Tb80 O83 2.453 1_565 S
Tb80 O84 2.596 . S
Tb80 O85 2.374 . S
Tb80 O93 2.343 . S
Tb80 O95 2.353 . S
Tb80 O97 2.427 . S
Tb80 O98 2.513 . S
C81 O85 1.251 . S
C81 O87 1.263 . S
Tb82 O84 2.343 . S
Tb82 O87 2.353 . S
Tb82 O90 2.427 . S
Tb82 O91 2.513 . S
Tb82 O92 2.453 . S
Tb82 O93 2.596 . S
Tb82 O94 2.374 . S
O83 Tb80 2.453 1_545 S
O83 C99 1.245 . S
O84 Tb80 2.596 . S
O84 Tb82 2.343 . S
O84 C99 1.259 1_565 S
O85 Tb80 2.374 . S
O85 C81 1.251 . S
C86 O90 1.275 . S
C86 O91 1.246 . S
O87 C81 1.263 . S
O87 Tb82 2.353 . S
C88 O92 1.245 . S
C88 O93 1.259 . S
C89 O94 1.250 . S
C89 O95 1.263 . S
O90 Tb82 2.427 . S
O90 C86 1.275 . S
O91 Tb82 2.513 . S
O91 C86 1.246 . S
O92 Tb82 2.453 . S
O92 C88 1.245 . S
O93 Tb80 2.343 . S
O93 Tb82 2.596 . S
O93 C88 1.259 . S
O94 Tb82 2.374 . S
O94 C89 1.250 . S
O95 Tb80 2.353 . S
O95 C89 1.263 . S
C96 O97 1.275 . S
C96 O98 1.246 . S
O97 Tb80 2.427 . S
O97 C96 1.275 . S
O98 Tb80 2.513 . S
O98 C96 1.246 . S
C99 O83 1.245 . S
C99 O84 1.259 1_545 S
Tb100 O103 2.453 1_545 S
Tb100 O104 2.596 . S
Tb100 O105 2.374 . S
Tb100 O113 2.343 . S
Tb100 O115 2.353 . S
Tb100 O117 2.427 . S
Tb100 O118 2.513 . S
C101 O105 1.251 . S
C101 O107 1.263 . S
Tb102 O104 2.343 . S
Tb102 O107 2.353 . S
Tb102 O110 2.427 . S
Tb102 O111 2.513 . S
Tb102 O112 2.453 . S
Tb102 O113 2.596 . S
Tb102 O114 2.374 . S
O103 Tb100 2.453 1_565 S
O103 C119 1.245 . S
O104 Tb100 2.596 . S
O104 Tb102 2.343 . S
O104 C119 1.259 1_545 S
O105 Tb100 2.374 . S
O105 C101 1.251 . S
C106 O110 1.275 . S
C106 O111 1.246 . S
O107 C101 1.263 . S
O107 Tb102 2.353 . S
C108 O112 1.245 . S
C108 O113 1.259 . S
C109 O114 1.250 . S
C109 O115 1.263 . S
O110 Tb102 2.427 . S
O110 C106 1.275 . S
O111 Tb102 2.513 . S
O111 C106 1.246 . S
O112 Tb102 2.453 . S
O112 C108 1.245 . S
O113 Tb100 2.343 . S
O113 Tb102 2.596 . S
O113 C108 1.259 . S
O114 Tb102 2.374 . S
O114 C109 1.250 . S
O115 Tb100 2.353 . S
O115 C109 1.263 . S
C116 O117 1.275 . S
C116 O118 1.246 . S
O117 Tb100 2.427 . S
O117 C116 1.275 . S
O118 Tb100 2.513 . S
O118 C116 1.246 . S
C119 O103 1.245 . S
C119 O104 1.259 1_565 S
Tb120 O123 2.453 1_545 S
Tb120 O124 2.596 . S
Tb120 O125 2.374 . S
Tb120 O133 2.343 . S
Tb120 O135 2.353 . S
Tb120 O137 2.427 . S
Tb120 O138 2.513 . S
C121 O125 1.251 . S
C121 O127 1.263 . S
Tb122 O124 2.343 . S
Tb122 O127 2.353 . S
Tb122 O130 2.427 . S
Tb122 O131 2.513 . S
Tb122 O132 2.453 . S
Tb122 O133 2.596 . S
Tb122 O134 2.374 . S
O123 Tb120 2.453 1_565 S
O123 C139 1.245 . S
O124 Tb120 2.596 . S
O124 Tb122 2.343 . S
O124 C139 1.259 1_545 S
O125 Tb120 2.374 . S
O125 C121 1.251 . S
C126 O130 1.275 . S
C126 O131 1.246 . S
O127 C121 1.263 . S
O127 Tb122 2.353 . S
C128 O132 1.245 . S
C128 O133 1.259 . S
C129 O134 1.250 . S
C129 O135 1.263 . S
O130 Tb122 2.427 . S
O130 C126 1.275 . S
O131 Tb122 2.513 . S
O131 C126 1.246 . S
O132 Tb122 2.453 . S
O132 C128 1.245 . S
O133 Tb120 2.343 . S
O133 Tb122 2.596 . S
O133 C128 1.259 . S
O134 Tb122 2.374 . S
O134 C129 1.250 . S
O135 Tb120 2.353 . S
O135 C129 1.263 . S
C136 O137 1.275 . S
C136 O138 1.246 . S
O137 Tb120 2.427 . S
O137 C136 1.275 . S
O138 Tb120 2.513 . S
O138 C136 1.246 . S
C139 O123 1.245 . S
C139 O124 1.259 1_565 S
Tb140 O143 2.453 1_565 S
Tb140 O144 2.596 . S
Tb140 O145 2.374 . S
Tb140 O153 2.343 . S
Tb140 O155 2.353 . S
Tb140 O157 2.427 . S
Tb140 O158 2.513 . S
C141 O145 1.251 . S
C141 O147 1.263 . S
Tb142 O144 2.343 . S
Tb142 O147 2.353 . S
Tb142 O150 2.427 . S
Tb142 O151 2.513 . S
Tb142 O152 2.453 . S
Tb142 O153 2.596 . S
Tb142 O154 2.374 . S
O143 Tb140 2.453 1_545 S
O143 C159 1.245 . S
O144 Tb140 2.596 . S
O144 Tb142 2.343 . S
O144 C159 1.259 1_565 S
O145 Tb140 2.374 . S
O145 C141 1.251 . S
C146 O150 1.275 . S
C146 O151 1.246 . S
O147 C141 1.263 . S
O147 Tb142 2.353 . S
C148 O152 1.245 . S
C148 O153 1.259 . S
C149 O154 1.250 . S
C149 O155 1.263 . S
O150 Tb142 2.427 . S
O150 C146 1.275 . S
O151 Tb142 2.513 . S
O151 C146 1.246 . S
O152 Tb142 2.453 . S
O152 C148 1.245 . S
O153 Tb140 2.343 . S
O153 Tb142 2.596 . S
O153 C148 1.259 . S
O154 Tb142 2.374 . S
O154 C149 1.250 . S
O155 Tb140 2.353 . S
O155 C149 1.263 . S
C156 O157 1.275 . S
C156 O158 1.246 . S
O157 Tb140 2.427 . S
O157 C156 1.275 . S
O158 Tb140 2.513 . S
O158 C156 1.246 . S
C159 O143 1.245 . S
C159 O144 1.259 1_545 S
Tb160 O163 2.453 . S
Tb160 O164 2.596 . S
Tb160 O165 2.374 . S
Tb160 O173 2.343 . S
Tb160 O175 2.353 . S
Tb160 O177 2.427 . S
Tb160 O178 2.513 . S
C161 O165 1.251 . S
C161 O167 1.263 . S
Tb162 O164 2.343 . S
Tb162 O167 2.353 . S
Tb162 O170 2.427 . S
Tb162 O171 2.513 . S
Tb162 O172 2.453 . S
Tb162 O173 2.596 . S
Tb162 O174 2.374 . S
O163 Tb160 2.453 . S
O163 C179 1.245 . S
O164 Tb160 2.596 . S
O164 Tb162 2.343 . S
O164 C179 1.259 . S
O165 Tb160 2.374 . S
O165 C161 1.251 . S
C166 O170 1.275 . S
C166 O171 1.246 . S
O167 C161 1.263 . S
O167 Tb162 2.353 . S
C168 O172 1.245 . S
C168 O173 1.259 . S
C169 O174 1.250 . S
C169 O175 1.263 . S
O170 Tb162 2.427 . S
O170 C166 1.275 . S
O171 Tb162 2.513 . S
O171 C166 1.246 . S
O172 Tb162 2.453 . S
O172 C168 1.245 . S
O173 Tb160 2.343 . S
O173 Tb162 2.596 . S
O173 C168 1.259 . S
O174 Tb162 2.374 . S
O174 C169 1.250 . S
O175 Tb160 2.353 . S
O175 C169 1.263 . S
C176 O177 1.275 . S
C176 O178 1.246 . S
O177 Tb160 2.427 . S
O177 C176 1.275 . S
O178 Tb160 2.513 . S
O178 C176 1.246 . S
C179 O163 1.245 . S
C179 O164 1.259 . S
Tb180 O183 2.453 . S
Tb180 O184 2.596 . S
Tb180 O185 2.374 . S
Tb180 O193 2.343 . S
Tb180 O195 2.353 . S
Tb180 O197 2.427 . S
Tb180 O198 2.513 . S
C181 O185 1.251 . S
C181 O187 1.263 . S
Tb182 O184 2.343 . S
Tb182 O187 2.353 . S
Tb182 O190 2.427 . S
Tb182 O191 2.513 . S
Tb182 O192 2.453 . S
Tb182 O193 2.596 . S
Tb182 O194 2.374 . S
O183 Tb180 2.453 . S
O183 C199 1.245 . S
O184 Tb180 2.596 . S
O184 Tb182 2.343 . S
O184 C199 1.259 . S
O185 Tb180 2.374 . S
O185 C181 1.251 . S
C186 O190 1.275 . S
C186 O191 1.246 . S
O187 C181 1.263 . S
O187 Tb182 2.353 . S
C188 O192 1.245 . S
C188 O193 1.259 . S
C189 O194 1.250 . S
C189 O195 1.263 . S
O190 Tb182 2.427 . S
O190 C186 1.275 . S
O191 Tb182 2.513 . S
O191 C186 1.246 . S
O192 Tb182 2.453 . S
O192 C188 1.245 . S
O193 Tb180 2.343 . S
O193 Tb182 2.596 . S
O193 C188 1.259 . S
O194 Tb182 2.374 . S
O194 C189 1.250 . S
O195 Tb180 2.353 . S
O195 C189 1.263 . S
C196 O197 1.275 . S
C196 O198 1.246 . S
O197 Tb180 2.427 . S
O197 C196 1.275 . S
O198 Tb180 2.513 . S
O198 C196 1.246 . S
C199 O183 1.245 . S
C199 O184 1.259 . S
Tb200 O203 2.453 . S
Tb200 O204 2.596 . S
Tb200 O205 2.374 . S
Tb200 O213 2.343 . S
Tb200 O215 2.353 . S
Tb200 O217 2.427 . S
Tb200 O218 2.513 . S
C201 O205 1.251 . S
C201 O207 1.263 . S
Tb202 O204 2.343 . S
Tb202 O207 2.353 . S
Tb202 O210 2.427 . S
Tb202 O211 2.513 . S
Tb202 O212 2.453 . S
Tb202 O213 2.596 . S
Tb202 O214 2.374 . S
O203 Tb200 2.453 . S
O203 C219 1.245 . S
O204 Tb200 2.596 . S
O204 Tb202 2.343 . S
O204 C219 1.259 . S
O205 Tb200 2.374 . S
O205 C201 1.251 . S
C206 O210 1.275 . S
C206 O211 1.246 . S
O207 C201 1.263 . S
O207 Tb202 2.353 . S
C208 O212 1.245 . S
C208 O213 1.259 . S
C209 O214 1.250 . S
C209 O215 1.263 . S
O210 Tb202 2.427 . S
O210 C206 1.275 . S
O211 Tb202 2.513 . S
O211 C206 1.246 . S
O212 Tb202 2.453 . S
O212 C208 1.245 . S
O213 Tb200 2.343 . S
O213 Tb202 2.596 . S
O213 C208 1.259 . S
O214 Tb202 2.374 . S
O214 C209 1.250 . S
O215 Tb200 2.353 . S
O215 C209 1.263 . S
C216 O217 1.275 . S
C216 O218 1.246 . S
O217 Tb200 2.427 . S
O217 C216 1.275 . S
O218 Tb200 2.513 . S
O218 C216 1.246 . S
C219 O203 1.245 . S
C219 O204 1.259 . S
Tb220 O223 2.453 . S
Tb220 O224 2.596 . S
Tb220 O225 2.374 . S
Tb220 O233 2.343 . S
Tb220 O235 2.353 . S
Tb220 O237 2.427 . S
Tb220 O238 2.513 . S
C221 O225 1.251 . S
C221 O227 1.263 . S
Tb222 O224 2.343 . S
Tb222 O227 2.353 . S
Tb222 O230 2.427 . S
Tb222 O231 2.513 . S
Tb222 O232 2.453 . S
Tb222 O233 2.596 . S
Tb222 O234 2.374 . S
O223 Tb220 2.453 . S
O223 C239 1.245 . S
O224 Tb220 2.596 . S
O224 Tb222 2.343 . S
O224 C239 1.259 . S
O225 Tb220 2.374 . S
O225 C221 1.251 . S
C226 O230 1.275 . S
C226 O231 1.246 . S
O227 C221 1.263 . S
O227 Tb222 2.353 . S
C228 O232 1.245 . S
C228 O233 1.259 . S
C229 O234 1.250 . S
C229 O235 1.263 . S
O230 Tb222 2.427 . S
O230 C226 1.275 . S
O231 Tb222 2.513 . S
O231 C226 1.246 . S
O232 Tb222 2.453 . S
O232 C228 1.245 . S
O233 Tb220 2.343 . S
O233 Tb222 2.596 . S
O233 C228 1.259 . S
O234 Tb222 2.374 . S
O234 C229 1.250 . S
O235 Tb220 2.353 . S
O235 C229 1.263 . S
C236 O237 1.275 . S
C236 O238 1.246 . S
O237 Tb220 2.427 . S
O237 C236 1.275 . S
O238 Tb220 2.513 . S
O238 C236 1.246 . S
C239 O223 1.245 . S
C239 O224 1.259 . S
Tb240 O243 2.453 . S
Tb240 O244 2.596 . S
Tb240 O245 2.374 . S
Tb240 O253 2.343 . S
Tb240 O255 2.353 . S
Tb240 O257 2.427 . S
Tb240 O258 2.513 . S
C241 O245 1.251 . S
C241 O247 1.263 . S
Tb242 O244 2.343 . S
Tb242 O247 2.353 . S
Tb242 O250 2.427 . S
Tb242 O251 2.513 . S
Tb242 O252 2.453 . S
Tb242 O253 2.596 . S
Tb242 O254 2.374 . S
O243 Tb240 2.453 . S
O243 C259 1.245 . S
O244 Tb240 2.596 . S
O244 Tb242 2.343 . S
O244 C259 1.259 . S
O245 Tb240 2.374 . S
O245 C241 1.251 . S
C246 O250 1.275 . S
C246 O251 1.246 . S
O247 C241 1.263 . S
O247 Tb242 2.353 . S
C248 O252 1.245 . S
C248 O253 1.259 . S
C249 O254 1.250 . S
C249 O255 1.263 . S
O250 Tb242 2.427 . S
O250 C246 1.275 . S
O251 Tb242 2.513 . S
O251 C246 1.246 . S
O252 Tb242 2.453 . S
O252 C248 1.245 . S
O253 Tb240 2.343 . S
O253 Tb242 2.596 . S
O253 C248 1.259 . S
O254 Tb242 2.374 . S
O254 C249 1.250 . S
O255 Tb240 2.353 . S
O255 C249 1.263 . S
C256 O257 1.275 . S
C256 O258 1.246 . S
O257 Tb240 2.427 . S
O257 C256 1.275 . S
O258 Tb240 2.513 . S
O258 C256 1.246 . S
C259 O243 1.245 . S
C259 O244 1.259 . S
Tb260 O263 2.453 . S
Tb260 O264 2.596 . S
Tb260 O265 2.374 . S
Tb260 O273 2.343 . S
Tb260 O275 2.353 . S
Tb260 O277 2.427 . S
Tb260 O278 2.513 . S
C261 O265 1.251 . S
C261 O267 1.263 . S
Tb262 O264 2.343 . S
Tb262 O267 2.353 . S
Tb262 O270 2.427 . S
Tb262 O271 2.513 . S
Tb262 O272 2.453 . S
Tb262 O273 2.596 . S
Tb262 O274 2.374 . S
O263 Tb260 2.453 . S
O263 C279 1.245 . S
O264 Tb260 2.596 . S
O264 Tb262 2.343 . S
O264 C279 1.259 . S
O265 Tb260 2.374 . S
O265 C261 1.251 . S
C266 O270 1.275 . S
C266 O271 1.246 . S
O267 C261 1.263 . S
O267 Tb262 2.353 . S
C268 O272 1.245 . S
C268 O273 1.259 . S
C269 O274 1.250 . S
C269 O275 1.263 . S
O270 Tb262 2.427 . S
O270 C266 1.275 . S
O271 Tb262 2.513 . S
O271 C266 1.246 . S
O272 Tb262 2.453 . S
O272 C268 1.245 . S
O273 Tb260 2.343 . S
O273 Tb262 2.596 . S
O273 C268 1.259 . S
O274 Tb262 2.374 . S
O274 C269 1.250 . S
O275 Tb260 2.353 . S
O275 C269 1.263 . S
C276 O277 1.275 . S
C276 O278 1.246 . S
O277 Tb260 2.427 . S
O277 C276 1.275 . S
O278 Tb260 2.513 . S
O278 C276 1.246 . S
C279 O263 1.245 . S
C279 O264 1.259 . S
Tb280 O283 2.453 . S
Tb280 O284 2.596 . S
Tb280 O285 2.374 . S
Tb280 O293 2.343 . S
Tb280 O295 2.353 . S
Tb280 O297 2.427 . S
Tb280 O298 2.513 . S
C281 O285 1.251 . S
C281 O287 1.263 . S
Tb282 O284 2.343 . S
Tb282 O287 2.353 . S
Tb282 O290 2.427 . S
Tb282 O291 2.513 . S
Tb282 O292 2.453 . S
Tb282 O293 2.596 . S
Tb282 O294 2.374 . S
O283 Tb280 2.453 . S
O283 C299 1.245 . S
O284 Tb280 2.596 . S
O284 Tb282 2.343 . S
O284 C299 1.259 . S
O285 Tb280 2.374 . S
O285 C281 1.251 . S
C286 O290 1.275 . S
C286 O291 1.246 . S
O287 C281 1.263 . S
O287 Tb282 2.353 . S
C288 O292 1.245 . S
C288 O293 1.259 . S
C289 O294 1.250 . S
C289 O295 1.263 . S
O290 Tb282 2.427 . S
O290 C286 1.275 . S
O291 Tb282 2.513 . S
O291 C286 1.246 . S
O292 Tb282 2.453 . S
O292 C288 1.245 . S
O293 Tb280 2.343 . S
O293 Tb282 2.596 . S
O293 C288 1.259 . S
O294 Tb282 2.374 . S
O294 C289 1.250 . S
O295 Tb280 2.353 . S
O295 C289 1.263 . S
C296 O297 1.275 . S
C296 O298 1.246 . S
O297 Tb280 2.427 . S
O297 C296 1.275 . S
O298 Tb280 2.513 . S
O298 C296 1.246 . S
C299 O283 1.245 . S
C299 O284 1.259 . S
Tb300 O303 2.453 . S
Tb300 O304 2.596 . S
Tb300 O305 2.374 . S
Tb300 O313 2.343 . S
Tb300 O315 2.353 . S
Tb300 O317 2.427 . S
Tb300 O318 2.513 . S
C301 O305 1.251 . S
C301 O307 1.263 . S
Tb302 O304 2.343 . S
Tb302 O307 2.353 . S
Tb302 O310 2.427 . S
Tb302 O311 2.513 . S
Tb302 O312 2.453 . S
Tb302 O313 2.596 . S
Tb302 O314 2.374 . S
O303 Tb300 2.453 . S
O303 C319 1.245 . S
O304 Tb300 2.596 . S
O304 Tb302 2.343 . S
O304 C319 1.259 . S
O305 Tb300 2.374 . S
O305 C301 1.251 . S
C306 O310 1.275 . S
C306 O311 1.246 . S
O307 C301 1.263 . S
O307 Tb302 2.353 . S
C308 O312 1.245 . S
C308 O313 1.259 . S
C309 O314 1.250 . S
C309 O315 1.263 . S
O310 Tb302 2.427 . S
O310 C306 1.275 . S
O311 Tb302 2.513 . S
O311 C306 1.246 . S
O312 Tb302 2.453 . S
O312 C308 1.245 . S
O313 Tb300 2.343 . S
O313 Tb302 2.596 . S
O313 C308 1.259 . S
O314 Tb302 2.374 . S
O314 C309 1.250 . S
O315 Tb300 2.353 . S
O315 C309 1.263 . S
C316 O317 1.275 . S
C316 O318 1.246 . S
O317 Tb300 2.427 . S
O317 C316 1.275 . S
O318 Tb300 2.513 . S
O318 C316 1.246 . S
C319 O303 1.245 . S
C319 O304 1.259 . S
C320 C321 1.369 . S
C320 C322 1.419 . S
C320 H324 0.930 . S
C321 C320 1.369 . S
C321 C330 1.429 . S
C322 C320 1.419 . S
C322 C323 1.363 . S
C322 H325 0.929 . S
C323 C322 1.363 . S
C323 C329 1.428 . S
H324 C320 0.930 . S
H325 C322 0.929 . S
S326 N327 1.613 . S
S326 N328 1.610 . S
N327 S326 1.613 . S
N327 C330 1.350 . S
N328 S326 1.610 . S
N328 C329 1.351 . S
C329 C323 1.428 . S
C329 N328 1.351 . S
C329 C330 1.434 . S
C330 C321 1.429 . S
C330 N327 1.350 . S
C330 C329 1.434 . S
C331 C332 1.369 . S
C331 C333 1.419 . S
C331 H335 0.930 . S
C332 C331 1.369 . S
C332 C341 1.429 . S
C333 C331 1.419 . S
C333 C334 1.363 . S
C333 H336 0.929 . S
C334 C333 1.363 . S
C334 C340 1.428 . S
H335 C331 0.930 . S
H336 C333 0.929 . S
S337 N338 1.613 1_545 S
S337 N339 1.610 1_545 S
N338 S337 1.613 1_565 S
N338 C341 1.350 . S
N339 S337 1.610 1_565 S
N339 C340 1.351 . S
C340 C334 1.428 . S
C340 N339 1.351 . S
C340 C341 1.434 . S
C341 C332 1.429 . S
C341 N338 1.350 . S
C341 C340 1.434 . S
C342 C343 1.369 . S
C342 C344 1.419 . S
C342 H346 0.930 . S
C343 C342 1.369 . S
C343 C352 1.429 . S
C344 C342 1.419 . S
C344 C345 1.363 . S
C344 H347 0.929 . S
C345 C344 1.363 . S
C345 C351 1.428 . S
H346 C342 0.930 . S
H347 C344 0.929 . S
S348 N349 1.613 . S
S348 N350 1.610 . S
N349 S348 1.613 . S
N349 C352 1.350 . S
N350 S348 1.610 . S
N350 C351 1.351 . S
C351 C345 1.428 . S
C351 N350 1.351 . S
C351 C352 1.434 . S
C352 C343 1.429 . S
C352 N349 1.350 . S
C352 C351 1.434 . S
C353 C354 1.369 . S
C353 C355 1.419 . S
C353 H357 0.930 . S
C354 C353 1.369 . S
C354 C363 1.429 . S
C355 C353 1.419 . S
C355 C356 1.363 . S
C355 H358 0.929 . S
C356 C355 1.363 . S
C356 C362 1.428 . S
H357 C353 0.930 . S
H358 C355 0.929 . S
S359 N360 1.613 . S
S359 N361 1.610 . S
N360 S359 1.613 . S
N360 C363 1.350 . S
N361 S359 1.610 . S
N361 C362 1.351 . S
C362 C356 1.428 . S
C362 N361 1.351 . S
C362 C363 1.434 . S
C363 C354 1.429 . S
C363 N360 1.350 . S
C363 C362 1.434 . S
C364 C365 1.369 . S
C364 C366 1.419 . S
C364 H368 0.930 . S
C365 C364 1.369 . S
C365 C374 1.429 . S
C366 C364 1.419 . S
C366 C367 1.363 . S
C366 H369 0.929 . S
C367 C366 1.363 . S
C367 C373 1.428 . S
H368 C364 0.930 . S
H369 C366 0.929 . S
S370 N371 1.613 . S
S370 N372 1.610 . S
N371 S370 1.613 . S
N371 C374 1.350 . S
N372 S370 1.610 . S
N372 C373 1.351 . S
C373 C367 1.428 . S
C373 N372 1.351 . S
C373 C374 1.434 . S
C374 C365 1.429 . S
C374 N371 1.350 . S
C374 C373 1.434 . S
C375 C376 1.369 . S
C375 C377 1.419 . S
C375 H379 0.930 . S
C376 C375 1.369 . S
C376 C385 1.429 . S
C377 C375 1.419 . S
C377 C378 1.363 . S
C377 H380 0.929 . S
C378 C377 1.363 . S
C378 C384 1.428 . S
H379 C375 0.930 . S
H380 C377 0.929 . S
S381 N382 1.613 . S
S381 N383 1.610 . S
N382 S381 1.613 . S
N382 C385 1.350 . S
N383 S381 1.610 . S
N383 C384 1.351 . S
C384 C378 1.428 . S
C384 N383 1.351 . S
C384 C385 1.434 . S
C385 C376 1.429 . S
C385 N382 1.350 . S
C385 C384 1.434 . S
C386 C387 1.369 . S
C386 C388 1.419 . S
C386 H390 0.930 . S
C387 C386 1.369 . S
C387 C396 1.429 . S
C388 C386 1.419 . S
C388 C389 1.363 . S
C388 H391 0.929 . S
C389 C388 1.363 . S
C389 C395 1.428 . S
H390 C386 0.930 . S
H391 C388 0.929 . S
S392 N393 1.613 . S
S392 N394 1.610 . S
N393 S392 1.613 . S
N393 C396 1.350 . S
N394 S392 1.610 . S
N394 C395 1.351 . S
C395 C389 1.428 . S
C395 N394 1.351 . S
C395 C396 1.434 . S
C396 C387 1.429 . S
C396 N393 1.350 . S
C396 C395 1.434 . S
C397 C398 1.369 . S
C397 C399 1.419 . S
C397 H401 0.930 . S
C398 C397 1.369 . S
C398 C407 1.429 . S
C399 C397 1.419 . S
C399 C400 1.363 . S
C399 H402 0.929 . S
C400 C399 1.363 . S
C400 C406 1.428 . S
H401 C397 0.930 . S
H402 C399 0.929 . S
S403 N404 1.613 . S
S403 N405 1.610 . S
N404 S403 1.613 . S
N404 C407 1.350 . S
N405 S403 1.610 . S
N405 C406 1.351 . S
C406 C400 1.428 . S
C406 N405 1.351 . S
C406 C407 1.434 . S
C407 C398 1.429 . S
C407 N404 1.350 . S
C407 C406 1.434 . S
C408 C409 1.369 . S
C408 C410 1.419 . S
C408 H412 0.930 . S
C409 C408 1.369 . S
C409 C418 1.429 1_565 S
C410 C408 1.419 . S
C410 C411 1.363 1_565 S
C410 H413 0.929 . S
C411 C410 1.363 1_545 S
C411 C417 1.428 . S
H412 C408 0.930 . S
H413 C410 0.929 . S
S414 N415 1.613 . S
S414 N416 1.610 . S
N415 S414 1.613 . S
N415 C418 1.350 . S
N416 S414 1.610 . S
N416 C417 1.351 . S
C417 C411 1.428 . S
C417 N416 1.351 . S
C417 C418 1.434 . S
C418 C409 1.429 1_545 S
C418 N415 1.350 . S
C418 C417 1.434 . S
C419 C420 1.369 . S
C419 C421 1.419 . S
C419 H423 0.930 . S
C420 C419 1.369 . S
C420 C429 1.429 1_545 S
C421 C419 1.419 . S
C421 C422 1.363 1_545 S
C421 H424 0.929 . S
C422 C421 1.363 1_565 S
C422 C428 1.428 . S
H423 C419 0.930 . S
H424 C421 0.929 . S
S425 N426 1.613 . S
S425 N427 1.610 . S
N426 S425 1.613 . S
N426 C429 1.350 . S
N427 S425 1.610 . S
N427 C428 1.351 . S
C428 C422 1.428 . S
C428 N427 1.351 . S
C428 C429 1.434 . S
C429 C420 1.429 1_565 S
C429 N426 1.350 . S
C429 C428 1.434 . S
C430 C431 1.369 . S
C430 C432 1.419 . S
C430 H434 0.930 . S
C431 C430 1.369 . S
C431 C440 1.429 1_545 S
C432 C430 1.419 . S
C432 C433 1.363 1_545 S
C432 H435 0.929 . S
C433 C432 1.363 1_565 S
C433 C439 1.428 . S
H434 C430 0.930 . S
H435 C432 0.929 . S
S436 N437 1.613 . S
S436 N438 1.610 . S
N437 S436 1.613 . S
N437 C440 1.350 . S
N438 S436 1.610 . S
N438 C439 1.351 . S
C439 C433 1.428 . S
C439 N438 1.351 . S
C439 C440 1.434 . S
C440 C431 1.429 1_565 S
C440 N437 1.350 . S
C440 C439 1.434 . S
C441 C442 1.369 . S
C441 C443 1.419 . S
C441 H445 0.930 . S
C442 C441 1.369 . S
C442 C451 1.429 1_545 S
C443 C441 1.419 . S
C443 C444 1.363 1_545 S
C443 H446 0.929 . S
C444 C443 1.363 1_565 S
C444 C450 1.428 . S
H445 C441 0.930 . S
H446 C443 0.929 . S
S447 N448 1.613 . S
S447 N449 1.610 . S
N448 S447 1.613 . S
N448 C451 1.350 . S
N449 S447 1.610 . S
N449 C450 1.351 . S
C450 C444 1.428 . S
C450 N449 1.351 . S
C450 C451 1.434 . S
C451 C442 1.429 1_565 S
C451 N448 1.350 . S
C451 C450 1.434 . S
C452 C453 1.369 . S
C452 C454 1.419 . S
C452 H456 0.930 . S
C453 C452 1.369 . S
C453 C462 1.429 . S
C454 C452 1.419 . S
C454 C455 1.363 . S
C454 H457 0.929 . S
C455 C454 1.363 . S
C455 C461 1.428 . S
H456 C452 0.930 . S
H457 C454 0.929 . S
S458 N459 1.613 . S
S458 N460 1.610 . S
N459 S458 1.613 . S
N459 C462 1.350 . S
N460 S458 1.610 . S
N460 C461 1.351 . S
C461 C455 1.428 . S
C461 N460 1.351 . S
C461 C462 1.434 . S
C462 C453 1.429 . S
C462 N459 1.350 . S
C462 C461 1.434 . S
C463 C464 1.369 . S
C463 C465 1.419 . S
C463 H467 0.930 . S
C464 C463 1.369 . S
C464 C473 1.429 . S
C465 C463 1.419 . S
C465 C466 1.363 . S
C465 H468 0.929 . S
C466 C465 1.363 . S
C466 C472 1.428 . S
H467 C463 0.930 . S
H468 C465 0.929 . S
S469 N470 1.613 . S
S469 N471 1.610 . S
N470 S469 1.613 . S
N470 C473 1.350 . S
N471 S469 1.610 . S
N471 C472 1.351 . S
C472 C466 1.428 . S
C472 N471 1.351 . S
C472 C473 1.434 . S
C473 C464 1.429 . S
C473 N470 1.350 . S
C473 C472 1.434 . S
C474 C475 1.369 . S
C474 C476 1.419 . S
C474 H478 0.930 . S
C475 C474 1.369 . S
C475 C484 1.429 . S
C476 C474 1.419 . S
C476 C477 1.363 . S
C476 H479 0.929 . S
C477 C476 1.363 . S
C477 C483 1.428 . S
H478 C474 0.930 . S
H479 C476 0.929 . S
S480 N481 1.613 . S
S480 N482 1.610 . S
N481 S480 1.613 . S
N481 C484 1.350 . S
N482 S480 1.610 . S
N482 C483 1.351 . S
C483 C477 1.428 . S
C483 N482 1.351 . S
C483 C484 1.434 . S
C484 C475 1.429 . S
C484 N481 1.350 . S
C484 C483 1.434 . S
C485 C486 1.369 . S
C485 C487 1.419 . S
C485 H489 0.930 . S
C486 C485 1.369 . S
C486 C495 1.429 . S
C487 C485 1.419 . S
C487 C488 1.363 . S
C487 H490 0.929 . S
C488 C487 1.363 . S
C488 C494 1.428 . S
H489 C485 0.930 . S
H490 C487 0.929 . S
S491 N492 1.613 . S
S491 N493 1.610 . S
N492 S491 1.613 . S
N492 C495 1.350 . S
N493 S491 1.610 . S
N493 C494 1.351 . S
C494 C488 1.428 . S
C494 N493 1.351 . S
C494 C495 1.434 . S
C495 C486 1.429 . S
C495 N492 1.350 . S
C495 C494 1.434 . S
C496 C497 1.369 . S
C496 C498 1.419 1_556 S
C496 H500 0.930 . S
C497 C496 1.369 . S
C497 C506 1.429 . S
C498 C496 1.419 1_554 S
C498 C499 1.363 . S
C498 H501 0.929 . S
C499 C498 1.363 . S
C499 C505 1.428 . S
H500 C496 0.930 . S
H501 C498 0.929 . S
S502 N503 1.616 1_554 S
S502 N504 1.608 . S
N503 S502 1.616 1_556 S
N503 C506 1.350 . S
N504 S502 1.608 . S
N504 C505 1.351 . S
C505 C499 1.428 . S
C505 N504 1.351 . S
C505 C506 1.434 1_554 S
C506 C497 1.429 . S
C506 N503 1.350 . S
C506 C505 1.434 1_556 S
C507 C508 1.369 . S
C507 C509 1.419 1_556 S
C507 H511 0.930 . S
C508 C507 1.369 . S
C508 C517 1.429 . S
C509 C507 1.419 1_554 S
C509 C510 1.363 . S
C509 H512 0.929 . S
C510 C509 1.363 . S
C510 C516 1.428 . S
H511 C507 0.930 . S
H512 C509 0.929 . S
S513 N514 1.616 1_554 S
S513 N515 1.608 . S
N514 S513 1.616 1_556 S
N514 C517 1.350 . S
N515 S513 1.608 . S
N515 C516 1.351 . S
C516 C510 1.428 . S
C516 N515 1.351 . S
C516 C517 1.434 1_554 S
C517 C508 1.429 . S
C517 N514 1.350 . S
C517 C516 1.434 1_556 S
C518 C519 1.369 . S
C518 C520 1.419 . S
C518 H522 0.930 . S
C519 C518 1.369 . S
C519 C528 1.429 . S
C520 C518 1.419 . S
C520 C521 1.363 . S
C520 H523 0.929 . S
C521 C520 1.363 . S
C521 C527 1.428 . S
H522 C518 0.930 . S
H523 C520 0.929 . S
S524 N525 1.613 . S
S524 N526 1.610 . S
N525 S524 1.613 . S
N525 C528 1.350 . S
N526 S524 1.610 . S
N526 C527 1.351 . S
C527 C521 1.428 . S
C527 N526 1.351 . S
C527 C528 1.434 . S
C528 C519 1.429 . S
C528 N525 1.350 . S
C528 C527 1.434 . S
C529 C530 1.369 . S
C529 C531 1.419 . S
C529 H533 0.930 . S
C530 C529 1.369 . S
C530 C539 1.429 . S
C531 C529 1.419 . S
C531 C532 1.363 . S
C531 H534 0.929 . S
C532 C531 1.363 . S
C532 C538 1.428 . S
H533 C529 0.930 . S
H534 C531 0.929 . S
S535 N536 1.613 . S
S535 N537 1.610 . S
N536 S535 1.613 . S
N536 C539 1.350 . S
N537 S535 1.610 . S
N537 C538 1.351 . S
C538 C532 1.428 . S
C538 N537 1.351 . S
C538 C539 1.434 . S
C539 C530 1.429 . S
C539 N536 1.350 . S
C539 C538 1.434 . S
C540 C541 1.369 . S
C540 C542 1.419 1_554 S
C540 H544 0.930 . S
C541 C540 1.369 . S
C541 C550 1.429 . S
C542 C540 1.419 1_556 S
C542 C543 1.363 . S
C542 H545 0.929 . S
C543 C542 1.363 . S
C543 C549 1.428 . S
H544 C540 0.930 . S
H545 C542 0.929 . S
S546 N547 1.616 1_556 S
S546 N548 1.608 . S
N547 S546 1.616 1_554 S
N547 C550 1.350 . S
N548 S546 1.608 . S
N548 C549 1.351 . S
C549 C543 1.428 . S
C549 N548 1.351 . S
C549 C550 1.434 1_556 S
C550 C541 1.429 . S
C550 N547 1.350 . S
C550 C549 1.434 1_554 S
C551 C552 1.369 . S
C551 C553 1.419 1_556 S
C551 H555 0.930 . S
C552 C551 1.369 . S
C552 C561 1.429 . S
C553 C551 1.419 1_554 S
C553 C554 1.363 . S
C553 H556 0.929 . S
C554 C553 1.363 . S
C554 C560 1.428 . S
H555 C551 0.930 . S
H556 C553 0.929 . S
S557 N558 1.616 1_554 S
S557 N559 1.608 . S
N558 S557 1.616 1_556 S
N558 C561 1.350 . S
N559 S557 1.608 . S
N559 C560 1.351 . S
C560 C554 1.428 . S
C560 N559 1.351 . S
C560 C561 1.434 1_554 S
C561 C552 1.429 . S
C561 N558 1.350 . S
C561 C560 1.434 1_556 S
C562 C563 1.369 . S
C562 C564 1.419 . S
C562 H566 0.930 . S
C563 C562 1.369 . S
C563 C572 1.429 . S
C564 C562 1.419 . S
C564 C565 1.363 . S
C564 H567 0.929 . S
C565 C564 1.363 . S
C565 C571 1.428 . S
H566 C562 0.930 . S
H567 C564 0.929 . S
S568 N569 1.613 . S
S568 N570 1.610 . S
N569 S568 1.613 . S
N569 C572 1.350 . S
N570 S568 1.610 . S
N570 C571 1.351 . S
C571 C565 1.428 . S
C571 N570 1.351 . S
C571 C572 1.434 . S
C572 C563 1.429 . S
C572 N569 1.350 . S
C572 C571 1.434 . S
C573 C574 1.369 . S
C573 C575 1.419 . S
C573 H577 0.930 . S
C574 C573 1.369 . S
C574 C583 1.429 . S
C575 C573 1.419 . S
C575 C576 1.363 . S
C575 H578 0.929 . S
C576 C575 1.363 . S
C576 C582 1.428 . S
H577 C573 0.930 . S
H578 C575 0.929 . S
S579 N580 1.613 . S
S579 N581 1.610 . S
N580 S579 1.613 . S
N580 C583 1.350 . S
N581 S579 1.610 . S
N581 C582 1.351 . S
C582 C576 1.428 . S
C582 N581 1.351 . S
C582 C583 1.434 . S
C583 C574 1.429 . S
C583 N580 1.350 . S
C583 C582 1.434 . S
C584 C585 1.369 . S
C584 C586 1.419 1_645 S
C584 H588 0.930 . S
C585 C584 1.369 . S
C585 C594 1.429 . S
C586 C584 1.419 1_465 S
C586 C587 1.363 . S
C586 H589 0.929 . S
C587 C586 1.363 . S
C587 C593 1.428 . S
H588 C584 0.930 . S
H589 C586 0.929 . S
S590 N591 1.640 1_565 S
S590 N592 1.583 1_655 S
N591 S590 1.640 1_545 S
N591 C594 1.350 . S
N592 S590 1.583 1_455 S
N592 C593 1.351 . S
C593 C587 1.428 . S
C593 N592 1.351 . S
C593 C594 1.434 1_465 S
C594 C585 1.429 . S
C594 N591 1.350 . S
C594 C593 1.434 1_645 S
C595 C596 1.369 1_545 S
C595 C597 1.419 1_655 S
C595 H599 0.930 . S
C596 C595 1.369 1_565 S
C596 C605 1.429 . S
C597 C595 1.419 1_455 S
C597 C598 1.363 . S
C597 H600 0.929 . S
C598 C597 1.363 . S
C598 C604 1.428 1_545 S
H599 C595 0.930 . S
H600 C597 0.929 . S
S601 N602 1.613 1_455 S
S601 N603 1.610 . S
N602 S601 1.613 1_655 S
N602 C605 1.350 . S
N603 S601 1.610 . S
N603 C604 1.351 . S
C604 C598 1.428 1_565 S
C604 N603 1.351 . S
C604 C605 1.434 1_455 S
C605 C596 1.429 . S
C605 N602 1.350 . S
C605 C604 1.434 1_655 S
C606 C607 1.369 1_545 S
C606 C608 1.419 1_455 S
C606 H610 0.930 . S
C607 C606 1.369 1_565 S
C607 C616 1.429 . S
C608 C606 1.419 1_655 S
C608 C609 1.363 . S
C608 H611 0.929 . S
C609 C608 1.363 . S
C609 C615 1.428 1_545 S
H610 C606 0.930 . S
H611 C608 0.929 . S
S612 N613 1.613 1_655 S
S612 N614 1.610 . S
N613 S612 1.613 1_455 S
N613 C616 1.350 . S
N614 S612 1.610 . S
N614 C615 1.351 . S
C615 C609 1.428 1_565 S
C615 N614 1.351 . S
C615 C616 1.434 1_655 S
C616 C607 1.429 . S
C616 N613 1.350 . S
C616 C615 1.434 1_455 S
C617 C618 1.369 . S
C617 C619 1.419 1_655 S
C617 H621 0.930 . S
C618 C617 1.369 . S
C618 C627 1.429 1_565 S
C619 C617 1.419 1_455 S
C619 C620 1.363 1_565 S
C619 H622 0.929 . S
C620 C619 1.363 1_545 S
C620 C626 1.428 . S
H621 C617 0.930 . S
H622 C619 0.929 . S
S623 N624 1.613 . S
S623 N625 1.610 1_655 S
N624 S623 1.613 . S
N624 C627 1.350 . S
N625 S623 1.610 1_455 S
N625 C626 1.351 . S
C626 C620 1.428 . S
C626 N625 1.351 . S
C626 C627 1.434 1_455 S
C627 C618 1.429 1_545 S
C627 N624 1.350 . S
C627 C626 1.434 1_655 S
C628 C629 1.369 . S
C628 C630 1.419 . S
C628 H632 0.930 . S
C629 C628 1.369 . S
C629 C638 1.429 . S
C630 C628 1.419 . S
C630 C631 1.363 . S
C630 H633 0.929 . S
C631 C630 1.363 . S
C631 C637 1.428 . S
H632 C628 0.930 . S
H633 C630 0.929 . S
S634 N635 1.613 . S
S634 N636 1.610 . S
N635 S634 1.613 . S
N635 C638 1.350 . S
N636 S634 1.610 . S
N636 C637 1.351 . S
C637 C631 1.428 . S
C637 N636 1.351 . S
C637 C638 1.434 . S
C638 C629 1.429 . S
C638 N635 1.350 . S
C638 C637 1.434 . S
C639 C640 1.369 . S
C639 C641 1.419 . S
C639 H643 0.930 . S
C640 C639 1.369 . S
C640 C649 1.429 . S
C641 C639 1.419 . S
C641 C642 1.363 . S
C641 H644 0.929 . S
C642 C641 1.363 . S
C642 C648 1.428 . S
H643 C639 0.930 . S
H644 C641 0.929 . S
S645 N646 1.613 . S
S645 N647 1.610 . S
N646 S645 1.613 . S
N646 C649 1.350 . S
N647 S645 1.610 . S
N647 C648 1.351 . S
C648 C642 1.428 . S
C648 N647 1.351 . S
C648 C649 1.434 . S
C649 C640 1.429 . S
C649 N646 1.350 . S
C649 C648 1.434 . S
C650 C651 1.369 . S
C650 C652 1.419 . S
C650 H654 0.930 . S
C651 C650 1.369 . S
C651 C660 1.429 . S
C652 C650 1.419 . S
C652 C653 1.363 . S
C652 H655 0.929 . S
C653 C652 1.363 . S
C653 C659 1.428 . S
H654 C650 0.930 . S
H655 C652 0.929 . S
S656 N657 1.613 . S
S656 N658 1.610 . S
N657 S656 1.613 . S
N657 C660 1.350 . S
N658 S656 1.610 . S
N658 C659 1.351 . S
C659 C653 1.428 . S
C659 N658 1.351 . S
C659 C660 1.434 . S
C660 C651 1.429 . S
C660 N657 1.350 . S
C660 C659 1.434 . S
C661 C662 1.369 . S
C661 C663 1.419 . S
C661 H665 0.930 . S
C662 C661 1.369 . S
C662 C671 1.429 . S
C663 C661 1.419 . S
C663 C664 1.363 . S
C663 H666 0.929 . S
C664 C663 1.363 . S
C664 C670 1.428 . S
H665 C661 0.930 . S
H666 C663 0.929 . S
S667 N668 1.613 . S
S667 N669 1.610 . S
N668 S667 1.613 . S
N668 C671 1.350 . S
N669 S667 1.610 . S
N669 C670 1.351 . S
C670 C664 1.428 . S
C670 N669 1.351 . S
C670 C671 1.434 . S
C671 C662 1.429 . S
C671 N668 1.350 . S
C671 C670 1.434 . S
C672 C673 1.369 . S
C672 C674 1.419 . S
C672 H676 0.930 . S
C673 C672 1.369 . S
C673 C682 1.429 . S
C674 C672 1.419 . S
C674 C675 1.363 . S
C674 H677 0.929 . S
C675 C674 1.363 . S
C675 C681 1.428 . S
H676 C672 0.930 . S
H677 C674 0.929 . S
S678 N679 1.613 . S
S678 N680 1.610 . S
N679 S678 1.613 . S
N679 C682 1.350 . S
N680 S678 1.610 . S
N680 C681 1.351 . S
C681 C675 1.428 . S
C681 N680 1.351 . S
C681 C682 1.434 . S
C682 C673 1.429 . S
C682 N679 1.350 . S
C682 C681 1.434 . S
C683 C684 1.369 . S
C683 C685 1.419 . S
C683 H687 0.930 . S
C684 C683 1.369 . S
C684 C693 1.429 . S
C685 C683 1.419 . S
C685 C686 1.363 . S
C685 H688 0.929 . S
C686 C685 1.363 . S
C686 C692 1.428 . S
H687 C683 0.930 . S
H688 C685 0.929 . S
S689 N690 1.613 . S
S689 N691 1.610 . S
N690 S689 1.613 . S
N690 C693 1.350 . S
N691 S689 1.610 . S
N691 C692 1.351 . S
C692 C686 1.428 . S
C692 N691 1.351 . S
C692 C693 1.434 . S
C693 C684 1.429 . S
C693 N690 1.350 . S
C693 C692 1.434 . S
C694 C695 1.369 . S
C694 C696 1.419 . S
C694 H698 0.930 . S
C695 C694 1.369 . S
C695 C704 1.429 . S
C696 C694 1.419 . S
C696 C697 1.363 . S
C696 H699 0.929 . S
C697 C696 1.363 . S
C697 C703 1.428 . S
H698 C694 0.930 . S
H699 C696 0.929 . S
S700 N701 1.613 . S
S700 N702 1.610 . S
N701 S700 1.613 . S
N701 C704 1.350 . S
N702 S700 1.610 . S
N702 C703 1.351 . S
C703 C697 1.428 . S
C703 N702 1.351 . S
C703 C704 1.434 . S
C704 C695 1.429 . S
C704 N701 1.350 . S
C704 C703 1.434 . S
C705 C706 1.369 . S
C705 C707 1.419 . S
C705 H709 0.930 . S
C706 C705 1.369 . S
C706 C715 1.429 . S
C707 C705 1.419 . S
C707 C708 1.363 . S
C707 H710 0.929 . S
C708 C707 1.363 . S
C708 C714 1.428 . S
H709 C705 0.930 . S
H710 C707 0.929 . S
S711 N712 1.613 . S
S711 N713 1.610 . S
N712 S711 1.613 . S
N712 C715 1.350 . S
N713 S711 1.610 . S
N713 C714 1.351 . S
C714 C708 1.428 . S
C714 N713 1.351 . S
C714 C715 1.434 . S
C715 C706 1.429 . S
C715 N712 1.350 . S
C715 C714 1.434 . S
C716 C717 1.369 . S
C716 C718 1.419 . S
C716 H720 0.930 . S
C717 C716 1.369 . S
C717 C726 1.429 . S
C718 C716 1.419 . S
C718 C719 1.363 . S
C718 H721 0.929 . S
C719 C718 1.363 . S
C719 C725 1.428 . S
H720 C716 0.930 . S
H721 C718 0.929 . S
S722 N723 1.613 . S
S722 N724 1.610 . S
N723 S722 1.613 . S
N723 C726 1.350 . S
N724 S722 1.610 . S
N724 C725 1.351 . S
C725 C719 1.428 . S
C725 N724 1.351 . S
C725 C726 1.434 . S
C726 C717 1.429 . S
C726 N723 1.350 . S
C726 C725 1.434 . S
C727 C728 1.369 . S
C727 C729 1.419 . S
C727 H731 0.930 . S
C728 C727 1.369 . S
C728 C737 1.429 . S
C729 C727 1.419 . S
C729 C730 1.363 . S
C729 H732 0.929 . S
C730 C729 1.363 . S
C730 C736 1.428 . S
H731 C727 0.930 . S
H732 C729 0.929 . S
S733 N734 1.613 . S
S733 N735 1.610 . S
N734 S733 1.613 . S
N734 C737 1.350 . S
N735 S733 1.610 . S
N735 C736 1.351 . S
C736 C730 1.428 . S
C736 N735 1.351 . S
C736 C737 1.434 . S
C737 C728 1.429 . S
C737 N734 1.350 . S
C737 C736 1.434 . S
C738 C739 1.369 . S
C738 C740 1.419 . S
C738 H742 0.930 . S
C739 C738 1.369 . S
C739 C748 1.429 . S
C740 C738 1.419 . S
C740 C741 1.363 . S
C740 H743 0.929 . S
C741 C740 1.363 . S
C741 C747 1.428 . S
H742 C738 0.930 . S
H743 C740 0.929 . S
S744 N745 1.613 . S
S744 N746 1.610 . S
N745 S744 1.613 . S
N745 C748 1.350 . S
N746 S744 1.610 . S
N746 C747 1.351 . S
C747 C741 1.428 . S
C747 N746 1.351 . S
C747 C748 1.434 . S
C748 C739 1.429 . S
C748 N745 1.350 . S
C748 C747 1.434 . S
C749 C750 1.369 . S
C749 C751 1.419 . S
C749 H753 0.930 . S
C750 C749 1.369 . S
C750 C759 1.429 . S
C751 C749 1.419 . S
C751 C752 1.363 . S
C751 H754 0.929 . S
C752 C751 1.363 . S
C752 C758 1.428 . S
H753 C749 0.930 . S
H754 C751 0.929 . S
S755 N756 1.613 . S
S755 N757 1.610 . S
N756 S755 1.613 . S
N756 C759 1.350 . S
N757 S755 1.610 . S
N757 C758 1.351 . S
C758 C752 1.428 . S
C758 N757 1.351 . S
C758 C759 1.434 . S
C759 C750 1.429 . S
C759 N756 1.350 . S
C759 C758 1.434 . S
C760 C761 1.369 . S
C760 C762 1.419 . S
C760 H764 0.930 . S
C761 C760 1.369 . S
C761 C770 1.429 . S
C762 C760 1.419 . S
C762 C763 1.363 . S
C762 H765 0.929 . S
C763 C762 1.363 . S
C763 C769 1.428 . S
H764 C760 0.930 . S
H765 C762 0.929 . S
S766 N767 1.613 . S
S766 N768 1.610 . S
N767 S766 1.613 . S
N767 C770 1.350 . S
N768 S766 1.610 . S
N768 C769 1.351 . S
C769 C763 1.428 . S
C769 N768 1.351 . S
C769 C770 1.434 . S
C770 C761 1.429 . S
C770 N767 1.350 . S
C770 C769 1.434 . S
C771 C772 1.369 . S
C771 C773 1.419 . S
C771 H775 0.930 . S
C772 C771 1.369 . S
C772 C781 1.429 . S
C773 C771 1.419 . S
C773 C774 1.363 . S
C773 H776 0.929 . S
C774 C773 1.363 . S
C774 C780 1.428 . S
H775 C771 0.930 . S
H776 C773 0.929 . S
S777 N778 1.613 . S
S777 N779 1.610 1_565 S
N778 S777 1.613 . S
N778 C781 1.350 . S
N779 S777 1.610 1_545 S
N779 C780 1.351 1_545 S
C780 C774 1.428 . S
C780 N779 1.351 1_565 S
C780 C781 1.434 . S
C781 C772 1.429 . S
C781 N778 1.350 . S
C781 C780 1.434 . S
C782 C783 1.369 . S
C782 C784 1.419 . S
C782 H786 0.930 . S
C783 C782 1.369 . S
C783 C792 1.429 . S
C784 C782 1.419 . S
C784 C785 1.363 . S
C784 H787 0.929 . S
C785 C784 1.363 . S
C785 C791 1.428 . S
H786 C782 0.930 . S
H787 C784 0.929 . S
S788 N789 1.613 1_565 S
S788 N790 1.610 . S
N789 S788 1.613 1_545 S
N789 C792 1.350 1_545 S
N790 S788 1.610 . S
N790 C791 1.351 . S
C791 C785 1.428 . S
C791 N790 1.351 . S
C791 C792 1.434 . S
C792 C783 1.429 . S
C792 N789 1.350 1_565 S
C792 C791 1.434 . S
C793 C794 1.369 . S
C793 C795 1.419 . S
C793 H797 0.930 1_545 S
C794 C793 1.369 . S
C794 C803 1.429 . S
C795 C793 1.419 . S
C795 C796 1.363 . S
C795 H798 0.929 . S
C796 C795 1.363 . S
C796 C802 1.428 . S
H797 C793 0.930 1_565 S
H798 C795 0.929 . S
S799 N800 1.613 . S
S799 N801 1.610 . S
N800 S799 1.613 . S
N800 C803 1.350 . S
N801 S799 1.610 . S
N801 C802 1.351 . S
C802 C796 1.428 . S
C802 N801 1.351 . S
C802 C803 1.434 . S
C803 C794 1.429 . S
C803 N800 1.350 . S
C803 C802 1.434 . S
C804 C805 1.369 . S
C804 C806 1.419 . S
C804 H808 0.930 . S
C805 C804 1.369 . S
C805 C814 1.429 . S
C806 C804 1.419 . S
C806 C807 1.363 . S
C806 H809 0.929 . S
C807 C806 1.363 . S
C807 C813 1.428 . S
H808 C804 0.930 . S
H809 C806 0.929 . S
S810 N811 1.613 . S
S810 N812 1.610 . S
N811 S810 1.613 . S
N811 C814 1.350 . S
N812 S810 1.610 . S
N812 C813 1.351 . S
C813 C807 1.428 . S
C813 N812 1.351 . S
C813 C814 1.434 . S
C814 C805 1.429 . S
C814 N811 1.350 . S
C814 C813 1.434 . S
C815 C816 1.369 . S
C815 C817 1.419 . S
C815 H819 0.930 . S
C816 C815 1.369 . S
C816 C825 1.429 . S
C817 C815 1.419 . S
C817 C818 1.363 . S
C817 H820 0.929 . S
C818 C817 1.363 . S
C818 C824 1.428 . S
H819 C815 0.930 . S
H820 C817 0.929 . S
S821 N822 1.613 . S
S821 N823 1.610 . S
N822 S821 1.613 . S
N822 C825 1.350 . S
N823 S821 1.610 . S
N823 C824 1.351 . S
C824 C818 1.428 . S
C824 N823 1.351 . S
C824 C825 1.434 . S
C825 C816 1.429 . S
C825 N822 1.350 . S
C825 C824 1.434 . S
C826 C827 1.369 . S
C826 C828 1.419 . S
C826 H830 0.930 . S
C827 C826 1.369 . S
C827 C836 1.429 . S
C828 C826 1.419 . S
C828 C829 1.363 . S
C828 H831 0.929 . S
C829 C828 1.363 . S
C829 C835 1.428 . S
H830 C826 0.930 . S
H831 C828 0.929 . S
S832 N833 1.613 . S
S832 N834 1.610 . S
N833 S832 1.613 . S
N833 C836 1.350 . S
N834 S832 1.610 . S
N834 C835 1.351 . S
C835 C829 1.428 . S
C835 N834 1.351 . S
C835 C836 1.434 . S
C836 C827 1.429 . S
C836 N833 1.350 . S
C836 C835 1.434 . S
C837 C838 1.369 . S
C837 C839 1.419 . S
C837 H841 0.930 . S
C838 C837 1.369 . S
C838 C847 1.429 . S
C839 C837 1.419 . S
C839 C840 1.363 . S
C839 H842 0.929 . S
C840 C839 1.363 . S
C840 C846 1.428 . S
H841 C837 0.930 . S
H842 C839 0.929 . S
S843 N844 1.613 . S
S843 N845 1.610 1_565 S
N844 S843 1.613 . S
N844 C847 1.350 . S
N845 S843 1.610 1_545 S
N845 C846 1.351 1_545 S
C846 C840 1.428 . S
C846 N845 1.351 1_565 S
C846 C847 1.434 . S
C847 C838 1.429 . S
C847 N844 1.350 . S
C847 C846 1.434 . S
C321 C6 1.606 . S
C323 C186 1.609 . S
C332 C26 1.601 . S
C334 C166 1.613 . S
C343 C226 1.610 . S
C345 C46 1.606 . S
C354 C66 1.602 . S
C356 C206 1.612 . S
C365 C276 1.602 . S
C367 C96 1.612 . S
C376 C256 1.601 . S
C378 C116 1.612 . S
C387 C316 1.602 . S
C389 C136 1.612 . S
C398 C156 1.608 . S
C400 C296 1.606 . S
C409 C49 1.543 . S
C411 C9 1.542 . S
C420 C69 1.544 . S
C422 C29 1.542 . S
C431 C121 1.542 . S
C433 C81 1.542 . S
C442 C101 1.544 . S
C444 C141 1.543 . S
C453 C209 1.543 . S
C455 C169 1.542 . S
C464 C229 1.542 . S
C466 C189 1.542 . S
C475 C241 1.544 . S
C477 C281 1.543 . S
C486 C261 1.544 . S
C488 C301 1.543 . S
C497 C109 1.563 . S
C499 C1 1.562 . S
C508 C89 1.565 . S
C510 C21 1.564 . S
C519 C41 1.564 . S
C521 C149 1.564 . S
C530 C129 1.565 . S
C532 C61 1.564 . S
C541 C161 1.564 . S
C543 C269 1.564 . S
C552 C249 1.564 . S
C554 C181 1.563 . S
C563 C201 1.564 . S
C565 C309 1.564 . S
C574 C289 1.565 . S
C576 C221 1.564 . S
C585 C36 1.600 1_545 S
C587 C16 1.604 1_565 S
C596 C76 1.602 1_565 S
C598 C56 1.603 1_545 S
C607 C106 1.610 1_565 S
C609 C86 1.598 1_545 S
C618 C126 1.597 1_565 S
C620 C146 1.608 1_545 S
C629 C196 1.598 . S
C631 C176 1.606 . S
C640 C236 1.596 . S
C642 C216 1.608 . S
C651 C246 1.596 . S
C653 C266 1.608 . S
C662 C286 1.597 . S
C664 C306 1.608 . S
C673 C8 1.831 . S
C675 C19 1.825 . S
C684 C28 1.824 . S
C686 C39 1.831 . S
C695 C48 1.832 . S
C697 C59 1.825 . S
C706 C79 1.830 . S
C708 C68 1.827 . S
C717 C99 1.828 . S
C719 C88 1.827 . S
C728 C108 1.822 . S
C730 C119 1.833 . S
C739 C139 1.834 . S
C741 C128 1.823 . S
C750 C159 1.831 . S
C752 C148 1.826 . S
C761 C179 1.833 1_545 S
C763 C168 1.824 . S
C772 C188 1.833 . S
C774 C199 1.824 1_565 S
C783 C219 1.825 1_565 S
C785 C208 1.831 . S
C794 C239 1.834 1_545 S
C796 C228 1.823 . S
C805 C259 1.827 . S
C807 C248 1.828 1_565 S
C816 C279 1.827 . S
C818 C268 1.829 1_545 S
C827 C288 1.829 1_545 S
C829 C299 1.828 . S
C838 C319 1.834 . S
C840 C308 1.823 1_565 S
