# Generated by pormake.
# Topology umo, (4)-cn, num edge types: 1
# Building blocks:
#     Node 0, Type 0, BuildingBlock: KOZSID_clean_sbu_0, # of connection points: 4
#     Node 1, Type 0, BuildingBlock: KOZSID_clean_sbu_0, # of connection points: 4
#     Node 2, Type 0, BuildingBlock: KOZSID_clean_sbu_0, # of connection points: 4
#     Node 3, Type 0, BuildingBlock: KOZSID_clean_sbu_0, # of connection points: 4
#     Node 4, Type 0, BuildingBlock: KOZSID_clean_sbu_0, # of connection points: 4
#     Node 5, Type 0, BuildingBlock: KOZSID_clean_sbu_0, # of connection points: 4
#     Node 6, Type 0, BuildingBlock: KOZSID_clean_sbu_0, # of connection points: 4
#     Node 7, Type 0, BuildingBlock: KOZSID_clean_sbu_0, # of connection points: 4
#     Node 8, Type 0, BuildingBlock: KOZSID_clean_sbu_0, # of connection points: 4
#     Node 9, Type 0, BuildingBlock: KOZSID_clean_sbu_0, # of connection points: 4
#     Node 10, Type 0, BuildingBlock: KOZSID_clean_sbu_0, # of connection points: 4
#     Node 11, Type 0, BuildingBlock: KOZSID_clean_sbu_0, # of connection points: 4
#     Edge 12, Type (0, 0), BuildingBlock: UVAHIK_clean_linker_0, # of connection points: 2
#     Edge 13, Type (0, 0), BuildingBlock: UVAHIK_clean_linker_0, # of connection points: 2
#     Edge 14, Type (0, 0), BuildingBlock: UVAHIK_clean_linker_0, # of connection points: 2
#     Edge 15, Type (0, 0), BuildingBlock: UVAHIK_clean_linker_0, # of connection points: 2
#     Edge 16, Type (0, 0), BuildingBlock: UVAHIK_clean_linker_0, # of connection points: 2
#     Edge 17, Type (0, 0), BuildingBlock: UVAHIK_clean_linker_0, # of connection points: 2
#     Edge 18, Type (0, 0), BuildingBlock: UVAHIK_clean_linker_0, # of connection points: 2
#     Edge 19, Type (0, 0), BuildingBlock: UVAHIK_clean_linker_0, # of connection points: 2
#     Edge 20, Type (0, 0), BuildingBlock: UVAHIK_clean_linker_0, # of connection points: 2
#     Edge 21, Type (0, 0), BuildingBlock: UVAHIK_clean_linker_0, # of connection points: 2
#     Edge 22, Type (0, 0), BuildingBlock: UVAHIK_clean_linker_0, # of connection points: 2
#     Edge 23, Type (0, 0), BuildingBlock: UVAHIK_clean_linker_0, # of connection points: 2
#     Edge 24, Type (0, 0), BuildingBlock: UVAHIK_clean_linker_0, # of connection points: 2
#     Edge 25, Type (0, 0), BuildingBlock: UVAHIK_clean_linker_0, # of connection points: 2
#     Edge 26, Type (0, 0), BuildingBlock: UVAHIK_clean_linker_0, # of connection points: 2
#     Edge 27, Type (0, 0), BuildingBlock: UVAHIK_clean_linker_0, # of connection points: 2
#     Edge 28, Type (0, 0), BuildingBlock: UVAHIK_clean_linker_0, # of connection points: 2
#     Edge 29, Type (0, 0), BuildingBlock: UVAHIK_clean_linker_0, # of connection points: 2
#     Edge 30, Type (0, 0), BuildingBlock: UVAHIK_clean_linker_0, # of connection points: 2
#     Edge 31, Type (0, 0), BuildingBlock: UVAHIK_clean_linker_0, # of connection points: 2
#     Edge 32, Type (0, 0), BuildingBlock: UVAHIK_clean_linker_0, # of connection points: 2
#     Edge 33, Type (0, 0), BuildingBlock: UVAHIK_clean_linker_0, # of connection points: 2
#     Edge 34, Type (0, 0), BuildingBlock: UVAHIK_clean_linker_0, # of connection points: 2
#     Edge 35, Type (0, 0), BuildingBlock: UVAHIK_clean_linker_0, # of connection points: 2
# Relax obj value: 0.201
# Max RMSD: 0.253
# Mean RMSD: 0.253
data_MOF--net-umo--node1-KOZSID_clean_sbu_0--edge1-UVAHIK_clean_linker_0
_symmetry_space_group_name_H-M    P1
_symmetry_Int_Tables_number       1
_symmetry_cell_setting            triclinic
loop_
_symmetry_equiv_pos_as_xyz
'x, y, z'
_cell_length_a     79.743515
_cell_length_b     79.836616
_cell_length_c     49.937219
_cell_angle_alpha  89.997825
_cell_angle_beta   90.017351
_cell_angle_gamma 120.05496
loop_
_atom_site_label
_atom_site_type_symbol
_atom_site_fract_x
_atom_site_fract_y
_atom_site_fract_z
_atom_type_partial_charge
C0 C 0.1933 0.52564 0.35006 0.0
C1 C 0.19649 0.51012 0.34817 0.0
C2 C 0.18775 0.49862 0.37015 0.0
C3 C 0.17979 0.50777 0.38418 0.0
N4 N 0.18301 0.52421 0.37223 0.0
Co5 Co 0.175 0.54238 0.38555 0.0
N6 N 0.17268 0.53268 0.42249 0.0
C7 C 0.17054 0.51546 0.42965 0.0
C8 C 0.16906 0.51272 0.4569 0.0
C9 C 0.17022 0.52919 0.46735 0.0
C10 C 0.17238 0.54111 0.4458 0.0
N11 N 0.16679 0.56047 0.39879 0.0
C12 C 0.16676 0.56647 0.42413 0.0
C13 C 0.15965 0.57916 0.42472 0.0
C14 C 0.15492 0.5809 0.39875 0.0
C15 C 0.15943 0.56925 0.38375 0.0
N16 N 0.17744 0.55196 0.34849 0.0
C17 C 0.16908 0.56157 0.33831 0.0
C18 C 0.17447 0.56703 0.31213 0.0
C19 C 0.18698 0.56042 0.30575 0.0
C20 C 0.18851 0.55132 0.32846 0.0
N21 N 0.1477 0.52305 0.37887 0.0
C22 C 0.10802 0.49872 0.36754 0.0
C23 C 0.12233 0.50173 0.34861 0.0
C24 C 0.14201 0.51372 0.35476 0.0
C25 C 0.11428 0.50758 0.39269 0.0
C26 C 0.134 0.51974 0.39782 0.0
N27 N 0.2021 0.56192 0.39203 0.0
C28 C 0.22821 0.59454 0.3858 0.0
C29 C 0.24109 0.59014 0.3987 0.0
C30 C 0.23401 0.57137 0.40868 0.0
C31 C 0.21446 0.55738 0.40488 0.0
C32 C 0.20883 0.58036 0.38297 0.0
H33 H 0.20936 0.54288 0.41212 0.0
H34 H 0.1993 0.58433 0.37316 0.0
H35 H 0.15261 0.51591 0.33967 0.0
H36 H 0.1381 0.52683 0.41701 0.0
C37 C 0.17334 0.50401 0.41083 0.0
C38 C 0.19972 0.54137 0.33055 0.0
C39 C 0.17235 0.55944 0.44783 0.0
C40 C 0.16027 0.56884 0.35558 0.0
H41 H 0.20448 0.50751 0.33281 0.0
H42 H 0.1882 0.4858 0.376 0.0
H43 H 0.16797 0.50054 0.46793 0.0
H44 H 0.16936 0.53199 0.48836 0.0
H45 H 0.15801 0.58636 0.44204 0.0
H46 H 0.1496 0.59018 0.39159 0.0
H47 H 0.17073 0.57577 0.29967 0.0
H48 H 0.19424 0.56221 0.28677 0.0
H49 H 0.11846 0.4954 0.32882 0.0
H50 H 0.10405 0.50536 0.40844 0.0
H51 H 0.23308 0.60896 0.37817 0.0
H52 H 0.24357 0.56747 0.41882 0.0
C53 C 0.67108 0.19174 0.51736 0.0
C54 C 0.6899 0.19513 0.51604 0.0
C55 C 0.6924 0.18627 0.53809 0.0
C56 C 0.67503 0.17803 0.55157 0.0
N57 N 0.6619 0.1812 0.53922 0.0
Co58 Co 0.6354 0.17285 0.55166 0.0
N59 N 0.64219 0.17022 0.58879 0.0
C60 C 0.65721 0.16807 0.59639 0.0
C61 C 0.65801 0.16631 0.62366 0.0
C62 C 0.64249 0.16732 0.63365 0.0
C63 C 0.63306 0.16966 0.61181 0.0
N64 N 0.60884 0.16448 0.5641 0.0
C65 C 0.60245 0.16438 0.58923 0.0
C66 C 0.58261 0.15725 0.58926 0.0
C67 C 0.57651 0.15261 0.56313 0.0
C68 C 0.5929 0.15717 0.54861 0.0
N69 N 0.6288 0.1754 0.51437 0.0
C70 C 0.61095 0.16696 0.50366 0.0
C71 C 0.61124 0.17243 0.47742 0.0
C72 C 0.63045 0.18506 0.47159 0.0
C73 C 0.64078 0.18659 0.49466 0.0
N74 N 0.62772 0.14569 0.5448 0.0
C75 C 0.61337 0.1063 0.53295 0.0
C76 C 0.62603 0.12094 0.51533 0.0
C77 C 0.63296 0.14046 0.52156 0.0
C78 C 0.60866 0.11204 0.55704 0.0
C79 C 0.61607 0.13166 0.56264 0.0
N80 N 0.6427 0.19982 0.55832 0.0
C81 C 0.63614 0.22584 0.55169 0.0
C82 C 0.65312 0.23865 0.5653 0.0
C83 C 0.66468 0.23158 0.57582 0.0
C84 C 0.6593 0.21212 0.57187 0.0
C85 C 0.6311 0.20653 0.54871 0.0
H86 H 0.66861 0.20703 0.57955 0.0
H87 H 0.61782 0.19705 0.53834 0.0
H88 H 0.64227 0.15132 0.5073 0.0
H89 H 0.61188 0.13542 0.5812 0.0
C90 C 0.67189 0.17124 0.57807 0.0
C91 C 0.6619 0.19805 0.49748 0.0
C92 C 0.61475 0.1698 0.61327 0.0
C93 C 0.59458 0.15807 0.52046 0.0
H94 H 0.70069 0.20328 0.50097 0.0
H95 H 0.70565 0.18678 0.54432 0.0
H96 H 0.66896 0.16519 0.63504 0.0
H97 H 0.63849 0.16629 0.65455 0.0
H98 H 0.57352 0.15552 0.60633 0.0
H99 H 0.56199 0.14728 0.55555 0.0
H100 H 0.59892 0.16867 0.46458 0.0
H101 H 0.63618 0.19245 0.45276 0.0
H102 H 0.63053 0.11744 0.49672 0.0
H103 H 0.59878 0.10148 0.57128 0.0
H104 H 0.62667 0.23068 0.54362 0.0
H105 H 0.67792 0.24109 0.58651 0.0
C106 C 0.48398 0.66963 0.68511 0.0
C107 C 0.49916 0.68858 0.68432 0.0
C108 C 0.5103 0.69109 0.70666 0.0
C109 C 0.50131 0.67356 0.71971 0.0
N110 N 0.48533 0.66033 0.70683 0.0
Co111 Co 0.46749 0.63359 0.71844 0.0
N112 N 0.47619 0.64007 0.75589 0.0
C113 C 0.49305 0.65524 0.76414 0.0
C114 C 0.49513 0.65575 0.79149 0.0
C115 C 0.4786 0.63987 0.80083 0.0
C116 C 0.46731 0.63055 0.77855 0.0
N117 N 0.44959 0.60676 0.73008 0.0
C118 C 0.44291 0.59997 0.75495 0.0
C119 C 0.43057 0.58008 0.75441 0.0
C120 C 0.42977 0.57437 0.72819 0.0
C121 C 0.44159 0.59103 0.71419 0.0
N122 N 0.45905 0.62734 0.6808 0.0
C123 C 0.45019 0.60964 0.66966 0.0
C124 C 0.44528 0.6101 0.64334 0.0
C125 C 0.45146 0.62926 0.63789 0.0
C126 C 0.45983 0.63942 0.66124 0.0
N127 N 0.48758 0.62666 0.71207 0.0
C128 C 0.51203 0.61184 0.70001 0.0
C129 C 0.51077 0.62502 0.68274 0.0
C130 C 0.49836 0.63217 0.68906 0.0
C131 C 0.50162 0.60708 0.72403 0.0
C132 C 0.48973 0.61481 0.72982 0.0
N133 N 0.44715 0.64003 0.72467 0.0
C134 C 0.41385 0.63147 0.71916 0.0
C135 C 0.41694 0.64776 0.73374 0.0
C136 C 0.43574 0.66041 0.74322 0.0
C137 C 0.45065 0.65628 0.73846 0.0
C138 C 0.42898 0.62783 0.71506 0.0
H139 H 0.46497 0.6661 0.74606 0.0
H140 H 0.42588 0.615 0.70406 0.0
H141 H 0.49697 0.64163 0.67491 0.0
H142 H 0.48169 0.61056 0.74832 0.0
C143 C 0.50466 0.67024 0.74629 0.0
C144 C 0.46887 0.66045 0.66471 0.0
C145 C 0.44906 0.61198 0.77928 0.0
C146 C 0.44281 0.5931 0.6861 0.0
H147 H 0.50174 0.69943 0.66935 0.0
H148 H 0.52277 0.70442 0.71332 0.0
H149 H 0.50687 0.66672 0.80333 0.0
H150 H 0.47531 0.63559 0.82159 0.0
H151 H 0.42301 0.57071 0.77115 0.0
H152 H 0.42097 0.55992 0.7202 0.0
H153 H 0.43708 0.59788 0.6302 0.0
H154 H 0.44972 0.63499 0.61912 0.0
H155 H 0.51864 0.62908 0.66398 0.0
H156 H 0.50242 0.59718 0.7381 0.0
H157 H 0.39978 0.6215 0.71076 0.0
H158 H 0.43884 0.67318 0.75462 0.0
C159 C 0.8183 0.48207 0.85202 0.0
C160 C 0.81513 0.49764 0.8515 0.0
C161 C 0.82396 0.50847 0.87398 0.0
C162 C 0.83194 0.49891 0.8869 0.0
N163 N 0.82866 0.48283 0.87382 0.0
Co164 Co 0.83666 0.46424 0.8853 0.0
N165 N 0.83923 0.47291 0.92282 0.0
C166 C 0.84155 0.48997 0.93119 0.0
C167 C 0.84326 0.492 0.95853 0.0
C168 C 0.84205 0.47522 0.96776 0.0
C169 C 0.83962 0.46384 0.94543 0.0
N170 N 0.84466 0.44559 0.89675 0.0
C171 C 0.8446 0.43876 0.92158 0.0
C172 C 0.8515 0.42589 0.92088 0.0
C173 C 0.85617 0.42489 0.89462 0.0
C174 C 0.85186 0.43714 0.88075 0.0
N175 N 0.83419 0.45586 0.84762 0.0
C176 C 0.84252 0.44654 0.83636 0.0
C177 C 0.8372 0.442 0.80994 0.0
C178 C 0.82479 0.4489 0.80456 0.0
C179 C 0.82323 0.45724 0.82807 0.0
N180 N 0.86395 0.48366 0.87897 0.0
C181 C 0.90339 0.50814 0.86753 0.0
C182 C 0.88906 0.50715 0.85024 0.0
C183 C 0.86943 0.49473 0.85623 0.0
C184 C 0.89753 0.49726 0.89116 0.0
C185 C 0.87783 0.48534 0.89664 0.0
N186 N 0.80954 0.44463 0.89143 0.0
C187 C 0.78329 0.41225 0.88392 0.0
C188 C 0.7706 0.41626 0.8981 0.0
C189 C 0.77784 0.43473 0.90927 0.0
C190 C 0.79735 0.4488 0.90546 0.0
C191 C 0.80265 0.42649 0.88107 0.0
H192 H 0.80258 0.46306 0.9137 0.0
H193 H 0.81205 0.4228 0.87029 0.0
H194 H 0.85869 0.49366 0.84209 0.0
H195 H 0.87387 0.47705 0.91492 0.0
C196 C 0.83862 0.50195 0.91346 0.0
C197 C 0.81197 0.46703 0.83144 0.0
C198 C 0.83932 0.4453 0.94606 0.0
C199 C 0.85113 0.43854 0.85268 0.0
H200 H 0.80716 0.50072 0.83666 0.0
H201 H 0.82358 0.52115 0.88082 0.0
H202 H 0.84451 0.5039 0.97044 0.0
H203 H 0.843 0.47183 0.98849 0.0
H204 H 0.85307 0.41813 0.93755 0.0
H205 H 0.86138 0.41576 0.88652 0.0
H206 H 0.8409 0.43364 0.79665 0.0
H207 H 0.81756 0.44775 0.78574 0.0
H208 H 0.893 0.51534 0.83175 0.0
H209 H 0.90813 0.49783 0.90525 0.0
H210 H 0.77832 0.39806 0.87533 0.0
H211 H 0.76843 0.43835 0.9204 0.0
C212 C 0.34033 0.81569 0.01835 0.0
C213 C 0.32152 0.81234 0.01722 0.0
C214 C 0.31918 0.82129 0.03929 0.0
C215 C 0.33665 0.82958 0.05254 0.0
N216 N 0.34969 0.82636 0.04003 0.0
Co217 Co 0.37628 0.83478 0.05204 0.0
N218 N 0.36977 0.83751 0.08927 0.0
C219 C 0.35483 0.83971 0.0971 0.0
C220 C 0.35424 0.84156 0.12439 0.0
C221 C 0.36983 0.84055 0.13413 0.0
C222 C 0.37907 0.83812 0.11215 0.0
N223 N 0.40293 0.84319 0.0641 0.0
C224 C 0.40949 0.84331 0.08914 0.0
C225 C 0.42932 0.85042 0.08889 0.0
C226 C 0.43524 0.855 0.06268 0.0
C227 C 0.41875 0.85044 0.04839 0.0
N228 N 0.38258 0.83214 0.01461 0.0
C229 C 0.40036 0.84055 0.00368 0.0
C230 C 0.39988 0.83501 0.97744 0.0
C231 C 0.38063 0.82238 0.97183 0.0
C232 C 0.37045 0.82095 0.99501 0.0
N233 N 0.38387 0.86191 0.04512 0.0
C234 C 0.39801 0.90124 0.03315 0.0
C235 C 0.38521 0.88653 0.01571 0.0
C236 C 0.3784 0.86704 0.022 0.0
C237 C 0.40298 0.89561 0.05712 0.0
C238 C 0.39568 0.87601 0.0628 0.0
N239 N 0.36904 0.80783 0.05875 0.0
C240 C 0.3755 0.78176 0.05191 0.0
C241 C 0.35863 0.76901 0.06577 0.0
C242 C 0.34718 0.77613 0.07652 0.0
C243 C 0.35255 0.79558 0.07255 0.0
C244 C 0.38053 0.80107 0.0489 0.0
H245 H 0.34332 0.8007 0.0804 0.0
H246 H 0.39372 0.81051 0.03833 0.0
H247 H 0.36896 0.85612 0.00789 0.0
H248 H 0.40006 0.87232 0.08126 0.0
C249 C 0.34 0.83649 0.07899 0.0
C250 C 0.34935 0.80938 0.99826 0.0
C251 C 0.39736 0.83792 0.11332 0.0
C252 C 0.41685 0.84946 0.02028 0.0
H253 H 0.31067 0.80417 0.00219 0.0
H254 H 0.30598 0.82083 0.04566 0.0
H255 H 0.34339 0.84273 0.13593 0.0
H256 H 0.37399 0.84163 0.15497 0.0
H257 H 0.43853 0.85215 0.10582 0.0
H258 H 0.4497 0.86028 0.05491 0.0
H259 H 0.41212 0.8387 0.96447 0.0
H260 H 0.37483 0.8149 0.95308 0.0
H261 H 0.38052 0.88995 0.99721 0.0
H262 H 0.41297 0.90623 0.07121 0.0
H263 H 0.38488 0.77688 0.04365 0.0
H264 H 0.33403 0.76667 0.0874 0.0
C265 C 0.52822 0.33779 0.18351 0.0
C266 C 0.51328 0.31876 0.18161 0.0
C267 C 0.5015 0.31552 0.20344 0.0
C268 C 0.50991 0.33271 0.21733 0.0
N269 N 0.52614 0.34642 0.20544 0.0
Co270 Co 0.5432 0.37297 0.21842 0.0
N271 N 0.53354 0.36548 0.25533 0.0
C272 C 0.51668 0.34989 0.26256 0.0
C273 C 0.51392 0.34866 0.28981 0.0
C274 C 0.53001 0.36452 0.30017 0.0
C275 C 0.54173 0.37454 0.27857 0.0
N276 N 0.56017 0.39963 0.2314 0.0
C277 C 0.56603 0.40594 0.25668 0.0
C278 C 0.57795 0.42589 0.25712 0.0
C279 C 0.57935 0.43214 0.23108 0.0
C280 C 0.56827 0.41571 0.2162 0.0
N281 N 0.55276 0.38021 0.18134 0.0
C282 C 0.56164 0.39815 0.17098 0.0
C283 C 0.56737 0.39841 0.1449 0.0
C284 C 0.56171 0.37947 0.13877 0.0
C285 C 0.5528 0.3687 0.16149 0.0
N286 N 0.52285 0.37942 0.21121 0.0
C287 C 0.49763 0.39328 0.19864 0.0
C288 C 0.50127 0.38228 0.18011 0.0
C289 C 0.51368 0.37526 0.18691 0.0
C290 C 0.50624 0.39646 0.22397 0.0
C291 C 0.51885 0.38955 0.22978 0.0
N292 N 0.56379 0.36699 0.22544 0.0
C293 C 0.59736 0.37623 0.22121 0.0
C294 C 0.59416 0.35949 0.23469 0.0
C295 C 0.57519 0.34637 0.24315 0.0
C296 C 0.56021 0.3504 0.23831 0.0
C297 C 0.58216 0.37975 0.21702 0.0
H298 H 0.54576 0.34016 0.24502 0.0
H299 H 0.58532 0.39288 0.20678 0.0
H300 H 0.51636 0.36698 0.17218 0.0
H301 H 0.5259 0.39304 0.24904 0.0
C302 C 0.50576 0.33525 0.24386 0.0
C303 C 0.54386 0.34761 0.16399 0.0
C304 C 0.55964 0.39334 0.28042 0.0
C305 C 0.56805 0.41428 0.18804 0.0
H306 H 0.51125 0.30834 0.16625 0.0
H307 H 0.48899 0.30194 0.20925 0.0
H308 H 0.50203 0.33726 0.30091 0.0
H309 H 0.53272 0.36835 0.32115 0.0
H310 H 0.5849 0.43495 0.27437 0.0
H311 H 0.5881 0.4468 0.22379 0.0
H312 H 0.57571 0.41097 0.13237 0.0
H313 H 0.56407 0.37425 0.11995 0.0
H314 H 0.49472 0.3793 0.1604 0.0
H315 H 0.50392 0.40497 0.23885 0.0
H316 H 0.61155 0.3866 0.21358 0.0
H317 H 0.57198 0.33326 0.25373 0.0
C318 C 0.48312 0.81617 0.48575 0.0
C319 C 0.49891 0.81336 0.48719 0.0
C320 C 0.51027 0.82248 0.46523 0.0
C321 C 0.50077 0.83028 0.45166 0.0
N322 N 0.48425 0.82659 0.46386 0.0
Co323 Co 0.4656 0.83421 0.45121 0.0
N324 N 0.47528 0.83721 0.41417 0.0
C325 C 0.49269 0.8399 0.40674 0.0
C326 C 0.49537 0.84176 0.3795 0.0
C327 C 0.47866 0.84027 0.36934 0.0
C328 C 0.46667 0.83754 0.39105 0.0
N329 N 0.44691 0.84185 0.43857 0.0
C330 C 0.44066 0.84184 0.41337 0.0
C331 C 0.42755 0.84845 0.4132 0.0
C332 C 0.42577 0.85287 0.43932 0.0
C333 C 0.43783 0.8487 0.45397 0.0
N334 N 0.45618 0.83128 0.4884 0.0
C335 C 0.44628 0.83922 0.499 0.0
C336 C 0.44106 0.83361 0.52519 0.0
C337 C 0.44813 0.82143 0.53112 0.0
C338 C 0.45725 0.82028 0.50815 0.0
N339 N 0.48452 0.86154 0.45826 0.0
C340 C 0.5085 0.90098 0.47025 0.0
C341 C 0.50708 0.88664 0.48788 0.0
C342 C 0.49494 0.86703 0.48159 0.0
C343 C 0.49824 0.8951 0.44608 0.0
C344 C 0.48654 0.87542 0.44038 0.0
N345 N 0.44648 0.80706 0.44433 0.0
C346 C 0.41399 0.78047 0.44992 0.0
C347 C 0.41865 0.76812 0.43611 0.0
C348 C 0.43754 0.7757 0.4262 0.0
C349 C 0.45131 0.7952 0.43075 0.0
C350 C 0.42798 0.79983 0.45357 0.0
H351 H 0.46586 0.80069 0.42339 0.0
H352 H 0.42379 0.80896 0.46401 0.0
H353 H 0.49359 0.85629 0.4959 0.0
H354 H 0.47873 0.87147 0.42168 0.0
C355 C 0.50439 0.83712 0.42519 0.0
C356 C 0.46749 0.8094 0.50551 0.0
C357 C 0.44795 0.83685 0.38939 0.0
C358 C 0.43849 0.84775 0.48212 0.0
H359 H 0.50181 0.80541 0.50228 0.0
H360 H 0.52326 0.82242 0.45911 0.0
H361 H 0.50765 0.84328 0.36825 0.0
H362 H 0.47571 0.84122 0.34841 0.0
H363 H 0.42014 0.85 0.39605 0.0
H364 H 0.41624 0.8578 0.4468 0.0
H365 H 0.43217 0.83698 0.53793 0.0
H366 H 0.4466 0.81408 0.54995 0.0
H367 H 0.51475 0.89054 0.5068 0.0
H368 H 0.49916 0.90567 0.43166 0.0
H369 H 0.39949 0.77528 0.45752 0.0
H370 H 0.4417 0.76658 0.41539 0.0
C371 C 0.67131 0.4817 0.65018 0.0
C372 C 0.69005 0.49729 0.65119 0.0
C373 C 0.69223 0.50848 0.62905 0.0
C374 C 0.67473 0.49909 0.61588 0.0
N375 N 0.66183 0.48282 0.6285 0.0
Co376 Co 0.63527 0.4644 0.61663 0.0
N377 N 0.64162 0.47353 0.57933 0.0
C378 C 0.65645 0.49072 0.57138 0.0
C379 C 0.65694 0.49307 0.54409 0.0
C380 C 0.64141 0.47637 0.53445 0.0
C381 C 0.6323 0.46472 0.55651 0.0
N382 N 0.60865 0.44589 0.60473 0.0
C383 C 0.60204 0.43935 0.57974 0.0
C384 C 0.58224 0.42645 0.58012 0.0
C385 C 0.57638 0.42513 0.60635 0.0
C386 C 0.59288 0.43723 0.62052 0.0
N387 N 0.62912 0.45556 0.65413 0.0
C388 C 0.61138 0.44606 0.66514 0.0
C389 C 0.61196 0.4411 0.69139 0.0
C390 C 0.63126 0.44792 0.69694 0.0
C391 C 0.64136 0.4567 0.67371 0.0
N392 N 0.62742 0.48375 0.62342 0.0
C393 C 0.61257 0.5082 0.63539 0.0
C394 C 0.62578 0.50696 0.65266 0.0
C395 C 0.63293 0.49455 0.6464 0.0
C396 C 0.60761 0.49756 0.61154 0.0
C397 C 0.61533 0.48565 0.6058 0.0
N398 N 0.64276 0.44486 0.61001 0.0
C399 C 0.63638 0.41231 0.61628 0.0
C400 C 0.65318 0.41651 0.60214 0.0
C401 C 0.66463 0.43522 0.59175 0.0
C402 C 0.65925 0.44925 0.59611 0.0
C403 C 0.63137 0.42656 0.61976 0.0
H404 H 0.66842 0.46365 0.58836 0.0
H405 H 0.61821 0.42272 0.63048 0.0
H406 H 0.64251 0.4933 0.6605 0.0
H407 H 0.61106 0.47757 0.58735 0.0
C408 C 0.67127 0.50249 0.58941 0.0
C409 C 0.66247 0.46642 0.67038 0.0
C410 C 0.61406 0.44616 0.55545 0.0
C411 C 0.59485 0.43827 0.64861 0.0
H412 H 0.70096 0.50013 0.66619 0.0
H413 H 0.70534 0.52127 0.62259 0.0
H414 H 0.66769 0.50511 0.53246 0.0
H415 H 0.6372 0.47322 0.51364 0.0
H416 H 0.573 0.41886 0.56326 0.0
H417 H 0.56197 0.41587 0.61422 0.0
H418 H 0.59978 0.43247 0.70441 0.0
H419 H 0.63712 0.44633 0.71568 0.0
H420 H 0.62997 0.51493 0.67133 0.0
H421 H 0.59766 0.49831 0.59747 0.0
H422 H 0.62696 0.39796 0.62426 0.0
H423 H 0.67775 0.43904 0.5807 0.0
C424 C 0.19339 0.67008 0.8172 0.0
C425 C 0.1971 0.68899 0.81806 0.0
C426 C 0.18844 0.69148 0.79574 0.0
C427 C 0.17999 0.67399 0.78259 0.0
N428 N 0.18284 0.66081 0.79538 0.0
Co429 Co 0.17399 0.6341 0.78357 0.0
N430 N 0.17157 0.6406 0.74621 0.0
C431 C 0.16979 0.65572 0.73811 0.0
C432 C 0.16816 0.65628 0.71078 0.0
C433 C 0.16887 0.64049 0.70129 0.0
C434 C 0.17093 0.63117 0.72346 0.0
N435 N 0.16509 0.60732 0.77175 0.0
C436 C 0.16497 0.60063 0.74682 0.0
C437 C 0.15749 0.58076 0.74722 0.0
C438 C 0.15266 0.57496 0.77342 0.0
C439 C 0.15746 0.59156 0.78755 0.0
N440 N 0.17637 0.62779 0.82107 0.0
C441 C 0.16759 0.61006 0.83214 0.0
C442 C 0.1729 0.61051 0.85849 0.0
C443 C 0.18579 0.6297 0.86404 0.0
C444 C 0.1876 0.63985 0.8407 0.0
N445 N 0.14694 0.627 0.79023 0.0
C446 C 0.10768 0.61224 0.80258 0.0
C447 C 0.12224 0.62538 0.81979 0.0
C448 C 0.14178 0.63251 0.81333 0.0
C449 C 0.11322 0.60744 0.77849 0.0
C450 C 0.13284 0.61514 0.77256 0.0
N451 N 0.20082 0.64074 0.77703 0.0
C452 C 0.22561 0.63217 0.78137 0.0
C453 C 0.2386 0.64848 0.76661 0.0
C454 C 0.2324 0.66121 0.75782 0.0
C455 C 0.21342 0.65706 0.76323 0.0
C456 C 0.2069 0.62855 0.78622 0.0
H457 H 0.20884 0.66687 0.756 0.0
H458 H 0.19728 0.6157 0.79728 0.0
H459 H 0.15271 0.64195 0.82743 0.0
H460 H 0.13655 0.61089 0.754 0.0
C461 C 0.17323 0.67068 0.75606 0.0
C462 C 0.19936 0.6609 0.83753 0.0
C463 C 0.17077 0.61272 0.72258 0.0
C464 C 0.15839 0.59354 0.81566 0.0
H465 H 0.20532 0.69985 0.83304 0.0
H466 H 0.18921 0.70476 0.78917 0.0
H467 H 0.16733 0.66725 0.69904 0.0
H468 H 0.16787 0.63627 0.68049 0.0
H469 H 0.15568 0.57146 0.7304 0.0
H470 H 0.14707 0.5605 0.78131 0.0
H471 H 0.16885 0.59829 0.87163 0.0
H472 H 0.19313 0.63551 0.88288 0.0
H473 H 0.11854 0.62946 0.83861 0.0
H474 H 0.10243 0.59756 0.76446 0.0
H475 H 0.22981 0.62215 0.78915 0.0
H476 H 0.24193 0.67398 0.7463 0.0
C477 C 0.52726 0.19137 0.98388 0.0
C478 C 0.51167 0.1945 0.9849 0.0
C479 C 0.50041 0.18544 0.96281 0.0
C480 C 0.50977 0.17735 0.9496 0.0
N481 N 0.52611 0.1808 0.96215 0.0
Co482 Co 0.54454 0.17273 0.95008 0.0
N483 N 0.5352 0.16982 0.91286 0.0
C484 C 0.51797 0.1674 0.90504 0.0
C485 C 0.51552 0.16552 0.87775 0.0
C486 C 0.53221 0.16675 0.868 0.0
C487 C 0.54395 0.16933 0.88998 0.0
N488 N 0.563 0.16464 0.93803 0.0
C489 C 0.56944 0.16456 0.91299 0.0
C490 C 0.58233 0.15768 0.91323 0.0
C491 C 0.58377 0.15319 0.93945 0.0
C492 C 0.57173 0.15758 0.95374 0.0
N493 N 0.55362 0.17559 0.98744 0.0
C494 C 0.56318 0.16741 0.99842 0.0
C495 C 0.56824 0.17303 0.02464 0.0
C496 C 0.56143 0.18548 0.03019 0.0
C497 C 0.55262 0.18677 0.00698 0.0
N498 N 0.52522 0.14552 0.95709 0.0
C499 C 0.50015 0.10611 0.96885 0.0
C500 C 0.51077 0.11188 0.94489 0.0
C501 C 0.52299 0.13151 0.93933 0.0
C502 C 0.50206 0.12072 0.98645 0.0
C503 C 0.51465 0.14025 0.98025 0.0
N504 N 0.56404 0.19976 0.94325 0.0
C505 C 0.59666 0.22602 0.94922 0.0
C506 C 0.59236 0.23856 0.93519 0.0
C507 C 0.57358 0.23122 0.92497 0.0
C508 C 0.55956 0.2118 0.92943 0.0
C509 C 0.58243 0.20673 0.9528 0.0
H510 H 0.5451 0.20651 0.92183 0.0
H511 H 0.58634 0.19746 0.96343 0.0
H512 H 0.53106 0.1353 0.92085 0.0
H513 H 0.5161 0.1511 0.99444 0.0
C514 C 0.50627 0.17045 0.92316 0.0
C515 C 0.54272 0.19795 0.0039 0.0
C516 C 0.56256 0.16978 0.88879 0.0
C517 C 0.57086 0.15861 0.98185 0.0
H518 H 0.50884 0.20262 0.99979 0.0
H519 H 0.4876 0.18574 0.95638 0.0
H520 H 0.50342 0.16419 0.86622 0.0
H521 H 0.53531 0.16573 0.84716 0.0
H522 H 0.58984 0.15602 0.8963 0.0
H523 H 0.59308 0.14808 0.94723 0.0
H524 H 0.57686 0.16948 0.03766 0.0
H525 H 0.56293 0.19291 0.04894 0.0
H526 H 0.51016 0.10135 0.93069 0.0
H527 H 0.49395 0.11716 0.00498 0.0
H528 H 0.61107 0.231 0.95705 0.0
H529 H 0.56969 0.24049 0.91399 0.0
C530 C 0.3404 0.52648 0.15224 0.0
C531 C 0.32167 0.511 0.15444 0.0
C532 C 0.3188 0.49924 0.13272 0.0
C533 C 0.33591 0.50821 0.1186 0.0
N534 N 0.34922 0.52475 0.13026 0.0
Co535 Co 0.37543 0.54275 0.11684 0.0
N536 N 0.36794 0.53279 0.08002 0.0
C537 C 0.35278 0.51552 0.07308 0.0
C538 C 0.35145 0.51259 0.04587 0.0
C539 C 0.36679 0.52898 0.03522 0.0
C540 C 0.37664 0.54105 0.05663 0.0
N541 N 0.40177 0.56068 0.10344 0.0
C542 C 0.40775 0.56651 0.07804 0.0
C543 C 0.4276 0.57918 0.07734 0.0
C544 C 0.43413 0.58109 0.10331 0.0
C545 C 0.41796 0.56955 0.11842 0.0
N546 N 0.38265 0.55257 0.15381 0.0
C547 C 0.40067 0.56224 0.16391 0.0
C548 C 0.40082 0.56798 0.18996 0.0
C549 C 0.3817 0.56148 0.19633 0.0
C550 C 0.37098 0.55212 0.17377 0.0
N551 N 0.38329 0.52341 0.12385 0.0
C552 C 0.39854 0.4991 0.13554 0.0
C553 C 0.38731 0.50226 0.15441 0.0
C554 C 0.37967 0.51424 0.14807 0.0
C555 C 0.4011 0.50779 0.11028 0.0
C556 C 0.3936 0.51994 0.10497 0.0
N557 N 0.36798 0.56229 0.10999 0.0
C558 C 0.37484 0.59508 0.1152 0.0
C559 C 0.35758 0.59065 0.10215 0.0
C560 C 0.34569 0.57173 0.09275 0.0
C561 C 0.35107 0.55769 0.0971 0.0
C562 C 0.37984 0.58082 0.11866 0.0
H563 H 0.34155 0.54312 0.09018 0.0
H564 H 0.39334 0.58483 0.12854 0.0
H565 H 0.37132 0.51657 0.16311 0.0
H566 H 0.39658 0.5269 0.08568 0.0
C567 C 0.33851 0.5042 0.09203 0.0
C568 C 0.3498 0.54238 0.17147 0.0
C569 C 0.39505 0.55936 0.05441 0.0
C570 C 0.41675 0.56936 0.1466 0.0
H571 H 0.31118 0.50863 0.16988 0.0
H572 H 0.30546 0.48637 0.1271 0.0
H573 H 0.3403 0.50035 0.03497 0.0
H574 H 0.37042 0.53164 0.01418 0.0
H575 H 0.43642 0.58626 0.05995 0.0
H576 H 0.44877 0.59041 0.11039 0.0
H577 H 0.41335 0.57687 0.20229 0.0
H578 H 0.37633 0.5636 0.21518 0.0
H579 H 0.38488 0.49607 0.17427 0.0
H580 H 0.40905 0.50544 0.09457 0.0
H581 H 0.38459 0.6096 0.12237 0.0
H582 H 0.33222 0.56775 0.08253 0.0
C583 C 0.8167 0.33771 0.3186 0.0
C584 C 0.81264 0.31873 0.32087 0.0
C585 C 0.82134 0.3154 0.29933 0.0
C586 C 0.83019 0.3325 0.28522 0.0
N587 N 0.82755 0.34623 0.29672 0.0
Co588 Co 0.83707 0.37268 0.28333 0.0
N589 N 0.8395 0.36498 0.24666 0.0
C590 C 0.84087 0.34939 0.23984 0.0
C591 C 0.84256 0.348 0.21266 0.0
C592 C 0.84233 0.36374 0.20191 0.0
C593 C 0.84048 0.37386 0.22323 0.0
N594 N 0.84681 0.39923 0.26993 0.0
C595 C 0.84736 0.40534 0.24451 0.0
C596 C 0.85537 0.42528 0.24377 0.0
C597 C 0.86007 0.43172 0.26976 0.0
C598 C 0.85467 0.41541 0.28492 0.0
N599 N 0.83447 0.38013 0.32014 0.0
C600 C 0.84346 0.39814 0.33028 0.0
C601 C 0.83783 0.39854 0.35624 0.0
C602 C 0.82453 0.37961 0.36252 0.0
C603 C 0.82282 0.36872 0.33999 0.0
N604 N 0.86386 0.37929 0.29103 0.0
C605 C 0.90291 0.39319 0.30409 0.0
C606 C 0.88815 0.38233 0.32257 0.0
C607 C 0.86873 0.37529 0.31553 0.0
C608 C 0.89762 0.39624 0.2786 0.0
C609 C 0.87812 0.38932 0.27255 0.0
N610 N 0.81049 0.36651 0.27576 0.0
C611 C 0.78615 0.37581 0.27839 0.0
C612 C 0.77281 0.35898 0.26485 0.0
C613 C 0.77868 0.34573 0.25736 0.0
C614 C 0.79761 0.34979 0.26299 0.0
C615 C 0.80479 0.37932 0.28349 0.0
H616 H 0.80189 0.33951 0.25686 0.0
H617 H 0.81464 0.39251 0.29371 0.0
H618 H 0.85767 0.3671 0.33021 0.0
H619 H 0.87466 0.39269 0.25314 0.0
C620 C 0.83706 0.3349 0.2588 0.0
C621 C 0.81073 0.34761 0.33773 0.0
C622 C 0.84128 0.39257 0.22095 0.0
C623 C 0.85327 0.41417 0.31308 0.0
H624 H 0.80416 0.3084 0.33627 0.0
H625 H 0.82034 0.30182 0.29382 0.0
H626 H 0.84314 0.33656 0.20183 0.0
H627 H 0.84355 0.36741 0.18086 0.0
H628 H 0.85755 0.43421 0.22635 0.0
H629 H 0.8659 0.44642 0.27683 0.0
H630 H 0.84197 0.41116 0.36858 0.0
H631 H 0.81687 0.37446 0.3813 0.0
H632 H 0.89161 0.37945 0.3424 0.0
H633 H 0.90855 0.40465 0.26375 0.0
H634 H 0.78224 0.38628 0.28518 0.0
H635 H 0.7689 0.33255 0.24678 0.0
C636 C 0.27233 0.61577 0.37913 0.0
C637 C 0.26169 0.60536 0.40165 0.0
C638 C 0.29104 0.63159 0.38197 0.0
C639 C 0.33166 0.65762 0.43104 0.0
H640 H 0.34446 0.70127 0.38444 0.0
C641 C 0.39191 0.73643 0.45327 0.0
C642 C 0.40355 0.74759 0.4318 0.0
C643 C 0.37631 0.71778 0.44893 0.0
C644 C 0.34124 0.68913 0.39737 0.0
H645 H 0.26233 0.60297 0.44473 0.0
H646 H 0.29479 0.63101 0.44998 0.0
H647 H 0.31399 0.67127 0.37833 0.0
H648 H 0.4083 0.74782 0.38909 0.0
H649 H 0.38082 0.71521 0.38138 0.0
H650 H 0.35871 0.67604 0.45078 0.0
C651 C 0.28897 0.62674 0.42996 0.0
C652 C 0.32375 0.67182 0.39383 0.0
C653 C 0.27033 0.61068 0.42704 0.0
C654 C 0.39963 0.73949 0.406 0.0
C655 C 0.38383 0.72092 0.40159 0.0
C656 C 0.34908 0.67505 0.43478 0.0
C657 C 0.29947 0.63766 0.40749 0.0
C658 C 0.31862 0.65581 0.41068 0.0
C659 C 0.37183 0.70997 0.42296 0.0
C660 C 0.35401 0.69102 0.41806 0.0
H661 H 0.26603 0.61181 0.35929 0.0
H662 H 0.29878 0.63922 0.3641 0.0
H663 H 0.32845 0.64557 0.44414 0.0
H664 H 0.39468 0.7423 0.47339 0.0
H665 H 0.36728 0.70978 0.46576 0.0
C666 C 0.66138 0.26767 0.59385 0.0
C667 C 0.65833 0.25918 0.56839 0.0
C668 C 0.66386 0.28624 0.59685 0.0
C669 C 0.65377 0.32108 0.56059 0.0
H670 H 0.68424 0.35588 0.61782 0.0
C671 C 0.66238 0.39706 0.57228 0.0
C672 C 0.65824 0.40114 0.59801 0.0
C673 C 0.66495 0.38114 0.56805 0.0
C674 C 0.67566 0.34629 0.60175 0.0
H675 H 0.65663 0.26375 0.526 0.0
H676 H 0.66176 0.29636 0.53096 0.0
H677 H 0.68441 0.32564 0.61133 0.0
H678 H 0.65454 0.3924 0.63966 0.0
H679 H 0.65928 0.36478 0.63235 0.0
H680 H 0.64514 0.34182 0.55097 0.0
C681 C 0.66151 0.28855 0.54881 0.0
C682 C 0.67566 0.32888 0.59809 0.0
C683 C 0.65874 0.26992 0.54589 0.0
C684 C 0.65759 0.38951 0.61958 0.0
C685 C 0.66042 0.37378 0.61542 0.0
C686 C 0.65397 0.33856 0.56405 0.0
C687 C 0.66361 0.29682 0.57438 0.0
C688 C 0.66455 0.31592 0.5776 0.0
C689 C 0.66374 0.36917 0.58953 0.0
C690 C 0.66475 0.35128 0.58483 0.0
H691 H 0.66097 0.2596 0.61153 0.0
H692 H 0.66521 0.29194 0.61689 0.0
H693 H 0.64466 0.31138 0.54497 0.0
H694 H 0.66286 0.40572 0.55528 0.0
H695 H 0.66764 0.37803 0.5479 0.0
C696 C 0.26035 0.63567 0.75323 0.0
C697 C 0.2582 0.65157 0.76009 0.0
C698 C 0.27864 0.63797 0.74875 0.0
C699 C 0.33076 0.67059 0.76305 0.0
H700 H 0.336 0.63698 0.71184 0.0
C701 C 0.40262 0.66973 0.73755 0.0
C702 C 0.40039 0.65109 0.73883 0.0
C703 C 0.38646 0.67225 0.73986 0.0
C704 C 0.33476 0.64649 0.72618 0.0
H705 H 0.27373 0.68255 0.76692 0.0
H706 H 0.30587 0.6867 0.75835 0.0
H707 H 0.30571 0.63735 0.71432 0.0
H708 H 0.37953 0.62072 0.74559 0.0
H709 H 0.35156 0.6251 0.74868 0.0
H710 H 0.3601 0.67972 0.77462 0.0
C711 C 0.2933 0.67234 0.75695 0.0
C712 C 0.31737 0.64664 0.72774 0.0
C713 C 0.27487 0.67001 0.76156 0.0
C714 C 0.38178 0.63522 0.74364 0.0
C715 C 0.36572 0.6377 0.74555 0.0
C716 C 0.34834 0.67062 0.76121 0.0
C717 C 0.29541 0.6563 0.75065 0.0
C718 C 0.31488 0.65823 0.74675 0.0
C719 C 0.36781 0.65616 0.7432 0.0
C720 C 0.35028 0.65815 0.74325 0.0
H721 H 0.24783 0.6213 0.75147 0.0
H722 H 0.2796 0.62519 0.74439 0.0
H723 H 0.32938 0.67963 0.77803 0.0
H724 H 0.4167 0.68227 0.73378 0.0
H725 H 0.38843 0.68665 0.73804 0.0
C726 C 0.73919 0.39071 0.87869 0.0
C727 C 0.75003 0.40094 0.90121 0.0
C728 C 0.7205 0.37488 0.88161 0.0
C729 C 0.68019 0.34868 0.93094 0.0
H730 H 0.66695 0.30523 0.88369 0.0
C731 C 0.61939 0.27001 0.95254 0.0
C732 C 0.6077 0.25901 0.931 0.0
C733 C 0.63514 0.28859 0.94832 0.0
C734 C 0.67029 0.31732 0.89681 0.0
H735 H 0.74972 0.40298 0.94438 0.0
H736 H 0.71729 0.37494 0.94973 0.0
H737 H 0.69749 0.33518 0.87766 0.0
H738 H 0.60302 0.25899 0.88829 0.0
H739 H 0.63074 0.29149 0.88081 0.0
H740 H 0.65317 0.33028 0.95073 0.0
C741 C 0.72295 0.37936 0.92968 0.0
C742 C 0.68783 0.33459 0.89332 0.0
C743 C 0.74158 0.39542 0.92669 0.0
C744 C 0.61173 0.2672 0.90526 0.0
C745 C 0.62767 0.28571 0.90097 0.0
C746 C 0.66272 0.33129 0.93461 0.0
C747 C 0.71227 0.36864 0.90719 0.0
C748 C 0.6931 0.35052 0.91039 0.0
C749 C 0.6397 0.2965 0.92241 0.0
C750 C 0.65763 0.31539 0.91765 0.0
H751 H 0.7453 0.39484 0.85878 0.0
H752 H 0.7126 0.36739 0.86375 0.0
H753 H 0.68353 0.36066 0.94422 0.0
H754 H 0.61653 0.26409 0.97263 0.0
H755 H 0.64419 0.29647 0.96522 0.0
C756 C 0.35049 0.74003 0.09435 0.0
C757 C 0.35339 0.74847 0.06888 0.0
C758 C 0.34789 0.72141 0.09731 0.0
C759 C 0.35722 0.68614 0.06071 0.0
H760 H 0.32717 0.65174 0.11851 0.0
C761 C 0.34794 0.60988 0.07257 0.0
C762 C 0.3525 0.60601 0.09816 0.0
C763 C 0.34543 0.62585 0.06839 0.0
C764 C 0.33562 0.66122 0.10228 0.0
H765 H 0.35475 0.74378 0.02645 0.0
H766 H 0.3494 0.71109 0.03135 0.0
H767 H 0.32725 0.68211 0.11209 0.0
H768 H 0.35705 0.61516 0.13965 0.0
H769 H 0.35238 0.64285 0.13246 0.0
H770 H 0.36544 0.66513 0.05086 0.0
C771 C 0.34986 0.71896 0.04924 0.0
C772 C 0.33577 0.6787 0.09865 0.0
C773 C 0.35276 0.73765 0.04635 0.0
C774 C 0.35364 0.61789 0.11969 0.0
C775 C 0.35085 0.63366 0.1156 0.0
C776 C 0.35685 0.66858 0.06413 0.0
C777 C 0.34787 0.71072 0.07481 0.0
C778 C 0.34675 0.69154 0.07797 0.0
C779 C 0.34712 0.63806 0.08981 0.0
C780 C 0.34622 0.65601 0.08512 0.0
H781 H 0.35108 0.74815 0.11205 0.0
H782 H 0.34666 0.71575 0.11736 0.0
H783 H 0.36622 0.69573 0.04494 0.0
H784 H 0.34708 0.60102 0.05561 0.0
H785 H 0.34243 0.62881 0.04833 0.0
C786 C 0.73644 0.33743 0.26102 0.0
C787 C 0.75314 0.35577 0.25845 0.0
C788 C 0.71797 0.33504 0.25664 0.0
C789 C 0.69347 0.36026 0.22684 0.0
H790 H 0.65144 0.32788 0.27509 0.0
C791 C 0.62927 0.37185 0.24495 0.0
C792 C 0.61071 0.35609 0.23953 0.0
C793 C 0.64534 0.36934 0.24658 0.0
C794 C 0.66301 0.33679 0.26132 0.0
H795 H 0.76344 0.38576 0.24804 0.0
H796 H 0.73162 0.38183 0.2415 0.0
H797 H 0.68223 0.32807 0.27802 0.0
H798 H 0.59449 0.32503 0.23308 0.0
H799 H 0.62273 0.3206 0.23697 0.0
H800 H 0.67459 0.36972 0.21116 0.0
C801 C 0.73258 0.36914 0.24649 0.0
C802 C 0.68063 0.33687 0.26287 0.0
C803 C 0.75093 0.37148 0.25068 0.0
C804 C 0.60852 0.33749 0.23736 0.0
C805 C 0.62466 0.33494 0.23945 0.0
C806 C 0.67605 0.36041 0.22562 0.0
C807 C 0.71579 0.35093 0.24953 0.0
C808 C 0.69626 0.34896 0.24603 0.0
C809 C 0.64327 0.35095 0.2434 0.0
C810 C 0.6608 0.34898 0.24315 0.0
H811 H 0.73761 0.32503 0.26709 0.0
H812 H 0.70541 0.32075 0.25889 0.0
H813 H 0.7049 0.36933 0.21299 0.0
H814 H 0.63151 0.38629 0.2476 0.0
H815 H 0.65949 0.38186 0.25012 0.0
C816 C 0.15419 0.59218 0.6826 0.0
C817 C 0.17143 0.60471 0.69607 0.0
C818 C 0.15466 0.587 0.65597 0.0
C819 C 0.18616 0.60402 0.5957 0.0
H820 H 0.1492 0.55326 0.56821 0.0
C821 C 0.19019 0.57773 0.4887 0.0
C822 C 0.17263 0.56726 0.47485 0.0
C823 C 0.19031 0.58293 0.5155 0.0
C824 C 0.15949 0.56757 0.57554 0.0
H825 H 0.2026 0.62158 0.69285 0.0
H826 H 0.20363 0.61204 0.64654 0.0
H827 H 0.14925 0.5601 0.61579 0.0
H828 H 0.14148 0.55385 0.4777 0.0
H829 H 0.14158 0.56301 0.52458 0.0
H830 H 0.19654 0.61134 0.55538 0.0
C831 C 0.18969 0.6064 0.65623 0.0
C832 C 0.15953 0.57151 0.60284 0.0
C833 C 0.18917 0.61168 0.68282 0.0
C834 C 0.15519 0.56222 0.48799 0.0
C835 C 0.15527 0.56727 0.51483 0.0
C836 C 0.18622 0.60002 0.56842 0.0
C837 C 0.17241 0.59427 0.64227 0.0
C838 C 0.17281 0.58982 0.61331 0.0
C839 C 0.17282 0.57747 0.52901 0.0
C840 C 0.17282 0.58179 0.558 0.0
H841 H 0.14033 0.58704 0.69236 0.0
H842 H 0.14105 0.5779 0.64584 0.0
H843 H 0.19636 0.61841 0.60285 0.0
H844 H 0.20375 0.58143 0.47897 0.0
H845 H 0.20404 0.59061 0.52593 0.0
C846 C 0.61411 0.18782 0.65374 0.0
C847 C 0.60698 0.17022 0.64006 0.0
C848 C 0.60916 0.18806 0.68057 0.0
C849 C 0.59456 0.1577 0.74089 0.0
H850 H 0.58061 0.19443 0.76857 0.0
C851 C 0.56631 0.15306 0.84887 0.0
C852 C 0.57098 0.17034 0.86212 0.0
C853 C 0.5716 0.15336 0.82209 0.0
C854 C 0.5848 0.18428 0.76131 0.0
H855 H 0.58926 0.13911 0.64323 0.0
H856 H 0.58044 0.13944 0.69018 0.0
H857 H 0.58716 0.1943 0.7209 0.0
H858 H 0.58488 0.20142 0.85836 0.0
H859 H 0.59484 0.20217 0.81179 0.0
H860 H 0.59254 0.14784 0.78122 0.0
C861 C 0.58978 0.15306 0.68025 0.0
C862 C 0.58844 0.18415 0.73392 0.0
C863 C 0.5946 0.15286 0.65337 0.0
C864 C 0.58139 0.18796 0.8485 0.0
C865 C 0.58683 0.18831 0.82177 0.0
C866 C 0.59109 0.15793 0.7683 0.0
C867 C 0.59724 0.17066 0.69428 0.0
C868 C 0.59326 0.17079 0.72337 0.0
C869 C 0.58168 0.17098 0.80802 0.0
C870 C 0.58607 0.17117 0.77891 0.0
H871 H 0.62399 0.20132 0.64389 0.0
H872 H 0.61528 0.20182 0.69089 0.0
H873 H 0.59858 0.14745 0.73345 0.0
H874 H 0.55788 0.13928 0.85893 0.0
H875 H 0.56709 0.1397 0.81215 0.0
C876 C 0.3954 0.57751 0.01349 0.0
C877 C 0.40251 0.5671 0.02732 0.0
C878 C 0.40045 0.58269 0.98668 0.0
C879 C 0.43525 0.58665 0.9337 0.0
H880 H 0.39545 0.58331 0.88568 0.0
C881 C 0.44522 0.5913 0.81901 0.0
C882 C 0.44042 0.60382 0.80575 0.0
C883 C 0.43979 0.58615 0.84572 0.0
C884 C 0.40675 0.58443 0.89887 0.0
H885 H 0.42014 0.55363 0.02438 0.0
H886 H 0.42886 0.56239 0.97747 0.0
H887 H 0.38832 0.57654 0.93325 0.0
H888 H 0.42624 0.62074 0.80949 0.0
H889 H 0.41637 0.6115 0.85617 0.0
H890 H 0.45356 0.59426 0.89916 0.0
C891 C 0.41983 0.5671 0.9873 0.0
C892 C 0.40272 0.58065 0.9262 0.0
C893 C 0.41487 0.56206 0.01414 0.0
C894 C 0.42972 0.61076 0.81929 0.0
C895 C 0.42414 0.60549 0.84594 0.0
C896 C 0.43922 0.59027 0.90635 0.0
C897 C 0.4125 0.5773 0.97307 0.0
C898 C 0.41692 0.58171 0.94401 0.0
C899 C 0.42946 0.59344 0.85963 0.0
C900 C 0.42502 0.5892 0.88862 0.0
H901 H 0.38563 0.5813 0.0233 0.0
H902 H 0.39476 0.59079 0.97656 0.0
H903 H 0.44667 0.58795 0.94679 0.0
H904 H 0.4538 0.58611 0.809 0.0
H905 H 0.44395 0.57671 0.85562 0.0
C906 C 0.82306 0.39323 0.1807 0.0
C907 C 0.8408 0.39995 0.19391 0.0
C908 C 0.8226 0.39815 0.15392 0.0
C909 C 0.85313 0.43204 0.09994 0.0
H910 H 0.815 0.3925 0.05318 0.0
C911 C 0.8565 0.44116 0.98515 0.0
C912 C 0.83904 0.43675 0.97252 0.0
C913 C 0.85655 0.43586 0.01183 0.0
C914 C 0.82565 0.40373 0.06602 0.0
H915 H 0.87194 0.41677 0.18988 0.0
H916 H 0.87132 0.42527 0.143 0.0
H917 H 0.81534 0.38563 0.10071 0.0
H918 H 0.80804 0.42339 0.97738 0.0
H919 H 0.80798 0.41374 0.02403 0.0
H920 H 0.86359 0.45002 0.06508 0.0
C921 C 0.85768 0.41664 0.15331 0.0
C922 C 0.8258 0.39984 0.09332 0.0
C923 C 0.85809 0.41181 0.18013 0.0
C924 C 0.82159 0.42656 0.98668 0.0
C925 C 0.82161 0.4211 0.01332 0.0
C926 C 0.85307 0.43586 0.07261 0.0
C927 C 0.83993 0.40969 0.13972 0.0
C928 C 0.83954 0.41396 0.11068 0.0
C929 C 0.83913 0.42604 0.02636 0.0
C930 C 0.83934 0.42175 0.05532 0.0
H931 H 0.80958 0.38385 0.19099 0.0
H932 H 0.80867 0.39277 0.1443 0.0
H933 H 0.86371 0.44339 0.11269 0.0
H934 H 0.87014 0.44935 0.97466 0.0
H935 H 0.87026 0.43971 0.02123 0.0
C936 C 0.39788 0.81977 0.15371 0.0
C937 C 0.40523 0.83739 0.14 0.0
C938 C 0.40284 0.81945 0.18052 0.0
C939 C 0.41773 0.84987 0.24076 0.0
H940 H 0.43069 0.81249 0.26881 0.0
C941 C 0.44492 0.85383 0.34924 0.0
C942 C 0.43989 0.83646 0.3625 0.0
C943 C 0.43994 0.85368 0.32235 0.0
C944 C 0.42678 0.82284 0.26144 0.0
H945 H 0.42337 0.86845 0.14312 0.0
H946 H 0.4322 0.868 0.19005 0.0
H947 H 0.42446 0.81279 0.22105 0.0
H948 H 0.42565 0.80537 0.35862 0.0
H949 H 0.41621 0.80489 0.31183 0.0
H950 H 0.41969 0.85974 0.28107 0.0
C951 C 0.42268 0.85441 0.18014 0.0
C952 C 0.42332 0.82306 0.234 0.0
C953 C 0.41786 0.85469 0.15327 0.0
C954 C 0.42942 0.8189 0.34875 0.0
C955 C 0.42429 0.8187 0.3219 0.0
C956 C 0.42102 0.84954 0.26822 0.0
C957 C 0.41497 0.83681 0.1942 0.0
C958 C 0.41885 0.83664 0.22332 0.0
C959 C 0.4298 0.83612 0.30816 0.0
C960 C 0.42566 0.83607 0.27897 0.0
H961 H 0.38781 0.80632 0.1439 0.0
H962 H 0.39651 0.80569 0.19086 0.0
H963 H 0.41398 0.86029 0.23322 0.0
H964 H 0.45339 0.86756 0.35942 0.0
H965 H 0.44473 0.8674 0.31244 0.0
C966 C 0.56238 0.41286 0.32104 0.0
C967 C 0.56774 0.40095 0.30731 0.0
C968 C 0.56773 0.41781 0.34782 0.0
C969 C 0.58286 0.40113 0.40782 0.0
H970 H 0.59519 0.45126 0.43605 0.0
C971 C 0.6134 0.42772 0.5147 0.0
C972 C 0.60602 0.43779 0.52881 0.0
C973 C 0.6081 0.42236 0.48799 0.0
C974 C 0.59158 0.43711 0.42852 0.0
H975 H 0.58287 0.38491 0.31026 0.0
H976 H 0.5929 0.39403 0.35684 0.0
H977 H 0.58852 0.44463 0.38842 0.0
H978 H 0.58748 0.45031 0.5265 0.0
H979 H 0.57802 0.44084 0.47979 0.0
H980 H 0.58625 0.3938 0.44799 0.0
C981 C 0.58431 0.39936 0.34723 0.0
C982 C 0.58774 0.43329 0.40118 0.0
C983 C 0.57882 0.39432 0.3205 0.0
C984 C 0.59304 0.44221 0.51604 0.0
C985 C 0.58785 0.43701 0.48929 0.0
C986 C 0.58686 0.40502 0.43513 0.0
C987 C 0.57857 0.41092 0.36141 0.0
C988 C 0.58325 0.41522 0.39044 0.0
C989 C 0.59555 0.42728 0.47482 0.0
C990 C 0.59117 0.42302 0.44583 0.0
H991 H 0.55344 0.41774 0.31132 0.0
H992 H 0.56275 0.42645 0.35811 0.0
H993 H 0.57911 0.38692 0.40044 0.0
H994 H 0.62374 0.42454 0.52411 0.0
H995 H 0.61443 0.41506 0.47733 0.0
C996 C 0.93705 0.40081 0.29463 0.0
C997 C 0.92373 0.4022 0.31162 0.0
C998 C 0.95683 0.4103 0.30101 0.0
C999 C 0.99404 0.45256 0.33643 0.0
H1000 H 0.02397 0.42646 0.33585 0.0
C1001 C 0.0735 0.49162 0.37262 0.0
C1002 C 0.0868 0.48702 0.36102 0.0
C1003 C 0.05371 0.48084 0.36671 0.0
C1004 C 0.01599 0.43414 0.33567 0.0
H1005 H 0.92075 0.41466 0.34858 0.0
H1006 H 0.95536 0.43158 0.35943 0.0
H1007 H 0.98947 0.40841 0.32515 0.0
H1008 H 0.08915 0.46708 0.3338 0.0
H1009 H 0.05497 0.44911 0.3223 0.0
H1010 H 0.02041 0.47843 0.34582 0.0
C1011 C 0.95044 0.42297 0.34132 0.0
C1012 C 0.99614 0.4237 0.32969 0.0
C1013 C 0.93062 0.41318 0.33522 0.0
C1014 C 0.07957 0.47134 0.343 0.0
C1015 C 0.05976 0.46074 0.3367 0.0
C1016 C 0.01393 0.46309 0.3419 0.0
C1017 C 0.96378 0.42172 0.32423 0.0
C1018 C 0.98492 0.43276 0.33024 0.0
C1019 C 0.04647 0.4653 0.34849 0.0
C1020 C 0.02525 0.45404 0.34188 0.0
H1021 H 0.93216 0.39242 0.27633 0.0
H1022 H 0.96678 0.40914 0.2874 0.0
H1023 H 0.98582 0.46001 0.3366 0.0
H1024 H 0.07832 0.50376 0.38615 0.0
H1025 H 0.04409 0.48472 0.3767 0.0
C1026 C 0.53905 0.93011 0.48706 0.0
C1027 C 0.52005 0.92194 0.47718 0.0
C1028 C 0.54996 0.94997 0.49276 0.0
C1029 C 0.55096 0.9968 0.4798 0.0
H1030 H 0.58843 0.0154 0.53756 0.0
C1031 C 0.59995 0.07886 0.49932 0.0
C1032 C 0.60459 0.08525 0.526 0.0
C1033 C 0.5908 0.05911 0.49301 0.0
C1034 C 0.57789 0.01052 0.52151 0.0
H1035 H 0.49735 0.92808 0.4665 0.0
H1036 H 0.51591 0.96236 0.47729 0.0
H1037 H 0.56973 0.98092 0.52829 0.0
H1038 H 0.60362 0.07544 0.56684 0.0
H1039 H 0.58686 0.04123 0.55609 0.0
H1040 H 0.55833 0.02621 0.47389 0.0
C1041 C 0.52283 0.95374 0.47972 0.0
C1042 C 0.56732 0.99064 0.51588 0.0
C1043 C 0.51207 0.93399 0.47366 0.0
C1044 C 0.60003 0.07123 0.5461 0.0
C1045 C 0.59063 0.05147 0.53984 0.0
C1046 C 0.56132 0.01661 0.48565 0.0
C1047 C 0.54203 0.96214 0.48912 0.0
C1048 C 0.55363 0.98343 0.49497 0.0
C1049 C 0.58572 0.04504 0.5132 0.0
C1050 C 0.57496 0.02383 0.50663 0.0
H1051 H 0.54565 0.92122 0.4898 0.0
H1052 H 0.56474 0.95581 0.49955 0.0
H1053 H 0.54088 0.99202 0.4632 0.0
H1054 H 0.60296 0.08905 0.48321 0.0
H1055 H 0.58767 0.05492 0.47219 0.0
C1056 C 0.5141 0.58189 0.69315 0.0
C1057 C 0.52319 0.60216 0.69263 0.0
C1058 C 0.52443 0.57249 0.6869 0.0
C1059 C 0.57097 0.58045 0.65649 0.0
H1060 H 0.55558 0.53139 0.69121 0.0
C1061 C 0.61438 0.5392 0.65061 0.0
C1062 C 0.60326 0.51976 0.64258 0.0
C1063 C 0.6054 0.55 0.65686 0.0
C1064 C 0.56002 0.54506 0.68132 0.0
H1065 H 0.55021 0.62854 0.68511 0.0
H1066 H 0.56862 0.61228 0.67535 0.0
H1067 H 0.53888 0.54896 0.70219 0.0
H1068 H 0.57406 0.49628 0.63539 0.0
H1069 H 0.55838 0.51495 0.64703 0.0
H1070 H 0.59264 0.57659 0.63637 0.0
C1071 C 0.55334 0.60348 0.6798 0.0
C1072 C 0.55032 0.55513 0.68741 0.0
C1073 C 0.54284 0.61288 0.68554 0.0
C1074 C 0.583 0.51127 0.64133 0.0
C1075 C 0.57403 0.52192 0.64812 0.0
C1076 C 0.58093 0.57052 0.65081 0.0
C1077 C 0.54431 0.5831 0.68051 0.0
C1078 C 0.5554 0.57286 0.67479 0.0
C1079 C 0.58511 0.54141 0.65584 0.0
C1080 C 0.57537 0.55259 0.6629 0.0
H1081 H 0.49887 0.57325 0.69815 0.0
H1082 H 0.51666 0.55683 0.68692 0.0
H1083 H 0.57525 0.59385 0.646 0.0
H1084 H 0.63002 0.54612 0.65166 0.0
H1085 H 0.61428 0.56498 0.66286 0.0
C1086 C 0.07824 0.61352 0.81808 0.0
C1087 C 0.08686 0.60266 0.81015 0.0
C1088 C 0.05846 0.60424 0.82461 0.0
C1089 C 0.01872 0.55878 0.84998 0.0
H1090 H 0.98411 0.57227 0.81377 0.0
C1091 C 0.93598 0.51114 0.86165 0.0
C1092 C 0.92433 0.51972 0.86064 0.0
C1093 C 0.95574 0.52187 0.85561 0.0
C1094 C 0.99353 0.56849 0.82451 0.0
H1095 H 0.08171 0.57365 0.80344 0.0
H1096 H 0.04739 0.55747 0.81558 0.0
H1097 H 0.01878 0.5903 0.80404 0.0
H1098 H 0.92424 0.54629 0.85255 0.0
H1099 H 0.95894 0.56537 0.84311 0.0
H1100 H 0.99393 0.53746 0.87116 0.0
C1101 C 0.05582 0.57312 0.81638 0.0
C1102 C 0.01343 0.57882 0.81878 0.0
C1103 C 0.07542 0.58238 0.80931 0.0
C1104 C 0.93288 0.53929 0.85334 0.0
C1105 C 0.95279 0.55018 0.84779 0.0
C1106 C 0.99894 0.54871 0.85612 0.0
C1107 C 0.04709 0.58393 0.82396 0.0
C1108 C 0.02618 0.57388 0.83118 0.0
C1109 C 0.96458 0.54165 0.8489 0.0
C1110 C 0.98592 0.55316 0.84318 0.0
H1111 H 0.08673 0.62916 0.81883 0.0
H1112 H 0.05211 0.6129 0.83049 0.0
H1113 H 0.02826 0.55481 0.86009 0.0
H1114 H 0.92971 0.49599 0.86681 0.0
H1115 H 0.964 0.51449 0.85597 0.0
C1116 C 0.48577 0.07851 0.00226 0.0
C1117 C 0.48772 0.08505 0.9756 0.0
C1118 C 0.47493 0.05873 0.00835 0.0
C1119 C 0.45832 0.01077 0.97905 0.0
H1120 H 0.42151 0.99163 0.03762 0.0
C1121 C 0.41097 0.92859 0.99941 0.0
C1122 C 0.40661 0.92225 0.02615 0.0
C1123 C 0.41984 0.94831 0.99301 0.0
C1124 C 0.43194 0.99667 0.02143 0.0
H1125 H 0.47893 0.0755 0.93464 0.0
H1126 H 0.46066 0.04112 0.94525 0.0
H1127 H 0.43906 0.02615 0.02743 0.0
H1128 H 0.40782 0.93213 0.067 0.0
H1129 H 0.42407 0.9663 0.05608 0.0
H1130 H 0.45185 0.98159 0.97346 0.0
C1131 C 0.46765 0.05138 0.96139 0.0
C1132 C 0.44194 0.01652 0.01553 0.0
C1133 C 0.47824 0.07115 0.95532 0.0
C1134 C 0.4112 0.9363 0.04622 0.0
C1135 C 0.4203 0.95603 0.03986 0.0
C1136 C 0.44855 0.99099 0.98517 0.0
C1137 C 0.46596 0.04491 0.98795 0.0
C1138 C 0.45522 0.0238 0.99423 0.0
C1139 C 0.42488 0.9624 0.01316 0.0
C1140 C 0.43516 0.98358 0.00644 0.0
H1141 H 0.49305 0.0886 0.01846 0.0
H1142 H 0.47405 0.0542 0.029 0.0
H1143 H 0.46866 0.01596 0.96273 0.0
H1144 H 0.40794 0.91838 0.98331 0.0
H1145 H 0.42274 0.95246 0.97215 0.0
C1146 C 0.39959 0.47186 0.16043 0.0
C1147 C 0.40803 0.48742 0.14222 0.0
C1148 C 0.40875 0.46125 0.1668 0.0
C1149 C 0.45684 0.46337 0.16129 0.0
H1150 H 0.4264 0.4088 0.17862 0.0
C1151 C 0.4898 0.4132 0.16761 0.0
C1152 C 0.48585 0.40234 0.19129 0.0
C1153 C 0.47983 0.42304 0.16165 0.0
C1154 C 0.43508 0.42406 0.17391 0.0
H1155 H 0.43322 0.50396 0.11687 0.0
H1156 H 0.4483 0.4849 0.12644 0.0
H1157 H 0.41004 0.42691 0.168 0.0
H1158 H 0.46794 0.39282 0.22689 0.0
H1159 H 0.45011 0.40961 0.21607 0.0
H1160 H 0.48182 0.4602 0.16633 0.0
C1161 C 0.43485 0.48112 0.13652 0.0
C1162 C 0.42572 0.43453 0.16798 0.0
C1163 C 0.42589 0.49191 0.13053 0.0
C1164 C 0.47132 0.40111 0.20852 0.0
C1165 C 0.46107 0.41064 0.20229 0.0
C1166 C 0.46613 0.4528 0.1667 0.0
C1167 C 0.42654 0.46568 0.1549 0.0
C1168 C 0.43645 0.4544 0.16155 0.0
C1169 C 0.46542 0.42195 0.17898 0.0
C1170 C 0.45538 0.43304 0.17309 0.0
H1171 H 0.38578 0.46769 0.16972 0.0
H1172 H 0.40191 0.4497 0.18134 0.0
H1173 H 0.46576 0.47868 0.1572 0.0
H1174 H 0.50103 0.41456 0.15407 0.0
H1175 H 0.48342 0.43156 0.14347 0.0
C1176 C 0.23468 0.5599 0.31795 0.0
C1177 C 0.21571 0.54545 0.31181 0.0
C1178 C 0.25023 0.56224 0.30217 0.0
C1179 C 0.26234 0.54866 0.23642 0.0
H1180 H 0.30899 0.55798 0.27342 0.0
C1181 C 0.33376 0.54035 0.21549 0.0
C1182 C 0.33773 0.54706 0.18902 0.0
C1183 C 0.32013 0.54243 0.23066 0.0
C1184 C 0.29605 0.55528 0.26275 0.0
H1185 H 0.19783 0.52237 0.28443 0.0
H1186 H 0.22489 0.5262 0.25689 0.0
H1187 H 0.28243 0.55707 0.29872 0.0
H1188 H 0.33105 0.56141 0.15759 0.0
H1189 H 0.30765 0.56562 0.18419 0.0
H1190 H 0.27558 0.54605 0.20064 0.0
C1191 C 0.2279 0.536 0.27353 0.0
C1192 C 0.28088 0.55502 0.27724 0.0
C1193 C 0.21238 0.53372 0.28928 0.0
C1194 C 0.32827 0.55628 0.1781 0.0
C1195 C 0.31474 0.55848 0.19326 0.0
C1196 C 0.27747 0.54886 0.22196 0.0
C1197 C 0.24709 0.5501 0.27999 0.0
C1198 C 0.26373 0.55152 0.26431 0.0
C1199 C 0.31019 0.55125 0.2196 0.0
C1200 C 0.2945 0.55203 0.23494 0.0
H1201 H 0.23749 0.56902 0.33538 0.0
H1202 H 0.26473 0.57344 0.30753 0.0
H1203 H 0.24948 0.54615 0.22569 0.0
H1204 H 0.34064 0.53282 0.22405 0.0
H1205 H 0.31684 0.53642 0.25067 0.0
C1206 C 0.79705 0.33183 0.38197 0.0
C1207 C 0.79409 0.33599 0.35571 0.0
C1208 C 0.78139 0.31836 0.39738 0.0
C1209 C 0.74473 0.29445 0.43015 0.0
H1210 H 0.70636 0.24845 0.39299 0.0
C1211 C 0.67889 0.23314 0.48577 0.0
C1212 C 0.67399 0.21418 0.47904 0.0
C1213 C 0.69211 0.24874 0.47009 0.0
C1214 C 0.71698 0.26115 0.40374 0.0
H1215 H 0.77273 0.32981 0.32489 0.0
H1216 H 0.74521 0.30673 0.35194 0.0
H1217 H 0.73245 0.27456 0.36779 0.0
H1218 H 0.6786 0.19636 0.45084 0.0
H1219 H 0.70186 0.22353 0.42345 0.0
H1220 H 0.72969 0.28065 0.46626 0.0
C1221 C 0.75957 0.31355 0.36067 0.0
C1222 C 0.73184 0.27629 0.38921 0.0
C1223 C 0.77524 0.32691 0.34526 0.0
C1224 C 0.68208 0.21092 0.45612 0.0
C1225 C 0.69534 0.22649 0.44047 0.0
C1226 C 0.72989 0.27927 0.44471 0.0
C1227 C 0.76246 0.30876 0.38676 0.0
C1228 C 0.74603 0.29311 0.40221 0.0
C1229 C 0.70076 0.24566 0.44744 0.0
C1230 C 0.7159 0.26232 0.43174 0.0
H1231 H 0.81157 0.33838 0.39014 0.0
H1232 H 0.78427 0.31487 0.41718 0.0
H1233 H 0.75523 0.30724 0.44085 0.0
H1234 H 0.67282 0.23589 0.50352 0.0
H1235 H 0.69568 0.26323 0.47587 0.0
C1236 C 0.45485 0.68187 0.65797 0.0
C1237 C 0.46436 0.67266 0.64718 0.0
C1238 C 0.45255 0.69533 0.6428 0.0
C1239 C 0.4617 0.73244 0.61409 0.0
H1240 H 0.45379 0.72738 0.53727 0.0
C1241 C 0.47571 0.79705 0.54662 0.0
C1242 C 0.4639 0.79348 0.5241 0.0
C1243 C 0.47378 0.78168 0.56236 0.0
C1244 C 0.45576 0.72896 0.55876 0.0
H1245 H 0.47913 0.67025 0.61239 0.0
H1246 H 0.47533 0.69388 0.58575 0.0
H1247 H 0.45337 0.70113 0.56268 0.0
H1248 H 0.44055 0.77143 0.50051 0.0
H1249 H 0.43676 0.74445 0.52834 0.0
H1250 H 0.46384 0.76014 0.61025 0.0
C1251 C 0.46916 0.69043 0.60566 0.0
C1252 C 0.45578 0.71397 0.57331 0.0
C1253 C 0.47135 0.67689 0.62085 0.0
C1254 C 0.44974 0.77443 0.51792 0.0
C1255 C 0.44775 0.75902 0.5337 0.0
C1256 C 0.46163 0.74739 0.59956 0.0
C1257 C 0.45997 0.70005 0.61657 0.0
C1258 C 0.45893 0.71556 0.60115 0.0
C1259 C 0.45996 0.76241 0.55591 0.0
C1260 C 0.45886 0.74597 0.57164 0.0
H1261 H 0.4495 0.67891 0.67838 0.0
H1262 H 0.44515 0.70218 0.65176 0.0
H1263 H 0.46441 0.73435 0.63543 0.0
H1264 H 0.48684 0.81169 0.5515 0.0
H1265 H 0.48362 0.78488 0.57903 0.0
C1266 C 0.77706 0.44921 0.81852 0.0
C1267 C 0.79612 0.46363 0.81283 0.0
C1268 C 0.76171 0.4472 0.80258 0.0
C1269 C 0.75042 0.46143 0.73683 0.0
H1270 H 0.70338 0.45192 0.77285 0.0
C1271 C 0.67896 0.46939 0.71435 0.0
C1272 C 0.67501 0.46242 0.688 0.0
C1273 C 0.69265 0.46756 0.72973 0.0
C1274 C 0.71644 0.45468 0.76246 0.0
H1275 H 0.81438 0.48707 0.78617 0.0
H1276 H 0.78764 0.48382 0.75834 0.0
H1277 H 0.72969 0.45272 0.79871 0.0
H1278 H 0.68189 0.44798 0.65693 0.0
H1279 H 0.70546 0.44427 0.68389 0.0
H1280 H 0.73751 0.46413 0.70075 0.0
C1281 C 0.78442 0.4738 0.77475 0.0
C1282 C 0.73146 0.45488 0.77727 0.0
C1283 C 0.79974 0.47575 0.79067 0.0
C1284 C 0.68466 0.45331 0.67735 0.0
C1285 C 0.69827 0.45138 0.69271 0.0
C1286 C 0.73543 0.46126 0.72204 0.0
C1287 C 0.76515 0.45966 0.78069 0.0
C1288 C 0.74873 0.45842 0.76469 0.0
C1289 C 0.70269 0.45875 0.71899 0.0
C1290 C 0.71828 0.45803 0.73467 0.0
H1291 H 0.77403 0.43978 0.83565 0.0
H1292 H 0.74713 0.43598 0.80754 0.0
H1293 H 0.76339 0.46397 0.72638 0.0
H1294 H 0.67195 0.47684 0.7227 0.0
H1295 H 0.69586 0.47368 0.74968 0.0
C1296 C 0.32801 0.77401 0.99057 0.0
C1297 C 0.33696 0.79291 0.98044 0.0
C1298 C 0.31442 0.75848 0.97516 0.0
C1299 C 0.29498 0.74432 0.90574 0.0
H1300 H 0.24942 0.70497 0.94263 0.0
C1301 C 0.23448 0.67858 0.84914 0.0
C1302 C 0.21538 0.67302 0.85613 0.0
C1303 C 0.24995 0.69185 0.86499 0.0
C1304 C 0.26199 0.71587 0.93195 0.0
H1305 H 0.33888 0.81067 0.94663 0.0
H1306 H 0.31496 0.78364 0.9196 0.0
H1307 H 0.27537 0.73103 0.96814 0.0
H1308 H 0.19716 0.67657 0.88488 0.0
H1309 H 0.2241 0.69995 0.91256 0.0
H1310 H 0.28121 0.72961 0.86944 0.0
C1311 C 0.3187 0.7806 0.93914 0.0
C1312 C 0.27704 0.73072 0.94665 0.0
C1313 C 0.33238 0.7961 0.95455 0.0
C1314 C 0.21184 0.68054 0.87942 0.0
C1315 C 0.22729 0.69387 0.89523 0.0
C1316 C 0.27988 0.72951 0.89102 0.0
C1317 C 0.30931 0.76158 0.94938 0.0
C1318 C 0.2937 0.74524 0.93375 0.0
C1319 C 0.24659 0.69993 0.88804 0.0
C1320 C 0.2631 0.71515 0.9039 0.0
H1321 H 0.33128 0.77132 0.01065 0.0
H1322 H 0.30777 0.74406 0.98358 0.0
H1323 H 0.30764 0.75509 0.8951 0.0
H1324 H 0.23745 0.67298 0.83109 0.0
H1325 H 0.26456 0.69591 0.85902 0.0
C1326 C 0.55811 0.32646 0.15654 0.0
C1327 C 0.54873 0.33589 0.146 0.0
C1328 C 0.56024 0.31302 0.14111 0.0
C1329 C 0.55022 0.27577 0.11221 0.0
H1330 H 0.55795 0.28073 0.03537 0.0
C1331 C 0.53466 0.21072 0.04471 0.0
C1332 C 0.54647 0.21403 0.02228 0.0
C1333 C 0.53688 0.22624 0.06037 0.0
C1334 C 0.55601 0.27918 0.05686 0.0
H1335 H 0.53415 0.33879 0.11134 0.0
H1336 H 0.53769 0.31519 0.08423 0.0
H1337 H 0.55913 0.30732 0.06091 0.0
H1338 H 0.57008 0.23577 0.9987 0.0
H1339 H 0.57436 0.26301 0.02637 0.0
H1340 H 0.54734 0.24776 0.10825 0.0
C1341 C 0.54386 0.31846 0.10416 0.0
C1342 C 0.55644 0.29436 0.07149 0.0
C1343 C 0.54183 0.33199 0.1196 0.0
C1344 C 0.56088 0.23297 0.01606 0.0
C1345 C 0.56316 0.24853 0.03174 0.0
C1346 C 0.54983 0.26062 0.09761 0.0
C1347 C 0.55279 0.30852 0.11488 0.0
C1348 C 0.55339 0.29281 0.09935 0.0
C1349 C 0.55101 0.2454 0.05391 0.0
C1350 C 0.55253 0.26202 0.06969 0.0
H1351 H 0.56334 0.32916 0.17701 0.0
H1352 H 0.56747 0.30594 0.14992 0.0
H1353 H 0.54754 0.27389 0.13356 0.0
H1354 H 0.52334 0.19617 0.04962 0.0
H1355 H 0.52708 0.22325 0.07701 0.0
loop_
_geom_bond_atom_site_label_1
_geom_bond_atom_site_label_2
_geom_bond_distance
_geom_bond_site_symmetry_2
_ccdc_geom_bond_type
C0 C1 1.443 . S
C0 N4 1.376 . S
C0 C38 1.389 . S
C1 C0 1.443 . S
C1 C2 1.340 . S
C1 H41 0.951 . S
C2 C1 1.340 . S
C2 C3 1.439 . S
C2 H42 0.950 . S
C3 C2 1.439 . S
C3 N4 1.374 . S
C3 C37 1.395 . S
N4 C0 1.376 . S
N4 C3 1.374 . S
N4 Co5 2.008 . S
Co5 N4 2.008 . S
Co5 N6 1.995 . S
Co5 N11 2.008 . S
Co5 N16 1.995 . S
Co5 N21 2.282 . S
Co5 N27 2.282 . S
N6 Co5 1.995 . S
N6 C7 1.376 . S
N6 C10 1.383 . S
C7 N6 1.376 . S
C7 C8 1.446 . S
C7 C37 1.391 . S
C8 C7 1.446 . S
C8 C9 1.339 . S
C8 H43 0.949 . S
C9 C8 1.339 . S
C9 C10 1.439 . S
C9 H44 0.950 . S
C10 N6 1.383 . S
C10 C9 1.439 . S
C10 C39 1.392 . S
N11 Co5 2.008 . S
N11 C12 1.376 . S
N11 C15 1.374 . S
C12 N11 1.376 . S
C12 C13 1.443 . S
C12 C39 1.389 . S
C13 C12 1.443 . S
C13 C14 1.340 . S
C13 H45 0.951 . S
C14 C13 1.340 . S
C14 C15 1.439 . S
C14 H46 0.950 . S
C15 N11 1.374 . S
C15 C14 1.439 . S
C15 C40 1.395 . S
N16 Co5 1.995 . S
N16 C17 1.376 . S
N16 C20 1.383 . S
C17 N16 1.376 . S
C17 C18 1.446 . S
C17 C40 1.391 . S
C18 C17 1.446 . S
C18 C19 1.339 . S
C18 H47 0.949 . S
C19 C18 1.339 . S
C19 C20 1.439 . S
C19 H48 0.950 . S
C20 N16 1.383 . S
C20 C19 1.439 . S
C20 C38 1.392 . S
N21 Co5 2.282 . S
N21 C24 1.332 . S
N21 C26 1.332 . S
C22 C23 1.386 . S
C22 C25 1.388 . S
C23 C22 1.386 . S
C23 C24 1.382 . S
C23 H49 0.950 . S
C24 N21 1.332 . S
C24 C23 1.382 . S
C24 H35 0.952 . S
C25 C22 1.388 . S
C25 C26 1.382 . S
C25 H50 0.950 . S
C26 N21 1.332 . S
C26 C25 1.382 . S
C26 H36 0.948 . S
N27 Co5 2.282 . S
N27 C31 1.332 . S
N27 C32 1.332 . S
C28 C29 1.388 . S
C28 C32 1.382 . S
C28 H51 0.950 . S
C29 C28 1.388 . S
C29 C30 1.386 . S
C30 C29 1.386 . S
C30 C31 1.382 . S
C30 H52 0.950 . S
C31 N27 1.332 . S
C31 C30 1.382 . S
C31 H33 0.952 . S
C32 N27 1.332 . S
C32 C28 1.382 . S
C32 H34 0.948 . S
H33 C31 0.952 . S
H34 C32 0.948 . S
H35 C24 0.952 . S
H36 C26 0.948 . S
C37 C3 1.395 . S
C37 C7 1.391 . S
C38 C0 1.389 . S
C38 C20 1.392 . S
C39 C10 1.392 . S
C39 C12 1.389 . S
C40 C15 1.395 . S
C40 C17 1.391 . S
H41 C1 0.951 . S
H42 C2 0.950 . S
H43 C8 0.949 . S
H44 C9 0.950 . S
H45 C13 0.951 . S
H46 C14 0.950 . S
H47 C18 0.949 . S
H48 C19 0.950 . S
H49 C23 0.950 . S
H50 C25 0.950 . S
H51 C28 0.950 . S
H52 C30 0.950 . S
C53 C54 1.443 . S
C53 N57 1.376 . S
C53 C91 1.389 . S
C54 C53 1.443 . S
C54 C55 1.340 . S
C54 H94 0.951 . S
C55 C54 1.340 . S
C55 C56 1.439 . S
C55 H95 0.950 . S
C56 C55 1.439 . S
C56 N57 1.374 . S
C56 C90 1.395 . S
N57 C53 1.376 . S
N57 C56 1.374 . S
N57 Co58 2.008 . S
Co58 N57 2.008 . S
Co58 N59 1.995 . S
Co58 N64 2.008 . S
Co58 N69 1.995 . S
Co58 N74 2.282 . S
Co58 N80 2.282 . S
N59 Co58 1.995 . S
N59 C60 1.376 . S
N59 C63 1.383 . S
C60 N59 1.376 . S
C60 C61 1.446 . S
C60 C90 1.391 . S
C61 C60 1.446 . S
C61 C62 1.339 . S
C61 H96 0.949 . S
C62 C61 1.339 . S
C62 C63 1.439 . S
C62 H97 0.950 . S
C63 N59 1.383 . S
C63 C62 1.439 . S
C63 C92 1.392 . S
N64 Co58 2.008 . S
N64 C65 1.376 . S
N64 C68 1.374 . S
C65 N64 1.376 . S
C65 C66 1.443 . S
C65 C92 1.389 . S
C66 C65 1.443 . S
C66 C67 1.340 . S
C66 H98 0.951 . S
C67 C66 1.340 . S
C67 C68 1.439 . S
C67 H99 0.950 . S
C68 N64 1.374 . S
C68 C67 1.439 . S
C68 C93 1.395 . S
N69 Co58 1.995 . S
N69 C70 1.376 . S
N69 C73 1.383 . S
C70 N69 1.376 . S
C70 C71 1.446 . S
C70 C93 1.391 . S
C71 C70 1.446 . S
C71 C72 1.339 . S
C71 H100 0.949 . S
C72 C71 1.339 . S
C72 C73 1.439 . S
C72 H101 0.950 . S
C73 N69 1.383 . S
C73 C72 1.439 . S
C73 C91 1.392 . S
N74 Co58 2.282 . S
N74 C77 1.332 . S
N74 C79 1.332 . S
C75 C76 1.386 . S
C75 C78 1.388 . S
C76 C75 1.386 . S
C76 C77 1.382 . S
C76 H102 0.950 . S
C77 N74 1.332 . S
C77 C76 1.382 . S
C77 H88 0.952 . S
C78 C75 1.388 . S
C78 C79 1.382 . S
C78 H103 0.950 . S
C79 N74 1.332 . S
C79 C78 1.382 . S
C79 H89 0.948 . S
N80 Co58 2.282 . S
N80 C84 1.332 . S
N80 C85 1.332 . S
C81 C82 1.388 . S
C81 C85 1.382 . S
C81 H104 0.950 . S
C82 C81 1.388 . S
C82 C83 1.386 . S
C83 C82 1.386 . S
C83 C84 1.382 . S
C83 H105 0.950 . S
C84 N80 1.332 . S
C84 C83 1.382 . S
C84 H86 0.952 . S
C85 N80 1.332 . S
C85 C81 1.382 . S
C85 H87 0.948 . S
H86 C84 0.952 . S
H87 C85 0.948 . S
H88 C77 0.952 . S
H89 C79 0.948 . S
C90 C56 1.395 . S
C90 C60 1.391 . S
C91 C53 1.389 . S
C91 C73 1.392 . S
C92 C63 1.392 . S
C92 C65 1.389 . S
C93 C68 1.395 . S
C93 C70 1.391 . S
H94 C54 0.951 . S
H95 C55 0.950 . S
H96 C61 0.949 . S
H97 C62 0.950 . S
H98 C66 0.951 . S
H99 C67 0.950 . S
H100 C71 0.949 . S
H101 C72 0.950 . S
H102 C76 0.950 . S
H103 C78 0.950 . S
H104 C81 0.950 . S
H105 C83 0.950 . S
C106 C107 1.443 . S
C106 N110 1.376 . S
C106 C144 1.389 . S
C107 C106 1.443 . S
C107 C108 1.340 . S
C107 H147 0.951 . S
C108 C107 1.340 . S
C108 C109 1.439 . S
C108 H148 0.950 . S
C109 C108 1.439 . S
C109 N110 1.374 . S
C109 C143 1.395 . S
N110 C106 1.376 . S
N110 C109 1.374 . S
N110 Co111 2.008 . S
Co111 N110 2.008 . S
Co111 N112 1.995 . S
Co111 N117 2.008 . S
Co111 N122 1.995 . S
Co111 N127 2.282 . S
Co111 N133 2.282 . S
N112 Co111 1.995 . S
N112 C113 1.376 . S
N112 C116 1.383 . S
C113 N112 1.376 . S
C113 C114 1.446 . S
C113 C143 1.391 . S
C114 C113 1.446 . S
C114 C115 1.339 . S
C114 H149 0.949 . S
C115 C114 1.339 . S
C115 C116 1.439 . S
C115 H150 0.950 . S
C116 N112 1.383 . S
C116 C115 1.439 . S
C116 C145 1.392 . S
N117 Co111 2.008 . S
N117 C118 1.376 . S
N117 C121 1.374 . S
C118 N117 1.376 . S
C118 C119 1.443 . S
C118 C145 1.389 . S
C119 C118 1.443 . S
C119 C120 1.340 . S
C119 H151 0.951 . S
C120 C119 1.340 . S
C120 C121 1.439 . S
C120 H152 0.950 . S
C121 N117 1.374 . S
C121 C120 1.439 . S
C121 C146 1.395 . S
N122 Co111 1.995 . S
N122 C123 1.376 . S
N122 C126 1.383 . S
C123 N122 1.376 . S
C123 C124 1.446 . S
C123 C146 1.391 . S
C124 C123 1.446 . S
C124 C125 1.339 . S
C124 H153 0.949 . S
C125 C124 1.339 . S
C125 C126 1.439 . S
C125 H154 0.950 . S
C126 N122 1.383 . S
C126 C125 1.439 . S
C126 C144 1.392 . S
N127 Co111 2.282 . S
N127 C130 1.332 . S
N127 C132 1.332 . S
C128 C129 1.386 . S
C128 C131 1.388 . S
C129 C128 1.386 . S
C129 C130 1.382 . S
C129 H155 0.950 . S
C130 N127 1.332 . S
C130 C129 1.382 . S
C130 H141 0.952 . S
C131 C128 1.388 . S
C131 C132 1.382 . S
C131 H156 0.950 . S
C132 N127 1.332 . S
C132 C131 1.382 . S
C132 H142 0.948 . S
N133 Co111 2.282 . S
N133 C137 1.332 . S
N133 C138 1.332 . S
C134 C135 1.388 . S
C134 C138 1.382 . S
C134 H157 0.950 . S
C135 C134 1.388 . S
C135 C136 1.386 . S
C136 C135 1.386 . S
C136 C137 1.382 . S
C136 H158 0.950 . S
C137 N133 1.332 . S
C137 C136 1.382 . S
C137 H139 0.952 . S
C138 N133 1.332 . S
C138 C134 1.382 . S
C138 H140 0.948 . S
H139 C137 0.952 . S
H140 C138 0.948 . S
H141 C130 0.952 . S
H142 C132 0.948 . S
C143 C109 1.395 . S
C143 C113 1.391 . S
C144 C106 1.389 . S
C144 C126 1.392 . S
C145 C116 1.392 . S
C145 C118 1.389 . S
C146 C121 1.395 . S
C146 C123 1.391 . S
H147 C107 0.951 . S
H148 C108 0.950 . S
H149 C114 0.949 . S
H150 C115 0.950 . S
H151 C119 0.951 . S
H152 C120 0.950 . S
H153 C124 0.949 . S
H154 C125 0.950 . S
H155 C129 0.950 . S
H156 C131 0.950 . S
H157 C134 0.950 . S
H158 C136 0.950 . S
C159 C160 1.443 . S
C159 N163 1.376 . S
C159 C197 1.389 . S
C160 C159 1.443 . S
C160 C161 1.340 . S
C160 H200 0.951 . S
C161 C160 1.340 . S
C161 C162 1.439 . S
C161 H201 0.950 . S
C162 C161 1.439 . S
C162 N163 1.374 . S
C162 C196 1.395 . S
N163 C159 1.376 . S
N163 C162 1.374 . S
N163 Co164 2.008 . S
Co164 N163 2.008 . S
Co164 N165 1.995 . S
Co164 N170 2.008 . S
Co164 N175 1.995 . S
Co164 N180 2.282 . S
Co164 N186 2.282 . S
N165 Co164 1.995 . S
N165 C166 1.376 . S
N165 C169 1.383 . S
C166 N165 1.376 . S
C166 C167 1.446 . S
C166 C196 1.391 . S
C167 C166 1.446 . S
C167 C168 1.339 . S
C167 H202 0.949 . S
C168 C167 1.339 . S
C168 C169 1.439 . S
C168 H203 0.950 1_556 S
C169 N165 1.383 . S
C169 C168 1.439 . S
C169 C198 1.392 . S
N170 Co164 2.008 . S
N170 C171 1.376 . S
N170 C174 1.374 . S
C171 N170 1.376 . S
C171 C172 1.443 . S
C171 C198 1.389 . S
C172 C171 1.443 . S
C172 C173 1.340 . S
C172 H204 0.951 . S
C173 C172 1.340 . S
C173 C174 1.439 . S
C173 H205 0.950 . S
C174 N170 1.374 . S
C174 C173 1.439 . S
C174 C199 1.395 . S
N175 Co164 1.995 . S
N175 C176 1.376 . S
N175 C179 1.383 . S
C176 N175 1.376 . S
C176 C177 1.446 . S
C176 C199 1.391 . S
C177 C176 1.446 . S
C177 C178 1.339 . S
C177 H206 0.949 . S
C178 C177 1.339 . S
C178 C179 1.439 . S
C178 H207 0.950 . S
C179 N175 1.383 . S
C179 C178 1.439 . S
C179 C197 1.392 . S
N180 Co164 2.282 . S
N180 C183 1.332 . S
N180 C185 1.332 . S
C181 C182 1.386 . S
C181 C184 1.388 . S
C182 C181 1.386 . S
C182 C183 1.382 . S
C182 H208 0.950 . S
C183 N180 1.332 . S
C183 C182 1.382 . S
C183 H194 0.952 . S
C184 C181 1.388 . S
C184 C185 1.382 . S
C184 H209 0.950 . S
C185 N180 1.332 . S
C185 C184 1.382 . S
C185 H195 0.948 . S
N186 Co164 2.282 . S
N186 C190 1.332 . S
N186 C191 1.332 . S
C187 C188 1.388 . S
C187 C191 1.382 . S
C187 H210 0.950 . S
C188 C187 1.388 . S
C188 C189 1.386 . S
C189 C188 1.386 . S
C189 C190 1.382 . S
C189 H211 0.950 . S
C190 N186 1.332 . S
C190 C189 1.382 . S
C190 H192 0.952 . S
C191 N186 1.332 . S
C191 C187 1.382 . S
C191 H193 0.948 . S
H192 C190 0.952 . S
H193 C191 0.948 . S
H194 C183 0.952 . S
H195 C185 0.948 . S
C196 C162 1.395 . S
C196 C166 1.391 . S
C197 C159 1.389 . S
C197 C179 1.392 . S
C198 C169 1.392 . S
C198 C171 1.389 . S
C199 C174 1.395 . S
C199 C176 1.391 . S
H200 C160 0.951 . S
H201 C161 0.950 . S
H202 C167 0.949 . S
H203 C168 0.950 1_554 S
H204 C172 0.951 . S
H205 C173 0.950 . S
H206 C177 0.949 . S
H207 C178 0.950 . S
H208 C182 0.950 . S
H209 C184 0.950 . S
H210 C187 0.950 . S
H211 C189 0.950 . S
C212 C213 1.443 . S
C212 N216 1.376 . S
C212 C250 1.389 . S
C213 C212 1.443 . S
C213 C214 1.340 . S
C213 H253 0.951 . S
C214 C213 1.340 . S
C214 C215 1.439 . S
C214 H254 0.950 . S
C215 C214 1.439 . S
C215 N216 1.374 . S
C215 C249 1.395 . S
N216 C212 1.376 . S
N216 C215 1.374 . S
N216 Co217 2.008 . S
Co217 N216 2.008 . S
Co217 N218 1.995 . S
Co217 N223 2.008 . S
Co217 N228 1.995 . S
Co217 N233 2.282 . S
Co217 N239 2.282 . S
N218 Co217 1.995 . S
N218 C219 1.376 . S
N218 C222 1.383 . S
C219 N218 1.376 . S
C219 C220 1.446 . S
C219 C249 1.391 . S
C220 C219 1.446 . S
C220 C221 1.339 . S
C220 H255 0.949 . S
C221 C220 1.339 . S
C221 C222 1.439 . S
C221 H256 0.950 . S
C222 N218 1.383 . S
C222 C221 1.439 . S
C222 C251 1.392 . S
N223 Co217 2.008 . S
N223 C224 1.376 . S
N223 C227 1.374 . S
C224 N223 1.376 . S
C224 C225 1.443 . S
C224 C251 1.389 . S
C225 C224 1.443 . S
C225 C226 1.340 . S
C225 H257 0.951 . S
C226 C225 1.340 . S
C226 C227 1.439 . S
C226 H258 0.950 . S
C227 N223 1.374 . S
C227 C226 1.439 . S
C227 C252 1.395 . S
N228 Co217 1.995 . S
N228 C229 1.376 . S
N228 C232 1.383 . S
C229 N228 1.376 . S
C229 C230 1.446 1_554 S
C229 C252 1.391 . S
C230 C229 1.446 1_556 S
C230 C231 1.339 . S
C230 H259 0.949 . S
C231 C230 1.339 . S
C231 C232 1.439 1_556 S
C231 H260 0.950 . S
C232 N228 1.383 . S
C232 C231 1.439 1_554 S
C232 C250 1.392 . S
N233 Co217 2.282 . S
N233 C236 1.332 . S
N233 C238 1.332 . S
C234 C235 1.386 . S
C234 C237 1.388 . S
C235 C234 1.386 . S
C235 C236 1.382 . S
C235 H261 0.950 . S
C236 N233 1.332 . S
C236 C235 1.382 . S
C236 H247 0.952 . S
C237 C234 1.388 . S
C237 C238 1.382 . S
C237 H262 0.950 . S
C238 N233 1.332 . S
C238 C237 1.382 . S
C238 H248 0.948 . S
N239 Co217 2.282 . S
N239 C243 1.332 . S
N239 C244 1.332 . S
C240 C241 1.388 . S
C240 C244 1.382 . S
C240 H263 0.950 . S
C241 C240 1.388 . S
C241 C242 1.386 . S
C242 C241 1.386 . S
C242 C243 1.382 . S
C242 H264 0.950 . S
C243 N239 1.332 . S
C243 C242 1.382 . S
C243 H245 0.952 . S
C244 N239 1.332 . S
C244 C240 1.382 . S
C244 H246 0.948 . S
H245 C243 0.952 . S
H246 C244 0.948 . S
H247 C236 0.952 . S
H248 C238 0.948 . S
C249 C215 1.395 . S
C249 C219 1.391 . S
C250 C212 1.389 . S
C250 C232 1.392 . S
C251 C222 1.392 . S
C251 C224 1.389 . S
C252 C227 1.395 . S
C252 C229 1.391 . S
H253 C213 0.951 . S
H254 C214 0.950 . S
H255 C220 0.949 . S
H256 C221 0.950 . S
H257 C225 0.951 . S
H258 C226 0.950 . S
H259 C230 0.949 . S
H260 C231 0.950 . S
H261 C235 0.950 . S
H262 C237 0.950 . S
H263 C240 0.950 . S
H264 C242 0.950 . S
C265 C266 1.443 . S
C265 N269 1.376 . S
C265 C303 1.389 . S
C266 C265 1.443 . S
C266 C267 1.340 . S
C266 H306 0.951 . S
C267 C266 1.340 . S
C267 C268 1.439 . S
C267 H307 0.950 . S
C268 C267 1.439 . S
C268 N269 1.374 . S
C268 C302 1.395 . S
N269 C265 1.376 . S
N269 C268 1.374 . S
N269 Co270 2.008 . S
Co270 N269 2.008 . S
Co270 N271 1.995 . S
Co270 N276 2.008 . S
Co270 N281 1.995 . S
Co270 N286 2.282 . S
Co270 N292 2.282 . S
N271 Co270 1.995 . S
N271 C272 1.376 . S
N271 C275 1.383 . S
C272 N271 1.376 . S
C272 C273 1.446 . S
C272 C302 1.391 . S
C273 C272 1.446 . S
C273 C274 1.339 . S
C273 H308 0.949 . S
C274 C273 1.339 . S
C274 C275 1.439 . S
C274 H309 0.950 . S
C275 N271 1.383 . S
C275 C274 1.439 . S
C275 C304 1.392 . S
N276 Co270 2.008 . S
N276 C277 1.376 . S
N276 C280 1.374 . S
C277 N276 1.376 . S
C277 C278 1.443 . S
C277 C304 1.389 . S
C278 C277 1.443 . S
C278 C279 1.340 . S
C278 H310 0.951 . S
C279 C278 1.340 . S
C279 C280 1.439 . S
C279 H311 0.950 . S
C280 N276 1.374 . S
C280 C279 1.439 . S
C280 C305 1.395 . S
N281 Co270 1.995 . S
N281 C282 1.376 . S
N281 C285 1.383 . S
C282 N281 1.376 . S
C282 C283 1.446 . S
C282 C305 1.391 . S
C283 C282 1.446 . S
C283 C284 1.339 . S
C283 H312 0.949 . S
C284 C283 1.339 . S
C284 C285 1.439 . S
C284 H313 0.950 . S
C285 N281 1.383 . S
C285 C284 1.439 . S
C285 C303 1.392 . S
N286 Co270 2.282 . S
N286 C289 1.332 . S
N286 C291 1.332 . S
C287 C288 1.386 . S
C287 C290 1.388 . S
C288 C287 1.386 . S
C288 C289 1.382 . S
C288 H314 0.950 . S
C289 N286 1.332 . S
C289 C288 1.382 . S
C289 H300 0.952 . S
C290 C287 1.388 . S
C290 C291 1.382 . S
C290 H315 0.950 . S
C291 N286 1.332 . S
C291 C290 1.382 . S
C291 H301 0.948 . S
N292 Co270 2.282 . S
N292 C296 1.332 . S
N292 C297 1.332 . S
C293 C294 1.388 . S
C293 C297 1.382 . S
C293 H316 0.950 . S
C294 C293 1.388 . S
C294 C295 1.386 . S
C295 C294 1.386 . S
C295 C296 1.382 . S
C295 H317 0.950 . S
C296 N292 1.332 . S
C296 C295 1.382 . S
C296 H298 0.952 . S
C297 N292 1.332 . S
C297 C293 1.382 . S
C297 H299 0.948 . S
H298 C296 0.952 . S
H299 C297 0.948 . S
H300 C289 0.952 . S
H301 C291 0.948 . S
C302 C268 1.395 . S
C302 C272 1.391 . S
C303 C265 1.389 . S
C303 C285 1.392 . S
C304 C275 1.392 . S
C304 C277 1.389 . S
C305 C280 1.395 . S
C305 C282 1.391 . S
H306 C266 0.951 . S
H307 C267 0.950 . S
H308 C273 0.949 . S
H309 C274 0.950 . S
H310 C278 0.951 . S
H311 C279 0.950 . S
H312 C283 0.949 . S
H313 C284 0.950 . S
H314 C288 0.950 . S
H315 C290 0.950 . S
H316 C293 0.950 . S
H317 C295 0.950 . S
C318 C319 1.443 . S
C318 N322 1.376 . S
C318 C356 1.389 . S
C319 C318 1.443 . S
C319 C320 1.340 . S
C319 H359 0.951 . S
C320 C319 1.340 . S
C320 C321 1.439 . S
C320 H360 0.950 . S
C321 C320 1.439 . S
C321 N322 1.374 . S
C321 C355 1.395 . S
N322 C318 1.376 . S
N322 C321 1.374 . S
N322 Co323 2.008 . S
Co323 N322 2.008 . S
Co323 N324 1.995 . S
Co323 N329 2.008 . S
Co323 N334 1.995 . S
Co323 N339 2.282 . S
Co323 N345 2.282 . S
N324 Co323 1.995 . S
N324 C325 1.376 . S
N324 C328 1.383 . S
C325 N324 1.376 . S
C325 C326 1.446 . S
C325 C355 1.391 . S
C326 C325 1.446 . S
C326 C327 1.339 . S
C326 H361 0.949 . S
C327 C326 1.339 . S
C327 C328 1.439 . S
C327 H362 0.950 . S
C328 N324 1.383 . S
C328 C327 1.439 . S
C328 C357 1.392 . S
N329 Co323 2.008 . S
N329 C330 1.376 . S
N329 C333 1.374 . S
C330 N329 1.376 . S
C330 C331 1.443 . S
C330 C357 1.389 . S
C331 C330 1.443 . S
C331 C332 1.340 . S
C331 H363 0.951 . S
C332 C331 1.340 . S
C332 C333 1.439 . S
C332 H364 0.950 . S
C333 N329 1.374 . S
C333 C332 1.439 . S
C333 C358 1.395 . S
N334 Co323 1.995 . S
N334 C335 1.376 . S
N334 C338 1.383 . S
C335 N334 1.376 . S
C335 C336 1.446 . S
C335 C358 1.391 . S
C336 C335 1.446 . S
C336 C337 1.339 . S
C336 H365 0.949 . S
C337 C336 1.339 . S
C337 C338 1.439 . S
C337 H366 0.950 . S
C338 N334 1.383 . S
C338 C337 1.439 . S
C338 C356 1.392 . S
N339 Co323 2.282 . S
N339 C342 1.332 . S
N339 C344 1.332 . S
C340 C341 1.386 . S
C340 C343 1.388 . S
C341 C340 1.386 . S
C341 C342 1.382 . S
C341 H367 0.950 . S
C342 N339 1.332 . S
C342 C341 1.382 . S
C342 H353 0.952 . S
C343 C340 1.388 . S
C343 C344 1.382 . S
C343 H368 0.950 . S
C344 N339 1.332 . S
C344 C343 1.382 . S
C344 H354 0.948 . S
N345 Co323 2.282 . S
N345 C349 1.332 . S
N345 C350 1.332 . S
C346 C347 1.388 . S
C346 C350 1.382 . S
C346 H369 0.950 . S
C347 C346 1.388 . S
C347 C348 1.386 . S
C348 C347 1.386 . S
C348 C349 1.382 . S
C348 H370 0.950 . S
C349 N345 1.332 . S
C349 C348 1.382 . S
C349 H351 0.952 . S
C350 N345 1.332 . S
C350 C346 1.382 . S
C350 H352 0.948 . S
H351 C349 0.952 . S
H352 C350 0.948 . S
H353 C342 0.952 . S
H354 C344 0.948 . S
C355 C321 1.395 . S
C355 C325 1.391 . S
C356 C318 1.389 . S
C356 C338 1.392 . S
C357 C328 1.392 . S
C357 C330 1.389 . S
C358 C333 1.395 . S
C358 C335 1.391 . S
H359 C319 0.951 . S
H360 C320 0.950 . S
H361 C326 0.949 . S
H362 C327 0.950 . S
H363 C331 0.951 . S
H364 C332 0.950 . S
H365 C336 0.949 . S
H366 C337 0.950 . S
H367 C341 0.950 . S
H368 C343 0.950 . S
H369 C346 0.950 . S
H370 C348 0.950 . S
C371 C372 1.443 . S
C371 N375 1.376 . S
C371 C409 1.389 . S
C372 C371 1.443 . S
C372 C373 1.340 . S
C372 H412 0.951 . S
C373 C372 1.340 . S
C373 C374 1.439 . S
C373 H413 0.950 . S
C374 C373 1.439 . S
C374 N375 1.374 . S
C374 C408 1.395 . S
N375 C371 1.376 . S
N375 C374 1.374 . S
N375 Co376 2.008 . S
Co376 N375 2.008 . S
Co376 N377 1.995 . S
Co376 N382 2.008 . S
Co376 N387 1.995 . S
Co376 N392 2.282 . S
Co376 N398 2.282 . S
N377 Co376 1.995 . S
N377 C378 1.376 . S
N377 C381 1.383 . S
C378 N377 1.376 . S
C378 C379 1.446 . S
C378 C408 1.391 . S
C379 C378 1.446 . S
C379 C380 1.339 . S
C379 H414 0.949 . S
C380 C379 1.339 . S
C380 C381 1.439 . S
C380 H415 0.950 . S
C381 N377 1.383 . S
C381 C380 1.439 . S
C381 C410 1.392 . S
N382 Co376 2.008 . S
N382 C383 1.376 . S
N382 C386 1.374 . S
C383 N382 1.376 . S
C383 C384 1.443 . S
C383 C410 1.389 . S
C384 C383 1.443 . S
C384 C385 1.340 . S
C384 H416 0.951 . S
C385 C384 1.340 . S
C385 C386 1.439 . S
C385 H417 0.950 . S
C386 N382 1.374 . S
C386 C385 1.439 . S
C386 C411 1.395 . S
N387 Co376 1.995 . S
N387 C388 1.376 . S
N387 C391 1.383 . S
C388 N387 1.376 . S
C388 C389 1.446 . S
C388 C411 1.391 . S
C389 C388 1.446 . S
C389 C390 1.339 . S
C389 H418 0.949 . S
C390 C389 1.339 . S
C390 C391 1.439 . S
C390 H419 0.950 . S
C391 N387 1.383 . S
C391 C390 1.439 . S
C391 C409 1.392 . S
N392 Co376 2.282 . S
N392 C395 1.332 . S
N392 C397 1.332 . S
C393 C394 1.386 . S
C393 C396 1.388 . S
C394 C393 1.386 . S
C394 C395 1.382 . S
C394 H420 0.950 . S
C395 N392 1.332 . S
C395 C394 1.382 . S
C395 H406 0.952 . S
C396 C393 1.388 . S
C396 C397 1.382 . S
C396 H421 0.950 . S
C397 N392 1.332 . S
C397 C396 1.382 . S
C397 H407 0.948 . S
N398 Co376 2.282 . S
N398 C402 1.332 . S
N398 C403 1.332 . S
C399 C400 1.388 . S
C399 C403 1.382 . S
C399 H422 0.950 . S
C400 C399 1.388 . S
C400 C401 1.386 . S
C401 C400 1.386 . S
C401 C402 1.382 . S
C401 H423 0.950 . S
C402 N398 1.332 . S
C402 C401 1.382 . S
C402 H404 0.952 . S
C403 N398 1.332 . S
C403 C399 1.382 . S
C403 H405 0.948 . S
H404 C402 0.952 . S
H405 C403 0.948 . S
H406 C395 0.952 . S
H407 C397 0.948 . S
C408 C374 1.395 . S
C408 C378 1.391 . S
C409 C371 1.389 . S
C409 C391 1.392 . S
C410 C381 1.392 . S
C410 C383 1.389 . S
C411 C386 1.395 . S
C411 C388 1.391 . S
H412 C372 0.951 . S
H413 C373 0.950 . S
H414 C379 0.949 . S
H415 C380 0.950 . S
H416 C384 0.951 . S
H417 C385 0.950 . S
H418 C389 0.949 . S
H419 C390 0.950 . S
H420 C394 0.950 . S
H421 C396 0.950 . S
H422 C399 0.950 . S
H423 C401 0.950 . S
C424 C425 1.443 . S
C424 N428 1.376 . S
C424 C462 1.389 . S
C425 C424 1.443 . S
C425 C426 1.340 . S
C425 H465 0.951 . S
C426 C425 1.340 . S
C426 C427 1.439 . S
C426 H466 0.950 . S
C427 C426 1.439 . S
C427 N428 1.374 . S
C427 C461 1.395 . S
N428 C424 1.376 . S
N428 C427 1.374 . S
N428 Co429 2.008 . S
Co429 N428 2.008 . S
Co429 N430 1.995 . S
Co429 N435 2.008 . S
Co429 N440 1.995 . S
Co429 N445 2.282 . S
Co429 N451 2.282 . S
N430 Co429 1.995 . S
N430 C431 1.376 . S
N430 C434 1.383 . S
C431 N430 1.376 . S
C431 C432 1.446 . S
C431 C461 1.391 . S
C432 C431 1.446 . S
C432 C433 1.339 . S
C432 H467 0.949 . S
C433 C432 1.339 . S
C433 C434 1.439 . S
C433 H468 0.950 . S
C434 N430 1.383 . S
C434 C433 1.439 . S
C434 C463 1.392 . S
N435 Co429 2.008 . S
N435 C436 1.376 . S
N435 C439 1.374 . S
C436 N435 1.376 . S
C436 C437 1.443 . S
C436 C463 1.389 . S
C437 C436 1.443 . S
C437 C438 1.340 . S
C437 H469 0.951 . S
C438 C437 1.340 . S
C438 C439 1.439 . S
C438 H470 0.950 . S
C439 N435 1.374 . S
C439 C438 1.439 . S
C439 C464 1.395 . S
N440 Co429 1.995 . S
N440 C441 1.376 . S
N440 C444 1.383 . S
C441 N440 1.376 . S
C441 C442 1.446 . S
C441 C464 1.391 . S
C442 C441 1.446 . S
C442 C443 1.339 . S
C442 H471 0.949 . S
C443 C442 1.339 . S
C443 C444 1.439 . S
C443 H472 0.950 . S
C444 N440 1.383 . S
C444 C443 1.439 . S
C444 C462 1.392 . S
N445 Co429 2.282 . S
N445 C448 1.332 . S
N445 C450 1.332 . S
C446 C447 1.386 . S
C446 C449 1.388 . S
C447 C446 1.386 . S
C447 C448 1.382 . S
C447 H473 0.950 . S
C448 N445 1.332 . S
C448 C447 1.382 . S
C448 H459 0.952 . S
C449 C446 1.388 . S
C449 C450 1.382 . S
C449 H474 0.950 . S
C450 N445 1.332 . S
C450 C449 1.382 . S
C450 H460 0.948 . S
N451 Co429 2.282 . S
N451 C455 1.332 . S
N451 C456 1.332 . S
C452 C453 1.388 . S
C452 C456 1.382 . S
C452 H475 0.950 . S
C453 C452 1.388 . S
C453 C454 1.386 . S
C454 C453 1.386 . S
C454 C455 1.382 . S
C454 H476 0.950 . S
C455 N451 1.332 . S
C455 C454 1.382 . S
C455 H457 0.952 . S
C456 N451 1.332 . S
C456 C452 1.382 . S
C456 H458 0.948 . S
H457 C455 0.952 . S
H458 C456 0.948 . S
H459 C448 0.952 . S
H460 C450 0.948 . S
C461 C427 1.395 . S
C461 C431 1.391 . S
C462 C424 1.389 . S
C462 C444 1.392 . S
C463 C434 1.392 . S
C463 C436 1.389 . S
C464 C439 1.395 . S
C464 C441 1.391 . S
H465 C425 0.951 . S
H466 C426 0.950 . S
H467 C432 0.949 . S
H468 C433 0.950 . S
H469 C437 0.951 . S
H470 C438 0.950 . S
H471 C442 0.949 . S
H472 C443 0.950 . S
H473 C447 0.950 . S
H474 C449 0.950 . S
H475 C452 0.950 . S
H476 C454 0.950 . S
C477 C478 1.443 . S
C477 N481 1.376 . S
C477 C515 1.389 . S
C478 C477 1.443 . S
C478 C479 1.340 . S
C478 H518 0.951 . S
C479 C478 1.340 . S
C479 C480 1.439 . S
C479 H519 0.950 . S
C480 C479 1.439 . S
C480 N481 1.374 . S
C480 C514 1.395 . S
N481 C477 1.376 . S
N481 C480 1.374 . S
N481 Co482 2.008 . S
Co482 N481 2.008 . S
Co482 N483 1.995 . S
Co482 N488 2.008 . S
Co482 N493 1.995 . S
Co482 N498 2.282 . S
Co482 N504 2.282 . S
N483 Co482 1.995 . S
N483 C484 1.376 . S
N483 C487 1.383 . S
C484 N483 1.376 . S
C484 C485 1.446 . S
C484 C514 1.391 . S
C485 C484 1.446 . S
C485 C486 1.339 . S
C485 H520 0.949 . S
C486 C485 1.339 . S
C486 C487 1.439 . S
C486 H521 0.950 . S
C487 N483 1.383 . S
C487 C486 1.439 . S
C487 C516 1.392 . S
N488 Co482 2.008 . S
N488 C489 1.376 . S
N488 C492 1.374 . S
C489 N488 1.376 . S
C489 C490 1.443 . S
C489 C516 1.389 . S
C490 C489 1.443 . S
C490 C491 1.340 . S
C490 H522 0.951 . S
C491 C490 1.340 . S
C491 C492 1.439 . S
C491 H523 0.950 . S
C492 N488 1.374 . S
C492 C491 1.439 . S
C492 C517 1.395 . S
N493 Co482 1.995 . S
N493 C494 1.376 . S
N493 C497 1.383 . S
C494 N493 1.376 . S
C494 C495 1.446 1_556 S
C494 C517 1.391 . S
C495 C494 1.446 1_554 S
C495 C496 1.339 . S
C495 H524 0.949 . S
C496 C495 1.339 . S
C496 C497 1.439 1_554 S
C496 H525 0.950 . S
C497 N493 1.383 . S
C497 C496 1.439 1_556 S
C497 C515 1.392 . S
N498 Co482 2.282 . S
N498 C501 1.332 . S
N498 C503 1.332 . S
C499 C500 1.386 . S
C499 C502 1.388 . S
C500 C499 1.386 . S
C500 C501 1.382 . S
C500 H526 0.950 . S
C501 N498 1.332 . S
C501 C500 1.382 . S
C501 H512 0.952 . S
C502 C499 1.388 . S
C502 C503 1.382 . S
C502 H527 0.950 . S
C503 N498 1.332 . S
C503 C502 1.382 . S
C503 H513 0.948 . S
N504 Co482 2.282 . S
N504 C508 1.332 . S
N504 C509 1.332 . S
C505 C506 1.388 . S
C505 C509 1.382 . S
C505 H528 0.950 . S
C506 C505 1.388 . S
C506 C507 1.386 . S
C507 C506 1.386 . S
C507 C508 1.382 . S
C507 H529 0.950 . S
C508 N504 1.332 . S
C508 C507 1.382 . S
C508 H510 0.952 . S
C509 N504 1.332 . S
C509 C505 1.382 . S
C509 H511 0.948 . S
H510 C508 0.952 . S
H511 C509 0.948 . S
H512 C501 0.952 . S
H513 C503 0.948 . S
C514 C480 1.395 . S
C514 C484 1.391 . S
C515 C477 1.389 . S
C515 C497 1.392 . S
C516 C487 1.392 . S
C516 C489 1.389 . S
C517 C492 1.395 . S
C517 C494 1.391 . S
H518 C478 0.951 . S
H519 C479 0.950 . S
H520 C485 0.949 . S
H521 C486 0.950 . S
H522 C490 0.951 . S
H523 C491 0.950 . S
H524 C495 0.949 . S
H525 C496 0.950 . S
H526 C500 0.950 . S
H527 C502 0.950 . S
H528 C505 0.950 . S
H529 C507 0.950 . S
C530 C531 1.443 . S
C530 N534 1.376 . S
C530 C568 1.389 . S
C531 C530 1.443 . S
C531 C532 1.340 . S
C531 H571 0.951 . S
C532 C531 1.340 . S
C532 C533 1.439 . S
C532 H572 0.950 . S
C533 C532 1.439 . S
C533 N534 1.374 . S
C533 C567 1.395 . S
N534 C530 1.376 . S
N534 C533 1.374 . S
N534 Co535 2.008 . S
Co535 N534 2.008 . S
Co535 N536 1.995 . S
Co535 N541 2.008 . S
Co535 N546 1.995 . S
Co535 N551 2.282 . S
Co535 N557 2.282 . S
N536 Co535 1.995 . S
N536 C537 1.376 . S
N536 C540 1.383 . S
C537 N536 1.376 . S
C537 C538 1.446 . S
C537 C567 1.391 . S
C538 C537 1.446 . S
C538 C539 1.339 . S
C538 H573 0.949 . S
C539 C538 1.339 . S
C539 C540 1.439 . S
C539 H574 0.950 1_554 S
C540 N536 1.383 . S
C540 C539 1.439 . S
C540 C569 1.392 . S
N541 Co535 2.008 . S
N541 C542 1.376 . S
N541 C545 1.374 . S
C542 N541 1.376 . S
C542 C543 1.443 . S
C542 C569 1.389 . S
C543 C542 1.443 . S
C543 C544 1.340 . S
C543 H575 0.951 . S
C544 C543 1.340 . S
C544 C545 1.439 . S
C544 H576 0.950 . S
C545 N541 1.374 . S
C545 C544 1.439 . S
C545 C570 1.395 . S
N546 Co535 1.995 . S
N546 C547 1.376 . S
N546 C550 1.383 . S
C547 N546 1.376 . S
C547 C548 1.446 . S
C547 C570 1.391 . S
C548 C547 1.446 . S
C548 C549 1.339 . S
C548 H577 0.949 . S
C549 C548 1.339 . S
C549 C550 1.439 . S
C549 H578 0.950 . S
C550 N546 1.383 . S
C550 C549 1.439 . S
C550 C568 1.392 . S
N551 Co535 2.282 . S
N551 C554 1.332 . S
N551 C556 1.332 . S
C552 C553 1.386 . S
C552 C555 1.388 . S
C553 C552 1.386 . S
C553 C554 1.382 . S
C553 H579 0.950 . S
C554 N551 1.332 . S
C554 C553 1.382 . S
C554 H565 0.952 . S
C555 C552 1.388 . S
C555 C556 1.382 . S
C555 H580 0.950 . S
C556 N551 1.332 . S
C556 C555 1.382 . S
C556 H566 0.948 . S
N557 Co535 2.282 . S
N557 C561 1.332 . S
N557 C562 1.332 . S
C558 C559 1.388 . S
C558 C562 1.382 . S
C558 H581 0.950 . S
C559 C558 1.388 . S
C559 C560 1.386 . S
C560 C559 1.386 . S
C560 C561 1.382 . S
C560 H582 0.950 . S
C561 N557 1.332 . S
C561 C560 1.382 . S
C561 H563 0.952 . S
C562 N557 1.332 . S
C562 C558 1.382 . S
C562 H564 0.948 . S
H563 C561 0.952 . S
H564 C562 0.948 . S
H565 C554 0.952 . S
H566 C556 0.948 . S
C567 C533 1.395 . S
C567 C537 1.391 . S
C568 C530 1.389 . S
C568 C550 1.392 . S
C569 C540 1.392 . S
C569 C542 1.389 . S
C570 C545 1.395 . S
C570 C547 1.391 . S
H571 C531 0.951 . S
H572 C532 0.950 . S
H573 C538 0.949 . S
H574 C539 0.950 1_556 S
H575 C543 0.951 . S
H576 C544 0.950 . S
H577 C548 0.949 . S
H578 C549 0.950 . S
H579 C553 0.950 . S
H580 C555 0.950 . S
H581 C558 0.950 . S
H582 C560 0.950 . S
C583 C584 1.443 . S
C583 N587 1.376 . S
C583 C621 1.389 . S
C584 C583 1.443 . S
C584 C585 1.340 . S
C584 H624 0.951 . S
C585 C584 1.340 . S
C585 C586 1.439 . S
C585 H625 0.950 . S
C586 C585 1.439 . S
C586 N587 1.374 . S
C586 C620 1.395 . S
N587 C583 1.376 . S
N587 C586 1.374 . S
N587 Co588 2.008 . S
Co588 N587 2.008 . S
Co588 N589 1.995 . S
Co588 N594 2.008 . S
Co588 N599 1.995 . S
Co588 N604 2.282 . S
Co588 N610 2.282 . S
N589 Co588 1.995 . S
N589 C590 1.376 . S
N589 C593 1.383 . S
C590 N589 1.376 . S
C590 C591 1.446 . S
C590 C620 1.391 . S
C591 C590 1.446 . S
C591 C592 1.339 . S
C591 H626 0.949 . S
C592 C591 1.339 . S
C592 C593 1.439 . S
C592 H627 0.950 . S
C593 N589 1.383 . S
C593 C592 1.439 . S
C593 C622 1.392 . S
N594 Co588 2.008 . S
N594 C595 1.376 . S
N594 C598 1.374 . S
C595 N594 1.376 . S
C595 C596 1.443 . S
C595 C622 1.389 . S
C596 C595 1.443 . S
C596 C597 1.340 . S
C596 H628 0.951 . S
C597 C596 1.340 . S
C597 C598 1.439 . S
C597 H629 0.950 . S
C598 N594 1.374 . S
C598 C597 1.439 . S
C598 C623 1.395 . S
N599 Co588 1.995 . S
N599 C600 1.376 . S
N599 C603 1.383 . S
C600 N599 1.376 . S
C600 C601 1.446 . S
C600 C623 1.391 . S
C601 C600 1.446 . S
C601 C602 1.339 . S
C601 H630 0.949 . S
C602 C601 1.339 . S
C602 C603 1.439 . S
C602 H631 0.950 . S
C603 N599 1.383 . S
C603 C602 1.439 . S
C603 C621 1.392 . S
N604 Co588 2.282 . S
N604 C607 1.332 . S
N604 C609 1.332 . S
C605 C606 1.386 . S
C605 C608 1.388 . S
C606 C605 1.386 . S
C606 C607 1.382 . S
C606 H632 0.950 . S
C607 N604 1.332 . S
C607 C606 1.382 . S
C607 H618 0.952 . S
C608 C605 1.388 . S
C608 C609 1.382 . S
C608 H633 0.950 . S
C609 N604 1.332 . S
C609 C608 1.382 . S
C609 H619 0.948 . S
N610 Co588 2.282 . S
N610 C614 1.332 . S
N610 C615 1.332 . S
C611 C612 1.388 . S
C611 C615 1.382 . S
C611 H634 0.950 . S
C612 C611 1.388 . S
C612 C613 1.386 . S
C613 C612 1.386 . S
C613 C614 1.382 . S
C613 H635 0.950 . S
C614 N610 1.332 . S
C614 C613 1.382 . S
C614 H616 0.952 . S
C615 N610 1.332 . S
C615 C611 1.382 . S
C615 H617 0.948 . S
H616 C614 0.952 . S
H617 C615 0.948 . S
H618 C607 0.952 . S
H619 C609 0.948 . S
C620 C586 1.395 . S
C620 C590 1.391 . S
C621 C583 1.389 . S
C621 C603 1.392 . S
C622 C593 1.392 . S
C622 C595 1.389 . S
C623 C598 1.395 . S
C623 C600 1.391 . S
H624 C584 0.951 . S
H625 C585 0.950 . S
H626 C591 0.949 . S
H627 C592 0.950 . S
H628 C596 0.951 . S
H629 C597 0.950 . S
H630 C601 0.949 . S
H631 C602 0.950 . S
H632 C606 0.950 . S
H633 C608 0.950 . S
H634 C611 0.950 . S
H635 C613 0.950 . S
C636 C637 1.349 . S
C636 C638 1.327 . S
C636 H661 0.950 . S
C637 C636 1.349 . S
C637 C653 1.349 . S
C638 C636 1.327 . S
C638 C657 1.429 . S
C638 H662 0.950 . S
C639 C656 1.574 . S
C639 C658 1.368 . S
C639 H663 0.949 . S
H640 C644 0.949 . S
C641 C642 1.349 . S
C641 C643 1.327 . S
C641 H664 0.950 . S
C642 C641 1.349 . S
C642 C654 1.349 . S
C643 C641 1.327 . S
C643 C659 1.429 . S
C643 H665 0.950 . S
C644 H640 0.949 . S
C644 C652 1.574 . S
C644 C660 1.368 . S
H645 C653 0.950 . S
H646 C651 0.950 . S
H647 C652 0.949 . S
H648 C654 0.950 . S
H649 C655 0.950 . S
H650 C656 0.949 . S
C651 H646 0.950 . S
C651 C653 1.327 . S
C651 C657 1.429 . S
C652 C644 1.574 . S
C652 H647 0.949 . S
C652 C658 1.368 . S
C653 C637 1.349 . S
C653 H645 0.950 . S
C653 C651 1.327 . S
C654 C642 1.349 . S
C654 H648 0.950 . S
C654 C655 1.327 . S
C655 H649 0.950 . S
C655 C654 1.327 . S
C655 C659 1.429 . S
C656 C639 1.574 . S
C656 H650 0.949 . S
C656 C660 1.368 . S
C657 C638 1.429 . S
C657 C651 1.429 . S
C657 C658 1.523 . S
C658 C639 1.368 . S
C658 C652 1.368 . S
C658 C657 1.523 . S
C659 C643 1.429 . S
C659 C655 1.429 . S
C659 C660 1.523 . S
C660 C644 1.368 . S
C660 C656 1.368 . S
C660 C659 1.523 . S
H661 C636 0.950 . S
H662 C638 0.950 . S
H663 C639 0.949 . S
H664 C641 0.950 . S
H665 C643 0.950 . S
C666 C667 1.349 . S
C666 C668 1.327 . S
C666 H691 0.950 . S
C667 C666 1.349 . S
C667 C683 1.349 . S
C668 C666 1.327 . S
C668 C687 1.429 . S
C668 H692 0.950 . S
C669 C686 1.574 . S
C669 C688 1.368 . S
C669 H693 0.949 . S
H670 C674 0.949 . S
C671 C672 1.349 . S
C671 C673 1.327 . S
C671 H694 0.950 . S
C672 C671 1.349 . S
C672 C684 1.349 . S
C673 C671 1.327 . S
C673 C689 1.429 . S
C673 H695 0.950 . S
C674 H670 0.949 . S
C674 C682 1.574 . S
C674 C690 1.368 . S
H675 C683 0.950 . S
H676 C681 0.950 . S
H677 C682 0.949 . S
H678 C684 0.950 . S
H679 C685 0.950 . S
H680 C686 0.949 . S
C681 H676 0.950 . S
C681 C683 1.327 . S
C681 C687 1.429 . S
C682 C674 1.574 . S
C682 H677 0.949 . S
C682 C688 1.368 . S
C683 C667 1.349 . S
C683 H675 0.950 . S
C683 C681 1.327 . S
C684 C672 1.349 . S
C684 H678 0.950 . S
C684 C685 1.327 . S
C685 H679 0.950 . S
C685 C684 1.327 . S
C685 C689 1.429 . S
C686 C669 1.574 . S
C686 H680 0.949 . S
C686 C690 1.368 . S
C687 C668 1.429 . S
C687 C681 1.429 . S
C687 C688 1.523 . S
C688 C669 1.368 . S
C688 C682 1.368 . S
C688 C687 1.523 . S
C689 C673 1.429 . S
C689 C685 1.429 . S
C689 C690 1.523 . S
C690 C674 1.368 . S
C690 C686 1.368 . S
C690 C689 1.523 . S
H691 C666 0.950 . S
H692 C668 0.950 . S
H693 C669 0.949 . S
H694 C671 0.950 . S
H695 C673 0.950 . S
C696 C697 1.349 . S
C696 C698 1.327 . S
C696 H721 0.950 . S
C697 C696 1.349 . S
C697 C713 1.349 . S
C698 C696 1.327 . S
C698 C717 1.429 . S
C698 H722 0.950 . S
C699 C716 1.574 . S
C699 C718 1.368 . S
C699 H723 0.949 . S
H700 C704 0.949 . S
C701 C702 1.349 . S
C701 C703 1.327 . S
C701 H724 0.950 . S
C702 C701 1.349 . S
C702 C714 1.349 . S
C703 C701 1.327 . S
C703 C719 1.429 . S
C703 H725 0.950 . S
C704 H700 0.949 . S
C704 C712 1.574 . S
C704 C720 1.368 . S
H705 C713 0.950 . S
H706 C711 0.950 . S
H707 C712 0.949 . S
H708 C714 0.950 . S
H709 C715 0.950 . S
H710 C716 0.949 . S
C711 H706 0.950 . S
C711 C713 1.327 . S
C711 C717 1.429 . S
C712 C704 1.574 . S
C712 H707 0.949 . S
C712 C718 1.368 . S
C713 C697 1.349 . S
C713 H705 0.950 . S
C713 C711 1.327 . S
C714 C702 1.349 . S
C714 H708 0.950 . S
C714 C715 1.327 . S
C715 H709 0.950 . S
C715 C714 1.327 . S
C715 C719 1.429 . S
C716 C699 1.574 . S
C716 H710 0.949 . S
C716 C720 1.368 . S
C717 C698 1.429 . S
C717 C711 1.429 . S
C717 C718 1.523 . S
C718 C699 1.368 . S
C718 C712 1.368 . S
C718 C717 1.523 . S
C719 C703 1.429 . S
C719 C715 1.429 . S
C719 C720 1.523 . S
C720 C704 1.368 . S
C720 C716 1.368 . S
C720 C719 1.523 . S
H721 C696 0.950 . S
H722 C698 0.950 . S
H723 C699 0.949 . S
H724 C701 0.950 . S
H725 C703 0.950 . S
C726 C727 1.349 . S
C726 C728 1.327 . S
C726 H751 0.950 . S
C727 C726 1.349 . S
C727 C743 1.349 . S
C728 C726 1.327 . S
C728 C747 1.429 . S
C728 H752 0.950 . S
C729 C746 1.574 . S
C729 C748 1.368 . S
C729 H753 0.949 . S
H730 C734 0.949 . S
C731 C732 1.349 . S
C731 C733 1.327 . S
C731 H754 0.950 . S
C732 C731 1.349 . S
C732 C744 1.349 . S
C733 C731 1.327 . S
C733 C749 1.429 . S
C733 H755 0.950 . S
C734 H730 0.949 . S
C734 C742 1.574 . S
C734 C750 1.368 . S
H735 C743 0.950 . S
H736 C741 0.950 . S
H737 C742 0.949 . S
H738 C744 0.950 . S
H739 C745 0.950 . S
H740 C746 0.949 . S
C741 H736 0.950 . S
C741 C743 1.327 . S
C741 C747 1.429 . S
C742 C734 1.574 . S
C742 H737 0.949 . S
C742 C748 1.368 . S
C743 C727 1.349 . S
C743 H735 0.950 . S
C743 C741 1.327 . S
C744 C732 1.349 . S
C744 H738 0.950 . S
C744 C745 1.327 . S
C745 H739 0.950 . S
C745 C744 1.327 . S
C745 C749 1.429 . S
C746 C729 1.574 . S
C746 H740 0.949 . S
C746 C750 1.368 . S
C747 C728 1.429 . S
C747 C741 1.429 . S
C747 C748 1.523 . S
C748 C729 1.368 . S
C748 C742 1.368 . S
C748 C747 1.523 . S
C749 C733 1.429 . S
C749 C745 1.429 . S
C749 C750 1.523 . S
C750 C734 1.368 . S
C750 C746 1.368 . S
C750 C749 1.523 . S
H751 C726 0.950 . S
H752 C728 0.950 . S
H753 C729 0.949 . S
H754 C731 0.950 . S
H755 C733 0.950 . S
C756 C757 1.349 . S
C756 C758 1.327 . S
C756 H781 0.950 . S
C757 C756 1.349 . S
C757 C773 1.349 . S
C758 C756 1.327 . S
C758 C777 1.429 . S
C758 H782 0.950 . S
C759 C776 1.574 . S
C759 C778 1.368 . S
C759 H783 0.949 . S
H760 C764 0.949 . S
C761 C762 1.349 . S
C761 C763 1.327 . S
C761 H784 0.950 . S
C762 C761 1.349 . S
C762 C774 1.349 . S
C763 C761 1.327 . S
C763 C779 1.429 . S
C763 H785 0.950 . S
C764 H760 0.949 . S
C764 C772 1.574 . S
C764 C780 1.368 . S
H765 C773 0.950 . S
H766 C771 0.950 . S
H767 C772 0.949 . S
H768 C774 0.950 . S
H769 C775 0.950 . S
H770 C776 0.949 . S
C771 H766 0.950 . S
C771 C773 1.327 . S
C771 C777 1.429 . S
C772 C764 1.574 . S
C772 H767 0.949 . S
C772 C778 1.368 . S
C773 C757 1.349 . S
C773 H765 0.950 . S
C773 C771 1.327 . S
C774 C762 1.349 . S
C774 H768 0.950 . S
C774 C775 1.327 . S
C775 H769 0.950 . S
C775 C774 1.327 . S
C775 C779 1.429 . S
C776 C759 1.574 . S
C776 H770 0.949 . S
C776 C780 1.368 . S
C777 C758 1.429 . S
C777 C771 1.429 . S
C777 C778 1.523 . S
C778 C759 1.368 . S
C778 C772 1.368 . S
C778 C777 1.523 . S
C779 C763 1.429 . S
C779 C775 1.429 . S
C779 C780 1.523 . S
C780 C764 1.368 . S
C780 C776 1.368 . S
C780 C779 1.523 . S
H781 C756 0.950 . S
H782 C758 0.950 . S
H783 C759 0.949 . S
H784 C761 0.950 . S
H785 C763 0.950 . S
C786 C787 1.349 . S
C786 C788 1.327 . S
C786 H811 0.950 . S
C787 C786 1.349 . S
C787 C803 1.349 . S
C788 C786 1.327 . S
C788 C807 1.429 . S
C788 H812 0.950 . S
C789 C806 1.574 . S
C789 C808 1.368 . S
C789 H813 0.949 . S
H790 C794 0.949 . S
C791 C792 1.349 . S
C791 C793 1.327 . S
C791 H814 0.950 . S
C792 C791 1.349 . S
C792 C804 1.349 . S
C793 C791 1.327 . S
C793 C809 1.429 . S
C793 H815 0.950 . S
C794 H790 0.949 . S
C794 C802 1.574 . S
C794 C810 1.368 . S
H795 C803 0.950 . S
H796 C801 0.950 . S
H797 C802 0.949 . S
H798 C804 0.950 . S
H799 C805 0.950 . S
H800 C806 0.949 . S
C801 H796 0.950 . S
C801 C803 1.327 . S
C801 C807 1.429 . S
C802 C794 1.574 . S
C802 H797 0.949 . S
C802 C808 1.368 . S
C803 C787 1.349 . S
C803 H795 0.950 . S
C803 C801 1.327 . S
C804 C792 1.349 . S
C804 H798 0.950 . S
C804 C805 1.327 . S
C805 H799 0.950 . S
C805 C804 1.327 . S
C805 C809 1.429 . S
C806 C789 1.574 . S
C806 H800 0.949 . S
C806 C810 1.368 . S
C807 C788 1.429 . S
C807 C801 1.429 . S
C807 C808 1.523 . S
C808 C789 1.368 . S
C808 C802 1.368 . S
C808 C807 1.523 . S
C809 C793 1.429 . S
C809 C805 1.429 . S
C809 C810 1.523 . S
C810 C794 1.368 . S
C810 C806 1.368 . S
C810 C809 1.523 . S
H811 C786 0.950 . S
H812 C788 0.950 . S
H813 C789 0.949 . S
H814 C791 0.950 . S
H815 C793 0.950 . S
C816 C817 1.349 . S
C816 C818 1.327 . S
C816 H841 0.950 . S
C817 C816 1.349 . S
C817 C833 1.349 . S
C818 C816 1.327 . S
C818 C837 1.429 . S
C818 H842 0.950 . S
C819 C836 1.574 . S
C819 C838 1.368 . S
C819 H843 0.949 . S
H820 C824 0.949 . S
C821 C822 1.349 . S
C821 C823 1.327 . S
C821 H844 0.950 . S
C822 C821 1.349 . S
C822 C834 1.349 . S
C823 C821 1.327 . S
C823 C839 1.429 . S
C823 H845 0.950 . S
C824 H820 0.949 . S
C824 C832 1.574 . S
C824 C840 1.368 . S
H825 C833 0.950 . S
H826 C831 0.950 . S
H827 C832 0.949 . S
H828 C834 0.950 . S
H829 C835 0.950 . S
H830 C836 0.949 . S
C831 H826 0.950 . S
C831 C833 1.327 . S
C831 C837 1.429 . S
C832 C824 1.574 . S
C832 H827 0.949 . S
C832 C838 1.368 . S
C833 C817 1.349 . S
C833 H825 0.950 . S
C833 C831 1.327 . S
C834 C822 1.349 . S
C834 H828 0.950 . S
C834 C835 1.327 . S
C835 H829 0.950 . S
C835 C834 1.327 . S
C835 C839 1.429 . S
C836 C819 1.574 . S
C836 H830 0.949 . S
C836 C840 1.368 . S
C837 C818 1.429 . S
C837 C831 1.429 . S
C837 C838 1.523 . S
C838 C819 1.368 . S
C838 C832 1.368 . S
C838 C837 1.523 . S
C839 C823 1.429 . S
C839 C835 1.429 . S
C839 C840 1.523 . S
C840 C824 1.368 . S
C840 C836 1.368 . S
C840 C839 1.523 . S
H841 C816 0.950 . S
H842 C818 0.950 . S
H843 C819 0.949 . S
H844 C821 0.950 . S
H845 C823 0.950 . S
C846 C847 1.349 . S
C846 C848 1.327 . S
C846 H871 0.950 . S
C847 C846 1.349 . S
C847 C863 1.349 . S
C848 C846 1.327 . S
C848 C867 1.429 . S
C848 H872 0.950 . S
C849 C866 1.574 . S
C849 C868 1.368 . S
C849 H873 0.949 . S
H850 C854 0.949 . S
C851 C852 1.349 . S
C851 C853 1.327 . S
C851 H874 0.950 . S
C852 C851 1.349 . S
C852 C864 1.349 . S
C853 C851 1.327 . S
C853 C869 1.429 . S
C853 H875 0.950 . S
C854 H850 0.949 . S
C854 C862 1.574 . S
C854 C870 1.368 . S
H855 C863 0.950 . S
H856 C861 0.950 . S
H857 C862 0.949 . S
H858 C864 0.950 . S
H859 C865 0.950 . S
H860 C866 0.949 . S
C861 H856 0.950 . S
C861 C863 1.327 . S
C861 C867 1.429 . S
C862 C854 1.574 . S
C862 H857 0.949 . S
C862 C868 1.368 . S
C863 C847 1.349 . S
C863 H855 0.950 . S
C863 C861 1.327 . S
C864 C852 1.349 . S
C864 H858 0.950 . S
C864 C865 1.327 . S
C865 H859 0.950 . S
C865 C864 1.327 . S
C865 C869 1.429 . S
C866 C849 1.574 . S
C866 H860 0.949 . S
C866 C870 1.368 . S
C867 C848 1.429 . S
C867 C861 1.429 . S
C867 C868 1.523 . S
C868 C849 1.368 . S
C868 C862 1.368 . S
C868 C867 1.523 . S
C869 C853 1.429 . S
C869 C865 1.429 . S
C869 C870 1.523 . S
C870 C854 1.368 . S
C870 C866 1.368 . S
C870 C869 1.523 . S
H871 C846 0.950 . S
H872 C848 0.950 . S
H873 C849 0.949 . S
H874 C851 0.950 . S
H875 C853 0.950 . S
C876 C877 1.349 1_556 S
C876 C878 1.327 . S
C876 H901 0.948 1_556 S
C877 C876 1.349 1_554 S
C877 C893 1.349 . S
C878 C876 1.327 . S
C878 C897 1.429 . S
C878 H902 0.950 . S
C879 C896 1.574 . S
C879 C898 1.368 . S
C879 H903 0.949 . S
H880 C884 0.949 . S
C881 C882 1.349 . S
C881 C883 1.327 . S
C881 H904 0.950 . S
C882 C881 1.349 . S
C882 C894 1.349 . S
C883 C881 1.327 . S
C883 C899 1.429 . S
C883 H905 0.950 . S
C884 H880 0.949 . S
C884 C892 1.574 . S
C884 C900 1.368 . S
H885 C893 0.950 . S
H886 C891 0.950 . S
H887 C892 0.949 . S
H888 C894 0.950 . S
H889 C895 0.950 . S
H890 C896 0.949 . S
C891 H886 0.950 . S
C891 C893 1.327 1_556 S
C891 C897 1.429 . S
C892 C884 1.574 . S
C892 H887 0.949 . S
C892 C898 1.368 . S
C893 C877 1.349 . S
C893 H885 0.950 . S
C893 C891 1.327 1_554 S
C894 C882 1.349 . S
C894 H888 0.950 . S
C894 C895 1.327 . S
C895 H889 0.950 . S
C895 C894 1.327 . S
C895 C899 1.429 . S
C896 C879 1.574 . S
C896 H890 0.949 . S
C896 C900 1.368 . S
C897 C878 1.429 . S
C897 C891 1.429 . S
C897 C898 1.523 . S
C898 C879 1.368 . S
C898 C892 1.368 . S
C898 C897 1.523 . S
C899 C883 1.429 . S
C899 C895 1.429 . S
C899 C900 1.523 . S
C900 C884 1.368 . S
C900 C896 1.368 . S
C900 C899 1.523 . S
H901 C876 0.948 1_554 S
H902 C878 0.950 . S
H903 C879 0.949 . S
H904 C881 0.950 . S
H905 C883 0.950 . S
C906 C907 1.349 . S
C906 C908 1.327 . S
C906 H931 0.950 . S
C907 C906 1.349 . S
C907 C923 1.349 . S
C908 C906 1.327 . S
C908 C927 1.429 . S
C908 H932 0.950 . S
C909 C926 1.574 . S
C909 C928 1.368 . S
C909 H933 0.949 . S
H910 C914 0.949 . S
C911 C912 1.349 1_554 S
C911 C913 1.327 . S
C911 H934 0.950 . S
C912 C911 1.349 1_556 S
C912 C924 1.349 . S
C913 C911 1.327 . S
C913 C929 1.429 . S
C913 H935 0.950 . S
C914 H910 0.949 . S
C914 C922 1.574 . S
C914 C930 1.368 . S
H915 C923 0.950 . S
H916 C921 0.950 . S
H917 C922 0.949 . S
H918 C924 0.950 . S
H919 C925 0.950 . S
H920 C926 0.949 . S
C921 H916 0.950 . S
C921 C923 1.327 . S
C921 C927 1.429 . S
C922 C914 1.574 . S
C922 H917 0.949 . S
C922 C928 1.368 . S
C923 C907 1.349 . S
C923 H915 0.950 . S
C923 C921 1.327 . S
C924 C912 1.349 . S
C924 H918 0.950 . S
C924 C925 1.327 1_556 S
C925 H919 0.950 . S
C925 C924 1.327 1_554 S
C925 C929 1.429 . S
C926 C909 1.574 . S
C926 H920 0.949 . S
C926 C930 1.368 . S
C927 C908 1.429 . S
C927 C921 1.429 . S
C927 C928 1.523 . S
C928 C909 1.368 . S
C928 C922 1.368 . S
C928 C927 1.523 . S
C929 C913 1.429 . S
C929 C925 1.429 . S
C929 C930 1.523 . S
C930 C914 1.368 . S
C930 C926 1.368 . S
C930 C929 1.523 . S
H931 C906 0.950 . S
H932 C908 0.950 . S
H933 C909 0.949 . S
H934 C911 0.950 . S
H935 C913 0.950 . S
C936 C937 1.349 . S
C936 C938 1.327 . S
C936 H961 0.950 . S
C937 C936 1.349 . S
C937 C953 1.349 . S
C938 C936 1.327 . S
C938 C957 1.429 . S
C938 H962 0.950 . S
C939 C956 1.574 . S
C939 C958 1.368 . S
C939 H963 0.949 . S
H940 C944 0.949 . S
C941 C942 1.349 . S
C941 C943 1.327 . S
C941 H964 0.950 . S
C942 C941 1.349 . S
C942 C954 1.349 . S
C943 C941 1.327 . S
C943 C959 1.429 . S
C943 H965 0.950 . S
C944 H940 0.949 . S
C944 C952 1.574 . S
C944 C960 1.368 . S
H945 C953 0.950 . S
H946 C951 0.950 . S
H947 C952 0.949 . S
H948 C954 0.950 . S
H949 C955 0.950 . S
H950 C956 0.949 . S
C951 H946 0.950 . S
C951 C953 1.327 . S
C951 C957 1.429 . S
C952 C944 1.574 . S
C952 H947 0.949 . S
C952 C958 1.368 . S
C953 C937 1.349 . S
C953 H945 0.950 . S
C953 C951 1.327 . S
C954 C942 1.349 . S
C954 H948 0.950 . S
C954 C955 1.327 . S
C955 H949 0.950 . S
C955 C954 1.327 . S
C955 C959 1.429 . S
C956 C939 1.574 . S
C956 H950 0.949 . S
C956 C960 1.368 . S
C957 C938 1.429 . S
C957 C951 1.429 . S
C957 C958 1.523 . S
C958 C939 1.368 . S
C958 C952 1.368 . S
C958 C957 1.523 . S
C959 C943 1.429 . S
C959 C955 1.429 . S
C959 C960 1.523 . S
C960 C944 1.368 . S
C960 C956 1.368 . S
C960 C959 1.523 . S
H961 C936 0.950 . S
H962 C938 0.950 . S
H963 C939 0.949 . S
H964 C941 0.950 . S
H965 C943 0.950 . S
C966 C967 1.349 . S
C966 C968 1.327 . S
C966 H991 0.950 . S
C967 C966 1.349 . S
C967 C983 1.349 . S
C968 C966 1.327 . S
C968 C987 1.429 . S
C968 H992 0.950 . S
C969 C986 1.574 . S
C969 C988 1.368 . S
C969 H993 0.949 . S
H970 C974 0.949 . S
C971 C972 1.349 . S
C971 C973 1.327 . S
C971 H994 0.950 . S
C972 C971 1.349 . S
C972 C984 1.349 . S
C973 C971 1.327 . S
C973 C989 1.429 . S
C973 H995 0.950 . S
C974 H970 0.949 . S
C974 C982 1.574 . S
C974 C990 1.368 . S
H975 C983 0.950 . S
H976 C981 0.950 . S
H977 C982 0.949 . S
H978 C984 0.950 . S
H979 C985 0.950 . S
H980 C986 0.949 . S
C981 H976 0.950 . S
C981 C983 1.327 . S
C981 C987 1.429 . S
C982 C974 1.574 . S
C982 H977 0.949 . S
C982 C988 1.368 . S
C983 C967 1.349 . S
C983 H975 0.950 . S
C983 C981 1.327 . S
C984 C972 1.349 . S
C984 H978 0.950 . S
C984 C985 1.327 . S
C985 H979 0.950 . S
C985 C984 1.327 . S
C985 C989 1.429 . S
C986 C969 1.574 . S
C986 H980 0.949 . S
C986 C990 1.368 . S
C987 C968 1.429 . S
C987 C981 1.429 . S
C987 C988 1.523 . S
C988 C969 1.368 . S
C988 C982 1.368 . S
C988 C987 1.523 . S
C989 C973 1.429 . S
C989 C985 1.429 . S
C989 C990 1.523 . S
C990 C974 1.368 . S
C990 C986 1.368 . S
C990 C989 1.523 . S
H991 C966 0.950 . S
H992 C968 0.950 . S
H993 C969 0.949 . S
H994 C971 0.950 . S
H995 C973 0.950 . S
C996 C997 1.349 . S
C996 C998 1.327 . S
C996 H1021 0.950 . S
C997 C996 1.349 . S
C997 C1013 1.349 . S
C998 C996 1.327 . S
C998 C1017 1.429 . S
C998 H1022 0.950 . S
C999 C1016 1.574 1_655 S
C999 C1018 1.368 . S
C999 H1023 0.949 . S
H1000 C1004 0.949 . S
C1001 C1002 1.349 . S
C1001 C1003 1.327 . S
C1001 H1024 0.950 . S
C1002 C1001 1.349 . S
C1002 C1014 1.349 . S
C1003 C1001 1.327 . S
C1003 C1019 1.429 . S
C1003 H1025 0.950 . S
C1004 H1000 0.949 . S
C1004 C1012 1.574 1_455 S
C1004 C1020 1.368 . S
H1005 C1013 0.950 . S
H1006 C1011 0.950 . S
H1007 C1012 0.949 . S
H1008 C1014 0.950 . S
H1009 C1015 0.950 . S
H1010 C1016 0.949 . S
C1011 H1006 0.950 . S
C1011 C1013 1.327 . S
C1011 C1017 1.429 . S
C1012 C1004 1.574 1_655 S
C1012 H1007 0.949 . S
C1012 C1018 1.368 . S
C1013 C997 1.349 . S
C1013 H1005 0.950 . S
C1013 C1011 1.327 . S
C1014 C1002 1.349 . S
C1014 H1008 0.950 . S
C1014 C1015 1.327 . S
C1015 H1009 0.950 . S
C1015 C1014 1.327 . S
C1015 C1019 1.429 . S
C1016 C999 1.574 1_455 S
C1016 H1010 0.949 . S
C1016 C1020 1.368 . S
C1017 C998 1.429 . S
C1017 C1011 1.429 . S
C1017 C1018 1.523 . S
C1018 C999 1.368 . S
C1018 C1012 1.368 . S
C1018 C1017 1.523 . S
C1019 C1003 1.429 . S
C1019 C1015 1.429 . S
C1019 C1020 1.523 . S
C1020 C1004 1.368 . S
C1020 C1016 1.368 . S
C1020 C1019 1.523 . S
H1021 C996 0.950 . S
H1022 C998 0.950 . S
H1023 C999 0.949 . S
H1024 C1001 0.950 . S
H1025 C1003 0.950 . S
C1026 C1027 1.349 . S
C1026 C1028 1.327 . S
C1026 H1051 0.950 . S
C1027 C1026 1.349 . S
C1027 C1043 1.349 . S
C1028 C1026 1.327 . S
C1028 C1047 1.429 . S
C1028 H1052 0.950 . S
C1029 C1046 1.574 1_565 S
C1029 C1048 1.368 . S
C1029 H1053 0.949 . S
H1030 C1034 0.949 . S
C1031 C1032 1.349 . S
C1031 C1033 1.327 . S
C1031 H1054 0.950 . S
C1032 C1031 1.349 . S
C1032 C1044 1.349 . S
C1033 C1031 1.327 . S
C1033 C1049 1.429 . S
C1033 H1055 0.950 . S
C1034 H1030 0.949 . S
C1034 C1042 1.574 1_545 S
C1034 C1050 1.368 . S
H1035 C1043 0.950 . S
H1036 C1041 0.950 . S
H1037 C1042 0.949 . S
H1038 C1044 0.950 . S
H1039 C1045 0.950 . S
H1040 C1046 0.949 . S
C1041 H1036 0.950 . S
C1041 C1043 1.327 . S
C1041 C1047 1.429 . S
C1042 C1034 1.574 1_565 S
C1042 H1037 0.949 . S
C1042 C1048 1.368 . S
C1043 C1027 1.349 . S
C1043 H1035 0.950 . S
C1043 C1041 1.327 . S
C1044 C1032 1.349 . S
C1044 H1038 0.950 . S
C1044 C1045 1.327 . S
C1045 H1039 0.950 . S
C1045 C1044 1.327 . S
C1045 C1049 1.429 . S
C1046 C1029 1.574 1_545 S
C1046 H1040 0.949 . S
C1046 C1050 1.368 . S
C1047 C1028 1.429 . S
C1047 C1041 1.429 . S
C1047 C1048 1.523 . S
C1048 C1029 1.368 . S
C1048 C1042 1.368 . S
C1048 C1047 1.523 . S
C1049 C1033 1.429 . S
C1049 C1045 1.429 . S
C1049 C1050 1.523 . S
C1050 C1034 1.368 . S
C1050 C1046 1.368 . S
C1050 C1049 1.523 . S
H1051 C1026 0.950 . S
H1052 C1028 0.950 . S
H1053 C1029 0.949 . S
H1054 C1031 0.950 . S
H1055 C1033 0.950 . S
C1056 C1057 1.349 . S
C1056 C1058 1.327 . S
C1056 H1081 0.950 . S
C1057 C1056 1.349 . S
C1057 C1073 1.349 . S
C1058 C1056 1.327 . S
C1058 C1077 1.429 . S
C1058 H1082 0.950 . S
C1059 C1076 1.574 . S
C1059 C1078 1.368 . S
C1059 H1083 0.949 . S
H1060 C1064 0.949 . S
C1061 C1062 1.349 . S
C1061 C1063 1.327 . S
C1061 H1084 0.950 . S
C1062 C1061 1.349 . S
C1062 C1074 1.349 . S
C1063 C1061 1.327 . S
C1063 C1079 1.429 . S
C1063 H1085 0.950 . S
C1064 H1060 0.949 . S
C1064 C1072 1.574 . S
C1064 C1080 1.368 . S
H1065 C1073 0.950 . S
H1066 C1071 0.950 . S
H1067 C1072 0.949 . S
H1068 C1074 0.950 . S
H1069 C1075 0.950 . S
H1070 C1076 0.949 . S
C1071 H1066 0.950 . S
C1071 C1073 1.327 . S
C1071 C1077 1.429 . S
C1072 C1064 1.574 . S
C1072 H1067 0.949 . S
C1072 C1078 1.368 . S
C1073 C1057 1.349 . S
C1073 H1065 0.950 . S
C1073 C1071 1.327 . S
C1074 C1062 1.349 . S
C1074 H1068 0.950 . S
C1074 C1075 1.327 . S
C1075 H1069 0.950 . S
C1075 C1074 1.327 . S
C1075 C1079 1.429 . S
C1076 C1059 1.574 . S
C1076 H1070 0.949 . S
C1076 C1080 1.368 . S
C1077 C1058 1.429 . S
C1077 C1071 1.429 . S
C1077 C1078 1.523 . S
C1078 C1059 1.368 . S
C1078 C1072 1.368 . S
C1078 C1077 1.523 . S
C1079 C1063 1.429 . S
C1079 C1075 1.429 . S
C1079 C1080 1.523 . S
C1080 C1064 1.368 . S
C1080 C1076 1.368 . S
C1080 C1079 1.523 . S
H1081 C1056 0.950 . S
H1082 C1058 0.950 . S
H1083 C1059 0.949 . S
H1084 C1061 0.950 . S
H1085 C1063 0.950 . S
C1086 C1087 1.349 . S
C1086 C1088 1.327 . S
C1086 H1111 0.950 . S
C1087 C1086 1.349 . S
C1087 C1103 1.349 . S
C1088 C1086 1.327 . S
C1088 C1107 1.429 . S
C1088 H1112 0.950 . S
C1089 C1106 1.574 1_455 S
C1089 C1108 1.368 . S
C1089 H1113 0.949 . S
H1090 C1094 0.949 . S
C1091 C1092 1.349 . S
C1091 C1093 1.327 . S
C1091 H1114 0.950 . S
C1092 C1091 1.349 . S
C1092 C1104 1.349 . S
C1093 C1091 1.327 . S
C1093 C1109 1.429 . S
C1093 H1115 0.950 . S
C1094 H1090 0.949 . S
C1094 C1102 1.574 1_655 S
C1094 C1110 1.368 . S
H1095 C1103 0.950 . S
H1096 C1101 0.950 . S
H1097 C1102 0.949 . S
H1098 C1104 0.950 . S
H1099 C1105 0.950 . S
H1100 C1106 0.949 . S
C1101 H1096 0.950 . S
C1101 C1103 1.327 . S
C1101 C1107 1.429 . S
C1102 C1094 1.574 1_455 S
C1102 H1097 0.949 . S
C1102 C1108 1.368 . S
C1103 C1087 1.349 . S
C1103 H1095 0.950 . S
C1103 C1101 1.327 . S
C1104 C1092 1.349 . S
C1104 H1098 0.950 . S
C1104 C1105 1.327 . S
C1105 H1099 0.950 . S
C1105 C1104 1.327 . S
C1105 C1109 1.429 . S
C1106 C1089 1.574 1_655 S
C1106 H1100 0.949 . S
C1106 C1110 1.368 . S
C1107 C1088 1.429 . S
C1107 C1101 1.429 . S
C1107 C1108 1.523 . S
C1108 C1089 1.368 . S
C1108 C1102 1.368 . S
C1108 C1107 1.523 . S
C1109 C1093 1.429 . S
C1109 C1105 1.429 . S
C1109 C1110 1.523 . S
C1110 C1094 1.368 . S
C1110 C1106 1.368 . S
C1110 C1109 1.523 . S
H1111 C1086 0.950 . S
H1112 C1088 0.950 . S
H1113 C1089 0.949 . S
H1114 C1091 0.950 . S
H1115 C1093 0.950 . S
C1116 C1117 1.349 . S
C1116 C1118 1.327 . S
C1116 H1141 0.950 . S
C1117 C1116 1.349 . S
C1117 C1133 1.349 . S
C1118 C1116 1.327 . S
C1118 C1137 1.429 . S
C1118 H1142 0.969 . S
C1119 C1136 1.574 1_545 S
C1119 C1138 1.368 . S
C1119 H1143 0.949 . S
H1120 C1124 0.949 . S
C1121 C1122 1.349 . S
C1121 C1123 1.327 . S
C1121 H1144 0.950 . S
C1122 C1121 1.349 . S
C1122 C1134 1.349 . S
C1123 C1121 1.327 . S
C1123 C1139 1.429 . S
C1123 H1145 0.970 . S
C1124 H1120 0.949 . S
C1124 C1132 1.574 1_565 S
C1124 C1140 1.368 . S
H1125 C1133 0.950 . S
H1126 C1131 0.950 . S
H1127 C1132 0.949 . S
H1128 C1134 0.950 . S
H1129 C1135 0.950 . S
H1130 C1136 0.949 . S
C1131 H1126 0.950 . S
C1131 C1133 1.327 . S
C1131 C1137 1.429 . S
C1132 C1124 1.574 1_545 S
C1132 H1127 0.949 . S
C1132 C1138 1.368 1_554 S
C1133 C1117 1.349 . S
C1133 H1125 0.950 . S
C1133 C1131 1.327 . S
C1134 C1122 1.349 . S
C1134 H1128 0.950 . S
C1134 C1135 1.327 . S
C1135 H1129 0.950 . S
C1135 C1134 1.327 . S
C1135 C1139 1.429 . S
C1136 C1119 1.574 1_565 S
C1136 H1130 0.949 . S
C1136 C1140 1.368 1_556 S
C1137 C1118 1.429 . S
C1137 C1131 1.429 . S
C1137 C1138 1.523 . S
C1138 C1119 1.368 . S
C1138 C1132 1.368 1_556 S
C1138 C1137 1.523 . S
C1139 C1123 1.429 . S
C1139 C1135 1.429 . S
C1139 C1140 1.523 . S
C1140 C1124 1.368 . S
C1140 C1136 1.368 1_554 S
C1140 C1139 1.523 . S
H1141 C1116 0.950 . S
H1142 C1118 0.969 . S
H1143 C1119 0.949 . S
H1144 C1121 0.950 . S
H1145 C1123 0.970 . S
C1146 C1147 1.349 . S
C1146 C1148 1.327 . S
C1146 H1171 0.950 . S
C1147 C1146 1.349 . S
C1147 C1163 1.349 . S
C1148 C1146 1.327 . S
C1148 C1167 1.429 . S
C1148 H1172 0.950 . S
C1149 C1166 1.574 . S
C1149 C1168 1.368 . S
C1149 H1173 0.949 . S
H1150 C1154 0.949 . S
C1151 C1152 1.349 . S
C1151 C1153 1.327 . S
C1151 H1174 0.950 . S
C1152 C1151 1.349 . S
C1152 C1164 1.349 . S
C1153 C1151 1.327 . S
C1153 C1169 1.429 . S
C1153 H1175 0.950 . S
C1154 H1150 0.949 . S
C1154 C1162 1.574 . S
C1154 C1170 1.368 . S
H1155 C1163 0.950 . S
H1156 C1161 0.950 . S
H1157 C1162 0.949 . S
H1158 C1164 0.950 . S
H1159 C1165 0.950 . S
H1160 C1166 0.949 . S
C1161 H1156 0.950 . S
C1161 C1163 1.327 . S
C1161 C1167 1.429 . S
C1162 C1154 1.574 . S
C1162 H1157 0.949 . S
C1162 C1168 1.368 . S
C1163 C1147 1.349 . S
C1163 H1155 0.950 . S
C1163 C1161 1.327 . S
C1164 C1152 1.349 . S
C1164 H1158 0.950 . S
C1164 C1165 1.327 . S
C1165 H1159 0.950 . S
C1165 C1164 1.327 . S
C1165 C1169 1.429 . S
C1166 C1149 1.574 . S
C1166 H1160 0.949 . S
C1166 C1170 1.368 . S
C1167 C1148 1.429 . S
C1167 C1161 1.429 . S
C1167 C1168 1.523 . S
C1168 C1149 1.368 . S
C1168 C1162 1.368 . S
C1168 C1167 1.523 . S
C1169 C1153 1.429 . S
C1169 C1165 1.429 . S
C1169 C1170 1.523 . S
C1170 C1154 1.368 . S
C1170 C1166 1.368 . S
C1170 C1169 1.523 . S
H1171 C1146 0.950 . S
H1172 C1148 0.950 . S
H1173 C1149 0.949 . S
H1174 C1151 0.950 . S
H1175 C1153 0.950 . S
C1176 C1177 1.349 . S
C1176 C1178 1.327 . S
C1176 H1201 0.950 . S
C1177 C1176 1.349 . S
C1177 C1193 1.349 . S
C1178 C1176 1.327 . S
C1178 C1197 1.429 . S
C1178 H1202 0.950 . S
C1179 C1196 1.574 . S
C1179 C1198 1.368 . S
C1179 H1203 0.949 . S
H1180 C1184 0.949 . S
C1181 C1182 1.349 . S
C1181 C1183 1.327 . S
C1181 H1204 0.950 . S
C1182 C1181 1.349 . S
C1182 C1194 1.349 . S
C1183 C1181 1.327 . S
C1183 C1199 1.429 . S
C1183 H1205 0.950 . S
C1184 H1180 0.949 . S
C1184 C1192 1.574 . S
C1184 C1200 1.368 . S
H1185 C1193 0.950 . S
H1186 C1191 0.950 . S
H1187 C1192 0.949 . S
H1188 C1194 0.950 . S
H1189 C1195 0.950 . S
H1190 C1196 0.949 . S
C1191 H1186 0.950 . S
C1191 C1193 1.327 . S
C1191 C1197 1.429 . S
C1192 C1184 1.574 . S
C1192 H1187 0.949 . S
C1192 C1198 1.368 . S
C1193 C1177 1.349 . S
C1193 H1185 0.950 . S
C1193 C1191 1.327 . S
C1194 C1182 1.349 . S
C1194 H1188 0.950 . S
C1194 C1195 1.327 . S
C1195 H1189 0.950 . S
C1195 C1194 1.327 . S
C1195 C1199 1.429 . S
C1196 C1179 1.574 . S
C1196 H1190 0.949 . S
C1196 C1200 1.368 . S
C1197 C1178 1.429 . S
C1197 C1191 1.429 . S
C1197 C1198 1.523 . S
C1198 C1179 1.368 . S
C1198 C1192 1.368 . S
C1198 C1197 1.523 . S
C1199 C1183 1.429 . S
C1199 C1195 1.429 . S
C1199 C1200 1.523 . S
C1200 C1184 1.368 . S
C1200 C1196 1.368 . S
C1200 C1199 1.523 . S
H1201 C1176 0.950 . S
H1202 C1178 0.950 . S
H1203 C1179 0.949 . S
H1204 C1181 0.950 . S
H1205 C1183 0.950 . S
C1206 C1207 1.349 . S
C1206 C1208 1.327 . S
C1206 H1231 0.950 . S
C1207 C1206 1.349 . S
C1207 C1223 1.349 . S
C1208 C1206 1.327 . S
C1208 C1227 1.429 . S
C1208 H1232 0.950 . S
C1209 C1226 1.574 . S
C1209 C1228 1.368 . S
C1209 H1233 0.949 . S
H1210 C1214 0.949 . S
C1211 C1212 1.349 . S
C1211 C1213 1.327 . S
C1211 H1234 0.950 . S
C1212 C1211 1.349 . S
C1212 C1224 1.349 . S
C1213 C1211 1.327 . S
C1213 C1229 1.429 . S
C1213 H1235 0.950 . S
C1214 H1210 0.949 . S
C1214 C1222 1.574 . S
C1214 C1230 1.368 . S
H1215 C1223 0.950 . S
H1216 C1221 0.950 . S
H1217 C1222 0.949 . S
H1218 C1224 0.950 . S
H1219 C1225 0.950 . S
H1220 C1226 0.949 . S
C1221 H1216 0.950 . S
C1221 C1223 1.327 . S
C1221 C1227 1.429 . S
C1222 C1214 1.574 . S
C1222 H1217 0.949 . S
C1222 C1228 1.368 . S
C1223 C1207 1.349 . S
C1223 H1215 0.950 . S
C1223 C1221 1.327 . S
C1224 C1212 1.349 . S
C1224 H1218 0.950 . S
C1224 C1225 1.327 . S
C1225 H1219 0.950 . S
C1225 C1224 1.327 . S
C1225 C1229 1.429 . S
C1226 C1209 1.574 . S
C1226 H1220 0.949 . S
C1226 C1230 1.368 . S
C1227 C1208 1.429 . S
C1227 C1221 1.429 . S
C1227 C1228 1.523 . S
C1228 C1209 1.368 . S
C1228 C1222 1.368 . S
C1228 C1227 1.523 . S
C1229 C1213 1.429 . S
C1229 C1225 1.429 . S
C1229 C1230 1.523 . S
C1230 C1214 1.368 . S
C1230 C1226 1.368 . S
C1230 C1229 1.523 . S
H1231 C1206 0.950 . S
H1232 C1208 0.950 . S
H1233 C1209 0.949 . S
H1234 C1211 0.950 . S
H1235 C1213 0.950 . S
C1236 C1237 1.349 . S
C1236 C1238 1.327 . S
C1236 H1261 0.950 . S
C1237 C1236 1.349 . S
C1237 C1253 1.349 . S
C1238 C1236 1.327 . S
C1238 C1257 1.429 . S
C1238 H1262 0.950 . S
C1239 C1256 1.574 . S
C1239 C1258 1.368 . S
C1239 H1263 0.949 . S
H1240 C1244 0.949 . S
C1241 C1242 1.349 . S
C1241 C1243 1.327 . S
C1241 H1264 0.950 . S
C1242 C1241 1.349 . S
C1242 C1254 1.349 . S
C1243 C1241 1.327 . S
C1243 C1259 1.429 . S
C1243 H1265 0.950 . S
C1244 H1240 0.949 . S
C1244 C1252 1.574 . S
C1244 C1260 1.368 . S
H1245 C1253 0.950 . S
H1246 C1251 0.950 . S
H1247 C1252 0.949 . S
H1248 C1254 0.950 . S
H1249 C1255 0.950 . S
H1250 C1256 0.949 . S
C1251 H1246 0.950 . S
C1251 C1253 1.327 . S
C1251 C1257 1.429 . S
C1252 C1244 1.574 . S
C1252 H1247 0.949 . S
C1252 C1258 1.368 . S
C1253 C1237 1.349 . S
C1253 H1245 0.950 . S
C1253 C1251 1.327 . S
C1254 C1242 1.349 . S
C1254 H1248 0.950 . S
C1254 C1255 1.327 . S
C1255 H1249 0.950 . S
C1255 C1254 1.327 . S
C1255 C1259 1.429 . S
C1256 C1239 1.574 . S
C1256 H1250 0.949 . S
C1256 C1260 1.368 . S
C1257 C1238 1.429 . S
C1257 C1251 1.429 . S
C1257 C1258 1.523 . S
C1258 C1239 1.368 . S
C1258 C1252 1.368 . S
C1258 C1257 1.523 . S
C1259 C1243 1.429 . S
C1259 C1255 1.429 . S
C1259 C1260 1.523 . S
C1260 C1244 1.368 . S
C1260 C1256 1.368 . S
C1260 C1259 1.523 . S
H1261 C1236 0.950 . S
H1262 C1238 0.950 . S
H1263 C1239 0.949 . S
H1264 C1241 0.950 . S
H1265 C1243 0.950 . S
C1266 C1267 1.349 . S
C1266 C1268 1.327 . S
C1266 H1291 0.950 . S
C1267 C1266 1.349 . S
C1267 C1283 1.349 . S
C1268 C1266 1.327 . S
C1268 C1287 1.429 . S
C1268 H1292 0.950 . S
C1269 C1286 1.574 . S
C1269 C1288 1.368 . S
C1269 H1293 0.949 . S
H1270 C1274 0.949 . S
C1271 C1272 1.349 . S
C1271 C1273 1.327 . S
C1271 H1294 0.950 . S
C1272 C1271 1.349 . S
C1272 C1284 1.349 . S
C1273 C1271 1.327 . S
C1273 C1289 1.429 . S
C1273 H1295 0.950 . S
C1274 H1270 0.949 . S
C1274 C1282 1.574 . S
C1274 C1290 1.368 . S
H1275 C1283 0.950 . S
H1276 C1281 0.950 . S
H1277 C1282 0.949 . S
H1278 C1284 0.950 . S
H1279 C1285 0.950 . S
H1280 C1286 0.949 . S
C1281 H1276 0.950 . S
C1281 C1283 1.327 . S
C1281 C1287 1.429 . S
C1282 C1274 1.574 . S
C1282 H1277 0.949 . S
C1282 C1288 1.368 . S
C1283 C1267 1.349 . S
C1283 H1275 0.950 . S
C1283 C1281 1.327 . S
C1284 C1272 1.349 . S
C1284 H1278 0.950 . S
C1284 C1285 1.327 . S
C1285 H1279 0.950 . S
C1285 C1284 1.327 . S
C1285 C1289 1.429 . S
C1286 C1269 1.574 . S
C1286 H1280 0.949 . S
C1286 C1290 1.368 . S
C1287 C1268 1.429 . S
C1287 C1281 1.429 . S
C1287 C1288 1.523 . S
C1288 C1269 1.368 . S
C1288 C1282 1.368 . S
C1288 C1287 1.523 . S
C1289 C1273 1.429 . S
C1289 C1285 1.429 . S
C1289 C1290 1.523 . S
C1290 C1274 1.368 . S
C1290 C1286 1.368 . S
C1290 C1289 1.523 . S
H1291 C1266 0.950 . S
H1292 C1268 0.950 . S
H1293 C1269 0.949 . S
H1294 C1271 0.950 . S
H1295 C1273 0.950 . S
C1296 C1297 1.349 . S
C1296 C1298 1.327 . S
C1296 H1321 0.950 1_556 S
C1297 C1296 1.349 . S
C1297 C1313 1.349 . S
C1298 C1296 1.327 . S
C1298 C1317 1.429 . S
C1298 H1322 0.950 . S
C1299 C1316 1.574 . S
C1299 C1318 1.368 . S
C1299 H1323 0.949 . S
H1300 C1304 0.949 . S
C1301 C1302 1.349 . S
C1301 C1303 1.327 . S
C1301 H1324 0.950 . S
C1302 C1301 1.349 . S
C1302 C1314 1.349 . S
C1303 C1301 1.327 . S
C1303 C1319 1.429 . S
C1303 H1325 0.950 . S
C1304 H1300 0.949 . S
C1304 C1312 1.574 . S
C1304 C1320 1.368 . S
H1305 C1313 0.950 . S
H1306 C1311 0.950 . S
H1307 C1312 0.949 . S
H1308 C1314 0.950 . S
H1309 C1315 0.950 . S
H1310 C1316 0.949 . S
C1311 H1306 0.950 . S
C1311 C1313 1.327 . S
C1311 C1317 1.429 . S
C1312 C1304 1.574 . S
C1312 H1307 0.949 . S
C1312 C1318 1.368 . S
C1313 C1297 1.349 . S
C1313 H1305 0.950 . S
C1313 C1311 1.327 . S
C1314 C1302 1.349 . S
C1314 H1308 0.950 . S
C1314 C1315 1.327 . S
C1315 H1309 0.950 . S
C1315 C1314 1.327 . S
C1315 C1319 1.429 . S
C1316 C1299 1.574 . S
C1316 H1310 0.949 . S
C1316 C1320 1.368 . S
C1317 C1298 1.429 . S
C1317 C1311 1.429 . S
C1317 C1318 1.523 . S
C1318 C1299 1.368 . S
C1318 C1312 1.368 . S
C1318 C1317 1.523 . S
C1319 C1303 1.429 . S
C1319 C1315 1.429 . S
C1319 C1320 1.523 . S
C1320 C1304 1.368 . S
C1320 C1316 1.368 . S
C1320 C1319 1.523 . S
H1321 C1296 0.950 1_554 S
H1322 C1298 0.950 . S
H1323 C1299 0.949 . S
H1324 C1301 0.950 . S
H1325 C1303 0.950 . S
C1326 C1327 1.349 . S
C1326 C1328 1.327 . S
C1326 H1351 0.950 . S
C1327 C1326 1.349 . S
C1327 C1343 1.349 . S
C1328 C1326 1.327 . S
C1328 C1347 1.429 . S
C1328 H1352 0.950 . S
C1329 C1346 1.574 . S
C1329 C1348 1.368 . S
C1329 H1353 0.949 . S
H1330 C1334 0.949 . S
C1331 C1332 1.349 . S
C1331 C1333 1.327 . S
C1331 H1354 0.950 . S
C1332 C1331 1.349 . S
C1332 C1344 1.349 . S
C1333 C1331 1.327 . S
C1333 C1349 1.429 . S
C1333 H1355 0.950 . S
C1334 H1330 0.949 . S
C1334 C1342 1.574 . S
C1334 C1350 1.368 . S
H1335 C1343 0.950 . S
H1336 C1341 0.950 . S
H1337 C1342 0.949 . S
H1338 C1344 0.950 1_556 S
H1339 C1345 0.950 . S
H1340 C1346 0.949 . S
C1341 H1336 0.950 . S
C1341 C1343 1.327 . S
C1341 C1347 1.429 . S
C1342 C1334 1.574 . S
C1342 H1337 0.949 . S
C1342 C1348 1.368 . S
C1343 C1327 1.349 . S
C1343 H1335 0.950 . S
C1343 C1341 1.327 . S
C1344 C1332 1.349 . S
C1344 H1338 0.950 1_554 S
C1344 C1345 1.327 . S
C1345 H1339 0.950 . S
C1345 C1344 1.327 . S
C1345 C1349 1.429 . S
C1346 C1329 1.574 . S
C1346 H1340 0.949 . S
C1346 C1350 1.368 . S
C1347 C1328 1.429 . S
C1347 C1341 1.429 . S
C1347 C1348 1.523 . S
C1348 C1329 1.368 . S
C1348 C1342 1.368 . S
C1348 C1347 1.523 . S
C1349 C1333 1.429 . S
C1349 C1345 1.429 . S
C1349 C1350 1.523 . S
C1350 C1334 1.368 . S
C1350 C1346 1.368 . S
C1350 C1349 1.523 . S
H1351 C1326 0.950 . S
H1352 C1328 0.950 . S
H1353 C1329 0.949 . S
H1354 C1331 0.950 . S
H1355 C1333 0.950 . S
C637 C29 1.497 . S
C642 C347 1.497 . S
C667 C82 1.497 . S
C672 C400 1.497 . S
C697 C453 1.498 . S
C702 C135 1.498 . S
C727 C188 1.497 . S
C732 C506 1.497 . S
C757 C241 1.497 . S
C762 C559 1.497 . S
C787 C612 1.498 . S
C792 C294 1.498 . S
C817 C463 1.304 . S
C822 C39 1.304 . S
C847 C92 1.304 . S
C852 C516 1.304 . S
C877 C569 1.304 . S
C882 C145 1.304 . S
C907 C622 1.304 . S
C912 C198 1.304 . S
C937 C251 1.304 . S
C942 C357 1.304 . S
C967 C304 1.304 . S
C972 C410 1.304 . S
C997 C605 2.108 . S
C1002 C22 2.108 . S
C1027 C340 2.108 . S
C1032 C75 2.108 . S
C1057 C128 2.108 . S
C1062 C393 2.108 . S
C1087 C446 2.108 . S
C1092 C181 2.108 . S
C1117 C499 2.108 . S
C1122 C234 2.108 . S
C1147 C552 2.108 . S
C1152 C287 2.108 . S
C1177 C38 1.948 . S
C1182 C568 1.948 . S
C1207 C621 1.948 . S
C1212 C91 1.948 . S
C1237 C144 1.948 . S
C1242 C356 1.948 . S
C1267 C197 1.948 . S
C1272 C409 1.948 . S
C1297 C250 1.948 1_556 S
C1302 C462 1.948 . S
C1327 C303 1.948 . S
C1332 C515 1.948 1_554 S
