# Generated by pormake.
# Topology wjy, (5)-cn, num edge types: 1
# Building blocks:
#     Node 0, Type 0, BuildingBlock: XOMCOT_clean_sbu_1, # of connection points: 5
#     Node 1, Type 0, BuildingBlock: XOMCOT_clean_sbu_1, # of connection points: 5
#     Node 2, Type 0, BuildingBlock: XOMCOT_clean_sbu_1, # of connection points: 5
#     Node 3, Type 0, BuildingBlock: XOMCOT_clean_sbu_1, # of connection points: 5
#     Node 4, Type 0, BuildingBlock: XOMCOT_clean_sbu_1, # of connection points: 5
#     Node 5, Type 0, BuildingBlock: XOMCOT_clean_sbu_1, # of connection points: 5
#     Node 6, Type 0, BuildingBlock: XOMCOT_clean_sbu_1, # of connection points: 5
#     Node 7, Type 0, BuildingBlock: XOMCOT_clean_sbu_1, # of connection points: 5
#     Node 8, Type 0, BuildingBlock: XOMCOT_clean_sbu_1, # of connection points: 5
#     Node 9, Type 0, BuildingBlock: XOMCOT_clean_sbu_1, # of connection points: 5
#     Node 10, Type 0, BuildingBlock: XOMCOT_clean_sbu_1, # of connection points: 5
#     Node 11, Type 0, BuildingBlock: XOMCOT_clean_sbu_1, # of connection points: 5
#     Edge 12, Type (0, 0), BuildingBlock: UVAHIK_clean_linker_0, # of connection points: 2
#     Edge 13, Type (0, 0), BuildingBlock: UVAHIK_clean_linker_0, # of connection points: 2
#     Edge 14, Type (0, 0), BuildingBlock: UVAHIK_clean_linker_0, # of connection points: 2
#     Edge 15, Type (0, 0), BuildingBlock: UVAHIK_clean_linker_0, # of connection points: 2
#     Edge 16, Type (0, 0), BuildingBlock: UVAHIK_clean_linker_0, # of connection points: 2
#     Edge 17, Type (0, 0), BuildingBlock: UVAHIK_clean_linker_0, # of connection points: 2
#     Edge 18, Type (0, 0), BuildingBlock: UVAHIK_clean_linker_0, # of connection points: 2
#     Edge 19, Type (0, 0), BuildingBlock: UVAHIK_clean_linker_0, # of connection points: 2
#     Edge 20, Type (0, 0), BuildingBlock: UVAHIK_clean_linker_0, # of connection points: 2
#     Edge 21, Type (0, 0), BuildingBlock: UVAHIK_clean_linker_0, # of connection points: 2
#     Edge 22, Type (0, 0), BuildingBlock: UVAHIK_clean_linker_0, # of connection points: 2
#     Edge 23, Type (0, 0), BuildingBlock: UVAHIK_clean_linker_0, # of connection points: 2
#     Edge 24, Type (0, 0), BuildingBlock: UVAHIK_clean_linker_0, # of connection points: 2
#     Edge 25, Type (0, 0), BuildingBlock: UVAHIK_clean_linker_0, # of connection points: 2
#     Edge 26, Type (0, 0), BuildingBlock: UVAHIK_clean_linker_0, # of connection points: 2
#     Edge 27, Type (0, 0), BuildingBlock: UVAHIK_clean_linker_0, # of connection points: 2
#     Edge 28, Type (0, 0), BuildingBlock: UVAHIK_clean_linker_0, # of connection points: 2
#     Edge 29, Type (0, 0), BuildingBlock: UVAHIK_clean_linker_0, # of connection points: 2
#     Edge 30, Type (0, 0), BuildingBlock: UVAHIK_clean_linker_0, # of connection points: 2
#     Edge 31, Type (0, 0), BuildingBlock: UVAHIK_clean_linker_0, # of connection points: 2
#     Edge 32, Type (0, 0), BuildingBlock: UVAHIK_clean_linker_0, # of connection points: 2
#     Edge 33, Type (0, 0), BuildingBlock: UVAHIK_clean_linker_0, # of connection points: 2
#     Edge 34, Type (0, 0), BuildingBlock: UVAHIK_clean_linker_0, # of connection points: 2
#     Edge 35, Type (0, 0), BuildingBlock: UVAHIK_clean_linker_0, # of connection points: 2
#     Edge 36, Type (0, 0), BuildingBlock: UVAHIK_clean_linker_0, # of connection points: 2
#     Edge 37, Type (0, 0), BuildingBlock: UVAHIK_clean_linker_0, # of connection points: 2
#     Edge 38, Type (0, 0), BuildingBlock: UVAHIK_clean_linker_0, # of connection points: 2
#     Edge 39, Type (0, 0), BuildingBlock: UVAHIK_clean_linker_0, # of connection points: 2
#     Edge 40, Type (0, 0), BuildingBlock: UVAHIK_clean_linker_0, # of connection points: 2
#     Edge 41, Type (0, 0), BuildingBlock: UVAHIK_clean_linker_0, # of connection points: 2
# Relax obj value: 0.189
# Max RMSD: 0.172
# Mean RMSD: 0.172
data_MOF--net-wjy--node1-XOMCOT_clean_sbu_1--edge1-UVAHIK_clean_linker_0
_symmetry_space_group_name_H-M    P1
_symmetry_Int_Tables_number       1
_symmetry_cell_setting            triclinic
loop_
_symmetry_equiv_pos_as_xyz
'x, y, z'
_cell_length_a     91.490016
_cell_length_b     91.629404
_cell_length_c     21.891614
_cell_angle_alpha  90.004947
_cell_angle_beta   90.008653
_cell_angle_gamma 119.98468
loop_
_atom_site_label
_atom_site_type_symbol
_atom_site_fract_x
_atom_site_fract_y
_atom_site_fract_z
_atom_type_partial_charge
C0 C 0.4538 0.10119 0.17412 0.0
C1 C 0.45062 0.09611 0.23395 0.0
N2 N 0.43809 0.0985 0.25424 0.0
N3 N 0.44357 0.10708 0.15657 0.0
C4 C 0.43374 0.10476 0.20599 0.0
H5 H 0.46321 0.10083 0.14522 0.0
Co6 Co 0.44397 0.11479 0.07664 0.0
C7 C 0.43799 0.14113 0.14649 0.0
O8 O 0.44125 0.13866 0.20271 0.0
N9 N 0.44436 0.12195 0.9963 0.0
C10 C 0.44958 0.13832 0.91496 0.0
C11 C 0.45174 0.13807 0.97696 0.0
C12 C 0.43799 0.11261 0.94508 0.0
N13 N 0.44092 0.1223 0.89482 0.0
O14 O 0.42028 0.09883 0.06914 0.0
H15 H 0.45858 0.14898 0.00601 0.0
H16 H 0.43134 0.09899 0.94467 0.0
O17 O 0.43908 0.13253 0.10246 0.0
C18 C 0.41792 0.08398 0.06255 0.0
O19 O 0.43111 0.08189 0.06034 0.0
N20 N 0.46757 0.12932 0.08299 0.0
C21 C 0.50206 0.1418 0.10394 0.0
C22 C 0.49242 0.14576 0.14358 0.0
C23 C 0.47526 0.13954 0.13196 0.0
C24 C 0.47688 0.12616 0.04203 0.0
C25 C 0.49415 0.13259 0.05083 0.0
H26 H 0.46795 0.14159 0.1657 0.0
H27 H 0.47071 0.11771 0.00414 0.0
H28 H 0.4235 0.10746 0.20661 0.0
H29 H 0.45745 0.09162 0.26113 0.0
H30 H 0.45447 0.14947 0.88666 0.0
H31 H 0.49765 0.15257 0.18572 0.0
H32 H 0.50097 0.12958 0.01751 0.0
C33 C 0.33774 0.42417 0.34067 0.0
C34 C 0.33433 0.42046 0.40157 0.0
N35 N 0.3269 0.42892 0.42312 0.0
N36 N 0.3323 0.43477 0.32334 0.0
C37 C 0.32577 0.43748 0.37473 0.0
H38 H 0.34442 0.41995 0.3115 0.0
Co39 Co 0.33606 0.44442 0.24589 0.0
C40 C 0.30845 0.4517 0.22104 0.0
O41 O 0.31952 0.46547 0.19268 0.0
N42 N 0.34031 0.45405 0.16633 0.0
C43 C 0.3518 0.47058 0.0852 0.0
C44 C 0.35311 0.46905 0.1471 0.0
C45 C 0.33149 0.44669 0.11467 0.0
N46 N 0.33822 0.45648 0.06474 0.0
O47 O 0.32697 0.42218 0.21067 0.0
H48 H 0.36305 0.47834 0.1754 0.0
H49 H 0.32031 0.43433 0.11371 0.0
O50 O 0.31331 0.4422 0.24628 0.0
C51 C 0.33822 0.41986 0.18528 0.0
O52 O 0.35366 0.43267 0.18067 0.0
N53 N 0.34675 0.46591 0.28282 0.0
C54 C 0.36832 0.49625 0.34217 0.0
C55 C 0.35102 0.49066 0.33652 0.0
C56 C 0.34035 0.47525 0.30767 0.0
C57 C 0.36341 0.47095 0.28981 0.0
C58 C 0.37443 0.4861 0.31851 0.0
H59 H 0.327 0.47073 0.30783 0.0
H60 H 0.36818 0.46311 0.27214 0.0
H61 H 0.32068 0.44588 0.37709 0.0
H62 H 0.33792 0.41287 0.42871 0.0
H63 H 0.36055 0.48105 0.05709 0.0
H64 H 0.34571 0.49785 0.35596 0.0
H65 H 0.38766 0.48987 0.32175 0.0
C66 C 0.91631 0.34883 0.50788 0.0
C67 C 0.91989 0.34889 0.56884 0.0
N68 N 0.90993 0.33327 0.59127 0.0
N69 N 0.90414 0.33325 0.49171 0.0
C70 C 0.90064 0.32396 0.54323 0.0
H71 H 0.92169 0.35962 0.47773 0.0
Co72 Co 0.89439 0.32797 0.41431 0.0
C73 C 0.86084 0.29816 0.45645 0.0
O74 O 0.8531 0.30689 0.46041 0.0
N75 N 0.88484 0.32261 0.33527 0.0
C76 C 0.8665 0.3141 0.25831 0.0
C77 C 0.86854 0.3168 0.32013 0.0
C78 C 0.89248 0.32344 0.28135 0.0
N79 N 0.88157 0.31824 0.23385 0.0
O80 O 0.90866 0.31874 0.3952 0.0
H81 H 0.85871 0.31504 0.3515 0.0
H82 H 0.90574 0.32761 0.27679 0.0
O83 O 0.87642 0.30527 0.44076 0.0
C84 C 0.92324 0.33055 0.37938 0.0
O85 O 0.92562 0.34583 0.37281 0.0
N86 N 0.88219 0.33922 0.43372 0.0
C87 C 0.87233 0.36276 0.46515 0.0
C88 C 0.87052 0.35031 0.50668 0.0
C89 C 0.87582 0.33892 0.49058 0.0
C90 C 0.88409 0.35134 0.39294 0.0
C91 C 0.879 0.36299 0.40725 0.0
H92 H 0.87517 0.33013 0.52478 0.0
H93 H 0.89048 0.35266 0.35001 0.0
H94 H 0.89102 0.31082 0.54602 0.0
H95 H 0.92847 0.35985 0.59527 0.0
H96 H 0.85487 0.30982 0.2332 0.0
H97 H 0.86551 0.34964 0.55205 0.0
H98 H 0.88121 0.37272 0.37438 0.0
C99 C 0.57146 0.91358 0.67305 0.0
C100 C 0.57537 0.91709 0.73382 0.0
N101 N 0.58056 0.90665 0.75541 0.0
N102 N 0.57418 0.90101 0.65605 0.0
C103 C 0.57996 0.89719 0.70696 0.0
H104 H 0.56614 0.91924 0.64379 0.0
Co105 Co 0.56845 0.8911 0.57883 0.0
C106 C 0.56572 0.8577 0.61529 0.0
O107 O 0.54924 0.8497 0.6204 0.0
N108 N 0.56298 0.8814 0.49967 0.0
C109 C 0.55169 0.86303 0.42316 0.0
C110 C 0.55154 0.86531 0.48507 0.0
C111 C 0.56983 0.88863 0.44524 0.0
N112 N 0.56325 0.87772 0.39803 0.0
O113 O 0.59156 0.90551 0.55492 0.0
H114 H 0.54325 0.8558 0.51693 0.0
H115 H 0.57966 0.90158 0.44003 0.0
O116 O 0.5739 0.8734 0.60145 0.0
C117 C 0.59393 0.91992 0.53893 0.0
O118 O 0.58083 0.9221 0.53461 0.0
N119 N 0.54543 0.87872 0.60373 0.0
C120 C 0.51288 0.86886 0.64588 0.0
C121 C 0.52434 0.86698 0.68273 0.0
C122 C 0.54057 0.87217 0.6612 0.0
C123 C 0.53437 0.88065 0.56739 0.0
C124 C 0.51794 0.87547 0.587 0.0
H125 H 0.54935 0.87132 0.6918 0.0
H126 H 0.53852 0.88706 0.524 0.0
H127 H 0.58282 0.88709 0.70927 0.0
H128 H 0.57343 0.92586 0.76087 0.0
H129 H 0.54364 0.85151 0.39853 0.0
H130 H 0.52097 0.86202 0.72868 0.0
H131 H 0.50964 0.8776 0.55774 0.0
C132 C 0.67798 0.58916 0.83542 0.0
C133 C 0.68105 0.5928 0.89656 0.0
N134 N 0.6881 0.58409 0.91924 0.0
N135 N 0.68322 0.57832 0.81918 0.0
C136 C 0.68933 0.57545 0.87132 0.0
H137 H 0.67174 0.59367 0.80526 0.0
Co138 Co 0.68005 0.56859 0.74203 0.0
C139 C 0.7075 0.56072 0.72415 0.0
O140 O 0.69689 0.54704 0.69429 0.0
N141 N 0.6765 0.55881 0.66257 0.0
C142 C 0.66571 0.54208 0.58139 0.0
C143 C 0.66412 0.54358 0.6431 0.0
C144 C 0.68541 0.56628 0.61117 0.0
N145 N 0.67905 0.5564 0.5612 0.0
O146 O 0.68996 0.59075 0.70627 0.0
H147 H 0.65426 0.53407 0.67101 0.0
H148 H 0.69632 0.57881 0.61026 0.0
O149 O 0.7024 0.57028 0.74694 0.0
C150 C 0.67874 0.593 0.68033 0.0
O151 O 0.66316 0.58036 0.6779 0.0
N152 N 0.66854 0.5472 0.77884 0.0
C153 C 0.64522 0.51604 0.82824 0.0
C154 C 0.66255 0.52155 0.82982 0.0
C155 C 0.67411 0.53733 0.80523 0.0
C156 C 0.6519 0.54254 0.78156 0.0
C157 C 0.64001 0.52695 0.80501 0.0
H158 H 0.68737 0.54152 0.80858 0.0
H159 H 0.64779 0.55087 0.76323 0.0
H160 H 0.69425 0.56692 0.87444 0.0
H161 H 0.67757 0.60059 0.92294 0.0
H162 H 0.65724 0.53149 0.55316 0.0
H163 H 0.6671 0.51366 0.84898 0.0
H164 H 0.62681 0.52345 0.80478 0.0
C165 C 0.10457 0.65249 0.00769 0.0
C166 C 0.09963 0.65051 0.06772 0.0
N167 N 0.10195 0.66535 0.08843 0.0
N168 N 0.11029 0.66859 0.99045 0.0
C169 C 0.10806 0.67601 0.04031 0.0
H170 H 0.10411 0.64277 0.97837 0.0
Co171 Co 0.11746 0.67614 0.91035 0.0
C172 C 0.14442 0.70788 0.98063 0.0
O173 O 0.14231 0.70183 0.0363 0.0
N174 N 0.12416 0.68322 0.82992 0.0
C175 C 0.14024 0.69458 0.74803 0.0
C176 C 0.14023 0.69208 0.80985 0.0
C177 C 0.11461 0.68025 0.77926 0.0
N178 N 0.12412 0.68714 0.72869 0.0
O179 O 0.1017 0.68417 0.90656 0.0
H180 H 0.15127 0.69611 0.83822 0.0
H181 H 0.10096 0.67312 0.77944 0.0
O182 O 0.13549 0.69848 0.93657 0.0
C183 C 0.08676 0.67175 0.90065 0.0
O184 O 0.08462 0.6565 0.89612 0.0
N185 N 0.1317 0.66676 0.91287 0.0
C186 C 0.14324 0.6439 0.92846 0.0
C187 C 0.14865 0.65784 0.9676 0.0
C188 C 0.14278 0.66918 0.95886 0.0
C189 C 0.12727 0.654 0.87199 0.0
C190 C 0.13312 0.64265 0.87825 0.0
H191 H 0.14589 0.67885 0.99247 0.0
H192 H 0.11815 0.65186 0.83664 0.0
H193 H 0.11069 0.6889 0.04125 0.0
H194 H 0.09518 0.63916 0.09461 0.0
H195 H 0.1513 0.7009 0.71922 0.0
H196 H 0.1563 0.65931 0.00737 0.0
H197 H 0.12893 0.63242 0.84577 0.0
C198 C 0.91773 0.58722 0.66329 0.0
C199 C 0.9177 0.59047 0.60203 0.0
N200 N 0.90186 0.58095 0.58071 0.0
N201 N 0.90197 0.57581 0.68102 0.0
C202 C 0.89255 0.57227 0.62967 0.0
H203 H 0.92876 0.59223 0.69224 0.0
Co204 Co 0.89643 0.56566 0.75789 0.0
C205 C 0.86143 0.5578 0.78522 0.0
O206 O 0.85891 0.54415 0.81402 0.0
N207 N 0.89137 0.5555 0.83664 0.0
C208 C 0.88656 0.5383 0.91547 0.0
C209 C 0.88939 0.54042 0.85363 0.0
C210 C 0.88987 0.56234 0.8896 0.0
N211 N 0.88692 0.55211 0.93812 0.0
O212 O 0.90904 0.58762 0.79504 0.0
H213 H 0.89011 0.53146 0.82373 0.0
H214 H 0.89084 0.57458 0.8925 0.0
O215 O 0.87564 0.56727 0.75908 0.0
C216 C 0.92279 0.58989 0.81851 0.0
O217 O 0.92595 0.57739 0.81767 0.0
N218 N 0.88608 0.54441 0.71944 0.0
C219 C 0.87776 0.51411 0.66098 0.0
C220 C 0.86559 0.51899 0.66928 0.0
C221 C 0.87007 0.53438 0.69776 0.0
C222 C 0.89816 0.54012 0.70946 0.0
C223 C 0.89427 0.52501 0.68101 0.0
H224 H 0.86075 0.53823 0.70028 0.0
H225 H 0.91091 0.54846 0.72505 0.0
H226 H 0.87924 0.56307 0.6277 0.0
H227 H 0.9287 0.5984 0.57456 0.0
H228 H 0.88489 0.5276 0.94201 0.0
H229 H 0.85281 0.51117 0.65275 0.0
H230 H 0.90409 0.52179 0.67582 0.0
C231 C 0.35174 0.91297 0.83804 0.0
C232 C 0.35188 0.91656 0.77702 0.0
N233 N 0.33634 0.90641 0.754 0.0
N234 N 0.3362 0.90058 0.85366 0.0
C235 C 0.32699 0.89706 0.80185 0.0
H236 H 0.3625 0.91837 0.8684 0.0
Co237 Co 0.33103 0.89024 0.93022 0.0
C238 C 0.30119 0.85746 0.88332 0.0
O239 O 0.31003 0.85003 0.87338 0.0
N240 N 0.32565 0.88008 0.00855 0.0
C241 C 0.31648 0.86113 0.08357 0.0
C242 C 0.31881 0.86352 0.02159 0.0
C243 C 0.32743 0.88746 0.06377 0.0
N244 N 0.32188 0.87622 0.11018 0.0
O245 O 0.32199 0.90445 0.95257 0.0
H246 H 0.31597 0.85374 0.9885 0.0
H247 H 0.33251 0.9008 0.07016 0.0
O248 O 0.30826 0.87261 0.90353 0.0
C249 C 0.33391 0.91844 0.97261 0.0
O250 O 0.34903 0.92027 0.97854 0.0
N251 N 0.34219 0.87801 0.90815 0.0
C252 C 0.36575 0.86824 0.87468 0.0
C253 C 0.354 0.86776 0.83237 0.0
C254 C 0.34251 0.87281 0.84975 0.0
C255 C 0.35363 0.87862 0.94972 0.0
C256 C 0.36514 0.8734 0.93453 0.0
H257 H 0.3342 0.87297 0.81516 0.0
H258 H 0.35455 0.88399 0.99446 0.0
H259 H 0.31394 0.8872 0.7985 0.0
H260 H 0.3629 0.92518 0.7509 0.0
H261 H 0.31149 0.8492 0.10713 0.0
H262 H 0.35417 0.86435 0.78514 0.0
H263 H 0.37387 0.874 0.96914 0.0
C264 C 0.44246 0.34976 0.01002 0.0
C265 C 0.43883 0.34964 0.94909 0.0
N266 N 0.43363 0.33409 0.92679 0.0
N267 N 0.43958 0.33438 0.02632 0.0
C268 C 0.43399 0.32501 0.97489 0.0
H269 H 0.44762 0.36058 0.04002 0.0
Co270 Co 0.44457 0.32957 0.10364 0.0
C271 C 0.44844 0.29971 0.06386 0.0
O272 O 0.46494 0.30838 0.06123 0.0
N273 N 0.44931 0.32471 0.18277 0.0
C274 C 0.46009 0.31722 0.25974 0.0
C275 C 0.46057 0.31985 0.19791 0.0
C276 C 0.44226 0.32505 0.23676 0.0
N277 N 0.44852 0.32046 0.28424 0.0
O278 O 0.42113 0.32024 0.12422 0.0
H279 H 0.46902 0.31872 0.16658 0.0
H280 H 0.43257 0.32842 0.24145 0.0
O281 O 0.43989 0.30681 0.07829 0.0
C282 C 0.41824 0.33193 0.14051 0.0
O283 O 0.43107 0.34727 0.1472 0.0
N284 N 0.46786 0.34085 0.08233 0.0
C285 C 0.50062 0.36476 0.0456 0.0
C286 C 0.48995 0.35147 0.00686 0.0
C287 C 0.47356 0.33992 0.02549 0.0
C288 C 0.47818 0.35363 0.12081 0.0
C289 C 0.49465 0.36552 0.10383 0.0
H290 H 0.46529 0.33054 0.99306 0.0
H291 H 0.47333 0.35529 0.1637 0.0
H292 H 0.43094 0.312 0.97215 0.0
H293 H 0.44085 0.36046 0.92254 0.0
H294 H 0.46799 0.31362 0.28485 0.0
H295 H 0.49397 0.35036 0.96142 0.0
H296 H 0.5022 0.37584 0.13461 0.0
C297 C 0.0951 0.42292 0.15962 0.0
C298 C 0.09489 0.41959 0.09832 0.0
N299 N 0.11081 0.42826 0.07703 0.0
N300 N 0.11111 0.43352 0.17735 0.0
C301 C 0.12042 0.43652 0.12601 0.0
H302 H 0.08415 0.41854 0.1887 0.0
Co303 Co 0.11723 0.44341 0.25439 0.0
C304 C 0.15203 0.44996 0.27859 0.0
O305 O 0.15517 0.46355 0.30926 0.0
N306 N 0.12291 0.45335 0.33336 0.0
C307 C 0.12873 0.47066 0.41259 0.0
C308 C 0.12571 0.4687 0.35085 0.0
C309 C 0.12413 0.4462 0.38595 0.0
N310 N 0.12768 0.45648 0.4347 0.0
O311 O 0.10409 0.42133 0.29061 0.0
H312 H 0.12542 0.47798 0.32139 0.0
H313 H 0.12249 0.43367 0.38845 0.0
O314 O 0.13759 0.44099 0.25322 0.0
C315 C 0.09055 0.41916 0.31575 0.0
O316 O 0.08793 0.43199 0.31907 0.0
N317 N 0.12805 0.46477 0.21655 0.0
C318 C 0.13689 0.49499 0.15623 0.0
C319 C 0.14875 0.48968 0.16424 0.0
C320 C 0.14401 0.47435 0.1937 0.0
C321 C 0.11632 0.46958 0.20762 0.0
C322 C 0.12048 0.48465 0.17828 0.0
H323 H 0.15304 0.47012 0.19564 0.0
H324 H 0.1036 0.46161 0.22421 0.0
H325 H 0.13389 0.44504 0.12411 0.0
H326 H 0.08373 0.41219 0.07083 0.0
H327 H 0.13097 0.48151 0.43948 0.0
H328 H 0.16143 0.49705 0.14628 0.0
H329 H 0.1109 0.48822 0.17339 0.0
C330 C 0.66303 0.09148 0.33287 0.0
C331 C 0.66442 0.08878 0.27191 0.0
N332 N 0.67756 0.10283 0.2486 0.0
N333 N 0.67526 0.10711 0.34819 0.0
C334 C 0.684 0.11371 0.29596 0.0
H335 H 0.65337 0.08279 0.36375 0.0
Co336 Co 0.67695 0.11625 0.42539 0.0
C337 C 0.70747 0.15006 0.41977 0.0
O338 O 0.69851 0.15662 0.43998 0.0
N339 N 0.67845 0.12531 0.50614 0.0
C340 C 0.67619 0.13871 0.58783 0.0
C341 C 0.67331 0.13602 0.52626 0.0
C342 C 0.68466 0.12197 0.55736 0.0
N343 N 0.68322 0.12975 0.60752 0.0
O344 O 0.68494 0.10172 0.45478 0.0
H345 H 0.66793 0.14188 0.49853 0.0
H346 H 0.69026 0.11402 0.55847 0.0
O347 O 0.70041 0.1342 0.40978 0.0
C348 C 0.67335 0.0885 0.48067 0.0
O349 O 0.65872 0.08745 0.49121 0.0
N350 N 0.66699 0.12839 0.3936 0.0
C351 C 0.64612 0.13915 0.34169 0.0
C352 C 0.66274 0.14568 0.32115 0.0
C353 C 0.673 0.14006 0.34758 0.0
C354 C 0.65057 0.12139 0.41165 0.0
C355 C 0.64007 0.12693 0.38767 0.0
H356 H 0.6855 0.14468 0.32936 0.0
H357 H 0.6456 0.11133 0.44503 0.0
H358 H 0.69466 0.12634 0.29229 0.0
H359 H 0.65591 0.07765 0.24612 0.0
H360 H 0.67288 0.1463 0.61621 0.0
H361 H 0.66762 0.15479 0.28436 0.0
H362 H 0.62713 0.12126 0.40328 0.0
C363 C 0.55883 0.65482 0.48563 0.0
C364 C 0.56198 0.65323 0.42544 0.0
N365 N 0.57481 0.6681 0.40625 0.0
N366 N 0.56937 0.67074 0.50449 0.0
C367 C 0.57935 0.67836 0.45558 0.0
H368 H 0.54923 0.64502 0.51377 0.0
Co369 Co 0.56943 0.67817 0.58463 0.0
C370 C 0.57419 0.70974 0.51345 0.0
O371 O 0.57033 0.70346 0.45806 0.0
N372 N 0.56951 0.68519 0.66498 0.0
C373 C 0.56452 0.69674 0.74569 0.0
C374 C 0.56196 0.69381 0.6841 0.0
C375 C 0.57631 0.68272 0.71609 0.0
N376 N 0.57356 0.68977 0.76586 0.0
O377 O 0.59325 0.68635 0.58951 0.0
H378 H 0.55472 0.69743 0.6552 0.0
H379 H 0.58316 0.67593 0.71683 0.0
O380 O 0.57372 0.70054 0.55826 0.0
C381 C 0.59583 0.67399 0.59546 0.0
O382 O 0.58277 0.65868 0.59914 0.0
N383 N 0.54579 0.66862 0.58118 0.0
C384 C 0.51143 0.64562 0.56524 0.0
C385 C 0.51989 0.65965 0.52648 0.0
C386 C 0.5371 0.67107 0.53539 0.0
C387 C 0.53751 0.65576 0.62168 0.0
C388 C 0.52033 0.64433 0.61524 0.0
H389 H 0.54362 0.68085 0.50214 0.0
H390 H 0.54452 0.65362 0.65689 0.0
H391 H 0.58973 0.69121 0.45601 0.0
H392 H 0.55489 0.64215 0.39733 0.0
H393 H 0.55968 0.70309 0.77386 0.0
H394 H 0.51367 0.66116 0.48691 0.0
H395 H 0.51433 0.63403 0.64743 0.0
C396 C 0.43201 0.27139 0.11211 0.0
C397 C 0.44043 0.28122 0.06094 0.0
C398 C 0.42844 0.25465 0.1161 0.0
C399 C 0.44356 0.227 0.04894 0.0
H400 H 0.40883 0.19309 0.15249 0.0
C401 C 0.43379 0.15989 0.07302 0.0
C402 C 0.43458 0.1551 0.13347 0.0
C403 C 0.43217 0.17402 0.06096 0.0
C404 C 0.41857 0.20246 0.12337 0.0
H405 H 0.45072 0.28114 0.97219 0.0
H406 H 0.44334 0.25167 0.97651 0.0
H407 H 0.40928 0.21962 0.13391 0.0
H408 H 0.43319 0.16095 0.22866 0.0
H409 H 0.42993 0.18536 0.20735 0.0
H410 H 0.45259 0.20963 0.03767 0.0
C411 C 0.44017 0.25691 0.01517 0.0
C412 C 0.41893 0.21774 0.1129 0.0
C413 C 0.44414 0.27375 0.01201 0.0
C414 C 0.43279 0.16431 0.18152 0.0
C415 C 0.43084 0.17826 0.1694 0.0
C416 C 0.44298 0.21163 0.05841 0.0
C417 C 0.43297 0.2473 0.06843 0.0
C418 C 0.43157 0.23037 0.07608 0.0
C419 C 0.43087 0.18347 0.10902 0.0
C420 C 0.43063 0.19928 0.09629 0.0
H421 H 0.42936 0.27703 0.15098 0.0
H422 H 0.42306 0.24788 0.15819 0.0
H423 H 0.45382 0.23642 0.02176 0.0
H424 H 0.43479 0.15296 0.03482 0.0
H425 H 0.43206 0.17765 0.01394 0.0
C426 C 0.18281 0.46014 0.27062 0.0
C427 C 0.16611 0.44666 0.26763 0.0
C428 C 0.19639 0.45751 0.26121 0.0
C429 C 0.21258 0.42998 0.28135 0.0
H430 H 0.24346 0.45511 0.15017 0.0
C431 C 0.2774 0.43254 0.24456 0.0
C432 C 0.29084 0.44833 0.22673 0.0
C433 C 0.26079 0.42969 0.24646 0.0
C434 C 0.23507 0.44808 0.18738 0.0
H435 H 0.1506 0.41976 0.25299 0.0
H436 H 0.1747 0.41507 0.23825 0.0
H437 H 0.21678 0.4548 0.15917 0.0
H438 H 0.29739 0.47367 0.19952 0.0
H439 H 0.26899 0.46892 0.20451 0.0
H440 H 0.23136 0.42411 0.31192 0.0
C441 C 0.17705 0.42769 0.24724 0.0
C442 C 0.21971 0.44779 0.19201 0.0
C443 C 0.16333 0.43039 0.25534 0.0
C444 C 0.28737 0.46125 0.2125 0.0
C445 C 0.27095 0.45847 0.21488 0.0
C446 C 0.22815 0.43047 0.27727 0.0
C447 C 0.19369 0.44129 0.24974 0.0
C448 C 0.20849 0.43907 0.23974 0.0
C449 C 0.25734 0.44261 0.23082 0.0
C450 C 0.23983 0.43997 0.23122 0.0
H451 H 0.18542 0.47285 0.27963 0.0
H452 H 0.2091 0.46819 0.26344 0.0
H453 H 0.20415 0.42327 0.31884 0.0
H454 H 0.27967 0.42233 0.25584 0.0
H455 H 0.25064 0.41731 0.25898 0.0
C456 C 0.73764 0.15703 0.42973 0.0
C457 C 0.72573 0.16142 0.40994 0.0
C458 C 0.7549 0.16912 0.43025 0.0
C459 C 0.7869 0.21026 0.36775 0.0
H460 H 0.8074 0.21965 0.5286 0.0
C461 C 0.85164 0.26944 0.41414 0.0
C462 C 0.8503 0.27962 0.45925 0.0
C463 C 0.83897 0.25251 0.40789 0.0
C464 C 0.80195 0.21703 0.48321 0.0
H465 H 0.72248 0.18144 0.37201 0.0
H466 H 0.75253 0.20226 0.37065 0.0
H467 H 0.78003 0.19419 0.51201 0.0
H468 H 0.83541 0.27991 0.53555 0.0
H469 H 0.8137 0.25031 0.52618 0.0
H470 H 0.80848 0.2334 0.33942 0.0
C471 C 0.74861 0.18963 0.38644 0.0
C472 C 0.78634 0.20242 0.47364 0.0
C473 C 0.73142 0.17773 0.38739 0.0
C474 C 0.83679 0.27229 0.50067 0.0
C475 C 0.82437 0.25534 0.49532 0.0
C476 C 0.80263 0.22471 0.37704 0.0
C477 C 0.76052 0.18562 0.40939 0.0
C478 C 0.7784 0.19919 0.4163 0.0
C479 C 0.82498 0.24542 0.44753 0.0
C480 C 0.81007 0.22854 0.43536 0.0
H481 H 0.73354 0.14458 0.44796 0.0
H482 H 0.76383 0.16572 0.44822 0.0
H483 H 0.78107 0.20807 0.32308 0.0
H484 H 0.8618 0.27485 0.38105 0.0
H485 H 0.83977 0.24514 0.3707 0.0
C486 C 0.58107 0.73838 0.47548 0.0
C487 C 0.57803 0.72733 0.52457 0.0
C488 C 0.5838 0.75465 0.48563 0.0
C489 C 0.59142 0.78603 0.61074 0.0
H490 H 0.57354 0.80395 0.49014 0.0
C491 C 0.56893 0.83407 0.65549 0.0
C492 C 0.57397 0.84739 0.61382 0.0
C493 C 0.57351 0.82178 0.64652 0.0
C494 C 0.57883 0.79923 0.52382 0.0
H495 H 0.57611 0.7251 0.62315 0.0
H496 H 0.57974 0.7528 0.64071 0.0
H497 H 0.573 0.7776 0.46987 0.0
H498 H 0.58811 0.85863 0.53106 0.0
H499 H 0.59575 0.83676 0.51427 0.0
H500 H 0.59605 0.80726 0.66627 0.0
C501 C 0.58055 0.74924 0.59424 0.0
C502 C 0.5786 0.7841 0.5122 0.0
C503 C 0.5782 0.73312 0.58414 0.0
C504 C 0.58433 0.84865 0.56443 0.0
C505 C 0.58856 0.83608 0.55454 0.0
C506 C 0.59128 0.80097 0.62286 0.0
C507 C 0.58324 0.76025 0.54512 0.0
C508 C 0.5847 0.77711 0.55577 0.0
C509 C 0.58284 0.82233 0.59477 0.0
C510 C 0.58485 0.80763 0.57971 0.0
H511 H 0.58129 0.73445 0.42899 0.0
H512 H 0.58629 0.76279 0.44653 0.0
H513 H 0.59665 0.78142 0.64497 0.0
H514 H 0.56077 0.83275 0.69352 0.0
H515 H 0.56884 0.81126 0.67794 0.0
C516 C 0.73848 0.58003 0.74561 0.0
C517 C 0.7247 0.56372 0.73647 0.0
C518 C 0.75478 0.58247 0.75445 0.0
C519 C 0.77683 0.56214 0.81442 0.0
H520 H 0.81195 0.58494 0.69306 0.0
C521 C 0.83085 0.54834 0.79585 0.0
C522 C 0.84718 0.56113 0.78008 0.0
C523 C 0.81723 0.55113 0.79342 0.0
C524 C 0.80245 0.57883 0.72811 0.0
H525 H 0.7171 0.53722 0.73105 0.0
H526 H 0.74525 0.54146 0.74855 0.0
H527 H 0.78571 0.58596 0.6857 0.0
H528 H 0.86193 0.58691 0.74851 0.0
H529 H 0.838 0.59198 0.74541 0.0
H530 H 0.79323 0.55494 0.85718 0.0
C531 C 0.74355 0.55234 0.74781 0.0
C532 C 0.78743 0.57942 0.72377 0.0
C533 C 0.72745 0.54995 0.73761 0.0
C534 C 0.8495 0.5768 0.76095 0.0
C535 C 0.83578 0.57967 0.75904 0.0
C536 C 0.79184 0.56176 0.81933 0.0
C537 C 0.75738 0.56859 0.75593 0.0
C538 C 0.77432 0.57064 0.7659 0.0
C539 C 0.81947 0.56689 0.77594 0.0
C540 C 0.80463 0.56956 0.77503 0.0
H541 H 0.73672 0.59087 0.7447 0.0
H542 H 0.76529 0.59512 0.76074 0.0
H543 H 0.76693 0.55539 0.84774 0.0
H544 H 0.82849 0.53602 0.80994 0.0
H545 H 0.80484 0.54078 0.80486 0.0
C546 C 0.27356 0.84504 0.93738 0.0
C547 C 0.28268 0.84671 0.88384 0.0
C548 C 0.25695 0.8317 0.94375 0.0
C549 C 0.22883 0.78902 0.87713 0.0
H550 H 0.19606 0.78895 0.98957 0.0
C551 C 0.16225 0.7313 0.90749 0.0
C552 C 0.15826 0.72533 0.96788 0.0
C553 C 0.17617 0.74715 0.89508 0.0
C554 C 0.20512 0.78884 0.958 0.0
H555 H 0.28143 0.83668 0.79343 0.0
H556 H 0.25214 0.81427 0.80217 0.0
H557 H 0.22214 0.8153 0.96843 0.0
H558 H 0.1653 0.73193 0.06284 0.0
H559 H 0.18938 0.75982 0.04098 0.0
H560 H 0.21157 0.76262 0.86594 0.0
C561 C 0.25787 0.82261 0.84075 0.0
C562 C 0.22014 0.80392 0.94603 0.0
C563 C 0.27459 0.83564 0.83513 0.0
C564 C 0.16806 0.73602 0.01574 0.0
C565 C 0.18181 0.75203 1.00333 0.0
C566 C 0.21371 0.77409 0.88814 0.0
C567 C 0.24903 0.81992 0.89618 0.0
C568 C 0.23234 0.80422 0.90586 0.0
C569 C 0.1862 0.7576 0.9428 0.0
C570 C 0.20178 0.77379 0.92915 0.0
H571 H 0.27967 0.85325 0.97605 0.0
H572 H 0.25078 0.8301 0.98739 0.0
H573 H 0.23796 0.78843 0.84734 0.0
H574 H 0.15484 0.72363 0.86952 0.0
H575 H 0.17918 0.75121 0.84801 0.0
C576 C 0.4353 0.10186 0.81129 0.0
C577 C 0.43653 0.11695 0.83216 0.0
C578 C 0.43236 0.09744 0.7494 0.0
C579 C 0.41761 0.10669 0.60387 0.0
H580 H 0.44674 0.09233 0.5292 0.0
C581 C 0.42905 0.10889 0.3426 0.0
C582 C 0.43262 0.09698 0.31686 0.0
C583 C 0.42668 0.10916 0.40575 0.0
C584 C 0.43823 0.09599 0.54925 0.0
H585 H 0.43477 0.13875 0.80477 0.0
H586 H 0.42983 0.13115 0.6971 0.0
H587 H 0.44775 0.09655 0.63903 0.0
H588 H 0.43517 0.07519 0.33621 0.0
H589 H 0.4306 0.07531 0.44589 0.0
H590 H 0.40824 0.10633 0.51381 0.0
C591 C 0.43111 0.12271 0.72842 0.0
C592 C 0.43885 0.09844 0.61244 0.0
C593 C 0.43414 0.12717 0.7901 0.0
C594 C 0.4327 0.08468 0.35497 0.0
C595 C 0.43018 0.08483 0.41788 0.0
C596 C 0.41693 0.10416 0.54058 0.0
C597 C 0.43044 0.10793 0.70707 0.0
C598 C 0.4287 0.10402 0.64049 0.0
C599 C 0.42769 0.09741 0.44445 0.0
C600 C 0.42738 0.09896 0.5123 0.0
H601 H 0.43715 0.09374 0.84237 0.0
H602 H 0.43175 0.08587 0.73455 0.0
H603 H 0.40947 0.1108 0.62415 0.0
H604 H 0.42907 0.11862 0.31447 0.0
H605 H 0.42492 0.11911 0.42446 0.0
C606 C 0.32615 0.44552 0.51105 0.0
C607 C 0.32332 0.43017 0.48642 0.0
C608 C 0.32486 0.44725 0.57412 0.0
C609 C 0.32719 0.42784 0.71973 0.0
H610 H 0.31267 0.45722 0.791 0.0
C611 C 0.32559 0.43566 0.98096 0.0
C612 C 0.33304 0.45237 1.00187 0.0
C613 C 0.32203 0.43195 0.91882 0.0
C614 C 0.31681 0.44901 0.77172 0.0
H615 H 0.31584 0.4043 0.50782 0.0
H616 H 0.31315 0.4071 0.61736 0.0
H617 H 0.31045 0.45247 0.68072 0.0
H618 H 0.34181 0.47816 0.97441 0.0
H619 H 0.33568 0.47173 0.86612 0.0
H620 H 0.33367 0.42448 0.81052 0.0
C621 C 0.3169 0.41801 0.58853 0.0
C622 C 0.31558 0.44631 0.70847 0.0
C623 C 0.31834 0.41636 0.5257 0.0
C624 C 0.33625 0.46519 0.95961 0.0
C625 C 0.33258 0.46148 0.89763 0.0
C626 C 0.32832 0.43045 0.78286 0.0
C627 C 0.32058 0.4336 0.61387 0.0
C628 C 0.3209 0.43581 0.68154 0.0
C629 C 0.3257 0.44486 0.87629 0.0
C630 C 0.32331 0.4412 0.8096 0.0
H631 H 0.33018 0.45643 0.48197 0.0
H632 H 0.32795 0.45949 0.59188 0.0
H633 H 0.33176 0.41994 0.70074 0.0
H634 H 0.32307 0.42552 0.01224 0.0
H635 H 0.31658 0.41899 0.90392 0.0
C636 C 0.89229 0.31577 0.67728 0.0
C637 C 0.90791 0.32849 0.65487 0.0
C638 C 0.8898 0.31258 0.73998 0.0
C639 C 0.912 0.3207 0.88933 0.0
H640 H 0.87015 0.31564 0.9528 0.0
C641 C 0.90123 0.32835 0.14575 0.0
C642 C 0.88513 0.31749 0.17007 0.0
C643 C 0.9043 0.3282 0.08316 0.0
C644 C 0.8818 0.31679 0.93586 0.0
H645 H 0.93344 0.3471 0.68066 0.0
H646 H 0.92901 0.34178 0.78995 0.0
H647 H 0.87492 0.31755 0.84314 0.0
H648 H 0.85992 0.29736 0.14799 0.0
H649 H 0.86525 0.29712 0.03924 0.0
H650 H 0.91896 0.32025 0.98254 0.0
C651 C 0.91869 0.3342 0.75912 0.0
C652 C 0.88453 0.31785 0.87287 0.0
C653 C 0.92119 0.33739 0.69645 0.0
C654 C 0.87235 0.30616 0.13065 0.0
C655 C 0.87541 0.306 0.06825 0.0
C656 C 0.90927 0.31966 0.9525 0.0
C657 C 0.90285 0.32201 0.78178 0.0
C658 C 0.89969 0.31991 0.84877 0.0
C659 C 0.89134 0.31718 0.04357 0.0
C660 C 0.89417 0.31777 0.97648 0.0
H661 H 0.88175 0.30874 0.64678 0.0
H662 H 0.87751 0.30291 0.75582 0.0
H663 H 0.92374 0.3221 0.87227 0.0
H664 H 0.91132 0.33733 0.17467 0.0
H665 H 0.91667 0.3371 0.06552 0.0
C666 C 0.57884 0.88818 0.84106 0.0
C667 C 0.583 0.90421 0.81894 0.0
C668 C 0.57902 0.88538 0.90382 0.0
C669 C 0.59357 0.9069 0.05424 0.0
H670 H 0.5545 0.86655 0.11538 0.0
C671 C 0.57407 0.89721 0.30958 0.0
C672 C 0.56754 0.88093 0.33406 0.0
C673 C 0.57753 0.90009 0.24704 0.0
C674 C 0.56563 0.87776 0.09913 0.0
H675 H 0.59161 0.93005 0.84527 0.0
H676 H 0.59166 0.92513 0.95458 0.0
H677 H 0.55827 0.8714 0.00586 0.0
H678 H 0.56029 0.8551 0.31213 0.0
H679 H 0.56629 0.8601 0.20349 0.0
H680 H 0.60073 0.91336 0.14789 0.0
C681 C 0.58832 0.91473 0.92355 0.0
C682 C 0.56781 0.88053 0.0362 0.0
C683 C 0.58813 0.91752 0.86086 0.0
C684 C 0.56495 0.86771 0.29472 0.0
C685 C 0.56841 0.87059 0.23234 0.0
C686 C 0.59137 0.90413 0.11731 0.0
C687 C 0.58338 0.89853 0.94594 0.0
C688 C 0.58175 0.89518 0.0129 0.0
C689 C 0.57456 0.88677 0.20755 0.0
C690 C 0.57731 0.88957 0.14052 0.0
H691 H 0.57471 0.87761 0.81025 0.0
H692 H 0.5754 0.8728 0.91944 0.0
H693 H 0.60455 0.91822 0.03785 0.0
H694 H 0.57607 0.90765 0.33836 0.0
H695 H 0.58207 0.91268 0.22937 0.0
C696 C 0.69618 0.59658 0.02225 0.0
C697 C 0.69149 0.58285 0.98281 0.0
C698 C 0.69775 0.59496 0.08504 0.0
C699 C 0.70041 0.5672 0.20394 0.0
H700 H 0.68177 0.5881 0.3081 0.0
C701 C 0.68128 0.54802 0.45584 0.0
C702 C 0.68413 0.56068 0.49832 0.0
C703 C 0.68464 0.5518 0.39377 0.0
C704 C 0.68728 0.58239 0.27984 0.0
H705 H 0.68515 0.55672 0.97825 0.0
H706 H 0.68762 0.55374 0.08799 0.0
H707 H 0.68308 0.59259 0.19833 0.0
H708 H 0.69315 0.58736 0.50897 0.0
H709 H 0.69915 0.59403 0.40053 0.0
H710 H 0.70414 0.55662 0.28581 0.0
C711 C 0.6904 0.56591 0.07035 0.0
C712 C 0.68805 0.58498 0.21672 0.0
C713 C 0.68897 0.56759 0.00735 0.0
C714 C 0.69094 0.57735 0.47753 0.0
C715 C 0.69421 0.58112 0.41531 0.0
C716 C 0.69955 0.56454 0.26717 0.0
C717 C 0.6945 0.57949 0.11019 0.0
C718 C 0.69452 0.57733 0.17779 0.0
C719 C 0.69085 0.56835 0.37256 0.0
C720 C 0.69286 0.57201 0.30583 0.0
H721 H 0.69847 0.60857 0.00452 0.0
H722 H 0.70132 0.60582 0.11398 0.0
H723 H 0.7057 0.5613 0.17558 0.0
H724 H 0.6762 0.53509 0.47052 0.0
H725 H 0.68178 0.54163 0.36212 0.0
C726 C 0.08793 0.65663 0.1888 0.0
C727 C 0.1002 0.66915 0.15101 0.0
C728 C 0.08778 0.65929 0.25159 0.0
C729 C 0.10589 0.69202 0.374 0.0
H730 H 0.09902 0.65416 0.47395 0.0
C731 C 0.12858 0.69878 0.62414 0.0
C732 C 0.11858 0.68608 0.66625 0.0
C733 C 0.12411 0.69719 0.56245 0.0
C734 C 0.10069 0.66478 0.44692 0.0
H735 H 0.12149 0.69456 0.14905 0.0
H736 H 0.12146 0.6992 0.25887 0.0
H737 H 0.09524 0.65072 0.36399 0.0
H738 H 0.09572 0.66194 0.67666 0.0
H739 H 0.08782 0.65917 0.56876 0.0
H740 H 0.11188 0.70619 0.45727 0.0
C741 C 0.11175 0.68737 0.23997 0.0
C742 C 0.0985 0.66282 0.38366 0.0
C743 C 0.1118 0.68474 0.17693 0.0
C744 C 0.10366 0.67198 0.6455 0.0
C745 C 0.09922 0.67033 0.58358 0.0
C746 C 0.10816 0.694 0.43736 0.0
C747 C 0.10001 0.6745 0.27837 0.0
C748 C 0.10123 0.67645 0.3462 0.0
C749 C 0.10954 0.68281 0.54116 0.0
C750 C 0.10577 0.68045 0.47451 0.0
H751 H 0.07867 0.64459 0.16989 0.0
H752 H 0.07828 0.64925 0.27936 0.0
H753 H 0.10787 0.70273 0.34679 0.0
H754 H 0.14003 0.70991 0.63877 0.0
H755 H 0.13242 0.70698 0.53107 0.0
C756 C 0.87546 0.54216 0.04147 0.0
C757 C 0.88549 0.55546 1.00157 0.0
C758 C 0.87503 0.54508 0.10391 0.0
C759 C 0.88637 0.57889 0.22 0.0
H760 H 0.88696 0.54584 0.32904 0.0
C761 C 0.9055 0.59182 0.47515 0.0
C762 C 0.89688 0.57866 0.51728 0.0
C763 C 0.90211 0.58913 0.41259 0.0
C764 C 0.88653 0.55507 0.29937 0.0
H765 H 0.90274 0.58235 0.99579 0.0
H766 H 0.90226 0.58749 0.10509 0.0
H767 H 0.88501 0.54101 0.21943 0.0
H768 H 0.87751 0.55243 0.52662 0.0
H769 H 0.87146 0.54776 0.41747 0.0
H770 H 0.88836 0.59314 0.30043 0.0
C771 C 0.89444 0.5748 0.08801 0.0
C772 C 0.8854 0.55231 0.23632 0.0
C773 C 0.89475 0.57187 0.02531 0.0
C774 C 0.8843 0.56288 0.49554 0.0
C775 C 0.88097 0.56016 0.43289 0.0
C776 C 0.88759 0.5817 0.28319 0.0
C777 C 0.88477 0.56139 0.12831 0.0
C778 C 0.88538 0.5642 0.19568 0.0
C779 C 0.89006 0.57316 0.39055 0.0
C780 C 0.88777 0.56985 0.32361 0.0
H781 H 0.86796 0.52943 0.02434 0.0
H782 H 0.86712 0.5345 0.13316 0.0
H783 H 0.88614 0.58822 0.19026 0.0
H784 H 0.91514 0.60415 0.49052 0.0
H785 H 0.90941 0.5994 0.3813 0.0
C786 C 0.34084 0.91713 0.64791 0.0
C787 C 0.33185 0.90405 0.69003 0.0
C788 C 0.33798 0.91431 0.58514 0.0
C789 C 0.32211 0.87965 0.47294 0.0
H790 H 0.32487 0.91363 0.36046 0.0
C791 C 0.31046 0.86684 0.21439 0.0
C792 C 0.32173 0.87958 0.17464 0.0
C793 C 0.31053 0.86992 0.27695 0.0
C794 C 0.32419 0.90406 0.39128 0.0
H795 H 0.3123 0.87784 0.69872 0.0
H796 H 0.30701 0.87306 0.58959 0.0
H797 H 0.32643 0.91882 0.47033 0.0
H798 H 0.34192 0.90562 0.1702 0.0
H799 H 0.34198 0.91098 0.27923 0.0
H800 H 0.32 0.86495 0.39402 0.0
C801 C 0.31651 0.88545 0.60508 0.0
C802 C 0.32508 0.90703 0.45426 0.0
C803 C 0.31939 0.88826 0.66787 0.0
C804 C 0.33291 0.89556 0.1991 0.0
C805 C 0.33295 0.89865 0.26173 0.0
C806 C 0.32118 0.87667 0.41006 0.0
C807 C 0.32603 0.89833 0.56284 0.0
C808 C 0.32416 0.8949 0.4959 0.0
C809 C 0.32184 0.88582 0.30147 0.0
C810 C 0.32232 0.88887 0.36843 0.0
H811 H 0.35037 0.92949 0.66338 0.0
H812 H 0.34563 0.92451 0.55406 0.0
H813 H 0.32169 0.87015 0.50349 0.0
H814 H 0.30144 0.85449 0.1972 0.0
H815 H 0.30161 0.85984 0.30612 0.0
C816 C 0.44635 0.30862 0.38745 0.0
C817 C 0.44416 0.31949 0.34803 0.0
C818 C 0.44303 0.30826 0.44985 0.0
C819 C 0.42137 0.32029 0.56544 0.0
H820 H 0.45445 0.31993 0.67523 0.0
C821 C 0.4262 0.33777 0.82153 0.0
C822 C 0.43107 0.3293 0.86319 0.0
C823 C 0.42572 0.33466 0.75885 0.0
C824 C 0.44491 0.31974 0.64537 0.0
H825 H 0.43642 0.3383 0.34342 0.0
H826 H 0.43068 0.33773 0.45253 0.0
H827 H 0.4576 0.3183 0.5656 0.0
H828 H 0.43859 0.31037 0.87142 0.0
H829 H 0.43737 0.30467 0.76233 0.0
H830 H 0.40882 0.32197 0.64551 0.0
C831 C 0.4348 0.32934 0.43492 0.0
C832 C 0.44674 0.31883 0.58239 0.0
C833 C 0.43811 0.32967 0.37234 0.0
C834 C 0.43468 0.31706 0.84084 0.0
C835 C 0.4342 0.31395 0.77813 0.0
C836 C 0.41952 0.32119 0.62858 0.0
C837 C 0.43745 0.31878 0.47453 0.0
C838 C 0.43505 0.31919 0.5416 0.0
C839 C 0.43007 0.32298 0.73626 0.0
C840 C 0.43134 0.32102 0.66929 0.0
H841 H 0.45063 0.30033 0.37009 0.0
H842 H 0.44488 0.29974 0.47884 0.0
H843 H 0.41202 0.32038 0.5353 0.0
H844 H 0.42312 0.3471 0.83728 0.0
H845 H 0.42258 0.34192 0.72797 0.0
C846 C 0.11893 0.43659 0.52172 0.0
C847 C 0.12893 0.4529 0.49801 0.0
C848 C 0.119 0.43357 0.58445 0.0
C849 C 0.129 0.45628 0.73244 0.0
H850 H 0.12334 0.41443 0.79764 0.0
C851 C 0.12906 0.4456 0.9919 0.0
C852 C 0.1158 0.43021 0.01366 0.0
C853 C 0.13252 0.44811 0.92929 0.0
C854 C 0.12487 0.42616 0.78008 0.0
H855 H 0.14758 0.4786 0.52076 0.0
H856 H 0.14802 0.47334 0.62961 0.0
H857 H 0.12598 0.41925 0.68739 0.0
H858 H 0.09642 0.40513 0.98708 0.0
H859 H 0.1024 0.4095 0.87789 0.0
H860 H 0.12777 0.46315 0.82489 0.0
C861 C 0.1397 0.46294 0.60035 0.0
C862 C 0.12634 0.42892 0.71686 0.0
C863 C 0.13951 0.46596 0.53789 0.0
C864 C 0.1066 0.41717 0.97165 0.0
C865 C 0.11013 0.41963 0.90913 0.0
C866 C 0.12762 0.45357 0.7955 0.0
C867 C 0.12919 0.44678 0.62476 0.0
C868 C 0.12831 0.44398 0.69216 0.0
C869 C 0.12289 0.43526 0.88705 0.0
C870 C 0.12542 0.43844 0.82012 0.0
H871 H 0.11052 0.42631 0.49219 0.0
H872 H 0.11059 0.421 0.60156 0.0
H873 H 0.13014 0.46789 0.71523 0.0
H874 H 0.1363 0.45595 0.02291 0.0
H875 H 0.14257 0.46023 0.91381 0.0
C876 C 0.6849 0.11228 0.69048 0.0
C877 C 0.68676 0.12768 0.67015 0.0
C878 C 0.68654 0.10969 0.75253 0.0
C879 C 0.70259 0.13158 0.90088 0.0
H880 H 0.66681 0.08997 0.96929 0.0
C881 C 0.6883 0.12221 0.16013 0.0
C882 C 0.68214 0.10603 0.18495 0.0
C883 C 0.691 0.12489 0.09717 0.0
C884 C 0.6771 0.10154 0.95101 0.0
H885 H 0.69268 0.15269 0.69855 0.0
H886 H 0.69548 0.14818 0.80672 0.0
H887 H 0.668 0.09453 0.85956 0.0
H888 H 0.67491 0.08021 0.16372 0.0
H889 H 0.6799 0.08488 0.0542 0.0
H890 H 0.7116 0.13866 0.99252 0.0
C891 C 0.69275 0.1381 0.7748 0.0
C892 C 0.67776 0.10415 0.88793 0.0
C893 C 0.69099 0.14064 0.71288 0.0
C894 C 0.67941 0.09275 0.14579 0.0
C895 C 0.68221 0.09544 0.08298 0.0
C896 C 0.70198 0.12894 0.96405 0.0
C897 C 0.69022 0.12248 0.79556 0.0
C898 C 0.6904 0.11928 0.86214 0.0
C899 C 0.6877 0.11146 0.05761 0.0
C900 C 0.68911 0.11395 0.99004 0.0
H901 H 0.68151 0.102 0.65884 0.0
H902 H 0.68468 0.09757 0.76698 0.0
H903 H 0.7126 0.1433 0.88235 0.0
H904 H 0.69033 0.13266 0.18896 0.0
H905 H 0.69503 0.13735 0.07933 0.0
C906 C 0.58561 0.68875 0.32154 0.0
C907 C 0.58038 0.67248 0.34383 0.0
C908 C 0.58833 0.69221 0.25897 0.0
C909 C 0.59409 0.67605 0.11028 0.0
H910 H 0.57157 0.69896 0.04496 0.0
C911 C 0.57834 0.67527 0.85252 0.0
C912 C 0.57836 0.68948 0.82837 0.0
C913 C 0.58115 0.67437 0.91504 0.0
C914 C 0.57823 0.69282 0.06223 0.0
H915 H 0.57516 0.64747 0.31844 0.0
H916 H 0.57983 0.65346 0.2094 0.0
H917 H 0.57265 0.69581 0.15468 0.0
H918 H 0.58249 0.71433 0.84969 0.0
H919 H 0.58779 0.71301 0.95793 0.0
H920 H 0.59951 0.67293 0.01747 0.0
C921 C 0.58178 0.66354 0.24013 0.0
C922 C 0.57883 0.69101 0.12538 0.0
C923 C 0.57896 0.66007 0.3026 0.0
C924 C 0.58207 0.70308 0.86729 0.0
C925 C 0.58504 0.70228 0.92942 0.0
C926 C 0.59357 0.67795 0.04691 0.0
C927 C 0.58602 0.67952 0.21733 0.0
C928 C 0.58664 0.68249 0.15024 0.0
C929 C 0.58418 0.68774 0.95456 0.0
C930 C 0.58552 0.68627 0.02201 0.0
H931 H 0.58675 0.69858 0.35193 0.0
H932 H 0.59182 0.70472 0.24296 0.0
H933 H 0.60031 0.66952 0.12801 0.0
H934 H 0.57541 0.66456 0.82362 0.0
H935 H 0.58025 0.66291 0.93272 0.0
C936 C 0.52546 0.13474 0.10275 0.0
C937 C 0.51951 0.14563 0.12096 0.0
C938 C 0.5411 0.13735 0.12255 0.0
C939 C 0.5685 0.15109 0.25097 0.0
H940 H 0.6034 0.15457 0.1415 0.0
C941 C 0.62778 0.15216 0.34682 0.0
C942 C 0.63457 0.14401 0.31274 0.0
C943 C 0.61556 0.15525 0.32126 0.0
C944 C 0.59373 0.15337 0.1729 0.0
H945 H 0.52613 0.16829 0.1733 0.0
H946 H 0.55301 0.17213 0.21057 0.0
H947 H 0.57855 0.15438 0.09996 0.0
H948 H 0.6341 0.13268 0.22566 0.0
H949 H 0.61222 0.13721 0.18171 0.0
H950 H 0.58279 0.14886 0.32365 0.0
C951 C 0.54545 0.16172 0.1801 0.0
C952 C 0.57958 0.15345 0.14894 0.0
C953 C 0.52996 0.15939 0.15902 0.0
C954 C 0.62917 0.1392 0.25243 0.0
C955 C 0.61666 0.14192 0.22727 0.0
C956 C 0.58243 0.15061 0.27491 0.0
C957 C 0.55109 0.15065 0.16228 0.0
C958 C 0.5668 0.15219 0.18775 0.0
C959 C 0.6095 0.14982 0.26152 0.0
C960 C 0.59522 0.15157 0.23622 0.0
H961 H 0.51781 0.12373 0.07507 0.0
H962 H 0.5451 0.12852 0.10883 0.0
H963 H 0.55868 0.14988 0.28173 0.0
H964 H 0.63182 0.15598 0.3935 0.0
H965 H 0.61077 0.16175 0.34882 0.0
C966 C 0.37955 0.52718 0.36172 0.0
C967 C 0.38004 0.51234 0.37355 0.0
C968 C 0.39152 0.54253 0.38797 0.0
C969 C 0.42346 0.56053 0.51234 0.0
H970 H 0.44598 0.59956 0.4065 0.0
C971 C 0.4902 0.61471 0.56058 0.0
C972 C 0.49419 0.63146 0.5501 0.0
C973 C 0.47451 0.60123 0.54403 0.0
C974 C 0.43963 0.58888 0.43698 0.0
H975 H 0.39298 0.50186 0.42443 0.0
H976 H 0.41385 0.52847 0.46934 0.0
H977 H 0.42144 0.57388 0.36884 0.0
H978 H 0.48449 0.647 0.51378 0.0
H979 H 0.45706 0.62328 0.48364 0.0
H980 H 0.44196 0.5753 0.5797 0.0
C981 C 0.40424 0.52835 0.44008 0.0
C982 C 0.42555 0.57415 0.41543 0.0
C983 C 0.39238 0.51309 0.41373 0.0
C984 C 0.48194 0.63431 0.5223 0.0
C985 C 0.46621 0.62072 0.50511 0.0
C986 C 0.43752 0.5752 0.53374 0.0
C987 C 0.40411 0.54331 0.42707 0.0
C988 C 0.41758 0.55965 0.45234 0.0
C989 C 0.46234 0.60403 0.51584 0.0
C990 C 0.44605 0.58939 0.4958 0.0
H991 H 0.37023 0.52702 0.33077 0.0
H992 H 0.39098 0.55379 0.37738 0.0
H993 H 0.4174 0.54974 0.54247 0.0
H994 H 0.49939 0.61188 0.57995 0.0
H995 H 0.47211 0.58854 0.55164 0.0
C996 C 0.87332 0.38354 0.54231 0.0
C997 C 0.86875 0.3763 0.48378 0.0
C998 C 0.8712 0.39712 0.55856 0.0
C999 C 0.86825 0.43224 0.4902 0.0
H1000 H 0.85624 0.43762 0.6552 0.0
C1001 C 0.88467 0.49673 0.59083 0.0
C1002 C 0.87345 0.49772 0.63226 0.0
C1003 C 0.88154 0.48117 0.56826 0.0
C1004 C 0.85938 0.43624 0.60866 0.0
H1005 H 0.85779 0.37736 0.39721 0.0
H1006 H 0.85411 0.40111 0.42562 0.0
H1007 H 0.85486 0.4113 0.62563 0.0
H1008 H 0.84984 0.48315 0.68081 0.0
H1009 H 0.84425 0.45592 0.64072 0.0
H1010 H 0.87284 0.4572 0.47331 0.0
C1011 C 0.85954 0.39638 0.45866 0.0
C1012 C 0.85878 0.42122 0.59191 0.0
C1013 C 0.86164 0.38277 0.44239 0.0
C1014 C 0.85869 0.48282 0.64878 0.0
C1015 C 0.85558 0.46721 0.6263 0.0
C1016 C 0.86886 0.44727 0.50696 0.0
C1017 C 0.86448 0.40385 0.51672 0.0
C1018 C 0.86351 0.41914 0.53281 0.0
C1019 C 0.86712 0.46618 0.58651 0.0
C1020 C 0.86474 0.44958 0.56673 0.0
H1021 H 0.87913 0.37913 0.575 0.0
H1022 H 0.87543 0.40273 0.60327 0.0
H1023 H 0.87209 0.43114 0.44444 0.0
H1024 H 0.89605 0.508 0.57655 0.0
H1025 H 0.89078 0.48087 0.53817 0.0
C1026 C 0.39569 0.87403 0.88023 0.0
C1027 C 0.37937 0.86478 0.85511 0.0
C1028 C 0.40879 0.87167 0.8593 0.0
C1029 C 0.42345 0.85998 0.72417 0.0
H1030 H 0.45401 0.85573 0.83581 0.0
C1031 C 0.4815 0.8568 0.6364 0.0
C1032 C 0.49639 0.86548 0.67086 0.0
C1033 C 0.46616 0.85436 0.6595 0.0
C1034 C 0.44573 0.8571 0.80392 0.0
H1035 H 0.36412 0.84535 0.7891 0.0
H1036 H 0.38723 0.84176 0.75114 0.0
H1037 H 0.42921 0.85589 0.87564 0.0
H1038 H 0.50694 0.87864 0.75599 0.0
H1039 H 0.48046 0.87485 0.79551 0.0
H1040 H 0.44027 0.86201 0.65265 0.0
C1041 C 0.38973 0.85079 0.78728 0.0
C1042 C 0.43146 0.85708 0.82683 0.0
C1043 C 0.37653 0.85293 0.80891 0.0
C1044 C 0.49562 0.87162 0.72885 0.0
C1045 C 0.48037 0.86937 0.75159 0.0
C1046 C 0.43785 0.86025 0.70126 0.0
C1047 C 0.40601 0.86021 0.81207 0.0
C1048 C 0.4203 0.85874 0.78728 0.0
C1049 C 0.46542 0.86075 0.71724 0.0
C1050 C 0.44934 0.85906 0.74092 0.0
H1051 H 0.39859 0.88356 0.91472 0.0
H1052 H 0.42127 0.87928 0.87865 0.0
H1053 H 0.41512 0.86144 0.69272 0.0
H1054 H 0.48172 0.85185 0.59169 0.0
H1055 H 0.45489 0.84744 0.63205 0.0
C1056 C 0.51834 0.38493 0.96341 0.0
C1057 C 0.51707 0.37872 0.02307 0.0
C1058 C 0.53321 0.39895 0.94335 0.0
C1059 C 0.57882 0.42591 0.97378 0.0
H1060 H 0.57263 0.45904 0.88495 0.0
C1061 C 0.63378 0.49281 0.9068 0.0
C1062 C 0.63235 0.49903 0.84976 0.0
C1063 C 0.62059 0.47749 0.92894 0.0
C1064 C 0.57462 0.44984 0.90897 0.0
H1065 H 0.53075 0.38208 0.10766 0.0
H1066 H 0.55677 0.4068 0.07261 0.0
H1067 H 0.54814 0.43353 0.92152 0.0
H1068 H 0.61663 0.49359 0.7694 0.0
H1069 H 0.59388 0.4669 0.80724 0.0
H1070 H 0.60543 0.4424 0.9609 0.0
C1071 C 0.54621 0.40069 0.04139 0.0
C1072 C 0.56055 0.4352 0.93 0.0
C1073 C 0.53126 0.38663 0.06161 0.0
C1074 C 0.61792 0.48928 0.81409 0.0
C1075 C 0.60486 0.47401 0.83591 0.0
C1076 C 0.59298 0.44063 0.95248 0.0
C1077 C 0.54722 0.4072 0.98238 0.0
C1078 C 0.56244 0.42296 0.96202 0.0
C1079 C 0.6058 0.46812 0.89424 0.0
C1080 C 0.59101 0.45267 0.91914 0.0
H1081 H 0.50764 0.37935 0.93266 0.0
H1082 H 0.53365 0.40349 0.89732 0.0
H1083 H 0.58068 0.41669 0.99818 0.0
H1084 H 0.64476 0.50011 0.93528 0.0
H1085 H 0.6217 0.47332 0.97411 0.0
C1086 C 0.15646 0.52597 0.13711 0.0
C1087 C 0.14131 0.51102 0.12434 0.0
C1088 C 0.15984 0.54126 0.11036 0.0
C1089 C 0.14632 0.559 0.98365 0.0
H1090 H 0.16212 0.59801 0.08917 0.0
C1091 C 0.1337 0.61301 0.93235 0.0
C1092 C 0.14637 0.62978 0.94351 0.0
C1093 C 0.13591 0.59956 0.94931 0.0
C1094 C 0.15799 0.58733 0.05879 0.0
H1095 H 0.11823 0.50029 0.07123 0.0
H1096 H 0.12395 0.52679 0.02553 0.0
H1097 H 0.16093 0.57243 0.12787 0.0
H1098 H 0.17145 0.64536 0.9812 0.0
H1099 H 0.17513 0.6217 0.01207 0.0
H1100 H 0.14281 0.57368 0.91532 0.0
C1101 C 0.13331 0.5268 0.05589 0.0
C1102 C 0.15731 0.57266 0.08094 0.0
C1103 C 0.12991 0.5116 0.08271 0.0
C1104 C 0.16137 0.63266 0.97219 0.0
C1105 C 0.1635 0.61911 0.9898 0.0
C1106 C 0.14694 0.57361 0.96165 0.0
C1107 C 0.14821 0.54188 0.06985 0.0
C1108 C 0.15105 0.55816 0.04411 0.0
C1109 C 0.15076 0.6024 0.9786 0.0
C1110 C 0.15236 0.5878 0.99943 0.0
H1111 H 0.16546 0.52595 0.16918 0.0
H1112 H 0.17151 0.55261 0.12169 0.0
H1113 H 0.1418 0.54821 0.95357 0.0
H1114 H 0.12175 0.61014 0.91225 0.0
H1115 H 0.12568 0.58685 0.94123 0.0
C1116 C 0.38967 0.06575 0.01422 0.0
C1117 C 0.40103 0.0689 0.06225 0.0
C1118 C 0.37556 0.0496 0.0066 0.0
C1119 C 0.35039 0.00765 0.08251 0.0
H1120 H 0.3498 0.98949 0.92202 0.0
C1121 C 0.33897 0.94145 0.04363 0.0
C1122 C 0.33157 0.9327 0.98946 0.0
C1123 C 0.34096 0.95736 0.05403 0.0
C1124 C 0.34938 0.99435 0.96669 0.0
H1125 H 0.40631 0.05823 0.14156 0.0
H1126 H 0.38169 0.03035 0.1295 0.0
H1127 H 0.36543 0.01988 0.938 0.0
H1128 H 0.31972 0.93324 0.90466 0.0
H1129 H 0.32335 0.96139 0.92242 0.0
H1130 H 0.33519 0.98207 0.112 0.0
C1131 C 0.38342 0.04014 0.09769 0.0
C1132 C 0.35837 0.01182 0.97588 0.0
C1133 C 0.39757 0.0561 0.10461 0.0
C1134 C 0.32522 0.93967 0.94725 0.0
C1135 C 0.32748 0.95582 0.95717 0.0
C1136 C 0.34141 0.99021 0.07333 0.0
C1137 C 0.37254 0.03649 0.04746 0.0
C1138 C 0.35963 0.01862 0.03454 0.0
C1139 C 0.33585 0.96506 0.0099 0.0
C1140 C 0.34146 0.98332 0.01597 0.0
H1141 H 0.3923 0.0754 0.98044 0.0
H1142 H 0.3674 0.04718 0.96753 0.0
H1143 H 0.35084 0.01251 0.12801 0.0
H1144 H 0.34411 0.93637 0.07655 0.0
H1145 H 0.34765 0.96413 0.09473 0.0
C1146 C 0.39191 0.32646 0.19391 0.0
C1147 C 0.40121 0.32979 0.13976 0.0
C1148 C 0.37836 0.32952 0.19743 0.0
C1149 C 0.35288 0.34363 0.10398 0.0
H1150 H 0.35443 0.36707 0.25338 0.0
C1151 C 0.34338 0.40086 0.11949 0.0
C1152 C 0.33544 0.40292 0.17097 0.0
C1153 C 0.34524 0.38669 0.11368 0.0
C1154 C 0.35351 0.36025 0.2118 0.0
H1155 H 0.40356 0.33839 0.0465 0.0
H1156 H 0.38034 0.34405 0.05233 0.0
H1157 H 0.36931 0.35138 0.24799 0.0
H1158 H 0.32238 0.39137 0.2552 0.0
H1159 H 0.32599 0.36665 0.24585 0.0
H1160 H 0.33813 0.35379 0.06664 0.0
C1161 C 0.38289 0.33858 0.09186 0.0
C1162 C 0.36205 0.35116 0.20863 0.0
C1163 C 0.39626 0.33533 0.08831 0.0
C1164 C 0.32834 0.38997 0.21464 0.0
C1165 C 0.33056 0.37592 0.20956 0.0
C1166 C 0.34456 0.35296 0.10691 0.0
C1167 C 0.37413 0.33635 0.14718 0.0
C1168 C 0.36235 0.34317 0.154 0.0
C1169 C 0.33954 0.37444 0.16 0.0
C1170 C 0.34521 0.36178 0.16029 0.0
H1171 H 0.39576 0.32249 0.23452 0.0
H1172 H 0.37176 0.32732 0.24048 0.0
H1173 H 0.3524 0.33732 0.0616 0.0
H1174 H 0.34909 0.41076 0.08552 0.0
H1175 H 0.35234 0.38602 0.07525 0.0
C1176 C 0.06687 0.40073 0.38433 0.0
C1177 C 0.07652 0.40234 0.3323 0.0
C1178 C 0.05099 0.38649 0.39254 0.0
C1179 C 0.01563 0.35833 0.29956 0.0
H1180 H 0.99539 0.33748 0.45429 0.0
C1181 C 0.94357 0.32414 0.32673 0.0
C1182 C 0.93821 0.32856 0.38004 0.0
C1183 C 0.96019 0.32724 0.32195 0.0
C1184 C 1.00078 0.34318 0.41065 0.0
H1185 H 0.0776 0.39002 0.24946 0.0
H1186 H 0.0495 0.36513 0.26303 0.0
H1187 H 0.02605 0.35417 0.44529 0.0
H1188 H 0.94554 0.33907 0.47066 0.0
H1189 H 0.97437 0.34469 0.46267 0.0
H1190 H 0.99055 0.3486 0.26587 0.0
C1191 C 0.05437 0.37481 0.29792 0.0
C1192 C 0.01838 0.35265 0.40548 0.0
C1193 C 0.07049 0.38896 0.29044 0.0
C1194 C 0.94932 0.3352 0.42962 0.0
C1195 C 0.96589 0.33841 0.42485 0.0
C1196 C 0.99804 0.34908 0.30492 0.0
C1197 C 0.04424 0.37371 0.3481 0.0
C1198 C 0.02599 0.36078 0.35041 0.0
C1199 C 0.9718 0.33509 0.37009 0.0
C1200 C 0.99033 0.34187 0.36118 0.0
H1201 H 0.0712 0.41097 0.41694 0.0
H1202 H 0.04346 0.38612 0.43136 0.0
H1203 H 0.02109 0.3646 0.25668 0.0
H1204 H 0.93528 0.31932 0.28748 0.0
H1205 H 0.96414 0.32425 0.27943 0.0
C1206 C 0.61618 0.94591 0.58679 0.0
C1207 C 0.61081 0.93495 0.53664 0.0
C1208 C 0.62933 0.96251 0.58064 0.0
C1209 C 0.6483 0.99486 0.45982 0.0
H1210 H 0.67372 0.02272 0.59721 0.0
C1211 C 0.68156 0.06742 0.4479 0.0
C1212 C 0.67511 0.07362 0.49282 0.0
C1213 C 0.67921 0.05112 0.45299 0.0
C1214 C 0.66686 0.01509 0.5582 0.0
H1215 H 0.61527 0.93228 0.44147 0.0
H1216 H 0.63888 0.96117 0.43087 0.0
H1217 H 0.66002 0.99209 0.6053 0.0
H1218 H 0.66229 0.06831 0.57997 0.0
H1219 H 0.65876 0.04019 0.59004 0.0
H1220 H 0.65494 0.01793 0.41332 0.0
C1221 C 0.63279 0.9571 0.47492 0.0
C1222 C 0.65888 0.99751 0.56288 0.0
C1223 C 0.61947 0.94047 0.48107 0.0
C1224 C 0.66747 0.06383 0.54494 0.0
C1225 C 0.66548 0.04775 0.55071 0.0
C1226 C 0.6565 0.01243 0.45486 0.0
C1227 C 0.63742 0.96858 0.52396 0.0
C1228 C 0.64888 0.98711 0.51467 0.0
C1229 C 0.67074 0.04095 0.50375 0.0
C1230 C 0.66532 0.02271 0.50479 0.0
H1231 H 0.60937 0.94199 0.62967 0.0
H1232 H 0.63221 0.97087 0.61933 0.0
H1233 H 0.64061 0.98743 0.42184 0.0
H1234 H 0.68727 0.07465 0.40684 0.0
H1235 H 0.68339 0.04619 0.41615 0.0
C1236 C 0.61558 0.66605 0.55039 0.0
C1237 C 0.61278 0.67593 0.59237 0.0
C1238 C 0.63 0.66457 0.55444 0.0
C1239 C 0.65744 0.66347 0.67116 0.0
H1240 H 0.67789 0.65454 0.53159 0.0
C1241 C 0.68951 0.62366 0.69873 0.0
C1242 C 0.68199 0.60965 0.65959 0.0
C1243 C 0.68781 0.6378 0.68695 0.0
C1244 C 0.67246 0.65714 0.57117 0.0
H1245 H 0.62298 0.69257 0.6702 0.0
H1246 H 0.64835 0.68982 0.67819 0.0
H1247 H 0.66208 0.66926 0.5171 0.0
H1248 H 0.66811 0.59986 0.57537 0.0
H1249 H 0.66549 0.62448 0.55393 0.0
H1250 H 0.66687 0.65041 0.72467 0.0
C1251 C 0.63945 0.68337 0.64161 0.0
C1252 C 0.6634 0.66557 0.56287 0.0
C1253 C 0.62505 0.68507 0.63681 0.0
C1254 C 0.67412 0.61058 0.60595 0.0
C1255 C 0.67266 0.62474 0.59368 0.0
C1256 C 0.66651 0.65502 0.67948 0.0
C1257 C 0.64183 0.67272 0.60138 0.0
C1258 C 0.65508 0.66809 0.6123 0.0
C1259 C 0.6788 0.6382 0.6354 0.0
C1260 C 0.67341 0.65103 0.6291 0.0
H1261 H 0.60617 0.65877 0.51608 0.0
H1262 H 0.63123 0.65607 0.52326 0.0
H1263 H 0.65112 0.6651 0.71019 0.0
H1264 H 0.69543 0.62311 0.74086 0.0
H1265 H 0.69276 0.64801 0.71976 0.0
C1266 C 0.0684 0.68281 0.86151 0.0
C1267 C 0.0717 0.67355 0.9049 0.0
C1268 C 0.05224 0.68101 0.8577 0.0
C1269 C 0.01058 0.6625 0.93772 0.0
H1270 H 0.99172 0.64809 0.7757 0.0
C1271 C 0.9452 0.60706 0.89289 0.0
C1272 C 0.93617 0.60643 0.84027 0.0
C1273 C 0.96075 0.62127 0.90567 0.0
C1274 C 0.99677 0.65249 0.82101 0.0
H1275 H 0.06138 0.65609 0.98041 0.0
H1276 H 0.03351 0.65319 0.97491 0.0
H1277 H 0.02221 0.663 0.78948 0.0
H1278 H 0.93569 0.62042 0.76142 0.0
H1279 H 0.96318 0.64541 0.7833 0.0
H1280 H 0.98506 0.65097 0.96971 0.0
C1281 C 0.04317 0.66186 0.94382 0.0
C1282 C 0.0143 0.66106 0.82892 0.0
C1283 C 0.05911 0.66345 0.9469 0.0
C1284 C 0.94235 0.62073 0.80277 0.0
C1285 C 0.95814 0.63493 0.81498 0.0
C1286 C 0.99306 0.65392 0.92982 0.0
C1287 C 0.03931 0.67014 0.89787 0.0
C1288 C 0.02137 0.66541 0.88776 0.0
C1289 C 0.96778 0.63509 0.86543 0.0
C1290 C 0.98594 0.64808 0.87176 0.0
H1291 H 0.0779 0.69049 0.82813 0.0
H1292 H 0.04967 0.68757 0.82188 0.0
H1293 H 0.01564 0.66597 0.98351 0.0
H1294 H 0.94072 0.59611 0.92217 0.0
H1295 H 0.96785 0.62083 0.9445 0.0
loop_
_geom_bond_atom_site_label_1
_geom_bond_atom_site_label_2
_geom_bond_distance
_geom_bond_site_symmetry_2
_ccdc_geom_bond_type
C0 C1 1.351 . S
C0 N3 1.368 . S
C0 H5 0.931 . S
C1 C0 1.351 . S
C1 N2 1.373 . S
C1 H29 0.930 . S
N2 C1 1.373 . S
N2 C4 1.340 . S
N3 C0 1.368 . S
N3 C4 1.321 . S
N3 Co6 2.135 . S
C4 N2 1.340 . S
C4 N3 1.321 . S
C4 H28 0.930 . S
H5 C0 0.931 . S
Co6 N3 2.135 . S
Co6 N9 2.121 . S
Co6 O14 2.055 . S
Co6 O17 2.039 . S
Co6 N20 2.140 . S
C7 O8 1.227 . S
C7 O17 1.265 . S
O8 C7 1.227 . S
N9 Co6 2.121 . S
N9 C11 1.375 1_554 S
N9 C12 1.313 1_554 S
C10 C11 1.338 . S
C10 N13 1.377 . S
C10 H30 0.930 . S
C11 N9 1.375 1_556 S
C11 C10 1.338 . S
C11 H15 0.931 1_556 S
C12 N9 1.313 1_556 S
C12 N13 1.344 . S
C12 H16 0.930 . S
N13 C10 1.377 . S
N13 C12 1.344 . S
O14 Co6 2.055 . S
O14 C18 1.253 . S
H15 C11 0.931 1_554 S
H16 C12 0.930 . S
O17 Co6 2.039 . S
O17 C7 1.265 . S
C18 O14 1.253 . S
C18 O19 1.227 . S
O19 C18 1.227 . S
N20 Co6 2.140 . S
N20 C23 1.346 . S
N20 C24 1.345 . S
C21 C22 1.387 . S
C21 C25 1.391 . S
C22 C21 1.387 . S
C22 C23 1.369 . S
C22 H31 0.929 . S
C23 N20 1.346 . S
C23 C22 1.369 . S
C23 H26 0.928 . S
C24 N20 1.345 . S
C24 C25 1.371 . S
C24 H27 0.931 . S
C25 C21 1.391 . S
C25 C24 1.371 . S
C25 H32 0.930 . S
H26 C23 0.928 . S
H27 C24 0.931 . S
H28 C4 0.930 . S
H29 C1 0.930 . S
H30 C10 0.930 . S
H31 C22 0.929 . S
H32 C25 0.930 . S
C33 C34 1.351 . S
C33 N36 1.368 . S
C33 H38 0.931 . S
C34 C33 1.351 . S
C34 N35 1.373 . S
C34 H62 0.930 . S
N35 C34 1.373 . S
N35 C37 1.340 . S
N36 C33 1.368 . S
N36 C37 1.321 . S
N36 Co39 2.135 . S
C37 N35 1.340 . S
C37 N36 1.321 . S
C37 H61 0.930 . S
H38 C33 0.931 . S
Co39 N36 2.135 . S
Co39 N42 2.121 . S
Co39 O47 2.055 . S
Co39 O50 2.039 . S
Co39 N53 2.140 . S
C40 O41 1.227 . S
C40 O50 1.265 . S
O41 C40 1.227 . S
N42 Co39 2.121 . S
N42 C44 1.375 . S
N42 C45 1.313 . S
C43 C44 1.338 . S
C43 N46 1.377 . S
C43 H63 0.930 . S
C44 N42 1.375 . S
C44 C43 1.338 . S
C44 H48 0.931 . S
C45 N42 1.313 . S
C45 N46 1.344 . S
C45 H49 0.930 . S
N46 C43 1.377 . S
N46 C45 1.344 . S
O47 Co39 2.055 . S
O47 C51 1.253 . S
H48 C44 0.931 . S
H49 C45 0.930 . S
O50 Co39 2.039 . S
O50 C40 1.265 . S
C51 O47 1.253 . S
C51 O52 1.227 . S
O52 C51 1.227 . S
N53 Co39 2.140 . S
N53 C56 1.346 . S
N53 C57 1.345 . S
C54 C55 1.387 . S
C54 C58 1.391 . S
C55 C54 1.387 . S
C55 C56 1.369 . S
C55 H64 0.929 . S
C56 N53 1.346 . S
C56 C55 1.369 . S
C56 H59 0.928 . S
C57 N53 1.345 . S
C57 C58 1.371 . S
C57 H60 0.931 . S
C58 C54 1.391 . S
C58 C57 1.371 . S
C58 H65 0.930 . S
H59 C56 0.928 . S
H60 C57 0.931 . S
H61 C37 0.930 . S
H62 C34 0.930 . S
H63 C43 0.930 . S
H64 C55 0.929 . S
H65 C58 0.930 . S
C66 C67 1.351 . S
C66 N69 1.368 . S
C66 H71 0.931 . S
C67 C66 1.351 . S
C67 N68 1.373 . S
C67 H95 0.930 . S
N68 C67 1.373 . S
N68 C70 1.340 . S
N69 C66 1.368 . S
N69 C70 1.321 . S
N69 Co72 2.135 . S
C70 N68 1.340 . S
C70 N69 1.321 . S
C70 H94 0.930 . S
H71 C66 0.931 . S
Co72 N69 2.135 . S
Co72 N75 2.121 . S
Co72 O80 2.055 . S
Co72 O83 2.039 . S
Co72 N86 2.140 . S
C73 O74 1.227 . S
C73 O83 1.265 . S
O74 C73 1.227 . S
N75 Co72 2.121 . S
N75 C77 1.375 . S
N75 C78 1.313 . S
C76 C77 1.338 . S
C76 N79 1.377 . S
C76 H96 0.930 . S
C77 N75 1.375 . S
C77 C76 1.338 . S
C77 H81 0.931 . S
C78 N75 1.313 . S
C78 N79 1.344 . S
C78 H82 0.930 . S
N79 C76 1.377 . S
N79 C78 1.344 . S
O80 Co72 2.055 . S
O80 C84 1.253 . S
H81 C77 0.931 . S
H82 C78 0.930 . S
O83 Co72 2.039 . S
O83 C73 1.265 . S
C84 O80 1.253 . S
C84 O85 1.227 . S
O85 C84 1.227 . S
N86 Co72 2.140 . S
N86 C89 1.346 . S
N86 C90 1.345 . S
C87 C88 1.387 . S
C87 C91 1.391 . S
C88 C87 1.387 . S
C88 C89 1.369 . S
C88 H97 0.929 . S
C89 N86 1.346 . S
C89 C88 1.369 . S
C89 H92 0.928 . S
C90 N86 1.345 . S
C90 C91 1.371 . S
C90 H93 0.931 . S
C91 C87 1.391 . S
C91 C90 1.371 . S
C91 H98 0.930 . S
H92 C89 0.928 . S
H93 C90 0.931 . S
H94 C70 0.930 . S
H95 C67 0.930 . S
H96 C76 0.930 . S
H97 C88 0.929 . S
H98 C91 0.930 . S
C99 C100 1.351 . S
C99 N102 1.368 . S
C99 H104 0.931 . S
C100 C99 1.351 . S
C100 N101 1.373 . S
C100 H128 0.930 . S
N101 C100 1.373 . S
N101 C103 1.340 . S
N102 C99 1.368 . S
N102 C103 1.321 . S
N102 Co105 2.135 . S
C103 N101 1.340 . S
C103 N102 1.321 . S
C103 H127 0.930 . S
H104 C99 0.931 . S
Co105 N102 2.135 . S
Co105 N108 2.121 . S
Co105 O113 2.055 . S
Co105 O116 2.039 . S
Co105 N119 2.140 . S
C106 O107 1.227 . S
C106 O116 1.265 . S
O107 C106 1.227 . S
N108 Co105 2.121 . S
N108 C110 1.375 . S
N108 C111 1.313 . S
C109 C110 1.338 . S
C109 N112 1.377 . S
C109 H129 0.930 . S
C110 N108 1.375 . S
C110 C109 1.338 . S
C110 H114 0.931 . S
C111 N108 1.313 . S
C111 N112 1.344 . S
C111 H115 0.930 . S
N112 C109 1.377 . S
N112 C111 1.344 . S
O113 Co105 2.055 . S
O113 C117 1.253 . S
H114 C110 0.931 . S
H115 C111 0.930 . S
O116 Co105 2.039 . S
O116 C106 1.265 . S
C117 O113 1.253 . S
C117 O118 1.227 . S
O118 C117 1.227 . S
N119 Co105 2.140 . S
N119 C122 1.346 . S
N119 C123 1.345 . S
C120 C121 1.387 . S
C120 C124 1.391 . S
C121 C120 1.387 . S
C121 C122 1.369 . S
C121 H130 0.929 . S
C122 N119 1.346 . S
C122 C121 1.369 . S
C122 H125 0.928 . S
C123 N119 1.345 . S
C123 C124 1.371 . S
C123 H126 0.931 . S
C124 C120 1.391 . S
C124 C123 1.371 . S
C124 H131 0.930 . S
H125 C122 0.928 . S
H126 C123 0.931 . S
H127 C103 0.930 . S
H128 C100 0.930 . S
H129 C109 0.930 . S
H130 C121 0.929 . S
H131 C124 0.930 . S
C132 C133 1.351 . S
C132 N135 1.368 . S
C132 H137 0.931 . S
C133 C132 1.351 . S
C133 N134 1.373 . S
C133 H161 0.930 . S
N134 C133 1.373 . S
N134 C136 1.340 . S
N135 C132 1.368 . S
N135 C136 1.321 . S
N135 Co138 2.135 . S
C136 N134 1.340 . S
C136 N135 1.321 . S
C136 H160 0.930 . S
H137 C132 0.931 . S
Co138 N135 2.135 . S
Co138 N141 2.121 . S
Co138 O146 2.055 . S
Co138 O149 2.039 . S
Co138 N152 2.140 . S
C139 O140 1.227 . S
C139 O149 1.265 . S
O140 C139 1.227 . S
N141 Co138 2.121 . S
N141 C143 1.375 . S
N141 C144 1.313 . S
C142 C143 1.338 . S
C142 N145 1.377 . S
C142 H162 0.930 . S
C143 N141 1.375 . S
C143 C142 1.338 . S
C143 H147 0.931 . S
C144 N141 1.313 . S
C144 N145 1.344 . S
C144 H148 0.930 . S
N145 C142 1.377 . S
N145 C144 1.344 . S
O146 Co138 2.055 . S
O146 C150 1.253 . S
H147 C143 0.931 . S
H148 C144 0.930 . S
O149 Co138 2.039 . S
O149 C139 1.265 . S
C150 O146 1.253 . S
C150 O151 1.227 . S
O151 C150 1.227 . S
N152 Co138 2.140 . S
N152 C155 1.346 . S
N152 C156 1.345 . S
C153 C154 1.387 . S
C153 C157 1.391 . S
C154 C153 1.387 . S
C154 C155 1.369 . S
C154 H163 0.929 . S
C155 N152 1.346 . S
C155 C154 1.369 . S
C155 H158 0.928 . S
C156 N152 1.345 . S
C156 C157 1.371 . S
C156 H159 0.931 . S
C157 C153 1.391 . S
C157 C156 1.371 . S
C157 H164 0.930 . S
H158 C155 0.928 . S
H159 C156 0.931 . S
H160 C136 0.930 . S
H161 C133 0.930 . S
H162 C142 0.930 . S
H163 C154 0.929 . S
H164 C157 0.930 . S
C165 C166 1.351 . S
C165 N168 1.368 . S
C165 H170 0.931 . S
C166 C165 1.351 . S
C166 N167 1.373 . S
C166 H194 0.930 . S
N167 C166 1.373 . S
N167 C169 1.340 . S
N168 C165 1.368 . S
N168 C169 1.321 . S
N168 Co171 2.135 1_554 S
C169 N167 1.340 . S
C169 N168 1.321 . S
C169 H193 0.930 . S
H170 C165 0.931 . S
Co171 N168 2.135 1_556 S
Co171 N174 2.121 . S
Co171 O179 2.055 . S
Co171 O182 2.039 . S
Co171 N185 2.140 . S
C172 O173 1.227 . S
C172 O182 1.265 . S
O173 C172 1.227 . S
N174 Co171 2.121 . S
N174 C176 1.375 . S
N174 C177 1.313 . S
C175 C176 1.338 . S
C175 N178 1.377 . S
C175 H195 0.930 . S
C176 N174 1.375 . S
C176 C175 1.338 . S
C176 H180 0.931 . S
C177 N174 1.313 . S
C177 N178 1.344 . S
C177 H181 0.930 . S
N178 C175 1.377 . S
N178 C177 1.344 . S
O179 Co171 2.055 . S
O179 C183 1.253 . S
H180 C176 0.931 . S
H181 C177 0.930 . S
O182 Co171 2.039 . S
O182 C172 1.265 . S
C183 O179 1.253 . S
C183 O184 1.227 . S
O184 C183 1.227 . S
N185 Co171 2.140 . S
N185 C188 1.346 1_556 S
N185 C189 1.345 . S
C186 C187 1.387 1_556 S
C186 C190 1.391 . S
C187 C186 1.387 1_554 S
C187 C188 1.369 . S
C187 H196 0.929 . S
C188 N185 1.346 1_554 S
C188 C187 1.369 . S
C188 H191 0.928 . S
C189 N185 1.345 . S
C189 C190 1.371 . S
C189 H192 0.931 . S
C190 C186 1.391 . S
C190 C189 1.371 . S
C190 H197 0.930 . S
H191 C188 0.928 . S
H192 C189 0.931 . S
H193 C169 0.930 . S
H194 C166 0.930 . S
H195 C175 0.930 . S
H196 C187 0.929 . S
H197 C190 0.930 . S
C198 C199 1.351 . S
C198 N201 1.368 . S
C198 H203 0.931 . S
C199 C198 1.351 . S
C199 N200 1.373 . S
C199 H227 0.930 . S
N200 C199 1.373 . S
N200 C202 1.340 . S
N201 C198 1.368 . S
N201 C202 1.321 . S
N201 Co204 2.135 . S
C202 N200 1.340 . S
C202 N201 1.321 . S
C202 H226 0.930 . S
H203 C198 0.931 . S
Co204 N201 2.135 . S
Co204 N207 2.121 . S
Co204 O212 2.055 . S
Co204 O215 2.039 . S
Co204 N218 2.140 . S
C205 O206 1.227 . S
C205 O215 1.265 . S
O206 C205 1.227 . S
N207 Co204 2.121 . S
N207 C209 1.375 . S
N207 C210 1.313 . S
C208 C209 1.338 . S
C208 N211 1.377 . S
C208 H228 0.930 . S
C209 N207 1.375 . S
C209 C208 1.338 . S
C209 H213 0.931 . S
C210 N207 1.313 . S
C210 N211 1.344 . S
C210 H214 0.930 . S
N211 C208 1.377 . S
N211 C210 1.344 . S
O212 Co204 2.055 . S
O212 C216 1.253 . S
H213 C209 0.931 . S
H214 C210 0.930 . S
O215 Co204 2.039 . S
O215 C205 1.265 . S
C216 O212 1.253 . S
C216 O217 1.227 . S
O217 C216 1.227 . S
N218 Co204 2.140 . S
N218 C221 1.346 . S
N218 C222 1.345 . S
C219 C220 1.387 . S
C219 C223 1.391 . S
C220 C219 1.387 . S
C220 C221 1.369 . S
C220 H229 0.929 . S
C221 N218 1.346 . S
C221 C220 1.369 . S
C221 H224 0.928 . S
C222 N218 1.345 . S
C222 C223 1.371 . S
C222 H225 0.931 . S
C223 C219 1.391 . S
C223 C222 1.371 . S
C223 H230 0.930 . S
H224 C221 0.928 . S
H225 C222 0.931 . S
H226 C202 0.930 . S
H227 C199 0.930 . S
H228 C208 0.930 . S
H229 C220 0.929 . S
H230 C223 0.930 . S
C231 C232 1.351 . S
C231 N234 1.368 . S
C231 H236 0.931 . S
C232 C231 1.351 . S
C232 N233 1.373 . S
C232 H260 0.930 . S
N233 C232 1.373 . S
N233 C235 1.340 . S
N234 C231 1.368 . S
N234 C235 1.321 . S
N234 Co237 2.135 . S
C235 N233 1.340 . S
C235 N234 1.321 . S
C235 H259 0.930 . S
H236 C231 0.931 . S
Co237 N234 2.135 . S
Co237 N240 2.121 . S
Co237 O245 2.055 . S
Co237 O248 2.039 . S
Co237 N251 2.140 . S
C238 O239 1.227 . S
C238 O248 1.265 . S
O239 C238 1.227 . S
N240 Co237 2.121 . S
N240 C242 1.375 1_556 S
N240 C243 1.313 1_556 S
C241 C242 1.338 . S
C241 N244 1.377 . S
C241 H261 0.930 . S
C242 N240 1.375 1_554 S
C242 C241 1.338 . S
C242 H246 0.931 1_554 S
C243 N240 1.313 1_554 S
C243 N244 1.344 . S
C243 H247 0.930 . S
N244 C241 1.377 . S
N244 C243 1.344 . S
O245 Co237 2.055 . S
O245 C249 1.253 . S
H246 C242 0.931 1_556 S
H247 C243 0.930 . S
O248 Co237 2.039 . S
O248 C238 1.265 . S
C249 O245 1.253 . S
C249 O250 1.227 . S
O250 C249 1.227 . S
N251 Co237 2.140 . S
N251 C254 1.346 . S
N251 C255 1.345 . S
C252 C253 1.387 . S
C252 C256 1.391 . S
C253 C252 1.387 . S
C253 C254 1.369 . S
C253 H262 0.929 . S
C254 N251 1.346 . S
C254 C253 1.369 . S
C254 H257 0.928 . S
C255 N251 1.345 . S
C255 C256 1.371 . S
C255 H258 0.931 . S
C256 C252 1.391 . S
C256 C255 1.371 . S
C256 H263 0.930 . S
H257 C254 0.928 . S
H258 C255 0.931 . S
H259 C235 0.930 . S
H260 C232 0.930 . S
H261 C241 0.930 . S
H262 C253 0.929 . S
H263 C256 0.930 . S
C264 C265 1.351 . S
C264 N267 1.368 . S
C264 H269 0.931 . S
C265 C264 1.351 . S
C265 N266 1.373 . S
C265 H293 0.930 . S
N266 C265 1.373 . S
N266 C268 1.340 . S
N267 C264 1.368 . S
N267 C268 1.321 . S
N267 Co270 2.135 1_556 S
C268 N266 1.340 . S
C268 N267 1.321 . S
C268 H292 0.930 . S
H269 C264 0.931 . S
Co270 N267 2.135 1_554 S
Co270 N273 2.121 . S
Co270 O278 2.055 . S
Co270 O281 2.039 . S
Co270 N284 2.140 . S
C271 O272 1.227 . S
C271 O281 1.265 . S
O272 C271 1.227 . S
N273 Co270 2.121 . S
N273 C275 1.375 . S
N273 C276 1.313 . S
C274 C275 1.338 . S
C274 N277 1.377 . S
C274 H294 0.930 . S
C275 N273 1.375 . S
C275 C274 1.338 . S
C275 H279 0.931 . S
C276 N273 1.313 . S
C276 N277 1.344 . S
C276 H280 0.930 . S
N277 C274 1.377 . S
N277 C276 1.344 . S
O278 Co270 2.055 . S
O278 C282 1.253 . S
H279 C275 0.931 . S
H280 C276 0.930 . S
O281 Co270 2.039 . S
O281 C271 1.265 . S
C282 O278 1.253 . S
C282 O283 1.227 . S
O283 C282 1.227 . S
N284 Co270 2.140 . S
N284 C287 1.346 1_554 S
N284 C288 1.345 . S
C285 C286 1.387 1_554 S
C285 C289 1.391 . S
C286 C285 1.387 1_556 S
C286 C287 1.369 . S
C286 H295 0.929 . S
C287 N284 1.346 1_556 S
C287 C286 1.369 . S
C287 H290 0.928 . S
C288 N284 1.345 . S
C288 C289 1.371 . S
C288 H291 0.931 . S
C289 C285 1.391 . S
C289 C288 1.371 . S
C289 H296 0.930 . S
H290 C287 0.928 . S
H291 C288 0.931 . S
H292 C268 0.930 . S
H293 C265 0.930 . S
H294 C274 0.930 . S
H295 C286 0.929 . S
H296 C289 0.930 . S
C297 C298 1.351 . S
C297 N300 1.368 . S
C297 H302 0.931 . S
C298 C297 1.351 . S
C298 N299 1.373 . S
C298 H326 0.930 . S
N299 C298 1.373 . S
N299 C301 1.340 . S
N300 C297 1.368 . S
N300 C301 1.321 . S
N300 Co303 2.135 . S
C301 N299 1.340 . S
C301 N300 1.321 . S
C301 H325 0.930 . S
H302 C297 0.931 . S
Co303 N300 2.135 . S
Co303 N306 2.121 . S
Co303 O311 2.055 . S
Co303 O314 2.039 . S
Co303 N317 2.140 . S
C304 O305 1.227 . S
C304 O314 1.265 . S
O305 C304 1.227 . S
N306 Co303 2.121 . S
N306 C308 1.375 . S
N306 C309 1.313 . S
C307 C308 1.338 . S
C307 N310 1.377 . S
C307 H327 0.930 . S
C308 N306 1.375 . S
C308 C307 1.338 . S
C308 H312 0.931 . S
C309 N306 1.313 . S
C309 N310 1.344 . S
C309 H313 0.930 . S
N310 C307 1.377 . S
N310 C309 1.344 . S
O311 Co303 2.055 . S
O311 C315 1.253 . S
H312 C308 0.931 . S
H313 C309 0.930 . S
O314 Co303 2.039 . S
O314 C304 1.265 . S
C315 O311 1.253 . S
C315 O316 1.227 . S
O316 C315 1.227 . S
N317 Co303 2.140 . S
N317 C320 1.346 . S
N317 C321 1.345 . S
C318 C319 1.387 . S
C318 C322 1.391 . S
C319 C318 1.387 . S
C319 C320 1.369 . S
C319 H328 0.929 . S
C320 N317 1.346 . S
C320 C319 1.369 . S
C320 H323 0.928 . S
C321 N317 1.345 . S
C321 C322 1.371 . S
C321 H324 0.931 . S
C322 C318 1.391 . S
C322 C321 1.371 . S
C322 H329 0.930 . S
H323 C320 0.928 . S
H324 C321 0.931 . S
H325 C301 0.930 . S
H326 C298 0.930 . S
H327 C307 0.930 . S
H328 C319 0.929 . S
H329 C322 0.930 . S
C330 C331 1.351 . S
C330 N333 1.368 . S
C330 H335 0.931 . S
C331 C330 1.351 . S
C331 N332 1.373 . S
C331 H359 0.930 . S
N332 C331 1.373 . S
N332 C334 1.340 . S
N333 C330 1.368 . S
N333 C334 1.321 . S
N333 Co336 2.135 . S
C334 N332 1.340 . S
C334 N333 1.321 . S
C334 H358 0.930 . S
H335 C330 0.931 . S
Co336 N333 2.135 . S
Co336 N339 2.121 . S
Co336 O344 2.055 . S
Co336 O347 2.039 . S
Co336 N350 2.140 . S
C337 O338 1.227 . S
C337 O347 1.265 . S
O338 C337 1.227 . S
N339 Co336 2.121 . S
N339 C341 1.375 . S
N339 C342 1.313 . S
C340 C341 1.338 . S
C340 N343 1.377 . S
C340 H360 0.930 . S
C341 N339 1.375 . S
C341 C340 1.338 . S
C341 H345 0.931 . S
C342 N339 1.313 . S
C342 N343 1.344 . S
C342 H346 0.930 . S
N343 C340 1.377 . S
N343 C342 1.344 . S
O344 Co336 2.055 . S
O344 C348 1.253 . S
H345 C341 0.931 . S
H346 C342 0.930 . S
O347 Co336 2.039 . S
O347 C337 1.265 . S
C348 O344 1.253 . S
C348 O349 1.227 . S
O349 C348 1.227 . S
N350 Co336 2.140 . S
N350 C353 1.346 . S
N350 C354 1.345 . S
C351 C352 1.387 . S
C351 C355 1.391 . S
C352 C351 1.387 . S
C352 C353 1.369 . S
C352 H361 0.929 . S
C353 N350 1.346 . S
C353 C352 1.369 . S
C353 H356 0.928 . S
C354 N350 1.345 . S
C354 C355 1.371 . S
C354 H357 0.931 . S
C355 C351 1.391 . S
C355 C354 1.371 . S
C355 H362 0.930 . S
H356 C353 0.928 . S
H357 C354 0.931 . S
H358 C334 0.930 . S
H359 C331 0.930 . S
H360 C340 0.930 . S
H361 C352 0.929 . S
H362 C355 0.930 . S
C363 C364 1.351 . S
C363 N366 1.368 . S
C363 H368 0.931 . S
C364 C363 1.351 . S
C364 N365 1.373 . S
C364 H392 0.930 . S
N365 C364 1.373 . S
N365 C367 1.340 . S
N366 C363 1.368 . S
N366 C367 1.321 . S
N366 Co369 2.135 . S
C367 N365 1.340 . S
C367 N366 1.321 . S
C367 H391 0.930 . S
H368 C363 0.931 . S
Co369 N366 2.135 . S
Co369 N372 2.121 . S
Co369 O377 2.055 . S
Co369 O380 2.039 . S
Co369 N383 2.140 . S
C370 O371 1.227 . S
C370 O380 1.265 . S
O371 C370 1.227 . S
N372 Co369 2.121 . S
N372 C374 1.375 . S
N372 C375 1.313 . S
C373 C374 1.338 . S
C373 N376 1.377 . S
C373 H393 0.930 . S
C374 N372 1.375 . S
C374 C373 1.338 . S
C374 H378 0.931 . S
C375 N372 1.313 . S
C375 N376 1.344 . S
C375 H379 0.930 . S
N376 C373 1.377 . S
N376 C375 1.344 . S
O377 Co369 2.055 . S
O377 C381 1.253 . S
H378 C374 0.931 . S
H379 C375 0.930 . S
O380 Co369 2.039 . S
O380 C370 1.265 . S
C381 O377 1.253 . S
C381 O382 1.227 . S
O382 C381 1.227 . S
N383 Co369 2.140 . S
N383 C386 1.346 . S
N383 C387 1.345 . S
C384 C385 1.387 . S
C384 C388 1.391 . S
C385 C384 1.387 . S
C385 C386 1.369 . S
C385 H394 0.929 . S
C386 N383 1.346 . S
C386 C385 1.369 . S
C386 H389 0.928 . S
C387 N383 1.345 . S
C387 C388 1.371 . S
C387 H390 0.931 . S
C388 C384 1.391 . S
C388 C387 1.371 . S
C388 H395 0.930 . S
H389 C386 0.928 . S
H390 C387 0.931 . S
H391 C367 0.930 . S
H392 C364 0.930 . S
H393 C373 0.930 . S
H394 C385 0.929 . S
H395 C388 0.930 . S
C396 C397 1.349 . S
C396 C398 1.327 . S
C396 H421 0.950 . S
C397 C396 1.349 . S
C397 C413 1.348 . S
C398 C396 1.327 . S
C398 C417 1.429 . S
C398 H422 0.950 . S
C399 C416 1.574 . S
C399 C418 1.368 . S
C399 H423 0.949 1_554 S
H400 C404 0.949 . S
C401 C402 1.349 . S
C401 C403 1.327 . S
C401 H424 0.950 . S
C402 C401 1.349 . S
C402 C414 1.349 . S
C403 C401 1.327 . S
C403 C419 1.429 . S
C403 H425 0.950 . S
C404 H400 0.949 . S
C404 C412 1.574 . S
C404 C420 1.368 . S
H405 C413 0.950 1_556 S
H406 C411 0.950 1_556 S
H407 C412 0.949 . S
H408 C414 0.950 . S
H409 C415 0.950 . S
H410 C416 0.949 . S
C411 H406 0.950 1_554 S
C411 C413 1.327 . S
C411 C417 1.429 . S
C412 C404 1.574 . S
C412 H407 0.949 . S
C412 C418 1.368 . S
C413 C397 1.348 . S
C413 H405 0.950 1_554 S
C413 C411 1.327 . S
C414 C402 1.349 . S
C414 H408 0.950 . S
C414 C415 1.327 . S
C415 H409 0.950 . S
C415 C414 1.327 . S
C415 C419 1.429 . S
C416 C399 1.574 . S
C416 H410 0.949 . S
C416 C420 1.368 . S
C417 C398 1.429 . S
C417 C411 1.429 . S
C417 C418 1.523 . S
C418 C399 1.368 . S
C418 C412 1.368 . S
C418 C417 1.523 . S
C419 C403 1.429 . S
C419 C415 1.429 . S
C419 C420 1.523 . S
C420 C404 1.368 . S
C420 C416 1.368 . S
C420 C419 1.523 . S
H421 C396 0.950 . S
H422 C398 0.950 . S
H423 C399 0.949 1_556 S
H424 C401 0.950 . S
H425 C403 0.950 . S
C426 C427 1.349 . S
C426 C428 1.327 . S
C426 H451 0.950 . S
C427 C426 1.349 . S
C427 C443 1.349 . S
C428 C426 1.327 . S
C428 C447 1.429 . S
C428 H452 0.950 . S
C429 C446 1.574 . S
C429 C448 1.368 . S
C429 H453 0.949 . S
H430 C434 0.949 . S
C431 C432 1.349 . S
C431 C433 1.327 . S
C431 H454 0.950 . S
C432 C431 1.349 . S
C432 C444 1.349 . S
C433 C431 1.327 . S
C433 C449 1.429 . S
C433 H455 0.950 . S
C434 H430 0.949 . S
C434 C442 1.574 . S
C434 C450 1.368 . S
H435 C443 0.950 . S
H436 C441 0.950 . S
H437 C442 0.949 . S
H438 C444 0.950 . S
H439 C445 0.950 . S
H440 C446 0.949 . S
C441 H436 0.950 . S
C441 C443 1.327 . S
C441 C447 1.429 . S
C442 C434 1.574 . S
C442 H437 0.949 . S
C442 C448 1.368 . S
C443 C427 1.349 . S
C443 H435 0.950 . S
C443 C441 1.327 . S
C444 C432 1.349 . S
C444 H438 0.950 . S
C444 C445 1.327 . S
C445 H439 0.950 . S
C445 C444 1.327 . S
C445 C449 1.429 . S
C446 C429 1.574 . S
C446 H440 0.949 . S
C446 C450 1.368 . S
C447 C428 1.429 . S
C447 C441 1.429 . S
C447 C448 1.523 . S
C448 C429 1.368 . S
C448 C442 1.368 . S
C448 C447 1.523 . S
C449 C433 1.429 . S
C449 C445 1.429 . S
C449 C450 1.523 . S
C450 C434 1.368 . S
C450 C446 1.368 . S
C450 C449 1.523 . S
H451 C426 0.950 . S
H452 C428 0.950 . S
H453 C429 0.949 . S
H454 C431 0.950 . S
H455 C433 0.950 . S
C456 C457 1.349 . S
C456 C458 1.327 . S
C456 H481 0.950 . S
C457 C456 1.349 . S
C457 C473 1.349 . S
C458 C456 1.327 . S
C458 C477 1.429 . S
C458 H482 0.950 . S
C459 C476 1.574 . S
C459 C478 1.368 . S
C459 H483 0.949 . S
H460 C464 0.949 . S
C461 C462 1.349 . S
C461 C463 1.327 . S
C461 H484 0.950 . S
C462 C461 1.349 . S
C462 C474 1.349 . S
C463 C461 1.327 . S
C463 C479 1.429 . S
C463 H485 0.950 . S
C464 H460 0.949 . S
C464 C472 1.574 . S
C464 C480 1.368 . S
H465 C473 0.950 . S
H466 C471 0.950 . S
H467 C472 0.949 . S
H468 C474 0.950 . S
H469 C475 0.950 . S
H470 C476 0.949 . S
C471 H466 0.950 . S
C471 C473 1.327 . S
C471 C477 1.429 . S
C472 C464 1.574 . S
C472 H467 0.949 . S
C472 C478 1.368 . S
C473 C457 1.349 . S
C473 H465 0.950 . S
C473 C471 1.327 . S
C474 C462 1.349 . S
C474 H468 0.950 . S
C474 C475 1.327 . S
C475 H469 0.950 . S
C475 C474 1.327 . S
C475 C479 1.429 . S
C476 C459 1.574 . S
C476 H470 0.949 . S
C476 C480 1.368 . S
C477 C458 1.429 . S
C477 C471 1.429 . S
C477 C478 1.523 . S
C478 C459 1.368 . S
C478 C472 1.368 . S
C478 C477 1.523 . S
C479 C463 1.429 . S
C479 C475 1.429 . S
C479 C480 1.523 . S
C480 C464 1.368 . S
C480 C476 1.368 . S
C480 C479 1.523 . S
H481 C456 0.950 . S
H482 C458 0.950 . S
H483 C459 0.949 . S
H484 C461 0.950 . S
H485 C463 0.950 . S
C486 C487 1.349 . S
C486 C488 1.327 . S
C486 H511 0.950 . S
C487 C486 1.349 . S
C487 C503 1.349 . S
C488 C486 1.327 . S
C488 C507 1.429 . S
C488 H512 0.950 . S
C489 C506 1.574 . S
C489 C508 1.368 . S
C489 H513 0.949 . S
H490 C494 0.949 . S
C491 C492 1.349 . S
C491 C493 1.327 . S
C491 H514 0.950 . S
C492 C491 1.349 . S
C492 C504 1.349 . S
C493 C491 1.327 . S
C493 C509 1.429 . S
C493 H515 0.950 . S
C494 H490 0.949 . S
C494 C502 1.574 . S
C494 C510 1.368 . S
H495 C503 0.950 . S
H496 C501 0.950 . S
H497 C502 0.949 . S
H498 C504 0.950 . S
H499 C505 0.950 . S
H500 C506 0.949 . S
C501 H496 0.950 . S
C501 C503 1.327 . S
C501 C507 1.429 . S
C502 C494 1.574 . S
C502 H497 0.949 . S
C502 C508 1.368 . S
C503 C487 1.349 . S
C503 H495 0.950 . S
C503 C501 1.327 . S
C504 C492 1.349 . S
C504 H498 0.950 . S
C504 C505 1.327 . S
C505 H499 0.950 . S
C505 C504 1.327 . S
C505 C509 1.429 . S
C506 C489 1.574 . S
C506 H500 0.949 . S
C506 C510 1.368 . S
C507 C488 1.429 . S
C507 C501 1.429 . S
C507 C508 1.523 . S
C508 C489 1.368 . S
C508 C502 1.368 . S
C508 C507 1.523 . S
C509 C493 1.429 . S
C509 C505 1.429 . S
C509 C510 1.523 . S
C510 C494 1.368 . S
C510 C506 1.368 . S
C510 C509 1.523 . S
H511 C486 0.950 . S
H512 C488 0.950 . S
H513 C489 0.949 . S
H514 C491 0.950 . S
H515 C493 0.950 . S
C516 C517 1.349 . S
C516 C518 1.327 . S
C516 H541 0.950 . S
C517 C516 1.349 . S
C517 C533 1.349 . S
C518 C516 1.327 . S
C518 C537 1.429 . S
C518 H542 0.950 . S
C519 C536 1.574 . S
C519 C538 1.368 . S
C519 H543 0.949 . S
H520 C524 0.949 . S
C521 C522 1.349 . S
C521 C523 1.327 . S
C521 H544 0.950 . S
C522 C521 1.349 . S
C522 C534 1.349 . S
C523 C521 1.327 . S
C523 C539 1.429 . S
C523 H545 0.950 . S
C524 H520 0.949 . S
C524 C532 1.574 . S
C524 C540 1.368 . S
H525 C533 0.950 . S
H526 C531 0.950 . S
H527 C532 0.949 . S
H528 C534 0.950 . S
H529 C535 0.950 . S
H530 C536 0.949 . S
C531 H526 0.950 . S
C531 C533 1.327 . S
C531 C537 1.429 . S
C532 C524 1.574 . S
C532 H527 0.949 . S
C532 C538 1.368 . S
C533 C517 1.349 . S
C533 H525 0.950 . S
C533 C531 1.327 . S
C534 C522 1.349 . S
C534 H528 0.950 . S
C534 C535 1.327 . S
C535 H529 0.950 . S
C535 C534 1.327 . S
C535 C539 1.429 . S
C536 C519 1.574 . S
C536 H530 0.949 . S
C536 C540 1.368 . S
C537 C518 1.429 . S
C537 C531 1.429 . S
C537 C538 1.523 . S
C538 C519 1.368 . S
C538 C532 1.368 . S
C538 C537 1.523 . S
C539 C523 1.429 . S
C539 C535 1.429 . S
C539 C540 1.523 . S
C540 C524 1.368 . S
C540 C536 1.368 . S
C540 C539 1.523 . S
H541 C516 0.950 . S
H542 C518 0.950 . S
H543 C519 0.949 . S
H544 C521 0.950 . S
H545 C523 0.950 . S
C546 C547 1.349 . S
C546 C548 1.327 . S
C546 H571 0.950 . S
C547 C546 1.349 . S
C547 C563 1.349 . S
C548 C546 1.327 . S
C548 C567 1.429 . S
C548 H572 0.950 . S
C549 C566 1.574 . S
C549 C568 1.368 . S
C549 H573 0.949 . S
H550 C554 0.949 . S
C551 C552 1.349 . S
C551 C553 1.327 . S
C551 H574 0.950 . S
C552 C551 1.349 . S
C552 C564 1.349 . S
C553 C551 1.327 . S
C553 C569 1.429 . S
C553 H575 0.950 . S
C554 H550 0.949 . S
C554 C562 1.574 . S
C554 C570 1.368 . S
H555 C563 0.950 . S
H556 C561 0.950 . S
H557 C562 0.949 . S
H558 C564 0.950 1_554 S
H559 C565 0.950 1_554 S
H560 C566 0.949 . S
C561 H556 0.950 . S
C561 C563 1.327 . S
C561 C567 1.429 . S
C562 C554 1.574 . S
C562 H557 0.949 . S
C562 C568 1.368 . S
C563 C547 1.349 . S
C563 H555 0.950 . S
C563 C561 1.327 . S
C564 C552 1.349 . S
C564 H558 0.950 1_556 S
C564 C565 1.327 . S
C565 H559 0.950 1_556 S
C565 C564 1.327 . S
C565 C569 1.429 . S
C566 C549 1.574 . S
C566 H560 0.949 . S
C566 C570 1.368 . S
C567 C548 1.429 . S
C567 C561 1.429 . S
C567 C568 1.523 . S
C568 C549 1.368 . S
C568 C562 1.368 . S
C568 C567 1.523 . S
C569 C553 1.429 . S
C569 C565 1.429 . S
C569 C570 1.523 . S
C570 C554 1.368 . S
C570 C566 1.368 . S
C570 C569 1.523 . S
H571 C546 0.950 . S
H572 C548 0.950 . S
H573 C549 0.949 . S
H574 C551 0.950 . S
H575 C553 0.950 . S
C576 C577 1.349 . S
C576 C578 1.327 . S
C576 H601 0.950 . S
C577 C576 1.349 . S
C577 C593 1.349 . S
C578 C576 1.327 . S
C578 C597 1.429 . S
C578 H602 0.950 . S
C579 C596 1.574 . S
C579 C598 1.368 . S
C579 H603 0.949 . S
H580 C584 0.949 . S
C581 C582 1.349 . S
C581 C583 1.327 . S
C581 H604 0.950 . S
C582 C581 1.349 . S
C582 C594 1.349 . S
C583 C581 1.327 . S
C583 C599 1.429 . S
C583 H605 0.950 . S
C584 H580 0.949 . S
C584 C592 1.574 . S
C584 C600 1.368 . S
H585 C593 0.950 . S
H586 C591 0.950 . S
H587 C592 0.949 . S
H588 C594 0.950 . S
H589 C595 0.950 . S
H590 C596 0.949 . S
C591 H586 0.950 . S
C591 C593 1.327 . S
C591 C597 1.429 . S
C592 C584 1.574 . S
C592 H587 0.949 . S
C592 C598 1.368 . S
C593 C577 1.349 . S
C593 H585 0.950 . S
C593 C591 1.327 . S
C594 C582 1.349 . S
C594 H588 0.950 . S
C594 C595 1.327 . S
C595 H589 0.950 . S
C595 C594 1.327 . S
C595 C599 1.429 . S
C596 C579 1.574 . S
C596 H590 0.949 . S
C596 C600 1.368 . S
C597 C578 1.429 . S
C597 C591 1.429 . S
C597 C598 1.523 . S
C598 C579 1.368 . S
C598 C592 1.368 . S
C598 C597 1.523 . S
C599 C583 1.429 . S
C599 C595 1.429 . S
C599 C600 1.523 . S
C600 C584 1.368 . S
C600 C596 1.368 . S
C600 C599 1.523 . S
H601 C576 0.950 . S
H602 C578 0.950 . S
H603 C579 0.949 . S
H604 C581 0.950 . S
H605 C583 0.950 . S
C606 C607 1.349 . S
C606 C608 1.327 . S
C606 H631 0.950 . S
C607 C606 1.349 . S
C607 C623 1.349 . S
C608 C606 1.327 . S
C608 C627 1.429 . S
C608 H632 0.950 . S
C609 C626 1.574 . S
C609 C628 1.368 . S
C609 H633 0.949 . S
H610 C614 0.949 . S
C611 C612 1.349 . S
C611 C613 1.327 1_554 S
C611 H634 0.950 . S
C612 C611 1.349 . S
C612 C624 1.350 1_554 S
C613 C611 1.327 1_556 S
C613 C629 1.429 . S
C613 H635 0.950 . S
C614 H610 0.949 . S
C614 C622 1.574 . S
C614 C630 1.368 . S
H615 C623 0.950 . S
H616 C621 0.950 . S
H617 C622 0.949 . S
H618 C624 0.951 1_554 S
H619 C625 0.950 . S
H620 C626 0.949 . S
C621 H616 0.950 . S
C621 C623 1.327 . S
C621 C627 1.429 . S
C622 C614 1.574 . S
C622 H617 0.949 . S
C622 C628 1.368 . S
C623 C607 1.349 . S
C623 H615 0.950 . S
C623 C621 1.327 . S
C624 C612 1.350 1_556 S
C624 H618 0.951 1_556 S
C624 C625 1.325 . S
C625 H619 0.950 . S
C625 C624 1.325 . S
C625 C629 1.429 . S
C626 C609 1.574 . S
C626 H620 0.949 . S
C626 C630 1.368 . S
C627 C608 1.429 . S
C627 C621 1.429 . S
C627 C628 1.523 . S
C628 C609 1.368 . S
C628 C622 1.368 . S
C628 C627 1.523 . S
C629 C613 1.429 . S
C629 C625 1.429 . S
C629 C630 1.523 . S
C630 C614 1.368 . S
C630 C626 1.368 . S
C630 C629 1.523 . S
H631 C606 0.950 . S
H632 C608 0.950 . S
H633 C609 0.949 . S
H634 C611 0.950 . S
H635 C613 0.950 . S
C636 C637 1.349 . S
C636 C638 1.327 . S
C636 H661 0.950 . S
C637 C636 1.349 . S
C637 C653 1.349 . S
C638 C636 1.327 . S
C638 C657 1.429 . S
C638 H662 0.950 . S
C639 C656 1.574 . S
C639 C658 1.368 . S
C639 H663 0.949 . S
H640 C644 0.949 . S
C641 C642 1.349 . S
C641 C643 1.327 . S
C641 H664 0.950 . S
C642 C641 1.349 . S
C642 C654 1.349 . S
C643 C641 1.327 . S
C643 C659 1.429 . S
C643 H665 0.950 . S
C644 H640 0.949 . S
C644 C652 1.574 . S
C644 C660 1.368 1_556 S
H645 C653 0.950 . S
H646 C651 0.950 . S
H647 C652 0.949 . S
H648 C654 0.950 . S
H649 C655 0.950 . S
H650 C656 0.949 1_554 S
C651 H646 0.950 . S
C651 C653 1.327 . S
C651 C657 1.429 . S
C652 C644 1.574 . S
C652 H647 0.949 . S
C652 C658 1.368 . S
C653 C637 1.349 . S
C653 H645 0.950 . S
C653 C651 1.327 . S
C654 C642 1.349 . S
C654 H648 0.950 . S
C654 C655 1.327 . S
C655 H649 0.950 . S
C655 C654 1.327 . S
C655 C659 1.429 . S
C656 C639 1.574 . S
C656 H650 0.949 1_556 S
C656 C660 1.368 1_556 S
C657 C638 1.429 . S
C657 C651 1.429 . S
C657 C658 1.523 . S
C658 C639 1.368 . S
C658 C652 1.368 . S
C658 C657 1.523 . S
C659 C643 1.429 . S
C659 C655 1.429 . S
C659 C660 1.523 . S
C660 C644 1.368 1_554 S
C660 C656 1.368 1_554 S
C660 C659 1.523 . S
H661 C636 0.950 . S
H662 C638 0.950 . S
H663 C639 0.949 . S
H664 C641 0.950 . S
H665 C643 0.950 . S
C666 C667 1.349 . S
C666 C668 1.327 . S
C666 H691 0.950 . S
C667 C666 1.349 . S
C667 C683 1.349 . S
C668 C666 1.327 . S
C668 C687 1.429 . S
C668 H692 0.950 . S
C669 C686 1.574 . S
C669 C688 1.368 . S
C669 H693 0.949 . S
H670 C674 0.949 . S
C671 C672 1.349 . S
C671 C673 1.327 . S
C671 H694 0.950 . S
C672 C671 1.349 . S
C672 C684 1.349 . S
C673 C671 1.327 . S
C673 C689 1.429 . S
C673 H695 0.950 . S
C674 H670 0.949 . S
C674 C682 1.574 . S
C674 C690 1.368 . S
H675 C683 0.950 . S
H676 C681 0.950 . S
H677 C682 0.949 . S
H678 C684 0.950 . S
H679 C685 0.950 . S
H680 C686 0.949 . S
C681 H676 0.950 . S
C681 C683 1.327 . S
C681 C687 1.429 . S
C682 C674 1.574 . S
C682 H677 0.949 . S
C682 C688 1.368 . S
C683 C667 1.349 . S
C683 H675 0.950 . S
C683 C681 1.327 . S
C684 C672 1.349 . S
C684 H678 0.950 . S
C684 C685 1.327 . S
C685 H679 0.950 . S
C685 C684 1.327 . S
C685 C689 1.429 . S
C686 C669 1.574 . S
C686 H680 0.949 . S
C686 C690 1.368 . S
C687 C668 1.429 . S
C687 C681 1.429 . S
C687 C688 1.523 1_556 S
C688 C669 1.368 . S
C688 C682 1.368 . S
C688 C687 1.523 1_554 S
C689 C673 1.429 . S
C689 C685 1.429 . S
C689 C690 1.523 . S
C690 C674 1.368 . S
C690 C686 1.368 . S
C690 C689 1.523 . S
H691 C666 0.950 . S
H692 C668 0.950 . S
H693 C669 0.949 . S
H694 C671 0.950 . S
H695 C673 0.950 . S
C696 C697 1.349 . S
C696 C698 1.327 . S
C696 H721 0.950 . S
C697 C696 1.349 . S
C697 C713 1.349 . S
C698 C696 1.327 . S
C698 C717 1.429 . S
C698 H722 0.950 . S
C699 C716 1.574 . S
C699 C718 1.368 . S
C699 H723 0.949 . S
H700 C704 0.949 . S
C701 C702 1.349 . S
C701 C703 1.327 . S
C701 H724 0.950 . S
C702 C701 1.349 . S
C702 C714 1.349 . S
C703 C701 1.327 . S
C703 C719 1.429 . S
C703 H725 0.950 . S
C704 H700 0.949 . S
C704 C712 1.574 . S
C704 C720 1.368 . S
H705 C713 0.950 . S
H706 C711 0.950 . S
H707 C712 0.949 . S
H708 C714 0.950 . S
H709 C715 0.950 . S
H710 C716 0.949 . S
C711 H706 0.950 . S
C711 C713 1.327 . S
C711 C717 1.429 . S
C712 C704 1.574 . S
C712 H707 0.949 . S
C712 C718 1.368 . S
C713 C697 1.349 . S
C713 H705 0.950 . S
C713 C711 1.327 . S
C714 C702 1.349 . S
C714 H708 0.950 . S
C714 C715 1.327 . S
C715 H709 0.950 . S
C715 C714 1.327 . S
C715 C719 1.429 . S
C716 C699 1.574 . S
C716 H710 0.949 . S
C716 C720 1.368 . S
C717 C698 1.429 . S
C717 C711 1.429 . S
C717 C718 1.523 . S
C718 C699 1.368 . S
C718 C712 1.368 . S
C718 C717 1.523 . S
C719 C703 1.429 . S
C719 C715 1.429 . S
C719 C720 1.523 . S
C720 C704 1.368 . S
C720 C716 1.368 . S
C720 C719 1.523 . S
H721 C696 0.950 . S
H722 C698 0.950 . S
H723 C699 0.949 . S
H724 C701 0.950 . S
H725 C703 0.950 . S
C726 C727 1.349 . S
C726 C728 1.327 . S
C726 H751 0.950 . S
C727 C726 1.349 . S
C727 C743 1.349 . S
C728 C726 1.327 . S
C728 C747 1.429 . S
C728 H752 0.950 . S
C729 C746 1.574 . S
C729 C748 1.368 . S
C729 H753 0.949 . S
H730 C734 0.949 . S
C731 C732 1.349 . S
C731 C733 1.327 . S
C731 H754 0.950 . S
C732 C731 1.349 . S
C732 C744 1.349 . S
C733 C731 1.327 . S
C733 C749 1.429 . S
C733 H755 0.950 . S
C734 H730 0.949 . S
C734 C742 1.574 . S
C734 C750 1.368 . S
H735 C743 0.950 . S
H736 C741 0.950 . S
H737 C742 0.949 . S
H738 C744 0.950 . S
H739 C745 0.950 . S
H740 C746 0.949 . S
C741 H736 0.950 . S
C741 C743 1.327 . S
C741 C747 1.429 . S
C742 C734 1.574 . S
C742 H737 0.949 . S
C742 C748 1.368 . S
C743 C727 1.349 . S
C743 H735 0.950 . S
C743 C741 1.327 . S
C744 C732 1.349 . S
C744 H738 0.950 . S
C744 C745 1.327 . S
C745 H739 0.950 . S
C745 C744 1.327 . S
C745 C749 1.429 . S
C746 C729 1.574 . S
C746 H740 0.949 . S
C746 C750 1.368 . S
C747 C728 1.429 . S
C747 C741 1.429 . S
C747 C748 1.523 . S
C748 C729 1.368 . S
C748 C742 1.368 . S
C748 C747 1.523 . S
C749 C733 1.429 . S
C749 C745 1.429 . S
C749 C750 1.523 . S
C750 C734 1.368 . S
C750 C746 1.368 . S
C750 C749 1.523 . S
H751 C726 0.950 . S
H752 C728 0.950 . S
H753 C729 0.949 . S
H754 C731 0.950 . S
H755 C733 0.950 . S
C756 C757 1.353 . S
C756 C758 1.319 1_556 S
C756 H781 0.953 . S
C757 C756 1.353 . S
C757 C773 1.349 . S
C758 C756 1.319 1_554 S
C758 C777 1.429 . S
C758 H782 0.950 . S
C759 C776 1.574 . S
C759 C778 1.368 . S
C759 H783 0.949 . S
H760 C764 0.949 . S
C761 C762 1.349 . S
C761 C763 1.327 . S
C761 H784 0.950 . S
C762 C761 1.349 . S
C762 C774 1.349 . S
C763 C761 1.327 . S
C763 C779 1.429 . S
C763 H785 0.950 . S
C764 H760 0.949 . S
C764 C772 1.574 . S
C764 C780 1.368 . S
H765 C773 0.950 . S
H766 C771 0.950 . S
H767 C772 0.949 . S
H768 C774 0.950 . S
H769 C775 0.950 . S
H770 C776 0.949 . S
C771 H766 0.950 . S
C771 C773 1.327 1_554 S
C771 C777 1.429 . S
C772 C764 1.574 . S
C772 H767 0.949 . S
C772 C778 1.368 . S
C773 C757 1.349 . S
C773 H765 0.950 . S
C773 C771 1.327 1_556 S
C774 C762 1.349 . S
C774 H768 0.950 . S
C774 C775 1.327 . S
C775 H769 0.950 . S
C775 C774 1.327 . S
C775 C779 1.429 . S
C776 C759 1.574 . S
C776 H770 0.949 . S
C776 C780 1.368 . S
C777 C758 1.429 . S
C777 C771 1.429 . S
C777 C778 1.523 . S
C778 C759 1.368 . S
C778 C772 1.368 . S
C778 C777 1.523 . S
C779 C763 1.429 . S
C779 C775 1.429 . S
C779 C780 1.523 . S
C780 C764 1.368 . S
C780 C776 1.368 . S
C780 C779 1.523 . S
H781 C756 0.953 . S
H782 C758 0.950 . S
H783 C759 0.949 . S
H784 C761 0.950 . S
H785 C763 0.950 . S
C786 C787 1.349 . S
C786 C788 1.327 . S
C786 H811 0.950 . S
C787 C786 1.349 . S
C787 C803 1.349 . S
C788 C786 1.327 . S
C788 C807 1.429 . S
C788 H812 0.950 . S
C789 C806 1.574 . S
C789 C808 1.368 . S
C789 H813 0.949 . S
H790 C794 0.949 . S
C791 C792 1.349 . S
C791 C793 1.327 . S
C791 H814 0.950 . S
C792 C791 1.349 . S
C792 C804 1.349 . S
C793 C791 1.327 . S
C793 C809 1.429 . S
C793 H815 0.950 . S
C794 H790 0.949 . S
C794 C802 1.574 . S
C794 C810 1.368 . S
H795 C803 0.950 . S
H796 C801 0.950 . S
H797 C802 0.949 . S
H798 C804 0.950 . S
H799 C805 0.950 . S
H800 C806 0.949 . S
C801 H796 0.950 . S
C801 C803 1.327 . S
C801 C807 1.429 . S
C802 C794 1.574 . S
C802 H797 0.949 . S
C802 C808 1.368 . S
C803 C787 1.349 . S
C803 H795 0.950 . S
C803 C801 1.327 . S
C804 C792 1.349 . S
C804 H798 0.950 . S
C804 C805 1.327 . S
C805 H799 0.950 . S
C805 C804 1.327 . S
C805 C809 1.429 . S
C806 C789 1.574 . S
C806 H800 0.949 . S
C806 C810 1.368 . S
C807 C788 1.429 . S
C807 C801 1.429 . S
C807 C808 1.523 . S
C808 C789 1.368 . S
C808 C802 1.368 . S
C808 C807 1.523 . S
C809 C793 1.429 . S
C809 C805 1.429 . S
C809 C810 1.523 . S
C810 C794 1.368 . S
C810 C806 1.368 . S
C810 C809 1.523 . S
H811 C786 0.950 . S
H812 C788 0.950 . S
H813 C789 0.949 . S
H814 C791 0.950 . S
H815 C793 0.950 . S
C816 C817 1.349 . S
C816 C818 1.327 . S
C816 H841 0.950 . S
C817 C816 1.349 . S
C817 C833 1.349 . S
C818 C816 1.327 . S
C818 C837 1.429 . S
C818 H842 0.950 . S
C819 C836 1.574 . S
C819 C838 1.368 . S
C819 H843 0.949 . S
H820 C824 0.949 . S
C821 C822 1.349 . S
C821 C823 1.327 . S
C821 H844 0.950 . S
C822 C821 1.349 . S
C822 C834 1.349 . S
C823 C821 1.327 . S
C823 C839 1.429 . S
C823 H845 0.950 . S
C824 H820 0.949 . S
C824 C832 1.574 . S
C824 C840 1.368 . S
H825 C833 0.950 . S
H826 C831 0.950 . S
H827 C832 0.949 . S
H828 C834 0.950 . S
H829 C835 0.950 . S
H830 C836 0.949 . S
C831 H826 0.950 . S
C831 C833 1.327 . S
C831 C837 1.429 . S
C832 C824 1.574 . S
C832 H827 0.949 . S
C832 C838 1.368 . S
C833 C817 1.349 . S
C833 H825 0.950 . S
C833 C831 1.327 . S
C834 C822 1.349 . S
C834 H828 0.950 . S
C834 C835 1.327 . S
C835 H829 0.950 . S
C835 C834 1.327 . S
C835 C839 1.429 . S
C836 C819 1.574 . S
C836 H830 0.949 . S
C836 C840 1.368 . S
C837 C818 1.429 . S
C837 C831 1.429 . S
C837 C838 1.523 . S
C838 C819 1.368 . S
C838 C832 1.368 . S
C838 C837 1.523 . S
C839 C823 1.429 . S
C839 C835 1.429 . S
C839 C840 1.523 . S
C840 C824 1.368 . S
C840 C836 1.368 . S
C840 C839 1.523 . S
H841 C816 0.950 . S
H842 C818 0.950 . S
H843 C819 0.949 . S
H844 C821 0.950 . S
H845 C823 0.950 . S
C846 C847 1.349 . S
C846 C848 1.327 . S
C846 H871 0.950 . S
C847 C846 1.349 . S
C847 C863 1.349 . S
C848 C846 1.327 . S
C848 C867 1.429 . S
C848 H872 0.950 . S
C849 C866 1.574 . S
C849 C868 1.368 . S
C849 H873 0.949 . S
H850 C854 0.949 . S
C851 C852 1.349 . S
C851 C853 1.327 . S
C851 H874 0.950 . S
C852 C851 1.349 . S
C852 C864 1.349 . S
C853 C851 1.327 . S
C853 C869 1.429 . S
C853 H875 0.950 . S
C854 H850 0.949 . S
C854 C862 1.574 . S
C854 C870 1.368 . S
H855 C863 0.950 . S
H856 C861 0.950 . S
H857 C862 0.949 . S
H858 C864 0.950 . S
H859 C865 0.950 . S
H860 C866 0.949 . S
C861 H856 0.950 . S
C861 C863 1.327 . S
C861 C867 1.429 . S
C862 C854 1.574 . S
C862 H857 0.949 . S
C862 C868 1.368 . S
C863 C847 1.349 . S
C863 H855 0.950 . S
C863 C861 1.327 . S
C864 C852 1.349 . S
C864 H858 0.950 . S
C864 C865 1.327 . S
C865 H859 0.950 . S
C865 C864 1.327 . S
C865 C869 1.429 . S
C866 C849 1.574 . S
C866 H860 0.949 . S
C866 C870 1.368 . S
C867 C848 1.429 . S
C867 C861 1.429 . S
C867 C868 1.523 . S
C868 C849 1.368 . S
C868 C862 1.368 . S
C868 C867 1.523 . S
C869 C853 1.429 . S
C869 C865 1.429 . S
C869 C870 1.523 . S
C870 C854 1.368 . S
C870 C866 1.368 . S
C870 C869 1.523 . S
H871 C846 0.950 . S
H872 C848 0.950 . S
H873 C849 0.949 . S
H874 C851 0.950 . S
H875 C853 0.950 . S
C876 C877 1.349 . S
C876 C878 1.327 . S
C876 H901 0.950 . S
C877 C876 1.349 . S
C877 C893 1.349 . S
C878 C876 1.327 . S
C878 C897 1.429 . S
C878 H902 0.950 . S
C879 C896 1.574 . S
C879 C898 1.368 . S
C879 H903 0.949 . S
H880 C884 0.949 . S
C881 C882 1.349 . S
C881 C883 1.327 . S
C881 H904 0.950 . S
C882 C881 1.349 . S
C882 C894 1.349 . S
C883 C881 1.327 . S
C883 C899 1.429 . S
C883 H905 0.950 . S
C884 H880 0.949 . S
C884 C892 1.574 . S
C884 C900 1.368 . S
H885 C893 0.950 . S
H886 C891 0.950 . S
H887 C892 0.949 . S
H888 C894 0.950 . S
H889 C895 0.950 . S
H890 C896 0.949 . S
C891 H886 0.950 . S
C891 C893 1.327 . S
C891 C897 1.429 . S
C892 C884 1.574 . S
C892 H887 0.949 . S
C892 C898 1.368 . S
C893 C877 1.349 . S
C893 H885 0.950 . S
C893 C891 1.327 . S
C894 C882 1.349 . S
C894 H888 0.950 . S
C894 C895 1.327 . S
C895 H889 0.950 . S
C895 C894 1.327 . S
C895 C899 1.429 . S
C896 C879 1.574 . S
C896 H890 0.949 . S
C896 C900 1.368 . S
C897 C878 1.429 . S
C897 C891 1.429 . S
C897 C898 1.523 . S
C898 C879 1.368 . S
C898 C892 1.368 . S
C898 C897 1.523 . S
C899 C883 1.429 . S
C899 C895 1.429 . S
C899 C900 1.523 1_554 S
C900 C884 1.368 . S
C900 C896 1.368 . S
C900 C899 1.523 1_556 S
H901 C876 0.950 . S
H902 C878 0.950 . S
H903 C879 0.949 . S
H904 C881 0.950 . S
H905 C883 0.950 . S
C906 C907 1.349 . S
C906 C908 1.327 . S
C906 H931 0.950 . S
C907 C906 1.349 . S
C907 C923 1.349 . S
C908 C906 1.327 . S
C908 C927 1.429 . S
C908 H932 0.950 . S
C909 C926 1.574 . S
C909 C928 1.368 . S
C909 H933 0.949 . S
H910 C914 0.957 . S
C911 C912 1.349 . S
C911 C913 1.327 . S
C911 H934 0.950 . S
C912 C911 1.349 . S
C912 C924 1.349 . S
C913 C911 1.327 . S
C913 C929 1.429 . S
C913 H935 0.950 . S
C914 H910 0.957 . S
C914 C922 1.574 . S
C914 C930 1.368 1_554 S
H915 C923 0.950 . S
H916 C921 0.950 . S
H917 C922 0.949 . S
H918 C924 0.950 . S
H919 C925 0.950 . S
H920 C926 0.949 1_556 S
C921 H916 0.950 . S
C921 C923 1.327 . S
C921 C927 1.429 . S
C922 C914 1.574 . S
C922 H917 0.949 . S
C922 C928 1.368 . S
C923 C907 1.349 . S
C923 H915 0.950 . S
C923 C921 1.327 . S
C924 C912 1.349 . S
C924 H918 0.950 . S
C924 C925 1.327 . S
C925 H919 0.950 . S
C925 C924 1.327 . S
C925 C929 1.429 . S
C926 C909 1.574 . S
C926 H920 0.949 1_554 S
C926 C930 1.368 1_554 S
C927 C908 1.429 . S
C927 C921 1.429 . S
C927 C928 1.523 . S
C928 C909 1.368 . S
C928 C922 1.368 . S
C928 C927 1.523 . S
C929 C913 1.429 . S
C929 C925 1.429 . S
C929 C930 1.523 . S
C930 C914 1.368 1_556 S
C930 C926 1.368 1_556 S
C930 C929 1.523 . S
H931 C906 0.950 . S
H932 C908 0.950 . S
H933 C909 0.949 . S
H934 C911 0.950 . S
H935 C913 0.950 . S
C936 C937 1.349 . S
C936 C938 1.327 . S
C936 H961 0.950 . S
C937 C936 1.349 . S
C937 C953 1.349 . S
C938 C936 1.327 . S
C938 C957 1.429 . S
C938 H962 0.950 . S
C939 C956 1.574 . S
C939 C958 1.368 . S
C939 H963 0.949 . S
H940 C944 0.949 . S
C941 C942 1.349 . S
C941 C943 1.327 . S
C941 H964 0.950 . S
C942 C941 1.349 . S
C942 C954 1.349 . S
C943 C941 1.327 . S
C943 C959 1.429 . S
C943 H965 0.950 . S
C944 H940 0.949 . S
C944 C952 1.574 . S
C944 C960 1.368 . S
H945 C953 0.950 . S
H946 C951 0.950 . S
H947 C952 0.949 . S
H948 C954 0.950 . S
H949 C955 0.950 . S
H950 C956 0.949 . S
C951 H946 0.950 . S
C951 C953 1.327 . S
C951 C957 1.429 . S
C952 C944 1.574 . S
C952 H947 0.949 . S
C952 C958 1.368 . S
C953 C937 1.349 . S
C953 H945 0.950 . S
C953 C951 1.327 . S
C954 C942 1.349 . S
C954 H948 0.950 . S
C954 C955 1.327 . S
C955 H949 0.950 . S
C955 C954 1.327 . S
C955 C959 1.429 . S
C956 C939 1.574 . S
C956 H950 0.949 . S
C956 C960 1.368 . S
C957 C938 1.429 . S
C957 C951 1.429 . S
C957 C958 1.523 . S
C958 C939 1.368 . S
C958 C952 1.368 . S
C958 C957 1.523 . S
C959 C943 1.429 . S
C959 C955 1.429 . S
C959 C960 1.523 . S
C960 C944 1.368 . S
C960 C956 1.368 . S
C960 C959 1.523 . S
H961 C936 0.950 . S
H962 C938 0.950 . S
H963 C939 0.949 . S
H964 C941 0.950 . S
H965 C943 0.950 . S
C966 C967 1.349 . S
C966 C968 1.327 . S
C966 H991 0.950 . S
C967 C966 1.349 . S
C967 C983 1.349 . S
C968 C966 1.327 . S
C968 C987 1.429 . S
C968 H992 0.950 . S
C969 C986 1.574 . S
C969 C988 1.368 . S
C969 H993 0.949 . S
H970 C974 0.949 . S
C971 C972 1.349 . S
C971 C973 1.327 . S
C971 H994 0.950 . S
C972 C971 1.349 . S
C972 C984 1.349 . S
C973 C971 1.327 . S
C973 C989 1.429 . S
C973 H995 0.950 . S
C974 H970 0.949 . S
C974 C982 1.574 . S
C974 C990 1.368 . S
H975 C983 0.950 . S
H976 C981 0.950 . S
H977 C982 0.949 . S
H978 C984 0.950 . S
H979 C985 0.950 . S
H980 C986 0.949 . S
C981 H976 0.950 . S
C981 C983 1.327 . S
C981 C987 1.429 . S
C982 C974 1.574 . S
C982 H977 0.949 . S
C982 C988 1.368 . S
C983 C967 1.349 . S
C983 H975 0.950 . S
C983 C981 1.327 . S
C984 C972 1.349 . S
C984 H978 0.950 . S
C984 C985 1.327 . S
C985 H979 0.950 . S
C985 C984 1.327 . S
C985 C989 1.429 . S
C986 C969 1.574 . S
C986 H980 0.949 . S
C986 C990 1.368 . S
C987 C968 1.429 . S
C987 C981 1.429 . S
C987 C988 1.523 . S
C988 C969 1.368 . S
C988 C982 1.368 . S
C988 C987 1.523 . S
C989 C973 1.429 . S
C989 C985 1.429 . S
C989 C990 1.523 . S
C990 C974 1.368 . S
C990 C986 1.368 . S
C990 C989 1.523 . S
H991 C966 0.950 . S
H992 C968 0.950 . S
H993 C969 0.949 . S
H994 C971 0.950 . S
H995 C973 0.950 . S
C996 C997 1.349 . S
C996 C998 1.327 . S
C996 H1021 0.950 . S
C997 C996 1.349 . S
C997 C1013 1.349 . S
C998 C996 1.327 . S
C998 C1017 1.429 . S
C998 H1022 0.950 . S
C999 C1016 1.574 . S
C999 C1018 1.368 . S
C999 H1023 0.949 . S
H1000 C1004 0.949 . S
C1001 C1002 1.349 . S
C1001 C1003 1.327 . S
C1001 H1024 0.950 . S
C1002 C1001 1.349 . S
C1002 C1014 1.349 . S
C1003 C1001 1.327 . S
C1003 C1019 1.429 . S
C1003 H1025 0.950 . S
C1004 H1000 0.949 . S
C1004 C1012 1.574 . S
C1004 C1020 1.368 . S
H1005 C1013 0.950 . S
H1006 C1011 0.950 . S
H1007 C1012 0.949 . S
H1008 C1014 0.950 . S
H1009 C1015 0.950 . S
H1010 C1016 0.949 . S
C1011 H1006 0.950 . S
C1011 C1013 1.327 . S
C1011 C1017 1.429 . S
C1012 C1004 1.574 . S
C1012 H1007 0.949 . S
C1012 C1018 1.368 . S
C1013 C997 1.349 . S
C1013 H1005 0.950 . S
C1013 C1011 1.327 . S
C1014 C1002 1.349 . S
C1014 H1008 0.950 . S
C1014 C1015 1.327 . S
C1015 H1009 0.950 . S
C1015 C1014 1.327 . S
C1015 C1019 1.429 . S
C1016 C999 1.574 . S
C1016 H1010 0.949 . S
C1016 C1020 1.368 . S
C1017 C998 1.429 . S
C1017 C1011 1.429 . S
C1017 C1018 1.523 . S
C1018 C999 1.368 . S
C1018 C1012 1.368 . S
C1018 C1017 1.523 . S
C1019 C1003 1.429 . S
C1019 C1015 1.429 . S
C1019 C1020 1.523 . S
C1020 C1004 1.368 . S
C1020 C1016 1.368 . S
C1020 C1019 1.523 . S
H1021 C996 0.950 . S
H1022 C998 0.950 . S
H1023 C999 0.949 . S
H1024 C1001 0.950 . S
H1025 C1003 0.950 . S
C1026 C1027 1.349 . S
C1026 C1028 1.327 . S
C1026 H1051 0.950 . S
C1027 C1026 1.349 . S
C1027 C1043 1.349 . S
C1028 C1026 1.327 . S
C1028 C1047 1.429 . S
C1028 H1052 0.950 . S
C1029 C1046 1.574 . S
C1029 C1048 1.368 . S
C1029 H1053 0.949 . S
H1030 C1034 0.949 . S
C1031 C1032 1.349 . S
C1031 C1033 1.327 . S
C1031 H1054 0.950 . S
C1032 C1031 1.349 . S
C1032 C1044 1.349 . S
C1033 C1031 1.327 . S
C1033 C1049 1.429 . S
C1033 H1055 0.950 . S
C1034 H1030 0.949 . S
C1034 C1042 1.574 . S
C1034 C1050 1.368 . S
H1035 C1043 0.950 . S
H1036 C1041 0.950 . S
H1037 C1042 0.949 . S
H1038 C1044 0.950 . S
H1039 C1045 0.950 . S
H1040 C1046 0.949 . S
C1041 H1036 0.950 . S
C1041 C1043 1.327 . S
C1041 C1047 1.429 . S
C1042 C1034 1.574 . S
C1042 H1037 0.949 . S
C1042 C1048 1.368 . S
C1043 C1027 1.349 . S
C1043 H1035 0.950 . S
C1043 C1041 1.327 . S
C1044 C1032 1.349 . S
C1044 H1038 0.950 . S
C1044 C1045 1.327 . S
C1045 H1039 0.950 . S
C1045 C1044 1.327 . S
C1045 C1049 1.429 . S
C1046 C1029 1.574 . S
C1046 H1040 0.949 . S
C1046 C1050 1.368 . S
C1047 C1028 1.429 . S
C1047 C1041 1.429 . S
C1047 C1048 1.523 . S
C1048 C1029 1.368 . S
C1048 C1042 1.368 . S
C1048 C1047 1.523 . S
C1049 C1033 1.429 . S
C1049 C1045 1.429 . S
C1049 C1050 1.523 . S
C1050 C1034 1.368 . S
C1050 C1046 1.368 . S
C1050 C1049 1.523 . S
H1051 C1026 0.950 . S
H1052 C1028 0.950 . S
H1053 C1029 0.949 . S
H1054 C1031 0.950 . S
H1055 C1033 0.950 . S
C1056 C1057 1.349 . S
C1056 C1058 1.327 . S
C1056 H1081 0.950 . S
C1057 C1056 1.349 . S
C1057 C1073 1.349 1_556 S
C1058 C1056 1.327 . S
C1058 C1077 1.429 . S
C1058 H1082 0.950 . S
C1059 C1076 1.574 . S
C1059 C1078 1.368 . S
C1059 H1083 0.949 1_556 S
H1060 C1064 0.949 . S
C1061 C1062 1.349 . S
C1061 C1063 1.327 . S
C1061 H1084 0.950 . S
C1062 C1061 1.349 . S
C1062 C1074 1.349 . S
C1063 C1061 1.327 . S
C1063 C1079 1.429 . S
C1063 H1085 0.950 . S
C1064 H1060 0.949 . S
C1064 C1072 1.574 . S
C1064 C1080 1.368 . S
H1065 C1073 0.950 . S
H1066 C1071 0.950 . S
H1067 C1072 0.949 . S
H1068 C1074 0.950 . S
H1069 C1075 0.950 . S
H1070 C1076 0.949 . S
C1071 H1066 0.950 . S
C1071 C1073 1.327 . S
C1071 C1077 1.429 1_554 S
C1072 C1064 1.574 . S
C1072 H1067 0.949 . S
C1072 C1078 1.368 . S
C1073 C1057 1.349 1_554 S
C1073 H1065 0.950 . S
C1073 C1071 1.327 . S
C1074 C1062 1.349 . S
C1074 H1068 0.950 . S
C1074 C1075 1.327 . S
C1075 H1069 0.950 . S
C1075 C1074 1.327 . S
C1075 C1079 1.429 . S
C1076 C1059 1.574 . S
C1076 H1070 0.949 . S
C1076 C1080 1.368 . S
C1077 C1058 1.429 . S
C1077 C1071 1.429 1_556 S
C1077 C1078 1.523 . S
C1078 C1059 1.368 . S
C1078 C1072 1.368 . S
C1078 C1077 1.523 . S
C1079 C1063 1.429 . S
C1079 C1075 1.429 . S
C1079 C1080 1.523 . S
C1080 C1064 1.368 . S
C1080 C1076 1.368 . S
C1080 C1079 1.523 . S
H1081 C1056 0.950 . S
H1082 C1058 0.950 . S
H1083 C1059 0.949 1_554 S
H1084 C1061 0.950 . S
H1085 C1063 0.950 . S
C1086 C1087 1.349 . S
C1086 C1088 1.327 . S
C1086 H1111 0.950 . S
C1087 C1086 1.349 . S
C1087 C1103 1.349 . S
C1088 C1086 1.327 . S
C1088 C1107 1.429 . S
C1088 H1112 0.950 . S
C1089 C1106 1.574 . S
C1089 C1108 1.368 . S
C1089 H1113 0.949 . S
H1090 C1094 0.949 . S
C1091 C1092 1.349 . S
C1091 C1093 1.330 . S
C1091 H1114 0.950 . S
C1092 C1091 1.349 . S
C1092 C1104 1.349 1_556 S
C1093 C1091 1.330 . S
C1093 C1109 1.424 1_556 S
C1093 H1115 0.952 . S
C1094 H1090 0.949 . S
C1094 C1102 1.574 . S
C1094 C1110 1.368 . S
H1095 C1103 0.950 . S
H1096 C1101 0.950 . S
H1097 C1102 0.949 . S
H1098 C1104 0.950 . S
H1099 C1105 0.950 . S
H1100 C1106 0.949 . S
C1101 H1096 0.950 . S
C1101 C1103 1.327 . S
C1101 C1107 1.429 . S
C1102 C1094 1.574 . S
C1102 H1097 0.949 . S
C1102 C1108 1.368 . S
C1103 C1087 1.349 . S
C1103 H1095 0.950 . S
C1103 C1101 1.327 . S
C1104 C1092 1.349 1_554 S
C1104 H1098 0.950 . S
C1104 C1105 1.327 . S
C1105 H1099 0.950 . S
C1105 C1104 1.327 . S
C1105 C1109 1.429 . S
C1106 C1089 1.574 . S
C1106 H1100 0.949 . S
C1106 C1110 1.368 . S
C1107 C1088 1.429 . S
C1107 C1101 1.429 . S
C1107 C1108 1.523 . S
C1108 C1089 1.368 . S
C1108 C1102 1.368 . S
C1108 C1107 1.523 . S
C1109 C1093 1.424 1_554 S
C1109 C1105 1.429 . S
C1109 C1110 1.523 . S
C1110 C1094 1.368 . S
C1110 C1106 1.368 . S
C1110 C1109 1.523 . S
H1111 C1086 0.950 . S
H1112 C1088 0.950 . S
H1113 C1089 0.949 . S
H1114 C1091 0.950 . S
H1115 C1093 0.952 . S
C1116 C1117 1.349 . S
C1116 C1118 1.327 . S
C1116 H1141 0.950 1_554 S
C1117 C1116 1.349 . S
C1117 C1133 1.349 . S
C1118 C1116 1.327 . S
C1118 C1137 1.429 . S
C1118 H1142 0.950 1_554 S
C1119 C1136 1.574 1_545 S
C1119 C1138 1.368 . S
C1119 H1143 0.949 . S
H1120 C1124 0.949 . S
C1121 C1122 1.349 . S
C1121 C1123 1.327 . S
C1121 H1144 0.952 . S
C1122 C1121 1.349 . S
C1122 C1134 1.349 . S
C1123 C1121 1.327 . S
C1123 C1139 1.429 . S
C1123 H1145 0.950 1_556 S
C1124 H1120 0.949 . S
C1124 C1132 1.574 1_565 S
C1124 C1140 1.368 . S
H1125 C1133 0.950 . S
H1126 C1131 0.950 . S
H1127 C1132 0.949 . S
H1128 C1134 0.950 . S
H1129 C1135 0.950 . S
H1130 C1136 0.949 . S
C1131 H1126 0.950 . S
C1131 C1133 1.327 . S
C1131 C1137 1.429 . S
C1132 C1124 1.574 1_545 S
C1132 H1127 0.949 . S
C1132 C1138 1.368 1_556 S
C1133 C1117 1.349 . S
C1133 H1125 0.950 . S
C1133 C1131 1.327 . S
C1134 C1122 1.349 . S
C1134 H1128 0.950 . S
C1134 C1135 1.327 . S
C1135 H1129 0.950 . S
C1135 C1134 1.327 . S
C1135 C1139 1.429 . S
C1136 C1119 1.574 1_565 S
C1136 H1130 0.949 . S
C1136 C1140 1.368 1_554 S
C1137 C1118 1.429 . S
C1137 C1131 1.429 . S
C1137 C1138 1.523 . S
C1138 C1119 1.368 . S
C1138 C1132 1.368 1_554 S
C1138 C1137 1.523 . S
C1139 C1123 1.429 . S
C1139 C1135 1.429 . S
C1139 C1140 1.523 . S
C1140 C1124 1.368 . S
C1140 C1136 1.368 1_556 S
C1140 C1139 1.523 . S
H1141 C1116 0.950 1_556 S
H1142 C1118 0.950 1_556 S
H1143 C1119 0.949 . S
H1144 C1121 0.952 . S
H1145 C1123 0.950 1_554 S
C1146 C1147 1.349 . S
C1146 C1148 1.327 . S
C1146 H1171 0.950 . S
C1147 C1146 1.349 . S
C1147 C1163 1.349 . S
C1148 C1146 1.327 . S
C1148 C1167 1.429 . S
C1148 H1172 0.950 . S
C1149 C1166 1.574 . S
C1149 C1168 1.368 . S
C1149 H1173 0.949 . S
H1150 C1154 0.949 . S
C1151 C1152 1.349 . S
C1151 C1153 1.327 . S
C1151 H1174 0.950 . S
C1152 C1151 1.349 . S
C1152 C1164 1.349 . S
C1153 C1151 1.327 . S
C1153 C1169 1.429 . S
C1153 H1175 0.950 . S
C1154 H1150 0.949 . S
C1154 C1162 1.574 . S
C1154 C1170 1.368 . S
H1155 C1163 0.950 . S
H1156 C1161 0.950 . S
H1157 C1162 0.949 . S
H1158 C1164 0.950 . S
H1159 C1165 0.950 . S
H1160 C1166 0.949 . S
C1161 H1156 0.950 . S
C1161 C1163 1.327 . S
C1161 C1167 1.429 . S
C1162 C1154 1.574 . S
C1162 H1157 0.949 . S
C1162 C1168 1.368 . S
C1163 C1147 1.349 . S
C1163 H1155 0.950 . S
C1163 C1161 1.327 . S
C1164 C1152 1.349 . S
C1164 H1158 0.950 . S
C1164 C1165 1.327 . S
C1165 H1159 0.950 . S
C1165 C1164 1.327 . S
C1165 C1169 1.429 . S
C1166 C1149 1.574 . S
C1166 H1160 0.949 . S
C1166 C1170 1.368 . S
C1167 C1148 1.429 . S
C1167 C1161 1.429 . S
C1167 C1168 1.523 . S
C1168 C1149 1.368 . S
C1168 C1162 1.368 . S
C1168 C1167 1.523 . S
C1169 C1153 1.429 . S
C1169 C1165 1.429 . S
C1169 C1170 1.523 . S
C1170 C1154 1.368 . S
C1170 C1166 1.368 . S
C1170 C1169 1.523 . S
H1171 C1146 0.950 . S
H1172 C1148 0.950 . S
H1173 C1149 0.949 . S
H1174 C1151 0.950 . S
H1175 C1153 0.950 . S
C1176 C1177 1.349 . S
C1176 C1178 1.327 . S
C1176 H1201 0.950 . S
C1177 C1176 1.349 . S
C1177 C1193 1.349 . S
C1178 C1176 1.327 . S
C1178 C1197 1.429 . S
C1178 H1202 0.950 . S
C1179 C1196 1.574 1_455 S
C1179 C1198 1.368 . S
C1179 H1203 0.949 . S
H1180 C1184 0.949 . S
C1181 C1182 1.349 . S
C1181 C1183 1.327 . S
C1181 H1204 0.950 . S
C1182 C1181 1.349 . S
C1182 C1194 1.349 . S
C1183 C1181 1.327 . S
C1183 C1199 1.429 . S
C1183 H1205 0.950 . S
C1184 H1180 0.949 . S
C1184 C1192 1.574 1_655 S
C1184 C1200 1.368 . S
H1185 C1193 0.950 . S
H1186 C1191 0.950 . S
H1187 C1192 0.949 . S
H1188 C1194 0.950 . S
H1189 C1195 0.950 . S
H1190 C1196 0.949 . S
C1191 H1186 0.950 . S
C1191 C1193 1.327 . S
C1191 C1197 1.429 . S
C1192 C1184 1.574 1_455 S
C1192 H1187 0.949 . S
C1192 C1198 1.368 . S
C1193 C1177 1.349 . S
C1193 H1185 0.950 . S
C1193 C1191 1.327 . S
C1194 C1182 1.349 . S
C1194 H1188 0.950 . S
C1194 C1195 1.327 . S
C1195 H1189 0.950 . S
C1195 C1194 1.327 . S
C1195 C1199 1.429 . S
C1196 C1179 1.574 1_655 S
C1196 H1190 0.949 . S
C1196 C1200 1.368 . S
C1197 C1178 1.429 . S
C1197 C1191 1.429 . S
C1197 C1198 1.523 . S
C1198 C1179 1.368 . S
C1198 C1192 1.368 . S
C1198 C1197 1.523 . S
C1199 C1183 1.429 . S
C1199 C1195 1.429 . S
C1199 C1200 1.523 . S
C1200 C1184 1.368 . S
C1200 C1196 1.368 . S
C1200 C1199 1.523 . S
H1201 C1176 0.950 . S
H1202 C1178 0.950 . S
H1203 C1179 0.949 . S
H1204 C1181 0.950 . S
H1205 C1183 0.950 . S
C1206 C1207 1.349 . S
C1206 C1208 1.327 . S
C1206 H1231 0.950 . S
C1207 C1206 1.349 . S
C1207 C1223 1.349 . S
C1208 C1206 1.327 . S
C1208 C1227 1.429 . S
C1208 H1232 0.950 . S
C1209 C1226 1.574 1_565 S
C1209 C1228 1.368 . S
C1209 H1233 0.949 . S
H1210 C1214 0.949 . S
C1211 C1212 1.349 . S
C1211 C1213 1.327 . S
C1211 H1234 0.950 . S
C1212 C1211 1.349 . S
C1212 C1224 1.349 . S
C1213 C1211 1.327 . S
C1213 C1229 1.429 . S
C1213 H1235 0.950 . S
C1214 H1210 0.949 . S
C1214 C1222 1.574 1_545 S
C1214 C1230 1.368 . S
H1215 C1223 0.950 . S
H1216 C1221 0.950 . S
H1217 C1222 0.949 . S
H1218 C1224 0.950 . S
H1219 C1225 0.950 . S
H1220 C1226 0.949 . S
C1221 H1216 0.950 . S
C1221 C1223 1.327 . S
C1221 C1227 1.429 . S
C1222 C1214 1.574 1_565 S
C1222 H1217 0.949 . S
C1222 C1228 1.368 . S
C1223 C1207 1.349 . S
C1223 H1215 0.950 . S
C1223 C1221 1.327 . S
C1224 C1212 1.349 . S
C1224 H1218 0.950 . S
C1224 C1225 1.327 . S
C1225 H1219 0.950 . S
C1225 C1224 1.327 . S
C1225 C1229 1.429 . S
C1226 C1209 1.574 1_545 S
C1226 H1220 0.949 . S
C1226 C1230 1.368 . S
C1227 C1208 1.429 . S
C1227 C1221 1.429 . S
C1227 C1228 1.523 . S
C1228 C1209 1.368 . S
C1228 C1222 1.368 . S
C1228 C1227 1.523 . S
C1229 C1213 1.429 . S
C1229 C1225 1.429 . S
C1229 C1230 1.523 . S
C1230 C1214 1.368 . S
C1230 C1226 1.368 . S
C1230 C1229 1.523 . S
H1231 C1206 0.950 . S
H1232 C1208 0.950 . S
H1233 C1209 0.949 . S
H1234 C1211 0.950 . S
H1235 C1213 0.950 . S
C1236 C1237 1.349 . S
C1236 C1238 1.327 . S
C1236 H1261 0.950 . S
C1237 C1236 1.349 . S
C1237 C1253 1.349 . S
C1238 C1236 1.327 . S
C1238 C1257 1.429 . S
C1238 H1262 0.950 . S
C1239 C1256 1.574 . S
C1239 C1258 1.368 . S
C1239 H1263 0.949 . S
H1240 C1244 0.949 . S
C1241 C1242 1.349 . S
C1241 C1243 1.327 . S
C1241 H1264 0.950 . S
C1242 C1241 1.349 . S
C1242 C1254 1.349 . S
C1243 C1241 1.327 . S
C1243 C1259 1.429 . S
C1243 H1265 0.950 . S
C1244 H1240 0.949 . S
C1244 C1252 1.574 . S
C1244 C1260 1.368 . S
H1245 C1253 0.950 . S
H1246 C1251 0.950 . S
H1247 C1252 0.949 . S
H1248 C1254 0.950 . S
H1249 C1255 0.950 . S
H1250 C1256 0.949 . S
C1251 H1246 0.950 . S
C1251 C1253 1.327 . S
C1251 C1257 1.429 . S
C1252 C1244 1.574 . S
C1252 H1247 0.949 . S
C1252 C1258 1.368 . S
C1253 C1237 1.349 . S
C1253 H1245 0.950 . S
C1253 C1251 1.327 . S
C1254 C1242 1.349 . S
C1254 H1248 0.950 . S
C1254 C1255 1.327 . S
C1255 H1249 0.950 . S
C1255 C1254 1.327 . S
C1255 C1259 1.429 . S
C1256 C1239 1.574 . S
C1256 H1250 0.949 . S
C1256 C1260 1.368 . S
C1257 C1238 1.429 . S
C1257 C1251 1.429 . S
C1257 C1258 1.523 . S
C1258 C1239 1.368 . S
C1258 C1252 1.368 . S
C1258 C1257 1.523 . S
C1259 C1243 1.429 . S
C1259 C1255 1.429 . S
C1259 C1260 1.523 . S
C1260 C1244 1.368 . S
C1260 C1256 1.368 . S
C1260 C1259 1.523 . S
H1261 C1236 0.950 . S
H1262 C1238 0.950 . S
H1263 C1239 0.949 . S
H1264 C1241 0.950 . S
H1265 C1243 0.950 . S
C1266 C1267 1.349 . S
C1266 C1268 1.327 . S
C1266 H1291 0.950 . S
C1267 C1266 1.349 . S
C1267 C1283 1.349 . S
C1268 C1266 1.327 . S
C1268 C1287 1.429 . S
C1268 H1292 0.950 . S
C1269 C1286 1.574 1_455 S
C1269 C1288 1.368 . S
C1269 H1293 0.949 . S
H1270 C1274 0.949 . S
C1271 C1272 1.349 . S
C1271 C1273 1.327 . S
C1271 H1294 0.950 . S
C1272 C1271 1.349 . S
C1272 C1284 1.349 . S
C1273 C1271 1.327 . S
C1273 C1289 1.429 . S
C1273 H1295 0.950 . S
C1274 H1270 0.949 . S
C1274 C1282 1.574 1_655 S
C1274 C1290 1.368 . S
H1275 C1283 0.950 . S
H1276 C1281 0.950 . S
H1277 C1282 0.949 . S
H1278 C1284 0.950 . S
H1279 C1285 0.950 . S
H1280 C1286 0.949 . S
C1281 H1276 0.950 . S
C1281 C1283 1.327 . S
C1281 C1287 1.429 . S
C1282 C1274 1.574 1_455 S
C1282 H1277 0.949 . S
C1282 C1288 1.368 . S
C1283 C1267 1.349 . S
C1283 H1275 0.950 . S
C1283 C1281 1.327 . S
C1284 C1272 1.349 . S
C1284 H1278 0.950 . S
C1284 C1285 1.327 . S
C1285 H1279 0.950 . S
C1285 C1284 1.327 . S
C1285 C1289 1.429 . S
C1286 C1269 1.574 1_655 S
C1286 H1280 0.949 . S
C1286 C1290 1.368 . S
C1287 C1268 1.429 . S
C1287 C1281 1.429 . S
C1287 C1288 1.523 . S
C1288 C1269 1.368 . S
C1288 C1282 1.368 . S
C1288 C1287 1.523 . S
C1289 C1273 1.429 . S
C1289 C1285 1.429 . S
C1289 C1290 1.523 . S
C1290 C1274 1.368 . S
C1290 C1286 1.368 . S
C1290 C1289 1.523 . S
H1291 C1266 0.950 . S
H1292 C1268 0.950 . S
H1293 C1269 0.949 . S
H1294 C1271 0.950 . S
H1295 C1273 0.950 . S
C397 C271 1.076 . S
C402 C7 1.076 . S
C427 C304 1.076 . S
C432 C40 1.076 . S
C457 C337 1.074 . S
C462 C73 1.074 . S
C487 C370 1.076 . S
C492 C106 1.076 . S
C517 C139 1.076 . S
C522 C205 1.076 . S
C547 C238 1.074 . S
C552 C172 1.074 . S
C577 N13 1.248 . S
C582 N2 1.246 . S
C607 N35 1.246 . S
C612 N46 1.248 . S
C637 N68 1.246 . S
C642 N79 1.248 . S
C667 N101 1.246 . S
C672 N112 1.248 . S
C697 N134 1.246 1_554 S
C702 N145 1.248 . S
C727 N167 1.246 . S
C732 N178 1.248 . S
C757 N211 1.248 . S
C762 N200 1.246 . S
C787 N233 1.246 . S
C792 N244 1.248 . S
C817 N277 1.248 . S
C822 N266 1.246 . S
C847 N310 1.248 . S
C852 N299 1.246 1_556 S
C877 N343 1.248 . S
C882 N332 1.246 . S
C907 N365 1.246 . S
C912 N376 1.248 . S
C937 C21 1.562 . S
C942 C351 1.562 . S
C967 C54 1.563 . S
C972 C384 1.563 . S
C997 C87 1.563 . S
C1002 C219 1.562 . S
C1027 C252 1.562 . S
C1032 C120 1.562 . S
C1057 C285 1.563 1_556 S
C1062 C153 1.563 . S
C1087 C318 1.562 . S
C1092 C186 1.562 . S
C1117 C18 1.256 . S
C1122 C249 1.256 . S
C1147 C282 1.258 . S
C1152 C51 1.258 . S
C1177 C315 1.257 . S
C1182 C84 1.257 . S
C1207 C117 1.256 . S
C1212 C348 1.256 . S
C1237 C381 1.258 . S
C1242 C150 1.258 . S
C1267 C183 1.257 . S
C1272 C216 1.257 . S
