# Generated by pormake.
# Topology wkc, (5)-cn, num edge types: 1
# Building blocks:
#     Node 0, Type 0, BuildingBlock: XOMCOT_clean_sbu_1, # of connection points: 5
#     Node 1, Type 0, BuildingBlock: XOMCOT_clean_sbu_1, # of connection points: 5
#     Node 2, Type 0, BuildingBlock: XOMCOT_clean_sbu_1, # of connection points: 5
#     Node 3, Type 0, BuildingBlock: XOMCOT_clean_sbu_1, # of connection points: 5
#     Node 4, Type 0, BuildingBlock: XOMCOT_clean_sbu_1, # of connection points: 5
#     Node 5, Type 0, BuildingBlock: XOMCOT_clean_sbu_1, # of connection points: 5
#     Node 6, Type 0, BuildingBlock: XOMCOT_clean_sbu_1, # of connection points: 5
#     Node 7, Type 0, BuildingBlock: XOMCOT_clean_sbu_1, # of connection points: 5
#     Node 8, Type 0, BuildingBlock: XOMCOT_clean_sbu_1, # of connection points: 5
#     Node 9, Type 0, BuildingBlock: XOMCOT_clean_sbu_1, # of connection points: 5
#     Node 10, Type 0, BuildingBlock: XOMCOT_clean_sbu_1, # of connection points: 5
#     Node 11, Type 0, BuildingBlock: XOMCOT_clean_sbu_1, # of connection points: 5
#     Edge 12, Type (0, 0), None
#     Edge 13, Type (0, 0), None
#     Edge 14, Type (0, 0), None
#     Edge 15, Type (0, 0), None
#     Edge 16, Type (0, 0), None
#     Edge 17, Type (0, 0), None
#     Edge 18, Type (0, 0), None
#     Edge 19, Type (0, 0), None
#     Edge 20, Type (0, 0), None
#     Edge 21, Type (0, 0), None
#     Edge 22, Type (0, 0), None
#     Edge 23, Type (0, 0), None
#     Edge 24, Type (0, 0), None
#     Edge 25, Type (0, 0), None
#     Edge 26, Type (0, 0), None
#     Edge 27, Type (0, 0), None
#     Edge 28, Type (0, 0), None
#     Edge 29, Type (0, 0), None
#     Edge 30, Type (0, 0), None
#     Edge 31, Type (0, 0), None
#     Edge 32, Type (0, 0), None
#     Edge 33, Type (0, 0), None
#     Edge 34, Type (0, 0), None
#     Edge 35, Type (0, 0), None
#     Edge 36, Type (0, 0), None
#     Edge 37, Type (0, 0), None
#     Edge 38, Type (0, 0), None
#     Edge 39, Type (0, 0), None
#     Edge 40, Type (0, 0), None
#     Edge 41, Type (0, 0), None
# Relax obj value: 0.272
# Max RMSD: 0.199
# Mean RMSD: 0.197
data_MOF--net-wkc--node1-XOMCOT_clean_sbu_1--edge1-none
_symmetry_space_group_name_H-M    P1
_symmetry_Int_Tables_number       1
_symmetry_cell_setting            triclinic
loop_
_symmetry_equiv_pos_as_xyz
'x, y, z'
_cell_length_a     19.233779
_cell_length_b     19.233469
_cell_length_c     22.176168
_cell_angle_alpha  90.001952
_cell_angle_beta   89.998882
_cell_angle_gamma 120.00166
loop_
_atom_site_label
_atom_site_type_symbol
_atom_site_fract_x
_atom_site_fract_y
_atom_site_fract_z
_atom_type_partial_charge
C0 C 0.23927 0.56764 0.99938 0.0
C1 C 0.24503 0.62872 0.03521 0.0
N2 N 0.28597 0.63125 0.08495 0.0
N3 N 0.27538 0.53148 1.02694 0.0
C4 C 0.30418 0.57275 0.07909 0.0
H5 H 0.20747 0.54812 0.95697 0.0
Co6 Co 0.27056 0.44119 0.99129 0.0
C7 C 0.12494 0.30137 0.04612 0.0
O8 O 0.16032 0.25799 0.044 0.0
N9 N 0.26251 0.35142 0.9489 0.0
C10 C 0.20275 0.23589 0.8979 0.0
C11 C 0.19266 0.29483 0.924 0.0
C12 C 0.31666 0.33036 0.92976 0.0
N13 N 0.28102 0.25895 0.90075 0.0
O14 O 0.37402 0.51046 0.95211 0.0
H15 H 0.13686 0.2956 0.92526 0.0
H16 H 0.38064 0.36573 0.93665 0.0
O17 O 0.16181 0.374 1.02696 0.0
C18 C 0.44072 0.57046 0.96873 0.0
O19 O 0.45339 0.5913 1.02578 0.0
N20 N 0.31782 0.42139 0.06241 0.0
C21 C 0.37647 0.3886 0.16835 0.0
C22 C 0.30769 0.39519 0.1697 0.0
C23 C 0.27911 0.41057 0.11666 0.0
C24 C 0.3871 0.41776 0.06111 0.0
C25 C 0.41666 0.40011 0.11329 0.0
H26 H 0.22686 0.41725 0.12062 0.0
H27 H 0.42126 0.4298 1.02027 0.0
H28 H 0.33673 0.5605 0.11309 0.0
H29 H 0.21663 0.66438 1.02758 0.0
H30 H 0.15684 0.18216 0.87587 0.0
H31 H 0.27485 0.38664 0.21134 0.0
H32 H 0.47073 0.39597 0.11068 0.0
C33 C 0.6983 0.22598 0.16603 0.0
C34 C 0.64298 0.23174 0.20185 0.0
N35 N 0.68136 0.27258 0.25164 0.0
N36 N 0.77056 0.262 0.19363 0.0
C37 C 0.75807 0.29074 0.2458 0.0
H38 H 0.68603 0.19425 0.12359 0.0
Co39 Co 0.85601 0.25717 0.15797 0.0
C40 C 0.8502 0.11153 0.21277 0.0
O41 O 0.92896 0.14691 0.21065 0.0
N42 N 0.93772 0.24912 0.11558 0.0
C43 C 0.99349 0.18936 0.06456 0.0
C44 C 0.92445 0.17927 0.09066 0.0
C45 C 1.01294 0.30327 0.09645 0.0
N46 N 0.0487 0.26762 0.06744 0.0
O47 O 0.89021 0.36063 0.1188 0.0
H48 H 0.86786 0.12348 0.0919 0.0
H49 H 0.04156 0.36724 0.10335 0.0
O50 O 0.81444 0.14841 0.19364 0.0
C51 C 0.89688 0.42733 0.13543 0.0
O52 O 0.88866 0.43997 0.19246 0.0
N53 N 0.92309 0.30443 0.22909 0.0
C54 C 1.01454 0.36309 0.33503 0.0
C55 C 0.93918 0.29428 0.33637 0.0
C56 C 0.89521 0.2657 0.28334 0.0
C57 C 0.99598 0.37373 0.22779 0.0
C58 C 0.0432 0.4033 0.27996 0.0
H59 H 0.8363 0.21344 0.2873 0.0
H60 H 1.01808 0.40789 0.18696 0.0
H61 H 0.80284 0.32323 0.27983 0.0
H62 H 0.57893 0.20341 0.19418 0.0
H63 H 1.00129 0.14344 0.04252 0.0
H64 H 0.91491 0.26143 0.37801 0.0
H65 H 0.1014 0.45738 0.27736 0.0
C66 C 0.49899 0.68485 0.33272 0.0
C67 C 0.43792 0.62953 0.36856 0.0
N68 N 0.4354 0.66795 0.4183 0.0
N69 N 0.53517 0.75713 0.36028 0.0
C70 C 0.49391 0.74467 0.41243 0.0
H71 H 0.5185 0.67255 0.29031 0.0
Co72 Co 0.62545 0.84259 0.32462 0.0
C73 C 0.76528 0.8368 0.37943 0.0
O74 O 0.80866 0.91556 0.37732 0.0
N75 N 0.71522 0.92431 0.28223 0.0
C76 C 0.83074 0.98008 0.23122 0.0
C77 C 0.77179 0.91104 0.25731 0.0
C78 C 0.73629 0.99953 0.2631 0.0
N79 N 0.8077 0.03529 0.23409 0.0
O80 O 0.55619 0.87678 0.28545 0.0
H81 H 0.77101 0.85446 0.25857 0.0
H82 H 0.70093 0.02814 0.26999 0.0
O83 O 0.69264 0.80103 0.36029 0.0
C84 C 0.49619 0.88349 0.30207 0.0
O85 O 0.47534 0.8753 0.35911 0.0
N86 N 0.64527 0.90967 0.39574 0.0
C87 C 0.67807 1.00111 0.50169 0.0
C88 C 0.67148 0.92574 0.50303 0.0
C89 C 0.6561 0.88177 0.44999 0.0
C90 C 0.64889 0.98257 0.39445 0.0
C91 C 0.66654 0.02979 0.44662 0.0
H92 H 0.64942 0.82286 0.45395 0.0
H93 H 0.63684 1.00468 0.35361 0.0
H94 H 0.50617 0.78947 0.44644 0.0
H95 H 0.40225 0.56547 0.36092 0.0
H96 H 0.88446 0.98788 0.20918 0.0
H97 H 0.68004 0.90146 0.54467 0.0
H98 H 0.67068 0.08799 0.44401 0.0
C99 C 0.84074 0.48559 0.49937 0.0
C100 C 0.83498 0.42451 0.53519 0.0
N101 N 0.79408 0.42201 0.58495 0.0
N102 N 0.80466 0.52178 0.52694 0.0
C103 C 0.77589 0.48053 0.5791 0.0
H104 H 0.87251 0.50508 0.45694 0.0
Co105 Co 0.80949 0.61207 0.49129 0.0
C106 C 0.95512 0.7519 0.5461 0.0
O107 O 0.91974 0.79529 0.54398 0.0
N108 N 0.81753 0.70183 0.44889 0.0
C109 C 0.87729 0.81736 0.39789 0.0
C110 C 0.88738 0.75842 0.42398 0.0
C111 C 0.76338 0.7229 0.42976 0.0
N112 N 0.79903 0.79431 0.40075 0.0
O113 O 0.70603 0.5428 0.45211 0.0
H114 H 0.94318 0.75764 0.42523 0.0
H115 H 0.69941 0.68753 0.43665 0.0
O116 O 0.91824 0.67926 0.52696 0.0
C117 C 0.63933 0.4828 0.46873 0.0
O118 O 0.62667 0.46195 0.52577 0.0
N119 N 0.76223 0.63188 0.56241 0.0
C120 C 0.70357 0.66467 0.66835 0.0
C121 C 0.77237 0.6581 0.66969 0.0
C122 C 0.80095 0.64272 0.61666 0.0
C123 C 0.69294 0.63549 0.56111 0.0
C124 C 0.66337 0.65315 0.61328 0.0
H125 H 0.8532 0.63605 0.62062 0.0
H126 H 0.65878 0.62345 0.52027 0.0
H127 H 0.74336 0.4928 0.61311 0.0
H128 H 0.86335 0.38882 0.52755 0.0
H129 H 0.9232 0.87108 0.37585 0.0
H130 H 0.80521 0.66667 0.71133 0.0
H131 H 0.6093 0.65728 0.61067 0.0
C132 C 0.38173 0.82724 0.66603 0.0
C133 C 0.43705 0.82148 0.70186 0.0
N134 N 0.39867 0.78068 0.75165 0.0
N135 N 0.30948 0.79125 0.69364 0.0
C136 C 0.32197 0.76254 0.74582 0.0
H137 H 0.39399 0.85895 0.62358 0.0
Co138 Co 0.22403 0.79608 0.65797 0.0
C139 C 0.22984 0.94173 0.71276 0.0
O140 O 0.15108 0.90636 0.71063 0.0
N141 N 0.14233 0.80414 0.61557 0.0
C142 C 0.08658 0.8639 0.56454 0.0
C143 C 0.15561 0.87398 0.59064 0.0
C144 C 0.06711 0.74999 0.59644 0.0
N145 N 1.03135 0.78564 0.56742 0.0
O146 O 0.18983 0.69262 0.6188 0.0
H147 H 0.2122 0.92978 0.59189 0.0
H148 H 1.03847 0.68602 0.60335 0.0
O149 O 0.2656 0.90484 0.69364 0.0
C150 C 0.18316 0.62594 0.63542 0.0
O151 O 0.19139 0.6133 0.69246 0.0
N152 N 0.15694 0.74883 0.72909 0.0
C153 C 0.06548 0.69016 0.83502 0.0
C154 C 0.14083 0.75898 0.83637 0.0
C155 C 0.1848 0.78757 0.78333 0.0
C156 C 0.08405 0.67953 0.72779 0.0
C157 C 1.03682 0.64995 0.77995 0.0
H158 H 0.24371 0.83982 0.7873 0.0
H159 H 0.06196 0.64536 0.68695 0.0
H160 H 0.2772 0.73007 0.77986 0.0
H161 H 0.50109 0.84979 0.69418 0.0
H162 H 0.07879 0.90981 0.54249 0.0
H163 H 0.16509 0.79183 0.87801 0.0
H164 H 0.97863 0.59586 0.77734 0.0
C165 C 0.58105 0.3684 0.83273 0.0
C166 C 0.64212 0.42371 0.86857 0.0
N167 N 0.64464 0.3853 0.91831 0.0
N168 N 0.54487 0.29611 0.86029 0.0
C169 C 0.58613 0.30858 0.91244 0.0
H170 H 0.56155 0.38069 0.79032 0.0
Co171 Co 0.45459 0.21066 0.82463 0.0
C172 C 0.31476 0.21645 0.87944 0.0
O173 O 0.27138 0.13769 0.87732 0.0
N174 N 0.36483 0.12895 0.78223 0.0
C175 C 0.2493 0.07319 0.73122 0.0
C176 C 0.30826 0.14223 0.75731 0.0
C177 C 0.34375 0.05373 0.7631 0.0
N178 N 0.27234 1.01797 0.73409 0.0
O179 O 0.52385 0.17646 0.78545 0.0
H180 H 0.30905 0.19881 0.75857 0.0
H181 H 0.3791 1.0251 0.76999 0.0
O182 O 0.3874 0.25222 0.8603 0.0
C183 C 0.58385 0.16976 0.80207 0.0
O184 O 0.6047 0.17794 0.85911 0.0
N185 N 0.43477 0.14358 0.89575 0.0
C186 C 0.40197 0.05213 1.00168 0.0
C187 C 0.40855 0.12751 1.00303 0.0
C188 C 0.42394 0.17147 0.95 0.0
C189 C 0.43115 0.07068 0.89445 0.0
C190 C 0.41349 1.02346 0.94662 0.0
H191 H 0.43061 0.23039 0.95396 0.0
H192 H 0.4432 0.04857 0.85361 0.0
H193 H 0.57386 0.26377 0.94645 0.0
H194 H 0.6778 0.48777 0.86094 0.0
H195 H 0.19559 0.06539 0.70917 0.0
H196 H 0.39999 0.15178 0.04467 0.0
H197 H 0.40936 0.96525 0.94401 0.0
C198 C 0.49856 0.82635 0.89203 0.0
C199 C 0.43768 0.82073 0.85603 0.0
N200 N 0.43605 0.78074 0.80597 0.0
N201 N 0.5354 0.79101 0.86431 0.0
C202 C 0.49475 0.76281 0.81185 0.0
H203 H 0.51743 0.85749 0.93474 0.0
Co204 Co 0.62558 0.79593 0.90024 0.0
C205 C 0.76562 0.94196 0.84594 0.0
O206 O 0.8093 0.90692 0.8484 0.0
N207 N 0.71518 0.80405 0.94288 0.0
C208 C 0.83027 0.86391 0.99443 0.0
C209 C 0.77131 0.87384 0.96817 0.0
C210 C 0.73649 0.75004 0.96188 0.0
N211 N 0.80765 0.78577 0.99125 0.0
O212 O 0.55625 0.69242 0.93932 0.0
H213 H 0.77021 0.92948 0.96703 0.0
H214 H 0.70152 0.68612 0.95461 0.0
O215 O 0.69281 0.90475 0.86471 0.0
C216 C 0.49609 0.62585 0.92266 0.0
O217 O 0.47509 0.61339 0.86565 0.0
N218 N 0.64578 0.74877 0.82923 0.0
C219 C 0.67859 0.68992 0.72339 0.0
C220 C 0.67259 0.75904 0.72204 0.0
C221 C 0.65719 0.7877 0.77502 0.0
C222 C 0.64895 0.67924 0.83056 0.0
C223 C 0.66659 0.64956 0.77844 0.0
H224 H 0.65078 0.84009 0.77098 0.0
H225 H 0.6365 0.64495 0.87137 0.0
H226 H 0.50748 0.73081 0.77769 0.0
H227 H 0.4015 0.84854 0.86382 0.0
H228 H 0.8837 0.90984 1.01676 0.0
H229 H 0.68151 0.79201 0.68041 0.0
H230 H 0.67029 0.59525 0.78105 0.0
C231 C 0.69876 0.48525 0.05866 0.0
C232 C 0.64351 0.42437 1.02265 0.0
N233 N 0.68191 0.42264 0.97265 0.0
N234 N 0.77098 0.52198 0.031 0.0
C235 C 0.75856 0.48128 0.97857 0.0
H236 H 0.68646 0.50419 0.10133 0.0
Co237 Co 0.85625 0.61216 0.06692 0.0
C238 C 0.85028 0.7522 1.0126 0.0
O239 O 0.929 0.79586 1.01505 0.0
N240 N 0.93774 0.70177 0.10956 0.0
C241 C 0.99299 0.81688 0.16109 0.0
C242 C 0.92409 0.75791 0.13483 0.0
C243 C 1.01306 0.72309 0.12856 0.0
N244 N 0.0485 0.79425 0.15792 0.0
O245 O 0.89043 0.54284 0.10601 0.0
H246 H 0.86736 0.75682 0.13368 0.0
H247 H 0.04201 0.68811 0.12132 0.0
O248 O 0.81467 0.6794 0.03138 0.0
C249 C 0.89688 0.4827 0.08936 0.0
O250 O 0.88839 0.46172 0.03233 0.0
N251 N 0.9236 0.63235 0.99591 0.0
C252 C 1.01524 0.66516 0.89007 0.0
C253 C 0.9401 0.65911 0.88871 0.0
C254 C 0.89605 0.64371 0.94169 0.0
C255 C 0.99632 0.63556 0.99723 0.0
C256 C 0.04363 0.65321 0.94511 0.0
H257 H 0.83724 0.63728 0.93766 0.0
H258 H 1.01818 0.62314 0.03805 0.0
H259 H 0.80333 0.49395 0.94445 0.0
H260 H 0.57951 0.38827 0.03039 0.0
H261 H 1.0005 0.87032 0.18341 0.0
H262 H 0.91604 0.668 0.84708 0.0
H263 H 0.10165 0.65694 0.94773 0.0
C264 C 0.24024 0.68541 0.22533 0.0
C265 C 0.24587 0.63017 0.18931 0.0
N266 N 0.28592 0.66855 0.13928 0.0
N267 N 0.27564 0.75761 0.19763 0.0
C268 C 0.30387 0.74518 0.14519 0.0
H269 H 0.20906 0.67313 0.26802 0.0
Co270 Co 0.27072 0.84287 0.23357 0.0
C271 C 0.12471 0.83689 0.17927 0.0
O272 O 0.15976 0.91561 0.18173 0.0
N273 N 0.2626 0.92434 0.27622 0.0
C274 C 0.20273 0.97956 0.32777 0.0
C275 C 0.19281 0.91067 0.30151 0.0
C276 C 0.31659 0.99968 0.29522 0.0
N277 N 0.28086 0.03509 0.32459 0.0
O278 O 0.37423 0.87706 0.27265 0.0
H279 H 0.13718 0.85393 0.30037 0.0
H280 H 0.38052 0.02864 0.28795 0.0
O281 O 0.1619 0.80128 0.19804 0.0
C282 C 0.4408 0.88348 0.256 0.0
O283 O 0.45328 0.87496 0.19898 0.0
N284 N 0.31788 0.91024 0.16257 0.0
C285 C 0.37672 1.0019 0.05673 0.0
C286 C 0.30761 0.92677 0.05537 0.0
C287 C 0.27895 0.8827 0.10835 0.0
C288 C 0.38741 0.98295 0.16389 0.0
C289 C 0.41708 0.03027 0.11178 0.0
H290 H 0.22657 0.82391 0.10431 0.0
H291 H 0.4217 1.00479 0.20471 0.0
H292 H 0.33591 0.78993 0.11105 0.0
H293 H 0.21802 0.56617 0.19708 0.0
H294 H 0.1568 0.98705 0.35011 0.0
H295 H 0.27465 0.90272 1.01374 0.0
H296 H 0.47139 0.08828 0.11439 0.0
C297 C 0.58149 0.22693 0.39203 0.0
C298 C 0.64237 0.23256 0.35602 0.0
N299 N 0.64399 0.27252 0.30596 0.0
N300 N 0.54464 0.26225 0.3643 0.0
C301 C 0.58528 0.29044 0.31184 0.0
H302 H 0.56263 0.19581 0.43474 0.0
Co303 Co 0.45447 0.25733 0.40024 0.0
C304 C 0.31443 0.1113 0.34594 0.0
O305 O 0.27074 0.14634 0.34841 0.0
N306 N 0.36487 0.24921 0.44288 0.0
C307 C 0.24978 0.18934 0.49444 0.0
C308 C 0.30875 0.17942 0.46818 0.0
C309 C 0.34354 0.30321 0.46188 0.0
N310 N 0.27239 0.26748 0.49126 0.0
O311 O 0.52379 0.36084 0.43932 0.0
H312 H 0.30985 0.12379 0.46704 0.0
H313 H 0.3785 0.36713 0.45461 0.0
O314 O 0.38723 0.14851 0.36471 0.0
C315 C 0.58395 0.42741 0.42267 0.0
O316 O 0.60495 0.43987 0.36565 0.0
N317 N 0.43425 0.30449 0.32923 0.0
C318 C 0.40145 0.36334 0.2234 0.0
C319 C 0.40744 0.29422 0.22204 0.0
C320 C 0.42283 0.26555 0.27502 0.0
C321 C 0.43109 0.37403 0.33056 0.0
C322 C 0.41345 0.40371 0.27844 0.0
H323 H 0.42923 0.21316 0.27097 0.0
H324 H 0.44355 0.40832 0.37137 0.0
H325 H 0.57254 0.32243 0.27767 0.0
H326 H 0.67856 0.20476 0.36382 0.0
H327 H 0.19636 0.14342 0.51678 0.0
H328 H 0.39851 0.26125 0.18041 0.0
H329 H 0.40976 0.45802 0.28106 0.0
C330 C 0.38126 0.56804 0.55867 0.0
C331 C 0.43651 0.62892 0.52265 0.0
N332 N 0.39812 0.63061 0.47264 0.0
N333 N 0.30905 0.53127 0.53099 0.0
C334 C 0.32148 0.57195 0.47855 0.0
H335 H 0.39355 0.54913 0.60135 0.0
Co336 Co 0.22379 0.44109 0.56692 0.0
C337 C 0.22976 0.30105 0.51261 0.0
O338 O 0.15104 0.25738 0.51507 0.0
N339 N 0.14231 0.35149 0.60956 0.0
C340 C 0.08708 0.2364 0.66111 0.0
C341 C 0.15597 0.29537 0.63485 0.0
C342 C 0.06698 0.33017 0.62857 0.0
N343 N 1.03156 0.25901 0.65794 0.0
O344 O 0.18961 0.51042 0.606 0.0
H345 H 0.2127 0.29647 0.6337 0.0
H346 H 1.03803 0.36514 0.62131 0.0
O347 O 0.26537 0.37386 0.53138 0.0
C348 C 0.18317 0.57056 0.58935 0.0
O349 O 0.19167 0.59154 0.53233 0.0
N350 N 0.15642 0.42089 0.49591 0.0
C351 C 0.06478 0.38808 0.39008 0.0
C352 C 0.1399 0.39411 0.38872 0.0
C353 C 0.18396 0.4095 0.4417 0.0
C354 C 0.08372 0.4177 0.49724 0.0
C355 C 1.0364 0.40005 0.44512 0.0
H356 H 0.24276 0.41592 0.43766 0.0
H357 H 0.06186 0.43014 0.53805 0.0
H358 H 0.27672 0.55925 0.44442 0.0
H359 H 0.50051 0.66504 0.5304 0.0
H360 H 0.07957 0.18297 0.68344 0.0
H361 H 0.16396 0.3852 0.34709 0.0
H362 H 0.97838 0.39634 0.44774 0.0
C363 C 0.83976 0.36783 0.72534 0.0
C364 C 0.83413 0.42308 0.68933 0.0
N365 N 0.79413 0.38471 0.63928 0.0
N366 N 0.8044 0.29565 0.69763 0.0
C367 C 0.77619 0.30808 0.64517 0.0
H368 H 0.87091 0.38011 0.76805 0.0
Co369 Co 0.80932 0.21039 0.73357 0.0
C370 C 0.95535 0.21637 0.67928 0.0
O371 O 0.9203 0.13765 0.68175 0.0
N372 N 0.81745 0.12892 0.77622 0.0
C373 C 0.87731 0.0737 0.82778 0.0
C374 C 0.88723 0.14259 0.80152 0.0
C375 C 0.76345 0.05358 0.79521 0.0
N376 N 0.79918 1.01817 0.82458 0.0
O377 O 0.70581 0.1762 0.77265 0.0
H378 H 0.94286 0.19934 0.80039 0.0
H379 H 0.69952 1.02461 0.78794 0.0
O380 O 0.91814 0.25198 0.69805 0.0
C381 C 0.63924 0.16978 0.756 0.0
O382 O 0.62677 0.17831 0.69898 0.0
N383 N 0.76216 0.14301 0.66257 0.0
C384 C 0.70332 0.05135 0.55673 0.0
C385 C 0.77244 0.12647 0.55538 0.0
C386 C 0.8011 0.17054 0.60835 0.0
C387 C 0.69263 0.07031 0.6639 0.0
C388 C 0.66296 1.02298 0.61178 0.0
H389 H 0.85349 0.22933 0.60431 0.0
H390 H 0.65834 0.04847 0.70471 0.0
H391 H 0.74418 0.26334 0.61102 0.0
H392 H 0.86195 0.48707 0.69711 0.0
H393 H 0.92324 0.06621 0.85012 0.0
H394 H 0.80541 0.15051 0.51375 0.0
H395 H 0.60864 0.96498 0.61439 0.0
loop_
_geom_bond_atom_site_label_1
_geom_bond_atom_site_label_2
_geom_bond_distance
_geom_bond_site_symmetry_2
_ccdc_geom_bond_type
C0 C1 1.351 . S
C0 N3 1.368 . S
C0 H5 0.931 . S
C1 C0 1.351 . S
C1 N2 1.373 . S
C1 H29 0.930 . S
N2 C1 1.373 . S
N2 C4 1.340 . S
N3 C0 1.368 . S
N3 C4 1.321 . S
N3 Co6 2.135 1_554 S
C4 N2 1.340 . S
C4 N3 1.321 . S
C4 H28 0.930 . S
H5 C0 0.931 . S
Co6 N3 2.135 1_556 S
Co6 N9 2.121 . S
Co6 O14 2.055 . S
Co6 O17 2.039 . S
Co6 N20 2.140 1_556 S
C7 O8 1.227 . S
C7 O17 1.265 1_554 S
O8 C7 1.227 . S
N9 Co6 2.121 . S
N9 C11 1.375 . S
N9 C12 1.313 . S
C10 C11 1.338 . S
C10 N13 1.377 . S
C10 H30 0.930 . S
C11 N9 1.375 . S
C11 C10 1.338 . S
C11 H15 0.931 . S
C12 N9 1.313 . S
C12 N13 1.344 . S
C12 H16 0.930 . S
N13 C10 1.377 . S
N13 C12 1.344 . S
O14 Co6 2.055 . S
O14 C18 1.253 . S
H15 C11 0.931 . S
H16 C12 0.930 . S
O17 Co6 2.039 . S
O17 C7 1.265 1_556 S
C18 O14 1.253 . S
C18 O19 1.227 . S
O19 C18 1.227 . S
N20 Co6 2.140 1_554 S
N20 C23 1.346 . S
N20 C24 1.345 . S
C21 C22 1.387 . S
C21 C25 1.391 . S
C22 C21 1.387 . S
C22 C23 1.369 . S
C22 H31 0.929 . S
C23 N20 1.346 . S
C23 C22 1.369 . S
C23 H26 0.928 . S
C24 N20 1.345 . S
C24 C25 1.371 . S
C24 H27 0.931 . S
C25 C21 1.391 . S
C25 C24 1.371 . S
C25 H32 0.930 . S
H26 C23 0.928 . S
H27 C24 0.931 . S
H28 C4 0.930 . S
H29 C1 0.930 . S
H30 C10 0.930 . S
H31 C22 0.929 . S
H32 C25 0.930 . S
C33 C34 1.351 . S
C33 N36 1.368 . S
C33 H38 0.931 . S
C34 C33 1.351 . S
C34 N35 1.373 . S
C34 H62 0.930 . S
N35 C34 1.373 . S
N35 C37 1.340 . S
N36 C33 1.368 . S
N36 C37 1.321 . S
N36 Co39 2.135 . S
C37 N35 1.340 . S
C37 N36 1.321 . S
C37 H61 0.930 . S
H38 C33 0.931 . S
Co39 N36 2.135 . S
Co39 N42 2.121 . S
Co39 O47 2.055 . S
Co39 O50 2.039 . S
Co39 N53 2.140 . S
C40 O41 1.227 . S
C40 O50 1.265 . S
O41 C40 1.227 . S
N42 Co39 2.121 . S
N42 C44 1.375 . S
N42 C45 1.313 . S
C43 C44 1.338 . S
C43 N46 1.377 1_655 S
C43 H63 0.930 1_655 S
C44 N42 1.375 . S
C44 C43 1.338 . S
C44 H48 0.931 . S
C45 N42 1.313 . S
C45 N46 1.344 1_655 S
C45 H49 0.930 . S
N46 C43 1.377 1_455 S
N46 C45 1.344 1_455 S
O47 Co39 2.055 . S
O47 C51 1.253 . S
H48 C44 0.931 . S
H49 C45 0.930 . S
O50 Co39 2.039 . S
O50 C40 1.265 . S
C51 O47 1.253 . S
C51 O52 1.227 . S
O52 C51 1.227 . S
N53 Co39 2.140 . S
N53 C56 1.346 . S
N53 C57 1.345 . S
C54 C55 1.387 . S
C54 C58 1.391 1_655 S
C55 C54 1.387 . S
C55 C56 1.369 . S
C55 H64 0.929 . S
C56 N53 1.346 . S
C56 C55 1.369 . S
C56 H59 0.928 . S
C57 N53 1.345 . S
C57 C58 1.371 1_655 S
C57 H60 0.931 . S
C58 C54 1.391 1_455 S
C58 C57 1.371 1_455 S
C58 H65 0.930 . S
H59 C56 0.928 . S
H60 C57 0.931 . S
H61 C37 0.930 . S
H62 C34 0.930 . S
H63 C43 0.930 1_455 S
H64 C55 0.929 . S
H65 C58 0.930 . S
C66 C67 1.351 . S
C66 N69 1.368 . S
C66 H71 0.931 . S
C67 C66 1.351 . S
C67 N68 1.373 . S
C67 H95 0.930 . S
N68 C67 1.373 . S
N68 C70 1.340 . S
N69 C66 1.368 . S
N69 C70 1.321 . S
N69 Co72 2.135 . S
C70 N68 1.340 . S
C70 N69 1.321 . S
C70 H94 0.930 . S
H71 C66 0.931 . S
Co72 N69 2.135 . S
Co72 N75 2.121 . S
Co72 O80 2.055 . S
Co72 O83 2.039 . S
Co72 N86 2.140 . S
C73 O74 1.227 . S
C73 O83 1.265 . S
O74 C73 1.227 . S
N75 Co72 2.121 . S
N75 C77 1.375 . S
N75 C78 1.313 . S
C76 C77 1.338 . S
C76 N79 1.377 1_565 S
C76 H96 0.930 1_565 S
C77 N75 1.375 . S
C77 C76 1.338 . S
C77 H81 0.931 . S
C78 N75 1.313 . S
C78 N79 1.344 1_565 S
C78 H82 0.930 . S
N79 C76 1.377 1_545 S
N79 C78 1.344 1_545 S
O80 Co72 2.055 . S
O80 C84 1.253 . S
H81 C77 0.931 . S
H82 C78 0.930 . S
O83 Co72 2.039 . S
O83 C73 1.265 . S
C84 O80 1.253 . S
C84 O85 1.227 . S
O85 C84 1.227 . S
N86 Co72 2.140 . S
N86 C89 1.346 . S
N86 C90 1.345 . S
C87 C88 1.387 . S
C87 C91 1.391 1_565 S
C88 C87 1.387 . S
C88 C89 1.369 . S
C88 H97 0.929 . S
C89 N86 1.346 . S
C89 C88 1.369 . S
C89 H92 0.928 . S
C90 N86 1.345 . S
C90 C91 1.371 1_565 S
C90 H93 0.931 . S
C91 C87 1.391 1_545 S
C91 C90 1.371 1_545 S
C91 H98 0.930 . S
H92 C89 0.928 . S
H93 C90 0.931 . S
H94 C70 0.930 . S
H95 C67 0.930 . S
H96 C76 0.930 1_545 S
H97 C88 0.929 . S
H98 C91 0.930 . S
C99 C100 1.351 . S
C99 N102 1.368 . S
C99 H104 0.931 . S
C100 C99 1.351 . S
C100 N101 1.373 . S
C100 H128 0.930 . S
N101 C100 1.373 . S
N101 C103 1.340 . S
N102 C99 1.368 . S
N102 C103 1.321 . S
N102 Co105 2.135 . S
C103 N101 1.340 . S
C103 N102 1.321 . S
C103 H127 0.930 . S
H104 C99 0.931 . S
Co105 N102 2.135 . S
Co105 N108 2.121 . S
Co105 O113 2.055 . S
Co105 O116 2.039 . S
Co105 N119 2.140 . S
C106 O107 1.227 . S
C106 O116 1.265 . S
O107 C106 1.227 . S
N108 Co105 2.121 . S
N108 C110 1.375 . S
N108 C111 1.313 . S
C109 C110 1.338 . S
C109 N112 1.377 . S
C109 H129 0.930 . S
C110 N108 1.375 . S
C110 C109 1.338 . S
C110 H114 0.931 . S
C111 N108 1.313 . S
C111 N112 1.344 . S
C111 H115 0.930 . S
N112 C109 1.377 . S
N112 C111 1.344 . S
O113 Co105 2.055 . S
O113 C117 1.253 . S
H114 C110 0.931 . S
H115 C111 0.930 . S
O116 Co105 2.039 . S
O116 C106 1.265 . S
C117 O113 1.253 . S
C117 O118 1.227 . S
O118 C117 1.227 . S
N119 Co105 2.140 . S
N119 C122 1.346 . S
N119 C123 1.345 . S
C120 C121 1.387 . S
C120 C124 1.391 . S
C121 C120 1.387 . S
C121 C122 1.369 . S
C121 H130 0.929 . S
C122 N119 1.346 . S
C122 C121 1.369 . S
C122 H125 0.928 . S
C123 N119 1.345 . S
C123 C124 1.371 . S
C123 H126 0.931 . S
C124 C120 1.391 . S
C124 C123 1.371 . S
C124 H131 0.930 . S
H125 C122 0.928 . S
H126 C123 0.931 . S
H127 C103 0.930 . S
H128 C100 0.930 . S
H129 C109 0.930 . S
H130 C121 0.929 . S
H131 C124 0.930 . S
C132 C133 1.351 . S
C132 N135 1.368 . S
C132 H137 0.931 . S
C133 C132 1.351 . S
C133 N134 1.373 . S
C133 H161 0.930 . S
N134 C133 1.373 . S
N134 C136 1.340 . S
N135 C132 1.368 . S
N135 C136 1.321 . S
N135 Co138 2.135 . S
C136 N134 1.340 . S
C136 N135 1.321 . S
C136 H160 0.930 . S
H137 C132 0.931 . S
Co138 N135 2.135 . S
Co138 N141 2.121 . S
Co138 O146 2.055 . S
Co138 O149 2.039 . S
Co138 N152 2.140 . S
C139 O140 1.227 . S
C139 O149 1.265 . S
O140 C139 1.227 . S
N141 Co138 2.121 . S
N141 C143 1.375 . S
N141 C144 1.313 . S
C142 C143 1.338 . S
C142 N145 1.377 1_455 S
C142 H162 0.930 1_455 S
C143 N141 1.375 . S
C143 C142 1.338 . S
C143 H147 0.931 . S
C144 N141 1.313 . S
C144 N145 1.344 1_455 S
C144 H148 0.930 . S
N145 C142 1.377 1_655 S
N145 C144 1.344 1_655 S
O146 Co138 2.055 . S
O146 C150 1.253 . S
H147 C143 0.931 . S
H148 C144 0.930 . S
O149 Co138 2.039 . S
O149 C139 1.265 . S
C150 O146 1.253 . S
C150 O151 1.227 . S
O151 C150 1.227 . S
N152 Co138 2.140 . S
N152 C155 1.346 . S
N152 C156 1.345 . S
C153 C154 1.387 . S
C153 C157 1.391 1_455 S
C154 C153 1.387 . S
C154 C155 1.369 . S
C154 H163 0.929 . S
C155 N152 1.346 . S
C155 C154 1.369 . S
C155 H158 0.928 . S
C156 N152 1.345 . S
C156 C157 1.371 1_455 S
C156 H159 0.931 . S
C157 C153 1.391 1_655 S
C157 C156 1.371 1_655 S
C157 H164 0.930 . S
H158 C155 0.928 . S
H159 C156 0.931 . S
H160 C136 0.930 . S
H161 C133 0.930 . S
H162 C142 0.930 1_655 S
H163 C154 0.929 . S
H164 C157 0.930 . S
C165 C166 1.351 . S
C165 N168 1.368 . S
C165 H170 0.931 . S
C166 C165 1.351 . S
C166 N167 1.373 . S
C166 H194 0.930 . S
N167 C166 1.373 . S
N167 C169 1.340 . S
N168 C165 1.368 . S
N168 C169 1.321 . S
N168 Co171 2.135 . S
C169 N167 1.340 . S
C169 N168 1.321 . S
C169 H193 0.930 . S
H170 C165 0.931 . S
Co171 N168 2.135 . S
Co171 N174 2.121 . S
Co171 O179 2.055 . S
Co171 O182 2.039 . S
Co171 N185 2.140 . S
C172 O173 1.227 . S
C172 O182 1.265 . S
O173 C172 1.227 . S
N174 Co171 2.121 . S
N174 C176 1.375 . S
N174 C177 1.313 . S
C175 C176 1.338 . S
C175 N178 1.377 1_545 S
C175 H195 0.930 1_545 S
C176 N174 1.375 . S
C176 C175 1.338 . S
C176 H180 0.931 . S
C177 N174 1.313 . S
C177 N178 1.344 1_545 S
C177 H181 0.930 . S
N178 C175 1.377 1_565 S
N178 C177 1.344 1_565 S
O179 Co171 2.055 . S
O179 C183 1.253 . S
H180 C176 0.931 . S
H181 C177 0.930 . S
O182 Co171 2.039 . S
O182 C172 1.265 . S
C183 O179 1.253 . S
C183 O184 1.227 . S
O184 C183 1.227 . S
N185 Co171 2.140 . S
N185 C188 1.346 . S
N185 C189 1.345 . S
C186 C187 1.387 . S
C186 C190 1.391 1_545 S
C187 C186 1.387 . S
C187 C188 1.369 . S
C187 H196 0.929 1_556 S
C188 N185 1.346 . S
C188 C187 1.369 . S
C188 H191 0.928 . S
C189 N185 1.345 . S
C189 C190 1.371 1_545 S
C189 H192 0.931 . S
C190 C186 1.391 1_565 S
C190 C189 1.371 1_565 S
C190 H197 0.930 . S
H191 C188 0.928 . S
H192 C189 0.931 . S
H193 C169 0.930 . S
H194 C166 0.930 . S
H195 C175 0.930 1_565 S
H196 C187 0.929 1_554 S
H197 C190 0.930 . S
C198 C199 1.351 . S
C198 N201 1.368 . S
C198 H203 0.931 . S
C199 C198 1.351 . S
C199 N200 1.373 . S
C199 H227 0.930 . S
N200 C199 1.373 . S
N200 C202 1.340 . S
N201 C198 1.368 . S
N201 C202 1.321 . S
N201 Co204 2.135 . S
C202 N200 1.340 . S
C202 N201 1.321 . S
C202 H226 0.930 . S
H203 C198 0.931 . S
Co204 N201 2.135 . S
Co204 N207 2.121 . S
Co204 O212 2.055 . S
Co204 O215 2.039 . S
Co204 N218 2.140 . S
C205 O206 1.227 . S
C205 O215 1.265 . S
O206 C205 1.227 . S
N207 Co204 2.121 . S
N207 C209 1.375 . S
N207 C210 1.313 . S
C208 C209 1.338 . S
C208 N211 1.377 . S
C208 H228 0.930 . S
C209 N207 1.375 . S
C209 C208 1.338 . S
C209 H213 0.931 . S
C210 N207 1.313 . S
C210 N211 1.344 . S
C210 H214 0.930 . S
N211 C208 1.377 . S
N211 C210 1.344 . S
O212 Co204 2.055 . S
O212 C216 1.253 . S
H213 C209 0.931 . S
H214 C210 0.930 . S
O215 Co204 2.039 . S
O215 C205 1.265 . S
C216 O212 1.253 . S
C216 O217 1.227 . S
O217 C216 1.227 . S
N218 Co204 2.140 . S
N218 C221 1.346 . S
N218 C222 1.345 . S
C219 C220 1.387 . S
C219 C223 1.391 . S
C220 C219 1.387 . S
C220 C221 1.369 . S
C220 H229 0.929 . S
C221 N218 1.346 . S
C221 C220 1.369 . S
C221 H224 0.928 . S
C222 N218 1.345 . S
C222 C223 1.371 . S
C222 H225 0.931 . S
C223 C219 1.391 . S
C223 C222 1.371 . S
C223 H230 0.930 . S
H224 C221 0.928 . S
H225 C222 0.931 . S
H226 C202 0.930 . S
H227 C199 0.930 . S
H228 C208 0.930 . S
H229 C220 0.929 . S
H230 C223 0.930 . S
C231 C232 1.351 . S
C231 N234 1.368 . S
C231 H236 0.931 . S
C232 C231 1.351 . S
C232 N233 1.373 . S
C232 H260 0.930 . S
N233 C232 1.373 . S
N233 C235 1.340 . S
N234 C231 1.368 . S
N234 C235 1.321 . S
N234 Co237 2.135 1_556 S
C235 N233 1.340 . S
C235 N234 1.321 . S
C235 H259 0.930 . S
H236 C231 0.931 . S
Co237 N234 2.135 1_554 S
Co237 N240 2.121 . S
Co237 O245 2.055 . S
Co237 O248 2.039 . S
Co237 N251 2.140 1_554 S
C238 O239 1.227 . S
C238 O248 1.265 1_556 S
O239 C238 1.227 . S
N240 Co237 2.121 . S
N240 C242 1.375 . S
N240 C243 1.313 . S
C241 C242 1.347 . S
C241 N244 1.368 1_655 S
C241 H261 0.930 1_655 S
C242 N240 1.375 . S
C242 C241 1.347 . S
C242 H246 0.931 . S
C243 N240 1.313 . S
C243 N244 1.344 1_655 S
C243 H247 0.930 . S
N244 C241 1.368 1_455 S
N244 C243 1.344 1_455 S
O245 Co237 2.055 . S
O245 C249 1.253 . S
H246 C242 0.931 . S
H247 C243 0.930 . S
O248 Co237 2.039 . S
O248 C238 1.265 1_554 S
C249 O245 1.253 . S
C249 O250 1.227 . S
O250 C249 1.227 . S
N251 Co237 2.140 1_556 S
N251 C254 1.346 . S
N251 C255 1.345 . S
C252 C253 1.387 . S
C252 C256 1.391 1_655 S
C253 C252 1.387 . S
C253 C254 1.369 . S
C253 H262 0.929 . S
C254 N251 1.346 . S
C254 C253 1.369 . S
C254 H257 0.928 . S
C255 N251 1.345 . S
C255 C256 1.371 1_655 S
C255 H258 0.931 . S
C256 C252 1.391 1_455 S
C256 C255 1.371 1_455 S
C256 H263 0.930 . S
H257 C254 0.928 . S
H258 C255 0.931 . S
H259 C235 0.930 . S
H260 C232 0.930 . S
H261 C241 0.930 1_455 S
H262 C253 0.929 . S
H263 C256 0.930 . S
C264 C265 1.351 . S
C264 N267 1.368 . S
C264 H269 0.931 . S
C265 C264 1.351 . S
C265 N266 1.373 . S
C265 H293 0.930 . S
N266 C265 1.373 . S
N266 C268 1.340 . S
N267 C264 1.368 . S
N267 C268 1.321 . S
N267 Co270 2.135 . S
C268 N266 1.340 . S
C268 N267 1.321 . S
C268 H292 0.930 . S
H269 C264 0.931 . S
Co270 N267 2.135 . S
Co270 N273 2.121 . S
Co270 O278 2.055 . S
Co270 O281 2.039 . S
Co270 N284 2.140 . S
C271 O272 1.227 . S
C271 O281 1.265 . S
O272 C271 1.227 . S
N273 Co270 2.121 . S
N273 C275 1.375 . S
N273 C276 1.313 . S
C274 C275 1.338 . S
C274 N277 1.377 1_565 S
C274 H294 0.930 1_565 S
C275 N273 1.375 . S
C275 C274 1.338 . S
C275 H279 0.931 . S
C276 N273 1.313 . S
C276 N277 1.344 1_565 S
C276 H280 0.930 . S
N277 C274 1.377 1_545 S
N277 C276 1.344 1_545 S
O278 Co270 2.055 . S
O278 C282 1.253 . S
H279 C275 0.931 . S
H280 C276 0.930 . S
O281 Co270 2.039 . S
O281 C271 1.265 . S
C282 O278 1.253 . S
C282 O283 1.227 . S
O283 C282 1.227 . S
N284 Co270 2.140 . S
N284 C287 1.346 . S
N284 C288 1.345 . S
C285 C286 1.387 . S
C285 C289 1.391 1_565 S
C286 C285 1.387 . S
C286 C287 1.369 . S
C286 H295 0.929 1_554 S
C287 N284 1.346 . S
C287 C286 1.369 . S
C287 H290 0.928 . S
C288 N284 1.345 . S
C288 C289 1.371 1_565 S
C288 H291 0.931 . S
C289 C285 1.391 1_545 S
C289 C288 1.371 1_545 S
C289 H296 0.930 . S
H290 C287 0.928 . S
H291 C288 0.931 . S
H292 C268 0.930 . S
H293 C265 0.930 . S
H294 C274 0.930 1_545 S
H295 C286 0.929 1_556 S
H296 C289 0.930 . S
C297 C298 1.351 . S
C297 N300 1.368 . S
C297 H302 0.931 . S
C298 C297 1.351 . S
C298 N299 1.373 . S
C298 H326 0.930 . S
N299 C298 1.373 . S
N299 C301 1.340 . S
N300 C297 1.368 . S
N300 C301 1.321 . S
N300 Co303 2.135 . S
C301 N299 1.340 . S
C301 N300 1.321 . S
C301 H325 0.930 . S
H302 C297 0.931 . S
Co303 N300 2.135 . S
Co303 N306 2.121 . S
Co303 O311 2.055 . S
Co303 O314 2.039 . S
Co303 N317 2.140 . S
C304 O305 1.227 . S
C304 O314 1.265 . S
O305 C304 1.227 . S
N306 Co303 2.121 . S
N306 C308 1.375 . S
N306 C309 1.313 . S
C307 C308 1.338 . S
C307 N310 1.377 . S
C307 H327 0.930 . S
C308 N306 1.375 . S
C308 C307 1.338 . S
C308 H312 0.931 . S
C309 N306 1.313 . S
C309 N310 1.344 . S
C309 H313 0.930 . S
N310 C307 1.377 . S
N310 C309 1.344 . S
O311 Co303 2.055 . S
O311 C315 1.253 . S
H312 C308 0.931 . S
H313 C309 0.930 . S
O314 Co303 2.039 . S
O314 C304 1.265 . S
C315 O311 1.253 . S
C315 O316 1.227 . S
O316 C315 1.227 . S
N317 Co303 2.140 . S
N317 C320 1.346 . S
N317 C321 1.345 . S
C318 C319 1.387 . S
C318 C322 1.391 . S
C319 C318 1.387 . S
C319 C320 1.369 . S
C319 H328 0.929 . S
C320 N317 1.346 . S
C320 C319 1.369 . S
C320 H323 0.928 . S
C321 N317 1.345 . S
C321 C322 1.371 . S
C321 H324 0.931 . S
C322 C318 1.391 . S
C322 C321 1.371 . S
C322 H329 0.930 . S
H323 C320 0.928 . S
H324 C321 0.931 . S
H325 C301 0.930 . S
H326 C298 0.930 . S
H327 C307 0.930 . S
H328 C319 0.929 . S
H329 C322 0.930 . S
C330 C331 1.351 . S
C330 N333 1.368 . S
C330 H335 0.931 . S
C331 C330 1.351 . S
C331 N332 1.373 . S
C331 H359 0.930 . S
N332 C331 1.373 . S
N332 C334 1.340 . S
N333 C330 1.368 . S
N333 C334 1.321 . S
N333 Co336 2.135 . S
C334 N332 1.340 . S
C334 N333 1.321 . S
C334 H358 0.930 . S
H335 C330 0.931 . S
Co336 N333 2.135 . S
Co336 N339 2.121 . S
Co336 O344 2.055 . S
Co336 O347 2.039 . S
Co336 N350 2.140 . S
C337 O338 1.227 . S
C337 O347 1.265 . S
O338 C337 1.227 . S
N339 Co336 2.121 . S
N339 C341 1.375 . S
N339 C342 1.313 . S
C340 C341 1.338 . S
C340 N343 1.377 1_455 S
C340 H360 0.930 1_455 S
C341 N339 1.375 . S
C341 C340 1.338 . S
C341 H345 0.931 . S
C342 N339 1.313 . S
C342 N343 1.344 1_455 S
C342 H346 0.930 . S
N343 C340 1.377 1_655 S
N343 C342 1.344 1_655 S
O344 Co336 2.055 . S
O344 C348 1.253 . S
H345 C341 0.931 . S
H346 C342 0.930 . S
O347 Co336 2.039 . S
O347 C337 1.265 . S
C348 O344 1.253 . S
C348 O349 1.227 . S
O349 C348 1.227 . S
N350 Co336 2.140 . S
N350 C353 1.346 . S
N350 C354 1.345 . S
C351 C352 1.387 . S
C351 C355 1.391 1_455 S
C352 C351 1.387 . S
C352 C353 1.369 . S
C352 H361 0.929 . S
C353 N350 1.346 . S
C353 C352 1.369 . S
C353 H356 0.928 . S
C354 N350 1.345 . S
C354 C355 1.371 1_455 S
C354 H357 0.931 . S
C355 C351 1.391 1_655 S
C355 C354 1.371 1_655 S
C355 H362 0.930 . S
H356 C353 0.928 . S
H357 C354 0.931 . S
H358 C334 0.930 . S
H359 C331 0.930 . S
H360 C340 0.930 1_655 S
H361 C352 0.929 . S
H362 C355 0.930 . S
C363 C364 1.351 . S
C363 N366 1.368 . S
C363 H368 0.931 . S
C364 C363 1.351 . S
C364 N365 1.373 . S
C364 H392 0.930 . S
N365 C364 1.373 . S
N365 C367 1.340 . S
N366 C363 1.368 . S
N366 C367 1.321 . S
N366 Co369 2.135 . S
C367 N365 1.340 . S
C367 N366 1.321 . S
C367 H391 0.930 . S
H368 C363 0.931 . S
Co369 N366 2.135 . S
Co369 N372 2.121 . S
Co369 O377 2.055 . S
Co369 O380 2.039 . S
Co369 N383 2.140 . S
C370 O371 1.227 . S
C370 O380 1.265 . S
O371 C370 1.227 . S
N372 Co369 2.121 . S
N372 C374 1.375 . S
N372 C375 1.313 . S
C373 C374 1.338 . S
C373 N376 1.377 1_545 S
C373 H393 0.930 1_545 S
C374 N372 1.375 . S
C374 C373 1.338 . S
C374 H378 0.931 . S
C375 N372 1.313 . S
C375 N376 1.344 1_545 S
C375 H379 0.930 . S
N376 C373 1.377 1_565 S
N376 C375 1.344 1_565 S
O377 Co369 2.055 . S
O377 C381 1.253 . S
H378 C374 0.931 . S
H379 C375 0.930 . S
O380 Co369 2.039 . S
O380 C370 1.265 . S
C381 O377 1.253 . S
C381 O382 1.227 . S
O382 C381 1.227 . S
N383 Co369 2.140 . S
N383 C386 1.346 . S
N383 C387 1.345 . S
C384 C385 1.387 . S
C384 C388 1.391 1_545 S
C385 C384 1.387 . S
C385 C386 1.369 . S
C385 H394 0.929 . S
C386 N383 1.346 . S
C386 C385 1.369 . S
C386 H389 0.928 . S
C387 N383 1.345 . S
C387 C388 1.371 1_545 S
C387 H390 0.931 . S
C388 C384 1.391 1_565 S
C388 C387 1.371 1_565 S
C388 H395 0.930 . S
H389 C386 0.928 . S
H390 C387 0.931 . S
H391 C367 0.930 . S
H392 C364 0.930 . S
H393 C373 0.930 1_565 S
H394 C385 0.929 . S
H395 C388 0.930 . S
C172 N13 2.201 . S
C7 N46 2.180 . S
C40 N79 2.187 . S
N112 C73 2.191 . S
N145 C106 2.192 . S
C139 N178 2.205 . S
C238 N211 2.180 . S
C271 N244 2.201 . S
C304 N277 2.205 . S
C337 N310 2.192 . S
C370 N343 2.191 . S
C205 N376 2.187 . S
N266 N2 1.041 . S
N35 N299 1.073 . S
N68 N332 1.060 . S
N101 N365 1.060 . S
N134 N200 1.073 . S
N233 N167 1.041 . S
C318 C21 1.115 . S
C351 C54 1.137 1_455 S
C87 C384 1.141 1_565 S
C120 C219 1.137 . S
C153 C252 1.115 1_455 S
C285 C186 1.142 1_564 S
C18 C216 2.271 . S
C249 C51 2.271 . S
C84 C282 2.293 . S
C315 C117 2.290 . S
C348 C150 2.290 . S
C381 C183 2.293 . S
