# Generated by pormake.
# Topology wlp, (5)-cn, num edge types: 1
# Building blocks:
#     Node 0, Type 0, BuildingBlock: BEQFEK_clean_sbu_0, # of connection points: 5
#     Node 1, Type 0, BuildingBlock: BEQFEK_clean_sbu_0, # of connection points: 5
#     Node 2, Type 0, BuildingBlock: BEQFEK_clean_sbu_0, # of connection points: 5
#     Node 3, Type 0, BuildingBlock: BEQFEK_clean_sbu_0, # of connection points: 5
#     Node 4, Type 0, BuildingBlock: BEQFEK_clean_sbu_0, # of connection points: 5
#     Node 5, Type 0, BuildingBlock: BEQFEK_clean_sbu_0, # of connection points: 5
#     Node 6, Type 0, BuildingBlock: BEQFEK_clean_sbu_0, # of connection points: 5
#     Node 7, Type 0, BuildingBlock: BEQFEK_clean_sbu_0, # of connection points: 5
#     Node 8, Type 0, BuildingBlock: BEQFEK_clean_sbu_0, # of connection points: 5
#     Node 9, Type 0, BuildingBlock: BEQFEK_clean_sbu_0, # of connection points: 5
#     Node 10, Type 0, BuildingBlock: BEQFEK_clean_sbu_0, # of connection points: 5
#     Node 11, Type 0, BuildingBlock: BEQFEK_clean_sbu_0, # of connection points: 5
#     Node 12, Type 0, BuildingBlock: BEQFEK_clean_sbu_0, # of connection points: 5
#     Node 13, Type 0, BuildingBlock: BEQFEK_clean_sbu_0, # of connection points: 5
#     Node 14, Type 0, BuildingBlock: BEQFEK_clean_sbu_0, # of connection points: 5
#     Node 15, Type 0, BuildingBlock: BEQFEK_clean_sbu_0, # of connection points: 5
#     Node 16, Type 0, BuildingBlock: BEQFEK_clean_sbu_0, # of connection points: 5
#     Node 17, Type 0, BuildingBlock: BEQFEK_clean_sbu_0, # of connection points: 5
#     Node 18, Type 0, BuildingBlock: BEQFEK_clean_sbu_0, # of connection points: 5
#     Node 19, Type 0, BuildingBlock: BEQFEK_clean_sbu_0, # of connection points: 5
#     Node 20, Type 0, BuildingBlock: BEQFEK_clean_sbu_0, # of connection points: 5
#     Node 21, Type 0, BuildingBlock: BEQFEK_clean_sbu_0, # of connection points: 5
#     Node 22, Type 0, BuildingBlock: BEQFEK_clean_sbu_0, # of connection points: 5
#     Node 23, Type 0, BuildingBlock: BEQFEK_clean_sbu_0, # of connection points: 5
#     Node 24, Type 0, BuildingBlock: BEQFEK_clean_sbu_0, # of connection points: 5
#     Node 25, Type 0, BuildingBlock: BEQFEK_clean_sbu_0, # of connection points: 5
#     Node 26, Type 0, BuildingBlock: BEQFEK_clean_sbu_0, # of connection points: 5
#     Node 27, Type 0, BuildingBlock: BEQFEK_clean_sbu_0, # of connection points: 5
#     Node 28, Type 0, BuildingBlock: BEQFEK_clean_sbu_0, # of connection points: 5
#     Node 29, Type 0, BuildingBlock: BEQFEK_clean_sbu_0, # of connection points: 5
#     Node 30, Type 0, BuildingBlock: BEQFEK_clean_sbu_0, # of connection points: 5
#     Node 31, Type 0, BuildingBlock: BEQFEK_clean_sbu_0, # of connection points: 5
#     Node 32, Type 0, BuildingBlock: BEQFEK_clean_sbu_0, # of connection points: 5
#     Node 33, Type 0, BuildingBlock: BEQFEK_clean_sbu_0, # of connection points: 5
#     Node 34, Type 0, BuildingBlock: BEQFEK_clean_sbu_0, # of connection points: 5
#     Node 35, Type 0, BuildingBlock: BEQFEK_clean_sbu_0, # of connection points: 5
#     Edge 36, Type (0, 0), BuildingBlock: EZIPEK_clean_linker_0, # of connection points: 2
#     Edge 37, Type (0, 0), BuildingBlock: EZIPEK_clean_linker_0, # of connection points: 2
#     Edge 38, Type (0, 0), BuildingBlock: EZIPEK_clean_linker_0, # of connection points: 2
#     Edge 39, Type (0, 0), BuildingBlock: EZIPEK_clean_linker_0, # of connection points: 2
#     Edge 40, Type (0, 0), BuildingBlock: EZIPEK_clean_linker_0, # of connection points: 2
#     Edge 41, Type (0, 0), BuildingBlock: EZIPEK_clean_linker_0, # of connection points: 2
#     Edge 42, Type (0, 0), BuildingBlock: EZIPEK_clean_linker_0, # of connection points: 2
#     Edge 43, Type (0, 0), BuildingBlock: EZIPEK_clean_linker_0, # of connection points: 2
#     Edge 44, Type (0, 0), BuildingBlock: EZIPEK_clean_linker_0, # of connection points: 2
#     Edge 45, Type (0, 0), BuildingBlock: EZIPEK_clean_linker_0, # of connection points: 2
#     Edge 46, Type (0, 0), BuildingBlock: EZIPEK_clean_linker_0, # of connection points: 2
#     Edge 47, Type (0, 0), BuildingBlock: EZIPEK_clean_linker_0, # of connection points: 2
#     Edge 48, Type (0, 0), BuildingBlock: EZIPEK_clean_linker_0, # of connection points: 2
#     Edge 49, Type (0, 0), BuildingBlock: EZIPEK_clean_linker_0, # of connection points: 2
#     Edge 50, Type (0, 0), BuildingBlock: EZIPEK_clean_linker_0, # of connection points: 2
#     Edge 51, Type (0, 0), BuildingBlock: EZIPEK_clean_linker_0, # of connection points: 2
#     Edge 52, Type (0, 0), BuildingBlock: EZIPEK_clean_linker_0, # of connection points: 2
#     Edge 53, Type (0, 0), BuildingBlock: EZIPEK_clean_linker_0, # of connection points: 2
#     Edge 54, Type (0, 0), BuildingBlock: EZIPEK_clean_linker_0, # of connection points: 2
#     Edge 55, Type (0, 0), BuildingBlock: EZIPEK_clean_linker_0, # of connection points: 2
#     Edge 56, Type (0, 0), BuildingBlock: EZIPEK_clean_linker_0, # of connection points: 2
#     Edge 57, Type (0, 0), BuildingBlock: EZIPEK_clean_linker_0, # of connection points: 2
#     Edge 58, Type (0, 0), BuildingBlock: EZIPEK_clean_linker_0, # of connection points: 2
#     Edge 59, Type (0, 0), BuildingBlock: EZIPEK_clean_linker_0, # of connection points: 2
#     Edge 60, Type (0, 0), BuildingBlock: EZIPEK_clean_linker_0, # of connection points: 2
#     Edge 61, Type (0, 0), BuildingBlock: EZIPEK_clean_linker_0, # of connection points: 2
#     Edge 62, Type (0, 0), BuildingBlock: EZIPEK_clean_linker_0, # of connection points: 2
#     Edge 63, Type (0, 0), BuildingBlock: EZIPEK_clean_linker_0, # of connection points: 2
#     Edge 64, Type (0, 0), BuildingBlock: EZIPEK_clean_linker_0, # of connection points: 2
#     Edge 65, Type (0, 0), BuildingBlock: EZIPEK_clean_linker_0, # of connection points: 2
#     Edge 66, Type (0, 0), BuildingBlock: EZIPEK_clean_linker_0, # of connection points: 2
#     Edge 67, Type (0, 0), BuildingBlock: EZIPEK_clean_linker_0, # of connection points: 2
#     Edge 68, Type (0, 0), BuildingBlock: EZIPEK_clean_linker_0, # of connection points: 2
#     Edge 69, Type (0, 0), BuildingBlock: EZIPEK_clean_linker_0, # of connection points: 2
#     Edge 70, Type (0, 0), BuildingBlock: EZIPEK_clean_linker_0, # of connection points: 2
#     Edge 71, Type (0, 0), BuildingBlock: EZIPEK_clean_linker_0, # of connection points: 2
#     Edge 72, Type (0, 0), BuildingBlock: EZIPEK_clean_linker_0, # of connection points: 2
#     Edge 73, Type (0, 0), BuildingBlock: EZIPEK_clean_linker_0, # of connection points: 2
#     Edge 74, Type (0, 0), BuildingBlock: EZIPEK_clean_linker_0, # of connection points: 2
#     Edge 75, Type (0, 0), BuildingBlock: EZIPEK_clean_linker_0, # of connection points: 2
#     Edge 76, Type (0, 0), BuildingBlock: EZIPEK_clean_linker_0, # of connection points: 2
#     Edge 77, Type (0, 0), BuildingBlock: EZIPEK_clean_linker_0, # of connection points: 2
#     Edge 78, Type (0, 0), BuildingBlock: EZIPEK_clean_linker_0, # of connection points: 2
#     Edge 79, Type (0, 0), BuildingBlock: EZIPEK_clean_linker_0, # of connection points: 2
#     Edge 80, Type (0, 0), BuildingBlock: EZIPEK_clean_linker_0, # of connection points: 2
#     Edge 81, Type (0, 0), BuildingBlock: EZIPEK_clean_linker_0, # of connection points: 2
#     Edge 82, Type (0, 0), BuildingBlock: EZIPEK_clean_linker_0, # of connection points: 2
#     Edge 83, Type (0, 0), BuildingBlock: EZIPEK_clean_linker_0, # of connection points: 2
#     Edge 84, Type (0, 0), BuildingBlock: EZIPEK_clean_linker_0, # of connection points: 2
#     Edge 85, Type (0, 0), BuildingBlock: EZIPEK_clean_linker_0, # of connection points: 2
#     Edge 86, Type (0, 0), BuildingBlock: EZIPEK_clean_linker_0, # of connection points: 2
#     Edge 87, Type (0, 0), BuildingBlock: EZIPEK_clean_linker_0, # of connection points: 2
#     Edge 88, Type (0, 0), BuildingBlock: EZIPEK_clean_linker_0, # of connection points: 2
#     Edge 89, Type (0, 0), BuildingBlock: EZIPEK_clean_linker_0, # of connection points: 2
#     Edge 90, Type (0, 0), BuildingBlock: EZIPEK_clean_linker_0, # of connection points: 2
#     Edge 91, Type (0, 0), BuildingBlock: EZIPEK_clean_linker_0, # of connection points: 2
#     Edge 92, Type (0, 0), BuildingBlock: EZIPEK_clean_linker_0, # of connection points: 2
#     Edge 93, Type (0, 0), BuildingBlock: EZIPEK_clean_linker_0, # of connection points: 2
#     Edge 94, Type (0, 0), BuildingBlock: EZIPEK_clean_linker_0, # of connection points: 2
#     Edge 95, Type (0, 0), BuildingBlock: EZIPEK_clean_linker_0, # of connection points: 2
#     Edge 96, Type (0, 0), BuildingBlock: EZIPEK_clean_linker_0, # of connection points: 2
#     Edge 97, Type (0, 0), BuildingBlock: EZIPEK_clean_linker_0, # of connection points: 2
#     Edge 98, Type (0, 0), BuildingBlock: EZIPEK_clean_linker_0, # of connection points: 2
#     Edge 99, Type (0, 0), BuildingBlock: EZIPEK_clean_linker_0, # of connection points: 2
#     Edge 100, Type (0, 0), BuildingBlock: EZIPEK_clean_linker_0, # of connection points: 2
#     Edge 101, Type (0, 0), BuildingBlock: EZIPEK_clean_linker_0, # of connection points: 2
#     Edge 102, Type (0, 0), BuildingBlock: EZIPEK_clean_linker_0, # of connection points: 2
#     Edge 103, Type (0, 0), BuildingBlock: EZIPEK_clean_linker_0, # of connection points: 2
#     Edge 104, Type (0, 0), BuildingBlock: EZIPEK_clean_linker_0, # of connection points: 2
#     Edge 105, Type (0, 0), BuildingBlock: EZIPEK_clean_linker_0, # of connection points: 2
#     Edge 106, Type (0, 0), BuildingBlock: EZIPEK_clean_linker_0, # of connection points: 2
#     Edge 107, Type (0, 0), BuildingBlock: EZIPEK_clean_linker_0, # of connection points: 2
#     Edge 108, Type (0, 0), BuildingBlock: EZIPEK_clean_linker_0, # of connection points: 2
#     Edge 109, Type (0, 0), BuildingBlock: EZIPEK_clean_linker_0, # of connection points: 2
#     Edge 110, Type (0, 0), BuildingBlock: EZIPEK_clean_linker_0, # of connection points: 2
#     Edge 111, Type (0, 0), BuildingBlock: EZIPEK_clean_linker_0, # of connection points: 2
#     Edge 112, Type (0, 0), BuildingBlock: EZIPEK_clean_linker_0, # of connection points: 2
#     Edge 113, Type (0, 0), BuildingBlock: EZIPEK_clean_linker_0, # of connection points: 2
#     Edge 114, Type (0, 0), BuildingBlock: EZIPEK_clean_linker_0, # of connection points: 2
#     Edge 115, Type (0, 0), BuildingBlock: EZIPEK_clean_linker_0, # of connection points: 2
#     Edge 116, Type (0, 0), BuildingBlock: EZIPEK_clean_linker_0, # of connection points: 2
#     Edge 117, Type (0, 0), BuildingBlock: EZIPEK_clean_linker_0, # of connection points: 2
#     Edge 118, Type (0, 0), BuildingBlock: EZIPEK_clean_linker_0, # of connection points: 2
#     Edge 119, Type (0, 0), BuildingBlock: EZIPEK_clean_linker_0, # of connection points: 2
#     Edge 120, Type (0, 0), BuildingBlock: EZIPEK_clean_linker_0, # of connection points: 2
#     Edge 121, Type (0, 0), BuildingBlock: EZIPEK_clean_linker_0, # of connection points: 2
#     Edge 122, Type (0, 0), BuildingBlock: EZIPEK_clean_linker_0, # of connection points: 2
#     Edge 123, Type (0, 0), BuildingBlock: EZIPEK_clean_linker_0, # of connection points: 2
#     Edge 124, Type (0, 0), BuildingBlock: EZIPEK_clean_linker_0, # of connection points: 2
#     Edge 125, Type (0, 0), BuildingBlock: EZIPEK_clean_linker_0, # of connection points: 2
# Relax obj value: 0.140
# Max RMSD: 0.108
# Mean RMSD: 0.108
data_MOF--net-wlp--node1-BEQFEK_clean_sbu_0--edge1-EZIPEK_clean_linker_0
_symmetry_space_group_name_H-M    P1
_symmetry_Int_Tables_number       1
_symmetry_cell_setting            triclinic
loop_
_symmetry_equiv_pos_as_xyz
'x, y, z'
_cell_length_a     83.040311
_cell_length_b     83.424113
_cell_length_c     18.026936
_cell_angle_alpha  90.093584
_cell_angle_beta   90.218836
_cell_angle_gamma 120.01481
loop_
_atom_site_label
_atom_site_type_symbol
_atom_site_fract_x
_atom_site_fract_y
_atom_site_fract_z
_atom_type_partial_charge
Co0 Co 0.28667 0.18566 0.1943 0.0
Co1 Co 0.27614 0.20115 0.06066 0.0
C2 C 0.27172 0.16567 0.03691 0.0
O3 O 0.27837 0.16752 0.10307 0.0
O4 O 0.26742 0.17729 0.01106 0.0
C5 C 0.27121 0.16094 0.32542 0.0
O6 O 0.25574 0.16078 0.30838 0.0
C7 C 0.26921 0.22055 0.94141 0.0
C8 C 0.27775 0.24701 1.00053 0.0
C9 C 0.27027 0.23757 0.93494 0.0
N10 N 0.27531 0.2198 0.00911 0.0
N11 N 0.28089 0.23576 0.04338 0.0
C12 C 0.26239 0.20518 0.88571 0.0
H13 H 0.27186 0.19938 0.88506 0.0
H14 H 0.24845 0.1939 0.90249 0.0
H15 H 0.26149 0.21005 0.8294 0.0
C16 C 0.26458 0.2031 0.26969 0.0
N17 N 0.27106 0.19726 0.21205 0.0
N18 N 0.26412 0.1999 0.15101 0.0
C19 C 0.25224 0.20606 0.16744 0.0
C20 C 0.25227 0.20883 0.24316 0.0
C21 C 0.27086 0.20451 0.34822 0.0
H22 H 0.28129 0.19998 0.35367 0.0
H23 H 0.25862 0.19598 0.38368 0.0
H24 H 0.27703 0.21907 0.36744 0.0
O25 O 0.31352 0.20408 0.16137 0.0
O26 O 0.30305 0.21153 0.0625 0.0
H27 H 0.24687 0.22454 0.10379 0.0
H28 H 0.22652 0.20392 0.1326 0.0
C29 C 0.24089 0.20944 0.11165 0.0
H30 H 0.24039 0.20266 0.05808 0.0
H31 H 0.28629 0.23872 0.0972 0.0
O32 O 0.28576 0.17063 0.28623 0.0
C33 C 0.31649 0.21236 0.09878 0.0
Co34 Co 0.83671 0.09918 0.17429 0.0
Co35 Co 0.81665 0.07201 0.04739 0.0
C36 C 0.85637 0.10506 0.03492 0.0
O37 O 0.85857 0.10798 0.10457 0.0
O38 O 0.84099 0.09224 0.00968 0.0
C39 C 0.86253 0.11314 0.29721 0.0
O40 O 0.86555 0.10011 0.27177 0.0
C41 C 0.82007 0.04672 0.95288 0.0
C42 C 0.79257 0.0314 0.89812 0.0
C43 C 0.80974 0.0325 0.90435 0.0
N44 N 0.80941 0.0536 0.97579 0.0
N45 N 0.79304 0.0446 0.94252 0.0
C46 C 0.83966 0.05366 0.978 0.0
H47 H 0.84107 0.05727 0.03787 0.0
H48 H 0.84405 0.0433 0.96743 0.0
H49 H 0.84902 0.06643 0.94687 0.0
C50 C 0.81981 0.06107 0.25945 0.0
N51 N 0.82383 0.07213 0.19831 0.0
N52 N 0.81558 0.0612 0.14125 0.0
C53 C 0.80591 0.04334 0.16376 0.0
C54 C 0.80839 0.04231 0.23942 0.0
C55 C 0.82563 0.06815 0.33669 0.0
H56 H 0.82621 0.08164 0.34327 0.0
H57 H 0.83968 0.07016 0.34748 0.0
H58 H 0.81588 0.0581 0.3777 0.0
O59 O 0.82035 0.10725 0.10975 0.0
O60 O 0.80038 0.08251 0.04495 0.0
H61 H 0.78375 0.03116 0.08432 0.0
H62 H 0.78459 0.01462 0.14655 0.0
C63 C 0.79309 0.02752 0.11479 0.0
H64 H 0.80138 0.02491 0.07396 0.0
H65 H 0.78216 0.04723 0.95124 0.0
O66 O 0.84959 0.11502 0.2668 0.0
C67 C 0.80705 0.0995 0.06124 0.0
Co68 Co 0.91855 0.73758 0.17562 0.0
Co69 Co 0.94399 0.74157 0.04615 0.0
C70 C 0.91174 0.75007 0.03489 0.0
O71 O 0.90914 0.74967 0.10463 0.0
O72 O 0.92456 0.74753 0.00945 0.0
C73 C 0.89668 0.74405 0.28813 0.0
O74 O 0.89208 0.75078 0.23129 0.0
C75 C 0.97197 0.76877 0.95448 0.0
C76 C 0.98299 0.75313 0.89496 0.0
C77 C 0.98516 0.7706 0.90437 0.0
N78 N 0.96244 0.75098 0.97491 0.0
N79 N 0.96897 0.74161 0.93926 0.0
C80 C 0.9684 0.78359 0.98237 0.0
H81 H 0.95819 0.77839 0.02829 0.0
H82 H 0.98153 0.79575 1.00173 0.0
H83 H 0.96303 0.78834 0.93601 0.0
C84 C 0.95765 0.76133 0.24978 0.0
N85 N 0.94586 0.7518 0.19264 0.0
N86 N 0.95588 0.75104 0.13852 0.0
C87 C 0.97381 0.75844 0.1608 0.0
C88 C 0.97612 0.76603 0.23181 0.0
C89 C 0.95139 0.76628 0.31945 0.0
H90 H 0.9411 0.77063 0.30577 0.0
H91 H 0.9633 0.77752 0.35024 0.0
H92 H 0.94433 0.75386 0.35526 0.0
O93 O 0.9085 0.71168 0.11806 0.0
O94 O 0.93138 0.71502 0.04399 0.0
H95 H 0.99965 0.75811 0.15449 0.0
H96 H 0.99393 0.76711 0.07432 0.0
C97 C 0.98813 0.75646 0.11794 0.0
H98 H 0.98157 0.74271 0.09037 0.0
H99 H 0.96401 0.72748 0.94585 0.0
O100 O 0.90674 0.73663 0.27685 0.0
C101 C 0.91493 0.7052 0.06801 0.0
Co102 Co 0.18719 0.27555 0.4378 0.0
Co103 Co 0.20641 0.26818 0.56907 0.0
C104 C 0.16819 0.25948 0.58989 0.0
O105 O 0.16821 0.26412 0.52203 0.0
O106 O 0.18192 0.25852 0.61707 0.0
C107 C 0.15538 0.26361 0.33593 0.0
O108 O 0.14603 0.25282 0.39146 0.0
C109 C 0.22563 0.26189 0.69106 0.0
C110 C 0.25306 0.27201 0.63746 0.0
C111 C 0.24306 0.26388 0.70095 0.0
N112 N 0.22521 0.26808 0.62335 0.0
N113 N 0.24172 0.27461 0.59243 0.0
C114 C 0.20961 0.25421 0.74366 0.0
H115 H 0.20344 0.26334 0.74469 0.0
H116 H 0.19868 0.24041 0.72349 0.0
H117 H 0.21399 0.2529 0.8005 0.0
C118 C 0.20551 0.25527 0.3578 0.0
N119 N 0.20084 0.26212 0.41774 0.0
N120 N 0.20623 0.25707 0.47728 0.0
C121 C 0.21345 0.24625 0.4581 0.0
C122 C 0.21388 0.245 0.38161 0.0
C123 C 0.20174 0.25813 0.27934 0.0
H124 H 0.18712 0.2478 0.26526 0.0
H125 H 0.21108 0.25627 0.24076 0.0
H126 H 0.20347 0.27213 0.27293 0.0
O127 O 0.20287 0.30233 0.48079 0.0
O128 O 0.21565 0.29456 0.57077 0.0
H129 H 0.23467 0.24395 0.51664 0.0
H130 H 0.21498 0.2223 0.49109 0.0
C131 C 0.21929 0.23642 0.51179 0.0
H132 H 0.21292 0.23528 0.5668 0.0
H133 H 0.24503 0.2803 0.53934 0.0
O134 O 0.1729 0.27456 0.34353 0.0
C135 C 0.21297 0.30657 0.53969 0.0
Co136 Co 0.74285 0.9125 0.44628 0.0
Co137 Co 0.75353 0.93789 0.58563 0.0
C138 C 0.75769 0.90379 0.5832 0.0
O139 O 0.75409 0.901 0.5139 0.0
O140 O 0.75853 0.91782 0.61456 0.0
C141 C 0.75402 0.90096 0.31014 0.0
O142 O 0.77066 0.91359 0.33277 0.0
C143 C 0.78185 0.96299 0.686 0.0
C144 C 0.76826 0.97676 0.74114 0.0
C145 C 0.78484 0.97663 0.73618 0.0
N146 N 0.76431 0.95554 0.66099 0.0
N147 N 0.75613 0.9636 0.69472 0.0
C148 C 0.79527 0.95704 0.66213 0.0
H149 H 0.79237 0.95191 0.60401 0.0
H150 H 0.80986 0.96844 0.66813 0.0
H151 H 0.79347 0.94559 0.6986 0.0
C152 C 0.76417 0.95189 0.37294 0.0
N153 N 0.75794 0.93995 0.43168 0.0
N154 N 0.76228 0.95005 0.49243 0.0
C155 C 0.771 0.96828 0.47434 0.0
C156 C 0.77299 0.97033 0.39803 0.0
C157 C 0.76077 0.9461 0.29362 0.0
H158 H 0.77339 0.94645 0.27162 0.0
H159 H 0.75838 0.95595 0.26061 0.0
H160 H 0.74861 0.93196 0.28815 0.0
O161 O 0.71809 0.90435 0.50607 0.0
O162 O 0.72654 0.92608 0.59357 0.0
H163 H 0.78071 0.99711 0.5001 0.0
H164 H 0.78683 0.98485 0.56568 0.0
C165 C 0.77575 0.98364 0.52829 0.0
H166 H 0.76334 0.98045 0.56178 0.0
H167 H 0.74247 0.96045 0.68453 0.0
O168 O 0.7398 0.89859 0.34719 0.0
C169 C 0.71422 0.91105 0.56365 0.0
Co170 Co 0.10739 0.82898 0.44417 0.0
Co171 Co 0.0822 0.8121 0.58084 0.0
C172 C 0.11514 0.84998 0.59085 0.0
O173 O 0.11942 0.84933 0.52336 0.0
O174 O 0.10016 0.83704 0.6175 0.0
C175 C 0.11795 0.85471 0.32074 0.0
O176 O 0.10479 0.85697 0.35031 0.0
C177 C 0.05495 0.81098 0.67787 0.0
C178 C 0.04456 0.78426 0.73569 0.0
C179 C 0.04234 0.79959 0.72944 0.0
N180 N 0.06419 0.8027 0.6536 0.0
N181 N 0.05809 0.78679 0.68839 0.0
C182 C 0.0584 0.82947 0.65221 0.0
H183 H 0.06174 0.83118 0.59219 0.0
H184 H 0.04624 0.83124 0.66325 0.0
H185 H 0.07059 0.84043 0.68273 0.0
C186 C 0.06752 0.81352 0.37201 0.0
N187 N 0.07982 0.81784 0.42959 0.0
N188 N 0.07006 0.80993 0.48885 0.0
C189 C 0.05185 0.7995 0.47114 0.0
C190 C 0.0487 0.80303 0.39748 0.0
C191 C 0.07371 0.81532 0.29293 0.0
H192 H 0.0861 0.81358 0.28961 0.0
H193 H 0.07788 0.82933 0.27192 0.0
H194 H 0.06255 0.80477 0.25701 0.0
O195 O 0.11491 0.81008 0.48828 0.0
O196 O 0.09573 0.79882 0.58455 0.0
H197 H 0.0294 0.7709 0.47787 0.0
H198 H 0.03285 0.78486 0.5602 0.0
C199 C 0.03983 0.78208 0.51394 0.0
H200 H 0.04864 0.77694 0.53891 0.0
H201 H 0.06302 0.77765 0.67921 0.0
O202 O 0.12121 0.84251 0.34905 0.0
C203 C 0.10924 0.80002 0.54743 0.0
Co204 Co 0.74106 0.82811 0.94223 0.0
Co205 Co 0.75571 0.81606 0.07841 0.0
C206 C 0.75693 0.85181 0.0842 0.0
O207 O 0.74922 0.8487 0.02035 0.0
O208 O 0.76262 0.84133 0.10925 0.0
C209 C 0.75436 0.85246 0.81343 0.0
O210 O 0.77004 0.85393 0.83686 0.0
C211 C 0.7836 0.8187 0.17963 0.0
C212 C 0.77061 0.79063 0.22768 0.0
C213 C 0.78672 0.80776 0.22755 0.0
N214 N 0.76646 0.80841 0.15103 0.0
N215 N 0.75862 0.79171 0.18045 0.0
C216 C 0.7967 0.83847 0.16009 0.0
H217 H 0.79572 0.8406 0.09985 0.0
H218 H 0.81124 0.84266 0.17551 0.0
H219 H 0.79264 0.84742 0.19089 0.0
C220 C 0.76271 0.81116 0.86318 0.0
N221 N 0.75733 0.81713 0.92397 0.0
N222 N 0.76354 0.81265 0.98306 0.0
C223 C 0.7729 0.80395 0.96203 0.0
C224 C 0.773 0.80273 0.88529 0.0
C225 C 0.75696 0.81207 0.78542 0.0
H226 H 0.74408 0.81297 0.7851 0.0
H227 H 0.76823 0.82453 0.75812 0.0
H228 H 0.75474 0.79975 0.75334 0.0
O229 O 0.71633 0.80912 0.99358 0.0
O230 O 0.72836 0.80183 0.09017 0.0
H231 H 0.7695 0.78514 0.04888 0.0
H232 H 0.78789 0.78937 0.98508 0.0
C233 C 0.7808 0.79579 0.01445 0.0
H234 H 0.791 0.80688 0.05089 0.0
H235 H 0.74527 0.78101 0.1672 0.0
O236 O 0.73932 0.84112 0.84713 0.0
C237 C 0.71439 0.8008 0.05611 0.0
Co238 Co 0.1879 0.91375 0.95598 0.0
Co239 Co 0.20426 0.93934 0.09281 0.0
C240 C 0.16484 0.90583 0.089 0.0
O241 O 0.16471 0.90343 0.01909 0.0
O242 O 0.17895 0.91914 0.12004 0.0
C243 C 0.16378 0.89972 0.82469 0.0
O244 O 0.15748 0.91002 0.8531 0.0
C245 C 0.20039 0.96573 0.17986 0.0
C246 C 0.22598 0.97857 0.24828 0.0
C247 C 0.21008 0.97935 0.23153 0.0
N248 N 0.21025 0.95737 0.16535 0.0
N249 N 0.22547 0.96494 0.20668 0.0
C250 C 0.18206 0.96061 0.14502 0.0
H251 H 0.1793 0.95145 0.09626 0.0
H252 H 0.18159 0.97314 0.12818 0.0
H253 H 0.17099 0.95337 0.18679 0.0
C254 C 0.20626 0.95313 0.88057 0.0
N255 N 0.20111 0.94115 0.93913 0.0
N256 N 0.20842 0.9512 0.99915 0.0
C257 C 0.2188 0.96933 0.98077 0.0
C258 C 0.21748 0.97153 0.90519 0.0
C259 C 0.20104 0.94738 0.80185 0.0
H260 H 0.19795 0.93296 0.79334 0.0
H261 H 0.18856 0.94844 0.78847 0.0
H262 H 0.21233 0.9568 0.76402 0.0
O263 O 0.20339 0.90503 0.023 0.0
O264 O 0.21919 0.92764 0.10528 0.0
H265 H 0.24214 0.99666 1.00299 0.0
H266 H 0.22329 0.9885 0.06745 0.0
C267 C 0.23152 0.98429 0.03313 0.0
H268 H 0.23859 0.97909 0.07 0.0
H269 H 0.23562 0.96106 0.20525 0.0
O270 O 0.17753 0.89957 0.85697 0.0
C271 C 0.2146 0.91172 0.07934 0.0
Co272 Co 0.10694 0.27767 0.9344 0.0
Co273 Co 0.07927 0.26919 0.06139 0.0
C274 C 0.10899 0.26134 0.08777 0.0
O275 O 0.11414 0.26651 0.02084 0.0
O276 O 0.09398 0.25991 0.11316 0.0
C277 C 0.11852 0.26152 0.81611 0.0
O278 O 0.10413 0.24613 0.83957 0.0
C279 C 0.0521 0.26212 0.17705 0.0
C280 C 0.03466 0.27114 0.11655 0.0
C281 C 0.03618 0.26343 0.18202 0.0
N282 N 0.05938 0.26833 0.1103 0.0
N283 N 0.04929 0.2742 0.07526 0.0
C284 C 0.06025 0.25502 0.23339 0.0
H285 H 0.07557 0.26425 0.23563 0.0
H286 H 0.05747 0.24109 0.21611 0.0
H287 H 0.05424 0.25414 0.28915 0.0
C288 C 0.06823 0.25671 0.84986 0.0
N289 N 0.0798 0.26353 0.91024 0.0
N290 N 0.06927 0.25769 0.96928 0.0
C291 C 0.05133 0.24623 0.94947 0.0
C292 C 0.04963 0.24548 0.8731 0.0
C293 C 0.07466 0.26095 0.77145 0.0
H294 H 0.08726 0.27485 0.76819 0.0
H295 H 0.07823 0.25053 0.7515 0.0
H296 H 0.06348 0.26025 0.73523 0.0
O297 O 0.11733 0.30427 0.97857 0.0
O298 O 0.09576 0.29588 0.06414 0.0
H299 H 0.02697 0.24175 1.00743 0.0
H300 H 0.0268 0.22108 0.98062 0.0
C301 C 0.03581 0.23532 1.00243 0.0
H302 H 0.04133 0.23451 0.05748 0.0
H303 H 0.0521 0.27975 0.0219 0.0
O304 O 0.12205 0.27686 0.8463 0.0
C305 C 0.11077 0.30819 0.03589 0.0
Co306 Co 0.83549 0.73493 0.677 0.0
Co307 Co 0.82168 0.7471 0.53938 0.0
C308 C 0.85986 0.75097 0.54363 0.0
O309 O 0.85818 0.74625 0.61144 0.0
O310 O 0.84706 0.75248 0.51148 0.0
C311 C 0.86053 0.74699 0.80164 0.0
O312 O 0.86418 0.76283 0.77195 0.0
C313 C 0.82531 0.77679 0.4485 0.0
C314 C 0.79864 0.76396 0.38703 0.0
C315 C 0.81508 0.78048 0.39851 0.0
N316 N 0.81524 0.75889 0.46716 0.0
N317 N 0.7994 0.75118 0.4298 0.0
C318 C 0.84428 0.7899 0.47814 0.0
H319 H 0.85466 0.78946 0.44102 0.0
H320 H 0.84603 0.78568 0.53461 0.0
H321 H 0.84696 0.80433 0.4788 0.0
C322 C 0.81864 0.75691 0.7543 0.0
N323 N 0.82379 0.75045 0.69443 0.0
N324 N 0.81769 0.75473 0.63455 0.0
C325 C 0.80811 0.7633 0.65426 0.0
C326 C 0.80862 0.76554 0.7307 0.0
C327 C 0.8224 0.75419 0.833 0.0
H328 H 0.82092 0.7403 0.83942 0.0
H329 H 0.83688 0.76475 0.84771 0.0
H330 H 0.81284 0.75574 0.87138 0.0
O331 O 0.81802 0.71051 0.61527 0.0
O332 O 0.8066 0.72041 0.52514 0.0
H333 H 0.78733 0.77115 0.63148 0.0
H334 H 0.80641 0.77969 0.56788 0.0
C335 C 0.79689 0.76769 0.60179 0.0
H336 H 0.78862 0.75569 0.56469 0.0
H337 H 0.78898 0.73736 0.43491 0.0
O338 O 0.84723 0.73204 0.77349 0.0
C339 C 0.8079 0.70745 0.5563 0.0
Co340 Co 0.28439 0.10081 0.68718 0.0
Co341 Co 0.26772 0.07353 0.55415 0.0
C342 C 0.26645 0.10775 0.54932 0.0
O343 O 0.27541 0.11279 0.61059 0.0
O344 O 0.25977 0.09126 0.52636 0.0
C345 C 0.27327 0.11561 0.81137 0.0
O346 O 0.2568 0.10432 0.78288 0.0
C347 C 0.23968 0.04799 0.45393 0.0
C348 C 0.25295 0.03305 0.40614 0.0
C349 C 0.23679 0.03404 0.40577 0.0
N350 N 0.25677 0.05486 0.48303 0.0
N351 N 0.26476 0.04604 0.45394 0.0
C352 C 0.22645 0.05462 0.47263 0.0
H353 H 0.22743 0.058 0.53265 0.0
H354 H 0.21194 0.04413 0.45769 0.0
H355 H 0.23034 0.06742 0.44086 0.0
C356 C 0.26347 0.06264 0.76965 0.0
N357 N 0.26825 0.07371 0.70831 0.0
N358 N 0.26103 0.06279 0.65028 0.0
C359 C 0.25146 0.04488 0.67251 0.0
C360 C 0.25249 0.04389 0.74905 0.0
C361 C 0.27036 0.06943 0.84631 0.0
H362 H 0.27981 0.08463 0.84717 0.0
H363 H 0.25832 0.06558 0.88326 0.0
H364 H 0.27782 0.06246 0.86785 0.0
O365 O 0.30848 0.1064 0.631 0.0
O366 O 0.29494 0.08682 0.5364 0.0
H367 H 0.2523 0.0282 0.58423 0.0
H368 H 0.23447 0.01537 0.65174 0.0
C369 C 0.24192 0.02865 0.62125 0.0
H370 H 0.23173 0.03025 0.58724 0.0
H371 H 0.27813 0.04877 0.46739 0.0
O372 O 0.2876 0.11617 0.7819 0.0
C373 C 0.30943 0.09982 0.56733 0.0
Co374 Co 0.91686 0.18179 0.68189 0.0
Co375 Co 0.94289 0.20111 0.55079 0.0
C376 C 0.91315 0.16305 0.52809 0.0
O377 O 0.90872 0.16277 0.5965 0.0
O378 O 0.92769 0.1769 0.50156 0.0
C379 C 0.90326 0.15273 0.79571 0.0
O380 O 0.91215 0.14647 0.7557 0.0
C381 C 0.96757 0.21976 0.42725 0.0
C382 C 0.98571 0.24707 0.48056 0.0
C383 C 0.98312 0.23694 0.4165 0.0
N384 N 0.96161 0.21959 0.49596 0.0
N385 N 0.97208 0.23603 0.52679 0.0
C386 C 0.95853 0.20376 0.37448 0.0
H387 H 0.94326 0.1981 0.37441 0.0
H388 H 0.96107 0.19259 0.39383 0.0
H389 H 0.96398 0.20789 0.31739 0.0
C390 C 0.95618 0.19976 0.76002 0.0
N391 N 0.94419 0.19519 0.70116 0.0
N392 N 0.9543 0.20054 0.64089 0.0
C393 C 0.97249 0.20749 0.65838 0.0
C394 C 0.97467 0.20787 0.73459 0.0
C395 C 0.95028 0.1965 0.83925 0.0
H396 H 0.95222 0.18517 0.86134 0.0
H397 H 0.95923 0.20912 0.87253 0.0
H398 H 0.93548 0.19267 0.84464 0.0
O399 O 0.90559 0.19756 0.64136 0.0
O400 O 0.92611 0.21088 0.55225 0.0
H401 H 0.99577 0.22844 0.59899 0.0
H402 H 0.9977 0.20869 0.62243 0.0
C403 C 0.98782 0.21314 0.60331 0.0
H404 H 0.98219 0.20681 0.54836 0.0
H405 H 0.97022 0.23948 0.58051 0.0
O406 O 0.90349 0.16753 0.77519 0.0
C407 C 0.91139 0.20801 0.58394 0.0
Co408 Co 0.95293 0.51933 0.53154 0.0
Co409 Co 0.94305 0.53501 0.39224 0.0
C410 C 0.93852 0.49758 0.38429 0.0
O411 O 0.94455 0.49913 0.45086 0.0
O412 O 0.93521 0.5097 0.35741 0.0
C413 C 0.93962 0.49354 0.66124 0.0
O414 O 0.92307 0.48931 0.63627 0.0
C415 C 0.91884 0.53888 0.28986 0.0
C416 C 0.93758 0.56564 0.23589 0.0
C417 C 0.91932 0.55135 0.23898 0.0
N418 N 0.93605 0.54553 0.31678 0.0
N419 N 0.94732 0.56137 0.28371 0.0
C420 C 0.9022 0.52135 0.31504 0.0
H421 H 0.90491 0.51707 0.36979 0.0
H422 H 0.88983 0.52312 0.31805 0.0
H423 H 0.89917 0.51023 0.27412 0.0
C424 C 0.92958 0.53554 0.60407 0.0
N425 N 0.93705 0.53104 0.54551 0.0
N426 N 0.93356 0.53771 0.4853 0.0
C427 C 0.92428 0.54668 0.50389 0.0
C428 C 0.92092 0.54538 0.57935 0.0
C429 C 0.93127 0.53139 0.68307 0.0
H430 H 0.91824 0.51872 0.69897 0.0
H431 H 0.93286 0.54282 0.71962 0.0
H432 H 0.94329 0.5292 0.69063 0.0
O433 O 0.97914 0.53805 0.48777 0.0
O434 O 0.97011 0.54769 0.3894 0.0
H435 H 0.91729 0.56796 0.48218 0.0
H436 H 0.90739 0.54861 0.41973 0.0
C437 C 0.92004 0.55797 0.45204 0.0
H438 H 0.93195 0.5658 0.41446 0.0
H439 H 0.9615 0.56948 0.29536 0.0
O440 O 0.95405 0.50621 0.62804 0.0
C441 C 0.9829 0.54737 0.42692 0.0
Co442 Co 0.50087 0.43222 0.51461 0.0
Co443 Co 0.48477 0.40561 0.38045 0.0
C444 C 0.52365 0.4395 0.37943 0.0
O445 O 0.52349 0.44228 0.44875 0.0
O446 O 0.5098 0.42577 0.34899 0.0
C447 C 0.52586 0.44548 0.6396 0.0
O448 O 0.52885 0.43247 0.61367 0.0
C449 C 0.48826 0.3784 0.29656 0.0
C450 C 0.46243 0.36508 0.22969 0.0
C451 C 0.47841 0.36443 0.24624 0.0
N452 N 0.4784 0.38681 0.31051 0.0
N453 N 0.46302 0.37891 0.27021 0.0
C454 C 0.50667 0.38369 0.33097 0.0
H455 H 0.50999 0.39384 0.37654 0.0
H456 H 0.50674 0.3713 0.35262 0.0
H457 H 0.51755 0.38975 0.28771 0.0
C458 C 0.48403 0.39386 0.59571 0.0
N459 N 0.48866 0.40521 0.53526 0.0
N460 N 0.48142 0.39461 0.47649 0.0
C461 C 0.47155 0.37663 0.49757 0.0
C462 C 0.47317 0.3752 0.57357 0.0
C463 C 0.48905 0.40057 0.67385 0.0
H464 H 0.48931 0.4139 0.68079 0.0
H465 H 0.50308 0.40276 0.68665 0.0
H466 H 0.47907 0.39021 0.71342 0.0
O467 O 0.48348 0.4394 0.45243 0.0
O468 O 0.46948 0.41702 0.36719 0.0
H469 H 0.44859 0.34886 0.47925 0.0
H470 H 0.46733 0.35681 0.41441 0.0
C471 C 0.45894 0.36104 0.44741 0.0
H472 H 0.45151 0.36559 0.4093 0.0
H473 H 0.45285 0.38277 0.27132 0.0
O474 O 0.513 0.44749 0.60909 0.0
C475 C 0.47227 0.43211 0.39638 0.0
Co476 Co 0.58398 0.06765 0.52341 0.0
Co477 Co 0.61072 0.07447 0.39341 0.0
C478 C 0.581 0.08282 0.36907 0.0
O479 O 0.57631 0.07866 0.43719 0.0
O480 O 0.59556 0.08333 0.34343 0.0
C481 C 0.57122 0.08353 0.63951 0.0
O482 O 0.58334 0.09918 0.60826 0.0
C483 C 0.63519 0.08038 0.26893 0.0
C484 C 0.65437 0.07249 0.32204 0.0
C485 C 0.65106 0.07928 0.25742 0.0
N486 N 0.62975 0.07506 0.3385 0.0
N487 N 0.64083 0.06981 0.36923 0.0
C488 C 0.62524 0.08624 0.21577 0.0
H489 H 0.61011 0.0761 0.2171 0.0
H490 H 0.62714 0.09982 0.23368 0.0
H491 H 0.63049 0.08736 0.15838 0.0
C492 C 0.62317 0.08906 0.60334 0.0
N493 N 0.61135 0.08168 0.54401 0.0
N494 N 0.62165 0.08648 0.48418 0.0
C495 C 0.63976 0.09781 0.50241 0.0
C496 C 0.64172 0.09956 0.57868 0.0
C497 C 0.61701 0.08604 0.6822 0.0
H498 H 0.60677 0.07118 0.69067 0.0
H499 H 0.61007 0.09415 0.69443 0.0
H500 H 0.629 0.09048 0.72064 0.0
O501 O 0.57324 0.04074 0.48263 0.0
O502 O 0.59413 0.04797 0.39476 0.0
H503 H 0.66359 0.10068 0.4451 0.0
H504 H 0.66469 0.12207 0.46691 0.0
C505 C 0.65522 0.10765 0.44798 0.0
H506 H 0.64971 0.10806 0.39239 0.0
H507 H 0.63944 0.06489 0.42339 0.0
O508 O 0.56945 0.06837 0.6143 0.0
C509 C 0.57939 0.0361 0.42608 0.0
Co510 Co 0.85189 0.60823 0.77476 0.0
Co511 Co 0.86718 0.5979 0.91222 0.0
C512 C 0.82872 0.59165 0.91324 0.0
O513 O 0.82998 0.59655 0.84554 0.0
O514 O 0.84176 0.59036 0.9441 0.0
C515 C 0.82734 0.59495 0.64615 0.0
O516 O 0.82567 0.57918 0.66822 0.0
C517 C 0.86907 0.57431 0.02361 0.0
C518 C 0.89873 0.59043 0.05652 0.0
C519 C 0.88235 0.57393 0.06793 0.0
N520 N 0.87736 0.59024 0.98579 0.0
N521 N 0.89499 0.59996 1.00624 0.0
C522 C 0.849 0.55989 0.01635 0.0
H523 H 0.84056 0.5646 0.04708 0.0
H524 H 0.84471 0.55816 0.95714 0.0
H525 H 0.84625 0.54646 0.03983 0.0
C526 C 0.87115 0.58827 0.6986 0.0
N527 N 0.86514 0.59405 0.75803 0.0
N528 N 0.87064 0.5893 0.81843 0.0
C529 C 0.87994 0.58037 0.79965 0.0
C530 C 0.88072 0.57925 0.72311 0.0
C531 C 0.86874 0.59206 0.61964 0.0
H532 H 0.86723 0.60451 0.61592 0.0
H533 H 0.85601 0.58001 0.59675 0.0
H534 H 0.88075 0.59399 0.58597 0.0
O535 O 0.86811 0.63354 0.8297 0.0
O536 O 0.88004 0.62484 0.92131 0.0
H537 H 0.89999 0.5851 0.88399 0.0
H538 H 0.89416 0.56525 0.82639 0.0
C539 C 0.88852 0.57329 0.85391 0.0
H540 H 0.87784 0.5642 0.89398 0.0
H541 H 0.9045 0.61286 0.98455 0.0
O542 O 0.83907 0.60983 0.67983 0.0
C543 C 0.87796 0.63725 0.88945 0.0
Co544 Co 0.40792 0.24547 0.78126 0.0
Co545 Co 0.42205 0.27101 0.92068 0.0
C546 C 0.42476 0.23642 0.91318 0.0
O547 O 0.41938 0.23358 0.84566 0.0
O548 O 0.42727 0.25097 0.94614 0.0
C549 C 0.41814 0.23224 0.64992 0.0
O550 O 0.43477 0.24316 0.67793 0.0
C551 C 0.45053 0.29599 0.02262 0.0
C552 C 0.43703 0.31024 0.0746 0.0
C553 C 0.4534 0.30966 0.07246 0.0
N554 N 0.43325 0.28892 0.99509 0.0
N555 N 0.42515 0.29733 0.02679 0.0
C556 C 0.46388 0.28974 1.0014 0.0
H557 H 0.46084 0.28387 0.9444 0.0
H558 H 0.47846 0.30126 1.00553 0.0
H559 H 0.46228 0.27886 0.0408 0.0
C560 C 0.42864 0.28441 0.70603 0.0
N561 N 0.42342 0.27267 0.76532 0.0
N562 N 0.4296 0.2829 0.8257 0.0
C563 C 0.43883 0.30109 0.80674 0.0
C564 C 0.4388 0.30291 0.73019 0.0
C565 C 0.4229 0.27846 0.62766 0.0
H566 H 0.41282 0.26344 0.62404 0.0
H567 H 0.43543 0.28196 0.59441 0.0
H568 H 0.41657 0.28632 0.60392 0.0
O569 O 0.38375 0.23853 0.84281 0.0
O570 O 0.39514 0.25903 0.93563 0.0
H571 H 0.43576 0.31581 0.89753 0.0
H572 H 0.45372 0.33042 0.83312 0.0
C573 C 0.4469 0.31676 0.86101 0.0
H574 H 0.45737 0.3157 0.89521 0.0
H575 H 0.41167 0.29448 0.01469 0.0
O576 O 0.40401 0.23145 0.68232 0.0
C577 C 0.38153 0.24525 0.90407 0.0
Co578 Co 0.774 0.16288 0.77616 0.0
Co579 Co 0.74725 0.14532 0.90592 0.0
C580 C 0.77586 0.18133 0.93452 0.0
O581 O 0.78184 0.17986 0.87048 0.0
O582 O 0.75948 0.16947 0.95538 0.0
C583 C 0.78311 0.18905 0.65174 0.0
O584 O 0.76751 0.18831 0.67109 0.0
C585 C 0.71978 0.12402 0.01994 0.0
C586 C 0.70436 0.09728 0.95945 0.0
C587 C 0.70451 0.10634 0.02385 0.0
N588 N 0.72803 0.12544 0.95495 0.0
N589 N 0.7191 0.10934 0.91995 0.0
C590 C 0.72616 0.13948 0.07503 0.0
H591 H 0.74149 0.14661 0.08068 0.0
H592 H 0.72249 0.14977 0.05429 0.0
H593 H 0.71967 0.13434 0.13003 0.0
C594 C 0.73497 0.14459 0.69434 0.0
N595 N 0.74684 0.14997 0.75391 0.0
N596 N 0.73661 0.14567 0.8137 0.0
C597 C 0.71853 0.13876 0.79502 0.0
C598 C 0.71648 0.13725 0.71875 0.0
C599 C 0.74092 0.1458 0.61557 0.0
H600 H 0.75497 0.14737 0.6128 0.0
H601 H 0.74122 0.15795 0.58914 0.0
H602 H 0.73076 0.13326 0.58445 0.0
O603 O 0.78371 0.14546 0.80802 0.0
O604 O 0.76626 0.13771 0.90814 0.0
H605 H 0.69515 0.1188 0.85698 0.0
H606 H 0.69343 0.13829 0.82704 0.0
C607 C 0.7032 0.13401 0.84914 0.0
H608 H 0.70894 0.14107 0.90292 0.0
H609 H 0.72268 0.10686 0.86747 0.0
O610 O 0.78844 0.17927 0.68766 0.0
C611 C 0.77922 0.13763 0.87169 0.0
Co612 Co 0.40584 0.16134 0.27275 0.0
Co613 Co 0.41342 0.14494 0.41207 0.0
C614 C 0.4185 0.18272 0.41957 0.0
O615 O 0.41362 0.1818 0.35164 0.0
O616 O 0.42075 0.17003 0.44736 0.0
C617 C 0.42146 0.18647 0.14736 0.0
O618 O 0.43688 0.18892 0.17847 0.0
C619 C 0.43794 0.14285 0.51609 0.0
C620 C 0.42022 0.11546 0.56743 0.0
C621 C 0.43804 0.13063 0.56651 0.0
N622 N 0.42082 0.1351 0.487 0.0
N623 N 0.41017 0.11884 0.51807 0.0
C624 C 0.45358 0.16159 0.49592 0.0
H625 H 0.45099 0.17228 0.52065 0.0
H626 H 0.45406 0.16331 0.43478 0.0
H627 H 0.46711 0.16378 0.517 0.0
C628 C 0.43085 0.14579 0.20684 0.0
N629 N 0.42246 0.15022 0.2621 0.0
N630 N 0.42389 0.14245 0.3227 0.0
C631 C 0.43162 0.13188 0.30798 0.0
C632 C 0.43885 0.13527 0.23536 0.0
C633 C 0.42726 0.14759 0.12656 0.0
H634 H 0.41319 0.14586 0.11995 0.0
H635 H 0.43742 0.1616 0.1063 0.0
H636 H 0.42821 0.13706 0.09216 0.0
O637 O 0.37903 0.14248 0.31415 0.0
O638 O 0.38663 0.13164 0.41278 0.0
H639 H 0.42468 0.1031 0.3162 0.0
H640 H 0.43479 0.11698 0.3994 0.0
C641 C 0.42545 0.11438 0.35131 0.0
H642 H 0.4113 0.10945 0.37356 0.0
H643 H 0.39621 0.10999 0.50463 0.0
O644 O 0.40592 0.17447 0.17574 0.0
C645 C 0.37443 0.13257 0.37373 0.0
Co646 Co 0.85292 0.2463 0.28389 0.0
Co647 Co 0.86914 0.27186 0.42047 0.0
C648 C 0.82995 0.23959 0.41966 0.0
O649 O 0.83034 0.23651 0.35056 0.0
O650 O 0.84377 0.25312 0.45088 0.0
C651 C 0.82892 0.23398 0.1522 0.0
O652 O 0.82555 0.24703 0.17401 0.0
C653 C 0.86827 0.29714 0.525 0.0
C654 C 0.89681 0.31068 0.5713 0.0
C655 C 0.88015 0.31073 0.57294 0.0
N656 N 0.87761 0.28957 0.49457 0.0
N657 N 0.89456 0.29748 0.52292 0.0
C658 C 0.84848 0.29138 0.50798 0.0
H659 H 0.83938 0.27898 0.54146 0.0
H660 H 0.84544 0.28763 0.44843 0.0
H661 H 0.84532 0.30244 0.52263 0.0
C662 C 0.87236 0.28556 0.20764 0.0
N663 N 0.86654 0.27375 0.26683 0.0
N664 N 0.87273 0.28397 0.32719 0.0
C665 C 0.88248 0.30215 0.30866 0.0
C666 C 0.88259 0.30408 0.23227 0.0
C667 C 0.86912 0.27947 0.12855 0.0
H668 H 0.86704 0.2653 0.12335 0.0
H669 H 0.85648 0.27946 0.10831 0.0
H670 H 0.88101 0.28925 0.09382 0.0
O671 O 0.8682 0.23683 0.34548 0.0
O672 O 0.88309 0.25892 0.43011 0.0
H673 H 0.90265 0.31548 0.39484 0.0
H674 H 0.90005 0.33133 0.33499 0.0
C675 C 0.89252 0.31768 0.36279 0.0
H676 H 0.88233 0.3179 0.40131 0.0
H677 H 0.90466 0.29414 0.50794 0.0
O678 O 0.84104 0.2317 0.18772 0.0
C679 C 0.87906 0.24332 0.40261 0.0
Co680 Co 0.77141 0.61112 0.2677 0.0
Co681 Co 0.74567 0.60185 0.40202 0.0
C682 C 0.77588 0.59532 0.42213 0.0
O683 O 0.78044 0.60142 0.35554 0.0
O684 O 0.76051 0.59243 0.44955 0.0
C685 C 0.78053 0.59459 0.14216 0.0
O686 O 0.76539 0.57957 0.16335 0.0
C687 C 0.71973 0.59478 0.52336 0.0
C688 C 0.70202 0.6043 0.46856 0.0
C689 C 0.70391 0.59616 0.53216 0.0
N690 N 0.72654 0.60135 0.45625 0.0
N691 N 0.71627 0.60748 0.42462 0.0
C692 C 0.72815 0.58719 0.57625 0.0
H693 H 0.74345 0.59651 0.57821 0.0
H694 H 0.72548 0.57352 0.55572 0.0
H695 H 0.72229 0.58563 0.63275 0.0
C696 C 0.73206 0.58949 0.19096 0.0
N697 N 0.7442 0.59625 0.24948 0.0
N698 N 0.73439 0.59027 0.31035 0.0
C699 C 0.71625 0.57879 0.29306 0.0
C700 C 0.71379 0.57809 0.21682 0.0
C701 C 0.73755 0.59415 0.11174 0.0
H702 H 0.75158 0.60658 0.10792 0.0
H703 H 0.73767 0.58227 0.08454 0.0
H704 H 0.72722 0.59656 0.08204 0.0
O705 O 0.78038 0.63812 0.30196 0.0
O706 O 0.76291 0.6285 0.40164 0.0
H707 H 0.69275 0.57504 0.35544 0.0
H708 H 0.69176 0.55401 0.32778 0.0
C709 C 0.70123 0.56826 0.34837 0.0
H710 H 0.70725 0.5675 0.40229 0.0
H711 H 0.71866 0.61323 0.37165 0.0
O712 O 0.78545 0.60979 0.1767 0.0
C713 C 0.7756 0.64159 0.36496 0.0
Co714 Co 0.50403 0.06981 0.01655 0.0
Co715 Co 0.4819 0.07383 0.88912 0.0
C716 C 0.52271 0.08377 0.87491 0.0
O717 O 0.52495 0.08334 0.94458 0.0
O718 O 0.50706 0.08054 0.84925 0.0
C719 C 0.53182 0.08295 0.13382 0.0
O720 O 0.53617 0.09874 0.10192 0.0
C721 C 0.47647 0.09819 0.79416 0.0
C722 C 0.4514 0.07872 0.73007 0.0
C723 C 0.46442 0.09722 0.73976 0.0
N724 N 0.47085 0.08092 0.8165 0.0
N725 N 0.45595 0.06927 0.77791 0.0
C726 C 0.49289 0.11518 0.82489 0.0
H727 H 0.49945 0.11163 0.8709 0.0
H728 H 0.48846 0.12496 0.84496 0.0
H729 H 0.50317 0.12222 0.78008 0.0
C730 C 0.48802 0.09267 0.09648 0.0
N731 N 0.49037 0.08341 0.03852 0.0
N732 N 0.47991 0.08329 0.98351 0.0
C733 C 0.46975 0.09101 1.00603 0.0
C734 C 0.47476 0.09797 0.07781 0.0
C735 C 0.49907 0.0974 0.16688 0.0
H736 H 0.51363 0.10812 0.15511 0.0
H737 H 0.49368 0.10303 0.20962 0.0
H738 H 0.49906 0.08496 0.18829 0.0
O739 O 0.48791 0.04362 0.96092 0.0
O740 O 0.46875 0.04749 0.88657 0.0
H741 H 0.44381 0.09085 0.99719 0.0
H742 H 0.46096 0.10401 0.92877 0.0
C743 C 0.4547 0.09107 0.96097 0.0
H744 H 0.44831 0.07903 0.92268 0.0
H745 H 0.44884 0.05493 0.7846 0.0
O746 O 0.5177 0.06819 0.10892 0.0
C747 C 0.47487 0.03735 0.91108 0.0
Co748 Co 0.95392 0.43503 0.03112 0.0
Co749 Co 0.94211 0.40866 0.89418 0.0
C750 C 0.93833 0.44188 0.8859 0.0
O751 O 0.94518 0.44664 0.95123 0.0
O752 O 0.93411 0.42608 0.86017 0.0
C753 C 0.94064 0.44852 0.15505 0.0
O754 O 0.92443 0.43735 0.12429 0.0
C755 C 0.9165 0.38092 0.79428 0.0
C756 C 0.93369 0.3709 0.74016 0.0
C757 C 0.91589 0.36829 0.74381 0.0
N758 N 0.93391 0.39059 0.82038 0.0
N759 N 0.94425 0.38479 0.78734 0.0
C760 C 0.9007 0.38334 0.81947 0.0
H761 H 0.90378 0.39017 0.87471 0.0
H762 H 0.88763 0.36976 0.82157 0.0
H763 H 0.89867 0.39221 0.7791 0.0
C764 C 0.93152 0.39616 0.10853 0.0
N765 N 0.93814 0.40768 0.04844 0.0
N766 N 0.93341 0.39714 0.98881 0.0
C767 C 0.92395 0.37907 0.00906 0.0
C768 C 0.92199 0.37754 0.0853 0.0
C769 C 0.93512 0.40242 0.18743 0.0
H770 H 0.94473 0.41754 0.19149 0.0
H771 H 0.92169 0.39854 0.21443 0.0
H772 H 0.9412 0.39506 0.21739 0.0
O773 O 0.97959 0.442 0.98363 0.0
O774 O 0.96932 0.42276 0.88674 0.0
H775 H 0.9139 0.35007 0.98696 0.0
H776 H 0.90523 0.36122 0.92711 0.0
C777 C 0.91771 0.36313 0.95724 0.0
H778 H 0.92896 0.36591 0.9177 0.0
H779 H 0.95836 0.39 0.79833 0.0
O780 O 0.95528 0.4495 0.12677 0.0
C781 C 0.98258 0.43597 0.92213 0.0
Co782 Co 0.5814 0.51589 0.02467 0.0
Co783 Co 0.6076 0.5322 0.8913 0.0
C784 C 0.57677 0.49584 0.86919 0.0
O785 O 0.57222 0.49719 0.93614 0.0
O786 O 0.59228 0.50822 0.84257 0.0
C787 C 0.57124 0.48953 0.14723 0.0
O788 O 0.58526 0.48814 0.12132 0.0
C789 C 0.63393 0.55129 0.77126 0.0
C790 C 0.65148 0.57824 0.82802 0.0
C791 C 0.64972 0.56849 0.76364 0.0
N792 N 0.62699 0.55079 0.83842 0.0
N793 N 0.63717 0.56702 0.87124 0.0
C794 C 0.6256 0.53556 0.71703 0.0
H795 H 0.61028 0.52956 0.71521 0.0
H796 H 0.62836 0.52452 0.73617 0.0
H797 H 0.63146 0.54012 0.66072 0.0
C798 C 0.62058 0.53329 0.10246 0.0
N799 N 0.60856 0.52781 0.04351 0.0
N800 N 0.6185 0.53144 0.98306 0.0
C801 C 0.63661 0.53809 1.00109 0.0
C802 C 0.63891 0.54007 0.07731 0.0
C803 C 0.61486 0.53279 0.1812 0.0
H804 H 0.60267 0.53484 0.18375 0.0
H805 H 0.61087 0.51905 0.20501 0.0
H806 H 0.62653 0.54355 0.21468 0.0
O807 O 0.57289 0.53428 0.9903 0.0
O808 O 0.59086 0.54214 0.89206 0.0
H809 H 0.66037 0.55768 0.93982 0.0
H810 H 0.66112 0.53757 0.96804 0.0
C811 C 0.65179 0.54247 0.94657 0.0
H812 H 0.64594 0.53574 0.89235 0.0
H813 H 0.63465 0.5702 0.9244 0.0
O814 O 0.56723 0.50091 0.11628 0.0
C815 C 0.57814 0.54272 0.92797 0.0
Co816 Co 0.61724 0.84845 0.85622 0.0
Co817 Co 0.60552 0.8627 0.71813 0.0
C818 C 0.60223 0.82496 0.71888 0.0
O819 O 0.60623 0.82592 0.78777 0.0
O820 O 0.60084 0.83788 0.68813 0.0
C821 C 0.60606 0.82476 0.98821 0.0
O822 O 0.58945 0.82039 0.96349 0.0
C823 C 0.57719 0.859 0.61623 0.0
C824 C 0.58983 0.88677 0.56571 0.0
C825 C 0.57378 0.86961 0.56747 0.0
N826 N 0.59443 0.86952 0.64359 0.0
N827 N 0.60206 0.88603 0.6126 0.0
C828 C 0.56437 0.83929 0.63686 0.0
H829 H 0.56681 0.83687 0.69531 0.0
H830 H 0.54961 0.83536 0.6283 0.0
H831 H 0.56734 0.83039 0.60037 0.0
C832 C 0.59594 0.86624 0.93216 0.0
N833 N 0.60189 0.86047 0.87254 0.0
N834 N 0.59683 0.86577 0.8124 0.0
C835 C 0.58773 0.87487 0.83174 0.0
C836 C 0.58647 0.87534 0.90835 0.0
C837 C 0.60047 0.86476 0.01099 0.0
H838 H 0.61125 0.86068 0.01481 0.0
H839 H 0.58756 0.85445 0.03912 0.0
H840 H 0.60543 0.87823 0.03971 0.0
O841 O 0.6418 0.8654 0.79659 0.0
O842 O 0.63255 0.87803 0.70931 0.0
H843 H 0.59359 0.89464 0.74591 0.0
H844 H 0.57495 0.89145 0.80647 0.0
C845 C 0.5815 0.88434 0.7782 0.0
H846 H 0.57125 0.87394 0.7397 0.0
H847 H 0.61539 0.89688 0.62488 0.0
O848 O 0.62038 0.8373 0.95403 0.0
C849 C 0.64524 0.8758 0.73891 0.0
Co850 Co 0.17084 0.76661 0.85272 0.0
Co851 Co 0.15513 0.73964 0.71885 0.0
C852 C 0.19391 0.7734 0.71838 0.0
O853 O 0.19346 0.77641 0.7873 0.0
O854 O 0.18024 0.75951 0.68786 0.0
C855 C 0.19609 0.78036 0.97705 0.0
O856 O 0.19939 0.7676 0.95067 0.0
C857 C 0.15807 0.71204 0.63487 0.0
C858 C 0.13186 0.69869 0.57033 0.0
C859 C 0.14782 0.69792 0.58563 0.0
N860 N 0.14845 0.72066 0.64945 0.0
N861 N 0.13285 0.71276 0.61045 0.0
C862 C 0.17662 0.71729 0.66768 0.0
H863 H 0.17987 0.72693 0.71516 0.0
H864 H 0.17704 0.70482 0.68597 0.0
H865 H 0.18738 0.72405 0.62433 0.0
C866 C 0.15379 0.72849 0.93502 0.0
N867 N 0.15856 0.73966 0.87401 0.0
N868 N 0.15151 0.72889 0.81551 0.0
C869 C 0.1416 0.71098 0.83733 0.0
C870 C 0.14298 0.70977 0.9136 0.0
C871 C 0.15873 0.73546 0.01288 0.0
H872 H 0.17303 0.73836 0.02536 0.0
H873 H 0.1491 0.725 0.053 0.0
H874 H 0.15836 0.74849 0.01918 0.0
O875 O 0.15352 0.77371 0.78946 0.0
O876 O 0.14024 0.75137 0.70369 0.0
H877 H 0.11905 0.68297 0.81921 0.0
H878 H 0.13794 0.69119 0.75491 0.0
C879 C 0.12928 0.69521 0.78734 0.0
H880 H 0.12172 0.69948 0.74874 0.0
H881 H 0.12279 0.71675 0.61233 0.0
O882 O 0.18297 0.78205 0.94707 0.0
C883 C 0.14269 0.76639 0.73236 0.0
Co884 Co 0.25066 0.40266 0.84272 0.0
Co885 Co 0.27719 0.41119 0.70977 0.0
C886 C 0.24477 0.41827 0.70337 0.0
O887 O 0.24111 0.41485 0.77205 0.0
O888 O 0.25849 0.41783 0.67488 0.0
C889 C 0.23903 0.41604 0.96714 0.0
O890 O 0.25235 0.43163 0.93972 0.0
C891 C 0.30638 0.43732 0.61629 0.0
C892 C 0.31398 0.41943 0.55237 0.0
C893 C 0.31845 0.4376 0.56369 0.0
N894 N 0.29525 0.41969 0.63618 0.0
N895 N 0.29962 0.40898 0.59725 0.0
C896 C 0.30581 0.45351 0.64906 0.0
H897 H 0.29751 0.44948 0.70079 0.0
H898 H 0.32013 0.465 0.66033 0.0
H899 H 0.29928 0.45856 0.60856 0.0
C900 C 0.28961 0.42378 0.92388 0.0
N901 N 0.27812 0.4168 0.8632 0.0
N902 N 0.28874 0.41986 0.80491 0.0
C903 C 0.30681 0.42824 0.8267 0.0
C904 C 0.30834 0.43156 0.90235 0.0
C905 C 0.28302 0.42244 1.00177 0.0
H906 H 0.2813 0.43453 0.01402 0.0
H907 H 0.29332 0.42264 0.04171 0.0
H908 H 0.26945 0.4096 0.00877 0.0
O909 O 0.24137 0.37765 0.78284 0.0
O910 O 0.2641 0.38441 0.70227 0.0
H911 H 0.33452 0.43291 0.80934 0.0
H912 H 0.32753 0.4457 0.75078 0.0
C913 C 0.32268 0.4321 0.7774 0.0
H914 H 0.31828 0.42108 0.73492 0.0
H915 H 0.29311 0.39462 0.60266 0.0
O916 O 0.236 0.40084 0.93699 0.0
C917 C 0.24814 0.37309 0.72751 0.0
Co918 Co 0.52153 0.93995 0.1242 0.0
Co919 Co 0.53837 0.93035 0.25882 0.0
C920 C 0.49915 0.92446 0.26014 0.0
O921 O 0.49905 0.9278 0.19127 0.0
O922 O 0.51323 0.92486 0.2895 0.0
C923 C 0.49467 0.92989 1.00447 0.0
O924 O 0.48675 0.91448 0.04288 0.0
C925 C 0.53513 0.9011 0.35033 0.0
C926 C 0.56185 0.91405 0.41148 0.0
C927 C 0.54538 0.89752 0.40068 0.0
N928 N 0.54523 0.91894 0.33088 0.0
N929 N 0.5611 0.92673 0.36803 0.0
C930 C 0.51618 0.88795 0.32038 0.0
H931 H 0.51584 0.88989 0.25961 0.0
H932 H 0.51203 0.87337 0.33289 0.0
H933 H 0.50597 0.89111 0.34622 0.0
C934 C 0.53922 0.91891 0.04485 0.0
N935 N 0.53437 0.92555 0.10511 0.0
N936 N 0.54167 0.9223 0.16398 0.0
C937 C 0.55161 0.91418 0.1433 0.0
C938 C 0.55022 0.91127 0.0672 0.0
C939 C 0.53412 0.92025 0.96655 0.0
H940 H 0.52922 0.93034 0.96158 0.0
H941 H 0.52296 0.9064 0.94806 0.0
H942 H 0.54624 0.92434 0.92973 0.0
O943 O 0.53768 0.96431 0.18767 0.0
O944 O 0.55304 0.9571 0.27056 0.0
H945 H 0.57338 0.90758 0.16347 0.0
H946 H 0.55488 0.89873 0.22994 0.0
C947 C 0.56373 0.91069 0.19442 0.0
H948 H 0.57192 0.92297 0.23029 0.0
H949 H 0.57151 0.94054 0.36248 0.0
O950 O 0.51041 0.94322 0.02689 0.0
C951 C 0.54877 0.96864 0.24418 0.0
Co952 Co 0.07563 0.57992 0.11698 0.0
Co953 Co 0.08973 0.60494 0.25853 0.0
C954 C 0.09145 0.56982 0.24977 0.0
O955 O 0.0863 0.5673 0.18193 0.0
O956 O 0.09423 0.58439 0.28332 0.0
C957 C 0.08606 0.56875 0.97828 0.0
O958 O 0.10274 0.5816 0.99959 0.0
C959 C 0.118 0.62895 0.36331 0.0
C960 C 0.10516 0.64403 0.41346 0.0
C961 C 0.12114 0.64274 0.41299 0.0
N962 N 0.10095 0.62251 0.33423 0.0
N963 N 0.09322 0.63139 0.36493 0.0
C964 C 0.13086 0.62196 0.34378 0.0
H965 H 0.12843 0.61685 0.28564 0.0
H966 H 0.1456 0.63282 0.35205 0.0
H967 H 0.12796 0.61032 0.3813 0.0
C968 C 0.09707 0.61917 0.04498 0.0
N969 N 0.09161 0.60717 0.10342 0.0
N970 N 0.09788 0.61714 0.16444 0.0
C971 C 0.10748 0.63539 0.14663 0.0
C972 C 0.10756 0.63752 0.07024 0.0
C973 C 0.09126 0.61361 0.96645 0.0
H974 H 0.07943 0.59924 0.96316 0.0
H975 H 0.10332 0.61483 0.93534 0.0
H976 H 0.08729 0.62321 0.94048 0.0
O977 O 0.05138 0.5733 0.17739 0.0
O978 O 0.0628 0.5935 0.27138 0.0
H979 H 0.10454 0.65027 0.23711 0.0
H980 H 0.12315 0.6646 0.17464 0.0
C981 C 0.11572 0.65086 0.2018 0.0
H982 H 0.12567 0.64921 0.2371 0.0
H983 H 0.08 0.6291 0.35148 0.0
O984 O 0.07198 0.56616 0.0169 0.0
C985 C 0.04912 0.58003 0.23864 0.0
Co986 Co 0.44031 0.4945 0.09908 0.0
Co987 Co 0.41545 0.48332 0.23835 0.0
C988 C 0.44982 0.51895 0.24103 0.0
O989 O 0.4538 0.51539 0.17688 0.0
O990 O 0.43392 0.50855 0.26855 0.0
C991 C 0.44973 0.51849 0.97089 0.0
O992 O 0.43615 0.52032 0.99897 0.0
C993 C 0.39148 0.48398 0.35086 0.0
C994 C 0.37628 0.45465 0.38555 0.0
C995 C 0.37758 0.4717 0.39631 0.0
N996 N 0.39791 0.47451 0.31306 0.0
N997 N 0.38901 0.45706 0.33451 0.0
C998 C 0.3984 0.50423 0.34231 0.0
H999 H 0.41214 0.51214 0.37015 0.0
H1000 H 0.40029 0.50793 0.28262 0.0
H1001 H 0.38874 0.50819 0.36789 0.0
C1002 C 0.40076 0.47744 0.02616 0.0
N1003 N 0.41287 0.48368 0.08495 0.0
N1004 N 0.40295 0.48 0.14567 0.0
C1005 C 0.38462 0.47179 0.12766 0.0
C1006 C 0.38232 0.46974 0.05125 0.0
C1007 C 0.40644 0.47745 0.94767 0.0
H1008 H 0.41959 0.47706 0.94603 0.0
H1009 H 0.40867 0.49028 0.92016 0.0
H1010 H 0.39534 0.46544 0.91679 0.0
O1011 O 0.44632 0.47521 0.14536 0.0
O1012 O 0.42868 0.4692 0.24571 0.0
H1013 H 0.36835 0.45339 0.21412 0.0
H1014 H 0.35556 0.46059 0.15531 0.0
C1015 C 0.36919 0.46517 0.1826 0.0
H1016 H 0.37211 0.47657 0.22142 0.0
H1017 H 0.39136 0.44678 0.31307 0.0
O1018 O 0.45374 0.50709 1.00189 0.0
C1019 C 0.44072 0.46735 0.20904 0.0
Co1020 Co 0.07363 0.49536 0.61126 0.0
Co1021 Co 0.0892 0.48475 0.74741 0.0
C1022 C 0.08955 0.51996 0.75176 0.0
O1023 O 0.08143 0.51624 0.68858 0.0
O1024 O 0.09597 0.51009 0.77671 0.0
C1025 C 0.08718 0.51903 0.48235 0.0
O1026 O 0.10272 0.52075 0.50905 0.0
C1027 C 0.11677 0.48786 0.85115 0.0
C1028 C 0.10401 0.45963 0.89762 0.0
C1029 C 0.11983 0.47698 0.8995 0.0
N1030 N 0.09991 0.47734 0.82053 0.0
N1031 N 0.09221 0.46054 0.84891 0.0
C1032 C 0.12966 0.50779 0.83326 0.0
H1033 H 0.12911 0.5101 0.7729 0.0
H1034 H 0.14414 0.51225 0.85059 0.0
H1035 H 0.12506 0.51638 0.86346 0.0
C1036 C 0.09528 0.47831 0.53313 0.0
N1037 N 0.09012 0.48461 0.59354 0.0
N1038 N 0.09708 0.48104 0.65265 0.0
C1039 C 0.10688 0.47275 0.63198 0.0
C1040 C 0.10629 0.47065 0.55532 0.0
C1041 C 0.08865 0.47816 0.45588 0.0
H1042 H 0.07509 0.47773 0.45701 0.0
H1043 H 0.09894 0.49095 0.42712 0.0
H1044 H 0.08732 0.46611 0.42435 0.0
O1045 O 0.04905 0.4764 0.66314 0.0
O1046 O 0.06183 0.47027 0.76029 0.0
H1047 H 0.10546 0.45496 0.71993 0.0
H1048 H 0.12415 0.46064 0.65568 0.0
C1049 C 0.11612 0.46607 0.68485 0.0
H1050 H 0.12572 0.47771 0.72076 0.0
H1051 H 0.07909 0.44968 0.83405 0.0
O1052 O 0.0719 0.50778 0.5147 0.0
C1053 C 0.04756 0.46865 0.72666 0.0
Co1054 Co 0.52266 0.57916 0.6093 0.0
Co1055 Co 0.53453 0.60363 0.7512 0.0
C1056 C 0.49676 0.56952 0.74059 0.0
O1057 O 0.49907 0.56717 0.67229 0.0
O1058 O 0.50912 0.58365 0.77512 0.0
C1059 C 0.50009 0.56731 0.4736 0.0
O1060 O 0.49475 0.57859 0.49999 0.0
C1061 C 0.53237 0.62837 0.85757 0.0
C1062 C 0.56065 0.64174 0.90632 0.0
C1063 C 0.54401 0.64181 0.90686 0.0
N1064 N 0.54188 0.6209 0.82758 0.0
N1065 N 0.55866 0.62872 0.85753 0.0
C1066 C 0.51269 0.6227 0.83893 0.0
H1067 H 0.50344 0.61099 0.87527 0.0
H1068 H 0.50958 0.618 0.78032 0.0
H1069 H 0.50981 0.63414 0.84923 0.0
C1070 C 0.54174 0.61884 0.53907 0.0
N1071 N 0.53498 0.60658 0.59667 0.0
N1072 N 0.53907 0.61632 0.65839 0.0
C1073 C 0.54825 0.63466 0.64204 0.0
C1074 C 0.55024 0.63713 0.56591 0.0
C1075 C 0.54127 0.61354 0.45971 0.0
H1076 H 0.53675 0.59866 0.45412 0.0
H1077 H 0.53163 0.61674 0.42892 0.0
H1078 H 0.55526 0.62199 0.43489 0.0
O1079 O 0.53915 0.57114 0.67075 0.0
O1080 O 0.54929 0.59159 0.76371 0.0
H1081 H 0.56612 0.64847 0.73435 0.0
H1082 H 0.56331 0.66377 0.6721 0.0
C1083 C 0.55609 0.6499 0.69826 0.0
H1084 H 0.54461 0.64884 0.73244 0.0
H1085 H 0.56888 0.6255 0.8431 0.0
O1086 O 0.51282 0.56587 0.50854 0.0
C1087 C 0.54847 0.57765 0.73164 0.0
Co1088 Co 0.44045 0.9436 0.61426 0.0
Co1089 Co 0.4138 0.93285 0.74534 0.0
C1090 C 0.44464 0.92795 0.7703 0.0
O1091 O 0.44991 0.93508 0.7054 0.0
O1092 O 0.42839 0.92324 0.79407 0.0
C1093 C 0.45734 0.9296 0.5082 0.0
O1094 O 0.45293 0.91679 0.55891 0.0
C1095 C 0.38793 0.92758 0.86443 0.0
C1096 C 0.37036 0.93646 0.80408 0.0
C1097 C 0.3723 0.92937 0.87051 0.0
N1098 N 0.39462 0.93292 0.79627 0.0
N1099 N 0.38449 0.93875 0.7613 0.0
C1100 C 0.39626 0.92071 0.92091 0.0
H1101 H 0.41162 0.92967 0.921 0.0
H1102 H 0.39305 0.90653 0.90535 0.0
H1103 H 0.39074 0.92045 0.97715 0.0
C1104 C 0.40151 0.92174 0.53427 0.0
N1105 N 0.41328 0.92825 0.59404 0.0
N1106 N 0.4031 0.92168 0.6536 0.0
C1107 C 0.38508 0.91028 0.6345 0.0
C1108 C 0.38303 0.91013 0.55814 0.0
C1109 C 0.40773 0.92647 0.45578 0.0
H1110 H 0.42051 0.94027 0.45306 0.0
H1111 H 0.41102 0.91602 0.43361 0.0
H1112 H 0.39654 0.9262 0.421 0.0
O1113 O 0.44921 0.97045 0.64886 0.0
O1114 O 0.43111 0.95932 0.74614 0.0
H1115 H 0.36091 0.90602 0.69331 0.0
H1116 H 0.36067 0.88524 0.66753 0.0
C1117 C 0.36972 0.89956 0.68836 0.0
H1118 H 0.37541 0.89898 0.74338 0.0
H1119 H 0.38692 0.94376 0.70707 0.0
O1120 O 0.45377 0.94261 0.52062 0.0
C1121 C 0.44396 0.97295 0.71253 0.0
Co1122 Co 0.17034 0.40508 0.33882 0.0
Co1123 Co 0.153 0.41403 0.20418 0.0
C1124 C 0.19226 0.41985 0.20144 0.0
O1125 O 0.19255 0.41686 0.27053 0.0
O1126 O 0.17824 0.41972 0.1726 0.0
C1127 C 0.19825 0.41555 0.45544 0.0
O1128 O 0.20762 0.42886 0.40767 0.0
C1129 C 0.1559 0.44398 0.11987 0.0
C1130 C 0.12982 0.43144 0.05461 0.0
C1131 C 0.14587 0.44802 0.07043 0.0
N1132 N 0.14613 0.4258 0.13405 0.0
N1133 N 0.13059 0.41826 0.09471 0.0
C1134 C 0.17448 0.45709 0.15295 0.0
H1135 H 0.18532 0.46001 0.11097 0.0
H1136 H 0.17717 0.45101 0.2029 0.0
H1137 H 0.17547 0.47047 0.16729 0.0
C1138 C 0.15321 0.42657 0.41727 0.0
N1139 N 0.15754 0.41947 0.35712 0.0
N1140 N 0.14945 0.42186 0.29897 0.0
C1141 C 0.13923 0.42963 0.32019 0.0
C1142 C 0.14151 0.43353 0.39573 0.0
C1143 C 0.15961 0.42619 0.49442 0.0
H1144 H 0.17489 0.43535 0.49752 0.0
H1145 H 0.15291 0.43092 0.53538 0.0
H1146 H 0.15648 0.41195 0.50796 0.0
O1147 O 0.15392 0.38025 0.27669 0.0
O1148 O 0.13878 0.38735 0.19188 0.0
H1149 H 0.11543 0.43325 0.30333 0.0
H1150 H 0.13355 0.44397 0.23583 0.0
C1151 C 0.12583 0.4316 0.27077 0.0
H1152 H 0.11853 0.41928 0.23427 0.0
H1153 H 0.12043 0.40428 0.09642 0.0
O1154 O 0.18156 0.40305 0.43842 0.0
C1155 C 0.14284 0.3758 0.21989 0.0
Co1156 Co 0.62095 0.76737 0.35908 0.0
Co1157 Co 0.60817 0.74019 0.22421 0.0
C1158 C 0.60474 0.77352 0.21415 0.0
O1159 O 0.61201 0.77854 0.27866 0.0
O1160 O 0.60017 0.75754 0.1894 0.0
C1161 C 0.60674 0.77829 0.48545 0.0
O1162 O 0.59126 0.76405 0.46089 0.0
C1163 C 0.5817 0.71217 0.12698 0.0
C1164 C 0.59788 0.70071 0.07508 0.0
C1165 C 0.58038 0.69886 0.07839 0.0
N1166 N 0.59922 0.72149 0.15234 0.0
N1167 N 0.60895 0.71479 0.12066 0.0
C1168 C 0.56646 0.7156 0.15104 0.0
H1169 H 0.56962 0.72229 0.20656 0.0
H1170 H 0.55294 0.70244 0.15208 0.0
H1171 H 0.5653 0.72501 0.11075 0.0
C1172 C 0.59932 0.72917 0.44024 0.0
N1173 N 0.60534 0.74024 0.37877 0.0
N1174 N 0.59993 0.72932 0.32017 0.0
C1175 C 0.59044 0.71141 0.34239 0.0
C1176 C 0.58937 0.71042 0.41896 0.0
C1177 C 0.60398 0.73609 0.51824 0.0
H1178 H 0.61682 0.74983 0.51978 0.0
H1179 H 0.59232 0.73733 0.54175 0.0
H1180 H 0.60582 0.72615 0.553 0.0
O1181 O 0.64632 0.77399 0.31083 0.0
O1182 O 0.63551 0.75435 0.21507 0.0
H1183 H 0.59384 0.69693 0.25164 0.0
H1184 H 0.57848 0.682 0.3224 0.0
C1185 C 0.58302 0.6951 0.29183 0.0
H1186 H 0.57079 0.69396 0.26221 0.0
H1187 H 0.62299 0.71955 0.13145 0.0
O1188 O 0.62197 0.78219 0.45279 0.0
C1189 C 0.64897 0.76769 0.24938 0.0
Co1190 Co 0.25045 0.8493 0.36245 0.0
Co1191 Co 0.27701 0.86786 0.23201 0.0
C1192 C 0.2469 0.83038 0.20782 0.0
O1193 O 0.24232 0.83049 0.27579 0.0
O1194 O 0.26182 0.84385 0.18164 0.0
C1195 C 0.24058 0.82292 0.48386 0.0
O1196 O 0.2545 0.82155 0.45669 0.0
C1197 C 0.30259 0.88714 0.11113 0.0
C1198 C 0.3212 0.91367 0.16887 0.0
C1199 C 0.31859 0.90412 0.10317 0.0
N1200 N 0.29632 0.88653 0.17963 0.0
N1201 N 0.30707 0.90256 0.21305 0.0
C1202 C 0.29359 0.87159 0.05629 0.0
H1203 H 0.27834 0.86608 0.05569 0.0
H1204 H 0.29594 0.86018 0.07397 0.0
H1205 H 0.29928 0.87617 0.99977 0.0
C1206 C 0.28973 0.86728 0.44238 0.0
N1207 N 0.27778 0.86235 0.38318 0.0
N1208 N 0.2879 0.86682 0.32302 0.0
C1209 C 0.30599 0.87338 0.34106 0.0
C1210 C 0.30818 0.87452 0.41736 0.0
C1211 C 0.28388 0.86571 0.52142 0.0
H1212 H 0.27226 0.86861 0.52602 0.0
H1213 H 0.27897 0.85141 0.54095 0.0
H1214 H 0.2957 0.87543 0.55712 0.0
O1215 O 0.23981 0.86558 0.32195 0.0
O1216 O 0.26024 0.87773 0.23182 0.0
H1217 H 0.33 0.89315 0.28142 0.0
H1218 H 0.33034 0.87267 0.30689 0.0
C1219 C 0.32121 0.87791 0.28652 0.0
H1220 H 0.31537 0.87158 0.23175 0.0
H1221 H 0.3051 0.90563 0.26724 0.0
O1222 O 0.23643 0.83429 0.45381 0.0
C1223 C 0.24576 0.87561 0.26343 0.0
C1224 C 0.2641 0.12104 0.93958 0.0
C1225 C 0.27469 0.12841 0.87355 0.0
C1226 C 0.28552 0.15986 0.922 0.0
C1227 C 0.27307 0.15252 0.98311 0.0
N1228 N 0.24949 0.12597 0.04753 0.0
N1229 N 0.29304 0.15517 0.79708 0.0
C1230 C 0.26217 0.13304 0.99148 0.0
C1231 C 0.28486 0.14791 0.86375 0.0
N1232 N 0.25625 0.10254 0.95365 0.0
N1233 N 0.29852 0.17828 0.92055 0.0
H1234 H 0.29277 0.1471 0.75236 0.0
H1235 H 0.29865 0.16909 0.78371 0.0
H1236 H 0.29975 0.18752 0.96205 0.0
H1237 H 0.30934 0.18403 0.88234 0.0
H1238 H 0.24996 0.09647 1.00368 0.0
H1239 H 0.2575 0.09347 0.91753 0.0
H1240 H 0.23961 0.112 0.05227 0.0
H1241 H 0.24797 0.13434 0.08669 0.0
C1242 C 0.89976 0.13502 0.91549 0.0
C1243 C 0.892 0.14173 0.86123 0.0
C1244 C 0.86325 0.12829 0.93358 0.0
C1245 C 0.86974 0.11902 0.98059 0.0
N1246 N 0.89399 0.11246 0.01241 0.0
N1247 N 0.86438 0.1407 0.81171 0.0
C1248 C 0.88802 0.12214 0.97072 0.0
C1249 C 0.87322 0.1373 0.86847 0.0
N1250 N 0.91847 0.14146 0.91614 0.0
N1251 N 0.84786 0.1292 0.95274 0.0
H1252 H 0.87065 0.14629 0.76103 0.0
H1253 H 0.85014 0.13596 0.81186 0.0
H1254 H 0.84117 0.1241 1.00296 0.0
H1255 H 0.84337 0.13709 0.92395 0.0
H1256 H 0.92518 0.13847 0.95819 0.0
H1257 H 0.92756 0.1513 0.87863 0.0
H1258 H 0.90639 0.11256 1.00239 0.0
H1259 H 0.88587 0.10328 0.05387 0.0
C1260 C 0.86609 0.737 0.92931 0.0
C1261 C 0.87319 0.74711 0.86245 0.0
C1262 C 0.9047 0.76212 0.91777 0.0
C1263 C 0.89801 0.75039 0.98052 0.0
N1264 N 0.87224 0.72336 0.03641 0.0
N1265 N 0.90034 0.76567 0.78739 0.0
C1266 C 0.87865 0.73696 0.98394 0.0
C1267 C 0.89282 0.7587 0.8552 0.0
N1268 N 0.8474 0.72786 0.94225 0.0
N1269 N 0.92238 0.77688 0.91846 0.0
H1270 H 0.89241 0.76244 0.73893 0.0
H1271 H 0.91462 0.77277 0.77778 0.0
H1272 H 0.93105 0.78024 0.96479 0.0
H1273 H 0.92754 0.78688 0.87694 0.0
H1274 H 0.84167 0.72201 0.99336 0.0
H1275 H 0.83776 0.72759 0.90444 0.0
H1276 H 0.85873 0.71212 0.03596 0.0
H1277 H 0.88074 0.72217 0.07595 0.0
C1278 C 0.13689 0.24756 0.7604 0.0
C1279 C 0.13069 0.26068 0.75625 0.0
C1280 C 0.14939 0.2734 0.64342 0.0
C1281 C 0.15382 0.25888 0.64258 0.0
N1282 N 0.14798 0.22975 0.69326 0.0
N1283 N 0.1275 0.28292 0.68153 0.0
C1284 C 0.14636 0.24521 0.69894 0.0
C1285 C 0.13585 0.27261 0.69402 0.0
N1286 N 0.13475 0.23801 0.82458 0.0
N1287 N 0.15893 0.28874 0.60007 0.0
H1288 H 0.11725 0.2825 0.71592 0.0
H1289 H 0.12934 0.29032 0.63273 0.0
H1290 H 0.16984 0.29098 0.56545 0.0
H1291 H 0.15749 0.30041 0.60523 0.0
H1292 H 0.14063 0.22966 0.83298 0.0
H1293 H 0.12897 0.24003 0.87244 0.0
H1294 H 0.14132 0.21852 0.72903 0.0
H1295 H 0.15428 0.22731 0.64807 0.0
C1296 C 0.74214 0.85832 0.69117 0.0
C1297 C 0.75494 0.86504 0.75167 0.0
C1298 C 0.77222 0.89501 0.68684 0.0
C1299 C 0.75795 0.88933 0.63277 0.0
N1300 N 0.72705 0.86593 0.59332 0.0
N1301 N 0.77964 0.89192 0.81379 0.0
C1302 C 0.74231 0.87103 0.63724 0.0
C1303 C 0.76936 0.88397 0.75117 0.0
N1304 N 0.73017 0.83976 0.68331 0.0
N1305 N 0.78874 0.91094 0.67632 0.0
H1306 H 0.77704 0.885 0.86426 0.0
H1307 H 0.78915 0.90605 0.81809 0.0
H1308 H 0.79145 0.91889 0.62843 0.0
H1309 H 0.80026 0.91502 0.71077 0.0
H1310 H 0.7219 0.83399 0.63624 0.0
H1311 H 0.72985 0.82998 0.72 0.0
H1312 H 0.71456 0.85358 0.6006 0.0
H1313 H 0.72615 0.87461 0.55418 0.0
C1314 C 0.14973 0.89472 0.69478 0.0
C1315 C 0.15348 0.88728 0.75966 0.0
C1316 C 0.1353 0.85615 0.70453 0.0
C1317 C 0.12943 0.86332 0.64504 0.0
N1318 N 0.13003 0.88945 0.58643 0.0
N1319 N 0.14668 0.86011 0.83086 0.0
C1320 C 0.13649 0.88265 0.64063 0.0
C1321 C 0.14556 0.86778 0.76546 0.0
N1322 N 0.15923 0.91339 0.68378 0.0
N1323 N 0.13148 0.83821 0.70217 0.0
H1324 H 0.15353 0.86785 0.87782 0.0
H1325 H 0.13924 0.84592 0.84095 0.0
H1326 H 0.12424 0.82923 0.65858 0.0
H1327 H 0.13718 0.83282 0.73933 0.0
H1328 H 0.15867 0.91966 0.63469 0.0
H1329 H 0.16909 0.92253 0.72131 0.0
H1330 H 0.13289 0.9031 0.58497 0.0
H1331 H 0.12064 0.88105 0.54556 0.0
C1332 C 0.74576 0.86903 0.26374 0.0
C1333 C 0.75253 0.88802 0.24854 0.0
C1334 C 0.76277 0.8837 0.12463 0.0
C1335 C 0.75499 0.86451 0.13852 0.0
N1336 N 0.7344 0.83828 0.2144 0.0
N1337 N 0.76412 0.91254 0.15842 0.0
C1338 C 0.74511 0.85702 0.20602 0.0
C1339 C 0.76007 0.89508 0.17709 0.0
N1340 N 0.74083 0.86249 0.33441 0.0
N1341 N 0.7733 0.8912 0.06268 0.0
H1342 H 0.76167 0.92084 0.19432 0.0
H1343 H 0.768 0.91801 0.10536 0.0
H1344 H 0.77542 0.88327 0.02331 0.0
H1345 H 0.78109 0.90539 0.05313 0.0
H1346 H 0.73805 0.84935 0.3504 0.0
H1347 H 0.74116 0.87065 0.37888 0.0
H1348 H 0.72526 0.83215 0.25843 0.0
H1349 H 0.73298 0.82886 0.17348 0.0
C1350 C 0.14586 0.87276 0.13885 0.0
C1351 C 0.15008 0.8916 0.13891 0.0
C1352 C 0.13537 0.88652 0.26148 0.0
C1353 C 0.12937 0.86725 0.25814 0.0
N1354 N 0.12537 0.84155 0.18268 0.0
N1355 N 0.14397 0.91446 0.19182 0.0
C1356 C 0.13355 0.86021 0.19353 0.0
C1357 C 0.14321 0.89779 0.19757 0.0
N1358 N 0.15438 0.86693 0.08979 0.0
N1359 N 0.13476 0.89446 0.32699 0.0
H1360 H 0.14877 0.9225 0.14399 0.0
H1361 H 0.13785 0.91911 0.23018 0.0
H1362 H 0.1307 0.88722 0.37685 0.0
H1363 H 0.14051 0.90871 0.33363 0.0
H1364 H 0.15342 0.85401 0.0934 0.0
H1365 H 0.16372 0.87541 0.04968 0.0
H1366 H 0.12645 0.83571 0.1331 0.0
H1367 H 0.11596 0.83189 0.2199 0.0
C1368 C 0.13175 0.24556 0.23478 0.0
C1369 C 0.14517 0.26296 0.26577 0.0
C1370 C 0.13831 0.27848 0.16483 0.0
C1371 C 0.1227 0.26131 0.14225 0.0
N1372 N 0.10378 0.22844 0.15984 0.0
N1373 N 0.15831 0.29618 0.26696 0.0
C1374 C 0.11917 0.24482 0.17862 0.0
C1375 C 0.14784 0.27949 0.23213 0.0
N1376 N 0.13152 0.22977 0.25662 0.0
N1377 N 0.14406 0.29402 0.12289 0.0
H1378 H 0.16473 0.29767 0.31823 0.0
H1379 H 0.15888 0.30832 0.24901 0.0
H1380 H 0.13734 0.29441 0.07472 0.0
H1381 H 0.15653 0.30627 0.13281 0.0
H1382 H 0.1232 0.21694 0.23146 0.0
H1383 H 0.14114 0.22985 0.29418 0.0
H1384 H 0.09926 0.21631 0.19011 0.0
H1385 H 0.09491 0.22727 0.11638 0.0
C1386 C 0.883 0.73246 0.41711 0.0
C1387 C 0.89154 0.74708 0.36487 0.0
C1388 C 0.88459 0.76671 0.44597 0.0
C1389 C 0.87512 0.75177 0.49587 0.0
N1390 N 0.8727 0.72357 0.54375 0.0
N1391 N 0.90646 0.78001 0.34442 0.0
C1392 C 0.87685 0.73572 0.48661 0.0
C1393 C 0.8942 0.76483 0.38401 0.0
N1394 N 0.87962 0.71513 0.39905 0.0
N1395 N 0.88426 0.78271 0.45778 0.0
H1396 H 0.91446 0.77926 0.30151 0.0
H1397 H 0.91022 0.79352 0.35905 0.0
H1398 H 0.87894 0.78505 0.5064 0.0
H1399 H 0.88869 0.79328 0.41888 0.0
H1400 H 0.87176 0.70354 0.43187 0.0
H1401 H 0.88332 0.7119 0.34842 0.0
H1402 H 0.87526 0.71256 0.542 0.0
H1403 H 0.8688 0.72563 0.59604 0.0
C1404 C 0.26199 0.13477 0.51082 0.0
C1405 C 0.26809 0.12204 0.49416 0.0
C1406 C 0.27535 0.13427 0.36648 0.0
C1407 C 0.27084 0.14808 0.38467 0.0
N1408 N 0.26264 0.16335 0.47853 0.0
N1409 N 0.28558 0.11362 0.41103 0.0
C1410 C 0.2649 0.14883 0.45816 0.0
C1411 C 0.27619 0.12293 0.42341 0.0
N1412 N 0.25287 0.13307 0.57581 0.0
N1413 N 0.27796 0.13123 0.29408 0.0
H1414 H 0.28738 0.10576 0.45128 0.0
H1415 H 0.29349 0.1155 0.36369 0.0
H1416 H 0.27699 0.13876 0.24995 0.0
H1417 H 0.27915 0.11992 0.27708 0.0
H1418 H 0.24629 0.14058 0.58801 0.0
H1419 H 0.2506 0.12302 0.61526 0.0
H1420 H 0.2602 0.16579 0.53285 0.0
H1421 H 0.26493 0.17394 0.44214 0.0
C1422 C 0.89467 0.1329 0.35383 0.0
C1423 C 0.87513 0.12597 0.3574 0.0
C1424 C 0.88042 0.14398 0.47256 0.0
C1425 C 0.89954 0.14874 0.47423 0.0
N1426 N 0.92349 0.14389 0.42247 0.0
N1427 N 0.84918 0.12205 0.43116 0.0
C1428 C 0.9062 0.14196 0.41672 0.0
C1429 C 0.86793 0.13063 0.42004 0.0
N1430 N 0.90255 0.13189 0.28885 0.0
N1431 N 0.87422 0.15301 0.51715 0.0
H1432 H 0.83951 0.11209 0.39514 0.0
H1433 H 0.84337 0.12351 0.48006 0.0
H1434 H 0.88271 0.16368 0.55335 0.0
H1435 H 0.86098 0.15138 0.51184 0.0
H1436 H 0.91689 0.13824 0.28146 0.0
H1437 H 0.895 0.12678 0.23968 0.0
H1438 H 0.92839 0.13772 0.38543 0.0
H1439 H 0.93206 0.14988 0.46868 0.0
C1440 C 0.95212 0.48045 0.21077 0.0
C1441 C 0.94154 0.46091 0.21812 0.0
C1442 C 0.92855 0.46505 0.33593 0.0
C1443 C 0.93999 0.48452 0.33033 0.0
N1444 N 0.96612 0.51038 0.27106 0.0
N1445 N 0.92184 0.43458 0.2943 0.0
C1446 C 0.9528 0.49206 0.27035 0.0
C1447 C 0.93036 0.45322 0.28273 0.0
N1448 N 0.96066 0.48811 0.14504 0.0
N1449 N 0.91546 0.45786 0.39047 0.0
H1450 H 0.92282 0.42559 0.25698 0.0
H1451 H 0.91515 0.42822 0.34337 0.0
H1452 H 0.91405 0.4661 0.43058 0.0
H1453 H 0.90518 0.44397 0.39304 0.0
H1454 H 0.96661 0.50217 0.13345 0.0
H1455 H 0.96026 0.48032 0.09911 0.0
H1456 H 0.97715 0.51619 0.23386 0.0
H1457 H 0.96733 0.5194 0.31343 0.0
C1458 C 0.54509 0.44669 0.27065 0.0
C1459 C 0.53883 0.45341 0.32973 0.0
C1460 C 0.55661 0.48476 0.27533 0.0
C1461 C 0.55993 0.47724 0.2102 0.0
N1462 N 0.55409 0.44988 0.14174 0.0
N1463 N 0.53752 0.47946 0.38364 0.0
C1464 C 0.55337 0.45789 0.20692 0.0
C1465 C 0.54444 0.47266 0.33136 0.0
N1466 N 0.54357 0.42968 0.2764 0.0
N1467 N 0.56555 0.50351 0.28522 0.0
H1468 H 0.52885 0.47167 0.42661 0.0
H1469 H 0.53917 0.49267 0.38077 0.0
H1470 H 0.57457 0.51282 0.24614 0.0
H1471 H 0.56544 0.50976 0.33515 0.0
H1472 H 0.54925 0.42458 0.23795 0.0
H1473 H 0.53869 0.42177 0.3245 0.0
H1474 H 0.54784 0.4356 0.1346 0.0
H1475 H 0.55904 0.45726 0.09253 0.0
C1476 C 0.53636 0.07174 0.26022 0.0
C1477 C 0.54402 0.08273 0.19574 0.0
C1478 C 0.57497 0.09688 0.25545 0.0
C1479 C 0.56778 0.08395 0.31445 0.0
N1480 N 0.5415 0.05532 0.35903 0.0
N1481 N 0.57196 0.10204 0.12563 0.0
C1482 C 0.54841 0.07037 0.31341 0.0
C1483 C 0.56371 0.09432 0.19163 0.0
N1484 N 0.51765 0.06292 0.27247 0.0
N1485 N 0.59251 0.1118 0.26039 0.0
H1486 H 0.5646 0.09921 0.07582 0.0
H1487 H 0.58635 0.10925 0.11868 0.0
H1488 H 0.60088 0.11455 0.30739 0.0
H1489 H 0.59783 0.12246 0.22159 0.0
H1490 H 0.51172 0.05631 0.32232 0.0
H1491 H 0.50829 0.06386 0.23669 0.0
H1492 H 0.52793 0.04428 0.35439 0.0
H1493 H 0.54964 0.05259 0.39507 0.0
C1494 C 0.7985 0.6066 0.02165 0.0
C1495 C 0.79196 0.59341 0.07991 0.0
C1496 C 0.80494 0.57644 0.01425 0.0
C1497 C 0.81394 0.59111 0.96279 0.0
N1498 N 0.82233 0.62255 0.9298 0.0
N1499 N 0.79273 0.56771 0.13837 0.0
C1500 C 0.81146 0.60681 0.96933 0.0
C1501 C 0.79608 0.57875 0.0778 0.0
N1502 N 0.79203 0.6187 0.01457 0.0
N1503 N 0.80476 0.56018 1.00222 0.0
H1504 H 0.78758 0.56965 0.18813 0.0
H1505 H 0.79713 0.55802 0.14225 0.0
H1506 H 0.8108 0.55798 0.95553 0.0
H1507 H 0.797 0.54838 0.03416 0.0
H1508 H 0.79494 0.62729 0.9687 0.0
H1509 H 0.7822 0.61876 0.05013 0.0
H1510 H 0.82247 0.63494 0.93941 0.0
H1511 H 0.8326 0.624 0.89308 0.0
C1512 C 0.43623 0.21763 0.08267 0.0
C1513 C 0.42269 0.19843 0.08223 0.0
C1514 C 0.41165 0.20283 0.96029 0.0
C1515 C 0.42596 0.22192 0.95982 0.0
N1516 N 0.4559 0.24443 1.008 0.0
N1517 N 0.40117 0.17203 0.00902 0.0
C1518 C 0.43956 0.22825 0.01697 0.0
C1519 C 0.41148 0.1908 0.01758 0.0
N1520 N 0.4452 0.22622 0.14694 0.0
N1521 N 0.39772 0.19606 0.90851 0.0
H1522 H 0.40099 0.16278 0.04819 0.0
H1523 H 0.39438 0.16566 0.9597 0.0
H1524 H 0.39735 0.20346 0.86294 0.0
H1525 H 0.38572 0.18317 0.91337 0.0
H1526 H 0.45399 0.2405 0.15086 0.0
H1527 H 0.44213 0.21957 0.19813 0.0
H1528 H 0.46696 0.24903 0.04538 0.0
H1529 H 0.45905 0.25198 0.95878 0.0
C1530 C 0.80146 0.21382 0.97093 0.0
C1531 C 0.78932 0.19503 0.99061 0.0
C1532 C 0.80277 0.20208 0.11735 0.0
C1533 C 0.81621 0.22023 0.09521 0.0
N1534 N 0.83001 0.2426 0.9974 0.0
N1535 N 0.78169 0.17052 0.08009 0.0
C1536 C 0.81601 0.22586 0.0209 0.0
C1537 C 0.79082 0.18896 0.06324 0.0
N1538 N 0.79861 0.22045 0.90588 0.0
N1539 N 0.8009 0.19742 0.1908 0.0
H1540 H 0.77381 0.16008 0.04206 0.0
H1541 H 0.78386 0.16532 0.12929 0.0
H1542 H 0.80941 0.2064 0.23238 0.0
H1543 H 0.78982 0.18523 0.21135 0.0
H1544 H 0.80574 0.2344 0.89165 0.0
H1545 H 0.7878 0.21229 0.86928 0.0
H1546 H 0.83184 0.24679 0.94221 0.0
H1547 H 0.84085 0.2516 0.03217 0.0
C1548 C 0.4285 0.21542 0.46651 0.0
C1549 C 0.41712 0.19594 0.47293 0.0
C1550 C 0.40567 0.20022 0.59369 0.0
C1551 C 0.41628 0.21975 0.58587 0.0
N1552 N 0.43518 0.24592 0.50775 0.0
N1553 N 0.39101 0.17029 0.53335 0.0
C1554 C 0.42692 0.22732 0.52002 0.0
C1555 C 0.40453 0.18853 0.53367 0.0
N1556 N 0.44136 0.22255 0.41112 0.0
N1557 N 0.39756 0.19263 0.66013 0.0
H1558 H 0.38935 0.16122 0.4904 0.0
H1559 H 0.38019 0.16462 0.57155 0.0
H1560 H 0.39829 0.20045 0.70645 0.0
H1561 H 0.39164 0.17856 0.67164 0.0
H1562 H 0.45155 0.23646 0.40792 0.0
H1563 H 0.4427 0.21427 0.371 0.0
H1564 H 0.44155 0.25218 0.45806 0.0
H1565 H 0.43416 0.25491 0.54504 0.0
C1566 C 0.80086 0.19482 0.53046 0.0
C1567 C 0.79434 0.20152 0.58895 0.0
C1568 C 0.80638 0.23106 0.52153 0.0
C1569 C 0.8153 0.22538 0.46945 0.0
N1570 N 0.82368 0.20248 0.43395 0.0
N1571 N 0.79441 0.2278 0.64616 0.0
C1572 C 0.81317 0.20738 0.4761 0.0
C1573 C 0.79794 0.2201 0.58585 0.0
N1574 N 0.7949 0.17635 0.52496 0.0
N1575 N 0.80583 0.24691 0.50907 0.0
H1576 H 0.78941 0.22081 0.69613 0.0
H1577 H 0.79845 0.24178 0.64951 0.0
H1578 H 0.81156 0.25494 0.46171 0.0
H1579 H 0.7981 0.25098 0.54137 0.0
H1580 H 0.79763 0.17049 0.47903 0.0
H1581 H 0.78568 0.1666 0.56233 0.0
H1582 H 0.82435 0.1905 0.44342 0.0
H1583 H 0.83301 0.211 0.39387 0.0
C1584 C 0.79525 0.58126 0.58673 0.0
C1585 C 0.81454 0.59487 0.5863 0.0
C1586 C 0.80855 0.60932 0.4787 0.0
C1587 C 0.78981 0.59434 0.47333 0.0
N1588 N 0.76714 0.56371 0.51375 0.0
N1589 N 0.84006 0.61915 0.51834 0.0
C1590 C 0.78377 0.57956 0.52464 0.0
C1591 C 0.82136 0.60805 0.52811 0.0
N1592 N 0.78746 0.57066 0.64827 0.0
N1593 N 0.81398 0.62542 0.44119 0.0
H1594 H 0.84992 0.61833 0.55154 0.0
H1595 H 0.84569 0.6277 0.47234 0.0
H1596 H 0.80498 0.62779 0.40901 0.0
H1597 H 0.8269 0.63726 0.44936 0.0
H1598 H 0.77318 0.56179 0.65363 0.0
H1599 H 0.79481 0.57238 0.69742 0.0
H1600 H 0.76283 0.55188 0.54584 0.0
H1601 H 0.75869 0.56169 0.46764 0.0
C1602 C 0.54051 0.09632 0.7556 0.0
C1603 C 0.53739 0.08561 0.8208 0.0
C1604 C 0.55854 0.07535 0.77102 0.0
C1605 C 0.55932 0.08384 0.70185 0.0
N1606 N 0.54782 0.09961 0.62464 0.0
N1607 N 0.54172 0.06236 0.88458 0.0
C1608 C 0.54948 0.09364 0.69328 0.0
C1609 C 0.54606 0.07455 0.8273 0.0
N1610 N 0.5353 0.10947 0.7538 0.0
N1611 N 0.57014 0.06847 0.78434 0.0
H1612 H 0.53274 0.06082 0.92747 0.0
H1613 H 0.54571 0.05234 0.88601 0.0
H1614 H 0.57926 0.06851 0.74486 0.0
H1615 H 0.57193 0.06428 0.83666 0.0
H1616 H 0.5387 0.11887 0.71052 0.0
H1617 H 0.52947 0.11237 0.79941 0.0
H1618 H 0.53922 0.10512 0.61379 0.0
H1619 H 0.55336 0.09722 0.57687 0.0
C1620 C 0.92996 0.4661 0.84372 0.0
C1621 C 0.93953 0.45623 0.83175 0.0
C1622 C 0.94949 0.47106 0.7087 0.0
C1623 C 0.94098 0.48189 0.72242 0.0
N1624 N 0.92605 0.4921 0.80973 0.0
N1625 N 0.96254 0.45329 0.76022 0.0
C1626 C 0.93204 0.48006 0.79196 0.0
C1627 C 0.9505 0.4599 0.76642 0.0
N1628 N 0.91835 0.4617 0.90311 0.0
N1629 N 0.95576 0.47053 0.63921 0.0
H1630 H 0.96419 0.44545 0.80119 0.0
H1631 H 0.97239 0.45729 0.71822 0.0
H1632 H 0.95513 0.47817 0.59475 0.0
H1633 H 0.95998 0.46116 0.62379 0.0
H1634 H 0.90933 0.46683 0.91073 0.0
H1635 H 0.91665 0.45172 0.94197 0.0
H1636 H 0.92111 0.49282 0.86191 0.0
H1637 H 0.92778 0.50266 0.77432 0.0
C1638 C 0.53132 0.46345 0.76133 0.0
C1639 C 0.53843 0.45818 0.70022 0.0
C1640 C 0.56918 0.47342 0.76201 0.0
C1641 C 0.56285 0.48122 0.81673 0.0
N1642 N 0.538 0.48681 0.85434 0.0
N1643 N 0.56595 0.46308 0.63484 0.0
C1644 C 0.54391 0.47703 0.81295 0.0
C1645 C 0.55787 0.46448 0.69855 0.0
N1646 N 0.51258 0.45525 0.77185 0.0
N1647 N 0.58591 0.47423 0.77088 0.0
H1648 H 0.55871 0.45828 0.58488 0.0
H1649 H 0.58029 0.46893 0.62923 0.0
H1650 H 0.59417 0.47986 0.81815 0.0
H1651 H 0.59044 0.46739 0.73562 0.0
H1652 H 0.50681 0.45731 0.81968 0.0
H1653 H 0.50286 0.44496 0.737 0.0
H1654 H 0.52491 0.48547 0.84749 0.0
H1655 H 0.54668 0.49775 0.88891 0.0
C1656 C 0.58787 0.80155 0.61561 0.0
C1657 C 0.6023 0.8105 0.66876 0.0
C1658 C 0.61878 0.79619 0.60815 0.0
C1659 C 0.60579 0.78986 0.54826 0.0
N1660 N 0.58034 0.79125 0.48848 0.0
N1661 N 0.63372 0.81905 0.70549 0.0
C1662 C 0.59091 0.79376 0.55038 0.0
C1663 C 0.61835 0.80849 0.66265 0.0
N1664 N 0.57108 0.80033 0.62775 0.0
N1665 N 0.6312 0.79008 0.61499 0.0
H1666 H 0.63445 0.82851 0.74496 0.0
H1667 H 0.64641 0.81963 0.69689 0.0
H1668 H 0.63172 0.78073 0.57813 0.0
H1669 H 0.63966 0.79281 0.66162 0.0
H1670 H 0.5595 0.7926 0.59391 0.0
H1671 H 0.5683 0.80536 0.67621 0.0
H1672 H 0.57043 0.79541 0.4856 0.0
H1673 H 0.58306 0.7873 0.43728 0.0
C1674 C 0.21533 0.78048 0.60987 0.0
C1675 C 0.2091 0.78727 0.66878 0.0
C1676 C 0.22653 0.81846 0.61287 0.0
C1677 C 0.22966 0.81078 0.54778 0.0
N1678 N 0.22385 0.78328 0.48051 0.0
N1679 N 0.20786 0.81343 0.72215 0.0
C1680 C 0.22329 0.79147 0.54544 0.0
C1681 C 0.21461 0.8065 0.66974 0.0
N1682 N 0.21399 0.76356 0.61633 0.0
N1683 N 0.23539 0.83723 0.62193 0.0
H1684 H 0.19952 0.80587 0.76622 0.0
H1685 H 0.20934 0.82657 0.71857 0.0
H1686 H 0.24416 0.84646 0.58213 0.0
H1687 H 0.23547 0.84361 0.67179 0.0
H1688 H 0.21965 0.75842 0.57795 0.0
H1689 H 0.20926 0.75577 0.66481 0.0
H1690 H 0.21772 0.76899 0.47419 0.0
H1691 H 0.22852 0.79049 0.43078 0.0
C1692 C 0.23171 0.43401 0.62207 0.0
C1693 C 0.23032 0.41764 0.65115 0.0
C1694 C 0.20706 0.39937 0.55475 0.0
C1695 C 0.20764 0.41564 0.52754 0.0
N1696 N 0.21696 0.44773 0.55047 0.0
N1697 N 0.21259 0.38432 0.65852 0.0
C1698 C 0.21891 0.43276 0.56585 0.0
C1699 C 0.21658 0.4002 0.62201 0.0
N1700 N 0.24548 0.4508 0.64708 0.0
N1701 N 0.1987 0.38336 0.5141 0.0
H1702 H 0.21901 0.38438 0.70828 0.0
H1703 H 0.20158 0.37135 0.64366 0.0
H1704 H 0.19234 0.38213 0.4629 0.0
H1705 H 0.1998 0.3718 0.52746 0.0
H1706 H 0.24866 0.46329 0.62203 0.0
H1707 H 0.25448 0.45211 0.69025 0.0
H1708 H 0.22351 0.45998 0.58107 0.0
H1709 H 0.20724 0.44724 0.51249 0.0
C1710 C 0.49035 0.94328 0.34129 0.0
C1711 C 0.48568 0.92564 0.31186 0.0
C1712 C 0.4596 0.91137 0.39937 0.0
C1713 C 0.46643 0.92862 0.43744 0.0
N1714 N 0.49099 0.96051 0.45026 0.0
N1715 N 0.4666 0.89255 0.31696 0.0
C1716 C 0.48243 0.94452 0.40951 0.0
C1717 C 0.47048 0.90956 0.34205 0.0
N1718 N 0.50245 0.95896 0.3041 0.0
N1719 N 0.44238 0.89691 0.41573 0.0
H1720 H 0.47381 0.89088 0.27309 0.0
H1721 H 0.45705 0.88023 0.34251 0.0
H1722 H 0.43356 0.89799 0.4539 0.0
H1723 H 0.43605 0.88457 0.38562 0.0
H1724 H 0.50518 0.97214 0.31958 0.0
H1725 H 0.5081 0.95858 0.25314 0.0
H1726 H 0.50383 0.97177 0.43602 0.0
H1727 H 0.48646 0.96189 0.5024 0.0
C1728 C 0.10232 0.55019 0.41826 0.0
C1729 C 0.08822 0.53119 0.41824 0.0
C1730 C 0.07733 0.5361 0.29678 0.0
C1731 C 0.09214 0.55498 0.29603 0.0
N1732 N 0.12245 0.57675 0.34327 0.0
N1733 N 0.06544 0.50516 0.3468 0.0
C1734 C 0.10582 0.5609 0.35272 0.0
C1735 C 0.07663 0.52387 0.35434 0.0
N1736 N 0.11174 0.55851 0.48213 0.0
N1737 N 0.06347 0.52977 0.24478 0.0
H1738 H 0.06463 0.49578 0.38675 0.0
H1739 H 0.05834 0.49884 0.29793 0.0
H1740 H 0.06356 0.53731 0.1989 0.0
H1741 H 0.05114 0.51716 0.24955 0.0
H1742 H 0.12097 0.57272 0.48611 0.0
H1743 H 0.10869 0.55178 0.53315 0.0
H1744 H 0.13358 0.581 0.38008 0.0
H1745 H 0.1257 0.58435 0.29417 0.0
C1746 C 0.47982 0.53547 0.41662 0.0
C1747 C 0.48956 0.55502 0.40866 0.0
C1748 C 0.47402 0.5513 0.28665 0.0
C1749 C 0.46496 0.53179 0.29381 0.0
N1750 N 0.46346 0.50553 0.35652 0.0
N1751 N 0.49856 0.58139 0.32943 0.0
C1752 C 0.46923 0.524 0.35595 0.0
C1753 C 0.48742 0.56287 0.34152 0.0
N1754 N 0.47953 0.5277 0.48373 0.0
N1755 N 0.46935 0.55877 0.22885 0.0
H1756 H 0.50858 0.5901 0.36762 0.0
H1757 H 0.49908 0.58781 0.27931 0.0
H1758 H 0.46003 0.55066 0.18725 0.0
H1759 H 0.47376 0.57281 0.22447 0.0
H1760 H 0.47081 0.51371 0.49507 0.0
H1761 H 0.48658 0.53537 0.53057 0.0
H1762 H 0.46787 0.49941 0.39588 0.0
H1763 H 0.45588 0.49669 0.31317 0.0
C1764 C 0.0943 0.55158 0.79142 0.0
C1765 C 0.08726 0.53251 0.80602 0.0
C1766 C 0.07841 0.53696 0.9322 0.0
C1767 C 0.08451 0.55581 0.91654 0.0
N1768 N 0.09494 0.58009 0.82581 0.0
N1769 N 0.06779 0.50626 0.88388 0.0
C1770 C 0.09149 0.56281 0.84441 0.0
C1771 C 0.07789 0.525 0.87449 0.0
N1772 N 0.10427 0.55913 0.72828 0.0
N1773 N 0.07404 0.53056 1.00328 0.0
H1774 H 0.06649 0.49687 0.84308 0.0
H1775 H 0.05897 0.50001 0.92873 0.0
H1776 H 0.07427 0.53867 0.04772 0.0
H1777 H 0.07183 0.51763 0.01951 0.0
H1778 H 0.11154 0.57329 0.71783 0.0
H1779 H 0.10643 0.5513 0.68857 0.0
H1780 H 0.09839 0.5855 0.7725 0.0
H1781 H 0.09248 0.58829 0.86232 0.0
C1782 C 0.46446 0.52346 0.84209 0.0
C1783 C 0.46077 0.53077 0.90707 0.0
C1784 C 0.47385 0.56092 0.84423 0.0
C1785 C 0.48099 0.55482 0.78623 0.0
N1786 N 0.4833 0.52929 0.73242 0.0
N1787 N 0.46574 0.55808 0.97383 0.0
C1788 C 0.47619 0.53575 0.7852 0.0
C1789 C 0.46638 0.54993 0.90895 0.0
N1790 N 0.45625 0.50473 0.83305 0.0
N1791 N 0.47398 0.57726 0.83698 0.0
H1792 H 0.46184 0.55106 0.02421 0.0
H1793 H 0.47127 0.57233 0.97928 0.0
H1794 H 0.4786 0.58516 0.78869 0.0
H1795 H 0.46757 0.58173 0.87475 0.0
H1796 H 0.45663 0.4985 0.78344 0.0
H1797 H 0.44753 0.49532 0.87256 0.0
H1798 H 0.48245 0.51642 0.73595 0.0
H1799 H 0.49108 0.53697 0.68745 0.0
C1800 C 0.47814 0.94442 0.93799 0.0
C1801 C 0.48442 0.9314 0.93797 0.0
C1802 C 0.46691 0.91788 0.82086 0.0
C1803 C 0.45901 0.92949 0.82571 0.0
N1804 N 0.4569 0.95387 0.88944 0.0
N1805 N 0.48471 0.90547 0.87995 0.0
C1806 C 0.46471 0.94286 0.88414 0.0
C1807 C 0.47884 0.91813 0.87919 0.0
N1808 N 0.48492 0.95831 0.9898 0.0
N1809 N 0.46308 0.9067 0.7601 0.0
H1810 H 0.49445 0.90603 0.91801 0.0
H1811 H 0.47948 0.89399 0.84505 0.0
H1812 H 0.4539 0.90571 0.7183 0.0
H1813 H 0.4698 0.8993 0.74828 0.0
H1814 H 0.48304 0.96973 0.98715 0.0
H1815 H 0.49354 0.95925 0.03362 0.0
H1816 H 0.45815 0.96193 0.93558 0.0
H1817 H 0.44824 0.95437 0.84891 0.0
C1818 C 0.21398 0.43366 0.09324 0.0
C1819 C 0.20656 0.42008 0.1496 0.0
C1820 C 0.22232 0.40474 0.09175 0.0
C1821 C 0.22731 0.41676 0.02954 0.0
N1822 N 0.22294 0.43971 0.9646 0.0
N1823 N 0.20051 0.38999 0.1918 0.0
C1824 C 0.22183 0.43047 0.02862 0.0
C1825 C 0.20993 0.4049 0.1463 0.0
N1826 N 0.21373 0.44979 0.10179 0.0
N1827 N 0.22977 0.39352 0.10061 0.0
H1828 H 0.19089 0.38897 0.23109 0.0
H1829 H 0.20091 0.37777 0.18544 0.0
H1830 H 0.23913 0.39314 0.06341 0.0
H1831 H 0.22808 0.38597 0.14886 0.0
H1832 H 0.22031 0.46087 0.06524 0.0
H1833 H 0.20884 0.45279 0.15007 0.0
H1834 H 0.21761 0.44863 0.95965 0.0
H1835 H 0.22691 0.43671 0.91403 0.0
C1836 C 0.59654 0.79777 0.17143 0.0
C1837 C 0.60594 0.78774 0.15951 0.0
C1838 C 0.61593 0.80238 0.03624 0.0
C1839 C 0.60754 0.81332 0.04976 0.0
N1840 N 0.59257 0.82369 0.13623 0.0
N1841 N 0.6287 0.78439 0.08793 0.0
C1842 C 0.59861 0.81164 0.11921 0.0
C1843 C 0.61684 0.79121 0.0941 0.0
N1844 N 0.58507 0.79359 0.2312 0.0
N1845 N 0.62214 0.80172 0.96676 0.0
H1846 H 0.63022 0.77647 0.12889 0.0
H1847 H 0.63853 0.78827 0.04593 0.0
H1848 H 0.62158 0.80935 0.92214 0.0
H1849 H 0.62622 0.79224 0.95148 0.0
H1850 H 0.57617 0.79885 0.23903 0.0
H1851 H 0.58338 0.78369 0.27041 0.0
H1852 H 0.58766 0.82455 0.18827 0.0
H1853 H 0.59413 0.83406 0.10009 0.0
C1854 C 0.20153 0.79785 0.1001 0.0
C1855 C 0.20869 0.79323 0.03723 0.0
C1856 C 0.23978 0.80922 0.0964 0.0
C1857 C 0.2332 0.81607 0.15396 0.0
N1858 N 0.20785 0.82035 0.19668 0.0
N1859 N 0.23614 0.79942 0.96822 0.0
C1860 C 0.21406 0.81128 0.15237 0.0
C1861 C 0.22825 0.80025 0.03343 0.0
N1862 N 0.1828 0.78915 0.11167 0.0
N1863 N 0.25699 0.81095 0.10216 0.0
H1864 H 0.22861 0.79447 0.91894 0.0
H1865 H 0.25048 0.80581 0.96088 0.0
H1866 H 0.26552 0.81673 0.14864 0.0
H1867 H 0.2618 0.80475 0.06487 0.0
H1868 H 0.17703 0.79062 0.16068 0.0
H1869 H 0.17313 0.77906 0.07601 0.0
H1870 H 0.19457 0.81863 0.19143 0.0
H1871 H 0.21634 0.83114 0.23235 0.0
C1872 C 0.21396 0.21641 0.33043 0.0
C1873 C 0.22321 0.236 0.33918 0.0
C1874 C 0.25163 0.23784 0.28559 0.0
C1875 C 0.24281 0.21816 0.28221 0.0
N1876 N 0.21608 0.18862 0.30884 0.0
N1877 N 0.25174 0.26523 0.33335 0.0
C1878 C 0.22409 0.20745 0.30676 0.0
C1879 C 0.24228 0.24665 0.3187 0.0
N1880 N 0.19528 0.20636 0.34349 0.0
N1881 N 0.26891 0.24822 0.25545 0.0
H1882 H 0.24532 0.27226 0.35458 0.0
H1883 H 0.2661 0.27349 0.32888 0.0
H1884 H 0.27654 0.24242 0.23432 0.0
H1885 H 0.27524 0.26244 0.24715 0.0
H1886 H 0.18709 0.1923 0.33176 0.0
H1887 H 0.1876 0.21247 0.36073 0.0
H1888 H 0.20323 0.17989 0.33281 0.0
H1889 H 0.22299 0.18173 0.29148 0.0
C1890 C 0.78039 0.01527 0.30269 0.0
C1891 C 0.79975 0.02465 0.28609 0.0
C1892 C 0.80168 0.99864 0.34436 0.0
C1893 C 0.78204 0.98856 0.35508 0.0
N1894 N 0.75243 0.98669 0.33793 0.0
N1895 N 0.82846 0.02416 0.28417 0.0
C1896 C 0.77136 0.99676 0.33232 0.0
C1897 C 0.81028 0.01603 0.30544 0.0
N1898 N 0.77068 0.02432 0.29166 0.0
N1899 N 0.81225 0.99176 0.37292 0.0
H1900 H 0.83535 0.03702 0.25812 0.0
H1901 H 0.83641 0.01772 0.28794 0.0
H1902 H 0.8065 0.97886 0.39856 0.0
H1903 H 0.82671 0.99926 0.37557 0.0
H1904 H 0.75705 0.01929 0.30895 0.0
H1905 H 0.77682 0.03772 0.27048 0.0
H1906 H 0.74351 0.99079 0.3154 0.0
H1907 H 0.74547 0.97342 0.36057 0.0
C1908 C 0.99606 0.77254 0.35022 0.0
C1909 C 0.99446 0.77703 0.27564 0.0
C1910 C 0.02764 0.8026 0.28601 0.0
C1911 C 0.02956 0.79597 0.35664 0.0
N1912 N 1.01009 0.78771 0.46463 0.0
N1913 N 1.009 0.79871 0.17533 0.0
C1914 C 1.01227 0.78445 0.39247 0.0
C1915 C 1.01041 0.79272 0.24417 0.0
N1916 N 0.98233 0.75685 0.38199 0.0
N1917 N 0.04066 0.82011 0.26594 0.0
H1918 H 0.9963 0.79407 0.14829 0.0
H1919 H 0.02046 0.80795 0.14432 0.0
H1920 H 0.05074 0.82911 0.30345 0.0
H1921 H 0.03991 0.82671 0.21823 0.0
H1922 H 0.98366 0.75297 0.4357 0.0
H1923 H 0.97074 0.74703 0.35244 0.0
H1924 H 0.99731 0.78056 0.49162 0.0
H1925 H 0.02024 0.79946 0.49229 0.0
C1926 C 0.78228 0.76454 0.80881 0.0
C1927 C 0.79991 0.7751 0.77402 0.0
C1928 C 0.7995 0.80383 0.8086 0.0
C1929 C 0.78149 0.79325 0.84023 0.0
N1930 N 0.75469 0.7634 0.86189 0.0
N1931 N 0.82425 0.80488 0.73288 0.0
C1932 C 0.77264 0.77354 0.83793 0.0
C1933 C 0.80816 0.79477 0.7717 0.0
N1934 N 0.77474 0.7458 0.81441 0.0
N1935 N 0.8087 0.82266 0.81626 0.0
H1936 H 0.83165 0.79908 0.70956 0.0
H1937 H 0.82978 0.81882 0.72012 0.0
H1938 H 0.80265 0.82976 0.84014 0.0
H1939 H 0.82266 0.8312 0.80324 0.0
H1940 H 0.76302 0.73732 0.84567 0.0
H1941 H 0.78096 0.73876 0.7915 0.0
H1942 H 0.74654 0.74912 0.85581 0.0
H1943 H 0.74733 0.7695 0.88296 0.0
C1944 C 0.21877 1.00199 0.87072 0.0
C1945 C 0.22622 0.98992 0.86317 0.0
C1946 C 0.25262 0.01471 0.79257 0.0
C1947 C 0.24438 0.02615 0.7951 0.0
N1948 N 0.21847 0.02973 0.83031 0.0
N1949 N 0.24987 0.9845 0.81292 0.0
C1950 C 0.22719 0.01953 0.83295 0.0
C1951 C 0.24305 0.99625 0.82277 0.0
N1952 N 0.20366 0.9968 0.91517 0.0
N1953 N 0.26999 0.0218 0.76294 0.0
H1954 H 0.24379 0.97139 0.83677 0.0
H1955 H 0.26079 0.98715 0.77758 0.0
H1956 H 0.27733 0.03513 0.74109 0.0
H1957 H 0.27782 0.01522 0.76504 0.0
H1958 H 0.19894 1.0057 0.93144 0.0
H1959 H 0.19637 0.98377 0.93965 0.0
H1960 H 0.20491 0.02489 0.84824 0.0
H1961 H 0.2244 0.04276 0.80573 0.0
C1962 C 1.00226 0.23638 0.79341 0.0
C1963 C 0.99333 0.21717 0.77552 0.0
C1964 C 0.02265 0.21752 0.80843 0.0
C1965 C 0.03113 0.2364 0.831 0.0
N1966 N 0.02804 0.2632 0.8532 0.0
N1967 N 0.99441 0.18894 0.77356 0.0
C1968 C 0.02062 0.24562 0.82562 0.0
C1969 C 1.00342 0.20763 0.78521 0.0
N1970 N 0.9934 0.24604 0.77731 0.0
N1971 N 0.03316 0.20911 0.80821 0.0
H1972 H 0.98052 0.18144 0.75664 0.0
H1973 H 1.00008 0.1806 0.78586 0.0
H1974 H 0.04706 0.2159 0.82514 0.0
H1975 H 0.0287 0.196 0.7862 0.0
H1976 H 0.99984 0.26041 0.77972 0.0
H1977 H 0.97981 0.23975 0.75696 0.0
H1978 H 0.02043 0.2699 0.8605 0.0
H1979 H 0.04168 0.27079 0.87293 0.0
C1980 C 0.92046 0.57139 0.65406 0.0
C1981 C 0.91054 0.55349 0.62084 0.0
C1982 C 0.88092 0.55278 0.65092 0.0
C1983 C 0.89087 0.57106 0.68058 0.0
N1984 N 0.92024 0.59873 0.70123 0.0
N1985 N 0.88121 0.52813 0.57923 0.0
C1986 C 0.9107 0.58058 0.6796 0.0
C1987 C 0.89073 0.54452 0.61694 0.0
N1988 N 0.93933 0.5796 0.66169 0.0
N1989 N 0.86201 0.54297 0.65766 0.0
H1990 H 0.88764 0.52114 0.55764 0.0
H1991 H 0.86716 0.52195 0.56559 0.0
H1992 H 0.85438 0.54869 0.67952 0.0
H1993 H 0.85395 0.5289 0.64598 0.0
H1994 H 0.94741 0.59165 0.69213 0.0
H1995 H 0.94689 0.57361 0.64175 0.0
H1996 H 0.93454 0.60726 0.69563 0.0
H1997 H 0.9136 0.60582 0.71947 0.0
C1998 C 0.46469 0.32807 0.65089 0.0
C1999 C 0.44716 0.32101 0.68643 0.0
C2000 C 0.44786 0.35052 0.65682 0.0
C2001 C 0.46491 0.35716 0.6178 0.0
N2002 N 0.48838 0.35108 0.56996 0.0
N2003 N 0.42088 0.32461 0.71484 0.0
C2004 C 0.47293 0.34554 0.6127 0.0
C2005 C 0.43848 0.33207 0.68712 0.0
N2006 N 0.4739 0.31836 0.65602 0.0
N2007 N 0.44062 0.36196 0.66522 0.0
H2008 H 0.41369 0.31129 0.73689 0.0
H2009 H 0.41279 0.33087 0.71097 0.0
H2010 H 0.44664 0.37509 0.64162 0.0
H2011 H 0.42943 0.35906 0.69943 0.0
H2012 H 0.48763 0.32356 0.63975 0.0
H2013 H 0.46818 0.30542 0.68129 0.0
H2014 H 0.49357 0.34245 0.55531 0.0
H2015 H 0.49551 0.36409 0.54528 0.0
C2016 C 0.67043 0.12866 0.62802 0.0
C2017 C 0.66027 0.10902 0.62035 0.0
C2018 C 0.68728 0.10792 0.67438 0.0
C2019 C 0.69789 0.12763 0.67741 0.0
N2020 N 0.7002 0.15685 0.64951 0.0
N2021 N 0.66009 0.08012 0.62735 0.0
C2022 C 0.6896 0.13799 0.6519 0.0
C2023 C 0.66901 0.09873 0.64137 0.0
N2024 N 0.66153 0.13838 0.61385 0.0
N2025 N 0.69453 0.09787 0.7047 0.0
H2026 H 0.64657 0.07281 0.60621 0.0
H2027 H 0.66642 0.0721 0.6322 0.0
H2028 H 0.70811 0.10393 0.72511 0.0
H2029 H 0.68682 0.08366 0.71358 0.0
H2030 H 0.66725 0.15245 0.62466 0.0
H2031 H 0.64768 0.13199 0.59645 0.0
H2032 H 0.69588 0.16536 0.6251 0.0
H2033 H 0.71405 0.16399 0.66714 0.0
C2034 C 0.46097 0.13532 0.12982 0.0
C2035 C 0.45113 0.12811 0.19772 0.0
C2036 C 0.46011 0.10397 0.19302 0.0
C2037 C 0.46772 0.10923 0.1209 0.0
N2038 N 0.47812 0.1325 0.02541 0.0
N2039 N 0.46043 0.11845 0.30771 0.0
C2040 C 0.46885 0.12566 0.09048 0.0
C2041 C 0.45577 0.11584 0.23454 0.0
N2042 N 0.46582 0.15297 0.11058 0.0
N2043 N 0.45697 0.08773 0.22345 0.0
H2044 H 0.46234 0.13024 0.33567 0.0
H2045 H 0.46522 0.11068 0.33569 0.0
H2046 H 0.45917 0.07815 0.19459 0.0
H2047 H 0.4507 0.08338 0.27528 0.0
H2048 H 0.47376 0.15989 0.06456 0.0
H2049 H 0.46412 0.16169 0.14723 0.0
H2050 H 0.47726 0.1425 0.99394 0.0
H2051 H 0.48644 0.12779 1.00181 0.0
C2052 C 0.89217 0.34932 0.13223 0.0
C2053 C 0.91199 0.35936 0.12862 0.0
C2054 C 0.91217 0.3319 0.18148 0.0
C2055 C 0.89245 0.32236 0.18962 0.0
N2056 N 0.86391 0.32305 0.18061 0.0
N2057 N 0.94098 0.36067 0.15576 0.0
C2058 C 0.88255 0.33139 0.16685 0.0
C2059 C 0.92199 0.35074 0.15519 0.0
N2060 N 0.88243 0.3568 0.10079 0.0
N2061 N 0.92149 0.32266 0.19716 0.0
H2062 H 0.9485 0.37412 0.13517 0.0
H2063 H 0.94935 0.35624 0.18106 0.0
H2064 H 0.9148 0.30903 0.2161 0.0
H2065 H 0.93552 0.32781 0.1862 0.0
H2066 H 0.8681 0.34947 0.09242 0.0
H2067 H 0.88884 0.37015 0.07899 0.0
H2068 H 0.85614 0.32961 0.17428 0.0
H2069 H 0.85634 0.30979 0.20293 0.0
C2070 C 0.66773 0.56943 0.12448 0.0
C2071 C 0.65758 0.54975 0.11804 0.0
C2072 C 0.68542 0.54908 0.16496 0.0
C2073 C 0.69508 0.56861 0.17629 0.0
N2074 N 0.69425 0.59704 0.17639 0.0
N2075 N 0.65608 0.52066 0.14033 0.0
C2076 C 0.68588 0.57867 0.15845 0.0
C2077 C 0.66628 0.53956 0.14074 0.0
N2078 N 0.66017 0.57942 0.0963 0.0
N2079 N 0.69475 0.53965 0.17579 0.0
H2080 H 0.64226 0.51339 0.12251 0.0
H2081 H 0.6607 0.5122 0.16285 0.0
H2082 H 0.70859 0.54614 0.19343 0.0
H2083 H 0.6894 0.52578 0.1619 0.0
H2084 H 0.66759 0.59374 0.09023 0.0
H2085 H 0.64672 0.57326 0.0745 0.0
H2086 H 0.68754 0.60474 0.17368 0.0
H2087 H 0.70762 0.60438 0.19892 0.0
C2088 C 0.55949 0.87364 0.98363 0.0
C2089 C 0.57757 0.8845 0.95286 0.0
C2090 C 0.57663 0.91289 0.98809 0.0
C2091 C 0.559 0.90204 0.02253 0.0
N2092 N 0.53478 0.87198 0.06148 0.0
N2093 N 0.60442 0.91455 0.935 0.0
C2094 C 0.55081 0.88238 0.02263 0.0
C2095 C 0.58638 0.90417 0.95764 0.0
N2096 N 0.55025 0.85489 0.97319 0.0
N2097 N 0.58402 0.93163 0.98398 0.0
H2098 H 0.6119 0.90868 0.91298 0.0
H2099 H 0.61251 0.92877 0.94326 0.0
H2100 H 0.57764 0.93845 1.00754 0.0
H2101 H 0.59572 0.94032 0.95301 0.0
H2102 H 0.53627 0.84628 0.98579 0.0
H2103 H 0.55624 0.84799 0.9471 0.0
H2104 H 0.52928 0.85795 0.07232 0.0
H2105 H 0.52748 0.87763 0.08699 0.0
C2106 C 0.1079 0.66706 0.02796 0.0
C2107 C 0.1163 0.65576 0.02738 0.0
C2108 C 0.14236 0.68004 0.95408 0.0
C2109 C 0.13456 0.69186 0.9586 0.0
N2110 N 0.11051 0.69712 1.0053 0.0
N2111 N 0.14277 0.65259 0.99759 0.0
C2112 C 0.11751 0.68548 0.99742 0.0
C2113 C 0.13385 0.66257 0.99222 0.0
N2114 N 0.09033 0.65986 0.0557 0.0
N2115 N 0.15787 0.6854 0.91191 0.0
H2116 H 0.13685 0.63964 0.02285 0.0
H2117 H 0.15649 0.65758 0.98158 0.0
H2118 H 0.16524 0.69844 0.88756 0.0
H2119 H 0.16291 0.67664 0.89753 0.0
H2120 H 0.08241 0.66632 0.05174 0.0
H2121 H 0.08298 0.64659 0.07805 0.0
H2122 H 0.09934 0.69442 0.03931 0.0
H2123 H 0.11669 0.71024 0.98141 0.0
C2124 C 0.33841 0.46106 0.93968 0.0
C2125 C 0.32662 0.4415 0.94627 0.0
C2126 C 0.35241 0.44028 0.01198 0.0
C2127 C 0.36375 0.45995 0.00929 0.0
N2128 N 0.36653 0.48923 0.97823 0.0
N2129 N 0.32194 0.41266 0.99466 0.0
C2130 C 0.35645 0.47034 0.97492 0.0
C2131 C 0.33353 0.43121 0.98445 0.0
N2132 N 0.33247 0.47083 0.89818 0.0
N2133 N 0.35998 0.43019 0.03888 0.0
H2134 H 0.30844 0.40556 0.97331 0.0
H2135 H 0.3251 0.40449 0.02837 0.0
H2136 H 0.37361 0.4363 0.05882 0.0
H2137 H 0.35345 0.41583 0.03633 0.0
H2138 H 0.34104 0.48453 0.88239 0.0
H2139 H 0.31908 0.46491 0.8759 0.0
H2140 H 0.36132 0.49779 0.96281 0.0
H2141 H 0.37989 0.49645 1.00096 0.0
C2142 C 0.13119 0.47155 0.46817 0.0
C2143 C 0.1147 0.46103 0.51028 0.0
C2144 C 0.11711 0.43289 0.48534 0.0
C2145 C 0.13304 0.44323 0.43997 0.0
N2146 N 0.15387 0.47221 0.38101 0.0
N2147 N 0.09043 0.43111 0.5495 0.0
C2148 C 0.13961 0.46249 0.42934 0.0
C2149 C 0.10731 0.44153 0.51628 0.0
N2150 N 0.13933 0.4904 0.46773 0.0
N2151 N 0.11133 0.41471 0.4992 0.0
H2152 H 0.08286 0.43687 0.5717 0.0
H2153 H 0.08312 0.41671 0.54978 0.0
H2154 H 0.11755 0.40778 0.47522 0.0
H2155 H 0.10126 0.40679 0.53815 0.0
H2156 H 0.15248 0.49919 0.44622 0.0
H2157 H 0.13344 0.49744 0.49353 0.0
H2158 H 0.15774 0.48546 0.3625 0.0
H2159 H 0.16127 0.46663 0.35585 0.0
C2160 C 0.55072 0.66572 0.51156 0.0
C2161 C 0.56014 0.65567 0.52537 0.0
C2162 C 0.58949 0.68309 0.48295 0.0
C2163 C 0.57978 0.69259 0.46423 0.0
N2164 N 0.55065 0.69208 0.45368 0.0
N2165 N 0.58834 0.65432 0.51903 0.0
C2166 C 0.56026 0.68364 0.47693 0.0
C2167 C 0.57951 0.66429 0.50957 0.0
N2168 N 0.53262 0.65827 0.53322 0.0
N2169 N 0.60841 0.69223 0.47619 0.0
H2170 H 0.58164 0.64086 0.53977 0.0
H2171 H 0.60187 0.65874 0.50195 0.0
H2172 H 0.61597 0.70577 0.45651 0.0
H2173 H 0.61681 0.68711 0.49491 0.0
H2174 H 0.5255 0.66559 0.53382 0.0
H2175 H 0.52493 0.64496 0.555 0.0
H2176 H 0.5362 0.68556 0.45203 0.0
H2177 H 0.55718 0.70544 0.43195 0.0
C2178 C 0.3376 0.90323 0.46523 0.0
C2179 C 0.32684 0.88358 0.45852 0.0
C2180 C 0.35413 0.88176 0.50495 0.0
C2181 C 0.36442 0.90129 0.51657 0.0
N2182 N 0.36471 0.93028 0.51736 0.0
N2183 N 0.32425 0.85398 0.47995 0.0
C2184 C 0.35579 0.9119 0.49904 0.0
C2185 C 0.33498 0.87283 0.48081 0.0
N2186 N 0.33058 0.91375 0.43768 0.0
N2187 N 0.3629 0.87177 0.51536 0.0
H2188 H 0.31042 0.84713 0.46206 0.0
H2189 H 0.32845 0.84513 0.50213 0.0
H2190 H 0.37673 0.87784 0.5327 0.0
H2191 H 0.35709 0.85785 0.50136 0.0
H2192 H 0.33843 0.92805 0.43161 0.0
H2193 H 0.3171 0.90804 0.41653 0.0
H2194 H 0.35842 0.93838 0.51504 0.0
H2195 H 0.3781 0.93723 0.53982 0.0
C2196 C 0.26709 0.26942 0.79589 0.0
C2197 C 0.24972 0.25726 0.76225 0.0
C2198 C 0.24473 0.23324 0.84975 0.0
C2199 C 0.26331 0.24421 0.87477 0.0
N2200 N 0.29365 0.2714 0.85921 0.0
N2201 N 0.22489 0.22563 0.74282 0.0
C2202 C 0.275 0.26196 0.8443 0.0
C2203 C 0.23931 0.23854 0.78475 0.0
N2204 N 0.27574 0.28806 0.7837 0.0
N2205 N 0.23202 0.2183 0.88919 0.0
H2206 H 0.22134 0.22859 0.69121 0.0
H2207 H 0.218 0.21156 0.75554 0.0
H2208 H 0.23503 0.21474 0.94068 0.0
H2209 H 0.21797 0.2109 0.87468 0.0
H2210 H 0.2877 0.29753 0.81239 0.0
H2211 H 0.26989 0.29422 0.75136 0.0
H2212 H 0.30286 0.28372 0.83272 0.0
H2213 H 0.30021 0.26596 0.89153 0.0
C2214 C 0.81862 0.02302 0.78954 0.0
C2215 C 0.81493 0.02025 0.86612 0.0
C2216 C 0.8024 0.98716 0.85256 0.0
C2217 C 0.80198 0.98963 0.77544 0.0
N2218 N 0.81659 0.00874 0.6697 0.0
N2219 N 0.81111 1.00189 0.97395 0.0
C2220 C 0.81283 0.00729 0.74365 0.0
C2221 C 0.80976 1.003 0.89896 0.0
N2222 N 0.82626 0.04047 0.7612 0.0
N2223 N 0.79429 0.96963 0.88032 0.0
H2224 H 0.81704 0.01372 1.00723 0.0
H2225 H 0.80794 0.98978 1.00199 0.0
H2226 H 0.78925 0.95812 0.84523 0.0
H2227 H 0.79249 0.9665 0.93658 0.0
H2228 H 0.82773 0.04345 0.70478 0.0
H2229 H 0.83099 0.05206 0.79565 0.0
H2230 H 0.82486 0.02121 0.64258 0.0
H2231 H 0.81268 0.99703 0.63709 0.0
C2232 C 0.03209 0.80617 0.84695 0.0
C2233 C 0.02875 0.80229 0.7706 0.0
C2234 C 0.99546 0.78828 0.78906 0.0
C2235 C 0.99877 0.78721 0.86512 0.0
N2236 N 0.01923 0.79852 0.97085 0.0
N2237 N 1.00836 0.79404 0.66495 0.0
C2238 C 0.01681 0.7978 0.89581 0.0
C2239 C 1.01074 0.79527 0.74009 0.0
N2240 N 0.04992 0.81705 0.87166 0.0
N2241 N 0.97766 0.78167 0.76457 0.0
H2242 H 0.01963 0.79986 0.62889 0.0
H2243 H 0.99548 0.78735 0.63846 0.0
H2244 H 0.96648 0.77646 0.80131 0.0
H2245 H 0.97412 0.78258 0.70995 0.0
H2246 H 0.05351 0.82115 0.92662 0.0
H2247 H 0.06109 0.82312 0.8349 0.0
H2248 H 0.03211 0.80434 0.99726 0.0
H2249 H 1.00799 0.79316 1.0069 0.0
C2250 C 0.81207 0.80826 0.39495 0.0
C2251 C 0.81962 0.79803 0.36303 0.0
C2252 C 0.81627 0.80771 0.23997 0.0
C2253 C 0.8035 0.81236 0.27065 0.0
N2254 N 0.79259 0.822 0.37497 0.0
N2255 N 0.834 0.79207 0.26016 0.0
C2256 C 0.80297 0.8148 0.34783 0.0
C2257 C 0.82396 0.79967 0.28697 0.0
N2258 N 0.81293 0.81075 0.46988 0.0
N2259 N 0.82012 0.81022 0.16609 0.0
H2260 H 0.83991 0.78653 0.29575 0.0
H2261 H 0.83639 0.79116 0.20412 0.0
H2262 H 0.81481 0.81666 0.13257 0.0
H2263 H 0.82963 0.8075 0.13974 0.0
H2264 H 0.80808 0.81847 0.49742 0.0
H2265 H 0.82017 0.80633 0.50349 0.0
H2266 H 0.79004 0.82262 0.43107 0.0
H2267 H 0.78635 0.82728 0.33977 0.0
C2268 C 0.22151 0.0257 0.28396 0.0
C2269 C 0.22031 0.02219 0.36077 0.0
C2270 C 0.19974 0.98931 0.33994 0.0
C2271 C 0.2053 0.99243 0.26515 0.0
N2272 N 0.21457 0.0125 0.15967 0.0
N2273 N 0.20364 1.00272 0.46324 0.0
C2274 C 0.21353 0.01039 0.23477 0.0
C2275 C 0.20738 1.00463 0.38916 0.0
N2276 N 0.23148 0.04353 0.25958 0.0
N2277 N 0.18845 0.97159 0.36344 0.0
H2278 H 0.20903 0.01417 0.49852 0.0
H2279 H 0.19469 0.99026 0.48903 0.0
H2280 H 0.18287 0.96048 0.32611 0.0
H2281 H 0.18424 0.96788 0.418 0.0
H2282 H 0.23401 0.04734 0.20412 0.0
H2283 H 0.23701 0.0547 0.2966 0.0
H2284 H 0.22057 0.02519 0.13269 0.0
H2285 H 0.20819 1.00113 0.1242 0.0
C2286 C 1.00112 0.26054 0.32097 0.0
C2287 C 0.99592 0.24323 0.3539 0.0
C2288 C 0.01451 0.23795 0.26462 0.0
C2289 C 0.02228 0.25651 0.24082 0.0
N2290 N 0.02565 0.28684 0.25797 0.0
N2291 N 1.00242 0.21815 0.37062 0.0
C2292 C 0.01636 0.26827 0.27214 0.0
C2293 C 1.00394 0.23262 0.32982 0.0
N2294 N 0.99127 0.26933 0.3346 0.0
N2295 N 0.01655 0.22525 0.22409 0.0
H2296 H 0.99608 0.21464 0.42242 0.0
H2297 H 1.00943 0.21112 0.35678 0.0
H2298 H 0.02309 0.22826 0.17267 0.0
H2299 H 1.00979 0.21123 0.23769 0.0
H2300 H 0.99372 0.28125 0.30655 0.0
H2301 H 0.9794 0.26363 0.36757 0.0
H2302 H 0.02267 0.29608 0.2852 0.0
H2303 H 0.03757 0.29329 0.22543 0.0
C2304 C 0.89633 0.5417 0.13593 0.0
C2305 C 0.90341 0.55134 0.20377 0.0
C2306 C 0.88315 0.5645 0.19338 0.0
C2307 C 0.88071 0.55951 0.11827 0.0
N2308 N 0.88086 0.54035 0.0195 0.0
N2309 N 0.90353 0.57193 0.2989 0.0
C2310 C 0.88548 0.54659 0.09069 0.0
C2311 C 0.8964 0.56233 0.2344 0.0
N2312 N 0.9006 0.52858 0.11401 0.0
N2313 N 0.87389 0.57267 0.22254 0.0
H2314 H 0.91413 0.57158 0.32816 0.0
H2315 H 0.90008 0.58145 0.31998 0.0
H2316 H 0.86452 0.57465 0.19044 0.0
H2317 H 0.87413 0.57573 0.27873 0.0
H2318 H 0.89482 0.52018 0.06752 0.0
H2319 H 0.90906 0.52522 0.14543 0.0
H2320 H 0.88577 0.53269 0.99191 0.0
H2321 H 0.87203 0.54315 0.98791 0.0
C2322 C 0.47598 0.3337 0.2421 0.0
C2323 C 0.48345 0.35162 0.21167 0.0
C2324 C 0.48218 0.33966 0.08773 0.0
C2325 C 0.47006 0.32184 0.11611 0.0
N2326 N 0.46057 0.30054 0.21705 0.0
N2327 N 0.49981 0.37279 0.1135 0.0
C2328 C 0.46916 0.31842 0.19286 0.0
C2329 C 0.48908 0.35496 0.13694 0.0
N2330 N 0.47444 0.33152 0.31712 0.0
N2331 N 0.48577 0.34176 0.01356 0.0
H2332 H 0.50487 0.3839 0.15066 0.0
H2333 H 0.50425 0.37659 0.05922 0.0
H2334 H 0.48108 0.33035 0.97845 0.0
H2335 H 0.49383 0.35441 0.98741 0.0
H2336 H 0.4684 0.31883 0.34405 0.0
H2337 H 0.48018 0.34288 0.35276 0.0
H2338 H 0.4588 0.29664 0.2725 0.0
H2339 H 0.45574 0.28947 0.17971 0.0
C2340 C 0.68469 0.0815 0.11356 0.0
C2341 C 0.68996 0.09882 0.08041 0.0
C2342 C 0.67068 0.1039 0.1668 0.0
C2343 C 0.66352 0.08564 0.19351 0.0
N2344 N 0.66022 0.05533 0.17783 0.0
N2345 N 0.68243 0.12296 0.05853 0.0
C2346 C 0.6694 0.07383 0.16233 0.0
C2347 C 0.68121 0.10895 0.10148 0.0
N2348 N 0.69467 0.07277 0.10163 0.0
N2349 N 0.66853 0.11679 0.20545 0.0
H2350 H 0.68895 0.12622 1.00708 0.0
H2351 H 0.67503 0.12973 0.07024 0.0
H2352 H 0.66236 0.11426 0.25755 0.0
H2353 H 0.67492 0.13064 0.1895 0.0
H2354 H 0.69216 0.06091 0.13034 0.0
H2355 H 0.70665 0.07839 0.06939 0.0
H2356 H 0.66318 0.046 0.1512 0.0
H2357 H 0.64836 0.04905 0.21084 0.0
C2358 C 0.46516 0.12632 0.58262 0.0
C2359 C 0.45335 0.13235 0.61225 0.0
C2360 C 0.45385 0.12031 0.73301 0.0
C2361 C 0.46416 0.11258 0.70231 0.0
N2362 N 0.4849 0.11318 0.60791 0.0
N2363 N 0.44355 0.14264 0.71765 0.0
C2364 C 0.47188 0.11754 0.63054 0.0
C2365 C 0.45069 0.13237 0.68901 0.0
N2366 N 0.4685 0.12751 0.50822 0.0
N2367 N 0.44544 0.11463 0.80028 0.0
H2368 H 0.44075 0.15114 0.68385 0.0
H2369 H 0.44224 0.14407 0.7744 0.0
H2370 H 0.44595 0.10434 0.83069 0.0
H2371 H 0.43643 0.1187 0.82206 0.0
H2372 H 0.47506 0.12126 0.48168 0.0
H2373 H 0.46409 0.13441 0.4727 0.0
H2374 H 0.49196 0.11757 0.5578 0.0
H2375 H 0.48978 0.10649 0.64253 0.0
C2376 C 0.89055 0.33529 0.73842 0.0
C2377 C 0.89941 0.35334 0.70746 0.0
C2378 C 0.88312 0.34116 0.59053 0.0
C2379 C 0.87691 0.32327 0.61876 0.0
N2380 N 0.86649 0.30313 0.72303 0.0
N2381 N 0.89975 0.37428 0.61459 0.0
C2382 C 0.87732 0.32045 0.69502 0.0
C2383 C 0.89394 0.3566 0.63719 0.0
N2384 N 0.89604 0.33209 0.80546 0.0
N2385 N 0.88004 0.34315 0.51768 0.0
H2386 H 0.90805 0.38578 0.64782 0.0
H2387 H 0.89533 0.37749 0.5656 0.0
H2388 H 0.87143 0.33172 0.48471 0.0
H2389 H 0.88596 0.35578 0.49023 0.0
H2390 H 0.89116 0.31892 0.82737 0.0
H2391 H 0.90672 0.34254 0.8362 0.0
H2392 H 0.86537 0.30019 0.77955 0.0
H2393 H 0.85736 0.29216 0.68884 0.0
C2394 C 0.66894 0.59288 0.67216 0.0
C2395 C 0.66326 0.57526 0.70325 0.0
C2396 C 0.68239 0.5704 0.61508 0.0
C2397 C 0.69037 0.58909 0.59257 0.0
N2398 N 0.69416 0.61947 0.6133 0.0
N2399 N 0.66946 0.54999 0.71913 0.0
C2400 C 0.68453 0.6008 0.6251 0.0
C2401 C 0.67139 0.56476 0.6793 0.0
N2402 N 0.65915 0.60175 0.68529 0.0
N2403 N 0.68443 0.5578 0.57384 0.0
H2404 H 0.66272 0.54622 0.77012 0.0
H2405 H 0.67648 0.54296 0.70551 0.0
H2406 H 0.69113 0.56097 0.52275 0.0
H2407 H 0.67751 0.54372 0.58642 0.0
H2408 H 0.66201 0.61394 0.65837 0.0
H2409 H 0.64696 0.59592 0.71631 0.0
H2410 H 0.69119 0.62863 0.64127 0.0
H2411 H 0.70634 0.626 0.58225 0.0
C2412 C 0.55674 0.86237 0.44915 0.0
C2413 C 0.55667 0.86489 0.52648 0.0
C2414 C 0.53695 0.87849 0.5128 0.0
C2415 C 0.5409 0.88001 0.43638 0.0
N2416 N 0.54668 0.86698 0.32815 0.0
N2417 N 0.54076 0.86746 0.6326 0.0
C2418 C 0.54785 0.86938 0.40316 0.0
C2419 C 0.54438 0.86998 0.55856 0.0
N2420 N 0.56655 0.85467 0.42078 0.0
N2421 N 0.52749 0.88657 0.54107 0.0
H2422 H 0.54588 0.8607 0.66526 0.0
H2423 H 0.53158 0.87048 0.65993 0.0
H2424 H 0.5217 0.89241 0.50644 0.0
H2425 H 0.52549 0.8876 0.59741 0.0
H2426 H 0.56873 0.85389 0.36443 0.0
H2427 H 0.57265 0.84913 0.4553 0.0
H2428 H 0.55111 0.85903 0.29972 0.0
H2429 H 0.53963 0.87178 0.29534 0.0
C2430 C 0.15775 0.68766 0.47629 0.0
C2431 C 0.15237 0.68472 0.55138 0.0
C2432 C 0.13665 0.65137 0.53423 0.0
C2433 C 0.13782 0.65458 0.45721 0.0
N2434 N 0.15475 0.67379 0.35455 0.0
N2435 N 0.14374 0.66498 0.65781 0.0
C2436 C 0.15059 0.67213 0.42822 0.0
C2437 C 0.14449 0.66686 0.58263 0.0
N2438 N 0.16833 0.70536 0.45123 0.0
N2439 N 0.12677 0.63362 0.55954 0.0
H2440 H 0.15005 0.67649 0.69264 0.0
H2441 H 0.1382 0.65239 0.68534 0.0
H2442 H 0.12137 0.62235 0.52307 0.0
H2443 H 0.12407 0.63002 0.61515 0.0
H2444 H 0.17188 0.7089 0.39601 0.0
H2445 H 0.17376 0.71666 0.48755 0.0
H2446 H 0.16398 0.68615 0.32871 0.0
H2447 H 0.1497 0.66222 0.32015 0.0
C2448 C 0.3483 0.47135 0.42 0.0
C2449 C 0.36575 0.47487 0.44697 0.0
C2450 C 0.35255 0.45981 0.5629 0.0
C2451 C 0.33462 0.45379 0.53239 0.0
N2452 N 0.31532 0.45826 0.44432 0.0
N2453 N 0.3858 0.48066 0.55089 0.0
C2454 C 0.33247 0.46137 0.46542 0.0
C2455 C 0.36824 0.47236 0.52202 0.0
N2456 N 0.34685 0.47617 0.34909 0.0
N2457 N 0.35462 0.45219 0.62658 0.0
H2458 H 0.39731 0.48942 0.51865 0.0
H2459 H 0.38863 0.48026 0.607 0.0
H2460 H 0.34336 0.44195 0.65517 0.0
H2461 H 0.36745 0.45487 0.64741 0.0
H2462 H 0.3343 0.47212 0.322 0.0
H2463 H 0.35861 0.48428 0.31724 0.0
H2464 H 0.31303 0.46436 0.39822 0.0
H2465 H 0.30348 0.45053 0.47638 0.0
C2466 C 0.15626 0.46855 0.96268 0.0
C2467 C 0.15067 0.46588 0.03749 0.0
C2468 C 0.1349 0.48349 0.02145 0.0
C2469 C 0.13636 0.48177 0.94437 0.0
N2470 N 0.15392 0.48027 0.84209 0.0
N2471 N 0.14209 0.47692 0.14463 0.0
C2472 C 0.14934 0.47724 0.91528 0.0
C2473 C 0.14279 0.47583 0.06938 0.0
N2474 N 0.16676 0.46132 0.93706 0.0
N2475 N 0.12468 0.491 0.04715 0.0
H2476 H 0.14838 0.47163 0.17917 0.0
H2477 H 0.13672 0.48414 0.1724 0.0
H2478 H 0.11925 0.49692 0.01107 0.0
H2479 H 0.12161 0.49143 0.10275 0.0
H2480 H 0.17027 0.46138 0.88172 0.0
H2481 H 0.17203 0.45523 0.97295 0.0
H2482 H 0.16346 0.47748 0.81651 0.0
H2483 H 0.14897 0.48699 0.80825 0.0
C2484 C 0.55867 0.68783 0.97073 0.0
C2485 C 0.56359 0.68432 0.0417 0.0
C2486 C 0.54079 0.6516 0.02844 0.0
C2487 C 0.54079 0.6545 0.95201 0.0
N2488 N 0.54466 0.67464 0.85102 0.0
N2489 N 0.55861 0.66298 0.14137 0.0
C2490 C 0.54757 0.6725 0.92391 0.0
C2491 C 0.55397 0.6663 0.07278 0.0
N2492 N 0.56527 0.70563 0.94772 0.0
N2493 N 0.5295 0.63431 0.05593 0.0
H2494 H 0.56892 0.67338 0.17363 0.0
H2495 H 0.55325 0.6498 0.16383 0.0
H2496 H 0.52039 0.62347 0.02115 0.0
H2497 H 0.528 0.63127 0.11236 0.0
H2498 H 0.56139 0.70912 0.89807 0.0
H2499 H 0.57376 0.71703 0.98111 0.0
H2500 H 0.5509 0.68727 0.82348 0.0
H2501 H 0.53577 0.66331 0.81818 0.0
C2502 C 0.33808 0.92801 0.01 0.0
C2503 C 0.33192 0.91039 0.04226 0.0
C2504 C 0.35051 0.90446 0.9551 0.0
C2505 C 0.35872 0.92301 0.9305 0.0
N2506 N 0.3617 0.95337 0.94112 0.0
N2507 N 0.33735 0.88467 0.06051 0.0
C2508 C 0.35302 0.93509 0.96022 0.0
C2509 C 0.33957 0.89937 0.01934 0.0
N2510 N 0.32999 0.93838 0.02502 0.0
N2511 N 0.35225 0.89144 0.91548 0.0
H2512 H 0.33067 0.88124 0.11161 0.0
H2513 H 0.34412 0.87733 0.04793 0.0
H2514 H 0.3589 0.89418 0.86435 0.0
H2515 H 0.3451 0.87743 0.92925 0.0
H2516 H 0.31821 0.93396 0.05795 0.0
H2517 H 0.31821 0.93396 0.05795 0.0
H2518 H 0.35757 0.96242 0.96216 0.0
H2519 H 0.37364 0.95968 0.90859 0.0
C2520 C 0.34222 0.2396 0.03172 0.0
C2521 C 0.33488 0.22123 0.05871 0.0
C2522 C 0.35771 0.2181 0.98107 0.0
C2523 C 0.36373 0.23576 0.94846 0.0
N2524 N 0.35969 0.26222 0.93613 0.0
N2525 N 0.33357 0.19176 0.04721 0.0
C2526 C 0.35538 0.24618 0.9722 0.0
C2527 C 0.34211 0.21017 0.0303 0.0
N2528 N 0.33677 0.25091 0.06431 0.0
N2529 N 0.36742 0.20915 0.96809 0.0
H2530 H 0.32242 0.18538 0.0837 0.0
H2531 H 0.33663 0.18252 0.02054 0.0
H2532 H 0.37878 0.21429 0.93263 0.0
H2533 H 0.36518 0.19744 0.99721 0.0
H2534 H 0.34273 0.26496 0.05268 0.0
H2535 H 0.32745 0.2466 0.10849 0.0
H2536 H 0.35286 0.26965 0.94517 0.0
H2537 H 0.36895 0.26719 0.89178 0.0
C2538 C 0.79864 0.10621 0.93221 0.0
C2539 C 0.80198 0.11083 0.00981 0.0
C2540 C 0.79775 0.13743 0.98255 0.0
C2541 C 0.79003 0.13006 0.91151 0.0
N2542 N 0.78187 0.10596 0.82111 0.0
N2543 N 0.80254 0.13071 0.10869 0.0
C2544 C 0.79013 0.11402 0.88694 0.0
C2545 C 0.8011 0.12653 0.03487 0.0
N2546 N 0.80482 0.09549 0.89974 0.0
N2547 N 0.80253 0.15522 0.9992 0.0
H2548 H 0.80397 0.12265 0.14933 0.0
H2549 H 0.80031 0.14108 0.12984 0.0
H2550 H 0.80095 0.16372 0.96097 0.0
H2551 H 0.80994 0.16199 0.04701 0.0
H2552 H 0.80394 0.09298 0.84279 0.0
H2553 H 0.81324 0.0914 0.92707 0.0
H2554 H 0.77976 0.09306 0.8045 0.0
H2555 H 0.776 0.11158 0.78584 0.0
C2556 C 0.88083 0.65444 0.00963 0.0
C2557 C 0.88488 0.65516 0.93213 0.0
C2558 C 0.90329 0.68902 0.94362 0.0
C2559 C 0.90253 0.68791 0.02299 0.0
N2560 N 0.89114 0.66867 0.13129 0.0
N2561 N 0.90178 0.67367 0.8272 0.0
C2562 C 0.8913 0.67037 0.05598 0.0
C2563 C 0.8965 0.67263 0.89949 0.0
N2564 N 0.86643 0.63867 0.03867 0.0
N2565 N 0.90982 0.70577 0.90985 0.0
H2566 H 0.89717 0.66206 0.79317 0.0
H2567 H 0.91195 0.68591 0.80306 0.0
H2568 H 0.91373 0.7179 0.93943 0.0
H2569 H 0.90914 0.70724 0.85271 0.0
H2570 H 0.86174 0.63784 0.09282 0.0
H2571 H 0.85778 0.62714 1.00622 0.0
H2572 H 0.88486 0.65591 0.15806 0.0
H2573 H 0.89853 0.67995 0.1667 0.0
C2574 C 0.23637 0.35792 0.60097 0.0
C2575 C 0.23644 0.35605 0.68011 0.0
C2576 C 0.21577 0.32256 0.6629 0.0
C2577 C 0.21909 0.3241 0.58449 0.0
N2578 N 0.23428 0.34392 0.48042 0.0
N2579 N 0.22719 0.33564 0.78521 0.0
C2580 C 0.22974 0.34199 0.55383 0.0
C2581 C 0.22626 0.33811 0.7108 0.0
N2582 N 0.24192 0.37486 0.57044 0.0
N2583 N 0.20211 0.30629 0.69174 0.0
H2584 H 0.23481 0.34656 0.82191 0.0
H2585 H 0.22174 0.32261 0.80938 0.0
H2586 H 0.1935 0.29489 0.6588 0.0
H2587 H 0.19789 0.30485 0.74687 0.0
H2588 H 0.24048 0.37673 0.51417 0.0
H2589 H 0.24577 0.38667 0.60225 0.0
H2590 H 0.24383 0.35656 0.45695 0.0
H2591 H 0.22965 0.33269 0.44427 0.0
C2592 C 0.69725 0.89875 0.68592 0.0
C2593 C 0.69634 0.90003 0.6069 0.0
C2594 C 0.66231 0.88083 0.61651 0.0
C2595 C 0.66317 0.88311 0.6955 0.0
N2596 N 0.68238 0.89668 0.8039 0.0
N2597 N 0.677 0.89366 0.49839 0.0
C2598 C 0.68091 0.8927 0.72986 0.0
C2599 C 0.67858 0.89138 0.5725 0.0
N2600 N 0.71354 0.90236 0.71916 0.0
N2601 N 0.64618 0.86782 0.58337 0.0
H2602 H 0.68845 0.90148 0.46458 0.0
H2603 H 0.66423 0.88921 0.47219 0.0
H2604 H 0.63444 0.85868 0.6134 0.0
H2605 H 0.64525 0.86452 0.52715 0.0
H2606 H 0.71455 0.90012 0.77543 0.0
H2607 H 0.72539 0.90521 0.68921 0.0
H2608 H 0.69508 0.9053 0.82999 0.0
H2609 H 0.67086 0.89283 0.83767 0.0
C2610 C 0.10824 0.77273 0.61171 0.0
C2611 C 0.11923 0.79096 0.58306 0.0
C2612 C 0.14615 0.7933 0.65266 0.0
C2613 C 0.13446 0.77618 0.6892 0.0
N2614 N 0.10349 0.7509 0.7099 0.0
N2615 N 0.14858 0.81975 0.58698 0.0
C2616 C 0.11524 0.7663 0.67028 0.0
C2617 C 0.1382 0.80154 0.60621 0.0
N2618 N 0.09109 0.76136 0.58146 0.0
N2619 N 0.16501 0.80134 0.65887 0.0
H2620 H 0.14374 0.82641 0.55233 0.0
H2621 H 0.16157 0.82866 0.61029 0.0
H2622 H 0.17141 0.79573 0.69087 0.0
H2623 H 0.17427 0.81257 0.62687 0.0
H2624 H 0.083 0.74739 0.59463 0.0
H2625 H 0.08583 0.76545 0.5372 0.0
H2626 H 0.08908 0.74406 0.7041 0.0
H2627 H 0.10805 0.74607 0.754 0.0
C2628 C 0.67537 0.76682 0.18347 0.0
C2629 C 0.66717 0.77734 0.20776 0.0
C2630 C 0.68929 0.80319 0.12811 0.0
C2631 C 0.69637 0.79203 0.099 0.0
N2632 N 0.69422 0.76225 0.09193 0.0
N2633 N 0.66451 0.8047 0.19284 0.0
C2634 C 0.68882 0.77356 0.12496 0.0
C2635 C 0.6737 0.79533 0.17746 0.0
N2636 N 0.67058 0.75047 0.21805 0.0
N2637 N 0.69795 0.82163 0.11152 0.0
H2638 H 0.6534 0.79989 0.22952 0.0
H2639 H 0.66692 0.81658 0.16467 0.0
H2640 H 0.70904 0.828 0.07482 0.0
H2641 H 0.69514 0.83097 0.13879 0.0
H2642 H 0.6772 0.74286 0.20868 0.0
H2643 H 0.66109 0.74539 0.26163 0.0
H2644 H 0.68808 0.74814 0.10253 0.0
H2645 H 0.70373 0.76667 0.04842 0.0
C2646 C 0.23258 0.87901 0.14098 0.0
C2647 C 0.23455 0.88221 0.21952 0.0
C2648 C 0.21825 0.89985 0.20499 0.0
C2649 C 0.22008 0.90002 0.12584 0.0
N2650 N 0.23114 0.89084 0.01976 0.0
N2651 N 0.23038 0.89749 0.32486 0.0
C2652 C 0.22771 0.88977 0.09413 0.0
C2653 C 0.22758 0.89304 0.25126 0.0
N2654 N 0.23471 0.86513 0.11101 0.0
N2655 N 0.20684 0.90536 0.23625 0.0
H2656 H 0.23704 0.89276 0.3603 0.0
H2657 H 0.22742 0.90707 0.34913 0.0
H2658 H 0.19865 0.90905 0.20484 0.0
H2659 H 0.20374 0.90402 0.29265 0.0
H2660 H 0.2318 0.86108 0.05559 0.0
H2661 H 0.23712 0.8562 0.14328 0.0
H2662 H 0.23858 0.88525 0.99511 0.0
H2663 H 0.22808 0.89874 0.9838 0.0
C2664 C 0.13055 0.34371 0.04976 0.0
C2665 C 0.1216 0.32581 0.08178 0.0
C2666 C 0.1273 0.34051 0.20685 0.0
C2667 C 0.13697 0.35833 0.17492 0.0
N2668 N 0.15303 0.37625 0.06678 0.0
N2669 N 0.11746 0.30806 0.19399 0.0
C2670 C 0.14016 0.35971 0.09655 0.0
C2671 C 0.12179 0.32449 0.1613 0.0
N2672 N 0.12928 0.34565 0.97515 0.0
N2673 N 0.12265 0.33866 0.28017 0.0
H2674 H 0.11431 0.29616 0.16407 0.0
H2675 H 0.11921 0.3068 0.25055 0.0
H2676 H 0.12642 0.34997 0.31518 0.0
H2677 H 0.11371 0.32593 0.30447 0.0
H2678 H 0.13381 0.35844 0.95005 0.0
H2679 H 0.12222 0.33443 0.93924 0.0
H2680 H 0.15719 0.37773 0.01156 0.0
H2681 H 0.16117 0.38796 0.09913 0.0
C2682 C 0.80437 0.6706 0.41688 0.0
C2683 C 0.78484 0.66042 0.40279 0.0
C2684 C 0.78053 0.67898 0.50034 0.0
C2685 C 0.80001 0.68964 0.51226 0.0
N2686 N 0.83065 0.69825 0.46845 0.0
N2687 N 0.75516 0.65854 0.41833 0.0
C2688 C 0.81195 0.68613 0.46687 0.0
C2689 C 0.77321 0.66575 0.44096 0.0
N2690 N 0.81578 0.66523 0.38472 0.0
N2691 N 0.76891 0.68132 0.5469 0.0
H2692 H 0.74966 0.64958 0.37296 0.0
H2693 H 0.74629 0.66292 0.43885 0.0
H2694 H 0.77386 0.69079 0.59079 0.0
H2695 H 0.75452 0.67277 0.54649 0.0
H2696 H 0.82954 0.67033 0.40117 0.0
H2697 H 0.81136 0.65504 0.34399 0.0
H2698 H 0.83979 0.69807 0.42955 0.0
H2699 H 0.83683 0.70945 0.50491 0.0
C2700 C 0.33295 0.12685 0.48911 0.0
C2701 C 0.32672 0.10894 0.51984 0.0
C2702 C 0.34734 0.10492 0.4322 0.0
C2703 C 0.35531 0.12361 0.40842 0.0
N2704 N 0.35649 0.15301 0.41993 0.0
N2705 N 0.32937 0.08156 0.5247 0.0
C2706 C 0.34818 0.13468 0.43791 0.0
C2707 C 0.33428 0.09814 0.49203 0.0
N2708 N 0.32381 0.13618 0.50631 0.0
N2709 N 0.35219 0.09353 0.39627 0.0
H2710 H 0.32014 0.07638 0.56908 0.0
H2711 H 0.33564 0.07374 0.51266 0.0
H2712 H 0.3614 0.09807 0.35167 0.0
H2713 H 0.34583 0.07934 0.40539 0.0
H2714 H 0.32597 0.14803 0.47851 0.0
H2715 H 0.31296 0.13134 0.54425 0.0
H2716 H 0.35381 0.16241 0.44742 0.0
H2717 H 0.36701 0.15918 0.38071 0.0
C2718 C 0.88248 0.23087 0.5271 0.0
C2719 C 0.88474 0.23165 0.44811 0.0
C2720 C 0.89811 0.21137 0.46186 0.0
C2721 C 0.89974 0.21417 0.54063 0.0
N2722 N 0.89434 0.22823 0.64717 0.0
N2723 N 0.89675 0.22366 0.34162 0.0
C2724 C 0.89204 0.22428 0.5731 0.0
C2725 C 0.89299 0.22205 0.41576 0.0
N2726 N 0.87046 0.23561 0.5583 0.0
N2727 N 0.90084 0.19796 0.43093 0.0
H2728 H 0.89352 0.23152 0.30621 0.0
H2729 H 0.90461 0.21856 0.31675 0.0
H2730 H 0.90341 0.18905 0.46267 0.0
H2731 H 0.89826 0.1942 0.37513 0.0
H2732 H 0.86708 0.23382 0.61444 0.0
H2733 H 0.8621 0.23908 0.5268 0.0
H2734 H 0.8908 0.23731 0.67219 0.0
H2735 H 0.90113 0.22359 0.68239 0.0
C2736 C 0.02529 0.55325 0.31673 0.0
C2737 C 0.0312 0.57067 0.28212 0.0
C2738 C 1.00918 0.57458 0.36184 0.0
C2739 C 1.0017 0.55626 0.38968 0.0
N2740 N 1.00123 0.52707 0.38362 0.0
N2741 N 0.0271 0.59701 0.26629 0.0
C2742 C 1.00945 0.54534 0.36471 0.0
C2743 C 0.02264 0.58106 0.30343 0.0
N2744 N 0.03537 0.54456 0.30682 0.0
N2745 N 1.00364 0.58599 0.39284 0.0
H2746 H 0.03666 0.60195 0.22293 0.0
H2747 H 0.02015 0.60438 0.2735 0.0
H2748 H 0.99423 0.5818 0.43667 0.0
H2749 H 1.00967 0.60001 0.38057 0.0
H2750 H 0.03324 0.53311 0.33759 0.0
H2751 H 0.0469 0.54972 0.27231 0.0
H2752 H 1.00468 0.51788 0.35908 0.0
H2753 H 0.98996 0.52066 0.41946 0.0
C2754 C 0.46886 0.46729 0.26738 0.0
C2755 C 0.44954 0.45769 0.24916 0.0
C2756 C 0.44495 0.43359 0.34063 0.0
C2757 C 0.46443 0.44233 0.35387 0.0
N2758 N 0.49519 0.46532 0.31445 0.0
N2759 N 0.41982 0.42984 0.25944 0.0
C2760 C 0.47644 0.4586 0.31305 0.0
C2761 C 0.4378 0.44029 0.2834 0.0
N2762 N 0.48 0.48511 0.24429 0.0
N2763 N 0.43319 0.41903 0.38416 0.0
H2764 H 0.41434 0.43405 0.21645 0.0
H2765 H 0.41095 0.4163 0.27662 0.0
H2766 H 0.43796 0.414 0.42678 0.0
H2767 H 0.41878 0.41313 0.38287 0.0
H2768 H 0.49355 0.49348 0.26376 0.0
H2769 H 0.47534 0.49215 0.21091 0.0
H2770 H 0.50444 0.47576 0.27929 0.0
H2771 H 0.50131 0.4593 0.3457 0.0
C2772 C 0.56625 0.01926 0.30452 0.0
C2773 C 0.56811 0.01822 0.3831 0.0
C2774 C 0.55228 0.98435 0.36963 0.0
C2775 C 0.55428 0.98585 0.29047 0.0
N2776 N 0.56529 1.00586 0.18395 0.0
N2777 N 0.5639 0.99917 0.48946 0.0
C2778 C 0.56171 1.00362 0.25822 0.0
C2779 C 0.56129 1.00057 0.4155 0.0
N2780 N 0.56824 0.03514 0.27403 0.0
N2781 N 0.541 0.96752 0.40126 0.0
H2782 H 0.57021 0.01065 0.52463 0.0
H2783 H 0.56109 0.98678 0.51443 0.0
H2784 H 0.53305 0.95551 0.37027 0.0
H2785 H 0.5377 0.9659 0.45749 0.0
H2786 H 0.56545 0.03619 0.2184 0.0
H2787 H 0.57047 0.04647 0.30611 0.0
H2788 H 0.57256 0.01883 0.15904 0.0
H2789 H 0.5626 0.99492 0.14843 0.0
C2790 C 0.47234 0.99986 0.77646 0.0
C2791 C 0.45318 0.99095 0.75589 0.0
C2792 C 0.44834 0.00842 0.85605 0.0
C2793 C 0.46779 0.01917 0.86983 0.0
N2794 N 0.49866 0.02699 0.83044 0.0
N2795 N 0.42374 0.98981 0.76826 0.0
C2796 C 0.4799 0.01535 0.82673 0.0
C2797 C 0.44147 0.99621 0.79354 0.0
N2798 N 0.48329 0.99313 0.75103 0.0
N2799 N 0.43632 0.00975 0.90378 0.0
H2800 H 0.41848 0.98144 0.72115 0.0
H2801 H 0.41503 0.99438 0.78892 0.0
H2802 H 0.4409 0.01817 0.95096 0.0
H2803 H 0.42195 1.00108 0.90109 0.0
H2804 H 0.49668 0.9977 0.77121 0.0
H2805 H 0.47854 0.98199 0.71443 0.0
H2806 H 0.50795 0.02619 0.79399 0.0
H2807 H 0.50482 0.03833 0.866 0.0
C2808 C 1.00737 0.46359 0.85037 0.0
C2809 C 1.00094 0.44571 0.88155 0.0
C2810 C 0.02247 0.44171 0.79872 0.0
C2811 C 0.02976 0.46001 0.77112 0.0
N2812 N 0.03126 0.4896 0.7818 0.0
N2813 N 1.00455 0.419 0.89354 0.0
C2814 C 0.02274 0.47126 0.7999 0.0
C2815 C 1.00919 0.43518 0.85787 0.0
N2816 N 0.99826 0.47303 0.86605 0.0
N2817 N 0.02792 0.43035 0.7666 0.0
H2818 H 0.99518 0.4141 0.93757 0.0
H2819 H 1.01117 0.41138 0.88463 0.0
H2820 H 0.03731 0.43461 0.72272 0.0
H2821 H 0.02195 0.41631 0.77843 0.0
H2822 H 1.00052 0.4848 0.83735 0.0
H2823 H 0.98741 0.4684 0.9039 0.0
H2824 H 0.02853 0.49906 0.80857 0.0
H2825 H 0.04217 0.4958 0.7442 0.0
C2826 C 0.55009 0.54349 0.87136 0.0
C2827 C 0.5694 0.5527 0.8896 0.0
C2828 C 0.57503 0.5761 0.79311 0.0
C2829 C 0.55574 0.56737 0.77682 0.0
N2830 N 0.52449 0.54503 0.81306 0.0
N2831 N 0.59929 0.58037 0.88026 0.0
C2832 C 0.54317 0.55165 0.81939 0.0
C2833 C 0.58153 0.56981 0.85397 0.0
N2834 N 0.5383 0.52665 0.90169 0.0
N2835 N 0.58726 0.59031 0.74921 0.0
H2836 H 0.60417 0.57654 0.92651 0.0
H2837 H 0.60846 0.5937 0.86169 0.0
H2838 H 0.58291 0.59509 0.70423 0.0
H2839 H 0.60163 0.59615 0.75286 0.0
H2840 H 0.52479 0.51802 0.88242 0.0
H2841 H 0.54219 0.52085 0.9442 0.0
H2842 H 0.51468 0.53526 0.84886 0.0
H2843 H 0.51886 0.55034 0.77532 0.0
loop_
_geom_bond_atom_site_label_1
_geom_bond_atom_site_label_2
_geom_bond_distance
_geom_bond_site_symmetry_2
_ccdc_geom_bond_type
Co0 O3 1.970 . S
Co0 N17 1.989 . S
Co0 O25 1.967 . S
Co0 O32 1.920 . S
Co1 O4 1.966 1_554 S
Co1 N10 2.022 1_554 S
Co1 N18 1.993 . S
Co1 O26 1.941 . S
C2 O3 1.258 . S
C2 O4 1.263 1_554 S
O3 Co0 1.970 . S
O3 C2 1.258 . S
O4 Co1 1.966 1_556 S
O4 C2 1.263 1_556 S
C5 O6 1.235 . S
C5 O32 1.289 . S
O6 C5 1.235 . S
C7 C9 1.400 . S
C7 N10 1.351 . S
C7 C12 1.501 . S
C8 C9 1.387 . S
C8 N11 1.341 . S
C9 C7 1.400 . S
C9 C8 1.387 . S
N10 Co1 2.022 1_556 S
N10 C7 1.351 . S
N10 N11 1.365 . S
N11 C8 1.341 . S
N11 N10 1.365 . S
N11 H31 0.862 . S
C12 C7 1.501 . S
C12 H13 0.961 . S
C12 H14 0.961 . S
C12 H15 0.960 . S
H13 C12 0.961 . S
H14 C12 0.961 . S
H15 C12 0.960 . S
C16 N17 1.342 . S
C16 C20 1.401 . S
C16 C21 1.499 . S
N17 Co0 1.989 . S
N17 C16 1.342 . S
N17 N18 1.388 . S
N18 Co1 1.993 . S
N18 N17 1.388 . S
N18 C19 1.346 . S
C19 N18 1.346 . S
C19 C20 1.396 . S
C19 C29 1.510 . S
C20 C16 1.401 . S
C20 C19 1.396 . S
C21 C16 1.499 . S
C21 H22 0.959 . S
C21 H23 0.960 . S
C21 H24 0.961 . S
H22 C21 0.959 . S
H23 C21 0.960 . S
H24 C21 0.961 . S
O25 Co0 1.967 . S
O25 C33 1.258 . S
O26 Co1 1.941 . S
O26 C33 1.266 . S
H27 C29 0.959 . S
H28 C29 0.961 . S
C29 C19 1.510 . S
C29 H27 0.959 . S
C29 H28 0.961 . S
C29 H30 0.960 . S
H30 C29 0.960 . S
H31 N11 0.862 . S
O32 Co0 1.920 . S
O32 C5 1.289 . S
C33 O25 1.258 . S
C33 O26 1.266 . S
Co34 O37 1.970 . S
Co34 N51 1.989 . S
Co34 O59 1.967 . S
Co34 O66 1.920 . S
Co35 O38 1.966 1_554 S
Co35 N44 2.022 1_554 S
Co35 N52 1.993 . S
Co35 O60 1.941 . S
C36 O37 1.258 . S
C36 O38 1.263 1_554 S
O37 Co34 1.970 . S
O37 C36 1.258 . S
O38 Co35 1.966 1_556 S
O38 C36 1.263 1_556 S
C39 O40 1.235 . S
C39 O66 1.289 . S
O40 C39 1.235 . S
C41 C43 1.400 . S
C41 N44 1.351 . S
C41 C46 1.501 . S
C42 C43 1.387 . S
C42 N45 1.341 . S
C43 C41 1.400 . S
C43 C42 1.387 . S
N44 Co35 2.022 1_556 S
N44 C41 1.351 . S
N44 N45 1.365 . S
N45 C42 1.341 . S
N45 N44 1.365 . S
N45 H65 0.862 . S
C46 C41 1.501 . S
C46 H47 0.961 . S
C46 H48 0.961 . S
C46 H49 0.960 . S
H47 C46 0.961 . S
H48 C46 0.961 . S
H49 C46 0.960 . S
C50 N51 1.342 . S
C50 C54 1.401 . S
C50 C55 1.499 . S
N51 Co34 1.989 . S
N51 C50 1.342 . S
N51 N52 1.388 . S
N52 Co35 1.993 . S
N52 N51 1.388 . S
N52 C53 1.346 . S
C53 N52 1.346 . S
C53 C54 1.396 . S
C53 C63 1.510 . S
C54 C50 1.401 . S
C54 C53 1.396 . S
C55 C50 1.499 . S
C55 H56 0.959 . S
C55 H57 0.960 . S
C55 H58 0.961 . S
H56 C55 0.959 . S
H57 C55 0.960 . S
H58 C55 0.961 . S
O59 Co34 1.967 . S
O59 C67 1.258 . S
O60 Co35 1.941 . S
O60 C67 1.266 . S
H61 C63 0.959 . S
H62 C63 0.961 . S
C63 C53 1.510 . S
C63 H61 0.959 . S
C63 H62 0.961 . S
C63 H64 0.960 . S
H64 C63 0.960 . S
H65 N45 0.862 . S
O66 Co34 1.920 . S
O66 C39 1.289 . S
C67 O59 1.258 . S
C67 O60 1.266 . S
Co68 O71 1.970 . S
Co68 N85 1.989 . S
Co68 O93 1.967 . S
Co68 O100 1.920 . S
Co69 O72 1.966 1_554 S
Co69 N78 2.022 1_554 S
Co69 N86 1.993 . S
Co69 O94 1.941 . S
C70 O71 1.258 . S
C70 O72 1.263 1_554 S
O71 Co68 1.970 . S
O71 C70 1.258 . S
O72 Co69 1.966 1_556 S
O72 C70 1.263 1_556 S
C73 O74 1.235 . S
C73 O100 1.289 . S
O74 C73 1.235 . S
C75 C77 1.400 . S
C75 N78 1.351 . S
C75 C80 1.501 . S
C76 C77 1.387 . S
C76 N79 1.341 . S
C77 C75 1.400 . S
C77 C76 1.387 . S
N78 Co69 2.022 1_556 S
N78 C75 1.351 . S
N78 N79 1.365 . S
N79 C76 1.341 . S
N79 N78 1.365 . S
N79 H99 0.862 . S
C80 C75 1.501 . S
C80 H81 0.961 . S
C80 H82 0.961 . S
C80 H83 0.960 . S
H81 C80 0.961 . S
H82 C80 0.961 . S
H83 C80 0.960 . S
C84 N85 1.342 . S
C84 C88 1.401 . S
C84 C89 1.499 . S
N85 Co68 1.989 . S
N85 C84 1.342 . S
N85 N86 1.388 . S
N86 Co69 1.993 . S
N86 N85 1.388 . S
N86 C87 1.346 . S
C87 N86 1.346 . S
C87 C88 1.396 . S
C87 C97 1.510 . S
C88 C84 1.401 . S
C88 C87 1.396 . S
C89 C84 1.499 . S
C89 H90 0.959 . S
C89 H91 0.960 . S
C89 H92 0.961 . S
H90 C89 0.959 . S
H91 C89 0.960 . S
H92 C89 0.961 . S
O93 Co68 1.967 . S
O93 C101 1.258 . S
O94 Co69 1.941 . S
O94 C101 1.266 . S
H95 C97 0.959 . S
H96 C97 0.961 . S
C97 C87 1.510 . S
C97 H95 0.959 . S
C97 H96 0.961 . S
C97 H98 0.960 . S
H98 C97 0.960 . S
H99 N79 0.862 . S
O100 Co68 1.920 . S
O100 C73 1.289 . S
C101 O93 1.258 . S
C101 O94 1.266 . S
Co102 O105 1.970 . S
Co102 N119 1.989 . S
Co102 O127 1.967 . S
Co102 O134 1.920 . S
Co103 O106 1.966 . S
Co103 N112 2.022 . S
Co103 N120 1.993 . S
Co103 O128 1.941 . S
C104 O105 1.258 . S
C104 O106 1.263 . S
O105 Co102 1.970 . S
O105 C104 1.258 . S
O106 Co103 1.966 . S
O106 C104 1.263 . S
C107 O108 1.235 . S
C107 O134 1.289 . S
O108 C107 1.235 . S
C109 C111 1.400 . S
C109 N112 1.351 . S
C109 C114 1.501 . S
C110 C111 1.387 . S
C110 N113 1.341 . S
C111 C109 1.400 . S
C111 C110 1.387 . S
N112 Co103 2.022 . S
N112 C109 1.351 . S
N112 N113 1.365 . S
N113 C110 1.341 . S
N113 N112 1.365 . S
N113 H133 0.862 . S
C114 C109 1.501 . S
C114 H115 0.961 . S
C114 H116 0.961 . S
C114 H117 0.960 . S
H115 C114 0.961 . S
H116 C114 0.961 . S
H117 C114 0.960 . S
C118 N119 1.342 . S
C118 C122 1.401 . S
C118 C123 1.499 . S
N119 Co102 1.989 . S
N119 C118 1.342 . S
N119 N120 1.388 . S
N120 Co103 1.993 . S
N120 N119 1.388 . S
N120 C121 1.346 . S
C121 N120 1.346 . S
C121 C122 1.396 . S
C121 C131 1.510 . S
C122 C118 1.401 . S
C122 C121 1.396 . S
C123 C118 1.499 . S
C123 H124 0.959 . S
C123 H125 0.960 . S
C123 H126 0.961 . S
H124 C123 0.959 . S
H125 C123 0.960 . S
H126 C123 0.961 . S
O127 Co102 1.967 . S
O127 C135 1.258 . S
O128 Co103 1.941 . S
O128 C135 1.266 . S
H129 C131 0.959 . S
H130 C131 0.961 . S
C131 C121 1.510 . S
C131 H129 0.959 . S
C131 H130 0.961 . S
C131 H132 0.960 . S
H132 C131 0.960 . S
H133 N113 0.862 . S
O134 Co102 1.920 . S
O134 C107 1.289 . S
C135 O127 1.258 . S
C135 O128 1.266 . S
Co136 O139 1.970 . S
Co136 N153 1.989 . S
Co136 O161 1.967 . S
Co136 O168 1.920 . S
Co137 O140 1.966 . S
Co137 N146 2.022 . S
Co137 N154 1.993 . S
Co137 O162 1.941 . S
C138 O139 1.258 . S
C138 O140 1.263 . S
O139 Co136 1.970 . S
O139 C138 1.258 . S
O140 Co137 1.966 . S
O140 C138 1.263 . S
C141 O142 1.235 . S
C141 O168 1.289 . S
O142 C141 1.235 . S
C143 C145 1.400 . S
C143 N146 1.351 . S
C143 C148 1.501 . S
C144 C145 1.387 . S
C144 N147 1.341 . S
C145 C143 1.400 . S
C145 C144 1.387 . S
N146 Co137 2.022 . S
N146 C143 1.351 . S
N146 N147 1.365 . S
N147 C144 1.341 . S
N147 N146 1.365 . S
N147 H167 0.862 . S
C148 C143 1.501 . S
C148 H149 0.961 . S
C148 H150 0.961 . S
C148 H151 0.960 . S
H149 C148 0.961 . S
H150 C148 0.961 . S
H151 C148 0.960 . S
C152 N153 1.342 . S
C152 C156 1.401 . S
C152 C157 1.499 . S
N153 Co136 1.989 . S
N153 C152 1.342 . S
N153 N154 1.388 . S
N154 Co137 1.993 . S
N154 N153 1.388 . S
N154 C155 1.346 . S
C155 N154 1.346 . S
C155 C156 1.396 . S
C155 C165 1.510 . S
C156 C152 1.401 . S
C156 C155 1.396 . S
C157 C152 1.499 . S
C157 H158 0.959 . S
C157 H159 0.960 . S
C157 H160 0.961 . S
H158 C157 0.959 . S
H159 C157 0.960 . S
H160 C157 0.961 . S
O161 Co136 1.967 . S
O161 C169 1.258 . S
O162 Co137 1.941 . S
O162 C169 1.266 . S
H163 C165 0.959 . S
H164 C165 0.961 . S
C165 C155 1.510 . S
C165 H163 0.959 . S
C165 H164 0.961 . S
C165 H166 0.960 . S
H166 C165 0.960 . S
H167 N147 0.862 . S
O168 Co136 1.920 . S
O168 C141 1.289 . S
C169 O161 1.258 . S
C169 O162 1.266 . S
Co170 O173 1.970 . S
Co170 N187 1.989 . S
Co170 O195 1.967 . S
Co170 O202 1.920 . S
Co171 O174 1.966 . S
Co171 N180 2.022 . S
Co171 N188 1.993 . S
Co171 O196 1.941 . S
C172 O173 1.258 . S
C172 O174 1.263 . S
O173 Co170 1.970 . S
O173 C172 1.258 . S
O174 Co171 1.966 . S
O174 C172 1.263 . S
C175 O176 1.235 . S
C175 O202 1.289 . S
O176 C175 1.235 . S
C177 C179 1.400 . S
C177 N180 1.351 . S
C177 C182 1.501 . S
C178 C179 1.387 . S
C178 N181 1.341 . S
C179 C177 1.400 . S
C179 C178 1.387 . S
N180 Co171 2.022 . S
N180 C177 1.351 . S
N180 N181 1.365 . S
N181 C178 1.341 . S
N181 N180 1.365 . S
N181 H201 0.862 . S
C182 C177 1.501 . S
C182 H183 0.961 . S
C182 H184 0.961 . S
C182 H185 0.960 . S
H183 C182 0.961 . S
H184 C182 0.961 . S
H185 C182 0.960 . S
C186 N187 1.342 . S
C186 C190 1.401 . S
C186 C191 1.499 . S
N187 Co170 1.989 . S
N187 C186 1.342 . S
N187 N188 1.388 . S
N188 Co171 1.993 . S
N188 N187 1.388 . S
N188 C189 1.346 . S
C189 N188 1.346 . S
C189 C190 1.396 . S
C189 C199 1.510 . S
C190 C186 1.401 . S
C190 C189 1.396 . S
C191 C186 1.499 . S
C191 H192 0.959 . S
C191 H193 0.960 . S
C191 H194 0.961 . S
H192 C191 0.959 . S
H193 C191 0.960 . S
H194 C191 0.961 . S
O195 Co170 1.967 . S
O195 C203 1.258 . S
O196 Co171 1.941 . S
O196 C203 1.266 . S
H197 C199 0.959 . S
H198 C199 0.961 . S
C199 C189 1.510 . S
C199 H197 0.959 . S
C199 H198 0.961 . S
C199 H200 0.960 . S
H200 C199 0.960 . S
H201 N181 0.862 . S
O202 Co170 1.920 . S
O202 C175 1.289 . S
C203 O195 1.258 . S
C203 O196 1.266 . S
Co204 O207 1.970 1_556 S
Co204 N221 1.989 . S
Co204 O229 1.967 1_556 S
Co204 O236 1.920 . S
Co205 O208 1.966 . S
Co205 N214 2.022 . S
Co205 N222 1.993 1_554 S
Co205 O230 1.941 . S
C206 O207 1.258 . S
C206 O208 1.263 . S
O207 Co204 1.970 1_554 S
O207 C206 1.258 . S
O208 Co205 1.966 . S
O208 C206 1.263 . S
C209 O210 1.235 . S
C209 O236 1.289 . S
O210 C209 1.235 . S
C211 C213 1.400 . S
C211 N214 1.351 . S
C211 C216 1.501 . S
C212 C213 1.387 . S
C212 N215 1.341 . S
C213 C211 1.400 . S
C213 C212 1.387 . S
N214 Co205 2.022 . S
N214 C211 1.351 . S
N214 N215 1.365 . S
N215 C212 1.341 . S
N215 N214 1.365 . S
N215 H235 0.862 . S
C216 C211 1.501 . S
C216 H217 0.961 . S
C216 H218 0.961 . S
C216 H219 0.960 . S
H217 C216 0.961 . S
H218 C216 0.961 . S
H219 C216 0.960 . S
C220 N221 1.342 . S
C220 C224 1.401 . S
C220 C225 1.499 . S
N221 Co204 1.989 . S
N221 C220 1.342 . S
N221 N222 1.388 . S
N222 Co205 1.993 1_556 S
N222 N221 1.388 . S
N222 C223 1.346 . S
C223 N222 1.346 . S
C223 C224 1.396 . S
C223 C233 1.510 1_556 S
C224 C220 1.401 . S
C224 C223 1.396 . S
C225 C220 1.499 . S
C225 H226 0.959 . S
C225 H227 0.960 . S
C225 H228 0.961 . S
H226 C225 0.959 . S
H227 C225 0.960 . S
H228 C225 0.961 . S
O229 Co204 1.967 1_554 S
O229 C237 1.258 . S
O230 Co205 1.941 . S
O230 C237 1.266 . S
H231 C233 0.958 1_556 S
H232 C233 0.961 . S
C233 C223 1.510 1_554 S
C233 H231 0.958 1_554 S
C233 H232 0.961 . S
C233 H234 0.960 . S
H234 C233 0.960 . S
H235 N215 0.862 . S
O236 Co204 1.920 . S
O236 C209 1.289 . S
C237 O229 1.258 . S
C237 O230 1.266 . S
Co238 O241 1.970 1_556 S
Co238 N255 1.989 . S
Co238 O263 1.967 1_556 S
Co238 O270 1.920 . S
Co239 O242 1.966 . S
Co239 N248 2.022 . S
Co239 N256 1.993 1_554 S
Co239 O264 1.941 . S
C240 O241 1.258 . S
C240 O242 1.263 . S
O241 Co238 1.970 1_554 S
O241 C240 1.258 . S
O242 Co239 1.966 . S
O242 C240 1.263 . S
C243 O244 1.235 . S
C243 O270 1.289 . S
O244 C243 1.235 . S
C245 C247 1.400 . S
C245 N248 1.351 . S
C245 C250 1.501 . S
C246 C247 1.387 . S
C246 N249 1.341 . S
C247 C245 1.400 . S
C247 C246 1.387 . S
N248 Co239 2.022 . S
N248 C245 1.351 . S
N248 N249 1.365 . S
N249 C246 1.341 . S
N249 N248 1.365 . S
N249 H269 0.862 . S
C250 C245 1.501 . S
C250 H251 0.961 . S
C250 H252 0.961 . S
C250 H253 0.960 . S
H251 C250 0.961 . S
H252 C250 0.961 . S
H253 C250 0.960 . S
C254 N255 1.342 . S
C254 C258 1.401 . S
C254 C259 1.499 . S
N255 Co238 1.989 . S
N255 C254 1.342 . S
N255 N256 1.388 . S
N256 Co239 1.993 1_556 S
N256 N255 1.388 . S
N256 C257 1.346 . S
C257 N256 1.346 . S
C257 C258 1.396 . S
C257 C267 1.510 1_556 S
C258 C254 1.401 . S
C258 C257 1.396 . S
C259 C254 1.499 . S
C259 H260 0.959 . S
C259 H261 0.960 . S
C259 H262 0.961 . S
H260 C259 0.959 . S
H261 C259 0.960 . S
H262 C259 0.961 . S
O263 Co238 1.967 1_554 S
O263 C271 1.258 . S
O264 Co239 1.941 . S
O264 C271 1.266 . S
H265 C267 0.958 1_556 S
H266 C267 0.961 . S
C267 C257 1.510 1_554 S
C267 H265 0.958 1_554 S
C267 H266 0.961 . S
C267 H268 0.960 . S
H268 C267 0.960 . S
H269 N249 0.862 . S
O270 Co238 1.920 . S
O270 C243 1.289 . S
C271 O263 1.258 . S
C271 O264 1.266 . S
Co272 O275 1.970 1_556 S
Co272 N289 1.989 . S
Co272 O297 1.967 1_556 S
Co272 O304 1.920 . S
Co273 O276 1.966 . S
Co273 N282 2.022 . S
Co273 N290 1.993 1_554 S
Co273 O298 1.941 . S
C274 O275 1.258 . S
C274 O276 1.263 . S
O275 Co272 1.970 1_554 S
O275 C274 1.258 . S
O276 Co273 1.966 . S
O276 C274 1.263 . S
C277 O278 1.235 . S
C277 O304 1.289 . S
O278 C277 1.235 . S
C279 C281 1.400 . S
C279 N282 1.351 . S
C279 C284 1.501 . S
C280 C281 1.387 . S
C280 N283 1.341 . S
C281 C279 1.400 . S
C281 C280 1.387 . S
N282 Co273 2.022 . S
N282 C279 1.351 . S
N282 N283 1.365 . S
N283 C280 1.341 . S
N283 N282 1.365 . S
N283 H303 0.862 . S
C284 C279 1.501 . S
C284 H285 0.961 . S
C284 H286 0.961 . S
C284 H287 0.960 . S
H285 C284 0.961 . S
H286 C284 0.961 . S
H287 C284 0.960 . S
C288 N289 1.342 . S
C288 C292 1.401 . S
C288 C293 1.499 . S
N289 Co272 1.989 . S
N289 C288 1.342 . S
N289 N290 1.388 . S
N290 Co273 1.993 1_556 S
N290 N289 1.388 . S
N290 C291 1.346 . S
C291 N290 1.346 . S
C291 C292 1.396 . S
C291 C301 1.510 1_556 S
C292 C288 1.401 . S
C292 C291 1.396 . S
C293 C288 1.499 . S
C293 H294 0.959 . S
C293 H295 0.960 . S
C293 H296 0.961 . S
H294 C293 0.959 . S
H295 C293 0.960 . S
H296 C293 0.961 . S
O297 Co272 1.967 1_554 S
O297 C305 1.258 . S
O298 Co273 1.941 . S
O298 C305 1.266 . S
H299 C301 0.958 1_556 S
H300 C301 0.961 . S
C301 C291 1.510 1_554 S
C301 H299 0.958 1_554 S
C301 H300 0.961 . S
C301 H302 0.960 . S
H302 C301 0.960 . S
H303 N283 0.862 . S
O304 Co272 1.920 . S
O304 C277 1.289 . S
C305 O297 1.258 . S
C305 O298 1.266 . S
Co306 O309 1.970 . S
Co306 N323 1.989 . S
Co306 O331 1.967 . S
Co306 O338 1.920 . S
Co307 O310 1.966 . S
Co307 N316 2.022 . S
Co307 N324 1.993 . S
Co307 O332 1.941 . S
C308 O309 1.258 . S
C308 O310 1.263 . S
O309 Co306 1.970 . S
O309 C308 1.258 . S
O310 Co307 1.966 . S
O310 C308 1.263 . S
C311 O312 1.235 . S
C311 O338 1.289 . S
O312 C311 1.235 . S
C313 C315 1.400 . S
C313 N316 1.351 . S
C313 C318 1.501 . S
C314 C315 1.387 . S
C314 N317 1.341 . S
C315 C313 1.400 . S
C315 C314 1.387 . S
N316 Co307 2.022 . S
N316 C313 1.351 . S
N316 N317 1.365 . S
N317 C314 1.341 . S
N317 N316 1.365 . S
N317 H337 0.862 . S
C318 C313 1.501 . S
C318 H319 0.961 . S
C318 H320 0.961 . S
C318 H321 0.960 . S
H319 C318 0.961 . S
H320 C318 0.961 . S
H321 C318 0.960 . S
C322 N323 1.342 . S
C322 C326 1.401 . S
C322 C327 1.499 . S
N323 Co306 1.989 . S
N323 C322 1.342 . S
N323 N324 1.388 . S
N324 Co307 1.993 . S
N324 N323 1.388 . S
N324 C325 1.346 . S
C325 N324 1.346 . S
C325 C326 1.396 . S
C325 C335 1.510 . S
C326 C322 1.401 . S
C326 C325 1.396 . S
C327 C322 1.499 . S
C327 H328 0.959 . S
C327 H329 0.960 . S
C327 H330 0.961 . S
H328 C327 0.959 . S
H329 C327 0.960 . S
H330 C327 0.961 . S
O331 Co306 1.967 . S
O331 C339 1.258 . S
O332 Co307 1.941 . S
O332 C339 1.266 . S
H333 C335 0.959 . S
H334 C335 0.961 . S
C335 C325 1.510 . S
C335 H333 0.959 . S
C335 H334 0.961 . S
C335 H336 0.960 . S
H336 C335 0.960 . S
H337 N317 0.862 . S
O338 Co306 1.920 . S
O338 C311 1.289 . S
C339 O331 1.258 . S
C339 O332 1.266 . S
Co340 O343 1.970 . S
Co340 N357 1.989 . S
Co340 O365 1.967 . S
Co340 O372 1.920 . S
Co341 O344 1.966 . S
Co341 N350 2.022 . S
Co341 N358 1.993 . S
Co341 O366 1.941 . S
C342 O343 1.258 . S
C342 O344 1.263 . S
O343 Co340 1.970 . S
O343 C342 1.258 . S
O344 Co341 1.966 . S
O344 C342 1.263 . S
C345 O346 1.235 . S
C345 O372 1.289 . S
O346 C345 1.235 . S
C347 C349 1.400 . S
C347 N350 1.351 . S
C347 C352 1.501 . S
C348 C349 1.387 . S
C348 N351 1.341 . S
C349 C347 1.400 . S
C349 C348 1.387 . S
N350 Co341 2.022 . S
N350 C347 1.351 . S
N350 N351 1.365 . S
N351 C348 1.341 . S
N351 N350 1.365 . S
N351 H371 0.862 . S
C352 C347 1.501 . S
C352 H353 0.961 . S
C352 H354 0.961 . S
C352 H355 0.960 . S
H353 C352 0.961 . S
H354 C352 0.961 . S
H355 C352 0.960 . S
C356 N357 1.342 . S
C356 C360 1.401 . S
C356 C361 1.499 . S
N357 Co340 1.989 . S
N357 C356 1.342 . S
N357 N358 1.388 . S
N358 Co341 1.993 . S
N358 N357 1.388 . S
N358 C359 1.346 . S
C359 N358 1.346 . S
C359 C360 1.396 . S
C359 C369 1.510 . S
C360 C356 1.401 . S
C360 C359 1.396 . S
C361 C356 1.499 . S
C361 H362 0.959 . S
C361 H363 0.960 . S
C361 H364 0.961 . S
H362 C361 0.959 . S
H363 C361 0.960 . S
H364 C361 0.961 . S
O365 Co340 1.967 . S
O365 C373 1.258 . S
O366 Co341 1.941 . S
O366 C373 1.266 . S
H367 C369 0.959 . S
H368 C369 0.961 . S
C369 C359 1.510 . S
C369 H367 0.959 . S
C369 H368 0.961 . S
C369 H370 0.960 . S
H370 C369 0.960 . S
H371 N351 0.862 . S
O372 Co340 1.920 . S
O372 C345 1.289 . S
C373 O365 1.258 . S
C373 O366 1.266 . S
Co374 O377 1.970 . S
Co374 N391 1.989 . S
Co374 O399 1.967 . S
Co374 O406 1.920 . S
Co375 O378 1.966 . S
Co375 N384 2.022 . S
Co375 N392 1.993 . S
Co375 O400 1.941 . S
C376 O377 1.258 . S
C376 O378 1.263 . S
O377 Co374 1.970 . S
O377 C376 1.258 . S
O378 Co375 1.966 . S
O378 C376 1.263 . S
C379 O380 1.235 . S
C379 O406 1.289 . S
O380 C379 1.235 . S
C381 C383 1.400 . S
C381 N384 1.351 . S
C381 C386 1.501 . S
C382 C383 1.387 . S
C382 N385 1.341 . S
C383 C381 1.400 . S
C383 C382 1.387 . S
N384 Co375 2.022 . S
N384 C381 1.351 . S
N384 N385 1.365 . S
N385 C382 1.341 . S
N385 N384 1.365 . S
N385 H405 0.862 . S
C386 C381 1.501 . S
C386 H387 0.961 . S
C386 H388 0.961 . S
C386 H389 0.960 . S
H387 C386 0.961 . S
H388 C386 0.961 . S
H389 C386 0.960 . S
C390 N391 1.342 . S
C390 C394 1.401 . S
C390 C395 1.499 . S
N391 Co374 1.989 . S
N391 C390 1.342 . S
N391 N392 1.388 . S
N392 Co375 1.993 . S
N392 N391 1.388 . S
N392 C393 1.346 . S
C393 N392 1.346 . S
C393 C394 1.396 . S
C393 C403 1.510 . S
C394 C390 1.401 . S
C394 C393 1.396 . S
C395 C390 1.499 . S
C395 H396 0.959 . S
C395 H397 0.960 . S
C395 H398 0.961 . S
H396 C395 0.959 . S
H397 C395 0.960 . S
H398 C395 0.961 . S
O399 Co374 1.967 . S
O399 C407 1.258 . S
O400 Co375 1.941 . S
O400 C407 1.266 . S
H401 C403 0.959 . S
H402 C403 0.961 . S
C403 C393 1.510 . S
C403 H401 0.959 . S
C403 H402 0.961 . S
C403 H404 0.960 . S
H404 C403 0.960 . S
H405 N385 0.862 . S
O406 Co374 1.920 . S
O406 C379 1.289 . S
C407 O399 1.258 . S
C407 O400 1.266 . S
Co408 O411 1.970 . S
Co408 N425 1.989 . S
Co408 O433 1.967 . S
Co408 O440 1.920 . S
Co409 O412 1.966 . S
Co409 N418 2.022 . S
Co409 N426 1.993 . S
Co409 O434 1.941 . S
C410 O411 1.258 . S
C410 O412 1.263 . S
O411 Co408 1.970 . S
O411 C410 1.258 . S
O412 Co409 1.966 . S
O412 C410 1.263 . S
C413 O414 1.235 . S
C413 O440 1.289 . S
O414 C413 1.235 . S
C415 C417 1.400 . S
C415 N418 1.351 . S
C415 C420 1.501 . S
C416 C417 1.387 . S
C416 N419 1.341 . S
C417 C415 1.400 . S
C417 C416 1.387 . S
N418 Co409 2.022 . S
N418 C415 1.351 . S
N418 N419 1.365 . S
N419 C416 1.341 . S
N419 N418 1.365 . S
N419 H439 0.862 . S
C420 C415 1.501 . S
C420 H421 0.961 . S
C420 H422 0.961 . S
C420 H423 0.960 . S
H421 C420 0.961 . S
H422 C420 0.961 . S
H423 C420 0.960 . S
C424 N425 1.342 . S
C424 C428 1.401 . S
C424 C429 1.499 . S
N425 Co408 1.989 . S
N425 C424 1.342 . S
N425 N426 1.388 . S
N426 Co409 1.993 . S
N426 N425 1.388 . S
N426 C427 1.346 . S
C427 N426 1.346 . S
C427 C428 1.396 . S
C427 C437 1.510 . S
C428 C424 1.401 . S
C428 C427 1.396 . S
C429 C424 1.499 . S
C429 H430 0.959 . S
C429 H431 0.960 . S
C429 H432 0.961 . S
H430 C429 0.959 . S
H431 C429 0.960 . S
H432 C429 0.961 . S
O433 Co408 1.967 . S
O433 C441 1.258 . S
O434 Co409 1.941 . S
O434 C441 1.266 . S
H435 C437 0.959 . S
H436 C437 0.961 . S
C437 C427 1.510 . S
C437 H435 0.959 . S
C437 H436 0.961 . S
C437 H438 0.960 . S
H438 C437 0.960 . S
H439 N419 0.862 . S
O440 Co408 1.920 . S
O440 C413 1.289 . S
C441 O433 1.258 . S
C441 O434 1.266 . S
Co442 O445 1.970 . S
Co442 N459 1.989 . S
Co442 O467 1.967 . S
Co442 O474 1.920 . S
Co443 O446 1.966 . S
Co443 N452 2.022 . S
Co443 N460 1.993 . S
Co443 O468 1.941 . S
C444 O445 1.258 . S
C444 O446 1.263 . S
O445 Co442 1.970 . S
O445 C444 1.258 . S
O446 Co443 1.966 . S
O446 C444 1.263 . S
C447 O448 1.235 . S
C447 O474 1.289 . S
O448 C447 1.235 . S
C449 C451 1.400 . S
C449 N452 1.351 . S
C449 C454 1.501 . S
C450 C451 1.387 . S
C450 N453 1.341 . S
C451 C449 1.400 . S
C451 C450 1.387 . S
N452 Co443 2.022 . S
N452 C449 1.351 . S
N452 N453 1.365 . S
N453 C450 1.341 . S
N453 N452 1.365 . S
N453 H473 0.862 . S
C454 C449 1.501 . S
C454 H455 0.961 . S
C454 H456 0.961 . S
C454 H457 0.960 . S
H455 C454 0.961 . S
H456 C454 0.961 . S
H457 C454 0.960 . S
C458 N459 1.342 . S
C458 C462 1.401 . S
C458 C463 1.499 . S
N459 Co442 1.989 . S
N459 C458 1.342 . S
N459 N460 1.388 . S
N460 Co443 1.993 . S
N460 N459 1.388 . S
N460 C461 1.346 . S
C461 N460 1.346 . S
C461 C462 1.396 . S
C461 C471 1.510 . S
C462 C458 1.401 . S
C462 C461 1.396 . S
C463 C458 1.499 . S
C463 H464 0.959 . S
C463 H465 0.960 . S
C463 H466 0.961 . S
H464 C463 0.959 . S
H465 C463 0.960 . S
H466 C463 0.961 . S
O467 Co442 1.967 . S
O467 C475 1.258 . S
O468 Co443 1.941 . S
O468 C475 1.266 . S
H469 C471 0.959 . S
H470 C471 0.961 . S
C471 C461 1.510 . S
C471 H469 0.959 . S
C471 H470 0.961 . S
C471 H472 0.960 . S
H472 C471 0.960 . S
H473 N453 0.862 . S
O474 Co442 1.920 . S
O474 C447 1.289 . S
C475 O467 1.258 . S
C475 O468 1.266 . S
Co476 O479 1.970 . S
Co476 N493 1.989 . S
Co476 O501 1.967 . S
Co476 O508 1.920 . S
Co477 O480 1.966 . S
Co477 N486 2.022 . S
Co477 N494 1.993 . S
Co477 O502 1.941 . S
C478 O479 1.258 . S
C478 O480 1.263 . S
O479 Co476 1.970 . S
O479 C478 1.258 . S
O480 Co477 1.966 . S
O480 C478 1.263 . S
C481 O482 1.235 . S
C481 O508 1.289 . S
O482 C481 1.235 . S
C483 C485 1.400 . S
C483 N486 1.351 . S
C483 C488 1.501 . S
C484 C485 1.387 . S
C484 N487 1.341 . S
C485 C483 1.400 . S
C485 C484 1.387 . S
N486 Co477 2.022 . S
N486 C483 1.351 . S
N486 N487 1.365 . S
N487 C484 1.341 . S
N487 N486 1.365 . S
N487 H507 0.862 . S
C488 C483 1.501 . S
C488 H489 0.961 . S
C488 H490 0.961 . S
C488 H491 0.960 . S
H489 C488 0.961 . S
H490 C488 0.961 . S
H491 C488 0.960 . S
C492 N493 1.342 . S
C492 C496 1.401 . S
C492 C497 1.499 . S
N493 Co476 1.989 . S
N493 C492 1.342 . S
N493 N494 1.388 . S
N494 Co477 1.993 . S
N494 N493 1.388 . S
N494 C495 1.346 . S
C495 N494 1.346 . S
C495 C496 1.396 . S
C495 C505 1.510 . S
C496 C492 1.401 . S
C496 C495 1.396 . S
C497 C492 1.499 . S
C497 H498 0.959 . S
C497 H499 0.960 . S
C497 H500 0.961 . S
H498 C497 0.959 . S
H499 C497 0.960 . S
H500 C497 0.961 . S
O501 Co476 1.967 . S
O501 C509 1.258 . S
O502 Co477 1.941 . S
O502 C509 1.266 . S
H503 C505 0.959 . S
H504 C505 0.961 . S
C505 C495 1.510 . S
C505 H503 0.959 . S
C505 H504 0.961 . S
C505 H506 0.960 . S
H506 C505 0.960 . S
H507 N487 0.862 . S
O508 Co476 1.920 . S
O508 C481 1.289 . S
C509 O501 1.258 . S
C509 O502 1.266 . S
Co510 O513 1.970 . S
Co510 N527 1.989 . S
Co510 O535 1.967 . S
Co510 O542 1.920 . S
Co511 O514 1.966 . S
Co511 N520 2.029 . S
Co511 N528 1.993 . S
Co511 O536 1.941 . S
C512 O513 1.258 . S
C512 O514 1.263 . S
O513 Co510 1.970 . S
O513 C512 1.258 . S
O514 Co511 1.966 . S
O514 C512 1.263 . S
C515 O516 1.235 . S
C515 O542 1.289 . S
O516 C515 1.235 . S
C517 C519 1.400 . S
C517 N520 1.344 1_554 S
C517 C522 1.501 . S
C518 C519 1.387 . S
C518 N521 1.341 1_554 S
C519 C517 1.400 . S
C519 C518 1.387 . S
N520 Co511 2.029 . S
N520 C517 1.344 1_556 S
N520 N521 1.366 . S
N521 C518 1.341 1_556 S
N521 N520 1.366 . S
N521 H541 0.862 . S
C522 C517 1.501 . S
C522 H523 0.961 . S
C522 H524 0.961 . S
C522 H525 0.960 . S
H523 C522 0.961 . S
H524 C522 0.961 . S
H525 C522 0.960 . S
C526 N527 1.342 . S
C526 C530 1.401 . S
C526 C531 1.499 . S
N527 Co510 1.989 . S
N527 C526 1.342 . S
N527 N528 1.388 . S
N528 Co511 1.993 . S
N528 N527 1.388 . S
N528 C529 1.346 . S
C529 N528 1.346 . S
C529 C530 1.396 . S
C529 C539 1.510 . S
C530 C526 1.401 . S
C530 C529 1.396 . S
C531 C526 1.499 . S
C531 H532 0.959 . S
C531 H533 0.960 . S
C531 H534 0.961 . S
H532 C531 0.959 . S
H533 C531 0.960 . S
H534 C531 0.961 . S
O535 Co510 1.967 . S
O535 C543 1.258 . S
O536 Co511 1.941 . S
O536 C543 1.266 . S
H537 C539 0.959 . S
H538 C539 0.961 . S
C539 C529 1.510 . S
C539 H537 0.959 . S
C539 H538 0.961 . S
C539 H540 0.960 . S
H540 C539 0.960 . S
H541 N521 0.862 . S
O542 Co510 1.920 . S
O542 C515 1.289 . S
C543 O535 1.258 . S
C543 O536 1.266 . S
Co544 O547 1.970 . S
Co544 N561 1.989 . S
Co544 O569 1.967 . S
Co544 O576 1.920 . S
Co545 O548 1.966 . S
Co545 N554 2.029 . S
Co545 N562 1.993 . S
Co545 O570 1.941 . S
C546 O547 1.258 . S
C546 O548 1.263 . S
O547 Co544 1.970 . S
O547 C546 1.258 . S
O548 Co545 1.966 . S
O548 C546 1.263 . S
C549 O550 1.235 . S
C549 O576 1.289 . S
O550 C549 1.235 . S
C551 C553 1.400 . S
C551 N554 1.345 1_554 S
C551 C556 1.501 . S
C552 C553 1.387 . S
C552 N555 1.341 1_554 S
C553 C551 1.400 . S
C553 C552 1.387 . S
N554 Co545 2.029 . S
N554 C551 1.345 1_556 S
N554 N555 1.366 . S
N555 C552 1.341 1_556 S
N555 N554 1.366 . S
N555 H575 0.862 . S
C556 C551 1.501 . S
C556 H557 0.961 . S
C556 H558 0.961 . S
C556 H559 0.960 . S
H557 C556 0.961 . S
H558 C556 0.961 . S
H559 C556 0.960 . S
C560 N561 1.342 . S
C560 C564 1.401 . S
C560 C565 1.499 . S
N561 Co544 1.989 . S
N561 C560 1.342 . S
N561 N562 1.388 . S
N562 Co545 1.993 . S
N562 N561 1.388 . S
N562 C563 1.346 . S
C563 N562 1.346 . S
C563 C564 1.396 . S
C563 C573 1.510 . S
C564 C560 1.401 . S
C564 C563 1.396 . S
C565 C560 1.499 . S
C565 H566 0.959 . S
C565 H567 0.960 . S
C565 H568 0.961 . S
H566 C565 0.959 . S
H567 C565 0.960 . S
H568 C565 0.961 . S
O569 Co544 1.967 . S
O569 C577 1.258 . S
O570 Co545 1.941 . S
O570 C577 1.266 . S
H571 C573 0.959 . S
H572 C573 0.961 . S
C573 C563 1.510 . S
C573 H571 0.959 . S
C573 H572 0.961 . S
C573 H574 0.960 . S
H574 C573 0.960 . S
H575 N555 0.862 . S
O576 Co544 1.920 . S
O576 C549 1.289 . S
C577 O569 1.258 . S
C577 O570 1.266 . S
Co578 O581 1.970 . S
Co578 N595 1.989 . S
Co578 O603 1.967 . S
Co578 O610 1.920 . S
Co579 O582 1.966 . S
Co579 N588 2.029 . S
Co579 N596 1.993 . S
Co579 O604 1.941 . S
C580 O581 1.258 . S
C580 O582 1.263 . S
O581 Co578 1.970 . S
O581 C580 1.258 . S
O582 Co579 1.966 . S
O582 C580 1.263 . S
C583 O584 1.235 . S
C583 O610 1.289 . S
O584 C583 1.235 . S
C585 C587 1.400 . S
C585 N588 1.344 1_554 S
C585 C590 1.501 . S
C586 C587 1.387 . S
C586 N589 1.341 1_554 S
C587 C585 1.400 . S
C587 C586 1.387 . S
N588 Co579 2.029 . S
N588 C585 1.344 1_556 S
N588 N589 1.366 . S
N589 C586 1.341 1_556 S
N589 N588 1.366 . S
N589 H609 0.862 . S
C590 C585 1.501 . S
C590 H591 0.961 . S
C590 H592 0.961 . S
C590 H593 0.960 . S
H591 C590 0.961 . S
H592 C590 0.961 . S
H593 C590 0.960 . S
C594 N595 1.342 . S
C594 C598 1.401 . S
C594 C599 1.499 . S
N595 Co578 1.989 . S
N595 C594 1.342 . S
N595 N596 1.388 . S
N596 Co579 1.993 . S
N596 N595 1.388 . S
N596 C597 1.346 . S
C597 N596 1.346 . S
C597 C598 1.396 . S
C597 C607 1.510 . S
C598 C594 1.401 . S
C598 C597 1.396 . S
C599 C594 1.499 . S
C599 H600 0.959 . S
C599 H601 0.960 . S
C599 H602 0.961 . S
H600 C599 0.959 . S
H601 C599 0.960 . S
H602 C599 0.961 . S
O603 Co578 1.967 . S
O603 C611 1.258 . S
O604 Co579 1.941 . S
O604 C611 1.266 . S
H605 C607 0.959 . S
H606 C607 0.961 . S
C607 C597 1.510 . S
C607 H605 0.959 . S
C607 H606 0.961 . S
C607 H608 0.960 . S
H608 C607 0.960 . S
H609 N589 0.862 . S
O610 Co578 1.920 . S
O610 C583 1.289 . S
C611 O603 1.258 . S
C611 O604 1.266 . S
Co612 O615 1.970 . S
Co612 N629 1.989 . S
Co612 O637 1.967 . S
Co612 O644 1.920 . S
Co613 O616 1.966 . S
Co613 N622 2.022 . S
Co613 N630 1.993 . S
Co613 O638 1.941 . S
C614 O615 1.258 . S
C614 O616 1.263 . S
O615 Co612 1.970 . S
O615 C614 1.258 . S
O616 Co613 1.966 . S
O616 C614 1.263 . S
C617 O618 1.235 . S
C617 O644 1.289 . S
O618 C617 1.235 . S
C619 C621 1.400 . S
C619 N622 1.351 . S
C619 C624 1.501 . S
C620 C621 1.387 . S
C620 N623 1.341 . S
C621 C619 1.400 . S
C621 C620 1.387 . S
N622 Co613 2.022 . S
N622 C619 1.351 . S
N622 N623 1.365 . S
N623 C620 1.341 . S
N623 N622 1.365 . S
N623 H643 0.862 . S
C624 C619 1.501 . S
C624 H625 0.961 . S
C624 H626 0.961 . S
C624 H627 0.960 . S
H625 C624 0.961 . S
H626 C624 0.961 . S
H627 C624 0.960 . S
C628 N629 1.342 . S
C628 C632 1.401 . S
C628 C633 1.499 . S
N629 Co612 1.989 . S
N629 C628 1.342 . S
N629 N630 1.388 . S
N630 Co613 1.993 . S
N630 N629 1.388 . S
N630 C631 1.346 . S
C631 N630 1.346 . S
C631 C632 1.396 . S
C631 C641 1.510 . S
C632 C628 1.401 . S
C632 C631 1.396 . S
C633 C628 1.499 . S
C633 H634 0.959 . S
C633 H635 0.960 . S
C633 H636 0.961 . S
H634 C633 0.959 . S
H635 C633 0.960 . S
H636 C633 0.961 . S
O637 Co612 1.967 . S
O637 C645 1.258 . S
O638 Co613 1.941 . S
O638 C645 1.266 . S
H639 C641 0.959 . S
H640 C641 0.961 . S
C641 C631 1.510 . S
C641 H639 0.959 . S
C641 H640 0.961 . S
C641 H642 0.960 . S
H642 C641 0.960 . S
H643 N623 0.862 . S
O644 Co612 1.920 . S
O644 C617 1.289 . S
C645 O637 1.258 . S
C645 O638 1.266 . S
Co646 O649 1.970 . S
Co646 N663 1.989 . S
Co646 O671 1.967 . S
Co646 O678 1.920 . S
Co647 O650 1.966 . S
Co647 N656 2.022 . S
Co647 N664 1.993 . S
Co647 O672 1.941 . S
C648 O649 1.258 . S
C648 O650 1.263 . S
O649 Co646 1.970 . S
O649 C648 1.258 . S
O650 Co647 1.966 . S
O650 C648 1.263 . S
C651 O652 1.235 . S
C651 O678 1.289 . S
O652 C651 1.235 . S
C653 C655 1.400 . S
C653 N656 1.351 . S
C653 C658 1.501 . S
C654 C655 1.387 . S
C654 N657 1.341 . S
C655 C653 1.400 . S
C655 C654 1.387 . S
N656 Co647 2.022 . S
N656 C653 1.351 . S
N656 N657 1.365 . S
N657 C654 1.341 . S
N657 N656 1.365 . S
N657 H677 0.862 . S
C658 C653 1.501 . S
C658 H659 0.961 . S
C658 H660 0.961 . S
C658 H661 0.960 . S
H659 C658 0.961 . S
H660 C658 0.961 . S
H661 C658 0.960 . S
C662 N663 1.342 . S
C662 C666 1.401 . S
C662 C667 1.499 . S
N663 Co646 1.989 . S
N663 C662 1.342 . S
N663 N664 1.388 . S
N664 Co647 1.993 . S
N664 N663 1.388 . S
N664 C665 1.346 . S
C665 N664 1.346 . S
C665 C666 1.396 . S
C665 C675 1.510 . S
C666 C662 1.401 . S
C666 C665 1.396 . S
C667 C662 1.499 . S
C667 H668 0.959 . S
C667 H669 0.960 . S
C667 H670 0.961 . S
H668 C667 0.959 . S
H669 C667 0.960 . S
H670 C667 0.961 . S
O671 Co646 1.967 . S
O671 C679 1.258 . S
O672 Co647 1.941 . S
O672 C679 1.266 . S
H673 C675 0.959 . S
H674 C675 0.961 . S
C675 C665 1.510 . S
C675 H673 0.959 . S
C675 H674 0.961 . S
C675 H676 0.960 . S
H676 C675 0.960 . S
H677 N657 0.862 . S
O678 Co646 1.920 . S
O678 C651 1.289 . S
C679 O671 1.258 . S
C679 O672 1.266 . S
Co680 O683 1.970 . S
Co680 N697 1.989 . S
Co680 O705 1.967 . S
Co680 O712 1.920 . S
Co681 O684 1.966 . S
Co681 N690 2.022 . S
Co681 N698 1.993 . S
Co681 O706 1.941 . S
C682 O683 1.258 . S
C682 O684 1.263 . S
O683 Co680 1.970 . S
O683 C682 1.258 . S
O684 Co681 1.966 . S
O684 C682 1.263 . S
C685 O686 1.235 . S
C685 O712 1.289 . S
O686 C685 1.235 . S
C687 C689 1.400 . S
C687 N690 1.351 . S
C687 C692 1.501 . S
C688 C689 1.387 . S
C688 N691 1.341 . S
C689 C687 1.400 . S
C689 C688 1.387 . S
N690 Co681 2.022 . S
N690 C687 1.351 . S
N690 N691 1.365 . S
N691 C688 1.341 . S
N691 N690 1.365 . S
N691 H711 0.862 . S
C692 C687 1.501 . S
C692 H693 0.961 . S
C692 H694 0.961 . S
C692 H695 0.960 . S
H693 C692 0.961 . S
H694 C692 0.961 . S
H695 C692 0.960 . S
C696 N697 1.342 . S
C696 C700 1.401 . S
C696 C701 1.499 . S
N697 Co680 1.989 . S
N697 C696 1.342 . S
N697 N698 1.388 . S
N698 Co681 1.993 . S
N698 N697 1.388 . S
N698 C699 1.346 . S
C699 N698 1.346 . S
C699 C700 1.396 . S
C699 C709 1.510 . S
C700 C696 1.401 . S
C700 C699 1.396 . S
C701 C696 1.499 . S
C701 H702 0.959 . S
C701 H703 0.960 . S
C701 H704 0.961 . S
H702 C701 0.959 . S
H703 C701 0.960 . S
H704 C701 0.961 . S
O705 Co680 1.967 . S
O705 C713 1.258 . S
O706 Co681 1.941 . S
O706 C713 1.266 . S
H707 C709 0.959 . S
H708 C709 0.961 . S
C709 C699 1.510 . S
C709 H707 0.959 . S
C709 H708 0.961 . S
C709 H710 0.960 . S
H710 C709 0.960 . S
H711 N691 0.862 . S
O712 Co680 1.920 . S
O712 C685 1.289 . S
C713 O705 1.258 . S
C713 O706 1.266 . S
Co714 O717 1.970 . S
Co714 N731 1.989 1_556 S
Co714 O739 1.967 . S
Co714 O746 1.920 1_556 S
Co715 O718 1.966 . S
Co715 N724 2.022 . S
Co715 N732 1.993 . S
Co715 O740 1.941 . S
C716 O717 1.258 . S
C716 O718 1.263 . S
O717 Co714 1.970 . S
O717 C716 1.258 . S
O718 Co715 1.966 . S
O718 C716 1.263 . S
C719 O720 1.235 . S
C719 O746 1.289 . S
O720 C719 1.235 . S
C721 C723 1.400 . S
C721 N724 1.351 . S
C721 C726 1.501 . S
C722 C723 1.387 . S
C722 N725 1.341 . S
C723 C721 1.400 . S
C723 C722 1.387 . S
N724 Co715 2.022 . S
N724 C721 1.351 . S
N724 N725 1.365 . S
N725 C722 1.341 . S
N725 N724 1.365 . S
N725 H745 0.862 . S
C726 C721 1.501 . S
C726 H727 0.961 . S
C726 H728 0.961 . S
C726 H729 0.960 . S
H727 C726 0.961 . S
H728 C726 0.961 . S
H729 C726 0.960 . S
C730 N731 1.342 . S
C730 C734 1.401 . S
C730 C735 1.499 . S
N731 Co714 1.989 1_554 S
N731 C730 1.342 . S
N731 N732 1.388 1_554 S
N732 Co715 1.993 . S
N732 N731 1.388 1_556 S
N732 C733 1.346 . S
C733 N732 1.346 . S
C733 C734 1.396 1_556 S
C733 C743 1.510 . S
C734 C730 1.401 . S
C734 C733 1.396 1_554 S
C735 C730 1.499 . S
C735 H736 0.959 . S
C735 H737 0.960 . S
C735 H738 0.961 . S
H736 C735 0.959 . S
H737 C735 0.960 . S
H738 C735 0.961 . S
O739 Co714 1.967 . S
O739 C747 1.258 . S
O740 Co715 1.941 . S
O740 C747 1.266 . S
H741 C743 0.959 . S
H742 C743 0.961 . S
C743 C733 1.510 . S
C743 H741 0.959 . S
C743 H742 0.961 . S
C743 H744 0.960 . S
H744 C743 0.960 . S
H745 N725 0.862 . S
O746 Co714 1.920 1_554 S
O746 C719 1.289 . S
C747 O739 1.258 . S
C747 O740 1.266 . S
Co748 O751 1.970 . S
Co748 N765 1.989 1_556 S
Co748 O773 1.967 . S
Co748 O780 1.920 1_556 S
Co749 O752 1.966 . S
Co749 N758 2.022 . S
Co749 N766 1.993 . S
Co749 O774 1.941 . S
C750 O751 1.258 . S
C750 O752 1.263 . S
O751 Co748 1.970 . S
O751 C750 1.258 . S
O752 Co749 1.966 . S
O752 C750 1.263 . S
C753 O754 1.235 . S
C753 O780 1.289 . S
O754 C753 1.235 . S
C755 C757 1.400 . S
C755 N758 1.351 . S
C755 C760 1.501 . S
C756 C757 1.387 . S
C756 N759 1.341 . S
C757 C755 1.400 . S
C757 C756 1.387 . S
N758 Co749 2.022 . S
N758 C755 1.351 . S
N758 N759 1.365 . S
N759 C756 1.341 . S
N759 N758 1.365 . S
N759 H779 0.862 . S
C760 C755 1.501 . S
C760 H761 0.961 . S
C760 H762 0.961 . S
C760 H763 0.960 . S
H761 C760 0.961 . S
H762 C760 0.961 . S
H763 C760 0.960 . S
C764 N765 1.342 . S
C764 C768 1.401 . S
C764 C769 1.499 . S
N765 Co748 1.989 1_554 S
N765 C764 1.342 . S
N765 N766 1.388 1_554 S
N766 Co749 1.993 . S
N766 N765 1.388 1_556 S
N766 C767 1.346 . S
C767 N766 1.346 . S
C767 C768 1.396 1_556 S
C767 C777 1.510 . S
C768 C764 1.401 . S
C768 C767 1.396 1_554 S
C769 C764 1.499 . S
C769 H770 0.959 . S
C769 H771 0.960 . S
C769 H772 0.961 . S
H770 C769 0.959 . S
H771 C769 0.960 . S
H772 C769 0.961 . S
O773 Co748 1.967 . S
O773 C781 1.258 . S
O774 Co749 1.941 . S
O774 C781 1.266 . S
H775 C777 0.959 . S
H776 C777 0.961 . S
C777 C767 1.510 . S
C777 H775 0.959 . S
C777 H776 0.961 . S
C777 H778 0.960 . S
H778 C777 0.960 . S
H779 N759 0.862 . S
O780 Co748 1.920 1_554 S
O780 C753 1.289 . S
C781 O773 1.258 . S
C781 O774 1.266 . S
Co782 O785 1.970 . S
Co782 N799 1.989 1_556 S
Co782 O807 1.967 . S
Co782 O814 1.920 1_556 S
Co783 O786 1.966 . S
Co783 N792 2.022 . S
Co783 N800 1.993 . S
Co783 O808 1.941 . S
C784 O785 1.258 . S
C784 O786 1.263 . S
O785 Co782 1.970 . S
O785 C784 1.258 . S
O786 Co783 1.966 . S
O786 C784 1.263 . S
C787 O788 1.235 . S
C787 O814 1.289 . S
O788 C787 1.235 . S
C789 C791 1.400 . S
C789 N792 1.351 . S
C789 C794 1.501 . S
C790 C791 1.387 . S
C790 N793 1.341 . S
C791 C789 1.400 . S
C791 C790 1.387 . S
N792 Co783 2.022 . S
N792 C789 1.351 . S
N792 N793 1.365 . S
N793 C790 1.341 . S
N793 N792 1.365 . S
N793 H813 0.862 . S
C794 C789 1.501 . S
C794 H795 0.961 . S
C794 H796 0.961 . S
C794 H797 0.960 . S
H795 C794 0.961 . S
H796 C794 0.961 . S
H797 C794 0.960 . S
C798 N799 1.342 . S
C798 C802 1.401 . S
C798 C803 1.499 . S
N799 Co782 1.989 1_554 S
N799 C798 1.342 . S
N799 N800 1.388 1_554 S
N800 Co783 1.993 . S
N800 N799 1.388 1_556 S
N800 C801 1.346 . S
C801 N800 1.346 . S
C801 C802 1.396 1_556 S
C801 C811 1.510 . S
C802 C798 1.401 . S
C802 C801 1.396 1_554 S
C803 C798 1.499 . S
C803 H804 0.959 . S
C803 H805 0.960 . S
C803 H806 0.961 . S
H804 C803 0.959 . S
H805 C803 0.960 . S
H806 C803 0.961 . S
O807 Co782 1.967 . S
O807 C815 1.258 . S
O808 Co783 1.941 . S
O808 C815 1.266 . S
H809 C811 0.959 . S
H810 C811 0.961 . S
C811 C801 1.510 . S
C811 H809 0.959 . S
C811 H810 0.961 . S
C811 H812 0.960 . S
H812 C811 0.960 . S
H813 N793 0.862 . S
O814 Co782 1.920 1_554 S
O814 C787 1.289 . S
C815 O807 1.258 . S
C815 O808 1.266 . S
Co816 O819 1.970 . S
Co816 N833 1.989 . S
Co816 O841 1.967 . S
Co816 O848 1.920 . S
Co817 O820 1.966 . S
Co817 N826 2.022 . S
Co817 N834 1.993 . S
Co817 O842 1.941 . S
C818 O819 1.258 . S
C818 O820 1.263 . S
O819 Co816 1.970 . S
O819 C818 1.258 . S
O820 Co817 1.966 . S
O820 C818 1.263 . S
C821 O822 1.235 . S
C821 O848 1.289 . S
O822 C821 1.235 . S
C823 C825 1.400 . S
C823 N826 1.351 . S
C823 C828 1.501 . S
C824 C825 1.387 . S
C824 N827 1.341 . S
C825 C823 1.400 . S
C825 C824 1.387 . S
N826 Co817 2.022 . S
N826 C823 1.351 . S
N826 N827 1.365 . S
N827 C824 1.341 . S
N827 N826 1.365 . S
N827 H847 0.862 . S
C828 C823 1.501 . S
C828 H829 0.961 . S
C828 H830 0.961 . S
C828 H831 0.960 . S
H829 C828 0.961 . S
H830 C828 0.961 . S
H831 C828 0.960 . S
C832 N833 1.342 . S
C832 C836 1.401 . S
C832 C837 1.499 . S
N833 Co816 1.989 . S
N833 C832 1.342 . S
N833 N834 1.388 . S
N834 Co817 1.993 . S
N834 N833 1.388 . S
N834 C835 1.346 . S
C835 N834 1.346 . S
C835 C836 1.396 . S
C835 C845 1.510 . S
C836 C832 1.401 . S
C836 C835 1.396 . S
C837 C832 1.499 . S
C837 H838 0.959 . S
C837 H839 0.960 . S
C837 H840 0.961 1_556 S
H838 C837 0.959 . S
H839 C837 0.960 . S
H840 C837 0.961 1_554 S
O841 Co816 1.967 . S
O841 C849 1.258 . S
O842 Co817 1.941 . S
O842 C849 1.266 . S
H843 C845 0.959 . S
H844 C845 0.961 . S
C845 C835 1.510 . S
C845 H843 0.959 . S
C845 H844 0.961 . S
C845 H846 0.960 . S
H846 C845 0.960 . S
H847 N827 0.862 . S
O848 Co816 1.920 . S
O848 C821 1.289 . S
C849 O841 1.258 . S
C849 O842 1.266 . S
Co850 O853 1.970 . S
Co850 N867 1.989 . S
Co850 O875 1.967 . S
Co850 O882 1.920 . S
Co851 O854 1.966 . S
Co851 N860 2.022 . S
Co851 N868 1.993 . S
Co851 O876 1.941 . S
C852 O853 1.258 . S
C852 O854 1.263 . S
O853 Co850 1.970 . S
O853 C852 1.258 . S
O854 Co851 1.966 . S
O854 C852 1.263 . S
C855 O856 1.235 . S
C855 O882 1.289 . S
O856 C855 1.235 . S
C857 C859 1.400 . S
C857 N860 1.351 . S
C857 C862 1.501 . S
C858 C859 1.387 . S
C858 N861 1.341 . S
C859 C857 1.400 . S
C859 C858 1.387 . S
N860 Co851 2.022 . S
N860 C857 1.351 . S
N860 N861 1.365 . S
N861 C858 1.341 . S
N861 N860 1.365 . S
N861 H881 0.862 . S
C862 C857 1.501 . S
C862 H863 0.961 . S
C862 H864 0.961 . S
C862 H865 0.960 . S
H863 C862 0.961 . S
H864 C862 0.961 . S
H865 C862 0.960 . S
C866 N867 1.342 . S
C866 C870 1.401 . S
C866 C871 1.499 . S
N867 Co850 1.989 . S
N867 C866 1.342 . S
N867 N868 1.388 . S
N868 Co851 1.993 . S
N868 N867 1.388 . S
N868 C869 1.346 . S
C869 N868 1.346 . S
C869 C870 1.396 . S
C869 C879 1.510 . S
C870 C866 1.401 . S
C870 C869 1.396 . S
C871 C866 1.499 . S
C871 H872 0.959 . S
C871 H873 0.960 . S
C871 H874 0.961 1_556 S
H872 C871 0.959 . S
H873 C871 0.960 . S
H874 C871 0.961 1_554 S
O875 Co850 1.967 . S
O875 C883 1.258 . S
O876 Co851 1.941 . S
O876 C883 1.266 . S
H877 C879 0.959 . S
H878 C879 0.961 . S
C879 C869 1.510 . S
C879 H877 0.959 . S
C879 H878 0.961 . S
C879 H880 0.960 . S
H880 C879 0.960 . S
H881 N861 0.862 . S
O882 Co850 1.920 . S
O882 C855 1.289 . S
C883 O875 1.258 . S
C883 O876 1.266 . S
Co884 O887 1.970 . S
Co884 N901 1.989 . S
Co884 O909 1.967 . S
Co884 O916 1.920 . S
Co885 O888 1.966 . S
Co885 N894 2.022 . S
Co885 N902 1.993 . S
Co885 O910 1.941 . S
C886 O887 1.258 . S
C886 O888 1.263 . S
O887 Co884 1.970 . S
O887 C886 1.258 . S
O888 Co885 1.966 . S
O888 C886 1.263 . S
C889 O890 1.235 . S
C889 O916 1.289 . S
O890 C889 1.235 . S
C891 C893 1.400 . S
C891 N894 1.351 . S
C891 C896 1.501 . S
C892 C893 1.387 . S
C892 N895 1.341 . S
C893 C891 1.400 . S
C893 C892 1.387 . S
N894 Co885 2.022 . S
N894 C891 1.351 . S
N894 N895 1.365 . S
N895 C892 1.341 . S
N895 N894 1.365 . S
N895 H915 0.862 . S
C896 C891 1.501 . S
C896 H897 0.961 . S
C896 H898 0.961 . S
C896 H899 0.960 . S
H897 C896 0.961 . S
H898 C896 0.961 . S
H899 C896 0.960 . S
C900 N901 1.342 . S
C900 C904 1.401 . S
C900 C905 1.499 . S
N901 Co884 1.989 . S
N901 C900 1.342 . S
N901 N902 1.388 . S
N902 Co885 1.993 . S
N902 N901 1.388 . S
N902 C903 1.346 . S
C903 N902 1.346 . S
C903 C904 1.396 . S
C903 C913 1.510 . S
C904 C900 1.401 . S
C904 C903 1.396 . S
C905 C900 1.499 . S
C905 H906 0.959 . S
C905 H907 0.960 . S
C905 H908 0.961 1_556 S
H906 C905 0.959 . S
H907 C905 0.960 . S
H908 C905 0.961 1_554 S
O909 Co884 1.967 . S
O909 C917 1.258 . S
O910 Co885 1.941 . S
O910 C917 1.266 . S
H911 C913 0.959 . S
H912 C913 0.961 . S
C913 C903 1.510 . S
C913 H911 0.959 . S
C913 H912 0.961 . S
C913 H914 0.960 . S
H914 C913 0.960 . S
H915 N895 0.862 . S
O916 Co884 1.920 . S
O916 C889 1.289 . S
C917 O909 1.258 . S
C917 O910 1.266 . S
Co918 O921 1.970 . S
Co918 N935 1.989 . S
Co918 O943 1.967 . S
Co918 O950 1.920 . S
Co919 O922 1.966 . S
Co919 N928 2.022 . S
Co919 N936 1.993 . S
Co919 O944 1.941 . S
C920 O921 1.258 . S
C920 O922 1.263 . S
O921 Co918 1.970 . S
O921 C920 1.258 . S
O922 Co919 1.966 . S
O922 C920 1.263 . S
C923 O924 1.235 . S
C923 O950 1.289 . S
O924 C923 1.235 . S
C925 C927 1.400 . S
C925 N928 1.351 . S
C925 C930 1.501 . S
C926 C927 1.387 . S
C926 N929 1.341 . S
C927 C925 1.400 . S
C927 C926 1.387 . S
N928 Co919 2.022 . S
N928 C925 1.351 . S
N928 N929 1.365 . S
N929 C926 1.341 . S
N929 N928 1.365 . S
N929 H949 0.862 . S
C930 C925 1.501 . S
C930 H931 0.961 . S
C930 H932 0.961 . S
C930 H933 0.960 . S
H931 C930 0.961 . S
H932 C930 0.961 . S
H933 C930 0.960 . S
C934 N935 1.342 . S
C934 C938 1.401 . S
C934 C939 1.499 1_554 S
N935 Co918 1.989 . S
N935 C934 1.342 . S
N935 N936 1.388 . S
N936 Co919 1.993 . S
N936 N935 1.388 . S
N936 C937 1.346 . S
C937 N936 1.346 . S
C937 C938 1.396 . S
C937 C947 1.510 . S
C938 C934 1.401 . S
C938 C937 1.396 . S
C939 C934 1.499 1_556 S
C939 H940 0.959 . S
C939 H941 0.960 . S
C939 H942 0.961 . S
H940 C939 0.959 . S
H941 C939 0.960 . S
H942 C939 0.961 . S
O943 Co918 1.967 . S
O943 C951 1.258 . S
O944 Co919 1.941 . S
O944 C951 1.266 . S
H945 C947 0.959 . S
H946 C947 0.961 . S
C947 C937 1.510 . S
C947 H945 0.959 . S
C947 H946 0.961 . S
C947 H948 0.960 . S
H948 C947 0.960 . S
H949 N929 0.862 . S
O950 Co918 1.920 . S
O950 C923 1.289 . S
C951 O943 1.258 . S
C951 O944 1.266 . S
Co952 O955 1.970 . S
Co952 N969 1.989 . S
Co952 O977 1.967 . S
Co952 O984 1.920 . S
Co953 O956 1.966 . S
Co953 N962 2.022 . S
Co953 N970 1.993 . S
Co953 O978 1.941 . S
C954 O955 1.258 . S
C954 O956 1.263 . S
O955 Co952 1.970 . S
O955 C954 1.258 . S
O956 Co953 1.966 . S
O956 C954 1.263 . S
C957 O958 1.235 . S
C957 O984 1.289 . S
O958 C957 1.235 . S
C959 C961 1.400 . S
C959 N962 1.351 . S
C959 C964 1.501 . S
C960 C961 1.387 . S
C960 N963 1.341 . S
C961 C959 1.400 . S
C961 C960 1.387 . S
N962 Co953 2.022 . S
N962 C959 1.351 . S
N962 N963 1.365 . S
N963 C960 1.341 . S
N963 N962 1.365 . S
N963 H983 0.862 . S
C964 C959 1.501 . S
C964 H965 0.961 . S
C964 H966 0.961 . S
C964 H967 0.960 . S
H965 C964 0.961 . S
H966 C964 0.961 . S
H967 C964 0.960 . S
C968 N969 1.342 . S
C968 C972 1.401 . S
C968 C973 1.499 1_554 S
N969 Co952 1.989 . S
N969 C968 1.342 . S
N969 N970 1.388 . S
N970 Co953 1.993 . S
N970 N969 1.388 . S
N970 C971 1.346 . S
C971 N970 1.346 . S
C971 C972 1.396 . S
C971 C981 1.510 . S
C972 C968 1.401 . S
C972 C971 1.396 . S
C973 C968 1.499 1_556 S
C973 H974 0.959 . S
C973 H975 0.960 . S
C973 H976 0.961 . S
H974 C973 0.959 . S
H975 C973 0.960 . S
H976 C973 0.961 . S
O977 Co952 1.967 . S
O977 C985 1.258 . S
O978 Co953 1.941 . S
O978 C985 1.266 . S
H979 C981 0.959 . S
H980 C981 0.961 . S
C981 C971 1.510 . S
C981 H979 0.959 . S
C981 H980 0.961 . S
C981 H982 0.960 . S
H982 C981 0.960 . S
H983 N963 0.862 . S
O984 Co952 1.920 . S
O984 C957 1.289 . S
C985 O977 1.258 . S
C985 O978 1.266 . S
Co986 O989 1.970 . S
Co986 N1003 1.989 . S
Co986 O1011 1.967 . S
Co986 O1018 1.920 . S
Co987 O990 1.966 . S
Co987 N996 2.022 . S
Co987 N1004 1.993 . S
Co987 O1012 1.941 . S
C988 O989 1.258 . S
C988 O990 1.263 . S
O989 Co986 1.970 . S
O989 C988 1.258 . S
O990 Co987 1.966 . S
O990 C988 1.263 . S
C991 O992 1.235 . S
C991 O1018 1.289 . S
O992 C991 1.235 . S
C993 C995 1.400 . S
C993 N996 1.351 . S
C993 C998 1.501 . S
C994 C995 1.387 . S
C994 N997 1.341 . S
C995 C993 1.400 . S
C995 C994 1.387 . S
N996 Co987 2.022 . S
N996 C993 1.351 . S
N996 N997 1.365 . S
N997 C994 1.341 . S
N997 N996 1.365 . S
N997 H1017 0.862 . S
C998 C993 1.501 . S
C998 H999 0.961 . S
C998 H1000 0.961 . S
C998 H1001 0.960 . S
H999 C998 0.961 . S
H1000 C998 0.961 . S
H1001 C998 0.960 . S
C1002 N1003 1.342 . S
C1002 C1006 1.401 . S
C1002 C1007 1.499 1_554 S
N1003 Co986 1.989 . S
N1003 C1002 1.342 . S
N1003 N1004 1.388 . S
N1004 Co987 1.993 . S
N1004 N1003 1.388 . S
N1004 C1005 1.346 . S
C1005 N1004 1.346 . S
C1005 C1006 1.396 . S
C1005 C1015 1.510 . S
C1006 C1002 1.401 . S
C1006 C1005 1.396 . S
C1007 C1002 1.499 1_556 S
C1007 H1008 0.959 . S
C1007 H1009 0.960 . S
C1007 H1010 0.961 . S
H1008 C1007 0.959 . S
H1009 C1007 0.960 . S
H1010 C1007 0.961 . S
O1011 Co986 1.967 . S
O1011 C1019 1.258 . S
O1012 Co987 1.941 . S
O1012 C1019 1.266 . S
H1013 C1015 0.959 . S
H1014 C1015 0.961 . S
C1015 C1005 1.510 . S
C1015 H1013 0.959 . S
C1015 H1014 0.961 . S
C1015 H1016 0.960 . S
H1016 C1015 0.960 . S
H1017 N997 0.862 . S
O1018 Co986 1.920 . S
O1018 C991 1.289 . S
C1019 O1011 1.258 . S
C1019 O1012 1.266 . S
Co1020 O1023 1.970 . S
Co1020 N1037 1.989 . S
Co1020 O1045 1.967 . S
Co1020 O1052 1.920 . S
Co1021 O1024 1.966 . S
Co1021 N1030 2.022 . S
Co1021 N1038 1.993 . S
Co1021 O1046 1.941 . S
C1022 O1023 1.258 . S
C1022 O1024 1.263 . S
O1023 Co1020 1.970 . S
O1023 C1022 1.258 . S
O1024 Co1021 1.966 . S
O1024 C1022 1.263 . S
C1025 O1026 1.235 . S
C1025 O1052 1.289 . S
O1026 C1025 1.235 . S
C1027 C1029 1.400 . S
C1027 N1030 1.351 . S
C1027 C1032 1.501 . S
C1028 C1029 1.387 . S
C1028 N1031 1.341 . S
C1029 C1027 1.400 . S
C1029 C1028 1.387 . S
N1030 Co1021 2.022 . S
N1030 C1027 1.351 . S
N1030 N1031 1.365 . S
N1031 C1028 1.341 . S
N1031 N1030 1.365 . S
N1031 H1051 0.862 . S
C1032 C1027 1.501 . S
C1032 H1033 0.961 . S
C1032 H1034 0.961 . S
C1032 H1035 0.960 . S
H1033 C1032 0.961 . S
H1034 C1032 0.961 . S
H1035 C1032 0.960 . S
C1036 N1037 1.342 . S
C1036 C1040 1.401 . S
C1036 C1041 1.499 . S
N1037 Co1020 1.989 . S
N1037 C1036 1.342 . S
N1037 N1038 1.388 . S
N1038 Co1021 1.993 . S
N1038 N1037 1.388 . S
N1038 C1039 1.346 . S
C1039 N1038 1.346 . S
C1039 C1040 1.396 . S
C1039 C1049 1.510 . S
C1040 C1036 1.401 . S
C1040 C1039 1.396 . S
C1041 C1036 1.499 . S
C1041 H1042 0.959 . S
C1041 H1043 0.960 . S
C1041 H1044 0.961 . S
H1042 C1041 0.959 . S
H1043 C1041 0.960 . S
H1044 C1041 0.961 . S
O1045 Co1020 1.967 . S
O1045 C1053 1.258 . S
O1046 Co1021 1.941 . S
O1046 C1053 1.266 . S
H1047 C1049 0.959 . S
H1048 C1049 0.961 . S
C1049 C1039 1.510 . S
C1049 H1047 0.959 . S
C1049 H1048 0.961 . S
C1049 H1050 0.960 . S
H1050 C1049 0.960 . S
H1051 N1031 0.862 . S
O1052 Co1020 1.920 . S
O1052 C1025 1.289 . S
C1053 O1045 1.258 . S
C1053 O1046 1.266 . S
Co1054 O1057 1.970 . S
Co1054 N1071 1.989 . S
Co1054 O1079 1.967 . S
Co1054 O1086 1.920 . S
Co1055 O1058 1.966 . S
Co1055 N1064 2.022 . S
Co1055 N1072 1.993 . S
Co1055 O1080 1.941 . S
C1056 O1057 1.258 . S
C1056 O1058 1.263 . S
O1057 Co1054 1.970 . S
O1057 C1056 1.258 . S
O1058 Co1055 1.966 . S
O1058 C1056 1.263 . S
C1059 O1060 1.235 . S
C1059 O1086 1.289 . S
O1060 C1059 1.235 . S
C1061 C1063 1.400 . S
C1061 N1064 1.351 . S
C1061 C1066 1.501 . S
C1062 C1063 1.387 . S
C1062 N1065 1.341 . S
C1063 C1061 1.400 . S
C1063 C1062 1.387 . S
N1064 Co1055 2.022 . S
N1064 C1061 1.351 . S
N1064 N1065 1.365 . S
N1065 C1062 1.341 . S
N1065 N1064 1.365 . S
N1065 H1085 0.862 . S
C1066 C1061 1.501 . S
C1066 H1067 0.961 . S
C1066 H1068 0.961 . S
C1066 H1069 0.960 . S
H1067 C1066 0.961 . S
H1068 C1066 0.961 . S
H1069 C1066 0.960 . S
C1070 N1071 1.342 . S
C1070 C1074 1.401 . S
C1070 C1075 1.499 . S
N1071 Co1054 1.989 . S
N1071 C1070 1.342 . S
N1071 N1072 1.388 . S
N1072 Co1055 1.993 . S
N1072 N1071 1.388 . S
N1072 C1073 1.346 . S
C1073 N1072 1.346 . S
C1073 C1074 1.396 . S
C1073 C1083 1.510 . S
C1074 C1070 1.401 . S
C1074 C1073 1.396 . S
C1075 C1070 1.499 . S
C1075 H1076 0.959 . S
C1075 H1077 0.960 . S
C1075 H1078 0.961 . S
H1076 C1075 0.959 . S
H1077 C1075 0.960 . S
H1078 C1075 0.961 . S
O1079 Co1054 1.967 . S
O1079 C1087 1.258 . S
O1080 Co1055 1.941 . S
O1080 C1087 1.266 . S
H1081 C1083 0.959 . S
H1082 C1083 0.961 . S
C1083 C1073 1.510 . S
C1083 H1081 0.959 . S
C1083 H1082 0.961 . S
C1083 H1084 0.960 . S
H1084 C1083 0.960 . S
H1085 N1065 0.862 . S
O1086 Co1054 1.920 . S
O1086 C1059 1.289 . S
C1087 O1079 1.258 . S
C1087 O1080 1.266 . S
Co1088 O1091 1.970 . S
Co1088 N1105 1.989 . S
Co1088 O1113 1.967 . S
Co1088 O1120 1.920 . S
Co1089 O1092 1.966 . S
Co1089 N1098 2.022 . S
Co1089 N1106 1.993 . S
Co1089 O1114 1.941 . S
C1090 O1091 1.258 . S
C1090 O1092 1.263 . S
O1091 Co1088 1.970 . S
O1091 C1090 1.258 . S
O1092 Co1089 1.966 . S
O1092 C1090 1.263 . S
C1093 O1094 1.235 . S
C1093 O1120 1.289 . S
O1094 C1093 1.235 . S
C1095 C1097 1.400 . S
C1095 N1098 1.351 . S
C1095 C1100 1.501 . S
C1096 C1097 1.387 . S
C1096 N1099 1.341 . S
C1097 C1095 1.400 . S
C1097 C1096 1.387 . S
N1098 Co1089 2.022 . S
N1098 C1095 1.351 . S
N1098 N1099 1.365 . S
N1099 C1096 1.341 . S
N1099 N1098 1.365 . S
N1099 H1119 0.862 . S
C1100 C1095 1.501 . S
C1100 H1101 0.961 . S
C1100 H1102 0.961 . S
C1100 H1103 0.960 . S
H1101 C1100 0.961 . S
H1102 C1100 0.961 . S
H1103 C1100 0.960 . S
C1104 N1105 1.342 . S
C1104 C1108 1.401 . S
C1104 C1109 1.499 . S
N1105 Co1088 1.989 . S
N1105 C1104 1.342 . S
N1105 N1106 1.388 . S
N1106 Co1089 1.993 . S
N1106 N1105 1.388 . S
N1106 C1107 1.346 . S
C1107 N1106 1.346 . S
C1107 C1108 1.396 . S
C1107 C1117 1.510 . S
C1108 C1104 1.401 . S
C1108 C1107 1.396 . S
C1109 C1104 1.499 . S
C1109 H1110 0.959 . S
C1109 H1111 0.960 . S
C1109 H1112 0.961 . S
H1110 C1109 0.959 . S
H1111 C1109 0.960 . S
H1112 C1109 0.961 . S
O1113 Co1088 1.967 . S
O1113 C1121 1.258 . S
O1114 Co1089 1.941 . S
O1114 C1121 1.266 . S
H1115 C1117 0.959 . S
H1116 C1117 0.961 . S
C1117 C1107 1.510 . S
C1117 H1115 0.959 . S
C1117 H1116 0.961 . S
C1117 H1118 0.960 . S
H1118 C1117 0.960 . S
H1119 N1099 0.862 . S
O1120 Co1088 1.920 . S
O1120 C1093 1.289 . S
C1121 O1113 1.258 . S
C1121 O1114 1.266 . S
Co1122 O1125 1.970 . S
Co1122 N1139 1.989 . S
Co1122 O1147 1.967 . S
Co1122 O1154 1.920 . S
Co1123 O1126 1.966 . S
Co1123 N1132 2.022 . S
Co1123 N1140 1.993 . S
Co1123 O1148 1.941 . S
C1124 O1125 1.258 . S
C1124 O1126 1.263 . S
O1125 Co1122 1.970 . S
O1125 C1124 1.258 . S
O1126 Co1123 1.966 . S
O1126 C1124 1.263 . S
C1127 O1128 1.235 . S
C1127 O1154 1.289 . S
O1128 C1127 1.235 . S
C1129 C1131 1.400 . S
C1129 N1132 1.351 . S
C1129 C1134 1.501 . S
C1130 C1131 1.387 . S
C1130 N1133 1.341 . S
C1131 C1129 1.400 . S
C1131 C1130 1.387 . S
N1132 Co1123 2.022 . S
N1132 C1129 1.351 . S
N1132 N1133 1.365 . S
N1133 C1130 1.341 . S
N1133 N1132 1.365 . S
N1133 H1153 0.862 . S
C1134 C1129 1.501 . S
C1134 H1135 0.961 . S
C1134 H1136 0.961 . S
C1134 H1137 0.960 1_554 S
H1135 C1134 0.961 . S
H1136 C1134 0.961 . S
H1137 C1134 0.960 1_556 S
C1138 N1139 1.342 . S
C1138 C1142 1.401 . S
C1138 C1143 1.499 . S
N1139 Co1122 1.989 . S
N1139 C1138 1.342 . S
N1139 N1140 1.388 . S
N1140 Co1123 1.993 . S
N1140 N1139 1.388 . S
N1140 C1141 1.346 . S
C1141 N1140 1.346 . S
C1141 C1142 1.396 . S
C1141 C1151 1.510 . S
C1142 C1138 1.401 . S
C1142 C1141 1.396 . S
C1143 C1138 1.499 . S
C1143 H1144 0.959 . S
C1143 H1145 0.960 . S
C1143 H1146 0.961 . S
H1144 C1143 0.959 . S
H1145 C1143 0.960 . S
H1146 C1143 0.961 . S
O1147 Co1122 1.967 . S
O1147 C1155 1.258 . S
O1148 Co1123 1.941 . S
O1148 C1155 1.266 . S
H1149 C1151 0.959 . S
H1150 C1151 0.961 . S
C1151 C1141 1.510 . S
C1151 H1149 0.959 . S
C1151 H1150 0.961 . S
C1151 H1152 0.960 . S
H1152 C1151 0.960 . S
H1153 N1133 0.862 . S
O1154 Co1122 1.920 . S
O1154 C1127 1.289 . S
C1155 O1147 1.258 . S
C1155 O1148 1.266 . S
Co1156 O1159 1.970 . S
Co1156 N1173 1.989 . S
Co1156 O1181 1.967 . S
Co1156 O1188 1.920 . S
Co1157 O1160 1.966 . S
Co1157 N1166 2.022 . S
Co1157 N1174 1.993 . S
Co1157 O1182 1.941 . S
C1158 O1159 1.258 . S
C1158 O1160 1.263 . S
O1159 Co1156 1.970 . S
O1159 C1158 1.258 . S
O1160 Co1157 1.966 . S
O1160 C1158 1.263 . S
C1161 O1162 1.235 . S
C1161 O1188 1.289 . S
O1162 C1161 1.235 . S
C1163 C1165 1.400 . S
C1163 N1166 1.351 . S
C1163 C1168 1.501 . S
C1164 C1165 1.387 . S
C1164 N1167 1.341 . S
C1165 C1163 1.400 . S
C1165 C1164 1.387 . S
N1166 Co1157 2.022 . S
N1166 C1163 1.351 . S
N1166 N1167 1.365 . S
N1167 C1164 1.341 . S
N1167 N1166 1.365 . S
N1167 H1187 0.862 . S
C1168 C1163 1.501 . S
C1168 H1169 0.961 . S
C1168 H1170 0.961 . S
C1168 H1171 0.960 1_554 S
H1169 C1168 0.961 . S
H1170 C1168 0.961 . S
H1171 C1168 0.960 1_556 S
C1172 N1173 1.342 . S
C1172 C1176 1.401 . S
C1172 C1177 1.499 . S
N1173 Co1156 1.989 . S
N1173 C1172 1.342 . S
N1173 N1174 1.388 . S
N1174 Co1157 1.993 . S
N1174 N1173 1.388 . S
N1174 C1175 1.346 . S
C1175 N1174 1.346 . S
C1175 C1176 1.396 . S
C1175 C1185 1.510 . S
C1176 C1172 1.401 . S
C1176 C1175 1.396 . S
C1177 C1172 1.499 . S
C1177 H1178 0.959 . S
C1177 H1179 0.960 . S
C1177 H1180 0.961 . S
H1178 C1177 0.959 . S
H1179 C1177 0.960 . S
H1180 C1177 0.961 . S
O1181 Co1156 1.967 . S
O1181 C1189 1.258 . S
O1182 Co1157 1.941 . S
O1182 C1189 1.266 . S
H1183 C1185 0.959 . S
H1184 C1185 0.961 . S
C1185 C1175 1.510 . S
C1185 H1183 0.959 . S
C1185 H1184 0.961 . S
C1185 H1186 0.960 . S
H1186 C1185 0.960 . S
H1187 N1167 0.862 . S
O1188 Co1156 1.920 . S
O1188 C1161 1.289 . S
C1189 O1181 1.258 . S
C1189 O1182 1.266 . S
Co1190 O1193 1.970 . S
Co1190 N1207 1.989 . S
Co1190 O1215 1.967 . S
Co1190 O1222 1.920 . S
Co1191 O1194 1.966 . S
Co1191 N1200 2.022 . S
Co1191 N1208 1.993 . S
Co1191 O1216 1.941 . S
C1192 O1193 1.258 . S
C1192 O1194 1.263 . S
O1193 Co1190 1.970 . S
O1193 C1192 1.258 . S
O1194 Co1191 1.966 . S
O1194 C1192 1.263 . S
C1195 O1196 1.235 . S
C1195 O1222 1.289 . S
O1196 C1195 1.235 . S
C1197 C1199 1.400 . S
C1197 N1200 1.351 . S
C1197 C1202 1.501 . S
C1198 C1199 1.387 . S
C1198 N1201 1.341 . S
C1199 C1197 1.400 . S
C1199 C1198 1.387 . S
N1200 Co1191 2.022 . S
N1200 C1197 1.351 . S
N1200 N1201 1.365 . S
N1201 C1198 1.341 . S
N1201 N1200 1.365 . S
N1201 H1221 0.862 . S
C1202 C1197 1.501 . S
C1202 H1203 0.961 . S
C1202 H1204 0.961 . S
C1202 H1205 0.960 1_554 S
H1203 C1202 0.961 . S
H1204 C1202 0.961 . S
H1205 C1202 0.960 1_556 S
C1206 N1207 1.342 . S
C1206 C1210 1.401 . S
C1206 C1211 1.499 . S
N1207 Co1190 1.989 . S
N1207 C1206 1.342 . S
N1207 N1208 1.388 . S
N1208 Co1191 1.993 . S
N1208 N1207 1.388 . S
N1208 C1209 1.346 . S
C1209 N1208 1.346 . S
C1209 C1210 1.396 . S
C1209 C1219 1.510 . S
C1210 C1206 1.401 . S
C1210 C1209 1.396 . S
C1211 C1206 1.499 . S
C1211 H1212 0.959 . S
C1211 H1213 0.960 . S
C1211 H1214 0.961 . S
H1212 C1211 0.959 . S
H1213 C1211 0.960 . S
H1214 C1211 0.961 . S
O1215 Co1190 1.967 . S
O1215 C1223 1.258 . S
O1216 Co1191 1.941 . S
O1216 C1223 1.266 . S
H1217 C1219 0.959 . S
H1218 C1219 0.961 . S
C1219 C1209 1.510 . S
C1219 H1217 0.959 . S
C1219 H1218 0.961 . S
C1219 H1220 0.960 . S
H1220 C1219 0.960 . S
H1221 N1201 0.862 . S
O1222 Co1190 1.920 . S
O1222 C1195 1.289 . S
C1223 O1215 1.258 . S
C1223 O1216 1.266 . S
C1224 C1225 1.363 . S
C1224 C1230 1.379 . S
C1224 N1232 1.356 . S
C1225 C1224 1.363 . S
C1225 C1231 1.363 . S
C1226 C1227 1.363 . S
C1226 C1231 1.379 . S
C1226 N1233 1.356 . S
C1227 C1226 1.363 . S
C1227 C1230 1.363 . S
N1228 C1230 1.356 . S
N1228 H1240 0.984 . S
N1228 H1241 0.985 . S
N1229 C1231 1.356 . S
N1229 H1234 0.984 . S
N1229 H1235 0.985 . S
C1230 C1224 1.379 . S
C1230 C1227 1.363 . S
C1230 N1228 1.356 . S
C1231 C1225 1.363 . S
C1231 C1226 1.379 . S
C1231 N1229 1.356 . S
N1232 C1224 1.356 . S
N1232 H1238 0.984 . S
N1232 H1239 0.984 . S
N1233 C1226 1.356 . S
N1233 H1236 0.984 1_556 S
N1233 H1237 0.985 . S
H1234 N1229 0.984 . S
H1235 N1229 0.985 . S
H1236 N1233 0.984 1_554 S
H1237 N1233 0.985 . S
H1238 N1232 0.984 . S
H1239 N1232 0.984 . S
H1240 N1228 0.984 . S
H1241 N1228 0.985 . S
C1242 C1243 1.363 . S
C1242 C1248 1.379 . S
C1242 N1250 1.356 . S
C1243 C1242 1.363 . S
C1243 C1249 1.363 . S
C1244 C1245 1.363 . S
C1244 C1249 1.379 . S
C1244 N1251 1.356 . S
C1245 C1244 1.363 . S
C1245 C1248 1.363 . S
N1246 C1248 1.356 1_554 S
N1246 H1258 0.984 . S
N1246 H1259 0.985 . S
N1247 C1249 1.356 . S
N1247 H1252 0.984 . S
N1247 H1253 0.985 . S
C1248 C1242 1.379 . S
C1248 C1245 1.363 . S
C1248 N1246 1.356 1_556 S
C1249 C1243 1.363 . S
C1249 C1244 1.379 . S
C1249 N1247 1.356 . S
N1250 C1242 1.356 . S
N1250 H1256 0.984 . S
N1250 H1257 0.984 . S
N1251 C1244 1.356 . S
N1251 H1254 0.984 . S
N1251 H1255 0.985 . S
H1252 N1247 0.984 . S
H1253 N1247 0.985 . S
H1254 N1251 0.984 . S
H1255 N1251 0.985 . S
H1256 N1250 0.984 . S
H1257 N1250 0.984 . S
H1258 N1246 0.984 . S
H1259 N1246 0.985 . S
C1260 C1261 1.363 . S
C1260 C1266 1.379 . S
C1260 N1268 1.356 . S
C1261 C1260 1.363 . S
C1261 C1267 1.363 . S
C1262 C1263 1.363 . S
C1262 C1267 1.379 . S
C1262 N1269 1.356 . S
C1263 C1262 1.363 . S
C1263 C1266 1.363 . S
N1264 C1266 1.356 1_554 S
N1264 H1276 0.984 . S
N1264 H1277 0.985 . S
N1265 C1267 1.356 . S
N1265 H1270 0.984 . S
N1265 H1271 0.985 . S
C1266 C1260 1.379 . S
C1266 C1263 1.363 . S
C1266 N1264 1.356 1_556 S
C1267 C1261 1.363 . S
C1267 C1262 1.379 . S
C1267 N1265 1.356 . S
N1268 C1260 1.356 . S
N1268 H1274 0.984 . S
N1268 H1275 0.984 . S
N1269 C1262 1.356 . S
N1269 H1272 0.984 . S
N1269 H1273 0.985 . S
H1270 N1265 0.984 . S
H1271 N1265 0.985 . S
H1272 N1269 0.984 . S
H1273 N1269 0.985 . S
H1274 N1268 0.984 . S
H1275 N1268 0.984 . S
H1276 N1264 0.984 . S
H1277 N1264 0.985 . S
C1278 C1279 1.363 . S
C1278 C1284 1.379 . S
C1278 N1286 1.356 . S
C1279 C1278 1.363 . S
C1279 C1285 1.363 . S
C1280 C1281 1.363 . S
C1280 C1285 1.379 . S
C1280 N1287 1.356 . S
C1281 C1280 1.363 . S
C1281 C1284 1.363 . S
N1282 C1284 1.356 . S
N1282 H1294 0.984 . S
N1282 H1295 0.985 . S
N1283 C1285 1.356 . S
N1283 H1288 0.984 . S
N1283 H1289 0.985 . S
C1284 C1278 1.379 . S
C1284 C1281 1.363 . S
C1284 N1282 1.356 . S
C1285 C1279 1.363 . S
C1285 C1280 1.379 . S
C1285 N1283 1.356 . S
N1286 C1278 1.356 . S
N1286 H1292 0.984 . S
N1286 H1293 0.984 . S
N1287 C1280 1.356 . S
N1287 H1290 0.984 . S
N1287 H1291 0.985 . S
H1288 N1283 0.984 . S
H1289 N1283 0.985 . S
H1290 N1287 0.984 . S
H1291 N1287 0.985 . S
H1292 N1286 0.984 . S
H1293 N1286 0.984 . S
H1294 N1282 0.984 . S
H1295 N1282 0.985 . S
C1296 C1297 1.363 . S
C1296 C1302 1.379 . S
C1296 N1304 1.356 . S
C1297 C1296 1.363 . S
C1297 C1303 1.363 . S
C1298 C1299 1.363 . S
C1298 C1303 1.379 . S
C1298 N1305 1.356 . S
C1299 C1298 1.363 . S
C1299 C1302 1.363 . S
N1300 C1302 1.356 . S
N1300 H1312 0.984 . S
N1300 H1313 0.985 . S
N1301 C1303 1.356 . S
N1301 H1306 0.984 . S
N1301 H1307 0.985 . S
C1302 C1296 1.379 . S
C1302 C1299 1.363 . S
C1302 N1300 1.356 . S
C1303 C1297 1.363 . S
C1303 C1298 1.379 . S
C1303 N1301 1.356 . S
N1304 C1296 1.356 . S
N1304 H1310 0.984 . S
N1304 H1311 0.984 . S
N1305 C1298 1.356 . S
N1305 H1308 0.984 . S
N1305 H1309 0.985 . S
H1306 N1301 0.984 . S
H1307 N1301 0.985 . S
H1308 N1305 0.984 . S
H1309 N1305 0.985 . S
H1310 N1304 0.984 . S
H1311 N1304 0.984 . S
H1312 N1300 0.984 . S
H1313 N1300 0.985 . S
C1314 C1315 1.363 . S
C1314 C1320 1.379 . S
C1314 N1322 1.356 . S
C1315 C1314 1.363 . S
C1315 C1321 1.363 . S
C1316 C1317 1.363 . S
C1316 C1321 1.379 . S
C1316 N1323 1.356 . S
C1317 C1316 1.363 . S
C1317 C1320 1.363 . S
N1318 C1320 1.356 . S
N1318 H1330 0.984 . S
N1318 H1331 0.985 . S
N1319 C1321 1.356 . S
N1319 H1324 0.984 . S
N1319 H1325 0.985 . S
C1320 C1314 1.379 . S
C1320 C1317 1.363 . S
C1320 N1318 1.356 . S
C1321 C1315 1.363 . S
C1321 C1316 1.379 . S
C1321 N1319 1.356 . S
N1322 C1314 1.356 . S
N1322 H1328 0.984 . S
N1322 H1329 0.984 . S
N1323 C1316 1.356 . S
N1323 H1326 0.984 . S
N1323 H1327 0.985 . S
H1324 N1319 0.984 . S
H1325 N1319 0.985 . S
H1326 N1323 0.984 . S
H1327 N1323 0.985 . S
H1328 N1322 0.984 . S
H1329 N1322 0.984 . S
H1330 N1318 0.984 . S
H1331 N1318 0.985 . S
C1332 C1333 1.363 . S
C1332 C1338 1.379 . S
C1332 N1340 1.356 . S
C1333 C1332 1.363 . S
C1333 C1339 1.363 . S
C1334 C1335 1.363 . S
C1334 C1339 1.379 . S
C1334 N1341 1.356 . S
C1335 C1334 1.363 . S
C1335 C1338 1.363 . S
N1336 C1338 1.356 . S
N1336 H1348 0.984 . S
N1336 H1349 0.985 . S
N1337 C1339 1.356 . S
N1337 H1342 0.984 . S
N1337 H1343 0.985 . S
C1338 C1332 1.379 . S
C1338 C1335 1.363 . S
C1338 N1336 1.356 . S
C1339 C1333 1.363 . S
C1339 C1334 1.379 . S
C1339 N1337 1.356 . S
N1340 C1332 1.356 . S
N1340 H1346 0.984 . S
N1340 H1347 0.984 . S
N1341 C1334 1.356 . S
N1341 H1344 0.984 . S
N1341 H1345 0.985 . S
H1342 N1337 0.984 . S
H1343 N1337 0.985 . S
H1344 N1341 0.984 . S
H1345 N1341 0.985 . S
H1346 N1340 0.984 . S
H1347 N1340 0.984 . S
H1348 N1336 0.984 . S
H1349 N1336 0.985 . S
C1350 C1351 1.363 . S
C1350 C1356 1.379 . S
C1350 N1358 1.356 . S
C1351 C1350 1.363 . S
C1351 C1357 1.363 . S
C1352 C1353 1.363 . S
C1352 C1357 1.379 . S
C1352 N1359 1.356 . S
C1353 C1352 1.363 . S
C1353 C1356 1.363 . S
N1354 C1356 1.356 . S
N1354 H1366 0.984 . S
N1354 H1367 0.985 . S
N1355 C1357 1.356 . S
N1355 H1360 0.984 . S
N1355 H1361 0.985 . S
C1356 C1350 1.379 . S
C1356 C1353 1.363 . S
C1356 N1354 1.356 . S
C1357 C1351 1.363 . S
C1357 C1352 1.379 . S
C1357 N1355 1.356 . S
N1358 C1350 1.356 . S
N1358 H1364 0.984 . S
N1358 H1365 0.984 . S
N1359 C1352 1.356 . S
N1359 H1362 0.984 . S
N1359 H1363 0.985 . S
H1360 N1355 0.984 . S
H1361 N1355 0.985 . S
H1362 N1359 0.984 . S
H1363 N1359 0.985 . S
H1364 N1358 0.984 . S
H1365 N1358 0.984 . S
H1366 N1354 0.984 . S
H1367 N1354 0.985 . S
C1368 C1369 1.363 . S
C1368 C1374 1.379 . S
C1368 N1376 1.356 . S
C1369 C1368 1.363 . S
C1369 C1375 1.363 . S
C1370 C1371 1.363 . S
C1370 C1375 1.379 . S
C1370 N1377 1.356 . S
C1371 C1370 1.363 . S
C1371 C1374 1.363 . S
N1372 C1374 1.356 . S
N1372 H1384 0.984 . S
N1372 H1385 0.985 . S
N1373 C1375 1.356 . S
N1373 H1378 0.984 . S
N1373 H1379 0.985 . S
C1374 C1368 1.379 . S
C1374 C1371 1.363 . S
C1374 N1372 1.356 . S
C1375 C1369 1.363 . S
C1375 C1370 1.379 . S
C1375 N1373 1.356 . S
N1376 C1368 1.356 . S
N1376 H1382 0.984 . S
N1376 H1383 0.984 . S
N1377 C1370 1.356 . S
N1377 H1380 0.984 . S
N1377 H1381 0.985 . S
H1378 N1373 0.984 . S
H1379 N1373 0.985 . S
H1380 N1377 0.984 . S
H1381 N1377 0.985 . S
H1382 N1376 0.984 . S
H1383 N1376 0.984 . S
H1384 N1372 0.984 . S
H1385 N1372 0.985 . S
C1386 C1387 1.363 . S
C1386 C1392 1.379 . S
C1386 N1394 1.356 . S
C1387 C1386 1.363 . S
C1387 C1393 1.363 . S
C1388 C1389 1.363 . S
C1388 C1393 1.379 . S
C1388 N1395 1.356 . S
C1389 C1388 1.363 . S
C1389 C1392 1.363 . S
N1390 C1392 1.356 . S
N1390 H1402 0.984 . S
N1390 H1403 0.985 . S
N1391 C1393 1.356 . S
N1391 H1396 0.984 . S
N1391 H1397 0.985 . S
C1392 C1386 1.379 . S
C1392 C1389 1.363 . S
C1392 N1390 1.356 . S
C1393 C1387 1.363 . S
C1393 C1388 1.379 . S
C1393 N1391 1.356 . S
N1394 C1386 1.356 . S
N1394 H1400 0.984 . S
N1394 H1401 0.984 . S
N1395 C1388 1.356 . S
N1395 H1398 0.984 . S
N1395 H1399 0.985 . S
H1396 N1391 0.984 . S
H1397 N1391 0.985 . S
H1398 N1395 0.984 . S
H1399 N1395 0.985 . S
H1400 N1394 0.984 . S
H1401 N1394 0.984 . S
H1402 N1390 0.984 . S
H1403 N1390 0.985 . S
C1404 C1405 1.363 . S
C1404 C1410 1.379 . S
C1404 N1412 1.356 . S
C1405 C1404 1.363 . S
C1405 C1411 1.363 . S
C1406 C1407 1.363 . S
C1406 C1411 1.379 . S
C1406 N1413 1.356 . S
C1407 C1406 1.363 . S
C1407 C1410 1.363 . S
N1408 C1410 1.356 . S
N1408 H1420 0.984 . S
N1408 H1421 0.985 . S
N1409 C1411 1.356 . S
N1409 H1414 0.984 . S
N1409 H1415 0.985 . S
C1410 C1404 1.379 . S
C1410 C1407 1.363 . S
C1410 N1408 1.356 . S
C1411 C1405 1.363 . S
C1411 C1406 1.379 . S
C1411 N1409 1.356 . S
N1412 C1404 1.356 . S
N1412 H1418 0.984 . S
N1412 H1419 0.984 . S
N1413 C1406 1.356 . S
N1413 H1416 0.984 . S
N1413 H1417 0.985 . S
H1414 N1409 0.984 . S
H1415 N1409 0.985 . S
H1416 N1413 0.984 . S
H1417 N1413 0.985 . S
H1418 N1412 0.984 . S
H1419 N1412 0.984 . S
H1420 N1408 0.984 . S
H1421 N1408 0.985 . S
C1422 C1423 1.363 . S
C1422 C1428 1.379 . S
C1422 N1430 1.356 . S
C1423 C1422 1.363 . S
C1423 C1429 1.363 . S
C1424 C1425 1.363 . S
C1424 C1429 1.379 . S
C1424 N1431 1.356 . S
C1425 C1424 1.363 . S
C1425 C1428 1.363 . S
N1426 C1428 1.356 . S
N1426 H1438 0.984 . S
N1426 H1439 0.985 . S
N1427 C1429 1.356 . S
N1427 H1432 0.984 . S
N1427 H1433 0.985 . S
C1428 C1422 1.379 . S
C1428 C1425 1.363 . S
C1428 N1426 1.356 . S
C1429 C1423 1.363 . S
C1429 C1424 1.379 . S
C1429 N1427 1.356 . S
N1430 C1422 1.356 . S
N1430 H1436 0.984 . S
N1430 H1437 0.984 . S
N1431 C1424 1.356 . S
N1431 H1434 0.984 . S
N1431 H1435 0.985 . S
H1432 N1427 0.984 . S
H1433 N1427 0.985 . S
H1434 N1431 0.984 . S
H1435 N1431 0.985 . S
H1436 N1430 0.984 . S
H1437 N1430 0.984 . S
H1438 N1426 0.984 . S
H1439 N1426 0.985 . S
C1440 C1441 1.363 . S
C1440 C1446 1.379 . S
C1440 N1448 1.356 . S
C1441 C1440 1.363 . S
C1441 C1447 1.363 . S
C1442 C1443 1.363 . S
C1442 C1447 1.379 . S
C1442 N1449 1.356 . S
C1443 C1442 1.363 . S
C1443 C1446 1.363 . S
N1444 C1446 1.356 . S
N1444 H1456 0.984 . S
N1444 H1457 0.985 . S
N1445 C1447 1.356 . S
N1445 H1450 0.984 . S
N1445 H1451 0.985 . S
C1446 C1440 1.379 . S
C1446 C1443 1.363 . S
C1446 N1444 1.356 . S
C1447 C1441 1.363 . S
C1447 C1442 1.379 . S
C1447 N1445 1.356 . S
N1448 C1440 1.356 . S
N1448 H1454 0.984 . S
N1448 H1455 0.984 . S
N1449 C1442 1.356 . S
N1449 H1452 0.984 . S
N1449 H1453 0.985 . S
H1450 N1445 0.984 . S
H1451 N1445 0.985 . S
H1452 N1449 0.984 . S
H1453 N1449 0.985 . S
H1454 N1448 0.984 . S
H1455 N1448 0.984 . S
H1456 N1444 0.984 . S
H1457 N1444 0.985 . S
C1458 C1459 1.363 . S
C1458 C1464 1.379 . S
C1458 N1466 1.356 . S
C1459 C1458 1.363 . S
C1459 C1465 1.363 . S
C1460 C1461 1.363 . S
C1460 C1465 1.379 . S
C1460 N1467 1.356 . S
C1461 C1460 1.363 . S
C1461 C1464 1.363 . S
N1462 C1464 1.356 . S
N1462 H1474 0.984 . S
N1462 H1475 0.985 . S
N1463 C1465 1.356 . S
N1463 H1468 0.984 . S
N1463 H1469 0.985 . S
C1464 C1458 1.379 . S
C1464 C1461 1.363 . S
C1464 N1462 1.356 . S
C1465 C1459 1.363 . S
C1465 C1460 1.379 . S
C1465 N1463 1.356 . S
N1466 C1458 1.356 . S
N1466 H1472 0.984 . S
N1466 H1473 0.984 . S
N1467 C1460 1.356 . S
N1467 H1470 0.984 . S
N1467 H1471 0.985 . S
H1468 N1463 0.984 . S
H1469 N1463 0.985 . S
H1470 N1467 0.984 . S
H1471 N1467 0.985 . S
H1472 N1466 0.984 . S
H1473 N1466 0.984 . S
H1474 N1462 0.984 . S
H1475 N1462 0.985 . S
C1476 C1477 1.363 . S
C1476 C1482 1.379 . S
C1476 N1484 1.356 . S
C1477 C1476 1.363 . S
C1477 C1483 1.363 . S
C1478 C1479 1.363 . S
C1478 C1483 1.379 . S
C1478 N1485 1.356 . S
C1479 C1478 1.363 . S
C1479 C1482 1.363 . S
N1480 C1482 1.356 . S
N1480 H1492 0.984 . S
N1480 H1493 0.985 . S
N1481 C1483 1.356 . S
N1481 H1486 0.984 . S
N1481 H1487 0.985 . S
C1482 C1476 1.379 . S
C1482 C1479 1.363 . S
C1482 N1480 1.356 . S
C1483 C1477 1.363 . S
C1483 C1478 1.379 . S
C1483 N1481 1.356 . S
N1484 C1476 1.356 . S
N1484 H1490 0.984 . S
N1484 H1491 0.984 . S
N1485 C1478 1.356 . S
N1485 H1488 0.984 . S
N1485 H1489 0.985 . S
H1486 N1481 0.984 . S
H1487 N1481 0.985 . S
H1488 N1485 0.984 . S
H1489 N1485 0.985 . S
H1490 N1484 0.984 . S
H1491 N1484 0.984 . S
H1492 N1480 0.984 . S
H1493 N1480 0.985 . S
C1494 C1495 1.363 . S
C1494 C1500 1.379 . S
C1494 N1502 1.356 . S
C1495 C1494 1.363 . S
C1495 C1501 1.363 . S
C1496 C1497 1.363 . S
C1496 C1501 1.379 . S
C1496 N1503 1.356 . S
C1497 C1496 1.363 . S
C1497 C1500 1.363 . S
N1498 C1500 1.356 1_556 S
N1498 H1510 0.984 . S
N1498 H1511 0.985 . S
N1499 C1501 1.356 . S
N1499 H1504 0.984 . S
N1499 H1505 0.985 . S
C1500 C1494 1.379 . S
C1500 C1497 1.363 . S
C1500 N1498 1.356 1_554 S
C1501 C1495 1.363 . S
C1501 C1496 1.379 . S
C1501 N1499 1.356 . S
N1502 C1494 1.356 . S
N1502 H1508 0.984 . S
N1502 H1509 0.984 . S
N1503 C1496 1.356 . S
N1503 H1506 0.984 . S
N1503 H1507 0.985 . S
H1504 N1499 0.984 . S
H1505 N1499 0.985 . S
H1506 N1503 0.984 . S
H1507 N1503 0.985 . S
H1508 N1502 0.984 . S
H1509 N1502 0.984 . S
H1510 N1498 0.984 . S
H1511 N1498 0.985 . S
C1512 C1513 1.363 . S
C1512 C1518 1.379 . S
C1512 N1520 1.356 . S
C1513 C1512 1.363 . S
C1513 C1519 1.363 . S
C1514 C1515 1.363 . S
C1514 C1519 1.379 . S
C1514 N1521 1.356 1_554 S
C1515 C1514 1.363 . S
C1515 C1518 1.363 . S
N1516 C1518 1.356 . S
N1516 H1528 0.984 . S
N1516 H1529 0.985 . S
N1517 C1519 1.356 . S
N1517 H1522 0.984 . S
N1517 H1523 0.985 . S
C1518 C1512 1.379 . S
C1518 C1515 1.363 . S
C1518 N1516 1.356 . S
C1519 C1513 1.363 . S
C1519 C1514 1.379 . S
C1519 N1517 1.356 . S
N1520 C1512 1.356 . S
N1520 H1526 0.984 . S
N1520 H1527 0.984 . S
N1521 C1514 1.356 1_556 S
N1521 H1524 0.984 . S
N1521 H1525 0.985 . S
H1522 N1517 0.984 . S
H1523 N1517 0.985 . S
H1524 N1521 0.984 . S
H1525 N1521 0.985 . S
H1526 N1520 0.984 . S
H1527 N1520 0.984 . S
H1528 N1516 0.984 . S
H1529 N1516 0.985 . S
C1530 C1531 1.364 . S
C1530 C1536 1.383 . S
C1530 N1538 1.350 1_554 S
C1531 C1530 1.364 . S
C1531 C1537 1.363 . S
C1532 C1533 1.363 . S
C1532 C1537 1.379 . S
C1532 N1539 1.356 . S
C1533 C1532 1.363 . S
C1533 C1536 1.363 . S
N1534 C1536 1.356 . S
N1534 H1546 0.984 . S
N1534 H1547 0.985 . S
N1535 C1537 1.356 . S
N1535 H1540 0.984 . S
N1535 H1541 0.985 . S
C1536 C1530 1.383 . S
C1536 C1533 1.363 . S
C1536 N1534 1.356 . S
C1537 C1531 1.363 . S
C1537 C1532 1.379 . S
C1537 N1535 1.356 . S
N1538 C1530 1.350 1_556 S
N1538 H1544 0.984 . S
N1538 H1545 0.984 . S
N1539 C1532 1.356 . S
N1539 H1542 0.984 . S
N1539 H1543 0.985 . S
H1540 N1535 0.984 . S
H1541 N1535 0.985 . S
H1542 N1539 0.984 . S
H1543 N1539 0.985 . S
H1544 N1538 0.984 . S
H1545 N1538 0.984 . S
H1546 N1534 0.984 . S
H1547 N1534 0.985 . S
C1548 C1549 1.363 . S
C1548 C1554 1.379 . S
C1548 N1556 1.356 . S
C1549 C1548 1.363 . S
C1549 C1555 1.363 . S
C1550 C1551 1.363 . S
C1550 C1555 1.379 . S
C1550 N1557 1.356 . S
C1551 C1550 1.363 . S
C1551 C1554 1.363 . S
N1552 C1554 1.356 . S
N1552 H1564 0.984 . S
N1552 H1565 0.985 . S
N1553 C1555 1.356 . S
N1553 H1558 0.984 . S
N1553 H1559 0.985 . S
C1554 C1548 1.379 . S
C1554 C1551 1.363 . S
C1554 N1552 1.356 . S
C1555 C1549 1.363 . S
C1555 C1550 1.379 . S
C1555 N1553 1.356 . S
N1556 C1548 1.356 . S
N1556 H1562 0.984 . S
N1556 H1563 0.984 . S
N1557 C1550 1.356 . S
N1557 H1560 0.984 . S
N1557 H1561 0.985 . S
H1558 N1553 0.984 . S
H1559 N1553 0.985 . S
H1560 N1557 0.984 . S
H1561 N1557 0.985 . S
H1562 N1556 0.984 . S
H1563 N1556 0.984 . S
H1564 N1552 0.984 . S
H1565 N1552 0.985 . S
C1566 C1567 1.363 . S
C1566 C1572 1.379 . S
C1566 N1574 1.356 . S
C1567 C1566 1.363 . S
C1567 C1573 1.363 . S
C1568 C1569 1.363 . S
C1568 C1573 1.379 . S
C1568 N1575 1.356 . S
C1569 C1568 1.363 . S
C1569 C1572 1.363 . S
N1570 C1572 1.356 . S
N1570 H1582 0.984 . S
N1570 H1583 0.985 . S
N1571 C1573 1.356 . S
N1571 H1576 0.984 . S
N1571 H1577 0.985 . S
C1572 C1566 1.379 . S
C1572 C1569 1.363 . S
C1572 N1570 1.356 . S
C1573 C1567 1.363 . S
C1573 C1568 1.379 . S
C1573 N1571 1.356 . S
N1574 C1566 1.356 . S
N1574 H1580 0.984 . S
N1574 H1581 0.984 . S
N1575 C1568 1.356 . S
N1575 H1578 0.984 . S
N1575 H1579 0.985 . S
H1576 N1571 0.984 . S
H1577 N1571 0.985 . S
H1578 N1575 0.984 . S
H1579 N1575 0.985 . S
H1580 N1574 0.984 . S
H1581 N1574 0.984 . S
H1582 N1570 0.984 . S
H1583 N1570 0.985 . S
C1584 C1585 1.363 . S
C1584 C1590 1.379 . S
C1584 N1592 1.356 . S
C1585 C1584 1.363 . S
C1585 C1591 1.363 . S
C1586 C1587 1.363 . S
C1586 C1591 1.379 . S
C1586 N1593 1.356 . S
C1587 C1586 1.363 . S
C1587 C1590 1.363 . S
N1588 C1590 1.356 . S
N1588 H1600 0.984 . S
N1588 H1601 0.985 . S
N1589 C1591 1.356 . S
N1589 H1594 0.984 . S
N1589 H1595 0.985 . S
C1590 C1584 1.379 . S
C1590 C1587 1.363 . S
C1590 N1588 1.356 . S
C1591 C1585 1.363 . S
C1591 C1586 1.379 . S
C1591 N1589 1.356 . S
N1592 C1584 1.356 . S
N1592 H1598 0.984 . S
N1592 H1599 0.984 . S
N1593 C1586 1.356 . S
N1593 H1596 0.984 . S
N1593 H1597 0.985 . S
H1594 N1589 0.984 . S
H1595 N1589 0.985 . S
H1596 N1593 0.984 . S
H1597 N1593 0.985 . S
H1598 N1592 0.984 . S
H1599 N1592 0.984 . S
H1600 N1588 0.984 . S
H1601 N1588 0.985 . S
C1602 C1603 1.363 . S
C1602 C1608 1.379 . S
C1602 N1610 1.356 . S
C1603 C1602 1.363 . S
C1603 C1609 1.363 . S
C1604 C1605 1.363 . S
C1604 C1609 1.379 . S
C1604 N1611 1.356 . S
C1605 C1604 1.363 . S
C1605 C1608 1.363 . S
N1606 C1608 1.356 . S
N1606 H1618 0.984 . S
N1606 H1619 0.985 . S
N1607 C1609 1.356 . S
N1607 H1612 0.984 . S
N1607 H1613 0.985 . S
C1608 C1602 1.379 . S
C1608 C1605 1.363 . S
C1608 N1606 1.356 . S
C1609 C1603 1.363 . S
C1609 C1604 1.379 . S
C1609 N1607 1.356 . S
N1610 C1602 1.356 . S
N1610 H1616 0.984 . S
N1610 H1617 0.984 . S
N1611 C1604 1.356 . S
N1611 H1614 0.984 . S
N1611 H1615 0.985 . S
H1612 N1607 0.984 . S
H1613 N1607 0.985 . S
H1614 N1611 0.984 . S
H1615 N1611 0.985 . S
H1616 N1610 0.984 . S
H1617 N1610 0.984 . S
H1618 N1606 0.984 . S
H1619 N1606 0.985 . S
C1620 C1621 1.363 . S
C1620 C1626 1.379 . S
C1620 N1628 1.356 . S
C1621 C1620 1.363 . S
C1621 C1627 1.363 . S
C1622 C1623 1.363 . S
C1622 C1627 1.379 . S
C1622 N1629 1.356 . S
C1623 C1622 1.363 . S
C1623 C1626 1.363 . S
N1624 C1626 1.356 . S
N1624 H1636 0.984 . S
N1624 H1637 0.985 . S
N1625 C1627 1.356 . S
N1625 H1630 0.984 . S
N1625 H1631 0.985 . S
C1626 C1620 1.379 . S
C1626 C1623 1.363 . S
C1626 N1624 1.356 . S
C1627 C1621 1.363 . S
C1627 C1622 1.379 . S
C1627 N1625 1.356 . S
N1628 C1620 1.356 . S
N1628 H1634 0.984 . S
N1628 H1635 0.984 . S
N1629 C1622 1.356 . S
N1629 H1632 0.984 . S
N1629 H1633 0.985 . S
H1630 N1625 0.984 . S
H1631 N1625 0.985 . S
H1632 N1629 0.984 . S
H1633 N1629 0.985 . S
H1634 N1628 0.984 . S
H1635 N1628 0.984 . S
H1636 N1624 0.984 . S
H1637 N1624 0.985 . S
C1638 C1639 1.363 . S
C1638 C1644 1.379 . S
C1638 N1646 1.356 . S
C1639 C1638 1.363 . S
C1639 C1645 1.363 . S
C1640 C1641 1.363 . S
C1640 C1645 1.379 . S
C1640 N1647 1.356 . S
C1641 C1640 1.363 . S
C1641 C1644 1.363 . S
N1642 C1644 1.356 . S
N1642 H1654 0.984 . S
N1642 H1655 0.985 . S
N1643 C1645 1.356 . S
N1643 H1648 0.984 . S
N1643 H1649 0.985 . S
C1644 C1638 1.379 . S
C1644 C1641 1.363 . S
C1644 N1642 1.356 . S
C1645 C1639 1.363 . S
C1645 C1640 1.379 . S
C1645 N1643 1.356 . S
N1646 C1638 1.356 . S
N1646 H1652 0.984 . S
N1646 H1653 0.984 . S
N1647 C1640 1.356 . S
N1647 H1650 0.984 . S
N1647 H1651 0.985 . S
H1648 N1643 0.984 . S
H1649 N1643 0.985 . S
H1650 N1647 0.984 . S
H1651 N1647 0.985 . S
H1652 N1646 0.984 . S
H1653 N1646 0.984 . S
H1654 N1642 0.984 . S
H1655 N1642 0.985 . S
C1656 C1657 1.363 . S
C1656 C1662 1.379 . S
C1656 N1664 1.356 . S
C1657 C1656 1.363 . S
C1657 C1663 1.363 . S
C1658 C1659 1.363 . S
C1658 C1663 1.379 . S
C1658 N1665 1.356 . S
C1659 C1658 1.363 . S
C1659 C1662 1.363 . S
N1660 C1662 1.356 . S
N1660 H1672 0.984 . S
N1660 H1673 0.985 . S
N1661 C1663 1.356 . S
N1661 H1666 0.984 . S
N1661 H1667 0.985 . S
C1662 C1656 1.379 . S
C1662 C1659 1.363 . S
C1662 N1660 1.356 . S
C1663 C1657 1.363 . S
C1663 C1658 1.379 . S
C1663 N1661 1.356 . S
N1664 C1656 1.356 . S
N1664 H1670 0.984 . S
N1664 H1671 0.984 . S
N1665 C1658 1.356 . S
N1665 H1668 0.984 . S
N1665 H1669 0.985 . S
H1666 N1661 0.984 . S
H1667 N1661 0.985 . S
H1668 N1665 0.984 . S
H1669 N1665 0.985 . S
H1670 N1664 0.984 . S
H1671 N1664 0.984 . S
H1672 N1660 0.984 . S
H1673 N1660 0.985 . S
C1674 C1675 1.363 . S
C1674 C1680 1.379 . S
C1674 N1682 1.356 . S
C1675 C1674 1.363 . S
C1675 C1681 1.363 . S
C1676 C1677 1.363 . S
C1676 C1681 1.379 . S
C1676 N1683 1.356 . S
C1677 C1676 1.363 . S
C1677 C1680 1.363 . S
N1678 C1680 1.356 . S
N1678 H1690 0.984 . S
N1678 H1691 0.985 . S
N1679 C1681 1.356 . S
N1679 H1684 0.984 . S
N1679 H1685 0.985 . S
C1680 C1674 1.379 . S
C1680 C1677 1.363 . S
C1680 N1678 1.356 . S
C1681 C1675 1.363 . S
C1681 C1676 1.379 . S
C1681 N1679 1.356 . S
N1682 C1674 1.356 . S
N1682 H1688 0.984 . S
N1682 H1689 0.984 . S
N1683 C1676 1.356 . S
N1683 H1686 0.984 . S
N1683 H1687 0.985 . S
H1684 N1679 0.984 . S
H1685 N1679 0.985 . S
H1686 N1683 0.984 . S
H1687 N1683 0.985 . S
H1688 N1682 0.984 . S
H1689 N1682 0.984 . S
H1690 N1678 0.984 . S
H1691 N1678 0.985 . S
C1692 C1693 1.363 . S
C1692 C1698 1.379 . S
C1692 N1700 1.356 . S
C1693 C1692 1.363 . S
C1693 C1699 1.363 . S
C1694 C1695 1.363 . S
C1694 C1699 1.379 . S
C1694 N1701 1.356 . S
C1695 C1694 1.363 . S
C1695 C1698 1.363 . S
N1696 C1698 1.356 . S
N1696 H1708 0.984 . S
N1696 H1709 0.985 . S
N1697 C1699 1.356 . S
N1697 H1702 0.984 . S
N1697 H1703 0.985 . S
C1698 C1692 1.379 . S
C1698 C1695 1.363 . S
C1698 N1696 1.356 . S
C1699 C1693 1.363 . S
C1699 C1694 1.379 . S
C1699 N1697 1.356 . S
N1700 C1692 1.356 . S
N1700 H1706 0.984 . S
N1700 H1707 0.984 . S
N1701 C1694 1.356 . S
N1701 H1704 0.984 . S
N1701 H1705 0.985 . S
H1702 N1697 0.984 . S
H1703 N1697 0.985 . S
H1704 N1701 0.984 . S
H1705 N1701 0.985 . S
H1706 N1700 0.984 . S
H1707 N1700 0.984 . S
H1708 N1696 0.984 . S
H1709 N1696 0.985 . S
C1710 C1711 1.363 . S
C1710 C1716 1.379 . S
C1710 N1718 1.356 . S
C1711 C1710 1.363 . S
C1711 C1717 1.363 . S
C1712 C1713 1.363 . S
C1712 C1717 1.379 . S
C1712 N1719 1.356 . S
C1713 C1712 1.363 . S
C1713 C1716 1.363 . S
N1714 C1716 1.356 . S
N1714 H1726 0.984 . S
N1714 H1727 0.985 . S
N1715 C1717 1.356 . S
N1715 H1720 0.984 . S
N1715 H1721 0.985 . S
C1716 C1710 1.379 . S
C1716 C1713 1.363 . S
C1716 N1714 1.356 . S
C1717 C1711 1.363 . S
C1717 C1712 1.379 . S
C1717 N1715 1.356 . S
N1718 C1710 1.356 . S
N1718 H1724 0.984 . S
N1718 H1725 0.984 . S
N1719 C1712 1.356 . S
N1719 H1722 0.984 . S
N1719 H1723 0.985 . S
H1720 N1715 0.984 . S
H1721 N1715 0.985 . S
H1722 N1719 0.984 . S
H1723 N1719 0.985 . S
H1724 N1718 0.984 . S
H1725 N1718 0.984 . S
H1726 N1714 0.984 . S
H1727 N1714 0.985 . S
C1728 C1729 1.363 . S
C1728 C1734 1.379 . S
C1728 N1736 1.356 . S
C1729 C1728 1.363 . S
C1729 C1735 1.363 . S
C1730 C1731 1.363 . S
C1730 C1735 1.379 . S
C1730 N1737 1.356 . S
C1731 C1730 1.363 . S
C1731 C1734 1.363 . S
N1732 C1734 1.356 . S
N1732 H1744 0.984 . S
N1732 H1745 0.985 . S
N1733 C1735 1.356 . S
N1733 H1738 0.984 . S
N1733 H1739 0.985 . S
C1734 C1728 1.379 . S
C1734 C1731 1.363 . S
C1734 N1732 1.356 . S
C1735 C1729 1.363 . S
C1735 C1730 1.379 . S
C1735 N1733 1.356 . S
N1736 C1728 1.356 . S
N1736 H1742 0.984 . S
N1736 H1743 0.984 . S
N1737 C1730 1.356 . S
N1737 H1740 0.984 . S
N1737 H1741 0.985 . S
H1738 N1733 0.984 . S
H1739 N1733 0.985 . S
H1740 N1737 0.984 . S
H1741 N1737 0.985 . S
H1742 N1736 0.984 . S
H1743 N1736 0.984 . S
H1744 N1732 0.984 . S
H1745 N1732 0.985 . S
C1746 C1747 1.363 . S
C1746 C1752 1.379 . S
C1746 N1754 1.356 . S
C1747 C1746 1.363 . S
C1747 C1753 1.363 . S
C1748 C1749 1.363 . S
C1748 C1753 1.379 . S
C1748 N1755 1.356 . S
C1749 C1748 1.363 . S
C1749 C1752 1.363 . S
N1750 C1752 1.356 . S
N1750 H1762 0.984 . S
N1750 H1763 0.985 . S
N1751 C1753 1.356 . S
N1751 H1756 0.984 . S
N1751 H1757 0.985 . S
C1752 C1746 1.379 . S
C1752 C1749 1.363 . S
C1752 N1750 1.356 . S
C1753 C1747 1.363 . S
C1753 C1748 1.379 . S
C1753 N1751 1.356 . S
N1754 C1746 1.356 . S
N1754 H1760 0.984 . S
N1754 H1761 0.984 . S
N1755 C1748 1.356 . S
N1755 H1758 0.984 . S
N1755 H1759 0.985 . S
H1756 N1751 0.984 . S
H1757 N1751 0.985 . S
H1758 N1755 0.984 . S
H1759 N1755 0.985 . S
H1760 N1754 0.984 . S
H1761 N1754 0.984 . S
H1762 N1750 0.984 . S
H1763 N1750 0.985 . S
C1764 C1765 1.363 . S
C1764 C1770 1.379 . S
C1764 N1772 1.356 . S
C1765 C1764 1.363 . S
C1765 C1771 1.363 . S
C1766 C1767 1.363 . S
C1766 C1771 1.379 . S
C1766 N1773 1.356 . S
C1767 C1766 1.363 . S
C1767 C1770 1.363 . S
N1768 C1770 1.356 . S
N1768 H1780 0.984 . S
N1768 H1781 0.985 . S
N1769 C1771 1.356 . S
N1769 H1774 0.984 . S
N1769 H1775 0.985 . S
C1770 C1764 1.379 . S
C1770 C1767 1.363 . S
C1770 N1768 1.356 . S
C1771 C1765 1.363 . S
C1771 C1766 1.379 . S
C1771 N1769 1.356 . S
N1772 C1764 1.356 . S
N1772 H1778 0.984 . S
N1772 H1779 0.984 . S
N1773 C1766 1.356 . S
N1773 H1776 0.984 1_556 S
N1773 H1777 0.985 . S
H1774 N1769 0.984 . S
H1775 N1769 0.985 . S
H1776 N1773 0.984 1_554 S
H1777 N1773 0.985 . S
H1778 N1772 0.984 . S
H1779 N1772 0.984 . S
H1780 N1768 0.984 . S
H1781 N1768 0.985 . S
C1782 C1783 1.363 . S
C1782 C1788 1.379 . S
C1782 N1790 1.356 . S
C1783 C1782 1.363 . S
C1783 C1789 1.363 . S
C1784 C1785 1.363 . S
C1784 C1789 1.379 . S
C1784 N1791 1.356 . S
C1785 C1784 1.363 . S
C1785 C1788 1.363 . S
N1786 C1788 1.356 . S
N1786 H1798 0.984 . S
N1786 H1799 0.985 . S
N1787 C1789 1.356 1_554 S
N1787 H1792 0.984 . S
N1787 H1793 0.985 . S
C1788 C1782 1.379 . S
C1788 C1785 1.363 . S
C1788 N1786 1.356 . S
C1789 C1783 1.363 . S
C1789 C1784 1.379 . S
C1789 N1787 1.356 1_556 S
N1790 C1782 1.356 . S
N1790 H1796 0.984 . S
N1790 H1797 0.984 . S
N1791 C1784 1.356 . S
N1791 H1794 0.984 . S
N1791 H1795 0.985 . S
H1792 N1787 0.984 . S
H1793 N1787 0.985 . S
H1794 N1791 0.984 . S
H1795 N1791 0.985 . S
H1796 N1790 0.984 . S
H1797 N1790 0.984 . S
H1798 N1786 0.984 . S
H1799 N1786 0.985 . S
C1800 C1801 1.363 . S
C1800 C1806 1.379 . S
C1800 N1808 1.356 1_556 S
C1801 C1800 1.363 . S
C1801 C1807 1.363 . S
C1802 C1803 1.363 . S
C1802 C1807 1.379 . S
C1802 N1809 1.356 . S
C1803 C1802 1.363 . S
C1803 C1806 1.363 . S
N1804 C1806 1.356 . S
N1804 H1816 0.984 . S
N1804 H1817 0.985 . S
N1805 C1807 1.356 . S
N1805 H1810 0.984 . S
N1805 H1811 0.985 . S
C1806 C1800 1.379 . S
C1806 C1803 1.363 . S
C1806 N1804 1.356 . S
C1807 C1801 1.363 . S
C1807 C1802 1.379 . S
C1807 N1805 1.356 . S
N1808 C1800 1.356 1_554 S
N1808 H1814 0.984 . S
N1808 H1815 0.984 . S
N1809 C1802 1.356 . S
N1809 H1812 0.984 . S
N1809 H1813 0.985 . S
H1810 N1805 0.984 . S
H1811 N1805 0.985 . S
H1812 N1809 0.984 . S
H1813 N1809 0.985 . S
H1814 N1808 0.984 . S
H1815 N1808 0.984 . S
H1816 N1804 0.984 . S
H1817 N1804 0.985 . S
C1818 C1819 1.363 . S
C1818 C1824 1.379 1_554 S
C1818 N1826 1.356 . S
C1819 C1818 1.363 . S
C1819 C1825 1.363 . S
C1820 C1821 1.363 1_554 S
C1820 C1825 1.379 . S
C1820 N1827 1.356 . S
C1821 C1820 1.363 1_556 S
C1821 C1824 1.363 . S
N1822 C1824 1.356 . S
N1822 H1834 0.984 . S
N1822 H1835 0.985 . S
N1823 C1825 1.356 . S
N1823 H1828 0.984 . S
N1823 H1829 0.985 . S
C1824 C1818 1.379 1_556 S
C1824 C1821 1.363 . S
C1824 N1822 1.356 . S
C1825 C1819 1.363 . S
C1825 C1820 1.379 . S
C1825 N1823 1.356 . S
N1826 C1818 1.356 . S
N1826 H1832 0.984 . S
N1826 H1833 0.984 . S
N1827 C1820 1.356 . S
N1827 H1830 0.984 1_554 S
N1827 H1831 0.985 . S
H1828 N1823 0.984 . S
H1829 N1823 0.985 . S
H1830 N1827 0.984 1_556 S
H1831 N1827 0.985 . S
H1832 N1826 0.984 . S
H1833 N1826 0.984 . S
H1834 N1822 0.984 . S
H1835 N1822 0.985 . S
C1836 C1837 1.363 . S
C1836 C1842 1.379 . S
C1836 N1844 1.356 . S
C1837 C1836 1.363 . S
C1837 C1843 1.363 . S
C1838 C1839 1.363 . S
C1838 C1843 1.379 1_556 S
C1838 N1845 1.356 . S
C1839 C1838 1.363 . S
C1839 C1842 1.363 1_556 S
N1840 C1842 1.356 . S
N1840 H1852 0.984 . S
N1840 H1853 0.985 1_554 S
N1841 C1843 1.356 . S
N1841 H1846 0.984 . S
N1841 H1847 0.985 . S
C1842 C1836 1.379 . S
C1842 C1839 1.363 1_554 S
C1842 N1840 1.356 . S
C1843 C1837 1.363 . S
C1843 C1838 1.379 1_554 S
C1843 N1841 1.356 . S
N1844 C1836 1.356 . S
N1844 H1850 0.984 . S
N1844 H1851 0.984 . S
N1845 C1838 1.356 . S
N1845 H1848 0.984 . S
N1845 H1849 0.985 . S
H1846 N1841 0.984 . S
H1847 N1841 0.985 . S
H1848 N1845 0.984 . S
H1849 N1845 0.985 . S
H1850 N1844 0.984 . S
H1851 N1844 0.984 . S
H1852 N1840 0.984 . S
H1853 N1840 0.985 1_556 S
C1854 C1855 1.363 1_554 S
C1854 C1860 1.379 . S
C1854 N1862 1.356 . S
C1855 C1854 1.363 1_556 S
C1855 C1861 1.363 . S
C1856 C1857 1.363 . S
C1856 C1861 1.379 1_554 S
C1856 N1863 1.356 . S
C1857 C1856 1.363 . S
C1857 C1860 1.363 . S
N1858 C1860 1.356 . S
N1858 H1870 0.984 . S
N1858 H1871 0.985 . S
N1859 C1861 1.356 . S
N1859 H1864 0.984 . S
N1859 H1865 0.985 . S
C1860 C1854 1.379 . S
C1860 C1857 1.363 . S
C1860 N1858 1.356 . S
C1861 C1855 1.363 . S
C1861 C1856 1.379 1_556 S
C1861 N1859 1.356 . S
N1862 C1854 1.356 . S
N1862 H1868 0.984 . S
N1862 H1869 0.984 . S
N1863 C1856 1.356 . S
N1863 H1866 0.984 . S
N1863 H1867 0.985 1_554 S
H1864 N1859 0.984 . S
H1865 N1859 0.985 . S
H1866 N1863 0.984 . S
H1867 N1863 0.985 1_556 S
H1868 N1862 0.984 . S
H1869 N1862 0.984 . S
H1870 N1858 0.984 . S
H1871 N1858 0.985 . S
C1872 C1873 1.363 . S
C1872 C1878 1.379 . S
C1872 N1880 1.356 . S
C1873 C1872 1.363 . S
C1873 C1879 1.363 . S
C1874 C1875 1.363 . S
C1874 C1879 1.379 . S
C1874 N1881 1.356 . S
C1875 C1874 1.363 . S
C1875 C1878 1.363 . S
N1876 C1878 1.356 . S
N1876 H1888 0.984 . S
N1876 H1889 0.985 . S
N1877 C1879 1.356 . S
N1877 H1882 0.984 . S
N1877 H1883 0.985 . S
C1878 C1872 1.379 . S
C1878 C1875 1.363 . S
C1878 N1876 1.356 . S
C1879 C1873 1.363 . S
C1879 C1874 1.379 . S
C1879 N1877 1.356 . S
N1880 C1872 1.356 . S
N1880 H1886 0.984 . S
N1880 H1887 0.984 . S
N1881 C1874 1.356 . S
N1881 H1884 0.984 . S
N1881 H1885 0.985 . S
H1882 N1877 0.984 . S
H1883 N1877 0.985 . S
H1884 N1881 0.984 . S
H1885 N1881 0.985 . S
H1886 N1880 0.984 . S
H1887 N1880 0.984 . S
H1888 N1876 0.984 . S
H1889 N1876 0.985 . S
C1890 C1891 1.363 . S
C1890 C1896 1.379 1_545 S
C1890 N1898 1.356 . S
C1891 C1890 1.363 . S
C1891 C1897 1.363 . S
C1892 C1893 1.363 . S
C1892 C1897 1.379 1_565 S
C1892 N1899 1.356 . S
C1893 C1892 1.363 . S
C1893 C1896 1.363 . S
N1894 C1896 1.356 . S
N1894 H1906 0.984 . S
N1894 H1907 0.985 . S
N1895 C1897 1.356 . S
N1895 H1900 0.984 . S
N1895 H1901 0.985 . S
C1896 C1890 1.379 1_565 S
C1896 C1893 1.363 . S
C1896 N1894 1.356 . S
C1897 C1891 1.363 . S
C1897 C1892 1.379 1_545 S
C1897 N1895 1.356 . S
N1898 C1890 1.356 . S
N1898 H1904 0.984 . S
N1898 H1905 0.984 . S
N1899 C1892 1.356 . S
N1899 H1902 0.984 . S
N1899 H1903 0.985 . S
H1900 N1895 0.984 . S
H1901 N1895 0.985 . S
H1902 N1899 0.984 . S
H1903 N1899 0.985 . S
H1904 N1898 0.984 . S
H1905 N1898 0.984 . S
H1906 N1894 0.984 . S
H1907 N1894 0.985 . S
C1908 C1909 1.363 . S
C1908 C1914 1.379 1_655 S
C1908 N1916 1.356 . S
C1909 C1908 1.363 . S
C1909 C1915 1.363 . S
C1910 C1911 1.363 . S
C1910 C1915 1.379 1_455 S
C1910 N1917 1.356 . S
C1911 C1910 1.363 . S
C1911 C1914 1.363 . S
N1912 C1914 1.356 . S
N1912 H1924 0.984 . S
N1912 H1925 0.985 . S
N1913 C1915 1.356 . S
N1913 H1918 0.984 . S
N1913 H1919 0.985 . S
C1914 C1908 1.379 1_455 S
C1914 C1911 1.363 . S
C1914 N1912 1.356 . S
C1915 C1909 1.363 . S
C1915 C1910 1.379 1_655 S
C1915 N1913 1.356 . S
N1916 C1908 1.356 . S
N1916 H1922 0.984 . S
N1916 H1923 0.984 . S
N1917 C1910 1.356 . S
N1917 H1920 0.984 . S
N1917 H1921 0.985 . S
H1918 N1913 0.984 . S
H1919 N1913 0.985 . S
H1920 N1917 0.984 . S
H1921 N1917 0.985 . S
H1922 N1916 0.984 . S
H1923 N1916 0.984 . S
H1924 N1912 0.984 . S
H1925 N1912 0.985 . S
C1926 C1927 1.363 . S
C1926 C1932 1.379 . S
C1926 N1934 1.356 . S
C1927 C1926 1.363 . S
C1927 C1933 1.363 . S
C1928 C1929 1.363 . S
C1928 C1933 1.379 . S
C1928 N1935 1.356 . S
C1929 C1928 1.363 . S
C1929 C1932 1.363 . S
N1930 C1932 1.356 . S
N1930 H1942 0.984 . S
N1930 H1943 0.985 . S
N1931 C1933 1.356 . S
N1931 H1936 0.984 . S
N1931 H1937 0.985 . S
C1932 C1926 1.379 . S
C1932 C1929 1.363 . S
C1932 N1930 1.356 . S
C1933 C1927 1.363 . S
C1933 C1928 1.379 . S
C1933 N1931 1.356 . S
N1934 C1926 1.356 . S
N1934 H1940 0.984 . S
N1934 H1941 0.984 . S
N1935 C1928 1.356 . S
N1935 H1938 0.984 . S
N1935 H1939 0.985 . S
H1936 N1931 0.984 . S
H1937 N1931 0.985 . S
H1938 N1935 0.984 . S
H1939 N1935 0.985 . S
H1940 N1934 0.984 . S
H1941 N1934 0.984 . S
H1942 N1930 0.984 . S
H1943 N1930 0.985 . S
C1944 C1945 1.363 . S
C1944 C1950 1.379 1_565 S
C1944 N1952 1.356 . S
C1945 C1944 1.363 . S
C1945 C1951 1.363 . S
C1946 C1947 1.363 . S
C1946 C1951 1.379 1_545 S
C1946 N1953 1.356 . S
C1947 C1946 1.363 . S
C1947 C1950 1.363 . S
N1948 C1950 1.356 . S
N1948 H1960 0.984 . S
N1948 H1961 0.985 . S
N1949 C1951 1.356 . S
N1949 H1954 0.984 . S
N1949 H1955 0.985 . S
C1950 C1944 1.379 1_545 S
C1950 C1947 1.363 . S
C1950 N1948 1.356 . S
C1951 C1945 1.363 . S
C1951 C1946 1.379 1_565 S
C1951 N1949 1.356 . S
N1952 C1944 1.356 . S
N1952 H1958 0.984 . S
N1952 H1959 0.984 . S
N1953 C1946 1.356 . S
N1953 H1956 0.984 . S
N1953 H1957 0.985 . S
H1954 N1949 0.984 . S
H1955 N1949 0.985 . S
H1956 N1953 0.984 . S
H1957 N1953 0.985 . S
H1958 N1952 0.984 . S
H1959 N1952 0.984 . S
H1960 N1948 0.984 . S
H1961 N1948 0.985 . S
C1962 C1963 1.363 . S
C1962 C1968 1.379 1_655 S
C1962 N1970 1.356 . S
C1963 C1962 1.363 . S
C1963 C1969 1.363 . S
C1964 C1965 1.363 . S
C1964 C1969 1.379 1_455 S
C1964 N1971 1.356 . S
C1965 C1964 1.363 . S
C1965 C1968 1.363 . S
N1966 C1968 1.356 . S
N1966 H1978 0.984 . S
N1966 H1979 0.985 . S
N1967 C1969 1.356 . S
N1967 H1972 0.984 . S
N1967 H1973 0.985 . S
C1968 C1962 1.379 1_455 S
C1968 C1965 1.363 . S
C1968 N1966 1.356 . S
C1969 C1963 1.363 . S
C1969 C1964 1.379 1_655 S
C1969 N1967 1.356 . S
N1970 C1962 1.356 . S
N1970 H1976 0.984 . S
N1970 H1977 0.984 . S
N1971 C1964 1.356 . S
N1971 H1974 0.984 . S
N1971 H1975 0.985 . S
H1972 N1967 0.984 . S
H1973 N1967 0.985 . S
H1974 N1971 0.984 . S
H1975 N1971 0.985 . S
H1976 N1970 0.984 . S
H1977 N1970 0.984 . S
H1978 N1966 0.984 . S
H1979 N1966 0.985 . S
C1980 C1981 1.363 . S
C1980 C1986 1.379 . S
C1980 N1988 1.356 . S
C1981 C1980 1.363 . S
C1981 C1987 1.363 . S
C1982 C1983 1.363 . S
C1982 C1987 1.379 . S
C1982 N1989 1.356 . S
C1983 C1982 1.363 . S
C1983 C1986 1.363 . S
N1984 C1986 1.356 . S
N1984 H1996 0.984 . S
N1984 H1997 0.985 . S
N1985 C1987 1.356 . S
N1985 H1990 0.984 . S
N1985 H1991 0.985 . S
C1986 C1980 1.379 . S
C1986 C1983 1.363 . S
C1986 N1984 1.356 . S
C1987 C1981 1.363 . S
C1987 C1982 1.379 . S
C1987 N1985 1.356 . S
N1988 C1980 1.356 . S
N1988 H1994 0.984 . S
N1988 H1995 0.984 . S
N1989 C1982 1.356 . S
N1989 H1992 0.984 . S
N1989 H1993 0.985 . S
H1990 N1985 0.984 . S
H1991 N1985 0.985 . S
H1992 N1989 0.984 . S
H1993 N1989 0.985 . S
H1994 N1988 0.984 . S
H1995 N1988 0.984 . S
H1996 N1984 0.984 . S
H1997 N1984 0.985 . S
C1998 C1999 1.363 . S
C1998 C2004 1.379 . S
C1998 N2006 1.356 . S
C1999 C1998 1.363 . S
C1999 C2005 1.363 . S
C2000 C2001 1.363 . S
C2000 C2005 1.379 . S
C2000 N2007 1.356 . S
C2001 C2000 1.363 . S
C2001 C2004 1.363 . S
N2002 C2004 1.356 . S
N2002 H2014 0.984 . S
N2002 H2015 0.985 . S
N2003 C2005 1.356 . S
N2003 H2008 0.984 . S
N2003 H2009 0.985 . S
C2004 C1998 1.379 . S
C2004 C2001 1.363 . S
C2004 N2002 1.356 . S
C2005 C1999 1.363 . S
C2005 C2000 1.379 . S
C2005 N2003 1.356 . S
N2006 C1998 1.356 . S
N2006 H2012 0.984 . S
N2006 H2013 0.984 . S
N2007 C2000 1.356 . S
N2007 H2010 0.984 . S
N2007 H2011 0.985 . S
H2008 N2003 0.984 . S
H2009 N2003 0.985 . S
H2010 N2007 0.984 . S
H2011 N2007 0.985 . S
H2012 N2006 0.984 . S
H2013 N2006 0.984 . S
H2014 N2002 0.984 . S
H2015 N2002 0.985 . S
C2016 C2017 1.363 . S
C2016 C2022 1.379 . S
C2016 N2024 1.356 . S
C2017 C2016 1.363 . S
C2017 C2023 1.363 . S
C2018 C2019 1.363 . S
C2018 C2023 1.379 . S
C2018 N2025 1.356 . S
C2019 C2018 1.363 . S
C2019 C2022 1.363 . S
N2020 C2022 1.356 . S
N2020 H2032 0.984 . S
N2020 H2033 0.985 . S
N2021 C2023 1.356 . S
N2021 H2026 0.984 . S
N2021 H2027 0.985 . S
C2022 C2016 1.379 . S
C2022 C2019 1.363 . S
C2022 N2020 1.356 . S
C2023 C2017 1.363 . S
C2023 C2018 1.379 . S
C2023 N2021 1.356 . S
N2024 C2016 1.356 . S
N2024 H2030 0.984 . S
N2024 H2031 0.984 . S
N2025 C2018 1.356 . S
N2025 H2028 0.984 . S
N2025 H2029 0.985 . S
H2026 N2021 0.984 . S
H2027 N2021 0.985 . S
H2028 N2025 0.984 . S
H2029 N2025 0.985 . S
H2030 N2024 0.984 . S
H2031 N2024 0.984 . S
H2032 N2020 0.984 . S
H2033 N2020 0.985 . S
C2034 C2035 1.363 . S
C2034 C2040 1.379 . S
C2034 N2042 1.356 . S
C2035 C2034 1.363 . S
C2035 C2041 1.363 . S
C2036 C2037 1.363 . S
C2036 C2041 1.379 . S
C2036 N2043 1.356 . S
C2037 C2036 1.363 . S
C2037 C2040 1.363 . S
N2038 C2040 1.360 . S
N2038 H2050 0.981 1_554 S
N2038 H2051 0.984 1_554 S
N2039 C2041 1.356 . S
N2039 H2044 0.984 . S
N2039 H2045 0.985 . S
C2040 C2034 1.379 . S
C2040 C2037 1.363 . S
C2040 N2038 1.360 . S
C2041 C2035 1.363 . S
C2041 C2036 1.379 . S
C2041 N2039 1.356 . S
N2042 C2034 1.356 . S
N2042 H2048 0.984 . S
N2042 H2049 0.984 . S
N2043 C2036 1.356 . S
N2043 H2046 0.984 . S
N2043 H2047 0.985 . S
H2044 N2039 0.984 . S
H2045 N2039 0.985 . S
H2046 N2043 0.984 . S
H2047 N2043 0.985 . S
H2048 N2042 0.984 . S
H2049 N2042 0.984 . S
H2050 N2038 0.981 1_556 S
H2051 N2038 0.984 1_556 S
C2052 C2053 1.363 . S
C2052 C2058 1.379 . S
C2052 N2060 1.356 . S
C2053 C2052 1.363 . S
C2053 C2059 1.363 . S
C2054 C2055 1.363 . S
C2054 C2059 1.379 . S
C2054 N2061 1.356 . S
C2055 C2054 1.363 . S
C2055 C2058 1.363 . S
N2056 C2058 1.356 . S
N2056 H2068 0.984 . S
N2056 H2069 0.985 . S
N2057 C2059 1.356 . S
N2057 H2062 0.984 . S
N2057 H2063 0.985 . S
C2058 C2052 1.379 . S
C2058 C2055 1.363 . S
C2058 N2056 1.356 . S
C2059 C2053 1.363 . S
C2059 C2054 1.379 . S
C2059 N2057 1.356 . S
N2060 C2052 1.356 . S
N2060 H2066 0.984 1_554 S
N2060 H2067 0.984 . S
N2061 C2054 1.356 . S
N2061 H2064 0.984 . S
N2061 H2065 0.985 . S
H2062 N2057 0.984 . S
H2063 N2057 0.985 . S
H2064 N2061 0.984 . S
H2065 N2061 0.985 . S
H2066 N2060 0.984 1_556 S
H2067 N2060 0.984 . S
H2068 N2056 0.984 . S
H2069 N2056 0.985 . S
C2070 C2071 1.363 . S
C2070 C2076 1.379 . S
C2070 N2078 1.356 . S
C2071 C2070 1.363 . S
C2071 C2077 1.363 . S
C2072 C2073 1.363 . S
C2072 C2077 1.379 . S
C2072 N2079 1.356 . S
C2073 C2072 1.363 . S
C2073 C2076 1.363 . S
N2074 C2076 1.356 . S
N2074 H2086 0.984 . S
N2074 H2087 0.985 . S
N2075 C2077 1.356 . S
N2075 H2080 0.984 . S
N2075 H2081 0.985 . S
C2076 C2070 1.379 . S
C2076 C2073 1.363 . S
C2076 N2074 1.356 . S
C2077 C2071 1.363 . S
C2077 C2072 1.379 . S
C2077 N2075 1.356 . S
N2078 C2070 1.356 . S
N2078 H2084 0.984 1_554 S
N2078 H2085 0.984 . S
N2079 C2072 1.356 . S
N2079 H2082 0.984 . S
N2079 H2083 0.985 . S
H2080 N2075 0.984 . S
H2081 N2075 0.985 . S
H2082 N2079 0.984 . S
H2083 N2079 0.985 . S
H2084 N2078 0.984 1_556 S
H2085 N2078 0.984 . S
H2086 N2074 0.984 . S
H2087 N2074 0.985 . S
C2088 C2089 1.355 1_554 S
C2088 C2094 1.383 . S
C2088 N2096 1.358 . S
C2089 C2088 1.355 1_556 S
C2089 C2095 1.363 . S
C2090 C2091 1.363 1_556 S
C2090 C2095 1.379 . S
C2090 N2097 1.356 . S
C2091 C2090 1.363 1_554 S
C2091 C2094 1.363 . S
N2092 C2094 1.356 . S
N2092 H2104 0.984 . S
N2092 H2105 0.985 . S
N2093 C2095 1.356 . S
N2093 H2098 0.984 . S
N2093 H2099 0.985 . S
C2094 C2088 1.383 . S
C2094 C2091 1.363 . S
C2094 N2092 1.356 . S
C2095 C2089 1.363 . S
C2095 C2090 1.379 . S
C2095 N2093 1.356 . S
N2096 C2088 1.358 . S
N2096 H2102 0.984 . S
N2096 H2103 0.984 1_554 S
N2097 C2090 1.356 . S
N2097 H2100 0.984 . S
N2097 H2101 0.985 . S
H2098 N2093 0.984 . S
H2099 N2093 0.985 . S
H2100 N2097 0.984 . S
H2101 N2097 0.985 . S
H2102 N2096 0.984 . S
H2103 N2096 0.984 1_556 S
H2104 N2092 0.984 . S
H2105 N2092 0.985 . S
C2106 C2107 1.363 . S
C2106 C2112 1.379 . S
C2106 N2114 1.356 . S
C2107 C2106 1.363 . S
C2107 C2113 1.363 1_554 S
C2108 C2109 1.363 . S
C2108 C2113 1.379 . S
C2108 N2115 1.356 . S
C2109 C2108 1.363 . S
C2109 C2112 1.363 1_556 S
N2110 C2112 1.356 . S
N2110 H2122 0.984 . S
N2110 H2123 0.985 1_554 S
N2111 C2113 1.356 . S
N2111 H2116 0.984 . S
N2111 H2117 0.985 . S
C2112 C2106 1.379 . S
C2112 C2109 1.363 1_554 S
C2112 N2110 1.356 . S
C2113 C2107 1.363 1_556 S
C2113 C2108 1.379 . S
C2113 N2111 1.356 . S
N2114 C2106 1.356 . S
N2114 H2120 0.984 . S
N2114 H2121 0.984 . S
N2115 C2108 1.356 . S
N2115 H2118 0.984 . S
N2115 H2119 0.985 . S
H2116 N2111 0.984 . S
H2117 N2111 0.985 . S
H2118 N2115 0.984 . S
H2119 N2115 0.985 . S
H2120 N2114 0.984 . S
H2121 N2114 0.984 . S
H2122 N2110 0.984 . S
H2123 N2110 0.985 1_556 S
C2124 C2125 1.363 . S
C2124 C2130 1.379 . S
C2124 N2132 1.356 . S
C2125 C2124 1.363 . S
C2125 C2131 1.363 1_556 S
C2126 C2127 1.363 . S
C2126 C2131 1.379 . S
C2126 N2133 1.356 . S
C2127 C2126 1.363 . S
C2127 C2130 1.363 1_554 S
N2128 C2130 1.356 . S
N2128 H2140 0.984 . S
N2128 H2141 0.985 . S
N2129 C2131 1.356 . S
N2129 H2134 0.984 . S
N2129 H2135 0.985 . S
C2130 C2124 1.379 . S
C2130 C2127 1.363 1_556 S
C2130 N2128 1.356 . S
C2131 C2125 1.363 1_554 S
C2131 C2126 1.379 . S
C2131 N2129 1.356 . S
N2132 C2124 1.356 . S
N2132 H2138 0.984 . S
N2132 H2139 0.984 . S
N2133 C2126 1.356 . S
N2133 H2136 0.984 . S
N2133 H2137 0.985 . S
H2134 N2129 0.984 . S
H2135 N2129 0.985 . S
H2136 N2133 0.984 . S
H2137 N2133 0.985 . S
H2138 N2132 0.984 . S
H2139 N2132 0.984 . S
H2140 N2128 0.984 . S
H2141 N2128 0.985 . S
C2142 C2143 1.363 . S
C2142 C2148 1.379 . S
C2142 N2150 1.356 . S
C2143 C2142 1.363 . S
C2143 C2149 1.363 . S
C2144 C2145 1.363 . S
C2144 C2149 1.379 . S
C2144 N2151 1.356 . S
C2145 C2144 1.363 . S
C2145 C2148 1.363 . S
N2146 C2148 1.356 . S
N2146 H2158 0.984 . S
N2146 H2159 0.985 . S
N2147 C2149 1.356 . S
N2147 H2152 0.984 . S
N2147 H2153 0.985 . S
C2148 C2142 1.379 . S
C2148 C2145 1.363 . S
C2148 N2146 1.356 . S
C2149 C2143 1.363 . S
C2149 C2144 1.379 . S
C2149 N2147 1.356 . S
N2150 C2142 1.356 . S
N2150 H2156 0.984 . S
N2150 H2157 0.984 . S
N2151 C2144 1.356 . S
N2151 H2154 0.984 . S
N2151 H2155 0.985 . S
H2152 N2147 0.984 . S
H2153 N2147 0.985 . S
H2154 N2151 0.984 . S
H2155 N2151 0.985 . S
H2156 N2150 0.984 . S
H2157 N2150 0.984 . S
H2158 N2146 0.984 . S
H2159 N2146 0.985 . S
C2160 C2161 1.363 . S
C2160 C2166 1.379 . S
C2160 N2168 1.356 . S
C2161 C2160 1.363 . S
C2161 C2167 1.363 . S
C2162 C2163 1.363 . S
C2162 C2167 1.379 . S
C2162 N2169 1.356 . S
C2163 C2162 1.363 . S
C2163 C2166 1.363 . S
N2164 C2166 1.356 . S
N2164 H2176 0.984 . S
N2164 H2177 0.985 . S
N2165 C2167 1.356 . S
N2165 H2170 0.984 . S
N2165 H2171 0.985 . S
C2166 C2160 1.379 . S
C2166 C2163 1.363 . S
C2166 N2164 1.356 . S
C2167 C2161 1.363 . S
C2167 C2162 1.379 . S
C2167 N2165 1.356 . S
N2168 C2160 1.356 . S
N2168 H2174 0.984 . S
N2168 H2175 0.984 . S
N2169 C2162 1.356 . S
N2169 H2172 0.984 . S
N2169 H2173 0.985 . S
H2170 N2165 0.984 . S
H2171 N2165 0.985 . S
H2172 N2169 0.984 . S
H2173 N2169 0.985 . S
H2174 N2168 0.984 . S
H2175 N2168 0.984 . S
H2176 N2164 0.984 . S
H2177 N2164 0.985 . S
C2178 C2179 1.363 . S
C2178 C2184 1.379 . S
C2178 N2186 1.356 . S
C2179 C2178 1.363 . S
C2179 C2185 1.363 . S
C2180 C2181 1.363 . S
C2180 C2185 1.379 . S
C2180 N2187 1.356 . S
C2181 C2180 1.363 . S
C2181 C2184 1.363 . S
N2182 C2184 1.356 . S
N2182 H2194 0.984 . S
N2182 H2195 0.985 . S
N2183 C2185 1.356 . S
N2183 H2188 0.984 . S
N2183 H2189 0.985 . S
C2184 C2178 1.379 . S
C2184 C2181 1.363 . S
C2184 N2182 1.356 . S
C2185 C2179 1.363 . S
C2185 C2180 1.379 . S
C2185 N2183 1.356 . S
N2186 C2178 1.356 . S
N2186 H2192 0.984 . S
N2186 H2193 0.984 . S
N2187 C2180 1.356 . S
N2187 H2190 0.984 . S
N2187 H2191 0.985 . S
H2188 N2183 0.984 . S
H2189 N2183 0.985 . S
H2190 N2187 0.984 . S
H2191 N2187 0.985 . S
H2192 N2186 0.984 . S
H2193 N2186 0.984 . S
H2194 N2182 0.984 . S
H2195 N2182 0.985 . S
C2196 C2197 1.363 . S
C2196 C2202 1.379 . S
C2196 N2204 1.356 . S
C2197 C2196 1.363 . S
C2197 C2203 1.363 . S
C2198 C2199 1.363 . S
C2198 C2203 1.379 . S
C2198 N2205 1.356 . S
C2199 C2198 1.363 . S
C2199 C2202 1.363 . S
N2200 C2202 1.356 . S
N2200 H2212 0.984 . S
N2200 H2213 0.985 . S
N2201 C2203 1.356 . S
N2201 H2206 0.984 . S
N2201 H2207 0.985 . S
C2202 C2196 1.379 . S
C2202 C2199 1.363 . S
C2202 N2200 1.356 . S
C2203 C2197 1.363 . S
C2203 C2198 1.379 . S
C2203 N2201 1.356 . S
N2204 C2196 1.356 . S
N2204 H2210 0.984 . S
N2204 H2211 0.984 . S
N2205 C2198 1.356 . S
N2205 H2208 0.984 . S
N2205 H2209 0.985 . S
H2206 N2201 0.984 . S
H2207 N2201 0.985 . S
H2208 N2205 0.984 . S
H2209 N2205 0.985 . S
H2210 N2204 0.984 . S
H2211 N2204 0.984 . S
H2212 N2200 0.984 . S
H2213 N2200 0.985 . S
C2214 C2215 1.363 . S
C2214 C2220 1.379 . S
C2214 N2222 1.356 . S
C2215 C2214 1.363 . S
C2215 C2221 1.363 1_545 S
C2216 C2217 1.363 . S
C2216 C2221 1.379 . S
C2216 N2223 1.356 . S
C2217 C2216 1.363 . S
C2217 C2220 1.363 1_565 S
N2218 C2220 1.362 . S
N2218 H2230 1.015 . S
N2218 H2231 0.950 1_545 S
N2219 C2221 1.362 . S
N2219 H2224 0.949 1_565 S
N2219 H2225 1.016 . S
C2220 C2214 1.379 . S
C2220 C2217 1.363 1_545 S
C2220 N2218 1.362 . S
C2221 C2215 1.363 1_565 S
C2221 C2216 1.379 . S
C2221 N2219 1.362 . S
N2222 C2214 1.356 . S
N2222 H2228 0.984 . S
N2222 H2229 0.984 . S
N2223 C2216 1.356 . S
N2223 H2226 0.984 . S
N2223 H2227 0.985 . S
H2224 N2219 0.949 1_545 S
H2225 N2219 1.016 . S
H2226 N2223 0.984 . S
H2227 N2223 0.985 . S
H2228 N2222 0.984 . S
H2229 N2222 0.984 . S
H2230 N2218 1.015 . S
H2231 N2218 0.950 1_565 S
C2232 C2233 1.363 . S
C2232 C2238 1.379 . S
C2232 N2240 1.356 . S
C2233 C2232 1.363 . S
C2233 C2239 1.363 1_455 S
C2234 C2235 1.363 . S
C2234 C2239 1.379 . S
C2234 N2241 1.356 . S
C2235 C2234 1.363 . S
C2235 C2238 1.363 1_655 S
N2236 C2238 1.362 . S
N2236 H2248 1.012 . S
N2236 H2249 0.953 1_455 S
N2237 C2239 1.362 . S
N2237 H2242 0.952 1_655 S
N2237 H2243 1.012 . S
C2238 C2232 1.379 . S
C2238 C2235 1.363 1_455 S
C2238 N2236 1.362 . S
C2239 C2233 1.363 1_655 S
C2239 C2234 1.379 . S
C2239 N2237 1.362 . S
N2240 C2232 1.356 . S
N2240 H2246 0.984 . S
N2240 H2247 0.984 . S
N2241 C2234 1.356 . S
N2241 H2244 0.984 . S
N2241 H2245 0.985 . S
H2242 N2237 0.952 1_455 S
H2243 N2237 1.012 . S
H2244 N2241 0.984 . S
H2245 N2241 0.985 . S
H2246 N2240 0.984 . S
H2247 N2240 0.984 . S
H2248 N2236 1.012 . S
H2249 N2236 0.953 1_655 S
C2250 C2251 1.363 . S
C2250 C2256 1.379 . S
C2250 N2258 1.356 . S
C2251 C2250 1.363 . S
C2251 C2257 1.363 . S
C2252 C2253 1.363 . S
C2252 C2257 1.379 . S
C2252 N2259 1.356 . S
C2253 C2252 1.363 . S
C2253 C2256 1.363 . S
N2254 C2256 1.356 . S
N2254 H2266 0.984 . S
N2254 H2267 0.985 . S
N2255 C2257 1.356 . S
N2255 H2260 0.984 . S
N2255 H2261 0.985 . S
C2256 C2250 1.379 . S
C2256 C2253 1.363 . S
C2256 N2254 1.356 . S
C2257 C2251 1.363 . S
C2257 C2252 1.379 . S
C2257 N2255 1.356 . S
N2258 C2250 1.356 . S
N2258 H2264 0.984 . S
N2258 H2265 0.984 . S
N2259 C2252 1.356 . S
N2259 H2262 0.984 . S
N2259 H2263 0.985 . S
H2260 N2255 0.984 . S
H2261 N2255 0.985 . S
H2262 N2259 0.984 . S
H2263 N2259 0.985 . S
H2264 N2258 0.984 . S
H2265 N2258 0.984 . S
H2266 N2254 0.984 . S
H2267 N2254 0.985 . S
C2268 C2269 1.363 . S
C2268 C2274 1.379 . S
C2268 N2276 1.356 . S
C2269 C2268 1.363 . S
C2269 C2275 1.363 1_545 S
C2270 C2271 1.363 . S
C2270 C2275 1.379 . S
C2270 N2277 1.356 . S
C2271 C2270 1.363 . S
C2271 C2274 1.363 1_565 S
N2272 C2274 1.359 . S
N2272 H2284 1.007 . S
N2272 H2285 0.961 1_545 S
N2273 C2275 1.358 . S
N2273 H2278 0.961 1_565 S
N2273 H2279 1.006 . S
C2274 C2268 1.379 . S
C2274 C2271 1.363 1_545 S
C2274 N2272 1.359 . S
C2275 C2269 1.363 1_565 S
C2275 C2270 1.379 . S
C2275 N2273 1.358 . S
N2276 C2268 1.356 . S
N2276 H2282 0.984 . S
N2276 H2283 0.984 . S
N2277 C2270 1.356 . S
N2277 H2280 0.984 . S
N2277 H2281 0.985 . S
H2278 N2273 0.961 1_545 S
H2279 N2273 1.006 . S
H2280 N2277 0.984 . S
H2281 N2277 0.985 . S
H2282 N2276 0.984 . S
H2283 N2276 0.984 . S
H2284 N2272 1.007 . S
H2285 N2272 0.961 1_565 S
C2286 C2287 1.363 . S
C2286 C2292 1.379 1_655 S
C2286 N2294 1.356 . S
C2287 C2286 1.363 . S
C2287 C2293 1.363 . S
C2288 C2289 1.363 . S
C2288 C2293 1.379 1_455 S
C2288 N2295 1.356 . S
C2289 C2288 1.363 . S
C2289 C2292 1.363 . S
N2290 C2292 1.356 . S
N2290 H2302 0.984 . S
N2290 H2303 0.985 . S
N2291 C2293 1.356 . S
N2291 H2296 0.984 . S
N2291 H2297 0.985 . S
C2292 C2286 1.379 1_455 S
C2292 C2289 1.363 . S
C2292 N2290 1.356 . S
C2293 C2287 1.363 . S
C2293 C2288 1.379 1_655 S
C2293 N2291 1.356 . S
N2294 C2286 1.356 . S
N2294 H2300 0.984 . S
N2294 H2301 0.984 . S
N2295 C2288 1.356 . S
N2295 H2298 0.984 . S
N2295 H2299 0.985 . S
H2296 N2291 0.984 . S
H2297 N2291 0.985 . S
H2298 N2295 0.984 . S
H2299 N2295 0.985 . S
H2300 N2294 0.984 . S
H2301 N2294 0.984 . S
H2302 N2290 0.984 . S
H2303 N2290 0.985 . S
C2304 C2305 1.363 . S
C2304 C2310 1.379 . S
C2304 N2312 1.356 . S
C2305 C2304 1.363 . S
C2305 C2311 1.363 . S
C2306 C2307 1.363 . S
C2306 C2311 1.379 . S
C2306 N2313 1.356 . S
C2307 C2306 1.363 . S
C2307 C2310 1.363 . S
N2308 C2310 1.356 . S
N2308 H2320 0.984 1_554 S
N2308 H2321 0.985 1_554 S
N2309 C2311 1.356 . S
N2309 H2314 0.984 . S
N2309 H2315 0.985 . S
C2310 C2304 1.379 . S
C2310 C2307 1.363 . S
C2310 N2308 1.356 . S
C2311 C2305 1.363 . S
C2311 C2306 1.379 . S
C2311 N2309 1.356 . S
N2312 C2304 1.356 . S
N2312 H2318 0.984 . S
N2312 H2319 0.984 . S
N2313 C2306 1.356 . S
N2313 H2316 0.984 . S
N2313 H2317 0.985 . S
H2314 N2309 0.984 . S
H2315 N2309 0.985 . S
H2316 N2313 0.984 . S
H2317 N2313 0.985 . S
H2318 N2312 0.984 . S
H2319 N2312 0.984 . S
H2320 N2308 0.984 1_556 S
H2321 N2308 0.985 1_556 S
C2322 C2323 1.363 . S
C2322 C2328 1.379 . S
C2322 N2330 1.356 . S
C2323 C2322 1.363 . S
C2323 C2329 1.363 . S
C2324 C2325 1.363 . S
C2324 C2329 1.379 . S
C2324 N2331 1.356 1_554 S
C2325 C2324 1.363 . S
C2325 C2328 1.363 . S
N2326 C2328 1.356 . S
N2326 H2338 0.984 . S
N2326 H2339 0.985 . S
N2327 C2329 1.356 . S
N2327 H2332 0.984 . S
N2327 H2333 0.985 . S
C2328 C2322 1.379 . S
C2328 C2325 1.363 . S
C2328 N2326 1.356 . S
C2329 C2323 1.363 . S
C2329 C2324 1.379 . S
C2329 N2327 1.356 . S
N2330 C2322 1.356 . S
N2330 H2336 0.984 . S
N2330 H2337 0.984 . S
N2331 C2324 1.356 1_556 S
N2331 H2334 0.984 . S
N2331 H2335 0.985 . S
H2332 N2327 0.984 . S
H2333 N2327 0.985 . S
H2334 N2331 0.984 . S
H2335 N2331 0.985 . S
H2336 N2330 0.984 . S
H2337 N2330 0.984 . S
H2338 N2326 0.984 . S
H2339 N2326 0.985 . S
C2340 C2341 1.363 . S
C2340 C2346 1.379 . S
C2340 N2348 1.356 . S
C2341 C2340 1.363 . S
C2341 C2347 1.363 . S
C2342 C2343 1.363 . S
C2342 C2347 1.379 . S
C2342 N2349 1.356 . S
C2343 C2342 1.363 . S
C2343 C2346 1.363 . S
N2344 C2346 1.356 . S
N2344 H2356 0.984 . S
N2344 H2357 0.985 . S
N2345 C2347 1.356 . S
N2345 H2350 0.984 . S
N2345 H2351 0.985 . S
C2346 C2340 1.379 . S
C2346 C2343 1.363 . S
C2346 N2344 1.356 . S
C2347 C2341 1.363 . S
C2347 C2342 1.379 . S
C2347 N2345 1.356 . S
N2348 C2340 1.356 . S
N2348 H2354 0.984 . S
N2348 H2355 0.984 . S
N2349 C2342 1.356 . S
N2349 H2352 0.984 . S
N2349 H2353 0.985 . S
H2350 N2345 0.984 . S
H2351 N2345 0.985 . S
H2352 N2349 0.984 . S
H2353 N2349 0.985 . S
H2354 N2348 0.984 . S
H2355 N2348 0.984 . S
H2356 N2344 0.984 . S
H2357 N2344 0.985 . S
C2358 C2359 1.363 . S
C2358 C2364 1.379 . S
C2358 N2366 1.356 . S
C2359 C2358 1.363 . S
C2359 C2365 1.363 . S
C2360 C2361 1.363 . S
C2360 C2365 1.379 . S
C2360 N2367 1.356 . S
C2361 C2360 1.363 . S
C2361 C2364 1.363 . S
N2362 C2364 1.356 . S
N2362 H2374 0.984 . S
N2362 H2375 0.985 . S
N2363 C2365 1.356 . S
N2363 H2368 0.984 . S
N2363 H2369 0.985 . S
C2364 C2358 1.379 . S
C2364 C2361 1.363 . S
C2364 N2362 1.356 . S
C2365 C2359 1.363 . S
C2365 C2360 1.379 . S
C2365 N2363 1.356 . S
N2366 C2358 1.356 . S
N2366 H2372 0.984 . S
N2366 H2373 0.984 . S
N2367 C2360 1.356 . S
N2367 H2370 0.984 . S
N2367 H2371 0.985 . S
H2368 N2363 0.984 . S
H2369 N2363 0.985 . S
H2370 N2367 0.984 . S
H2371 N2367 0.985 . S
H2372 N2366 0.984 . S
H2373 N2366 0.984 . S
H2374 N2362 0.984 . S
H2375 N2362 0.985 . S
C2376 C2377 1.363 . S
C2376 C2382 1.379 . S
C2376 N2384 1.356 . S
C2377 C2376 1.363 . S
C2377 C2383 1.363 . S
C2378 C2379 1.363 . S
C2378 C2383 1.379 . S
C2378 N2385 1.356 . S
C2379 C2378 1.363 . S
C2379 C2382 1.363 . S
N2380 C2382 1.356 . S
N2380 H2392 0.984 . S
N2380 H2393 0.985 . S
N2381 C2383 1.356 . S
N2381 H2386 0.984 . S
N2381 H2387 0.985 . S
C2382 C2376 1.379 . S
C2382 C2379 1.363 . S
C2382 N2380 1.356 . S
C2383 C2377 1.363 . S
C2383 C2378 1.379 . S
C2383 N2381 1.356 . S
N2384 C2376 1.356 . S
N2384 H2390 0.984 . S
N2384 H2391 0.984 . S
N2385 C2378 1.356 . S
N2385 H2388 0.984 . S
N2385 H2389 0.985 . S
H2386 N2381 0.984 . S
H2387 N2381 0.985 . S
H2388 N2385 0.984 . S
H2389 N2385 0.985 . S
H2390 N2384 0.984 . S
H2391 N2384 0.984 . S
H2392 N2380 0.984 . S
H2393 N2380 0.985 . S
C2394 C2395 1.363 . S
C2394 C2400 1.379 . S
C2394 N2402 1.356 . S
C2395 C2394 1.363 . S
C2395 C2401 1.363 . S
C2396 C2397 1.363 . S
C2396 C2401 1.379 . S
C2396 N2403 1.356 . S
C2397 C2396 1.363 . S
C2397 C2400 1.363 . S
N2398 C2400 1.356 . S
N2398 H2410 0.984 . S
N2398 H2411 0.985 . S
N2399 C2401 1.356 . S
N2399 H2404 0.984 . S
N2399 H2405 0.985 . S
C2400 C2394 1.379 . S
C2400 C2397 1.363 . S
C2400 N2398 1.356 . S
C2401 C2395 1.363 . S
C2401 C2396 1.379 . S
C2401 N2399 1.356 . S
N2402 C2394 1.356 . S
N2402 H2408 0.984 . S
N2402 H2409 0.984 . S
N2403 C2396 1.356 . S
N2403 H2406 0.984 . S
N2403 H2407 0.985 . S
H2404 N2399 0.984 . S
H2405 N2399 0.985 . S
H2406 N2403 0.984 . S
H2407 N2403 0.985 . S
H2408 N2402 0.984 . S
H2409 N2402 0.984 . S
H2410 N2398 0.984 . S
H2411 N2398 0.985 . S
C2412 C2413 1.363 . S
C2412 C2418 1.379 . S
C2412 N2420 1.356 . S
C2413 C2412 1.363 . S
C2413 C2419 1.363 . S
C2414 C2415 1.363 . S
C2414 C2419 1.379 . S
C2414 N2421 1.356 . S
C2415 C2414 1.363 . S
C2415 C2418 1.363 . S
N2416 C2418 1.356 . S
N2416 H2428 0.984 . S
N2416 H2429 0.985 . S
N2417 C2419 1.356 . S
N2417 H2422 0.984 . S
N2417 H2423 0.985 . S
C2418 C2412 1.379 . S
C2418 C2415 1.363 . S
C2418 N2416 1.356 . S
C2419 C2413 1.363 . S
C2419 C2414 1.379 . S
C2419 N2417 1.356 . S
N2420 C2412 1.356 . S
N2420 H2426 0.984 . S
N2420 H2427 0.984 . S
N2421 C2414 1.356 . S
N2421 H2424 0.984 . S
N2421 H2425 0.985 . S
H2422 N2417 0.984 . S
H2423 N2417 0.985 . S
H2424 N2421 0.984 . S
H2425 N2421 0.985 . S
H2426 N2420 0.984 . S
H2427 N2420 0.984 . S
H2428 N2416 0.984 . S
H2429 N2416 0.985 . S
C2430 C2431 1.363 . S
C2430 C2436 1.379 . S
C2430 N2438 1.356 . S
C2431 C2430 1.363 . S
C2431 C2437 1.363 . S
C2432 C2433 1.363 . S
C2432 C2437 1.379 . S
C2432 N2439 1.356 . S
C2433 C2432 1.363 . S
C2433 C2436 1.363 . S
N2434 C2436 1.356 . S
N2434 H2446 0.984 . S
N2434 H2447 0.985 . S
N2435 C2437 1.356 . S
N2435 H2440 0.984 . S
N2435 H2441 0.985 . S
C2436 C2430 1.379 . S
C2436 C2433 1.363 . S
C2436 N2434 1.356 . S
C2437 C2431 1.363 . S
C2437 C2432 1.379 . S
C2437 N2435 1.356 . S
N2438 C2430 1.356 . S
N2438 H2444 0.984 . S
N2438 H2445 0.984 . S
N2439 C2432 1.356 . S
N2439 H2442 0.984 . S
N2439 H2443 0.985 . S
H2440 N2435 0.984 . S
H2441 N2435 0.985 . S
H2442 N2439 0.984 . S
H2443 N2439 0.985 . S
H2444 N2438 0.984 . S
H2445 N2438 0.984 . S
H2446 N2434 0.984 . S
H2447 N2434 0.985 . S
C2448 C2449 1.363 . S
C2448 C2454 1.379 . S
C2448 N2456 1.356 . S
C2449 C2448 1.363 . S
C2449 C2455 1.363 . S
C2450 C2451 1.363 . S
C2450 C2455 1.379 . S
C2450 N2457 1.356 . S
C2451 C2450 1.363 . S
C2451 C2454 1.363 . S
N2452 C2454 1.356 . S
N2452 H2464 0.984 . S
N2452 H2465 0.985 . S
N2453 C2455 1.356 . S
N2453 H2458 0.984 . S
N2453 H2459 0.985 . S
C2454 C2448 1.379 . S
C2454 C2451 1.363 . S
C2454 N2452 1.356 . S
C2455 C2449 1.363 . S
C2455 C2450 1.379 . S
C2455 N2453 1.356 . S
N2456 C2448 1.356 . S
N2456 H2462 0.984 . S
N2456 H2463 0.984 . S
N2457 C2450 1.356 . S
N2457 H2460 0.984 . S
N2457 H2461 0.985 . S
H2458 N2453 0.984 . S
H2459 N2453 0.985 . S
H2460 N2457 0.984 . S
H2461 N2457 0.985 . S
H2462 N2456 0.984 . S
H2463 N2456 0.984 . S
H2464 N2452 0.984 . S
H2465 N2452 0.985 . S
C2466 C2467 1.363 1_556 S
C2466 C2472 1.379 . S
C2466 N2474 1.356 . S
C2467 C2466 1.363 1_554 S
C2467 C2473 1.363 . S
C2468 C2469 1.363 . S
C2468 C2473 1.379 1_556 S
C2468 N2475 1.356 . S
C2469 C2468 1.363 . S
C2469 C2472 1.363 . S
N2470 C2472 1.356 . S
N2470 H2482 0.984 . S
N2470 H2483 0.985 . S
N2471 C2473 1.356 . S
N2471 H2476 0.984 . S
N2471 H2477 0.985 . S
C2472 C2466 1.379 . S
C2472 C2469 1.363 . S
C2472 N2470 1.356 . S
C2473 C2467 1.363 . S
C2473 C2468 1.379 1_554 S
C2473 N2471 1.356 . S
N2474 C2466 1.356 . S
N2474 H2480 0.984 . S
N2474 H2481 0.984 1_556 S
N2475 C2468 1.356 . S
N2475 H2478 0.984 . S
N2475 H2479 0.985 1_556 S
H2476 N2471 0.984 . S
H2477 N2471 0.985 . S
H2478 N2475 0.984 . S
H2479 N2475 0.985 1_554 S
H2480 N2474 0.984 . S
H2481 N2474 0.984 1_554 S
H2482 N2470 0.984 . S
H2483 N2470 0.985 . S
C2484 C2485 1.363 1_556 S
C2484 C2490 1.379 . S
C2484 N2492 1.356 . S
C2485 C2484 1.363 1_554 S
C2485 C2491 1.363 . S
C2486 C2487 1.363 . S
C2486 C2491 1.379 1_556 S
C2486 N2493 1.356 . S
C2487 C2486 1.363 . S
C2487 C2490 1.363 . S
N2488 C2490 1.356 . S
N2488 H2500 0.984 . S
N2488 H2501 0.985 . S
N2489 C2491 1.356 . S
N2489 H2494 0.984 . S
N2489 H2495 0.985 . S
C2490 C2484 1.379 . S
C2490 C2487 1.363 . S
C2490 N2488 1.356 . S
C2491 C2485 1.363 . S
C2491 C2486 1.379 1_554 S
C2491 N2489 1.356 . S
N2492 C2484 1.356 . S
N2492 H2498 0.984 . S
N2492 H2499 0.984 1_556 S
N2493 C2486 1.356 . S
N2493 H2496 0.984 . S
N2493 H2497 0.985 1_556 S
H2494 N2489 0.984 . S
H2495 N2489 0.985 . S
H2496 N2493 0.984 . S
H2497 N2493 0.985 1_554 S
H2498 N2492 0.984 . S
H2499 N2492 0.984 1_554 S
H2500 N2488 0.984 . S
H2501 N2488 0.985 . S
C2502 C2503 1.363 . S
C2502 C2508 1.379 1_554 S
C2502 N2510 1.356 . S
C2503 C2502 1.363 . S
C2503 C2509 1.363 1_554 S
C2504 C2505 1.363 . S
C2504 C2509 1.379 . S
C2504 N2511 1.356 . S
C2505 C2504 1.363 . S
C2505 C2508 1.363 . S
N2506 C2508 1.356 . S
N2506 H2518 0.984 . S
N2506 H2519 0.985 . S
N2507 C2509 1.354 1_554 S
N2507 H2512 0.990 . S
N2507 H2513 0.981 1_554 S
C2508 C2502 1.379 1_556 S
C2508 C2505 1.363 . S
C2508 N2506 1.356 . S
C2509 C2503 1.363 1_556 S
C2509 C2504 1.379 . S
C2509 N2507 1.354 1_556 S
N2510 C2502 1.356 . S
N2510 H2516 0.984 . S
N2510 H2517 0.984 . S
N2511 C2504 1.356 . S
N2511 H2514 0.984 . S
N2511 H2515 0.985 . S
H2512 N2507 0.990 . S
H2513 N2507 0.981 1_556 S
H2514 N2511 0.984 . S
H2515 N2511 0.985 . S
H2516 N2510 0.984 . S
H2517 N2510 0.984 . S
H2518 N2506 0.984 . S
H2519 N2506 0.985 . S
C2520 C2521 1.363 1_556 S
C2520 C2526 1.379 . S
C2520 N2528 1.356 1_556 S
C2521 C2520 1.363 1_554 S
C2521 C2527 1.363 . S
C2522 C2523 1.363 . S
C2522 C2527 1.379 1_556 S
C2522 N2529 1.356 . S
C2523 C2522 1.363 . S
C2523 C2526 1.363 . S
N2524 C2526 1.356 . S
N2524 H2536 0.984 . S
N2524 H2537 0.985 . S
N2525 C2527 1.356 . S
N2525 H2530 0.984 . S
N2525 H2531 0.985 . S
C2526 C2520 1.379 . S
C2526 C2523 1.363 . S
C2526 N2524 1.356 . S
C2527 C2521 1.363 . S
C2527 C2522 1.379 1_554 S
C2527 N2525 1.356 . S
N2528 C2520 1.356 1_554 S
N2528 H2534 0.984 1_554 S
N2528 H2535 0.984 . S
N2529 C2522 1.356 . S
N2529 H2532 0.984 . S
N2529 H2533 0.985 . S
H2530 N2525 0.984 . S
H2531 N2525 0.985 . S
H2532 N2529 0.984 . S
H2533 N2529 0.985 . S
H2534 N2528 0.984 1_556 S
H2535 N2528 0.984 . S
H2536 N2524 0.984 . S
H2537 N2524 0.985 . S
C2538 C2539 1.363 1_556 S
C2538 C2544 1.379 . S
C2538 N2546 1.356 . S
C2539 C2538 1.363 1_554 S
C2539 C2545 1.363 . S
C2540 C2541 1.363 . S
C2540 C2545 1.379 1_556 S
C2540 N2547 1.356 . S
C2541 C2540 1.363 . S
C2541 C2544 1.363 . S
N2542 C2544 1.356 . S
N2542 H2554 0.984 . S
N2542 H2555 0.985 . S
N2543 C2545 1.356 . S
N2543 H2548 0.984 . S
N2543 H2549 0.985 . S
C2544 C2538 1.379 . S
C2544 C2541 1.363 . S
C2544 N2542 1.356 . S
C2545 C2539 1.363 . S
C2545 C2540 1.379 1_554 S
C2545 N2543 1.356 . S
N2546 C2538 1.356 . S
N2546 H2552 0.984 . S
N2546 H2553 0.984 . S
N2547 C2540 1.356 . S
N2547 H2550 0.984 . S
N2547 H2551 0.985 1_556 S
H2548 N2543 0.984 . S
H2549 N2543 0.985 . S
H2550 N2547 0.984 . S
H2551 N2547 0.985 1_554 S
H2552 N2546 0.984 . S
H2553 N2546 0.984 . S
H2554 N2542 0.984 . S
H2555 N2542 0.985 . S
C2556 C2557 1.363 . S
C2556 C2562 1.379 1_556 S
C2556 N2564 1.356 . S
C2557 C2556 1.363 . S
C2557 C2563 1.363 . S
C2558 C2559 1.363 1_556 S
C2558 C2563 1.379 . S
C2558 N2565 1.356 . S
C2559 C2558 1.363 1_554 S
C2559 C2562 1.363 . S
N2560 C2562 1.356 . S
N2560 H2572 0.984 . S
N2560 H2573 0.985 . S
N2561 C2563 1.356 . S
N2561 H2566 0.984 . S
N2561 H2567 0.985 . S
C2562 C2556 1.379 1_554 S
C2562 C2559 1.363 . S
C2562 N2560 1.356 . S
C2563 C2557 1.363 . S
C2563 C2558 1.379 . S
C2563 N2561 1.356 . S
N2564 C2556 1.356 . S
N2564 H2570 0.984 1_556 S
N2564 H2571 0.984 . S
N2565 C2558 1.356 . S
N2565 H2568 0.984 1_556 S
N2565 H2569 0.985 . S
H2566 N2561 0.984 . S
H2567 N2561 0.985 . S
H2568 N2565 0.984 1_554 S
H2569 N2565 0.985 . S
H2570 N2564 0.984 1_554 S
H2571 N2564 0.984 . S
H2572 N2560 0.984 . S
H2573 N2560 0.985 . S
C2574 C2575 1.363 . S
C2574 C2580 1.379 . S
C2574 N2582 1.356 . S
C2575 C2574 1.363 . S
C2575 C2581 1.363 . S
C2576 C2577 1.363 . S
C2576 C2581 1.379 . S
C2576 N2583 1.356 . S
C2577 C2576 1.363 . S
C2577 C2580 1.363 . S
N2578 C2580 1.356 . S
N2578 H2590 0.984 . S
N2578 H2591 0.985 . S
N2579 C2581 1.356 . S
N2579 H2584 0.984 . S
N2579 H2585 0.985 . S
C2580 C2574 1.379 . S
C2580 C2577 1.363 . S
C2580 N2578 1.356 . S
C2581 C2575 1.363 . S
C2581 C2576 1.379 . S
C2581 N2579 1.356 . S
N2582 C2574 1.356 . S
N2582 H2588 0.984 . S
N2582 H2589 0.984 . S
N2583 C2576 1.356 . S
N2583 H2586 0.984 . S
N2583 H2587 0.985 . S
H2584 N2579 0.984 . S
H2585 N2579 0.985 . S
H2586 N2583 0.984 . S
H2587 N2583 0.985 . S
H2588 N2582 0.984 . S
H2589 N2582 0.984 . S
H2590 N2578 0.984 . S
H2591 N2578 0.985 . S
C2592 C2593 1.363 . S
C2592 C2598 1.379 . S
C2592 N2600 1.356 . S
C2593 C2592 1.363 . S
C2593 C2599 1.363 . S
C2594 C2595 1.363 . S
C2594 C2599 1.379 . S
C2594 N2601 1.356 . S
C2595 C2594 1.363 . S
C2595 C2598 1.363 . S
N2596 C2598 1.356 . S
N2596 H2608 0.984 . S
N2596 H2609 0.985 . S
N2597 C2599 1.356 . S
N2597 H2602 0.984 . S
N2597 H2603 0.985 . S
C2598 C2592 1.379 . S
C2598 C2595 1.363 . S
C2598 N2596 1.356 . S
C2599 C2593 1.363 . S
C2599 C2594 1.379 . S
C2599 N2597 1.356 . S
N2600 C2592 1.356 . S
N2600 H2606 0.984 . S
N2600 H2607 0.984 . S
N2601 C2594 1.356 . S
N2601 H2604 0.984 . S
N2601 H2605 0.985 . S
H2602 N2597 0.984 . S
H2603 N2597 0.985 . S
H2604 N2601 0.984 . S
H2605 N2601 0.985 . S
H2606 N2600 0.984 . S
H2607 N2600 0.984 . S
H2608 N2596 0.984 . S
H2609 N2596 0.985 . S
C2610 C2611 1.363 . S
C2610 C2616 1.379 . S
C2610 N2618 1.356 . S
C2611 C2610 1.363 . S
C2611 C2617 1.363 . S
C2612 C2613 1.363 . S
C2612 C2617 1.379 . S
C2612 N2619 1.356 . S
C2613 C2612 1.363 . S
C2613 C2616 1.363 . S
N2614 C2616 1.356 . S
N2614 H2626 0.984 . S
N2614 H2627 0.985 . S
N2615 C2617 1.356 . S
N2615 H2620 0.984 . S
N2615 H2621 0.985 . S
C2616 C2610 1.379 . S
C2616 C2613 1.363 . S
C2616 N2614 1.356 . S
C2617 C2611 1.363 . S
C2617 C2612 1.379 . S
C2617 N2615 1.356 . S
N2618 C2610 1.356 . S
N2618 H2624 0.984 . S
N2618 H2625 0.984 . S
N2619 C2612 1.356 . S
N2619 H2622 0.984 . S
N2619 H2623 0.985 . S
H2620 N2615 0.984 . S
H2621 N2615 0.985 . S
H2622 N2619 0.984 . S
H2623 N2619 0.985 . S
H2624 N2618 0.984 . S
H2625 N2618 0.984 . S
H2626 N2614 0.984 . S
H2627 N2614 0.985 . S
C2628 C2629 1.363 . S
C2628 C2634 1.379 . S
C2628 N2636 1.356 . S
C2629 C2628 1.363 . S
C2629 C2635 1.363 . S
C2630 C2631 1.363 . S
C2630 C2635 1.379 . S
C2630 N2637 1.356 . S
C2631 C2630 1.363 . S
C2631 C2634 1.363 . S
N2632 C2634 1.356 . S
N2632 H2644 0.984 . S
N2632 H2645 0.985 . S
N2633 C2635 1.356 . S
N2633 H2638 0.984 . S
N2633 H2639 0.985 . S
C2634 C2628 1.379 . S
C2634 C2631 1.363 . S
C2634 N2632 1.356 . S
C2635 C2629 1.363 . S
C2635 C2630 1.379 . S
C2635 N2633 1.356 . S
N2636 C2628 1.356 . S
N2636 H2642 0.984 . S
N2636 H2643 0.984 . S
N2637 C2630 1.356 . S
N2637 H2640 0.984 . S
N2637 H2641 0.985 . S
H2638 N2633 0.984 . S
H2639 N2633 0.985 . S
H2640 N2637 0.984 . S
H2641 N2637 0.985 . S
H2642 N2636 0.984 . S
H2643 N2636 0.984 . S
H2644 N2632 0.984 . S
H2645 N2632 0.985 . S
C2646 C2647 1.363 . S
C2646 C2652 1.379 . S
C2646 N2654 1.356 . S
C2647 C2646 1.363 . S
C2647 C2653 1.363 . S
C2648 C2649 1.363 . S
C2648 C2653 1.379 . S
C2648 N2655 1.356 . S
C2649 C2648 1.363 . S
C2649 C2652 1.363 . S
N2650 C2652 1.356 . S
N2650 H2662 0.984 1_554 S
N2650 H2663 0.985 1_554 S
N2651 C2653 1.356 . S
N2651 H2656 0.984 . S
N2651 H2657 0.985 . S
C2652 C2646 1.379 . S
C2652 C2649 1.363 . S
C2652 N2650 1.356 . S
C2653 C2647 1.363 . S
C2653 C2648 1.379 . S
C2653 N2651 1.356 . S
N2654 C2646 1.356 . S
N2654 H2660 0.984 . S
N2654 H2661 0.984 . S
N2655 C2648 1.356 . S
N2655 H2658 0.984 . S
N2655 H2659 0.985 . S
H2656 N2651 0.984 . S
H2657 N2651 0.985 . S
H2658 N2655 0.984 . S
H2659 N2655 0.985 . S
H2660 N2654 0.984 . S
H2661 N2654 0.984 . S
H2662 N2650 0.984 1_556 S
H2663 N2650 0.985 1_556 S
C2664 C2665 1.363 . S
C2664 C2670 1.379 . S
C2664 N2672 1.356 . S
C2665 C2664 1.363 . S
C2665 C2671 1.363 . S
C2666 C2667 1.363 . S
C2666 C2671 1.379 . S
C2666 N2673 1.356 . S
C2667 C2666 1.363 . S
C2667 C2670 1.363 . S
N2668 C2670 1.356 . S
N2668 H2680 0.984 . S
N2668 H2681 0.985 . S
N2669 C2671 1.356 . S
N2669 H2674 0.984 . S
N2669 H2675 0.985 . S
C2670 C2664 1.379 . S
C2670 C2667 1.363 . S
C2670 N2668 1.356 . S
C2671 C2665 1.363 . S
C2671 C2666 1.379 . S
C2671 N2669 1.356 . S
N2672 C2664 1.356 . S
N2672 H2678 0.984 1_554 S
N2672 H2679 0.984 1_554 S
N2673 C2666 1.356 . S
N2673 H2676 0.984 . S
N2673 H2677 0.985 . S
H2674 N2669 0.984 . S
H2675 N2669 0.985 . S
H2676 N2673 0.984 . S
H2677 N2673 0.985 . S
H2678 N2672 0.984 1_556 S
H2679 N2672 0.984 1_556 S
H2680 N2668 0.984 . S
H2681 N2668 0.985 . S
C2682 C2683 1.363 . S
C2682 C2688 1.379 . S
C2682 N2690 1.356 . S
C2683 C2682 1.363 . S
C2683 C2689 1.363 . S
C2684 C2685 1.363 . S
C2684 C2689 1.379 . S
C2684 N2691 1.356 . S
C2685 C2684 1.363 . S
C2685 C2688 1.363 . S
N2686 C2688 1.356 . S
N2686 H2698 0.984 . S
N2686 H2699 0.985 . S
N2687 C2689 1.356 . S
N2687 H2692 0.984 . S
N2687 H2693 0.985 . S
C2688 C2682 1.379 . S
C2688 C2685 1.363 . S
C2688 N2686 1.356 . S
C2689 C2683 1.363 . S
C2689 C2684 1.379 . S
C2689 N2687 1.356 . S
N2690 C2682 1.356 . S
N2690 H2696 0.984 . S
N2690 H2697 0.984 . S
N2691 C2684 1.356 . S
N2691 H2694 0.984 . S
N2691 H2695 0.985 . S
H2692 N2687 0.984 . S
H2693 N2687 0.985 . S
H2694 N2691 0.984 . S
H2695 N2691 0.985 . S
H2696 N2690 0.984 . S
H2697 N2690 0.984 . S
H2698 N2686 0.984 . S
H2699 N2686 0.985 . S
C2700 C2701 1.363 . S
C2700 C2706 1.379 . S
C2700 N2708 1.356 . S
C2701 C2700 1.363 . S
C2701 C2707 1.363 . S
C2702 C2703 1.363 . S
C2702 C2707 1.379 . S
C2702 N2709 1.356 . S
C2703 C2702 1.363 . S
C2703 C2706 1.363 . S
N2704 C2706 1.356 . S
N2704 H2716 0.984 . S
N2704 H2717 0.985 . S
N2705 C2707 1.356 . S
N2705 H2710 0.984 . S
N2705 H2711 0.985 . S
C2706 C2700 1.379 . S
C2706 C2703 1.363 . S
C2706 N2704 1.356 . S
C2707 C2701 1.363 . S
C2707 C2702 1.379 . S
C2707 N2705 1.356 . S
N2708 C2700 1.356 . S
N2708 H2714 0.984 . S
N2708 H2715 0.984 . S
N2709 C2702 1.356 . S
N2709 H2712 0.984 . S
N2709 H2713 0.985 . S
H2710 N2705 0.984 . S
H2711 N2705 0.985 . S
H2712 N2709 0.984 . S
H2713 N2709 0.985 . S
H2714 N2708 0.984 . S
H2715 N2708 0.984 . S
H2716 N2704 0.984 . S
H2717 N2704 0.985 . S
C2718 C2719 1.363 . S
C2718 C2724 1.379 . S
C2718 N2726 1.356 . S
C2719 C2718 1.363 . S
C2719 C2725 1.363 . S
C2720 C2721 1.363 . S
C2720 C2725 1.379 . S
C2720 N2727 1.356 . S
C2721 C2720 1.363 . S
C2721 C2724 1.363 . S
N2722 C2724 1.356 . S
N2722 H2734 0.984 . S
N2722 H2735 0.985 . S
N2723 C2725 1.356 . S
N2723 H2728 0.984 . S
N2723 H2729 0.985 . S
C2724 C2718 1.379 . S
C2724 C2721 1.363 . S
C2724 N2722 1.356 . S
C2725 C2719 1.363 . S
C2725 C2720 1.379 . S
C2725 N2723 1.356 . S
N2726 C2718 1.356 . S
N2726 H2732 0.984 . S
N2726 H2733 0.984 . S
N2727 C2720 1.356 . S
N2727 H2730 0.984 . S
N2727 H2731 0.985 . S
H2728 N2723 0.984 . S
H2729 N2723 0.985 . S
H2730 N2727 0.984 . S
H2731 N2727 0.985 . S
H2732 N2726 0.984 . S
H2733 N2726 0.984 . S
H2734 N2722 0.984 . S
H2735 N2722 0.985 . S
C2736 C2737 1.363 . S
C2736 C2742 1.379 1_455 S
C2736 N2744 1.356 . S
C2737 C2736 1.363 . S
C2737 C2743 1.363 . S
C2738 C2739 1.363 . S
C2738 C2743 1.379 1_655 S
C2738 N2745 1.356 . S
C2739 C2738 1.363 . S
C2739 C2742 1.363 . S
N2740 C2742 1.356 . S
N2740 H2752 0.984 . S
N2740 H2753 0.985 . S
N2741 C2743 1.356 . S
N2741 H2746 0.984 . S
N2741 H2747 0.985 . S
C2742 C2736 1.379 1_655 S
C2742 C2739 1.363 . S
C2742 N2740 1.356 . S
C2743 C2737 1.363 . S
C2743 C2738 1.379 1_455 S
C2743 N2741 1.356 . S
N2744 C2736 1.356 . S
N2744 H2750 0.984 . S
N2744 H2751 0.984 . S
N2745 C2738 1.356 . S
N2745 H2748 0.984 . S
N2745 H2749 0.985 . S
H2746 N2741 0.984 . S
H2747 N2741 0.985 . S
H2748 N2745 0.984 . S
H2749 N2745 0.985 . S
H2750 N2744 0.984 . S
H2751 N2744 0.984 . S
H2752 N2740 0.984 . S
H2753 N2740 0.985 . S
C2754 C2755 1.363 . S
C2754 C2760 1.379 . S
C2754 N2762 1.356 . S
C2755 C2754 1.363 . S
C2755 C2761 1.363 . S
C2756 C2757 1.363 . S
C2756 C2761 1.379 . S
C2756 N2763 1.356 . S
C2757 C2756 1.363 . S
C2757 C2760 1.363 . S
N2758 C2760 1.356 . S
N2758 H2770 0.984 . S
N2758 H2771 0.985 . S
N2759 C2761 1.356 . S
N2759 H2764 0.984 . S
N2759 H2765 0.985 . S
C2760 C2754 1.379 . S
C2760 C2757 1.363 . S
C2760 N2758 1.356 . S
C2761 C2755 1.363 . S
C2761 C2756 1.379 . S
C2761 N2759 1.356 . S
N2762 C2754 1.356 . S
N2762 H2768 0.984 . S
N2762 H2769 0.984 . S
N2763 C2756 1.356 . S
N2763 H2766 0.984 . S
N2763 H2767 0.985 . S
H2764 N2759 0.984 . S
H2765 N2759 0.985 . S
H2766 N2763 0.984 . S
H2767 N2763 0.985 . S
H2768 N2762 0.984 . S
H2769 N2762 0.984 . S
H2770 N2758 0.984 . S
H2771 N2758 0.985 . S
C2772 C2773 1.363 . S
C2772 C2778 1.379 . S
C2772 N2780 1.356 . S
C2773 C2772 1.363 . S
C2773 C2779 1.363 1_545 S
C2774 C2775 1.363 . S
C2774 C2779 1.379 . S
C2774 N2781 1.356 . S
C2775 C2774 1.363 . S
C2775 C2778 1.363 1_565 S
N2776 C2778 1.359 . S
N2776 H2788 0.992 . S
N2776 H2789 0.975 1_545 S
N2777 C2779 1.359 . S
N2777 H2782 0.974 1_565 S
N2777 H2783 0.992 . S
C2778 C2772 1.379 . S
C2778 C2775 1.363 1_545 S
C2778 N2776 1.359 . S
C2779 C2773 1.363 1_565 S
C2779 C2774 1.379 . S
C2779 N2777 1.359 . S
N2780 C2772 1.356 . S
N2780 H2786 0.984 . S
N2780 H2787 0.984 . S
N2781 C2774 1.356 . S
N2781 H2784 0.984 . S
N2781 H2785 0.985 . S
H2782 N2777 0.974 1_545 S
H2783 N2777 0.992 . S
H2784 N2781 0.984 . S
H2785 N2781 0.985 . S
H2786 N2780 0.984 . S
H2787 N2780 0.984 . S
H2788 N2776 0.992 . S
H2789 N2776 0.975 1_565 S
C2790 C2791 1.363 . S
C2790 C2796 1.379 1_565 S
C2790 N2798 1.356 . S
C2791 C2790 1.363 . S
C2791 C2797 1.363 . S
C2792 C2793 1.363 . S
C2792 C2797 1.379 1_545 S
C2792 N2799 1.356 . S
C2793 C2792 1.363 . S
C2793 C2796 1.363 . S
N2794 C2796 1.356 . S
N2794 H2806 0.984 . S
N2794 H2807 0.985 . S
N2795 C2797 1.356 . S
N2795 H2800 0.984 . S
N2795 H2801 0.985 . S
C2796 C2790 1.379 1_545 S
C2796 C2793 1.363 . S
C2796 N2794 1.356 . S
C2797 C2791 1.363 . S
C2797 C2792 1.379 1_565 S
C2797 N2795 1.356 . S
N2798 C2790 1.356 . S
N2798 H2804 0.984 . S
N2798 H2805 0.984 . S
N2799 C2792 1.356 . S
N2799 H2802 0.984 . S
N2799 H2803 0.985 . S
H2800 N2795 0.984 . S
H2801 N2795 0.985 . S
H2802 N2799 0.984 . S
H2803 N2799 0.985 . S
H2804 N2798 0.984 . S
H2805 N2798 0.984 . S
H2806 N2794 0.984 . S
H2807 N2794 0.985 . S
C2808 C2809 1.363 . S
C2808 C2814 1.379 1_655 S
C2808 N2816 1.356 . S
C2809 C2808 1.363 . S
C2809 C2815 1.363 . S
C2810 C2811 1.363 . S
C2810 C2815 1.379 1_455 S
C2810 N2817 1.356 . S
C2811 C2810 1.363 . S
C2811 C2814 1.363 . S
N2812 C2814 1.356 . S
N2812 H2824 0.984 . S
N2812 H2825 0.985 . S
N2813 C2815 1.356 . S
N2813 H2818 0.984 . S
N2813 H2819 0.985 . S
C2814 C2808 1.379 1_455 S
C2814 C2811 1.363 . S
C2814 N2812 1.356 . S
C2815 C2809 1.363 . S
C2815 C2810 1.379 1_655 S
C2815 N2813 1.356 . S
N2816 C2808 1.356 . S
N2816 H2822 0.984 . S
N2816 H2823 0.984 . S
N2817 C2810 1.356 . S
N2817 H2820 0.984 . S
N2817 H2821 0.985 . S
H2818 N2813 0.984 . S
H2819 N2813 0.985 . S
H2820 N2817 0.984 . S
H2821 N2817 0.985 . S
H2822 N2816 0.984 . S
H2823 N2816 0.984 . S
H2824 N2812 0.984 . S
H2825 N2812 0.985 . S
C2826 C2827 1.363 . S
C2826 C2832 1.379 . S
C2826 N2834 1.356 . S
C2827 C2826 1.363 . S
C2827 C2833 1.363 . S
C2828 C2829 1.363 . S
C2828 C2833 1.379 . S
C2828 N2835 1.356 . S
C2829 C2828 1.363 . S
C2829 C2832 1.363 . S
N2830 C2832 1.356 . S
N2830 H2842 0.984 . S
N2830 H2843 0.985 . S
N2831 C2833 1.356 . S
N2831 H2836 0.984 . S
N2831 H2837 0.985 . S
C2832 C2826 1.379 . S
C2832 C2829 1.363 . S
C2832 N2830 1.356 . S
C2833 C2827 1.363 . S
C2833 C2828 1.379 . S
C2833 N2831 1.356 . S
N2834 C2826 1.356 . S
N2834 H2840 0.984 . S
N2834 H2841 0.984 . S
N2835 C2828 1.356 . S
N2835 H2838 0.984 . S
N2835 H2839 0.985 . S
H2836 N2831 0.984 . S
H2837 N2831 0.985 . S
H2838 N2835 0.984 . S
H2839 N2835 0.985 . S
H2840 N2834 0.984 . S
H2841 N2834 0.984 . S
H2842 N2830 0.984 . S
H2843 N2830 0.985 . S
C1225 C345 1.614 . S
C1227 C2 1.645 1_556 S
C1243 C379 1.613 . S
C1245 C36 1.645 1_556 S
C1261 C311 1.613 . S
C1263 C70 1.645 1_556 S
C1279 C277 1.613 . S
C1281 C104 1.645 . S
C1297 C209 1.614 . S
C1299 C138 1.645 . S
C1315 C243 1.614 . S
C1317 C172 1.646 . S
C1333 C141 1.614 . S
C1335 C206 1.646 . S
C1351 C240 1.645 . S
C1353 C175 1.613 . S
C1369 C107 1.614 . S
C1371 C274 1.645 . S
C1387 C73 1.613 . S
C1389 C308 1.645 . S
C1405 C342 1.645 . S
C1407 C5 1.613 . S
C1423 C39 1.614 . S
C1425 C376 1.645 . S
C1441 C753 1.613 . S
C1443 C410 1.645 . S
C1459 C444 1.645 . S
C1461 C787 1.614 . S
C1477 C719 1.614 . S
C1479 C478 1.645 . S
C1495 C685 1.613 . S
C1497 C512 1.645 1_554 S
C1513 C617 1.614 . S
C1515 C546 1.646 1_554 S
C1531 C580 1.645 1_554 S
C1533 C651 1.613 . S
C1549 C614 1.646 . S
C1551 C549 1.614 . S
C1567 C583 1.614 . S
C1569 C648 1.645 . S
C1585 C515 1.614 . S
C1587 C682 1.645 . S
C1603 C716 1.645 . S
C1605 C481 1.613 . S
C1621 C750 1.645 . S
C1623 C413 1.613 . S
C1639 C447 1.613 . S
C1641 C784 1.645 . S
C1657 C818 1.645 . S
C1659 C1161 1.614 . S
C1675 C852 1.645 . S
C1677 C1195 1.613 . S
C1693 C886 1.645 . S
C1695 C1127 1.613 . S
C1711 C920 1.645 . S
C1713 C1093 1.614 . S
C1729 C1025 1.614 . S
C1731 C954 1.645 . S
C1747 C1059 1.613 . S
C1749 C988 1.645 . S
C1765 C1022 1.645 . S
C1767 C957 1.614 1_556 S
C1783 C991 1.614 1_556 S
C1785 C1056 1.645 . S
C1801 C923 1.614 1_556 S
C1803 C1090 1.645 . S
C1819 C1124 1.645 . S
C1821 C889 1.613 . S
C1837 C1158 1.645 . S
C1839 C821 1.613 . S
C1855 C855 1.614 . S
C1857 C1192 1.645 . S
C1873 C122 1.939 . S
C1875 C20 1.939 . S
C1891 C54 1.938 . S
C1893 C156 1.938 . S
C1909 C88 1.938 . S
C1911 C190 1.938 . S
C1927 C326 1.938 . S
C1929 C224 1.938 . S
C1945 C258 1.938 . S
C1947 C360 1.938 . S
C1963 C394 1.939 . S
C1965 C292 1.939 . S
C1981 C428 1.939 . S
C1983 C530 1.939 . S
C1999 C564 1.938 . S
C2001 C462 1.938 . S
C2017 C496 1.938 . S
C2019 C598 1.938 . S
C2035 C632 1.938 . S
C2037 C734 1.938 . S
C2053 C768 1.939 . S
C2055 C666 1.939 . S
C2071 C802 1.938 . S
C2073 C700 1.938 . S
C2089 C836 1.939 . S
C2091 C938 1.939 . S
C2107 C972 1.938 . S
C2109 C870 1.938 . S
C2125 C904 1.938 . S
C2127 C1006 1.938 . S
C2143 C1040 1.939 . S
C2145 C1142 1.939 . S
C2161 C1074 1.938 . S
C2163 C1176 1.938 . S
C2179 C1210 1.939 . S
C2181 C1108 1.939 . S
C2197 C111 0.745 . S
C2199 C9 0.745 . S
C2215 C43 0.745 . S
C2217 C145 0.745 . S
C2233 C179 0.745 . S
C2235 C77 0.745 . S
C2251 C315 0.745 . S
C2253 C213 0.745 . S
C2269 C349 0.746 . S
C2271 C247 0.746 . S
C2287 C383 0.745 . S
C2289 C281 0.745 . S
C2305 C417 0.745 . S
C2307 C519 0.745 . S
C2323 C451 0.745 . S
C2325 C553 0.745 . S
C2341 C587 0.745 . S
C2343 C485 0.745 . S
C2359 C621 0.745 . S
C2361 C723 0.745 . S
C2377 C757 0.745 . S
C2379 C655 0.745 . S
C2395 C791 0.745 . S
C2397 C689 0.745 . S
C2413 C825 0.745 . S
C2415 C927 0.745 . S
C2431 C859 0.745 . S
C2433 C961 0.745 . S
C2449 C995 0.745 . S
C2451 C893 0.745 . S
C2467 C1131 0.745 . S
C2469 C1029 0.745 . S
C2485 C1165 0.745 . S
C2487 C1063 0.745 . S
C2503 C1199 0.745 . S
C2505 C1097 0.745 . S
C2521 C33 1.713 . S
C2523 C577 1.713 . S
C2539 C67 1.713 . S
C2541 C611 1.713 . S
C2557 C543 1.713 . S
C2559 C101 1.713 . S
C2575 C917 1.713 . S
C2577 C135 1.713 . S
C2593 C169 1.713 . S
C2595 C849 1.713 . S
C2611 C203 1.713 . S
C2613 C883 1.713 . S
C2629 C1189 1.713 . S
C2631 C237 1.713 . S
C2647 C1223 1.713 . S
C2649 C271 1.713 . S
C2665 C305 1.713 . S
C2667 C1155 1.713 . S
C2683 C713 1.713 . S
C2685 C339 1.713 . S
C2701 C373 1.713 . S
C2703 C645 1.713 . S
C2719 C679 1.713 . S
C2721 C407 1.713 . S
C2737 C985 1.713 . S
C2739 C441 1.713 . S
C2755 C1019 1.713 . S
C2757 C475 1.713 . S
C2773 C509 1.713 . S
C2775 C951 1.713 . S
C2791 C1121 1.713 . S
C2793 C747 1.713 . S
C2809 C781 1.713 . S
C2811 C1053 1.713 . S
C2827 C815 1.713 . S
C2829 C1087 1.713 . S
