# Generated by pormake.
# Topology wjl, (5)-cn, num edge types: 1
# Building blocks:
#     Node 0, Type 0, BuildingBlock: BEQFEK_clean_sbu_0, # of connection points: 5
#     Node 1, Type 0, BuildingBlock: BEQFEK_clean_sbu_0, # of connection points: 5
#     Node 2, Type 0, BuildingBlock: BEQFEK_clean_sbu_0, # of connection points: 5
#     Node 3, Type 0, BuildingBlock: BEQFEK_clean_sbu_0, # of connection points: 5
#     Node 4, Type 0, BuildingBlock: BEQFEK_clean_sbu_0, # of connection points: 5
#     Node 5, Type 0, BuildingBlock: BEQFEK_clean_sbu_0, # of connection points: 5
#     Node 6, Type 0, BuildingBlock: BEQFEK_clean_sbu_0, # of connection points: 5
#     Node 7, Type 0, BuildingBlock: BEQFEK_clean_sbu_0, # of connection points: 5
#     Node 8, Type 0, BuildingBlock: BEQFEK_clean_sbu_0, # of connection points: 5
#     Node 9, Type 0, BuildingBlock: BEQFEK_clean_sbu_0, # of connection points: 5
#     Node 10, Type 0, BuildingBlock: BEQFEK_clean_sbu_0, # of connection points: 5
#     Node 11, Type 0, BuildingBlock: BEQFEK_clean_sbu_0, # of connection points: 5
#     Edge 12, Type (0, 0), BuildingBlock: ZUJKAS_clean_linker_0, # of connection points: 2
#     Edge 13, Type (0, 0), BuildingBlock: ZUJKAS_clean_linker_0, # of connection points: 2
#     Edge 14, Type (0, 0), BuildingBlock: ZUJKAS_clean_linker_0, # of connection points: 2
#     Edge 15, Type (0, 0), BuildingBlock: ZUJKAS_clean_linker_0, # of connection points: 2
#     Edge 16, Type (0, 0), BuildingBlock: ZUJKAS_clean_linker_0, # of connection points: 2
#     Edge 17, Type (0, 0), BuildingBlock: ZUJKAS_clean_linker_0, # of connection points: 2
#     Edge 18, Type (0, 0), BuildingBlock: ZUJKAS_clean_linker_0, # of connection points: 2
#     Edge 19, Type (0, 0), BuildingBlock: ZUJKAS_clean_linker_0, # of connection points: 2
#     Edge 20, Type (0, 0), BuildingBlock: ZUJKAS_clean_linker_0, # of connection points: 2
#     Edge 21, Type (0, 0), BuildingBlock: ZUJKAS_clean_linker_0, # of connection points: 2
#     Edge 22, Type (0, 0), BuildingBlock: ZUJKAS_clean_linker_0, # of connection points: 2
#     Edge 23, Type (0, 0), BuildingBlock: ZUJKAS_clean_linker_0, # of connection points: 2
#     Edge 24, Type (0, 0), BuildingBlock: ZUJKAS_clean_linker_0, # of connection points: 2
#     Edge 25, Type (0, 0), BuildingBlock: ZUJKAS_clean_linker_0, # of connection points: 2
#     Edge 26, Type (0, 0), BuildingBlock: ZUJKAS_clean_linker_0, # of connection points: 2
#     Edge 27, Type (0, 0), BuildingBlock: ZUJKAS_clean_linker_0, # of connection points: 2
#     Edge 28, Type (0, 0), BuildingBlock: ZUJKAS_clean_linker_0, # of connection points: 2
#     Edge 29, Type (0, 0), BuildingBlock: ZUJKAS_clean_linker_0, # of connection points: 2
#     Edge 30, Type (0, 0), BuildingBlock: ZUJKAS_clean_linker_0, # of connection points: 2
#     Edge 31, Type (0, 0), BuildingBlock: ZUJKAS_clean_linker_0, # of connection points: 2
#     Edge 32, Type (0, 0), BuildingBlock: ZUJKAS_clean_linker_0, # of connection points: 2
#     Edge 33, Type (0, 0), BuildingBlock: ZUJKAS_clean_linker_0, # of connection points: 2
#     Edge 34, Type (0, 0), BuildingBlock: ZUJKAS_clean_linker_0, # of connection points: 2
#     Edge 35, Type (0, 0), BuildingBlock: ZUJKAS_clean_linker_0, # of connection points: 2
#     Edge 36, Type (0, 0), BuildingBlock: ZUJKAS_clean_linker_0, # of connection points: 2
#     Edge 37, Type (0, 0), BuildingBlock: ZUJKAS_clean_linker_0, # of connection points: 2
#     Edge 38, Type (0, 0), BuildingBlock: ZUJKAS_clean_linker_0, # of connection points: 2
#     Edge 39, Type (0, 0), BuildingBlock: ZUJKAS_clean_linker_0, # of connection points: 2
#     Edge 40, Type (0, 0), BuildingBlock: ZUJKAS_clean_linker_0, # of connection points: 2
#     Edge 41, Type (0, 0), BuildingBlock: ZUJKAS_clean_linker_0, # of connection points: 2
# Relax obj value: 0.490
# Max RMSD: 0.234
# Mean RMSD: 0.234
data_MOF--net-wjl--node1-BEQFEK_clean_sbu_0--edge1-ZUJKAS_clean_linker_0
_symmetry_space_group_name_H-M    P1
_symmetry_Int_Tables_number       1
_symmetry_cell_setting            triclinic
loop_
_symmetry_equiv_pos_as_xyz
'x, y, z'
_cell_length_a     34.675566
_cell_length_b     34.673884
_cell_length_c     102.87107
_cell_angle_alpha  89.997935
_cell_angle_beta   89.991159
_cell_angle_gamma 119.99314
loop_
_atom_site_label
_atom_site_type_symbol
_atom_site_fract_x
_atom_site_fract_y
_atom_site_fract_z
_atom_type_partial_charge
Co0 Co 0.39389 0.17684 0.36623 0.0
Co1 Co 0.32858 0.14342 0.34271 0.0
C2 C 0.4062 0.23305 0.34204 0.0
O3 O 0.41603 0.22572 0.35335 0.0
O4 O 0.37218 0.20335 0.336 0.0
C5 C 0.48115 0.20839 0.37529 0.0
O6 O 0.488 0.20387 0.36296 0.0
C7 C 0.27899 0.115 0.31786 0.0
C8 C 0.21546 0.05863 0.3249 0.0
C9 C 0.23659 0.08284 0.31385 0.0
N10 N 0.28227 0.11002 0.33069 0.0
N11 N 0.24419 0.0764 0.33483 0.0
C12 C 0.31675 0.14797 0.30964 0.0
H13 H 0.31427 0.17851 0.3086 0.0
H14 H 0.34909 0.15721 0.31429 0.0
H15 H 0.31553 0.13413 0.29982 0.0
C16 C 0.39883 0.09617 0.36 0.0
N17 N 0.38215 0.12337 0.35811 0.0
N18 N 0.35732 0.11095 0.34758 0.0
C19 C 0.35884 0.07637 0.34213 0.0
C20 C 0.38542 0.06594 0.34981 0.0
C21 C 0.42558 0.0978 0.37163 0.0
H22 H 0.41672 0.11147 0.38013 0.0
H23 H 0.46154 0.1194 0.36953 0.0
H24 H 0.41963 0.06401 0.37399 0.0
O25 O 0.34049 0.17052 0.37469 0.0
O26 O 0.29602 0.15038 0.35755 0.0
H27 H 0.30276 0.03281 0.33052 0.0
H28 H 0.3549 0.03945 0.3247 0.0
C29 C 0.33875 0.05687 0.3292 0.0
H30 H 0.34206 0.08354 0.32257 0.0
H31 H 0.23784 0.06564 0.34446 0.0
O32 O 0.44205 0.1969 0.37914 0.0
C33 C 0.30327 0.16027 0.36953 0.0
Co34 Co 0.22489 0.37854 0.53159 0.0
Co35 Co 0.18963 0.3221 0.50633 0.0
C36 C 0.17226 0.39503 0.51053 0.0
O37 O 0.19136 0.40108 0.52151 0.0
O38 O 0.16935 0.36513 0.50277 0.0
C39 C 0.27633 0.46426 0.54052 0.0
O40 O 0.27987 0.47007 0.52786 0.0
C41 C 0.15089 0.27504 0.48169 0.0
C42 C 0.17853 0.22985 0.48097 0.0
C43 C 0.15172 0.24206 0.4742 0.0
N44 N 0.17672 0.28231 0.4922 0.0
N45 N 0.19248 0.25466 0.49181 0.0
C46 C 0.12305 0.2964 0.47965 0.0
H47 H 0.11067 0.30102 0.48913 0.0
H48 H 0.14379 0.32966 0.47516 0.0
H49 H 0.09407 0.27574 0.4733 0.0
C50 C 0.31072 0.39197 0.52169 0.0
N51 N 0.26621 0.37351 0.52092 0.0
N52 N 0.25235 0.35336 0.50964 0.0
C53 C 0.28822 0.36088 0.50253 0.0
C54 C 0.32618 0.38497 0.51004 0.0
C55 C 0.33845 0.41845 0.533 0.0
H56 H 0.31863 0.40787 0.54208 0.0
H57 H 0.35063 0.4543 0.53125 0.0
H58 H 0.36797 0.41428 0.53412 0.0
O59 O 0.18377 0.3209 0.53938 0.0
O60 O 0.15516 0.28276 0.52116 0.0
H61 H 0.28383 0.31438 0.4882 0.0
H62 H 0.31749 0.37146 0.48342 0.0
C63 C 0.28659 0.34764 0.48861 0.0
H64 H 0.25735 0.3459 0.48366 0.0
H65 H 0.21294 0.2529 0.49894 0.0
O66 O 0.25495 0.42482 0.54498 0.0
C67 C 0.15656 0.28521 0.53352 0.0
Co68 Co 0.85859 0.22903 0.69893 0.0
Co69 Co 0.89257 0.2029 0.67421 0.0
C70 C 0.7984 0.17431 0.67638 0.0
O71 O 0.80679 0.19182 0.68763 0.0
O72 O 0.82934 0.17671 0.66918 0.0
C73 C 0.81306 0.27114 0.7062 0.0
O74 O 0.81352 0.27386 0.69345 0.0
C75 C 0.9112 0.16794 0.65045 0.0
C76 C 0.9846 0.20779 0.64966 0.0
C77 C 0.94785 0.17503 0.64308 0.0
N78 N 0.92583 0.19605 0.66062 0.0
N79 N 0.96974 0.21911 0.66022 0.0
C80 C 0.86366 0.13221 0.64877 0.0
H81 H 0.84739 0.1211 0.6584 0.0
H82 H 0.84567 0.14568 0.64317 0.0
H83 H 0.86126 0.10305 0.64357 0.0
C84 C 0.92522 0.3193 0.69047 0.0
N85 N 0.90479 0.27478 0.68923 0.0
N86 N 0.91674 0.26464 0.67819 0.0
C87 C 0.94363 0.30276 0.67173 0.0
C88 C 0.95005 0.33859 0.67936 0.0
C89 C 0.92185 0.34299 0.7022 0.0
H90 H 0.91491 0.322 0.71099 0.0
H91 H 0.89441 0.35027 0.70083 0.0
H92 H 0.95319 0.37512 0.70361 0.0
O93 O 0.87868 0.19125 0.70715 0.0
O94 O 0.89743 0.16894 0.68919 0.0
H95 H 0.99205 0.30978 0.65767 0.0
H96 H 0.95879 0.33362 0.65283 0.0
C97 C 0.95793 0.30493 0.65789 0.0
H98 H 0.93495 0.27377 0.65268 0.0
H99 H 0.98959 0.24259 0.6672 0.0
O100 O 0.83382 0.25384 0.7116 0.0
C101 C 0.89235 0.16767 0.70149 0.0
Co102 Co 0.62679 0.85991 0.85795 0.0
Co103 Co 0.69258 0.88481 0.83468 0.0
C104 C 0.61808 0.79418 0.83666 0.0
O105 O 0.60805 0.80594 0.84726 0.0
O106 O 0.65091 0.82199 0.82983 0.0
C107 C 0.53821 0.82527 0.86405 0.0
O108 O 0.53687 0.82427 0.85128 0.0
C109 C 0.74986 0.89845 0.8118 0.0
C110 C 0.7948 0.97126 0.81287 0.0
C111 C 0.78577 0.93398 0.8056 0.0
N112 N 0.73803 0.91447 0.82203 0.0
N113 N 0.76552 0.95785 0.82271 0.0
C114 C 0.72968 0.84984 0.80893 0.0
H115 H 0.71982 0.8305 0.81811 0.0
H116 H 0.69936 0.83873 0.80291 0.0
H117 H 0.7535 0.84289 0.80367 0.0
C118 C 0.61879 0.93501 0.84774 0.0
N119 N 0.63682 0.90852 0.84752 0.0
N120 N 0.66079 0.91636 0.83691 0.0
C121 C 0.65642 0.94636 0.82962 0.0
C122 C 0.63018 0.95955 0.83636 0.0
C123 C 0.58831 0.93432 0.85816 0.0
H124 H 0.59521 0.923 0.86749 0.0
H125 H 0.55329 0.91146 0.85525 0.0
H126 H 0.59236 0.96784 0.85956 0.0
O127 O 0.6804 0.87324 0.86762 0.0
O128 O 0.72544 0.88625 0.85081 0.0
H129 H 0.70856 0.99086 0.81698 0.0
H130 H 0.65397 0.96921 0.81026 0.0
C131 C 0.67521 0.96063 0.81625 0.0
H132 H 0.6786 0.93393 0.81138 0.0
H133 H 0.76414 0.97833 0.82991 0.0
O134 O 0.57583 0.8423 0.86969 0.0
C135 C 0.71803 0.88228 0.86301 0.0
Co136 Co 0.79373 0.62501 0.02288 0.0
Co137 Co 0.83576 0.70049 0.00199 0.0
C138 C 0.841 0.61881 -0.00113 0.0
O139 O 0.82 0.60459 0.00952 0.0
O140 O 0.85039 0.65665 -0.00569 0.0
C141 C 0.73653 0.53493 0.02851 0.0
O142 O 0.73438 0.53341 0.01576 0.0
C143 C 0.85674 0.75128 0.97763 0.0
C144 C 0.88078 0.81939 0.98506 0.0
C145 C 0.87328 0.79513 0.97371 0.0
N146 N 0.85492 0.74995 0.99067 0.0
N147 N 0.86965 0.79078 -0.00495 0.0
C148 C 0.83975 0.71074 0.96924 0.0
H149 H 0.81604 0.68056 0.97474 0.0
H150 H 0.82315 0.71411 0.96044 0.0
H151 H 0.86818 0.70672 0.96613 0.0
C152 C 0.71372 0.63072 0.01673 0.0
N153 N 0.75725 0.64462 0.01522 0.0
N154 N 0.77369 0.67441 0.00585 0.0
C155 C 0.74048 0.67944 0.00084 0.0
C156 C 0.70148 0.65205 0.00761 0.0
C157 C 0.68365 0.5945 0.02589 0.0
H158 H 0.70155 0.59689 0.03505 0.0
H159 H 0.67303 0.56174 0.02131 0.0
H160 H 0.65337 0.5962 0.02824 0.0
O161 O 0.84179 0.67297 0.03301 0.0
O162 O 0.87178 0.72566 0.01793 0.0
H163 H 0.7146 0.70995 0.98775 0.0
H164 H 0.7545 0.69674 0.98078 0.0
C165 C 0.74567 0.70903 0.9896 0.0
H166 H 0.77315 0.74326 0.99161 0.0
H167 H 0.87159 0.79901 0.00489 0.0
O168 O 0.75936 0.57242 0.03409 0.0
C169 C 0.87106 0.71197 0.02945 0.0
Co170 Co 0.16529 0.79114 0.19722 0.0
Co171 Co 0.13832 0.83212 0.17443 0.0
C172 C 0.23006 0.84887 0.17622 0.0
O173 O 0.21955 0.82681 0.18676 0.0
O174 O 0.2014 0.85361 0.16976 0.0
C175 C 0.20323 0.74019 0.20455 0.0
O176 O 0.21117 0.74361 0.19199 0.0
C177 C 0.11915 0.85499 0.14868 0.0
C178 C 0.06832 0.87333 0.15361 0.0
C179 C 0.092 0.8697 0.14329 0.0
N180 N 0.1118 0.85043 0.16155 0.0
N181 N 0.08173 0.86183 0.16445 0.0
C182 C 0.14923 0.84236 0.14178 0.0
H183 H 0.15621 0.82037 0.14797 0.0
H184 H 0.13401 0.82522 0.13249 0.0
H185 H 0.18128 0.87292 0.1396 0.0
C186 C 0.09258 0.70778 0.18632 0.0
N187 N 0.11731 0.75244 0.18651 0.0
N188 N 0.10616 0.76888 0.1766 0.0
C189 C 0.07413 0.73477 0.16968 0.0
C190 C 0.06491 0.69498 0.17558 0.0
C191 C 0.09521 0.67759 0.19624 0.0
H192 H 0.10203 0.69328 0.20599 0.0
H193 H 0.12253 0.6712 0.1936 0.0
H194 H 0.06367 0.64515 0.19658 0.0
O195 O 0.15094 0.83099 0.20695 0.0
O196 O 0.13612 0.86271 0.19046 0.0
H197 H 0.04424 0.7647 0.15836 0.0
H198 H 0.02722 0.70806 0.15371 0.0
C199 C 0.05548 0.74008 0.15713 0.0
H200 H 0.08193 0.75286 0.14962 0.0
H201 H 0.06997 0.86122 0.17383 0.0
O202 O 0.18153 0.75743 0.20934 0.0
C203 C 0.14068 0.85902 0.20258 0.0
Co204 Co 0.85226 0.62761 0.45835 0.0
Co205 Co 0.8825 0.70367 0.47882 0.0
C206 C 0.79178 0.62623 0.47986 0.0
O207 O 0.80109 0.61056 0.46995 0.0
O208 O 0.82032 0.66334 0.48482 0.0
C209 C 0.81784 0.53653 0.45211 0.0
O210 O 0.81747 0.53218 0.46481 0.0
C211 C 0.90723 0.75716 0.50285 0.0
C212 C 0.9562 0.82335 0.4951 0.0
C213 C 0.93519 0.80131 0.50644 0.0
N214 N 0.91155 0.75367 0.48999 0.0
N215 N 0.94059 0.79338 0.48541 0.0
C216 C 0.87917 0.71827 0.51146 0.0
H217 H 0.87149 0.68665 0.50659 0.0
H218 H 0.89641 0.72133 0.52082 0.0
H219 H 0.84733 0.71738 0.51352 0.0
C220 C 0.93209 0.62688 0.46806 0.0
N221 N 0.90409 0.64314 0.46804 0.0
N222 N 0.91567 0.67323 0.47729 0.0
C223 C 0.95077 0.6759 0.48378 0.0
C224 C 0.96239 0.64677 0.47809 0.0
C225 C 0.92792 0.59071 0.4592 0.0
H226 H 0.9143 0.59296 0.44967 0.0
H227 H 0.90514 0.55792 0.46367 0.0
H228 H 0.96045 0.59271 0.45762 0.0
O229 O 0.86124 0.67722 0.4472 0.0
O230 O 0.88103 0.7304 0.46193 0.0
H231 H 0.00211 0.70374 0.49853 0.0
H232 H 0.9482 0.69527 0.50332 0.0
C233 C 0.97252 0.70545 0.49524 0.0
H234 H 0.98282 0.74032 0.49263 0.0
H235 H 0.95006 0.79993 0.47567 0.0
O236 O 0.83381 0.57513 0.44719 0.0
C237 C 0.87272 0.71708 0.45022 0.0
Co238 Co 0.23136 0.85582 0.61836 0.0
Co239 Co 0.20264 0.89172 0.64201 0.0
C240 C 0.17449 0.79745 0.64091 0.0
O241 O 0.19332 0.80489 0.62986 0.0
O242 O 0.17596 0.82897 0.64763 0.0
C243 C 0.27499 0.81064 0.61172 0.0
O244 O 0.27759 0.81117 0.62447 0.0
C245 C 0.16327 0.9132 0.66416 0.0
C246 C 0.20274 0.9867 0.66412 0.0
C247 C 0.16826 0.95083 0.67052 0.0
N248 N 0.19399 0.92649 0.65468 0.0
N249 N 0.21694 0.97043 0.65457 0.0
C250 C 0.12711 0.8659 0.66596 0.0
H251 H 0.11821 0.84839 0.65647 0.0
H252 H 0.13923 0.84869 0.67246 0.0
H253 H 0.09691 0.86411 0.67026 0.0
C254 C 0.32078 0.92348 0.62725 0.0
N255 N 0.27614 0.90296 0.62805 0.0
N256 N 0.26476 0.9158 0.6387 0.0
C257 C 0.30211 0.9434 0.64537 0.0
C258 C 0.33879 0.94931 0.63827 0.0
C259 C 0.3458 0.91933 0.61598 0.0
H260 H 0.32576 0.9116 0.60696 0.0
H261 H 0.35309 0.89215 0.61789 0.0
H262 H 0.37798 0.95065 0.61463 0.0
O263 O 0.19433 0.87482 0.60921 0.0
O264 O 0.17026 0.89509 0.62645 0.0
H265 H 0.30782 0.99318 0.65871 0.0
H266 H 0.33063 0.96006 0.66456 0.0
C267 C 0.3027 0.95896 0.65898 0.0
H268 H 0.27085 0.93661 0.66398 0.0
H269 H 0.24193 0.98934 0.64786 0.0
O270 O 0.25718 0.83077 0.60625 0.0
C271 C 0.17016 0.88888 0.61425 0.0
Co272 Co 0.37295 0.22861 0.78251 0.0
Co273 Co 0.30689 0.19224 0.80588 0.0
C274 C 0.37373 0.16519 0.80294 0.0
O275 O 0.38514 0.18714 0.79239 0.0
O276 O 0.3436 0.16461 0.81014 0.0
C277 C 0.46218 0.27201 0.77653 0.0
O278 O 0.46273 0.26952 0.78927 0.0
C279 C 0.26313 0.16743 0.83141 0.0
C280 C 0.19732 0.15938 0.82665 0.0
C281 C 0.22173 0.15547 0.83672 0.0
N282 N 0.26272 0.17736 0.81881 0.0
N283 N 0.22329 0.17232 0.81602 0.0
C284 C 0.30338 0.17205 0.83822 0.0
H285 H 0.33406 0.19489 0.83277 0.0
H286 H 0.30561 0.18484 0.84824 0.0
H287 H 0.30094 0.13894 0.83876 0.0
C288 C 0.39269 0.31458 0.79391 0.0
N289 N 0.36975 0.26985 0.79374 0.0
N290 N 0.34304 0.25521 0.80387 0.0
C291 C 0.3487 0.29049 0.81094 0.0
C292 C 0.38071 0.32926 0.80488 0.0
C293 C 0.42465 0.34297 0.78355 0.0
H294 H 0.4143 0.32611 0.77398 0.0
H295 H 0.45834 0.34875 0.7859 0.0
H296 H 0.42645 0.3758 0.78298 0.0
O297 O 0.31716 0.19434 0.77282 0.0
O298 O 0.27227 0.16466 0.78979 0.0
H299 H 0.28941 0.26989 0.82201 0.0
H300 H 0.33741 0.31986 0.8281 0.0
C301 C 0.32591 0.28678 0.82361 0.0
H302 H 0.33254 0.26593 0.83039 0.0
H303 H 0.21408 0.17761 0.80682 0.0
O304 O 0.42502 0.25817 0.77081 0.0
C305 C 0.27876 0.16846 0.77756 0.0
Co306 Co 0.18675 0.39977 0.94954 0.0
Co307 Co 0.15364 0.33554 0.97333 0.0
C308 C 0.24374 0.41294 0.9735 0.0
O309 O 0.23621 0.42212 0.96214 0.0
O310 O 0.21404 0.37947 0.97972 0.0
C311 C 0.22211 0.48713 0.94132 0.0
O312 O 0.22434 0.4926 0.95399 0.0
C313 C 0.13431 0.28182 -0.00284 0.0
C314 C 0.06202 0.23597 -0.00511 0.0
C315 C 0.09755 0.24676 0.00317 0.0
N316 N 0.12065 0.29158 0.98604 0.0
N317 N 0.07761 0.26354 0.98464 0.0
C318 C 0.18213 0.30316 0.00115 0.0
H319 H 0.20359 0.31105 0.99243 0.0
H320 H 0.19168 0.33478 0.00632 0.0
H321 H 0.18794 0.2809 0.0076 0.0
C322 C 0.10825 0.40721 0.95593 0.0
N323 N 0.13404 0.38895 0.95781 0.0
N324 N 0.12201 0.36545 0.96859 0.0
C325 C 0.08929 0.36988 0.97427 0.0
C326 C 0.07949 0.39648 0.96639 0.0
C327 C 0.11048 0.43371 0.94417 0.0
H328 H 0.12121 0.42217 0.93557 0.0
H329 H 0.13483 0.46937 0.94587 0.0
H330 H 0.07754 0.43052 0.94217 0.0
O331 O 0.17991 0.34604 0.94134 0.0
O332 O 0.15855 0.30124 0.95848 0.0
H333 H 0.04104 0.32096 0.98702 0.0
H334 H 0.06339 0.37724 0.99259 0.0
C335 C 0.07184 0.35391 0.98768 0.0
H336 H 0.09677 0.35057 0.99358 0.0
H337 H 0.05884 0.26348 0.9767 0.0
O338 O 0.20528 0.44799 0.93671 0.0
C339 C 0.1688 0.30858 0.94649 0.0
Co340 Co 0.78033 0.17122 0.11669 0.0
Co341 Co 0.82368 0.14515 0.13907 0.0
C342 C 0.83651 0.23558 0.13799 0.0
O343 O 0.81412 0.22487 0.12751 0.0
O344 O 0.84296 0.20748 0.14416 0.0
C345 C 0.72907 0.20922 0.10923 0.0
O346 O 0.73256 0.21792 0.12175 0.0
C347 C 0.84637 0.12418 0.16457 0.0
C348 C 0.87112 0.07881 0.159 0.0
C349 C 0.86358 0.09871 0.16963 0.0
N350 N 0.84407 0.11944 0.15159 0.0
N351 N 0.85934 0.0927 0.14832 0.0
C352 C 0.82922 0.14995 0.17181 0.0
H353 H 0.85771 0.18254 0.17479 0.0
H354 H 0.80691 0.15623 0.16553 0.0
H355 H 0.81099 0.13166 0.18068 0.0
C356 C 0.69871 0.09425 0.12694 0.0
N357 N 0.74311 0.12142 0.12704 0.0
N358 N 0.76052 0.1107 0.1368 0.0
C359 C 0.72727 0.07653 0.14337 0.0
C360 C 0.6871 0.06502 0.13732 0.0
C361 C 0.66789 0.09924 0.11779 0.0
H362 H 0.68216 0.10626 0.10785 0.0
H363 H 0.66404 0.12765 0.121 0.0
H364 H 0.63444 0.06916 0.11752 0.0
O365 O 0.82233 0.16046 0.10669 0.0
O366 O 0.85492 0.14563 0.12292 0.0
H367 H 0.76161 0.04924 0.1538 0.0
H368 H 0.70295 0.0236 0.15759 0.0
C369 C 0.73354 0.05549 0.15527 0.0
H370 H 0.7416 0.07849 0.16361 0.0
H371 H 0.86108 0.08339 0.13878 0.0
O372 O 0.74574 0.18671 0.10465 0.0
C373 C 0.85129 0.15121 0.11087 0.0
Co374 Co 0.61077 0.78026 0.28749 0.0
Co375 Co 0.68512 0.82367 0.30859 0.0
C376 C 0.60276 0.82821 0.31102 0.0
O377 O 0.58899 0.80684 0.30042 0.0
O378 O 0.64042 0.83776 0.31574 0.0
C379 C 0.52139 0.72214 0.28175 0.0
O380 O 0.52011 0.71938 0.2945 0.0
C381 C 0.73331 0.84635 0.33334 0.0
C382 C 0.80227 0.86976 0.32675 0.0
C383 C 0.77656 0.86277 0.33774 0.0
N384 N 0.73349 0.84346 0.32033 0.0
N385 N 0.7748 0.85784 0.31644 0.0
C386 C 0.69291 0.8367 0.34111 0.0
H387 H 0.68146 0.86003 0.33809 0.0
H388 H 0.66557 0.80247 0.33898 0.0
H389 H 0.69968 0.84087 0.35169 0.0
C390 C 0.61641 0.70055 0.29456 0.0
N391 N 0.63016 0.74422 0.29565 0.0
N392 N 0.65968 0.76152 0.30507 0.0
C393 C 0.66469 0.72888 0.31052 0.0
C394 C 0.63751 0.68921 0.30401 0.0
C395 C 0.5806 0.66957 0.28544 0.0
H396 H 0.58247 0.68694 0.27622 0.0
H397 H 0.54767 0.65816 0.29 0.0
H398 H 0.58335 0.6398 0.28322 0.0
O399 O 0.65924 0.82815 0.27738 0.0
O400 O 0.71109 0.85913 0.29264 0.0
H401 H 0.72844 0.76225 0.31976 0.0
H402 H 0.6947 0.70437 0.32426 0.0
C403 C 0.69409 0.73529 0.32192 0.0
H404 H 0.68197 0.74556 0.33048 0.0
H405 H 0.78419 0.85919 0.30672 0.0
O406 O 0.55877 0.74546 0.27616 0.0
C407 C 0.69797 0.85779 0.28102 0.0
H408 H 0.33806 0.97866 0.34211 0.0
H409 H 0.36789 0.92918 0.33692 0.0
H410 H 0.50047 0.03526 0.34576 0.0
H411 H 0.47136 0.08496 0.35042 0.0
H412 H 0.44582 0.95566 0.31731 0.0
H413 H 0.4762 0.91917 0.36773 0.0
H414 H 0.43432 0.93394 0.36388 0.0
H415 H 0.49207 0.976 0.36407 0.0
C416 C 0.37353 0.99126 0.3429 0.0
C417 C 0.40237 0.03537 0.34682 0.0
C418 C 0.39042 0.96303 0.34002 0.0
C419 C 0.4362 0.97855 0.34119 0.0
C420 C 0.46494 0.02255 0.34506 0.0
H421 H 0.62907 0.89646 0.32851 0.0
H422 H 0.58492 0.92904 0.33641 0.0
C423 C 0.44821 0.05077 0.34779 0.0
C424 C 0.45492 0.94994 0.33774 0.0
H425 H 0.50825 0.8986 0.35063 0.0
C426 C 0.45891 0.94252 0.32456 0.0
C427 C 0.47244 0.93366 0.34727 0.0
C428 C 0.46844 0.94073 0.36156 0.0
C429 C 0.48148 0.92041 0.32059 0.0
C430 C 0.49931 0.90418 0.33013 0.0
C431 C 0.49446 0.91091 0.34335 0.0
C432 C 0.52446 0.88161 0.32651 0.0
C433 C 0.48779 0.91654 0.30622 0.0
C434 C 0.50461 0.8432 0.31878 0.0
C435 C 0.52981 0.82494 0.31414 0.0
C436 C 0.57517 0.84425 0.31736 0.0
C437 C 0.59425 0.88094 0.32584 0.0
C438 C 0.56909 0.89958 0.33034 0.0
H439 H 0.48289 0.94084 0.30045 0.0
H440 H 0.52159 0.92198 0.30415 0.0
H441 H 0.46297 0.88264 0.30286 0.0
H442 H 0.46989 0.82801 0.31603 0.0
H443 H 0.51395 0.7962 0.30779 0.0
H444 H 0.38873 0.36522 0.51813 0.0
H445 H 0.46896 0.40726 0.51354 0.0
H446 H 0.44919 0.49701 0.48906 0.0
H447 H 0.36886 0.4542 0.49341 0.0
H448 H 0.50616 0.47514 0.47824 0.0
H449 H 0.5551 0.52667 0.52936 0.0
H450 H 0.52298 0.46735 0.52747 0.0
H451 H 0.49808 0.50092 0.52391 0.0
C452 C 0.40169 0.39357 0.51162 0.0
C453 C 0.37311 0.40653 0.50601 0.0
C454 C 0.44741 0.41785 0.50914 0.0
C455 C 0.46517 0.4559 0.50121 0.0
C456 C 0.43623 0.46795 0.49527 0.0
H457 H 0.74756 0.65744 0.49485 0.0
H458 H 0.6681 0.61724 0.50055 0.0
C459 C 0.39048 0.44345 0.49768 0.0
C460 C 0.51384 0.483 0.49901 0.0
H461 H 0.61392 0.54062 0.51461 0.0
C462 C 0.52969 0.48964 0.48619 0.0
C463 C 0.54446 0.50272 0.50938 0.0
C464 C 0.52932 0.4995 0.52329 0.0
C465 C 0.57537 0.51437 0.48347 0.0
C466 C 0.60613 0.53196 0.49387 0.0
C467 C 0.59029 0.52653 0.50667 0.0
C468 C 0.65481 0.5553 0.49158 0.0
C469 C 0.59017 0.52181 0.46944 0.0
C470 C 0.67387 0.53324 0.48516 0.0
C471 C 0.71883 0.55605 0.48182 0.0
C472 C 0.7459 0.60128 0.48503 0.0
C473 C 0.72748 0.62265 0.49222 0.0
C474 C 0.68215 0.59978 0.49545 0.0
H475 H 0.56315 0.51821 0.46286 0.0
H476 H 0.61965 0.5554 0.468 0.0
H477 H 0.59932 0.49659 0.46654 0.0
H478 H 0.65367 0.49855 0.48243 0.0
H479 H 0.73217 0.53841 0.47647 0.0
H480 H 0.16308 0.7231 0.62847 0.0
H481 H 0.12341 0.64646 0.63616 0.0
H482 H 0.09235 0.68917 0.67206 0.0
H483 H 0.13219 0.76668 0.66443 0.0
H484 H 0.12786 0.6269 0.67399 0.0
H485 H 0.98456 0.57047 0.64022 0.0
H486 H 0.03852 0.60114 0.63275 0.0
H487 H 0.02104 0.62841 0.64422 0.0
C488 C 0.14782 0.71644 0.63801 0.0
C489 C 0.15063 0.75111 0.64581 0.0
C490 C 0.12507 0.67253 0.64236 0.0
C491 C 0.10463 0.66227 0.65459 0.0
C492 C 0.10782 0.69661 0.66255 0.0
H493 H 0.91713 0.39496 0.68083 0.0
H494 H 0.95539 0.47441 0.67563 0.0
C495 C 0.1305 0.74077 0.65817 0.0
C496 C 0.08015 0.61545 0.65895 0.0
H497 H 0.99109 0.5141 0.65143 0.0
C498 C 0.09775 0.60221 0.66916 0.0
C499 C 0.04081 0.58358 0.65264 0.0
C500 C 0.01978 0.59651 0.64191 0.0
C501 C 0.07754 0.55742 0.67301 0.0
C502 C 0.0391 0.52529 0.66636 0.0
C503 C 0.02087 0.53881 0.6564 0.0
C504 C 0.01675 0.47747 0.66973 0.0
C505 C 0.09725 0.54482 0.68417 0.0
C506 C 0.03845 0.45283 0.66795 0.0
C507 C 0.01667 0.40743 0.67097 0.0
C508 C 0.97301 0.38623 0.67583 0.0
C509 C 0.95117 0.41081 0.67739 0.0
C510 C 0.97284 0.45605 0.67434 0.0
H511 H 0.1202 0.57426 0.69009 0.0
H512 H 0.07064 0.51999 0.69058 0.0
H513 H 0.11643 0.5296 0.68027 0.0
H514 H 0.07207 0.46865 0.66415 0.0
H515 H 0.03406 0.38903 0.66967 0.0
H516 H 0.42976 0.15035 0.78806 0.0
H517 H 0.47298 0.1158 0.79441 0.0
H518 H 0.41703 0.09327 0.83299 0.0
H519 H 0.37253 0.12739 0.82661 0.0
H520 H 0.53659 0.14407 0.8134 0.0
H521 H 0.39988 0.97142 0.82305 0.0
H522 H 0.39094 0.01173 0.81449 0.0
H523 H 0.39643 0.01431 0.83188 0.0
C524 C 0.42619 0.13776 0.79789 0.0
C525 C 0.39759 0.14161 0.80684 0.0
C526 C 0.45106 0.11807 0.8015 0.0
C527 C 0.44806 0.10176 0.81413 0.0
C528 C 0.41928 0.10503 0.82311 0.0
H529 H 0.64151 0.03686 0.84642 0.0
H530 H 0.59866 0.07357 0.84108 0.0
C531 C 0.39399 0.12462 0.81947 0.0
C532 C 0.47644 0.08278 0.81782 0.0
H533 H 0.47325 0.98693 0.82731 0.0
C534 C 0.52279 0.10974 0.81649 0.0
C535 C 0.45825 0.03788 0.82169 0.0
C536 C 0.40865 0.00693 0.82277 0.0
C537 C 0.55147 0.09292 0.81881 0.0
C538 C 0.53333 0.04816 0.82281 0.0
C539 C 0.48702 0.02128 0.82425 0.0
C540 C 0.56168 0.02828 0.82543 0.0
C541 C 0.60079 0.12283 0.8166 0.0
C542 C 0.55507 0.99071 0.81841 0.0
C543 C 0.57929 0.96968 0.82151 0.0
C544 C 0.61042 0.98596 0.83167 0.0
C545 C 0.61795 0.02419 0.83845 0.0
C546 C 0.59362 0.04514 0.83539 0.0
H547 H 0.60787 0.15178 0.81035 0.0
H548 H 0.61748 0.13583 0.82609 0.0
H549 H 0.6156 0.10426 0.812 0.0
H550 H 0.53044 0.97709 0.81073 0.0
H551 H 0.5724 0.93966 0.81635 0.0
H552 H 0.64055 0.65903 0.02257 0.0
H553 H 0.56002 0.62276 0.01859 0.0
H554 H 0.57866 0.57997 0.9809 0.0
H555 H 0.65894 0.61535 0.985 0.0
H556 H 0.50612 0.62823 -0.00116 0.0
H557 H 0.49497 0.46305 0.00022 0.0
H558 H 0.54369 0.51341 0.00559 0.0
H559 H 0.53439 0.50055 0.98855 0.0
C560 C 0.62733 0.64252 0.01335 0.0
C561 C 0.65544 0.6394 0.00412 0.0
C562 C 0.58152 0.62185 0.0111 0.0
C563 C 0.56342 0.59783 -0.00041 0.0
C564 C 0.59199 0.59759 0.98995 0.0
H565 H 0.31101 0.48974 0.96337 0.0
H566 H 0.38608 0.53521 0.97169 0.0
C567 C 0.63775 0.61817 0.99222 0.0
C568 C 0.51459 0.57087 -0.00206 0.0
H569 H 0.43057 0.46442 0.9928 0.0
C570 C 0.48947 0.59239 -0.00238 0.0
C571 C 0.49286 0.52398 -0.00327 0.0
C572 C 0.51774 0.49875 -0.00208 0.0
C573 C 0.44335 0.56839 -0.00457 0.0
C574 C 0.42212 0.52186 0.99333 0.0
C575 C 0.44694 0.50013 -0.00569 0.0
C576 C 0.3752 0.49566 0.98901 0.0
C577 C 0.41785 0.59312 -0.00468 0.0
C578 C 0.34419 0.45764 -0.00412 0.0
C579 C 0.30095 0.43101 0.99105 0.0
C580 C 0.28832 0.44184 0.97922 0.0
C581 C 0.31946 0.4803 0.97251 0.0
C582 C 0.36241 0.50673 0.97732 0.0
H583 H 0.43483 0.62393 0.00128 0.0
H584 H 0.41587 0.60306 0.9852 0.0
H585 H 0.38344 0.572 -0.00095 0.0
H586 H 0.35363 0.44831 0.00487 0.0
H587 H 0.27781 0.40158 -0.00356 0.0
H588 H 0.97564 0.64729 0.17039 0.0
H589 H 0.93259 0.56847 0.16384 0.0
H590 H 0.05338 0.5615 0.1633 0.0
H591 H 0.09619 0.63992 0.1696 0.0
H592 H 0.99808 0.52215 0.1416 0.0
H593 H 0.90613 0.46291 0.18834 0.0
H594 H 0.90241 0.50711 0.18038 0.0
H595 H 0.95506 0.51719 0.18657 0.0
C596 C 0.99279 0.62886 0.16869 0.0
C597 C 0.03898 0.64925 0.17049 0.0
C598 C 0.96828 0.58394 0.16509 0.0
C599 C 0.98981 0.5591 0.1633 0.0
C600 C 0.03615 0.58002 0.16471 0.0
H601 H 0.89147 0.27471 0.15903 0.0
H602 H 0.92747 0.35331 0.16551 0.0
C603 C 0.06051 0.62468 0.16831 0.0
C604 C 0.9645 0.5112 0.15998 0.0
H605 H 0.88828 0.40899 0.17185 0.0
C606 C 0.97392 0.4974 0.14818 0.0
C607 C 0.93364 0.47906 0.16871 0.0
C608 C 0.92382 0.49205 0.18177 0.0
C609 C 0.95305 0.45222 0.14481 0.0
C610 C 0.92154 0.42013 0.15342 0.0
C611 C 0.91231 0.43382 0.16527 0.0
C612 C 0.89765 0.37223 0.15013 0.0
C613 C 0.96544 0.43907 0.13217 0.0
C614 C 0.86829 0.35692 0.13956 0.0
C615 C 0.84781 0.31235 0.13584 0.0
C616 C 0.8562 0.28206 0.14265 0.0
C617 C 0.88449 0.2972 0.15354 0.0
C618 C 0.90501 0.342 0.15727 0.0
H619 H 0.99721 0.46632 0.12817 0.0
H620 H 0.96866 0.40901 0.13349 0.0
H621 H 0.93883 0.43108 0.12491 0.0
H622 H 0.86168 0.37966 0.13407 0.0
H623 H 0.82588 0.30187 0.12749 0.0
H624 H 0.12793 0.39288 0.48815 0.0
H625 H 0.09807 0.44152 0.48239 0.0
H626 H 0.14452 0.51051 0.51893 0.0
H627 H 0.17491 0.46288 0.52469 0.0
H628 H 0.03429 0.45232 0.49551 0.0
H629 H 0.19329 0.61261 0.49277 0.0
H630 H 0.19093 0.55939 0.49283 0.0
H631 H 0.18614 0.58346 0.5078 0.0
C632 C 0.13201 0.41857 0.49492 0.0
C633 C 0.15393 0.42401 0.50686 0.0
C634 C 0.11496 0.44632 0.49162 0.0
C635 C 0.1198 0.4801 0.50014 0.0
C636 C 0.14134 0.48536 0.51208 0.0
H637 H 0.95908 0.60752 0.50118 0.0
H638 H 0.0007 0.56999 0.50717 0.0
C639 C 0.15838 0.45777 0.51539 0.0
C640 C 0.10062 0.50866 0.49688 0.0
H641 H 0.12673 0.61701 0.49323 0.0
C642 C 0.05451 0.4883 0.49494 0.0
C643 C 0.12718 0.55556 0.49602 0.0
C644 C 0.17719 0.57908 0.49734 0.0
C645 C 0.03404 0.51367 0.49245 0.0
C646 C 0.06036 0.56067 0.49212 0.0
C647 C 0.10661 0.58101 0.49374 0.0
C648 C 0.04033 0.58892 0.48959 0.0
C649 C 0.98449 0.4899 0.49 0.0
C650 C 0.0508 0.61407 0.47812 0.0
C651 C 0.02747 0.63583 0.47479 0.0
C652 C 0.99351 0.63274 0.4829 0.0
C653 C 0.98527 0.61032 0.49481 0.0
C654 C 0.00863 0.58858 0.49816 0.0
H655 H 0.97116 0.45423 0.48756 0.0
H656 H 0.96727 0.49157 0.49889 0.0
H657 H 0.97632 0.50592 0.48194 0.0
H658 H 0.07541 0.61501 0.47144 0.0
H659 H 0.03437 0.6532 0.46558 0.0
H660 H 0.39561 0.91676 0.63821 0.0
H661 H 0.47443 0.95579 0.64416 0.0
H662 H 0.46699 0.07306 0.65367 0.0
H663 H 0.38796 0.03424 0.6474 0.0
H664 H 0.54232 0.08796 0.63765 0.0
H665 H 0.52267 0.98747 0.68184 0.0
H666 H 0.49796 0.95573 0.66733 0.0
H667 H 0.47642 0.98878 0.67422 0.0
C668 C 0.4109 0.95101 0.64144 0.0
C669 C 0.38601 0.97275 0.64225 0.0
C670 C 0.45574 0.97306 0.64496 0.0
C671 C 0.47631 0.01711 0.64943 0.0
C672 C 0.45154 0.03899 0.65025 0.0
H673 H 0.72583 0.16558 0.68928 0.0
H674 H 0.64875 0.12802 0.682 0.0
C675 C 0.40653 0.01682 0.64676 0.0
C676 C 0.52378 0.04027 0.65317 0.0
H677 H 0.59644 0.03734 0.67495 0.0
C678 C 0.55426 0.07705 0.64581 0.0
C679 C 0.53899 0.02591 0.66386 0.0
C680 C 0.50734 0.98755 0.67236 0.0
C681 C 0.59986 0.09974 0.64882 0.0
C682 C 0.61514 0.08488 0.65938 0.0
C683 C 0.58457 0.04829 0.66678 0.0
C684 C 0.66238 0.10828 0.66341 0.0
C685 C 0.63121 0.13993 0.64089 0.0
C686 C 0.6956 0.1094 0.65534 0.0
C687 C 0.74002 0.1309 0.65948 0.0
C688 C 0.75172 0.15144 0.67176 0.0
C689 C 0.71813 0.15009 0.67977 0.0
C690 C 0.67397 0.12863 0.67564 0.0
H691 H 0.61309 0.15214 0.63478 0.0
H692 H 0.65477 0.16743 0.6473 0.0
H693 H 0.65101 0.13096 0.63437 0.0
H694 H 0.68711 0.09325 0.64593 0.0
H695 H 0.76504 0.13123 0.6531 0.0
H696 H 0.54345 0.72883 0.8484 0.0
H697 H 0.50137 0.65011 0.84284 0.0
H698 H 0.58877 0.67284 0.81035 0.0
H699 H 0.63153 0.7524 0.81582 0.0
H700 H 0.49232 0.61566 0.80545 0.0
H701 H 0.55258 0.56503 0.84869 0.0
H702 H 0.53003 0.60074 0.85202 0.0
H703 H 0.58019 0.62147 0.84263 0.0
C704 C 0.55387 0.71735 0.84003 0.0
C705 C 0.59126 0.74696 0.83263 0.0
C706 C 0.52972 0.67225 0.8369 0.0
C707 C 0.5424 0.65568 0.82632 0.0
C708 C 0.57869 0.68513 0.81861 0.0
H709 H 0.46847 0.38458 0.80906 0.0
H710 H 0.506 0.46392 0.81442 0.0
C711 C 0.60307 0.73049 0.82175 0.0
C712 C 0.51817 0.60733 0.8236 0.0
H713 H 0.49518 0.50717 0.83635 0.0
C714 C 0.49292 0.59185 0.81217 0.0
C715 C 0.51935 0.57657 0.83238 0.0
C716 C 0.54726 0.59164 0.84458 0.0
C717 C 0.46833 0.54612 0.80936 0.0
C718 C 0.46881 0.51531 0.81828 0.0
C719 C 0.49446 0.5309 0.82963 0.0
C720 C 0.44524 0.4669 0.81562 0.0
C721 C 0.44277 0.53112 0.79676 0.0
C722 C 0.39855 0.44211 0.81483 0.0
C723 C 0.37704 0.39667 0.8118 0.0
C724 C 0.40206 0.37568 0.80952 0.0
C725 C 0.44859 0.40025 0.81071 0.0
C726 C 0.46999 0.44544 0.81377 0.0
H727 H 0.45275 0.55922 0.78986 0.0
H728 H 0.44789 0.50526 0.79201 0.0
H729 H 0.40668 0.51628 0.7988 0.0
H730 H 0.37888 0.45802 0.81643 0.0
H731 H 0.34112 0.37827 0.81085 0.0
H732 H 0.99314 0.35264 0.97491 0.0
H733 H 0.94501 0.38483 0.97895 0.0
H734 H 0.05283 0.51462 0.96837 0.0
H735 H 0.10111 0.48314 0.96475 0.0
H736 H 0.96717 0.4623 -0.00331 0.0
H737 H 0.94275 0.49203 0.94503 0.0
H738 H 0.9582 0.45145 0.94988 0.0
H739 H -0.00093 0.50966 0.94981 0.0
C740 C 0.00645 0.38803 0.97352 0.0
C741 C 0.05047 0.41531 0.96928 0.0
C742 C 0.97898 0.40626 0.97574 0.0
C743 C 0.99524 0.45184 0.97365 0.0
C744 C 0.03945 0.47918 0.96971 0.0
H745 H 0.91281 0.64674 0.98264 0.0
H746 H 0.94694 0.60296 0.9756 0.0
C747 C 0.06688 0.46111 0.9676 0.0
C748 C 0.96692 0.47171 0.97605 0.0
H749 H 0.91995 0.526 0.96101 0.0
C750 C 0.95625 0.47573 0.98891 0.0
C751 C 0.95342 0.4896 0.96584 0.0
C752 C 0.96358 0.4853 0.95183 0.0
C753 C 0.93353 0.49855 0.99192 0.0
C754 C 0.92007 0.51666 0.9817 0.0
C755 C 0.9302 0.512 0.9688 0.0
C756 C 0.89644 0.54148 0.98435 0.0
C757 C 0.92582 0.50461 0.00603 0.0
C758 C 0.85577 0.52086 0.99103 0.0
C759 C 0.8366 0.54576 -0.00485 0.0
C760 C 0.85733 0.59161 0.99246 0.0
C761 C 0.89618 0.61149 0.98486 0.0
C762 C 0.91572 0.58657 0.98087 0.0
H763 H 0.9483 0.49935 0.01257 0.0
H764 H 0.93098 0.53846 0.00782 0.0
H765 H 0.89102 0.47992 0.00869 0.0
H766 H 0.8397 0.48581 0.99347 0.0
H767 H 0.80623 0.52937 0.00083 0.0
H768 H 0.62004 0.99424 0.12479 0.0
H769 H 0.54116 0.9535 0.13105 0.0
H770 H 0.57336 0.02781 0.1669 0.0
H771 H 0.65207 0.06927 0.16049 0.0
H772 H 0.49476 0.90156 0.15257 0.0
H773 H 0.48332 0.05531 0.14929 0.0
H774 H 0.53013 0.05193 0.143 0.0
H775 H 0.52598 0.05975 0.16011 0.0
C776 C 0.61014 0.00133 0.13407 0.0
C777 C 0.64161 0.03505 0.14211 0.0
C778 C 0.56527 0.97815 0.13763 0.0
C779 C 0.5514 0.98846 0.14928 0.0
C780 C 0.58335 0.02012 0.15773 0.0
H781 H 0.29934 0.84752 0.1883 0.0
H782 H 0.37593 0.88002 0.18085 0.0
C783 C 0.62821 0.04337 0.15415 0.0
C784 C 0.50338 0.96749 0.15232 0.0
H785 H 0.42048 0.99128 0.15801 0.0
C786 C 0.47843 0.92109 0.15373 0.0
C787 C 0.48202 0.99303 0.1535 0.0
C788 C 0.50657 0.04271 0.15128 0.0
C789 C 0.43286 0.89962 0.15671 0.0
C790 C 0.412 0.9254 0.15852 0.0
C791 C 0.43666 0.97165 0.15672 0.0
C792 C 0.36511 0.90526 0.16281 0.0
C793 C 0.4074 0.84951 0.15779 0.0
C794 C 0.33379 0.90981 0.1553 0.0
C795 C 0.28976 0.89157 0.15959 0.0
C796 C 0.2765 0.86871 0.17151 0.0
C797 C 0.30822 0.86466 0.17903 0.0
C798 C 0.35205 0.88293 0.17475 0.0
H799 H 0.42416 0.83427 0.15237 0.0
H800 H 0.40555 0.83992 0.16816 0.0
H801 H 0.37292 0.83543 0.15404 0.0
H802 H 0.34339 0.92731 0.1461 0.0
H803 H 0.2662 0.89531 0.15358 0.0
H804 H 0.48181 0.302 0.35223 0.0
H805 H 0.52509 0.37754 0.34393 0.0
H806 H 0.43917 0.34169 0.31043 0.0
H807 H 0.39468 0.26553 0.31882 0.0
H808 H 0.57168 0.41232 0.32103 0.0
H809 H 0.43155 0.44611 0.32621 0.0
H810 H 0.43 0.39764 0.33321 0.0
H811 H 0.42051 0.39944 0.3161 0.0
C812 C 0.47201 0.30989 0.34306 0.0
C813 C 0.43433 0.27775 0.33627 0.0
C814 C 0.49701 0.35317 0.33831 0.0
C815 C 0.48497 0.36538 0.32668 0.0
C816 C 0.4485 0.33307 0.31956 0.0
H817 H 0.64339 0.62595 0.28987 0.0
H818 H 0.60916 0.54646 0.29511 0.0
C819 C 0.42326 0.28956 0.32433 0.0
C820 C 0.50981 0.41251 0.32246 0.0
H821 H 0.49929 0.50441 0.3182 0.0
C822 C 0.55587 0.43246 0.32032 0.0
C823 C 0.48914 0.43876 0.32175 0.0
C824 C 0.44017 0.41965 0.32454 0.0
C825 C 0.58193 0.47813 0.31758 0.0
C826 C 0.56117 0.50427 0.31682 0.0
C827 C 0.51506 0.4842 0.3188 0.0
C828 C 0.58648 0.55273 0.31419 0.0
C829 C 0.63156 0.49829 0.31595 0.0
C830 C 0.58545 0.58257 0.32322 0.0
C831 C 0.6046 0.62772 0.32019 0.0
C832 C 0.62485 0.64359 0.30806 0.0
C833 C 0.6278 0.61421 0.29927 0.0
C834 C 0.60852 0.56898 0.30229 0.0
H835 H 0.64353 0.47635 0.31994 0.0
H836 H 0.63991 0.5033 0.30545 0.0
H837 H 0.64978 0.5312 0.32084 0.0
H838 H 0.56854 0.57065 0.33245 0.0
H839 H 0.60167 0.64982 0.32705 0.0
H840 H 0.78115 0.53205 0.42849 0.0
H841 H 0.7323 0.46543 0.41612 0.0
H842 H 0.75345 0.38492 0.44407 0.0
H843 H 0.80041 0.45174 0.457 0.0
H844 H 0.73865 0.40383 0.40403 0.0
H845 H 0.6219 0.3253 0.44545 0.0
H846 H 0.66795 0.38147 0.44619 0.0
H847 H 0.67709 0.3351 0.4483 0.0
C848 C 0.77576 0.50023 0.43196 0.0
C849 C 0.79405 0.49691 0.44379 0.0
C850 C 0.74783 0.46209 0.42486 0.0
C851 C 0.73825 0.41992 0.42932 0.0
C852 C 0.75908 0.41686 0.44067 0.0
H853 H 0.56092 0.21068 0.37409 0.0
H854 H 0.62604 0.25369 0.38803 0.0
C855 C 0.78619 0.45504 0.44798 0.0
C856 C 0.70459 0.37972 0.42229 0.0
H857 H 0.60191 0.28736 0.42561 0.0
C858 C 0.70885 0.37812 0.40875 0.0
C859 C 0.66566 0.34627 0.42848 0.0
C860 C 0.65753 0.34716 0.44287 0.0
C861 C 0.67415 0.34597 0.40112 0.0
C862 C 0.63495 0.31289 0.40729 0.0
C863 C 0.63198 0.31269 0.4209 0.0
C864 C 0.59454 0.28194 0.39983 0.0
C865 C 0.67879 0.34996 0.38651 0.0
C866 C 0.55433 0.28114 0.40236 0.0
C867 C 0.51683 0.25545 0.39474 0.0
C868 C 0.51906 0.23073 0.38427 0.0
C869 C 0.55866 0.23005 0.38201 0.0
C870 C 0.59592 0.25486 0.38989 0.0
H871 H 0.70602 0.38327 0.38343 0.0
H872 H 0.68676 0.32475 0.38276 0.0
H873 H 0.64741 0.34418 0.38189 0.0
H874 H 0.55232 0.30163 0.40998 0.0
H875 H 0.48672 0.25662 0.39668 0.0
H876 H 0.3234 0.552 0.53387 0.0
H877 H 0.33647 0.61547 0.54726 0.0
H878 H 0.27616 0.52818 0.58008 0.0
H879 H 0.26251 0.46422 0.56671 0.0
H880 H 0.23643 0.57833 0.57316 0.0
H881 H 0.41972 0.68585 0.57756 0.0
H882 H 0.40035 0.66799 0.56126 0.0
H883 H 0.39334 0.62751 0.57333 0.0
C884 C 0.31382 0.54636 0.54401 0.0
C885 C 0.29149 0.50305 0.5492 0.0
C886 C 0.32164 0.58277 0.55167 0.0
C887 C 0.30754 0.57648 0.56466 0.0
C888 C 0.28748 0.53363 0.57007 0.0
H889 H 0.31803 0.76803 0.62049 0.0
H890 H 0.33039 0.71396 0.60869 0.0
C891 C 0.27971 0.49717 0.56243 0.0
C892 C 0.30803 0.61337 0.57195 0.0
H893 H 0.37577 0.71897 0.58317 0.0
C894 C 0.26691 0.60892 0.57545 0.0
C895 C 0.34787 0.65317 0.57488 0.0
C896 C 0.39289 0.65894 0.57168 0.0
C897 C 0.26446 0.6436 0.58161 0.0
C898 C 0.30417 0.68389 0.58419 0.0
C899 C 0.34543 0.68813 0.58098 0.0
C900 C 0.30296 0.72127 0.5906 0.0
C901 C 0.21941 0.6369 0.58536 0.0
C902 C 0.28481 0.74415 0.58414 0.0
C903 C 0.27767 0.77506 0.59084 0.0
C904 C 0.28847 0.7833 0.6041 0.0
C905 C 0.30901 0.76211 0.61031 0.0
C906 C 0.31628 0.73136 0.60359 0.0
H907 H 0.19298 0.60131 0.5849 0.0
H908 H 0.22028 0.64945 0.59535 0.0
H909 H 0.21028 0.65598 0.5786 0.0
H910 H 0.27465 0.73684 0.57407 0.0
H911 H 0.26199 0.79101 0.58578 0.0
H912 H 0.76113 0.3033 0.69693 0.0
H913 H 0.70772 0.31562 0.70903 0.0
H914 H 0.74791 0.28057 0.7447 0.0
H915 H 0.80155 0.26773 0.73265 0.0
H916 H 0.63878 0.23895 0.72576 0.0
H917 H 0.74108 0.40044 0.75139 0.0
H918 H 0.75875 0.38743 0.73628 0.0
H919 H 0.76074 0.36114 0.75106 0.0
C920 C 0.75925 0.29887 0.70738 0.0
C921 C 0.78533 0.28418 0.71384 0.0
C922 C 0.72876 0.30603 0.71426 0.0
C923 C 0.7242 0.29918 0.72771 0.0
C924 C 0.75145 0.28644 0.73431 0.0
H925 H 0.54233 0.28833 0.78594 0.0
H926 H 0.60679 0.29911 0.77349 0.0
C927 C 0.7819 0.27899 0.72742 0.0
C928 C 0.68754 0.30052 0.73454 0.0
H929 H 0.66405 0.36056 0.75613 0.0
C930 C 0.64411 0.26561 0.73235 0.0
C931 C 0.69505 0.33522 0.74316 0.0
C932 C 0.74135 0.37345 0.74564 0.0
C933 C 0.60771 0.26391 0.73879 0.0
C934 C 0.61498 0.29893 0.74733 0.0
C935 C 0.65857 0.33405 0.74947 0.0
C936 C 0.57796 0.298 0.75475 0.0
C937 C 0.56212 0.22377 0.73674 0.0
C938 C 0.541 0.29547 0.74834 0.0
C939 C 0.50374 0.28873 0.75543 0.0
C940 C 0.50325 0.28515 0.76904 0.0
C941 C 0.54152 0.29071 0.77545 0.0
C942 C 0.57849 0.29696 0.76836 0.0
H943 H 0.5641 0.19522 0.7326 0.0
H944 H 0.54327 0.21297 0.74602 0.0
H945 H 0.5431 0.23246 0.72982 0.0
H946 H 0.54044 0.29734 0.73784 0.0
H947 H 0.47493 0.28509 0.75024 0.0
H948 H 0.529 0.81625 0.89046 0.0
H949 H 0.46153 0.765 0.90242 0.0
H950 H 0.38629 0.7286 0.86675 0.0
H951 H 0.45337 0.77974 0.85467 0.0
H952 H 0.36057 0.74747 0.90138 0.0
H953 H 0.39616 0.61704 0.88292 0.0
H954 H 0.43935 0.67464 0.8842 0.0
H955 H 0.39794 0.65788 0.87173 0.0
C956 C 0.4979 0.79819 0.8852 0.0
C957 C 0.49661 0.80143 0.8716 0.0
C958 C 0.45943 0.76915 0.89205 0.0
C959 C 0.41931 0.74311 0.8854 0.0
C960 C 0.41713 0.74863 0.87199 0.0
H961 H 0.21165 0.48843 0.91503 0.0
H962 H 0.25071 0.55235 0.90047 0.0
C963 C 0.45552 0.77772 0.86513 0.0
C964 C 0.38196 0.70567 0.89213 0.0
H965 H 0.33763 0.59469 0.89768 0.0
C966 C 0.355 0.71389 0.9005 0.0
C967 C 0.37495 0.6621 0.89083 0.0
C968 C 0.40358 0.65202 0.88199 0.0
C969 C 0.3214 0.67935 0.90787 0.0
C970 C 0.31573 0.63606 0.90702 0.0
C971 C 0.34186 0.62782 0.89828 0.0
C972 C 0.28613 0.59955 0.91588 0.0
C973 C 0.29252 0.68964 0.9165 0.0
C974 C 0.29253 0.60506 0.92936 0.0
C975 C 0.27004 0.56876 0.93768 0.0
C976 C 0.24143 0.52612 0.93263 0.0
C977 C 0.23378 0.52088 0.91917 0.0
C978 C 0.2559 0.55736 0.91086 0.0
H979 H 0.28959 0.71794 0.91259 0.0
H980 H 0.25861 0.66033 0.91758 0.0
H981 H 0.30801 0.69941 0.92627 0.0
H982 H 0.31664 0.63695 0.93343 0.0
H983 H 0.27675 0.57378 0.94801 0.0
H984 H 0.70483 0.18931 0.08373 0.0
H985 H 0.68614 0.23187 0.06853 0.0
H986 H 0.69691 0.32034 0.09959 0.0
H987 H 0.71384 0.27713 0.11488 0.0
H988 H 0.63051 0.30595 0.08282 0.0
H989 H 0.78633 0.34966 0.0559 0.0
H990 H 0.74683 0.29115 0.05656 0.0
H991 H 0.77288 0.32088 0.07126 0.0
C992 C 0.70247 0.2174 0.08734 0.0
C993 C 0.71149 0.23035 0.10044 0.0
C994 C 0.69198 0.24176 0.07865 0.0
C995 C 0.69134 0.27993 0.08288 0.0
C996 C 0.69748 0.29113 0.09611 0.0
H997 H 0.73058 0.52584 0.05495 0.0
H998 H 0.70899 0.45798 0.06741 0.0
C999 C 0.70726 0.26643 0.10483 0.0
C1000 C 0.68836 0.31065 0.07348 0.0
H1001 H 0.74447 0.38127 0.04846 0.0
C1002 C 0.65512 0.3221 0.07521 0.0
C1003 C 0.7208 0.33195 0.06363 0.0
C1004 C 0.75897 0.32319 0.06176 0.0
C1005 C 0.65402 0.35494 0.0675 0.0
C1006 C 0.68692 0.37665 0.05787 0.0
C1007 C 0.7191 0.36413 0.05582 0.0
C1008 C 0.69149 0.41526 0.05053 0.0
C1009 C 0.61826 0.36679 0.06983 0.0
C1010 C 0.68821 0.41344 0.03694 0.0
C1011 C 0.70053 0.45211 0.02979 0.0
C1012 C 0.71699 0.49332 0.03614 0.0
C1013 C 0.71818 0.49462 0.04979 0.0
C1014 C 0.70553 0.45585 0.05693 0.0
H1015 H 0.5896 0.3402 0.07527 0.0
H1016 H 0.63234 0.39789 0.07563 0.0
H1017 H 0.60609 0.37278 0.06048 0.0
H1018 H 0.67782 0.38241 0.03185 0.0
H1019 H 0.69917 0.44998 0.01928 0.0
H1020 H 0.51195 0.72364 0.2554 0.0
H1021 H 0.44398 0.7063 0.24357 0.0
H1022 H 0.36873 0.66318 0.2792 0.0
H1023 H 0.4364 0.68033 0.29116 0.0
H1024 H 0.34807 0.62295 0.24324 0.0
H1025 H 0.36883 0.77976 0.26491 0.0
H1026 H 0.41441 0.76872 0.26397 0.0
H1027 H 0.37062 0.73947 0.27556 0.0
C1028 C 0.48079 0.70953 0.26068 0.0
C1029 C 0.47964 0.70402 0.27424 0.0
C1030 C 0.44202 0.69948 0.2539 0.0
C1031 C 0.40169 0.68387 0.26058 0.0
C1032 C 0.39974 0.67534 0.27394 0.0
H1033 H 0.18727 0.7203 0.23043 0.0
H1034 H 0.2266 0.6955 0.2449 0.0
C1035 C 0.43845 0.68523 0.28073 0.0
C1036 C 0.36346 0.68241 0.25387 0.0
H1037 H 0.31265 0.74381 0.24945 0.0
C1038 C 0.33975 0.64893 0.24468 0.0
C1039 C 0.35282 0.7163 0.25588 0.0
C1040 C 0.37797 0.75334 0.26556 0.0
C1041 C 0.30602 0.6491 0.23717 0.0
C1042 C 0.29689 0.68433 0.23872 0.0
C1043 C 0.31955 0.71674 0.2483 0.0
C1044 C 0.26758 0.69125 0.22972 0.0
C1045 C 0.28083 0.61178 0.22761 0.0
C1046 C 0.27705 0.69637 0.21637 0.0
C1047 C 0.25447 0.7102 0.20809 0.0
C1048 C 0.22256 0.71997 0.21305 0.0
C1049 C 0.21187 0.71323 0.22634 0.0
C1050 C 0.2342 0.69895 0.23461 0.0
H1051 H 0.27946 0.58061 0.23092 0.0
H1052 H 0.24631 0.60514 0.22617 0.0
H1053 H 0.29832 0.62101 0.21811 0.0
H1054 H 0.30353 0.69193 0.21242 0.0
H1055 H 0.2636 0.71524 0.1979 0.0
H1056 H 0.1378 0.93468 0.19677 0.0
H1057 H 0.14027 0.9899 0.21217 0.0
H1058 H 0.13681 0.90796 0.24417 0.0
H1059 H 0.13464 0.85289 0.22899 0.0
H1060 H 0.07893 0.95459 0.24521 0.0
H1061 H 0.26054 0.0613 0.235 0.0
H1062 H 0.22057 0.03832 0.22196 0.0
H1063 H 0.23289 0.00248 0.23146 0.0
C1064 C 0.13683 0.92809 0.2071 0.0
C1065 C 0.13659 0.88968 0.21169 0.0
C1066 C 0.13818 0.95963 0.21583 0.0
C1067 C 0.13882 0.95283 0.22923 0.0
C1068 C 0.13618 0.91353 0.23382 0.0
H1069 H 0.17914 0.00143 0.30435 0.0
H1070 H 0.1488 0.98187 0.28254 0.0
C1071 C 0.13521 0.88226 0.22514 0.0
C1072 C 0.14702 0.988 0.23867 0.0
H1073 H 0.23435 0.07083 0.2551 0.0
C1074 C 0.11261 0.98111 0.24718 0.0
C1075 C 0.19081 0.023 0.24102 0.0
C1076 C 0.22855 0.03209 0.23191 0.0
C1077 C 0.12179 0.00549 0.25874 0.0
C1078 C 0.16656 0.03623 0.26196 0.0
C1079 C 0.20009 0.04684 0.25269 0.0
C1080 C 0.18041 0.04989 0.27555 0.0
C1081 C 0.08384 0.99599 0.26779 0.0
C1082 C 0.20908 0.09466 0.27886 0.0
C1083 C 0.22705 0.10595 0.29139 0.0
C1084 C 0.21709 0.0725 0.30068 0.0
C1085 C 0.18744 0.02795 0.29741 0.0
C1086 C 0.16961 0.01675 0.28497 0.0
H1087 H 0.05341 0.98823 0.26219 0.0
H1088 H 0.07593 0.96634 0.27379 0.0
H1089 H 0.09222 0.02458 0.27435 0.0
H1090 H 0.21812 0.12068 0.27169 0.0
H1091 H 0.2486 0.1407 0.29376 0.0
H1092 H 0.22205 0.1472 0.3615 0.0
H1093 H 0.16835 0.15764 0.37438 0.0
H1094 H 0.25243 0.18775 0.4081 0.0
H1095 H 0.30613 0.17775 0.39545 0.0
H1096 H 0.12329 0.11665 0.39982 0.0
H1097 H 0.23579 0.29877 0.40141 0.0
H1098 H 0.24013 0.2637 0.38917 0.0
H1099 H 0.2647 0.26915 0.40497 0.0
C1100 C 0.22891 0.15569 0.37169 0.0
C1101 C 0.26867 0.16222 0.37742 0.0
C1102 C 0.19817 0.16156 0.379 0.0
C1103 C 0.20698 0.17413 0.39207 0.0
C1104 C 0.24554 0.17868 0.39793 0.0
H1105 H 0.12959 0.16181 0.46393 0.0
H1106 H 0.12264 0.14286 0.44111 0.0
C1107 C 0.27615 0.17289 0.39069 0.0
C1108 C 0.17749 0.18445 0.39979 0.0
H1109 H 0.18706 0.26609 0.41997 0.0
C1110 C 0.13629 0.14958 0.404 0.0
C1111 C 0.19352 0.22772 0.40476 0.0
C1112 C 0.23575 0.2671 0.39973 0.0
C1113 C 0.11359 0.15589 0.41435 0.0
C1114 C 0.13366 0.19757 0.42081 0.0
C1115 C 0.1717 0.23372 0.41531 0.0
C1116 C 0.12287 0.20238 0.43447 0.0
C1117 C 0.06961 0.11726 0.41863 0.0
C1118 C 0.12442 0.24179 0.4386 0.0
C1119 C 0.13064 0.25376 0.45173 0.0
C1120 C 0.13391 0.22577 0.46101 0.0
C1121 C 0.12734 0.18418 0.45702 0.0
C1122 C 0.12242 0.17283 0.4439 0.0
H1123 H 0.04923 0.09916 0.41002 0.0
H1124 H 0.07556 0.09333 0.42422 0.0
H1125 H 0.05042 0.12817 0.42474 0.0
H1126 H 0.12507 0.2653 0.43154 0.0
H1127 H 0.13679 0.28657 0.45429 0.0
H1128 H 0.01744 0.16915 0.6335 0.0
H1129 H 0.02903 0.15431 0.6112 0.0
H1130 H 0.89469 0.12065 0.60155 0.0
H1131 H 0.88444 0.14018 0.62347 0.0
H1132 H 0.99699 0.09105 0.59336 0.0
H1133 H 0.96069 0.22468 0.57855 0.0
H1134 H 0.96315 0.21202 0.59538 0.0
H1135 H 0.91551 0.17565 0.58563 0.0
C1136 C 0.99009 0.15818 0.62669 0.0
C1137 C 0.95007 0.1561 0.63036 0.0
C1138 C 0.99662 0.14919 0.61394 0.0
C1139 C 0.96308 0.13737 0.60459 0.0
C1140 C 0.92147 0.13087 0.60851 0.0
H1141 H 0.0726 0.22141 0.52648 0.0
H1142 H 0.01461 0.1665 0.54086 0.0
C1143 C 0.91533 0.14118 0.62121 0.0
C1144 C 0.97484 0.13862 0.59067 0.0
H1145 H 0.99816 0.20481 0.56391 0.0
C1146 C 0.99619 0.11508 0.58678 0.0
C1147 C 0.97343 0.16968 0.58198 0.0
C1148 C 0.95225 0.19719 0.58556 0.0
C1149 C 0.0202 0.12529 0.57509 0.0
C1150 C 0.02221 0.15927 0.56709 0.0
C1151 C 0.99644 0.17878 0.57016 0.0
C1152 C 0.05813 0.18271 0.5575 0.0
C1153 C 0.04589 0.10209 0.57182 0.0
C1154 C 0.10174 0.20941 0.5621 0.0
C1155 C 0.13442 0.24143 0.55407 0.0
C1156 C 0.12415 0.24685 0.54125 0.0
C1157 C 0.08135 0.2178 0.53634 0.0
C1158 C 0.0483 0.18631 0.54448 0.0
H1159 H 0.03061 0.0686 0.57639 0.0
H1160 H 0.04764 0.09859 0.56113 0.0
H1161 H 0.08039 0.12215 0.57557 0.0
H1162 H 0.10971 0.20775 0.57219 0.0
H1163 H 0.16724 0.26319 0.55806 0.0
H1164 H 0.75224 0.87835 0.78422 0.0
H1165 H 0.78488 0.89202 0.76265 0.0
H1166 H 0.89956 0.01181 0.7767 0.0
H1167 H 0.8694 0.99566 0.79848 0.0
H1168 H 0.78984 0.95383 0.74999 0.0
H1169 H 0.96112 0.98693 0.74928 0.0
H1170 H 0.9245 0.95758 0.76271 0.0
H1171 H 0.9582 0.0177 0.7628 0.0
C1172 C 0.78568 0.90591 0.78297 0.0
C1173 C 0.80831 0.93569 0.79319 0.0
C1174 C 0.8042 0.91407 0.7705 0.0
C1175 C 0.84497 0.95288 0.76792 0.0
C1176 C 0.86884 0.98088 0.77833 0.0
H1177 H 0.905 0.16843 0.72763 0.0
H1178 H 0.90104 0.10805 0.74083 0.0
C1179 C 0.851 0.97205 0.79083 0.0
C1180 C 0.85721 0.96993 0.7544 0.0
H1181 H 0.94806 0.04224 0.73659 0.0
C1182 C 0.82424 0.97136 0.7468 0.0
C1183 C 0.90191 0.99262 0.74996 0.0
C1184 C 0.93815 0.98804 0.75661 0.0
C1185 C 0.83549 0.99919 0.73594 0.0
C1186 C 0.88079 0.0267 0.73272 0.0
C1187 C 0.91336 0.02169 0.73931 0.0
C1188 C 0.89427 0.06604 0.72445 0.0
C1189 C 0.79928 0.00247 0.72875 0.0
C1190 C 0.89328 0.06271 0.71087 0.0
C1191 C 0.89572 0.09733 0.70327 0.0
C1192 C 0.89846 0.13523 0.70921 0.0
C1193 C 0.90244 0.13949 0.72279 0.0
C1194 C 0.90055 0.10522 0.73033 0.0
H1195 H 0.76547 0.97572 0.73162 0.0
H1196 H 0.80202 0.03518 0.73081 0.0
H1197 H 0.80325 0.00042 0.71811 0.0
H1198 H 0.88798 0.03241 0.70622 0.0
H1199 H 0.89259 0.09312 0.69282 0.0
H1200 H 0.90207 0.77251 0.95159 0.0
H1201 H 0.90261 0.79865 0.92941 0.0
H1202 H 0.85539 0.88445 0.94393 0.0
H1203 H 0.85519 0.85886 0.96596 0.0
H1204 H 0.83148 0.78569 0.91665 0.0
H1205 H 0.94582 0.96647 0.91839 0.0
H1206 H 0.94549 0.92963 0.93087 0.0
H1207 H 0.90757 0.951 0.93168 0.0
C1208 C 0.89194 0.79703 0.95002 0.0
C1209 C 0.87765 0.81299 0.96044 0.0
C1210 C 0.89284 0.81236 0.93738 0.0
C1211 C 0.8798 0.84411 0.93502 0.0
C1212 C 0.86699 0.86106 0.94552 0.0
H1213 H 0.72141 0.89313 0.88928 0.0
H1214 H 0.7735 0.88915 0.9044 0.0
C1215 C 0.86639 0.84602 0.95811 0.0
C1216 C 0.87311 0.85498 0.92159 0.0
H1217 H 0.88133 0.94137 0.90355 0.0
C1218 C 0.84371 0.81976 0.91355 0.0
C1219 C 0.88941 0.89943 0.91746 0.0
C1220 C 0.92423 0.93867 0.92503 0.0
C1221 C 0.82651 0.82779 0.90221 0.0
C1222 C 0.83901 0.87204 0.89891 0.0
C1223 C 0.87151 0.90743 0.90624 0.0
C1224 C 0.81274 0.88114 0.88944 0.0
C1225 C 0.79213 0.78889 0.89441 0.0
C1226 C 0.81849 0.87898 0.87603 0.0
C1227 C 0.78881 0.88142 0.86732 0.0
C1228 C 0.7528 0.88551 0.87197 0.0
C1229 C 0.74853 0.8896 0.8854 0.0
C1230 C 0.77837 0.88759 0.89405 0.0
H1231 H 0.78699 0.7565 0.89806 0.0
H1232 H 0.75985 0.78834 0.89478 0.0
H1233 H 0.8026 0.79264 0.88407 0.0
H1234 H 0.84486 0.87383 0.87236 0.0
H1235 H 0.79294 0.87817 0.85702 0.0
H1236 H 0.15212 0.90088 0.12298 0.0
H1237 H 0.13479 0.89937 0.09984 0.0
H1238 H 0.99672 0.84979 0.10943 0.0
H1239 H 0.0136 0.8507 0.13238 0.0
H1240 H 0.08075 0.82391 0.0871 0.0
H1241 H 0.01442 0.9375 0.08125 0.0
H1242 H 0.04771 0.94037 0.09513 0.0
H1243 H 0.98842 0.90234 0.09502 0.0
C1244 C 0.11811 0.88965 0.12014 0.0
C1245 C 0.08394 0.8746 0.12945 0.0
C1246 C 0.10843 0.88951 0.10694 0.0
C1247 C 0.0646 0.87505 0.10292 0.0
C1248 C 0.031 0.86228 0.1123 0.0
H1249 H 0.88661 0.69103 0.05371 0.0
H1250 H 0.94422 0.73945 0.069 0.0
C1251 C 0.04063 0.86238 0.12543 0.0
C1252 C 0.05189 0.86616 0.08907 0.0
H1253 H 0.97908 0.86973 0.06752 0.0
C1254 C 0.05975 0.8351 0.08261 0.0
C1255 C 0.02531 0.88141 0.08305 0.0
C1256 C 0.01897 0.91766 0.08895 0.0
C1257 C 0.03745 0.81502 0.07105 0.0
C1258 C 0.00619 0.8259 0.06602 0.0
C1259 C 0.00234 0.86071 0.0716 0.0
C1260 C 0.97269 0.7971 0.05636 0.0
C1261 C 0.04546 0.78035 0.06476 0.0
C1262 C 0.96897 0.81396 0.04435 0.0
C1263 C 0.93586 0.78632 0.03556 0.0
C1264 C 0.90567 0.74161 0.03876 0.0
C1265 C 0.90929 0.7252 0.05091 0.0
C1266 C 0.94245 0.75272 0.05962 0.0
H1267 H 0.07951 0.78659 0.06691 0.0
H1268 H 0.02131 0.74706 0.06871 0.0
H1269 H 0.04101 0.77968 0.05406 0.0
H1270 H 0.99172 0.84835 0.04177 0.0
H1271 H 0.93382 0.80003 0.02629 0.0
H1272 H 0.87912 0.78333 0.52744 0.0
H1273 H 0.90054 0.81307 0.54953 0.0
H1274 H 0.03654 0.89493 0.53678 0.0
H1275 H 0.01545 0.86569 0.51491 0.0
H1276 H 0.95451 0.80031 0.56425 0.0
H1277 H 0.02726 0.98112 0.56024 0.0
H1278 H 0.99173 0.94372 0.5477 0.0
H1279 H 0.0509 0.96391 0.54762 0.0
C1280 C 0.91352 0.80773 0.52938 0.0
C1281 C 0.94587 0.82138 0.51954 0.0
C1282 C 0.92556 0.82521 0.54194 0.0
C1283 C 0.96998 0.8569 0.54478 0.0
C1284 C 0.00178 0.87173 0.53479 0.0
H1285 H 0.17251 0.89671 0.58789 0.0
H1286 H 0.11568 0.89648 0.57386 0.0
C1287 C 0.98977 0.8545 0.52229 0.0
C1288 C 0.98538 0.8691 0.55837 0.0
H1289 H 0.06695 0.95593 0.57542 0.0
C1290 C 0.9776 0.83451 0.56697 0.0
C1291 C 0.015 0.91374 0.56204 0.0
C1292 C 0.02118 0.95263 0.55392 0.0
C1293 C 0.00312 0.84297 0.57826 0.0
C1294 C 0.03712 0.88695 0.58091 0.0
C1295 C 0.04124 0.92211 0.5732 0.0
C1296 C 0.07392 0.89503 0.58969 0.0
C1297 C 0.99692 0.8044 0.58657 0.0
C1298 C 0.06948 0.89545 0.60321 0.0
C1299 C 0.10208 0.89577 0.61129 0.0
C1300 C 0.13908 0.89507 0.60589 0.0
C1301 C 0.14425 0.89685 0.59233 0.0
C1302 C 0.11199 0.897 0.58431 0.0
H1303 H 0.96723 0.77254 0.58364 0.0
H1304 H 0.02683 0.80066 0.58579 0.0
H1305 H 0.99326 0.81101 0.59692 0.0
H1306 H 0.04008 0.8937 0.60747 0.0
H1307 H 0.09721 0.89439 0.62171 0.0
H1308 H 0.19877 0.0959 0.78409 0.0
H1309 H 0.14373 0.04072 0.76919 0.0
H1310 H 0.21981 0.11999 0.73649 0.0
H1311 H 0.27522 0.17502 0.7512 0.0
H1312 H 0.10861 0.06474 0.73713 0.0
H1313 H 0.20353 0.97633 0.74586 0.0
H1314 H 0.18777 -6e-05 0.75904 0.0
H1315 H 0.23124 0.03585 0.74809 0.0
C1316 C 0.20326 0.10216 0.77373 0.0
C1317 C 0.24177 0.13946 0.76879 0.0
C1318 C 0.17163 0.07071 0.76527 0.0
C1319 C 0.17789 0.07654 0.75182 0.0
C1320 C 0.21443 0.11528 0.74689 0.0
H1321 H 0.15727 0.02034 0.67704 0.0
H1322 H 0.13806 0.0363 0.69819 0.0
C1323 C 0.24623 0.14646 0.7553 0.0
C1324 C 0.15174 0.03963 0.74278 0.0
H1325 H 0.16381 0.9614 0.72638 0.0
C1326 C 0.11941 0.04099 0.73495 0.0
C1327 C 0.16502 0.00798 0.74025 0.0
C1328 C 0.19869 0.00451 0.74873 0.0
C1329 C 0.10322 0.0142 0.7238 0.0
C1330 C 0.12156 0.98726 0.7202 0.0
C1331 C 0.14992 0.98229 0.72895 0.0
C1332 C 0.12032 0.97217 0.70662 0.0
C1333 C 0.06821 0.01665 0.71574 0.0
C1334 C 0.11663 0.93062 0.70408 0.0
C1335 C 0.12972 0.92218 0.69205 0.0
C1336 C 0.14551 0.9547 0.68222 0.0
C1337 C 0.1453 0.99457 0.68441 0.0
C1338 C 0.13335 0.00342 0.69649 0.0
H1339 H 0.04324 0.01822 0.72215 0.0
H1340 H 0.08403 0.04767 0.70988 0.0
H1341 H 0.05075 0.98759 0.70914 0.0
H1342 H 0.10711 0.90607 0.71174 0.0
H1343 H 0.13064 0.89167 0.69094 0.0
H1344 H 0.24174 0.10967 0.85501 0.0
H1345 H 0.22219 0.10092 0.87813 0.0
H1346 H 0.14606 0.16684 0.87198 0.0
H1347 H 0.16576 0.17606 0.84911 0.0
H1348 H 0.24831 0.16953 0.894 0.0
H1349 H 0.06633 0.07268 0.89719 0.0
H1350 H 0.09596 0.07097 0.88293 0.0
H1351 H 0.08034 0.11321 0.88461 0.0
C1352 C 0.22089 0.12231 0.85861 0.0
C1353 C 0.20649 0.14491 0.85034 0.0
C1354 C 0.20907 0.11651 0.87177 0.0
C1355 C 0.18205 0.13254 0.87676 0.0
C1356 C 0.16577 0.1529 0.86832 0.0
H1357 H 0.20421 0.31806 0.92236 0.0
H1358 H 0.20693 0.26154 0.90907 0.0
C1359 C 0.17757 0.1587 0.85524 0.0
C1360 C 0.17725 0.13603 0.89094 0.0
H1361 H 0.10308 0.13941 0.91196 0.0
C1362 C 0.21633 0.16121 0.89817 0.0
C1363 C 0.13561 0.12424 0.8966 0.0
C1364 C 0.09225 0.09329 0.88992 0.0
C1365 C 0.21527 0.18075 0.90997 0.0
C1366 C 0.17433 0.17523 0.91445 0.0
C1367 C 0.13463 0.14448 0.9083 0.0
C1368 C 0.17343 0.20855 0.92314 0.0
C1369 C 0.25844 0.21079 0.91688 0.0
C1370 C 0.1527 0.19705 0.93533 0.0
C1371 C 0.15112 0.22956 0.94303 0.0
C1372 C 0.16954 0.27362 0.93848 0.0
C1373 C 0.18966 0.28453 0.92616 0.0
C1374 C 0.1916 0.25234 0.9186 0.0
H1375 H 0.28323 0.19997 0.91512 0.0
H1376 H 0.27255 0.24521 0.91308 0.0
H1377 H 0.2532 0.21134 0.92751 0.0
H1378 H 0.13797 0.16318 0.93888 0.0
H1379 H 0.13525 0.22014 0.95248 0.0
H1380 H 0.14712 0.28682 0.02519 0.0
H1381 H 0.12778 0.26037 0.04736 0.0
H1382 H 0.01368 0.14002 0.0334 0.0
H1383 H 0.03537 0.16431 0.01116 0.0
H1384 H 0.05942 0.25674 0.05632 0.0
H1385 H 0.03528 0.0901 0.06498 0.0
H1386 H 0.06742 0.12344 0.05132 0.0
H1387 H 0.00777 0.08779 0.05005 0.0
C1388 C 0.11974 0.25344 0.02671 0.0
C1389 C 0.09302 0.22753 0.01631 0.0
C1390 C 0.10833 0.2385 0.03949 0.0
C1391 C 0.06929 0.19808 0.04214 0.0
C1392 C 0.04459 0.17073 0.03172 0.0
H1393 H 0.85323 0.15982 0.08446 0.0
H1394 H 0.912 0.16811 0.06972 0.0
C1395 C 0.05663 0.1851 0.01895 0.0
C1396 C 0.04853 0.18976 0.05521 0.0
H1397 H 0.97894 0.1052 0.07543 0.0
C1398 C 0.04325 0.22392 0.06072 0.0
C1399 C 0.02754 0.1472 0.06116 0.0
C1400 C 0.03534 0.11035 0.0566 0.0
C1401 C 0.01425 0.21556 0.07113 0.0
C1402 C 0.98913 0.17176 0.07595 0.0
C1403 C 0.99747 0.13852 0.0714 0.0
C1404 C 0.9511 0.15974 0.08466 0.0
C1405 C 0.0087 0.25315 0.07638 0.0
C1406 C 0.95308 0.15057 0.09781 0.0
C1407 C 0.91947 0.14577 0.1063 0.0
C1408 C 0.88355 0.15015 0.1017 0.0
C1409 C 0.88059 0.15673 0.08835 0.0
C1410 C 0.91407 0.16141 0.07991 0.0
H1411 H 0.03827 0.28612 0.07424 0.0
H1412 H 0.97929 0.25209 0.07174 0.0
H1413 H 0.00315 0.24997 0.08706 0.0
H1414 H 0.98149 0.14912 0.1016 0.0
H1415 H 0.92258 0.1404 0.11653 0.0
H1416 H 0.88725 0.15394 0.19103 0.0
H1417 H 0.88296 0.1319 0.21385 0.0
H1418 H 0.84506 0.99835 0.20181 0.0
H1419 H 0.84889 0.01991 0.17918 0.0
H1420 H 0.80699 0.07169 0.22494 0.0
H1421 H 0.92838 0.0151 0.23113 0.0
H1422 H 0.93135 0.0501 0.21769 0.0
H1423 H 0.89643 0.99038 0.21673 0.0
C1424 C 0.87807 0.11994 0.19327 0.0
C1425 C 0.86709 0.08827 0.18335 0.0
C1426 C 0.87634 0.1076 0.20629 0.0
C1427 C 0.86426 0.06365 0.20953 0.0
C1428 C 0.85568 0.03276 0.19957 0.0
H1429 H 0.6787 0.87118 0.25628 0.0
H1430 H 0.72684 0.93025 0.2413 0.0
C1431 C 0.85743 0.04504 0.18661 0.0
C1432 C 0.85324 0.04753 0.22307 0.0
H1433 H 0.85874 0.97375 0.24382 0.0
C1434 C 0.81936 0.05146 0.22929 0.0
C1435 C 0.8699 0.02185 0.2289 0.0
C1436 C 0.9089 0.0196 0.2233 0.0
C1437 C 0.79836 0.02642 0.2404 0.0
C1438 C 0.81118 0.99634 0.24521 0.0
C1439 C 0.84829 0.99611 0.23989 0.0
C1440 C 0.78288 0.96102 0.25449 0.0
C1441 C 0.76092 0.03046 0.24646 0.0
C1442 C 0.7991 0.95811 0.2667 0.0
C1443 C 0.77166 0.9242 0.27531 0.0
C1444 C 0.72778 0.89249 0.27175 0.0
C1445 C 0.71219 0.89508 0.25936 0.0
C1446 C 0.73953 0.92901 0.25082 0.0
H1447 H 0.76475 0.06375 0.24455 0.0
H1448 H 0.72883 0.00504 0.24215 0.0
H1449 H 0.75935 0.02493 0.25713 0.0
H1450 H 0.83271 0.98229 0.2696 0.0
H1451 H 0.78476 0.923 0.28477 0.0
H1452 H 0.85215 0.93022 0.34838 0.0
H1453 H 0.88288 0.93144 0.37002 0.0
H1454 H 0.76871 0.80303 0.37842 0.0
H1455 H 0.73823 0.80169 0.35697 0.0
H1456 H 0.79673 0.86376 0.39962 0.0
H1457 H 0.93562 0.85019 0.37689 0.0
H1458 H 0.92931 0.89701 0.37258 0.0
H1459 H 0.88802 0.84201 0.36758 0.0
C1460 C 0.8334 0.90275 0.355 0.0
C1461 C 0.79245 0.8663 0.35118 0.0
C1462 C 0.85096 0.90345 0.36729 0.0
C1463 C 0.82805 0.86729 0.37577 0.0
C1464 C 0.78658 0.83152 0.37207 0.0
H1465 H 0.85482 0.6995 0.42441 0.0
H1466 H 0.85402 0.7489 0.40774 0.0
C1467 C 0.76903 0.8309 0.35986 0.0
C1468 C 0.84825 0.86366 0.38799 0.0
H1469 H 0.92246 0.83391 0.399 0.0
C1470 C 0.82501 0.85844 0.39962 0.0
C1471 C 0.88518 0.85682 0.38787 0.0
C1472 C 0.91103 0.86154 0.37559 0.0
C1473 C 0.83526 0.8427 0.41091 0.0
C1474 C 0.87003 0.83262 0.41049 0.0
C1475 C 0.89581 0.84169 0.3992 0.0
C1476 C 0.87458 0.80514 0.42065 0.0
C1477 C 0.80646 0.83333 0.42281 0.0
C1478 C 0.88709 0.82075 0.43339 0.0
C1479 C 0.88733 0.79239 0.44301 0.0
C1480 C 0.87519 0.74812 0.43998 0.0
C1481 C 0.86414 0.73326 0.4271 0.0
C1482 C 0.86384 0.76152 0.41754 0.0
H1483 H 0.77805 0.83898 0.42106 0.0
H1484 H 0.79314 0.79836 0.42603 0.0
H1485 H 0.82682 0.85545 0.43086 0.0
H1486 H 0.89599 0.85453 0.43591 0.0
H1487 H 0.89635 0.80496 0.45284 0.0
loop_
_geom_bond_atom_site_label_1
_geom_bond_atom_site_label_2
_geom_bond_distance
_geom_bond_site_symmetry_2
_ccdc_geom_bond_type
Co0 O3 1.970 . S
Co0 N17 1.989 . S
Co0 O25 1.967 . S
Co0 O32 1.920 . S
Co1 O4 1.966 . S
Co1 N10 2.022 . S
Co1 N18 1.993 . S
Co1 O26 1.941 . S
C2 O3 1.258 . S
C2 O4 1.263 . S
O3 Co0 1.970 . S
O3 C2 1.258 . S
O4 Co1 1.966 . S
O4 C2 1.263 . S
C5 O6 1.235 . S
C5 O32 1.289 . S
O6 C5 1.235 . S
C7 C9 1.400 . S
C7 N10 1.351 . S
C7 C12 1.501 . S
C8 C9 1.387 . S
C8 N11 1.341 . S
C9 C7 1.400 . S
C9 C8 1.387 . S
N10 Co1 2.022 . S
N10 C7 1.351 . S
N10 N11 1.365 . S
N11 C8 1.341 . S
N11 N10 1.365 . S
N11 H31 0.862 . S
C12 C7 1.501 . S
C12 H13 0.961 . S
C12 H14 0.961 . S
C12 H15 0.960 . S
H13 C12 0.961 . S
H14 C12 0.961 . S
H15 C12 0.960 . S
C16 N17 1.342 . S
C16 C20 1.401 . S
C16 C21 1.499 . S
N17 Co0 1.989 . S
N17 C16 1.342 . S
N17 N18 1.388 . S
N18 Co1 1.993 . S
N18 N17 1.388 . S
N18 C19 1.346 . S
C19 N18 1.346 . S
C19 C20 1.396 . S
C19 C29 1.510 . S
C20 C16 1.401 . S
C20 C19 1.396 . S
C21 C16 1.499 . S
C21 H22 0.959 . S
C21 H23 0.960 . S
C21 H24 0.961 . S
H22 C21 0.959 . S
H23 C21 0.960 . S
H24 C21 0.961 . S
O25 Co0 1.967 . S
O25 C33 1.258 . S
O26 Co1 1.941 . S
O26 C33 1.266 . S
H27 C29 0.959 . S
H28 C29 0.961 . S
C29 C19 1.510 . S
C29 H27 0.959 . S
C29 H28 0.961 . S
C29 H30 0.960 . S
H30 C29 0.960 . S
H31 N11 0.862 . S
O32 Co0 1.920 . S
O32 C5 1.289 . S
C33 O25 1.258 . S
C33 O26 1.266 . S
Co34 O37 1.970 . S
Co34 N51 1.989 . S
Co34 O59 1.967 . S
Co34 O66 1.920 . S
Co35 O38 1.966 . S
Co35 N44 2.022 . S
Co35 N52 1.993 . S
Co35 O60 1.941 . S
C36 O37 1.258 . S
C36 O38 1.263 . S
O37 Co34 1.970 . S
O37 C36 1.258 . S
O38 Co35 1.966 . S
O38 C36 1.263 . S
C39 O40 1.235 . S
C39 O66 1.289 . S
O40 C39 1.235 . S
C41 C43 1.400 . S
C41 N44 1.351 . S
C41 C46 1.501 . S
C42 C43 1.387 . S
C42 N45 1.341 . S
C43 C41 1.400 . S
C43 C42 1.387 . S
N44 Co35 2.022 . S
N44 C41 1.351 . S
N44 N45 1.365 . S
N45 C42 1.341 . S
N45 N44 1.365 . S
N45 H65 0.862 . S
C46 C41 1.501 . S
C46 H47 0.961 . S
C46 H48 0.961 . S
C46 H49 0.960 . S
H47 C46 0.961 . S
H48 C46 0.961 . S
H49 C46 0.960 . S
C50 N51 1.342 . S
C50 C54 1.401 . S
C50 C55 1.499 . S
N51 Co34 1.989 . S
N51 C50 1.342 . S
N51 N52 1.388 . S
N52 Co35 1.993 . S
N52 N51 1.388 . S
N52 C53 1.346 . S
C53 N52 1.346 . S
C53 C54 1.396 . S
C53 C63 1.510 . S
C54 C50 1.401 . S
C54 C53 1.396 . S
C55 C50 1.499 . S
C55 H56 0.959 . S
C55 H57 0.960 . S
C55 H58 0.961 . S
H56 C55 0.959 . S
H57 C55 0.960 . S
H58 C55 0.961 . S
O59 Co34 1.967 . S
O59 C67 1.258 . S
O60 Co35 1.941 . S
O60 C67 1.266 . S
H61 C63 0.959 . S
H62 C63 0.961 . S
C63 C53 1.510 . S
C63 H61 0.959 . S
C63 H62 0.961 . S
C63 H64 0.960 . S
H64 C63 0.960 . S
H65 N45 0.862 . S
O66 Co34 1.920 . S
O66 C39 1.289 . S
C67 O59 1.258 . S
C67 O60 1.266 . S
Co68 O71 1.970 . S
Co68 N85 1.989 . S
Co68 O93 1.967 . S
Co68 O100 1.920 . S
Co69 O72 1.966 . S
Co69 N78 2.022 . S
Co69 N86 1.993 . S
Co69 O94 1.941 . S
C70 O71 1.258 . S
C70 O72 1.263 . S
O71 Co68 1.970 . S
O71 C70 1.258 . S
O72 Co69 1.966 . S
O72 C70 1.263 . S
C73 O74 1.235 . S
C73 O100 1.289 . S
O74 C73 1.235 . S
C75 C77 1.400 . S
C75 N78 1.351 . S
C75 C80 1.501 . S
C76 C77 1.387 . S
C76 N79 1.341 . S
C77 C75 1.400 . S
C77 C76 1.387 . S
N78 Co69 2.022 . S
N78 C75 1.351 . S
N78 N79 1.365 . S
N79 C76 1.341 . S
N79 N78 1.365 . S
N79 H99 0.862 . S
C80 C75 1.501 . S
C80 H81 0.961 . S
C80 H82 0.961 . S
C80 H83 0.960 . S
H81 C80 0.961 . S
H82 C80 0.961 . S
H83 C80 0.960 . S
C84 N85 1.342 . S
C84 C88 1.401 . S
C84 C89 1.499 . S
N85 Co68 1.989 . S
N85 C84 1.342 . S
N85 N86 1.388 . S
N86 Co69 1.993 . S
N86 N85 1.388 . S
N86 C87 1.346 . S
C87 N86 1.346 . S
C87 C88 1.396 . S
C87 C97 1.510 . S
C88 C84 1.401 . S
C88 C87 1.396 . S
C89 C84 1.499 . S
C89 H90 0.959 . S
C89 H91 0.960 . S
C89 H92 0.961 . S
H90 C89 0.959 . S
H91 C89 0.960 . S
H92 C89 0.961 . S
O93 Co68 1.967 . S
O93 C101 1.258 . S
O94 Co69 1.941 . S
O94 C101 1.266 . S
H95 C97 0.959 . S
H96 C97 0.961 . S
C97 C87 1.510 . S
C97 H95 0.959 . S
C97 H96 0.961 . S
C97 H98 0.960 . S
H98 C97 0.960 . S
H99 N79 0.862 . S
O100 Co68 1.920 . S
O100 C73 1.289 . S
C101 O93 1.258 . S
C101 O94 1.266 . S
Co102 O105 1.970 . S
Co102 N119 1.989 . S
Co102 O127 1.967 . S
Co102 O134 1.920 . S
Co103 O106 1.966 . S
Co103 N112 2.022 . S
Co103 N120 1.993 . S
Co103 O128 1.941 . S
C104 O105 1.258 . S
C104 O106 1.263 . S
O105 Co102 1.970 . S
O105 C104 1.258 . S
O106 Co103 1.966 . S
O106 C104 1.263 . S
C107 O108 1.235 . S
C107 O134 1.289 . S
O108 C107 1.235 . S
C109 C111 1.400 . S
C109 N112 1.351 . S
C109 C114 1.501 . S
C110 C111 1.387 . S
C110 N113 1.341 . S
C111 C109 1.400 . S
C111 C110 1.387 . S
N112 Co103 2.022 . S
N112 C109 1.351 . S
N112 N113 1.365 . S
N113 C110 1.341 . S
N113 N112 1.365 . S
N113 H133 0.862 . S
C114 C109 1.501 . S
C114 H115 0.961 . S
C114 H116 0.961 . S
C114 H117 0.960 . S
H115 C114 0.961 . S
H116 C114 0.961 . S
H117 C114 0.960 . S
C118 N119 1.342 . S
C118 C122 1.401 . S
C118 C123 1.499 . S
N119 Co102 1.989 . S
N119 C118 1.342 . S
N119 N120 1.388 . S
N120 Co103 1.993 . S
N120 N119 1.388 . S
N120 C121 1.346 . S
C121 N120 1.346 . S
C121 C122 1.396 . S
C121 C131 1.510 . S
C122 C118 1.401 . S
C122 C121 1.396 . S
C123 C118 1.499 . S
C123 H124 0.959 . S
C123 H125 0.960 . S
C123 H126 0.961 . S
H124 C123 0.959 . S
H125 C123 0.960 . S
H126 C123 0.961 . S
O127 Co102 1.967 . S
O127 C135 1.258 . S
O128 Co103 1.941 . S
O128 C135 1.266 . S
H129 C131 0.959 . S
H130 C131 0.961 . S
C131 C121 1.510 . S
C131 H129 0.959 . S
C131 H130 0.961 . S
C131 H132 0.960 . S
H132 C131 0.960 . S
H133 N113 0.862 . S
O134 Co102 1.920 . S
O134 C107 1.289 . S
C135 O127 1.258 . S
C135 O128 1.266 . S
Co136 O139 1.970 . S
Co136 N153 1.989 . S
Co136 O161 1.967 . S
Co136 O168 1.920 . S
Co137 O140 1.966 . S
Co137 N146 2.022 1_554 S
Co137 N154 1.993 . S
Co137 O162 1.941 . S
C138 O139 1.258 . S
C138 O140 1.263 . S
O139 Co136 1.970 . S
O139 C138 1.258 . S
O140 Co137 1.966 . S
O140 C138 1.263 . S
C141 O142 1.235 . S
C141 O168 1.289 . S
O142 C141 1.235 . S
C143 C145 1.400 . S
C143 N146 1.351 . S
C143 C148 1.501 . S
C144 C145 1.387 . S
C144 N147 1.341 . S
C145 C143 1.400 . S
C145 C144 1.387 . S
N146 Co137 2.022 1_556 S
N146 C143 1.351 . S
N146 N147 1.365 . S
N147 C144 1.341 . S
N147 N146 1.365 . S
N147 H167 0.862 1_556 S
C148 C143 1.501 . S
C148 H149 0.961 . S
C148 H150 0.961 . S
C148 H151 0.960 . S
H149 C148 0.961 . S
H150 C148 0.961 . S
H151 C148 0.960 . S
C152 N153 1.342 . S
C152 C156 1.401 . S
C152 C157 1.499 . S
N153 Co136 1.989 . S
N153 C152 1.342 . S
N153 N154 1.388 . S
N154 Co137 1.993 . S
N154 N153 1.388 . S
N154 C155 1.346 . S
C155 N154 1.346 . S
C155 C156 1.396 . S
C155 C165 1.510 1_554 S
C156 C152 1.401 . S
C156 C155 1.396 . S
C157 C152 1.499 . S
C157 H158 0.959 . S
C157 H159 0.960 . S
C157 H160 0.961 . S
H158 C157 0.959 . S
H159 C157 0.960 . S
H160 C157 0.961 . S
O161 Co136 1.967 . S
O161 C169 1.258 . S
O162 Co137 1.941 . S
O162 C169 1.266 . S
H163 C165 0.959 . S
H164 C165 0.961 . S
C165 C155 1.510 1_556 S
C165 H163 0.959 . S
C165 H164 0.961 . S
C165 H166 0.960 . S
H166 C165 0.960 . S
H167 N147 0.862 1_554 S
O168 Co136 1.920 . S
O168 C141 1.289 . S
C169 O161 1.258 . S
C169 O162 1.266 . S
Co170 O173 1.970 . S
Co170 N187 1.989 . S
Co170 O195 1.967 . S
Co170 O202 1.920 . S
Co171 O174 1.966 . S
Co171 N180 2.022 . S
Co171 N188 1.993 . S
Co171 O196 1.941 . S
C172 O173 1.258 . S
C172 O174 1.263 . S
O173 Co170 1.970 . S
O173 C172 1.258 . S
O174 Co171 1.966 . S
O174 C172 1.263 . S
C175 O176 1.235 . S
C175 O202 1.289 . S
O176 C175 1.235 . S
C177 C179 1.400 . S
C177 N180 1.351 . S
C177 C182 1.501 . S
C178 C179 1.387 . S
C178 N181 1.341 . S
C179 C177 1.400 . S
C179 C178 1.387 . S
N180 Co171 2.022 . S
N180 C177 1.351 . S
N180 N181 1.365 . S
N181 C178 1.341 . S
N181 N180 1.365 . S
N181 H201 0.862 . S
C182 C177 1.501 . S
C182 H183 0.961 . S
C182 H184 0.961 . S
C182 H185 0.960 . S
H183 C182 0.961 . S
H184 C182 0.961 . S
H185 C182 0.960 . S
C186 N187 1.342 . S
C186 C190 1.401 . S
C186 C191 1.499 . S
N187 Co170 1.989 . S
N187 C186 1.342 . S
N187 N188 1.388 . S
N188 Co171 1.993 . S
N188 N187 1.388 . S
N188 C189 1.346 . S
C189 N188 1.346 . S
C189 C190 1.396 . S
C189 C199 1.510 . S
C190 C186 1.401 . S
C190 C189 1.396 . S
C191 C186 1.499 . S
C191 H192 0.959 . S
C191 H193 0.960 . S
C191 H194 0.961 . S
H192 C191 0.959 . S
H193 C191 0.960 . S
H194 C191 0.961 . S
O195 Co170 1.967 . S
O195 C203 1.258 . S
O196 Co171 1.941 . S
O196 C203 1.266 . S
H197 C199 0.959 . S
H198 C199 0.961 . S
C199 C189 1.510 . S
C199 H197 0.959 . S
C199 H198 0.961 . S
C199 H200 0.960 . S
H200 C199 0.960 . S
H201 N181 0.862 . S
O202 Co170 1.920 . S
O202 C175 1.289 . S
C203 O195 1.258 . S
C203 O196 1.266 . S
Co204 O207 1.970 . S
Co204 N221 1.989 . S
Co204 O229 1.967 . S
Co204 O236 1.920 . S
Co205 O208 1.966 . S
Co205 N214 2.022 . S
Co205 N222 1.993 . S
Co205 O230 1.941 . S
C206 O207 1.258 . S
C206 O208 1.263 . S
O207 Co204 1.970 . S
O207 C206 1.258 . S
O208 Co205 1.966 . S
O208 C206 1.263 . S
C209 O210 1.235 . S
C209 O236 1.289 . S
O210 C209 1.235 . S
C211 C213 1.400 . S
C211 N214 1.351 . S
C211 C216 1.501 . S
C212 C213 1.387 . S
C212 N215 1.341 . S
C213 C211 1.400 . S
C213 C212 1.387 . S
N214 Co205 2.022 . S
N214 C211 1.351 . S
N214 N215 1.365 . S
N215 C212 1.341 . S
N215 N214 1.365 . S
N215 H235 0.862 . S
C216 C211 1.501 . S
C216 H217 0.961 . S
C216 H218 0.961 . S
C216 H219 0.960 . S
H217 C216 0.961 . S
H218 C216 0.961 . S
H219 C216 0.960 . S
C220 N221 1.342 . S
C220 C224 1.401 . S
C220 C225 1.499 . S
N221 Co204 1.989 . S
N221 C220 1.342 . S
N221 N222 1.388 . S
N222 Co205 1.993 . S
N222 N221 1.388 . S
N222 C223 1.346 . S
C223 N222 1.346 . S
C223 C224 1.396 . S
C223 C233 1.510 . S
C224 C220 1.401 . S
C224 C223 1.396 . S
C225 C220 1.499 . S
C225 H226 0.959 . S
C225 H227 0.960 . S
C225 H228 0.961 . S
H226 C225 0.959 . S
H227 C225 0.960 . S
H228 C225 0.961 . S
O229 Co204 1.967 . S
O229 C237 1.258 . S
O230 Co205 1.941 . S
O230 C237 1.266 . S
H231 C233 0.959 . S
H232 C233 0.961 . S
C233 C223 1.510 . S
C233 H231 0.959 . S
C233 H232 0.961 . S
C233 H234 0.960 . S
H234 C233 0.960 . S
H235 N215 0.862 . S
O236 Co204 1.920 . S
O236 C209 1.289 . S
C237 O229 1.258 . S
C237 O230 1.266 . S
Co238 O241 1.970 . S
Co238 N255 1.989 . S
Co238 O263 1.967 . S
Co238 O270 1.920 . S
Co239 O242 1.966 . S
Co239 N248 2.022 . S
Co239 N256 1.993 . S
Co239 O264 1.941 . S
C240 O241 1.258 . S
C240 O242 1.263 . S
O241 Co238 1.970 . S
O241 C240 1.258 . S
O242 Co239 1.966 . S
O242 C240 1.263 . S
C243 O244 1.235 . S
C243 O270 1.289 . S
O244 C243 1.235 . S
C245 C247 1.400 . S
C245 N248 1.351 . S
C245 C250 1.501 . S
C246 C247 1.387 . S
C246 N249 1.341 . S
C247 C245 1.400 . S
C247 C246 1.387 . S
N248 Co239 2.022 . S
N248 C245 1.351 . S
N248 N249 1.365 . S
N249 C246 1.341 . S
N249 N248 1.365 . S
N249 H269 0.862 . S
C250 C245 1.501 . S
C250 H251 0.961 . S
C250 H252 0.961 . S
C250 H253 0.960 . S
H251 C250 0.961 . S
H252 C250 0.961 . S
H253 C250 0.960 . S
C254 N255 1.342 . S
C254 C258 1.401 . S
C254 C259 1.499 . S
N255 Co238 1.989 . S
N255 C254 1.342 . S
N255 N256 1.388 . S
N256 Co239 1.993 . S
N256 N255 1.388 . S
N256 C257 1.346 . S
C257 N256 1.346 . S
C257 C258 1.396 . S
C257 C267 1.510 . S
C258 C254 1.401 . S
C258 C257 1.396 . S
C259 C254 1.499 . S
C259 H260 0.959 . S
C259 H261 0.960 . S
C259 H262 0.961 . S
H260 C259 0.959 . S
H261 C259 0.960 . S
H262 C259 0.961 . S
O263 Co238 1.967 . S
O263 C271 1.258 . S
O264 Co239 1.941 . S
O264 C271 1.266 . S
H265 C267 0.959 . S
H266 C267 0.961 . S
C267 C257 1.510 . S
C267 H265 0.959 . S
C267 H266 0.961 . S
C267 H268 0.960 . S
H268 C267 0.960 . S
H269 N249 0.862 . S
O270 Co238 1.920 . S
O270 C243 1.289 . S
C271 O263 1.258 . S
C271 O264 1.266 . S
Co272 O275 1.970 . S
Co272 N289 1.989 . S
Co272 O297 1.967 . S
Co272 O304 1.920 . S
Co273 O276 1.966 . S
Co273 N282 2.022 . S
Co273 N290 1.993 . S
Co273 O298 1.941 . S
C274 O275 1.258 . S
C274 O276 1.263 . S
O275 Co272 1.970 . S
O275 C274 1.258 . S
O276 Co273 1.966 . S
O276 C274 1.263 . S
C277 O278 1.235 . S
C277 O304 1.289 . S
O278 C277 1.235 . S
C279 C281 1.400 . S
C279 N282 1.351 . S
C279 C284 1.501 . S
C280 C281 1.387 . S
C280 N283 1.341 . S
C281 C279 1.400 . S
C281 C280 1.387 . S
N282 Co273 2.022 . S
N282 C279 1.351 . S
N282 N283 1.365 . S
N283 C280 1.341 . S
N283 N282 1.365 . S
N283 H303 0.862 . S
C284 C279 1.501 . S
C284 H285 0.961 . S
C284 H286 0.961 . S
C284 H287 0.960 . S
H285 C284 0.961 . S
H286 C284 0.961 . S
H287 C284 0.960 . S
C288 N289 1.342 . S
C288 C292 1.401 . S
C288 C293 1.499 . S
N289 Co272 1.989 . S
N289 C288 1.342 . S
N289 N290 1.388 . S
N290 Co273 1.993 . S
N290 N289 1.388 . S
N290 C291 1.346 . S
C291 N290 1.346 . S
C291 C292 1.396 . S
C291 C301 1.510 . S
C292 C288 1.401 . S
C292 C291 1.396 . S
C293 C288 1.499 . S
C293 H294 0.959 . S
C293 H295 0.960 . S
C293 H296 0.961 . S
H294 C293 0.959 . S
H295 C293 0.960 . S
H296 C293 0.961 . S
O297 Co272 1.967 . S
O297 C305 1.258 . S
O298 Co273 1.941 . S
O298 C305 1.266 . S
H299 C301 0.959 . S
H300 C301 0.961 . S
C301 C291 1.510 . S
C301 H299 0.959 . S
C301 H300 0.961 . S
C301 H302 0.960 . S
H302 C301 0.960 . S
H303 N283 0.862 . S
O304 Co272 1.920 . S
O304 C277 1.289 . S
C305 O297 1.258 . S
C305 O298 1.266 . S
Co306 O309 1.970 . S
Co306 N323 1.989 . S
Co306 O331 1.967 . S
Co306 O338 1.920 . S
Co307 O310 1.966 . S
Co307 N316 1.965 1_556 S
Co307 N324 1.993 . S
Co307 O332 1.941 . S
C308 O309 1.258 . S
C308 O310 1.263 . S
O309 Co306 1.970 . S
O309 C308 1.258 . S
O310 Co307 1.966 . S
O310 C308 1.263 . S
C311 O312 1.235 . S
C311 O338 1.289 . S
O312 C311 1.235 . S
C313 C315 1.400 . S
C313 N316 1.429 . S
C313 C318 1.501 . S
C314 C315 1.387 . S
C314 N317 1.307 1_554 S
C315 C313 1.400 . S
C315 C314 1.387 . S
N316 Co307 1.965 1_554 S
N316 C313 1.429 . S
N316 N317 1.359 1_554 S
N317 C314 1.307 1_556 S
N317 N316 1.359 1_556 S
N317 H337 0.895 . S
C318 C313 1.501 . S
C318 H319 0.961 . S
C318 H320 0.961 . S
C318 H321 0.960 . S
H319 C318 0.961 . S
H320 C318 0.961 . S
H321 C318 0.960 . S
C322 N323 1.342 . S
C322 C326 1.401 . S
C322 C327 1.499 . S
N323 Co306 1.989 . S
N323 C322 1.342 . S
N323 N324 1.388 . S
N324 Co307 1.993 . S
N324 N323 1.388 . S
N324 C325 1.346 . S
C325 N324 1.346 . S
C325 C326 1.396 . S
C325 C335 1.510 . S
C326 C322 1.401 . S
C326 C325 1.396 . S
C327 C322 1.499 . S
C327 H328 0.959 . S
C327 H329 0.960 . S
C327 H330 0.961 . S
H328 C327 0.959 . S
H329 C327 0.960 . S
H330 C327 0.961 . S
O331 Co306 1.967 . S
O331 C339 1.258 . S
O332 Co307 1.941 . S
O332 C339 1.266 . S
H333 C335 0.959 . S
H334 C335 0.961 1_554 S
C335 C325 1.510 . S
C335 H333 0.959 . S
C335 H334 0.961 1_556 S
C335 H336 0.960 1_556 S
H336 C335 0.960 1_554 S
H337 N317 0.895 . S
O338 Co306 1.920 . S
O338 C311 1.289 . S
C339 O331 1.258 . S
C339 O332 1.266 . S
Co340 O343 1.970 . S
Co340 N357 1.989 . S
Co340 O365 1.967 . S
Co340 O372 1.920 . S
Co341 O344 1.966 . S
Co341 N350 2.022 . S
Co341 N358 1.993 . S
Co341 O366 1.941 . S
C342 O343 1.258 . S
C342 O344 1.263 . S
O343 Co340 1.970 . S
O343 C342 1.258 . S
O344 Co341 1.966 . S
O344 C342 1.263 . S
C345 O346 1.235 . S
C345 O372 1.289 . S
O346 C345 1.235 . S
C347 C349 1.400 . S
C347 N350 1.351 . S
C347 C352 1.501 . S
C348 C349 1.387 . S
C348 N351 1.341 . S
C349 C347 1.400 . S
C349 C348 1.387 . S
N350 Co341 2.022 . S
N350 C347 1.351 . S
N350 N351 1.365 . S
N351 C348 1.341 . S
N351 N350 1.365 . S
N351 H371 0.862 . S
C352 C347 1.501 . S
C352 H353 0.961 . S
C352 H354 0.961 . S
C352 H355 0.960 . S
H353 C352 0.961 . S
H354 C352 0.961 . S
H355 C352 0.960 . S
C356 N357 1.342 . S
C356 C360 1.401 . S
C356 C361 1.499 . S
N357 Co340 1.989 . S
N357 C356 1.342 . S
N357 N358 1.388 . S
N358 Co341 1.993 . S
N358 N357 1.388 . S
N358 C359 1.346 . S
C359 N358 1.346 . S
C359 C360 1.396 . S
C359 C369 1.510 . S
C360 C356 1.401 . S
C360 C359 1.396 . S
C361 C356 1.499 . S
C361 H362 0.959 . S
C361 H363 0.960 . S
C361 H364 0.961 . S
H362 C361 0.959 . S
H363 C361 0.960 . S
H364 C361 0.961 . S
O365 Co340 1.967 . S
O365 C373 1.258 . S
O366 Co341 1.941 . S
O366 C373 1.266 . S
H367 C369 0.959 . S
H368 C369 0.961 . S
C369 C359 1.510 . S
C369 H367 0.959 . S
C369 H368 0.961 . S
C369 H370 0.960 . S
H370 C369 0.960 . S
H371 N351 0.862 . S
O372 Co340 1.920 . S
O372 C345 1.289 . S
C373 O365 1.258 . S
C373 O366 1.266 . S
Co374 O377 1.970 . S
Co374 N391 1.989 . S
Co374 O399 1.967 . S
Co374 O406 1.920 . S
Co375 O378 1.966 . S
Co375 N384 2.022 . S
Co375 N392 1.993 . S
Co375 O400 1.941 . S
C376 O377 1.258 . S
C376 O378 1.263 . S
O377 Co374 1.970 . S
O377 C376 1.258 . S
O378 Co375 1.966 . S
O378 C376 1.263 . S
C379 O380 1.235 . S
C379 O406 1.289 . S
O380 C379 1.235 . S
C381 C383 1.400 . S
C381 N384 1.351 . S
C381 C386 1.501 . S
C382 C383 1.387 . S
C382 N385 1.341 . S
C383 C381 1.400 . S
C383 C382 1.387 . S
N384 Co375 2.022 . S
N384 C381 1.351 . S
N384 N385 1.365 . S
N385 C382 1.341 . S
N385 N384 1.365 . S
N385 H405 0.862 . S
C386 C381 1.501 . S
C386 H387 0.961 . S
C386 H388 0.961 . S
C386 H389 0.960 . S
H387 C386 0.961 . S
H388 C386 0.961 . S
H389 C386 0.960 . S
C390 N391 1.342 . S
C390 C394 1.401 . S
C390 C395 1.499 . S
N391 Co374 1.989 . S
N391 C390 1.342 . S
N391 N392 1.388 . S
N392 Co375 1.993 . S
N392 N391 1.388 . S
N392 C393 1.346 . S
C393 N392 1.346 . S
C393 C394 1.396 . S
C393 C403 1.510 . S
C394 C390 1.401 . S
C394 C393 1.396 . S
C395 C390 1.499 . S
C395 H396 0.959 . S
C395 H397 0.960 . S
C395 H398 0.961 . S
H396 C395 0.959 . S
H397 C395 0.960 . S
H398 C395 0.961 . S
O399 Co374 1.967 . S
O399 C407 1.258 . S
O400 Co375 1.941 . S
O400 C407 1.266 . S
H401 C403 0.959 . S
H402 C403 0.961 . S
C403 C393 1.510 . S
C403 H401 0.959 . S
C403 H402 0.961 . S
C403 H404 0.960 . S
H404 C403 0.960 . S
H405 N385 0.862 . S
O406 Co374 1.920 . S
O406 C379 1.289 . S
C407 O399 1.258 . S
C407 O400 1.266 . S
H408 C416 0.929 . S
H409 C418 0.930 1_565 S
H410 C420 0.930 . S
H411 C423 0.929 . S
H412 C426 0.930 . S
H413 C428 0.960 . S
H414 C428 0.960 . S
H415 C428 0.960 . S
C416 H408 0.929 . S
C416 C417 1.377 . S
C416 C418 1.384 . S
C417 C416 1.377 . S
C417 C423 1.390 . S
C418 H409 0.930 1_545 S
C418 C416 1.384 . S
C418 C419 1.372 . S
C419 C418 1.372 . S
C419 C420 1.400 . S
C419 C424 1.490 . S
C420 H410 0.930 . S
C420 C419 1.400 . S
C420 C423 1.386 . S
H421 C437 0.930 . S
H422 C438 0.931 1_545 S
C423 H411 0.929 . S
C423 C417 1.390 . S
C423 C420 1.386 . S
C424 C419 1.490 . S
C424 C426 1.395 1_545 S
C424 C427 1.403 . S
H425 C431 0.927 . S
C426 H412 0.930 . S
C426 C424 1.395 1_565 S
C426 C429 1.403 . S
C427 C424 1.403 . S
C427 C428 1.524 . S
C427 C431 1.411 . S
C428 H413 0.960 . S
C428 H414 0.960 . S
C428 H415 0.960 . S
C428 C427 1.524 . S
C429 C426 1.403 . S
C429 C430 1.392 . S
C429 C433 1.495 . S
C430 C429 1.392 . S
C430 C431 1.377 1_565 S
C430 C432 1.478 . S
C431 H425 0.927 . S
C431 C427 1.411 . S
C431 C430 1.377 1_545 S
C432 C430 1.478 . S
C432 C434 1.381 . S
C432 C438 1.383 . S
C433 C429 1.495 . S
C433 H439 0.959 . S
C433 H440 0.961 . S
C433 H441 0.960 . S
C434 C432 1.381 . S
C434 C435 1.394 . S
C434 H442 0.930 . S
C435 C434 1.394 . S
C435 C436 1.383 . S
C435 H443 0.929 . S
C436 C435 1.383 . S
C436 C437 1.377 . S
C437 H421 0.930 . S
C437 C436 1.377 . S
C437 C438 1.379 . S
C438 H422 0.931 1_565 S
C438 C432 1.383 . S
C438 C437 1.379 . S
H439 C433 0.959 . S
H440 C433 0.961 . S
H441 C433 0.960 . S
H442 C434 0.930 . S
H443 C435 0.929 . S
H444 C452 0.929 . S
H445 C454 0.930 . S
H446 C456 0.930 . S
H447 C459 0.929 . S
H448 C462 0.930 . S
H449 C464 0.960 . S
H450 C464 0.960 . S
H451 C464 0.960 . S
C452 H444 0.929 . S
C452 C453 1.377 . S
C452 C454 1.384 . S
C453 C452 1.377 . S
C453 C459 1.390 . S
C454 H445 0.930 . S
C454 C452 1.384 . S
C454 C455 1.372 . S
C455 C454 1.372 . S
C455 C456 1.400 . S
C455 C460 1.490 . S
C456 H446 0.930 . S
C456 C455 1.400 . S
C456 C459 1.386 . S
H457 C473 0.930 . S
H458 C474 0.931 . S
C459 H447 0.929 . S
C459 C453 1.390 . S
C459 C456 1.386 . S
C460 C455 1.490 . S
C460 C462 1.395 . S
C460 C463 1.403 . S
H461 C467 0.930 . S
C462 H448 0.930 . S
C462 C460 1.395 . S
C462 C465 1.403 . S
C463 C460 1.403 . S
C463 C464 1.524 . S
C463 C467 1.400 . S
C464 H449 0.960 . S
C464 H450 0.960 . S
C464 H451 0.960 . S
C464 C463 1.524 . S
C465 C462 1.403 . S
C465 C466 1.392 . S
C465 C469 1.495 . S
C466 C465 1.392 . S
C466 C467 1.385 . S
C466 C468 1.478 . S
C467 H461 0.930 . S
C467 C463 1.400 . S
C467 C466 1.385 . S
C468 C466 1.478 . S
C468 C470 1.381 . S
C468 C474 1.383 . S
C469 C465 1.495 . S
C469 H475 0.959 . S
C469 H476 0.961 . S
C469 H477 0.960 . S
C470 C468 1.381 . S
C470 C471 1.394 . S
C470 H478 0.930 . S
C471 C470 1.394 . S
C471 C472 1.383 . S
C471 H479 0.929 . S
C472 C471 1.383 . S
C472 C473 1.377 . S
C473 H457 0.930 . S
C473 C472 1.377 . S
C473 C474 1.379 . S
C474 H458 0.931 . S
C474 C468 1.383 . S
C474 C473 1.379 . S
H475 C469 0.959 . S
H476 C469 0.961 . S
H477 C469 0.960 . S
H478 C470 0.930 . S
H479 C471 0.929 . S
H480 C488 0.929 . S
H481 C490 0.930 . S
H482 C492 0.930 . S
H483 C495 0.929 . S
H484 C498 0.930 . S
H485 C500 0.960 1_655 S
H486 C500 0.960 . S
H487 C500 0.960 1_655 S
C488 H480 0.929 . S
C488 C489 1.377 . S
C488 C490 1.384 . S
C489 C488 1.377 . S
C489 C495 1.390 . S
C490 H481 0.930 . S
C490 C488 1.384 . S
C490 C491 1.372 . S
C491 C490 1.372 . S
C491 C492 1.400 . S
C491 C496 1.490 . S
C492 H482 0.930 . S
C492 C491 1.400 . S
C492 C495 1.386 . S
H493 C509 0.930 . S
H494 C510 0.931 . S
C495 H483 0.929 . S
C495 C489 1.390 . S
C495 C492 1.386 . S
C496 C491 1.490 . S
C496 C498 1.395 . S
C496 C499 1.403 . S
H497 C503 0.930 . S
C498 H484 0.930 . S
C498 C496 1.395 . S
C498 C501 1.403 . S
C499 C496 1.403 . S
C499 C500 1.524 . S
C499 C503 1.400 1_455 S
C500 H485 0.960 1_455 S
C500 H486 0.960 . S
C500 H487 0.960 1_455 S
C500 C499 1.524 . S
C501 C498 1.403 . S
C501 C502 1.392 . S
C501 C505 1.495 . S
C502 C501 1.392 . S
C502 C503 1.385 1_455 S
C502 C504 1.478 1_455 S
C503 H497 0.930 . S
C503 C499 1.400 1_655 S
C503 C502 1.385 1_655 S
C504 C502 1.478 1_655 S
C504 C506 1.381 1_655 S
C504 C510 1.383 . S
C505 C501 1.495 . S
C505 H511 0.959 . S
C505 H512 0.961 . S
C505 H513 0.960 . S
C506 C504 1.381 1_455 S
C506 C507 1.394 1_455 S
C506 H514 0.930 . S
C507 C506 1.394 1_655 S
C507 C508 1.383 . S
C507 H515 0.929 1_655 S
C508 C507 1.383 . S
C508 C509 1.377 . S
C509 H493 0.930 . S
C509 C508 1.377 . S
C509 C510 1.379 . S
C510 H494 0.931 . S
C510 C504 1.383 . S
C510 C509 1.379 . S
H511 C505 0.959 . S
H512 C505 0.961 . S
H513 C505 0.960 . S
H514 C506 0.930 . S
H515 C507 0.929 1_455 S
H516 C524 0.929 . S
H517 C526 0.930 . S
H518 C528 0.930 . S
H519 C531 0.929 . S
H520 C534 0.930 . S
H521 C536 0.960 . S
H522 C536 0.960 . S
H523 C536 0.960 1_545 S
C524 H516 0.929 . S
C524 C525 1.377 . S
C524 C526 1.384 . S
C525 C524 1.377 . S
C525 C531 1.390 . S
C526 H517 0.930 . S
C526 C524 1.384 . S
C526 C527 1.372 . S
C527 C526 1.372 . S
C527 C528 1.400 . S
C527 C532 1.490 . S
C528 H518 0.930 . S
C528 C527 1.400 . S
C528 C531 1.386 . S
H529 C545 0.930 . S
H530 C546 0.931 1_545 S
C531 H519 0.929 . S
C531 C525 1.390 . S
C531 C528 1.386 . S
C532 C527 1.490 . S
C532 C534 1.395 . S
C532 C535 1.403 . S
H533 C539 0.930 . S
C534 H520 0.930 . S
C534 C532 1.395 . S
C534 C537 1.403 . S
C535 C532 1.403 . S
C535 C536 1.524 1_545 S
C535 C539 1.400 1_545 S
C536 H521 0.960 . S
C536 H522 0.960 . S
C536 H523 0.960 1_565 S
C536 C535 1.524 1_565 S
C537 C534 1.403 . S
C537 C538 1.392 . S
C537 C541 1.495 . S
C538 C537 1.392 . S
C538 C539 1.385 1_545 S
C538 C540 1.478 1_545 S
C539 H533 0.930 . S
C539 C535 1.400 1_565 S
C539 C538 1.385 1_565 S
C540 C538 1.478 1_565 S
C540 C542 1.381 . S
C540 C546 1.383 . S
C541 C537 1.495 . S
C541 H547 0.959 . S
C541 H548 0.961 . S
C541 H549 0.960 . S
C542 C540 1.381 . S
C542 C543 1.394 . S
C542 H550 0.930 . S
C543 C542 1.394 . S
C543 C544 1.383 . S
C543 H551 0.929 . S
C544 C543 1.383 . S
C544 C545 1.377 . S
C545 H529 0.930 . S
C545 C544 1.377 . S
C545 C546 1.379 . S
C546 H530 0.931 1_565 S
C546 C540 1.383 . S
C546 C545 1.379 . S
H547 C541 0.959 . S
H548 C541 0.961 . S
H549 C541 0.960 . S
H550 C542 0.930 . S
H551 C543 0.929 . S
H552 C560 0.929 . S
H553 C562 0.930 . S
H554 C564 0.930 . S
H555 C567 0.868 1_556 S
H556 C570 0.930 . S
H557 C572 0.960 . S
H558 C572 0.960 1_554 S
H559 C572 0.960 . S
C560 H552 0.929 . S
C560 C561 1.377 . S
C560 C562 1.384 . S
C561 C560 1.377 . S
C561 C567 1.466 . S
C562 H553 0.930 . S
C562 C560 1.384 . S
C562 C563 1.372 . S
C563 C562 1.372 . S
C563 C564 1.400 1_554 S
C563 C568 1.490 . S
C564 H554 0.930 . S
C564 C563 1.400 1_556 S
C564 C567 1.374 1_556 S
H565 C581 0.930 . S
H566 C582 0.931 . S
C567 H555 0.868 1_554 S
C567 C561 1.466 . S
C567 C564 1.374 1_554 S
C568 C563 1.490 . S
C568 C570 1.395 . S
C568 C571 1.376 1_554 S
H569 C575 0.930 . S
C570 H556 0.930 . S
C570 C568 1.395 . S
C570 C573 1.403 . S
C571 C568 1.376 1_556 S
C571 C572 1.542 . S
C571 C575 1.409 . S
C572 H557 0.960 . S
C572 H558 0.960 1_556 S
C572 H559 0.960 . S
C572 C571 1.542 . S
C573 C570 1.403 . S
C573 C574 1.392 . S
C573 C577 1.495 . S
C574 C573 1.392 . S
C574 C575 1.385 1_554 S
C574 C576 1.478 1_554 S
C575 H569 0.930 . S
C575 C571 1.409 . S
C575 C574 1.385 1_556 S
C576 C574 1.478 1_556 S
C576 C578 1.381 1_556 S
C576 C582 1.383 . S
C577 C573 1.495 . S
C577 H583 0.959 . S
C577 H584 0.961 . S
C577 H585 0.960 . S
C578 C576 1.381 1_554 S
C578 C579 1.394 . S
C578 H586 0.930 . S
C579 C578 1.394 . S
C579 C580 1.383 1_554 S
C579 H587 0.929 . S
C580 C579 1.383 1_556 S
C580 C581 1.377 . S
C581 H565 0.930 . S
C581 C580 1.377 . S
C581 C582 1.379 . S
C582 H566 0.931 . S
C582 C576 1.383 . S
C582 C581 1.379 . S
H583 C577 0.959 . S
H584 C577 0.961 . S
H585 C577 0.960 . S
H586 C578 0.930 . S
H587 C579 0.929 . S
H588 C596 0.929 . S
H589 C598 0.930 . S
H590 C600 0.930 . S
H591 C603 0.929 . S
H592 C606 0.930 . S
H593 C608 0.960 . S
H594 C608 0.960 . S
H595 C608 0.960 . S
C596 H588 0.929 . S
C596 C597 1.377 . S
C596 C598 1.384 . S
C597 C596 1.377 . S
C597 C603 1.390 . S
C598 H589 0.930 . S
C598 C596 1.384 . S
C598 C599 1.372 . S
C599 C598 1.372 . S
C599 C600 1.400 . S
C599 C604 1.490 . S
C600 H590 0.930 . S
C600 C599 1.400 . S
C600 C603 1.386 . S
H601 C617 0.930 . S
H602 C618 0.931 . S
C603 H591 0.929 . S
C603 C597 1.390 . S
C603 C600 1.386 . S
C604 C599 1.490 . S
C604 C606 1.395 . S
C604 C607 1.403 1_455 S
H605 C611 0.930 . S
C606 H592 0.930 . S
C606 C604 1.395 . S
C606 C609 1.403 . S
C607 C604 1.403 1_655 S
C607 C608 1.524 . S
C607 C611 1.400 . S
C608 H593 0.960 . S
C608 H594 0.960 . S
C608 H595 0.960 . S
C608 C607 1.524 . S
C609 C606 1.403 . S
C609 C610 1.392 1_455 S
C609 C613 1.495 . S
C610 C609 1.392 1_655 S
C610 C611 1.385 . S
C610 C612 1.478 . S
C611 H605 0.930 . S
C611 C607 1.400 . S
C611 C610 1.385 . S
C612 C610 1.478 . S
C612 C614 1.381 . S
C612 C618 1.383 . S
C613 C609 1.495 . S
C613 H619 0.959 . S
C613 H620 0.961 . S
C613 H621 0.960 1_455 S
C614 C612 1.381 . S
C614 C615 1.394 . S
C614 H622 0.930 . S
C615 C614 1.394 . S
C615 C616 1.383 . S
C615 H623 0.929 . S
C616 C615 1.383 . S
C616 C617 1.377 . S
C617 H601 0.930 . S
C617 C616 1.377 . S
C617 C618 1.379 . S
C618 H602 0.931 . S
C618 C612 1.383 . S
C618 C617 1.379 . S
H619 C613 0.959 . S
H620 C613 0.961 . S
H621 C613 0.960 1_655 S
H622 C614 0.930 . S
H623 C615 0.929 . S
H624 C632 0.929 . S
H625 C634 0.930 . S
H626 C636 0.930 . S
H627 C639 0.929 . S
H628 C642 0.930 1_655 S
H629 C644 0.960 . S
H630 C644 0.960 . S
H631 C644 0.960 . S
C632 H624 0.929 . S
C632 C633 1.377 . S
C632 C634 1.384 . S
C633 C632 1.377 . S
C633 C639 1.390 . S
C634 H625 0.930 . S
C634 C632 1.384 . S
C634 C635 1.372 . S
C635 C634 1.372 . S
C635 C636 1.400 . S
C635 C640 1.490 . S
C636 H626 0.930 . S
C636 C635 1.400 . S
C636 C639 1.386 . S
H637 C653 0.930 . S
H638 C654 0.931 . S
C639 H627 0.929 . S
C639 C633 1.390 . S
C639 C636 1.386 . S
C640 C635 1.490 . S
C640 C642 1.395 . S
C640 C643 1.403 . S
H641 C647 0.930 . S
C642 H628 0.930 1_455 S
C642 C640 1.395 . S
C642 C645 1.403 1_455 S
C643 C640 1.403 . S
C643 C644 1.524 . S
C643 C647 1.400 . S
C644 H629 0.960 . S
C644 H630 0.960 . S
C644 H631 0.960 . S
C644 C643 1.524 . S
C645 C642 1.403 1_655 S
C645 C646 1.392 . S
C645 C649 1.495 . S
C646 C645 1.392 . S
C646 C647 1.385 1_655 S
C646 C648 1.478 . S
C647 H641 0.930 . S
C647 C643 1.400 . S
C647 C646 1.385 1_455 S
C648 C646 1.478 . S
C648 C650 1.381 . S
C648 C654 1.383 . S
C649 C645 1.495 . S
C649 H655 0.959 . S
C649 H656 0.961 . S
C649 H657 0.960 . S
C650 C648 1.381 . S
C650 C651 1.394 . S
C650 H658 0.930 . S
C651 C650 1.394 . S
C651 C652 1.383 . S
C651 H659 0.929 . S
C652 C651 1.383 . S
C652 C653 1.377 . S
C653 H637 0.930 . S
C653 C652 1.377 . S
C653 C654 1.379 . S
C654 H638 0.931 . S
C654 C648 1.383 . S
C654 C653 1.379 . S
H655 C649 0.959 . S
H656 C649 0.961 . S
H657 C649 0.960 . S
H658 C650 0.930 . S
H659 C651 0.929 . S
H660 C668 0.929 . S
H661 C670 0.930 . S
H662 C672 0.930 1_545 S
H663 C675 0.929 . S
H664 C678 0.930 . S
H665 C680 0.960 . S
H666 C680 0.960 . S
H667 C680 0.960 . S
C668 H660 0.929 . S
C668 C669 1.377 . S
C668 C670 1.384 . S
C669 C668 1.377 . S
C669 C675 1.390 . S
C670 H661 0.930 . S
C670 C668 1.384 . S
C670 C671 1.372 . S
C671 C670 1.372 . S
C671 C672 1.400 . S
C671 C676 1.490 1_565 S
C672 H662 0.930 1_565 S
C672 C671 1.400 . S
C672 C675 1.386 . S
H673 C689 0.930 . S
H674 C690 0.931 . S
C675 H663 0.929 . S
C675 C669 1.390 . S
C675 C672 1.386 . S
C676 C671 1.490 1_545 S
C676 C678 1.395 . S
C676 C679 1.411 . S
H677 C683 0.930 . S
C678 H664 0.930 . S
C678 C676 1.395 . S
C678 C681 1.403 . S
C679 C676 1.411 . S
C679 C680 1.515 1_545 S
C679 C683 1.400 . S
C680 H665 0.960 . S
C680 H666 0.960 . S
C680 H667 0.960 . S
C680 C679 1.515 1_565 S
C681 C678 1.403 . S
C681 C682 1.392 . S
C681 C685 1.495 . S
C682 C681 1.392 . S
C682 C683 1.385 . S
C682 C684 1.478 . S
C683 H677 0.930 . S
C683 C679 1.400 . S
C683 C682 1.385 . S
C684 C682 1.478 . S
C684 C686 1.381 . S
C684 C690 1.383 . S
C685 C681 1.495 . S
C685 H691 0.959 . S
C685 H692 0.961 . S
C685 H693 0.960 . S
C686 C684 1.381 . S
C686 C687 1.394 . S
C686 H694 0.930 . S
C687 C686 1.394 . S
C687 C688 1.383 . S
C687 H695 0.929 . S
C688 C687 1.383 . S
C688 C689 1.377 . S
C689 H673 0.930 . S
C689 C688 1.377 . S
C689 C690 1.379 . S
C690 H674 0.931 . S
C690 C684 1.383 . S
C690 C689 1.379 . S
H691 C685 0.959 . S
H692 C685 0.961 . S
H693 C685 0.960 . S
H694 C686 0.930 . S
H695 C687 0.929 . S
H696 C704 0.929 . S
H697 C706 0.930 . S
H698 C708 0.930 . S
H699 C711 0.929 . S
H700 C714 0.930 . S
H701 C716 0.960 . S
H702 C716 0.960 . S
H703 C716 0.960 . S
C704 H696 0.929 . S
C704 C705 1.377 . S
C704 C706 1.384 . S
C705 C704 1.377 . S
C705 C711 1.390 . S
C706 H697 0.930 . S
C706 C704 1.384 . S
C706 C707 1.372 . S
C707 C706 1.372 . S
C707 C708 1.400 . S
C707 C712 1.490 . S
C708 H698 0.930 . S
C708 C707 1.400 . S
C708 C711 1.386 . S
H709 C725 0.930 . S
H710 C726 0.931 . S
C711 H699 0.929 . S
C711 C705 1.390 . S
C711 C708 1.386 . S
C712 C707 1.490 . S
C712 C714 1.395 . S
C712 C715 1.403 . S
H713 C719 0.930 . S
C714 H700 0.930 . S
C714 C712 1.395 . S
C714 C717 1.403 . S
C715 C712 1.403 . S
C715 C716 1.524 . S
C715 C719 1.400 . S
C716 H701 0.960 . S
C716 H702 0.960 . S
C716 H703 0.960 . S
C716 C715 1.524 . S
C717 C714 1.403 . S
C717 C718 1.392 . S
C717 C721 1.495 . S
C718 C717 1.392 . S
C718 C719 1.385 . S
C718 C720 1.478 . S
C719 H713 0.930 . S
C719 C715 1.400 . S
C719 C718 1.385 . S
C720 C718 1.478 . S
C720 C722 1.381 . S
C720 C726 1.383 . S
C721 C717 1.495 . S
C721 H727 0.959 . S
C721 H728 0.961 . S
C721 H729 0.960 . S
C722 C720 1.381 . S
C722 C723 1.394 . S
C722 H730 0.930 . S
C723 C722 1.394 . S
C723 C724 1.383 . S
C723 H731 0.929 . S
C724 C723 1.383 . S
C724 C725 1.377 . S
C725 H709 0.930 . S
C725 C724 1.377 . S
C725 C726 1.379 . S
C726 H710 0.931 . S
C726 C720 1.383 . S
C726 C725 1.379 . S
H727 C721 0.959 . S
H728 C721 0.961 . S
H729 C721 0.960 . S
H730 C722 0.930 . S
H731 C723 0.929 . S
H732 C740 0.929 . S
H733 C742 0.930 1_655 S
H734 C744 0.930 . S
H735 C747 0.929 . S
H736 C750 0.930 1_554 S
H737 C752 0.960 . S
H738 C752 0.960 . S
H739 C752 0.960 . S
C740 H732 0.929 . S
C740 C741 1.377 . S
C740 C742 1.384 . S
C741 C740 1.377 . S
C741 C747 1.390 . S
C742 H733 0.930 1_455 S
C742 C740 1.384 . S
C742 C743 1.372 . S
C743 C742 1.372 . S
C743 C744 1.400 . S
C743 C748 1.490 . S
C744 H734 0.930 . S
C744 C743 1.400 . S
C744 C747 1.386 . S
H745 C761 0.930 . S
H746 C762 0.931 1_455 S
C747 H735 0.929 . S
C747 C741 1.390 . S
C747 C744 1.386 . S
C748 C743 1.490 . S
C748 C750 1.395 1_455 S
C748 C751 1.403 . S
H749 C755 0.927 . S
C750 H736 0.930 1_556 S
C750 C748 1.395 1_655 S
C750 C753 1.403 1_556 S
C751 C748 1.403 . S
C751 C752 1.524 . S
C751 C755 1.400 1_455 S
C752 H737 0.960 . S
C752 H738 0.960 . S
C752 H739 0.960 . S
C752 C751 1.524 . S
C753 C750 1.403 1_554 S
C753 C754 1.392 1_554 S
C753 C757 1.495 . S
C754 C753 1.392 1_556 S
C754 C755 1.385 . S
C754 C756 1.478 . S
C755 H749 0.927 . S
C755 C751 1.400 1_655 S
C755 C754 1.385 . S
C756 C754 1.478 . S
C756 C758 1.381 . S
C756 C762 1.383 1_556 S
C757 C753 1.495 . S
C757 H763 0.959 . S
C757 H764 0.961 . S
C757 H765 0.960 . S
C758 C756 1.381 . S
C758 C759 1.394 . S
C758 H766 0.930 . S
C759 C758 1.394 . S
C759 C760 1.383 1_556 S
C759 H767 0.929 . S
C760 C759 1.383 1_554 S
C760 C761 1.377 . S
C761 H745 0.930 . S
C761 C760 1.377 . S
C761 C762 1.379 . S
C762 H746 0.931 1_655 S
C762 C756 1.383 1_554 S
C762 C761 1.379 . S
H763 C757 0.959 . S
H764 C757 0.961 . S
H765 C757 0.960 . S
H766 C758 0.930 . S
H767 C759 0.929 . S
H768 C776 0.929 . S
H769 C778 0.930 1_565 S
H770 C780 0.930 . S
H771 C783 0.929 . S
H772 C786 0.930 . S
H773 C788 0.960 . S
H774 C788 0.960 . S
H775 C788 0.960 . S
C776 H768 0.929 . S
C776 C777 1.377 . S
C776 C778 1.384 . S
C777 C776 1.377 . S
C777 C783 1.390 . S
C778 H769 0.930 1_545 S
C778 C776 1.384 . S
C778 C779 1.372 . S
C779 C778 1.372 . S
C779 C780 1.400 . S
C779 C784 1.490 . S
C780 H770 0.930 . S
C780 C779 1.400 . S
C780 C783 1.386 . S
H781 C797 0.930 . S
H782 C798 0.931 . S
C783 H771 0.929 . S
C783 C777 1.390 . S
C783 C780 1.386 . S
C784 C779 1.490 . S
C784 C786 1.395 1_545 S
C784 C787 1.403 . S
H785 C791 0.930 . S
C786 H772 0.930 . S
C786 C784 1.395 1_565 S
C786 C789 1.403 . S
C787 C784 1.403 . S
C787 C788 1.524 . S
C787 C791 1.400 . S
C788 H773 0.960 . S
C788 H774 0.960 . S
C788 H775 0.960 . S
C788 C787 1.524 . S
C789 C786 1.403 . S
C789 C790 1.392 . S
C789 C793 1.495 . S
C790 C789 1.392 . S
C790 C791 1.385 1_565 S
C790 C792 1.478 . S
C791 H785 0.930 . S
C791 C787 1.400 . S
C791 C790 1.385 1_545 S
C792 C790 1.478 . S
C792 C794 1.381 . S
C792 C798 1.383 . S
C793 C789 1.495 . S
C793 H799 0.959 . S
C793 H800 0.961 . S
C793 H801 0.960 . S
C794 C792 1.381 . S
C794 C795 1.394 . S
C794 H802 0.930 . S
C795 C794 1.394 . S
C795 C796 1.383 . S
C795 H803 0.929 . S
C796 C795 1.383 . S
C796 C797 1.377 . S
C797 H781 0.930 . S
C797 C796 1.377 . S
C797 C798 1.379 . S
C798 H782 0.931 . S
C798 C792 1.383 . S
C798 C797 1.379 . S
H799 C793 0.959 . S
H800 C793 0.961 . S
H801 C793 0.960 . S
H802 C794 0.930 . S
H803 C795 0.929 . S
H804 C812 0.929 . S
H805 C814 0.930 . S
H806 C816 0.930 . S
H807 C819 0.929 . S
H808 C822 0.930 . S
H809 C824 0.960 . S
H810 C824 0.960 . S
H811 C824 0.960 . S
C812 H804 0.929 . S
C812 C813 1.377 . S
C812 C814 1.384 . S
C813 C812 1.377 . S
C813 C819 1.390 . S
C814 H805 0.930 . S
C814 C812 1.384 . S
C814 C815 1.372 . S
C815 C814 1.372 . S
C815 C816 1.400 . S
C815 C820 1.490 . S
C816 H806 0.930 . S
C816 C815 1.400 . S
C816 C819 1.386 . S
H817 C833 0.930 . S
H818 C834 0.931 . S
C819 H807 0.929 . S
C819 C813 1.390 . S
C819 C816 1.386 . S
C820 C815 1.490 . S
C820 C822 1.395 . S
C820 C823 1.403 . S
H821 C827 0.930 . S
C822 H808 0.930 . S
C822 C820 1.395 . S
C822 C825 1.403 . S
C823 C820 1.403 . S
C823 C824 1.524 . S
C823 C827 1.400 . S
C824 H809 0.960 . S
C824 H810 0.960 . S
C824 H811 0.960 . S
C824 C823 1.524 . S
C825 C822 1.403 . S
C825 C826 1.392 . S
C825 C829 1.495 . S
C826 C825 1.392 . S
C826 C827 1.385 . S
C826 C828 1.478 . S
C827 H821 0.930 . S
C827 C823 1.400 . S
C827 C826 1.385 . S
C828 C826 1.478 . S
C828 C830 1.381 . S
C828 C834 1.383 . S
C829 C825 1.495 . S
C829 H835 0.959 . S
C829 H836 0.961 . S
C829 H837 0.960 . S
C830 C828 1.381 . S
C830 C831 1.394 . S
C830 H838 0.930 . S
C831 C830 1.394 . S
C831 C832 1.383 . S
C831 H839 0.929 . S
C832 C831 1.383 . S
C832 C833 1.377 . S
C833 H817 0.930 . S
C833 C832 1.377 . S
C833 C834 1.379 . S
C834 H818 0.931 . S
C834 C828 1.383 . S
C834 C833 1.379 . S
H835 C829 0.959 . S
H836 C829 0.961 . S
H837 C829 0.960 . S
H838 C830 0.930 . S
H839 C831 0.929 . S
H840 C848 0.929 . S
H841 C850 0.930 . S
H842 C852 0.930 . S
H843 C855 0.929 . S
H844 C858 0.930 . S
H845 C860 0.960 . S
H846 C860 0.960 . S
H847 C860 0.960 . S
C848 H840 0.929 . S
C848 C849 1.377 . S
C848 C850 1.384 . S
C849 C848 1.377 . S
C849 C855 1.390 . S
C850 H841 0.930 . S
C850 C848 1.384 . S
C850 C851 1.372 . S
C851 C850 1.372 . S
C851 C852 1.400 . S
C851 C856 1.490 . S
C852 H842 0.930 . S
C852 C851 1.400 . S
C852 C855 1.386 . S
H853 C869 0.930 . S
H854 C870 0.931 . S
C855 H843 0.929 . S
C855 C849 1.390 . S
C855 C852 1.386 . S
C856 C851 1.490 . S
C856 C858 1.395 . S
C856 C859 1.403 . S
H857 C863 0.930 . S
C858 H844 0.930 . S
C858 C856 1.395 . S
C858 C861 1.403 . S
C859 C856 1.403 . S
C859 C860 1.524 . S
C859 C863 1.400 . S
C860 H845 0.960 . S
C860 H846 0.960 . S
C860 H847 0.960 . S
C860 C859 1.524 . S
C861 C858 1.403 . S
C861 C862 1.392 . S
C861 C865 1.495 . S
C862 C861 1.392 . S
C862 C863 1.385 . S
C862 C864 1.478 . S
C863 H857 0.930 . S
C863 C859 1.400 . S
C863 C862 1.385 . S
C864 C862 1.478 . S
C864 C866 1.381 . S
C864 C870 1.383 . S
C865 C861 1.495 . S
C865 H871 0.959 . S
C865 H872 0.961 . S
C865 H873 0.960 . S
C866 C864 1.381 . S
C866 C867 1.394 . S
C866 H874 0.930 . S
C867 C866 1.394 . S
C867 C868 1.383 . S
C867 H875 0.929 . S
C868 C867 1.383 . S
C868 C869 1.377 . S
C869 H853 0.930 . S
C869 C868 1.377 . S
C869 C870 1.379 . S
C870 H854 0.931 . S
C870 C864 1.383 . S
C870 C869 1.379 . S
H871 C865 0.959 . S
H872 C865 0.961 . S
H873 C865 0.960 . S
H874 C866 0.930 . S
H875 C867 0.929 . S
H876 C884 0.929 . S
H877 C886 0.930 . S
H878 C888 0.930 . S
H879 C891 0.929 . S
H880 C894 0.930 . S
H881 C896 0.960 . S
H882 C896 0.960 . S
H883 C896 0.960 . S
C884 H876 0.929 . S
C884 C885 1.377 . S
C884 C886 1.384 . S
C885 C884 1.377 . S
C885 C891 1.390 . S
C886 H877 0.930 . S
C886 C884 1.384 . S
C886 C887 1.372 . S
C887 C886 1.372 . S
C887 C888 1.400 . S
C887 C892 1.490 . S
C888 H878 0.930 . S
C888 C887 1.400 . S
C888 C891 1.386 . S
H889 C905 0.930 . S
H890 C906 0.931 . S
C891 H879 0.929 . S
C891 C885 1.390 . S
C891 C888 1.386 . S
C892 C887 1.490 . S
C892 C894 1.395 . S
C892 C895 1.403 . S
H893 C899 0.930 . S
C894 H880 0.930 . S
C894 C892 1.395 . S
C894 C897 1.403 . S
C895 C892 1.403 . S
C895 C896 1.524 . S
C895 C899 1.400 . S
C896 H881 0.960 . S
C896 H882 0.960 . S
C896 H883 0.960 . S
C896 C895 1.524 . S
C897 C894 1.403 . S
C897 C898 1.392 . S
C897 C901 1.495 . S
C898 C897 1.392 . S
C898 C899 1.385 . S
C898 C900 1.478 . S
C899 H893 0.930 . S
C899 C895 1.400 . S
C899 C898 1.385 . S
C900 C898 1.478 . S
C900 C902 1.381 . S
C900 C906 1.383 . S
C901 C897 1.495 . S
C901 H907 0.959 . S
C901 H908 0.961 . S
C901 H909 0.960 . S
C902 C900 1.381 . S
C902 C903 1.394 . S
C902 H910 0.930 . S
C903 C902 1.394 . S
C903 C904 1.383 . S
C903 H911 0.929 . S
C904 C903 1.383 . S
C904 C905 1.377 . S
C905 H889 0.930 . S
C905 C904 1.377 . S
C905 C906 1.379 . S
C906 H890 0.931 . S
C906 C900 1.383 . S
C906 C905 1.379 . S
H907 C901 0.959 . S
H908 C901 0.961 . S
H909 C901 0.960 . S
H910 C902 0.930 . S
H911 C903 0.929 . S
H912 C920 0.929 . S
H913 C922 0.930 . S
H914 C924 0.930 . S
H915 C927 0.929 . S
H916 C930 0.930 . S
H917 C932 0.960 . S
H918 C932 0.960 . S
H919 C932 0.960 . S
C920 H912 0.929 . S
C920 C921 1.377 . S
C920 C922 1.384 . S
C921 C920 1.377 . S
C921 C927 1.390 . S
C922 H913 0.930 . S
C922 C920 1.384 . S
C922 C923 1.372 . S
C923 C922 1.372 . S
C923 C924 1.400 . S
C923 C928 1.490 . S
C924 H914 0.930 . S
C924 C923 1.400 . S
C924 C927 1.386 . S
H925 C941 0.930 . S
H926 C942 0.931 . S
C927 H915 0.929 . S
C927 C921 1.390 . S
C927 C924 1.386 . S
C928 C923 1.490 . S
C928 C930 1.395 . S
C928 C931 1.403 . S
H929 C935 0.930 . S
C930 H916 0.930 . S
C930 C928 1.395 . S
C930 C933 1.403 . S
C931 C928 1.403 . S
C931 C932 1.524 . S
C931 C935 1.400 . S
C932 H917 0.960 . S
C932 H918 0.960 . S
C932 H919 0.960 . S
C932 C931 1.524 . S
C933 C930 1.403 . S
C933 C934 1.392 . S
C933 C937 1.495 . S
C934 C933 1.392 . S
C934 C935 1.385 . S
C934 C936 1.478 . S
C935 H929 0.930 . S
C935 C931 1.400 . S
C935 C934 1.385 . S
C936 C934 1.478 . S
C936 C938 1.381 . S
C936 C942 1.383 . S
C937 C933 1.495 . S
C937 H943 0.959 . S
C937 H944 0.961 . S
C937 H945 0.960 . S
C938 C936 1.381 . S
C938 C939 1.394 . S
C938 H946 0.930 . S
C939 C938 1.394 . S
C939 C940 1.383 . S
C939 H947 0.929 . S
C940 C939 1.383 . S
C940 C941 1.377 . S
C941 H925 0.930 . S
C941 C940 1.377 . S
C941 C942 1.379 . S
C942 H926 0.931 . S
C942 C936 1.383 . S
C942 C941 1.379 . S
H943 C937 0.959 . S
H944 C937 0.961 . S
H945 C937 0.960 . S
H946 C938 0.930 . S
H947 C939 0.929 . S
H948 C956 0.929 . S
H949 C958 0.930 . S
H950 C960 0.930 . S
H951 C963 0.929 . S
H952 C966 0.930 . S
H953 C968 0.960 . S
H954 C968 0.960 . S
H955 C968 0.960 . S
C956 H948 0.929 . S
C956 C957 1.377 . S
C956 C958 1.384 . S
C957 C956 1.377 . S
C957 C963 1.390 . S
C958 H949 0.930 . S
C958 C956 1.384 . S
C958 C959 1.372 . S
C959 C958 1.372 . S
C959 C960 1.400 . S
C959 C964 1.490 . S
C960 H950 0.930 . S
C960 C959 1.400 . S
C960 C963 1.386 . S
H961 C977 0.930 . S
H962 C978 0.931 . S
C963 H951 0.929 . S
C963 C957 1.390 . S
C963 C960 1.386 . S
C964 C959 1.490 . S
C964 C966 1.395 . S
C964 C967 1.403 . S
H965 C971 0.930 . S
C966 H952 0.930 . S
C966 C964 1.395 . S
C966 C969 1.403 . S
C967 C964 1.403 . S
C967 C968 1.524 . S
C967 C971 1.400 . S
C968 H953 0.960 . S
C968 H954 0.960 . S
C968 H955 0.960 . S
C968 C967 1.524 . S
C969 C966 1.403 . S
C969 C970 1.392 . S
C969 C973 1.495 . S
C970 C969 1.392 . S
C970 C971 1.385 . S
C970 C972 1.478 . S
C971 H965 0.930 . S
C971 C967 1.400 . S
C971 C970 1.385 . S
C972 C970 1.478 . S
C972 C974 1.381 . S
C972 C978 1.383 . S
C973 C969 1.495 . S
C973 H979 0.959 . S
C973 H980 0.961 . S
C973 H981 0.960 . S
C974 C972 1.381 . S
C974 C975 1.394 . S
C974 H982 0.930 . S
C975 C974 1.394 . S
C975 C976 1.383 . S
C975 H983 0.929 . S
C976 C975 1.383 . S
C976 C977 1.377 . S
C977 H961 0.930 . S
C977 C976 1.377 . S
C977 C978 1.379 . S
C978 H962 0.931 . S
C978 C972 1.383 . S
C978 C977 1.379 . S
H979 C973 0.959 . S
H980 C973 0.961 . S
H981 C973 0.960 . S
H982 C974 0.930 . S
H983 C975 0.929 . S
H984 C992 0.929 . S
H985 C994 0.930 . S
H986 C996 0.930 . S
H987 C999 0.929 . S
H988 C1002 0.930 . S
H989 C1004 0.960 . S
H990 C1004 0.960 . S
H991 C1004 0.960 . S
C992 H984 0.929 . S
C992 C993 1.377 . S
C992 C994 1.384 . S
C993 C992 1.377 . S
C993 C999 1.390 . S
C994 H985 0.930 . S
C994 C992 1.384 . S
C994 C995 1.372 . S
C995 C994 1.372 . S
C995 C996 1.400 . S
C995 C1000 1.490 . S
C996 H986 0.930 . S
C996 C995 1.400 . S
C996 C999 1.386 . S
H997 C1013 0.930 . S
H998 C1014 0.931 . S
C999 H987 0.929 . S
C999 C993 1.390 . S
C999 C996 1.386 . S
C1000 C995 1.490 . S
C1000 C1002 1.395 . S
C1000 C1003 1.403 . S
H1001 C1007 0.930 . S
C1002 H988 0.930 . S
C1002 C1000 1.395 . S
C1002 C1005 1.403 . S
C1003 C1000 1.403 . S
C1003 C1004 1.524 . S
C1003 C1007 1.400 . S
C1004 H989 0.960 . S
C1004 H990 0.960 . S
C1004 H991 0.960 . S
C1004 C1003 1.524 . S
C1005 C1002 1.403 . S
C1005 C1006 1.392 . S
C1005 C1009 1.495 . S
C1006 C1005 1.392 . S
C1006 C1007 1.385 . S
C1006 C1008 1.478 . S
C1007 H1001 0.930 . S
C1007 C1003 1.400 . S
C1007 C1006 1.385 . S
C1008 C1006 1.478 . S
C1008 C1010 1.381 . S
C1008 C1014 1.383 . S
C1009 C1005 1.495 . S
C1009 H1015 0.959 . S
C1009 H1016 0.961 . S
C1009 H1017 0.960 . S
C1010 C1008 1.381 . S
C1010 C1011 1.394 . S
C1010 H1018 0.930 . S
C1011 C1010 1.394 . S
C1011 C1012 1.383 . S
C1011 H1019 0.929 . S
C1012 C1011 1.383 . S
C1012 C1013 1.377 . S
C1013 H997 0.930 . S
C1013 C1012 1.377 . S
C1013 C1014 1.379 . S
C1014 H998 0.931 . S
C1014 C1008 1.383 . S
C1014 C1013 1.379 . S
H1015 C1009 0.959 . S
H1016 C1009 0.961 . S
H1017 C1009 0.960 . S
H1018 C1010 0.930 . S
H1019 C1011 0.929 . S
H1020 C1028 0.929 . S
H1021 C1030 0.930 . S
H1022 C1032 0.930 . S
H1023 C1035 0.929 . S
H1024 C1038 0.930 . S
H1025 C1040 0.960 . S
H1026 C1040 0.960 . S
H1027 C1040 0.960 . S
C1028 H1020 0.929 . S
C1028 C1029 1.377 . S
C1028 C1030 1.384 . S
C1029 C1028 1.377 . S
C1029 C1035 1.390 . S
C1030 H1021 0.930 . S
C1030 C1028 1.384 . S
C1030 C1031 1.372 . S
C1031 C1030 1.372 . S
C1031 C1032 1.400 . S
C1031 C1036 1.490 . S
C1032 H1022 0.930 . S
C1032 C1031 1.400 . S
C1032 C1035 1.386 . S
H1033 C1049 0.930 . S
H1034 C1050 0.931 . S
C1035 H1023 0.929 . S
C1035 C1029 1.390 . S
C1035 C1032 1.386 . S
C1036 C1031 1.490 . S
C1036 C1038 1.395 . S
C1036 C1039 1.403 . S
H1037 C1043 0.930 . S
C1038 H1024 0.930 . S
C1038 C1036 1.395 . S
C1038 C1041 1.403 . S
C1039 C1036 1.403 . S
C1039 C1040 1.524 . S
C1039 C1043 1.400 . S
C1040 H1025 0.960 . S
C1040 H1026 0.960 . S
C1040 H1027 0.960 . S
C1040 C1039 1.524 . S
C1041 C1038 1.403 . S
C1041 C1042 1.392 . S
C1041 C1045 1.495 . S
C1042 C1041 1.392 . S
C1042 C1043 1.385 . S
C1042 C1044 1.478 . S
C1043 H1037 0.930 . S
C1043 C1039 1.400 . S
C1043 C1042 1.385 . S
C1044 C1042 1.478 . S
C1044 C1046 1.381 . S
C1044 C1050 1.383 . S
C1045 C1041 1.495 . S
C1045 H1051 0.959 . S
C1045 H1052 0.961 . S
C1045 H1053 0.960 . S
C1046 C1044 1.381 . S
C1046 C1047 1.394 . S
C1046 H1054 0.930 . S
C1047 C1046 1.394 . S
C1047 C1048 1.383 . S
C1047 H1055 0.929 . S
C1048 C1047 1.383 . S
C1048 C1049 1.377 . S
C1049 H1033 0.930 . S
C1049 C1048 1.377 . S
C1049 C1050 1.379 . S
C1050 H1034 0.931 . S
C1050 C1044 1.383 . S
C1050 C1049 1.379 . S
H1051 C1045 0.959 . S
H1052 C1045 0.961 . S
H1053 C1045 0.960 . S
H1054 C1046 0.930 . S
H1055 C1047 0.929 . S
H1056 C1064 0.929 . S
H1057 C1066 0.930 . S
H1058 C1068 0.930 . S
H1059 C1071 0.929 . S
H1060 C1074 0.930 . S
H1061 C1076 0.960 . S
H1062 C1076 0.960 . S
H1063 C1076 0.960 . S
C1064 H1056 0.929 . S
C1064 C1065 1.377 . S
C1064 C1066 1.384 . S
C1065 C1064 1.377 . S
C1065 C1071 1.390 . S
C1066 H1057 0.930 . S
C1066 C1064 1.384 . S
C1066 C1067 1.372 . S
C1067 C1066 1.372 . S
C1067 C1068 1.400 . S
C1067 C1072 1.490 . S
C1068 H1058 0.930 . S
C1068 C1067 1.400 . S
C1068 C1071 1.386 . S
H1069 C1085 0.930 . S
H1070 C1086 0.931 . S
C1071 H1059 0.929 . S
C1071 C1065 1.390 . S
C1071 C1068 1.386 . S
C1072 C1067 1.490 . S
C1072 C1074 1.395 . S
C1072 C1075 1.403 1_565 S
H1073 C1079 0.930 . S
C1074 H1060 0.930 . S
C1074 C1072 1.395 . S
C1074 C1077 1.403 . S
C1075 C1072 1.403 1_545 S
C1075 C1076 1.524 . S
C1075 C1079 1.400 . S
C1076 H1061 0.960 . S
C1076 H1062 0.960 . S
C1076 H1063 0.960 . S
C1076 C1075 1.524 . S
C1077 C1074 1.403 . S
C1077 C1078 1.392 1_565 S
C1077 C1081 1.495 . S
C1078 C1077 1.392 1_545 S
C1078 C1079 1.385 . S
C1078 C1080 1.478 . S
C1079 H1073 0.930 . S
C1079 C1075 1.400 . S
C1079 C1078 1.385 . S
C1080 C1078 1.478 . S
C1080 C1082 1.381 . S
C1080 C1086 1.383 . S
C1081 C1077 1.495 . S
C1081 H1087 0.959 . S
C1081 H1088 0.961 . S
C1081 H1089 0.960 . S
C1082 C1080 1.381 . S
C1082 C1083 1.394 . S
C1082 H1090 0.930 . S
C1083 C1082 1.394 . S
C1083 C1084 1.383 . S
C1083 H1091 0.929 . S
C1084 C1083 1.383 . S
C1084 C1085 1.377 . S
C1085 H1069 0.930 . S
C1085 C1084 1.377 . S
C1085 C1086 1.379 . S
C1086 H1070 0.931 . S
C1086 C1080 1.383 . S
C1086 C1085 1.379 . S
H1087 C1081 0.959 . S
H1088 C1081 0.961 . S
H1089 C1081 0.960 . S
H1090 C1082 0.930 . S
H1091 C1083 0.929 . S
H1092 C1100 0.929 . S
H1093 C1102 0.930 . S
H1094 C1104 0.930 . S
H1095 C1107 0.929 . S
H1096 C1110 0.930 . S
H1097 C1112 0.960 . S
H1098 C1112 0.960 . S
H1099 C1112 0.960 . S
C1100 H1092 0.929 . S
C1100 C1101 1.377 . S
C1100 C1102 1.384 . S
C1101 C1100 1.377 . S
C1101 C1107 1.390 . S
C1102 H1093 0.930 . S
C1102 C1100 1.384 . S
C1102 C1103 1.372 . S
C1103 C1102 1.372 . S
C1103 C1104 1.400 . S
C1103 C1108 1.490 . S
C1104 H1094 0.930 . S
C1104 C1103 1.400 . S
C1104 C1107 1.386 . S
H1105 C1121 0.930 . S
H1106 C1122 0.931 . S
C1107 H1095 0.929 . S
C1107 C1101 1.390 . S
C1107 C1104 1.386 . S
C1108 C1103 1.490 . S
C1108 C1110 1.395 . S
C1108 C1111 1.403 . S
H1109 C1115 0.930 . S
C1110 H1096 0.930 . S
C1110 C1108 1.395 . S
C1110 C1113 1.403 . S
C1111 C1108 1.403 . S
C1111 C1112 1.524 . S
C1111 C1115 1.400 . S
C1112 H1097 0.960 . S
C1112 H1098 0.960 . S
C1112 H1099 0.960 . S
C1112 C1111 1.524 . S
C1113 C1110 1.403 . S
C1113 C1114 1.392 . S
C1113 C1117 1.495 . S
C1114 C1113 1.392 . S
C1114 C1115 1.385 . S
C1114 C1116 1.478 . S
C1115 H1109 0.930 . S
C1115 C1111 1.400 . S
C1115 C1114 1.385 . S
C1116 C1114 1.478 . S
C1116 C1118 1.381 . S
C1116 C1122 1.383 . S
C1117 C1113 1.495 . S
C1117 H1123 0.959 . S
C1117 H1124 0.961 . S
C1117 H1125 0.960 . S
C1118 C1116 1.381 . S
C1118 C1119 1.394 . S
C1118 H1126 0.930 . S
C1119 C1118 1.394 . S
C1119 C1120 1.383 . S
C1119 H1127 0.929 . S
C1120 C1119 1.383 . S
C1120 C1121 1.377 . S
C1121 H1105 0.930 . S
C1121 C1120 1.377 . S
C1121 C1122 1.379 . S
C1122 H1106 0.931 . S
C1122 C1116 1.383 . S
C1122 C1121 1.379 . S
H1123 C1117 0.959 . S
H1124 C1117 0.961 . S
H1125 C1117 0.960 . S
H1126 C1118 0.930 . S
H1127 C1119 0.929 . S
H1128 C1136 0.929 . S
H1129 C1138 0.930 1_455 S
H1130 C1140 0.930 . S
H1131 C1143 0.929 . S
H1132 C1146 0.930 1_655 S
H1133 C1148 0.960 . S
H1134 C1148 0.960 . S
H1135 C1148 0.960 . S
C1136 H1128 0.929 . S
C1136 C1137 1.377 . S
C1136 C1138 1.384 . S
C1137 C1136 1.377 . S
C1137 C1143 1.390 . S
C1138 H1129 0.930 1_655 S
C1138 C1136 1.384 . S
C1138 C1139 1.372 . S
C1139 C1138 1.372 . S
C1139 C1140 1.400 . S
C1139 C1144 1.490 1_655 S
C1140 H1130 0.930 . S
C1140 C1139 1.400 . S
C1140 C1143 1.386 . S
H1141 C1157 0.930 . S
H1142 C1158 0.931 . S
C1143 H1131 0.929 . S
C1143 C1137 1.390 . S
C1143 C1140 1.386 . S
C1144 C1139 1.490 1_455 S
C1144 C1146 1.395 . S
C1144 C1147 1.403 . S
H1145 C1151 0.930 . S
C1146 H1132 0.930 1_455 S
C1146 C1144 1.395 . S
C1146 C1149 1.403 . S
C1147 C1144 1.403 . S
C1147 C1148 1.524 . S
C1147 C1151 1.400 . S
C1148 H1133 0.960 . S
C1148 H1134 0.960 . S
C1148 H1135 0.960 . S
C1148 C1147 1.524 . S
C1149 C1146 1.403 . S
C1149 C1150 1.392 . S
C1149 C1153 1.495 . S
C1150 C1149 1.392 . S
C1150 C1151 1.385 . S
C1150 C1152 1.478 . S
C1151 H1145 0.930 . S
C1151 C1147 1.400 . S
C1151 C1150 1.385 . S
C1152 C1150 1.478 . S
C1152 C1154 1.381 . S
C1152 C1158 1.383 . S
C1153 C1149 1.495 . S
C1153 H1159 0.960 . S
C1153 H1160 0.961 . S
C1153 H1161 0.960 . S
C1154 C1152 1.381 . S
C1154 C1155 1.394 . S
C1154 H1162 0.930 . S
C1155 C1154 1.394 . S
C1155 C1156 1.383 . S
C1155 H1163 0.929 . S
C1156 C1155 1.383 . S
C1156 C1157 1.377 . S
C1157 H1141 0.930 . S
C1157 C1156 1.377 . S
C1157 C1158 1.379 . S
C1158 H1142 0.931 . S
C1158 C1152 1.383 . S
C1158 C1157 1.379 . S
H1159 C1153 0.960 . S
H1160 C1153 0.961 . S
H1161 C1153 0.960 . S
H1162 C1154 0.930 . S
H1163 C1155 0.929 . S
H1164 C1172 0.929 . S
H1165 C1174 0.930 . S
H1166 C1176 0.930 . S
H1167 C1179 0.929 . S
H1168 C1182 0.930 1_565 S
H1169 C1184 0.960 . S
H1170 C1184 0.960 1_565 S
H1171 C1184 0.960 . S
C1172 H1164 0.929 . S
C1172 C1173 1.377 . S
C1172 C1174 1.384 . S
C1173 C1172 1.377 . S
C1173 C1179 1.390 . S
C1174 H1165 0.930 . S
C1174 C1172 1.384 . S
C1174 C1175 1.372 . S
C1175 C1174 1.372 . S
C1175 C1176 1.400 1_565 S
C1175 C1180 1.490 1_565 S
C1176 H1166 0.930 . S
C1176 C1175 1.400 1_545 S
C1176 C1179 1.386 1_545 S
H1177 C1193 0.930 . S
H1178 C1194 0.931 . S
C1179 H1167 0.929 . S
C1179 C1173 1.390 . S
C1179 C1176 1.386 1_565 S
C1180 C1175 1.490 1_545 S
C1180 C1182 1.395 . S
C1180 C1183 1.403 . S
H1181 C1187 0.930 . S
C1182 H1168 0.930 1_545 S
C1182 C1180 1.395 . S
C1182 C1185 1.403 . S
C1183 C1180 1.403 . S
C1183 C1184 1.524 . S
C1183 C1187 1.400 . S
C1184 H1169 0.960 . S
C1184 H1170 0.960 1_545 S
C1184 H1171 0.960 . S
C1184 C1183 1.524 . S
C1185 C1182 1.403 . S
C1185 C1186 1.392 . S
C1185 C1189 1.495 . S
C1186 C1185 1.392 . S
C1186 C1187 1.385 . S
C1186 C1188 1.478 . S
C1187 H1181 0.930 . S
C1187 C1183 1.400 . S
C1187 C1186 1.385 . S
C1188 C1186 1.478 . S
C1188 C1190 1.381 . S
C1188 C1194 1.383 . S
C1189 C1185 1.495 . S
C1189 H1195 0.959 . S
C1189 H1196 0.961 . S
C1189 H1197 0.960 . S
C1190 C1188 1.381 . S
C1190 C1191 1.394 . S
C1190 H1198 0.930 . S
C1191 C1190 1.394 . S
C1191 C1192 1.383 . S
C1191 H1199 0.929 . S
C1192 C1191 1.383 . S
C1192 C1193 1.377 . S
C1193 H1177 0.930 . S
C1193 C1192 1.377 . S
C1193 C1194 1.379 . S
C1194 H1178 0.931 . S
C1194 C1188 1.383 . S
C1194 C1193 1.379 . S
H1195 C1189 0.959 . S
H1196 C1189 0.961 . S
H1197 C1189 0.960 . S
H1198 C1190 0.930 . S
H1199 C1191 0.929 . S
H1200 C1208 0.929 . S
H1201 C1210 0.930 . S
H1202 C1212 0.930 . S
H1203 C1215 0.929 . S
H1204 C1218 0.930 . S
H1205 C1220 0.960 . S
H1206 C1220 0.960 . S
H1207 C1220 0.960 . S
C1208 H1200 0.929 . S
C1208 C1209 1.377 . S
C1208 C1210 1.384 . S
C1209 C1208 1.377 . S
C1209 C1215 1.390 . S
C1210 H1201 0.930 . S
C1210 C1208 1.384 . S
C1210 C1211 1.372 . S
C1211 C1210 1.372 . S
C1211 C1212 1.400 . S
C1211 C1216 1.490 . S
C1212 H1202 0.930 . S
C1212 C1211 1.400 . S
C1212 C1215 1.386 . S
H1213 C1229 0.930 . S
H1214 C1230 0.931 . S
C1215 H1203 0.929 . S
C1215 C1209 1.390 . S
C1215 C1212 1.386 . S
C1216 C1211 1.490 . S
C1216 C1218 1.395 . S
C1216 C1219 1.403 . S
H1217 C1223 0.930 . S
C1218 H1204 0.930 . S
C1218 C1216 1.395 . S
C1218 C1221 1.403 . S
C1219 C1216 1.403 . S
C1219 C1220 1.524 . S
C1219 C1223 1.400 . S
C1220 H1205 0.960 . S
C1220 H1206 0.960 . S
C1220 H1207 0.960 . S
C1220 C1219 1.524 . S
C1221 C1218 1.403 . S
C1221 C1222 1.392 . S
C1221 C1225 1.495 . S
C1222 C1221 1.392 . S
C1222 C1223 1.385 . S
C1222 C1224 1.478 . S
C1223 H1217 0.930 . S
C1223 C1219 1.400 . S
C1223 C1222 1.385 . S
C1224 C1222 1.478 . S
C1224 C1226 1.381 . S
C1224 C1230 1.383 . S
C1225 C1221 1.495 . S
C1225 H1231 0.959 . S
C1225 H1232 0.961 . S
C1225 H1233 0.960 . S
C1226 C1224 1.381 . S
C1226 C1227 1.394 . S
C1226 H1234 0.930 . S
C1227 C1226 1.394 . S
C1227 C1228 1.383 . S
C1227 H1235 0.929 . S
C1228 C1227 1.383 . S
C1228 C1229 1.377 . S
C1229 H1213 0.930 . S
C1229 C1228 1.377 . S
C1229 C1230 1.379 . S
C1230 H1214 0.931 . S
C1230 C1224 1.383 . S
C1230 C1229 1.379 . S
H1231 C1225 0.959 . S
H1232 C1225 0.961 . S
H1233 C1225 0.960 . S
H1234 C1226 0.930 . S
H1235 C1227 0.929 . S
H1236 C1244 0.929 . S
H1237 C1246 0.930 . S
H1238 C1248 0.930 1_655 S
H1239 C1251 0.929 . S
H1240 C1254 0.930 . S
H1241 C1256 0.960 . S
H1242 C1256 0.960 . S
H1243 C1256 0.960 . S
C1244 H1236 0.929 . S
C1244 C1245 1.377 . S
C1244 C1246 1.384 . S
C1245 C1244 1.377 . S
C1245 C1251 1.390 . S
C1246 H1237 0.930 . S
C1246 C1244 1.384 . S
C1246 C1247 1.372 . S
C1247 C1246 1.372 . S
C1247 C1248 1.400 . S
C1247 C1252 1.490 . S
C1248 H1238 0.930 1_455 S
C1248 C1247 1.400 . S
C1248 C1251 1.386 . S
H1249 C1265 0.930 . S
H1250 C1266 0.931 . S
C1251 H1239 0.929 . S
C1251 C1245 1.390 . S
C1251 C1248 1.386 . S
C1252 C1247 1.490 . S
C1252 C1254 1.395 . S
C1252 C1255 1.403 1_455 S
H1253 C1259 0.930 . S
C1254 H1240 0.930 . S
C1254 C1252 1.395 . S
C1254 C1257 1.403 . S
C1255 C1252 1.403 1_655 S
C1255 C1256 1.524 . S
C1255 C1259 1.400 . S
C1256 H1241 0.960 . S
C1256 H1242 0.960 . S
C1256 H1243 0.960 . S
C1256 C1255 1.524 . S
C1257 C1254 1.403 . S
C1257 C1258 1.392 1_455 S
C1257 C1261 1.495 . S
C1258 C1257 1.392 1_655 S
C1258 C1259 1.385 . S
C1258 C1260 1.478 . S
C1259 H1253 0.930 . S
C1259 C1255 1.400 . S
C1259 C1258 1.385 . S
C1260 C1258 1.478 . S
C1260 C1262 1.381 . S
C1260 C1266 1.383 . S
C1261 C1257 1.495 . S
C1261 H1267 0.959 . S
C1261 H1268 0.961 . S
C1261 H1269 0.960 . S
C1262 C1260 1.381 . S
C1262 C1263 1.394 . S
C1262 H1270 0.930 . S
C1263 C1262 1.394 . S
C1263 C1264 1.383 . S
C1263 H1271 0.929 . S
C1264 C1263 1.383 . S
C1264 C1265 1.377 . S
C1265 H1249 0.930 . S
C1265 C1264 1.377 . S
C1265 C1266 1.379 . S
C1266 H1250 0.931 . S
C1266 C1260 1.383 . S
C1266 C1265 1.379 . S
H1267 C1261 0.959 . S
H1268 C1261 0.961 . S
H1269 C1261 0.960 . S
H1270 C1262 0.930 . S
H1271 C1263 0.929 . S
H1272 C1280 0.929 . S
H1273 C1282 0.930 . S
H1274 C1284 0.914 1_455 S
H1275 C1287 0.929 . S
H1276 C1290 0.930 . S
H1277 C1292 0.960 . S
H1278 C1292 0.960 . S
H1279 C1292 0.960 . S
C1280 H1272 0.929 . S
C1280 C1281 1.377 . S
C1280 C1282 1.384 . S
C1281 C1280 1.377 . S
C1281 C1287 1.390 . S
C1282 H1273 0.930 . S
C1282 C1280 1.384 . S
C1282 C1283 1.372 . S
C1283 C1282 1.372 . S
C1283 C1284 1.408 . S
C1283 C1288 1.490 1_655 S
C1284 H1274 0.914 1_655 S
C1284 C1283 1.408 . S
C1284 C1287 1.393 . S
H1285 C1301 0.930 . S
H1286 C1302 0.931 . S
C1287 H1275 0.929 . S
C1287 C1281 1.390 . S
C1287 C1284 1.393 . S
C1288 C1283 1.490 1_455 S
C1288 C1290 1.395 1_455 S
C1288 C1291 1.403 . S
H1289 C1295 0.930 . S
C1290 H1276 0.930 . S
C1290 C1288 1.395 1_655 S
C1290 C1293 1.403 1_655 S
C1291 C1288 1.403 . S
C1291 C1292 1.524 . S
C1291 C1295 1.400 . S
C1292 H1277 0.960 . S
C1292 H1278 0.960 . S
C1292 H1279 0.960 . S
C1292 C1291 1.524 . S
C1293 C1290 1.403 1_455 S
C1293 C1294 1.392 . S
C1293 C1297 1.495 1_455 S
C1294 C1293 1.392 . S
C1294 C1295 1.385 . S
C1294 C1296 1.478 . S
C1295 H1289 0.930 . S
C1295 C1291 1.400 . S
C1295 C1294 1.385 . S
C1296 C1294 1.478 . S
C1296 C1298 1.381 . S
C1296 C1302 1.383 . S
C1297 C1293 1.495 1_655 S
C1297 H1303 0.959 . S
C1297 H1304 0.961 1_655 S
C1297 H1305 0.960 . S
C1298 C1296 1.381 . S
C1298 C1299 1.394 . S
C1298 H1306 0.930 . S
C1299 C1298 1.394 . S
C1299 C1300 1.383 . S
C1299 H1307 0.929 . S
C1300 C1299 1.383 . S
C1300 C1301 1.377 . S
C1301 H1285 0.930 . S
C1301 C1300 1.377 . S
C1301 C1302 1.379 . S
C1302 H1286 0.931 . S
C1302 C1296 1.383 . S
C1302 C1301 1.379 . S
H1303 C1297 0.959 . S
H1304 C1297 0.961 1_455 S
H1305 C1297 0.960 . S
H1306 C1298 0.930 . S
H1307 C1299 0.929 . S
H1308 C1316 0.929 . S
H1309 C1318 0.930 . S
H1310 C1320 0.930 . S
H1311 C1323 0.929 . S
H1312 C1326 0.930 . S
H1313 C1328 0.960 . S
H1314 C1328 0.960 . S
H1315 C1328 0.960 . S
C1316 H1308 0.929 . S
C1316 C1317 1.377 . S
C1316 C1318 1.384 . S
C1317 C1316 1.377 . S
C1317 C1323 1.390 . S
C1318 H1309 0.930 . S
C1318 C1316 1.384 . S
C1318 C1319 1.372 . S
C1319 C1318 1.372 . S
C1319 C1320 1.400 . S
C1319 C1324 1.490 . S
C1320 H1310 0.930 . S
C1320 C1319 1.400 . S
C1320 C1323 1.386 . S
H1321 C1337 0.930 . S
H1322 C1338 0.931 1_545 S
C1323 H1311 0.929 . S
C1323 C1317 1.390 . S
C1323 C1320 1.386 . S
C1324 C1319 1.490 . S
C1324 C1326 1.395 . S
C1324 C1327 1.403 . S
H1325 C1331 0.930 . S
C1326 H1312 0.930 . S
C1326 C1324 1.395 . S
C1326 C1329 1.403 1_545 S
C1327 C1324 1.403 . S
C1327 C1328 1.524 . S
C1327 C1331 1.400 . S
C1328 H1313 0.960 . S
C1328 H1314 0.960 . S
C1328 H1315 0.960 . S
C1328 C1327 1.524 . S
C1329 C1326 1.403 1_565 S
C1329 C1330 1.392 1_565 S
C1329 C1333 1.495 . S
C1330 C1329 1.392 1_545 S
C1330 C1331 1.385 . S
C1330 C1332 1.478 1_545 S
C1331 H1325 0.930 . S
C1331 C1327 1.400 . S
C1331 C1330 1.385 . S
C1332 C1330 1.478 1_565 S
C1332 C1334 1.381 . S
C1332 C1338 1.383 . S
C1333 C1329 1.495 . S
C1333 H1339 0.959 . S
C1333 H1340 0.961 . S
C1333 H1341 0.960 . S
C1334 C1332 1.381 . S
C1334 C1335 1.394 . S
C1334 H1342 0.930 . S
C1335 C1334 1.394 . S
C1335 C1336 1.383 . S
C1335 H1343 0.929 . S
C1336 C1335 1.383 . S
C1336 C1337 1.377 . S
C1337 H1321 0.930 . S
C1337 C1336 1.377 . S
C1337 C1338 1.379 . S
C1338 H1322 0.931 1_565 S
C1338 C1332 1.383 . S
C1338 C1337 1.379 . S
H1339 C1333 0.959 . S
H1340 C1333 0.961 . S
H1341 C1333 0.960 . S
H1342 C1334 0.930 . S
H1343 C1335 0.929 . S
H1344 C1352 0.929 . S
H1345 C1354 0.930 . S
H1346 C1356 0.930 . S
H1347 C1359 0.929 . S
H1348 C1362 0.930 . S
H1349 C1364 0.960 . S
H1350 C1364 0.960 . S
H1351 C1364 0.960 . S
C1352 H1344 0.929 . S
C1352 C1353 1.377 . S
C1352 C1354 1.384 . S
C1353 C1352 1.377 . S
C1353 C1359 1.390 . S
C1354 H1345 0.930 . S
C1354 C1352 1.384 . S
C1354 C1355 1.372 . S
C1355 C1354 1.372 . S
C1355 C1356 1.400 . S
C1355 C1360 1.490 . S
C1356 H1346 0.930 . S
C1356 C1355 1.400 . S
C1356 C1359 1.386 . S
H1357 C1373 0.930 . S
H1358 C1374 0.931 . S
C1359 H1347 0.929 . S
C1359 C1353 1.390 . S
C1359 C1356 1.386 . S
C1360 C1355 1.490 . S
C1360 C1362 1.395 . S
C1360 C1363 1.403 . S
H1361 C1367 0.930 . S
C1362 H1348 0.930 . S
C1362 C1360 1.395 . S
C1362 C1365 1.403 . S
C1363 C1360 1.403 . S
C1363 C1364 1.524 . S
C1363 C1367 1.400 . S
C1364 H1349 0.960 . S
C1364 H1350 0.960 . S
C1364 H1351 0.960 . S
C1364 C1363 1.524 . S
C1365 C1362 1.403 . S
C1365 C1366 1.392 . S
C1365 C1369 1.495 . S
C1366 C1365 1.392 . S
C1366 C1367 1.385 . S
C1366 C1368 1.478 . S
C1367 H1361 0.930 . S
C1367 C1363 1.400 . S
C1367 C1366 1.385 . S
C1368 C1366 1.478 . S
C1368 C1370 1.381 . S
C1368 C1374 1.383 . S
C1369 C1365 1.495 . S
C1369 H1375 0.959 . S
C1369 H1376 0.961 . S
C1369 H1377 0.960 . S
C1370 C1368 1.381 . S
C1370 C1371 1.394 . S
C1370 H1378 0.930 . S
C1371 C1370 1.394 . S
C1371 C1372 1.383 . S
C1371 H1379 0.929 . S
C1372 C1371 1.383 . S
C1372 C1373 1.377 . S
C1373 H1357 0.930 . S
C1373 C1372 1.377 . S
C1373 C1374 1.379 . S
C1374 H1358 0.931 . S
C1374 C1368 1.383 . S
C1374 C1373 1.379 . S
H1375 C1369 0.959 . S
H1376 C1369 0.961 . S
H1377 C1369 0.960 . S
H1378 C1370 0.930 . S
H1379 C1371 0.929 . S
H1380 C1388 0.929 . S
H1381 C1390 0.930 . S
H1382 C1392 0.930 1_655 S
H1383 C1395 0.929 . S
H1384 C1398 0.930 1_455 S
H1385 C1400 0.960 . S
H1386 C1400 0.960 . S
H1387 C1400 0.960 . S
C1388 H1380 0.929 . S
C1388 C1389 1.377 . S
C1388 C1390 1.384 . S
C1389 C1388 1.377 . S
C1389 C1395 1.390 . S
C1390 H1381 0.930 . S
C1390 C1388 1.384 . S
C1390 C1391 1.372 . S
C1391 C1390 1.372 . S
C1391 C1392 1.400 . S
C1391 C1396 1.490 . S
C1392 H1382 0.930 1_455 S
C1392 C1391 1.400 . S
C1392 C1395 1.386 . S
H1393 C1409 0.930 . S
H1394 C1410 0.931 . S
C1395 H1383 0.929 . S
C1395 C1389 1.390 . S
C1395 C1392 1.386 . S
C1396 C1391 1.490 . S
C1396 C1398 1.395 1_455 S
C1396 C1399 1.403 . S
H1397 C1403 0.930 . S
C1398 H1384 0.930 1_655 S
C1398 C1396 1.395 1_655 S
C1398 C1401 1.403 . S
C1399 C1396 1.403 . S
C1399 C1400 1.524 . S
C1399 C1403 1.400 1_455 S
C1400 H1385 0.960 . S
C1400 H1386 0.960 . S
C1400 H1387 0.960 . S
C1400 C1399 1.524 . S
C1401 C1398 1.403 . S
C1401 C1402 1.392 . S
C1401 C1405 1.495 . S
C1402 C1401 1.392 . S
C1402 C1403 1.385 . S
C1402 C1404 1.478 . S
C1403 H1397 0.930 . S
C1403 C1399 1.400 1_655 S
C1403 C1402 1.385 . S
C1404 C1402 1.478 . S
C1404 C1406 1.381 . S
C1404 C1410 1.383 . S
C1405 C1401 1.495 . S
C1405 H1411 0.959 . S
C1405 H1412 0.961 . S
C1405 H1413 0.960 . S
C1406 C1404 1.381 . S
C1406 C1407 1.394 . S
C1406 H1414 0.930 . S
C1407 C1406 1.394 . S
C1407 C1408 1.383 . S
C1407 H1415 0.929 . S
C1408 C1407 1.383 . S
C1408 C1409 1.377 . S
C1409 H1393 0.930 . S
C1409 C1408 1.377 . S
C1409 C1410 1.379 . S
C1410 H1394 0.931 . S
C1410 C1404 1.383 . S
C1410 C1409 1.379 . S
H1411 C1405 0.959 . S
H1412 C1405 0.961 . S
H1413 C1405 0.960 . S
H1414 C1406 0.930 . S
H1415 C1407 0.929 . S
H1416 C1424 0.929 . S
H1417 C1426 0.930 . S
H1418 C1428 0.930 . S
H1419 C1431 0.929 . S
H1420 C1434 0.930 . S
H1421 C1436 0.960 . S
H1422 C1436 0.960 . S
H1423 C1436 0.960 . S
C1424 H1416 0.929 . S
C1424 C1425 1.377 . S
C1424 C1426 1.384 . S
C1425 C1424 1.377 . S
C1425 C1431 1.390 . S
C1426 H1417 0.930 . S
C1426 C1424 1.384 . S
C1426 C1427 1.372 . S
C1427 C1426 1.372 . S
C1427 C1428 1.400 . S
C1427 C1432 1.490 . S
C1428 H1418 0.930 . S
C1428 C1427 1.400 . S
C1428 C1431 1.386 . S
H1429 C1445 0.930 . S
H1430 C1446 0.931 . S
C1431 H1419 0.929 . S
C1431 C1425 1.390 . S
C1431 C1428 1.386 . S
C1432 C1427 1.490 . S
C1432 C1434 1.395 . S
C1432 C1435 1.403 1_545 S
H1433 C1439 0.930 . S
C1434 H1420 0.930 . S
C1434 C1432 1.395 . S
C1434 C1437 1.403 . S
C1435 C1432 1.403 1_565 S
C1435 C1436 1.524 . S
C1435 C1439 1.400 . S
C1436 H1421 0.960 . S
C1436 H1422 0.960 . S
C1436 H1423 0.960 . S
C1436 C1435 1.524 . S
C1437 C1434 1.403 . S
C1437 C1438 1.392 1_545 S
C1437 C1441 1.495 . S
C1438 C1437 1.392 1_565 S
C1438 C1439 1.385 . S
C1438 C1440 1.478 . S
C1439 H1433 0.930 . S
C1439 C1435 1.400 . S
C1439 C1438 1.385 . S
C1440 C1438 1.478 . S
C1440 C1442 1.381 . S
C1440 C1446 1.383 . S
C1441 C1437 1.495 . S
C1441 H1447 0.959 . S
C1441 H1448 0.961 . S
C1441 H1449 0.960 . S
C1442 C1440 1.381 . S
C1442 C1443 1.394 . S
C1442 H1450 0.930 . S
C1443 C1442 1.394 . S
C1443 C1444 1.383 . S
C1443 H1451 0.929 . S
C1444 C1443 1.383 . S
C1444 C1445 1.377 . S
C1445 H1429 0.930 . S
C1445 C1444 1.377 . S
C1445 C1446 1.379 . S
C1446 H1430 0.931 . S
C1446 C1440 1.383 . S
C1446 C1445 1.379 . S
H1447 C1441 0.959 . S
H1448 C1441 0.961 . S
H1449 C1441 0.960 . S
H1450 C1442 0.930 . S
H1451 C1443 0.929 . S
H1452 C1460 0.929 . S
H1453 C1462 0.930 . S
H1454 C1464 0.930 . S
H1455 C1467 0.929 . S
H1456 C1470 0.930 . S
H1457 C1472 0.960 . S
H1458 C1472 0.960 . S
H1459 C1472 0.960 . S
C1460 H1452 0.929 . S
C1460 C1461 1.377 . S
C1460 C1462 1.384 . S
C1461 C1460 1.377 . S
C1461 C1467 1.390 . S
C1462 H1453 0.930 . S
C1462 C1460 1.384 . S
C1462 C1463 1.372 . S
C1463 C1462 1.372 . S
C1463 C1464 1.400 . S
C1463 C1468 1.490 . S
C1464 H1454 0.930 . S
C1464 C1463 1.400 . S
C1464 C1467 1.386 . S
H1465 C1481 0.930 . S
H1466 C1482 0.931 . S
C1467 H1455 0.929 . S
C1467 C1461 1.390 . S
C1467 C1464 1.386 . S
C1468 C1463 1.490 . S
C1468 C1470 1.395 . S
C1468 C1471 1.403 . S
H1469 C1475 0.930 . S
C1470 H1456 0.930 . S
C1470 C1468 1.395 . S
C1470 C1473 1.403 . S
C1471 C1468 1.403 . S
C1471 C1472 1.524 . S
C1471 C1475 1.400 . S
C1472 H1457 0.960 . S
C1472 H1458 0.960 . S
C1472 H1459 0.960 . S
C1472 C1471 1.524 . S
C1473 C1470 1.403 . S
C1473 C1474 1.392 . S
C1473 C1477 1.495 . S
C1474 C1473 1.392 . S
C1474 C1475 1.385 . S
C1474 C1476 1.478 . S
C1475 H1469 0.930 . S
C1475 C1471 1.400 . S
C1475 C1474 1.385 . S
C1476 C1474 1.478 . S
C1476 C1478 1.381 . S
C1476 C1482 1.383 . S
C1477 C1473 1.495 . S
C1477 H1483 0.959 . S
C1477 H1484 0.961 . S
C1477 H1485 0.960 . S
C1478 C1476 1.381 . S
C1478 C1479 1.394 . S
C1478 H1486 0.930 . S
C1479 C1478 1.394 . S
C1479 C1480 1.383 . S
C1479 H1487 0.929 . S
C1480 C1479 1.383 . S
C1480 C1481 1.377 . S
C1481 H1465 0.930 . S
C1481 C1480 1.377 . S
C1481 C1482 1.379 . S
C1482 H1466 0.931 . S
C1482 C1476 1.383 . S
C1482 C1481 1.379 . S
H1483 C1477 0.959 . S
H1484 C1477 0.961 . S
H1485 C1477 0.960 . S
H1486 C1478 0.930 . S
H1487 C1479 0.929 . S
C417 C20 1.267 . S
C436 C376 1.217 . S
C453 C54 1.265 . S
C472 C206 1.218 . S
C489 C240 1.243 . S
C508 C88 1.281 . S
C525 C274 1.252 . S
C544 C122 1.270 . S
C561 C156 1.261 . S
C580 C308 1.232 . S
C597 C190 1.268 . S
C616 C342 1.242 . S
C633 C36 1.249 . S
C652 C224 1.243 . S
C669 C258 1.259 . S
C688 C70 1.249 . S
C705 C104 1.244 . S
C724 C292 1.284 . S
C741 C326 1.268 . S
C760 C138 1.218 . S
C777 C360 1.266 . S
C796 C172 1.216 . S
C813 C2 1.251 . S
C832 C394 1.272 . S
C849 C209 0.551 . S
C868 C5 0.519 . S
C885 C39 0.557 . S
C904 C243 0.562 . S
C921 C73 0.566 . S
C940 C277 0.600 . S
C957 C107 0.552 . S
C976 C311 0.521 . S
C993 C345 0.568 . S
C1012 C141 0.600 . S
C1029 C379 0.556 . S
C1048 C175 0.533 . S
C1065 C203 0.651 . S
C1084 C9 0.600 . S
C1101 C33 0.633 . S
C1120 C43 0.694 . S
C1137 C77 0.634 . S
C1156 C67 0.690 . S
C1173 C111 0.654 . S
C1192 C101 0.596 . S
C1209 C145 0.649 . S
C1228 C135 0.613 . S
C1245 C179 0.649 . S
C1264 C169 0.615 . S
C1281 C213 0.648 . S
C1300 C271 0.621 . S
C1317 C305 0.633 . S
C1336 C247 0.688 . S
C1353 C281 0.644 . S
C1372 C339 0.636 . S
C1389 C315 0.655 . S
C1408 C373 0.594 . S
C1425 C349 0.641 . S
C1444 C407 0.651 . S
C1461 C383 0.634 . S
C1480 C237 0.691 . S
