# Generated by pormake.
# Topology ths, (3)-cn, num edge types: 1
# Building blocks:
#     Node 0, Type 0, BuildingBlock: OLANEW_clean_sbu_2, # of connection points: 3
#     Node 1, Type 0, BuildingBlock: OLANEW_clean_sbu_2, # of connection points: 3
#     Node 2, Type 0, BuildingBlock: OLANEW_clean_sbu_2, # of connection points: 3
#     Node 3, Type 0, BuildingBlock: OLANEW_clean_sbu_2, # of connection points: 3
#     Node 4, Type 0, BuildingBlock: OLANEW_clean_sbu_2, # of connection points: 3
#     Node 5, Type 0, BuildingBlock: OLANEW_clean_sbu_2, # of connection points: 3
#     Node 6, Type 0, BuildingBlock: OLANEW_clean_sbu_2, # of connection points: 3
#     Node 7, Type 0, BuildingBlock: OLANEW_clean_sbu_2, # of connection points: 3
#     Edge 8, Type (0, 0), BuildingBlock: KIFKEQ_clean_linker_1, # of connection points: 2
#     Edge 9, Type (0, 0), BuildingBlock: KIFKEQ_clean_linker_1, # of connection points: 2
#     Edge 10, Type (0, 0), BuildingBlock: KIFKEQ_clean_linker_1, # of connection points: 2
#     Edge 11, Type (0, 0), BuildingBlock: KIFKEQ_clean_linker_1, # of connection points: 2
#     Edge 12, Type (0, 0), BuildingBlock: KIFKEQ_clean_linker_1, # of connection points: 2
#     Edge 13, Type (0, 0), BuildingBlock: KIFKEQ_clean_linker_1, # of connection points: 2
#     Edge 14, Type (0, 0), BuildingBlock: KIFKEQ_clean_linker_1, # of connection points: 2
#     Edge 15, Type (0, 0), BuildingBlock: KIFKEQ_clean_linker_1, # of connection points: 2
#     Edge 16, Type (0, 0), BuildingBlock: KIFKEQ_clean_linker_1, # of connection points: 2
#     Edge 17, Type (0, 0), BuildingBlock: KIFKEQ_clean_linker_1, # of connection points: 2
#     Edge 18, Type (0, 0), BuildingBlock: KIFKEQ_clean_linker_1, # of connection points: 2
#     Edge 19, Type (0, 0), BuildingBlock: KIFKEQ_clean_linker_1, # of connection points: 2
# Relax obj value: 0.000
# Max RMSD: 0.056
# Mean RMSD: 0.051
data_MOF--net-ths--node1-OLANEW_clean_sbu_2--edge1-KIFKEQ_clean_linker_1
_symmetry_space_group_name_H-M    P1
_symmetry_Int_Tables_number       1
_symmetry_cell_setting            triclinic
loop_
_symmetry_equiv_pos_as_xyz
'x, y, z'
_cell_length_a     32.329864
_cell_length_b     32.461838
_cell_length_c     79.594854
_cell_angle_alpha  102.41564
_cell_angle_beta   90.017084
_cell_angle_gamma 90.02119
loop_
_atom_site_label
_atom_site_type_symbol
_atom_site_fract_x
_atom_site_fract_y
_atom_site_fract_z
_atom_type_partial_charge
O0 O 0.1079 0.7508 0.04828 0.0
Cd1 Cd 0.08875 0.73172 0.01787 0.0
O2 O 0.16839 0.77964 0.04542 0.0
Cd3 Cd 0.16631 0.75036 0.0181 0.0
O4 O 0.15771 0.69122 -0.0007 0.0
C5 C 0.16267 0.65872 0.00557 0.0
O6 O 0.17345 0.66394 0.02182 0.0
C7 C 0.1397 0.77091 0.05502 0.0
C8 C 0.06801 0.80331 0.0056 0.0
O9 O 0.04196 0.7863 0.01417 0.0
O10 O 0.10376 0.7863 0.00265 0.0
O11 O 0.69411 0.68789 0.30218 0.0
Cd12 Cd 0.69191 0.69791 0.27269 0.0
O13 O 0.6268 0.69313 0.30645 0.0
Cd14 Cd 0.60702 0.70209 0.28127 0.0
O15 O 0.55252 0.71348 0.26664 0.0
C16 C 0.51954 0.69587 0.27026 0.0
O17 O 0.52148 0.67148 0.28145 0.0
C18 C 0.66297 0.688 0.31193 0.0
C19 C 0.77022 0.72152 0.26327 0.0
O20 O 0.74346 0.74934 0.26998 0.0
O21 O 0.75973 0.6826 0.26082 0.0
O22 O 0.4958 0.34553 0.57199 0.0
Cd23 Cd 0.45895 0.35459 0.54626 0.0
O24 O 0.52454 0.28856 0.55678 0.0
Cd25 Cd 0.56024 0.23 0.55239 0.0
O26 O 0.59261 0.17024 0.54382 0.0
C27 C 0.58095 0.13705 0.54851 0.0
O28 O 0.54947 0.1392 0.5591 0.0
C29 C 0.5202 0.31448 0.57112 0.0
C30 C 0.49071 0.42244 0.53411 0.0
O31 O 0.4608 0.42753 0.54492 0.0
O32 O 0.5054 0.38518 0.52898 0.0
O33 O 0.15216 0.25571 0.81238 0.0
Cd34 Cd 0.16339 0.27235 0.78424 0.0
O35 O 0.13192 0.19093 0.80119 0.0
Cd36 Cd 0.12172 0.20317 0.7756 0.0
O37 O 0.06977 0.21123 0.75902 0.0
C38 C 0.03974 0.2324 0.76681 0.0
O39 O 0.0437 0.24923 0.7833 0.0
C40 C 0.14144 0.21932 0.81429 0.0
C41 C 0.24775 0.27718 0.77738 0.0
O42 O 0.22753 0.30976 0.78507 0.0
O43 O 0.22802 0.24228 0.77287 0.0
O44 O 0.01472 0.1474 0.92846 0.0
Cd45 Cd 0.9741 0.13947 0.95343 0.0
O46 O 0.03722 0.2097 0.94157 0.0
Cd47 Cd 0.0671 0.27113 0.94365 0.0
O48 O 0.09452 0.33405 0.95014 0.0
C49 C 0.07542 0.36572 0.94694 0.0
O50 O 0.03933 0.35994 0.9392 0.0
C51 C 0.03609 0.18011 0.92819 0.0
C52 C 0.99544 0.06677 0.96468 0.0
O53 O 0.97058 0.0652 0.95201 0.0
O54 O 0.01027 0.10275 0.97206 0.0
O55 O 0.16053 0.79221 0.19085 0.0
Cd56 Cd 0.15936 0.79429 0.22168 0.0
O57 O 0.14233 0.85841 0.19307 0.0
Cd58 Cd 0.11983 0.86057 0.21909 0.0
O59 O 0.06773 0.84149 0.23318 0.0
C60 C 0.04857 0.80897 0.22513 0.0
O61 O 0.06251 0.7895 0.20999 0.0
C62 C 0.15468 0.82356 0.18391 0.0
C63 C 0.23748 0.77217 0.2318 0.0
O64 O 0.20948 0.74417 0.22693 0.0
O65 O 0.22828 0.81076 0.23217 0.0
O66 O 0.65548 0.71035 0.44729 0.0
Cd67 Cd 0.64651 0.73295 0.47838 0.0
O68 O 0.71882 0.73498 0.44708 0.0
Cd69 Cd 0.7146 0.76724 0.47402 0.0
O70 O 0.69714 0.82449 0.49246 0.0
C71 C 0.69029 0.85562 0.48552 0.0
O72 O 0.69478 0.85031 0.46878 0.0
C73 C 0.68828 0.71516 0.43909 0.0
C74 C 0.6124 0.66786 0.49167 0.0
O75 O 0.58924 0.695 0.48669 0.0
O76 O 0.65168 0.67186 0.49052 0.0
O77 O 0.65318 0.22693 0.68215 0.0
Cd78 Cd 0.66739 0.2073 0.70955 0.0
O79 O 0.62668 0.28798 0.69502 0.0
Cd80 Cd 0.62014 0.27241 0.72021 0.0
O81 O 0.56786 0.2685 0.7372 0.0
C82 C 0.54159 0.29803 0.73811 0.0
O83 O 0.54955 0.32844 0.73003 0.0
C84 C 0.63822 0.26266 0.68133 0.0
C85 C 0.75088 0.21696 0.7186 0.0
O86 O 0.737 0.18183 0.70986 0.0
O87 O 0.72529 0.24753 0.72299 0.0
H88 H 0.14929 0.38832 0.96303 0.0
H89 H 0.03929 0.44071 0.94489 0.0
H90 H 0.17415 0.45922 0.97534 0.0
H91 H 0.0638 0.51164 0.95755 0.0
H92 H 0.13367 0.63623 0.97243 0.0
H93 H 0.11625 0.56535 0.95634 0.0
H94 H 0.1541 0.51394 -0.0003 0.0
H95 H 0.17215 0.58418 0.01556 0.0
C96 C 0.13049 0.41495 0.96158 0.0
C97 C 0.0921 0.40882 0.95312 0.0
C98 C 0.14466 0.4556 0.96871 0.0
C99 C 0.12078 0.49109 0.96758 0.0
C100 C 0.08313 0.48501 0.95853 0.0
C101 C 0.06896 0.44431 0.95137 0.0
C102 C 0.13862 0.6097 0.97844 0.0
C103 C 0.15421 0.61586 0.99529 0.0
C104 C 0.12843 0.56915 0.96926 0.0
C105 C 0.13379 0.53398 0.97673 0.0
C106 C 0.15016 0.5402 0.99345 0.0
C107 C 0.16025 0.5806 0.0026 0.0
H108 H 1.00063 0.74184 0.21038 0.0
H109 H 0.00822 0.84402 0.25515 0.0
H110 H 0.93448 0.72068 0.22031 0.0
H111 H 0.94213 0.82215 0.26532 0.0
H112 H 0.80078 0.80127 0.26588 0.0
H113 H 0.86923 0.82153 0.25762 0.0
H114 H 0.9031 0.69006 0.24224 0.0
H115 H 0.83441 0.6698 0.25013 0.0
C116 C 0.9884 0.75956 0.22245 0.0
C117 C 0.00969 0.79473 0.23194 0.0
C118 C 0.9505 0.74724 0.2282 0.0
C119 C 0.93291 0.76972 0.24361 0.0
C120 C 0.95455 0.80449 0.25328 0.0
C121 C 0.99256 0.81685 0.24751 0.0
C122 C 0.82285 0.77669 0.26075 0.0
C123 C 0.81204 0.73391 0.25857 0.0
C124 C 0.86221 0.78832 0.25614 0.0
C125 C 0.89168 0.75743 0.24925 0.0
C126 C 0.88098 0.71466 0.24728 0.0
C127 C 0.84162 0.70304 0.25186 0.0
H128 H 0.46556 0.50475 0.54222 0.0
H129 H 0.55509 0.42187 0.51183 0.0
H130 H 0.49497 0.56446 0.53225 0.0
H131 H 0.58401 0.48144 0.50167 0.0
H132 H 0.65338 0.60458 0.50241 0.0
H133 H 0.62366 0.54571 0.51281 0.0
H134 H 0.50085 0.59187 0.50596 0.0
H135 H 0.53055 0.65118 0.4958 0.0
C136 C 0.4914 0.49923 0.53336 0.0
C137 C 0.50803 0.45857 0.52783 0.0
C138 C 0.5081 0.53342 0.52758 0.0
C139 C 0.54186 0.5277 0.51619 0.0
C140 C 0.55837 0.48699 0.51062 0.0
C141 C 0.54162 0.4528 0.51637 0.0
C142 C 0.62004 0.60225 0.50316 0.0
C143 C 0.59433 0.63256 0.49827 0.0
C144 C 0.60301 0.56836 0.50902 0.0
C145 C 0.5599 0.56404 0.51016 0.0
C146 C 0.53419 0.59455 0.5054 0.0
C147 C 0.55122 0.62842 0.4995 0.0
H148 H 0.97017 0.27387 0.78045 0.0
H149 H 0.01801 0.1956 0.73362 0.0
H150 H 0.90205 0.27213 0.76745 0.0
H151 H 0.94968 0.19467 0.7204 0.0
H152 H 0.81135 0.15664 0.71312 0.0
H153 H 0.88258 0.16344 0.72339 0.0
H154 H 0.86156 0.29522 0.74584 0.0
H155 H 0.79004 0.28816 0.73594 0.0
C156 C 0.96631 0.25675 0.76727 0.0
C157 C 0.99953 0.23465 0.75812 0.0
C158 C 0.92721 0.25598 0.75977 0.0
C159 C 0.92029 0.23316 0.74288 0.0
C160 C 0.95382 0.21208 0.73352 0.0
C161 C 0.99304 0.21285 0.74105 0.0
C162 C 0.82199 0.18713 0.72016 0.0
C163 C 0.7949 0.22176 0.72384 0.0
C164 C 0.86295 0.19111 0.72594 0.0
C165 C 0.8778 0.22985 0.7355 0.0
C166 C 0.85097 0.26477 0.73874 0.0
C167 C 0.81 0.26076 0.733 0.0
H168 H 0.51068 0.2354 0.75288 0.0
H169 H 0.4801 0.35668 0.74207 0.0
H170 H 0.44107 0.23051 0.76428 0.0
H171 H 0.41068 0.3514 0.75307 0.0
H172 H 0.29818 0.34611 0.78597 0.0
H173 H 0.37097 0.35148 0.77879 0.0
H174 H 0.37098 0.22018 0.75273 0.0
H175 H 0.29839 0.21455 0.76023 0.0
C176 C 0.48927 0.26114 0.75306 0.0
C177 C 0.50091 0.29635 0.7465 0.0
C178 C 0.4493 0.25821 0.75947 0.0
C179 C 0.42022 0.29047 0.75952 0.0
C180 C 0.43238 0.3262 0.75343 0.0
C181 C 0.47221 0.3291 0.74702 0.0
C182 C 0.31375 0.31831 0.77879 0.0
C183 C 0.29239 0.27997 0.77358 0.0
C184 C 0.35546 0.32143 0.77462 0.0
C185 C 0.3768 0.28631 0.76511 0.0
C186 C 0.35565 0.24771 0.76024 0.0
C187 C 0.31393 0.24457 0.76443 0.0
H188 H 0.30337 0.82409 0.24252 0.0
H189 H 0.26635 0.69312 0.23193 0.0
H190 H 0.37208 0.80432 0.25069 0.0
H191 H 0.33526 0.67332 0.23979 0.0
H192 H 0.44457 0.66227 0.27549 0.0
H193 H 0.37719 0.68019 0.26553 0.0
H194 H 0.43502 0.76742 0.23873 0.0
H195 H 0.50271 0.75002 0.24899 0.0
C196 C 0.30993 0.79107 0.24187 0.0
C197 C 0.2793 0.76021 0.23666 0.0
C198 C 0.34943 0.77971 0.24642 0.0
C199 C 0.35918 0.73723 0.24589 0.0
C200 C 0.32861 0.70636 0.24055 0.0
C201 C 0.28914 0.71771 0.23599 0.0
C202 C 0.44305 0.68511 0.26739 0.0
C203 C 0.47905 0.70483 0.26308 0.0
C204 C 0.40436 0.69521 0.2616 0.0
C205 C 0.40067 0.7253 0.25136 0.0
C206 C 0.43676 0.7445 0.24678 0.0
C207 C 0.47556 0.73432 0.25256 0.0
H208 H 0.67567 0.92748 0.47411 0.0
H209 H 0.67419 0.87726 0.52019 0.0
H210 H 0.65183 0.99514 0.49054 0.0
H211 H 0.65082 0.94569 0.53678 0.0
H212 H 0.55995 0.05901 0.55373 0.0
H213 H 0.58881 0.99097 0.5395 0.0
H214 H 0.67584 0.05439 0.51253 0.0
H215 H 0.64662 0.12222 0.52647 0.0
C216 C 0.67053 0.93094 0.48779 0.0
C217 C 0.67683 0.89694 0.49583 0.0
C218 C 0.65712 0.96989 0.49724 0.0
C219 C 0.64966 0.97589 0.51499 0.0
C220 C 0.65603 0.94194 0.52309 0.0
C221 C 0.6696 0.90285 0.51361 0.0
C222 C 0.58546 0.05845 0.54487 0.0
C223 C 0.60069 0.09603 0.5411 0.0
C224 C 0.60214 0.01945 0.53679 0.0
C225 C 0.63436 0.01727 0.52477 0.0
C226 C 0.65053 0.05497 0.52149 0.0
C227 C 0.63389 0.09387 0.52955 0.0
H228 H 0.00939 0.86193 0.01851 0.0
H229 H 0.10256 0.83145 0.97888 0.0
H230 H 0.99255 0.92644 0.00865 0.0
H231 H 0.08474 0.8954 0.96876 0.0
H232 H 0.99277 0.98563 0.94629 0.0
H233 H 0.01115 0.92153 0.95616 0.0
H234 H 0.04026 0.99649 0.0064 0.0
H235 H 0.02307 0.06084 0.99646 0.0
C236 C 0.02604 0.86888 0.00764 0.0
C237 C 0.05727 0.84174 -0.00056 0.0
C238 C 0.01653 0.90579 0.00208 0.0
C239 C 0.03741 0.91561 0.98799 0.0
C240 C 0.06821 0.88827 0.97964 0.0
C241 C 0.07843 0.85187 0.98545 0.0
C242 C 0.00319 0.98842 0.95942 0.0
C243 C 0.00654 0.02816 0.97062 0.0
C244 C 0.0138 0.95184 0.96502 0.0
C245 C 0.02698 0.95433 0.982 0.0
C246 C 0.03001 0.99394 0.99325 0.0
C247 C 0.02034 0.03062 0.98755 0.0
H248 H 0.16491 0.75006 0.16025 0.0
H249 H 0.15362 0.88476 0.16486 0.0
H250 H 0.16395 0.73978 0.12904 0.0
H251 H 0.15318 0.87414 0.13341 0.0
H252 H 0.19389 0.82667 0.07462 0.0
H253 H 0.2015 0.84179 0.10606 0.0
H254 H 0.10286 0.75432 0.10939 0.0
H255 H 0.09473 0.73963 0.07828 0.0
C256 C 0.16283 0.77756 0.15463 0.0
C257 C 0.15897 0.81823 0.16505 0.0
C258 C 0.16214 0.77159 0.13676 0.0
C259 C 0.15815 0.80615 0.1289 0.0
C260 C 0.15637 0.84703 0.13922 0.0
C261 C 0.15647 0.85303 0.15717 0.0
C262 C 0.17374 0.81088 0.0821 0.0
C263 C 0.14377 0.7819 0.07397 0.0
C264 C 0.17804 0.81962 0.10004 0.0
C265 C 0.153 0.79889 0.11004 0.0
C266 C 0.12286 0.77033 0.10192 0.0
C267 C 0.11809 0.76215 0.08411 0.0
H268 H 0.74597 0.73456 0.4169 0.0
H269 H 0.63259 0.66485 0.41834 0.0
H270 H 0.74176 0.72116 0.38568 0.0
H271 H 0.62911 0.65022 0.38705 0.0
H272 H 0.6036 0.69297 0.33661 0.0
H273 H 0.61282 0.69214 0.36676 0.0
H274 H 0.74405 0.67197 0.35843 0.0
H275 H 0.73495 0.67408 0.32817 0.0
C276 C 0.72064 0.71554 0.41053 0.0
C277 C 0.6893 0.70128 0.42012 0.0
C278 C 0.71834 0.70766 0.39259 0.0
C279 C 0.6848 0.68506 0.38384 0.0
C280 C 0.65486 0.66856 0.3934 0.0
C281 C 0.65698 0.67673 0.41134 0.0
C282 C 0.63443 0.688 0.34113 0.0
C283 C 0.66858 0.68393 0.32998 0.0
C284 C 0.63968 0.68716 0.35844 0.0
C285 C 0.6792 0.68195 0.36506 0.0
C286 C 0.71326 0.67657 0.3538 0.0
C287 C 0.70802 0.6776 0.33644 0.0
H288 H 0.49317 0.33798 0.60403 0.0
H289 H 0.59635 0.27888 0.57375 0.0
H290 H 0.5272 0.32767 0.6301 0.0
H291 H 0.63033 0.26797 0.59987 0.0
H292 H 0.61089 0.33767 0.67528 0.0
H293 H 0.58689 0.35209 0.64816 0.0
H294 H 0.62101 0.22589 0.62207 0.0
H295 H 0.64581 0.21157 0.64921 0.0
C296 C 0.52315 0.32274 0.60295 0.0
C297 C 0.54157 0.30822 0.58679 0.0
C298 C 0.54279 0.31704 0.61789 0.0
C299 C 0.58148 0.29695 0.61705 0.0
C300 C 0.60022 0.28292 0.6009 0.0
C301 C 0.58055 0.28874 0.58592 0.0
C302 C 0.61389 0.31315 0.66373 0.0
C303 C 0.62983 0.27328 0.66446 0.0
C304 C 0.59987 0.32136 0.6482 0.0
C305 C 0.60137 0.2899 0.63302 0.0
C306 C 0.61953 0.25083 0.63353 0.0
C307 C 0.63366 0.2426 0.64911 0.0
H308 H 0.01173 0.14539 0.89569 0.0
H309 H 0.10818 0.2221 0.92421 0.0
H310 H 0.04358 0.15274 0.86883 0.0
H311 H 0.14011 0.22989 0.89722 0.0
H312 H 0.14581 0.27592 0.8452 0.0
H313 H 0.12525 0.26445 0.87331 0.0
H314 H 0.10394 0.13263 0.85103 0.0
H315 H 0.12354 0.14421 0.82288 0.0
C316 C 0.03988 0.16374 0.89621 0.0
C317 C 0.05685 0.18408 0.91207 0.0
C318 C 0.05831 0.16776 0.88081 0.0
C319 C 0.0944 0.19196 0.88087 0.0
C320 C 0.11193 0.21162 0.89675 0.0
C321 C 0.09342 0.20754 0.91221 0.0
C322 C 0.13739 0.24434 0.84634 0.0
C323 C 0.13575 0.21111 0.83174 0.0
C324 C 0.12574 0.23775 0.86248 0.0
C325 C 0.11234 0.19777 0.86435 0.0
C326 C 0.11321 0.16402 0.84994 0.0
C327 C 0.1247 0.17063 0.83382 0.0
loop_
_geom_bond_atom_site_label_1
_geom_bond_atom_site_label_2
_geom_bond_distance
_geom_bond_site_symmetry_2
_ccdc_geom_bond_type
O0 Cd1 2.300 . S
O0 C7 1.275 . S
Cd1 O0 2.300 . S
Cd1 O9 2.381 . S
Cd1 O10 2.378 . S
O2 Cd3 2.385 . S
O2 C7 1.255 . S
Cd3 O2 2.385 . S
Cd3 O4 2.317 . S
O4 Cd3 2.317 . S
O4 C5 1.232 . S
C5 O4 1.232 . S
C5 O6 1.218 . S
O6 C5 1.218 . S
C7 O0 1.275 . S
C7 O2 1.255 . S
C8 O9 1.258 . S
C8 O10 1.256 . S
O9 Cd1 2.381 . S
O9 C8 1.258 . S
O10 Cd1 2.378 . S
O10 C8 1.256 . S
O11 Cd12 2.300 . S
O11 C18 1.275 . S
Cd12 O11 2.300 . S
Cd12 O20 2.381 . S
Cd12 O21 2.378 . S
O13 Cd14 2.385 . S
O13 C18 1.255 . S
Cd14 O13 2.385 . S
Cd14 O15 2.317 . S
O15 Cd14 2.317 . S
O15 C16 1.232 . S
C16 O15 1.232 . S
C16 O17 1.218 . S
O17 C16 1.218 . S
C18 O11 1.275 . S
C18 O13 1.255 . S
C19 O20 1.258 . S
C19 O21 1.256 . S
O20 Cd12 2.381 . S
O20 C19 1.258 . S
O21 Cd12 2.378 . S
O21 C19 1.256 . S
O22 Cd23 2.300 . S
O22 C29 1.275 . S
Cd23 O22 2.300 . S
Cd23 O31 2.381 . S
Cd23 O32 2.378 . S
O24 Cd25 2.385 . S
O24 C29 1.255 . S
Cd25 O24 2.385 . S
Cd25 O26 2.317 . S
O26 Cd25 2.317 . S
O26 C27 1.232 . S
C27 O26 1.232 . S
C27 O28 1.218 . S
O28 C27 1.218 . S
C29 O22 1.275 . S
C29 O24 1.255 . S
C30 O31 1.258 . S
C30 O32 1.256 . S
O31 Cd23 2.381 . S
O31 C30 1.258 . S
O32 Cd23 2.378 . S
O32 C30 1.256 . S
O33 Cd34 2.300 . S
O33 C40 1.275 . S
Cd34 O33 2.300 . S
Cd34 O42 2.381 . S
Cd34 O43 2.378 . S
O35 Cd36 2.385 . S
O35 C40 1.255 . S
Cd36 O35 2.385 . S
Cd36 O37 2.317 . S
O37 Cd36 2.317 . S
O37 C38 1.232 . S
C38 O37 1.232 . S
C38 O39 1.218 . S
O39 C38 1.218 . S
C40 O33 1.275 . S
C40 O35 1.255 . S
C41 O42 1.258 . S
C41 O43 1.256 . S
O42 Cd34 2.381 . S
O42 C41 1.258 . S
O43 Cd34 2.378 . S
O43 C41 1.256 . S
O44 Cd45 2.300 . S
O44 C51 1.275 . S
Cd45 O44 2.300 . S
Cd45 O53 2.381 . S
Cd45 O54 2.378 . S
O46 Cd47 2.385 . S
O46 C51 1.255 . S
Cd47 O46 2.385 . S
Cd47 O48 2.317 . S
O48 Cd47 2.317 . S
O48 C49 1.232 . S
C49 O48 1.232 . S
C49 O50 1.218 . S
O50 C49 1.218 . S
C51 O44 1.275 . S
C51 O46 1.255 . S
C52 O53 1.258 . S
C52 O54 1.256 . S
O53 Cd45 2.381 . S
O53 C52 1.258 . S
O54 Cd45 2.378 . S
O54 C52 1.256 . S
O55 Cd56 2.300 . S
O55 C62 1.275 . S
Cd56 O55 2.300 . S
Cd56 O64 2.381 . S
Cd56 O65 2.378 . S
O57 Cd58 2.385 . S
O57 C62 1.255 . S
Cd58 O57 2.385 . S
Cd58 O59 2.317 . S
O59 Cd58 2.317 . S
O59 C60 1.232 . S
C60 O59 1.232 . S
C60 O61 1.218 . S
O61 C60 1.218 . S
C62 O55 1.275 . S
C62 O57 1.255 . S
C63 O64 1.258 . S
C63 O65 1.256 . S
O64 Cd56 2.381 . S
O64 C63 1.258 . S
O65 Cd56 2.378 . S
O65 C63 1.256 . S
O66 Cd67 2.300 . S
O66 C73 1.275 . S
Cd67 O66 2.300 . S
Cd67 O75 2.381 . S
Cd67 O76 2.378 . S
O68 Cd69 2.385 . S
O68 C73 1.255 . S
Cd69 O68 2.385 . S
Cd69 O70 2.317 . S
O70 Cd69 2.317 . S
O70 C71 1.232 . S
C71 O70 1.232 . S
C71 O72 1.218 . S
O72 C71 1.218 . S
C73 O66 1.275 . S
C73 O68 1.255 . S
C74 O75 1.258 . S
C74 O76 1.256 . S
O75 Cd67 2.381 . S
O75 C74 1.258 . S
O76 Cd67 2.378 . S
O76 C74 1.256 . S
O77 Cd78 2.300 . S
O77 C84 1.275 . S
Cd78 O77 2.300 . S
Cd78 O86 2.381 . S
Cd78 O87 2.378 . S
O79 Cd80 2.385 . S
O79 C84 1.255 . S
Cd80 O79 2.385 . S
Cd80 O81 2.317 . S
O81 Cd80 2.317 . S
O81 C82 1.232 . S
C82 O81 1.232 . S
C82 O83 1.218 . S
O83 C82 1.218 . S
C84 O77 1.275 . S
C84 O79 1.255 . S
C85 O86 1.258 . S
C85 O87 1.256 . S
O86 Cd78 2.381 . S
O86 C85 1.258 . S
O87 Cd78 2.378 . S
O87 C85 1.256 . S
H88 C96 0.950 1_554 S
H89 C101 0.950 . S
H90 C98 0.950 . S
H91 C100 0.950 . S
H92 C102 0.950 1_556 S
H93 C104 0.950 . S
H94 C106 0.950 . S
H95 C107 0.950 . S
C96 H88 0.950 1_556 S
C96 C97 1.386 . S
C96 C98 1.391 1_556 S
C97 C96 1.386 . S
C97 C101 1.393 . S
C98 H90 0.950 . S
C98 C96 1.391 1_554 S
C98 C99 1.400 1_554 S
C99 C98 1.400 1_556 S
C99 C100 1.398 . S
C99 C105 1.491 1_556 S
C100 H91 0.950 . S
C100 C99 1.398 . S
C100 C101 1.391 . S
C101 H89 0.950 . S
C101 C97 1.393 . S
C101 C100 1.391 . S
C102 H92 0.950 1_554 S
C102 C103 1.386 . S
C102 C104 1.391 1_554 S
C103 C102 1.386 . S
C103 C107 1.393 . S
C104 H93 0.950 . S
C104 C102 1.391 1_556 S
C104 C105 1.400 1_556 S
C105 C99 1.491 1_554 S
C105 C104 1.400 1_554 S
C105 C106 1.398 . S
C106 H94 0.950 . S
C106 C105 1.398 . S
C106 C107 1.391 . S
C107 H95 0.950 . S
C107 C103 1.393 . S
C107 C106 1.391 . S
H108 C116 0.950 . S
H109 C121 0.950 . S
H110 C118 0.950 . S
H111 C120 0.950 . S
H112 C122 0.950 . S
H113 C124 0.950 . S
H114 C126 0.950 . S
H115 C127 0.950 . S
C116 H108 0.950 . S
C116 C117 1.386 . S
C116 C118 1.391 1_455 S
C117 C116 1.386 . S
C117 C121 1.393 . S
C118 H110 0.950 . S
C118 C116 1.391 1_655 S
C118 C119 1.400 . S
C119 C118 1.400 . S
C119 C120 1.398 . S
C119 C125 1.491 . S
C120 H111 0.950 . S
C120 C119 1.398 . S
C120 C121 1.391 1_655 S
C121 H109 0.950 . S
C121 C117 1.393 . S
C121 C120 1.391 1_455 S
C122 H112 0.950 . S
C122 C123 1.386 . S
C122 C124 1.391 . S
C123 C122 1.386 . S
C123 C127 1.393 . S
C124 H113 0.950 . S
C124 C122 1.391 . S
C124 C125 1.400 . S
C125 C119 1.491 . S
C125 C124 1.400 . S
C125 C126 1.398 . S
C126 H114 0.950 . S
C126 C125 1.398 . S
C126 C127 1.391 . S
C127 H115 0.950 . S
C127 C123 1.393 . S
C127 C126 1.391 . S
H128 C136 0.950 . S
H129 C141 0.950 . S
H130 C138 0.950 . S
H131 C140 0.950 . S
H132 C142 0.950 . S
H133 C144 0.950 . S
H134 C146 0.950 . S
H135 C147 0.950 . S
C136 H128 0.950 . S
C136 C137 1.386 . S
C136 C138 1.391 . S
C137 C136 1.386 . S
C137 C141 1.393 . S
C138 H130 0.950 . S
C138 C136 1.391 . S
C138 C139 1.400 . S
C139 C138 1.400 . S
C139 C140 1.398 . S
C139 C145 1.491 . S
C140 H131 0.950 . S
C140 C139 1.398 . S
C140 C141 1.391 . S
C141 H129 0.950 . S
C141 C137 1.393 . S
C141 C140 1.391 . S
C142 H132 0.950 . S
C142 C143 1.386 . S
C142 C144 1.391 . S
C143 C142 1.386 . S
C143 C147 1.393 . S
C144 H133 0.950 . S
C144 C142 1.391 . S
C144 C145 1.400 . S
C145 C139 1.491 . S
C145 C144 1.400 . S
C145 C146 1.398 . S
C146 H134 0.950 . S
C146 C145 1.398 . S
C146 C147 1.391 . S
C147 H135 0.950 . S
C147 C143 1.393 . S
C147 C146 1.391 . S
H148 C156 0.950 1_455 S
H149 C161 0.950 . S
H150 C158 0.950 . S
H151 C160 0.950 . S
H152 C162 0.950 . S
H153 C164 0.950 . S
H154 C166 0.950 . S
H155 C167 0.950 . S
C156 H148 0.950 1_655 S
C156 C157 1.386 1_655 S
C156 C158 1.391 . S
C157 C156 1.386 1_455 S
C157 C161 1.393 . S
C158 H150 0.950 . S
C158 C156 1.391 . S
C158 C159 1.400 . S
C159 C158 1.400 . S
C159 C160 1.398 . S
C159 C165 1.491 . S
C160 H151 0.950 . S
C160 C159 1.398 . S
C160 C161 1.391 1_655 S
C161 H149 0.950 . S
C161 C157 1.393 . S
C161 C160 1.391 1_455 S
C162 H152 0.950 . S
C162 C163 1.386 . S
C162 C164 1.391 . S
C163 C162 1.386 . S
C163 C167 1.393 . S
C164 H153 0.950 . S
C164 C162 1.391 . S
C164 C165 1.400 . S
C165 C159 1.491 . S
C165 C164 1.400 . S
C165 C166 1.398 . S
C166 H154 0.950 . S
C166 C165 1.398 . S
C166 C167 1.391 . S
C167 H155 0.950 . S
C167 C163 1.393 . S
C167 C166 1.391 . S
H168 C176 0.950 . S
H169 C181 0.950 . S
H170 C178 0.950 . S
H171 C180 0.950 . S
H172 C182 0.950 . S
H173 C184 0.950 . S
H174 C186 0.950 . S
H175 C187 0.950 . S
C176 H168 0.950 . S
C176 C177 1.386 . S
C176 C178 1.391 . S
C177 C176 1.386 . S
C177 C181 1.393 . S
C178 H170 0.950 . S
C178 C176 1.391 . S
C178 C179 1.400 . S
C179 C178 1.400 . S
C179 C180 1.398 . S
C179 C185 1.491 . S
C180 H171 0.950 . S
C180 C179 1.398 . S
C180 C181 1.391 . S
C181 H169 0.950 . S
C181 C177 1.393 . S
C181 C180 1.391 . S
C182 H172 0.950 . S
C182 C183 1.386 . S
C182 C184 1.391 . S
C183 C182 1.386 . S
C183 C187 1.393 . S
C184 H173 0.950 . S
C184 C182 1.391 . S
C184 C185 1.400 . S
C185 C179 1.491 . S
C185 C184 1.400 . S
C185 C186 1.398 . S
C186 H174 0.950 . S
C186 C185 1.398 . S
C186 C187 1.391 . S
C187 H175 0.950 . S
C187 C183 1.393 . S
C187 C186 1.391 . S
H188 C196 0.950 . S
H189 C201 0.950 . S
H190 C198 0.950 . S
H191 C200 0.950 . S
H192 C202 0.950 . S
H193 C204 0.950 . S
H194 C206 0.950 . S
H195 C207 0.950 . S
C196 H188 0.950 . S
C196 C197 1.386 . S
C196 C198 1.391 . S
C197 C196 1.386 . S
C197 C201 1.393 . S
C198 H190 0.950 . S
C198 C196 1.391 . S
C198 C199 1.400 . S
C199 C198 1.400 . S
C199 C200 1.398 . S
C199 C205 1.491 . S
C200 H191 0.950 . S
C200 C199 1.398 . S
C200 C201 1.391 . S
C201 H189 0.950 . S
C201 C197 1.393 . S
C201 C200 1.391 . S
C202 H192 0.950 . S
C202 C203 1.386 . S
C202 C204 1.391 . S
C203 C202 1.386 . S
C203 C207 1.393 . S
C204 H193 0.950 . S
C204 C202 1.391 . S
C204 C205 1.400 . S
C205 C199 1.491 . S
C205 C204 1.400 . S
C205 C206 1.398 . S
C206 H194 0.950 . S
C206 C205 1.398 . S
C206 C207 1.391 . S
C207 H195 0.950 . S
C207 C203 1.393 . S
C207 C206 1.391 . S
H208 C216 0.950 . S
H209 C221 0.950 . S
H210 C218 0.950 . S
H211 C220 0.950 . S
H212 C222 0.950 . S
H213 C224 0.950 . S
H214 C226 0.950 . S
H215 C227 0.950 . S
C216 H208 0.950 . S
C216 C217 1.386 . S
C216 C218 1.391 . S
C217 C216 1.386 . S
C217 C221 1.393 . S
C218 H210 0.950 . S
C218 C216 1.391 . S
C218 C219 1.400 . S
C219 C218 1.400 . S
C219 C220 1.398 . S
C219 C225 1.491 1_565 S
C220 H211 0.950 . S
C220 C219 1.398 . S
C220 C221 1.391 . S
C221 H209 0.950 . S
C221 C217 1.393 . S
C221 C220 1.391 . S
C222 H212 0.950 . S
C222 C223 1.386 . S
C222 C224 1.391 . S
C223 C222 1.386 . S
C223 C227 1.393 . S
C224 H213 0.950 . S
C224 C222 1.391 . S
C224 C225 1.400 . S
C225 C219 1.491 1_545 S
C225 C224 1.400 . S
C225 C226 1.398 . S
C226 H214 0.950 . S
C226 C225 1.398 . S
C226 C227 1.391 . S
C227 H215 0.950 . S
C227 C223 1.393 . S
C227 C226 1.391 . S
H228 C236 0.950 . S
H229 C241 0.950 . S
H230 C238 0.950 1_545 S
H231 C240 0.950 . S
H232 C242 0.950 . S
H233 C244 0.950 1_565 S
H234 C246 0.950 . S
H235 C247 0.950 . S
C236 H228 0.950 . S
C236 C237 1.386 . S
C236 C238 1.391 . S
C237 C236 1.386 . S
C237 C241 1.393 1_554 S
C238 H230 0.950 1_565 S
C238 C236 1.391 . S
C238 C239 1.400 . S
C239 C238 1.400 . S
C239 C240 1.398 1_554 S
C239 C245 1.491 1_564 S
C240 H231 0.950 . S
C240 C239 1.398 1_556 S
C240 C241 1.391 . S
C241 H229 0.950 . S
C241 C237 1.393 1_556 S
C241 C240 1.391 . S
C242 H232 0.950 . S
C242 C243 1.386 . S
C242 C244 1.391 . S
C243 C242 1.386 . S
C243 C247 1.393 1_556 S
C244 H233 0.950 1_545 S
C244 C242 1.391 . S
C244 C245 1.400 . S
C245 C239 1.491 1_546 S
C245 C244 1.400 . S
C245 C246 1.398 1_556 S
C246 H234 0.950 . S
C246 C245 1.398 1_554 S
C246 C247 1.391 . S
C247 H235 0.950 . S
C247 C243 1.393 1_554 S
C247 C246 1.391 . S
H248 C256 0.950 . S
H249 C261 0.950 . S
H250 C258 0.950 . S
H251 C260 0.950 . S
H252 C262 0.950 . S
H253 C264 0.950 . S
H254 C266 0.950 . S
H255 C267 0.950 . S
C256 H248 0.950 . S
C256 C257 1.386 . S
C256 C258 1.391 . S
C257 C256 1.386 . S
C257 C261 1.393 . S
C258 H250 0.950 . S
C258 C256 1.391 . S
C258 C259 1.400 . S
C259 C258 1.400 . S
C259 C260 1.398 . S
C259 C265 1.491 . S
C260 H251 0.950 . S
C260 C259 1.398 . S
C260 C261 1.391 . S
C261 H249 0.950 . S
C261 C257 1.393 . S
C261 C260 1.391 . S
C262 H252 0.950 . S
C262 C263 1.386 . S
C262 C264 1.391 . S
C263 C262 1.386 . S
C263 C267 1.393 . S
C264 H253 0.950 . S
C264 C262 1.391 . S
C264 C265 1.400 . S
C265 C259 1.491 . S
C265 C264 1.400 . S
C265 C266 1.398 . S
C266 H254 0.950 . S
C266 C265 1.398 . S
C266 C267 1.391 . S
C267 H255 0.950 . S
C267 C263 1.393 . S
C267 C266 1.391 . S
H268 C276 0.950 . S
H269 C281 0.950 . S
H270 C278 0.950 . S
H271 C280 0.950 . S
H272 C282 0.950 . S
H273 C284 0.950 . S
H274 C286 0.950 . S
H275 C287 0.950 . S
C276 H268 0.950 . S
C276 C277 1.386 . S
C276 C278 1.391 . S
C277 C276 1.386 . S
C277 C281 1.393 . S
C278 H270 0.950 . S
C278 C276 1.391 . S
C278 C279 1.400 . S
C279 C278 1.400 . S
C279 C280 1.398 . S
C279 C285 1.491 . S
C280 H271 0.950 . S
C280 C279 1.398 . S
C280 C281 1.391 . S
C281 H269 0.950 . S
C281 C277 1.393 . S
C281 C280 1.391 . S
C282 H272 0.950 . S
C282 C283 1.386 . S
C282 C284 1.391 . S
C283 C282 1.386 . S
C283 C287 1.393 . S
C284 H273 0.950 . S
C284 C282 1.391 . S
C284 C285 1.400 . S
C285 C279 1.491 . S
C285 C284 1.400 . S
C285 C286 1.398 . S
C286 H274 0.950 . S
C286 C285 1.398 . S
C286 C287 1.391 . S
C287 H275 0.950 . S
C287 C283 1.393 . S
C287 C286 1.391 . S
H288 C296 0.950 . S
H289 C301 0.950 . S
H290 C298 0.950 . S
H291 C300 0.950 . S
H292 C302 0.950 . S
H293 C304 0.950 . S
H294 C306 0.950 . S
H295 C307 0.950 . S
C296 H288 0.950 . S
C296 C297 1.386 . S
C296 C298 1.391 . S
C297 C296 1.386 . S
C297 C301 1.393 . S
C298 H290 0.950 . S
C298 C296 1.391 . S
C298 C299 1.400 . S
C299 C298 1.400 . S
C299 C300 1.398 . S
C299 C305 1.491 . S
C300 H291 0.950 . S
C300 C299 1.398 . S
C300 C301 1.391 . S
C301 H289 0.950 . S
C301 C297 1.393 . S
C301 C300 1.391 . S
C302 H292 0.950 . S
C302 C303 1.386 . S
C302 C304 1.391 . S
C303 C302 1.386 . S
C303 C307 1.393 . S
C304 H293 0.950 . S
C304 C302 1.391 . S
C304 C305 1.400 . S
C305 C299 1.491 . S
C305 C304 1.400 . S
C305 C306 1.398 . S
C306 H294 0.950 . S
C306 C305 1.398 . S
C306 C307 1.391 . S
C307 H295 0.950 . S
C307 C303 1.393 . S
C307 C306 1.391 . S
H308 C316 0.950 . S
H309 C321 0.950 . S
H310 C318 0.950 . S
H311 C320 0.950 . S
H312 C322 0.950 . S
H313 C324 0.950 . S
H314 C326 0.950 . S
H315 C327 0.950 . S
C316 H308 0.950 . S
C316 C317 1.386 . S
C316 C318 1.391 . S
C317 C316 1.386 . S
C317 C321 1.393 . S
C318 H310 0.950 . S
C318 C316 1.391 . S
C318 C319 1.400 . S
C319 C318 1.400 . S
C319 C320 1.398 . S
C319 C325 1.491 . S
C320 H311 0.950 . S
C320 C319 1.398 . S
C320 C321 1.391 . S
C321 H309 0.950 . S
C321 C317 1.393 . S
C321 C320 1.391 . S
C322 H312 0.950 . S
C322 C323 1.386 . S
C322 C324 1.391 . S
C323 C322 1.386 . S
C323 C327 1.393 . S
C324 H313 0.950 . S
C324 C322 1.391 . S
C324 C325 1.400 . S
C325 C319 1.491 . S
C325 C324 1.400 . S
C325 C326 1.398 . S
C326 H314 0.950 . S
C326 C325 1.398 . S
C326 C327 1.391 . S
C327 H315 0.950 . S
C327 C323 1.393 . S
C327 C326 1.391 . S
C97 C49 1.269 . S
C103 C5 1.303 . S
C117 C60 1.308 . S
C123 C19 1.493 . S
C137 C30 1.496 . S
C143 C74 1.499 . S
C157 C38 1.327 . S
C163 C85 1.497 . S
C177 C82 1.284 . S
C183 C41 1.487 . S
C197 C63 1.489 . S
C203 C16 1.291 . S
C217 C71 1.308 . S
C223 C27 1.266 . S
C237 C8 1.492 . S
C243 C52 1.505 . S
C257 C62 1.468 . S
C263 C7 1.454 . S
C277 C73 1.442 . S
C283 C18 1.481 . S
C297 C29 1.449 . S
C303 C84 1.473 . S
C317 C51 1.465 . S
C323 C40 1.460 . S
