# Generated by pormake.
# Topology uou, (4)-cn, num edge types: 1
# Building blocks:
#     Node 0, Type 0, BuildingBlock: QUQFOY_clean_sbu_3, # of connection points: 4
#     Node 1, Type 0, BuildingBlock: QUQFOY_clean_sbu_3, # of connection points: 4
#     Node 2, Type 0, BuildingBlock: QUQFOY_clean_sbu_3, # of connection points: 4
#     Node 3, Type 0, BuildingBlock: QUQFOY_clean_sbu_3, # of connection points: 4
#     Node 4, Type 0, BuildingBlock: QUQFOY_clean_sbu_3, # of connection points: 4
#     Node 5, Type 0, BuildingBlock: QUQFOY_clean_sbu_3, # of connection points: 4
#     Node 6, Type 0, BuildingBlock: QUQFOY_clean_sbu_3, # of connection points: 4
#     Node 7, Type 0, BuildingBlock: QUQFOY_clean_sbu_3, # of connection points: 4
#     Node 8, Type 0, BuildingBlock: QUQFOY_clean_sbu_3, # of connection points: 4
#     Node 9, Type 0, BuildingBlock: QUQFOY_clean_sbu_3, # of connection points: 4
#     Node 10, Type 0, BuildingBlock: QUQFOY_clean_sbu_3, # of connection points: 4
#     Node 11, Type 0, BuildingBlock: QUQFOY_clean_sbu_3, # of connection points: 4
#     Node 12, Type 0, BuildingBlock: QUQFOY_clean_sbu_3, # of connection points: 4
#     Node 13, Type 0, BuildingBlock: QUQFOY_clean_sbu_3, # of connection points: 4
#     Node 14, Type 0, BuildingBlock: QUQFOY_clean_sbu_3, # of connection points: 4
#     Node 15, Type 0, BuildingBlock: QUQFOY_clean_sbu_3, # of connection points: 4
#     Edge 16, Type (0, 0), BuildingBlock: OJICUG_clean_linker_0, # of connection points: 2
#     Edge 17, Type (0, 0), BuildingBlock: OJICUG_clean_linker_0, # of connection points: 2
#     Edge 18, Type (0, 0), BuildingBlock: OJICUG_clean_linker_0, # of connection points: 2
#     Edge 19, Type (0, 0), BuildingBlock: OJICUG_clean_linker_0, # of connection points: 2
#     Edge 20, Type (0, 0), BuildingBlock: OJICUG_clean_linker_0, # of connection points: 2
#     Edge 21, Type (0, 0), BuildingBlock: OJICUG_clean_linker_0, # of connection points: 2
#     Edge 22, Type (0, 0), BuildingBlock: OJICUG_clean_linker_0, # of connection points: 2
#     Edge 23, Type (0, 0), BuildingBlock: OJICUG_clean_linker_0, # of connection points: 2
#     Edge 24, Type (0, 0), BuildingBlock: OJICUG_clean_linker_0, # of connection points: 2
#     Edge 25, Type (0, 0), BuildingBlock: OJICUG_clean_linker_0, # of connection points: 2
#     Edge 26, Type (0, 0), BuildingBlock: OJICUG_clean_linker_0, # of connection points: 2
#     Edge 27, Type (0, 0), BuildingBlock: OJICUG_clean_linker_0, # of connection points: 2
#     Edge 28, Type (0, 0), BuildingBlock: OJICUG_clean_linker_0, # of connection points: 2
#     Edge 29, Type (0, 0), BuildingBlock: OJICUG_clean_linker_0, # of connection points: 2
#     Edge 30, Type (0, 0), BuildingBlock: OJICUG_clean_linker_0, # of connection points: 2
#     Edge 31, Type (0, 0), BuildingBlock: OJICUG_clean_linker_0, # of connection points: 2
#     Edge 32, Type (0, 0), BuildingBlock: OJICUG_clean_linker_0, # of connection points: 2
#     Edge 33, Type (0, 0), BuildingBlock: OJICUG_clean_linker_0, # of connection points: 2
#     Edge 34, Type (0, 0), BuildingBlock: OJICUG_clean_linker_0, # of connection points: 2
#     Edge 35, Type (0, 0), BuildingBlock: OJICUG_clean_linker_0, # of connection points: 2
#     Edge 36, Type (0, 0), BuildingBlock: OJICUG_clean_linker_0, # of connection points: 2
#     Edge 37, Type (0, 0), BuildingBlock: OJICUG_clean_linker_0, # of connection points: 2
#     Edge 38, Type (0, 0), BuildingBlock: OJICUG_clean_linker_0, # of connection points: 2
#     Edge 39, Type (0, 0), BuildingBlock: OJICUG_clean_linker_0, # of connection points: 2
#     Edge 40, Type (0, 0), BuildingBlock: OJICUG_clean_linker_0, # of connection points: 2
#     Edge 41, Type (0, 0), BuildingBlock: OJICUG_clean_linker_0, # of connection points: 2
#     Edge 42, Type (0, 0), BuildingBlock: OJICUG_clean_linker_0, # of connection points: 2
#     Edge 43, Type (0, 0), BuildingBlock: OJICUG_clean_linker_0, # of connection points: 2
#     Edge 44, Type (0, 0), BuildingBlock: OJICUG_clean_linker_0, # of connection points: 2
#     Edge 45, Type (0, 0), BuildingBlock: OJICUG_clean_linker_0, # of connection points: 2
#     Edge 46, Type (0, 0), BuildingBlock: OJICUG_clean_linker_0, # of connection points: 2
#     Edge 47, Type (0, 0), BuildingBlock: OJICUG_clean_linker_0, # of connection points: 2
# Relax obj value: 0.038
# Max RMSD: 0.066
# Mean RMSD: 0.066
data_MOF--net-uou--node1-QUQFOY_clean_sbu_3--edge1-OJICUG_clean_linker_0
_symmetry_space_group_name_H-M    P1
_symmetry_Int_Tables_number       1
_symmetry_cell_setting            triclinic
loop_
_symmetry_equiv_pos_as_xyz
'x, y, z'
_cell_length_a     29.650649
_cell_length_b     29.403406
_cell_length_c     41.348127
_cell_angle_alpha  88.509427
_cell_angle_beta   90.315653
_cell_angle_gamma 89.836215
loop_
_atom_site_label
_atom_site_type_symbol
_atom_site_fract_x
_atom_site_fract_y
_atom_site_fract_z
_atom_type_partial_charge
C0 C 0.94358 0.04639 0.16006 0.0
O1 O 0.90661 0.04939 0.14454 0.0
Cd2 Cd 0.90693 0.07696 0.08923 0.0
O3 O 0.98024 0.05842 0.14667 0.0
Cd4 Cd 0.0073 0.08715 0.09474 0.0
C5 C 0.94724 0.18433 0.09469 0.0
O6 O 0.96502 0.03549 0.06118 0.0
O7 O 0.00161 0.08972 0.03655 0.0
O8 O 0.07075 0.03693 0.10432 0.0
C9 C 0.98175 0.0517 0.03517 0.0
O10 O 0.91304 0.16005 0.08831 0.0
C11 C 0.10085 0.06683 0.09954 0.0
O12 O 0.98543 0.16585 0.10009 0.0
O13 O 0.08745 0.10725 0.0935 0.0
C14 C 0.44747 0.01341 0.15498 0.0
O15 O 0.48478 0.01356 0.13997 0.0
Cd16 Cd 0.49406 0.99364 0.08452 0.0
O17 O 0.41064 0.00525 0.14033 0.0
Cd18 Cd 0.3795 0.98935 0.0869 0.0
C19 C 0.43838 0.88966 0.08987 0.0
O20 O 0.43424 0.02946 0.0559 0.0
O21 O 0.38951 0.98767 0.02835 0.0
O22 O 0.29929 0.97444 0.08755 0.0
C23 C 0.42424 0.01274 0.02888 0.0
O24 O 0.47442 0.91281 0.0861 0.0
C25 C 0.28803 0.01566 0.09163 0.0
O26 O 0.39999 0.909 0.09223 0.0
O27 O 0.31958 0.04471 0.09309 0.0
C28 C 0.45029 0.98165 0.29164 0.0
O29 O 0.41444 0.97735 0.30804 0.0
Cd30 Cd 0.41701 0.94389 0.36169 0.0
O31 O 0.48788 0.9684 0.30342 0.0
Cd32 Cd 0.519 0.93538 0.35333 0.0
C33 C 0.46054 0.83805 0.34983 0.0
O34 O 0.47659 0.9792 0.39186 0.0
O35 O 0.51431 0.92098 0.41069 0.0
O36 O 0.57982 0.98955 0.34886 0.0
C37 C 0.49275 0.95723 0.41611 0.0
O38 O 0.42656 0.86165 0.35794 0.0
C39 C 0.61139 0.96041 0.35014 0.0
O40 O 0.49836 0.85694 0.34421 0.0
O41 O 0.6 0.91878 0.35167 0.0
C42 C 0.95114 0.01881 0.29731 0.0
O43 O 0.98923 0.0169 0.31151 0.0
Cd44 Cd -0.00084 0.0381 0.36669 0.0
O45 O 0.91564 0.02846 0.31283 0.0
Cd46 Cd 0.88775 0.0446 0.36675 0.0
C47 C 0.94608 0.14321 0.35939 0.0
O48 O 0.94185 0.0006 0.3972 0.0
O49 O 0.90124 0.04616 0.42505 0.0
O50 O 0.82897 0.98908 0.35852 0.0
C51 C 0.93265 0.01679 0.4245 0.0
O52 O 0.98195 0.11957 0.36314 0.0
C53 C 0.79661 0.01685 0.36206 0.0
O54 O 0.90738 0.12445 0.35881 0.0
O55 O 0.80678 0.05766 0.36846 0.0
C56 C 0.03804 0.94805 0.79868 0.0
O57 O 0.07518 0.94448 0.81393 0.0
Cd58 Cd 0.07548 0.91535 0.86882 0.0
O59 O 0.00146 0.93606 0.81221 0.0
Cd60 Cd 0.97474 0.90688 0.86416 0.0
C61 C 0.03303 0.80886 0.86195 0.0
O62 O 0.01858 0.95693 0.89789 0.0
O63 O 0.98165 0.90277 0.92231 0.0
O64 O 0.91265 0.959 0.85541 0.0
C65 C 0.00211 0.94044 0.9239 0.0
O66 O 0.06772 0.83249 0.86824 0.0
C67 C 0.88175 0.93002 0.86038 0.0
O68 O -0.00506 0.82795 0.85741 0.0
O69 O 0.89403 0.88916 0.86614 0.0
C70 C 0.53737 0.98718 0.8052 0.0
O71 O 0.50005 0.98763 0.82017 0.0
Cd72 Cd 0.4908 0.01137 0.87472 0.0
O73 O 0.57412 0.9965 0.81959 0.0
Cd74 Cd 0.60524 0.01538 0.87257 0.0
C75 C 0.54691 0.11494 0.86589 0.0
O76 O 0.55037 0.97709 0.90445 0.0
O77 O 0.59447 0.0208 0.93099 0.0
O78 O 0.68589 0.02844 0.87198 0.0
C79 C 0.55998 0.99535 0.931 0.0
O80 O 0.51089 0.09197 0.87028 0.0
C81 C 0.69615 0.98679 0.86869 0.0
O82 O 0.58537 0.09553 0.86442 0.0
O83 O 0.6639 0.95849 0.86767 0.0
C84 C 0.53376 0.01088 0.66794 0.0
O85 O 0.56937 0.01429 0.6512 0.0
Cd86 Cd 0.56611 0.04509 0.59675 0.0
O87 O 0.49605 0.02381 0.65618 0.0
Cd88 Cd 0.46469 0.05513 0.60587 0.0
C89 C 0.52427 0.15203 0.60617 0.0
O90 O 0.50571 0.00927 0.56764 0.0
O91 O 0.46865 0.06769 0.54842 0.0
O92 O 0.40264 0.00248 0.61124 0.0
C93 C 0.4894 0.03088 0.54328 0.0
O94 O 0.55781 0.12771 0.59821 0.0
C95 C 0.37178 0.0324 0.6099 0.0
O96 O 0.48649 0.13375 0.61286 0.0
O97 O 0.38418 0.07371 0.608 0.0
C98 C 0.03 0.97899 0.6617 0.0
O99 O -0.00805 0.98119 0.64745 0.0
Cd100 Cd 0.98221 0.96229 0.59172 0.0
O101 O 0.06558 0.96992 0.64609 0.0
Cd102 Cd 0.09359 0.95514 0.59206 0.0
C103 C 0.03431 0.8567 0.59687 0.0
O104 O 0.03998 0.00044 0.56196 0.0
O105 O 0.08093 0.95567 0.53372 0.0
O106 O 0.1535 0.00927 0.60106 0.0
C107 C 0.04953 0.98501 0.53449 0.0
O108 O -0.00144 0.88059 0.59338 0.0
C109 C 0.18526 0.98079 0.5975 0.0
O110 O 0.07304 0.8753 0.59822 0.0
O111 O 0.17422 0.94035 0.59074 0.0
C112 C 0.44652 0.55492 0.1526 0.0
O113 O 0.40934 0.5582 0.13735 0.0
Cd114 Cd 0.40896 0.58699 0.08241 0.0
O115 O 0.48305 0.56695 0.13903 0.0
Cd116 Cd 0.5104 0.59559 0.08709 0.0
C117 C 0.45179 0.69356 0.08912 0.0
O118 O 0.46622 0.54502 0.05409 0.0
O119 O 0.50403 0.59775 0.0288 0.0
O120 O 0.57173 0.54314 0.09724 0.0
C121 C 0.48274 0.56047 0.02781 0.0
O122 O 0.41712 0.66976 0.08313 0.0
C123 C 0.60309 0.57152 0.092 0.0
O124 O 0.49005 0.67467 0.0934 0.0
O125 O 0.59143 0.61233 0.08533 0.0
C126 C 0.9471 0.50633 0.14999 0.0
O127 O 0.98425 0.50584 0.1348 0.0
Cd128 Cd -0.00751 0.48317 0.07999 0.0
O129 O 0.91007 0.49794 0.13566 0.0
Cd130 Cd 0.87828 0.48109 0.08248 0.0
C131 C 0.9346 0.38049 0.08848 0.0
O132 O 0.93349 0.51938 0.05082 0.0
O133 O 0.88909 0.47623 0.02404 0.0
O134 O 0.82068 0.53908 0.08774 0.0
C135 C 0.92352 0.50175 0.02411 0.0
O136 O 0.97094 0.40295 0.08412 0.0
C137 C 0.7879 0.51147 0.08629 0.0
O138 O 0.89644 0.40046 0.09007 0.0
O139 O 0.79739 0.46968 0.08276 0.0
C140 C 0.95191 0.47933 0.2871 0.0
O141 O 0.91635 0.4762 0.30393 0.0
Cd142 Cd 0.91939 0.44585 0.35842 0.0
O143 O 0.98965 0.46637 0.29882 0.0
Cd144 Cd 0.02181 0.43561 0.3491 0.0
C145 C 0.96179 0.33882 0.34911 0.0
O146 O 0.98031 0.48222 0.38641 0.0
O147 O 0.01832 0.42528 0.40689 0.0
O148 O 0.10262 0.41787 0.34699 0.0
C149 C -0.00337 0.46178 0.41123 0.0
O150 O 0.92825 0.36334 0.35678 0.0
C151 C 0.11441 0.4593 0.34419 0.0
O152 O -0.00022 0.35685 0.34267 0.0
O153 O 0.08313 0.48873 0.3424 0.0
C154 C 0.45471 0.5213 0.28941 0.0
O155 O 0.49276 0.5192 0.30364 0.0
Cd156 Cd 0.50172 0.53742 0.35951 0.0
O157 O 0.41903 0.52945 0.30515 0.0
Cd158 Cd 0.39129 0.54223 0.35955 0.0
C159 C 0.44787 0.64202 0.35498 0.0
O160 O 0.44552 0.49695 0.38947 0.0
O161 O 0.40465 0.54185 0.41771 0.0
O162 O 0.33241 0.48685 0.3506 0.0
C163 C 0.43573 0.51216 0.41698 0.0
O164 O 0.48405 0.61878 0.35828 0.0
C165 C 0.30012 0.51456 0.35461 0.0
O166 O 0.40951 0.62268 0.35371 0.0
O167 O 0.31041 0.55514 0.36151 0.0
C168 C 0.53613 0.44682 0.79319 0.0
O169 O 0.57312 0.44455 0.80874 0.0
Cd170 Cd 0.57312 0.41851 0.86434 0.0
O171 O 0.49951 0.43509 0.80678 0.0
Cd172 Cd 0.47219 0.40825 0.85916 0.0
C173 C 0.53226 0.311 0.86001 0.0
O174 O 0.515 0.46085 0.89159 0.0
O175 O 0.47811 0.4079 0.91736 0.0
O176 O 0.40937 0.45878 0.84844 0.0
C177 C 0.49849 0.44571 0.91797 0.0
O178 O 0.5665 0.3355 0.86585 0.0
C179 C 0.37888 0.42952 0.85392 0.0
O180 O 0.49392 0.32925 0.85478 0.0
O181 O 0.39174 0.38917 0.86088 0.0
C182 C 0.0325 0.489 0.79839 0.0
O183 O -0.00463 0.48931 0.8136 0.0
Cd184 Cd 0.98724 0.50949 0.86903 0.0
O185 O 0.06961 0.49666 0.81284 0.0
Cd186 Cd 0.1016 0.51205 0.86612 0.0
C187 C 0.04447 0.6126 0.86294 0.0
O188 O 0.04668 0.47235 0.89724 0.0
O189 O 0.09168 0.51397 0.92472 0.0
O190 O 0.16048 0.45556 0.85977 0.0
C191 C 0.05703 0.48876 0.92429 0.0
O192 O 0.00816 0.58998 0.86695 0.0
C193 C 0.19256 0.484 0.86121 0.0
O194 O 0.08258 0.59272 0.8606 0.0
O195 O 0.18209 0.52542 0.86529 0.0
C196 C 0.02895 0.51915 0.66148 0.0
O197 O 0.06483 0.5227 0.64503 0.0
Cd198 Cd 0.06287 0.55468 0.59103 0.0
O199 O -0.0086 0.53221 0.64951 0.0
Cd200 Cd 0.96001 0.56353 0.5991 0.0
C201 C 0.01876 0.66085 0.60176 0.0
O202 O 0.00311 0.5185 0.56179 0.0
O203 O 0.96501 0.57549 0.54145 0.0
O204 O 0.87869 0.57918 0.60015 0.0
C205 C 0.98724 0.53934 0.53698 0.0
O206 O 0.05276 0.63688 0.59422 0.0
C207 C 0.86792 0.53743 0.60262 0.0
O208 O 0.9807 0.64234 0.60718 0.0
O209 O 0.89992 0.50883 0.60471 0.0
C210 C 0.52909 0.47205 0.65564 0.0
O211 O 0.4911 0.47338 0.64129 0.0
Cd212 Cd 0.48244 0.45176 0.58617 0.0
O213 O 0.56486 0.46298 0.64025 0.0
Cd214 Cd 0.59329 0.44743 0.58633 0.0
C215 C 0.53731 0.34768 0.59405 0.0
O216 O 0.53884 0.49101 0.55576 0.0
O217 O 0.57974 0.44554 0.52802 0.0
O218 O 0.65089 0.50423 0.59469 0.0
C219 C 0.54846 0.47505 0.52846 0.0
O220 O 0.50105 0.37066 0.59016 0.0
C221 C 0.68384 0.4772 0.59108 0.0
O222 O 0.57565 0.36714 0.59451 0.0
O223 O 0.67455 0.4362 0.58463 0.0
C224 C 0.20688 0.99573 0.09803 0.0
C225 C 0.24037 0.02911 0.09464 0.0
H226 H 0.13659 0.98159 0.1027 0.0
C227 C 0.22785 0.07527 0.09406 0.0
H228 H 0.21554 0.95989 0.09874 0.0
C229 C 0.18248 0.08776 0.09617 0.0
C230 C 0.14899 0.05428 0.09922 0.0
H231 H 0.25302 0.10173 0.09152 0.0
H232 H 0.17365 0.12354 0.09514 0.0
C233 C 0.16167 0.00819 0.10046 0.0
C234 C 0.66963 0.02096 0.35478 0.0
C235 C 0.65895 0.97472 0.35166 0.0
H236 H 0.72149 0.07046 0.36082 0.0
C237 C 0.69393 0.94246 0.35159 0.0
H238 H 0.64337 0.04663 0.35504 0.0
C239 C 0.73876 0.95618 0.35482 0.0
C240 C 0.74933 0.00236 0.35845 0.0
H241 H 0.68669 0.90659 0.34928 0.0
H242 H 0.76507 0.93055 0.35479 0.0
C243 C 0.71436 0.03461 0.35826 0.0
C244 C 0.79959 0.9116 0.86444 0.0
C245 C 0.83402 0.94402 0.86108 0.0
H246 H 0.72872 0.89976 0.86938 0.0
C247 C 0.82269 0.99048 0.85976 0.0
H248 H 0.80737 0.87557 0.86555 0.0
C249 C 0.77788 0.00431 0.86228 0.0
C250 C 0.74345 0.97197 0.86589 0.0
H251 H 0.84852 0.0163 0.85728 0.0
H252 H 0.77026 0.04038 0.86143 0.0
C253 C 0.75463 0.92546 0.86667 0.0
C254 C 0.24456 0.03993 0.60514 0.0
C255 C 0.23284 0.99405 0.60145 0.0
H256 H 0.29786 0.08814 0.61078 0.0
C257 C 0.26698 0.96088 0.60182 0.0
H258 H 0.21891 0.06624 0.60504 0.0
C259 C 0.31202 0.97336 0.60545 0.0
C260 C 0.32386 0.0193 0.60852 0.0
H261 H 0.25895 0.92524 0.59923 0.0
H262 H 0.33762 0.94701 0.60526 0.0
C263 C 0.28971 0.05247 0.60851 0.0
C264 C 0.70581 0.49552 0.09221 0.0
C265 C 0.74084 0.52721 0.08865 0.0
H266 H 0.6349 0.48482 0.09649 0.0
C267 C 0.73044 0.5739 0.08726 0.0
H268 H 0.71282 0.45934 0.09352 0.0
C269 C 0.68565 0.58857 0.08877 0.0
C270 C 0.65063 0.55678 0.09205 0.0
H271 H 0.75683 0.59909 0.08455 0.0
H272 H 0.67846 0.62469 0.08716 0.0
C273 C 0.66119 0.51017 0.09405 0.0
C274 C 0.21804 0.53283 0.35066 0.0
C275 C 0.25277 0.50029 0.35109 0.0
H276 H 0.14715 0.54535 0.34763 0.0
C277 C 0.24183 0.45411 0.34798 0.0
H278 H 0.22546 0.56868 0.3528 0.0
C279 C 0.19685 0.44066 0.34515 0.0
C280 C 0.16212 0.47322 0.34506 0.0
H281 H 0.26796 0.42828 0.34816 0.0
H282 H 0.18929 0.40479 0.34333 0.0
C283 C 0.1732 0.51945 0.34752 0.0
C284 C 0.27399 0.50237 0.85434 0.0
C285 C 0.23997 0.46964 0.85824 0.0
H286 H 0.34448 0.51521 0.84943 0.0
C287 C 0.25173 0.42328 0.85946 0.0
H288 H 0.26591 0.53833 0.85312 0.0
C289 C 0.2969 0.40997 0.85754 0.0
C290 C 0.33093 0.44281 0.854 0.0
H291 H 0.22614 0.39731 0.86242 0.0
H292 H 0.30517 0.37408 0.85911 0.0
C293 C 0.31898 0.48908 0.85207 0.0
C294 C 0.74049 0.5392 0.59768 0.0
C295 C 0.7308 0.49272 0.59464 0.0
H296 H 0.79162 0.58993 0.60262 0.0
C297 C 0.76637 0.46112 0.59532 0.0
H298 H 0.71369 0.56434 0.5973 0.0
C299 C 0.81081 0.47572 0.59872 0.0
C300 C 0.82061 0.52225 0.60122 0.0
H301 H 0.75993 0.42507 0.59322 0.0
H302 H 0.83753 0.45052 0.59886 0.0
C303 C 0.78504 0.55387 0.60079 0.0
C304 C 0.98813 0.01587 0.24337 0.0
C305 C 0.94853 0.01647 0.26176 0.0
H306 H 0.01752 0.02475 0.19666 0.0
C307 C 0.90664 0.02095 0.24579 0.0
H308 H 0.02089 0.01214 0.25488 0.0
C309 C 0.90467 0.0283 0.21233 0.0
C310 C 0.94457 0.03142 0.19434 0.0
H311 H 0.87542 0.0211 0.25928 0.0
H312 H 0.8721 0.03385 0.20088 0.0
C313 C 0.98617 0.02338 0.20999 0.0
C314 C 0.48831 0.01599 0.2078 0.0
C315 C 0.44738 0.01561 0.19059 0.0
H316 H 0.52123 0.00575 0.25343 0.0
C317 C 0.40676 0.01086 0.20777 0.0
H318 H 0.52016 0.02007 0.19536 0.0
C319 C 0.40736 0.00256 0.24116 0.0
C320 C 0.4486 -0.00121 0.25784 0.0
H321 H 0.37457 0.01093 0.19525 0.0
H322 H 0.37572 0.99651 0.25349 0.0
C323 C 0.48891 0.00755 0.2411 0.0
C324 C 0.0745 0.97595 0.71319 0.0
C325 C 0.03255 0.98032 0.69729 0.0
H326 H 0.10924 0.96239 0.75791 0.0
C327 C -0.00705 0.97989 0.71571 0.0
H328 H 0.10571 0.97659 0.69969 0.0
C329 C -0.00496 0.97155 0.749 0.0
C330 C 0.03676 0.96369 0.76453 0.0
H331 H 0.96015 0.98348 0.70425 0.0
H332 H 0.96373 0.96943 0.76233 0.0
C333 C 0.07659 0.96776 0.74655 0.0
C334 C 0.49575 0.98696 0.71916 0.0
C335 C 0.53587 0.99545 0.70211 0.0
H336 H 0.4648 0.97666 0.76523 0.0
C337 C 0.5772 0.99337 0.71879 0.0
H338 H 0.46339 0.98746 0.70685 0.0
C339 C 0.578 0.98713 0.75237 0.0
C340 C 0.53749 0.98275 0.76974 0.0
H341 H 0.60869 -0.00071 0.70623 0.0
H342 H 0.6102 0.98842 0.76482 0.0
C343 C 0.49656 0.98055 0.75264 0.0
C344 C 0.40811 0.53431 0.20464 0.0
C345 C 0.44792 0.53909 0.18671 0.0
H346 H 0.37902 0.5241 0.25139 0.0
C347 C 0.4897 0.5314 0.20219 0.0
H348 H 0.37542 0.53954 0.1933 0.0
C349 C 0.49183 0.52232 0.2354 0.0
C350 C 0.45221 0.52097 0.25378 0.0
H351 H 0.52101 0.53408 0.1889 0.0
H352 H 0.52465 0.51878 0.24683 0.0
C353 C 0.41024 0.52537 0.23792 0.0
C354 C 0.90823 0.49812 0.23657 0.0
C355 C 0.94971 0.49501 0.253 0.0
H356 H 0.87476 0.50489 0.1908 0.0
C357 C 0.98977 0.5032 0.23581 0.0
H358 H 0.87678 0.49247 0.24925 0.0
C359 C 0.98866 0.51054 0.20241 0.0
C360 C 0.94748 0.50958 0.18553 0.0
H361 H 0.02226 0.50188 0.24792 0.0
H362 H 0.02033 0.51426 0.18969 0.0
C363 C 0.90712 0.5053 0.20308 0.0
C364 C 0.49164 0.47474 0.70943 0.0
C365 C 0.5314 0.47458 0.69118 0.0
H366 H 0.46207 0.46616 0.75609 0.0
C367 C 0.57323 0.47094 0.70731 0.0
H368 H 0.45892 0.47778 0.69779 0.0
C369 C 0.57507 0.46416 0.74082 0.0
C370 C 0.5351 0.46078 0.75871 0.0
H371 H 0.60454 0.47111 0.69393 0.0
H372 H 0.60764 0.45938 0.75242 0.0
C373 C 0.49348 0.46779 0.74286 0.0
C374 C 0.99105 0.48707 0.74579 0.0
C375 C 0.03217 0.48674 0.76279 0.0
H376 H 0.95788 0.49742 0.70027 0.0
C377 C 0.0727 0.49058 0.7454 0.0
H378 H 0.95926 0.48374 0.7584 0.0
C379 C 0.07191 0.49852 0.71199 0.0
C380 C 0.03059 0.50284 0.69547 0.0
H381 H 0.105 0.48998 0.75777 0.0
H382 H 0.10355 0.50374 0.69947 0.0
C383 C 0.99028 0.49515 0.71246 0.0
C384 C 0.90109 0.25606 0.09134 0.0
C385 C 0.94331 0.23448 0.09457 0.0
H386 H 0.86508 0.31922 0.08709 0.0
C387 C 0.98227 0.26135 0.09676 0.0
H388 H 0.87042 0.23631 0.08968 0.0
C389 C 0.97924 0.30866 0.09506 0.0
C390 C 0.93716 0.33032 0.0914 0.0
H391 H 0.01535 0.24588 0.09926 0.0
H392 H 0.01006 0.32823 0.09649 0.0
C393 C 0.89802 0.30355 0.08991 0.0
C394 C 0.48371 0.81781 0.09267 0.0
C395 C 0.4414 0.83943 0.09088 0.0
H396 H 0.52013 0.75502 0.09371 0.0
C397 C 0.40231 0.8126 0.08933 0.0
H398 H 0.5145 0.83743 0.09402 0.0
C399 C 0.40558 0.76518 0.08898 0.0
C400 C 0.44796 0.74364 0.09043 0.0
H401 H 0.3692 0.82819 0.0879 0.0
H402 H 0.37488 0.74545 0.08743 0.0
C403 C 0.48694 0.77049 0.09255 0.0
C404 C 0.41164 0.71919 0.35406 0.0
C405 C 0.45069 0.69218 0.35237 0.0
H406 H 0.38405 0.78648 0.35451 0.0
C407 C 0.4927 0.71356 0.34831 0.0
H408 H 0.37875 0.70376 0.35709 0.0
C409 C 0.4957 0.7609 0.34653 0.0
C410 C 0.4568 0.78796 0.34904 0.0
H411 H 0.52342 0.69375 0.34667 0.0
H412 H 0.52868 0.77625 0.34388 0.0
C413 C 0.41468 0.7666 0.35255 0.0
C414 C -0.00426 0.26091 0.34774 0.0
C415 C 0.9573 0.28873 0.3497 0.0
H416 H 0.02239 0.1933 0.34948 0.0
C417 C 0.91488 0.26823 0.35392 0.0
H418 H 0.02894 0.27559 0.34457 0.0
C419 C 0.91109 0.22094 0.35664 0.0
C420 C 0.94969 0.1932 0.35549 0.0
H421 H 0.88458 0.28871 0.35547 0.0
H422 H 0.87798 0.20621 0.36019 0.0
C423 C -0.008 0.21369 0.35074 0.0
C424 C 1e-05 0.68489 0.85912 0.0
C425 C 0.04206 0.66286 0.86145 0.0
H426 H 0.96424 0.74803 0.85719 0.0
C427 C 0.08141 0.6893 0.86301 0.0
H428 H 0.96903 0.66558 0.85771 0.0
C429 C 0.07863 0.73678 0.86288 0.0
C430 C 0.03648 0.75873 0.86092 0.0
H431 H 0.11433 0.67335 0.86485 0.0
H432 H 0.10949 0.75623 0.86451 0.0
C433 C -0.00274 0.73225 0.85873 0.0
C434 C 0.49781 0.23362 0.85839 0.0
C435 C 0.53655 0.26087 0.86021 0.0
H436 H 0.4707 0.16642 0.85877 0.0
C437 C 0.57903 0.23971 0.86296 0.0
H438 H 0.46455 0.24878 0.85626 0.0
C439 C 0.58259 0.19226 0.86423 0.0
C440 C 0.54371 0.16509 0.86305 0.0
H441 H 0.60954 0.25975 0.86432 0.0
H442 H 0.61575 0.17695 0.86667 0.0
C443 C 0.50134 0.18632 0.85991 0.0
C444 C 0.48953 0.22954 0.60741 0.0
C445 C 0.52826 0.20216 0.6053 0.0
H446 H 0.46197 0.29675 0.60526 0.0
C447 C 0.57033 0.22314 0.60044 0.0
H448 H 0.45658 0.21451 0.61106 0.0
C449 C 0.57345 0.27045 0.5972 0.0
C450 C 0.53451 0.2977 0.59846 0.0
H451 H 0.60083 0.203 0.59874 0.0
H452 H 0.60628 0.28557 0.59316 0.0
C453 C 0.49259 0.27674 0.60388 0.0
C454 C 0.0693 0.779 0.59816 0.0
C455 C 0.03061 0.8066 0.5994 0.0
H456 H 0.09595 0.71134 0.59799 0.0
C457 C 0.98818 0.78584 0.60282 0.0
H458 H 0.10249 0.79391 0.5956 0.0
C459 C 0.98446 0.73852 0.60446 0.0
C460 C 0.02304 0.7109 0.60244 0.0
H461 H 0.95771 0.80611 0.60407 0.0
H462 H 0.9512 0.72364 0.60665 0.0
C463 C 0.06554 0.73165 0.59953 0.0
C464 C 0.9749 0.95172 -0.01992 0.0
C465 C -0.00116 0.968 0.95297 0.0
H466 H 0.9499 0.96588 0.02715 0.0
C467 C 0.01621 0.01238 0.9528 0.0
H468 H 0.96081 0.91776 -0.01921 0.0
C469 C 0.00954 0.04009 -0.0208 0.0
C470 C 0.9855 0.02386 0.00627 0.0
H471 H 0.03451 0.02596 0.93213 0.0
H472 H 0.02358 0.07407 -0.02153 0.0
C473 C 0.96824 0.97943 0.00649 0.0
C474 C 0.48384 0.97743 0.95313 0.0
C475 C 0.52602 0.9984 0.95671 0.0
H476 H 0.41813 0.96648 0.97274 0.0
C477 C 0.53392 0.02539 -0.01633 0.0
H478 H 0.47662 0.95672 0.93244 0.0
C479 C 0.50024 0.03132 0.00662 0.0
C480 C 0.45809 0.01028 0.00305 0.0
H481 H 0.56599 0.04228 -0.01306 0.0
H482 H 0.50746 0.05194 0.02734 0.0
C483 C 0.45016 0.98341 0.97602 0.0
C484 C 0.47016 0.03582 0.48465 0.0
C485 C 0.49103 0.01232 0.5107 0.0
H486 H 0.45384 0.03644 0.43426 0.0
C487 C 0.51157 0.97009 0.5056 0.0
H488 H 0.45383 0.06837 0.48794 0.0
C489 C 0.51134 0.95171 0.47489 0.0
C490 C 0.49059 0.9753 0.44882 0.0
H491 H 0.52768 0.95115 0.52531 0.0
H492 H 0.52772 0.9192 0.47155 0.0
C493 C 0.4699 0.01744 0.45396 0.0
C494 C 0.98232 0.02246 0.5086 0.0
C495 C 0.02035 0.9942 0.50612 0.0
H496 H 0.92438 0.05136 0.48477 0.0
C497 C 0.02903 0.97305 0.47672 0.0
H498 H 0.97467 0.03904 0.53102 0.0
C499 C 0.0001 0.97987 0.45033 0.0
C500 C 0.96202 0.00806 0.45282 0.0
H501 H 0.05801 0.95096 0.47413 0.0
H502 H 0.00774 0.96324 0.42793 0.0
C503 C 0.95339 0.02931 0.48219 0.0
C504 C 0.50883 0.54701 0.9716 0.0
C505 C 0.48492 0.53208 -0.00091 0.0
H506 H 0.53264 0.53093 0.92455 0.0
C507 C 0.46636 0.48818 -2e-05 0.0
H508 H 0.5238 0.58056 0.97035 0.0
C509 C 0.47184 0.4596 0.97392 0.0
C510 C 0.49584 0.47447 0.94647 0.0
H511 H 0.44803 0.47563 0.02095 0.0
H512 H 0.45691 0.42603 0.97521 0.0
C513 C 0.51427 0.51843 0.94552 0.0
C514 C -0.00098 0.52103 0.0014 0.0
C515 C 0.95693 0.49981 -0.00203 0.0
H516 H 0.06414 0.53328 -0.01888 0.0
C517 C 0.94856 0.47375 0.97061 0.0
H518 H 0.00658 0.54103 0.02237 0.0
C519 C 0.98169 0.46896 0.94713 0.0
C520 C 0.02375 0.49024 0.95054 0.0
H521 H 0.91655 0.45672 0.96744 0.0
H522 H 0.97413 0.44902 0.92612 0.0
C523 C 0.03215 0.5162 -0.02206 0.0
C524 C 0.97031 0.54243 0.47792 0.0
C525 C 0.99087 0.52025 0.50465 0.0
H526 H 0.95561 0.54095 0.42731 0.0
C527 C 0.01295 0.47855 0.50052 0.0
H528 H 0.95288 0.57455 0.48046 0.0
C529 C 0.01427 0.45921 0.47016 0.0
C530 C -0.00642 0.4813 0.44345 0.0
H531 H 0.02892 0.46064 0.52077 0.0
H532 H 0.03164 0.42705 0.46764 0.0
C533 C 0.97163 0.52309 0.44755 0.0
C534 C 0.52924 0.46432 0.47027 0.0
C535 C 0.52008 0.48495 0.49978 0.0
H536 H 0.5094 0.45646 0.42092 0.0
C537 C 0.48255 0.51392 0.50201 0.0
H538 H 0.55785 0.4417 0.46789 0.0
C539 C 0.45469 0.52216 0.47521 0.0
C540 C 0.4639 0.50165 0.44566 0.0
H541 H 0.47452 0.53013 0.52451 0.0
H542 H 0.42611 0.54483 0.47762 0.0
C543 C 0.50137 0.47259 0.44344 0.0
loop_
_geom_bond_atom_site_label_1
_geom_bond_atom_site_label_2
_geom_bond_distance
_geom_bond_site_symmetry_2
_ccdc_geom_bond_type
C0 O1 1.306 1_455 S
C0 O3 1.160 . S
O1 C0 1.306 1_655 S
O1 Cd2 2.228 . S
Cd2 O1 2.228 . S
Cd2 O6 2.273 1_655 S
Cd2 O10 2.289 . S
O3 C0 1.160 . S
O3 Cd4 2.203 . S
Cd4 O3 2.203 . S
Cd4 O6 2.411 . S
Cd4 O7 2.333 . S
Cd4 O8 2.352 . S
Cd4 O12 2.277 . S
Cd4 O13 2.356 . S
C5 O10 1.195 1_455 S
C5 O12 1.226 . S
O6 Cd2 2.273 1_455 S
O6 Cd4 2.411 . S
O6 C9 1.320 . S
O7 Cd4 2.333 . S
O7 C9 1.214 . S
O8 Cd4 2.352 . S
O8 C11 1.258 . S
C9 O6 1.320 . S
C9 O7 1.214 . S
O10 Cd2 2.289 . S
O10 C5 1.195 1_655 S
C11 O8 1.258 . S
C11 O13 1.282 . S
O12 Cd4 2.277 . S
O12 C5 1.226 . S
O13 Cd4 2.356 . S
O13 C11 1.282 . S
C14 O15 1.306 . S
C14 O17 1.160 . S
O15 C14 1.306 . S
O15 Cd16 2.228 . S
Cd16 O15 2.228 . S
Cd16 O20 2.273 . S
Cd16 O24 2.277 . S
O17 C14 1.160 . S
O17 Cd18 2.203 . S
Cd18 O17 2.203 . S
Cd18 O20 2.411 . S
Cd18 O21 2.333 . S
Cd18 O22 2.352 . S
Cd18 O26 2.277 . S
Cd18 O27 2.356 . S
C19 O24 1.209 . S
C19 O26 1.226 . S
O20 Cd16 2.273 . S
O20 Cd18 2.411 . S
O20 C23 1.320 . S
O21 Cd18 2.333 . S
O21 C23 1.214 . S
O22 Cd18 2.352 . S
O22 C25 1.258 . S
C23 O20 1.320 . S
C23 O21 1.214 . S
O24 Cd16 2.277 . S
O24 C19 1.209 . S
C25 O22 1.258 . S
C25 O27 1.282 . S
O26 Cd18 2.277 . S
O26 C19 1.226 . S
O27 Cd18 2.356 . S
O27 C25 1.282 . S
C28 O29 1.306 . S
C28 O31 1.160 . S
O29 C28 1.306 . S
O29 Cd30 2.228 . S
Cd30 O29 2.228 . S
Cd30 O34 2.273 . S
Cd30 O38 2.277 . S
O31 C28 1.160 . S
O31 Cd32 2.203 . S
Cd32 O31 2.203 . S
Cd32 O34 2.411 . S
Cd32 O35 2.333 . S
Cd32 O36 2.352 . S
Cd32 O40 2.277 . S
Cd32 O41 2.356 . S
C33 O38 1.209 . S
C33 O40 1.226 . S
O34 Cd30 2.273 . S
O34 Cd32 2.411 . S
O34 C37 1.320 . S
O35 Cd32 2.333 . S
O35 C37 1.214 . S
O36 Cd32 2.352 . S
O36 C39 1.258 . S
C37 O34 1.320 . S
C37 O35 1.214 . S
O38 Cd30 2.277 . S
O38 C33 1.209 . S
C39 O36 1.258 . S
C39 O41 1.282 . S
O40 Cd32 2.277 . S
O40 C33 1.226 . S
O41 Cd32 2.356 . S
O41 C39 1.282 . S
C42 O43 1.306 1_655 S
C42 O45 1.160 . S
O43 C42 1.306 1_455 S
O43 Cd44 2.228 . S
Cd44 O43 2.228 . S
Cd44 O48 2.273 1_455 S
Cd44 O52 2.289 . S
O45 C42 1.160 . S
O45 Cd46 2.203 . S
Cd46 O45 2.203 . S
Cd46 O48 2.411 . S
Cd46 O49 2.333 . S
Cd46 O50 2.352 . S
Cd46 O54 2.277 . S
Cd46 O55 2.356 . S
C47 O52 1.195 1_655 S
C47 O54 1.226 . S
O48 Cd44 2.273 1_655 S
O48 Cd46 2.411 . S
O48 C51 1.320 . S
O49 Cd46 2.333 . S
O49 C51 1.214 . S
O50 Cd46 2.352 . S
O50 C53 1.258 . S
C51 O48 1.320 . S
C51 O49 1.214 . S
O52 Cd44 2.289 . S
O52 C47 1.195 1_455 S
C53 O50 1.258 . S
C53 O55 1.282 . S
O54 Cd46 2.277 . S
O54 C47 1.226 . S
O55 Cd46 2.356 . S
O55 C53 1.282 . S
C56 O57 1.306 1_655 S
C56 O59 1.160 . S
O57 C56 1.306 1_455 S
O57 Cd58 2.228 . S
Cd58 O57 2.228 . S
Cd58 O62 2.273 1_455 S
Cd58 O66 2.289 . S
O59 C56 1.160 . S
O59 Cd60 2.203 . S
Cd60 O59 2.203 . S
Cd60 O62 2.411 . S
Cd60 O63 2.333 . S
Cd60 O64 2.352 . S
Cd60 O68 2.277 . S
Cd60 O69 2.356 . S
C61 O66 1.195 1_655 S
C61 O68 1.226 . S
O62 Cd58 2.273 1_655 S
O62 Cd60 2.411 . S
O62 C65 1.320 . S
O63 Cd60 2.333 . S
O63 C65 1.214 . S
O64 Cd60 2.352 . S
O64 C67 1.258 . S
C65 O62 1.320 . S
C65 O63 1.214 . S
O66 Cd58 2.289 . S
O66 C61 1.195 1_455 S
C67 O64 1.258 . S
C67 O69 1.282 . S
O68 Cd60 2.277 . S
O68 C61 1.226 . S
O69 Cd60 2.356 . S
O69 C67 1.282 . S
C70 O71 1.306 . S
C70 O73 1.160 . S
O71 C70 1.306 . S
O71 Cd72 2.228 . S
Cd72 O71 2.228 . S
Cd72 O76 2.273 . S
Cd72 O80 2.277 . S
O73 C70 1.160 . S
O73 Cd74 2.203 . S
Cd74 O73 2.203 . S
Cd74 O76 2.411 . S
Cd74 O77 2.333 . S
Cd74 O78 2.352 . S
Cd74 O82 2.277 . S
Cd74 O83 2.356 . S
C75 O80 1.209 . S
C75 O82 1.226 . S
O76 Cd72 2.273 . S
O76 Cd74 2.411 . S
O76 C79 1.320 . S
O77 Cd74 2.333 . S
O77 C79 1.214 . S
O78 Cd74 2.352 . S
O78 C81 1.258 . S
C79 O76 1.320 . S
C79 O77 1.214 . S
O80 Cd72 2.277 . S
O80 C75 1.209 . S
C81 O78 1.258 . S
C81 O83 1.282 . S
O82 Cd74 2.277 . S
O82 C75 1.226 . S
O83 Cd74 2.356 . S
O83 C81 1.282 . S
C84 O85 1.306 . S
C84 O87 1.160 . S
O85 C84 1.306 . S
O85 Cd86 2.228 . S
Cd86 O85 2.228 . S
Cd86 O90 2.273 . S
Cd86 O94 2.277 . S
O87 C84 1.160 . S
O87 Cd88 2.203 . S
Cd88 O87 2.203 . S
Cd88 O90 2.411 . S
Cd88 O91 2.333 . S
Cd88 O92 2.352 . S
Cd88 O96 2.277 . S
Cd88 O97 2.356 . S
C89 O94 1.209 . S
C89 O96 1.226 . S
O90 Cd86 2.273 . S
O90 Cd88 2.411 . S
O90 C93 1.320 . S
O91 Cd88 2.333 . S
O91 C93 1.214 . S
O92 Cd88 2.352 . S
O92 C95 1.258 . S
C93 O90 1.320 . S
C93 O91 1.214 . S
O94 Cd86 2.277 . S
O94 C89 1.209 . S
C95 O92 1.258 . S
C95 O97 1.282 . S
O96 Cd88 2.277 . S
O96 C89 1.226 . S
O97 Cd88 2.356 . S
O97 C95 1.282 . S
C98 O99 1.306 1_455 S
C98 O101 1.160 . S
O99 C98 1.306 1_655 S
O99 Cd100 2.228 . S
Cd100 O99 2.228 . S
Cd100 O104 2.273 1_655 S
Cd100 O108 2.289 . S
O101 C98 1.160 . S
O101 Cd102 2.203 . S
Cd102 O101 2.203 . S
Cd102 O104 2.411 . S
Cd102 O105 2.333 . S
Cd102 O106 2.352 . S
Cd102 O110 2.277 . S
Cd102 O111 2.356 . S
C103 O108 1.195 1_455 S
C103 O110 1.226 . S
O104 Cd100 2.273 1_455 S
O104 Cd102 2.411 . S
O104 C107 1.320 . S
O105 Cd102 2.333 . S
O105 C107 1.214 . S
O106 Cd102 2.352 . S
O106 C109 1.258 . S
C107 O104 1.320 . S
C107 O105 1.214 . S
O108 Cd100 2.289 . S
O108 C103 1.195 1_655 S
C109 O106 1.258 . S
C109 O111 1.282 . S
O110 Cd102 2.277 . S
O110 C103 1.226 . S
O111 Cd102 2.356 . S
O111 C109 1.282 . S
C112 O113 1.306 . S
C112 O115 1.160 . S
O113 C112 1.306 . S
O113 Cd114 2.228 . S
Cd114 O113 2.228 . S
Cd114 O118 2.273 . S
Cd114 O122 2.277 . S
O115 C112 1.160 . S
O115 Cd116 2.203 . S
Cd116 O115 2.203 . S
Cd116 O118 2.411 . S
Cd116 O119 2.333 . S
Cd116 O120 2.352 . S
Cd116 O124 2.277 . S
Cd116 O125 2.356 . S
C117 O122 1.209 . S
C117 O124 1.226 . S
O118 Cd114 2.273 . S
O118 Cd116 2.411 . S
O118 C121 1.320 . S
O119 Cd116 2.333 . S
O119 C121 1.214 . S
O120 Cd116 2.352 . S
O120 C123 1.258 . S
C121 O118 1.320 . S
C121 O119 1.214 . S
O122 Cd114 2.277 . S
O122 C117 1.209 . S
C123 O120 1.258 . S
C123 O125 1.282 . S
O124 Cd116 2.277 . S
O124 C117 1.226 . S
O125 Cd116 2.356 . S
O125 C123 1.282 . S
C126 O127 1.306 1_655 S
C126 O129 1.160 . S
O127 C126 1.306 1_455 S
O127 Cd128 2.228 . S
Cd128 O127 2.228 . S
Cd128 O132 2.273 1_455 S
Cd128 O136 2.289 . S
O129 C126 1.160 . S
O129 Cd130 2.203 . S
Cd130 O129 2.203 . S
Cd130 O132 2.411 . S
Cd130 O133 2.333 . S
Cd130 O134 2.352 . S
Cd130 O138 2.277 . S
Cd130 O139 2.356 . S
C131 O136 1.195 1_655 S
C131 O138 1.226 . S
O132 Cd128 2.273 1_655 S
O132 Cd130 2.411 . S
O132 C135 1.320 . S
O133 Cd130 2.333 . S
O133 C135 1.214 . S
O134 Cd130 2.352 . S
O134 C137 1.258 . S
C135 O132 1.320 . S
C135 O133 1.214 . S
O136 Cd128 2.289 . S
O136 C131 1.195 1_455 S
C137 O134 1.258 . S
C137 O139 1.282 . S
O138 Cd130 2.277 . S
O138 C131 1.226 . S
O139 Cd130 2.356 . S
O139 C137 1.282 . S
C140 O141 1.306 1_455 S
C140 O143 1.160 . S
O141 C140 1.306 1_655 S
O141 Cd142 2.228 . S
Cd142 O141 2.228 . S
Cd142 O146 2.273 1_655 S
Cd142 O150 2.289 . S
O143 C140 1.160 . S
O143 Cd144 2.203 . S
Cd144 O143 2.203 . S
Cd144 O146 2.411 . S
Cd144 O147 2.333 . S
Cd144 O148 2.352 . S
Cd144 O152 2.277 . S
Cd144 O153 2.356 . S
C145 O150 1.195 1_455 S
C145 O152 1.226 . S
O146 Cd142 2.273 1_455 S
O146 Cd144 2.411 . S
O146 C149 1.320 . S
O147 Cd144 2.333 . S
O147 C149 1.214 . S
O148 Cd144 2.352 . S
O148 C151 1.258 . S
C149 O146 1.320 . S
C149 O147 1.214 . S
O150 Cd142 2.289 . S
O150 C145 1.195 1_655 S
C151 O148 1.258 . S
C151 O153 1.282 . S
O152 Cd144 2.277 . S
O152 C145 1.226 . S
O153 Cd144 2.356 . S
O153 C151 1.282 . S
C154 O155 1.306 . S
C154 O157 1.160 . S
O155 C154 1.306 . S
O155 Cd156 2.228 . S
Cd156 O155 2.228 . S
Cd156 O160 2.273 . S
Cd156 O164 2.277 . S
O157 C154 1.160 . S
O157 Cd158 2.203 . S
Cd158 O157 2.203 . S
Cd158 O160 2.411 . S
Cd158 O161 2.333 . S
Cd158 O162 2.352 . S
Cd158 O166 2.277 . S
Cd158 O167 2.356 . S
C159 O164 1.209 . S
C159 O166 1.226 . S
O160 Cd156 2.273 . S
O160 Cd158 2.411 . S
O160 C163 1.320 . S
O161 Cd158 2.333 . S
O161 C163 1.214 . S
O162 Cd158 2.352 . S
O162 C165 1.258 . S
C163 O160 1.320 . S
C163 O161 1.214 . S
O164 Cd156 2.277 . S
O164 C159 1.209 . S
C165 O162 1.258 . S
C165 O167 1.282 . S
O166 Cd158 2.277 . S
O166 C159 1.226 . S
O167 Cd158 2.356 . S
O167 C165 1.282 . S
C168 O169 1.306 . S
C168 O171 1.160 . S
O169 C168 1.306 . S
O169 Cd170 2.228 . S
Cd170 O169 2.228 . S
Cd170 O174 2.273 . S
Cd170 O178 2.277 . S
O171 C168 1.160 . S
O171 Cd172 2.203 . S
Cd172 O171 2.203 . S
Cd172 O174 2.411 . S
Cd172 O175 2.333 . S
Cd172 O176 2.352 . S
Cd172 O180 2.277 . S
Cd172 O181 2.356 . S
C173 O178 1.209 . S
C173 O180 1.226 . S
O174 Cd170 2.273 . S
O174 Cd172 2.411 . S
O174 C177 1.320 . S
O175 Cd172 2.333 . S
O175 C177 1.214 . S
O176 Cd172 2.352 . S
O176 C179 1.258 . S
C177 O174 1.320 . S
C177 O175 1.214 . S
O178 Cd170 2.277 . S
O178 C173 1.209 . S
C179 O176 1.258 . S
C179 O181 1.282 . S
O180 Cd172 2.277 . S
O180 C173 1.226 . S
O181 Cd172 2.356 . S
O181 C179 1.282 . S
C182 O183 1.306 1_455 S
C182 O185 1.160 . S
O183 C182 1.306 1_655 S
O183 Cd184 2.228 . S
Cd184 O183 2.228 . S
Cd184 O188 2.273 1_655 S
Cd184 O192 2.289 . S
O185 C182 1.160 . S
O185 Cd186 2.203 . S
Cd186 O185 2.203 . S
Cd186 O188 2.411 . S
Cd186 O189 2.333 . S
Cd186 O190 2.352 . S
Cd186 O194 2.277 . S
Cd186 O195 2.356 . S
C187 O192 1.195 1_455 S
C187 O194 1.226 . S
O188 Cd184 2.273 1_455 S
O188 Cd186 2.411 . S
O188 C191 1.320 . S
O189 Cd186 2.333 . S
O189 C191 1.214 . S
O190 Cd186 2.352 . S
O190 C193 1.258 . S
C191 O188 1.320 . S
C191 O189 1.214 . S
O192 Cd184 2.289 . S
O192 C187 1.195 1_655 S
C193 O190 1.258 . S
C193 O195 1.282 . S
O194 Cd186 2.277 . S
O194 C187 1.226 . S
O195 Cd186 2.356 . S
O195 C193 1.282 . S
C196 O197 1.306 1_655 S
C196 O199 1.160 . S
O197 C196 1.306 1_455 S
O197 Cd198 2.228 . S
Cd198 O197 2.228 . S
Cd198 O202 2.273 1_455 S
Cd198 O206 2.289 . S
O199 C196 1.160 . S
O199 Cd200 2.203 . S
Cd200 O199 2.203 . S
Cd200 O202 2.411 . S
Cd200 O203 2.333 . S
Cd200 O204 2.352 . S
Cd200 O208 2.277 . S
Cd200 O209 2.356 . S
C201 O206 1.195 1_655 S
C201 O208 1.226 . S
O202 Cd198 2.273 1_655 S
O202 Cd200 2.411 . S
O202 C205 1.320 . S
O203 Cd200 2.333 . S
O203 C205 1.214 . S
O204 Cd200 2.352 . S
O204 C207 1.258 . S
C205 O202 1.320 . S
C205 O203 1.214 . S
O206 Cd198 2.289 . S
O206 C201 1.195 1_455 S
C207 O204 1.258 . S
C207 O209 1.282 . S
O208 Cd200 2.277 . S
O208 C201 1.226 . S
O209 Cd200 2.356 . S
O209 C207 1.282 . S
C210 O211 1.306 . S
C210 O213 1.160 . S
O211 C210 1.306 . S
O211 Cd212 2.228 . S
Cd212 O211 2.228 . S
Cd212 O216 2.273 . S
Cd212 O220 2.277 . S
O213 C210 1.160 . S
O213 Cd214 2.203 . S
Cd214 O213 2.203 . S
Cd214 O216 2.411 . S
Cd214 O217 2.333 . S
Cd214 O218 2.352 . S
Cd214 O222 2.277 . S
Cd214 O223 2.356 . S
C215 O220 1.209 . S
C215 O222 1.226 . S
O216 Cd212 2.273 . S
O216 Cd214 2.411 . S
O216 C219 1.320 . S
O217 Cd214 2.333 . S
O217 C219 1.214 . S
O218 Cd214 2.352 . S
O218 C221 1.258 . S
C219 O216 1.320 . S
C219 O217 1.214 . S
O220 Cd212 2.277 . S
O220 C215 1.209 . S
C221 O218 1.258 . S
C221 O223 1.282 . S
O222 Cd214 2.277 . S
O222 C215 1.226 . S
O223 Cd214 2.356 . S
O223 C221 1.282 . S
C224 C225 1.387 . S
C224 H228 0.950 . S
C224 C233 1.390 1_565 S
C225 C224 1.387 . S
C225 C227 1.387 . S
H226 C233 0.950 . S
C227 C225 1.387 . S
C227 C229 1.390 1_565 S
C227 H231 0.950 . S
H228 C224 0.950 . S
C229 C227 1.390 1_545 S
C229 C230 1.387 . S
C229 H232 0.950 . S
C230 C229 1.387 . S
C230 C233 1.387 . S
H231 C227 0.950 . S
H232 C229 0.950 . S
C233 C224 1.390 1_545 S
C233 H226 0.950 . S
C233 C230 1.387 . S
C234 C235 1.387 . S
C234 H238 0.950 . S
C234 C243 1.390 1_565 S
C235 C234 1.387 . S
C235 C237 1.387 . S
H236 C243 0.950 . S
C237 C235 1.387 . S
C237 C239 1.390 1_565 S
C237 H241 0.950 . S
H238 C234 0.950 . S
C239 C237 1.390 1_545 S
C239 C240 1.387 . S
C239 H242 0.950 . S
C240 C239 1.387 . S
C240 C243 1.387 . S
H241 C237 0.950 . S
H242 C239 0.950 . S
C243 C234 1.390 1_545 S
C243 H236 0.950 . S
C243 C240 1.387 . S
C244 C245 1.387 . S
C244 H248 0.950 . S
C244 C253 1.390 1_565 S
C245 C244 1.387 . S
C245 C247 1.387 . S
H246 C253 0.950 . S
C247 C245 1.387 . S
C247 C249 1.390 1_565 S
C247 H251 0.950 . S
H248 C244 0.950 . S
C249 C247 1.390 1_545 S
C249 C250 1.387 . S
C249 H252 0.950 . S
C250 C249 1.387 . S
C250 C253 1.387 . S
H251 C247 0.950 . S
H252 C249 0.950 . S
C253 C244 1.390 1_545 S
C253 H246 0.950 . S
C253 C250 1.387 . S
C254 C255 1.387 . S
C254 H258 0.950 . S
C254 C263 1.390 1_565 S
C255 C254 1.387 . S
C255 C257 1.387 . S
H256 C263 0.950 . S
C257 C255 1.387 . S
C257 C259 1.390 1_565 S
C257 H261 0.950 . S
H258 C254 0.950 . S
C259 C257 1.390 1_545 S
C259 C260 1.387 . S
C259 H262 0.950 . S
C260 C259 1.387 . S
C260 C263 1.387 . S
H261 C257 0.950 . S
H262 C259 0.950 . S
C263 C254 1.390 1_545 S
C263 H256 0.950 . S
C263 C260 1.387 . S
C264 C265 1.387 . S
C264 H268 0.950 . S
C264 C273 1.390 . S
C265 C264 1.387 . S
C265 C267 1.387 . S
H266 C273 0.950 . S
C267 C265 1.387 . S
C267 C269 1.390 . S
C267 H271 0.950 . S
H268 C264 0.950 . S
C269 C267 1.390 . S
C269 C270 1.387 . S
C269 H272 0.950 . S
C270 C269 1.387 . S
C270 C273 1.387 . S
H271 C267 0.950 . S
H272 C269 0.950 . S
C273 C264 1.390 . S
C273 H266 0.950 . S
C273 C270 1.387 . S
C274 C275 1.387 . S
C274 H278 0.950 . S
C274 C283 1.390 . S
C275 C274 1.387 . S
C275 C277 1.387 . S
H276 C283 0.950 . S
C277 C275 1.387 . S
C277 C279 1.390 . S
C277 H281 0.950 . S
H278 C274 0.950 . S
C279 C277 1.390 . S
C279 C280 1.387 . S
C279 H282 0.950 . S
C280 C279 1.387 . S
C280 C283 1.387 . S
H281 C277 0.950 . S
H282 C279 0.950 . S
C283 C274 1.390 . S
C283 H276 0.950 . S
C283 C280 1.387 . S
C284 C285 1.387 . S
C284 H288 0.950 . S
C284 C293 1.390 . S
C285 C284 1.387 . S
C285 C287 1.387 . S
H286 C293 0.950 . S
C287 C285 1.387 . S
C287 C289 1.390 . S
C287 H291 0.950 . S
H288 C284 0.950 . S
C289 C287 1.390 . S
C289 C290 1.387 . S
C289 H292 0.950 . S
C290 C289 1.387 . S
C290 C293 1.387 . S
H291 C287 0.950 . S
H292 C289 0.950 . S
C293 C284 1.390 . S
C293 H286 0.950 . S
C293 C290 1.387 . S
C294 C295 1.387 . S
C294 H298 0.950 . S
C294 C303 1.390 . S
C295 C294 1.387 . S
C295 C297 1.387 . S
H296 C303 0.950 . S
C297 C295 1.387 . S
C297 C299 1.390 . S
C297 H301 0.950 . S
H298 C294 0.950 . S
C299 C297 1.390 . S
C299 C300 1.387 . S
C299 H302 0.950 . S
C300 C299 1.387 . S
C300 C303 1.387 . S
H301 C297 0.950 . S
H302 C299 0.950 . S
C303 C294 1.390 . S
C303 H296 0.950 . S
C303 C300 1.387 . S
C304 C305 1.387 . S
C304 H308 0.950 1_545 S
C304 C313 1.390 1_655 S
C305 C304 1.387 . S
C305 C307 1.387 . S
H306 C313 0.950 1_565 S
C307 C305 1.387 . S
C307 C309 1.390 1_655 S
C307 H311 0.950 . S
H308 C304 0.950 1_565 S
C309 C307 1.390 1_455 S
C309 C310 1.387 . S
C309 H312 0.950 . S
C310 C309 1.387 . S
C310 C313 1.387 . S
H311 C307 0.950 . S
H312 C309 0.950 . S
C313 C304 1.390 1_455 S
C313 H306 0.950 1_545 S
C313 C310 1.387 . S
C314 C315 1.387 . S
C314 H318 0.950 1_565 S
C314 C323 1.390 . S
C315 C314 1.387 . S
C315 C317 1.387 . S
H316 C323 0.950 1_545 S
C317 C315 1.387 . S
C317 C319 1.390 . S
C317 H321 0.950 . S
H318 C314 0.950 1_545 S
C319 C317 1.390 . S
C319 C320 1.387 . S
C319 H322 0.950 . S
C320 C319 1.387 . S
C320 C323 1.387 . S
H321 C317 0.950 . S
H322 C319 0.950 . S
C323 C314 1.390 . S
C323 H316 0.950 1_565 S
C323 C320 1.387 . S
C324 C325 1.387 . S
C324 H328 0.950 . S
C324 C333 1.390 1_455 S
C325 C324 1.387 . S
C325 C327 1.387 . S
H326 C333 0.950 . S
C327 C325 1.387 . S
C327 C329 1.390 1_455 S
C327 H331 0.950 1_565 S
H328 C324 0.950 . S
C329 C327 1.390 1_655 S
C329 C330 1.387 . S
C329 H332 0.950 1_565 S
C330 C329 1.387 . S
C330 C333 1.387 . S
H331 C327 0.950 1_545 S
H332 C329 0.950 1_545 S
C333 C324 1.390 1_655 S
C333 H326 0.950 . S
C333 C330 1.387 . S
C334 C335 1.387 . S
C334 H338 0.950 1_545 S
C334 C343 1.390 . S
C335 C334 1.387 . S
C335 C337 1.387 . S
H336 C343 0.950 1_565 S
C337 C335 1.387 . S
C337 C339 1.390 . S
C337 H341 0.950 . S
H338 C334 0.950 1_565 S
C339 C337 1.390 . S
C339 C340 1.387 . S
C339 H342 0.950 . S
C340 C339 1.387 . S
C340 C343 1.387 . S
H341 C337 0.950 . S
H342 C339 0.950 . S
C343 C334 1.390 . S
C343 H336 0.950 1_545 S
C343 C340 1.387 . S
C344 C345 1.387 . S
C344 H348 0.950 . S
C344 C353 1.390 . S
C345 C344 1.387 . S
C345 C347 1.387 . S
H346 C353 0.950 . S
C347 C345 1.387 . S
C347 C349 1.390 . S
C347 H351 0.950 . S
H348 C344 0.950 . S
C349 C347 1.390 . S
C349 C350 1.387 . S
C349 H352 0.950 . S
C350 C349 1.387 . S
C350 C353 1.387 . S
H351 C347 0.950 . S
H352 C349 0.950 . S
C353 C344 1.390 . S
C353 H346 0.950 . S
C353 C350 1.387 . S
C354 C355 1.387 . S
C354 H358 0.950 . S
C354 C363 1.390 1_455 S
C355 C354 1.387 . S
C355 C357 1.387 . S
H356 C363 0.950 . S
C357 C355 1.387 . S
C357 C359 1.390 1_455 S
C357 H361 0.950 . S
H358 C354 0.950 . S
C359 C357 1.390 1_655 S
C359 C360 1.387 . S
C359 H362 0.950 . S
C360 C359 1.387 . S
C360 C363 1.387 . S
H361 C357 0.950 . S
H362 C359 0.950 . S
C363 C354 1.390 1_655 S
C363 H356 0.950 . S
C363 C360 1.387 . S
C364 C365 1.387 . S
C364 H368 0.950 . S
C364 C373 1.390 . S
C365 C364 1.387 . S
C365 C367 1.387 . S
H366 C373 0.950 . S
C367 C365 1.387 . S
C367 C369 1.390 . S
C367 H371 0.950 . S
H368 C364 0.950 . S
C369 C367 1.390 . S
C369 C370 1.387 . S
C369 H372 0.950 . S
C370 C369 1.387 . S
C370 C373 1.387 . S
H371 C367 0.950 . S
H372 C369 0.950 . S
C373 C364 1.390 . S
C373 H366 0.950 . S
C373 C370 1.387 . S
C374 C375 1.387 . S
C374 H378 0.950 . S
C374 C383 1.390 1_455 S
C375 C374 1.387 . S
C375 C377 1.387 . S
H376 C383 0.950 . S
C377 C375 1.387 . S
C377 C379 1.390 1_455 S
C377 H381 0.950 . S
H378 C374 0.950 . S
C379 C377 1.390 1_655 S
C379 C380 1.387 . S
C379 H382 0.950 . S
C380 C379 1.387 . S
C380 C383 1.387 . S
H381 C377 0.950 . S
H382 C379 0.950 . S
C383 C374 1.390 1_655 S
C383 H376 0.950 . S
C383 C380 1.387 . S
C384 C385 1.387 . S
C384 H388 0.950 . S
C384 C393 1.390 1_455 S
C385 C384 1.387 . S
C385 C387 1.387 . S
H386 C393 0.950 . S
C387 C385 1.387 . S
C387 C389 1.390 1_455 S
C387 H391 0.950 . S
H388 C384 0.950 . S
C389 C387 1.390 1_655 S
C389 C390 1.387 . S
C389 H392 0.950 . S
C390 C389 1.387 . S
C390 C393 1.387 . S
H391 C387 0.950 . S
H392 C389 0.950 . S
C393 C384 1.390 1_655 S
C393 H386 0.950 . S
C393 C390 1.387 . S
C394 C395 1.387 . S
C394 H398 0.950 . S
C394 C403 1.390 . S
C395 C394 1.387 . S
C395 C397 1.387 . S
H396 C403 0.950 . S
C397 C395 1.387 . S
C397 C399 1.390 . S
C397 H401 0.950 . S
H398 C394 0.950 . S
C399 C397 1.390 . S
C399 C400 1.387 . S
C399 H402 0.950 . S
C400 C399 1.387 . S
C400 C403 1.387 . S
H401 C397 0.950 . S
H402 C399 0.950 . S
C403 C394 1.390 . S
C403 H396 0.950 . S
C403 C400 1.387 . S
C404 C405 1.387 . S
C404 H408 0.950 . S
C404 C413 1.390 . S
C405 C404 1.387 . S
C405 C407 1.387 . S
H406 C413 0.950 . S
C407 C405 1.387 . S
C407 C409 1.390 . S
C407 H411 0.950 . S
H408 C404 0.950 . S
C409 C407 1.390 . S
C409 C410 1.387 . S
C409 H412 0.950 . S
C410 C409 1.387 . S
C410 C413 1.387 . S
H411 C407 0.950 . S
H412 C409 0.950 . S
C413 C404 1.390 . S
C413 H406 0.950 . S
C413 C410 1.387 . S
C414 C415 1.387 . S
C414 H418 0.950 . S
C414 C423 1.390 1_455 S
C415 C414 1.387 . S
C415 C417 1.387 . S
H416 C423 0.950 . S
C417 C415 1.387 . S
C417 C419 1.390 1_455 S
C417 H421 0.950 . S
H418 C414 0.950 . S
C419 C417 1.390 1_655 S
C419 C420 1.387 . S
C419 H422 0.950 . S
C420 C419 1.387 . S
C420 C423 1.387 . S
H421 C417 0.950 . S
H422 C419 0.950 . S
C423 C414 1.390 1_655 S
C423 H416 0.950 . S
C423 C420 1.387 . S
C424 C425 1.387 . S
C424 H428 0.950 . S
C424 C433 1.390 1_455 S
C425 C424 1.387 . S
C425 C427 1.387 . S
H426 C433 0.950 . S
C427 C425 1.387 . S
C427 C429 1.390 1_455 S
C427 H431 0.950 . S
H428 C424 0.950 . S
C429 C427 1.390 1_655 S
C429 C430 1.387 . S
C429 H432 0.950 . S
C430 C429 1.387 . S
C430 C433 1.387 . S
H431 C427 0.950 . S
H432 C429 0.950 . S
C433 C424 1.390 1_655 S
C433 H426 0.950 . S
C433 C430 1.387 . S
C434 C435 1.387 . S
C434 H438 0.950 . S
C434 C443 1.390 . S
C435 C434 1.387 . S
C435 C437 1.387 . S
H436 C443 0.950 . S
C437 C435 1.387 . S
C437 C439 1.390 . S
C437 H441 0.950 . S
H438 C434 0.950 . S
C439 C437 1.390 . S
C439 C440 1.387 . S
C439 H442 0.950 . S
C440 C439 1.387 . S
C440 C443 1.387 . S
H441 C437 0.950 . S
H442 C439 0.950 . S
C443 C434 1.390 . S
C443 H436 0.950 . S
C443 C440 1.387 . S
C444 C445 1.387 . S
C444 H448 0.950 . S
C444 C453 1.390 . S
C445 C444 1.387 . S
C445 C447 1.387 . S
H446 C453 0.950 . S
C447 C445 1.387 . S
C447 C449 1.390 . S
C447 H451 0.950 . S
H448 C444 0.950 . S
C449 C447 1.390 . S
C449 C450 1.387 . S
C449 H452 0.950 . S
C450 C449 1.387 . S
C450 C453 1.387 . S
H451 C447 0.950 . S
H452 C449 0.950 . S
C453 C444 1.390 . S
C453 H446 0.950 . S
C453 C450 1.387 . S
C454 C455 1.387 . S
C454 H458 0.950 . S
C454 C463 1.390 1_455 S
C455 C454 1.387 . S
C455 C457 1.387 . S
H456 C463 0.950 . S
C457 C455 1.387 . S
C457 C459 1.390 1_455 S
C457 H461 0.950 . S
H458 C454 0.950 . S
C459 C457 1.390 1_655 S
C459 C460 1.387 . S
C459 H462 0.950 . S
C460 C459 1.387 . S
C460 C463 1.387 . S
H461 C457 0.950 . S
H462 C459 0.950 . S
C463 C454 1.390 1_655 S
C463 H456 0.950 . S
C463 C460 1.387 . S
C464 C465 1.387 . S
C464 H468 0.950 . S
C464 C473 1.390 1_656 S
C465 C464 1.387 . S
C465 C467 1.387 1_565 S
H466 C473 0.950 . S
C467 C465 1.387 1_545 S
C467 C469 1.390 1_656 S
C467 H471 0.950 . S
H468 C464 0.950 . S
C469 C467 1.390 1_454 S
C469 C470 1.387 . S
C469 H472 0.950 . S
C470 C469 1.387 . S
C470 C473 1.387 1_545 S
H471 C467 0.950 . S
H472 C469 0.950 . S
C473 C464 1.390 1_454 S
C473 H466 0.950 . S
C473 C470 1.387 1_565 S
C474 C475 1.387 1_565 S
C474 H478 0.950 . S
C474 C483 1.390 1_556 S
C475 C474 1.387 1_545 S
C475 C477 1.387 . S
H476 C483 0.950 . S
C477 C475 1.387 . S
C477 C479 1.390 1_556 S
C477 H481 0.950 . S
H478 C474 0.950 . S
C479 C477 1.390 1_554 S
C479 C480 1.387 1_545 S
C479 H482 0.950 . S
C480 C479 1.387 1_565 S
C480 C483 1.387 . S
H481 C477 0.950 . S
H482 C479 0.950 . S
C483 C474 1.390 1_554 S
C483 H476 0.950 . S
C483 C480 1.387 . S
C484 C485 1.387 . S
C484 H488 0.950 . S
C484 C493 1.390 . S
C485 C484 1.387 . S
C485 C487 1.387 1_545 S
H486 C493 0.950 . S
C487 C485 1.387 1_565 S
C487 C489 1.390 . S
C487 H491 0.950 . S
H488 C484 0.950 . S
C489 C487 1.390 . S
C489 C490 1.387 . S
C489 H492 0.950 . S
C490 C489 1.387 . S
C490 C493 1.387 1_565 S
H491 C487 0.950 . S
H492 C489 0.950 . S
C493 C484 1.390 . S
C493 H486 0.950 . S
C493 C490 1.387 1_545 S
C494 C495 1.387 1_545 S
C494 H498 0.950 . S
C494 C503 1.390 . S
C495 C494 1.387 1_565 S
C495 C497 1.387 1_455 S
H496 C503 0.950 . S
C497 C495 1.387 1_655 S
C497 C499 1.390 . S
C497 H501 0.950 . S
H498 C494 0.950 . S
C499 C497 1.390 . S
C499 C500 1.387 1_565 S
C499 H502 0.950 . S
C500 C499 1.387 1_545 S
C500 C503 1.387 1_655 S
H501 C497 0.950 . S
H502 C499 0.950 . S
C503 C494 1.390 . S
C503 H496 0.950 . S
C503 C500 1.387 1_455 S
C504 C505 1.387 . S
C504 H508 0.950 . S
C504 C513 1.390 1_554 S
C505 C504 1.387 . S
C505 C507 1.387 . S
H506 C513 0.950 . S
C507 C505 1.387 . S
C507 C509 1.390 1_554 S
C507 H511 0.950 . S
H508 C504 0.950 . S
C509 C507 1.390 1_556 S
C509 C510 1.387 . S
C509 H512 0.950 . S
C510 C509 1.387 . S
C510 C513 1.387 . S
H511 C507 0.950 . S
H512 C509 0.950 . S
C513 C504 1.390 1_556 S
C513 H506 0.950 . S
C513 C510 1.387 . S
C514 C515 1.387 1_455 S
C514 H518 0.950 . S
C514 C523 1.390 1_554 S
C515 C514 1.387 1_655 S
C515 C517 1.387 . S
H516 C523 0.950 . S
C517 C515 1.387 . S
C517 C519 1.390 1_554 S
C517 H521 0.950 . S
H518 C514 0.950 . S
C519 C517 1.390 1_556 S
C519 C520 1.387 1_655 S
C519 H522 0.950 . S
C520 C519 1.387 1_455 S
C520 C523 1.387 . S
H521 C517 0.950 . S
H522 C519 0.950 . S
C523 C514 1.390 1_556 S
C523 H516 0.950 . S
C523 C520 1.387 . S
C524 C525 1.387 1_455 S
C524 H528 0.950 . S
C524 C533 1.390 . S
C525 C524 1.387 1_655 S
C525 C527 1.387 . S
H526 C533 0.950 . S
C527 C525 1.387 . S
C527 C529 1.390 . S
C527 H531 0.950 . S
H528 C524 0.950 . S
C529 C527 1.390 . S
C529 C530 1.387 1_655 S
C529 H532 0.950 . S
C530 C529 1.387 1_455 S
C530 C533 1.387 . S
H531 C527 0.950 . S
H532 C529 0.950 . S
C533 C524 1.390 . S
C533 H526 0.950 . S
C533 C530 1.387 . S
C534 C535 1.387 . S
C534 H538 0.950 . S
C534 C543 1.390 . S
C535 C534 1.387 . S
C535 C537 1.387 . S
H536 C543 0.950 . S
C537 C535 1.387 . S
C537 C539 1.390 . S
C537 H541 0.950 . S
H538 C534 0.950 . S
C539 C537 1.390 . S
C539 C540 1.387 . S
C539 H542 0.950 . S
C540 C539 1.387 . S
C540 C543 1.387 . S
H541 C537 0.950 . S
H542 C539 0.950 . S
C543 C534 1.390 . S
C543 H536 0.950 . S
C543 C540 1.387 . S
C225 C25 1.503 . S
C230 C11 1.503 . S
C235 C39 1.503 . S
C240 C53 1.503 . S
C245 C67 1.503 . S
C250 C81 1.503 . S
C255 C109 1.503 . S
C260 C95 1.503 . S
C265 C137 1.503 . S
C270 C123 1.503 . S
C275 C165 1.505 . S
C280 C151 1.505 . S
C285 C193 1.505 . S
C290 C179 1.505 . S
C295 C221 1.505 . S
C300 C207 1.505 . S
C305 C42 1.432 . S
C310 C0 1.432 . S
C315 C14 1.432 . S
C320 C28 1.432 . S
C325 C98 1.432 . S
C330 C56 1.432 . S
C335 C84 1.433 . S
C340 C70 1.433 . S
C345 C112 1.432 . S
C350 C154 1.432 . S
C355 C140 1.432 . S
C360 C126 1.432 . S
C365 C210 1.432 . S
C370 C168 1.432 . S
C375 C182 1.432 . S
C380 C196 1.432 . S
C385 C5 1.508 . S
C390 C131 1.508 . S
C395 C19 1.508 . S
C400 C117 1.508 . S
C405 C159 1.508 . S
C410 C33 1.508 . S
C415 C145 1.508 . S
C420 C47 1.508 . S
C425 C187 1.508 . S
C430 C61 1.508 . S
C435 C173 1.508 . S
C440 C75 1.508 . S
C445 C89 1.508 . S
C450 C215 1.508 . S
C455 C103 1.508 . S
C460 C201 1.508 . S
C465 C65 1.382 . S
C470 C9 1.382 . S
C475 C79 1.384 . S
C480 C23 1.384 . S
C485 C93 1.382 . S
C490 C37 1.382 . S
C495 C107 1.384 . S
C500 C51 1.384 . S
C505 C121 1.384 . S
C510 C177 1.384 . S
C515 C135 1.383 . S
C520 C191 1.383 . S
C525 C205 1.382 . S
C530 C149 1.382 . S
C535 C219 1.382 . S
C540 C163 1.382 . S
