# Generated by pormake.
# Topology umh, (4)-cn, num edge types: 1
# Building blocks:
#     Node 0, Type 0, BuildingBlock: GALJAG_clean_sbu_0, # of connection points: 4
#     Node 1, Type 0, BuildingBlock: GALJAG_clean_sbu_0, # of connection points: 4
#     Node 2, Type 0, BuildingBlock: GALJAG_clean_sbu_0, # of connection points: 4
#     Node 3, Type 0, BuildingBlock: GALJAG_clean_sbu_0, # of connection points: 4
#     Node 4, Type 0, BuildingBlock: GALJAG_clean_sbu_0, # of connection points: 4
#     Node 5, Type 0, BuildingBlock: GALJAG_clean_sbu_0, # of connection points: 4
#     Node 6, Type 0, BuildingBlock: GALJAG_clean_sbu_0, # of connection points: 4
#     Node 7, Type 0, BuildingBlock: GALJAG_clean_sbu_0, # of connection points: 4
#     Node 8, Type 0, BuildingBlock: GALJAG_clean_sbu_0, # of connection points: 4
#     Node 9, Type 0, BuildingBlock: GALJAG_clean_sbu_0, # of connection points: 4
#     Node 10, Type 0, BuildingBlock: GALJAG_clean_sbu_0, # of connection points: 4
#     Node 11, Type 0, BuildingBlock: GALJAG_clean_sbu_0, # of connection points: 4
#     Node 12, Type 0, BuildingBlock: GALJAG_clean_sbu_0, # of connection points: 4
#     Node 13, Type 0, BuildingBlock: GALJAG_clean_sbu_0, # of connection points: 4
#     Node 14, Type 0, BuildingBlock: GALJAG_clean_sbu_0, # of connection points: 4
#     Node 15, Type 0, BuildingBlock: GALJAG_clean_sbu_0, # of connection points: 4
#     Edge 16, Type (0, 0), BuildingBlock: ZUJKAS_clean_linker_0, # of connection points: 2
#     Edge 17, Type (0, 0), BuildingBlock: ZUJKAS_clean_linker_0, # of connection points: 2
#     Edge 18, Type (0, 0), BuildingBlock: ZUJKAS_clean_linker_0, # of connection points: 2
#     Edge 19, Type (0, 0), BuildingBlock: ZUJKAS_clean_linker_0, # of connection points: 2
#     Edge 20, Type (0, 0), BuildingBlock: ZUJKAS_clean_linker_0, # of connection points: 2
#     Edge 21, Type (0, 0), BuildingBlock: ZUJKAS_clean_linker_0, # of connection points: 2
#     Edge 22, Type (0, 0), BuildingBlock: ZUJKAS_clean_linker_0, # of connection points: 2
#     Edge 23, Type (0, 0), BuildingBlock: ZUJKAS_clean_linker_0, # of connection points: 2
#     Edge 24, Type (0, 0), BuildingBlock: ZUJKAS_clean_linker_0, # of connection points: 2
#     Edge 25, Type (0, 0), BuildingBlock: ZUJKAS_clean_linker_0, # of connection points: 2
#     Edge 26, Type (0, 0), BuildingBlock: ZUJKAS_clean_linker_0, # of connection points: 2
#     Edge 27, Type (0, 0), BuildingBlock: ZUJKAS_clean_linker_0, # of connection points: 2
#     Edge 28, Type (0, 0), BuildingBlock: ZUJKAS_clean_linker_0, # of connection points: 2
#     Edge 29, Type (0, 0), BuildingBlock: ZUJKAS_clean_linker_0, # of connection points: 2
#     Edge 30, Type (0, 0), BuildingBlock: ZUJKAS_clean_linker_0, # of connection points: 2
#     Edge 31, Type (0, 0), BuildingBlock: ZUJKAS_clean_linker_0, # of connection points: 2
#     Edge 32, Type (0, 0), BuildingBlock: ZUJKAS_clean_linker_0, # of connection points: 2
#     Edge 33, Type (0, 0), BuildingBlock: ZUJKAS_clean_linker_0, # of connection points: 2
#     Edge 34, Type (0, 0), BuildingBlock: ZUJKAS_clean_linker_0, # of connection points: 2
#     Edge 35, Type (0, 0), BuildingBlock: ZUJKAS_clean_linker_0, # of connection points: 2
#     Edge 36, Type (0, 0), BuildingBlock: ZUJKAS_clean_linker_0, # of connection points: 2
#     Edge 37, Type (0, 0), BuildingBlock: ZUJKAS_clean_linker_0, # of connection points: 2
#     Edge 38, Type (0, 0), BuildingBlock: ZUJKAS_clean_linker_0, # of connection points: 2
#     Edge 39, Type (0, 0), BuildingBlock: ZUJKAS_clean_linker_0, # of connection points: 2
#     Edge 40, Type (0, 0), BuildingBlock: ZUJKAS_clean_linker_0, # of connection points: 2
#     Edge 41, Type (0, 0), BuildingBlock: ZUJKAS_clean_linker_0, # of connection points: 2
#     Edge 42, Type (0, 0), BuildingBlock: ZUJKAS_clean_linker_0, # of connection points: 2
#     Edge 43, Type (0, 0), BuildingBlock: ZUJKAS_clean_linker_0, # of connection points: 2
#     Edge 44, Type (0, 0), BuildingBlock: ZUJKAS_clean_linker_0, # of connection points: 2
#     Edge 45, Type (0, 0), BuildingBlock: ZUJKAS_clean_linker_0, # of connection points: 2
#     Edge 46, Type (0, 0), BuildingBlock: ZUJKAS_clean_linker_0, # of connection points: 2
#     Edge 47, Type (0, 0), BuildingBlock: ZUJKAS_clean_linker_0, # of connection points: 2
# Relax obj value: 0.114
# Max RMSD: 0.280
# Mean RMSD: 0.280
data_MOF--net-umh--node1-GALJAG_clean_sbu_0--edge1-ZUJKAS_clean_linker_0
_symmetry_space_group_name_H-M    P1
_symmetry_Int_Tables_number       1
_symmetry_cell_setting            triclinic
loop_
_symmetry_equiv_pos_as_xyz
'x, y, z'
_cell_length_a     52.46308
_cell_length_b     52.396268
_cell_length_c     68.442381
_cell_angle_alpha  89.991514
_cell_angle_beta   89.985943
_cell_angle_gamma 89.873888
loop_
_atom_site_label
_atom_site_type_symbol
_atom_site_fract_x
_atom_site_fract_y
_atom_site_fract_z
_atom_type_partial_charge
In0 In 0.34917 0.09502 0.15266 0.0
O1 O 0.34212 0.08019 0.12141 0.0
O2 O 0.36847 0.1106 0.12571 0.0
C3 C 0.31885 0.07027 0.17818 0.0
C4 C 0.39452 0.07602 0.16311 0.0
C5 C 0.32595 0.14016 0.15741 0.0
O6 O 0.31597 0.06777 0.15988 0.0
O7 O 0.33711 0.08445 0.18318 0.0
O8 O 0.34663 0.13498 0.16609 0.0
O9 O 0.3177 0.12291 0.14624 0.0
C10 C 0.35755 0.09592 0.11375 0.0
O11 O 0.3897 0.09968 0.16418 0.0
O12 O 0.37652 0.06232 0.15676 0.0
In13 In 0.39674 0.34864 0.64902 0.0
O14 O 0.3908 0.38878 0.66116 0.0
O15 O 0.42592 0.37992 0.64679 0.0
C16 C 0.35316 0.32409 0.65674 0.0
C17 C 0.39383 0.35216 0.6097 0.0
C18 C 0.42482 0.3237 0.67605 0.0
O19 O 0.35562 0.34773 0.66008 0.0
O20 O 0.37245 0.31333 0.64942 0.0
O21 O 0.42451 0.31664 0.65833 0.0
O22 O 0.41198 0.34352 0.67963 0.0
C23 C 0.41247 0.39643 0.65551 0.0
O24 O 0.41207 0.34047 0.61799 0.0
O25 O 0.37745 0.36137 0.62121 0.0
In26 In 0.13534 0.39769 0.15055 0.0
O27 O 0.09503 0.39105 0.16193 0.0
O28 O 0.10592 0.42871 0.15317 0.0
C29 C 0.16108 0.35426 0.15672 0.0
C30 C 0.12768 0.39542 0.11161 0.0
C31 C 0.16283 0.42522 0.17623 0.0
O32 O 0.13957 0.3582 0.16456 0.0
O33 O 0.16894 0.37186 0.14572 0.0
O34 O 0.16789 0.42559 0.15811 0.0
O35 O 0.14391 0.41175 0.18091 0.0
C36 C 0.08877 0.41429 0.15998 0.0
O37 O 0.14141 0.41268 0.11921 0.0
O38 O 0.11815 0.37986 0.12363 0.0
In39 In 0.08947 0.14168 0.649 0.0
O40 O 0.07282 0.14975 0.61843 0.0
O41 O 0.10916 0.13176 0.62067 0.0
C42 C 0.05906 0.16311 0.67627 0.0
C43 C 0.07847 0.09242 0.65476 0.0
C44 C 0.13071 0.16985 0.65716 0.0
O45 O 0.05918 0.17094 0.65875 0.0
O46 O 0.07323 0.14411 0.67953 0.0
O47 O 0.13082 0.14583 0.65921 0.0
O48 O 0.11014 0.17917 0.65084 0.0
C49 C 0.09173 0.13996 0.60962 0.0
O50 O 0.09883 0.10223 0.66125 0.0
O51 O 0.06392 0.10754 0.64561 0.0
In52 In 0.3551 0.39163 0.36355 0.0
O53 O 0.39649 0.3864 0.3539 0.0
O54 O 0.38209 0.42415 0.35875 0.0
C55 C 0.33044 0.34739 0.35925 0.0
C56 C 0.36247 0.39129 0.40254 0.0
C57 C 0.3268 0.41642 0.3368 0.0
O58 O 0.35139 0.35151 0.35061 0.0
O59 O 0.32269 0.36519 0.37015 0.0
O60 O 0.32379 0.42043 0.35496 0.0
O61 O 0.34404 0.40052 0.33257 0.0
C62 C 0.40073 0.4102 0.35389 0.0
O63 O 0.3469 0.40667 0.39457 0.0
O64 O 0.37405 0.37668 0.39084 0.0
In65 In 0.08945 0.34829 0.86621 0.0
O66 O 0.07419 0.34169 0.8974 0.0
O67 O 0.1057 0.36675 0.89327 0.0
C68 C 0.06283 0.31964 0.84066 0.0
C69 C 0.07246 0.39463 0.85622 0.0
C70 C 0.13382 0.32381 0.861 0.0
O71 O 0.06129 0.31585 0.85892 0.0
O72 O 0.07711 0.33786 0.83573 0.0
O73 O 0.12912 0.34478 0.85254 0.0
O74 O 0.11644 0.31577 0.87212 0.0
C75 C 0.09046 0.35645 0.90515 0.0
O76 O 0.0958 0.38867 0.85476 0.0
O77 O 0.05808 0.37727 0.86274 0.0
In78 In 0.12579 0.10153 0.36299 0.0
O79 O 0.13318 0.08738 0.39426 0.0
O80 O 0.11083 0.12108 0.39002 0.0
C81 C 0.15021 0.07224 0.33648 0.0
C82 C 0.07771 0.08711 0.35686 0.0
C83 C 0.15363 0.14354 0.35713 0.0
O84 O 0.15588 0.07131 0.35447 0.0
O85 O 0.13197 0.08697 0.33234 0.0
O86 O 0.13138 0.14155 0.35011 0.0
O87 O 0.16119 0.1247 0.36704 0.0
C88 C 0.12044 0.10539 0.40197 0.0
O89 O 0.08595 0.10829 0.35054 0.0
O90 O 0.09381 0.07349 0.36587 0.0
In91 In 0.39687 0.13972 0.86788 0.0
O92 O 0.39084 0.09956 0.85585 0.0
O93 O 0.42608 0.1084 0.87002 0.0
C94 C 0.35324 0.16496 0.86153 0.0
C95 C 0.3937 0.13458 0.90701 0.0
C96 C 0.42487 0.16582 0.84146 0.0
O97 O 0.35697 0.14288 0.85456 0.0
O98 O 0.37125 0.17374 0.8717 0.0
O99 O 0.42547 0.17134 0.85948 0.0
O100 O 0.41118 0.14687 0.83725 0.0
C101 C 0.41252 0.09186 0.86152 0.0
O102 O 0.41152 0.14724 0.89907 0.0
O103 O 0.37785 0.12502 0.89523 0.0
In104 In 0.63922 0.89631 0.86764 0.0
O105 O 0.59895 0.88992 0.85618 0.0
O106 O 0.61066 0.92789 0.86336 0.0
C107 C 0.66593 0.85323 0.86371 0.0
C108 C 0.63203 0.89499 0.90666 0.0
C109 C 0.66603 0.91957 0.83929 0.0
O110 O 0.64306 0.85493 0.85788 0.0
O111 O 0.67467 0.87291 0.87198 0.0
O112 O 0.6681 0.92655 0.85702 0.0
O113 O 0.65022 0.90186 0.83633 0.0
C114 C 0.59325 0.9134 0.85705 0.0
O115 O 0.64705 0.91104 0.89888 0.0
O116 O 0.621 0.88031 0.89477 0.0
In117 In 0.59698 0.64269 0.37029 0.0
O118 O 0.58088 0.65045 0.40108 0.0
O119 O 0.61791 0.63407 0.39839 0.0
C120 C 0.56586 0.66676 0.34461 0.0
C121 C 0.58523 0.59348 0.36515 0.0
C122 C 0.64044 0.66692 0.36143 0.0
O123 O 0.56757 0.67383 0.36225 0.0
O124 O 0.57859 0.64706 0.34052 0.0
O125 O 0.6383 0.64298 0.35977 0.0
O126 O 0.62083 0.67827 0.36762 0.0
C127 C 0.60038 0.64152 0.40966 0.0
O128 O 0.60283 0.60401 0.35547 0.0
O129 O 0.57345 0.60779 0.37694 0.0
In130 In 0.84966 0.59343 0.86917 0.0
O131 O 0.85582 0.61733 0.89627 0.0
O132 O 0.84194 0.57967 0.90067 0.0
C133 C 0.8247 0.56118 0.8451 0.0
C134 C 0.89842 0.57958 0.8641 0.0
C135 C 0.82597 0.63557 0.85642 0.0
O136 O 0.84564 0.57153 0.84077 0.0
O137 O 0.8169 0.56578 0.86226 0.0
O138 O 0.81437 0.61577 0.86182 0.0
O139 O 0.85003 0.63448 0.85757 0.0
C140 C 0.84912 0.60046 0.90833 0.0
O141 O 0.889 0.59877 0.85547 0.0
O142 O 0.88318 0.56757 0.87503 0.0
In143 In 0.90511 0.8488 0.36705 0.0
O144 O 0.92196 0.84449 0.39811 0.0
O145 O 0.88648 0.86369 0.39451 0.0
C146 C 0.93292 0.82279 0.34057 0.0
C147 C 0.91751 0.89614 0.35595 0.0
C148 C 0.86368 0.81995 0.36166 0.0
O149 O 0.93578 0.8191 0.35878 0.0
O150 O 0.91694 0.83987 0.33617 0.0
O151 O 0.86406 0.84329 0.35686 0.0
O152 O 0.88385 0.81168 0.36947 0.0
C153 C 0.90353 0.85617 0.40615 0.0
O154 O 0.895 0.88776 0.35432 0.0
O155 O 0.9334 0.8807 0.3633 0.0
In156 In 0.6364 0.59632 0.65485 0.0
O157 O 0.64376 0.5807 0.62391 0.0
O158 O 0.61603 0.61018 0.62787 0.0
C159 C 0.66445 0.57298 0.68254 0.0
C160 C 0.59082 0.57861 0.6656 0.0
C161 C 0.66244 0.64005 0.65555 0.0
O162 O 0.66643 0.5668 0.66466 0.0
O163 O 0.6484 0.59037 0.68607 0.0
O164 O 0.64139 0.63786 0.6645 0.0
O165 O 0.66978 0.62044 0.64644 0.0
C166 C 0.62761 0.59566 0.6161 0.0
O167 O 0.59603 0.60221 0.66657 0.0
O168 O 0.60856 0.56445 0.65929 0.0
In169 In 0.8967 0.64146 0.15322 0.0
O170 O 0.88977 0.60169 0.16574 0.0
O171 O 0.92206 0.6076 0.14726 0.0
C172 C 0.85501 0.66714 0.16453 0.0
C173 C 0.88994 0.64117 0.11409 0.0
C174 C 0.92934 0.66406 0.17833 0.0
O175 O 0.85655 0.64312 0.16611 0.0
O176 O 0.87434 0.67782 0.15726 0.0
O177 O 0.92649 0.67208 0.16101 0.0
O178 O 0.91677 0.64428 0.1824 0.0
C179 C 0.90913 0.59218 0.15741 0.0
O180 O 0.91031 0.64946 0.12175 0.0
O181 O 0.87337 0.63374 0.12615 0.0
In182 In 0.8618 0.8934 0.65137 0.0
O183 O 0.85393 0.91038 0.62086 0.0
O184 O 0.88344 0.88261 0.62414 0.0
C185 C 0.83161 0.91351 0.67926 0.0
C186 C 0.90678 0.90994 0.6647 0.0
C187 C 0.83715 0.84887 0.65065 0.0
O188 O 0.83306 0.92372 0.66245 0.0
O189 O 0.84542 0.89401 0.68161 0.0
O190 O 0.85788 0.85152 0.65993 0.0
O191 O 0.82954 0.86839 0.64151 0.0
C192 C 0.87114 0.897 0.61273 0.0
O193 O 0.90186 0.88635 0.66333 0.0
O194 O 0.88905 0.92477 0.65939 0.0
In195 In 0.58912 0.84563 0.15163 0.0
O196 O 0.57543 0.83803 0.12011 0.0
O197 O 0.61043 0.8578 0.1246 0.0
C198 C 0.55963 0.82204 0.1784 0.0
C199 C 0.57409 0.89384 0.15713 0.0
C200 C 0.63115 0.81902 0.1604 0.0
O201 O 0.5599 0.81492 0.16068 0.0
O202 O 0.57309 0.84137 0.18204 0.0
O203 O 0.6297 0.84278 0.16366 0.0
O204 O 0.61174 0.80926 0.15252 0.0
C205 C 0.59444 0.84924 0.1125 0.0
O206 O 0.59504 0.88564 0.16393 0.0
O207 O 0.56095 0.87763 0.14788 0.0
H208 H 0.35841 0.1058 0.92596 0.0
H209 H 0.3538 0.09895 0.96106 0.0
H210 H 0.41882 0.14715 0.97175 0.0
H211 H 0.42354 0.15425 0.93643 0.0
H212 H 0.3898 0.07811 0.98773 0.0
H213 H 0.36216 0.17746 1.00703 0.0
H214 H 0.36124 0.16565 0.98226 0.0
H215 H 0.39113 0.17417 0.99322 0.0
C216 C 0.37174 0.11504 0.93574 0.0
C217 C 0.3913 0.13069 0.9284 0.0
C218 C 0.36909 0.11103 0.95582 0.0
C219 C 0.38578 0.12272 0.96904 0.0
C220 C 0.40549 0.13824 0.96181 0.0
H221 H 0.39277 0.12554 0.09555 0.0
H222 H 0.40004 0.13061 0.06056 0.0
C223 C 0.40823 0.1422 0.94164 0.0
C224 C 0.38247 0.1184 0.99036 0.0
H225 H 0.36741 0.14845 0.03312 0.0
C226 C 0.38491 0.09347 0.99769 0.0
C227 C 0.37603 0.13845 1.00328 0.0
C228 C 0.37226 0.16543 0.99611 0.0
C229 C 0.38147 0.08811 0.01765 0.0
C230 C 0.37483 0.10814 0.03058 0.0
C231 C 0.37245 0.13308 0.02322 0.0
C232 C 0.3708 0.10388 0.05187 0.0
C233 C 0.38555 0.06115 0.02476 0.0
C234 C 0.35189 0.08711 0.05873 0.0
C235 C 0.34777 0.08402 0.07885 0.0
C236 C 0.3623 0.09787 0.09244 0.0
C237 C 0.38122 0.11456 0.08549 0.0
C238 C 0.3854 0.11753 0.06546 0.0
H239 H 0.39711 0.04979 0.01429 0.0
H240 H 0.39521 0.06095 0.0392 0.0
H241 H 0.36679 0.05164 0.02638 0.0
H242 H 0.33999 0.07677 0.04853 0.0
H243 H 0.33293 0.07117 0.08375 0.0
H244 H 0.39839 0.3631 0.42142 0.0
H245 H 0.40414 0.35762 0.45657 0.0
H246 H 0.3419 0.40957 0.46743 0.0
H247 H 0.33592 0.41515 0.43205 0.0
H248 H 0.41393 0.39481 0.48631 0.0
H249 H 0.32243 0.34353 0.4976 0.0
H250 H 0.33642 0.3478 0.47372 0.0
H251 H 0.32012 0.37383 0.48539 0.0
C252 C 0.38594 0.37347 0.43125 0.0
C253 C 0.36658 0.38947 0.42394 0.0
C254 C 0.38931 0.37033 0.45136 0.0
C255 C 0.37327 0.38291 0.46462 0.0
C256 C 0.35426 0.39938 0.45743 0.0
H257 H 0.35733 0.37878 0.59023 0.0
H258 H 0.3536 0.38611 0.5552 0.0
C259 C 0.35095 0.40266 0.43723 0.0
C260 C 0.37638 0.37837 0.48592 0.0
H261 H 0.34688 0.35243 0.52571 0.0
C262 C 0.39929 0.38555 0.49496 0.0
C263 C 0.35732 0.36616 0.49712 0.0
C264 C 0.33274 0.35716 0.48801 0.0
C265 C 0.40345 0.38132 0.51501 0.0
C266 C 0.3844 0.36903 0.52623 0.0
C267 C 0.36152 0.36179 0.51712 0.0
C268 C 0.38727 0.36437 0.54758 0.0
C269 C 0.42791 0.39067 0.52409 0.0
C270 C 0.40734 0.34943 0.55506 0.0
C271 C 0.40962 0.34526 0.57525 0.0
C272 C 0.39171 0.35577 0.58826 0.0
C273 C 0.37148 0.37039 0.58065 0.0
C274 C 0.36929 0.37461 0.56058 0.0
H275 H 0.43737 0.4053 0.51484 0.0
H276 H 0.42439 0.39896 0.53877 0.0
H277 H 0.44127 0.37437 0.52575 0.0
H278 H 0.42114 0.34084 0.54529 0.0
H279 H 0.42533 0.33383 0.58066 0.0
H280 H 0.06406 0.33329 0.93502 0.0
H281 H 0.06875 0.34108 0.97028 0.0
H282 H 0.1258 0.39814 0.95844 0.0
H283 H 0.12123 0.39058 0.92345 0.0
H284 H 0.11507 0.33646 0.99264 0.0
H285 H 0.07577 0.43484 0.99565 0.0
H286 H 0.06996 0.41357 0.97538 0.0
H287 H 0.09989 0.42997 0.97739 0.0
C288 C 0.07743 0.34763 0.93996 0.0
C289 C 0.09221 0.36136 0.92644 0.0
C290 C 0.08012 0.35204 0.96008 0.0
C291 C 0.09738 0.37046 0.96696 0.0
C292 C 0.11203 0.3842 0.95347 0.0
H293 H 0.14869 0.42319 0.08149 0.0
H294 H 0.14164 0.41712 0.04627 0.0
C295 C 0.10948 0.37972 0.93345 0.0
C296 C 0.10103 0.37464 0.98825 0.0
H297 H 0.09708 0.41992 0.02409 0.0
C298 C 0.11095 0.35463 0.99957 0.0
C299 C 0.09593 0.39846 0.99719 0.0
C300 C 0.0846 0.42041 0.98585 0.0
C301 C 0.11632 0.35791 0.01953 0.0
C302 C 0.11108 0.38171 0.02853 0.0
C303 C 0.10115 0.40173 0.01719 0.0
C304 C 0.11508 0.38588 0.04981 0.0
C305 C 0.12817 0.33604 0.03066 0.0
C306 C 0.10212 0.37076 0.06347 0.0
C307 C 0.10618 0.37411 0.08346 0.0
C308 C 0.12311 0.39288 0.09031 0.0
C309 C 0.13561 0.40853 0.07666 0.0
C310 C 0.13159 0.40507 0.05656 0.0
H311 H 0.13776 0.32228 0.02072 0.0
H312 H 0.14231 0.343 0.04147 0.0
H313 H 0.11302 0.3256 0.03865 0.0
H314 H 0.08881 0.35629 0.05866 0.0
H315 H 0.09604 0.36189 0.09357 0.0
H316 H 0.05921 0.15879 0.5815 0.0
H317 H 0.06246 0.15285 0.5459 0.0
H318 H 0.13105 0.10862 0.55381 0.0
H319 H 0.12812 0.11456 0.58911 0.0
H320 H 0.10914 0.16548 0.52096 0.0
H321 H 0.08066 0.06331 0.51988 0.0
H322 H 0.0721 0.08463 0.53959 0.0
H323 H 0.10397 0.07233 0.53787 0.0
C324 C 0.07496 0.14783 0.57562 0.0
C325 C 0.09338 0.13713 0.58811 0.0
C326 C 0.0768 0.14446 0.55532 0.0
C327 C 0.09685 0.13005 0.5473 0.0
C328 C 0.11528 0.11953 0.55974 0.0
H329 H 0.144 0.07918 0.43173 0.0
H330 H 0.13828 0.0856 0.46702 0.0
C331 C 0.1136 0.12306 0.57991 0.0
C332 C 0.09903 0.12626 0.5259 0.0
H333 H 0.09665 0.08055 0.49037 0.0
C334 C 0.10621 0.147 0.5142 0.0
C335 C 0.09553 0.10203 0.51724 0.0
C336 C 0.08747 0.07926 0.5292 0.0
C337 C 0.1105 0.14404 0.49405 0.0
C338 C 0.10681 0.1198 0.48529 0.0
C339 C 0.0995 0.09909 0.49705 0.0
C340 C 0.11013 0.11563 0.46394 0.0
C341 C 0.11974 0.16675 0.4825 0.0
C342 C 0.09589 0.12996 0.45048 0.0
C343 C 0.09931 0.1265 0.43042 0.0
C344 C 0.11675 0.1083 0.42332 0.0
C345 C 0.13051 0.0934 0.43676 0.0
C346 C 0.12723 0.09705 0.45691 0.0
H347 H 0.12895 0.18116 0.49207 0.0
H348 H 0.13356 0.16091 0.47105 0.0
H349 H 0.10323 0.17607 0.47527 0.0
H350 H 0.08204 0.14385 0.45549 0.0
H351 H 0.08817 0.13808 0.42045 0.0
H352 H 0.63226 0.87562 0.09448 0.0
H353 H 0.63751 0.88421 0.05972 0.0
H354 H 0.56993 0.84044 0.04722 0.0
H355 H 0.56416 0.83224 0.0823 0.0
H356 H 0.64519 0.85245 0.02947 0.0
H357 H 0.55505 0.90605 0.01818 0.0
H358 H 0.56702 0.89833 0.04218 0.0
H359 H 0.5506 0.87461 0.028 0.0
C360 C 0.61843 0.8678 0.08438 0.0
C361 C 0.5977 0.85331 0.09118 0.0
C362 C 0.6215 0.87275 0.06447 0.0
C363 C 0.60393 0.86336 0.05082 0.0
C364 C 0.58342 0.84843 0.05749 0.0
H365 H 0.59643 0.86588 0.92483 0.0
H366 H 0.59017 0.85948 0.9598 0.0
C367 C 0.58024 0.84356 0.07752 0.0
C368 C 0.60757 0.86899 0.02966 0.0
H369 H 0.57924 0.89633 0.9898 0.0
C370 C 0.6308 0.86216 0.02083 0.0
C371 C 0.58886 0.88179 0.01837 0.0
C372 C 0.56408 0.89086 0.02718 0.0
C373 C 0.63564 0.86733 1.00102 0.0
C374 C 0.61687 0.87991 0.98973 0.0
C375 C 0.59365 0.88677 0.99851 0.0
C376 C 0.62046 0.88494 0.96853 0.0
C377 C 0.66057 0.85874 0.99217 0.0
C378 C 0.63936 0.90178 0.96177 0.0
C379 C 0.64296 0.90562 0.94165 0.0
C380 C 0.62775 0.89259 0.92801 0.0
C381 C 0.60857 0.87615 0.93492 0.0
C382 C 0.6049 0.87248 0.95493 0.0
H383 H 0.67088 0.84509 1.00177 0.0
H384 H 0.65733 0.84956 0.97776 0.0
H385 H 0.67297 0.87559 0.98983 0.0
H386 H 0.65137 0.91186 0.97205 0.0
H387 H 0.65785 0.91841 0.93678 0.0
H388 H 0.58909 0.62065 0.59769 0.0
H389 H 0.58305 0.62692 0.56267 0.0
H390 H 0.65057 0.58229 0.55109 0.0
H391 H 0.65634 0.57535 0.58629 0.0
H392 H 0.61392 0.65111 0.53776 0.0
H393 H 0.60115 0.5513 0.51281 0.0
H394 H 0.59992 0.56015 0.53828 0.0
H395 H 0.63014 0.5561 0.52621 0.0
C396 C 0.60249 0.61185 0.58769 0.0
C397 C 0.62317 0.59743 0.59476 0.0
C398 C 0.59903 0.61551 0.56765 0.0
C399 C 0.61618 0.6049 0.55417 0.0
C400 C 0.63673 0.59021 0.56115 0.0
H401 H 0.63965 0.6203 0.4299 0.0
H402 H 0.64251 0.61229 0.46497 0.0
C403 C 0.64009 0.58633 0.58128 0.0
C404 C 0.61314 0.61047 0.53295 0.0
H405 H 0.60704 0.58266 0.48802 0.0
C406 C 0.61222 0.63612 0.52691 0.0
C407 C 0.61087 0.59095 0.51876 0.0
C408 C 0.61031 0.56309 0.52432 0.0
C409 C 0.60963 0.64274 0.50711 0.0
C410 C 0.60772 0.62322 0.49294 0.0
C411 C 0.60852 0.5976 0.49893 0.0
C412 C 0.60584 0.62896 0.47174 0.0
C413 C 0.60958 0.67056 0.5014 0.0
C414 C 0.58422 0.64109 0.46387 0.0
C415 C 0.58247 0.64569 0.44371 0.0
C416 C 0.60234 0.63825 0.43114 0.0
C417 C 0.62403 0.62636 0.43916 0.0
C418 C 0.62569 0.62168 0.45921 0.0
H419 H 0.61598 0.68304 0.51356 0.0
H420 H 0.62215 0.67378 0.48858 0.0
H421 H 0.58996 0.67634 0.49725 0.0
H422 H 0.56854 0.64661 0.47327 0.0
H423 H 0.56548 0.65474 0.43796 0.0
H424 H 0.86089 0.64479 0.92681 0.0
H425 H 0.86751 0.65179 0.96168 0.0
H426 H 0.84877 0.57313 0.97324 0.0
H427 H 0.84229 0.56586 0.93811 0.0
H428 H 0.83429 0.64577 0.99309 0.0
H429 H 0.91878 0.58224 0.99975 0.0
H430 H 0.9065 0.59272 0.97644 0.0
H431 H 0.89088 0.5675 0.98955 0.0
C432 C 0.85807 0.62895 0.93674 0.0
C433 C 0.85117 0.60471 0.92968 0.0
C434 C 0.86187 0.63301 0.95669 0.0
C435 C 0.85904 0.61292 0.97004 0.0
C436 C 0.85152 0.5888 0.96314 0.0
H437 H 0.84685 0.62547 0.0957 0.0
H438 H 0.83987 0.61963 0.06077 0.0
C439 C 0.84762 0.58472 0.9431 0.0
C440 C 0.864 0.61748 0.99113 0.0
H441 H 0.90288 0.60041 0.02904 0.0
C442 C 0.84928 0.63584 1.00096 0.0
C443 C 0.88387 0.60486 1.00128 0.0
C444 C 0.90111 0.58588 0.99123 0.0
C445 C 0.8536 0.64163 0.02072 0.0
C446 C 0.87296 0.62847 0.03103 0.0
C447 C 0.88798 0.61041 0.02113 0.0
C448 C 0.87736 0.63261 0.05224 0.0
C449 C 0.83759 0.66205 0.03033 0.0
C450 C 0.90097 0.64147 0.05915 0.0
C451 C 0.9051 0.6448 0.07924 0.0
C452 C 0.88572 0.63909 0.09273 0.0
C453 C 0.86214 0.63021 0.08571 0.0
C454 C 0.85805 0.62695 0.06571 0.0
H455 H 0.82878 0.675 0.01938 0.0
H456 H 0.822 0.65289 0.03872 0.0
H457 H 0.84915 0.67362 0.04061 0.0
H458 H 0.91619 0.64582 0.04899 0.0
H459 H 0.92349 0.65152 0.08422 0.0
H460 H 0.93639 0.84144 0.43551 0.0
H461 H 0.93174 0.84958 0.47075 0.0
H462 H 0.8618 0.89053 0.45984 0.0
H463 H 0.86607 0.88224 0.42497 0.0
H464 H 0.9281 0.89613 0.49115 0.0
H465 H 0.84026 0.83896 0.50115 0.0
H466 H 0.85997 0.8364 0.47962 0.0
H467 H 0.83768 0.86234 0.48209 0.0
C468 C 0.92001 0.85209 0.44068 0.0
C469 C 0.90151 0.86101 0.42746 0.0
C470 C 0.91738 0.85676 0.46079 0.0
C471 C 0.89616 0.87027 0.46798 0.0
C472 C 0.878 0.87955 0.45473 0.0
H473 H 0.84224 0.9181 0.58328 0.0
H474 H 0.84902 0.91357 0.54788 0.0
C475 C 0.88057 0.87489 0.43474 0.0
C476 C 0.89298 0.87511 0.48927 0.0
H477 H 0.85201 0.86607 0.5275 0.0
C478 C 0.91156 0.88943 0.49913 0.0
C479 C 0.87131 0.86646 0.49967 0.0
C480 C 0.85128 0.84999 0.49016 0.0
C481 C 0.90882 0.89569 0.51902 0.0
C482 C 0.88708 0.88715 0.52936 0.0
C483 C 0.86853 0.87283 0.5195 0.0
C484 C 0.88384 0.89164 0.55067 0.0
C485 C 0.929 0.91177 0.52871 0.0
C486 C 0.90113 0.88086 0.56395 0.0
C487 C 0.89726 0.88334 0.58405 0.0
C488 C 0.87598 0.89664 0.59137 0.0
C489 C 0.85889 0.9079 0.57809 0.0
C490 C 0.86271 0.90525 0.55789 0.0
H491 H 0.94056 0.92241 0.51783 0.0
H492 H 0.92032 0.92562 0.53905 0.0
H493 H 0.94204 0.89917 0.53709 0.0
H494 H 0.9173 0.86989 0.55876 0.0
H495 H 0.91076 0.87437 0.59388 0.0
H496 H 0.20127 0.33778 0.13544 0.0
H497 H 0.22901 0.3015 0.14204 0.0
H498 H 0.18518 0.28364 0.19362 0.0
H499 H 0.1566 0.31974 0.18665 0.0
H500 H 0.2593 0.29262 0.17335 0.0
H501 H 0.18697 0.21564 0.16565 0.0
H502 H 0.18068 0.24808 0.15826 0.0
H503 H 0.18027 0.23962 0.1837 0.0
C504 C 0.19737 0.32601 0.14811 0.0
C505 C 0.17672 0.33142 0.16048 0.0
C506 C 0.21332 0.30537 0.15192 0.0
C507 C 0.20911 0.28981 0.16827 0.0
C508 C 0.18851 0.29516 0.18074 0.0
H509 H 0.32951 0.17357 0.18809 0.0
H510 H 0.30154 0.21027 0.19465 0.0
C511 C 0.17224 0.31574 0.17677 0.0
C512 C 0.22652 0.26804 0.17181 0.0
H513 H 0.22929 0.20305 0.17088 0.0
C514 C 0.25278 0.27299 0.17306 0.0
C515 C 0.21786 0.24252 0.17145 0.0
C516 C 0.18995 0.236 0.16956 0.0
C517 C 0.27074 0.25314 0.17272 0.0
C518 C 0.26209 0.22765 0.17164 0.0
C519 C 0.2358 0.22266 0.17166 0.0
C520 C 0.2797 0.20608 0.16799 0.0
C521 C 0.29874 0.25969 0.17226 0.0
C522 C 0.27657 0.19157 0.15096 0.0
C523 C 0.29216 0.17058 0.14736 0.0
C524 C 0.31137 0.16379 0.16065 0.0
C525 C 0.315 0.17863 0.17752 0.0
C526 C 0.29907 0.19956 0.18126 0.0
H527 H 0.30199 0.2803 0.16939 0.0
H528 H 0.30741 0.25497 0.1866 0.0
H529 H 0.30878 0.24843 0.16086 0.0
H530 H 0.26185 0.19637 0.14047 0.0
H531 H 0.28898 0.15949 0.13423 0.0
H532 H 0.34673 0.2728 0.6551 0.0
H533 H 0.30735 0.24882 0.65976 0.0
H534 H 0.26691 0.31875 0.67202 0.0
H535 H 0.30647 0.34307 0.66741 0.0
H536 H 0.27127 0.24905 0.69405 0.0
H537 H 0.23103 0.28339 0.62336 0.0
H538 H 0.26471 0.28474 0.62866 0.0
H539 H 0.24327 0.30688 0.64009 0.0
C540 C 0.3295 0.2831 0.65891 0.0
C541 C 0.32956 0.30982 0.66073 0.0
C542 C 0.30709 0.26935 0.66165 0.0
C543 C 0.28435 0.28208 0.66612 0.0
C544 C 0.28437 0.30869 0.66848 0.0
H545 H 0.13101 0.22136 0.66069 0.0
H546 H 0.16771 0.2491 0.66569 0.0
C547 C 0.3069 0.3225 0.66585 0.0
C548 C 0.26045 0.26741 0.66716 0.0
H549 H 0.20685 0.25383 0.64112 0.0
C550 C 0.25699 0.25019 0.68261 0.0
C551 C 0.24207 0.26902 0.65215 0.0
C552 C 0.24534 0.28686 0.63502 0.0
C553 C 0.23548 0.23435 0.68342 0.0
C554 C 0.21742 0.23543 0.6681 0.0
C555 C 0.22073 0.25304 0.65285 0.0
C556 C 0.19511 0.21823 0.66722 0.0
C557 C 0.23222 0.21681 0.70072 0.0
C558 C 0.19832 0.19161 0.6666 0.0
C559 C 0.17727 0.17564 0.66392 0.0
C560 C 0.15285 0.18614 0.66147 0.0
C561 C 0.14967 0.21274 0.66242 0.0
C562 C 0.17059 0.22862 0.66531 0.0
H563 H 0.243 0.22376 0.71363 0.0
H564 H 0.21183 0.21491 0.70481 0.0
H565 H 0.23966 0.19761 0.69692 0.0
H566 H 0.21715 0.18321 0.66757 0.0
H567 H 0.18023 0.15519 0.66314 0.0
H568 H 0.29364 0.32921 0.38303 0.0
H569 H 0.2643 0.29421 0.37667 0.0
H570 H 0.30136 0.27984 0.32143 0.0
H571 H 0.33154 0.31456 0.32811 0.0
H572 H 0.23046 0.29102 0.34697 0.0
H573 H 0.29796 0.20895 0.34481 0.0
H574 H 0.30712 0.2399 0.3539 0.0
H575 H 0.30451 0.2345 0.32806 0.0
C576 C 0.2958 0.31834 0.36965 0.0
C577 C 0.31487 0.32446 0.35608 0.0
C578 C 0.27895 0.29845 0.36599 0.0
C579 C 0.28065 0.28441 0.3486 0.0
C580 C 0.29997 0.29017 0.33509 0.0
H581 H 0.15007 0.18029 0.32865 0.0
H582 H 0.18047 0.21504 0.32246 0.0
C583 C 0.31717 0.30996 0.3389 0.0
C584 C 0.26156 0.26428 0.34478 0.0
H585 H 0.25449 0.19982 0.34095 0.0
C586 C 0.23565 0.27106 0.34544 0.0
C587 C 0.26849 0.23835 0.34271 0.0
C588 C 0.296 0.22984 0.34246 0.0
C589 C 0.21646 0.25249 0.34534 0.0
C590 C 0.22343 0.22648 0.34393 0.0
C591 C 0.24927 0.21982 0.34202 0.0
C592 C 0.20476 0.20575 0.34706 0.0
C593 C 0.1891 0.26078 0.34799 0.0
C594 C 0.20853 0.18894 0.36273 0.0
C595 C 0.19156 0.16907 0.36607 0.0
C596 C 0.1703 0.1657 0.35391 0.0
C597 C 0.1662 0.1827 0.33835 0.0
C598 C 0.1835 0.20251 0.33483 0.0
H599 H 0.18757 0.28105 0.35264 0.0
H600 H 0.1788 0.25869 0.33393 0.0
H601 H 0.1794 0.2487 0.35904 0.0
H602 H 0.22469 0.19119 0.37243 0.0
H603 H 0.19515 0.15629 0.37821 0.0
H604 H 0.33676 0.2056 0.88233 0.0
H605 H 0.29921 0.23185 0.87639 0.0
H606 H 0.2803 0.18565 0.82625 0.0
H607 H 0.31762 0.15849 0.83267 0.0
H608 H 0.28746 0.2609 0.8456 0.0
H609 H 0.2138 0.18574 0.85555 0.0
H610 H 0.24676 0.18067 0.86193 0.0
H611 H 0.23692 0.17954 0.83678 0.0
C612 C 0.32451 0.20089 0.87012 0.0
C613 C 0.32995 0.17995 0.85802 0.0
C614 C 0.30312 0.21597 0.86668 0.0
C615 C 0.28685 0.21063 0.85096 0.0
C616 C 0.29232 0.18981 0.8387 0.0
H617 H 0.16743 0.32734 0.83049 0.0
H618 H 0.20458 0.29989 0.82439 0.0
C619 C 0.31362 0.17437 0.84234 0.0
C620 C 0.2643 0.22714 0.84777 0.0
H621 H 0.19934 0.22732 0.84921 0.0
C622 C 0.26815 0.25358 0.84621 0.0
C623 C 0.23918 0.21747 0.84857 0.0
C624 C 0.23379 0.18934 0.85095 0.0
C625 C 0.24763 0.27077 0.84656 0.0
C626 C 0.22254 0.26113 0.84784 0.0
C627 C 0.21863 0.23461 0.84825 0.0
C628 C 0.20026 0.278 0.85103 0.0
C629 C 0.25314 0.29904 0.84676 0.0
C630 C 0.18531 0.27452 0.86782 0.0
C631 C 0.16399 0.28976 0.87111 0.0
C632 C 0.15731 0.309 0.85779 0.0
C633 C 0.17241 0.31282 0.8411 0.0
C634 C 0.19362 0.29721 0.83763 0.0
H635 H 0.27347 0.30308 0.85006 0.0
H636 H 0.24878 0.30719 0.83217 0.0
H637 H 0.24112 0.30898 0.85774 0.0
H638 H 0.19014 0.25991 0.8784 0.0
H639 H 0.15268 0.28643 0.88411 0.0
H640 H 0.71615 0.84783 0.87236 0.0
H641 H 0.7435 0.81106 0.86589 0.0
H642 H 0.67988 0.77095 0.84057 0.0
H643 H 0.65218 0.80784 0.84701 0.0
H644 H 0.7087 0.74403 0.8702 0.0
H645 H 0.7707 0.78486 0.81234 0.0
H646 H 0.76693 0.80439 0.83374 0.0
H647 H 0.73986 0.79811 0.81842 0.0
C648 C 0.70794 0.83121 0.86538 0.0
C649 C 0.68202 0.83064 0.86021 0.0
C650 C 0.72367 0.81036 0.86153 0.0
C651 C 0.71376 0.7886 0.85243 0.0
C652 C 0.68785 0.78778 0.8474 0.0
H653 H 0.77921 0.63743 0.83999 0.0
H654 H 0.75226 0.6751 0.83567 0.0
C655 C 0.67208 0.80876 0.85116 0.0
C656 C 0.73021 0.76609 0.84948 0.0
H657 H 0.78435 0.74563 0.82662 0.0
C658 C 0.72506 0.74419 0.86049 0.0
C659 C 0.75164 0.76667 0.83697 0.0
C660 C 0.75758 0.78969 0.82455 0.0
C661 C 0.74128 0.72297 0.85982 0.0
C662 C 0.7628 0.72348 0.84732 0.0
C663 C 0.76778 0.74531 0.83609 0.0
C664 C 0.7806 0.70166 0.84627 0.0
C665 C 0.73575 0.70063 0.8731 0.0
C666 C 0.80603 0.70445 0.85229 0.0
C667 C 0.82168 0.68297 0.85436 0.0
C668 C 0.81187 0.65857 0.85062 0.0
C669 C 0.78703 0.65607 0.84325 0.0
C670 C 0.77162 0.67751 0.84085 0.0
H671 H 0.72277 0.70603 0.88526 0.0
H672 H 0.72633 0.68532 0.86456 0.0
H673 H 0.75358 0.69275 0.87945 0.0
H674 H 0.81333 0.72302 0.85639 0.0
H675 H 0.8408 0.68529 0.86004 0.0
H676 H 0.68764 0.64688 0.35395 0.0
H677 H 0.72761 0.6706 0.34971 0.0
H678 H 0.68657 0.74164 0.35513 0.0
H679 H 0.64673 0.71824 0.35944 0.0
H680 H 0.72701 0.73648 0.32281 0.0
H681 H 0.75737 0.71215 0.39866 0.0
H682 H 0.74644 0.68673 0.38309 0.0
H683 H 0.72442 0.71075 0.39111 0.0
C684 C 0.68715 0.66755 0.35401 0.0
C685 C 0.66419 0.68076 0.3572 0.0
C686 C 0.70991 0.68101 0.3516 0.0
C687 C 0.70987 0.70777 0.35221 0.0
C688 C 0.68686 0.72097 0.3546 0.0
H689 H 0.81511 0.83379 0.35162 0.0
H690 H 0.77837 0.8055 0.34746 0.0
C691 C 0.66419 0.70758 0.35715 0.0
C692 C 0.73392 0.72217 0.35181 0.0
H693 H 0.78396 0.73925 0.38063 0.0
C694 C 0.73967 0.73698 0.33534 0.0
C695 C 0.75018 0.72268 0.36823 0.0
C696 C 0.7444 0.70737 0.38637 0.0
C697 C 0.76144 0.75248 0.33488 0.0
C698 C 0.77733 0.7536 0.35156 0.0
C699 C 0.77172 0.73837 0.36788 0.0
C700 C 0.79967 0.7707 0.35272 0.0
C701 C 0.7673 0.76728 0.31651 0.0
C702 C 0.82364 0.76057 0.35745 0.0
C703 C 0.84442 0.77667 0.36023 0.0
C704 C 0.84164 0.80322 0.35823 0.0
C705 C 0.81776 0.81338 0.35316 0.0
C706 C 0.79685 0.79723 0.3506 0.0
H707 H 0.75825 0.75843 0.3035 0.0
H708 H 0.75964 0.78694 0.31797 0.0
H709 H 0.78817 0.76851 0.31396 0.0
H710 H 0.8262 0.74018 0.35924 0.0
H711 H 0.86266 0.7683 0.36402 0.0
H712 H 0.83884 0.81107 0.67812 0.0
H713 H 0.80892 0.77548 0.68168 0.0
H714 H 0.77053 0.79889 0.62885 0.0
H715 H 0.79967 0.83489 0.62566 0.0
H716 H 0.73731 0.79034 0.65771 0.0
H717 H 0.80509 0.70904 0.65244 0.0
H718 H 0.81246 0.73136 0.67149 0.0
H719 H 0.81407 0.74128 0.64636 0.0
C720 C 0.82426 0.80831 0.66713 0.0
C721 C 0.82155 0.82561 0.65159 0.0
C722 C 0.80721 0.78798 0.66915 0.0
C723 C 0.78763 0.78443 0.65543 0.0
C724 C 0.78544 0.80134 0.63963 0.0
H725 H 0.69938 0.65288 0.62992 0.0
H726 H 0.72834 0.68907 0.63155 0.0
C727 C 0.80217 0.8218 0.63777 0.0
C728 C 0.76869 0.76374 0.65773 0.0
H729 H 0.76225 0.69907 0.65968 0.0
C730 C 0.74273 0.77035 0.65818 0.0
C731 C 0.77586 0.73773 0.65829 0.0
C732 C 0.80336 0.72934 0.65694 0.0
C733 C 0.72367 0.75164 0.6586 0.0
C734 C 0.73085 0.72563 0.65918 0.0
C735 C 0.75682 0.71906 0.65932 0.0
C736 C 0.71193 0.70478 0.65797 0.0
C737 C 0.69611 0.75986 0.65758 0.0
C738 C 0.69276 0.70182 0.67214 0.0
C739 C 0.6758 0.68128 0.67104 0.0
C740 C 0.67819 0.66323 0.65598 0.0
C741 C 0.69717 0.66647 0.64173 0.0
C742 C 0.71378 0.68709 0.64268 0.0
H743 H 0.69412 0.77991 0.65251 0.0
H744 H 0.68512 0.74734 0.64758 0.0
H745 H 0.6875 0.75851 0.67235 0.0
H746 H 0.6913 0.71501 0.68427 0.0
H747 H 0.66146 0.67901 0.68229 0.0
H748 H 0.80759 0.6488 0.17329 0.0
H749 H 0.76844 0.67393 0.1777 0.0
H750 H 0.81149 0.74347 0.17161 0.0
H751 H 0.85055 0.71865 0.16708 0.0
H752 H 0.7686 0.73905 0.20399 0.0
H753 H 0.74324 0.7169 0.1267 0.0
H754 H 0.75351 0.69109 0.14224 0.0
H755 H 0.7757 0.71548 0.13541 0.0
C756 C 0.80874 0.66944 0.17323 0.0
C757 C 0.83199 0.68181 0.16964 0.0
C758 C 0.78644 0.68371 0.17577 0.0
C759 C 0.78726 0.71044 0.17491 0.0
C760 C 0.81062 0.72283 0.17236 0.0
H761 H 0.67848 0.83527 0.17186 0.0
H762 H 0.71632 0.80864 0.1775 0.0
C763 C 0.83284 0.70862 0.16968 0.0
C764 C 0.76355 0.7255 0.17457 0.0
H765 H 0.71525 0.74327 0.14421 0.0
C766 C 0.75676 0.73994 0.19102 0.0
C767 C 0.74845 0.7266 0.15753 0.0
C768 C 0.7555 0.71184 0.13936 0.0
C769 C 0.73485 0.7554 0.1909 0.0
C770 C 0.71989 0.75673 0.17374 0.0
C771 C 0.72676 0.74216 0.15735 0.0
C772 C 0.69684 0.77288 0.17227 0.0
C773 C 0.72771 0.76982 0.20918 0.0
C774 C 0.67353 0.76161 0.1673 0.0
C775 C 0.65216 0.77671 0.16379 0.0
C776 C 0.65367 0.80341 0.16522 0.0
C777 C 0.67682 0.81473 0.17071 0.0
C778 C 0.69835 0.79954 0.17409 0.0
H779 H 0.73703 0.7616 0.22233 0.0
H780 H 0.73401 0.78993 0.20774 0.0
H781 H 0.70675 0.76978 0.21142 0.0
H782 H 0.672 0.74108 0.16577 0.0
H783 H 0.63451 0.76744 0.15971 0.0
H784 H 0.13456 0.06068 0.29978 0.0
H785 H 0.16121 0.04921 0.27187 0.0
H786 H 0.22725 0.04703 0.3094 0.0
H787 H 0.20037 0.05763 0.33755 0.0
H788 H 0.19678 0.07968 0.25864 0.0
H789 H 0.24199 0.9867 0.27511 0.0
H790 H 0.21483 -0.00148 0.2886 0.0
H791 H 0.24649 0.00933 0.29445 0.0
C792 C 0.15464 0.05695 0.30219 0.0
C793 C 0.16541 0.06004 0.32084 0.0
C794 C 0.16988 0.05046 0.2862 0.0
C795 C 0.19627 0.04712 0.28845 0.0
C796 C 0.20688 0.04889 0.30729 0.0
H797 H 0.32716 0.06593 0.21716 0.0
H798 H 0.29608 0.05585 0.24254 0.0
C799 C 0.19152 0.05505 0.3234 0.0
C800 C 0.21287 0.04532 0.27083 0.0
H801 H 0.26228 0.0122 0.25024 0.0
C802 C 0.21075 0.06462 0.25665 0.0
C803 C 0.23124 0.02577 0.26822 0.0
C804 C 0.23362 0.00377 0.28231 0.0
C805 C 0.22703 0.06547 0.24039 0.0
C806 C 0.24587 0.04638 0.23809 0.0
C807 C 0.24772 0.02674 0.25199 0.0
C808 C 0.26531 0.04817 0.2224 0.0
C809 C 0.22474 0.0875 0.22627 0.0
C810 C 0.25856 0.04629 0.20257 0.0
C811 C 0.2764 0.05197 0.18793 0.0
C812 C 0.30116 0.05976 0.19297 0.0
C813 C 0.30818 0.06014 0.21281 0.0
C814 C 0.29047 0.0543 0.22735 0.0
H815 H 0.21183 0.10272 0.23178 0.0
H816 H 0.24374 0.09599 0.22337 0.0
H817 H 0.21703 0.08045 0.21217 0.0
H818 H 0.23924 0.04139 0.19845 0.0
H819 H 0.27045 0.05154 0.17278 0.0
H820 H 0.43492 0.27234 0.67687 0.0
H821 H 0.44424 0.24657 0.70601 0.0
H822 H 0.44949 0.31517 0.74057 0.0
H823 H 0.43938 0.34082 0.71175 0.0
H824 H 0.48214 0.24355 0.73476 0.0
H825 H 0.39074 0.27784 0.76628 0.0
H826 H 0.39942 0.28345 0.74116 0.0
H827 H 0.41252 0.30299 0.76028 0.0
C828 C 0.43865 0.28191 0.6906 0.0
C829 C 0.43613 0.30854 0.69211 0.0
C830 C 0.4439 0.26718 0.70725 0.0
C831 C 0.44687 0.27891 0.72559 0.0
C832 C 0.44657 0.30565 0.7267 0.0
H833 H 0.44134 0.2154 0.84389 0.0
H834 H 0.45187 0.2437 0.81643 0.0
C835 C 0.44097 0.3203 0.71019 0.0
C836 C 0.44805 0.2633 0.74373 0.0
H837 H 0.41617 0.25167 0.78636 0.0
C838 C 0.46778 0.24538 0.74608 0.0
C839 C 0.42922 0.26558 0.75849 0.0
C840 C 0.40664 0.28331 0.75641 0.0
C841 C 0.4692 0.22978 0.76281 0.0
C842 C 0.4503 0.23203 0.77747 0.0
C843 C 0.43085 0.25021 0.77524 0.0
C844 C 0.44871 0.21428 0.79437 0.0
C845 C 0.49089 0.21101 0.76467 0.0
C846 C 0.44393 0.1883 0.79113 0.0
C847 C 0.43779 0.17223 0.80672 0.0
C848 C 0.43631 0.18178 0.8259 0.0
C849 C 0.44253 0.20746 0.8293 0.0
C850 C 0.44847 0.22364 0.81362 0.0
H851 H 0.50741 0.21665 0.75549 0.0
H852 H 0.49726 0.20929 0.78009 0.0
H853 H 0.48438 0.19195 0.7597 0.0
H854 H 0.44349 0.18072 0.77641 0.0
H855 H 0.43303 0.15253 0.80362 0.0
H856 H 0.14783 0.44172 0.21189 0.0
H857 H 0.175 0.45198 0.23974 0.0
H858 H 0.24166 0.44286 0.20343 0.0
H859 H 0.21431 0.43359 0.17527 0.0
H860 H 0.20575 0.41808 0.25476 0.0
H861 H 0.26349 0.50268 0.23574 0.0
H862 H 0.23544 0.49375 0.22209 0.0
H863 H 0.26554 0.47833 0.21739 0.0
C864 C 0.16826 0.44276 0.20971 0.0
C865 C 0.179 0.43688 0.19145 0.0
C866 C 0.18378 0.44856 0.22565 0.0
C867 C 0.21043 0.44829 0.22376 0.0
C868 C 0.22118 0.4438 0.20522 0.0
H869 H 0.33598 0.41665 0.29781 0.0
H870 H 0.30692 0.42907 0.27165 0.0
C871 C 0.20555 0.43841 0.18912 0.0
C872 C 0.22666 0.449 0.24161 0.0
H873 H 0.27958 0.47624 0.26189 0.0
C874 C 0.22158 0.43118 0.25645 0.0
C875 C 0.24743 0.46596 0.24384 0.0
C876 C 0.25315 0.48642 0.22899 0.0
C877 C 0.23717 0.42915 0.27303 0.0
C878 C 0.25837 0.44555 0.27497 0.0
C879 C 0.26321 0.46379 0.2604 0.0
C880 C 0.27704 0.44204 0.29103 0.0
C881 C 0.23154 0.40863 0.2879 0.0
C882 C 0.2702 0.446 0.31066 0.0
C883 C 0.28688 0.43893 0.32575 0.0
C884 C 0.31054 0.42769 0.32136 0.0
C885 C 0.3178 0.42508 0.30167 0.0
C886 C 0.30126 0.43228 0.28668 0.0
H887 H 0.21683 0.39501 0.2827 0.0
H888 H 0.24913 0.39776 0.29148 0.0
H889 H 0.22451 0.41762 0.30156 0.0
H890 H 0.25162 0.45372 0.3143 0.0
H891 H 0.2808 0.44118 0.34078 0.0
H892 H 0.0471 0.21389 0.67817 0.0
H893 H 0.03744 0.23822 0.70791 0.0
H894 H 0.03408 0.16816 0.7409 0.0
H895 H 0.04467 0.14394 0.71144 0.0
H896 H 0.00055 0.23993 0.73695 0.0
H897 H 0.09269 0.20492 0.76682 0.0
H898 H 0.08353 0.19997 0.74174 0.0
H899 H 0.07069 0.18 0.76072 0.0
C900 C 0.04364 0.20367 0.69167 0.0
C901 C 0.04693 0.17708 0.69258 0.0
C902 C 0.03821 0.21758 0.70867 0.0
C903 C 0.03577 0.20506 0.72675 0.0
C904 C 0.03662 0.17829 0.72724 0.0
H905 H 0.04578 0.2704 0.84471 0.0
H906 H 0.03366 0.24116 0.81819 0.0
C907 C 0.04246 0.16445 0.71037 0.0
C908 C 0.03485 0.22001 0.74521 0.0
H909 H 0.06821 0.23143 0.78719 0.0
C910 C 0.01524 0.23795 0.748 0.0
C911 C 0.0541 0.21752 0.75962 0.0
C912 C 0.07658 0.19976 0.75706 0.0
C913 C 0.01451 0.25357 0.76471 0.0
C914 C 0.03397 0.25129 0.77892 0.0
C915 C 0.05313 0.2329 0.77639 0.0
C916 C 0.03668 0.26958 0.79536 0.0
C917 C 0.99308 0.27257 0.76697 0.0
C918 C 0.04202 0.29525 0.79134 0.0
C919 C 0.04913 0.3118 0.80635 0.0
C920 C 0.05099 0.30306 0.82573 0.0
C921 C 0.04431 0.27769 0.82995 0.0
C922 C 0.03745 0.26099 0.81482 0.0
H923 H 0.97611 0.26692 0.75829 0.0
H924 H 0.98743 0.2746 0.78253 0.0
H925 H -0.00047 0.29149 0.76164 0.0
H926 H 0.04208 0.30219 0.77643 0.0
H927 H 0.05419 0.33125 0.80265 0.0
H928 H 0.66601 0.90314 0.80183 0.0
H929 H 0.69473 0.91483 0.77559 0.0
H930 H 0.73063 0.9705 0.81296 0.0
H931 H 0.70224 0.9579 0.83992 0.0
H932 H 0.70445 0.95663 0.75551 0.0
H933 H 0.79127 0.92885 0.79727 0.0
H934 H 0.75965 0.92242 0.80623 0.0
H935 H 0.77248 0.95416 0.80758 0.0
C936 C 0.67989 0.918 0.80455 0.0
C937 C 0.68202 0.92938 0.82308 0.0
C938 C 0.69629 0.92477 0.78943 0.0
C939 C 0.71521 0.94327 0.79228 0.0
C940 C 0.71662 0.95571 0.8105 0.0
H941 H 0.80701 0.96001 0.68309 0.0
H942 H 0.78015 0.974 0.71064 0.0
C943 C 0.70028 0.94866 0.82586 0.0
C944 C 0.73397 0.94787 0.7763 0.0
H945 H 0.79639 0.9381 0.76419 0.0
C946 C 0.72465 0.95298 0.75742 0.0
C947 C 0.76035 0.94312 0.77881 0.0
C948 C 0.77162 0.93665 0.7985 0.0
C949 C 0.74049 0.95149 0.74087 0.0
C950 C 0.76663 0.94557 0.74332 0.0
C951 C 0.77633 0.94254 0.76233 0.0
C952 C 0.78334 0.93838 0.72657 0.0
C953 C 0.72867 0.95437 0.72089 0.0
C954 C 0.79453 0.91405 0.7265 0.0
C955 C 0.81008 0.90631 0.71111 0.0
C956 C 0.81475 0.92259 0.69519 0.0
C957 C 0.80356 0.947 0.69509 0.0
C958 C 0.78814 0.95494 0.71079 0.0
H959 H 0.7075 0.95419 0.72148 0.0
H960 H 0.7347 0.97282 0.71443 0.0
H961 H 0.73509 0.93881 0.71102 0.0
H962 H 0.79105 0.90081 0.73837 0.0
H963 H 0.81829 0.88733 0.71164 0.0
H964 H 0.55764 0.65296 0.30681 0.0
H965 H 0.54625 0.68084 0.27956 0.0
H966 H 0.53541 0.74348 0.31957 0.0
H967 H 0.54713 0.71565 0.34702 0.0
H968 H 0.50444 0.71374 0.26951 0.0
H969 H 0.59448 0.76649 0.28376 0.0
H970 H 0.58756 0.73618 0.29504 0.0
H971 H 0.57259 0.76479 0.30391 0.0
C972 C 0.5523 0.67253 0.3099 0.0
C973 C 0.55358 0.68219 0.32906 0.0
C974 C 0.54574 0.68844 0.29428 0.0
C975 C 0.54043 0.71434 0.29747 0.0
C976 C 0.53982 0.72361 0.31675 0.0
H977 H 0.54669 0.83932 0.21442 0.0
H978 H 0.53667 0.81381 0.24326 0.0
C979 C 0.54635 0.70766 0.33244 0.0
C980 C 0.5383 0.73192 0.28049 0.0
H981 H 0.56987 0.77996 0.25714 0.0
C982 C 0.51858 0.7284 0.26685 0.0
C983 C 0.55692 0.75086 0.27695 0.0
C984 C 0.57923 0.75478 0.29056 0.0
C985 C 0.51695 0.74343 0.24982 0.0
C986 C 0.53582 0.76211 0.24617 0.0
C987 C 0.5553 0.76577 0.25996 0.0
C988 C 0.53659 0.77768 0.22795 0.0
C989 C 0.49496 0.73929 0.23601 0.0
C990 C 0.53896 0.76603 0.2095 0.0
C991 C 0.54436 0.78072 0.19286 0.0
C992 C 0.54791 0.80721 0.19448 0.0
C993 C 0.54408 0.81894 0.21272 0.0
C994 C 0.53841 0.80435 0.22924 0.0
H995 H 0.47845 0.73044 0.24358 0.0
H996 H 0.48867 0.75753 0.22928 0.0
H997 H 0.50106 0.72618 0.22416 0.0
H998 H 0.53819 0.74547 0.20813 0.0
H999 H 0.54754 0.77114 0.17905 0.0
H1000 H 0.77288 0.55658 0.84466 0.0
H1001 H 0.74634 0.54752 0.81617 0.0
H1002 H 0.81369 0.53036 0.78239 0.0
H1003 H 0.84031 0.54044 0.81066 0.0
H1004 H 0.78665 0.56487 0.76471 0.0
H1005 H 0.72056 0.48791 0.78607 0.0
H1006 H 0.71964 0.51358 0.80335 0.0
H1007 H 0.7486 0.49547 0.80021 0.0
C1008 C 0.78196 0.55 0.83136 0.0
C1009 C 0.80866 0.54923 0.82987 0.0
C1010 C 0.76674 0.54473 0.81504 0.0
C1011 C 0.77792 0.53802 0.79707 0.0
C1012 C 0.80456 0.53548 0.79604 0.0
H1013 H 0.70797 0.54381 0.67939 0.0
H1014 H 0.73646 0.53061 0.70614 0.0
C1015 C 0.81977 0.54114 0.81224 0.0
C1016 C 0.76236 0.53734 0.77885 0.0
H1017 H 0.7069 0.51478 0.75917 0.0
C1018 C 0.76953 0.55344 0.76335 0.0
C1019 C 0.73992 0.52255 0.77701 0.0
C1020 C 0.7319 0.50372 0.79249 0.0
C1021 C 0.75434 0.55609 0.74659 0.0
C1022 C 0.73138 0.54215 0.74515 0.0
C1023 C 0.72455 0.52542 0.7603 0.0
C1024 C 0.71306 0.54691 0.72903 0.0
C1025 C 0.76227 0.57482 0.73097 0.0
C1026 C 0.6902 0.55971 0.7331 0.0
C1027 C 0.67409 0.56731 0.71795 0.0
C1028 C 0.68037 0.56208 0.69837 0.0
C1029 C 0.70266 0.54812 0.69432 0.0
C1030 C 0.71895 0.54065 0.70956 0.0
H1031 H 0.77875 0.58667 0.73556 0.0
H1032 H 0.76773 0.56422 0.71757 0.0
H1033 H 0.74614 0.58766 0.72718 0.0
H1034 H 0.6853 0.56474 0.748 0.0
H1035 H 0.65697 0.5779 0.72158 0.0
H1036 H 0.93579 0.83314 0.30181 0.0
H1037 H 0.9471 0.80375 0.27553 0.0
H1038 H 0.96741 0.74641 0.31798 0.0
H1039 H 0.95591 0.77587 0.34454 0.0
H1040 H 0.99157 0.77338 0.26534 0.0
H1041 H 0.90689 0.71568 0.28657 0.0
H1042 H 0.91199 0.74756 0.2957 0.0
H1043 H 0.9303 0.72139 0.30523 0.0
C1044 C 0.94316 0.81446 0.3056 0.0
C1045 C 0.9447 0.8067 0.32524 0.0
C1046 C 0.94969 0.79771 0.29054 0.0
C1047 C 0.95774 0.7728 0.29478 0.0
C1048 C 0.96097 0.7655 0.3144 0.0
H1049 H 0.9464 0.64598 0.21317 0.0
H1050 H 0.95964 0.671 0.24151 0.0
C1051 C 0.95454 0.78237 0.32955 0.0
C1052 C 0.95986 0.754 0.27863 0.0
H1053 H 0.92856 0.7036 0.25824 0.0
C1054 C 0.97806 0.75786 0.26387 0.0
C1055 C 0.94211 0.73388 0.27671 0.0
C1056 C 0.92156 0.72934 0.29177 0.0
C1057 C 0.97876 0.7423 0.24711 0.0
C1058 C 0.96039 0.72277 0.24486 0.0
C1059 C 0.94272 0.71848 0.25995 0.0
C1060 C 0.9578 0.70742 0.22665 0.0
C1061 C -0.00085 0.74699 0.23201 0.0
C1062 C 0.95325 0.7194 0.20858 0.0
C1063 C 0.94605 0.70502 0.19222 0.0
C1064 C 0.94278 0.6785 0.19378 0.0
C1065 C 0.94874 0.66641 0.21154 0.0
C1066 C 0.95626 0.68071 0.22777 0.0
H1067 H 0.0163 0.75583 0.23866 0.0
H1068 H 0.00491 0.72901 0.22462 0.0
H1069 H 0.99171 0.76039 0.22081 0.0
H1070 H 0.95369 0.74 0.20738 0.0
H1071 H 0.94126 0.71488 0.17879 0.0
H1072 H 0.40489 0.02624 0.17002 0.0
H1073 H 0.44631 0.00667 0.17589 0.0
H1074 H 0.48207 0.08067 0.17364 0.0
H1075 H 0.44021 0.10061 0.16785 0.0
H1076 H 0.50331 0.04356 0.14813 0.0
H1077 H 0.49522 0.00509 0.22289 0.0
H1078 H 0.46703 -0.00145 0.20895 0.0
H1079 H 0.4756 0.03113 0.21414 0.0
C1080 C 0.42148 0.03844 0.17108 0.0
C1081 C 0.41939 0.06491 0.16843 0.0
C1082 C 0.44511 0.02726 0.17464 0.0
C1083 C 0.46717 0.04229 0.17555 0.0
C1084 C 0.46517 0.06884 0.17326 0.0
H1085 H 0.59104 0.92939 0.18353 0.0
H1086 H 0.57277 0.97199 0.18955 0.0
C1087 C 0.44133 0.08014 0.16994 0.0
C1088 C 0.4922 0.02937 0.17643 0.0
H1089 H 0.52093 0.9798 0.20001 0.0
C1090 C 0.50778 0.03025 0.15978 0.0
C1091 C 0.49831 0.01238 0.19177 0.0
C1092 C 0.48327 0.01193 0.21054 0.0
C1093 C 0.52737 0.01236 0.15707 0.0
C1094 C 0.53118 0.99315 0.17129 0.0
C1095 C 0.51773 0.99432 0.18898 0.0
C1096 C 0.54471 0.9692 0.16649 0.0
C1097 C 0.54261 0.01301 0.1384 0.0
C1098 C 0.53485 0.95363 0.15165 0.0
C1099 C 0.5449 0.9294 0.14841 0.0
C1100 C 0.56508 0.92024 0.15991 0.0
C1101 C 0.57552 0.93608 0.17442 0.0
C1102 C 0.56518 0.96035 0.17784 0.0
H1103 H 0.54419 0.03281 0.13272 0.0
H1104 H 0.56206 0.00509 0.14059 0.0
H1105 H 0.53277 0.0014 0.12715 0.0
H1106 H 0.51866 0.95985 0.14304 0.0
H1107 H 0.5365 0.91764 0.1371 0.0
H1108 H 0.5794 0.52892 0.67136 0.0
H1109 H 0.5375 0.51004 0.6759 0.0
H1110 H 0.50316 0.58492 0.67568 0.0
H1111 H 0.54553 0.60418 0.67104 0.0
H1112 H 0.49744 0.51858 0.70502 0.0
H1113 H 0.47043 0.54498 0.62876 0.0
H1114 H 0.50327 0.54597 0.63654 0.0
H1115 H 0.48106 0.56925 0.64551 0.0
C1116 C 0.56302 0.54146 0.6725 0.0
C1117 C 0.56566 0.56799 0.67063 0.0
C1118 C 0.5391 0.53065 0.67523 0.0
C1119 C 0.51728 0.54609 0.67602 0.0
C1120 C 0.51983 0.57272 0.67501 0.0
H1121 H 0.39088 0.43414 0.67804 0.0
H1122 H 0.40875 0.47661 0.68498 0.0
C1123 C 0.54397 0.58365 0.67241 0.0
C1124 C 0.49216 0.5334 0.67599 0.0
H1125 H 0.44898 0.51065 0.64314 0.0
C1126 C 0.48609 0.51748 0.6918 0.0
C1127 C 0.47751 0.53212 0.65868 0.0
C1128 C 0.48325 0.5489 0.64132 0.0
C1129 C 0.46751 0.4984 0.69 0.0
C1130 C 0.45477 0.4954 0.67197 0.0
C1131 C 0.45888 0.51309 0.65692 0.0
C1132 C 0.44218 0.47109 0.66696 0.0
C1133 C 0.46353 0.47991 0.70662 0.0
C1134 C 0.45492 0.45428 0.65434 0.0
C1135 C 0.44494 0.43024 0.65045 0.0
C1136 C 0.42192 0.42252 0.65904 0.0
C1137 C 0.40871 0.43962 0.67127 0.0
C1138 C 0.41885 0.4638 0.67526 0.0
H1139 H 0.47521 0.48479 0.71963 0.0
H1140 H 0.44315 0.47988 0.71094 0.0
H1141 H 0.46855 0.46028 0.70183 0.0
H1142 H 0.47301 0.45956 0.64787 0.0
H1143 H 0.45549 0.41756 0.6409 0.0
H1144 H 0.07591 0.46373 0.16551 0.0
H1145 H 0.03384 0.48133 0.17213 0.0
H1146 H 0.00194 0.40553 0.17267 0.0
H1147 H 0.04454 0.38754 0.16616 0.0
H1148 H 0.97716 0.44144 0.14718 0.0
H1149 H 0.9881 0.48119 0.2213 0.0
H1150 H 0.01535 0.48833 0.20645 0.0
H1151 H 0.00797 0.45559 0.21213 0.0
C1152 C 0.06005 0.45072 0.16728 0.0
C1153 C 0.06343 0.42429 0.16527 0.0
C1154 C 0.03606 0.4608 0.17126 0.0
C1155 C 0.01491 0.44469 0.17325 0.0
C1156 C 0.01815 0.4182 0.17147 0.0
H1157 H 0.89298 0.55772 0.18491 0.0
H1158 H 0.91005 0.51455 0.19047 0.0
C1159 C 0.0424 0.408 0.16772 0.0
C1160 C 0.98938 0.45641 0.17496 0.0
H1161 H 0.96084 0.50572 0.19893 0.0
C1162 C 0.97297 0.45483 0.15884 0.0
C1163 C 0.9836 0.47342 0.19036 0.0
C1164 C -0.00042 0.47453 0.20864 0.0
C1165 C 0.95287 0.47226 0.15655 0.0
C1166 C 0.94949 0.49175 0.17061 0.0
C1167 C 0.96371 0.49104 0.18796 0.0
C1168 C 0.93585 0.51567 0.16582 0.0
C1169 C 0.93667 0.47088 0.1384 0.0
C1170 C 0.94473 0.53048 0.15016 0.0
C1171 C 0.93535 0.55503 0.14715 0.0
C1172 C 0.91688 0.5653 0.15972 0.0
C1173 C 0.9072 0.55018 0.17498 0.0
C1174 C 0.91684 0.52556 0.17813 0.0
H1175 H 0.93451 0.4508 0.13346 0.0
H1176 H 0.91747 0.47924 0.14087 0.0
H1177 H 0.94614 0.48161 0.12646 0.0
H1178 H 0.95988 0.52353 0.1408 0.0
H1179 H 0.94312 0.56623 0.13525 0.0
H1180 H 0.95233 0.88431 0.6671 0.0
H1181 H 0.99452 0.90316 0.67307 0.0
H1182 H 0.95922 0.97673 0.68182 0.0
H1183 H 0.9175 0.95819 0.67597 0.0
H1184 H 0.0144 0.94011 0.64949 0.0
H1185 H 0.01225 0.97673 0.72473 0.0
H1186 H 0.99093 0.95191 0.71644 0.0
H1187 H 0.98309 0.9851 0.71269 0.0
C1188 C 0.95364 0.90436 0.6708 0.0
C1189 C 0.93173 0.91986 0.67097 0.0
C1190 C 0.97768 0.91506 0.67423 0.0
C1191 C 0.97997 0.94125 0.67825 0.0
C1192 C 0.95791 0.95637 0.67929 0.0
H1193 H 0.04173 0.0659 0.63597 0.0
H1194 H 0.02683 0.02295 0.64297 0.0
C1195 C 0.93406 0.9458 0.67571 0.0
C1196 C 0.00508 0.95407 0.67827 0.0
H1197 H 0.03445 0.00414 0.70056 0.0
C1198 C 0.01944 0.95345 0.66097 0.0
C1199 C 0.01215 0.97103 0.69338 0.0
C1200 C -0.0011 0.97099 0.71293 0.0
C1201 C 0.03835 0.97172 0.65739 0.0
C1202 C 0.04262 0.99113 0.67133 0.0
C1203 C 0.03078 0.98956 0.68967 0.0
C1204 C 0.05455 0.01561 0.66575 0.0
C1205 C 0.0522 0.97125 0.63809 0.0
C1206 C 0.07498 0.0259 0.67637 0.0
C1207 C 0.08359 0.05066 0.67236 0.0
C1208 C 0.07147 0.06552 0.65797 0.0
C1209 C 0.05141 0.05492 0.64715 0.0
C1210 C 0.04305 0.03024 0.651 0.0
H1211 H 0.0545 0.95136 0.63273 0.0
H1212 H 0.04084 0.98186 0.62706 0.0
H1213 H 0.07128 0.98026 0.63923 0.0
H1214 H 0.08382 0.01503 0.68801 0.0
H1215 H 0.09904 0.05847 0.68096 0.0
H1216 H 0.57861 0.55866 0.39367 0.0
H1217 H 0.55874 0.51671 0.39053 0.0
H1218 H 0.55298 0.5277 0.32812 0.0
H1219 H 0.57472 0.56879 0.33123 0.0
H1220 H 0.51292 0.51401 0.38099 0.0
H1221 H 0.564 0.45313 0.32824 0.0
H1222 H 0.57847 0.48114 0.33883 0.0
H1223 H 0.55826 0.48383 0.3176 0.0
C1224 C 0.57396 0.55154 0.37924 0.0
C1225 C 0.57802 0.5667 0.36268 0.0
C1226 C 0.56263 0.52763 0.37742 0.0
C1227 C 0.55434 0.51888 0.35908 0.0
C1228 C 0.55977 0.53354 0.34237 0.0
H1229 H 0.41014 0.45708 0.33932 0.0
H1230 H 0.45094 0.47934 0.33885 0.0
C1231 C 0.57195 0.55715 0.34414 0.0
C1232 C 0.53588 0.49748 0.35803 0.0
H1233 H 0.51796 0.44561 0.33103 0.0
C1234 C 0.51452 0.49872 0.37038 0.0
C1235 C 0.53776 0.47735 0.34427 0.0
C1236 C 0.56104 0.47365 0.33167 0.0
C1237 C 0.49451 0.48135 0.36869 0.0
C1238 C 0.49537 0.4627 0.35382 0.0
C1239 C 0.51723 0.46033 0.34216 0.0
C1240 C 0.47265 0.44713 0.3496 0.0
C1241 C 0.47213 0.48368 0.38248 0.0
C1242 C 0.47176 0.42122 0.35473 0.0
C1243 C 0.4484 0.40829 0.35475 0.0
C1244 C 0.42586 0.42138 0.3499 0.0
C1245 C 0.42724 0.4467 0.34335 0.0
C1246 C 0.45049 0.45939 0.34301 0.0
H1247 H 0.47742 0.49391 0.3961 0.0
H1248 H 0.45669 0.49468 0.37523 0.0
H1249 H 0.46452 0.46461 0.38643 0.0
H1250 H 0.48873 0.41152 0.35987 0.0
H1251 H 0.44773 0.38874 0.35987 0.0
H1252 H 0.02302 0.40764 0.85095 0.0
H1253 H 0.00546 0.44996 0.84507 0.0
H1254 H 0.08125 0.4817 0.84431 0.0
H1255 H 0.09917 0.43891 0.85016 0.0
H1256 H 0.04709 0.50619 0.87018 0.0
H1257 H 0.00377 0.49705 0.79717 0.0
H1258 H -0.00362 0.46978 0.81195 0.0
H1259 H 0.02906 0.47624 0.80555 0.0
C1260 C 0.03603 0.42352 0.84925 0.0
C1261 C 0.06244 0.42004 0.85106 0.0
C1262 C 0.02597 0.44767 0.84568 0.0
C1263 C 0.04209 0.46886 0.84388 0.0
C1264 C 0.06856 0.46548 0.84538 0.0
H1265 H 0.93202 0.59412 0.8355 0.0
H1266 H 0.97415 0.57538 0.82884 0.0
C1267 C 0.07872 0.44111 0.84874 0.0
C1268 C 0.0305 0.49454 0.84279 0.0
H1269 H 0.98083 0.52453 0.82039 0.0
C1270 C 0.03323 0.51078 0.85894 0.0
C1271 C 0.01288 0.50086 0.82794 0.0
C1272 C 0.01057 0.48516 0.80957 0.0
C1273 C 0.01647 0.53132 0.86182 0.0
C1274 C -0.00355 0.53534 0.84832 0.0
C1275 C -0.0041 0.52117 0.83094 0.0
C1276 C 0.97333 0.54992 0.85373 0.0
C1277 C 0.01924 0.54741 0.87995 0.0
C1278 C 0.95904 0.54182 0.8699 0.0
C1279 C 0.93507 0.55219 0.87357 0.0
C1280 C 0.92486 0.57088 0.86113 0.0
C1281 C 0.93952 0.57977 0.84535 0.0
C1282 C 0.96355 0.56916 0.84155 0.0
H1283 H 0.03958 0.54899 0.88428 0.0
H1284 H 0.01131 0.56688 0.87777 0.0
H1285 H 0.00888 0.53817 0.89218 0.0
H1286 H 0.96587 0.52651 0.87917 0.0
H1287 H 0.92422 0.54499 0.88586 0.0
H1288 H 0.88663 0.93704 0.34754 0.0
H1289 H 0.90028 0.98071 0.33941 0.0
H1290 H 0.97886 0.95663 0.34237 0.0
H1291 H 0.96552 0.91349 0.35057 0.0
H1292 H 0.93192 0.01076 0.36414 0.0
H1293 H 0.9763 -0.00098 0.29171 0.0
H1294 H 0.95265 0.97711 0.30108 0.0
H1295 H 0.9857 0.97362 0.30775 0.0
C1296 C 0.90678 0.9411 0.34616 0.0
C1297 C 0.92505 0.92198 0.34975 0.0
C1298 C 0.91451 0.96595 0.34148 0.0
C1299 C 0.94054 0.97171 0.3399 0.0
C1300 C 0.95866 0.95243 0.34303 0.0
H1301 H 0.05265 0.05229 0.37854 0.0
H1302 H 0.0113 0.03329 0.37199 0.0
C1303 C 0.95102 0.92784 0.34793 0.0
C1304 C 0.94957 -0.00181 0.33737 0.0
H1305 H -0.00276 0.02965 0.3138 0.0
C1306 C 0.94546 0.01545 0.35272 0.0
C1307 C 0.96673 0.00462 0.32224 0.0
C1308 C 0.97038 0.98768 0.30465 0.0
C1309 C 0.96078 0.03718 0.35474 0.0
C1310 C 0.9807 0.04138 0.34121 0.0
C1311 C 0.98225 0.02618 0.32438 0.0
C1312 C 0.00333 0.05659 0.34657 0.0
C1313 C 0.957 0.05422 0.37225 0.0
C1314 C 0.01267 0.07603 0.3344 0.0
C1315 C 0.03648 0.08708 0.33821 0.0
C1316 C 0.05138 0.07826 0.3539 0.0
C1317 C 0.0416 0.05937 0.36631 0.0
C1318 C 0.01781 0.04871 0.36271 0.0
H1319 H 0.93657 0.05495 0.37652 0.0
H1320 H 0.96785 0.04635 0.38481 0.0
H1321 H 0.9638 0.07391 0.36933 0.0
H1322 H 0.00194 0.08205 0.32169 0.0
H1323 H 0.04373 0.10157 0.3284 0.0
H1324 H 0.54841 0.88717 0.85276 0.0
H1325 H 0.50596 0.90551 0.84643 0.0
H1326 H 0.53936 0.9805 0.84255 0.0
H1327 H 0.58134 0.96252 0.84899 0.0
H1328 H 0.48372 0.94294 0.87123 0.0
H1329 H 0.49016 0.97894 0.79569 0.0
H1330 H 0.51045 0.95365 0.80483 0.0
H1331 H 0.51839 0.98659 0.80924 0.0
C1332 C 0.54663 0.9075 0.8502 0.0
C1333 C 0.56806 0.92349 0.85144 0.0
C1334 C 0.52247 0.91789 0.84655 0.0
C1335 C 0.51964 0.94427 0.84366 0.0
C1336 C 0.5412 0.96002 0.84427 0.0
H1337 H 0.45167 0.06889 0.88026 0.0
H1338 H 0.46923 0.02655 0.87442 0.0
C1339 C 0.56515 0.94976 0.84816 0.0
C1340 C 0.49423 0.95639 0.84259 0.0
H1341 H 0.46455 0.00486 0.81837 0.0
C1342 C 0.47889 0.95578 0.85936 0.0
C1343 C 0.48764 0.97276 0.82697 0.0
C1344 C 0.50242 0.97282 0.80808 0.0
C1345 C 0.45915 0.97355 0.86193 0.0
C1346 C 0.45497 0.9923 0.84744 0.0
C1347 C 0.46806 0.99068 0.82962 0.0
C1348 C 0.44178 0.01647 0.85212 0.0
C1349 C 0.44432 0.97344 0.8808 0.0
C1350 C 0.42063 0.02493 0.84135 0.0
C1351 C 0.41041 0.04927 0.84475 0.0
C1352 C 0.42168 0.06554 0.85861 0.0
C1353 C 0.44264 0.0568 0.86946 0.0
C1354 C 0.45254 0.03251 0.86627 0.0
H1355 H 0.4431 0.95385 0.88695 0.0
H1356 H 0.45424 0.98561 0.89166 0.0
H1357 H 0.42474 0.98106 0.87867 0.0
H1358 H 0.41235 0.01291 0.83017 0.0
H1359 H 0.39428 0.05564 0.83616 0.0
loop_
_geom_bond_atom_site_label_1
_geom_bond_atom_site_label_2
_geom_bond_distance
_geom_bond_site_symmetry_2
_ccdc_geom_bond_type
In0 O1 2.294 . S
In0 O2 2.326 . S
In0 O6 2.266 . S
In0 O7 2.326 . S
In0 O8 2.266 . S
In0 O9 2.326 . S
In0 O11 2.294 . S
In0 O12 2.326 . S
O1 In0 2.294 . S
O1 C10 1.240 . S
O2 In0 2.326 . S
O2 C10 1.252 . S
C3 O6 1.252 . S
C3 O7 1.260 . S
C4 O11 1.240 . S
C4 O12 1.252 . S
C5 O8 1.252 . S
C5 O9 1.260 . S
O6 In0 2.266 . S
O6 C3 1.252 . S
O7 In0 2.326 . S
O7 C3 1.260 . S
O8 In0 2.266 . S
O8 C5 1.252 . S
O9 In0 2.326 . S
O9 C5 1.260 . S
C10 O1 1.240 . S
C10 O2 1.252 . S
O11 In0 2.294 . S
O11 C4 1.240 . S
O12 In0 2.326 . S
O12 C4 1.252 . S
In13 O14 2.294 . S
In13 O15 2.326 . S
In13 O19 2.266 . S
In13 O20 2.326 . S
In13 O21 2.266 . S
In13 O22 2.326 . S
In13 O24 2.294 . S
In13 O25 2.326 . S
O14 In13 2.294 . S
O14 C23 1.240 . S
O15 In13 2.326 . S
O15 C23 1.252 . S
C16 O19 1.252 . S
C16 O20 1.260 . S
C17 O24 1.240 . S
C17 O25 1.252 . S
C18 O21 1.252 . S
C18 O22 1.260 . S
O19 In13 2.266 . S
O19 C16 1.252 . S
O20 In13 2.326 . S
O20 C16 1.260 . S
O21 In13 2.266 . S
O21 C18 1.252 . S
O22 In13 2.326 . S
O22 C18 1.260 . S
C23 O14 1.240 . S
C23 O15 1.252 . S
O24 In13 2.294 . S
O24 C17 1.240 . S
O25 In13 2.326 . S
O25 C17 1.252 . S
In26 O27 2.294 . S
In26 O28 2.326 . S
In26 O32 2.266 . S
In26 O33 2.326 . S
In26 O34 2.266 . S
In26 O35 2.326 . S
In26 O37 2.294 . S
In26 O38 2.326 . S
O27 In26 2.294 . S
O27 C36 1.240 . S
O28 In26 2.326 . S
O28 C36 1.252 . S
C29 O32 1.252 . S
C29 O33 1.260 . S
C30 O37 1.240 . S
C30 O38 1.252 . S
C31 O34 1.252 . S
C31 O35 1.260 . S
O32 In26 2.266 . S
O32 C29 1.252 . S
O33 In26 2.326 . S
O33 C29 1.260 . S
O34 In26 2.266 . S
O34 C31 1.252 . S
O35 In26 2.326 . S
O35 C31 1.260 . S
C36 O27 1.240 . S
C36 O28 1.252 . S
O37 In26 2.294 . S
O37 C30 1.240 . S
O38 In26 2.326 . S
O38 C30 1.252 . S
In39 O40 2.294 . S
In39 O41 2.326 . S
In39 O45 2.266 . S
In39 O46 2.326 . S
In39 O47 2.266 . S
In39 O48 2.326 . S
In39 O50 2.294 . S
In39 O51 2.326 . S
O40 In39 2.294 . S
O40 C49 1.240 . S
O41 In39 2.326 . S
O41 C49 1.252 . S
C42 O45 1.252 . S
C42 O46 1.260 . S
C43 O50 1.240 . S
C43 O51 1.252 . S
C44 O47 1.252 . S
C44 O48 1.260 . S
O45 In39 2.266 . S
O45 C42 1.252 . S
O46 In39 2.326 . S
O46 C42 1.260 . S
O47 In39 2.266 . S
O47 C44 1.252 . S
O48 In39 2.326 . S
O48 C44 1.260 . S
C49 O40 1.240 . S
C49 O41 1.252 . S
O50 In39 2.294 . S
O50 C43 1.240 . S
O51 In39 2.326 . S
O51 C43 1.252 . S
In52 O53 2.294 . S
In52 O54 2.326 . S
In52 O58 2.266 . S
In52 O59 2.326 . S
In52 O60 2.266 . S
In52 O61 2.326 . S
In52 O63 2.294 . S
In52 O64 2.326 . S
O53 In52 2.294 . S
O53 C62 1.240 . S
O54 In52 2.326 . S
O54 C62 1.252 . S
C55 O58 1.252 . S
C55 O59 1.260 . S
C56 O63 1.240 . S
C56 O64 1.252 . S
C57 O60 1.252 . S
C57 O61 1.260 . S
O58 In52 2.266 . S
O58 C55 1.252 . S
O59 In52 2.326 . S
O59 C55 1.260 . S
O60 In52 2.266 . S
O60 C57 1.252 . S
O61 In52 2.326 . S
O61 C57 1.260 . S
C62 O53 1.240 . S
C62 O54 1.252 . S
O63 In52 2.294 . S
O63 C56 1.240 . S
O64 In52 2.326 . S
O64 C56 1.252 . S
In65 O66 2.294 . S
In65 O67 2.326 . S
In65 O71 2.266 . S
In65 O72 2.326 . S
In65 O73 2.266 . S
In65 O74 2.326 . S
In65 O76 2.294 . S
In65 O77 2.326 . S
O66 In65 2.294 . S
O66 C75 1.240 . S
O67 In65 2.326 . S
O67 C75 1.252 . S
C68 O71 1.252 . S
C68 O72 1.260 . S
C69 O76 1.240 . S
C69 O77 1.252 . S
C70 O73 1.252 . S
C70 O74 1.260 . S
O71 In65 2.266 . S
O71 C68 1.252 . S
O72 In65 2.326 . S
O72 C68 1.260 . S
O73 In65 2.266 . S
O73 C70 1.252 . S
O74 In65 2.326 . S
O74 C70 1.260 . S
C75 O66 1.240 . S
C75 O67 1.252 . S
O76 In65 2.294 . S
O76 C69 1.240 . S
O77 In65 2.326 . S
O77 C69 1.252 . S
In78 O79 2.294 . S
In78 O80 2.326 . S
In78 O84 2.266 . S
In78 O85 2.326 . S
In78 O86 2.266 . S
In78 O87 2.326 . S
In78 O89 2.294 . S
In78 O90 2.326 . S
O79 In78 2.294 . S
O79 C88 1.240 . S
O80 In78 2.326 . S
O80 C88 1.252 . S
C81 O84 1.252 . S
C81 O85 1.260 . S
C82 O89 1.240 . S
C82 O90 1.252 . S
C83 O86 1.252 . S
C83 O87 1.260 . S
O84 In78 2.266 . S
O84 C81 1.252 . S
O85 In78 2.326 . S
O85 C81 1.260 . S
O86 In78 2.266 . S
O86 C83 1.252 . S
O87 In78 2.326 . S
O87 C83 1.260 . S
C88 O79 1.240 . S
C88 O80 1.252 . S
O89 In78 2.294 . S
O89 C82 1.240 . S
O90 In78 2.326 . S
O90 C82 1.252 . S
In91 O92 2.294 . S
In91 O93 2.326 . S
In91 O97 2.266 . S
In91 O98 2.326 . S
In91 O99 2.266 . S
In91 O100 2.326 . S
In91 O102 2.294 . S
In91 O103 2.326 . S
O92 In91 2.294 . S
O92 C101 1.240 . S
O93 In91 2.326 . S
O93 C101 1.252 . S
C94 O97 1.252 . S
C94 O98 1.260 . S
C95 O102 1.240 . S
C95 O103 1.252 . S
C96 O99 1.252 . S
C96 O100 1.260 . S
O97 In91 2.266 . S
O97 C94 1.252 . S
O98 In91 2.326 . S
O98 C94 1.260 . S
O99 In91 2.266 . S
O99 C96 1.252 . S
O100 In91 2.326 . S
O100 C96 1.260 . S
C101 O92 1.240 . S
C101 O93 1.252 . S
O102 In91 2.294 . S
O102 C95 1.240 . S
O103 In91 2.326 . S
O103 C95 1.252 . S
In104 O105 2.294 . S
In104 O106 2.326 . S
In104 O110 2.266 . S
In104 O111 2.326 . S
In104 O112 2.266 . S
In104 O113 2.326 . S
In104 O115 2.294 . S
In104 O116 2.326 . S
O105 In104 2.294 . S
O105 C114 1.240 . S
O106 In104 2.326 . S
O106 C114 1.252 . S
C107 O110 1.252 . S
C107 O111 1.260 . S
C108 O115 1.240 . S
C108 O116 1.252 . S
C109 O112 1.252 . S
C109 O113 1.260 . S
O110 In104 2.266 . S
O110 C107 1.252 . S
O111 In104 2.326 . S
O111 C107 1.260 . S
O112 In104 2.266 . S
O112 C109 1.252 . S
O113 In104 2.326 . S
O113 C109 1.260 . S
C114 O105 1.240 . S
C114 O106 1.252 . S
O115 In104 2.294 . S
O115 C108 1.240 . S
O116 In104 2.326 . S
O116 C108 1.252 . S
In117 O118 2.294 . S
In117 O119 2.326 . S
In117 O123 2.266 . S
In117 O124 2.326 . S
In117 O125 2.266 . S
In117 O126 2.326 . S
In117 O128 2.294 . S
In117 O129 2.326 . S
O118 In117 2.294 . S
O118 C127 1.240 . S
O119 In117 2.326 . S
O119 C127 1.252 . S
C120 O123 1.252 . S
C120 O124 1.260 . S
C121 O128 1.240 . S
C121 O129 1.252 . S
C122 O125 1.252 . S
C122 O126 1.260 . S
O123 In117 2.266 . S
O123 C120 1.252 . S
O124 In117 2.326 . S
O124 C120 1.260 . S
O125 In117 2.266 . S
O125 C122 1.252 . S
O126 In117 2.326 . S
O126 C122 1.260 . S
C127 O118 1.240 . S
C127 O119 1.252 . S
O128 In117 2.294 . S
O128 C121 1.240 . S
O129 In117 2.326 . S
O129 C121 1.252 . S
In130 O131 2.294 . S
In130 O132 2.326 . S
In130 O136 2.266 . S
In130 O137 2.326 . S
In130 O138 2.266 . S
In130 O139 2.326 . S
In130 O141 2.294 . S
In130 O142 2.326 . S
O131 In130 2.294 . S
O131 C140 1.240 . S
O132 In130 2.326 . S
O132 C140 1.252 . S
C133 O136 1.252 . S
C133 O137 1.260 . S
C134 O141 1.240 . S
C134 O142 1.252 . S
C135 O138 1.252 . S
C135 O139 1.260 . S
O136 In130 2.266 . S
O136 C133 1.252 . S
O137 In130 2.326 . S
O137 C133 1.260 . S
O138 In130 2.266 . S
O138 C135 1.252 . S
O139 In130 2.326 . S
O139 C135 1.260 . S
C140 O131 1.240 . S
C140 O132 1.252 . S
O141 In130 2.294 . S
O141 C134 1.240 . S
O142 In130 2.326 . S
O142 C134 1.252 . S
In143 O144 2.294 . S
In143 O145 2.326 . S
In143 O149 2.266 . S
In143 O150 2.326 . S
In143 O151 2.266 . S
In143 O152 2.326 . S
In143 O154 2.294 . S
In143 O155 2.326 . S
O144 In143 2.294 . S
O144 C153 1.240 . S
O145 In143 2.326 . S
O145 C153 1.252 . S
C146 O149 1.252 . S
C146 O150 1.260 . S
C147 O154 1.240 . S
C147 O155 1.252 . S
C148 O151 1.252 . S
C148 O152 1.260 . S
O149 In143 2.266 . S
O149 C146 1.252 . S
O150 In143 2.326 . S
O150 C146 1.260 . S
O151 In143 2.266 . S
O151 C148 1.252 . S
O152 In143 2.326 . S
O152 C148 1.260 . S
C153 O144 1.240 . S
C153 O145 1.252 . S
O154 In143 2.294 . S
O154 C147 1.240 . S
O155 In143 2.326 . S
O155 C147 1.252 . S
In156 O157 2.294 . S
In156 O158 2.326 . S
In156 O162 2.266 . S
In156 O163 2.326 . S
In156 O164 2.266 . S
In156 O165 2.326 . S
In156 O167 2.294 . S
In156 O168 2.326 . S
O157 In156 2.294 . S
O157 C166 1.240 . S
O158 In156 2.326 . S
O158 C166 1.252 . S
C159 O162 1.252 . S
C159 O163 1.260 . S
C160 O167 1.240 . S
C160 O168 1.252 . S
C161 O164 1.252 . S
C161 O165 1.260 . S
O162 In156 2.266 . S
O162 C159 1.252 . S
O163 In156 2.326 . S
O163 C159 1.260 . S
O164 In156 2.266 . S
O164 C161 1.252 . S
O165 In156 2.326 . S
O165 C161 1.260 . S
C166 O157 1.240 . S
C166 O158 1.252 . S
O167 In156 2.294 . S
O167 C160 1.240 . S
O168 In156 2.326 . S
O168 C160 1.252 . S
In169 O170 2.294 . S
In169 O171 2.326 . S
In169 O175 2.266 . S
In169 O176 2.326 . S
In169 O177 2.266 . S
In169 O178 2.326 . S
In169 O180 2.294 . S
In169 O181 2.326 . S
O170 In169 2.294 . S
O170 C179 1.240 . S
O171 In169 2.326 . S
O171 C179 1.252 . S
C172 O175 1.252 . S
C172 O176 1.260 . S
C173 O180 1.240 . S
C173 O181 1.252 . S
C174 O177 1.252 . S
C174 O178 1.260 . S
O175 In169 2.266 . S
O175 C172 1.252 . S
O176 In169 2.326 . S
O176 C172 1.260 . S
O177 In169 2.266 . S
O177 C174 1.252 . S
O178 In169 2.326 . S
O178 C174 1.260 . S
C179 O170 1.240 . S
C179 O171 1.252 . S
O180 In169 2.294 . S
O180 C173 1.240 . S
O181 In169 2.326 . S
O181 C173 1.252 . S
In182 O183 2.294 . S
In182 O184 2.326 . S
In182 O188 2.266 . S
In182 O189 2.326 . S
In182 O190 2.266 . S
In182 O191 2.326 . S
In182 O193 2.294 . S
In182 O194 2.326 . S
O183 In182 2.294 . S
O183 C192 1.240 . S
O184 In182 2.326 . S
O184 C192 1.252 . S
C185 O188 1.252 . S
C185 O189 1.260 . S
C186 O193 1.240 . S
C186 O194 1.252 . S
C187 O190 1.252 . S
C187 O191 1.260 . S
O188 In182 2.266 . S
O188 C185 1.252 . S
O189 In182 2.326 . S
O189 C185 1.260 . S
O190 In182 2.266 . S
O190 C187 1.252 . S
O191 In182 2.326 . S
O191 C187 1.260 . S
C192 O183 1.240 . S
C192 O184 1.252 . S
O193 In182 2.294 . S
O193 C186 1.240 . S
O194 In182 2.326 . S
O194 C186 1.252 . S
In195 O196 2.294 . S
In195 O197 2.326 . S
In195 O201 2.266 . S
In195 O202 2.326 . S
In195 O203 2.266 . S
In195 O204 2.326 . S
In195 O206 2.294 . S
In195 O207 2.326 . S
O196 In195 2.294 . S
O196 C205 1.240 . S
O197 In195 2.326 . S
O197 C205 1.252 . S
C198 O201 1.252 . S
C198 O202 1.260 . S
C199 O206 1.240 . S
C199 O207 1.252 . S
C200 O203 1.252 . S
C200 O204 1.260 . S
O201 In195 2.266 . S
O201 C198 1.252 . S
O202 In195 2.326 . S
O202 C198 1.260 . S
O203 In195 2.266 . S
O203 C200 1.252 . S
O204 In195 2.326 . S
O204 C200 1.260 . S
C205 O196 1.240 . S
C205 O197 1.252 . S
O206 In195 2.294 . S
O206 C199 1.240 . S
O207 In195 2.326 . S
O207 C199 1.252 . S
H208 C216 0.929 . S
H209 C218 0.930 . S
H210 C220 0.930 . S
H211 C223 0.929 . S
H212 C226 0.930 . S
H213 C228 0.930 1_554 S
H214 C228 0.960 . S
H215 C228 0.960 . S
C216 H208 0.929 . S
C216 C217 1.377 . S
C216 C218 1.384 . S
C217 C216 1.377 . S
C217 C223 1.390 . S
C218 H209 0.930 . S
C218 C216 1.384 . S
C218 C219 1.372 . S
C219 C218 1.372 . S
C219 C220 1.400 . S
C219 C224 1.490 . S
C220 H210 0.930 . S
C220 C219 1.400 . S
C220 C223 1.386 . S
H221 C237 0.930 . S
H222 C238 0.931 . S
C223 H211 0.929 . S
C223 C217 1.390 . S
C223 C220 1.386 . S
C224 C219 1.490 . S
C224 C226 1.395 . S
C224 C227 1.403 . S
H225 C231 0.930 . S
C226 H212 0.930 . S
C226 C224 1.395 . S
C226 C229 1.403 1_556 S
C227 C224 1.403 . S
C227 C228 1.524 . S
C227 C231 1.400 1_556 S
C228 H213 0.930 1_556 S
C228 H214 0.960 . S
C228 H215 0.960 . S
C228 C227 1.524 . S
C229 C226 1.403 1_554 S
C229 C230 1.392 . S
C229 C233 1.495 . S
C230 C229 1.392 . S
C230 C231 1.385 . S
C230 C232 1.478 . S
C231 H225 0.930 . S
C231 C227 1.400 1_554 S
C231 C230 1.385 . S
C232 C230 1.478 . S
C232 C234 1.381 . S
C232 C238 1.383 . S
C233 C229 1.495 . S
C233 H239 0.959 1_554 S
C233 H240 0.961 . S
C233 H241 0.960 . S
C234 C232 1.381 . S
C234 C235 1.394 . S
C234 H242 0.930 . S
C235 C234 1.394 . S
C235 C236 1.383 . S
C235 H243 0.929 . S
C236 C235 1.383 . S
C236 C237 1.377 . S
C237 H221 0.930 . S
C237 C236 1.377 . S
C237 C238 1.379 . S
C238 H222 0.931 . S
C238 C232 1.383 . S
C238 C237 1.379 . S
H239 C233 0.959 1_556 S
H240 C233 0.961 . S
H241 C233 0.960 . S
H242 C234 0.930 . S
H243 C235 0.929 . S
H244 C252 0.929 . S
H245 C254 0.930 . S
H246 C256 0.930 . S
H247 C259 0.929 . S
H248 C262 0.930 . S
H249 C264 0.960 . S
H250 C264 0.960 . S
H251 C264 0.960 . S
C252 H244 0.929 . S
C252 C253 1.377 . S
C252 C254 1.384 . S
C253 C252 1.377 . S
C253 C259 1.390 . S
C254 H245 0.930 . S
C254 C252 1.384 . S
C254 C255 1.372 . S
C255 C254 1.372 . S
C255 C256 1.400 . S
C255 C260 1.490 . S
C256 H246 0.930 . S
C256 C255 1.400 . S
C256 C259 1.386 . S
H257 C273 0.930 . S
H258 C274 0.931 . S
C259 H247 0.929 . S
C259 C253 1.390 . S
C259 C256 1.386 . S
C260 C255 1.490 . S
C260 C262 1.395 . S
C260 C263 1.403 . S
H261 C267 0.930 . S
C262 H248 0.930 . S
C262 C260 1.395 . S
C262 C265 1.403 . S
C263 C260 1.403 . S
C263 C264 1.524 . S
C263 C267 1.400 . S
C264 H249 0.960 . S
C264 H250 0.960 . S
C264 H251 0.960 . S
C264 C263 1.524 . S
C265 C262 1.403 . S
C265 C266 1.392 . S
C265 C269 1.495 . S
C266 C265 1.392 . S
C266 C267 1.385 . S
C266 C268 1.478 . S
C267 H261 0.930 . S
C267 C263 1.400 . S
C267 C266 1.385 . S
C268 C266 1.478 . S
C268 C270 1.381 . S
C268 C274 1.383 . S
C269 C265 1.495 . S
C269 H275 0.959 . S
C269 H276 0.961 . S
C269 H277 0.960 . S
C270 C268 1.381 . S
C270 C271 1.394 . S
C270 H278 0.930 . S
C271 C270 1.394 . S
C271 C272 1.383 . S
C271 H279 0.929 . S
C272 C271 1.383 . S
C272 C273 1.377 . S
C273 H257 0.930 . S
C273 C272 1.377 . S
C273 C274 1.379 . S
C274 H258 0.931 . S
C274 C268 1.383 . S
C274 C273 1.379 . S
H275 C269 0.959 . S
H276 C269 0.961 . S
H277 C269 0.960 . S
H278 C270 0.930 . S
H279 C271 0.929 . S
H280 C288 0.929 . S
H281 C290 0.930 . S
H282 C292 0.930 . S
H283 C295 0.929 . S
H284 C298 0.930 . S
H285 C300 0.960 . S
H286 C300 0.960 . S
H287 C300 0.960 . S
C288 H280 0.929 . S
C288 C289 1.377 . S
C288 C290 1.384 . S
C289 C288 1.377 . S
C289 C295 1.390 . S
C290 H281 0.930 . S
C290 C288 1.384 . S
C290 C291 1.372 . S
C291 C290 1.372 . S
C291 C292 1.400 . S
C291 C296 1.490 . S
C292 H282 0.930 . S
C292 C291 1.400 . S
C292 C295 1.386 . S
H293 C309 0.930 . S
H294 C310 0.931 . S
C295 H283 0.929 . S
C295 C289 1.390 . S
C295 C292 1.386 . S
C296 C291 1.490 . S
C296 C298 1.395 . S
C296 C299 1.403 . S
H297 C303 0.930 . S
C298 H284 0.930 . S
C298 C296 1.395 . S
C298 C301 1.403 1_556 S
C299 C296 1.403 . S
C299 C300 1.524 . S
C299 C303 1.400 1_556 S
C300 H285 0.960 . S
C300 H286 0.960 . S
C300 H287 0.960 . S
C300 C299 1.524 . S
C301 C298 1.403 1_554 S
C301 C302 1.392 . S
C301 C305 1.495 . S
C302 C301 1.392 . S
C302 C303 1.385 . S
C302 C304 1.478 . S
C303 H297 0.930 . S
C303 C299 1.400 1_554 S
C303 C302 1.385 . S
C304 C302 1.478 . S
C304 C306 1.381 . S
C304 C310 1.383 . S
C305 C301 1.495 . S
C305 H311 0.959 . S
C305 H312 0.961 . S
C305 H313 0.960 . S
C306 C304 1.381 . S
C306 C307 1.394 . S
C306 H314 0.930 . S
C307 C306 1.394 . S
C307 C308 1.383 . S
C307 H315 0.929 . S
C308 C307 1.383 . S
C308 C309 1.377 . S
C309 H293 0.930 . S
C309 C308 1.377 . S
C309 C310 1.379 . S
C310 H294 0.931 . S
C310 C304 1.383 . S
C310 C309 1.379 . S
H311 C305 0.959 . S
H312 C305 0.961 . S
H313 C305 0.960 . S
H314 C306 0.930 . S
H315 C307 0.929 . S
H316 C324 0.929 . S
H317 C326 0.930 . S
H318 C328 0.930 . S
H319 C331 0.929 . S
H320 C334 0.930 . S
H321 C336 0.960 . S
H322 C336 0.960 . S
H323 C336 0.960 . S
C324 H316 0.929 . S
C324 C325 1.377 . S
C324 C326 1.384 . S
C325 C324 1.377 . S
C325 C331 1.390 . S
C326 H317 0.930 . S
C326 C324 1.384 . S
C326 C327 1.372 . S
C327 C326 1.372 . S
C327 C328 1.400 . S
C327 C332 1.490 . S
C328 H318 0.930 . S
C328 C327 1.400 . S
C328 C331 1.386 . S
H329 C345 0.930 . S
H330 C346 0.931 . S
C331 H319 0.929 . S
C331 C325 1.390 . S
C331 C328 1.386 . S
C332 C327 1.490 . S
C332 C334 1.395 . S
C332 C335 1.403 . S
H333 C339 0.930 . S
C334 H320 0.930 . S
C334 C332 1.395 . S
C334 C337 1.403 . S
C335 C332 1.403 . S
C335 C336 1.524 . S
C335 C339 1.400 . S
C336 H321 0.960 . S
C336 H322 0.960 . S
C336 H323 0.960 . S
C336 C335 1.524 . S
C337 C334 1.403 . S
C337 C338 1.392 . S
C337 C341 1.495 . S
C338 C337 1.392 . S
C338 C339 1.385 . S
C338 C340 1.478 . S
C339 H333 0.930 . S
C339 C335 1.400 . S
C339 C338 1.385 . S
C340 C338 1.478 . S
C340 C342 1.381 . S
C340 C346 1.383 . S
C341 C337 1.495 . S
C341 H347 0.959 . S
C341 H348 0.961 . S
C341 H349 0.960 . S
C342 C340 1.381 . S
C342 C343 1.394 . S
C342 H350 0.930 . S
C343 C342 1.394 . S
C343 C344 1.383 . S
C343 H351 0.929 . S
C344 C343 1.383 . S
C344 C345 1.377 . S
C345 H329 0.930 . S
C345 C344 1.377 . S
C345 C346 1.379 . S
C346 H330 0.931 . S
C346 C340 1.383 . S
C346 C345 1.379 . S
H347 C341 0.959 . S
H348 C341 0.961 . S
H349 C341 0.960 . S
H350 C342 0.930 . S
H351 C343 0.929 . S
H352 C360 0.929 . S
H353 C362 0.930 . S
H354 C364 0.930 . S
H355 C367 0.929 . S
H356 C370 0.930 . S
H357 C372 0.960 1_556 S
H358 C372 0.960 . S
H359 C372 0.960 . S
C360 H352 0.929 . S
C360 C361 1.377 . S
C360 C362 1.384 . S
C361 C360 1.377 . S
C361 C367 1.390 . S
C362 H353 0.930 . S
C362 C360 1.384 . S
C362 C363 1.372 . S
C363 C362 1.372 . S
C363 C364 1.400 . S
C363 C368 1.490 . S
C364 H354 0.930 . S
C364 C363 1.400 . S
C364 C367 1.386 . S
H365 C381 0.930 . S
H366 C382 0.931 . S
C367 H355 0.929 . S
C367 C361 1.390 . S
C367 C364 1.386 . S
C368 C363 1.490 . S
C368 C370 1.395 . S
C368 C371 1.403 . S
H369 C375 0.930 . S
C370 H356 0.930 . S
C370 C368 1.395 . S
C370 C373 1.403 1_554 S
C371 C368 1.403 . S
C371 C372 1.524 . S
C371 C375 1.400 1_554 S
C372 H357 0.960 1_554 S
C372 H358 0.960 . S
C372 H359 0.960 . S
C372 C371 1.524 . S
C373 C370 1.403 1_556 S
C373 C374 1.392 . S
C373 C377 1.495 . S
C374 C373 1.392 . S
C374 C375 1.385 . S
C374 C376 1.478 . S
C375 H369 0.930 . S
C375 C371 1.400 1_556 S
C375 C374 1.385 . S
C376 C374 1.478 . S
C376 C378 1.381 . S
C376 C382 1.383 . S
C377 C373 1.495 . S
C377 H383 0.959 1_556 S
C377 H384 0.961 . S
C377 H385 0.960 . S
C378 C376 1.381 . S
C378 C379 1.394 . S
C378 H386 0.930 . S
C379 C378 1.394 . S
C379 C380 1.383 . S
C379 H387 0.929 . S
C380 C379 1.383 . S
C380 C381 1.377 . S
C381 H365 0.930 . S
C381 C380 1.377 . S
C381 C382 1.379 . S
C382 H366 0.931 . S
C382 C376 1.383 . S
C382 C381 1.379 . S
H383 C377 0.959 1_554 S
H384 C377 0.961 . S
H385 C377 0.960 . S
H386 C378 0.930 . S
H387 C379 0.929 . S
H388 C396 0.929 . S
H389 C398 0.930 . S
H390 C400 0.930 . S
H391 C403 0.929 . S
H392 C406 0.930 . S
H393 C408 0.960 . S
H394 C408 0.960 . S
H395 C408 0.960 . S
C396 H388 0.929 . S
C396 C397 1.377 . S
C396 C398 1.384 . S
C397 C396 1.377 . S
C397 C403 1.390 . S
C398 H389 0.930 . S
C398 C396 1.384 . S
C398 C399 1.372 . S
C399 C398 1.372 . S
C399 C400 1.400 . S
C399 C404 1.490 . S
C400 H390 0.930 . S
C400 C399 1.400 . S
C400 C403 1.386 . S
H401 C417 0.930 . S
H402 C418 0.931 . S
C403 H391 0.929 . S
C403 C397 1.390 . S
C403 C400 1.386 . S
C404 C399 1.490 . S
C404 C406 1.395 . S
C404 C407 1.403 . S
H405 C411 0.930 . S
C406 H392 0.930 . S
C406 C404 1.395 . S
C406 C409 1.403 . S
C407 C404 1.403 . S
C407 C408 1.524 . S
C407 C411 1.400 . S
C408 H393 0.960 . S
C408 H394 0.960 . S
C408 H395 0.960 . S
C408 C407 1.524 . S
C409 C406 1.403 . S
C409 C410 1.392 . S
C409 C413 1.495 . S
C410 C409 1.392 . S
C410 C411 1.385 . S
C410 C412 1.478 . S
C411 H405 0.930 . S
C411 C407 1.400 . S
C411 C410 1.385 . S
C412 C410 1.478 . S
C412 C414 1.381 . S
C412 C418 1.383 . S
C413 C409 1.495 . S
C413 H419 0.959 . S
C413 H420 0.961 . S
C413 H421 0.960 . S
C414 C412 1.381 . S
C414 C415 1.394 . S
C414 H422 0.930 . S
C415 C414 1.394 . S
C415 C416 1.383 . S
C415 H423 0.929 . S
C416 C415 1.383 . S
C416 C417 1.377 . S
C417 H401 0.930 . S
C417 C416 1.377 . S
C417 C418 1.379 . S
C418 H402 0.931 . S
C418 C412 1.383 . S
C418 C417 1.379 . S
H419 C413 0.959 . S
H420 C413 0.961 . S
H421 C413 0.960 . S
H422 C414 0.930 . S
H423 C415 0.929 . S
H424 C432 0.929 . S
H425 C434 0.930 . S
H426 C436 0.930 . S
H427 C439 0.929 . S
H428 C442 0.930 . S
H429 C444 0.960 . S
H430 C444 0.960 . S
H431 C444 0.960 . S
C432 H424 0.929 . S
C432 C433 1.377 . S
C432 C434 1.384 . S
C433 C432 1.377 . S
C433 C439 1.390 . S
C434 H425 0.930 . S
C434 C432 1.384 . S
C434 C435 1.372 . S
C435 C434 1.372 . S
C435 C436 1.400 . S
C435 C440 1.490 . S
C436 H426 0.930 . S
C436 C435 1.400 . S
C436 C439 1.386 . S
H437 C453 0.930 . S
H438 C454 0.931 . S
C439 H427 0.929 . S
C439 C433 1.390 . S
C439 C436 1.386 . S
C440 C435 1.490 . S
C440 C442 1.395 . S
C440 C443 1.403 . S
H441 C447 0.930 . S
C442 H428 0.930 . S
C442 C440 1.395 . S
C442 C445 1.403 1_556 S
C443 C440 1.403 . S
C443 C444 1.524 . S
C443 C447 1.400 1_556 S
C444 H429 0.960 . S
C444 H430 0.960 . S
C444 H431 0.960 . S
C444 C443 1.524 . S
C445 C442 1.403 1_554 S
C445 C446 1.392 . S
C445 C449 1.495 . S
C446 C445 1.392 . S
C446 C447 1.385 . S
C446 C448 1.478 . S
C447 H441 0.930 . S
C447 C443 1.400 1_554 S
C447 C446 1.385 . S
C448 C446 1.478 . S
C448 C450 1.381 . S
C448 C454 1.383 . S
C449 C445 1.495 . S
C449 H455 0.959 . S
C449 H456 0.961 . S
C449 H457 0.960 . S
C450 C448 1.381 . S
C450 C451 1.394 . S
C450 H458 0.930 . S
C451 C450 1.394 . S
C451 C452 1.383 . S
C451 H459 0.929 . S
C452 C451 1.383 . S
C452 C453 1.377 . S
C453 H437 0.930 . S
C453 C452 1.377 . S
C453 C454 1.379 . S
C454 H438 0.931 . S
C454 C448 1.383 . S
C454 C453 1.379 . S
H455 C449 0.959 . S
H456 C449 0.961 . S
H457 C449 0.960 . S
H458 C450 0.930 . S
H459 C451 0.929 . S
H460 C468 0.929 . S
H461 C470 0.930 . S
H462 C472 0.930 . S
H463 C475 0.929 . S
H464 C478 0.930 . S
H465 C480 0.960 . S
H466 C480 0.960 . S
H467 C480 0.960 . S
C468 H460 0.929 . S
C468 C469 1.377 . S
C468 C470 1.384 . S
C469 C468 1.377 . S
C469 C475 1.390 . S
C470 H461 0.930 . S
C470 C468 1.384 . S
C470 C471 1.372 . S
C471 C470 1.372 . S
C471 C472 1.400 . S
C471 C476 1.490 . S
C472 H462 0.930 . S
C472 C471 1.400 . S
C472 C475 1.386 . S
H473 C489 0.930 . S
H474 C490 0.931 . S
C475 H463 0.929 . S
C475 C469 1.390 . S
C475 C472 1.386 . S
C476 C471 1.490 . S
C476 C478 1.395 . S
C476 C479 1.403 . S
H477 C483 0.930 . S
C478 H464 0.930 . S
C478 C476 1.395 . S
C478 C481 1.403 . S
C479 C476 1.403 . S
C479 C480 1.524 . S
C479 C483 1.400 . S
C480 H465 0.960 . S
C480 H466 0.960 . S
C480 H467 0.960 . S
C480 C479 1.524 . S
C481 C478 1.403 . S
C481 C482 1.392 . S
C481 C485 1.495 . S
C482 C481 1.392 . S
C482 C483 1.385 . S
C482 C484 1.478 . S
C483 H477 0.930 . S
C483 C479 1.400 . S
C483 C482 1.385 . S
C484 C482 1.478 . S
C484 C486 1.381 . S
C484 C490 1.383 . S
C485 C481 1.495 . S
C485 H491 0.959 . S
C485 H492 0.961 . S
C485 H493 0.960 . S
C486 C484 1.381 . S
C486 C487 1.394 . S
C486 H494 0.930 . S
C487 C486 1.394 . S
C487 C488 1.383 . S
C487 H495 0.929 . S
C488 C487 1.383 . S
C488 C489 1.377 . S
C489 H473 0.930 . S
C489 C488 1.377 . S
C489 C490 1.379 . S
C490 H474 0.931 . S
C490 C484 1.383 . S
C490 C489 1.379 . S
H491 C485 0.959 . S
H492 C485 0.961 . S
H493 C485 0.960 . S
H494 C486 0.930 . S
H495 C487 0.929 . S
H496 C504 0.929 . S
H497 C506 0.930 . S
H498 C508 0.930 . S
H499 C511 0.929 . S
H500 C514 0.930 . S
H501 C516 0.960 . S
H502 C516 0.960 . S
H503 C516 0.960 . S
C504 H496 0.929 . S
C504 C505 1.377 . S
C504 C506 1.384 . S
C505 C504 1.377 . S
C505 C511 1.390 . S
C506 H497 0.930 . S
C506 C504 1.384 . S
C506 C507 1.372 . S
C507 C506 1.372 . S
C507 C508 1.400 . S
C507 C512 1.490 . S
C508 H498 0.930 . S
C508 C507 1.400 . S
C508 C511 1.386 . S
H509 C525 0.930 . S
H510 C526 0.931 . S
C511 H499 0.929 . S
C511 C505 1.390 . S
C511 C508 1.386 . S
C512 C507 1.490 . S
C512 C514 1.395 . S
C512 C515 1.403 . S
H513 C519 0.930 . S
C514 H500 0.930 . S
C514 C512 1.395 . S
C514 C517 1.403 . S
C515 C512 1.403 . S
C515 C516 1.524 . S
C515 C519 1.400 . S
C516 H501 0.960 . S
C516 H502 0.960 . S
C516 H503 0.960 . S
C516 C515 1.524 . S
C517 C514 1.403 . S
C517 C518 1.392 . S
C517 C521 1.495 . S
C518 C517 1.392 . S
C518 C519 1.385 . S
C518 C520 1.478 . S
C519 H513 0.930 . S
C519 C515 1.400 . S
C519 C518 1.385 . S
C520 C518 1.478 . S
C520 C522 1.381 . S
C520 C526 1.383 . S
C521 C517 1.495 . S
C521 H527 0.959 . S
C521 H528 0.961 . S
C521 H529 0.960 . S
C522 C520 1.381 . S
C522 C523 1.394 . S
C522 H530 0.930 . S
C523 C522 1.394 . S
C523 C524 1.383 . S
C523 H531 0.929 . S
C524 C523 1.383 . S
C524 C525 1.377 . S
C525 H509 0.930 . S
C525 C524 1.377 . S
C525 C526 1.379 . S
C526 H510 0.931 . S
C526 C520 1.383 . S
C526 C525 1.379 . S
H527 C521 0.959 . S
H528 C521 0.961 . S
H529 C521 0.960 . S
H530 C522 0.930 . S
H531 C523 0.929 . S
H532 C540 0.929 . S
H533 C542 0.930 . S
H534 C544 0.930 . S
H535 C547 0.929 . S
H536 C550 0.930 . S
H537 C552 0.960 . S
H538 C552 0.960 . S
H539 C552 0.960 . S
C540 H532 0.929 . S
C540 C541 1.377 . S
C540 C542 1.384 . S
C541 C540 1.377 . S
C541 C547 1.390 . S
C542 H533 0.930 . S
C542 C540 1.384 . S
C542 C543 1.372 . S
C543 C542 1.372 . S
C543 C544 1.400 . S
C543 C548 1.490 . S
C544 H534 0.930 . S
C544 C543 1.400 . S
C544 C547 1.386 . S
H545 C561 0.930 . S
H546 C562 0.931 . S
C547 H535 0.929 . S
C547 C541 1.390 . S
C547 C544 1.386 . S
C548 C543 1.490 . S
C548 C550 1.395 . S
C548 C551 1.403 . S
H549 C555 0.930 . S
C550 H536 0.930 . S
C550 C548 1.395 . S
C550 C553 1.403 . S
C551 C548 1.403 . S
C551 C552 1.524 . S
C551 C555 1.400 . S
C552 H537 0.960 . S
C552 H538 0.960 . S
C552 H539 0.960 . S
C552 C551 1.524 . S
C553 C550 1.403 . S
C553 C554 1.392 . S
C553 C557 1.495 . S
C554 C553 1.392 . S
C554 C555 1.385 . S
C554 C556 1.478 . S
C555 H549 0.930 . S
C555 C551 1.400 . S
C555 C554 1.385 . S
C556 C554 1.478 . S
C556 C558 1.381 . S
C556 C562 1.383 . S
C557 C553 1.495 . S
C557 H563 0.959 . S
C557 H564 0.961 . S
C557 H565 0.960 . S
C558 C556 1.381 . S
C558 C559 1.394 . S
C558 H566 0.930 . S
C559 C558 1.394 . S
C559 C560 1.383 . S
C559 H567 0.929 . S
C560 C559 1.383 . S
C560 C561 1.377 . S
C561 H545 0.930 . S
C561 C560 1.377 . S
C561 C562 1.379 . S
C562 H546 0.931 . S
C562 C556 1.383 . S
C562 C561 1.379 . S
H563 C557 0.959 . S
H564 C557 0.961 . S
H565 C557 0.960 . S
H566 C558 0.930 . S
H567 C559 0.929 . S
H568 C576 0.929 . S
H569 C578 0.930 . S
H570 C580 0.930 . S
H571 C583 0.929 . S
H572 C586 0.930 . S
H573 C588 0.960 . S
H574 C588 0.960 . S
H575 C588 0.960 . S
C576 H568 0.929 . S
C576 C577 1.377 . S
C576 C578 1.384 . S
C577 C576 1.377 . S
C577 C583 1.390 . S
C578 H569 0.930 . S
C578 C576 1.384 . S
C578 C579 1.372 . S
C579 C578 1.372 . S
C579 C580 1.400 . S
C579 C584 1.490 . S
C580 H570 0.930 . S
C580 C579 1.400 . S
C580 C583 1.386 . S
H581 C597 0.930 . S
H582 C598 0.931 . S
C583 H571 0.929 . S
C583 C577 1.390 . S
C583 C580 1.386 . S
C584 C579 1.490 . S
C584 C586 1.395 . S
C584 C587 1.403 . S
H585 C591 0.930 . S
C586 H572 0.930 . S
C586 C584 1.395 . S
C586 C589 1.403 . S
C587 C584 1.403 . S
C587 C588 1.524 . S
C587 C591 1.400 . S
C588 H573 0.960 . S
C588 H574 0.960 . S
C588 H575 0.960 . S
C588 C587 1.524 . S
C589 C586 1.403 . S
C589 C590 1.392 . S
C589 C593 1.495 . S
C590 C589 1.392 . S
C590 C591 1.385 . S
C590 C592 1.478 . S
C591 H585 0.930 . S
C591 C587 1.400 . S
C591 C590 1.385 . S
C592 C590 1.478 . S
C592 C594 1.381 . S
C592 C598 1.383 . S
C593 C589 1.495 . S
C593 H599 0.959 . S
C593 H600 0.961 . S
C593 H601 0.960 . S
C594 C592 1.381 . S
C594 C595 1.394 . S
C594 H602 0.930 . S
C595 C594 1.394 . S
C595 C596 1.383 . S
C595 H603 0.929 . S
C596 C595 1.383 . S
C596 C597 1.377 . S
C597 H581 0.930 . S
C597 C596 1.377 . S
C597 C598 1.379 . S
C598 H582 0.931 . S
C598 C592 1.383 . S
C598 C597 1.379 . S
H599 C593 0.959 . S
H600 C593 0.961 . S
H601 C593 0.960 . S
H602 C594 0.930 . S
H603 C595 0.929 . S
H604 C612 0.929 . S
H605 C614 0.930 . S
H606 C616 0.930 . S
H607 C619 0.929 . S
H608 C622 0.930 . S
H609 C624 0.960 . S
H610 C624 0.960 . S
H611 C624 0.960 . S
C612 H604 0.929 . S
C612 C613 1.377 . S
C612 C614 1.384 . S
C613 C612 1.377 . S
C613 C619 1.390 . S
C614 H605 0.930 . S
C614 C612 1.384 . S
C614 C615 1.372 . S
C615 C614 1.372 . S
C615 C616 1.400 . S
C615 C620 1.490 . S
C616 H606 0.930 . S
C616 C615 1.400 . S
C616 C619 1.386 . S
H617 C633 0.930 . S
H618 C634 0.931 . S
C619 H607 0.929 . S
C619 C613 1.390 . S
C619 C616 1.386 . S
C620 C615 1.490 . S
C620 C622 1.395 . S
C620 C623 1.403 . S
H621 C627 0.930 . S
C622 H608 0.930 . S
C622 C620 1.395 . S
C622 C625 1.403 . S
C623 C620 1.403 . S
C623 C624 1.524 . S
C623 C627 1.400 . S
C624 H609 0.960 . S
C624 H610 0.960 . S
C624 H611 0.960 . S
C624 C623 1.524 . S
C625 C622 1.403 . S
C625 C626 1.392 . S
C625 C629 1.495 . S
C626 C625 1.392 . S
C626 C627 1.385 . S
C626 C628 1.478 . S
C627 H621 0.930 . S
C627 C623 1.400 . S
C627 C626 1.385 . S
C628 C626 1.478 . S
C628 C630 1.381 . S
C628 C634 1.383 . S
C629 C625 1.495 . S
C629 H635 0.959 . S
C629 H636 0.961 . S
C629 H637 0.960 . S
C630 C628 1.381 . S
C630 C631 1.394 . S
C630 H638 0.930 . S
C631 C630 1.394 . S
C631 C632 1.383 . S
C631 H639 0.929 . S
C632 C631 1.383 . S
C632 C633 1.377 . S
C633 H617 0.930 . S
C633 C632 1.377 . S
C633 C634 1.379 . S
C634 H618 0.931 . S
C634 C628 1.383 . S
C634 C633 1.379 . S
H635 C629 0.959 . S
H636 C629 0.961 . S
H637 C629 0.960 . S
H638 C630 0.930 . S
H639 C631 0.929 . S
H640 C648 0.929 . S
H641 C650 0.930 . S
H642 C652 0.930 . S
H643 C655 0.929 . S
H644 C658 0.930 . S
H645 C660 0.960 . S
H646 C660 0.960 . S
H647 C660 0.960 . S
C648 H640 0.929 . S
C648 C649 1.377 . S
C648 C650 1.384 . S
C649 C648 1.377 . S
C649 C655 1.390 . S
C650 H641 0.930 . S
C650 C648 1.384 . S
C650 C651 1.372 . S
C651 C650 1.372 . S
C651 C652 1.400 . S
C651 C656 1.490 . S
C652 H642 0.930 . S
C652 C651 1.400 . S
C652 C655 1.386 . S
H653 C669 0.930 . S
H654 C670 0.931 . S
C655 H643 0.929 . S
C655 C649 1.390 . S
C655 C652 1.386 . S
C656 C651 1.490 . S
C656 C658 1.395 . S
C656 C659 1.403 . S
H657 C663 0.930 . S
C658 H644 0.930 . S
C658 C656 1.395 . S
C658 C661 1.403 . S
C659 C656 1.403 . S
C659 C660 1.524 . S
C659 C663 1.400 . S
C660 H645 0.960 . S
C660 H646 0.960 . S
C660 H647 0.960 . S
C660 C659 1.524 . S
C661 C658 1.403 . S
C661 C662 1.392 . S
C661 C665 1.495 . S
C662 C661 1.392 . S
C662 C663 1.385 . S
C662 C664 1.478 . S
C663 H657 0.930 . S
C663 C659 1.400 . S
C663 C662 1.385 . S
C664 C662 1.478 . S
C664 C666 1.381 . S
C664 C670 1.383 . S
C665 C661 1.495 . S
C665 H671 0.959 . S
C665 H672 0.961 . S
C665 H673 0.960 . S
C666 C664 1.381 . S
C666 C667 1.394 . S
C666 H674 0.930 . S
C667 C666 1.394 . S
C667 C668 1.383 . S
C667 H675 0.929 . S
C668 C667 1.383 . S
C668 C669 1.377 . S
C669 H653 0.930 . S
C669 C668 1.377 . S
C669 C670 1.379 . S
C670 H654 0.931 . S
C670 C664 1.383 . S
C670 C669 1.379 . S
H671 C665 0.959 . S
H672 C665 0.961 . S
H673 C665 0.960 . S
H674 C666 0.930 . S
H675 C667 0.929 . S
H676 C684 0.929 . S
H677 C686 0.930 . S
H678 C688 0.930 . S
H679 C691 0.929 . S
H680 C694 0.930 . S
H681 C696 0.960 . S
H682 C696 0.960 . S
H683 C696 0.960 . S
C684 H676 0.929 . S
C684 C685 1.377 . S
C684 C686 1.384 . S
C685 C684 1.377 . S
C685 C691 1.390 . S
C686 H677 0.930 . S
C686 C684 1.384 . S
C686 C687 1.372 . S
C687 C686 1.372 . S
C687 C688 1.400 . S
C687 C692 1.490 . S
C688 H678 0.930 . S
C688 C687 1.400 . S
C688 C691 1.386 . S
H689 C705 0.930 . S
H690 C706 0.931 . S
C691 H679 0.929 . S
C691 C685 1.390 . S
C691 C688 1.386 . S
C692 C687 1.490 . S
C692 C694 1.395 . S
C692 C695 1.403 . S
H693 C699 0.930 . S
C694 H680 0.930 . S
C694 C692 1.395 . S
C694 C697 1.403 . S
C695 C692 1.403 . S
C695 C696 1.524 . S
C695 C699 1.400 . S
C696 H681 0.960 . S
C696 H682 0.960 . S
C696 H683 0.960 . S
C696 C695 1.524 . S
C697 C694 1.403 . S
C697 C698 1.392 . S
C697 C701 1.495 . S
C698 C697 1.392 . S
C698 C699 1.385 . S
C698 C700 1.478 . S
C699 H693 0.930 . S
C699 C695 1.400 . S
C699 C698 1.385 . S
C700 C698 1.478 . S
C700 C702 1.381 . S
C700 C706 1.383 . S
C701 C697 1.495 . S
C701 H707 0.959 . S
C701 H708 0.961 . S
C701 H709 0.960 . S
C702 C700 1.381 . S
C702 C703 1.394 . S
C702 H710 0.930 . S
C703 C702 1.394 . S
C703 C704 1.383 . S
C703 H711 0.929 . S
C704 C703 1.383 . S
C704 C705 1.377 . S
C705 H689 0.930 . S
C705 C704 1.377 . S
C705 C706 1.379 . S
C706 H690 0.931 . S
C706 C700 1.383 . S
C706 C705 1.379 . S
H707 C701 0.959 . S
H708 C701 0.961 . S
H709 C701 0.960 . S
H710 C702 0.930 . S
H711 C703 0.929 . S
H712 C720 0.929 . S
H713 C722 0.930 . S
H714 C724 0.930 . S
H715 C727 0.929 . S
H716 C730 0.930 . S
H717 C732 0.960 . S
H718 C732 0.960 . S
H719 C732 0.960 . S
C720 H712 0.929 . S
C720 C721 1.377 . S
C720 C722 1.384 . S
C721 C720 1.377 . S
C721 C727 1.390 . S
C722 H713 0.930 . S
C722 C720 1.384 . S
C722 C723 1.372 . S
C723 C722 1.372 . S
C723 C724 1.400 . S
C723 C728 1.490 . S
C724 H714 0.930 . S
C724 C723 1.400 . S
C724 C727 1.386 . S
H725 C741 0.930 . S
H726 C742 0.931 . S
C727 H715 0.929 . S
C727 C721 1.390 . S
C727 C724 1.386 . S
C728 C723 1.490 . S
C728 C730 1.395 . S
C728 C731 1.403 . S
H729 C735 0.930 . S
C730 H716 0.930 . S
C730 C728 1.395 . S
C730 C733 1.403 . S
C731 C728 1.403 . S
C731 C732 1.524 . S
C731 C735 1.400 . S
C732 H717 0.960 . S
C732 H718 0.960 . S
C732 H719 0.960 . S
C732 C731 1.524 . S
C733 C730 1.403 . S
C733 C734 1.392 . S
C733 C737 1.495 . S
C734 C733 1.392 . S
C734 C735 1.385 . S
C734 C736 1.478 . S
C735 H729 0.930 . S
C735 C731 1.400 . S
C735 C734 1.385 . S
C736 C734 1.478 . S
C736 C738 1.381 . S
C736 C742 1.383 . S
C737 C733 1.495 . S
C737 H743 0.959 . S
C737 H744 0.961 . S
C737 H745 0.960 . S
C738 C736 1.381 . S
C738 C739 1.394 . S
C738 H746 0.930 . S
C739 C738 1.394 . S
C739 C740 1.383 . S
C739 H747 0.929 . S
C740 C739 1.383 . S
C740 C741 1.377 . S
C741 H725 0.930 . S
C741 C740 1.377 . S
C741 C742 1.379 . S
C742 H726 0.931 . S
C742 C736 1.383 . S
C742 C741 1.379 . S
H743 C737 0.959 . S
H744 C737 0.961 . S
H745 C737 0.960 . S
H746 C738 0.930 . S
H747 C739 0.929 . S
H748 C756 0.929 . S
H749 C758 0.930 . S
H750 C760 0.930 . S
H751 C763 0.929 . S
H752 C766 0.930 . S
H753 C768 0.960 . S
H754 C768 0.960 . S
H755 C768 0.960 . S
C756 H748 0.929 . S
C756 C757 1.377 . S
C756 C758 1.384 . S
C757 C756 1.377 . S
C757 C763 1.390 . S
C758 H749 0.930 . S
C758 C756 1.384 . S
C758 C759 1.372 . S
C759 C758 1.372 . S
C759 C760 1.400 . S
C759 C764 1.490 . S
C760 H750 0.930 . S
C760 C759 1.400 . S
C760 C763 1.386 . S
H761 C777 0.930 . S
H762 C778 0.931 . S
C763 H751 0.929 . S
C763 C757 1.390 . S
C763 C760 1.386 . S
C764 C759 1.490 . S
C764 C766 1.395 . S
C764 C767 1.403 . S
H765 C771 0.930 . S
C766 H752 0.930 . S
C766 C764 1.395 . S
C766 C769 1.403 . S
C767 C764 1.403 . S
C767 C768 1.524 . S
C767 C771 1.400 . S
C768 H753 0.960 . S
C768 H754 0.960 . S
C768 H755 0.960 . S
C768 C767 1.524 . S
C769 C766 1.403 . S
C769 C770 1.392 . S
C769 C773 1.495 . S
C770 C769 1.392 . S
C770 C771 1.385 . S
C770 C772 1.478 . S
C771 H765 0.930 . S
C771 C767 1.400 . S
C771 C770 1.385 . S
C772 C770 1.478 . S
C772 C774 1.381 . S
C772 C778 1.383 . S
C773 C769 1.495 . S
C773 H779 0.959 . S
C773 H780 0.961 . S
C773 H781 0.960 . S
C774 C772 1.381 . S
C774 C775 1.394 . S
C774 H782 0.930 . S
C775 C774 1.394 . S
C775 C776 1.383 . S
C775 H783 0.929 . S
C776 C775 1.383 . S
C776 C777 1.377 . S
C777 H761 0.930 . S
C777 C776 1.377 . S
C777 C778 1.379 . S
C778 H762 0.931 . S
C778 C772 1.383 . S
C778 C777 1.379 . S
H779 C773 0.959 . S
H780 C773 0.961 . S
H781 C773 0.960 . S
H782 C774 0.930 . S
H783 C775 0.929 . S
H784 C792 0.929 . S
H785 C794 0.930 . S
H786 C796 0.930 . S
H787 C799 0.929 . S
H788 C802 0.930 . S
H789 C804 0.960 . S
H790 C804 0.960 . S
H791 C804 0.960 . S
C792 H784 0.929 . S
C792 C793 1.377 . S
C792 C794 1.384 . S
C793 C792 1.377 . S
C793 C799 1.390 . S
C794 H785 0.930 . S
C794 C792 1.384 . S
C794 C795 1.372 . S
C795 C794 1.372 . S
C795 C796 1.400 . S
C795 C800 1.490 . S
C796 H786 0.930 . S
C796 C795 1.400 . S
C796 C799 1.386 . S
H797 C813 0.930 . S
H798 C814 0.931 . S
C799 H787 0.929 . S
C799 C793 1.390 . S
C799 C796 1.386 . S
C800 C795 1.490 . S
C800 C802 1.395 . S
C800 C803 1.403 . S
H801 C807 0.930 . S
C802 H788 0.930 . S
C802 C800 1.395 . S
C802 C805 1.403 . S
C803 C800 1.403 . S
C803 C804 1.524 . S
C803 C807 1.400 . S
C804 H789 0.960 . S
C804 H790 0.960 . S
C804 H791 0.960 . S
C804 C803 1.524 . S
C805 C802 1.403 . S
C805 C806 1.392 . S
C805 C809 1.495 . S
C806 C805 1.392 . S
C806 C807 1.385 . S
C806 C808 1.478 . S
C807 H801 0.930 . S
C807 C803 1.400 . S
C807 C806 1.385 . S
C808 C806 1.478 . S
C808 C810 1.381 . S
C808 C814 1.383 . S
C809 C805 1.495 . S
C809 H815 0.959 . S
C809 H816 0.961 . S
C809 H817 0.960 . S
C810 C808 1.381 . S
C810 C811 1.394 . S
C810 H818 0.930 . S
C811 C810 1.394 . S
C811 C812 1.383 . S
C811 H819 0.929 . S
C812 C811 1.383 . S
C812 C813 1.377 . S
C813 H797 0.930 . S
C813 C812 1.377 . S
C813 C814 1.379 . S
C814 H798 0.931 . S
C814 C808 1.383 . S
C814 C813 1.379 . S
H815 C809 0.959 . S
H816 C809 0.961 . S
H817 C809 0.960 . S
H818 C810 0.930 . S
H819 C811 0.929 . S
H820 C828 0.929 . S
H821 C830 0.930 . S
H822 C832 0.930 . S
H823 C835 0.929 . S
H824 C838 0.930 . S
H825 C840 0.960 . S
H826 C840 0.960 . S
H827 C840 0.960 . S
C828 H820 0.929 . S
C828 C829 1.377 . S
C828 C830 1.384 . S
C829 C828 1.377 . S
C829 C835 1.390 . S
C830 H821 0.930 . S
C830 C828 1.384 . S
C830 C831 1.372 . S
C831 C830 1.372 . S
C831 C832 1.400 . S
C831 C836 1.490 . S
C832 H822 0.930 . S
C832 C831 1.400 . S
C832 C835 1.386 . S
H833 C849 0.930 . S
H834 C850 0.931 . S
C835 H823 0.929 . S
C835 C829 1.390 . S
C835 C832 1.386 . S
C836 C831 1.490 . S
C836 C838 1.395 . S
C836 C839 1.403 . S
H837 C843 0.930 . S
C838 H824 0.930 . S
C838 C836 1.395 . S
C838 C841 1.403 . S
C839 C836 1.403 . S
C839 C840 1.524 . S
C839 C843 1.400 . S
C840 H825 0.960 . S
C840 H826 0.960 . S
C840 H827 0.960 . S
C840 C839 1.524 . S
C841 C838 1.403 . S
C841 C842 1.392 . S
C841 C845 1.495 . S
C842 C841 1.392 . S
C842 C843 1.385 . S
C842 C844 1.478 . S
C843 H837 0.930 . S
C843 C839 1.400 . S
C843 C842 1.385 . S
C844 C842 1.478 . S
C844 C846 1.381 . S
C844 C850 1.383 . S
C845 C841 1.495 . S
C845 H851 0.959 . S
C845 H852 0.961 . S
C845 H853 0.960 . S
C846 C844 1.381 . S
C846 C847 1.394 . S
C846 H854 0.930 . S
C847 C846 1.394 . S
C847 C848 1.383 . S
C847 H855 0.929 . S
C848 C847 1.383 . S
C848 C849 1.377 . S
C849 H833 0.930 . S
C849 C848 1.377 . S
C849 C850 1.379 . S
C850 H834 0.931 . S
C850 C844 1.383 . S
C850 C849 1.379 . S
H851 C845 0.959 . S
H852 C845 0.961 . S
H853 C845 0.960 . S
H854 C846 0.930 . S
H855 C847 0.929 . S
H856 C864 0.929 . S
H857 C866 0.930 . S
H858 C868 0.930 . S
H859 C871 0.929 . S
H860 C874 0.930 . S
H861 C876 0.960 . S
H862 C876 0.960 . S
H863 C876 0.960 . S
C864 H856 0.929 . S
C864 C865 1.377 . S
C864 C866 1.384 . S
C865 C864 1.377 . S
C865 C871 1.390 . S
C866 H857 0.930 . S
C866 C864 1.384 . S
C866 C867 1.372 . S
C867 C866 1.372 . S
C867 C868 1.400 . S
C867 C872 1.490 . S
C868 H858 0.930 . S
C868 C867 1.400 . S
C868 C871 1.386 . S
H869 C885 0.930 . S
H870 C886 0.931 . S
C871 H859 0.929 . S
C871 C865 1.390 . S
C871 C868 1.386 . S
C872 C867 1.490 . S
C872 C874 1.395 . S
C872 C875 1.403 . S
H873 C879 0.930 . S
C874 H860 0.930 . S
C874 C872 1.395 . S
C874 C877 1.403 . S
C875 C872 1.403 . S
C875 C876 1.524 . S
C875 C879 1.400 . S
C876 H861 0.960 . S
C876 H862 0.960 . S
C876 H863 0.960 . S
C876 C875 1.524 . S
C877 C874 1.403 . S
C877 C878 1.392 . S
C877 C881 1.495 . S
C878 C877 1.392 . S
C878 C879 1.385 . S
C878 C880 1.478 . S
C879 H873 0.930 . S
C879 C875 1.400 . S
C879 C878 1.385 . S
C880 C878 1.478 . S
C880 C882 1.381 . S
C880 C886 1.383 . S
C881 C877 1.495 . S
C881 H887 0.959 . S
C881 H888 0.961 . S
C881 H889 0.960 . S
C882 C880 1.381 . S
C882 C883 1.394 . S
C882 H890 0.930 . S
C883 C882 1.394 . S
C883 C884 1.383 . S
C883 H891 0.929 . S
C884 C883 1.383 . S
C884 C885 1.377 . S
C885 H869 0.930 . S
C885 C884 1.377 . S
C885 C886 1.379 . S
C886 H870 0.931 . S
C886 C880 1.383 . S
C886 C885 1.379 . S
H887 C881 0.959 . S
H888 C881 0.961 . S
H889 C881 0.960 . S
H890 C882 0.930 . S
H891 C883 0.929 . S
H892 C900 0.929 . S
H893 C902 0.930 . S
H894 C904 0.930 . S
H895 C907 0.929 . S
H896 C910 0.930 . S
H897 C912 0.960 . S
H898 C912 0.960 . S
H899 C912 0.960 . S
C900 H892 0.929 . S
C900 C901 1.377 . S
C900 C902 1.384 . S
C901 C900 1.377 . S
C901 C907 1.390 . S
C902 H893 0.930 . S
C902 C900 1.384 . S
C902 C903 1.372 . S
C903 C902 1.372 . S
C903 C904 1.400 . S
C903 C908 1.490 . S
C904 H894 0.930 . S
C904 C903 1.400 . S
C904 C907 1.386 . S
H905 C921 0.930 . S
H906 C922 0.931 . S
C907 H895 0.929 . S
C907 C901 1.390 . S
C907 C904 1.386 . S
C908 C903 1.490 . S
C908 C910 1.395 . S
C908 C911 1.403 . S
H909 C915 0.930 . S
C910 H896 0.930 . S
C910 C908 1.395 . S
C910 C913 1.403 . S
C911 C908 1.403 . S
C911 C912 1.524 . S
C911 C915 1.400 . S
C912 H897 0.960 . S
C912 H898 0.960 . S
C912 H899 0.960 . S
C912 C911 1.524 . S
C913 C910 1.403 . S
C913 C914 1.392 . S
C913 C917 1.495 . S
C914 C913 1.392 . S
C914 C915 1.385 . S
C914 C916 1.478 . S
C915 H909 0.930 . S
C915 C911 1.400 . S
C915 C914 1.385 . S
C916 C914 1.478 . S
C916 C918 1.381 . S
C916 C922 1.383 . S
C917 C913 1.495 . S
C917 H923 0.959 . S
C917 H924 0.961 . S
C917 H925 0.960 . S
C918 C916 1.381 . S
C918 C919 1.394 . S
C918 H926 0.930 . S
C919 C918 1.394 . S
C919 C920 1.383 . S
C919 H927 0.929 . S
C920 C919 1.383 . S
C920 C921 1.377 . S
C921 H905 0.930 . S
C921 C920 1.377 . S
C921 C922 1.379 . S
C922 H906 0.931 . S
C922 C916 1.383 . S
C922 C921 1.379 . S
H923 C917 0.959 . S
H924 C917 0.961 . S
H925 C917 0.960 . S
H926 C918 0.930 . S
H927 C919 0.929 . S
H928 C936 0.929 . S
H929 C938 0.930 . S
H930 C940 0.930 . S
H931 C943 0.929 . S
H932 C946 0.930 . S
H933 C948 0.960 . S
H934 C948 0.960 . S
H935 C948 0.960 . S
C936 H928 0.929 . S
C936 C937 1.377 . S
C936 C938 1.384 . S
C937 C936 1.377 . S
C937 C943 1.390 . S
C938 H929 0.930 . S
C938 C936 1.384 . S
C938 C939 1.372 . S
C939 C938 1.372 . S
C939 C940 1.400 . S
C939 C944 1.490 . S
C940 H930 0.930 . S
C940 C939 1.400 . S
C940 C943 1.386 . S
H941 C957 0.930 . S
H942 C958 0.931 . S
C943 H931 0.929 . S
C943 C937 1.390 . S
C943 C940 1.386 . S
C944 C939 1.490 . S
C944 C946 1.395 . S
C944 C947 1.403 . S
H945 C951 0.930 . S
C946 H932 0.930 . S
C946 C944 1.395 . S
C946 C949 1.403 . S
C947 C944 1.403 . S
C947 C948 1.524 . S
C947 C951 1.400 . S
C948 H933 0.960 . S
C948 H934 0.960 . S
C948 H935 0.960 . S
C948 C947 1.524 . S
C949 C946 1.403 . S
C949 C950 1.392 . S
C949 C953 1.495 . S
C950 C949 1.392 . S
C950 C951 1.385 . S
C950 C952 1.478 . S
C951 H945 0.930 . S
C951 C947 1.400 . S
C951 C950 1.385 . S
C952 C950 1.478 . S
C952 C954 1.381 . S
C952 C958 1.383 . S
C953 C949 1.495 . S
C953 H959 0.959 . S
C953 H960 0.961 . S
C953 H961 0.960 . S
C954 C952 1.381 . S
C954 C955 1.394 . S
C954 H962 0.930 . S
C955 C954 1.394 . S
C955 C956 1.383 . S
C955 H963 0.929 . S
C956 C955 1.383 . S
C956 C957 1.377 . S
C957 H941 0.930 . S
C957 C956 1.377 . S
C957 C958 1.379 . S
C958 H942 0.931 . S
C958 C952 1.383 . S
C958 C957 1.379 . S
H959 C953 0.959 . S
H960 C953 0.961 . S
H961 C953 0.960 . S
H962 C954 0.930 . S
H963 C955 0.929 . S
H964 C972 0.929 . S
H965 C974 0.930 . S
H966 C976 0.930 . S
H967 C979 0.929 . S
H968 C982 0.930 . S
H969 C984 0.960 . S
H970 C984 0.960 . S
H971 C984 0.960 . S
C972 H964 0.929 . S
C972 C973 1.377 . S
C972 C974 1.384 . S
C973 C972 1.377 . S
C973 C979 1.390 . S
C974 H965 0.930 . S
C974 C972 1.384 . S
C974 C975 1.372 . S
C975 C974 1.372 . S
C975 C976 1.400 . S
C975 C980 1.490 . S
C976 H966 0.930 . S
C976 C975 1.400 . S
C976 C979 1.386 . S
H977 C993 0.930 . S
H978 C994 0.931 . S
C979 H967 0.929 . S
C979 C973 1.390 . S
C979 C976 1.386 . S
C980 C975 1.490 . S
C980 C982 1.395 . S
C980 C983 1.403 . S
H981 C987 0.930 . S
C982 H968 0.930 . S
C982 C980 1.395 . S
C982 C985 1.403 . S
C983 C980 1.403 . S
C983 C984 1.524 . S
C983 C987 1.400 . S
C984 H969 0.960 . S
C984 H970 0.960 . S
C984 H971 0.960 . S
C984 C983 1.524 . S
C985 C982 1.403 . S
C985 C986 1.392 . S
C985 C989 1.495 . S
C986 C985 1.392 . S
C986 C987 1.385 . S
C986 C988 1.478 . S
C987 H981 0.930 . S
C987 C983 1.400 . S
C987 C986 1.385 . S
C988 C986 1.478 . S
C988 C990 1.381 . S
C988 C994 1.383 . S
C989 C985 1.495 . S
C989 H995 0.959 . S
C989 H996 0.961 . S
C989 H997 0.960 . S
C990 C988 1.381 . S
C990 C991 1.394 . S
C990 H998 0.930 . S
C991 C990 1.394 . S
C991 C992 1.383 . S
C991 H999 0.929 . S
C992 C991 1.383 . S
C992 C993 1.377 . S
C993 H977 0.930 . S
C993 C992 1.377 . S
C993 C994 1.379 . S
C994 H978 0.931 . S
C994 C988 1.383 . S
C994 C993 1.379 . S
H995 C989 0.959 . S
H996 C989 0.961 . S
H997 C989 0.960 . S
H998 C990 0.930 . S
H999 C991 0.929 . S
H1000 C1008 0.929 . S
H1001 C1010 0.930 . S
H1002 C1012 0.930 . S
H1003 C1015 0.929 . S
H1004 C1018 0.930 . S
H1005 C1020 0.960 . S
H1006 C1020 0.960 . S
H1007 C1020 0.960 . S
C1008 H1000 0.929 . S
C1008 C1009 1.377 . S
C1008 C1010 1.384 . S
C1009 C1008 1.377 . S
C1009 C1015 1.390 . S
C1010 H1001 0.930 . S
C1010 C1008 1.384 . S
C1010 C1011 1.372 . S
C1011 C1010 1.372 . S
C1011 C1012 1.400 . S
C1011 C1016 1.490 . S
C1012 H1002 0.930 . S
C1012 C1011 1.400 . S
C1012 C1015 1.386 . S
H1013 C1029 0.930 . S
H1014 C1030 0.931 . S
C1015 H1003 0.929 . S
C1015 C1009 1.390 . S
C1015 C1012 1.386 . S
C1016 C1011 1.490 . S
C1016 C1018 1.395 . S
C1016 C1019 1.403 . S
H1017 C1023 0.930 . S
C1018 H1004 0.930 . S
C1018 C1016 1.395 . S
C1018 C1021 1.403 . S
C1019 C1016 1.403 . S
C1019 C1020 1.524 . S
C1019 C1023 1.400 . S
C1020 H1005 0.960 . S
C1020 H1006 0.960 . S
C1020 H1007 0.960 . S
C1020 C1019 1.524 . S
C1021 C1018 1.403 . S
C1021 C1022 1.392 . S
C1021 C1025 1.495 . S
C1022 C1021 1.392 . S
C1022 C1023 1.385 . S
C1022 C1024 1.478 . S
C1023 H1017 0.930 . S
C1023 C1019 1.400 . S
C1023 C1022 1.385 . S
C1024 C1022 1.478 . S
C1024 C1026 1.381 . S
C1024 C1030 1.383 . S
C1025 C1021 1.495 . S
C1025 H1031 0.959 . S
C1025 H1032 0.961 . S
C1025 H1033 0.960 . S
C1026 C1024 1.381 . S
C1026 C1027 1.394 . S
C1026 H1034 0.930 . S
C1027 C1026 1.394 . S
C1027 C1028 1.383 . S
C1027 H1035 0.929 . S
C1028 C1027 1.383 . S
C1028 C1029 1.377 . S
C1029 H1013 0.930 . S
C1029 C1028 1.377 . S
C1029 C1030 1.379 . S
C1030 H1014 0.931 . S
C1030 C1024 1.383 . S
C1030 C1029 1.379 . S
H1031 C1025 0.959 . S
H1032 C1025 0.961 . S
H1033 C1025 0.960 . S
H1034 C1026 0.930 . S
H1035 C1027 0.929 . S
H1036 C1044 0.929 . S
H1037 C1046 0.930 . S
H1038 C1048 0.930 . S
H1039 C1051 0.929 . S
H1040 C1054 0.930 . S
H1041 C1056 0.960 . S
H1042 C1056 0.960 . S
H1043 C1056 0.960 . S
C1044 H1036 0.929 . S
C1044 C1045 1.377 . S
C1044 C1046 1.384 . S
C1045 C1044 1.377 . S
C1045 C1051 1.390 . S
C1046 H1037 0.930 . S
C1046 C1044 1.384 . S
C1046 C1047 1.372 . S
C1047 C1046 1.372 . S
C1047 C1048 1.400 . S
C1047 C1052 1.490 . S
C1048 H1038 0.930 . S
C1048 C1047 1.400 . S
C1048 C1051 1.386 . S
H1049 C1065 0.930 . S
H1050 C1066 0.931 . S
C1051 H1039 0.929 . S
C1051 C1045 1.390 . S
C1051 C1048 1.386 . S
C1052 C1047 1.490 . S
C1052 C1054 1.395 . S
C1052 C1055 1.403 . S
H1053 C1059 0.930 . S
C1054 H1040 0.930 . S
C1054 C1052 1.395 . S
C1054 C1057 1.403 . S
C1055 C1052 1.403 . S
C1055 C1056 1.524 . S
C1055 C1059 1.400 . S
C1056 H1041 0.960 . S
C1056 H1042 0.960 . S
C1056 H1043 0.960 . S
C1056 C1055 1.524 . S
C1057 C1054 1.403 . S
C1057 C1058 1.392 . S
C1057 C1061 1.495 . S
C1058 C1057 1.392 . S
C1058 C1059 1.385 . S
C1058 C1060 1.478 . S
C1059 H1053 0.930 . S
C1059 C1055 1.400 . S
C1059 C1058 1.385 . S
C1060 C1058 1.478 . S
C1060 C1062 1.381 . S
C1060 C1066 1.383 . S
C1061 C1057 1.495 . S
C1061 H1067 0.959 . S
C1061 H1068 0.961 . S
C1061 H1069 0.960 . S
C1062 C1060 1.381 . S
C1062 C1063 1.394 . S
C1062 H1070 0.930 . S
C1063 C1062 1.394 . S
C1063 C1064 1.383 . S
C1063 H1071 0.929 . S
C1064 C1063 1.383 . S
C1064 C1065 1.377 . S
C1065 H1049 0.930 . S
C1065 C1064 1.377 . S
C1065 C1066 1.379 . S
C1066 H1050 0.931 . S
C1066 C1060 1.383 . S
C1066 C1065 1.379 . S
H1067 C1061 0.959 . S
H1068 C1061 0.961 . S
H1069 C1061 0.960 . S
H1070 C1062 0.930 . S
H1071 C1063 0.929 . S
H1072 C1080 0.929 . S
H1073 C1082 0.930 . S
H1074 C1084 0.930 . S
H1075 C1087 0.929 . S
H1076 C1090 0.930 . S
H1077 C1092 0.960 . S
H1078 C1092 0.960 . S
H1079 C1092 0.960 . S
C1080 H1072 0.929 . S
C1080 C1081 1.377 . S
C1080 C1082 1.384 . S
C1081 C1080 1.377 . S
C1081 C1087 1.390 . S
C1082 H1073 0.930 . S
C1082 C1080 1.384 . S
C1082 C1083 1.372 . S
C1083 C1082 1.372 . S
C1083 C1084 1.400 . S
C1083 C1088 1.496 . S
C1084 H1074 0.930 . S
C1084 C1083 1.400 . S
C1084 C1087 1.386 . S
H1085 C1101 0.930 . S
H1086 C1102 0.931 . S
C1087 H1075 0.929 . S
C1087 C1081 1.390 . S
C1087 C1084 1.386 . S
C1088 C1083 1.496 . S
C1088 C1090 1.387 1_545 S
C1088 C1091 1.404 . S
H1089 C1095 0.930 . S
C1090 H1076 0.930 . S
C1090 C1088 1.387 1_565 S
C1090 C1093 1.403 . S
C1091 C1088 1.404 . S
C1091 C1092 1.524 . S
C1091 C1095 1.400 1_545 S
C1092 H1077 0.960 . S
C1092 H1078 0.960 . S
C1092 H1079 0.960 . S
C1092 C1091 1.524 . S
C1093 C1090 1.403 . S
C1093 C1094 1.392 . S
C1093 C1097 1.495 . S
C1094 C1093 1.392 . S
C1094 C1095 1.385 . S
C1094 C1096 1.478 . S
C1095 H1089 0.930 . S
C1095 C1091 1.400 1_565 S
C1095 C1094 1.385 . S
C1096 C1094 1.478 . S
C1096 C1098 1.381 . S
C1096 C1102 1.383 . S
C1097 C1093 1.495 . S
C1097 H1103 0.959 . S
C1097 H1104 0.961 . S
C1097 H1105 0.960 . S
C1098 C1096 1.381 . S
C1098 C1099 1.394 . S
C1098 H1106 0.930 . S
C1099 C1098 1.394 . S
C1099 C1100 1.383 . S
C1099 H1107 0.929 . S
C1100 C1099 1.383 . S
C1100 C1101 1.377 . S
C1101 H1085 0.930 . S
C1101 C1100 1.377 . S
C1101 C1102 1.379 . S
C1102 H1086 0.931 . S
C1102 C1096 1.383 . S
C1102 C1101 1.379 . S
H1103 C1097 0.959 . S
H1104 C1097 0.961 . S
H1105 C1097 0.960 . S
H1106 C1098 0.930 . S
H1107 C1099 0.929 . S
H1108 C1116 0.929 . S
H1109 C1118 0.930 . S
H1110 C1120 0.930 . S
H1111 C1123 0.929 . S
H1112 C1126 0.930 . S
H1113 C1128 0.960 . S
H1114 C1128 0.960 . S
H1115 C1128 0.960 . S
C1116 H1108 0.929 . S
C1116 C1117 1.377 . S
C1116 C1118 1.384 . S
C1117 C1116 1.377 . S
C1117 C1123 1.390 . S
C1118 H1109 0.930 . S
C1118 C1116 1.384 . S
C1118 C1119 1.372 . S
C1119 C1118 1.372 . S
C1119 C1120 1.400 . S
C1119 C1124 1.490 . S
C1120 H1110 0.930 . S
C1120 C1119 1.400 . S
C1120 C1123 1.386 . S
H1121 C1137 0.930 . S
H1122 C1138 0.931 . S
C1123 H1111 0.929 . S
C1123 C1117 1.390 . S
C1123 C1120 1.386 . S
C1124 C1119 1.490 . S
C1124 C1126 1.395 . S
C1124 C1127 1.403 . S
H1125 C1131 0.930 . S
C1126 H1112 0.930 . S
C1126 C1124 1.395 . S
C1126 C1129 1.403 . S
C1127 C1124 1.403 . S
C1127 C1128 1.524 . S
C1127 C1131 1.400 . S
C1128 H1113 0.960 . S
C1128 H1114 0.960 . S
C1128 H1115 0.960 . S
C1128 C1127 1.524 . S
C1129 C1126 1.403 . S
C1129 C1130 1.392 . S
C1129 C1133 1.495 . S
C1130 C1129 1.392 . S
C1130 C1131 1.385 . S
C1130 C1132 1.478 . S
C1131 H1125 0.930 . S
C1131 C1127 1.400 . S
C1131 C1130 1.385 . S
C1132 C1130 1.478 . S
C1132 C1134 1.381 . S
C1132 C1138 1.383 . S
C1133 C1129 1.495 . S
C1133 H1139 0.959 . S
C1133 H1140 0.961 . S
C1133 H1141 0.960 . S
C1134 C1132 1.381 . S
C1134 C1135 1.394 . S
C1134 H1142 0.930 . S
C1135 C1134 1.394 . S
C1135 C1136 1.383 . S
C1135 H1143 0.929 . S
C1136 C1135 1.383 . S
C1136 C1137 1.377 . S
C1137 H1121 0.930 . S
C1137 C1136 1.377 . S
C1137 C1138 1.379 . S
C1138 H1122 0.931 . S
C1138 C1132 1.383 . S
C1138 C1137 1.379 . S
H1139 C1133 0.959 . S
H1140 C1133 0.961 . S
H1141 C1133 0.960 . S
H1142 C1134 0.930 . S
H1143 C1135 0.929 . S
H1144 C1152 0.929 . S
H1145 C1154 0.930 . S
H1146 C1156 0.930 . S
H1147 C1159 0.929 . S
H1148 C1162 0.930 . S
H1149 C1164 0.960 . S
H1150 C1164 0.960 . S
H1151 C1164 0.960 . S
C1152 H1144 0.929 . S
C1152 C1153 1.377 . S
C1152 C1154 1.384 . S
C1153 C1152 1.377 . S
C1153 C1159 1.390 . S
C1154 H1145 0.930 . S
C1154 C1152 1.384 . S
C1154 C1155 1.372 . S
C1155 C1154 1.372 . S
C1155 C1156 1.400 . S
C1155 C1160 1.490 . S
C1156 H1146 0.930 . S
C1156 C1155 1.400 . S
C1156 C1159 1.386 . S
H1157 C1173 0.930 . S
H1158 C1174 0.931 . S
C1159 H1147 0.929 . S
C1159 C1153 1.390 . S
C1159 C1156 1.386 . S
C1160 C1155 1.490 . S
C1160 C1162 1.395 . S
C1160 C1163 1.403 . S
H1161 C1167 0.930 . S
C1162 H1148 0.930 . S
C1162 C1160 1.395 . S
C1162 C1165 1.403 1_455 S
C1163 C1160 1.403 . S
C1163 C1164 1.524 . S
C1163 C1167 1.400 . S
C1164 H1149 0.960 . S
C1164 H1150 0.960 . S
C1164 H1151 0.960 . S
C1164 C1163 1.524 . S
C1165 C1162 1.403 1_655 S
C1165 C1166 1.392 . S
C1165 C1169 1.495 . S
C1166 C1165 1.392 . S
C1166 C1167 1.385 1_655 S
C1166 C1168 1.478 . S
C1167 H1161 0.930 . S
C1167 C1163 1.400 . S
C1167 C1166 1.385 1_455 S
C1168 C1166 1.478 . S
C1168 C1170 1.381 . S
C1168 C1174 1.383 . S
C1169 C1165 1.495 . S
C1169 H1175 0.959 . S
C1169 H1176 0.961 . S
C1169 H1177 0.960 . S
C1170 C1168 1.381 . S
C1170 C1171 1.394 . S
C1170 H1178 0.930 . S
C1171 C1170 1.394 . S
C1171 C1172 1.383 . S
C1171 H1179 0.929 . S
C1172 C1171 1.383 . S
C1172 C1173 1.377 . S
C1173 H1157 0.930 . S
C1173 C1172 1.377 . S
C1173 C1174 1.379 . S
C1174 H1158 0.931 . S
C1174 C1168 1.383 . S
C1174 C1173 1.379 . S
H1175 C1169 0.959 . S
H1176 C1169 0.961 . S
H1177 C1169 0.960 . S
H1178 C1170 0.930 . S
H1179 C1171 0.929 . S
H1180 C1188 0.929 . S
H1181 C1190 0.930 . S
H1182 C1192 0.930 . S
H1183 C1195 0.929 . S
H1184 C1198 0.930 . S
H1185 C1200 0.960 . S
H1186 C1200 0.960 . S
H1187 C1200 0.960 . S
C1188 H1180 0.929 . S
C1188 C1189 1.377 . S
C1188 C1190 1.384 . S
C1189 C1188 1.377 . S
C1189 C1195 1.390 . S
C1190 H1181 0.930 . S
C1190 C1188 1.384 . S
C1190 C1191 1.372 . S
C1191 C1190 1.372 . S
C1191 C1192 1.400 . S
C1191 C1196 1.490 . S
C1192 H1182 0.930 . S
C1192 C1191 1.400 . S
C1192 C1195 1.386 . S
H1193 C1209 0.930 . S
H1194 C1210 0.931 . S
C1195 H1183 0.929 . S
C1195 C1189 1.390 . S
C1195 C1192 1.386 . S
C1196 C1191 1.490 . S
C1196 C1198 1.395 . S
C1196 C1199 1.403 1_565 S
H1197 C1203 0.930 . S
C1198 H1184 0.930 . S
C1198 C1196 1.395 . S
C1198 C1201 1.403 1_665 S
C1199 C1196 1.403 1_545 S
C1199 C1200 1.524 . S
C1199 C1203 1.400 . S
C1200 H1185 0.960 . S
C1200 H1186 0.960 . S
C1200 H1187 0.960 . S
C1200 C1199 1.524 . S
C1201 C1198 1.403 1_445 S
C1201 C1202 1.392 . S
C1201 C1205 1.495 1_545 S
C1202 C1201 1.392 . S
C1202 C1203 1.385 1_455 S
C1202 C1204 1.478 . S
C1203 H1197 0.930 . S
C1203 C1199 1.400 . S
C1203 C1202 1.385 1_655 S
C1204 C1202 1.478 . S
C1204 C1206 1.381 . S
C1204 C1210 1.383 . S
C1205 C1201 1.495 1_565 S
C1205 H1211 0.959 . S
C1205 H1212 0.956 1_565 S
C1205 H1213 0.960 1_565 S
C1206 C1204 1.381 . S
C1206 C1207 1.394 . S
C1206 H1214 0.930 . S
C1207 C1206 1.394 . S
C1207 C1208 1.383 . S
C1207 H1215 0.929 . S
C1208 C1207 1.383 . S
C1208 C1209 1.377 . S
C1209 H1193 0.930 . S
C1209 C1208 1.377 . S
C1209 C1210 1.379 . S
C1210 H1194 0.931 . S
C1210 C1204 1.383 . S
C1210 C1209 1.379 . S
H1211 C1205 0.959 . S
H1212 C1205 0.956 1_545 S
H1213 C1205 0.960 1_545 S
H1214 C1206 0.930 . S
H1215 C1207 0.929 . S
H1216 C1224 0.929 . S
H1217 C1226 0.930 . S
H1218 C1228 0.930 . S
H1219 C1231 0.929 . S
H1220 C1234 0.930 . S
H1221 C1236 0.960 . S
H1222 C1236 0.960 . S
H1223 C1236 0.960 . S
C1224 H1216 0.929 . S
C1224 C1225 1.377 . S
C1224 C1226 1.384 . S
C1225 C1224 1.377 . S
C1225 C1231 1.390 . S
C1226 H1217 0.930 . S
C1226 C1224 1.384 . S
C1226 C1227 1.372 . S
C1227 C1226 1.372 . S
C1227 C1228 1.400 . S
C1227 C1232 1.490 . S
C1228 H1218 0.930 . S
C1228 C1227 1.400 . S
C1228 C1231 1.386 . S
H1229 C1245 0.930 . S
H1230 C1246 0.931 . S
C1231 H1219 0.929 . S
C1231 C1225 1.390 . S
C1231 C1228 1.386 . S
C1232 C1227 1.490 . S
C1232 C1234 1.395 . S
C1232 C1235 1.403 . S
H1233 C1239 0.930 . S
C1234 H1220 0.930 . S
C1234 C1232 1.395 . S
C1234 C1237 1.403 . S
C1235 C1232 1.403 . S
C1235 C1236 1.524 . S
C1235 C1239 1.400 . S
C1236 H1221 0.960 . S
C1236 H1222 0.960 . S
C1236 H1223 0.960 . S
C1236 C1235 1.524 . S
C1237 C1234 1.403 . S
C1237 C1238 1.392 . S
C1237 C1241 1.495 . S
C1238 C1237 1.392 . S
C1238 C1239 1.385 . S
C1238 C1240 1.478 . S
C1239 H1233 0.930 . S
C1239 C1235 1.400 . S
C1239 C1238 1.385 . S
C1240 C1238 1.478 . S
C1240 C1242 1.381 . S
C1240 C1246 1.383 . S
C1241 C1237 1.495 . S
C1241 H1247 0.959 . S
C1241 H1248 0.961 . S
C1241 H1249 0.960 . S
C1242 C1240 1.381 . S
C1242 C1243 1.394 . S
C1242 H1250 0.930 . S
C1243 C1242 1.394 . S
C1243 C1244 1.383 . S
C1243 H1251 0.929 . S
C1244 C1243 1.383 . S
C1244 C1245 1.377 . S
C1245 H1229 0.930 . S
C1245 C1244 1.377 . S
C1245 C1246 1.379 . S
C1246 H1230 0.931 . S
C1246 C1240 1.383 . S
C1246 C1245 1.379 . S
H1247 C1241 0.959 . S
H1248 C1241 0.961 . S
H1249 C1241 0.960 . S
H1250 C1242 0.930 . S
H1251 C1243 0.929 . S
H1252 C1260 0.929 . S
H1253 C1262 0.930 . S
H1254 C1264 0.930 . S
H1255 C1267 0.929 . S
H1256 C1270 0.930 . S
H1257 C1272 0.960 . S
H1258 C1272 0.960 . S
H1259 C1272 0.960 . S
C1260 H1252 0.929 . S
C1260 C1261 1.377 . S
C1260 C1262 1.384 . S
C1261 C1260 1.377 . S
C1261 C1267 1.390 . S
C1262 H1253 0.930 . S
C1262 C1260 1.384 . S
C1262 C1263 1.372 . S
C1263 C1262 1.372 . S
C1263 C1264 1.400 . S
C1263 C1268 1.512 . S
C1264 H1254 0.930 . S
C1264 C1263 1.400 . S
C1264 C1267 1.386 . S
H1265 C1281 0.930 . S
H1266 C1282 0.931 . S
C1267 H1255 0.929 . S
C1267 C1261 1.390 . S
C1267 C1264 1.386 . S
C1268 C1263 1.512 . S
C1268 C1270 1.366 1_455 S
C1268 C1271 1.409 . S
H1269 C1275 0.930 . S
C1270 H1256 0.930 . S
C1270 C1268 1.366 1_655 S
C1270 C1273 1.403 . S
C1271 C1268 1.409 . S
C1271 C1272 1.524 . S
C1271 C1275 1.400 1_455 S
C1272 H1257 0.960 . S
C1272 H1258 0.960 . S
C1272 H1259 0.960 . S
C1272 C1271 1.524 . S
C1273 C1270 1.403 . S
C1273 C1274 1.392 . S
C1273 C1277 1.495 . S
C1274 C1273 1.392 . S
C1274 C1275 1.385 . S
C1274 C1276 1.478 . S
C1275 H1269 0.930 . S
C1275 C1271 1.400 1_655 S
C1275 C1274 1.385 . S
C1276 C1274 1.478 . S
C1276 C1278 1.381 . S
C1276 C1282 1.383 . S
C1277 C1273 1.495 . S
C1277 H1283 0.959 . S
C1277 H1284 0.961 . S
C1277 H1285 0.960 . S
C1278 C1276 1.381 . S
C1278 C1279 1.394 . S
C1278 H1286 0.930 . S
C1279 C1278 1.394 . S
C1279 C1280 1.383 . S
C1279 H1287 0.929 . S
C1280 C1279 1.383 . S
C1280 C1281 1.377 . S
C1281 H1265 0.930 . S
C1281 C1280 1.377 . S
C1281 C1282 1.379 . S
C1282 H1266 0.931 . S
C1282 C1276 1.383 . S
C1282 C1281 1.379 . S
H1283 C1277 0.959 . S
H1284 C1277 0.961 . S
H1285 C1277 0.960 . S
H1286 C1278 0.930 . S
H1287 C1279 0.929 . S
H1288 C1296 0.929 . S
H1289 C1298 0.930 . S
H1290 C1300 0.930 . S
H1291 C1303 0.929 . S
H1292 C1306 0.930 . S
H1293 C1308 0.960 . S
H1294 C1308 0.960 . S
H1295 C1308 0.960 . S
C1296 H1288 0.929 . S
C1296 C1297 1.377 . S
C1296 C1298 1.384 . S
C1297 C1296 1.377 . S
C1297 C1303 1.390 . S
C1298 H1289 0.930 . S
C1298 C1296 1.384 . S
C1298 C1299 1.372 . S
C1299 C1298 1.372 . S
C1299 C1300 1.400 . S
C1299 C1304 1.490 . S
C1300 H1290 0.930 . S
C1300 C1299 1.400 . S
C1300 C1303 1.386 . S
H1301 C1317 0.930 . S
H1302 C1318 0.931 . S
C1303 H1291 0.929 . S
C1303 C1297 1.390 . S
C1303 C1300 1.386 . S
C1304 C1299 1.490 . S
C1304 C1306 1.395 . S
C1304 C1307 1.403 1_655 S
H1305 C1311 0.930 . S
C1306 H1292 0.930 . S
C1306 C1304 1.395 . S
C1306 C1309 1.403 1_665 S
C1307 C1304 1.403 1_455 S
C1307 C1308 1.524 . S
C1307 C1311 1.400 . S
C1308 H1293 0.960 . S
C1308 H1294 0.960 . S
C1308 H1295 0.960 . S
C1308 C1307 1.524 . S
C1309 C1306 1.403 1_445 S
C1309 C1310 1.392 . S
C1309 C1313 1.495 . S
C1310 C1309 1.392 . S
C1310 C1311 1.385 1_545 S
C1310 C1312 1.478 . S
C1311 H1305 0.930 . S
C1311 C1307 1.400 . S
C1311 C1310 1.385 1_565 S
C1312 C1310 1.478 . S
C1312 C1314 1.381 . S
C1312 C1318 1.383 . S
C1313 C1309 1.495 . S
C1313 H1319 0.959 1_455 S
C1313 H1320 0.961 . S
C1313 H1321 0.960 . S
C1314 C1312 1.381 . S
C1314 C1315 1.394 . S
C1314 H1322 0.930 . S
C1315 C1314 1.394 . S
C1315 C1316 1.383 . S
C1315 H1323 0.929 . S
C1316 C1315 1.383 . S
C1316 C1317 1.377 . S
C1317 H1301 0.930 . S
C1317 C1316 1.377 . S
C1317 C1318 1.379 . S
C1318 H1302 0.931 . S
C1318 C1312 1.383 . S
C1318 C1317 1.379 . S
H1319 C1313 0.959 1_655 S
H1320 C1313 0.961 . S
H1321 C1313 0.960 . S
H1322 C1314 0.930 . S
H1323 C1315 0.929 . S
H1324 C1332 0.929 . S
H1325 C1334 0.930 . S
H1326 C1336 0.930 . S
H1327 C1339 0.929 . S
H1328 C1342 0.930 . S
H1329 C1344 0.960 . S
H1330 C1344 0.960 . S
H1331 C1344 0.960 . S
C1332 H1324 0.929 . S
C1332 C1333 1.377 . S
C1332 C1334 1.384 . S
C1333 C1332 1.377 . S
C1333 C1339 1.390 . S
C1334 H1325 0.930 . S
C1334 C1332 1.384 . S
C1334 C1335 1.372 . S
C1335 C1334 1.372 . S
C1335 C1336 1.400 . S
C1335 C1340 1.490 . S
C1336 H1326 0.930 . S
C1336 C1335 1.400 . S
C1336 C1339 1.386 . S
H1337 C1353 0.930 . S
H1338 C1354 0.931 . S
C1339 H1327 0.929 . S
C1339 C1333 1.390 . S
C1339 C1336 1.386 . S
C1340 C1335 1.490 . S
C1340 C1342 1.395 . S
C1340 C1343 1.403 1_565 S
H1341 C1347 0.930 . S
C1342 H1328 0.930 . S
C1342 C1340 1.395 . S
C1342 C1345 1.403 1_565 S
C1343 C1340 1.403 1_545 S
C1343 C1344 1.524 . S
C1343 C1347 1.400 . S
C1344 H1329 0.960 . S
C1344 H1330 0.960 . S
C1344 H1331 0.960 . S
C1344 C1343 1.524 . S
C1345 C1342 1.403 1_545 S
C1345 C1346 1.392 . S
C1345 C1349 1.495 1_545 S
C1346 C1345 1.392 . S
C1346 C1347 1.385 . S
C1346 C1348 1.478 . S
C1347 H1341 0.930 . S
C1347 C1343 1.400 . S
C1347 C1346 1.385 . S
C1348 C1346 1.478 . S
C1348 C1350 1.381 . S
C1348 C1354 1.383 . S
C1349 C1345 1.495 1_565 S
C1349 H1355 0.959 . S
C1349 H1356 0.961 1_565 S
C1349 H1357 0.960 1_565 S
C1350 C1348 1.381 . S
C1350 C1351 1.394 . S
C1350 H1358 0.930 . S
C1351 C1350 1.394 . S
C1351 C1352 1.383 . S
C1351 H1359 0.929 . S
C1352 C1351 1.383 . S
C1352 C1353 1.377 . S
C1353 H1337 0.930 . S
C1353 C1352 1.377 . S
C1353 C1354 1.379 . S
C1354 H1338 0.931 . S
C1354 C1348 1.383 . S
C1354 C1353 1.379 . S
H1355 C1349 0.959 . S
H1356 C1349 0.961 1_545 S
H1357 C1349 0.960 1_545 S
H1358 C1350 0.930 . S
H1359 C1351 0.929 . S
C217 C95 1.421 . S
C236 C10 1.435 . S
C253 C56 1.421 . S
C272 C17 1.404 . S
C289 C75 1.427 . S
C308 C30 1.401 . S
C325 C49 1.422 . S
C344 C88 1.401 . S
C361 C205 1.425 . S
C380 C108 1.437 . S
C397 C166 1.420 . S
C416 C127 1.406 . S
C433 C140 1.420 . S
C452 C173 1.406 . S
C469 C153 1.429 . S
C488 C192 1.436 . S
C505 C29 1.011 . S
C524 C5 1.041 . S
C541 C16 1.003 . S
C560 C44 1.034 . S
C577 C55 1.012 . S
C596 C83 1.039 . S
C613 C94 1.013 . S
C632 C70 1.037 . S
C649 C107 1.002 . S
C668 C135 0.979 . S
C685 C122 1.017 . S
C704 C148 1.037 . S
C721 C187 1.011 . S
C740 C161 1.030 . S
C757 C172 1.013 . S
C776 C200 1.013 . S
C793 C81 1.263 . S
C812 C3 1.244 . S
C829 C18 1.260 . S
C848 C96 1.252 . S
C865 C31 1.266 . S
C884 C57 1.255 . S
C901 C42 1.261 . S
C920 C68 1.259 . S
C937 C109 1.264 . S
C956 C185 1.270 . S
C973 C120 1.259 . S
C992 C198 1.284 . S
C1009 C133 1.264 . S
C1028 C159 1.266 . S
C1045 C146 1.259 . S
C1064 C174 1.284 . S
C1081 C4 1.217 . S
C1100 C199 1.196 . S
C1117 C160 1.215 . S
C1136 C23 1.197 . S
C1153 C36 1.211 . S
C1172 C179 1.222 . S
C1189 C186 1.214 . S
C1208 C43 1.227 . S
C1225 C121 1.215 . S
C1244 C62 1.196 . S
C1261 C69 1.218 . S
C1280 C134 1.199 . S
C1297 C147 1.213 . S
C1316 C82 1.228 . S
C1333 C114 1.216 . S
C1352 C101 1.222 . S
