# Generated by pormake.
# Topology tzs, (4)-cn, num edge types: 1
# Building blocks:
#     Node 0, Type 0, BuildingBlock: QUQFOY_clean_sbu_1, # of connection points: 4
#     Node 1, Type 0, BuildingBlock: QUQFOY_clean_sbu_1, # of connection points: 4
#     Node 2, Type 0, BuildingBlock: QUQFOY_clean_sbu_1, # of connection points: 4
#     Node 3, Type 0, BuildingBlock: QUQFOY_clean_sbu_1, # of connection points: 4
#     Node 4, Type 0, BuildingBlock: QUQFOY_clean_sbu_1, # of connection points: 4
#     Node 5, Type 0, BuildingBlock: QUQFOY_clean_sbu_1, # of connection points: 4
#     Node 6, Type 0, BuildingBlock: QUQFOY_clean_sbu_1, # of connection points: 4
#     Node 7, Type 0, BuildingBlock: QUQFOY_clean_sbu_1, # of connection points: 4
#     Node 8, Type 0, BuildingBlock: QUQFOY_clean_sbu_1, # of connection points: 4
#     Node 9, Type 0, BuildingBlock: QUQFOY_clean_sbu_1, # of connection points: 4
#     Node 10, Type 0, BuildingBlock: QUQFOY_clean_sbu_1, # of connection points: 4
#     Node 11, Type 0, BuildingBlock: QUQFOY_clean_sbu_1, # of connection points: 4
#     Node 12, Type 0, BuildingBlock: QUQFOY_clean_sbu_1, # of connection points: 4
#     Node 13, Type 0, BuildingBlock: QUQFOY_clean_sbu_1, # of connection points: 4
#     Node 14, Type 0, BuildingBlock: QUQFOY_clean_sbu_1, # of connection points: 4
#     Node 15, Type 0, BuildingBlock: QUQFOY_clean_sbu_1, # of connection points: 4
#     Edge 16, Type (0, 0), BuildingBlock: XIVTED_clean_linker_0, # of connection points: 2
#     Edge 17, Type (0, 0), BuildingBlock: XIVTED_clean_linker_0, # of connection points: 2
#     Edge 18, Type (0, 0), BuildingBlock: XIVTED_clean_linker_0, # of connection points: 2
#     Edge 19, Type (0, 0), BuildingBlock: XIVTED_clean_linker_0, # of connection points: 2
#     Edge 20, Type (0, 0), BuildingBlock: XIVTED_clean_linker_0, # of connection points: 2
#     Edge 21, Type (0, 0), BuildingBlock: XIVTED_clean_linker_0, # of connection points: 2
#     Edge 22, Type (0, 0), BuildingBlock: XIVTED_clean_linker_0, # of connection points: 2
#     Edge 23, Type (0, 0), BuildingBlock: XIVTED_clean_linker_0, # of connection points: 2
#     Edge 24, Type (0, 0), BuildingBlock: XIVTED_clean_linker_0, # of connection points: 2
#     Edge 25, Type (0, 0), BuildingBlock: XIVTED_clean_linker_0, # of connection points: 2
#     Edge 26, Type (0, 0), BuildingBlock: XIVTED_clean_linker_0, # of connection points: 2
#     Edge 27, Type (0, 0), BuildingBlock: XIVTED_clean_linker_0, # of connection points: 2
#     Edge 28, Type (0, 0), BuildingBlock: XIVTED_clean_linker_0, # of connection points: 2
#     Edge 29, Type (0, 0), BuildingBlock: XIVTED_clean_linker_0, # of connection points: 2
#     Edge 30, Type (0, 0), BuildingBlock: XIVTED_clean_linker_0, # of connection points: 2
#     Edge 31, Type (0, 0), BuildingBlock: XIVTED_clean_linker_0, # of connection points: 2
#     Edge 32, Type (0, 0), BuildingBlock: XIVTED_clean_linker_0, # of connection points: 2
#     Edge 33, Type (0, 0), BuildingBlock: XIVTED_clean_linker_0, # of connection points: 2
#     Edge 34, Type (0, 0), BuildingBlock: XIVTED_clean_linker_0, # of connection points: 2
#     Edge 35, Type (0, 0), BuildingBlock: XIVTED_clean_linker_0, # of connection points: 2
#     Edge 36, Type (0, 0), BuildingBlock: XIVTED_clean_linker_0, # of connection points: 2
#     Edge 37, Type (0, 0), BuildingBlock: XIVTED_clean_linker_0, # of connection points: 2
#     Edge 38, Type (0, 0), BuildingBlock: XIVTED_clean_linker_0, # of connection points: 2
#     Edge 39, Type (0, 0), BuildingBlock: XIVTED_clean_linker_0, # of connection points: 2
#     Edge 40, Type (0, 0), BuildingBlock: XIVTED_clean_linker_0, # of connection points: 2
#     Edge 41, Type (0, 0), BuildingBlock: XIVTED_clean_linker_0, # of connection points: 2
#     Edge 42, Type (0, 0), BuildingBlock: XIVTED_clean_linker_0, # of connection points: 2
#     Edge 43, Type (0, 0), BuildingBlock: XIVTED_clean_linker_0, # of connection points: 2
#     Edge 44, Type (0, 0), BuildingBlock: XIVTED_clean_linker_0, # of connection points: 2
#     Edge 45, Type (0, 0), BuildingBlock: XIVTED_clean_linker_0, # of connection points: 2
#     Edge 46, Type (0, 0), BuildingBlock: XIVTED_clean_linker_0, # of connection points: 2
#     Edge 47, Type (0, 0), BuildingBlock: XIVTED_clean_linker_0, # of connection points: 2
# Relax obj value: 0.146
# Max RMSD: 0.160
# Mean RMSD: 0.160
data_MOF--net-tzs--node1-QUQFOY_clean_sbu_1--edge1-XIVTED_clean_linker_0
_symmetry_space_group_name_H-M    P1
_symmetry_Int_Tables_number       1
_symmetry_cell_setting            triclinic
loop_
_symmetry_equiv_pos_as_xyz
'x, y, z'
_cell_length_a     48.937025
_cell_length_b     48.816515
_cell_length_c     45.150418
_cell_angle_alpha  89.981374
_cell_angle_beta   89.997958
_cell_angle_gamma 90.129777
loop_
_atom_site_label
_atom_site_type_symbol
_atom_site_fract_x
_atom_site_fract_y
_atom_site_fract_z
_atom_type_partial_charge
O0 O 0.16018 0.38089 0.22297 0.0
Cd1 Cd 0.14225 0.34545 0.2075 0.0
Cd2 Cd 0.12994 0.37887 0.16172 0.0
O3 O 0.15673 0.40534 0.18218 0.0
O4 O 0.15298 0.31907 0.23876 0.0
O5 O 0.16545 0.3146 0.19198 0.0
C6 C 0.16609 0.3056 0.21887 0.0
C7 C 0.13624 0.36781 0.11208 0.0
C8 C 0.16514 0.40271 0.20863 0.0
C9 C 0.0833 0.35883 0.19794 0.0
O10 O 0.09086 0.37681 0.17927 0.0
O11 O 0.10054 0.34266 0.20947 0.0
O12 O 0.12749 0.39162 0.11994 0.0
O13 O 0.14158 0.35004 0.1325 0.0
O14 O 0.59715 0.17489 0.22742 0.0
Cd15 Cd 0.6309 0.15138 0.21977 0.0
Cd16 Cd 0.60223 0.13613 0.16955 0.0
O17 O 0.57427 0.16336 0.18729 0.0
O18 O 0.65601 0.16377 0.25148 0.0
O19 O 0.66549 0.16808 0.20382 0.0
C20 C 0.6725 0.17192 0.2311 0.0
C21 C 0.61206 0.13977 0.11914 0.0
C22 C 0.576 0.17677 0.21135 0.0
C23 C 0.61603 0.09185 0.21322 0.0
O24 O 0.60488 0.09751 0.18852 0.0
O25 O 0.62748 0.11042 0.22849 0.0
O26 O 0.5888 0.13074 0.12831 0.0
O27 O 0.63005 0.14687 0.13864 0.0
O28 O 0.8173 0.59914 0.22073 0.0
Cd29 Cd 0.8374 0.63575 0.21664 0.0
Cd30 Cd 0.85879 0.61087 0.166 0.0
O31 O 0.83574 0.57852 0.18216 0.0
O32 O 0.8207 0.65823 0.24834 0.0
O33 O 0.81883 0.66946 0.20093 0.0
C34 C 0.8129 0.67507 0.22814 0.0
C35 C 0.85781 0.61725 0.11456 0.0
C36 C 0.82007 0.57803 0.20463 0.0
C37 C 0.89833 0.62961 0.21316 0.0
O38 O 0.89529 0.61992 0.18723 0.0
O39 O 0.87774 0.63658 0.22843 0.0
O40 O 0.8711 0.59745 0.12662 0.0
O41 O 0.84484 0.63384 0.13181 0.0
O42 O 0.38612 0.8178 0.22578 0.0
Cd43 Cd 0.35048 0.83913 0.22113 0.0
Cd44 Cd 0.37745 0.85899 0.16977 0.0
O45 O 0.40742 0.83318 0.18602 0.0
O46 O 0.32745 0.82335 0.25298 0.0
O47 O 0.31673 0.82051 0.2055 0.0
C48 C 0.31095 0.81489 0.23276 0.0
C49 C 0.37319 0.86052 0.11803 0.0
C50 C 0.40701 0.81832 0.20916 0.0
C51 C 0.36036 0.89967 0.2171 0.0
O52 O 0.37079 0.8957 0.19166 0.0
O53 O 0.35119 0.87977 0.23221 0.0
O54 O 0.39344 0.87171 0.13162 0.0
O55 O 0.35499 0.84813 0.13386 0.0
O56 O 0.16546 0.59856 0.29313 0.0
Cd57 Cd 0.1465 0.63555 0.29868 0.0
Cd58 Cd 0.12511 0.60918 0.34891 0.0
O59 O 0.14814 0.57728 0.33195 0.0
O60 O 0.16324 0.65812 0.26698 0.0
O61 O 0.16684 0.66829 0.31453 0.0
C62 C 0.17239 0.67418 0.28729 0.0
C63 C 0.1257 0.6146 0.40051 0.0
C64 C 0.16312 0.57719 0.30894 0.0
C65 C 0.08548 0.62964 0.30263 0.0
O66 O 0.08866 0.61847 0.32783 0.0
O67 O 0.10598 0.63765 0.28775 0.0
O68 O 0.11269 0.59484 0.38791 0.0
O69 O 0.13871 0.63162 0.38372 0.0
O70 O 0.38082 0.17242 0.28724 0.0
Cd71 Cd 0.34654 0.14946 0.29491 0.0
Cd72 Cd 0.37605 0.13332 0.34486 0.0
O73 O 0.40408 0.16049 0.32697 0.0
O74 O 0.3228 0.16155 0.26186 0.0
O75 O 0.31183 0.16738 0.3089 0.0
C76 C 0.30588 0.17066 0.28126 0.0
C77 C 0.36659 0.13715 0.39529 0.0
C78 C 0.40217 0.17408 0.30304 0.0
C79 C 0.36057 0.0895 0.30138 0.0
O80 O 0.37262 0.09484 0.32568 0.0
O81 O 0.34897 0.10834 0.28669 0.0
O82 O 0.38963 0.12777 0.386 0.0
O83 O 0.34858 0.14439 0.37591 0.0
O84 O 0.82399 0.37945 0.28424 0.0
Cd85 Cd 0.84281 0.34357 0.29674 0.0
Cd86 Cd 0.86021 0.37677 0.34229 0.0
O87 O 0.83312 0.40411 0.32392 0.0
O88 O 0.82855 0.31789 0.26647 0.0
O89 O 0.82101 0.31251 0.31436 0.0
C90 C 0.81751 0.30403 0.28754 0.0
C91 C 0.8597 0.37138 0.39378 0.0
C92 C 0.8216 0.40152 0.29887 0.0
C93 C 0.9026 0.3555 0.30008 0.0
O94 O 0.89729 0.37244 0.32066 0.0
O95 O 0.88393 0.34049 0.28928 0.0
O96 O 0.86999 0.39282 0.38136 0.0
O97 O 0.84946 0.35267 0.37684 0.0
O98 O 0.60502 0.8204 0.27835 0.0
Cd99 Cd 0.63907 0.8429 0.28836 0.0
Cd100 Cd 0.61016 0.85608 0.33798 0.0
O101 O 0.58276 0.82847 0.31981 0.0
O102 O 0.66561 0.83056 0.25811 0.0
O103 O 0.67179 0.8244 0.30619 0.0
C104 C 0.68023 0.82088 0.27935 0.0
C105 C 0.62036 0.85184 0.38822 0.0
C106 C 0.58423 0.81688 0.29466 0.0
C107 C 0.62373 0.90184 0.29597 0.0
O108 O 0.61151 0.89506 0.31975 0.0
O109 O 0.63665 0.88414 0.28094 0.0
O110 O 0.59682 0.86032 0.37939 0.0
O111 O 0.63842 0.84565 0.36848 0.0
O112 O 0.87508 0.66402 0.78152 0.0
Cd113 Cd 0.83777 0.6461 0.78824 0.0
Cd114 Cd 0.86439 0.62661 0.84045 0.0
O115 O 0.89572 0.64958 0.82206 0.0
O116 O 0.81613 0.6615 0.7551 0.0
O117 O 0.8055 0.66813 0.80213 0.0
C118 C 0.80019 0.67231 0.77447 0.0
C119 C 0.86184 0.62735 0.89237 0.0
C120 C 0.89611 0.66293 0.79788 0.0
C121 C 0.843 0.58521 0.79592 0.0
O122 O 0.85466 0.58952 0.82065 0.0
O123 O 0.83479 0.60503 0.78012 0.0
O124 O 0.88085 0.61445 0.87853 0.0
O125 O 0.84388 0.64015 0.87668 0.0
O126 O 0.3217 0.88854 0.79066 0.0
Cd127 Cd 0.34223 0.85284 0.80018 0.0
Cd128 Cd 0.3618 0.8852 0.84554 0.0
O129 O 0.33411 0.91308 0.82937 0.0
O130 O 0.3267 0.82791 0.7699 0.0
O131 O 0.322 0.82078 0.81794 0.0
C132 C 0.31704 0.81319 0.79108 0.0
C133 C 0.36254 0.87779 0.89666 0.0
C134 C 0.32046 0.91053 0.8056 0.0
C135 C 0.40225 0.86537 0.80039 0.0
O136 O 0.398 0.88127 0.82218 0.0
O137 O 0.383 0.85096 0.78978 0.0
O138 O 0.37287 0.89956 0.88495 0.0
O139 O 0.35167 0.85986 0.87918 0.0
O140 O 0.10608 0.31923 0.78443 0.0
Cd141 Cd 0.14197 0.33866 0.79467 0.0
Cd142 Cd 0.11282 0.35453 0.84434 0.0
O143 O 0.08296 0.33079 0.82438 0.0
O144 O 0.16605 0.32597 0.76217 0.0
O145 O 0.17456 0.31752 0.80935 0.0
C146 C 0.18145 0.31492 0.78188 0.0
C147 C 0.12174 0.3479 0.89455 0.0
C148 C 0.08424 0.31861 0.79954 0.0
C149 C 0.13233 0.39908 0.80388 0.0
O150 O 0.11913 0.39346 0.82738 0.0
O151 O 0.14315 0.38018 0.78861 0.0
O152 O 0.09939 0.35912 0.88568 0.0
O153 O 0.13926 0.34018 0.87487 0.0
O154 O 0.66023 0.09884 0.79475 0.0
Cd155 Cd 0.64115 0.13454 0.80736 0.0
Cd156 Cd 0.62462 0.10155 0.85249 0.0
O157 O 0.65218 0.07438 0.83476 0.0
O158 O 0.65417 0.15969 0.77587 0.0
O159 O 0.66375 0.16589 0.82319 0.0
C160 C 0.66632 0.17375 0.79602 0.0
C161 C 0.62853 0.11344 0.90217 0.0
C162 C 0.66335 0.07696 0.80954 0.0
C163 C 0.58125 0.1216 0.81183 0.0
O164 O 0.58693 0.10406 0.83171 0.0
O165 O 0.59967 0.13722 0.80144 0.0
O166 O 0.61936 0.08975 0.89428 0.0
O167 O 0.63541 0.13069 0.88175 0.0
O168 O 0.8846 0.31638 0.72387 0.0
Cd169 Cd 0.84688 0.33391 0.71959 0.0
Cd170 Cd 0.87144 0.35607 0.66734 0.0
O171 O 0.90424 0.33436 0.68435 0.0
O172 O 0.82643 0.31699 0.75282 0.0
O173 O 0.81414 0.3123 0.70599 0.0
C174 C 0.80967 0.30712 0.73362 0.0
C175 C 0.86712 0.35613 0.61556 0.0
C176 C 0.90542 0.31951 0.70747 0.0
C177 C 0.8498 0.39519 0.71389 0.0
O178 O 0.8602 0.39209 0.68831 0.0
O179 O 0.84358 0.3746 0.72964 0.0
O180 O 0.88591 0.36986 0.6289 0.0
O181 O 0.85049 0.34194 0.63167 0.0
O182 O 0.65933 0.8872 0.71469 0.0
Cd183 Cd 0.64009 0.85193 0.70065 0.0
Cd184 Cd 0.62618 0.88554 0.65527 0.0
O185 O 0.65354 0.91211 0.67456 0.0
O186 O 0.65144 0.82607 0.73217 0.0
O187 O 0.66248 0.82044 0.68514 0.0
C188 C 0.66388 0.81206 0.71222 0.0
C189 C 0.63187 0.87367 0.60583 0.0
C190 C 0.66355 0.90913 0.70029 0.0
C191 C 0.5807 0.86564 0.69323 0.0
O192 O 0.5876 0.88343 0.67405 0.0
O193 O 0.59836 0.84965 0.70434 0.0
O194 O 0.62293 0.89752 0.61332 0.0
O195 O 0.63759 0.85629 0.62652 0.0
O196 O 0.09928 0.66827 0.73119 0.0
Cd197 Cd 0.13641 0.64977 0.72615 0.0
Cd198 Cd 0.11221 0.62955 0.674 0.0
O199 O 0.07985 0.65208 0.69071 0.0
O200 O 0.15895 0.6669 0.75757 0.0
O201 O 0.16887 0.67002 0.70988 0.0
C202 C 0.17485 0.67588 0.73703 0.0
C203 C 0.11704 0.62965 0.62225 0.0
C204 C 0.07866 0.66623 0.71431 0.0
C205 C 0.13143 0.58898 0.72043 0.0
O206 O 0.12155 0.59285 0.69472 0.0
O207 O 0.1384 0.60908 0.73653 0.0
O208 O 0.09758 0.61663 0.6353 0.0
O209 O 0.13407 0.64303 0.63864 0.0
O210 O 0.32265 0.10325 0.72094 0.0
Cd211 Cd 0.3436 0.13812 0.70888 0.0
Cd212 Cd 0.35876 0.10492 0.66313 0.0
O213 O 0.33035 0.0786 0.68101 0.0
O214 O 0.33181 0.16346 0.74069 0.0
O215 O 0.32294 0.17083 0.69341 0.0
C216 C 0.32067 0.17846 0.72068 0.0
C217 C 0.35486 0.11667 0.6134 0.0
C218 C 0.31895 0.08151 0.70606 0.0
C219 C 0.403 0.12293 0.70398 0.0
O220 O 0.3967 0.10616 0.68353 0.0
O221 O 0.38513 0.13874 0.71498 0.0
O222 O 0.3633 0.09276 0.62137 0.0
O223 O 0.34879 0.13424 0.63376 0.0
H224 H 0.28849 0.17951 0.22472 0.0
H225 H 0.17045 0.28246 0.27361 0.0
H226 H 0.2675 0.1962 0.31583 0.0
H227 H 0.19889 0.27387 0.18357 0.0
H228 H 0.20086 0.24553 0.28861 0.0
H229 H 0.2508 0.20847 0.20873 0.0
C230 C 0.27579 0.18908 0.24141 0.0
C231 C 0.28133 0.18571 0.27169 0.0
C232 C 0.20031 0.25156 0.26553 0.0
C233 C 0.23819 0.21899 0.25345 0.0
C234 C 0.18294 0.27265 0.25691 0.0
C235 C 0.18239 0.28147 0.22732 0.0
C236 C 0.21731 0.2392 0.24444 0.0
C237 C 0.19883 0.26785 0.20664 0.0
C238 C 0.25428 0.20564 0.23222 0.0
C239 C 0.26406 0.19841 0.29227 0.0
N240 N 0.21582 0.2475 0.21565 0.0
N241 N 0.24337 0.21471 0.28275 0.0
H242 H 0.78746 0.27221 0.32571 0.0
H243 H 0.71095 0.19427 0.19404 0.0
H244 H 0.80845 0.2813 0.23333 0.0
H245 H 0.69165 0.18285 0.28655 0.0
H246 H 0.75018 0.2224 0.20837 0.0
H247 H 0.75557 0.23557 0.3123 0.0
C248 C 0.78556 0.26631 0.30267 0.0
C249 C 0.80033 0.28003 0.28058 0.0
C250 C 0.73749 0.21352 0.22554 0.0
C251 C 0.7639 0.23835 0.26505 0.0
C252 C 0.71512 0.19746 0.21734 0.0
C253 C 0.69785 0.18651 0.23911 0.0
C254 C 0.74248 0.21874 0.25569 0.0
C255 C 0.70428 0.19114 0.269 0.0
C256 C 0.76736 0.24542 0.29501 0.0
C257 C 0.79722 0.27149 0.25108 0.0
N258 N 0.72593 0.20713 0.2764 0.0
N259 N 0.77917 0.25138 0.24415 0.0
H260 H 0.79969 0.69257 0.28364 0.0
H261 H 0.7044 0.81344 0.22556 0.0
H262 H 0.79064 0.71378 0.19131 0.0
H263 H 0.71137 0.79047 0.3176 0.0
H264 H 0.74052 0.78108 0.21334 0.0
H265 H 0.77167 0.73185 0.29699 0.0
C266 C 0.7919 0.70557 0.26614 0.0
C267 C 0.79725 0.69973 0.23627 0.0
C268 C 0.73436 0.78329 0.23626 0.0
C269 C 0.76514 0.74479 0.25146 0.0
C270 C 0.71376 0.8018 0.24328 0.0
C271 C 0.70464 0.80438 0.27262 0.0
C272 C 0.74584 0.76711 0.2587 0.0
C273 C 0.71766 0.78899 0.29468 0.0
C274 C 0.77594 0.72805 0.27382 0.0
C275 C 0.78684 0.71743 0.2146 0.0
N276 N 0.73743 0.77075 0.28721 0.0
N277 N 0.77109 0.73907 0.22262 0.0
H278 H 0.29212 0.80356 0.28825 0.0
H279 H 0.18379 0.69308 0.23183 0.0
H280 H 0.27534 0.78798 0.19589 0.0
H281 H 0.19946 0.70967 0.32421 0.0
H282 H 0.21424 0.73058 0.21834 0.0
H283 H 0.25528 0.77234 0.30181 0.0
C284 C 0.28054 0.79372 0.27078 0.0
C285 C 0.28698 0.79815 0.24087 0.0
C286 C 0.21091 0.72618 0.24157 0.0
C287 C 0.24484 0.76223 0.2563 0.0
C288 C 0.19354 0.70472 0.24932 0.0
C289 C 0.1893 0.69808 0.27922 0.0
C290 C 0.22429 0.74105 0.26386 0.0
C291 C 0.20229 0.71401 0.3009 0.0
C292 C 0.25948 0.77588 0.27857 0.0
C293 C 0.27115 0.78503 0.21922 0.0
N294 N 0.21939 0.73465 0.29277 0.0
N295 N 0.25093 0.76745 0.22737 0.0
H296 H 0.66926 0.78988 0.76731 0.0
H297 H 0.78456 0.68391 0.7179 0.0
H298 H 0.69599 0.77968 0.67684 0.0
H299 H 0.76343 0.7001 0.80907 0.0
H300 H 0.74843 0.71487 0.70204 0.0
H301 H 0.69966 0.75297 0.78233 0.0
C302 C 0.68138 0.77972 0.75053 0.0
C303 C 0.68029 0.78803 0.72078 0.0
C304 C 0.75158 0.71156 0.72551 0.0
C305 C 0.71525 0.74579 0.73793 0.0
C306 C 0.77221 0.69387 0.73462 0.0
C307 C 0.77717 0.68961 0.7649 0.0
C308 C 0.73576 0.72514 0.74681 0.0
C309 C 0.76041 0.70292 0.78552 0.0
C310 C 0.69877 0.75866 0.75916 0.0
C311 C 0.69632 0.77401 0.70002 0.0
N312 N 0.74053 0.72024 0.77609 0.0
N313 N 0.71331 0.75367 0.70904 0.0
H314 H 0.2118 0.69996 0.69945 0.0
H315 H 0.28834 0.78061 0.82973 0.0
H316 H 0.19232 0.69048 0.79217 0.0
H317 H 0.30617 0.79144 0.7368 0.0
H318 H 0.25628 0.74395 0.81683 0.0
H319 H 0.24963 0.73024 0.71306 0.0
C320 C 0.21557 0.70413 0.72265 0.0
C321 C 0.19875 0.69291 0.74468 0.0
C322 C 0.26738 0.75423 0.79929 0.0
C323 C 0.24189 0.7275 0.76044 0.0
C324 C 0.28571 0.7751 0.80667 0.0
C325 C 0.2997 0.78926 0.7843 0.0
C326 C 0.26306 0.74757 0.76935 0.0
C327 C 0.29561 0.78124 0.75476 0.0
C328 C 0.23717 0.7214 0.73043 0.0
C329 C 0.20465 0.69887 0.77443 0.0
N330 N 0.27752 0.76107 0.74814 0.0
N331 N 0.22562 0.71589 0.78142 0.0
H332 H 0.20046 0.30683 0.72581 0.0
H333 H 0.3139 0.1993 0.77617 0.0
H334 H 0.21724 0.2865 0.81709 0.0
H335 H 0.29052 0.21252 0.68507 0.0
H336 H 0.28334 0.23606 0.79121 0.0
H337 H 0.2379 0.27725 0.71045 0.0
C338 C 0.21215 0.29628 0.74267 0.0
C339 C 0.20554 0.29889 0.7728 0.0
C340 C 0.28503 0.23109 0.76791 0.0
C341 C 0.24843 0.26494 0.75527 0.0
C342 C 0.30251 0.21011 0.75926 0.0
C343 C 0.30452 0.20264 0.72932 0.0
C344 C 0.26937 0.2447 0.74648 0.0
C345 C 0.28945 0.2175 0.7084 0.0
C346 C 0.23353 0.27938 0.73385 0.0
C347 C 0.22153 0.28492 0.79363 0.0
N348 N 0.27231 0.23771 0.71742 0.0
N349 N 0.24214 0.26836 0.78445 0.0
H350 H 0.67266 0.19604 0.74112 0.0
H351 H 0.79551 0.29381 0.79024 0.0
H352 H 0.70018 0.20432 0.83154 0.0
H353 H 0.77066 0.28204 0.69936 0.0
H354 H 0.75795 0.2645 0.80627 0.0
H355 H 0.70529 0.23115 0.72616 0.0
C356 C 0.68543 0.20542 0.7579 0.0
C357 C 0.6839 0.19706 0.78761 0.0
C358 C 0.76062 0.2684 0.78283 0.0
C359 C 0.72146 0.2372 0.77053 0.0
C360 C 0.78209 0.28512 0.77362 0.0
C361 C 0.78634 0.2902 0.74336 0.0
C362 C 0.74325 0.25661 0.76164 0.0
C363 C 0.76821 0.27853 0.72289 0.0
C364 C 0.70409 0.22546 0.7493 0.0
C365 C 0.70079 0.21007 0.80839 0.0
N366 N 0.74751 0.26215 0.7324 0.0
N367 N 0.71905 0.22937 0.7994 0.0
H368 H 0.08631 0.33109 0.9372 0.0
H369 H 0.15704 0.40027 0.06867 0.0
H370 H 0.16902 0.35923 0.92428 0.0
H371 H 0.1213 0.32068 0.08372 0.0
H372 H 0.15751 0.39087 0.0152 0.0
H373 H 0.09383 0.33156 0.99103 0.0
C374 C 0.10614 0.33704 0.94576 0.0
C375 C 0.12714 0.34505 0.92649 0.0
C376 C 0.14996 0.37536 0.03031 0.0
C377 C 0.13549 0.34644 0.98757 0.0
C378 C 0.14957 0.38072 0.06066 0.0
C379 C 0.13918 0.36115 0.08043 0.0
C380 C 0.13893 0.35072 0.0197 0.0
C381 C 0.12964 0.33616 0.06908 0.0
C382 C 0.11041 0.3372 0.97632 0.0
C383 C 0.15244 0.35272 0.93854 0.0
N384 N 0.12917 0.33185 0.03929 0.0
N385 N 0.15576 0.35384 0.96845 0.0
H386 H 0.64595 0.08062 0.94689 0.0
H387 H 0.5781 0.15732 0.07555 0.0
H388 H 0.61535 0.16174 0.9292 0.0
H389 H 0.65858 0.12428 0.09027 0.0
H390 H 0.58593 0.15475 0.02185 0.0
H391 H 0.64591 0.09105 1.00013 0.0
C392 C 0.63943 0.10069 0.95428 0.0
C393 C 0.63066 0.12041 0.93382 0.0
C394 C 0.60197 0.14846 0.03691 0.0
C395 C 0.6299 0.13207 0.99429 0.0
C396 C 0.59752 0.14981 0.0674 0.0
C397 C 0.6178 0.14106 0.08716 0.0
C398 C 0.62643 0.13733 0.02624 0.0
C399 C 0.64257 0.1314 0.07563 0.0
C400 C 0.63955 0.10663 0.9845 0.0
C401 C 0.62239 0.1461 0.94438 0.0
N402 N 0.64601 0.1292 0.04581 0.0
N403 N 0.62164 0.15104 0.97405 0.0
H404 H 0.8956 0.59961 0.92956 0.0
H405 H 0.82785 0.6531 0.08022 0.0
H406 H 0.82635 0.65423 0.92999 0.0
H407 H 0.88764 0.58844 0.07449 0.0
H408 H 0.82833 0.65671 0.02587 0.0
H409 H 0.89446 0.59833 0.98327 0.0
C410 C 0.8801 0.6114 0.94096 0.0
C411 C 0.86098 0.627 0.92516 0.0
C412 C 0.8413 0.64176 0.03661 0.0
C413 C 0.85955 0.62562 0.98716 0.0
C414 C 0.84109 0.63974 0.06759 0.0
C415 C 0.85771 0.62042 0.08194 0.0
C416 C 0.8584 0.62448 0.02002 0.0
C417 C 0.87442 0.60359 0.06448 0.0
C418 C 0.87944 0.61062 0.97175 0.0
C419 C 0.84143 0.64187 0.94129 0.0
N420 N 0.87435 0.60606 0.03457 0.0
N421 N 0.84121 0.64083 0.97147 0.0
H422 H 0.40507 0.89076 0.08102 0.0
H423 H 0.33689 0.83824 0.93036 0.0
H424 H 0.337 0.83437 0.08055 0.0
H425 H 0.39016 0.90856 0.93708 0.0
H426 H 0.33882 0.83318 0.98452 0.0
H427 H 0.40222 0.89405 0.0274 0.0
C428 C 0.38949 0.87901 0.06963 0.0
C429 C 0.3712 0.86229 0.08536 0.0
C430 C 0.35002 0.8497 0.97404 0.0
C431 C 0.36786 0.86596 0.02358 0.0
C432 C 0.34901 0.85255 0.94317 0.0
C433 C 0.36339 0.87386 0.92917 0.0
C434 C 0.36575 0.86813 0.99085 0.0
C435 C 0.3787 0.89186 0.94685 0.0
C436 C 0.38783 0.88096 0.03893 0.0
C437 C 0.35144 0.84758 0.06929 0.0
N438 N 0.37952 0.88852 0.97666 0.0
N439 N 0.35032 0.84969 0.0392 0.0
H440 H 0.15316 0.65743 0.58598 0.0
H441 H 0.09676 0.58378 0.43973 0.0
H442 H 0.08638 0.59953 0.58397 0.0
H443 H 0.15348 0.65155 0.43581 0.0
H444 H 0.09544 0.58798 0.49327 0.0
H445 H 0.15612 0.65453 0.53166 0.0
C446 C 0.13915 0.64414 0.57417 0.0
C447 C 0.11949 0.6287 0.58957 0.0
C448 C 0.10818 0.60202 0.48082 0.0
C449 C 0.12284 0.62522 0.5277 0.0
C450 C 0.109 0.59959 0.45014 0.0
C451 C 0.12523 0.61737 0.43317 0.0
C452 C 0.1238 0.62234 0.49495 0.0
C453 C 0.14063 0.63745 0.44803 0.0
C454 C 0.14083 0.64254 0.54321 0.0
C455 C 0.10185 0.61185 0.57314 0.0
N456 N 0.13958 0.63938 0.47814 0.0
N457 N 0.104 0.61054 0.54324 0.0
H458 H 0.36902 0.16449 0.58579 0.0
H459 H 0.31973 0.12341 0.42471 0.0
H460 H 0.33586 0.08404 0.56922 0.0
H461 H 0.40141 0.15415 0.43841 0.0
H462 H 0.3135 0.12122 0.47887 0.0
H463 H 0.36915 0.17322 0.53197 0.0
C464 C 0.36133 0.14892 0.57085 0.0
C465 C 0.35257 0.12348 0.58172 0.0
C466 C 0.33256 0.12885 0.46984 0.0
C467 C 0.35196 0.13356 0.5209 0.0
C468 C 0.33608 0.13021 0.43913 0.0
C469 C 0.36114 0.13884 0.42731 0.0
C470 C 0.35394 0.13707 0.48857 0.0
C471 C 0.38185 0.14722 0.44681 0.0
C472 C 0.3615 0.15387 0.54033 0.0
C473 C 0.34296 0.10384 0.56155 0.0
N474 N 0.37777 0.14626 0.47656 0.0
N475 N 0.34276 0.10933 0.53204 0.0
H476 H 0.88425 0.40534 0.43352 0.0
H477 H 0.83358 0.32596 0.57869 0.0
H478 H 0.83592 0.3314 0.42857 0.0
H479 H 0.8957 0.38888 0.57786 0.0
H480 H 0.83098 0.32894 0.52437 0.0
H481 H 0.88526 0.40114 0.48713 0.0
C482 C 0.8738 0.38817 0.44371 0.0
C483 C 0.86003 0.36865 0.42646 0.0
C484 C 0.84518 0.34201 0.53618 0.0
C485 C 0.86108 0.36371 0.48825 0.0
C486 C 0.84663 0.34037 0.56714 0.0
C487 C 0.86489 0.35719 0.58286 0.0
C488 C 0.86192 0.36078 0.52099 0.0
C489 C 0.88135 0.37546 0.56676 0.0
C490 C 0.87444 0.38575 0.47442 0.0
C491 C 0.84685 0.34687 0.44103 0.0
N492 N 0.8794 0.3768 0.53683 0.0
N493 N 0.84765 0.34499 0.47115 0.0
H494 H 0.61948 0.82517 0.57873 0.0
H495 H 0.6669 0.86754 0.41706 0.0
H496 H 0.65054 0.90634 0.56144 0.0
H497 H 0.5869 0.83293 0.43167 0.0
H498 H 0.67354 0.86997 0.47115 0.0
H499 H 0.61987 0.81596 0.52503 0.0
C500 C 0.62686 0.8408 0.56366 0.0
C501 C 0.63484 0.86658 0.57429 0.0
C502 C 0.65479 0.86143 0.46233 0.0
C503 C 0.636 0.85599 0.5136 0.0
C504 C 0.65105 0.85992 0.43166 0.0
C505 C 0.62629 0.85014 0.42013 0.0
C506 C 0.63398 0.85223 0.4813 0.0
C507 C 0.6062 0.84075 0.43985 0.0
C508 C 0.62698 0.83558 0.53321 0.0
C509 C 0.64405 0.88628 0.55397 0.0
N510 N 0.61051 0.84191 0.46956 0.0
N511 N 0.64451 0.88055 0.52452 0.0
H512 H 0.16323 0.52703 0.33646 0.0
H513 H 0.1826 0.45132 0.18473 0.0
H514 H 0.18986 0.56795 0.25667 0.0
H515 H 0.17455 0.40861 0.26804 0.0
H516 H 0.19256 0.49344 0.21174 0.0
H517 H 0.17432 0.48308 0.31372 0.0
C518 C 0.17188 0.52683 0.31437 0.0
C519 C 0.175 0.55119 0.2982 0.0
C520 C 0.18915 0.47475 0.22414 0.0
C521 C 0.1874 0.50093 0.27189 0.0
C522 C 0.18344 0.45067 0.20869 0.0
C523 C 0.17712 0.42654 0.22415 0.0
C524 C 0.18807 0.47478 0.25525 0.0
C525 C 0.17889 0.42684 0.2552 0.0
C526 C 0.17824 0.5017 0.30139 0.0
C527 C 0.18665 0.54968 0.26981 0.0
N528 N 0.18361 0.45073 0.26975 0.0
N529 N 0.19189 0.52495 0.25734 0.0
H530 H 0.56953 0.19993 0.26611 0.0
H531 H 0.40824 0.19767 0.24841 0.0
H532 H 0.52691 0.18589 0.18371 0.0
H533 H 0.4513 0.18363 0.33051 0.0
H534 H 0.45123 0.21136 0.2253 0.0
H535 H 0.52622 0.21211 0.28935 0.0
C536 C 0.5512 0.20006 0.25266 0.0
C537 C 0.55171 0.19105 0.22311 0.0
C538 C 0.45111 0.20587 0.24855 0.0
C539 C 0.5022 0.20497 0.24968 0.0
C540 C 0.42659 0.19808 0.26183 0.0
C541 C 0.42631 0.1887 0.29125 0.0
C542 C 0.47546 0.20439 0.26484 0.0
C543 C 0.45067 0.19009 0.30759 0.0
C544 C 0.52649 0.20698 0.26602 0.0
C545 C 0.52737 0.19208 0.20673 0.0
N546 N 0.47438 0.19729 0.294 0.0
N547 N 0.50348 0.19838 0.2204 0.0
H548 H 0.81969 0.52863 0.17561 0.0
H549 H 0.80612 0.44963 0.32509 0.0
H550 H 0.79326 0.56748 0.25659 0.0
H551 H 0.80825 0.40845 0.24052 0.0
H552 H 0.79464 0.49225 0.29979 0.0
H553 H 0.80897 0.48407 0.19728 0.0
C554 C 0.81113 0.52785 0.19772 0.0
C555 C 0.80802 0.55179 0.21456 0.0
C556 C 0.79704 0.47378 0.28679 0.0
C557 C 0.79608 0.50085 0.23964 0.0
C558 C 0.80365 0.44944 0.30125 0.0
C559 C 0.80874 0.4256 0.28484 0.0
C560 C 0.79609 0.47439 0.25568 0.0
C561 C 0.80488 0.42644 0.25403 0.0
C562 C 0.80496 0.50237 0.21009 0.0
C563 C 0.79647 0.54954 0.24295 0.0
N564 N 0.7994 0.4506 0.24037 0.0
N565 N 0.79149 0.52448 0.25484 0.0
H566 H 0.57663 0.79823 0.23808 0.0
H567 H 0.41602 0.79188 0.26173 0.0
H568 H 0.53636 0.80379 0.32299 0.0
H569 H 0.45563 0.81331 0.17939 0.0
H570 H 0.46029 0.77885 0.28213 0.0
H571 H 0.53299 0.78618 0.21534 0.0
C572 C 0.55877 0.79627 0.25211 0.0
C573 C 0.55998 0.80282 0.28238 0.0
C574 C 0.45917 0.78585 0.2594 0.0
C575 C 0.5101 0.78908 0.2564 0.0
C576 C 0.4339 0.79328 0.24767 0.0
C577 C 0.43223 0.80446 0.21905 0.0
C578 C 0.48285 0.78955 0.24236 0.0
C579 C 0.45605 0.80538 0.20178 0.0
C580 C 0.53387 0.78944 0.23905 0.0
C581 C 0.53625 0.79953 0.29946 0.0
N582 N 0.48049 0.79848 0.21389 0.0
N583 N 0.51214 0.79335 0.28613 0.0
H584 H 0.83002 0.56954 0.73957 0.0
H585 H 0.84029 0.4093 0.77151 0.0
H586 H 0.85066 0.53668 0.82552 0.0
H587 H 0.85068 0.44432 0.68437 0.0
H588 H 0.83611 0.45541 0.79199 0.0
H589 H 0.82938 0.52311 0.71956 0.0
C590 C 0.83417 0.55256 0.75433 0.0
C591 C 0.84053 0.55702 0.78429 0.0
C592 C 0.83922 0.45296 0.76839 0.0
C593 C 0.83977 0.50387 0.76141 0.0
C594 C 0.84149 0.42667 0.75663 0.0
C595 C 0.84594 0.42296 0.72616 0.0
C596 C 0.84104 0.4757 0.74952 0.0
C597 C 0.84741 0.44624 0.70799 0.0
C598 C 0.83394 0.52609 0.74281 0.0
C599 C 0.8458 0.53419 0.80229 0.0
N600 N 0.84492 0.47165 0.71996 0.0
N601 N 0.8453 0.50856 0.79056 0.0
H602 H 0.553 0.82106 0.7135 0.0
H603 H 0.44051 0.90626 0.79833 0.0
H604 H 0.54537 0.90833 0.70109 0.0
H605 H 0.42463 0.82389 0.76808 0.0
H606 H 0.48309 0.9065 0.76958 0.0
H607 H 0.50903 0.82072 0.73943 0.0
C608 C 0.54186 0.84008 0.71594 0.0
C609 C 0.55266 0.86475 0.70506 0.0
C610 C 0.47023 0.88841 0.76935 0.0
C611 C 0.503 0.8646 0.73538 0.0
C612 C 0.44616 0.88813 0.78595 0.0
C613 C 0.42912 0.86499 0.78559 0.0
C614 C 0.47752 0.86518 0.75286 0.0
C615 C 0.43721 0.84215 0.7689 0.0
C616 C 0.51688 0.83987 0.73074 0.0
C617 C 0.53755 0.88886 0.70891 0.0
N618 N 0.46096 0.84274 0.75335 0.0
N619 N 0.5136 0.88828 0.72419 0.0
H620 H 0.12083 0.44676 0.83377 0.0
H621 H 0.13011 0.54046 0.69 0.0
H622 H 0.14736 0.41616 0.74878 0.0
H623 H 0.1372 0.57371 0.7783 0.0
H624 H 0.13168 0.49424 0.71094 0.0
H625 H 0.12207 0.49345 0.81364 0.0
C626 C 0.12699 0.44986 0.81097 0.0
C627 C 0.13402 0.42755 0.79294 0.0
C628 C 0.13305 0.51169 0.72567 0.0
C629 C 0.13514 0.48062 0.76981 0.0
C630 C 0.13208 0.53804 0.71376 0.0
C631 C 0.13358 0.56093 0.73243 0.0
C632 C 0.13504 0.50826 0.75649 0.0
C633 C 0.13614 0.55661 0.76307 0.0
C634 C 0.12776 0.47645 0.79954 0.0
C635 C 0.14188 0.43273 0.76354 0.0
N636 N 0.13656 0.53076 0.77419 0.0
N637 N 0.14201 0.45869 0.75283 0.0
H638 H 0.43898 0.08017 0.70819 0.0
H639 H 0.55605 0.16579 0.78744 0.0
H640 H 0.42919 0.1655 0.73062 0.0
H641 H 0.54467 0.07958 0.80472 0.0
H642 H 0.51299 0.16622 0.75992 0.0
H643 H 0.48218 0.07966 0.73599 0.0
C644 C 0.44615 0.09887 0.71854 0.0
C645 C 0.43058 0.12293 0.71713 0.0
C646 C 0.51983 0.14727 0.76993 0.0
C647 C 0.47959 0.12244 0.7488 0.0
C648 C 0.54431 0.14701 0.78566 0.0
C649 C 0.55378 0.12264 0.79848 0.0
C650 C 0.50504 0.12285 0.76639 0.0
C651 C 0.53788 0.09885 0.79543 0.0
C652 C 0.47055 0.09847 0.73463 0.0
C653 C 0.44057 0.14652 0.73124 0.0
N654 N 0.51438 0.09945 0.77934 0.0
N655 N 0.46451 0.14572 0.74639 0.0
H656 H 0.67427 0.02678 0.83413 0.0
H657 H 0.67719 0.95902 0.6765 0.0
H658 H 0.68258 0.07262 0.75281 0.0
H659 H 0.67992 0.91299 0.75813 0.0
H660 H 0.68914 0.00036 0.70395 0.0
H661 H 0.68629 0.9851 0.80741 0.0
C662 C 0.67914 0.02819 0.81078 0.0
C663 C 0.67667 0.05311 0.79552 0.0
C664 C 0.68765 0.98113 0.7158 0.0
C665 C 0.69006 0.00541 0.7647 0.0
C666 C 0.68081 0.95749 0.70011 0.0
C667 C 0.6768 0.93264 0.71515 0.0
C668 C 0.6901 0.97997 0.74679 0.0
C669 C 0.68224 0.9318 0.74568 0.0
C670 C 0.68602 0.00435 0.7955 0.0
C671 C 0.68368 0.05377 0.76537 0.0
N672 N 0.68803 0.95525 0.7606 0.0
N673 N 0.68947 0.03016 0.75081 0.0
H674 H 0.94397 0.67043 0.82842 0.0
H675 H 0.03069 0.66978 0.68311 0.0
H676 H 0.90769 0.68129 0.74204 0.0
H677 H 0.06598 0.68722 0.76874 0.0
H678 H 0.98541 0.67878 0.70359 0.0
H679 H 0.98863 0.68126 0.80726 0.0
C680 C 0.94532 0.67554 0.80511 0.0
C681 C 0.92215 0.67444 0.78687 0.0
C682 C 0.00312 0.68118 0.71775 0.0
C683 C 0.9732 0.68646 0.76243 0.0
C684 C 0.02898 0.676 0.70606 0.0
C685 C 0.05211 0.67719 0.72438 0.0
C686 C 0.00036 0.6871 0.74806 0.0
C687 C 0.04869 0.68567 0.75388 0.0
C688 C 0.97082 0.6818 0.79304 0.0
C689 C 0.92505 0.68157 0.75689 0.0
N690 N 0.02324 0.68973 0.76497 0.0
N691 N 0.95021 0.68672 0.74547 0.0
H692 H 0.29943 0.07737 0.76274 0.0
H693 H 0.29654 0.91531 0.751 0.0
H694 H 0.30646 0.03182 0.68113 0.0
H695 H 0.31202 0.96064 0.83143 0.0
H696 H 0.28326 0.95787 0.72663 0.0
H697 H 0.28702 0.03512 0.78839 0.0
C698 C 0.29775 0.05863 0.75003 0.0
C699 C 0.30481 0.05797 0.71989 0.0
C700 C 0.28901 0.95838 0.74979 0.0
C701 C 0.29072 0.00964 0.74919 0.0
C702 C 0.29656 0.93408 0.76378 0.0
C703 C 0.3062 0.93454 0.79308 0.0
C704 C 0.29108 0.98324 0.76523 0.0
C705 C 0.30536 0.95942 0.8086 0.0
C706 C 0.2907 0.03451 0.76474 0.0
C707 C 0.30182 0.03316 0.70452 0.0
N708 N 0.29844 0.98288 0.79432 0.0
N709 N 0.29549 0.00986 0.71947 0.0
H710 H 0.07818 0.29609 0.74432 0.0
H711 H 0.95424 0.31942 0.67761 0.0
H712 H 0.03302 0.31488 0.82393 0.0
H713 H 0.91736 0.29525 0.76052 0.0
H714 H -0.00091 0.30962 0.69838 0.0
H715 H 0.0352 0.2864 0.71899 0.0
C716 C 0.05926 0.29786 0.75662 0.0
C717 C 0.05917 0.30706 0.78611 0.0
C718 C 0.9812 0.30556 0.71176 0.0
C719 C 0.00991 0.29668 0.75697 0.0
C720 C 0.95552 0.3114 0.69994 0.0
C721 C 0.93202 0.30854 0.71746 0.0
C722 C 0.98336 0.297 0.74141 0.0
C723 C 0.93493 0.29801 0.74625 0.0
C724 C 0.0347 0.2926 0.742 0.0
C725 C 0.03406 0.30841 0.80103 0.0
N726 N 0.96019 0.29321 0.75754 0.0
N727 N 0.0104 0.30364 0.78616 0.0
H728 H 0.35047 0.07422 0.24444 0.0
H729 H 0.35322 0.914 0.2751 0.0
H730 H 0.37071 0.04094 0.33029 0.0
H731 H 0.36663 0.94872 0.18832 0.0
H732 H 0.35366 0.96016 0.29614 0.0
H733 H 0.35043 0.02801 0.22399 0.0
C734 C 0.35482 0.05717 0.25905 0.0
C735 C 0.36056 0.06143 0.28917 0.0
C736 C 0.35653 0.95761 0.27252 0.0
C737 C 0.36039 0.00846 0.2658 0.0
C738 C 0.35611 0.93133 0.26044 0.0
C739 C 0.35985 0.92752 0.22987 0.0
C740 C 0.36027 0.98027 0.25385 0.0
C741 C 0.36372 0.95071 0.21199 0.0
C742 C 0.35493 0.03082 0.24728 0.0
C743 C 0.36625 0.03856 0.30695 0.0
N744 N 0.36367 0.97613 0.22424 0.0
N745 N 0.36584 0.01297 0.29502 0.0
H746 H 0.9268 0.31263 0.27183 0.0
H747 H 0.04731 0.40138 0.20288 0.0
H748 H 0.93994 0.39708 0.29632 0.0
H749 H 0.05546 0.31465 0.21899 0.0
H750 H 0.00295 0.40048 0.22837 0.0
H751 H 0.9701 0.31324 0.24464 0.0
C752 C 0.93893 0.33122 0.27166 0.0
C753 C 0.92994 0.3548 0.28646 0.0
C754 C 0.01444 0.38166 0.22606 0.0
C755 C 0.97888 0.35583 0.25481 0.0
C756 C 0.0395 0.38209 0.21126 0.0
C757 C 0.05497 0.35805 0.2089 0.0
C758 C 0.00468 0.35693 0.23794 0.0
C759 C 0.04416 0.33364 0.22046 0.0
C760 C 0.96353 0.33156 0.25613 0.0
C761 C 0.94634 0.3784 0.28546 0.0
N762 N 0.01961 0.33368 0.23444 0.0
N763 N 0.96995 0.37842 0.26959 0.0
H764 H 0.60998 0.94861 0.32625 0.0
H765 H 0.60858 0.04383 0.18261 0.0
H766 H 0.63283 0.91931 0.23951 0.0
H767 H 0.62217 0.07573 0.27057 0.0
H768 H 0.60937 -0.00276 0.20303 0.0
H769 H 0.60658 -0.00488 0.30595 0.0
C770 C 0.61426 0.95196 0.30299 0.0
C771 C 0.62189 0.93013 0.28459 0.0
C772 C 0.61214 0.01452 0.21778 0.0
C773 C 0.61761 0.98293 0.26125 0.0
C774 C 0.61158 0.04104 0.20618 0.0
C775 C 0.61552 0.06362 0.2249 0.0
C776 C 0.61614 0.01068 0.24832 0.0
C777 C 0.61933 0.05887 0.25531 0.0
C778 C 0.61236 0.97844 0.29146 0.0
C779 C 0.62715 0.93558 0.25457 0.0
N780 N 0.61946 0.03292 0.2661 0.0
N781 N 0.62478 0.96142 0.2438 0.0
H782 H 0.07228 0.64145 0.24525 0.0
H783 H 0.91124 0.63788 0.27132 0.0
H784 H 0.03585 0.6232 0.33014 0.0
H785 H 0.9481 0.62616 0.18535 0.0
H786 H 0.95674 0.63961 0.2934 0.0
H787 H 0.02672 0.64306 0.22329 0.0
C788 C 0.0547 0.63798 0.25935 0.0
C789 C 0.05789 0.63211 0.28961 0.0
C790 C 0.95485 0.63671 0.26971 0.0
C791 C 0.00573 0.634 0.26452 0.0
C792 C 0.9289 0.63584 0.25703 0.0
C793 C 0.92586 0.6318 0.2264 0.0
C794 C 0.97795 0.63388 0.25163 0.0
C795 C 0.9495 0.62919 0.20905 0.0
C796 C 0.02873 0.63877 0.24673 0.0
C797 C 0.03435 0.62768 0.30672 0.0
N798 N 0.97459 0.63034 0.22191 0.0
N799 N 0.00923 0.62877 0.29393 0.0
loop_
_geom_bond_atom_site_label_1
_geom_bond_atom_site_label_2
_geom_bond_distance
_geom_bond_site_symmetry_2
_ccdc_geom_bond_type
O0 Cd1 2.223 . S
O0 C8 1.315 . S
Cd1 O0 2.223 . S
Cd1 O4 2.297 . S
Cd1 O5 2.439 . S
Cd1 O11 2.240 . S
Cd2 O3 2.240 . S
Cd2 O10 2.223 . S
Cd2 O12 2.297 . S
Cd2 O13 2.439 . S
O3 Cd2 2.240 . S
O3 C8 1.279 . S
O4 Cd1 2.297 . S
O4 C6 1.247 . S
O5 Cd1 2.439 . S
O5 C6 1.208 . S
C6 O4 1.247 . S
C6 O5 1.208 . S
C7 O12 1.247 . S
C7 O13 1.208 . S
C8 O0 1.315 . S
C8 O3 1.279 . S
C9 O10 1.315 . S
C9 O11 1.279 . S
O10 Cd2 2.223 . S
O10 C9 1.315 . S
O11 Cd1 2.240 . S
O11 C9 1.279 . S
O12 Cd2 2.297 . S
O12 C7 1.247 . S
O13 Cd2 2.439 . S
O13 C7 1.208 . S
O14 Cd15 2.223 . S
O14 C22 1.315 . S
Cd15 O14 2.223 . S
Cd15 O18 2.297 . S
Cd15 O19 2.439 . S
Cd15 O25 2.240 . S
Cd16 O17 2.240 . S
Cd16 O24 2.223 . S
Cd16 O26 2.297 . S
Cd16 O27 2.439 . S
O17 Cd16 2.240 . S
O17 C22 1.279 . S
O18 Cd15 2.297 . S
O18 C20 1.247 . S
O19 Cd15 2.439 . S
O19 C20 1.208 . S
C20 O18 1.247 . S
C20 O19 1.208 . S
C21 O26 1.247 . S
C21 O27 1.208 . S
C22 O14 1.315 . S
C22 O17 1.279 . S
C23 O24 1.315 . S
C23 O25 1.279 . S
O24 Cd16 2.223 . S
O24 C23 1.315 . S
O25 Cd15 2.240 . S
O25 C23 1.279 . S
O26 Cd16 2.297 . S
O26 C21 1.247 . S
O27 Cd16 2.439 . S
O27 C21 1.208 . S
O28 Cd29 2.223 . S
O28 C36 1.315 . S
Cd29 O28 2.223 . S
Cd29 O32 2.297 . S
Cd29 O33 2.439 . S
Cd29 O39 2.240 . S
Cd30 O31 2.240 . S
Cd30 O38 2.223 . S
Cd30 O40 2.297 . S
Cd30 O41 2.439 . S
O31 Cd30 2.240 . S
O31 C36 1.279 . S
O32 Cd29 2.297 . S
O32 C34 1.247 . S
O33 Cd29 2.439 . S
O33 C34 1.208 . S
C34 O32 1.247 . S
C34 O33 1.208 . S
C35 O40 1.247 . S
C35 O41 1.208 . S
C36 O28 1.315 . S
C36 O31 1.279 . S
C37 O38 1.315 . S
C37 O39 1.279 . S
O38 Cd30 2.223 . S
O38 C37 1.315 . S
O39 Cd29 2.240 . S
O39 C37 1.279 . S
O40 Cd30 2.297 . S
O40 C35 1.247 . S
O41 Cd30 2.439 . S
O41 C35 1.208 . S
O42 Cd43 2.223 . S
O42 C50 1.315 . S
Cd43 O42 2.223 . S
Cd43 O46 2.297 . S
Cd43 O47 2.439 . S
Cd43 O53 2.240 . S
Cd44 O45 2.240 . S
Cd44 O52 2.223 . S
Cd44 O54 2.297 . S
Cd44 O55 2.439 . S
O45 Cd44 2.240 . S
O45 C50 1.279 . S
O46 Cd43 2.297 . S
O46 C48 1.247 . S
O47 Cd43 2.439 . S
O47 C48 1.208 . S
C48 O46 1.247 . S
C48 O47 1.208 . S
C49 O54 1.247 . S
C49 O55 1.208 . S
C50 O42 1.315 . S
C50 O45 1.279 . S
C51 O52 1.315 . S
C51 O53 1.279 . S
O52 Cd44 2.223 . S
O52 C51 1.315 . S
O53 Cd43 2.240 . S
O53 C51 1.279 . S
O54 Cd44 2.297 . S
O54 C49 1.247 . S
O55 Cd44 2.439 . S
O55 C49 1.208 . S
O56 Cd57 2.223 . S
O56 C64 1.315 . S
Cd57 O56 2.223 . S
Cd57 O60 2.297 . S
Cd57 O61 2.439 . S
Cd57 O67 2.240 . S
Cd58 O59 2.240 . S
Cd58 O66 2.223 . S
Cd58 O68 2.297 . S
Cd58 O69 2.439 . S
O59 Cd58 2.240 . S
O59 C64 1.279 . S
O60 Cd57 2.297 . S
O60 C62 1.247 . S
O61 Cd57 2.439 . S
O61 C62 1.208 . S
C62 O60 1.247 . S
C62 O61 1.208 . S
C63 O68 1.247 . S
C63 O69 1.208 . S
C64 O56 1.315 . S
C64 O59 1.279 . S
C65 O66 1.315 . S
C65 O67 1.279 . S
O66 Cd58 2.223 . S
O66 C65 1.315 . S
O67 Cd57 2.240 . S
O67 C65 1.279 . S
O68 Cd58 2.297 . S
O68 C63 1.247 . S
O69 Cd58 2.439 . S
O69 C63 1.208 . S
O70 Cd71 2.223 . S
O70 C78 1.315 . S
Cd71 O70 2.223 . S
Cd71 O74 2.297 . S
Cd71 O75 2.439 . S
Cd71 O81 2.240 . S
Cd72 O73 2.240 . S
Cd72 O80 2.223 . S
Cd72 O82 2.297 . S
Cd72 O83 2.439 . S
O73 Cd72 2.240 . S
O73 C78 1.279 . S
O74 Cd71 2.297 . S
O74 C76 1.247 . S
O75 Cd71 2.439 . S
O75 C76 1.208 . S
C76 O74 1.247 . S
C76 O75 1.208 . S
C77 O82 1.247 . S
C77 O83 1.208 . S
C78 O70 1.315 . S
C78 O73 1.279 . S
C79 O80 1.315 . S
C79 O81 1.279 . S
O80 Cd72 2.223 . S
O80 C79 1.315 . S
O81 Cd71 2.240 . S
O81 C79 1.279 . S
O82 Cd72 2.297 . S
O82 C77 1.247 . S
O83 Cd72 2.439 . S
O83 C77 1.208 . S
O84 Cd85 2.223 . S
O84 C92 1.315 . S
Cd85 O84 2.223 . S
Cd85 O88 2.297 . S
Cd85 O89 2.439 . S
Cd85 O95 2.240 . S
Cd86 O87 2.240 . S
Cd86 O94 2.223 . S
Cd86 O96 2.297 . S
Cd86 O97 2.439 . S
O87 Cd86 2.240 . S
O87 C92 1.279 . S
O88 Cd85 2.297 . S
O88 C90 1.247 . S
O89 Cd85 2.439 . S
O89 C90 1.208 . S
C90 O88 1.247 . S
C90 O89 1.208 . S
C91 O96 1.247 . S
C91 O97 1.208 . S
C92 O84 1.315 . S
C92 O87 1.279 . S
C93 O94 1.315 . S
C93 O95 1.279 . S
O94 Cd86 2.223 . S
O94 C93 1.315 . S
O95 Cd85 2.240 . S
O95 C93 1.279 . S
O96 Cd86 2.297 . S
O96 C91 1.247 . S
O97 Cd86 2.439 . S
O97 C91 1.208 . S
O98 Cd99 2.223 . S
O98 C106 1.315 . S
Cd99 O98 2.223 . S
Cd99 O102 2.297 . S
Cd99 O103 2.439 . S
Cd99 O109 2.240 . S
Cd100 O101 2.240 . S
Cd100 O108 2.223 . S
Cd100 O110 2.297 . S
Cd100 O111 2.439 . S
O101 Cd100 2.240 . S
O101 C106 1.279 . S
O102 Cd99 2.297 . S
O102 C104 1.247 . S
O103 Cd99 2.439 . S
O103 C104 1.208 . S
C104 O102 1.247 . S
C104 O103 1.208 . S
C105 O110 1.247 . S
C105 O111 1.208 . S
C106 O98 1.315 . S
C106 O101 1.279 . S
C107 O108 1.315 . S
C107 O109 1.279 . S
O108 Cd100 2.223 . S
O108 C107 1.315 . S
O109 Cd99 2.240 . S
O109 C107 1.279 . S
O110 Cd100 2.297 . S
O110 C105 1.247 . S
O111 Cd100 2.439 . S
O111 C105 1.208 . S
O112 Cd113 2.223 . S
O112 C120 1.315 . S
Cd113 O112 2.223 . S
Cd113 O116 2.297 . S
Cd113 O117 2.439 . S
Cd113 O123 2.240 . S
Cd114 O115 2.240 . S
Cd114 O122 2.223 . S
Cd114 O124 2.297 . S
Cd114 O125 2.439 . S
O115 Cd114 2.240 . S
O115 C120 1.279 . S
O116 Cd113 2.297 . S
O116 C118 1.247 . S
O117 Cd113 2.439 . S
O117 C118 1.208 . S
C118 O116 1.247 . S
C118 O117 1.208 . S
C119 O124 1.247 . S
C119 O125 1.208 . S
C120 O112 1.315 . S
C120 O115 1.279 . S
C121 O122 1.315 . S
C121 O123 1.279 . S
O122 Cd114 2.223 . S
O122 C121 1.315 . S
O123 Cd113 2.240 . S
O123 C121 1.279 . S
O124 Cd114 2.297 . S
O124 C119 1.247 . S
O125 Cd114 2.439 . S
O125 C119 1.208 . S
O126 Cd127 2.223 . S
O126 C134 1.315 . S
Cd127 O126 2.223 . S
Cd127 O130 2.297 . S
Cd127 O131 2.439 . S
Cd127 O137 2.240 . S
Cd128 O129 2.240 . S
Cd128 O136 2.223 . S
Cd128 O138 2.297 . S
Cd128 O139 2.439 . S
O129 Cd128 2.240 . S
O129 C134 1.279 . S
O130 Cd127 2.297 . S
O130 C132 1.247 . S
O131 Cd127 2.439 . S
O131 C132 1.208 . S
C132 O130 1.247 . S
C132 O131 1.208 . S
C133 O138 1.247 . S
C133 O139 1.208 . S
C134 O126 1.315 . S
C134 O129 1.279 . S
C135 O136 1.315 . S
C135 O137 1.279 . S
O136 Cd128 2.223 . S
O136 C135 1.315 . S
O137 Cd127 2.240 . S
O137 C135 1.279 . S
O138 Cd128 2.297 . S
O138 C133 1.247 . S
O139 Cd128 2.439 . S
O139 C133 1.208 . S
O140 Cd141 2.223 . S
O140 C148 1.315 . S
Cd141 O140 2.223 . S
Cd141 O144 2.297 . S
Cd141 O145 2.439 . S
Cd141 O151 2.240 . S
Cd142 O143 2.240 . S
Cd142 O150 2.223 . S
Cd142 O152 2.297 . S
Cd142 O153 2.439 . S
O143 Cd142 2.240 . S
O143 C148 1.279 . S
O144 Cd141 2.297 . S
O144 C146 1.247 . S
O145 Cd141 2.439 . S
O145 C146 1.208 . S
C146 O144 1.247 . S
C146 O145 1.208 . S
C147 O152 1.247 . S
C147 O153 1.208 . S
C148 O140 1.315 . S
C148 O143 1.279 . S
C149 O150 1.315 . S
C149 O151 1.279 . S
O150 Cd142 2.223 . S
O150 C149 1.315 . S
O151 Cd141 2.240 . S
O151 C149 1.279 . S
O152 Cd142 2.297 . S
O152 C147 1.247 . S
O153 Cd142 2.439 . S
O153 C147 1.208 . S
O154 Cd155 2.223 . S
O154 C162 1.315 . S
Cd155 O154 2.223 . S
Cd155 O158 2.297 . S
Cd155 O159 2.439 . S
Cd155 O165 2.240 . S
Cd156 O157 2.240 . S
Cd156 O164 2.223 . S
Cd156 O166 2.297 . S
Cd156 O167 2.439 . S
O157 Cd156 2.240 . S
O157 C162 1.279 . S
O158 Cd155 2.297 . S
O158 C160 1.247 . S
O159 Cd155 2.439 . S
O159 C160 1.208 . S
C160 O158 1.247 . S
C160 O159 1.208 . S
C161 O166 1.247 . S
C161 O167 1.208 . S
C162 O154 1.315 . S
C162 O157 1.279 . S
C163 O164 1.315 . S
C163 O165 1.279 . S
O164 Cd156 2.223 . S
O164 C163 1.315 . S
O165 Cd155 2.240 . S
O165 C163 1.279 . S
O166 Cd156 2.297 . S
O166 C161 1.247 . S
O167 Cd156 2.439 . S
O167 C161 1.208 . S
O168 Cd169 2.223 . S
O168 C176 1.315 . S
Cd169 O168 2.223 . S
Cd169 O172 2.297 . S
Cd169 O173 2.439 . S
Cd169 O179 2.240 . S
Cd170 O171 2.240 . S
Cd170 O178 2.223 . S
Cd170 O180 2.297 . S
Cd170 O181 2.439 . S
O171 Cd170 2.240 . S
O171 C176 1.279 . S
O172 Cd169 2.297 . S
O172 C174 1.247 . S
O173 Cd169 2.439 . S
O173 C174 1.208 . S
C174 O172 1.247 . S
C174 O173 1.208 . S
C175 O180 1.247 . S
C175 O181 1.208 . S
C176 O168 1.315 . S
C176 O171 1.279 . S
C177 O178 1.315 . S
C177 O179 1.279 . S
O178 Cd170 2.223 . S
O178 C177 1.315 . S
O179 Cd169 2.240 . S
O179 C177 1.279 . S
O180 Cd170 2.297 . S
O180 C175 1.247 . S
O181 Cd170 2.439 . S
O181 C175 1.208 . S
O182 Cd183 2.223 . S
O182 C190 1.315 . S
Cd183 O182 2.223 . S
Cd183 O186 2.297 . S
Cd183 O187 2.439 . S
Cd183 O193 2.240 . S
Cd184 O185 2.240 . S
Cd184 O192 2.223 . S
Cd184 O194 2.297 . S
Cd184 O195 2.439 . S
O185 Cd184 2.240 . S
O185 C190 1.279 . S
O186 Cd183 2.297 . S
O186 C188 1.247 . S
O187 Cd183 2.439 . S
O187 C188 1.208 . S
C188 O186 1.247 . S
C188 O187 1.208 . S
C189 O194 1.247 . S
C189 O195 1.208 . S
C190 O182 1.315 . S
C190 O185 1.279 . S
C191 O192 1.315 . S
C191 O193 1.279 . S
O192 Cd184 2.223 . S
O192 C191 1.315 . S
O193 Cd183 2.240 . S
O193 C191 1.279 . S
O194 Cd184 2.297 . S
O194 C189 1.247 . S
O195 Cd184 2.439 . S
O195 C189 1.208 . S
O196 Cd197 2.223 . S
O196 C204 1.315 . S
Cd197 O196 2.223 . S
Cd197 O200 2.297 . S
Cd197 O201 2.439 . S
Cd197 O207 2.240 . S
Cd198 O199 2.240 . S
Cd198 O206 2.223 . S
Cd198 O208 2.297 . S
Cd198 O209 2.439 . S
O199 Cd198 2.240 . S
O199 C204 1.279 . S
O200 Cd197 2.297 . S
O200 C202 1.247 . S
O201 Cd197 2.439 . S
O201 C202 1.208 . S
C202 O200 1.247 . S
C202 O201 1.208 . S
C203 O208 1.247 . S
C203 O209 1.208 . S
C204 O196 1.315 . S
C204 O199 1.279 . S
C205 O206 1.315 . S
C205 O207 1.279 . S
O206 Cd198 2.223 . S
O206 C205 1.315 . S
O207 Cd197 2.240 . S
O207 C205 1.279 . S
O208 Cd198 2.297 . S
O208 C203 1.247 . S
O209 Cd198 2.439 . S
O209 C203 1.208 . S
O210 Cd211 2.223 . S
O210 C218 1.315 . S
Cd211 O210 2.223 . S
Cd211 O214 2.297 . S
Cd211 O215 2.439 . S
Cd211 O221 2.240 . S
Cd212 O213 2.240 . S
Cd212 O220 2.223 . S
Cd212 O222 2.297 . S
Cd212 O223 2.439 . S
O213 Cd212 2.240 . S
O213 C218 1.279 . S
O214 Cd211 2.297 . S
O214 C216 1.247 . S
O215 Cd211 2.439 . S
O215 C216 1.208 . S
C216 O214 1.247 . S
C216 O215 1.208 . S
C217 O222 1.247 . S
C217 O223 1.208 . S
C218 O210 1.315 . S
C218 O213 1.279 . S
C219 O220 1.315 . S
C219 O221 1.279 . S
O220 Cd212 2.223 . S
O220 C219 1.315 . S
O221 Cd211 2.240 . S
O221 C219 1.279 . S
O222 Cd212 2.297 . S
O222 C217 1.247 . S
O223 Cd212 2.439 . S
O223 C217 1.208 . S
H224 C230 0.930 . S
H225 C234 0.930 . S
H226 C239 0.929 . S
H227 C237 0.929 . S
H228 C232 0.929 . S
H229 C238 0.929 . S
C230 H224 0.930 . S
C230 C231 1.367 . S
C230 C238 1.378 . S
C231 C230 1.367 . S
C231 C239 1.433 . S
C232 H228 0.929 . S
C232 C234 1.378 . S
C232 C236 1.350 . S
C233 C236 1.463 . S
C233 C238 1.350 . S
C233 N241 1.427 . S
C234 H225 0.930 . S
C234 C232 1.378 . S
C234 C235 1.367 . S
C235 C234 1.367 . S
C235 C237 1.433 . S
C236 C232 1.350 . S
C236 C233 1.463 . S
C236 N240 1.427 . S
C237 H227 0.929 . S
C237 C235 1.433 . S
C237 N240 1.384 . S
C238 H229 0.929 . S
C238 C230 1.378 . S
C238 C233 1.350 . S
C239 H226 0.929 . S
C239 C231 1.433 . S
C239 N241 1.384 . S
N240 C236 1.427 . S
N240 C237 1.384 . S
N241 C233 1.427 . S
N241 C239 1.384 . S
H242 C248 0.930 . S
H243 C252 0.930 . S
H244 C257 0.929 . S
H245 C255 0.929 . S
H246 C250 0.929 . S
H247 C256 0.929 . S
C248 H242 0.930 . S
C248 C249 1.367 . S
C248 C256 1.378 . S
C249 C248 1.367 . S
C249 C257 1.433 . S
C250 H246 0.929 . S
C250 C252 1.378 . S
C250 C254 1.350 . S
C251 C254 1.463 . S
C251 C256 1.350 . S
C251 N259 1.427 . S
C252 H243 0.930 . S
C252 C250 1.378 . S
C252 C253 1.367 . S
C253 C252 1.367 . S
C253 C255 1.433 . S
C254 C250 1.350 . S
C254 C251 1.463 . S
C254 N258 1.427 . S
C255 H245 0.929 . S
C255 C253 1.433 . S
C255 N258 1.384 . S
C256 H247 0.929 . S
C256 C248 1.378 . S
C256 C251 1.350 . S
C257 H244 0.929 . S
C257 C249 1.433 . S
C257 N259 1.384 . S
N258 C254 1.427 . S
N258 C255 1.384 . S
N259 C251 1.427 . S
N259 C257 1.384 . S
H260 C266 0.930 . S
H261 C270 0.930 . S
H262 C275 0.929 . S
H263 C273 0.929 . S
H264 C268 0.929 . S
H265 C274 0.929 . S
C266 H260 0.930 . S
C266 C267 1.367 . S
C266 C274 1.378 . S
C267 C266 1.367 . S
C267 C275 1.433 . S
C268 H264 0.929 . S
C268 C270 1.378 . S
C268 C272 1.350 . S
C269 C272 1.463 . S
C269 C274 1.350 . S
C269 N277 1.427 . S
C270 H261 0.930 . S
C270 C268 1.378 . S
C270 C271 1.367 . S
C271 C270 1.367 . S
C271 C273 1.433 . S
C272 C268 1.350 . S
C272 C269 1.463 . S
C272 N276 1.427 . S
C273 H263 0.929 . S
C273 C271 1.433 . S
C273 N276 1.384 . S
C274 H265 0.929 . S
C274 C266 1.378 . S
C274 C269 1.350 . S
C275 H262 0.929 . S
C275 C267 1.433 . S
C275 N277 1.384 . S
N276 C272 1.427 . S
N276 C273 1.384 . S
N277 C269 1.427 . S
N277 C275 1.384 . S
H278 C284 0.930 . S
H279 C288 0.930 . S
H280 C293 0.929 . S
H281 C291 0.929 . S
H282 C286 0.929 . S
H283 C292 0.929 . S
C284 H278 0.930 . S
C284 C285 1.367 . S
C284 C292 1.378 . S
C285 C284 1.367 . S
C285 C293 1.433 . S
C286 H282 0.929 . S
C286 C288 1.378 . S
C286 C290 1.350 . S
C287 C290 1.463 . S
C287 C292 1.350 . S
C287 N295 1.427 . S
C288 H279 0.930 . S
C288 C286 1.378 . S
C288 C289 1.367 . S
C289 C288 1.367 . S
C289 C291 1.433 . S
C290 C286 1.350 . S
C290 C287 1.463 . S
C290 N294 1.427 . S
C291 H281 0.929 . S
C291 C289 1.433 . S
C291 N294 1.384 . S
C292 H283 0.929 . S
C292 C284 1.378 . S
C292 C287 1.350 . S
C293 H280 0.929 . S
C293 C285 1.433 . S
C293 N295 1.384 . S
N294 C290 1.427 . S
N294 C291 1.384 . S
N295 C287 1.427 . S
N295 C293 1.384 . S
H296 C302 0.930 . S
H297 C306 0.930 . S
H298 C311 0.929 . S
H299 C309 0.929 . S
H300 C304 0.929 . S
H301 C310 0.929 . S
C302 H296 0.930 . S
C302 C303 1.367 . S
C302 C310 1.378 . S
C303 C302 1.367 . S
C303 C311 1.433 . S
C304 H300 0.929 . S
C304 C306 1.378 . S
C304 C308 1.350 . S
C305 C308 1.463 . S
C305 C310 1.350 . S
C305 N313 1.427 . S
C306 H297 0.930 . S
C306 C304 1.378 . S
C306 C307 1.367 . S
C307 C306 1.367 . S
C307 C309 1.433 . S
C308 C304 1.350 . S
C308 C305 1.463 . S
C308 N312 1.427 . S
C309 H299 0.929 . S
C309 C307 1.433 . S
C309 N312 1.384 . S
C310 H301 0.929 . S
C310 C302 1.378 . S
C310 C305 1.350 . S
C311 H298 0.929 . S
C311 C303 1.433 . S
C311 N313 1.384 . S
N312 C308 1.427 . S
N312 C309 1.384 . S
N313 C305 1.427 . S
N313 C311 1.384 . S
H314 C320 0.930 . S
H315 C324 0.930 . S
H316 C329 0.929 . S
H317 C327 0.929 . S
H318 C322 0.929 . S
H319 C328 0.929 . S
C320 H314 0.930 . S
C320 C321 1.367 . S
C320 C328 1.378 . S
C321 C320 1.367 . S
C321 C329 1.433 . S
C322 H318 0.929 . S
C322 C324 1.378 . S
C322 C326 1.350 . S
C323 C326 1.463 . S
C323 C328 1.350 . S
C323 N331 1.427 . S
C324 H315 0.930 . S
C324 C322 1.378 . S
C324 C325 1.367 . S
C325 C324 1.367 . S
C325 C327 1.433 . S
C326 C322 1.350 . S
C326 C323 1.463 . S
C326 N330 1.427 . S
C327 H317 0.929 . S
C327 C325 1.433 . S
C327 N330 1.384 . S
C328 H319 0.929 . S
C328 C320 1.378 . S
C328 C323 1.350 . S
C329 H316 0.929 . S
C329 C321 1.433 . S
C329 N331 1.384 . S
N330 C326 1.427 . S
N330 C327 1.384 . S
N331 C323 1.427 . S
N331 C329 1.384 . S
H332 C338 0.930 . S
H333 C342 0.930 . S
H334 C347 0.929 . S
H335 C345 0.929 . S
H336 C340 0.929 . S
H337 C346 0.929 . S
C338 H332 0.930 . S
C338 C339 1.367 . S
C338 C346 1.378 . S
C339 C338 1.367 . S
C339 C347 1.433 . S
C340 H336 0.929 . S
C340 C342 1.378 . S
C340 C344 1.350 . S
C341 C344 1.463 . S
C341 C346 1.350 . S
C341 N349 1.427 . S
C342 H333 0.930 . S
C342 C340 1.378 . S
C342 C343 1.367 . S
C343 C342 1.367 . S
C343 C345 1.433 . S
C344 C340 1.350 . S
C344 C341 1.463 . S
C344 N348 1.427 . S
C345 H335 0.929 . S
C345 C343 1.433 . S
C345 N348 1.384 . S
C346 H337 0.929 . S
C346 C338 1.378 . S
C346 C341 1.350 . S
C347 H334 0.929 . S
C347 C339 1.433 . S
C347 N349 1.384 . S
N348 C344 1.427 . S
N348 C345 1.384 . S
N349 C341 1.427 . S
N349 C347 1.384 . S
H350 C356 0.930 . S
H351 C360 0.930 . S
H352 C365 0.929 . S
H353 C363 0.929 . S
H354 C358 0.929 . S
H355 C364 0.929 . S
C356 H350 0.930 . S
C356 C357 1.367 . S
C356 C364 1.378 . S
C357 C356 1.367 . S
C357 C365 1.433 . S
C358 H354 0.929 . S
C358 C360 1.378 . S
C358 C362 1.350 . S
C359 C362 1.463 . S
C359 C364 1.350 . S
C359 N367 1.427 . S
C360 H351 0.930 . S
C360 C358 1.378 . S
C360 C361 1.367 . S
C361 C360 1.367 . S
C361 C363 1.433 . S
C362 C358 1.350 . S
C362 C359 1.463 . S
C362 N366 1.427 . S
C363 H353 0.929 . S
C363 C361 1.433 . S
C363 N366 1.384 . S
C364 H355 0.929 . S
C364 C356 1.378 . S
C364 C359 1.350 . S
C365 H352 0.929 . S
C365 C357 1.433 . S
C365 N367 1.384 . S
N366 C362 1.427 . S
N366 C363 1.384 . S
N367 C359 1.427 . S
N367 C365 1.384 . S
H368 C374 0.930 . S
H369 C378 0.930 . S
H370 C383 0.929 . S
H371 C381 0.929 . S
H372 C376 0.929 . S
H373 C382 0.929 . S
C374 H368 0.930 . S
C374 C375 1.367 . S
C374 C382 1.378 . S
C375 C374 1.367 . S
C375 C383 1.433 . S
C376 H372 0.929 . S
C376 C378 1.378 . S
C376 C380 1.350 . S
C377 C380 1.463 1_556 S
C377 C382 1.350 . S
C377 N385 1.427 . S
C378 H369 0.930 . S
C378 C376 1.378 . S
C378 C379 1.367 . S
C379 C378 1.367 . S
C379 C381 1.433 . S
C380 C376 1.350 . S
C380 C377 1.463 1_554 S
C380 N384 1.427 . S
C381 H371 0.929 . S
C381 C379 1.433 . S
C381 N384 1.384 . S
C382 H373 0.929 . S
C382 C374 1.378 . S
C382 C377 1.350 . S
C383 H370 0.929 . S
C383 C375 1.433 . S
C383 N385 1.384 . S
N384 C380 1.427 . S
N384 C381 1.384 . S
N385 C377 1.427 . S
N385 C383 1.384 . S
H386 C392 0.930 . S
H387 C396 0.930 . S
H388 C401 0.929 . S
H389 C399 0.929 . S
H390 C394 0.929 . S
H391 C400 0.929 . S
C392 H386 0.930 . S
C392 C393 1.367 . S
C392 C400 1.378 . S
C393 C392 1.367 . S
C393 C401 1.433 . S
C394 H390 0.929 . S
C394 C396 1.378 . S
C394 C398 1.350 . S
C395 C398 1.463 1_556 S
C395 C400 1.350 . S
C395 N403 1.427 . S
C396 H387 0.930 . S
C396 C394 1.378 . S
C396 C397 1.367 . S
C397 C396 1.367 . S
C397 C399 1.433 . S
C398 C394 1.350 . S
C398 C395 1.463 1_554 S
C398 N402 1.427 . S
C399 H389 0.929 . S
C399 C397 1.433 . S
C399 N402 1.384 . S
C400 H391 0.929 . S
C400 C392 1.378 . S
C400 C395 1.350 . S
C401 H388 0.929 . S
C401 C393 1.433 . S
C401 N403 1.384 . S
N402 C398 1.427 . S
N402 C399 1.384 . S
N403 C395 1.427 . S
N403 C401 1.384 . S
H404 C410 0.930 . S
H405 C414 0.930 . S
H406 C419 0.929 . S
H407 C417 0.929 . S
H408 C412 0.929 . S
H409 C418 0.929 . S
C410 H404 0.930 . S
C410 C411 1.367 . S
C410 C418 1.378 . S
C411 C410 1.367 . S
C411 C419 1.433 . S
C412 H408 0.929 . S
C412 C414 1.378 . S
C412 C416 1.350 . S
C413 C416 1.463 1_556 S
C413 C418 1.350 . S
C413 N421 1.427 . S
C414 H405 0.930 . S
C414 C412 1.378 . S
C414 C415 1.367 . S
C415 C414 1.367 . S
C415 C417 1.433 . S
C416 C412 1.350 . S
C416 C413 1.463 1_554 S
C416 N420 1.427 . S
C417 H407 0.929 . S
C417 C415 1.433 . S
C417 N420 1.384 . S
C418 H409 0.929 . S
C418 C410 1.378 . S
C418 C413 1.350 . S
C419 H406 0.929 . S
C419 C411 1.433 . S
C419 N421 1.384 . S
N420 C416 1.427 . S
N420 C417 1.384 . S
N421 C413 1.427 . S
N421 C419 1.384 . S
H422 C428 0.930 . S
H423 C432 0.930 . S
H424 C437 0.929 . S
H425 C435 0.929 . S
H426 C430 0.929 . S
H427 C436 0.929 . S
C428 H422 0.930 . S
C428 C429 1.367 . S
C428 C436 1.378 . S
C429 C428 1.367 . S
C429 C437 1.433 . S
C430 H426 0.929 . S
C430 C432 1.378 . S
C430 C434 1.350 . S
C431 C434 1.463 1_554 S
C431 C436 1.350 . S
C431 N439 1.427 . S
C432 H423 0.930 . S
C432 C430 1.378 . S
C432 C433 1.367 . S
C433 C432 1.367 . S
C433 C435 1.433 . S
C434 C430 1.350 . S
C434 C431 1.463 1_556 S
C434 N438 1.427 . S
C435 H425 0.929 . S
C435 C433 1.433 . S
C435 N438 1.384 . S
C436 H427 0.929 . S
C436 C428 1.378 . S
C436 C431 1.350 . S
C437 H424 0.929 . S
C437 C429 1.433 . S
C437 N439 1.384 . S
N438 C434 1.427 . S
N438 C435 1.384 . S
N439 C431 1.427 . S
N439 C437 1.384 . S
H440 C446 0.930 . S
H441 C450 0.930 . S
H442 C455 0.929 . S
H443 C453 0.929 . S
H444 C448 0.929 . S
H445 C454 0.929 . S
C446 H440 0.930 . S
C446 C447 1.367 . S
C446 C454 1.378 . S
C447 C446 1.367 . S
C447 C455 1.433 . S
C448 H444 0.929 . S
C448 C450 1.378 . S
C448 C452 1.350 . S
C449 C452 1.463 . S
C449 C454 1.350 . S
C449 N457 1.427 . S
C450 H441 0.930 . S
C450 C448 1.378 . S
C450 C451 1.367 . S
C451 C450 1.367 . S
C451 C453 1.433 . S
C452 C448 1.350 . S
C452 C449 1.463 . S
C452 N456 1.427 . S
C453 H443 0.929 . S
C453 C451 1.433 . S
C453 N456 1.384 . S
C454 H445 0.929 . S
C454 C446 1.378 . S
C454 C449 1.350 . S
C455 H442 0.929 . S
C455 C447 1.433 . S
C455 N457 1.384 . S
N456 C452 1.427 . S
N456 C453 1.384 . S
N457 C449 1.427 . S
N457 C455 1.384 . S
H458 C464 0.930 . S
H459 C468 0.930 . S
H460 C473 0.929 . S
H461 C471 0.929 . S
H462 C466 0.929 . S
H463 C472 0.929 . S
C464 H458 0.930 . S
C464 C465 1.367 . S
C464 C472 1.378 . S
C465 C464 1.367 . S
C465 C473 1.433 . S
C466 H462 0.929 . S
C466 C468 1.378 . S
C466 C470 1.350 . S
C467 C470 1.463 . S
C467 C472 1.350 . S
C467 N475 1.427 . S
C468 H459 0.930 . S
C468 C466 1.378 . S
C468 C469 1.367 . S
C469 C468 1.367 . S
C469 C471 1.433 . S
C470 C466 1.350 . S
C470 C467 1.463 . S
C470 N474 1.427 . S
C471 H461 0.929 . S
C471 C469 1.433 . S
C471 N474 1.384 . S
C472 H463 0.929 . S
C472 C464 1.378 . S
C472 C467 1.350 . S
C473 H460 0.929 . S
C473 C465 1.433 . S
C473 N475 1.384 . S
N474 C470 1.427 . S
N474 C471 1.384 . S
N475 C467 1.427 . S
N475 C473 1.384 . S
H476 C482 0.930 . S
H477 C486 0.930 . S
H478 C491 0.929 . S
H479 C489 0.929 . S
H480 C484 0.929 . S
H481 C490 0.929 . S
C482 H476 0.930 . S
C482 C483 1.367 . S
C482 C490 1.378 . S
C483 C482 1.367 . S
C483 C491 1.433 . S
C484 H480 0.929 . S
C484 C486 1.378 . S
C484 C488 1.350 . S
C485 C488 1.463 . S
C485 C490 1.350 . S
C485 N493 1.427 . S
C486 H477 0.930 . S
C486 C484 1.378 . S
C486 C487 1.367 . S
C487 C486 1.367 . S
C487 C489 1.433 . S
C488 C484 1.350 . S
C488 C485 1.463 . S
C488 N492 1.427 . S
C489 H479 0.929 . S
C489 C487 1.433 . S
C489 N492 1.384 . S
C490 H481 0.929 . S
C490 C482 1.378 . S
C490 C485 1.350 . S
C491 H478 0.929 . S
C491 C483 1.433 . S
C491 N493 1.384 . S
N492 C488 1.427 . S
N492 C489 1.384 . S
N493 C485 1.427 . S
N493 C491 1.384 . S
H494 C500 0.930 . S
H495 C504 0.930 . S
H496 C509 0.929 . S
H497 C507 0.929 . S
H498 C502 0.929 . S
H499 C508 0.929 . S
C500 H494 0.930 . S
C500 C501 1.367 . S
C500 C508 1.378 . S
C501 C500 1.367 . S
C501 C509 1.433 . S
C502 H498 0.929 . S
C502 C504 1.378 . S
C502 C506 1.350 . S
C503 C506 1.463 . S
C503 C508 1.350 . S
C503 N511 1.427 . S
C504 H495 0.930 . S
C504 C502 1.378 . S
C504 C505 1.367 . S
C505 C504 1.367 . S
C505 C507 1.433 . S
C506 C502 1.350 . S
C506 C503 1.463 . S
C506 N510 1.427 . S
C507 H497 0.929 . S
C507 C505 1.433 . S
C507 N510 1.384 . S
C508 H499 0.929 . S
C508 C500 1.378 . S
C508 C503 1.350 . S
C509 H496 0.929 . S
C509 C501 1.433 . S
C509 N511 1.384 . S
N510 C506 1.427 . S
N510 C507 1.384 . S
N511 C503 1.427 . S
N511 C509 1.384 . S
H512 C518 0.930 . S
H513 C522 0.930 . S
H514 C527 0.929 . S
H515 C525 0.929 . S
H516 C520 0.929 . S
H517 C526 0.929 . S
C518 H512 0.930 . S
C518 C519 1.367 . S
C518 C526 1.378 . S
C519 C518 1.367 . S
C519 C527 1.433 . S
C520 H516 0.929 . S
C520 C522 1.378 . S
C520 C524 1.350 . S
C521 C524 1.463 . S
C521 C526 1.350 . S
C521 N529 1.427 . S
C522 H513 0.930 . S
C522 C520 1.378 . S
C522 C523 1.367 . S
C523 C522 1.367 . S
C523 C525 1.433 . S
C524 C520 1.350 . S
C524 C521 1.463 . S
C524 N528 1.427 . S
C525 H515 0.929 . S
C525 C523 1.433 . S
C525 N528 1.384 . S
C526 H517 0.929 . S
C526 C518 1.378 . S
C526 C521 1.350 . S
C527 H514 0.929 . S
C527 C519 1.433 . S
C527 N529 1.384 . S
N528 C524 1.427 . S
N528 C525 1.384 . S
N529 C521 1.427 . S
N529 C527 1.384 . S
H530 C536 0.930 . S
H531 C540 0.930 . S
H532 C545 0.929 . S
H533 C543 0.929 . S
H534 C538 0.929 . S
H535 C544 0.929 . S
C536 H530 0.930 . S
C536 C537 1.367 . S
C536 C544 1.378 . S
C537 C536 1.367 . S
C537 C545 1.433 . S
C538 H534 0.929 . S
C538 C540 1.378 . S
C538 C542 1.350 . S
C539 C542 1.463 . S
C539 C544 1.350 . S
C539 N547 1.427 . S
C540 H531 0.930 . S
C540 C538 1.378 . S
C540 C541 1.367 . S
C541 C540 1.367 . S
C541 C543 1.433 . S
C542 C538 1.350 . S
C542 C539 1.463 . S
C542 N546 1.427 . S
C543 H533 0.929 . S
C543 C541 1.433 . S
C543 N546 1.384 . S
C544 H535 0.929 . S
C544 C536 1.378 . S
C544 C539 1.350 . S
C545 H532 0.929 . S
C545 C537 1.433 . S
C545 N547 1.384 . S
N546 C542 1.427 . S
N546 C543 1.384 . S
N547 C539 1.427 . S
N547 C545 1.384 . S
H548 C554 0.930 . S
H549 C558 0.930 . S
H550 C563 0.929 . S
H551 C561 0.929 . S
H552 C556 0.929 . S
H553 C562 0.929 . S
C554 H548 0.930 . S
C554 C555 1.367 . S
C554 C562 1.378 . S
C555 C554 1.367 . S
C555 C563 1.433 . S
C556 H552 0.929 . S
C556 C558 1.378 . S
C556 C560 1.350 . S
C557 C560 1.463 . S
C557 C562 1.350 . S
C557 N565 1.427 . S
C558 H549 0.930 . S
C558 C556 1.378 . S
C558 C559 1.367 . S
C559 C558 1.367 . S
C559 C561 1.433 . S
C560 C556 1.350 . S
C560 C557 1.463 . S
C560 N564 1.427 . S
C561 H551 0.929 . S
C561 C559 1.433 . S
C561 N564 1.384 . S
C562 H553 0.929 . S
C562 C554 1.378 . S
C562 C557 1.350 . S
C563 H550 0.929 . S
C563 C555 1.433 . S
C563 N565 1.384 . S
N564 C560 1.427 . S
N564 C561 1.384 . S
N565 C557 1.427 . S
N565 C563 1.384 . S
H566 C572 0.930 . S
H567 C576 0.930 . S
H568 C581 0.929 . S
H569 C579 0.929 . S
H570 C574 0.929 . S
H571 C580 0.929 . S
C572 H566 0.930 . S
C572 C573 1.367 . S
C572 C580 1.378 . S
C573 C572 1.367 . S
C573 C581 1.433 . S
C574 H570 0.929 . S
C574 C576 1.378 . S
C574 C578 1.350 . S
C575 C578 1.463 . S
C575 C580 1.350 . S
C575 N583 1.427 . S
C576 H567 0.930 . S
C576 C574 1.378 . S
C576 C577 1.367 . S
C577 C576 1.367 . S
C577 C579 1.433 . S
C578 C574 1.350 . S
C578 C575 1.463 . S
C578 N582 1.427 . S
C579 H569 0.929 . S
C579 C577 1.433 . S
C579 N582 1.384 . S
C580 H571 0.929 . S
C580 C572 1.378 . S
C580 C575 1.350 . S
C581 H568 0.929 . S
C581 C573 1.433 . S
C581 N583 1.384 . S
N582 C578 1.427 . S
N582 C579 1.384 . S
N583 C575 1.427 . S
N583 C581 1.384 . S
H584 C590 0.930 . S
H585 C594 0.930 . S
H586 C599 0.929 . S
H587 C597 0.929 . S
H588 C592 0.929 . S
H589 C598 0.929 . S
C590 H584 0.930 . S
C590 C591 1.367 . S
C590 C598 1.378 . S
C591 C590 1.367 . S
C591 C599 1.433 . S
C592 H588 0.929 . S
C592 C594 1.378 . S
C592 C596 1.350 . S
C593 C596 1.463 . S
C593 C598 1.350 . S
C593 N601 1.427 . S
C594 H585 0.930 . S
C594 C592 1.378 . S
C594 C595 1.367 . S
C595 C594 1.367 . S
C595 C597 1.433 . S
C596 C592 1.350 . S
C596 C593 1.463 . S
C596 N600 1.427 . S
C597 H587 0.929 . S
C597 C595 1.433 . S
C597 N600 1.384 . S
C598 H589 0.929 . S
C598 C590 1.378 . S
C598 C593 1.350 . S
C599 H586 0.929 . S
C599 C591 1.433 . S
C599 N601 1.384 . S
N600 C596 1.427 . S
N600 C597 1.384 . S
N601 C593 1.427 . S
N601 C599 1.384 . S
H602 C608 0.930 . S
H603 C612 0.930 . S
H604 C617 0.929 . S
H605 C615 0.929 . S
H606 C610 0.929 . S
H607 C616 0.929 . S
C608 H602 0.930 . S
C608 C609 1.367 . S
C608 C616 1.378 . S
C609 C608 1.367 . S
C609 C617 1.433 . S
C610 H606 0.929 . S
C610 C612 1.378 . S
C610 C614 1.350 . S
C611 C614 1.463 . S
C611 C616 1.350 . S
C611 N619 1.427 . S
C612 H603 0.930 . S
C612 C610 1.378 . S
C612 C613 1.367 . S
C613 C612 1.367 . S
C613 C615 1.433 . S
C614 C610 1.350 . S
C614 C611 1.463 . S
C614 N618 1.427 . S
C615 H605 0.929 . S
C615 C613 1.433 . S
C615 N618 1.384 . S
C616 H607 0.929 . S
C616 C608 1.378 . S
C616 C611 1.350 . S
C617 H604 0.929 . S
C617 C609 1.433 . S
C617 N619 1.384 . S
N618 C614 1.427 . S
N618 C615 1.384 . S
N619 C611 1.427 . S
N619 C617 1.384 . S
H620 C626 0.930 . S
H621 C630 0.930 . S
H622 C635 0.929 . S
H623 C633 0.929 . S
H624 C628 0.929 . S
H625 C634 0.929 . S
C626 H620 0.930 . S
C626 C627 1.367 . S
C626 C634 1.378 . S
C627 C626 1.367 . S
C627 C635 1.433 . S
C628 H624 0.929 . S
C628 C630 1.378 . S
C628 C632 1.350 . S
C629 C632 1.463 . S
C629 C634 1.350 . S
C629 N637 1.427 . S
C630 H621 0.930 . S
C630 C628 1.378 . S
C630 C631 1.367 . S
C631 C630 1.367 . S
C631 C633 1.433 . S
C632 C628 1.350 . S
C632 C629 1.463 . S
C632 N636 1.427 . S
C633 H623 0.929 . S
C633 C631 1.433 . S
C633 N636 1.384 . S
C634 H625 0.929 . S
C634 C626 1.378 . S
C634 C629 1.350 . S
C635 H622 0.929 . S
C635 C627 1.433 . S
C635 N637 1.384 . S
N636 C632 1.427 . S
N636 C633 1.384 . S
N637 C629 1.427 . S
N637 C635 1.384 . S
H638 C644 0.930 . S
H639 C648 0.930 . S
H640 C653 0.929 . S
H641 C651 0.929 . S
H642 C646 0.929 . S
H643 C652 0.929 . S
C644 H638 0.930 . S
C644 C645 1.367 . S
C644 C652 1.378 . S
C645 C644 1.367 . S
C645 C653 1.433 . S
C646 H642 0.929 . S
C646 C648 1.378 . S
C646 C650 1.350 . S
C647 C650 1.463 . S
C647 C652 1.350 . S
C647 N655 1.427 . S
C648 H639 0.930 . S
C648 C646 1.378 . S
C648 C649 1.367 . S
C649 C648 1.367 . S
C649 C651 1.433 . S
C650 C646 1.350 . S
C650 C647 1.463 . S
C650 N654 1.427 . S
C651 H641 0.929 . S
C651 C649 1.433 . S
C651 N654 1.384 . S
C652 H643 0.929 . S
C652 C644 1.378 . S
C652 C647 1.350 . S
C653 H640 0.929 . S
C653 C645 1.433 . S
C653 N655 1.384 . S
N654 C650 1.427 . S
N654 C651 1.384 . S
N655 C647 1.427 . S
N655 C653 1.384 . S
H656 C662 0.930 . S
H657 C666 0.930 . S
H658 C671 0.929 . S
H659 C669 0.929 . S
H660 C664 0.929 . S
H661 C670 0.929 . S
C662 H656 0.930 . S
C662 C663 1.367 . S
C662 C670 1.378 . S
C663 C662 1.367 . S
C663 C671 1.433 . S
C664 H660 0.929 . S
C664 C666 1.378 . S
C664 C668 1.350 . S
C665 C668 1.463 1_545 S
C665 C670 1.350 . S
C665 N673 1.427 . S
C666 H657 0.930 . S
C666 C664 1.378 . S
C666 C667 1.367 . S
C667 C666 1.367 . S
C667 C669 1.433 . S
C668 C664 1.350 . S
C668 C665 1.463 1_565 S
C668 N672 1.427 . S
C669 H659 0.929 . S
C669 C667 1.433 . S
C669 N672 1.384 . S
C670 H661 0.929 . S
C670 C662 1.378 . S
C670 C665 1.350 . S
C671 H658 0.929 . S
C671 C663 1.433 . S
C671 N673 1.384 . S
N672 C668 1.427 . S
N672 C669 1.384 . S
N673 C665 1.427 . S
N673 C671 1.384 . S
H674 C680 0.930 . S
H675 C684 0.930 . S
H676 C689 0.929 . S
H677 C687 0.929 . S
H678 C682 0.929 . S
H679 C688 0.929 . S
C680 H674 0.930 . S
C680 C681 1.367 . S
C680 C688 1.378 . S
C681 C680 1.367 . S
C681 C689 1.433 . S
C682 H678 0.929 . S
C682 C684 1.378 . S
C682 C686 1.350 . S
C683 C686 1.463 1_655 S
C683 C688 1.350 . S
C683 N691 1.427 . S
C684 H675 0.930 . S
C684 C682 1.378 . S
C684 C685 1.367 . S
C685 C684 1.367 . S
C685 C687 1.433 . S
C686 C682 1.350 . S
C686 C683 1.463 1_455 S
C686 N690 1.427 . S
C687 H677 0.929 . S
C687 C685 1.433 . S
C687 N690 1.384 . S
C688 H679 0.929 . S
C688 C680 1.378 . S
C688 C683 1.350 . S
C689 H676 0.929 . S
C689 C681 1.433 . S
C689 N691 1.384 . S
N690 C686 1.427 . S
N690 C687 1.384 . S
N691 C683 1.427 . S
N691 C689 1.384 . S
H692 C698 0.930 . S
H693 C702 0.930 . S
H694 C707 0.929 . S
H695 C705 0.929 . S
H696 C700 0.929 . S
H697 C706 0.929 . S
C698 H692 0.930 . S
C698 C699 1.367 . S
C698 C706 1.378 . S
C699 C698 1.367 . S
C699 C707 1.433 . S
C700 H696 0.929 . S
C700 C702 1.378 . S
C700 C704 1.350 . S
C701 C704 1.463 1_545 S
C701 C706 1.350 . S
C701 N709 1.427 . S
C702 H693 0.930 . S
C702 C700 1.378 . S
C702 C703 1.367 . S
C703 C702 1.367 . S
C703 C705 1.433 . S
C704 C700 1.350 . S
C704 C701 1.463 1_565 S
C704 N708 1.427 . S
C705 H695 0.929 . S
C705 C703 1.433 . S
C705 N708 1.384 . S
C706 H697 0.929 . S
C706 C698 1.378 . S
C706 C701 1.350 . S
C707 H694 0.929 . S
C707 C699 1.433 . S
C707 N709 1.384 . S
N708 C704 1.427 . S
N708 C705 1.384 . S
N709 C701 1.427 . S
N709 C707 1.384 . S
H710 C716 0.930 . S
H711 C720 0.930 . S
H712 C725 0.929 . S
H713 C723 0.929 . S
H714 C718 0.929 . S
H715 C724 0.929 . S
C716 H710 0.930 . S
C716 C717 1.367 . S
C716 C724 1.378 . S
C717 C716 1.367 . S
C717 C725 1.433 . S
C718 H714 0.929 . S
C718 C720 1.378 . S
C718 C722 1.350 . S
C719 C722 1.463 1_455 S
C719 C724 1.350 . S
C719 N727 1.427 . S
C720 H711 0.930 . S
C720 C718 1.378 . S
C720 C721 1.367 . S
C721 C720 1.367 . S
C721 C723 1.433 . S
C722 C718 1.350 . S
C722 C719 1.463 1_655 S
C722 N726 1.427 . S
C723 H713 0.929 . S
C723 C721 1.433 . S
C723 N726 1.384 . S
C724 H715 0.929 . S
C724 C716 1.378 . S
C724 C719 1.350 . S
C725 H712 0.929 . S
C725 C717 1.433 . S
C725 N727 1.384 . S
N726 C722 1.427 . S
N726 C723 1.384 . S
N727 C719 1.427 . S
N727 C725 1.384 . S
H728 C734 0.930 . S
H729 C738 0.930 . S
H730 C743 0.929 . S
H731 C741 0.929 . S
H732 C736 0.929 . S
H733 C742 0.929 . S
C734 H728 0.930 . S
C734 C735 1.367 . S
C734 C742 1.378 . S
C735 C734 1.367 . S
C735 C743 1.433 . S
C736 H732 0.929 . S
C736 C738 1.378 . S
C736 C740 1.350 . S
C737 C740 1.463 1_545 S
C737 C742 1.350 . S
C737 N745 1.427 . S
C738 H729 0.930 . S
C738 C736 1.378 . S
C738 C739 1.367 . S
C739 C738 1.367 . S
C739 C741 1.433 . S
C740 C736 1.350 . S
C740 C737 1.463 1_565 S
C740 N744 1.427 . S
C741 H731 0.929 . S
C741 C739 1.433 . S
C741 N744 1.384 . S
C742 H733 0.929 . S
C742 C734 1.378 . S
C742 C737 1.350 . S
C743 H730 0.929 . S
C743 C735 1.433 . S
C743 N745 1.384 . S
N744 C740 1.427 . S
N744 C741 1.384 . S
N745 C737 1.427 . S
N745 C743 1.384 . S
H746 C752 0.930 . S
H747 C756 0.930 . S
H748 C761 0.929 . S
H749 C759 0.929 . S
H750 C754 0.929 . S
H751 C760 0.929 . S
C752 H746 0.930 . S
C752 C753 1.367 . S
C752 C760 1.378 . S
C753 C752 1.367 . S
C753 C761 1.433 . S
C754 H750 0.929 . S
C754 C756 1.378 . S
C754 C758 1.350 . S
C755 C758 1.463 1_655 S
C755 C760 1.350 . S
C755 N763 1.427 . S
C756 H747 0.930 . S
C756 C754 1.378 . S
C756 C757 1.367 . S
C757 C756 1.367 . S
C757 C759 1.433 . S
C758 C754 1.350 . S
C758 C755 1.463 1_455 S
C758 N762 1.427 . S
C759 H749 0.929 . S
C759 C757 1.433 . S
C759 N762 1.384 . S
C760 H751 0.929 . S
C760 C752 1.378 . S
C760 C755 1.350 . S
C761 H748 0.929 . S
C761 C753 1.433 . S
C761 N763 1.384 . S
N762 C758 1.427 . S
N762 C759 1.384 . S
N763 C755 1.427 . S
N763 C761 1.384 . S
H764 C770 0.930 . S
H765 C774 0.930 . S
H766 C779 0.929 . S
H767 C777 0.929 . S
H768 C772 0.929 1_565 S
H769 C778 0.929 1_545 S
C770 H764 0.930 . S
C770 C771 1.367 . S
C770 C778 1.378 . S
C771 C770 1.367 . S
C771 C779 1.433 . S
C772 H768 0.929 1_545 S
C772 C774 1.378 . S
C772 C776 1.350 . S
C773 C776 1.463 1_565 S
C773 C778 1.350 . S
C773 N781 1.427 . S
C774 H765 0.930 . S
C774 C772 1.378 . S
C774 C775 1.367 . S
C775 C774 1.367 . S
C775 C777 1.433 . S
C776 C772 1.350 . S
C776 C773 1.463 1_545 S
C776 N780 1.427 . S
C777 H767 0.929 . S
C777 C775 1.433 . S
C777 N780 1.384 . S
C778 H769 0.929 1_565 S
C778 C770 1.378 . S
C778 C773 1.350 . S
C779 H766 0.929 . S
C779 C771 1.433 . S
C779 N781 1.384 . S
N780 C776 1.427 . S
N780 C777 1.384 . S
N781 C773 1.427 . S
N781 C779 1.384 . S
H782 C788 0.930 . S
H783 C792 0.930 . S
H784 C797 0.929 . S
H785 C795 0.929 . S
H786 C790 0.929 . S
H787 C796 0.929 . S
C788 H782 0.930 . S
C788 C789 1.367 . S
C788 C796 1.378 . S
C789 C788 1.367 . S
C789 C797 1.433 . S
C790 H786 0.929 . S
C790 C792 1.378 . S
C790 C794 1.350 . S
C791 C794 1.463 1_455 S
C791 C796 1.350 . S
C791 N799 1.427 . S
C792 H783 0.930 . S
C792 C790 1.378 . S
C792 C793 1.367 . S
C793 C792 1.367 . S
C793 C795 1.433 . S
C794 C790 1.350 . S
C794 C791 1.463 1_655 S
C794 N798 1.427 . S
C795 H785 0.929 . S
C795 C793 1.433 . S
C795 N798 1.384 . S
C796 H787 0.929 . S
C796 C788 1.378 . S
C796 C791 1.350 . S
C797 H784 0.929 . S
C797 C789 1.433 . S
C797 N799 1.384 . S
N798 C794 1.427 . S
N798 C795 1.384 . S
N799 C791 1.427 . S
N799 C797 1.384 . S
C231 C76 1.563 . S
C235 C6 1.570 . S
C249 C90 1.574 . S
C253 C20 1.575 . S
C267 C34 1.568 . S
C271 C104 1.563 . S
C285 C48 1.564 . S
C289 C62 1.565 . S
C303 C188 1.570 . S
C307 C118 1.563 . S
C321 C202 1.576 . S
C325 C132 1.568 . S
C339 C146 1.564 . S
C343 C216 1.565 . S
C357 C160 1.565 . S
C361 C174 1.564 . S
C375 C147 1.492 . S
C379 C7 1.493 . S
C393 C161 1.493 . S
C397 C21 1.493 . S
C411 C119 1.491 . S
C415 C35 1.498 . S
C429 C49 1.496 . S
C433 C133 1.504 . S
C447 C203 1.501 . S
C451 C63 1.492 . S
C465 C217 1.503 . S
C469 C77 1.501 . S
C483 C91 1.492 . S
C487 C175 1.494 . S
C501 C189 1.503 . S
C505 C105 1.502 . S
C519 C64 0.517 . S
C523 C8 0.523 . S
C537 C22 0.511 . S
C541 C78 0.513 . S
C555 C36 0.523 . S
C559 C92 0.524 . S
C573 C106 0.511 . S
C577 C50 0.516 . S
C591 C121 2.325 . S
C595 C177 2.324 . S
C609 C191 2.325 . S
C613 C135 2.323 . S
C627 C149 2.324 . S
C631 C205 2.323 . S
C645 C219 2.324 . S
C649 C163 2.325 . S
C663 C162 0.521 . S
C667 C190 0.524 . S
C681 C120 0.524 . S
C685 C204 0.517 . S
C699 C218 0.517 . S
C703 C134 0.511 . S
C717 C148 0.520 . S
C721 C176 0.513 . S
C735 C79 2.324 . S
C739 C51 2.325 . S
C753 C93 2.325 . S
C757 C9 2.323 . S
C771 C107 2.324 . S
C775 C23 2.324 . S
C789 C65 2.325 . S
C793 C37 2.324 . S
