# Generated by pormake.
# Topology zfo, (5)-cn, num edge types: 1
# Building blocks:
#     Node 0, Type 0, BuildingBlock: XOMCOT_clean_sbu_1, # of connection points: 5
#     Node 1, Type 0, BuildingBlock: XOMCOT_clean_sbu_1, # of connection points: 5
#     Node 2, Type 0, BuildingBlock: XOMCOT_clean_sbu_1, # of connection points: 5
#     Node 3, Type 0, BuildingBlock: XOMCOT_clean_sbu_1, # of connection points: 5
#     Node 4, Type 0, BuildingBlock: XOMCOT_clean_sbu_1, # of connection points: 5
#     Node 5, Type 0, BuildingBlock: XOMCOT_clean_sbu_1, # of connection points: 5
#     Node 6, Type 0, BuildingBlock: XOMCOT_clean_sbu_1, # of connection points: 5
#     Node 7, Type 0, BuildingBlock: XOMCOT_clean_sbu_1, # of connection points: 5
#     Node 8, Type 0, BuildingBlock: XOMCOT_clean_sbu_1, # of connection points: 5
#     Node 9, Type 0, BuildingBlock: XOMCOT_clean_sbu_1, # of connection points: 5
#     Node 10, Type 0, BuildingBlock: XOMCOT_clean_sbu_1, # of connection points: 5
#     Node 11, Type 0, BuildingBlock: XOMCOT_clean_sbu_1, # of connection points: 5
#     Node 12, Type 0, BuildingBlock: XOMCOT_clean_sbu_1, # of connection points: 5
#     Node 13, Type 0, BuildingBlock: XOMCOT_clean_sbu_1, # of connection points: 5
#     Node 14, Type 0, BuildingBlock: XOMCOT_clean_sbu_1, # of connection points: 5
#     Node 15, Type 0, BuildingBlock: XOMCOT_clean_sbu_1, # of connection points: 5
#     Edge 16, Type (0, 0), BuildingBlock: KIFKEQ_clean_linker_1, # of connection points: 2
#     Edge 17, Type (0, 0), BuildingBlock: KIFKEQ_clean_linker_1, # of connection points: 2
#     Edge 18, Type (0, 0), BuildingBlock: KIFKEQ_clean_linker_1, # of connection points: 2
#     Edge 19, Type (0, 0), BuildingBlock: KIFKEQ_clean_linker_1, # of connection points: 2
#     Edge 20, Type (0, 0), BuildingBlock: KIFKEQ_clean_linker_1, # of connection points: 2
#     Edge 21, Type (0, 0), BuildingBlock: KIFKEQ_clean_linker_1, # of connection points: 2
#     Edge 22, Type (0, 0), BuildingBlock: KIFKEQ_clean_linker_1, # of connection points: 2
#     Edge 23, Type (0, 0), BuildingBlock: KIFKEQ_clean_linker_1, # of connection points: 2
#     Edge 24, Type (0, 0), BuildingBlock: KIFKEQ_clean_linker_1, # of connection points: 2
#     Edge 25, Type (0, 0), BuildingBlock: KIFKEQ_clean_linker_1, # of connection points: 2
#     Edge 26, Type (0, 0), BuildingBlock: KIFKEQ_clean_linker_1, # of connection points: 2
#     Edge 27, Type (0, 0), BuildingBlock: KIFKEQ_clean_linker_1, # of connection points: 2
#     Edge 28, Type (0, 0), BuildingBlock: KIFKEQ_clean_linker_1, # of connection points: 2
#     Edge 29, Type (0, 0), BuildingBlock: KIFKEQ_clean_linker_1, # of connection points: 2
#     Edge 30, Type (0, 0), BuildingBlock: KIFKEQ_clean_linker_1, # of connection points: 2
#     Edge 31, Type (0, 0), BuildingBlock: KIFKEQ_clean_linker_1, # of connection points: 2
#     Edge 32, Type (0, 0), BuildingBlock: KIFKEQ_clean_linker_1, # of connection points: 2
#     Edge 33, Type (0, 0), BuildingBlock: KIFKEQ_clean_linker_1, # of connection points: 2
#     Edge 34, Type (0, 0), BuildingBlock: KIFKEQ_clean_linker_1, # of connection points: 2
#     Edge 35, Type (0, 0), BuildingBlock: KIFKEQ_clean_linker_1, # of connection points: 2
#     Edge 36, Type (0, 0), BuildingBlock: KIFKEQ_clean_linker_1, # of connection points: 2
#     Edge 37, Type (0, 0), BuildingBlock: KIFKEQ_clean_linker_1, # of connection points: 2
#     Edge 38, Type (0, 0), BuildingBlock: KIFKEQ_clean_linker_1, # of connection points: 2
#     Edge 39, Type (0, 0), BuildingBlock: KIFKEQ_clean_linker_1, # of connection points: 2
#     Edge 40, Type (0, 0), BuildingBlock: KIFKEQ_clean_linker_1, # of connection points: 2
#     Edge 41, Type (0, 0), BuildingBlock: KIFKEQ_clean_linker_1, # of connection points: 2
#     Edge 42, Type (0, 0), BuildingBlock: KIFKEQ_clean_linker_1, # of connection points: 2
#     Edge 43, Type (0, 0), BuildingBlock: KIFKEQ_clean_linker_1, # of connection points: 2
#     Edge 44, Type (0, 0), BuildingBlock: KIFKEQ_clean_linker_1, # of connection points: 2
#     Edge 45, Type (0, 0), BuildingBlock: KIFKEQ_clean_linker_1, # of connection points: 2
#     Edge 46, Type (0, 0), BuildingBlock: KIFKEQ_clean_linker_1, # of connection points: 2
#     Edge 47, Type (0, 0), BuildingBlock: KIFKEQ_clean_linker_1, # of connection points: 2
#     Edge 48, Type (0, 0), BuildingBlock: KIFKEQ_clean_linker_1, # of connection points: 2
#     Edge 49, Type (0, 0), BuildingBlock: KIFKEQ_clean_linker_1, # of connection points: 2
#     Edge 50, Type (0, 0), BuildingBlock: KIFKEQ_clean_linker_1, # of connection points: 2
#     Edge 51, Type (0, 0), BuildingBlock: KIFKEQ_clean_linker_1, # of connection points: 2
#     Edge 52, Type (0, 0), BuildingBlock: KIFKEQ_clean_linker_1, # of connection points: 2
#     Edge 53, Type (0, 0), BuildingBlock: KIFKEQ_clean_linker_1, # of connection points: 2
#     Edge 54, Type (0, 0), BuildingBlock: KIFKEQ_clean_linker_1, # of connection points: 2
#     Edge 55, Type (0, 0), BuildingBlock: KIFKEQ_clean_linker_1, # of connection points: 2
# Relax obj value: 0.175
# Max RMSD: 0.150
# Mean RMSD: 0.150
data_MOF--net-zfo--node1-XOMCOT_clean_sbu_1--edge1-KIFKEQ_clean_linker_1
_symmetry_space_group_name_H-M    P1
_symmetry_Int_Tables_number       1
_symmetry_cell_setting            triclinic
loop_
_symmetry_equiv_pos_as_xyz
'x, y, z'
_cell_length_a     35.564668
_cell_length_b     35.62945
_cell_length_c     52.112912
_cell_angle_alpha  89.886215
_cell_angle_beta   89.980329
_cell_angle_gamma 89.82779
loop_
_atom_site_label
_atom_site_type_symbol
_atom_site_fract_x
_atom_site_fract_y
_atom_site_fract_z
_atom_type_partial_charge
C0 C 1.00036 0.28957 0.18651 0.0
C1 C 0.96264 0.29787 0.18505 0.0
N2 N 0.94912 0.28322 0.16318 0.0
N3 N 0.01089 0.26991 0.16553 0.0
C4 C 0.97889 0.26683 0.1516 0.0
H5 H 0.01829 0.29645 0.2025 0.0
Co6 Co 0.05832 0.24821 0.15854 0.0
C7 C 0.07875 0.29928 0.11463 0.0
O8 O 0.10782 0.3143 0.12613 0.0
N9 N 0.10616 0.22618 0.1517 0.0
C10 C 0.15241 0.18452 0.14621 0.0
C11 C 0.11423 0.18931 0.1488 0.0
C12 C 0.14033 0.24296 0.15129 0.0
N13 N 0.16894 0.21835 0.14784 0.0
O14 O 0.08245 0.28855 0.17659 0.0
H15 H 0.094 0.16678 0.14942 0.0
H16 H 0.14438 0.27259 0.15433 0.0
O17 O 0.05884 0.27464 0.12599 0.0
C18 C 0.08962 0.27699 0.19929 0.0
O19 O 0.08064 0.24225 0.20519 0.0
N20 N 0.03444 0.20715 0.14336 0.0
C21 C 0.99998 0.14071 0.12784 0.0
C22 C 0.01636 0.165 0.10972 0.0
C23 C 0.0337 0.19813 0.11789 0.0
C24 C 0.01834 0.18425 0.16113 0.0
C25 C 1.00103 0.15096 0.15383 0.0
H26 H 0.04717 0.21588 0.10383 0.0
H27 H 0.01976 0.19163 0.18123 0.0
H28 H 0.97711 0.25193 0.13358 0.0
H29 H 0.94602 0.31175 0.19965 0.0
H30 H 0.16687 0.15789 0.14444 0.0
H31 H 0.01615 0.15834 0.08947 0.0
H32 H 0.98976 0.13285 0.16864 0.0
C33 C 0.79467 0.0207 0.66631 0.0
C34 C 0.80181 0.98293 0.66632 0.0
N35 N 0.77617 0.96613 0.65125 0.0
N36 N 0.76469 0.02795 0.65129 0.0
C37 C 0.75369 0.99403 0.64245 0.0
H38 H 0.81094 0.04182 0.67617 0.0
Co39 Co 0.74937 0.077 0.64507 0.0
C40 C 0.71344 0.07907 0.59429 0.0
O41 O 0.73072 0.11123 0.59081 0.0
N42 N 0.7337 0.12728 0.64033 0.0
C43 C 0.69307 0.17489 0.63843 0.0
C44 C 0.69702 0.13669 0.63772 0.0
C45 C 0.75143 0.16069 0.64307 0.0
N46 N 0.72726 0.19003 0.64195 0.0
O47 O 0.70806 0.07093 0.66836 0.0
H48 H 0.67422 0.11681 0.63614 0.0
H49 H 0.7809 0.16375 0.64739 0.0
O50 O 0.71818 0.06087 0.61535 0.0
C51 C 0.71805 0.07639 0.69154 0.0
O52 O 0.7539 0.08163 0.69638 0.0
N53 N 0.79238 0.08261 0.62413 0.0
C54 C 0.86578 0.07053 0.60686 0.0
C55 C 0.83526 0.05445 0.59406 0.0
C56 C 0.79888 0.06031 0.6032 0.0
C57 C 0.82175 0.09997 0.63598 0.0
C58 C 0.85864 0.09487 0.62738 0.0
H59 H 0.77702 0.04317 0.59512 0.0
H60 H 0.81728 0.11405 0.65406 0.0
H61 H 0.73069 0.98997 0.62916 0.0
H62 H 0.82433 0.96889 0.67654 0.0
H63 H 0.66686 0.1903 0.63715 0.0
H64 H 0.83972 0.03486 0.57847 0.0
H65 H 0.88156 0.10672 0.63836 0.0
C66 C 0.00775 0.80013 0.17488 0.0
C67 C 0.04621 0.80223 0.17604 0.0
N68 N 0.06072 0.77143 0.16478 0.0
N69 N 0.99777 0.76827 0.16279 0.0
C70 C 0.0307 0.75128 0.15678 0.0
H71 H 0.98822 0.82004 0.18313 0.0
Co72 Co 0.94803 0.75222 0.16028 0.0
C73 C 0.93879 0.71587 0.10958 0.0
O74 O 0.90398 0.72821 0.10912 0.0
N75 N 0.8972 0.7355 0.15922 0.0
C76 C 0.84912 0.69545 0.16037 0.0
C77 C 0.88753 0.69882 0.16003 0.0
C78 C 0.86365 0.7538 0.15927 0.0
N79 N 0.83397 0.7301 0.15988 0.0
O80 O 0.95977 0.70986 0.18151 0.0
H81 H 0.90721 0.67565 0.16016 0.0
H82 H 0.86061 0.78384 0.15859 0.0
O83 O 0.96013 0.72354 0.1287 0.0
C84 C 0.96032 0.7176 0.20536 0.0
O85 O 0.95723 0.75294 0.21224 0.0
N86 N 0.93706 0.79605 0.14134 0.0
C87 C 0.93515 0.8698 0.12308 0.0
C88 C 0.9518 0.84119 0.10853 0.0
C89 C 0.95282 0.80454 0.11811 0.0
C90 C 0.92057 0.8236 0.15559 0.0
C91 C 0.91851 0.86046 0.14659 0.0
H92 H 0.96911 0.78411 0.10773 0.0
H93 H 0.91116 0.81742 0.17488 0.0
H94 H 0.03259 0.72397 0.1478 0.0
H95 H 0.06226 0.82456 0.18479 0.0
H96 H 0.83369 0.66937 0.16135 0.0
H97 H 0.96576 0.84749 0.09056 0.0
H98 H 0.90661 0.88194 0.15886 0.0
C99 C 0.21769 0.00589 0.67432 0.0
C100 C 0.22241 0.04267 0.68132 0.0
N101 N 0.25647 0.05396 0.67324 0.0
N102 N 0.24827 0.99374 0.66138 0.0
C103 C 0.27213 0.02337 0.662 0.0
H104 H 0.19277 0.98926 0.67767 0.0
Co105 Co 0.24935 0.94447 0.64767 0.0
C106 C 0.29119 0.98517 0.60254 0.0
O107 O 0.28649 0.02022 0.60946 0.0
N108 N 0.24934 0.8949 0.63494 0.0
C109 C 0.24205 0.8469 0.60821 0.0
C110 C 0.24341 0.88527 0.61025 0.0
C111 C 0.25133 0.86168 0.64762 0.0
N112 N 0.24685 0.83189 0.63174 0.0
O113 O 0.29452 0.93389 0.66685 0.0
H114 H 0.23889 0.90499 0.59475 0.0
H115 H 0.25454 0.85943 0.66821 0.0
O116 O 0.27821 0.95856 0.61652 0.0
C117 C 0.2864 0.92824 0.69042 0.0
O118 O 0.25091 0.93051 0.69733 0.0
N119 N 0.20338 0.95405 0.63075 0.0
C120 C 0.13008 0.9722 0.61552 0.0
C121 C 0.16063 0.99477 0.60829 0.0
C122 C 0.197 0.98513 0.616 0.0
C123 C 0.17427 0.93118 0.63736 0.0
C124 C 0.13763 0.93926 0.62951 0.0
H125 H 0.21934 1.00436 0.61178 0.0
H126 H 0.17923 0.90723 0.6497 0.0
H127 H 0.3004 0.02277 0.6544 0.0
H128 H 0.20148 0.06041 0.69034 0.0
H129 H 0.23753 0.83131 0.59068 0.0
H130 H 0.15648 0.02094 0.59809 0.0
H131 H 0.11532 0.92038 0.63517 0.0
C132 C 0.51437 0.2762 0.8335 0.0
C133 C 0.47602 0.27545 0.83039 0.0
N134 N 0.46074 0.25849 0.85099 0.0
N135 N 0.52365 0.25933 0.8558 0.0
C136 C 0.49026 0.24884 0.86608 0.0
H137 H 0.53396 0.29032 0.82096 0.0
Co138 Co 0.5725 0.25991 0.86944 0.0
C139 C 0.57072 0.20019 0.90894 0.0
O140 O 0.60036 0.18388 0.89877 0.0
N141 N 0.62176 0.26183 0.88287 0.0
C142 C 0.66905 0.27052 0.91009 0.0
C143 C 0.63077 0.26704 0.90776 0.0
C144 C 0.65523 0.26268 0.87042 0.0
N145 N 0.68467 0.26781 0.88658 0.0
O146 O 0.58512 0.2162 0.84961 0.0
H147 H 0.61061 0.26935 0.92323 0.0
H148 H 0.65789 0.26013 0.84985 0.0
O149 O 0.55673 0.22925 0.89827 0.0
C150 C 0.59497 0.22399 0.8267 0.0
O151 O 0.59747 0.25945 0.81997 0.0
N152 N 0.56029 0.30365 0.88725 0.0
C153 C 0.53949 0.37333 0.90667 0.0
C154 C 0.52327 0.34044 0.91634 0.0
C155 C 0.53408 0.30576 0.90638 0.0
C156 C 0.5771 0.33523 0.8781 0.0
C157 C 0.56735 0.37045 0.88771 0.0
H158 H 0.5201 0.28099 0.91341 0.0
H159 H 0.59732 0.33307 0.86265 0.0
H160 H 0.48743 0.23579 0.88473 0.0
H161 H 0.46047 0.28861 0.81494 0.0
H162 H 0.68395 0.276 0.92778 0.0
H163 H 0.50162 0.3416 0.93095 0.0
H164 H 0.58006 0.39527 0.87943 0.0
C165 C 0.76883 0.49876 0.33316 0.0
C166 C 0.77093 0.46052 0.33 0.0
N167 N 0.781 0.44512 0.35255 0.0
N168 N 0.77792 0.50764 0.35754 0.0
C169 C 0.78525 0.47417 0.36892 0.0
H170 H 0.76007 0.51873 0.31871 0.0
Co171 Co 0.77722 0.55701 0.37006 0.0
C172 C 0.78539 0.54884 0.4258 0.0
O173 O 0.75657 0.57183 0.42783 0.0
N174 N 0.77773 0.608 0.38162 0.0
C175 C 0.79834 0.66034 0.4005 0.0
C176 C 0.80326 0.62229 0.39821 0.0
C177 C 0.75946 0.63895 0.3727 0.0
N178 N 0.77081 0.6708 0.3844 0.0
O179 O 0.82634 0.56489 0.35606 0.0
H180 H 0.82554 0.60644 0.40729 0.0
H181 H 0.73969 0.63889 0.35701 0.0
O182 O 0.79826 0.54011 0.40358 0.0
C183 C 0.82164 0.5778 0.33345 0.0
O184 O 0.78713 0.58419 0.32552 0.0
N185 N 0.72707 0.54909 0.38133 0.0
C186 C 0.65118 0.53639 0.39266 0.0
C187 C 0.6794 0.51376 0.4034 0.0
C188 C 0.71695 0.52015 0.3972 0.0
C189 C 0.69981 0.56944 0.36927 0.0
C190 C 0.66188 0.56446 0.37522 0.0
H191 H 0.73773 0.50136 0.40511 0.0
H192 H 0.70715 0.58853 0.35409 0.0
H193 H 0.79275 0.4709 0.38892 0.0
H194 H 0.7638 0.44504 0.31283 0.0
H195 H 0.81518 0.67922 0.41196 0.0
H196 H 0.67263 0.49044 0.41591 0.0
H197 H 0.64123 0.58212 0.36583 0.0
C198 C 0.50184 0.71886 0.84586 0.0
C199 C 0.53949 0.71975 0.84014 0.0
N200 N 0.55328 0.7533 0.84727 0.0
N201 N 0.4915 0.75137 0.85711 0.0
C202 C 0.5232 0.77247 0.8566 0.0
H203 H 0.48336 0.69516 0.84305 0.0
Co204 Co 0.44197 0.75808 0.87003 0.0
C205 C 0.48597 0.79634 0.91491 0.0
O206 O 0.52053 0.78707 0.90881 0.0
N207 N 0.3923 0.76383 0.88219 0.0
C208 C 0.34359 0.76575 0.90893 0.0
C209 C 0.38204 0.76553 0.90712 0.0
C210 C 0.35931 0.76244 0.8692 0.0
N211 N 0.32914 0.76362 0.88511 0.0
O212 O 0.43624 0.80288 0.84967 0.0
H213 H 0.40117 0.76437 0.9232 0.0
H214 H 0.3575 0.75938 0.84858 0.0
O215 O 0.45851 0.78653 0.90056 0.0
C216 C 0.43007 0.79378 0.82634 0.0
O217 O 0.43029 0.75793 0.82044 0.0
N218 N 0.44598 0.71242 0.8881 0.0
C219 C 0.45371 0.63868 0.90573 0.0
C220 C 0.47991 0.66632 0.91256 0.0
C221 C 0.47544 0.70303 0.90364 0.0
C222 C 0.41973 0.6862 0.88183 0.0
C223 C 0.42251 0.64953 0.89094 0.0
H224 H 0.49734 0.72283 0.90759 0.0
H225 H 0.39722 0.69324 0.86875 0.0
H226 H 0.52446 0.80111 0.86335 0.0
H227 H 0.55587 0.69647 0.83282 0.0
H228 H 0.32751 0.76533 0.92658 0.0
H229 H 0.505 0.65937 0.92333 0.0
H230 H 0.40109 0.62957 0.88548 0.0
C231 C 0.28614 0.48537 0.34807 0.0
C232 C 0.28221 0.52329 0.34416 0.0
N233 N 0.25839 0.53694 0.36196 0.0
N234 N 0.2646 0.47471 0.36807 0.0
C235 C 0.24804 0.50687 0.37625 0.0
H236 H 0.30488 0.46696 0.33764 0.0
Co237 Co 0.26531 0.42553 0.38112 0.0
C238 C 0.20841 0.4292 0.42275 0.0
O239 O 0.18764 0.40377 0.41135 0.0
N240 N 0.26674 0.37597 0.39393 0.0
C241 C 0.27471 0.3273 0.42021 0.0
C242 C 0.27383 0.3658 0.41843 0.0
C243 C 0.26353 0.34303 0.38117 0.0
N244 N 0.26827 0.31291 0.39674 0.0
O245 O 0.22021 0.41448 0.36224 0.0
H246 H 0.27866 0.3852 0.43402 0.0
H247 H 0.25888 0.3411 0.36072 0.0
O248 O 0.23813 0.44106 0.41174 0.0
C249 C 0.22969 0.40693 0.33918 0.0
O250 O 0.26567 0.40645 0.33347 0.0
N251 N 0.31087 0.43602 0.39722 0.0
C252 C 0.38318 0.45733 0.41097 0.0
C253 C 0.35195 0.47719 0.4202 0.0
C254 C 0.31587 0.46602 0.41311 0.0
C255 C 0.34086 0.41565 0.38877 0.0
C256 C 0.37735 0.42553 0.39572 0.0
H257 H 0.29228 0.48308 0.41896 0.0
H258 H 0.33654 0.39276 0.3755 0.0
H259 H 0.22967 0.50844 0.39276 0.0
H260 H 0.2973 0.53987 0.33012 0.0
H261 H 0.27958 0.3112 0.43753 0.0
H262 H 0.35548 0.5021 0.43184 0.0
H263 H 0.40084 0.40996 0.38782 0.0
C264 C 0.99926 0.76719 0.839 0.0
C265 C 0.03688 0.7629 0.83414 0.0
N266 N 0.05209 0.74173 0.85292 0.0
N267 N 0.99017 0.74866 0.86068 0.0
C268 C 0.02296 0.73293 0.86865 0.0
H269 H 0.98012 0.78491 0.8283 0.0
Co270 Co 0.94178 0.75398 0.87503 0.0
C271 C 0.96608 0.7401 0.93037 0.0
O272 O 0.96454 0.77573 0.93646 0.0
N273 N 0.89202 0.75932 0.88805 0.0
C274 C 0.84189 0.7713 0.91233 0.0
C275 C 0.88039 0.76865 0.91186 0.0
C276 C 0.85962 0.75666 0.87436 0.0
N277 N 0.82854 0.76371 0.88872 0.0
O278 O 0.92857 0.70593 0.86129 0.0
H279 H 0.89827 0.77468 0.9279 0.0
H280 H 0.85893 0.74998 0.85415 0.0
O281 O 0.95755 0.72899 0.90768 0.0
C282 C 0.92265 0.70689 0.83719 0.0
O283 O 0.92377 0.73922 0.82512 0.0
N284 N 0.95499 0.80289 0.88637 0.0
C285 C 0.97675 0.87699 0.89516 0.0
C286 C 1.00145 0.84732 0.90016 0.0
C287 C 0.99035 0.81074 0.8952 0.0
C288 C 0.93075 0.83166 0.88098 0.0
C289 C 0.94081 0.86893 0.88568 0.0
H290 H 0.01026 0.78863 0.89914 0.0
H291 H 0.90389 0.82606 0.87212 0.0
H292 H 0.02588 0.71764 0.8865 0.0
H293 H 0.05235 0.77691 0.81903 0.0
H294 H 0.82524 0.77949 0.92877 0.0
H295 H 0.02942 0.85231 0.90761 0.0
H296 H 0.9213 0.89126 0.88087 0.0
C297 C 0.22168 0.98601 0.33996 0.0
C298 C 0.225 0.02418 0.33681 0.0
N299 N 0.24612 0.03777 0.3561 0.0
N300 N 0.2409 0.97521 0.36102 0.0
C301 C 0.25557 0.00744 0.37044 0.0
H302 H 0.2047 0.96758 0.32832 0.0
Co303 Co 0.23952 0.92632 0.37458 0.0
C304 C 0.29805 0.92742 0.41492 0.0
O305 O 0.31457 0.89791 0.40482 0.0
N306 N 0.23736 0.87709 0.38825 0.0
C307 C 0.22837 0.83033 0.41597 0.0
C308 C 0.22995 0.86861 0.41301 0.0
C309 C 0.24008 0.84326 0.37652 0.0
N310 N 0.23469 0.8143 0.39299 0.0
O311 O 0.28316 0.91347 0.35453 0.0
H312 H 0.22552 0.88908 0.42802 0.0
H313 H 0.24492 0.83979 0.35619 0.0
O314 O 0.26937 0.94174 0.40389 0.0
C315 C 0.27214 0.90355 0.33223 0.0
O316 O 0.23575 0.90179 0.32801 0.0
N317 N 0.19523 0.93867 0.39176 0.0
C318 C 0.12397 0.96154 0.40716 0.0
C319 C 0.15602 0.9798 0.41649 0.0
C320 C 0.19161 0.96772 0.40866 0.0
C321 C 0.16442 0.91995 0.38314 0.0
C322 C 0.12847 0.93058 0.39091 0.0
H323 H 0.21593 0.98316 0.41499 0.0
H324 H 0.16774 0.8977 0.36922 0.0
H325 H 0.27177 0.00892 0.38797 0.0
H326 H 0.21112 0.04088 0.32223 0.0
H327 H 0.22318 0.81548 0.43375 0.0
H328 H 0.15348 1.00402 0.4289 0.0
H329 H 0.10431 0.91628 0.38294 0.0
C330 C 0.01303 0.23244 0.85278 0.0
C331 C 0.97579 0.23419 0.84614 0.0
N332 N 0.96182 0.26736 0.85399 0.0
N333 N 0.02294 0.26401 0.86535 0.0
C334 C 0.99137 0.2855 0.86474 0.0
H335 H 0.03159 0.2089 0.84932 0.0
Co336 Co 0.0724 0.26968 0.87859 0.0
C337 C 0.02684 0.30158 0.92478 0.0
O338 O 0.99296 0.29261 0.91708 0.0
N339 N 0.1219 0.27421 0.89086 0.0
C340 C 0.17117 0.27157 0.91702 0.0
C341 C 0.13266 0.27275 0.91569 0.0
C342 C 0.15453 0.27398 0.87743 0.0
N343 N 0.18503 0.27202 0.89297 0.0
O344 O 0.07773 0.31668 0.86091 0.0
H345 H 0.1138 0.27057 0.93189 0.0
H346 H 0.15577 0.27293 0.85669 0.0
O347 O 0.05542 0.29427 0.91068 0.0
C348 C 0.08059 0.31158 0.83674 0.0
O349 O 0.07713 0.27742 0.82763 0.0
N350 N 0.06916 0.22205 0.8938 0.0
C351 C 0.0602 0.14584 0.90387 0.0
C352 C 0.03624 0.17239 0.91519 0.0
C353 C 0.04119 0.21043 0.90988 0.0
C354 C 0.09398 0.19677 0.88385 0.0
C355 C 0.0904 0.15861 0.88896 0.0
H356 H 0.0205 0.22971 0.91697 0.0
H357 H 0.11531 0.20594 0.87048 0.0
H358 H 0.98979 0.31363 0.87244 0.0
H359 H 0.95973 0.21174 0.83752 0.0
H360 H 0.18766 0.26953 0.93442 0.0
H361 H 0.01216 0.1638 0.92646 0.0
H362 H 0.10993 0.13916 0.88012 0.0
C363 C 0.7435 0.99676 0.326 0.0
C364 C 0.74281 0.95829 0.32402 0.0
N365 N 0.73267 0.94406 0.34691 0.0
N366 N 0.73344 0.00694 0.34997 0.0
C367 C 0.72704 0.97405 0.36231 0.0
H368 H 0.75177 0.01601 0.31101 0.0
Co369 Co 0.7317 0.05698 0.3611 0.0
C370 C 0.71761 0.05339 0.41648 0.0
O371 O 0.74473 0.07811 0.41882 0.0
N372 N 0.72879 0.10839 0.37144 0.0
C373 C 0.7032 0.16055 0.3877 0.0
C374 C 0.69873 0.12269 0.3841 0.0
C375 C 0.75011 0.13908 0.36624 0.0
N376 N 0.73547 0.17079 0.3764 0.0
O377 O 0.68374 0.06319 0.34463 0.0
H378 H 0.67441 0.10666 0.38996 0.0
H379 H 0.7752 0.13898 0.35465 0.0
O380 O 0.7081 0.0415 0.39418 0.0
C381 C 0.69057 0.07581 0.32217 0.0
O382 O 0.72573 0.08254 0.31593 0.0
N383 N 0.78078 0.05081 0.37451 0.0
C384 C 0.85648 0.04006 0.38751 0.0
C385 C 0.82807 0.01915 0.3995 0.0
C386 C 0.7906 0.02449 0.39246 0.0
C387 C 0.80818 0.06926 0.36135 0.0
C388 C 0.84596 0.06541 0.3681 0.0
H389 H 0.76978 0.00653 0.40108 0.0
H390 H 0.80094 0.08586 0.34475 0.0
H391 H 0.71889 0.97192 0.38226 0.0
H392 H 0.75066 0.94195 0.30735 0.0
H393 H 0.68348 0.17945 0.39689 0.0
H394 H 0.83466 0.99769 0.41355 0.0
H395 H 0.86666 0.0817 0.35774 0.0
C396 C 0.50368 0.8202 0.15101 0.0
C397 C 0.54169 0.82537 0.15409 0.0
N398 N 0.55795 0.79164 0.1582 0.0
N399 N 0.49564 0.78339 0.15328 0.0
C400 C 0.52924 0.76677 0.15789 0.0
H401 H 0.48329 0.84188 0.14666 0.0
Co402 Co 0.44804 0.76206 0.14779 0.0
C403 C 0.42099 0.80328 0.10156 0.0
O404 O 0.38667 0.80647 0.11063 0.0
N405 N 0.40006 0.74092 0.14166 0.0
C406 C 0.35266 0.71172 0.12225 0.0
C407 C 0.39055 0.71887 0.12161 0.0
C408 C 0.36715 0.74675 0.15419 0.0
N409 N 0.33783 0.72947 0.14266 0.0
O410 O 0.42495 0.80367 0.16538 0.0
H411 H 0.40951 0.70989 0.10662 0.0
H412 H 0.36441 0.76417 0.17105 0.0
O413 O 0.44646 0.7872 0.11485 0.0
C414 C 0.42971 0.79873 0.18946 0.0
O415 O 0.44899 0.76916 0.197 0.0
N416 N 0.47082 0.71985 0.1334 0.0
C417 C 0.50411 0.65197 0.11996 0.0
C418 C 0.50441 0.68235 0.10277 0.0
C419 C 0.48796 0.71653 0.11003 0.0
C420 C 0.47016 0.69054 0.15016 0.0
C421 C 0.48675 0.6564 0.14389 0.0
H422 H 0.48917 0.74008 0.09698 0.0
H423 H 0.45678 0.69398 0.16866 0.0
H424 H 0.53278 0.73678 0.15984 0.0
H425 H 0.5561 0.852 0.15295 0.0
H426 H 0.33693 0.69637 0.10794 0.0
H427 H 0.51776 0.67985 0.08416 0.0
H428 H 0.48562 0.63348 0.15755 0.0
C429 C 0.28546 0.50485 0.68766 0.0
C430 C 0.28086 0.54287 0.69028 0.0
N431 N 0.25965 0.55548 0.67067 0.0
N432 N 0.26682 0.49292 0.66671 0.0
C433 C 0.25147 0.52457 0.65657 0.0
H434 H 0.30322 0.48735 0.69953 0.0
Co435 Co 0.27138 0.44309 0.65533 0.0
C436 C 0.21436 0.43492 0.615 0.0
O437 O 0.20059 0.40605 0.62756 0.0
N438 N 0.27729 0.39284 0.64438 0.0
C439 C 0.29211 0.3436 0.62012 0.0
C440 C 0.28802 0.38195 0.62065 0.0
C441 C 0.27481 0.36037 0.6579 0.0
N442 N 0.28381 0.32998 0.64355 0.0
O443 O 0.22741 0.42963 0.67498 0.0
H444 H 0.29305 0.40084 0.60474 0.0
H445 H 0.26754 0.35901 0.67803 0.0
O446 O 0.24133 0.45361 0.62481 0.0
C447 C 0.23403 0.42475 0.69881 0.0
O448 O 0.26886 0.42674 0.70701 0.0
N449 N 0.31536 0.4566 0.63801 0.0
C450 C 0.38452 0.48258 0.6206 0.0
C451 C 0.35102 0.49724 0.61056 0.0
C452 C 0.3166 0.4837 0.61943 0.0
C453 C 0.34767 0.4414 0.64752 0.0
C454 C 0.38266 0.45364 0.63881 0.0
H455 H 0.29112 0.49651 0.61231 0.0
H456 H 0.34621 0.42065 0.66267 0.0
H457 H 0.23589 0.52522 0.63874 0.0
H458 H 0.29412 0.56025 0.70467 0.0
H459 H 0.30036 0.32693 0.60369 0.0
H460 H 0.35147 0.5198 0.59659 0.0
H461 H 0.40799 0.44211 0.6473 0.0
C462 C 0.4989 0.29817 0.16943 0.0
C463 C 0.46052 0.2987 0.17192 0.0
N464 N 0.44624 0.27011 0.15818 0.0
N465 N 0.50906 0.26947 0.1541 0.0
C466 C 0.47634 0.25281 0.14744 0.0
H467 H 0.51835 0.31723 0.17853 0.0
Co468 Co 0.5592 0.25759 0.1474 0.0
C469 C 0.56323 0.23435 0.09347 0.0
O470 O 0.59333 0.25546 0.09166 0.0
N471 N 0.61041 0.24473 0.14167 0.0
C472 C 0.6596 0.20803 0.13262 0.0
C473 C 0.6212 0.20968 0.13484 0.0
C474 C 0.64333 0.2635 0.14437 0.0
N475 N 0.67348 0.24189 0.13865 0.0
O476 O 0.55402 0.21179 0.16657 0.0
H477 H 0.60216 0.18654 0.13161 0.0
H478 H 0.64572 0.29228 0.15042 0.0
O479 O 0.54514 0.23237 0.11475 0.0
C480 C 0.55696 0.21813 0.19057 0.0
O481 O 0.56023 0.25312 0.19816 0.0
N482 N 0.56403 0.30467 0.131 0.0
C483 C 0.56319 0.38005 0.11568 0.0
C484 C 0.54322 0.35287 0.10186 0.0
C485 C 0.54311 0.31561 0.11026 0.0
C486 C 0.58252 0.33093 0.14511 0.0
C487 C 0.58316 0.36852 0.13756 0.0
H488 H 0.52437 0.29624 0.10093 0.0
H489 H 0.5948 0.32314 0.16333 0.0
H490 H 0.47469 0.22793 0.13562 0.0
H491 H 0.44435 0.3187 0.18302 0.0
H492 H 0.67614 0.18356 0.1276 0.0
H493 H 0.52655 0.36049 0.08525 0.0
H494 H 0.59727 0.38868 0.1497 0.0
C495 C 0.72053 0.52029 0.67648 0.0
C496 C 0.7172 0.48219 0.67926 0.0
N497 N 0.74595 0.46568 0.66676 0.0
N498 N 0.7513 0.52794 0.66232 0.0
C499 C 0.76621 0.49404 0.6565 0.0
H500 H 0.70191 0.54125 0.68451 0.0
Co501 Co 0.76726 0.57659 0.65536 0.0
C502 C 0.79822 0.57656 0.60319 0.0
O503 O 0.78155 0.60919 0.60002 0.0
N504 N 0.78422 0.62638 0.64929 0.0
C505 C 0.8257 0.672 0.64199 0.0
C506 C 0.82116 0.63436 0.64637 0.0
C507 C 0.76697 0.6603 0.64708 0.0
N508 N 0.79159 0.68831 0.64239 0.0
O509 O 0.81036 0.56891 0.6769 0.0
H510 H 0.84361 0.61383 0.64686 0.0
H511 H 0.73708 0.66486 0.6483 0.0
O512 O 0.79487 0.55898 0.62457 0.0
C513 C 0.80256 0.56892 0.70078 0.0
O514 O 0.76719 0.57122 0.70785 0.0
N515 N 0.72271 0.58378 0.63649 0.0
C516 C 0.64711 0.57936 0.62179 0.0
C517 C 0.67496 0.55878 0.60879 0.0
C518 C 0.71248 0.56121 0.61649 0.0
C519 C 0.69617 0.60434 0.64905 0.0
C520 C 0.65863 0.60374 0.64142 0.0
H521 H 0.73229 0.54185 0.60807 0.0
H522 H 0.70357 0.61897 0.66648 0.0
H523 H 0.79173 0.49023 0.64548 0.0
H524 H 0.69506 0.46769 0.68949 0.0
H525 H 0.85214 0.68634 0.63903 0.0
H526 H 0.66772 0.53849 0.5942 0.0
H527 H 0.63858 0.62052 0.65203 0.0
H528 H 0.02555 0.09216 0.09075 0.0
H529 H 0.93829 0.10511 0.1478 0.0
H530 H 1.00472 0.02832 0.0827 0.0
H531 H 0.91946 0.04056 0.1413 0.0
H532 H 0.99974 0.90432 0.10853 0.0
H533 H 0.01089 0.97116 0.1042 0.0
H534 H 0.8926 0.99284 0.11699 0.0
H535 H 0.88201 0.92557 0.12246 0.0
C536 C 1.0016 0.08165 0.10135 0.0
C537 C 0.98406 0.10371 0.12027 0.0
C538 C 0.98997 0.04473 0.097 0.0
C539 C 0.96083 0.02877 0.11167 0.0
C540 C 0.94185 0.05166 0.12946 0.0
C541 C 0.9531 0.08868 0.13354 0.0
C542 C 0.97597 0.92332 0.1098 0.0
C543 C 0.94003 0.90978 0.11593 0.0
C544 C 0.98231 0.96179 0.10723 0.0
C545 C 0.95273 0.98773 0.11043 0.0
C546 C 0.91626 0.97387 0.11497 0.0
C547 C 0.91006 0.93534 0.11793 0.0
H548 H 0.06801 0.96097 0.64586 0.0
H549 H 0.10221 0.01281 0.57438 0.0
H550 H 1.00439 0.98369 0.63921 0.0
H551 H 0.03847 0.03755 0.56884 0.0
H552 H 0.93091 0.11083 0.60076 0.0
H553 H 0.99535 0.08571 0.59912 0.0
H554 H 0.95168 0.97299 0.60261 0.0
H555 H 0.88769 0.99775 0.60394 0.0
C556 C 0.06208 0.97663 0.62851 0.0
C557 C 0.09061 0.98467 0.61058 0.0
C558 C 0.02557 0.98996 0.62488 0.0
C559 C 0.01672 0.01232 0.60355 0.0
C560 C 0.04483 0.02051 0.58553 0.0
C561 C 0.08133 0.00646 0.58884 0.0
C562 C 0.93519 0.08072 0.60063 0.0
C563 C 0.90437 0.05624 0.60229 0.0
C564 C 0.97189 0.0664 0.5996 0.0
C565 C 0.97823 0.02749 0.60077 0.0
C566 C 0.94741 1.00308 0.60166 0.0
C567 C 0.91085 0.01729 0.60223 0.0
H568 H 0.48887 0.60741 0.94799 0.0
H569 H 0.43648 0.57801 0.8758 0.0
H570 H 0.5079 0.54187 0.95377 0.0
H571 H 0.45354 0.51299 0.88255 0.0
H572 H 0.46621 0.39462 0.90962 0.0
H573 H 0.44155 0.45813 0.91505 0.0
H574 H 0.55439 0.49978 0.92522 0.0
H575 H 0.57924 0.43607 0.91975 0.0
C576 C 0.48097 0.58715 0.93353 0.0
C577 C 0.46109 0.59832 0.91139 0.0
C578 C 0.49167 0.54965 0.93699 0.0
C579 C 0.48193 0.52255 0.91868 0.0
C580 C 0.4608 0.5333 0.89718 0.0
C581 C 0.4508 0.57071 0.89344 0.0
C582 C 0.48568 0.41715 0.91372 0.0
C583 C 0.52464 0.41055 0.91413 0.0
C584 C 0.47157 0.45343 0.91671 0.0
C585 C 0.49613 0.48367 0.92046 0.0
C586 C 0.53491 0.4768 0.92254 0.0
C587 C 0.5491 0.44052 0.91921 0.0
H588 H 0.59074 0.54263 0.36013 0.0
H589 H 0.61999 0.5129 0.43821 0.0
H590 H 0.52538 0.52763 0.36901 0.0
H591 H 0.55456 0.49597 0.44642 0.0
H592 H 0.4462 0.41973 0.42669 0.0
H593 H 0.5111 0.44274 0.42557 0.0
H594 H 0.47135 0.55116 0.40012 0.0
H595 H 0.4066 0.5284 0.40148 0.0
C596 C 0.58332 0.5335 0.37929 0.0
C597 C 0.61088 0.52903 0.39843 0.0
C598 C 0.54584 0.52473 0.38429 0.0
C599 C 0.53514 0.5107 0.40837 0.0
C600 C 0.56231 0.50655 0.42765 0.0
C601 C 0.59976 0.51601 0.42283 0.0
C602 C 0.4514 0.44867 0.42138 0.0
C603 C 0.42155 0.47234 0.4142 0.0
C604 C 0.48836 0.46183 0.42083 0.0
C605 C 0.49599 0.4986 0.41265 0.0
C606 C 0.46605 0.52266 0.40642 0.0
C607 C 0.4291 0.50973 0.40738 0.0
H608 H 0.03249 0.10476 0.94444 0.0
H609 H 0.06523 0.09563 0.86474 0.0
H610 H 0.01229 0.03909 0.9439 0.0
H611 H 0.04599 0.03046 0.86452 0.0
H612 H 0.04369 0.90604 0.88008 0.0
H613 H 0.0658 0.97018 0.88477 0.0
H614 H 0.96109 1.00088 0.92124 0.0
H615 H 0.9391 0.936 0.91707 0.0
C616 C 0.03561 0.08876 0.92692 0.0
C617 C 0.05087 0.10534 0.90473 0.0
C618 C 0.02401 0.0513 0.92662 0.0
C619 C 0.02777 0.0298 0.90421 0.0
C620 C 0.04339 0.04623 0.88219 0.0
C621 C 0.05467 0.08356 0.88241 0.0
C622 C 0.02554 0.92632 0.8894 0.0
C623 C 0.98971 0.91608 0.89827 0.0
C624 C 0.03811 0.96306 0.89191 0.0
C625 C 0.01512 0.99039 0.90333 0.0
C626 C 0.97946 0.98018 0.91257 0.0
C627 C 0.96674 0.94329 0.90993 0.0
H628 H 0.10116 0.03307 0.39826 0.0
H629 H 0.06131 0.92515 0.42425 0.0
H630 H 0.0364 0.05646 0.39701 0.0
H631 H 0.99649 0.94886 0.42346 0.0
H632 H 0.88732 0.02142 0.43435 0.0
H633 H 0.95276 0.0053 0.44369 0.0
H634 H 0.9828 0.02915 0.36518 0.0
H635 H 0.91752 0.04289 0.35518 0.0
C636 C 0.07862 0.01478 0.40448 0.0
C637 C 0.08604 0.97735 0.41135 0.0
C638 C 0.04169 0.02807 0.40361 0.0
C639 C 0.0117 1.00436 0.41008 0.0
C640 C 0.01927 0.96768 0.41857 0.0
C641 C 0.05618 0.95414 0.41895 0.0
C642 C 0.90772 0.02297 0.41896 0.0
C643 C 0.8968 0.0334 0.39393 0.0
C644 C 0.94519 0.01405 0.42444 0.0
C645 C 0.9726 0.0163 0.40518 0.0
C646 C 0.96214 0.02781 0.38044 0.0
C647 C 0.92465 0.03591 0.3748 0.0
H648 H 0.50073 0.41816 0.09902 0.0
H649 H 0.61775 0.43425 0.11838 0.0
H650 H 0.49284 0.48558 0.09429 0.0
H651 H 0.60949 0.50205 0.11408 0.0
H652 H 0.49115 0.60924 0.07741 0.0
H653 H 0.5108 0.54396 0.07053 0.0
H654 H 0.57377 0.54683 0.14138 0.0
H655 H 0.55434 0.61174 0.14804 0.0
C656 C 0.52508 0.43592 0.10159 0.0
C657 C 0.55985 0.42067 0.10928 0.0
C658 C 0.5205 0.47468 0.09888 0.0
C659 C 0.55048 0.49915 0.10395 0.0
C660 C 0.58575 0.48389 0.11035 0.0
C661 C 0.59042 0.44507 0.1129 0.0
C662 C 0.50996 0.59608 0.09109 0.0
C663 C 0.52104 0.61527 0.11334 0.0
C664 C 0.52097 0.55873 0.08728 0.0
C665 C 0.54364 0.54021 0.10549 0.0
C666 C 0.5566 0.56035 0.12688 0.0
C667 C 0.54528 0.59742 0.13081 0.0
H668 H 0.40242 0.55638 0.62375 0.0
H669 H 0.449 0.44803 0.60445 0.0
H670 H 0.46493 0.58449 0.61991 0.0
H671 H 0.5115 0.47646 0.60003 0.0
H672 H 0.61148 0.55793 0.57692 0.0
H673 H 0.54657 0.53642 0.57215 0.0
H674 H 0.52489 0.56266 0.65148 0.0
H675 H 0.58971 0.58132 0.65713 0.0
C676 C 0.42586 0.53884 0.61798 0.0
C677 C 0.42106 0.50008 0.6144 0.0
C678 C 0.4615 0.55489 0.61585 0.0
C679 C 0.49272 0.53257 0.60957 0.0
C680 C 0.48764 0.49421 0.60461 0.0
C681 C 0.45209 0.47797 0.60728 0.0
C682 C 0.59305 0.55904 0.59343 0.0
C683 C 0.60635 0.57147 0.61745 0.0
C684 C 0.55585 0.54698 0.59057 0.0
C685 C 0.53099 0.54816 0.61143 0.0
C686 C 0.54354 0.56203 0.63503 0.0
C687 C 0.5808 0.57312 0.63812 0.0
H688 H 0.01044 0.30752 0.092 0.0
H689 H 0.12929 0.30958 0.07592 0.0
H690 H 0.99682 0.3165 0.0467 0.0
H691 H 0.1162 0.31499 0.0302 0.0
H692 H 0.08576 0.33826 0.94791 0.0
H693 H 0.09732 0.34508 0.99387 0.0
H694 H 0.99413 0.28506 1.00964 0.0
H695 H 0.98165 0.28118 0.9643 0.0
C696 C 0.03366 0.30981 0.07862 0.0
C697 C 0.07086 0.30787 0.0874 0.0
C698 C 0.02596 0.31447 0.05248 0.0
C699 C 0.05528 0.31573 0.03423 0.0
C700 C 0.09265 0.31474 0.04333 0.0
C701 C 0.1003 0.31138 0.06963 0.0
C702 C 0.0653 0.32732 0.96136 0.0
C703 C 0.03268 0.30947 0.95243 0.0
C704 C 0.07206 0.33078 0.9878 0.0
C705 C 0.04683 0.31555 1.00597 0.0
C706 C 0.01396 0.29821 0.99673 0.0
C707 C 0.00679 0.2957 0.97046 0.0
H708 H 0.64747 0.06353 0.43649 0.0
H709 H 0.75461 0.01085 0.45078 0.0
H710 H 0.63133 0.05704 0.48206 0.0
H711 H 0.7392 1.00467 0.49601 0.0
H712 H 0.71664 0.00603 0.57769 0.0
H713 H 0.70406 0.98513 0.5337 0.0
H714 H 0.65859 0.09469 0.51568 0.0
H715 H 0.67089 0.11499 0.55924 0.0
C716 C 0.66672 0.0489 0.44917 0.0
C717 C 0.70212 0.03747 0.44027 0.0
C718 C 0.65775 0.04553 0.4753 0.0
C719 C 0.68419 0.03085 0.49286 0.0
C720 C 0.71793 0.01578 0.48319 0.0
C721 C 0.72688 0.01934 0.45721 0.0
C722 C 0.70243 0.02494 0.56457 0.0
C723 C 0.69507 0.06222 0.5717 0.0
C724 C 0.69551 0.01314 0.53931 0.0
C725 C 0.68084 0.03838 0.52095 0.0
C726 C 0.66964 0.07429 0.52916 0.0
C727 C 0.67688 0.08609 0.55418 0.0
H728 H 0.02926 0.72209 0.95681 0.0
H729 H 0.90989 0.70314 0.95382 0.0
H730 H 0.03081 0.69972 1.00111 0.0
H731 H 0.91023 0.68356 0.99831 0.0
H732 H 0.90719 0.66277 0.07952 0.0
H733 H 0.92133 0.65057 0.0346 0.0
H734 H 0.01594 0.72646 0.0394 0.0
H735 H 1.00351 0.73539 0.08478 0.0
C736 C 1.00359 0.71164 0.96543 0.0
C737 C 0.96955 0.71371 0.95192 0.0
C738 C 1.00422 0.69959 0.99103 0.0
C739 C 0.97052 0.6907 1.00394 0.0
C740 C 0.93701 0.68963 0.98941 0.0
C741 C 0.93664 0.70079 0.96366 0.0
C742 C 0.93191 0.67552 0.07108 0.0
C743 C 0.95401 0.70033 0.08547 0.0
C744 C 0.93975 0.66907 0.04517 0.0
C745 C 0.96897 0.68856 0.03271 0.0
C746 C 0.99318 0.71069 0.04793 0.0
C747 C 0.98603 0.71608 0.07412 0.0
H748 H 0.27342 0.99003 0.44009 0.0
H749 H 0.34272 0.89137 0.45027 0.0
H750 H 0.27927 1.00422 0.48543 0.0
H751 H 0.34966 0.90629 0.49577 0.0
H752 H 0.30246 0.91659 0.57932 0.0
H753 H 0.31084 0.90455 0.53365 0.0
H754 H 0.31898 0.02379 0.51959 0.0
H755 H 0.30882 0.03584 0.56495 0.0
C756 C 0.29046 0.97166 0.45192 0.0
C757 C 0.3072 0.9393 0.44152 0.0
C758 C 0.29413 0.97999 0.478 0.0
C759 C 0.31479 0.95629 0.49445 0.0
C760 C 0.33307 0.92487 0.4838 0.0
C761 C 0.32939 0.91652 0.45762 0.0
C762 C 0.30606 0.94024 0.56652 0.0
C763 C 0.30371 0.9772 0.57581 0.0
C764 C 0.31136 0.93332 0.54028 0.0
C765 C 0.31487 0.96323 0.52274 0.0
C766 C 0.31536 1.00007 0.53238 0.0
C767 C 0.30982 0.00696 0.55852 0.0
H768 H 0.57506 0.16425 0.0746 0.0
H769 H 0.52213 0.27031 0.05765 0.0
H770 H 0.56788 0.14536 0.02965 0.0
H771 H 0.51584 0.25252 0.01294 0.0
H772 H 0.50463 0.21783 0.93294 0.0
H773 H 0.49195 0.21627 0.97889 0.0
H774 H 0.60002 0.16367 0.99174 0.0
H775 H 0.61195 0.16411 0.94582 0.0
C776 C 0.56051 0.18283 0.06142 0.0
C777 C 0.54843 0.21836 0.06957 0.0
C778 C 0.55692 0.17236 0.0356 0.0
C779 C 0.54164 0.19751 0.01744 0.0
C780 C 0.5272 0.23203 0.02623 0.0
C781 C 0.53071 0.24234 0.05197 0.0
C782 C 0.52528 0.20514 0.94555 0.0
C783 C 0.55955 0.19161 0.93575 0.0
C784 C 0.5181 0.20441 0.97196 0.0
C785 C 0.54522 0.19053 0.98925 0.0
C786 C 0.57824 0.17433 0.97916 0.0
C787 C 0.58522 0.17469 0.95271 0.0
H788 H 0.79233 0.5035 0.58729 0.0
H789 H 0.83991 0.61069 0.56693 0.0
H790 H 0.80242 0.48146 0.54323 0.0
H791 H 0.84997 0.58913 0.52332 0.0
H792 H 0.85703 0.55514 0.4442 0.0
H793 H 0.87507 0.54853 0.48947 0.0
H794 H 0.76509 0.50361 0.50653 0.0
H795 H 0.7476 0.51022 0.46168 0.0
C796 C 0.80644 0.52171 0.57371 0.0
C797 C 0.81497 0.5589 0.58031 0.0
C798 C 0.81199 0.50925 0.54845 0.0
C799 C 0.82653 0.5337 0.52961 0.0
C800 C 0.83898 0.56938 0.53723 0.0
C801 C 0.83301 0.58189 0.56225 0.0
C802 C 0.83756 0.54219 0.45751 0.0
C803 C 0.80099 0.53323 0.44967 0.0
C804 C 0.84769 0.53867 0.48344 0.0
C805 C 0.82136 0.52599 0.50173 0.0
C806 C 0.78625 0.51314 0.49308 0.0
C807 C 0.77609 0.51706 0.46736 0.0
H808 H 0.48819 0.82453 0.08131 0.0
H809 H 0.37281 0.80296 0.06072 0.0
H810 H 0.50414 0.83274 0.03624 0.0
H811 H 0.38895 0.80855 0.01545 0.0
H812 H 0.42274 0.83126 0.93396 0.0
H813 H 0.4068 0.84166 0.97902 0.0
H814 H 0.5147 0.7956 1.00126 0.0
H815 H 0.53093 0.78716 0.95665 0.0
C816 C 0.46619 0.82172 0.06706 0.0
C817 C 0.42931 0.81296 0.07451 0.0
C818 C 0.47535 0.82603 0.04113 0.0
C819 C 0.44811 0.8206 0.02186 0.0
C820 C 0.41077 0.81342 0.02952 0.0
C821 C 0.40144 0.81001 0.05555 0.0
C822 C 0.4432 0.82403 0.94856 0.0
C823 C 0.478 0.80819 0.94168 0.0
C824 C 0.43399 0.82969 0.97446 0.0
C825 C 0.4592 0.8192 0.99411 0.0
C826 C 0.49461 0.8048 0.98696 0.0
C827 C 0.50397 0.79973 0.96117 0.0
H828 H 0.17654 0.38692 0.5834 0.0
H829 H 0.23098 0.49506 0.58409 0.0
H830 H 0.17002 0.39077 0.5371 0.0
H831 H 0.22298 0.49984 0.53773 0.0
H832 H 0.14878 0.40931 0.45348 0.0
H833 H 0.14341 0.41651 0.49991 0.0
H834 H 0.25025 0.47403 0.50112 0.0
H835 H 0.25461 0.4683 0.45501 0.0
C836 C 0.18626 0.41203 0.57375 0.0
C837 C 0.20464 0.44051 0.5875 0.0
C838 C 0.18235 0.41436 0.54705 0.0
C839 C 0.19631 0.44546 0.53335 0.0
C840 C 0.21268 0.47499 0.54739 0.0
C841 C 0.21702 0.47243 0.57408 0.0
C842 C 0.17074 0.42414 0.46363 0.0
C843 C 0.20222 0.43804 0.45037 0.0
C844 C 0.16786 0.42799 0.49036 0.0
C845 C 0.19657 0.44553 0.50458 0.0
C846 C 0.22721 0.46082 0.49106 0.0
C847 C 0.22986 0.45732 0.4644 0.0
H848 H 0.11688 0.34917 0.19483 0.0
H849 H 0.09681 0.26066 0.24992 0.0
H850 H 0.14408 0.38779 0.22902 0.0
H851 H 0.12415 0.29855 0.28355 0.0
H852 H 0.15761 0.37963 0.34453 0.0
H853 H 0.11777 0.35421 0.31028 0.0
H854 H 0.20165 0.38507 0.25414 0.0
H855 H 0.24063 0.41074 0.28794 0.0
C856 C 0.11807 0.33806 0.21418 0.0
C857 C 0.10501 0.30173 0.21956 0.0
C858 C 0.13364 0.36011 0.23376 0.0
C859 C 0.13619 0.34631 0.2591 0.0
C860 C 0.12208 0.3104 0.26445 0.0
C861 C 0.1068 0.28844 0.24498 0.0
C862 C 0.16699 0.38165 0.3248 0.0
C863 C 0.2024 0.3967 0.31896 0.0
C864 C 0.14438 0.36691 0.3052 0.0
C865 C 0.15668 0.36729 0.27944 0.0
C866 C 0.19106 0.38454 0.27362 0.0
C867 C 0.21362 0.39895 0.29312 0.0
H868 H 0.64502 0.10042 0.68666 0.0
H869 H 0.72956 0.07183 0.74288 0.0
H870 H 0.60638 0.12845 0.7205 0.0
H871 H 0.69145 0.10009 0.77647 0.0
H872 H 0.61267 0.14955 0.83494 0.0
H873 H 0.6337 0.10387 0.80269 0.0
H874 H 0.61861 0.1873 0.74328 0.0
H875 H 0.59764 0.23227 0.77509 0.0
C876 C 0.65479 0.09905 0.70632 0.0
C877 C 0.69049 0.08438 0.71209 0.0
C878 C 0.63284 0.11536 0.72568 0.0
C879 C 0.64611 0.11702 0.75114 0.0
C880 C 0.68026 0.09919 0.75716 0.0
C881 C 0.70224 0.08317 0.73783 0.0
C882 C 0.61332 0.15778 0.81492 0.0
C883 C 0.60399 0.19461 0.80759 0.0
C884 C 0.62539 0.13171 0.79648 0.0
C885 C 0.62779 0.14192 0.77038 0.0
C886 C 0.6166 0.17823 0.76308 0.0
C887 C 0.605 0.20422 0.78143 0.0
H888 H 0.89387 0.60001 0.34507 0.0
H889 H 0.81966 0.57509 0.2819 0.0
H890 H 0.94044 0.62485 0.31462 0.0
H891 H 0.86511 0.59996 0.25187 0.0
H892 H 0.94724 0.64235 0.19831 0.0
H893 H 0.92504 0.59805 0.23072 0.0
H894 H 0.93997 0.6823 0.28933 0.0
H895 H 0.96309 0.72592 0.25723 0.0
C896 C 0.88797 0.59899 0.3247 0.0
C897 C 0.85304 0.58617 0.31583 0.0
C898 C 0.91445 0.61335 0.30728 0.0
C899 C 0.90648 0.61463 0.28076 0.0
C900 C 0.8726 0.59908 0.27201 0.0
C901 C 0.84624 0.58518 0.28931 0.0
C902 C 0.94691 0.65098 0.21822 0.0
C903 C 0.95608 0.68793 0.2251 0.0
C904 C 0.934 0.62566 0.2368 0.0
C905 C 0.92992 0.63686 0.26258 0.0
C906 C 0.94278 0.67258 0.26975 0.0
C907 C 0.95574 0.69779 0.25122 0.0
H908 H 0.40401 0.86632 0.83224 0.0
H909 H 0.43058 0.78311 0.77486 0.0
H910 H 0.37643 0.90643 0.79885 0.0
H911 H 0.40254 0.82229 0.74191 0.0
H912 H 0.3593 0.90334 0.6832 0.0
H913 H 0.40202 0.8783 0.71604 0.0
H914 H 0.31924 0.90245 0.77447 0.0
H915 H 0.27747 0.92792 0.7421 0.0
C916 C 0.40462 0.85692 0.81249 0.0
C917 C 0.41908 0.82136 0.80628 0.0
C918 C 0.38857 0.87972 0.79335 0.0
C919 C 0.38684 0.86749 0.76763 0.0
C920 C 0.40357 0.83295 0.76135 0.0
C921 C 0.4194 0.81024 0.78038 0.0
C922 C 0.35065 0.90389 0.70313 0.0
C923 C 0.31481 0.91722 0.70995 0.0
C924 C 0.375 0.88937 0.72195 0.0
C925 C 0.36407 0.8881 0.74799 0.0
C926 C 0.32898 0.9033 0.75479 0.0
C927 C 0.30475 0.91759 0.73607 0.0
H928 H 0.86179 0.66149 0.84097 0.0
H929 H 0.96453 0.67842 0.79879 0.0
H930 H 0.84038 0.61738 0.80848 0.0
H931 H 0.94471 0.63245 0.76693 0.0
H932 H 0.86632 0.61073 0.69732 0.0
H933 H 0.9027 0.63452 0.73319 0.0
H934 H 0.84087 0.56232 0.78497 0.0
H935 H 0.80299 0.54052 0.74902 0.0
C936 C 0.88046 0.6543 0.82528 0.0
C937 C 0.91468 0.67303 0.82224 0.0
C938 C 0.86834 0.62894 0.80657 0.0
C939 C 0.89055 0.62154 0.78466 0.0
C940 C 0.92636 0.63807 0.78306 0.0
C941 C 0.93801 0.66401 0.80145 0.0
C942 C 0.86141 0.59911 0.71626 0.0
C943 C 0.8317 0.57413 0.7205 0.0
C944 C 0.88231 0.61271 0.73697 0.0
C945 C 0.87432 0.60101 0.76229 0.0
C946 C 0.8471 0.57293 0.76596 0.0
C947 C 0.82568 0.56004 0.74533 0.0
H948 H 0.34989 0.90393 0.33205 0.0
H949 H 0.25346 0.88121 0.28418 0.0
H950 H 0.39148 0.88646 0.29643 0.0
H951 H 0.29441 0.86308 0.2493 0.0
H952 H 0.37323 0.8512 0.18338 0.0
H953 H 0.3384 0.88325 0.21753 0.0
H954 H 0.40974 0.83048 0.27429 0.0
H955 H 0.44489 0.79977 0.24044 0.0
C956 C 0.33759 0.89528 0.314 0.0
C957 C 0.29836 0.89378 0.31108 0.0
C958 C 0.36135 0.88521 0.29359 0.0
C959 C 0.34635 0.87346 0.26985 0.0
C960 C 0.30712 0.87267 0.26698 0.0
C961 C 0.28354 0.88271 0.28724 0.0
C962 C 0.38189 0.84718 0.20313 0.0
C963 C 0.41155 0.82265 0.20918 0.0
C964 C 0.36177 0.86525 0.22274 0.0
C965 C 0.37095 0.85915 0.24878 0.0
C966 C 0.40197 0.83622 0.25458 0.0
C967 C 0.42197 0.81826 0.23507 0.0
H968 H 0.05178 0.32959 0.79032 0.0
H969 H 0.1414 0.35674 0.84261 0.0
H970 H 0.08275 0.3651 0.75638 0.0
H971 H 0.17407 0.39005 0.80848 0.0
H972 H 0.22683 0.45518 0.74592 0.0
H973 H 0.18306 0.43765 0.77972 0.0
H974 H 0.13214 0.3568 0.72858 0.0
H975 H 0.17448 0.37674 0.69433 0.0
C976 C 0.07779 0.34403 0.79463 0.0
C977 C 0.09404 0.34093 0.81908 0.0
C978 C 0.09597 0.36384 0.77506 0.0
C979 C 0.13151 0.38002 0.77926 0.0
C980 C 0.1466 0.37861 0.80433 0.0
C981 C 0.12786 0.35957 0.82408 0.0
C982 C 0.20566 0.4342 0.74186 0.0
C983 C 0.20396 0.41721 0.71761 0.0
C984 C 0.18076 0.4238 0.76133 0.0
C985 C 0.15418 0.39521 0.75732 0.0
C986 C 0.15165 0.37929 0.73255 0.0
C987 C 0.17602 0.39051 0.71282 0.0
H988 H 0.61651 0.09599 0.33033 0.0
H989 H 0.6983 0.0755 0.27075 0.0
H990 H 0.57282 0.12122 0.29804 0.0
H991 H 0.65569 0.10094 0.23894 0.0
H992 H 0.57656 0.14438 0.18213 0.0
H993 H 0.59878 0.09944 0.21438 0.0
H994 H 0.57369 0.17945 0.27424 0.0
H995 H 0.55073 0.22348 0.24231 0.0
C996 C 0.62475 0.09604 0.31031 0.0
C997 C 0.66094 0.08431 0.30308 0.0
C998 C 0.59991 0.11068 0.29183 0.0
C999 C 0.61079 0.11345 0.26584 0.0
C1000 C 0.64599 0.09898 0.25859 0.0
C1001 C 0.6707 0.08472 0.27696 0.0
C1002 C 0.57474 0.15181 0.20224 0.0
C1003 C 0.56251 0.18769 0.20963 0.0
C1004 C 0.58771 0.1262 0.22073 0.0
C1005 C 0.58865 0.13601 0.24694 0.0
C1006 C 0.57326 0.17069 0.25436 0.0
C1007 C 0.56039 0.19618 0.23594 0.0
H1008 H 0.39298 0.27976 0.19453 0.0
H1009 H 0.41043 0.23791 0.1178 0.0
H1010 H 0.32616 0.26691 0.19106 0.0
H1011 H 0.34296 0.2254 0.11403 0.0
H1012 H 0.22468 0.17556 0.12718 0.0
H1013 H 0.29216 0.18654 0.12944 0.0
H1014 H 0.27172 0.29045 0.16974 0.0
H1015 H 0.20458 0.27861 0.16865 0.0
C1016 C 0.38244 0.26807 0.17679 0.0
C1017 C 0.407 0.26023 0.15633 0.0
C1018 C 0.34402 0.26078 0.17475 0.0
C1019 C 0.32891 0.24562 0.15212 0.0
C1020 C 0.3536 0.23688 0.13182 0.0
C1021 C 0.39226 0.24402 0.13393 0.0
C1022 C 0.23453 0.20061 0.13672 0.0
C1023 C 0.2089 0.226 0.14789 0.0
C1024 C 0.27332 0.20714 0.13773 0.0
C1025 C 0.28755 0.23927 0.14992 0.0
C1026 C 0.26189 0.26505 0.16058 0.0
C1027 C 0.22317 0.25849 0.15964 0.0
H1028 H 0.79016 0.22884 0.62899 0.0
H1029 H 0.68189 0.23966 0.66572 0.0
H1030 H 0.80172 0.29607 0.63617 0.0
H1031 H 0.6929 0.30604 0.67239 0.0
H1032 H 0.73257 0.41398 0.70329 0.0
H1033 H 0.734 0.34606 0.6984 0.0
H1034 H 0.77499 0.35883 0.62086 0.0
H1035 H 0.77384 0.42735 0.62597 0.0
C1036 C 0.76901 0.24551 0.63868 0.0
C1037 C 0.73504 0.22908 0.64664 0.0
C1038 C 0.77548 0.28392 0.64262 0.0
C1039 C 0.74831 0.30628 0.65497 0.0
C1040 C 0.71464 0.28955 0.66314 0.0
C1041 C 0.7081 0.25154 0.65903 0.0
C1042 C 0.74219 0.40228 0.68528 0.0
C1043 C 0.75238 0.42588 0.66484 0.0
C1044 C 0.74304 0.36342 0.68247 0.0
C1045 C 0.7539 0.34713 0.65908 0.0
C1046 C 0.76655 0.3706 0.63913 0.0
C1047 C 0.76586 0.40974 0.64202 0.0
H1048 H 0.61607 0.83631 0.14318 0.0
H1049 H 0.59121 0.72836 0.17718 0.0
H1050 H 0.68274 0.82182 0.14468 0.0
H1051 H 0.65814 0.71378 0.17819 0.0
H1052 H 0.77561 0.68566 0.14561 0.0
H1053 H 0.70898 0.70088 0.14675 0.0
H1054 H 0.73487 0.81134 0.17551 0.0
H1055 H 0.8017 0.79602 0.17483 0.0
C1056 C 0.6246 0.80967 0.15128 0.0
C1057 C 0.5978 0.78355 0.16003 0.0
C1058 C 0.66303 0.80136 0.15208 0.0
C1059 C 0.67577 0.76662 0.16148 0.0
C1060 C 0.64918 0.74061 0.17049 0.0
C1061 C 0.61071 0.74901 0.16987 0.0
C1062 C 0.76728 0.71306 0.1525 0.0
C1063 C 0.79435 0.73951 0.16019 0.0
C1064 C 0.72895 0.72177 0.15313 0.0
C1065 C 0.71658 0.75726 0.16131 0.0
C1066 C 0.74352 0.78386 0.16887 0.0
C1067 C 0.78191 0.77507 0.16839 0.0
H1068 H 0.25402 0.58836 0.62368 0.0
H1069 H 0.24937 0.61153 0.70482 0.0
H1070 H 0.24937 0.65557 0.61457 0.0
H1071 H 0.2442 0.67847 0.69589 0.0
H1072 H 0.28144 0.79675 0.67169 0.0
H1073 H 0.2819 0.72955 0.68109 0.0
H1074 H 0.20979 0.70996 0.61581 0.0
H1075 H 0.20968 0.77679 0.60638 0.0
C1076 C 0.25125 0.60773 0.63955 0.0
C1077 C 0.25229 0.59456 0.66497 0.0
C1078 C 0.24866 0.64635 0.63437 0.0
C1079 C 0.24683 0.67273 0.6545 0.0
C1080 C 0.24649 0.65926 0.67988 0.0
C1081 C 0.24923 0.62079 0.68502 0.0
C1082 C 0.26544 0.77814 0.65951 0.0
C1083 C 0.24582 0.79232 0.63816 0.0
C1084 C 0.26562 0.73952 0.66488 0.0
C1085 C 0.24599 0.71405 0.64914 0.0
C1086 C 0.22586 0.72843 0.62807 0.0
C1087 C 0.22579 0.76693 0.62267 0.0
H1088 H 0.92597 0.30724 0.8911 0.0
H1089 H 0.90744 0.24731 0.82041 0.0
H1090 H 0.85807 0.3117 0.89766 0.0
H1091 H 0.83964 0.25106 0.82714 0.0
H1092 H 0.71632 0.28472 0.84013 0.0
H1093 H 0.78319 0.29086 0.83034 0.0
H1094 H 0.81031 0.2651 0.90916 0.0
H1095 H 0.74403 0.25841 0.9189 0.0
C1096 C 0.90745 0.29575 0.87667 0.0
C1097 C 0.92222 0.27658 0.85536 0.0
C1098 C 0.86848 0.29788 0.88057 0.0
C1099 C 0.84331 0.28118 0.86315 0.0
C1100 C 0.85807 0.26427 0.84096 0.0
C1101 C 0.897 0.26193 0.83716 0.0
C1102 C 0.73644 0.28012 0.85537 0.0
C1103 C 0.72432 0.27119 0.88039 0.0
C1104 C 0.77489 0.28381 0.84975 0.0
C1105 C 0.80222 0.2789 0.86902 0.0
C1106 C 0.79011 0.26998 0.89396 0.0
C1107 C 0.75185 0.26607 0.89954 0.0
H1108 H 0.75554 0.72411 0.4193 0.0
H1109 H 0.76098 0.70346 0.33803 0.0
H1110 H 0.74064 0.78991 0.41126 0.0
H1111 H 0.74869 0.76974 0.32953 0.0
H1112 H 0.70503 0.88708 0.31879 0.0
H1113 H 0.70872 0.82017 0.32849 0.0
H1114 H 0.76656 0.84581 0.39938 0.0
H1115 H 0.76033 0.91258 0.39011 0.0
C1116 C 0.75356 0.73392 0.39966 0.0
C1117 C 0.7593 0.70887 0.37928 0.0
C1118 C 0.74541 0.77175 0.39496 0.0
C1119 C 0.74379 0.78582 0.36968 0.0
C1120 C 0.74893 0.76027 0.34927 0.0
C1121 C 0.75617 0.72219 0.35404 0.0
C1122 C 0.71803 0.87815 0.33658 0.0
C1123 C 0.73227 0.90487 0.35375 0.0
C1124 C 0.72056 0.83976 0.3421 0.0
C1125 C 0.73831 0.82699 0.36468 0.0
C1126 C 0.752 0.85409 0.38204 0.0
C1127 C 0.74863 0.89252 0.37675 0.0
H1128 H 0.08811 0.73519 0.89882 0.0
H1129 H 0.10708 0.73883 0.81705 0.0
H1130 H 0.15582 0.73733 0.90609 0.0
H1131 H 0.17452 0.74284 0.82424 0.0
H1132 H 0.29818 0.72418 0.8458 0.0
H1133 H 0.2312 0.71336 0.83814 0.0
H1134 H 0.2039 0.7835 0.90314 0.0
H1135 H 0.2705 0.79362 0.91087 0.0
C1136 C 0.10668 0.73586 0.88237 0.0
C1137 C 0.09201 0.73719 0.85734 0.0
C1138 C 0.14558 0.7377 0.88652 0.0
C1139 C 0.17083 0.74098 0.86577 0.0
C1140 C 0.15617 0.74026 0.84072 0.0
C1141 C 0.11736 0.73829 0.83659 0.0
C1142 C 0.2778 0.73755 0.85824 0.0
C1143 C 0.28971 0.75962 0.87901 0.0
C1144 C 0.23935 0.73128 0.85394 0.0
C1145 C 0.21192 0.74712 0.87023 0.0
C1146 C 0.22403 0.76991 0.8906 0.0
C1147 C 0.2623 0.77598 0.89495 0.0
H1148 H 0.30562 0.25575 0.41999 0.0
H1149 H 0.22884 0.28046 0.35808 0.0
H1150 H 0.30262 0.18925 0.40973 0.0
H1151 H 0.22525 0.21371 0.34796 0.0
H1152 H 0.25181 0.09474 0.32183 0.0
H1153 H 0.25894 0.1614 0.33098 0.0
H1154 H 0.26171 0.13673 0.41218 0.0
H1155 H 0.25517 0.07006 0.40289 0.0
C1156 C 0.28782 0.24697 0.40429 0.0
C1157 C 0.26731 0.27355 0.38996 0.0
C1158 C 0.28604 0.2087 0.3984 0.0
C1159 C 0.26352 0.19581 0.37807 0.0
C1160 C 0.24334 0.22249 0.36352 0.0
C1161 C 0.24531 0.26085 0.36933 0.0
C1162 C 0.25399 0.10357 0.34163 0.0
C1163 C 0.25289 0.07696 0.3616 0.0
C1164 C 0.25793 0.14188 0.34691 0.0
C1165 C 0.2607 0.15474 0.37235 0.0
C1166 C 0.26023 0.128 0.39232 0.0
C1167 C 0.25649 0.08964 0.38701 0.0
H1168 H 0.58667 0.79831 0.88266 0.0
H1169 H 0.61035 0.72809 0.81722 0.0
H1170 H 0.65391 0.80409 0.89092 0.0
H1171 H 0.67759 0.73316 0.82578 0.0
H1172 H 0.79997 0.77094 0.84017 0.0
H1173 H 0.73366 0.77348 0.82779 0.0
H1174 H 0.70146 0.76056 0.90716 0.0
H1175 H 0.76705 0.75748 0.91947 0.0
C1176 C 0.60614 0.78466 0.86973 0.0
C1177 C 0.59288 0.76234 0.84944 0.0
C1178 C 0.6448 0.78759 0.87464 0.0
C1179 C 0.6713 0.76855 0.85929 0.0
C1180 C 0.65814 0.74822 0.83803 0.0
C1181 C 0.61948 0.74511 0.83321 0.0
C1182 C 0.77883 0.76839 0.85498 0.0
C1183 C 0.78931 0.76432 0.88092 0.0
C1184 C 0.7407 0.76998 0.84787 0.0
C1185 C 0.71206 0.76776 0.8665 0.0
C1186 C 0.7226 0.76337 0.89233 0.0
C1187 C 0.7605 0.76154 0.8994 0.0
H1188 H 0.24567 0.57187 0.40742 0.0
H1189 H 0.2525 0.59112 0.32583 0.0
H1190 H 0.23817 0.63923 0.41447 0.0
H1191 H 0.24423 0.65827 0.33264 0.0
H1192 H 0.27465 0.77841 0.35598 0.0
H1193 H 0.27777 0.71096 0.34827 0.0
H1194 H 0.19826 0.69241 0.4097 0.0
H1195 H 0.19579 0.75968 0.4176 0.0
C1196 C 0.24482 0.59043 0.39096 0.0
C1197 C 0.24989 0.57615 0.36608 0.0
C1198 C 0.24054 0.62913 0.39495 0.0
C1199 C 0.24093 0.65449 0.37414 0.0
C1200 C 0.24469 0.63988 0.3492 0.0
C1201 C 0.24923 0.60131 0.34526 0.0
C1202 C 0.25759 0.75994 0.36766 0.0
C1203 C 0.23517 0.77452 0.3875 0.0
C1204 C 0.25928 0.72117 0.36323 0.0
C1205 C 0.23834 0.69595 0.37841 0.0
C1206 C 0.21538 0.71072 0.39794 0.0
C1207 C 0.2139 0.74941 0.40246 0.0
H1208 H 0.42797 0.26122 0.89801 0.0
H1209 H 0.4033 0.25209 0.81722 0.0
H1210 H 0.36091 0.26345 0.90747 0.0
H1211 H 0.33612 0.25364 0.82659 0.0
H1212 H 0.22016 0.30007 0.85082 0.0
H1213 H 0.28707 0.29501 0.84028 0.0
H1214 H 0.30486 0.22776 0.90834 0.0
H1215 H 0.2386 0.2335 0.91892 0.0
C1216 C 0.40823 0.25896 0.8823 0.0
C1217 C 0.42107 0.25648 0.85686 0.0
C1218 C 0.36965 0.26028 0.88769 0.0
C1219 C 0.34283 0.25887 0.86779 0.0
C1220 C 0.35578 0.25555 0.84239 0.0
C1221 C 0.39435 0.25446 0.837 0.0
C1222 C 0.23842 0.28405 0.86337 0.0
C1223 C 0.2241 0.26763 0.88586 0.0
C1224 C 0.27679 0.28102 0.85735 0.0
C1225 C 0.30167 0.26121 0.87357 0.0
C1226 C 0.28695 0.24403 0.8957 0.0
C1227 C 0.24881 0.24728 0.90177 0.0
H1228 H 0.75562 0.20643 0.33288 0.0
H1229 H 0.74478 0.22048 0.41452 0.0
H1230 H 0.7704 0.27289 0.32815 0.0
H1231 H 0.76244 0.28631 0.41057 0.0
H1232 H 0.74761 0.41088 0.39259 0.0
H1233 H 0.74024 0.3436 0.39904 0.0
H1234 H 0.80948 0.32285 0.33214 0.0
H1235 H 0.81401 0.39038 0.32498 0.0
C1236 C 0.7575 0.22376 0.34987 0.0
C1237 C 0.74904 0.20862 0.37401 0.0
C1238 C 0.76617 0.26193 0.3473 0.0
C1239 C 0.76751 0.28569 0.36896 0.0
C1240 C 0.76071 0.26965 0.39328 0.0
C1241 C 0.75101 0.23178 0.39569 0.0
C1242 C 0.76158 0.39172 0.37957 0.0
C1243 C 0.78135 0.40561 0.35833 0.0
C1244 C 0.75757 0.35299 0.38324 0.0
C1245 C 0.77407 0.32711 0.36606 0.0
C1246 C 0.7954 0.34144 0.34545 0.0
C1247 C 0.79848 0.38017 0.34145 0.0
H1248 H 0.09568 0.73212 0.12711 0.0
H1249 H 0.11509 0.78889 0.19891 0.0
H1250 H 0.16319 0.72008 0.12309 0.0
H1251 H 0.18212 0.77638 0.19531 0.0
H1252 H 0.30237 0.78856 0.16493 0.0
H1253 H 0.23496 0.79656 0.17114 0.0
H1254 H 0.21585 0.68599 0.13988 0.0
H1255 H 0.28334 0.67839 0.13331 0.0
C1256 C 0.11432 0.74155 0.14218 0.0
C1257 C 0.1001 0.76184 0.16314 0.0
C1258 C 0.15302 0.73463 0.13995 0.0
C1259 C 0.17832 0.74756 0.15878 0.0
C1260 C 0.16375 0.76679 0.18012 0.0
C1261 C 0.12523 0.77392 0.18223 0.0
C1262 C 0.28386 0.76574 0.15976 0.0
C1263 C 0.29828 0.73288 0.14855 0.0
C1264 C 0.24509 0.7703 0.1633 0.0
C1265 C 0.21975 0.74198 0.1559 0.0
C1266 C 0.23435 0.70871 0.14533 0.0
C1267 C 0.27308 0.70426 0.14166 0.0
H1268 H 0.33388 0.2773 0.62854 0.0
H1269 H 0.23561 0.29422 0.67552 0.0
H1270 H 0.33322 0.21052 0.63854 0.0
H1271 H 0.23343 0.22703 0.6847 0.0
H1272 H 0.2467 0.10718 0.70953 0.0
H1273 H 0.25779 0.17443 0.70507 0.0
H1274 H 0.30209 0.15569 0.62883 0.0
H1275 H 0.29255 0.08854 0.6341 0.0
C1276 C 0.31199 0.26657 0.64097 0.0
C1277 C 0.28467 0.29096 0.65113 0.0
C1278 C 0.3114 0.22815 0.64662 0.0
C1279 C 0.28302 0.21276 0.66226 0.0
C1280 C 0.25616 0.23752 0.67292 0.0
C1281 C 0.2572 0.27615 0.6676 0.0
C1282 C 0.25951 0.11754 0.69206 0.0
C1283 C 0.26881 0.09254 0.6722 0.0
C1284 C 0.2655 0.1562 0.68932 0.0
C1285 C 0.28039 0.17109 0.66641 0.0
C1286 C 0.29108 0.14569 0.64694 0.0
C1287 C 0.28564 0.10696 0.6499 0.0
H1288 H 0.72812 0.21957 0.1062 0.0
H1289 H 0.70737 0.28662 0.1735 0.0
H1290 H 0.79511 0.23304 0.10916 0.0
H1291 H 0.77457 0.29892 0.17742 0.0
H1292 H 0.89514 0.3357 0.17011 0.0
H1293 H 0.82797 0.32919 0.16159 0.0
H1294 H 0.84763 0.21674 0.13332 0.0
H1295 H 0.91468 0.22424 0.14086 0.0
C1296 C 0.73806 0.23711 0.12171 0.0
C1297 C 0.71265 0.25193 0.13968 0.0
C1298 C 0.77649 0.24471 0.12354 0.0
C1299 C 0.79063 0.26681 0.1437 0.0
C1300 C 0.7649 0.28229 0.16138 0.0
C1301 C 0.72633 0.27517 0.15925 0.0
C1302 C 0.88495 0.30982 0.16181 0.0
C1303 C 0.91008 0.28054 0.15609 0.0
C1304 C 0.84643 0.3059 0.15708 0.0
C1305 C 0.83202 0.27231 0.1469 0.0
C1306 C 0.85749 0.24332 0.14071 0.0
C1307 C 0.89604 0.24751 0.14506 0.0
H1308 H 0.71451 0.92286 0.64334 0.0
H1309 H 0.83573 0.92024 0.64566 0.0
H1310 H 0.7137 0.85446 0.63708 0.0
H1311 H 0.83512 0.85269 0.6401 0.0
H1312 H 0.82887 0.73636 0.6116 0.0
H1313 H 0.82104 0.8042 0.60928 0.0
H1314 H 0.729 0.79771 0.6632 0.0
H1315 H 0.73664 0.72943 0.66518 0.0
C1316 C 0.74089 0.90771 0.64221 0.0
C1317 C 0.77516 0.92673 0.64522 0.0
C1318 C 0.74046 0.86863 0.63886 0.0
C1319 C 0.77435 0.84811 0.6381 0.0
C1320 C 0.80851 0.86755 0.64026 0.0
C1321 C 0.80888 0.90627 0.64376 0.0
C1322 C 0.80683 0.7494 0.62283 0.0
C1323 C 0.78381 0.72769 0.63891 0.0
C1324 C 0.80229 0.78825 0.62149 0.0
C1325 C 0.77478 0.80645 0.63637 0.0
C1326 C 0.75031 0.78454 0.65138 0.0
C1327 C 0.75473 0.74547 0.65259 0.0
loop_
_geom_bond_atom_site_label_1
_geom_bond_atom_site_label_2
_geom_bond_distance
_geom_bond_site_symmetry_2
_ccdc_geom_bond_type
C0 C1 1.351 . S
C0 N3 1.368 . S
C0 H5 0.931 . S
C1 C0 1.351 . S
C1 N2 1.373 . S
C1 H29 0.930 . S
N2 C1 1.373 . S
N2 C4 1.340 . S
N3 C0 1.368 . S
N3 C4 1.321 . S
N3 Co6 2.135 1_655 S
C4 N2 1.340 . S
C4 N3 1.321 . S
C4 H28 0.930 . S
H5 C0 0.931 . S
Co6 N3 2.135 1_455 S
Co6 N9 2.121 . S
Co6 O14 2.055 . S
Co6 O17 2.039 . S
Co6 N20 2.140 . S
C7 O8 1.227 . S
C7 O17 1.265 . S
O8 C7 1.227 . S
N9 Co6 2.121 . S
N9 C11 1.375 . S
N9 C12 1.313 . S
C10 C11 1.338 . S
C10 N13 1.377 . S
C10 H30 0.930 . S
C11 N9 1.375 . S
C11 C10 1.338 . S
C11 H15 0.931 . S
C12 N9 1.313 . S
C12 N13 1.344 . S
C12 H16 0.930 . S
N13 C10 1.377 . S
N13 C12 1.344 . S
O14 Co6 2.055 . S
O14 C18 1.253 . S
H15 C11 0.931 . S
H16 C12 0.930 . S
O17 Co6 2.039 . S
O17 C7 1.265 . S
C18 O14 1.253 . S
C18 O19 1.227 . S
O19 C18 1.227 . S
N20 Co6 2.140 . S
N20 C23 1.346 . S
N20 C24 1.345 . S
C21 C22 1.387 1_455 S
C21 C25 1.391 . S
C22 C21 1.387 1_655 S
C22 C23 1.369 1_655 S
C22 H31 0.929 . S
C23 N20 1.346 . S
C23 C22 1.369 1_455 S
C23 H26 0.928 1_455 S
C24 N20 1.345 . S
C24 C25 1.371 . S
C24 H27 0.931 . S
C25 C21 1.391 . S
C25 C24 1.371 . S
C25 H32 0.930 . S
H26 C23 0.928 1_655 S
H27 C24 0.931 . S
H28 C4 0.930 . S
H29 C1 0.930 . S
H30 C10 0.930 . S
H31 C22 0.929 . S
H32 C25 0.930 . S
C33 C34 1.351 . S
C33 N36 1.368 . S
C33 H38 0.931 . S
C34 C33 1.351 . S
C34 N35 1.373 . S
C34 H62 0.930 . S
N35 C34 1.373 . S
N35 C37 1.340 . S
N36 C33 1.368 . S
N36 C37 1.321 . S
N36 Co39 2.135 1_565 S
C37 N35 1.340 . S
C37 N36 1.321 . S
C37 H61 0.930 . S
H38 C33 0.931 . S
Co39 N36 2.135 1_545 S
Co39 N42 2.121 . S
Co39 O47 2.055 . S
Co39 O50 2.039 . S
Co39 N53 2.140 . S
C40 O41 1.227 . S
C40 O50 1.265 . S
O41 C40 1.227 . S
N42 Co39 2.121 . S
N42 C44 1.375 . S
N42 C45 1.313 . S
C43 C44 1.338 . S
C43 N46 1.377 . S
C43 H63 0.930 . S
C44 N42 1.375 . S
C44 C43 1.338 . S
C44 H48 0.931 . S
C45 N42 1.313 . S
C45 N46 1.344 . S
C45 H49 0.930 . S
N46 C43 1.377 . S
N46 C45 1.344 . S
O47 Co39 2.055 . S
O47 C51 1.253 . S
H48 C44 0.931 . S
H49 C45 0.930 . S
O50 Co39 2.039 . S
O50 C40 1.265 . S
C51 O47 1.253 . S
C51 O52 1.227 . S
O52 C51 1.227 . S
N53 Co39 2.140 . S
N53 C56 1.346 . S
N53 C57 1.345 . S
C54 C55 1.387 1_545 S
C54 C58 1.391 . S
C55 C54 1.387 1_565 S
C55 C56 1.369 1_565 S
C55 H64 0.929 . S
C56 N53 1.346 . S
C56 C55 1.369 1_545 S
C56 H59 0.928 1_545 S
C57 N53 1.345 . S
C57 C58 1.371 . S
C57 H60 0.931 . S
C58 C54 1.391 . S
C58 C57 1.371 . S
C58 H65 0.930 . S
H59 C56 0.928 1_565 S
H60 C57 0.931 . S
H61 C37 0.930 . S
H62 C34 0.930 . S
H63 C43 0.930 . S
H64 C55 0.929 . S
H65 C58 0.930 . S
C66 C67 1.351 . S
C66 N69 1.368 . S
C66 H71 0.931 . S
C67 C66 1.351 . S
C67 N68 1.373 . S
C67 H95 0.930 . S
N68 C67 1.373 . S
N68 C70 1.340 . S
N69 C66 1.368 . S
N69 C70 1.321 . S
N69 Co72 2.135 1_455 S
C70 N68 1.340 . S
C70 N69 1.321 . S
C70 H94 0.930 . S
H71 C66 0.931 . S
Co72 N69 2.135 1_655 S
Co72 N75 2.121 . S
Co72 O80 2.055 . S
Co72 O83 2.039 . S
Co72 N86 2.140 . S
C73 O74 1.227 . S
C73 O83 1.265 . S
O74 C73 1.227 . S
N75 Co72 2.121 . S
N75 C77 1.375 . S
N75 C78 1.313 . S
C76 C77 1.338 . S
C76 N79 1.377 . S
C76 H96 0.930 . S
C77 N75 1.375 . S
C77 C76 1.338 . S
C77 H81 0.931 . S
C78 N75 1.313 . S
C78 N79 1.344 . S
C78 H82 0.930 . S
N79 C76 1.377 . S
N79 C78 1.344 . S
O80 Co72 2.055 . S
O80 C84 1.253 . S
H81 C77 0.931 . S
H82 C78 0.930 . S
O83 Co72 2.039 . S
O83 C73 1.265 . S
C84 O80 1.253 . S
C84 O85 1.227 . S
O85 C84 1.227 . S
N86 Co72 2.140 . S
N86 C89 1.346 . S
N86 C90 1.345 . S
C87 C88 1.387 1_655 S
C87 C91 1.391 . S
C88 C87 1.387 1_455 S
C88 C89 1.369 1_455 S
C88 H97 0.929 . S
C89 N86 1.346 . S
C89 C88 1.369 1_655 S
C89 H92 0.928 1_655 S
C90 N86 1.345 . S
C90 C91 1.371 . S
C90 H93 0.931 . S
C91 C87 1.391 . S
C91 C90 1.371 . S
C91 H98 0.930 . S
H92 C89 0.928 1_455 S
H93 C90 0.931 . S
H94 C70 0.930 . S
H95 C67 0.930 . S
H96 C76 0.930 . S
H97 C88 0.929 . S
H98 C91 0.930 . S
C99 C100 1.351 . S
C99 N102 1.368 . S
C99 H104 0.931 . S
C100 C99 1.351 . S
C100 N101 1.373 . S
C100 H128 0.930 . S
N101 C100 1.373 . S
N101 C103 1.340 . S
N102 C99 1.368 . S
N102 C103 1.321 . S
N102 Co105 2.135 1_545 S
C103 N101 1.340 . S
C103 N102 1.321 . S
C103 H127 0.930 . S
H104 C99 0.931 . S
Co105 N102 2.135 1_565 S
Co105 N108 2.121 . S
Co105 O113 2.055 . S
Co105 O116 2.039 . S
Co105 N119 2.140 . S
C106 O107 1.227 . S
C106 O116 1.265 . S
O107 C106 1.227 . S
N108 Co105 2.121 . S
N108 C110 1.375 . S
N108 C111 1.313 . S
C109 C110 1.338 . S
C109 N112 1.377 . S
C109 H129 0.930 . S
C110 N108 1.375 . S
C110 C109 1.338 . S
C110 H114 0.931 . S
C111 N108 1.313 . S
C111 N112 1.344 . S
C111 H115 0.930 . S
N112 C109 1.377 . S
N112 C111 1.344 . S
O113 Co105 2.055 . S
O113 C117 1.253 . S
H114 C110 0.931 . S
H115 C111 0.930 . S
O116 Co105 2.039 . S
O116 C106 1.265 . S
C117 O113 1.253 . S
C117 O118 1.227 . S
O118 C117 1.227 . S
N119 Co105 2.140 . S
N119 C122 1.346 . S
N119 C123 1.345 . S
C120 C121 1.387 1_565 S
C120 C124 1.391 . S
C121 C120 1.387 1_545 S
C121 C122 1.369 1_545 S
C121 H130 0.929 . S
C122 N119 1.346 . S
C122 C121 1.369 1_565 S
C122 H125 0.928 1_565 S
C123 N119 1.345 . S
C123 C124 1.371 . S
C123 H126 0.931 . S
C124 C120 1.391 . S
C124 C123 1.371 . S
C124 H131 0.930 . S
H125 C122 0.928 1_545 S
H126 C123 0.931 . S
H127 C103 0.930 . S
H128 C100 0.930 . S
H129 C109 0.930 . S
H130 C121 0.929 . S
H131 C124 0.930 . S
C132 C133 1.351 . S
C132 N135 1.368 . S
C132 H137 0.931 . S
C133 C132 1.351 . S
C133 N134 1.373 . S
C133 H161 0.930 . S
N134 C133 1.373 . S
N134 C136 1.340 . S
N135 C132 1.368 . S
N135 C136 1.321 . S
N135 Co138 2.135 . S
C136 N134 1.340 . S
C136 N135 1.321 . S
C136 H160 0.930 . S
H137 C132 0.931 . S
Co138 N135 2.135 . S
Co138 N141 2.121 . S
Co138 O146 2.055 . S
Co138 O149 2.039 . S
Co138 N152 2.140 . S
C139 O140 1.227 . S
C139 O149 1.265 . S
O140 C139 1.227 . S
N141 Co138 2.121 . S
N141 C143 1.375 . S
N141 C144 1.313 . S
C142 C143 1.338 . S
C142 N145 1.377 . S
C142 H162 0.930 . S
C143 N141 1.375 . S
C143 C142 1.338 . S
C143 H147 0.931 . S
C144 N141 1.313 . S
C144 N145 1.344 . S
C144 H148 0.930 . S
N145 C142 1.377 . S
N145 C144 1.344 . S
O146 Co138 2.055 . S
O146 C150 1.253 . S
H147 C143 0.931 . S
H148 C144 0.930 . S
O149 Co138 2.039 . S
O149 C139 1.265 . S
C150 O146 1.253 . S
C150 O151 1.227 . S
O151 C150 1.227 . S
N152 Co138 2.140 . S
N152 C155 1.346 . S
N152 C156 1.345 . S
C153 C154 1.387 . S
C153 C157 1.391 . S
C154 C153 1.387 . S
C154 C155 1.369 . S
C154 H163 0.929 . S
C155 N152 1.346 . S
C155 C154 1.369 . S
C155 H158 0.928 . S
C156 N152 1.345 . S
C156 C157 1.371 . S
C156 H159 0.931 . S
C157 C153 1.391 . S
C157 C156 1.371 . S
C157 H164 0.930 . S
H158 C155 0.928 . S
H159 C156 0.931 . S
H160 C136 0.930 . S
H161 C133 0.930 . S
H162 C142 0.930 . S
H163 C154 0.929 . S
H164 C157 0.930 . S
C165 C166 1.351 . S
C165 N168 1.368 . S
C165 H170 0.931 . S
C166 C165 1.351 . S
C166 N167 1.373 . S
C166 H194 0.930 . S
N167 C166 1.373 . S
N167 C169 1.340 . S
N168 C165 1.368 . S
N168 C169 1.321 . S
N168 Co171 2.135 . S
C169 N167 1.340 . S
C169 N168 1.321 . S
C169 H193 0.930 . S
H170 C165 0.931 . S
Co171 N168 2.135 . S
Co171 N174 2.121 . S
Co171 O179 2.055 . S
Co171 O182 2.039 . S
Co171 N185 2.140 . S
C172 O173 1.227 . S
C172 O182 1.265 . S
O173 C172 1.227 . S
N174 Co171 2.121 . S
N174 C176 1.375 . S
N174 C177 1.313 . S
C175 C176 1.338 . S
C175 N178 1.377 . S
C175 H195 0.930 . S
C176 N174 1.375 . S
C176 C175 1.338 . S
C176 H180 0.931 . S
C177 N174 1.313 . S
C177 N178 1.344 . S
C177 H181 0.930 . S
N178 C175 1.377 . S
N178 C177 1.344 . S
O179 Co171 2.055 . S
O179 C183 1.253 . S
H180 C176 0.931 . S
H181 C177 0.930 . S
O182 Co171 2.039 . S
O182 C172 1.265 . S
C183 O179 1.253 . S
C183 O184 1.227 . S
O184 C183 1.227 . S
N185 Co171 2.140 . S
N185 C188 1.346 . S
N185 C189 1.345 . S
C186 C187 1.387 . S
C186 C190 1.391 . S
C187 C186 1.387 . S
C187 C188 1.369 . S
C187 H196 0.929 . S
C188 N185 1.346 . S
C188 C187 1.369 . S
C188 H191 0.928 . S
C189 N185 1.345 . S
C189 C190 1.371 . S
C189 H192 0.931 . S
C190 C186 1.391 . S
C190 C189 1.371 . S
C190 H197 0.930 . S
H191 C188 0.928 . S
H192 C189 0.931 . S
H193 C169 0.930 . S
H194 C166 0.930 . S
H195 C175 0.930 . S
H196 C187 0.929 . S
H197 C190 0.930 . S
C198 C199 1.351 . S
C198 N201 1.368 . S
C198 H203 0.931 . S
C199 C198 1.351 . S
C199 N200 1.373 . S
C199 H227 0.930 . S
N200 C199 1.373 . S
N200 C202 1.340 . S
N201 C198 1.368 . S
N201 C202 1.321 . S
N201 Co204 2.135 . S
C202 N200 1.340 . S
C202 N201 1.321 . S
C202 H226 0.930 . S
H203 C198 0.931 . S
Co204 N201 2.135 . S
Co204 N207 2.121 . S
Co204 O212 2.055 . S
Co204 O215 2.039 . S
Co204 N218 2.140 . S
C205 O206 1.227 . S
C205 O215 1.265 . S
O206 C205 1.227 . S
N207 Co204 2.121 . S
N207 C209 1.375 . S
N207 C210 1.313 . S
C208 C209 1.338 . S
C208 N211 1.377 . S
C208 H228 0.930 . S
C209 N207 1.375 . S
C209 C208 1.338 . S
C209 H213 0.931 . S
C210 N207 1.313 . S
C210 N211 1.344 . S
C210 H214 0.930 . S
N211 C208 1.377 . S
N211 C210 1.344 . S
O212 Co204 2.055 . S
O212 C216 1.253 . S
H213 C209 0.931 . S
H214 C210 0.930 . S
O215 Co204 2.039 . S
O215 C205 1.265 . S
C216 O212 1.253 . S
C216 O217 1.227 . S
O217 C216 1.227 . S
N218 Co204 2.140 . S
N218 C221 1.346 . S
N218 C222 1.345 . S
C219 C220 1.387 . S
C219 C223 1.391 . S
C220 C219 1.387 . S
C220 C221 1.369 . S
C220 H229 0.929 . S
C221 N218 1.346 . S
C221 C220 1.369 . S
C221 H224 0.928 . S
C222 N218 1.345 . S
C222 C223 1.371 . S
C222 H225 0.931 . S
C223 C219 1.391 . S
C223 C222 1.371 . S
C223 H230 0.930 . S
H224 C221 0.928 . S
H225 C222 0.931 . S
H226 C202 0.930 . S
H227 C199 0.930 . S
H228 C208 0.930 . S
H229 C220 0.929 . S
H230 C223 0.930 . S
C231 C232 1.351 . S
C231 N234 1.368 . S
C231 H236 0.931 . S
C232 C231 1.351 . S
C232 N233 1.373 . S
C232 H260 0.930 . S
N233 C232 1.373 . S
N233 C235 1.340 . S
N234 C231 1.368 . S
N234 C235 1.321 . S
N234 Co237 2.135 . S
C235 N233 1.340 . S
C235 N234 1.321 . S
C235 H259 0.930 . S
H236 C231 0.931 . S
Co237 N234 2.135 . S
Co237 N240 2.121 . S
Co237 O245 2.055 . S
Co237 O248 2.039 . S
Co237 N251 2.140 . S
C238 O239 1.227 . S
C238 O248 1.265 . S
O239 C238 1.227 . S
N240 Co237 2.121 . S
N240 C242 1.375 . S
N240 C243 1.313 . S
C241 C242 1.338 . S
C241 N244 1.377 . S
C241 H261 0.930 . S
C242 N240 1.375 . S
C242 C241 1.338 . S
C242 H246 0.931 . S
C243 N240 1.313 . S
C243 N244 1.344 . S
C243 H247 0.930 . S
N244 C241 1.377 . S
N244 C243 1.344 . S
O245 Co237 2.055 . S
O245 C249 1.253 . S
H246 C242 0.931 . S
H247 C243 0.930 . S
O248 Co237 2.039 . S
O248 C238 1.265 . S
C249 O245 1.253 . S
C249 O250 1.227 . S
O250 C249 1.227 . S
N251 Co237 2.140 . S
N251 C254 1.346 . S
N251 C255 1.345 . S
C252 C253 1.387 . S
C252 C256 1.391 . S
C253 C252 1.387 . S
C253 C254 1.369 . S
C253 H262 0.929 . S
C254 N251 1.346 . S
C254 C253 1.369 . S
C254 H257 0.928 . S
C255 N251 1.345 . S
C255 C256 1.371 . S
C255 H258 0.931 . S
C256 C252 1.391 . S
C256 C255 1.371 . S
C256 H263 0.930 . S
H257 C254 0.928 . S
H258 C255 0.931 . S
H259 C235 0.930 . S
H260 C232 0.930 . S
H261 C241 0.930 . S
H262 C253 0.929 . S
H263 C256 0.930 . S
C264 C265 1.351 . S
C264 N267 1.368 . S
C264 H269 0.931 . S
C265 C264 1.351 . S
C265 N266 1.373 . S
C265 H293 0.930 . S
N266 C265 1.373 . S
N266 C268 1.340 . S
N267 C264 1.368 . S
N267 C268 1.321 . S
N267 Co270 2.135 1_455 S
C268 N266 1.340 . S
C268 N267 1.321 . S
C268 H292 0.930 . S
H269 C264 0.931 . S
Co270 N267 2.135 1_655 S
Co270 N273 2.121 . S
Co270 O278 2.055 . S
Co270 O281 2.039 . S
Co270 N284 2.140 . S
C271 O272 1.227 . S
C271 O281 1.265 . S
O272 C271 1.227 . S
N273 Co270 2.121 . S
N273 C275 1.375 . S
N273 C276 1.313 . S
C274 C275 1.338 . S
C274 N277 1.377 . S
C274 H294 0.930 . S
C275 N273 1.375 . S
C275 C274 1.338 . S
C275 H279 0.931 . S
C276 N273 1.313 . S
C276 N277 1.344 . S
C276 H280 0.930 . S
N277 C274 1.377 . S
N277 C276 1.344 . S
O278 Co270 2.055 . S
O278 C282 1.253 . S
H279 C275 0.931 . S
H280 C276 0.930 . S
O281 Co270 2.039 . S
O281 C271 1.265 . S
C282 O278 1.253 . S
C282 O283 1.227 . S
O283 C282 1.227 . S
N284 Co270 2.140 . S
N284 C287 1.346 . S
N284 C288 1.345 . S
C285 C286 1.387 1_655 S
C285 C289 1.391 . S
C286 C285 1.387 1_455 S
C286 C287 1.369 1_455 S
C286 H295 0.929 . S
C287 N284 1.346 . S
C287 C286 1.369 1_655 S
C287 H290 0.928 1_655 S
C288 N284 1.345 . S
C288 C289 1.371 . S
C288 H291 0.931 . S
C289 C285 1.391 . S
C289 C288 1.371 . S
C289 H296 0.930 . S
H290 C287 0.928 1_455 S
H291 C288 0.931 . S
H292 C268 0.930 . S
H293 C265 0.930 . S
H294 C274 0.930 . S
H295 C286 0.929 . S
H296 C289 0.930 . S
C297 C298 1.351 . S
C297 N300 1.368 . S
C297 H302 0.931 . S
C298 C297 1.351 . S
C298 N299 1.373 . S
C298 H326 0.930 . S
N299 C298 1.373 . S
N299 C301 1.340 . S
N300 C297 1.368 . S
N300 C301 1.321 . S
N300 Co303 2.135 1_545 S
C301 N299 1.340 . S
C301 N300 1.321 . S
C301 H325 0.930 . S
H302 C297 0.931 . S
Co303 N300 2.135 1_565 S
Co303 N306 2.121 . S
Co303 O311 2.055 . S
Co303 O314 2.039 . S
Co303 N317 2.140 . S
C304 O305 1.227 . S
C304 O314 1.265 . S
O305 C304 1.227 . S
N306 Co303 2.121 . S
N306 C308 1.375 . S
N306 C309 1.313 . S
C307 C308 1.338 . S
C307 N310 1.377 . S
C307 H327 0.930 . S
C308 N306 1.375 . S
C308 C307 1.338 . S
C308 H312 0.931 . S
C309 N306 1.313 . S
C309 N310 1.344 . S
C309 H313 0.930 . S
N310 C307 1.377 . S
N310 C309 1.344 . S
O311 Co303 2.055 . S
O311 C315 1.253 . S
H312 C308 0.931 . S
H313 C309 0.930 . S
O314 Co303 2.039 . S
O314 C304 1.265 . S
C315 O311 1.253 . S
C315 O316 1.227 . S
O316 C315 1.227 . S
N317 Co303 2.140 . S
N317 C320 1.346 . S
N317 C321 1.345 . S
C318 C319 1.387 1_565 S
C318 C322 1.391 . S
C319 C318 1.387 1_545 S
C319 C320 1.369 1_545 S
C319 H328 0.929 . S
C320 N317 1.346 . S
C320 C319 1.369 1_565 S
C320 H323 0.928 1_565 S
C321 N317 1.345 . S
C321 C322 1.371 . S
C321 H324 0.931 . S
C322 C318 1.391 . S
C322 C321 1.371 . S
C322 H329 0.930 . S
H323 C320 0.928 1_545 S
H324 C321 0.931 . S
H325 C301 0.930 . S
H326 C298 0.930 . S
H327 C307 0.930 . S
H328 C319 0.929 . S
H329 C322 0.930 . S
C330 C331 1.351 . S
C330 N333 1.368 . S
C330 H335 0.931 . S
C331 C330 1.351 . S
C331 N332 1.373 . S
C331 H359 0.930 . S
N332 C331 1.373 . S
N332 C334 1.340 . S
N333 C330 1.368 . S
N333 C334 1.321 . S
N333 Co336 2.135 1_655 S
C334 N332 1.340 . S
C334 N333 1.321 . S
C334 H358 0.930 . S
H335 C330 0.931 . S
Co336 N333 2.135 1_455 S
Co336 N339 2.121 . S
Co336 O344 2.055 . S
Co336 O347 2.039 . S
Co336 N350 2.140 . S
C337 O338 1.227 . S
C337 O347 1.265 . S
O338 C337 1.227 . S
N339 Co336 2.121 . S
N339 C341 1.375 . S
N339 C342 1.313 . S
C340 C341 1.338 . S
C340 N343 1.377 . S
C340 H360 0.930 . S
C341 N339 1.375 . S
C341 C340 1.338 . S
C341 H345 0.931 . S
C342 N339 1.313 . S
C342 N343 1.344 . S
C342 H346 0.930 . S
N343 C340 1.377 . S
N343 C342 1.344 . S
O344 Co336 2.055 . S
O344 C348 1.253 . S
H345 C341 0.931 . S
H346 C342 0.930 . S
O347 Co336 2.039 . S
O347 C337 1.265 . S
C348 O344 1.253 . S
C348 O349 1.227 . S
O349 C348 1.227 . S
N350 Co336 2.140 . S
N350 C353 1.346 . S
N350 C354 1.345 . S
C351 C352 1.387 1_455 S
C351 C355 1.391 . S
C352 C351 1.387 1_655 S
C352 C353 1.369 1_655 S
C352 H361 0.929 . S
C353 N350 1.346 . S
C353 C352 1.369 1_455 S
C353 H356 0.928 1_455 S
C354 N350 1.345 . S
C354 C355 1.371 . S
C354 H357 0.931 . S
C355 C351 1.391 . S
C355 C354 1.371 . S
C355 H362 0.930 . S
H356 C353 0.928 1_655 S
H357 C354 0.931 . S
H358 C334 0.930 . S
H359 C331 0.930 . S
H360 C340 0.930 . S
H361 C352 0.929 . S
H362 C355 0.930 . S
C363 C364 1.351 . S
C363 N366 1.368 . S
C363 H368 0.931 . S
C364 C363 1.351 . S
C364 N365 1.373 . S
C364 H392 0.930 . S
N365 C364 1.373 . S
N365 C367 1.340 . S
N366 C363 1.368 . S
N366 C367 1.321 . S
N366 Co369 2.135 1_565 S
C367 N365 1.340 . S
C367 N366 1.321 . S
C367 H391 0.930 . S
H368 C363 0.931 . S
Co369 N366 2.135 1_545 S
Co369 N372 2.121 . S
Co369 O377 2.055 . S
Co369 O380 2.039 . S
Co369 N383 2.140 . S
C370 O371 1.227 . S
C370 O380 1.265 . S
O371 C370 1.227 . S
N372 Co369 2.121 . S
N372 C374 1.375 . S
N372 C375 1.313 . S
C373 C374 1.338 . S
C373 N376 1.377 . S
C373 H393 0.930 . S
C374 N372 1.375 . S
C374 C373 1.338 . S
C374 H378 0.931 . S
C375 N372 1.313 . S
C375 N376 1.344 . S
C375 H379 0.930 . S
N376 C373 1.377 . S
N376 C375 1.344 . S
O377 Co369 2.055 . S
O377 C381 1.253 . S
H378 C374 0.931 . S
H379 C375 0.930 . S
O380 Co369 2.039 . S
O380 C370 1.265 . S
C381 O377 1.253 . S
C381 O382 1.227 . S
O382 C381 1.227 . S
N383 Co369 2.140 . S
N383 C386 1.346 . S
N383 C387 1.345 . S
C384 C385 1.387 1_545 S
C384 C388 1.391 . S
C385 C384 1.387 1_565 S
C385 C386 1.369 1_565 S
C385 H394 0.929 . S
C386 N383 1.346 . S
C386 C385 1.369 1_545 S
C386 H389 0.928 1_545 S
C387 N383 1.345 . S
C387 C388 1.371 . S
C387 H390 0.931 . S
C388 C384 1.391 . S
C388 C387 1.371 . S
C388 H395 0.930 . S
H389 C386 0.928 1_565 S
H390 C387 0.931 . S
H391 C367 0.930 . S
H392 C364 0.930 . S
H393 C373 0.930 . S
H394 C385 0.929 . S
H395 C388 0.930 . S
C396 C397 1.351 . S
C396 N399 1.368 . S
C396 H401 0.931 . S
C397 C396 1.351 . S
C397 N398 1.373 . S
C397 H425 0.930 . S
N398 C397 1.373 . S
N398 C400 1.340 . S
N399 C396 1.368 . S
N399 C400 1.321 . S
N399 Co402 2.135 . S
C400 N398 1.340 . S
C400 N399 1.321 . S
C400 H424 0.930 . S
H401 C396 0.931 . S
Co402 N399 2.135 . S
Co402 N405 2.121 . S
Co402 O410 2.055 . S
Co402 O413 2.039 . S
Co402 N416 2.140 . S
C403 O404 1.227 . S
C403 O413 1.265 . S
O404 C403 1.227 . S
N405 Co402 2.121 . S
N405 C407 1.375 . S
N405 C408 1.313 . S
C406 C407 1.338 . S
C406 N409 1.377 . S
C406 H426 0.930 . S
C407 N405 1.375 . S
C407 C406 1.338 . S
C407 H411 0.931 . S
C408 N405 1.313 . S
C408 N409 1.344 . S
C408 H412 0.930 . S
N409 C406 1.377 . S
N409 C408 1.344 . S
O410 Co402 2.055 . S
O410 C414 1.253 . S
H411 C407 0.931 . S
H412 C408 0.930 . S
O413 Co402 2.039 . S
O413 C403 1.265 . S
C414 O410 1.253 . S
C414 O415 1.227 . S
O415 C414 1.227 . S
N416 Co402 2.140 . S
N416 C419 1.346 . S
N416 C420 1.345 . S
C417 C418 1.387 . S
C417 C421 1.391 . S
C418 C417 1.387 . S
C418 C419 1.369 . S
C418 H427 0.929 . S
C419 N416 1.346 . S
C419 C418 1.369 . S
C419 H422 0.928 . S
C420 N416 1.345 . S
C420 C421 1.371 . S
C420 H423 0.931 . S
C421 C417 1.391 . S
C421 C420 1.371 . S
C421 H428 0.930 . S
H422 C419 0.928 . S
H423 C420 0.931 . S
H424 C400 0.930 . S
H425 C397 0.930 . S
H426 C406 0.930 . S
H427 C418 0.929 . S
H428 C421 0.930 . S
C429 C430 1.351 . S
C429 N432 1.368 . S
C429 H434 0.931 . S
C430 C429 1.351 . S
C430 N431 1.373 . S
C430 H458 0.930 . S
N431 C430 1.373 . S
N431 C433 1.340 . S
N432 C429 1.368 . S
N432 C433 1.321 . S
N432 Co435 2.135 . S
C433 N431 1.340 . S
C433 N432 1.321 . S
C433 H457 0.930 . S
H434 C429 0.931 . S
Co435 N432 2.135 . S
Co435 N438 2.121 . S
Co435 O443 2.055 . S
Co435 O446 2.039 . S
Co435 N449 2.140 . S
C436 O437 1.227 . S
C436 O446 1.265 . S
O437 C436 1.227 . S
N438 Co435 2.121 . S
N438 C440 1.375 . S
N438 C441 1.313 . S
C439 C440 1.338 . S
C439 N442 1.377 . S
C439 H459 0.930 . S
C440 N438 1.375 . S
C440 C439 1.338 . S
C440 H444 0.931 . S
C441 N438 1.313 . S
C441 N442 1.344 . S
C441 H445 0.930 . S
N442 C439 1.377 . S
N442 C441 1.344 . S
O443 Co435 2.055 . S
O443 C447 1.253 . S
H444 C440 0.931 . S
H445 C441 0.930 . S
O446 Co435 2.039 . S
O446 C436 1.265 . S
C447 O443 1.253 . S
C447 O448 1.227 . S
O448 C447 1.227 . S
N449 Co435 2.140 . S
N449 C452 1.346 . S
N449 C453 1.345 . S
C450 C451 1.387 . S
C450 C454 1.391 . S
C451 C450 1.387 . S
C451 C452 1.369 . S
C451 H460 0.929 . S
C452 N449 1.346 . S
C452 C451 1.369 . S
C452 H455 0.928 . S
C453 N449 1.345 . S
C453 C454 1.371 . S
C453 H456 0.931 . S
C454 C450 1.391 . S
C454 C453 1.371 . S
C454 H461 0.930 . S
H455 C452 0.928 . S
H456 C453 0.931 . S
H457 C433 0.930 . S
H458 C430 0.930 . S
H459 C439 0.930 . S
H460 C451 0.929 . S
H461 C454 0.930 . S
C462 C463 1.351 . S
C462 N465 1.368 . S
C462 H467 0.931 . S
C463 C462 1.351 . S
C463 N464 1.373 . S
C463 H491 0.930 . S
N464 C463 1.373 . S
N464 C466 1.340 . S
N465 C462 1.368 . S
N465 C466 1.321 . S
N465 Co468 2.135 . S
C466 N464 1.340 . S
C466 N465 1.321 . S
C466 H490 0.930 . S
H467 C462 0.931 . S
Co468 N465 2.135 . S
Co468 N471 2.121 . S
Co468 O476 2.055 . S
Co468 O479 2.039 . S
Co468 N482 2.140 . S
C469 O470 1.227 . S
C469 O479 1.265 . S
O470 C469 1.227 . S
N471 Co468 2.121 . S
N471 C473 1.375 . S
N471 C474 1.313 . S
C472 C473 1.338 . S
C472 N475 1.377 . S
C472 H492 0.930 . S
C473 N471 1.375 . S
C473 C472 1.338 . S
C473 H477 0.931 . S
C474 N471 1.313 . S
C474 N475 1.344 . S
C474 H478 0.930 . S
N475 C472 1.377 . S
N475 C474 1.344 . S
O476 Co468 2.055 . S
O476 C480 1.253 . S
H477 C473 0.931 . S
H478 C474 0.930 . S
O479 Co468 2.039 . S
O479 C469 1.265 . S
C480 O476 1.253 . S
C480 O481 1.227 . S
O481 C480 1.227 . S
N482 Co468 2.140 . S
N482 C485 1.346 . S
N482 C486 1.345 . S
C483 C484 1.387 . S
C483 C487 1.391 . S
C484 C483 1.387 . S
C484 C485 1.369 . S
C484 H493 0.929 . S
C485 N482 1.346 . S
C485 C484 1.369 . S
C485 H488 0.928 . S
C486 N482 1.345 . S
C486 C487 1.371 . S
C486 H489 0.931 . S
C487 C483 1.391 . S
C487 C486 1.371 . S
C487 H494 0.930 . S
H488 C485 0.928 . S
H489 C486 0.931 . S
H490 C466 0.930 . S
H491 C463 0.930 . S
H492 C472 0.930 . S
H493 C484 0.929 . S
H494 C487 0.930 . S
C495 C496 1.351 . S
C495 N498 1.368 . S
C495 H500 0.931 . S
C496 C495 1.351 . S
C496 N497 1.373 . S
C496 H524 0.930 . S
N497 C496 1.373 . S
N497 C499 1.340 . S
N498 C495 1.368 . S
N498 C499 1.321 . S
N498 Co501 2.135 . S
C499 N497 1.340 . S
C499 N498 1.321 . S
C499 H523 0.930 . S
H500 C495 0.931 . S
Co501 N498 2.135 . S
Co501 N504 2.121 . S
Co501 O509 2.055 . S
Co501 O512 2.039 . S
Co501 N515 2.140 . S
C502 O503 1.227 . S
C502 O512 1.265 . S
O503 C502 1.227 . S
N504 Co501 2.121 . S
N504 C506 1.375 . S
N504 C507 1.313 . S
C505 C506 1.338 . S
C505 N508 1.377 . S
C505 H525 0.930 . S
C506 N504 1.375 . S
C506 C505 1.338 . S
C506 H510 0.931 . S
C507 N504 1.313 . S
C507 N508 1.344 . S
C507 H511 0.930 . S
N508 C505 1.377 . S
N508 C507 1.344 . S
O509 Co501 2.055 . S
O509 C513 1.253 . S
H510 C506 0.931 . S
H511 C507 0.930 . S
O512 Co501 2.039 . S
O512 C502 1.265 . S
C513 O509 1.253 . S
C513 O514 1.227 . S
O514 C513 1.227 . S
N515 Co501 2.140 . S
N515 C518 1.346 . S
N515 C519 1.345 . S
C516 C517 1.387 . S
C516 C520 1.391 . S
C517 C516 1.387 . S
C517 C518 1.369 . S
C517 H526 0.929 . S
C518 N515 1.346 . S
C518 C517 1.369 . S
C518 H521 0.928 . S
C519 N515 1.345 . S
C519 C520 1.371 . S
C519 H522 0.931 . S
C520 C516 1.391 . S
C520 C519 1.371 . S
C520 H527 0.930 . S
H521 C518 0.928 . S
H522 C519 0.931 . S
H523 C499 0.930 . S
H524 C496 0.930 . S
H525 C505 0.930 . S
H526 C517 0.929 . S
H527 C520 0.930 . S
H528 C536 0.950 . S
H529 C541 0.950 . S
H530 C538 0.950 1_655 S
H531 C540 0.950 . S
H532 C542 0.950 . S
H533 C544 0.950 1_455 S
H534 C546 0.950 . S
H535 C547 0.950 . S
C536 H528 0.950 . S
C536 C537 1.386 . S
C536 C538 1.391 . S
C537 C536 1.386 . S
C537 C541 1.393 . S
C538 H530 0.950 1_455 S
C538 C536 1.391 . S
C538 C539 1.400 . S
C539 C538 1.400 . S
C539 C540 1.398 . S
C539 C545 1.491 1_445 S
C540 H531 0.950 . S
C540 C539 1.398 . S
C540 C541 1.391 . S
C541 H529 0.950 . S
C541 C537 1.393 . S
C541 C540 1.391 . S
C542 H532 0.950 . S
C542 C543 1.386 . S
C542 C544 1.391 . S
C543 C542 1.386 . S
C543 C547 1.393 . S
C544 H533 0.950 1_655 S
C544 C542 1.391 . S
C544 C545 1.400 . S
C545 C539 1.491 1_665 S
C545 C544 1.400 . S
C545 C546 1.398 . S
C546 H534 0.950 . S
C546 C545 1.398 . S
C546 C547 1.391 . S
C547 H535 0.950 . S
C547 C543 1.393 . S
C547 C546 1.391 . S
H548 C556 0.950 . S
H549 C561 0.950 . S
H550 C558 0.950 . S
H551 C560 0.950 . S
H552 C562 0.950 . S
H553 C564 0.950 . S
H554 C566 0.950 . S
H555 C567 0.950 . S
C556 H548 0.950 . S
C556 C557 1.386 . S
C556 C558 1.391 . S
C557 C556 1.386 . S
C557 C561 1.393 1_565 S
C558 H550 0.950 . S
C558 C556 1.391 . S
C558 C559 1.400 . S
C559 C558 1.400 . S
C559 C560 1.398 1_565 S
C559 C565 1.491 1_465 S
C560 H551 0.950 . S
C560 C559 1.398 1_545 S
C560 C561 1.391 . S
C561 H549 0.950 . S
C561 C557 1.393 1_545 S
C561 C560 1.391 . S
C562 H552 0.950 . S
C562 C563 1.386 . S
C562 C564 1.391 . S
C563 C562 1.386 . S
C563 C567 1.393 1_545 S
C564 H553 0.950 . S
C564 C562 1.391 . S
C564 C565 1.400 . S
C565 C559 1.491 1_645 S
C565 C564 1.400 . S
C565 C566 1.398 1_545 S
C566 H554 0.950 . S
C566 C565 1.398 1_565 S
C566 C567 1.391 . S
C567 H555 0.950 . S
C567 C563 1.393 1_565 S
C567 C566 1.391 . S
H568 C576 0.950 . S
H569 C581 0.950 . S
H570 C578 0.950 . S
H571 C580 0.950 . S
H572 C582 0.950 . S
H573 C584 0.950 . S
H574 C586 0.950 . S
H575 C587 0.950 . S
C576 H568 0.950 . S
C576 C577 1.386 . S
C576 C578 1.391 . S
C577 C576 1.386 . S
C577 C581 1.393 . S
C578 H570 0.950 . S
C578 C576 1.391 . S
C578 C579 1.400 . S
C579 C578 1.400 . S
C579 C580 1.398 . S
C579 C585 1.491 . S
C580 H571 0.950 . S
C580 C579 1.398 . S
C580 C581 1.391 . S
C581 H569 0.950 . S
C581 C577 1.393 . S
C581 C580 1.391 . S
C582 H572 0.950 . S
C582 C583 1.386 . S
C582 C584 1.391 . S
C583 C582 1.386 . S
C583 C587 1.393 . S
C584 H573 0.950 . S
C584 C582 1.391 . S
C584 C585 1.400 . S
C585 C579 1.491 . S
C585 C584 1.400 . S
C585 C586 1.398 . S
C586 H574 0.950 . S
C586 C585 1.398 . S
C586 C587 1.391 . S
C587 H575 0.950 . S
C587 C583 1.393 . S
C587 C586 1.391 . S
H588 C596 0.950 . S
H589 C601 0.950 . S
H590 C598 0.950 . S
H591 C600 0.950 . S
H592 C602 0.950 . S
H593 C604 0.950 . S
H594 C606 0.950 . S
H595 C607 0.950 . S
C596 H588 0.950 . S
C596 C597 1.386 . S
C596 C598 1.391 . S
C597 C596 1.386 . S
C597 C601 1.393 . S
C598 H590 0.950 . S
C598 C596 1.391 . S
C598 C599 1.400 . S
C599 C598 1.400 . S
C599 C600 1.398 . S
C599 C605 1.491 . S
C600 H591 0.950 . S
C600 C599 1.398 . S
C600 C601 1.391 . S
C601 H589 0.950 . S
C601 C597 1.393 . S
C601 C600 1.391 . S
C602 H592 0.950 . S
C602 C603 1.386 . S
C602 C604 1.391 . S
C603 C602 1.386 . S
C603 C607 1.393 . S
C604 H593 0.950 . S
C604 C602 1.391 . S
C604 C605 1.400 . S
C605 C599 1.491 . S
C605 C604 1.400 . S
C605 C606 1.398 . S
C606 H594 0.950 . S
C606 C605 1.398 . S
C606 C607 1.391 . S
C607 H595 0.950 . S
C607 C603 1.393 . S
C607 C606 1.391 . S
H608 C616 0.950 . S
H609 C621 0.950 . S
H610 C618 0.950 . S
H611 C620 0.950 . S
H612 C622 0.950 . S
H613 C624 0.950 . S
H614 C626 0.950 . S
H615 C627 0.950 . S
C616 H608 0.950 . S
C616 C617 1.386 1_655 S
C616 C618 1.391 . S
C617 C616 1.386 1_455 S
C617 C621 1.393 . S
C618 H610 0.950 . S
C618 C616 1.391 . S
C618 C619 1.400 1_655 S
C619 C618 1.400 1_455 S
C619 C620 1.398 . S
C619 C625 1.491 1_445 S
C620 H611 0.950 . S
C620 C619 1.398 . S
C620 C621 1.391 . S
C621 H609 0.950 . S
C621 C617 1.393 . S
C621 C620 1.391 . S
C622 H612 0.950 . S
C622 C623 1.386 1_455 S
C622 C624 1.391 . S
C623 C622 1.386 1_655 S
C623 C627 1.393 . S
C624 H613 0.950 . S
C624 C622 1.391 . S
C624 C625 1.400 1_455 S
C625 C619 1.491 1_665 S
C625 C624 1.400 1_655 S
C625 C626 1.398 . S
C626 H614 0.950 . S
C626 C625 1.398 . S
C626 C627 1.391 . S
C627 H615 0.950 . S
C627 C623 1.393 . S
C627 C626 1.391 . S
H628 C636 0.950 . S
H629 C641 0.950 . S
H630 C638 0.950 . S
H631 C640 0.950 . S
H632 C642 0.950 . S
H633 C644 0.950 . S
H634 C646 0.950 . S
H635 C647 0.950 . S
C636 H628 0.950 . S
C636 C637 1.386 1_545 S
C636 C638 1.391 . S
C637 C636 1.386 1_565 S
C637 C641 1.393 . S
C638 H630 0.950 . S
C638 C636 1.391 . S
C638 C639 1.400 1_545 S
C639 C638 1.400 1_565 S
C639 C640 1.398 . S
C639 C645 1.491 1_465 S
C640 H631 0.950 . S
C640 C639 1.398 . S
C640 C641 1.391 . S
C641 H629 0.950 . S
C641 C637 1.393 . S
C641 C640 1.391 . S
C642 H632 0.950 . S
C642 C643 1.386 1_565 S
C642 C644 1.391 . S
C643 C642 1.386 1_545 S
C643 C647 1.393 . S
C644 H633 0.950 . S
C644 C642 1.391 . S
C644 C645 1.400 1_565 S
C645 C639 1.491 1_645 S
C645 C644 1.400 1_545 S
C645 C646 1.398 . S
C646 H634 0.950 . S
C646 C645 1.398 . S
C646 C647 1.391 . S
C647 H635 0.950 . S
C647 C643 1.393 . S
C647 C646 1.391 . S
H648 C656 0.950 . S
H649 C661 0.950 . S
H650 C658 0.950 . S
H651 C660 0.950 . S
H652 C662 0.950 . S
H653 C664 0.950 . S
H654 C666 0.950 . S
H655 C667 0.950 . S
C656 H648 0.950 . S
C656 C657 1.386 . S
C656 C658 1.391 . S
C657 C656 1.386 . S
C657 C661 1.393 . S
C658 H650 0.950 . S
C658 C656 1.391 . S
C658 C659 1.400 . S
C659 C658 1.400 . S
C659 C660 1.398 . S
C659 C665 1.491 . S
C660 H651 0.950 . S
C660 C659 1.398 . S
C660 C661 1.391 . S
C661 H649 0.950 . S
C661 C657 1.393 . S
C661 C660 1.391 . S
C662 H652 0.950 . S
C662 C663 1.386 . S
C662 C664 1.391 . S
C663 C662 1.386 . S
C663 C667 1.393 . S
C664 H653 0.950 . S
C664 C662 1.391 . S
C664 C665 1.400 . S
C665 C659 1.491 . S
C665 C664 1.400 . S
C665 C666 1.398 . S
C666 H654 0.950 . S
C666 C665 1.398 . S
C666 C667 1.391 . S
C667 H655 0.950 . S
C667 C663 1.393 . S
C667 C666 1.391 . S
H668 C676 0.950 . S
H669 C681 0.950 . S
H670 C678 0.950 . S
H671 C680 0.950 . S
H672 C682 0.950 . S
H673 C684 0.950 . S
H674 C686 0.950 . S
H675 C687 0.950 . S
C676 H668 0.950 . S
C676 C677 1.386 . S
C676 C678 1.391 . S
C677 C676 1.386 . S
C677 C681 1.393 . S
C678 H670 0.950 . S
C678 C676 1.391 . S
C678 C679 1.400 . S
C679 C678 1.400 . S
C679 C680 1.398 . S
C679 C685 1.491 . S
C680 H671 0.950 . S
C680 C679 1.398 . S
C680 C681 1.391 . S
C681 H669 0.950 . S
C681 C677 1.393 . S
C681 C680 1.391 . S
C682 H672 0.950 . S
C682 C683 1.386 . S
C682 C684 1.391 . S
C683 C682 1.386 . S
C683 C687 1.393 . S
C684 H673 0.950 . S
C684 C682 1.391 . S
C684 C685 1.400 . S
C685 C679 1.491 . S
C685 C684 1.400 . S
C685 C686 1.398 . S
C686 H674 0.950 . S
C686 C685 1.398 . S
C686 C687 1.391 . S
C687 H675 0.950 . S
C687 C683 1.393 . S
C687 C686 1.391 . S
H688 C696 0.950 . S
H689 C701 0.950 . S
H690 C698 0.950 . S
H691 C700 0.950 . S
H692 C702 0.950 . S
H693 C704 0.950 . S
H694 C706 0.950 . S
H695 C707 0.950 . S
C696 H688 0.950 . S
C696 C697 1.386 . S
C696 C698 1.391 . S
C697 C696 1.386 . S
C697 C701 1.393 . S
C698 H690 0.950 . S
C698 C696 1.391 . S
C698 C699 1.400 . S
C699 C698 1.400 . S
C699 C700 1.398 . S
C699 C705 1.491 1_554 S
C700 H691 0.950 . S
C700 C699 1.398 . S
C700 C701 1.391 . S
C701 H689 0.950 . S
C701 C697 1.393 . S
C701 C700 1.391 . S
C702 H692 0.950 . S
C702 C703 1.386 . S
C702 C704 1.391 . S
C703 C702 1.386 . S
C703 C707 1.393 . S
C704 H693 0.950 . S
C704 C702 1.391 . S
C704 C705 1.400 . S
C705 C699 1.491 1_556 S
C705 C704 1.400 . S
C705 C706 1.398 . S
C706 H694 0.950 . S
C706 C705 1.398 . S
C706 C707 1.391 . S
C707 H695 0.950 . S
C707 C703 1.393 . S
C707 C706 1.391 . S
H708 C716 0.950 . S
H709 C721 0.950 1_565 S
H710 C718 0.950 . S
H711 C720 0.950 1_565 S
H712 C722 0.949 . S
H713 C724 0.948 1_565 S
H714 C726 0.950 . S
H715 C727 0.950 . S
C716 H708 0.950 . S
C716 C717 1.386 . S
C716 C718 1.391 . S
C717 C716 1.386 . S
C717 C721 1.393 . S
C718 H710 0.950 . S
C718 C716 1.391 . S
C718 C719 1.400 . S
C719 C718 1.400 . S
C719 C720 1.398 . S
C719 C725 1.491 . S
C720 H711 0.950 1_545 S
C720 C719 1.398 . S
C720 C721 1.391 . S
C721 H709 0.950 1_545 S
C721 C717 1.393 . S
C721 C720 1.391 . S
C722 H712 0.949 . S
C722 C723 1.386 1_565 S
C722 C724 1.391 1_565 S
C723 C722 1.386 1_545 S
C723 C727 1.393 . S
C724 H713 0.948 1_545 S
C724 C722 1.391 1_545 S
C724 C725 1.402 . S
C725 C719 1.491 . S
C725 C724 1.402 . S
C725 C726 1.398 . S
C726 H714 0.950 . S
C726 C725 1.398 . S
C726 C727 1.391 . S
C727 H715 0.950 . S
C727 C723 1.393 . S
C727 C726 1.391 . S
H728 C736 0.950 . S
H729 C741 0.950 . S
H730 C738 0.950 . S
H731 C740 0.950 . S
H732 C742 0.950 . S
H733 C744 0.950 . S
H734 C746 0.950 . S
H735 C747 0.950 . S
C736 H728 0.950 . S
C736 C737 1.386 . S
C736 C738 1.391 . S
C737 C736 1.386 . S
C737 C741 1.393 . S
C738 H730 0.950 . S
C738 C736 1.391 . S
C738 C739 1.400 . S
C739 C738 1.400 . S
C739 C740 1.398 . S
C739 C745 1.491 1_556 S
C740 H731 0.950 . S
C740 C739 1.398 . S
C740 C741 1.391 . S
C741 H729 0.950 . S
C741 C737 1.393 . S
C741 C740 1.391 . S
C742 H732 0.950 . S
C742 C743 1.386 . S
C742 C744 1.391 . S
C743 C742 1.386 . S
C743 C747 1.393 . S
C744 H733 0.950 . S
C744 C742 1.391 . S
C744 C745 1.400 . S
C745 C739 1.491 1_554 S
C745 C744 1.400 . S
C745 C746 1.398 . S
C746 H734 0.950 . S
C746 C745 1.398 . S
C746 C747 1.391 . S
C747 H735 0.950 . S
C747 C743 1.393 . S
C747 C746 1.391 . S
H748 C756 0.950 . S
H749 C761 0.950 . S
H750 C758 0.950 . S
H751 C760 0.950 . S
H752 C762 0.950 . S
H753 C764 0.950 . S
H754 C766 0.950 . S
H755 C767 0.950 . S
C756 H748 0.950 . S
C756 C757 1.386 . S
C756 C758 1.391 . S
C757 C756 1.386 . S
C757 C761 1.393 . S
C758 H750 0.950 . S
C758 C756 1.391 . S
C758 C759 1.400 . S
C759 C758 1.400 . S
C759 C760 1.398 . S
C759 C765 1.491 . S
C760 H751 0.950 . S
C760 C759 1.398 . S
C760 C761 1.391 . S
C761 H749 0.950 . S
C761 C757 1.393 . S
C761 C760 1.391 . S
C762 H752 0.950 . S
C762 C763 1.386 . S
C762 C764 1.391 . S
C763 C762 1.386 . S
C763 C767 1.393 . S
C764 H753 0.950 . S
C764 C762 1.391 . S
C764 C765 1.400 . S
C765 C759 1.491 . S
C765 C764 1.400 . S
C765 C766 1.398 . S
C766 H754 0.950 . S
C766 C765 1.398 . S
C766 C767 1.391 . S
C767 H755 0.950 . S
C767 C763 1.393 . S
C767 C766 1.391 . S
H768 C776 0.950 . S
H769 C781 0.950 . S
H770 C778 0.950 . S
H771 C780 0.950 . S
H772 C782 0.950 . S
H773 C784 0.950 . S
H774 C786 0.950 . S
H775 C787 0.950 . S
C776 H768 0.950 . S
C776 C777 1.386 . S
C776 C778 1.391 . S
C777 C776 1.386 . S
C777 C781 1.393 . S
C778 H770 0.950 . S
C778 C776 1.391 . S
C778 C779 1.400 . S
C779 C778 1.400 . S
C779 C780 1.398 . S
C779 C785 1.491 1_554 S
C780 H771 0.950 . S
C780 C779 1.398 . S
C780 C781 1.391 . S
C781 H769 0.950 . S
C781 C777 1.393 . S
C781 C780 1.391 . S
C782 H772 0.950 . S
C782 C783 1.386 . S
C782 C784 1.391 . S
C783 C782 1.386 . S
C783 C787 1.393 . S
C784 H773 0.950 . S
C784 C782 1.391 . S
C784 C785 1.400 . S
C785 C779 1.491 1_556 S
C785 C784 1.400 . S
C785 C786 1.398 . S
C786 H774 0.950 . S
C786 C785 1.398 . S
C786 C787 1.391 . S
C787 H775 0.950 . S
C787 C783 1.393 . S
C787 C786 1.391 . S
H788 C796 0.950 . S
H789 C801 0.950 . S
H790 C798 0.950 . S
H791 C800 0.950 . S
H792 C802 0.950 . S
H793 C804 0.950 . S
H794 C806 0.950 . S
H795 C807 0.950 . S
C796 H788 0.950 . S
C796 C797 1.386 . S
C796 C798 1.391 . S
C797 C796 1.386 . S
C797 C801 1.393 . S
C798 H790 0.950 . S
C798 C796 1.391 . S
C798 C799 1.400 . S
C799 C798 1.400 . S
C799 C800 1.398 . S
C799 C805 1.491 . S
C800 H791 0.950 . S
C800 C799 1.398 . S
C800 C801 1.391 . S
C801 H789 0.950 . S
C801 C797 1.393 . S
C801 C800 1.391 . S
C802 H792 0.950 . S
C802 C803 1.386 . S
C802 C804 1.391 . S
C803 C802 1.386 . S
C803 C807 1.393 . S
C804 H793 0.950 . S
C804 C802 1.391 . S
C804 C805 1.400 . S
C805 C799 1.491 . S
C805 C804 1.400 . S
C805 C806 1.398 . S
C806 H794 0.950 . S
C806 C805 1.398 . S
C806 C807 1.391 . S
C807 H795 0.950 . S
C807 C803 1.393 . S
C807 C806 1.391 . S
H808 C816 0.950 . S
H809 C821 0.950 . S
H810 C818 0.950 . S
H811 C820 0.950 . S
H812 C822 0.950 . S
H813 C824 0.950 . S
H814 C826 0.950 . S
H815 C827 0.950 . S
C816 H808 0.950 . S
C816 C817 1.386 . S
C816 C818 1.391 . S
C817 C816 1.386 . S
C817 C821 1.393 . S
C818 H810 0.950 . S
C818 C816 1.391 . S
C818 C819 1.400 . S
C819 C818 1.400 . S
C819 C820 1.398 . S
C819 C825 1.491 1_554 S
C820 H811 0.950 . S
C820 C819 1.398 . S
C820 C821 1.391 . S
C821 H809 0.950 . S
C821 C817 1.393 . S
C821 C820 1.391 . S
C822 H812 0.950 . S
C822 C823 1.386 . S
C822 C824 1.391 . S
C823 C822 1.386 . S
C823 C827 1.393 . S
C824 H813 0.950 . S
C824 C822 1.391 . S
C824 C825 1.400 . S
C825 C819 1.491 1_556 S
C825 C824 1.400 . S
C825 C826 1.398 . S
C826 H814 0.950 . S
C826 C825 1.398 . S
C826 C827 1.391 . S
C827 H815 0.950 . S
C827 C823 1.393 . S
C827 C826 1.391 . S
H828 C836 0.950 . S
H829 C841 0.950 . S
H830 C838 0.950 . S
H831 C840 0.950 . S
H832 C842 0.950 . S
H833 C844 0.950 . S
H834 C846 0.950 . S
H835 C847 0.950 . S
C836 H828 0.950 . S
C836 C837 1.386 . S
C836 C838 1.391 . S
C837 C836 1.386 . S
C837 C841 1.393 . S
C838 H830 0.950 . S
C838 C836 1.391 . S
C838 C839 1.400 . S
C839 C838 1.400 . S
C839 C840 1.398 . S
C839 C845 1.491 . S
C840 H831 0.950 . S
C840 C839 1.398 . S
C840 C841 1.391 . S
C841 H829 0.950 . S
C841 C837 1.393 . S
C841 C840 1.391 . S
C842 H832 0.950 . S
C842 C843 1.386 . S
C842 C844 1.391 . S
C843 C842 1.386 . S
C843 C847 1.393 . S
C844 H833 0.950 . S
C844 C842 1.391 . S
C844 C845 1.400 . S
C845 C839 1.491 . S
C845 C844 1.400 . S
C845 C846 1.398 . S
C846 H834 0.950 . S
C846 C845 1.398 . S
C846 C847 1.391 . S
C847 H835 0.950 . S
C847 C843 1.393 . S
C847 C846 1.391 . S
H848 C856 0.950 . S
H849 C861 0.950 . S
H850 C858 0.950 . S
H851 C860 0.950 . S
H852 C862 0.950 . S
H853 C864 0.950 . S
H854 C866 0.950 . S
H855 C867 0.950 . S
C856 H848 0.950 . S
C856 C857 1.386 . S
C856 C858 1.391 . S
C857 C856 1.386 . S
C857 C861 1.393 . S
C858 H850 0.950 . S
C858 C856 1.391 . S
C858 C859 1.400 . S
C859 C858 1.400 . S
C859 C860 1.398 . S
C859 C865 1.491 . S
C860 H851 0.950 . S
C860 C859 1.398 . S
C860 C861 1.391 . S
C861 H849 0.950 . S
C861 C857 1.393 . S
C861 C860 1.391 . S
C862 H852 0.950 . S
C862 C863 1.386 . S
C862 C864 1.391 . S
C863 C862 1.386 . S
C863 C867 1.393 . S
C864 H853 0.950 . S
C864 C862 1.391 . S
C864 C865 1.400 . S
C865 C859 1.491 . S
C865 C864 1.400 . S
C865 C866 1.398 . S
C866 H854 0.950 . S
C866 C865 1.398 . S
C866 C867 1.391 . S
C867 H855 0.950 . S
C867 C863 1.393 . S
C867 C866 1.391 . S
H868 C876 0.950 . S
H869 C881 0.950 . S
H870 C878 0.950 . S
H871 C880 0.950 . S
H872 C882 0.950 . S
H873 C884 0.950 . S
H874 C886 0.950 . S
H875 C887 0.950 . S
C876 H868 0.950 . S
C876 C877 1.386 . S
C876 C878 1.391 . S
C877 C876 1.386 . S
C877 C881 1.393 . S
C878 H870 0.950 . S
C878 C876 1.391 . S
C878 C879 1.400 . S
C879 C878 1.400 . S
C879 C880 1.398 . S
C879 C885 1.491 . S
C880 H871 0.950 . S
C880 C879 1.398 . S
C880 C881 1.391 . S
C881 H869 0.950 . S
C881 C877 1.393 . S
C881 C880 1.391 . S
C882 H872 0.950 . S
C882 C883 1.386 . S
C882 C884 1.391 . S
C883 C882 1.386 . S
C883 C887 1.393 . S
C884 H873 0.950 . S
C884 C882 1.391 . S
C884 C885 1.400 . S
C885 C879 1.491 . S
C885 C884 1.400 . S
C885 C886 1.398 . S
C886 H874 0.950 . S
C886 C885 1.398 . S
C886 C887 1.391 . S
C887 H875 0.950 . S
C887 C883 1.393 . S
C887 C886 1.391 . S
H888 C896 0.950 . S
H889 C901 0.950 . S
H890 C898 0.950 . S
H891 C900 0.950 . S
H892 C902 0.950 . S
H893 C904 0.950 . S
H894 C906 0.950 . S
H895 C907 0.950 . S
C896 H888 0.950 . S
C896 C897 1.386 . S
C896 C898 1.391 . S
C897 C896 1.386 . S
C897 C901 1.393 . S
C898 H890 0.950 . S
C898 C896 1.391 . S
C898 C899 1.400 . S
C899 C898 1.400 . S
C899 C900 1.398 . S
C899 C905 1.491 . S
C900 H891 0.950 . S
C900 C899 1.398 . S
C900 C901 1.391 . S
C901 H889 0.950 . S
C901 C897 1.393 . S
C901 C900 1.391 . S
C902 H892 0.950 . S
C902 C903 1.386 . S
C902 C904 1.391 . S
C903 C902 1.386 . S
C903 C907 1.393 . S
C904 H893 0.950 . S
C904 C902 1.391 . S
C904 C905 1.400 . S
C905 C899 1.491 . S
C905 C904 1.400 . S
C905 C906 1.398 . S
C906 H894 0.950 . S
C906 C905 1.398 . S
C906 C907 1.391 . S
C907 H895 0.950 . S
C907 C903 1.393 . S
C907 C906 1.391 . S
H908 C916 0.950 . S
H909 C921 0.950 . S
H910 C918 0.950 . S
H911 C920 0.950 . S
H912 C922 0.950 . S
H913 C924 0.950 . S
H914 C926 0.950 . S
H915 C927 0.950 . S
C916 H908 0.950 . S
C916 C917 1.386 . S
C916 C918 1.391 . S
C917 C916 1.386 . S
C917 C921 1.393 . S
C918 H910 0.950 . S
C918 C916 1.391 . S
C918 C919 1.400 . S
C919 C918 1.400 . S
C919 C920 1.398 . S
C919 C925 1.491 . S
C920 H911 0.950 . S
C920 C919 1.398 . S
C920 C921 1.391 . S
C921 H909 0.950 . S
C921 C917 1.393 . S
C921 C920 1.391 . S
C922 H912 0.950 . S
C922 C923 1.386 . S
C922 C924 1.391 . S
C923 C922 1.386 . S
C923 C927 1.393 . S
C924 H913 0.950 . S
C924 C922 1.391 . S
C924 C925 1.400 . S
C925 C919 1.491 . S
C925 C924 1.400 . S
C925 C926 1.398 . S
C926 H914 0.950 . S
C926 C925 1.398 . S
C926 C927 1.391 . S
C927 H915 0.950 . S
C927 C923 1.393 . S
C927 C926 1.391 . S
H928 C936 0.950 . S
H929 C941 0.950 . S
H930 C938 0.950 . S
H931 C940 0.950 . S
H932 C942 0.950 . S
H933 C944 0.950 . S
H934 C946 0.950 . S
H935 C947 0.950 . S
C936 H928 0.950 . S
C936 C937 1.386 . S
C936 C938 1.391 . S
C937 C936 1.386 . S
C937 C941 1.393 . S
C938 H930 0.950 . S
C938 C936 1.391 . S
C938 C939 1.400 . S
C939 C938 1.400 . S
C939 C940 1.398 . S
C939 C945 1.491 . S
C940 H931 0.950 . S
C940 C939 1.398 . S
C940 C941 1.391 . S
C941 H929 0.950 . S
C941 C937 1.393 . S
C941 C940 1.391 . S
C942 H932 0.950 . S
C942 C943 1.386 . S
C942 C944 1.391 . S
C943 C942 1.386 . S
C943 C947 1.393 . S
C944 H933 0.950 . S
C944 C942 1.391 . S
C944 C945 1.400 . S
C945 C939 1.491 . S
C945 C944 1.400 . S
C945 C946 1.398 . S
C946 H934 0.950 . S
C946 C945 1.398 . S
C946 C947 1.391 . S
C947 H935 0.950 . S
C947 C943 1.393 . S
C947 C946 1.391 . S
H948 C956 0.950 . S
H949 C961 0.950 . S
H950 C958 0.950 . S
H951 C960 0.950 . S
H952 C962 0.950 . S
H953 C964 0.950 . S
H954 C966 0.950 . S
H955 C967 0.950 . S
C956 H948 0.950 . S
C956 C957 1.386 . S
C956 C958 1.391 . S
C957 C956 1.386 . S
C957 C961 1.393 . S
C958 H950 0.950 . S
C958 C956 1.391 . S
C958 C959 1.400 . S
C959 C958 1.400 . S
C959 C960 1.398 . S
C959 C965 1.491 . S
C960 H951 0.950 . S
C960 C959 1.398 . S
C960 C961 1.391 . S
C961 H949 0.950 . S
C961 C957 1.393 . S
C961 C960 1.391 . S
C962 H952 0.950 . S
C962 C963 1.386 . S
C962 C964 1.391 . S
C963 C962 1.386 . S
C963 C967 1.393 . S
C964 H953 0.950 . S
C964 C962 1.391 . S
C964 C965 1.400 . S
C965 C959 1.491 . S
C965 C964 1.400 . S
C965 C966 1.398 . S
C966 H954 0.950 . S
C966 C965 1.398 . S
C966 C967 1.391 . S
C967 H955 0.950 . S
C967 C963 1.393 . S
C967 C966 1.391 . S
H968 C976 0.950 . S
H969 C981 0.950 . S
H970 C978 0.950 . S
H971 C980 0.950 . S
H972 C982 0.950 . S
H973 C984 0.950 . S
H974 C986 0.950 . S
H975 C987 0.950 . S
C976 H968 0.950 . S
C976 C977 1.386 . S
C976 C978 1.391 . S
C977 C976 1.386 . S
C977 C981 1.393 . S
C978 H970 0.950 . S
C978 C976 1.391 . S
C978 C979 1.400 . S
C979 C978 1.400 . S
C979 C980 1.398 . S
C979 C985 1.491 . S
C980 H971 0.950 . S
C980 C979 1.398 . S
C980 C981 1.391 . S
C981 H969 0.950 . S
C981 C977 1.393 . S
C981 C980 1.391 . S
C982 H972 0.950 . S
C982 C983 1.386 . S
C982 C984 1.391 . S
C983 C982 1.386 . S
C983 C987 1.393 . S
C984 H973 0.950 . S
C984 C982 1.391 . S
C984 C985 1.400 . S
C985 C979 1.491 . S
C985 C984 1.400 . S
C985 C986 1.398 . S
C986 H974 0.950 . S
C986 C985 1.398 . S
C986 C987 1.391 . S
C987 H975 0.950 . S
C987 C983 1.393 . S
C987 C986 1.391 . S
H988 C996 0.950 . S
H989 C1001 0.950 . S
H990 C998 0.950 . S
H991 C1000 0.950 . S
H992 C1002 0.950 . S
H993 C1004 0.950 . S
H994 C1006 0.950 . S
H995 C1007 0.950 . S
C996 H988 0.950 . S
C996 C997 1.386 . S
C996 C998 1.391 . S
C997 C996 1.386 . S
C997 C1001 1.393 . S
C998 H990 0.950 . S
C998 C996 1.391 . S
C998 C999 1.400 . S
C999 C998 1.400 . S
C999 C1000 1.398 . S
C999 C1005 1.491 . S
C1000 H991 0.950 . S
C1000 C999 1.398 . S
C1000 C1001 1.391 . S
C1001 H989 0.950 . S
C1001 C997 1.393 . S
C1001 C1000 1.391 . S
C1002 H992 0.950 . S
C1002 C1003 1.386 . S
C1002 C1004 1.391 . S
C1003 C1002 1.386 . S
C1003 C1007 1.393 . S
C1004 H993 0.950 . S
C1004 C1002 1.391 . S
C1004 C1005 1.400 . S
C1005 C999 1.491 . S
C1005 C1004 1.400 . S
C1005 C1006 1.398 . S
C1006 H994 0.950 . S
C1006 C1005 1.398 . S
C1006 C1007 1.391 . S
C1007 H995 0.950 . S
C1007 C1003 1.393 . S
C1007 C1006 1.391 . S
H1008 C1016 0.950 . S
H1009 C1021 0.950 . S
H1010 C1018 0.950 . S
H1011 C1020 0.950 . S
H1012 C1022 0.950 . S
H1013 C1024 0.950 . S
H1014 C1026 0.950 . S
H1015 C1027 0.950 . S
C1016 H1008 0.950 . S
C1016 C1017 1.386 . S
C1016 C1018 1.391 . S
C1017 C1016 1.386 . S
C1017 C1021 1.393 . S
C1018 H1010 0.950 . S
C1018 C1016 1.391 . S
C1018 C1019 1.400 . S
C1019 C1018 1.400 . S
C1019 C1020 1.398 . S
C1019 C1025 1.491 . S
C1020 H1011 0.950 . S
C1020 C1019 1.398 . S
C1020 C1021 1.391 . S
C1021 H1009 0.950 . S
C1021 C1017 1.393 . S
C1021 C1020 1.391 . S
C1022 H1012 0.950 . S
C1022 C1023 1.386 . S
C1022 C1024 1.391 . S
C1023 C1022 1.386 . S
C1023 C1027 1.393 . S
C1024 H1013 0.950 . S
C1024 C1022 1.391 . S
C1024 C1025 1.400 . S
C1025 C1019 1.491 . S
C1025 C1024 1.400 . S
C1025 C1026 1.398 . S
C1026 H1014 0.950 . S
C1026 C1025 1.398 . S
C1026 C1027 1.391 . S
C1027 H1015 0.950 . S
C1027 C1023 1.393 . S
C1027 C1026 1.391 . S
H1028 C1036 0.950 . S
H1029 C1041 0.950 . S
H1030 C1038 0.950 . S
H1031 C1040 0.950 . S
H1032 C1042 0.950 . S
H1033 C1044 0.950 . S
H1034 C1046 0.950 . S
H1035 C1047 0.950 . S
C1036 H1028 0.950 . S
C1036 C1037 1.386 . S
C1036 C1038 1.391 . S
C1037 C1036 1.386 . S
C1037 C1041 1.393 . S
C1038 H1030 0.950 . S
C1038 C1036 1.391 . S
C1038 C1039 1.400 . S
C1039 C1038 1.400 . S
C1039 C1040 1.398 . S
C1039 C1045 1.491 . S
C1040 H1031 0.950 . S
C1040 C1039 1.398 . S
C1040 C1041 1.391 . S
C1041 H1029 0.950 . S
C1041 C1037 1.393 . S
C1041 C1040 1.391 . S
C1042 H1032 0.950 . S
C1042 C1043 1.386 . S
C1042 C1044 1.391 . S
C1043 C1042 1.386 . S
C1043 C1047 1.393 . S
C1044 H1033 0.950 . S
C1044 C1042 1.391 . S
C1044 C1045 1.400 . S
C1045 C1039 1.491 . S
C1045 C1044 1.400 . S
C1045 C1046 1.398 . S
C1046 H1034 0.950 . S
C1046 C1045 1.398 . S
C1046 C1047 1.391 . S
C1047 H1035 0.950 . S
C1047 C1043 1.393 . S
C1047 C1046 1.391 . S
H1048 C1056 0.950 . S
H1049 C1061 0.950 . S
H1050 C1058 0.950 . S
H1051 C1060 0.950 . S
H1052 C1062 0.950 . S
H1053 C1064 0.950 . S
H1054 C1066 0.950 . S
H1055 C1067 0.950 . S
C1056 H1048 0.950 . S
C1056 C1057 1.386 . S
C1056 C1058 1.391 . S
C1057 C1056 1.386 . S
C1057 C1061 1.393 . S
C1058 H1050 0.950 . S
C1058 C1056 1.391 . S
C1058 C1059 1.400 . S
C1059 C1058 1.400 . S
C1059 C1060 1.398 . S
C1059 C1065 1.491 . S
C1060 H1051 0.950 . S
C1060 C1059 1.398 . S
C1060 C1061 1.391 . S
C1061 H1049 0.950 . S
C1061 C1057 1.393 . S
C1061 C1060 1.391 . S
C1062 H1052 0.950 . S
C1062 C1063 1.386 . S
C1062 C1064 1.391 . S
C1063 C1062 1.386 . S
C1063 C1067 1.393 . S
C1064 H1053 0.950 . S
C1064 C1062 1.391 . S
C1064 C1065 1.400 . S
C1065 C1059 1.491 . S
C1065 C1064 1.400 . S
C1065 C1066 1.398 . S
C1066 H1054 0.950 . S
C1066 C1065 1.398 . S
C1066 C1067 1.391 . S
C1067 H1055 0.950 . S
C1067 C1063 1.393 . S
C1067 C1066 1.391 . S
H1068 C1076 0.950 . S
H1069 C1081 0.950 . S
H1070 C1078 0.950 . S
H1071 C1080 0.950 . S
H1072 C1082 0.950 . S
H1073 C1084 0.950 . S
H1074 C1086 0.950 . S
H1075 C1087 0.950 . S
C1076 H1068 0.950 . S
C1076 C1077 1.386 . S
C1076 C1078 1.391 . S
C1077 C1076 1.386 . S
C1077 C1081 1.393 . S
C1078 H1070 0.950 . S
C1078 C1076 1.391 . S
C1078 C1079 1.400 . S
C1079 C1078 1.400 . S
C1079 C1080 1.398 . S
C1079 C1085 1.491 . S
C1080 H1071 0.950 . S
C1080 C1079 1.398 . S
C1080 C1081 1.391 . S
C1081 H1069 0.950 . S
C1081 C1077 1.393 . S
C1081 C1080 1.391 . S
C1082 H1072 0.950 . S
C1082 C1083 1.386 . S
C1082 C1084 1.391 . S
C1083 C1082 1.386 . S
C1083 C1087 1.393 . S
C1084 H1073 0.950 . S
C1084 C1082 1.391 . S
C1084 C1085 1.400 . S
C1085 C1079 1.491 . S
C1085 C1084 1.400 . S
C1085 C1086 1.398 . S
C1086 H1074 0.950 . S
C1086 C1085 1.398 . S
C1086 C1087 1.391 . S
C1087 H1075 0.950 . S
C1087 C1083 1.393 . S
C1087 C1086 1.391 . S
H1088 C1096 0.950 . S
H1089 C1101 0.950 . S
H1090 C1098 0.950 . S
H1091 C1100 0.950 . S
H1092 C1102 0.950 . S
H1093 C1104 0.950 . S
H1094 C1106 0.950 . S
H1095 C1107 0.950 . S
C1096 H1088 0.950 . S
C1096 C1097 1.386 . S
C1096 C1098 1.391 . S
C1097 C1096 1.386 . S
C1097 C1101 1.393 . S
C1098 H1090 0.950 . S
C1098 C1096 1.391 . S
C1098 C1099 1.400 . S
C1099 C1098 1.400 . S
C1099 C1100 1.398 . S
C1099 C1105 1.491 . S
C1100 H1091 0.950 . S
C1100 C1099 1.398 . S
C1100 C1101 1.391 . S
C1101 H1089 0.950 . S
C1101 C1097 1.393 . S
C1101 C1100 1.391 . S
C1102 H1092 0.950 . S
C1102 C1103 1.386 . S
C1102 C1104 1.391 . S
C1103 C1102 1.386 . S
C1103 C1107 1.393 . S
C1104 H1093 0.950 . S
C1104 C1102 1.391 . S
C1104 C1105 1.400 . S
C1105 C1099 1.491 . S
C1105 C1104 1.400 . S
C1105 C1106 1.398 . S
C1106 H1094 0.950 . S
C1106 C1105 1.398 . S
C1106 C1107 1.391 . S
C1107 H1095 0.950 . S
C1107 C1103 1.393 . S
C1107 C1106 1.391 . S
H1108 C1116 0.950 . S
H1109 C1121 0.950 . S
H1110 C1118 0.950 . S
H1111 C1120 0.950 . S
H1112 C1122 0.950 . S
H1113 C1124 0.950 . S
H1114 C1126 0.950 . S
H1115 C1127 0.950 . S
C1116 H1108 0.950 . S
C1116 C1117 1.386 . S
C1116 C1118 1.391 . S
C1117 C1116 1.386 . S
C1117 C1121 1.393 . S
C1118 H1110 0.950 . S
C1118 C1116 1.391 . S
C1118 C1119 1.400 . S
C1119 C1118 1.400 . S
C1119 C1120 1.398 . S
C1119 C1125 1.491 . S
C1120 H1111 0.950 . S
C1120 C1119 1.398 . S
C1120 C1121 1.391 . S
C1121 H1109 0.950 . S
C1121 C1117 1.393 . S
C1121 C1120 1.391 . S
C1122 H1112 0.950 . S
C1122 C1123 1.386 . S
C1122 C1124 1.391 . S
C1123 C1122 1.386 . S
C1123 C1127 1.393 . S
C1124 H1113 0.950 . S
C1124 C1122 1.391 . S
C1124 C1125 1.400 . S
C1125 C1119 1.491 . S
C1125 C1124 1.400 . S
C1125 C1126 1.398 . S
C1126 H1114 0.950 . S
C1126 C1125 1.398 . S
C1126 C1127 1.391 . S
C1127 H1115 0.950 . S
C1127 C1123 1.393 . S
C1127 C1126 1.391 . S
H1128 C1136 0.950 . S
H1129 C1141 0.950 . S
H1130 C1138 0.950 . S
H1131 C1140 0.950 . S
H1132 C1142 0.950 . S
H1133 C1144 0.950 . S
H1134 C1146 0.950 . S
H1135 C1147 0.950 . S
C1136 H1128 0.950 . S
C1136 C1137 1.386 . S
C1136 C1138 1.391 . S
C1137 C1136 1.386 . S
C1137 C1141 1.393 . S
C1138 H1130 0.950 . S
C1138 C1136 1.391 . S
C1138 C1139 1.400 . S
C1139 C1138 1.400 . S
C1139 C1140 1.398 . S
C1139 C1145 1.491 . S
C1140 H1131 0.950 . S
C1140 C1139 1.398 . S
C1140 C1141 1.391 . S
C1141 H1129 0.950 . S
C1141 C1137 1.393 . S
C1141 C1140 1.391 . S
C1142 H1132 0.950 . S
C1142 C1143 1.386 . S
C1142 C1144 1.391 . S
C1143 C1142 1.386 . S
C1143 C1147 1.393 . S
C1144 H1133 0.950 . S
C1144 C1142 1.391 . S
C1144 C1145 1.400 . S
C1145 C1139 1.491 . S
C1145 C1144 1.400 . S
C1145 C1146 1.398 . S
C1146 H1134 0.950 . S
C1146 C1145 1.398 . S
C1146 C1147 1.391 . S
C1147 H1135 0.950 . S
C1147 C1143 1.393 . S
C1147 C1146 1.391 . S
H1148 C1156 0.950 . S
H1149 C1161 0.950 . S
H1150 C1158 0.950 . S
H1151 C1160 0.950 . S
H1152 C1162 0.950 . S
H1153 C1164 0.950 . S
H1154 C1166 0.950 . S
H1155 C1167 0.950 . S
C1156 H1148 0.950 . S
C1156 C1157 1.386 . S
C1156 C1158 1.391 . S
C1157 C1156 1.386 . S
C1157 C1161 1.393 . S
C1158 H1150 0.950 . S
C1158 C1156 1.391 . S
C1158 C1159 1.400 . S
C1159 C1158 1.400 . S
C1159 C1160 1.398 . S
C1159 C1165 1.491 . S
C1160 H1151 0.950 . S
C1160 C1159 1.398 . S
C1160 C1161 1.391 . S
C1161 H1149 0.950 . S
C1161 C1157 1.393 . S
C1161 C1160 1.391 . S
C1162 H1152 0.950 . S
C1162 C1163 1.386 . S
C1162 C1164 1.391 . S
C1163 C1162 1.386 . S
C1163 C1167 1.393 . S
C1164 H1153 0.950 . S
C1164 C1162 1.391 . S
C1164 C1165 1.400 . S
C1165 C1159 1.491 . S
C1165 C1164 1.400 . S
C1165 C1166 1.398 . S
C1166 H1154 0.950 . S
C1166 C1165 1.398 . S
C1166 C1167 1.391 . S
C1167 H1155 0.950 . S
C1167 C1163 1.393 . S
C1167 C1166 1.391 . S
H1168 C1176 0.950 . S
H1169 C1181 0.950 . S
H1170 C1178 0.950 . S
H1171 C1180 0.950 . S
H1172 C1182 0.950 . S
H1173 C1184 0.950 . S
H1174 C1186 0.950 . S
H1175 C1187 0.950 . S
C1176 H1168 0.950 . S
C1176 C1177 1.386 . S
C1176 C1178 1.391 . S
C1177 C1176 1.386 . S
C1177 C1181 1.393 . S
C1178 H1170 0.950 . S
C1178 C1176 1.391 . S
C1178 C1179 1.400 . S
C1179 C1178 1.400 . S
C1179 C1180 1.398 . S
C1179 C1185 1.491 . S
C1180 H1171 0.950 . S
C1180 C1179 1.398 . S
C1180 C1181 1.391 . S
C1181 H1169 0.950 . S
C1181 C1177 1.393 . S
C1181 C1180 1.391 . S
C1182 H1172 0.950 . S
C1182 C1183 1.386 . S
C1182 C1184 1.391 . S
C1183 C1182 1.386 . S
C1183 C1187 1.393 . S
C1184 H1173 0.950 . S
C1184 C1182 1.391 . S
C1184 C1185 1.400 . S
C1185 C1179 1.491 . S
C1185 C1184 1.400 . S
C1185 C1186 1.398 . S
C1186 H1174 0.950 . S
C1186 C1185 1.398 . S
C1186 C1187 1.391 . S
C1187 H1175 0.950 . S
C1187 C1183 1.393 . S
C1187 C1186 1.391 . S
H1188 C1196 0.950 . S
H1189 C1201 0.950 . S
H1190 C1198 0.950 . S
H1191 C1200 0.950 . S
H1192 C1202 0.950 . S
H1193 C1204 0.950 . S
H1194 C1206 0.950 . S
H1195 C1207 0.950 . S
C1196 H1188 0.950 . S
C1196 C1197 1.386 . S
C1196 C1198 1.391 . S
C1197 C1196 1.386 . S
C1197 C1201 1.393 . S
C1198 H1190 0.950 . S
C1198 C1196 1.391 . S
C1198 C1199 1.400 . S
C1199 C1198 1.400 . S
C1199 C1200 1.398 . S
C1199 C1205 1.491 . S
C1200 H1191 0.950 . S
C1200 C1199 1.398 . S
C1200 C1201 1.391 . S
C1201 H1189 0.950 . S
C1201 C1197 1.393 . S
C1201 C1200 1.391 . S
C1202 H1192 0.950 . S
C1202 C1203 1.386 . S
C1202 C1204 1.391 . S
C1203 C1202 1.386 . S
C1203 C1207 1.393 . S
C1204 H1193 0.950 . S
C1204 C1202 1.391 . S
C1204 C1205 1.400 . S
C1205 C1199 1.491 . S
C1205 C1204 1.400 . S
C1205 C1206 1.398 . S
C1206 H1194 0.950 . S
C1206 C1205 1.398 . S
C1206 C1207 1.391 . S
C1207 H1195 0.950 . S
C1207 C1203 1.393 . S
C1207 C1206 1.391 . S
H1208 C1216 0.950 . S
H1209 C1221 0.950 . S
H1210 C1218 0.950 . S
H1211 C1220 0.950 . S
H1212 C1222 0.950 . S
H1213 C1224 0.950 . S
H1214 C1226 0.950 . S
H1215 C1227 0.950 . S
C1216 H1208 0.950 . S
C1216 C1217 1.386 . S
C1216 C1218 1.391 . S
C1217 C1216 1.386 . S
C1217 C1221 1.393 . S
C1218 H1210 0.950 . S
C1218 C1216 1.391 . S
C1218 C1219 1.400 . S
C1219 C1218 1.400 . S
C1219 C1220 1.398 . S
C1219 C1225 1.491 . S
C1220 H1211 0.950 . S
C1220 C1219 1.398 . S
C1220 C1221 1.391 . S
C1221 H1209 0.950 . S
C1221 C1217 1.393 . S
C1221 C1220 1.391 . S
C1222 H1212 0.950 . S
C1222 C1223 1.386 . S
C1222 C1224 1.391 . S
C1223 C1222 1.386 . S
C1223 C1227 1.393 . S
C1224 H1213 0.950 . S
C1224 C1222 1.391 . S
C1224 C1225 1.400 . S
C1225 C1219 1.491 . S
C1225 C1224 1.400 . S
C1225 C1226 1.398 . S
C1226 H1214 0.950 . S
C1226 C1225 1.398 . S
C1226 C1227 1.391 . S
C1227 H1215 0.950 . S
C1227 C1223 1.393 . S
C1227 C1226 1.391 . S
H1228 C1236 0.950 . S
H1229 C1241 0.950 . S
H1230 C1238 0.950 . S
H1231 C1240 0.950 . S
H1232 C1242 0.950 . S
H1233 C1244 0.950 . S
H1234 C1246 0.950 . S
H1235 C1247 0.950 . S
C1236 H1228 0.950 . S
C1236 C1237 1.386 . S
C1236 C1238 1.391 . S
C1237 C1236 1.386 . S
C1237 C1241 1.393 . S
C1238 H1230 0.950 . S
C1238 C1236 1.391 . S
C1238 C1239 1.400 . S
C1239 C1238 1.400 . S
C1239 C1240 1.398 . S
C1239 C1245 1.491 . S
C1240 H1231 0.950 . S
C1240 C1239 1.398 . S
C1240 C1241 1.391 . S
C1241 H1229 0.950 . S
C1241 C1237 1.393 . S
C1241 C1240 1.391 . S
C1242 H1232 0.950 . S
C1242 C1243 1.386 . S
C1242 C1244 1.391 . S
C1243 C1242 1.386 . S
C1243 C1247 1.393 . S
C1244 H1233 0.950 . S
C1244 C1242 1.391 . S
C1244 C1245 1.400 . S
C1245 C1239 1.491 . S
C1245 C1244 1.400 . S
C1245 C1246 1.398 . S
C1246 H1234 0.950 . S
C1246 C1245 1.398 . S
C1246 C1247 1.391 . S
C1247 H1235 0.950 . S
C1247 C1243 1.393 . S
C1247 C1246 1.391 . S
H1248 C1256 0.950 . S
H1249 C1261 0.950 . S
H1250 C1258 0.950 . S
H1251 C1260 0.950 . S
H1252 C1262 0.950 . S
H1253 C1264 0.950 . S
H1254 C1266 0.950 . S
H1255 C1267 0.950 . S
C1256 H1248 0.950 . S
C1256 C1257 1.386 . S
C1256 C1258 1.391 . S
C1257 C1256 1.386 . S
C1257 C1261 1.393 . S
C1258 H1250 0.950 . S
C1258 C1256 1.391 . S
C1258 C1259 1.400 . S
C1259 C1258 1.400 . S
C1259 C1260 1.398 . S
C1259 C1265 1.491 . S
C1260 H1251 0.950 . S
C1260 C1259 1.398 . S
C1260 C1261 1.391 . S
C1261 H1249 0.950 . S
C1261 C1257 1.393 . S
C1261 C1260 1.391 . S
C1262 H1252 0.950 . S
C1262 C1263 1.386 . S
C1262 C1264 1.391 . S
C1263 C1262 1.386 . S
C1263 C1267 1.393 . S
C1264 H1253 0.950 . S
C1264 C1262 1.391 . S
C1264 C1265 1.400 . S
C1265 C1259 1.491 . S
C1265 C1264 1.400 . S
C1265 C1266 1.398 . S
C1266 H1254 0.950 . S
C1266 C1265 1.398 . S
C1266 C1267 1.391 . S
C1267 H1255 0.950 . S
C1267 C1263 1.393 . S
C1267 C1266 1.391 . S
H1268 C1276 0.950 . S
H1269 C1281 0.950 . S
H1270 C1278 0.950 . S
H1271 C1280 0.950 . S
H1272 C1282 0.950 . S
H1273 C1284 0.950 . S
H1274 C1286 0.950 . S
H1275 C1287 0.950 . S
C1276 H1268 0.950 . S
C1276 C1277 1.386 . S
C1276 C1278 1.391 . S
C1277 C1276 1.386 . S
C1277 C1281 1.393 . S
C1278 H1270 0.950 . S
C1278 C1276 1.391 . S
C1278 C1279 1.400 . S
C1279 C1278 1.400 . S
C1279 C1280 1.398 . S
C1279 C1285 1.491 . S
C1280 H1271 0.950 . S
C1280 C1279 1.398 . S
C1280 C1281 1.391 . S
C1281 H1269 0.950 . S
C1281 C1277 1.393 . S
C1281 C1280 1.391 . S
C1282 H1272 0.950 . S
C1282 C1283 1.386 . S
C1282 C1284 1.391 . S
C1283 C1282 1.386 . S
C1283 C1287 1.393 . S
C1284 H1273 0.950 . S
C1284 C1282 1.391 . S
C1284 C1285 1.400 . S
C1285 C1279 1.491 . S
C1285 C1284 1.400 . S
C1285 C1286 1.398 . S
C1286 H1274 0.950 . S
C1286 C1285 1.398 . S
C1286 C1287 1.391 . S
C1287 H1275 0.950 . S
C1287 C1283 1.393 . S
C1287 C1286 1.391 . S
H1288 C1296 0.950 . S
H1289 C1301 0.950 . S
H1290 C1298 0.950 . S
H1291 C1300 0.950 . S
H1292 C1302 0.950 . S
H1293 C1304 0.950 . S
H1294 C1306 0.950 . S
H1295 C1307 0.950 . S
C1296 H1288 0.950 . S
C1296 C1297 1.386 . S
C1296 C1298 1.391 . S
C1297 C1296 1.386 . S
C1297 C1301 1.393 . S
C1298 H1290 0.950 . S
C1298 C1296 1.391 . S
C1298 C1299 1.400 . S
C1299 C1298 1.400 . S
C1299 C1300 1.398 . S
C1299 C1305 1.491 . S
C1300 H1291 0.950 . S
C1300 C1299 1.398 . S
C1300 C1301 1.391 . S
C1301 H1289 0.950 . S
C1301 C1297 1.393 . S
C1301 C1300 1.391 . S
C1302 H1292 0.950 . S
C1302 C1303 1.386 . S
C1302 C1304 1.391 . S
C1303 C1302 1.386 . S
C1303 C1307 1.393 . S
C1304 H1293 0.950 . S
C1304 C1302 1.391 . S
C1304 C1305 1.400 . S
C1305 C1299 1.491 . S
C1305 C1304 1.400 . S
C1305 C1306 1.398 . S
C1306 H1294 0.950 . S
C1306 C1305 1.398 . S
C1306 C1307 1.391 . S
C1307 H1295 0.950 . S
C1307 C1303 1.393 . S
C1307 C1306 1.391 . S
H1308 C1316 0.950 . S
H1309 C1321 0.950 . S
H1310 C1318 0.950 . S
H1311 C1320 0.950 . S
H1312 C1322 0.950 . S
H1313 C1324 0.950 . S
H1314 C1326 0.950 . S
H1315 C1327 0.950 . S
C1316 H1308 0.950 . S
C1316 C1317 1.386 . S
C1316 C1318 1.391 . S
C1317 C1316 1.386 . S
C1317 C1321 1.393 . S
C1318 H1310 0.950 . S
C1318 C1316 1.391 . S
C1318 C1319 1.400 . S
C1319 C1318 1.400 . S
C1319 C1320 1.398 . S
C1319 C1325 1.491 . S
C1320 H1311 0.950 . S
C1320 C1319 1.398 . S
C1320 C1321 1.391 . S
C1321 H1309 0.950 . S
C1321 C1317 1.393 . S
C1321 C1320 1.391 . S
C1322 H1312 0.950 . S
C1322 C1323 1.386 . S
C1322 C1324 1.391 . S
C1323 C1322 1.386 . S
C1323 C1327 1.393 . S
C1324 H1313 0.950 . S
C1324 C1322 1.391 . S
C1324 C1325 1.400 . S
C1325 C1319 1.491 . S
C1325 C1324 1.400 . S
C1325 C1326 1.398 . S
C1326 H1314 0.950 . S
C1326 C1325 1.398 . S
C1326 C1327 1.391 . S
C1327 H1315 0.950 . S
C1327 C1323 1.393 . S
C1327 C1326 1.391 . S
C537 C21 1.326 . S
C543 C87 1.327 . S
C557 C120 1.328 . S
C563 C54 1.321 . S
C577 C219 1.323 . S
C583 C153 1.329 . S
C597 C186 1.327 . S
C603 C252 1.321 . S
C617 C351 1.328 . S
C623 C285 1.321 . S
C637 C318 1.330 . S
C643 C384 1.322 . S
C657 C483 1.329 . S
C663 C417 1.324 . S
C677 C450 1.327 . S
C683 C516 1.326 . S
C697 C7 1.487 . S
C703 C337 1.481 . S
C717 C370 1.492 . S
C723 C40 1.477 . S
C737 C271 1.480 . S
C743 C73 1.489 . S
C757 C304 1.487 . S
C763 C106 1.482 . S
C777 C469 1.490 . S
C783 C139 1.479 . S
C797 C502 1.477 . S
C803 C172 1.492 . S
C817 C403 1.481 . S
C823 C205 1.488 . S
C837 C436 1.487 . S
C843 C238 1.482 . S
C857 C18 1.294 . S
C863 C249 1.276 . S
C877 C51 1.293 . S
C883 C150 1.275 . S
C897 C183 1.295 . S
C903 C84 1.277 . S
C917 C216 1.295 . S
C923 C117 1.283 . S
C937 C282 1.287 . S
C943 C513 1.293 . S
C957 C315 1.275 . S
C963 C414 1.289 . S
C977 C348 1.294 . S
C983 C447 1.284 . S
C997 C381 1.276 . S
C1003 C480 1.294 . S
C1017 N464 1.252 . S
C1023 N13 1.246 . S
C1037 N46 1.256 . S
C1043 N497 1.256 . S
C1057 N398 1.251 . S
C1063 N79 1.246 . S
C1077 N431 1.269 . S
C1083 N112 1.268 . S
C1097 N332 1.259 . S
C1103 N145 1.259 . S
C1117 N178 1.256 . S
C1123 N365 1.257 . S
C1137 N266 1.271 . S
C1143 N211 1.269 . S
C1157 N244 1.254 . S
C1163 N299 1.254 . S
C1177 N200 1.259 . S
C1183 N277 1.252 . S
C1197 N233 1.267 . S
C1203 N310 1.261 . S
C1217 N134 1.264 . S
C1223 N343 1.257 . S
C1237 N376 1.253 . S
C1243 N167 1.254 . S
C1257 N68 1.268 . S
C1263 N409 1.262 . S
C1277 N442 1.262 . S
C1283 N101 1.268 . S
C1297 N475 1.251 . S
C1303 N2 1.258 . S
C1317 N35 1.252 . S
C1323 N508 1.251 . S
