# Generated by pormake.
# Topology whr, (6)-cn, num edge types: 1
# Building blocks:
#     Node 0, Type 0, BuildingBlock: OJICUG_clean_sbu_0, # of connection points: 6
#     Node 1, Type 0, BuildingBlock: OJICUG_clean_sbu_0, # of connection points: 6
#     Node 2, Type 0, BuildingBlock: OJICUG_clean_sbu_0, # of connection points: 6
#     Node 3, Type 0, BuildingBlock: OJICUG_clean_sbu_0, # of connection points: 6
#     Node 4, Type 0, BuildingBlock: OJICUG_clean_sbu_0, # of connection points: 6
#     Node 5, Type 0, BuildingBlock: OJICUG_clean_sbu_0, # of connection points: 6
#     Node 6, Type 0, BuildingBlock: OJICUG_clean_sbu_0, # of connection points: 6
#     Node 7, Type 0, BuildingBlock: OJICUG_clean_sbu_0, # of connection points: 6
#     Node 8, Type 0, BuildingBlock: OJICUG_clean_sbu_0, # of connection points: 6
#     Node 9, Type 0, BuildingBlock: OJICUG_clean_sbu_0, # of connection points: 6
#     Node 10, Type 0, BuildingBlock: OJICUG_clean_sbu_0, # of connection points: 6
#     Node 11, Type 0, BuildingBlock: OJICUG_clean_sbu_0, # of connection points: 6
#     Node 12, Type 0, BuildingBlock: OJICUG_clean_sbu_0, # of connection points: 6
#     Node 13, Type 0, BuildingBlock: OJICUG_clean_sbu_0, # of connection points: 6
#     Node 14, Type 0, BuildingBlock: OJICUG_clean_sbu_0, # of connection points: 6
#     Node 15, Type 0, BuildingBlock: OJICUG_clean_sbu_0, # of connection points: 6
#     Edge 16, Type (0, 0), BuildingBlock: EZIPEK_clean_linker_0, # of connection points: 2
#     Edge 17, Type (0, 0), BuildingBlock: EZIPEK_clean_linker_0, # of connection points: 2
#     Edge 18, Type (0, 0), BuildingBlock: EZIPEK_clean_linker_0, # of connection points: 2
#     Edge 19, Type (0, 0), BuildingBlock: EZIPEK_clean_linker_0, # of connection points: 2
#     Edge 20, Type (0, 0), BuildingBlock: EZIPEK_clean_linker_0, # of connection points: 2
#     Edge 21, Type (0, 0), BuildingBlock: EZIPEK_clean_linker_0, # of connection points: 2
#     Edge 22, Type (0, 0), BuildingBlock: EZIPEK_clean_linker_0, # of connection points: 2
#     Edge 23, Type (0, 0), BuildingBlock: EZIPEK_clean_linker_0, # of connection points: 2
#     Edge 24, Type (0, 0), BuildingBlock: EZIPEK_clean_linker_0, # of connection points: 2
#     Edge 25, Type (0, 0), BuildingBlock: EZIPEK_clean_linker_0, # of connection points: 2
#     Edge 26, Type (0, 0), BuildingBlock: EZIPEK_clean_linker_0, # of connection points: 2
#     Edge 27, Type (0, 0), BuildingBlock: EZIPEK_clean_linker_0, # of connection points: 2
#     Edge 28, Type (0, 0), BuildingBlock: EZIPEK_clean_linker_0, # of connection points: 2
#     Edge 29, Type (0, 0), BuildingBlock: EZIPEK_clean_linker_0, # of connection points: 2
#     Edge 30, Type (0, 0), BuildingBlock: EZIPEK_clean_linker_0, # of connection points: 2
#     Edge 31, Type (0, 0), BuildingBlock: EZIPEK_clean_linker_0, # of connection points: 2
#     Edge 32, Type (0, 0), BuildingBlock: EZIPEK_clean_linker_0, # of connection points: 2
#     Edge 33, Type (0, 0), BuildingBlock: EZIPEK_clean_linker_0, # of connection points: 2
#     Edge 34, Type (0, 0), BuildingBlock: EZIPEK_clean_linker_0, # of connection points: 2
#     Edge 35, Type (0, 0), BuildingBlock: EZIPEK_clean_linker_0, # of connection points: 2
#     Edge 36, Type (0, 0), BuildingBlock: EZIPEK_clean_linker_0, # of connection points: 2
#     Edge 37, Type (0, 0), BuildingBlock: EZIPEK_clean_linker_0, # of connection points: 2
#     Edge 38, Type (0, 0), BuildingBlock: EZIPEK_clean_linker_0, # of connection points: 2
#     Edge 39, Type (0, 0), BuildingBlock: EZIPEK_clean_linker_0, # of connection points: 2
#     Edge 40, Type (0, 0), BuildingBlock: EZIPEK_clean_linker_0, # of connection points: 2
#     Edge 41, Type (0, 0), BuildingBlock: EZIPEK_clean_linker_0, # of connection points: 2
#     Edge 42, Type (0, 0), BuildingBlock: EZIPEK_clean_linker_0, # of connection points: 2
#     Edge 43, Type (0, 0), BuildingBlock: EZIPEK_clean_linker_0, # of connection points: 2
#     Edge 44, Type (0, 0), BuildingBlock: EZIPEK_clean_linker_0, # of connection points: 2
#     Edge 45, Type (0, 0), BuildingBlock: EZIPEK_clean_linker_0, # of connection points: 2
#     Edge 46, Type (0, 0), BuildingBlock: EZIPEK_clean_linker_0, # of connection points: 2
#     Edge 47, Type (0, 0), BuildingBlock: EZIPEK_clean_linker_0, # of connection points: 2
#     Edge 48, Type (0, 0), BuildingBlock: EZIPEK_clean_linker_0, # of connection points: 2
#     Edge 49, Type (0, 0), BuildingBlock: EZIPEK_clean_linker_0, # of connection points: 2
#     Edge 50, Type (0, 0), BuildingBlock: EZIPEK_clean_linker_0, # of connection points: 2
#     Edge 51, Type (0, 0), BuildingBlock: EZIPEK_clean_linker_0, # of connection points: 2
#     Edge 52, Type (0, 0), BuildingBlock: EZIPEK_clean_linker_0, # of connection points: 2
#     Edge 53, Type (0, 0), BuildingBlock: EZIPEK_clean_linker_0, # of connection points: 2
#     Edge 54, Type (0, 0), BuildingBlock: EZIPEK_clean_linker_0, # of connection points: 2
#     Edge 55, Type (0, 0), BuildingBlock: EZIPEK_clean_linker_0, # of connection points: 2
#     Edge 56, Type (0, 0), BuildingBlock: EZIPEK_clean_linker_0, # of connection points: 2
#     Edge 57, Type (0, 0), BuildingBlock: EZIPEK_clean_linker_0, # of connection points: 2
#     Edge 58, Type (0, 0), BuildingBlock: EZIPEK_clean_linker_0, # of connection points: 2
#     Edge 59, Type (0, 0), BuildingBlock: EZIPEK_clean_linker_0, # of connection points: 2
#     Edge 60, Type (0, 0), BuildingBlock: EZIPEK_clean_linker_0, # of connection points: 2
#     Edge 61, Type (0, 0), BuildingBlock: EZIPEK_clean_linker_0, # of connection points: 2
#     Edge 62, Type (0, 0), BuildingBlock: EZIPEK_clean_linker_0, # of connection points: 2
#     Edge 63, Type (0, 0), BuildingBlock: EZIPEK_clean_linker_0, # of connection points: 2
# Relax obj value: 0.342
# Max RMSD: 0.271
# Mean RMSD: 0.271
data_MOF--net-whr--node1-OJICUG_clean_sbu_0--edge1-EZIPEK_clean_linker_0
_symmetry_space_group_name_H-M    P1
_symmetry_Int_Tables_number       1
_symmetry_cell_setting            triclinic
loop_
_symmetry_equiv_pos_as_xyz
'x, y, z'
_cell_length_a     36.791157
_cell_length_b     36.78154
_cell_length_c     22.392665
_cell_angle_alpha  90.01951
_cell_angle_beta   89.992024
_cell_angle_gamma 90.098687
loop_
_atom_site_label
_atom_site_type_symbol
_atom_site_fract_x
_atom_site_fract_y
_atom_site_fract_z
_atom_type_partial_charge
Sc0 Sc 0.17464 0.0591 0.10202 0.0
Sc1 Sc 0.22742 0.11256 0.00606 0.0
Sc2 Sc 0.25585 0.02382 0.04424 0.0
O3 O 0.21962 0.06541 0.05097 0.0
C4 C 0.23358 0.01363 0.17693 0.0
C5 C 0.20473 0.13755 0.13926 0.0
C6 C 0.31011 0.08986 0.0295 0.0
C7 C 0.14135 0.11028 0.00233 0.0
C8 C 0.17751 0.98406 0.03895 0.0
C9 C 0.24591 0.05131 0.91001 0.0
O10 O 0.20215 0.02624 0.16653 0.0
O11 O 0.22088 0.14395 0.08943 0.0
O12 O 0.30419 0.05738 0.04619 0.0
O13 O 0.1381 0.08859 0.04567 0.0
O14 O 0.21221 0.98376 0.03711 0.0
O15 O 0.2332 0.08278 0.92242 0.0
O16 O 0.15904 0.01115 0.05613 0.0
O17 O 0.17171 0.12131 0.98336 0.0
O18 O 0.25605 0.02862 0.94945 0.0
O19 O 0.18806 0.10785 0.15042 0.0
O20 O 0.25938 0.01582 0.13947 0.0
O21 O 0.28511 0.11201 0.0162 0.0
Sc22 Sc 0.06349 0.81471 0.86277 0.0
Sc23 Sc 0.11224 0.7694 0.97006 0.0
Sc24 Sc 0.02585 0.73867 0.92999 0.0
O25 O 0.06712 0.77408 0.92141 0.0
C26 C 0.98792 0.81732 0.92019 0.0
C27 C 0.10397 0.85319 0.97055 0.0
C28 C 0.04693 0.75031 0.06239 0.0
C29 C 0.14235 0.79172 0.83919 0.0
C30 C 0.02056 0.7513 0.79571 0.0
C31 C 0.09647 0.68847 0.95398 0.0
O32 O 0.01645 0.83458 0.90581 0.0
O33 O 0.10823 0.82426 0.00027 0.0
O34 O 0.0225 0.74832 0.02274 0.0
O35 O 0.11071 0.79519 0.81733 0.0
O36 O 0.02574 0.72703 0.83527 0.0
O37 O 0.11851 0.71405 0.94263 0.0
O38 O 0.02919 0.78435 0.80393 0.0
O39 O 0.1476 0.78621 0.89508 0.0
O40 O 0.06199 0.69275 0.95136 0.0
O41 O 0.09571 0.85209 0.91543 0.0
O42 O 0.98573 0.78249 0.91931 0.0
O43 O 0.08066 0.75462 0.0504 0.0
Sc44 Sc 0.74342 0.97064 0.05394 0.0
Sc45 Sc 0.77367 0.88244 0.01867 0.0
Sc46 Sc 0.8269 0.9381 0.10866 0.0
O47 O 0.78084 0.93038 0.0615 0.0
C48 C 0.81771 0.01544 0.04869 0.0
C49 C 0.75404 0.94111 0.92104 0.0
C50 C 0.85933 0.88944 0.0083 0.0
C51 C 0.69083 0.90481 0.04499 0.0
C52 C 0.76809 0.97708 0.18982 0.0
C53 C 0.80143 0.85706 0.14428 0.0
O54 O 0.78431 0.0111 0.03622 0.0
O55 O 0.77057 0.91165 0.93445 0.0
O56 O 0.861 0.91889 0.03747 0.0
O57 O 0.69679 0.9359 0.06754 0.0
O58 O 0.7977 0.95987 0.18298 0.0
O59 O 0.77793 0.85267 0.10268 0.0
O60 O 0.74533 0.98303 0.14811 0.0
O61 O 0.71581 0.88447 0.0252 0.0
O62 O 0.82222 0.88471 0.14788 0.0
O63 O 0.73977 0.96231 0.95935 0.0
O64 O 0.83643 0.99187 0.07606 0.0
O65 O 0.8302 0.87137 0.00336 0.0
Sc66 Sc 0.97264 0.26017 0.91795 0.0
Sc67 Sc 0.88498 0.23299 0.96121 0.0
Sc68 Sc 0.93634 0.18001 0.86474 0.0
O69 O 0.9305 0.22513 0.91385 0.0
C70 C 0.97833 0.24026 0.78691 0.0
C71 C 0.90621 0.31439 0.93888 0.0
C72 C 0.85786 0.20587 0.83027 0.0
C73 C 0.94977 0.24906 0.0534 0.0
C74 C 0.01197 0.1841 0.92171 0.0
C75 C 0.88595 0.14816 0.9676 0.0
O76 O 0.97276 0.26687 0.82223 0.0
O77 O 0.88218 0.28962 0.93942 0.0
O78 O 0.88877 0.19357 0.81413 0.0
O79 O 0.97394 0.25341 0.01315 0.0
O80 O 0.98305 0.16531 0.91724 0.0
O81 O 0.88224 0.17835 0.99363 0.0
O82 O 0.01289 0.21753 0.90745 0.0
O83 O 0.91607 0.24424 0.04189 0.0
O84 O 0.90276 0.14511 0.91852 0.0
O85 O 0.93982 0.30806 0.93183 0.0
O86 O 0.9707 0.20757 0.80087 0.0
O87 O 0.85178 0.21981 0.88201 0.0
Sc88 Sc 0.74534 0.01553 0.55901 0.0
Sc89 Sc 0.76869 0.1044 0.51714 0.0
Sc90 Sc 0.8216 0.05711 0.61964 0.0
O91 O 0.77821 0.05943 0.56548 0.0
C92 C 0.76102 0.01177 0.69218 0.0
C93 C 0.6885 0.08051 0.5361 0.0
C94 C 0.79023 0.13498 0.64805 0.0
C95 C 0.75676 0.03743 0.42593 0.0
C96 C 0.82443 0.98043 0.56597 0.0
C97 C 0.85369 0.1057 0.51417 0.0
O98 O 0.73566 0.01504 0.65385 0.0
O99 O 0.71242 0.10518 0.5389 0.0
O100 O 0.80346 0.10485 0.66597 0.0
O101 O 0.75517 0.01306 0.46588 0.0
O102 O 0.84132 0.01008 0.57427 0.0
O103 O 0.82366 0.10972 0.4876 0.0
O104 O 0.79001 0.97745 0.57005 0.0
O105 O 0.75841 0.07156 0.43729 0.0
O106 O 0.85663 0.09016 0.56449 0.0
O107 O 0.69592 0.04679 0.5408 0.0
O108 O 0.79335 0.02274 0.68253 0.0
O109 O 0.77873 0.13988 0.59462 0.0
Sc110 Sc 0.05468 0.17565 0.36628 0.0
Sc111 Sc 0.10899 0.22835 0.46014 0.0
Sc112 Sc 0.02127 0.25745 0.41865 0.0
O113 O 0.06243 0.22111 0.41426 0.0
C114 C 0.01593 0.23755 0.28671 0.0
C115 C 0.13482 0.19984 0.33028 0.0
C116 C 0.08894 0.31044 0.43902 0.0
C117 C 0.10039 0.14283 0.4738 0.0
C118 C 0.9785 0.18297 0.42249 0.0
C119 C 0.04493 0.2458 0.55367 0.0
O120 O 0.02368 0.20473 0.29971 0.0
O121 O 0.14133 0.21588 0.38011 0.0
O122 O 0.05533 0.30463 0.43107 0.0
O123 O 0.0824 0.13964 0.42595 0.0
O124 O 0.97879 0.21662 0.40991 0.0
O125 O 0.07832 0.23929 0.54168 0.0
O126 O 0.0065 0.16331 0.41616 0.0
O127 O 0.11228 0.17337 0.49076 0.0
O128 O 0.02068 0.25121 0.51388 0.0
O129 O 0.10418 0.18553 0.3172 0.0
O130 O 0.02081 0.26381 0.32301 0.0
O131 O 0.11245 0.28529 0.44048 0.0
Sc132 Sc 0.18554 0.94352 0.61532 0.0
Sc133 Sc 0.23119 0.89053 0.51444 0.0
Sc134 Sc 0.25663 0.98178 0.53888 0.0
O135 O 0.22413 0.9391 0.55394 0.0
C136 C 0.175 0.01492 0.54865 0.0
C137 C 0.1489 0.88806 0.52181 0.0
C138 C 0.24434 0.94976 0.41083 0.0
C139 C 0.21288 0.87058 0.65158 0.0
C140 C 0.24545 0.99456 0.67263 0.0
C141 C 0.312 0.91484 0.52892 0.0
O142 O 0.1597 0.98596 0.56725 0.0
O143 O 0.17606 0.88776 0.48737 0.0
O144 O 0.24727 0.9764 0.44655 0.0
O145 O 0.21565 0.90391 0.66331 0.0
O146 O 0.26899 0.98973 0.63207 0.0
O147 O 0.28786 0.89038 0.53592 0.0
O148 O 0.21282 0.9841 0.66728 0.0
O149 O 0.21637 0.85969 0.59739 0.0
O150 O 0.30508 0.94878 0.52805 0.0
O151 O 0.14976 0.90307 0.57318 0.0
O152 O 0.2096 0.0184 0.54336 0.0
O153 O 0.24192 0.91664 0.42798 0.0
Sc154 Sc 0.97794 0.73369 0.43038 0.0
Sc155 Sc 0.89084 0.76602 0.47139 0.0
Sc156 Sc 0.9482 0.81767 0.38096 0.0
O157 O 0.93834 0.77203 0.42739 0.0
C158 C 0.02286 0.8078 0.44095 0.0
C159 C 0.953 0.74471 0.56527 0.0
C160 C 0.89653 0.85189 0.47938 0.0
C161 C 0.90879 0.68281 0.4458 0.0
C162 C 0.98634 0.75663 0.2999 0.0
C163 C 0.86843 0.79383 0.34002 0.0
O164 O 0.02174 0.77389 0.42952 0.0
O165 O 0.92066 0.75558 0.55386 0.0
O166 O 0.91962 0.85442 0.43788 0.0
O167 O 0.94229 0.68687 0.43428 0.0
O168 O 0.98016 0.78934 0.31515 0.0
O169 O 0.86062 0.77715 0.38879 0.0
O170 O 0.98016 0.72992 0.33448 0.0
O171 O 0.88744 0.70914 0.45507 0.0
O172 O 0.8993 0.8086 0.32968 0.0
O173 O 0.9765 0.73656 0.52561 0.0
O174 O 0.99557 0.82831 0.43328 0.0
O175 O 0.88467 0.82171 0.49814 0.0
Sc176 Sc 0.67091 0.54878 0.60975 0.0
Sc177 Sc 0.71858 0.60723 0.51655 0.0
Sc178 Sc 0.75058 0.5184 0.54143 0.0
O179 O 0.71348 0.55839 0.55595 0.0
C180 C 0.73613 0.50696 0.67563 0.0
C181 C 0.69298 0.62852 0.64906 0.0
C182 C 0.80035 0.59027 0.52778 0.0
C183 C 0.63335 0.5999 0.51336 0.0
C184 C 0.67542 0.47481 0.54469 0.0
C185 C 0.73872 0.54881 0.41354 0.0
O186 O 0.70307 0.51589 0.66826 0.0
O187 O 0.70545 0.63693 0.59772 0.0
O188 O 0.79618 0.55584 0.52689 0.0
O189 O 0.63247 0.57914 0.55842 0.0
O190 O 0.71006 0.47504 0.54545 0.0
O191 O 0.73198 0.58083 0.43236 0.0
O192 O 0.65626 0.502 0.55914 0.0
O193 O 0.6627 0.60968 0.48822 0.0
O194 O 0.74211 0.52139 0.44756 0.0
O195 O 0.6826 0.59644 0.6626 0.0
O196 O 0.76064 0.51251 0.63631 0.0
O197 O 0.7747 0.61164 0.54114 0.0
Sc198 Sc 0.55463 0.30659 0.36421 0.0
Sc199 Sc 0.60726 0.26209 0.46899 0.0
Sc200 Sc 0.51816 0.23382 0.44241 0.0
O201 O 0.56025 0.26689 0.42441 0.0
C202 C 0.48049 0.31129 0.42898 0.0
C203 C 0.59895 0.34668 0.46703 0.0
C204 C 0.54695 0.24717 0.57025 0.0
C205 C 0.63324 0.28423 0.33492 0.0
C206 C 0.50884 0.24127 0.30652 0.0
C207 C 0.58768 0.18094 0.45715 0.0
O208 O 0.50862 0.3278 0.41065 0.0
O209 O 0.60509 0.31802 0.49711 0.0
O210 O 0.52047 0.24828 0.53422 0.0
O211 O 0.60095 0.2873 0.3155 0.0
O212 O 0.51194 0.21913 0.34988 0.0
O213 O 0.61109 0.2056 0.44618 0.0
O214 O 0.51992 0.274 0.30837 0.0
O215 O 0.64002 0.27812 0.3902 0.0
O216 O 0.55353 0.18712 0.45952 0.0
O217 O 0.58773 0.34481 0.41345 0.0
O218 O 0.47826 0.27682 0.43301 0.0
O219 O 0.57997 0.24678 0.55248 0.0
Sc220 Sc 0.2394 0.4709 0.55668 0.0
Sc221 Sc 0.27026 0.38222 0.52407 0.0
Sc222 Sc 0.32061 0.43859 0.61958 0.0
O223 O 0.27646 0.43037 0.56719 0.0
C224 C 0.3155 0.51462 0.55724 0.0
C225 C 0.25504 0.44163 0.42476 0.0
C226 C 0.35659 0.38662 0.52423 0.0
C227 C 0.1864 0.40461 0.53823 0.0
C228 C 0.25781 0.48062 0.69173 0.0
C229 C 0.29204 0.35872 0.65626 0.0
O230 O 0.28121 0.51227 0.55053 0.0
O231 O 0.26803 0.41067 0.43926 0.0
O232 O 0.35889 0.41238 0.56147 0.0
O233 O 0.19155 0.43681 0.55668 0.0
O234 O 0.28954 0.46785 0.68423 0.0
O235 O 0.27388 0.35238 0.60846 0.0
O236 O 0.23356 0.47984 0.65135 0.0
O237 O 0.2121 0.38286 0.52671 0.0
O238 O 0.30993 0.38798 0.66533 0.0
O239 O 0.24282 0.4646 0.46224 0.0
O240 O 0.33467 0.48902 0.57824 0.0
O241 O 0.32672 0.37257 0.50872 0.0
Sc242 Sc 0.47363 0.75459 0.43297 0.0
Sc243 Sc 0.38531 0.7322 0.47567 0.0
Sc244 Sc 0.43102 0.67998 0.3728 0.0
O245 O 0.42976 0.7227 0.42736 0.0
C246 C 0.47771 0.7379 0.30084 0.0
C247 C 0.40827 0.81169 0.4511 0.0
C248 C 0.35469 0.70866 0.34512 0.0
C249 C 0.45168 0.74792 0.56623 0.0
C250 C 0.50592 0.67412 0.42932 0.0
C251 C 0.38317 0.6485 0.47877 0.0
O252 O 0.47316 0.7637 0.33786 0.0
O253 O 0.38336 0.7878 0.44764 0.0
O254 O 0.38616 0.70215 0.32421 0.0
O255 O 0.47623 0.7457 0.52665 0.0
O256 O 0.47568 0.65818 0.42122 0.0
O257 O 0.38473 0.67742 0.50951 0.0
O258 O 0.51034 0.70839 0.42338 0.0
O259 O 0.41766 0.74785 0.55387 0.0
O260 O 0.39399 0.64728 0.42496 0.0
O261 O 0.44204 0.80394 0.44892 0.0
O262 O 0.46901 0.70534 0.31314 0.0
O263 O 0.34947 0.71625 0.40049 0.0
Sc264 Sc 0.23901 0.51353 0.05786 0.0
Sc265 Sc 0.26651 0.60327 0.02591 0.0
Sc266 Sc 0.31332 0.55171 0.12642 0.0
O267 O 0.27312 0.55561 0.06777 0.0
C268 C 0.2549 0.50214 0.19017 0.0
C269 C 0.18512 0.58143 0.04778 0.0
C270 C 0.28667 0.62549 0.16167 0.0
C271 C 0.24865 0.54224 0.9272 0.0
C272 C 0.32062 0.47924 0.06187 0.0
C273 C 0.34865 0.6056 0.02981 0.0
O274 O 0.2299 0.50746 0.1523 0.0
O275 O 0.21053 0.60492 0.04961 0.0
O276 O 0.28493 0.5923 0.17501 0.0
O277 O 0.24478 0.51672 0.9647 0.0
O278 O 0.33703 0.5083 0.07756 0.0
O279 O 0.32119 0.60462 -0.00387 0.0
O280 O 0.28581 0.47633 0.0596 0.0
O281 O 0.2538 0.5755 0.94182 0.0
O282 O 0.34847 0.59166 0.08189 0.0
O283 O 0.19061 0.54723 0.04998 0.0
O284 O 0.28743 0.51184 0.18126 0.0
O285 O 0.28251 0.63531 0.10704 0.0
Sc286 Sc 0.54485 0.67648 0.87932 0.0
Sc287 Sc 0.60291 0.72532 0.97007 0.0
Sc288 Sc 0.51712 0.75963 0.93653 0.0
O289 O 0.55541 0.72055 0.92826 0.0
C290 C 0.50963 0.74248 0.80429 0.0
C291 C 0.62498 0.69438 0.84075 0.0
C292 C 0.59044 0.80579 0.95516 0.0
C293 C 0.59107 0.64116 0.98481 0.0
C294 C 0.47065 0.68732 0.93931 0.0
C295 C 0.54099 0.74649 0.06691 0.0
O296 O 0.51445 0.70885 0.81583 0.0
O297 O 0.63349 0.70804 0.89141 0.0
O298 O 0.55589 0.80358 0.95686 0.0
O299 O 0.57347 0.63864 0.93619 0.0
O300 O 0.47212 0.72114 0.92712 0.0
O301 O 0.57421 0.74092 0.05269 0.0
O302 O 0.49761 0.66644 0.93175 0.0
O303 O 0.6017 0.67158 0.00452 0.0
O304 O 0.51566 0.75071 0.02922 0.0
O305 O 0.59286 0.68446 0.82715 0.0
O306 O 0.51671 0.76788 0.84144 0.0
O307 O 0.60941 0.77944 0.9375 0.0
Sc308 Sc 0.68277 0.44491 0.11748 0.0
Sc309 Sc 0.72705 0.39048 0.01602 0.0
Sc310 Sc 0.75702 0.48064 0.0422 0.0
O311 O 0.72267 0.43901 0.05784 0.0
C312 C 0.67757 0.51782 0.04715 0.0
C313 C 0.64326 0.39979 0.01548 0.0
C314 C 0.74576 0.44803 0.91285 0.0
C315 C 0.70381 0.36824 0.15077 0.0
C316 C 0.74351 0.49424 0.17794 0.0
C317 C 0.80954 0.41129 0.03501 0.0
O318 O 0.66138 0.49113 0.07187 0.0
O319 O 0.6722 0.39263 0.98759 0.0
O320 O 0.75134 0.47394 0.94898 0.0
O321 O 0.70669 0.40118 0.16549 0.0
O322 O 0.76639 0.49329 0.13546 0.0
O323 O 0.78429 0.38739 0.03675 0.0
O324 O 0.71244 0.47982 0.17448 0.0
O325 O 0.70934 0.35871 0.0964 0.0
O326 O 0.80404 0.44546 0.03863 0.0
O327 O 0.64424 0.41093 0.06921 0.0
O328 O 0.71181 0.51856 0.03775 0.0
O329 O 0.73938 0.41556 0.92987 0.0
Sc330 Sc 0.48015 0.24352 0.94269 0.0
Sc331 Sc 0.38945 0.2643 0.97422 0.0
Sc332 Sc 0.43983 0.31989 0.87854 0.0
O333 O 0.43623 0.27558 0.93071 0.0
C334 C 0.51696 0.32174 0.9382 0.0
C335 C 0.45139 0.24597 0.07204 0.0
C336 C 0.39508 0.34962 0.99099 0.0
C337 C 0.41349 0.18597 0.94982 0.0
C338 C 0.48553 0.25985 0.80584 0.0
C339 C 0.36074 0.29416 0.84689 0.0
O340 O 0.51897 0.28739 0.94171 0.0
O341 O 0.41827 0.24543 0.05463 0.0
O342 O 0.41012 0.35354 0.94021 0.0
O343 O 0.44727 0.19393 0.95239 0.0
O344 O 0.47011 0.2906 0.81193 0.0
O345 O 0.3549 0.28015 0.89828 0.0
O346 O 0.48761 0.23634 0.84771 0.0
O347 O 0.38906 0.20976 0.94167 0.0
O348 O 0.39149 0.30642 0.83121 0.0
O349 O 0.47735 0.25221 0.03644 0.0
O350 O 0.48859 0.33826 0.92121 0.0
O351 O 0.38685 0.31838 0.01127 0.0
C352 C 0.18175 0.19745 0.17942 0.0
C353 C 0.20271 0.16559 0.18759 0.0
C354 C 0.19138 0.16774 0.2955 0.0
C355 C 0.16456 0.19486 0.28568 0.0
N356 N 0.13792 0.23996 0.22165 0.0
N357 N 0.24052 0.13147 0.25354 0.0
C358 C 0.16153 0.21165 0.22871 0.0
C359 C 0.21193 0.15459 0.2461 0.0
N360 N 0.18172 0.21412 0.125 0.0
N361 N 0.19501 0.15241 0.35076 0.0
H362 H 0.25564 0.12212 0.21714 0.0
H363 H 0.25107 0.12419 0.29498 0.0
H364 H 0.18096 0.16174 0.38816 0.0
H365 H 0.21076 0.12951 0.35926 0.0
H366 H 0.16876 0.23862 0.11608 0.0
H367 H 0.19739 0.20469 0.08949 0.0
H368 H 0.13099 0.25121 0.18061 0.0
H369 H 0.12444 0.2518 0.25778 0.0
C370 C 0.17573 0.84504 0.80417 0.0
C371 C 0.17192 0.80707 0.80158 0.0
C372 C 0.20348 0.80835 0.70439 0.0
C373 C 0.1988 0.84687 0.70168 0.0
N374 N 0.16339 0.89686 0.74392 0.0
N375 N 0.1802 0.75172 0.7462 0.0
C376 C 0.18047 0.86412 0.7504 0.0
C377 C 0.18531 0.78832 0.75068 0.0
N378 N 0.17165 0.86325 0.85679 0.0
N379 N 0.22553 0.79095 0.66471 0.0
H380 H 0.16849 0.73663 0.78072 0.0
H381 H 0.18596 0.7371 0.70746 0.0
H382 H 0.24091 0.80465 0.63281 0.0
H383 H 0.23151 0.76333 0.6679 0.0
H384 H 0.17535 0.89132 0.86008 0.0
H385 H 0.16908 0.84969 0.89744 0.0
H386 H 0.1486 0.90889 0.77842 0.0
H387 H 0.15837 0.90858 0.70239 0.0
C388 C 0.81137 0.82347 0.30075 0.0
C389 C 0.84034 0.79841 0.29262 0.0
C390 C 0.8326 0.80167 0.18392 0.0
C391 C 0.80632 0.82938 0.19185 0.0
N392 N 0.76295 0.8591 0.25501 0.0
N393 N 0.86951 0.75446 0.22968 0.0
C394 C 0.79286 0.83737 0.24963 0.0
C395 C 0.84774 0.78431 0.23501 0.0
N396 N 0.80329 0.83579 0.35676 0.0
N397 N 0.84478 0.7938 0.12776 0.0
H398 H 0.88048 0.7414 0.26695 0.0
H399 H 0.87409 0.74097 0.18952 0.0
H400 H 0.83311 0.80515 0.0896 0.0
H401 H 0.86716 0.77732 0.11914 0.0
H402 H 0.78562 0.85721 0.36537 0.0
H403 H 0.81547 0.82541 0.39512 0.0
H404 H 0.74985 0.86438 0.29526 0.0
H405 H 0.74936 0.86938 0.21772 0.0
C406 C 0.81057 0.19775 0.68106 0.0
C407 C 0.7909 0.16537 0.69249 0.0
C408 C 0.80086 0.17265 0.79987 0.0
C409 C 0.82738 0.19984 0.78742 0.0
N410 N 0.85343 0.2428 0.71873 0.0
N411 N 0.75269 0.13372 0.76129 0.0
C412 C 0.83027 0.21438 0.72879 0.0
C413 C 0.78105 0.15697 0.75179 0.0
N414 N 0.80954 0.21287 0.62548 0.0
N415 N 0.79706 0.15937 0.85644 0.0
H416 H 0.73807 0.12254 0.72571 0.0
H417 H 0.7417 0.1283 0.8032 0.0
H418 H 0.8103 0.17066 0.89296 0.0
H419 H 0.78196 0.13628 0.86695 0.0
H420 H 0.82144 0.23769 0.61467 0.0
H421 H 0.79361 0.20218 0.59127 0.0
H422 H 0.86057 0.25215 0.67647 0.0
H423 H 0.8664 0.25649 0.75362 0.0
C424 C 0.64699 0.70341 0.73681 0.0
C425 C 0.65318 0.6887 0.79441 0.0
C426 C 0.70137 0.65067 0.75299 0.0
C427 C 0.68766 0.65724 0.69511 0.0
N428 N 0.6514 0.69488 0.6297 0.0
N429 N 0.68801 0.64894 0.85862 0.0
C430 C 0.66233 0.68586 0.68606 0.0
C431 C 0.68163 0.66326 0.80334 0.0
N432 N 0.62603 0.73385 0.73122 0.0
N433 N 0.73341 0.63251 0.75923 0.0
H434 H 0.67429 0.65732 0.89689 0.0
H435 H 0.70554 0.62716 0.86584 0.0
H436 H 0.7484 0.62408 0.72211 0.0
H437 H 0.74656 0.6293 0.8001 0.0
H438 H 0.6224 0.74784 0.69128 0.0
H439 H 0.61506 0.7471 0.76831 0.0
H440 H 0.62977 0.71225 0.62071 0.0
H441 H 0.66302 0.684 0.59133 0.0
C442 C 0.67538 0.28336 0.24431 0.0
C443 C 0.66165 0.30102 0.29605 0.0
C444 C 0.6697 0.35903 0.24729 0.0
C445 C 0.68887 0.34302 0.1984 0.0
N446 N 0.71627 0.28792 0.1593 0.0
N447 N 0.66135 0.35636 0.35351 0.0
C448 C 0.69375 0.30444 0.19928 0.0
C449 C 0.66493 0.33901 0.3001 0.0
N450 N 0.67066 0.24681 0.23795 0.0
N451 N 0.65236 0.39171 0.242 0.0
H452 H 0.65989 0.34211 0.39364 0.0
H453 H 0.6648 0.38442 0.35771 0.0
H454 H 0.64811 0.4044 0.20097 0.0
H455 H 0.63696 0.40279 0.27666 0.0
H456 H 0.67682 0.23297 0.19861 0.0
H457 H 0.65882 0.23098 0.27145 0.0
H458 H 0.72245 0.26031 0.16135 0.0
H459 H 0.73174 0.30226 0.12831 0.0
C460 C 0.33795 0.28417 0.74367 0.0
C461 C 0.33118 0.29795 0.80177 0.0
C462 C 0.28302 0.33653 0.76038 0.0
C463 C 0.29663 0.32992 0.70231 0.0
N464 N 0.33525 0.29518 0.63691 0.0
N465 N 0.29536 0.33609 0.86675 0.0
C466 C 0.32284 0.30223 0.69322 0.0
C467 C 0.30235 0.32301 0.81086 0.0
N468 N 0.35971 0.25438 0.73722 0.0
N469 N 0.25189 0.35623 0.76671 0.0
H470 H 0.30831 0.32631 0.90484 0.0
H471 H 0.27787 0.35775 0.87504 0.0
H472 H 0.23765 0.36605 0.72972 0.0
H473 H 0.2387 0.35992 0.80741 0.0
H474 H 0.36386 0.24115 0.69668 0.0
H475 H 0.37082 0.24093 0.77401 0.0
H476 H 0.35766 0.27881 0.62794 0.0
H477 H 0.32396 0.3071 0.59898 0.0
C478 C 0.31361 0.63541 0.26467 0.0
C479 C 0.29888 0.65088 0.21114 0.0
C480 C 0.31454 0.7109 0.25322 0.0
C481 C 0.32432 0.6943 0.30811 0.0
N482 N 0.31637 0.64202 0.37136 0.0
N483 N 0.27691 0.70638 0.16452 0.0
C484 C 0.31671 0.6572 0.3159 0.0
C485 C 0.29655 0.68967 0.2082 0.0
N486 N 0.3295 0.60184 0.26559 0.0
N487 N 0.3229 0.74654 0.24378 0.0
H488 H 0.26092 0.69223 0.13402 0.0
H489 H 0.27302 0.73444 0.16342 0.0
H490 H 0.33452 0.76264 0.27717 0.0
H491 H 0.31984 0.75914 0.20239 0.0
H492 H 0.34125 0.59109 0.30415 0.0
H493 H 0.33727 0.58806 0.227 0.0
H494 H 0.31026 0.6146 0.37818 0.0
H495 H 0.31777 0.65786 0.40986 0.0
C496 C 0.13199 0.95181 0.97526 0.0
C497 C 0.15695 0.95091 0.0236 0.0
C498 C 0.13487 0.89045 0.0517 0.0
C499 C 0.11497 0.88889 -0.00258 0.0
N500 N 0.07907 0.92444 0.92927 0.0
N501 N 0.18229 0.91987 0.10908 0.0
C502 C 0.10896 0.92148 0.96516 0.0
C503 C 0.15851 0.92033 0.06216 0.0
N504 N 0.1311 0.98114 0.93779 0.0
N505 N 0.12795 0.86591 0.09611 0.0
H506 H 0.19806 0.94221 0.12138 0.0
H507 H 0.18801 0.89655 0.1337 0.0
H508 H 0.10587 0.84814 0.09461 0.0
H509 H 0.13983 0.86707 0.13826 0.0
H510 H 0.11685 0.98139 0.89761 0.0
H511 H 0.14686 0.00437 0.94439 0.0
H512 H 0.07136 0.94843 0.90816 0.0
H513 H 0.05907 0.90433 0.9276 0.0
C514 C 0.92543 0.87347 0.01713 0.0
C515 C 0.89309 0.87391 0.98268 0.0
C516 C 0.92305 0.83705 0.90574 0.0
C517 C 0.95593 0.83891 0.93874 0.0
N518 N 0.99069 0.8707 0.01496 0.0
N519 N 0.86459 0.86496 0.88658 0.0
C520 C 0.958 0.86116 0.99056 0.0
C521 C 0.8928 0.85817 0.92467 0.0
N522 N 0.92487 0.88211 0.07656 0.0
N523 N 0.92086 0.81578 0.85581 0.0
H524 H 0.8431 0.88219 0.8975 0.0
H525 H 0.86447 0.85689 0.84198 0.0
H526 H 0.94321 0.80236 0.83756 0.0
H527 H 0.89642 0.81006 0.83424 0.0
H528 H 0.94754 0.87974 0.10414 0.0
H529 H 0.90111 0.88733 0.10033 0.0
H530 H 0.99299 0.89023 0.04853 0.0
H531 H 0.01569 0.86164 -0.00071 0.0
C532 C 0.83344 0.11565 0.0179 0.0
C533 C 0.86946 0.11512 -0.0056 0.0
C534 C 0.86999 0.04883 0.00176 0.0
C535 C 0.8357 0.04971 0.03077 0.0
N536 N 0.78996 0.08539 0.08158 0.0
N537 N 0.92561 0.08174 0.98301 0.0
C538 C 0.81896 0.08353 0.04351 0.0
C539 C 0.88889 0.08185 0.99218 0.0
N540 N 0.81203 0.14587 0.0134 0.0
N541 N 0.8839 0.01688 0.98065 0.0
H542 H 0.94094 0.10555 0.97986 0.0
H543 H 0.94128 0.05822 0.98599 0.0
H544 H 0.8701 0.99216 0.98336 0.0
H545 H 0.90727 0.01572 0.95439 0.0
H546 H 0.78439 0.14558 0.02362 0.0
H547 H 0.8203 0.17023 -0.00579 0.0
H548 H 0.77945 0.10995 0.09706 0.0
H549 H 0.77889 0.06276 0.10286 0.0
C550 C 0.05688 0.13294 0.91232 0.0
C551 C 0.04629 0.16607 0.94027 0.0
C552 C 0.09935 0.16279 0.00664 0.0
C553 C 0.1086 0.12897 0.98067 0.0
N554 N 0.09517 0.0792 0.91462 0.0
N555 N 0.06146 0.2162 0.00655 0.0
C556 C 0.08709 0.11328 0.9351 0.0
C557 C 0.06878 0.18218 0.98503 0.0
N558 N 0.03993 0.12189 0.86101 0.0
N559 N 0.1187 0.17525 0.05475 0.0
H560 H 0.03748 0.23015 -0.00125 0.0
H561 H 0.07986 0.23178 0.03086 0.0
H562 H 0.14087 0.16146 0.07262 0.0
H563 H 0.11175 0.19786 0.08006 0.0
H564 H 0.04851 0.09997 0.83525 0.0
H565 H 0.01955 0.13689 0.84015 0.0
H566 H 0.07817 0.06418 0.88678 0.0
H567 H 0.11792 0.06475 0.92894 0.0
C568 C 0.84888 0.94339 0.48253 0.0
C569 C 0.84503 0.94872 0.5448 0.0
C570 C 0.87971 0.89324 0.56441 0.0
C571 C 0.87981 0.8857 0.50221 0.0
N572 N 0.85801 0.90019 0.40289 0.0
N573 N 0.85297 0.92767 0.64582 0.0
C574 C 0.86282 0.90994 0.46134 0.0
C575 C 0.85937 0.92333 0.5861 0.0
N576 N 0.83952 0.97046 0.44358 0.0
N577 N 0.90013 0.8725 0.60233 0.0
H578 H 0.83905 0.95001 0.66319 0.0
H579 H 0.85922 0.90802 0.67764 0.0
H580 H 0.91601 0.85076 0.58775 0.0
H581 H 0.90397 0.87876 0.64724 0.0
H582 H 0.84538 0.96958 0.39808 0.0
H583 H 0.82887 0.99535 0.45738 0.0
H584 H 0.8421 0.915 0.37311 0.0
H585 H 0.86666 0.87549 0.3852 0.0
C586 C 0.90547 0.1108 0.44236 0.0
C587 C 0.88524 0.12563 0.49014 0.0
C588 C 0.92304 0.18073 0.4896 0.0
C589 C 0.94414 0.16534 0.44247 0.0
N590 N 0.94805 0.12182 0.36197 0.0
N591 N 0.8742 0.17316 0.56168 0.0
C592 C 0.93335 0.13197 0.41555 0.0
C593 C 0.8936 0.16041 0.51389 0.0
N594 N 0.89884 0.07593 0.42407 0.0
N595 N 0.93079 0.21474 0.51096 0.0
H596 H 0.87993 0.19688 0.58497 0.0
H597 H 0.85254 0.15904 0.58057 0.0
H598 H 0.95413 0.22926 0.50058 0.0
H599 H 0.91373 0.22974 0.53849 0.0
H600 H 0.91528 0.06197 0.39399 0.0
H601 H 0.87851 0.05973 0.44281 0.0
H602 H 0.93891 0.09969 0.33716 0.0
H603 H 0.96663 0.1379 0.33867 0.0
C604 C 0.13586 0.11071 0.5558 0.0
C605 C 0.11127 0.10916 0.50703 0.0
C606 C 0.12191 0.044 0.49658 0.0
C607 C 0.15156 0.04686 0.53706 0.0
N608 N 0.1842 0.08159 0.61155 0.0
N609 N 0.06565 0.0707 0.4626 0.0
C610 C 0.15773 0.07984 0.56878 0.0
C611 C 0.09956 0.07466 0.48663 0.0
N612 N 0.13519 0.13991 0.59356 0.0
N613 N 0.11597 0.01267 0.46532 0.0
H614 H 0.0467 0.09178 0.46273 0.0
H615 H 0.05444 0.04559 0.45134 0.0
H616 H 0.13138 0.98931 0.47118 0.0
H617 H 0.09764 0.01084 0.42996 0.0
H618 H 0.15077 0.14196 0.63218 0.0
H619 H 0.11496 0.15968 0.59136 0.0
H620 H 0.19366 0.10585 0.62983 0.0
H621 H 0.19764 0.05873 0.62779 0.0
C622 C 0.10824 0.83332 0.52952 0.0
C623 C 0.11648 0.86728 0.5023 0.0
C624 C 0.06881 0.85727 0.4277 0.0
C625 C 0.05775 0.82537 0.45857 0.0
N626 N 0.07185 0.7782 0.53023 0.0
N627 N 0.10366 0.91313 0.42851 0.0
C628 C 0.07897 0.81185 0.50691 0.0
C629 C 0.0966 0.87956 0.45204 0.0
N630 N 0.12793 0.82214 0.578 0.0
N631 N 0.05454 0.86472 0.3726 0.0
H632 H 0.12468 0.9297 0.44375 0.0
H633 H 0.08714 0.92577 0.39701 0.0
H634 H 0.03608 0.84755 0.35117 0.0
H635 H 0.06396 0.88543 0.34495 0.0
H636 H 0.12227 0.79923 0.60345 0.0
H637 H 0.14984 0.8367 0.59503 0.0
H638 H 0.08934 0.76423 0.55848 0.0
H639 H 0.04904 0.76281 0.51976 0.0
C640 C 0.63956 0.4415 0.468 0.0
C641 C 0.65587 0.44186 0.52527 0.0
C642 C 0.62395 0.38559 0.55125 0.0
C643 C 0.61133 0.38281 0.49145 0.0
N644 N 0.59006 0.41876 0.40805 0.0
N645 N 0.66577 0.41385 0.62112 0.0
C646 C 0.61421 0.41377 0.45366 0.0
C647 C 0.64866 0.41379 0.56693 0.0
N648 N 0.6489 0.4673 0.42675 0.0
N649 N 0.609 0.36392 0.59426 0.0
H650 H 0.68342 0.43454 0.63452 0.0
H651 H 0.66476 0.39207 0.65078 0.0
H652 H 0.58653 0.34743 0.58554 0.0
H653 H 0.61486 0.36626 0.63957 0.0
H654 H 0.64111 0.46589 0.38207 0.0
H655 H 0.66724 0.48827 0.4358 0.0
H656 H 0.58952 0.44199 0.38151 0.0
H657 H 0.56673 0.40292 0.4033 0.0
C658 C 0.39559 0.36965 0.43708 0.0
C659 C 0.39018 0.37053 0.49987 0.0
C660 C 0.4474 0.33814 0.51511 0.0
C661 C 0.45024 0.33311 0.45254 0.0
N662 N 0.4261 0.34089 0.35338 0.0
N663 N 0.40761 0.3503 0.59858 0.0
C664 C 0.42413 0.34808 0.4132 0.0
C665 C 0.41529 0.35356 0.53904 0.0
N666 N 0.3741 0.39026 0.40059 0.0
N667 N 0.47571 0.32884 0.55158 0.0
H668 H 0.38407 0.3606 0.61817 0.0
H669 H 0.42294 0.33444 0.62769 0.0
H670 H 0.49996 0.31794 0.53547 0.0
H671 H 0.47659 0.3352 0.5969 0.0
H672 H 0.37881 0.39343 0.35504 0.0
H673 H 0.3534 0.40693 0.4168 0.0
H674 H 0.40561 0.34753 0.32324 0.0
H675 H 0.44723 0.32595 0.33437 0.0
C676 C 0.31989 0.58278 0.56062 0.0
C677 C 0.33388 0.54902 0.54035 0.0
C678 C 0.3849 0.58112 0.49429 0.0
C679 C 0.36738 0.61487 0.5049 0.0
N680 N 0.31348 0.64667 0.53903 0.0
N681 N 0.37641 0.51694 0.47689 0.0
C682 C 0.33361 0.61554 0.53582 0.0
C683 C 0.36555 0.54834 0.50418 0.0
N684 N 0.29447 0.58378 0.60509 0.0
N685 N 0.42045 0.58023 0.47668 0.0
H686 H 0.3622 0.49249 0.48038 0.0
H687 H 0.39733 0.5162 0.44551 0.0
H688 H 0.43629 0.60363 0.47259 0.0
H689 H 0.43524 0.55617 0.47332 0.0
H690 H 0.28592 0.60792 0.62502 0.0
H691 H 0.28517 0.56049 0.62681 0.0
H692 H 0.28709 0.64715 0.55593 0.0
H693 H 0.32122 0.67112 0.51933 0.0
C694 C 0.55899 0.63338 0.40992 0.0
C695 C 0.53673 0.65247 0.45083 0.0
C696 C 0.57706 0.6364 0.53314 0.0
C697 C 0.59874 0.61592 0.49268 0.0
N698 N 0.60449 0.58648 0.39709 0.0
N699 N 0.51873 0.66443 0.55247 0.0
C700 C 0.58806 0.61198 0.43219 0.0
C701 C 0.54392 0.65151 0.51286 0.0
N702 N 0.55274 0.63617 0.34995 0.0
N703 N 0.58877 0.64298 0.5901 0.0
H704 H 0.49389 0.67536 0.53912 0.0
H705 H 0.52079 0.66104 0.59853 0.0
H706 H 0.61298 0.63291 0.6074 0.0
H707 H 0.57603 0.66121 0.61887 0.0
H708 H 0.57047 0.62601 0.31776 0.0
H709 H 0.53104 0.65091 0.33228 0.0
H710 H 0.59589 0.58019 0.35399 0.0
H711 H 0.62411 0.56872 0.4137 0.0
C712 C 0.39528 0.41769 0.00223 0.0
C713 C 0.38347 0.38343 0.02364 0.0
C714 C 0.33658 0.41399 0.08335 0.0
C715 C 0.34317 0.44653 0.05056 0.0
N716 N 0.37834 0.47878 0.97596 0.0
N717 N 0.35729 0.35345 0.10908 0.0
C718 C 0.37273 0.44842 0.00986 0.0
C719 C 0.35793 0.38253 0.07124 0.0
N720 N 0.42936 0.42132 0.97872 0.0
N721 N 0.31046 0.4134 0.1268 0.0
H722 H 0.37776 0.33404 0.10893 0.0
H723 H 0.34048 0.35117 0.14622 0.0
H724 H 0.29817 0.43683 0.14326 0.0
H725 H 0.30033 0.38971 0.14602 0.0
H726 H 0.44064 0.44633 0.96699 0.0
H727 H 0.44814 0.40009 0.97939 0.0
H728 H 0.39696 0.47971 0.9409 0.0
H729 H 0.36221 0.5019 0.9789 0.0
C730 C 0.39902 0.61476 0.95678 0.0
C731 C 0.38041 0.62674 0.00854 0.0
C732 C 0.41738 0.68258 0.01045 0.0
C733 C 0.43599 0.67022 0.95859 0.0
N734 N 0.43662 0.63115 0.87224 0.0
N735 N 0.3673 0.67417 0.07984 0.0
C736 C 0.42445 0.63819 0.9288 0.0
C737 C 0.38824 0.66135 0.03398 0.0
N738 N 0.39307 0.58048 0.93525 0.0
N739 N 0.42804 0.71402 0.03804 0.0
H740 H 0.34722 0.65872 0.10036 0.0
H741 H 0.36823 0.70062 0.09613 0.0
H742 H 0.44885 0.73058 0.02249 0.0
H743 H 0.41724 0.72379 0.07774 0.0
H744 H 0.40875 0.56863 0.90179 0.0
H745 H 0.37439 0.56262 0.9544 0.0
H746 H 0.42658 0.61015 0.84574 0.0
H747 H 0.45383 0.64884 0.84918 0.0
C748 C 0.59659 0.57261 0.99176 0.0
C749 C 0.60595 0.60757 0.01342 0.0
C750 C 0.6627 0.58447 0.05396 0.0
C751 C 0.65493 0.54951 0.03002 0.0
N752 N 0.61613 0.51102 0.96985 0.0
N753 N 0.63518 0.63787 0.09603 0.0
C754 C 0.622 0.5436 -0.00225 0.0
C755 C 0.63514 0.61095 0.05401 0.0
N756 N 0.56233 0.56667 0.97033 0.0
N757 N 0.69641 0.59347 0.07486 0.0
H758 H 0.61264 0.6545 0.10317 0.0
H759 H 0.65481 0.63962 0.12952 0.0
H760 H 0.71872 0.57623 0.07386 0.0
H761 H 0.70315 0.61993 0.08753 0.0
H762 H 0.5524 0.54131 0.95773 0.0
H763 H 0.54217 0.58655 0.97259 0.0
H764 H 0.59461 0.50607 0.94082 0.0
H765 H 0.63462 0.4896 0.97132 0.0
C766 C 0.58098 0.34278 0.92228 0.0
C767 C 0.54861 0.34382 0.95653 0.0
C768 C 0.57452 0.39246 0.01863 0.0
C769 C 0.60794 0.38837 0.98779 0.0
N770 N 0.63241 0.3779 0.88922 0.0
N771 N 0.51501 0.3673 0.04079 0.0
C772 C 0.6082 0.36899 0.93312 0.0
C773 C 0.54524 0.36845 0.00524 0.0
N774 N 0.5866 0.31617 0.88077 0.0
N775 N 0.56979 0.4213 0.05629 0.0
H776 H 0.49342 0.34945 0.03335 0.0
H777 H 0.5126 0.38167 0.08064 0.0
H778 H 0.58899 0.44207 0.06 0.0
H779 H 0.54523 0.42754 0.0769 0.0
H780 H 0.61137 0.31279 0.85883 0.0
H781 H 0.56828 0.29513 0.87296 0.0
H782 H 0.63179 0.36626 0.84677 0.0
H783 H 0.64897 0.40091 0.89196 0.0
C784 C 0.24792 0.9859 0.78067 0.0
C785 C 0.25555 0.00876 0.73183 0.0
C786 C 0.26249 0.06015 0.80053 0.0
C787 C 0.24769 0.03837 0.84725 0.0
N788 N 0.21725 0.98222 0.87489 0.0
N789 N 0.26771 0.06869 0.69331 0.0
C790 C 0.23795 0.00162 0.83547 0.0
C791 C 0.26244 0.04625 0.74107 0.0
N792 N 0.24967 0.94904 0.77419 0.0
N793 N 0.27775 0.0932 0.81277 0.0
H794 H 0.2691 0.059 0.64957 0.0
H795 H 0.26859 0.09692 0.697 0.0
H796 H 0.27946 0.10393 0.85572 0.0
H797 H 0.29188 0.10834 0.78101 0.0
H798 H 0.24647 0.93104 0.80978 0.0
H799 H 0.25877 0.93708 0.73466 0.0
H800 H 0.20704 0.9564 0.86533 0.0
H801 H 0.20647 0.99353 0.91361 0.0
C802 C 0.03069 0.72757 0.22675 0.0
C803 C 0.00073 0.75096 0.23867 0.0
C804 C 0.00755 0.77776 0.13982 0.0
C805 C 0.03399 0.75151 0.1249 0.0
N806 N 0.06316 0.69487 0.14962 0.0
N807 N 0.95378 0.78963 0.19747 0.0
C808 C 0.04353 0.72441 0.16703 0.0
C809 C 0.987 0.77337 0.19235 0.0
N810 N 0.04806 0.70973 0.2719 0.0
N811 N 0.00266 0.80756 0.10463 0.0
H812 H 0.93664 0.78513 0.23376 0.0
H813 H 0.94161 0.80383 0.1625 0.0
H814 H 0.01863 0.8125 0.06704 0.0
H815 H 0.986 0.82909 0.11724 0.0
H816 H 0.07196 0.6951 0.26518 0.0
H817 H 0.04097 0.71243 0.31669 0.0
H818 H 0.06829 0.67286 0.17768 0.0
H819 H 0.07039 0.69068 0.10522 0.0
C820 C 0.77554 0.98961 0.85349 0.0
C821 C 0.75696 0.95614 0.86014 0.0
C822 C 0.7398 0.95814 0.75457 0.0
C823 C 0.75439 0.99402 0.75062 0.0
N824 N 0.77765 0.04698 0.8018 0.0
N825 N 0.71659 0.91073 0.8199 0.0
C826 C 0.76952 0.01072 0.80196 0.0
C827 C 0.73756 0.94097 0.81154 0.0
N828 N 0.80007 0.00061 0.89561 0.0
N829 N 0.73012 0.93957 0.70417 0.0
H830 H 0.71512 0.89719 0.86079 0.0
H831 H 0.69879 0.90079 0.78758 0.0
H832 H 0.73218 0.95044 0.66137 0.0
H833 H 0.72303 0.91214 0.70446 0.0
H834 H 0.81655 0.02349 0.89052 0.0
H835 H 0.80701 0.98436 0.93201 0.0
H836 H 0.78582 0.06105 0.83995 0.0
H837 H 0.77234 0.06364 0.7652 0.0
C838 C 0.94878 0.26533 0.16419 0.0
C839 C 0.96302 0.24485 0.11573 0.0
C840 C 0.01392 0.22532 0.17753 0.0
C841 C -0.00095 0.24379 0.22738 0.0
N842 N 0.94674 0.27331 0.27156 0.0
N843 N -0.00039 0.19353 0.08649 0.0
C844 C 0.96495 0.2618 0.22182 0.0
C845 C 0.99279 0.22129 0.12542 0.0
N846 N 0.92 0.28809 0.15567 0.0
N847 N 0.04853 0.21203 0.17939 0.0
H848 H 0.98318 0.18831 0.04945 0.0
H849 H 0.01886 0.1734 0.09491 0.0
H850 H 0.06583 0.21614 0.21565 0.0
H851 H 0.06111 0.20032 0.14245 0.0
H852 H 0.91166 0.30707 0.18735 0.0
H853 H 0.90554 0.28942 0.11583 0.0
H854 H 0.92011 0.28285 0.27052 0.0
H855 H 0.95661 0.27011 0.3148 0.0
C856 C 0.73518 0.98194 0.28711 0.0
C857 C 0.7624 0.99476 0.24791 0.0
C858 C 0.78624 0.03527 0.32522 0.0
C859 C 0.7573 0.02468 0.36333 0.0
N860 N 0.70078 0.99171 0.37756 0.0
N861 N 0.80915 0.03863 0.22428 0.0
C862 C 0.73068 -0.00084 0.34336 0.0
C863 C 0.78637 0.0231 0.26528 0.0
N864 N 0.71482 0.95221 0.27178 0.0
N865 N 0.81508 0.05464 0.34716 0.0
H866 H 0.81067 0.03 0.18003 0.0
H867 H 0.82413 0.06214 0.23278 0.0
H868 H 0.81719 0.06281 0.39153 0.0
H869 H 0.83878 0.05938 0.32291 0.0
H870 H 0.69773 0.93867 0.30147 0.0
H871 H 0.71706 0.93924 0.2305 0.0
H872 H 0.67854 0.97693 0.36204 0.0
H873 H 0.69662 0.00246 0.42 0.0
C874 C 0.00107 0.22072 0.62689 0.0
C875 C 0.03178 0.24292 0.61624 0.0
C876 C 0.02987 0.26266 0.7211 0.0
C877 C 0.99526 0.24568 0.72738 0.0
N878 N 0.94482 0.21457 0.6808 0.0
N879 N 0.07604 0.28583 0.6537 0.0
C880 C 0.97993 0.22663 0.67847 0.0
C881 C 0.04649 0.26417 0.66349 0.0
N882 N 0.99318 0.19257 0.58921 0.0
N883 N 0.04793 0.2753 0.77026 0.0
H884 H 0.09037 0.28602 0.61363 0.0
H885 H 0.08513 0.30511 0.68435 0.0
H886 H 0.03733 0.27407 0.81333 0.0
H887 H 0.07485 0.28409 0.76919 0.0
H888 H 0.97318 0.17327 0.59856 0.0
H889 H 0.00933 0.1862 0.55234 0.0
H890 H 0.93192 0.20242 0.64454 0.0
H891 H 0.92759 0.2202 0.7166 0.0
C892 C 0.26013 0.94598 0.30009 0.0
C893 C 0.23877 0.96003 0.34749 0.0
C894 C 0.22094 0.01138 0.28583 0.0
C895 C 0.239 0.99603 0.23596 0.0
N896 N 0.26823 0.94298 0.19292 0.0
N897 N 0.18816 -0.00212 0.37592 0.0
C898 C 0.25664 0.96167 0.24206 0.0
C899 C 0.2156 0.99 0.33699 0.0
N900 N 0.28418 0.91847 0.31022 0.0
N901 N 0.20993 0.04683 0.28549 0.0
H902 H 0.18233 0.98128 0.41245 0.0
H903 H 0.16891 0.01806 0.36769 0.0
H904 H 0.21558 0.06445 0.25028 0.0
H905 H 0.19916 0.05966 0.32307 0.0
H906 H 0.3034 0.91029 0.27878 0.0
H907 H 0.28647 0.90537 0.35125 0.0
H908 H 0.27785 0.91638 0.19505 0.0
H909 H 0.26491 0.95232 0.1494 0.0
C910 C 0.97113 0.72382 0.72964 0.0
C911 C 0.00469 0.74286 0.73636 0.0
C912 C 0.99714 0.76915 0.63739 0.0
C913 C 0.96687 0.74645 0.62693 0.0
N914 N 0.92732 0.6982 0.66007 0.0
N915 N 0.05439 0.7744 0.6885 0.0
C916 C 0.95448 0.72244 0.67211 0.0
C917 C 0.01925 0.76239 0.68733 0.0
N918 N 0.95403 0.70901 0.77799 0.0
N919 N 0.00409 0.79798 0.60066 0.0
H920 H 0.07241 0.76726 0.72252 0.0
H921 H 0.06641 0.78807 0.65294 0.0
H922 H 0.98748 0.8045 0.56443 0.0
H923 H 0.0239 0.81745 0.61021 0.0
H924 H 0.92777 0.69841 0.77603 0.0
H925 H 0.96465 0.70978 0.82102 0.0
H926 H 0.91994 0.67744 0.68933 0.0
H927 H 0.91389 0.69744 0.61906 0.0
C928 C 0.77681 0.52503 0.33003 0.0
C929 C 0.74465 0.543 0.34911 0.0
C930 C 0.72191 0.54192 0.24713 0.0
C931 C 0.74965 0.51678 0.2316 0.0
N932 N 0.8038 0.48374 0.25837 0.0
N933 N 0.68566 0.5681 0.32578 0.0
C934 C 0.77773 0.50866 0.2726 0.0
C935 C 0.71729 0.55216 0.30743 0.0
N936 N 0.80651 0.52412 0.36661 0.0
N937 N 0.6994 0.5553 0.204 0.0
H938 H 0.68089 0.57626 0.36952 0.0
H939 H 0.66292 0.5709 0.29848 0.0
H940 H 0.70122 0.54696 0.15978 0.0
H941 H 0.68135 0.57668 0.21098 0.0
H942 H 0.8317 0.51414 0.3532 0.0
H943 H 0.80694 0.53695 0.40816 0.0
H944 H 0.8223 0.47353 0.2893 0.0
H945 H 0.8056 0.47158 0.21643 0.0
C946 C 0.50966 0.22003 0.65364 0.0
C947 C 0.5377 0.24449 0.63498 0.0
C948 C 0.53243 0.27744 0.72944 0.0
C949 C 0.5046 0.25304 0.74846 0.0
N950 N 0.47039 0.19784 0.7329 0.0
N951 N 0.58354 0.28832 0.66447 0.0
C952 C 0.4947 0.22304 0.71215 0.0
C953 C 0.55169 0.27041 0.67584 0.0
N954 N 0.49644 0.19455 0.61472 0.0
N955 N 0.53987 0.30836 0.76119 0.0
H956 H 0.59898 0.28483 0.62611 0.0
H957 H 0.59697 0.30397 0.6964 0.0
H958 H 0.52832 0.31453 0.8023 0.0
H959 H 0.55578 0.32952 0.74456 0.0
H960 H 0.47268 0.17979 0.62182 0.0
H961 H 0.50838 0.18888 0.57361 0.0
H962 H 0.46568 0.1729 0.71234 0.0
H963 H 0.45604 0.20081 0.77272 0.0
C964 C 0.25811 0.50788 0.29884 0.0
C965 C 0.24719 0.48675 0.24942 0.0
C966 C 0.24021 0.43375 0.31479 0.0
C967 C 0.25606 0.45417 0.36212 0.0
N968 N 0.29036 0.50727 0.39215 0.0
N969 N 0.23125 0.42843 0.20767 0.0
C970 C 0.26809 0.49027 0.35199 0.0
C971 C 0.23898 0.44929 0.25651 0.0
N972 N 0.25883 0.54491 0.29482 0.0
N973 N 0.22541 0.40029 0.32546 0.0
H974 H 0.22877 0.43929 0.16485 0.0
H975 H 0.22945 0.40018 0.20909 0.0
H976 H 0.22572 0.38787 0.36723 0.0
H977 H 0.21028 0.38602 0.29387 0.0
H978 H 0.26423 0.56176 0.33122 0.0
H979 H 0.24969 0.55854 0.25685 0.0
H980 H 0.30213 0.53263 0.38424 0.0
H981 H 0.30055 0.4941 0.42983 0.0
C982 C 0.49346 0.77414 0.64482 0.0
C983 C 0.46379 0.75083 0.62936 0.0
C984 C 0.45825 0.73318 0.73406 0.0
C985 C 0.49158 0.75088 0.74698 0.0
N986 N 0.54332 0.78544 0.71306 0.0
N987 N 0.42351 0.70181 0.65892 0.0
C988 C 0.50973 0.77097 0.70214 0.0
C989 C 0.44735 0.72886 0.67394 0.0
N990 N 0.5058 0.79979 0.60553 0.0
N991 N 0.43695 0.72043 0.77941 0.0
H992 H 0.41681 0.69528 0.61505 0.0
H993 H 0.41375 0.6829 0.68969 0.0
H994 H 0.44367 0.72423 0.82416 0.0
H995 H 0.4109 0.71003 0.77265 0.0
H996 H 0.52455 0.81981 0.61728 0.0
H997 H 0.49504 0.80352 0.56301 0.0
H998 H 0.55984 0.79622 0.67965 0.0
H999 H 0.55589 0.78426 0.75473 0.0
C1000 C 0.27261 0.49881 0.85323 0.0
C1001 C 0.25161 0.53032 0.86438 0.0
C1002 C 0.2333 0.53086 0.75926 0.0
C1003 C 0.25008 0.49621 0.75146 0.0
N1004 N 0.27487 0.44264 0.79885 0.0
N1005 N 0.20611 0.57272 0.83005 0.0
C1006 C 0.26617 0.4787 0.80108 0.0
C1007 C 0.23016 0.54545 0.81804 0.0
N1008 N 0.29946 0.4885 0.8918 0.0
N1009 N 0.22206 0.55076 0.71125 0.0
H1010 H 0.20296 0.58396 0.87246 0.0
H1011 H 0.1872 0.58194 0.7989 0.0
H1012 H 0.22438 0.54196 0.66728 0.0
H1013 H 0.21331 0.57761 0.71496 0.0
H1014 H 0.31715 0.46704 0.88285 0.0
H1015 H 0.30668 0.50409 0.92884 0.0
H1016 H 0.2843 0.42831 0.83591 0.0
H1017 H 0.26853 0.42638 0.76217 0.0
C1018 C 0.53988 0.76894 0.17339 0.0
C1019 C 0.52927 0.74331 0.12947 0.0
C1020 C 0.4803 0.72225 0.19333 0.0
C1021 C 0.49369 0.74403 0.2409 0.0
N1022 N 0.54264 0.78189 0.27906 0.0
N1023 N 0.49677 0.68818 0.10543 0.0
C1024 C 0.52529 0.76583 0.232 0.0
C1025 C 0.50194 0.71743 0.14217 0.0
N1026 N 0.56281 0.79677 0.15896 0.0
N1027 N 0.4464 0.70707 0.19619 0.0
H1028 H 0.513 0.68334 0.06801 0.0
H1029 H 0.47901 0.66697 0.11571 0.0
H1030 H 0.42789 0.71363 0.22975 0.0
H1031 H 0.43524 0.6914 0.16206 0.0
H1032 H 0.56858 0.81817 0.18802 0.0
H1033 H 0.57341 0.80004 0.11617 0.0
H1034 H 0.5676 0.79507 0.27467 0.0
H1035 H 0.53436 0.77897 0.32323 0.0
C1036 C 0.72351 0.49192 0.83804 0.0
C1037 C 0.74205 0.45887 0.84917 0.0
C1038 C 0.75833 0.45606 0.74271 0.0
C1039 C 0.74485 0.492 0.73531 0.0
N1040 N 0.72301 0.54714 0.78088 0.0
N1041 N 0.77927 0.40972 0.81176 0.0
C1042 C 0.73039 0.51088 0.78484 0.0
C1043 C 0.76012 0.44081 0.80142 0.0
N1044 N 0.69797 0.50445 0.8773 0.0
N1045 N 0.76769 0.43591 0.69385 0.0
H1046 H 0.78016 0.39697 0.85322 0.0
H1047 H 0.79611 0.39779 0.77995 0.0
H1048 H 0.76702 0.44621 0.65051 0.0
H1049 H 0.77362 0.40826 0.6959 0.0
H1050 H 0.6817 0.52703 0.86863 0.0
H1051 H 0.68996 0.48964 0.91478 0.0
H1052 H 0.71493 0.56271 0.81747 0.0
H1053 H 0.72887 0.56208 0.74254 0.0
C1054 C 0.50964 0.21618 0.20349 0.0
C1055 C 0.48967 0.23037 0.25176 0.0
C1056 C 0.44135 0.2504 0.18459 0.0
C1057 C 0.46145 0.23668 0.13499 0.0
N1058 N 0.50937 0.19575 0.10132 0.0
N1059 N 0.43252 0.24982 0.29204 0.0
C1060 C 0.49382 0.21601 0.14572 0.0
C1061 C 0.45396 0.24335 0.24338 0.0
N1062 N 0.54449 0.20452 0.21235 0.0
N1063 N 0.41217 0.27274 0.17633 0.0
H1064 H 0.44151 0.24494 0.33552 0.0
H1065 H 0.40502 0.25626 0.28906 0.0
H1066 H 0.40224 0.2801 0.13476 0.0
H1067 H 0.39963 0.28687 0.21098 0.0
H1068 H 0.56241 0.19874 0.17761 0.0
H1069 H 0.55609 0.20256 0.25477 0.0
H1070 H 0.53039 0.17739 0.10897 0.0
H1071 H 0.4994 0.19419 0.05795 0.0
C1072 C 0.39737 0.14312 0.03222 0.0
C1073 C 0.4004 0.14965 0.96976 0.0
C1074 C 0.35686 0.10063 0.95176 0.0
C1075 C 0.34729 0.10137 0.01316 0.0
N1076 N 0.35949 0.12089 0.11332 0.0
N1077 N 0.38556 0.13261 0.86923 0.0
C1078 C 0.36841 0.12132 0.05412 0.0
C1079 C 0.38141 0.12718 0.92915 0.0
N1080 N 0.42193 0.15816 0.07036 0.0
N1081 N 0.34187 0.0749 0.91538 0.0
H1082 H 0.40472 0.15083 0.85214 0.0
H1083 H 0.36936 0.12017 0.83699 0.0
H1084 H 0.32443 0.05488 0.93181 0.0
H1085 H 0.34935 0.07123 0.87094 0.0
H1086 H 0.42281 0.15277 0.11598 0.0
H1087 H 0.444 0.17272 0.05452 0.0
H1088 H 0.37089 0.13834 0.14481 0.0
H1089 H 0.33931 0.10378 0.13032 0.0
C1090 C 0.13211 0.59203 0.97921 0.0
C1091 C 0.1484 0.5964 0.0364 0.0
C1092 C 0.12819 0.6587 0.04099 0.0
C1093 C 0.11173 0.65551 0.98342 0.0
N1094 N 0.09081 0.61626 0.90418 0.0
N1095 N 0.14675 0.62685 0.13048 0.0
C1096 C 0.11074 0.62097 0.95503 0.0
C1097 C 0.13984 0.62704 0.07065 0.0
N1098 N 0.13915 0.56155 0.94648 0.0
N1099 N 0.136 0.69174 0.06566 0.0
H1100 H 0.15676 0.60365 0.15176 0.0
H1101 H 0.13908 0.64807 0.1587 0.0
H1102 H 0.13175 0.71624 0.04412 0.0
H1103 H 0.15073 0.69461 0.10516 0.0
H1104 H 0.13227 0.55881 0.90159 0.0
H1105 H 0.15283 0.53924 0.96414 0.0
H1106 H 0.08659 0.59097 0.8844 0.0
H1107 H 0.0764 0.63738 0.88413 0.0
C1108 C 0.6336 0.89851 0.9862 0.0
C1109 C 0.6536 0.89041 0.03866 0.0
C1110 C 0.63018 0.82902 0.0392 0.0
C1111 C 0.60968 0.83618 0.98613 0.0
N1112 N 0.58579 0.88056 0.91715 0.0
N1113 N 0.6589 0.85469 0.12708 0.0
C1114 C 0.60885 0.87212 0.96283 0.0
C1115 C 0.64674 0.85819 0.06981 0.0
N1116 N 0.64032 0.93027 0.95666 0.0
N1117 N 0.63692 0.79441 0.05811 0.0
H1118 H 0.6722 0.87604 0.14888 0.0
H1119 H 0.65235 0.83253 0.15406 0.0
H1120 H 0.62927 0.77142 0.03471 0.0
H1121 H 0.65427 0.78843 0.09354 0.0
H1122 H 0.63026 0.93605 0.91425 0.0
H1123 H 0.65731 0.95032 0.97433 0.0
H1124 H 0.58187 0.90699 0.90182 0.0
H1125 H 0.56872 0.8614 0.89724 0.0
C1126 C 0.85111 0.4 0.94935 0.0
C1127 C 0.84515 0.39891 0.01203 0.0
C1128 C 0.89708 0.35842 0.02154 0.0
C1129 C 0.89456 0.35065 0.95965 0.0
N1130 N 0.87218 0.36662 0.86253 0.0
N1131 N 0.86505 0.3801 0.10934 0.0
C1132 C 0.87291 0.37271 0.92262 0.0
C1133 C 0.86937 0.3795 0.04885 0.0
N1134 N 0.83626 0.42707 0.91578 0.0
N1135 N 0.92583 0.34584 0.05375 0.0
H1136 H 0.8457 0.39657 0.13007 0.0
H1137 H 0.87963 0.36332 0.13814 0.0
H1138 H 0.94658 0.33055 0.03446 0.0
H1139 H 0.93087 0.35393 0.09758 0.0
H1140 H 0.84258 0.43093 0.87087 0.0
H1141 H 0.82127 0.44815 0.93456 0.0
H1142 H 0.85388 0.37931 0.83386 0.0
H1143 H 0.88926 0.34768 0.84208 0.0
C1144 C 0.64663 0.09817 0.4532 0.0
C1145 C 0.65219 0.0926 0.51543 0.0
C1146 C 0.60468 0.13662 0.53825 0.0
C1147 C 0.60191 0.14499 0.47623 0.0
N1148 N 0.61091 0.12667 0.37465 0.0
N1149 N 0.6298 0.09721 0.61534 0.0
C1150 C 0.61963 0.12306 0.43365 0.0
C1151 C 0.62852 0.10851 0.55729 0.0
N1152 N 0.669 0.08156 0.41314 0.0
N1153 N 0.58653 0.15723 0.57907 0.0
H1154 H 0.64745 0.07667 0.62923 0.0
H1155 H 0.61154 0.10555 0.64806 0.0
H1156 H 0.56798 0.17692 0.5664 0.0
H1157 H 0.59066 0.15582 0.62498 0.0
H1158 H 0.66982 0.08759 0.36776 0.0
H1159 H 0.68785 0.06228 0.42649 0.0
H1160 H 0.6207 0.10968 0.34116 0.0
H1161 H 0.59109 0.14492 0.36005 0.0
C1162 C 0.09717 0.35516 0.52132 0.0
C1163 C 0.10106 0.34664 0.45976 0.0
C1164 C 0.14623 0.39468 0.45117 0.0
C1165 C 0.15043 0.39424 0.51409 0.0
N1166 N 0.12743 0.37761 0.61053 0.0
N1167 N 0.1263 0.36115 0.36378 0.0
C1168 C 0.1246 0.37618 0.54985 0.0
C1169 C 0.12426 0.36779 0.42363 0.0
N1170 N 0.06758 0.34307 0.55215 0.0
N1171 N 0.16321 0.42086 0.41837 0.0
H1172 H 0.10916 0.34248 0.34264 0.0
H1173 H 0.14564 0.37313 0.33606 0.0
H1174 H 0.17796 0.44165 0.43876 0.0
H1175 H 0.15892 0.42436 0.37275 0.0
H1176 H 0.06171 0.35145 0.59553 0.0
H1177 H 0.04707 0.32777 0.53212 0.0
H1178 H 0.1116 0.36182 0.63909 0.0
H1179 H 0.14678 0.39388 0.63182 0.0
C1180 C 0.38025 0.87234 0.42936 0.0
C1181 C 0.39671 0.84843 0.47058 0.0
C1182 C 0.36804 0.88055 0.55412 0.0
C1183 C 0.34866 0.90183 0.51258 0.0
N1184 N 0.34621 0.92801 0.41401 0.0
N1185 N 0.41662 0.83755 0.57144 0.0
C1186 C 0.35841 0.90132 0.45123 0.0
C1187 C 0.3943 0.85546 0.53288 0.0
N1188 N 0.38394 0.86606 0.36956 0.0
N1189 N 0.35979 0.88316 0.61345 0.0
H1190 H 0.43632 0.81967 0.55629 0.0
H1191 H 0.41814 0.84299 0.61699 0.0
H1192 H 0.34196 0.90286 0.6298 0.0
H1193 H 0.3695 0.86537 0.64586 0.0
H1194 H 0.36907 0.87971 0.33699 0.0
H1195 H 0.40113 0.84591 0.35288 0.0
H1196 H 0.35482 0.93079 0.36995 0.0
H1197 H 0.33017 0.9495 0.42889 0.0
C1198 C 0.86293 0.63855 0.41725 0.0
C1199 C 0.89281 0.64625 0.45375 0.0
C1200 C 0.86757 0.60583 0.53088 0.0
C1201 C 0.83362 0.60674 0.50074 0.0
N1202 N 0.79847 0.63072 0.41743 0.0
N1203 N 0.92655 0.63491 0.54372 0.0
C1204 C 0.83122 0.62424 0.44382 0.0
C1205 C 0.89652 0.62835 0.50959 0.0
N1206 N 0.86404 0.64807 0.35839 0.0
N1207 N 0.87165 0.58476 0.58059 0.0
H1208 H 0.94846 0.65019 0.52796 0.0
H1209 H 0.92921 0.62634 0.5878 0.0
H1210 H 0.85046 0.5693 0.59837 0.0
H1211 H 0.89656 0.58066 0.60161 0.0
H1212 H 0.84385 0.64079 0.32796 0.0
H1213 H 0.88724 0.65983 0.33954 0.0
H1214 H 0.79556 0.64538 0.37792 0.0
H1215 H 0.77404 0.62686 0.43921 0.0
loop_
_geom_bond_atom_site_label_1
_geom_bond_atom_site_label_2
_geom_bond_distance
_geom_bond_site_symmetry_2
_ccdc_geom_bond_type
Sc0 O3 2.025 . S
Sc0 O10 2.105 . S
Sc0 O13 2.105 . S
Sc0 O16 2.105 1_545 S
Sc0 O19 2.105 . S
Sc1 O3 2.025 . S
Sc1 O11 2.105 . S
Sc1 O15 2.105 1_554 S
Sc1 O17 2.105 1_554 S
Sc1 O21 2.105 . S
Sc2 O3 2.025 . S
Sc2 O12 2.105 . S
Sc2 O14 2.105 1_545 S
Sc2 O18 2.105 1_554 S
Sc2 O20 2.105 . S
O3 Sc0 2.025 . S
O3 Sc1 2.025 . S
O3 Sc2 2.025 . S
C4 O10 1.268 . S
C4 O20 1.268 . S
C5 O11 1.268 . S
C5 O19 1.268 . S
C6 O12 1.268 . S
C6 O21 1.268 . S
C7 O13 1.268 . S
C7 O17 1.268 1_554 S
C8 O14 1.268 . S
C8 O16 1.268 . S
C9 O15 1.268 . S
C9 O18 1.268 . S
O10 Sc0 2.105 . S
O10 C4 1.268 . S
O11 Sc1 2.105 . S
O11 C5 1.268 . S
O12 Sc2 2.105 . S
O12 C6 1.268 . S
O13 Sc0 2.105 . S
O13 C7 1.268 . S
O14 Sc2 2.105 1_565 S
O14 C8 1.268 . S
O15 Sc1 2.105 1_556 S
O15 C9 1.268 . S
O16 Sc0 2.105 1_565 S
O16 C8 1.268 . S
O17 Sc1 2.105 1_556 S
O17 C7 1.268 1_556 S
O18 Sc2 2.105 1_556 S
O18 C9 1.268 . S
O19 Sc0 2.105 . S
O19 C5 1.268 . S
O20 Sc2 2.105 . S
O20 C4 1.268 . S
O21 Sc1 2.105 . S
O21 C6 1.268 . S
Sc22 O25 2.025 . S
Sc22 O32 2.105 1_455 S
Sc22 O35 2.105 . S
Sc22 O38 2.105 . S
Sc22 O41 2.105 . S
Sc23 O25 2.025 . S
Sc23 O33 2.105 1_556 S
Sc23 O37 2.105 . S
Sc23 O39 2.105 . S
Sc23 O43 2.105 1_556 S
Sc24 O25 2.025 . S
Sc24 O34 2.105 1_556 S
Sc24 O36 2.105 . S
Sc24 O40 2.105 . S
Sc24 O42 2.105 1_455 S
O25 Sc22 2.025 . S
O25 Sc23 2.025 . S
O25 Sc24 2.025 . S
C26 O32 1.268 . S
C26 O42 1.268 . S
C27 O33 1.268 1_556 S
C27 O41 1.268 . S
C28 O34 1.268 . S
C28 O43 1.268 . S
C29 O35 1.268 . S
C29 O39 1.268 . S
C30 O36 1.268 . S
C30 O38 1.268 . S
C31 O37 1.268 . S
C31 O40 1.268 . S
O32 Sc22 2.105 1_655 S
O32 C26 1.268 . S
O33 Sc23 2.105 1_554 S
O33 C27 1.268 1_554 S
O34 Sc24 2.105 1_554 S
O34 C28 1.268 . S
O35 Sc22 2.105 . S
O35 C29 1.268 . S
O36 Sc24 2.105 . S
O36 C30 1.268 . S
O37 Sc23 2.105 . S
O37 C31 1.268 . S
O38 Sc22 2.105 . S
O38 C30 1.268 . S
O39 Sc23 2.105 . S
O39 C29 1.268 . S
O40 Sc24 2.105 . S
O40 C31 1.268 . S
O41 Sc22 2.105 . S
O41 C27 1.268 . S
O42 Sc24 2.105 1_655 S
O42 C26 1.268 . S
O43 Sc23 2.105 1_554 S
O43 C28 1.268 . S
Sc44 O47 2.025 . S
Sc44 O54 2.105 1_565 S
Sc44 O57 2.105 . S
Sc44 O60 2.105 . S
Sc44 O63 2.105 1_554 S
Sc45 O47 2.025 . S
Sc45 O55 2.105 1_554 S
Sc45 O59 2.105 . S
Sc45 O61 2.105 . S
Sc45 O65 2.105 1_554 S
Sc46 O47 2.025 . S
Sc46 O56 2.105 . S
Sc46 O58 2.105 . S
Sc46 O62 2.105 . S
Sc46 O64 2.105 1_565 S
O47 Sc44 2.025 . S
O47 Sc45 2.025 . S
O47 Sc46 2.025 . S
C48 O54 1.268 . S
C48 O64 1.268 . S
C49 O55 1.268 . S
C49 O63 1.268 . S
C50 O56 1.268 . S
C50 O65 1.268 1_554 S
C51 O57 1.268 . S
C51 O61 1.268 . S
C52 O58 1.268 . S
C52 O60 1.268 . S
C53 O59 1.268 . S
C53 O62 1.268 . S
O54 Sc44 2.105 1_545 S
O54 C48 1.268 . S
O55 Sc45 2.105 1_556 S
O55 C49 1.268 . S
O56 Sc46 2.105 . S
O56 C50 1.268 . S
O57 Sc44 2.105 . S
O57 C51 1.268 . S
O58 Sc46 2.105 . S
O58 C52 1.268 . S
O59 Sc45 2.105 . S
O59 C53 1.268 . S
O60 Sc44 2.105 . S
O60 C52 1.268 . S
O61 Sc45 2.105 . S
O61 C51 1.268 . S
O62 Sc46 2.105 . S
O62 C53 1.268 . S
O63 Sc44 2.105 1_556 S
O63 C49 1.268 . S
O64 Sc46 2.105 1_545 S
O64 C48 1.268 . S
O65 Sc45 2.105 1_556 S
O65 C50 1.268 1_556 S
Sc66 O69 2.025 . S
Sc66 O76 2.105 . S
Sc66 O79 2.105 1_556 S
Sc66 O82 2.105 1_655 S
Sc66 O85 2.105 . S
Sc67 O69 2.025 . S
Sc67 O77 2.105 . S
Sc67 O81 2.105 1_556 S
Sc67 O83 2.105 1_556 S
Sc67 O87 2.105 . S
Sc68 O69 2.025 . S
Sc68 O78 2.105 . S
Sc68 O80 2.105 1_655 S
Sc68 O84 2.105 . S
Sc68 O86 2.105 . S
O69 Sc66 2.025 . S
O69 Sc67 2.025 . S
O69 Sc68 2.025 . S
C70 O76 1.268 . S
C70 O86 1.268 . S
C71 O77 1.268 . S
C71 O85 1.268 . S
C72 O78 1.268 . S
C72 O87 1.268 . S
C73 O79 1.268 . S
C73 O83 1.268 . S
C74 O80 1.268 . S
C74 O82 1.268 . S
C75 O81 1.268 1_556 S
C75 O84 1.268 . S
O76 Sc66 2.105 . S
O76 C70 1.268 . S
O77 Sc67 2.105 . S
O77 C71 1.268 . S
O78 Sc68 2.105 . S
O78 C72 1.268 . S
O79 Sc66 2.105 1_554 S
O79 C73 1.268 . S
O80 Sc68 2.105 1_455 S
O80 C74 1.268 . S
O81 Sc67 2.105 1_554 S
O81 C75 1.268 1_554 S
O82 Sc66 2.105 1_455 S
O82 C74 1.268 . S
O83 Sc67 2.105 1_554 S
O83 C73 1.268 . S
O84 Sc68 2.105 . S
O84 C75 1.268 . S
O85 Sc66 2.105 . S
O85 C71 1.268 . S
O86 Sc68 2.105 . S
O86 C70 1.268 . S
O87 Sc67 2.105 . S
O87 C72 1.268 . S
Sc88 O91 2.025 . S
Sc88 O98 2.105 . S
Sc88 O101 2.105 . S
Sc88 O104 2.105 1_545 S
Sc88 O107 2.105 . S
Sc89 O91 2.025 . S
Sc89 O99 2.105 . S
Sc89 O103 2.105 . S
Sc89 O105 2.105 . S
Sc89 O109 2.105 . S
Sc90 O91 2.025 . S
Sc90 O100 2.105 . S
Sc90 O102 2.105 1_545 S
Sc90 O106 2.105 . S
Sc90 O108 2.105 . S
O91 Sc88 2.025 . S
O91 Sc89 2.025 . S
O91 Sc90 2.025 . S
C92 O98 1.268 . S
C92 O108 1.268 . S
C93 O99 1.268 . S
C93 O107 1.268 . S
C94 O100 1.268 . S
C94 O109 1.268 . S
C95 O101 1.268 . S
C95 O105 1.268 . S
C96 O102 1.268 . S
C96 O104 1.268 . S
C97 O103 1.268 . S
C97 O106 1.268 . S
O98 Sc88 2.105 . S
O98 C92 1.268 . S
O99 Sc89 2.105 . S
O99 C93 1.268 . S
O100 Sc90 2.105 . S
O100 C94 1.268 . S
O101 Sc88 2.105 . S
O101 C95 1.268 . S
O102 Sc90 2.105 1_565 S
O102 C96 1.268 . S
O103 Sc89 2.105 . S
O103 C97 1.268 . S
O104 Sc88 2.105 1_565 S
O104 C96 1.268 . S
O105 Sc89 2.105 . S
O105 C95 1.268 . S
O106 Sc90 2.105 . S
O106 C97 1.268 . S
O107 Sc88 2.105 . S
O107 C93 1.268 . S
O108 Sc90 2.105 . S
O108 C92 1.268 . S
O109 Sc89 2.105 . S
O109 C94 1.268 . S
Sc110 O113 2.025 . S
Sc110 O120 2.105 . S
Sc110 O123 2.105 . S
Sc110 O126 2.105 1_455 S
Sc110 O129 2.105 . S
Sc111 O113 2.025 . S
Sc111 O121 2.105 . S
Sc111 O125 2.105 . S
Sc111 O127 2.105 . S
Sc111 O131 2.105 . S
Sc112 O113 2.025 . S
Sc112 O122 2.105 . S
Sc112 O124 2.105 1_455 S
Sc112 O128 2.105 . S
Sc112 O130 2.105 . S
O113 Sc110 2.025 . S
O113 Sc111 2.025 . S
O113 Sc112 2.025 . S
C114 O120 1.268 . S
C114 O130 1.268 . S
C115 O121 1.268 . S
C115 O129 1.268 . S
C116 O122 1.268 . S
C116 O131 1.268 . S
C117 O123 1.268 . S
C117 O127 1.268 . S
C118 O124 1.268 . S
C118 O126 1.268 . S
C119 O125 1.268 . S
C119 O128 1.268 . S
O120 Sc110 2.105 . S
O120 C114 1.268 . S
O121 Sc111 2.105 . S
O121 C115 1.268 . S
O122 Sc112 2.105 . S
O122 C116 1.268 . S
O123 Sc110 2.105 . S
O123 C117 1.268 . S
O124 Sc112 2.105 1_655 S
O124 C118 1.268 . S
O125 Sc111 2.105 . S
O125 C119 1.268 . S
O126 Sc110 2.105 1_655 S
O126 C118 1.268 . S
O127 Sc111 2.105 . S
O127 C117 1.268 . S
O128 Sc112 2.105 . S
O128 C119 1.268 . S
O129 Sc110 2.105 . S
O129 C115 1.268 . S
O130 Sc112 2.105 . S
O130 C114 1.268 . S
O131 Sc111 2.105 . S
O131 C116 1.268 . S
Sc132 O135 2.025 . S
Sc132 O142 2.105 1_565 S
Sc132 O145 2.105 . S
Sc132 O148 2.105 . S
Sc132 O151 2.105 . S
Sc133 O135 2.025 . S
Sc133 O143 2.105 . S
Sc133 O147 2.105 . S
Sc133 O149 2.105 . S
Sc133 O153 2.105 . S
Sc134 O135 2.025 . S
Sc134 O144 2.105 . S
Sc134 O146 2.105 . S
Sc134 O150 2.105 . S
Sc134 O152 2.105 1_565 S
O135 Sc132 2.025 . S
O135 Sc133 2.025 . S
O135 Sc134 2.025 . S
C136 O142 1.268 . S
C136 O152 1.268 . S
C137 O143 1.268 . S
C137 O151 1.268 . S
C138 O144 1.268 . S
C138 O153 1.268 . S
C139 O145 1.268 . S
C139 O149 1.268 . S
C140 O146 1.268 . S
C140 O148 1.268 . S
C141 O147 1.268 . S
C141 O150 1.268 . S
O142 Sc132 2.105 1_545 S
O142 C136 1.268 . S
O143 Sc133 2.105 . S
O143 C137 1.268 . S
O144 Sc134 2.105 . S
O144 C138 1.268 . S
O145 Sc132 2.105 . S
O145 C139 1.268 . S
O146 Sc134 2.105 . S
O146 C140 1.268 . S
O147 Sc133 2.105 . S
O147 C141 1.268 . S
O148 Sc132 2.105 . S
O148 C140 1.268 . S
O149 Sc133 2.105 . S
O149 C139 1.268 . S
O150 Sc134 2.105 . S
O150 C141 1.268 . S
O151 Sc132 2.105 . S
O151 C137 1.268 . S
O152 Sc134 2.105 1_545 S
O152 C136 1.268 . S
O153 Sc133 2.105 . S
O153 C138 1.268 . S
Sc154 O157 2.025 . S
Sc154 O164 2.105 1_655 S
Sc154 O167 2.105 . S
Sc154 O170 2.105 . S
Sc154 O173 2.105 . S
Sc155 O157 2.025 . S
Sc155 O165 2.105 . S
Sc155 O169 2.105 . S
Sc155 O171 2.105 . S
Sc155 O175 2.105 . S
Sc156 O157 2.025 . S
Sc156 O166 2.105 . S
Sc156 O168 2.105 . S
Sc156 O172 2.105 . S
Sc156 O174 2.105 1_655 S
O157 Sc154 2.025 . S
O157 Sc155 2.025 . S
O157 Sc156 2.025 . S
C158 O164 1.268 . S
C158 O174 1.268 . S
C159 O165 1.268 . S
C159 O173 1.268 . S
C160 O166 1.268 . S
C160 O175 1.268 . S
C161 O167 1.268 . S
C161 O171 1.268 . S
C162 O168 1.268 . S
C162 O170 1.268 . S
C163 O169 1.268 . S
C163 O172 1.268 . S
O164 Sc154 2.105 1_455 S
O164 C158 1.268 . S
O165 Sc155 2.105 . S
O165 C159 1.268 . S
O166 Sc156 2.105 . S
O166 C160 1.268 . S
O167 Sc154 2.105 . S
O167 C161 1.268 . S
O168 Sc156 2.105 . S
O168 C162 1.268 . S
O169 Sc155 2.105 . S
O169 C163 1.268 . S
O170 Sc154 2.105 . S
O170 C162 1.268 . S
O171 Sc155 2.105 . S
O171 C161 1.268 . S
O172 Sc156 2.105 . S
O172 C163 1.268 . S
O173 Sc154 2.105 . S
O173 C159 1.268 . S
O174 Sc156 2.105 1_455 S
O174 C158 1.268 . S
O175 Sc155 2.105 . S
O175 C160 1.268 . S
Sc176 O179 2.025 . S
Sc176 O186 2.105 . S
Sc176 O189 2.105 . S
Sc176 O192 2.105 . S
Sc176 O195 2.105 . S
Sc177 O179 2.025 . S
Sc177 O187 2.105 . S
Sc177 O191 2.105 . S
Sc177 O193 2.105 . S
Sc177 O197 2.105 . S
Sc178 O179 2.025 . S
Sc178 O188 2.105 . S
Sc178 O190 2.105 . S
Sc178 O194 2.105 . S
Sc178 O196 2.105 . S
O179 Sc176 2.025 . S
O179 Sc177 2.025 . S
O179 Sc178 2.025 . S
C180 O186 1.268 . S
C180 O196 1.268 . S
C181 O187 1.268 . S
C181 O195 1.268 . S
C182 O188 1.268 . S
C182 O197 1.268 . S
C183 O189 1.268 . S
C183 O193 1.268 . S
C184 O190 1.268 . S
C184 O192 1.268 . S
C185 O191 1.268 . S
C185 O194 1.268 . S
O186 Sc176 2.105 . S
O186 C180 1.268 . S
O187 Sc177 2.105 . S
O187 C181 1.268 . S
O188 Sc178 2.105 . S
O188 C182 1.268 . S
O189 Sc176 2.105 . S
O189 C183 1.268 . S
O190 Sc178 2.105 . S
O190 C184 1.268 . S
O191 Sc177 2.105 . S
O191 C185 1.268 . S
O192 Sc176 2.105 . S
O192 C184 1.268 . S
O193 Sc177 2.105 . S
O193 C183 1.268 . S
O194 Sc178 2.105 . S
O194 C185 1.268 . S
O195 Sc176 2.105 . S
O195 C181 1.268 . S
O196 Sc178 2.105 . S
O196 C180 1.268 . S
O197 Sc177 2.105 . S
O197 C182 1.268 . S
Sc198 O201 2.025 . S
Sc198 O208 2.105 . S
Sc198 O211 2.105 . S
Sc198 O214 2.105 . S
Sc198 O217 2.105 . S
Sc199 O201 2.025 . S
Sc199 O209 2.105 . S
Sc199 O213 2.105 . S
Sc199 O215 2.105 . S
Sc199 O219 2.105 . S
Sc200 O201 2.025 . S
Sc200 O210 2.105 . S
Sc200 O212 2.105 . S
Sc200 O216 2.105 . S
Sc200 O218 2.105 . S
O201 Sc198 2.025 . S
O201 Sc199 2.025 . S
O201 Sc200 2.025 . S
C202 O208 1.268 . S
C202 O218 1.268 . S
C203 O209 1.268 . S
C203 O217 1.268 . S
C204 O210 1.268 . S
C204 O219 1.268 . S
C205 O211 1.268 . S
C205 O215 1.268 . S
C206 O212 1.268 . S
C206 O214 1.268 . S
C207 O213 1.268 . S
C207 O216 1.268 . S
O208 Sc198 2.105 . S
O208 C202 1.268 . S
O209 Sc199 2.105 . S
O209 C203 1.268 . S
O210 Sc200 2.105 . S
O210 C204 1.268 . S
O211 Sc198 2.105 . S
O211 C205 1.268 . S
O212 Sc200 2.105 . S
O212 C206 1.268 . S
O213 Sc199 2.105 . S
O213 C207 1.268 . S
O214 Sc198 2.105 . S
O214 C206 1.268 . S
O215 Sc199 2.105 . S
O215 C205 1.268 . S
O216 Sc200 2.105 . S
O216 C207 1.268 . S
O217 Sc198 2.105 . S
O217 C203 1.268 . S
O218 Sc200 2.105 . S
O218 C202 1.268 . S
O219 Sc199 2.105 . S
O219 C204 1.268 . S
Sc220 O223 2.025 . S
Sc220 O230 2.105 . S
Sc220 O233 2.105 . S
Sc220 O236 2.105 . S
Sc220 O239 2.105 . S
Sc221 O223 2.025 . S
Sc221 O231 2.105 . S
Sc221 O235 2.105 . S
Sc221 O237 2.105 . S
Sc221 O241 2.105 . S
Sc222 O223 2.025 . S
Sc222 O232 2.105 . S
Sc222 O234 2.105 . S
Sc222 O238 2.105 . S
Sc222 O240 2.105 . S
O223 Sc220 2.025 . S
O223 Sc221 2.025 . S
O223 Sc222 2.025 . S
C224 O230 1.268 . S
C224 O240 1.268 . S
C225 O231 1.268 . S
C225 O239 1.268 . S
C226 O232 1.268 . S
C226 O241 1.268 . S
C227 O233 1.268 . S
C227 O237 1.268 . S
C228 O234 1.268 . S
C228 O236 1.268 . S
C229 O235 1.268 . S
C229 O238 1.268 . S
O230 Sc220 2.105 . S
O230 C224 1.268 . S
O231 Sc221 2.105 . S
O231 C225 1.268 . S
O232 Sc222 2.105 . S
O232 C226 1.268 . S
O233 Sc220 2.105 . S
O233 C227 1.268 . S
O234 Sc222 2.105 . S
O234 C228 1.268 . S
O235 Sc221 2.105 . S
O235 C229 1.268 . S
O236 Sc220 2.105 . S
O236 C228 1.268 . S
O237 Sc221 2.105 . S
O237 C227 1.268 . S
O238 Sc222 2.105 . S
O238 C229 1.268 . S
O239 Sc220 2.105 . S
O239 C225 1.268 . S
O240 Sc222 2.105 . S
O240 C224 1.268 . S
O241 Sc221 2.105 . S
O241 C226 1.268 . S
Sc242 O245 2.025 . S
Sc242 O252 2.105 . S
Sc242 O255 2.105 . S
Sc242 O258 2.105 . S
Sc242 O261 2.105 . S
Sc243 O245 2.025 . S
Sc243 O253 2.105 . S
Sc243 O257 2.105 . S
Sc243 O259 2.105 . S
Sc243 O263 2.105 . S
Sc244 O245 2.025 . S
Sc244 O254 2.105 . S
Sc244 O256 2.105 . S
Sc244 O260 2.105 . S
Sc244 O262 2.105 . S
O245 Sc242 2.025 . S
O245 Sc243 2.025 . S
O245 Sc244 2.025 . S
C246 O252 1.268 . S
C246 O262 1.268 . S
C247 O253 1.268 . S
C247 O261 1.268 . S
C248 O254 1.268 . S
C248 O263 1.268 . S
C249 O255 1.268 . S
C249 O259 1.268 . S
C250 O256 1.268 . S
C250 O258 1.268 . S
C251 O257 1.268 . S
C251 O260 1.268 . S
O252 Sc242 2.105 . S
O252 C246 1.268 . S
O253 Sc243 2.105 . S
O253 C247 1.268 . S
O254 Sc244 2.105 . S
O254 C248 1.268 . S
O255 Sc242 2.105 . S
O255 C249 1.268 . S
O256 Sc244 2.105 . S
O256 C250 1.268 . S
O257 Sc243 2.105 . S
O257 C251 1.268 . S
O258 Sc242 2.105 . S
O258 C250 1.268 . S
O259 Sc243 2.105 . S
O259 C249 1.268 . S
O260 Sc244 2.105 . S
O260 C251 1.268 . S
O261 Sc242 2.105 . S
O261 C247 1.268 . S
O262 Sc244 2.105 . S
O262 C246 1.268 . S
O263 Sc243 2.105 . S
O263 C248 1.268 . S
Sc264 O267 2.025 . S
Sc264 O274 2.105 . S
Sc264 O277 2.105 1_554 S
Sc264 O280 2.105 . S
Sc264 O283 2.105 . S
Sc265 O267 2.025 . S
Sc265 O275 2.105 . S
Sc265 O279 2.105 1_554 S
Sc265 O281 2.105 1_554 S
Sc265 O285 2.105 . S
Sc266 O267 2.025 . S
Sc266 O276 2.105 . S
Sc266 O278 2.105 . S
Sc266 O282 2.105 . S
Sc266 O284 2.105 . S
O267 Sc264 2.025 . S
O267 Sc265 2.025 . S
O267 Sc266 2.025 . S
C268 O274 1.268 . S
C268 O284 1.268 . S
C269 O275 1.268 . S
C269 O283 1.268 . S
C270 O276 1.268 . S
C270 O285 1.268 . S
C271 O277 1.268 . S
C271 O281 1.268 . S
C272 O278 1.268 . S
C272 O280 1.268 . S
C273 O279 1.268 1_554 S
C273 O282 1.268 . S
O274 Sc264 2.105 . S
O274 C268 1.268 . S
O275 Sc265 2.105 . S
O275 C269 1.268 . S
O276 Sc266 2.105 . S
O276 C270 1.268 . S
O277 Sc264 2.105 1_556 S
O277 C271 1.268 . S
O278 Sc266 2.105 . S
O278 C272 1.268 . S
O279 Sc265 2.105 1_556 S
O279 C273 1.268 1_556 S
O280 Sc264 2.105 . S
O280 C272 1.268 . S
O281 Sc265 2.105 1_556 S
O281 C271 1.268 . S
O282 Sc266 2.105 . S
O282 C273 1.268 . S
O283 Sc264 2.105 . S
O283 C269 1.268 . S
O284 Sc266 2.105 . S
O284 C268 1.268 . S
O285 Sc265 2.105 . S
O285 C270 1.268 . S
Sc286 O289 2.025 . S
Sc286 O296 2.105 . S
Sc286 O299 2.105 . S
Sc286 O302 2.105 . S
Sc286 O305 2.105 . S
Sc287 O289 2.025 . S
Sc287 O297 2.105 . S
Sc287 O301 2.105 1_556 S
Sc287 O303 2.105 1_556 S
Sc287 O307 2.105 . S
Sc288 O289 2.025 . S
Sc288 O298 2.105 . S
Sc288 O300 2.105 . S
Sc288 O304 2.105 1_556 S
Sc288 O306 2.105 . S
O289 Sc286 2.025 . S
O289 Sc287 2.025 . S
O289 Sc288 2.025 . S
C290 O296 1.268 . S
C290 O306 1.268 . S
C291 O297 1.268 . S
C291 O305 1.268 . S
C292 O298 1.268 . S
C292 O307 1.268 . S
C293 O299 1.268 . S
C293 O303 1.268 1_556 S
C294 O300 1.268 . S
C294 O302 1.268 . S
C295 O301 1.268 . S
C295 O304 1.268 . S
O296 Sc286 2.105 . S
O296 C290 1.268 . S
O297 Sc287 2.105 . S
O297 C291 1.268 . S
O298 Sc288 2.105 . S
O298 C292 1.268 . S
O299 Sc286 2.105 . S
O299 C293 1.268 . S
O300 Sc288 2.105 . S
O300 C294 1.268 . S
O301 Sc287 2.105 1_554 S
O301 C295 1.268 . S
O302 Sc286 2.105 . S
O302 C294 1.268 . S
O303 Sc287 2.105 1_554 S
O303 C293 1.268 1_554 S
O304 Sc288 2.105 1_554 S
O304 C295 1.268 . S
O305 Sc286 2.105 . S
O305 C291 1.268 . S
O306 Sc288 2.105 . S
O306 C290 1.268 . S
O307 Sc287 2.105 . S
O307 C292 1.268 . S
Sc308 O311 2.025 . S
Sc308 O318 2.105 . S
Sc308 O321 2.105 . S
Sc308 O324 2.105 . S
Sc308 O327 2.105 . S
Sc309 O311 2.025 . S
Sc309 O319 2.105 1_554 S
Sc309 O323 2.105 . S
Sc309 O325 2.105 . S
Sc309 O329 2.105 1_554 S
Sc310 O311 2.025 . S
Sc310 O320 2.105 1_554 S
Sc310 O322 2.105 . S
Sc310 O326 2.105 . S
Sc310 O328 2.105 . S
O311 Sc308 2.025 . S
O311 Sc309 2.025 . S
O311 Sc310 2.025 . S
C312 O318 1.268 . S
C312 O328 1.268 . S
C313 O319 1.268 1_554 S
C313 O327 1.268 . S
C314 O320 1.268 . S
C314 O329 1.268 . S
C315 O321 1.268 . S
C315 O325 1.268 . S
C316 O322 1.268 . S
C316 O324 1.268 . S
C317 O323 1.268 . S
C317 O326 1.268 . S
O318 Sc308 2.105 . S
O318 C312 1.268 . S
O319 Sc309 2.105 1_556 S
O319 C313 1.268 1_556 S
O320 Sc310 2.105 1_556 S
O320 C314 1.268 . S
O321 Sc308 2.105 . S
O321 C315 1.268 . S
O322 Sc310 2.105 . S
O322 C316 1.268 . S
O323 Sc309 2.105 . S
O323 C317 1.268 . S
O324 Sc308 2.105 . S
O324 C316 1.268 . S
O325 Sc309 2.105 . S
O325 C315 1.268 . S
O326 Sc310 2.105 . S
O326 C317 1.268 . S
O327 Sc308 2.105 . S
O327 C313 1.268 . S
O328 Sc310 2.105 . S
O328 C312 1.268 . S
O329 Sc309 2.105 1_556 S
O329 C314 1.268 . S
Sc330 O333 2.025 . S
Sc330 O340 2.105 . S
Sc330 O343 2.105 . S
Sc330 O346 2.105 . S
Sc330 O349 2.105 1_556 S
Sc331 O333 2.025 . S
Sc331 O341 2.105 1_556 S
Sc331 O345 2.105 . S
Sc331 O347 2.105 . S
Sc331 O351 2.105 1_556 S
Sc332 O333 2.025 . S
Sc332 O342 2.105 . S
Sc332 O344 2.105 . S
Sc332 O348 2.105 . S
Sc332 O350 2.105 . S
O333 Sc330 2.025 . S
O333 Sc331 2.025 . S
O333 Sc332 2.025 . S
C334 O340 1.268 . S
C334 O350 1.268 . S
C335 O341 1.268 . S
C335 O349 1.268 . S
C336 O342 1.268 . S
C336 O351 1.268 1_556 S
C337 O343 1.268 . S
C337 O347 1.268 . S
C338 O344 1.268 . S
C338 O346 1.268 . S
C339 O345 1.268 . S
C339 O348 1.268 . S
O340 Sc330 2.105 . S
O340 C334 1.268 . S
O341 Sc331 2.105 1_554 S
O341 C335 1.268 . S
O342 Sc332 2.105 . S
O342 C336 1.268 . S
O343 Sc330 2.105 . S
O343 C337 1.268 . S
O344 Sc332 2.105 . S
O344 C338 1.268 . S
O345 Sc331 2.105 . S
O345 C339 1.268 . S
O346 Sc330 2.105 . S
O346 C338 1.268 . S
O347 Sc331 2.105 . S
O347 C337 1.268 . S
O348 Sc332 2.105 . S
O348 C339 1.268 . S
O349 Sc330 2.105 1_554 S
O349 C335 1.268 . S
O350 Sc332 2.105 . S
O350 C334 1.268 . S
O351 Sc331 2.105 1_554 S
O351 C336 1.268 1_554 S
C352 C353 1.363 . S
C352 C358 1.379 . S
C352 N360 1.356 . S
C353 C352 1.363 . S
C353 C359 1.363 . S
C354 C355 1.363 . S
C354 C359 1.379 . S
C354 N361 1.356 . S
C355 C354 1.363 . S
C355 C358 1.363 . S
N356 C358 1.356 . S
N356 H368 0.984 . S
N356 H369 0.985 . S
N357 C359 1.356 . S
N357 H362 0.984 . S
N357 H363 0.985 . S
C358 C352 1.379 . S
C358 C355 1.363 . S
C358 N356 1.356 . S
C359 C353 1.363 . S
C359 C354 1.379 . S
C359 N357 1.356 . S
N360 C352 1.356 . S
N360 H366 0.984 . S
N360 H367 0.984 . S
N361 C354 1.356 . S
N361 H364 0.984 . S
N361 H365 0.985 . S
H362 N357 0.984 . S
H363 N357 0.985 . S
H364 N361 0.984 . S
H365 N361 0.985 . S
H366 N360 0.984 . S
H367 N360 0.984 . S
H368 N356 0.984 . S
H369 N356 0.985 . S
C370 C371 1.363 . S
C370 C376 1.379 . S
C370 N378 1.356 . S
C371 C370 1.363 . S
C371 C377 1.363 . S
C372 C373 1.363 . S
C372 C377 1.379 . S
C372 N379 1.356 . S
C373 C372 1.363 . S
C373 C376 1.363 . S
N374 C376 1.356 . S
N374 H386 0.984 . S
N374 H387 0.985 . S
N375 C377 1.356 . S
N375 H380 0.984 . S
N375 H381 0.985 . S
C376 C370 1.379 . S
C376 C373 1.363 . S
C376 N374 1.356 . S
C377 C371 1.363 . S
C377 C372 1.379 . S
C377 N375 1.356 . S
N378 C370 1.356 . S
N378 H384 0.984 . S
N378 H385 0.984 . S
N379 C372 1.356 . S
N379 H382 0.984 . S
N379 H383 0.985 . S
H380 N375 0.984 . S
H381 N375 0.985 . S
H382 N379 0.984 . S
H383 N379 0.985 . S
H384 N378 0.984 . S
H385 N378 0.984 . S
H386 N374 0.984 . S
H387 N374 0.985 . S
C388 C389 1.363 . S
C388 C394 1.379 . S
C388 N396 1.356 . S
C389 C388 1.363 . S
C389 C395 1.363 . S
C390 C391 1.363 . S
C390 C395 1.379 . S
C390 N397 1.356 . S
C391 C390 1.363 . S
C391 C394 1.363 . S
N392 C394 1.356 . S
N392 H404 0.984 . S
N392 H405 0.985 . S
N393 C395 1.356 . S
N393 H398 0.984 . S
N393 H399 0.985 . S
C394 C388 1.379 . S
C394 C391 1.363 . S
C394 N392 1.356 . S
C395 C389 1.363 . S
C395 C390 1.379 . S
C395 N393 1.356 . S
N396 C388 1.356 . S
N396 H402 0.984 . S
N396 H403 0.984 . S
N397 C390 1.356 . S
N397 H400 0.984 . S
N397 H401 0.985 . S
H398 N393 0.984 . S
H399 N393 0.985 . S
H400 N397 0.984 . S
H401 N397 0.985 . S
H402 N396 0.984 . S
H403 N396 0.984 . S
H404 N392 0.984 . S
H405 N392 0.985 . S
C406 C407 1.363 . S
C406 C412 1.379 . S
C406 N414 1.356 . S
C407 C406 1.363 . S
C407 C413 1.363 . S
C408 C409 1.363 . S
C408 C413 1.379 . S
C408 N415 1.356 . S
C409 C408 1.363 . S
C409 C412 1.363 . S
N410 C412 1.356 . S
N410 H422 0.984 . S
N410 H423 0.985 . S
N411 C413 1.356 . S
N411 H416 0.984 . S
N411 H417 0.985 . S
C412 C406 1.379 . S
C412 C409 1.363 . S
C412 N410 1.356 . S
C413 C407 1.363 . S
C413 C408 1.379 . S
C413 N411 1.356 . S
N414 C406 1.356 . S
N414 H420 0.984 . S
N414 H421 0.984 . S
N415 C408 1.356 . S
N415 H418 0.984 . S
N415 H419 0.985 . S
H416 N411 0.984 . S
H417 N411 0.985 . S
H418 N415 0.984 . S
H419 N415 0.985 . S
H420 N414 0.984 . S
H421 N414 0.984 . S
H422 N410 0.984 . S
H423 N410 0.985 . S
C424 C425 1.363 . S
C424 C430 1.379 . S
C424 N432 1.356 . S
C425 C424 1.363 . S
C425 C431 1.363 . S
C426 C427 1.363 . S
C426 C431 1.379 . S
C426 N433 1.356 . S
C427 C426 1.363 . S
C427 C430 1.363 . S
N428 C430 1.356 . S
N428 H440 0.984 . S
N428 H441 0.985 . S
N429 C431 1.356 . S
N429 H434 0.984 . S
N429 H435 0.985 . S
C430 C424 1.379 . S
C430 C427 1.363 . S
C430 N428 1.356 . S
C431 C425 1.363 . S
C431 C426 1.379 . S
C431 N429 1.356 . S
N432 C424 1.356 . S
N432 H438 0.984 . S
N432 H439 0.984 . S
N433 C426 1.356 . S
N433 H436 0.984 . S
N433 H437 0.985 . S
H434 N429 0.984 . S
H435 N429 0.985 . S
H436 N433 0.984 . S
H437 N433 0.985 . S
H438 N432 0.984 . S
H439 N432 0.984 . S
H440 N428 0.984 . S
H441 N428 0.985 . S
C442 C443 1.363 . S
C442 C448 1.379 . S
C442 N450 1.356 . S
C443 C442 1.363 . S
C443 C449 1.363 . S
C444 C445 1.363 . S
C444 C449 1.379 . S
C444 N451 1.356 . S
C445 C444 1.363 . S
C445 C448 1.363 . S
N446 C448 1.356 . S
N446 H458 0.984 . S
N446 H459 0.985 . S
N447 C449 1.356 . S
N447 H452 0.984 . S
N447 H453 0.985 . S
C448 C442 1.379 . S
C448 C445 1.363 . S
C448 N446 1.356 . S
C449 C443 1.363 . S
C449 C444 1.379 . S
C449 N447 1.356 . S
N450 C442 1.356 . S
N450 H456 0.984 . S
N450 H457 0.984 . S
N451 C444 1.356 . S
N451 H454 0.984 . S
N451 H455 0.985 . S
H452 N447 0.984 . S
H453 N447 0.985 . S
H454 N451 0.984 . S
H455 N451 0.985 . S
H456 N450 0.984 . S
H457 N450 0.984 . S
H458 N446 0.984 . S
H459 N446 0.985 . S
C460 C461 1.363 . S
C460 C466 1.379 . S
C460 N468 1.356 . S
C461 C460 1.363 . S
C461 C467 1.363 . S
C462 C463 1.363 . S
C462 C467 1.379 . S
C462 N469 1.356 . S
C463 C462 1.363 . S
C463 C466 1.363 . S
N464 C466 1.356 . S
N464 H476 0.984 . S
N464 H477 0.985 . S
N465 C467 1.356 . S
N465 H470 0.984 . S
N465 H471 0.985 . S
C466 C460 1.379 . S
C466 C463 1.363 . S
C466 N464 1.356 . S
C467 C461 1.363 . S
C467 C462 1.379 . S
C467 N465 1.356 . S
N468 C460 1.356 . S
N468 H474 0.984 . S
N468 H475 0.984 . S
N469 C462 1.356 . S
N469 H472 0.984 . S
N469 H473 0.985 . S
H470 N465 0.984 . S
H471 N465 0.985 . S
H472 N469 0.984 . S
H473 N469 0.985 . S
H474 N468 0.984 . S
H475 N468 0.984 . S
H476 N464 0.984 . S
H477 N464 0.985 . S
C478 C479 1.363 . S
C478 C484 1.379 . S
C478 N486 1.356 . S
C479 C478 1.363 . S
C479 C485 1.363 . S
C480 C481 1.363 . S
C480 C485 1.379 . S
C480 N487 1.356 . S
C481 C480 1.363 . S
C481 C484 1.363 . S
N482 C484 1.356 . S
N482 H494 0.984 . S
N482 H495 0.985 . S
N483 C485 1.356 . S
N483 H488 0.984 . S
N483 H489 0.985 . S
C484 C478 1.379 . S
C484 C481 1.363 . S
C484 N482 1.356 . S
C485 C479 1.363 . S
C485 C480 1.379 . S
C485 N483 1.356 . S
N486 C478 1.356 . S
N486 H492 0.984 . S
N486 H493 0.984 . S
N487 C480 1.356 . S
N487 H490 0.984 . S
N487 H491 0.985 . S
H488 N483 0.984 . S
H489 N483 0.985 . S
H490 N487 0.984 . S
H491 N487 0.985 . S
H492 N486 0.984 . S
H493 N486 0.984 . S
H494 N482 0.984 . S
H495 N482 0.985 . S
C496 C497 1.363 1_556 S
C496 C502 1.379 . S
C496 N504 1.356 . S
C497 C496 1.363 1_554 S
C497 C503 1.363 . S
C498 C499 1.363 . S
C498 C503 1.379 . S
C498 N505 1.356 . S
C499 C498 1.363 . S
C499 C502 1.363 1_554 S
N500 C502 1.356 . S
N500 H512 0.984 . S
N500 H513 0.985 . S
N501 C503 1.356 . S
N501 H506 0.984 . S
N501 H507 0.985 . S
C502 C496 1.379 . S
C502 C499 1.363 1_556 S
C502 N500 1.356 . S
C503 C497 1.363 . S
C503 C498 1.379 . S
C503 N501 1.356 . S
N504 C496 1.356 . S
N504 H510 0.984 . S
N504 H511 0.984 . S
N505 C498 1.356 . S
N505 H508 0.984 . S
N505 H509 0.985 . S
H506 N501 0.984 . S
H507 N501 0.985 . S
H508 N505 0.984 . S
H509 N505 0.985 . S
H510 N504 0.984 . S
H511 N504 0.984 . S
H512 N500 0.984 . S
H513 N500 0.985 . S
C514 C515 1.363 1_554 S
C514 C520 1.379 . S
C514 N522 1.356 . S
C515 C514 1.363 1_556 S
C515 C521 1.363 . S
C516 C517 1.363 . S
C516 C521 1.379 . S
C516 N523 1.356 . S
C517 C516 1.363 . S
C517 C520 1.363 1_556 S
N518 C520 1.356 . S
N518 H530 0.984 . S
N518 H531 0.985 . S
N519 C521 1.356 . S
N519 H524 0.984 . S
N519 H525 0.985 . S
C520 C514 1.379 . S
C520 C517 1.363 1_554 S
C520 N518 1.356 . S
C521 C515 1.363 . S
C521 C516 1.379 . S
C521 N519 1.356 . S
N522 C514 1.356 . S
N522 H528 0.984 . S
N522 H529 0.984 . S
N523 C516 1.356 . S
N523 H526 0.984 . S
N523 H527 0.985 . S
H524 N519 0.984 . S
H525 N519 0.985 . S
H526 N523 0.984 . S
H527 N523 0.985 . S
H528 N522 0.984 . S
H529 N522 0.984 . S
H530 N518 0.984 . S
H531 N518 0.985 . S
C532 C533 1.363 1_556 S
C532 C538 1.379 . S
C532 N540 1.356 . S
C533 C532 1.363 1_554 S
C533 C539 1.363 . S
C534 C535 1.363 . S
C534 C539 1.379 . S
C534 N541 1.356 . S
C535 C534 1.363 . S
C535 C538 1.363 1_554 S
N536 C538 1.356 . S
N536 H548 0.984 . S
N536 H549 0.985 . S
N537 C539 1.356 . S
N537 H542 0.984 . S
N537 H543 0.985 . S
C538 C532 1.379 . S
C538 C535 1.363 1_556 S
C538 N536 1.356 . S
C539 C533 1.363 . S
C539 C534 1.379 . S
C539 N537 1.356 . S
N540 C532 1.356 . S
N540 H546 0.984 . S
N540 H547 0.984 . S
N541 C534 1.356 . S
N541 H544 0.984 . S
N541 H545 0.985 . S
H542 N537 0.984 . S
H543 N537 0.985 . S
H544 N541 0.984 . S
H545 N541 0.985 . S
H546 N540 0.984 . S
H547 N540 0.984 . S
H548 N536 0.984 . S
H549 N536 0.985 . S
C550 C551 1.363 . S
C550 C556 1.379 . S
C550 N558 1.356 . S
C551 C550 1.363 . S
C551 C557 1.363 1_556 S
C552 C553 1.363 1_554 S
C552 C557 1.379 . S
C552 N559 1.356 . S
C553 C552 1.363 1_556 S
C553 C556 1.363 . S
N554 C556 1.356 . S
N554 H566 0.984 . S
N554 H567 0.985 . S
N555 C557 1.356 . S
N555 H560 0.984 . S
N555 H561 0.985 . S
C556 C550 1.379 . S
C556 C553 1.363 . S
C556 N554 1.356 . S
C557 C551 1.363 1_554 S
C557 C552 1.379 . S
C557 N555 1.356 . S
N558 C550 1.356 . S
N558 H564 0.984 . S
N558 H565 0.984 . S
N559 C552 1.356 . S
N559 H562 0.984 . S
N559 H563 0.985 . S
H560 N555 0.984 . S
H561 N555 0.985 . S
H562 N559 0.984 . S
H563 N559 0.985 . S
H564 N558 0.984 . S
H565 N558 0.984 . S
H566 N554 0.984 . S
H567 N554 0.985 . S
C568 C569 1.363 . S
C568 C574 1.379 . S
C568 N576 1.356 . S
C569 C568 1.363 . S
C569 C575 1.363 . S
C570 C571 1.363 . S
C570 C575 1.379 . S
C570 N577 1.356 . S
C571 C570 1.363 . S
C571 C574 1.363 . S
N572 C574 1.356 . S
N572 H584 0.984 . S
N572 H585 0.985 . S
N573 C575 1.356 . S
N573 H578 0.984 . S
N573 H579 0.985 . S
C574 C568 1.379 . S
C574 C571 1.363 . S
C574 N572 1.356 . S
C575 C569 1.363 . S
C575 C570 1.379 . S
C575 N573 1.356 . S
N576 C568 1.356 . S
N576 H582 0.984 . S
N576 H583 0.984 . S
N577 C570 1.356 . S
N577 H580 0.984 . S
N577 H581 0.985 . S
H578 N573 0.984 . S
H579 N573 0.985 . S
H580 N577 0.984 . S
H581 N577 0.985 . S
H582 N576 0.984 . S
H583 N576 0.984 . S
H584 N572 0.984 . S
H585 N572 0.985 . S
C586 C587 1.363 . S
C586 C592 1.379 . S
C586 N594 1.356 . S
C587 C586 1.363 . S
C587 C593 1.363 . S
C588 C589 1.363 . S
C588 C593 1.379 . S
C588 N595 1.356 . S
C589 C588 1.363 . S
C589 C592 1.363 . S
N590 C592 1.356 . S
N590 H602 0.984 . S
N590 H603 0.985 . S
N591 C593 1.356 . S
N591 H596 0.984 . S
N591 H597 0.985 . S
C592 C586 1.379 . S
C592 C589 1.363 . S
C592 N590 1.356 . S
C593 C587 1.363 . S
C593 C588 1.379 . S
C593 N591 1.356 . S
N594 C586 1.356 . S
N594 H600 0.984 . S
N594 H601 0.984 . S
N595 C588 1.356 . S
N595 H598 0.984 . S
N595 H599 0.985 . S
H596 N591 0.984 . S
H597 N591 0.985 . S
H598 N595 0.984 . S
H599 N595 0.985 . S
H600 N594 0.984 . S
H601 N594 0.984 . S
H602 N590 0.984 . S
H603 N590 0.985 . S
C604 C605 1.363 . S
C604 C610 1.379 . S
C604 N612 1.356 . S
C605 C604 1.363 . S
C605 C611 1.363 . S
C606 C607 1.363 . S
C606 C611 1.379 . S
C606 N613 1.356 . S
C607 C606 1.363 . S
C607 C610 1.363 . S
N608 C610 1.356 . S
N608 H620 0.984 . S
N608 H621 0.985 . S
N609 C611 1.356 . S
N609 H614 0.984 . S
N609 H615 0.985 . S
C610 C604 1.379 . S
C610 C607 1.363 . S
C610 N608 1.356 . S
C611 C605 1.363 . S
C611 C606 1.379 . S
C611 N609 1.356 . S
N612 C604 1.356 . S
N612 H618 0.984 . S
N612 H619 0.984 . S
N613 C606 1.356 . S
N613 H616 0.984 . S
N613 H617 0.985 . S
H614 N609 0.984 . S
H615 N609 0.985 . S
H616 N613 0.984 . S
H617 N613 0.985 . S
H618 N612 0.984 . S
H619 N612 0.984 . S
H620 N608 0.984 . S
H621 N608 0.985 . S
C622 C623 1.363 . S
C622 C628 1.379 . S
C622 N630 1.356 . S
C623 C622 1.363 . S
C623 C629 1.363 . S
C624 C625 1.363 . S
C624 C629 1.379 . S
C624 N631 1.356 . S
C625 C624 1.363 . S
C625 C628 1.363 . S
N626 C628 1.356 . S
N626 H638 0.984 . S
N626 H639 0.985 . S
N627 C629 1.356 . S
N627 H632 0.984 . S
N627 H633 0.985 . S
C628 C622 1.379 . S
C628 C625 1.363 . S
C628 N626 1.356 . S
C629 C623 1.363 . S
C629 C624 1.379 . S
C629 N627 1.356 . S
N630 C622 1.356 . S
N630 H636 0.984 . S
N630 H637 0.984 . S
N631 C624 1.356 . S
N631 H634 0.984 . S
N631 H635 0.985 . S
H632 N627 0.984 . S
H633 N627 0.985 . S
H634 N631 0.984 . S
H635 N631 0.985 . S
H636 N630 0.984 . S
H637 N630 0.984 . S
H638 N626 0.984 . S
H639 N626 0.985 . S
C640 C641 1.363 . S
C640 C646 1.379 . S
C640 N648 1.356 . S
C641 C640 1.363 . S
C641 C647 1.363 . S
C642 C643 1.363 . S
C642 C647 1.379 . S
C642 N649 1.356 . S
C643 C642 1.363 . S
C643 C646 1.363 . S
N644 C646 1.356 . S
N644 H656 0.984 . S
N644 H657 0.985 . S
N645 C647 1.356 . S
N645 H650 0.984 . S
N645 H651 0.985 . S
C646 C640 1.379 . S
C646 C643 1.363 . S
C646 N644 1.356 . S
C647 C641 1.363 . S
C647 C642 1.379 . S
C647 N645 1.356 . S
N648 C640 1.356 . S
N648 H654 0.984 . S
N648 H655 0.984 . S
N649 C642 1.356 . S
N649 H652 0.984 . S
N649 H653 0.985 . S
H650 N645 0.984 . S
H651 N645 0.985 . S
H652 N649 0.984 . S
H653 N649 0.985 . S
H654 N648 0.984 . S
H655 N648 0.984 . S
H656 N644 0.984 . S
H657 N644 0.985 . S
C658 C659 1.363 . S
C658 C664 1.379 . S
C658 N666 1.356 . S
C659 C658 1.363 . S
C659 C665 1.363 . S
C660 C661 1.363 . S
C660 C665 1.379 . S
C660 N667 1.356 . S
C661 C660 1.363 . S
C661 C664 1.363 . S
N662 C664 1.356 . S
N662 H674 0.984 . S
N662 H675 0.985 . S
N663 C665 1.356 . S
N663 H668 0.984 . S
N663 H669 0.985 . S
C664 C658 1.379 . S
C664 C661 1.363 . S
C664 N662 1.356 . S
C665 C659 1.363 . S
C665 C660 1.379 . S
C665 N663 1.356 . S
N666 C658 1.356 . S
N666 H672 0.984 . S
N666 H673 0.984 . S
N667 C660 1.356 . S
N667 H670 0.984 . S
N667 H671 0.985 . S
H668 N663 0.984 . S
H669 N663 0.985 . S
H670 N667 0.984 . S
H671 N667 0.985 . S
H672 N666 0.984 . S
H673 N666 0.984 . S
H674 N662 0.984 . S
H675 N662 0.985 . S
C676 C677 1.363 . S
C676 C682 1.379 . S
C676 N684 1.356 . S
C677 C676 1.363 . S
C677 C683 1.363 . S
C678 C679 1.363 . S
C678 C683 1.379 . S
C678 N685 1.356 . S
C679 C678 1.363 . S
C679 C682 1.363 . S
N680 C682 1.356 . S
N680 H692 0.984 . S
N680 H693 0.985 . S
N681 C683 1.356 . S
N681 H686 0.984 . S
N681 H687 0.985 . S
C682 C676 1.379 . S
C682 C679 1.363 . S
C682 N680 1.356 . S
C683 C677 1.363 . S
C683 C678 1.379 . S
C683 N681 1.356 . S
N684 C676 1.356 . S
N684 H690 0.984 . S
N684 H691 0.984 . S
N685 C678 1.356 . S
N685 H688 0.984 . S
N685 H689 0.985 . S
H686 N681 0.984 . S
H687 N681 0.985 . S
H688 N685 0.984 . S
H689 N685 0.985 . S
H690 N684 0.984 . S
H691 N684 0.984 . S
H692 N680 0.984 . S
H693 N680 0.985 . S
C694 C695 1.363 . S
C694 C700 1.379 . S
C694 N702 1.356 . S
C695 C694 1.363 . S
C695 C701 1.363 . S
C696 C697 1.363 . S
C696 C701 1.379 . S
C696 N703 1.356 . S
C697 C696 1.363 . S
C697 C700 1.363 . S
N698 C700 1.356 . S
N698 H710 0.984 . S
N698 H711 0.985 . S
N699 C701 1.356 . S
N699 H704 0.984 . S
N699 H705 0.985 . S
C700 C694 1.379 . S
C700 C697 1.363 . S
C700 N698 1.356 . S
C701 C695 1.363 . S
C701 C696 1.379 . S
C701 N699 1.356 . S
N702 C694 1.356 . S
N702 H708 0.984 . S
N702 H709 0.984 . S
N703 C696 1.356 . S
N703 H706 0.984 . S
N703 H707 0.985 . S
H704 N699 0.984 . S
H705 N699 0.985 . S
H706 N703 0.984 . S
H707 N703 0.985 . S
H708 N702 0.984 . S
H709 N702 0.984 . S
H710 N698 0.984 . S
H711 N698 0.985 . S
C712 C713 1.363 1_556 S
C712 C718 1.379 . S
C712 N720 1.356 . S
C713 C712 1.363 1_554 S
C713 C719 1.363 . S
C714 C715 1.363 . S
C714 C719 1.379 . S
C714 N721 1.356 . S
C715 C714 1.363 . S
C715 C718 1.363 1_554 S
N716 C718 1.356 . S
N716 H728 0.984 . S
N716 H729 0.985 . S
N717 C719 1.356 . S
N717 H722 0.984 . S
N717 H723 0.985 . S
C718 C712 1.379 . S
C718 C715 1.363 1_556 S
C718 N716 1.356 . S
C719 C713 1.363 . S
C719 C714 1.379 . S
C719 N717 1.356 . S
N720 C712 1.356 . S
N720 H726 0.984 . S
N720 H727 0.984 . S
N721 C714 1.356 . S
N721 H724 0.984 . S
N721 H725 0.985 . S
H722 N717 0.984 . S
H723 N717 0.985 . S
H724 N721 0.984 . S
H725 N721 0.985 . S
H726 N720 0.984 . S
H727 N720 0.984 . S
H728 N716 0.984 . S
H729 N716 0.985 . S
C730 C731 1.363 . S
C730 C736 1.379 . S
C730 N738 1.356 . S
C731 C730 1.363 . S
C731 C737 1.363 1_556 S
C732 C733 1.363 1_554 S
C732 C737 1.379 . S
C732 N739 1.356 . S
C733 C732 1.363 1_556 S
C733 C736 1.363 . S
N734 C736 1.356 . S
N734 H746 0.984 . S
N734 H747 0.985 . S
N735 C737 1.356 . S
N735 H740 0.984 . S
N735 H741 0.985 . S
C736 C730 1.379 . S
C736 C733 1.363 . S
C736 N734 1.356 . S
C737 C731 1.363 1_554 S
C737 C732 1.379 . S
C737 N735 1.356 . S
N738 C730 1.356 . S
N738 H744 0.984 . S
N738 H745 0.984 . S
N739 C732 1.356 . S
N739 H742 0.984 . S
N739 H743 0.985 . S
H740 N735 0.984 . S
H741 N735 0.985 . S
H742 N739 0.984 . S
H743 N739 0.985 . S
H744 N738 0.984 . S
H745 N738 0.984 . S
H746 N734 0.984 . S
H747 N734 0.985 . S
C748 C749 1.363 1_556 S
C748 C754 1.379 . S
C748 N756 1.356 . S
C749 C748 1.363 1_554 S
C749 C755 1.363 . S
C750 C751 1.363 . S
C750 C755 1.379 . S
C750 N757 1.356 . S
C751 C750 1.363 . S
C751 C754 1.363 1_554 S
N752 C754 1.356 . S
N752 H764 0.984 . S
N752 H765 0.985 . S
N753 C755 1.356 . S
N753 H758 0.984 . S
N753 H759 0.985 . S
C754 C748 1.379 . S
C754 C751 1.363 1_556 S
C754 N752 1.356 . S
C755 C749 1.363 . S
C755 C750 1.379 . S
C755 N753 1.356 . S
N756 C748 1.356 . S
N756 H762 0.984 . S
N756 H763 0.984 . S
N757 C750 1.356 . S
N757 H760 0.984 . S
N757 H761 0.985 . S
H758 N753 0.984 . S
H759 N753 0.985 . S
H760 N757 0.984 . S
H761 N757 0.985 . S
H762 N756 0.984 . S
H763 N756 0.984 . S
H764 N752 0.984 . S
H765 N752 0.985 . S
C766 C767 1.363 . S
C766 C772 1.379 . S
C766 N774 1.356 . S
C767 C766 1.363 . S
C767 C773 1.363 1_556 S
C768 C769 1.363 1_554 S
C768 C773 1.379 . S
C768 N775 1.356 . S
C769 C768 1.363 1_556 S
C769 C772 1.363 . S
N770 C772 1.356 . S
N770 H782 0.984 . S
N770 H783 0.985 . S
N771 C773 1.356 . S
N771 H776 0.984 . S
N771 H777 0.985 . S
C772 C766 1.379 . S
C772 C769 1.363 . S
C772 N770 1.356 . S
C773 C767 1.363 1_554 S
C773 C768 1.379 . S
C773 N771 1.356 . S
N774 C766 1.356 . S
N774 H780 0.984 . S
N774 H781 0.984 . S
N775 C768 1.356 . S
N775 H778 0.984 . S
N775 H779 0.985 . S
H776 N771 0.984 . S
H777 N771 0.985 . S
H778 N775 0.984 . S
H779 N775 0.985 . S
H780 N774 0.984 . S
H781 N774 0.984 . S
H782 N770 0.984 . S
H783 N770 0.985 . S
C784 C785 1.363 . S
C784 C790 1.379 1_565 S
C784 N792 1.356 . S
C785 C784 1.363 . S
C785 C791 1.363 1_565 S
C786 C787 1.363 . S
C786 C791 1.379 . S
C786 N793 1.356 . S
C787 C786 1.363 . S
C787 C790 1.363 . S
N788 C790 1.356 . S
N788 H800 0.984 . S
N788 H801 0.985 . S
N789 C791 1.356 . S
N789 H794 0.999 . S
N789 H795 0.985 . S
C790 C784 1.379 1_545 S
C790 C787 1.363 . S
C790 N788 1.356 . S
C791 C785 1.363 1_545 S
C791 C786 1.379 . S
C791 N789 1.356 . S
N792 C784 1.356 . S
N792 H798 0.984 . S
N792 H799 0.984 . S
N793 C786 1.356 . S
N793 H796 0.984 . S
N793 H797 0.985 . S
H794 N789 0.999 . S
H795 N789 0.985 . S
H796 N793 0.984 . S
H797 N793 0.985 . S
H798 N792 0.984 . S
H799 N792 0.984 . S
H800 N788 0.984 . S
H801 N788 0.985 . S
C802 C803 1.363 1_455 S
C802 C808 1.379 . S
C802 N810 1.356 . S
C803 C802 1.363 1_655 S
C803 C809 1.363 . S
C804 C805 1.363 . S
C804 C809 1.379 1_455 S
C804 N811 1.356 . S
C805 C804 1.363 . S
C805 C808 1.363 . S
N806 C808 1.356 . S
N806 H818 0.984 . S
N806 H819 0.985 . S
N807 C809 1.356 . S
N807 H812 0.984 . S
N807 H813 0.985 . S
C808 C802 1.379 . S
C808 C805 1.363 . S
C808 N806 1.356 . S
C809 C803 1.363 . S
C809 C804 1.379 1_655 S
C809 N807 1.356 . S
N810 C802 1.356 . S
N810 H816 0.984 . S
N810 H817 0.984 1_455 S
N811 C804 1.356 . S
N811 H814 0.984 . S
N811 H815 0.985 . S
H812 N807 0.984 . S
H813 N807 0.985 . S
H814 N811 0.984 . S
H815 N811 0.985 . S
H816 N810 0.984 . S
H817 N810 0.984 1_655 S
H818 N806 0.984 . S
H819 N806 0.985 . S
C820 C821 1.363 . S
C820 C826 1.379 1_565 S
C820 N828 1.356 1_565 S
C821 C820 1.363 . S
C821 C827 1.363 . S
C822 C823 1.363 1_565 S
C822 C827 1.379 . S
C822 N829 1.356 . S
C823 C822 1.363 1_545 S
C823 C826 1.363 . S
N824 C826 1.356 . S
N824 H836 0.984 . S
N824 H837 0.985 . S
N825 C827 1.356 . S
N825 H830 0.984 . S
N825 H831 0.985 . S
C826 C820 1.379 1_545 S
C826 C823 1.363 . S
C826 N824 1.356 . S
C827 C821 1.363 . S
C827 C822 1.379 . S
C827 N825 1.356 . S
N828 C820 1.356 1_545 S
N828 H834 0.984 . S
N828 H835 0.984 1_545 S
N829 C822 1.356 . S
N829 H832 0.984 . S
N829 H833 0.985 . S
H830 N825 0.984 . S
H831 N825 0.985 . S
H832 N829 0.984 . S
H833 N829 0.985 . S
H834 N828 0.984 . S
H835 N828 0.984 1_565 S
H836 N824 0.984 . S
H837 N824 0.985 . S
C838 C839 1.363 . S
C838 C844 1.379 . S
C838 N846 1.356 . S
C839 C838 1.363 . S
C839 C845 1.363 . S
C840 C841 1.363 . S
C840 C845 1.379 1_455 S
C840 N847 1.356 . S
C841 C840 1.363 . S
C841 C844 1.363 1_455 S
N842 C844 1.356 . S
N842 H854 0.984 . S
N842 H855 0.985 . S
N843 C845 1.356 1_455 S
N843 H848 0.984 1_455 S
N843 H849 0.985 . S
C844 C838 1.379 . S
C844 C841 1.363 1_655 S
C844 N842 1.356 . S
C845 C839 1.363 . S
C845 C840 1.379 1_655 S
C845 N843 1.356 1_655 S
N846 C838 1.356 . S
N846 H852 0.984 . S
N846 H853 0.984 . S
N847 C840 1.356 . S
N847 H850 0.984 . S
N847 H851 0.985 . S
H848 N843 0.984 1_655 S
H849 N843 0.985 . S
H850 N847 0.984 . S
H851 N847 0.985 . S
H852 N846 0.984 . S
H853 N846 0.984 . S
H854 N842 0.984 . S
H855 N842 0.985 . S
C856 C857 1.363 . S
C856 C862 1.379 1_565 S
C856 N864 1.356 . S
C857 C856 1.363 . S
C857 C863 1.363 1_565 S
C858 C859 1.363 . S
C858 C863 1.379 . S
C858 N865 1.356 . S
C859 C858 1.363 . S
C859 C862 1.363 . S
N860 C862 1.356 . S
N860 H872 0.984 1_545 S
N860 H873 0.985 . S
N861 C863 1.356 . S
N861 H866 0.984 . S
N861 H867 0.985 . S
C862 C856 1.379 1_545 S
C862 C859 1.363 . S
C862 N860 1.356 . S
C863 C857 1.363 1_545 S
C863 C858 1.379 . S
C863 N861 1.356 . S
N864 C856 1.356 . S
N864 H870 0.984 . S
N864 H871 0.984 . S
N865 C858 1.356 . S
N865 H868 0.984 . S
N865 H869 0.985 . S
H866 N861 0.984 . S
H867 N861 0.985 . S
H868 N865 0.984 . S
H869 N865 0.985 . S
H870 N864 0.984 . S
H871 N864 0.984 . S
H872 N860 0.984 1_565 S
H873 N860 0.985 . S
C874 C875 1.363 . S
C874 C880 1.379 1_455 S
C874 N882 1.356 . S
C875 C874 1.363 . S
C875 C881 1.363 . S
C876 C877 1.363 1_455 S
C876 C881 1.379 . S
C876 N883 1.356 . S
C877 C876 1.363 1_655 S
C877 C880 1.363 . S
N878 C880 1.356 . S
N878 H890 0.984 . S
N878 H891 0.985 . S
N879 C881 1.356 . S
N879 H884 0.984 . S
N879 H885 0.985 . S
C880 C874 1.379 1_655 S
C880 C877 1.363 . S
C880 N878 1.356 . S
C881 C875 1.363 . S
C881 C876 1.379 . S
C881 N879 1.356 . S
N882 C874 1.356 . S
N882 H888 0.984 1_455 S
N882 H889 0.984 . S
N883 C876 1.356 . S
N883 H886 0.984 . S
N883 H887 0.985 . S
H884 N879 0.984 . S
H885 N879 0.985 . S
H886 N883 0.984 . S
H887 N883 0.985 . S
H888 N882 0.984 1_655 S
H889 N882 0.984 . S
H890 N878 0.984 . S
H891 N878 0.985 . S
C892 C893 1.363 . S
C892 C898 1.379 . S
C892 N900 1.356 . S
C893 C892 1.363 . S
C893 C899 1.363 . S
C894 C895 1.363 . S
C894 C899 1.379 1_545 S
C894 N901 1.356 . S
C895 C894 1.363 . S
C895 C898 1.363 1_545 S
N896 C898 1.356 . S
N896 H908 0.984 . S
N896 H909 0.985 . S
N897 C899 1.356 1_545 S
N897 H902 0.984 1_545 S
N897 H903 0.985 . S
C898 C892 1.379 . S
C898 C895 1.363 1_565 S
C898 N896 1.356 . S
C899 C893 1.363 . S
C899 C894 1.379 1_565 S
C899 N897 1.356 1_565 S
N900 C892 1.356 . S
N900 H906 0.984 . S
N900 H907 0.984 . S
N901 C894 1.356 . S
N901 H904 0.984 . S
N901 H905 0.985 . S
H902 N897 0.984 1_565 S
H903 N897 0.985 . S
H904 N901 0.984 . S
H905 N901 0.985 . S
H906 N900 0.984 . S
H907 N900 0.984 . S
H908 N896 0.984 . S
H909 N896 0.985 . S
C910 C911 1.363 1_655 S
C910 C916 1.379 . S
C910 N918 1.356 . S
C911 C910 1.363 1_455 S
C911 C917 1.363 . S
C912 C913 1.363 . S
C912 C917 1.379 1_655 S
C912 N919 1.353 1_655 S
C913 C912 1.363 . S
C913 C916 1.363 . S
N914 C916 1.356 . S
N914 H926 0.984 . S
N914 H927 0.985 . S
N915 C917 1.356 . S
N915 H920 0.984 . S
N915 H921 0.985 . S
C916 C910 1.379 . S
C916 C913 1.363 . S
C916 N914 1.356 . S
C917 C911 1.363 . S
C917 C912 1.379 1_455 S
C917 N915 1.356 . S
N918 C910 1.356 . S
N918 H924 0.984 . S
N918 H925 0.984 . S
N919 C912 1.353 1_455 S
N919 H922 0.965 1_455 S
N919 H923 1.007 . S
H920 N915 0.984 . S
H921 N915 0.985 . S
H922 N919 0.965 1_655 S
H923 N919 1.007 . S
H924 N918 0.984 . S
H925 N918 0.984 . S
H926 N914 0.984 . S
H927 N914 0.985 . S
C928 C929 1.363 . S
C928 C934 1.379 . S
C928 N936 1.356 . S
C929 C928 1.363 . S
C929 C935 1.363 . S
C930 C931 1.363 . S
C930 C935 1.379 . S
C930 N937 1.356 . S
C931 C930 1.363 . S
C931 C934 1.363 . S
N932 C934 1.356 . S
N932 H944 0.984 . S
N932 H945 0.985 . S
N933 C935 1.356 . S
N933 H938 0.984 . S
N933 H939 0.985 . S
C934 C928 1.379 . S
C934 C931 1.363 . S
C934 N932 1.356 . S
C935 C929 1.363 . S
C935 C930 1.379 . S
C935 N933 1.356 . S
N936 C928 1.356 . S
N936 H942 0.984 . S
N936 H943 0.984 . S
N937 C930 1.356 . S
N937 H940 0.984 . S
N937 H941 0.985 . S
H938 N933 0.984 . S
H939 N933 0.985 . S
H940 N937 0.984 . S
H941 N937 0.985 . S
H942 N936 0.984 . S
H943 N936 0.984 . S
H944 N932 0.984 . S
H945 N932 0.985 . S
C946 C947 1.363 . S
C946 C952 1.379 . S
C946 N954 1.356 . S
C947 C946 1.363 . S
C947 C953 1.363 . S
C948 C949 1.363 . S
C948 C953 1.379 . S
C948 N955 1.356 . S
C949 C948 1.363 . S
C949 C952 1.363 . S
N950 C952 1.356 . S
N950 H962 0.984 . S
N950 H963 0.985 . S
N951 C953 1.356 . S
N951 H956 0.984 . S
N951 H957 0.985 . S
C952 C946 1.379 . S
C952 C949 1.363 . S
C952 N950 1.356 . S
C953 C947 1.363 . S
C953 C948 1.379 . S
C953 N951 1.356 . S
N954 C946 1.356 . S
N954 H960 0.984 . S
N954 H961 0.984 . S
N955 C948 1.356 . S
N955 H958 0.984 . S
N955 H959 0.985 . S
H956 N951 0.984 . S
H957 N951 0.985 . S
H958 N955 0.984 . S
H959 N955 0.985 . S
H960 N954 0.984 . S
H961 N954 0.984 . S
H962 N950 0.984 . S
H963 N950 0.985 . S
C964 C965 1.363 . S
C964 C970 1.379 . S
C964 N972 1.356 . S
C965 C964 1.363 . S
C965 C971 1.363 . S
C966 C967 1.363 . S
C966 C971 1.379 . S
C966 N973 1.356 . S
C967 C966 1.363 . S
C967 C970 1.363 . S
N968 C970 1.356 . S
N968 H980 0.984 . S
N968 H981 0.985 . S
N969 C971 1.356 . S
N969 H974 0.984 . S
N969 H975 0.985 . S
C970 C964 1.379 . S
C970 C967 1.363 . S
C970 N968 1.356 . S
C971 C965 1.363 . S
C971 C966 1.379 . S
C971 N969 1.356 . S
N972 C964 1.356 . S
N972 H978 0.984 . S
N972 H979 0.984 . S
N973 C966 1.356 . S
N973 H976 0.984 . S
N973 H977 0.985 . S
H974 N969 0.984 . S
H975 N969 0.985 . S
H976 N973 0.984 . S
H977 N973 0.985 . S
H978 N972 0.984 . S
H979 N972 0.984 . S
H980 N968 0.984 . S
H981 N968 0.985 . S
C982 C983 1.363 . S
C982 C988 1.379 . S
C982 N990 1.356 . S
C983 C982 1.363 . S
C983 C989 1.363 . S
C984 C985 1.363 . S
C984 C989 1.379 . S
C984 N991 1.356 . S
C985 C984 1.363 . S
C985 C988 1.363 . S
N986 C988 1.356 . S
N986 H998 0.984 . S
N986 H999 0.985 . S
N987 C989 1.356 . S
N987 H992 0.984 . S
N987 H993 0.985 . S
C988 C982 1.379 . S
C988 C985 1.363 . S
C988 N986 1.356 . S
C989 C983 1.363 . S
C989 C984 1.379 . S
C989 N987 1.356 . S
N990 C982 1.356 . S
N990 H996 0.984 . S
N990 H997 0.984 . S
N991 C984 1.356 . S
N991 H994 0.984 . S
N991 H995 0.985 . S
H992 N987 0.984 . S
H993 N987 0.985 . S
H994 N991 0.984 . S
H995 N991 0.985 . S
H996 N990 0.984 . S
H997 N990 0.984 . S
H998 N986 0.984 . S
H999 N986 0.985 . S
C1000 C1001 1.363 . S
C1000 C1006 1.379 . S
C1000 N1008 1.356 . S
C1001 C1000 1.363 . S
C1001 C1007 1.363 . S
C1002 C1003 1.363 . S
C1002 C1007 1.379 . S
C1002 N1009 1.356 . S
C1003 C1002 1.363 . S
C1003 C1006 1.363 . S
N1004 C1006 1.356 . S
N1004 H1016 0.984 . S
N1004 H1017 0.985 . S
N1005 C1007 1.356 . S
N1005 H1010 0.984 . S
N1005 H1011 0.985 . S
C1006 C1000 1.379 . S
C1006 C1003 1.363 . S
C1006 N1004 1.356 . S
C1007 C1001 1.363 . S
C1007 C1002 1.379 . S
C1007 N1005 1.356 . S
N1008 C1000 1.356 . S
N1008 H1014 0.984 . S
N1008 H1015 0.984 . S
N1009 C1002 1.356 . S
N1009 H1012 0.984 . S
N1009 H1013 0.985 . S
H1010 N1005 0.984 . S
H1011 N1005 0.985 . S
H1012 N1009 0.984 . S
H1013 N1009 0.985 . S
H1014 N1008 0.984 . S
H1015 N1008 0.984 . S
H1016 N1004 0.984 . S
H1017 N1004 0.985 . S
C1018 C1019 1.363 . S
C1018 C1024 1.379 . S
C1018 N1026 1.356 . S
C1019 C1018 1.363 . S
C1019 C1025 1.363 . S
C1020 C1021 1.363 . S
C1020 C1025 1.379 . S
C1020 N1027 1.356 . S
C1021 C1020 1.363 . S
C1021 C1024 1.363 . S
N1022 C1024 1.356 . S
N1022 H1034 0.984 . S
N1022 H1035 0.985 . S
N1023 C1025 1.356 . S
N1023 H1028 0.984 . S
N1023 H1029 0.985 . S
C1024 C1018 1.379 . S
C1024 C1021 1.363 . S
C1024 N1022 1.356 . S
C1025 C1019 1.363 . S
C1025 C1020 1.379 . S
C1025 N1023 1.356 . S
N1026 C1018 1.356 . S
N1026 H1032 0.984 . S
N1026 H1033 0.984 . S
N1027 C1020 1.356 . S
N1027 H1030 0.984 . S
N1027 H1031 0.985 . S
H1028 N1023 0.984 . S
H1029 N1023 0.985 . S
H1030 N1027 0.984 . S
H1031 N1027 0.985 . S
H1032 N1026 0.984 . S
H1033 N1026 0.984 . S
H1034 N1022 0.984 . S
H1035 N1022 0.985 . S
C1036 C1037 1.363 . S
C1036 C1042 1.379 . S
C1036 N1044 1.356 . S
C1037 C1036 1.363 . S
C1037 C1043 1.363 . S
C1038 C1039 1.363 . S
C1038 C1043 1.379 . S
C1038 N1045 1.356 . S
C1039 C1038 1.363 . S
C1039 C1042 1.363 . S
N1040 C1042 1.356 . S
N1040 H1052 0.984 . S
N1040 H1053 0.985 . S
N1041 C1043 1.356 . S
N1041 H1046 0.984 . S
N1041 H1047 0.985 . S
C1042 C1036 1.379 . S
C1042 C1039 1.363 . S
C1042 N1040 1.356 . S
C1043 C1037 1.363 . S
C1043 C1038 1.379 . S
C1043 N1041 1.356 . S
N1044 C1036 1.356 . S
N1044 H1050 0.984 . S
N1044 H1051 0.984 . S
N1045 C1038 1.356 . S
N1045 H1048 0.984 . S
N1045 H1049 0.985 . S
H1046 N1041 0.984 . S
H1047 N1041 0.985 . S
H1048 N1045 0.984 . S
H1049 N1045 0.985 . S
H1050 N1044 0.984 . S
H1051 N1044 0.984 . S
H1052 N1040 0.984 . S
H1053 N1040 0.985 . S
C1054 C1055 1.363 . S
C1054 C1060 1.379 . S
C1054 N1062 1.356 . S
C1055 C1054 1.363 . S
C1055 C1061 1.363 . S
C1056 C1057 1.363 . S
C1056 C1061 1.379 . S
C1056 N1063 1.356 . S
C1057 C1056 1.363 . S
C1057 C1060 1.363 . S
N1058 C1060 1.356 . S
N1058 H1070 0.984 . S
N1058 H1071 0.985 . S
N1059 C1061 1.356 . S
N1059 H1064 0.984 . S
N1059 H1065 0.985 . S
C1060 C1054 1.379 . S
C1060 C1057 1.363 . S
C1060 N1058 1.356 . S
C1061 C1055 1.363 . S
C1061 C1056 1.379 . S
C1061 N1059 1.356 . S
N1062 C1054 1.356 . S
N1062 H1068 0.984 . S
N1062 H1069 0.984 . S
N1063 C1056 1.356 . S
N1063 H1066 0.984 . S
N1063 H1067 0.985 . S
H1064 N1059 0.984 . S
H1065 N1059 0.985 . S
H1066 N1063 0.984 . S
H1067 N1063 0.985 . S
H1068 N1062 0.984 . S
H1069 N1062 0.984 . S
H1070 N1058 0.984 . S
H1071 N1058 0.985 . S
C1072 C1073 1.363 1_554 S
C1072 C1078 1.379 . S
C1072 N1080 1.356 . S
C1073 C1072 1.363 1_556 S
C1073 C1079 1.363 . S
C1074 C1075 1.363 1_556 S
C1074 C1079 1.379 . S
C1074 N1081 1.356 . S
C1075 C1074 1.363 1_554 S
C1075 C1078 1.363 . S
N1076 C1078 1.356 . S
N1076 H1088 0.984 . S
N1076 H1089 0.985 . S
N1077 C1079 1.356 . S
N1077 H1082 0.984 . S
N1077 H1083 0.985 . S
C1078 C1072 1.379 . S
C1078 C1075 1.363 . S
C1078 N1076 1.356 . S
C1079 C1073 1.363 . S
C1079 C1074 1.379 . S
C1079 N1077 1.356 . S
N1080 C1072 1.356 . S
N1080 H1086 0.984 . S
N1080 H1087 0.984 1_554 S
N1081 C1074 1.356 . S
N1081 H1084 0.984 1_556 S
N1081 H1085 0.985 . S
H1082 N1077 0.984 . S
H1083 N1077 0.985 . S
H1084 N1081 0.984 1_554 S
H1085 N1081 0.985 . S
H1086 N1080 0.984 . S
H1087 N1080 0.984 1_556 S
H1088 N1076 0.984 . S
H1089 N1076 0.985 . S
C1090 C1091 1.363 . S
C1090 C1096 1.379 1_554 S
C1090 N1098 1.356 . S
C1091 C1090 1.363 . S
C1091 C1097 1.363 . S
C1092 C1093 1.363 . S
C1092 C1097 1.379 1_556 S
C1092 N1099 1.356 . S
C1093 C1092 1.363 . S
C1093 C1096 1.363 . S
N1094 C1096 1.356 . S
N1094 H1106 0.984 . S
N1094 H1107 0.985 . S
N1095 C1097 1.356 . S
N1095 H1100 0.984 . S
N1095 H1101 0.985 . S
C1096 C1090 1.379 1_556 S
C1096 C1093 1.363 . S
C1096 N1094 1.356 . S
C1097 C1091 1.363 . S
C1097 C1092 1.379 1_554 S
C1097 N1095 1.356 . S
N1098 C1090 1.356 . S
N1098 H1104 0.984 . S
N1098 H1105 0.984 . S
N1099 C1092 1.356 . S
N1099 H1102 0.984 . S
N1099 H1103 0.985 . S
H1100 N1095 0.984 . S
H1101 N1095 0.985 . S
H1102 N1099 0.984 . S
H1103 N1099 0.985 . S
H1104 N1098 0.984 . S
H1105 N1098 0.984 . S
H1106 N1094 0.984 . S
H1107 N1094 0.985 . S
C1108 C1109 1.363 . S
C1108 C1114 1.379 1_554 S
C1108 N1116 1.356 . S
C1109 C1108 1.363 . S
C1109 C1115 1.363 . S
C1110 C1111 1.363 . S
C1110 C1115 1.379 1_556 S
C1110 N1117 1.356 . S
C1111 C1110 1.363 . S
C1111 C1114 1.363 . S
N1112 C1114 1.356 . S
N1112 H1124 0.984 . S
N1112 H1125 0.985 . S
N1113 C1115 1.356 . S
N1113 H1118 0.984 . S
N1113 H1119 0.985 . S
C1114 C1108 1.379 1_556 S
C1114 C1111 1.363 . S
C1114 N1112 1.356 . S
C1115 C1109 1.363 . S
C1115 C1110 1.379 1_554 S
C1115 N1113 1.356 . S
N1116 C1108 1.356 . S
N1116 H1122 0.984 . S
N1116 H1123 0.984 . S
N1117 C1110 1.356 . S
N1117 H1120 0.984 . S
N1117 H1121 0.985 . S
H1118 N1113 0.984 . S
H1119 N1113 0.985 . S
H1120 N1117 0.984 . S
H1121 N1117 0.985 . S
H1122 N1116 0.984 . S
H1123 N1116 0.984 . S
H1124 N1112 0.984 . S
H1125 N1112 0.985 . S
C1126 C1127 1.363 1_556 S
C1126 C1132 1.379 . S
C1126 N1134 1.356 . S
C1127 C1126 1.363 1_554 S
C1127 C1133 1.363 . S
C1128 C1129 1.363 1_554 S
C1128 C1133 1.379 . S
C1128 N1135 1.356 . S
C1129 C1128 1.363 1_556 S
C1129 C1132 1.363 . S
N1130 C1132 1.356 . S
N1130 H1142 0.984 . S
N1130 H1143 0.985 . S
N1131 C1133 1.356 . S
N1131 H1136 0.984 . S
N1131 H1137 0.985 . S
C1132 C1126 1.379 . S
C1132 C1129 1.363 . S
C1132 N1130 1.356 . S
C1133 C1127 1.363 . S
C1133 C1128 1.379 . S
C1133 N1131 1.356 . S
N1134 C1126 1.356 . S
N1134 H1140 0.984 . S
N1134 H1141 0.984 1_556 S
N1135 C1128 1.356 . S
N1135 H1138 0.984 1_554 S
N1135 H1139 0.985 . S
H1136 N1131 0.984 . S
H1137 N1131 0.985 . S
H1138 N1135 0.984 1_556 S
H1139 N1135 0.985 . S
H1140 N1134 0.984 . S
H1141 N1134 0.984 1_554 S
H1142 N1130 0.984 . S
H1143 N1130 0.985 . S
C1144 C1145 1.363 . S
C1144 C1150 1.379 . S
C1144 N1152 1.356 . S
C1145 C1144 1.363 . S
C1145 C1151 1.363 . S
C1146 C1147 1.363 . S
C1146 C1151 1.379 . S
C1146 N1153 1.356 . S
C1147 C1146 1.363 . S
C1147 C1150 1.363 . S
N1148 C1150 1.356 . S
N1148 H1160 0.984 . S
N1148 H1161 0.985 . S
N1149 C1151 1.356 . S
N1149 H1154 0.984 . S
N1149 H1155 0.985 . S
C1150 C1144 1.379 . S
C1150 C1147 1.363 . S
C1150 N1148 1.356 . S
C1151 C1145 1.363 . S
C1151 C1146 1.379 . S
C1151 N1149 1.356 . S
N1152 C1144 1.356 . S
N1152 H1158 0.984 . S
N1152 H1159 0.984 . S
N1153 C1146 1.356 . S
N1153 H1156 0.984 . S
N1153 H1157 0.985 . S
H1154 N1149 0.984 . S
H1155 N1149 0.985 . S
H1156 N1153 0.984 . S
H1157 N1153 0.985 . S
H1158 N1152 0.984 . S
H1159 N1152 0.984 . S
H1160 N1148 0.984 . S
H1161 N1148 0.985 . S
C1162 C1163 1.363 . S
C1162 C1168 1.379 . S
C1162 N1170 1.356 . S
C1163 C1162 1.363 . S
C1163 C1169 1.363 . S
C1164 C1165 1.363 . S
C1164 C1169 1.379 . S
C1164 N1171 1.356 . S
C1165 C1164 1.363 . S
C1165 C1168 1.363 . S
N1166 C1168 1.356 . S
N1166 H1178 0.984 . S
N1166 H1179 0.985 . S
N1167 C1169 1.356 . S
N1167 H1172 0.984 . S
N1167 H1173 0.985 . S
C1168 C1162 1.379 . S
C1168 C1165 1.363 . S
C1168 N1166 1.356 . S
C1169 C1163 1.363 . S
C1169 C1164 1.379 . S
C1169 N1167 1.356 . S
N1170 C1162 1.356 . S
N1170 H1176 0.984 . S
N1170 H1177 0.984 . S
N1171 C1164 1.356 . S
N1171 H1174 0.984 . S
N1171 H1175 0.985 . S
H1172 N1167 0.984 . S
H1173 N1167 0.985 . S
H1174 N1171 0.984 . S
H1175 N1171 0.985 . S
H1176 N1170 0.984 . S
H1177 N1170 0.984 . S
H1178 N1166 0.984 . S
H1179 N1166 0.985 . S
C1180 C1181 1.363 . S
C1180 C1186 1.379 . S
C1180 N1188 1.356 . S
C1181 C1180 1.363 . S
C1181 C1187 1.363 . S
C1182 C1183 1.363 . S
C1182 C1187 1.379 . S
C1182 N1189 1.356 . S
C1183 C1182 1.363 . S
C1183 C1186 1.363 . S
N1184 C1186 1.356 . S
N1184 H1196 0.984 . S
N1184 H1197 0.985 . S
N1185 C1187 1.356 . S
N1185 H1190 0.984 . S
N1185 H1191 0.985 . S
C1186 C1180 1.379 . S
C1186 C1183 1.363 . S
C1186 N1184 1.356 . S
C1187 C1181 1.363 . S
C1187 C1182 1.379 . S
C1187 N1185 1.356 . S
N1188 C1180 1.356 . S
N1188 H1194 0.984 . S
N1188 H1195 0.984 . S
N1189 C1182 1.356 . S
N1189 H1192 0.984 . S
N1189 H1193 0.985 . S
H1190 N1185 0.984 . S
H1191 N1185 0.985 . S
H1192 N1189 0.984 . S
H1193 N1189 0.985 . S
H1194 N1188 0.984 . S
H1195 N1188 0.984 . S
H1196 N1184 0.984 . S
H1197 N1184 0.985 . S
C1198 C1199 1.363 . S
C1198 C1204 1.379 . S
C1198 N1206 1.356 . S
C1199 C1198 1.363 . S
C1199 C1205 1.363 . S
C1200 C1201 1.363 . S
C1200 C1205 1.379 . S
C1200 N1207 1.356 . S
C1201 C1200 1.363 . S
C1201 C1204 1.363 . S
N1202 C1204 1.356 . S
N1202 H1214 0.984 . S
N1202 H1215 0.985 . S
N1203 C1205 1.356 . S
N1203 H1208 0.984 . S
N1203 H1209 0.985 . S
C1204 C1198 1.379 . S
C1204 C1201 1.363 . S
C1204 N1202 1.356 . S
C1205 C1199 1.363 . S
C1205 C1200 1.379 . S
C1205 N1203 1.356 . S
N1206 C1198 1.356 . S
N1206 H1212 0.984 . S
N1206 H1213 0.984 . S
N1207 C1200 1.356 . S
N1207 H1210 0.984 . S
N1207 H1211 0.985 . S
H1208 N1203 0.984 . S
H1209 N1203 0.985 . S
H1210 N1207 0.984 . S
H1211 N1207 0.985 . S
H1212 N1206 0.984 . S
H1213 N1206 0.984 . S
H1214 N1202 0.984 . S
H1215 N1202 0.985 . S
C353 C5 1.380 . S
C355 C115 1.380 . S
C371 C29 1.380 . S
C373 C139 1.380 . S
C389 C163 1.380 . S
C391 C53 1.380 . S
C407 C94 1.380 . S
C409 C72 1.380 . S
C425 C291 1.380 . S
C427 C181 1.380 . S
C443 C205 1.380 . S
C445 C315 1.380 . S
C461 C339 1.380 . S
C463 C229 1.380 . S
C479 C270 1.380 . S
C481 C248 1.380 . S
C497 C8 1.460 . S
C499 C27 1.343 1_554 S
C515 C50 1.343 1_556 S
C517 C26 1.460 . S
C533 C75 1.343 1_554 S
C535 C48 1.460 . S
C551 C74 1.460 . S
C553 C7 1.343 1_556 S
C569 C96 1.460 . S
C571 C160 1.343 . S
C587 C97 1.343 . S
C589 C118 1.460 . S
C605 C117 1.343 . S
C607 C136 1.460 . S
C623 C137 1.343 . S
C625 C158 1.460 . S
C641 C184 1.460 . S
C643 C203 1.343 . S
C659 C226 1.343 . S
C661 C202 1.460 . S
C677 C224 1.460 . S
C679 C251 1.343 . S
C695 C250 1.460 . S
C697 C183 1.343 . S
C713 C336 1.343 1_554 S
C715 C272 1.460 . S
C731 C273 1.343 1_556 S
C733 C294 1.460 . S
C749 C293 1.343 1_554 S
C751 C312 1.460 . S
C767 C334 1.460 . S
C769 C313 1.343 1_556 S
C785 C140 1.489 . S
C787 C9 1.560 . S
C803 C162 1.489 . S
C805 C28 1.560 . S
C821 C49 1.560 . S
C823 C92 1.489 . S
C839 C73 1.560 . S
C841 C114 1.489 . S
C857 C52 1.489 . S
C859 C95 1.560 . S
C875 C119 1.560 . S
C877 C70 1.489 . S
C893 C138 1.560 . S
C895 C4 1.489 . S
C911 C30 1.489 . S
C913 C159 1.560 . S
C929 C185 1.560 . S
C931 C316 1.489 . S
C947 C204 1.560 . S
C949 C338 1.489 . S
C965 C268 1.489 . S
C967 C225 1.560 . S
C983 C249 1.560 . S
C985 C290 1.489 . S
C1001 C271 1.560 . S
C1003 C228 1.489 . S
C1019 C295 1.560 . S
C1021 C246 1.489 . S
C1037 C314 1.560 . S
C1039 C180 1.489 . S
C1055 C206 1.489 . S
C1057 C335 1.560 . S
C1073 C337 1.625 . S
C1075 C6 1.625 . S
C1091 C269 1.625 . S
C1093 C31 1.625 . S
C1109 C51 1.625 . S
C1111 C292 1.625 . S
C1127 C317 1.625 . S
C1129 C71 1.625 . S
C1145 C93 1.625 . S
C1147 C207 1.625 . S
C1163 C116 1.625 . S
C1165 C227 1.625 . S
C1181 C247 1.625 . S
C1183 C141 1.625 . S
C1199 C161 1.625 . S
C1201 C182 1.625 . S
