# Generated by pormake.
# Topology afw, (4)-cn, num edge types: 1
# Building blocks:
#     Node 0, Type 0, BuildingBlock: QUQFOY_clean_sbu_1, # of connection points: 4
#     Node 1, Type 0, BuildingBlock: QUQFOY_clean_sbu_1, # of connection points: 4
#     Node 2, Type 0, BuildingBlock: QUQFOY_clean_sbu_1, # of connection points: 4
#     Node 3, Type 0, BuildingBlock: QUQFOY_clean_sbu_1, # of connection points: 4
#     Node 4, Type 0, BuildingBlock: QUQFOY_clean_sbu_1, # of connection points: 4
#     Node 5, Type 0, BuildingBlock: QUQFOY_clean_sbu_1, # of connection points: 4
#     Node 6, Type 0, BuildingBlock: QUQFOY_clean_sbu_1, # of connection points: 4
#     Node 7, Type 0, BuildingBlock: QUQFOY_clean_sbu_1, # of connection points: 4
#     Node 8, Type 0, BuildingBlock: QUQFOY_clean_sbu_1, # of connection points: 4
#     Edge 9, Type (0, 0), BuildingBlock: XUDNAN_clean_linker_2, # of connection points: 2
#     Edge 10, Type (0, 0), BuildingBlock: XUDNAN_clean_linker_2, # of connection points: 2
#     Edge 11, Type (0, 0), BuildingBlock: XUDNAN_clean_linker_2, # of connection points: 2
#     Edge 12, Type (0, 0), BuildingBlock: XUDNAN_clean_linker_2, # of connection points: 2
#     Edge 13, Type (0, 0), BuildingBlock: XUDNAN_clean_linker_2, # of connection points: 2
#     Edge 14, Type (0, 0), BuildingBlock: XUDNAN_clean_linker_2, # of connection points: 2
#     Edge 15, Type (0, 0), BuildingBlock: XUDNAN_clean_linker_2, # of connection points: 2
#     Edge 16, Type (0, 0), BuildingBlock: XUDNAN_clean_linker_2, # of connection points: 2
#     Edge 17, Type (0, 0), BuildingBlock: XUDNAN_clean_linker_2, # of connection points: 2
#     Edge 18, Type (0, 0), BuildingBlock: XUDNAN_clean_linker_2, # of connection points: 2
#     Edge 19, Type (0, 0), BuildingBlock: XUDNAN_clean_linker_2, # of connection points: 2
#     Edge 20, Type (0, 0), BuildingBlock: XUDNAN_clean_linker_2, # of connection points: 2
#     Edge 21, Type (0, 0), BuildingBlock: XUDNAN_clean_linker_2, # of connection points: 2
#     Edge 22, Type (0, 0), BuildingBlock: XUDNAN_clean_linker_2, # of connection points: 2
#     Edge 23, Type (0, 0), BuildingBlock: XUDNAN_clean_linker_2, # of connection points: 2
#     Edge 24, Type (0, 0), BuildingBlock: XUDNAN_clean_linker_2, # of connection points: 2
#     Edge 25, Type (0, 0), BuildingBlock: XUDNAN_clean_linker_2, # of connection points: 2
#     Edge 26, Type (0, 0), BuildingBlock: XUDNAN_clean_linker_2, # of connection points: 2
# Relax obj value: 0.125
# Max RMSD: 0.152
# Mean RMSD: 0.152
data_MOF--net-afw--node1-QUQFOY_clean_sbu_1--edge1-XUDNAN_clean_linker_2
_symmetry_space_group_name_H-M    P1
_symmetry_Int_Tables_number       1
_symmetry_cell_setting            triclinic
loop_
_symmetry_equiv_pos_as_xyz
'x, y, z'
_cell_length_a     42.673681
_cell_length_b     42.666108
_cell_length_c     37.33807
_cell_angle_alpha  90.027432
_cell_angle_beta   89.922083
_cell_angle_gamma 119.99618
loop_
_atom_site_label
_atom_site_type_symbol
_atom_site_fract_x
_atom_site_fract_y
_atom_site_fract_z
_atom_type_partial_charge
O0 O 0.06798 0.21334 0.99243 0.0
Cd1 Cd 0.02049 0.21439 0.98647 0.0
Cd2 Cd 0.02526 0.21798 0.06215 0.0
O3 O 0.07277 0.21766 0.05138 0.0
O4 O 0.01694 0.21991 0.93378 0.0
O5 O 0.02329 0.26163 0.97277 0.0
C6 C 0.0205 0.25123 0.93986 0.0
C7 C 0.02416 0.25547 0.1075 0.0
C8 C 0.08474 0.21479 0.02106 0.0
C9 C 0.96134 0.15282 0.02887 0.0
O10 O 0.97811 0.16906 0.05718 0.0
O11 O 0.9732 0.16672 0.99821 0.0
O12 O 0.02853 0.22838 0.11458 0.0
O13 O 0.0214 0.2622 0.07429 0.0
O14 O 0.88085 0.8335 0.05276 0.0
Cd15 Cd 0.83124 0.82871 0.06491 0.0
Cd16 Cd 0.82725 0.82931 0.99226 0.0
O17 O 0.87356 0.82559 0.99433 0.0
O18 O 0.82568 0.82006 0.11764 0.0
O19 O 0.78891 0.77976 0.07832 0.0
C20 C 0.79808 0.78872 0.11131 0.0
C21 C 0.77726 0.78885 0.95856 0.0
C22 C 0.8924 0.83037 0.0223 0.0
C23 C 0.83161 0.89279 0.03084 0.0
O24 O 0.83383 0.88008 1.00076 0.0
O25 O 0.82756 0.87498 0.05943 0.0
O26 O 0.80607 0.81409 0.94345 0.0
O27 O 0.77724 0.78597 0.99304 0.0
O28 O 0.17007 0.97686 0.99446 0.0
Cd29 Cd 0.2202 0.02308 0.98975 0.0
Cd30 Cd 0.21136 0.02149 0.06469 0.0
O31 O 0.16525 0.97299 0.0534 0.0
O32 O 0.2305 0.02483 0.93737 0.0
O33 O 0.26371 0.01756 0.97813 0.0
C34 C 0.25723 0.02006 0.94481 0.0
C35 C 0.24907 0.02502 0.11188 0.0
C36 C 0.15257 0.96059 0.02252 0.0
C37 C 0.21427 0.08409 0.02496 0.0
O38 O 0.20817 0.0673 0.05456 0.0
O39 O 0.22187 0.07208 0.99704 0.0
O40 O 0.21738 0.02074 0.11762 0.0
O41 O 0.25937 0.02668 0.07904 0.0
O42 O 0.64114 0.49865 0.38659 0.0
Cd43 Cd 0.68792 0.54769 0.39513 0.0
Cd44 Cd 0.68837 0.54374 0.32135 0.0
O45 O 0.63903 0.4972 0.32747 0.0
O46 O 0.68755 0.55357 0.44821 0.0
O47 O 0.68309 0.5908 0.41034 0.0
C48 C 0.68383 0.58132 0.44302 0.0
C49 C 0.69675 0.59315 0.2875 0.0
C50 C 0.62552 0.48296 0.35761 0.0
C51 C 0.74917 0.54263 0.35938 0.0
O52 O 0.73298 0.53825 0.32971 0.0
O53 O 0.73686 0.54909 0.38778 0.0
O54 O 0.69261 0.56409 0.27237 0.0
O55 O 0.69469 0.59351 0.32207 0.0
O56 O 0.54415 0.16495 0.38708 0.0
Cd57 Cd 0.49402 0.15982 0.39718 0.0
Cd58 Cd 0.49163 0.1589 0.32463 0.0
O59 O 0.5376 0.15464 0.3289 0.0
O60 O 0.4867 0.15147 0.44987 0.0
O61 O 0.45157 0.11074 0.41002 0.0
C62 C 0.45956 0.11993 0.44315 0.0
C63 C 0.44179 0.11831 0.29071 0.0
C64 C 0.55612 0.16063 0.35735 0.0
C65 C 0.49528 0.22319 0.36072 0.0
O66 O 0.49868 0.21008 0.33137 0.0
O67 O 0.49003 0.20572 0.38978 0.0
O68 O 0.4711 0.14282 0.27565 0.0
O69 O 0.44124 0.11608 0.32527 0.0
O70 O 0.87807 0.39621 0.38836 0.0
Cd71 Cd 0.8797 0.34916 0.3949 0.0
Cd72 Cd 0.88109 0.35131 0.32202 0.0
O73 O 0.88078 0.39937 0.32929 0.0
O74 O 0.89823 0.35106 0.44457 0.0
O75 O 0.92823 0.3525 0.39565 0.0
C76 C 0.92713 0.35411 0.43015 0.0
C77 C 0.92413 0.34737 0.28646 0.0
C78 C 0.87876 0.41222 0.35942 0.0
C79 C 0.81651 0.28843 0.35746 0.0
O80 O 0.83218 0.30428 0.32854 0.0
O81 O 0.83123 0.30124 0.38764 0.0
O82 O 0.89796 0.34994 0.27225 0.0
O83 O 0.92656 0.3484 0.32097 0.0
O84 O 0.39873 0.87589 0.66252 0.0
Cd85 Cd 0.35215 0.87848 0.65623 0.0
Cd86 Cd 0.35422 0.87903 0.72917 0.0
O87 O 0.40192 0.87811 0.72159 0.0
O88 O 0.35426 0.89705 0.60653 0.0
O89 O 0.35633 0.92742 0.65536 0.0
C90 C 0.35776 0.92617 0.62085 0.0
C91 C 0.35073 0.92186 0.76542 0.0
C92 C 0.41463 0.87609 0.69135 0.0
C93 C 0.29075 0.81548 0.69339 0.0
O94 O 0.30679 0.83061 0.72238 0.0
O95 O 0.30372 0.83047 0.66332 0.0
O96 O 0.3529 0.89528 0.7792 0.0
O97 O 0.352 0.92487 0.73094 0.0
O98 O 0.2033 0.49199 0.71934 0.0
Cd99 Cd 0.15307 0.48794 0.72254 0.0
Cd100 Cd 0.16188 0.4954 0.65025 0.0
O101 O 0.20849 0.49364 0.66051 0.0
O102 O 0.13592 0.46927 0.77197 0.0
O103 O 0.10863 0.4384 0.72314 0.0
C104 C 0.11074 0.43994 0.75769 0.0
C105 C 0.12238 0.459 0.60526 0.0
C106 C 0.22104 0.49362 0.69135 0.0
C107 C 0.1593 0.55533 0.68995 0.0
O108 O 0.1649 0.54439 0.66024 0.0
O109 O 0.15186 0.53576 0.71789 0.0
O110 O 0.15357 0.48645 0.59779 0.0
O111 O 0.11352 0.45176 0.63859 0.0
O112 O 0.49436 0.6373 0.6682 0.0
Cd113 Cd 0.54531 0.68162 0.66047 0.0
Cd114 Cd 0.54447 0.68441 0.73357 0.0
O115 O 0.49855 0.63453 0.72683 0.0
O116 O 0.5606 0.67682 0.61114 0.0
O117 O 0.58863 0.67481 0.66016 0.0
C118 C 0.58581 0.67284 0.62564 0.0
C119 C 0.58355 0.691 0.78067 0.0
C120 C 0.48117 0.62159 0.69788 0.0
C121 C 0.54347 0.74483 0.69225 0.0
O122 O 0.53946 0.72919 0.72227 0.0
O123 O 0.54914 0.73171 0.664 0.0
O124 O 0.55186 0.68662 0.78645 0.0
O125 O 0.59329 0.69136 0.74784 0.0
H126 H 0.18415 0.10835 0.07491 0.0
H127 H 0.22874 0.12916 0.96732 0.0
H128 H 0.20863 0.17364 0.95836 0.0
H129 H 0.10615 0.10669 0.05374 0.0
H130 H 0.10262 0.12821 0.09389 0.0
H131 H 0.12689 0.10388 0.09475 0.0
H132 H 0.18397 0.16096 0.11836 0.0
H133 H 0.15973 0.18552 0.11778 0.0
H134 H 0.20195 0.2029 0.09393 0.0
H135 H 0.17432 0.20683 0.957 0.0
H136 H 0.12969 0.22717 0.96398 0.0
H137 H 0.10828 0.18609 0.07278 0.0
C138 C 0.19087 0.12319 0.04991 0.0
C139 C 0.20823 0.11535 0.02189 0.0
C140 C 0.21566 0.13477 0.98927 0.0
C141 C 0.20442 0.16021 0.98396 0.0
C142 C 0.1861 0.16624 1.01163 0.0
C143 C 0.17974 0.14859 0.04415 0.0
C144 C 0.15592 0.15674 0.068 0.0
C145 C 0.12084 0.12181 0.07816 0.0
C146 C 0.17664 0.17779 0.1015 0.0
C147 C 0.14844 0.18032 0.04318 0.0
C148 C 0.16654 0.18592 1.01098 0.0
C149 C 0.16075 0.20344 0.98241 0.0
C150 C 0.13527 0.21481 0.98657 0.0
C151 C 0.11591 0.20867 0.01908 0.0
C152 C 0.12342 0.19209 0.04799 0.0
H153 H 0.86031 0.94574 0.9795 0.0
H154 H 0.81898 0.92484 0.08833 0.0
H155 H 0.83914 0.98961 0.0959 0.0
H156 H 0.93885 0.02251 0.99815 0.0
H157 H 0.94142 0.04661 0.9576 0.0
H158 H 0.91705 0.99801 0.95785 0.0
H159 H 0.85947 0.9976 0.93525 0.0
H160 H 0.88379 0.0464 0.93474 0.0
H161 H 0.84217 0.0222 0.95966 0.0
H162 H 0.87301 0.05695 0.09553 0.0
H163 H 0.91753 0.12168 0.08696 0.0
H164 H 0.93656 0.0994 0.9782 0.0
C165 C 0.85428 0.95454 1.00447 0.0
C166 C 0.83782 0.93014 0.03324 0.0
C167 C 0.83137 0.94297 0.06585 0.0
C168 C 0.8426 0.97973 0.07036 0.0
C169 C 0.86002 1.00332 0.04194 0.0
C170 C 0.86553 0.9912 1.00947 0.0
C171 C 0.88879 0.02257 0.98477 0.0
C172 C 0.92357 0.0224 0.97399 0.0
C173 C 0.86726 0.02216 0.95164 0.0
C174 C 0.89694 0.05423 1.00902 0.0
C175 C 0.87958 0.04254 0.04166 0.0
C176 C 0.88603 0.06651 0.06979 0.0
C177 C 0.91146 0.10321 0.06472 0.0
C178 C 0.93017 0.11562 0.03178 0.0
C179 C 0.92196 0.09088 1.00333 0.0
H180 H 0.94575 0.85708 0.07314 0.0
H181 H 0.92408 0.81997 0.96294 0.0
H182 H 0.98887 0.8407 0.95414 0.0
H183 H 0.02208 0.93646 0.05611 0.0
H184 H 0.04646 0.93752 0.09591 0.0
H185 H 0.99788 0.91299 0.09601 0.0
H186 H 0.99784 0.85466 0.11539 0.0
H187 H 0.04663 0.87915 0.11556 0.0
H188 H 0.02244 0.83854 0.08919 0.0
H189 H 0.05647 0.87478 0.9541 0.0
H190 H 0.12121 0.91897 0.96302 0.0
H191 H 0.09913 0.93366 0.07334 0.0
C192 C 0.95436 0.85208 0.04752 0.0
C193 C 0.92973 0.83666 0.0188 0.0
C194 C 0.94236 0.83153 0.98542 0.0
C195 C 0.97914 0.84312 0.98019 0.0
C196 C 1.00294 0.85953 1.00867 0.0
C197 C 0.99099 0.86368 0.04183 0.0
C198 C 0.02245 0.88603 0.06669 0.0
C199 C 0.02219 0.92027 0.07939 0.0
C200 C 0.02233 0.86322 0.0986 0.0
C201 C 0.05397 0.89529 0.04183 0.0
C202 C 0.04218 0.87923 1.00868 0.0
C203 C 0.06608 0.88681 0.9802 0.0
C204 C 0.10282 0.91205 0.98548 0.0
C205 C 0.11532 0.92953 0.01897 0.0
C206 C 0.0906 0.92014 0.0477 0.0
H207 H 0.84901 0.43534 0.30826 0.0
H208 H 0.89351 0.45839 0.41566 0.0
H209 H 0.87364 0.50325 0.42327 0.0
H210 H 0.86565 0.52944 0.28688 0.0
H211 H 0.82312 0.51102 0.26352 0.0
H212 H 0.84789 0.48699 0.26341 0.0
H213 H 0.79148 0.43007 0.28839 0.0
H214 H 0.7667 0.45389 0.28884 0.0
H215 H 0.77103 0.43349 0.32941 0.0
H216 H 0.84007 0.53701 0.42339 0.0
H217 H 0.79525 0.55694 0.41601 0.0
H218 H 0.77185 0.51185 0.30868 0.0
C219 C 0.8559 0.45095 0.33279 0.0
C220 C 0.87317 0.44372 0.36122 0.0
C221 C 0.88053 0.46371 0.39344 0.0
C222 C 0.86947 0.48935 0.39796 0.0
C223 C 0.85115 0.4948 0.36997 0.0
C224 C 0.84464 0.47637 0.33786 0.0
C225 C 0.82026 0.48355 0.31392 0.0
C226 C 0.84045 0.50398 0.27992 0.0
C227 C 0.78531 0.44815 0.30463 0.0
C228 C 0.81267 0.50743 0.33825 0.0
C229 C 0.83132 0.51419 0.37017 0.0
C230 C 0.82595 0.53261 0.39821 0.0
C231 C 0.80032 0.54373 0.39381 0.0
C232 C 0.78019 0.53621 0.36168 0.0
C233 C 0.78729 0.51867 0.33329 0.0
H234 H 0.52703 0.2758 0.30937 0.0
H235 H 0.47938 0.25559 0.41556 0.0
H236 H 0.499 0.32039 0.42166 0.0
H237 H 0.60432 0.35276 0.33077 0.0
H238 H 0.60932 0.37658 0.28939 0.0
H239 H 0.58495 0.32798 0.28995 0.0
H240 H 0.52886 0.3274 0.26267 0.0
H241 H 0.5532 0.37619 0.26187 0.0
H242 H 0.51015 0.35212 0.28445 0.0
H243 H 0.53279 0.38766 0.42088 0.0
H244 H 0.57801 0.45229 0.41312 0.0
H245 H 0.6035 0.4295 0.30721 0.0
C246 C 0.51953 0.28477 0.33336 0.0
C247 C 0.50141 0.26055 0.36188 0.0
C248 C 0.49307 0.27358 0.39328 0.0
C249 C 0.50397 0.31035 0.39693 0.0
C250 C 0.523 0.33376 0.36886 0.0
C251 C 0.53045 0.32145 0.33751 0.0
C252 C 0.55517 0.35269 0.31331 0.0
C253 C 0.59051 0.35248 0.30542 0.0
C254 C 0.53567 0.35205 0.27851 0.0
C255 C 0.56187 0.38449 0.33667 0.0
C256 C 0.54255 0.37297 0.36834 0.0
C257 C 0.54735 0.39708 0.39584 0.0
C258 C 0.57317 0.43373 0.39124 0.0
C259 C 0.5939 0.44596 0.35939 0.0
C260 C 0.58732 0.42111 0.33141 0.0
H261 H 0.60958 0.19135 0.40796 0.0
H262 H 0.5877 0.14566 0.3009 0.0
H263 H 0.65234 0.16509 0.29347 0.0
H264 H 0.6869 0.26887 0.38678 0.0
H265 H 0.71099 0.27272 0.42767 0.0
H266 H 0.66239 0.24887 0.42761 0.0
H267 H 0.66125 0.19184 0.45312 0.0
H268 H 0.71004 0.21565 0.4534 0.0
H269 H 0.68533 0.17312 0.4301 0.0
H270 H 0.71976 0.19819 0.29358 0.0
H271 H 0.7847 0.24227 0.30126 0.0
H272 H 0.76337 0.26629 0.40843 0.0
C273 C 0.61813 0.18426 0.38343 0.0
C274 C 0.59346 0.1667 0.35511 0.0
C275 C 0.606 0.15888 0.32306 0.0
C276 C 0.64269 0.1697 0.31864 0.0
C277 C 0.66652 0.18812 0.34659 0.0
C278 C 0.65471 0.19508 0.37852 0.0
C279 C 0.68629 0.21903 0.40268 0.0
C280 C 0.68665 0.25446 0.41168 0.0
C281 C 0.68569 0.19868 0.43685 0.0
C282 C 0.71776 0.22584 0.3787 0.0
C283 C 0.70575 0.20726 0.34671 0.0
C284 C 0.72953 0.21219 0.31883 0.0
C285 C 0.76637 0.23736 0.3234 0.0
C286 C 0.77914 0.25736 0.3556 0.0
C287 C 0.75457 0.25068 0.38392 0.0
H288 H 0.43802 0.84669 0.74266 0.0
H289 H 0.45991 0.88947 0.6345 0.0
H290 H 0.50426 0.86898 0.62679 0.0
H291 H 0.53212 0.8631 0.76307 0.0
H292 H 0.51383 0.82096 0.78718 0.0
H293 H 0.49001 0.84594 0.7871 0.0
H294 H 0.43261 0.78927 0.76335 0.0
H295 H 0.45621 0.76427 0.76312 0.0
H296 H 0.43536 0.76803 0.72263 0.0
H297 H 0.53762 0.83495 0.62687 0.0
H298 H 0.5573 0.78997 0.6348 0.0
H299 H 0.51376 0.76878 0.74281 0.0
C300 C 0.45325 0.85304 0.71791 0.0
C301 C 0.44582 0.87002 0.68932 0.0
C302 C 0.46535 0.87672 0.65684 0.0
C303 C 0.49072 0.8653 0.65226 0.0
C304 C 0.49637 0.8473 0.68044 0.0
C305 C 0.47841 0.84146 0.71278 0.0
C306 C 0.48575 0.81737 0.73702 0.0
C307 C 0.50668 0.83809 0.77058 0.0
C308 C 0.45039 0.7827 0.74709 0.0
C309 C 0.50919 0.80921 0.71264 0.0
C310 C 0.51558 0.82729 0.68039 0.0
C311 C 0.53351 0.82128 0.6523 0.0
C312 C 0.54449 0.79557 0.65702 0.0
C313 C 0.53734 0.77601 0.68951 0.0
C314 C 0.52032 0.78377 0.71792 0.0
H315 H 0.26732 0.76312 0.64162 0.0
H316 H 0.24468 0.7835 0.74971 0.0
H317 H 0.19964 0.71872 0.75669 0.0
H318 H 0.17317 0.68634 0.61991 0.0
H319 H 0.19137 0.66232 0.5959 0.0
H320 H 0.21564 0.71112 0.59645 0.0
H321 H 0.27236 0.71091 0.62082 0.0
H322 H 0.2483 0.66231 0.62057 0.0
H323 H 0.26878 0.68643 0.6614 0.0
H324 H 0.16536 0.65124 0.75585 0.0
H325 H 0.145 0.58648 0.74735 0.0
H326 H 0.19016 0.60949 0.63999 0.0
C327 C 0.25178 0.75418 0.66619 0.0
C328 C 0.25916 0.7784 0.69496 0.0
C329 C 0.23925 0.76544 0.72722 0.0
C330 C 0.2135 0.7287 0.73139 0.0
C331 C 0.20789 0.70521 0.70303 0.0
C332 C 0.22627 0.71747 0.67092 0.0
C333 C 0.2189 0.68615 0.64646 0.0
C334 C 0.19855 0.68651 0.61268 0.0
C335 C 0.25417 0.68648 0.63678 0.0
C336 C 0.19489 0.65443 0.67044 0.0
C337 C 0.18827 0.66597 0.70268 0.0
C338 C 0.16969 0.64181 0.73041 0.0
C339 C 0.15829 0.60504 0.72537 0.0
C340 C 0.16573 0.59277 0.69292 0.0
C341 C 0.1834 0.61781 0.66485 0.0
H342 H 0.27565 0.52308 0.6419 0.0
H343 H 0.25083 0.47986 0.74987 0.0
H344 H 0.31524 0.49937 0.75948 0.0
H345 H 0.35248 0.50515 0.62405 0.0
H346 H 0.37766 0.54736 0.60029 0.0
H347 H 0.32888 0.52322 0.59919 0.0
H348 H 0.32878 0.58039 0.62249 0.0
H349 H 0.37735 0.60456 0.62384 0.0
H350 H 0.35191 0.60111 0.66368 0.0
H351 H 0.38265 0.53201 0.76092 0.0
H352 H 0.44773 0.576 0.75446 0.0
H353 H 0.42918 0.59876 0.64572 0.0
C354 C 0.28354 0.51647 0.66708 0.0
C355 C 0.25816 0.49958 0.69501 0.0
C356 C 0.26977 0.49253 0.72801 0.0
C357 C 0.30629 0.50339 0.73366 0.0
C358 C 0.33088 0.52118 0.70602 0.0
C359 C 0.31996 0.5275 0.67327 0.0
C360 C 0.3522 0.55126 0.64971 0.0
C361 C 0.35284 0.53049 0.61633 0.0
C362 C 0.35257 0.58639 0.63936 0.0
C363 C 0.38294 0.55865 0.6749 0.0
C364 C 0.37008 0.54048 0.70698 0.0
C365 C 0.39309 0.54577 0.73565 0.0
C366 C 0.43005 0.57092 0.73176 0.0
C367 C 0.44364 0.59067 0.6995 0.0
C368 C 0.4198 0.58357 0.67045 0.0
H369 H 0.05575 0.32544 0.93822 0.0
H370 H 0.99302 0.23014 0.87274 0.0
H371 H 1.00334 0.26901 0.81997 0.0
H372 H 0.03011 0.38651 0.89139 0.0
H373 H 0.07513 0.42491 0.89532 0.0
H374 H 0.05808 0.39 0.92905 0.0
H375 H 0.11346 0.38141 0.91933 0.0
H376 H 0.13058 0.41613 0.88558 0.0
H377 H 0.12315 0.3717 0.87501 0.0
H378 H 0.02525 0.31763 0.77321 0.0
H379 H 0.05923 0.37214 0.73564 0.0
H380 H 0.10951 0.43578 0.83101 0.0
C381 C 0.04331 0.31287 0.913 0.0
C382 C 0.02318 0.27482 0.90962 0.0
C383 C 0.00832 0.25926 0.87593 0.0
C384 C 0.01393 0.28112 0.84584 0.0
C385 C 0.03464 0.31854 0.84979 0.0
C386 C 0.04914 0.33433 0.88252 0.0
C387 C 0.0735 0.37491 0.87875 0.0
C388 C 0.05828 0.39528 0.89988 0.0
C389 C 0.11247 0.38671 0.89034 0.0
C390 C 0.07113 0.37929 0.83872 0.0
C391 C 0.0481 0.34656 0.8226 0.0
C392 C 0.04301 0.34351 0.78559 0.0
C393 C 0.06244 0.37463 0.76445 0.0
C394 C 0.08695 0.40827 0.78033 0.0
C395 C 0.09075 0.41057 0.81804 0.0
H396 H 0.77095 0.78598 0.88538 0.0
H397 H 0.70964 0.73951 0.98296 0.0
H398 H 0.65399 0.70513 0.94716 0.0
H399 H 0.70628 0.79894 0.84155 0.0
H400 H 0.71465 0.78734 0.79752 0.0
H401 H 0.75024 0.80539 0.83035 0.0
H402 H 0.75825 0.74942 0.8229 0.0
H403 H 0.72271 0.73121 0.78988 0.0
H404 H 0.71976 0.7047 0.82865 0.0
H405 H 0.60424 0.68164 0.90167 0.0
H406 H 0.56415 0.66813 0.84936 0.0
H407 H 0.65787 0.72768 0.78084 0.0
C408 C 0.74595 0.76807 0.89921 0.0
C409 C 0.74466 0.76539 0.93701 0.0
C410 C 0.71134 0.74187 0.95405 0.0
C411 C 0.67958 0.72223 0.93394 0.0
C412 C 0.68168 0.72607 0.89678 0.0
C413 C 0.71408 0.74808 0.87952 0.0
C414 C 0.70868 0.74878 0.83945 0.0
C415 C 0.72067 0.7874 0.82648 0.0
C416 C 0.72853 0.73255 0.81902 0.0
C417 C 0.66802 0.72453 0.83696 0.0
C418 C 0.65301 0.71164 0.87035 0.0
C419 C 0.61573 0.691 0.87532 0.0
C420 C 0.59319 0.68358 0.84548 0.0
C421 C 0.60796 0.69651 0.81104 0.0
C422 C 0.6459 0.71679 0.80672 0.0
H423 H 0.34405 0.9205 0.83869 0.0
H424 H 0.34157 0.9781 0.74389 0.0
H425 H 0.32368 0.01435 0.78118 0.0
H426 H 0.26721 0.91258 0.87901 0.0
H427 H 0.28388 0.91907 0.92431 0.0
H428 H 0.30095 0.90084 0.89112 0.0
H429 H 0.36643 0.95189 0.90432 0.0
H430 H 0.34954 0.97025 0.93774 0.0
H431 H 0.37742 0.99848 0.90162 0.0
H432 H 0.2983 0.03832 0.82692 0.0
H433 H 0.26958 0.05028 0.87854 0.0
H434 H 0.29057 0.9792 0.94453 0.0
C435 C 0.34058 0.94132 0.82586 0.0
C436 C 0.34435 0.94653 0.78833 0.0
C437 C 0.33904 0.97371 0.77257 0.0
C438 C 0.3289 0.99448 0.79355 0.0
C439 C 0.32457 0.98806 0.83033 0.0
C440 C 0.33061 0.96242 0.84645 0.0
C441 C 0.32175 0.95921 0.88612 0.0
C442 C 0.29166 0.92064 0.89568 0.0
C443 C 0.35582 0.97065 0.90879 0.0
C444 C 0.30866 0.9862 0.88956 0.0
C445 C 0.31072 1.00267 0.85705 0.0
C446 C 0.29728 0.02621 0.85266 0.0
C447 C 0.28093 0.03275 0.88209 0.0
C448 C 0.27838 0.01608 0.91558 0.0
C449 C 0.29305 0.99304 0.91948 0.0
H450 H 0.43588 0.11546 0.21747 0.0
H451 H 0.37373 0.06966 0.31474 0.0
H452 H 0.31814 0.03618 0.27866 0.0
H453 H 0.37263 0.13028 0.17353 0.0
H454 H 0.3808 0.11855 0.12948 0.0
H455 H 0.41623 0.13574 0.16246 0.0
H456 H 0.42271 0.07889 0.15481 0.0
H457 H 0.38733 0.06154 0.12164 0.0
H458 H 0.38355 0.03457 0.16029 0.0
H459 H 0.26859 0.01367 0.23286 0.0
H460 H 0.22894 1.0015 0.18041 0.0
H461 H 0.32333 0.05995 0.11247 0.0
C462 C 0.41071 0.09784 0.23118 0.0
C463 C 0.40919 0.09513 0.26898 0.0
C464 C 0.37563 0.07204 0.28585 0.0
C465 C 0.34389 0.0529 0.26556 0.0
C466 C 0.34623 0.05679 0.22841 0.0
C467 C 0.37884 0.07837 0.21133 0.0
C468 C 0.37371 0.07943 0.17125 0.0
C469 C 0.3866 0.11831 0.15845 0.0
C470 C 0.39297 0.0626 0.15079 0.0
C471 C 0.33297 0.05594 0.16855 0.0
C472 C 0.31766 0.04304 0.20183 0.0
C473 C 0.2803 0.02305 0.20659 0.0
C474 C 0.258 0.01638 0.17666 0.0
C475 C 0.27308 0.02942 0.14234 0.0
C476 C 0.31108 0.04896 0.13824 0.0
H477 H 0.98509 0.2906 0.10761 0.0
H478 H 0.05259 0.26547 0.17452 0.0
H479 H 0.03991 0.29332 0.22642 0.0
H480 H 1.00503 0.37683 0.15271 0.0
H481 H 0.95888 0.36689 0.14848 0.0
H482 H 0.97797 0.35051 0.11532 0.0
H483 H 0.92553 0.28504 0.1259 0.0
H484 H 0.90642 0.30115 0.15913 0.0
H485 H 0.91702 0.26646 0.17055 0.0
H486 H 0.01529 0.31816 0.27221 0.0
H487 H 0.97865 0.33595 0.30902 0.0
H488 H 0.92503 0.34284 0.21309 0.0
C489 C 0.99808 0.29205 0.13294 0.0
C490 C 0.02026 0.27641 0.137 0.0
C491 C 0.03577 0.2776 0.17082 0.0
C492 C 0.02881 0.29345 0.20042 0.0
C493 C 1.00608 0.30782 0.19583 0.0
C494 C 0.9909 0.30726 0.16295 0.0
C495 C 0.96435 0.32095 0.16613 0.0
C496 C 0.97734 0.35588 0.14437 0.0
C497 C 0.92608 0.29165 0.15476 0.0
C498 C 0.96626 0.32834 0.20602 0.0
C499 C 0.99097 0.32119 0.22254 0.0
C500 C 0.99618 0.32427 0.25951 0.0
C501 C 0.9752 0.33437 0.28022 0.0
C502 C 0.94902 0.34091 0.26399 0.0
C503 C 0.94503 0.33837 0.22631 0.0
H504 H 0.70161 0.59999 0.21428 0.0
H505 H 0.7143 0.66052 0.31191 0.0
H506 H 0.73676 0.71652 0.27641 0.0
H507 H 0.78054 0.66468 0.17237 0.0
H508 H 0.76195 0.65701 0.1278 0.0
H509 H 0.74315 0.62101 0.16024 0.0
H510 H 0.67967 0.61369 0.15097 0.0
H511 H 0.69825 0.6496 0.11829 0.0
H512 H 0.67369 0.65237 0.15632 0.0
H513 H 0.76473 0.76672 0.23154 0.0
H514 H 0.79311 0.80736 0.17986 0.0
H515 H 0.76007 0.71434 0.1107 0.0
C516 C 0.70839 0.62488 0.22816 0.0
C517 C 0.7061 0.62583 0.26593 0.0
C518 C 0.71563 0.65905 0.28304 0.0
C519 C 0.72843 0.69102 0.26308 0.0
C520 C 0.73114 0.68927 0.22601 0.0
C521 C 0.72098 0.657 0.20863 0.0
C522 C 0.72832 0.66283 0.16872 0.0
C523 C 0.75508 0.65067 0.15659 0.0
C524 C 0.69287 0.64347 0.14732 0.0
C525 C 0.74514 0.70358 0.1665 0.0
C526 C 0.74642 0.71825 0.19987 0.0
C527 C 0.76326 0.7555 0.20518 0.0
C528 C 0.77942 0.77836 0.17571 0.0
C529 C 0.77839 0.76395 0.14127 0.0
C530 C 0.76055 0.72604 0.13658 0.0
H531 H 0.04813 0.42185 0.60638 0.0
H532 H 0.14051 0.44928 0.53795 0.0
H533 H 0.09946 0.41841 0.48717 0.0
H534 H 0.9843 0.33326 0.56474 0.0
H535 H 0.94652 0.34086 0.56879 0.0
H536 H 0.98269 0.36023 0.60111 0.0
H537 H 0.99198 0.42397 0.588 0.0
H538 H 0.95595 0.40484 0.5557 0.0
H539 H 1.00016 0.44066 0.54262 0.0
H540 H 0.04915 0.38928 0.44274 0.0
H541 H 0.99353 0.36737 0.40691 0.0
H542 H 0.93365 0.36102 0.50335 0.0
C543 C 0.05957 0.42045 0.58093 0.0
C544 C 0.09743 0.43749 0.57613 0.0
C545 C 0.11155 0.43619 0.54219 0.0
C546 C 0.08845 0.41858 0.51325 0.0
C547 C 0.05127 0.40263 0.5186 0.0
C548 C 0.03686 0.40351 0.55154 0.0
C549 C 0.99623 0.38769 0.54913 0.0
C550 C 0.97626 0.35347 0.57232 0.0
C551 C 0.98547 0.41598 0.55946 0.0
C552 C 0.99022 0.37857 0.50958 0.0
C553 C 0.02222 0.3868 0.4926 0.0
C554 C 0.02384 0.38237 0.45579 0.0
C555 C 0.99207 0.36988 0.43564 0.0
C556 C 0.95917 0.36236 0.45228 0.0
C557 C 0.95826 0.36618 0.48985 0.0
H558 H 0.64758 0.6194 0.44486 0.0
H559 H 0.70753 0.58416 0.5112 0.0
H560 H 0.69406 0.60959 0.56455 0.0
H561 H 0.67036 0.70334 0.49528 0.0
H562 H 0.62556 0.69693 0.48976 0.0
H563 H 0.64422 0.68067 0.45604 0.0
H564 H 0.58849 0.61632 0.46204 0.0
H565 H 0.56977 0.63232 0.49581 0.0
H566 H 0.57674 0.59484 0.5054 0.0
H567 H 0.67014 0.63432 0.61136 0.0
H568 H 0.63535 0.65422 0.64848 0.0
H569 H 0.58878 0.67121 0.55226 0.0
C570 C 0.65868 0.61798 0.47048 0.0
C571 C 0.67899 0.60025 0.47388 0.0
C572 C 0.6921 0.59785 0.508 0.0
C573 C 0.68469 0.61231 0.53844 0.0
C574 C 0.66391 0.62892 0.53439 0.0
C575 C 0.65102 0.63179 0.50129 0.0
C576 C 0.62646 0.64782 0.50484 0.0
C577 C 0.64263 0.68437 0.48532 0.0
C578 C 0.5881 0.62123 0.49123 0.0
C579 C 0.62693 0.65269 0.5451 0.0
C580 C 0.64917 0.64219 0.56159 0.0
C581 C 0.6529 0.64295 0.59873 0.0
C582 C 0.63302 0.6543 0.61961 0.0
C583 C 0.60937 0.66434 0.60334 0.0
C584 C 0.60676 0.66391 0.56554 0.0
H585 H 0.36359 0.93204 0.54754 0.0
H586 H 0.3723 0.99306 0.64376 0.0
H587 H 0.39402 0.04843 0.60744 0.0
H588 H 0.44251 0.99744 0.50688 0.0
H589 H 0.42515 0.98906 0.46179 0.0
H590 H 0.4061 0.95331 0.49446 0.0
H591 H 0.34232 0.94441 0.48281 0.0
H592 H 0.36116 0.98006 0.44986 0.0
H593 H 0.33518 0.98251 0.48676 0.0
H594 H 0.42228 0.09824 0.56234 0.0
H595 H 0.45178 0.1387 0.51079 0.0
H596 H 0.42264 0.04553 0.443 0.0
C597 C 0.36925 0.95687 0.56089 0.0
C598 C 0.36612 0.95816 0.59853 0.0
C599 C 0.37427 0.99131 0.61498 0.0
C600 C 0.38665 0.02293 0.59456 0.0
C601 C 0.39032 0.02091 0.55766 0.0
C602 C 0.38143 0.98866 0.54087 0.0
C603 C 0.38983 0.99429 0.50111 0.0
C604 C 0.41754 0.98285 0.49046 0.0
C605 C 0.35504 0.97412 0.47882 0.0
C606 C 0.40591 0.03492 0.49838 0.0
C607 C 0.4058 0.04969 0.53133 0.0
C608 C 0.42186 0.08694 0.53628 0.0
C609 C 0.43867 0.1097 0.50688 0.0
C610 C 0.43908 0.0952 0.47288 0.0
C611 C 0.42199 0.05728 0.46852 0.0
loop_
_geom_bond_atom_site_label_1
_geom_bond_atom_site_label_2
_geom_bond_distance
_geom_bond_site_symmetry_2
_ccdc_geom_bond_type
O0 Cd1 2.223 . S
O0 C8 1.315 . S
Cd1 O0 2.223 . S
Cd1 O4 2.297 . S
Cd1 O5 2.439 . S
Cd1 O11 2.240 1_456 S
Cd2 O3 2.240 . S
Cd2 O10 2.223 1_455 S
Cd2 O12 2.297 1_455 S
Cd2 O13 2.439 1_455 S
O3 Cd2 2.240 . S
O3 C8 1.279 1_554 S
O4 Cd1 2.297 . S
O4 C6 1.247 . S
O5 Cd1 2.439 . S
O5 C6 1.208 . S
C6 O4 1.247 . S
C6 O5 1.208 . S
C7 O12 1.247 . S
C7 O13 1.208 . S
C8 O0 1.315 . S
C8 O3 1.279 1_556 S
C9 O10 1.315 . S
C9 O11 1.279 . S
O10 Cd2 2.223 1_655 S
O10 C9 1.315 . S
O11 Cd1 2.240 1_654 S
O11 C9 1.279 . S
O12 Cd2 2.297 1_655 S
O12 C7 1.247 . S
O13 Cd2 2.439 1_655 S
O13 C7 1.208 . S
O14 Cd15 2.223 . S
O14 C22 1.315 . S
Cd15 O14 2.223 . S
Cd15 O18 2.297 . S
Cd15 O19 2.439 . S
Cd15 O25 2.240 . S
Cd16 O17 2.240 1_556 S
Cd16 O24 2.223 . S
Cd16 O26 2.297 . S
Cd16 O27 2.439 . S
O17 Cd16 2.240 1_554 S
O17 C22 1.279 . S
O18 Cd15 2.297 . S
O18 C20 1.247 . S
O19 Cd15 2.439 . S
O19 C20 1.208 . S
C20 O18 1.247 . S
C20 O19 1.208 . S
C21 O26 1.247 . S
C21 O27 1.208 . S
C22 O14 1.315 . S
C22 O17 1.279 . S
C23 O24 1.315 . S
C23 O25 1.279 1_556 S
O24 Cd16 2.223 . S
O24 C23 1.315 . S
O25 Cd15 2.240 . S
O25 C23 1.279 1_554 S
O26 Cd16 2.297 . S
O26 C21 1.247 . S
O27 Cd16 2.439 . S
O27 C21 1.208 . S
O28 Cd29 2.223 1_565 S
O28 C36 1.315 . S
Cd29 O28 2.223 1_545 S
Cd29 O32 2.297 1_545 S
Cd29 O33 2.439 1_545 S
Cd29 O39 2.240 1_556 S
Cd30 O31 2.240 1_545 S
Cd30 O38 2.223 . S
Cd30 O40 2.297 . S
Cd30 O41 2.439 . S
O31 Cd30 2.240 1_565 S
O31 C36 1.279 1_554 S
O32 Cd29 2.297 1_565 S
O32 C34 1.247 . S
O33 Cd29 2.439 1_565 S
O33 C34 1.208 . S
C34 O32 1.247 . S
C34 O33 1.208 . S
C35 O40 1.247 . S
C35 O41 1.208 . S
C36 O28 1.315 . S
C36 O31 1.279 1_556 S
C37 O38 1.315 . S
C37 O39 1.279 . S
O38 Cd30 2.223 . S
O38 C37 1.315 . S
O39 Cd29 2.240 1_554 S
O39 C37 1.279 . S
O40 Cd30 2.297 . S
O40 C35 1.247 . S
O41 Cd30 2.439 . S
O41 C35 1.208 . S
O42 Cd43 2.223 . S
O42 C50 1.315 . S
Cd43 O42 2.223 . S
Cd43 O46 2.297 . S
Cd43 O47 2.439 . S
Cd43 O53 2.240 . S
Cd44 O45 2.240 . S
Cd44 O52 2.223 . S
Cd44 O54 2.297 . S
Cd44 O55 2.439 . S
O45 Cd44 2.240 . S
O45 C50 1.279 . S
O46 Cd43 2.297 . S
O46 C48 1.247 . S
O47 Cd43 2.439 . S
O47 C48 1.208 . S
C48 O46 1.247 . S
C48 O47 1.208 . S
C49 O54 1.247 . S
C49 O55 1.208 . S
C50 O42 1.315 . S
C50 O45 1.279 . S
C51 O52 1.315 . S
C51 O53 1.279 . S
O52 Cd44 2.223 . S
O52 C51 1.315 . S
O53 Cd43 2.240 . S
O53 C51 1.279 . S
O54 Cd44 2.297 . S
O54 C49 1.247 . S
O55 Cd44 2.439 . S
O55 C49 1.208 . S
O56 Cd57 2.223 . S
O56 C64 1.315 . S
Cd57 O56 2.223 . S
Cd57 O60 2.297 . S
Cd57 O61 2.439 . S
Cd57 O67 2.240 . S
Cd58 O59 2.240 . S
Cd58 O66 2.223 . S
Cd58 O68 2.297 . S
Cd58 O69 2.439 . S
O59 Cd58 2.240 . S
O59 C64 1.279 . S
O60 Cd57 2.297 . S
O60 C62 1.247 . S
O61 Cd57 2.439 . S
O61 C62 1.208 . S
C62 O60 1.247 . S
C62 O61 1.208 . S
C63 O68 1.247 . S
C63 O69 1.208 . S
C64 O56 1.315 . S
C64 O59 1.279 . S
C65 O66 1.315 . S
C65 O67 1.279 . S
O66 Cd58 2.223 . S
O66 C65 1.315 . S
O67 Cd57 2.240 . S
O67 C65 1.279 . S
O68 Cd58 2.297 . S
O68 C63 1.247 . S
O69 Cd58 2.439 . S
O69 C63 1.208 . S
O70 Cd71 2.223 . S
O70 C78 1.315 . S
Cd71 O70 2.223 . S
Cd71 O74 2.297 . S
Cd71 O75 2.439 . S
Cd71 O81 2.240 . S
Cd72 O73 2.240 . S
Cd72 O80 2.223 . S
Cd72 O82 2.297 . S
Cd72 O83 2.439 . S
O73 Cd72 2.240 . S
O73 C78 1.279 . S
O74 Cd71 2.297 . S
O74 C76 1.247 . S
O75 Cd71 2.439 . S
O75 C76 1.208 . S
C76 O74 1.247 . S
C76 O75 1.208 . S
C77 O82 1.247 . S
C77 O83 1.208 . S
C78 O70 1.315 . S
C78 O73 1.279 . S
C79 O80 1.315 . S
C79 O81 1.279 . S
O80 Cd72 2.223 . S
O80 C79 1.315 . S
O81 Cd71 2.240 . S
O81 C79 1.279 . S
O82 Cd72 2.297 . S
O82 C77 1.247 . S
O83 Cd72 2.439 . S
O83 C77 1.208 . S
O84 Cd85 2.223 . S
O84 C92 1.315 . S
Cd85 O84 2.223 . S
Cd85 O88 2.297 . S
Cd85 O89 2.439 . S
Cd85 O95 2.240 . S
Cd86 O87 2.240 . S
Cd86 O94 2.223 . S
Cd86 O96 2.297 . S
Cd86 O97 2.439 . S
O87 Cd86 2.240 . S
O87 C92 1.279 . S
O88 Cd85 2.297 . S
O88 C90 1.247 . S
O89 Cd85 2.439 . S
O89 C90 1.208 . S
C90 O88 1.247 . S
C90 O89 1.208 . S
C91 O96 1.247 . S
C91 O97 1.208 . S
C92 O84 1.315 . S
C92 O87 1.279 . S
C93 O94 1.315 . S
C93 O95 1.279 . S
O94 Cd86 2.223 . S
O94 C93 1.315 . S
O95 Cd85 2.240 . S
O95 C93 1.279 . S
O96 Cd86 2.297 . S
O96 C91 1.247 . S
O97 Cd86 2.439 . S
O97 C91 1.208 . S
O98 Cd99 2.223 . S
O98 C106 1.315 . S
Cd99 O98 2.223 . S
Cd99 O102 2.297 . S
Cd99 O103 2.439 . S
Cd99 O109 2.240 . S
Cd100 O101 2.240 . S
Cd100 O108 2.223 . S
Cd100 O110 2.297 . S
Cd100 O111 2.439 . S
O101 Cd100 2.240 . S
O101 C106 1.279 . S
O102 Cd99 2.297 . S
O102 C104 1.247 . S
O103 Cd99 2.439 . S
O103 C104 1.208 . S
C104 O102 1.247 . S
C104 O103 1.208 . S
C105 O110 1.247 . S
C105 O111 1.208 . S
C106 O98 1.315 . S
C106 O101 1.279 . S
C107 O108 1.315 . S
C107 O109 1.279 . S
O108 Cd100 2.223 . S
O108 C107 1.315 . S
O109 Cd99 2.240 . S
O109 C107 1.279 . S
O110 Cd100 2.297 . S
O110 C105 1.247 . S
O111 Cd100 2.439 . S
O111 C105 1.208 . S
O112 Cd113 2.223 . S
O112 C120 1.315 . S
Cd113 O112 2.223 . S
Cd113 O116 2.297 . S
Cd113 O117 2.439 . S
Cd113 O123 2.240 . S
Cd114 O115 2.240 . S
Cd114 O122 2.223 . S
Cd114 O124 2.297 . S
Cd114 O125 2.439 . S
O115 Cd114 2.240 . S
O115 C120 1.279 . S
O116 Cd113 2.297 . S
O116 C118 1.247 . S
O117 Cd113 2.439 . S
O117 C118 1.208 . S
C118 O116 1.247 . S
C118 O117 1.208 . S
C119 O124 1.247 . S
C119 O125 1.208 . S
C120 O112 1.315 . S
C120 O115 1.279 . S
C121 O122 1.315 . S
C121 O123 1.279 . S
O122 Cd114 2.223 . S
O122 C121 1.315 . S
O123 Cd113 2.240 . S
O123 C121 1.279 . S
O124 Cd114 2.297 . S
O124 C119 1.247 . S
O125 Cd114 2.439 . S
O125 C119 1.208 . S
H126 C138 0.930 . S
H127 C140 0.930 . S
H128 C141 0.930 . S
H129 C145 0.959 . S
H130 C145 0.959 . S
H131 C145 0.961 . S
H132 C146 0.960 . S
H133 C146 0.961 . S
H134 C146 0.959 . S
H135 C149 0.929 . S
H136 C150 0.931 . S
H137 C152 0.930 . S
C138 H126 0.930 . S
C138 C139 1.399 . S
C138 C143 1.399 . S
C139 C138 1.399 . S
C139 C140 1.376 1_554 S
C140 H127 0.930 . S
C140 C139 1.376 1_556 S
C140 C141 1.388 . S
C141 H128 0.930 . S
C141 C140 1.388 . S
C141 C142 1.390 . S
C142 C141 1.390 . S
C142 C143 1.394 1_556 S
C142 C148 1.465 . S
C143 C138 1.399 . S
C143 C142 1.394 1_554 S
C143 C144 1.516 . S
C144 C143 1.516 . S
C144 C145 1.502 . S
C144 C146 1.561 . S
C144 C147 1.526 . S
C145 H129 0.959 . S
C145 H130 0.959 . S
C145 H131 0.961 . S
C145 C144 1.502 . S
C146 H132 0.960 . S
C146 H133 0.961 . S
C146 H134 0.959 . S
C146 C144 1.561 . S
C147 C144 1.526 . S
C147 C148 1.396 1_554 S
C147 C152 1.390 . S
C148 C142 1.465 . S
C148 C147 1.396 1_556 S
C148 C149 1.399 . S
C149 H135 0.929 . S
C149 C148 1.399 . S
C149 C150 1.385 . S
C150 H136 0.931 . S
C150 C149 1.385 . S
C150 C151 1.389 1_556 S
C151 C150 1.389 1_554 S
C151 C152 1.387 . S
C152 H137 0.930 . S
C152 C147 1.390 . S
C152 C151 1.387 . S
H153 C165 0.930 . S
H154 C167 0.930 . S
H155 C168 0.930 . S
H156 C172 0.959 . S
H157 C172 0.959 . S
H158 C172 0.960 . S
H159 C173 0.960 . S
H160 C173 0.961 . S
H161 C173 0.959 . S
H162 C176 0.929 . S
H163 C177 0.931 . S
H164 C179 0.930 . S
C165 H153 0.930 . S
C165 C166 1.399 1_556 S
C165 C170 1.399 . S
C166 C165 1.399 1_554 S
C166 C167 1.376 . S
C167 H154 0.930 . S
C167 C166 1.376 . S
C167 C168 1.388 . S
C168 H155 0.930 . S
C168 C167 1.388 . S
C168 C169 1.390 . S
C169 C168 1.390 . S
C169 C170 1.394 1_554 S
C169 C175 1.465 1_565 S
C170 C165 1.399 . S
C170 C169 1.394 1_556 S
C170 C171 1.516 1_565 S
C171 C170 1.516 1_545 S
C171 C172 1.502 . S
C171 C173 1.561 . S
C171 C174 1.526 . S
C172 H156 0.959 . S
C172 H157 0.959 . S
C172 H158 0.960 . S
C172 C171 1.502 . S
C173 H159 0.960 . S
C173 H160 0.961 . S
C173 H161 0.959 . S
C173 C171 1.561 . S
C174 C171 1.526 . S
C174 C175 1.396 1_556 S
C174 C179 1.390 . S
C175 C169 1.465 1_545 S
C175 C174 1.396 1_554 S
C175 C176 1.399 . S
C176 H162 0.929 . S
C176 C175 1.399 . S
C176 C177 1.385 . S
C177 H163 0.931 . S
C177 C176 1.385 . S
C177 C178 1.389 . S
C178 C177 1.389 . S
C178 C179 1.387 1_554 S
C179 H164 0.930 . S
C179 C174 1.390 . S
C179 C178 1.387 1_556 S
H180 C192 0.930 . S
H181 C194 0.930 . S
H182 C195 0.930 . S
H183 C199 0.959 . S
H184 C199 0.959 . S
H185 C199 0.948 1_655 S
H186 C200 0.960 1_655 S
H187 C200 0.961 . S
H188 C200 0.959 . S
H189 C203 0.929 . S
H190 C204 0.931 . S
H191 C206 0.930 . S
C192 H180 0.930 . S
C192 C193 1.399 . S
C192 C197 1.399 . S
C193 C192 1.399 . S
C193 C194 1.376 1_554 S
C194 H181 0.930 . S
C194 C193 1.376 1_556 S
C194 C195 1.388 . S
C195 H182 0.930 . S
C195 C194 1.388 . S
C195 C196 1.390 . S
C196 C195 1.390 . S
C196 C197 1.394 1_556 S
C196 C202 1.465 1_655 S
C197 C192 1.399 . S
C197 C196 1.394 1_554 S
C197 C198 1.516 1_655 S
C198 C197 1.516 1_455 S
C198 C199 1.502 . S
C198 C200 1.561 . S
C198 C201 1.526 . S
C199 H183 0.959 . S
C199 H184 0.959 . S
C199 H185 0.948 1_455 S
C199 C198 1.502 . S
C200 H186 0.960 1_455 S
C200 H187 0.961 . S
C200 H188 0.959 . S
C200 C198 1.561 . S
C201 C198 1.526 . S
C201 C202 1.396 1_554 S
C201 C206 1.390 . S
C202 C196 1.465 1_455 S
C202 C201 1.396 1_556 S
C202 C203 1.399 . S
C203 H189 0.929 . S
C203 C202 1.399 . S
C203 C204 1.385 . S
C204 H190 0.931 . S
C204 C203 1.385 . S
C204 C205 1.359 1_556 S
C205 C204 1.359 1_554 S
C205 C206 1.413 . S
C206 H191 0.930 . S
C206 C201 1.390 . S
C206 C205 1.413 . S
H207 C219 0.930 . S
H208 C221 0.930 . S
H209 C222 0.930 . S
H210 C226 0.959 . S
H211 C226 0.959 . S
H212 C226 0.961 . S
H213 C227 0.960 . S
H214 C227 0.961 . S
H215 C227 0.959 . S
H216 C230 0.929 . S
H217 C231 0.931 . S
H218 C233 0.930 . S
C219 H207 0.930 . S
C219 C220 1.399 . S
C219 C224 1.399 . S
C220 C219 1.399 . S
C220 C221 1.376 . S
C221 H208 0.930 . S
C221 C220 1.376 . S
C221 C222 1.388 . S
C222 H209 0.930 . S
C222 C221 1.388 . S
C222 C223 1.390 . S
C223 C222 1.390 . S
C223 C224 1.394 . S
C223 C229 1.465 . S
C224 C219 1.399 . S
C224 C223 1.394 . S
C224 C225 1.516 . S
C225 C224 1.516 . S
C225 C226 1.502 . S
C225 C227 1.561 . S
C225 C228 1.526 . S
C226 H210 0.959 . S
C226 H211 0.959 . S
C226 H212 0.961 . S
C226 C225 1.502 . S
C227 H213 0.960 . S
C227 H214 0.961 . S
C227 H215 0.959 . S
C227 C225 1.561 . S
C228 C225 1.526 . S
C228 C229 1.396 . S
C228 C233 1.390 . S
C229 C223 1.465 . S
C229 C228 1.396 . S
C229 C230 1.399 . S
C230 H216 0.929 . S
C230 C229 1.399 . S
C230 C231 1.385 . S
C231 H217 0.931 . S
C231 C230 1.385 . S
C231 C232 1.389 . S
C232 C231 1.389 . S
C232 C233 1.387 . S
C233 H218 0.930 . S
C233 C228 1.390 . S
C233 C232 1.387 . S
H234 C246 0.930 . S
H235 C248 0.930 . S
H236 C249 0.930 . S
H237 C253 0.959 . S
H238 C253 0.959 . S
H239 C253 0.961 . S
H240 C254 0.960 . S
H241 C254 0.961 . S
H242 C254 0.959 . S
H243 C257 0.929 . S
H244 C258 0.931 . S
H245 C260 0.930 . S
C246 H234 0.930 . S
C246 C247 1.399 . S
C246 C251 1.399 . S
C247 C246 1.399 . S
C247 C248 1.376 . S
C248 H235 0.930 . S
C248 C247 1.376 . S
C248 C249 1.388 . S
C249 H236 0.930 . S
C249 C248 1.388 . S
C249 C250 1.390 . S
C250 C249 1.390 . S
C250 C251 1.394 . S
C250 C256 1.465 . S
C251 C246 1.399 . S
C251 C250 1.394 . S
C251 C252 1.516 . S
C252 C251 1.516 . S
C252 C253 1.502 . S
C252 C254 1.561 . S
C252 C255 1.526 . S
C253 H237 0.959 . S
C253 H238 0.959 . S
C253 H239 0.961 . S
C253 C252 1.502 . S
C254 H240 0.960 . S
C254 H241 0.961 . S
C254 H242 0.959 . S
C254 C252 1.561 . S
C255 C252 1.526 . S
C255 C256 1.396 . S
C255 C260 1.390 . S
C256 C250 1.465 . S
C256 C255 1.396 . S
C256 C257 1.399 . S
C257 H243 0.929 . S
C257 C256 1.399 . S
C257 C258 1.385 . S
C258 H244 0.931 . S
C258 C257 1.385 . S
C258 C259 1.389 . S
C259 C258 1.389 . S
C259 C260 1.387 . S
C260 H245 0.930 . S
C260 C255 1.390 . S
C260 C259 1.387 . S
H261 C273 0.930 . S
H262 C275 0.930 . S
H263 C276 0.930 . S
H264 C280 0.959 . S
H265 C280 0.959 . S
H266 C280 0.961 . S
H267 C281 0.960 . S
H268 C281 0.961 . S
H269 C281 0.959 . S
H270 C284 0.929 . S
H271 C285 0.931 . S
H272 C287 0.930 . S
C273 H261 0.930 . S
C273 C274 1.399 . S
C273 C278 1.399 . S
C274 C273 1.399 . S
C274 C275 1.376 . S
C275 H262 0.930 . S
C275 C274 1.376 . S
C275 C276 1.388 . S
C276 H263 0.930 . S
C276 C275 1.388 . S
C276 C277 1.390 . S
C277 C276 1.390 . S
C277 C278 1.394 . S
C277 C283 1.465 . S
C278 C273 1.399 . S
C278 C277 1.394 . S
C278 C279 1.516 . S
C279 C278 1.516 . S
C279 C280 1.502 . S
C279 C281 1.561 . S
C279 C282 1.526 . S
C280 H264 0.959 . S
C280 H265 0.959 . S
C280 H266 0.961 . S
C280 C279 1.502 . S
C281 H267 0.960 . S
C281 H268 0.961 . S
C281 H269 0.959 . S
C281 C279 1.561 . S
C282 C279 1.526 . S
C282 C283 1.396 . S
C282 C287 1.390 . S
C283 C277 1.465 . S
C283 C282 1.396 . S
C283 C284 1.399 . S
C284 H270 0.929 . S
C284 C283 1.399 . S
C284 C285 1.385 . S
C285 H271 0.931 . S
C285 C284 1.385 . S
C285 C286 1.389 . S
C286 C285 1.389 . S
C286 C287 1.387 . S
C287 H272 0.930 . S
C287 C282 1.390 . S
C287 C286 1.387 . S
H288 C300 0.930 . S
H289 C302 0.930 . S
H290 C303 0.930 . S
H291 C307 0.959 . S
H292 C307 0.959 . S
H293 C307 0.961 . S
H294 C308 0.960 . S
H295 C308 0.961 . S
H296 C308 0.959 . S
H297 C311 0.929 . S
H298 C312 0.931 . S
H299 C314 0.930 . S
C300 H288 0.930 . S
C300 C301 1.399 . S
C300 C305 1.399 . S
C301 C300 1.399 . S
C301 C302 1.376 . S
C302 H289 0.930 . S
C302 C301 1.376 . S
C302 C303 1.388 . S
C303 H290 0.930 . S
C303 C302 1.388 . S
C303 C304 1.390 . S
C304 C303 1.390 . S
C304 C305 1.394 . S
C304 C310 1.465 . S
C305 C300 1.399 . S
C305 C304 1.394 . S
C305 C306 1.516 . S
C306 C305 1.516 . S
C306 C307 1.502 . S
C306 C308 1.561 . S
C306 C309 1.526 . S
C307 H291 0.959 . S
C307 H292 0.959 . S
C307 H293 0.961 . S
C307 C306 1.502 . S
C308 H294 0.960 . S
C308 H295 0.961 . S
C308 H296 0.959 . S
C308 C306 1.561 . S
C309 C306 1.526 . S
C309 C310 1.396 . S
C309 C314 1.390 . S
C310 C304 1.465 . S
C310 C309 1.396 . S
C310 C311 1.399 . S
C311 H297 0.929 . S
C311 C310 1.399 . S
C311 C312 1.385 . S
C312 H298 0.931 . S
C312 C311 1.385 . S
C312 C313 1.389 . S
C313 C312 1.389 . S
C313 C314 1.387 . S
C314 H299 0.930 . S
C314 C309 1.390 . S
C314 C313 1.387 . S
H315 C327 0.930 . S
H316 C329 0.930 . S
H317 C330 0.930 . S
H318 C334 0.959 . S
H319 C334 0.959 . S
H320 C334 0.961 . S
H321 C335 0.960 . S
H322 C335 0.961 . S
H323 C335 0.959 . S
H324 C338 0.929 . S
H325 C339 0.931 . S
H326 C341 0.930 . S
C327 H315 0.930 . S
C327 C328 1.399 . S
C327 C332 1.399 . S
C328 C327 1.399 . S
C328 C329 1.376 . S
C329 H316 0.930 . S
C329 C328 1.376 . S
C329 C330 1.388 . S
C330 H317 0.930 . S
C330 C329 1.388 . S
C330 C331 1.390 . S
C331 C330 1.390 . S
C331 C332 1.394 . S
C331 C337 1.465 . S
C332 C327 1.399 . S
C332 C331 1.394 . S
C332 C333 1.516 . S
C333 C332 1.516 . S
C333 C334 1.502 . S
C333 C335 1.561 . S
C333 C336 1.526 . S
C334 H318 0.959 . S
C334 H319 0.959 . S
C334 H320 0.961 . S
C334 C333 1.502 . S
C335 H321 0.960 . S
C335 H322 0.961 . S
C335 H323 0.959 . S
C335 C333 1.561 . S
C336 C333 1.526 . S
C336 C337 1.396 . S
C336 C341 1.390 . S
C337 C331 1.465 . S
C337 C336 1.396 . S
C337 C338 1.399 . S
C338 H324 0.929 . S
C338 C337 1.399 . S
C338 C339 1.385 . S
C339 H325 0.931 . S
C339 C338 1.385 . S
C339 C340 1.389 . S
C340 C339 1.389 . S
C340 C341 1.387 . S
C341 H326 0.930 . S
C341 C336 1.390 . S
C341 C340 1.387 . S
H342 C354 0.930 . S
H343 C356 0.930 . S
H344 C357 0.930 . S
H345 C361 0.959 . S
H346 C361 0.959 . S
H347 C361 0.961 . S
H348 C362 0.960 . S
H349 C362 0.961 . S
H350 C362 0.959 . S
H351 C365 0.929 . S
H352 C366 0.931 . S
H353 C368 0.930 . S
C354 H342 0.930 . S
C354 C355 1.399 . S
C354 C359 1.399 . S
C355 C354 1.399 . S
C355 C356 1.376 . S
C356 H343 0.930 . S
C356 C355 1.376 . S
C356 C357 1.388 . S
C357 H344 0.930 . S
C357 C356 1.388 . S
C357 C358 1.390 . S
C358 C357 1.390 . S
C358 C359 1.394 . S
C358 C364 1.465 . S
C359 C354 1.399 . S
C359 C358 1.394 . S
C359 C360 1.516 . S
C360 C359 1.516 . S
C360 C361 1.502 . S
C360 C362 1.561 . S
C360 C363 1.526 . S
C361 H345 0.959 . S
C361 H346 0.959 . S
C361 H347 0.961 . S
C361 C360 1.502 . S
C362 H348 0.960 . S
C362 H349 0.961 . S
C362 H350 0.959 . S
C362 C360 1.561 . S
C363 C360 1.526 . S
C363 C364 1.396 . S
C363 C368 1.390 . S
C364 C358 1.465 . S
C364 C363 1.396 . S
C364 C365 1.399 . S
C365 H351 0.929 . S
C365 C364 1.399 . S
C365 C366 1.385 . S
C366 H352 0.931 . S
C366 C365 1.385 . S
C366 C367 1.389 . S
C367 C366 1.389 . S
C367 C368 1.387 . S
C368 H353 0.930 . S
C368 C363 1.390 . S
C368 C367 1.387 . S
H369 C381 0.930 . S
H370 C383 0.930 . S
H371 C384 0.930 . S
H372 C388 0.959 . S
H373 C388 0.959 . S
H374 C388 0.961 . S
H375 C389 0.960 . S
H376 C389 0.961 . S
H377 C389 0.959 . S
H378 C392 0.929 . S
H379 C393 0.931 . S
H380 C395 0.930 . S
C381 H369 0.930 . S
C381 C382 1.399 . S
C381 C386 1.399 . S
C382 C381 1.399 . S
C382 C383 1.376 . S
C383 H370 0.930 . S
C383 C382 1.376 . S
C383 C384 1.388 . S
C384 H371 0.930 . S
C384 C383 1.388 . S
C384 C385 1.390 . S
C385 C384 1.390 . S
C385 C386 1.394 . S
C385 C391 1.465 . S
C386 C381 1.399 . S
C386 C385 1.394 . S
C386 C387 1.516 . S
C387 C386 1.516 . S
C387 C388 1.502 . S
C387 C389 1.561 . S
C387 C390 1.526 . S
C388 H372 0.959 . S
C388 H373 0.959 . S
C388 H374 0.961 . S
C388 C387 1.502 . S
C389 H375 0.960 . S
C389 H376 0.961 . S
C389 H377 0.959 . S
C389 C387 1.561 . S
C390 C387 1.526 . S
C390 C391 1.396 . S
C390 C395 1.390 . S
C391 C385 1.465 . S
C391 C390 1.396 . S
C391 C392 1.399 . S
C392 H378 0.929 . S
C392 C391 1.399 . S
C392 C393 1.385 . S
C393 H379 0.931 . S
C393 C392 1.385 . S
C393 C394 1.389 . S
C394 C393 1.389 . S
C394 C395 1.387 . S
C395 H380 0.930 . S
C395 C390 1.390 . S
C395 C394 1.387 . S
H396 C408 0.930 . S
H397 C410 0.930 . S
H398 C411 0.930 . S
H399 C415 0.959 . S
H400 C415 0.959 . S
H401 C415 0.961 . S
H402 C416 0.960 . S
H403 C416 0.961 . S
H404 C416 0.959 . S
H405 C419 0.929 . S
H406 C420 0.931 . S
H407 C422 0.930 . S
C408 H396 0.930 . S
C408 C409 1.399 . S
C408 C413 1.399 . S
C409 C408 1.399 . S
C409 C410 1.376 . S
C410 H397 0.930 . S
C410 C409 1.376 . S
C410 C411 1.388 . S
C411 H398 0.930 . S
C411 C410 1.388 . S
C411 C412 1.390 . S
C412 C411 1.390 . S
C412 C413 1.394 . S
C412 C418 1.465 . S
C413 C408 1.399 . S
C413 C412 1.394 . S
C413 C414 1.516 . S
C414 C413 1.516 . S
C414 C415 1.502 . S
C414 C416 1.561 . S
C414 C417 1.526 . S
C415 H399 0.959 . S
C415 H400 0.959 . S
C415 H401 0.961 . S
C415 C414 1.502 . S
C416 H402 0.960 . S
C416 H403 0.961 . S
C416 H404 0.959 . S
C416 C414 1.561 . S
C417 C414 1.526 . S
C417 C418 1.396 . S
C417 C422 1.390 . S
C418 C412 1.465 . S
C418 C417 1.396 . S
C418 C419 1.399 . S
C419 H405 0.929 . S
C419 C418 1.399 . S
C419 C420 1.385 . S
C420 H406 0.931 . S
C420 C419 1.385 . S
C420 C421 1.389 . S
C421 C420 1.389 . S
C421 C422 1.387 . S
C422 H407 0.930 . S
C422 C417 1.390 . S
C422 C421 1.387 . S
H423 C435 0.930 . S
H424 C437 0.930 . S
H425 C438 0.930 . S
H426 C442 0.959 . S
H427 C442 0.959 . S
H428 C442 0.961 . S
H429 C443 0.960 . S
H430 C443 0.961 . S
H431 C443 0.959 . S
H432 C446 0.929 1_545 S
H433 C447 0.926 1_545 S
H434 C449 0.930 . S
C435 H423 0.930 . S
C435 C436 1.399 . S
C435 C440 1.399 . S
C436 C435 1.399 . S
C436 C437 1.376 . S
C437 H424 0.930 . S
C437 C436 1.376 . S
C437 C438 1.388 . S
C438 H425 0.930 . S
C438 C437 1.388 . S
C438 C439 1.390 . S
C439 C438 1.390 . S
C439 C440 1.394 . S
C439 C445 1.465 . S
C440 C435 1.399 . S
C440 C439 1.394 . S
C440 C441 1.516 . S
C441 C440 1.516 . S
C441 C442 1.502 . S
C441 C443 1.561 . S
C441 C444 1.526 . S
C442 H426 0.959 . S
C442 H427 0.959 . S
C442 H428 0.961 . S
C442 C441 1.502 . S
C443 H429 0.960 . S
C443 H430 0.961 . S
C443 H431 0.959 . S
C443 C441 1.561 . S
C444 C441 1.526 . S
C444 C445 1.396 . S
C444 C449 1.390 . S
C445 C439 1.465 . S
C445 C444 1.396 . S
C445 C446 1.399 . S
C446 H432 0.929 1_565 S
C446 C445 1.399 . S
C446 C447 1.387 . S
C447 H433 0.926 1_565 S
C447 C446 1.387 . S
C447 C448 1.392 . S
C448 C447 1.392 . S
C448 C449 1.387 . S
C449 H434 0.930 . S
C449 C444 1.390 . S
C449 C448 1.387 . S
H450 C462 0.930 . S
H451 C464 0.930 . S
H452 C465 0.930 . S
H453 C469 0.959 . S
H454 C469 0.959 . S
H455 C469 0.961 . S
H456 C470 0.960 . S
H457 C470 0.961 . S
H458 C470 0.959 . S
H459 C473 0.929 . S
H460 C474 0.931 . S
H461 C476 0.930 . S
C462 H450 0.930 . S
C462 C463 1.399 . S
C462 C467 1.399 . S
C463 C462 1.399 . S
C463 C464 1.376 . S
C464 H451 0.930 . S
C464 C463 1.376 . S
C464 C465 1.388 . S
C465 H452 0.930 . S
C465 C464 1.388 . S
C465 C466 1.390 . S
C466 C465 1.390 . S
C466 C467 1.394 . S
C466 C472 1.465 . S
C467 C462 1.399 . S
C467 C466 1.394 . S
C467 C468 1.516 . S
C468 C467 1.516 . S
C468 C469 1.502 . S
C468 C470 1.561 . S
C468 C471 1.526 . S
C469 H453 0.959 . S
C469 H454 0.959 . S
C469 H455 0.961 . S
C469 C468 1.502 . S
C470 H456 0.960 . S
C470 H457 0.961 . S
C470 H458 0.959 . S
C470 C468 1.561 . S
C471 C468 1.526 . S
C471 C472 1.396 . S
C471 C476 1.390 . S
C472 C466 1.465 . S
C472 C471 1.396 . S
C472 C473 1.399 . S
C473 H459 0.929 . S
C473 C472 1.399 . S
C473 C474 1.385 . S
C474 H460 0.931 . S
C474 C473 1.385 . S
C474 C475 1.389 . S
C475 C474 1.389 . S
C475 C476 1.387 . S
C476 H461 0.930 . S
C476 C471 1.390 . S
C476 C475 1.387 . S
H477 C489 0.930 . S
H478 C491 0.930 . S
H479 C492 0.930 . S
H480 C496 0.959 . S
H481 C496 0.959 . S
H482 C496 0.961 . S
H483 C497 0.960 . S
H484 C497 0.961 . S
H485 C497 0.959 . S
H486 C500 0.929 . S
H487 C501 0.931 . S
H488 C503 0.930 . S
C489 H477 0.930 . S
C489 C490 1.399 . S
C489 C494 1.399 . S
C490 C489 1.399 . S
C490 C491 1.376 . S
C491 H478 0.930 . S
C491 C490 1.376 . S
C491 C492 1.388 . S
C492 H479 0.930 . S
C492 C491 1.388 . S
C492 C493 1.390 . S
C493 C492 1.390 . S
C493 C494 1.394 . S
C493 C499 1.465 . S
C494 C489 1.399 . S
C494 C493 1.394 . S
C494 C495 1.516 . S
C495 C494 1.516 . S
C495 C496 1.502 1_655 S
C495 C497 1.561 . S
C495 C498 1.526 . S
C496 H480 0.959 . S
C496 H481 0.959 . S
C496 H482 0.961 . S
C496 C495 1.502 1_455 S
C497 H483 0.960 . S
C497 H484 0.961 . S
C497 H485 0.959 . S
C497 C495 1.561 . S
C498 C495 1.526 . S
C498 C499 1.396 . S
C498 C503 1.390 . S
C499 C493 1.465 . S
C499 C498 1.396 . S
C499 C500 1.399 . S
C500 H486 0.929 . S
C500 C499 1.399 . S
C500 C501 1.385 . S
C501 H487 0.931 . S
C501 C500 1.385 . S
C501 C502 1.389 . S
C502 C501 1.389 . S
C502 C503 1.387 . S
C503 H488 0.930 . S
C503 C498 1.390 . S
C503 C502 1.387 . S
H504 C516 0.930 . S
H505 C518 0.930 . S
H506 C519 0.930 . S
H507 C523 0.959 . S
H508 C523 0.959 . S
H509 C523 0.961 . S
H510 C524 0.960 . S
H511 C524 0.961 . S
H512 C524 0.959 . S
H513 C527 0.929 . S
H514 C528 0.931 . S
H515 C530 0.930 . S
C516 H504 0.930 . S
C516 C517 1.399 . S
C516 C521 1.399 . S
C517 C516 1.399 . S
C517 C518 1.376 . S
C518 H505 0.930 . S
C518 C517 1.376 . S
C518 C519 1.388 . S
C519 H506 0.930 . S
C519 C518 1.388 . S
C519 C520 1.390 . S
C520 C519 1.390 . S
C520 C521 1.394 . S
C520 C526 1.465 . S
C521 C516 1.399 . S
C521 C520 1.394 . S
C521 C522 1.516 . S
C522 C521 1.516 . S
C522 C523 1.502 . S
C522 C524 1.561 . S
C522 C525 1.526 . S
C523 H507 0.959 . S
C523 H508 0.959 . S
C523 H509 0.961 . S
C523 C522 1.502 . S
C524 H510 0.960 . S
C524 H511 0.961 . S
C524 H512 0.959 . S
C524 C522 1.561 . S
C525 C522 1.526 . S
C525 C526 1.396 . S
C525 C530 1.390 . S
C526 C520 1.465 . S
C526 C525 1.396 . S
C526 C527 1.399 . S
C527 H513 0.929 . S
C527 C526 1.399 . S
C527 C528 1.385 . S
C528 H514 0.931 . S
C528 C527 1.385 . S
C528 C529 1.389 . S
C529 C528 1.389 . S
C529 C530 1.387 . S
C530 H515 0.930 . S
C530 C525 1.390 . S
C530 C529 1.387 . S
H531 C543 0.930 . S
H532 C545 0.930 . S
H533 C546 0.930 . S
H534 C550 0.959 . S
H535 C550 0.959 . S
H536 C550 0.961 . S
H537 C551 0.960 . S
H538 C551 0.961 1_655 S
H539 C551 0.959 . S
H540 C554 0.929 . S
H541 C555 0.931 . S
H542 C557 0.930 . S
C543 H531 0.930 . S
C543 C544 1.399 . S
C543 C548 1.399 . S
C544 C543 1.399 . S
C544 C545 1.376 . S
C545 H532 0.930 . S
C545 C544 1.376 . S
C545 C546 1.388 . S
C546 H533 0.930 . S
C546 C545 1.388 . S
C546 C547 1.390 . S
C547 C546 1.390 . S
C547 C548 1.394 . S
C547 C553 1.465 . S
C548 C543 1.399 . S
C548 C547 1.394 . S
C548 C549 1.491 1_455 S
C549 C548 1.491 1_655 S
C549 C550 1.524 . S
C549 C551 1.564 1_655 S
C549 C552 1.524 . S
C550 H534 0.959 . S
C550 H535 0.959 . S
C550 H536 0.961 . S
C550 C549 1.524 . S
C551 H537 0.960 . S
C551 H538 0.961 1_455 S
C551 H539 0.959 . S
C551 C549 1.564 1_455 S
C552 C549 1.524 . S
C552 C553 1.396 1_655 S
C552 C557 1.390 . S
C553 C547 1.465 . S
C553 C552 1.396 1_455 S
C553 C554 1.399 . S
C554 H540 0.929 . S
C554 C553 1.399 . S
C554 C555 1.385 1_455 S
C555 H541 0.931 . S
C555 C554 1.385 1_655 S
C555 C556 1.389 . S
C556 C555 1.389 . S
C556 C557 1.387 . S
C557 H542 0.930 . S
C557 C552 1.390 . S
C557 C556 1.387 . S
H558 C570 0.930 . S
H559 C572 0.930 . S
H560 C573 0.930 . S
H561 C577 0.959 . S
H562 C577 0.959 . S
H563 C577 0.961 . S
H564 C578 0.960 . S
H565 C578 0.961 . S
H566 C578 0.959 . S
H567 C581 0.929 . S
H568 C582 0.931 . S
H569 C584 0.930 . S
C570 H558 0.930 . S
C570 C571 1.399 . S
C570 C575 1.399 . S
C571 C570 1.399 . S
C571 C572 1.376 . S
C572 H559 0.930 . S
C572 C571 1.376 . S
C572 C573 1.388 . S
C573 H560 0.930 . S
C573 C572 1.388 . S
C573 C574 1.390 . S
C574 C573 1.390 . S
C574 C575 1.394 . S
C574 C580 1.465 . S
C575 C570 1.399 . S
C575 C574 1.394 . S
C575 C576 1.516 . S
C576 C575 1.516 . S
C576 C577 1.502 . S
C576 C578 1.561 . S
C576 C579 1.526 . S
C577 H561 0.959 . S
C577 H562 0.959 . S
C577 H563 0.961 . S
C577 C576 1.502 . S
C578 H564 0.960 . S
C578 H565 0.961 . S
C578 H566 0.959 . S
C578 C576 1.561 . S
C579 C576 1.526 . S
C579 C580 1.396 . S
C579 C584 1.390 . S
C580 C574 1.465 . S
C580 C579 1.396 . S
C580 C581 1.399 . S
C581 H567 0.929 . S
C581 C580 1.399 . S
C581 C582 1.385 . S
C582 H568 0.931 . S
C582 C581 1.385 . S
C582 C583 1.389 . S
C583 C582 1.389 . S
C583 C584 1.387 . S
C584 H569 0.930 . S
C584 C579 1.390 . S
C584 C583 1.387 . S
H585 C597 0.930 . S
H586 C599 0.930 . S
H587 C600 0.930 . S
H588 C604 0.959 . S
H589 C604 0.959 . S
H590 C604 0.961 . S
H591 C605 0.960 . S
H592 C605 0.961 . S
H593 C605 0.959 . S
H594 C608 0.929 . S
H595 C609 0.931 . S
H596 C611 0.930 . S
C597 H585 0.930 . S
C597 C598 1.399 . S
C597 C602 1.399 . S
C598 C597 1.399 . S
C598 C599 1.376 . S
C599 H586 0.930 . S
C599 C598 1.376 . S
C599 C600 1.388 1_565 S
C600 H587 0.930 . S
C600 C599 1.388 1_545 S
C600 C601 1.390 . S
C601 C600 1.390 . S
C601 C602 1.394 1_545 S
C601 C607 1.465 . S
C602 C597 1.399 . S
C602 C601 1.394 1_565 S
C602 C603 1.516 . S
C603 C602 1.516 . S
C603 C604 1.502 . S
C603 C605 1.561 . S
C603 C606 1.526 1_565 S
C604 H588 0.959 . S
C604 H589 0.959 . S
C604 H590 0.961 . S
C604 C603 1.502 . S
C605 H591 0.960 . S
C605 H592 0.961 . S
C605 H593 0.959 . S
C605 C603 1.561 . S
C606 C603 1.526 1_545 S
C606 C607 1.396 . S
C606 C611 1.390 . S
C607 C601 1.465 . S
C607 C606 1.396 . S
C607 C608 1.399 . S
C608 H594 0.929 . S
C608 C607 1.399 . S
C608 C609 1.385 . S
C609 H595 0.931 . S
C609 C608 1.385 . S
C609 C610 1.389 . S
C610 C609 1.389 . S
C610 C611 1.387 . S
C611 H596 0.930 . S
C611 C606 1.390 . S
C611 C610 1.387 . S
C139 C37 1.250 . S
C151 C8 1.214 1_554 S
C166 C23 1.250 1_554 S
C178 C9 1.220 . S
C193 C22 1.244 . S
C205 C36 1.201 1_554 S
C220 C78 1.195 . S
C232 C51 1.226 . S
C247 C65 1.251 . S
C259 C50 1.218 . S
C274 C64 1.246 . S
C286 C79 1.205 . S
C301 C92 1.198 . S
C313 C121 1.239 . S
C328 C93 1.195 . S
C340 C107 1.229 . S
C355 C106 1.195 . S
C367 C120 1.230 . S
C382 C6 1.442 . S
C394 C104 1.504 . S
C409 C21 1.503 . S
C421 C119 1.449 . S
C436 C91 1.463 . S
C448 C34 1.466 . S
C463 C63 1.498 . S
C475 C35 1.457 . S
C490 C7 1.481 . S
C502 C77 1.478 . S
C517 C49 1.493 . S
C529 C20 1.442 . S
C544 C105 1.442 . S
C556 C76 1.490 . S
C571 C48 1.487 . S
C583 C118 1.471 . S
C598 C90 1.492 . S
C610 C62 1.442 . S
