# Generated by pormake.
# Topology ana-e, (6)-cn, num edge types: 1
# Building blocks:
#     Node 0, Type 0, BuildingBlock: MAKGUD_clean_sbu_1, # of connection points: 6
#     Node 1, Type 0, BuildingBlock: MAKGUD_clean_sbu_1, # of connection points: 6
#     Node 2, Type 0, BuildingBlock: MAKGUD_clean_sbu_1, # of connection points: 6
#     Node 3, Type 0, BuildingBlock: MAKGUD_clean_sbu_1, # of connection points: 6
#     Node 4, Type 0, BuildingBlock: MAKGUD_clean_sbu_1, # of connection points: 6
#     Node 5, Type 0, BuildingBlock: MAKGUD_clean_sbu_1, # of connection points: 6
#     Node 6, Type 0, BuildingBlock: MAKGUD_clean_sbu_1, # of connection points: 6
#     Node 7, Type 0, BuildingBlock: MAKGUD_clean_sbu_1, # of connection points: 6
#     Node 8, Type 0, BuildingBlock: MAKGUD_clean_sbu_1, # of connection points: 6
#     Node 9, Type 0, BuildingBlock: MAKGUD_clean_sbu_1, # of connection points: 6
#     Node 10, Type 0, BuildingBlock: MAKGUD_clean_sbu_1, # of connection points: 6
#     Node 11, Type 0, BuildingBlock: MAKGUD_clean_sbu_1, # of connection points: 6
#     Node 12, Type 0, BuildingBlock: MAKGUD_clean_sbu_1, # of connection points: 6
#     Node 13, Type 0, BuildingBlock: MAKGUD_clean_sbu_1, # of connection points: 6
#     Node 14, Type 0, BuildingBlock: MAKGUD_clean_sbu_1, # of connection points: 6
#     Node 15, Type 0, BuildingBlock: MAKGUD_clean_sbu_1, # of connection points: 6
#     Node 16, Type 0, BuildingBlock: MAKGUD_clean_sbu_1, # of connection points: 6
#     Node 17, Type 0, BuildingBlock: MAKGUD_clean_sbu_1, # of connection points: 6
#     Node 18, Type 0, BuildingBlock: MAKGUD_clean_sbu_1, # of connection points: 6
#     Node 19, Type 0, BuildingBlock: MAKGUD_clean_sbu_1, # of connection points: 6
#     Node 20, Type 0, BuildingBlock: MAKGUD_clean_sbu_1, # of connection points: 6
#     Node 21, Type 0, BuildingBlock: MAKGUD_clean_sbu_1, # of connection points: 6
#     Node 22, Type 0, BuildingBlock: MAKGUD_clean_sbu_1, # of connection points: 6
#     Node 23, Type 0, BuildingBlock: MAKGUD_clean_sbu_1, # of connection points: 6
#     Node 24, Type 0, BuildingBlock: MAKGUD_clean_sbu_1, # of connection points: 6
#     Node 25, Type 0, BuildingBlock: MAKGUD_clean_sbu_1, # of connection points: 6
#     Node 26, Type 0, BuildingBlock: MAKGUD_clean_sbu_1, # of connection points: 6
#     Node 27, Type 0, BuildingBlock: MAKGUD_clean_sbu_1, # of connection points: 6
#     Node 28, Type 0, BuildingBlock: MAKGUD_clean_sbu_1, # of connection points: 6
#     Node 29, Type 0, BuildingBlock: MAKGUD_clean_sbu_1, # of connection points: 6
#     Node 30, Type 0, BuildingBlock: MAKGUD_clean_sbu_1, # of connection points: 6
#     Node 31, Type 0, BuildingBlock: MAKGUD_clean_sbu_1, # of connection points: 6
#     Node 32, Type 0, BuildingBlock: MAKGUD_clean_sbu_1, # of connection points: 6
#     Node 33, Type 0, BuildingBlock: MAKGUD_clean_sbu_1, # of connection points: 6
#     Node 34, Type 0, BuildingBlock: MAKGUD_clean_sbu_1, # of connection points: 6
#     Node 35, Type 0, BuildingBlock: MAKGUD_clean_sbu_1, # of connection points: 6
#     Node 36, Type 0, BuildingBlock: MAKGUD_clean_sbu_1, # of connection points: 6
#     Node 37, Type 0, BuildingBlock: MAKGUD_clean_sbu_1, # of connection points: 6
#     Node 38, Type 0, BuildingBlock: MAKGUD_clean_sbu_1, # of connection points: 6
#     Node 39, Type 0, BuildingBlock: MAKGUD_clean_sbu_1, # of connection points: 6
#     Node 40, Type 0, BuildingBlock: MAKGUD_clean_sbu_1, # of connection points: 6
#     Node 41, Type 0, BuildingBlock: MAKGUD_clean_sbu_1, # of connection points: 6
#     Node 42, Type 0, BuildingBlock: MAKGUD_clean_sbu_1, # of connection points: 6
#     Node 43, Type 0, BuildingBlock: MAKGUD_clean_sbu_1, # of connection points: 6
#     Node 44, Type 0, BuildingBlock: MAKGUD_clean_sbu_1, # of connection points: 6
#     Node 45, Type 0, BuildingBlock: MAKGUD_clean_sbu_1, # of connection points: 6
#     Node 46, Type 0, BuildingBlock: MAKGUD_clean_sbu_1, # of connection points: 6
#     Node 47, Type 0, BuildingBlock: MAKGUD_clean_sbu_1, # of connection points: 6
#     Node 48, Type 0, BuildingBlock: MAKGUD_clean_sbu_1, # of connection points: 6
#     Node 49, Type 0, BuildingBlock: MAKGUD_clean_sbu_1, # of connection points: 6
#     Node 50, Type 0, BuildingBlock: MAKGUD_clean_sbu_1, # of connection points: 6
#     Node 51, Type 0, BuildingBlock: MAKGUD_clean_sbu_1, # of connection points: 6
#     Node 52, Type 0, BuildingBlock: MAKGUD_clean_sbu_1, # of connection points: 6
#     Node 53, Type 0, BuildingBlock: MAKGUD_clean_sbu_1, # of connection points: 6
#     Node 54, Type 0, BuildingBlock: MAKGUD_clean_sbu_1, # of connection points: 6
#     Node 55, Type 0, BuildingBlock: MAKGUD_clean_sbu_1, # of connection points: 6
#     Node 56, Type 0, BuildingBlock: MAKGUD_clean_sbu_1, # of connection points: 6
#     Node 57, Type 0, BuildingBlock: MAKGUD_clean_sbu_1, # of connection points: 6
#     Node 58, Type 0, BuildingBlock: MAKGUD_clean_sbu_1, # of connection points: 6
#     Node 59, Type 0, BuildingBlock: MAKGUD_clean_sbu_1, # of connection points: 6
#     Node 60, Type 0, BuildingBlock: MAKGUD_clean_sbu_1, # of connection points: 6
#     Node 61, Type 0, BuildingBlock: MAKGUD_clean_sbu_1, # of connection points: 6
#     Node 62, Type 0, BuildingBlock: MAKGUD_clean_sbu_1, # of connection points: 6
#     Node 63, Type 0, BuildingBlock: MAKGUD_clean_sbu_1, # of connection points: 6
#     Node 64, Type 0, BuildingBlock: MAKGUD_clean_sbu_1, # of connection points: 6
#     Node 65, Type 0, BuildingBlock: MAKGUD_clean_sbu_1, # of connection points: 6
#     Node 66, Type 0, BuildingBlock: MAKGUD_clean_sbu_1, # of connection points: 6
#     Node 67, Type 0, BuildingBlock: MAKGUD_clean_sbu_1, # of connection points: 6
#     Node 68, Type 0, BuildingBlock: MAKGUD_clean_sbu_1, # of connection points: 6
#     Node 69, Type 0, BuildingBlock: MAKGUD_clean_sbu_1, # of connection points: 6
#     Node 70, Type 0, BuildingBlock: MAKGUD_clean_sbu_1, # of connection points: 6
#     Node 71, Type 0, BuildingBlock: MAKGUD_clean_sbu_1, # of connection points: 6
#     Node 72, Type 0, BuildingBlock: MAKGUD_clean_sbu_1, # of connection points: 6
#     Node 73, Type 0, BuildingBlock: MAKGUD_clean_sbu_1, # of connection points: 6
#     Node 74, Type 0, BuildingBlock: MAKGUD_clean_sbu_1, # of connection points: 6
#     Node 75, Type 0, BuildingBlock: MAKGUD_clean_sbu_1, # of connection points: 6
#     Node 76, Type 0, BuildingBlock: MAKGUD_clean_sbu_1, # of connection points: 6
#     Node 77, Type 0, BuildingBlock: MAKGUD_clean_sbu_1, # of connection points: 6
#     Node 78, Type 0, BuildingBlock: MAKGUD_clean_sbu_1, # of connection points: 6
#     Node 79, Type 0, BuildingBlock: MAKGUD_clean_sbu_1, # of connection points: 6
#     Node 80, Type 0, BuildingBlock: MAKGUD_clean_sbu_1, # of connection points: 6
#     Node 81, Type 0, BuildingBlock: MAKGUD_clean_sbu_1, # of connection points: 6
#     Node 82, Type 0, BuildingBlock: MAKGUD_clean_sbu_1, # of connection points: 6
#     Node 83, Type 0, BuildingBlock: MAKGUD_clean_sbu_1, # of connection points: 6
#     Node 84, Type 0, BuildingBlock: MAKGUD_clean_sbu_1, # of connection points: 6
#     Node 85, Type 0, BuildingBlock: MAKGUD_clean_sbu_1, # of connection points: 6
#     Node 86, Type 0, BuildingBlock: MAKGUD_clean_sbu_1, # of connection points: 6
#     Node 87, Type 0, BuildingBlock: MAKGUD_clean_sbu_1, # of connection points: 6
#     Node 88, Type 0, BuildingBlock: MAKGUD_clean_sbu_1, # of connection points: 6
#     Node 89, Type 0, BuildingBlock: MAKGUD_clean_sbu_1, # of connection points: 6
#     Node 90, Type 0, BuildingBlock: MAKGUD_clean_sbu_1, # of connection points: 6
#     Node 91, Type 0, BuildingBlock: MAKGUD_clean_sbu_1, # of connection points: 6
#     Node 92, Type 0, BuildingBlock: MAKGUD_clean_sbu_1, # of connection points: 6
#     Node 93, Type 0, BuildingBlock: MAKGUD_clean_sbu_1, # of connection points: 6
#     Node 94, Type 0, BuildingBlock: MAKGUD_clean_sbu_1, # of connection points: 6
#     Node 95, Type 0, BuildingBlock: MAKGUD_clean_sbu_1, # of connection points: 6
#     Edge 96, Type (0, 0), BuildingBlock: AJUNOK_clean_linker_0, # of connection points: 2
#     Edge 97, Type (0, 0), BuildingBlock: AJUNOK_clean_linker_0, # of connection points: 2
#     Edge 98, Type (0, 0), BuildingBlock: AJUNOK_clean_linker_0, # of connection points: 2
#     Edge 99, Type (0, 0), BuildingBlock: AJUNOK_clean_linker_0, # of connection points: 2
#     Edge 100, Type (0, 0), BuildingBlock: AJUNOK_clean_linker_0, # of connection points: 2
#     Edge 101, Type (0, 0), BuildingBlock: AJUNOK_clean_linker_0, # of connection points: 2
#     Edge 102, Type (0, 0), BuildingBlock: AJUNOK_clean_linker_0, # of connection points: 2
#     Edge 103, Type (0, 0), BuildingBlock: AJUNOK_clean_linker_0, # of connection points: 2
#     Edge 104, Type (0, 0), BuildingBlock: AJUNOK_clean_linker_0, # of connection points: 2
#     Edge 105, Type (0, 0), BuildingBlock: AJUNOK_clean_linker_0, # of connection points: 2
#     Edge 106, Type (0, 0), BuildingBlock: AJUNOK_clean_linker_0, # of connection points: 2
#     Edge 107, Type (0, 0), BuildingBlock: AJUNOK_clean_linker_0, # of connection points: 2
#     Edge 108, Type (0, 0), BuildingBlock: AJUNOK_clean_linker_0, # of connection points: 2
#     Edge 109, Type (0, 0), BuildingBlock: AJUNOK_clean_linker_0, # of connection points: 2
#     Edge 110, Type (0, 0), BuildingBlock: AJUNOK_clean_linker_0, # of connection points: 2
#     Edge 111, Type (0, 0), BuildingBlock: AJUNOK_clean_linker_0, # of connection points: 2
#     Edge 112, Type (0, 0), BuildingBlock: AJUNOK_clean_linker_0, # of connection points: 2
#     Edge 113, Type (0, 0), BuildingBlock: AJUNOK_clean_linker_0, # of connection points: 2
#     Edge 114, Type (0, 0), BuildingBlock: AJUNOK_clean_linker_0, # of connection points: 2
#     Edge 115, Type (0, 0), BuildingBlock: AJUNOK_clean_linker_0, # of connection points: 2
#     Edge 116, Type (0, 0), BuildingBlock: AJUNOK_clean_linker_0, # of connection points: 2
#     Edge 117, Type (0, 0), BuildingBlock: AJUNOK_clean_linker_0, # of connection points: 2
#     Edge 118, Type (0, 0), BuildingBlock: AJUNOK_clean_linker_0, # of connection points: 2
#     Edge 119, Type (0, 0), BuildingBlock: AJUNOK_clean_linker_0, # of connection points: 2
#     Edge 120, Type (0, 0), BuildingBlock: AJUNOK_clean_linker_0, # of connection points: 2
#     Edge 121, Type (0, 0), BuildingBlock: AJUNOK_clean_linker_0, # of connection points: 2
#     Edge 122, Type (0, 0), BuildingBlock: AJUNOK_clean_linker_0, # of connection points: 2
#     Edge 123, Type (0, 0), BuildingBlock: AJUNOK_clean_linker_0, # of connection points: 2
#     Edge 124, Type (0, 0), BuildingBlock: AJUNOK_clean_linker_0, # of connection points: 2
#     Edge 125, Type (0, 0), BuildingBlock: AJUNOK_clean_linker_0, # of connection points: 2
#     Edge 126, Type (0, 0), BuildingBlock: AJUNOK_clean_linker_0, # of connection points: 2
#     Edge 127, Type (0, 0), BuildingBlock: AJUNOK_clean_linker_0, # of connection points: 2
#     Edge 128, Type (0, 0), BuildingBlock: AJUNOK_clean_linker_0, # of connection points: 2
#     Edge 129, Type (0, 0), BuildingBlock: AJUNOK_clean_linker_0, # of connection points: 2
#     Edge 130, Type (0, 0), BuildingBlock: AJUNOK_clean_linker_0, # of connection points: 2
#     Edge 131, Type (0, 0), BuildingBlock: AJUNOK_clean_linker_0, # of connection points: 2
#     Edge 132, Type (0, 0), BuildingBlock: AJUNOK_clean_linker_0, # of connection points: 2
#     Edge 133, Type (0, 0), BuildingBlock: AJUNOK_clean_linker_0, # of connection points: 2
#     Edge 134, Type (0, 0), BuildingBlock: AJUNOK_clean_linker_0, # of connection points: 2
#     Edge 135, Type (0, 0), BuildingBlock: AJUNOK_clean_linker_0, # of connection points: 2
#     Edge 136, Type (0, 0), BuildingBlock: AJUNOK_clean_linker_0, # of connection points: 2
#     Edge 137, Type (0, 0), BuildingBlock: AJUNOK_clean_linker_0, # of connection points: 2
#     Edge 138, Type (0, 0), BuildingBlock: AJUNOK_clean_linker_0, # of connection points: 2
#     Edge 139, Type (0, 0), BuildingBlock: AJUNOK_clean_linker_0, # of connection points: 2
#     Edge 140, Type (0, 0), BuildingBlock: AJUNOK_clean_linker_0, # of connection points: 2
#     Edge 141, Type (0, 0), BuildingBlock: AJUNOK_clean_linker_0, # of connection points: 2
#     Edge 142, Type (0, 0), BuildingBlock: AJUNOK_clean_linker_0, # of connection points: 2
#     Edge 143, Type (0, 0), BuildingBlock: AJUNOK_clean_linker_0, # of connection points: 2
#     Edge 144, Type (0, 0), BuildingBlock: AJUNOK_clean_linker_0, # of connection points: 2
#     Edge 145, Type (0, 0), BuildingBlock: AJUNOK_clean_linker_0, # of connection points: 2
#     Edge 146, Type (0, 0), BuildingBlock: AJUNOK_clean_linker_0, # of connection points: 2
#     Edge 147, Type (0, 0), BuildingBlock: AJUNOK_clean_linker_0, # of connection points: 2
#     Edge 148, Type (0, 0), BuildingBlock: AJUNOK_clean_linker_0, # of connection points: 2
#     Edge 149, Type (0, 0), BuildingBlock: AJUNOK_clean_linker_0, # of connection points: 2
#     Edge 150, Type (0, 0), BuildingBlock: AJUNOK_clean_linker_0, # of connection points: 2
#     Edge 151, Type (0, 0), BuildingBlock: AJUNOK_clean_linker_0, # of connection points: 2
#     Edge 152, Type (0, 0), BuildingBlock: AJUNOK_clean_linker_0, # of connection points: 2
#     Edge 153, Type (0, 0), BuildingBlock: AJUNOK_clean_linker_0, # of connection points: 2
#     Edge 154, Type (0, 0), BuildingBlock: AJUNOK_clean_linker_0, # of connection points: 2
#     Edge 155, Type (0, 0), BuildingBlock: AJUNOK_clean_linker_0, # of connection points: 2
#     Edge 156, Type (0, 0), BuildingBlock: AJUNOK_clean_linker_0, # of connection points: 2
#     Edge 157, Type (0, 0), BuildingBlock: AJUNOK_clean_linker_0, # of connection points: 2
#     Edge 158, Type (0, 0), BuildingBlock: AJUNOK_clean_linker_0, # of connection points: 2
#     Edge 159, Type (0, 0), BuildingBlock: AJUNOK_clean_linker_0, # of connection points: 2
#     Edge 160, Type (0, 0), BuildingBlock: AJUNOK_clean_linker_0, # of connection points: 2
#     Edge 161, Type (0, 0), BuildingBlock: AJUNOK_clean_linker_0, # of connection points: 2
#     Edge 162, Type (0, 0), BuildingBlock: AJUNOK_clean_linker_0, # of connection points: 2
#     Edge 163, Type (0, 0), BuildingBlock: AJUNOK_clean_linker_0, # of connection points: 2
#     Edge 164, Type (0, 0), BuildingBlock: AJUNOK_clean_linker_0, # of connection points: 2
#     Edge 165, Type (0, 0), BuildingBlock: AJUNOK_clean_linker_0, # of connection points: 2
#     Edge 166, Type (0, 0), BuildingBlock: AJUNOK_clean_linker_0, # of connection points: 2
#     Edge 167, Type (0, 0), BuildingBlock: AJUNOK_clean_linker_0, # of connection points: 2
#     Edge 168, Type (0, 0), BuildingBlock: AJUNOK_clean_linker_0, # of connection points: 2
#     Edge 169, Type (0, 0), BuildingBlock: AJUNOK_clean_linker_0, # of connection points: 2
#     Edge 170, Type (0, 0), BuildingBlock: AJUNOK_clean_linker_0, # of connection points: 2
#     Edge 171, Type (0, 0), BuildingBlock: AJUNOK_clean_linker_0, # of connection points: 2
#     Edge 172, Type (0, 0), BuildingBlock: AJUNOK_clean_linker_0, # of connection points: 2
#     Edge 173, Type (0, 0), BuildingBlock: AJUNOK_clean_linker_0, # of connection points: 2
#     Edge 174, Type (0, 0), BuildingBlock: AJUNOK_clean_linker_0, # of connection points: 2
#     Edge 175, Type (0, 0), BuildingBlock: AJUNOK_clean_linker_0, # of connection points: 2
#     Edge 176, Type (0, 0), BuildingBlock: AJUNOK_clean_linker_0, # of connection points: 2
#     Edge 177, Type (0, 0), BuildingBlock: AJUNOK_clean_linker_0, # of connection points: 2
#     Edge 178, Type (0, 0), BuildingBlock: AJUNOK_clean_linker_0, # of connection points: 2
#     Edge 179, Type (0, 0), BuildingBlock: AJUNOK_clean_linker_0, # of connection points: 2
#     Edge 180, Type (0, 0), BuildingBlock: AJUNOK_clean_linker_0, # of connection points: 2
#     Edge 181, Type (0, 0), BuildingBlock: AJUNOK_clean_linker_0, # of connection points: 2
#     Edge 182, Type (0, 0), BuildingBlock: AJUNOK_clean_linker_0, # of connection points: 2
#     Edge 183, Type (0, 0), BuildingBlock: AJUNOK_clean_linker_0, # of connection points: 2
#     Edge 184, Type (0, 0), BuildingBlock: AJUNOK_clean_linker_0, # of connection points: 2
#     Edge 185, Type (0, 0), BuildingBlock: AJUNOK_clean_linker_0, # of connection points: 2
#     Edge 186, Type (0, 0), BuildingBlock: AJUNOK_clean_linker_0, # of connection points: 2
#     Edge 187, Type (0, 0), BuildingBlock: AJUNOK_clean_linker_0, # of connection points: 2
#     Edge 188, Type (0, 0), BuildingBlock: AJUNOK_clean_linker_0, # of connection points: 2
#     Edge 189, Type (0, 0), BuildingBlock: AJUNOK_clean_linker_0, # of connection points: 2
#     Edge 190, Type (0, 0), BuildingBlock: AJUNOK_clean_linker_0, # of connection points: 2
#     Edge 191, Type (0, 0), BuildingBlock: AJUNOK_clean_linker_0, # of connection points: 2
#     Edge 192, Type (0, 0), BuildingBlock: AJUNOK_clean_linker_0, # of connection points: 2
#     Edge 193, Type (0, 0), BuildingBlock: AJUNOK_clean_linker_0, # of connection points: 2
#     Edge 194, Type (0, 0), BuildingBlock: AJUNOK_clean_linker_0, # of connection points: 2
#     Edge 195, Type (0, 0), BuildingBlock: AJUNOK_clean_linker_0, # of connection points: 2
#     Edge 196, Type (0, 0), BuildingBlock: AJUNOK_clean_linker_0, # of connection points: 2
#     Edge 197, Type (0, 0), BuildingBlock: AJUNOK_clean_linker_0, # of connection points: 2
#     Edge 198, Type (0, 0), BuildingBlock: AJUNOK_clean_linker_0, # of connection points: 2
#     Edge 199, Type (0, 0), BuildingBlock: AJUNOK_clean_linker_0, # of connection points: 2
#     Edge 200, Type (0, 0), BuildingBlock: AJUNOK_clean_linker_0, # of connection points: 2
#     Edge 201, Type (0, 0), BuildingBlock: AJUNOK_clean_linker_0, # of connection points: 2
#     Edge 202, Type (0, 0), BuildingBlock: AJUNOK_clean_linker_0, # of connection points: 2
#     Edge 203, Type (0, 0), BuildingBlock: AJUNOK_clean_linker_0, # of connection points: 2
#     Edge 204, Type (0, 0), BuildingBlock: AJUNOK_clean_linker_0, # of connection points: 2
#     Edge 205, Type (0, 0), BuildingBlock: AJUNOK_clean_linker_0, # of connection points: 2
#     Edge 206, Type (0, 0), BuildingBlock: AJUNOK_clean_linker_0, # of connection points: 2
#     Edge 207, Type (0, 0), BuildingBlock: AJUNOK_clean_linker_0, # of connection points: 2
#     Edge 208, Type (0, 0), BuildingBlock: AJUNOK_clean_linker_0, # of connection points: 2
#     Edge 209, Type (0, 0), BuildingBlock: AJUNOK_clean_linker_0, # of connection points: 2
#     Edge 210, Type (0, 0), BuildingBlock: AJUNOK_clean_linker_0, # of connection points: 2
#     Edge 211, Type (0, 0), BuildingBlock: AJUNOK_clean_linker_0, # of connection points: 2
#     Edge 212, Type (0, 0), BuildingBlock: AJUNOK_clean_linker_0, # of connection points: 2
#     Edge 213, Type (0, 0), BuildingBlock: AJUNOK_clean_linker_0, # of connection points: 2
#     Edge 214, Type (0, 0), BuildingBlock: AJUNOK_clean_linker_0, # of connection points: 2
#     Edge 215, Type (0, 0), BuildingBlock: AJUNOK_clean_linker_0, # of connection points: 2
#     Edge 216, Type (0, 0), BuildingBlock: AJUNOK_clean_linker_0, # of connection points: 2
#     Edge 217, Type (0, 0), BuildingBlock: AJUNOK_clean_linker_0, # of connection points: 2
#     Edge 218, Type (0, 0), BuildingBlock: AJUNOK_clean_linker_0, # of connection points: 2
#     Edge 219, Type (0, 0), BuildingBlock: AJUNOK_clean_linker_0, # of connection points: 2
#     Edge 220, Type (0, 0), BuildingBlock: AJUNOK_clean_linker_0, # of connection points: 2
#     Edge 221, Type (0, 0), BuildingBlock: AJUNOK_clean_linker_0, # of connection points: 2
#     Edge 222, Type (0, 0), BuildingBlock: AJUNOK_clean_linker_0, # of connection points: 2
#     Edge 223, Type (0, 0), BuildingBlock: AJUNOK_clean_linker_0, # of connection points: 2
#     Edge 224, Type (0, 0), BuildingBlock: AJUNOK_clean_linker_0, # of connection points: 2
#     Edge 225, Type (0, 0), BuildingBlock: AJUNOK_clean_linker_0, # of connection points: 2
#     Edge 226, Type (0, 0), BuildingBlock: AJUNOK_clean_linker_0, # of connection points: 2
#     Edge 227, Type (0, 0), BuildingBlock: AJUNOK_clean_linker_0, # of connection points: 2
#     Edge 228, Type (0, 0), BuildingBlock: AJUNOK_clean_linker_0, # of connection points: 2
#     Edge 229, Type (0, 0), BuildingBlock: AJUNOK_clean_linker_0, # of connection points: 2
#     Edge 230, Type (0, 0), BuildingBlock: AJUNOK_clean_linker_0, # of connection points: 2
#     Edge 231, Type (0, 0), BuildingBlock: AJUNOK_clean_linker_0, # of connection points: 2
#     Edge 232, Type (0, 0), BuildingBlock: AJUNOK_clean_linker_0, # of connection points: 2
#     Edge 233, Type (0, 0), BuildingBlock: AJUNOK_clean_linker_0, # of connection points: 2
#     Edge 234, Type (0, 0), BuildingBlock: AJUNOK_clean_linker_0, # of connection points: 2
#     Edge 235, Type (0, 0), BuildingBlock: AJUNOK_clean_linker_0, # of connection points: 2
#     Edge 236, Type (0, 0), BuildingBlock: AJUNOK_clean_linker_0, # of connection points: 2
#     Edge 237, Type (0, 0), BuildingBlock: AJUNOK_clean_linker_0, # of connection points: 2
#     Edge 238, Type (0, 0), BuildingBlock: AJUNOK_clean_linker_0, # of connection points: 2
#     Edge 239, Type (0, 0), BuildingBlock: AJUNOK_clean_linker_0, # of connection points: 2
#     Edge 240, Type (0, 0), BuildingBlock: AJUNOK_clean_linker_0, # of connection points: 2
#     Edge 241, Type (0, 0), BuildingBlock: AJUNOK_clean_linker_0, # of connection points: 2
#     Edge 242, Type (0, 0), BuildingBlock: AJUNOK_clean_linker_0, # of connection points: 2
#     Edge 243, Type (0, 0), BuildingBlock: AJUNOK_clean_linker_0, # of connection points: 2
#     Edge 244, Type (0, 0), BuildingBlock: AJUNOK_clean_linker_0, # of connection points: 2
#     Edge 245, Type (0, 0), BuildingBlock: AJUNOK_clean_linker_0, # of connection points: 2
#     Edge 246, Type (0, 0), BuildingBlock: AJUNOK_clean_linker_0, # of connection points: 2
#     Edge 247, Type (0, 0), BuildingBlock: AJUNOK_clean_linker_0, # of connection points: 2
#     Edge 248, Type (0, 0), BuildingBlock: AJUNOK_clean_linker_0, # of connection points: 2
#     Edge 249, Type (0, 0), BuildingBlock: AJUNOK_clean_linker_0, # of connection points: 2
#     Edge 250, Type (0, 0), BuildingBlock: AJUNOK_clean_linker_0, # of connection points: 2
#     Edge 251, Type (0, 0), BuildingBlock: AJUNOK_clean_linker_0, # of connection points: 2
#     Edge 252, Type (0, 0), BuildingBlock: AJUNOK_clean_linker_0, # of connection points: 2
#     Edge 253, Type (0, 0), BuildingBlock: AJUNOK_clean_linker_0, # of connection points: 2
#     Edge 254, Type (0, 0), BuildingBlock: AJUNOK_clean_linker_0, # of connection points: 2
#     Edge 255, Type (0, 0), BuildingBlock: AJUNOK_clean_linker_0, # of connection points: 2
#     Edge 256, Type (0, 0), BuildingBlock: AJUNOK_clean_linker_0, # of connection points: 2
#     Edge 257, Type (0, 0), BuildingBlock: AJUNOK_clean_linker_0, # of connection points: 2
#     Edge 258, Type (0, 0), BuildingBlock: AJUNOK_clean_linker_0, # of connection points: 2
#     Edge 259, Type (0, 0), BuildingBlock: AJUNOK_clean_linker_0, # of connection points: 2
#     Edge 260, Type (0, 0), BuildingBlock: AJUNOK_clean_linker_0, # of connection points: 2
#     Edge 261, Type (0, 0), BuildingBlock: AJUNOK_clean_linker_0, # of connection points: 2
#     Edge 262, Type (0, 0), BuildingBlock: AJUNOK_clean_linker_0, # of connection points: 2
#     Edge 263, Type (0, 0), BuildingBlock: AJUNOK_clean_linker_0, # of connection points: 2
#     Edge 264, Type (0, 0), BuildingBlock: AJUNOK_clean_linker_0, # of connection points: 2
#     Edge 265, Type (0, 0), BuildingBlock: AJUNOK_clean_linker_0, # of connection points: 2
#     Edge 266, Type (0, 0), BuildingBlock: AJUNOK_clean_linker_0, # of connection points: 2
#     Edge 267, Type (0, 0), BuildingBlock: AJUNOK_clean_linker_0, # of connection points: 2
#     Edge 268, Type (0, 0), BuildingBlock: AJUNOK_clean_linker_0, # of connection points: 2
#     Edge 269, Type (0, 0), BuildingBlock: AJUNOK_clean_linker_0, # of connection points: 2
#     Edge 270, Type (0, 0), BuildingBlock: AJUNOK_clean_linker_0, # of connection points: 2
#     Edge 271, Type (0, 0), BuildingBlock: AJUNOK_clean_linker_0, # of connection points: 2
#     Edge 272, Type (0, 0), BuildingBlock: AJUNOK_clean_linker_0, # of connection points: 2
#     Edge 273, Type (0, 0), BuildingBlock: AJUNOK_clean_linker_0, # of connection points: 2
#     Edge 274, Type (0, 0), BuildingBlock: AJUNOK_clean_linker_0, # of connection points: 2
#     Edge 275, Type (0, 0), BuildingBlock: AJUNOK_clean_linker_0, # of connection points: 2
#     Edge 276, Type (0, 0), BuildingBlock: AJUNOK_clean_linker_0, # of connection points: 2
#     Edge 277, Type (0, 0), BuildingBlock: AJUNOK_clean_linker_0, # of connection points: 2
#     Edge 278, Type (0, 0), BuildingBlock: AJUNOK_clean_linker_0, # of connection points: 2
#     Edge 279, Type (0, 0), BuildingBlock: AJUNOK_clean_linker_0, # of connection points: 2
#     Edge 280, Type (0, 0), BuildingBlock: AJUNOK_clean_linker_0, # of connection points: 2
#     Edge 281, Type (0, 0), BuildingBlock: AJUNOK_clean_linker_0, # of connection points: 2
#     Edge 282, Type (0, 0), BuildingBlock: AJUNOK_clean_linker_0, # of connection points: 2
#     Edge 283, Type (0, 0), BuildingBlock: AJUNOK_clean_linker_0, # of connection points: 2
#     Edge 284, Type (0, 0), BuildingBlock: AJUNOK_clean_linker_0, # of connection points: 2
#     Edge 285, Type (0, 0), BuildingBlock: AJUNOK_clean_linker_0, # of connection points: 2
#     Edge 286, Type (0, 0), BuildingBlock: AJUNOK_clean_linker_0, # of connection points: 2
#     Edge 287, Type (0, 0), BuildingBlock: AJUNOK_clean_linker_0, # of connection points: 2
#     Edge 288, Type (0, 0), BuildingBlock: AJUNOK_clean_linker_0, # of connection points: 2
#     Edge 289, Type (0, 0), BuildingBlock: AJUNOK_clean_linker_0, # of connection points: 2
#     Edge 290, Type (0, 0), BuildingBlock: AJUNOK_clean_linker_0, # of connection points: 2
#     Edge 291, Type (0, 0), BuildingBlock: AJUNOK_clean_linker_0, # of connection points: 2
#     Edge 292, Type (0, 0), BuildingBlock: AJUNOK_clean_linker_0, # of connection points: 2
#     Edge 293, Type (0, 0), BuildingBlock: AJUNOK_clean_linker_0, # of connection points: 2
#     Edge 294, Type (0, 0), BuildingBlock: AJUNOK_clean_linker_0, # of connection points: 2
#     Edge 295, Type (0, 0), BuildingBlock: AJUNOK_clean_linker_0, # of connection points: 2
#     Edge 296, Type (0, 0), BuildingBlock: AJUNOK_clean_linker_0, # of connection points: 2
#     Edge 297, Type (0, 0), BuildingBlock: AJUNOK_clean_linker_0, # of connection points: 2
#     Edge 298, Type (0, 0), BuildingBlock: AJUNOK_clean_linker_0, # of connection points: 2
#     Edge 299, Type (0, 0), BuildingBlock: AJUNOK_clean_linker_0, # of connection points: 2
#     Edge 300, Type (0, 0), BuildingBlock: AJUNOK_clean_linker_0, # of connection points: 2
#     Edge 301, Type (0, 0), BuildingBlock: AJUNOK_clean_linker_0, # of connection points: 2
#     Edge 302, Type (0, 0), BuildingBlock: AJUNOK_clean_linker_0, # of connection points: 2
#     Edge 303, Type (0, 0), BuildingBlock: AJUNOK_clean_linker_0, # of connection points: 2
#     Edge 304, Type (0, 0), BuildingBlock: AJUNOK_clean_linker_0, # of connection points: 2
#     Edge 305, Type (0, 0), BuildingBlock: AJUNOK_clean_linker_0, # of connection points: 2
#     Edge 306, Type (0, 0), BuildingBlock: AJUNOK_clean_linker_0, # of connection points: 2
#     Edge 307, Type (0, 0), BuildingBlock: AJUNOK_clean_linker_0, # of connection points: 2
#     Edge 308, Type (0, 0), BuildingBlock: AJUNOK_clean_linker_0, # of connection points: 2
#     Edge 309, Type (0, 0), BuildingBlock: AJUNOK_clean_linker_0, # of connection points: 2
#     Edge 310, Type (0, 0), BuildingBlock: AJUNOK_clean_linker_0, # of connection points: 2
#     Edge 311, Type (0, 0), BuildingBlock: AJUNOK_clean_linker_0, # of connection points: 2
#     Edge 312, Type (0, 0), BuildingBlock: AJUNOK_clean_linker_0, # of connection points: 2
#     Edge 313, Type (0, 0), BuildingBlock: AJUNOK_clean_linker_0, # of connection points: 2
#     Edge 314, Type (0, 0), BuildingBlock: AJUNOK_clean_linker_0, # of connection points: 2
#     Edge 315, Type (0, 0), BuildingBlock: AJUNOK_clean_linker_0, # of connection points: 2
#     Edge 316, Type (0, 0), BuildingBlock: AJUNOK_clean_linker_0, # of connection points: 2
#     Edge 317, Type (0, 0), BuildingBlock: AJUNOK_clean_linker_0, # of connection points: 2
#     Edge 318, Type (0, 0), BuildingBlock: AJUNOK_clean_linker_0, # of connection points: 2
#     Edge 319, Type (0, 0), BuildingBlock: AJUNOK_clean_linker_0, # of connection points: 2
#     Edge 320, Type (0, 0), BuildingBlock: AJUNOK_clean_linker_0, # of connection points: 2
#     Edge 321, Type (0, 0), BuildingBlock: AJUNOK_clean_linker_0, # of connection points: 2
#     Edge 322, Type (0, 0), BuildingBlock: AJUNOK_clean_linker_0, # of connection points: 2
#     Edge 323, Type (0, 0), BuildingBlock: AJUNOK_clean_linker_0, # of connection points: 2
#     Edge 324, Type (0, 0), BuildingBlock: AJUNOK_clean_linker_0, # of connection points: 2
#     Edge 325, Type (0, 0), BuildingBlock: AJUNOK_clean_linker_0, # of connection points: 2
#     Edge 326, Type (0, 0), BuildingBlock: AJUNOK_clean_linker_0, # of connection points: 2
#     Edge 327, Type (0, 0), BuildingBlock: AJUNOK_clean_linker_0, # of connection points: 2
#     Edge 328, Type (0, 0), BuildingBlock: AJUNOK_clean_linker_0, # of connection points: 2
#     Edge 329, Type (0, 0), BuildingBlock: AJUNOK_clean_linker_0, # of connection points: 2
#     Edge 330, Type (0, 0), BuildingBlock: AJUNOK_clean_linker_0, # of connection points: 2
#     Edge 331, Type (0, 0), BuildingBlock: AJUNOK_clean_linker_0, # of connection points: 2
#     Edge 332, Type (0, 0), BuildingBlock: AJUNOK_clean_linker_0, # of connection points: 2
#     Edge 333, Type (0, 0), BuildingBlock: AJUNOK_clean_linker_0, # of connection points: 2
#     Edge 334, Type (0, 0), BuildingBlock: AJUNOK_clean_linker_0, # of connection points: 2
#     Edge 335, Type (0, 0), BuildingBlock: AJUNOK_clean_linker_0, # of connection points: 2
#     Edge 336, Type (0, 0), BuildingBlock: AJUNOK_clean_linker_0, # of connection points: 2
#     Edge 337, Type (0, 0), BuildingBlock: AJUNOK_clean_linker_0, # of connection points: 2
#     Edge 338, Type (0, 0), BuildingBlock: AJUNOK_clean_linker_0, # of connection points: 2
#     Edge 339, Type (0, 0), BuildingBlock: AJUNOK_clean_linker_0, # of connection points: 2
#     Edge 340, Type (0, 0), BuildingBlock: AJUNOK_clean_linker_0, # of connection points: 2
#     Edge 341, Type (0, 0), BuildingBlock: AJUNOK_clean_linker_0, # of connection points: 2
#     Edge 342, Type (0, 0), BuildingBlock: AJUNOK_clean_linker_0, # of connection points: 2
#     Edge 343, Type (0, 0), BuildingBlock: AJUNOK_clean_linker_0, # of connection points: 2
#     Edge 344, Type (0, 0), BuildingBlock: AJUNOK_clean_linker_0, # of connection points: 2
#     Edge 345, Type (0, 0), BuildingBlock: AJUNOK_clean_linker_0, # of connection points: 2
#     Edge 346, Type (0, 0), BuildingBlock: AJUNOK_clean_linker_0, # of connection points: 2
#     Edge 347, Type (0, 0), BuildingBlock: AJUNOK_clean_linker_0, # of connection points: 2
#     Edge 348, Type (0, 0), BuildingBlock: AJUNOK_clean_linker_0, # of connection points: 2
#     Edge 349, Type (0, 0), BuildingBlock: AJUNOK_clean_linker_0, # of connection points: 2
#     Edge 350, Type (0, 0), BuildingBlock: AJUNOK_clean_linker_0, # of connection points: 2
#     Edge 351, Type (0, 0), BuildingBlock: AJUNOK_clean_linker_0, # of connection points: 2
#     Edge 352, Type (0, 0), BuildingBlock: AJUNOK_clean_linker_0, # of connection points: 2
#     Edge 353, Type (0, 0), BuildingBlock: AJUNOK_clean_linker_0, # of connection points: 2
#     Edge 354, Type (0, 0), BuildingBlock: AJUNOK_clean_linker_0, # of connection points: 2
#     Edge 355, Type (0, 0), BuildingBlock: AJUNOK_clean_linker_0, # of connection points: 2
#     Edge 356, Type (0, 0), BuildingBlock: AJUNOK_clean_linker_0, # of connection points: 2
#     Edge 357, Type (0, 0), BuildingBlock: AJUNOK_clean_linker_0, # of connection points: 2
#     Edge 358, Type (0, 0), BuildingBlock: AJUNOK_clean_linker_0, # of connection points: 2
#     Edge 359, Type (0, 0), BuildingBlock: AJUNOK_clean_linker_0, # of connection points: 2
#     Edge 360, Type (0, 0), BuildingBlock: AJUNOK_clean_linker_0, # of connection points: 2
#     Edge 361, Type (0, 0), BuildingBlock: AJUNOK_clean_linker_0, # of connection points: 2
#     Edge 362, Type (0, 0), BuildingBlock: AJUNOK_clean_linker_0, # of connection points: 2
#     Edge 363, Type (0, 0), BuildingBlock: AJUNOK_clean_linker_0, # of connection points: 2
#     Edge 364, Type (0, 0), BuildingBlock: AJUNOK_clean_linker_0, # of connection points: 2
#     Edge 365, Type (0, 0), BuildingBlock: AJUNOK_clean_linker_0, # of connection points: 2
#     Edge 366, Type (0, 0), BuildingBlock: AJUNOK_clean_linker_0, # of connection points: 2
#     Edge 367, Type (0, 0), BuildingBlock: AJUNOK_clean_linker_0, # of connection points: 2
#     Edge 368, Type (0, 0), BuildingBlock: AJUNOK_clean_linker_0, # of connection points: 2
#     Edge 369, Type (0, 0), BuildingBlock: AJUNOK_clean_linker_0, # of connection points: 2
#     Edge 370, Type (0, 0), BuildingBlock: AJUNOK_clean_linker_0, # of connection points: 2
#     Edge 371, Type (0, 0), BuildingBlock: AJUNOK_clean_linker_0, # of connection points: 2
#     Edge 372, Type (0, 0), BuildingBlock: AJUNOK_clean_linker_0, # of connection points: 2
#     Edge 373, Type (0, 0), BuildingBlock: AJUNOK_clean_linker_0, # of connection points: 2
#     Edge 374, Type (0, 0), BuildingBlock: AJUNOK_clean_linker_0, # of connection points: 2
#     Edge 375, Type (0, 0), BuildingBlock: AJUNOK_clean_linker_0, # of connection points: 2
#     Edge 376, Type (0, 0), BuildingBlock: AJUNOK_clean_linker_0, # of connection points: 2
#     Edge 377, Type (0, 0), BuildingBlock: AJUNOK_clean_linker_0, # of connection points: 2
#     Edge 378, Type (0, 0), BuildingBlock: AJUNOK_clean_linker_0, # of connection points: 2
#     Edge 379, Type (0, 0), BuildingBlock: AJUNOK_clean_linker_0, # of connection points: 2
#     Edge 380, Type (0, 0), BuildingBlock: AJUNOK_clean_linker_0, # of connection points: 2
#     Edge 381, Type (0, 0), BuildingBlock: AJUNOK_clean_linker_0, # of connection points: 2
#     Edge 382, Type (0, 0), BuildingBlock: AJUNOK_clean_linker_0, # of connection points: 2
#     Edge 383, Type (0, 0), BuildingBlock: AJUNOK_clean_linker_0, # of connection points: 2
# Relax obj value: 0.050
# Max RMSD: 0.135
# Mean RMSD: 0.135
data_MOF--net-ana-e--node1-MAKGUD_clean_sbu_1--edge1-AJUNOK_clean_linker_0
_symmetry_space_group_name_H-M    P1
_symmetry_Int_Tables_number       1
_symmetry_cell_setting            triclinic
loop_
_symmetry_equiv_pos_as_xyz
'x, y, z'
_cell_length_a     70.279249
_cell_length_b     70.109149
_cell_length_c     70.230237
_cell_angle_alpha  90.076983
_cell_angle_beta   89.926225
_cell_angle_gamma 89.985641
loop_
_atom_site_label
_atom_site_type_symbol
_atom_site_fract_x
_atom_site_fract_y
_atom_site_fract_z
_atom_type_partial_charge
O0 O 1.00147 0.18945 0.38611 0.0
Tb1 Tb 1.01398 0.16155 0.38115 0.0
C2 C 0.02563 0.12445 0.40656 0.0
O3 O 0.05107 0.16576 0.41033 0.0
Tb4 Tb 0.06398 0.13913 0.42174 0.0
C5 C 0.0746 0.13868 0.45871 0.0
O6 O 0.04135 0.17657 0.38109 0.0
O7 O 0.09111 0.13226 0.40791 0.0
C8 C 0.09784 0.13935 0.39191 0.0
O9 O 0.0866 0.14918 0.38073 0.0
O10 O 0.02871 0.14088 0.39838 0.0
O11 O 0.03981 0.11898 0.41758 0.0
O12 O 1.00472 0.15576 0.35219 0.0
C13 C 0.05507 0.17455 0.39401 0.0
C14 C 0.98614 0.18349 0.39466 0.0
O15 O 0.07089 0.15397 0.4488 0.0
O16 O 0.07171 0.12396 0.44785 0.0
C17 C 1.005 0.13946 0.34295 0.0
O18 O 1.01474 0.1249 0.34949 0.0
O19 O 0.98699 0.16497 0.3966 0.0
O20 O 0.16314 0.82787 0.69235 0.0
Tb21 Tb 0.14616 0.81898 0.66796 0.0
C22 C 0.11084 0.80585 0.64315 0.0
O23 O 0.1499 0.78488 0.63809 0.0
Tb24 Tb 0.126 0.7679 0.62746 0.0
C25 C 0.11266 0.73699 0.64525 0.0
O26 O 0.16627 0.79499 0.66366 0.0
O27 O 0.12309 0.75957 0.59761 0.0
C28 C 0.13763 0.75361 0.5874 0.0
O29 O 0.15474 0.75956 0.59187 0.0
O30 O 0.12266 0.8014 0.6571 0.0
O31 O 0.10745 0.79284 0.62991 0.0
O32 O 0.14933 0.8453 0.65136 0.0
C33 C 0.16261 0.7811 0.65136 0.0
C34 C 0.14922 0.83044 0.70432 0.0
O35 O 0.12896 0.73813 0.63644 0.0
O36 O 0.10464 0.75376 0.64518 0.0
C37 C 0.13687 0.85921 0.65385 0.0
O38 O 0.12192 0.85607 0.6646 0.0
O39 O 0.13323 0.82584 0.69594 0.0
O40 O 0.46531 0.91218 0.94308 0.0
Tb41 Tb 0.47203 0.89752 0.91617 0.0
C42 C 0.48422 0.86263 0.89012 0.0
O43 O 0.50503 0.90191 0.88597 0.0
Tb44 Tb 0.52135 0.87878 0.87299 0.0
C45 C 0.55161 0.86291 0.88959 0.0
O46 O 0.49684 0.91705 0.91291 0.0
O47 O 0.52844 0.87725 0.84267 0.0
C48 C 0.52547 0.89071 0.82997 0.0
O49 O 0.51438 0.90516 0.83432 0.0
O50 O 0.48902 0.87357 0.90478 0.0
O51 O 0.49643 0.86051 0.87589 0.0
O52 O 0.44654 0.90224 0.89877 0.0
C53 C 0.50986 0.91395 0.89952 0.0
C54 C 0.45863 0.89751 0.95231 0.0
O55 O 0.55123 0.87996 0.88216 0.0
O56 O 0.5346 0.8556 0.88881 0.0
C57 C 0.43355 0.8886 0.89863 0.0
O58 O 0.43739 0.87264 0.9076 0.0
O59 O 0.4604 0.88249 0.94138 0.0
O60 O 0.37498 0.21955 0.19992 0.0
Tb61 Tb 0.38515 0.21938 0.17011 0.0
C62 C 0.41932 0.23099 0.14295 0.0
O63 O 0.38901 0.26246 0.15905 0.0
Tb64 Tb 0.40679 0.27347 0.13623 0.0
C65 C 0.43223 0.30075 0.14362 0.0
O66 O 0.36449 0.24248 0.16392 0.0
O67 O 0.39228 0.28476 0.11136 0.0
C68 C 0.38567 0.30222 0.113 0.0
O69 O 0.38496 0.30971 0.13014 0.0
O70 O 0.41126 0.23347 0.15983 0.0
O71 O 0.42035 0.24578 0.13124 0.0
O72 O 0.37537 0.1932 0.15629 0.0
C73 C 0.37065 0.25922 0.15775 0.0
C74 C 0.38727 0.20728 0.20654 0.0
O75 O 0.41609 0.29861 0.15256 0.0
O76 O 0.43438 0.28683 0.13154 0.0
C77 C 0.38465 0.18416 0.1427 0.0
O78 O 0.39659 0.1936 0.13188 0.0
O79 O 0.39884 0.20274 0.19281 0.0
O80 O 0.07935 0.91436 0.09399 0.0
Tb81 Tb 0.06522 0.89868 0.11693 0.0
C82 C 0.05461 0.86318 0.14298 0.0
O83 O 0.03065 0.89881 0.14151 0.0
Tb84 Tb 1.01566 0.87869 0.15953 0.0
C85 C 0.98706 0.85636 0.14832 0.0
O86 O 0.04214 0.91992 0.12144 0.0
O87 O 1.00924 0.88519 0.18932 0.0
C88 C 1.00456 0.90202 0.19621 0.0
O89 O 1.008 0.91739 0.18615 0.0
O90 O 0.05021 0.87284 0.12732 0.0
O91 O 0.04216 0.8622 0.15726 0.0
O92 O 0.09122 0.89988 0.13413 0.0
C93 C 0.02797 0.91514 0.13286 0.0
C94 C 0.07874 0.90111 0.08104 0.0
O95 O 0.98852 0.87451 0.14429 0.0
O96 O 1.00208 0.85092 0.15765 0.0
C97 C 0.10471 0.88724 0.13057 0.0
O98 O 0.10136 0.87382 0.11798 0.0
O99 O 0.06985 0.88636 0.08817 0.0
O100 O 0.37301 0.83003 0.34273 0.0
Tb101 Tb 0.38785 0.81449 0.36513 0.0
C102 C 0.42284 0.80643 0.39222 0.0
O103 O 0.38873 0.78059 0.38886 0.0
Tb104 Tb 0.40867 0.76663 0.40747 0.0
C105 C 0.43264 0.73845 0.39908 0.0
O106 O 0.3672 0.79086 0.36882 0.0
O107 O 0.39735 0.75914 0.43509 0.0
C108 C 0.39039 0.74185 0.43672 0.0
O109 O 0.38792 0.73172 0.42117 0.0
O110 O 0.41453 0.80155 0.37596 0.0
O111 O 0.42377 0.794 0.40649 0.0
O112 O 0.38565 0.84019 0.38285 0.0
C113 C 0.37238 0.7773 0.38067 0.0
C114 C 0.3859 0.82842 0.32955 0.0
O115 O 0.41559 0.74029 0.39175 0.0
O116 O 0.43628 0.753 0.41002 0.0
C117 C 0.39862 0.85366 0.38072 0.0
O118 O 0.41318 0.85026 0.36947 0.0
O119 O 0.40008 0.81844 0.33629 0.0
O120 O 0.53956 0.18272 0.65091 0.0
Tb121 Tb 0.52406 0.1565 0.65718 0.0
C122 C 0.50958 0.12106 0.63125 0.0
O123 O 0.48981 0.16306 0.62524 0.0
Tb124 Tb 0.47287 0.13834 0.61511 0.0
C125 C 0.46007 0.13859 0.57893 0.0
O126 O 0.49877 0.17475 0.65456 0.0
O127 O 0.44736 0.13309 0.63233 0.0
C128 C 0.43451 0.1468 0.63355 0.0
O129 O 0.43852 0.16344 0.626 0.0
O130 O 0.50679 0.13663 0.6411 0.0
O131 O 0.49592 0.11698 0.61903 0.0
O132 O 0.52874 0.14916 0.68686 0.0
C133 C 0.48592 0.17325 0.64072 0.0
C134 C 0.55494 0.17464 0.64441 0.0
O135 O 0.4598 0.15305 0.59062 0.0
O136 O 0.46831 0.12433 0.58744 0.0
C137 C 0.54363 0.13858 0.69093 0.0
O138 O 0.55394 0.13185 0.67683 0.0
O139 O 0.5527 0.15611 0.64423 0.0
O140 O 0.16947 0.21479 0.84254 0.0
Tb141 Tb 0.15302 0.22305 0.86801 0.0
C142 C 0.11605 0.23132 0.89225 0.0
O143 O 0.14859 0.25906 0.89259 0.0
Tb144 Tb 0.12528 0.27193 0.90866 0.0
C145 C 0.10154 0.29827 0.89478 0.0
O146 O 0.17214 0.24769 0.87496 0.0
O147 O 0.12596 0.27971 0.93883 0.0
C148 C 0.14061 0.2849 0.94926 0.0
O149 O 0.15789 0.27972 0.94434 0.0
O150 O 0.12619 0.23673 0.87727 0.0
O151 O 0.11199 0.24382 0.90588 0.0
O152 O 0.15677 0.19663 0.88428 0.0
C153 C 0.16589 0.26181 0.88598 0.0
C154 C 0.15514 0.2105 0.83159 0.0
O155 O 0.11997 0.29848 0.89268 0.0
O156 O 0.09666 0.28253 0.90327 0.0
C157 C 0.14425 0.1828 0.88175 0.0
O158 O 0.12925 0.18617 0.87115 0.0
O159 O 0.13952 0.21434 0.84092 0.0
O160 O 0.43804 0.08481 0.11857 0.0
Tb161 Tb 0.41772 0.06555 0.13246 0.0
C162 C 0.39403 0.05674 0.16958 0.0
O163 O 0.40615 0.02521 0.13792 0.0
Tb164 Tb 0.38238 1.01575 0.15498 0.0
C165 C 0.38813 0.98652 0.17845 0.0
O166 O 0.41239 0.04216 0.11197 0.0
O167 O 0.35548 1.00999 0.14087 0.0
C168 C 0.35267 0.9934 0.13255 0.0
O169 O 0.36743 0.98247 0.12892 0.0
O170 O 0.41037 0.05369 0.16066 0.0
O171 O 0.38085 0.04319 0.16996 0.0
O172 O 0.39888 0.09033 0.1322 0.0
C173 C 0.40639 0.02594 0.1193 0.0
C174 C 0.45242 0.08165 0.12975 0.0
O175 O 0.39606 0.98841 0.16179 0.0
O176 O 0.37762 1.00136 0.18206 0.0
C177 C 0.40156 0.10332 0.14553 0.0
O178 O 0.41407 0.09978 0.15895 0.0
O179 O 0.44746 0.06872 0.14216 0.0
O180 O 0.21476 0.19516 0.37127 0.0
Tb181 Tb 0.21668 0.16652 0.38416 0.0
C182 C 0.23063 0.14276 0.42047 0.0
O183 O 0.26076 0.15845 0.38773 0.0
Tb184 Tb 0.27196 0.13676 0.40671 0.0
C185 C 0.3028 0.14582 0.42663 0.0
O186 O 0.23987 0.16005 0.36355 0.0
O187 O 0.27689 0.10702 0.39931 0.0
C188 C 0.2903 0.10237 0.38709 0.0
O189 O 0.29762 0.11572 0.37624 0.0
O190 O 0.23237 0.15843 0.41012 0.0
O191 O 0.24607 0.13234 0.42314 0.0
O192 O 0.19024 0.15205 0.3761 0.0
C193 C 0.25718 0.15569 0.36965 0.0
C194 C 0.20519 0.20318 0.38504 0.0
O195 O 0.30274 0.14068 0.40883 0.0
O196 O 0.28536 0.14677 0.43294 0.0
C197 C 0.18082 0.14036 0.38734 0.0
O198 O 0.18965 0.13279 0.40192 0.0
O199 O 0.203 0.19073 0.39858 0.0
O200 O 0.1383 0.04211 0.67799 0.0
Tb201 Tb 0.15623 0.02593 0.65825 0.0
C202 C 0.13146 1.0145 0.62211 0.0
O203 O 0.12483 0.99212 0.66329 0.0
Tb204 Tb 0.11413 0.97666 0.63782 0.0
C205 C 0.07723 0.9656 0.63674 0.0
O206 O 0.15235 1.00201 0.67733 0.0
O207 O 0.12806 0.94923 0.63156 0.0
C208 C 0.142 0.94112 0.64116 0.0
O209 O 0.15245 0.95156 0.65261 0.0
O210 O 0.14424 1.00959 0.6348 0.0
O211 O 0.11822 1.00152 0.61844 0.0
O212 O 0.18673 0.02875 0.66268 0.0
C213 C 0.13949 0.98845 0.67472 0.0
C214 C 0.14348 0.05904 0.67222 0.0
O215 O 0.08696 0.96931 0.65213 0.0
O216 O 0.08807 0.9692 0.62215 0.0
C217 C 0.19964 0.02886 0.64912 0.0
O218 O 0.19627 0.01967 0.63318 0.0
O219 O 0.15471 0.05717 0.65753 0.0
O220 O 0.31836 0.83982 0.87444 0.0
Tb221 Tb 0.31609 0.86925 0.88584 0.0
C222 C 0.30582 0.89413 0.9229 0.0
O223 O 0.28141 0.89492 0.88705 0.0
Tb224 Tb 0.26653 0.91058 0.90939 0.0
C225 C 0.2377 0.89591 0.92959 0.0
O226 O 0.29134 0.87326 0.86637 0.0
O227 O 0.25984 0.94095 0.90621 0.0
C228 C 0.2634 0.9518 0.89133 0.0
O229 O 0.2737 0.94507 0.87722 0.0
O230 O 0.30132 0.87928 0.91202 0.0
O231 O 0.29302 0.90782 0.92561 0.0
O232 O 0.34174 0.88424 0.87612 0.0
C233 C 0.27748 0.88498 0.87165 0.0
C234 C 0.32966 0.83319 0.88758 0.0
O235 O 0.23903 0.89551 0.91104 0.0
O236 O 0.25294 0.90387 0.93646 0.0
C237 C 0.35213 0.8952 0.88732 0.0
O238 O 0.34427 0.90278 0.90246 0.0
O239 O 0.33229 0.84663 0.90006 0.0
O240 O 0.45127 0.96813 0.41251 0.0
Tb241 Tb 0.42228 0.96997 0.40047 0.0
C242 C 0.39377 0.98152 0.3664 0.0
O243 O 0.39825 1.00515 0.40131 0.0
Tb244 Tb 0.38021 0.02171 0.38278 0.0
C245 C 0.39011 0.04976 0.35943 0.0
O246 O 0.4188 0.9933 0.42171 0.0
O247 O 0.35198 0.02993 0.39268 0.0
C248 C 0.34945 0.04779 0.39797 0.0
O249 O 0.36443 0.05878 0.39998 0.0
O250 O 0.41046 0.98469 0.37486 0.0
O251 O 0.38036 0.99501 0.36648 0.0
O252 O 0.40933 0.94264 0.40858 0.0
C253 C 0.40738 1.00756 0.41731 0.0
C254 C 0.45921 0.95925 0.3983 0.0
O255 O 0.39692 0.04758 0.37667 0.0
O256 O 0.37879 0.03567 0.35532 0.0
C257 C 0.3947 0.9344 0.40014 0.0
O258 O 0.38312 0.94474 0.38977 0.0
O259 O 0.44657 0.95746 0.38495 0.0
O260 O 0.25123 0.13955 0.60216 0.0
Tb261 Tb 0.26523 0.13138 0.62863 0.0
C262 C 0.28086 0.15619 0.6646 0.0
O263 O 0.303 0.15962 0.62186 0.0
Tb264 Tb 0.31841 0.17054 0.64736 0.0
C265 C 0.33088 0.20697 0.64483 0.0
O266 O 0.29123 0.13095 0.61124 0.0
O267 O 0.34455 0.15625 0.6567 0.0
C268 C 0.35312 0.14245 0.6472 0.0
O269 O 0.34336 0.13254 0.63474 0.0
O270 O 0.28233 0.14817 0.6479 0.0
O271 O 0.29555 0.16702 0.66919 0.0
O272 O 0.25908 0.10185 0.63598 0.0
C273 C 0.30565 0.14323 0.6126 0.0
C274 C 0.23519 0.14496 0.60977 0.0
O275 O 0.33527 0.19306 0.63337 0.0
O276 O 0.31862 0.20051 0.65717 0.0
C277 C 0.24371 0.09827 0.64607 0.0
O278 O 0.23385 0.11271 0.65278 0.0
O279 O 0.2364 0.14372 0.62829 0.0
O280 O 0.09554 0.07069 0.91238 0.0
Tb281 Tb 0.12135 0.06477 0.89598 0.0
C282 C 0.14808 0.05347 0.85989 0.0
O283 O 0.15091 0.03124 0.89864 0.0
Tb284 Tb 0.1628 1.01459 0.87528 0.0
C285 C 0.14561 0.98361 0.8613 0.0
O286 O 0.12559 0.04032 0.91561 0.0
O287 O 0.19308 1.00758 0.87328 0.0
C288 C 0.20596 1.01086 0.88647 0.0
O289 O 0.20162 0.02171 0.90111 0.0
O290 O 0.13318 0.04951 0.87094 0.0
O291 O 0.16078 0.03971 0.85704 0.0
O292 O 0.13404 0.09269 0.90245 0.0
C293 C 0.13819 0.02685 0.91165 0.0
C294 C 0.08402 0.07371 0.89825 0.0
O295 O 0.15476 0.98443 0.87742 0.0
O296 O 0.14526 1.00057 0.85371 0.0
C297 C 0.14883 0.1009 0.89429 0.0
O298 O 0.16053 0.0906 0.88396 0.0
O299 O 0.09346 0.07093 0.88244 0.0
O300 O 0.21791 0.8364 0.1591 0.0
Tb301 Tb 0.2226 0.86387 0.14498 0.0
C302 C 0.23708 0.88939 0.10975 0.0
O303 O 0.25654 0.89298 0.14907 0.0
Tb304 Tb 0.27429 0.90525 0.12664 0.0
C305 C 0.30605 0.89011 0.11216 0.0
O306 O 0.24666 0.86724 0.16521 0.0
O307 O 0.28011 0.9357 0.12403 0.0
C308 C 0.28548 0.94639 0.13847 0.0
O309 O 0.28181 0.94068 0.15587 0.0
O310 O 0.24058 0.87506 0.12157 0.0
O311 O 0.25039 0.9025 0.10715 0.0
O312 O 0.19607 0.8784 0.15311 0.0
C313 C 0.26035 0.87982 0.16183 0.0
C314 C 0.21092 0.82724 0.14457 0.0
O315 O 0.30491 0.89932 0.12829 0.0
O316 O 0.28897 0.88811 0.1052 0.0
C317 C 0.18616 0.88956 0.14174 0.0
O318 O 0.19441 0.89682 0.12669 0.0
O319 O 0.21155 0.83853 0.12976 0.0
O320 O 0.1222 0.44683 0.07158 0.0
Tb321 Tb 0.13483 0.41795 0.07043 0.0
C322 C 0.1706 0.39126 0.06166 0.0
O323 O 0.14206 0.40649 0.02828 0.0
Tb324 Tb 0.15874 0.38204 0.01949 0.0
C325 C 0.18386 0.38753 0.99161 0.0
O326 O 0.11592 0.41214 0.04561 0.0
O327 O 0.14673 0.35406 1.01339 0.0
C328 C 0.13635 0.35184 0.99796 0.0
O329 O 0.13051 0.36715 0.98894 0.0
O330 O 0.16229 0.40795 0.05845 0.0
O331 O 0.17167 0.37867 0.04757 0.0
O332 O 0.12561 0.40395 0.09678 0.0
C333 C 0.12347 0.40667 0.0292 0.0
C334 C 0.13557 0.45494 0.08155 0.0
O335 O 0.16548 0.38849 0.98967 0.0
O336 O 0.188 0.38442 1.00941 0.0
C337 C 0.13484 0.38971 0.10481 0.0
O338 O 0.14705 0.37998 0.09456 0.0
O339 O 0.14889 0.44236 0.08437 0.0
O340 O 0.62313 0.09385 0.9622 0.0
Tb341 Tb 0.64127 0.11666 0.97315 0.0
C342 C 0.67639 0.14075 0.98864 0.0
O343 O 0.63843 0.14568 1.00691 0.0
Tb344 Tb 0.66011 0.15576 0.02665 0.0
C345 C 0.67379 0.13751 0.05698 0.0
O346 O 0.61944 0.12295 0.99526 0.0
O347 O 0.66055 0.18564 0.03502 0.0
C348 C 0.64875 0.19109 0.04852 0.0
O349 O 0.63586 0.179 0.05457 0.0
O350 O 0.66456 0.12633 0.99186 0.0
O351 O 0.67937 0.15336 1.00241 0.0
O352 O 0.64398 0.13341 0.94674 0.0
C353 C 0.62335 0.13499 1.00926 0.0
C354 C 0.63586 0.08035 0.96178 0.0
O355 O 0.6565 0.14417 0.05545 0.0
O356 O 0.68266 0.13998 0.04088 0.0
C357 C 0.64461 0.12429 0.93019 0.0
O358 O 0.6434 0.10563 0.93017 0.0
O359 O 0.65179 0.08719 0.96857 0.0
O360 O 0.19499 0.37382 0.21646 0.0
Tb361 Tb 0.16832 0.38909 0.22278 0.0
C362 C 0.14419 0.42679 0.2354 0.0
O363 O 0.13929 0.38795 0.25745 0.0
Tb364 Tb 0.13012 0.4125 0.27433 0.0
C365 C 0.14878 0.4252 0.30492 0.0
O366 O 0.16437 0.37036 0.24819 0.0
O367 O 0.10056 0.41736 0.28261 0.0
C368 C 0.08604 0.40599 0.27938 0.0
O369 O 0.08806 0.39152 0.26766 0.0
O370 O 0.15787 0.41416 0.23891 0.0
O371 O 0.13256 0.43104 0.24961 0.0
O372 O 0.15271 0.38054 0.19709 0.0
C373 C 0.15175 0.37461 0.26169 0.0
C374 C 0.20487 0.38838 0.21057 0.0
O375 O 0.13847 0.40974 0.30422 0.0
O376 O 0.14965 0.43259 0.2879 0.0
C377 C 0.14029 0.39113 0.18784 0.0
O378 O 0.13294 0.40606 0.19632 0.0
O379 O 0.19434 0.40363 0.21246 0.0
O380 O 0.9123 0.95059 0.46355 0.0
Tb381 Tb 0.89783 0.92398 0.47176 0.0
C382 C 0.86252 0.89819 0.48311 0.0
O383 O 0.89969 0.89635 0.50503 0.0
Tb384 Tb 0.87777 0.88205 0.52167 0.0
C385 C 0.85932 0.89755 0.55107 0.0
O386 O 0.91772 0.92074 0.49599 0.0
O387 O 0.88191 0.85231 0.5299 0.0
C388 C 0.89123 0.84891 0.54582 0.0
O389 O 0.89909 0.86324 0.55488 0.0
O390 O 0.87292 0.91327 0.48784 0.0
O391 O 0.86051 0.88412 0.49564 0.0
O392 O 0.90302 0.90633 0.44664 0.0
C393 C 0.91365 0.90803 0.50927 0.0
C394 C 0.89724 0.95975 0.45782 0.0
O395 O 0.87778 0.89566 0.54991 0.0
O396 O 0.8516 0.89178 0.53525 0.0
C397 C 0.88984 0.90631 0.4333 0.0
O398 O 0.87376 0.91522 0.43666 0.0
O399 O 0.88237 0.94902 0.46092 0.0
O400 O 0.84195 0.16661 0.20828 0.0
Tb401 Tb 0.86475 0.1514 0.22298 0.0
C402 C 0.89215 0.11644 0.23201 0.0
O403 O 0.89125 0.15267 0.25532 0.0
Tb404 Tb 0.90912 0.13259 0.27025 0.0
C405 C 0.89913 0.11068 0.29935 0.0
O406 O 0.86866 0.17236 0.24637 0.0
O407 O 0.93729 0.14257 0.27801 0.0
C408 C 0.95093 0.13001 0.28098 0.0
O409 O 0.94895 0.11263 0.27427 0.0
O410 O 0.87633 0.12554 0.23711 0.0
O411 O 0.90697 0.11605 0.24382 0.0
O412 O 0.8821 0.15318 0.19709 0.0
C413 C 0.88149 0.16805 0.25934 0.0
C414 C 0.829 0.1534 0.20924 0.0
O415 O 0.89344 0.12833 0.29707 0.0
O416 O 0.9093 0.10537 0.28479 0.0
C417 C 0.87876 0.14059 0.18351 0.0
O418 O 0.8663 0.12703 0.18678 0.0
O419 O 0.83606 0.13888 0.21856 0.0
O420 O 0.41621 0.59339 0.57979 0.0
Tb421 Tb 0.40071 0.61686 0.56615 0.0
C422 C 0.36425 0.64202 0.55736 0.0
O423 O 0.39865 0.63972 0.53082 0.0
Tb424 Tb 0.37739 0.6575 0.51739 0.0
C425 C 0.35458 0.64601 0.48928 0.0
O426 O 0.42064 0.62049 0.5418 0.0
O427 O 0.38075 0.68788 0.51236 0.0
C428 C 0.39577 0.69572 0.5045 0.0
O429 O 0.41253 0.68771 0.50635 0.0
O430 O 0.37386 0.62639 0.55269 0.0
O431 O 0.3622 0.65585 0.54461 0.0
O432 O 0.40319 0.63519 0.59125 0.0
C433 C 0.41504 0.63142 0.52757 0.0
C434 C 0.40215 0.58138 0.58067 0.0
O435 O 0.37317 0.64596 0.48848 0.0
O436 O 0.34925 0.65123 0.50626 0.0
C437 C 0.39151 0.63158 0.60551 0.0
O438 O 0.37877 0.61807 0.60338 0.0
O439 O 0.38731 0.58916 0.57266 0.0
O440 O 0.19483 0.66524 0.32711 0.0
Tb441 Tb 0.1718 0.64849 0.31464 0.0
C442 C 0.14706 0.61218 0.30299 0.0
O443 O 0.14257 0.6523 0.28222 0.0
Tb444 Tb 0.12963 0.6289 0.26655 0.0
C445 C 0.14191 0.61425 0.23358 0.0
O446 O 0.16828 0.6687 0.2906 0.0
O447 O 0.09887 0.62811 0.264 0.0
C448 C 0.08896 0.64349 0.26003 0.0
O449 O 0.09621 0.66026 0.26413 0.0
O450 O 0.16128 0.62371 0.29825 0.0
O451 O 0.13311 0.60961 0.29058 0.0
O452 O 0.15373 0.65028 0.34004 0.0
C453 C 0.15536 0.66506 0.27741 0.0
C454 C 0.20748 0.65173 0.32812 0.0
O455 O 0.13103 0.62919 0.23532 0.0
O456 O 0.1468 0.60835 0.25049 0.0
C457 C 0.15682 0.6379 0.35384 0.0
O458 O 0.16959 0.62451 0.35111 0.0
O459 O 0.20015 0.63613 0.32097 0.0
O460 O 0.34125 0.3671 0.82776 0.0
Tb461 Tb 0.36611 0.38236 0.816 0.0
C462 C 0.38977 0.41938 0.80651 0.0
O463 O 0.37841 0.38861 0.77436 0.0
Tb464 Tb 0.40263 0.40581 0.766 0.0
C465 C 0.3993 0.42951 0.73655 0.0
O466 O 0.37245 0.3627 0.79199 0.0
O467 O 0.42892 0.39039 0.76091 0.0
C468 C 0.43116 0.38107 0.74481 0.0
O469 O 0.41612 0.37763 0.73429 0.0
O470 O 0.37421 0.40956 0.80254 0.0
O471 O 0.40314 0.42098 0.79329 0.0
O472 O 0.38337 0.3812 0.84185 0.0
C473 C 0.37861 0.37 0.77574 0.0
C474 C 0.33004 0.38185 0.82903 0.0
O475 O 0.38959 0.41381 0.73869 0.0
O476 O 0.41007 0.43217 0.75134 0.0
C477 C 0.37992 0.39447 0.85473 0.0
O478 O 0.36729 0.40766 0.85073 0.0
O479 O 0.33894 0.39657 0.82205 0.0
O480 O 0.96438 0.91805 0.58973 0.0
Tb481 Tb 0.96884 0.904 0.61731 0.0
C482 C 0.98196 0.86874 0.64365 0.0
O483 O 1.00528 0.90387 0.63975 0.0
Tb484 Tb 0.02222 0.8849 0.65694 0.0
C485 C 0.05041 0.86175 0.64689 0.0
O486 O 0.99243 0.92508 0.62057 0.0
O487 O 0.0301 0.89443 0.68532 0.0
C488 C 0.04681 0.90252 0.68774 0.0
O489 O 0.0564 0.90804 0.67266 0.0
O490 O 0.98455 0.87826 0.62744 0.0
O491 O 0.99586 0.86812 0.65655 0.0
O492 O 0.9421 0.91168 0.63177 0.0
C493 C 1.00704 0.92038 0.6314 0.0
C494 C 0.9569 0.90366 0.58076 0.0
O495 O 0.04826 0.87915 0.64034 0.0
O496 O 0.03622 0.85742 0.65798 0.0
C497 C 0.93278 0.90063 0.64378 0.0
O498 O 0.94183 0.88652 0.65199 0.0
O499 O 0.95715 0.889 0.59217 0.0
O500 O 0.87223 0.21878 0.33947 0.0
Tb501 Tb 0.88599 0.22384 0.36715 0.0
C502 C 0.92102 0.23445 0.39421 0.0
O503 O 0.88564 0.25799 0.39302 0.0
Tb504 Tb 0.90599 0.27375 0.40999 0.0
C505 C 0.92984 0.30077 0.39847 0.0
O506 O 0.86573 0.24794 0.37098 0.0
O507 O 0.89732 0.28265 0.4385 0.0
C508 C 0.89363 0.30091 0.44106 0.0
O509 O 0.89316 0.31214 0.42613 0.0
O510 O 0.91141 0.23895 0.37856 0.0
O511 O 0.92197 0.24686 0.40856 0.0
O512 O 0.878 0.1972 0.38141 0.0
C513 C 0.87031 0.2616 0.38312 0.0
C514 C 0.887 0.21205 0.3305 0.0
O515 O 0.91224 0.29908 0.3925 0.0
O516 O 0.93388 0.28682 0.40996 0.0
C517 C 0.88786 0.1887 0.39491 0.0
O518 O 0.90073 0.19843 0.40425 0.0
O519 O 0.90155 0.21297 0.34198 0.0
O520 O 0.57375 0.1236 0.08922 0.0
Tb521 Tb 0.56216 0.13907 0.11381 0.0
C522 C 0.54989 0.17512 0.13849 0.0
O523 O 0.5284 0.13795 0.13988 0.0
Tb524 Tb 0.51161 0.15957 0.15407 0.0
C525 C 0.48026 0.17531 0.1396 0.0
O526 O 0.53839 0.11846 0.11721 0.0
O527 O 0.50691 0.15796 0.18459 0.0
C528 C 0.49725 0.14353 0.19157 0.0
O529 O 0.49368 0.1289 0.18042 0.0
O530 O 0.54588 0.16441 0.12341 0.0
O531 O 0.5367 0.17778 0.15178 0.0
O532 O 0.58729 0.13662 0.13194 0.0
C533 C 0.52469 0.12317 0.1292 0.0
C534 C 0.57655 0.13831 0.07829 0.0
O535 O 0.49713 0.18302 0.1397 0.0
O536 O 0.48128 0.15819 0.14681 0.0
C537 C 0.60067 0.14957 0.12947 0.0
O538 O 0.59731 0.16361 0.11758 0.0
O539 O 0.57043 0.15351 0.08715 0.0
O540 O 0.66418 0.82199 0.83681 0.0
Tb541 Tb 0.6525 0.81818 0.86569 0.0
C542 C 0.61286 0.80695 0.89268 0.0
O543 O 0.64853 0.77946 0.88756 0.0
Tb544 Tb 0.62715 0.76617 0.9059 0.0
C545 C 0.60555 0.73621 0.89671 0.0
O546 O 0.67073 0.79207 0.86878 0.0
O547 O 0.63375 0.76191 0.93598 0.0
C548 C 0.64995 0.75564 0.94295 0.0
O549 O 0.66525 0.75583 0.93224 0.0
O550 O 0.62922 0.80655 0.88334 0.0
O551 O 0.60879 0.79161 0.90305 0.0
O552 O 0.66278 0.84455 0.87877 0.0
C553 C 0.66502 0.77714 0.87904 0.0
C554 C 0.64886 0.82878 0.82892 0.0
O555 O 0.62326 0.73841 0.89144 0.0
O556 O 0.6001 0.75107 0.90629 0.0
C557 C 0.65495 0.85247 0.8939 0.0
O558 O 0.64393 0.84208 0.90487 0.0
O559 O 0.6352 0.82837 0.84156 0.0
O560 O 0.95751 0.11609 0.94234 0.0
Tb561 Tb 0.97452 0.13172 0.92155 0.0
C562 C 0.98494 0.16826 0.89809 0.0
O563 O 1.0153 0.1364 0.90881 0.0
Tb564 Tb 0.02523 0.15345 0.88524 0.0
C565 C 0.05478 0.1766 0.89034 0.0
O566 O 0.99727 0.11085 0.91433 0.0
O567 O 0.02989 0.13969 0.85791 0.0
C568 C 0.04532 0.12951 0.85493 0.0
O569 O 0.05537 0.12391 0.86963 0.0
O570 O 0.98823 0.15896 0.91413 0.0
O571 O 0.99825 0.16901 0.8847 0.0
O572 O 0.94817 0.13495 0.9051 0.0
C573 C 1.01371 0.11784 0.90839 0.0
C574 C 0.96005 0.12747 0.95676 0.0
O575 O 0.05319 0.15963 0.8978 0.0
O576 O 0.03946 0.18066 0.88081 0.0
C577 C 0.93597 0.14763 0.91187 0.0
O578 O 0.94118 0.15789 0.92662 0.0
O579 O 0.97177 0.141 0.95161 0.0
O580 O 0.66593 0.21292 0.69472 0.0
Tb581 Tb 0.65331 0.21624 0.66629 0.0
C582 C 0.61593 0.22995 0.64005 0.0
O583 O 0.64737 0.26167 0.65683 0.0
Tb584 Tb 0.62808 0.27192 0.63441 0.0
C585 C 0.6033 0.29969 0.64136 0.0
O586 O 0.67224 0.24112 0.66059 0.0
O587 O 0.642 0.2846 0.60973 0.0
C588 C 0.64723 0.30253 0.61195 0.0
O589 O 0.64886 0.30896 0.62945 0.0
O590 O 0.63125 0.23162 0.65071 0.0
O591 O 0.61135 0.24562 0.63075 0.0
O592 O 0.66181 0.18961 0.65265 0.0
C593 C 0.66567 0.258 0.65475 0.0
C594 C 0.65063 0.20685 0.70331 0.0
O595 O 0.6183 0.29621 0.65174 0.0
O596 O 0.60185 0.28685 0.62813 0.0
C597 C 0.65241 0.18201 0.63835 0.0
O598 O 0.63981 0.19245 0.62939 0.0
O599 O 0.63653 0.20733 0.69119 0.0
O600 O 0.56897 0.91027 0.44618 0.0
Tb601 Tb 0.56774 0.89792 0.41735 0.0
C602 C 0.55624 0.86285 0.39008 0.0
O603 O 0.53234 0.89839 0.39338 0.0
Tb604 Tb 0.51595 0.87826 0.37663 0.0
C605 C 0.48864 0.85631 0.39107 0.0
O606 O 0.54442 0.91903 0.41368 0.0
O607 O 0.50726 0.8813 0.34681 0.0
C608 C 0.49821 0.89597 0.33938 0.0
O609 O 0.49953 0.91282 0.34739 0.0
O610 O 0.55286 0.87212 0.40632 0.0
O611 O 0.54264 0.86198 0.37691 0.0
O612 O 0.59377 0.90707 0.40291 0.0
C613 C 0.52991 0.91442 0.40268 0.0
C614 C 0.57923 0.89704 0.45411 0.0
O615 O 0.48892 0.87493 0.39217 0.0
O616 O 0.50424 0.85039 0.38302 0.0
C617 C 0.60219 0.89741 0.38918 0.0
O618 O 0.59241 0.88456 0.3798 0.0
O619 O 0.58216 0.88373 0.44147 0.0
O620 O 0.87074 0.82422 0.19807 0.0
Tb621 Tb 0.88533 0.81919 0.17068 0.0
C622 C 0.92092 0.80669 0.14687 0.0
O623 O 0.88818 0.77467 0.16045 0.0
Tb624 Tb 0.90692 0.7662 0.13719 0.0
C625 C 0.92876 0.73592 0.1444 0.0
O626 O 0.86458 0.79622 0.164 0.0
O627 O 0.89729 0.76271 0.10788 0.0
C628 C 0.88627 0.74822 0.10331 0.0
O629 O 0.87842 0.73822 0.11703 0.0
O630 O 0.91099 0.80327 0.16249 0.0
O631 O 0.92278 0.7928 0.13428 0.0
O632 O 0.88088 0.84445 0.15302 0.0
C633 C 0.87016 0.77903 0.15836 0.0
C634 C 0.88486 0.83256 0.20676 0.0
O635 O 0.91098 0.73526 0.13942 0.0
O636 O 0.93409 0.75365 0.14587 0.0
C637 C 0.89468 0.85717 0.15214 0.0
O638 O 0.9109 0.85328 0.16051 0.0
O639 O 0.89947 0.83252 0.19534 0.0
O640 O 0.59165 0.96152 0.9158 0.0
Tb641 Tb 0.61802 0.97079 0.9013 0.0
C642 C 0.64352 0.98186 0.86627 0.0
O643 O 0.62859 1.01397 0.89631 0.0
Tb644 Tb 0.65287 0.02336 0.87963 0.0
C645 C 0.64852 0.05081 0.85396 0.0
O646 O 0.62304 0.99478 0.92132 0.0
O647 O 0.67623 0.03602 0.89554 0.0
C648 C 0.67362 0.05399 0.90041 0.0
O649 O 0.65597 0.06003 0.90175 0.0
O650 O 0.62718 0.98525 0.875 0.0
O651 O 0.65661 0.99548 0.86586 0.0
O652 O 0.63603 0.94565 0.90512 0.0
C653 C 0.62885 1.0115 0.9148 0.0
C654 C 0.5822 0.95679 0.90055 0.0
O655 O 0.63678 0.04758 0.86801 0.0
O656 O 0.6616 0.03773 0.85365 0.0
C657 C 0.63656 0.93299 0.89122 0.0
O658 O 0.62758 0.93689 0.87531 0.0
O659 O 0.59269 0.96087 0.88579 0.0
O660 O 0.82191 0.84244 0.66504 0.0
Tb661 Tb 0.81463 0.86833 0.64929 0.0
C662 C 0.80509 0.89585 0.61374 0.0
O663 O 0.77986 0.89202 0.64825 0.0
Tb664 Tb 0.76483 0.91026 0.62883 0.0
C665 C 0.73592 0.9006 0.60637 0.0
O666 O 0.7908 0.87236 0.66981 0.0
O667 O 0.75861 0.93842 0.64013 0.0
C668 C 0.74153 0.94149 0.64713 0.0
O669 O 0.72995 0.92692 0.6492 0.0
O670 O 0.80144 0.87944 0.62259 0.0
O671 O 0.79165 0.90927 0.61279 0.0
O672 O 0.84233 0.8817 0.65525 0.0
C673 C 0.77694 0.88384 0.66467 0.0
C674 C 0.82425 0.83104 0.65065 0.0
O675 O 0.73862 0.89383 0.62354 0.0
O676 O 0.7499 0.91192 0.60185 0.0
C677 C 0.84943 0.89711 0.64717 0.0
O678 O 0.83826 0.90816 0.6371 0.0
O679 O 0.8207 0.84066 0.63516 0.0
O680 O 0.94541 0.07261 0.41206 0.0
Tb681 Tb 0.91786 0.06855 0.39771 0.0
C682 C 0.89427 0.05647 0.36092 0.0
O683 O 0.88655 0.03585 0.40075 0.0
Tb684 Tb 0.87603 0.01993 0.37608 0.0
C685 C 0.89157 0.98753 0.36339 0.0
O686 O 0.91309 0.04375 0.41687 0.0
O687 O 0.84598 1.01439 0.37079 0.0
C688 C 0.83263 1.01384 0.38391 0.0
O689 O 0.83472 0.02389 0.39955 0.0
O690 O 0.90742 0.05157 0.3735 0.0
O691 O 0.88056 0.04413 0.35723 0.0
O692 O 0.9006 0.09387 0.40372 0.0
C693 C 0.89966 0.03092 0.41322 0.0
C694 C 0.95416 0.08114 0.39808 0.0
O695 O 0.881 0.98916 0.37857 0.0
O696 O 0.89462 1.00449 0.35641 0.0
C697 C 0.9001 0.10731 0.39058 0.0
O698 O 0.90852 0.10406 0.37423 0.0
O699 O 0.94264 0.08176 0.38354 0.0
O700 O 0.71093 0.19652 0.16885 0.0
Tb701 Tb 0.71772 0.17073 0.15249 0.0
C702 C 0.72887 0.14372 0.11761 0.0
O703 O 0.7606 0.16181 0.14692 0.0
Tb704 Tb 0.77176 0.13935 0.1289 0.0
C705 C 0.80001 0.14954 0.10573 0.0
O706 O 0.74132 0.16389 0.17231 0.0
O707 O 0.78153 0.11205 0.14018 0.0
C708 C 0.79693 0.1121 0.15083 0.0
O709 O 0.80277 0.12855 0.15758 0.0
O710 O 0.73068 0.16082 0.12551 0.0
O711 O 0.7443 0.13295 0.1158 0.0
O712 O 0.68953 0.15867 0.15797 0.0
C713 C 0.75832 0.15983 0.16531 0.0
C714 C 0.7081 0.20803 0.15463 0.0
O715 O 0.80084 0.14933 0.12421 0.0
O716 O 0.78291 0.14483 0.10027 0.0
C717 C 0.68094 0.14448 0.14921 0.0
O718 O 0.69096 0.13156 0.14013 0.0
O719 O 0.71178 0.1987 0.13897 0.0
O720 O 0.59087 0.07346 0.62103 0.0
Tb721 Tb 0.61675 0.06581 0.63671 0.0
C722 C 0.64232 0.05585 0.67446 0.0
O723 O 0.64793 0.03275 0.63433 0.0
Tb724 Tb 0.65758 1.01786 0.65991 0.0
C725 C 0.64365 0.98448 0.67167 0.0
O726 O 0.62108 0.04029 0.61852 0.0
O727 O 0.68768 1.01387 0.66564 0.0
C728 C 0.70081 1.01281 0.65236 0.0
O729 O 0.69829 0.02199 0.63628 0.0
O730 O 0.62919 0.05138 0.6616 0.0
O731 O 0.65417 0.042 0.67907 0.0
O732 O 0.63128 0.09211 0.62875 0.0
C733 C 0.6345 0.02753 0.62234 0.0
C734 C 0.57987 0.07639 0.63565 0.0
O735 O 0.65651 0.98672 0.6585 0.0
O736 O 0.6377 1.00124 0.67727 0.0
C737 C 0.64678 0.09926 0.63642 0.0
O738 O 0.65689 0.08884 0.64815 0.0
O739 O 0.58944 0.07229 0.65103 0.0
O740 O 0.71403 0.83924 0.37355 0.0
Tb741 Tb 0.72135 0.86611 0.38812 0.0
C742 C 0.73122 0.89226 0.4237 0.0
O743 O 0.75413 0.89312 0.38778 0.0
Tb744 Tb 0.76909 0.91086 0.40814 0.0
C745 C 0.79881 0.90277 0.43029 0.0
O746 O 0.74583 0.86964 0.36848 0.0
O747 O 0.77451 0.93937 0.3971 0.0
C748 C 0.79139 0.9427 0.38967 0.0
O749 O 0.80305 0.92825 0.38722 0.0
O750 O 0.73641 0.87702 0.41369 0.0
O751 O 0.74298 0.90713 0.42513 0.0
O752 O 0.69659 0.88385 0.38183 0.0
C753 C 0.75853 0.88278 0.37289 0.0
C754 C 0.70717 0.83035 0.3883 0.0
O755 O 0.79581 0.89513 0.41348 0.0
O756 O 0.78472 0.91404 0.43461 0.0
C757 C 0.68316 0.88513 0.3949 0.0
O758 O 0.68611 0.87723 0.41156 0.0
O759 O 0.70927 0.84135 0.40317 0.0
O760 O 0.95033 0.97144 0.12771 0.0
Tb761 Tb 0.92065 0.97164 0.13831 0.0
C762 C 0.89204 0.98128 0.17302 0.0
O763 O 0.89803 1.00692 0.13929 0.0
Tb764 Tb 0.8804 0.02271 0.15883 0.0
C765 C 0.89173 0.04926 0.18332 0.0
O766 O 0.91716 0.9952 0.11753 0.0
O767 O 0.854 0.03534 0.14849 0.0
C768 C 0.85535 0.05351 0.14388 0.0
O769 O 0.87245 0.0606 0.14134 0.0
O770 O 0.90894 0.98463 0.16497 0.0
O771 O 0.87888 0.99504 0.17343 0.0
O772 O 0.90655 0.94589 0.1278 0.0
C773 C 0.90593 1.00933 0.12265 0.0
C774 C 0.95724 0.95964 0.14022 0.0
O775 O 0.89892 0.04692 0.16626 0.0
O776 O 0.87954 0.03572 0.18679 0.0
C777 C 0.89144 0.93803 0.13566 0.0
O778 O 0.88053 0.9484 0.14676 0.0
O779 O 0.94373 0.95552 0.15213 0.0
O780 O 0.82978 0.19317 0.86958 0.0
Tb781 Tb 0.81556 0.17082 0.88589 0.0
C782 C 0.80239 0.14524 0.91959 0.0
O783 O 0.7725 0.15976 0.88757 0.0
Tb784 Tb 0.76087 0.13737 0.90544 0.0
C785 C 0.7345 0.14578 0.93124 0.0
O786 O 0.79411 0.16298 0.86416 0.0
O787 O 0.74832 0.11215 0.89239 0.0
C788 C 0.73037 0.11365 0.88721 0.0
O789 O 0.72345 0.13091 0.88494 0.0
O790 O 0.80002 0.16212 0.9116 0.0
O791 O 0.78817 0.13284 0.91962 0.0
O792 O 0.8428 0.15548 0.88877 0.0
C793 C 0.77691 0.15748 0.86957 0.0
C794 C 0.8278 0.20702 0.88176 0.0
O795 O 0.7363 0.15438 0.91488 0.0
O796 O 0.74809 0.1334 0.93328 0.0
C797 C 0.85647 0.16508 0.89751 0.0
O798 O 0.852 0.18163 0.90498 0.0
O799 O 0.81785 0.20068 0.89618 0.0
O800 O 0.91413 0.59415 0.96636 0.0
Tb801 Tb 0.8995 0.62129 0.9718 0.0
C802 C 0.86402 0.64589 0.98525 0.0
O803 O 0.90291 0.65079 1.00535 0.0
Tb804 Tb 0.87966 0.66221 0.02264 0.0
C805 C 0.86534 0.64544 0.05365 0.0
O806 O 0.91977 0.62547 0.99559 0.0
O807 O 0.87697 0.69244 0.02953 0.0
C808 C 0.89147 0.70323 0.03452 0.0
O809 O 0.90878 0.6978 0.03004 0.0
O810 O 0.87588 0.63187 0.98955 0.0
O811 O 0.86088 0.65934 0.99811 0.0
O812 O 0.90432 0.638 0.94594 0.0
C813 C 0.91603 0.63799 1.00925 0.0
C814 C 0.89946 0.58484 0.95989 0.0
O815 O 0.88169 0.6542 0.05274 0.0
O816 O 0.8579 0.64493 0.03667 0.0
C817 C 0.891 0.63752 0.93272 0.0
O818 O 0.87493 0.62882 0.93661 0.0
O819 O 0.88454 0.5959 0.96095 0.0
O820 O 0.41599 0.94419 0.07234 0.0
Tb821 Tb 0.40058 0.91886 0.0626 0.0
C822 C 0.36446 0.89183 0.05335 0.0
O823 O 0.40118 0.89157 0.0291 0.0
Tb824 Tb 0.37867 0.87727 1.01358 0.0
C825 C 0.36202 0.89319 0.98337 0.0
O826 O 0.42041 0.91468 0.03823 0.0
O827 O 0.37818 0.84672 1.00775 0.0
C828 C 0.39338 0.83591 1.00629 0.0
O829 O 0.40993 0.84278 1.01159 0.0
O830 O 0.37435 0.90746 0.04912 0.0
O831 O 0.36181 0.87892 0.03972 0.0
O832 O 0.40671 0.90543 0.09008 0.0
C833 C 0.41569 0.90247 0.02467 0.0
C834 C 0.40162 0.95575 0.07377 0.0
O835 O 0.37936 0.88657 0.98382 0.0
O836 O 0.35448 0.89146 1.00024 0.0
C837 C 0.3987 0.89032 0.09779 0.0
O838 O 0.38884 0.87855 0.08713 0.0
O839 O 0.38645 0.94672 0.06797 0.0
O840 O 0.8424 0.66683 0.82714 0.0
Tb841 Tb 0.86675 0.65125 0.81548 0.0
C842 C 0.89379 0.61497 0.80931 0.0
O843 O 0.88916 0.64687 0.77959 0.0
Tb844 Tb 0.90554 0.62383 0.76692 0.0
C845 C 0.88994 0.59888 0.74284 0.0
O846 O 0.87175 0.67043 0.79075 0.0
O847 O 0.93452 0.62507 0.75556 0.0
C848 C 0.94491 0.64003 0.75118 0.0
O849 O 0.94051 0.65688 0.75809 0.0
O850 O 0.8775 0.62344 0.80481 0.0
O851 O 0.90662 0.61196 0.7957 0.0
O852 O 0.87963 0.65744 0.84322 0.0
C853 C 0.88199 0.66388 0.77635 0.0
C854 C 0.83009 0.65303 0.82684 0.0
O855 O 0.88814 0.61733 0.74175 0.0
O856 O 0.89895 0.59471 0.75847 0.0
C857 C 0.89505 0.65024 0.85108 0.0
O858 O 0.90748 0.64109 0.84054 0.0
O859 O 0.83822 0.63813 0.81917 0.0
O860 O 0.11757 0.09733 0.57651 0.0
Tb861 Tb 0.13169 0.12474 0.57068 0.0
C862 C 0.17246 0.14705 0.55567 0.0
O863 O 0.13877 0.13023 0.52671 0.0
Tb864 Tb 0.15837 0.1511 0.51454 0.0
C865 C 0.17627 0.14089 0.48257 0.0
O866 O 0.11279 0.12947 0.54556 0.0
O867 O 0.15002 0.18085 0.51035 0.0
C868 C 0.13637 0.18511 0.4982 0.0
O869 O 0.12602 0.17115 0.49128 0.0
O870 O 0.15533 0.13921 0.556 0.0
O871 O 0.17742 0.1543 0.539 0.0
O872 O 0.12492 0.13919 0.59747 0.0
C873 C 0.12031 0.13241 0.5284 0.0
C874 C 0.13283 0.08769 0.58077 0.0
O875 O 0.15939 0.1484 0.48346 0.0
O876 O 0.18287 0.13867 0.49974 0.0
C877 C 0.13503 0.1534 0.60439 0.0
O878 O 0.14689 0.16236 0.59305 0.0
O879 O 0.14758 0.09874 0.5782 0.0
O880 O 0.19754 0.87254 0.81973 0.0
Tb881 Tb 0.16879 0.88517 0.81656 0.0
C882 C 0.14323 0.92161 0.80657 0.0
O883 O 0.1588 0.89132 0.77395 0.0
Tb884 Tb 0.13544 0.90917 0.76482 0.0
C885 C 0.14181 0.93125 0.7348 0.0
O886 O 0.16301 0.86561 0.79232 0.0
O887 O 0.10634 0.89966 0.76048 0.0
C888 C 0.10224 0.88848 0.746 0.0
O889 O 0.11599 0.87866 0.73798 0.0
O890 O 0.15942 0.91234 0.80358 0.0
O891 O 0.13155 0.92378 0.79195 0.0
O892 O 0.15425 0.87658 0.84266 0.0
C893 C 0.15766 0.87282 0.77578 0.0
C894 C 0.20525 0.88691 0.82865 0.0
O895 O 0.13835 0.91305 0.73404 0.0
O896 O 0.14265 0.9368 0.75251 0.0
C897 C 0.14005 0.88594 0.85058 0.0
O898 O 0.1303 0.89813 0.84035 0.0
O899 O 0.19265 0.90045 0.82967 0.0
O900 O 0.62052 0.44258 0.46072 0.0
Tb901 Tb 0.63678 0.41698 0.46888 0.0
C902 C 0.6717 0.39092 0.47924 0.0
O903 O 0.64219 0.40594 0.51255 0.0
Tb904 Tb 0.66057 0.38274 0.52171 0.0
C905 C 0.68738 0.38936 0.54762 0.0
O906 O 0.61725 0.41009 0.49282 0.0
O907 O 0.6462 0.35866 0.53504 0.0
C908 C 0.64128 0.36119 0.55297 0.0
O909 O 0.6406 0.37881 0.55932 0.0
O910 O 0.66327 0.4075 0.48261 0.0
O911 O 0.67318 0.37853 0.49344 0.0
O912 O 0.63499 0.39964 0.44293 0.0
C913 C 0.62384 0.40423 0.50951 0.0
C914 C 0.63494 0.45373 0.45731 0.0
O915 O 0.67232 0.39995 0.54508 0.0
O916 O 0.68779 0.37599 0.53481 0.0
C917 C 0.62372 0.40469 0.42878 0.0
O918 O 0.61112 0.41818 0.43181 0.0
O919 O 0.65043 0.44439 0.46141 0.0
O920 O 0.84141 0.36993 0.71606 0.0
Tb921 Tb 0.86725 0.38626 0.72321 0.0
C922 C 0.89035 0.4232 0.7336 0.0
O923 O 0.87811 0.39245 0.7665 0.0
Tb924 Tb 0.90235 0.41007 0.77425 0.0
C925 C 0.89882 0.43401 0.80362 0.0
O926 O 0.87329 0.36702 0.74748 0.0
O927 O 0.92755 0.39379 0.78185 0.0
C928 C 0.92801 0.387 0.79928 0.0
O929 O 0.91175 0.38526 0.80837 0.0
O930 O 0.87497 0.41307 0.73754 0.0
O931 O 0.90355 0.4251 0.74691 0.0
O932 O 0.88553 0.38225 0.69839 0.0
C933 C 0.87904 0.37394 0.76405 0.0
C934 C 0.83149 0.38417 0.7095 0.0
O935 O 0.88751 0.41966 0.8002 0.0
O936 O 0.91126 0.43536 0.78999 0.0
C937 C 0.88449 0.39534 0.685 0.0
O938 O 0.87337 0.41011 0.68781 0.0
O939 O 0.84149 0.39968 0.71149 0.0
O940 O 0.6983 0.66729 0.21237 0.0
Tb941 Tb 0.67076 0.65369 0.21727 0.0
C942 C 0.64362 0.61619 0.2302 0.0
O943 O 0.65973 0.64723 0.26162 0.0
Tb944 Tb 0.63657 0.62876 0.27211 0.0
C945 C 0.64258 0.60527 0.30144 0.0
O946 O 0.66556 0.67264 0.24238 0.0
O947 O 0.60944 0.64273 0.27845 0.0
C948 C 0.60426 0.64458 0.29643 0.0
O949 O 0.61629 0.63983 0.30989 0.0
O950 O 0.65403 0.63173 0.23163 0.0
O951 O 0.63453 0.61139 0.24598 0.0
O952 O 0.65854 0.66133 0.18959 0.0
C953 C 0.65962 0.66593 0.25918 0.0
C954 C 0.70818 0.65192 0.20905 0.0
O955 O 0.65175 0.62119 0.29857 0.0
O956 O 0.6308 0.60245 0.28751 0.0
C957 C 0.64344 0.65353 0.18165 0.0
O958 O 0.63176 0.64339 0.19216 0.0
O959 O 0.69698 0.63719 0.21133 0.0
O960 O 0.50119 0.67958 0.89271 0.0
Tb961 Tb 0.51518 0.65737 0.87597 0.0
C962 C 0.5264 0.62156 0.90169 0.0
O963 O 0.54774 0.6619 0.90706 0.0
Tb964 Tb 0.56445 0.63744 0.91751 0.0
C965 C 0.57848 0.63715 0.95322 0.0
O966 O 0.53988 0.67593 0.87892 0.0
O967 O 0.58908 0.63287 0.89901 0.0
C968 C 0.60246 0.64604 0.89956 0.0
O969 O 0.59963 0.66113 0.91028 0.0
O970 O 0.53115 0.63378 0.88831 0.0
O971 O 0.53967 0.61804 0.91461 0.0
O972 O 0.51012 0.65929 0.84543 0.0
C973 C 0.55243 0.67323 0.89269 0.0
C974 C 0.484 0.67274 0.8914 0.0
O975 O 0.57602 0.65232 0.94271 0.0
O976 O 0.57224 0.6224 0.94382 0.0
C977 C 0.50632 0.6444 0.83469 0.0
O978 O 0.50994 0.62727 0.84129 0.0
O979 O 0.48464 0.65641 0.8825 0.0
O980 O 0.66559 0.32304 0.19835 0.0
Tb981 Tb 0.6498 0.31884 0.17161 0.0
C982 C 0.61393 0.30859 0.14586 0.0
O983 O 0.64392 0.27613 0.16054 0.0
Tb984 Tb 0.62752 0.26695 0.13612 0.0
C985 C 0.60335 0.23789 0.13985 0.0
O986 O 0.6694 0.29482 0.16522 0.0
O987 O 0.64391 0.26048 0.11071 0.0
C988 C 0.65353 0.24442 0.10973 0.0
O989 O 0.65639 0.23471 0.12544 0.0
O990 O 0.62272 0.30568 0.1623 0.0
O991 O 0.61292 0.29436 0.13344 0.0
O992 O 0.65651 0.34638 0.15853 0.0
C993 C 0.66244 0.27807 0.16006 0.0
C994 C 0.65141 0.32898 0.20871 0.0
O995 O 0.61881 0.24018 0.14987 0.0
O996 O 0.60123 0.25234 0.12847 0.0
C997 C 0.646 0.35544 0.14593 0.0
O998 O 0.63371 0.3459 0.13562 0.0
O999 O 0.63609 0.32809 0.19838 0.0
O1000 O 0.9597 0.41536 0.443 0.0
Tb1001 Tb 0.97485 0.39969 0.42078 0.0
C1002 C 0.98277 0.36426 0.39399 0.0
O1003 O 1.0084 0.39872 0.39539 0.0
Tb1004 Tb 0.02177 0.37833 0.37644 0.0
C1005 C 0.05017 0.35515 0.3863 0.0
O1006 O 0.99819 0.42035 0.41562 0.0
O1007 O 0.02775 0.38628 0.34696 0.0
C1008 C 0.03061 0.40369 0.34059 0.0
O1009 O 0.02632 0.41833 0.35144 0.0
O1010 O 0.98817 0.37321 0.40976 0.0
O1011 O 0.99468 0.36287 0.37928 0.0
O1012 O 0.94875 0.40141 0.40384 0.0
C1013 C 1.01175 0.41514 0.40366 0.0
C1014 C 0.961 0.40274 0.45647 0.0
O1015 O 0.04866 0.37293 0.39173 0.0
O1016 O 0.03536 0.35045 0.37626 0.0
C1017 C 0.93515 0.38895 0.40749 0.0
O1018 O 0.93867 0.37524 0.41971 0.0
O1019 O 0.97088 0.38827 0.45003 0.0
O1020 O 0.87265 0.71846 0.69813 0.0
Tb1021 Tb 0.88505 0.72164 0.66931 0.0
C1022 C 0.92123 0.73446 0.64534 0.0
O1023 O 0.88926 0.76443 0.6597 0.0
Tb1024 Tb 0.90683 0.77514 0.63675 0.0
C1025 C 0.92757 0.806 0.64427 0.0
O1026 O 0.86429 0.74509 0.66356 0.0
O1027 O 0.89757 0.77858 0.60742 0.0
C1028 C 0.88452 0.79127 0.60294 0.0
O1029 O 0.87356 0.79817 0.61644 0.0
O1030 O 0.91129 0.73704 0.66114 0.0
O1031 O 0.92294 0.74885 0.63328 0.0
O1032 O 0.87893 0.69509 0.65373 0.0
C1033 C 0.87087 0.76218 0.65884 0.0
C1034 C 0.88672 0.70884 0.70547 0.0
O1035 O 0.90984 0.80616 0.63899 0.0
O1036 O 0.93345 0.78844 0.64586 0.0
C1037 C 0.89305 0.68371 0.6486 0.0
O1038 O 0.9105 0.69005 0.65001 0.0
O1039 O 0.90003 0.70738 0.69268 0.0
O1040 O 0.57539 0.41263 0.59042 0.0
Tb1041 Tb 0.56541 0.39697 0.61549 0.0
C1042 C 0.55131 0.36312 0.6416 0.0
O1043 O 0.53309 0.40192 0.64612 0.0
Tb1044 Tb 0.51435 0.37996 0.65767 0.0
C1045 C 0.48401 0.36494 0.6405 0.0
O1046 O 0.54242 0.41829 0.62028 0.0
O1047 O 0.50696 0.37936 0.68773 0.0
C1048 C 0.49333 0.39079 0.69363 0.0
O1049 O 0.48689 0.40383 0.68194 0.0
O1050 O 0.54711 0.37416 0.62689 0.0
O1051 O 0.53858 0.36083 0.65531 0.0
O1052 O 0.59181 0.39826 0.63205 0.0
C1053 C 0.52945 0.41539 0.63372 0.0
C1054 C 0.57792 0.39805 0.57918 0.0
O1055 O 0.48477 0.38209 0.64773 0.0
O1056 O 0.5007 0.357 0.64184 0.0
C1057 C 0.60464 0.38479 0.62908 0.0
O1058 O 0.60021 0.37056 0.61778 0.0
O1059 O 0.57241 0.38267 0.5882 0.0
O1060 O 0.87073 0.32716 0.84654 0.0
Tb1061 Tb 0.88834 0.31691 0.87015 0.0
C1062 C 0.92416 0.30511 0.8942 0.0
O1063 O 0.89415 0.27375 0.87923 0.0
Tb1064 Tb 0.91192 0.2628 0.90204 0.0
C1065 C 0.93651 0.23503 0.89432 0.0
O1066 O 0.8687 0.29289 0.87642 0.0
O1067 O 0.89885 0.25255 0.92827 0.0
C1068 C 0.88996 0.23601 0.92806 0.0
O1069 O 0.88543 0.22848 0.91156 0.0
O1070 O 0.91503 0.30252 0.87793 0.0
O1071 O 0.92607 0.29041 0.90593 0.0
O1072 O 0.88882 0.34259 0.88827 0.0
C1073 C 0.87565 0.27578 0.88037 0.0
C1074 C 0.88418 0.32875 0.83389 0.0
O1075 O 0.91953 0.23639 0.88702 0.0
O1076 O 0.93986 0.24985 0.90494 0.0
C1077 C 0.88352 0.35937 0.88144 0.0
O1078 O 0.8756 0.36002 0.86456 0.0
O1079 O 0.90004 0.32285 0.84149 0.0
O1080 O 0.03719 0.68263 0.14708 0.0
Tb1081 Tb 0.02338 0.6565 0.15657 0.0
C1082 C 1.00775 0.62102 0.13185 0.0
O1083 O 0.98655 0.66388 0.12759 0.0
Tb1084 Tb 0.97045 0.63832 0.11768 0.0
C1085 C 0.95833 0.64011 0.08134 0.0
O1086 O 0.99812 0.67463 0.15625 0.0
O1087 O 0.94426 0.63031 0.13269 0.0
C1088 C 0.93657 0.64066 0.14632 0.0
O1089 O 0.94706 0.65361 0.15476 0.0
O1090 O 1.00545 0.637 0.14108 0.0
O1091 O 0.99334 0.61661 0.1207 0.0
O1092 O 0.02941 0.65087 0.18646 0.0
C1093 C 0.9841 0.67388 0.14357 0.0
C1094 C 0.05293 0.67472 0.14128 0.0
O1095 O 0.95662 0.65355 0.09403 0.0
O1096 O 0.96769 0.62605 0.08896 0.0
C1097 C 0.04567 0.64276 0.19099 0.0
O1098 O 0.05724 0.63728 0.17736 0.0
O1099 O 0.05174 0.65623 0.14332 0.0
O1100 O 0.66199 0.71987 0.33731 0.0
Tb1101 Tb 0.64844 0.72092 0.36579 0.0
C1102 C 0.61184 0.73003 0.39289 0.0
O1103 O 0.65002 0.75368 0.39645 0.0
Tb1104 Tb 0.6256 0.76939 0.40737 0.0
C1105 C 0.61163 0.80091 0.39134 0.0
O1106 O 0.66722 0.74601 0.37077 0.0
O1107 O 0.62094 0.77559 0.43738 0.0
C1108 C 0.63344 0.77405 0.45118 0.0
O1109 O 0.64861 0.76339 0.44864 0.0
O1110 O 0.62247 0.73443 0.37777 0.0
O1111 O 0.60821 0.74387 0.40524 0.0
O1112 O 0.65748 0.69384 0.37852 0.0
C1113 C 0.66302 0.75884 0.38402 0.0
C1114 C 0.6479 0.71206 0.32818 0.0
O1115 O 0.627 0.80005 0.40166 0.0
O1116 O 0.60499 0.78367 0.38891 0.0
C1117 C 0.64908 0.68501 0.39282 0.0
O1118 O 0.63808 0.69473 0.40441 0.0
O1119 O 0.63391 0.71006 0.34013 0.0
O1120 O 0.94309 0.58277 0.62529 0.0
Tb1121 Tb 0.922 0.56471 0.63928 0.0
C1122 C 0.89397 0.55405 0.67339 0.0
O1123 O 0.89983 0.53016 0.63823 0.0
Tb1124 Tb 0.88074 0.51439 0.65612 0.0
C1125 C 0.8899 0.48649 0.68003 0.0
O1126 O 0.92072 0.54128 0.61803 0.0
O1127 O 0.85392 0.50605 0.64326 0.0
C1128 C 0.83887 0.50454 0.65435 0.0
O1129 O 0.83985 0.51154 0.67169 0.0
O1130 O 0.91094 0.55078 0.66557 0.0
O1131 O 0.87999 0.54128 0.67207 0.0
O1132 O 0.9031 0.58955 0.63664 0.0
C1133 C 0.9091 0.52727 0.62242 0.0
C1134 C 0.95638 0.58176 0.63807 0.0
O1135 O 0.89691 0.4883 0.66282 0.0
O1136 O 0.87865 0.50076 0.68374 0.0
C1137 C 0.90237 0.60215 0.65066 0.0
O1138 O 0.91123 0.59821 0.66662 0.0
O1139 O 0.95054 0.57045 0.65169 0.0
O1140 O 0.71581 0.69683 0.86932 0.0
Tb1141 Tb 0.71735 0.66798 0.88163 0.0
C1142 C 0.7299 0.64212 0.92056 0.0
O1143 O 0.76157 0.65962 0.89023 0.0
Tb1144 Tb 0.77205 0.63668 0.90863 0.0
C1145 C 0.80162 0.64237 0.93178 0.0
O1146 O 0.74314 0.66287 0.86385 0.0
O1147 O 0.78022 0.61114 0.89285 0.0
C1148 C 0.79837 0.60946 0.88847 0.0
O1149 O 0.80914 0.62471 0.88982 0.0
O1150 O 0.73101 0.65171 0.90444 0.0
O1151 O 0.74595 0.63378 0.92576 0.0
O1152 O 0.6912 0.65471 0.87141 0.0
C1153 C 0.75982 0.65828 0.87162 0.0
C1154 C 0.70825 0.70528 0.88404 0.0
O1155 O 0.7974 0.65311 0.91721 0.0
O1156 O 0.78878 0.6292 0.93361 0.0
C1157 C 0.68231 0.64078 0.8803 0.0
O1158 O 0.69185 0.62991 0.89213 0.0
O1159 O 0.70695 0.69289 0.89781 0.0
O1160 O 0.6396 0.54039 0.17986 0.0
Tb1161 Tb 0.65699 0.52557 0.15877 0.0
C1162 C 0.63202 0.51253 0.12307 0.0
O1163 O 0.62559 0.49276 0.16415 0.0
Tb1164 Tb 0.61452 0.47542 0.14024 0.0
C1165 C 0.57814 0.46296 0.13789 0.0
O1166 O 0.65378 0.50126 0.1779 0.0
O1167 O 0.6318 0.44965 0.13719 0.0
C1168 C 0.63001 0.43649 0.15048 0.0
O1169 O 0.61905 0.44014 0.16518 0.0
O1170 O 0.64503 0.5083 0.13583 0.0
O1171 O 0.61895 0.49926 0.11988 0.0
O1172 O 0.68722 0.53212 0.16195 0.0
C1173 C 0.64006 0.48849 0.17557 0.0
C1174 C 0.64097 0.55733 0.17234 0.0
O1175 O 0.58744 0.46625 0.1537 0.0
O1176 O 0.5892 0.46748 0.1237 0.0
C1177 C 0.69817 0.53743 0.14769 0.0
O1178 O 0.69315 0.53298 0.13025 0.0
O1179 O 0.65013 0.55599 0.15622 0.0
O1180 O 0.81964 0.34266 0.37648 0.0
Tb1181 Tb 0.81723 0.37066 0.39042 0.0
C1182 C 0.80226 0.39499 0.42666 0.0
O1183 O 0.78266 0.39865 0.38878 0.0
Tb1184 Tb 0.76353 0.40818 0.41136 0.0
C1185 C 0.73308 0.38929 0.42406 0.0
O1186 O 0.79376 0.37565 0.3697 0.0
O1187 O 0.75456 0.4378 0.41382 0.0
C1188 C 0.76128 0.45242 0.40427 0.0
O1189 O 0.7762 0.45014 0.3932 0.0
O1190 O 0.79953 0.38076 0.41448 0.0
O1191 O 0.78769 0.40633 0.43051 0.0
O1192 O 0.84417 0.38448 0.38275 0.0
C1193 C 0.77974 0.38758 0.37402 0.0
C1194 C 0.82796 0.3337 0.3904 0.0
O1195 O 0.73452 0.39744 0.4074 0.0
O1196 O 0.74943 0.39054 0.43272 0.0
C1197 C 0.85392 0.39626 0.39365 0.0
O1198 O 0.84516 0.40595 0.407 0.0
O1199 O 0.82921 0.34538 0.40483 0.0
O1200 O 0.94716 0.46966 0.91681 0.0
Tb1201 Tb 0.92052 0.47515 0.90118 0.0
C1202 C 0.89689 0.48879 0.86525 0.0
O1203 O 0.89027 0.50821 0.90452 0.0
Tb1204 Tb 0.87876 0.52543 0.88131 0.0
C1205 C 0.89494 0.55712 0.8679 0.0
O1206 O 0.91546 0.4988 0.92164 0.0
O1207 O 0.84842 0.53183 0.87864 0.0
C1208 C 0.83813 0.53679 0.8935 0.0
O1209 O 0.84358 0.53117 0.91044 0.0
O1210 O 0.91045 0.49322 0.87761 0.0
O1211 O 0.88301 0.50122 0.86222 0.0
O1212 O 0.90287 0.44941 0.90262 0.0
C1213 C 0.90285 0.51233 0.91777 0.0
C1214 C 0.95698 0.46316 0.90245 0.0
O1215 O 0.88571 0.55582 0.88396 0.0
O1216 O 0.89618 0.54022 0.86027 0.0
C1217 C 0.91049 0.4333 0.90876 0.0
O1218 O 0.92752 0.43395 0.91638 0.0
O1219 O 0.94638 0.46412 0.88722 0.0
O1220 O 0.75275 0.62918 0.09863 0.0
Tb1221 Tb 0.76677 0.63412 0.12598 0.0
C1222 C 0.77692 0.65795 0.16195 0.0
O1223 O 0.80507 0.6618 0.12299 0.0
Tb1224 Tb 0.81715 0.67164 0.15037 0.0
C1225 C 0.82524 0.70927 0.15244 0.0
O1226 O 0.79468 0.63299 0.11185 0.0
O1227 O 0.8451 0.65935 0.15694 0.0
C1228 C 0.85332 0.64431 0.14926 0.0
O1229 O 0.84332 0.63283 0.13839 0.0
O1230 O 0.7758 0.65806 0.14333 0.0
O1231 O 0.79304 0.66417 0.16941 0.0
O1232 O 0.76101 0.60716 0.1403 0.0
C1233 C 0.80871 0.64553 0.11407 0.0
C1234 C 0.73767 0.63938 0.10214 0.0
O1235 O 0.82245 0.69964 0.13681 0.0
O1236 O 0.82255 0.69781 0.16673 0.0
C1237 C 0.74533 0.60485 0.1503 0.0
O1238 O 0.73499 0.61988 0.15451 0.0
O1239 O 0.73934 0.64732 0.11884 0.0
O1240 O 0.59327 0.57747 0.41707 0.0
Tb1241 Tb 0.61728 0.56509 0.40151 0.0
C1242 C 0.64396 0.5542 0.36666 0.0
O1243 O 0.64334 0.532 0.40341 0.0
Tb1244 Tb 0.66119 0.5165 0.38377 0.0
C1245 C 0.65287 0.48659 0.36204 0.0
O1246 O 0.61935 0.54071 0.42156 0.0
O1247 O 0.68809 0.51011 0.39767 0.0
C1248 C 0.70382 0.50897 0.38752 0.0
O1249 O 0.7034 0.51483 0.36976 0.0
O1250 O 0.62842 0.54946 0.37636 0.0
O1251 O 0.65879 0.54235 0.36624 0.0
O1252 O 0.63521 0.59055 0.40395 0.0
C1253 C 0.63196 0.52742 0.4174 0.0
C1254 C 0.58194 0.57971 0.40261 0.0
O1255 O 0.6441 0.49075 0.37803 0.0
O1256 O 0.66557 0.49956 0.3583 0.0
C1257 C 0.63278 0.60385 0.39087 0.0
O1258 O 0.62091 0.60036 0.37688 0.0
O1259 O 0.59031 0.57292 0.38741 0.0
O1260 O 0.71522 0.33805 0.66154 0.0
Tb1261 Tb 0.72468 0.3632 0.64574 0.0
C1262 C 0.73957 0.38876 0.61126 0.0
O1263 O 0.75782 0.39203 0.65078 0.0
Tb1264 Tb 0.77603 0.40492 0.6293 0.0
C1265 C 0.80859 0.3908 0.61546 0.0
O1266 O 0.74765 0.36691 0.66725 0.0
O1267 O 0.78031 0.43559 0.62867 0.0
C1268 C 0.78126 0.44621 0.64407 0.0
O1269 O 0.77425 0.43972 0.66014 0.0
O1270 O 0.74311 0.37402 0.62258 0.0
O1271 O 0.7527 0.40215 0.60919 0.0
O1272 O 0.69835 0.37996 0.64758 0.0
C1273 C 0.76134 0.37953 0.66418 0.0
C1274 C 0.71207 0.32695 0.64701 0.0
O1275 O 0.80692 0.40024 0.6314 0.0
O1276 O 0.79172 0.38829 0.60817 0.0
C1277 C 0.68584 0.37814 0.63366 0.0
O1278 O 0.69053 0.36792 0.61871 0.0
O1279 O 0.7169 0.33609 0.6315 0.0
O1280 O 0.62121 0.94664 0.5733 0.0
Tb1281 Tb 0.63571 0.92023 0.56451 0.0
C1282 C 0.67126 0.89409 0.5551 0.0
O1283 O 0.63605 0.89491 0.53067 0.0
Tb1284 Tb 0.65628 0.87627 0.51674 0.0
C1285 C 0.67871 0.88529 0.48748 0.0
O1286 O 0.61578 0.91679 0.5402 0.0
O1287 O 0.64498 0.84777 0.51154 0.0
C1288 C 0.64278 0.84254 0.49367 0.0
O1289 O 0.6464 0.85487 0.4801 0.0
O1290 O 0.66156 0.90946 0.54988 0.0
O1291 O 0.67271 0.87933 0.54322 0.0
O1292 O 0.6309 0.90309 0.59006 0.0
C1293 C 0.62061 0.90458 0.52671 0.0
C1294 C 0.63636 0.95609 0.57823 0.0
O1295 O 0.66179 0.89259 0.49046 0.0
O1296 O 0.68293 0.87361 0.50123 0.0
C1297 C 0.6442 0.90357 0.60331 0.0
O1298 O 0.66008 0.9127 0.59963 0.0
O1299 O 0.65123 0.94561 0.57446 0.0
O1300 O 0.11992 0.58739 0.46727 0.0
Tb1301 Tb 0.1334 0.61553 0.47052 0.0
C1302 C 0.16586 0.64478 0.4823 0.0
O1303 O 0.13699 0.62807 0.51353 0.0
Tb1304 Tb 0.15277 0.65223 0.52457 0.0
C1305 C 0.17887 0.64784 0.55177 0.0
O1306 O 0.11274 0.62126 0.49378 0.0
O1307 O 0.1369 0.67729 0.53357 0.0
C1308 C 0.13311 0.67867 0.55186 0.0
O1309 O 0.13451 0.66316 0.56223 0.0
O1310 O 0.15877 0.62745 0.4848 0.0
O1311 O 0.16617 0.65682 0.49689 0.0
O1312 O 0.1267 0.62718 0.44232 0.0
C1313 C 0.11861 0.62796 0.51041 0.0
C1314 C 0.1349 0.57809 0.46152 0.0
O1315 O 0.16358 0.63739 0.55 0.0
O1316 O 0.17982 0.6598 0.53768 0.0
C1317 C 0.13488 0.64175 0.43374 0.0
O1318 O 0.14373 0.65471 0.44391 0.0
O1319 O 0.14933 0.58972 0.46204 0.0
O1320 O 0.6958 0.87453 0.71354 0.0
Tb1321 Tb 0.669 0.88945 0.72001 0.0
C1322 C 0.64199 0.92537 0.72929 0.0
O1323 O 0.64399 0.89126 0.75553 0.0
Tb1324 Tb 0.62715 0.91298 0.76992 0.0
C1325 C 0.64098 0.93478 0.79793 0.0
O1326 O 0.66407 0.86968 0.7445 0.0
O1327 O 0.59695 0.90919 0.77687 0.0
C1328 C 0.58623 0.89401 0.77418 0.0
O1329 O 0.59318 0.87906 0.76528 0.0
O1330 O 0.65768 0.91572 0.73369 0.0
O1331 O 0.62894 0.92822 0.74274 0.0
O1332 O 0.6556 0.88232 0.69275 0.0
C1333 C 0.65266 0.87496 0.75862 0.0
C1334 C 0.70594 0.88934 0.7089 0.0
O1335 O 0.64296 0.91628 0.79687 0.0
O1336 O 0.63216 0.94079 0.78279 0.0
C1337 C 0.6409 0.89078 0.68477 0.0
O1338 O 0.62968 0.90154 0.69513 0.0
O1339 O 0.69547 0.90449 0.71161 0.0
O1340 O 0.41031 0.45221 0.96817 0.0
Tb1341 Tb 0.39665 0.42414 0.97049 0.0
C1342 C 0.36343 0.39421 0.97949 0.0
O1343 O 0.39492 0.40144 1.00698 0.0
Tb1344 Tb 0.37498 0.38305 0.0216 0.0
C1345 C 0.34839 0.39257 0.04679 0.0
O1346 O 0.41683 0.42012 0.9945 0.0
O1347 O 0.38597 0.3573 0.03512 0.0
C1348 C 0.38965 0.35918 0.05343 0.0
O1349 O 0.39132 0.37654 0.06026 0.0
O1350 O 0.37099 0.41111 0.98368 0.0
O1351 O 0.36186 0.38109 0.99318 0.0
O1352 O 0.40515 0.41163 0.94325 0.0
C1353 C 0.4116 0.40941 1.00903 0.0
C1354 C 0.39597 0.46155 0.96115 0.0
O1355 O 0.36494 0.40106 0.04524 0.0
O1356 O 0.34649 0.38021 0.03308 0.0
C1357 C 0.39826 0.3961 0.93527 0.0
O1358 O 0.38973 0.38323 0.94579 0.0
O1359 O 0.3815 0.44991 0.96034 0.0
O1360 O 0.33895 0.6653 0.71852 0.0
Tb1361 Tb 0.36727 0.65177 0.72041 0.0
C1362 C 0.39351 0.61515 0.73083 0.0
O1363 O 0.39041 0.651 0.75572 0.0
Tb1364 Tb 0.40683 0.63018 0.7712 0.0
C1365 C 0.39302 0.61223 0.80176 0.0
O1366 O 0.37096 0.67241 0.74415 0.0
O1367 O 0.43734 0.6326 0.77621 0.0
C1368 C 0.44653 0.64882 0.77821 0.0
O1369 O 0.43812 0.66482 0.77337 0.0
O1370 O 0.37747 0.62487 0.73406 0.0
O1371 O 0.4061 0.61334 0.7449 0.0
O1372 O 0.38151 0.66069 0.69419 0.0
C1373 C 0.38173 0.66725 0.75857 0.0
C1374 C 0.3305 0.65176 0.70912 0.0
O1375 O 0.39838 0.63003 0.80134 0.0
O1376 O 0.39446 0.605 0.78469 0.0
C1377 C 0.39508 0.65108 0.68548 0.0
O1378 O 0.40561 0.63913 0.69524 0.0
O1379 O 0.34253 0.63786 0.70701 0.0
O1380 O 0.91406 0.0893 0.07219 0.0
Tb1381 Tb 0.89918 0.11629 0.06652 0.0
C1382 C 0.86453 0.1429 0.05402 0.0
O1383 O 0.89408 0.12519 0.02397 0.0
Tb1384 Tb 0.87831 0.14851 1.01153 0.0
C1385 C 0.85195 0.14052 0.98547 0.0
O1386 O 0.9194 0.12077 0.04264 0.0
O1387 O 0.89141 0.17476 1.00114 0.0
C1388 C 0.89701 0.17555 0.98324 0.0
O1389 O 0.89855 0.15952 0.97368 0.0
O1390 O 0.87224 0.12565 0.05294 0.0
O1391 O 0.86541 0.15459 0.03919 0.0
O1392 O 0.90586 0.12968 0.09397 0.0
C1393 C 0.9126 0.12494 0.02563 0.0
C1394 C 0.8994 0.07946 0.07776 0.0
O1395 O 0.86954 0.13467 0.9849 0.0
O1396 O 0.84913 0.14985 1.00125 0.0
C1397 C 0.89622 0.14333 0.10259 0.0
O1398 O 0.88532 0.15471 0.09257 0.0
O1399 O 0.88434 0.09016 0.07598 0.0
O1400 O 0.69752 0.16424 0.81954 0.0
Tb1401 Tb 0.67185 0.14792 0.81243 0.0
C1402 C 0.64834 0.11159 0.79899 0.0
O1403 O 0.63952 0.15205 0.78072 0.0
Tb1404 Tb 0.62924 0.12796 0.76389 0.0
C1405 C 0.64335 0.11634 0.73053 0.0
O1406 O 0.66573 0.16847 0.78897 0.0
O1407 O 0.59907 0.12196 0.76086 0.0
C1408 C 0.58564 0.135 0.76112 0.0
O1409 O 0.58848 0.15089 0.77061 0.0
O1410 O 0.66118 0.12466 0.79443 0.0
O1411 O 0.63471 0.1079 0.78665 0.0
O1412 O 0.65574 0.14714 0.83928 0.0
C1413 C 0.65225 0.16502 0.77614 0.0
C1414 C 0.70872 0.14977 0.82272 0.0
O1415 O 0.63128 0.13028 0.73282 0.0
O1416 O 0.64855 0.11014 0.74724 0.0
C1417 C 0.66307 0.15465 0.85496 0.0
O1418 O 0.6785 0.16507 0.85345 0.0
O1419 O 0.69928 0.13411 0.81917 0.0
O1420 O 0.84034 0.87408 0.32591 0.0
Tb1421 Tb 0.86595 0.88991 0.31753 0.0
C1422 C 0.89194 0.92657 0.30692 0.0
O1423 O 0.89259 0.88931 0.28335 0.0
Tb1424 Tb 0.90612 0.91191 0.26713 0.0
C1425 C 0.89017 0.92794 0.23662 0.0
O1426 O 0.86946 0.87025 0.29301 0.0
O1427 O 0.93646 0.91312 0.26043 0.0
C1428 C 0.94694 0.8983 0.25565 0.0
O1429 O 0.94079 0.88105 0.25951 0.0
O1430 O 0.87658 0.91609 0.30319 0.0
O1431 O 0.90451 0.92927 0.29301 0.0
O1432 O 0.88024 0.88303 0.34432 0.0
C1433 C 0.88128 0.875 0.27919 0.0
C1434 C 0.82934 0.88862 0.32915 0.0
O1435 O 0.89685 0.9106 0.23741 0.0
O1436 O 0.89126 0.93565 0.2535 0.0
C1437 C 0.89463 0.89208 0.35221 0.0
O1438 O 0.90527 0.9034 0.34184 0.0
O1439 O 0.83873 0.90407 0.32481 0.0
O1440 O 0.46095 0.41797 0.08971 0.0
Tb1441 Tb 0.4692 0.40234 0.11544 0.0
C1442 C 0.48121 0.36747 0.14159 0.0
O1443 O 0.505 0.40236 0.13801 0.0
Tb1444 Tb 0.52136 0.38242 0.15457 0.0
C1445 C 0.54877 0.35938 0.14207 0.0
O1446 O 0.49252 0.42374 0.11903 0.0
O1447 O 0.53228 0.39344 0.18129 0.0
C1448 C 0.5498 0.39995 0.18038 0.0
O1449 O 0.55749 0.40184 0.16343 0.0
O1450 O 0.48476 0.37657 0.12535 0.0
O1451 O 0.4945 0.36652 0.15506 0.0
O1452 O 0.44307 0.40543 0.13239 0.0
C1453 C 0.50705 0.41897 0.12993 0.0
C1454 C 0.45628 0.40335 0.0793 0.0
O1455 O 0.54592 0.37678 0.13593 0.0
O1456 O 0.53572 0.35502 0.15448 0.0
C1457 C 0.43059 0.39131 0.13211 0.0
O1458 O 0.43531 0.37544 0.12334 0.0
O1459 O 0.45962 0.3879 0.08909 0.0
O1460 O 0.37356 0.72025 0.83823 0.0
Tb1461 Tb 0.38636 0.7223 0.86691 0.0
C1462 C 0.42293 0.72905 0.89379 0.0
O1463 O 0.3893 0.75696 0.89158 0.0
Tb1464 Tb 0.41128 0.77008 0.90876 0.0
C1465 C 0.43402 0.7974 0.89537 0.0
O1466 O 0.36763 0.74758 0.87115 0.0
O1467 O 0.40746 0.77754 0.9387 0.0
C1468 C 0.39205 0.77633 0.94928 0.0
O1469 O 0.3767 0.76809 0.94249 0.0
O1470 O 0.4139 0.7337 0.87777 0.0
O1471 O 0.42519 0.74222 0.90726 0.0
O1472 O 0.37564 0.69672 0.88115 0.0
C1473 C 0.37337 0.76121 0.88279 0.0
C1474 C 0.38729 0.7108 0.8301 0.0
O1475 O 0.41579 0.7963 0.89209 0.0
O1476 O 0.43939 0.78262 0.90517 0.0
C1477 C 0.3834 0.68861 0.89615 0.0
O1478 O 0.3957 0.6983 0.90636 0.0
O1479 O 0.40083 0.70877 0.84249 0.0
O1480 O 0.07084 0.6217 0.59241 0.0
Tb1481 Tb 0.06705 0.63805 0.61886 0.0
C1482 C 0.05843 0.67444 0.64502 0.0
O1483 O 0.02628 0.64499 0.63134 0.0
Tb1484 Tb 1.0162 0.66235 0.6546 0.0
C1485 C 0.98837 0.6867 0.64676 0.0
O1486 O 0.04307 0.61868 0.62587 0.0
O1487 O 1.00803 0.64831 0.68101 0.0
C1488 C 0.99094 0.64079 0.68239 0.0
O1489 O 0.98062 0.63909 0.6669 0.0
O1490 O 0.05549 0.66596 0.62835 0.0
O1491 O 0.0441 0.67587 0.65728 0.0
O1492 O 0.09461 0.63118 0.63146 0.0
C1493 C 0.02692 0.62638 0.63158 0.0
C1494 C 0.07578 0.63575 0.58141 0.0
O1495 O 0.9904 0.66999 0.63892 0.0
O1496 O 1.00236 0.68988 0.65845 0.0
C1497 C 0.10328 0.64067 0.64509 0.0
O1498 O 0.09343 0.65187 0.65636 0.0
O1499 O 0.07489 0.65141 0.5914 0.0
O1500 O 0.16358 0.32353 0.34188 0.0
Tb1501 Tb 0.14867 0.31482 0.36812 0.0
C1502 C 0.11255 0.30127 0.39201 0.0
O1503 O 0.1522 0.28081 0.39716 0.0
Tb1504 Tb 0.12862 0.26424 0.40908 0.0
C1505 C 0.1141 0.23252 0.39363 0.0
O1506 O 0.16825 0.29017 0.37113 0.0
O1507 O 0.12631 0.25818 0.43954 0.0
C1508 C 0.14076 0.25192 0.44974 0.0
O1509 O 0.15814 0.25514 0.4437 0.0
O1510 O 0.12498 0.29694 0.37846 0.0
O1511 O 0.10954 0.28865 0.40572 0.0
O1512 O 0.15267 0.33968 0.3866 0.0
C1513 C 0.16459 0.27654 0.38372 0.0
C1514 C 0.14864 0.32931 0.33253 0.0
O1515 O 0.12959 0.23337 0.40375 0.0
O1516 O 0.10763 0.24977 0.39119 0.0
C1517 C 0.13932 0.35292 0.3862 0.0
O1518 O 0.12406 0.34971 0.37595 0.0
O1519 O 0.13361 0.32595 0.34297 0.0
O1520 O 0.46608 0.62496 0.44715 0.0
Tb1521 Tb 0.4737 0.64032 0.42096 0.0
C1522 C 0.4859 0.67521 0.39608 0.0
O1523 O 0.50548 0.63425 0.38979 0.0
Tb1524 Tb 0.52184 0.65788 0.378 0.0
C1525 C 0.55332 0.67165 0.39408 0.0
O1526 O 0.49788 0.62045 0.41768 0.0
O1527 O 0.52863 0.65964 0.34775 0.0
C1528 C 0.53469 0.64458 0.33833 0.0
O1529 O 0.53177 0.62766 0.34568 0.0
O1530 O 0.49096 0.66427 0.41059 0.0
O1531 O 0.49767 0.67707 0.38147 0.0
O1532 O 0.44998 0.63882 0.40118 0.0
C1533 C 0.51041 0.62291 0.40383 0.0
C1534 C 0.45899 0.63943 0.45642 0.0
O1535 O 0.55212 0.6554 0.3851 0.0
O1536 O 0.53643 0.67923 0.39519 0.0
C1537 C 0.43446 0.62923 0.40546 0.0
O1538 O 0.43515 0.61643 0.41906 0.0
O1539 O 0.46083 0.65469 0.4459 0.0
O1540 O 0.16571 0.71489 0.19592 0.0
Tb1541 Tb 0.15179 0.71843 0.16797 0.0
C1542 C 0.11583 0.72846 0.14118 0.0
O1543 O 0.14882 0.75502 0.14679 0.0
Tb1544 Tb 0.12839 0.77055 0.13006 0.0
C1545 C 0.10392 0.79664 0.14244 0.0
O1546 O 0.17196 0.74257 0.16364 0.0
O1547 O 0.13825 0.78379 0.1038 0.0
C1548 C 0.14376 0.80164 0.10572 0.0
O1549 O 0.14616 0.80812 0.1231 0.0
O1550 O 0.12469 0.73158 0.15769 0.0
O1551 O 0.11437 0.74258 0.12849 0.0
O1552 O 0.16002 0.69203 0.15336 0.0
C1553 C 0.16609 0.75705 0.15323 0.0
C1554 C 0.15152 0.70692 0.20477 0.0
O1555 O 0.12112 0.79434 0.14922 0.0
O1556 O 0.10034 0.7833 0.13004 0.0
C1557 C 0.1518 0.68521 0.13794 0.0
O1558 O 0.14106 0.69651 0.12767 0.0
O1559 O 0.13718 0.70639 0.1931 0.0
O1560 O 0.07956 0.41386 0.94558 0.0
Tb1561 Tb 0.06374 0.39903 0.92323 0.0
C1562 C 0.05187 0.36447 0.89639 0.0
O1563 O 0.02941 0.4014 0.89791 0.0
Tb1564 Tb 1.01264 0.38049 0.88232 0.0
C1565 C 0.98314 0.3628 0.89855 0.0
O1566 O 0.0408 0.42065 0.92001 0.0
O1567 O 1.0046 0.38095 0.85214 0.0
C1568 C 0.9976 0.3961 0.84357 0.0
O1569 O 1.00146 0.41308 0.8504 0.0
O1570 O 0.04807 0.37372 0.91248 0.0
O1571 O 0.03854 0.36308 0.88302 0.0
O1572 O 0.08939 0.40059 0.9054 0.0
C1573 C 0.02655 0.41665 0.9084 0.0
C1574 C 0.07874 0.4007 0.95857 0.0
O1575 O 0.98335 0.3806 0.89316 0.0
O1576 O 0.99995 0.35546 0.8958 0.0
C1577 C 0.10282 0.38757 0.90765 0.0
O1578 O 0.09916 0.37277 0.9185 0.0
O1579 O 0.06876 0.38644 0.95185 0.0
O1580 O 0.37443 0.32091 0.69532 0.0
Tb1581 Tb 0.39008 0.31604 0.6688 0.0
C1582 C 0.42511 0.30708 0.64063 0.0
O1583 O 0.39177 0.28057 0.645 0.0
Tb1584 Tb 0.41191 0.26599 0.62683 0.0
C1585 C 0.43478 0.23819 0.63878 0.0
O1586 O 0.36956 0.29245 0.66349 0.0
O1587 O 0.40672 0.25959 0.59688 0.0
C1588 C 0.39042 0.255 0.58897 0.0
O1589 O 0.37451 0.25742 0.59848 0.0
O1590 O 0.41656 0.3031 0.65709 0.0
O1591 O 0.42687 0.29341 0.62758 0.0
O1592 O 0.3837 0.3443 0.65722 0.0
C1593 C 0.37496 0.27808 0.6526 0.0
C1594 C 0.38883 0.32459 0.7063 0.0
O1595 O 0.4164 0.23867 0.64161 0.0
O1596 O 0.44012 0.25376 0.63025 0.0
C1597 C 0.39149 0.35261 0.64234 0.0
O1598 O 0.4009 0.34235 0.62986 0.0
O1599 O 0.4043 0.32276 0.69616 0.0
O1600 O 0.08937 0.47077 0.40722 0.0
Tb1601 Tb 0.11964 0.46969 0.39909 0.0
C1602 C 0.14935 0.4808 0.36625 0.0
O1603 O 0.14125 0.50613 0.4 0.0
Tb1604 Tb 0.15976 0.52214 0.38123 0.0
C1605 C 0.15043 0.54841 0.35563 0.0
O1606 O 0.12189 0.49272 0.42067 0.0
O1607 O 0.18522 0.53499 0.39357 0.0
C1608 C 0.18366 0.55332 0.39747 0.0
O1609 O 0.16651 0.5607 0.39784 0.0
O1610 O 0.13237 0.48416 0.37394 0.0
O1611 O 0.16241 0.49463 0.36625 0.0
O1612 O 0.13279 0.44376 0.41039 0.0
C1613 C 0.13245 0.50766 0.41636 0.0
C1614 C 0.08326 0.45794 0.39529 0.0
O1615 O 0.14133 0.54573 0.37173 0.0
O1616 O 0.1635 0.53541 0.35363 0.0
C1617 C 0.14601 0.43387 0.40142 0.0
O1618 O 0.15703 0.4425 0.38907 0.0
O1619 O 0.09756 0.45253 0.38481 0.0
O1620 O 0.31902 0.33833 0.16488 0.0
Tb1621 Tb 0.31296 0.36505 0.14987 0.0
C1622 C 0.30087 0.39192 0.1148 0.0
O1623 O 0.2808 0.39382 0.15325 0.0
Tb1624 Tb 0.26341 0.4082 0.13231 0.0
C1625 C 0.23293 0.39272 0.11576 0.0
O1626 O 0.28938 0.36908 0.17078 0.0
O1627 O 0.2581 0.43855 0.13573 0.0
C1628 C 0.24373 0.44377 0.14653 0.0
O1629 O 0.23429 0.4306 0.15586 0.0
O1630 O 0.29681 0.3765 0.12509 0.0
O1631 O 0.28827 0.40599 0.1138 0.0
O1632 O 0.34065 0.37853 0.15581 0.0
C1633 C 0.27655 0.38241 0.16733 0.0
C1634 C 0.32376 0.32805 0.15019 0.0
O1635 O 0.23409 0.39726 0.13377 0.0
O1636 O 0.24915 0.39616 0.10749 0.0
C1637 C 0.3488 0.39225 0.1459 0.0
O1638 O 0.33857 0.40214 0.13385 0.0
O1639 O 0.32135 0.33843 0.13493 0.0
O1640 O 0.44363 0.57572 0.91562 0.0
Tb1641 Tb 0.4156 0.57233 0.90226 0.0
C1642 C 0.39059 0.55724 0.86391 0.0
O1643 O 0.40487 0.52719 0.89716 0.0
Tb1644 Tb 0.38248 0.51605 0.87827 0.0
C1645 C 0.38919 0.48593 0.85595 0.0
O1646 O 0.4101 0.54781 0.92168 0.0
O1647 O 0.35491 0.50981 0.8912 0.0
C1648 C 0.3516 0.49219 0.89685 0.0
O1649 O 0.36577 0.47998 0.89703 0.0
O1650 O 0.3996 0.55697 0.88037 0.0
O1651 O 0.38158 0.54126 0.85964 0.0
O1652 O 0.40181 0.59916 0.91019 0.0
C1653 C 0.4037 0.53096 0.91556 0.0
C1654 C 0.45285 0.58119 0.90047 0.0
O1655 O 0.39746 0.48899 0.8723 0.0
O1656 O 0.37795 0.50009 0.85211 0.0
C1657 C 0.38628 0.60566 0.90199 0.0
O1658 O 0.37638 0.59418 0.89104 0.0
O1659 O 0.44123 0.5805 0.88597 0.0
O1660 O 0.21422 0.70138 0.66455 0.0
Tb1661 Tb 0.22193 0.67478 0.64978 0.0
C1662 C 0.2332 0.64903 0.61423 0.0
O1663 O 0.25551 0.64862 0.6508 0.0
Tb1664 Tb 0.27111 0.63152 0.63029 0.0
C1665 C 0.30096 0.64377 0.61021 0.0
O1666 O 0.24563 0.67116 0.67033 0.0
O1667 O 0.27611 0.60112 0.63447 0.0
C1668 C 0.28095 0.59297 0.65062 0.0
O1669 O 0.27766 0.60183 0.66676 0.0
O1670 O 0.23772 0.66437 0.62443 0.0
O1671 O 0.24544 0.63463 0.61291 0.0
O1672 O 0.19684 0.65701 0.65435 0.0
C1673 C 0.25921 0.65889 0.66596 0.0
C1674 C 0.20823 0.7107 0.64971 0.0
O1675 O 0.29964 0.6444 0.62876 0.0
O1676 O 0.28522 0.63696 0.60324 0.0
C1677 C 0.18381 0.65753 0.6409 0.0
O1678 O 0.18735 0.66758 0.62557 0.0
O1679 O 0.21078 0.7 0.63472 0.0
O1680 O 0.08824 0.56992 0.12366 0.0
Tb1681 Tb 0.11631 0.5673 0.13725 0.0
C1682 C 0.142 0.55641 0.17417 0.0
O1683 O 0.14056 0.53197 0.13777 0.0
Tb1684 Tb 0.15612 0.51684 0.15959 0.0
C1685 C 0.14457 0.48479 0.17659 0.0
O1686 O 0.11964 0.54271 0.11725 0.0
O1687 O 0.18691 0.5144 0.15841 0.0
C1688 C 0.19615 0.51004 0.14271 0.0
O1689 O 0.1879 0.513 0.12621 0.0
O1690 O 0.12679 0.55273 0.16343 0.0
O1691 O 0.15425 0.54232 0.17738 0.0
O1692 O 0.13101 0.59326 0.1279 0.0
C1693 C 0.13081 0.52843 0.12233 0.0
C1694 C 0.07952 0.57852 0.13757 0.0
O1695 O 0.15366 0.48562 0.16045 0.0
O1696 O 0.14113 0.50208 0.18259 0.0
C1697 C 0.14416 0.60224 0.13781 0.0
O1698 O 0.15235 0.59339 0.15203 0.0
O1699 O 0.09141 0.58004 0.15173 0.0
O1700 O 0.21999 0.33901 0.8804 0.0
Tb1701 Tb 0.22123 0.36827 0.89155 0.0
C1702 C 0.23911 0.39087 0.92991 0.0
O1703 O 0.25614 0.39902 0.8859 0.0
Tb1704 Tb 0.27386 0.40756 0.91028 0.0
C1705 C 0.30739 0.39192 0.9193 0.0
O1706 O 0.24563 0.37191 0.87145 0.0
O1707 O 0.27976 0.4375 0.91626 0.0
C1708 C 0.28072 0.45083 0.90312 0.0
O1709 O 0.27085 0.44878 0.88741 0.0
O1710 O 0.23818 0.38413 0.91239 0.0
O1711 O 0.2537 0.4022 0.93322 0.0
O1712 O 0.19343 0.38007 0.88335 0.0
C1713 C 0.2594 0.38478 0.87403 0.0
C1714 C 0.21248 0.33116 0.89544 0.0
O1715 O 0.30478 0.40541 0.90681 0.0
O1716 O 0.29079 0.38618 0.92528 0.0
C1717 C 0.18429 0.39382 0.89243 0.0
O1718 O 0.19382 0.40535 0.90365 0.0
O1719 O 0.21114 0.34414 0.90878 0.0
O1720 O 0.44818 0.46317 0.62342 0.0
Tb1721 Tb 0.42303 0.47292 0.63916 0.0
C1722 C 0.39773 0.48415 0.67481 0.0
O1723 O 0.39368 0.50495 0.63692 0.0
Tb1724 Tb 0.38011 0.52154 0.65938 0.0
C1725 C 0.39498 0.552 0.67663 0.0
O1726 O 0.41911 0.49726 0.61952 0.0
O1727 O 0.34985 0.52749 0.65687 0.0
C1728 C 0.34468 0.54163 0.64571 0.0
O1729 O 0.35766 0.54999 0.6352 0.0
O1730 O 0.41223 0.4892 0.66384 0.0
O1731 O 0.38338 0.49621 0.67717 0.0
O1732 O 0.40556 0.44742 0.63532 0.0
C1733 C 0.40567 0.50984 0.62349 0.0
C1734 C 0.45898 0.45987 0.63809 0.0
O1735 O 0.39083 0.55098 0.65852 0.0
O1736 O 0.39185 0.5355 0.68451 0.0
C1737 C 0.40728 0.43368 0.64801 0.0
O1738 O 0.4179 0.43674 0.66306 0.0
O1739 O 0.4497 0.46471 0.6535 0.0
O1740 O 0.32762 0.6944 0.3723 0.0
Tb1741 Tb 0.31794 0.66943 0.38817 0.0
C1742 C 0.30025 0.64836 0.42705 0.0
O1743 O 0.2726 0.66501 0.39193 0.0
Tb1744 Tb 0.26003 0.64476 0.41222 0.0
C1745 C 0.22784 0.65575 0.42911 0.0
O1746 O 0.29428 0.66338 0.36786 0.0
O1747 O 0.25392 0.61532 0.40419 0.0
C1748 C 0.24108 0.61256 0.39084 0.0
O1749 O 0.23618 0.62729 0.38043 0.0
O1750 O 0.30062 0.65539 0.40973 0.0
O1751 O 0.28359 0.64169 0.43239 0.0
O1752 O 0.34477 0.65375 0.38748 0.0
C1753 C 0.27645 0.66097 0.37401 0.0
C1754 C 0.3286 0.70621 0.38662 0.0
O1755 O 0.22948 0.6506 0.41143 0.0
O1756 O 0.24457 0.65561 0.43703 0.0
C1757 C 0.35866 0.66141 0.39753 0.0
O1758 O 0.35457 0.67639 0.40799 0.0
O1759 O 0.32243 0.69749 0.40196 0.0
O1760 O 0.4157 0.08974 0.46537 0.0
Tb1761 Tb 0.40021 0.11667 0.47007 0.0
C1762 C 0.36369 0.14223 0.48266 0.0
O1763 O 0.4005 0.14212 0.50496 0.0
Tb1764 Tb 0.37921 0.15638 0.52209 0.0
C1765 C 0.36277 0.14115 0.55275 0.0
O1766 O 0.42111 0.12147 0.49343 0.0
O1767 O 0.37858 0.18701 0.52739 0.0
C1768 C 0.39381 0.19764 0.52961 0.0
O1769 O 0.41047 0.19079 0.52455 0.0
O1770 O 0.37435 0.12675 0.48561 0.0
O1771 O 0.36138 0.15466 0.49681 0.0
O1772 O 0.40609 0.13067 0.44271 0.0
C1773 C 0.41628 0.13268 0.50778 0.0
C1774 C 0.40131 0.07937 0.46009 0.0
O1775 O 0.3797 0.14877 0.55238 0.0
O1776 O 0.35572 0.14115 0.53559 0.0
C1777 C 0.39682 0.14541 0.4357 0.0
O1778 O 0.38595 0.1556 0.44701 0.0
O1779 O 0.38605 0.08985 0.46133 0.0
O1780 O 0.92055 0.44525 0.57575 0.0
Tb1781 Tb 0.90631 0.41805 0.57002 0.0
C1782 C 0.86654 0.39391 0.55735 0.0
O1783 O 0.89853 0.41189 0.52626 0.0
Tb1784 Tb 0.87851 0.39034 0.51602 0.0
C1785 C 0.86038 0.39871 0.48397 0.0
O1786 O 0.92483 0.41309 0.54453 0.0
O1787 O 0.8861 0.36045 0.51227 0.0
C1788 C 0.90019 0.35565 0.50088 0.0
O1789 O 0.91225 0.3689 0.49553 0.0
O1790 O 0.88263 0.40352 0.55584 0.0
O1791 O 0.86049 0.38654 0.54116 0.0
O1792 O 0.91403 0.40416 0.59665 0.0
C1793 C 0.91702 0.40979 0.52756 0.0
C1794 C 0.90545 0.45515 0.58002 0.0
O1795 O 0.87673 0.39017 0.48498 0.0
O1796 O 0.85441 0.40301 0.50104 0.0
C1797 C 0.90364 0.39111 0.60517 0.0
O1798 O 0.89127 0.38127 0.59523 0.0
O1799 O 0.89049 0.44428 0.57766 0.0
O1800 O 0.33752 0.16379 0.31957 0.0
Tb1801 Tb 0.36437 0.14842 0.3159 0.0
C1802 C 0.39106 0.11273 0.30593 0.0
O1803 O 0.38906 0.14722 0.28073 0.0
Tb1804 Tb 0.40629 0.12627 0.26594 0.0
C1805 C 0.39372 0.10418 0.23764 0.0
O1806 O 0.36953 0.16887 0.29221 0.0
O1807 O 0.43612 0.13147 0.25913 0.0
C1808 C 0.44365 0.14786 0.25402 0.0
O1809 O 0.43434 0.16375 0.25727 0.0
O1810 O 0.37539 0.12237 0.30151 0.0
O1811 O 0.40463 0.11052 0.29289 0.0
O1812 O 0.37705 0.15598 0.34352 0.0
C1813 C 0.38065 0.16365 0.27795 0.0
C1814 C 0.32706 0.14945 0.32483 0.0
O1815 O 0.39081 0.12255 0.2389 0.0
O1816 O 0.40283 0.09843 0.25269 0.0
C1817 C 0.39051 0.14647 0.35248 0.0
O1818 O 0.40032 0.13361 0.34315 0.0
O1819 O 0.33752 0.13407 0.32418 0.0
O1820 O 0.6228 0.59207 0.07024 0.0
Tb1821 Tb 0.63826 0.61826 0.06274 0.0
C1822 C 0.67443 0.64172 0.0493 0.0
O1823 O 0.63537 0.64677 0.02881 0.0
Tb1824 Tb 0.65865 0.65836 1.01186 0.0
C1825 C 0.673 0.64206 0.98057 0.0
O1826 O 0.61841 0.6216 0.03836 0.0
O1827 O 0.6609 0.68882 1.00607 0.0
C1828 C 0.64605 0.7 1.0038 0.0
O1829 O 0.62924 0.6939 1.00921 0.0
O1830 O 0.66264 0.62753 0.04522 0.0
O1831 O 0.67741 0.65513 0.03638 0.0
O1832 O 0.63398 0.6367 0.08757 0.0
C1833 C 0.62228 0.63404 0.02469 0.0
C1834 C 0.6372 0.58266 0.07714 0.0
O1835 O 0.65666 0.65085 0.98155 0.0
O1836 O 0.68041 0.64134 0.99755 0.0
C1837 C 0.64732 0.63666 0.1008 0.0
O1838 O 0.66306 0.62714 0.09748 0.0
O1839 O 0.65249 0.59306 0.07505 0.0
O1840 O 0.70063 0.37501 0.32296 0.0
Tb1841 Tb 0.67307 0.38876 0.31733 0.0
C1842 C 0.64725 0.4246 0.30746 0.0
O1843 O 0.65021 0.39022 0.28149 0.0
Tb1844 Tb 0.63265 0.41137 0.2674 0.0
C1845 C 0.64008 0.43616 0.23972 0.0
O1846 O 0.66938 0.36841 0.29337 0.0
O1847 O 0.60644 0.39925 0.25651 0.0
C1848 C 0.60751 0.39447 0.23843 0.0
O1849 O 0.62452 0.39309 0.2308 0.0
O1850 O 0.66255 0.41464 0.30261 0.0
O1851 O 0.6333 0.42672 0.29481 0.0
O1852 O 0.65797 0.38252 0.34388 0.0
C1853 C 0.65843 0.37364 0.27904 0.0
C1854 C 0.70934 0.39011 0.32929 0.0
O1855 O 0.64986 0.42047 0.24269 0.0
O1856 O 0.62749 0.43827 0.25316 0.0
C1857 C 0.64135 0.38962 0.34882 0.0
O1858 O 0.63094 0.39816 0.33588 0.0
O1859 O 0.69782 0.40461 0.32789 0.0
O1860 O 0.12106 0.94631 0.96093 0.0
Tb1861 Tb 0.13503 0.91936 0.96941 0.0
C1862 C 0.17101 0.8945 0.97886 0.0
O1863 O 0.14087 0.90772 1.01226 0.0
Tb1864 Tb 0.15813 0.88308 0.01964 0.0
C1865 C 0.18399 0.88806 0.04684 0.0
O1866 O 0.11557 0.91397 0.99376 0.0
O1867 O 0.14209 0.85892 0.03058 0.0
C1868 C 0.1358 0.86073 0.04813 0.0
O1869 O 0.13399 0.8781 0.05494 0.0
O1870 O 0.16159 0.91022 0.98323 0.0
O1871 O 0.17194 0.88074 0.99173 0.0
O1872 O 0.13002 0.90157 0.9444 0.0
C1873 C 0.12237 0.90736 1.01006 0.0
C1874 C 0.1364 0.95513 0.95534 0.0
O1875 O 0.16954 0.89929 0.0438 0.0
O1876 O 0.18425 0.87464 0.03408 0.0
C1877 C 0.14342 0.90113 0.93127 0.0
O1878 O 0.15947 0.91007 0.93462 0.0
O1879 O 0.1509 0.9441 0.95868 0.0
O1880 O 0.34121 0.86859 0.21231 0.0
Tb1881 Tb 0.36776 0.88436 0.21796 0.0
C1882 C 0.38912 0.92208 0.23005 0.0
O1883 O 0.37714 0.89003 0.26126 0.0
Tb1884 Tb 0.39922 0.90936 0.27097 0.0
C1885 C 0.38999 0.92959 0.3017 0.0
O1886 O 0.3748 0.8647 0.2418 0.0
O1887 O 0.42859 0.90077 0.27616 0.0
C1888 C 0.4324 0.88865 0.28996 0.0
O1889 O 0.41824 0.87929 0.29781 0.0
O1890 O 0.37427 0.911 0.23322 0.0
O1891 O 0.40115 0.92516 0.24421 0.0
O1892 O 0.38496 0.88028 0.19228 0.0
C1893 C 0.37955 0.87172 0.25868 0.0
C1894 C 0.33173 0.88285 0.20513 0.0
O1895 O 0.39306 0.91131 0.3014 0.0
O1896 O 0.39136 0.9364 0.2845 0.0
C1897 C 0.38461 0.89381 0.17925 0.0
O1898 O 0.37575 0.90981 0.1832 0.0
O1899 O 0.34233 0.89803 0.20603 0.0
O1900 O 0.2011 0.16576 0.71536 0.0
Tb1901 Tb 0.17385 0.15154 0.7211 0.0
C1902 C 0.14637 0.11611 0.73228 0.0
O1903 O 0.14633 0.15337 0.75573 0.0
Tb1904 Tb 0.13358 0.1304 0.7723 0.0
C1905 C 0.14951 0.11278 0.8019 0.0
O1906 O 0.1713 0.17059 0.74638 0.0
O1907 O 0.10352 0.13082 0.77995 0.0
C1908 C 0.09801 0.14163 0.79427 0.0
O1909 O 0.11005 0.15399 0.80142 0.0
O1910 O 0.16178 0.12646 0.73611 0.0
O1911 O 0.13409 0.11313 0.74635 0.0
O1912 O 0.15924 0.1609 0.69518 0.0
C1913 C 0.15886 0.16657 0.75999 0.0
C1914 C 0.2105 0.15091 0.70941 0.0
O1915 O 0.14336 0.13036 0.80198 0.0
O1916 O 0.14803 0.10587 0.78473 0.0
C1917 C 0.14451 0.15263 0.68706 0.0
O1918 O 0.13463 0.14003 0.69667 0.0
O1919 O 0.19939 0.13604 0.71088 0.0
C1920 C 0.10063 0.20193 0.4064 0.0
C1921 C 0.10202 0.21528 0.39147 0.0
C1922 C 0.08596 0.1882 0.40682 0.0
C1923 C 0.07232 0.18708 0.39215 0.0
H1924 H 0.11016 0.20289 0.41848 0.0
H1925 H 0.08491 0.17892 0.41909 0.0
S1926 S 0.07206 0.21689 0.34823 0.0
N1927 N 0.08997 0.22534 0.36085 0.0
N1928 N 0.06311 0.19921 0.36088 0.0
C1929 C 0.0747 0.19942 0.37636 0.0
C1930 C 0.08934 0.2136 0.37623 0.0
C1931 C 0.07371 0.83989 0.66206 0.0
C1932 C 0.06777 0.84981 0.64568 0.0
C1933 C 0.0888 0.8268 0.66144 0.0
C1934 C 0.09828 0.8228 0.64428 0.0
H1935 H 0.06633 0.84195 0.67547 0.0
H1936 H 0.09234 0.81898 0.67425 0.0
S1937 S 0.08918 0.84588 0.59766 0.0
N1938 N 0.07351 0.85584 0.61216 0.0
N1939 N 0.10139 0.83055 0.6107 0.0
C1940 C 0.09298 0.83313 0.62793 0.0
C1941 C 0.07789 0.84687 0.6287 0.0
C1942 C 0.46771 0.83736 0.90874 0.0
C1943 C 0.46906 0.84813 0.89194 0.0
C1944 C 0.45632 0.82095 0.90955 0.0
C1945 C 0.44551 0.81498 0.89378 0.0
H1946 H 0.47625 0.84106 0.92103 0.0
H1947 H 0.45606 0.8128 0.92265 0.0
S1948 S 0.443 0.83897 0.84695 0.0
N1949 N 0.45814 0.85205 0.85935 0.0
N1950 N 0.43599 0.82165 0.86128 0.0
C1951 C 0.44599 0.82609 0.87721 0.0
C1952 C 0.458 0.84254 0.87619 0.0
C1953 C 0.43403 0.19965 0.15306 0.0
C1954 C 0.43282 0.21468 0.13978 0.0
C1955 C 0.4485 0.18579 0.1519 0.0
C1956 C 0.4626 0.18668 0.13769 0.0
H1957 H 0.42414 0.19892 0.16485 0.0
H1958 H 0.4494 0.17509 0.16299 0.0
S1959 S 0.46499 0.22141 0.09813 0.0
N1960 N 0.44613 0.228 0.11053 0.0
N1961 N 0.4737 0.2026 0.10922 0.0
C1962 C 0.46107 0.2009 0.12379 0.0
C1963 C 0.44609 0.21471 0.1246 0.0
C1964 C 0.07665 0.84039 0.15963 0.0
C1965 C 0.06967 0.84821 0.14246 0.0
C1966 C 0.08839 0.82408 0.15974 0.0
C1967 C 0.0932 0.81483 0.14268 0.0
H1968 H 0.07257 0.84661 0.17316 0.0
H1969 H 0.09306 0.81827 0.17323 0.0
S1970 S 0.08082 0.83061 0.09379 0.0
N1971 N 0.07001 0.84608 0.10786 0.0
N1972 N 0.09198 0.8157 0.10811 0.0
C1973 C 0.08719 0.82302 0.12541 0.0
C1974 C 0.07544 0.83963 0.12528 0.0
C1975 C 0.46868 0.83037 0.37789 0.0
C1976 C 0.47132 0.84439 0.392 0.0
C1977 C 0.45238 0.81894 0.37752 0.0
C1978 C 0.43829 0.82068 0.3916 0.0
H1979 H 0.47928 0.82829 0.36685 0.0
H1980 H 0.45114 0.80818 0.36651 0.0
S1981 S 0.43821 0.85516 0.43165 0.0
N1982 N 0.45815 0.85985 0.42004 0.0
N1983 N 0.42788 0.83742 0.42007 0.0
C1984 C 0.44067 0.8346 0.40584 0.0
C1985 C 0.45707 0.84674 0.40584 0.0
C1986 C 0.47124 0.20107 0.6245 0.0
C1987 C 0.47118 0.18826 0.63985 0.0
C1988 C 0.45947 0.21722 0.62453 0.0
C1989 C 0.4468 0.22089 0.63965 0.0
H1990 H 0.481 0.19903 0.61272 0.0
H1991 H 0.46027 0.2269 0.61254 0.0
S1992 S 0.44034 0.19103 0.68263 0.0
N1993 N 0.45724 0.18004 0.67042 0.0
N1994 N 0.4342 0.20987 0.66989 0.0
C1995 C 0.44602 0.20779 0.65472 0.0
C1996 C 0.45851 0.19164 0.65501 0.0
C1997 C 0.09095 0.21348 0.87493 0.0
C1998 C 0.10314 0.2148 0.89071 0.0
C1999 C 0.07551 0.20082 0.87494 0.0
C2000 C 0.07198 0.18872 0.89051 0.0
H2001 H 0.09267 0.22308 0.86297 0.0
H2002 H 0.06607 0.20075 0.86275 0.0
S2003 S 0.10089 0.18536 0.93444 0.0
N2004 N 0.11132 0.20233 0.92188 0.0
N2005 N 0.08281 0.17777 0.92145 0.0
C2006 C 0.08474 0.18906 0.90587 0.0
C2007 C 0.10017 0.20235 0.9061 0.0
C2008 C 0.41005 0.07225 0.19732 0.0
C2009 C 0.39378 0.07032 0.18583 0.0
C2010 C 0.40965 0.08316 0.21405 0.0
C2011 C 0.39314 0.09298 0.21977 0.0
H2012 H 0.42304 0.06475 0.19372 0.0
H2013 H 0.42246 0.08397 0.22259 0.0
S2014 S 0.34711 0.09361 0.19422 0.0
N2015 N 0.36078 0.07955 0.18113 0.0
N2016 N 0.36035 0.10075 0.21231 0.0
C2017 C 0.37695 0.09172 0.20819 0.0
C2018 C 0.37719 0.08019 0.19131 0.0
C2019 C 0.18752 0.15419 0.45158 0.0
C2020 C 0.18789 0.13942 0.46511 0.0
C2021 C 0.20086 0.15485 0.43665 0.0
C2022 C 0.21469 0.14046 0.43438 0.0
H2023 H 0.1776 0.16591 0.45319 0.0
H2024 H 0.2007 0.16704 0.42725 0.0
S2025 S 0.21936 0.09711 0.4646 0.0
N2026 N 0.20191 0.10935 0.47456 0.0
N2027 N 0.22618 0.10973 0.44597 0.0
C2028 C 0.21414 0.12486 0.44713 0.0
C2029 C 0.20095 0.12456 0.46262 0.0
C2030 C 0.15296 0.96081 0.71922 0.0
C2031 C 0.14184 0.94433 0.71837 0.0
C2032 C 0.15214 0.97449 0.70482 0.0
C2033 C 0.13963 0.97272 0.68912 0.0
H2034 H 0.16238 0.96322 0.73119 0.0
H2035 H 0.16125 0.98683 0.70644 0.0
S2036 S 0.107 0.93195 0.68068 0.0
N2037 N 0.11818 0.92638 0.70059 0.0
N2038 N 0.11548 0.95294 0.67416 0.0
C2039 C 0.12818 0.95627 0.68828 0.0
C2040 C 0.12963 0.94185 0.70268 0.0
C2041 C 0.3423 0.91078 0.95942 0.0
C2042 C 0.35027 0.89368 0.96596 0.0
C2043 C 0.32871 0.91077 0.94473 0.0
C2044 C 0.32231 0.89362 0.93628 0.0
H2045 H 0.34619 0.92419 0.96605 0.0
H2046 H 0.3227 0.9243 0.94036 0.0
S2047 S 0.33817 0.84493 0.94961 0.0
N2048 N 0.35093 0.85921 0.96326 0.0
N2049 N 0.32466 0.85903 0.93653 0.0
C2050 C 0.33039 0.87644 0.94273 0.0
C2051 C 0.34451 0.87652 0.95738 0.0
C2052 C 0.37946 0.9702 0.33564 0.0
C2053 C 0.39221 0.96696 0.35088 0.0
C2054 C 0.37851 0.95786 0.31994 0.0
C2055 C 0.38972 0.94138 0.31911 0.0
H2056 H 0.37051 0.98278 0.33539 0.0
H2057 H 0.36902 0.96134 0.3083 0.0
S2058 S 0.42512 0.92571 0.3549 0.0
N2059 N 0.41641 0.94579 0.36362 0.0
N2060 N 0.41377 0.92206 0.33466 0.0
C2061 C 0.40207 0.9375 0.33434 0.0
C2062 C 0.40354 0.95043 0.35005 0.0
C2063 C 0.33668 0.15452 0.59809 0.0
C2064 C 0.32203 0.14082 0.59907 0.0
C2065 C 0.35092 0.15359 0.58399 0.0
C2066 C 0.35079 0.1392 0.56999 0.0
H2067 H 0.33689 0.16635 0.60795 0.0
H2068 H 0.36138 0.16493 0.58332 0.0
S2069 S 0.31714 0.09874 0.56693 0.0
N2070 N 0.30979 0.11112 0.58556 0.0
N2071 N 0.33585 0.11028 0.55862 0.0
C2072 C 0.33685 0.125 0.57119 0.0
C2073 C 0.32268 0.12557 0.58582 0.0
C2074 C 0.16372 0.08487 0.81844 0.0
C2075 C 0.15115 0.10036 0.81891 0.0
C2076 C 0.16301 0.07053 0.83231 0.0
C2077 C 0.14914 0.0705 0.84695 0.0
H2078 H 0.17389 0.08353 0.8069 0.0
H2079 H 0.17305 0.05889 0.83091 0.0
S2080 S 0.11328 0.10864 0.85485 0.0
N2081 N 0.12518 0.11577 0.83586 0.0
N2082 N 0.12282 0.08803 0.86109 0.0
C2083 C 0.13665 0.08621 0.84774 0.0
C2084 C 0.13794 0.10131 0.83398 0.0
C2085 C 0.21722 0.87173 0.08613 0.0
C2086 C 0.22143 0.88877 0.09576 0.0
C2087 C 0.20525 0.87172 0.07013 0.0
C2088 C 0.19663 0.88865 0.06362 0.0
H2089 H 0.22391 0.85849 0.0904 0.0
H2090 H 0.20264 0.85833 0.06287 0.0
S2091 S 0.20217 0.93677 0.08468 0.0
N2092 N 0.21585 0.92293 0.09788 0.0
N2093 N 0.19239 0.92265 0.06859 0.0
C2094 C 0.20011 0.90561 0.0736 0.0
C2095 C 0.21279 0.90574 0.08945 0.0
C2096 C 0.18543 0.40299 0.0924 0.0
C2097 C 0.18471 0.38934 0.07762 0.0
C2098 C 0.20026 0.40299 0.10591 0.0
C2099 C 0.21513 0.38957 0.10494 0.0
H2100 H 0.17484 0.41417 0.09317 0.0
H2101 H 0.20076 0.41433 0.11639 0.0
S2102 S 0.21917 0.34946 0.07089 0.0
N2103 N 0.19947 0.36059 0.06455 0.0
N2104 N 0.22757 0.36148 0.08927 0.0
C2105 C 0.21414 0.37532 0.09101 0.0
C2106 C 0.19886 0.37495 0.07757 0.0
C2107 C 0.71109 0.16157 0.95294 0.0
C2108 C 0.71712 0.14539 0.94292 0.0
C2109 C 0.69673 0.16015 0.96678 0.0
C2110 C 0.68783 0.14255 0.97093 0.0
H2111 H 0.71825 0.1751 0.95088 0.0
H2112 H 0.69324 0.1728 0.97495 0.0
S2113 S 0.69659 0.09679 0.94584 0.0
N2114 N 0.71171 0.11189 0.93603 0.0
N2115 N 0.68477 0.10919 0.962 0.0
C2116 C 0.69272 0.12668 0.95973 0.0
C2117 C 0.70742 0.12811 0.94576 0.0
C2118 C 0.15878 0.45541 0.19132 0.0
C2119 C 0.14302 0.46761 0.18878 0.0
C2120 C 0.15891 0.44141 0.20576 0.0
C2121 C 0.14314 0.4389 0.21789 0.0
H2122 H 0.17154 0.45751 0.18291 0.0
H2123 H 0.17174 0.43322 0.208 0.0
S2124 S 0.0972 0.4652 0.21462 0.0
N2125 N 0.11073 0.47508 0.19814 0.0
N2126 N 0.11032 0.44833 0.22439 0.0
C2127 C 0.12677 0.45011 0.21432 0.0
C2128 C 0.12688 0.46457 0.20002 0.0
C2129 C 0.83716 0.91625 0.46595 0.0
C2130 C 0.84823 0.89963 0.46757 0.0
C2131 C 0.82144 0.91702 0.45365 0.0
C2132 C 0.81639 0.90141 0.44204 0.0
H2133 H 0.84011 0.92848 0.47493 0.0
H2134 H 0.81303 0.92997 0.45339 0.0
S2135 S 0.84192 0.85523 0.4395 0.0
N2136 N 0.85365 0.86748 0.45583 0.0
N2137 N 0.82463 0.86931 0.43197 0.0
C2138 C 0.82794 0.88506 0.44273 0.0
C2139 C 0.84368 0.88407 0.45572 0.0
C2140 C 0.90855 0.09384 0.20948 0.0
C2141 C 0.89147 0.10117 0.21723 0.0
C2142 C 0.90869 0.07737 0.19795 0.0
C2143 C 0.8918 0.06739 0.19419 0.0
H2144 H 0.92201 0.10063 0.21274 0.0
H2145 H 0.92213 0.07204 0.19257 0.0
S2146 S 0.84308 0.08155 0.20908 0.0
N2147 N 0.85704 0.09781 0.21874 0.0
N2148 N 0.85737 0.06691 0.19747 0.0
C2149 C 0.87458 0.075 0.2011 0.0
C2150 C 0.87438 0.09187 0.21251 0.0
C2151 C 0.34325 0.6595 0.58046 0.0
C2152 C 0.35054 0.642 0.57359 0.0
C2153 C 0.32776 0.66016 0.59318 0.0
C2154 C 0.31903 0.64333 0.59946 0.0
H2155 H 0.34911 0.67285 0.5754 0.0
H2156 H 0.32212 0.67389 0.59749 0.0
S2157 S 0.3331 0.59387 0.58714 0.0
N2158 N 0.34804 0.60739 0.575 0.0
N2159 N 0.31928 0.60874 0.59907 0.0
C2160 C 0.32664 0.62578 0.5935 0.0
C2161 C 0.34233 0.62507 0.58055 0.0
C2162 C 0.13189 0.59087 0.32731 0.0
C2163 C 0.14859 0.59825 0.31886 0.0
C2164 C 0.13248 0.57512 0.33974 0.0
C2165 C 0.14973 0.56585 0.3437 0.0
H2166 H 0.11818 0.59702 0.32387 0.0
H2167 H 0.11931 0.56974 0.34569 0.0
S2168 S 0.19763 0.58039 0.32659 0.0
N2169 N 0.18297 0.59577 0.31653 0.0
N2170 N 0.18409 0.56604 0.33938 0.0
C2171 C 0.16657 0.5735 0.3359 0.0
C2172 C 0.16601 0.58974 0.32363 0.0
C2173 C 0.40617 0.45791 0.84117 0.0
C2174 C 0.38925 0.46788 0.845 0.0
C2175 C 0.40613 0.44169 0.82928 0.0
C2176 C 0.38912 0.43465 0.82123 0.0
H2177 H 0.41955 0.46305 0.84682 0.0
H2178 H 0.41956 0.43483 0.82604 0.0
S2179 S 0.34086 0.45513 0.82827 0.0
N2180 N 0.355 0.46914 0.84074 0.0
N2181 N 0.35482 0.43874 0.81875 0.0
C2182 C 0.37203 0.44415 0.82571 0.0
C2183 C 0.37214 0.46074 0.8375 0.0
C2184 C 0.95295 0.85178 0.63064 0.0
C2185 C 0.96684 0.85372 0.645 0.0
C2186 C 0.93957 0.83684 0.63102 0.0
C2187 C 0.94 0.82292 0.64541 0.0
H2188 H 0.95249 0.86175 0.61891 0.0
H2189 H 0.92936 0.83572 0.61953 0.0
S2190 S 0.97234 0.82155 0.68689 0.0
N2191 N 0.97897 0.84066 0.6749 0.0
N2192 N 0.95461 0.81219 0.67466 0.0
C2193 C 0.95344 0.82473 0.65996 0.0
C2194 C 0.96665 0.84021 0.65999 0.0
C2195 C 0.94254 0.21125 0.41094 0.0
C2196 C 0.93575 0.21917 0.39374 0.0
C2197 C 0.95838 0.19894 0.41126 0.0
C2198 C 0.96827 0.19459 0.39445 0.0
H2199 H 0.93579 0.21494 0.42432 0.0
H2200 H 0.96336 0.19345 0.42478 0.0
S2201 S 0.95622 0.21081 0.34569 0.0
N2202 N 0.93995 0.22086 0.35939 0.0
N2203 N 0.96988 0.19829 0.36013 0.0
C2204 C 0.96139 0.20191 0.37716 0.0
C2205 C 0.94507 0.21405 0.37675 0.0
C2206 C 0.56905 0.20009 0.12203 0.0
C2207 C 0.56596 0.18872 0.13819 0.0
C2208 C 0.58129 0.2159 0.12275 0.0
C2209 C 0.59114 0.22069 0.13955 0.0
H2210 H 0.56123 0.19735 0.10902 0.0
H2211 H 0.58288 0.22458 0.1101 0.0
S2212 S 0.5893 0.19433 0.18519 0.0
N2213 N 0.57445 0.18267 0.17114 0.0
N2214 N 0.59797 0.21201 0.17229 0.0
C2215 C 0.5889 0.20888 0.15551 0.0
C2216 C 0.57615 0.193 0.15488 0.0
C2217 C 0.56701 0.83397 0.90286 0.0
C2218 C 0.56888 0.85114 0.89284 0.0
C2219 C 0.58162 0.8204 0.90302 0.0
C2220 C 0.59882 0.82308 0.89289 0.0
H2221 H 0.55382 0.83064 0.91014 0.0
H2222 H 0.57896 0.80733 0.91077 0.0
S2223 S 0.61129 0.86654 0.86546 0.0
N2224 N 0.58969 0.87095 0.8736 0.0
N2225 N 0.617 0.84509 0.87331 0.0
C2226 C 0.60116 0.84059 0.88335 0.0
C2227 C 0.58628 0.85469 0.88352 0.0
C2228 C 0.95123 0.20613 0.87917 0.0
C2229 C 0.94766 0.21724 0.89542 0.0
C2230 C 0.96275 0.18975 0.88028 0.0
C2231 C 0.97049 0.18366 0.89777 0.0
H2232 H 0.94568 0.21048 0.86547 0.0
H2233 H 0.96593 0.182 0.86731 0.0
S2234 S 0.96296 0.20667 0.94482 0.0
N2235 N 0.95126 0.2203 0.92968 0.0
N2236 N 0.9724 0.18941 0.9319 0.0
C2237 C 0.96601 0.19413 0.91426 0.0
C2238 C 0.95471 0.21097 0.91304 0.0
C2239 C 0.6028 0.19863 0.65288 0.0
C2240 C 0.60312 0.21284 0.63869 0.0
C2241 C 0.58792 0.18506 0.65378 0.0
C2242 C 0.5728 0.18531 0.64059 0.0
H2243 H 0.61346 0.19862 0.66394 0.0
H2244 H 0.5876 0.17513 0.66558 0.0
S2245 S 0.56801 0.21762 0.5993 0.0
N2246 N 0.58786 0.22453 0.60978 0.0
N2247 N 0.55987 0.1997 0.61216 0.0
C2248 C 0.57355 0.19858 0.62578 0.0
C2249 C 0.58873 0.21212 0.62462 0.0
C2250 C 0.59995 0.83272 0.40291 0.0
C2251 C 0.59996 0.8184 0.38879 0.0
C2252 C 0.58623 0.84739 0.40295 0.0
C2253 C 0.5722 0.84861 0.38867 0.0
H2254 H 0.60991 0.83197 0.41465 0.0
H2255 H 0.58633 0.85754 0.41456 0.0
S2256 S 0.56788 0.81569 0.34713 0.0
N2257 N 0.58582 0.807 0.35953 0.0
N2258 N 0.56069 0.83481 0.35884 0.0
C2259 C 0.57299 0.83496 0.37377 0.0
C2260 C 0.58667 0.81982 0.37404 0.0
C2261 C 0.94878 0.82134 0.16297 0.0
C2262 C 0.93628 0.82112 0.14739 0.0
C2263 C 0.96513 0.83277 0.1629 0.0
C2264 C 0.96939 0.84486 0.14749 0.0
H2265 H 0.94632 0.81202 0.17503 0.0
H2266 H 0.97453 0.83213 0.1751 0.0
S2267 S 0.94059 0.85045 0.10372 0.0
N2268 N 0.929 0.83421 0.11623 0.0
N2269 N 0.95927 0.85664 0.11663 0.0
C2270 C 0.95663 0.84539 0.13213 0.0
C2271 C 0.94023 0.83322 0.13192 0.0
C2272 C 0.62836 0.97049 0.83638 0.0
C2273 C 0.64322 0.9688 0.84964 0.0
C2274 C 0.62817 0.95966 0.81961 0.0
C2275 C 0.64256 0.9463 0.81559 0.0
H2276 H 0.61696 0.98064 0.83875 0.0
H2277 H 0.61643 0.96161 0.80981 0.0
S2278 S 0.68455 0.93615 0.84581 0.0
N2279 N 0.6729 0.95296 0.85757 0.0
N2280 N 0.67196 0.9317 0.82642 0.0
C2281 C 0.65734 0.94413 0.82888 0.0
C2282 C 0.65786 0.95566 0.84578 0.0
C2283 C 0.8197 0.91122 0.58484 0.0
C2284 C 0.82084 0.89723 0.59931 0.0
C2285 C 0.83287 0.91195 0.56981 0.0
C2286 C 0.84825 0.89928 0.56895 0.0
H2287 H 0.80801 0.92128 0.5845 0.0
H2288 H 0.83067 0.92217 0.55847 0.0
S2289 S 0.85896 0.86076 0.60347 0.0
N2290 N 0.83926 0.87064 0.61174 0.0
N2291 N 0.86459 0.87282 0.58407 0.0
C2292 C 0.85029 0.88587 0.5837 0.0
C2293 C 0.83647 0.88465 0.59871 0.0
C2294 C 0.87994 0.08266 0.34145 0.0
C2295 C 0.89633 0.07312 0.3481 0.0
C2296 C 0.88094 0.09587 0.32639 0.0
C2297 C 0.89828 0.09951 0.31718 0.0
H2298 H 0.86614 0.07937 0.34749 0.0
H2299 H 0.86795 0.10239 0.32125 0.0
S2300 S 0.94548 0.07966 0.33004 0.0
N2301 N 0.93055 0.06936 0.34502 0.0
N2302 N 0.9324 0.09393 0.31671 0.0
C2303 C 0.91485 0.0908 0.32426 0.0
C2304 C 0.91389 0.07763 0.33973 0.0
C2305 C 0.68317 0.15041 0.08879 0.0
C2306 C 0.68438 0.13575 0.07511 0.0
C2307 C 0.69709 0.15246 0.10307 0.0
C2308 C 0.71246 0.1396 0.10456 0.0
H2309 H 0.67223 0.16123 0.08757 0.0
H2310 H 0.69616 0.16464 0.11253 0.0
S2311 S 0.71991 0.09683 0.0739 0.0
N2312 N 0.70088 0.10724 0.0649 0.0
N2313 N 0.72625 0.11003 0.0923 0.0
C2314 C 0.71269 0.12385 0.09191 0.0
C2315 C 0.69886 0.1222 0.07706 0.0
C2316 C 0.65943 0.09059 0.71226 0.0
C2317 C 0.64523 0.10461 0.71298 0.0
C2318 C 0.65884 0.07588 0.69877 0.0
C2319 C 0.6438 0.07416 0.6855 0.0
H2320 H 0.67058 0.09036 0.7229 0.0
H2321 H 0.66991 0.06516 0.69955 0.0
S2322 S 0.60487 0.10936 0.67927 0.0
N2323 N 0.61708 0.11758 0.69761 0.0
N2324 N 0.61586 0.08967 0.67242 0.0
C2325 C 0.63038 0.08905 0.68504 0.0
C2326 C 0.63113 0.10432 0.69872 0.0
C2327 C 0.71392 0.8732 0.4483 0.0
C2328 C 0.71601 0.89045 0.43831 0.0
C2329 C 0.70164 0.87178 0.464 0.0
C2330 C 0.69055 0.88738 0.47008 0.0
H2331 H 0.72244 0.86089 0.44447 0.0
H2332 H 0.70094 0.85833 0.47155 0.0
S2333 S 0.68951 0.93524 0.44783 0.0
N2334 N 0.70534 0.92326 0.43513 0.0
N2335 N 0.68157 0.92027 0.46418 0.0
C2336 C 0.69176 0.90443 0.45969 0.0
C2337 C 0.7047 0.90606 0.44397 0.0
C2338 C 0.87783 0.96879 0.20351 0.0
C2339 C 0.89014 0.96594 0.18781 0.0
C2340 C 0.87716 0.95593 0.21883 0.0
C2341 C 0.88826 0.93929 0.21889 0.0
H2342 H 0.86922 0.98156 0.20452 0.0
H2343 H 0.86828 0.95934 0.23099 0.0
S2344 S 0.92172 0.92399 0.18093 0.0
N2345 N 0.91316 0.94454 0.17331 0.0
N2346 N 0.91118 0.91998 0.20154 0.0
C2347 C 0.89983 0.93562 0.20293 0.0
C2348 C 0.90097 0.94904 0.18758 0.0
C2349 C 0.84378 0.13185 0.95171 0.0
C2350 C 0.8387 0.14063 0.96907 0.0
C2351 C 0.83211 0.13342 0.9355 0.0
C2352 C 0.81522 0.14411 0.93611 0.0
H2353 H 0.85694 0.12387 0.95058 0.0
H2354 H 0.83635 0.12636 0.92244 0.0
S2355 S 0.79547 0.16988 0.97776 0.0
N2356 N 0.81538 0.16026 0.98568 0.0
N2357 N 0.79383 0.16341 0.95521 0.0
C2358 C 0.80998 0.1529 0.95328 0.0
C2359 C 0.82163 0.15111 0.96977 0.0
C2360 C 0.84051 0.62755 0.96612 0.0
C2361 C 0.85078 0.64448 0.96898 0.0
C2362 C 0.82485 0.62703 0.95377 0.0
C2363 C 0.81908 0.64333 0.94357 0.0
H2364 H 0.84393 0.61489 0.97427 0.0
H2365 H 0.81697 0.61382 0.95248 0.0
S2366 S 0.84272 0.69055 0.94443 0.0
N2367 N 0.85499 0.67758 0.95973 0.0
N2368 N 0.82597 0.67639 0.93589 0.0
C2369 C 0.82997 0.66002 0.9454 0.0
C2370 C 0.84568 0.66066 0.95832 0.0
C2371 C 0.33776 0.87594 0.07104 0.0
C2372 C 0.35163 0.89056 0.07045 0.0
C2373 C 0.32384 0.87518 0.08535 0.0
C2374 C 0.32342 0.88859 0.10016 0.0
H2375 H 0.33699 0.86532 0.05987 0.0
H2376 H 0.31287 0.86436 0.0844 0.0
S2377 S 0.35761 0.92837 0.10704 0.0
N2378 N 0.36459 0.91808 0.08704 0.0
N2379 N 0.33902 0.91602 0.11449 0.0
C2380 C 0.3379 0.9025 0.10066 0.0
C2381 C 0.35181 0.90366 0.08568 0.0
C2382 C 0.91105 0.5757 0.84245 0.0
C2383 C 0.89691 0.57478 0.8565 0.0
C2384 C 0.91054 0.58963 0.82816 0.0
C2385 C 0.89543 0.60289 0.82683 0.0
H2386 H 0.92218 0.56501 0.84198 0.0
H2387 H 0.92162 0.5892 0.81744 0.0
S2388 S 0.85572 0.60759 0.8615 0.0
N2389 N 0.86835 0.58944 0.86953 0.0
N2390 N 0.86677 0.61502 0.8421 0.0
C2391 C 0.88171 0.60276 0.84149 0.0
C2392 C 0.88261 0.58887 0.85645 0.0
C2393 C 0.20363 0.15836 0.56844 0.0
C2394 C 0.18661 0.14807 0.57168 0.0
C2395 C 0.21881 0.15807 0.58134 0.0
C2396 C 0.21759 0.14803 0.59851 0.0
H2397 H 0.20571 0.16623 0.55534 0.0
H2398 H 0.23187 0.16537 0.57757 0.0
S2399 S 0.17627 0.11959 0.61504 0.0
N2400 N 0.16963 0.12776 0.594 0.0
N2401 N 0.19782 0.1282 0.61881 0.0
C2402 C 0.20042 0.13853 0.60267 0.0
C2403 C 0.18503 0.13831 0.58915 0.0
C2404 C 0.15507 0.93593 0.8375 0.0
C2405 C 0.14142 0.93546 0.82281 0.0
C2406 C 0.15534 0.95076 0.85107 0.0
C2407 C 0.14219 0.96589 0.85026 0.0
H2408 H 0.16608 0.92518 0.83815 0.0
H2409 H 0.16673 0.95102 0.86145 0.0
S2410 S 0.10177 0.97024 0.81682 0.0
N2411 N 0.11269 0.95046 0.81021 0.0
N2412 N 0.11402 0.97856 0.83506 0.0
C2413 C 0.12778 0.96502 0.83653 0.0
C2414 C 0.12717 0.94975 0.82301 0.0
C2415 C 0.71399 0.37369 0.44973 0.0
C2416 C 0.71498 0.38688 0.43474 0.0
C2417 C 0.69909 0.37426 0.46311 0.0
C2418 C 0.68486 0.38851 0.46253 0.0
H2419 H 0.7253 0.36337 0.45165 0.0
H2420 H 0.69951 0.36409 0.47469 0.0
S2421 S 0.68041 0.42568 0.4251 0.0
N2422 N 0.69969 0.41365 0.41905 0.0
N2423 N 0.67233 0.41538 0.44463 0.0
C2424 C 0.68527 0.40123 0.447 0.0
C2425 C 0.70015 0.40026 0.43303 0.0
C2426 C 0.90724 0.4602 0.69739 0.0
C2427 C 0.89017 0.46897 0.69181 0.0
C2428 C 0.90717 0.44489 0.71042 0.0
C2429 C 0.89002 0.43758 0.71796 0.0
H2430 H 0.92072 0.46566 0.69225 0.0
H2431 H 0.92067 0.43896 0.71491 0.0
S2432 S 0.84141 0.45482 0.70631 0.0
N2433 N 0.85569 0.46864 0.69377 0.0
N2434 N 0.85547 0.44005 0.71799 0.0
C2435 C 0.87285 0.44586 0.71178 0.0
C2436 C 0.87296 0.46148 0.69876 0.0
C2437 C 0.62667 0.5749 0.19957 0.0
C2438 C 0.63895 0.57503 0.18383 0.0
C2439 C 0.62769 0.58906 0.21363 0.0
C2440 C 0.64134 0.60383 0.21292 0.0
H2441 H 0.61675 0.56324 0.20153 0.0
H2442 H 0.61814 0.58778 0.22568 0.0
S2443 S 0.67558 0.61171 0.17339 0.0
N2444 N 0.66392 0.59225 0.16711 0.0
N2445 N 0.66654 0.61829 0.19412 0.0
C2446 C 0.65306 0.6047 0.19666 0.0
C2447 C 0.65166 0.59048 0.18198 0.0
C2448 C 0.5725 0.69605 0.91126 0.0
C2449 C 0.56862 0.68674 0.89396 0.0
C2450 C 0.5849 0.71175 0.91197 0.0
C2451 C 0.5942 0.71847 0.89552 0.0
H2452 H 0.56512 0.69186 0.92415 0.0
H2453 H 0.58694 0.71896 0.92548 0.0
S2454 S 0.58997 0.69828 0.847 0.0
N2455 N 0.57574 0.68489 0.86012 0.0
N2456 N 0.59941 0.71411 0.86166 0.0
C2457 C 0.59116 0.70879 0.87833 0.0
C2458 C 0.57827 0.69299 0.87751 0.0
C2459 C 0.57187 0.33709 0.12631 0.0
C2460 C 0.56718 0.34922 0.14147 0.0
C2461 C 0.58766 0.32479 0.12748 0.0
C2462 C 0.59926 0.32401 0.14395 0.0
H2463 H 0.56283 0.33649 0.11384 0.0
H2464 H 0.5903 0.31526 0.11562 0.0
S2465 S 0.59388 0.35499 0.18661 0.0
N2466 N 0.57601 0.36112 0.17266 0.0
N2467 N 0.6056 0.33824 0.17492 0.0
C2468 C 0.5952 0.33703 0.15871 0.0
C2469 C 0.57915 0.3495 0.15747 0.0
C2470 C 0.95335 0.32309 0.41249 0.0
C2471 C 0.9421 0.31787 0.39676 0.0
C2472 C 0.96557 0.33884 0.41181 0.0
C2473 C 0.96744 0.34978 0.39517 0.0
H2474 H 0.95282 0.31484 0.4255 0.0
H2475 H 0.97422 0.34196 0.42419 0.0
S2476 S 0.94064 0.34259 0.35024 0.0
N2477 N 0.93291 0.32538 0.36434 0.0
N2478 N 0.95653 0.3547 0.36271 0.0
C2479 C 0.95607 0.34492 0.37938 0.0
C2480 C 0.94323 0.32905 0.38025 0.0
C2481 C 0.96465 0.70774 0.66235 0.0
C2482 C 0.97101 0.6984 0.64581 0.0
C2483 C 0.94792 0.71857 0.66229 0.0
C2484 C 0.93724 0.72087 0.64554 0.0
H2485 H 0.97258 0.70653 0.67552 0.0
H2486 H 0.9437 0.72573 0.67531 0.0
S2487 S 0.94766 0.69905 0.59858 0.0
N2488 N 0.96504 0.69144 0.61247 0.0
N2489 N 0.93404 0.71277 0.61205 0.0
C2490 C 0.94342 0.71157 0.6289 0.0
C2491 C 0.96017 0.70003 0.62913 0.0
C2492 C 0.56974 0.3383 0.62464 0.0
C2493 C 0.56735 0.34969 0.64089 0.0
C2494 C 0.58157 0.32226 0.62505 0.0
C2495 C 0.59166 0.31721 0.64162 0.0
H2496 H 0.56159 0.34115 0.61187 0.0
H2497 H 0.58256 0.31357 0.61232 0.0
S2498 S 0.59193 0.34385 0.68718 0.0
N2499 N 0.57692 0.35578 0.67356 0.0
N2500 N 0.59985 0.32592 0.67408 0.0
C2501 C 0.59033 0.32918 0.65758 0.0
C2502 C 0.57794 0.34534 0.65728 0.0
C2503 C 0.95065 0.32177 0.91169 0.0
C2504 C 0.9369 0.32202 0.89701 0.0
C2505 C 0.965 0.33569 0.91286 0.0
C2506 C 0.96578 0.35088 0.8999 0.0
H2507 H 0.95105 0.31014 0.92181 0.0
H2508 H 0.97596 0.33419 0.92359 0.0
S2509 S 0.93279 0.35919 0.85961 0.0
N2510 N 0.92501 0.33935 0.86953 0.0
N2511 N 0.95117 0.36603 0.87253 0.0
C2512 C 0.95153 0.35207 0.88592 0.0
C2513 C 0.9373 0.33754 0.88429 0.0
C2514 C 0.94004 0.70411 0.13258 0.0
C2515 C 0.94166 0.71931 0.14559 0.0
C2516 C 0.95364 0.68935 0.13207 0.0
C2517 C 0.96899 0.68891 0.14495 0.0
H2518 H 0.92864 0.70401 0.12222 0.0
H2519 H 0.95213 0.67828 0.12146 0.0
S2520 S 0.97817 0.72486 0.18308 0.0
N2521 N 0.95901 0.7328 0.1721 0.0
N2522 N 0.98395 0.70486 0.17209 0.0
C2523 C 0.97009 0.70375 0.15864 0.0
C2524 C 0.95658 0.71898 0.15872 0.0
C2525 C 0.57102 0.69825 0.40923 0.0
C2526 C 0.57088 0.68318 0.39614 0.0
C2527 C 0.58504 0.71243 0.40854 0.0
C2528 C 0.59933 0.71265 0.3943 0.0
H2529 H 0.5597 0.69958 0.41964 0.0
H2530 H 0.58392 0.72386 0.41887 0.0
S2531 S 0.60644 0.67476 0.35799 0.0
N2532 N 0.5873 0.66789 0.36977 0.0
N2533 N 0.61324 0.69497 0.368 0.0
C2534 C 0.59992 0.69696 0.38177 0.0
C2535 C 0.58584 0.68213 0.38283 0.0
C2536 C 0.877 0.58937 0.71089 0.0
C2537 C 0.88986 0.58628 0.7259 0.0
C2538 C 0.8784 0.57895 0.69379 0.0
C2539 C 0.89322 0.56577 0.69087 0.0
H2540 H 0.86584 0.59993 0.71237 0.0
H2541 H 0.86803 0.58143 0.68266 0.0
S2542 S 0.93036 0.55221 0.72574 0.0
N2543 N 0.91755 0.56855 0.73683 0.0
N2544 N 0.92055 0.54969 0.70455 0.0
C2545 C 0.90609 0.56253 0.70577 0.0
C2546 C 0.90432 0.57261 0.72332 0.0
C2547 C 0.71432 0.62782 0.94918 0.0
C2548 C 0.71284 0.64018 0.93335 0.0
C2549 C 0.70059 0.6275 0.96368 0.0
C2550 C 0.68445 0.63922 0.96296 0.0
H2551 H 0.72671 0.61883 0.95098 0.0
H2552 H 0.70312 0.61859 0.97602 0.0
S2553 S 0.67208 0.6725 0.92386 0.0
N2554 N 0.69276 0.66332 0.91736 0.0
N2555 N 0.66667 0.66232 0.94434 0.0
C2556 C 0.68188 0.65058 0.94663 0.0
C2557 C 0.69612 0.65117 0.93192 0.0
C2558 C 0.65638 0.46415 0.19604 0.0
C2559 C 0.6393 0.47244 0.18942 0.0
C2560 C 0.65663 0.45176 0.21185 0.0
C2561 C 0.63987 0.4477 0.22196 0.0
H2562 H 0.66977 0.46773 0.18929 0.0
H2563 H 0.6701 0.44602 0.21666 0.0
S2564 S 0.59121 0.46426 0.20952 0.0
N2565 N 0.60506 0.47444 0.19349 0.0
N2566 N 0.60549 0.45164 0.22326 0.0
C2567 C 0.62262 0.45527 0.21502 0.0
C2568 C 0.62234 0.46752 0.19875 0.0
C2569 C 0.84627 0.38283 0.45555 0.0
C2570 C 0.84838 0.39927 0.46687 0.0
C2571 C 0.83198 0.38173 0.4416 0.0
C2572 C 0.81971 0.39723 0.4383 0.0
H2573 H 0.85483 0.37029 0.45837 0.0
H2574 H 0.82989 0.36838 0.43417 0.0
S2575 S 0.82227 0.44475 0.46181 0.0
N2576 N 0.8388 0.43195 0.47253 0.0
N2577 N 0.81273 0.43054 0.44568 0.0
C2578 C 0.82298 0.41432 0.44846 0.0
C2579 C 0.83712 0.41519 0.46293 0.0
C2580 C 0.8818 0.45015 0.83063 0.0
C2581 C 0.89884 0.44602 0.821 0.0
C2582 C 0.88148 0.46317 0.84588 0.0
C2583 C 0.89826 0.47202 0.85243 0.0
H2584 H 0.86851 0.44404 0.82575 0.0
H2585 H 0.86788 0.46685 0.85217 0.0
S2586 S 0.9469 0.46396 0.83355 0.0
N2587 N 0.93314 0.45043 0.82012 0.0
N2588 N 0.93255 0.47452 0.84895 0.0
C2589 C 0.91554 0.46695 0.84374 0.0
C2590 C 0.91582 0.45406 0.82796 0.0
C2591 C 0.83888 0.62988 0.07158 0.0
C2592 C 0.8538 0.64317 0.07123 0.0
C2593 C 0.82514 0.6301 0.08612 0.0
C2594 C 0.8253 0.64407 0.10066 0.0
H2595 H 0.8374 0.61964 0.06011 0.0
H2596 H 0.81375 0.61974 0.08532 0.0
S2597 S 0.86224 0.68151 0.10674 0.0
N2598 N 0.86887 0.66986 0.08738 0.0
N2599 N 0.84257 0.67096 0.11412 0.0
C2600 C 0.84064 0.65703 0.10082 0.0
C2601 C 0.855 0.6564 0.08629 0.0
C2602 C 0.65973 0.58985 0.32883 0.0
C2603 C 0.64274 0.59373 0.31909 0.0
C2604 C 0.6599 0.5776 0.34472 0.0
C2605 C 0.64302 0.56918 0.35167 0.0
H2606 H 0.67304 0.59577 0.32378 0.0
H2607 H 0.67341 0.5744 0.3514 0.0
S2608 S 0.59449 0.5767 0.33216 0.0
N2609 N 0.60846 0.58946 0.31822 0.0
N2610 N 0.60867 0.5667 0.34799 0.0
C2611 C 0.62583 0.57376 0.34247 0.0
C2612 C 0.62572 0.58596 0.32621 0.0
C2613 C 0.70871 0.37252 0.57041 0.0
C2614 C 0.69976 0.38955 0.56464 0.0
C2615 C 0.72048 0.37197 0.58653 0.0
C2616 C 0.72388 0.38849 0.59731 0.0
H2617 H 0.7067 0.3595 0.56235 0.0
H2618 H 0.72763 0.35874 0.59004 0.0
S2619 S 0.70315 0.43639 0.58883 0.0
N2620 N 0.69436 0.42305 0.57154 0.0
N2621 N 0.71686 0.42216 0.60159 0.0
C2622 C 0.71465 0.40547 0.59199 0.0
C2623 C 0.70246 0.40597 0.57572 0.0
C2624 C 0.71348 0.91364 0.58229 0.0
C2625 C 0.71848 0.89864 0.59461 0.0
C2626 C 0.69753 0.91244 0.57037 0.0
C2627 C 0.68617 0.89595 0.56993 0.0
H2628 H 0.72204 0.92649 0.58176 0.0
H2629 H 0.69455 0.92423 0.56088 0.0
S2630 S 0.69245 0.85301 0.60005 0.0
N2631 N 0.71007 0.86723 0.60649 0.0
N2632 N 0.68054 0.86454 0.58335 0.0
C2633 C 0.69076 0.88095 0.58241 0.0
C2634 C 0.70676 0.88241 0.59498 0.0
C2635 C 0.20689 0.66745 0.45517 0.0
C2636 C 0.20998 0.6548 0.44005 0.0
C2637 C 0.19178 0.6647 0.4679 0.0
C2638 C 0.17962 0.64868 0.46653 0.0
H2639 H 0.21654 0.67928 0.45747 0.0
H2640 H 0.19031 0.67481 0.47947 0.0
S2641 S 0.1817 0.61161 0.4287 0.0
N2642 N 0.19923 0.62636 0.42345 0.0
N2643 N 0.17163 0.62037 0.4481 0.0
C2644 C 0.18238 0.63617 0.45105 0.0
C2645 C 0.19734 0.63944 0.43764 0.0
C2646 C 0.65692 0.94036 0.70004 0.0
C2647 C 0.64098 0.93778 0.71194 0.0
C2648 C 0.6571 0.95453 0.68582 0.0
C2649 C 0.64145 0.96683 0.68314 0.0
H2650 H 0.6697 0.93205 0.7023 0.0
H2651 H 0.67008 0.95668 0.67775 0.0
S2652 S 0.59498 0.96387 0.70778 0.0
N2653 N 0.60795 0.94696 0.71772 0.0
N2654 N 0.60886 0.97398 0.69173 0.0
C2655 C 0.625 0.96352 0.69388 0.0
C2656 C 0.62461 0.94889 0.70805 0.0
C2657 C 0.33715 0.40578 0.93326 0.0
C2658 C 0.32486 0.39005 0.93107 0.0
C2659 C 0.35036 0.40663 0.94831 0.0
C2660 C 0.35202 0.39166 0.96161 0.0
H2661 H 0.33561 0.41817 0.92419 0.0
H2662 H 0.35868 0.4195 0.95001 0.0
S2663 S 0.32552 0.34572 0.95967 0.0
N2664 N 0.31678 0.35826 0.94184 0.0
N2665 N 0.34195 0.35932 0.96956 0.0
C2666 C 0.34101 0.37509 0.95835 0.0
C2667 C 0.32737 0.37442 0.94324 0.0
C2668 C 0.40848 0.57003 0.70406 0.0
C2669 C 0.39679 0.56979 0.68791 0.0
C2670 C 0.40781 0.58517 0.71715 0.0
C2671 C 0.39486 0.60052 0.71514 0.0
H2672 H 0.4179 0.55813 0.70688 0.0
H2673 H 0.41708 0.58427 0.72941 0.0
S2674 S 0.36124 0.60654 0.67479 0.0
N2675 N 0.37237 0.58635 0.67 0.0
N2676 N 0.37045 0.61439 0.69497 0.0
C2677 C 0.38334 0.60053 0.69873 0.0
C2678 C 0.38447 0.58533 0.68504 0.0
C2679 C 0.84801 0.13613 0.08513 0.0
C2680 C 0.84854 0.14607 0.06772 0.0
C2681 C 0.83269 0.13823 0.09783 0.0
C2682 C 0.81686 0.14958 0.09319 0.0
H2683 H 0.85948 0.12655 0.08895 0.0
H2684 H 0.83286 0.13023 0.11102 0.0
S2685 S 0.81016 0.17772 0.0492 0.0
N2686 N 0.83129 0.16775 0.04663 0.0
N2687 N 0.80215 0.17044 0.07007 0.0
C2688 C 0.8169 0.15931 0.07583 0.0
C2689 C 0.83279 0.15785 0.06319 0.0
C2690 C 0.63228 0.09309 0.82455 0.0
C2691 C 0.64937 0.0996 0.81625 0.0
C2692 C 0.6321 0.07779 0.83743 0.0
C2693 C 0.64897 0.06817 0.84204 0.0
H2694 H 0.61881 0.09931 0.82037 0.0
H2695 H 0.61859 0.07286 0.84301 0.0
S2696 S 0.6977 0.08109 0.82621 0.0
N2697 N 0.68372 0.09633 0.81503 0.0
N2698 N 0.68347 0.06762 0.83922 0.0
C2699 C 0.66627 0.0753 0.83484 0.0
C2700 C 0.66646 0.09105 0.82195 0.0
C2701 C 0.90667 0.95486 0.32322 0.0
C2702 C 0.89291 0.94014 0.32351 0.0
C2703 C 0.90691 0.96943 0.33693 0.0
C2704 C 0.89376 0.96978 0.35195 0.0
H2705 H 0.91698 0.95577 0.31178 0.0
H2706 H 0.91707 0.98094 0.3353 0.0
S2707 S 0.8565 0.93342 0.3613 0.0
N2708 N 0.86678 0.92619 0.34139 0.0
N2709 N 0.86772 0.95314 0.36758 0.0
C2710 C 0.8808 0.9545 0.35338 0.0
C2711 C 0.88023 0.93985 0.33906 0.0
C2712 C 0.46737 0.33827 0.127 0.0
C2713 C 0.46705 0.35189 0.14169 0.0
C2714 C 0.45631 0.32167 0.12806 0.0
C2715 C 0.4442 0.31818 0.14367 0.0
H2716 H 0.47678 0.34011 0.11491 0.0
H2717 H 0.45723 0.31151 0.11646 0.0
S2718 S 0.43727 0.35014 0.18522 0.0
N2719 N 0.45338 0.36116 0.17207 0.0
N2720 N 0.43183 0.33032 0.17367 0.0
C2721 C 0.44326 0.33201 0.15816 0.0
C2722 C 0.45491 0.34874 0.15728 0.0
C2723 C 0.46779 0.70086 0.90579 0.0
C2724 C 0.46669 0.6846 0.89419 0.0
C2725 C 0.45322 0.71452 0.906 0.0
C2726 C 0.43696 0.71286 0.89427 0.0
H2727 H 0.48036 0.70343 0.91434 0.0
H2728 H 0.45529 0.72694 0.91495 0.0
S2729 S 0.42641 0.6718 0.86254 0.0
N2730 N 0.44737 0.66662 0.8718 0.0
N2731 N 0.42022 0.69257 0.87181 0.0
C2732 C 0.43536 0.6962 0.88316 0.0
C2733 C 0.4501 0.682 0.88326 0.0
C2734 C 0.0886 0.69012 0.63302 0.0
C2735 C 0.0744 0.68854 0.64714 0.0
C2736 C 0.10206 0.70501 0.63339 0.0
C2737 C 0.1017 0.71909 0.64773 0.0
H2738 H 0.08893 0.6802 0.62118 0.0
H2739 H 0.11196 0.70623 0.62164 0.0
S2740 S 0.06938 0.7205 0.68932 0.0
N2741 N 0.06257 0.70148 0.67725 0.0
N2742 N 0.08722 0.72973 0.67713 0.0
C2743 C 0.08837 0.71718 0.66241 0.0
C2744 C 0.07493 0.70184 0.66235 0.0
C2745 C 0.09215 0.32712 0.40609 0.0
C2746 C 0.09888 0.31726 0.3899 0.0
C2747 C 0.07692 0.34016 0.40484 0.0
C2748 C 0.06754 0.34324 0.38746 0.0
H2749 H 0.09844 0.32442 0.4199 0.0
H2750 H 0.07195 0.3472 0.41765 0.0
S2751 S 0.08002 0.32171 0.34081 0.0
N2752 N 0.09536 0.31222 0.35586 0.0
N2753 N 0.06665 0.33627 0.35359 0.0
C2754 C 0.07445 0.33389 0.37113 0.0
C2755 C 0.09014 0.321 0.37232 0.0
C2756 C 0.47049 0.70236 0.41289 0.0
C2757 C 0.47016 0.68911 0.3979 0.0
C2758 C 0.45829 0.71821 0.41296 0.0
C2759 C 0.44497 0.72124 0.39827 0.0
H2760 H 0.48091 0.701 0.42416 0.0
H2761 H 0.45941 0.72826 0.42463 0.0
S2762 S 0.43707 0.68944 0.35683 0.0
N2763 N 0.45484 0.67936 0.36849 0.0
N2764 N 0.43119 0.70869 0.36913 0.0
C2765 C 0.44382 0.70753 0.3837 0.0
C2766 C 0.45662 0.69161 0.38338 0.0
C2767 C 0.07029 0.70229 0.12731 0.0
C2768 C 0.07066 0.68574 0.13848 0.0
C2769 C 0.08548 0.71529 0.12752 0.0
C2770 C 0.10139 0.71276 0.13957 0.0
H2771 H 0.05787 0.70554 0.11878 0.0
H2772 H 0.08412 0.72797 0.11884 0.0
S2773 S 0.10923 0.67111 0.17128 0.0
N2774 N 0.08854 0.66673 0.16107 0.0
N2775 N 0.11648 0.69174 0.16255 0.0
C2776 C 0.10202 0.69593 0.15051 0.0
C2777 C 0.08684 0.68228 0.14968 0.0
C2778 C 0.07449 0.31707 0.90788 0.0
C2779 C 0.0892 0.31543 0.89434 0.0
C2780 C 0.06327 0.33355 0.90913 0.0
C2781 C 0.06601 0.34889 0.89661 0.0
H2782 H 0.07176 0.30561 0.91786 0.0
H2783 H 0.05195 0.33405 0.91961 0.0
S2784 S 0.10234 0.35183 0.85844 0.0
N2785 N 0.10617 0.33083 0.86843 0.0
N2786 N 0.0842 0.36142 0.87002 0.0
C2787 C 0.08052 0.34747 0.88289 0.0
C2788 C 0.09239 0.33086 0.88199 0.0
C2789 C 0.43874 0.33834 0.6529 0.0
C2790 C 0.43803 0.32407 0.63873 0.0
C2791 C 0.45256 0.35293 0.65236 0.0
C2792 C 0.46648 0.35351 0.63791 0.0
H2793 H 0.42897 0.33789 0.66483 0.0
H2794 H 0.45315 0.36303 0.66403 0.0
S2795 S 0.46985 0.32138 0.59624 0.0
N2796 N 0.45148 0.31326 0.60843 0.0
N2797 N 0.47787 0.33983 0.60843 0.0
C2798 C 0.46537 0.3401 0.62321 0.0
C2799 C 0.45105 0.32562 0.62336 0.0
C2800 C 0.13825 0.43603 0.33717 0.0
C2801 C 0.15185 0.43661 0.32246 0.0
C2802 C 0.13798 0.4499 0.35166 0.0
C2803 C 0.15161 0.46464 0.35239 0.0
H2804 H 0.12692 0.42555 0.33682 0.0
H2805 H 0.12664 0.44936 0.36206 0.0
S2806 S 0.1917 0.47089 0.31824 0.0
N2807 N 0.18001 0.45218 0.31007 0.0
N2808 N 0.1803 0.47764 0.33768 0.0
C2809 C 0.16612 0.46447 0.3384 0.0
C2810 C 0.16604 0.45063 0.32337 0.0
C2811 C 0.33558 0.40814 0.07649 0.0
C2812 C 0.3364 0.39232 0.06423 0.0
C2813 C 0.32454 0.40766 0.09322 0.0
C2814 C 0.3147 0.39103 0.09882 0.0
H2815 H 0.34315 0.42111 0.0729 0.0
H2816 H 0.32356 0.42047 0.1018 0.0
S2817 S 0.31324 0.34532 0.0723 0.0
N2818 N 0.32674 0.35934 0.05911 0.0
N2819 N 0.30685 0.35827 0.09088 0.0
C2820 C 0.31588 0.37495 0.08697 0.0
C2821 C 0.32653 0.37564 0.06962 0.0
C2822 C 0.37949 0.5704 0.83283 0.0
C2823 C 0.3899 0.57332 0.84982 0.0
C2824 C 0.37983 0.58354 0.81782 0.0
C2825 C 0.39017 0.60055 0.81917 0.0
H2826 H 0.37144 0.55742 0.83063 0.0
H2827 H 0.37232 0.58005 0.80481 0.0
S2828 S 0.41875 0.61634 0.86068 0.0
N2829 N 0.41037 0.59526 0.86704 0.0
N2830 N 0.41022 0.62044 0.83916 0.0
C2831 C 0.39978 0.60438 0.83635 0.0
C2832 C 0.39986 0.59066 0.85156 0.0
C2833 C 0.20921 0.63224 0.59382 0.0
C2834 C 0.21752 0.64949 0.60002 0.0
C2835 C 0.19631 0.63176 0.57852 0.0
C2836 C 0.19158 0.64845 0.56858 0.0
H2837 H 0.21298 0.61893 0.60066 0.0
H2838 H 0.19044 0.61817 0.5741 0.0
S2839 S 0.20805 0.69747 0.57989 0.0
N2840 N 0.21913 0.68383 0.5955 0.0
N2841 N 0.195 0.6829 0.56683 0.0
C2842 C 0.19928 0.66585 0.57497 0.0
C2843 C 0.21222 0.66638 0.59065 0.0
C2844 C 0.12761 0.5859 0.18961 0.0
C2845 C 0.1432 0.57351 0.187 0.0
C2846 C 0.12784 0.60017 0.20381 0.0
C2847 C 0.14353 0.60235 0.21614 0.0
H2848 H 0.11484 0.58406 0.18124 0.0
H2849 H 0.11517 0.60873 0.20593 0.0
S2850 S 0.18896 0.57578 0.21366 0.0
N2851 N 0.17583 0.5664 0.19657 0.0
N2852 N 0.1756 0.59238 0.22365 0.0
C2853 C 0.15952 0.59088 0.21301 0.0
C2854 C 0.15953 0.57671 0.19835 0.0
C2855 C 0.20592 0.38341 0.94205 0.0
C2856 C 0.22516 0.38761 0.94553 0.0
C2857 C 0.19243 0.38382 0.95695 0.0
C2858 C 0.19792 0.38773 0.97588 0.0
H2859 H 0.2012 0.38017 0.9278 0.0
H2860 H 0.17766 0.38087 0.95365 0.0
S2861 S 0.24702 0.39641 0.99299 0.0
N2862 N 0.24923 0.39372 0.96976 0.0
N2863 N 0.22411 0.39397 0.99747 0.0
C2864 C 0.21725 0.39071 0.97966 0.0
C2865 C 0.23083 0.39066 0.96458 0.0
C2866 C 0.38264 0.45793 0.69366 0.0
C2867 C 0.39918 0.46789 0.6882 0.0
C2868 C 0.38288 0.4448 0.70879 0.0
C2869 C 0.39954 0.44172 0.71938 0.0
H2870 H 0.36928 0.46068 0.68649 0.0
H2871 H 0.36977 0.43772 0.71278 0.0
S2872 S 0.44701 0.46285 0.7099 0.0
N2873 N 0.43298 0.4726 0.69376 0.0
N2874 N 0.43333 0.44837 0.72242 0.0
C2875 C 0.41632 0.45099 0.71361 0.0
C2876 C 0.41618 0.46399 0.69797 0.0
C2877 C 0.32423 0.65611 0.47427 0.0
C2878 C 0.34154 0.64614 0.47266 0.0
C2879 C 0.31172 0.65766 0.45887 0.0
C2880 C 0.31584 0.64929 0.44117 0.0
H2881 H 0.32031 0.66296 0.48754 0.0
H2882 H 0.2984 0.66519 0.46099 0.0
S2883 S 0.3582 0.61981 0.43006 0.0
N2884 N 0.36183 0.62704 0.45216 0.0
N2885 N 0.33772 0.62925 0.42333 0.0
C2886 C 0.33296 0.63906 0.43931 0.0
C2887 C 0.34595 0.63768 0.45503 0.0
C2888 C 0.3199 0.15806 0.45502 0.0
C2889 C 0.31977 0.1462 0.439 0.0
C2890 C 0.33457 0.15701 0.46841 0.0
C2891 C 0.34951 0.14354 0.4668 0.0
H2892 H 0.30838 0.16808 0.45739 0.0
H2893 H 0.33368 0.16655 0.48051 0.0
S2894 S 0.35572 0.10941 0.4268 0.0
N2895 N 0.33609 0.12118 0.42144 0.0
N2896 N 0.36313 0.11836 0.44726 0.0
C2897 C 0.34959 0.13172 0.45058 0.0
C2898 C 0.3349 0.13329 0.43652 0.0
C2899 C 0.85428 0.40454 0.58974 0.0
C2900 C 0.85505 0.3909 0.57502 0.0
C2901 C 0.84023 0.40346 0.60415 0.0
C2902 C 0.82635 0.38889 0.60409 0.0
H2903 H 0.8638 0.41668 0.58952 0.0
H2904 H 0.83937 0.41486 0.61453 0.0
S2905 S 0.82427 0.34793 0.57085 0.0
N2906 N 0.8424 0.36078 0.56319 0.0
N2907 N 0.81582 0.35939 0.58958 0.0
C2908 C 0.82795 0.37448 0.59037 0.0
C2909 C 0.84233 0.37534 0.57601 0.0
C2910 C 0.37387 0.08999 0.32738 0.0
C2911 C 0.39095 0.09888 0.32196 0.0
C2912 C 0.37389 0.07436 0.33984 0.0
C2913 C 0.39087 0.06737 0.34785 0.0
H2914 H 0.36047 0.09442 0.32117 0.0
H2915 H 0.36049 0.06745 0.34299 0.0
S2916 S 0.43916 0.08681 0.33994 0.0
N2917 N 0.42527 0.10015 0.32644 0.0
N2918 N 0.425 0.07138 0.35069 0.0
C2919 C 0.4079 0.07681 0.34354 0.0
C2920 C 0.408 0.09237 0.33036 0.0
C2921 C 0.70042 0.62429 0.06596 0.0
C2922 C 0.68832 0.64022 0.06501 0.0
C2923 C 0.71634 0.62421 0.07804 0.0
C2924 C 0.72047 0.63985 0.08994 0.0
H2925 H 0.69813 0.61221 0.0566 0.0
H2926 H 0.72558 0.61183 0.07794 0.0
S2927 S 0.69231 0.68439 0.09378 0.0
N2928 N 0.68113 0.67176 0.07735 0.0
N2929 N 0.71045 0.67118 0.10083 0.0
C2930 C 0.70794 0.65546 0.08979 0.0
C2931 C 0.69206 0.65578 0.07708 0.0
C2932 C 0.66714 0.4613 0.34172 0.0
C2933 C 0.65083 0.46899 0.35048 0.0
C2934 C 0.66593 0.446 0.3289 0.0
C2935 C 0.64825 0.43809 0.32383 0.0
H2936 H 0.68101 0.46745 0.3445 0.0
H2937 H 0.67889 0.44112 0.3221 0.0
S2938 S 0.60137 0.45203 0.34392 0.0
N2939 N 0.61662 0.46653 0.35448 0.0
N2940 N 0.61411 0.43834 0.32958 0.0
C2941 C 0.63185 0.44517 0.33304 0.0
C2942 C 0.63319 0.46044 0.34659 0.0
C2943 C 0.20975 0.87845 0.94402 0.0
C2944 C 0.21952 0.89552 0.94026 0.0
C2945 C 0.19359 0.87828 0.956 0.0
C2946 C 0.18647 0.89522 0.96427 0.0
H2947 H 0.21502 0.86511 0.93828 0.0
H2948 H 0.18685 0.86475 0.95911 0.0
S2949 S 0.20665 0.94378 0.95762 0.0
N2950 N 0.22062 0.92977 0.94489 0.0
N2951 N 0.19044 0.92963 0.96709 0.0
C2952 C 0.19584 0.91245 0.9599 0.0
C2953 C 0.21231 0.91254 0.94797 0.0
C2954 C 0.40519 0.95929 0.19411 0.0
C2955 C 0.38818 0.96899 0.19007 0.0
C2956 C 0.40533 0.94356 0.20656 0.0
C2957 C 0.38838 0.93664 0.21477 0.0
H2958 H 0.41854 0.96436 0.18827 0.0
H2959 H 0.41883 0.937 0.21009 0.0
S2960 S 0.33984 0.95594 0.20671 0.0
N2961 N 0.35388 0.96991 0.19404 0.0
N2962 N 0.35397 0.94012 0.21685 0.0
C2963 C 0.37117 0.94567 0.20992 0.0
C2964 C 0.37112 0.96191 0.1977 0.0
C2965 C 0.15955 0.10171 0.70171 0.0
C2966 C 0.14434 0.1042 0.71459 0.0
C2967 C 0.15858 0.0881 0.68688 0.0
C2968 C 0.14248 0.07629 0.68454 0.0
H2969 H 0.1726 0.10964 0.7036 0.0
H2970 H 0.17102 0.08597 0.67799 0.0
S2971 S 0.09774 0.07895 0.71225 0.0
N2972 N 0.1116 0.09524 0.72204 0.0
N2973 N 0.1104 0.06932 0.69493 0.0
C2974 C 0.12683 0.07943 0.69647 0.0
C2975 C 0.12759 0.09347 0.71126 0.0
C2976 C 0.99634 0.1269 0.31043 0.0
C2977 C 0.99148 0.13715 0.32695 0.0
C2978 C 0.98336 0.1251 0.29525 0.0
C2979 C 0.96515 0.13349 0.29614 0.0
H2980 H 1.01026 0.12038 0.30917 0.0
H2981 H 0.98755 0.11701 0.28278 0.0
S2982 S 0.94442 0.15871 0.33779 0.0
N2983 N 0.96651 0.15396 0.34414 0.0
N2984 N 0.94222 0.15026 0.31597 0.0
C2985 C 0.95997 0.14318 0.3129 0.0
C2986 C 0.97312 0.14508 0.32821 0.0
C2987 C 0.12703 0.71418 0.55142 0.0
C2988 C 0.13275 0.69766 0.56132 0.0
C2989 C 0.12832 0.73241 0.55988 0.0
C2990 C 0.13586 0.73468 0.57827 0.0
H2991 H 0.12162 0.71303 0.53703 0.0
H2992 H 0.12372 0.74479 0.55189 0.0
S2993 S 0.15319 0.69629 0.61011 0.0
N2994 N 0.14613 0.68504 0.59073 0.0
N2995 N 0.14911 0.7191 0.60604 0.0
C2996 C 0.1416 0.71834 0.58825 0.0
C2997 C 0.1399 0.69987 0.57993 0.0
C2998 C 0.54797 0.87464 0.80716 0.0
C2999 C 0.53794 0.89118 0.81272 0.0
C3000 C 0.56262 0.87535 0.79351 0.0
C3001 C 0.56808 0.8927 0.78508 0.0
H3002 H 0.54507 0.86112 0.81403 0.0
H3003 H 0.57053 0.86242 0.79051 0.0
S3004 S 0.54505 0.93972 0.7928 0.0
N3005 N 0.53336 0.92511 0.80705 0.0
N3006 N 0.56115 0.92648 0.78187 0.0
C3007 C 0.55744 0.90911 0.7896 0.0
C3008 C 0.5423 0.90834 0.80325 0.0
C3009 C 0.39286 0.31111 0.07886 0.0
C3010 C 0.38339 0.31492 0.0962 0.0
C3011 C 0.39423 0.3251 0.06445 0.0
C3012 C 0.3864 0.34338 0.06712 0.0
H3013 H 0.40012 0.29764 0.07678 0.0
H3014 H 0.40226 0.32194 0.05166 0.0
S3015 S 0.35757 0.3594 0.1085 0.0
N3016 N 0.36392 0.33743 0.11391 0.0
N3017 N 0.36698 0.36368 0.08742 0.0
C3018 C 0.37589 0.34683 0.08385 0.0
C3019 C 0.37423 0.33262 0.09823 0.0
C3020 C 0.98996 0.8864 0.22487 0.0
C3021 C 0.99231 0.90285 0.21358 0.0
C3022 C 0.97599 0.88544 0.23917 0.0
C3023 C 0.96377 0.90091 0.2429 0.0
H3024 H 0.99846 0.87379 0.22215 0.0
H3025 H 0.97432 0.87216 0.24687 0.0
S3026 S 0.96461 0.94777 0.21814 0.0
N3027 N 0.98173 0.93538 0.20783 0.0
N3028 N 0.95563 0.93364 0.23464 0.0
C3029 C 0.96662 0.91783 0.23241 0.0
C3030 C 0.98084 0.91879 0.2178 0.0
C3031 C 0.40285 0.73651 0.46966 0.0
C3032 C 0.38942 0.73225 0.4554 0.0
C3033 C 0.40461 0.72497 0.48593 0.0
C3034 C 0.39256 0.70923 0.4887 0.0
H3035 H 0.41282 0.74814 0.46774 0.0
H3036 H 0.41568 0.72812 0.49618 0.0
S3037 S 0.35469 0.69252 0.45584 0.0
N3038 N 0.36381 0.71139 0.44524 0.0
N3039 N 0.36645 0.69028 0.47604 0.0
C3040 C 0.37853 0.70538 0.47493 0.0
C3041 C 0.37712 0.71677 0.45822 0.0
C3042 C 0.57226 0.11944 0.7321 0.0
C3043 C 0.57098 0.13407 0.74584 0.0
C3044 C 0.56242 0.12054 0.71485 0.0
C3045 C 0.55047 0.13604 0.71072 0.0
H3046 H 0.58197 0.10759 0.73398 0.0
H3047 H 0.56496 0.10955 0.70431 0.0
S3048 S 0.53957 0.17656 0.74297 0.0
N3049 N 0.555 0.1635 0.75498 0.0
N3050 N 0.53611 0.16529 0.7226 0.0
C3051 C 0.5476 0.14989 0.72496 0.0
C3052 C 0.55791 0.14894 0.74252 0.0
C3053 C 0.1501 0.31963 0.99011 0.0
C3054 C 0.13526 0.33303 0.98819 0.0
C3055 C 0.15138 0.30361 0.97803 0.0
C3056 C 0.13766 0.30015 0.96385 0.0
H3057 H 0.16144 0.3221 1.00024 0.0
H3058 H 0.16353 0.29421 0.97942 0.0
S3059 S 0.0952 0.33035 0.95398 0.0
N3060 N 0.10608 0.34127 0.97171 0.0
N3061 N 0.10812 0.31124 0.94935 0.0
C3062 C 0.12217 0.31296 0.96255 0.0
C3063 C 0.12107 0.32936 0.97462 0.0
C3064 C 0.32856 0.9717 0.11786 0.0
C3065 C 0.33338 0.98482 0.13221 0.0
C3066 C 0.31208 0.96043 0.11924 0.0
C3067 C 0.30002 0.9615 0.13529 0.0
H3068 H 0.338 0.96957 0.10584 0.0
H3069 H 0.30954 0.94991 0.10823 0.0
S3070 S 0.30569 0.99451 0.17622 0.0
N3071 N 0.3241 0.99918 0.16236 0.0
N3072 N 0.29345 0.97771 0.16518 0.0
C3073 C 0.3042 0.97526 0.14927 0.0
C3074 C 0.32078 0.98699 0.14767 0.0
C3075 C 0.32319 0.06754 0.41134 0.0
C3076 C 0.33078 0.05718 0.39598 0.0
C3077 C 0.30853 0.08088 0.40856 0.0
C3078 C 0.30152 0.08482 0.3902 0.0
H3079 H 0.32936 0.06611 0.4254 0.0
H3080 H 0.30382 0.0893 0.42063 0.0
S3081 S 0.31616 0.061 0.34544 0.0
N3082 N 0.32937 0.05081 0.36201 0.0
N3083 N 0.30263 0.07671 0.35664 0.0
C3084 C 0.30846 0.07401 0.37488 0.0
C3085 C 0.32291 0.05997 0.37781 0.0
C3086 C 0.21344 0.05781 0.66457 0.0
C3087 C 0.21447 0.04405 0.64994 0.0
C3088 C 0.22378 0.07482 0.66362 0.0
C3089 C 0.23604 0.07869 0.64829 0.0
H3090 H 0.20363 0.05613 0.67635 0.0
H3091 H 0.22147 0.08539 0.67464 0.0
S3092 S 0.24602 0.04645 0.60756 0.0
N3093 N 0.2302 0.03476 0.62046 0.0
N3094 N 0.25007 0.06664 0.619 0.0
C3095 C 0.23847 0.06448 0.63433 0.0
C3096 C 0.22761 0.04718 0.6351 0.0
C3097 C 0.24565 0.97941 0.90548 0.0
C3098 C 0.25202 0.9696 0.88915 0.0
C3099 C 0.23185 0.99387 0.9043 0.0
C3100 C 0.22346 0.99881 0.88678 0.0
H3101 H 0.25081 0.97533 0.91942 0.0
H3102 H 0.22686 1.00032 0.91741 0.0
S3103 S 0.23629 0.97866 0.83955 0.0
N3104 N 0.25 0.96705 0.85468 0.0
N3105 N 0.22372 0.99377 0.85252 0.0
C3106 C 0.23046 0.98985 0.87022 0.0
C3107 C 0.24482 0.97539 0.87138 0.0
C3108 C 0.63812 0.22126 0.06378 0.0
C3109 C 0.6527 0.208 0.06037 0.0
C3110 C 0.63943 0.23447 0.07876 0.0
C3111 C 0.65507 0.23434 0.09129 0.0
H3112 H 0.62515 0.22073 0.05546 0.0
H3113 H 0.62738 0.24373 0.08149 0.0
S3114 S 0.69749 0.20315 0.08775 0.0
N3115 N 0.6839 0.19646 0.06975 0.0
N3116 N 0.68591 0.22059 0.09858 0.0
C3117 C 0.67013 0.22173 0.08747 0.0
C3118 C 0.66906 0.20871 0.07184 0.0
C3119 C 0.05764 0.39115 0.29529 0.0
C3120 C 0.06918 0.40727 0.29227 0.0
C3121 C 0.04434 0.39058 0.31025 0.0
C3122 C 0.04184 0.40617 0.32271 0.0
H3123 H 0.05965 0.3784 0.2868 0.0
H3124 H 0.03656 0.37745 0.31255 0.0
S3125 S 0.06666 0.4528 0.31933 0.0
N3126 N 0.07577 0.44 0.30181 0.0
N3127 N 0.0508 0.43894 0.32976 0.0
C3128 C 0.05225 0.42291 0.31895 0.0
C3129 C 0.06591 0.42344 0.3038 0.0
C3130 C 0.87192 0.82352 0.56146 0.0
C3131 C 0.88985 0.83053 0.55594 0.0
C3132 C 0.87024 0.80976 0.57594 0.0
C3133 C 0.88644 0.80219 0.58497 0.0
H3134 H 0.85909 0.82986 0.55573 0.0
H3135 H 0.85616 0.80571 0.58076 0.0
S3136 S 0.93662 0.81529 0.57483 0.0
N3137 N 0.92403 0.82857 0.56009 0.0
N3138 N 0.92102 0.80223 0.58663 0.0
C3139 C 0.90447 0.80823 0.57863 0.0
C3140 C 0.90613 0.82254 0.56428 0.0
C3141 C 0.07319 0.62571 0.23361 0.0
C3142 C 0.07383 0.64204 0.24533 0.0
C3143 C 0.06288 0.62565 0.21657 0.0
C3144 C 0.05237 0.64166 0.21084 0.0
H3145 H 0.08185 0.61334 0.23676 0.0
H3146 H 0.06392 0.61329 0.20733 0.0
S3147 S 0.04699 0.68695 0.23755 0.0
N3148 N 0.06141 0.67398 0.25084 0.0
N3149 N 0.04157 0.67355 0.21897 0.0
C3150 C 0.05145 0.65743 0.22315 0.0
C3151 C 0.06229 0.65769 0.24038 0.0
C3152 C 0.47656 0.40002 0.72343 0.0
C3153 C 0.48143 0.38579 0.71019 0.0
C3154 C 0.46135 0.39747 0.73614 0.0
C3155 C 0.45005 0.38089 0.73552 0.0
H3156 H 0.48387 0.41363 0.72321 0.0
H3157 H 0.45743 0.40926 0.74533 0.0
S3158 S 0.45754 0.33904 0.70415 0.0
N3159 N 0.47469 0.354 0.69815 0.0
N3160 N 0.44543 0.34965 0.72135 0.0
C3161 C 0.45534 0.36621 0.72298 0.0
C3162 C 0.47121 0.36856 0.71047 0.0
C3163 C 0.06168 0.88081 0.7114 0.0
C3164 C 0.0574 0.89954 0.70564 0.0
C3165 C 0.07545 0.87724 0.72545 0.0
C3166 C 0.08494 0.89231 0.73464 0.0
H3167 H 0.05535 0.86879 0.70404 0.0
H3168 H 0.0793 0.8626 0.72856 0.0
S3169 S 0.078 0.94397 0.7254 0.0
N3170 N 0.06336 0.93326 0.71045 0.0
N3171 N 0.08841 0.92672 0.73755 0.0
C3172 C 0.07992 0.91113 0.72978 0.0
C3173 C 0.06637 0.91471 0.71506 0.0
C3174 C 0.87928 0.31734 0.46912 0.0
C3175 C 0.89545 0.31001 0.45991 0.0
C3176 C 0.88101 0.3308 0.4839 0.0
C3177 C 0.89896 0.33783 0.48949 0.0
H3178 H 0.86521 0.31355 0.46409 0.0
H3179 H 0.86812 0.33689 0.48981 0.0
S3180 S 0.94564 0.32217 0.47042 0.0
N3181 N 0.92991 0.30964 0.45821 0.0
N3182 N 0.93321 0.33538 0.48544 0.0
C3183 C 0.91523 0.3298 0.48101 0.0
C3184 C 0.91345 0.31581 0.46631 0.0
C3185 C 0.46721 0.12982 0.23417 0.0
C3186 C 0.46042 0.1475 0.24098 0.0
C3187 C 0.48007 0.12873 0.21895 0.0
C3188 C 0.487 0.14526 0.21003 0.0
H3189 H 0.46175 0.11655 0.23988 0.0
H3190 H 0.48399 0.11476 0.21361 0.0
S3191 S 0.47587 0.19517 0.22393 0.0
N3192 N 0.46318 0.18202 0.23873 0.0
N3193 N 0.48759 0.17997 0.2103 0.0
C3194 C 0.48157 0.16307 0.21761 0.0
C3195 C 0.46824 0.1642 0.23303 0.0
C3196 C 0.66484 0.72041 0.98122 0.0
C3197 C 0.6478 0.71714 0.99133 0.0
C3198 C 0.66581 0.73389 0.96648 0.0
C3199 C 0.64981 0.74474 0.9612 0.0
H3200 H 0.67731 0.71176 0.98393 0.0
H3201 H 0.67896 0.73499 0.95849 0.0
S3202 S 0.60271 0.74409 0.98539 0.0
N3203 N 0.61525 0.72769 0.99661 0.0
N3204 N 0.61706 0.75304 0.96907 0.0
C3205 C 0.63314 0.74276 0.97226 0.0
C3206 C 0.63214 0.72897 0.98726 0.0
C3207 C 0.05661 0.14884 0.82755 0.0
C3208 C 0.05491 0.13084 0.83623 0.0
C3209 C 0.06962 0.15192 0.81271 0.0
C3210 C 0.08091 0.13698 0.80559 0.0
H3211 H 0.04903 0.16102 0.83329 0.0
H3212 H 0.07164 0.16632 0.8075 0.0
S3213 S 0.08008 0.08667 0.82184 0.0
N3214 N 0.06452 0.09759 0.83576 0.0
N3215 N 0.08833 0.10314 0.80717 0.0
C3216 C 0.0782 0.11857 0.81307 0.0
C3217 C 0.06537 0.11556 0.8286 0.0
C3218 C 0.64274 0.33594 0.60069 0.0
C3219 C 0.64594 0.31663 0.5961 0.0
C3220 C 0.64036 0.3498 0.58659 0.0
C3221 C 0.64138 0.34524 0.56708 0.0
H3222 H 0.64182 0.34054 0.6154 0.0
H3223 H 0.63807 0.36436 0.5912 0.0
S3224 S 0.64917 0.29673 0.54724 0.0
N3225 N 0.64948 0.29352 0.57054 0.0
N3226 N 0.64556 0.31977 0.54388 0.0
C3227 C 0.64439 0.32596 0.56217 0.0
C3228 C 0.64655 0.31165 0.57668 0.0
C3229 C 0.4621 0.90582 0.30012 0.0
C3230 C 0.45121 0.88894 0.29969 0.0
C3231 C 0.47785 0.90772 0.31235 0.0
C3232 C 0.48363 0.89268 0.3243 0.0
H3233 H 0.45777 0.91808 0.29182 0.0
H3234 H 0.48518 0.9213 0.3129 0.0
S3235 S 0.46068 0.84501 0.32748 0.0
N3236 N 0.44789 0.8566 0.31155 0.0
N3237 N 0.4776 0.85992 0.33412 0.0
C3238 C 0.47347 0.87536 0.32318 0.0
C3239 C 0.45725 0.87356 0.311 0.0
C3240 C 0.87129 0.72792 0.07817 0.0
C3241 C 0.88596 0.74045 0.08358 0.0
C3242 C 0.87249 0.7171 0.06139 0.0
C3243 C 0.8886 0.71809 0.04944 0.0
H3244 H 0.85916 0.72574 0.08745 0.0
H3245 H 0.86124 0.70695 0.05851 0.0
S3246 S 0.92998 0.75029 0.05599 0.0
N3247 N 0.91628 0.75461 0.07462 0.0
N3248 N 0.91869 0.73401 0.04329 0.0
C3249 C 0.9028 0.73147 0.05403 0.0
C3250 C 0.90144 0.74273 0.07102 0.0
C3251 C 0.69716 0.10103 0.88765 0.0
C3252 C 0.71681 0.09733 0.88904 0.0
C3253 C 0.68359 0.08704 0.89181 0.0
C3254 C 0.68889 0.06845 0.89727 0.0
H3255 H 0.69202 0.11506 0.88375 0.0
H3256 H 0.66874 0.09092 0.89047 0.0
S3257 S 0.73838 0.05085 0.90235 0.0
N3258 N 0.7409 0.07339 0.89598 0.0
N3259 N 0.71523 0.04686 0.90326 0.0
C3260 C 0.70845 0.06428 0.89824 0.0
C3261 C 0.72241 0.07872 0.89425 0.0
C3262 C 0.71032 0.98123 0.6657 0.0
C3263 C 0.71435 0.99652 0.65328 0.0
C3264 C 0.71988 0.9638 0.66417 0.0
C3265 C 0.73429 0.96103 0.65058 0.0
H3266 H 0.69882 0.9822 0.67593 0.0
H3267 H 0.7154 0.95215 0.67326 0.0
S3268 S 0.75194 0.99702 0.61616 0.0
N3269 N 0.7348 1.00812 0.62787 0.0
N3270 N 0.75328 0.97544 0.62547 0.0
C3271 C 0.7395 0.97655 0.63902 0.0
C3272 C 0.72942 0.99426 0.64026 0.0
C3273 C 0.81241 0.96517 0.37205 0.0
C3274 C 0.79849 0.96232 0.38613 0.0
C3275 C 0.82217 0.9825 0.37046 0.0
C3276 C 0.81882 0.99768 0.38324 0.0
H3277 H 0.81638 0.95361 0.36259 0.0
H3278 H 0.83331 0.98344 0.35983 0.0
S3279 S 0.78257 0.99804 0.42175 0.0
N3280 N 0.78065 0.9766 0.41215 0.0
N3281 N 0.79938 1.00912 0.40957 0.0
C3282 C 0.80415 0.9954 0.39676 0.0
C3283 C 0.79391 0.97775 0.39811 0.0
C3284 C 0.82922 0.0988 0.15698 0.0
C3285 C 0.81039 0.09562 0.15091 0.0
C3286 C 0.84334 0.08497 0.15466 0.0
C3287 C 0.83932 0.06704 0.1466 0.0
H3288 H 0.83342 0.1124 0.16298 0.0
H3289 H 0.85764 0.08847 0.15923 0.0
S3290 S 0.79213 0.05055 0.12991 0.0
N3291 N 0.78828 0.07263 0.13728 0.0
N3292 N 0.81495 0.04626 0.13364 0.0
C3293 C 0.82044 0.06314 0.14136 0.0
C3294 C 0.80597 0.0775 0.14333 0.0
C3295 C 0.4092 0.80929 0.98846 0.0
C3296 C 0.39233 0.81784 0.99508 0.0
C3297 C 0.4088 0.7948 0.97468 0.0
C3298 C 0.39154 0.78812 0.96694 0.0
H3299 H 0.42293 0.81453 0.99308 0.0
H3300 H 0.42227 0.78948 0.96936 0.0
S3301 S 0.3432 0.80329 0.98194 0.0
N3302 N 0.35769 0.81669 0.99472 0.0
N3303 N 0.35702 0.78952 0.96877 0.0
C3304 C 0.3745 0.79535 0.97463 0.0
C3305 C 0.37489 0.81019 0.98867 0.0
C3306 C 0.98468 0.65166 0.71591 0.0
C3307 C 0.98167 0.63828 0.70123 0.0
C3308 C 0.97323 0.65179 0.73241 0.0
C3309 C 0.9587 0.63823 0.73506 0.0
H3310 H 0.99519 0.66283 0.71417 0.0
H3311 H 0.97545 0.6629 0.7429 0.0
S3312 S 0.94613 0.59927 0.70123 0.0
N3313 N 0.96376 0.61069 0.6907 0.0
N3314 N 0.94274 0.61032 0.72172 0.0
C3315 C 0.95632 0.62411 0.72085 0.0
C3316 C 0.96766 0.6243 0.70394 0.0
C3317 C 0.15268 0.23243 0.4773 0.0
C3318 C 0.13762 0.23744 0.46503 0.0
C3319 C 0.1516 0.21628 0.48914 0.0
C3320 C 0.13553 0.20429 0.48903 0.0
H3321 H 0.16579 0.24055 0.47713 0.0
H3322 H 0.16397 0.21257 0.49754 0.0
S3323 S 0.09134 0.21206 0.46115 0.0
N3324 N 0.10536 0.22989 0.45491 0.0
N3325 N 0.10348 0.19958 0.47691 0.0
C3326 C 0.1199 0.2098 0.47776 0.0
C3327 C 0.1209 0.22635 0.46586 0.0
C3328 C 0.96352 0.3824 0.80334 0.0
C3329 C 0.94582 0.38858 0.81055 0.0
C3330 C 0.98041 0.38463 0.81403 0.0
C3331 C 0.98015 0.39369 0.83194 0.0
H3332 H 0.96427 0.37568 0.78947 0.0
H3333 H 0.99372 0.37949 0.80818 0.0
S3334 S 0.93767 0.41271 0.857 0.0
N3335 N 0.92932 0.4043 0.83672 0.0
N3336 N 0.96077 0.4085 0.85641 0.0
C3337 C 0.9626 0.39997 0.83913 0.0
C3338 C 0.94551 0.39746 0.82854 0.0
C3339 C 0.56193 0.66261 0.32396 0.0
C3340 C 0.54954 0.64679 0.32338 0.0
C3341 C 0.57909 0.66267 0.31365 0.0
C3342 C 0.58418 0.64723 0.30196 0.0
H3343 H 0.5592 0.67433 0.33366 0.0
H3344 H 0.58899 0.67433 0.31577 0.0
S3345 S 0.55597 0.60338 0.29378 0.0
N3346 N 0.54302 0.61596 0.30891 0.0
N3347 N 0.57502 0.61641 0.28924 0.0
C3348 C 0.57129 0.63207 0.30004 0.0
C3349 C 0.55401 0.63179 0.3108 0.0
C3350 C 0.4736 0.63153 0.79367 0.0
C3351 C 0.46451 0.64893 0.78944 0.0
C3352 C 0.48811 0.63044 0.80733 0.0
C3353 C 0.49417 0.6467 0.81743 0.0
H3354 H 0.46887 0.6184 0.78705 0.0
H3355 H 0.4939 0.61652 0.81067 0.0
S3356 S 0.47674 0.69621 0.80996 0.0
N3357 N 0.46402 0.68316 0.79512 0.0
N3358 N 0.49125 0.68118 0.8207 0.0
C3359 C 0.48622 0.66445 0.8123 0.0
C3360 C 0.47142 0.66555 0.79834 0.0
C3361 C 0.90867 0.20654 0.96939 0.0
C3362 C 0.89398 0.19324 0.97218 0.0
C3363 C 0.90664 0.22154 0.95616 0.0
C3364 C 0.89001 0.22345 0.94508 0.0
H3365 H 0.92208 0.20485 0.97679 0.0
H3366 H 0.91864 0.23092 0.95371 0.0
S3367 S 0.84679 0.19337 0.94867 0.0
N3368 N 0.86174 0.1839 0.96412 0.0
N3369 N 0.85812 0.21162 0.93903 0.0
C3370 C 0.87496 0.21072 0.94847 0.0
C3371 C 0.87692 0.19572 0.96207 0.0
C3372 C 0.65123 0.80837 0.489 0.0
C3373 C 0.63756 0.82297 0.4882 0.0
C3374 C 0.64895 0.79147 0.47841 0.0
C3375 C 0.63294 0.78871 0.46661 0.0
H3376 H 0.66446 0.81067 0.49656 0.0
H3377 H 0.66052 0.78127 0.4783 0.0
S3378 S 0.59165 0.82171 0.46253 0.0
N3379 N 0.60664 0.83287 0.47679 0.0
N3380 N 0.60183 0.80112 0.45734 0.0
C3381 C 0.61831 0.80253 0.46738 0.0
C3382 C 0.6208 0.81972 0.47797 0.0
C3383 C 0.80657 0.49092 0.66113 0.0
C3384 C 0.82275 0.49174 0.64925 0.0
C3385 C 0.79262 0.47677 0.65876 0.0
C3386 C 0.79414 0.46301 0.64425 0.0
H3387 H 0.80501 0.5008 0.67289 0.0
H3388 H 0.7809 0.47622 0.66877 0.0
S3389 S 0.83346 0.45897 0.60905 0.0
N3390 N 0.83924 0.47751 0.62231 0.0
N3391 N 0.81287 0.45143 0.61743 0.0
C3392 C 0.80976 0.46421 0.63169 0.0
C3393 C 0.82408 0.47844 0.63429 0.0
C3394 C 0.8239 0.58827 0.90065 0.0
C3395 C 0.80774 0.59051 0.88905 0.0
C3396 C 0.83312 0.57066 0.9023 0.0
C3397 C 0.82685 0.55459 0.89212 0.0
H3398 H 0.82939 0.60022 0.90877 0.0
H3399 H 0.84557 0.56973 0.91133 0.0
S3400 S 0.78551 0.55284 0.85947 0.0
N3401 N 0.78572 0.57509 0.8673 0.0
N3402 N 0.80372 0.54201 0.86973 0.0
C3403 C 0.81087 0.55658 0.88026 0.0
C3404 C 0.8011 0.57451 0.87895 0.0
C3405 C 0.73759 0.57285 0.1366 0.0
C3406 C 0.73666 0.58562 0.15205 0.0
C3407 C 0.72598 0.55654 0.13588 0.0
C3408 C 0.71323 0.55214 0.15074 0.0
H3409 H 0.74635 0.57616 0.12433 0.0
H3410 H 0.72637 0.54782 0.12314 0.0
S3411 S 0.70802 0.57939 0.19594 0.0
N3412 N 0.72367 0.59175 0.18348 0.0
N3413 N 0.70229 0.56088 0.18255 0.0
C3414 C 0.71342 0.56399 0.16702 0.0
C3415 C 0.72498 0.5808 0.16755 0.0
C3416 C 0.73646 0.49526 0.38258 0.0
C3417 C 0.72036 0.49758 0.39438 0.0
C3418 C 0.75056 0.48166 0.38668 0.0
C3419 C 0.74908 0.46973 0.4027 0.0
H3420 H 0.73775 0.50331 0.36949 0.0
H3421 H 0.762 0.47968 0.37652 0.0
S3422 S 0.71149 0.47215 0.43991 0.0
N3423 N 0.70515 0.48837 0.42413 0.0
N3424 N 0.73151 0.46288 0.4318 0.0
C3425 C 0.7339 0.47299 0.41546 0.0
C3426 C 0.71959 0.48688 0.41132 0.0
C3427 C 0.58048 0.40942 0.19474 0.0
C3428 C 0.56239 0.40124 0.19723 0.0
C3429 C 0.59466 0.40735 0.20842 0.0
C3430 C 0.5913 0.3974 0.22545 0.0
H3431 H 0.58411 0.41679 0.18167 0.0
H3432 H 0.60854 0.41338 0.20541 0.0
S3433 S 0.54594 0.37494 0.24006 0.0
N3434 N 0.54147 0.38378 0.21871 0.0
N3435 N 0.56826 0.38055 0.2449 0.0
C3436 C 0.57298 0.39025 0.22886 0.0
C3437 C 0.55846 0.39205 0.21465 0.0
C3438 C 0.13124 0.82659 0.05898 0.0
C3439 C 0.1388 0.84495 0.06189 0.0
C3440 C 0.13366 0.81208 0.07273 0.0
C3441 C 0.14401 0.81543 0.08962 0.0
H3442 H 0.12289 0.82362 0.04637 0.0
H3443 H 0.12678 0.79845 0.07045 0.0
S3444 S 0.16913 0.86024 0.10234 0.0
N3445 N 0.15852 0.86506 0.08199 0.0
N3446 N 0.16362 0.83793 0.10722 0.0
C3447 C 0.15258 0.83342 0.09197 0.0
C3448 C 0.14982 0.84814 0.07828 0.0
C3449 C 0.37436 0.23347 0.56534 0.0
C3450 C 0.39065 0.24362 0.571 0.0
C3451 C 0.37522 0.21956 0.55095 0.0
C3452 C 0.39248 0.21517 0.5416 0.0
H3453 H 0.36096 0.23544 0.57279 0.0
H3454 H 0.36247 0.2115 0.54793 0.0
S3455 S 0.43855 0.24008 0.54867 0.0
N3456 N 0.42403 0.25014 0.56422 0.0
N3457 N 0.42568 0.22398 0.53736 0.0
C3458 C 0.4085 0.22632 0.54603 0.0
C3459 C 0.40764 0.24054 0.56065 0.0
C3460 C 0.19703 0.5826 0.38317 0.0
C3461 C 0.19984 0.56659 0.39485 0.0
C3462 C 0.21103 0.59655 0.38105 0.0
C3463 C 0.22839 0.59553 0.39101 0.0
H3464 H 0.18367 0.58458 0.37573 0.0
H3465 H 0.20773 0.6087 0.37213 0.0
S3466 S 0.24316 0.55592 0.42281 0.0
N3467 N 0.22161 0.54976 0.41568 0.0
N3468 N 0.24792 0.57653 0.41243 0.0
C3469 C 0.23167 0.57926 0.40237 0.0
C3470 C 0.21741 0.56468 0.40412 0.0
C3471 C 0.21558 0.48696 0.16147 0.0
C3472 C 0.21235 0.49646 0.14409 0.0
C3473 C 0.22693 0.4706 0.16235 0.0
C3474 C 0.23597 0.46334 0.14605 0.0
H3475 H 0.20817 0.49126 0.17431 0.0
H3476 H 0.22782 0.463 0.17574 0.0
S3477 S 0.23477 0.48447 0.0977 0.0
N3478 N 0.22097 0.49855 0.11058 0.0
N3479 N 0.24276 0.46798 0.11244 0.0
C3480 C 0.23441 0.47364 0.12896 0.0
C3481 C 0.2225 0.49017 0.12795 0.0
C3482 C 0.31229 0.4609 0.91622 0.0
C3483 C 0.29694 0.46456 0.90383 0.0
C3484 C 0.32957 0.47075 0.91456 0.0
C3485 C 0.33212 0.48508 0.90083 0.0
H3486 H 0.3115 0.44946 0.92655 0.0
H3487 H 0.3413 0.46655 0.92362 0.0
S3488 S 0.29601 0.50165 0.86615 0.0
N3489 N 0.28514 0.48456 0.87813 0.0
N3490 N 0.31751 0.50343 0.87545 0.0
C3491 C 0.31655 0.48988 0.88923 0.0
C3492 C 0.299 0.47955 0.89063 0.0
C3493 C 0.30163 0.57057 0.63209 0.0
C3494 C 0.29416 0.57633 0.64986 0.0
C3495 C 0.31725 0.55822 0.63086 0.0
C3496 C 0.32574 0.55065 0.64727 0.0
H3497 H 0.29623 0.57657 0.61897 0.0
H3498 H 0.32328 0.55526 0.61696 0.0
S3499 S 0.31055 0.55923 0.69712 0.0
N3500 N 0.29567 0.57209 0.68423 0.0
N3501 N 0.32479 0.54848 0.68176 0.0
C3502 C 0.31759 0.555 0.66504 0.0
C3503 C 0.30185 0.56791 0.66637 0.0
C3504 C 0.08051 0.14697 0.49356 0.0
C3505 C 0.08614 0.13789 0.47652 0.0
C3506 C 0.09134 0.14507 0.5105 0.0
C3507 C 0.10849 0.13458 0.51077 0.0
H3508 H 0.06748 0.15521 0.4939 0.0
H3509 H 0.08639 0.15204 0.52335 0.0
S3510 S 0.12966 0.10875 0.46957 0.0
N3511 N 0.11002 0.11832 0.46099 0.0
N3512 N 0.13044 0.11517 0.49217 0.0
C3513 C 0.1143 0.12579 0.49363 0.0
C3514 C 0.10314 0.12736 0.4767 0.0
C3515 C 0.14174 0.84681 0.75612 0.0
C3516 C 0.15586 0.86094 0.75824 0.0
C3517 C 0.13935 0.83698 0.73863 0.0
C3518 C 0.15143 0.84051 0.72295 0.0
H3519 H 0.13213 0.84379 0.7678 0.0
H3520 H 0.1281 0.8265 0.7374 0.0
S3521 S 0.19081 0.8758 0.72152 0.0
N3522 N 0.18197 0.87783 0.74321 0.0
N3523 N 0.17808 0.85908 0.71099 0.0
C3524 C 0.1658 0.85431 0.72519 0.0
C3525 C 0.16786 0.86457 0.74265 0.0
C3526 C 0.4241 0.88609 0.99332 0.0
C3527 C 0.42636 0.90157 1.00599 0.0
C3528 C 0.43492 0.8845 0.97636 0.0
C3529 C 0.44829 0.89854 0.97106 0.0
H3530 H 0.41394 0.87503 0.99655 0.0
H3531 H 0.43249 0.87235 0.96713 0.0
S3532 S 0.45964 0.94219 0.99879 0.0
N3533 N 0.44328 0.9313 1.01169 0.0
N3534 N 0.46301 0.92857 0.97989 0.0
C3535 C 0.45056 0.91418 0.98345 0.0
C3536 C 0.43979 0.91564 1.00083 0.0
C3537 C 0.394 0.16915 0.24484 0.0
C3538 C 0.38256 0.17539 0.26009 0.0
C3539 C 0.39599 0.17989 0.22799 0.0
C3540 C 0.38619 0.19723 0.22533 0.0
H3541 H 0.4015 0.15579 0.24585 0.0
H3542 H 0.40495 0.17426 0.21675 0.0
S3543 S 0.35418 0.22021 0.26057 0.0
N3544 N 0.36137 0.20053 0.27128 0.0
N3545 N 0.36457 0.22022 0.23947 0.0
C3546 C 0.37462 0.20369 0.24036 0.0
C3547 C 0.37289 0.19292 0.2577 0.0
C3548 C 0.10206 0.91713 0.05933 0.0
C3549 C 0.08875 0.90238 0.06224 0.0
C3550 C 0.1126 0.91858 0.04237 0.0
C3551 C 0.11005 0.90562 0.02729 0.0
H3552 H 0.10471 0.92751 0.07045 0.0
H3553 H 0.12293 0.92998 0.04106 0.0
S3554 S 0.07713 0.86433 0.02735 0.0
N3555 N 0.07384 0.87431 0.04845 0.0
N3556 N 0.09322 0.87748 1.01628 0.0
C3557 C 0.09661 0.89096 0.02975 0.0
C3558 C 0.0861 0.88921 0.04729 0.0
C3559 C 0.36983 0.86345 0.29168 0.0
C3560 C 0.38148 0.85945 0.27586 0.0
C3561 C 0.3713 0.85305 0.30863 0.0
C3562 C 0.38481 0.8384 0.31082 0.0
H3563 H 0.35935 0.87477 0.29094 0.0
H3564 H 0.3619 0.85683 0.32029 0.0
S3565 S 0.41931 0.82267 0.27396 0.0
N3566 N 0.40711 0.83983 0.26342 0.0
N3567 N 0.41041 0.82063 0.29567 0.0
C3568 C 0.39673 0.83429 0.29519 0.0
C3569 C 0.3949 0.84468 0.27761 0.0
C3570 C 0.43479 0.15001 0.55621 0.0
C3571 C 0.44985 0.13742 0.56029 0.0
C3572 C 0.42389 0.14814 0.53946 0.0
C3573 C 0.42775 0.13392 0.5258 0.0
H3574 H 0.43104 0.16112 0.56627 0.0
H3575 H 0.41229 0.15792 0.53725 0.0
S3576 S 0.46597 0.09745 0.52954 0.0
N3577 N 0.46807 0.11012 0.54927 0.0
N3578 N 0.4481 0.10702 0.51767 0.0
C3579 C 0.44297 0.12137 0.52964 0.0
C3580 C 0.45386 0.12303 0.54687 0.0
C3581 C 0.1409 0.18186 0.78718 0.0
C3582 C 0.1584 0.1775 0.77839 0.0
C3583 C 0.13991 0.1928 0.80408 0.0
C3584 C 0.15642 0.20006 0.8129 0.0
H3585 H 0.12779 0.17717 0.78061 0.0
H3586 H 0.12607 0.19551 0.81031 0.0
S3587 S 0.20582 0.19366 0.79508 0.0
N3588 N 0.19262 0.18204 0.77946 0.0
N3589 N 0.19088 0.20247 0.811 0.0
C3590 C 0.17401 0.19612 0.80401 0.0
C3591 C 0.17497 0.18499 0.78681 0.0
C3592 C 0.50402 0.09596 0.13969 0.0
C3593 C 0.50611 0.11308 0.12946 0.0
C3594 C 0.48664 0.08588 0.13978 0.0
C3595 C 0.47079 0.09239 0.12938 0.0
H3596 H 0.51591 0.09032 0.14771 0.0
H3597 H 0.48568 0.07281 0.14793 0.0
S3598 S 0.46898 0.13681 0.1006 0.0
N3599 N 0.49093 0.1363 0.10897 0.0
N3600 N 0.45841 0.11748 0.1089 0.0
C3601 C 0.47279 0.10958 0.11913 0.0
C3602 C 0.49041 0.11989 0.11922 0.0
C3603 C 0.17273 0.24475 0.39834 0.0
C3604 C 0.17489 0.25777 0.38327 0.0
C3605 C 0.18285 0.22745 0.39896 0.0
C3606 C 0.19565 0.22224 0.38442 0.0
H3607 H 0.16314 0.24799 0.40986 0.0
H3608 H 0.18043 0.21798 0.4109 0.0
S3609 S 0.20671 0.25096 0.34146 0.0
N3610 N 0.19107 0.26403 0.35324 0.0
N3611 N 0.20992 0.23151 0.35431 0.0
C3612 C 0.19801 0.23502 0.36916 0.0
C3613 C 0.18771 0.25274 0.36859 0.0
C3614 C 0.05218 0.94777 0.6182 0.0
C3615 C 0.05846 0.95541 0.63571 0.0
C3616 C 0.03546 0.93669 0.61689 0.0
C3617 C 0.0244 0.93255 0.63308 0.0
H3618 H 0.06044 0.95005 0.60537 0.0
H3619 H 0.03138 0.93097 0.60315 0.0
S3620 S 0.03273 0.9513 0.6817 0.0
N3621 N 0.05098 0.95944 0.66927 0.0
N3622 N 0.01979 0.93853 0.66676 0.0
C3623 C 0.03009 0.94057 0.65052 0.0
C3624 C 0.04704 0.952 0.65186 0.0
C3625 C 0.34658 0.78321 0.87269 0.0
C3626 C 0.36245 0.77976 0.88461 0.0
C3627 C 0.33588 0.80027 0.87379 0.0
C3628 C 0.34038 0.81468 0.88701 0.0
H3629 H 0.34239 0.77266 0.86223 0.0
H3630 H 0.32401 0.80218 0.86415 0.0
S3631 S 0.38049 0.81355 0.92123 0.0
N3632 N 0.38177 0.79283 0.91007 0.0
N3633 N 0.36206 0.82463 0.91192 0.0
C3634 C 0.35609 0.81151 0.89899 0.0
C3635 C 0.36698 0.79418 0.89786 0.0
C3636 C 0.48033 0.93211 0.38822 0.0
C3637 C 0.4778 0.94889 0.39897 0.0
C3638 C 0.49698 0.92101 0.3898 0.0
C3639 C 0.51215 0.92638 0.40168 0.0
H3640 H 0.46909 0.92713 0.3789 0.0
H3641 H 0.49791 0.90799 0.38173 0.0
S3642 S 0.51269 0.96928 0.43292 0.0
N3643 N 0.49176 0.97024 0.42228 0.0
N3644 N 0.5233 0.94996 0.4246 0.0
C3645 C 0.50983 0.94328 0.41244 0.0
C3646 C 0.49266 0.95437 0.4112 0.0
C3647 C 0.35862 0.22823 0.63662 0.0
C3648 C 0.341 0.22576 0.6459 0.0
C3649 C 0.3694 0.24507 0.63883 0.0
C3650 C 0.36297 0.26044 0.65004 0.0
H3651 H 0.36445 0.21683 0.62796 0.0
H3652 H 0.38297 0.24594 0.63173 0.0
S3653 S 0.31735 0.26144 0.67698 0.0
N3654 N 0.31748 0.24025 0.66669 0.0
N3655 N 0.33731 0.27196 0.67037 0.0
C3656 C 0.34514 0.25825 0.65914 0.0
C3657 C 0.3343 0.24096 0.65715 0.0
C3658 C 0.04893 0.07943 0.89084 0.0
C3659 C 0.06587 0.08462 0.9003 0.0
C3660 C 0.03177 0.08977 0.89372 0.0
C3661 C 0.03122 0.10598 0.90565 0.0
H3662 H 0.04885 0.06718 0.88144 0.0
H3663 H 0.01903 0.0853 0.8863 0.0
S3664 S 0.07191 0.1258 0.93298 0.0
N3665 N 0.0809 0.10714 0.92179 0.0
N3666 N 0.04929 0.12662 0.92676 0.0
C3667 C 0.04818 0.11133 0.91487 0.0
C3668 C 0.06533 0.10066 0.9123 0.0
C3669 C 0.19582 0.80128 0.16411 0.0
C3670 C 0.20053 0.80861 0.146 0.0
C3671 C 0.18484 0.78459 0.16621 0.0
C3672 C 0.1779 0.77454 0.15033 0.0
H3673 H 0.20036 0.80868 0.17686 0.0
H3674 H 0.18145 0.7797 0.18045 0.0
S3675 S 0.18857 0.78583 0.09984 0.0
N3676 N 0.19878 0.80332 0.11186 0.0
N3677 N 0.17836 0.77191 0.11587 0.0
C3678 C 0.18305 0.78125 0.13215 0.0
C3679 C 0.19427 0.79828 0.12998 0.0
C3680 C 0.14715 0.47881 0.1058 0.0
C3681 C 0.1345 0.47415 0.09096 0.0
C3682 C 0.14567 0.49616 0.1159 0.0
C3683 C 0.13169 0.50985 0.11155 0.0
H3684 H 0.15814 0.46881 0.10995 0.0
H3685 H 0.15561 0.49884 0.12722 0.0
S3686 S 0.09512 0.50484 0.07366 0.0
N3687 N 0.10741 0.4848 0.07236 0.0
N3688 N 0.10491 0.51742 0.09096 0.0
C3689 C 0.11905 0.50546 0.09655 0.0
C3690 C 0.12039 0.48766 0.08639 0.0
C3691 C 0.64332 0.0294 0.94278 0.0
C3692 C 0.63041 0.02853 0.92746 0.0
C3693 C 0.64514 0.04613 0.95398 0.0
C3694 C 0.63362 0.06228 0.95065 0.0
H3695 H 0.6524 1.01729 0.9458 0.0
H3696 H 0.65556 0.0464 0.96532 0.0
S3697 S 0.59751 0.06699 0.91233 0.0
N3698 N 0.60612 0.04527 0.90954 0.0
N3699 N 0.60887 0.07607 0.93078 0.0
C3700 C 0.62044 0.0613 0.93558 0.0
C3701 C 0.619 0.0446 0.92396 0.0
C3702 C 0.24703 0.36807 0.18223 0.0
C3703 C 0.25846 0.38414 0.17855 0.0
C3704 C 0.22999 0.36954 0.19285 0.0
C3705 C 0.2237 0.38712 0.20045 0.0
H3706 H 0.25113 0.35427 0.17658 0.0
H3707 H 0.2215 0.35681 0.19485 0.0
S3708 S 0.25035 0.43272 0.19799 0.0
N3709 N 0.26344 0.41771 0.18538 0.0
N3710 N 0.23157 0.4205 0.20518 0.0
C3711 C 0.23542 0.40313 0.1975 0.0
C3712 C 0.25273 0.40163 0.18664 0.0
C3713 C 0.91405 0.98925 0.44569 0.0
C3714 C 0.89743 0.97805 0.44684 0.0
C3715 C 0.91468 1.0061 0.43468 0.0
C3716 C 0.89884 1.01237 0.42403 0.0
H3717 H 0.92669 0.98501 0.4534 0.0
H3718 H 0.92777 1.01425 0.4345 0.0
S3719 S 0.85202 0.98777 0.42195 0.0
N3720 N 0.86486 0.9743 0.43622 0.0
N3721 N 0.86601 1.00558 0.41557 0.0
C3722 C 0.88222 1.00111 0.42499 0.0
C3723 C 0.88153 0.9841 0.43636 0.0
C3724 C 0.80791 0.16856 0.18496 0.0
C3725 C 0.8103 0.15453 0.19911 0.0
C3726 C 0.79105 0.16999 0.17435 0.0
C3727 C 0.7755 0.1578 0.17764 0.0
H3728 H 0.81936 0.17838 0.18172 0.0
H3729 H 0.79018 0.18086 0.16343 0.0
S3730 S 0.7741 0.11857 0.21296 0.0
N3731 N 0.79554 0.12791 0.21563 0.0
N3732 N 0.76349 0.13117 0.19614 0.0
C3733 C 0.77742 0.1439 0.19195 0.0
C3734 C 0.7949 0.14209 0.20252 0.0
C3735 C 0.41961 0.55684 0.60004 0.0
C3736 C 0.40266 0.56283 0.59112 0.0
C3737 C 0.42047 0.53979 0.6106 0.0
C3738 C 0.4043 0.52824 0.61304 0.0
H3739 H 0.43239 0.5654 0.59886 0.0
H3740 H 0.43385 0.5357 0.61705 0.0
S3741 S 0.35691 0.53639 0.5913 0.0
N3742 N 0.3696 0.55505 0.58459 0.0
N3743 N 0.3712 0.52321 0.60455 0.0
C3744 C 0.38734 0.53387 0.60403 0.0
C3745 C 0.38652 0.5511 0.59306 0.0
C3746 C 0.22809 0.66901 0.35136 0.0
C3747 C 0.226 0.6538 0.33842 0.0
C3748 C 0.24459 0.67119 0.36237 0.0
C3749 C 0.2601 0.65861 0.36066 0.0
H3750 H 0.21661 0.67911 0.35345 0.0
H3751 H 0.24515 0.68288 0.37247 0.0
S3752 S 0.2623 0.6166 0.32862 0.0
N3753 N 0.24104 0.62583 0.32451 0.0
N3754 N 0.2725 0.63049 0.34468 0.0
C3755 C 0.25859 0.64365 0.34735 0.0
C3756 C 0.24142 0.64108 0.33643 0.0
C3757 C 0.30113 0.36605 0.84383 0.0
C3758 C 0.31173 0.38266 0.83987 0.0
C3759 C 0.28421 0.36678 0.85476 0.0
C3760 C 0.27748 0.38406 0.86261 0.0
H3761 H 0.3059 0.3524 0.83839 0.0
H3762 H 0.27649 0.35365 0.85728 0.0
S3763 S 0.30029 0.43152 0.85665 0.0
N3764 N 0.31426 0.41681 0.84476 0.0
N3765 N 0.283 0.41816 0.86531 0.0
C3766 C 0.28812 0.40067 0.85879 0.0
C3767 C 0.30505 0.39998 0.84744 0.0
C3768 C 0.92764 0.8897 0.53681 0.0
C3769 C 0.92449 0.90723 0.52759 0.0
C3770 C 0.93838 0.88852 0.55378 0.0
C3771 C 0.94674 0.90483 0.56203 0.0
H3772 H 0.92209 0.87671 0.5306 0.0
H3773 H 0.94013 0.87471 0.56046 0.0
S3774 S 0.94363 0.95413 0.54291 0.0
N3775 N 0.93118 0.9412 0.52772 0.0
N3776 N 0.95149 0.93906 0.55916 0.0
C3777 C 0.94409 0.92239 0.55263 0.0
C3778 C 0.93303 0.92357 0.5355 0.0
C3779 C 0.86853 0.19738 0.30346 0.0
C3780 C 0.88627 0.20174 0.31179 0.0
C3781 C 0.86718 0.1865 0.2866 0.0
C3782 C 0.88348 0.17926 0.2774 0.0
H3783 H 0.85549 0.20218 0.31016 0.0
H3784 H 0.8532 0.1835 0.28087 0.0
S3785 S 0.93338 0.18896 0.29159 0.0
N3786 N 0.92058 0.19935 0.3084 0.0
N3787 N 0.918 0.17906 0.27679 0.0
C3788 C 0.90131 0.18398 0.28522 0.0
C3789 C 0.90271 0.19516 0.30236 0.0
C3790 C 0.60629 0.11953 0.03669 0.0
C3791 C 0.61127 0.13614 0.02666 0.0
C3792 C 0.59482 0.12038 0.05315 0.0
C3793 C 0.58753 0.13783 0.06004 0.0
H3794 H 0.61157 0.10579 0.03197 0.0
H3795 H 0.59178 0.10722 0.06062 0.0
S3796 S 0.59431 0.18512 0.03732 0.0
N3797 N 0.60676 0.17034 0.02382 0.0
N3798 N 0.58508 0.17196 0.0545 0.0
C3799 C 0.59188 0.15446 0.04969 0.0
C3800 C 0.60376 0.15361 0.03308 0.0
C3801 C 0.66215 0.83605 0.79615 0.0
C3802 C 0.64854 0.83958 0.81048 0.0
C3803 C 0.66313 0.84738 0.77951 0.0
C3804 C 0.65088 0.86313 0.77658 0.0
H3805 H 0.67224 0.82449 0.79784 0.0
H3806 H 0.67385 0.84389 0.76899 0.0
S3807 S 0.61352 0.87905 0.81061 0.0
N3808 N 0.62284 0.8601 0.82083 0.0
N3809 N 0.62503 0.88158 0.79025 0.0
C3810 C 0.63735 0.86678 0.79098 0.0
C3811 C 0.63609 0.85499 0.80769 0.0
C3812 C 0.95436 0.13546 0.99169 0.0
C3813 C 0.94831 0.12692 0.97453 0.0
C3814 C 0.94297 0.13478 1.00835 0.0
C3815 C 0.92486 0.1261 1.00823 0.0
H3816 H 0.96807 0.14248 0.99232 0.0
H3817 H 0.94825 0.14128 0.0213 0.0
S3818 S 0.90233 0.10196 0.96685 0.0
N3819 N 0.92293 0.10964 0.95859 0.0
N3820 N 0.90172 0.10856 0.98941 0.0
C3821 C 0.91869 0.11771 0.99108 0.0
C3822 C 0.93034 0.11809 0.97438 0.0
C3823 C 0.66727 0.18637 0.75114 0.0
C3824 C 0.65144 0.1758 0.75758 0.0
C3825 C 0.66678 0.19674 0.73389 0.0
C3826 C 0.65034 0.19727 0.72239 0.0
H3827 H 0.6803 0.18647 0.75936 0.0
H3828 H 0.6795 0.20425 0.72944 0.0
S3829 S 0.6047 0.17299 0.73295 0.0
N3830 N 0.61858 0.16727 0.75102 0.0
N3831 N 0.61771 0.18664 0.71896 0.0
C3832 C 0.63433 0.18711 0.7288 0.0
C3833 C 0.63487 0.17644 0.74624 0.0
C3834 C 0.61281 0.88725 0.49599 0.0
C3835 C 0.60959 0.90267 0.50845 0.0
C3836 C 0.60264 0.8852 0.47876 0.0
C3837 C 0.58871 0.89854 0.47319 0.0
H3838 H 0.62327 0.87665 0.49965 0.0
H3839 H 0.60597 0.87323 0.46959 0.0
S3840 S 0.57443 0.94152 0.50068 0.0
N3841 N 0.59106 0.93149 0.51389 0.0
N3842 N 0.5721 0.9277 0.48177 0.0
C3843 C 0.58516 0.91394 0.48561 0.0
C3844 C 0.5955 0.91598 0.50313 0.0
C3845 C 0.89766 0.8565 0.23034 0.0
C3846 C 0.88377 0.84286 0.22544 0.0
C3847 C 0.89645 0.86712 0.24739 0.0
C3848 C 0.88152 0.86448 0.26049 0.0
H3849 H 0.90947 0.85923 0.2208 0.0
H3850 H 0.90739 0.87744 0.25037 0.0
S3851 S 0.84136 0.83045 0.2544 0.0
N3852 N 0.85438 0.82744 0.23504 0.0
N3853 N 0.85233 0.84697 0.26708 0.0
C3854 C 0.86751 0.85082 0.25572 0.0
C3855 C 0.8686 0.84017 0.23825 0.0
C3856 C 0.53503 0.93386 0.91621 0.0
C3857 C 0.5287 0.92429 0.89967 0.0
C3858 C 0.55222 0.94436 0.91646 0.0
C3859 C 0.5637 0.9461 0.90007 0.0
H3860 H 0.52667 0.93321 0.92915 0.0
H3861 H 0.55648 0.95127 0.92958 0.0
S3862 S 0.55393 0.92399 0.85312 0.0
N3863 N 0.53573 0.91743 0.86648 0.0
N3864 N 0.56761 0.93712 0.86695 0.0
C3865 C 0.55757 0.93668 0.88349 0.0
C3866 C 0.54024 0.92581 0.88329 0.0
C3867 C 0.82969 0.7956 0.64466 0.0
C3868 C 0.83591 0.81334 0.65182 0.0
C3869 C 0.84075 0.77884 0.64711 0.0
C3870 C 0.85858 0.77944 0.65633 0.0
H3871 H 0.81609 0.7946 0.6375 0.0
H3872 H 0.83545 0.76544 0.64157 0.0
S3873 S 0.88117 0.82267 0.67723 0.0
N3874 N 0.86091 0.83046 0.6683 0.0
N3875 N 0.88163 0.79958 0.67266 0.0
C3876 C 0.86486 0.79726 0.66328 0.0
C3877 C 0.85356 0.81403 0.66108 0.0
C3878 C 0.97703 0.10712 0.38808 0.0
C3879 C 0.97293 0.09121 0.39963 0.0
C3880 C 0.99386 0.11788 0.39054 0.0
C3881 C 1.00765 0.11294 0.40426 0.0
H3882 H 0.96689 0.11169 0.37741 0.0
H3883 H 0.99599 0.13024 0.38166 0.0
S3884 S 1.00392 0.07215 0.43786 0.0
N3885 N 0.98408 0.07106 0.42535 0.0
N3886 N 1.01584 0.09062 0.42946 0.0
C3887 C 1.00379 0.09682 0.41567 0.0
C3888 C 0.98647 0.08615 0.41347 0.0
C3889 C 0.68999 0.25914 0.14576 0.0
C3890 C 0.67467 0.26065 0.15868 0.0
C3891 C 0.70078 0.24209 0.14422 0.0
C3892 C 0.69713 0.22629 0.15612 0.0
H3893 H 0.69331 0.27098 0.13644 0.0
H3894 H 0.71213 0.24133 0.1338 0.0
S3895 S 0.65876 0.22316 0.19239 0.0
N3896 N 0.65638 0.24472 0.1833 0.0
N3897 N 0.67703 0.21347 0.18118 0.0
C3898 C 0.68207 0.22788 0.16926 0.0
C3899 C 0.67079 0.24483 0.17036 0.0
C3900 C 0.53835 0.10577 0.61647 0.0
C3901 C 0.52718 0.10933 0.63271 0.0
C3902 C 0.55505 0.09471 0.61752 0.0
C3903 C 0.56115 0.08651 0.63481 0.0
H3904 H 0.53433 0.11188 0.6029 0.0
H3905 H 0.56343 0.09286 0.6047 0.0
S3906 S 0.53508 0.08892 0.68073 0.0
N3907 N 0.5222 0.10213 0.66612 0.0
N3908 N 0.55347 0.08131 0.66815 0.0
C3909 C 0.54963 0.08934 0.65099 0.0
C3910 C 0.53269 0.10073 0.64992 0.0
C3911 C 0.69604 0.80062 0.37109 0.0
C3912 C 0.69619 0.81201 0.38765 0.0
C3913 C 0.68515 0.78371 0.36999 0.0
C3914 C 0.67362 0.77752 0.38527 0.0
H3915 H 0.70447 0.80476 0.35886 0.0
H3916 H 0.68577 0.77542 0.35698 0.0
S3917 S 0.66875 0.80258 0.43172 0.0
N3918 N 0.68366 0.81602 0.41956 0.0
N3919 N 0.66328 0.78457 0.41755 0.0
C3920 C 0.67359 0.78895 0.40183 0.0
C3921 C 0.68482 0.80605 0.403 0.0
C3922 C 0.97841 0.93202 0.14864 0.0
C3923 C 0.97588 0.9494 0.13893 0.0
C3924 C 0.9951 0.92108 0.14645 0.0
C3925 C 1.01031 0.92714 0.1349 0.0
H3926 H 0.96719 0.9265 0.15768 0.0
H3927 H 0.99602 0.90771 0.15392 0.0
S3928 S 1.01101 0.97194 0.10657 0.0
N3929 N 0.99003 0.97222 0.11718 0.0
N3930 N 0.02157 0.95212 0.11362 0.0
C3931 C 1.00803 0.94469 0.12526 0.0
C3932 C 0.99085 0.95568 0.12719 0.0
C3933 C 0.84566 0.25818 0.89083 0.0
C3934 C 0.86326 0.25842 0.88113 0.0
C3935 C 0.83415 0.24156 0.89122 0.0
C3936 C 0.83953 0.22484 0.88136 0.0
H3937 H 0.84089 0.27079 0.89837 0.0
H3938 H 0.82089 0.24187 0.89908 0.0
S3939 S 0.88413 0.21816 0.85368 0.0
N3940 N 0.8853 0.24034 0.86144 0.0
N3941 N 0.86383 0.20968 0.8619 0.0
C3942 C 0.85699 0.22507 0.87153 0.0
C3943 C 0.86878 0.2417 0.87146 0.0
C3944 C 0.88594 0.56058 0.93721 0.0
C3945 C 0.90036 0.56597 0.95 0.0
C3946 C 0.88717 0.54355 0.92661 0.0
C3947 C 0.90261 0.53091 0.92848 0.0
H3948 H 0.87377 0.5698 0.93503 0.0
H3949 H 0.87591 0.54029 0.9168 0.0
S3950 S 0.94426 0.53839 0.96021 0.0
N3951 N 0.93081 0.55737 0.96386 0.0
N3952 N 0.93284 0.52525 0.94438 0.0
C3953 C 0.91713 0.53612 0.94135 0.0
C3954 C 0.91605 0.55363 0.95196 0.0
C3955 C 0.39273 0.99054 0.07958 0.0
C3956 C 0.40202 0.97367 0.08533 0.0
C3957 C 0.39415 1.00757 0.09043 0.0
C3958 C 0.40432 1.00809 0.10774 0.0
H3959 H 0.38472 0.99071 0.06641 0.0
H3960 H 0.38714 0.02034 0.08533 0.0
S3961 S 0.43046 0.96752 0.12939 0.0
N3962 N 0.42138 0.9586 0.10963 0.0
N3963 N 0.42365 0.99004 0.13 0.0
C3964 C 0.41326 0.99116 0.11373 0.0
C3965 C 0.41219 0.97412 0.10256 0.0
C3966 C 0.7937 0.66635 0.8647 0.0
C3967 C 0.77733 0.65589 0.85979 0.0
C3968 C 0.81038 0.66541 0.85372 0.0
C3969 C 0.81175 0.65351 0.8376 0.0
H3970 H 0.79351 0.67572 0.87699 0.0
H3971 H 0.82246 0.67395 0.8581 0.0
S3972 S 0.77336 0.62225 0.8192 0.0
N3973 N 0.76361 0.63296 0.8378 0.0
N3974 N 0.7954 0.63041 0.81769 0.0
C3975 C 0.79569 0.64252 0.83278 0.0
C3976 C 0.77838 0.64394 0.84369 0.0
C3977 C 0.11632 0.05748 0.59165 0.0
C3978 C 0.13296 0.06866 0.59049 0.0
C3979 C 0.11592 0.04013 0.6019 0.0
C3980 C 0.13203 0.03334 0.6118 0.0
H3981 H 0.10344 0.06219 0.58463 0.0
H3982 H 0.10279 0.03205 0.60219 0.0
S3983 S 0.17918 0.05737 0.61315 0.0
N3984 N 0.16597 0.07157 0.59996 0.0
N3985 N 0.16521 0.03945 0.61929 0.0
C3986 C 0.14871 0.04449 0.61069 0.0
C3987 C 0.14919 0.06196 0.60004 0.0
C3988 C 0.25475 0.8721 0.84665 0.0
C3989 C 0.25886 0.8858 0.86089 0.0
C3990 C 0.23761 0.87253 0.83609 0.0
C3991 C 0.22388 0.88686 0.83907 0.0
H3992 H 0.26482 0.86078 0.84368 0.0
H3993 H 0.23512 0.86154 0.82554 0.0
S3994 S 0.22702 0.92591 0.87454 0.0
N3995 N 0.24718 0.91408 0.87705 0.0
N3996 N 0.21534 0.91484 0.8575 0.0
C3997 C 0.22777 0.90063 0.85311 0.0
C3998 C 0.2451 0.90012 0.86391 0.0
C3999 C 0.65057 0.48164 0.44071 0.0
C4000 C 0.63394 0.47279 0.4477 0.0
C4001 C 0.64982 0.49905 0.43063 0.0
C4002 C 0.63244 0.50852 0.42732 0.0
H4003 H 0.6643 0.47496 0.44286 0.0
H4004 H 0.66299 0.50533 0.42572 0.0
S4005 S 0.58472 0.49117 0.44191 0.0
N4006 N 0.59948 0.4747 0.44991 0.0
N4007 N 0.59816 0.50742 0.4315 0.0
C4008 C 0.61574 0.49984 0.43423 0.0
C4009 C 0.61647 0.482 0.44423 0.0
C4010 C 0.79156 0.39584 0.67465 0.0
C4011 C 0.77936 0.37993 0.67564 0.0
C4012 C 0.808 0.39729 0.68599 0.0
C4013 C 0.81328 0.38267 0.69864 0.0
H4014 H 0.78835 0.40741 0.66507 0.0
H4015 H 0.81683 0.40987 0.68455 0.0
S4016 S 0.78674 0.33762 0.7066 0.0
N4017 N 0.77396 0.34908 0.69053 0.0
N4018 N 0.80511 0.35154 0.71134 0.0
C4019 C 0.80143 0.36651 0.69966 0.0
C4020 C 0.78446 0.3652 0.68833 0.0
C4021 C 0.75964 0.64556 0.19139 0.0
C4022 C 0.75937 0.65519 0.17374 0.0
C4023 C 0.74297 0.64381 0.20268 0.0
C4024 C 0.72564 0.65213 0.19694 0.0
H4025 H 0.77278 0.63933 0.19648 0.0
H4026 H 0.74377 0.63637 0.21616 0.0
S4027 S 0.71736 0.67909 0.15231 0.0
N4028 N 0.74008 0.6732 0.15138 0.0
N4029 N 0.70927 0.67011 0.17246 0.0
C4030 C 0.72526 0.66171 0.17938 0.0
C4031 C 0.74197 0.66322 0.16784 0.0
C4032 C 0.61265 0.64989 0.99374 0.0
C4033 C 0.61148 0.63416 1.00618 0.0
C4034 C 0.60161 0.65103 0.977 0.0
C4035 C 0.5891 0.63626 0.97169 0.0
H4036 H 0.62211 0.66153 0.99701 0.0
H4037 H 0.60317 0.66345 0.96797 0.0
S4038 S 0.58086 0.59156 0.99875 0.0
N4039 N 0.59663 0.6033 1.01165 0.0
N4040 N 0.57641 0.60519 0.98012 0.0
C4041 C 0.58795 0.6203 0.98379 0.0
C4042 C 0.59897 0.61929 1.00099 0.0
C4043 C 0.63894 0.359 0.25259 0.0
C4044 C 0.65665 0.36173 0.26149 0.0
C4045 C 0.6372 0.34791 0.23587 0.0
C4046 C 0.65312 0.33889 0.22752 0.0
H4047 H 0.62631 0.36535 0.25871 0.0
H4048 H 0.62332 0.34666 0.2293 0.0
S4049 S 0.70253 0.34046 0.24613 0.0
N4050 N 0.69024 0.35369 0.26125 0.0
N4051 N 0.68707 0.33285 0.23014 0.0
C4052 C 0.67079 0.34099 0.23672 0.0
C4053 C 0.67252 0.35231 0.25366 0.0
C4054 C 0.95669 0.39608 0.49197 0.0
C4055 C 0.94998 0.40385 0.4747 0.0
C4056 C 0.94627 0.39817 0.50919 0.0
C4057 C 0.92849 0.40757 0.50962 0.0
H4058 H 0.97022 0.38869 0.49226 0.0
H4059 H 0.95204 0.39218 0.52216 0.0
S4060 S 0.90439 0.42976 0.468 0.0
N4061 N 0.92431 0.42097 0.45918 0.0
N4062 N 0.90481 0.42457 0.4909 0.0
C4063 C 0.92163 0.41507 0.49229 0.0
C4064 C 0.93232 0.41328 0.47504 0.0
C4065 C 0.8756 0.704 0.73951 0.0
C4066 C 0.88621 0.6978 0.72368 0.0
C4067 C 0.8747 0.69308 0.7564 0.0
C4068 C 0.88405 0.67526 0.75816 0.0
H4069 H 0.86799 0.71742 0.73888 0.0
H4070 H 0.86636 0.69863 0.76814 0.0
S4071 S 0.91198 0.65191 0.71965 0.0
N4072 N 0.9053 0.67235 0.71029 0.0
N4073 N 0.90349 0.65193 0.7416 0.0
C4074 C 0.89444 0.66893 0.74217 0.0
C4075 C 0.89553 0.68014 0.7251 0.0
C4076 C 0.59626 0.41653 0.55461 0.0
C4077 C 0.58823 0.39904 0.56045 0.0
C4078 C 0.60736 0.418 0.53797 0.0
C4079 C 0.6108 0.40212 0.5262 0.0
H4080 H 0.59435 0.42921 0.56323 0.0
H4081 H 0.61356 0.43169 0.53441 0.0
S4082 S 0.59292 0.35309 0.53451 0.0
N4083 N 0.58456 0.36541 0.55278 0.0
N4084 N 0.60498 0.36838 0.52126 0.0
C4085 C 0.60258 0.38462 0.53152 0.0
C4086 C 0.59143 0.38303 0.54868 0.0
C4087 C 0.89571 0.33705 0.80067 0.0
C4088 C 0.88228 0.33924 0.81548 0.0
C4089 C 0.8944 0.3478 0.78367 0.0
C4090 C 0.87997 0.36152 0.7812 0.0
H4091 H 0.90731 0.32701 0.80224 0.0
H4092 H 0.90502 0.34577 0.77267 0.0
S4093 S 0.84162 0.3731 0.81563 0.0
N4094 N 0.85401 0.35616 0.8262 0.0
N4095 N 0.85214 0.3767 0.79492 0.0
C4096 C 0.86659 0.36385 0.79589 0.0
C4097 C 0.86759 0.35264 0.81285 0.0
C4098 C 0.92457 0.65296 0.04081 0.0
C4099 C 0.92684 0.63796 0.02766 0.0
C4100 C 0.93512 0.65382 0.05781 0.0
C4101 C 0.94843 0.6396 0.06254 0.0
H4102 H 0.91451 0.66418 0.03795 0.0
H4103 H 0.93259 0.66562 0.06747 0.0
S4104 S 0.96008 0.59707 0.03321 0.0
N4105 N 0.94375 0.60844 0.02071 0.0
N4106 N 0.96338 0.60996 0.05262 0.0
C4107 C 0.95094 0.62447 0.04957 0.0
C4108 C 0.94023 0.62366 0.03219 0.0
C4109 C 0.64607 0.67169 0.29192 0.0
C4110 C 0.65525 0.67898 0.27568 0.0
C4111 C 0.64283 0.68284 0.30829 0.0
C4112 C 0.64954 0.70169 0.30963 0.0
H4113 H 0.64181 0.65698 0.29217 0.0
H4114 H 0.63581 0.6763 0.32037 0.0
S4115 S 0.67528 0.7279 0.2717 0.0
N4116 N 0.67099 0.70678 0.26215 0.0
N4117 N 0.66614 0.72727 0.29339 0.0
C4118 C 0.65899 0.70928 0.29368 0.0
C4119 C 0.66157 0.6981 0.27663 0.0
C4120 C 0.99118 0.58753 0.64672 0.0
C4121 C 0.97435 0.59325 0.63737 0.0
C4122 C 1.00831 0.59809 0.64487 0.0
C4123 C 1.00903 0.61506 0.6341 0.0
H4124 H 0.99123 0.57459 0.65512 0.0
H4125 H 0.02099 0.59304 0.652 0.0
S4126 S 0.96884 0.63643 0.60726 0.0
N4127 N 0.95965 0.61722 0.6172 0.0
N4128 N 0.99134 0.63684 0.61393 0.0
C4129 C 0.99221 0.62098 0.625 0.0
C4130 C 0.97502 0.61017 0.62661 0.0
C4131 C 0.68129 0.72689 0.89368 0.0
C4132 C 0.69837 0.72419 0.88352 0.0
C4133 C 0.67057 0.74381 0.8919 0.0
C4134 C 0.67667 0.75913 0.88046 0.0
H4135 H 0.67577 0.71557 0.9026 0.0
H4136 H 0.65731 0.74482 0.89956 0.0
S4137 S 0.72064 0.75924 0.85089 0.0
N4138 N 0.72077 0.7381 0.86124 0.0
N4139 N 0.70128 0.77015 0.85864 0.0
C4140 C 0.6939 0.75662 0.87035 0.0
C4141 C 0.70456 0.73915 0.87174 0.0
C4142 C 0.54997 0.44496 0.15183 0.0
C4143 C 0.55915 0.45318 0.13595 0.0
C4144 C 0.53304 0.43418 0.14984 0.0
C4145 C 0.52455 0.4311 0.13192 0.0
H4146 H 0.55613 0.4465 0.16589 0.0
H4147 H 0.52651 0.42819 0.16244 0.0
S4148 S 0.5419 0.45054 0.08599 0.0
N4149 N 0.55763 0.45815 0.10172 0.0
N4150 N 0.52605 0.43814 0.09817 0.0
C4151 C 0.53313 0.43984 0.11608 0.0
C4152 C 0.55037 0.45071 0.11804 0.0
C4153 C 0.84946 0.30792 0.40349 0.0
C4154 C 0.83758 0.31467 0.38879 0.0
C4155 C 0.85993 0.29083 0.40152 0.0
C4156 C 0.8591 0.27975 0.38481 0.0
H4157 H 0.85088 0.31603 0.41655 0.0
H4158 H 0.86855 0.28607 0.4133 0.0
S4159 S 0.82977 0.29071 0.34225 0.0
N4160 N 0.82534 0.3085 0.35703 0.0
N4161 N 0.84493 0.27664 0.35341 0.0
C4162 C 0.84701 0.28615 0.37016 0.0
C4163 C 0.83634 0.30352 0.37212 0.0
C4164 C 0.97891 0.43715 0.89146 0.0
C4165 C 0.97525 0.4523 0.90403 0.0
C4166 C 0.99503 0.42536 0.89349 0.0
C4167 C 1.00878 0.42865 0.90762 0.0
H4168 H 0.96889 0.43411 0.88026 0.0
H4169 H 0.99672 0.41348 0.88397 0.0
S4170 S 1.00599 0.46678 0.94441 0.0
N4171 N 0.98648 0.46976 0.93166 0.0
N4172 N 1.01736 0.44853 0.93475 0.0
C4173 C 1.00536 0.44396 0.9203 0.0
C4174 C 0.98853 0.45556 0.91864 0.0
C4175 C 0.84363 0.7336 0.171 0.0
C4176 C 0.83434 0.72851 0.15397 0.0
C4177 C 0.85455 0.75036 0.17239 0.0
C4178 C 0.8563 0.76303 0.15699 0.0
H4179 H 0.84319 0.72414 0.18318 0.0
H4180 H 0.8621 0.75318 0.18554 0.0
S4181 S 0.83365 0.75738 0.1097 0.0
N4182 N 0.82702 0.73812 0.12154 0.0
N4183 N 0.84695 0.76998 0.12449 0.0
C4184 C 0.84639 0.75868 0.14016 0.0
C4185 C 0.83556 0.74134 0.13857 0.0
C4186 C 0.5532 0.59397 0.38644 0.0
C4187 C 0.56349 0.59034 0.40324 0.0
C4188 C 0.53622 0.6047 0.38675 0.0
C4189 C 0.52888 0.61237 0.40379 0.0
H4190 H 0.55826 0.58847 0.37293 0.0
H4191 H 0.52842 0.60648 0.37364 0.0
S4192 S 0.55018 0.60697 0.45175 0.0
N4193 N 0.56485 0.59528 0.43752 0.0
N4194 N 0.53313 0.61534 0.43793 0.0
C4195 C 0.53891 0.6087 0.42069 0.0
C4196 C 0.55618 0.5978 0.42043 0.0
C4197 C 0.69486 0.30218 0.66617 0.0
C4198 C 0.7018 0.30826 0.64832 0.0
C4199 C 0.68363 0.28568 0.66803 0.0
C4200 C 0.67898 0.27434 0.6522 0.0
H4201 H 0.6977 0.31053 0.67884 0.0
H4202 H 0.67823 0.28194 0.682 0.0
S4203 S 0.6941 0.28315 0.60239 0.0
N4204 N 0.70343 0.30112 0.61447 0.0
N4205 N 0.68272 0.26984 0.61814 0.0
C4206 C 0.68621 0.27982 0.63434 0.0
C4207 C 0.69751 0.29682 0.63237 0.0
C4208 C 0.61918 1.00244 0.60147 0.0
C4209 C 0.6352 1.00886 0.61176 0.0
C4210 C 0.61969 0.98553 0.59056 0.0
C4211 C 0.63635 0.97443 0.58912 0.0
H4212 H 0.60606 1.01053 0.60186 0.0
H4213 H 0.60692 0.98117 0.58312 0.0
S4214 S 0.6822 0.98453 0.61314 0.0
N4215 N 0.66821 1.00231 0.61969 0.0
N4216 N 0.66917 0.9709 0.59914 0.0
C4217 C 0.65244 0.98062 0.59926 0.0
C4218 C 0.65186 0.99768 0.61057 0.0
C4219 C 0.15008 0.53564 0.43066 0.0
C4220 C 0.13326 0.52493 0.42887 0.0
C4221 C 0.15077 0.5524 0.44184 0.0
C4222 C 0.13463 0.55906 0.4518 0.0
H4223 H 0.16283 0.53093 0.42346 0.0
H4224 H 0.16394 0.5604 0.44231 0.0
S4225 S 0.08737 0.53541 0.45294 0.0
N4226 N 0.10033 0.52167 0.43887 0.0
N4227 N 0.10155 0.55289 0.4598 0.0
C4228 C 0.11791 0.54804 0.45067 0.0
C4229 C 0.11726 0.53103 0.43931 0.0
C4230 C 0.74798 0.86966 0.68019 0.0
C4231 C 0.75906 0.88586 0.6761 0.0
C4232 C 0.73116 0.87093 0.69112 0.0
C4233 C 0.7247 0.88846 0.69863 0.0
H4234 H 0.75223 0.85585 0.67468 0.0
H4235 H 0.72298 0.85805 0.69342 0.0
S4236 S 0.75032 0.93459 0.69477 0.0
N4237 N 0.76351 0.91963 0.6822 0.0
N4238 N 0.73196 0.92211 0.7026 0.0
C4239 C 0.73605 0.90468 0.6952 0.0
C4240 C 0.75318 0.90336 0.684 0.0
C4241 C 0.3835 0.50556 0.93125 0.0
C4242 C 0.40109 0.5149 0.92927 0.0
C4243 C 0.38164 0.48875 0.94221 0.0
C4244 C 0.39733 0.48077 0.95186 0.0
H4245 H 0.37112 0.51129 0.92421 0.0
H4246 H 0.36794 0.48173 0.94275 0.0
S4247 S 0.44613 0.50117 0.95297 0.0
N4248 N 0.43413 0.51582 0.93904 0.0
N4249 N 0.43079 0.48471 0.95984 0.0
C4250 C 0.41476 0.49072 0.95086 0.0
C4251 C 0.4166 0.50767 0.93959 0.0
C4252 C 0.30778 0.64137 0.68354 0.0
C4253 C 0.31183 0.65337 0.6991 0.0
C4254 C 0.29101 0.64352 0.67281 0.0
C4255 C 0.2773 0.65744 0.67727 0.0
H4256 H 0.31787 0.63047 0.67929 0.0
H4257 H 0.28882 0.63418 0.66085 0.0
S4258 S 0.281 0.69248 0.71691 0.0
N4259 N 0.3008 0.67987 0.71844 0.0
N4260 N 0.26911 0.68353 0.6987 0.0
C4261 C 0.28114 0.66948 0.69295 0.0
C4262 C 0.2984 0.66751 0.70373 0.0
C4263 C 0.91832 0.05344 0.09347 0.0
C4264 C 0.90047 0.06079 0.08802 0.0
C4265 C 0.91989 0.03677 0.10453 0.0
C4266 C 0.90368 0.02685 0.11085 0.0
H4267 H 0.93126 0.0608 0.08944 0.0
H4268 H 0.93394 0.0318 0.10849 0.0
S4269 S 0.85376 0.0383 0.0982 0.0
N4270 N 0.86627 0.05566 0.08839 0.0
N4271 N 0.86929 0.02437 0.10909 0.0
C4272 C 0.88578 0.0336 0.10499 0.0
C4273 C 0.88416 0.05055 0.09362 0.0
C4274 C 0.73388 0.16912 0.83909 0.0
C4275 C 0.72756 0.1512 0.83253 0.0
C4276 C 0.75028 0.17095 0.85041 0.0
C4277 C 0.76126 0.15499 0.85552 0.0
H4278 H 0.72571 0.18186 0.83603 0.0
H4279 H 0.75413 0.18497 0.85567 0.0
S4280 S 0.75184 0.10498 0.84124 0.0
N4281 N 0.73423 0.11717 0.83151 0.0
N4282 N 0.76523 0.12076 0.85249 0.0
C4283 C 0.7556 0.13707 0.84856 0.0
C4284 C 0.73874 0.13514 0.83713 0.0
C4285 C 0.8049 0.87015 0.34765 0.0
C4286 C 0.81076 0.88757 0.33949 0.0
C4287 C 0.78813 0.86878 0.35855 0.0
C4288 C 0.77663 0.88482 0.36203 0.0
H4289 H 0.81346 0.85744 0.34577 0.0
H4290 H 0.78422 0.85507 0.36448 0.0
S4291 S 0.78388 0.93307 0.34173 0.0
N4292 N 0.80259 0.92084 0.33433 0.0
N4293 N 0.77114 0.9182 0.35481 0.0
C4294 C 0.78197 0.9022 0.35357 0.0
C4295 C 0.799 0.90359 0.34234 0.0
C4296 C 0.42546 0.39022 0.03621 0.0
C4297 C 0.42362 0.40766 0.02648 0.0
C4298 C 0.43655 0.38867 0.05292 0.0
C4299 C 0.44621 0.40456 0.06057 0.0
H4300 H 0.41841 0.37765 0.03074 0.0
H4301 H 0.43721 0.37502 0.0601 0.0
S4302 S 0.44692 0.45325 0.03979 0.0
N4303 N 0.43318 0.44091 0.02525 0.0
N4304 N 0.45377 0.43813 0.05644 0.0
C4305 C 0.44487 0.42194 0.05062 0.0
C4306 C 0.43372 0.42344 0.03361 0.0
C4307 C 0.39683 0.67454 0.7905 0.0
C4308 C 0.38311 0.67883 0.77657 0.0
C4309 C 0.39852 0.68534 0.80737 0.0
C4310 C 0.38626 0.70077 0.8113 0.0
H4311 H 0.40635 0.66268 0.78843 0.0
H4312 H 0.40925 0.68123 0.81764 0.0
S4313 S 0.34764 0.71809 0.77979 0.0
N4314 N 0.35702 0.69999 0.768 0.0
N4315 N 0.35983 0.7198 0.7998 0.0
C4316 C 0.37241 0.70525 0.79757 0.0
C4317 C 0.37091 0.69444 0.78023 0.0
C4318 C 0.08971 0.64978 0.5512 0.0
C4319 C 0.08447 0.63365 0.56201 0.0
C4320 C 0.09987 0.64795 0.53389 0.0
C4321 C 0.10533 0.62996 0.52685 0.0
H4322 H 0.08637 0.66396 0.55637 0.0
H4323 H 0.10386 0.66071 0.5262 0.0
S4324 S 0.0948 0.58327 0.54914 0.0
N4325 N 0.08509 0.599 0.56373 0.0
N4326 N 0.10433 0.59577 0.53165 0.0
C4327 C 0.09971 0.61378 0.53717 0.0
C4328 C 0.08927 0.61557 0.55462 0.0
C4329 C 0.16558 0.34118 0.3029 0.0
C4330 C 0.14906 0.34052 0.31432 0.0
C4331 C 0.1664 0.3523 0.28611 0.0
C4332 C 0.1509 0.36364 0.28016 0.0
H4333 H 0.17798 0.33294 0.3069 0.0
H4334 H 0.17937 0.35204 0.27776 0.0
S4335 S 0.10446 0.36726 0.30538 0.0
N4336 N 0.11692 0.35236 0.31854 0.0
N4337 N 0.11848 0.3733 0.28748 0.0
C4338 C 0.1344 0.3632 0.29165 0.0
C4339 C 0.13348 0.35167 0.30854 0.0
C4340 C 0.4209 0.64617 0.49499 0.0
C4341 C 0.42651 0.6335 0.50951 0.0
C4342 C 0.43182 0.64866 0.47824 0.0
C4343 C 0.4485 0.63799 0.47493 0.0
H4344 H 0.40788 0.65415 0.49649 0.0
H4345 H 0.42681 0.65856 0.46752 0.0
S4346 S 0.46918 0.60213 0.50769 0.0
N4347 N 0.45011 0.60995 0.51903 0.0
N4348 N 0.46984 0.61387 0.48733 0.0
C4349 C 0.45406 0.62495 0.48905 0.0
C4350 C 0.44329 0.62285 0.50633 0.0
C4351 C 0.13832 0.68391 0.229 0.0
C4352 C 0.15252 0.69703 0.22365 0.0
C4353 C 0.13958 0.67342 0.24609 0.0
C4354 C 0.15496 0.67562 0.25875 0.0
H4355 H 0.12622 0.68146 0.21978 0.0
H4356 H 0.12832 0.66353 0.24941 0.0
S4357 S 0.19591 0.70842 0.25149 0.0
N4358 N 0.18255 0.71168 0.23246 0.0
N4359 N 0.18478 0.69231 0.26452 0.0
C4360 C 0.16924 0.68882 0.25357 0.0
C4361 C 0.16804 0.69939 0.23608 0.0
C4362 C 0.09395 0.39548 1.01106 0.0
C4363 C 0.112 0.40435 1.0113 0.0
C4364 C 0.08335 0.39365 0.99395 0.0
C4365 C 0.09012 0.40122 0.9766 0.0
H4366 H 0.08807 0.38978 0.02413 0.0
H4367 H 0.06958 0.38674 0.99441 0.0
S4368 S 0.13641 0.4257 0.96943 0.0
N4369 N 0.13605 0.42053 0.99235 0.0
N4370 N 0.11617 0.41753 0.96079 0.0
C4371 C 0.10808 0.41007 0.97673 0.0
C4372 C 0.11897 0.41155 0.99389 0.0
C4373 C 0.39258 0.34127 0.75836 0.0
C4374 C 0.38167 0.35818 0.75826 0.0
C4375 C 0.39546 0.33052 0.74146 0.0
C4376 C 0.38701 0.33604 0.72412 0.0
H4377 H 0.39912 0.33648 0.77146 0.0
H4378 H 0.40399 0.31768 0.74206 0.0
S4379 S 0.35713 0.37893 0.7163 0.0
N4380 N 0.36254 0.37976 0.73915 0.0
N4381 N 0.36753 0.35952 0.70796 0.0
C4382 C 0.37605 0.35279 0.72397 0.0
C4383 C 0.37347 0.36385 0.74089 0.0
C4384 C 0.0615 0.43062 0.38694 0.0
C4385 C 0.06433 0.44822 0.39621 0.0
C4386 C 0.04454 0.42013 0.38931 0.0
C4387 C 0.02949 0.42681 0.40079 0.0
H4388 H 0.07268 0.42459 0.37817 0.0
H4389 H 0.0433 0.40662 0.38207 0.0
S4390 S 0.02943 0.47265 0.42754 0.0
N4391 N 0.05044 0.47214 0.41702 0.0
N4392 N 0.01858 0.45277 0.42113 0.0
C4393 C 0.03203 0.44466 0.4098 0.0
C4394 C 0.04938 0.45525 0.40756 0.0
C4395 C 0.34189 0.30381 0.16917 0.0
C4396 C 0.33413 0.30939 0.15152 0.0
C4397 C 0.35333 0.28742 0.17095 0.0
C4398 C 0.35729 0.2756 0.15525 0.0
H4399 H 0.33962 0.31252 0.18172 0.0
H4400 H 0.35938 0.28412 0.18474 0.0
S4401 S 0.33943 0.28275 0.10611 0.0
N4402 N 0.3308 0.30116 0.11806 0.0
N4403 N 0.35168 0.26996 0.12162 0.0
C4404 C 0.34911 0.28051 0.13764 0.0
C4405 C 0.33771 0.29748 0.13572 0.0
C4406 C 0.47786 0.60224 0.88549 0.0
C4407 C 0.47208 0.59042 0.90063 0.0
C4408 C 0.49514 0.61249 0.88616 0.0
C4409 C 0.50757 0.6113 0.90185 0.0
H4410 H 0.46878 0.60394 0.87315 0.0
H4411 H 0.49876 0.62144 0.87423 0.0
S4412 S 0.49915 0.58211 0.94522 0.0
N4413 N 0.48024 0.57811 0.93187 0.0
N4414 N 0.51264 0.597 0.93298 0.0
C4415 C 0.50197 0.59938 0.91704 0.0
C4416 C 0.4843 0.58907 0.91645 0.0
C4417 C 0.18546 0.73415 0.635 0.0
C4418 C 0.19735 0.72903 0.65027 0.0
C4419 C 0.17385 0.75054 0.63582 0.0
C4420 C 0.17394 0.7629 0.65162 0.0
H4421 H 0.1849 0.72526 0.62241 0.0
H4422 H 0.16482 0.75365 0.6239 0.0
S4423 S 0.20296 0.75613 0.69534 0.0
N4424 N 0.20849 0.73764 0.68183 0.0
N4425 N 0.18734 0.76868 0.68305 0.0
C4426 C 0.18596 0.758 0.66695 0.0
C4427 C 0.19749 0.74108 0.66632 0.0
C4428 C 0.03611 0.60903 0.15014 0.0
C4429 C 0.02543 0.60921 0.13321 0.0
C4430 C 0.05323 0.59863 0.15167 0.0
C4431 C 0.06038 0.58785 0.13631 0.0
H4432 H 0.03101 0.61688 0.16237 0.0
H4433 H 0.06105 0.59925 0.16494 0.0
S4434 S 0.03718 0.58249 0.08909 0.0
N4435 N 0.02281 0.59685 0.101 0.0
N4436 N 0.05478 0.57735 0.10377 0.0
C4437 C 0.04947 0.58738 0.11946 0.0
C4438 C 0.03205 0.59798 0.11795 0.0
C4439 C 0.19637 0.28075 0.88171 0.0
C4440 C 0.17791 0.27937 0.88969 0.0
C4441 C 0.2078 0.29719 0.88407 0.0
C4442 C 0.20152 0.31289 0.89492 0.0
H4443 H 0.20198 0.26914 0.8732 0.0
H4444 H 0.22158 0.29769 0.87717 0.0
S4445 S 0.15419 0.31783 0.91754 0.0
N4446 N 0.154 0.29619 0.90819 0.0
N4447 N 0.1754 0.32658 0.91276 0.0
C4448 C 0.18331 0.31177 0.90305 0.0
C4449 C 0.17157 0.29519 0.90042 0.0
C4450 C 0.50097 0.4311 0.61867 0.0
C4451 C 0.51181 0.42713 0.63501 0.0
C4452 C 0.48413 0.44199 0.61979 0.0
C4453 C 0.4776 0.4496 0.63723 0.0
H4454 H 0.50532 0.42543 0.60499 0.0
H4455 H 0.47603 0.44422 0.60688 0.0
S4456 S 0.50254 0.44585 0.68361 0.0
N4457 N 0.51587 0.43327 0.66881 0.0
N4458 N 0.48443 0.45376 0.67088 0.0
C4459 C 0.48876 0.44635 0.65353 0.0
C4460 C 0.50579 0.43512 0.65241 0.0
C4461 C 0.34687 0.73096 0.36832 0.0
C4462 C 0.33865 0.72507 0.38569 0.0
C4463 C 0.35773 0.74778 0.36694 0.0
C4464 C 0.36117 0.75937 0.38291 0.0
H4465 H 0.34509 0.72238 0.35561 0.0
H4466 H 0.36371 0.75163 0.35324 0.0
S4467 S 0.34131 0.75183 0.43126 0.0
N4468 N 0.33365 0.73323 0.41898 0.0
N4469 N 0.35422 0.76469 0.41635 0.0
C4470 C 0.35273 0.754 0.40028 0.0
C4471 C 0.34146 0.73692 0.40168 0.0
C4472 C 0.38861 0.03544 0.43022 0.0
C4473 C 0.40581 0.02521 0.42924 0.0
C4474 C 0.38701 0.05252 0.4408 0.0
C4475 C 0.40264 0.06014 0.45082 0.0
H4476 H 0.37623 0.03008 0.42284 0.0
H4477 H 0.37353 0.06001 0.44077 0.0
S4478 S 0.45068 0.03827 0.45385 0.0
N4479 N 0.43857 0.02353 0.44007 0.0
N4480 N 0.43573 0.0555 0.4597 0.0
C4481 C 0.41979 0.04973 0.45041 0.0
C4482 C 0.42133 0.03229 0.43976 0.0
C4483 C 0.92309 0.48072 0.5979 0.0
C4484 C 0.90596 0.47425 0.58964 0.0
C4485 C 0.92399 0.49791 0.60829 0.0
C4486 C 0.90776 0.50932 0.61105 0.0
H4487 H 0.93592 0.47224 0.59665 0.0
H4488 H 0.93744 0.50213 0.61452 0.0
S4489 S 0.86031 0.50082 0.58974 0.0
N4490 N 0.87288 0.48195 0.58325 0.0
N4491 N 0.87459 0.5141 0.60291 0.0
C4492 C 0.89071 0.50344 0.60238 0.0
C4493 C 0.8898 0.48596 0.59167 0.0
C4494 C 0.29469 0.13663 0.33477 0.0
C4495 C 0.30828 0.15145 0.33465 0.0
C4496 C 0.2775 0.13832 0.34522 0.0
C4497 C 0.27367 0.15462 0.35635 0.0
H4498 H 0.29743 0.12361 0.32693 0.0
H4499 H 0.26759 0.12649 0.34527 0.0
S4500 S 0.30463 0.19716 0.36119 0.0
N4501 N 0.31638 0.183 0.34652 0.0
N4502 N 0.28479 0.18574 0.3665 0.0
C4503 C 0.28708 0.16947 0.35618 0.0
C4504 C 0.30419 0.168 0.34527 0.0
C4505 C 0.64864 0.54277 0.11251 0.0
C4506 C 0.63265 0.53068 0.11163 0.0
C4507 C 0.65028 0.55917 0.10099 0.0
C4508 C 0.63579 0.56446 0.08822 0.0
H4509 H 0.66006 0.53948 0.12215 0.0
H4510 H 0.66288 0.56795 0.10239 0.0
S4511 S 0.59057 0.53821 0.08049 0.0
N4512 N 0.60183 0.52549 0.09674 0.0
N4513 N 0.60468 0.55638 0.07555 0.0
C4514 C 0.61957 0.55269 0.08731 0.0
C4515 C 0.61803 0.53585 0.09886 0.0
C4516 C 0.73935 0.37361 0.34016 0.0
C4517 C 0.72779 0.39004 0.33977 0.0
C4518 C 0.75611 0.3729 0.35119 0.0
C4519 C 0.76178 0.38845 0.3626 0.0
H4520 H 0.73537 0.36114 0.33196 0.0
H4521 H 0.76453 0.35996 0.35097 0.0
S4522 S 0.73673 0.43501 0.36606 0.0
N4523 N 0.72351 0.42236 0.35136 0.0
N4524 N 0.75464 0.42102 0.3721 0.0
C4525 C 0.75037 0.40498 0.36215 0.0
C4526 C 0.73351 0.40578 0.35075 0.0
C4527 C 0.12112 0.98548 0.94318 0.0
C4528 C 0.13711 0.97343 0.94436 0.0
C4529 C 0.12155 1.0025 0.93242 0.0
C4530 C 0.13787 1.00808 0.92205 0.0
H4531 H 0.10818 0.98182 0.95073 0.0
H4532 H 0.10892 1.01135 0.93223 0.0
S4533 S 0.18336 0.98116 0.92005 0.0
N4534 N 0.16963 0.96814 0.93395 0.0
N4535 N 0.1704 0.99979 0.91385 0.0
C4536 C 0.15384 0.99598 0.923 0.0
C4537 C 0.15347 0.97879 0.9341 0.0
C4538 C 0.29115 0.89534 0.17147 0.0
C4539 C 0.27873 0.87966 0.17267 0.0
C4540 C 0.30791 0.8964 0.18232 0.0
C4541 C 0.31326 0.88161 0.19473 0.0
H4542 H 0.28784 0.907 0.16209 0.0
H4543 H 0.3169 0.90885 0.18072 0.0
S4544 S 0.2862 0.83695 0.20306 0.0
N4545 N 0.2732 0.84876 0.18744 0.0
N4546 N 0.30491 0.85051 0.20743 0.0
C4547 C 0.30118 0.86565 0.19597 0.0
C4548 C 0.2839 0.86471 0.18508 0.0
C4549 C 0.23594 0.16943 0.69224 0.0
C4550 C 0.22927 0.1518 0.69927 0.0
C4551 C 0.25275 0.17074 0.68133 0.0
C4552 C 0.26358 0.15447 0.67686 0.0
H4553 H 0.22787 0.18235 0.69481 0.0
H4554 H 0.25707 0.18457 0.67598 0.0
S4555 S 0.2544 0.10549 0.69447 0.0
N4556 N 0.23619 0.11802 0.70261 0.0
N4557 N 0.2677 0.12054 0.68217 0.0
C4558 C 0.25757 0.13689 0.6844 0.0
C4559 C 0.24045 0.13554 0.69557 0.0
C4560 C 0.12998 0.12518 0.39863 0.0
C4561 C 0.11873 0.13802 0.38808 0.0
C4562 C 0.14995 0.12535 0.39746 0.0
C4563 C 0.15967 0.1384 0.3857 0.0
H4564 H 0.12336 0.11523 0.40838 0.0
H4565 H 0.15782 0.11557 0.4064 0.0
S4566 S 0.13694 0.17475 0.35462 0.0
N4567 N 0.11889 0.16382 0.36497 0.0
N4568 N 0.15628 0.16416 0.36272 0.0
C4569 C 0.14858 0.15083 0.37446 0.0
C4570 C 0.12819 0.15064 0.37566 0.0
C4571 C 0.12827 0.90871 0.63376 0.0
C4572 C 0.14307 0.91972 0.64182 0.0
C4573 C 0.12696 0.88891 0.63681 0.0
C4574 C 0.14067 0.87909 0.64755 0.0
H4575 H 0.11697 0.91554 0.62582 0.0
H4576 H 0.11474 0.8813 0.63124 0.0
S4577 S 0.1825 0.90059 0.67141 0.0
N4578 N 0.17197 0.9188 0.66088 0.0
N4579 N 0.16966 0.88161 0.66605 0.0
C4580 C 0.15596 0.88961 0.655 0.0
C4581 C 0.15714 0.90988 0.65225 0.0
C4582 C 0.40416 0.90889 0.89494 0.0
C4583 C 0.41378 0.8916 0.89153 0.0
C4584 C 0.38427 0.91036 0.8925 0.0
C4585 C 0.37334 0.89478 0.886 0.0
H4586 H 0.41179 0.92096 0.90082 0.0
H4587 H 0.37728 0.92356 0.89645 0.0
S4588 S 0.39201 0.84673 0.8738 0.0
N4589 N 0.41097 0.85887 0.88055 0.0
N4590 N 0.374 0.86178 0.87532 0.0
C4591 C 0.38304 0.8778 0.88141 0.0
C4592 C 0.40313 0.87619 0.88434 0.0
C4593 C 0.39352 0.1328 0.12686 0.0
C4594 C 0.39336 0.12279 0.14422 0.0
C4595 C 0.38982 0.15257 0.12624 0.0
C4596 C 0.38527 0.1629 0.14287 0.0
H4597 H 0.39776 0.12561 0.11387 0.0
H4598 H 0.39114 0.15993 0.11275 0.0
S4599 S 0.38178 0.14285 0.19172 0.0
N4600 N 0.38767 0.12448 0.17824 0.0
N4601 N 0.37991 0.16116 0.17709 0.0
C4602 C 0.38398 0.15272 0.16013 0.0
C4603 C 0.38825 0.1328 0.16079 0.0
C4604 C 0.15489 0.90632 0.13642 0.0
C4605 C 0.16496 0.89031 0.14322 0.0
C4606 C 0.13496 0.90591 0.13408 0.0
C4607 C 0.12443 0.88928 0.13791 0.0
H4608 H 0.16258 0.919 0.13211 0.0
H4609 H 0.12797 0.91821 0.12791 0.0
S4610 S 0.14363 0.84367 0.15637 0.0
N4611 N 0.16247 0.85766 0.15466 0.0
N4612 N 0.12536 0.85667 0.14931 0.0
C4613 C 0.13418 0.87344 0.1453 0.0
C4614 C 0.15433 0.87402 0.14825 0.0
C4615 C 0.4117 0.9029 0.39926 0.0
C4616 C 0.39442 0.91311 0.39841 0.0
C4617 C 0.4127 0.8835 0.39428 0.0
C4618 C 0.39639 0.87318 0.38891 0.0
H4619 H 0.42485 0.9102 0.40266 0.0
H4620 H 0.42652 0.87668 0.39406 0.0
S4621 S 0.34743 0.89264 0.38564 0.0
N4622 N 0.36044 0.91108 0.39236 0.0
N4623 N 0.36223 0.87441 0.38387 0.0
C4624 C 0.37884 0.88286 0.389 0.0
C4625 C 0.37789 0.90284 0.39352 0.0
C4626 C 0.40477 0.15861 0.64918 0.0
C4627 C 0.41478 0.14346 0.64061 0.0
C4628 C 0.38509 0.15752 0.65263 0.0
C4629 C 0.3744 0.1414 0.64718 0.0
H4630 H 0.41208 0.17178 0.65257 0.0
H4631 H 0.37807 0.16995 0.65851 0.0
S4632 S 0.39403 0.0973 0.62531 0.0
N4633 N 0.41276 0.1113 0.62791 0.0
N4634 N 0.37571 0.10939 0.63384 0.0
C4635 C 0.38441 0.12578 0.63939 0.0
C4636 C 0.40458 0.12676 0.63625 0.0
C4637 C 0.13255 0.15275 0.89676 0.0
C4638 C 0.14758 0.16292 0.88831 0.0
C4639 C 0.1337 0.13297 0.89976 0.0
C4640 C 0.14971 0.12228 0.89389 0.0
H4641 H 0.11948 0.16006 0.90049 0.0
H4642 H 0.1214 0.12591 0.90583 0.0
S4643 S 0.19302 0.14232 0.87104 0.0
N4644 N 0.17919 0.16107 0.87454 0.0
N4645 N 0.18123 0.12381 0.87957 0.0
C4646 C 0.16508 0.13243 0.88585 0.0
C4647 C 0.16404 0.15273 0.8832 0.0
C4648 C 0.12241 0.3992 0.13716 0.0
C4649 C 0.13418 0.38731 0.12601 0.0
C4650 C 0.12377 0.39957 0.15715 0.0
C4651 C 0.13693 0.38804 0.16699 0.0
H4652 H 0.11254 0.40892 0.1304 0.0
H4653 H 0.11487 0.40955 0.16488 0.0
S4654 S 0.17012 0.35322 0.14469 0.0
N4655 N 0.15869 0.36277 0.12655 0.0
N4656 N 0.16119 0.36344 0.16391 0.0
C4657 C 0.1481 0.37534 0.15608 0.0
C4658 C 0.14674 0.37499 0.1357 0.0
C4659 C 0.64484 0.1326 0.87659 0.0
C4660 C 0.65623 0.14894 0.87435 0.0
C4661 C 0.64061 0.12528 0.89475 0.0
C4662 C 0.64734 0.13408 0.91154 0.0
H4663 H 0.6398 0.12486 0.86422 0.0
H4664 H 0.63234 0.11227 0.8956 0.0
S4665 S 0.67709 0.17763 0.91379 0.0
N4666 N 0.67367 0.17411 0.89079 0.0
N4667 N 0.66551 0.16032 0.92474 0.0
C4668 C 0.65811 0.15081 0.9096 0.0
C4669 C 0.66262 0.15821 0.89109 0.0
C4670 C 0.87858 0.89016 0.40386 0.0
C4671 C 0.89345 0.89914 0.41376 0.0
C4672 C 0.87978 0.88672 0.38422 0.0
C4673 C 0.89571 0.8926 0.37346 0.0
H4674 H 0.86555 0.88643 0.41124 0.0
H4675 H 0.86754 0.8804 0.3773 0.0
S4676 S 0.93896 0.91588 0.39294 0.0
N4677 N 0.92509 0.91287 0.41171 0.0
N4678 N 0.92721 0.90693 0.37463 0.0
C4679 C 0.91105 0.90088 0.38338 0.0
C4680 C 0.90996 0.90401 0.40355 0.0
C4681 C 0.88876 0.15981 0.13382 0.0
C4682 C 0.89503 0.14345 0.12389 0.0
C4683 C 0.88497 0.1593 0.15357 0.0
C4684 C 0.88688 0.1423 0.16404 0.0
H4685 H 0.8862 0.17297 0.12618 0.0
H4686 H 0.87941 0.17198 0.16043 0.0
S4687 S 0.90358 0.09574 0.14538 0.0
N4688 N 0.9039 0.10996 0.12666 0.0
N4689 N 0.89613 0.10901 0.16332 0.0
C4690 C 0.89368 0.12607 0.15448 0.0
C4691 C 0.89794 0.12664 0.13456 0.0
C4692 C 0.41139 0.6444 0.65412 0.0
C4693 C 0.39497 0.64996 0.66426 0.0
C4694 C 0.41064 0.6401 0.6345 0.0
C4695 C 0.39333 0.64071 0.62448 0.0
H4696 H 0.42478 0.64268 0.66154 0.0
H4697 H 0.4234 0.63501 0.62747 0.0
S4698 S 0.34636 0.65483 0.644 0.0
N4699 N 0.36102 0.65672 0.66224 0.0
N4700 N 0.35961 0.64784 0.62587 0.0
C4701 C 0.377 0.64685 0.63425 0.0
C4702 C 0.37781 0.65171 0.65399 0.0
C4703 C 0.14791 0.65698 0.38297 0.0
C4704 C 0.14779 0.63958 0.37294 0.0
C4705 C 0.14296 0.6578 0.40246 0.0
C4706 C 0.13726 0.64134 0.41253 0.0
H4707 H 0.15292 0.66983 0.37604 0.0
H4708 H 0.14417 0.67133 0.40982 0.0
S4709 S 0.13316 0.59255 0.39204 0.0
N4710 N 0.14078 0.60577 0.37417 0.0
N4711 N 0.1308 0.60726 0.41026 0.0
C4712 C 0.13612 0.62407 0.40223 0.0
C4713 C 0.14159 0.6232 0.38261 0.0
C4714 C 0.38875 0.37734 0.88497 0.0
C4715 C 0.38833 0.39419 0.8741 0.0
C4716 C 0.39278 0.37784 0.90465 0.0
C4717 C 0.39697 0.39515 0.91405 0.0
H4718 H 0.38478 0.36388 0.87851 0.0
H4719 H 0.392 0.36468 0.91267 0.0
S4720 S 0.39913 0.443 0.89134 0.0
N4721 N 0.39331 0.42839 0.87386 0.0
N4722 N 0.40149 0.42942 0.91034 0.0
C4723 C 0.39765 0.4119 0.90295 0.0
C4724 C 0.39317 0.41139 0.88313 0.0
C4725 C 0.88203 0.89014 0.66043 0.0
C4726 C 0.87053 0.9003 0.6475 0.0
C4727 C 0.90203 0.89107 0.65967 0.0
C4728 C 0.91158 0.90219 0.64593 0.0
H4729 H 0.87555 0.88095 0.67099 0.0
H4730 H 0.91007 0.88253 0.66967 0.0
S4731 S 0.88821 0.93146 0.60854 0.0
N4732 N 0.87034 0.92196 0.62048 0.0
N4733 N 0.90773 0.92373 0.61905 0.0
C4734 C 0.90025 0.91282 0.63319 0.0
C4735 C 0.87984 0.91187 0.63397 0.0
C4736 C 0.88072 0.15662 0.38079 0.0
C4737 C 0.88742 0.16744 0.39633 0.0
C4738 C 0.8837 0.13684 0.37974 0.0
C4739 C 0.89303 0.1269 0.39439 0.0
H4740 H 0.87422 0.16359 0.36868 0.0
H4741 H 0.87945 0.12938 0.3669 0.0
S4742 S 0.91161 0.14795 0.43909 0.0
N4743 N 0.90267 0.16631 0.4274 0.0
N4744 N 0.90777 0.12905 0.42555 0.0
C4745 C 0.89859 0.13721 0.41063 0.0
C4746 C 0.89592 0.15748 0.41156 0.0
C4747 C 0.62947 0.13004 0.13843 0.0
C4748 C 0.62005 0.14776 0.13777 0.0
C4749 C 0.64908 0.12887 0.14269 0.0
C4750 C 0.65982 0.14533 0.14693 0.0
H4751 H 0.62193 0.11713 0.13458 0.0
H4752 H 0.65596 0.11505 0.14223 0.0
S4753 S 0.64136 0.19505 0.148 0.0
N4754 N 0.62275 0.18195 0.14224 0.0
N4755 N 0.65907 0.17987 0.15078 0.0
C4756 C 0.65022 0.16301 0.14715 0.0
C4757 C 0.63049 0.16418 0.14244 0.0
C4758 C 0.6522 0.90402 0.87771 0.0
C4759 C 0.64483 0.91362 0.89369 0.0
C4760 C 0.657 0.88461 0.87845 0.0
C4761 C 0.65403 0.87373 0.89506 0.0
H4762 H 0.65355 0.91138 0.86423 0.0
H4763 H 0.66183 0.87784 0.86543 0.0
S4764 S 0.63627 0.8924 0.94127 0.0
N4765 N 0.6361 0.91117 0.92707 0.0
N4766 N 0.64441 0.87448 0.92832 0.0
C4767 C 0.64749 0.88337 0.91143 0.0
C4768 C 0.64306 0.90334 0.91078 0.0
C4769 C 0.89079 0.17376 0.89927 0.0
C4770 C 0.87694 0.15925 0.89792 0.0
C4771 C 0.91004 0.16961 0.90237 0.0
C4772 C 0.91652 0.15074 0.9041 0.0
H4773 H 0.88667 0.18863 0.89854 0.0
H4774 H 0.91985 0.1814 0.90419 0.0
S4775 S 0.88645 0.10736 0.9014 0.0
N4776 N 0.87128 0.12508 0.89811 0.0
N4777 N 0.90765 0.11726 0.90394 0.0
C4778 C 0.90309 0.13597 0.90197 0.0
C4779 C 0.88328 0.14022 0.89885 0.0
C4780 C 0.66305 0.12943 0.6469 0.0
C4781 C 0.65064 0.12008 0.63424 0.0
C4782 C 0.66438 0.14943 0.64734 0.0
C4783 C 0.65337 0.16097 0.63515 0.0
H4784 H 0.67112 0.12134 0.65723 0.0
H4785 H 0.67352 0.15587 0.65797 0.0
S4786 S 0.62051 0.14349 0.59758 0.0
N4787 N 0.62855 0.12392 0.60783 0.0
N4788 N 0.631 0.16134 0.60875 0.0
C4789 C 0.64182 0.15175 0.62158 0.0
C4790 C 0.64047 0.13139 0.62113 0.0
C4791 C 0.65384 0.90283 0.40413 0.0
C4792 C 0.66374 0.89202 0.39047 0.0
C4793 C 0.63414 0.90588 0.40267 0.0
C4794 C 0.6234 0.89775 0.38776 0.0
H4795 H 0.66124 0.90824 0.41654 0.0
H4796 H 0.62716 0.91361 0.41407 0.0
S4797 S 0.64296 0.86919 0.34766 0.0
N4798 N 0.66172 0.87424 0.36088 0.0
N4799 N 0.62465 0.87947 0.35829 0.0
C4800 C 0.63337 0.88775 0.37344 0.0
C4801 C 0.65354 0.88499 0.37476 0.0
C4802 C 0.90643 0.90578 0.1319 0.0
C4803 C 0.89016 0.91676 0.13626 0.0
C4804 C 0.90728 0.88624 0.1361 0.0
C4805 C 0.89177 0.87664 0.14435 0.0
H4806 H 0.91913 0.91251 0.12632 0.0
H4807 H 0.92053 0.87874 0.13355 0.0
S4808 S 0.84515 0.8981 0.15679 0.0
N4809 N 0.85765 0.91609 0.14816 0.0
N4810 N 0.85915 0.87921 0.1555 0.0
C4811 C 0.87496 0.88704 0.14757 0.0
C4812 C 0.87419 0.90711 0.14367 0.0
C4813 C 0.88007 0.65537 0.88314 0.0
C4814 C 0.89614 0.64981 0.87238 0.0
C4815 C 0.87909 0.65238 0.90286 0.0
C4816 C 0.89427 0.64411 0.91289 0.0
H4817 H 0.86763 0.66124 0.8762 0.0
H4818 H 0.866 0.65596 0.91024 0.0
S4819 S 0.94011 0.62812 0.89212 0.0
N4820 N 0.92803 0.63635 0.87371 0.0
N4821 N 0.92625 0.63118 0.9109 0.0
C4822 C 0.91085 0.63944 0.90266 0.0
C4823 C 0.91176 0.64217 0.8824 0.0
C4824 C 0.40321 0.90519 0.12998 0.0
C4825 C 0.39793 0.88912 0.11906 0.0
C4826 C 0.39983 0.90607 0.14965 0.0
C4827 C 0.39149 0.89075 0.15947 0.0
H4828 H 0.40911 0.91773 0.12318 0.0
H4829 H 0.40319 0.91916 0.15715 0.0
S4830 S 0.37614 0.84484 0.13819 0.0
N4831 N 0.38463 0.85709 0.11998 0.0
N4832 N 0.37878 0.85864 0.15709 0.0
C4833 C 0.38709 0.87417 0.14907 0.0
C4834 C 0.39018 0.87339 0.12886 0.0
C4835 C 0.12305 0.14654 0.63749 0.0
C4836 C 0.13599 0.15615 0.62551 0.0
C4837 C 0.12538 0.14627 0.65738 0.0
C4838 C 0.14077 0.15558 0.66627 0.0
H4839 H 0.11133 0.13855 0.63143 0.0
H4840 H 0.11534 0.1381 0.66578 0.0
S4841 S 0.1783 0.1836 0.6415 0.0
N4842 N 0.1644 0.17593 0.6242 0.0
N4843 N 0.16876 0.17547 0.66137 0.0
C4844 C 0.15337 0.16595 0.65452 0.0
C4845 C 0.15099 0.16622 0.63424 0.0
C4846 C 0.15432 0.88058 0.88277 0.0
C4847 C 0.13853 0.88623 0.87176 0.0
C4848 C 0.15519 0.88435 0.90236 0.0
C4849 C 0.14011 0.89344 0.91191 0.0
H4850 H 0.16672 0.87431 0.87605 0.0
H4851 H 0.16815 0.88088 0.90996 0.0
S4852 S 0.09469 0.90927 0.89033 0.0
N4853 N 0.10682 0.90016 0.87231 0.0
N4854 N 0.10833 0.90673 0.9093 0.0
C4855 C 0.12367 0.89791 0.90146 0.0
C4856 C 0.12291 0.89444 0.88136 0.0
C4857 C 0.61937 0.40075 0.37483 0.0
C4858 C 0.63578 0.39058 0.36939 0.0
C4859 C 0.61514 0.40431 0.39407 0.0
C4860 C 0.62709 0.39787 0.40885 0.0
H4861 H 0.61 0.4067 0.36414 0.0
H4862 H 0.60268 0.41283 0.39728 0.0
S4863 S 0.67094 0.36895 0.40252 0.0
N4864 N 0.66341 0.37288 0.38062 0.0
N4865 N 0.65537 0.37949 0.41665 0.0
C4866 C 0.64302 0.3868 0.4037 0.0
C4867 C 0.64738 0.3832 0.38405 0.0
C4868 C 0.89555 0.37499 0.63619 0.0
C4869 C 0.90252 0.39106 0.62634 0.0
C4870 C 0.89129 0.37586 0.65579 0.0
C4871 C 0.89341 0.39297 0.66605 0.0
H4872 H 0.89268 0.36188 0.62855 0.0
H4873 H 0.88507 0.36348 0.66259 0.0
S4874 S 0.91192 0.43881 0.64745 0.0
N4875 N 0.91235 0.42431 0.62892 0.0
N4876 N 0.90377 0.42594 0.66534 0.0
C4877 C 0.9011 0.40883 0.65662 0.0
C4878 C 0.90581 0.40788 0.63687 0.0
C4879 C 0.65981 0.65256 0.12999 0.0
C4880 C 0.64428 0.64459 0.12022 0.0
C4881 C 0.65884 0.65671 0.14953 0.0
C4882 C 0.64244 0.65255 0.16037 0.0
H4883 H 0.67316 0.65493 0.12263 0.0
H4884 H 0.67152 0.66217 0.15635 0.0
S4885 S 0.59742 0.63247 0.14127 0.0
N4886 N 0.61157 0.63371 0.12251 0.0
N4887 N 0.60983 0.64093 0.15937 0.0
C4888 C 0.62649 0.6453 0.15057 0.0
C4889 C 0.62738 0.64147 0.13049 0.0
C4890 C 0.6313 0.62613 0.89199 0.0
C4891 C 0.62142 0.64353 0.89055 0.0
C4892 C 0.65087 0.62498 0.88761 0.0
C4893 C 0.66109 0.64106 0.88118 0.0
H4894 H 0.62424 0.61369 0.89777 0.0
H4895 H 0.6582 0.61161 0.89002 0.0
S4896 S 0.64112 0.68957 0.87363 0.0
N4897 N 0.62298 0.67683 0.88141 0.0
N4898 N 0.65923 0.67465 0.87251 0.0
C4899 C 0.65092 0.65818 0.87849 0.0
C4900 C 0.63124 0.65942 0.88337 0.0
C4901 C 0.63904 0.38701 0.13015 0.0
C4902 C 0.64532 0.37671 0.14621 0.0
C4903 C 0.63558 0.40681 0.13111 0.0
C4904 C 0.6378 0.41692 0.14829 0.0
H4905 H 0.63621 0.3796 0.11691 0.0
H4906 H 0.63 0.41398 0.11866 0.0
S4907 S 0.65461 0.39708 0.1942 0.0
N4908 N 0.6545 0.37862 0.17959 0.0
N4909 N 0.6474 0.41544 0.18142 0.0
C4910 C 0.64466 0.40696 0.16422 0.0
C4911 C 0.64859 0.38698 0.16317 0.0
C4912 C 0.90622 0.40927 0.40131 0.0
C4913 C 0.91533 0.39138 0.40042 0.0
C4914 C 0.88641 0.41099 0.39841 0.0
C4915 C 0.87511 0.39499 0.39389 0.0
H4916 H 0.91422 0.42181 0.40542 0.0
H4917 H 0.87981 0.42484 0.4002 0.0
S4918 S 0.89228 0.34511 0.38924 0.0
N4919 N 0.91154 0.35749 0.39455 0.0
N4920 N 0.87479 0.36077 0.3882 0.0
C4921 C 0.88428 0.37722 0.3921 0.0
C4922 C 0.90424 0.3754 0.3956 0.0
C4923 C 0.90008 0.65286 0.6318 0.0
C4924 C 0.89043 0.66274 0.64643 0.0
C4925 C 0.90222 0.63285 0.63224 0.0
C4926 C 0.89541 0.62202 0.64769 0.0
H4927 H 0.90689 0.66079 0.62045 0.0
H4928 H 0.91062 0.62604 0.62121 0.0
S4929 S 0.86865 0.64085 0.68924 0.0
N4930 N 0.87311 0.65993 0.6762 0.0
N4931 N 0.87794 0.62265 0.67751 0.0
C4932 C 0.88512 0.63165 0.66198 0.0
C4933 C 0.88242 0.6519 0.66123 0.0
C4934 C 0.65391 0.37674 0.64972 0.0
C4935 C 0.66573 0.38448 0.63546 0.0
C4936 C 0.63388 0.37815 0.64853 0.0
C4937 C 0.62508 0.3878 0.63334 0.0
H4938 H 0.66007 0.36824 0.66101 0.0
H4939 H 0.62524 0.37071 0.65893 0.0
S4940 S 0.64963 0.41143 0.59307 0.0
N4941 N 0.66707 0.40261 0.60611 0.0
N4942 N 0.62973 0.40587 0.60429 0.0
C4943 C 0.6368 0.3965 0.61967 0.0
C4944 C 0.65704 0.3947 0.62063 0.0
C4945 C 0.88098 0.39504 0.88395 0.0
C4946 C 0.88861 0.37778 0.89095 0.0
C4947 C 0.88736 0.41289 0.89051 0.0
C4948 C 0.90179 0.41434 0.90429 0.0
H4949 H 0.87034 0.39485 0.87281 0.0
H4950 H 0.88149 0.42562 0.88407 0.0
S4951 S 0.92561 0.37357 0.92836 0.0
N4952 N 0.9106 0.3634 0.9134 0.0
N4953 N 0.92274 0.39678 0.92562 0.0
C4954 C 0.909 0.39719 0.91202 0.0
C4955 C 0.90237 0.37899 0.90542 0.0
C4956 C 0.88403 0.62792 0.14011 0.0
C4957 C 0.87447 0.64196 0.15085 0.0
C4958 C 0.90405 0.627 0.13946 0.0
C4959 C 0.91549 0.64009 0.14956 0.0
H4960 H 0.87601 0.61787 0.13152 0.0
H4961 H 0.91056 0.61631 0.13044 0.0
S4962 S 0.89769 0.67901 0.18087 0.0
N4963 N 0.87823 0.66871 0.17269 0.0
N4964 N 0.91557 0.66703 0.17145 0.0
C4965 C 0.90612 0.65371 0.16098 0.0
C4966 C 0.88575 0.65468 0.16165 0.0
C4967 C 0.63961 0.63388 0.40941 0.0
C4968 C 0.64102 0.62334 0.3924 0.0
C4969 C 0.64314 0.65371 0.40973 0.0
C4970 C 0.64865 0.66366 0.39314 0.0
H4971 H 0.63454 0.62703 0.42227 0.0
H4972 H 0.64087 0.66142 0.42291 0.0
S4973 S 0.65569 0.64205 0.34524 0.0
N4974 N 0.64906 0.62405 0.35883 0.0
N4975 N 0.65638 0.66083 0.35942 0.0
C4976 C 0.6512 0.65292 0.37632 0.0
C4977 C 0.64719 0.63292 0.37595 0.0
C4978 C 0.65533 0.88502 0.65257 0.0
C4979 C 0.63951 0.89088 0.6635 0.0
C4980 C 0.65614 0.88809 0.63284 0.0
C4981 C 0.64098 0.89666 0.62302 0.0
H4982 H 0.66776 0.87899 0.6594 0.0
H4983 H 0.66911 0.88442 0.62532 0.0
S4984 S 0.59559 0.91319 0.64433 0.0
N4985 N 0.60777 0.90476 0.66258 0.0
N4986 N 0.60919 0.90999 0.62539 0.0
C4987 C 0.62457 0.90149 0.63343 0.0
C4988 C 0.62387 0.89874 0.65368 0.0
C4989 C 0.40101 0.3774 0.14638 0.0
C4990 C 0.4106 0.39343 0.13904 0.0
C4991 C 0.38128 0.37766 0.14984 0.0
C4992 C 0.37009 0.39379 0.14555 0.0
H4993 H 0.40873 0.36426 0.14889 0.0
H4994 H 0.37461 0.36466 0.15482 0.0
S4995 S 0.38839 0.43986 0.12701 0.0
N4996 N 0.40755 0.42631 0.12869 0.0
N4997 N 0.37043 0.42663 0.1345 0.0
C4998 C 0.37962 0.41017 0.13886 0.0
C4999 C 0.39985 0.41004 0.13579 0.0
C5000 C 0.39185 0.63847 0.91537 0.0
C5001 C 0.38261 0.62665 0.90203 0.0
C5002 C 0.39112 0.65847 0.91399 0.0
C5003 C 0.38119 0.66759 0.89914 0.0
H5004 H 0.40027 0.63224 0.92667 0.0
H5005 H 0.39905 0.66679 0.92427 0.0
S5006 S 0.35397 0.64318 0.86081 0.0
N5007 N 0.36262 0.62563 0.87381 0.0
N5008 N 0.36121 0.66301 0.87119 0.0
C5009 C 0.37122 0.65592 0.88613 0.0
C5010 C 0.37194 0.63555 0.88758 0.0
C5011 C 0.13447 0.64858 0.66109 0.0
C5012 C 0.1245 0.64152 0.64514 0.0
C5013 C 0.15418 0.65226 0.66026 0.0
C5014 C 0.1645 0.64939 0.64332 0.0
H5015 H 0.12687 0.65192 0.6741 0.0
H5016 H 0.16108 0.65854 0.67254 0.0
S5017 S 0.14569 0.63021 0.59788 0.0
N5018 N 0.12707 0.63077 0.6122 0.0
N5019 N 0.16369 0.6382 0.61066 0.0
C5020 C 0.15493 0.64164 0.62759 0.0
C5021 C 0.13505 0.63756 0.62848 0.0
C5022 C 0.16108 0.40168 0.39567 0.0
C5023 C 0.14524 0.41256 0.40162 0.0
C5024 C 0.15959 0.38189 0.3923 0.0
C5025 C 0.1421 0.37233 0.39432 0.0
H5026 H 0.17454 0.40865 0.39285 0.0
H5027 H 0.17189 0.37434 0.38682 0.0
S5028 S 0.0966 0.39371 0.41064 0.0
N5029 N 0.11175 0.41171 0.41057 0.0
N5030 N 0.10897 0.37491 0.40374 0.0
C5031 C 0.12643 0.38282 0.40111 0.0
C5032 C 0.12799 0.40281 0.4049 0.0
C5033 C 0.40086 0.62724 0.39321 0.0
C5034 C 0.41586 0.63798 0.401 0.0
C5035 C 0.38252 0.63515 0.39118 0.0
C5036 C 0.37843 0.65376 0.39762 0.0
H5037 H 0.40326 0.61259 0.38893 0.0
H5038 H 0.3713 0.62633 0.38532 0.0
S5039 S 0.41303 0.68747 0.41944 0.0
N5040 N 0.42559 0.6681 0.41498 0.0
N5041 N 0.39135 0.68277 0.4118 0.0
C5042 C 0.39353 0.66465 0.40519 0.0
C5043 C 0.41217 0.65679 0.40679 0.0
C5044 C 0.16233 0.63233 0.14503 0.0
C5045 C 0.14761 0.62313 0.13497 0.0
C5046 C 0.16421 0.65231 0.14501 0.0
C5047 C 0.15148 0.66407 0.13491 0.0
H5048 H 0.17216 0.6241 0.15358 0.0
H5049 H 0.17539 0.65859 0.15356 0.0
S5050 S 0.11072 0.64727 0.10571 0.0
N5051 N 0.12038 0.62751 0.11403 0.0
N5052 N 0.12391 0.66487 0.11402 0.0
C5053 C 0.13716 0.65505 0.12412 0.0
C5054 C 0.13522 0.63467 0.12415 0.0
C5055 C 0.13369 0.37434 0.89541 0.0
C5056 C 0.12269 0.39033 0.90056 0.0
C5057 C 0.15329 0.37589 0.89154 0.0
C5058 C 0.16297 0.39343 0.89328 0.0
H5059 H 0.12721 0.36033 0.89491 0.0
H5060 H 0.1611 0.36298 0.88822 0.0
S5061 S 0.14076 0.43972 0.90625 0.0
N5062 N 0.12287 0.42444 0.90663 0.0
N5063 N 0.15978 0.42727 0.90014 0.0
C5064 C 0.15206 0.40963 0.89805 0.0
C5065 C 0.13195 0.40811 0.90148 0.0
C5066 C 0.38884 0.3842 0.65893 0.0
C5067 C 0.39251 0.37392 0.64202 0.0
C5068 C 0.39265 0.40379 0.66034 0.0
C5069 C 0.39979 0.41415 0.64478 0.0
H5070 H 0.38395 0.37691 0.67162 0.0
H5071 H 0.39059 0.41078 0.67397 0.0
S5072 S 0.41053 0.39468 0.59685 0.0
N5073 N 0.40289 0.37604 0.60903 0.0
N5074 N 0.40949 0.41302 0.61161 0.0
C5075 C 0.4025 0.40442 0.62746 0.0
C5076 C 0.39901 0.38429 0.62611 0.0
C5077 C 0.40976 0.13903 0.40283 0.0
C5078 C 0.39628 0.1482 0.41456 0.0
C5079 C 0.40822 0.13925 0.38284 0.0
C5080 C 0.39308 0.14862 0.37358 0.0
H5081 H 0.42141 0.13115 0.40913 0.0
H5082 H 0.41876 0.13152 0.37462 0.0
S5083 S 0.35379 0.17482 0.39766 0.0
N5084 N 0.36726 0.16711 0.41529 0.0
N5085 N 0.36433 0.16753 0.37794 0.0
C5086 C 0.37974 0.15829 0.38513 0.0
C5087 C 0.38134 0.15809 0.40551 0.0
loop_
_geom_bond_atom_site_label_1
_geom_bond_atom_site_label_2
_geom_bond_distance
_geom_bond_site_symmetry_2
_ccdc_geom_bond_type
O0 Tb1 2.506 . S
O0 C14 1.265 . S
Tb1 O0 2.506 . S
Tb1 O6 2.312 1_655 S
Tb1 O10 2.271 . S
Tb1 O12 2.338 . S
Tb1 O19 2.441 . S
C2 O10 1.252 . S
C2 O11 1.253 1_655 S
O3 Tb4 2.271 . S
O3 C13 1.252 . S
Tb4 O3 2.271 . S
Tb4 O7 2.338 . S
Tb4 O11 2.312 . S
Tb4 O15 2.441 . S
Tb4 O16 2.506 . S
C5 O15 1.244 . S
C5 O16 1.265 . S
O6 Tb1 2.312 1_455 S
O6 C13 1.253 . S
O7 Tb4 2.338 . S
O7 C8 1.258 . S
C8 O7 1.258 . S
C8 O9 1.251 . S
O9 C8 1.251 . S
O10 Tb1 2.271 . S
O10 C2 1.252 . S
O11 C2 1.253 1_455 S
O11 Tb4 2.312 . S
O12 Tb1 2.338 . S
O12 C17 1.258 . S
C13 O3 1.252 . S
C13 O6 1.253 . S
C14 O0 1.265 . S
C14 O19 1.244 . S
O15 Tb4 2.441 . S
O15 C5 1.244 . S
O16 Tb4 2.506 . S
O16 C5 1.265 . S
C17 O12 1.258 . S
C17 O18 1.251 . S
O18 C17 1.251 . S
O19 Tb1 2.441 . S
O19 C14 1.244 . S
O20 Tb21 2.506 . S
O20 C34 1.265 . S
Tb21 O20 2.506 . S
Tb21 O26 2.312 . S
Tb21 O30 2.271 . S
Tb21 O32 2.338 . S
Tb21 O39 2.441 . S
C22 O30 1.252 . S
C22 O31 1.253 . S
O23 Tb24 2.271 . S
O23 C33 1.252 . S
Tb24 O23 2.271 . S
Tb24 O27 2.338 . S
Tb24 O31 2.312 . S
Tb24 O35 2.441 . S
Tb24 O36 2.506 . S
C25 O35 1.244 . S
C25 O36 1.265 . S
O26 Tb21 2.312 . S
O26 C33 1.253 . S
O27 Tb24 2.338 . S
O27 C28 1.258 . S
C28 O27 1.258 . S
C28 O29 1.251 . S
O29 C28 1.251 . S
O30 Tb21 2.271 . S
O30 C22 1.252 . S
O31 C22 1.253 . S
O31 Tb24 2.312 . S
O32 Tb21 2.338 . S
O32 C37 1.258 . S
C33 O23 1.252 . S
C33 O26 1.253 . S
C34 O20 1.265 . S
C34 O39 1.244 . S
O35 Tb24 2.441 . S
O35 C25 1.244 . S
O36 Tb24 2.506 . S
O36 C25 1.265 . S
C37 O32 1.258 . S
C37 O38 1.251 . S
O38 C37 1.251 . S
O39 Tb21 2.441 . S
O39 C34 1.244 . S
O40 Tb41 2.506 . S
O40 C54 1.265 . S
Tb41 O40 2.506 . S
Tb41 O46 2.312 . S
Tb41 O50 2.271 . S
Tb41 O52 2.338 . S
Tb41 O59 2.441 . S
C42 O50 1.252 . S
C42 O51 1.253 . S
O43 Tb44 2.271 . S
O43 C53 1.252 . S
Tb44 O43 2.271 . S
Tb44 O47 2.338 . S
Tb44 O51 2.312 . S
Tb44 O55 2.441 . S
Tb44 O56 2.506 . S
C45 O55 1.244 . S
C45 O56 1.265 . S
O46 Tb41 2.312 . S
O46 C53 1.253 . S
O47 Tb44 2.338 . S
O47 C48 1.258 . S
C48 O47 1.258 . S
C48 O49 1.251 . S
O49 C48 1.251 . S
O50 Tb41 2.271 . S
O50 C42 1.252 . S
O51 C42 1.253 . S
O51 Tb44 2.312 . S
O52 Tb41 2.338 . S
O52 C57 1.258 . S
C53 O43 1.252 . S
C53 O46 1.253 . S
C54 O40 1.265 . S
C54 O59 1.244 . S
O55 Tb44 2.441 . S
O55 C45 1.244 . S
O56 Tb44 2.506 . S
O56 C45 1.265 . S
C57 O52 1.258 . S
C57 O58 1.251 . S
O58 C57 1.251 . S
O59 Tb41 2.441 . S
O59 C54 1.244 . S
O60 Tb61 2.506 . S
O60 C74 1.265 . S
Tb61 O60 2.506 . S
Tb61 O66 2.312 . S
Tb61 O70 2.271 . S
Tb61 O72 2.338 . S
Tb61 O79 2.441 . S
C62 O70 1.252 . S
C62 O71 1.253 . S
O63 Tb64 2.271 . S
O63 C73 1.252 . S
Tb64 O63 2.271 . S
Tb64 O67 2.338 . S
Tb64 O71 2.312 . S
Tb64 O75 2.441 . S
Tb64 O76 2.506 . S
C65 O75 1.244 . S
C65 O76 1.265 . S
O66 Tb61 2.312 . S
O66 C73 1.253 . S
O67 Tb64 2.338 . S
O67 C68 1.258 . S
C68 O67 1.258 . S
C68 O69 1.251 . S
O69 C68 1.251 . S
O70 Tb61 2.271 . S
O70 C62 1.252 . S
O71 C62 1.253 . S
O71 Tb64 2.312 . S
O72 Tb61 2.338 . S
O72 C77 1.258 . S
C73 O63 1.252 . S
C73 O66 1.253 . S
C74 O60 1.265 . S
C74 O79 1.244 . S
O75 Tb64 2.441 . S
O75 C65 1.244 . S
O76 Tb64 2.506 . S
O76 C65 1.265 . S
C77 O72 1.258 . S
C77 O78 1.251 . S
O78 C77 1.251 . S
O79 Tb61 2.441 . S
O79 C74 1.244 . S
O80 Tb81 2.506 . S
O80 C94 1.265 . S
Tb81 O80 2.506 . S
Tb81 O86 2.312 . S
Tb81 O90 2.271 . S
Tb81 O92 2.338 . S
Tb81 O99 2.441 . S
C82 O90 1.252 . S
C82 O91 1.253 . S
O83 Tb84 2.271 . S
O83 C93 1.252 . S
Tb84 O83 2.271 . S
Tb84 O87 2.338 . S
Tb84 O91 2.312 1_655 S
Tb84 O95 2.441 . S
Tb84 O96 2.506 . S
C85 O95 1.244 . S
C85 O96 1.265 . S
O86 Tb81 2.312 . S
O86 C93 1.253 1_455 S
O87 Tb84 2.338 . S
O87 C88 1.258 . S
C88 O87 1.258 . S
C88 O89 1.251 . S
O89 C88 1.251 . S
O90 Tb81 2.271 . S
O90 C82 1.252 . S
O91 C82 1.253 . S
O91 Tb84 2.312 1_455 S
O92 Tb81 2.338 . S
O92 C97 1.258 . S
C93 O83 1.252 . S
C93 O86 1.253 1_655 S
C94 O80 1.265 . S
C94 O99 1.244 . S
O95 Tb84 2.441 . S
O95 C85 1.244 . S
O96 Tb84 2.506 . S
O96 C85 1.265 . S
C97 O92 1.258 . S
C97 O98 1.251 . S
O98 C97 1.251 . S
O99 Tb81 2.441 . S
O99 C94 1.244 . S
O100 Tb101 2.506 . S
O100 C114 1.265 . S
Tb101 O100 2.506 . S
Tb101 O106 2.312 . S
Tb101 O110 2.271 . S
Tb101 O112 2.338 . S
Tb101 O119 2.441 . S
C102 O110 1.252 . S
C102 O111 1.253 . S
O103 Tb104 2.271 . S
O103 C113 1.252 . S
Tb104 O103 2.271 . S
Tb104 O107 2.338 . S
Tb104 O111 2.312 . S
Tb104 O115 2.441 . S
Tb104 O116 2.506 . S
C105 O115 1.244 . S
C105 O116 1.265 . S
O106 Tb101 2.312 . S
O106 C113 1.253 . S
O107 Tb104 2.338 . S
O107 C108 1.258 . S
C108 O107 1.258 . S
C108 O109 1.251 . S
O109 C108 1.251 . S
O110 Tb101 2.271 . S
O110 C102 1.252 . S
O111 C102 1.253 . S
O111 Tb104 2.312 . S
O112 Tb101 2.338 . S
O112 C117 1.258 . S
C113 O103 1.252 . S
C113 O106 1.253 . S
C114 O100 1.265 . S
C114 O119 1.244 . S
O115 Tb104 2.441 . S
O115 C105 1.244 . S
O116 Tb104 2.506 . S
O116 C105 1.265 . S
C117 O112 1.258 . S
C117 O118 1.251 . S
O118 C117 1.251 . S
O119 Tb101 2.441 . S
O119 C114 1.244 . S
O120 Tb121 2.506 . S
O120 C134 1.265 . S
Tb121 O120 2.506 . S
Tb121 O126 2.312 . S
Tb121 O130 2.271 . S
Tb121 O132 2.338 . S
Tb121 O139 2.441 . S
C122 O130 1.252 . S
C122 O131 1.253 . S
O123 Tb124 2.271 . S
O123 C133 1.252 . S
Tb124 O123 2.271 . S
Tb124 O127 2.338 . S
Tb124 O131 2.312 . S
Tb124 O135 2.441 . S
Tb124 O136 2.506 . S
C125 O135 1.244 . S
C125 O136 1.265 . S
O126 Tb121 2.312 . S
O126 C133 1.253 . S
O127 Tb124 2.338 . S
O127 C128 1.258 . S
C128 O127 1.258 . S
C128 O129 1.251 . S
O129 C128 1.251 . S
O130 Tb121 2.271 . S
O130 C122 1.252 . S
O131 C122 1.253 . S
O131 Tb124 2.312 . S
O132 Tb121 2.338 . S
O132 C137 1.258 . S
C133 O123 1.252 . S
C133 O126 1.253 . S
C134 O120 1.265 . S
C134 O139 1.244 . S
O135 Tb124 2.441 . S
O135 C125 1.244 . S
O136 Tb124 2.506 . S
O136 C125 1.265 . S
C137 O132 1.258 . S
C137 O138 1.251 . S
O138 C137 1.251 . S
O139 Tb121 2.441 . S
O139 C134 1.244 . S
O140 Tb141 2.506 . S
O140 C154 1.265 . S
Tb141 O140 2.506 . S
Tb141 O146 2.312 . S
Tb141 O150 2.271 . S
Tb141 O152 2.338 . S
Tb141 O159 2.441 . S
C142 O150 1.252 . S
C142 O151 1.253 . S
O143 Tb144 2.271 . S
O143 C153 1.252 . S
Tb144 O143 2.271 . S
Tb144 O147 2.338 . S
Tb144 O151 2.312 . S
Tb144 O155 2.441 . S
Tb144 O156 2.506 . S
C145 O155 1.244 . S
C145 O156 1.265 . S
O146 Tb141 2.312 . S
O146 C153 1.253 . S
O147 Tb144 2.338 . S
O147 C148 1.258 . S
C148 O147 1.258 . S
C148 O149 1.251 . S
O149 C148 1.251 . S
O150 Tb141 2.271 . S
O150 C142 1.252 . S
O151 C142 1.253 . S
O151 Tb144 2.312 . S
O152 Tb141 2.338 . S
O152 C157 1.258 . S
C153 O143 1.252 . S
C153 O146 1.253 . S
C154 O140 1.265 . S
C154 O159 1.244 . S
O155 Tb144 2.441 . S
O155 C145 1.244 . S
O156 Tb144 2.506 . S
O156 C145 1.265 . S
C157 O152 1.258 . S
C157 O158 1.251 . S
O158 C157 1.251 . S
O159 Tb141 2.441 . S
O159 C154 1.244 . S
O160 Tb161 2.506 . S
O160 C174 1.265 . S
Tb161 O160 2.506 . S
Tb161 O166 2.312 . S
Tb161 O170 2.271 . S
Tb161 O172 2.338 . S
Tb161 O179 2.441 . S
C162 O170 1.252 . S
C162 O171 1.253 . S
O163 Tb164 2.271 . S
O163 C173 1.252 . S
Tb164 O163 2.271 . S
Tb164 O167 2.338 . S
Tb164 O171 2.312 1_565 S
Tb164 O175 2.441 . S
Tb164 O176 2.506 . S
C165 O175 1.244 . S
C165 O176 1.265 . S
O166 Tb161 2.312 . S
O166 C173 1.253 1_545 S
O167 Tb164 2.338 . S
O167 C168 1.258 . S
C168 O167 1.258 . S
C168 O169 1.251 . S
O169 C168 1.251 . S
O170 Tb161 2.271 . S
O170 C162 1.252 . S
O171 C162 1.253 . S
O171 Tb164 2.312 1_545 S
O172 Tb161 2.338 . S
O172 C177 1.258 . S
C173 O163 1.252 . S
C173 O166 1.253 1_565 S
C174 O160 1.265 . S
C174 O179 1.244 . S
O175 Tb164 2.441 . S
O175 C165 1.244 . S
O176 Tb164 2.506 . S
O176 C165 1.265 . S
C177 O172 1.258 . S
C177 O178 1.251 . S
O178 C177 1.251 . S
O179 Tb161 2.441 . S
O179 C174 1.244 . S
O180 Tb181 2.506 . S
O180 C194 1.265 . S
Tb181 O180 2.506 . S
Tb181 O186 2.312 . S
Tb181 O190 2.271 . S
Tb181 O192 2.338 . S
Tb181 O199 2.441 . S
C182 O190 1.252 . S
C182 O191 1.253 . S
O183 Tb184 2.271 . S
O183 C193 1.252 . S
Tb184 O183 2.271 . S
Tb184 O187 2.338 . S
Tb184 O191 2.312 . S
Tb184 O195 2.441 . S
Tb184 O196 2.506 . S
C185 O195 1.244 . S
C185 O196 1.265 . S
O186 Tb181 2.312 . S
O186 C193 1.253 . S
O187 Tb184 2.338 . S
O187 C188 1.258 . S
C188 O187 1.258 . S
C188 O189 1.251 . S
O189 C188 1.251 . S
O190 Tb181 2.271 . S
O190 C182 1.252 . S
O191 C182 1.253 . S
O191 Tb184 2.312 . S
O192 Tb181 2.338 . S
O192 C197 1.258 . S
C193 O183 1.252 . S
C193 O186 1.253 . S
C194 O180 1.265 . S
C194 O199 1.244 . S
O195 Tb184 2.441 . S
O195 C185 1.244 . S
O196 Tb184 2.506 . S
O196 C185 1.265 . S
C197 O192 1.258 . S
C197 O198 1.251 . S
O198 C197 1.251 . S
O199 Tb181 2.441 . S
O199 C194 1.244 . S
O200 Tb201 2.506 . S
O200 C214 1.265 . S
Tb201 O200 2.506 . S
Tb201 O206 2.312 1_545 S
Tb201 O210 2.271 . S
Tb201 O212 2.338 . S
Tb201 O219 2.441 . S
C202 O210 1.252 . S
C202 O211 1.253 1_545 S
O203 Tb204 2.271 . S
O203 C213 1.252 . S
Tb204 O203 2.271 . S
Tb204 O207 2.338 . S
Tb204 O211 2.312 . S
Tb204 O215 2.441 . S
Tb204 O216 2.506 . S
C205 O215 1.244 . S
C205 O216 1.265 . S
O206 Tb201 2.312 1_565 S
O206 C213 1.253 . S
O207 Tb204 2.338 . S
O207 C208 1.258 . S
C208 O207 1.258 . S
C208 O209 1.251 . S
O209 C208 1.251 . S
O210 Tb201 2.271 . S
O210 C202 1.252 . S
O211 C202 1.253 1_565 S
O211 Tb204 2.312 . S
O212 Tb201 2.338 . S
O212 C217 1.258 . S
C213 O203 1.252 . S
C213 O206 1.253 . S
C214 O200 1.265 . S
C214 O219 1.244 . S
O215 Tb204 2.441 . S
O215 C205 1.244 . S
O216 Tb204 2.506 . S
O216 C205 1.265 . S
C217 O212 1.258 . S
C217 O218 1.251 . S
O218 C217 1.251 . S
O219 Tb201 2.441 . S
O219 C214 1.244 . S
O220 Tb221 2.506 . S
O220 C234 1.265 . S
Tb221 O220 2.506 . S
Tb221 O226 2.312 . S
Tb221 O230 2.271 . S
Tb221 O232 2.338 . S
Tb221 O239 2.441 . S
C222 O230 1.252 . S
C222 O231 1.253 . S
O223 Tb224 2.271 . S
O223 C233 1.252 . S
Tb224 O223 2.271 . S
Tb224 O227 2.338 . S
Tb224 O231 2.312 . S
Tb224 O235 2.441 . S
Tb224 O236 2.506 . S
C225 O235 1.244 . S
C225 O236 1.265 . S
O226 Tb221 2.312 . S
O226 C233 1.253 . S
O227 Tb224 2.338 . S
O227 C228 1.258 . S
C228 O227 1.258 . S
C228 O229 1.251 . S
O229 C228 1.251 . S
O230 Tb221 2.271 . S
O230 C222 1.252 . S
O231 C222 1.253 . S
O231 Tb224 2.312 . S
O232 Tb221 2.338 . S
O232 C237 1.258 . S
C233 O223 1.252 . S
C233 O226 1.253 . S
C234 O220 1.265 . S
C234 O239 1.244 . S
O235 Tb224 2.441 . S
O235 C225 1.244 . S
O236 Tb224 2.506 . S
O236 C225 1.265 . S
C237 O232 1.258 . S
C237 O238 1.251 . S
O238 C237 1.251 . S
O239 Tb221 2.441 . S
O239 C234 1.244 . S
O240 Tb241 2.506 . S
O240 C254 1.265 . S
Tb241 O240 2.506 . S
Tb241 O246 2.312 . S
Tb241 O250 2.271 . S
Tb241 O252 2.338 . S
Tb241 O259 2.441 . S
C242 O250 1.252 . S
C242 O251 1.253 . S
O243 Tb244 2.271 . S
O243 C253 1.252 . S
Tb244 O243 2.271 . S
Tb244 O247 2.338 . S
Tb244 O251 2.312 1_545 S
Tb244 O255 2.441 . S
Tb244 O256 2.506 . S
C245 O255 1.244 . S
C245 O256 1.265 . S
O246 Tb241 2.312 . S
O246 C253 1.253 1_565 S
O247 Tb244 2.338 . S
O247 C248 1.258 . S
C248 O247 1.258 . S
C248 O249 1.251 . S
O249 C248 1.251 . S
O250 Tb241 2.271 . S
O250 C242 1.252 . S
O251 C242 1.253 . S
O251 Tb244 2.312 1_565 S
O252 Tb241 2.338 . S
O252 C257 1.258 . S
C253 O243 1.252 . S
C253 O246 1.253 1_545 S
C254 O240 1.265 . S
C254 O259 1.244 . S
O255 Tb244 2.441 . S
O255 C245 1.244 . S
O256 Tb244 2.506 . S
O256 C245 1.265 . S
C257 O252 1.258 . S
C257 O258 1.251 . S
O258 C257 1.251 . S
O259 Tb241 2.441 . S
O259 C254 1.244 . S
O260 Tb261 2.506 . S
O260 C274 1.265 . S
Tb261 O260 2.506 . S
Tb261 O266 2.312 . S
Tb261 O270 2.271 . S
Tb261 O272 2.338 . S
Tb261 O279 2.441 . S
C262 O270 1.252 . S
C262 O271 1.253 . S
O263 Tb264 2.271 . S
O263 C273 1.252 . S
Tb264 O263 2.271 . S
Tb264 O267 2.338 . S
Tb264 O271 2.312 . S
Tb264 O275 2.441 . S
Tb264 O276 2.506 . S
C265 O275 1.244 . S
C265 O276 1.265 . S
O266 Tb261 2.312 . S
O266 C273 1.253 . S
O267 Tb264 2.338 . S
O267 C268 1.258 . S
C268 O267 1.258 . S
C268 O269 1.251 . S
O269 C268 1.251 . S
O270 Tb261 2.271 . S
O270 C262 1.252 . S
O271 C262 1.253 . S
O271 Tb264 2.312 . S
O272 Tb261 2.338 . S
O272 C277 1.258 . S
C273 O263 1.252 . S
C273 O266 1.253 . S
C274 O260 1.265 . S
C274 O279 1.244 . S
O275 Tb264 2.441 . S
O275 C265 1.244 . S
O276 Tb264 2.506 . S
O276 C265 1.265 . S
C277 O272 1.258 . S
C277 O278 1.251 . S
O278 C277 1.251 . S
O279 Tb261 2.441 . S
O279 C274 1.244 . S
O280 Tb281 2.506 . S
O280 C294 1.265 . S
Tb281 O280 2.506 . S
Tb281 O286 2.312 . S
Tb281 O290 2.271 . S
Tb281 O292 2.338 . S
Tb281 O299 2.441 . S
C282 O290 1.252 . S
C282 O291 1.253 . S
O283 Tb284 2.271 . S
O283 C293 1.252 . S
Tb284 O283 2.271 . S
Tb284 O287 2.338 . S
Tb284 O291 2.312 1_565 S
Tb284 O295 2.441 . S
Tb284 O296 2.506 . S
C285 O295 1.244 . S
C285 O296 1.265 . S
O286 Tb281 2.312 . S
O286 C293 1.253 1_545 S
O287 Tb284 2.338 . S
O287 C288 1.258 . S
C288 O287 1.258 . S
C288 O289 1.251 . S
O289 C288 1.251 . S
O290 Tb281 2.271 . S
O290 C282 1.252 . S
O291 C282 1.253 . S
O291 Tb284 2.312 1_545 S
O292 Tb281 2.338 . S
O292 C297 1.258 . S
C293 O283 1.252 . S
C293 O286 1.253 1_565 S
C294 O280 1.265 . S
C294 O299 1.244 . S
O295 Tb284 2.441 . S
O295 C285 1.244 . S
O296 Tb284 2.506 . S
O296 C285 1.265 . S
C297 O292 1.258 . S
C297 O298 1.251 . S
O298 C297 1.251 . S
O299 Tb281 2.441 . S
O299 C294 1.244 . S
O300 Tb301 2.506 . S
O300 C314 1.265 . S
Tb301 O300 2.506 . S
Tb301 O306 2.312 . S
Tb301 O310 2.271 . S
Tb301 O312 2.338 . S
Tb301 O319 2.441 . S
C302 O310 1.252 . S
C302 O311 1.253 . S
O303 Tb304 2.271 . S
O303 C313 1.252 . S
Tb304 O303 2.271 . S
Tb304 O307 2.338 . S
Tb304 O311 2.312 . S
Tb304 O315 2.441 . S
Tb304 O316 2.506 . S
C305 O315 1.244 . S
C305 O316 1.265 . S
O306 Tb301 2.312 . S
O306 C313 1.253 . S
O307 Tb304 2.338 . S
O307 C308 1.258 . S
C308 O307 1.258 . S
C308 O309 1.251 . S
O309 C308 1.251 . S
O310 Tb301 2.271 . S
O310 C302 1.252 . S
O311 C302 1.253 . S
O311 Tb304 2.312 . S
O312 Tb301 2.338 . S
O312 C317 1.258 . S
C313 O303 1.252 . S
C313 O306 1.253 . S
C314 O300 1.265 . S
C314 O319 1.244 . S
O315 Tb304 2.441 . S
O315 C305 1.244 . S
O316 Tb304 2.506 . S
O316 C305 1.265 . S
C317 O312 1.258 . S
C317 O318 1.251 . S
O318 C317 1.251 . S
O319 Tb301 2.441 . S
O319 C314 1.244 . S
O320 Tb321 2.506 . S
O320 C334 1.265 . S
Tb321 O320 2.506 . S
Tb321 O326 2.312 . S
Tb321 O330 2.271 . S
Tb321 O332 2.338 . S
Tb321 O339 2.441 . S
C322 O330 1.252 . S
C322 O331 1.253 . S
O323 Tb324 2.271 . S
O323 C333 1.252 . S
Tb324 O323 2.271 . S
Tb324 O327 2.338 . S
Tb324 O331 2.312 1_556 S
Tb324 O335 2.441 . S
Tb324 O336 2.506 . S
C325 O335 1.244 . S
C325 O336 1.265 . S
O326 Tb321 2.312 . S
O326 C333 1.253 1_554 S
O327 Tb324 2.338 . S
O327 C328 1.258 . S
C328 O327 1.258 . S
C328 O329 1.251 . S
O329 C328 1.251 . S
O330 Tb321 2.271 . S
O330 C322 1.252 . S
O331 C322 1.253 . S
O331 Tb324 2.312 1_554 S
O332 Tb321 2.338 . S
O332 C337 1.258 . S
C333 O323 1.252 . S
C333 O326 1.253 1_556 S
C334 O320 1.265 . S
C334 O339 1.244 . S
O335 Tb324 2.441 . S
O335 C325 1.244 . S
O336 Tb324 2.506 . S
O336 C325 1.265 . S
C337 O332 1.258 . S
C337 O338 1.251 . S
O338 C337 1.251 . S
O339 Tb321 2.441 . S
O339 C334 1.244 . S
O340 Tb341 2.506 . S
O340 C354 1.265 . S
Tb341 O340 2.506 . S
Tb341 O346 2.312 . S
Tb341 O350 2.271 . S
Tb341 O352 2.338 . S
Tb341 O359 2.441 . S
C342 O350 1.252 . S
C342 O351 1.253 . S
O343 Tb344 2.271 . S
O343 C353 1.252 . S
Tb344 O343 2.271 . S
Tb344 O347 2.338 . S
Tb344 O351 2.312 1_554 S
Tb344 O355 2.441 . S
Tb344 O356 2.506 . S
C345 O355 1.244 . S
C345 O356 1.265 . S
O346 Tb341 2.312 . S
O346 C353 1.253 1_556 S
O347 Tb344 2.338 . S
O347 C348 1.258 . S
C348 O347 1.258 . S
C348 O349 1.251 . S
O349 C348 1.251 . S
O350 Tb341 2.271 . S
O350 C342 1.252 . S
O351 C342 1.253 . S
O351 Tb344 2.312 1_556 S
O352 Tb341 2.338 . S
O352 C357 1.258 . S
C353 O343 1.252 . S
C353 O346 1.253 1_554 S
C354 O340 1.265 . S
C354 O359 1.244 . S
O355 Tb344 2.441 . S
O355 C345 1.244 . S
O356 Tb344 2.506 . S
O356 C345 1.265 . S
C357 O352 1.258 . S
C357 O358 1.251 . S
O358 C357 1.251 . S
O359 Tb341 2.441 . S
O359 C354 1.244 . S
O360 Tb361 2.506 . S
O360 C374 1.265 . S
Tb361 O360 2.506 . S
Tb361 O366 2.312 . S
Tb361 O370 2.271 . S
Tb361 O372 2.338 . S
Tb361 O379 2.441 . S
C362 O370 1.252 . S
C362 O371 1.253 . S
O363 Tb364 2.271 . S
O363 C373 1.252 . S
Tb364 O363 2.271 . S
Tb364 O367 2.338 . S
Tb364 O371 2.312 . S
Tb364 O375 2.441 . S
Tb364 O376 2.506 . S
C365 O375 1.244 . S
C365 O376 1.265 . S
O366 Tb361 2.312 . S
O366 C373 1.253 . S
O367 Tb364 2.338 . S
O367 C368 1.258 . S
C368 O367 1.258 . S
C368 O369 1.251 . S
O369 C368 1.251 . S
O370 Tb361 2.271 . S
O370 C362 1.252 . S
O371 C362 1.253 . S
O371 Tb364 2.312 . S
O372 Tb361 2.338 . S
O372 C377 1.258 . S
C373 O363 1.252 . S
C373 O366 1.253 . S
C374 O360 1.265 . S
C374 O379 1.244 . S
O375 Tb364 2.441 . S
O375 C365 1.244 . S
O376 Tb364 2.506 . S
O376 C365 1.265 . S
C377 O372 1.258 . S
C377 O378 1.251 . S
O378 C377 1.251 . S
O379 Tb361 2.441 . S
O379 C374 1.244 . S
O380 Tb381 2.506 . S
O380 C394 1.265 . S
Tb381 O380 2.506 . S
Tb381 O386 2.312 . S
Tb381 O390 2.271 . S
Tb381 O392 2.338 . S
Tb381 O399 2.441 . S
C382 O390 1.252 . S
C382 O391 1.253 . S
O383 Tb384 2.271 . S
O383 C393 1.252 . S
Tb384 O383 2.271 . S
Tb384 O387 2.338 . S
Tb384 O391 2.312 . S
Tb384 O395 2.441 . S
Tb384 O396 2.506 . S
C385 O395 1.244 . S
C385 O396 1.265 . S
O386 Tb381 2.312 . S
O386 C393 1.253 . S
O387 Tb384 2.338 . S
O387 C388 1.258 . S
C388 O387 1.258 . S
C388 O389 1.251 . S
O389 C388 1.251 . S
O390 Tb381 2.271 . S
O390 C382 1.252 . S
O391 C382 1.253 . S
O391 Tb384 2.312 . S
O392 Tb381 2.338 . S
O392 C397 1.258 . S
C393 O383 1.252 . S
C393 O386 1.253 . S
C394 O380 1.265 . S
C394 O399 1.244 . S
O395 Tb384 2.441 . S
O395 C385 1.244 . S
O396 Tb384 2.506 . S
O396 C385 1.265 . S
C397 O392 1.258 . S
C397 O398 1.251 . S
O398 C397 1.251 . S
O399 Tb381 2.441 . S
O399 C394 1.244 . S
O400 Tb401 2.506 . S
O400 C414 1.265 . S
Tb401 O400 2.506 . S
Tb401 O406 2.312 . S
Tb401 O410 2.271 . S
Tb401 O412 2.338 . S
Tb401 O419 2.441 . S
C402 O410 1.252 . S
C402 O411 1.253 . S
O403 Tb404 2.271 . S
O403 C413 1.252 . S
Tb404 O403 2.271 . S
Tb404 O407 2.338 . S
Tb404 O411 2.312 . S
Tb404 O415 2.441 . S
Tb404 O416 2.506 . S
C405 O415 1.244 . S
C405 O416 1.265 . S
O406 Tb401 2.312 . S
O406 C413 1.253 . S
O407 Tb404 2.338 . S
O407 C408 1.258 . S
C408 O407 1.258 . S
C408 O409 1.251 . S
O409 C408 1.251 . S
O410 Tb401 2.271 . S
O410 C402 1.252 . S
O411 C402 1.253 . S
O411 Tb404 2.312 . S
O412 Tb401 2.338 . S
O412 C417 1.258 . S
C413 O403 1.252 . S
C413 O406 1.253 . S
C414 O400 1.265 . S
C414 O419 1.244 . S
O415 Tb404 2.441 . S
O415 C405 1.244 . S
O416 Tb404 2.506 . S
O416 C405 1.265 . S
C417 O412 1.258 . S
C417 O418 1.251 . S
O418 C417 1.251 . S
O419 Tb401 2.441 . S
O419 C414 1.244 . S
O420 Tb421 2.506 . S
O420 C434 1.265 . S
Tb421 O420 2.506 . S
Tb421 O426 2.312 . S
Tb421 O430 2.271 . S
Tb421 O432 2.338 . S
Tb421 O439 2.441 . S
C422 O430 1.252 . S
C422 O431 1.253 . S
O423 Tb424 2.271 . S
O423 C433 1.252 . S
Tb424 O423 2.271 . S
Tb424 O427 2.338 . S
Tb424 O431 2.312 . S
Tb424 O435 2.441 . S
Tb424 O436 2.506 . S
C425 O435 1.244 . S
C425 O436 1.265 . S
O426 Tb421 2.312 . S
O426 C433 1.253 . S
O427 Tb424 2.338 . S
O427 C428 1.258 . S
C428 O427 1.258 . S
C428 O429 1.251 . S
O429 C428 1.251 . S
O430 Tb421 2.271 . S
O430 C422 1.252 . S
O431 C422 1.253 . S
O431 Tb424 2.312 . S
O432 Tb421 2.338 . S
O432 C437 1.258 . S
C433 O423 1.252 . S
C433 O426 1.253 . S
C434 O420 1.265 . S
C434 O439 1.244 . S
O435 Tb424 2.441 . S
O435 C425 1.244 . S
O436 Tb424 2.506 . S
O436 C425 1.265 . S
C437 O432 1.258 . S
C437 O438 1.251 . S
O438 C437 1.251 . S
O439 Tb421 2.441 . S
O439 C434 1.244 . S
O440 Tb441 2.506 . S
O440 C454 1.265 . S
Tb441 O440 2.506 . S
Tb441 O446 2.312 . S
Tb441 O450 2.271 . S
Tb441 O452 2.338 . S
Tb441 O459 2.441 . S
C442 O450 1.252 . S
C442 O451 1.253 . S
O443 Tb444 2.271 . S
O443 C453 1.252 . S
Tb444 O443 2.271 . S
Tb444 O447 2.338 . S
Tb444 O451 2.312 . S
Tb444 O455 2.441 . S
Tb444 O456 2.506 . S
C445 O455 1.244 . S
C445 O456 1.265 . S
O446 Tb441 2.312 . S
O446 C453 1.253 . S
O447 Tb444 2.338 . S
O447 C448 1.258 . S
C448 O447 1.258 . S
C448 O449 1.251 . S
O449 C448 1.251 . S
O450 Tb441 2.271 . S
O450 C442 1.252 . S
O451 C442 1.253 . S
O451 Tb444 2.312 . S
O452 Tb441 2.338 . S
O452 C457 1.258 . S
C453 O443 1.252 . S
C453 O446 1.253 . S
C454 O440 1.265 . S
C454 O459 1.244 . S
O455 Tb444 2.441 . S
O455 C445 1.244 . S
O456 Tb444 2.506 . S
O456 C445 1.265 . S
C457 O452 1.258 . S
C457 O458 1.251 . S
O458 C457 1.251 . S
O459 Tb441 2.441 . S
O459 C454 1.244 . S
O460 Tb461 2.506 . S
O460 C474 1.265 . S
Tb461 O460 2.506 . S
Tb461 O466 2.312 . S
Tb461 O470 2.271 . S
Tb461 O472 2.338 . S
Tb461 O479 2.441 . S
C462 O470 1.252 . S
C462 O471 1.253 . S
O463 Tb464 2.271 . S
O463 C473 1.252 . S
Tb464 O463 2.271 . S
Tb464 O467 2.338 . S
Tb464 O471 2.312 . S
Tb464 O475 2.441 . S
Tb464 O476 2.506 . S
C465 O475 1.244 . S
C465 O476 1.265 . S
O466 Tb461 2.312 . S
O466 C473 1.253 . S
O467 Tb464 2.338 . S
O467 C468 1.258 . S
C468 O467 1.258 . S
C468 O469 1.251 . S
O469 C468 1.251 . S
O470 Tb461 2.271 . S
O470 C462 1.252 . S
O471 C462 1.253 . S
O471 Tb464 2.312 . S
O472 Tb461 2.338 . S
O472 C477 1.258 . S
C473 O463 1.252 . S
C473 O466 1.253 . S
C474 O460 1.265 . S
C474 O479 1.244 . S
O475 Tb464 2.441 . S
O475 C465 1.244 . S
O476 Tb464 2.506 . S
O476 C465 1.265 . S
C477 O472 1.258 . S
C477 O478 1.251 . S
O478 C477 1.251 . S
O479 Tb461 2.441 . S
O479 C474 1.244 . S
O480 Tb481 2.506 . S
O480 C494 1.265 . S
Tb481 O480 2.506 . S
Tb481 O486 2.312 . S
Tb481 O490 2.271 . S
Tb481 O492 2.338 . S
Tb481 O499 2.441 . S
C482 O490 1.252 . S
C482 O491 1.253 . S
O483 Tb484 2.271 . S
O483 C493 1.252 . S
Tb484 O483 2.271 . S
Tb484 O487 2.338 . S
Tb484 O491 2.312 1_455 S
Tb484 O495 2.441 . S
Tb484 O496 2.506 . S
C485 O495 1.244 . S
C485 O496 1.265 . S
O486 Tb481 2.312 . S
O486 C493 1.253 1_655 S
O487 Tb484 2.338 . S
O487 C488 1.258 . S
C488 O487 1.258 . S
C488 O489 1.251 . S
O489 C488 1.251 . S
O490 Tb481 2.271 . S
O490 C482 1.252 . S
O491 C482 1.253 . S
O491 Tb484 2.312 1_655 S
O492 Tb481 2.338 . S
O492 C497 1.258 . S
C493 O483 1.252 . S
C493 O486 1.253 1_455 S
C494 O480 1.265 . S
C494 O499 1.244 . S
O495 Tb484 2.441 . S
O495 C485 1.244 . S
O496 Tb484 2.506 . S
O496 C485 1.265 . S
C497 O492 1.258 . S
C497 O498 1.251 . S
O498 C497 1.251 . S
O499 Tb481 2.441 . S
O499 C494 1.244 . S
O500 Tb501 2.506 . S
O500 C514 1.265 . S
Tb501 O500 2.506 . S
Tb501 O506 2.312 . S
Tb501 O510 2.271 . S
Tb501 O512 2.338 . S
Tb501 O519 2.441 . S
C502 O510 1.252 . S
C502 O511 1.253 . S
O503 Tb504 2.271 . S
O503 C513 1.252 . S
Tb504 O503 2.271 . S
Tb504 O507 2.338 . S
Tb504 O511 2.312 . S
Tb504 O515 2.441 . S
Tb504 O516 2.506 . S
C505 O515 1.244 . S
C505 O516 1.265 . S
O506 Tb501 2.312 . S
O506 C513 1.253 . S
O507 Tb504 2.338 . S
O507 C508 1.258 . S
C508 O507 1.258 . S
C508 O509 1.251 . S
O509 C508 1.251 . S
O510 Tb501 2.271 . S
O510 C502 1.252 . S
O511 C502 1.253 . S
O511 Tb504 2.312 . S
O512 Tb501 2.338 . S
O512 C517 1.258 . S
C513 O503 1.252 . S
C513 O506 1.253 . S
C514 O500 1.265 . S
C514 O519 1.244 . S
O515 Tb504 2.441 . S
O515 C505 1.244 . S
O516 Tb504 2.506 . S
O516 C505 1.265 . S
C517 O512 1.258 . S
C517 O518 1.251 . S
O518 C517 1.251 . S
O519 Tb501 2.441 . S
O519 C514 1.244 . S
O520 Tb521 2.506 . S
O520 C534 1.265 . S
Tb521 O520 2.506 . S
Tb521 O526 2.312 . S
Tb521 O530 2.271 . S
Tb521 O532 2.338 . S
Tb521 O539 2.441 . S
C522 O530 1.252 . S
C522 O531 1.253 . S
O523 Tb524 2.271 . S
O523 C533 1.252 . S
Tb524 O523 2.271 . S
Tb524 O527 2.338 . S
Tb524 O531 2.312 . S
Tb524 O535 2.441 . S
Tb524 O536 2.506 . S
C525 O535 1.244 . S
C525 O536 1.265 . S
O526 Tb521 2.312 . S
O526 C533 1.253 . S
O527 Tb524 2.338 . S
O527 C528 1.258 . S
C528 O527 1.258 . S
C528 O529 1.251 . S
O529 C528 1.251 . S
O530 Tb521 2.271 . S
O530 C522 1.252 . S
O531 C522 1.253 . S
O531 Tb524 2.312 . S
O532 Tb521 2.338 . S
O532 C537 1.258 . S
C533 O523 1.252 . S
C533 O526 1.253 . S
C534 O520 1.265 . S
C534 O539 1.244 . S
O535 Tb524 2.441 . S
O535 C525 1.244 . S
O536 Tb524 2.506 . S
O536 C525 1.265 . S
C537 O532 1.258 . S
C537 O538 1.251 . S
O538 C537 1.251 . S
O539 Tb521 2.441 . S
O539 C534 1.244 . S
O540 Tb541 2.506 . S
O540 C554 1.265 . S
Tb541 O540 2.506 . S
Tb541 O546 2.312 . S
Tb541 O550 2.271 . S
Tb541 O552 2.338 . S
Tb541 O559 2.441 . S
C542 O550 1.252 . S
C542 O551 1.253 . S
O543 Tb544 2.271 . S
O543 C553 1.252 . S
Tb544 O543 2.271 . S
Tb544 O547 2.338 . S
Tb544 O551 2.312 . S
Tb544 O555 2.441 . S
Tb544 O556 2.506 . S
C545 O555 1.244 . S
C545 O556 1.265 . S
O546 Tb541 2.312 . S
O546 C553 1.253 . S
O547 Tb544 2.338 . S
O547 C548 1.258 . S
C548 O547 1.258 . S
C548 O549 1.251 . S
O549 C548 1.251 . S
O550 Tb541 2.271 . S
O550 C542 1.252 . S
O551 C542 1.253 . S
O551 Tb544 2.312 . S
O552 Tb541 2.338 . S
O552 C557 1.258 . S
C553 O543 1.252 . S
C553 O546 1.253 . S
C554 O540 1.265 . S
C554 O559 1.244 . S
O555 Tb544 2.441 . S
O555 C545 1.244 . S
O556 Tb544 2.506 . S
O556 C545 1.265 . S
C557 O552 1.258 . S
C557 O558 1.251 . S
O558 C557 1.251 . S
O559 Tb541 2.441 . S
O559 C554 1.244 . S
O560 Tb561 2.506 . S
O560 C574 1.265 . S
Tb561 O560 2.506 . S
Tb561 O566 2.312 . S
Tb561 O570 2.271 . S
Tb561 O572 2.338 . S
Tb561 O579 2.441 . S
C562 O570 1.252 . S
C562 O571 1.253 . S
O563 Tb564 2.271 . S
O563 C573 1.252 . S
Tb564 O563 2.271 . S
Tb564 O567 2.338 . S
Tb564 O571 2.312 1_455 S
Tb564 O575 2.441 . S
Tb564 O576 2.506 . S
C565 O575 1.244 . S
C565 O576 1.265 . S
O566 Tb561 2.312 . S
O566 C573 1.253 1_655 S
O567 Tb564 2.338 . S
O567 C568 1.258 . S
C568 O567 1.258 . S
C568 O569 1.251 . S
O569 C568 1.251 . S
O570 Tb561 2.271 . S
O570 C562 1.252 . S
O571 C562 1.253 . S
O571 Tb564 2.312 1_655 S
O572 Tb561 2.338 . S
O572 C577 1.258 . S
C573 O563 1.252 . S
C573 O566 1.253 1_455 S
C574 O560 1.265 . S
C574 O579 1.244 . S
O575 Tb564 2.441 . S
O575 C565 1.244 . S
O576 Tb564 2.506 . S
O576 C565 1.265 . S
C577 O572 1.258 . S
C577 O578 1.251 . S
O578 C577 1.251 . S
O579 Tb561 2.441 . S
O579 C574 1.244 . S
O580 Tb581 2.506 . S
O580 C594 1.265 . S
Tb581 O580 2.506 . S
Tb581 O586 2.312 . S
Tb581 O590 2.271 . S
Tb581 O592 2.338 . S
Tb581 O599 2.441 . S
C582 O590 1.252 . S
C582 O591 1.253 . S
O583 Tb584 2.271 . S
O583 C593 1.252 . S
Tb584 O583 2.271 . S
Tb584 O587 2.338 . S
Tb584 O591 2.312 . S
Tb584 O595 2.441 . S
Tb584 O596 2.506 . S
C585 O595 1.244 . S
C585 O596 1.265 . S
O586 Tb581 2.312 . S
O586 C593 1.253 . S
O587 Tb584 2.338 . S
O587 C588 1.258 . S
C588 O587 1.258 . S
C588 O589 1.251 . S
O589 C588 1.251 . S
O590 Tb581 2.271 . S
O590 C582 1.252 . S
O591 C582 1.253 . S
O591 Tb584 2.312 . S
O592 Tb581 2.338 . S
O592 C597 1.258 . S
C593 O583 1.252 . S
C593 O586 1.253 . S
C594 O580 1.265 . S
C594 O599 1.244 . S
O595 Tb584 2.441 . S
O595 C585 1.244 . S
O596 Tb584 2.506 . S
O596 C585 1.265 . S
C597 O592 1.258 . S
C597 O598 1.251 . S
O598 C597 1.251 . S
O599 Tb581 2.441 . S
O599 C594 1.244 . S
O600 Tb601 2.506 . S
O600 C614 1.265 . S
Tb601 O600 2.506 . S
Tb601 O606 2.312 . S
Tb601 O610 2.271 . S
Tb601 O612 2.338 . S
Tb601 O619 2.441 . S
C602 O610 1.252 . S
C602 O611 1.253 . S
O603 Tb604 2.271 . S
O603 C613 1.252 . S
Tb604 O603 2.271 . S
Tb604 O607 2.338 . S
Tb604 O611 2.312 . S
Tb604 O615 2.441 . S
Tb604 O616 2.506 . S
C605 O615 1.244 . S
C605 O616 1.265 . S
O606 Tb601 2.312 . S
O606 C613 1.253 . S
O607 Tb604 2.338 . S
O607 C608 1.258 . S
C608 O607 1.258 . S
C608 O609 1.251 . S
O609 C608 1.251 . S
O610 Tb601 2.271 . S
O610 C602 1.252 . S
O611 C602 1.253 . S
O611 Tb604 2.312 . S
O612 Tb601 2.338 . S
O612 C617 1.258 . S
C613 O603 1.252 . S
C613 O606 1.253 . S
C614 O600 1.265 . S
C614 O619 1.244 . S
O615 Tb604 2.441 . S
O615 C605 1.244 . S
O616 Tb604 2.506 . S
O616 C605 1.265 . S
C617 O612 1.258 . S
C617 O618 1.251 . S
O618 C617 1.251 . S
O619 Tb601 2.441 . S
O619 C614 1.244 . S
O620 Tb621 2.506 . S
O620 C634 1.265 . S
Tb621 O620 2.506 . S
Tb621 O626 2.312 . S
Tb621 O630 2.271 . S
Tb621 O632 2.338 . S
Tb621 O639 2.441 . S
C622 O630 1.252 . S
C622 O631 1.253 . S
O623 Tb624 2.271 . S
O623 C633 1.252 . S
Tb624 O623 2.271 . S
Tb624 O627 2.338 . S
Tb624 O631 2.312 . S
Tb624 O635 2.441 . S
Tb624 O636 2.506 . S
C625 O635 1.244 . S
C625 O636 1.265 . S
O626 Tb621 2.312 . S
O626 C633 1.253 . S
O627 Tb624 2.338 . S
O627 C628 1.258 . S
C628 O627 1.258 . S
C628 O629 1.251 . S
O629 C628 1.251 . S
O630 Tb621 2.271 . S
O630 C622 1.252 . S
O631 C622 1.253 . S
O631 Tb624 2.312 . S
O632 Tb621 2.338 . S
O632 C637 1.258 . S
C633 O623 1.252 . S
C633 O626 1.253 . S
C634 O620 1.265 . S
C634 O639 1.244 . S
O635 Tb624 2.441 . S
O635 C625 1.244 . S
O636 Tb624 2.506 . S
O636 C625 1.265 . S
C637 O632 1.258 . S
C637 O638 1.251 . S
O638 C637 1.251 . S
O639 Tb621 2.441 . S
O639 C634 1.244 . S
O640 Tb641 2.506 . S
O640 C654 1.265 . S
Tb641 O640 2.506 . S
Tb641 O646 2.312 . S
Tb641 O650 2.271 . S
Tb641 O652 2.338 . S
Tb641 O659 2.441 . S
C642 O650 1.252 . S
C642 O651 1.253 . S
O643 Tb644 2.271 . S
O643 C653 1.252 . S
Tb644 O643 2.271 . S
Tb644 O647 2.338 . S
Tb644 O651 2.312 1_545 S
Tb644 O655 2.441 . S
Tb644 O656 2.506 . S
C645 O655 1.244 . S
C645 O656 1.265 . S
O646 Tb641 2.312 . S
O646 C653 1.253 1_565 S
O647 Tb644 2.338 . S
O647 C648 1.258 . S
C648 O647 1.258 . S
C648 O649 1.251 . S
O649 C648 1.251 . S
O650 Tb641 2.271 . S
O650 C642 1.252 . S
O651 C642 1.253 . S
O651 Tb644 2.312 1_565 S
O652 Tb641 2.338 . S
O652 C657 1.258 . S
C653 O643 1.252 . S
C653 O646 1.253 1_545 S
C654 O640 1.265 . S
C654 O659 1.244 . S
O655 Tb644 2.441 . S
O655 C645 1.244 . S
O656 Tb644 2.506 . S
O656 C645 1.265 . S
C657 O652 1.258 . S
C657 O658 1.251 . S
O658 C657 1.251 . S
O659 Tb641 2.441 . S
O659 C654 1.244 . S
O660 Tb661 2.506 . S
O660 C674 1.265 . S
Tb661 O660 2.506 . S
Tb661 O666 2.312 . S
Tb661 O670 2.271 . S
Tb661 O672 2.338 . S
Tb661 O679 2.441 . S
C662 O670 1.252 . S
C662 O671 1.253 . S
O663 Tb664 2.271 . S
O663 C673 1.252 . S
Tb664 O663 2.271 . S
Tb664 O667 2.338 . S
Tb664 O671 2.312 . S
Tb664 O675 2.441 . S
Tb664 O676 2.506 . S
C665 O675 1.244 . S
C665 O676 1.265 . S
O666 Tb661 2.312 . S
O666 C673 1.253 . S
O667 Tb664 2.338 . S
O667 C668 1.258 . S
C668 O667 1.258 . S
C668 O669 1.251 . S
O669 C668 1.251 . S
O670 Tb661 2.271 . S
O670 C662 1.252 . S
O671 C662 1.253 . S
O671 Tb664 2.312 . S
O672 Tb661 2.338 . S
O672 C677 1.258 . S
C673 O663 1.252 . S
C673 O666 1.253 . S
C674 O660 1.265 . S
C674 O679 1.244 . S
O675 Tb664 2.441 . S
O675 C665 1.244 . S
O676 Tb664 2.506 . S
O676 C665 1.265 . S
C677 O672 1.258 . S
C677 O678 1.251 . S
O678 C677 1.251 . S
O679 Tb661 2.441 . S
O679 C674 1.244 . S
O680 Tb681 2.506 . S
O680 C694 1.265 . S
Tb681 O680 2.506 . S
Tb681 O686 2.312 . S
Tb681 O690 2.271 . S
Tb681 O692 2.338 . S
Tb681 O699 2.441 . S
C682 O690 1.252 . S
C682 O691 1.253 . S
O683 Tb684 2.271 . S
O683 C693 1.252 . S
Tb684 O683 2.271 . S
Tb684 O687 2.338 . S
Tb684 O691 2.312 1_565 S
Tb684 O695 2.441 . S
Tb684 O696 2.506 . S
C685 O695 1.244 . S
C685 O696 1.265 . S
O686 Tb681 2.312 . S
O686 C693 1.253 1_545 S
O687 Tb684 2.338 . S
O687 C688 1.258 . S
C688 O687 1.258 . S
C688 O689 1.251 . S
O689 C688 1.251 . S
O690 Tb681 2.271 . S
O690 C682 1.252 . S
O691 C682 1.253 . S
O691 Tb684 2.312 1_545 S
O692 Tb681 2.338 . S
O692 C697 1.258 . S
C693 O683 1.252 . S
C693 O686 1.253 1_565 S
C694 O680 1.265 . S
C694 O699 1.244 . S
O695 Tb684 2.441 . S
O695 C685 1.244 . S
O696 Tb684 2.506 . S
O696 C685 1.265 . S
C697 O692 1.258 . S
C697 O698 1.251 . S
O698 C697 1.251 . S
O699 Tb681 2.441 . S
O699 C694 1.244 . S
O700 Tb701 2.506 . S
O700 C714 1.265 . S
Tb701 O700 2.506 . S
Tb701 O706 2.312 . S
Tb701 O710 2.271 . S
Tb701 O712 2.338 . S
Tb701 O719 2.441 . S
C702 O710 1.252 . S
C702 O711 1.253 . S
O703 Tb704 2.271 . S
O703 C713 1.252 . S
Tb704 O703 2.271 . S
Tb704 O707 2.338 . S
Tb704 O711 2.312 . S
Tb704 O715 2.441 . S
Tb704 O716 2.506 . S
C705 O715 1.244 . S
C705 O716 1.265 . S
O706 Tb701 2.312 . S
O706 C713 1.253 . S
O707 Tb704 2.338 . S
O707 C708 1.258 . S
C708 O707 1.258 . S
C708 O709 1.251 . S
O709 C708 1.251 . S
O710 Tb701 2.271 . S
O710 C702 1.252 . S
O711 C702 1.253 . S
O711 Tb704 2.312 . S
O712 Tb701 2.338 . S
O712 C717 1.258 . S
C713 O703 1.252 . S
C713 O706 1.253 . S
C714 O700 1.265 . S
C714 O719 1.244 . S
O715 Tb704 2.441 . S
O715 C705 1.244 . S
O716 Tb704 2.506 . S
O716 C705 1.265 . S
C717 O712 1.258 . S
C717 O718 1.251 . S
O718 C717 1.251 . S
O719 Tb701 2.441 . S
O719 C714 1.244 . S
O720 Tb721 2.506 . S
O720 C734 1.265 . S
Tb721 O720 2.506 . S
Tb721 O726 2.312 . S
Tb721 O730 2.271 . S
Tb721 O732 2.338 . S
Tb721 O739 2.441 . S
C722 O730 1.252 . S
C722 O731 1.253 . S
O723 Tb724 2.271 . S
O723 C733 1.252 . S
Tb724 O723 2.271 . S
Tb724 O727 2.338 . S
Tb724 O731 2.312 1_565 S
Tb724 O735 2.441 . S
Tb724 O736 2.506 . S
C725 O735 1.244 . S
C725 O736 1.265 . S
O726 Tb721 2.312 . S
O726 C733 1.253 1_545 S
O727 Tb724 2.338 . S
O727 C728 1.258 . S
C728 O727 1.258 . S
C728 O729 1.251 . S
O729 C728 1.251 . S
O730 Tb721 2.271 . S
O730 C722 1.252 . S
O731 C722 1.253 . S
O731 Tb724 2.312 1_545 S
O732 Tb721 2.338 . S
O732 C737 1.258 . S
C733 O723 1.252 . S
C733 O726 1.253 1_565 S
C734 O720 1.265 . S
C734 O739 1.244 . S
O735 Tb724 2.441 . S
O735 C725 1.244 . S
O736 Tb724 2.506 . S
O736 C725 1.265 . S
C737 O732 1.258 . S
C737 O738 1.251 . S
O738 C737 1.251 . S
O739 Tb721 2.441 . S
O739 C734 1.244 . S
O740 Tb741 2.506 . S
O740 C754 1.265 . S
Tb741 O740 2.506 . S
Tb741 O746 2.312 . S
Tb741 O750 2.271 . S
Tb741 O752 2.338 . S
Tb741 O759 2.441 . S
C742 O750 1.252 . S
C742 O751 1.253 . S
O743 Tb744 2.271 . S
O743 C753 1.252 . S
Tb744 O743 2.271 . S
Tb744 O747 2.338 . S
Tb744 O751 2.312 . S
Tb744 O755 2.441 . S
Tb744 O756 2.506 . S
C745 O755 1.244 . S
C745 O756 1.265 . S
O746 Tb741 2.312 . S
O746 C753 1.253 . S
O747 Tb744 2.338 . S
O747 C748 1.258 . S
C748 O747 1.258 . S
C748 O749 1.251 . S
O749 C748 1.251 . S
O750 Tb741 2.271 . S
O750 C742 1.252 . S
O751 C742 1.253 . S
O751 Tb744 2.312 . S
O752 Tb741 2.338 . S
O752 C757 1.258 . S
C753 O743 1.252 . S
C753 O746 1.253 . S
C754 O740 1.265 . S
C754 O759 1.244 . S
O755 Tb744 2.441 . S
O755 C745 1.244 . S
O756 Tb744 2.506 . S
O756 C745 1.265 . S
C757 O752 1.258 . S
C757 O758 1.251 . S
O758 C757 1.251 . S
O759 Tb741 2.441 . S
O759 C754 1.244 . S
O760 Tb761 2.506 . S
O760 C774 1.265 . S
Tb761 O760 2.506 . S
Tb761 O766 2.312 . S
Tb761 O770 2.271 . S
Tb761 O772 2.338 . S
Tb761 O779 2.441 . S
C762 O770 1.252 . S
C762 O771 1.253 . S
O763 Tb764 2.271 . S
O763 C773 1.252 . S
Tb764 O763 2.271 . S
Tb764 O767 2.338 . S
Tb764 O771 2.312 1_545 S
Tb764 O775 2.441 . S
Tb764 O776 2.506 . S
C765 O775 1.244 . S
C765 O776 1.265 . S
O766 Tb761 2.312 . S
O766 C773 1.253 1_565 S
O767 Tb764 2.338 . S
O767 C768 1.258 . S
C768 O767 1.258 . S
C768 O769 1.251 . S
O769 C768 1.251 . S
O770 Tb761 2.271 . S
O770 C762 1.252 . S
O771 C762 1.253 . S
O771 Tb764 2.312 1_565 S
O772 Tb761 2.338 . S
O772 C777 1.258 . S
C773 O763 1.252 . S
C773 O766 1.253 1_545 S
C774 O760 1.265 . S
C774 O779 1.244 . S
O775 Tb764 2.441 . S
O775 C765 1.244 . S
O776 Tb764 2.506 . S
O776 C765 1.265 . S
C777 O772 1.258 . S
C777 O778 1.251 . S
O778 C777 1.251 . S
O779 Tb761 2.441 . S
O779 C774 1.244 . S
O780 Tb781 2.506 . S
O780 C794 1.265 . S
Tb781 O780 2.506 . S
Tb781 O786 2.312 . S
Tb781 O790 2.271 . S
Tb781 O792 2.338 . S
Tb781 O799 2.441 . S
C782 O790 1.252 . S
C782 O791 1.253 . S
O783 Tb784 2.271 . S
O783 C793 1.252 . S
Tb784 O783 2.271 . S
Tb784 O787 2.338 . S
Tb784 O791 2.312 . S
Tb784 O795 2.441 . S
Tb784 O796 2.506 . S
C785 O795 1.244 . S
C785 O796 1.265 . S
O786 Tb781 2.312 . S
O786 C793 1.253 . S
O787 Tb784 2.338 . S
O787 C788 1.258 . S
C788 O787 1.258 . S
C788 O789 1.251 . S
O789 C788 1.251 . S
O790 Tb781 2.271 . S
O790 C782 1.252 . S
O791 C782 1.253 . S
O791 Tb784 2.312 . S
O792 Tb781 2.338 . S
O792 C797 1.258 . S
C793 O783 1.252 . S
C793 O786 1.253 . S
C794 O780 1.265 . S
C794 O799 1.244 . S
O795 Tb784 2.441 . S
O795 C785 1.244 . S
O796 Tb784 2.506 . S
O796 C785 1.265 . S
C797 O792 1.258 . S
C797 O798 1.251 . S
O798 C797 1.251 . S
O799 Tb781 2.441 . S
O799 C794 1.244 . S
O800 Tb801 2.506 . S
O800 C814 1.265 . S
Tb801 O800 2.506 . S
Tb801 O806 2.312 . S
Tb801 O810 2.271 . S
Tb801 O812 2.338 . S
Tb801 O819 2.441 . S
C802 O810 1.252 . S
C802 O811 1.253 . S
O803 Tb804 2.271 . S
O803 C813 1.252 . S
Tb804 O803 2.271 . S
Tb804 O807 2.338 . S
Tb804 O811 2.312 1_554 S
Tb804 O815 2.441 . S
Tb804 O816 2.506 . S
C805 O815 1.244 . S
C805 O816 1.265 . S
O806 Tb801 2.312 . S
O806 C813 1.253 1_556 S
O807 Tb804 2.338 . S
O807 C808 1.258 . S
C808 O807 1.258 . S
C808 O809 1.251 . S
O809 C808 1.251 . S
O810 Tb801 2.271 . S
O810 C802 1.252 . S
O811 C802 1.253 . S
O811 Tb804 2.312 1_556 S
O812 Tb801 2.338 . S
O812 C817 1.258 . S
C813 O803 1.252 . S
C813 O806 1.253 1_554 S
C814 O800 1.265 . S
C814 O819 1.244 . S
O815 Tb804 2.441 . S
O815 C805 1.244 . S
O816 Tb804 2.506 . S
O816 C805 1.265 . S
C817 O812 1.258 . S
C817 O818 1.251 . S
O818 C817 1.251 . S
O819 Tb801 2.441 . S
O819 C814 1.244 . S
O820 Tb821 2.506 . S
O820 C834 1.265 . S
Tb821 O820 2.506 . S
Tb821 O826 2.312 . S
Tb821 O830 2.271 . S
Tb821 O832 2.338 . S
Tb821 O839 2.441 . S
C822 O830 1.252 . S
C822 O831 1.253 . S
O823 Tb824 2.271 . S
O823 C833 1.252 . S
Tb824 O823 2.271 . S
Tb824 O827 2.338 . S
Tb824 O831 2.312 1_556 S
Tb824 O835 2.441 . S
Tb824 O836 2.506 . S
C825 O835 1.244 . S
C825 O836 1.265 . S
O826 Tb821 2.312 . S
O826 C833 1.253 1_554 S
O827 Tb824 2.338 . S
O827 C828 1.258 . S
C828 O827 1.258 . S
C828 O829 1.251 . S
O829 C828 1.251 . S
O830 Tb821 2.271 . S
O830 C822 1.252 . S
O831 C822 1.253 . S
O831 Tb824 2.312 1_554 S
O832 Tb821 2.338 . S
O832 C837 1.258 . S
C833 O823 1.252 . S
C833 O826 1.253 1_556 S
C834 O820 1.265 . S
C834 O839 1.244 . S
O835 Tb824 2.441 . S
O835 C825 1.244 . S
O836 Tb824 2.506 . S
O836 C825 1.265 . S
C837 O832 1.258 . S
C837 O838 1.251 . S
O838 C837 1.251 . S
O839 Tb821 2.441 . S
O839 C834 1.244 . S
O840 Tb841 2.506 . S
O840 C854 1.265 . S
Tb841 O840 2.506 . S
Tb841 O846 2.312 . S
Tb841 O850 2.271 . S
Tb841 O852 2.338 . S
Tb841 O859 2.441 . S
C842 O850 1.252 . S
C842 O851 1.253 . S
O843 Tb844 2.271 . S
O843 C853 1.252 . S
Tb844 O843 2.271 . S
Tb844 O847 2.338 . S
Tb844 O851 2.312 . S
Tb844 O855 2.441 . S
Tb844 O856 2.506 . S
C845 O855 1.244 . S
C845 O856 1.265 . S
O846 Tb841 2.312 . S
O846 C853 1.253 . S
O847 Tb844 2.338 . S
O847 C848 1.258 . S
C848 O847 1.258 . S
C848 O849 1.251 . S
O849 C848 1.251 . S
O850 Tb841 2.271 . S
O850 C842 1.252 . S
O851 C842 1.253 . S
O851 Tb844 2.312 . S
O852 Tb841 2.338 . S
O852 C857 1.258 . S
C853 O843 1.252 . S
C853 O846 1.253 . S
C854 O840 1.265 . S
C854 O859 1.244 . S
O855 Tb844 2.441 . S
O855 C845 1.244 . S
O856 Tb844 2.506 . S
O856 C845 1.265 . S
C857 O852 1.258 . S
C857 O858 1.251 . S
O858 C857 1.251 . S
O859 Tb841 2.441 . S
O859 C854 1.244 . S
O860 Tb861 2.506 . S
O860 C874 1.265 . S
Tb861 O860 2.506 . S
Tb861 O866 2.312 . S
Tb861 O870 2.271 . S
Tb861 O872 2.338 . S
Tb861 O879 2.441 . S
C862 O870 1.252 . S
C862 O871 1.253 . S
O863 Tb864 2.271 . S
O863 C873 1.252 . S
Tb864 O863 2.271 . S
Tb864 O867 2.338 . S
Tb864 O871 2.312 . S
Tb864 O875 2.441 . S
Tb864 O876 2.506 . S
C865 O875 1.244 . S
C865 O876 1.265 . S
O866 Tb861 2.312 . S
O866 C873 1.253 . S
O867 Tb864 2.338 . S
O867 C868 1.258 . S
C868 O867 1.258 . S
C868 O869 1.251 . S
O869 C868 1.251 . S
O870 Tb861 2.271 . S
O870 C862 1.252 . S
O871 C862 1.253 . S
O871 Tb864 2.312 . S
O872 Tb861 2.338 . S
O872 C877 1.258 . S
C873 O863 1.252 . S
C873 O866 1.253 . S
C874 O860 1.265 . S
C874 O879 1.244 . S
O875 Tb864 2.441 . S
O875 C865 1.244 . S
O876 Tb864 2.506 . S
O876 C865 1.265 . S
C877 O872 1.258 . S
C877 O878 1.251 . S
O878 C877 1.251 . S
O879 Tb861 2.441 . S
O879 C874 1.244 . S
O880 Tb881 2.506 . S
O880 C894 1.265 . S
Tb881 O880 2.506 . S
Tb881 O886 2.312 . S
Tb881 O890 2.271 . S
Tb881 O892 2.338 . S
Tb881 O899 2.441 . S
C882 O890 1.252 . S
C882 O891 1.253 . S
O883 Tb884 2.271 . S
O883 C893 1.252 . S
Tb884 O883 2.271 . S
Tb884 O887 2.338 . S
Tb884 O891 2.312 . S
Tb884 O895 2.441 . S
Tb884 O896 2.506 . S
C885 O895 1.244 . S
C885 O896 1.265 . S
O886 Tb881 2.312 . S
O886 C893 1.253 . S
O887 Tb884 2.338 . S
O887 C888 1.258 . S
C888 O887 1.258 . S
C888 O889 1.251 . S
O889 C888 1.251 . S
O890 Tb881 2.271 . S
O890 C882 1.252 . S
O891 C882 1.253 . S
O891 Tb884 2.312 . S
O892 Tb881 2.338 . S
O892 C897 1.258 . S
C893 O883 1.252 . S
C893 O886 1.253 . S
C894 O880 1.265 . S
C894 O899 1.244 . S
O895 Tb884 2.441 . S
O895 C885 1.244 . S
O896 Tb884 2.506 . S
O896 C885 1.265 . S
C897 O892 1.258 . S
C897 O898 1.251 . S
O898 C897 1.251 . S
O899 Tb881 2.441 . S
O899 C894 1.244 . S
O900 Tb901 2.506 . S
O900 C914 1.265 . S
Tb901 O900 2.506 . S
Tb901 O906 2.312 . S
Tb901 O910 2.271 . S
Tb901 O912 2.338 . S
Tb901 O919 2.441 . S
C902 O910 1.252 . S
C902 O911 1.253 . S
O903 Tb904 2.271 . S
O903 C913 1.252 . S
Tb904 O903 2.271 . S
Tb904 O907 2.338 . S
Tb904 O911 2.312 . S
Tb904 O915 2.441 . S
Tb904 O916 2.506 . S
C905 O915 1.244 . S
C905 O916 1.265 . S
O906 Tb901 2.312 . S
O906 C913 1.253 . S
O907 Tb904 2.338 . S
O907 C908 1.258 . S
C908 O907 1.258 . S
C908 O909 1.251 . S
O909 C908 1.251 . S
O910 Tb901 2.271 . S
O910 C902 1.252 . S
O911 C902 1.253 . S
O911 Tb904 2.312 . S
O912 Tb901 2.338 . S
O912 C917 1.258 . S
C913 O903 1.252 . S
C913 O906 1.253 . S
C914 O900 1.265 . S
C914 O919 1.244 . S
O915 Tb904 2.441 . S
O915 C905 1.244 . S
O916 Tb904 2.506 . S
O916 C905 1.265 . S
C917 O912 1.258 . S
C917 O918 1.251 . S
O918 C917 1.251 . S
O919 Tb901 2.441 . S
O919 C914 1.244 . S
O920 Tb921 2.506 . S
O920 C934 1.265 . S
Tb921 O920 2.506 . S
Tb921 O926 2.312 . S
Tb921 O930 2.271 . S
Tb921 O932 2.338 . S
Tb921 O939 2.441 . S
C922 O930 1.252 . S
C922 O931 1.253 . S
O923 Tb924 2.271 . S
O923 C933 1.252 . S
Tb924 O923 2.271 . S
Tb924 O927 2.338 . S
Tb924 O931 2.312 . S
Tb924 O935 2.441 . S
Tb924 O936 2.506 . S
C925 O935 1.244 . S
C925 O936 1.265 . S
O926 Tb921 2.312 . S
O926 C933 1.253 . S
O927 Tb924 2.338 . S
O927 C928 1.258 . S
C928 O927 1.258 . S
C928 O929 1.251 . S
O929 C928 1.251 . S
O930 Tb921 2.271 . S
O930 C922 1.252 . S
O931 C922 1.253 . S
O931 Tb924 2.312 . S
O932 Tb921 2.338 . S
O932 C937 1.258 . S
C933 O923 1.252 . S
C933 O926 1.253 . S
C934 O920 1.265 . S
C934 O939 1.244 . S
O935 Tb924 2.441 . S
O935 C925 1.244 . S
O936 Tb924 2.506 . S
O936 C925 1.265 . S
C937 O932 1.258 . S
C937 O938 1.251 . S
O938 C937 1.251 . S
O939 Tb921 2.441 . S
O939 C934 1.244 . S
O940 Tb941 2.506 . S
O940 C954 1.265 . S
Tb941 O940 2.506 . S
Tb941 O946 2.312 . S
Tb941 O950 2.271 . S
Tb941 O952 2.338 . S
Tb941 O959 2.441 . S
C942 O950 1.252 . S
C942 O951 1.253 . S
O943 Tb944 2.271 . S
O943 C953 1.252 . S
Tb944 O943 2.271 . S
Tb944 O947 2.338 . S
Tb944 O951 2.312 . S
Tb944 O955 2.441 . S
Tb944 O956 2.506 . S
C945 O955 1.244 . S
C945 O956 1.265 . S
O946 Tb941 2.312 . S
O946 C953 1.253 . S
O947 Tb944 2.338 . S
O947 C948 1.258 . S
C948 O947 1.258 . S
C948 O949 1.251 . S
O949 C948 1.251 . S
O950 Tb941 2.271 . S
O950 C942 1.252 . S
O951 C942 1.253 . S
O951 Tb944 2.312 . S
O952 Tb941 2.338 . S
O952 C957 1.258 . S
C953 O943 1.252 . S
C953 O946 1.253 . S
C954 O940 1.265 . S
C954 O959 1.244 . S
O955 Tb944 2.441 . S
O955 C945 1.244 . S
O956 Tb944 2.506 . S
O956 C945 1.265 . S
C957 O952 1.258 . S
C957 O958 1.251 . S
O958 C957 1.251 . S
O959 Tb941 2.441 . S
O959 C954 1.244 . S
O960 Tb961 2.506 . S
O960 C974 1.265 . S
Tb961 O960 2.506 . S
Tb961 O966 2.312 . S
Tb961 O970 2.271 . S
Tb961 O972 2.338 . S
Tb961 O979 2.441 . S
C962 O970 1.252 . S
C962 O971 1.253 . S
O963 Tb964 2.271 . S
O963 C973 1.252 . S
Tb964 O963 2.271 . S
Tb964 O967 2.338 . S
Tb964 O971 2.312 . S
Tb964 O975 2.441 . S
Tb964 O976 2.506 . S
C965 O975 1.244 . S
C965 O976 1.265 . S
O966 Tb961 2.312 . S
O966 C973 1.253 . S
O967 Tb964 2.338 . S
O967 C968 1.258 . S
C968 O967 1.258 . S
C968 O969 1.251 . S
O969 C968 1.251 . S
O970 Tb961 2.271 . S
O970 C962 1.252 . S
O971 C962 1.253 . S
O971 Tb964 2.312 . S
O972 Tb961 2.338 . S
O972 C977 1.258 . S
C973 O963 1.252 . S
C973 O966 1.253 . S
C974 O960 1.265 . S
C974 O979 1.244 . S
O975 Tb964 2.441 . S
O975 C965 1.244 . S
O976 Tb964 2.506 . S
O976 C965 1.265 . S
C977 O972 1.258 . S
C977 O978 1.251 . S
O978 C977 1.251 . S
O979 Tb961 2.441 . S
O979 C974 1.244 . S
O980 Tb981 2.506 . S
O980 C994 1.265 . S
Tb981 O980 2.506 . S
Tb981 O986 2.312 . S
Tb981 O990 2.271 . S
Tb981 O992 2.338 . S
Tb981 O999 2.441 . S
C982 O990 1.252 . S
C982 O991 1.253 . S
O983 Tb984 2.271 . S
O983 C993 1.252 . S
Tb984 O983 2.271 . S
Tb984 O987 2.338 . S
Tb984 O991 2.312 . S
Tb984 O995 2.441 . S
Tb984 O996 2.506 . S
C985 O995 1.244 . S
C985 O996 1.265 . S
O986 Tb981 2.312 . S
O986 C993 1.253 . S
O987 Tb984 2.338 . S
O987 C988 1.258 . S
C988 O987 1.258 . S
C988 O989 1.251 . S
O989 C988 1.251 . S
O990 Tb981 2.271 . S
O990 C982 1.252 . S
O991 C982 1.253 . S
O991 Tb984 2.312 . S
O992 Tb981 2.338 . S
O992 C997 1.258 . S
C993 O983 1.252 . S
C993 O986 1.253 . S
C994 O980 1.265 . S
C994 O999 1.244 . S
O995 Tb984 2.441 . S
O995 C985 1.244 . S
O996 Tb984 2.506 . S
O996 C985 1.265 . S
C997 O992 1.258 . S
C997 O998 1.251 . S
O998 C997 1.251 . S
O999 Tb981 2.441 . S
O999 C994 1.244 . S
O1000 Tb1001 2.506 . S
O1000 C1014 1.265 . S
Tb1001 O1000 2.506 . S
Tb1001 O1006 2.312 . S
Tb1001 O1010 2.271 . S
Tb1001 O1012 2.338 . S
Tb1001 O1019 2.441 . S
C1002 O1010 1.252 . S
C1002 O1011 1.253 . S
O1003 Tb1004 2.271 . S
O1003 C1013 1.252 . S
Tb1004 O1003 2.271 . S
Tb1004 O1007 2.338 . S
Tb1004 O1011 2.312 1_455 S
Tb1004 O1015 2.441 . S
Tb1004 O1016 2.506 . S
C1005 O1015 1.244 . S
C1005 O1016 1.265 . S
O1006 Tb1001 2.312 . S
O1006 C1013 1.253 1_655 S
O1007 Tb1004 2.338 . S
O1007 C1008 1.258 . S
C1008 O1007 1.258 . S
C1008 O1009 1.251 . S
O1009 C1008 1.251 . S
O1010 Tb1001 2.271 . S
O1010 C1002 1.252 . S
O1011 C1002 1.253 . S
O1011 Tb1004 2.312 1_655 S
O1012 Tb1001 2.338 . S
O1012 C1017 1.258 . S
C1013 O1003 1.252 . S
C1013 O1006 1.253 1_455 S
C1014 O1000 1.265 . S
C1014 O1019 1.244 . S
O1015 Tb1004 2.441 . S
O1015 C1005 1.244 . S
O1016 Tb1004 2.506 . S
O1016 C1005 1.265 . S
C1017 O1012 1.258 . S
C1017 O1018 1.251 . S
O1018 C1017 1.251 . S
O1019 Tb1001 2.441 . S
O1019 C1014 1.244 . S
O1020 Tb1021 2.506 . S
O1020 C1034 1.265 . S
Tb1021 O1020 2.506 . S
Tb1021 O1026 2.312 . S
Tb1021 O1030 2.271 . S
Tb1021 O1032 2.338 . S
Tb1021 O1039 2.441 . S
C1022 O1030 1.252 . S
C1022 O1031 1.253 . S
O1023 Tb1024 2.271 . S
O1023 C1033 1.252 . S
Tb1024 O1023 2.271 . S
Tb1024 O1027 2.338 . S
Tb1024 O1031 2.312 . S
Tb1024 O1035 2.441 . S
Tb1024 O1036 2.506 . S
C1025 O1035 1.244 . S
C1025 O1036 1.265 . S
O1026 Tb1021 2.312 . S
O1026 C1033 1.253 . S
O1027 Tb1024 2.338 . S
O1027 C1028 1.258 . S
C1028 O1027 1.258 . S
C1028 O1029 1.251 . S
O1029 C1028 1.251 . S
O1030 Tb1021 2.271 . S
O1030 C1022 1.252 . S
O1031 C1022 1.253 . S
O1031 Tb1024 2.312 . S
O1032 Tb1021 2.338 . S
O1032 C1037 1.258 . S
C1033 O1023 1.252 . S
C1033 O1026 1.253 . S
C1034 O1020 1.265 . S
C1034 O1039 1.244 . S
O1035 Tb1024 2.441 . S
O1035 C1025 1.244 . S
O1036 Tb1024 2.506 . S
O1036 C1025 1.265 . S
C1037 O1032 1.258 . S
C1037 O1038 1.251 . S
O1038 C1037 1.251 . S
O1039 Tb1021 2.441 . S
O1039 C1034 1.244 . S
O1040 Tb1041 2.506 . S
O1040 C1054 1.265 . S
Tb1041 O1040 2.506 . S
Tb1041 O1046 2.312 . S
Tb1041 O1050 2.271 . S
Tb1041 O1052 2.338 . S
Tb1041 O1059 2.441 . S
C1042 O1050 1.252 . S
C1042 O1051 1.253 . S
O1043 Tb1044 2.271 . S
O1043 C1053 1.252 . S
Tb1044 O1043 2.271 . S
Tb1044 O1047 2.338 . S
Tb1044 O1051 2.312 . S
Tb1044 O1055 2.441 . S
Tb1044 O1056 2.506 . S
C1045 O1055 1.244 . S
C1045 O1056 1.265 . S
O1046 Tb1041 2.312 . S
O1046 C1053 1.253 . S
O1047 Tb1044 2.338 . S
O1047 C1048 1.258 . S
C1048 O1047 1.258 . S
C1048 O1049 1.251 . S
O1049 C1048 1.251 . S
O1050 Tb1041 2.271 . S
O1050 C1042 1.252 . S
O1051 C1042 1.253 . S
O1051 Tb1044 2.312 . S
O1052 Tb1041 2.338 . S
O1052 C1057 1.258 . S
C1053 O1043 1.252 . S
C1053 O1046 1.253 . S
C1054 O1040 1.265 . S
C1054 O1059 1.244 . S
O1055 Tb1044 2.441 . S
O1055 C1045 1.244 . S
O1056 Tb1044 2.506 . S
O1056 C1045 1.265 . S
C1057 O1052 1.258 . S
C1057 O1058 1.251 . S
O1058 C1057 1.251 . S
O1059 Tb1041 2.441 . S
O1059 C1054 1.244 . S
O1060 Tb1061 2.506 . S
O1060 C1074 1.265 . S
Tb1061 O1060 2.506 . S
Tb1061 O1066 2.312 . S
Tb1061 O1070 2.271 . S
Tb1061 O1072 2.338 . S
Tb1061 O1079 2.441 . S
C1062 O1070 1.252 . S
C1062 O1071 1.253 . S
O1063 Tb1064 2.271 . S
O1063 C1073 1.252 . S
Tb1064 O1063 2.271 . S
Tb1064 O1067 2.338 . S
Tb1064 O1071 2.312 . S
Tb1064 O1075 2.441 . S
Tb1064 O1076 2.506 . S
C1065 O1075 1.244 . S
C1065 O1076 1.265 . S
O1066 Tb1061 2.312 . S
O1066 C1073 1.253 . S
O1067 Tb1064 2.338 . S
O1067 C1068 1.258 . S
C1068 O1067 1.258 . S
C1068 O1069 1.251 . S
O1069 C1068 1.251 . S
O1070 Tb1061 2.271 . S
O1070 C1062 1.252 . S
O1071 C1062 1.253 . S
O1071 Tb1064 2.312 . S
O1072 Tb1061 2.338 . S
O1072 C1077 1.258 . S
C1073 O1063 1.252 . S
C1073 O1066 1.253 . S
C1074 O1060 1.265 . S
C1074 O1079 1.244 . S
O1075 Tb1064 2.441 . S
O1075 C1065 1.244 . S
O1076 Tb1064 2.506 . S
O1076 C1065 1.265 . S
C1077 O1072 1.258 . S
C1077 O1078 1.251 . S
O1078 C1077 1.251 . S
O1079 Tb1061 2.441 . S
O1079 C1074 1.244 . S
O1080 Tb1081 2.506 . S
O1080 C1094 1.265 . S
Tb1081 O1080 2.506 . S
Tb1081 O1086 2.312 1_455 S
Tb1081 O1090 2.271 . S
Tb1081 O1092 2.338 . S
Tb1081 O1099 2.441 . S
C1082 O1090 1.252 . S
C1082 O1091 1.253 1_455 S
O1083 Tb1084 2.271 . S
O1083 C1093 1.252 . S
Tb1084 O1083 2.271 . S
Tb1084 O1087 2.338 . S
Tb1084 O1091 2.312 . S
Tb1084 O1095 2.441 . S
Tb1084 O1096 2.506 . S
C1085 O1095 1.244 . S
C1085 O1096 1.265 . S
O1086 Tb1081 2.312 1_655 S
O1086 C1093 1.253 . S
O1087 Tb1084 2.338 . S
O1087 C1088 1.258 . S
C1088 O1087 1.258 . S
C1088 O1089 1.251 . S
O1089 C1088 1.251 . S
O1090 Tb1081 2.271 . S
O1090 C1082 1.252 . S
O1091 C1082 1.253 1_655 S
O1091 Tb1084 2.312 . S
O1092 Tb1081 2.338 . S
O1092 C1097 1.258 . S
C1093 O1083 1.252 . S
C1093 O1086 1.253 . S
C1094 O1080 1.265 . S
C1094 O1099 1.244 . S
O1095 Tb1084 2.441 . S
O1095 C1085 1.244 . S
O1096 Tb1084 2.506 . S
O1096 C1085 1.265 . S
C1097 O1092 1.258 . S
C1097 O1098 1.251 . S
O1098 C1097 1.251 . S
O1099 Tb1081 2.441 . S
O1099 C1094 1.244 . S
O1100 Tb1101 2.506 . S
O1100 C1114 1.265 . S
Tb1101 O1100 2.506 . S
Tb1101 O1106 2.312 . S
Tb1101 O1110 2.271 . S
Tb1101 O1112 2.338 . S
Tb1101 O1119 2.441 . S
C1102 O1110 1.252 . S
C1102 O1111 1.253 . S
O1103 Tb1104 2.271 . S
O1103 C1113 1.252 . S
Tb1104 O1103 2.271 . S
Tb1104 O1107 2.338 . S
Tb1104 O1111 2.312 . S
Tb1104 O1115 2.441 . S
Tb1104 O1116 2.506 . S
C1105 O1115 1.244 . S
C1105 O1116 1.265 . S
O1106 Tb1101 2.312 . S
O1106 C1113 1.253 . S
O1107 Tb1104 2.338 . S
O1107 C1108 1.258 . S
C1108 O1107 1.258 . S
C1108 O1109 1.251 . S
O1109 C1108 1.251 . S
O1110 Tb1101 2.271 . S
O1110 C1102 1.252 . S
O1111 C1102 1.253 . S
O1111 Tb1104 2.312 . S
O1112 Tb1101 2.338 . S
O1112 C1117 1.258 . S
C1113 O1103 1.252 . S
C1113 O1106 1.253 . S
C1114 O1100 1.265 . S
C1114 O1119 1.244 . S
O1115 Tb1104 2.441 . S
O1115 C1105 1.244 . S
O1116 Tb1104 2.506 . S
O1116 C1105 1.265 . S
C1117 O1112 1.258 . S
C1117 O1118 1.251 . S
O1118 C1117 1.251 . S
O1119 Tb1101 2.441 . S
O1119 C1114 1.244 . S
O1120 Tb1121 2.506 . S
O1120 C1134 1.265 . S
Tb1121 O1120 2.506 . S
Tb1121 O1126 2.312 . S
Tb1121 O1130 2.271 . S
Tb1121 O1132 2.338 . S
Tb1121 O1139 2.441 . S
C1122 O1130 1.252 . S
C1122 O1131 1.253 . S
O1123 Tb1124 2.271 . S
O1123 C1133 1.252 . S
Tb1124 O1123 2.271 . S
Tb1124 O1127 2.338 . S
Tb1124 O1131 2.312 . S
Tb1124 O1135 2.441 . S
Tb1124 O1136 2.506 . S
C1125 O1135 1.244 . S
C1125 O1136 1.265 . S
O1126 Tb1121 2.312 . S
O1126 C1133 1.253 . S
O1127 Tb1124 2.338 . S
O1127 C1128 1.258 . S
C1128 O1127 1.258 . S
C1128 O1129 1.251 . S
O1129 C1128 1.251 . S
O1130 Tb1121 2.271 . S
O1130 C1122 1.252 . S
O1131 C1122 1.253 . S
O1131 Tb1124 2.312 . S
O1132 Tb1121 2.338 . S
O1132 C1137 1.258 . S
C1133 O1123 1.252 . S
C1133 O1126 1.253 . S
C1134 O1120 1.265 . S
C1134 O1139 1.244 . S
O1135 Tb1124 2.441 . S
O1135 C1125 1.244 . S
O1136 Tb1124 2.506 . S
O1136 C1125 1.265 . S
C1137 O1132 1.258 . S
C1137 O1138 1.251 . S
O1138 C1137 1.251 . S
O1139 Tb1121 2.441 . S
O1139 C1134 1.244 . S
O1140 Tb1141 2.506 . S
O1140 C1154 1.265 . S
Tb1141 O1140 2.506 . S
Tb1141 O1146 2.312 . S
Tb1141 O1150 2.271 . S
Tb1141 O1152 2.338 . S
Tb1141 O1159 2.441 . S
C1142 O1150 1.252 . S
C1142 O1151 1.253 . S
O1143 Tb1144 2.271 . S
O1143 C1153 1.252 . S
Tb1144 O1143 2.271 . S
Tb1144 O1147 2.338 . S
Tb1144 O1151 2.312 . S
Tb1144 O1155 2.441 . S
Tb1144 O1156 2.506 . S
C1145 O1155 1.244 . S
C1145 O1156 1.265 . S
O1146 Tb1141 2.312 . S
O1146 C1153 1.253 . S
O1147 Tb1144 2.338 . S
O1147 C1148 1.258 . S
C1148 O1147 1.258 . S
C1148 O1149 1.251 . S
O1149 C1148 1.251 . S
O1150 Tb1141 2.271 . S
O1150 C1142 1.252 . S
O1151 C1142 1.253 . S
O1151 Tb1144 2.312 . S
O1152 Tb1141 2.338 . S
O1152 C1157 1.258 . S
C1153 O1143 1.252 . S
C1153 O1146 1.253 . S
C1154 O1140 1.265 . S
C1154 O1159 1.244 . S
O1155 Tb1144 2.441 . S
O1155 C1145 1.244 . S
O1156 Tb1144 2.506 . S
O1156 C1145 1.265 . S
C1157 O1152 1.258 . S
C1157 O1158 1.251 . S
O1158 C1157 1.251 . S
O1159 Tb1141 2.441 . S
O1159 C1154 1.244 . S
O1160 Tb1161 2.506 . S
O1160 C1174 1.265 . S
Tb1161 O1160 2.506 . S
Tb1161 O1166 2.312 . S
Tb1161 O1170 2.271 . S
Tb1161 O1172 2.338 . S
Tb1161 O1179 2.441 . S
C1162 O1170 1.252 . S
C1162 O1171 1.253 . S
O1163 Tb1164 2.271 . S
O1163 C1173 1.252 . S
Tb1164 O1163 2.271 . S
Tb1164 O1167 2.338 . S
Tb1164 O1171 2.312 . S
Tb1164 O1175 2.441 . S
Tb1164 O1176 2.506 . S
C1165 O1175 1.244 . S
C1165 O1176 1.265 . S
O1166 Tb1161 2.312 . S
O1166 C1173 1.253 . S
O1167 Tb1164 2.338 . S
O1167 C1168 1.258 . S
C1168 O1167 1.258 . S
C1168 O1169 1.251 . S
O1169 C1168 1.251 . S
O1170 Tb1161 2.271 . S
O1170 C1162 1.252 . S
O1171 C1162 1.253 . S
O1171 Tb1164 2.312 . S
O1172 Tb1161 2.338 . S
O1172 C1177 1.258 . S
C1173 O1163 1.252 . S
C1173 O1166 1.253 . S
C1174 O1160 1.265 . S
C1174 O1179 1.244 . S
O1175 Tb1164 2.441 . S
O1175 C1165 1.244 . S
O1176 Tb1164 2.506 . S
O1176 C1165 1.265 . S
C1177 O1172 1.258 . S
C1177 O1178 1.251 . S
O1178 C1177 1.251 . S
O1179 Tb1161 2.441 . S
O1179 C1174 1.244 . S
O1180 Tb1181 2.506 . S
O1180 C1194 1.265 . S
Tb1181 O1180 2.506 . S
Tb1181 O1186 2.312 . S
Tb1181 O1190 2.271 . S
Tb1181 O1192 2.338 . S
Tb1181 O1199 2.441 . S
C1182 O1190 1.252 . S
C1182 O1191 1.253 . S
O1183 Tb1184 2.271 . S
O1183 C1193 1.252 . S
Tb1184 O1183 2.271 . S
Tb1184 O1187 2.338 . S
Tb1184 O1191 2.312 . S
Tb1184 O1195 2.441 . S
Tb1184 O1196 2.506 . S
C1185 O1195 1.244 . S
C1185 O1196 1.265 . S
O1186 Tb1181 2.312 . S
O1186 C1193 1.253 . S
O1187 Tb1184 2.338 . S
O1187 C1188 1.258 . S
C1188 O1187 1.258 . S
C1188 O1189 1.251 . S
O1189 C1188 1.251 . S
O1190 Tb1181 2.271 . S
O1190 C1182 1.252 . S
O1191 C1182 1.253 . S
O1191 Tb1184 2.312 . S
O1192 Tb1181 2.338 . S
O1192 C1197 1.258 . S
C1193 O1183 1.252 . S
C1193 O1186 1.253 . S
C1194 O1180 1.265 . S
C1194 O1199 1.244 . S
O1195 Tb1184 2.441 . S
O1195 C1185 1.244 . S
O1196 Tb1184 2.506 . S
O1196 C1185 1.265 . S
C1197 O1192 1.258 . S
C1197 O1198 1.251 . S
O1198 C1197 1.251 . S
O1199 Tb1181 2.441 . S
O1199 C1194 1.244 . S
O1200 Tb1201 2.506 . S
O1200 C1214 1.265 . S
Tb1201 O1200 2.506 . S
Tb1201 O1206 2.312 . S
Tb1201 O1210 2.271 . S
Tb1201 O1212 2.338 . S
Tb1201 O1219 2.441 . S
C1202 O1210 1.252 . S
C1202 O1211 1.253 . S
O1203 Tb1204 2.271 . S
O1203 C1213 1.252 . S
Tb1204 O1203 2.271 . S
Tb1204 O1207 2.338 . S
Tb1204 O1211 2.312 . S
Tb1204 O1215 2.441 . S
Tb1204 O1216 2.506 . S
C1205 O1215 1.244 . S
C1205 O1216 1.265 . S
O1206 Tb1201 2.312 . S
O1206 C1213 1.253 . S
O1207 Tb1204 2.338 . S
O1207 C1208 1.258 . S
C1208 O1207 1.258 . S
C1208 O1209 1.251 . S
O1209 C1208 1.251 . S
O1210 Tb1201 2.271 . S
O1210 C1202 1.252 . S
O1211 C1202 1.253 . S
O1211 Tb1204 2.312 . S
O1212 Tb1201 2.338 . S
O1212 C1217 1.258 . S
C1213 O1203 1.252 . S
C1213 O1206 1.253 . S
C1214 O1200 1.265 . S
C1214 O1219 1.244 . S
O1215 Tb1204 2.441 . S
O1215 C1205 1.244 . S
O1216 Tb1204 2.506 . S
O1216 C1205 1.265 . S
C1217 O1212 1.258 . S
C1217 O1218 1.251 . S
O1218 C1217 1.251 . S
O1219 Tb1201 2.441 . S
O1219 C1214 1.244 . S
O1220 Tb1221 2.506 . S
O1220 C1234 1.265 . S
Tb1221 O1220 2.506 . S
Tb1221 O1226 2.312 . S
Tb1221 O1230 2.271 . S
Tb1221 O1232 2.338 . S
Tb1221 O1239 2.441 . S
C1222 O1230 1.252 . S
C1222 O1231 1.253 . S
O1223 Tb1224 2.271 . S
O1223 C1233 1.252 . S
Tb1224 O1223 2.271 . S
Tb1224 O1227 2.338 . S
Tb1224 O1231 2.312 . S
Tb1224 O1235 2.441 . S
Tb1224 O1236 2.506 . S
C1225 O1235 1.244 . S
C1225 O1236 1.265 . S
O1226 Tb1221 2.312 . S
O1226 C1233 1.253 . S
O1227 Tb1224 2.338 . S
O1227 C1228 1.258 . S
C1228 O1227 1.258 . S
C1228 O1229 1.251 . S
O1229 C1228 1.251 . S
O1230 Tb1221 2.271 . S
O1230 C1222 1.252 . S
O1231 C1222 1.253 . S
O1231 Tb1224 2.312 . S
O1232 Tb1221 2.338 . S
O1232 C1237 1.258 . S
C1233 O1223 1.252 . S
C1233 O1226 1.253 . S
C1234 O1220 1.265 . S
C1234 O1239 1.244 . S
O1235 Tb1224 2.441 . S
O1235 C1225 1.244 . S
O1236 Tb1224 2.506 . S
O1236 C1225 1.265 . S
C1237 O1232 1.258 . S
C1237 O1238 1.251 . S
O1238 C1237 1.251 . S
O1239 Tb1221 2.441 . S
O1239 C1234 1.244 . S
O1240 Tb1241 2.506 . S
O1240 C1254 1.265 . S
Tb1241 O1240 2.506 . S
Tb1241 O1246 2.312 . S
Tb1241 O1250 2.271 . S
Tb1241 O1252 2.338 . S
Tb1241 O1259 2.441 . S
C1242 O1250 1.252 . S
C1242 O1251 1.253 . S
O1243 Tb1244 2.271 . S
O1243 C1253 1.252 . S
Tb1244 O1243 2.271 . S
Tb1244 O1247 2.338 . S
Tb1244 O1251 2.312 . S
Tb1244 O1255 2.441 . S
Tb1244 O1256 2.506 . S
C1245 O1255 1.244 . S
C1245 O1256 1.265 . S
O1246 Tb1241 2.312 . S
O1246 C1253 1.253 . S
O1247 Tb1244 2.338 . S
O1247 C1248 1.258 . S
C1248 O1247 1.258 . S
C1248 O1249 1.251 . S
O1249 C1248 1.251 . S
O1250 Tb1241 2.271 . S
O1250 C1242 1.252 . S
O1251 C1242 1.253 . S
O1251 Tb1244 2.312 . S
O1252 Tb1241 2.338 . S
O1252 C1257 1.258 . S
C1253 O1243 1.252 . S
C1253 O1246 1.253 . S
C1254 O1240 1.265 . S
C1254 O1259 1.244 . S
O1255 Tb1244 2.441 . S
O1255 C1245 1.244 . S
O1256 Tb1244 2.506 . S
O1256 C1245 1.265 . S
C1257 O1252 1.258 . S
C1257 O1258 1.251 . S
O1258 C1257 1.251 . S
O1259 Tb1241 2.441 . S
O1259 C1254 1.244 . S
O1260 Tb1261 2.506 . S
O1260 C1274 1.265 . S
Tb1261 O1260 2.506 . S
Tb1261 O1266 2.312 . S
Tb1261 O1270 2.271 . S
Tb1261 O1272 2.338 . S
Tb1261 O1279 2.441 . S
C1262 O1270 1.252 . S
C1262 O1271 1.253 . S
O1263 Tb1264 2.271 . S
O1263 C1273 1.252 . S
Tb1264 O1263 2.271 . S
Tb1264 O1267 2.338 . S
Tb1264 O1271 2.312 . S
Tb1264 O1275 2.441 . S
Tb1264 O1276 2.506 . S
C1265 O1275 1.244 . S
C1265 O1276 1.265 . S
O1266 Tb1261 2.312 . S
O1266 C1273 1.253 . S
O1267 Tb1264 2.338 . S
O1267 C1268 1.258 . S
C1268 O1267 1.258 . S
C1268 O1269 1.251 . S
O1269 C1268 1.251 . S
O1270 Tb1261 2.271 . S
O1270 C1262 1.252 . S
O1271 C1262 1.253 . S
O1271 Tb1264 2.312 . S
O1272 Tb1261 2.338 . S
O1272 C1277 1.258 . S
C1273 O1263 1.252 . S
C1273 O1266 1.253 . S
C1274 O1260 1.265 . S
C1274 O1279 1.244 . S
O1275 Tb1264 2.441 . S
O1275 C1265 1.244 . S
O1276 Tb1264 2.506 . S
O1276 C1265 1.265 . S
C1277 O1272 1.258 . S
C1277 O1278 1.251 . S
O1278 C1277 1.251 . S
O1279 Tb1261 2.441 . S
O1279 C1274 1.244 . S
O1280 Tb1281 2.506 . S
O1280 C1294 1.265 . S
Tb1281 O1280 2.506 . S
Tb1281 O1286 2.312 . S
Tb1281 O1290 2.271 . S
Tb1281 O1292 2.338 . S
Tb1281 O1299 2.441 . S
C1282 O1290 1.252 . S
C1282 O1291 1.253 . S
O1283 Tb1284 2.271 . S
O1283 C1293 1.252 . S
Tb1284 O1283 2.271 . S
Tb1284 O1287 2.338 . S
Tb1284 O1291 2.312 . S
Tb1284 O1295 2.441 . S
Tb1284 O1296 2.506 . S
C1285 O1295 1.244 . S
C1285 O1296 1.265 . S
O1286 Tb1281 2.312 . S
O1286 C1293 1.253 . S
O1287 Tb1284 2.338 . S
O1287 C1288 1.258 . S
C1288 O1287 1.258 . S
C1288 O1289 1.251 . S
O1289 C1288 1.251 . S
O1290 Tb1281 2.271 . S
O1290 C1282 1.252 . S
O1291 C1282 1.253 . S
O1291 Tb1284 2.312 . S
O1292 Tb1281 2.338 . S
O1292 C1297 1.258 . S
C1293 O1283 1.252 . S
C1293 O1286 1.253 . S
C1294 O1280 1.265 . S
C1294 O1299 1.244 . S
O1295 Tb1284 2.441 . S
O1295 C1285 1.244 . S
O1296 Tb1284 2.506 . S
O1296 C1285 1.265 . S
C1297 O1292 1.258 . S
C1297 O1298 1.251 . S
O1298 C1297 1.251 . S
O1299 Tb1281 2.441 . S
O1299 C1294 1.244 . S
O1300 Tb1301 2.506 . S
O1300 C1314 1.265 . S
Tb1301 O1300 2.506 . S
Tb1301 O1306 2.312 . S
Tb1301 O1310 2.271 . S
Tb1301 O1312 2.338 . S
Tb1301 O1319 2.441 . S
C1302 O1310 1.252 . S
C1302 O1311 1.253 . S
O1303 Tb1304 2.271 . S
O1303 C1313 1.252 . S
Tb1304 O1303 2.271 . S
Tb1304 O1307 2.338 . S
Tb1304 O1311 2.312 . S
Tb1304 O1315 2.441 . S
Tb1304 O1316 2.506 . S
C1305 O1315 1.244 . S
C1305 O1316 1.265 . S
O1306 Tb1301 2.312 . S
O1306 C1313 1.253 . S
O1307 Tb1304 2.338 . S
O1307 C1308 1.258 . S
C1308 O1307 1.258 . S
C1308 O1309 1.251 . S
O1309 C1308 1.251 . S
O1310 Tb1301 2.271 . S
O1310 C1302 1.252 . S
O1311 C1302 1.253 . S
O1311 Tb1304 2.312 . S
O1312 Tb1301 2.338 . S
O1312 C1317 1.258 . S
C1313 O1303 1.252 . S
C1313 O1306 1.253 . S
C1314 O1300 1.265 . S
C1314 O1319 1.244 . S
O1315 Tb1304 2.441 . S
O1315 C1305 1.244 . S
O1316 Tb1304 2.506 . S
O1316 C1305 1.265 . S
C1317 O1312 1.258 . S
C1317 O1318 1.251 . S
O1318 C1317 1.251 . S
O1319 Tb1301 2.441 . S
O1319 C1314 1.244 . S
O1320 Tb1321 2.506 . S
O1320 C1334 1.265 . S
Tb1321 O1320 2.506 . S
Tb1321 O1326 2.312 . S
Tb1321 O1330 2.271 . S
Tb1321 O1332 2.338 . S
Tb1321 O1339 2.441 . S
C1322 O1330 1.252 . S
C1322 O1331 1.253 . S
O1323 Tb1324 2.271 . S
O1323 C1333 1.252 . S
Tb1324 O1323 2.271 . S
Tb1324 O1327 2.338 . S
Tb1324 O1331 2.312 . S
Tb1324 O1335 2.441 . S
Tb1324 O1336 2.506 . S
C1325 O1335 1.244 . S
C1325 O1336 1.265 . S
O1326 Tb1321 2.312 . S
O1326 C1333 1.253 . S
O1327 Tb1324 2.338 . S
O1327 C1328 1.258 . S
C1328 O1327 1.258 . S
C1328 O1329 1.251 . S
O1329 C1328 1.251 . S
O1330 Tb1321 2.271 . S
O1330 C1322 1.252 . S
O1331 C1322 1.253 . S
O1331 Tb1324 2.312 . S
O1332 Tb1321 2.338 . S
O1332 C1337 1.258 . S
C1333 O1323 1.252 . S
C1333 O1326 1.253 . S
C1334 O1320 1.265 . S
C1334 O1339 1.244 . S
O1335 Tb1324 2.441 . S
O1335 C1325 1.244 . S
O1336 Tb1324 2.506 . S
O1336 C1325 1.265 . S
C1337 O1332 1.258 . S
C1337 O1338 1.251 . S
O1338 C1337 1.251 . S
O1339 Tb1321 2.441 . S
O1339 C1334 1.244 . S
O1340 Tb1341 2.506 . S
O1340 C1354 1.265 . S
Tb1341 O1340 2.506 . S
Tb1341 O1346 2.312 . S
Tb1341 O1350 2.271 . S
Tb1341 O1352 2.338 . S
Tb1341 O1359 2.441 . S
C1342 O1350 1.252 . S
C1342 O1351 1.253 . S
O1343 Tb1344 2.271 . S
O1343 C1353 1.252 . S
Tb1344 O1343 2.271 . S
Tb1344 O1347 2.338 . S
Tb1344 O1351 2.312 1_554 S
Tb1344 O1355 2.441 . S
Tb1344 O1356 2.506 . S
C1345 O1355 1.244 . S
C1345 O1356 1.265 . S
O1346 Tb1341 2.312 . S
O1346 C1353 1.253 1_556 S
O1347 Tb1344 2.338 . S
O1347 C1348 1.258 . S
C1348 O1347 1.258 . S
C1348 O1349 1.251 . S
O1349 C1348 1.251 . S
O1350 Tb1341 2.271 . S
O1350 C1342 1.252 . S
O1351 C1342 1.253 . S
O1351 Tb1344 2.312 1_556 S
O1352 Tb1341 2.338 . S
O1352 C1357 1.258 . S
C1353 O1343 1.252 . S
C1353 O1346 1.253 1_554 S
C1354 O1340 1.265 . S
C1354 O1359 1.244 . S
O1355 Tb1344 2.441 . S
O1355 C1345 1.244 . S
O1356 Tb1344 2.506 . S
O1356 C1345 1.265 . S
C1357 O1352 1.258 . S
C1357 O1358 1.251 . S
O1358 C1357 1.251 . S
O1359 Tb1341 2.441 . S
O1359 C1354 1.244 . S
O1360 Tb1361 2.506 . S
O1360 C1374 1.265 . S
Tb1361 O1360 2.506 . S
Tb1361 O1366 2.312 . S
Tb1361 O1370 2.271 . S
Tb1361 O1372 2.338 . S
Tb1361 O1379 2.441 . S
C1362 O1370 1.252 . S
C1362 O1371 1.253 . S
O1363 Tb1364 2.271 . S
O1363 C1373 1.252 . S
Tb1364 O1363 2.271 . S
Tb1364 O1367 2.338 . S
Tb1364 O1371 2.312 . S
Tb1364 O1375 2.441 . S
Tb1364 O1376 2.506 . S
C1365 O1375 1.244 . S
C1365 O1376 1.265 . S
O1366 Tb1361 2.312 . S
O1366 C1373 1.253 . S
O1367 Tb1364 2.338 . S
O1367 C1368 1.258 . S
C1368 O1367 1.258 . S
C1368 O1369 1.251 . S
O1369 C1368 1.251 . S
O1370 Tb1361 2.271 . S
O1370 C1362 1.252 . S
O1371 C1362 1.253 . S
O1371 Tb1364 2.312 . S
O1372 Tb1361 2.338 . S
O1372 C1377 1.258 . S
C1373 O1363 1.252 . S
C1373 O1366 1.253 . S
C1374 O1360 1.265 . S
C1374 O1379 1.244 . S
O1375 Tb1364 2.441 . S
O1375 C1365 1.244 . S
O1376 Tb1364 2.506 . S
O1376 C1365 1.265 . S
C1377 O1372 1.258 . S
C1377 O1378 1.251 . S
O1378 C1377 1.251 . S
O1379 Tb1361 2.441 . S
O1379 C1374 1.244 . S
O1380 Tb1381 2.506 . S
O1380 C1394 1.265 . S
Tb1381 O1380 2.506 . S
Tb1381 O1386 2.312 . S
Tb1381 O1390 2.271 . S
Tb1381 O1392 2.338 . S
Tb1381 O1399 2.441 . S
C1382 O1390 1.252 . S
C1382 O1391 1.253 . S
O1383 Tb1384 2.271 . S
O1383 C1393 1.252 . S
Tb1384 O1383 2.271 . S
Tb1384 O1387 2.338 . S
Tb1384 O1391 2.312 1_556 S
Tb1384 O1395 2.441 . S
Tb1384 O1396 2.506 . S
C1385 O1395 1.244 . S
C1385 O1396 1.265 . S
O1386 Tb1381 2.312 . S
O1386 C1393 1.253 1_554 S
O1387 Tb1384 2.338 . S
O1387 C1388 1.258 . S
C1388 O1387 1.258 . S
C1388 O1389 1.251 . S
O1389 C1388 1.251 . S
O1390 Tb1381 2.271 . S
O1390 C1382 1.252 . S
O1391 C1382 1.253 . S
O1391 Tb1384 2.312 1_554 S
O1392 Tb1381 2.338 . S
O1392 C1397 1.258 . S
C1393 O1383 1.252 . S
C1393 O1386 1.253 1_556 S
C1394 O1380 1.265 . S
C1394 O1399 1.244 . S
O1395 Tb1384 2.441 . S
O1395 C1385 1.244 . S
O1396 Tb1384 2.506 . S
O1396 C1385 1.265 . S
C1397 O1392 1.258 . S
C1397 O1398 1.251 . S
O1398 C1397 1.251 . S
O1399 Tb1381 2.441 . S
O1399 C1394 1.244 . S
O1400 Tb1401 2.506 . S
O1400 C1414 1.265 . S
Tb1401 O1400 2.506 . S
Tb1401 O1406 2.312 . S
Tb1401 O1410 2.271 . S
Tb1401 O1412 2.338 . S
Tb1401 O1419 2.441 . S
C1402 O1410 1.252 . S
C1402 O1411 1.253 . S
O1403 Tb1404 2.271 . S
O1403 C1413 1.252 . S
Tb1404 O1403 2.271 . S
Tb1404 O1407 2.338 . S
Tb1404 O1411 2.312 . S
Tb1404 O1415 2.441 . S
Tb1404 O1416 2.506 . S
C1405 O1415 1.244 . S
C1405 O1416 1.265 . S
O1406 Tb1401 2.312 . S
O1406 C1413 1.253 . S
O1407 Tb1404 2.338 . S
O1407 C1408 1.258 . S
C1408 O1407 1.258 . S
C1408 O1409 1.251 . S
O1409 C1408 1.251 . S
O1410 Tb1401 2.271 . S
O1410 C1402 1.252 . S
O1411 C1402 1.253 . S
O1411 Tb1404 2.312 . S
O1412 Tb1401 2.338 . S
O1412 C1417 1.258 . S
C1413 O1403 1.252 . S
C1413 O1406 1.253 . S
C1414 O1400 1.265 . S
C1414 O1419 1.244 . S
O1415 Tb1404 2.441 . S
O1415 C1405 1.244 . S
O1416 Tb1404 2.506 . S
O1416 C1405 1.265 . S
C1417 O1412 1.258 . S
C1417 O1418 1.251 . S
O1418 C1417 1.251 . S
O1419 Tb1401 2.441 . S
O1419 C1414 1.244 . S
O1420 Tb1421 2.506 . S
O1420 C1434 1.265 . S
Tb1421 O1420 2.506 . S
Tb1421 O1426 2.312 . S
Tb1421 O1430 2.271 . S
Tb1421 O1432 2.338 . S
Tb1421 O1439 2.441 . S
C1422 O1430 1.252 . S
C1422 O1431 1.253 . S
O1423 Tb1424 2.271 . S
O1423 C1433 1.252 . S
Tb1424 O1423 2.271 . S
Tb1424 O1427 2.338 . S
Tb1424 O1431 2.312 . S
Tb1424 O1435 2.441 . S
Tb1424 O1436 2.506 . S
C1425 O1435 1.244 . S
C1425 O1436 1.265 . S
O1426 Tb1421 2.312 . S
O1426 C1433 1.253 . S
O1427 Tb1424 2.338 . S
O1427 C1428 1.258 . S
C1428 O1427 1.258 . S
C1428 O1429 1.251 . S
O1429 C1428 1.251 . S
O1430 Tb1421 2.271 . S
O1430 C1422 1.252 . S
O1431 C1422 1.253 . S
O1431 Tb1424 2.312 . S
O1432 Tb1421 2.338 . S
O1432 C1437 1.258 . S
C1433 O1423 1.252 . S
C1433 O1426 1.253 . S
C1434 O1420 1.265 . S
C1434 O1439 1.244 . S
O1435 Tb1424 2.441 . S
O1435 C1425 1.244 . S
O1436 Tb1424 2.506 . S
O1436 C1425 1.265 . S
C1437 O1432 1.258 . S
C1437 O1438 1.251 . S
O1438 C1437 1.251 . S
O1439 Tb1421 2.441 . S
O1439 C1434 1.244 . S
O1440 Tb1441 2.506 . S
O1440 C1454 1.265 . S
Tb1441 O1440 2.506 . S
Tb1441 O1446 2.312 . S
Tb1441 O1450 2.271 . S
Tb1441 O1452 2.338 . S
Tb1441 O1459 2.441 . S
C1442 O1450 1.252 . S
C1442 O1451 1.253 . S
O1443 Tb1444 2.271 . S
O1443 C1453 1.252 . S
Tb1444 O1443 2.271 . S
Tb1444 O1447 2.338 . S
Tb1444 O1451 2.312 . S
Tb1444 O1455 2.441 . S
Tb1444 O1456 2.506 . S
C1445 O1455 1.244 . S
C1445 O1456 1.265 . S
O1446 Tb1441 2.312 . S
O1446 C1453 1.253 . S
O1447 Tb1444 2.338 . S
O1447 C1448 1.258 . S
C1448 O1447 1.258 . S
C1448 O1449 1.251 . S
O1449 C1448 1.251 . S
O1450 Tb1441 2.271 . S
O1450 C1442 1.252 . S
O1451 C1442 1.253 . S
O1451 Tb1444 2.312 . S
O1452 Tb1441 2.338 . S
O1452 C1457 1.258 . S
C1453 O1443 1.252 . S
C1453 O1446 1.253 . S
C1454 O1440 1.265 . S
C1454 O1459 1.244 . S
O1455 Tb1444 2.441 . S
O1455 C1445 1.244 . S
O1456 Tb1444 2.506 . S
O1456 C1445 1.265 . S
C1457 O1452 1.258 . S
C1457 O1458 1.251 . S
O1458 C1457 1.251 . S
O1459 Tb1441 2.441 . S
O1459 C1454 1.244 . S
O1460 Tb1461 2.506 . S
O1460 C1474 1.265 . S
Tb1461 O1460 2.506 . S
Tb1461 O1466 2.312 . S
Tb1461 O1470 2.271 . S
Tb1461 O1472 2.338 . S
Tb1461 O1479 2.441 . S
C1462 O1470 1.252 . S
C1462 O1471 1.253 . S
O1463 Tb1464 2.271 . S
O1463 C1473 1.252 . S
Tb1464 O1463 2.271 . S
Tb1464 O1467 2.338 . S
Tb1464 O1471 2.312 . S
Tb1464 O1475 2.441 . S
Tb1464 O1476 2.506 . S
C1465 O1475 1.244 . S
C1465 O1476 1.265 . S
O1466 Tb1461 2.312 . S
O1466 C1473 1.253 . S
O1467 Tb1464 2.338 . S
O1467 C1468 1.258 . S
C1468 O1467 1.258 . S
C1468 O1469 1.251 . S
O1469 C1468 1.251 . S
O1470 Tb1461 2.271 . S
O1470 C1462 1.252 . S
O1471 C1462 1.253 . S
O1471 Tb1464 2.312 . S
O1472 Tb1461 2.338 . S
O1472 C1477 1.258 . S
C1473 O1463 1.252 . S
C1473 O1466 1.253 . S
C1474 O1460 1.265 . S
C1474 O1479 1.244 . S
O1475 Tb1464 2.441 . S
O1475 C1465 1.244 . S
O1476 Tb1464 2.506 . S
O1476 C1465 1.265 . S
C1477 O1472 1.258 . S
C1477 O1478 1.251 . S
O1478 C1477 1.251 . S
O1479 Tb1461 2.441 . S
O1479 C1474 1.244 . S
O1480 Tb1481 2.506 . S
O1480 C1494 1.265 . S
Tb1481 O1480 2.506 . S
Tb1481 O1486 2.312 . S
Tb1481 O1490 2.271 . S
Tb1481 O1492 2.338 . S
Tb1481 O1499 2.441 . S
C1482 O1490 1.252 . S
C1482 O1491 1.253 . S
O1483 Tb1484 2.271 . S
O1483 C1493 1.252 . S
Tb1484 O1483 2.271 . S
Tb1484 O1487 2.338 . S
Tb1484 O1491 2.312 1_655 S
Tb1484 O1495 2.441 . S
Tb1484 O1496 2.506 . S
C1485 O1495 1.244 . S
C1485 O1496 1.265 . S
O1486 Tb1481 2.312 . S
O1486 C1493 1.253 1_455 S
O1487 Tb1484 2.338 . S
O1487 C1488 1.258 . S
C1488 O1487 1.258 . S
C1488 O1489 1.251 . S
O1489 C1488 1.251 . S
O1490 Tb1481 2.271 . S
O1490 C1482 1.252 . S
O1491 C1482 1.253 . S
O1491 Tb1484 2.312 1_455 S
O1492 Tb1481 2.338 . S
O1492 C1497 1.258 . S
C1493 O1483 1.252 . S
C1493 O1486 1.253 1_655 S
C1494 O1480 1.265 . S
C1494 O1499 1.244 . S
O1495 Tb1484 2.441 . S
O1495 C1485 1.244 . S
O1496 Tb1484 2.506 . S
O1496 C1485 1.265 . S
C1497 O1492 1.258 . S
C1497 O1498 1.251 . S
O1498 C1497 1.251 . S
O1499 Tb1481 2.441 . S
O1499 C1494 1.244 . S
O1500 Tb1501 2.506 . S
O1500 C1514 1.265 . S
Tb1501 O1500 2.506 . S
Tb1501 O1506 2.312 . S
Tb1501 O1510 2.271 . S
Tb1501 O1512 2.338 . S
Tb1501 O1519 2.441 . S
C1502 O1510 1.252 . S
C1502 O1511 1.253 . S
O1503 Tb1504 2.271 . S
O1503 C1513 1.252 . S
Tb1504 O1503 2.271 . S
Tb1504 O1507 2.338 . S
Tb1504 O1511 2.312 . S
Tb1504 O1515 2.441 . S
Tb1504 O1516 2.506 . S
C1505 O1515 1.244 . S
C1505 O1516 1.265 . S
O1506 Tb1501 2.312 . S
O1506 C1513 1.253 . S
O1507 Tb1504 2.338 . S
O1507 C1508 1.258 . S
C1508 O1507 1.258 . S
C1508 O1509 1.251 . S
O1509 C1508 1.251 . S
O1510 Tb1501 2.271 . S
O1510 C1502 1.252 . S
O1511 C1502 1.253 . S
O1511 Tb1504 2.312 . S
O1512 Tb1501 2.338 . S
O1512 C1517 1.258 . S
C1513 O1503 1.252 . S
C1513 O1506 1.253 . S
C1514 O1500 1.265 . S
C1514 O1519 1.244 . S
O1515 Tb1504 2.441 . S
O1515 C1505 1.244 . S
O1516 Tb1504 2.506 . S
O1516 C1505 1.265 . S
C1517 O1512 1.258 . S
C1517 O1518 1.251 . S
O1518 C1517 1.251 . S
O1519 Tb1501 2.441 . S
O1519 C1514 1.244 . S
O1520 Tb1521 2.506 . S
O1520 C1534 1.265 . S
Tb1521 O1520 2.506 . S
Tb1521 O1526 2.312 . S
Tb1521 O1530 2.271 . S
Tb1521 O1532 2.338 . S
Tb1521 O1539 2.441 . S
C1522 O1530 1.252 . S
C1522 O1531 1.253 . S
O1523 Tb1524 2.271 . S
O1523 C1533 1.252 . S
Tb1524 O1523 2.271 . S
Tb1524 O1527 2.338 . S
Tb1524 O1531 2.312 . S
Tb1524 O1535 2.441 . S
Tb1524 O1536 2.506 . S
C1525 O1535 1.244 . S
C1525 O1536 1.265 . S
O1526 Tb1521 2.312 . S
O1526 C1533 1.253 . S
O1527 Tb1524 2.338 . S
O1527 C1528 1.258 . S
C1528 O1527 1.258 . S
C1528 O1529 1.251 . S
O1529 C1528 1.251 . S
O1530 Tb1521 2.271 . S
O1530 C1522 1.252 . S
O1531 C1522 1.253 . S
O1531 Tb1524 2.312 . S
O1532 Tb1521 2.338 . S
O1532 C1537 1.258 . S
C1533 O1523 1.252 . S
C1533 O1526 1.253 . S
C1534 O1520 1.265 . S
C1534 O1539 1.244 . S
O1535 Tb1524 2.441 . S
O1535 C1525 1.244 . S
O1536 Tb1524 2.506 . S
O1536 C1525 1.265 . S
C1537 O1532 1.258 . S
C1537 O1538 1.251 . S
O1538 C1537 1.251 . S
O1539 Tb1521 2.441 . S
O1539 C1534 1.244 . S
O1540 Tb1541 2.506 . S
O1540 C1554 1.265 . S
Tb1541 O1540 2.506 . S
Tb1541 O1546 2.312 . S
Tb1541 O1550 2.271 . S
Tb1541 O1552 2.338 . S
Tb1541 O1559 2.441 . S
C1542 O1550 1.252 . S
C1542 O1551 1.253 . S
O1543 Tb1544 2.271 . S
O1543 C1553 1.252 . S
Tb1544 O1543 2.271 . S
Tb1544 O1547 2.338 . S
Tb1544 O1551 2.312 . S
Tb1544 O1555 2.441 . S
Tb1544 O1556 2.506 . S
C1545 O1555 1.244 . S
C1545 O1556 1.265 . S
O1546 Tb1541 2.312 . S
O1546 C1553 1.253 . S
O1547 Tb1544 2.338 . S
O1547 C1548 1.258 . S
C1548 O1547 1.258 . S
C1548 O1549 1.251 . S
O1549 C1548 1.251 . S
O1550 Tb1541 2.271 . S
O1550 C1542 1.252 . S
O1551 C1542 1.253 . S
O1551 Tb1544 2.312 . S
O1552 Tb1541 2.338 . S
O1552 C1557 1.258 . S
C1553 O1543 1.252 . S
C1553 O1546 1.253 . S
C1554 O1540 1.265 . S
C1554 O1559 1.244 . S
O1555 Tb1544 2.441 . S
O1555 C1545 1.244 . S
O1556 Tb1544 2.506 . S
O1556 C1545 1.265 . S
C1557 O1552 1.258 . S
C1557 O1558 1.251 . S
O1558 C1557 1.251 . S
O1559 Tb1541 2.441 . S
O1559 C1554 1.244 . S
O1560 Tb1561 2.506 . S
O1560 C1574 1.265 . S
Tb1561 O1560 2.506 . S
Tb1561 O1566 2.312 . S
Tb1561 O1570 2.271 . S
Tb1561 O1572 2.338 . S
Tb1561 O1579 2.441 . S
C1562 O1570 1.252 . S
C1562 O1571 1.253 . S
O1563 Tb1564 2.271 . S
O1563 C1573 1.252 . S
Tb1564 O1563 2.271 . S
Tb1564 O1567 2.338 . S
Tb1564 O1571 2.312 1_655 S
Tb1564 O1575 2.441 . S
Tb1564 O1576 2.506 . S
C1565 O1575 1.244 . S
C1565 O1576 1.265 . S
O1566 Tb1561 2.312 . S
O1566 C1573 1.253 1_455 S
O1567 Tb1564 2.338 . S
O1567 C1568 1.258 . S
C1568 O1567 1.258 . S
C1568 O1569 1.251 . S
O1569 C1568 1.251 . S
O1570 Tb1561 2.271 . S
O1570 C1562 1.252 . S
O1571 C1562 1.253 . S
O1571 Tb1564 2.312 1_455 S
O1572 Tb1561 2.338 . S
O1572 C1577 1.258 . S
C1573 O1563 1.252 . S
C1573 O1566 1.253 1_655 S
C1574 O1560 1.265 . S
C1574 O1579 1.244 . S
O1575 Tb1564 2.441 . S
O1575 C1565 1.244 . S
O1576 Tb1564 2.506 . S
O1576 C1565 1.265 . S
C1577 O1572 1.258 . S
C1577 O1578 1.251 . S
O1578 C1577 1.251 . S
O1579 Tb1561 2.441 . S
O1579 C1574 1.244 . S
O1580 Tb1581 2.506 . S
O1580 C1594 1.265 . S
Tb1581 O1580 2.506 . S
Tb1581 O1586 2.312 . S
Tb1581 O1590 2.271 . S
Tb1581 O1592 2.338 . S
Tb1581 O1599 2.441 . S
C1582 O1590 1.252 . S
C1582 O1591 1.253 . S
O1583 Tb1584 2.271 . S
O1583 C1593 1.252 . S
Tb1584 O1583 2.271 . S
Tb1584 O1587 2.338 . S
Tb1584 O1591 2.312 . S
Tb1584 O1595 2.441 . S
Tb1584 O1596 2.506 . S
C1585 O1595 1.244 . S
C1585 O1596 1.265 . S
O1586 Tb1581 2.312 . S
O1586 C1593 1.253 . S
O1587 Tb1584 2.338 . S
O1587 C1588 1.258 . S
C1588 O1587 1.258 . S
C1588 O1589 1.251 . S
O1589 C1588 1.251 . S
O1590 Tb1581 2.271 . S
O1590 C1582 1.252 . S
O1591 C1582 1.253 . S
O1591 Tb1584 2.312 . S
O1592 Tb1581 2.338 . S
O1592 C1597 1.258 . S
C1593 O1583 1.252 . S
C1593 O1586 1.253 . S
C1594 O1580 1.265 . S
C1594 O1599 1.244 . S
O1595 Tb1584 2.441 . S
O1595 C1585 1.244 . S
O1596 Tb1584 2.506 . S
O1596 C1585 1.265 . S
C1597 O1592 1.258 . S
C1597 O1598 1.251 . S
O1598 C1597 1.251 . S
O1599 Tb1581 2.441 . S
O1599 C1594 1.244 . S
O1600 Tb1601 2.506 . S
O1600 C1614 1.265 . S
Tb1601 O1600 2.506 . S
Tb1601 O1606 2.312 . S
Tb1601 O1610 2.271 . S
Tb1601 O1612 2.338 . S
Tb1601 O1619 2.441 . S
C1602 O1610 1.252 . S
C1602 O1611 1.253 . S
O1603 Tb1604 2.271 . S
O1603 C1613 1.252 . S
Tb1604 O1603 2.271 . S
Tb1604 O1607 2.338 . S
Tb1604 O1611 2.312 . S
Tb1604 O1615 2.441 . S
Tb1604 O1616 2.506 . S
C1605 O1615 1.244 . S
C1605 O1616 1.265 . S
O1606 Tb1601 2.312 . S
O1606 C1613 1.253 . S
O1607 Tb1604 2.338 . S
O1607 C1608 1.258 . S
C1608 O1607 1.258 . S
C1608 O1609 1.251 . S
O1609 C1608 1.251 . S
O1610 Tb1601 2.271 . S
O1610 C1602 1.252 . S
O1611 C1602 1.253 . S
O1611 Tb1604 2.312 . S
O1612 Tb1601 2.338 . S
O1612 C1617 1.258 . S
C1613 O1603 1.252 . S
C1613 O1606 1.253 . S
C1614 O1600 1.265 . S
C1614 O1619 1.244 . S
O1615 Tb1604 2.441 . S
O1615 C1605 1.244 . S
O1616 Tb1604 2.506 . S
O1616 C1605 1.265 . S
C1617 O1612 1.258 . S
C1617 O1618 1.251 . S
O1618 C1617 1.251 . S
O1619 Tb1601 2.441 . S
O1619 C1614 1.244 . S
O1620 Tb1621 2.506 . S
O1620 C1634 1.265 . S
Tb1621 O1620 2.506 . S
Tb1621 O1626 2.312 . S
Tb1621 O1630 2.271 . S
Tb1621 O1632 2.338 . S
Tb1621 O1639 2.441 . S
C1622 O1630 1.252 . S
C1622 O1631 1.253 . S
O1623 Tb1624 2.271 . S
O1623 C1633 1.252 . S
Tb1624 O1623 2.271 . S
Tb1624 O1627 2.338 . S
Tb1624 O1631 2.312 . S
Tb1624 O1635 2.441 . S
Tb1624 O1636 2.506 . S
C1625 O1635 1.244 . S
C1625 O1636 1.265 . S
O1626 Tb1621 2.312 . S
O1626 C1633 1.253 . S
O1627 Tb1624 2.338 . S
O1627 C1628 1.258 . S
C1628 O1627 1.258 . S
C1628 O1629 1.251 . S
O1629 C1628 1.251 . S
O1630 Tb1621 2.271 . S
O1630 C1622 1.252 . S
O1631 C1622 1.253 . S
O1631 Tb1624 2.312 . S
O1632 Tb1621 2.338 . S
O1632 C1637 1.258 . S
C1633 O1623 1.252 . S
C1633 O1626 1.253 . S
C1634 O1620 1.265 . S
C1634 O1639 1.244 . S
O1635 Tb1624 2.441 . S
O1635 C1625 1.244 . S
O1636 Tb1624 2.506 . S
O1636 C1625 1.265 . S
C1637 O1632 1.258 . S
C1637 O1638 1.251 . S
O1638 C1637 1.251 . S
O1639 Tb1621 2.441 . S
O1639 C1634 1.244 . S
O1640 Tb1641 2.506 . S
O1640 C1654 1.265 . S
Tb1641 O1640 2.506 . S
Tb1641 O1646 2.312 . S
Tb1641 O1650 2.271 . S
Tb1641 O1652 2.338 . S
Tb1641 O1659 2.441 . S
C1642 O1650 1.252 . S
C1642 O1651 1.253 . S
O1643 Tb1644 2.271 . S
O1643 C1653 1.252 . S
Tb1644 O1643 2.271 . S
Tb1644 O1647 2.338 . S
Tb1644 O1651 2.312 . S
Tb1644 O1655 2.441 . S
Tb1644 O1656 2.506 . S
C1645 O1655 1.244 . S
C1645 O1656 1.265 . S
O1646 Tb1641 2.312 . S
O1646 C1653 1.253 . S
O1647 Tb1644 2.338 . S
O1647 C1648 1.258 . S
C1648 O1647 1.258 . S
C1648 O1649 1.251 . S
O1649 C1648 1.251 . S
O1650 Tb1641 2.271 . S
O1650 C1642 1.252 . S
O1651 C1642 1.253 . S
O1651 Tb1644 2.312 . S
O1652 Tb1641 2.338 . S
O1652 C1657 1.258 . S
C1653 O1643 1.252 . S
C1653 O1646 1.253 . S
C1654 O1640 1.265 . S
C1654 O1659 1.244 . S
O1655 Tb1644 2.441 . S
O1655 C1645 1.244 . S
O1656 Tb1644 2.506 . S
O1656 C1645 1.265 . S
C1657 O1652 1.258 . S
C1657 O1658 1.251 . S
O1658 C1657 1.251 . S
O1659 Tb1641 2.441 . S
O1659 C1654 1.244 . S
O1660 Tb1661 2.506 . S
O1660 C1674 1.265 . S
Tb1661 O1660 2.506 . S
Tb1661 O1666 2.312 . S
Tb1661 O1670 2.271 . S
Tb1661 O1672 2.338 . S
Tb1661 O1679 2.441 . S
C1662 O1670 1.252 . S
C1662 O1671 1.253 . S
O1663 Tb1664 2.271 . S
O1663 C1673 1.252 . S
Tb1664 O1663 2.271 . S
Tb1664 O1667 2.338 . S
Tb1664 O1671 2.312 . S
Tb1664 O1675 2.441 . S
Tb1664 O1676 2.506 . S
C1665 O1675 1.244 . S
C1665 O1676 1.265 . S
O1666 Tb1661 2.312 . S
O1666 C1673 1.253 . S
O1667 Tb1664 2.338 . S
O1667 C1668 1.258 . S
C1668 O1667 1.258 . S
C1668 O1669 1.251 . S
O1669 C1668 1.251 . S
O1670 Tb1661 2.271 . S
O1670 C1662 1.252 . S
O1671 C1662 1.253 . S
O1671 Tb1664 2.312 . S
O1672 Tb1661 2.338 . S
O1672 C1677 1.258 . S
C1673 O1663 1.252 . S
C1673 O1666 1.253 . S
C1674 O1660 1.265 . S
C1674 O1679 1.244 . S
O1675 Tb1664 2.441 . S
O1675 C1665 1.244 . S
O1676 Tb1664 2.506 . S
O1676 C1665 1.265 . S
C1677 O1672 1.258 . S
C1677 O1678 1.251 . S
O1678 C1677 1.251 . S
O1679 Tb1661 2.441 . S
O1679 C1674 1.244 . S
O1680 Tb1681 2.506 . S
O1680 C1694 1.265 . S
Tb1681 O1680 2.506 . S
Tb1681 O1686 2.312 . S
Tb1681 O1690 2.271 . S
Tb1681 O1692 2.338 . S
Tb1681 O1699 2.441 . S
C1682 O1690 1.252 . S
C1682 O1691 1.253 . S
O1683 Tb1684 2.271 . S
O1683 C1693 1.252 . S
Tb1684 O1683 2.271 . S
Tb1684 O1687 2.338 . S
Tb1684 O1691 2.312 . S
Tb1684 O1695 2.441 . S
Tb1684 O1696 2.506 . S
C1685 O1695 1.244 . S
C1685 O1696 1.265 . S
O1686 Tb1681 2.312 . S
O1686 C1693 1.253 . S
O1687 Tb1684 2.338 . S
O1687 C1688 1.258 . S
C1688 O1687 1.258 . S
C1688 O1689 1.251 . S
O1689 C1688 1.251 . S
O1690 Tb1681 2.271 . S
O1690 C1682 1.252 . S
O1691 C1682 1.253 . S
O1691 Tb1684 2.312 . S
O1692 Tb1681 2.338 . S
O1692 C1697 1.258 . S
C1693 O1683 1.252 . S
C1693 O1686 1.253 . S
C1694 O1680 1.265 . S
C1694 O1699 1.244 . S
O1695 Tb1684 2.441 . S
O1695 C1685 1.244 . S
O1696 Tb1684 2.506 . S
O1696 C1685 1.265 . S
C1697 O1692 1.258 . S
C1697 O1698 1.251 . S
O1698 C1697 1.251 . S
O1699 Tb1681 2.441 . S
O1699 C1694 1.244 . S
O1700 Tb1701 2.506 . S
O1700 C1714 1.265 . S
Tb1701 O1700 2.506 . S
Tb1701 O1706 2.312 . S
Tb1701 O1710 2.271 . S
Tb1701 O1712 2.338 . S
Tb1701 O1719 2.441 . S
C1702 O1710 1.252 . S
C1702 O1711 1.253 . S
O1703 Tb1704 2.271 . S
O1703 C1713 1.252 . S
Tb1704 O1703 2.271 . S
Tb1704 O1707 2.338 . S
Tb1704 O1711 2.312 . S
Tb1704 O1715 2.441 . S
Tb1704 O1716 2.506 . S
C1705 O1715 1.244 . S
C1705 O1716 1.265 . S
O1706 Tb1701 2.312 . S
O1706 C1713 1.253 . S
O1707 Tb1704 2.338 . S
O1707 C1708 1.258 . S
C1708 O1707 1.258 . S
C1708 O1709 1.251 . S
O1709 C1708 1.251 . S
O1710 Tb1701 2.271 . S
O1710 C1702 1.252 . S
O1711 C1702 1.253 . S
O1711 Tb1704 2.312 . S
O1712 Tb1701 2.338 . S
O1712 C1717 1.258 . S
C1713 O1703 1.252 . S
C1713 O1706 1.253 . S
C1714 O1700 1.265 . S
C1714 O1719 1.244 . S
O1715 Tb1704 2.441 . S
O1715 C1705 1.244 . S
O1716 Tb1704 2.506 . S
O1716 C1705 1.265 . S
C1717 O1712 1.258 . S
C1717 O1718 1.251 . S
O1718 C1717 1.251 . S
O1719 Tb1701 2.441 . S
O1719 C1714 1.244 . S
O1720 Tb1721 2.506 . S
O1720 C1734 1.265 . S
Tb1721 O1720 2.506 . S
Tb1721 O1726 2.312 . S
Tb1721 O1730 2.271 . S
Tb1721 O1732 2.338 . S
Tb1721 O1739 2.441 . S
C1722 O1730 1.252 . S
C1722 O1731 1.253 . S
O1723 Tb1724 2.271 . S
O1723 C1733 1.252 . S
Tb1724 O1723 2.271 . S
Tb1724 O1727 2.338 . S
Tb1724 O1731 2.312 . S
Tb1724 O1735 2.441 . S
Tb1724 O1736 2.506 . S
C1725 O1735 1.244 . S
C1725 O1736 1.265 . S
O1726 Tb1721 2.312 . S
O1726 C1733 1.253 . S
O1727 Tb1724 2.338 . S
O1727 C1728 1.258 . S
C1728 O1727 1.258 . S
C1728 O1729 1.251 . S
O1729 C1728 1.251 . S
O1730 Tb1721 2.271 . S
O1730 C1722 1.252 . S
O1731 C1722 1.253 . S
O1731 Tb1724 2.312 . S
O1732 Tb1721 2.338 . S
O1732 C1737 1.258 . S
C1733 O1723 1.252 . S
C1733 O1726 1.253 . S
C1734 O1720 1.265 . S
C1734 O1739 1.244 . S
O1735 Tb1724 2.441 . S
O1735 C1725 1.244 . S
O1736 Tb1724 2.506 . S
O1736 C1725 1.265 . S
C1737 O1732 1.258 . S
C1737 O1738 1.251 . S
O1738 C1737 1.251 . S
O1739 Tb1721 2.441 . S
O1739 C1734 1.244 . S
O1740 Tb1741 2.506 . S
O1740 C1754 1.265 . S
Tb1741 O1740 2.506 . S
Tb1741 O1746 2.312 . S
Tb1741 O1750 2.271 . S
Tb1741 O1752 2.338 . S
Tb1741 O1759 2.441 . S
C1742 O1750 1.252 . S
C1742 O1751 1.253 . S
O1743 Tb1744 2.271 . S
O1743 C1753 1.252 . S
Tb1744 O1743 2.271 . S
Tb1744 O1747 2.338 . S
Tb1744 O1751 2.312 . S
Tb1744 O1755 2.441 . S
Tb1744 O1756 2.506 . S
C1745 O1755 1.244 . S
C1745 O1756 1.265 . S
O1746 Tb1741 2.312 . S
O1746 C1753 1.253 . S
O1747 Tb1744 2.338 . S
O1747 C1748 1.258 . S
C1748 O1747 1.258 . S
C1748 O1749 1.251 . S
O1749 C1748 1.251 . S
O1750 Tb1741 2.271 . S
O1750 C1742 1.252 . S
O1751 C1742 1.253 . S
O1751 Tb1744 2.312 . S
O1752 Tb1741 2.338 . S
O1752 C1757 1.258 . S
C1753 O1743 1.252 . S
C1753 O1746 1.253 . S
C1754 O1740 1.265 . S
C1754 O1759 1.244 . S
O1755 Tb1744 2.441 . S
O1755 C1745 1.244 . S
O1756 Tb1744 2.506 . S
O1756 C1745 1.265 . S
C1757 O1752 1.258 . S
C1757 O1758 1.251 . S
O1758 C1757 1.251 . S
O1759 Tb1741 2.441 . S
O1759 C1754 1.244 . S
O1760 Tb1761 2.506 . S
O1760 C1774 1.265 . S
Tb1761 O1760 2.506 . S
Tb1761 O1766 2.312 . S
Tb1761 O1770 2.271 . S
Tb1761 O1772 2.338 . S
Tb1761 O1779 2.441 . S
C1762 O1770 1.252 . S
C1762 O1771 1.253 . S
O1763 Tb1764 2.271 . S
O1763 C1773 1.252 . S
Tb1764 O1763 2.271 . S
Tb1764 O1767 2.338 . S
Tb1764 O1771 2.312 . S
Tb1764 O1775 2.441 . S
Tb1764 O1776 2.506 . S
C1765 O1775 1.244 . S
C1765 O1776 1.265 . S
O1766 Tb1761 2.312 . S
O1766 C1773 1.253 . S
O1767 Tb1764 2.338 . S
O1767 C1768 1.258 . S
C1768 O1767 1.258 . S
C1768 O1769 1.251 . S
O1769 C1768 1.251 . S
O1770 Tb1761 2.271 . S
O1770 C1762 1.252 . S
O1771 C1762 1.253 . S
O1771 Tb1764 2.312 . S
O1772 Tb1761 2.338 . S
O1772 C1777 1.258 . S
C1773 O1763 1.252 . S
C1773 O1766 1.253 . S
C1774 O1760 1.265 . S
C1774 O1779 1.244 . S
O1775 Tb1764 2.441 . S
O1775 C1765 1.244 . S
O1776 Tb1764 2.506 . S
O1776 C1765 1.265 . S
C1777 O1772 1.258 . S
C1777 O1778 1.251 . S
O1778 C1777 1.251 . S
O1779 Tb1761 2.441 . S
O1779 C1774 1.244 . S
O1780 Tb1781 2.506 . S
O1780 C1794 1.265 . S
Tb1781 O1780 2.506 . S
Tb1781 O1786 2.312 . S
Tb1781 O1790 2.271 . S
Tb1781 O1792 2.338 . S
Tb1781 O1799 2.441 . S
C1782 O1790 1.252 . S
C1782 O1791 1.253 . S
O1783 Tb1784 2.271 . S
O1783 C1793 1.252 . S
Tb1784 O1783 2.271 . S
Tb1784 O1787 2.338 . S
Tb1784 O1791 2.312 . S
Tb1784 O1795 2.441 . S
Tb1784 O1796 2.506 . S
C1785 O1795 1.244 . S
C1785 O1796 1.265 . S
O1786 Tb1781 2.312 . S
O1786 C1793 1.253 . S
O1787 Tb1784 2.338 . S
O1787 C1788 1.258 . S
C1788 O1787 1.258 . S
C1788 O1789 1.251 . S
O1789 C1788 1.251 . S
O1790 Tb1781 2.271 . S
O1790 C1782 1.252 . S
O1791 C1782 1.253 . S
O1791 Tb1784 2.312 . S
O1792 Tb1781 2.338 . S
O1792 C1797 1.258 . S
C1793 O1783 1.252 . S
C1793 O1786 1.253 . S
C1794 O1780 1.265 . S
C1794 O1799 1.244 . S
O1795 Tb1784 2.441 . S
O1795 C1785 1.244 . S
O1796 Tb1784 2.506 . S
O1796 C1785 1.265 . S
C1797 O1792 1.258 . S
C1797 O1798 1.251 . S
O1798 C1797 1.251 . S
O1799 Tb1781 2.441 . S
O1799 C1794 1.244 . S
O1800 Tb1801 2.506 . S
O1800 C1814 1.265 . S
Tb1801 O1800 2.506 . S
Tb1801 O1806 2.312 . S
Tb1801 O1810 2.271 . S
Tb1801 O1812 2.338 . S
Tb1801 O1819 2.441 . S
C1802 O1810 1.252 . S
C1802 O1811 1.253 . S
O1803 Tb1804 2.271 . S
O1803 C1813 1.252 . S
Tb1804 O1803 2.271 . S
Tb1804 O1807 2.338 . S
Tb1804 O1811 2.312 . S
Tb1804 O1815 2.441 . S
Tb1804 O1816 2.506 . S
C1805 O1815 1.244 . S
C1805 O1816 1.265 . S
O1806 Tb1801 2.312 . S
O1806 C1813 1.253 . S
O1807 Tb1804 2.338 . S
O1807 C1808 1.258 . S
C1808 O1807 1.258 . S
C1808 O1809 1.251 . S
O1809 C1808 1.251 . S
O1810 Tb1801 2.271 . S
O1810 C1802 1.252 . S
O1811 C1802 1.253 . S
O1811 Tb1804 2.312 . S
O1812 Tb1801 2.338 . S
O1812 C1817 1.258 . S
C1813 O1803 1.252 . S
C1813 O1806 1.253 . S
C1814 O1800 1.265 . S
C1814 O1819 1.244 . S
O1815 Tb1804 2.441 . S
O1815 C1805 1.244 . S
O1816 Tb1804 2.506 . S
O1816 C1805 1.265 . S
C1817 O1812 1.258 . S
C1817 O1818 1.251 . S
O1818 C1817 1.251 . S
O1819 Tb1801 2.441 . S
O1819 C1814 1.244 . S
O1820 Tb1821 2.506 . S
O1820 C1834 1.265 . S
Tb1821 O1820 2.506 . S
Tb1821 O1826 2.312 . S
Tb1821 O1830 2.271 . S
Tb1821 O1832 2.338 . S
Tb1821 O1839 2.441 . S
C1822 O1830 1.252 . S
C1822 O1831 1.253 . S
O1823 Tb1824 2.271 . S
O1823 C1833 1.252 . S
Tb1824 O1823 2.271 . S
Tb1824 O1827 2.338 . S
Tb1824 O1831 2.312 1_556 S
Tb1824 O1835 2.441 . S
Tb1824 O1836 2.506 . S
C1825 O1835 1.244 . S
C1825 O1836 1.265 . S
O1826 Tb1821 2.312 . S
O1826 C1833 1.253 1_554 S
O1827 Tb1824 2.338 . S
O1827 C1828 1.258 . S
C1828 O1827 1.258 . S
C1828 O1829 1.251 . S
O1829 C1828 1.251 . S
O1830 Tb1821 2.271 . S
O1830 C1822 1.252 . S
O1831 C1822 1.253 . S
O1831 Tb1824 2.312 1_554 S
O1832 Tb1821 2.338 . S
O1832 C1837 1.258 . S
C1833 O1823 1.252 . S
C1833 O1826 1.253 1_556 S
C1834 O1820 1.265 . S
C1834 O1839 1.244 . S
O1835 Tb1824 2.441 . S
O1835 C1825 1.244 . S
O1836 Tb1824 2.506 . S
O1836 C1825 1.265 . S
C1837 O1832 1.258 . S
C1837 O1838 1.251 . S
O1838 C1837 1.251 . S
O1839 Tb1821 2.441 . S
O1839 C1834 1.244 . S
O1840 Tb1841 2.506 . S
O1840 C1854 1.265 . S
Tb1841 O1840 2.506 . S
Tb1841 O1846 2.312 . S
Tb1841 O1850 2.271 . S
Tb1841 O1852 2.338 . S
Tb1841 O1859 2.441 . S
C1842 O1850 1.252 . S
C1842 O1851 1.253 . S
O1843 Tb1844 2.271 . S
O1843 C1853 1.252 . S
Tb1844 O1843 2.271 . S
Tb1844 O1847 2.338 . S
Tb1844 O1851 2.312 . S
Tb1844 O1855 2.441 . S
Tb1844 O1856 2.506 . S
C1845 O1855 1.244 . S
C1845 O1856 1.265 . S
O1846 Tb1841 2.312 . S
O1846 C1853 1.253 . S
O1847 Tb1844 2.338 . S
O1847 C1848 1.258 . S
C1848 O1847 1.258 . S
C1848 O1849 1.251 . S
O1849 C1848 1.251 . S
O1850 Tb1841 2.271 . S
O1850 C1842 1.252 . S
O1851 C1842 1.253 . S
O1851 Tb1844 2.312 . S
O1852 Tb1841 2.338 . S
O1852 C1857 1.258 . S
C1853 O1843 1.252 . S
C1853 O1846 1.253 . S
C1854 O1840 1.265 . S
C1854 O1859 1.244 . S
O1855 Tb1844 2.441 . S
O1855 C1845 1.244 . S
O1856 Tb1844 2.506 . S
O1856 C1845 1.265 . S
C1857 O1852 1.258 . S
C1857 O1858 1.251 . S
O1858 C1857 1.251 . S
O1859 Tb1841 2.441 . S
O1859 C1854 1.244 . S
O1860 Tb1861 2.506 . S
O1860 C1874 1.265 . S
Tb1861 O1860 2.506 . S
Tb1861 O1866 2.312 . S
Tb1861 O1870 2.271 . S
Tb1861 O1872 2.338 . S
Tb1861 O1879 2.441 . S
C1862 O1870 1.252 . S
C1862 O1871 1.253 . S
O1863 Tb1864 2.271 . S
O1863 C1873 1.252 . S
Tb1864 O1863 2.271 . S
Tb1864 O1867 2.338 . S
Tb1864 O1871 2.312 1_554 S
Tb1864 O1875 2.441 . S
Tb1864 O1876 2.506 . S
C1865 O1875 1.244 . S
C1865 O1876 1.265 . S
O1866 Tb1861 2.312 . S
O1866 C1873 1.253 1_556 S
O1867 Tb1864 2.338 . S
O1867 C1868 1.258 . S
C1868 O1867 1.258 . S
C1868 O1869 1.251 . S
O1869 C1868 1.251 . S
O1870 Tb1861 2.271 . S
O1870 C1862 1.252 . S
O1871 C1862 1.253 . S
O1871 Tb1864 2.312 1_556 S
O1872 Tb1861 2.338 . S
O1872 C1877 1.258 . S
C1873 O1863 1.252 . S
C1873 O1866 1.253 1_554 S
C1874 O1860 1.265 . S
C1874 O1879 1.244 . S
O1875 Tb1864 2.441 . S
O1875 C1865 1.244 . S
O1876 Tb1864 2.506 . S
O1876 C1865 1.265 . S
C1877 O1872 1.258 . S
C1877 O1878 1.251 . S
O1878 C1877 1.251 . S
O1879 Tb1861 2.441 . S
O1879 C1874 1.244 . S
O1880 Tb1881 2.506 . S
O1880 C1894 1.265 . S
Tb1881 O1880 2.506 . S
Tb1881 O1886 2.312 . S
Tb1881 O1890 2.271 . S
Tb1881 O1892 2.338 . S
Tb1881 O1899 2.441 . S
C1882 O1890 1.252 . S
C1882 O1891 1.253 . S
O1883 Tb1884 2.271 . S
O1883 C1893 1.252 . S
Tb1884 O1883 2.271 . S
Tb1884 O1887 2.338 . S
Tb1884 O1891 2.312 . S
Tb1884 O1895 2.441 . S
Tb1884 O1896 2.506 . S
C1885 O1895 1.244 . S
C1885 O1896 1.265 . S
O1886 Tb1881 2.312 . S
O1886 C1893 1.253 . S
O1887 Tb1884 2.338 . S
O1887 C1888 1.258 . S
C1888 O1887 1.258 . S
C1888 O1889 1.251 . S
O1889 C1888 1.251 . S
O1890 Tb1881 2.271 . S
O1890 C1882 1.252 . S
O1891 C1882 1.253 . S
O1891 Tb1884 2.312 . S
O1892 Tb1881 2.338 . S
O1892 C1897 1.258 . S
C1893 O1883 1.252 . S
C1893 O1886 1.253 . S
C1894 O1880 1.265 . S
C1894 O1899 1.244 . S
O1895 Tb1884 2.441 . S
O1895 C1885 1.244 . S
O1896 Tb1884 2.506 . S
O1896 C1885 1.265 . S
C1897 O1892 1.258 . S
C1897 O1898 1.251 . S
O1898 C1897 1.251 . S
O1899 Tb1881 2.441 . S
O1899 C1894 1.244 . S
O1900 Tb1901 2.506 . S
O1900 C1914 1.265 . S
Tb1901 O1900 2.506 . S
Tb1901 O1906 2.312 . S
Tb1901 O1910 2.271 . S
Tb1901 O1912 2.338 . S
Tb1901 O1919 2.441 . S
C1902 O1910 1.252 . S
C1902 O1911 1.253 . S
O1903 Tb1904 2.271 . S
O1903 C1913 1.252 . S
Tb1904 O1903 2.271 . S
Tb1904 O1907 2.338 . S
Tb1904 O1911 2.312 . S
Tb1904 O1915 2.441 . S
Tb1904 O1916 2.506 . S
C1905 O1915 1.244 . S
C1905 O1916 1.265 . S
O1906 Tb1901 2.312 . S
O1906 C1913 1.253 . S
O1907 Tb1904 2.338 . S
O1907 C1908 1.258 . S
C1908 O1907 1.258 . S
C1908 O1909 1.251 . S
O1909 C1908 1.251 . S
O1910 Tb1901 2.271 . S
O1910 C1902 1.252 . S
O1911 C1902 1.253 . S
O1911 Tb1904 2.312 . S
O1912 Tb1901 2.338 . S
O1912 C1917 1.258 . S
C1913 O1903 1.252 . S
C1913 O1906 1.253 . S
C1914 O1900 1.265 . S
C1914 O1919 1.244 . S
O1915 Tb1904 2.441 . S
O1915 C1905 1.244 . S
O1916 Tb1904 2.506 . S
O1916 C1905 1.265 . S
C1917 O1912 1.258 . S
C1917 O1918 1.251 . S
O1918 C1917 1.251 . S
O1919 Tb1901 2.441 . S
O1919 C1914 1.244 . S
C1920 C1921 1.369 . S
C1920 C1922 1.419 . S
C1920 H1924 0.930 . S
C1921 C1920 1.369 . S
C1921 C1930 1.429 . S
C1922 C1920 1.419 . S
C1922 C1923 1.363 . S
C1922 H1925 0.929 . S
C1923 C1922 1.363 . S
C1923 C1929 1.428 . S
H1924 C1920 0.930 . S
H1925 C1922 0.929 . S
S1926 N1927 1.613 . S
S1926 N1928 1.610 . S
N1927 S1926 1.613 . S
N1927 C1930 1.350 . S
N1928 S1926 1.610 . S
N1928 C1929 1.351 . S
C1929 C1923 1.428 . S
C1929 N1928 1.351 . S
C1929 C1930 1.434 . S
C1930 C1921 1.429 . S
C1930 N1927 1.350 . S
C1930 C1929 1.434 . S
C1931 C1932 1.369 . S
C1931 C1933 1.419 . S
C1931 H1935 0.930 . S
C1932 C1931 1.369 . S
C1932 C1941 1.429 . S
C1933 C1931 1.419 . S
C1933 C1934 1.363 . S
C1933 H1936 0.929 . S
C1934 C1933 1.363 . S
C1934 C1940 1.428 . S
H1935 C1931 0.930 . S
H1936 C1933 0.929 . S
S1937 N1938 1.613 . S
S1937 N1939 1.610 . S
N1938 S1937 1.613 . S
N1938 C1941 1.350 . S
N1939 S1937 1.610 . S
N1939 C1940 1.351 . S
C1940 C1934 1.428 . S
C1940 N1939 1.351 . S
C1940 C1941 1.434 . S
C1941 C1932 1.429 . S
C1941 N1938 1.350 . S
C1941 C1940 1.434 . S
C1942 C1943 1.369 . S
C1942 C1944 1.419 . S
C1942 H1946 0.930 . S
C1943 C1942 1.369 . S
C1943 C1952 1.429 . S
C1944 C1942 1.419 . S
C1944 C1945 1.363 . S
C1944 H1947 0.929 . S
C1945 C1944 1.363 . S
C1945 C1951 1.428 . S
H1946 C1942 0.930 . S
H1947 C1944 0.929 . S
S1948 N1949 1.613 . S
S1948 N1950 1.610 . S
N1949 S1948 1.613 . S
N1949 C1952 1.350 . S
N1950 S1948 1.610 . S
N1950 C1951 1.351 . S
C1951 C1945 1.428 . S
C1951 N1950 1.351 . S
C1951 C1952 1.434 . S
C1952 C1943 1.429 . S
C1952 N1949 1.350 . S
C1952 C1951 1.434 . S
C1953 C1954 1.369 . S
C1953 C1955 1.419 . S
C1953 H1957 0.930 . S
C1954 C1953 1.369 . S
C1954 C1963 1.429 . S
C1955 C1953 1.419 . S
C1955 C1956 1.363 . S
C1955 H1958 0.929 . S
C1956 C1955 1.363 . S
C1956 C1962 1.428 . S
H1957 C1953 0.930 . S
H1958 C1955 0.929 . S
S1959 N1960 1.613 . S
S1959 N1961 1.610 . S
N1960 S1959 1.613 . S
N1960 C1963 1.350 . S
N1961 S1959 1.610 . S
N1961 C1962 1.351 . S
C1962 C1956 1.428 . S
C1962 N1961 1.351 . S
C1962 C1963 1.434 . S
C1963 C1954 1.429 . S
C1963 N1960 1.350 . S
C1963 C1962 1.434 . S
C1964 C1965 1.369 . S
C1964 C1966 1.419 . S
C1964 H1968 0.930 . S
C1965 C1964 1.369 . S
C1965 C1974 1.429 . S
C1966 C1964 1.419 . S
C1966 C1967 1.363 . S
C1966 H1969 0.929 . S
C1967 C1966 1.363 . S
C1967 C1973 1.428 . S
H1968 C1964 0.930 . S
H1969 C1966 0.929 . S
S1970 N1971 1.613 . S
S1970 N1972 1.610 . S
N1971 S1970 1.613 . S
N1971 C1974 1.350 . S
N1972 S1970 1.610 . S
N1972 C1973 1.351 . S
C1973 C1967 1.428 . S
C1973 N1972 1.351 . S
C1973 C1974 1.434 . S
C1974 C1965 1.429 . S
C1974 N1971 1.350 . S
C1974 C1973 1.434 . S
C1975 C1976 1.369 . S
C1975 C1977 1.419 . S
C1975 H1979 0.930 . S
C1976 C1975 1.369 . S
C1976 C1985 1.429 . S
C1977 C1975 1.419 . S
C1977 C1978 1.363 . S
C1977 H1980 0.929 . S
C1978 C1977 1.363 . S
C1978 C1984 1.428 . S
H1979 C1975 0.930 . S
H1980 C1977 0.929 . S
S1981 N1982 1.613 . S
S1981 N1983 1.610 . S
N1982 S1981 1.613 . S
N1982 C1985 1.350 . S
N1983 S1981 1.610 . S
N1983 C1984 1.351 . S
C1984 C1978 1.428 . S
C1984 N1983 1.351 . S
C1984 C1985 1.434 . S
C1985 C1976 1.429 . S
C1985 N1982 1.350 . S
C1985 C1984 1.434 . S
C1986 C1987 1.369 . S
C1986 C1988 1.419 . S
C1986 H1990 0.930 . S
C1987 C1986 1.369 . S
C1987 C1996 1.429 . S
C1988 C1986 1.419 . S
C1988 C1989 1.363 . S
C1988 H1991 0.929 . S
C1989 C1988 1.363 . S
C1989 C1995 1.428 . S
H1990 C1986 0.930 . S
H1991 C1988 0.929 . S
S1992 N1993 1.613 . S
S1992 N1994 1.610 . S
N1993 S1992 1.613 . S
N1993 C1996 1.350 . S
N1994 S1992 1.610 . S
N1994 C1995 1.351 . S
C1995 C1989 1.428 . S
C1995 N1994 1.351 . S
C1995 C1996 1.434 . S
C1996 C1987 1.429 . S
C1996 N1993 1.350 . S
C1996 C1995 1.434 . S
C1997 C1998 1.369 . S
C1997 C1999 1.419 . S
C1997 H2001 0.930 . S
C1998 C1997 1.369 . S
C1998 C2007 1.429 . S
C1999 C1997 1.419 . S
C1999 C2000 1.363 . S
C1999 H2002 0.929 . S
C2000 C1999 1.363 . S
C2000 C2006 1.428 . S
H2001 C1997 0.930 . S
H2002 C1999 0.929 . S
S2003 N2004 1.613 . S
S2003 N2005 1.610 . S
N2004 S2003 1.613 . S
N2004 C2007 1.350 . S
N2005 S2003 1.610 . S
N2005 C2006 1.351 . S
C2006 C2000 1.428 . S
C2006 N2005 1.351 . S
C2006 C2007 1.434 . S
C2007 C1998 1.429 . S
C2007 N2004 1.350 . S
C2007 C2006 1.434 . S
C2008 C2009 1.369 . S
C2008 C2010 1.419 . S
C2008 H2012 0.930 . S
C2009 C2008 1.369 . S
C2009 C2018 1.429 . S
C2010 C2008 1.419 . S
C2010 C2011 1.363 . S
C2010 H2013 0.929 . S
C2011 C2010 1.363 . S
C2011 C2017 1.428 . S
H2012 C2008 0.930 . S
H2013 C2010 0.929 . S
S2014 N2015 1.613 . S
S2014 N2016 1.610 . S
N2015 S2014 1.613 . S
N2015 C2018 1.350 . S
N2016 S2014 1.610 . S
N2016 C2017 1.351 . S
C2017 C2011 1.428 . S
C2017 N2016 1.351 . S
C2017 C2018 1.434 . S
C2018 C2009 1.429 . S
C2018 N2015 1.350 . S
C2018 C2017 1.434 . S
C2019 C2020 1.369 . S
C2019 C2021 1.419 . S
C2019 H2023 0.930 . S
C2020 C2019 1.369 . S
C2020 C2029 1.429 . S
C2021 C2019 1.419 . S
C2021 C2022 1.363 . S
C2021 H2024 0.929 . S
C2022 C2021 1.363 . S
C2022 C2028 1.428 . S
H2023 C2019 0.930 . S
H2024 C2021 0.929 . S
S2025 N2026 1.613 . S
S2025 N2027 1.610 . S
N2026 S2025 1.613 . S
N2026 C2029 1.350 . S
N2027 S2025 1.610 . S
N2027 C2028 1.351 . S
C2028 C2022 1.428 . S
C2028 N2027 1.351 . S
C2028 C2029 1.434 . S
C2029 C2020 1.429 . S
C2029 N2026 1.350 . S
C2029 C2028 1.434 . S
C2030 C2031 1.369 . S
C2030 C2032 1.419 . S
C2030 H2034 0.930 . S
C2031 C2030 1.369 . S
C2031 C2040 1.429 . S
C2032 C2030 1.419 . S
C2032 C2033 1.363 . S
C2032 H2035 0.929 . S
C2033 C2032 1.363 . S
C2033 C2039 1.428 . S
H2034 C2030 0.930 . S
H2035 C2032 0.929 . S
S2036 N2037 1.613 . S
S2036 N2038 1.610 . S
N2037 S2036 1.613 . S
N2037 C2040 1.350 . S
N2038 S2036 1.610 . S
N2038 C2039 1.351 . S
C2039 C2033 1.428 . S
C2039 N2038 1.351 . S
C2039 C2040 1.434 . S
C2040 C2031 1.429 . S
C2040 N2037 1.350 . S
C2040 C2039 1.434 . S
C2041 C2042 1.369 . S
C2041 C2043 1.419 . S
C2041 H2045 0.930 . S
C2042 C2041 1.369 . S
C2042 C2051 1.429 . S
C2043 C2041 1.419 . S
C2043 C2044 1.363 . S
C2043 H2046 0.929 . S
C2044 C2043 1.363 . S
C2044 C2050 1.428 . S
H2045 C2041 0.930 . S
H2046 C2043 0.929 . S
S2047 N2048 1.613 . S
S2047 N2049 1.610 . S
N2048 S2047 1.613 . S
N2048 C2051 1.350 . S
N2049 S2047 1.610 . S
N2049 C2050 1.351 . S
C2050 C2044 1.428 . S
C2050 N2049 1.351 . S
C2050 C2051 1.434 . S
C2051 C2042 1.429 . S
C2051 N2048 1.350 . S
C2051 C2050 1.434 . S
C2052 C2053 1.369 . S
C2052 C2054 1.419 . S
C2052 H2056 0.930 . S
C2053 C2052 1.369 . S
C2053 C2062 1.429 . S
C2054 C2052 1.419 . S
C2054 C2055 1.363 . S
C2054 H2057 0.929 . S
C2055 C2054 1.363 . S
C2055 C2061 1.428 . S
H2056 C2052 0.930 . S
H2057 C2054 0.929 . S
S2058 N2059 1.613 . S
S2058 N2060 1.610 . S
N2059 S2058 1.613 . S
N2059 C2062 1.350 . S
N2060 S2058 1.610 . S
N2060 C2061 1.351 . S
C2061 C2055 1.428 . S
C2061 N2060 1.351 . S
C2061 C2062 1.434 . S
C2062 C2053 1.429 . S
C2062 N2059 1.350 . S
C2062 C2061 1.434 . S
C2063 C2064 1.369 . S
C2063 C2065 1.419 . S
C2063 H2067 0.930 . S
C2064 C2063 1.369 . S
C2064 C2073 1.429 . S
C2065 C2063 1.419 . S
C2065 C2066 1.363 . S
C2065 H2068 0.929 . S
C2066 C2065 1.363 . S
C2066 C2072 1.428 . S
H2067 C2063 0.930 . S
H2068 C2065 0.929 . S
S2069 N2070 1.613 . S
S2069 N2071 1.610 . S
N2070 S2069 1.613 . S
N2070 C2073 1.350 . S
N2071 S2069 1.610 . S
N2071 C2072 1.351 . S
C2072 C2066 1.428 . S
C2072 N2071 1.351 . S
C2072 C2073 1.434 . S
C2073 C2064 1.429 . S
C2073 N2070 1.350 . S
C2073 C2072 1.434 . S
C2074 C2075 1.369 . S
C2074 C2076 1.419 . S
C2074 H2078 0.930 . S
C2075 C2074 1.369 . S
C2075 C2084 1.429 . S
C2076 C2074 1.419 . S
C2076 C2077 1.363 . S
C2076 H2079 0.929 . S
C2077 C2076 1.363 . S
C2077 C2083 1.428 . S
H2078 C2074 0.930 . S
H2079 C2076 0.929 . S
S2080 N2081 1.613 . S
S2080 N2082 1.610 . S
N2081 S2080 1.613 . S
N2081 C2084 1.350 . S
N2082 S2080 1.610 . S
N2082 C2083 1.351 . S
C2083 C2077 1.428 . S
C2083 N2082 1.351 . S
C2083 C2084 1.434 . S
C2084 C2075 1.429 . S
C2084 N2081 1.350 . S
C2084 C2083 1.434 . S
C2085 C2086 1.369 . S
C2085 C2087 1.419 . S
C2085 H2089 0.930 . S
C2086 C2085 1.369 . S
C2086 C2095 1.429 . S
C2087 C2085 1.419 . S
C2087 C2088 1.363 . S
C2087 H2090 0.929 . S
C2088 C2087 1.363 . S
C2088 C2094 1.428 . S
H2089 C2085 0.930 . S
H2090 C2087 0.929 . S
S2091 N2092 1.613 . S
S2091 N2093 1.610 . S
N2092 S2091 1.613 . S
N2092 C2095 1.350 . S
N2093 S2091 1.610 . S
N2093 C2094 1.351 . S
C2094 C2088 1.428 . S
C2094 N2093 1.351 . S
C2094 C2095 1.434 . S
C2095 C2086 1.429 . S
C2095 N2092 1.350 . S
C2095 C2094 1.434 . S
C2096 C2097 1.369 . S
C2096 C2098 1.419 . S
C2096 H2100 0.930 . S
C2097 C2096 1.369 . S
C2097 C2106 1.429 . S
C2098 C2096 1.419 . S
C2098 C2099 1.363 . S
C2098 H2101 0.929 . S
C2099 C2098 1.363 . S
C2099 C2105 1.428 . S
H2100 C2096 0.930 . S
H2101 C2098 0.929 . S
S2102 N2103 1.613 . S
S2102 N2104 1.610 . S
N2103 S2102 1.613 . S
N2103 C2106 1.350 . S
N2104 S2102 1.610 . S
N2104 C2105 1.351 . S
C2105 C2099 1.428 . S
C2105 N2104 1.351 . S
C2105 C2106 1.434 . S
C2106 C2097 1.429 . S
C2106 N2103 1.350 . S
C2106 C2105 1.434 . S
C2107 C2108 1.369 . S
C2107 C2109 1.419 . S
C2107 H2111 0.930 . S
C2108 C2107 1.369 . S
C2108 C2117 1.429 . S
C2109 C2107 1.419 . S
C2109 C2110 1.363 . S
C2109 H2112 0.929 . S
C2110 C2109 1.363 . S
C2110 C2116 1.428 . S
H2111 C2107 0.930 . S
H2112 C2109 0.929 . S
S2113 N2114 1.613 . S
S2113 N2115 1.610 . S
N2114 S2113 1.613 . S
N2114 C2117 1.350 . S
N2115 S2113 1.610 . S
N2115 C2116 1.351 . S
C2116 C2110 1.428 . S
C2116 N2115 1.351 . S
C2116 C2117 1.434 . S
C2117 C2108 1.429 . S
C2117 N2114 1.350 . S
C2117 C2116 1.434 . S
C2118 C2119 1.369 . S
C2118 C2120 1.419 . S
C2118 H2122 0.930 . S
C2119 C2118 1.369 . S
C2119 C2128 1.429 . S
C2120 C2118 1.419 . S
C2120 C2121 1.363 . S
C2120 H2123 0.929 . S
C2121 C2120 1.363 . S
C2121 C2127 1.428 . S
H2122 C2118 0.930 . S
H2123 C2120 0.929 . S
S2124 N2125 1.613 . S
S2124 N2126 1.610 . S
N2125 S2124 1.613 . S
N2125 C2128 1.350 . S
N2126 S2124 1.610 . S
N2126 C2127 1.351 . S
C2127 C2121 1.428 . S
C2127 N2126 1.351 . S
C2127 C2128 1.434 . S
C2128 C2119 1.429 . S
C2128 N2125 1.350 . S
C2128 C2127 1.434 . S
C2129 C2130 1.369 . S
C2129 C2131 1.419 . S
C2129 H2133 0.930 . S
C2130 C2129 1.369 . S
C2130 C2139 1.429 . S
C2131 C2129 1.419 . S
C2131 C2132 1.363 . S
C2131 H2134 0.929 . S
C2132 C2131 1.363 . S
C2132 C2138 1.428 . S
H2133 C2129 0.930 . S
H2134 C2131 0.929 . S
S2135 N2136 1.613 . S
S2135 N2137 1.610 . S
N2136 S2135 1.613 . S
N2136 C2139 1.350 . S
N2137 S2135 1.610 . S
N2137 C2138 1.351 . S
C2138 C2132 1.428 . S
C2138 N2137 1.351 . S
C2138 C2139 1.434 . S
C2139 C2130 1.429 . S
C2139 N2136 1.350 . S
C2139 C2138 1.434 . S
C2140 C2141 1.369 . S
C2140 C2142 1.419 . S
C2140 H2144 0.930 . S
C2141 C2140 1.369 . S
C2141 C2150 1.429 . S
C2142 C2140 1.419 . S
C2142 C2143 1.363 . S
C2142 H2145 0.929 . S
C2143 C2142 1.363 . S
C2143 C2149 1.428 . S
H2144 C2140 0.930 . S
H2145 C2142 0.929 . S
S2146 N2147 1.613 . S
S2146 N2148 1.610 . S
N2147 S2146 1.613 . S
N2147 C2150 1.350 . S
N2148 S2146 1.610 . S
N2148 C2149 1.351 . S
C2149 C2143 1.428 . S
C2149 N2148 1.351 . S
C2149 C2150 1.434 . S
C2150 C2141 1.429 . S
C2150 N2147 1.350 . S
C2150 C2149 1.434 . S
C2151 C2152 1.369 . S
C2151 C2153 1.419 . S
C2151 H2155 0.930 . S
C2152 C2151 1.369 . S
C2152 C2161 1.429 . S
C2153 C2151 1.419 . S
C2153 C2154 1.363 . S
C2153 H2156 0.929 . S
C2154 C2153 1.363 . S
C2154 C2160 1.428 . S
H2155 C2151 0.930 . S
H2156 C2153 0.929 . S
S2157 N2158 1.613 . S
S2157 N2159 1.610 . S
N2158 S2157 1.613 . S
N2158 C2161 1.350 . S
N2159 S2157 1.610 . S
N2159 C2160 1.351 . S
C2160 C2154 1.428 . S
C2160 N2159 1.351 . S
C2160 C2161 1.434 . S
C2161 C2152 1.429 . S
C2161 N2158 1.350 . S
C2161 C2160 1.434 . S
C2162 C2163 1.369 . S
C2162 C2164 1.419 . S
C2162 H2166 0.930 . S
C2163 C2162 1.369 . S
C2163 C2172 1.429 . S
C2164 C2162 1.419 . S
C2164 C2165 1.363 . S
C2164 H2167 0.929 . S
C2165 C2164 1.363 . S
C2165 C2171 1.428 . S
H2166 C2162 0.930 . S
H2167 C2164 0.929 . S
S2168 N2169 1.613 . S
S2168 N2170 1.610 . S
N2169 S2168 1.613 . S
N2169 C2172 1.350 . S
N2170 S2168 1.610 . S
N2170 C2171 1.351 . S
C2171 C2165 1.428 . S
C2171 N2170 1.351 . S
C2171 C2172 1.434 . S
C2172 C2163 1.429 . S
C2172 N2169 1.350 . S
C2172 C2171 1.434 . S
C2173 C2174 1.369 . S
C2173 C2175 1.419 . S
C2173 H2177 0.930 . S
C2174 C2173 1.369 . S
C2174 C2183 1.429 . S
C2175 C2173 1.419 . S
C2175 C2176 1.363 . S
C2175 H2178 0.929 . S
C2176 C2175 1.363 . S
C2176 C2182 1.428 . S
H2177 C2173 0.930 . S
H2178 C2175 0.929 . S
S2179 N2180 1.613 . S
S2179 N2181 1.610 . S
N2180 S2179 1.613 . S
N2180 C2183 1.350 . S
N2181 S2179 1.610 . S
N2181 C2182 1.351 . S
C2182 C2176 1.428 . S
C2182 N2181 1.351 . S
C2182 C2183 1.434 . S
C2183 C2174 1.429 . S
C2183 N2180 1.350 . S
C2183 C2182 1.434 . S
C2184 C2185 1.369 . S
C2184 C2186 1.419 . S
C2184 H2188 0.930 . S
C2185 C2184 1.369 . S
C2185 C2194 1.429 . S
C2186 C2184 1.419 . S
C2186 C2187 1.363 . S
C2186 H2189 0.929 . S
C2187 C2186 1.363 . S
C2187 C2193 1.428 . S
H2188 C2184 0.930 . S
H2189 C2186 0.929 . S
S2190 N2191 1.613 . S
S2190 N2192 1.610 . S
N2191 S2190 1.613 . S
N2191 C2194 1.350 . S
N2192 S2190 1.610 . S
N2192 C2193 1.351 . S
C2193 C2187 1.428 . S
C2193 N2192 1.351 . S
C2193 C2194 1.434 . S
C2194 C2185 1.429 . S
C2194 N2191 1.350 . S
C2194 C2193 1.434 . S
C2195 C2196 1.369 . S
C2195 C2197 1.419 . S
C2195 H2199 0.930 . S
C2196 C2195 1.369 . S
C2196 C2205 1.429 . S
C2197 C2195 1.419 . S
C2197 C2198 1.363 . S
C2197 H2200 0.929 . S
C2198 C2197 1.363 . S
C2198 C2204 1.428 . S
H2199 C2195 0.930 . S
H2200 C2197 0.929 . S
S2201 N2202 1.613 . S
S2201 N2203 1.610 . S
N2202 S2201 1.613 . S
N2202 C2205 1.350 . S
N2203 S2201 1.610 . S
N2203 C2204 1.351 . S
C2204 C2198 1.428 . S
C2204 N2203 1.351 . S
C2204 C2205 1.434 . S
C2205 C2196 1.429 . S
C2205 N2202 1.350 . S
C2205 C2204 1.434 . S
C2206 C2207 1.369 . S
C2206 C2208 1.419 . S
C2206 H2210 0.930 . S
C2207 C2206 1.369 . S
C2207 C2216 1.429 . S
C2208 C2206 1.419 . S
C2208 C2209 1.363 . S
C2208 H2211 0.929 . S
C2209 C2208 1.363 . S
C2209 C2215 1.428 . S
H2210 C2206 0.930 . S
H2211 C2208 0.929 . S
S2212 N2213 1.613 . S
S2212 N2214 1.610 . S
N2213 S2212 1.613 . S
N2213 C2216 1.350 . S
N2214 S2212 1.610 . S
N2214 C2215 1.351 . S
C2215 C2209 1.428 . S
C2215 N2214 1.351 . S
C2215 C2216 1.434 . S
C2216 C2207 1.429 . S
C2216 N2213 1.350 . S
C2216 C2215 1.434 . S
C2217 C2218 1.369 . S
C2217 C2219 1.419 . S
C2217 H2221 0.930 . S
C2218 C2217 1.369 . S
C2218 C2227 1.429 . S
C2219 C2217 1.419 . S
C2219 C2220 1.363 . S
C2219 H2222 0.929 . S
C2220 C2219 1.363 . S
C2220 C2226 1.428 . S
H2221 C2217 0.930 . S
H2222 C2219 0.929 . S
S2223 N2224 1.613 . S
S2223 N2225 1.610 . S
N2224 S2223 1.613 . S
N2224 C2227 1.350 . S
N2225 S2223 1.610 . S
N2225 C2226 1.351 . S
C2226 C2220 1.428 . S
C2226 N2225 1.351 . S
C2226 C2227 1.434 . S
C2227 C2218 1.429 . S
C2227 N2224 1.350 . S
C2227 C2226 1.434 . S
C2228 C2229 1.369 . S
C2228 C2230 1.419 . S
C2228 H2232 0.930 . S
C2229 C2228 1.369 . S
C2229 C2238 1.429 . S
C2230 C2228 1.419 . S
C2230 C2231 1.363 . S
C2230 H2233 0.929 . S
C2231 C2230 1.363 . S
C2231 C2237 1.428 . S
H2232 C2228 0.930 . S
H2233 C2230 0.929 . S
S2234 N2235 1.613 . S
S2234 N2236 1.610 . S
N2235 S2234 1.613 . S
N2235 C2238 1.350 . S
N2236 S2234 1.610 . S
N2236 C2237 1.351 . S
C2237 C2231 1.428 . S
C2237 N2236 1.351 . S
C2237 C2238 1.434 . S
C2238 C2229 1.429 . S
C2238 N2235 1.350 . S
C2238 C2237 1.434 . S
C2239 C2240 1.369 . S
C2239 C2241 1.419 . S
C2239 H2243 0.930 . S
C2240 C2239 1.369 . S
C2240 C2249 1.429 . S
C2241 C2239 1.419 . S
C2241 C2242 1.363 . S
C2241 H2244 0.929 . S
C2242 C2241 1.363 . S
C2242 C2248 1.428 . S
H2243 C2239 0.930 . S
H2244 C2241 0.929 . S
S2245 N2246 1.613 . S
S2245 N2247 1.610 . S
N2246 S2245 1.613 . S
N2246 C2249 1.350 . S
N2247 S2245 1.610 . S
N2247 C2248 1.351 . S
C2248 C2242 1.428 . S
C2248 N2247 1.351 . S
C2248 C2249 1.434 . S
C2249 C2240 1.429 . S
C2249 N2246 1.350 . S
C2249 C2248 1.434 . S
C2250 C2251 1.369 . S
C2250 C2252 1.419 . S
C2250 H2254 0.930 . S
C2251 C2250 1.369 . S
C2251 C2260 1.429 . S
C2252 C2250 1.419 . S
C2252 C2253 1.363 . S
C2252 H2255 0.929 . S
C2253 C2252 1.363 . S
C2253 C2259 1.428 . S
H2254 C2250 0.930 . S
H2255 C2252 0.929 . S
S2256 N2257 1.613 . S
S2256 N2258 1.610 . S
N2257 S2256 1.613 . S
N2257 C2260 1.350 . S
N2258 S2256 1.610 . S
N2258 C2259 1.351 . S
C2259 C2253 1.428 . S
C2259 N2258 1.351 . S
C2259 C2260 1.434 . S
C2260 C2251 1.429 . S
C2260 N2257 1.350 . S
C2260 C2259 1.434 . S
C2261 C2262 1.369 . S
C2261 C2263 1.419 . S
C2261 H2265 0.930 . S
C2262 C2261 1.369 . S
C2262 C2271 1.429 . S
C2263 C2261 1.419 . S
C2263 C2264 1.363 . S
C2263 H2266 0.929 . S
C2264 C2263 1.363 . S
C2264 C2270 1.428 . S
H2265 C2261 0.930 . S
H2266 C2263 0.929 . S
S2267 N2268 1.613 . S
S2267 N2269 1.610 . S
N2268 S2267 1.613 . S
N2268 C2271 1.350 . S
N2269 S2267 1.610 . S
N2269 C2270 1.351 . S
C2270 C2264 1.428 . S
C2270 N2269 1.351 . S
C2270 C2271 1.434 . S
C2271 C2262 1.429 . S
C2271 N2268 1.350 . S
C2271 C2270 1.434 . S
C2272 C2273 1.369 . S
C2272 C2274 1.419 . S
C2272 H2276 0.930 . S
C2273 C2272 1.369 . S
C2273 C2282 1.429 . S
C2274 C2272 1.419 . S
C2274 C2275 1.363 . S
C2274 H2277 0.929 . S
C2275 C2274 1.363 . S
C2275 C2281 1.428 . S
H2276 C2272 0.930 . S
H2277 C2274 0.929 . S
S2278 N2279 1.613 . S
S2278 N2280 1.610 . S
N2279 S2278 1.613 . S
N2279 C2282 1.350 . S
N2280 S2278 1.610 . S
N2280 C2281 1.351 . S
C2281 C2275 1.428 . S
C2281 N2280 1.351 . S
C2281 C2282 1.434 . S
C2282 C2273 1.429 . S
C2282 N2279 1.350 . S
C2282 C2281 1.434 . S
C2283 C2284 1.369 . S
C2283 C2285 1.419 . S
C2283 H2287 0.930 . S
C2284 C2283 1.369 . S
C2284 C2293 1.429 . S
C2285 C2283 1.419 . S
C2285 C2286 1.363 . S
C2285 H2288 0.929 . S
C2286 C2285 1.363 . S
C2286 C2292 1.428 . S
H2287 C2283 0.930 . S
H2288 C2285 0.929 . S
S2289 N2290 1.613 . S
S2289 N2291 1.610 . S
N2290 S2289 1.613 . S
N2290 C2293 1.350 . S
N2291 S2289 1.610 . S
N2291 C2292 1.351 . S
C2292 C2286 1.428 . S
C2292 N2291 1.351 . S
C2292 C2293 1.434 . S
C2293 C2284 1.429 . S
C2293 N2290 1.350 . S
C2293 C2292 1.434 . S
C2294 C2295 1.369 . S
C2294 C2296 1.419 . S
C2294 H2298 0.930 . S
C2295 C2294 1.369 . S
C2295 C2304 1.429 . S
C2296 C2294 1.419 . S
C2296 C2297 1.363 . S
C2296 H2299 0.929 . S
C2297 C2296 1.363 . S
C2297 C2303 1.428 . S
H2298 C2294 0.930 . S
H2299 C2296 0.929 . S
S2300 N2301 1.613 . S
S2300 N2302 1.610 . S
N2301 S2300 1.613 . S
N2301 C2304 1.350 . S
N2302 S2300 1.610 . S
N2302 C2303 1.351 . S
C2303 C2297 1.428 . S
C2303 N2302 1.351 . S
C2303 C2304 1.434 . S
C2304 C2295 1.429 . S
C2304 N2301 1.350 . S
C2304 C2303 1.434 . S
C2305 C2306 1.369 . S
C2305 C2307 1.419 . S
C2305 H2309 0.930 . S
C2306 C2305 1.369 . S
C2306 C2315 1.429 . S
C2307 C2305 1.419 . S
C2307 C2308 1.363 . S
C2307 H2310 0.929 . S
C2308 C2307 1.363 . S
C2308 C2314 1.428 . S
H2309 C2305 0.930 . S
H2310 C2307 0.929 . S
S2311 N2312 1.613 . S
S2311 N2313 1.610 . S
N2312 S2311 1.613 . S
N2312 C2315 1.350 . S
N2313 S2311 1.610 . S
N2313 C2314 1.351 . S
C2314 C2308 1.428 . S
C2314 N2313 1.351 . S
C2314 C2315 1.434 . S
C2315 C2306 1.429 . S
C2315 N2312 1.350 . S
C2315 C2314 1.434 . S
C2316 C2317 1.369 . S
C2316 C2318 1.419 . S
C2316 H2320 0.930 . S
C2317 C2316 1.369 . S
C2317 C2326 1.429 . S
C2318 C2316 1.419 . S
C2318 C2319 1.363 . S
C2318 H2321 0.929 . S
C2319 C2318 1.363 . S
C2319 C2325 1.428 . S
H2320 C2316 0.930 . S
H2321 C2318 0.929 . S
S2322 N2323 1.613 . S
S2322 N2324 1.610 . S
N2323 S2322 1.613 . S
N2323 C2326 1.350 . S
N2324 S2322 1.610 . S
N2324 C2325 1.351 . S
C2325 C2319 1.428 . S
C2325 N2324 1.351 . S
C2325 C2326 1.434 . S
C2326 C2317 1.429 . S
C2326 N2323 1.350 . S
C2326 C2325 1.434 . S
C2327 C2328 1.369 . S
C2327 C2329 1.419 . S
C2327 H2331 0.930 . S
C2328 C2327 1.369 . S
C2328 C2337 1.429 . S
C2329 C2327 1.419 . S
C2329 C2330 1.363 . S
C2329 H2332 0.929 . S
C2330 C2329 1.363 . S
C2330 C2336 1.428 . S
H2331 C2327 0.930 . S
H2332 C2329 0.929 . S
S2333 N2334 1.613 . S
S2333 N2335 1.610 . S
N2334 S2333 1.613 . S
N2334 C2337 1.350 . S
N2335 S2333 1.610 . S
N2335 C2336 1.351 . S
C2336 C2330 1.428 . S
C2336 N2335 1.351 . S
C2336 C2337 1.434 . S
C2337 C2328 1.429 . S
C2337 N2334 1.350 . S
C2337 C2336 1.434 . S
C2338 C2339 1.369 . S
C2338 C2340 1.419 . S
C2338 H2342 0.930 . S
C2339 C2338 1.369 . S
C2339 C2348 1.429 . S
C2340 C2338 1.419 . S
C2340 C2341 1.363 . S
C2340 H2343 0.929 . S
C2341 C2340 1.363 . S
C2341 C2347 1.428 . S
H2342 C2338 0.930 . S
H2343 C2340 0.929 . S
S2344 N2345 1.613 . S
S2344 N2346 1.610 . S
N2345 S2344 1.613 . S
N2345 C2348 1.350 . S
N2346 S2344 1.610 . S
N2346 C2347 1.351 . S
C2347 C2341 1.428 . S
C2347 N2346 1.351 . S
C2347 C2348 1.434 . S
C2348 C2339 1.429 . S
C2348 N2345 1.350 . S
C2348 C2347 1.434 . S
C2349 C2350 1.369 . S
C2349 C2351 1.419 . S
C2349 H2353 0.930 . S
C2350 C2349 1.369 . S
C2350 C2359 1.429 . S
C2351 C2349 1.419 . S
C2351 C2352 1.363 . S
C2351 H2354 0.929 . S
C2352 C2351 1.363 . S
C2352 C2358 1.428 . S
H2353 C2349 0.930 . S
H2354 C2351 0.929 . S
S2355 N2356 1.613 . S
S2355 N2357 1.610 . S
N2356 S2355 1.613 . S
N2356 C2359 1.350 . S
N2357 S2355 1.610 . S
N2357 C2358 1.351 . S
C2358 C2352 1.428 . S
C2358 N2357 1.351 . S
C2358 C2359 1.434 . S
C2359 C2350 1.429 . S
C2359 N2356 1.350 . S
C2359 C2358 1.434 . S
C2360 C2361 1.369 . S
C2360 C2362 1.419 . S
C2360 H2364 0.930 . S
C2361 C2360 1.369 . S
C2361 C2370 1.429 . S
C2362 C2360 1.419 . S
C2362 C2363 1.363 . S
C2362 H2365 0.929 . S
C2363 C2362 1.363 . S
C2363 C2369 1.428 . S
H2364 C2360 0.930 . S
H2365 C2362 0.929 . S
S2366 N2367 1.613 . S
S2366 N2368 1.610 . S
N2367 S2366 1.613 . S
N2367 C2370 1.350 . S
N2368 S2366 1.610 . S
N2368 C2369 1.351 . S
C2369 C2363 1.428 . S
C2369 N2368 1.351 . S
C2369 C2370 1.434 . S
C2370 C2361 1.429 . S
C2370 N2367 1.350 . S
C2370 C2369 1.434 . S
C2371 C2372 1.369 . S
C2371 C2373 1.419 . S
C2371 H2375 0.930 . S
C2372 C2371 1.369 . S
C2372 C2381 1.429 . S
C2373 C2371 1.419 . S
C2373 C2374 1.363 . S
C2373 H2376 0.929 . S
C2374 C2373 1.363 . S
C2374 C2380 1.428 . S
H2375 C2371 0.930 . S
H2376 C2373 0.929 . S
S2377 N2378 1.613 . S
S2377 N2379 1.610 . S
N2378 S2377 1.613 . S
N2378 C2381 1.350 . S
N2379 S2377 1.610 . S
N2379 C2380 1.351 . S
C2380 C2374 1.428 . S
C2380 N2379 1.351 . S
C2380 C2381 1.434 . S
C2381 C2372 1.429 . S
C2381 N2378 1.350 . S
C2381 C2380 1.434 . S
C2382 C2383 1.369 . S
C2382 C2384 1.419 . S
C2382 H2386 0.930 . S
C2383 C2382 1.369 . S
C2383 C2392 1.429 . S
C2384 C2382 1.419 . S
C2384 C2385 1.363 . S
C2384 H2387 0.929 . S
C2385 C2384 1.363 . S
C2385 C2391 1.428 . S
H2386 C2382 0.930 . S
H2387 C2384 0.929 . S
S2388 N2389 1.613 . S
S2388 N2390 1.610 . S
N2389 S2388 1.613 . S
N2389 C2392 1.350 . S
N2390 S2388 1.610 . S
N2390 C2391 1.351 . S
C2391 C2385 1.428 . S
C2391 N2390 1.351 . S
C2391 C2392 1.434 . S
C2392 C2383 1.429 . S
C2392 N2389 1.350 . S
C2392 C2391 1.434 . S
C2393 C2394 1.369 . S
C2393 C2395 1.419 . S
C2393 H2397 0.930 . S
C2394 C2393 1.369 . S
C2394 C2403 1.429 . S
C2395 C2393 1.419 . S
C2395 C2396 1.363 . S
C2395 H2398 0.929 . S
C2396 C2395 1.363 . S
C2396 C2402 1.428 . S
H2397 C2393 0.930 . S
H2398 C2395 0.929 . S
S2399 N2400 1.613 . S
S2399 N2401 1.610 . S
N2400 S2399 1.613 . S
N2400 C2403 1.350 . S
N2401 S2399 1.610 . S
N2401 C2402 1.351 . S
C2402 C2396 1.428 . S
C2402 N2401 1.351 . S
C2402 C2403 1.434 . S
C2403 C2394 1.429 . S
C2403 N2400 1.350 . S
C2403 C2402 1.434 . S
C2404 C2405 1.369 . S
C2404 C2406 1.419 . S
C2404 H2408 0.930 . S
C2405 C2404 1.369 . S
C2405 C2414 1.429 . S
C2406 C2404 1.419 . S
C2406 C2407 1.363 . S
C2406 H2409 0.929 . S
C2407 C2406 1.363 . S
C2407 C2413 1.428 . S
H2408 C2404 0.930 . S
H2409 C2406 0.929 . S
S2410 N2411 1.613 . S
S2410 N2412 1.610 . S
N2411 S2410 1.613 . S
N2411 C2414 1.350 . S
N2412 S2410 1.610 . S
N2412 C2413 1.351 . S
C2413 C2407 1.428 . S
C2413 N2412 1.351 . S
C2413 C2414 1.434 . S
C2414 C2405 1.429 . S
C2414 N2411 1.350 . S
C2414 C2413 1.434 . S
C2415 C2416 1.369 . S
C2415 C2417 1.419 . S
C2415 H2419 0.930 . S
C2416 C2415 1.369 . S
C2416 C2425 1.429 . S
C2417 C2415 1.419 . S
C2417 C2418 1.363 . S
C2417 H2420 0.929 . S
C2418 C2417 1.363 . S
C2418 C2424 1.428 . S
H2419 C2415 0.930 . S
H2420 C2417 0.929 . S
S2421 N2422 1.613 . S
S2421 N2423 1.610 . S
N2422 S2421 1.613 . S
N2422 C2425 1.350 . S
N2423 S2421 1.610 . S
N2423 C2424 1.351 . S
C2424 C2418 1.428 . S
C2424 N2423 1.351 . S
C2424 C2425 1.434 . S
C2425 C2416 1.429 . S
C2425 N2422 1.350 . S
C2425 C2424 1.434 . S
C2426 C2427 1.369 . S
C2426 C2428 1.419 . S
C2426 H2430 0.930 . S
C2427 C2426 1.369 . S
C2427 C2436 1.429 . S
C2428 C2426 1.419 . S
C2428 C2429 1.363 . S
C2428 H2431 0.929 . S
C2429 C2428 1.363 . S
C2429 C2435 1.428 . S
H2430 C2426 0.930 . S
H2431 C2428 0.929 . S
S2432 N2433 1.613 . S
S2432 N2434 1.610 . S
N2433 S2432 1.613 . S
N2433 C2436 1.350 . S
N2434 S2432 1.610 . S
N2434 C2435 1.351 . S
C2435 C2429 1.428 . S
C2435 N2434 1.351 . S
C2435 C2436 1.434 . S
C2436 C2427 1.429 . S
C2436 N2433 1.350 . S
C2436 C2435 1.434 . S
C2437 C2438 1.369 . S
C2437 C2439 1.419 . S
C2437 H2441 0.930 . S
C2438 C2437 1.369 . S
C2438 C2447 1.429 . S
C2439 C2437 1.419 . S
C2439 C2440 1.363 . S
C2439 H2442 0.929 . S
C2440 C2439 1.363 . S
C2440 C2446 1.428 . S
H2441 C2437 0.930 . S
H2442 C2439 0.929 . S
S2443 N2444 1.613 . S
S2443 N2445 1.610 . S
N2444 S2443 1.613 . S
N2444 C2447 1.350 . S
N2445 S2443 1.610 . S
N2445 C2446 1.351 . S
C2446 C2440 1.428 . S
C2446 N2445 1.351 . S
C2446 C2447 1.434 . S
C2447 C2438 1.429 . S
C2447 N2444 1.350 . S
C2447 C2446 1.434 . S
C2448 C2449 1.369 . S
C2448 C2450 1.419 . S
C2448 H2452 0.930 . S
C2449 C2448 1.369 . S
C2449 C2458 1.429 . S
C2450 C2448 1.419 . S
C2450 C2451 1.363 . S
C2450 H2453 0.929 . S
C2451 C2450 1.363 . S
C2451 C2457 1.428 . S
H2452 C2448 0.930 . S
H2453 C2450 0.929 . S
S2454 N2455 1.613 . S
S2454 N2456 1.610 . S
N2455 S2454 1.613 . S
N2455 C2458 1.350 . S
N2456 S2454 1.610 . S
N2456 C2457 1.351 . S
C2457 C2451 1.428 . S
C2457 N2456 1.351 . S
C2457 C2458 1.434 . S
C2458 C2449 1.429 . S
C2458 N2455 1.350 . S
C2458 C2457 1.434 . S
C2459 C2460 1.369 . S
C2459 C2461 1.419 . S
C2459 H2463 0.930 . S
C2460 C2459 1.369 . S
C2460 C2469 1.429 . S
C2461 C2459 1.419 . S
C2461 C2462 1.363 . S
C2461 H2464 0.929 . S
C2462 C2461 1.363 . S
C2462 C2468 1.428 . S
H2463 C2459 0.930 . S
H2464 C2461 0.929 . S
S2465 N2466 1.613 . S
S2465 N2467 1.610 . S
N2466 S2465 1.613 . S
N2466 C2469 1.350 . S
N2467 S2465 1.610 . S
N2467 C2468 1.351 . S
C2468 C2462 1.428 . S
C2468 N2467 1.351 . S
C2468 C2469 1.434 . S
C2469 C2460 1.429 . S
C2469 N2466 1.350 . S
C2469 C2468 1.434 . S
C2470 C2471 1.369 . S
C2470 C2472 1.419 . S
C2470 H2474 0.930 . S
C2471 C2470 1.369 . S
C2471 C2480 1.429 . S
C2472 C2470 1.419 . S
C2472 C2473 1.363 . S
C2472 H2475 0.929 . S
C2473 C2472 1.363 . S
C2473 C2479 1.428 . S
H2474 C2470 0.930 . S
H2475 C2472 0.929 . S
S2476 N2477 1.613 . S
S2476 N2478 1.610 . S
N2477 S2476 1.613 . S
N2477 C2480 1.350 . S
N2478 S2476 1.610 . S
N2478 C2479 1.351 . S
C2479 C2473 1.428 . S
C2479 N2478 1.351 . S
C2479 C2480 1.434 . S
C2480 C2471 1.429 . S
C2480 N2477 1.350 . S
C2480 C2479 1.434 . S
C2481 C2482 1.369 . S
C2481 C2483 1.419 . S
C2481 H2485 0.930 . S
C2482 C2481 1.369 . S
C2482 C2491 1.429 . S
C2483 C2481 1.419 . S
C2483 C2484 1.363 . S
C2483 H2486 0.929 . S
C2484 C2483 1.363 . S
C2484 C2490 1.428 . S
H2485 C2481 0.930 . S
H2486 C2483 0.929 . S
S2487 N2488 1.613 . S
S2487 N2489 1.610 . S
N2488 S2487 1.613 . S
N2488 C2491 1.350 . S
N2489 S2487 1.610 . S
N2489 C2490 1.351 . S
C2490 C2484 1.428 . S
C2490 N2489 1.351 . S
C2490 C2491 1.434 . S
C2491 C2482 1.429 . S
C2491 N2488 1.350 . S
C2491 C2490 1.434 . S
C2492 C2493 1.369 . S
C2492 C2494 1.419 . S
C2492 H2496 0.930 . S
C2493 C2492 1.369 . S
C2493 C2502 1.429 . S
C2494 C2492 1.419 . S
C2494 C2495 1.363 . S
C2494 H2497 0.929 . S
C2495 C2494 1.363 . S
C2495 C2501 1.428 . S
H2496 C2492 0.930 . S
H2497 C2494 0.929 . S
S2498 N2499 1.613 . S
S2498 N2500 1.610 . S
N2499 S2498 1.613 . S
N2499 C2502 1.350 . S
N2500 S2498 1.610 . S
N2500 C2501 1.351 . S
C2501 C2495 1.428 . S
C2501 N2500 1.351 . S
C2501 C2502 1.434 . S
C2502 C2493 1.429 . S
C2502 N2499 1.350 . S
C2502 C2501 1.434 . S
C2503 C2504 1.369 . S
C2503 C2505 1.419 . S
C2503 H2507 0.930 . S
C2504 C2503 1.369 . S
C2504 C2513 1.429 . S
C2505 C2503 1.419 . S
C2505 C2506 1.363 . S
C2505 H2508 0.929 . S
C2506 C2505 1.363 . S
C2506 C2512 1.428 . S
H2507 C2503 0.930 . S
H2508 C2505 0.929 . S
S2509 N2510 1.613 . S
S2509 N2511 1.610 . S
N2510 S2509 1.613 . S
N2510 C2513 1.350 . S
N2511 S2509 1.610 . S
N2511 C2512 1.351 . S
C2512 C2506 1.428 . S
C2512 N2511 1.351 . S
C2512 C2513 1.434 . S
C2513 C2504 1.429 . S
C2513 N2510 1.350 . S
C2513 C2512 1.434 . S
C2514 C2515 1.369 . S
C2514 C2516 1.419 . S
C2514 H2518 0.930 . S
C2515 C2514 1.369 . S
C2515 C2524 1.429 . S
C2516 C2514 1.419 . S
C2516 C2517 1.363 . S
C2516 H2519 0.929 . S
C2517 C2516 1.363 . S
C2517 C2523 1.428 . S
H2518 C2514 0.930 . S
H2519 C2516 0.929 . S
S2520 N2521 1.613 . S
S2520 N2522 1.610 . S
N2521 S2520 1.613 . S
N2521 C2524 1.350 . S
N2522 S2520 1.610 . S
N2522 C2523 1.351 . S
C2523 C2517 1.428 . S
C2523 N2522 1.351 . S
C2523 C2524 1.434 . S
C2524 C2515 1.429 . S
C2524 N2521 1.350 . S
C2524 C2523 1.434 . S
C2525 C2526 1.369 . S
C2525 C2527 1.419 . S
C2525 H2529 0.930 . S
C2526 C2525 1.369 . S
C2526 C2535 1.429 . S
C2527 C2525 1.419 . S
C2527 C2528 1.363 . S
C2527 H2530 0.929 . S
C2528 C2527 1.363 . S
C2528 C2534 1.428 . S
H2529 C2525 0.930 . S
H2530 C2527 0.929 . S
S2531 N2532 1.613 . S
S2531 N2533 1.610 . S
N2532 S2531 1.613 . S
N2532 C2535 1.350 . S
N2533 S2531 1.610 . S
N2533 C2534 1.351 . S
C2534 C2528 1.428 . S
C2534 N2533 1.351 . S
C2534 C2535 1.434 . S
C2535 C2526 1.429 . S
C2535 N2532 1.350 . S
C2535 C2534 1.434 . S
C2536 C2537 1.369 . S
C2536 C2538 1.419 . S
C2536 H2540 0.930 . S
C2537 C2536 1.369 . S
C2537 C2546 1.429 . S
C2538 C2536 1.419 . S
C2538 C2539 1.363 . S
C2538 H2541 0.929 . S
C2539 C2538 1.363 . S
C2539 C2545 1.428 . S
H2540 C2536 0.930 . S
H2541 C2538 0.929 . S
S2542 N2543 1.613 . S
S2542 N2544 1.610 . S
N2543 S2542 1.613 . S
N2543 C2546 1.350 . S
N2544 S2542 1.610 . S
N2544 C2545 1.351 . S
C2545 C2539 1.428 . S
C2545 N2544 1.351 . S
C2545 C2546 1.434 . S
C2546 C2537 1.429 . S
C2546 N2543 1.350 . S
C2546 C2545 1.434 . S
C2547 C2548 1.369 . S
C2547 C2549 1.419 . S
C2547 H2551 0.930 . S
C2548 C2547 1.369 . S
C2548 C2557 1.429 . S
C2549 C2547 1.419 . S
C2549 C2550 1.363 . S
C2549 H2552 0.929 . S
C2550 C2549 1.363 . S
C2550 C2556 1.428 . S
H2551 C2547 0.930 . S
H2552 C2549 0.929 . S
S2553 N2554 1.613 . S
S2553 N2555 1.610 . S
N2554 S2553 1.613 . S
N2554 C2557 1.350 . S
N2555 S2553 1.610 . S
N2555 C2556 1.351 . S
C2556 C2550 1.428 . S
C2556 N2555 1.351 . S
C2556 C2557 1.434 . S
C2557 C2548 1.429 . S
C2557 N2554 1.350 . S
C2557 C2556 1.434 . S
C2558 C2559 1.369 . S
C2558 C2560 1.419 . S
C2558 H2562 0.930 . S
C2559 C2558 1.369 . S
C2559 C2568 1.429 . S
C2560 C2558 1.419 . S
C2560 C2561 1.363 . S
C2560 H2563 0.929 . S
C2561 C2560 1.363 . S
C2561 C2567 1.428 . S
H2562 C2558 0.930 . S
H2563 C2560 0.929 . S
S2564 N2565 1.613 . S
S2564 N2566 1.610 . S
N2565 S2564 1.613 . S
N2565 C2568 1.350 . S
N2566 S2564 1.610 . S
N2566 C2567 1.351 . S
C2567 C2561 1.428 . S
C2567 N2566 1.351 . S
C2567 C2568 1.434 . S
C2568 C2559 1.429 . S
C2568 N2565 1.350 . S
C2568 C2567 1.434 . S
C2569 C2570 1.369 . S
C2569 C2571 1.419 . S
C2569 H2573 0.930 . S
C2570 C2569 1.369 . S
C2570 C2579 1.429 . S
C2571 C2569 1.419 . S
C2571 C2572 1.363 . S
C2571 H2574 0.929 . S
C2572 C2571 1.363 . S
C2572 C2578 1.428 . S
H2573 C2569 0.930 . S
H2574 C2571 0.929 . S
S2575 N2576 1.613 . S
S2575 N2577 1.610 . S
N2576 S2575 1.613 . S
N2576 C2579 1.350 . S
N2577 S2575 1.610 . S
N2577 C2578 1.351 . S
C2578 C2572 1.428 . S
C2578 N2577 1.351 . S
C2578 C2579 1.434 . S
C2579 C2570 1.429 . S
C2579 N2576 1.350 . S
C2579 C2578 1.434 . S
C2580 C2581 1.369 . S
C2580 C2582 1.419 . S
C2580 H2584 0.930 . S
C2581 C2580 1.369 . S
C2581 C2590 1.429 . S
C2582 C2580 1.419 . S
C2582 C2583 1.363 . S
C2582 H2585 0.929 . S
C2583 C2582 1.363 . S
C2583 C2589 1.428 . S
H2584 C2580 0.930 . S
H2585 C2582 0.929 . S
S2586 N2587 1.613 . S
S2586 N2588 1.610 . S
N2587 S2586 1.613 . S
N2587 C2590 1.350 . S
N2588 S2586 1.610 . S
N2588 C2589 1.351 . S
C2589 C2583 1.428 . S
C2589 N2588 1.351 . S
C2589 C2590 1.434 . S
C2590 C2581 1.429 . S
C2590 N2587 1.350 . S
C2590 C2589 1.434 . S
C2591 C2592 1.369 . S
C2591 C2593 1.419 . S
C2591 H2595 0.930 . S
C2592 C2591 1.369 . S
C2592 C2601 1.429 . S
C2593 C2591 1.419 . S
C2593 C2594 1.363 . S
C2593 H2596 0.929 . S
C2594 C2593 1.363 . S
C2594 C2600 1.428 . S
H2595 C2591 0.930 . S
H2596 C2593 0.929 . S
S2597 N2598 1.613 . S
S2597 N2599 1.610 . S
N2598 S2597 1.613 . S
N2598 C2601 1.350 . S
N2599 S2597 1.610 . S
N2599 C2600 1.351 . S
C2600 C2594 1.428 . S
C2600 N2599 1.351 . S
C2600 C2601 1.434 . S
C2601 C2592 1.429 . S
C2601 N2598 1.350 . S
C2601 C2600 1.434 . S
C2602 C2603 1.369 . S
C2602 C2604 1.419 . S
C2602 H2606 0.930 . S
C2603 C2602 1.369 . S
C2603 C2612 1.429 . S
C2604 C2602 1.419 . S
C2604 C2605 1.363 . S
C2604 H2607 0.929 . S
C2605 C2604 1.363 . S
C2605 C2611 1.428 . S
H2606 C2602 0.930 . S
H2607 C2604 0.929 . S
S2608 N2609 1.613 . S
S2608 N2610 1.610 . S
N2609 S2608 1.613 . S
N2609 C2612 1.350 . S
N2610 S2608 1.610 . S
N2610 C2611 1.351 . S
C2611 C2605 1.428 . S
C2611 N2610 1.351 . S
C2611 C2612 1.434 . S
C2612 C2603 1.429 . S
C2612 N2609 1.350 . S
C2612 C2611 1.434 . S
C2613 C2614 1.369 . S
C2613 C2615 1.419 . S
C2613 H2617 0.930 . S
C2614 C2613 1.369 . S
C2614 C2623 1.429 . S
C2615 C2613 1.419 . S
C2615 C2616 1.363 . S
C2615 H2618 0.929 . S
C2616 C2615 1.363 . S
C2616 C2622 1.428 . S
H2617 C2613 0.930 . S
H2618 C2615 0.929 . S
S2619 N2620 1.613 . S
S2619 N2621 1.610 . S
N2620 S2619 1.613 . S
N2620 C2623 1.350 . S
N2621 S2619 1.610 . S
N2621 C2622 1.351 . S
C2622 C2616 1.428 . S
C2622 N2621 1.351 . S
C2622 C2623 1.434 . S
C2623 C2614 1.429 . S
C2623 N2620 1.350 . S
C2623 C2622 1.434 . S
C2624 C2625 1.369 . S
C2624 C2626 1.419 . S
C2624 H2628 0.930 . S
C2625 C2624 1.369 . S
C2625 C2634 1.429 . S
C2626 C2624 1.419 . S
C2626 C2627 1.363 . S
C2626 H2629 0.929 . S
C2627 C2626 1.363 . S
C2627 C2633 1.428 . S
H2628 C2624 0.930 . S
H2629 C2626 0.929 . S
S2630 N2631 1.613 . S
S2630 N2632 1.610 . S
N2631 S2630 1.613 . S
N2631 C2634 1.350 . S
N2632 S2630 1.610 . S
N2632 C2633 1.351 . S
C2633 C2627 1.428 . S
C2633 N2632 1.351 . S
C2633 C2634 1.434 . S
C2634 C2625 1.429 . S
C2634 N2631 1.350 . S
C2634 C2633 1.434 . S
C2635 C2636 1.369 . S
C2635 C2637 1.419 . S
C2635 H2639 0.930 . S
C2636 C2635 1.369 . S
C2636 C2645 1.429 . S
C2637 C2635 1.419 . S
C2637 C2638 1.363 . S
C2637 H2640 0.929 . S
C2638 C2637 1.363 . S
C2638 C2644 1.428 . S
H2639 C2635 0.930 . S
H2640 C2637 0.929 . S
S2641 N2642 1.613 . S
S2641 N2643 1.610 . S
N2642 S2641 1.613 . S
N2642 C2645 1.350 . S
N2643 S2641 1.610 . S
N2643 C2644 1.351 . S
C2644 C2638 1.428 . S
C2644 N2643 1.351 . S
C2644 C2645 1.434 . S
C2645 C2636 1.429 . S
C2645 N2642 1.350 . S
C2645 C2644 1.434 . S
C2646 C2647 1.369 . S
C2646 C2648 1.419 . S
C2646 H2650 0.930 . S
C2647 C2646 1.369 . S
C2647 C2656 1.429 . S
C2648 C2646 1.419 . S
C2648 C2649 1.363 . S
C2648 H2651 0.929 . S
C2649 C2648 1.363 . S
C2649 C2655 1.428 . S
H2650 C2646 0.930 . S
H2651 C2648 0.929 . S
S2652 N2653 1.613 . S
S2652 N2654 1.610 . S
N2653 S2652 1.613 . S
N2653 C2656 1.350 . S
N2654 S2652 1.610 . S
N2654 C2655 1.351 . S
C2655 C2649 1.428 . S
C2655 N2654 1.351 . S
C2655 C2656 1.434 . S
C2656 C2647 1.429 . S
C2656 N2653 1.350 . S
C2656 C2655 1.434 . S
C2657 C2658 1.369 . S
C2657 C2659 1.419 . S
C2657 H2661 0.930 . S
C2658 C2657 1.369 . S
C2658 C2667 1.429 . S
C2659 C2657 1.419 . S
C2659 C2660 1.363 . S
C2659 H2662 0.929 . S
C2660 C2659 1.363 . S
C2660 C2666 1.428 . S
H2661 C2657 0.930 . S
H2662 C2659 0.929 . S
S2663 N2664 1.613 . S
S2663 N2665 1.610 . S
N2664 S2663 1.613 . S
N2664 C2667 1.350 . S
N2665 S2663 1.610 . S
N2665 C2666 1.351 . S
C2666 C2660 1.428 . S
C2666 N2665 1.351 . S
C2666 C2667 1.434 . S
C2667 C2658 1.429 . S
C2667 N2664 1.350 . S
C2667 C2666 1.434 . S
C2668 C2669 1.369 . S
C2668 C2670 1.419 . S
C2668 H2672 0.930 . S
C2669 C2668 1.369 . S
C2669 C2678 1.429 . S
C2670 C2668 1.419 . S
C2670 C2671 1.363 . S
C2670 H2673 0.929 . S
C2671 C2670 1.363 . S
C2671 C2677 1.428 . S
H2672 C2668 0.930 . S
H2673 C2670 0.929 . S
S2674 N2675 1.613 . S
S2674 N2676 1.610 . S
N2675 S2674 1.613 . S
N2675 C2678 1.350 . S
N2676 S2674 1.610 . S
N2676 C2677 1.351 . S
C2677 C2671 1.428 . S
C2677 N2676 1.351 . S
C2677 C2678 1.434 . S
C2678 C2669 1.429 . S
C2678 N2675 1.350 . S
C2678 C2677 1.434 . S
C2679 C2680 1.369 . S
C2679 C2681 1.419 . S
C2679 H2683 0.930 . S
C2680 C2679 1.369 . S
C2680 C2689 1.429 . S
C2681 C2679 1.419 . S
C2681 C2682 1.363 . S
C2681 H2684 0.929 . S
C2682 C2681 1.363 . S
C2682 C2688 1.428 . S
H2683 C2679 0.930 . S
H2684 C2681 0.929 . S
S2685 N2686 1.613 . S
S2685 N2687 1.610 . S
N2686 S2685 1.613 . S
N2686 C2689 1.350 . S
N2687 S2685 1.610 . S
N2687 C2688 1.351 . S
C2688 C2682 1.428 . S
C2688 N2687 1.351 . S
C2688 C2689 1.434 . S
C2689 C2680 1.429 . S
C2689 N2686 1.350 . S
C2689 C2688 1.434 . S
C2690 C2691 1.369 . S
C2690 C2692 1.419 . S
C2690 H2694 0.930 . S
C2691 C2690 1.369 . S
C2691 C2700 1.429 . S
C2692 C2690 1.419 . S
C2692 C2693 1.363 . S
C2692 H2695 0.929 . S
C2693 C2692 1.363 . S
C2693 C2699 1.428 . S
H2694 C2690 0.930 . S
H2695 C2692 0.929 . S
S2696 N2697 1.613 . S
S2696 N2698 1.610 . S
N2697 S2696 1.613 . S
N2697 C2700 1.350 . S
N2698 S2696 1.610 . S
N2698 C2699 1.351 . S
C2699 C2693 1.428 . S
C2699 N2698 1.351 . S
C2699 C2700 1.434 . S
C2700 C2691 1.429 . S
C2700 N2697 1.350 . S
C2700 C2699 1.434 . S
C2701 C2702 1.369 . S
C2701 C2703 1.419 . S
C2701 H2705 0.930 . S
C2702 C2701 1.369 . S
C2702 C2711 1.429 . S
C2703 C2701 1.419 . S
C2703 C2704 1.363 . S
C2703 H2706 0.929 . S
C2704 C2703 1.363 . S
C2704 C2710 1.428 . S
H2705 C2701 0.930 . S
H2706 C2703 0.929 . S
S2707 N2708 1.613 . S
S2707 N2709 1.610 . S
N2708 S2707 1.613 . S
N2708 C2711 1.350 . S
N2709 S2707 1.610 . S
N2709 C2710 1.351 . S
C2710 C2704 1.428 . S
C2710 N2709 1.351 . S
C2710 C2711 1.434 . S
C2711 C2702 1.429 . S
C2711 N2708 1.350 . S
C2711 C2710 1.434 . S
C2712 C2713 1.369 . S
C2712 C2714 1.419 . S
C2712 H2716 0.930 . S
C2713 C2712 1.369 . S
C2713 C2722 1.429 . S
C2714 C2712 1.419 . S
C2714 C2715 1.363 . S
C2714 H2717 0.929 . S
C2715 C2714 1.363 . S
C2715 C2721 1.428 . S
H2716 C2712 0.930 . S
H2717 C2714 0.929 . S
S2718 N2719 1.613 . S
S2718 N2720 1.610 . S
N2719 S2718 1.613 . S
N2719 C2722 1.350 . S
N2720 S2718 1.610 . S
N2720 C2721 1.351 . S
C2721 C2715 1.428 . S
C2721 N2720 1.351 . S
C2721 C2722 1.434 . S
C2722 C2713 1.429 . S
C2722 N2719 1.350 . S
C2722 C2721 1.434 . S
C2723 C2724 1.369 . S
C2723 C2725 1.419 . S
C2723 H2727 0.930 . S
C2724 C2723 1.369 . S
C2724 C2733 1.429 . S
C2725 C2723 1.419 . S
C2725 C2726 1.363 . S
C2725 H2728 0.929 . S
C2726 C2725 1.363 . S
C2726 C2732 1.428 . S
H2727 C2723 0.930 . S
H2728 C2725 0.929 . S
S2729 N2730 1.613 . S
S2729 N2731 1.610 . S
N2730 S2729 1.613 . S
N2730 C2733 1.350 . S
N2731 S2729 1.610 . S
N2731 C2732 1.351 . S
C2732 C2726 1.428 . S
C2732 N2731 1.351 . S
C2732 C2733 1.434 . S
C2733 C2724 1.429 . S
C2733 N2730 1.350 . S
C2733 C2732 1.434 . S
C2734 C2735 1.369 . S
C2734 C2736 1.419 . S
C2734 H2738 0.930 . S
C2735 C2734 1.369 . S
C2735 C2744 1.429 . S
C2736 C2734 1.419 . S
C2736 C2737 1.363 . S
C2736 H2739 0.929 . S
C2737 C2736 1.363 . S
C2737 C2743 1.428 . S
H2738 C2734 0.930 . S
H2739 C2736 0.929 . S
S2740 N2741 1.613 . S
S2740 N2742 1.610 . S
N2741 S2740 1.613 . S
N2741 C2744 1.350 . S
N2742 S2740 1.610 . S
N2742 C2743 1.351 . S
C2743 C2737 1.428 . S
C2743 N2742 1.351 . S
C2743 C2744 1.434 . S
C2744 C2735 1.429 . S
C2744 N2741 1.350 . S
C2744 C2743 1.434 . S
C2745 C2746 1.369 . S
C2745 C2747 1.419 . S
C2745 H2749 0.930 . S
C2746 C2745 1.369 . S
C2746 C2755 1.429 . S
C2747 C2745 1.419 . S
C2747 C2748 1.363 . S
C2747 H2750 0.929 . S
C2748 C2747 1.363 . S
C2748 C2754 1.428 . S
H2749 C2745 0.930 . S
H2750 C2747 0.929 . S
S2751 N2752 1.613 . S
S2751 N2753 1.610 . S
N2752 S2751 1.613 . S
N2752 C2755 1.350 . S
N2753 S2751 1.610 . S
N2753 C2754 1.351 . S
C2754 C2748 1.428 . S
C2754 N2753 1.351 . S
C2754 C2755 1.434 . S
C2755 C2746 1.429 . S
C2755 N2752 1.350 . S
C2755 C2754 1.434 . S
C2756 C2757 1.369 . S
C2756 C2758 1.419 . S
C2756 H2760 0.930 . S
C2757 C2756 1.369 . S
C2757 C2766 1.429 . S
C2758 C2756 1.419 . S
C2758 C2759 1.363 . S
C2758 H2761 0.929 . S
C2759 C2758 1.363 . S
C2759 C2765 1.428 . S
H2760 C2756 0.930 . S
H2761 C2758 0.929 . S
S2762 N2763 1.613 . S
S2762 N2764 1.610 . S
N2763 S2762 1.613 . S
N2763 C2766 1.350 . S
N2764 S2762 1.610 . S
N2764 C2765 1.351 . S
C2765 C2759 1.428 . S
C2765 N2764 1.351 . S
C2765 C2766 1.434 . S
C2766 C2757 1.429 . S
C2766 N2763 1.350 . S
C2766 C2765 1.434 . S
C2767 C2768 1.369 . S
C2767 C2769 1.419 . S
C2767 H2771 0.930 . S
C2768 C2767 1.369 . S
C2768 C2777 1.429 . S
C2769 C2767 1.419 . S
C2769 C2770 1.363 . S
C2769 H2772 0.929 . S
C2770 C2769 1.363 . S
C2770 C2776 1.428 . S
H2771 C2767 0.930 . S
H2772 C2769 0.929 . S
S2773 N2774 1.613 . S
S2773 N2775 1.610 . S
N2774 S2773 1.613 . S
N2774 C2777 1.350 . S
N2775 S2773 1.610 . S
N2775 C2776 1.351 . S
C2776 C2770 1.428 . S
C2776 N2775 1.351 . S
C2776 C2777 1.434 . S
C2777 C2768 1.429 . S
C2777 N2774 1.350 . S
C2777 C2776 1.434 . S
C2778 C2779 1.369 . S
C2778 C2780 1.419 . S
C2778 H2782 0.930 . S
C2779 C2778 1.369 . S
C2779 C2788 1.429 . S
C2780 C2778 1.419 . S
C2780 C2781 1.363 . S
C2780 H2783 0.929 . S
C2781 C2780 1.363 . S
C2781 C2787 1.428 . S
H2782 C2778 0.930 . S
H2783 C2780 0.929 . S
S2784 N2785 1.613 . S
S2784 N2786 1.610 . S
N2785 S2784 1.613 . S
N2785 C2788 1.350 . S
N2786 S2784 1.610 . S
N2786 C2787 1.351 . S
C2787 C2781 1.428 . S
C2787 N2786 1.351 . S
C2787 C2788 1.434 . S
C2788 C2779 1.429 . S
C2788 N2785 1.350 . S
C2788 C2787 1.434 . S
C2789 C2790 1.369 . S
C2789 C2791 1.419 . S
C2789 H2793 0.930 . S
C2790 C2789 1.369 . S
C2790 C2799 1.429 . S
C2791 C2789 1.419 . S
C2791 C2792 1.363 . S
C2791 H2794 0.929 . S
C2792 C2791 1.363 . S
C2792 C2798 1.428 . S
H2793 C2789 0.930 . S
H2794 C2791 0.929 . S
S2795 N2796 1.613 . S
S2795 N2797 1.610 . S
N2796 S2795 1.613 . S
N2796 C2799 1.350 . S
N2797 S2795 1.610 . S
N2797 C2798 1.351 . S
C2798 C2792 1.428 . S
C2798 N2797 1.351 . S
C2798 C2799 1.434 . S
C2799 C2790 1.429 . S
C2799 N2796 1.350 . S
C2799 C2798 1.434 . S
C2800 C2801 1.369 . S
C2800 C2802 1.419 . S
C2800 H2804 0.930 . S
C2801 C2800 1.369 . S
C2801 C2810 1.429 . S
C2802 C2800 1.419 . S
C2802 C2803 1.363 . S
C2802 H2805 0.929 . S
C2803 C2802 1.363 . S
C2803 C2809 1.428 . S
H2804 C2800 0.930 . S
H2805 C2802 0.929 . S
S2806 N2807 1.613 . S
S2806 N2808 1.610 . S
N2807 S2806 1.613 . S
N2807 C2810 1.350 . S
N2808 S2806 1.610 . S
N2808 C2809 1.351 . S
C2809 C2803 1.428 . S
C2809 N2808 1.351 . S
C2809 C2810 1.434 . S
C2810 C2801 1.429 . S
C2810 N2807 1.350 . S
C2810 C2809 1.434 . S
C2811 C2812 1.369 . S
C2811 C2813 1.419 . S
C2811 H2815 0.930 . S
C2812 C2811 1.369 . S
C2812 C2821 1.429 . S
C2813 C2811 1.419 . S
C2813 C2814 1.363 . S
C2813 H2816 0.929 . S
C2814 C2813 1.363 . S
C2814 C2820 1.428 . S
H2815 C2811 0.930 . S
H2816 C2813 0.929 . S
S2817 N2818 1.613 . S
S2817 N2819 1.610 . S
N2818 S2817 1.613 . S
N2818 C2821 1.350 . S
N2819 S2817 1.610 . S
N2819 C2820 1.351 . S
C2820 C2814 1.428 . S
C2820 N2819 1.351 . S
C2820 C2821 1.434 . S
C2821 C2812 1.429 . S
C2821 N2818 1.350 . S
C2821 C2820 1.434 . S
C2822 C2823 1.369 . S
C2822 C2824 1.419 . S
C2822 H2826 0.930 . S
C2823 C2822 1.369 . S
C2823 C2832 1.429 . S
C2824 C2822 1.419 . S
C2824 C2825 1.363 . S
C2824 H2827 0.929 . S
C2825 C2824 1.363 . S
C2825 C2831 1.428 . S
H2826 C2822 0.930 . S
H2827 C2824 0.929 . S
S2828 N2829 1.613 . S
S2828 N2830 1.610 . S
N2829 S2828 1.613 . S
N2829 C2832 1.350 . S
N2830 S2828 1.610 . S
N2830 C2831 1.351 . S
C2831 C2825 1.428 . S
C2831 N2830 1.351 . S
C2831 C2832 1.434 . S
C2832 C2823 1.429 . S
C2832 N2829 1.350 . S
C2832 C2831 1.434 . S
C2833 C2834 1.369 . S
C2833 C2835 1.419 . S
C2833 H2837 0.930 . S
C2834 C2833 1.369 . S
C2834 C2843 1.429 . S
C2835 C2833 1.419 . S
C2835 C2836 1.363 . S
C2835 H2838 0.929 . S
C2836 C2835 1.363 . S
C2836 C2842 1.428 . S
H2837 C2833 0.930 . S
H2838 C2835 0.929 . S
S2839 N2840 1.613 . S
S2839 N2841 1.610 . S
N2840 S2839 1.613 . S
N2840 C2843 1.350 . S
N2841 S2839 1.610 . S
N2841 C2842 1.351 . S
C2842 C2836 1.428 . S
C2842 N2841 1.351 . S
C2842 C2843 1.434 . S
C2843 C2834 1.429 . S
C2843 N2840 1.350 . S
C2843 C2842 1.434 . S
C2844 C2845 1.369 . S
C2844 C2846 1.419 . S
C2844 H2848 0.930 . S
C2845 C2844 1.369 . S
C2845 C2854 1.429 . S
C2846 C2844 1.419 . S
C2846 C2847 1.363 . S
C2846 H2849 0.929 . S
C2847 C2846 1.363 . S
C2847 C2853 1.428 . S
H2848 C2844 0.930 . S
H2849 C2846 0.929 . S
S2850 N2851 1.613 . S
S2850 N2852 1.610 . S
N2851 S2850 1.613 . S
N2851 C2854 1.350 . S
N2852 S2850 1.610 . S
N2852 C2853 1.351 . S
C2853 C2847 1.428 . S
C2853 N2852 1.351 . S
C2853 C2854 1.434 . S
C2854 C2845 1.429 . S
C2854 N2851 1.350 . S
C2854 C2853 1.434 . S
C2855 C2856 1.369 . S
C2855 C2857 1.419 . S
C2855 H2859 0.930 . S
C2856 C2855 1.369 . S
C2856 C2865 1.429 . S
C2857 C2855 1.419 . S
C2857 C2858 1.363 . S
C2857 H2860 0.929 . S
C2858 C2857 1.363 . S
C2858 C2864 1.428 . S
H2859 C2855 0.930 . S
H2860 C2857 0.929 . S
S2861 N2862 1.613 . S
S2861 N2863 1.610 . S
N2862 S2861 1.613 . S
N2862 C2865 1.350 . S
N2863 S2861 1.610 . S
N2863 C2864 1.351 . S
C2864 C2858 1.428 . S
C2864 N2863 1.351 . S
C2864 C2865 1.434 . S
C2865 C2856 1.429 . S
C2865 N2862 1.350 . S
C2865 C2864 1.434 . S
C2866 C2867 1.369 . S
C2866 C2868 1.419 . S
C2866 H2870 0.930 . S
C2867 C2866 1.369 . S
C2867 C2876 1.429 . S
C2868 C2866 1.419 . S
C2868 C2869 1.363 . S
C2868 H2871 0.929 . S
C2869 C2868 1.363 . S
C2869 C2875 1.428 . S
H2870 C2866 0.930 . S
H2871 C2868 0.929 . S
S2872 N2873 1.613 . S
S2872 N2874 1.610 . S
N2873 S2872 1.613 . S
N2873 C2876 1.350 . S
N2874 S2872 1.610 . S
N2874 C2875 1.351 . S
C2875 C2869 1.428 . S
C2875 N2874 1.351 . S
C2875 C2876 1.434 . S
C2876 C2867 1.429 . S
C2876 N2873 1.350 . S
C2876 C2875 1.434 . S
C2877 C2878 1.369 . S
C2877 C2879 1.419 . S
C2877 H2881 0.930 . S
C2878 C2877 1.369 . S
C2878 C2887 1.429 . S
C2879 C2877 1.419 . S
C2879 C2880 1.363 . S
C2879 H2882 0.929 . S
C2880 C2879 1.363 . S
C2880 C2886 1.428 . S
H2881 C2877 0.930 . S
H2882 C2879 0.929 . S
S2883 N2884 1.613 . S
S2883 N2885 1.610 . S
N2884 S2883 1.613 . S
N2884 C2887 1.350 . S
N2885 S2883 1.610 . S
N2885 C2886 1.351 . S
C2886 C2880 1.428 . S
C2886 N2885 1.351 . S
C2886 C2887 1.434 . S
C2887 C2878 1.429 . S
C2887 N2884 1.350 . S
C2887 C2886 1.434 . S
C2888 C2889 1.369 . S
C2888 C2890 1.419 . S
C2888 H2892 0.930 . S
C2889 C2888 1.369 . S
C2889 C2898 1.429 . S
C2890 C2888 1.419 . S
C2890 C2891 1.363 . S
C2890 H2893 0.929 . S
C2891 C2890 1.363 . S
C2891 C2897 1.428 . S
H2892 C2888 0.930 . S
H2893 C2890 0.929 . S
S2894 N2895 1.613 . S
S2894 N2896 1.610 . S
N2895 S2894 1.613 . S
N2895 C2898 1.350 . S
N2896 S2894 1.610 . S
N2896 C2897 1.351 . S
C2897 C2891 1.428 . S
C2897 N2896 1.351 . S
C2897 C2898 1.434 . S
C2898 C2889 1.429 . S
C2898 N2895 1.350 . S
C2898 C2897 1.434 . S
C2899 C2900 1.369 . S
C2899 C2901 1.419 . S
C2899 H2903 0.930 . S
C2900 C2899 1.369 . S
C2900 C2909 1.429 . S
C2901 C2899 1.419 . S
C2901 C2902 1.363 . S
C2901 H2904 0.929 . S
C2902 C2901 1.363 . S
C2902 C2908 1.428 . S
H2903 C2899 0.930 . S
H2904 C2901 0.929 . S
S2905 N2906 1.613 . S
S2905 N2907 1.610 . S
N2906 S2905 1.613 . S
N2906 C2909 1.350 . S
N2907 S2905 1.610 . S
N2907 C2908 1.351 . S
C2908 C2902 1.428 . S
C2908 N2907 1.351 . S
C2908 C2909 1.434 . S
C2909 C2900 1.429 . S
C2909 N2906 1.350 . S
C2909 C2908 1.434 . S
C2910 C2911 1.369 . S
C2910 C2912 1.419 . S
C2910 H2914 0.930 . S
C2911 C2910 1.369 . S
C2911 C2920 1.429 . S
C2912 C2910 1.419 . S
C2912 C2913 1.363 . S
C2912 H2915 0.929 . S
C2913 C2912 1.363 . S
C2913 C2919 1.428 . S
H2914 C2910 0.930 . S
H2915 C2912 0.929 . S
S2916 N2917 1.613 . S
S2916 N2918 1.610 . S
N2917 S2916 1.613 . S
N2917 C2920 1.350 . S
N2918 S2916 1.610 . S
N2918 C2919 1.351 . S
C2919 C2913 1.428 . S
C2919 N2918 1.351 . S
C2919 C2920 1.434 . S
C2920 C2911 1.429 . S
C2920 N2917 1.350 . S
C2920 C2919 1.434 . S
C2921 C2922 1.369 . S
C2921 C2923 1.419 . S
C2921 H2925 0.930 . S
C2922 C2921 1.369 . S
C2922 C2931 1.429 . S
C2923 C2921 1.419 . S
C2923 C2924 1.363 . S
C2923 H2926 0.929 . S
C2924 C2923 1.363 . S
C2924 C2930 1.428 . S
H2925 C2921 0.930 . S
H2926 C2923 0.929 . S
S2927 N2928 1.613 . S
S2927 N2929 1.610 . S
N2928 S2927 1.613 . S
N2928 C2931 1.350 . S
N2929 S2927 1.610 . S
N2929 C2930 1.351 . S
C2930 C2924 1.428 . S
C2930 N2929 1.351 . S
C2930 C2931 1.434 . S
C2931 C2922 1.429 . S
C2931 N2928 1.350 . S
C2931 C2930 1.434 . S
C2932 C2933 1.369 . S
C2932 C2934 1.419 . S
C2932 H2936 0.930 . S
C2933 C2932 1.369 . S
C2933 C2942 1.429 . S
C2934 C2932 1.419 . S
C2934 C2935 1.363 . S
C2934 H2937 0.929 . S
C2935 C2934 1.363 . S
C2935 C2941 1.428 . S
H2936 C2932 0.930 . S
H2937 C2934 0.929 . S
S2938 N2939 1.613 . S
S2938 N2940 1.610 . S
N2939 S2938 1.613 . S
N2939 C2942 1.350 . S
N2940 S2938 1.610 . S
N2940 C2941 1.351 . S
C2941 C2935 1.428 . S
C2941 N2940 1.351 . S
C2941 C2942 1.434 . S
C2942 C2933 1.429 . S
C2942 N2939 1.350 . S
C2942 C2941 1.434 . S
C2943 C2944 1.369 . S
C2943 C2945 1.419 . S
C2943 H2947 0.930 . S
C2944 C2943 1.369 . S
C2944 C2953 1.429 . S
C2945 C2943 1.419 . S
C2945 C2946 1.363 . S
C2945 H2948 0.929 . S
C2946 C2945 1.363 . S
C2946 C2952 1.428 . S
H2947 C2943 0.930 . S
H2948 C2945 0.929 . S
S2949 N2950 1.613 . S
S2949 N2951 1.610 . S
N2950 S2949 1.613 . S
N2950 C2953 1.350 . S
N2951 S2949 1.610 . S
N2951 C2952 1.351 . S
C2952 C2946 1.428 . S
C2952 N2951 1.351 . S
C2952 C2953 1.434 . S
C2953 C2944 1.429 . S
C2953 N2950 1.350 . S
C2953 C2952 1.434 . S
C2954 C2955 1.369 . S
C2954 C2956 1.419 . S
C2954 H2958 0.930 . S
C2955 C2954 1.369 . S
C2955 C2964 1.429 . S
C2956 C2954 1.419 . S
C2956 C2957 1.363 . S
C2956 H2959 0.929 . S
C2957 C2956 1.363 . S
C2957 C2963 1.428 . S
H2958 C2954 0.930 . S
H2959 C2956 0.929 . S
S2960 N2961 1.613 . S
S2960 N2962 1.610 . S
N2961 S2960 1.613 . S
N2961 C2964 1.350 . S
N2962 S2960 1.610 . S
N2962 C2963 1.351 . S
C2963 C2957 1.428 . S
C2963 N2962 1.351 . S
C2963 C2964 1.434 . S
C2964 C2955 1.429 . S
C2964 N2961 1.350 . S
C2964 C2963 1.434 . S
C2965 C2966 1.369 . S
C2965 C2967 1.419 . S
C2965 H2969 0.930 . S
C2966 C2965 1.369 . S
C2966 C2975 1.429 . S
C2967 C2965 1.419 . S
C2967 C2968 1.363 . S
C2967 H2970 0.929 . S
C2968 C2967 1.363 . S
C2968 C2974 1.428 . S
H2969 C2965 0.930 . S
H2970 C2967 0.929 . S
S2971 N2972 1.613 . S
S2971 N2973 1.610 . S
N2972 S2971 1.613 . S
N2972 C2975 1.350 . S
N2973 S2971 1.610 . S
N2973 C2974 1.351 . S
C2974 C2968 1.428 . S
C2974 N2973 1.351 . S
C2974 C2975 1.434 . S
C2975 C2966 1.429 . S
C2975 N2972 1.350 . S
C2975 C2974 1.434 . S
C2976 C2977 1.369 . S
C2976 C2978 1.419 . S
C2976 H2980 0.930 . S
C2977 C2976 1.369 . S
C2977 C2986 1.429 . S
C2978 C2976 1.419 . S
C2978 C2979 1.363 . S
C2978 H2981 0.929 . S
C2979 C2978 1.363 . S
C2979 C2985 1.428 . S
H2980 C2976 0.930 . S
H2981 C2978 0.929 . S
S2982 N2983 1.613 . S
S2982 N2984 1.610 . S
N2983 S2982 1.613 . S
N2983 C2986 1.350 . S
N2984 S2982 1.610 . S
N2984 C2985 1.351 . S
C2985 C2979 1.428 . S
C2985 N2984 1.351 . S
C2985 C2986 1.434 . S
C2986 C2977 1.429 . S
C2986 N2983 1.350 . S
C2986 C2985 1.434 . S
C2987 C2988 1.369 . S
C2987 C2989 1.419 . S
C2987 H2991 0.930 . S
C2988 C2987 1.369 . S
C2988 C2997 1.429 . S
C2989 C2987 1.419 . S
C2989 C2990 1.363 . S
C2989 H2992 0.929 . S
C2990 C2989 1.363 . S
C2990 C2996 1.428 . S
H2991 C2987 0.930 . S
H2992 C2989 0.929 . S
S2993 N2994 1.613 . S
S2993 N2995 1.610 . S
N2994 S2993 1.613 . S
N2994 C2997 1.350 . S
N2995 S2993 1.610 . S
N2995 C2996 1.351 . S
C2996 C2990 1.428 . S
C2996 N2995 1.351 . S
C2996 C2997 1.434 . S
C2997 C2988 1.429 . S
C2997 N2994 1.350 . S
C2997 C2996 1.434 . S
C2998 C2999 1.369 . S
C2998 C3000 1.419 . S
C2998 H3002 0.930 . S
C2999 C2998 1.369 . S
C2999 C3008 1.429 . S
C3000 C2998 1.419 . S
C3000 C3001 1.363 . S
C3000 H3003 0.929 . S
C3001 C3000 1.363 . S
C3001 C3007 1.428 . S
H3002 C2998 0.930 . S
H3003 C3000 0.929 . S
S3004 N3005 1.613 . S
S3004 N3006 1.610 . S
N3005 S3004 1.613 . S
N3005 C3008 1.350 . S
N3006 S3004 1.610 . S
N3006 C3007 1.351 . S
C3007 C3001 1.428 . S
C3007 N3006 1.351 . S
C3007 C3008 1.434 . S
C3008 C2999 1.429 . S
C3008 N3005 1.350 . S
C3008 C3007 1.434 . S
C3009 C3010 1.369 . S
C3009 C3011 1.419 . S
C3009 H3013 0.930 . S
C3010 C3009 1.369 . S
C3010 C3019 1.429 . S
C3011 C3009 1.419 . S
C3011 C3012 1.363 . S
C3011 H3014 0.929 . S
C3012 C3011 1.363 . S
C3012 C3018 1.428 . S
H3013 C3009 0.930 . S
H3014 C3011 0.929 . S
S3015 N3016 1.613 . S
S3015 N3017 1.610 . S
N3016 S3015 1.613 . S
N3016 C3019 1.350 . S
N3017 S3015 1.610 . S
N3017 C3018 1.351 . S
C3018 C3012 1.428 . S
C3018 N3017 1.351 . S
C3018 C3019 1.434 . S
C3019 C3010 1.429 . S
C3019 N3016 1.350 . S
C3019 C3018 1.434 . S
C3020 C3021 1.369 . S
C3020 C3022 1.419 . S
C3020 H3024 0.930 . S
C3021 C3020 1.369 . S
C3021 C3030 1.429 . S
C3022 C3020 1.419 . S
C3022 C3023 1.363 . S
C3022 H3025 0.929 . S
C3023 C3022 1.363 . S
C3023 C3029 1.428 . S
H3024 C3020 0.930 . S
H3025 C3022 0.929 . S
S3026 N3027 1.613 . S
S3026 N3028 1.610 . S
N3027 S3026 1.613 . S
N3027 C3030 1.350 . S
N3028 S3026 1.610 . S
N3028 C3029 1.351 . S
C3029 C3023 1.428 . S
C3029 N3028 1.351 . S
C3029 C3030 1.434 . S
C3030 C3021 1.429 . S
C3030 N3027 1.350 . S
C3030 C3029 1.434 . S
C3031 C3032 1.369 . S
C3031 C3033 1.419 . S
C3031 H3035 0.930 . S
C3032 C3031 1.369 . S
C3032 C3041 1.429 . S
C3033 C3031 1.419 . S
C3033 C3034 1.363 . S
C3033 H3036 0.929 . S
C3034 C3033 1.363 . S
C3034 C3040 1.428 . S
H3035 C3031 0.930 . S
H3036 C3033 0.929 . S
S3037 N3038 1.613 . S
S3037 N3039 1.610 . S
N3038 S3037 1.613 . S
N3038 C3041 1.350 . S
N3039 S3037 1.610 . S
N3039 C3040 1.351 . S
C3040 C3034 1.428 . S
C3040 N3039 1.351 . S
C3040 C3041 1.434 . S
C3041 C3032 1.429 . S
C3041 N3038 1.350 . S
C3041 C3040 1.434 . S
C3042 C3043 1.369 . S
C3042 C3044 1.419 . S
C3042 H3046 0.930 . S
C3043 C3042 1.369 . S
C3043 C3052 1.429 . S
C3044 C3042 1.419 . S
C3044 C3045 1.363 . S
C3044 H3047 0.929 . S
C3045 C3044 1.363 . S
C3045 C3051 1.428 . S
H3046 C3042 0.930 . S
H3047 C3044 0.929 . S
S3048 N3049 1.613 . S
S3048 N3050 1.610 . S
N3049 S3048 1.613 . S
N3049 C3052 1.350 . S
N3050 S3048 1.610 . S
N3050 C3051 1.351 . S
C3051 C3045 1.428 . S
C3051 N3050 1.351 . S
C3051 C3052 1.434 . S
C3052 C3043 1.429 . S
C3052 N3049 1.350 . S
C3052 C3051 1.434 . S
C3053 C3054 1.369 . S
C3053 C3055 1.419 . S
C3053 H3057 0.930 . S
C3054 C3053 1.369 . S
C3054 C3063 1.429 . S
C3055 C3053 1.419 . S
C3055 C3056 1.363 . S
C3055 H3058 0.929 . S
C3056 C3055 1.363 . S
C3056 C3062 1.428 . S
H3057 C3053 0.930 . S
H3058 C3055 0.929 . S
S3059 N3060 1.613 . S
S3059 N3061 1.610 . S
N3060 S3059 1.613 . S
N3060 C3063 1.350 . S
N3061 S3059 1.610 . S
N3061 C3062 1.351 . S
C3062 C3056 1.428 . S
C3062 N3061 1.351 . S
C3062 C3063 1.434 . S
C3063 C3054 1.429 . S
C3063 N3060 1.350 . S
C3063 C3062 1.434 . S
C3064 C3065 1.369 . S
C3064 C3066 1.419 . S
C3064 H3068 0.930 . S
C3065 C3064 1.369 . S
C3065 C3074 1.429 . S
C3066 C3064 1.419 . S
C3066 C3067 1.363 . S
C3066 H3069 0.929 . S
C3067 C3066 1.363 . S
C3067 C3073 1.428 . S
H3068 C3064 0.930 . S
H3069 C3066 0.929 . S
S3070 N3071 1.613 . S
S3070 N3072 1.610 . S
N3071 S3070 1.613 . S
N3071 C3074 1.350 . S
N3072 S3070 1.610 . S
N3072 C3073 1.351 . S
C3073 C3067 1.428 . S
C3073 N3072 1.351 . S
C3073 C3074 1.434 . S
C3074 C3065 1.429 . S
C3074 N3071 1.350 . S
C3074 C3073 1.434 . S
C3075 C3076 1.369 . S
C3075 C3077 1.419 . S
C3075 H3079 0.930 . S
C3076 C3075 1.369 . S
C3076 C3085 1.429 . S
C3077 C3075 1.419 . S
C3077 C3078 1.363 . S
C3077 H3080 0.929 . S
C3078 C3077 1.363 . S
C3078 C3084 1.428 . S
H3079 C3075 0.930 . S
H3080 C3077 0.929 . S
S3081 N3082 1.613 . S
S3081 N3083 1.610 . S
N3082 S3081 1.613 . S
N3082 C3085 1.350 . S
N3083 S3081 1.610 . S
N3083 C3084 1.351 . S
C3084 C3078 1.428 . S
C3084 N3083 1.351 . S
C3084 C3085 1.434 . S
C3085 C3076 1.429 . S
C3085 N3082 1.350 . S
C3085 C3084 1.434 . S
C3086 C3087 1.369 . S
C3086 C3088 1.419 . S
C3086 H3090 0.930 . S
C3087 C3086 1.369 . S
C3087 C3096 1.429 . S
C3088 C3086 1.419 . S
C3088 C3089 1.363 . S
C3088 H3091 0.929 . S
C3089 C3088 1.363 . S
C3089 C3095 1.428 . S
H3090 C3086 0.930 . S
H3091 C3088 0.929 . S
S3092 N3093 1.613 . S
S3092 N3094 1.610 . S
N3093 S3092 1.613 . S
N3093 C3096 1.350 . S
N3094 S3092 1.610 . S
N3094 C3095 1.351 . S
C3095 C3089 1.428 . S
C3095 N3094 1.351 . S
C3095 C3096 1.434 . S
C3096 C3087 1.429 . S
C3096 N3093 1.350 . S
C3096 C3095 1.434 . S
C3097 C3098 1.369 . S
C3097 C3099 1.419 . S
C3097 H3101 0.930 . S
C3098 C3097 1.369 . S
C3098 C3107 1.429 . S
C3099 C3097 1.419 . S
C3099 C3100 1.363 . S
C3099 H3102 0.929 . S
C3100 C3099 1.363 . S
C3100 C3106 1.428 . S
H3101 C3097 0.930 . S
H3102 C3099 0.929 . S
S3103 N3104 1.613 . S
S3103 N3105 1.610 . S
N3104 S3103 1.613 . S
N3104 C3107 1.350 . S
N3105 S3103 1.610 . S
N3105 C3106 1.351 . S
C3106 C3100 1.428 . S
C3106 N3105 1.351 . S
C3106 C3107 1.434 . S
C3107 C3098 1.429 . S
C3107 N3104 1.350 . S
C3107 C3106 1.434 . S
C3108 C3109 1.369 . S
C3108 C3110 1.419 . S
C3108 H3112 0.930 . S
C3109 C3108 1.369 . S
C3109 C3118 1.429 . S
C3110 C3108 1.419 . S
C3110 C3111 1.363 . S
C3110 H3113 0.929 . S
C3111 C3110 1.363 . S
C3111 C3117 1.428 . S
H3112 C3108 0.930 . S
H3113 C3110 0.929 . S
S3114 N3115 1.613 . S
S3114 N3116 1.610 . S
N3115 S3114 1.613 . S
N3115 C3118 1.350 . S
N3116 S3114 1.610 . S
N3116 C3117 1.351 . S
C3117 C3111 1.428 . S
C3117 N3116 1.351 . S
C3117 C3118 1.434 . S
C3118 C3109 1.429 . S
C3118 N3115 1.350 . S
C3118 C3117 1.434 . S
C3119 C3120 1.369 . S
C3119 C3121 1.419 . S
C3119 H3123 0.930 . S
C3120 C3119 1.369 . S
C3120 C3129 1.429 . S
C3121 C3119 1.419 . S
C3121 C3122 1.363 . S
C3121 H3124 0.929 . S
C3122 C3121 1.363 . S
C3122 C3128 1.428 . S
H3123 C3119 0.930 . S
H3124 C3121 0.929 . S
S3125 N3126 1.613 . S
S3125 N3127 1.610 . S
N3126 S3125 1.613 . S
N3126 C3129 1.350 . S
N3127 S3125 1.610 . S
N3127 C3128 1.351 . S
C3128 C3122 1.428 . S
C3128 N3127 1.351 . S
C3128 C3129 1.434 . S
C3129 C3120 1.429 . S
C3129 N3126 1.350 . S
C3129 C3128 1.434 . S
C3130 C3131 1.369 . S
C3130 C3132 1.419 . S
C3130 H3134 0.930 . S
C3131 C3130 1.369 . S
C3131 C3140 1.429 . S
C3132 C3130 1.419 . S
C3132 C3133 1.363 . S
C3132 H3135 0.929 . S
C3133 C3132 1.363 . S
C3133 C3139 1.428 . S
H3134 C3130 0.930 . S
H3135 C3132 0.929 . S
S3136 N3137 1.613 . S
S3136 N3138 1.610 . S
N3137 S3136 1.613 . S
N3137 C3140 1.350 . S
N3138 S3136 1.610 . S
N3138 C3139 1.351 . S
C3139 C3133 1.428 . S
C3139 N3138 1.351 . S
C3139 C3140 1.434 . S
C3140 C3131 1.429 . S
C3140 N3137 1.350 . S
C3140 C3139 1.434 . S
C3141 C3142 1.369 . S
C3141 C3143 1.419 . S
C3141 H3145 0.930 . S
C3142 C3141 1.369 . S
C3142 C3151 1.429 . S
C3143 C3141 1.419 . S
C3143 C3144 1.363 . S
C3143 H3146 0.929 . S
C3144 C3143 1.363 . S
C3144 C3150 1.428 . S
H3145 C3141 0.930 . S
H3146 C3143 0.929 . S
S3147 N3148 1.613 . S
S3147 N3149 1.610 . S
N3148 S3147 1.613 . S
N3148 C3151 1.350 . S
N3149 S3147 1.610 . S
N3149 C3150 1.351 . S
C3150 C3144 1.428 . S
C3150 N3149 1.351 . S
C3150 C3151 1.434 . S
C3151 C3142 1.429 . S
C3151 N3148 1.350 . S
C3151 C3150 1.434 . S
C3152 C3153 1.369 . S
C3152 C3154 1.419 . S
C3152 H3156 0.930 . S
C3153 C3152 1.369 . S
C3153 C3162 1.429 . S
C3154 C3152 1.419 . S
C3154 C3155 1.363 . S
C3154 H3157 0.929 . S
C3155 C3154 1.363 . S
C3155 C3161 1.428 . S
H3156 C3152 0.930 . S
H3157 C3154 0.929 . S
S3158 N3159 1.613 . S
S3158 N3160 1.610 . S
N3159 S3158 1.613 . S
N3159 C3162 1.350 . S
N3160 S3158 1.610 . S
N3160 C3161 1.351 . S
C3161 C3155 1.428 . S
C3161 N3160 1.351 . S
C3161 C3162 1.434 . S
C3162 C3153 1.429 . S
C3162 N3159 1.350 . S
C3162 C3161 1.434 . S
C3163 C3164 1.369 . S
C3163 C3165 1.419 . S
C3163 H3167 0.930 . S
C3164 C3163 1.369 . S
C3164 C3173 1.429 . S
C3165 C3163 1.419 . S
C3165 C3166 1.363 . S
C3165 H3168 0.929 . S
C3166 C3165 1.363 . S
C3166 C3172 1.428 . S
H3167 C3163 0.930 . S
H3168 C3165 0.929 . S
S3169 N3170 1.613 . S
S3169 N3171 1.610 . S
N3170 S3169 1.613 . S
N3170 C3173 1.350 . S
N3171 S3169 1.610 . S
N3171 C3172 1.351 . S
C3172 C3166 1.428 . S
C3172 N3171 1.351 . S
C3172 C3173 1.434 . S
C3173 C3164 1.429 . S
C3173 N3170 1.350 . S
C3173 C3172 1.434 . S
C3174 C3175 1.369 . S
C3174 C3176 1.419 . S
C3174 H3178 0.930 . S
C3175 C3174 1.369 . S
C3175 C3184 1.429 . S
C3176 C3174 1.419 . S
C3176 C3177 1.363 . S
C3176 H3179 0.929 . S
C3177 C3176 1.363 . S
C3177 C3183 1.428 . S
H3178 C3174 0.930 . S
H3179 C3176 0.929 . S
S3180 N3181 1.613 . S
S3180 N3182 1.610 . S
N3181 S3180 1.613 . S
N3181 C3184 1.350 . S
N3182 S3180 1.610 . S
N3182 C3183 1.351 . S
C3183 C3177 1.428 . S
C3183 N3182 1.351 . S
C3183 C3184 1.434 . S
C3184 C3175 1.429 . S
C3184 N3181 1.350 . S
C3184 C3183 1.434 . S
C3185 C3186 1.369 . S
C3185 C3187 1.419 . S
C3185 H3189 0.930 . S
C3186 C3185 1.369 . S
C3186 C3195 1.429 . S
C3187 C3185 1.419 . S
C3187 C3188 1.363 . S
C3187 H3190 0.929 . S
C3188 C3187 1.363 . S
C3188 C3194 1.428 . S
H3189 C3185 0.930 . S
H3190 C3187 0.929 . S
S3191 N3192 1.613 . S
S3191 N3193 1.610 . S
N3192 S3191 1.613 . S
N3192 C3195 1.350 . S
N3193 S3191 1.610 . S
N3193 C3194 1.351 . S
C3194 C3188 1.428 . S
C3194 N3193 1.351 . S
C3194 C3195 1.434 . S
C3195 C3186 1.429 . S
C3195 N3192 1.350 . S
C3195 C3194 1.434 . S
C3196 C3197 1.369 . S
C3196 C3198 1.419 . S
C3196 H3200 0.930 . S
C3197 C3196 1.369 . S
C3197 C3206 1.429 . S
C3198 C3196 1.419 . S
C3198 C3199 1.363 . S
C3198 H3201 0.929 . S
C3199 C3198 1.363 . S
C3199 C3205 1.428 . S
H3200 C3196 0.930 . S
H3201 C3198 0.929 . S
S3202 N3203 1.613 . S
S3202 N3204 1.610 . S
N3203 S3202 1.613 . S
N3203 C3206 1.350 . S
N3204 S3202 1.610 . S
N3204 C3205 1.351 . S
C3205 C3199 1.428 . S
C3205 N3204 1.351 . S
C3205 C3206 1.434 . S
C3206 C3197 1.429 . S
C3206 N3203 1.350 . S
C3206 C3205 1.434 . S
C3207 C3208 1.369 . S
C3207 C3209 1.419 . S
C3207 H3211 0.930 . S
C3208 C3207 1.369 . S
C3208 C3217 1.429 . S
C3209 C3207 1.419 . S
C3209 C3210 1.363 . S
C3209 H3212 0.929 . S
C3210 C3209 1.363 . S
C3210 C3216 1.428 . S
H3211 C3207 0.930 . S
H3212 C3209 0.929 . S
S3213 N3214 1.613 . S
S3213 N3215 1.610 . S
N3214 S3213 1.613 . S
N3214 C3217 1.350 . S
N3215 S3213 1.610 . S
N3215 C3216 1.351 . S
C3216 C3210 1.428 . S
C3216 N3215 1.351 . S
C3216 C3217 1.434 . S
C3217 C3208 1.429 . S
C3217 N3214 1.350 . S
C3217 C3216 1.434 . S
C3218 C3219 1.369 . S
C3218 C3220 1.419 . S
C3218 H3222 0.930 . S
C3219 C3218 1.369 . S
C3219 C3228 1.429 . S
C3220 C3218 1.419 . S
C3220 C3221 1.363 . S
C3220 H3223 0.929 . S
C3221 C3220 1.363 . S
C3221 C3227 1.428 . S
H3222 C3218 0.930 . S
H3223 C3220 0.929 . S
S3224 N3225 1.613 . S
S3224 N3226 1.610 . S
N3225 S3224 1.613 . S
N3225 C3228 1.350 . S
N3226 S3224 1.610 . S
N3226 C3227 1.351 . S
C3227 C3221 1.428 . S
C3227 N3226 1.351 . S
C3227 C3228 1.434 . S
C3228 C3219 1.429 . S
C3228 N3225 1.350 . S
C3228 C3227 1.434 . S
C3229 C3230 1.369 . S
C3229 C3231 1.419 . S
C3229 H3233 0.930 . S
C3230 C3229 1.369 . S
C3230 C3239 1.429 . S
C3231 C3229 1.419 . S
C3231 C3232 1.363 . S
C3231 H3234 0.929 . S
C3232 C3231 1.363 . S
C3232 C3238 1.428 . S
H3233 C3229 0.930 . S
H3234 C3231 0.929 . S
S3235 N3236 1.613 . S
S3235 N3237 1.610 . S
N3236 S3235 1.613 . S
N3236 C3239 1.350 . S
N3237 S3235 1.610 . S
N3237 C3238 1.351 . S
C3238 C3232 1.428 . S
C3238 N3237 1.351 . S
C3238 C3239 1.434 . S
C3239 C3230 1.429 . S
C3239 N3236 1.350 . S
C3239 C3238 1.434 . S
C3240 C3241 1.369 . S
C3240 C3242 1.419 . S
C3240 H3244 0.930 . S
C3241 C3240 1.369 . S
C3241 C3250 1.429 . S
C3242 C3240 1.419 . S
C3242 C3243 1.363 . S
C3242 H3245 0.929 . S
C3243 C3242 1.363 . S
C3243 C3249 1.428 . S
H3244 C3240 0.930 . S
H3245 C3242 0.929 . S
S3246 N3247 1.613 . S
S3246 N3248 1.610 . S
N3247 S3246 1.613 . S
N3247 C3250 1.350 . S
N3248 S3246 1.610 . S
N3248 C3249 1.351 . S
C3249 C3243 1.428 . S
C3249 N3248 1.351 . S
C3249 C3250 1.434 . S
C3250 C3241 1.429 . S
C3250 N3247 1.350 . S
C3250 C3249 1.434 . S
C3251 C3252 1.369 . S
C3251 C3253 1.419 . S
C3251 H3255 0.930 . S
C3252 C3251 1.369 . S
C3252 C3261 1.429 . S
C3253 C3251 1.419 . S
C3253 C3254 1.363 . S
C3253 H3256 0.929 . S
C3254 C3253 1.363 . S
C3254 C3260 1.428 . S
H3255 C3251 0.930 . S
H3256 C3253 0.929 . S
S3257 N3258 1.613 . S
S3257 N3259 1.610 . S
N3258 S3257 1.613 . S
N3258 C3261 1.350 . S
N3259 S3257 1.610 . S
N3259 C3260 1.351 . S
C3260 C3254 1.428 . S
C3260 N3259 1.351 . S
C3260 C3261 1.434 . S
C3261 C3252 1.429 . S
C3261 N3258 1.350 . S
C3261 C3260 1.434 . S
C3262 C3263 1.369 . S
C3262 C3264 1.419 . S
C3262 H3266 0.930 . S
C3263 C3262 1.369 . S
C3263 C3272 1.429 . S
C3264 C3262 1.419 . S
C3264 C3265 1.363 . S
C3264 H3267 0.929 . S
C3265 C3264 1.363 . S
C3265 C3271 1.428 . S
H3266 C3262 0.930 . S
H3267 C3264 0.929 . S
S3268 N3269 1.613 . S
S3268 N3270 1.610 . S
N3269 S3268 1.613 . S
N3269 C3272 1.350 . S
N3270 S3268 1.610 . S
N3270 C3271 1.351 . S
C3271 C3265 1.428 . S
C3271 N3270 1.351 . S
C3271 C3272 1.434 . S
C3272 C3263 1.429 . S
C3272 N3269 1.350 . S
C3272 C3271 1.434 . S
C3273 C3274 1.369 . S
C3273 C3275 1.419 . S
C3273 H3277 0.930 . S
C3274 C3273 1.369 . S
C3274 C3283 1.429 . S
C3275 C3273 1.419 . S
C3275 C3276 1.363 . S
C3275 H3278 0.929 . S
C3276 C3275 1.363 . S
C3276 C3282 1.428 . S
H3277 C3273 0.930 . S
H3278 C3275 0.929 . S
S3279 N3280 1.613 . S
S3279 N3281 1.610 . S
N3280 S3279 1.613 . S
N3280 C3283 1.350 . S
N3281 S3279 1.610 . S
N3281 C3282 1.351 . S
C3282 C3276 1.428 . S
C3282 N3281 1.351 . S
C3282 C3283 1.434 . S
C3283 C3274 1.429 . S
C3283 N3280 1.350 . S
C3283 C3282 1.434 . S
C3284 C3285 1.369 . S
C3284 C3286 1.419 . S
C3284 H3288 0.930 . S
C3285 C3284 1.369 . S
C3285 C3294 1.429 . S
C3286 C3284 1.419 . S
C3286 C3287 1.363 . S
C3286 H3289 0.929 . S
C3287 C3286 1.363 . S
C3287 C3293 1.428 . S
H3288 C3284 0.930 . S
H3289 C3286 0.929 . S
S3290 N3291 1.613 . S
S3290 N3292 1.610 . S
N3291 S3290 1.613 . S
N3291 C3294 1.350 . S
N3292 S3290 1.610 . S
N3292 C3293 1.351 . S
C3293 C3287 1.428 . S
C3293 N3292 1.351 . S
C3293 C3294 1.434 . S
C3294 C3285 1.429 . S
C3294 N3291 1.350 . S
C3294 C3293 1.434 . S
C3295 C3296 1.369 . S
C3295 C3297 1.419 . S
C3295 H3299 0.930 . S
C3296 C3295 1.369 . S
C3296 C3305 1.429 . S
C3297 C3295 1.419 . S
C3297 C3298 1.363 . S
C3297 H3300 0.929 . S
C3298 C3297 1.363 . S
C3298 C3304 1.428 . S
H3299 C3295 0.930 . S
H3300 C3297 0.929 . S
S3301 N3302 1.613 . S
S3301 N3303 1.610 . S
N3302 S3301 1.613 . S
N3302 C3305 1.350 . S
N3303 S3301 1.610 . S
N3303 C3304 1.351 . S
C3304 C3298 1.428 . S
C3304 N3303 1.351 . S
C3304 C3305 1.434 . S
C3305 C3296 1.429 . S
C3305 N3302 1.350 . S
C3305 C3304 1.434 . S
C3306 C3307 1.369 . S
C3306 C3308 1.419 . S
C3306 H3310 0.930 . S
C3307 C3306 1.369 . S
C3307 C3316 1.429 . S
C3308 C3306 1.419 . S
C3308 C3309 1.363 . S
C3308 H3311 0.929 . S
C3309 C3308 1.363 . S
C3309 C3315 1.428 . S
H3310 C3306 0.930 . S
H3311 C3308 0.929 . S
S3312 N3313 1.613 . S
S3312 N3314 1.610 . S
N3313 S3312 1.613 . S
N3313 C3316 1.350 . S
N3314 S3312 1.610 . S
N3314 C3315 1.351 . S
C3315 C3309 1.428 . S
C3315 N3314 1.351 . S
C3315 C3316 1.434 . S
C3316 C3307 1.429 . S
C3316 N3313 1.350 . S
C3316 C3315 1.434 . S
C3317 C3318 1.369 . S
C3317 C3319 1.419 . S
C3317 H3321 0.930 . S
C3318 C3317 1.369 . S
C3318 C3327 1.429 . S
C3319 C3317 1.419 . S
C3319 C3320 1.363 . S
C3319 H3322 0.929 . S
C3320 C3319 1.363 . S
C3320 C3326 1.428 . S
H3321 C3317 0.930 . S
H3322 C3319 0.929 . S
S3323 N3324 1.613 . S
S3323 N3325 1.610 . S
N3324 S3323 1.613 . S
N3324 C3327 1.350 . S
N3325 S3323 1.610 . S
N3325 C3326 1.351 . S
C3326 C3320 1.428 . S
C3326 N3325 1.351 . S
C3326 C3327 1.434 . S
C3327 C3318 1.429 . S
C3327 N3324 1.350 . S
C3327 C3326 1.434 . S
C3328 C3329 1.369 . S
C3328 C3330 1.419 . S
C3328 H3332 0.930 . S
C3329 C3328 1.369 . S
C3329 C3338 1.429 . S
C3330 C3328 1.419 . S
C3330 C3331 1.363 . S
C3330 H3333 0.929 . S
C3331 C3330 1.363 . S
C3331 C3337 1.428 . S
H3332 C3328 0.930 . S
H3333 C3330 0.929 . S
S3334 N3335 1.613 . S
S3334 N3336 1.610 . S
N3335 S3334 1.613 . S
N3335 C3338 1.350 . S
N3336 S3334 1.610 . S
N3336 C3337 1.351 . S
C3337 C3331 1.428 . S
C3337 N3336 1.351 . S
C3337 C3338 1.434 . S
C3338 C3329 1.429 . S
C3338 N3335 1.350 . S
C3338 C3337 1.434 . S
C3339 C3340 1.369 . S
C3339 C3341 1.419 . S
C3339 H3343 0.930 . S
C3340 C3339 1.369 . S
C3340 C3349 1.429 . S
C3341 C3339 1.419 . S
C3341 C3342 1.363 . S
C3341 H3344 0.929 . S
C3342 C3341 1.363 . S
C3342 C3348 1.428 . S
H3343 C3339 0.930 . S
H3344 C3341 0.929 . S
S3345 N3346 1.613 . S
S3345 N3347 1.610 . S
N3346 S3345 1.613 . S
N3346 C3349 1.350 . S
N3347 S3345 1.610 . S
N3347 C3348 1.351 . S
C3348 C3342 1.428 . S
C3348 N3347 1.351 . S
C3348 C3349 1.434 . S
C3349 C3340 1.429 . S
C3349 N3346 1.350 . S
C3349 C3348 1.434 . S
C3350 C3351 1.369 . S
C3350 C3352 1.419 . S
C3350 H3354 0.930 . S
C3351 C3350 1.369 . S
C3351 C3360 1.429 . S
C3352 C3350 1.419 . S
C3352 C3353 1.363 . S
C3352 H3355 0.929 . S
C3353 C3352 1.363 . S
C3353 C3359 1.428 . S
H3354 C3350 0.930 . S
H3355 C3352 0.929 . S
S3356 N3357 1.613 . S
S3356 N3358 1.610 . S
N3357 S3356 1.613 . S
N3357 C3360 1.350 . S
N3358 S3356 1.610 . S
N3358 C3359 1.351 . S
C3359 C3353 1.428 . S
C3359 N3358 1.351 . S
C3359 C3360 1.434 . S
C3360 C3351 1.429 . S
C3360 N3357 1.350 . S
C3360 C3359 1.434 . S
C3361 C3362 1.369 . S
C3361 C3363 1.419 . S
C3361 H3365 0.930 . S
C3362 C3361 1.369 . S
C3362 C3371 1.429 . S
C3363 C3361 1.419 . S
C3363 C3364 1.363 . S
C3363 H3366 0.929 . S
C3364 C3363 1.363 . S
C3364 C3370 1.428 . S
H3365 C3361 0.930 . S
H3366 C3363 0.929 . S
S3367 N3368 1.613 . S
S3367 N3369 1.610 . S
N3368 S3367 1.613 . S
N3368 C3371 1.350 . S
N3369 S3367 1.610 . S
N3369 C3370 1.351 . S
C3370 C3364 1.428 . S
C3370 N3369 1.351 . S
C3370 C3371 1.434 . S
C3371 C3362 1.429 . S
C3371 N3368 1.350 . S
C3371 C3370 1.434 . S
C3372 C3373 1.369 . S
C3372 C3374 1.419 . S
C3372 H3376 0.930 . S
C3373 C3372 1.369 . S
C3373 C3382 1.429 . S
C3374 C3372 1.419 . S
C3374 C3375 1.363 . S
C3374 H3377 0.929 . S
C3375 C3374 1.363 . S
C3375 C3381 1.428 . S
H3376 C3372 0.930 . S
H3377 C3374 0.929 . S
S3378 N3379 1.613 . S
S3378 N3380 1.610 . S
N3379 S3378 1.613 . S
N3379 C3382 1.350 . S
N3380 S3378 1.610 . S
N3380 C3381 1.351 . S
C3381 C3375 1.428 . S
C3381 N3380 1.351 . S
C3381 C3382 1.434 . S
C3382 C3373 1.429 . S
C3382 N3379 1.350 . S
C3382 C3381 1.434 . S
C3383 C3384 1.369 . S
C3383 C3385 1.419 . S
C3383 H3387 0.930 . S
C3384 C3383 1.369 . S
C3384 C3393 1.429 . S
C3385 C3383 1.419 . S
C3385 C3386 1.363 . S
C3385 H3388 0.929 . S
C3386 C3385 1.363 . S
C3386 C3392 1.428 . S
H3387 C3383 0.930 . S
H3388 C3385 0.929 . S
S3389 N3390 1.613 . S
S3389 N3391 1.610 . S
N3390 S3389 1.613 . S
N3390 C3393 1.350 . S
N3391 S3389 1.610 . S
N3391 C3392 1.351 . S
C3392 C3386 1.428 . S
C3392 N3391 1.351 . S
C3392 C3393 1.434 . S
C3393 C3384 1.429 . S
C3393 N3390 1.350 . S
C3393 C3392 1.434 . S
C3394 C3395 1.369 . S
C3394 C3396 1.419 . S
C3394 H3398 0.930 . S
C3395 C3394 1.369 . S
C3395 C3404 1.429 . S
C3396 C3394 1.419 . S
C3396 C3397 1.363 . S
C3396 H3399 0.929 . S
C3397 C3396 1.363 . S
C3397 C3403 1.428 . S
H3398 C3394 0.930 . S
H3399 C3396 0.929 . S
S3400 N3401 1.613 . S
S3400 N3402 1.610 . S
N3401 S3400 1.613 . S
N3401 C3404 1.350 . S
N3402 S3400 1.610 . S
N3402 C3403 1.351 . S
C3403 C3397 1.428 . S
C3403 N3402 1.351 . S
C3403 C3404 1.434 . S
C3404 C3395 1.429 . S
C3404 N3401 1.350 . S
C3404 C3403 1.434 . S
C3405 C3406 1.369 . S
C3405 C3407 1.419 . S
C3405 H3409 0.930 . S
C3406 C3405 1.369 . S
C3406 C3415 1.429 . S
C3407 C3405 1.419 . S
C3407 C3408 1.363 . S
C3407 H3410 0.929 . S
C3408 C3407 1.363 . S
C3408 C3414 1.428 . S
H3409 C3405 0.930 . S
H3410 C3407 0.929 . S
S3411 N3412 1.613 . S
S3411 N3413 1.610 . S
N3412 S3411 1.613 . S
N3412 C3415 1.350 . S
N3413 S3411 1.610 . S
N3413 C3414 1.351 . S
C3414 C3408 1.428 . S
C3414 N3413 1.351 . S
C3414 C3415 1.434 . S
C3415 C3406 1.429 . S
C3415 N3412 1.350 . S
C3415 C3414 1.434 . S
C3416 C3417 1.369 . S
C3416 C3418 1.419 . S
C3416 H3420 0.930 . S
C3417 C3416 1.369 . S
C3417 C3426 1.429 . S
C3418 C3416 1.419 . S
C3418 C3419 1.363 . S
C3418 H3421 0.929 . S
C3419 C3418 1.363 . S
C3419 C3425 1.428 . S
H3420 C3416 0.930 . S
H3421 C3418 0.929 . S
S3422 N3423 1.613 . S
S3422 N3424 1.610 . S
N3423 S3422 1.613 . S
N3423 C3426 1.350 . S
N3424 S3422 1.610 . S
N3424 C3425 1.351 . S
C3425 C3419 1.428 . S
C3425 N3424 1.351 . S
C3425 C3426 1.434 . S
C3426 C3417 1.429 . S
C3426 N3423 1.350 . S
C3426 C3425 1.434 . S
C3427 C3428 1.369 . S
C3427 C3429 1.419 . S
C3427 H3431 0.930 . S
C3428 C3427 1.369 . S
C3428 C3437 1.429 . S
C3429 C3427 1.419 . S
C3429 C3430 1.363 . S
C3429 H3432 0.929 . S
C3430 C3429 1.363 . S
C3430 C3436 1.428 . S
H3431 C3427 0.930 . S
H3432 C3429 0.929 . S
S3433 N3434 1.613 . S
S3433 N3435 1.610 . S
N3434 S3433 1.613 . S
N3434 C3437 1.350 . S
N3435 S3433 1.610 . S
N3435 C3436 1.351 . S
C3436 C3430 1.428 . S
C3436 N3435 1.351 . S
C3436 C3437 1.434 . S
C3437 C3428 1.429 . S
C3437 N3434 1.350 . S
C3437 C3436 1.434 . S
C3438 C3439 1.369 . S
C3438 C3440 1.419 . S
C3438 H3442 0.930 . S
C3439 C3438 1.369 . S
C3439 C3448 1.429 . S
C3440 C3438 1.419 . S
C3440 C3441 1.363 . S
C3440 H3443 0.929 . S
C3441 C3440 1.363 . S
C3441 C3447 1.428 . S
H3442 C3438 0.930 . S
H3443 C3440 0.929 . S
S3444 N3445 1.613 . S
S3444 N3446 1.610 . S
N3445 S3444 1.613 . S
N3445 C3448 1.350 . S
N3446 S3444 1.610 . S
N3446 C3447 1.351 . S
C3447 C3441 1.428 . S
C3447 N3446 1.351 . S
C3447 C3448 1.434 . S
C3448 C3439 1.429 . S
C3448 N3445 1.350 . S
C3448 C3447 1.434 . S
C3449 C3450 1.369 . S
C3449 C3451 1.419 . S
C3449 H3453 0.930 . S
C3450 C3449 1.369 . S
C3450 C3459 1.429 . S
C3451 C3449 1.419 . S
C3451 C3452 1.363 . S
C3451 H3454 0.929 . S
C3452 C3451 1.363 . S
C3452 C3458 1.428 . S
H3453 C3449 0.930 . S
H3454 C3451 0.929 . S
S3455 N3456 1.613 . S
S3455 N3457 1.610 . S
N3456 S3455 1.613 . S
N3456 C3459 1.350 . S
N3457 S3455 1.610 . S
N3457 C3458 1.351 . S
C3458 C3452 1.428 . S
C3458 N3457 1.351 . S
C3458 C3459 1.434 . S
C3459 C3450 1.429 . S
C3459 N3456 1.350 . S
C3459 C3458 1.434 . S
C3460 C3461 1.369 . S
C3460 C3462 1.419 . S
C3460 H3464 0.930 . S
C3461 C3460 1.369 . S
C3461 C3470 1.429 . S
C3462 C3460 1.419 . S
C3462 C3463 1.363 . S
C3462 H3465 0.929 . S
C3463 C3462 1.363 . S
C3463 C3469 1.428 . S
H3464 C3460 0.930 . S
H3465 C3462 0.929 . S
S3466 N3467 1.613 . S
S3466 N3468 1.610 . S
N3467 S3466 1.613 . S
N3467 C3470 1.350 . S
N3468 S3466 1.610 . S
N3468 C3469 1.351 . S
C3469 C3463 1.428 . S
C3469 N3468 1.351 . S
C3469 C3470 1.434 . S
C3470 C3461 1.429 . S
C3470 N3467 1.350 . S
C3470 C3469 1.434 . S
C3471 C3472 1.369 . S
C3471 C3473 1.419 . S
C3471 H3475 0.930 . S
C3472 C3471 1.369 . S
C3472 C3481 1.429 . S
C3473 C3471 1.419 . S
C3473 C3474 1.363 . S
C3473 H3476 0.929 . S
C3474 C3473 1.363 . S
C3474 C3480 1.428 . S
H3475 C3471 0.930 . S
H3476 C3473 0.929 . S
S3477 N3478 1.613 . S
S3477 N3479 1.610 . S
N3478 S3477 1.613 . S
N3478 C3481 1.350 . S
N3479 S3477 1.610 . S
N3479 C3480 1.351 . S
C3480 C3474 1.428 . S
C3480 N3479 1.351 . S
C3480 C3481 1.434 . S
C3481 C3472 1.429 . S
C3481 N3478 1.350 . S
C3481 C3480 1.434 . S
C3482 C3483 1.369 . S
C3482 C3484 1.419 . S
C3482 H3486 0.930 . S
C3483 C3482 1.369 . S
C3483 C3492 1.429 . S
C3484 C3482 1.419 . S
C3484 C3485 1.363 . S
C3484 H3487 0.929 . S
C3485 C3484 1.363 . S
C3485 C3491 1.428 . S
H3486 C3482 0.930 . S
H3487 C3484 0.929 . S
S3488 N3489 1.613 . S
S3488 N3490 1.610 . S
N3489 S3488 1.613 . S
N3489 C3492 1.350 . S
N3490 S3488 1.610 . S
N3490 C3491 1.351 . S
C3491 C3485 1.428 . S
C3491 N3490 1.351 . S
C3491 C3492 1.434 . S
C3492 C3483 1.429 . S
C3492 N3489 1.350 . S
C3492 C3491 1.434 . S
C3493 C3494 1.369 . S
C3493 C3495 1.419 . S
C3493 H3497 0.930 . S
C3494 C3493 1.369 . S
C3494 C3503 1.429 . S
C3495 C3493 1.419 . S
C3495 C3496 1.363 . S
C3495 H3498 0.929 . S
C3496 C3495 1.363 . S
C3496 C3502 1.428 . S
H3497 C3493 0.930 . S
H3498 C3495 0.929 . S
S3499 N3500 1.613 . S
S3499 N3501 1.610 . S
N3500 S3499 1.613 . S
N3500 C3503 1.350 . S
N3501 S3499 1.610 . S
N3501 C3502 1.351 . S
C3502 C3496 1.428 . S
C3502 N3501 1.351 . S
C3502 C3503 1.434 . S
C3503 C3494 1.429 . S
C3503 N3500 1.350 . S
C3503 C3502 1.434 . S
C3504 C3505 1.369 . S
C3504 C3506 1.419 . S
C3504 H3508 0.930 . S
C3505 C3504 1.369 . S
C3505 C3514 1.429 . S
C3506 C3504 1.419 . S
C3506 C3507 1.363 . S
C3506 H3509 0.929 . S
C3507 C3506 1.363 . S
C3507 C3513 1.428 . S
H3508 C3504 0.930 . S
H3509 C3506 0.929 . S
S3510 N3511 1.613 . S
S3510 N3512 1.610 . S
N3511 S3510 1.613 . S
N3511 C3514 1.350 . S
N3512 S3510 1.610 . S
N3512 C3513 1.351 . S
C3513 C3507 1.428 . S
C3513 N3512 1.351 . S
C3513 C3514 1.434 . S
C3514 C3505 1.429 . S
C3514 N3511 1.350 . S
C3514 C3513 1.434 . S
C3515 C3516 1.369 . S
C3515 C3517 1.419 . S
C3515 H3519 0.930 . S
C3516 C3515 1.369 . S
C3516 C3525 1.429 . S
C3517 C3515 1.419 . S
C3517 C3518 1.363 . S
C3517 H3520 0.929 . S
C3518 C3517 1.363 . S
C3518 C3524 1.428 . S
H3519 C3515 0.930 . S
H3520 C3517 0.929 . S
S3521 N3522 1.613 . S
S3521 N3523 1.610 . S
N3522 S3521 1.613 . S
N3522 C3525 1.350 . S
N3523 S3521 1.610 . S
N3523 C3524 1.351 . S
C3524 C3518 1.428 . S
C3524 N3523 1.351 . S
C3524 C3525 1.434 . S
C3525 C3516 1.429 . S
C3525 N3522 1.350 . S
C3525 C3524 1.434 . S
C3526 C3527 1.369 . S
C3526 C3528 1.419 . S
C3526 H3530 0.930 . S
C3527 C3526 1.369 . S
C3527 C3536 1.429 . S
C3528 C3526 1.419 . S
C3528 C3529 1.363 . S
C3528 H3531 0.929 . S
C3529 C3528 1.363 . S
C3529 C3535 1.428 . S
H3530 C3526 0.930 . S
H3531 C3528 0.929 . S
S3532 N3533 1.613 . S
S3532 N3534 1.610 . S
N3533 S3532 1.613 . S
N3533 C3536 1.350 . S
N3534 S3532 1.610 . S
N3534 C3535 1.351 . S
C3535 C3529 1.428 . S
C3535 N3534 1.351 . S
C3535 C3536 1.434 . S
C3536 C3527 1.429 . S
C3536 N3533 1.350 . S
C3536 C3535 1.434 . S
C3537 C3538 1.369 . S
C3537 C3539 1.419 . S
C3537 H3541 0.930 . S
C3538 C3537 1.369 . S
C3538 C3547 1.429 . S
C3539 C3537 1.419 . S
C3539 C3540 1.363 . S
C3539 H3542 0.929 . S
C3540 C3539 1.363 . S
C3540 C3546 1.428 . S
H3541 C3537 0.930 . S
H3542 C3539 0.929 . S
S3543 N3544 1.613 . S
S3543 N3545 1.610 . S
N3544 S3543 1.613 . S
N3544 C3547 1.350 . S
N3545 S3543 1.610 . S
N3545 C3546 1.351 . S
C3546 C3540 1.428 . S
C3546 N3545 1.351 . S
C3546 C3547 1.434 . S
C3547 C3538 1.429 . S
C3547 N3544 1.350 . S
C3547 C3546 1.434 . S
C3548 C3549 1.369 . S
C3548 C3550 1.419 . S
C3548 H3552 0.930 . S
C3549 C3548 1.369 . S
C3549 C3558 1.429 . S
C3550 C3548 1.419 . S
C3550 C3551 1.363 . S
C3550 H3553 0.929 . S
C3551 C3550 1.363 . S
C3551 C3557 1.428 . S
H3552 C3548 0.930 . S
H3553 C3550 0.929 . S
S3554 N3555 1.613 . S
S3554 N3556 1.610 . S
N3555 S3554 1.613 . S
N3555 C3558 1.350 . S
N3556 S3554 1.610 . S
N3556 C3557 1.351 . S
C3557 C3551 1.428 . S
C3557 N3556 1.351 . S
C3557 C3558 1.434 . S
C3558 C3549 1.429 . S
C3558 N3555 1.350 . S
C3558 C3557 1.434 . S
C3559 C3560 1.369 . S
C3559 C3561 1.419 . S
C3559 H3563 0.930 . S
C3560 C3559 1.369 . S
C3560 C3569 1.429 . S
C3561 C3559 1.419 . S
C3561 C3562 1.363 . S
C3561 H3564 0.929 . S
C3562 C3561 1.363 . S
C3562 C3568 1.428 . S
H3563 C3559 0.930 . S
H3564 C3561 0.929 . S
S3565 N3566 1.613 . S
S3565 N3567 1.610 . S
N3566 S3565 1.613 . S
N3566 C3569 1.350 . S
N3567 S3565 1.610 . S
N3567 C3568 1.351 . S
C3568 C3562 1.428 . S
C3568 N3567 1.351 . S
C3568 C3569 1.434 . S
C3569 C3560 1.429 . S
C3569 N3566 1.350 . S
C3569 C3568 1.434 . S
C3570 C3571 1.369 . S
C3570 C3572 1.419 . S
C3570 H3574 0.930 . S
C3571 C3570 1.369 . S
C3571 C3580 1.429 . S
C3572 C3570 1.419 . S
C3572 C3573 1.363 . S
C3572 H3575 0.929 . S
C3573 C3572 1.363 . S
C3573 C3579 1.428 . S
H3574 C3570 0.930 . S
H3575 C3572 0.929 . S
S3576 N3577 1.613 . S
S3576 N3578 1.610 . S
N3577 S3576 1.613 . S
N3577 C3580 1.350 . S
N3578 S3576 1.610 . S
N3578 C3579 1.351 . S
C3579 C3573 1.428 . S
C3579 N3578 1.351 . S
C3579 C3580 1.434 . S
C3580 C3571 1.429 . S
C3580 N3577 1.350 . S
C3580 C3579 1.434 . S
C3581 C3582 1.369 . S
C3581 C3583 1.419 . S
C3581 H3585 0.930 . S
C3582 C3581 1.369 . S
C3582 C3591 1.429 . S
C3583 C3581 1.419 . S
C3583 C3584 1.363 . S
C3583 H3586 0.929 . S
C3584 C3583 1.363 . S
C3584 C3590 1.428 . S
H3585 C3581 0.930 . S
H3586 C3583 0.929 . S
S3587 N3588 1.613 . S
S3587 N3589 1.610 . S
N3588 S3587 1.613 . S
N3588 C3591 1.350 . S
N3589 S3587 1.610 . S
N3589 C3590 1.351 . S
C3590 C3584 1.428 . S
C3590 N3589 1.351 . S
C3590 C3591 1.434 . S
C3591 C3582 1.429 . S
C3591 N3588 1.350 . S
C3591 C3590 1.434 . S
C3592 C3593 1.369 . S
C3592 C3594 1.419 . S
C3592 H3596 0.930 . S
C3593 C3592 1.369 . S
C3593 C3602 1.429 . S
C3594 C3592 1.419 . S
C3594 C3595 1.363 . S
C3594 H3597 0.929 . S
C3595 C3594 1.363 . S
C3595 C3601 1.428 . S
H3596 C3592 0.930 . S
H3597 C3594 0.929 . S
S3598 N3599 1.613 . S
S3598 N3600 1.610 . S
N3599 S3598 1.613 . S
N3599 C3602 1.350 . S
N3600 S3598 1.610 . S
N3600 C3601 1.351 . S
C3601 C3595 1.428 . S
C3601 N3600 1.351 . S
C3601 C3602 1.434 . S
C3602 C3593 1.429 . S
C3602 N3599 1.350 . S
C3602 C3601 1.434 . S
C3603 C3604 1.369 . S
C3603 C3605 1.419 . S
C3603 H3607 0.930 . S
C3604 C3603 1.369 . S
C3604 C3613 1.429 . S
C3605 C3603 1.419 . S
C3605 C3606 1.363 . S
C3605 H3608 0.929 . S
C3606 C3605 1.363 . S
C3606 C3612 1.428 . S
H3607 C3603 0.930 . S
H3608 C3605 0.929 . S
S3609 N3610 1.613 . S
S3609 N3611 1.610 . S
N3610 S3609 1.613 . S
N3610 C3613 1.350 . S
N3611 S3609 1.610 . S
N3611 C3612 1.351 . S
C3612 C3606 1.428 . S
C3612 N3611 1.351 . S
C3612 C3613 1.434 . S
C3613 C3604 1.429 . S
C3613 N3610 1.350 . S
C3613 C3612 1.434 . S
C3614 C3615 1.369 . S
C3614 C3616 1.419 . S
C3614 H3618 0.930 . S
C3615 C3614 1.369 . S
C3615 C3624 1.429 . S
C3616 C3614 1.419 . S
C3616 C3617 1.363 . S
C3616 H3619 0.929 . S
C3617 C3616 1.363 . S
C3617 C3623 1.428 . S
H3618 C3614 0.930 . S
H3619 C3616 0.929 . S
S3620 N3621 1.613 . S
S3620 N3622 1.610 . S
N3621 S3620 1.613 . S
N3621 C3624 1.350 . S
N3622 S3620 1.610 . S
N3622 C3623 1.351 . S
C3623 C3617 1.428 . S
C3623 N3622 1.351 . S
C3623 C3624 1.434 . S
C3624 C3615 1.429 . S
C3624 N3621 1.350 . S
C3624 C3623 1.434 . S
C3625 C3626 1.369 . S
C3625 C3627 1.419 . S
C3625 H3629 0.930 . S
C3626 C3625 1.369 . S
C3626 C3635 1.429 . S
C3627 C3625 1.419 . S
C3627 C3628 1.363 . S
C3627 H3630 0.929 . S
C3628 C3627 1.363 . S
C3628 C3634 1.428 . S
H3629 C3625 0.930 . S
H3630 C3627 0.929 . S
S3631 N3632 1.613 . S
S3631 N3633 1.610 . S
N3632 S3631 1.613 . S
N3632 C3635 1.350 . S
N3633 S3631 1.610 . S
N3633 C3634 1.351 . S
C3634 C3628 1.428 . S
C3634 N3633 1.351 . S
C3634 C3635 1.434 . S
C3635 C3626 1.429 . S
C3635 N3632 1.350 . S
C3635 C3634 1.434 . S
C3636 C3637 1.369 . S
C3636 C3638 1.419 . S
C3636 H3640 0.930 . S
C3637 C3636 1.369 . S
C3637 C3646 1.429 . S
C3638 C3636 1.419 . S
C3638 C3639 1.363 . S
C3638 H3641 0.929 . S
C3639 C3638 1.363 . S
C3639 C3645 1.428 . S
H3640 C3636 0.930 . S
H3641 C3638 0.929 . S
S3642 N3643 1.613 . S
S3642 N3644 1.610 . S
N3643 S3642 1.613 . S
N3643 C3646 1.350 . S
N3644 S3642 1.610 . S
N3644 C3645 1.351 . S
C3645 C3639 1.428 . S
C3645 N3644 1.351 . S
C3645 C3646 1.434 . S
C3646 C3637 1.429 . S
C3646 N3643 1.350 . S
C3646 C3645 1.434 . S
C3647 C3648 1.369 . S
C3647 C3649 1.419 . S
C3647 H3651 0.930 . S
C3648 C3647 1.369 . S
C3648 C3657 1.429 . S
C3649 C3647 1.419 . S
C3649 C3650 1.363 . S
C3649 H3652 0.929 . S
C3650 C3649 1.363 . S
C3650 C3656 1.428 . S
H3651 C3647 0.930 . S
H3652 C3649 0.929 . S
S3653 N3654 1.613 . S
S3653 N3655 1.610 . S
N3654 S3653 1.613 . S
N3654 C3657 1.350 . S
N3655 S3653 1.610 . S
N3655 C3656 1.351 . S
C3656 C3650 1.428 . S
C3656 N3655 1.351 . S
C3656 C3657 1.434 . S
C3657 C3648 1.429 . S
C3657 N3654 1.350 . S
C3657 C3656 1.434 . S
C3658 C3659 1.369 . S
C3658 C3660 1.419 . S
C3658 H3662 0.930 . S
C3659 C3658 1.369 . S
C3659 C3668 1.429 . S
C3660 C3658 1.419 . S
C3660 C3661 1.363 . S
C3660 H3663 0.929 . S
C3661 C3660 1.363 . S
C3661 C3667 1.428 . S
H3662 C3658 0.930 . S
H3663 C3660 0.929 . S
S3664 N3665 1.613 . S
S3664 N3666 1.610 . S
N3665 S3664 1.613 . S
N3665 C3668 1.350 . S
N3666 S3664 1.610 . S
N3666 C3667 1.351 . S
C3667 C3661 1.428 . S
C3667 N3666 1.351 . S
C3667 C3668 1.434 . S
C3668 C3659 1.429 . S
C3668 N3665 1.350 . S
C3668 C3667 1.434 . S
C3669 C3670 1.369 . S
C3669 C3671 1.419 . S
C3669 H3673 0.930 . S
C3670 C3669 1.369 . S
C3670 C3679 1.429 . S
C3671 C3669 1.419 . S
C3671 C3672 1.363 . S
C3671 H3674 0.929 . S
C3672 C3671 1.363 . S
C3672 C3678 1.428 . S
H3673 C3669 0.930 . S
H3674 C3671 0.929 . S
S3675 N3676 1.613 . S
S3675 N3677 1.610 . S
N3676 S3675 1.613 . S
N3676 C3679 1.350 . S
N3677 S3675 1.610 . S
N3677 C3678 1.351 . S
C3678 C3672 1.428 . S
C3678 N3677 1.351 . S
C3678 C3679 1.434 . S
C3679 C3670 1.429 . S
C3679 N3676 1.350 . S
C3679 C3678 1.434 . S
C3680 C3681 1.369 . S
C3680 C3682 1.419 . S
C3680 H3684 0.930 . S
C3681 C3680 1.369 . S
C3681 C3690 1.429 . S
C3682 C3680 1.419 . S
C3682 C3683 1.363 . S
C3682 H3685 0.929 . S
C3683 C3682 1.363 . S
C3683 C3689 1.428 . S
H3684 C3680 0.930 . S
H3685 C3682 0.929 . S
S3686 N3687 1.613 . S
S3686 N3688 1.610 . S
N3687 S3686 1.613 . S
N3687 C3690 1.350 . S
N3688 S3686 1.610 . S
N3688 C3689 1.351 . S
C3689 C3683 1.428 . S
C3689 N3688 1.351 . S
C3689 C3690 1.434 . S
C3690 C3681 1.429 . S
C3690 N3687 1.350 . S
C3690 C3689 1.434 . S
C3691 C3692 1.369 . S
C3691 C3693 1.419 . S
C3691 H3695 0.930 . S
C3692 C3691 1.369 . S
C3692 C3701 1.429 . S
C3693 C3691 1.419 . S
C3693 C3694 1.363 . S
C3693 H3696 0.929 . S
C3694 C3693 1.363 . S
C3694 C3700 1.428 . S
H3695 C3691 0.930 . S
H3696 C3693 0.929 . S
S3697 N3698 1.613 . S
S3697 N3699 1.610 . S
N3698 S3697 1.613 . S
N3698 C3701 1.350 . S
N3699 S3697 1.610 . S
N3699 C3700 1.351 . S
C3700 C3694 1.428 . S
C3700 N3699 1.351 . S
C3700 C3701 1.434 . S
C3701 C3692 1.429 . S
C3701 N3698 1.350 . S
C3701 C3700 1.434 . S
C3702 C3703 1.369 . S
C3702 C3704 1.419 . S
C3702 H3706 0.930 . S
C3703 C3702 1.369 . S
C3703 C3712 1.429 . S
C3704 C3702 1.419 . S
C3704 C3705 1.363 . S
C3704 H3707 0.929 . S
C3705 C3704 1.363 . S
C3705 C3711 1.428 . S
H3706 C3702 0.930 . S
H3707 C3704 0.929 . S
S3708 N3709 1.613 . S
S3708 N3710 1.610 . S
N3709 S3708 1.613 . S
N3709 C3712 1.350 . S
N3710 S3708 1.610 . S
N3710 C3711 1.351 . S
C3711 C3705 1.428 . S
C3711 N3710 1.351 . S
C3711 C3712 1.434 . S
C3712 C3703 1.429 . S
C3712 N3709 1.350 . S
C3712 C3711 1.434 . S
C3713 C3714 1.369 . S
C3713 C3715 1.419 . S
C3713 H3717 0.930 . S
C3714 C3713 1.369 . S
C3714 C3723 1.429 . S
C3715 C3713 1.419 . S
C3715 C3716 1.363 . S
C3715 H3718 0.929 . S
C3716 C3715 1.363 . S
C3716 C3722 1.428 . S
H3717 C3713 0.930 . S
H3718 C3715 0.929 . S
S3719 N3720 1.613 . S
S3719 N3721 1.610 . S
N3720 S3719 1.613 . S
N3720 C3723 1.350 . S
N3721 S3719 1.610 . S
N3721 C3722 1.351 . S
C3722 C3716 1.428 . S
C3722 N3721 1.351 . S
C3722 C3723 1.434 . S
C3723 C3714 1.429 . S
C3723 N3720 1.350 . S
C3723 C3722 1.434 . S
C3724 C3725 1.369 . S
C3724 C3726 1.419 . S
C3724 H3728 0.930 . S
C3725 C3724 1.369 . S
C3725 C3734 1.429 . S
C3726 C3724 1.419 . S
C3726 C3727 1.363 . S
C3726 H3729 0.929 . S
C3727 C3726 1.363 . S
C3727 C3733 1.428 . S
H3728 C3724 0.930 . S
H3729 C3726 0.929 . S
S3730 N3731 1.613 . S
S3730 N3732 1.610 . S
N3731 S3730 1.613 . S
N3731 C3734 1.350 . S
N3732 S3730 1.610 . S
N3732 C3733 1.351 . S
C3733 C3727 1.428 . S
C3733 N3732 1.351 . S
C3733 C3734 1.434 . S
C3734 C3725 1.429 . S
C3734 N3731 1.350 . S
C3734 C3733 1.434 . S
C3735 C3736 1.369 . S
C3735 C3737 1.419 . S
C3735 H3739 0.930 . S
C3736 C3735 1.369 . S
C3736 C3745 1.429 . S
C3737 C3735 1.419 . S
C3737 C3738 1.363 . S
C3737 H3740 0.929 . S
C3738 C3737 1.363 . S
C3738 C3744 1.428 . S
H3739 C3735 0.930 . S
H3740 C3737 0.929 . S
S3741 N3742 1.613 . S
S3741 N3743 1.610 . S
N3742 S3741 1.613 . S
N3742 C3745 1.350 . S
N3743 S3741 1.610 . S
N3743 C3744 1.351 . S
C3744 C3738 1.428 . S
C3744 N3743 1.351 . S
C3744 C3745 1.434 . S
C3745 C3736 1.429 . S
C3745 N3742 1.350 . S
C3745 C3744 1.434 . S
C3746 C3747 1.369 . S
C3746 C3748 1.419 . S
C3746 H3750 0.930 . S
C3747 C3746 1.369 . S
C3747 C3756 1.429 . S
C3748 C3746 1.419 . S
C3748 C3749 1.363 . S
C3748 H3751 0.929 . S
C3749 C3748 1.363 . S
C3749 C3755 1.428 . S
H3750 C3746 0.930 . S
H3751 C3748 0.929 . S
S3752 N3753 1.613 . S
S3752 N3754 1.610 . S
N3753 S3752 1.613 . S
N3753 C3756 1.350 . S
N3754 S3752 1.610 . S
N3754 C3755 1.351 . S
C3755 C3749 1.428 . S
C3755 N3754 1.351 . S
C3755 C3756 1.434 . S
C3756 C3747 1.429 . S
C3756 N3753 1.350 . S
C3756 C3755 1.434 . S
C3757 C3758 1.369 . S
C3757 C3759 1.419 . S
C3757 H3761 0.930 . S
C3758 C3757 1.369 . S
C3758 C3767 1.429 . S
C3759 C3757 1.419 . S
C3759 C3760 1.363 . S
C3759 H3762 0.929 . S
C3760 C3759 1.363 . S
C3760 C3766 1.428 . S
H3761 C3757 0.930 . S
H3762 C3759 0.929 . S
S3763 N3764 1.613 . S
S3763 N3765 1.610 . S
N3764 S3763 1.613 . S
N3764 C3767 1.350 . S
N3765 S3763 1.610 . S
N3765 C3766 1.351 . S
C3766 C3760 1.428 . S
C3766 N3765 1.351 . S
C3766 C3767 1.434 . S
C3767 C3758 1.429 . S
C3767 N3764 1.350 . S
C3767 C3766 1.434 . S
C3768 C3769 1.369 . S
C3768 C3770 1.419 . S
C3768 H3772 0.930 . S
C3769 C3768 1.369 . S
C3769 C3778 1.429 . S
C3770 C3768 1.419 . S
C3770 C3771 1.363 . S
C3770 H3773 0.929 . S
C3771 C3770 1.363 . S
C3771 C3777 1.428 . S
H3772 C3768 0.930 . S
H3773 C3770 0.929 . S
S3774 N3775 1.613 . S
S3774 N3776 1.610 . S
N3775 S3774 1.613 . S
N3775 C3778 1.350 . S
N3776 S3774 1.610 . S
N3776 C3777 1.351 . S
C3777 C3771 1.428 . S
C3777 N3776 1.351 . S
C3777 C3778 1.434 . S
C3778 C3769 1.429 . S
C3778 N3775 1.350 . S
C3778 C3777 1.434 . S
C3779 C3780 1.369 . S
C3779 C3781 1.419 . S
C3779 H3783 0.930 . S
C3780 C3779 1.369 . S
C3780 C3789 1.429 . S
C3781 C3779 1.419 . S
C3781 C3782 1.363 . S
C3781 H3784 0.929 . S
C3782 C3781 1.363 . S
C3782 C3788 1.428 . S
H3783 C3779 0.930 . S
H3784 C3781 0.929 . S
S3785 N3786 1.613 . S
S3785 N3787 1.610 . S
N3786 S3785 1.613 . S
N3786 C3789 1.350 . S
N3787 S3785 1.610 . S
N3787 C3788 1.351 . S
C3788 C3782 1.428 . S
C3788 N3787 1.351 . S
C3788 C3789 1.434 . S
C3789 C3780 1.429 . S
C3789 N3786 1.350 . S
C3789 C3788 1.434 . S
C3790 C3791 1.369 . S
C3790 C3792 1.419 . S
C3790 H3794 0.930 . S
C3791 C3790 1.369 . S
C3791 C3800 1.429 . S
C3792 C3790 1.419 . S
C3792 C3793 1.363 . S
C3792 H3795 0.929 . S
C3793 C3792 1.363 . S
C3793 C3799 1.428 . S
H3794 C3790 0.930 . S
H3795 C3792 0.929 . S
S3796 N3797 1.613 . S
S3796 N3798 1.610 . S
N3797 S3796 1.613 . S
N3797 C3800 1.350 . S
N3798 S3796 1.610 . S
N3798 C3799 1.351 . S
C3799 C3793 1.428 . S
C3799 N3798 1.351 . S
C3799 C3800 1.434 . S
C3800 C3791 1.429 . S
C3800 N3797 1.350 . S
C3800 C3799 1.434 . S
C3801 C3802 1.369 . S
C3801 C3803 1.419 . S
C3801 H3805 0.930 . S
C3802 C3801 1.369 . S
C3802 C3811 1.429 . S
C3803 C3801 1.419 . S
C3803 C3804 1.363 . S
C3803 H3806 0.929 . S
C3804 C3803 1.363 . S
C3804 C3810 1.428 . S
H3805 C3801 0.930 . S
H3806 C3803 0.929 . S
S3807 N3808 1.613 . S
S3807 N3809 1.610 . S
N3808 S3807 1.613 . S
N3808 C3811 1.350 . S
N3809 S3807 1.610 . S
N3809 C3810 1.351 . S
C3810 C3804 1.428 . S
C3810 N3809 1.351 . S
C3810 C3811 1.434 . S
C3811 C3802 1.429 . S
C3811 N3808 1.350 . S
C3811 C3810 1.434 . S
C3812 C3813 1.369 . S
C3812 C3814 1.419 . S
C3812 H3816 0.930 . S
C3813 C3812 1.369 . S
C3813 C3822 1.429 . S
C3814 C3812 1.419 . S
C3814 C3815 1.363 . S
C3814 H3817 0.929 . S
C3815 C3814 1.363 . S
C3815 C3821 1.428 . S
H3816 C3812 0.930 . S
H3817 C3814 0.929 . S
S3818 N3819 1.613 . S
S3818 N3820 1.610 . S
N3819 S3818 1.613 . S
N3819 C3822 1.350 . S
N3820 S3818 1.610 . S
N3820 C3821 1.351 . S
C3821 C3815 1.428 . S
C3821 N3820 1.351 . S
C3821 C3822 1.434 . S
C3822 C3813 1.429 . S
C3822 N3819 1.350 . S
C3822 C3821 1.434 . S
C3823 C3824 1.369 . S
C3823 C3825 1.419 . S
C3823 H3827 0.930 . S
C3824 C3823 1.369 . S
C3824 C3833 1.429 . S
C3825 C3823 1.419 . S
C3825 C3826 1.363 . S
C3825 H3828 0.929 . S
C3826 C3825 1.363 . S
C3826 C3832 1.428 . S
H3827 C3823 0.930 . S
H3828 C3825 0.929 . S
S3829 N3830 1.613 . S
S3829 N3831 1.610 . S
N3830 S3829 1.613 . S
N3830 C3833 1.350 . S
N3831 S3829 1.610 . S
N3831 C3832 1.351 . S
C3832 C3826 1.428 . S
C3832 N3831 1.351 . S
C3832 C3833 1.434 . S
C3833 C3824 1.429 . S
C3833 N3830 1.350 . S
C3833 C3832 1.434 . S
C3834 C3835 1.369 . S
C3834 C3836 1.419 . S
C3834 H3838 0.930 . S
C3835 C3834 1.369 . S
C3835 C3844 1.429 . S
C3836 C3834 1.419 . S
C3836 C3837 1.363 . S
C3836 H3839 0.929 . S
C3837 C3836 1.363 . S
C3837 C3843 1.428 . S
H3838 C3834 0.930 . S
H3839 C3836 0.929 . S
S3840 N3841 1.613 . S
S3840 N3842 1.610 . S
N3841 S3840 1.613 . S
N3841 C3844 1.350 . S
N3842 S3840 1.610 . S
N3842 C3843 1.351 . S
C3843 C3837 1.428 . S
C3843 N3842 1.351 . S
C3843 C3844 1.434 . S
C3844 C3835 1.429 . S
C3844 N3841 1.350 . S
C3844 C3843 1.434 . S
C3845 C3846 1.369 . S
C3845 C3847 1.419 . S
C3845 H3849 0.930 . S
C3846 C3845 1.369 . S
C3846 C3855 1.429 . S
C3847 C3845 1.419 . S
C3847 C3848 1.363 . S
C3847 H3850 0.929 . S
C3848 C3847 1.363 . S
C3848 C3854 1.428 . S
H3849 C3845 0.930 . S
H3850 C3847 0.929 . S
S3851 N3852 1.613 . S
S3851 N3853 1.610 . S
N3852 S3851 1.613 . S
N3852 C3855 1.350 . S
N3853 S3851 1.610 . S
N3853 C3854 1.351 . S
C3854 C3848 1.428 . S
C3854 N3853 1.351 . S
C3854 C3855 1.434 . S
C3855 C3846 1.429 . S
C3855 N3852 1.350 . S
C3855 C3854 1.434 . S
C3856 C3857 1.369 . S
C3856 C3858 1.419 . S
C3856 H3860 0.930 . S
C3857 C3856 1.369 . S
C3857 C3866 1.429 . S
C3858 C3856 1.419 . S
C3858 C3859 1.363 . S
C3858 H3861 0.929 . S
C3859 C3858 1.363 . S
C3859 C3865 1.428 . S
H3860 C3856 0.930 . S
H3861 C3858 0.929 . S
S3862 N3863 1.613 . S
S3862 N3864 1.610 . S
N3863 S3862 1.613 . S
N3863 C3866 1.350 . S
N3864 S3862 1.610 . S
N3864 C3865 1.351 . S
C3865 C3859 1.428 . S
C3865 N3864 1.351 . S
C3865 C3866 1.434 . S
C3866 C3857 1.429 . S
C3866 N3863 1.350 . S
C3866 C3865 1.434 . S
C3867 C3868 1.369 . S
C3867 C3869 1.419 . S
C3867 H3871 0.930 . S
C3868 C3867 1.369 . S
C3868 C3877 1.429 . S
C3869 C3867 1.419 . S
C3869 C3870 1.363 . S
C3869 H3872 0.929 . S
C3870 C3869 1.363 . S
C3870 C3876 1.428 . S
H3871 C3867 0.930 . S
H3872 C3869 0.929 . S
S3873 N3874 1.613 . S
S3873 N3875 1.610 . S
N3874 S3873 1.613 . S
N3874 C3877 1.350 . S
N3875 S3873 1.610 . S
N3875 C3876 1.351 . S
C3876 C3870 1.428 . S
C3876 N3875 1.351 . S
C3876 C3877 1.434 . S
C3877 C3868 1.429 . S
C3877 N3874 1.350 . S
C3877 C3876 1.434 . S
C3878 C3879 1.369 . S
C3878 C3880 1.419 . S
C3878 H3882 0.930 . S
C3879 C3878 1.369 . S
C3879 C3888 1.429 . S
C3880 C3878 1.419 . S
C3880 C3881 1.363 . S
C3880 H3883 0.929 . S
C3881 C3880 1.363 . S
C3881 C3887 1.428 . S
H3882 C3878 0.930 . S
H3883 C3880 0.929 . S
S3884 N3885 1.613 . S
S3884 N3886 1.610 . S
N3885 S3884 1.613 . S
N3885 C3888 1.350 . S
N3886 S3884 1.610 . S
N3886 C3887 1.351 . S
C3887 C3881 1.428 . S
C3887 N3886 1.351 . S
C3887 C3888 1.434 . S
C3888 C3879 1.429 . S
C3888 N3885 1.350 . S
C3888 C3887 1.434 . S
C3889 C3890 1.369 . S
C3889 C3891 1.419 . S
C3889 H3893 0.930 . S
C3890 C3889 1.369 . S
C3890 C3899 1.429 . S
C3891 C3889 1.419 . S
C3891 C3892 1.363 . S
C3891 H3894 0.929 . S
C3892 C3891 1.363 . S
C3892 C3898 1.428 . S
H3893 C3889 0.930 . S
H3894 C3891 0.929 . S
S3895 N3896 1.613 . S
S3895 N3897 1.610 . S
N3896 S3895 1.613 . S
N3896 C3899 1.350 . S
N3897 S3895 1.610 . S
N3897 C3898 1.351 . S
C3898 C3892 1.428 . S
C3898 N3897 1.351 . S
C3898 C3899 1.434 . S
C3899 C3890 1.429 . S
C3899 N3896 1.350 . S
C3899 C3898 1.434 . S
C3900 C3901 1.369 . S
C3900 C3902 1.419 . S
C3900 H3904 0.930 . S
C3901 C3900 1.369 . S
C3901 C3910 1.429 . S
C3902 C3900 1.419 . S
C3902 C3903 1.363 . S
C3902 H3905 0.929 . S
C3903 C3902 1.363 . S
C3903 C3909 1.428 . S
H3904 C3900 0.930 . S
H3905 C3902 0.929 . S
S3906 N3907 1.613 . S
S3906 N3908 1.610 . S
N3907 S3906 1.613 . S
N3907 C3910 1.350 . S
N3908 S3906 1.610 . S
N3908 C3909 1.351 . S
C3909 C3903 1.428 . S
C3909 N3908 1.351 . S
C3909 C3910 1.434 . S
C3910 C3901 1.429 . S
C3910 N3907 1.350 . S
C3910 C3909 1.434 . S
C3911 C3912 1.369 . S
C3911 C3913 1.419 . S
C3911 H3915 0.930 . S
C3912 C3911 1.369 . S
C3912 C3921 1.429 . S
C3913 C3911 1.419 . S
C3913 C3914 1.363 . S
C3913 H3916 0.929 . S
C3914 C3913 1.363 . S
C3914 C3920 1.428 . S
H3915 C3911 0.930 . S
H3916 C3913 0.929 . S
S3917 N3918 1.613 . S
S3917 N3919 1.610 . S
N3918 S3917 1.613 . S
N3918 C3921 1.350 . S
N3919 S3917 1.610 . S
N3919 C3920 1.351 . S
C3920 C3914 1.428 . S
C3920 N3919 1.351 . S
C3920 C3921 1.434 . S
C3921 C3912 1.429 . S
C3921 N3918 1.350 . S
C3921 C3920 1.434 . S
C3922 C3923 1.369 . S
C3922 C3924 1.419 . S
C3922 H3926 0.930 . S
C3923 C3922 1.369 . S
C3923 C3932 1.429 . S
C3924 C3922 1.419 . S
C3924 C3925 1.363 . S
C3924 H3927 0.929 . S
C3925 C3924 1.363 . S
C3925 C3931 1.428 . S
H3926 C3922 0.930 . S
H3927 C3924 0.929 . S
S3928 N3929 1.613 . S
S3928 N3930 1.610 . S
N3929 S3928 1.613 . S
N3929 C3932 1.350 . S
N3930 S3928 1.610 . S
N3930 C3931 1.351 . S
C3931 C3925 1.428 . S
C3931 N3930 1.351 . S
C3931 C3932 1.434 . S
C3932 C3923 1.429 . S
C3932 N3929 1.350 . S
C3932 C3931 1.434 . S
C3933 C3934 1.369 . S
C3933 C3935 1.419 . S
C3933 H3937 0.930 . S
C3934 C3933 1.369 . S
C3934 C3943 1.429 . S
C3935 C3933 1.419 . S
C3935 C3936 1.363 . S
C3935 H3938 0.929 . S
C3936 C3935 1.363 . S
C3936 C3942 1.428 . S
H3937 C3933 0.930 . S
H3938 C3935 0.929 . S
S3939 N3940 1.613 . S
S3939 N3941 1.610 . S
N3940 S3939 1.613 . S
N3940 C3943 1.350 . S
N3941 S3939 1.610 . S
N3941 C3942 1.351 . S
C3942 C3936 1.428 . S
C3942 N3941 1.351 . S
C3942 C3943 1.434 . S
C3943 C3934 1.429 . S
C3943 N3940 1.350 . S
C3943 C3942 1.434 . S
C3944 C3945 1.369 . S
C3944 C3946 1.419 . S
C3944 H3948 0.930 . S
C3945 C3944 1.369 . S
C3945 C3954 1.429 . S
C3946 C3944 1.419 . S
C3946 C3947 1.363 . S
C3946 H3949 0.929 . S
C3947 C3946 1.363 . S
C3947 C3953 1.428 . S
H3948 C3944 0.930 . S
H3949 C3946 0.929 . S
S3950 N3951 1.613 . S
S3950 N3952 1.610 . S
N3951 S3950 1.613 . S
N3951 C3954 1.350 . S
N3952 S3950 1.610 . S
N3952 C3953 1.351 . S
C3953 C3947 1.428 . S
C3953 N3952 1.351 . S
C3953 C3954 1.434 . S
C3954 C3945 1.429 . S
C3954 N3951 1.350 . S
C3954 C3953 1.434 . S
C3955 C3956 1.369 . S
C3955 C3957 1.419 . S
C3955 H3959 0.930 . S
C3956 C3955 1.369 . S
C3956 C3965 1.429 . S
C3957 C3955 1.419 . S
C3957 C3958 1.363 . S
C3957 H3960 0.929 . S
C3958 C3957 1.363 . S
C3958 C3964 1.428 . S
H3959 C3955 0.930 . S
H3960 C3957 0.929 . S
S3961 N3962 1.613 . S
S3961 N3963 1.610 . S
N3962 S3961 1.613 . S
N3962 C3965 1.350 . S
N3963 S3961 1.610 . S
N3963 C3964 1.351 . S
C3964 C3958 1.428 . S
C3964 N3963 1.351 . S
C3964 C3965 1.434 . S
C3965 C3956 1.429 . S
C3965 N3962 1.350 . S
C3965 C3964 1.434 . S
C3966 C3967 1.369 . S
C3966 C3968 1.419 . S
C3966 H3970 0.930 . S
C3967 C3966 1.369 . S
C3967 C3976 1.429 . S
C3968 C3966 1.419 . S
C3968 C3969 1.363 . S
C3968 H3971 0.929 . S
C3969 C3968 1.363 . S
C3969 C3975 1.428 . S
H3970 C3966 0.930 . S
H3971 C3968 0.929 . S
S3972 N3973 1.613 . S
S3972 N3974 1.610 . S
N3973 S3972 1.613 . S
N3973 C3976 1.350 . S
N3974 S3972 1.610 . S
N3974 C3975 1.351 . S
C3975 C3969 1.428 . S
C3975 N3974 1.351 . S
C3975 C3976 1.434 . S
C3976 C3967 1.429 . S
C3976 N3973 1.350 . S
C3976 C3975 1.434 . S
C3977 C3978 1.369 . S
C3977 C3979 1.419 . S
C3977 H3981 0.930 . S
C3978 C3977 1.369 . S
C3978 C3987 1.429 . S
C3979 C3977 1.419 . S
C3979 C3980 1.363 . S
C3979 H3982 0.929 . S
C3980 C3979 1.363 . S
C3980 C3986 1.428 . S
H3981 C3977 0.930 . S
H3982 C3979 0.929 . S
S3983 N3984 1.613 . S
S3983 N3985 1.610 . S
N3984 S3983 1.613 . S
N3984 C3987 1.350 . S
N3985 S3983 1.610 . S
N3985 C3986 1.351 . S
C3986 C3980 1.428 . S
C3986 N3985 1.351 . S
C3986 C3987 1.434 . S
C3987 C3978 1.429 . S
C3987 N3984 1.350 . S
C3987 C3986 1.434 . S
C3988 C3989 1.369 . S
C3988 C3990 1.419 . S
C3988 H3992 0.930 . S
C3989 C3988 1.369 . S
C3989 C3998 1.429 . S
C3990 C3988 1.419 . S
C3990 C3991 1.363 . S
C3990 H3993 0.929 . S
C3991 C3990 1.363 . S
C3991 C3997 1.428 . S
H3992 C3988 0.930 . S
H3993 C3990 0.929 . S
S3994 N3995 1.613 . S
S3994 N3996 1.610 . S
N3995 S3994 1.613 . S
N3995 C3998 1.350 . S
N3996 S3994 1.610 . S
N3996 C3997 1.351 . S
C3997 C3991 1.428 . S
C3997 N3996 1.351 . S
C3997 C3998 1.434 . S
C3998 C3989 1.429 . S
C3998 N3995 1.350 . S
C3998 C3997 1.434 . S
C3999 C4000 1.369 . S
C3999 C4001 1.419 . S
C3999 H4003 0.930 . S
C4000 C3999 1.369 . S
C4000 C4009 1.429 . S
C4001 C3999 1.419 . S
C4001 C4002 1.363 . S
C4001 H4004 0.929 . S
C4002 C4001 1.363 . S
C4002 C4008 1.428 . S
H4003 C3999 0.930 . S
H4004 C4001 0.929 . S
S4005 N4006 1.613 . S
S4005 N4007 1.610 . S
N4006 S4005 1.613 . S
N4006 C4009 1.350 . S
N4007 S4005 1.610 . S
N4007 C4008 1.351 . S
C4008 C4002 1.428 . S
C4008 N4007 1.351 . S
C4008 C4009 1.434 . S
C4009 C4000 1.429 . S
C4009 N4006 1.350 . S
C4009 C4008 1.434 . S
C4010 C4011 1.369 . S
C4010 C4012 1.419 . S
C4010 H4014 0.930 . S
C4011 C4010 1.369 . S
C4011 C4020 1.429 . S
C4012 C4010 1.419 . S
C4012 C4013 1.363 . S
C4012 H4015 0.929 . S
C4013 C4012 1.363 . S
C4013 C4019 1.428 . S
H4014 C4010 0.930 . S
H4015 C4012 0.929 . S
S4016 N4017 1.613 . S
S4016 N4018 1.610 . S
N4017 S4016 1.613 . S
N4017 C4020 1.350 . S
N4018 S4016 1.610 . S
N4018 C4019 1.351 . S
C4019 C4013 1.428 . S
C4019 N4018 1.351 . S
C4019 C4020 1.434 . S
C4020 C4011 1.429 . S
C4020 N4017 1.350 . S
C4020 C4019 1.434 . S
C4021 C4022 1.369 . S
C4021 C4023 1.419 . S
C4021 H4025 0.930 . S
C4022 C4021 1.369 . S
C4022 C4031 1.429 . S
C4023 C4021 1.419 . S
C4023 C4024 1.363 . S
C4023 H4026 0.929 . S
C4024 C4023 1.363 . S
C4024 C4030 1.428 . S
H4025 C4021 0.930 . S
H4026 C4023 0.929 . S
S4027 N4028 1.613 . S
S4027 N4029 1.610 . S
N4028 S4027 1.613 . S
N4028 C4031 1.350 . S
N4029 S4027 1.610 . S
N4029 C4030 1.351 . S
C4030 C4024 1.428 . S
C4030 N4029 1.351 . S
C4030 C4031 1.434 . S
C4031 C4022 1.429 . S
C4031 N4028 1.350 . S
C4031 C4030 1.434 . S
C4032 C4033 1.369 . S
C4032 C4034 1.419 . S
C4032 H4036 0.930 . S
C4033 C4032 1.369 . S
C4033 C4042 1.429 . S
C4034 C4032 1.419 . S
C4034 C4035 1.363 . S
C4034 H4037 0.929 . S
C4035 C4034 1.363 . S
C4035 C4041 1.428 . S
H4036 C4032 0.930 . S
H4037 C4034 0.929 . S
S4038 N4039 1.613 . S
S4038 N4040 1.610 . S
N4039 S4038 1.613 . S
N4039 C4042 1.350 . S
N4040 S4038 1.610 . S
N4040 C4041 1.351 . S
C4041 C4035 1.428 . S
C4041 N4040 1.351 . S
C4041 C4042 1.434 . S
C4042 C4033 1.429 . S
C4042 N4039 1.350 . S
C4042 C4041 1.434 . S
C4043 C4044 1.369 . S
C4043 C4045 1.419 . S
C4043 H4047 0.930 . S
C4044 C4043 1.369 . S
C4044 C4053 1.429 . S
C4045 C4043 1.419 . S
C4045 C4046 1.363 . S
C4045 H4048 0.929 . S
C4046 C4045 1.363 . S
C4046 C4052 1.428 . S
H4047 C4043 0.930 . S
H4048 C4045 0.929 . S
S4049 N4050 1.613 . S
S4049 N4051 1.610 . S
N4050 S4049 1.613 . S
N4050 C4053 1.350 . S
N4051 S4049 1.610 . S
N4051 C4052 1.351 . S
C4052 C4046 1.428 . S
C4052 N4051 1.351 . S
C4052 C4053 1.434 . S
C4053 C4044 1.429 . S
C4053 N4050 1.350 . S
C4053 C4052 1.434 . S
C4054 C4055 1.369 . S
C4054 C4056 1.419 . S
C4054 H4058 0.930 . S
C4055 C4054 1.369 . S
C4055 C4064 1.429 . S
C4056 C4054 1.419 . S
C4056 C4057 1.363 . S
C4056 H4059 0.929 . S
C4057 C4056 1.363 . S
C4057 C4063 1.428 . S
H4058 C4054 0.930 . S
H4059 C4056 0.929 . S
S4060 N4061 1.613 . S
S4060 N4062 1.610 . S
N4061 S4060 1.613 . S
N4061 C4064 1.350 . S
N4062 S4060 1.610 . S
N4062 C4063 1.351 . S
C4063 C4057 1.428 . S
C4063 N4062 1.351 . S
C4063 C4064 1.434 . S
C4064 C4055 1.429 . S
C4064 N4061 1.350 . S
C4064 C4063 1.434 . S
C4065 C4066 1.369 . S
C4065 C4067 1.419 . S
C4065 H4069 0.930 . S
C4066 C4065 1.369 . S
C4066 C4075 1.429 . S
C4067 C4065 1.419 . S
C4067 C4068 1.363 . S
C4067 H4070 0.929 . S
C4068 C4067 1.363 . S
C4068 C4074 1.428 . S
H4069 C4065 0.930 . S
H4070 C4067 0.929 . S
S4071 N4072 1.613 . S
S4071 N4073 1.610 . S
N4072 S4071 1.613 . S
N4072 C4075 1.350 . S
N4073 S4071 1.610 . S
N4073 C4074 1.351 . S
C4074 C4068 1.428 . S
C4074 N4073 1.351 . S
C4074 C4075 1.434 . S
C4075 C4066 1.429 . S
C4075 N4072 1.350 . S
C4075 C4074 1.434 . S
C4076 C4077 1.369 . S
C4076 C4078 1.419 . S
C4076 H4080 0.930 . S
C4077 C4076 1.369 . S
C4077 C4086 1.429 . S
C4078 C4076 1.419 . S
C4078 C4079 1.363 . S
C4078 H4081 0.929 . S
C4079 C4078 1.363 . S
C4079 C4085 1.428 . S
H4080 C4076 0.930 . S
H4081 C4078 0.929 . S
S4082 N4083 1.613 . S
S4082 N4084 1.610 . S
N4083 S4082 1.613 . S
N4083 C4086 1.350 . S
N4084 S4082 1.610 . S
N4084 C4085 1.351 . S
C4085 C4079 1.428 . S
C4085 N4084 1.351 . S
C4085 C4086 1.434 . S
C4086 C4077 1.429 . S
C4086 N4083 1.350 . S
C4086 C4085 1.434 . S
C4087 C4088 1.369 . S
C4087 C4089 1.419 . S
C4087 H4091 0.930 . S
C4088 C4087 1.369 . S
C4088 C4097 1.429 . S
C4089 C4087 1.419 . S
C4089 C4090 1.363 . S
C4089 H4092 0.929 . S
C4090 C4089 1.363 . S
C4090 C4096 1.428 . S
H4091 C4087 0.930 . S
H4092 C4089 0.929 . S
S4093 N4094 1.613 . S
S4093 N4095 1.610 . S
N4094 S4093 1.613 . S
N4094 C4097 1.350 . S
N4095 S4093 1.610 . S
N4095 C4096 1.351 . S
C4096 C4090 1.428 . S
C4096 N4095 1.351 . S
C4096 C4097 1.434 . S
C4097 C4088 1.429 . S
C4097 N4094 1.350 . S
C4097 C4096 1.434 . S
C4098 C4099 1.369 . S
C4098 C4100 1.419 . S
C4098 H4102 0.930 . S
C4099 C4098 1.369 . S
C4099 C4108 1.429 . S
C4100 C4098 1.419 . S
C4100 C4101 1.363 . S
C4100 H4103 0.929 . S
C4101 C4100 1.363 . S
C4101 C4107 1.428 . S
H4102 C4098 0.930 . S
H4103 C4100 0.929 . S
S4104 N4105 1.613 . S
S4104 N4106 1.610 . S
N4105 S4104 1.613 . S
N4105 C4108 1.350 . S
N4106 S4104 1.610 . S
N4106 C4107 1.351 . S
C4107 C4101 1.428 . S
C4107 N4106 1.351 . S
C4107 C4108 1.434 . S
C4108 C4099 1.429 . S
C4108 N4105 1.350 . S
C4108 C4107 1.434 . S
C4109 C4110 1.369 . S
C4109 C4111 1.419 . S
C4109 H4113 0.930 . S
C4110 C4109 1.369 . S
C4110 C4119 1.429 . S
C4111 C4109 1.419 . S
C4111 C4112 1.363 . S
C4111 H4114 0.929 . S
C4112 C4111 1.363 . S
C4112 C4118 1.428 . S
H4113 C4109 0.930 . S
H4114 C4111 0.929 . S
S4115 N4116 1.613 . S
S4115 N4117 1.610 . S
N4116 S4115 1.613 . S
N4116 C4119 1.350 . S
N4117 S4115 1.610 . S
N4117 C4118 1.351 . S
C4118 C4112 1.428 . S
C4118 N4117 1.351 . S
C4118 C4119 1.434 . S
C4119 C4110 1.429 . S
C4119 N4116 1.350 . S
C4119 C4118 1.434 . S
C4120 C4121 1.369 . S
C4120 C4122 1.419 . S
C4120 H4124 0.930 . S
C4121 C4120 1.369 . S
C4121 C4130 1.429 . S
C4122 C4120 1.419 . S
C4122 C4123 1.363 . S
C4122 H4125 0.929 . S
C4123 C4122 1.363 . S
C4123 C4129 1.428 . S
H4124 C4120 0.930 . S
H4125 C4122 0.929 . S
S4126 N4127 1.613 . S
S4126 N4128 1.610 . S
N4127 S4126 1.613 . S
N4127 C4130 1.350 . S
N4128 S4126 1.610 . S
N4128 C4129 1.351 . S
C4129 C4123 1.428 . S
C4129 N4128 1.351 . S
C4129 C4130 1.434 . S
C4130 C4121 1.429 . S
C4130 N4127 1.350 . S
C4130 C4129 1.434 . S
C4131 C4132 1.369 . S
C4131 C4133 1.419 . S
C4131 H4135 0.930 . S
C4132 C4131 1.369 . S
C4132 C4141 1.429 . S
C4133 C4131 1.419 . S
C4133 C4134 1.363 . S
C4133 H4136 0.929 . S
C4134 C4133 1.363 . S
C4134 C4140 1.428 . S
H4135 C4131 0.930 . S
H4136 C4133 0.929 . S
S4137 N4138 1.613 . S
S4137 N4139 1.610 . S
N4138 S4137 1.613 . S
N4138 C4141 1.350 . S
N4139 S4137 1.610 . S
N4139 C4140 1.351 . S
C4140 C4134 1.428 . S
C4140 N4139 1.351 . S
C4140 C4141 1.434 . S
C4141 C4132 1.429 . S
C4141 N4138 1.350 . S
C4141 C4140 1.434 . S
C4142 C4143 1.369 . S
C4142 C4144 1.419 . S
C4142 H4146 0.930 . S
C4143 C4142 1.369 . S
C4143 C4152 1.429 . S
C4144 C4142 1.419 . S
C4144 C4145 1.363 . S
C4144 H4147 0.929 . S
C4145 C4144 1.363 . S
C4145 C4151 1.428 . S
H4146 C4142 0.930 . S
H4147 C4144 0.929 . S
S4148 N4149 1.613 . S
S4148 N4150 1.610 . S
N4149 S4148 1.613 . S
N4149 C4152 1.350 . S
N4150 S4148 1.610 . S
N4150 C4151 1.351 . S
C4151 C4145 1.428 . S
C4151 N4150 1.351 . S
C4151 C4152 1.434 . S
C4152 C4143 1.429 . S
C4152 N4149 1.350 . S
C4152 C4151 1.434 . S
C4153 C4154 1.369 . S
C4153 C4155 1.419 . S
C4153 H4157 0.930 . S
C4154 C4153 1.369 . S
C4154 C4163 1.429 . S
C4155 C4153 1.419 . S
C4155 C4156 1.363 . S
C4155 H4158 0.929 . S
C4156 C4155 1.363 . S
C4156 C4162 1.428 . S
H4157 C4153 0.930 . S
H4158 C4155 0.929 . S
S4159 N4160 1.613 . S
S4159 N4161 1.610 . S
N4160 S4159 1.613 . S
N4160 C4163 1.350 . S
N4161 S4159 1.610 . S
N4161 C4162 1.351 . S
C4162 C4156 1.428 . S
C4162 N4161 1.351 . S
C4162 C4163 1.434 . S
C4163 C4154 1.429 . S
C4163 N4160 1.350 . S
C4163 C4162 1.434 . S
C4164 C4165 1.369 . S
C4164 C4166 1.419 . S
C4164 H4168 0.930 . S
C4165 C4164 1.369 . S
C4165 C4174 1.429 . S
C4166 C4164 1.419 . S
C4166 C4167 1.363 . S
C4166 H4169 0.929 . S
C4167 C4166 1.363 . S
C4167 C4173 1.428 . S
H4168 C4164 0.930 . S
H4169 C4166 0.929 . S
S4170 N4171 1.613 . S
S4170 N4172 1.610 . S
N4171 S4170 1.613 . S
N4171 C4174 1.350 . S
N4172 S4170 1.610 . S
N4172 C4173 1.351 . S
C4173 C4167 1.428 . S
C4173 N4172 1.351 . S
C4173 C4174 1.434 . S
C4174 C4165 1.429 . S
C4174 N4171 1.350 . S
C4174 C4173 1.434 . S
C4175 C4176 1.369 . S
C4175 C4177 1.419 . S
C4175 H4179 0.930 . S
C4176 C4175 1.369 . S
C4176 C4185 1.429 . S
C4177 C4175 1.419 . S
C4177 C4178 1.363 . S
C4177 H4180 0.929 . S
C4178 C4177 1.363 . S
C4178 C4184 1.428 . S
H4179 C4175 0.930 . S
H4180 C4177 0.929 . S
S4181 N4182 1.613 . S
S4181 N4183 1.610 . S
N4182 S4181 1.613 . S
N4182 C4185 1.350 . S
N4183 S4181 1.610 . S
N4183 C4184 1.351 . S
C4184 C4178 1.428 . S
C4184 N4183 1.351 . S
C4184 C4185 1.434 . S
C4185 C4176 1.429 . S
C4185 N4182 1.350 . S
C4185 C4184 1.434 . S
C4186 C4187 1.369 . S
C4186 C4188 1.419 . S
C4186 H4190 0.930 . S
C4187 C4186 1.369 . S
C4187 C4196 1.429 . S
C4188 C4186 1.419 . S
C4188 C4189 1.363 . S
C4188 H4191 0.929 . S
C4189 C4188 1.363 . S
C4189 C4195 1.428 . S
H4190 C4186 0.930 . S
H4191 C4188 0.929 . S
S4192 N4193 1.613 . S
S4192 N4194 1.610 . S
N4193 S4192 1.613 . S
N4193 C4196 1.350 . S
N4194 S4192 1.610 . S
N4194 C4195 1.351 . S
C4195 C4189 1.428 . S
C4195 N4194 1.351 . S
C4195 C4196 1.434 . S
C4196 C4187 1.429 . S
C4196 N4193 1.350 . S
C4196 C4195 1.434 . S
C4197 C4198 1.369 . S
C4197 C4199 1.419 . S
C4197 H4201 0.930 . S
C4198 C4197 1.369 . S
C4198 C4207 1.429 . S
C4199 C4197 1.419 . S
C4199 C4200 1.363 . S
C4199 H4202 0.929 . S
C4200 C4199 1.363 . S
C4200 C4206 1.428 . S
H4201 C4197 0.930 . S
H4202 C4199 0.929 . S
S4203 N4204 1.613 . S
S4203 N4205 1.610 . S
N4204 S4203 1.613 . S
N4204 C4207 1.350 . S
N4205 S4203 1.610 . S
N4205 C4206 1.351 . S
C4206 C4200 1.428 . S
C4206 N4205 1.351 . S
C4206 C4207 1.434 . S
C4207 C4198 1.429 . S
C4207 N4204 1.350 . S
C4207 C4206 1.434 . S
C4208 C4209 1.369 . S
C4208 C4210 1.419 . S
C4208 H4212 0.930 . S
C4209 C4208 1.369 . S
C4209 C4218 1.429 . S
C4210 C4208 1.419 . S
C4210 C4211 1.363 . S
C4210 H4213 0.929 . S
C4211 C4210 1.363 . S
C4211 C4217 1.428 . S
H4212 C4208 0.930 . S
H4213 C4210 0.929 . S
S4214 N4215 1.613 . S
S4214 N4216 1.610 . S
N4215 S4214 1.613 . S
N4215 C4218 1.350 . S
N4216 S4214 1.610 . S
N4216 C4217 1.351 . S
C4217 C4211 1.428 . S
C4217 N4216 1.351 . S
C4217 C4218 1.434 . S
C4218 C4209 1.429 . S
C4218 N4215 1.350 . S
C4218 C4217 1.434 . S
C4219 C4220 1.369 . S
C4219 C4221 1.419 . S
C4219 H4223 0.930 . S
C4220 C4219 1.369 . S
C4220 C4229 1.429 . S
C4221 C4219 1.419 . S
C4221 C4222 1.363 . S
C4221 H4224 0.929 . S
C4222 C4221 1.363 . S
C4222 C4228 1.428 . S
H4223 C4219 0.930 . S
H4224 C4221 0.929 . S
S4225 N4226 1.613 . S
S4225 N4227 1.610 . S
N4226 S4225 1.613 . S
N4226 C4229 1.350 . S
N4227 S4225 1.610 . S
N4227 C4228 1.351 . S
C4228 C4222 1.428 . S
C4228 N4227 1.351 . S
C4228 C4229 1.434 . S
C4229 C4220 1.429 . S
C4229 N4226 1.350 . S
C4229 C4228 1.434 . S
C4230 C4231 1.369 . S
C4230 C4232 1.419 . S
C4230 H4234 0.930 . S
C4231 C4230 1.369 . S
C4231 C4240 1.429 . S
C4232 C4230 1.419 . S
C4232 C4233 1.363 . S
C4232 H4235 0.929 . S
C4233 C4232 1.363 . S
C4233 C4239 1.428 . S
H4234 C4230 0.930 . S
H4235 C4232 0.929 . S
S4236 N4237 1.613 . S
S4236 N4238 1.610 . S
N4237 S4236 1.613 . S
N4237 C4240 1.350 . S
N4238 S4236 1.610 . S
N4238 C4239 1.351 . S
C4239 C4233 1.428 . S
C4239 N4238 1.351 . S
C4239 C4240 1.434 . S
C4240 C4231 1.429 . S
C4240 N4237 1.350 . S
C4240 C4239 1.434 . S
C4241 C4242 1.369 . S
C4241 C4243 1.419 . S
C4241 H4245 0.930 . S
C4242 C4241 1.369 . S
C4242 C4251 1.429 . S
C4243 C4241 1.419 . S
C4243 C4244 1.363 . S
C4243 H4246 0.929 . S
C4244 C4243 1.363 . S
C4244 C4250 1.428 . S
H4245 C4241 0.930 . S
H4246 C4243 0.929 . S
S4247 N4248 1.613 . S
S4247 N4249 1.610 . S
N4248 S4247 1.613 . S
N4248 C4251 1.350 . S
N4249 S4247 1.610 . S
N4249 C4250 1.351 . S
C4250 C4244 1.428 . S
C4250 N4249 1.351 . S
C4250 C4251 1.434 . S
C4251 C4242 1.429 . S
C4251 N4248 1.350 . S
C4251 C4250 1.434 . S
C4252 C4253 1.369 . S
C4252 C4254 1.419 . S
C4252 H4256 0.930 . S
C4253 C4252 1.369 . S
C4253 C4262 1.429 . S
C4254 C4252 1.419 . S
C4254 C4255 1.363 . S
C4254 H4257 0.929 . S
C4255 C4254 1.363 . S
C4255 C4261 1.428 . S
H4256 C4252 0.930 . S
H4257 C4254 0.929 . S
S4258 N4259 1.613 . S
S4258 N4260 1.610 . S
N4259 S4258 1.613 . S
N4259 C4262 1.350 . S
N4260 S4258 1.610 . S
N4260 C4261 1.351 . S
C4261 C4255 1.428 . S
C4261 N4260 1.351 . S
C4261 C4262 1.434 . S
C4262 C4253 1.429 . S
C4262 N4259 1.350 . S
C4262 C4261 1.434 . S
C4263 C4264 1.369 . S
C4263 C4265 1.419 . S
C4263 H4267 0.930 . S
C4264 C4263 1.369 . S
C4264 C4273 1.429 . S
C4265 C4263 1.419 . S
C4265 C4266 1.363 . S
C4265 H4268 0.929 . S
C4266 C4265 1.363 . S
C4266 C4272 1.428 . S
H4267 C4263 0.930 . S
H4268 C4265 0.929 . S
S4269 N4270 1.613 . S
S4269 N4271 1.610 . S
N4270 S4269 1.613 . S
N4270 C4273 1.350 . S
N4271 S4269 1.610 . S
N4271 C4272 1.351 . S
C4272 C4266 1.428 . S
C4272 N4271 1.351 . S
C4272 C4273 1.434 . S
C4273 C4264 1.429 . S
C4273 N4270 1.350 . S
C4273 C4272 1.434 . S
C4274 C4275 1.369 . S
C4274 C4276 1.419 . S
C4274 H4278 0.930 . S
C4275 C4274 1.369 . S
C4275 C4284 1.429 . S
C4276 C4274 1.419 . S
C4276 C4277 1.363 . S
C4276 H4279 0.929 . S
C4277 C4276 1.363 . S
C4277 C4283 1.428 . S
H4278 C4274 0.930 . S
H4279 C4276 0.929 . S
S4280 N4281 1.613 . S
S4280 N4282 1.610 . S
N4281 S4280 1.613 . S
N4281 C4284 1.350 . S
N4282 S4280 1.610 . S
N4282 C4283 1.351 . S
C4283 C4277 1.428 . S
C4283 N4282 1.351 . S
C4283 C4284 1.434 . S
C4284 C4275 1.429 . S
C4284 N4281 1.350 . S
C4284 C4283 1.434 . S
C4285 C4286 1.369 . S
C4285 C4287 1.419 . S
C4285 H4289 0.930 . S
C4286 C4285 1.369 . S
C4286 C4295 1.429 . S
C4287 C4285 1.419 . S
C4287 C4288 1.363 . S
C4287 H4290 0.929 . S
C4288 C4287 1.363 . S
C4288 C4294 1.428 . S
H4289 C4285 0.930 . S
H4290 C4287 0.929 . S
S4291 N4292 1.613 . S
S4291 N4293 1.610 . S
N4292 S4291 1.613 . S
N4292 C4295 1.350 . S
N4293 S4291 1.610 . S
N4293 C4294 1.351 . S
C4294 C4288 1.428 . S
C4294 N4293 1.351 . S
C4294 C4295 1.434 . S
C4295 C4286 1.429 . S
C4295 N4292 1.350 . S
C4295 C4294 1.434 . S
C4296 C4297 1.369 . S
C4296 C4298 1.419 . S
C4296 H4300 0.930 . S
C4297 C4296 1.369 . S
C4297 C4306 1.429 . S
C4298 C4296 1.419 . S
C4298 C4299 1.363 . S
C4298 H4301 0.929 . S
C4299 C4298 1.363 . S
C4299 C4305 1.428 . S
H4300 C4296 0.930 . S
H4301 C4298 0.929 . S
S4302 N4303 1.613 . S
S4302 N4304 1.610 . S
N4303 S4302 1.613 . S
N4303 C4306 1.350 . S
N4304 S4302 1.610 . S
N4304 C4305 1.351 . S
C4305 C4299 1.428 . S
C4305 N4304 1.351 . S
C4305 C4306 1.434 . S
C4306 C4297 1.429 . S
C4306 N4303 1.350 . S
C4306 C4305 1.434 . S
C4307 C4308 1.369 . S
C4307 C4309 1.419 . S
C4307 H4311 0.930 . S
C4308 C4307 1.369 . S
C4308 C4317 1.429 . S
C4309 C4307 1.419 . S
C4309 C4310 1.363 . S
C4309 H4312 0.929 . S
C4310 C4309 1.363 . S
C4310 C4316 1.428 . S
H4311 C4307 0.930 . S
H4312 C4309 0.929 . S
S4313 N4314 1.613 . S
S4313 N4315 1.610 . S
N4314 S4313 1.613 . S
N4314 C4317 1.350 . S
N4315 S4313 1.610 . S
N4315 C4316 1.351 . S
C4316 C4310 1.428 . S
C4316 N4315 1.351 . S
C4316 C4317 1.434 . S
C4317 C4308 1.429 . S
C4317 N4314 1.350 . S
C4317 C4316 1.434 . S
C4318 C4319 1.369 . S
C4318 C4320 1.419 . S
C4318 H4322 0.930 . S
C4319 C4318 1.369 . S
C4319 C4328 1.429 . S
C4320 C4318 1.419 . S
C4320 C4321 1.363 . S
C4320 H4323 0.929 . S
C4321 C4320 1.363 . S
C4321 C4327 1.428 . S
H4322 C4318 0.930 . S
H4323 C4320 0.929 . S
S4324 N4325 1.613 . S
S4324 N4326 1.610 . S
N4325 S4324 1.613 . S
N4325 C4328 1.350 . S
N4326 S4324 1.610 . S
N4326 C4327 1.351 . S
C4327 C4321 1.428 . S
C4327 N4326 1.351 . S
C4327 C4328 1.434 . S
C4328 C4319 1.429 . S
C4328 N4325 1.350 . S
C4328 C4327 1.434 . S
C4329 C4330 1.369 . S
C4329 C4331 1.419 . S
C4329 H4333 0.930 . S
C4330 C4329 1.369 . S
C4330 C4339 1.429 . S
C4331 C4329 1.419 . S
C4331 C4332 1.363 . S
C4331 H4334 0.929 . S
C4332 C4331 1.363 . S
C4332 C4338 1.428 . S
H4333 C4329 0.930 . S
H4334 C4331 0.929 . S
S4335 N4336 1.613 . S
S4335 N4337 1.610 . S
N4336 S4335 1.613 . S
N4336 C4339 1.350 . S
N4337 S4335 1.610 . S
N4337 C4338 1.351 . S
C4338 C4332 1.428 . S
C4338 N4337 1.351 . S
C4338 C4339 1.434 . S
C4339 C4330 1.429 . S
C4339 N4336 1.350 . S
C4339 C4338 1.434 . S
C4340 C4341 1.369 . S
C4340 C4342 1.419 . S
C4340 H4344 0.930 . S
C4341 C4340 1.369 . S
C4341 C4350 1.429 . S
C4342 C4340 1.419 . S
C4342 C4343 1.363 . S
C4342 H4345 0.929 . S
C4343 C4342 1.363 . S
C4343 C4349 1.428 . S
H4344 C4340 0.930 . S
H4345 C4342 0.929 . S
S4346 N4347 1.613 . S
S4346 N4348 1.610 . S
N4347 S4346 1.613 . S
N4347 C4350 1.350 . S
N4348 S4346 1.610 . S
N4348 C4349 1.351 . S
C4349 C4343 1.428 . S
C4349 N4348 1.351 . S
C4349 C4350 1.434 . S
C4350 C4341 1.429 . S
C4350 N4347 1.350 . S
C4350 C4349 1.434 . S
C4351 C4352 1.369 . S
C4351 C4353 1.419 . S
C4351 H4355 0.930 . S
C4352 C4351 1.369 . S
C4352 C4361 1.429 . S
C4353 C4351 1.419 . S
C4353 C4354 1.363 . S
C4353 H4356 0.929 . S
C4354 C4353 1.363 . S
C4354 C4360 1.428 . S
H4355 C4351 0.930 . S
H4356 C4353 0.929 . S
S4357 N4358 1.613 . S
S4357 N4359 1.610 . S
N4358 S4357 1.613 . S
N4358 C4361 1.350 . S
N4359 S4357 1.610 . S
N4359 C4360 1.351 . S
C4360 C4354 1.428 . S
C4360 N4359 1.351 . S
C4360 C4361 1.434 . S
C4361 C4352 1.429 . S
C4361 N4358 1.350 . S
C4361 C4360 1.434 . S
C4362 C4363 1.369 . S
C4362 C4364 1.419 . S
C4362 H4366 0.930 . S
C4363 C4362 1.369 . S
C4363 C4372 1.429 . S
C4364 C4362 1.419 . S
C4364 C4365 1.363 . S
C4364 H4367 0.929 . S
C4365 C4364 1.363 . S
C4365 C4371 1.428 . S
H4366 C4362 0.930 . S
H4367 C4364 0.929 . S
S4368 N4369 1.613 . S
S4368 N4370 1.610 . S
N4369 S4368 1.613 . S
N4369 C4372 1.350 . S
N4370 S4368 1.610 . S
N4370 C4371 1.351 . S
C4371 C4365 1.428 . S
C4371 N4370 1.351 . S
C4371 C4372 1.434 . S
C4372 C4363 1.429 . S
C4372 N4369 1.350 . S
C4372 C4371 1.434 . S
C4373 C4374 1.369 . S
C4373 C4375 1.419 . S
C4373 H4377 0.930 . S
C4374 C4373 1.369 . S
C4374 C4383 1.429 . S
C4375 C4373 1.419 . S
C4375 C4376 1.363 . S
C4375 H4378 0.929 . S
C4376 C4375 1.363 . S
C4376 C4382 1.428 . S
H4377 C4373 0.930 . S
H4378 C4375 0.929 . S
S4379 N4380 1.613 . S
S4379 N4381 1.610 . S
N4380 S4379 1.613 . S
N4380 C4383 1.350 . S
N4381 S4379 1.610 . S
N4381 C4382 1.351 . S
C4382 C4376 1.428 . S
C4382 N4381 1.351 . S
C4382 C4383 1.434 . S
C4383 C4374 1.429 . S
C4383 N4380 1.350 . S
C4383 C4382 1.434 . S
C4384 C4385 1.369 . S
C4384 C4386 1.419 . S
C4384 H4388 0.930 . S
C4385 C4384 1.369 . S
C4385 C4394 1.429 . S
C4386 C4384 1.419 . S
C4386 C4387 1.363 . S
C4386 H4389 0.929 . S
C4387 C4386 1.363 . S
C4387 C4393 1.428 . S
H4388 C4384 0.930 . S
H4389 C4386 0.929 . S
S4390 N4391 1.613 . S
S4390 N4392 1.610 . S
N4391 S4390 1.613 . S
N4391 C4394 1.350 . S
N4392 S4390 1.610 . S
N4392 C4393 1.351 . S
C4393 C4387 1.428 . S
C4393 N4392 1.351 . S
C4393 C4394 1.434 . S
C4394 C4385 1.429 . S
C4394 N4391 1.350 . S
C4394 C4393 1.434 . S
C4395 C4396 1.369 . S
C4395 C4397 1.419 . S
C4395 H4399 0.930 . S
C4396 C4395 1.369 . S
C4396 C4405 1.429 . S
C4397 C4395 1.419 . S
C4397 C4398 1.363 . S
C4397 H4400 0.929 . S
C4398 C4397 1.363 . S
C4398 C4404 1.428 . S
H4399 C4395 0.930 . S
H4400 C4397 0.929 . S
S4401 N4402 1.613 . S
S4401 N4403 1.610 . S
N4402 S4401 1.613 . S
N4402 C4405 1.350 . S
N4403 S4401 1.610 . S
N4403 C4404 1.351 . S
C4404 C4398 1.428 . S
C4404 N4403 1.351 . S
C4404 C4405 1.434 . S
C4405 C4396 1.429 . S
C4405 N4402 1.350 . S
C4405 C4404 1.434 . S
C4406 C4407 1.369 . S
C4406 C4408 1.419 . S
C4406 H4410 0.930 . S
C4407 C4406 1.369 . S
C4407 C4416 1.429 . S
C4408 C4406 1.419 . S
C4408 C4409 1.363 . S
C4408 H4411 0.929 . S
C4409 C4408 1.363 . S
C4409 C4415 1.428 . S
H4410 C4406 0.930 . S
H4411 C4408 0.929 . S
S4412 N4413 1.613 . S
S4412 N4414 1.610 . S
N4413 S4412 1.613 . S
N4413 C4416 1.350 . S
N4414 S4412 1.610 . S
N4414 C4415 1.351 . S
C4415 C4409 1.428 . S
C4415 N4414 1.351 . S
C4415 C4416 1.434 . S
C4416 C4407 1.429 . S
C4416 N4413 1.350 . S
C4416 C4415 1.434 . S
C4417 C4418 1.369 . S
C4417 C4419 1.419 . S
C4417 H4421 0.930 . S
C4418 C4417 1.369 . S
C4418 C4427 1.429 . S
C4419 C4417 1.419 . S
C4419 C4420 1.363 . S
C4419 H4422 0.929 . S
C4420 C4419 1.363 . S
C4420 C4426 1.428 . S
H4421 C4417 0.930 . S
H4422 C4419 0.929 . S
S4423 N4424 1.613 . S
S4423 N4425 1.610 . S
N4424 S4423 1.613 . S
N4424 C4427 1.350 . S
N4425 S4423 1.610 . S
N4425 C4426 1.351 . S
C4426 C4420 1.428 . S
C4426 N4425 1.351 . S
C4426 C4427 1.434 . S
C4427 C4418 1.429 . S
C4427 N4424 1.350 . S
C4427 C4426 1.434 . S
C4428 C4429 1.369 . S
C4428 C4430 1.419 . S
C4428 H4432 0.930 . S
C4429 C4428 1.369 . S
C4429 C4438 1.429 . S
C4430 C4428 1.419 . S
C4430 C4431 1.363 . S
C4430 H4433 0.929 . S
C4431 C4430 1.363 . S
C4431 C4437 1.428 . S
H4432 C4428 0.930 . S
H4433 C4430 0.929 . S
S4434 N4435 1.613 . S
S4434 N4436 1.610 . S
N4435 S4434 1.613 . S
N4435 C4438 1.350 . S
N4436 S4434 1.610 . S
N4436 C4437 1.351 . S
C4437 C4431 1.428 . S
C4437 N4436 1.351 . S
C4437 C4438 1.434 . S
C4438 C4429 1.429 . S
C4438 N4435 1.350 . S
C4438 C4437 1.434 . S
C4439 C4440 1.369 . S
C4439 C4441 1.419 . S
C4439 H4443 0.930 . S
C4440 C4439 1.369 . S
C4440 C4449 1.429 . S
C4441 C4439 1.419 . S
C4441 C4442 1.363 . S
C4441 H4444 0.929 . S
C4442 C4441 1.363 . S
C4442 C4448 1.428 . S
H4443 C4439 0.930 . S
H4444 C4441 0.929 . S
S4445 N4446 1.613 . S
S4445 N4447 1.610 . S
N4446 S4445 1.613 . S
N4446 C4449 1.350 . S
N4447 S4445 1.610 . S
N4447 C4448 1.351 . S
C4448 C4442 1.428 . S
C4448 N4447 1.351 . S
C4448 C4449 1.434 . S
C4449 C4440 1.429 . S
C4449 N4446 1.350 . S
C4449 C4448 1.434 . S
C4450 C4451 1.369 . S
C4450 C4452 1.419 . S
C4450 H4454 0.930 . S
C4451 C4450 1.369 . S
C4451 C4460 1.429 . S
C4452 C4450 1.419 . S
C4452 C4453 1.363 . S
C4452 H4455 0.929 . S
C4453 C4452 1.363 . S
C4453 C4459 1.428 . S
H4454 C4450 0.930 . S
H4455 C4452 0.929 . S
S4456 N4457 1.613 . S
S4456 N4458 1.610 . S
N4457 S4456 1.613 . S
N4457 C4460 1.350 . S
N4458 S4456 1.610 . S
N4458 C4459 1.351 . S
C4459 C4453 1.428 . S
C4459 N4458 1.351 . S
C4459 C4460 1.434 . S
C4460 C4451 1.429 . S
C4460 N4457 1.350 . S
C4460 C4459 1.434 . S
C4461 C4462 1.369 . S
C4461 C4463 1.419 . S
C4461 H4465 0.930 . S
C4462 C4461 1.369 . S
C4462 C4471 1.429 . S
C4463 C4461 1.419 . S
C4463 C4464 1.363 . S
C4463 H4466 0.929 . S
C4464 C4463 1.363 . S
C4464 C4470 1.428 . S
H4465 C4461 0.930 . S
H4466 C4463 0.929 . S
S4467 N4468 1.613 . S
S4467 N4469 1.610 . S
N4468 S4467 1.613 . S
N4468 C4471 1.350 . S
N4469 S4467 1.610 . S
N4469 C4470 1.351 . S
C4470 C4464 1.428 . S
C4470 N4469 1.351 . S
C4470 C4471 1.434 . S
C4471 C4462 1.429 . S
C4471 N4468 1.350 . S
C4471 C4470 1.434 . S
C4472 C4473 1.369 . S
C4472 C4474 1.419 . S
C4472 H4476 0.930 . S
C4473 C4472 1.369 . S
C4473 C4482 1.429 . S
C4474 C4472 1.419 . S
C4474 C4475 1.363 . S
C4474 H4477 0.929 . S
C4475 C4474 1.363 . S
C4475 C4481 1.428 . S
H4476 C4472 0.930 . S
H4477 C4474 0.929 . S
S4478 N4479 1.613 . S
S4478 N4480 1.610 . S
N4479 S4478 1.613 . S
N4479 C4482 1.350 . S
N4480 S4478 1.610 . S
N4480 C4481 1.351 . S
C4481 C4475 1.428 . S
C4481 N4480 1.351 . S
C4481 C4482 1.434 . S
C4482 C4473 1.429 . S
C4482 N4479 1.350 . S
C4482 C4481 1.434 . S
C4483 C4484 1.369 . S
C4483 C4485 1.419 . S
C4483 H4487 0.930 . S
C4484 C4483 1.369 . S
C4484 C4493 1.429 . S
C4485 C4483 1.419 . S
C4485 C4486 1.363 . S
C4485 H4488 0.929 . S
C4486 C4485 1.363 . S
C4486 C4492 1.428 . S
H4487 C4483 0.930 . S
H4488 C4485 0.929 . S
S4489 N4490 1.613 . S
S4489 N4491 1.610 . S
N4490 S4489 1.613 . S
N4490 C4493 1.350 . S
N4491 S4489 1.610 . S
N4491 C4492 1.351 . S
C4492 C4486 1.428 . S
C4492 N4491 1.351 . S
C4492 C4493 1.434 . S
C4493 C4484 1.429 . S
C4493 N4490 1.350 . S
C4493 C4492 1.434 . S
C4494 C4495 1.369 . S
C4494 C4496 1.419 . S
C4494 H4498 0.930 . S
C4495 C4494 1.369 . S
C4495 C4504 1.429 . S
C4496 C4494 1.419 . S
C4496 C4497 1.363 . S
C4496 H4499 0.929 . S
C4497 C4496 1.363 . S
C4497 C4503 1.428 . S
H4498 C4494 0.930 . S
H4499 C4496 0.929 . S
S4500 N4501 1.613 . S
S4500 N4502 1.610 . S
N4501 S4500 1.613 . S
N4501 C4504 1.350 . S
N4502 S4500 1.610 . S
N4502 C4503 1.351 . S
C4503 C4497 1.428 . S
C4503 N4502 1.351 . S
C4503 C4504 1.434 . S
C4504 C4495 1.429 . S
C4504 N4501 1.350 . S
C4504 C4503 1.434 . S
C4505 C4506 1.369 . S
C4505 C4507 1.419 . S
C4505 H4509 0.930 . S
C4506 C4505 1.369 . S
C4506 C4515 1.429 . S
C4507 C4505 1.419 . S
C4507 C4508 1.363 . S
C4507 H4510 0.929 . S
C4508 C4507 1.363 . S
C4508 C4514 1.428 . S
H4509 C4505 0.930 . S
H4510 C4507 0.929 . S
S4511 N4512 1.613 . S
S4511 N4513 1.610 . S
N4512 S4511 1.613 . S
N4512 C4515 1.350 . S
N4513 S4511 1.610 . S
N4513 C4514 1.351 . S
C4514 C4508 1.428 . S
C4514 N4513 1.351 . S
C4514 C4515 1.434 . S
C4515 C4506 1.429 . S
C4515 N4512 1.350 . S
C4515 C4514 1.434 . S
C4516 C4517 1.369 . S
C4516 C4518 1.419 . S
C4516 H4520 0.930 . S
C4517 C4516 1.369 . S
C4517 C4526 1.429 . S
C4518 C4516 1.419 . S
C4518 C4519 1.363 . S
C4518 H4521 0.929 . S
C4519 C4518 1.363 . S
C4519 C4525 1.428 . S
H4520 C4516 0.930 . S
H4521 C4518 0.929 . S
S4522 N4523 1.613 . S
S4522 N4524 1.610 . S
N4523 S4522 1.613 . S
N4523 C4526 1.350 . S
N4524 S4522 1.610 . S
N4524 C4525 1.351 . S
C4525 C4519 1.428 . S
C4525 N4524 1.351 . S
C4525 C4526 1.434 . S
C4526 C4517 1.429 . S
C4526 N4523 1.350 . S
C4526 C4525 1.434 . S
C4527 C4528 1.369 . S
C4527 C4529 1.419 . S
C4527 H4531 0.930 . S
C4528 C4527 1.369 . S
C4528 C4537 1.429 . S
C4529 C4527 1.419 . S
C4529 C4530 1.363 . S
C4529 H4532 0.929 . S
C4530 C4529 1.363 . S
C4530 C4536 1.428 . S
H4531 C4527 0.930 . S
H4532 C4529 0.929 . S
S4533 N4534 1.613 . S
S4533 N4535 1.610 . S
N4534 S4533 1.613 . S
N4534 C4537 1.350 . S
N4535 S4533 1.610 . S
N4535 C4536 1.351 . S
C4536 C4530 1.428 . S
C4536 N4535 1.351 . S
C4536 C4537 1.434 . S
C4537 C4528 1.429 . S
C4537 N4534 1.350 . S
C4537 C4536 1.434 . S
C4538 C4539 1.369 . S
C4538 C4540 1.419 . S
C4538 H4542 0.930 . S
C4539 C4538 1.369 . S
C4539 C4548 1.429 . S
C4540 C4538 1.419 . S
C4540 C4541 1.363 . S
C4540 H4543 0.929 . S
C4541 C4540 1.363 . S
C4541 C4547 1.428 . S
H4542 C4538 0.930 . S
H4543 C4540 0.929 . S
S4544 N4545 1.613 . S
S4544 N4546 1.610 . S
N4545 S4544 1.613 . S
N4545 C4548 1.350 . S
N4546 S4544 1.610 . S
N4546 C4547 1.351 . S
C4547 C4541 1.428 . S
C4547 N4546 1.351 . S
C4547 C4548 1.434 . S
C4548 C4539 1.429 . S
C4548 N4545 1.350 . S
C4548 C4547 1.434 . S
C4549 C4550 1.369 . S
C4549 C4551 1.419 . S
C4549 H4553 0.930 . S
C4550 C4549 1.369 . S
C4550 C4559 1.429 . S
C4551 C4549 1.419 . S
C4551 C4552 1.363 . S
C4551 H4554 0.929 . S
C4552 C4551 1.363 . S
C4552 C4558 1.428 . S
H4553 C4549 0.930 . S
H4554 C4551 0.929 . S
S4555 N4556 1.613 . S
S4555 N4557 1.610 . S
N4556 S4555 1.613 . S
N4556 C4559 1.350 . S
N4557 S4555 1.610 . S
N4557 C4558 1.351 . S
C4558 C4552 1.428 . S
C4558 N4557 1.351 . S
C4558 C4559 1.434 . S
C4559 C4550 1.429 . S
C4559 N4556 1.350 . S
C4559 C4558 1.434 . S
C4560 C4561 1.369 . S
C4560 C4562 1.419 . S
C4560 H4564 0.930 . S
C4561 C4560 1.369 . S
C4561 C4570 1.429 . S
C4562 C4560 1.419 . S
C4562 C4563 1.363 . S
C4562 H4565 0.929 . S
C4563 C4562 1.363 . S
C4563 C4569 1.428 . S
H4564 C4560 0.930 . S
H4565 C4562 0.929 . S
S4566 N4567 1.613 . S
S4566 N4568 1.610 . S
N4567 S4566 1.613 . S
N4567 C4570 1.350 . S
N4568 S4566 1.610 . S
N4568 C4569 1.351 . S
C4569 C4563 1.428 . S
C4569 N4568 1.351 . S
C4569 C4570 1.434 . S
C4570 C4561 1.429 . S
C4570 N4567 1.350 . S
C4570 C4569 1.434 . S
C4571 C4572 1.369 . S
C4571 C4573 1.419 . S
C4571 H4575 0.930 . S
C4572 C4571 1.369 . S
C4572 C4581 1.429 . S
C4573 C4571 1.419 . S
C4573 C4574 1.363 . S
C4573 H4576 0.929 . S
C4574 C4573 1.363 . S
C4574 C4580 1.428 . S
H4575 C4571 0.930 . S
H4576 C4573 0.929 . S
S4577 N4578 1.613 . S
S4577 N4579 1.610 . S
N4578 S4577 1.613 . S
N4578 C4581 1.350 . S
N4579 S4577 1.610 . S
N4579 C4580 1.351 . S
C4580 C4574 1.428 . S
C4580 N4579 1.351 . S
C4580 C4581 1.434 . S
C4581 C4572 1.429 . S
C4581 N4578 1.350 . S
C4581 C4580 1.434 . S
C4582 C4583 1.369 . S
C4582 C4584 1.419 . S
C4582 H4586 0.930 . S
C4583 C4582 1.369 . S
C4583 C4592 1.429 . S
C4584 C4582 1.419 . S
C4584 C4585 1.363 . S
C4584 H4587 0.929 . S
C4585 C4584 1.363 . S
C4585 C4591 1.428 . S
H4586 C4582 0.930 . S
H4587 C4584 0.929 . S
S4588 N4589 1.613 . S
S4588 N4590 1.610 . S
N4589 S4588 1.613 . S
N4589 C4592 1.350 . S
N4590 S4588 1.610 . S
N4590 C4591 1.351 . S
C4591 C4585 1.428 . S
C4591 N4590 1.351 . S
C4591 C4592 1.434 . S
C4592 C4583 1.429 . S
C4592 N4589 1.350 . S
C4592 C4591 1.434 . S
C4593 C4594 1.369 . S
C4593 C4595 1.419 . S
C4593 H4597 0.930 . S
C4594 C4593 1.369 . S
C4594 C4603 1.429 . S
C4595 C4593 1.419 . S
C4595 C4596 1.363 . S
C4595 H4598 0.929 . S
C4596 C4595 1.363 . S
C4596 C4602 1.428 . S
H4597 C4593 0.930 . S
H4598 C4595 0.929 . S
S4599 N4600 1.613 . S
S4599 N4601 1.610 . S
N4600 S4599 1.613 . S
N4600 C4603 1.350 . S
N4601 S4599 1.610 . S
N4601 C4602 1.351 . S
C4602 C4596 1.428 . S
C4602 N4601 1.351 . S
C4602 C4603 1.434 . S
C4603 C4594 1.429 . S
C4603 N4600 1.350 . S
C4603 C4602 1.434 . S
C4604 C4605 1.369 . S
C4604 C4606 1.419 . S
C4604 H4608 0.930 . S
C4605 C4604 1.369 . S
C4605 C4614 1.429 . S
C4606 C4604 1.419 . S
C4606 C4607 1.363 . S
C4606 H4609 0.929 . S
C4607 C4606 1.363 . S
C4607 C4613 1.428 . S
H4608 C4604 0.930 . S
H4609 C4606 0.929 . S
S4610 N4611 1.613 . S
S4610 N4612 1.610 . S
N4611 S4610 1.613 . S
N4611 C4614 1.350 . S
N4612 S4610 1.610 . S
N4612 C4613 1.351 . S
C4613 C4607 1.428 . S
C4613 N4612 1.351 . S
C4613 C4614 1.434 . S
C4614 C4605 1.429 . S
C4614 N4611 1.350 . S
C4614 C4613 1.434 . S
C4615 C4616 1.369 . S
C4615 C4617 1.419 . S
C4615 H4619 0.930 . S
C4616 C4615 1.369 . S
C4616 C4625 1.429 . S
C4617 C4615 1.419 . S
C4617 C4618 1.363 . S
C4617 H4620 0.929 . S
C4618 C4617 1.363 . S
C4618 C4624 1.428 . S
H4619 C4615 0.930 . S
H4620 C4617 0.929 . S
S4621 N4622 1.613 . S
S4621 N4623 1.610 . S
N4622 S4621 1.613 . S
N4622 C4625 1.350 . S
N4623 S4621 1.610 . S
N4623 C4624 1.351 . S
C4624 C4618 1.428 . S
C4624 N4623 1.351 . S
C4624 C4625 1.434 . S
C4625 C4616 1.429 . S
C4625 N4622 1.350 . S
C4625 C4624 1.434 . S
C4626 C4627 1.369 . S
C4626 C4628 1.419 . S
C4626 H4630 0.930 . S
C4627 C4626 1.369 . S
C4627 C4636 1.429 . S
C4628 C4626 1.419 . S
C4628 C4629 1.363 . S
C4628 H4631 0.929 . S
C4629 C4628 1.363 . S
C4629 C4635 1.428 . S
H4630 C4626 0.930 . S
H4631 C4628 0.929 . S
S4632 N4633 1.613 . S
S4632 N4634 1.610 . S
N4633 S4632 1.613 . S
N4633 C4636 1.350 . S
N4634 S4632 1.610 . S
N4634 C4635 1.351 . S
C4635 C4629 1.428 . S
C4635 N4634 1.351 . S
C4635 C4636 1.434 . S
C4636 C4627 1.429 . S
C4636 N4633 1.350 . S
C4636 C4635 1.434 . S
C4637 C4638 1.369 . S
C4637 C4639 1.419 . S
C4637 H4641 0.930 . S
C4638 C4637 1.369 . S
C4638 C4647 1.429 . S
C4639 C4637 1.419 . S
C4639 C4640 1.363 . S
C4639 H4642 0.929 . S
C4640 C4639 1.363 . S
C4640 C4646 1.428 . S
H4641 C4637 0.930 . S
H4642 C4639 0.929 . S
S4643 N4644 1.613 . S
S4643 N4645 1.610 . S
N4644 S4643 1.613 . S
N4644 C4647 1.350 . S
N4645 S4643 1.610 . S
N4645 C4646 1.351 . S
C4646 C4640 1.428 . S
C4646 N4645 1.351 . S
C4646 C4647 1.434 . S
C4647 C4638 1.429 . S
C4647 N4644 1.350 . S
C4647 C4646 1.434 . S
C4648 C4649 1.369 . S
C4648 C4650 1.419 . S
C4648 H4652 0.930 . S
C4649 C4648 1.369 . S
C4649 C4658 1.429 . S
C4650 C4648 1.419 . S
C4650 C4651 1.363 . S
C4650 H4653 0.929 . S
C4651 C4650 1.363 . S
C4651 C4657 1.428 . S
H4652 C4648 0.930 . S
H4653 C4650 0.929 . S
S4654 N4655 1.613 . S
S4654 N4656 1.610 . S
N4655 S4654 1.613 . S
N4655 C4658 1.350 . S
N4656 S4654 1.610 . S
N4656 C4657 1.351 . S
C4657 C4651 1.428 . S
C4657 N4656 1.351 . S
C4657 C4658 1.434 . S
C4658 C4649 1.429 . S
C4658 N4655 1.350 . S
C4658 C4657 1.434 . S
C4659 C4660 1.369 . S
C4659 C4661 1.419 . S
C4659 H4663 0.930 . S
C4660 C4659 1.369 . S
C4660 C4669 1.429 . S
C4661 C4659 1.419 . S
C4661 C4662 1.363 . S
C4661 H4664 0.929 . S
C4662 C4661 1.363 . S
C4662 C4668 1.428 . S
H4663 C4659 0.930 . S
H4664 C4661 0.929 . S
S4665 N4666 1.613 . S
S4665 N4667 1.610 . S
N4666 S4665 1.613 . S
N4666 C4669 1.350 . S
N4667 S4665 1.610 . S
N4667 C4668 1.351 . S
C4668 C4662 1.428 . S
C4668 N4667 1.351 . S
C4668 C4669 1.434 . S
C4669 C4660 1.429 . S
C4669 N4666 1.350 . S
C4669 C4668 1.434 . S
C4670 C4671 1.369 . S
C4670 C4672 1.419 . S
C4670 H4674 0.930 . S
C4671 C4670 1.369 . S
C4671 C4680 1.429 . S
C4672 C4670 1.419 . S
C4672 C4673 1.363 . S
C4672 H4675 0.929 . S
C4673 C4672 1.363 . S
C4673 C4679 1.428 . S
H4674 C4670 0.930 . S
H4675 C4672 0.929 . S
S4676 N4677 1.613 . S
S4676 N4678 1.610 . S
N4677 S4676 1.613 . S
N4677 C4680 1.350 . S
N4678 S4676 1.610 . S
N4678 C4679 1.351 . S
C4679 C4673 1.428 . S
C4679 N4678 1.351 . S
C4679 C4680 1.434 . S
C4680 C4671 1.429 . S
C4680 N4677 1.350 . S
C4680 C4679 1.434 . S
C4681 C4682 1.369 . S
C4681 C4683 1.419 . S
C4681 H4685 0.930 . S
C4682 C4681 1.369 . S
C4682 C4691 1.429 . S
C4683 C4681 1.419 . S
C4683 C4684 1.363 . S
C4683 H4686 0.929 . S
C4684 C4683 1.363 . S
C4684 C4690 1.428 . S
H4685 C4681 0.930 . S
H4686 C4683 0.929 . S
S4687 N4688 1.613 . S
S4687 N4689 1.610 . S
N4688 S4687 1.613 . S
N4688 C4691 1.350 . S
N4689 S4687 1.610 . S
N4689 C4690 1.351 . S
C4690 C4684 1.428 . S
C4690 N4689 1.351 . S
C4690 C4691 1.434 . S
C4691 C4682 1.429 . S
C4691 N4688 1.350 . S
C4691 C4690 1.434 . S
C4692 C4693 1.369 . S
C4692 C4694 1.419 . S
C4692 H4696 0.930 . S
C4693 C4692 1.369 . S
C4693 C4702 1.429 . S
C4694 C4692 1.419 . S
C4694 C4695 1.363 . S
C4694 H4697 0.929 . S
C4695 C4694 1.363 . S
C4695 C4701 1.428 . S
H4696 C4692 0.930 . S
H4697 C4694 0.929 . S
S4698 N4699 1.613 . S
S4698 N4700 1.610 . S
N4699 S4698 1.613 . S
N4699 C4702 1.350 . S
N4700 S4698 1.610 . S
N4700 C4701 1.351 . S
C4701 C4695 1.428 . S
C4701 N4700 1.351 . S
C4701 C4702 1.434 . S
C4702 C4693 1.429 . S
C4702 N4699 1.350 . S
C4702 C4701 1.434 . S
C4703 C4704 1.369 . S
C4703 C4705 1.419 . S
C4703 H4707 0.930 . S
C4704 C4703 1.369 . S
C4704 C4713 1.429 . S
C4705 C4703 1.419 . S
C4705 C4706 1.363 . S
C4705 H4708 0.929 . S
C4706 C4705 1.363 . S
C4706 C4712 1.428 . S
H4707 C4703 0.930 . S
H4708 C4705 0.929 . S
S4709 N4710 1.613 . S
S4709 N4711 1.610 . S
N4710 S4709 1.613 . S
N4710 C4713 1.350 . S
N4711 S4709 1.610 . S
N4711 C4712 1.351 . S
C4712 C4706 1.428 . S
C4712 N4711 1.351 . S
C4712 C4713 1.434 . S
C4713 C4704 1.429 . S
C4713 N4710 1.350 . S
C4713 C4712 1.434 . S
C4714 C4715 1.369 . S
C4714 C4716 1.419 . S
C4714 H4718 0.930 . S
C4715 C4714 1.369 . S
C4715 C4724 1.429 . S
C4716 C4714 1.419 . S
C4716 C4717 1.363 . S
C4716 H4719 0.929 . S
C4717 C4716 1.363 . S
C4717 C4723 1.428 . S
H4718 C4714 0.930 . S
H4719 C4716 0.929 . S
S4720 N4721 1.613 . S
S4720 N4722 1.610 . S
N4721 S4720 1.613 . S
N4721 C4724 1.350 . S
N4722 S4720 1.610 . S
N4722 C4723 1.351 . S
C4723 C4717 1.428 . S
C4723 N4722 1.351 . S
C4723 C4724 1.434 . S
C4724 C4715 1.429 . S
C4724 N4721 1.350 . S
C4724 C4723 1.434 . S
C4725 C4726 1.369 . S
C4725 C4727 1.419 . S
C4725 H4729 0.930 . S
C4726 C4725 1.369 . S
C4726 C4735 1.429 . S
C4727 C4725 1.419 . S
C4727 C4728 1.363 . S
C4727 H4730 0.929 . S
C4728 C4727 1.363 . S
C4728 C4734 1.428 . S
H4729 C4725 0.930 . S
H4730 C4727 0.929 . S
S4731 N4732 1.613 . S
S4731 N4733 1.610 . S
N4732 S4731 1.613 . S
N4732 C4735 1.350 . S
N4733 S4731 1.610 . S
N4733 C4734 1.351 . S
C4734 C4728 1.428 . S
C4734 N4733 1.351 . S
C4734 C4735 1.434 . S
C4735 C4726 1.429 . S
C4735 N4732 1.350 . S
C4735 C4734 1.434 . S
C4736 C4737 1.369 . S
C4736 C4738 1.419 . S
C4736 H4740 0.930 . S
C4737 C4736 1.369 . S
C4737 C4746 1.429 . S
C4738 C4736 1.419 . S
C4738 C4739 1.363 . S
C4738 H4741 0.929 . S
C4739 C4738 1.363 . S
C4739 C4745 1.428 . S
H4740 C4736 0.930 . S
H4741 C4738 0.929 . S
S4742 N4743 1.613 . S
S4742 N4744 1.610 . S
N4743 S4742 1.613 . S
N4743 C4746 1.350 . S
N4744 S4742 1.610 . S
N4744 C4745 1.351 . S
C4745 C4739 1.428 . S
C4745 N4744 1.351 . S
C4745 C4746 1.434 . S
C4746 C4737 1.429 . S
C4746 N4743 1.350 . S
C4746 C4745 1.434 . S
C4747 C4748 1.369 . S
C4747 C4749 1.419 . S
C4747 H4751 0.930 . S
C4748 C4747 1.369 . S
C4748 C4757 1.429 . S
C4749 C4747 1.419 . S
C4749 C4750 1.363 . S
C4749 H4752 0.929 . S
C4750 C4749 1.363 . S
C4750 C4756 1.428 . S
H4751 C4747 0.930 . S
H4752 C4749 0.929 . S
S4753 N4754 1.613 . S
S4753 N4755 1.610 . S
N4754 S4753 1.613 . S
N4754 C4757 1.350 . S
N4755 S4753 1.610 . S
N4755 C4756 1.351 . S
C4756 C4750 1.428 . S
C4756 N4755 1.351 . S
C4756 C4757 1.434 . S
C4757 C4748 1.429 . S
C4757 N4754 1.350 . S
C4757 C4756 1.434 . S
C4758 C4759 1.369 . S
C4758 C4760 1.419 . S
C4758 H4762 0.930 . S
C4759 C4758 1.369 . S
C4759 C4768 1.429 . S
C4760 C4758 1.419 . S
C4760 C4761 1.363 . S
C4760 H4763 0.929 . S
C4761 C4760 1.363 . S
C4761 C4767 1.428 . S
H4762 C4758 0.930 . S
H4763 C4760 0.929 . S
S4764 N4765 1.613 . S
S4764 N4766 1.610 . S
N4765 S4764 1.613 . S
N4765 C4768 1.350 . S
N4766 S4764 1.610 . S
N4766 C4767 1.351 . S
C4767 C4761 1.428 . S
C4767 N4766 1.351 . S
C4767 C4768 1.434 . S
C4768 C4759 1.429 . S
C4768 N4765 1.350 . S
C4768 C4767 1.434 . S
C4769 C4770 1.369 . S
C4769 C4771 1.419 . S
C4769 H4773 0.930 . S
C4770 C4769 1.369 . S
C4770 C4779 1.429 . S
C4771 C4769 1.419 . S
C4771 C4772 1.363 . S
C4771 H4774 0.929 . S
C4772 C4771 1.363 . S
C4772 C4778 1.428 . S
H4773 C4769 0.930 . S
H4774 C4771 0.929 . S
S4775 N4776 1.613 . S
S4775 N4777 1.610 . S
N4776 S4775 1.613 . S
N4776 C4779 1.350 . S
N4777 S4775 1.610 . S
N4777 C4778 1.351 . S
C4778 C4772 1.428 . S
C4778 N4777 1.351 . S
C4778 C4779 1.434 . S
C4779 C4770 1.429 . S
C4779 N4776 1.350 . S
C4779 C4778 1.434 . S
C4780 C4781 1.369 . S
C4780 C4782 1.419 . S
C4780 H4784 0.930 . S
C4781 C4780 1.369 . S
C4781 C4790 1.429 . S
C4782 C4780 1.419 . S
C4782 C4783 1.363 . S
C4782 H4785 0.929 . S
C4783 C4782 1.363 . S
C4783 C4789 1.428 . S
H4784 C4780 0.930 . S
H4785 C4782 0.929 . S
S4786 N4787 1.613 . S
S4786 N4788 1.610 . S
N4787 S4786 1.613 . S
N4787 C4790 1.350 . S
N4788 S4786 1.610 . S
N4788 C4789 1.351 . S
C4789 C4783 1.428 . S
C4789 N4788 1.351 . S
C4789 C4790 1.434 . S
C4790 C4781 1.429 . S
C4790 N4787 1.350 . S
C4790 C4789 1.434 . S
C4791 C4792 1.369 . S
C4791 C4793 1.419 . S
C4791 H4795 0.930 . S
C4792 C4791 1.369 . S
C4792 C4801 1.429 . S
C4793 C4791 1.419 . S
C4793 C4794 1.363 . S
C4793 H4796 0.929 . S
C4794 C4793 1.363 . S
C4794 C4800 1.428 . S
H4795 C4791 0.930 . S
H4796 C4793 0.929 . S
S4797 N4798 1.613 . S
S4797 N4799 1.610 . S
N4798 S4797 1.613 . S
N4798 C4801 1.350 . S
N4799 S4797 1.610 . S
N4799 C4800 1.351 . S
C4800 C4794 1.428 . S
C4800 N4799 1.351 . S
C4800 C4801 1.434 . S
C4801 C4792 1.429 . S
C4801 N4798 1.350 . S
C4801 C4800 1.434 . S
C4802 C4803 1.369 . S
C4802 C4804 1.419 . S
C4802 H4806 0.930 . S
C4803 C4802 1.369 . S
C4803 C4812 1.429 . S
C4804 C4802 1.419 . S
C4804 C4805 1.363 . S
C4804 H4807 0.929 . S
C4805 C4804 1.363 . S
C4805 C4811 1.428 . S
H4806 C4802 0.930 . S
H4807 C4804 0.929 . S
S4808 N4809 1.613 . S
S4808 N4810 1.610 . S
N4809 S4808 1.613 . S
N4809 C4812 1.350 . S
N4810 S4808 1.610 . S
N4810 C4811 1.351 . S
C4811 C4805 1.428 . S
C4811 N4810 1.351 . S
C4811 C4812 1.434 . S
C4812 C4803 1.429 . S
C4812 N4809 1.350 . S
C4812 C4811 1.434 . S
C4813 C4814 1.369 . S
C4813 C4815 1.419 . S
C4813 H4817 0.930 . S
C4814 C4813 1.369 . S
C4814 C4823 1.429 . S
C4815 C4813 1.419 . S
C4815 C4816 1.363 . S
C4815 H4818 0.929 . S
C4816 C4815 1.363 . S
C4816 C4822 1.428 . S
H4817 C4813 0.930 . S
H4818 C4815 0.929 . S
S4819 N4820 1.613 . S
S4819 N4821 1.610 . S
N4820 S4819 1.613 . S
N4820 C4823 1.350 . S
N4821 S4819 1.610 . S
N4821 C4822 1.351 . S
C4822 C4816 1.428 . S
C4822 N4821 1.351 . S
C4822 C4823 1.434 . S
C4823 C4814 1.429 . S
C4823 N4820 1.350 . S
C4823 C4822 1.434 . S
C4824 C4825 1.369 . S
C4824 C4826 1.419 . S
C4824 H4828 0.930 . S
C4825 C4824 1.369 . S
C4825 C4834 1.429 . S
C4826 C4824 1.419 . S
C4826 C4827 1.363 . S
C4826 H4829 0.929 . S
C4827 C4826 1.363 . S
C4827 C4833 1.428 . S
H4828 C4824 0.930 . S
H4829 C4826 0.929 . S
S4830 N4831 1.613 . S
S4830 N4832 1.610 . S
N4831 S4830 1.613 . S
N4831 C4834 1.350 . S
N4832 S4830 1.610 . S
N4832 C4833 1.351 . S
C4833 C4827 1.428 . S
C4833 N4832 1.351 . S
C4833 C4834 1.434 . S
C4834 C4825 1.429 . S
C4834 N4831 1.350 . S
C4834 C4833 1.434 . S
C4835 C4836 1.369 . S
C4835 C4837 1.419 . S
C4835 H4839 0.930 . S
C4836 C4835 1.369 . S
C4836 C4845 1.429 . S
C4837 C4835 1.419 . S
C4837 C4838 1.363 . S
C4837 H4840 0.929 . S
C4838 C4837 1.363 . S
C4838 C4844 1.428 . S
H4839 C4835 0.930 . S
H4840 C4837 0.929 . S
S4841 N4842 1.613 . S
S4841 N4843 1.610 . S
N4842 S4841 1.613 . S
N4842 C4845 1.350 . S
N4843 S4841 1.610 . S
N4843 C4844 1.351 . S
C4844 C4838 1.428 . S
C4844 N4843 1.351 . S
C4844 C4845 1.434 . S
C4845 C4836 1.429 . S
C4845 N4842 1.350 . S
C4845 C4844 1.434 . S
C4846 C4847 1.369 . S
C4846 C4848 1.419 . S
C4846 H4850 0.930 . S
C4847 C4846 1.369 . S
C4847 C4856 1.429 . S
C4848 C4846 1.419 . S
C4848 C4849 1.363 . S
C4848 H4851 0.929 . S
C4849 C4848 1.363 . S
C4849 C4855 1.428 . S
H4850 C4846 0.930 . S
H4851 C4848 0.929 . S
S4852 N4853 1.613 . S
S4852 N4854 1.610 . S
N4853 S4852 1.613 . S
N4853 C4856 1.350 . S
N4854 S4852 1.610 . S
N4854 C4855 1.351 . S
C4855 C4849 1.428 . S
C4855 N4854 1.351 . S
C4855 C4856 1.434 . S
C4856 C4847 1.429 . S
C4856 N4853 1.350 . S
C4856 C4855 1.434 . S
C4857 C4858 1.369 . S
C4857 C4859 1.419 . S
C4857 H4861 0.930 . S
C4858 C4857 1.369 . S
C4858 C4867 1.429 . S
C4859 C4857 1.419 . S
C4859 C4860 1.363 . S
C4859 H4862 0.929 . S
C4860 C4859 1.363 . S
C4860 C4866 1.428 . S
H4861 C4857 0.930 . S
H4862 C4859 0.929 . S
S4863 N4864 1.613 . S
S4863 N4865 1.610 . S
N4864 S4863 1.613 . S
N4864 C4867 1.350 . S
N4865 S4863 1.610 . S
N4865 C4866 1.351 . S
C4866 C4860 1.428 . S
C4866 N4865 1.351 . S
C4866 C4867 1.434 . S
C4867 C4858 1.429 . S
C4867 N4864 1.350 . S
C4867 C4866 1.434 . S
C4868 C4869 1.369 . S
C4868 C4870 1.419 . S
C4868 H4872 0.930 . S
C4869 C4868 1.369 . S
C4869 C4878 1.429 . S
C4870 C4868 1.419 . S
C4870 C4871 1.363 . S
C4870 H4873 0.929 . S
C4871 C4870 1.363 . S
C4871 C4877 1.428 . S
H4872 C4868 0.930 . S
H4873 C4870 0.929 . S
S4874 N4875 1.613 . S
S4874 N4876 1.610 . S
N4875 S4874 1.613 . S
N4875 C4878 1.350 . S
N4876 S4874 1.610 . S
N4876 C4877 1.351 . S
C4877 C4871 1.428 . S
C4877 N4876 1.351 . S
C4877 C4878 1.434 . S
C4878 C4869 1.429 . S
C4878 N4875 1.350 . S
C4878 C4877 1.434 . S
C4879 C4880 1.369 . S
C4879 C4881 1.419 . S
C4879 H4883 0.930 . S
C4880 C4879 1.369 . S
C4880 C4889 1.429 . S
C4881 C4879 1.419 . S
C4881 C4882 1.363 . S
C4881 H4884 0.929 . S
C4882 C4881 1.363 . S
C4882 C4888 1.428 . S
H4883 C4879 0.930 . S
H4884 C4881 0.929 . S
S4885 N4886 1.613 . S
S4885 N4887 1.610 . S
N4886 S4885 1.613 . S
N4886 C4889 1.350 . S
N4887 S4885 1.610 . S
N4887 C4888 1.351 . S
C4888 C4882 1.428 . S
C4888 N4887 1.351 . S
C4888 C4889 1.434 . S
C4889 C4880 1.429 . S
C4889 N4886 1.350 . S
C4889 C4888 1.434 . S
C4890 C4891 1.369 . S
C4890 C4892 1.419 . S
C4890 H4894 0.930 . S
C4891 C4890 1.369 . S
C4891 C4900 1.429 . S
C4892 C4890 1.419 . S
C4892 C4893 1.363 . S
C4892 H4895 0.929 . S
C4893 C4892 1.363 . S
C4893 C4899 1.428 . S
H4894 C4890 0.930 . S
H4895 C4892 0.929 . S
S4896 N4897 1.613 . S
S4896 N4898 1.610 . S
N4897 S4896 1.613 . S
N4897 C4900 1.350 . S
N4898 S4896 1.610 . S
N4898 C4899 1.351 . S
C4899 C4893 1.428 . S
C4899 N4898 1.351 . S
C4899 C4900 1.434 . S
C4900 C4891 1.429 . S
C4900 N4897 1.350 . S
C4900 C4899 1.434 . S
C4901 C4902 1.369 . S
C4901 C4903 1.419 . S
C4901 H4905 0.930 . S
C4902 C4901 1.369 . S
C4902 C4911 1.429 . S
C4903 C4901 1.419 . S
C4903 C4904 1.363 . S
C4903 H4906 0.929 . S
C4904 C4903 1.363 . S
C4904 C4910 1.428 . S
H4905 C4901 0.930 . S
H4906 C4903 0.929 . S
S4907 N4908 1.613 . S
S4907 N4909 1.610 . S
N4908 S4907 1.613 . S
N4908 C4911 1.350 . S
N4909 S4907 1.610 . S
N4909 C4910 1.351 . S
C4910 C4904 1.428 . S
C4910 N4909 1.351 . S
C4910 C4911 1.434 . S
C4911 C4902 1.429 . S
C4911 N4908 1.350 . S
C4911 C4910 1.434 . S
C4912 C4913 1.369 . S
C4912 C4914 1.419 . S
C4912 H4916 0.930 . S
C4913 C4912 1.369 . S
C4913 C4922 1.429 . S
C4914 C4912 1.419 . S
C4914 C4915 1.363 . S
C4914 H4917 0.929 . S
C4915 C4914 1.363 . S
C4915 C4921 1.428 . S
H4916 C4912 0.930 . S
H4917 C4914 0.929 . S
S4918 N4919 1.613 . S
S4918 N4920 1.610 . S
N4919 S4918 1.613 . S
N4919 C4922 1.350 . S
N4920 S4918 1.610 . S
N4920 C4921 1.351 . S
C4921 C4915 1.428 . S
C4921 N4920 1.351 . S
C4921 C4922 1.434 . S
C4922 C4913 1.429 . S
C4922 N4919 1.350 . S
C4922 C4921 1.434 . S
C4923 C4924 1.369 . S
C4923 C4925 1.419 . S
C4923 H4927 0.930 . S
C4924 C4923 1.369 . S
C4924 C4933 1.429 . S
C4925 C4923 1.419 . S
C4925 C4926 1.363 . S
C4925 H4928 0.929 . S
C4926 C4925 1.363 . S
C4926 C4932 1.428 . S
H4927 C4923 0.930 . S
H4928 C4925 0.929 . S
S4929 N4930 1.613 . S
S4929 N4931 1.610 . S
N4930 S4929 1.613 . S
N4930 C4933 1.350 . S
N4931 S4929 1.610 . S
N4931 C4932 1.351 . S
C4932 C4926 1.428 . S
C4932 N4931 1.351 . S
C4932 C4933 1.434 . S
C4933 C4924 1.429 . S
C4933 N4930 1.350 . S
C4933 C4932 1.434 . S
C4934 C4935 1.369 . S
C4934 C4936 1.419 . S
C4934 H4938 0.930 . S
C4935 C4934 1.369 . S
C4935 C4944 1.429 . S
C4936 C4934 1.419 . S
C4936 C4937 1.363 . S
C4936 H4939 0.929 . S
C4937 C4936 1.363 . S
C4937 C4943 1.428 . S
H4938 C4934 0.930 . S
H4939 C4936 0.929 . S
S4940 N4941 1.613 . S
S4940 N4942 1.610 . S
N4941 S4940 1.613 . S
N4941 C4944 1.350 . S
N4942 S4940 1.610 . S
N4942 C4943 1.351 . S
C4943 C4937 1.428 . S
C4943 N4942 1.351 . S
C4943 C4944 1.434 . S
C4944 C4935 1.429 . S
C4944 N4941 1.350 . S
C4944 C4943 1.434 . S
C4945 C4946 1.369 . S
C4945 C4947 1.419 . S
C4945 H4949 0.930 . S
C4946 C4945 1.369 . S
C4946 C4955 1.429 . S
C4947 C4945 1.419 . S
C4947 C4948 1.363 . S
C4947 H4950 0.929 . S
C4948 C4947 1.363 . S
C4948 C4954 1.428 . S
H4949 C4945 0.930 . S
H4950 C4947 0.929 . S
S4951 N4952 1.613 . S
S4951 N4953 1.610 . S
N4952 S4951 1.613 . S
N4952 C4955 1.350 . S
N4953 S4951 1.610 . S
N4953 C4954 1.351 . S
C4954 C4948 1.428 . S
C4954 N4953 1.351 . S
C4954 C4955 1.434 . S
C4955 C4946 1.429 . S
C4955 N4952 1.350 . S
C4955 C4954 1.434 . S
C4956 C4957 1.369 . S
C4956 C4958 1.419 . S
C4956 H4960 0.930 . S
C4957 C4956 1.369 . S
C4957 C4966 1.429 . S
C4958 C4956 1.419 . S
C4958 C4959 1.363 . S
C4958 H4961 0.929 . S
C4959 C4958 1.363 . S
C4959 C4965 1.428 . S
H4960 C4956 0.930 . S
H4961 C4958 0.929 . S
S4962 N4963 1.613 . S
S4962 N4964 1.610 . S
N4963 S4962 1.613 . S
N4963 C4966 1.350 . S
N4964 S4962 1.610 . S
N4964 C4965 1.351 . S
C4965 C4959 1.428 . S
C4965 N4964 1.351 . S
C4965 C4966 1.434 . S
C4966 C4957 1.429 . S
C4966 N4963 1.350 . S
C4966 C4965 1.434 . S
C4967 C4968 1.369 . S
C4967 C4969 1.419 . S
C4967 H4971 0.930 . S
C4968 C4967 1.369 . S
C4968 C4977 1.429 . S
C4969 C4967 1.419 . S
C4969 C4970 1.363 . S
C4969 H4972 0.929 . S
C4970 C4969 1.363 . S
C4970 C4976 1.428 . S
H4971 C4967 0.930 . S
H4972 C4969 0.929 . S
S4973 N4974 1.613 . S
S4973 N4975 1.610 . S
N4974 S4973 1.613 . S
N4974 C4977 1.350 . S
N4975 S4973 1.610 . S
N4975 C4976 1.351 . S
C4976 C4970 1.428 . S
C4976 N4975 1.351 . S
C4976 C4977 1.434 . S
C4977 C4968 1.429 . S
C4977 N4974 1.350 . S
C4977 C4976 1.434 . S
C4978 C4979 1.369 . S
C4978 C4980 1.419 . S
C4978 H4982 0.930 . S
C4979 C4978 1.369 . S
C4979 C4988 1.429 . S
C4980 C4978 1.419 . S
C4980 C4981 1.363 . S
C4980 H4983 0.929 . S
C4981 C4980 1.363 . S
C4981 C4987 1.428 . S
H4982 C4978 0.930 . S
H4983 C4980 0.929 . S
S4984 N4985 1.613 . S
S4984 N4986 1.610 . S
N4985 S4984 1.613 . S
N4985 C4988 1.350 . S
N4986 S4984 1.610 . S
N4986 C4987 1.351 . S
C4987 C4981 1.428 . S
C4987 N4986 1.351 . S
C4987 C4988 1.434 . S
C4988 C4979 1.429 . S
C4988 N4985 1.350 . S
C4988 C4987 1.434 . S
C4989 C4990 1.369 . S
C4989 C4991 1.419 . S
C4989 H4993 0.930 . S
C4990 C4989 1.369 . S
C4990 C4999 1.429 . S
C4991 C4989 1.419 . S
C4991 C4992 1.363 . S
C4991 H4994 0.929 . S
C4992 C4991 1.363 . S
C4992 C4998 1.428 . S
H4993 C4989 0.930 . S
H4994 C4991 0.929 . S
S4995 N4996 1.613 . S
S4995 N4997 1.610 . S
N4996 S4995 1.613 . S
N4996 C4999 1.350 . S
N4997 S4995 1.610 . S
N4997 C4998 1.351 . S
C4998 C4992 1.428 . S
C4998 N4997 1.351 . S
C4998 C4999 1.434 . S
C4999 C4990 1.429 . S
C4999 N4996 1.350 . S
C4999 C4998 1.434 . S
C5000 C5001 1.369 . S
C5000 C5002 1.419 . S
C5000 H5004 0.930 . S
C5001 C5000 1.369 . S
C5001 C5010 1.429 . S
C5002 C5000 1.419 . S
C5002 C5003 1.363 . S
C5002 H5005 0.929 . S
C5003 C5002 1.363 . S
C5003 C5009 1.428 . S
H5004 C5000 0.930 . S
H5005 C5002 0.929 . S
S5006 N5007 1.613 . S
S5006 N5008 1.610 . S
N5007 S5006 1.613 . S
N5007 C5010 1.350 . S
N5008 S5006 1.610 . S
N5008 C5009 1.351 . S
C5009 C5003 1.428 . S
C5009 N5008 1.351 . S
C5009 C5010 1.434 . S
C5010 C5001 1.429 . S
C5010 N5007 1.350 . S
C5010 C5009 1.434 . S
C5011 C5012 1.369 . S
C5011 C5013 1.419 . S
C5011 H5015 0.930 . S
C5012 C5011 1.369 . S
C5012 C5021 1.429 . S
C5013 C5011 1.419 . S
C5013 C5014 1.363 . S
C5013 H5016 0.929 . S
C5014 C5013 1.363 . S
C5014 C5020 1.428 . S
H5015 C5011 0.930 . S
H5016 C5013 0.929 . S
S5017 N5018 1.613 . S
S5017 N5019 1.610 . S
N5018 S5017 1.613 . S
N5018 C5021 1.350 . S
N5019 S5017 1.610 . S
N5019 C5020 1.351 . S
C5020 C5014 1.428 . S
C5020 N5019 1.351 . S
C5020 C5021 1.434 . S
C5021 C5012 1.429 . S
C5021 N5018 1.350 . S
C5021 C5020 1.434 . S
C5022 C5023 1.369 . S
C5022 C5024 1.419 . S
C5022 H5026 0.930 . S
C5023 C5022 1.369 . S
C5023 C5032 1.429 . S
C5024 C5022 1.419 . S
C5024 C5025 1.363 . S
C5024 H5027 0.929 . S
C5025 C5024 1.363 . S
C5025 C5031 1.428 . S
H5026 C5022 0.930 . S
H5027 C5024 0.929 . S
S5028 N5029 1.613 . S
S5028 N5030 1.610 . S
N5029 S5028 1.613 . S
N5029 C5032 1.350 . S
N5030 S5028 1.610 . S
N5030 C5031 1.351 . S
C5031 C5025 1.428 . S
C5031 N5030 1.351 . S
C5031 C5032 1.434 . S
C5032 C5023 1.429 . S
C5032 N5029 1.350 . S
C5032 C5031 1.434 . S
C5033 C5034 1.369 . S
C5033 C5035 1.419 . S
C5033 H5037 0.930 . S
C5034 C5033 1.369 . S
C5034 C5043 1.429 . S
C5035 C5033 1.419 . S
C5035 C5036 1.363 . S
C5035 H5038 0.929 . S
C5036 C5035 1.363 . S
C5036 C5042 1.428 . S
H5037 C5033 0.930 . S
H5038 C5035 0.929 . S
S5039 N5040 1.613 . S
S5039 N5041 1.610 . S
N5040 S5039 1.613 . S
N5040 C5043 1.350 . S
N5041 S5039 1.610 . S
N5041 C5042 1.351 . S
C5042 C5036 1.428 . S
C5042 N5041 1.351 . S
C5042 C5043 1.434 . S
C5043 C5034 1.429 . S
C5043 N5040 1.350 . S
C5043 C5042 1.434 . S
C5044 C5045 1.369 . S
C5044 C5046 1.419 . S
C5044 H5048 0.930 . S
C5045 C5044 1.369 . S
C5045 C5054 1.429 . S
C5046 C5044 1.419 . S
C5046 C5047 1.363 . S
C5046 H5049 0.929 . S
C5047 C5046 1.363 . S
C5047 C5053 1.428 . S
H5048 C5044 0.930 . S
H5049 C5046 0.929 . S
S5050 N5051 1.613 . S
S5050 N5052 1.610 . S
N5051 S5050 1.613 . S
N5051 C5054 1.350 . S
N5052 S5050 1.610 . S
N5052 C5053 1.351 . S
C5053 C5047 1.428 . S
C5053 N5052 1.351 . S
C5053 C5054 1.434 . S
C5054 C5045 1.429 . S
C5054 N5051 1.350 . S
C5054 C5053 1.434 . S
C5055 C5056 1.369 . S
C5055 C5057 1.419 . S
C5055 H5059 0.930 . S
C5056 C5055 1.369 . S
C5056 C5065 1.429 . S
C5057 C5055 1.419 . S
C5057 C5058 1.363 . S
C5057 H5060 0.929 . S
C5058 C5057 1.363 . S
C5058 C5064 1.428 . S
H5059 C5055 0.930 . S
H5060 C5057 0.929 . S
S5061 N5062 1.613 . S
S5061 N5063 1.610 . S
N5062 S5061 1.613 . S
N5062 C5065 1.350 . S
N5063 S5061 1.610 . S
N5063 C5064 1.351 . S
C5064 C5058 1.428 . S
C5064 N5063 1.351 . S
C5064 C5065 1.434 . S
C5065 C5056 1.429 . S
C5065 N5062 1.350 . S
C5065 C5064 1.434 . S
C5066 C5067 1.369 . S
C5066 C5068 1.419 . S
C5066 H5070 0.930 . S
C5067 C5066 1.369 . S
C5067 C5076 1.429 . S
C5068 C5066 1.419 . S
C5068 C5069 1.363 . S
C5068 H5071 0.929 . S
C5069 C5068 1.363 . S
C5069 C5075 1.428 . S
H5070 C5066 0.930 . S
H5071 C5068 0.929 . S
S5072 N5073 1.613 . S
S5072 N5074 1.610 . S
N5073 S5072 1.613 . S
N5073 C5076 1.350 . S
N5074 S5072 1.610 . S
N5074 C5075 1.351 . S
C5075 C5069 1.428 . S
C5075 N5074 1.351 . S
C5075 C5076 1.434 . S
C5076 C5067 1.429 . S
C5076 N5073 1.350 . S
C5076 C5075 1.434 . S
C5077 C5078 1.369 . S
C5077 C5079 1.419 . S
C5077 H5081 0.930 . S
C5078 C5077 1.369 . S
C5078 C5087 1.429 . S
C5079 C5077 1.419 . S
C5079 C5080 1.363 . S
C5079 H5082 0.929 . S
C5080 C5079 1.363 . S
C5080 C5086 1.428 . S
H5081 C5077 0.930 . S
H5082 C5079 0.929 . S
S5083 N5084 1.613 . S
S5083 N5085 1.610 . S
N5084 S5083 1.613 . S
N5084 C5087 1.350 . S
N5085 S5083 1.610 . S
N5085 C5086 1.351 . S
C5086 C5080 1.428 . S
C5086 N5085 1.351 . S
C5086 C5087 1.434 . S
C5087 C5078 1.429 . S
C5087 N5084 1.350 . S
C5087 C5086 1.434 . S
C1921 C1505 1.430 . S
C1923 C13 1.507 . S
C1932 C485 1.430 . S
C1934 C22 1.507 . S
C1943 C42 1.511 . S
C1945 C1465 1.433 . S
C1954 C62 1.510 . S
C1956 C525 1.430 . S
C1965 C82 1.506 . S
C1967 C1545 1.431 . S
C1976 C605 1.427 . S
C1978 C102 1.509 . S
C1987 C133 1.511 . S
C1989 C1585 1.433 . S
C1998 C142 1.508 . S
C2000 C565 1.429 . S
C2009 C162 1.510 . S
C2011 C1805 1.435 . S
C2020 C865 1.427 . S
C2022 C182 1.508 . S
C2031 C885 1.439 . S
C2033 C213 1.509 . S
C2042 C825 1.432 . S
C2044 C222 1.507 . S
C2053 C242 1.507 . S
C2055 C1885 1.437 . S
C2064 C273 1.509 . S
C2066 C1765 1.429 . S
C2075 C1905 1.439 . S
C2077 C282 1.508 . S
C2086 C302 1.509 . S
C2088 C1865 1.429 . S
C2097 C322 1.508 . S
C2099 C1625 1.429 . S
C2108 C785 1.433 . S
C2110 C342 1.507 . S
C2119 C1685 1.427 . S
C2121 C362 1.508 . S
C2130 C382 1.511 . S
C2132 C745 1.432 . S
C2141 C402 1.507 . S
C2143 C765 1.430 . S
C2152 C422 1.506 . S
C2154 C1665 1.433 . S
C2163 C442 1.506 . S
C2165 C1605 1.434 . S
C2174 C1645 1.437 . S
C2176 C462 1.507 . S
C2185 C482 1.506 . S
C2187 C1025 1.431 . S
C2196 C502 1.506 . S
C2198 C14 1.432 . S
C2207 C522 1.510 . S
C2209 C985 1.431 . S
C2218 C45 1.438 . S
C2220 C542 1.508 . S
C2229 C1065 1.433 . S
C2231 C562 1.507 . S
C2240 C582 1.506 . S
C2242 C134 1.431 . S
C2251 C1105 1.428 . S
C2253 C602 1.508 . S
C2262 C622 1.511 . S
C2264 C85 1.434 . S
C2273 C642 1.511 . S
C2275 C1325 1.433 . S
C2284 C662 1.508 . S
C2286 C385 1.438 . S
C2295 C682 1.506 . S
C2297 C405 1.435 . S
C2306 C345 1.430 . S
C2308 C702 1.510 . S
C2317 C1405 1.439 . S
C2319 C722 1.509 . S
C2328 C742 1.507 . S
C2330 C1285 1.429 . S
C2339 C762 1.507 . S
C2341 C1425 1.437 . S
C2350 C1385 1.430 . S
C2352 C782 1.507 . S
C2361 C802 1.508 . S
C2363 C1145 1.429 . S
C2372 C822 1.510 . S
C2374 C305 1.437 . S
C2383 C1205 1.439 . S
C2385 C842 1.508 . S
C2394 C862 1.510 . S
C2396 C274 1.437 . S
C2405 C882 1.507 . S
C2407 C285 1.429 . S
C2416 C1185 1.434 . S
C2418 C902 1.507 . S
C2427 C1125 1.429 . S
C2429 C922 1.507 . S
C2438 C1174 1.438 . S
C2440 C942 1.508 . S
C2449 C973 1.510 . S
C2451 C545 1.436 . S
C2460 C1445 1.439 . S
C2462 C982 1.509 . S
C2471 C505 1.428 . S
C2473 C1002 1.509 . S
C2482 C1485 1.427 . S
C2484 C1022 1.508 . S
C2493 C1042 1.510 . S
C2495 C585 1.436 . S
C2504 C1062 1.506 . S
C2506 C1565 1.435 . S
C2515 C625 1.427 . S
C2517 C1093 1.508 . S
C2526 C1525 1.439 . S
C2528 C1102 1.509 . S
C2537 C845 1.435 . S
C2539 C1122 1.507 . S
C2548 C1142 1.507 . S
C2550 C1825 1.437 . S
C2559 C1173 1.506 . S
C2561 C1845 1.434 . S
C2570 C1785 1.429 . S
C2572 C1182 1.507 . S
C2581 C925 1.437 . S
C2583 C1202 1.507 . S
C2592 C805 1.439 . S
C2594 C1233 1.509 . S
C2603 C945 1.437 . S
C2605 C1242 1.507 . S
C2614 C905 1.429 . S
C2616 C1262 1.510 . S
C2625 C665 1.434 . S
C2627 C1282 1.510 . S
C2636 C1745 1.436 . S
C2638 C1302 1.510 . S
C2647 C1322 1.508 . S
C2649 C725 1.429 . S
C2658 C1705 1.432 . S
C2660 C1342 1.507 . S
C2669 C1725 1.438 . S
C2671 C1362 1.507 . S
C2680 C1382 1.509 . S
C2682 C705 1.429 . S
C2691 C1402 1.506 . S
C2693 C645 1.436 . S
C2702 C1422 1.508 . S
C2704 C685 1.438 . S
C2713 C1442 1.509 . S
C2715 C65 1.429 . S
C2724 C974 1.439 . S
C2726 C1462 1.509 . S
C2735 C1482 1.507 . S
C2737 C25 1.430 . S
C2746 C1502 1.506 . S
C2748 C1005 1.435 . S
C2757 C1522 1.511 . S
C2759 C105 1.434 . S
C2768 C1094 1.438 . S
C2770 C1542 1.508 . S
C2779 C145 1.432 . S
C2781 C1562 1.510 . S
C2790 C1582 1.508 . S
C2792 C1045 1.429 . S
C2801 C365 1.433 . S
C2803 C1602 1.510 . S
C2812 C1345 1.427 . S
C2814 C1622 1.508 . S
C2823 C1642 1.509 . S
C2825 C1365 1.438 . S
C2834 C1662 1.507 . S
C2836 C1305 1.437 . S
C2845 C1682 1.507 . S
C2847 C445 1.429 . S
C2856 C1702 1.506 . S
C2858 C325 1.431 . S
C2867 C1722 1.506 . S
C2869 C465 1.433 . S
C2878 C425 1.439 . S
C2880 C1742 1.509 . S
C2889 C185 1.436 . S
C2891 C1762 1.507 . S
C2900 C1782 1.508 . S
C2902 C1265 1.429 . S
C2911 C1802 1.508 . S
C2913 C245 1.429 . S
C2922 C1822 1.508 . S
C2924 C1234 1.429 . S
C2933 C1245 1.435 . S
C2935 C1842 1.510 . S
C2944 C225 1.436 . S
C2946 C1862 1.507 . S
C2955 C165 1.431 . S
C2957 C1882 1.507 . S
C2966 C1902 1.508 . S
C2968 C214 1.429 . S
C2977 C17 1.850 . S
C2979 C408 1.846 . S
C2988 C1308 1.848 . S
C2990 C28 1.848 . S
C2999 C48 1.846 . S
C3001 C1328 1.841 . S
C3010 C68 1.848 . S
C3012 C1348 1.848 . S
C3021 C88 1.845 . S
C3023 C1428 1.841 . S
C3032 C108 1.848 . S
C3034 C428 1.842 . S
C3043 C1408 1.843 . S
C3045 C137 1.842 . S
C3054 C328 1.850 . S
C3056 C148 1.846 . S
C3065 C168 1.844 . S
C3067 C308 1.849 . S
C3076 C248 1.841 . S
C3078 C188 1.848 . S
C3087 C217 1.848 . S
C3089 C277 1.842 . S
C3098 C228 1.849 . S
C3100 C288 1.842 . S
C3109 C348 1.845 . S
C3111 C988 1.849 . S
C3120 C368 1.845 . S
C3122 C1008 1.849 . S
C3131 C388 1.845 . S
C3133 C1028 1.841 . S
C3142 C448 1.849 . S
C3144 C1097 1.843 . S
C3153 C1048 1.844 . S
C3155 C468 1.849 . S
C3164 C488 1.849 . S
C3166 C888 1.847 . S
C3175 C508 1.840 . S
C3177 C1788 1.845 . S
C3186 C1808 1.849 . S
C3188 C528 1.842 . S
C3197 C1828 1.850 . S
C3199 C548 1.843 . S
C3208 C568 1.849 . S
C3210 C1908 1.842 . S
C3219 C588 1.847 . S
C3221 C908 1.841 . S
C3230 C1888 1.849 . S
C3232 C608 1.846 . S
C3241 C628 1.841 . S
C3243 C808 1.844 . S
C3252 C788 1.841 . S
C3254 C648 1.844 . S
C3263 C728 1.847 . S
C3265 C668 1.841 . S
C3274 C748 1.840 . S
C3276 C688 1.845 . S
C3285 C708 1.841 . S
C3287 C768 1.844 . S
C3296 C828 1.840 . S
C3298 C1468 1.845 . S
C3307 C1488 1.848 . S
C3309 C848 1.848 . S
C3318 C1508 1.841 . S
C3320 C868 1.848 . S
C3329 C928 1.848 . S
C3331 C1568 1.848 . S
C3340 C1528 1.848 . S
C3342 C948 1.841 . S
C3351 C1368 1.847 . S
C3353 C977 1.842 . S
C3362 C1388 1.846 . S
C3364 C1068 1.849 . S
C3373 C1288 1.842 . S
C3375 C1108 1.842 . S
C3384 C1128 1.850 . S
C3386 C1268 1.845 . S
C3395 C1148 1.841 . S
C3397 C1208 1.843 . S
C3406 C1237 1.843 . S
C3408 C1177 1.842 . S
C3417 C1248 1.841 . S
C3419 C1188 1.843 . S
C3428 C1448 1.844 . S
C3430 C1848 1.842 . S
C3439 C1868 1.844 . S
C3441 C1548 1.849 . S
C3450 C1588 1.848 . S
C3452 C1768 1.848 . S
C3461 C1608 1.847 . S
C3463 C1748 1.841 . S
C3472 C1688 1.846 . S
C3474 C1628 1.841 . S
C3483 C1708 1.846 . S
C3485 C1648 1.841 . S
C3494 C1668 1.850 . S
C3496 C1728 1.843 . S
C3505 C5 1.557 . S
C3507 C873 1.555 . S
C3516 C893 1.555 . S
C3518 C34 1.557 . S
C3527 C833 1.555 . S
C3529 C54 1.555 . S
C3538 C1813 1.558 . S
C3540 C74 1.553 . S
C3549 C94 1.549 . S
C3551 C1873 1.561 . S
C3560 C1893 1.562 . S
C3562 C114 1.550 . S
C3571 C125 1.549 . S
C3573 C1773 1.561 . S
C3582 C1913 1.554 . S
C3584 C154 1.557 . S
C3593 C533 1.559 . S
C3595 C174 1.555 . S
C3604 C1513 1.558 . S
C3606 C194 1.552 . S
C3615 C205 1.552 . S
C3617 C493 1.561 . S
C3626 C1473 1.562 . S
C3628 C234 1.551 . S
C3637 C254 1.552 . S
C3639 C613 1.558 . S
C3648 C265 1.553 . S
C3650 C1593 1.557 . S
C3659 C294 1.559 . S
C3661 C573 1.555 . S
C3670 C314 1.553 . S
C3672 C1553 1.560 . S
C3681 C334 1.550 . S
C3683 C1693 1.560 . S
C3692 C653 1.554 . S
C3694 C354 1.558 . S
C3703 C1633 1.561 . S
C3705 C374 1.553 . S
C3714 C394 1.555 . S
C3716 C693 1.559 . S
C3725 C414 1.549 . S
C3727 C713 1.562 . S
C3736 C434 1.551 . S
C3738 C1733 1.561 . S
C3747 C454 1.549 . S
C3749 C1753 1.561 . S
C3758 C474 1.553 . S
C3760 C1713 1.560 . S
C3769 C393 1.557 . S
C3771 C494 1.554 . S
C3780 C514 1.551 . S
C3782 C413 1.561 . S
C3791 C353 1.563 . S
C3793 C534 1.551 . S
C3802 C554 1.557 . S
C3804 C1333 1.557 . S
C3813 C574 1.553 . S
C3815 C1393 1.560 . S
C3824 C1413 1.557 . S
C3826 C594 1.556 . S
C3835 C1293 1.554 . S
C3837 C614 1.556 . S
C3846 C634 1.555 . S
C3848 C1433 1.556 . S
C3857 C53 1.559 . S
C3859 C654 1.554 . S
C3868 C674 1.557 . S
C3870 C1033 1.557 . S
C3879 C694 1.556 . S
C3881 C2 1.555 . S
C3890 C993 1.553 . S
C3892 C714 1.558 . S
C3901 C122 1.560 . S
C3903 C734 1.553 . S
C3912 C754 1.554 . S
C3914 C1113 1.559 . S
C3923 C774 1.556 . S
C3925 C93 1.556 . S
C3934 C1073 1.554 . S
C3936 C794 1.558 . S
C3945 C814 1.551 . S
C3947 C1213 1.559 . S
C3956 C834 1.559 . S
C3958 C173 1.555 . S
C3967 C1153 1.563 . S
C3969 C854 1.550 . S
C3978 C874 1.551 . S
C3980 C202 1.561 . S
C3989 C233 1.557 . S
C3991 C894 1.556 . S
C4000 C914 1.559 . S
C4002 C1253 1.555 . S
C4011 C1273 1.562 . S
C4013 C934 1.551 . S
C4022 C1222 1.553 . S
C4024 C954 1.557 . S
C4033 C1833 1.556 . S
C4035 C965 1.554 . S
C4044 C1853 1.554 . S
C4046 C994 1.557 . S
C4055 C1014 1.558 . S
C4057 C1793 1.555 . S
C4066 C1034 1.558 . S
C4068 C853 1.556 . S
C4077 C1054 1.550 . S
C4079 C913 1.562 . S
C4088 C1074 1.557 . S
C4090 C933 1.557 . S
C4099 C813 1.558 . S
C4101 C1085 1.553 . S
C4110 C953 1.560 . S
C4112 C1114 1.551 . S
C4121 C1134 1.558 . S
C4123 C1493 1.554 . S
C4132 C1154 1.549 . S
C4134 C553 1.561 . S
C4143 C1165 1.555 . S
C4145 C1453 1.556 . S
C4154 C1194 1.553 . S
C4156 C513 1.557 . S
C4165 C1214 1.549 . S
C4167 C1573 1.561 . S
C4176 C1225 1.550 . S
C4178 C633 1.562 . S
C4187 C1254 1.555 . S
C4189 C1533 1.556 . S
C4198 C1274 1.552 . S
C4200 C593 1.561 . S
C4209 C733 1.558 . S
C4211 C1294 1.556 . S
C4220 C1613 1.553 . S
C4222 C1314 1.558 . S
C4231 C673 1.561 . S
C4233 C1334 1.553 . S
C4242 C1653 1.554 . S
C4244 C1354 1.557 . S
C4253 C1374 1.549 . S
C4255 C1673 1.561 . S
C4264 C1394 1.552 . S
C4266 C773 1.561 . S
C4275 C1414 1.550 . S
C4277 C793 1.562 . S
C4286 C1434 1.554 . S
C4288 C753 1.560 . S
C4297 C1353 1.556 . S
C4299 C1454 1.555 . S
C4308 C1373 1.562 . S
C4310 C1474 1.550 . S
C4319 C1494 1.556 . S
C4321 C1313 1.558 . S
C4330 C1514 1.552 . S
C4332 C373 1.561 . S
C4341 C433 1.562 . S
C4343 C1534 1.550 . S
C4352 C1554 1.553 . S
C4354 C453 1.558 . S
C4363 C333 1.554 . S
C4365 C1574 1.558 . S
C4374 C473 1.554 . S
C4376 C1594 1.558 . S
C4385 C1614 1.552 . S
C4387 C1013 1.558 . S
C4396 C1634 1.549 . S
C4398 C73 1.562 . S
C4407 C1654 1.556 . S
C4409 C962 1.556 . S
C4418 C1674 1.551 . S
C4420 C33 1.560 . S
C4429 C1082 1.557 . S
C4431 C1694 1.554 . S
C4440 C153 1.557 . S
C4442 C1714 1.555 . S
C4451 C1053 1.562 . S
C4453 C1734 1.552 . S
C4462 C1754 1.551 . S
C4464 C113 1.561 . S
C4473 C253 1.555 . S
C4475 C1774 1.555 . S
C4484 C1794 1.551 . S
C4486 C1133 1.561 . S
C4495 C1814 1.558 . S
C4497 C193 1.556 . S
C4506 C1162 1.561 . S
C4508 C1834 1.551 . S
C4517 C1854 1.553 . S
C4519 C1193 1.559 . S
C4528 C1874 1.557 . S
C4530 C293 1.557 . S
C4539 C313 1.561 . S
C4541 C1894 1.551 . S
C4550 C1914 1.549 . S
C4552 C262 1.562 . S
C4561 C8 1.881 . S
C4563 C197 1.883 . S
C4572 C208 1.881 . S
C4574 C37 1.881 . S
C4583 C57 1.885 . S
C4585 C237 1.885 . S
C4594 C177 1.884 . S
C4596 C77 1.885 . S
C4605 C317 1.885 . S
C4607 C97 1.883 . S
C4616 C257 1.881 . S
C4618 C117 1.881 . S
C4627 C128 1.884 . S
C4629 C268 1.883 . S
C4638 C157 1.885 . S
C4640 C297 1.884 . S
C4649 C337 1.884 . S
C4651 C377 1.885 . S
C4660 C1417 1.885 . S
C4662 C357 1.884 . S
C4671 C397 1.885 . S
C4673 C1437 1.884 . S
C4682 C1397 1.886 . S
C4684 C417 1.884 . S
C4693 C1377 1.886 . S
C4695 C437 1.885 . S
C4704 C457 1.882 . S
C4706 C1317 1.884 . S
C4715 C477 1.885 . S
C4717 C1357 1.885 . S
C4726 C677 1.886 . S
C4728 C497 1.885 . S
C4737 C517 1.884 . S
C4739 C697 1.884 . S
C4748 C537 1.882 . S
C4750 C717 1.883 . S
C4759 C657 1.881 . S
C4761 C557 1.881 . S
C4770 C797 1.881 . S
C4772 C577 1.883 . S
C4781 C737 1.885 . S
C4783 C597 1.883 . S
C4792 C757 1.881 . S
C4794 C617 1.881 . S
C4803 C777 1.882 . S
C4805 C637 1.883 . S
C4814 C857 1.882 . S
C4816 C817 1.883 . S
C4825 C837 1.881 . S
C4827 C1897 1.882 . S
C4836 C877 1.886 . S
C4838 C1917 1.885 . S
C4847 C897 1.883 . S
C4849 C1877 1.884 . S
C4858 C1857 1.884 . S
C4860 C917 1.883 . S
C4869 C1797 1.886 . S
C4871 C937 1.885 . S
C4880 C1837 1.880 . S
C4882 C957 1.881 . S
C4891 C968 1.883 . S
C4893 C1157 1.884 . S
C4902 C997 1.886 . S
C4904 C1168 1.885 . S
C4913 C1017 1.883 . S
C4915 C1197 1.884 . S
C4924 C1037 1.886 . S
C4926 C1137 1.885 . S
C4935 C1277 1.882 . S
C4937 C1057 1.883 . S
C4946 C1077 1.884 . S
C4948 C1217 1.885 . S
C4957 C1228 1.886 . S
C4959 C1088 1.885 . S
C4968 C1257 1.885 . S
C4970 C1117 1.885 . S
C4979 C1337 1.881 . S
C4981 C1297 1.881 . S
C4990 C1457 1.881 . S
C4992 C1637 1.881 . S
C5001 C1657 1.886 . S
C5003 C1477 1.885 . S
C5012 C1497 1.883 . S
C5014 C1677 1.882 . S
C5023 C1617 1.884 . S
C5025 C1517 1.883 . S
C5034 C1537 1.886 . S
C5036 C1757 1.885 . S
C5045 C1697 1.881 . S
C5047 C1557 1.881 . S
C5056 C1577 1.885 . S
C5058 C1717 1.883 . S
C5067 C1597 1.885 . S
C5069 C1737 1.885 . S
C5078 C1777 1.886 . S
C5080 C1817 1.885 . S
