# Generated by pormake.
# Topology mok, (4)-cn, num edge types: 1
# Building blocks:
#     Node 0, Type 0, BuildingBlock: TATPOV_clean_sbu_0, # of connection points: 4
#     Node 1, Type 0, BuildingBlock: TATPOV_clean_sbu_0, # of connection points: 4
#     Node 2, Type 0, BuildingBlock: TATPOV_clean_sbu_0, # of connection points: 4
#     Node 3, Type 0, BuildingBlock: TATPOV_clean_sbu_0, # of connection points: 4
#     Node 4, Type 0, BuildingBlock: TATPOV_clean_sbu_0, # of connection points: 4
#     Node 5, Type 0, BuildingBlock: TATPOV_clean_sbu_0, # of connection points: 4
#     Node 6, Type 0, BuildingBlock: TATPOV_clean_sbu_0, # of connection points: 4
#     Node 7, Type 0, BuildingBlock: TATPOV_clean_sbu_0, # of connection points: 4
#     Edge 8, Type (0, 0), BuildingBlock: UVAHIK_clean_linker_0, # of connection points: 2
#     Edge 9, Type (0, 0), BuildingBlock: UVAHIK_clean_linker_0, # of connection points: 2
#     Edge 10, Type (0, 0), BuildingBlock: UVAHIK_clean_linker_0, # of connection points: 2
#     Edge 11, Type (0, 0), BuildingBlock: UVAHIK_clean_linker_0, # of connection points: 2
#     Edge 12, Type (0, 0), BuildingBlock: UVAHIK_clean_linker_0, # of connection points: 2
#     Edge 13, Type (0, 0), BuildingBlock: UVAHIK_clean_linker_0, # of connection points: 2
#     Edge 14, Type (0, 0), BuildingBlock: UVAHIK_clean_linker_0, # of connection points: 2
#     Edge 15, Type (0, 0), BuildingBlock: UVAHIK_clean_linker_0, # of connection points: 2
#     Edge 16, Type (0, 0), BuildingBlock: UVAHIK_clean_linker_0, # of connection points: 2
#     Edge 17, Type (0, 0), BuildingBlock: UVAHIK_clean_linker_0, # of connection points: 2
#     Edge 18, Type (0, 0), BuildingBlock: UVAHIK_clean_linker_0, # of connection points: 2
#     Edge 19, Type (0, 0), BuildingBlock: UVAHIK_clean_linker_0, # of connection points: 2
#     Edge 20, Type (0, 0), BuildingBlock: UVAHIK_clean_linker_0, # of connection points: 2
#     Edge 21, Type (0, 0), BuildingBlock: UVAHIK_clean_linker_0, # of connection points: 2
#     Edge 22, Type (0, 0), BuildingBlock: UVAHIK_clean_linker_0, # of connection points: 2
#     Edge 23, Type (0, 0), BuildingBlock: UVAHIK_clean_linker_0, # of connection points: 2
# Relax obj value: 0.025
# Max RMSD: 0.042
# Mean RMSD: 0.042
data_MOF--net-mok--node1-TATPOV_clean_sbu_0--edge1-UVAHIK_clean_linker_0
_symmetry_space_group_name_H-M    P1
_symmetry_Int_Tables_number       1
_symmetry_cell_setting            triclinic
loop_
_symmetry_equiv_pos_as_xyz
'x, y, z'
_cell_length_a     59.724555
_cell_length_b     25.864008
_cell_length_c     33.983201
_cell_angle_alpha  90.089594
_cell_angle_beta   89.890369
_cell_angle_gamma 89.994535
loop_
_atom_site_label
_atom_site_type_symbol
_atom_site_fract_x
_atom_site_fract_y
_atom_site_fract_z
_atom_type_partial_charge
Zn0 Zn 0.59755 0.43603 0.00261 0.0
Zn1 Zn 0.58229 0.33797 0.00608 0.0
O2 O 0.56933 0.37265 0.05639 0.0
O3 O 0.58126 0.45318 0.05229 0.0
O4 O 0.56947 0.26527 0.00729 0.0
O5 O 0.58064 0.44745 0.95265 0.0
O6 O 0.56922 0.36633 0.95404 0.0
C7 C 0.57004 0.41871 0.06982 0.0
C8 C 0.63311 0.35988 0.00424 0.0
O9 O 0.61676 0.3281 0.00569 0.0
O10 O 0.62933 0.40807 0.0028 0.0
C11 C 0.56513 0.24107 0.03897 0.0
O12 O 0.56989 0.2629 0.07287 0.0
C13 C 0.56959 0.41067 0.93774 0.0
Zn14 Zn 0.40819 0.56715 0.00445 0.0
Zn15 Zn 0.42496 0.66339 0.00386 0.0
O16 O 0.43658 0.63199 0.05598 0.0
O17 O 0.42177 0.55402 0.05708 0.0
O18 O 0.43862 0.73527 0.00352 0.0
O19 O 0.42725 0.549 0.95789 0.0
O20 O 0.43957 0.6293 0.95508 0.0
C21 C 0.43402 0.58826 0.07268 0.0
C22 C 0.37377 0.64472 -0.00108 0.0
O23 O 0.39051 0.67543 0.00076 0.0
O24 O 0.37695 0.59629 -0.00074 0.0
C25 C 0.44114 0.76151 0.03491 0.0
O26 O 0.4338 0.74247 0.06835 0.0
C27 C 0.43942 0.5831 0.94196 0.0
Zn28 Zn 0.62028 0.58522 0.50741 0.0
Zn29 Zn 0.60256 0.68057 0.50551 0.0
O30 O 0.59008 0.64509 0.45532 0.0
O31 O 0.60591 0.56821 0.456 0.0
O32 O 0.58736 0.75084 0.50562 0.0
O33 O 0.6026 0.56854 0.55601 0.0
O34 O 0.5899 0.64865 0.55655 0.0
C35 C 0.5929 0.60049 0.43998 0.0
C36 C 0.65392 0.66539 0.50816 0.0
O37 O 0.63693 0.6953 0.50596 0.0
O38 O 0.65113 0.61688 0.50979 0.0
C39 C 0.5833 0.77697 0.47474 0.0
O40 O 0.59027 0.75948 0.44053 0.0
C41 C 0.5908 0.60363 0.57159 0.0
Zn42 Zn 0.4068 0.42389 0.5175 0.0
Zn43 Zn 0.42667 0.33224 0.5114 0.0
O44 O 0.4369 0.37001 0.46085 0.0
O45 O 0.42069 0.44623 0.46676 0.0
O46 O 0.44374 0.26444 0.50846 0.0
O47 O 0.42373 0.44103 0.56598 0.0
O48 O 0.44027 0.36517 0.56186 0.0
C49 C 0.43346 0.41571 0.44819 0.0
C50 C 0.37504 0.34074 0.51801 0.0
O51 O 0.3926 0.31298 0.51375 0.0
O52 O 0.37673 0.38941 0.52063 0.0
C53 C 0.43728 0.22292 0.49187 0.0
O54 O 0.41748 0.22149 0.47513 0.0
C55 C 0.43777 0.40874 0.57898 0.0
Zn56 Zn 0.11157 0.91166 0.98699 0.0
Zn57 Zn 0.09422 0.81655 -0.00264 0.0
O58 O 0.08371 0.85652 0.0471 0.0
O59 O 0.09701 0.93493 0.03702 0.0
O60 O 0.07947 0.74586 0.0018 0.0
O61 O 0.0942 0.92151 0.93734 0.0
O62 O 0.08001 0.84351 0.94569 0.0
C63 C 0.08582 0.9036 0.05777 0.0
C64 C 0.14545 0.83198 0.99104 0.0
O65 O 0.12854 0.80216 -0.00484 0.0
O66 O 0.14254 0.88021 0.98697 0.0
C67 C 0.0729 0.72537 0.03383 0.0
O68 O 0.07665 0.74952 0.06721 0.0
C69 C 0.08137 0.8855 0.92627 0.0
Zn70 Zn 0.89233 0.08476 0.99317 0.0
Zn71 Zn 0.91217 0.17677 -0.00404 0.0
O72 O 0.92279 0.14082 0.04699 0.0
O73 O 0.90611 0.06499 0.04457 0.0
O74 O 0.92833 0.24599 -0.0029 0.0
O75 O 0.90916 0.06609 0.94435 0.0
O76 O 0.92579 0.14198 0.94632 0.0
C77 C 0.91913 0.09628 0.06173 0.0
C78 C 0.86036 0.16719 0.99221 0.0
O79 O 0.878 0.19512 -0.00587 0.0
O80 O 0.86211 0.11844 0.99104 0.0
C81 C 0.93214 0.27051 0.0289 0.0
O82 O 0.92453 0.2517 0.06223 0.0
C83 C 0.92321 0.09773 0.93031 0.0
Zn84 Zn 0.11334 0.073 0.51208 0.0
Zn85 Zn 0.09565 0.16777 0.50721 0.0
O86 O 0.08595 0.13349 0.45488 0.0
O87 O 0.10214 0.05706 0.4579 0.0
O88 O 0.08056 0.238 0.50607 0.0
O89 O 0.09298 0.05489 0.55681 0.0
O90 O 0.08072 0.13531 0.55649 0.0
C91 C 0.09 0.08927 0.43978 0.0
C92 C 0.14664 0.15333 0.51741 0.0
O93 O 0.12983 0.18271 0.51109 0.0
O94 O 0.14387 0.10497 0.52079 0.0
C95 C 0.07989 0.26773 0.47631 0.0
O96 O 0.09032 0.25393 0.44388 0.0
C97 C 0.0806 0.08991 0.57102 0.0
Zn98 Zn 0.91638 0.93293 0.50846 0.0
Zn99 Zn 0.93329 0.83735 0.50524 0.0
O100 O 0.94374 0.87036 0.45267 0.0
O101 O 0.93044 0.94974 0.45684 0.0
O102 O 0.94844 0.76721 0.50438 0.0
O103 O 0.9345 0.94994 0.55601 0.0
O104 O 0.94757 0.87023 0.55507 0.0
C105 C 0.94161 0.91578 0.43858 0.0
C106 C 0.88222 0.85349 0.51097 0.0
O107 O 0.89901 0.82302 0.50852 0.0
O108 O 0.88531 0.90196 0.51185 0.0
C109 C 0.94284 0.72895 0.48301 0.0
O110 O 0.92537 0.73314 0.45978 0.0
C111 C 0.94693 0.91525 0.57038 0.0
C112 C 0.81868 0.15799 0.99033 0.0
C113 C 0.83757 0.19044 0.9924 0.0
C114 C 0.79708 0.17834 0.99205 0.0
C115 C 0.76398 0.29702 0.9778 0.0
H116 H 0.72006 0.22367 0.04079 0.0
C117 C 0.67452 0.37659 0.00412 0.0
C118 C 0.65665 0.3411 0.00386 0.0
C119 C 0.69673 0.35949 0.00333 0.0
C120 C 0.73201 0.24432 0.02267 0.0
H121 H 0.84835 0.27023 -0.00277 0.0
H122 H 0.81034 0.30602 0.00024 0.0
H123 H 0.75856 0.19286 0.03839 0.0
H124 H 0.64828 0.25955 0.00247 0.0
H125 H 0.68704 0.22967 0.00059 0.0
H126 H 0.73733 0.34823 0.96178 0.0
C127 C 0.81243 0.26462 -0.00284 0.0
C128 C 0.75413 0.22671 0.02137 0.0
C129 C 0.83421 0.24413 -0.00444 0.0
C130 C 0.6616 0.28798 0.00286 0.0
C131 C 0.68386 0.27084 0.00199 0.0
C132 C 0.74179 0.3146 0.97902 0.0
C133 C 0.79361 0.23181 -0.00413 0.0
C134 C 0.77037 0.25253 -0.00134 0.0
C135 C 0.70173 0.3064 0.00219 0.0
C136 C 0.72547 0.28826 0.00127 0.0
H137 H 0.82051 0.11647 0.98762 0.0
H138 H 0.78301 0.15201 0.99016 0.0
H139 H 0.77598 0.31749 0.95968 0.0
H140 H 0.6714 0.41783 0.00504 0.0
H141 H 0.71001 0.38799 0.00413 0.0
C142 C 0.17303 0.758 -0.0057 0.0
C143 C 0.1687 0.81131 0.99141 0.0
C144 C 0.19512 0.73951 -0.00514 0.0
C145 C 0.25337 0.78134 0.01538 0.0
H146 H 0.2699 0.66021 0.95468 0.0
C147 C 0.34595 0.71812 -0.00426 0.0
C148 C 0.35045 0.66478 -0.00294 0.0
C149 C 0.32381 0.7362 -0.00544 0.0
C150 C 0.26555 0.69378 0.97218 0.0
H151 H 0.18438 0.88686 0.98668 0.0
H152 H 0.22255 0.85471 0.9875 0.0
H153 H 0.23115 0.68997 0.95454 0.0
H154 H 0.33504 0.58874 -0.00176 0.0
H155 H 0.29677 0.62014 -0.00322 0.0
H156 H 0.28769 0.78506 0.03324 0.0
C157 C 0.20896 0.82714 0.98978 0.0
C158 C 0.24329 0.7108 0.9721 0.0
C159 C 0.18698 0.84554 0.98905 0.0
C160 C 0.33229 0.6301 -0.00295 0.0
C161 C 0.31024 0.64812 -0.00405 0.0
C162 C 0.27561 0.76424 0.01557 0.0
C163 C 0.21336 0.77395 0.99279 0.0
C164 C 0.23693 0.75488 0.99362 0.0
C165 C 0.30566 0.70139 -0.00531 0.0
C166 C 0.28202 0.72023 -0.00605 0.0
H167 H 0.15938 0.73056 -0.00379 0.0
H168 H 0.19793 0.6983 -0.00249 0.0
H169 H 0.249 0.81501 0.03275 0.0
H170 H 0.35951 0.74592 -0.00438 0.0
H171 H 0.32094 0.7775 0.99313 0.0
C172 C 0.84072 0.86791 0.51349 0.0
C173 C 0.85889 0.83326 0.51198 0.0
C174 C 0.81867 0.84989 0.51348 0.0
C175 C 0.78399 0.7348 0.53404 0.0
H176 H 0.73981 0.80653 0.47083 0.0
C177 C 0.69547 0.65205 0.50933 0.0
C178 C 0.67714 0.68627 0.50881 0.0
C179 C 0.71742 0.6706 0.51012 0.0
C180 C 0.75183 0.78645 0.48908 0.0
H181 H 0.86793 0.75213 0.50959 0.0
H182 H 0.82928 0.72053 0.50952 0.0
H183 H 0.77852 0.83649 0.47113 0.0
H184 H 0.66771 0.7672 0.50868 0.0
H185 H 0.70618 0.79978 0.51053 0.0
H186 H 0.75733 0.68488 0.55213 0.0
C187 C 0.83222 0.76181 0.51096 0.0
C188 C 0.77408 0.80356 0.48918 0.0
C189 C 0.85437 0.77991 0.51084 0.0
C190 C 0.6814 0.73974 0.509 0.0
C191 C 0.70348 0.75839 0.50986 0.0
C192 C 0.76174 0.71777 0.53402 0.0
C193 C 0.81409 0.79666 0.51204 0.0
C194 C 0.79046 0.77793 0.51163 0.0
C195 C 0.72178 0.72398 0.51054 0.0
C196 C 0.74536 0.74323 0.51143 0.0
H197 H 0.84348 0.90928 0.51454 0.0
H198 H 0.80518 0.87781 0.51499 0.0
H199 H 0.79605 0.71465 0.55216 0.0
H200 H 0.69293 0.61059 0.50897 0.0
H201 H 0.73102 0.6429 0.50986 0.0
C202 C 0.17535 0.22122 0.50093 0.0
C203 C 0.16969 0.17457 0.51954 0.0
C204 C 0.19761 0.23852 0.50039 0.0
C205 C 0.25634 0.19188 0.51744 0.0
H206 H 0.26942 0.33847 0.51748 0.0
C207 C 0.33522 0.34399 0.53997 0.0
C208 C 0.35238 0.31744 0.52008 0.0
C209 C 0.31334 0.3251 0.54013 0.0
C210 C 0.26619 0.29729 0.51802 0.0
H211 H 0.18279 0.11055 0.55356 0.0
H212 H 0.22114 0.14171 0.5544 0.0
H213 H 0.23084 0.30979 0.51926 0.0
H214 H 0.36009 0.24964 0.48519 0.0
H215 H 0.32157 0.21729 0.48407 0.0
H216 H 0.29176 0.17949 0.5183 0.0
C217 C 0.20874 0.16414 0.53871 0.0
C218 C 0.24389 0.28076 0.51831 0.0
C219 C 0.18663 0.14644 0.5386 0.0
C220 C 0.34723 0.27079 0.50093 0.0
C221 C 0.32512 0.25225 0.50044 0.0
C222 C 0.27868 0.20844 0.51779 0.0
C223 C 0.21469 0.21003 0.51909 0.0
C224 C 0.23858 0.22778 0.51816 0.0
C225 C 0.30778 0.27955 0.51968 0.0
C226 C 0.28396 0.26144 0.5183 0.0
H227 H 0.16271 0.24353 0.48568 0.0
H228 H 0.20143 0.27364 0.48447 0.0
H229 H 0.25308 0.15074 0.51647 0.0
H230 H 0.3387 0.3797 0.55551 0.0
H231 H 0.30078 0.34648 0.55641 0.0
C232 C 0.55939 0.40101 0.13965 0.0
C233 C 0.5584 0.43297 0.10645 0.0
C234 C 0.55277 0.42011 0.17645 0.0
C235 C 0.55116 0.54662 0.22516 0.0
H236 H 0.53552 0.46386 0.31605 0.0
C237 C 0.56807 0.62042 0.38208 0.0
C238 C 0.58049 0.58471 0.40426 0.0
C239 C 0.55711 0.6046 0.34767 0.0
C240 C 0.53977 0.48759 0.29088 0.0
H241 H 0.54731 0.50709 0.08423 0.0
H242 H 0.53472 0.53949 0.14788 0.0
H243 H 0.52995 0.42868 0.25006 0.0
H244 H 0.59023 0.50399 0.40873 0.0
H245 H 0.57156 0.47696 0.34904 0.0
H246 H 0.56208 0.60436 0.26579 0.0
C247 C 0.54151 0.50072 0.14617 0.0
C248 C 0.53664 0.46739 0.25311 0.0
C249 C 0.54861 0.48212 0.1097 0.0
C250 C 0.58101 0.53271 0.39218 0.0
C251 C 0.56999 0.51695 0.35817 0.0
C252 C 0.5543 0.56673 0.26284 0.0
C253 C 0.54471 0.47113 0.18035 0.0
C254 C 0.54317 0.49587 0.21982 0.0
C255 C 0.55821 0.55276 0.33514 0.0
C256 C 0.5496 0.53656 0.2961 0.0
H257 H 0.56688 0.36294 0.13775 0.0
H258 H 0.55559 0.3962 0.20209 0.0
H259 H 0.55668 0.56963 0.20039 0.0
H260 H 0.56719 0.66066 0.39081 0.0
H261 H 0.54809 0.63304 0.33053 0.0
C262 C 0.44722 0.52452 0.12225 0.0
C263 C 0.44547 0.57624 0.11004 0.0
C264 C 0.45619 0.51237 0.15885 0.0
C265 C 0.45773 0.5675 0.25585 0.0
H266 H 0.48749 0.43844 0.28101 0.0
C267 C 0.45103 0.48735 0.41078 0.0
C268 C 0.44498 0.43498 0.41279 0.0
C269 C 0.45991 0.50792 0.37626 0.0
C270 C 0.4792 0.47466 0.2745 0.0
H271 H 0.45316 0.65563 0.12544 0.0
H272 H 0.46853 0.63433 0.19027 0.0
H273 H 0.48826 0.47091 0.21349 0.0
H274 H 0.44467 0.36216 0.38138 0.0
H275 H 0.45904 0.39857 0.31995 0.0
H276 H 0.44731 0.57 0.3157 0.0
C277 C 0.4629 0.60329 0.17129 0.0
C278 C 0.47976 0.49338 0.23592 0.0
C279 C 0.45408 0.61548 0.1343 0.0
C280 C 0.44911 0.40275 0.38038 0.0
C281 C 0.45754 0.42363 0.34537 0.0
C282 C 0.45709 0.54876 0.29424 0.0
C283 C 0.46349 0.55167 0.1843 0.0
C284 C 0.4682 0.53886 0.22595 0.0
C285 C 0.46238 0.47688 0.34257 0.0
C286 C 0.46705 0.50108 0.30375 0.0
H287 H 0.44107 0.49327 0.10396 0.0
H288 H 0.45612 0.47231 0.16811 0.0
H289 H 0.44841 0.6023 0.24909 0.0
H290 H 0.44851 0.51276 0.43578 0.0
H291 H 0.46405 0.54867 0.37558 0.0
C292 C 0.46379 0.51905 0.9083 0.0
C293 C 0.45361 0.56796 0.90846 0.0
C294 C 0.47452 0.50069 0.8746 0.0
C295 C 0.48928 0.5352 0.77044 0.0
H296 H 0.46683 0.39699 0.75068 0.0
C297 C 0.4519 0.47511 0.62574 0.0
C298 C 0.45134 0.42316 0.61364 0.0
C299 C 0.46285 0.48942 0.66013 0.0
C300 C 0.47395 0.43494 0.75571 0.0
H301 H 0.44799 0.63773 0.87494 0.0
H302 H 0.46549 0.60476 0.81504 0.0
H303 H 0.46683 0.43045 0.81692 0.0
H304 H 0.46328 0.34593 0.62661 0.0
H305 H 0.48236 0.37098 0.6876 0.0
H306 H 0.49504 0.54032 0.70838 0.0
C307 C 0.4659 0.58088 0.84116 0.0
C308 C 0.47393 0.4544 0.79398 0.0
C309 C 0.45566 0.59977 0.87534 0.0
C310 C 0.4632 0.38616 0.6355 0.0
C311 C 0.47413 0.40052 0.67032 0.0
C312 C 0.48934 0.51564 0.73209 0.0
C313 C 0.47466 0.53023 0.83992 0.0
C314 C 0.48044 0.50578 0.80154 0.0
C315 C 0.47351 0.45215 0.68354 0.0
C316 C 0.48041 0.46642 0.72407 0.0
H317 H 0.46284 0.49429 0.93395 0.0
H318 H 0.48172 0.46226 0.87518 0.0
H319 H 0.4951 0.57432 0.77534 0.0
H320 H 0.44326 0.50482 0.60923 0.0
H321 H 0.46169 0.52935 0.66955 0.0
C322 C 0.54367 0.46285 0.89718 0.0
C323 C 0.55791 0.41999 0.90053 0.0
C324 C 0.5367 0.47981 0.86023 0.0
C325 C 0.54226 0.45264 0.75186 0.0
H326 H 0.54887 0.60157 0.74769 0.0
C327 C 0.56169 0.55141 0.60504 0.0
C328 C 0.57766 0.59103 0.60672 0.0
C329 C 0.55116 0.53422 0.63933 0.0
C330 C 0.54721 0.55991 0.74816 0.0
H331 H 0.57486 0.35891 0.8689 0.0
H332 H 0.56389 0.38981 0.80414 0.0
H333 H 0.54489 0.5595 0.8106 0.0
H334 H 0.59491 0.64503 0.64452 0.0
H335 H 0.57785 0.61317 0.70486 0.0
H336 H 0.54698 0.45255 0.68975 0.0
C337 C 0.5573 0.40967 0.82971 0.0
C338 C 0.54442 0.53563 0.78445 0.0
C339 C 0.56374 0.3919 0.86683 0.0
C340 C 0.58246 0.61465 0.64274 0.0
C341 C 0.57246 0.59647 0.67725 0.0
C342 C 0.54569 0.4768 0.71561 0.0
C343 C 0.54456 0.45534 0.82587 0.0
C344 C 0.54271 0.48143 0.78695 0.0
C345 C 0.55703 0.5551 0.67617 0.0
C346 C 0.54911 0.53065 0.71343 0.0
H347 H 0.53884 0.48474 0.92306 0.0
H348 H 0.52628 0.51399 0.85859 0.0
H349 H 0.54035 0.41102 0.75245 0.0
H350 H 0.5577 0.53302 0.57725 0.0
H351 H 0.53893 0.50348 0.63696 0.0
C352 C 0.07006 0.97526 0.09797 0.0
C353 C 0.0757 0.92273 0.09465 0.0
C354 C 0.0634 0.99595 0.13402 0.0
C355 C 0.04862 0.96338 0.23785 0.0
H356 H 0.08077 0.09058 0.25957 0.0
C357 C 0.0802 0.02191 0.39024 0.0
C358 C 0.0805 0.07431 0.40128 0.0
C359 C 0.07268 0.00707 0.35313 0.0
C360 C 0.07122 0.05578 0.25386 0.0
H361 H 0.07747 0.84982 0.12569 0.0
H362 H 0.06667 0.88632 0.1894 0.0
H363 H 0.08011 0.0565 0.19314 0.0
H364 H 0.07218 0.15211 0.38269 0.0
H365 H 0.05937 0.12607 0.31705 0.0
H366 H 0.04091 0.96159 0.29949 0.0
C367 C 0.06693 0.91144 0.16394 0.0
C368 C 0.07081 0.0361 0.21566 0.0
C369 C 0.07325 0.89049 0.12754 0.0
C370 C 0.07227 0.11148 0.37489 0.0
C371 C 0.06495 0.0966 0.33741 0.0
C372 C 0.04915 0.983 0.27623 0.0
C373 C 0.06265 0.96481 0.16782 0.0
C374 C 0.06004 0.98892 0.20733 0.0
C375 C 0.06544 0.04428 0.32599 0.0
C376 C 0.06103 0.02861 0.28476 0.0
H377 H 0.07137 1.00082 0.07283 0.0
H378 H 0.05962 0.03686 0.13566 0.0
H379 H 0.03982 0.9275 0.23232 0.0
H380 H 0.08619 0.99221 0.41005 0.0
H381 H 0.07356 0.96657 0.34507 0.0
C382 C 0.95062 0.89725 0.36802 0.0
C383 C 0.95182 0.93019 0.40074 0.0
C384 C 0.95604 0.91595 0.33054 0.0
C385 C 0.95475 0.04088 0.27984 0.0
H386 H 0.97296 0.95891 0.18977 0.0
C387 C 0.94209 0.11517 0.12204 0.0
C388 C 0.93038 0.07979 0.09835 0.0
C389 C 0.95181 0.09899 0.1574 0.0
C390 C 0.96799 0.98238 0.21473 0.0
H391 H 0.96191 0.00604 0.42117 0.0
H392 H 0.9723 0.0379 0.35631 0.0
H393 H 0.97845 0.92489 0.25618 0.0
H394 H 0.92064 0.99925 0.09223 0.0
H395 H 0.93731 0.97147 0.15366 0.0
H396 H 0.94351 0.0974 0.23862 0.0
C397 C 0.96633 0.99852 0.35899 0.0
C398 C 0.97107 0.96285 0.2527 0.0
C399 C 0.96049 0.98024 0.39614 0.0
C400 C 0.92935 0.02768 0.10995 0.0
C401 C 0.93918 0.01152 0.14496 0.0
C402 C 0.95179 0.06042 0.24201 0.0
C403 C 0.96306 0.96757 0.32548 0.0
C404 C 0.96378 0.99119 0.28565 0.0
C405 C 0.95019 0.04708 0.16941 0.0
C406 C 0.95764 0.03065 0.20904 0.0
H407 H 0.94396 0.85849 0.37097 0.0
H408 H 0.95322 0.89107 0.30538 0.0
H409 H 0.94857 0.06357 0.30436 0.0
H410 H 0.94332 0.1555 0.11374 0.0
H411 H 0.96028 0.1272 0.17567 0.0
C412 C 0.95959 0.89655 0.6388 0.0
C413 C 0.96027 0.92807 0.60536 0.0
C414 C 0.96769 0.91516 0.67475 0.0
C415 C 0.97266 0.04244 0.72152 0.0
H416 H 0.98462 0.95827 0.81327 0.0
C417 C 0.95099 0.11655 0.87626 0.0
C418 C 0.93714 0.08147 0.8964 0.0
C419 C 0.96344 0.10029 0.84348 0.0
C420 C 0.98145 0.98243 0.78787 0.0
H421 H 0.97238 1.00038 0.58143 0.0
H422 H 0.98766 0.03176 0.6435 0.0
H423 H 0.99079 0.92232 0.74771 0.0
H424 H 0.92643 1.00127 0.89915 0.0
H425 H 0.94764 0.97351 0.84225 0.0
H426 H 0.96212 0.10142 0.76144 0.0
C427 C 0.97995 0.99388 0.64279 0.0
C428 C 0.98493 0.96179 0.75031 0.0
C429 C 0.97133 0.97585 0.6072 0.0
C430 C 0.93672 0.02955 0.88411 0.0
C431 C 0.9492 0.01334 0.85175 0.0
C432 C 0.96922 0.06301 0.75899 0.0
C433 C 0.97694 0.96523 0.67753 0.0
C434 C 0.97942 0.99062 0.71665 0.0
C435 C 0.96241 0.04859 0.83059 0.0
C436 C 0.97236 0.03226 0.79249 0.0
H437 H 0.95112 0.85952 0.63794 0.0
H438 H 0.96494 0.89191 0.70077 0.0
H439 H 0.96803 0.06598 0.69653 0.0
H440 H 0.95185 0.15669 0.88526 0.0
H441 H 0.97351 0.12833 0.82777 0.0
C442 C 0.05012 0.92868 0.89152 0.0
C443 C 0.06797 0.89351 0.89077 0.0
C444 C 0.04035 0.9454 0.85643 0.0
C445 C 0.04259 0.92716 0.74677 0.0
H446 H 0.03566 0.07614 0.74648 0.0
C447 C 0.05207 0.03385 0.60241 0.0
C448 C 0.06624 0.07697 0.60467 0.0
C449 C 0.04181 0.01444 0.63623 0.0
C450 C 0.03758 0.03452 0.74592 0.0
H451 H 0.08924 0.84652 0.85377 0.0
H452 H 0.07302 0.8768 0.79237 0.0
H453 H 0.03795 0.03059 0.80858 0.0
H454 H 0.07982 0.13585 0.64292 0.0
H455 H 0.0632 0.10052 0.70253 0.0
H456 H 0.04454 0.93139 0.6844 0.0
C457 C 0.06578 0.89045 0.81969 0.0
C458 C 0.03853 0.00809 0.78172 0.0
C459 C 0.07523 0.87312 0.85484 0.0
C460 C 0.06884 0.10263 0.64063 0.0
C461 C 0.05911 0.08236 0.67475 0.0
C462 C 0.04213 0.95366 0.71105 0.0
C463 C 0.04873 0.92824 0.81994 0.0
C464 C 0.04218 0.9543 0.7826 0.0
C465 C 0.04624 0.03661 0.67326 0.0
C466 C 0.04079 0.00803 0.71018 0.0
H467 H 0.0444 0.94497 0.91917 0.0
H468 H 0.02695 0.97357 0.85788 0.0
H469 H 0.0446 0.88556 0.74622 0.0
H470 H 0.04968 0.01388 0.57467 0.0
H471 H 0.03143 0.98031 0.63355 0.0
C472 C 0.46103 0.83271 -0.00139 0.0
C473 C 0.45332 0.81153 0.03425 0.0
C474 C 0.4733 0.87885 -0.00166 0.0
C475 C 0.50842 0.96122 0.0622 0.0
H476 H 0.4969 0.06685 0.984 0.0
C477 C 0.54699 0.16566 0.07275 0.0
C478 C 0.55368 0.19014 0.03774 0.0
C479 C 0.53532 0.1188 0.07166 0.0
C480 C 0.50057 0.03748 0.00572 0.0
H481 H 0.45227 0.82275 0.09752 0.0
H482 H 0.47353 0.90316 0.09698 0.0
H483 H 0.47519 0.98698 0.98319 0.0
H484 H 0.55368 0.18387 0.97408 0.0
H485 H 0.53366 0.10173 0.9722 0.0
H486 H 0.53385 0.01145 0.08467 0.0
C487 C 0.47031 0.88382 0.06927 0.0
C488 C 0.48807 0.9917 0.00529 0.0
C489 C 0.45797 0.83786 0.06953 0.0
C490 C 0.54871 0.16621 0.00161 0.0
C491 C 0.53708 0.11923 0.00053 0.0
C492 C 0.52097 0.00688 0.06255 0.0
C493 C 0.47823 0.90475 0.03371 0.0
C494 C 0.49176 0.95313 0.03366 0.0
C495 C 0.53009 0.09506 0.03553 0.0
C496 C 0.51714 0.04577 0.03446 0.0
H497 H 0.45779 0.81341 0.9709 0.0
H498 H 0.47931 0.89369 0.97047 0.0
H499 H 0.51197 0.93193 0.08406 0.0
H500 H 0.55045 0.18307 0.1011 0.0
H501 H 0.52996 0.10175 0.0992 0.0
C502 C 0.56531 0.8543 0.44318 0.0
C503 C 0.56952 0.82472 0.47705 0.0
C504 C 0.55144 0.89788 0.44498 0.0
C505 C 0.52613 0.992 0.51508 0.0
H506 H 0.48543 0.01825 0.42865 0.0
C507 C 0.47426 0.18031 0.50528 0.0
C508 C 0.45227 0.17709 0.49076 0.0
C509 C 0.48857 0.13753 0.50371 0.0
C510 C 0.49653 0.01129 0.45324 0.0
H511 H 0.56252 0.8182 0.53951 0.0
H512 H 0.53812 0.89354 0.54253 0.0
H513 H 0.51021 0.94357 0.42608 0.0
H514 H 0.42805 0.12595 0.46349 0.0
H515 H 0.45285 0.05106 0.46141 0.0
H516 H 0.51201 0.05886 0.54275 0.0
C517 C 0.5458 0.88364 0.51463 0.0
C518 C 0.511 0.96878 0.45151 0.0
C519 C 0.55974 0.84018 0.51286 0.0
C520 C 0.44491 0.12989 0.47481 0.0
C521 C 0.4592 0.08698 0.47339 0.0
C522 C 0.51161 0.03441 0.51687 0.0
C523 C 0.54134 0.91294 0.48067 0.0
C524 C 0.52603 0.95854 0.48239 0.0
C525 C 0.48126 0.09024 0.48774 0.0
C526 C 0.49662 0.04471 0.48595 0.0
H527 H 0.57262 0.84365 0.41513 0.0
H528 H 0.54872 0.91993 0.41835 0.0
H529 H 0.53761 0.98575 0.53924 0.0
H530 H 0.48056 0.21611 0.51759 0.0
H531 H 0.50552 0.14185 0.51448 0.0
C532 C 0.05131 0.65546 0.06838 0.0
C533 C 0.05974 0.67661 0.03325 0.0
C534 C 0.03785 0.61117 0.0677 0.0
C535 C 0.02192 0.49887 0.0057 0.0
H536 H 0.9697 0.49515 0.07362 0.0
C537 C 0.95475 0.33806 0.9934 0.0
C538 C 0.946 0.31822 0.02873 0.0
C539 C 0.9685 0.38193 0.99359 0.0
C540 C 0.98434 0.49524 0.05477 0.0
H541 H 0.06089 0.66701 0.96984 0.0
H542 H 0.03735 0.58999 0.96866 0.0
H543 H 0.99435 0.57017 0.07495 0.0
H544 H 0.9448 0.32933 0.092 0.0
H545 H 0.96886 0.40531 0.09235 0.0
H546 H 0.01191 0.42386 0.98557 0.0
C547 C 0.04129 0.6074 -0.00319 0.0
C548 C 0.99851 0.53831 0.05555 0.0
C549 C 0.05473 0.65176 -0.00252 0.0
C550 C 0.95116 0.34361 0.06419 0.0
C551 C 0.96489 0.38743 0.06438 0.0
C552 C 1.00776 0.45574 0.00494 0.0
C553 C 0.0325 0.5868 0.03188 0.0
C554 C 0.0175 0.54069 0.03108 0.0
C555 C 0.97383 0.40708 0.02911 0.0
C556 C 0.98879 0.45331 0.02951 0.0
H557 H 0.05488 0.67343 0.09648 0.0
H558 H 0.03168 0.59591 0.09533 0.0
H559 H 0.03655 0.49907 0.98683 0.0
H560 H 0.95109 0.31956 0.96553 0.0
H561 H 0.97482 0.39637 0.96581 0.0
C562 C 0.05329 0.3279 0.51082 0.0
C563 C 0.0665 0.31611 0.4777 0.0
C564 C 0.04001 0.37245 0.51164 0.0
C565 C 0.01392 0.4702 0.44614 0.0
H566 H 1.00697 0.5472 0.54335 0.0
C567 C 0.9499 0.63727 0.46152 0.0
C568 C 0.95648 0.68093 0.48332 0.0
C569 C 0.96311 0.59252 0.46119 0.0
C570 C 0.00885 0.52647 0.51583 0.0
H571 H 0.07633 0.34257 0.41966 0.0
H572 H 0.05354 0.42078 0.42139 0.0
H573 H 0.03113 0.47146 0.54173 0.0
H574 H 0.98218 0.71162 0.52189 0.0
H575 H 1.00532 0.63424 0.52075 0.0
H576 H 0.99215 0.52611 0.41997 0.0
C577 C 0.05309 0.39504 0.44648 0.0
C578 C 0.02251 0.48253 0.51503 0.0
C579 C 0.0663 0.35032 0.44559 0.0
C580 C 0.97652 0.67866 0.50492 0.0
C581 C 0.98976 0.63405 0.50444 0.0
C582 C 1.00032 0.51426 0.44691 0.0
C583 C 0.03966 0.40658 0.47944 0.0
C584 C 0.02524 0.45374 0.48018 0.0
C585 C 0.98328 0.59037 0.48253 0.0
C586 C 0.99759 0.54303 0.48177 0.0
H587 H 0.05293 0.30231 0.53601 0.0
H588 H 0.02967 0.37956 0.5373 0.0
H589 H 0.01536 0.44871 0.41888 0.0
H590 H 0.93453 0.63759 0.44467 0.0
H591 H 0.95739 0.55942 0.44445 0.0
loop_
_geom_bond_atom_site_label_1
_geom_bond_atom_site_label_2
_geom_bond_distance
_geom_bond_site_symmetry_2
_ccdc_geom_bond_type
Zn0 O3 2.031 . S
Zn0 O5 2.049 1_554 S
Zn0 O10 2.067 1_554 S
Zn1 O2 1.962 . S
Zn1 O4 1.986 1_554 S
Zn1 O6 1.996 1_554 S
Zn1 O9 1.943 . S
O2 Zn1 1.962 . S
O2 C7 1.254 . S
O3 Zn0 2.031 . S
O3 C7 1.269 . S
O4 Zn1 1.986 1_556 S
O4 C11 1.262 1_556 S
O5 Zn0 2.049 1_556 S
O5 C13 1.260 . S
O6 Zn1 1.996 1_556 S
O6 C13 1.257 . S
C7 O2 1.254 . S
C7 O3 1.269 . S
C8 O9 1.249 . S
C8 O10 1.270 1_554 S
O9 Zn1 1.943 . S
O9 C8 1.249 . S
O10 Zn0 2.067 1_556 S
O10 C8 1.270 1_556 S
C11 O4 1.262 1_554 S
C11 O12 1.232 . S
O12 C11 1.232 . S
C13 O5 1.260 . S
C13 O6 1.257 . S
Zn14 O17 2.031 . S
Zn14 O19 2.049 1_554 S
Zn14 O24 2.067 1_554 S
Zn15 O16 1.962 . S
Zn15 O18 1.986 1_554 S
Zn15 O20 1.996 1_554 S
Zn15 O23 1.943 . S
O16 Zn15 1.962 . S
O16 C21 1.254 . S
O17 Zn14 2.031 . S
O17 C21 1.269 . S
O18 Zn15 1.986 1_556 S
O18 C25 1.262 1_556 S
O19 Zn14 2.049 1_556 S
O19 C27 1.260 . S
O20 Zn15 1.996 1_556 S
O20 C27 1.257 . S
C21 O16 1.254 . S
C21 O17 1.269 . S
C22 O23 1.249 . S
C22 O24 1.270 1_554 S
O23 Zn15 1.943 . S
O23 C22 1.249 . S
O24 Zn14 2.067 1_556 S
O24 C22 1.270 1_556 S
C25 O18 1.262 1_554 S
C25 O26 1.232 . S
O26 C25 1.232 . S
C27 O19 1.260 . S
C27 O20 1.257 . S
Zn28 O31 2.031 . S
Zn28 O33 2.049 . S
Zn28 O38 2.067 . S
Zn29 O30 1.962 . S
Zn29 O32 1.986 . S
Zn29 O34 1.996 . S
Zn29 O37 1.943 . S
O30 Zn29 1.962 . S
O30 C35 1.254 . S
O31 Zn28 2.031 . S
O31 C35 1.269 . S
O32 Zn29 1.986 . S
O32 C39 1.262 . S
O33 Zn28 2.049 . S
O33 C41 1.260 . S
O34 Zn29 1.996 . S
O34 C41 1.257 . S
C35 O30 1.254 . S
C35 O31 1.269 . S
C36 O37 1.249 . S
C36 O38 1.270 . S
O37 Zn29 1.943 . S
O37 C36 1.249 . S
O38 Zn28 2.067 . S
O38 C36 1.270 . S
C39 O32 1.262 . S
C39 O40 1.232 . S
O40 C39 1.232 . S
C41 O33 1.260 . S
C41 O34 1.257 . S
Zn42 O45 2.031 . S
Zn42 O47 2.049 . S
Zn42 O52 2.067 . S
Zn43 O44 1.962 . S
Zn43 O46 1.986 . S
Zn43 O48 1.996 . S
Zn43 O51 1.943 . S
O44 Zn43 1.962 . S
O44 C49 1.254 . S
O45 Zn42 2.031 . S
O45 C49 1.269 . S
O46 Zn43 1.986 . S
O46 C53 1.262 . S
O47 Zn42 2.049 . S
O47 C55 1.260 . S
O48 Zn43 1.996 . S
O48 C55 1.257 . S
C49 O44 1.254 . S
C49 O45 1.269 . S
C50 O51 1.249 . S
C50 O52 1.270 . S
O51 Zn43 1.943 . S
O51 C50 1.249 . S
O52 Zn42 2.067 . S
O52 C50 1.270 . S
C53 O46 1.262 . S
C53 O54 1.232 . S
O54 C53 1.232 . S
C55 O47 1.260 . S
C55 O48 1.257 . S
Zn56 O59 2.031 . S
Zn56 O61 2.049 1_554 S
Zn56 O66 2.067 1_554 S
Zn57 O58 1.962 . S
Zn57 O60 1.986 1_554 S
Zn57 O62 1.996 1_554 S
Zn57 O65 1.943 . S
O58 Zn57 1.962 . S
O58 C63 1.254 . S
O59 Zn56 2.031 . S
O59 C63 1.269 . S
O60 Zn57 1.986 1_556 S
O60 C67 1.262 1_556 S
O61 Zn56 2.049 1_556 S
O61 C69 1.260 . S
O62 Zn57 1.996 1_556 S
O62 C69 1.257 . S
C63 O58 1.254 . S
C63 O59 1.269 . S
C64 O65 1.249 . S
C64 O66 1.270 1_554 S
O65 Zn57 1.943 . S
O65 C64 1.249 . S
O66 Zn56 2.067 1_556 S
O66 C64 1.270 1_556 S
C67 O60 1.262 1_554 S
C67 O68 1.232 . S
O68 C67 1.232 . S
C69 O61 1.260 . S
C69 O62 1.257 . S
Zn70 O73 2.031 . S
Zn70 O75 2.049 1_554 S
Zn70 O80 2.067 1_554 S
Zn71 O72 1.962 . S
Zn71 O74 1.986 1_554 S
Zn71 O76 1.996 1_554 S
Zn71 O79 1.943 . S
O72 Zn71 1.962 . S
O72 C77 1.254 . S
O73 Zn70 2.031 . S
O73 C77 1.269 . S
O74 Zn71 1.986 1_556 S
O74 C81 1.262 1_556 S
O75 Zn70 2.049 1_556 S
O75 C83 1.260 . S
O76 Zn71 1.996 1_556 S
O76 C83 1.257 . S
C77 O72 1.254 . S
C77 O73 1.269 . S
C78 O79 1.249 . S
C78 O80 1.270 1_554 S
O79 Zn71 1.943 . S
O79 C78 1.249 . S
O80 Zn70 2.067 1_556 S
O80 C78 1.270 1_556 S
C81 O74 1.262 1_554 S
C81 O82 1.232 . S
O82 C81 1.232 . S
C83 O75 1.260 . S
C83 O76 1.257 . S
Zn84 O87 2.031 . S
Zn84 O89 2.049 . S
Zn84 O94 2.067 . S
Zn85 O86 1.962 . S
Zn85 O88 1.986 . S
Zn85 O90 1.996 . S
Zn85 O93 1.943 . S
O86 Zn85 1.962 . S
O86 C91 1.254 . S
O87 Zn84 2.031 . S
O87 C91 1.269 . S
O88 Zn85 1.986 . S
O88 C95 1.262 . S
O89 Zn84 2.049 . S
O89 C97 1.260 . S
O90 Zn85 1.996 . S
O90 C97 1.257 . S
C91 O86 1.254 . S
C91 O87 1.269 . S
C92 O93 1.249 . S
C92 O94 1.270 . S
O93 Zn85 1.943 . S
O93 C92 1.249 . S
O94 Zn84 2.067 . S
O94 C92 1.270 . S
C95 O88 1.262 . S
C95 O96 1.232 . S
O96 C95 1.232 . S
C97 O89 1.260 . S
C97 O90 1.257 . S
Zn98 O101 2.031 . S
Zn98 O103 2.049 . S
Zn98 O108 2.067 . S
Zn99 O100 1.962 . S
Zn99 O102 1.986 . S
Zn99 O104 1.996 . S
Zn99 O107 1.943 . S
O100 Zn99 1.962 . S
O100 C105 1.254 . S
O101 Zn98 2.031 . S
O101 C105 1.269 . S
O102 Zn99 1.986 . S
O102 C109 1.262 . S
O103 Zn98 2.049 . S
O103 C111 1.260 . S
O104 Zn99 1.996 . S
O104 C111 1.257 . S
C105 O100 1.254 . S
C105 O101 1.269 . S
C106 O107 1.249 . S
C106 O108 1.270 . S
O107 Zn99 1.943 . S
O107 C106 1.249 . S
O108 Zn98 2.067 . S
O108 C106 1.270 . S
C109 O102 1.262 . S
C109 O110 1.232 . S
O110 C109 1.232 . S
C111 O103 1.260 . S
C111 O104 1.257 . S
C112 C113 1.349 1_556 S
C112 C114 1.327 . S
C112 H137 0.950 . S
C113 C112 1.349 1_554 S
C113 C129 1.349 . S
C114 C112 1.327 . S
C114 C133 1.429 1_556 S
C114 H138 0.950 . S
C115 C132 1.574 . S
C115 C134 1.368 . S
C115 H139 0.949 . S
H116 C120 0.949 . S
C117 C118 1.349 . S
C117 C119 1.327 . S
C117 H140 0.950 . S
C118 C117 1.349 . S
C118 C130 1.349 1_554 S
C119 C117 1.327 . S
C119 C135 1.429 . S
C119 H141 0.950 . S
C120 H116 0.949 . S
C120 C128 1.574 . S
C120 C136 1.368 1_556 S
H121 C129 0.950 . S
H122 C127 0.950 . S
H123 C128 0.949 . S
H124 C130 0.950 . S
H125 C131 0.950 . S
H126 C132 0.949 . S
C127 H122 0.950 . S
C127 C129 1.327 . S
C127 C133 1.429 . S
C128 C120 1.574 . S
C128 H123 0.949 . S
C128 C134 1.368 1_556 S
C129 C113 1.349 . S
C129 H121 0.950 . S
C129 C127 1.327 . S
C130 C118 1.349 1_556 S
C130 H124 0.950 . S
C130 C131 1.327 . S
C131 H125 0.950 . S
C131 C130 1.327 . S
C131 C135 1.429 1_556 S
C132 C115 1.574 . S
C132 H126 0.949 . S
C132 C136 1.368 . S
C133 C114 1.429 1_554 S
C133 C127 1.429 . S
C133 C134 1.523 . S
C134 C115 1.368 . S
C134 C128 1.368 1_554 S
C134 C133 1.523 . S
C135 C119 1.429 . S
C135 C131 1.429 1_554 S
C135 C136 1.523 . S
C136 C120 1.368 1_554 S
C136 C132 1.368 . S
C136 C135 1.523 . S
H137 C112 0.950 . S
H138 C114 0.950 . S
H139 C115 0.949 . S
H140 C117 0.950 . S
H141 C119 0.950 . S
C142 C143 1.349 . S
C142 C144 1.327 . S
C142 H167 0.950 . S
C143 C142 1.349 . S
C143 C159 1.349 1_554 S
C144 C142 1.327 . S
C144 C163 1.429 . S
C144 H168 0.950 . S
C145 C162 1.574 . S
C145 C164 1.368 1_556 S
C145 H169 0.949 . S
H146 C150 0.949 . S
C147 C148 1.349 1_556 S
C147 C149 1.327 . S
C147 H170 0.950 . S
C148 C147 1.349 1_554 S
C148 C160 1.349 . S
C149 C147 1.327 . S
C149 C165 1.429 1_556 S
C149 H171 0.950 . S
C150 H146 0.949 . S
C150 C158 1.574 . S
C150 C166 1.368 . S
H151 C159 0.950 . S
H152 C157 0.950 . S
H153 C158 0.949 . S
H154 C160 0.950 . S
H155 C161 0.950 . S
H156 C162 0.949 . S
C157 H152 0.950 . S
C157 C159 1.327 . S
C157 C163 1.429 1_556 S
C158 C150 1.574 . S
C158 H153 0.949 . S
C158 C164 1.368 . S
C159 C143 1.349 1_556 S
C159 H151 0.950 . S
C159 C157 1.327 . S
C160 C148 1.349 . S
C160 H154 0.950 . S
C160 C161 1.327 . S
C161 H155 0.950 . S
C161 C160 1.327 . S
C161 C165 1.429 . S
C162 C145 1.574 . S
C162 H156 0.949 . S
C162 C166 1.368 1_556 S
C163 C144 1.429 . S
C163 C157 1.429 1_554 S
C163 C164 1.523 . S
C164 C145 1.368 1_554 S
C164 C158 1.368 . S
C164 C163 1.523 . S
C165 C149 1.429 1_554 S
C165 C161 1.429 . S
C165 C166 1.523 . S
C166 C150 1.368 . S
C166 C162 1.368 1_554 S
C166 C165 1.523 . S
H167 C142 0.950 . S
H168 C144 0.950 . S
H169 C145 0.949 . S
H170 C147 0.950 . S
H171 C149 0.950 . S
C172 C173 1.349 . S
C172 C174 1.327 . S
C172 H197 0.950 . S
C173 C172 1.349 . S
C173 C189 1.349 . S
C174 C172 1.327 . S
C174 C193 1.429 . S
C174 H198 0.950 . S
C175 C192 1.574 . S
C175 C194 1.368 . S
C175 H199 0.949 . S
H176 C180 0.949 . S
C177 C178 1.349 . S
C177 C179 1.327 . S
C177 H200 0.950 . S
C178 C177 1.349 . S
C178 C190 1.349 . S
C179 C177 1.327 . S
C179 C195 1.429 . S
C179 H201 0.950 . S
C180 H176 0.949 . S
C180 C188 1.574 . S
C180 C196 1.368 . S
H181 C189 0.950 . S
H182 C187 0.950 . S
H183 C188 0.949 . S
H184 C190 0.950 . S
H185 C191 0.950 . S
H186 C192 0.949 . S
C187 H182 0.950 . S
C187 C189 1.327 . S
C187 C193 1.429 . S
C188 C180 1.574 . S
C188 H183 0.949 . S
C188 C194 1.368 . S
C189 C173 1.349 . S
C189 H181 0.950 . S
C189 C187 1.327 . S
C190 C178 1.349 . S
C190 H184 0.950 . S
C190 C191 1.327 . S
C191 H185 0.950 . S
C191 C190 1.327 . S
C191 C195 1.429 . S
C192 C175 1.574 . S
C192 H186 0.949 . S
C192 C196 1.368 . S
C193 C174 1.429 . S
C193 C187 1.429 . S
C193 C194 1.523 . S
C194 C175 1.368 . S
C194 C188 1.368 . S
C194 C193 1.523 . S
C195 C179 1.429 . S
C195 C191 1.429 . S
C195 C196 1.523 . S
C196 C180 1.368 . S
C196 C192 1.368 . S
C196 C195 1.523 . S
H197 C172 0.950 . S
H198 C174 0.950 . S
H199 C175 0.949 . S
H200 C177 0.950 . S
H201 C179 0.950 . S
C202 C203 1.349 . S
C202 C204 1.327 . S
C202 H227 0.950 . S
C203 C202 1.349 . S
C203 C219 1.349 . S
C204 C202 1.327 . S
C204 C223 1.429 . S
C204 H228 0.950 . S
C205 C222 1.574 . S
C205 C224 1.368 . S
C205 H229 0.949 . S
H206 C210 0.949 . S
C207 C208 1.349 . S
C207 C209 1.327 . S
C207 H230 0.950 . S
C208 C207 1.349 . S
C208 C220 1.349 . S
C209 C207 1.327 . S
C209 C225 1.429 . S
C209 H231 0.950 . S
C210 H206 0.949 . S
C210 C218 1.574 . S
C210 C226 1.368 . S
H211 C219 0.950 . S
H212 C217 0.950 . S
H213 C218 0.949 . S
H214 C220 0.950 . S
H215 C221 0.950 . S
H216 C222 0.949 . S
C217 H212 0.950 . S
C217 C219 1.327 . S
C217 C223 1.429 . S
C218 C210 1.574 . S
C218 H213 0.949 . S
C218 C224 1.368 . S
C219 C203 1.349 . S
C219 H211 0.950 . S
C219 C217 1.327 . S
C220 C208 1.349 . S
C220 H214 0.950 . S
C220 C221 1.327 . S
C221 H215 0.950 . S
C221 C220 1.327 . S
C221 C225 1.429 . S
C222 C205 1.574 . S
C222 H216 0.949 . S
C222 C226 1.368 . S
C223 C204 1.429 . S
C223 C217 1.429 . S
C223 C224 1.523 . S
C224 C205 1.368 . S
C224 C218 1.368 . S
C224 C223 1.523 . S
C225 C209 1.429 . S
C225 C221 1.429 . S
C225 C226 1.523 . S
C226 C210 1.368 . S
C226 C222 1.368 . S
C226 C225 1.523 . S
H227 C202 0.950 . S
H228 C204 0.950 . S
H229 C205 0.949 . S
H230 C207 0.950 . S
H231 C209 0.950 . S
C232 C233 1.349 . S
C232 C234 1.327 . S
C232 H257 0.950 . S
C233 C232 1.349 . S
C233 C249 1.349 . S
C234 C232 1.327 . S
C234 C253 1.429 . S
C234 H258 0.950 . S
C235 C252 1.574 . S
C235 C254 1.368 . S
C235 H259 0.949 . S
H236 C240 0.949 . S
C237 C238 1.349 . S
C237 C239 1.327 . S
C237 H260 0.950 . S
C238 C237 1.349 . S
C238 C250 1.349 . S
C239 C237 1.327 . S
C239 C255 1.429 . S
C239 H261 0.950 . S
C240 H236 0.949 . S
C240 C248 1.574 . S
C240 C256 1.368 . S
H241 C249 0.950 . S
H242 C247 0.950 . S
H243 C248 0.949 . S
H244 C250 0.950 . S
H245 C251 0.950 . S
H246 C252 0.949 . S
C247 H242 0.950 . S
C247 C249 1.327 . S
C247 C253 1.429 . S
C248 C240 1.574 . S
C248 H243 0.949 . S
C248 C254 1.368 . S
C249 C233 1.349 . S
C249 H241 0.950 . S
C249 C247 1.327 . S
C250 C238 1.349 . S
C250 H244 0.950 . S
C250 C251 1.327 . S
C251 H245 0.950 . S
C251 C250 1.327 . S
C251 C255 1.429 . S
C252 C235 1.574 . S
C252 H246 0.949 . S
C252 C256 1.368 . S
C253 C234 1.429 . S
C253 C247 1.429 . S
C253 C254 1.523 . S
C254 C235 1.368 . S
C254 C248 1.368 . S
C254 C253 1.523 . S
C255 C239 1.429 . S
C255 C251 1.429 . S
C255 C256 1.523 . S
C256 C240 1.368 . S
C256 C252 1.368 . S
C256 C255 1.523 . S
H257 C232 0.950 . S
H258 C234 0.950 . S
H259 C235 0.949 . S
H260 C237 0.950 . S
H261 C239 0.950 . S
C262 C263 1.349 . S
C262 C264 1.327 . S
C262 H287 0.950 . S
C263 C262 1.349 . S
C263 C279 1.349 . S
C264 C262 1.327 . S
C264 C283 1.429 . S
C264 H288 0.950 . S
C265 C282 1.574 . S
C265 C284 1.368 . S
C265 H289 0.949 . S
H266 C270 0.949 . S
C267 C268 1.349 . S
C267 C269 1.327 . S
C267 H290 0.950 . S
C268 C267 1.349 . S
C268 C280 1.349 . S
C269 C267 1.327 . S
C269 C285 1.429 . S
C269 H291 0.950 . S
C270 H266 0.949 . S
C270 C278 1.574 . S
C270 C286 1.368 . S
H271 C279 0.950 . S
H272 C277 0.950 . S
H273 C278 0.949 . S
H274 C280 0.950 . S
H275 C281 0.950 . S
H276 C282 0.949 . S
C277 H272 0.950 . S
C277 C279 1.327 . S
C277 C283 1.429 . S
C278 C270 1.574 . S
C278 H273 0.949 . S
C278 C284 1.368 . S
C279 C263 1.349 . S
C279 H271 0.950 . S
C279 C277 1.327 . S
C280 C268 1.349 . S
C280 H274 0.950 . S
C280 C281 1.327 . S
C281 H275 0.950 . S
C281 C280 1.327 . S
C281 C285 1.429 . S
C282 C265 1.574 . S
C282 H276 0.949 . S
C282 C286 1.368 . S
C283 C264 1.429 . S
C283 C277 1.429 . S
C283 C284 1.523 . S
C284 C265 1.368 . S
C284 C278 1.368 . S
C284 C283 1.523 . S
C285 C269 1.429 . S
C285 C281 1.429 . S
C285 C286 1.523 . S
C286 C270 1.368 . S
C286 C282 1.368 . S
C286 C285 1.523 . S
H287 C262 0.950 . S
H288 C264 0.950 . S
H289 C265 0.949 . S
H290 C267 0.950 . S
H291 C269 0.950 . S
C292 C293 1.349 . S
C292 C294 1.327 . S
C292 H317 0.950 . S
C293 C292 1.349 . S
C293 C309 1.349 . S
C294 C292 1.327 . S
C294 C313 1.429 . S
C294 H318 0.950 . S
C295 C312 1.574 . S
C295 C314 1.368 . S
C295 H319 0.949 . S
H296 C300 0.949 . S
C297 C298 1.349 . S
C297 C299 1.327 . S
C297 H320 0.950 . S
C298 C297 1.349 . S
C298 C310 1.349 . S
C299 C297 1.327 . S
C299 C315 1.429 . S
C299 H321 0.950 . S
C300 H296 0.949 . S
C300 C308 1.574 . S
C300 C316 1.368 . S
H301 C309 0.950 . S
H302 C307 0.950 . S
H303 C308 0.949 . S
H304 C310 0.950 . S
H305 C311 0.950 . S
H306 C312 0.949 . S
C307 H302 0.950 . S
C307 C309 1.327 . S
C307 C313 1.429 . S
C308 C300 1.574 . S
C308 H303 0.949 . S
C308 C314 1.368 . S
C309 C293 1.349 . S
C309 H301 0.950 . S
C309 C307 1.327 . S
C310 C298 1.349 . S
C310 H304 0.950 . S
C310 C311 1.327 . S
C311 H305 0.950 . S
C311 C310 1.327 . S
C311 C315 1.429 . S
C312 C295 1.574 . S
C312 H306 0.949 . S
C312 C316 1.368 . S
C313 C294 1.429 . S
C313 C307 1.429 . S
C313 C314 1.523 . S
C314 C295 1.368 . S
C314 C308 1.368 . S
C314 C313 1.523 . S
C315 C299 1.429 . S
C315 C311 1.429 . S
C315 C316 1.523 . S
C316 C300 1.368 . S
C316 C312 1.368 . S
C316 C315 1.523 . S
H317 C292 0.950 . S
H318 C294 0.950 . S
H319 C295 0.949 . S
H320 C297 0.950 . S
H321 C299 0.950 . S
C322 C323 1.349 . S
C322 C324 1.327 . S
C322 H347 0.950 . S
C323 C322 1.349 . S
C323 C339 1.349 . S
C324 C322 1.327 . S
C324 C343 1.429 . S
C324 H348 0.950 . S
C325 C342 1.574 . S
C325 C344 1.368 . S
C325 H349 0.949 . S
H326 C330 0.949 . S
C327 C328 1.349 . S
C327 C329 1.327 . S
C327 H350 0.950 . S
C328 C327 1.349 . S
C328 C340 1.349 . S
C329 C327 1.327 . S
C329 C345 1.429 . S
C329 H351 0.950 . S
C330 H326 0.949 . S
C330 C338 1.574 . S
C330 C346 1.368 . S
H331 C339 0.950 . S
H332 C337 0.950 . S
H333 C338 0.949 . S
H334 C340 0.950 . S
H335 C341 0.950 . S
H336 C342 0.949 . S
C337 H332 0.950 . S
C337 C339 1.327 . S
C337 C343 1.429 . S
C338 C330 1.574 . S
C338 H333 0.949 . S
C338 C344 1.368 . S
C339 C323 1.349 . S
C339 H331 0.950 . S
C339 C337 1.327 . S
C340 C328 1.349 . S
C340 H334 0.950 . S
C340 C341 1.327 . S
C341 H335 0.950 . S
C341 C340 1.327 . S
C341 C345 1.429 . S
C342 C325 1.574 . S
C342 H336 0.949 . S
C342 C346 1.368 . S
C343 C324 1.429 . S
C343 C337 1.429 . S
C343 C344 1.523 . S
C344 C325 1.368 . S
C344 C338 1.368 . S
C344 C343 1.523 . S
C345 C329 1.429 . S
C345 C341 1.429 . S
C345 C346 1.523 . S
C346 C330 1.368 . S
C346 C342 1.368 . S
C346 C345 1.523 . S
H347 C322 0.950 . S
H348 C324 0.950 . S
H349 C325 0.949 . S
H350 C327 0.950 . S
H351 C329 0.950 . S
C352 C353 1.349 . S
C352 C354 1.327 . S
C352 H377 0.950 . S
C353 C352 1.349 . S
C353 C369 1.349 . S
C354 C352 1.327 . S
C354 C373 1.429 . S
C354 H378 0.950 1_565 S
C355 C372 1.574 . S
C355 C374 1.368 . S
C355 H379 0.949 . S
H356 C360 0.949 . S
C357 C358 1.349 . S
C357 C359 1.327 . S
C357 H380 0.950 . S
C358 C357 1.349 . S
C358 C370 1.349 . S
C359 C357 1.327 . S
C359 C375 1.429 . S
C359 H381 0.950 1_545 S
C360 H356 0.949 . S
C360 C368 1.574 . S
C360 C376 1.368 . S
H361 C369 0.950 . S
H362 C367 0.950 . S
H363 C368 0.949 . S
H364 C370 0.950 . S
H365 C371 0.950 . S
H366 C372 0.949 . S
C367 H362 0.950 . S
C367 C369 1.327 . S
C367 C373 1.429 . S
C368 C360 1.574 . S
C368 H363 0.949 . S
C368 C374 1.368 1_545 S
C369 C353 1.349 . S
C369 H361 0.950 . S
C369 C367 1.327 . S
C370 C358 1.349 . S
C370 H364 0.950 . S
C370 C371 1.327 . S
C371 H365 0.950 . S
C371 C370 1.327 . S
C371 C375 1.429 . S
C372 C355 1.574 . S
C372 H366 0.949 . S
C372 C376 1.368 1_565 S
C373 C354 1.429 . S
C373 C367 1.429 . S
C373 C374 1.523 . S
C374 C355 1.368 . S
C374 C368 1.368 1_565 S
C374 C373 1.523 . S
C375 C359 1.429 . S
C375 C371 1.429 . S
C375 C376 1.523 . S
C376 C360 1.368 . S
C376 C372 1.368 1_545 S
C376 C375 1.523 . S
H377 C352 0.950 . S
H378 C354 0.950 1_545 S
H379 C355 0.949 . S
H380 C357 0.950 . S
H381 C359 0.950 1_565 S
C382 C383 1.349 . S
C382 C384 1.327 . S
C382 H407 0.950 . S
C383 C382 1.349 . S
C383 C399 1.349 . S
C384 C382 1.327 . S
C384 C403 1.429 . S
C384 H408 0.950 . S
C385 C402 1.574 . S
C385 C404 1.368 1_545 S
C385 H409 0.949 . S
H386 C390 0.949 . S
C387 C388 1.349 . S
C387 C389 1.327 . S
C387 H410 0.950 . S
C388 C387 1.349 . S
C388 C400 1.349 . S
C389 C387 1.327 . S
C389 C405 1.429 . S
C389 H411 0.950 . S
C390 H386 0.949 . S
C390 C398 1.574 . S
C390 C406 1.368 1_565 S
H391 C399 0.950 . S
H392 C397 0.950 . S
H393 C398 0.949 . S
H394 C400 0.950 . S
H395 C401 0.950 . S
H396 C402 0.949 . S
C397 H392 0.950 . S
C397 C399 1.327 . S
C397 C403 1.429 . S
C398 C390 1.574 . S
C398 H393 0.949 . S
C398 C404 1.368 . S
C399 C383 1.349 . S
C399 H391 0.950 . S
C399 C397 1.327 . S
C400 C388 1.349 . S
C400 H394 0.950 . S
C400 C401 1.327 . S
C401 H395 0.950 . S
C401 C400 1.327 . S
C401 C405 1.429 . S
C402 C385 1.574 . S
C402 H396 0.949 . S
C402 C406 1.368 . S
C403 C384 1.429 . S
C403 C397 1.429 . S
C403 C404 1.523 . S
C404 C385 1.368 1_565 S
C404 C398 1.368 . S
C404 C403 1.523 . S
C405 C389 1.429 . S
C405 C401 1.429 . S
C405 C406 1.523 . S
C406 C390 1.368 1_545 S
C406 C402 1.368 . S
C406 C405 1.523 . S
H407 C382 0.950 . S
H408 C384 0.950 . S
H409 C385 0.949 . S
H410 C387 0.950 . S
H411 C389 0.950 . S
C412 C413 1.349 . S
C412 C414 1.327 . S
C412 H437 0.950 . S
C413 C412 1.349 . S
C413 C429 1.349 . S
C414 C412 1.327 . S
C414 C433 1.429 . S
C414 H438 0.950 . S
C415 C432 1.574 . S
C415 C434 1.368 1_545 S
C415 H439 0.949 . S
H416 C420 0.949 . S
C417 C418 1.349 . S
C417 C419 1.327 . S
C417 H440 0.950 . S
C418 C417 1.349 . S
C418 C430 1.349 . S
C419 C417 1.327 . S
C419 C435 1.429 . S
C419 H441 0.950 . S
C420 H416 0.949 . S
C420 C428 1.574 . S
C420 C436 1.368 1_565 S
H421 C429 0.950 . S
H422 C427 0.950 . S
H423 C428 0.949 . S
H424 C430 0.950 . S
H425 C431 0.950 . S
H426 C432 0.949 . S
C427 H422 0.950 . S
C427 C429 1.327 . S
C427 C433 1.429 . S
C428 C420 1.574 . S
C428 H423 0.949 . S
C428 C434 1.368 . S
C429 C413 1.349 . S
C429 H421 0.950 . S
C429 C427 1.327 . S
C430 C418 1.349 . S
C430 H424 0.950 . S
C430 C431 1.327 . S
C431 H425 0.950 . S
C431 C430 1.327 . S
C431 C435 1.429 . S
C432 C415 1.574 . S
C432 H426 0.949 . S
C432 C436 1.368 . S
C433 C414 1.429 . S
C433 C427 1.429 . S
C433 C434 1.523 . S
C434 C415 1.368 1_565 S
C434 C428 1.368 . S
C434 C433 1.523 . S
C435 C419 1.429 . S
C435 C431 1.429 . S
C435 C436 1.523 . S
C436 C420 1.368 1_545 S
C436 C432 1.368 . S
C436 C435 1.523 . S
H437 C412 0.950 . S
H438 C414 0.950 . S
H439 C415 0.949 . S
H440 C417 0.950 . S
H441 C419 0.950 . S
C442 C443 1.349 . S
C442 C444 1.327 . S
C442 H467 0.950 . S
C443 C442 1.349 . S
C443 C459 1.349 . S
C444 C442 1.327 . S
C444 C463 1.429 . S
C444 H468 0.950 1_565 S
C445 C462 1.574 . S
C445 C464 1.368 . S
C445 H469 0.949 . S
H446 C450 0.949 . S
C447 C448 1.349 . S
C447 C449 1.327 . S
C447 H470 0.950 . S
C448 C447 1.349 . S
C448 C460 1.349 . S
C449 C447 1.327 . S
C449 C465 1.429 . S
C449 H471 0.950 1_545 S
C450 H446 0.949 . S
C450 C458 1.574 . S
C450 C466 1.368 . S
H451 C459 0.950 . S
H452 C457 0.950 . S
H453 C458 0.949 . S
H454 C460 0.950 . S
H455 C461 0.950 . S
H456 C462 0.949 . S
C457 H452 0.950 . S
C457 C459 1.327 . S
C457 C463 1.429 . S
C458 C450 1.574 . S
C458 H453 0.949 . S
C458 C464 1.368 1_545 S
C459 C443 1.349 . S
C459 H451 0.950 . S
C459 C457 1.327 . S
C460 C448 1.349 . S
C460 H454 0.950 . S
C460 C461 1.327 . S
C461 H455 0.950 . S
C461 C460 1.327 . S
C461 C465 1.429 . S
C462 C445 1.574 . S
C462 H456 0.949 . S
C462 C466 1.368 1_565 S
C463 C444 1.429 . S
C463 C457 1.429 . S
C463 C464 1.523 . S
C464 C445 1.368 . S
C464 C458 1.368 1_565 S
C464 C463 1.523 . S
C465 C449 1.429 . S
C465 C461 1.429 . S
C465 C466 1.523 . S
C466 C450 1.368 . S
C466 C462 1.368 1_545 S
C466 C465 1.523 . S
H467 C442 0.950 . S
H468 C444 0.950 1_545 S
H469 C445 0.949 . S
H470 C447 0.950 . S
H471 C449 0.950 1_565 S
C472 C473 1.349 1_556 S
C472 C474 1.327 . S
C472 H497 0.950 . S
C473 C472 1.349 1_554 S
C473 C489 1.349 . S
C474 C472 1.327 . S
C474 C493 1.429 1_556 S
C474 H498 0.950 . S
C475 C492 1.574 1_565 S
C475 C494 1.368 . S
C475 H499 0.949 . S
H476 C480 0.949 . S
C477 C478 1.349 . S
C477 C479 1.327 . S
C477 H500 0.950 . S
C478 C477 1.349 . S
C478 C490 1.349 1_554 S
C479 C477 1.327 . S
C479 C495 1.429 . S
C479 H501 0.950 . S
C480 H476 0.949 . S
C480 C488 1.574 1_545 S
C480 C496 1.368 1_556 S
H481 C489 0.950 . S
H482 C487 0.950 . S
H483 C488 0.949 . S
H484 C490 0.950 . S
H485 C491 0.950 . S
H486 C492 0.949 . S
C487 H482 0.950 . S
C487 C489 1.327 . S
C487 C493 1.429 . S
C488 C480 1.574 1_565 S
C488 H483 0.949 . S
C488 C494 1.368 1_556 S
C489 C473 1.349 . S
C489 H481 0.950 . S
C489 C487 1.327 . S
C490 C478 1.349 1_556 S
C490 H484 0.950 . S
C490 C491 1.327 . S
C491 H485 0.950 . S
C491 C490 1.327 . S
C491 C495 1.429 1_556 S
C492 C475 1.574 1_545 S
C492 H486 0.949 . S
C492 C496 1.368 . S
C493 C474 1.429 1_554 S
C493 C487 1.429 . S
C493 C494 1.523 . S
C494 C475 1.368 . S
C494 C488 1.368 1_554 S
C494 C493 1.523 . S
C495 C479 1.429 . S
C495 C491 1.429 1_554 S
C495 C496 1.523 . S
C496 C480 1.368 1_554 S
C496 C492 1.368 . S
C496 C495 1.523 . S
H497 C472 0.950 . S
H498 C474 0.950 . S
H499 C475 0.949 . S
H500 C477 0.950 . S
H501 C479 0.950 . S
C502 C503 1.349 . S
C502 C504 1.327 . S
C502 H527 0.950 . S
C503 C502 1.349 . S
C503 C519 1.349 . S
C504 C502 1.327 . S
C504 C523 1.429 . S
C504 H528 0.950 . S
C505 C522 1.574 1_565 S
C505 C524 1.368 . S
C505 H529 0.949 . S
H506 C510 0.949 . S
C507 C508 1.349 . S
C507 C509 1.327 . S
C507 H530 0.950 . S
C508 C507 1.349 . S
C508 C520 1.349 . S
C509 C507 1.327 . S
C509 C525 1.429 . S
C509 H531 0.950 . S
C510 H506 0.949 . S
C510 C518 1.574 1_545 S
C510 C526 1.368 . S
H511 C519 0.950 . S
H512 C517 0.950 . S
H513 C518 0.949 . S
H514 C520 0.950 . S
H515 C521 0.950 . S
H516 C522 0.949 . S
C517 H512 0.950 . S
C517 C519 1.327 . S
C517 C523 1.429 . S
C518 C510 1.574 1_565 S
C518 H513 0.949 . S
C518 C524 1.368 . S
C519 C503 1.349 . S
C519 H511 0.950 . S
C519 C517 1.327 . S
C520 C508 1.349 . S
C520 H514 0.950 . S
C520 C521 1.327 . S
C521 H515 0.950 . S
C521 C520 1.327 . S
C521 C525 1.429 . S
C522 C505 1.574 1_545 S
C522 H516 0.949 . S
C522 C526 1.368 . S
C523 C504 1.429 . S
C523 C517 1.429 . S
C523 C524 1.523 . S
C524 C505 1.368 . S
C524 C518 1.368 . S
C524 C523 1.523 . S
C525 C509 1.429 . S
C525 C521 1.429 . S
C525 C526 1.523 . S
C526 C510 1.368 . S
C526 C522 1.368 . S
C526 C525 1.523 . S
H527 C502 0.950 . S
H528 C504 0.950 . S
H529 C505 0.949 . S
H530 C507 0.950 . S
H531 C509 0.950 . S
C532 C533 1.349 . S
C532 C534 1.327 . S
C532 H557 0.950 . S
C533 C532 1.349 . S
C533 C549 1.349 1_554 S
C534 C532 1.327 . S
C534 C553 1.429 . S
C534 H558 0.950 . S
C535 C552 1.574 . S
C535 C554 1.368 1_556 S
C535 H559 0.949 . S
H536 C540 0.949 . S
C537 C538 1.349 1_556 S
C537 C539 1.327 . S
C537 H560 0.950 . S
C538 C537 1.349 1_554 S
C538 C550 1.349 . S
C539 C537 1.327 . S
C539 C555 1.429 1_556 S
C539 H561 0.950 . S
C540 H536 0.949 . S
C540 C548 1.574 . S
C540 C556 1.368 . S
H541 C549 0.950 . S
H542 C547 0.950 . S
H543 C548 0.949 . S
H544 C550 0.950 . S
H545 C551 0.950 . S
H546 C552 0.949 . S
C547 H542 0.950 . S
C547 C549 1.327 . S
C547 C553 1.429 1_556 S
C548 C540 1.574 . S
C548 H543 0.949 . S
C548 C554 1.368 1_655 S
C549 C533 1.349 1_556 S
C549 H541 0.950 . S
C549 C547 1.327 . S
C550 C538 1.349 . S
C550 H544 0.950 . S
C550 C551 1.327 . S
C551 H545 0.950 . S
C551 C550 1.327 . S
C551 C555 1.429 . S
C552 C535 1.574 . S
C552 H546 0.949 . S
C552 C556 1.368 1_456 S
C553 C534 1.429 . S
C553 C547 1.429 1_554 S
C553 C554 1.523 . S
C554 C535 1.368 1_554 S
C554 C548 1.368 1_455 S
C554 C553 1.523 . S
C555 C539 1.429 1_554 S
C555 C551 1.429 . S
C555 C556 1.523 . S
C556 C540 1.368 . S
C556 C552 1.368 1_654 S
C556 C555 1.523 . S
H557 C532 0.950 . S
H558 C534 0.950 . S
H559 C535 0.949 . S
H560 C537 0.950 . S
H561 C539 0.950 . S
C562 C563 1.349 . S
C562 C564 1.327 . S
C562 H587 0.950 . S
C563 C562 1.349 . S
C563 C579 1.349 . S
C564 C562 1.327 . S
C564 C583 1.429 . S
C564 H588 0.950 . S
C565 C582 1.574 . S
C565 C584 1.368 1_655 S
C565 H589 0.949 . S
H566 C570 0.949 . S
C567 C568 1.349 . S
C567 C569 1.327 . S
C567 H590 0.950 . S
C568 C567 1.349 . S
C568 C580 1.349 . S
C569 C567 1.327 . S
C569 C585 1.429 . S
C569 H591 0.950 . S
C570 H566 0.949 . S
C570 C578 1.574 . S
C570 C586 1.368 1_455 S
H571 C579 0.950 . S
H572 C577 0.950 . S
H573 C578 0.949 . S
H574 C580 0.950 . S
H575 C581 0.950 . S
H576 C582 0.949 . S
C577 H572 0.950 . S
C577 C579 1.327 . S
C577 C583 1.429 . S
C578 C570 1.574 . S
C578 H573 0.949 . S
C578 C584 1.368 . S
C579 C563 1.349 . S
C579 H571 0.950 . S
C579 C577 1.327 . S
C580 C568 1.349 . S
C580 H574 0.950 . S
C580 C581 1.327 . S
C581 H575 0.950 . S
C581 C580 1.327 . S
C581 C585 1.429 . S
C582 C565 1.574 . S
C582 H576 0.949 . S
C582 C586 1.368 . S
C583 C564 1.429 . S
C583 C577 1.429 . S
C583 C584 1.523 . S
C584 C565 1.368 1_455 S
C584 C578 1.368 . S
C584 C583 1.523 . S
C585 C569 1.429 . S
C585 C581 1.429 . S
C585 C586 1.523 . S
C586 C570 1.368 1_655 S
C586 C582 1.368 . S
C586 C585 1.523 . S
H587 C562 0.950 . S
H588 C564 0.950 . S
H589 C565 0.949 . S
H590 C567 0.950 . S
H591 C569 0.950 . S
C113 C78 1.462 . S
C118 C8 1.462 . S
C143 C64 1.462 . S
C148 C22 1.462 . S
C173 C106 1.462 . S
C178 C36 1.462 . S
C203 C92 1.462 . S
C208 C50 1.462 . S
C233 C7 1.369 . S
C238 C35 1.369 . S
C263 C21 1.369 . S
C268 C49 1.369 . S
C293 C27 1.302 . S
C298 C55 1.302 . S
C323 C13 1.302 . S
C328 C41 1.302 . S
C353 C63 1.369 . S
C358 C91 1.369 . S
C383 C105 1.369 . S
C388 C77 1.369 . S
C413 C111 1.302 . S
C418 C83 1.302 . S
C443 C69 1.302 . S
C448 C97 1.302 . S
C473 C25 1.511 . S
C478 C11 1.511 . S
C503 C39 1.511 . S
C508 C53 1.511 . S
C533 C67 1.511 . S
C538 C81 1.511 . S
C563 C95 1.511 . S
C568 C109 1.511 . S
