# Generated by pormake.
# Topology uof, (4)-cn, num edge types: 1
# Building blocks:
#     Node 0, Type 0, BuildingBlock: QUQFOY_clean_sbu_3, # of connection points: 4
#     Node 1, Type 0, BuildingBlock: QUQFOY_clean_sbu_3, # of connection points: 4
#     Node 2, Type 0, BuildingBlock: QUQFOY_clean_sbu_3, # of connection points: 4
#     Node 3, Type 0, BuildingBlock: QUQFOY_clean_sbu_3, # of connection points: 4
#     Node 4, Type 0, BuildingBlock: QUQFOY_clean_sbu_3, # of connection points: 4
#     Node 5, Type 0, BuildingBlock: QUQFOY_clean_sbu_3, # of connection points: 4
#     Node 6, Type 0, BuildingBlock: QUQFOY_clean_sbu_3, # of connection points: 4
#     Node 7, Type 0, BuildingBlock: QUQFOY_clean_sbu_3, # of connection points: 4
#     Node 8, Type 0, BuildingBlock: QUQFOY_clean_sbu_3, # of connection points: 4
#     Node 9, Type 0, BuildingBlock: QUQFOY_clean_sbu_3, # of connection points: 4
#     Node 10, Type 0, BuildingBlock: QUQFOY_clean_sbu_3, # of connection points: 4
#     Node 11, Type 0, BuildingBlock: QUQFOY_clean_sbu_3, # of connection points: 4
#     Edge 12, Type (0, 0), BuildingBlock: TEMPAE_clean_linker_10, # of connection points: 2
#     Edge 13, Type (0, 0), BuildingBlock: TEMPAE_clean_linker_10, # of connection points: 2
#     Edge 14, Type (0, 0), BuildingBlock: TEMPAE_clean_linker_10, # of connection points: 2
#     Edge 15, Type (0, 0), BuildingBlock: TEMPAE_clean_linker_10, # of connection points: 2
#     Edge 16, Type (0, 0), BuildingBlock: TEMPAE_clean_linker_10, # of connection points: 2
#     Edge 17, Type (0, 0), BuildingBlock: TEMPAE_clean_linker_10, # of connection points: 2
#     Edge 18, Type (0, 0), BuildingBlock: TEMPAE_clean_linker_10, # of connection points: 2
#     Edge 19, Type (0, 0), BuildingBlock: TEMPAE_clean_linker_10, # of connection points: 2
#     Edge 20, Type (0, 0), BuildingBlock: TEMPAE_clean_linker_10, # of connection points: 2
#     Edge 21, Type (0, 0), BuildingBlock: TEMPAE_clean_linker_10, # of connection points: 2
#     Edge 22, Type (0, 0), BuildingBlock: TEMPAE_clean_linker_10, # of connection points: 2
#     Edge 23, Type (0, 0), BuildingBlock: TEMPAE_clean_linker_10, # of connection points: 2
#     Edge 24, Type (0, 0), BuildingBlock: TEMPAE_clean_linker_10, # of connection points: 2
#     Edge 25, Type (0, 0), BuildingBlock: TEMPAE_clean_linker_10, # of connection points: 2
#     Edge 26, Type (0, 0), BuildingBlock: TEMPAE_clean_linker_10, # of connection points: 2
#     Edge 27, Type (0, 0), BuildingBlock: TEMPAE_clean_linker_10, # of connection points: 2
#     Edge 28, Type (0, 0), BuildingBlock: TEMPAE_clean_linker_10, # of connection points: 2
#     Edge 29, Type (0, 0), BuildingBlock: TEMPAE_clean_linker_10, # of connection points: 2
#     Edge 30, Type (0, 0), BuildingBlock: TEMPAE_clean_linker_10, # of connection points: 2
#     Edge 31, Type (0, 0), BuildingBlock: TEMPAE_clean_linker_10, # of connection points: 2
#     Edge 32, Type (0, 0), BuildingBlock: TEMPAE_clean_linker_10, # of connection points: 2
#     Edge 33, Type (0, 0), BuildingBlock: TEMPAE_clean_linker_10, # of connection points: 2
#     Edge 34, Type (0, 0), BuildingBlock: TEMPAE_clean_linker_10, # of connection points: 2
#     Edge 35, Type (0, 0), BuildingBlock: TEMPAE_clean_linker_10, # of connection points: 2
# Relax obj value: 0.202
# Max RMSD: 0.145
# Mean RMSD: 0.145
data_MOF--net-uof--node1-QUQFOY_clean_sbu_3--edge1-TEMPAE_clean_linker_10
_symmetry_space_group_name_H-M    P1
_symmetry_Int_Tables_number       1
_symmetry_cell_setting            triclinic
loop_
_symmetry_equiv_pos_as_xyz
'x, y, z'
_cell_length_a     34.229044
_cell_length_b     34.238209
_cell_length_c     67.526697
_cell_angle_alpha  90.079555
_cell_angle_beta   89.869248
_cell_angle_gamma 119.94028
loop_
_atom_site_label
_atom_site_type_symbol
_atom_site_fract_x
_atom_site_fract_y
_atom_site_fract_z
_atom_type_partial_charge
C0 C 0.21945 0.25467 0.23776 0.0
O1 O 0.23189 0.23183 0.22744 0.0
Cd2 Cd 0.2404 0.23206 0.19297 0.0
O3 O 0.20732 0.28073 0.22956 0.0
Cd4 Cd 0.19721 0.29701 0.19341 0.0
C5 C 0.30972 0.34751 0.18594 0.0
O6 O 0.17225 0.22333 0.18126 0.0
O7 O 0.20775 0.27513 0.15972 0.0
O8 O 0.11859 0.27739 0.19772 0.0
C9 C 0.18349 0.23346 0.16342 0.0
O10 O 0.3021 0.30711 0.18507 0.0
C11 C 0.11895 0.30522 0.18522 0.0
O12 O 0.27829 0.35593 0.19044 0.0
O13 O 0.15755 0.33456 0.1787 0.0
C14 C 0.94392 0.25646 0.57202 0.0
O15 O -0.01994 0.27674 0.56201 0.0
Cd16 Cd -0.00912 0.26825 0.52852 0.0
O17 O 0.90621 0.22972 0.56359 0.0
Cd18 Cd 0.88841 0.21163 0.52666 0.0
C19 C 0.93618 0.32187 0.5133 0.0
O20 O 0.94277 0.18918 0.52569 0.0
O21 O 0.93931 0.2189 0.49832 0.0
O22 O 0.82994 0.13193 0.53075 0.0
C23 C 0.95566 0.19868 0.50802 0.0
O24 O 0.97195 0.31939 0.51222 0.0
C25 C 0.80715 0.12916 0.51547 0.0
O26 O 0.89971 0.28875 0.52002 0.0
O27 O 0.81825 0.16614 0.50672 0.0
C28 C 0.67887 0.94662 0.9082 0.0
O29 O 0.69158 -0.01445 0.90122 0.0
Cd30 Cd 0.70097 0.01001 0.86845 0.0
O31 O 0.6663 0.91205 0.89697 0.0
Cd32 Cd 0.65941 0.89896 0.85935 0.0
C33 C 0.59073 0.94443 0.85276 0.0
O34 O 0.72897 0.96428 0.85775 0.0
O35 O 0.70034 0.94439 0.8289 0.0
O36 O 0.68994 0.84768 0.86202 0.0
C37 C 0.7339 0.97065 0.83944 0.0
O38 O 0.62593 0.98238 0.85573 0.0
C39 C 0.66736 0.82139 0.848 0.0
O40 O 0.59109 0.9074 0.85472 0.0
O41 O 0.63683 0.82766 0.84054 0.0
C42 C 0.69358 0.66755 0.24022 0.0
O43 O 0.66929 0.68032 0.23132 0.0
Cd44 Cd 0.67292 0.70323 0.1985 0.0
O45 O 0.7231 0.66186 0.23087 0.0
Cd46 Cd 0.74125 0.66602 0.19379 0.0
C47 C 0.63079 0.59736 0.18085 0.0
O48 O 0.7511 0.73843 0.19381 0.0
O49 O 0.73568 0.70968 0.16482 0.0
O50 O 0.8228 0.69543 0.1976 0.0
C51 C 0.74759 0.74404 0.17569 0.0
O52 O 0.62826 0.63316 0.18112 0.0
C53 C 0.82725 0.67385 0.1833 0.0
O54 O 0.66646 0.59759 0.18664 0.0
O55 O 0.79092 0.64426 0.17517 0.0
C56 C -0.00491 0.7198 0.56654 0.0
O57 O 0.9624 0.70649 0.55455 0.0
Cd58 Cd 0.96388 0.7117 0.52003 0.0
O59 O 0.03592 0.73947 0.56015 0.0
Cd60 Cd 0.06738 0.75735 0.52464 0.0
C61 C 0.01346 0.64655 0.51312 0.0
O62 O 0.0214 0.78725 0.51485 0.0
O63 O 0.02962 0.74778 0.49223 0.0
O64 O 0.12757 0.83528 0.53059 0.0
C65 C 0.01555 0.77444 0.49705 0.0
O66 O -0.01963 0.65304 0.51031 0.0
C67 C 0.15375 0.83659 0.51692 0.0
O68 O 0.05075 0.67803 0.52006 0.0
O69 O 0.14346 0.79898 0.50893 0.0
C70 C 0.24079 0.00013 0.90146 0.0
O71 O 0.22027 0.96732 0.8896 0.0
Cd72 Cd 0.22329 0.96688 0.855 0.0
O73 O 0.26613 0.04028 0.89489 0.0
Cd74 Cd 0.2858 0.07341 0.85977 0.0
C75 C 0.33932 0.01464 0.85121 0.0
O76 O 0.21364 0.02747 0.8458 0.0
O77 O 0.26764 0.0454 0.82524 0.0
O78 O 0.26562 0.13171 0.86535 0.0
C79 C 0.22566 0.02847 0.82808 0.0
O80 O 0.29947 0.98202 0.84843 0.0
C81 C 0.2944 0.16058 0.85352 0.0
O82 O 0.34614 0.0531 0.85712 0.0
O83 O 0.32446 0.15224 0.84706 0.0
C84 C 0.66657 0.70409 0.38621 0.0
O85 O 0.6824 0.6843 0.39655 0.0
Cd86 Cd 0.70199 0.69481 0.43 0.0
O87 O 0.65608 0.73174 0.39417 0.0
Cd88 Cd 0.6566 0.75166 0.43086 0.0
C89 C 0.59298 0.64122 0.44362 0.0
O90 O 0.7333 0.77438 0.43131 0.0
O91 O 0.70114 0.74633 0.45912 0.0
O92 O 0.67428 0.83045 0.42624 0.0
C93 C 0.73744 0.76679 0.44917 0.0
O94 O 0.63097 0.64363 0.44595 0.0
C95 C 0.65601 0.83317 0.4422 0.0
O96 O 0.59071 0.67459 0.4365 0.0
O97 O 0.63256 0.79639 0.45152 0.0
C98 C 0.93032 0.6699 0.71171 0.0
O99 O 0.97015 0.68387 0.71782 0.0
Cd100 Cd -0.00026 0.70956 0.7495 0.0
O101 O 0.8984 0.66388 0.72355 0.0
Cd102 Cd 0.89345 0.66851 0.76117 0.0
C103 C 0.94454 0.60601 0.77118 0.0
O104 O 0.95606 0.74162 0.75892 0.0
O105 O 0.943 0.71716 0.7887 0.0
O106 O 0.83648 0.69225 0.75874 0.0
C107 C 0.96466 0.75001 0.777 0.0
O108 O -0.01859 0.64189 0.76748 0.0
C109 C 0.81465 0.67255 0.7743 0.0
O110 O 0.9065 0.60374 0.76831 0.0
O111 O 0.82596 0.64642 0.78266 0.0
C112 C 0.2315 0.93544 0.04623 0.0
O113 O 0.25715 0.97571 0.05187 0.0
Cd114 Cd 0.27018 0.00536 0.08393 0.0
O115 O 0.21003 0.90311 0.05858 0.0
Cd116 Cd 0.20624 0.89698 0.09645 0.0
C117 C 0.32124 0.9482 0.1023 0.0
O118 O 0.19676 0.95996 0.0955 0.0
O119 O 0.20933 0.94619 0.12491 0.0
O120 O 0.1257 0.83929 0.09446 0.0
C121 C 0.19851 0.96876 0.11361 0.0
O122 O 0.32172 -0.01525 0.09838 0.0
C123 C 0.12412 0.81845 0.11025 0.0
O124 O 0.2849 0.91001 0.10107 0.0
O125 O 0.1618 0.83056 0.11854 0.0
C126 C 0.25179 0.22683 0.38468 0.0
O127 O 0.23042 0.24147 0.39471 0.0
Cd128 Cd 0.22989 0.25044 0.42902 0.0
O129 O 0.27629 0.21314 0.39319 0.0
Cd130 Cd 0.29109 0.20379 0.42976 0.0
C131 C 0.34526 0.31678 0.43688 0.0
O132 O 0.21687 0.18048 0.4405 0.0
O133 O 0.26648 0.21514 0.46294 0.0
O134 O 0.26848 0.12417 0.4261 0.0
C135 C 0.2252 0.19105 0.45847 0.0
O136 O 0.30531 0.31047 0.43731 0.0
C137 C 0.29518 0.12333 0.43888 0.0
O138 O 0.35248 0.28437 0.43278 0.0
O139 O 0.32537 0.16151 0.4454 0.0
C140 C 0.01229 0.27593 0.71744 0.0
O141 O -0.02403 0.25693 0.72735 0.0
Cd142 Cd 0.96532 0.24482 0.76158 0.0
O143 O 0.05087 0.29277 0.7259 0.0
Cd144 Cd 0.07327 0.3005 0.76243 0.0
C145 C 0.01814 0.35778 0.77251 0.0
O146 O 0.0194 0.22585 0.77161 0.0
O147 O 0.03507 0.27435 0.79473 0.0
O148 O 0.12973 0.27681 0.7594 0.0
C149 C 0.01589 0.23329 0.78962 0.0
O150 O -0.01669 0.31874 0.77347 0.0
C151 C 0.15691 0.30363 0.77227 0.0
O152 O 0.05626 0.36305 0.7669 0.0
O153 O 0.14883 0.33396 0.77857 0.0
C154 C 0.73206 0.00927 0.05342 0.0
O155 O 0.7178 0.97461 0.06429 0.0
Cd156 Cd 0.70905 0.96925 0.09871 0.0
O157 O 0.74618 0.04843 0.06102 0.0
Cd158 Cd 0.75687 0.07714 0.0968 0.0
C159 C 0.64403 0.02085 0.10333 0.0
O160 O 0.77868 0.02699 0.11 0.0
O161 O 0.74173 0.04392 0.13053 0.0
O162 O 0.83673 0.13254 0.09296 0.0
C163 C 0.76538 0.02546 0.12752 0.0
O164 O 0.64961 -0.01306 0.10528 0.0
C165 C 0.83756 0.16181 0.10478 0.0
O166 O 0.67686 0.05954 0.09843 0.0
O167 O 0.79938 0.15518 0.11072 0.0
C168 C 0.88212 0.22675 0.12828 0.0
C169 C 0.88087 0.19613 0.11407 0.0
C170 C 0.92097 0.25271 0.1399 0.0
C171 C 0.95915 0.24715 0.13765 0.0
C172 C 0.95878 0.21801 0.12263 0.0
C173 C 0.92006 0.19342 0.11094 0.0
C174 C 0.92029 0.28439 0.15526 0.0
C175 C -0.00174 0.21038 0.11975 0.0
C176 C 0.07657 0.32264 0.15936 0.0
C177 C 0.0761 0.29722 0.17577 0.0
C178 C 0.03776 0.30863 0.14757 0.0
C179 C -0.00233 0.26781 0.15207 0.0
C180 C -0.00375 0.24374 0.16937 0.0
C181 C 0.03517 0.2589 0.18105 0.0
C182 C 0.04055 0.33611 0.12963 0.0
C183 C 0.95456 0.19995 0.17478 0.0
H184 H 0.85216 0.2292 0.13088 0.0
H185 H 0.91967 0.16987 0.10009 0.0
H186 H 0.9167 0.26956 0.17021 0.0
H187 H 0.95243 0.31702 0.15504 0.0
H188 H 0.8919 0.29085 0.15292 0.0
H189 H -0.00625 0.18853 0.10677 0.0
H190 H 0.02984 0.24299 0.1177 0.0
H191 H 0.00254 0.19421 0.13317 0.0
H192 H 0.10787 0.35228 0.15509 0.0
H193 H 0.03418 0.23891 0.19367 0.0
H194 H 0.00984 0.33913 0.12839 0.0
H195 H 0.04266 0.31894 0.11606 0.0
H196 H 0.07061 0.37043 0.13012 0.0
H197 H 0.92453 0.20424 0.17499 0.0
H198 H 0.95761 0.18713 0.18947 0.0
H199 H 0.94857 0.17405 0.16344 0.0
C200 C 0.77994 0.04696 0.51072 0.0
C201 C 0.77519 0.08452 0.50645 0.0
C202 C 0.75606 0.00636 0.50007 0.0
C203 C 0.72527 0.0023 0.48509 0.0
C204 C 0.71835 0.03924 0.48148 0.0
C205 C 0.74396 0.08013 0.49191 0.0
C206 C 0.76564 0.9686 0.50417 0.0
C207 C 0.68478 0.03602 0.4662 0.0
C208 C 0.70608 0.91717 0.44424 0.0
C209 C 0.66821 0.87778 0.45121 0.0
C210 C 0.72394 0.95815 0.45472 0.0
C211 C 0.70295 0.96048 0.47247 0.0
C212 C 0.66298 0.92159 0.47889 0.0
C213 C 0.64647 0.88066 0.46837 0.0
C214 C 0.76702 -0.00176 0.44741 0.0
C215 C 0.63865 0.92268 0.49736 0.0
H216 H 0.80435 0.05003 0.52171 0.0
H217 H 0.74006 0.1089 0.48845 0.0
H218 H 0.73397 0.9372 0.50787 0.0
H219 H 0.77987 0.96171 0.4907 0.0
H220 H 0.78981 0.97663 0.51655 0.0
H221 H 0.679 0.06516 0.46693 0.0
H222 H 0.69725 0.03481 0.45116 0.0
H223 H 0.65207 0.00448 0.46827 0.0
H224 H 0.72349 0.91544 0.43113 0.0
H225 H 0.61725 0.85055 0.47394 0.0
H226 H 0.79432 0.00678 0.45833 0.0
H227 H 0.76272 0.02813 0.44599 0.0
H228 H 0.77796 -0.00822 0.43286 0.0
H229 H 0.65887 0.92506 0.51059 0.0
H230 H 0.60491 0.89204 0.49881 0.0
H231 H 0.63449 0.95282 0.49733 0.0
C232 C 0.72337 0.79525 0.84335 0.0
C233 C 0.68087 0.78996 0.839 0.0
C234 C 0.74048 0.77148 0.83284 0.0
C235 C 0.71415 0.74056 0.81783 0.0
C236 C 0.67016 0.73315 0.81411 0.0
C237 C 0.6543 0.75834 0.82452 0.0
C238 C 0.78782 0.7813 0.83715 0.0
C239 C 0.64039 0.69966 0.79867 0.0
C240 C 0.78135 0.72311 0.77704 0.0
C241 C 0.78278 0.68499 0.78371 0.0
C242 C 0.75789 0.74051 0.78761 0.0
C243 C 0.73427 0.71888 0.80518 0.0
C244 C 0.73332 0.67882 0.81136 0.0
C245 C 0.75795 0.66267 0.80072 0.0
C246 C 0.76061 0.78363 0.78054 0.0
C247 C 0.70771 0.65397 0.82968 0.0
H248 H 0.74444 0.81979 0.85436 0.0
H249 H 0.62146 0.75394 0.82102 0.0
H250 H 0.78781 0.74964 0.84062 0.0
H251 H 0.80929 0.79617 0.82384 0.0
H252 H 0.80337 0.80503 0.84973 0.0
H253 H 0.60536 0.69362 0.79924 0.0
H254 H 0.65437 0.71235 0.78371 0.0
H255 H 0.63948 0.66705 0.80071 0.0
H256 H 0.80055 0.74089 0.76402 0.0
H257 H 0.75875 0.63323 0.80604 0.0
H258 H 0.77885 0.81064 0.79165 0.0
H259 H 0.72633 0.77906 0.77901 0.0
H260 H 0.77834 0.7951 0.7661 0.0
H261 H 0.72498 0.67412 0.84302 0.0
H262 H 0.70518 0.62046 0.83106 0.0
H263 H 0.6732 0.64928 0.82952 0.0
C264 C 0.90812 0.73198 0.17756 0.0
C265 C 0.87254 0.68778 0.17464 0.0
C266 C 0.94912 0.7488 0.16719 0.0
C267 C 0.95565 0.72043 0.15392 0.0
C268 C 0.92077 0.67498 0.15171 0.0
C269 C 0.87938 0.65944 0.16179 0.0
C270 C -0.01536 0.79774 0.16973 0.0
C271 C 0.92671 0.64309 0.13827 0.0
C272 C 0.03974 0.78155 0.11214 0.0
C273 C 0.08012 0.7868 0.11994 0.0
C274 C -0.00117 0.75857 0.12268 0.0
C275 C -0.00228 0.73957 0.14146 0.0
C276 C 0.0378 0.74243 0.1489 0.0
C277 C 0.07851 0.76627 0.13816 0.0
C278 C 0.95729 0.75695 0.11417 0.0
C279 C 0.03813 0.72192 0.16862 0.0
H280 H 0.9031 0.7544 0.18724 0.0
H281 H 0.85215 0.62528 0.15941 0.0
H282 H 0.01712 0.80063 0.17421 0.0
H283 H -0.00961 0.81565 0.15539 0.0
H284 H -0.02506 0.81509 0.18097 0.0
H285 H 0.8989 0.60773 0.13995 0.0
H286 H 0.92775 0.65337 0.12262 0.0
H287 H 0.9592 0.6445 0.14141 0.0
H288 H 0.04041 0.79731 0.09814 0.0
H289 H 0.10938 0.77006 0.14438 0.0
H290 H 0.94692 0.77655 0.12378 0.0
H291 H 0.92885 0.72176 0.11382 0.0
H292 H 0.96298 0.771 0.09894 0.0
H293 H 0.03394 0.74148 0.18072 0.0
H294 H 0.07007 0.72167 0.17112 0.0
H295 H 0.00951 0.68686 0.16961 0.0
C296 C 0.31303 0.07844 0.46337 0.0
C297 C 0.28543 0.07986 0.44834 0.0
C298 C 0.29923 0.0391 0.47481 0.0
C299 C 0.2563 0.00055 0.47153 0.0
C300 C 0.22929 0.00127 0.45581 0.0
C301 C 0.24435 0.04049 0.44433 0.0
C302 C 0.32978 0.03952 0.49097 0.0
C303 C 0.18304 0.96146 0.45184 0.0
C304 C 0.21505 0.88202 0.49197 0.0
C305 C 0.18809 0.88051 0.50802 0.0
C306 C 0.24012 0.92182 0.48079 0.0
C307 C 0.23748 0.96088 0.48541 0.0
C308 C 0.2124 0.96022 0.50227 0.0
C309 C 0.18855 0.92038 0.51344 0.0
C310 C 0.26746 0.92126 0.46335 0.0
C311 C 0.20797 0.00063 0.50774 0.0
H312 H 0.34476 0.10854 0.46667 0.0
H313 H 0.2225 0.04101 0.43287 0.0
H314 H 0.31599 0.04127 0.50561 0.0
H315 H 0.33151 0.00801 0.49064 0.0
H316 H 0.36447 0.06878 0.48962 0.0
H317 H 0.167 0.96651 0.43856 0.0
H318 H 0.18515 0.93045 0.4497 0.0
H319 H 0.16085 0.95573 0.46482 0.0
H320 H 0.21507 0.85156 0.4876 0.0
H321 H 0.16782 0.9198 0.52572 0.0
H322 H 0.30097 0.95239 0.46305 0.0
H323 H 0.2499 0.92017 0.4494 0.0
H324 H 0.27238 0.89155 0.46368 0.0
H325 H 0.24169 0.03126 0.50879 0.0
H326 H 0.19004 -0.00405 0.52204 0.0
H327 H 0.18904 0.00673 0.49598 0.0
C328 C 0.24705 0.19688 0.84894 0.0
C329 C 0.28666 0.19593 0.84442 0.0
C330 C 0.23257 0.22124 0.83724 0.0
C331 C 0.25866 0.24619 0.82072 0.0
C332 C 0.3006 0.2485 0.81706 0.0
C333 C 0.3139 0.22307 0.82882 0.0
C334 C 0.18753 0.21738 0.84174 0.0
C335 C 0.33018 0.27565 0.8 0.0
C336 C 0.18899 0.25301 0.77832 0.0
C337 C 0.19037 0.29406 0.78207 0.0
C338 C 0.21259 0.23808 0.79025 0.0
C339 C 0.2393 0.26518 0.80618 0.0
C340 C 0.24359 0.30818 0.80914 0.0
C341 C 0.21869 0.32189 0.79723 0.0
C342 C 0.20647 0.19182 0.78655 0.0
C343 C 0.27269 0.33881 0.82552 0.0
H344 H 0.22561 0.17614 0.86091 0.0
H345 H 0.34455 0.22271 0.82513 0.0
H346 H 0.19088 0.25127 0.84248 0.0
H347 H 0.16349 0.19858 0.82964 0.0
H348 H 0.17293 0.19959 0.85592 0.0
H349 H 0.36475 0.28065 0.80122 0.0
H350 H 0.31522 0.25784 0.78589 0.0
H351 H 0.33246 0.3091 0.79922 0.0
H352 H 0.1672 0.23106 0.76673 0.0
H353 H 0.22012 0.35365 0.8003 0.0
H354 H 0.18871 0.16955 0.79933 0.0
H355 H 0.23969 0.19379 0.78518 0.0
H356 H 0.18668 0.17595 0.77293 0.0
H357 H 0.256 0.32541 0.84001 0.0
H358 H 0.27858 0.37362 0.82384 0.0
H359 H 0.30574 0.34012 0.82587 0.0
C360 C 0.55777 0.55417 0.16314 0.0
C361 C 0.58841 0.55476 0.17707 0.0
C362 C 0.51285 0.51888 0.16271 0.0
C363 C 0.49787 0.48389 0.1769 0.0
C364 C 0.5293 0.48302 0.19029 0.0
C365 C 0.57441 0.5183 0.19007 0.0
C366 C 0.48087 0.52042 0.14778 0.0
C367 C 0.51465 0.44652 0.20574 0.0
C368 C 0.37395 0.42588 0.19201 0.0
C369 C 0.3566 0.38426 0.18238 0.0
C370 C 0.41993 0.45859 0.19038 0.0
C371 C 0.44891 0.4498 0.17846 0.0
C372 C 0.4311 0.40846 0.16814 0.0
C373 C 0.38536 0.37609 0.17038 0.0
C374 C 0.43775 0.5021 0.20181 0.0
C375 C 0.46047 0.39818 0.15491 0.0
H376 H 0.56851 0.58247 0.15313 0.0
H377 H 0.59779 0.51909 0.20108 0.0
H378 H 0.46121 0.48731 0.14031 0.0
H379 H 0.45648 0.52761 0.15547 0.0
H380 H 0.49884 0.54677 0.13635 0.0
H381 H 0.54366 0.44878 0.21408 0.0
H382 H 0.49144 0.44931 0.21641 0.0
H383 H 0.49589 0.41275 0.19877 0.0
H384 H 0.35201 0.43219 0.20144 0.0
H385 H 0.37206 0.34404 0.16277 0.0
H386 H 0.45304 0.53117 0.19149 0.0
H387 H 0.46467 0.50586 0.21209 0.0
H388 H 0.41099 0.50365 0.21052 0.0
H389 H 0.47748 0.42515 0.14367 0.0
H390 H 0.44095 0.36536 0.14715 0.0
H391 H 0.48724 0.39735 0.16381 0.0
C392 C 0.97089 0.57072 0.49724 0.0
C393 C 0.0055 0.60017 0.51002 0.0
C394 C 0.95778 0.52484 0.49607 0.0
C395 C -0.02067 0.50758 0.50818 0.0
C396 C 0.0152 0.53734 0.52071 0.0
C397 C 0.02812 0.58338 0.52137 0.0
C398 C 0.92009 0.49462 0.48222 0.0
C399 C 0.0389 0.52024 0.53394 0.0
C400 C 0.91775 0.38242 0.52131 0.0
C401 C 0.94044 0.36648 0.50942 0.0
C402 C 0.92946 0.42814 0.52081 0.0
C403 C 0.96411 0.45836 0.50787 0.0
C404 C -0.0149 0.44173 0.49498 0.0
C405 C 0.97333 0.39618 0.49605 0.0
C406 C 0.90638 0.44455 0.53486 0.0
C407 C 0.02135 0.47242 0.48062 0.0
H408 H 0.95332 0.58345 0.48836 0.0
H409 H 0.05449 0.60576 0.53143 0.0
H410 H 0.93125 0.4762 0.47229 0.0
H411 H 0.89098 0.46901 0.49088 0.0
H412 H 0.90852 0.51372 0.47298 0.0
H413 H 0.06653 0.54771 0.5426 0.0
H414 H 0.01431 0.49487 0.54441 0.0
H415 H 0.05319 0.50321 0.52495 0.0
H416 H 0.89283 0.35983 0.53188 0.0
H417 H -0.00899 0.38404 0.48682 0.0
H418 H 0.89225 0.46263 0.5266 0.0
H419 H 0.93137 0.46884 0.54551 0.0
H420 H 0.87876 0.41654 0.54333 0.0
H421 H 0.00945 0.4915 0.4716 0.0
H422 H 0.03165 0.45356 0.47049 0.0
H423 H 0.05147 0.49742 0.48893 0.0
C424 C 0.37134 0.9697 0.8365 0.0
C425 C 0.37704 0.00541 0.84872 0.0
C426 C 0.40417 0.95663 0.83545 0.0
C427 C 0.44349 0.97931 0.84715 0.0
C428 C 0.44991 0.01597 0.85926 0.0
C429 C 0.41677 0.02887 0.85976 0.0
C430 C 0.39647 0.91814 0.822 0.0
C431 C 0.49129 0.04085 0.87207 0.0
C432 C 0.51084 0.92184 0.86055 0.0
C433 C 0.54889 0.94522 0.84847 0.0
C434 C 0.47551 0.93168 0.85993 0.0
C435 C 0.47815 0.96502 0.84664 0.0
C436 C 0.51516 -0.01367 0.83347 0.0
C437 C 0.55033 0.97662 0.83475 0.0
C438 C 0.4368 0.90847 0.87432 0.0
C439 C 0.51876 0.02107 0.81871 0.0
H440 H 0.34079 0.95153 0.82783 0.0
H441 H 0.42117 0.05616 0.86937 0.0
H442 H 0.42523 0.92919 0.8116 0.0
H443 H 0.3946 0.89005 0.83091 0.0
H444 H 0.36493 0.90517 0.81327 0.0
H445 H 0.49109 0.06831 0.88076 0.0
H446 H 0.4935 0.01697 0.88247 0.0
H447 H 0.52208 0.05561 0.86272 0.0
H448 H 0.51015 0.89823 0.87142 0.0
H449 H 0.57998 -0.00508 0.82549 0.0
H450 H 0.40415 0.89366 0.86638 0.0
H451 H 0.43755 0.93355 0.88497 0.0
H452 H 0.43819 0.88137 0.88277 0.0
H453 H 0.48701 0.00798 0.81015 0.0
H454 H 0.54714 0.03094 0.80817 0.0
H455 H 0.52401 0.05168 0.82666 0.0
C456 C 0.55181 0.56583 0.45993 0.0
C457 C 0.55208 0.59636 0.44601 0.0
C458 C 0.5178 0.52027 0.45986 0.0
C459 C 0.48382 0.50449 0.44518 0.0
C460 C 0.48305 0.5355 0.43149 0.0
C461 C 0.51692 0.58119 0.43222 0.0
C462 C 0.51913 0.48874 0.47511 0.0
C463 C 0.44774 0.52002 0.41546 0.0
C464 C 0.42482 0.37971 0.43118 0.0
C465 C 0.38283 0.36335 0.44043 0.0
C466 C 0.45812 0.42558 0.43264 0.0
C467 C 0.4495 0.45548 0.44396 0.0
C468 C 0.40779 0.43861 0.45394 0.0
C469 C 0.37494 0.39299 0.45192 0.0
C470 C 0.502 0.44236 0.42159 0.0
C471 C 0.39749 0.46892 0.46649 0.0
H472 H 0.57904 0.57738 0.47057 0.0
H473 H 0.51743 0.60443 0.4212 0.0
H474 H 0.48602 0.46977 0.48268 0.0
H475 H 0.52578 0.46369 0.4677 0.0
H476 H 0.54563 0.50691 0.48644 0.0
H477 H 0.45101 0.54845 0.40631 0.0
H478 H 0.45073 0.49565 0.40561 0.0
H479 H 0.4135 0.50227 0.42207 0.0
H480 H 0.43096 0.35713 0.42214 0.0
H481 H 0.34263 0.38052 0.45923 0.0
H482 H 0.53076 0.45842 0.43203 0.0
H483 H 0.50619 0.46846 0.41072 0.0
H484 H 0.5037 0.41488 0.41359 0.0
H485 H 0.4242 0.48639 0.47779 0.0
H486 H 0.36443 0.45007 0.47416 0.0
H487 H 0.39715 0.49529 0.4571 0.0
C488 C 0.92227 0.52522 0.76618 0.0
C489 C 0.94778 0.56582 0.77641 0.0
C490 C 0.93346 0.49088 0.76715 0.0
C491 C 0.97039 0.49708 0.77896 0.0
C492 C -0.00593 0.53676 0.79041 0.0
C493 C -0.01714 0.57085 0.78879 0.0
C494 C 0.90763 0.44926 0.75455 0.0
C495 C 0.03274 0.54422 0.80362 0.0
C496 C -0.0207 0.39292 0.79003 0.0
C497 C 0.01161 0.39677 0.77614 0.0
C498 C 0.9666 0.42598 0.79155 0.0
C499 C -0.01418 0.46328 0.77851 0.0
C500 C 0.01939 0.46797 0.7648 0.0
C501 C 0.03231 0.43489 0.76395 0.0
C502 C 0.93169 0.4203 0.80674 0.0
C503 C 0.0403 0.50696 0.75046 0.0
H504 H 0.89571 0.52161 0.75632 0.0
H505 H 0.00276 0.60237 0.79665 0.0
H506 H 0.93032 0.44829 0.74303 0.0
H507 H 0.89549 0.41846 0.7637 0.0
H508 H 0.87825 0.44831 0.74712 0.0
H509 H 0.04433 0.57445 0.81318 0.0
H510 H 0.02274 0.51439 0.81321 0.0
H511 H 0.06155 0.54869 0.7944 0.0
H512 H 0.96319 0.3634 0.79947 0.0
H513 H 0.05672 0.43757 0.75298 0.0
H514 H 0.90071 0.41502 0.79916 0.0
H515 H 0.94435 0.4513 0.81583 0.0
H516 H 0.92258 0.39126 0.81674 0.0
H517 H 0.0137 0.5064 0.74089 0.0
H518 H 0.06619 0.50598 0.74086 0.0
H519 H 0.0562 0.53937 0.75865 0.0
C520 C 0.39619 -0.01282 0.11858 0.0
C521 C 0.36525 0.95179 0.10658 0.0
C522 C 0.44144 -0.00199 0.1197 0.0
C523 C 0.4565 0.97364 0.10809 0.0
C524 C 0.42499 0.93669 0.0965 0.0
C525 C 0.37951 0.92586 0.09605 0.0
C526 C 0.47348 0.03672 0.1327 0.0
C527 C 0.43979 0.9102 0.08373 0.0
C528 C 0.58085 0.03394 0.09345 0.0
C529 C 0.5977 0.0131 0.10588 0.0
C530 C 0.53488 0.0213 0.09396 0.0
C531 C 0.50546 -0.0121 0.10757 0.0
C532 C 0.52287 0.96821 0.1207 0.0
C533 C 0.56857 0.98062 0.11952 0.0
C534 C 0.5175 0.04266 0.07952 0.0
C535 C 0.49311 0.93354 0.13582 0.0
H536 H 0.3852 0.00741 0.12665 0.0
H537 H 0.35583 0.89908 0.08647 0.0
H538 H 0.49283 0.02623 0.14234 0.0
H539 H 0.49817 0.06491 0.12334 0.0
H540 H 0.45564 0.04939 0.14221 0.0
H541 H 0.41093 0.88126 0.07628 0.0
H542 H 0.46363 0.93262 0.07223 0.0
H543 H 0.45794 0.8973 0.09277 0.0
H544 H 0.60312 0.05858 0.08272 0.0
H545 H 0.58155 0.9645 0.12919 0.0
H546 H 0.50189 0.05959 0.08766 0.0
H547 H 0.49091 0.01622 0.07009 0.0
H548 H 0.54458 0.06781 0.06979 0.0
H549 H 0.47586 0.94713 0.14513 0.0
H550 H 0.51237 0.92321 0.14563 0.0
H551 H 0.46653 0.90315 0.12821 0.0
C552 C 0.19003 0.03455 0.10561 0.0
C553 C 0.19786 0.0095 0.1199 0.0
C554 C 0.18937 0.07365 0.11072 0.0
C555 C 0.19649 0.0879 0.13063 0.0
C556 C 0.20511 0.06331 0.14515 0.0
C557 C 0.20563 0.02409 0.13959 0.0
C558 C 0.18004 0.09911 0.0949 0.0
C559 C 0.21307 0.07807 0.16655 0.0
C560 C 0.22589 0.20697 0.14325 0.0
C561 C 0.18464 0.19955 0.1508 0.0
C562 C 0.23021 0.17087 0.13619 0.0
C563 C 0.1921 0.12701 0.13644 0.0
C564 C 0.14969 0.12008 0.14276 0.0
C565 C 0.14661 0.15657 0.15013 0.0
C566 C 0.27599 0.17918 0.1297 0.0
C567 C 0.10813 0.07383 0.14273 0.0
H568 H 0.18413 0.0235 0.09031 0.0
H569 H 0.21191 0.00488 0.15061 0.0
H570 H 0.14801 0.09852 0.09826 0.0
H571 H 0.20716 0.13495 0.09467 0.0
H572 H 0.17744 0.08462 0.0799 0.0
H573 H 0.22185 0.05669 0.17576 0.0
H574 H 0.24071 0.11359 0.16765 0.0
H575 H 0.18231 0.0765 0.1728 0.0
H576 H 0.25545 0.24026 0.14428 0.0
H577 H 0.11496 0.1512 0.15623 0.0
H578 H 0.27379 0.16366 0.11502 0.0
H579 H 0.28826 0.16312 0.14038 0.0
H580 H 0.30122 0.21569 0.12885 0.0
H581 H 0.10321 0.05806 0.1279 0.0
H582 H 0.07721 0.07492 0.14676 0.0
H583 H 0.11247 0.05177 0.15346 0.0
C584 C 0.01841 0.18458 0.51518 0.0
C585 C -0.0043 0.19688 0.50146 0.0
C586 C 0.05814 0.18511 0.51006 0.0
C587 C 0.07514 0.19752 0.49066 0.0
C588 C 0.05255 0.21002 0.47667 0.0
C589 C 0.01294 0.20972 0.48229 0.0
C590 C 0.08164 0.17194 0.52536 0.0
C591 C 0.06999 0.22323 0.45578 0.0
C592 C 0.19587 0.2296 0.47973 0.0
C593 C 0.18951 0.19014 0.4706 0.0
C594 C 0.1588 0.23241 0.48672 0.0
C595 C 0.11502 0.19461 0.4847 0.0
C596 C 0.10899 0.15384 0.47664 0.0
C597 C 0.14646 0.15225 0.46951 0.0
C598 C 0.16618 0.27642 0.49519 0.0
C599 C 0.06278 0.11263 0.47464 0.0
H600 H 0.00547 0.17498 0.53011 0.0
H601 H -0.00444 0.21951 0.47174 0.0
H602 H 0.08198 0.14117 0.52045 0.0
H603 H 0.11726 0.19906 0.52698 0.0
H604 H 0.06505 0.16527 0.54011 0.0
H605 H 0.04947 0.2338 0.44697 0.0
H606 H 0.10542 0.25131 0.45601 0.0
H607 H 0.0698 0.19437 0.44819 0.0
H608 H 0.22927 0.25913 0.48012 0.0
H609 H 0.14194 0.12199 0.46225 0.0
H610 H 0.14899 0.27075 0.50972 0.0
H611 H 0.15124 0.29106 0.48515 0.0
H612 H 0.20253 0.30137 0.49713 0.0
H613 H 0.04526 0.10381 0.48916 0.0
H614 H 0.06434 0.08293 0.469 0.0
H615 H 0.04202 0.11986 0.46431 0.0
C616 C 0.97127 0.15609 0.80229 0.0
C617 C -0.02287 0.19928 0.8005 0.0
C618 C 0.93019 0.12033 0.80879 0.0
C619 C 0.89404 0.1281 0.81282 0.0
C620 C 0.90011 0.17199 0.81132 0.0
C621 C 0.9421 0.20742 0.8054 0.0
C622 C 0.92518 0.07413 0.81094 0.0
C623 C 0.86189 0.18109 0.81515 0.0
C624 C 0.77942 0.02249 0.81185 0.0
C625 C 0.77287 0.01218 0.83205 0.0
C626 C 0.8181 0.0616 0.80531 0.0
C627 C 0.85047 0.09028 0.81936 0.0
C628 C 0.84307 0.08079 0.83976 0.0
C629 C 0.80438 0.04188 0.84584 0.0
C630 C 0.82503 0.07154 0.78341 0.0
C631 C 0.87693 0.11063 0.85515 0.0
H632 H -0.00148 0.15019 0.79813 0.0
H633 H 0.94667 0.24088 0.80338 0.0
H634 H 0.91399 0.06125 0.82619 0.0
H635 H 0.89896 0.05018 0.80062 0.0
H636 H 0.95716 0.0743 0.80784 0.0
H637 H 0.87274 0.21747 0.81391 0.0
H638 H 0.83442 0.16206 0.80435 0.0
H639 H 0.84756 0.16921 0.83014 0.0
H640 H 0.7549 -0.00024 0.80122 0.0
H641 H 0.79935 0.0344 0.86154 0.0
H642 H 0.85381 0.06795 0.77814 0.0
H643 H 0.83359 0.10683 0.78049 0.0
H644 H 0.79471 0.04851 0.77464 0.0
H645 H 0.90874 0.10986 0.85323 0.0
H646 H 0.86452 0.09989 0.87051 0.0
H647 H 0.88514 0.1461 0.85326 0.0
C648 C 0.71726 0.95313 0.14435 0.0
C649 C 0.7605 -0.01148 0.13989 0.0
C650 C 0.711 0.91142 0.15059 0.0
C651 C 0.74908 0.90592 0.15274 0.0
C652 C 0.793 0.94266 0.1495 0.0
C653 C 0.79812 -0.01648 0.14282 0.0
C654 C 0.6637 0.87265 0.15367 0.0
C655 C 0.83442 0.93821 0.15219 0.0
C656 C 0.74579 0.81353 0.18378 0.0
C657 C 0.74534 0.78386 0.16929 0.0
C658 C 0.74468 0.85231 0.17857 0.0
C659 C 0.74354 0.86188 0.15836 0.0
C660 C 0.74144 0.8314 0.1436 0.0
C661 C 0.7423 0.79243 0.14928 0.0
C662 C 0.74659 0.88391 0.19469 0.0
C663 C 0.7398 0.84075 0.12187 0.0
H664 H 0.68818 0.95695 0.14146 0.0
H665 H 0.83135 0.01098 0.13897 0.0
H666 H 0.65565 0.847 0.14195 0.0
H667 H 0.66085 0.85601 0.1681 0.0
H668 H 0.63817 0.88364 0.15314 0.0
H669 H 0.86614 0.97077 0.15005 0.0
H670 H 0.83466 0.9254 0.16725 0.0
H671 H 0.83385 0.91343 0.14142 0.0
H672 H 0.74743 0.80677 0.19934 0.0
H673 H 0.74151 0.76928 0.1381 0.0
H674 H 0.71919 0.89192 0.19271 0.0
H675 H 0.77904 0.91613 0.19374 0.0
H676 H 0.74359 0.86958 0.20973 0.0
H677 H 0.71263 0.84874 0.11904 0.0
H678 H 0.73403 0.81178 0.11241 0.0
H679 H 0.7721 0.87062 0.11738 0.0
C680 C 0.78423 0.75583 0.47451 0.0
C681 C 0.7804 0.77164 0.45594 0.0
C682 C 0.82431 0.75703 0.47996 0.0
C683 C 0.86086 0.77425 0.46643 0.0
C684 C 0.85725 0.79061 0.44778 0.0
C685 C 0.81716 0.78941 0.44281 0.0
C686 C 0.82748 0.73957 0.50007 0.0
C687 C 0.8956 0.80904 0.433 0.0
C688 C -0.02438 0.81519 0.48862 0.0
C689 C -0.01862 0.77796 0.48553 0.0
C690 C 0.93705 0.81501 0.48184 0.0
C691 C 0.90349 0.7764 0.47198 0.0
C692 C 0.91026 0.73966 0.46784 0.0
C693 C 0.94957 0.74103 0.47458 0.0
C694 C 0.93119 0.8551 0.48615 0.0
C695 C 0.87493 0.69798 0.45733 0.0
H696 H 0.7558 0.74194 0.48462 0.0
H697 H 0.8144 0.8017 0.42839 0.0
H698 H 0.83504 0.71179 0.49836 0.0
H699 H 0.85558 0.76674 0.50861 0.0
H700 H 0.79587 0.72698 0.50878 0.0
H701 H 0.88699 0.81997 0.41899 0.0
H702 H 0.92586 0.83824 0.43947 0.0
H703 H 0.90483 0.78302 0.42945 0.0
H704 H 0.00043 0.84364 0.49715 0.0
H705 H 0.95387 0.71199 0.47249 0.0
H706 H 0.90244 0.84503 0.49646 0.0
H707 H 0.92319 0.86717 0.47233 0.0
H708 H 0.96179 0.88352 0.49288 0.0
H709 H 0.84426 0.6807 0.46671 0.0
H710 H 0.88685 0.67385 0.45403 0.0
H711 H 0.86498 0.70724 0.44325 0.0
C712 C 0.14973 -0.00951 0.8138 0.0
C713 C 0.1928 -0.00447 0.81445 0.0
C714 C 0.11363 0.9516 0.80582 0.0
C715 C 0.12106 0.91692 0.79879 0.0
C716 C 0.16514 0.92316 0.79824 0.0
C717 C 0.20084 0.96289 0.80597 0.0
C718 C 0.06712 0.94636 0.8062 0.0
C719 C 0.17403 0.88657 0.79097 0.0
C720 C 0.02013 0.79954 0.80251 0.0
C721 C 0.00454 0.79237 0.78298 0.0
C722 C 0.05894 0.83976 0.8078 0.0
C723 C 0.08212 0.87322 0.79318 0.0
C724 C 0.06673 0.86591 0.77344 0.0
C725 C 0.02803 0.82558 0.76859 0.0
C726 C 0.07489 0.8467 0.82902 0.0
C727 C 0.0907 0.90098 0.75754 0.0
H728 H 0.14386 0.01586 0.82058 0.0
H729 H 0.23418 0.96664 0.80691 0.0
H730 H 0.05081 0.93536 0.7915 0.0
H731 H 0.0457 0.91995 0.81707 0.0
H732 H 0.06796 0.97818 0.81035 0.0
H733 H 0.21065 0.89871 0.78943 0.0
H734 H 0.15947 0.85808 0.80161 0.0
H735 H 0.15748 0.87327 0.77647 0.0
H736 H 0.00213 0.77379 0.8136 0.0
H737 H 0.01611 0.82016 0.75342 0.0
H738 H 0.07321 0.87562 0.83551 0.0
H739 H 0.11062 0.855 0.82963 0.0
H740 H 0.05435 0.81647 0.83833 0.0
H741 H 0.08965 0.93202 0.76124 0.0
H742 H 0.07537 0.88908 0.74269 0.0
H743 H 0.12671 0.91033 0.75677 0.0
C744 C 0.28266 0.23621 0.35003 0.0
C745 C 0.24673 0.22623 0.3629 0.0
C746 C 0.27873 0.24172 0.32957 0.0
C747 C 0.23772 0.23633 0.32191 0.0
C748 C 0.20096 0.22465 0.33482 0.0
C749 C 0.20603 0.22004 0.3551 0.0
C750 C 0.31871 0.25435 0.31623 0.0
C751 C 0.15631 0.21744 0.32726 0.0
C752 C 0.23412 0.28721 0.27214 0.0
C753 C 0.22018 0.25013 0.25952 0.0
C754 C 0.24078 0.28349 0.29248 0.0
C755 C 0.23241 0.24154 0.30033 0.0
C756 C 0.21695 0.20377 0.28767 0.0
C757 C 0.21141 0.20864 0.26746 0.0
C758 C 0.25758 0.32458 0.30553 0.0
C759 C 0.20639 0.15817 0.29546 0.0
H760 H 0.31427 0.24147 0.35604 0.0
H761 H 0.17799 0.21199 0.36498 0.0
H762 H 0.30951 0.22868 0.30442 0.0
H763 H 0.32872 0.28695 0.30883 0.0
H764 H 0.34818 0.25741 0.32445 0.0
H765 H 0.13075 0.2075 0.33923 0.0
H766 H 0.16099 0.24879 0.32027 0.0
H767 H 0.14289 0.19079 0.31573 0.0
H768 H 0.24151 0.31942 0.26599 0.0
H769 H 0.20044 0.17981 0.25773 0.0
H770 H 0.28958 0.33175 0.31275 0.0
H771 H 0.2328 0.3182 0.31747 0.0
H772 H 0.26344 0.3549 0.29711 0.0
H773 H 0.2369 0.16046 0.3023 0.0
H774 H 0.19425 0.13209 0.28366 0.0
H775 H 0.18019 0.14694 0.30717 0.0
C776 C -0.01362 0.30104 0.60136 0.0
C777 C 0.94852 0.26251 0.59379 0.0
C778 C -0.00245 0.30483 0.62146 0.0
C779 C 0.97005 0.26934 0.63449 0.0
C780 C 0.93048 0.23123 0.6272 0.0
C781 C 0.92009 0.22825 0.60687 0.0
C782 C 0.03966 0.34628 0.62861 0.0
C783 C 0.90008 0.19294 0.64076 0.0
C784 C 0.02458 0.26106 0.68233 0.0
C785 C 0.00773 0.27976 0.69597 0.0
C786 C 0.01219 0.25696 0.66222 0.0
C787 C -0.01705 0.27259 0.65574 0.0
C788 C 0.96728 0.29293 0.66945 0.0
C789 C -0.02049 0.29583 0.68941 0.0
C790 C 0.02937 0.23487 0.64802 0.0
C791 C 0.93695 0.31094 0.66313 0.0
H792 H 0.00837 0.32791 0.59138 0.0
H793 H 0.89107 0.19829 0.60109 0.0
H794 H 0.03135 0.36237 0.64093 0.0
H795 H 0.0639 0.33656 0.63444 0.0
H796 H 0.05655 0.37158 0.61667 0.0
H797 H 0.86962 0.16669 0.63301 0.0
H798 H 0.9189 0.17707 0.64687 0.0
H799 H 0.88924 0.20583 0.65347 0.0
H800 H 0.04556 0.24775 0.68753 0.0
H801 H 0.96619 0.30993 0.70008 0.0
H802 H 0.04847 0.25844 0.63581 0.0
H803 H 0.00051 0.20479 0.64124 0.0
H804 H 0.05158 0.22429 0.65539 0.0
H805 H 0.95355 0.33658 0.65133 0.0
H806 H 0.92836 0.32649 0.67562 0.0
H807 H 0.90523 0.28328 0.65685 0.0
C808 C 0.72215 0.02901 0.01864 0.0
C809 C 0.72987 0.00194 0.03175 0.0
C810 C 0.71348 0.01738 -0.00154 0.0
C811 C 0.71306 0.97814 -0.00867 0.0
C812 C 0.72251 0.95178 0.00441 0.0
C813 C 0.73066 0.96392 0.02441 0.0
C814 C 0.70377 0.04644 -0.01513 0.0
C815 C 0.72327 0.91026 -0.00264 0.0
C816 C 0.65114 0.92648 0.943 0.0
C817 C 0.68683 0.94513 0.92946 0.0
C818 C 0.65924 0.93607 0.96336 0.0
C819 C 0.70391 0.96515 0.97008 0.0
C820 C 0.74009 0.98225 0.95644 0.0
C821 C 0.73104 0.97205 0.93631 0.0
C822 C 0.61989 0.91687 -0.02245 0.0
C823 C 0.78817 0.01308 0.96293 0.0
H824 H 0.72111 0.05814 0.02427 0.0
H825 H 0.73698 0.94302 0.03446 0.0
H826 H 0.7281 0.05872 0.97237 0.0
H827 H 0.66956 0.02617 -0.02156 0.0
H828 H 0.70573 0.07598 -0.00735 0.0
H829 H 0.73182 0.89376 0.00941 0.0
H830 H 0.68983 0.88552 -0.00875 0.0
H831 H 0.74827 0.91924 -0.01475 0.0
H832 H 0.61691 0.9066 0.93758 0.0
H833 H 0.75848 -0.01293 0.92568 0.0
H834 H 0.61639 0.94465 -0.01584 0.0
H835 H 0.62592 0.89914 -0.01013 0.0
H836 H 0.58768 0.89295 0.97017 0.0
H837 H 0.79164 0.04489 0.96887 0.0
H838 H 0.81261 0.02151 0.95059 0.0
H839 H 0.79728 -0.00281 0.97501 0.0
C840 C 0.64565 0.64946 0.27007 0.0
C841 C 0.68838 0.66335 0.26194 0.0
C842 C 0.64015 0.65479 0.29025 0.0
C843 C 0.67839 0.67463 0.30269 0.0
C844 C 0.72146 0.68678 0.29479 0.0
C845 C 0.72596 0.68083 0.27443 0.0
C846 C 0.59358 0.64069 0.2981 0.0
C847 C 0.76296 0.70773 0.30769 0.0
C848 C 0.67049 0.72885 0.35083 0.0
C849 C 0.66347 0.69546 0.36463 0.0
C850 C 0.6754 0.72259 0.33054 0.0
C851 C 0.67291 0.68195 0.32402 0.0
C852 C 0.66406 0.64757 0.33784 0.0
C853 C 0.65941 0.65473 0.3579 0.0
C854 C 0.68448 0.75986 0.31614 0.0
C855 C 0.66049 0.60355 0.33153 0.0
H856 H 0.6165 0.63594 0.2604 0.0
H857 H 0.75908 0.69227 0.26813 0.0
H858 H 0.58522 0.61692 0.31064 0.0
H859 H 0.59263 0.6706 0.30381 0.0
H860 H 0.56714 0.62429 0.28657 0.0
H861 H 0.79364 0.71377 0.29947 0.0
H862 H 0.76855 0.74035 0.31364 0.0
H863 H 0.75814 0.68561 0.32054 0.0
H864 H 0.67412 0.7605 0.35598 0.0
H865 H 0.65366 0.6286 0.36849 0.0
H866 H 0.65847 0.747 0.30435 0.0
H867 H 0.71757 0.77171 0.30881 0.0
H868 H 0.68472 0.78903 0.32348 0.0
H869 H 0.63371 0.58681 0.32021 0.0
H870 H 0.65278 0.57996 0.34413 0.0
H871 H 0.69264 0.61003 0.32463 0.0
C872 C 0.93864 0.68102 0.59338 0.0
C873 C -0.01629 0.71073 0.58792 0.0
C874 C 0.92556 0.67185 0.61325 0.0
C875 C 0.95816 0.69301 0.62824 0.0
C876 C 0.00377 0.72304 0.62297 0.0
C877 C 0.01611 0.73139 0.60282 0.0
C878 C 0.87676 0.63921 0.61819 0.0
C879 C 0.03943 0.74644 0.63863 0.0
C880 C 0.9191 0.69997 0.6803 0.0
C881 C 0.9245 0.66703 0.69013 0.0
C882 C 0.92927 0.70842 0.66003 0.0
C883 C 0.94447 0.68276 0.64941 0.0
C884 C 0.94695 0.64738 0.65907 0.0
C885 C 0.93755 0.64039 0.6794 0.0
C886 C 0.92648 0.74663 0.65031 0.0
C887 C 0.96178 0.61842 0.64818 0.0
H888 H 0.91319 0.66444 0.58205 0.0
H889 H 0.05086 0.75442 0.59877 0.0
H890 H 0.87422 0.61059 0.62691 0.0
H891 H 0.86278 0.6561 0.62747 0.0
H892 H 0.85551 0.62559 0.60474 0.0
H893 H 0.07308 0.76961 0.63215 0.0
H894 H 0.02978 0.76603 0.6486 0.0
H895 H 0.04205 0.72108 0.64786 0.0
H896 H 0.91043 0.7215 0.68879 0.0
H897 H 0.94273 0.61565 0.68717 0.0
H898 H 0.9059 0.73473 0.63664 0.0
H899 H 0.96078 0.77338 0.6459 0.0
H900 H 0.91166 0.76166 0.66029 0.0
H901 H 0.94155 0.60435 0.63452 0.0
H902 H 0.95844 0.5901 0.65744 0.0
H903 H -0.00245 0.63928 0.64361 0.0
C904 C 0.24919 0.92173 0.01213 0.0
C905 C 0.22179 0.92969 0.02496 0.0
C906 C 0.25054 0.93107 -0.00823 0.0
C907 C 0.22475 0.94984 -0.01566 0.0
C908 C 0.19558 0.95601 -0.0028 0.0
C909 C 0.19437 0.94568 0.01735 0.0
C910 C 0.28133 0.92313 -0.02156 0.0
C911 C 0.16774 0.97614 -0.01005 0.0
C912 C 0.26456 0.02035 0.93712 0.0
C913 C 0.23571 -0.0105 0.92297 0.0
C914 C 0.2614 0.00794 0.9572 0.0
C915 C 0.22869 0.96374 0.9632 0.0
C916 C 0.19904 0.93287 0.94904 0.0
C917 C 0.20279 0.94613 0.92921 0.0
C918 C 0.29334 0.04192 0.97199 0.0
C919 C 0.16362 0.88556 0.95479 0.0
H920 H 0.27142 0.91073 0.01819 0.0
H921 H 0.17429 0.95314 0.02747 0.0
H922 H 0.26263 0.90333 0.96524 0.0
H923 H 0.30914 0.95592 0.97307 0.0
H924 H 0.29619 0.90496 -0.01386 0.0
H925 H 0.14494 0.97642 0.00162 0.0
H926 H 0.19041 0.01131 -0.015 0.0
H927 H 0.14711 0.95703 0.97702 0.0
H928 H 0.29012 0.05378 0.93246 0.0
H929 H 0.17998 0.92196 0.91848 0.0
H930 H 0.31388 0.02901 -0.02092 0.0
H931 H 0.27396 0.04703 -0.01609 0.0
H932 H 0.3164 0.07501 0.96505 0.0
H933 H 0.17991 0.86783 0.96162 0.0
H934 H 0.14331 0.8655 0.94193 0.0
H935 H 0.14049 0.88667 0.96602 0.0
loop_
_geom_bond_atom_site_label_1
_geom_bond_atom_site_label_2
_geom_bond_distance
_geom_bond_site_symmetry_2
_ccdc_geom_bond_type
C0 O1 1.306 . S
C0 O3 1.160 . S
O1 C0 1.306 . S
O1 Cd2 2.228 . S
Cd2 O1 2.228 . S
Cd2 O6 2.273 . S
Cd2 O10 2.277 . S
O3 C0 1.160 . S
O3 Cd4 2.203 . S
Cd4 O3 2.203 . S
Cd4 O6 2.411 . S
Cd4 O7 2.333 . S
Cd4 O8 2.352 . S
Cd4 O12 2.277 . S
Cd4 O13 2.356 . S
C5 O10 1.209 . S
C5 O12 1.226 . S
O6 Cd2 2.273 . S
O6 Cd4 2.411 . S
O6 C9 1.320 . S
O7 Cd4 2.333 . S
O7 C9 1.214 . S
O8 Cd4 2.352 . S
O8 C11 1.258 . S
C9 O6 1.320 . S
C9 O7 1.214 . S
O10 Cd2 2.277 . S
O10 C5 1.209 . S
C11 O8 1.258 . S
C11 O13 1.282 . S
O12 Cd4 2.277 . S
O12 C5 1.226 . S
O13 Cd4 2.356 . S
O13 C11 1.282 . S
C14 O15 1.306 1_655 S
C14 O17 1.160 . S
O15 C14 1.306 1_455 S
O15 Cd16 2.228 . S
Cd16 O15 2.228 . S
Cd16 O20 2.273 . S
Cd16 O24 2.277 1_455 S
O17 C14 1.160 . S
O17 Cd18 2.203 . S
Cd18 O17 2.203 . S
Cd18 O20 2.411 1_655 S
Cd18 O21 2.333 . S
Cd18 O22 2.352 . S
Cd18 O26 2.277 . S
Cd18 O27 2.356 . S
C19 O24 1.209 . S
C19 O26 1.226 . S
O20 Cd16 2.273 . S
O20 Cd18 2.411 1_455 S
O20 C23 1.320 . S
O21 Cd18 2.333 . S
O21 C23 1.214 1_655 S
O22 Cd18 2.352 . S
O22 C25 1.258 . S
C23 O20 1.320 . S
C23 O21 1.214 1_455 S
O24 Cd16 2.277 1_655 S
O24 C19 1.209 . S
C25 O22 1.258 . S
C25 O27 1.282 . S
O26 Cd18 2.277 . S
O26 C19 1.226 . S
O27 Cd18 2.356 . S
O27 C25 1.282 . S
C28 O29 1.306 1_565 S
C28 O31 1.160 . S
O29 C28 1.306 1_545 S
O29 Cd30 2.228 . S
Cd30 O29 2.228 . S
Cd30 O34 2.273 . S
Cd30 O38 2.277 1_545 S
O31 C28 1.160 . S
O31 Cd32 2.203 . S
Cd32 O31 2.203 . S
Cd32 O34 2.411 1_565 S
Cd32 O35 2.333 . S
Cd32 O36 2.352 . S
Cd32 O40 2.277 . S
Cd32 O41 2.356 . S
C33 O38 1.209 . S
C33 O40 1.226 . S
O34 Cd30 2.273 . S
O34 Cd32 2.411 1_545 S
O34 C37 1.320 . S
O35 Cd32 2.333 . S
O35 C37 1.214 1_565 S
O36 Cd32 2.352 . S
O36 C39 1.258 . S
C37 O34 1.320 . S
C37 O35 1.214 1_545 S
O38 Cd30 2.277 1_565 S
O38 C33 1.209 . S
C39 O36 1.258 . S
C39 O41 1.282 . S
O40 Cd32 2.277 . S
O40 C33 1.226 . S
O41 Cd32 2.356 . S
O41 C39 1.282 . S
C42 O43 1.306 . S
C42 O45 1.160 . S
O43 C42 1.306 . S
O43 Cd44 2.228 . S
Cd44 O43 2.228 . S
Cd44 O48 2.273 . S
Cd44 O52 2.277 . S
O45 C42 1.160 . S
O45 Cd46 2.203 . S
Cd46 O45 2.203 . S
Cd46 O48 2.411 . S
Cd46 O49 2.333 . S
Cd46 O50 2.352 . S
Cd46 O54 2.277 . S
Cd46 O55 2.356 . S
C47 O52 1.209 . S
C47 O54 1.226 . S
O48 Cd44 2.273 . S
O48 Cd46 2.411 . S
O48 C51 1.320 . S
O49 Cd46 2.333 . S
O49 C51 1.214 . S
O50 Cd46 2.352 . S
O50 C53 1.258 . S
C51 O48 1.320 . S
C51 O49 1.214 . S
O52 Cd44 2.277 . S
O52 C47 1.209 . S
C53 O50 1.258 . S
C53 O55 1.282 . S
O54 Cd46 2.277 . S
O54 C47 1.226 . S
O55 Cd46 2.356 . S
O55 C53 1.282 . S
C56 O57 1.306 1_455 S
C56 O59 1.160 . S
O57 C56 1.306 1_655 S
O57 Cd58 2.228 . S
Cd58 O57 2.228 . S
Cd58 O62 2.273 . S
Cd58 O66 2.277 1_655 S
O59 C56 1.160 . S
O59 Cd60 2.203 . S
Cd60 O59 2.203 . S
Cd60 O62 2.411 1_455 S
Cd60 O63 2.333 . S
Cd60 O64 2.352 . S
Cd60 O68 2.277 . S
Cd60 O69 2.356 . S
C61 O66 1.209 . S
C61 O68 1.226 . S
O62 Cd58 2.273 . S
O62 Cd60 2.411 1_655 S
O62 C65 1.320 . S
O63 Cd60 2.333 . S
O63 C65 1.214 1_455 S
O64 Cd60 2.352 . S
O64 C67 1.258 . S
C65 O62 1.320 . S
C65 O63 1.214 1_655 S
O66 Cd58 2.277 1_455 S
O66 C61 1.209 . S
C67 O64 1.258 . S
C67 O69 1.282 . S
O68 Cd60 2.277 . S
O68 C61 1.226 . S
O69 Cd60 2.356 . S
O69 C67 1.282 . S
C70 O71 1.306 1_545 S
C70 O73 1.160 . S
O71 C70 1.306 1_565 S
O71 Cd72 2.228 . S
Cd72 O71 2.228 . S
Cd72 O76 2.273 . S
Cd72 O80 2.277 1_565 S
O73 C70 1.160 . S
O73 Cd74 2.203 . S
Cd74 O73 2.203 . S
Cd74 O76 2.411 1_545 S
Cd74 O77 2.333 . S
Cd74 O78 2.352 . S
Cd74 O82 2.277 . S
Cd74 O83 2.356 . S
C75 O80 1.209 . S
C75 O82 1.226 . S
O76 Cd72 2.273 . S
O76 Cd74 2.411 1_565 S
O76 C79 1.320 . S
O77 Cd74 2.333 . S
O77 C79 1.214 1_545 S
O78 Cd74 2.352 . S
O78 C81 1.258 . S
C79 O76 1.320 . S
C79 O77 1.214 1_565 S
O80 Cd72 2.277 1_545 S
O80 C75 1.209 . S
C81 O78 1.258 . S
C81 O83 1.282 . S
O82 Cd74 2.277 . S
O82 C75 1.226 . S
O83 Cd74 2.356 . S
O83 C81 1.282 . S
C84 O85 1.306 . S
C84 O87 1.160 . S
O85 C84 1.306 . S
O85 Cd86 2.228 . S
Cd86 O85 2.228 . S
Cd86 O90 2.273 . S
Cd86 O94 2.277 . S
O87 C84 1.160 . S
O87 Cd88 2.203 . S
Cd88 O87 2.203 . S
Cd88 O90 2.411 . S
Cd88 O91 2.333 . S
Cd88 O92 2.352 . S
Cd88 O96 2.277 . S
Cd88 O97 2.356 . S
C89 O94 1.209 . S
C89 O96 1.226 . S
O90 Cd86 2.273 . S
O90 Cd88 2.411 . S
O90 C93 1.320 . S
O91 Cd88 2.333 . S
O91 C93 1.214 . S
O92 Cd88 2.352 . S
O92 C95 1.258 . S
C93 O90 1.320 . S
C93 O91 1.214 . S
O94 Cd86 2.277 . S
O94 C89 1.209 . S
C95 O92 1.258 . S
C95 O97 1.282 . S
O96 Cd88 2.277 . S
O96 C89 1.226 . S
O97 Cd88 2.356 . S
O97 C95 1.282 . S
C98 O99 1.306 1_655 S
C98 O101 1.160 . S
O99 C98 1.306 1_455 S
O99 Cd100 2.228 . S
Cd100 O99 2.228 . S
Cd100 O104 2.273 . S
Cd100 O108 2.277 1_455 S
O101 C98 1.160 . S
O101 Cd102 2.203 . S
Cd102 O101 2.203 . S
Cd102 O104 2.411 1_655 S
Cd102 O105 2.333 . S
Cd102 O106 2.352 . S
Cd102 O110 2.277 . S
Cd102 O111 2.356 . S
C103 O108 1.209 . S
C103 O110 1.226 . S
O104 Cd100 2.273 . S
O104 Cd102 2.411 1_455 S
O104 C107 1.320 . S
O105 Cd102 2.333 . S
O105 C107 1.214 1_655 S
O106 Cd102 2.352 . S
O106 C109 1.258 . S
C107 O104 1.320 . S
C107 O105 1.214 1_455 S
O108 Cd100 2.277 1_655 S
O108 C103 1.209 . S
C109 O106 1.258 . S
C109 O111 1.282 . S
O110 Cd102 2.277 . S
O110 C103 1.226 . S
O111 Cd102 2.356 . S
O111 C109 1.282 . S
C112 O113 1.306 1_565 S
C112 O115 1.160 . S
O113 C112 1.306 1_545 S
O113 Cd114 2.228 . S
Cd114 O113 2.228 . S
Cd114 O118 2.273 . S
Cd114 O122 2.277 1_545 S
O115 C112 1.160 . S
O115 Cd116 2.203 . S
Cd116 O115 2.203 . S
Cd116 O118 2.411 1_565 S
Cd116 O119 2.333 . S
Cd116 O120 2.352 . S
Cd116 O124 2.277 . S
Cd116 O125 2.356 . S
C117 O122 1.209 . S
C117 O124 1.226 . S
O118 Cd114 2.273 . S
O118 Cd116 2.411 1_545 S
O118 C121 1.320 . S
O119 Cd116 2.333 . S
O119 C121 1.214 1_565 S
O120 Cd116 2.352 . S
O120 C123 1.258 . S
C121 O118 1.320 . S
C121 O119 1.214 1_545 S
O122 Cd114 2.277 1_565 S
O122 C117 1.209 . S
C123 O120 1.258 . S
C123 O125 1.282 . S
O124 Cd116 2.277 . S
O124 C117 1.226 . S
O125 Cd116 2.356 . S
O125 C123 1.282 . S
C126 O127 1.306 . S
C126 O129 1.160 . S
O127 C126 1.306 . S
O127 Cd128 2.228 . S
Cd128 O127 2.228 . S
Cd128 O132 2.273 . S
Cd128 O136 2.277 . S
O129 C126 1.160 . S
O129 Cd130 2.203 . S
Cd130 O129 2.203 . S
Cd130 O132 2.411 . S
Cd130 O133 2.333 . S
Cd130 O134 2.352 . S
Cd130 O138 2.277 . S
Cd130 O139 2.356 . S
C131 O136 1.209 . S
C131 O138 1.226 . S
O132 Cd128 2.273 . S
O132 Cd130 2.411 . S
O132 C135 1.320 . S
O133 Cd130 2.333 . S
O133 C135 1.214 . S
O134 Cd130 2.352 . S
O134 C137 1.258 . S
C135 O132 1.320 . S
C135 O133 1.214 . S
O136 Cd128 2.277 . S
O136 C131 1.209 . S
C137 O134 1.258 . S
C137 O139 1.282 . S
O138 Cd130 2.277 . S
O138 C131 1.226 . S
O139 Cd130 2.356 . S
O139 C137 1.282 . S
C140 O141 1.306 1_455 S
C140 O143 1.160 . S
O141 C140 1.306 1_655 S
O141 Cd142 2.228 . S
Cd142 O141 2.228 . S
Cd142 O146 2.273 . S
Cd142 O150 2.277 1_655 S
O143 C140 1.160 . S
O143 Cd144 2.203 . S
Cd144 O143 2.203 . S
Cd144 O146 2.411 1_455 S
Cd144 O147 2.333 . S
Cd144 O148 2.352 . S
Cd144 O152 2.277 . S
Cd144 O153 2.356 . S
C145 O150 1.209 . S
C145 O152 1.226 . S
O146 Cd142 2.273 . S
O146 Cd144 2.411 1_655 S
O146 C149 1.320 . S
O147 Cd144 2.333 . S
O147 C149 1.214 1_455 S
O148 Cd144 2.352 . S
O148 C151 1.258 . S
C149 O146 1.320 . S
C149 O147 1.214 1_655 S
O150 Cd142 2.277 1_455 S
O150 C145 1.209 . S
C151 O148 1.258 . S
C151 O153 1.282 . S
O152 Cd144 2.277 . S
O152 C145 1.226 . S
O153 Cd144 2.356 . S
O153 C151 1.282 . S
C154 O155 1.306 1_545 S
C154 O157 1.160 . S
O155 C154 1.306 1_565 S
O155 Cd156 2.228 . S
Cd156 O155 2.228 . S
Cd156 O160 2.273 . S
Cd156 O164 2.277 1_565 S
O157 C154 1.160 . S
O157 Cd158 2.203 . S
Cd158 O157 2.203 . S
Cd158 O160 2.411 1_545 S
Cd158 O161 2.333 . S
Cd158 O162 2.352 . S
Cd158 O166 2.277 . S
Cd158 O167 2.356 . S
C159 O164 1.209 . S
C159 O166 1.226 . S
O160 Cd156 2.273 . S
O160 Cd158 2.411 1_565 S
O160 C163 1.320 . S
O161 Cd158 2.333 . S
O161 C163 1.214 1_545 S
O162 Cd158 2.352 . S
O162 C165 1.258 . S
C163 O160 1.320 . S
C163 O161 1.214 1_565 S
O164 Cd156 2.277 1_545 S
O164 C159 1.209 . S
C165 O162 1.258 . S
C165 O167 1.282 . S
O166 Cd158 2.277 . S
O166 C159 1.226 . S
O167 Cd158 2.356 . S
O167 C165 1.282 . S
C168 C169 1.391 . S
C168 C170 1.394 . S
C168 H184 0.931 . S
C169 C168 1.391 . S
C169 C173 1.376 . S
C170 C168 1.394 . S
C170 C171 1.369 . S
C170 C174 1.531 . S
C171 C170 1.369 . S
C171 C172 1.410 . S
C171 C179 1.503 1_655 S
C172 C171 1.410 . S
C172 C173 1.392 . S
C172 C175 1.511 . S
C173 C169 1.376 . S
C173 C172 1.392 . S
C173 H185 0.929 . S
C174 C170 1.531 . S
C174 H186 0.960 . S
C174 H187 0.962 . S
C174 H188 0.960 . S
C175 C172 1.511 . S
C175 H189 0.961 . S
C175 H190 0.961 1_655 S
C175 H191 0.961 . S
C176 C177 1.370 . S
C176 C178 1.363 . S
C176 H192 0.931 . S
C177 C176 1.370 . S
C177 C181 1.408 . S
C178 C176 1.363 . S
C178 C179 1.370 . S
C178 C182 1.524 . S
C179 C171 1.503 1_455 S
C179 C178 1.370 . S
C179 C180 1.403 . S
C180 C179 1.403 . S
C180 C181 1.404 . S
C180 C183 1.539 1_455 S
C181 C177 1.408 . S
C181 C180 1.404 . S
C181 H193 0.930 . S
C182 C178 1.524 . S
C182 H194 0.956 . S
C182 H195 0.961 . S
C182 H196 0.961 . S
C183 C180 1.539 1_655 S
C183 H197 0.958 . S
C183 H198 0.961 . S
C183 H199 0.960 . S
H184 C168 0.931 . S
H185 C173 0.929 . S
H186 C174 0.960 . S
H187 C174 0.962 . S
H188 C174 0.960 . S
H189 C175 0.961 . S
H190 C175 0.961 1_455 S
H191 C175 0.961 . S
H192 C176 0.931 . S
H193 C181 0.930 . S
H194 C182 0.956 . S
H195 C182 0.961 . S
H196 C182 0.961 . S
H197 C183 0.958 . S
H198 C183 0.961 . S
H199 C183 0.960 . S
C200 C201 1.391 . S
C200 C202 1.394 . S
C200 H216 0.931 . S
C201 C200 1.391 . S
C201 C205 1.376 . S
C202 C200 1.394 . S
C202 C203 1.369 . S
C202 C206 1.531 . S
C203 C202 1.369 . S
C203 C204 1.410 . S
C203 C211 1.503 1_545 S
C204 C203 1.410 . S
C204 C205 1.392 . S
C204 C207 1.511 . S
C205 C201 1.376 . S
C205 C204 1.392 . S
C205 H217 0.929 . S
C206 C202 1.531 . S
C206 H218 0.960 1_545 S
C206 H219 0.962 . S
C206 H220 0.960 . S
C207 C204 1.511 . S
C207 H221 0.961 . S
C207 H222 0.961 1_545 S
C207 H223 0.961 1_545 S
C208 C209 1.370 . S
C208 C210 1.363 . S
C208 H224 0.931 . S
C209 C208 1.370 . S
C209 C213 1.408 . S
C210 C208 1.363 . S
C210 C211 1.370 . S
C210 C214 1.524 1_565 S
C211 C203 1.503 1_565 S
C211 C210 1.370 . S
C211 C212 1.403 . S
C212 C211 1.403 . S
C212 C213 1.404 . S
C212 C215 1.539 . S
C213 C209 1.408 . S
C213 C212 1.404 . S
C213 H225 0.930 . S
C214 C210 1.524 1_545 S
C214 H226 0.956 . S
C214 H227 0.961 . S
C214 H228 0.961 . S
C215 C212 1.539 . S
C215 H229 0.958 . S
C215 H230 0.961 . S
C215 H231 0.960 . S
H216 C200 0.931 . S
H217 C205 0.929 . S
H218 C206 0.960 1_565 S
H219 C206 0.962 . S
H220 C206 0.960 . S
H221 C207 0.961 . S
H222 C207 0.961 1_565 S
H223 C207 0.961 1_565 S
H224 C208 0.931 . S
H225 C213 0.930 . S
H226 C214 0.956 . S
H227 C214 0.961 . S
H228 C214 0.961 . S
H229 C215 0.958 . S
H230 C215 0.961 . S
H231 C215 0.960 . S
C232 C233 1.391 . S
C232 C234 1.394 . S
C232 H248 0.931 . S
C233 C232 1.391 . S
C233 C237 1.376 . S
C234 C232 1.394 . S
C234 C235 1.369 . S
C234 C238 1.531 . S
C235 C234 1.369 . S
C235 C236 1.410 . S
C235 C243 1.503 . S
C236 C235 1.410 . S
C236 C237 1.392 . S
C236 C239 1.511 . S
C237 C233 1.376 . S
C237 C236 1.392 . S
C237 H249 0.929 . S
C238 C234 1.531 . S
C238 H250 0.960 . S
C238 H251 0.962 . S
C238 H252 0.960 . S
C239 C236 1.511 . S
C239 H253 0.961 . S
C239 H254 0.961 . S
C239 H255 0.961 . S
C240 C241 1.370 . S
C240 C242 1.363 . S
C240 H256 0.931 . S
C241 C240 1.370 . S
C241 C245 1.408 . S
C242 C240 1.363 . S
C242 C243 1.370 . S
C242 C246 1.524 . S
C243 C235 1.503 . S
C243 C242 1.370 . S
C243 C244 1.403 . S
C244 C243 1.403 . S
C244 C245 1.404 . S
C244 C247 1.539 . S
C245 C241 1.408 . S
C245 C244 1.404 . S
C245 H257 0.930 . S
C246 C242 1.524 . S
C246 H258 0.956 . S
C246 H259 0.961 . S
C246 H260 0.961 . S
C247 C244 1.539 . S
C247 H261 0.958 . S
C247 H262 0.961 . S
C247 H263 0.960 . S
H248 C232 0.931 . S
H249 C237 0.929 . S
H250 C238 0.960 . S
H251 C238 0.962 . S
H252 C238 0.960 . S
H253 C239 0.961 . S
H254 C239 0.961 . S
H255 C239 0.961 . S
H256 C240 0.931 . S
H257 C245 0.930 . S
H258 C246 0.956 . S
H259 C246 0.961 . S
H260 C246 0.961 . S
H261 C247 0.958 . S
H262 C247 0.961 . S
H263 C247 0.960 . S
C264 C265 1.391 . S
C264 C266 1.394 . S
C264 H280 0.931 . S
C265 C264 1.391 . S
C265 C269 1.376 . S
C266 C264 1.394 . S
C266 C267 1.369 . S
C266 C270 1.531 . S
C267 C266 1.369 . S
C267 C268 1.410 . S
C267 C275 1.503 1_655 S
C268 C267 1.410 . S
C268 C269 1.392 . S
C268 C271 1.511 . S
C269 C265 1.376 . S
C269 C268 1.392 . S
C269 H281 0.929 . S
C270 C266 1.531 . S
C270 H282 0.960 1_655 S
C270 H283 0.962 . S
C270 H284 0.960 . S
C271 C268 1.511 . S
C271 H285 0.961 . S
C271 H286 0.961 1_655 S
C271 H287 0.961 1_655 S
C272 C273 1.370 . S
C272 C274 1.363 . S
C272 H288 0.931 . S
C273 C272 1.370 . S
C273 C277 1.408 . S
C274 C272 1.363 . S
C274 C275 1.370 . S
C274 C278 1.524 1_455 S
C275 C267 1.503 1_455 S
C275 C274 1.370 . S
C275 C276 1.403 . S
C276 C275 1.403 . S
C276 C277 1.404 . S
C276 C279 1.539 . S
C277 C273 1.408 . S
C277 C276 1.404 . S
C277 H289 0.930 . S
C278 C274 1.524 1_655 S
C278 H290 0.956 . S
C278 H291 0.961 . S
C278 H292 0.961 . S
C279 C276 1.539 . S
C279 H293 0.958 . S
C279 H294 0.961 . S
C279 H295 0.960 . S
H280 C264 0.931 . S
H281 C269 0.929 . S
H282 C270 0.960 1_455 S
H283 C270 0.962 . S
H284 C270 0.960 . S
H285 C271 0.961 . S
H286 C271 0.961 1_455 S
H287 C271 0.961 1_455 S
H288 C272 0.931 . S
H289 C277 0.930 . S
H290 C278 0.956 . S
H291 C278 0.961 . S
H292 C278 0.961 . S
H293 C279 0.958 . S
H294 C279 0.961 . S
H295 C279 0.960 . S
C296 C297 1.391 . S
C296 C298 1.394 . S
C296 H312 0.931 . S
C297 C296 1.391 . S
C297 C301 1.376 . S
C298 C296 1.394 . S
C298 C299 1.369 . S
C298 C302 1.531 . S
C299 C298 1.369 . S
C299 C300 1.410 . S
C299 C307 1.503 1_545 S
C300 C299 1.410 . S
C300 C301 1.392 . S
C300 C303 1.511 . S
C301 C297 1.376 . S
C301 C300 1.392 . S
C301 H313 0.929 . S
C302 C298 1.531 . S
C302 H314 0.960 . S
C302 H315 0.962 . S
C302 H316 0.960 . S
C303 C300 1.511 . S
C303 H317 0.961 . S
C303 H318 0.961 1_545 S
C303 H319 0.961 . S
C304 C305 1.370 . S
C304 C306 1.363 . S
C304 H320 0.931 . S
C305 C304 1.370 . S
C305 C309 1.408 . S
C306 C304 1.363 . S
C306 C307 1.370 . S
C306 C310 1.524 . S
C307 C299 1.503 1_565 S
C307 C306 1.370 . S
C307 C308 1.403 . S
C308 C307 1.403 . S
C308 C309 1.404 . S
C308 C311 1.539 1_565 S
C309 C305 1.408 . S
C309 C308 1.404 . S
C309 H321 0.930 . S
C310 C306 1.524 . S
C310 H322 0.956 . S
C310 H323 0.961 . S
C310 H324 0.961 . S
C311 C308 1.539 1_545 S
C311 H325 0.958 . S
C311 H326 0.961 . S
C311 H327 0.960 . S
H312 C296 0.931 . S
H313 C301 0.929 . S
H314 C302 0.960 . S
H315 C302 0.962 . S
H316 C302 0.960 . S
H317 C303 0.961 . S
H318 C303 0.961 1_565 S
H319 C303 0.961 . S
H320 C304 0.931 . S
H321 C309 0.930 . S
H322 C310 0.956 . S
H323 C310 0.961 . S
H324 C310 0.961 . S
H325 C311 0.958 . S
H326 C311 0.961 . S
H327 C311 0.960 . S
C328 C329 1.391 . S
C328 C330 1.394 . S
C328 H344 0.931 . S
C329 C328 1.391 . S
C329 C333 1.376 . S
C330 C328 1.394 . S
C330 C331 1.369 . S
C330 C334 1.531 . S
C331 C330 1.369 . S
C331 C332 1.410 . S
C331 C339 1.503 . S
C332 C331 1.410 . S
C332 C333 1.392 . S
C332 C335 1.511 . S
C333 C329 1.376 . S
C333 C332 1.392 . S
C333 H345 0.929 . S
C334 C330 1.531 . S
C334 H346 0.960 . S
C334 H347 0.962 . S
C334 H348 0.960 . S
C335 C332 1.511 . S
C335 H349 0.961 . S
C335 H350 0.961 . S
C335 H351 0.961 . S
C336 C337 1.370 . S
C336 C338 1.363 . S
C336 H352 0.931 . S
C337 C336 1.370 . S
C337 C341 1.408 . S
C338 C336 1.363 . S
C338 C339 1.370 . S
C338 C342 1.524 . S
C339 C331 1.503 . S
C339 C338 1.370 . S
C339 C340 1.403 . S
C340 C339 1.403 . S
C340 C341 1.404 . S
C340 C343 1.539 . S
C341 C337 1.408 . S
C341 C340 1.404 . S
C341 H353 0.930 . S
C342 C338 1.524 . S
C342 H354 0.956 . S
C342 H355 0.961 . S
C342 H356 0.961 . S
C343 C340 1.539 . S
C343 H357 0.958 . S
C343 H358 0.961 . S
C343 H359 0.960 . S
H344 C328 0.931 . S
H345 C333 0.929 . S
H346 C334 0.960 . S
H347 C334 0.962 . S
H348 C334 0.960 . S
H349 C335 0.961 . S
H350 C335 0.961 . S
H351 C335 0.961 . S
H352 C336 0.931 . S
H353 C341 0.930 . S
H354 C342 0.956 . S
H355 C342 0.961 . S
H356 C342 0.961 . S
H357 C343 0.958 . S
H358 C343 0.961 . S
H359 C343 0.960 . S
C360 C361 1.391 . S
C360 C362 1.394 . S
C360 H376 0.931 . S
C361 C360 1.391 . S
C361 C365 1.376 . S
C362 C360 1.394 . S
C362 C363 1.369 . S
C362 C366 1.531 . S
C363 C362 1.369 . S
C363 C364 1.410 . S
C363 C371 1.503 . S
C364 C363 1.410 . S
C364 C365 1.392 . S
C364 C367 1.511 . S
C365 C361 1.376 . S
C365 C364 1.392 . S
C365 H377 0.929 . S
C366 C362 1.531 . S
C366 H378 0.960 . S
C366 H379 0.962 . S
C366 H380 0.960 . S
C367 C364 1.511 . S
C367 H381 0.961 . S
C367 H382 0.961 . S
C367 H383 0.961 . S
C368 C369 1.370 . S
C368 C370 1.363 . S
C368 H384 0.931 . S
C369 C368 1.370 . S
C369 C373 1.408 . S
C370 C368 1.363 . S
C370 C371 1.370 . S
C370 C374 1.524 . S
C371 C363 1.503 . S
C371 C370 1.370 . S
C371 C372 1.403 . S
C372 C371 1.403 . S
C372 C373 1.404 . S
C372 C375 1.539 . S
C373 C369 1.408 . S
C373 C372 1.404 . S
C373 H385 0.930 . S
C374 C370 1.524 . S
C374 H386 0.956 . S
C374 H387 0.961 . S
C374 H388 0.961 . S
C375 C372 1.539 . S
C375 H389 0.958 . S
C375 H390 0.961 . S
C375 H391 0.960 . S
H376 C360 0.931 . S
H377 C365 0.929 . S
H378 C366 0.960 . S
H379 C366 0.962 . S
H380 C366 0.960 . S
H381 C367 0.961 . S
H382 C367 0.961 . S
H383 C367 0.961 . S
H384 C368 0.931 . S
H385 C373 0.930 . S
H386 C374 0.956 . S
H387 C374 0.961 . S
H388 C374 0.961 . S
H389 C375 0.958 . S
H390 C375 0.961 . S
H391 C375 0.960 . S
C392 C393 1.391 1_655 S
C392 C394 1.394 . S
C392 H408 0.931 . S
C393 C392 1.391 1_455 S
C393 C397 1.376 . S
C394 C392 1.394 . S
C394 C395 1.369 1_655 S
C394 C398 1.531 . S
C395 C394 1.369 1_455 S
C395 C396 1.410 . S
C395 C403 1.503 1_455 S
C396 C395 1.410 . S
C396 C397 1.392 . S
C396 C399 1.511 . S
C397 C393 1.376 . S
C397 C396 1.392 . S
C397 H409 0.929 . S
C398 C394 1.531 . S
C398 H410 0.960 . S
C398 H411 0.962 . S
C398 H412 0.960 . S
C399 C396 1.511 . S
C399 H413 0.961 . S
C399 H414 0.961 . S
C399 H415 0.961 . S
C400 C401 1.370 . S
C400 C402 1.363 . S
C400 H416 0.931 . S
C401 C400 1.370 . S
C401 C405 1.408 . S
C402 C400 1.363 . S
C402 C403 1.370 . S
C402 C406 1.524 . S
C403 C395 1.503 1_655 S
C403 C402 1.370 . S
C403 C404 1.403 1_655 S
C404 C403 1.403 1_455 S
C404 C405 1.404 1_455 S
C404 C407 1.539 . S
C405 C401 1.408 . S
C405 C404 1.404 1_655 S
C405 H417 0.930 1_655 S
C406 C402 1.524 . S
C406 H418 0.956 . S
C406 H419 0.961 . S
C406 H420 0.961 . S
C407 C404 1.539 . S
C407 H421 0.958 . S
C407 H422 0.961 . S
C407 H423 0.960 . S
H408 C392 0.931 . S
H409 C397 0.929 . S
H410 C398 0.960 . S
H411 C398 0.962 . S
H412 C398 0.960 . S
H413 C399 0.961 . S
H414 C399 0.961 . S
H415 C399 0.961 . S
H416 C400 0.931 . S
H417 C405 0.930 1_455 S
H418 C406 0.956 . S
H419 C406 0.961 . S
H420 C406 0.961 . S
H421 C407 0.958 . S
H422 C407 0.961 . S
H423 C407 0.960 . S
C424 C425 1.391 1_565 S
C424 C426 1.394 . S
C424 H440 0.931 . S
C425 C424 1.391 1_545 S
C425 C429 1.376 . S
C426 C424 1.394 . S
C426 C427 1.369 1_565 S
C426 C430 1.531 . S
C427 C426 1.369 1_545 S
C427 C428 1.410 . S
C427 C435 1.503 1_545 S
C428 C427 1.410 . S
C428 C429 1.392 . S
C428 C431 1.511 . S
C429 C425 1.376 . S
C429 C428 1.392 . S
C429 H441 0.929 . S
C430 C426 1.531 . S
C430 H442 0.960 . S
C430 H443 0.962 . S
C430 H444 0.960 . S
C431 C428 1.511 . S
C431 H445 0.961 . S
C431 H446 0.961 . S
C431 H447 0.961 . S
C432 C433 1.370 . S
C432 C434 1.363 . S
C432 H448 0.931 . S
C433 C432 1.370 . S
C433 C437 1.417 . S
C434 C432 1.363 . S
C434 C435 1.370 . S
C434 C438 1.524 . S
C435 C427 1.503 1_565 S
C435 C434 1.370 . S
C435 C436 1.403 1_565 S
C436 C435 1.403 1_545 S
C436 C437 1.394 1_545 S
C436 C439 1.539 . S
C437 C433 1.417 . S
C437 C436 1.394 1_565 S
C437 H449 0.931 1_565 S
C438 C434 1.524 . S
C438 H450 0.956 . S
C438 H451 0.961 . S
C438 H452 0.961 . S
C439 C436 1.539 . S
C439 H453 0.958 . S
C439 H454 0.961 . S
C439 H455 0.960 . S
H440 C424 0.931 . S
H441 C429 0.929 . S
H442 C430 0.960 . S
H443 C430 0.962 . S
H444 C430 0.960 . S
H445 C431 0.961 . S
H446 C431 0.961 . S
H447 C431 0.961 . S
H448 C432 0.931 . S
H449 C437 0.931 1_545 S
H450 C438 0.956 . S
H451 C438 0.961 . S
H452 C438 0.961 . S
H453 C439 0.958 . S
H454 C439 0.961 . S
H455 C439 0.960 . S
C456 C457 1.391 . S
C456 C458 1.394 . S
C456 H472 0.931 . S
C457 C456 1.391 . S
C457 C461 1.376 . S
C458 C456 1.394 . S
C458 C459 1.369 . S
C458 C462 1.531 . S
C459 C458 1.369 . S
C459 C460 1.410 . S
C459 C467 1.503 . S
C460 C459 1.410 . S
C460 C461 1.392 . S
C460 C463 1.511 . S
C461 C457 1.376 . S
C461 C460 1.392 . S
C461 H473 0.929 . S
C462 C458 1.531 . S
C462 H474 0.960 . S
C462 H475 0.962 . S
C462 H476 0.960 . S
C463 C460 1.511 . S
C463 H477 0.961 . S
C463 H478 0.961 . S
C463 H479 0.961 . S
C464 C465 1.370 . S
C464 C466 1.363 . S
C464 H480 0.931 . S
C465 C464 1.370 . S
C465 C469 1.408 . S
C466 C464 1.363 . S
C466 C467 1.370 . S
C466 C470 1.524 . S
C467 C459 1.503 . S
C467 C466 1.370 . S
C467 C468 1.403 . S
C468 C467 1.403 . S
C468 C469 1.404 . S
C468 C471 1.539 . S
C469 C465 1.408 . S
C469 C468 1.404 . S
C469 H481 0.930 . S
C470 C466 1.524 . S
C470 H482 0.956 . S
C470 H483 0.961 . S
C470 H484 0.961 . S
C471 C468 1.539 . S
C471 H485 0.958 . S
C471 H486 0.961 . S
C471 H487 0.960 . S
H472 C456 0.931 . S
H473 C461 0.929 . S
H474 C462 0.960 . S
H475 C462 0.962 . S
H476 C462 0.960 . S
H477 C463 0.961 . S
H478 C463 0.961 . S
H479 C463 0.961 . S
H480 C464 0.931 . S
H481 C469 0.930 . S
H482 C470 0.956 . S
H483 C470 0.961 . S
H484 C470 0.961 . S
H485 C471 0.958 . S
H486 C471 0.961 . S
H487 C471 0.960 . S
C488 C489 1.391 . S
C488 C490 1.394 . S
C488 H504 0.931 . S
C489 C488 1.391 . S
C489 C493 1.376 1_655 S
C490 C488 1.394 . S
C490 C491 1.369 . S
C490 C494 1.531 . S
C491 C490 1.369 . S
C491 C492 1.410 1_655 S
C491 C499 1.503 1_655 S
C492 C491 1.410 1_455 S
C492 C493 1.392 . S
C492 C495 1.511 . S
C493 C489 1.376 1_455 S
C493 C492 1.392 . S
C493 H505 0.929 . S
C494 C490 1.531 . S
C494 H506 0.960 . S
C494 H507 0.962 . S
C494 H508 0.960 . S
C495 C492 1.511 . S
C495 H509 0.961 . S
C495 H510 0.961 . S
C495 H511 0.961 . S
C496 C497 1.370 . S
C496 C498 1.363 1_455 S
C496 H512 0.931 1_455 S
C497 C496 1.370 . S
C497 C501 1.408 . S
C498 C496 1.363 1_655 S
C498 C499 1.370 1_655 S
C498 C502 1.524 . S
C499 C491 1.503 1_455 S
C499 C498 1.370 1_455 S
C499 C500 1.403 . S
C500 C499 1.403 . S
C500 C501 1.404 . S
C500 C503 1.539 . S
C501 C497 1.408 . S
C501 C500 1.404 . S
C501 H513 0.930 . S
C502 C498 1.524 . S
C502 H514 0.956 . S
C502 H515 0.961 . S
C502 H516 0.961 . S
C503 C500 1.539 . S
C503 H517 0.958 . S
C503 H518 0.961 . S
C503 H519 0.960 . S
H504 C488 0.931 . S
H505 C493 0.929 . S
H506 C494 0.960 . S
H507 C494 0.962 . S
H508 C494 0.960 . S
H509 C495 0.961 . S
H510 C495 0.961 . S
H511 C495 0.961 . S
H512 C496 0.931 1_655 S
H513 C501 0.930 . S
H514 C502 0.956 . S
H515 C502 0.961 . S
H516 C502 0.961 . S
H517 C503 0.958 . S
H518 C503 0.961 . S
H519 C503 0.960 . S
C520 C521 1.391 1_545 S
C520 C522 1.394 . S
C520 H536 0.931 . S
C521 C520 1.391 1_565 S
C521 C525 1.376 . S
C522 C520 1.394 . S
C522 C523 1.369 1_545 S
C522 C526 1.531 . S
C523 C522 1.369 1_565 S
C523 C524 1.410 . S
C523 C531 1.503 1_565 S
C524 C523 1.410 . S
C524 C525 1.392 . S
C524 C527 1.511 . S
C525 C521 1.376 . S
C525 C524 1.392 . S
C525 H537 0.929 . S
C526 C522 1.531 . S
C526 H538 0.960 . S
C526 H539 0.962 . S
C526 H540 0.960 . S
C527 C524 1.511 . S
C527 H541 0.961 . S
C527 H542 0.961 . S
C527 H543 0.961 . S
C528 C529 1.370 . S
C528 C530 1.363 . S
C528 H544 0.931 . S
C529 C528 1.370 . S
C529 C533 1.408 . S
C530 C528 1.363 . S
C530 C531 1.370 . S
C530 C534 1.524 . S
C531 C523 1.503 1_545 S
C531 C530 1.370 . S
C531 C532 1.403 1_545 S
C532 C531 1.403 1_565 S
C532 C533 1.404 1_565 S
C532 C535 1.539 . S
C533 C529 1.408 . S
C533 C532 1.404 1_545 S
C533 H545 0.930 . S
C534 C530 1.524 . S
C534 H546 0.956 . S
C534 H547 0.961 . S
C534 H548 0.961 . S
C535 C532 1.539 . S
C535 H549 0.958 . S
C535 H550 0.961 . S
C535 H551 0.960 . S
H536 C520 0.931 . S
H537 C525 0.929 . S
H538 C526 0.960 . S
H539 C526 0.962 . S
H540 C526 0.960 . S
H541 C527 0.961 . S
H542 C527 0.961 . S
H543 C527 0.961 . S
H544 C528 0.931 . S
H545 C533 0.930 . S
H546 C534 0.956 . S
H547 C534 0.961 . S
H548 C534 0.961 . S
H549 C535 0.958 . S
H550 C535 0.961 . S
H551 C535 0.960 . S
C552 C553 1.391 . S
C552 C554 1.394 . S
C552 H568 0.931 . S
C553 C552 1.391 . S
C553 C557 1.376 . S
C554 C552 1.394 . S
C554 C555 1.369 . S
C554 C558 1.531 . S
C555 C554 1.369 . S
C555 C556 1.410 . S
C555 C563 1.503 . S
C556 C555 1.410 . S
C556 C557 1.392 . S
C556 C559 1.511 . S
C557 C553 1.376 . S
C557 C556 1.392 . S
C557 H569 0.929 . S
C558 C554 1.531 . S
C558 H570 0.960 . S
C558 H571 0.962 . S
C558 H572 0.960 . S
C559 C556 1.511 . S
C559 H573 0.961 . S
C559 H574 0.961 . S
C559 H575 0.961 . S
C560 C561 1.370 . S
C560 C562 1.363 . S
C560 H576 0.931 . S
C561 C560 1.370 . S
C561 C565 1.408 . S
C562 C560 1.363 . S
C562 C563 1.370 . S
C562 C566 1.524 . S
C563 C555 1.503 . S
C563 C562 1.370 . S
C563 C564 1.403 . S
C564 C563 1.403 . S
C564 C565 1.404 . S
C564 C567 1.539 . S
C565 C561 1.408 . S
C565 C564 1.404 . S
C565 H577 0.930 . S
C566 C562 1.524 . S
C566 H578 0.956 . S
C566 H579 0.961 . S
C566 H580 0.961 . S
C567 C564 1.539 . S
C567 H581 0.958 . S
C567 H582 0.961 . S
C567 H583 0.960 . S
H568 C552 0.931 . S
H569 C557 0.929 . S
H570 C558 0.960 . S
H571 C558 0.962 . S
H572 C558 0.960 . S
H573 C559 0.961 . S
H574 C559 0.961 . S
H575 C559 0.961 . S
H576 C560 0.931 . S
H577 C565 0.930 . S
H578 C566 0.956 . S
H579 C566 0.961 . S
H580 C566 0.961 . S
H581 C567 0.958 . S
H582 C567 0.961 . S
H583 C567 0.960 . S
C584 C585 1.391 . S
C584 C586 1.394 . S
C584 H600 0.931 . S
C585 C584 1.391 . S
C585 C589 1.376 . S
C586 C584 1.394 . S
C586 C587 1.369 . S
C586 C590 1.531 . S
C587 C586 1.369 . S
C587 C588 1.410 . S
C587 C595 1.503 . S
C588 C587 1.410 . S
C588 C589 1.392 . S
C588 C591 1.511 . S
C589 C585 1.376 . S
C589 C588 1.392 . S
C589 H601 0.929 . S
C590 C586 1.531 . S
C590 H602 0.960 . S
C590 H603 0.962 . S
C590 H604 0.960 . S
C591 C588 1.511 . S
C591 H605 0.961 . S
C591 H606 0.961 . S
C591 H607 0.961 . S
C592 C593 1.370 . S
C592 C594 1.363 . S
C592 H608 0.931 . S
C593 C592 1.370 . S
C593 C597 1.408 . S
C594 C592 1.363 . S
C594 C595 1.370 . S
C594 C598 1.524 . S
C595 C587 1.503 . S
C595 C594 1.370 . S
C595 C596 1.403 . S
C596 C595 1.403 . S
C596 C597 1.404 . S
C596 C599 1.539 . S
C597 C593 1.408 . S
C597 C596 1.404 . S
C597 H609 0.930 . S
C598 C594 1.524 . S
C598 H610 0.956 . S
C598 H611 0.961 . S
C598 H612 0.961 . S
C599 C596 1.539 . S
C599 H613 0.958 . S
C599 H614 0.961 . S
C599 H615 0.960 . S
H600 C584 0.931 . S
H601 C589 0.929 . S
H602 C590 0.960 . S
H603 C590 0.962 . S
H604 C590 0.960 . S
H605 C591 0.961 . S
H606 C591 0.961 . S
H607 C591 0.961 . S
H608 C592 0.931 . S
H609 C597 0.930 . S
H610 C598 0.956 . S
H611 C598 0.961 . S
H612 C598 0.961 . S
H613 C599 0.958 . S
H614 C599 0.961 . S
H615 C599 0.960 . S
C616 C617 1.391 . S
C616 C618 1.394 . S
C616 H632 0.931 . S
C617 C616 1.391 . S
C617 C621 1.376 . S
C618 C616 1.394 . S
C618 C619 1.369 . S
C618 C622 1.531 . S
C619 C618 1.369 . S
C619 C620 1.410 . S
C619 C627 1.503 . S
C620 C619 1.410 . S
C620 C621 1.392 . S
C620 C623 1.511 . S
C621 C617 1.376 . S
C621 C620 1.392 . S
C621 H633 0.929 . S
C622 C618 1.531 . S
C622 H634 0.960 . S
C622 H635 0.962 . S
C622 H636 0.960 . S
C623 C620 1.511 . S
C623 H637 0.961 . S
C623 H638 0.961 . S
C623 H639 0.961 . S
C624 C625 1.370 . S
C624 C626 1.363 . S
C624 H640 0.931 . S
C625 C624 1.370 . S
C625 C629 1.408 . S
C626 C624 1.363 . S
C626 C627 1.370 . S
C626 C630 1.524 . S
C627 C619 1.503 . S
C627 C626 1.370 . S
C627 C628 1.403 . S
C628 C627 1.403 . S
C628 C629 1.404 . S
C628 C631 1.539 . S
C629 C625 1.408 . S
C629 C628 1.404 . S
C629 H641 0.930 . S
C630 C626 1.524 . S
C630 H642 0.956 . S
C630 H643 0.961 . S
C630 H644 0.961 . S
C631 C628 1.539 . S
C631 H645 0.958 . S
C631 H646 0.961 . S
C631 H647 0.960 . S
H632 C616 0.931 . S
H633 C621 0.929 . S
H634 C622 0.960 . S
H635 C622 0.962 . S
H636 C622 0.960 . S
H637 C623 0.961 . S
H638 C623 0.961 . S
H639 C623 0.961 . S
H640 C624 0.931 . S
H641 C629 0.930 . S
H642 C630 0.956 . S
H643 C630 0.961 . S
H644 C630 0.961 . S
H645 C631 0.958 . S
H646 C631 0.961 . S
H647 C631 0.960 . S
C648 C649 1.391 . S
C648 C650 1.394 . S
C648 H664 0.931 . S
C649 C648 1.391 . S
C649 C653 1.376 . S
C650 C648 1.394 . S
C650 C651 1.369 . S
C650 C654 1.531 . S
C651 C650 1.369 . S
C651 C652 1.410 . S
C651 C659 1.503 . S
C652 C651 1.410 . S
C652 C653 1.392 . S
C652 C655 1.511 . S
C653 C649 1.376 . S
C653 C652 1.392 . S
C653 H665 0.929 . S
C654 C650 1.531 . S
C654 H666 0.960 . S
C654 H667 0.962 . S
C654 H668 0.960 . S
C655 C652 1.511 . S
C655 H669 0.961 . S
C655 H670 0.961 . S
C655 H671 0.961 . S
C656 C657 1.370 . S
C656 C658 1.363 . S
C656 H672 0.931 . S
C657 C656 1.370 . S
C657 C661 1.408 . S
C658 C656 1.363 . S
C658 C659 1.370 . S
C658 C662 1.524 . S
C659 C651 1.503 . S
C659 C658 1.370 . S
C659 C660 1.403 . S
C660 C659 1.403 . S
C660 C661 1.404 . S
C660 C663 1.539 . S
C661 C657 1.408 . S
C661 C660 1.404 . S
C661 H673 0.930 . S
C662 C658 1.524 . S
C662 H674 0.956 . S
C662 H675 0.961 . S
C662 H676 0.961 . S
C663 C660 1.539 . S
C663 H677 0.958 . S
C663 H678 0.961 . S
C663 H679 0.960 . S
H664 C648 0.931 . S
H665 C653 0.929 . S
H666 C654 0.960 . S
H667 C654 0.962 . S
H668 C654 0.960 . S
H669 C655 0.961 . S
H670 C655 0.961 . S
H671 C655 0.961 . S
H672 C656 0.931 . S
H673 C661 0.930 . S
H674 C662 0.956 . S
H675 C662 0.961 . S
H676 C662 0.961 . S
H677 C663 0.958 . S
H678 C663 0.961 . S
H679 C663 0.960 . S
C680 C681 1.391 . S
C680 C682 1.394 . S
C680 H696 0.931 . S
C681 C680 1.391 . S
C681 C685 1.376 . S
C682 C680 1.394 . S
C682 C683 1.369 . S
C682 C686 1.531 . S
C683 C682 1.369 . S
C683 C684 1.410 . S
C683 C691 1.503 . S
C684 C683 1.410 . S
C684 C685 1.392 . S
C684 C687 1.511 . S
C685 C681 1.376 . S
C685 C684 1.392 . S
C685 H697 0.929 . S
C686 C682 1.531 . S
C686 H698 0.960 . S
C686 H699 0.962 . S
C686 H700 0.960 . S
C687 C684 1.511 . S
C687 H701 0.961 . S
C687 H702 0.961 . S
C687 H703 0.961 . S
C688 C689 1.370 . S
C688 C690 1.363 . S
C688 H704 0.931 . S
C689 C688 1.370 . S
C689 C693 1.408 . S
C690 C688 1.363 . S
C690 C691 1.370 . S
C690 C694 1.524 . S
C691 C683 1.503 . S
C691 C690 1.370 . S
C691 C692 1.403 . S
C692 C691 1.403 . S
C692 C693 1.404 . S
C692 C695 1.539 . S
C693 C689 1.408 . S
C693 C692 1.404 . S
C693 H705 0.930 . S
C694 C690 1.524 . S
C694 H706 0.956 . S
C694 H707 0.961 . S
C694 H708 0.961 . S
C695 C692 1.539 . S
C695 H709 0.958 . S
C695 H710 0.961 . S
C695 H711 0.960 . S
H696 C680 0.931 . S
H697 C685 0.929 . S
H698 C686 0.960 . S
H699 C686 0.962 . S
H700 C686 0.960 . S
H701 C687 0.961 . S
H702 C687 0.961 . S
H703 C687 0.961 . S
H704 C688 0.931 . S
H705 C693 0.930 . S
H706 C694 0.956 . S
H707 C694 0.961 . S
H708 C694 0.961 . S
H709 C695 0.958 . S
H710 C695 0.961 . S
H711 C695 0.960 . S
C712 C713 1.391 . S
C712 C714 1.394 . S
C712 H728 0.931 . S
C713 C712 1.391 . S
C713 C717 1.376 . S
C714 C712 1.394 . S
C714 C715 1.369 . S
C714 C718 1.531 . S
C715 C714 1.369 . S
C715 C716 1.410 . S
C715 C723 1.503 . S
C716 C715 1.410 . S
C716 C717 1.392 . S
C716 C719 1.511 . S
C717 C713 1.376 . S
C717 C716 1.392 . S
C717 H729 0.929 . S
C718 C714 1.531 . S
C718 H730 0.960 . S
C718 H731 0.962 . S
C718 H732 0.960 . S
C719 C716 1.511 . S
C719 H733 0.961 . S
C719 H734 0.961 . S
C719 H735 0.961 . S
C720 C721 1.370 . S
C720 C722 1.363 . S
C720 H736 0.931 . S
C721 C720 1.370 . S
C721 C725 1.408 . S
C722 C720 1.363 . S
C722 C723 1.370 . S
C722 C726 1.524 . S
C723 C715 1.503 . S
C723 C722 1.370 . S
C723 C724 1.403 . S
C724 C723 1.403 . S
C724 C725 1.404 . S
C724 C727 1.539 . S
C725 C721 1.408 . S
C725 C724 1.404 . S
C725 H737 0.930 . S
C726 C722 1.524 . S
C726 H738 0.956 . S
C726 H739 0.961 . S
C726 H740 0.961 . S
C727 C724 1.539 . S
C727 H741 0.958 . S
C727 H742 0.961 . S
C727 H743 0.960 . S
H728 C712 0.931 . S
H729 C717 0.929 . S
H730 C718 0.960 . S
H731 C718 0.962 . S
H732 C718 0.960 . S
H733 C719 0.961 . S
H734 C719 0.961 . S
H735 C719 0.961 . S
H736 C720 0.931 . S
H737 C725 0.930 . S
H738 C726 0.956 . S
H739 C726 0.961 . S
H740 C726 0.961 . S
H741 C727 0.958 . S
H742 C727 0.961 . S
H743 C727 0.960 . S
C744 C745 1.391 . S
C744 C746 1.394 . S
C744 H760 0.931 . S
C745 C744 1.391 . S
C745 C749 1.376 . S
C746 C744 1.394 . S
C746 C747 1.369 . S
C746 C750 1.531 . S
C747 C746 1.369 . S
C747 C748 1.410 . S
C747 C755 1.503 . S
C748 C747 1.410 . S
C748 C749 1.392 . S
C748 C751 1.511 . S
C749 C745 1.376 . S
C749 C748 1.392 . S
C749 H761 0.929 . S
C750 C746 1.531 . S
C750 H762 0.960 . S
C750 H763 0.962 . S
C750 H764 0.960 . S
C751 C748 1.511 . S
C751 H765 0.961 . S
C751 H766 0.961 . S
C751 H767 0.961 . S
C752 C753 1.370 . S
C752 C754 1.363 . S
C752 H768 0.931 . S
C753 C752 1.370 . S
C753 C757 1.408 . S
C754 C752 1.363 . S
C754 C755 1.370 . S
C754 C758 1.524 . S
C755 C747 1.503 . S
C755 C754 1.370 . S
C755 C756 1.403 . S
C756 C755 1.403 . S
C756 C757 1.404 . S
C756 C759 1.539 . S
C757 C753 1.408 . S
C757 C756 1.404 . S
C757 H769 0.930 . S
C758 C754 1.524 . S
C758 H770 0.956 . S
C758 H771 0.961 . S
C758 H772 0.961 . S
C759 C756 1.539 . S
C759 H773 0.958 . S
C759 H774 0.961 . S
C759 H775 0.960 . S
H760 C744 0.931 . S
H761 C749 0.929 . S
H762 C750 0.960 . S
H763 C750 0.962 . S
H764 C750 0.960 . S
H765 C751 0.961 . S
H766 C751 0.961 . S
H767 C751 0.961 . S
H768 C752 0.931 . S
H769 C757 0.930 . S
H770 C758 0.956 . S
H771 C758 0.961 . S
H772 C758 0.961 . S
H773 C759 0.958 . S
H774 C759 0.961 . S
H775 C759 0.960 . S
C776 C777 1.391 1_455 S
C776 C778 1.394 . S
C776 H792 0.931 . S
C777 C776 1.391 1_655 S
C777 C781 1.376 . S
C778 C776 1.394 . S
C778 C779 1.369 1_455 S
C778 C782 1.531 . S
C779 C778 1.369 1_655 S
C779 C780 1.410 . S
C779 C787 1.503 1_655 S
C780 C779 1.410 . S
C780 C781 1.392 . S
C780 C783 1.511 . S
C781 C777 1.376 . S
C781 C780 1.392 . S
C781 H793 0.929 . S
C782 C778 1.531 . S
C782 H794 0.960 . S
C782 H795 0.962 . S
C782 H796 0.960 . S
C783 C780 1.511 . S
C783 H797 0.961 . S
C783 H798 0.961 . S
C783 H799 0.961 . S
C784 C785 1.370 . S
C784 C786 1.363 . S
C784 H800 0.931 . S
C785 C784 1.370 . S
C785 C789 1.408 . S
C786 C784 1.363 . S
C786 C787 1.370 . S
C786 C790 1.524 . S
C787 C779 1.503 1_455 S
C787 C786 1.370 . S
C787 C788 1.403 . S
C788 C787 1.403 . S
C788 C789 1.404 . S
C788 C791 1.539 1_455 S
C789 C785 1.408 . S
C789 C788 1.404 . S
C789 H801 0.930 . S
C790 C786 1.524 . S
C790 H802 0.956 . S
C790 H803 0.961 1_455 S
C790 H804 0.961 . S
C791 C788 1.539 1_655 S
C791 H805 0.958 1_655 S
C791 H806 0.961 . S
C791 H807 0.960 . S
H792 C776 0.931 . S
H793 C781 0.929 . S
H794 C782 0.960 . S
H795 C782 0.962 . S
H796 C782 0.960 . S
H797 C783 0.961 . S
H798 C783 0.961 . S
H799 C783 0.961 . S
H800 C784 0.931 . S
H801 C789 0.930 . S
H802 C790 0.956 . S
H803 C790 0.961 1_655 S
H804 C790 0.961 . S
H805 C791 0.958 1_455 S
H806 C791 0.961 . S
H807 C791 0.960 . S
C808 C809 1.391 . S
C808 C810 1.394 . S
C808 H824 0.931 . S
C809 C808 1.391 . S
C809 C813 1.376 . S
C810 C808 1.394 . S
C810 C811 1.369 . S
C810 C814 1.531 . S
C811 C810 1.369 . S
C811 C812 1.405 1_545 S
C811 C819 1.503 1_544 S
C812 C811 1.405 1_565 S
C812 C813 1.391 1_565 S
C812 C815 1.517 . S
C813 C809 1.376 . S
C813 C812 1.391 1_545 S
C813 H825 0.929 . S
C814 C810 1.531 . S
C814 H826 0.960 1_554 S
C814 H827 0.962 . S
C814 H828 0.960 . S
C815 C812 1.517 . S
C815 H829 0.961 . S
C815 H830 0.961 . S
C815 H831 0.961 . S
C816 C817 1.370 . S
C816 C818 1.363 . S
C816 H832 0.931 . S
C817 C816 1.370 . S
C817 C821 1.408 1_565 S
C818 C816 1.363 . S
C818 C819 1.370 . S
C818 C822 1.484 1_556 S
C819 C811 1.503 1_566 S
C819 C818 1.370 . S
C819 C820 1.403 1_565 S
C820 C819 1.403 1_545 S
C820 C821 1.404 . S
C820 C823 1.539 . S
C821 C817 1.408 1_545 S
C821 C820 1.404 . S
C821 H833 0.930 . S
C822 C818 1.484 1_554 S
C822 H834 0.976 . S
C822 H835 1.003 . S
C822 H836 0.942 1_554 S
C823 C820 1.539 . S
C823 H837 0.958 . S
C823 H838 0.961 . S
C823 H839 0.960 . S
H824 C808 0.931 . S
H825 C813 0.929 . S
H826 C814 0.960 1_556 S
H827 C814 0.962 . S
H828 C814 0.960 . S
H829 C815 0.961 . S
H830 C815 0.961 . S
H831 C815 0.961 . S
H832 C816 0.931 . S
H833 C821 0.930 . S
H834 C822 0.976 . S
H835 C822 1.003 . S
H836 C822 0.942 1_556 S
H837 C823 0.958 . S
H838 C823 0.961 . S
H839 C823 0.960 . S
C840 C841 1.391 . S
C840 C842 1.394 . S
C840 H856 0.931 . S
C841 C840 1.391 . S
C841 C845 1.376 . S
C842 C840 1.394 . S
C842 C843 1.369 . S
C842 C846 1.531 . S
C843 C842 1.369 . S
C843 C844 1.410 . S
C843 C851 1.503 . S
C844 C843 1.410 . S
C844 C845 1.392 . S
C844 C847 1.511 . S
C845 C841 1.376 . S
C845 C844 1.392 . S
C845 H857 0.929 . S
C846 C842 1.531 . S
C846 H858 0.960 . S
C846 H859 0.962 . S
C846 H860 0.960 . S
C847 C844 1.511 . S
C847 H861 0.961 . S
C847 H862 0.961 . S
C847 H863 0.961 . S
C848 C849 1.370 . S
C848 C850 1.363 . S
C848 H864 0.931 . S
C849 C848 1.370 . S
C849 C853 1.408 . S
C850 C848 1.363 . S
C850 C851 1.370 . S
C850 C854 1.524 . S
C851 C843 1.503 . S
C851 C850 1.370 . S
C851 C852 1.403 . S
C852 C851 1.403 . S
C852 C853 1.404 . S
C852 C855 1.539 . S
C853 C849 1.408 . S
C853 C852 1.404 . S
C853 H865 0.930 . S
C854 C850 1.524 . S
C854 H866 0.956 . S
C854 H867 0.961 . S
C854 H868 0.961 . S
C855 C852 1.539 . S
C855 H869 0.958 . S
C855 H870 0.961 . S
C855 H871 0.960 . S
H856 C840 0.931 . S
H857 C845 0.929 . S
H858 C846 0.960 . S
H859 C846 0.962 . S
H860 C846 0.960 . S
H861 C847 0.961 . S
H862 C847 0.961 . S
H863 C847 0.961 . S
H864 C848 0.931 . S
H865 C853 0.930 . S
H866 C854 0.956 . S
H867 C854 0.961 . S
H868 C854 0.961 . S
H869 C855 0.958 . S
H870 C855 0.961 . S
H871 C855 0.960 . S
C872 C873 1.391 1_655 S
C872 C874 1.394 . S
C872 H888 0.931 . S
C873 C872 1.391 1_455 S
C873 C877 1.376 . S
C874 C872 1.394 . S
C874 C875 1.369 1_655 S
C874 C878 1.531 . S
C875 C874 1.369 1_455 S
C875 C876 1.410 . S
C875 C883 1.503 1_455 S
C876 C875 1.410 . S
C876 C877 1.392 . S
C876 C879 1.511 . S
C877 C873 1.376 . S
C877 C876 1.392 . S
C877 H889 0.929 . S
C878 C874 1.531 . S
C878 H890 0.960 . S
C878 H891 0.962 . S
C878 H892 0.960 . S
C879 C876 1.511 . S
C879 H893 0.961 . S
C879 H894 0.961 . S
C879 H895 0.961 . S
C880 C881 1.370 . S
C880 C882 1.363 . S
C880 H896 0.931 . S
C881 C880 1.370 . S
C881 C885 1.408 . S
C882 C880 1.363 . S
C882 C883 1.370 . S
C882 C886 1.524 . S
C883 C875 1.503 1_655 S
C883 C882 1.370 . S
C883 C884 1.403 . S
C884 C883 1.403 . S
C884 C885 1.404 . S
C884 C887 1.539 . S
C885 C881 1.408 . S
C885 C884 1.404 . S
C885 H897 0.930 . S
C886 C882 1.524 . S
C886 H898 0.956 . S
C886 H899 0.961 1_655 S
C886 H900 0.961 . S
C887 C884 1.539 . S
C887 H901 0.958 . S
C887 H902 0.961 . S
C887 H903 0.960 1_655 S
H888 C872 0.931 . S
H889 C877 0.929 . S
H890 C878 0.960 . S
H891 C878 0.962 . S
H892 C878 0.960 . S
H893 C879 0.961 . S
H894 C879 0.961 . S
H895 C879 0.961 . S
H896 C880 0.931 . S
H897 C885 0.930 . S
H898 C886 0.956 . S
H899 C886 0.961 1_455 S
H900 C886 0.961 . S
H901 C887 0.958 . S
H902 C887 0.961 . S
H903 C887 0.960 1_455 S
C904 C905 1.391 . S
C904 C906 1.394 . S
C904 H920 0.931 . S
C905 C904 1.391 . S
C905 C909 1.376 . S
C906 C904 1.394 . S
C906 C907 1.369 . S
C906 C910 1.531 . S
C907 C906 1.369 . S
C907 C908 1.410 . S
C907 C915 1.503 1_564 S
C908 C907 1.410 . S
C908 C909 1.392 . S
C908 C911 1.510 1_565 S
C909 C905 1.376 . S
C909 C908 1.392 . S
C909 H921 0.929 . S
C910 C906 1.531 . S
C910 H922 0.960 1_554 S
C910 H923 0.962 . S
C910 H924 0.960 . S
C911 C908 1.510 1_545 S
C911 H925 0.961 . S
C911 H926 0.961 . S
C911 H927 0.961 . S
C912 C913 1.370 . S
C912 C914 1.363 . S
C912 H928 0.931 . S
C913 C912 1.370 . S
C913 C917 1.408 1_545 S
C914 C912 1.363 . S
C914 C915 1.370 . S
C914 C918 1.524 1_556 S
C915 C907 1.503 1_546 S
C915 C914 1.370 . S
C915 C916 1.403 1_545 S
C916 C915 1.403 1_565 S
C916 C917 1.404 . S
C916 C919 1.539 . S
C917 C913 1.408 1_565 S
C917 C916 1.404 . S
C917 H929 0.930 . S
C918 C914 1.524 1_554 S
C918 H930 0.956 . S
C918 H931 0.961 . S
C918 H932 0.961 1_554 S
C919 C916 1.539 . S
C919 H933 0.958 . S
C919 H934 0.961 . S
C919 H935 0.960 . S
H920 C904 0.931 . S
H921 C909 0.929 . S
H922 C910 0.960 1_556 S
H923 C910 0.962 . S
H924 C910 0.960 . S
H925 C911 0.961 . S
H926 C911 0.961 . S
H927 C911 0.961 . S
H928 C912 0.931 . S
H929 C917 0.930 . S
H930 C918 0.956 . S
H931 C918 0.961 . S
H932 C918 0.961 1_556 S
H933 C919 0.958 . S
H934 C919 0.961 . S
H935 C919 0.960 . S
C169 C165 1.642 . S
C177 C11 1.668 . S
C201 C25 1.675 . S
C209 C95 1.659 . S
C233 C39 1.679 . S
C241 C109 1.662 . S
C265 C53 1.671 . S
C273 C123 1.657 . S
C297 C137 1.641 . S
C305 C67 1.667 . S
C329 C81 1.678 . S
C337 C151 1.665 . S
C361 C47 1.218 . S
C369 C5 1.196 . S
C393 C61 1.216 . S
C401 C19 1.198 . S
C425 C75 1.217 . S
C433 C33 1.197 . S
C457 C89 1.218 . S
C465 C131 1.193 . S
C489 C103 1.179 . S
C497 C145 1.201 . S
C521 C117 1.214 . S
C529 C159 1.199 . S
C553 C121 0.474 . S
C561 C9 0.498 . S
C585 C23 0.476 . S
C593 C135 0.497 . S
C617 C149 0.550 . S
C625 C37 0.511 . S
C649 C163 0.480 . S
C657 C51 0.515 . S
C681 C93 0.557 . S
C689 C65 0.534 . S
C713 C79 0.541 . S
C721 C107 0.506 . S
C745 C126 1.645 . S
C753 C0 1.630 . S
C777 C14 1.623 . S
C785 C140 1.625 . S
C809 C154 1.652 . S
C817 C28 1.625 . S
C841 C42 1.645 . S
C849 C84 1.620 . S
C873 C56 1.619 . S
C881 C98 1.627 . S
C905 C112 1.652 . S
C913 C70 1.625 . S
