# Generated by pormake.
# Topology wkl, (6)-cn, num edge types: 1
# Building blocks:
#     Node 0, Type 0, BuildingBlock: OJICUG_clean_sbu_0, # of connection points: 6
#     Node 1, Type 0, BuildingBlock: OJICUG_clean_sbu_0, # of connection points: 6
#     Node 2, Type 0, BuildingBlock: OJICUG_clean_sbu_0, # of connection points: 6
#     Node 3, Type 0, BuildingBlock: OJICUG_clean_sbu_0, # of connection points: 6
#     Node 4, Type 0, BuildingBlock: OJICUG_clean_sbu_0, # of connection points: 6
#     Node 5, Type 0, BuildingBlock: OJICUG_clean_sbu_0, # of connection points: 6
#     Node 6, Type 0, BuildingBlock: OJICUG_clean_sbu_0, # of connection points: 6
#     Node 7, Type 0, BuildingBlock: OJICUG_clean_sbu_0, # of connection points: 6
#     Node 8, Type 0, BuildingBlock: OJICUG_clean_sbu_0, # of connection points: 6
#     Node 9, Type 0, BuildingBlock: OJICUG_clean_sbu_0, # of connection points: 6
#     Node 10, Type 0, BuildingBlock: OJICUG_clean_sbu_0, # of connection points: 6
#     Node 11, Type 0, BuildingBlock: OJICUG_clean_sbu_0, # of connection points: 6
#     Edge 12, Type (0, 0), BuildingBlock: OJICUG_clean_linker_0, # of connection points: 2
#     Edge 13, Type (0, 0), BuildingBlock: OJICUG_clean_linker_0, # of connection points: 2
#     Edge 14, Type (0, 0), BuildingBlock: OJICUG_clean_linker_0, # of connection points: 2
#     Edge 15, Type (0, 0), BuildingBlock: OJICUG_clean_linker_0, # of connection points: 2
#     Edge 16, Type (0, 0), BuildingBlock: OJICUG_clean_linker_0, # of connection points: 2
#     Edge 17, Type (0, 0), BuildingBlock: OJICUG_clean_linker_0, # of connection points: 2
#     Edge 18, Type (0, 0), BuildingBlock: OJICUG_clean_linker_0, # of connection points: 2
#     Edge 19, Type (0, 0), BuildingBlock: OJICUG_clean_linker_0, # of connection points: 2
#     Edge 20, Type (0, 0), BuildingBlock: OJICUG_clean_linker_0, # of connection points: 2
#     Edge 21, Type (0, 0), BuildingBlock: OJICUG_clean_linker_0, # of connection points: 2
#     Edge 22, Type (0, 0), BuildingBlock: OJICUG_clean_linker_0, # of connection points: 2
#     Edge 23, Type (0, 0), BuildingBlock: OJICUG_clean_linker_0, # of connection points: 2
#     Edge 24, Type (0, 0), BuildingBlock: OJICUG_clean_linker_0, # of connection points: 2
#     Edge 25, Type (0, 0), BuildingBlock: OJICUG_clean_linker_0, # of connection points: 2
#     Edge 26, Type (0, 0), BuildingBlock: OJICUG_clean_linker_0, # of connection points: 2
#     Edge 27, Type (0, 0), BuildingBlock: OJICUG_clean_linker_0, # of connection points: 2
#     Edge 28, Type (0, 0), BuildingBlock: OJICUG_clean_linker_0, # of connection points: 2
#     Edge 29, Type (0, 0), BuildingBlock: OJICUG_clean_linker_0, # of connection points: 2
#     Edge 30, Type (0, 0), BuildingBlock: OJICUG_clean_linker_0, # of connection points: 2
#     Edge 31, Type (0, 0), BuildingBlock: OJICUG_clean_linker_0, # of connection points: 2
#     Edge 32, Type (0, 0), BuildingBlock: OJICUG_clean_linker_0, # of connection points: 2
#     Edge 33, Type (0, 0), BuildingBlock: OJICUG_clean_linker_0, # of connection points: 2
#     Edge 34, Type (0, 0), BuildingBlock: OJICUG_clean_linker_0, # of connection points: 2
#     Edge 35, Type (0, 0), BuildingBlock: OJICUG_clean_linker_0, # of connection points: 2
#     Edge 36, Type (0, 0), BuildingBlock: OJICUG_clean_linker_0, # of connection points: 2
#     Edge 37, Type (0, 0), BuildingBlock: OJICUG_clean_linker_0, # of connection points: 2
#     Edge 38, Type (0, 0), BuildingBlock: OJICUG_clean_linker_0, # of connection points: 2
#     Edge 39, Type (0, 0), BuildingBlock: OJICUG_clean_linker_0, # of connection points: 2
#     Edge 40, Type (0, 0), BuildingBlock: OJICUG_clean_linker_0, # of connection points: 2
#     Edge 41, Type (0, 0), BuildingBlock: OJICUG_clean_linker_0, # of connection points: 2
#     Edge 42, Type (0, 0), BuildingBlock: OJICUG_clean_linker_0, # of connection points: 2
#     Edge 43, Type (0, 0), BuildingBlock: OJICUG_clean_linker_0, # of connection points: 2
#     Edge 44, Type (0, 0), BuildingBlock: OJICUG_clean_linker_0, # of connection points: 2
#     Edge 45, Type (0, 0), BuildingBlock: OJICUG_clean_linker_0, # of connection points: 2
#     Edge 46, Type (0, 0), BuildingBlock: OJICUG_clean_linker_0, # of connection points: 2
#     Edge 47, Type (0, 0), BuildingBlock: OJICUG_clean_linker_0, # of connection points: 2
# Relax obj value: 0.345
# Max RMSD: 0.288
# Mean RMSD: 0.288
data_MOF--net-wkl--node1-OJICUG_clean_sbu_0--edge1-OJICUG_clean_linker_0
_symmetry_space_group_name_H-M    P1
_symmetry_Int_Tables_number       1
_symmetry_cell_setting            triclinic
loop_
_symmetry_equiv_pos_as_xyz
'x, y, z'
_cell_length_a     54.861325
_cell_length_b     55.031254
_cell_length_c     11.676504
_cell_angle_alpha  90.01232
_cell_angle_beta   89.98427
_cell_angle_gamma 119.85517
loop_
_atom_site_label
_atom_site_type_symbol
_atom_site_fract_x
_atom_site_fract_y
_atom_site_fract_z
_atom_type_partial_charge
Sc0 Sc 0.47495 0.09978 0.15466 0.0
Sc1 Sc 0.48445 0.15065 0.95952 0.0
Sc2 Sc 0.41793 0.10572 0.06373 0.0
O3 O 0.45897 0.11859 0.06029 0.0
C4 C 0.41897 0.04853 0.07114 0.0
C5 C 0.50548 0.10949 0.9106 0.0
C6 C 0.43042 0.11912 0.8059 0.0
C7 C 0.52488 0.15892 0.17133 0.0
C8 C 0.43008 0.10206 0.32347 0.0
C9 C 0.44789 0.17228 0.06636 0.0
O10 O 0.44526 0.05997 0.08762 0.0
O11 O 0.49543 0.12396 0.86854 0.0
O12 O 0.41608 0.10063 0.8803 0.0
O13 O 0.50547 0.13896 0.22737 0.0
O14 O 0.41874 0.10988 0.24767 0.0
O15 O 0.47272 0.17661 0.05134 0.0
O16 O 0.4481 0.09459 0.29999 0.0
O17 O 0.52136 0.16379 0.06785 0.0
O18 O 0.42598 0.14836 0.05245 0.0
O19 O 0.50345 0.10305 0.01686 0.0
O20 O 0.40567 0.06197 0.07511 0.0
O21 O 0.45226 0.14203 0.83226 0.0
Sc22 Sc 0.37019 0.48278 0.30166 0.0
Sc23 Sc 0.34383 0.50997 0.10187 0.0
Sc24 Sc 0.3022 0.4421 0.20094 0.0
O25 O 0.33882 0.47805 0.20135 0.0
C26 C 0.34625 0.42086 0.22696 0.0
C27 C 0.40023 0.51192 0.0638 0.0
C28 C 0.3074 0.45711 0.94396 0.0
C29 C 0.37943 0.54241 0.32205 0.0
C30 C 0.31646 0.44911 0.46247 0.0
C31 C 0.28558 0.48946 0.20531 0.0
O32 O 0.36738 0.44519 0.23957 0.0
O33 O 0.37824 0.50972 0.0172 0.0
O34 O 0.30502 0.43914 0.01808 0.0
O35 O 0.37399 0.52012 0.3743 0.0
O36 O 0.2983 0.44391 0.38446 0.0
O37 O 0.30984 0.51041 0.18875 0.0
O38 O 0.34265 0.46006 0.44248 0.0
O39 O 0.37334 0.54245 0.21695 0.0
O40 O 0.27933 0.46428 0.18438 0.0
O41 O 0.40127 0.50637 0.16948 0.0
O42 O 0.32111 0.41604 0.21993 0.0
O43 O 0.31571 0.48254 0.96965 0.0
Sc44 Sc 0.8974 0.35858 0.45656 0.0
Sc45 Sc 0.84661 0.32607 0.25203 0.0
Sc46 Sc 0.88207 0.29297 0.35623 0.0
O47 O 0.87531 0.32558 0.35542 0.0
C48 C 0.94316 0.34648 0.36255 0.0
C49 C 0.89246 0.387 0.22555 0.0
C50 C 0.8716 0.29631 0.09583 0.0
C51 C 0.84038 0.3549 0.48024 0.0
C52 C 0.88891 0.30788 0.61589 0.0
C53 C 0.81516 0.26559 0.34589 0.0
O54 O 0.93465 0.36377 0.38094 0.0
O55 O 0.87788 0.36386 0.17416 0.0
O56 O 0.8873 0.29514 0.17295 0.0
O57 O 0.85981 0.35348 0.53334 0.0
O58 O 0.87735 0.28912 0.53946 0.0
O59 O 0.81542 0.28842 0.32672 0.0
O60 O 0.90055 0.33394 0.59411 0.0
O61 O 0.83604 0.34963 0.3734 0.0
O62 O 0.83724 0.26332 0.34419 0.0
O63 O 0.89739 0.38832 0.33278 0.0
O64 O 0.92749 0.31994 0.36848 0.0
O65 O 0.85295 0.30298 0.11664 0.0
Sc66 Sc 0.49777 0.87923 0.65261 0.0
Sc67 Sc 0.48829 0.82844 0.45707 0.0
Sc68 Sc 0.5548 0.87333 0.5614 0.0
O69 O 0.51376 0.86047 0.55802 0.0
C70 C 0.55374 0.93052 0.56942 0.0
C71 C 0.46732 0.86965 0.4085 0.0
C72 C 0.54234 0.85997 0.30356 0.0
C73 C 0.44783 0.82012 0.66887 0.0
C74 C 0.54264 0.87694 0.8212 0.0
C75 C 0.52481 0.80676 0.56355 0.0
O76 O 0.52745 0.91907 0.5859 0.0
O77 O 0.47737 0.85519 0.3663 0.0
O78 O 0.55666 0.87846 0.37799 0.0
O79 O 0.46726 0.84001 0.72506 0.0
O80 O 0.55399 0.86915 0.74532 0.0
O81 O 0.49998 0.80244 0.54868 0.0
O82 O 0.5246 0.88439 0.79785 0.0
O83 O 0.45134 0.8153 0.5653 0.0
O84 O 0.54672 0.83068 0.54986 0.0
O85 O 0.46929 0.87602 0.51484 0.0
O86 O 0.56705 0.91708 0.57305 0.0
O87 O 0.5205 0.83706 0.32988 0.0
Sc88 Sc 0.60229 0.49618 0.80749 0.0
Sc89 Sc 0.62858 0.46894 0.60735 0.0
Sc90 Sc 0.67029 0.53685 0.70644 0.0
O91 O 0.63366 0.50089 0.707 0.0
C92 C 0.6262 0.55807 0.73163 0.0
C93 C 0.57215 0.46698 0.56993 0.0
C94 C 0.66508 0.52178 0.44929 0.0
C95 C 0.5931 0.43656 0.82796 0.0
C96 C 0.65601 0.52994 0.96807 0.0
C97 C 0.68693 0.48941 0.71005 0.0
O98 O 0.6051 0.53377 0.74534 0.0
O99 O 0.59412 0.46917 0.52318 0.0
O100 O 0.66759 0.53977 0.52355 0.0
O101 O 0.59848 0.45885 0.88014 0.0
O102 O 0.67417 0.53518 0.88998 0.0
O103 O 0.66267 0.46848 0.69321 0.0
O104 O 0.62981 0.51891 0.94824 0.0
O105 O 0.59919 0.4365 0.72286 0.0
O106 O 0.69316 0.51465 0.69085 0.0
O107 O 0.57114 0.47256 0.67559 0.0
O108 O 0.65134 0.5629 0.72436 0.0
O109 O 0.65657 0.4963 0.47471 0.0
Sc110 Sc 0.07543 0.61998 0.96145 0.0
Sc111 Sc 0.12624 0.65253 0.75691 0.0
Sc112 Sc 0.09067 0.68555 0.86086 0.0
O113 O 0.09751 0.65298 0.86024 0.0
C114 C 0.02966 0.63196 0.86674 0.0
C115 C 0.08047 0.59154 0.73067 0.0
C116 C 0.10118 0.68217 0.60048 0.0
C117 C 0.1325 0.62378 0.98535 0.0
C118 C 0.08382 0.67068 0.12057 0.0
C119 C 0.15759 0.71307 0.8502 0.0
O120 O 0.0382 0.61472 0.88552 0.0
O121 O 0.09503 0.61467 0.67921 0.0
O122 O 0.08547 0.68335 0.67759 0.0
O123 O 0.11303 0.62516 0.03839 0.0
O124 O 0.09536 0.68943 0.0441 0.0
O125 O 0.15739 0.69025 0.8313 0.0
O126 O 0.07219 0.64462 0.09884 0.0
O127 O 0.13686 0.62906 0.87852 0.0
O128 O 0.13547 0.71527 0.84871 0.0
O129 O 0.07553 0.59024 0.83789 0.0
O130 O 0.04526 0.65851 0.87285 0.0
O131 O 0.11984 0.67551 0.62131 0.0
Sc132 Sc 0.84932 0.53583 0.84196 0.0
Sc133 Sc 0.82385 0.46786 0.93807 0.0
Sc134 Sc 0.87706 0.4958 0.7367 0.0
O135 O 0.85025 0.49998 0.83872 0.0
C136 C 0.85615 0.52941 0.58 0.0
C137 C 0.78467 0.48843 0.85555 0.0
C138 C 0.82672 0.4361 0.714 0.0
C139 C 0.84057 0.52069 0.0987 0.0
C140 C 0.91457 0.55753 0.81259 0.0
C141 C 0.87869 0.46604 0.97076 0.0
O142 O 0.84276 0.53385 0.65872 0.0
O143 O 0.78849 0.46751 0.85966 0.0
O144 O 0.84376 0.45851 0.66282 0.0
O145 O 0.8558 0.53884 0.02442 0.0
O146 O 0.91161 0.53328 0.80051 0.0
O147 O 0.8588 0.46784 0.01841 0.0
O148 O 0.89411 0.56214 0.81925 0.0
O149 O 0.8241 0.49507 0.07354 0.0
O150 O 0.88512 0.47188 0.86525 0.0
O151 O 0.8045 0.51369 0.86529 0.0
O152 O 0.8719 0.51896 0.59878 0.0
O153 O 0.82029 0.43578 0.81896 0.0
Sc154 Sc 0.30174 0.87473 0.95942 0.0
Sc155 Sc 0.32325 0.82973 0.06412 0.0
Sc156 Sc 0.36448 0.8802 0.86773 0.0
O157 O 0.32979 0.86167 0.96271 0.0
C158 C 0.3174 0.87828 0.69964 0.0
C159 C 0.26491 0.80808 0.95944 0.0
C160 C 0.3549 0.82092 0.85157 0.0
C161 C 0.30089 0.86151 0.21747 0.0
C162 C 0.36016 0.93169 0.95134 0.0
C163 C 0.38549 0.87057 0.11131 0.0
O164 O 0.29829 0.8705 0.77556 0.0
O165 O 0.28543 0.80374 0.97385 0.0
O166 O 0.3555 0.84088 0.79529 0.0
O167 O 0.30502 0.87994 0.14279 0.0
O168 O 0.37486 0.92008 0.93471 0.0
O169 O 0.36103 0.85642 0.15403 0.0
O170 O 0.33342 0.91843 0.94761 0.0
O171 O 0.29995 0.83863 0.19167 0.0
O172 O 0.38978 0.87677 1.00484 0.0
O173 O 0.26705 0.83212 0.97139 0.0
O174 O 0.34285 0.88559 0.72288 0.0
O175 O 0.3467 0.81625 0.95534 0.0
Sc176 Sc 0.3954 0.29327 0.18642 0.0
Sc177 Sc 0.46398 0.32645 0.29025 0.0
Sc178 Sc 0.44548 0.35884 0.08575 0.0
O179 O 0.43471 0.32591 0.18715 0.0
C180 C 0.40328 0.30815 0.92682 0.0
C181 C 0.435 0.26595 0.19584 0.0
C182 C 0.49868 0.35498 0.06117 0.0
C183 C 0.40932 0.29671 0.4469 0.0
C184 C 0.38775 0.34681 0.18041 0.0
C185 C 0.47925 0.38747 0.31574 0.0
O186 O 0.39623 0.28941 1.00321 0.0
O187 O 0.45751 0.28874 0.2159 0.0
O188 O 0.47778 0.35355 1.00843 0.0
O189 O 0.39239 0.29539 0.36976 0.0
O190 O 0.41352 0.36411 0.16208 0.0
O191 O 0.47063 0.36438 0.36765 0.0
O192 O 0.37692 0.32026 0.17446 0.0
O193 O 0.43468 0.30353 0.42613 0.0
O194 O 0.47546 0.38866 0.20861 0.0
O195 O 0.41064 0.26365 0.19775 0.0
O196 O 0.41752 0.33421 0.94867 0.0
O197 O 0.49789 0.34983 0.16808 0.0
Sc198 Sc 0.12364 0.4428 0.34613 0.0
Sc199 Sc 0.14909 0.51073 0.44247 0.0
Sc200 Sc 0.09587 0.48281 0.24131 0.0
O201 O 0.12268 0.47863 0.34312 0.0
C202 C 0.11683 0.44928 0.08426 0.0
C203 C 0.18826 0.49021 0.35911 0.0
C204 C 0.14616 0.54255 0.21878 0.0
C205 C 0.13238 0.45789 0.60285 0.0
C206 C 0.05839 0.42104 0.31637 0.0
C207 C 0.09425 0.5125 0.47569 0.0
O208 O 0.13024 0.44484 0.16289 0.0
O209 O 0.18441 0.51111 0.3634 0.0
O210 O 0.12915 0.52014 0.16751 0.0
O211 O 0.11711 0.43976 0.52859 0.0
O212 O 0.06133 0.4453 0.30495 0.0
O213 O 0.11415 0.51071 0.52318 0.0
O214 O 0.07887 0.41646 0.32299 0.0
O215 O 0.14891 0.4835 0.57763 0.0
O216 O 0.0878 0.50668 0.37017 0.0
O217 O 0.16847 0.46496 0.36956 0.0
O218 O 0.10106 0.4597 0.10319 0.0
O219 O 0.15259 0.54285 0.32371 0.0
Sc220 Sc 0.67105 0.10444 0.46076 0.0
Sc221 Sc 0.64968 0.14954 0.56563 0.0
Sc222 Sc 0.60835 0.09908 0.36937 0.0
O223 O 0.64305 0.11756 0.46423 0.0
C224 C 0.65538 0.10095 0.20102 0.0
C225 C 0.70795 0.17105 0.46036 0.0
C226 C 0.61797 0.15837 0.35345 0.0
C227 C 0.67195 0.11769 0.71879 0.0
C228 C 0.6126 0.04752 0.45247 0.0
C229 C 0.58743 0.10877 0.61318 0.0
O230 O 0.67449 0.10868 0.27689 0.0
O231 O 0.68748 0.17546 0.47497 0.0
O232 O 0.61738 0.13842 0.29707 0.0
O233 O 0.66775 0.09922 0.64413 0.0
O234 O 0.59792 0.05916 0.4361 0.0
O235 O 0.6119 0.12291 0.65578 0.0
O236 O 0.63933 0.06077 0.44881 0.0
O237 O 0.67299 0.14062 0.69293 0.0
O238 O 0.5831 0.10253 0.50673 0.0
O239 O 0.70578 0.14701 0.47271 0.0
O240 O 0.62994 0.09368 0.22434 0.0
O241 O 0.6262 0.16304 0.45716 0.0
Sc242 Sc 0.57717 0.68554 0.68089 0.0
Sc243 Sc 0.50857 0.65235 0.78449 0.0
Sc244 Sc 0.5271 0.61998 0.5799 0.0
O245 O 0.53786 0.65291 0.68143 0.0
C246 C 0.56938 0.67067 0.42122 0.0
C247 C 0.5376 0.7129 0.69043 0.0
C248 C 0.47394 0.62391 0.55511 0.0
C249 C 0.56318 0.68207 0.94139 0.0
C250 C 0.58475 0.63196 0.67542 0.0
C251 C 0.49322 0.59132 0.8096 0.0
O252 O 0.57641 0.6894 0.49767 0.0
O253 O 0.51509 0.69012 0.7105 0.0
O254 O 0.49485 0.62532 0.50242 0.0
O255 O 0.58014 0.68345 0.86423 0.0
O256 O 0.559 0.61468 0.65654 0.0
O257 O 0.50186 0.61439 0.86164 0.0
O258 O 0.59562 0.65851 0.66939 0.0
O259 O 0.53781 0.67519 0.92063 0.0
O260 O 0.49703 0.59014 0.70247 0.0
O261 O 0.56195 0.71518 0.69207 0.0
O262 O 0.55513 0.64461 0.44299 0.0
O263 O 0.47471 0.62905 0.66203 0.0
C264 C 0.42709 0.13349 0.60615 0.0
C265 C 0.42427 0.11265 0.68324 0.0
H266 H 0.43003 0.14589 0.43013 0.0
C267 C 0.41993 0.08695 0.64037 0.0
H268 H 0.4307 0.15355 0.63741 0.0
C269 C 0.42052 0.08294 0.52234 0.0
C270 C 0.42444 0.10419 0.44538 0.0
H271 H 0.41814 0.07074 0.69819 0.0
H272 H 0.41891 0.06364 0.4913 0.0
C273 C 0.42666 0.12909 0.48793 0.0
C274 C 0.29246 0.46141 0.74648 0.0
C275 C 0.30365 0.44952 0.82163 0.0
H276 H 0.28676 0.46948 0.5715 0.0
C277 C 0.31515 0.43375 0.77664 0.0
H278 H 0.28356 0.47372 0.77939 0.0
C279 C 0.31768 0.43203 0.65824 0.0
C280 C 0.30785 0.44519 0.58329 0.0
H281 H 0.32417 0.42464 0.83282 0.0
H282 H 0.32854 0.42158 0.62525 0.0
C283 C 0.29415 0.45887 0.62793 0.0
C284 C 0.85934 0.28069 0.78104 0.0
C285 C 0.88598 0.29964 0.73707 0.0
H286 H 0.83379 0.26503 0.9318 0.0
C287 C 0.90865 0.31401 0.81264 0.0
H288 H 0.84151 0.26967 0.72423 0.0
C289 C 0.90441 0.31065 0.93093 0.0
C290 C 0.87728 0.29364 0.97491 0.0
H291 H 0.92933 0.32884 0.78027 0.0
H292 H 0.92187 0.32313 0.98779 0.0
C293 C 0.85492 0.27809 0.89936 0.0
C294 C 0.5457 0.84559 0.10386 0.0
C295 C 0.54852 0.86643 0.18092 0.0
H296 H 0.54275 0.83316 0.92787 0.0
C297 C 0.55284 0.89212 0.13802 0.0
H298 H 0.54211 0.82553 0.13515 0.0
C299 C 0.55224 0.8961 0.01999 0.0
C300 C 0.54831 0.87484 0.94307 0.0
H301 H 0.55463 0.90834 0.19582 0.0
H302 H 0.55384 0.9154 0.98892 0.0
C303 C 0.54612 0.84996 0.98564 0.0
C304 C 0.65488 0.54702 0.16394 0.0
C305 C 0.66465 0.53383 0.08882 0.0
H306 H 0.64844 0.55439 0.33863 0.0
C307 C 0.6783 0.52007 0.13322 0.0
H308 H 0.64407 0.55752 0.13113 0.0
C309 C 0.67999 0.5175 0.25172 0.0
C310 C 0.66885 0.52942 0.32705 0.0
H311 H 0.68563 0.50945 0.07661 0.0
H312 H 0.68883 0.50512 0.28445 0.0
C313 C 0.65742 0.54525 0.28231 0.0
C314 C 0.11788 0.70036 0.40397 0.0
C315 C 0.09551 0.68485 0.47957 0.0
H316 H 0.13128 0.70878 0.22883 0.0
C317 C 0.06836 0.66791 0.43565 0.0
H318 H 0.13902 0.71336 0.43637 0.0
C319 C 0.0641 0.6646 0.31736 0.0
C320 C 0.08677 0.67892 0.24174 0.0
H321 H 0.05089 0.65548 0.49255 0.0
H322 H 0.0434 0.64982 0.28503 0.0
C323 C 0.11344 0.69779 0.28567 0.0
C324 C 0.82048 0.51572 0.29477 0.0
C325 C 0.84375 0.52848 0.22077 0.0
H326 H 0.80624 0.50711 0.46903 0.0
C327 C 0.87065 0.54551 0.26691 0.0
H328 H 0.79953 0.50248 0.26094 0.0
C329 C 0.87451 0.54757 0.38555 0.0
C330 C 0.85143 0.53345 0.45944 0.0
H331 H 0.88893 0.55535 0.21165 0.0
H332 H 0.89567 0.55894 0.41962 0.0
C333 C 0.82426 0.51852 0.41346 0.0
C334 C 0.28687 0.85155 0.5351 0.0
C335 C 0.30964 0.87631 0.57783 0.0
H336 H 0.26641 0.82724 0.38542 0.0
C337 C 0.32708 0.89755 0.50106 0.0
H338 H 0.27335 0.83477 0.59276 0.0
C339 C 0.32252 0.89363 0.38301 0.0
C340 C 0.30108 0.86803 0.33997 0.0
H341 H 0.34484 0.91676 0.53228 0.0
H342 H 0.33704 0.9098 0.32532 0.0
C343 C 0.28293 0.84723 0.41686 0.0
C344 C 0.38961 0.31415 0.72997 0.0
C345 C 0.39806 0.29991 0.80562 0.0
H346 H 0.38547 0.32321 0.55477 0.0
C347 C 0.40602 0.28114 0.76174 0.0
H348 H 0.38356 0.32885 0.76228 0.0
C349 C 0.40794 0.27858 0.64344 0.0
C350 C 0.40095 0.294 0.56782 0.0
H351 H 0.41295 0.27022 0.81861 0.0
H352 H 0.4162 0.26567 0.61108 0.0
C353 C 0.39059 0.31084 0.61169 0.0
C354 C 0.1487 0.46009 0.91758 0.0
C355 C 0.12153 0.44523 0.96364 0.0
H356 H 0.17343 0.47604 0.765 0.0
C357 C 0.09844 0.43114 0.88981 0.0
H358 H 0.16673 0.47146 0.97312 0.0
C359 C 0.10229 0.43317 0.77116 0.0
C360 C 0.12919 0.45012 0.72493 0.0
H361 H 0.07728 0.41982 0.92395 0.0
H362 H 0.08401 0.42335 0.71596 0.0
C363 C 0.15247 0.46285 0.79888 0.0
C364 C 0.6899 0.13194 0.9182 0.0
C365 C 0.67172 0.11117 0.8413 0.0
H366 H 0.69949 0.1444 0.09409 0.0
C367 C 0.65023 0.08559 0.88436 0.0
H368 H 0.70645 0.15192 0.88676 0.0
C369 C 0.64567 0.08168 1.00241 0.0
C370 C 0.66313 0.1029 0.07918 0.0
H371 H 0.63569 0.06944 0.82667 0.0
H372 H 0.62788 0.0625 0.03362 0.0
C373 C 0.68594 0.12763 0.03644 0.0
C374 C 0.58306 0.66474 0.22427 0.0
C375 C 0.57456 0.67892 0.30004 0.0
H376 H 0.58719 0.6557 0.049 0.0
C377 C 0.56649 0.69762 0.25628 0.0
H378 H 0.58919 0.65009 0.25647 0.0
C379 C 0.56451 0.70014 0.13802 0.0
C380 C 0.57155 0.68478 0.06228 0.0
H381 H 0.55951 0.70849 0.31326 0.0
H382 H 0.55617 0.713 0.10578 0.0
C383 C 0.58203 0.66803 0.10601 0.0
C384 C 0.41832 0.00406 0.02631 0.0
C385 C 0.40355 0.01855 0.04227 0.0
H386 H 0.4163 0.9655 0.98425 0.0
C387 C 0.37426 0.00434 0.02683 0.0
H388 H 0.44091 0.01439 0.03694 0.0
C389 C 0.36004 0.9761 0.99618 0.0
C390 C 0.37491 0.96169 0.98011 0.0
H391 H 0.36231 0.01498 0.03824 0.0
H392 H 0.33745 0.96561 0.9853 0.0
C393 C 0.40418 0.97598 0.9954 0.0
C394 C 0.34858 0.3561 0.14147 0.0
C395 C 0.37059 0.35909 0.21217 0.0
H396 H 0.32323 0.37404 0.09086 0.0
C397 C 0.3809 0.37938 0.29872 0.0
H398 H 0.34071 0.34068 0.07335 0.0
C399 C 0.37149 0.39844 0.30715 0.0
C400 C 0.3515 0.39735 0.2296 0.0
H401 H 0.39787 0.38186 0.35401 0.0
H402 H 0.38097 0.41501 0.37042 0.0
C403 C 0.33888 0.37522 0.15069 0.0
C404 C 0.01082 0.39828 0.23549 0.0
C405 C 0.02977 0.39735 0.3132 0.0
H406 H 0.96786 0.38142 0.18848 0.0
C407 C 0.02042 0.37524 0.39212 0.0
H408 H 0.0178 0.41485 0.17228 0.0
C409 C -0.00834 0.35597 0.40129 0.0
C410 C 0.97257 0.3588 0.3305 0.0
H411 H 0.03494 0.3742 0.45209 0.0
H412 H 0.98423 0.34059 0.46953 0.0
C413 C 0.98241 0.37905 0.2438 0.0
C414 C 0.55441 0.97505 0.52587 0.0
C415 C 0.56917 0.96054 0.5412 0.0
H416 H 0.55644 0.01368 0.48505 0.0
C417 C 0.59846 0.97477 0.52592 0.0
H418 H 0.53181 0.96471 0.53642 0.0
C419 C 0.61269 0.00305 0.49606 0.0
C420 C 0.59783 0.01749 0.48062 0.0
H421 H 0.61041 0.96411 0.53687 0.0
H422 H 0.63529 0.01355 0.48526 0.0
C423 C 0.56856 0.00318 0.49574 0.0
C424 C 0.63371 0.60348 0.65213 0.0
C425 C 0.6209 0.58156 0.73188 0.0
H426 H 0.63205 0.63778 0.57161 0.0
C427 C 0.60065 0.58061 0.80764 0.0
H428 H 0.64954 0.60454 0.59363 0.0
C429 C 0.59122 0.59961 0.79663 0.0
C430 C 0.60177 0.61967 0.70927 0.0
H431 H 0.59101 0.56421 0.87151 0.0
H432 H 0.57408 0.59724 0.85063 0.0
C433 C 0.62398 0.62253 0.64031 0.0
C434 C 0.98098 0.62238 0.90204 0.0
C435 C 0.00036 0.6196 0.83294 0.0
H436 H 0.93748 0.60418 0.94942 0.0
C437 C -0.00911 0.59948 0.74577 0.0
H438 H -0.01188 0.63768 0.97057 0.0
C439 C 0.96251 0.58032 0.73529 0.0
C440 C 0.94323 0.5812 0.81131 0.0
H441 H 0.00568 0.59717 0.69167 0.0
H442 H 0.9558 0.56385 0.67175 0.0
C443 C 0.95225 0.60319 0.8907 0.0
C444 C 0.51955 0.10248 0.71579 0.0
C445 C 0.5232 0.10329 0.83521 0.0
H446 H 0.53695 0.10303 0.55114 0.0
C447 C 0.54601 0.10162 0.88053 0.0
H448 H 0.50196 0.10348 0.67873 0.0
C449 C 0.56614 0.10163 0.80751 0.0
C450 C 0.56354 0.10287 0.68816 0.0
H451 H 0.54934 0.10223 0.97219 0.0
H452 H 0.58443 0.10199 0.8446 0.0
C453 C 0.53947 0.10206 0.64277 0.0
C454 C 0.45184 0.54461 0.05348 0.0
C455 C 0.42656 0.52633 0.99759 0.0
H456 H 0.49328 0.57989 0.03621 0.0
C457 C 0.42576 0.52591 0.87726 0.0
H458 H 0.45305 0.54542 0.14613 0.0
C459 C 0.44898 0.54533 0.81429 0.0
C460 C 0.47306 0.56577 0.87105 0.0
H461 H 0.40656 0.51185 0.83214 0.0
H462 H 0.44702 0.546 0.72215 0.0
C463 C 0.47484 0.56439 0.99066 0.0
C464 C 0.89132 0.4528 0.1563 0.0
C465 C 0.89099 0.45186 0.03599 0.0
H466 H 0.89297 0.43315 0.31185 0.0
C467 C 0.89741 0.43316 0.98005 0.0
H468 H 0.88662 0.4672 0.20137 0.0
C469 C 0.90066 0.41342 0.04322 0.0
C470 C 0.89807 0.41251 0.1631 0.0
H471 H 0.89726 0.43196 0.88741 0.0
H472 H 0.90309 0.39757 0.99788 0.0
C473 C 0.89512 0.43342 0.21953 0.0
C474 C 0.45331 0.87673 0.21373 0.0
C475 C 0.44965 0.87593 0.33315 0.0
H476 H 0.43593 0.87622 0.04911 0.0
C477 C 0.42689 0.87768 0.37852 0.0
H478 H 0.47087 0.87568 0.17663 0.0
C479 C 0.40679 0.87773 0.30555 0.0
C480 C 0.40939 0.87647 0.18619 0.0
H481 H 0.42356 0.87708 0.47019 0.0
H482 H 0.38853 0.87742 0.34267 0.0
C483 C 0.43342 0.87722 0.14074 0.0
C484 C 0.52057 0.43415 0.55982 0.0
C485 C 0.5458 0.45254 0.50388 0.0
H486 H 0.4792 0.39876 0.54256 0.0
C487 C 0.54657 0.45302 0.38355 0.0
H488 H 0.51938 0.43329 0.65248 0.0
C489 C 0.52338 0.43356 0.32059 0.0
C490 C 0.49935 0.41301 0.37735 0.0
H491 H 0.56574 0.46715 0.3384 0.0
H492 H 0.52532 0.43295 0.22842 0.0
C493 C 0.49759 0.41433 0.497 0.0
C494 C 0.07547 0.54534 0.48521 0.0
C495 C 0.08195 0.52667 0.54107 0.0
H496 H 0.06974 0.5809 0.50309 0.0
C497 C 0.08169 0.52577 0.66139 0.0
H498 H 0.07558 0.5465 0.39256 0.0
C499 C 0.07789 0.54516 0.72466 0.0
C500 C 0.07487 0.56603 0.66825 0.0
H501 H 0.08643 0.51141 0.70641 0.0
H502 H 0.08008 0.54546 0.81696 0.0
C503 C 0.07223 0.56508 0.5484 0.0
C504 C 0.46783 0.22178 0.12768 0.0
C505 C 0.44425 0.19596 0.10049 0.0
H506 H 0.48338 0.26392 0.17995 0.0
C507 C 0.41729 0.19296 0.1076 0.0
H508 H 0.48887 0.22474 0.12391 0.0
C509 C 0.41407 0.21558 0.14004 0.0
C510 C 0.43775 0.24147 0.16619 0.0
H511 H 0.39868 0.17323 0.08742 0.0
H512 H 0.39311 0.21281 0.1437 0.0
C513 C 0.46463 0.24426 0.16032 0.0
C514 C 0.22258 0.47418 0.37786 0.0
C515 C 0.2163 0.49439 0.33727 0.0
H516 H 0.24977 0.4571 0.36699 0.0
C517 C 0.23528 0.5158 0.26439 0.0
H518 H 0.20855 0.45785 0.43619 0.0
C519 C 0.25913 0.51538 0.22465 0.0
C520 C 0.26372 0.49347 0.25745 0.0
H521 H 0.23076 0.53162 0.23248 0.0
H522 H 0.27289 0.53102 0.16348 0.0
C523 C 0.24603 0.47367 0.33795 0.0
C524 C 0.75945 0.19193 0.42377 0.0
C525 C 0.73545 0.1949 0.4297 0.0
H526 H 0.8037 0.21207 0.39249 0.0
C527 C 0.73787 0.22096 0.40576 0.0
H528 H 0.7582 0.17203 0.44165 0.0
C529 C 0.76374 0.2437 0.37744 0.0
C530 C 0.78785 0.24094 0.37259 0.0
H531 H 0.71978 0.22393 0.40886 0.0
H532 H 0.76474 0.26352 0.36012 0.0
C533 C 0.78549 0.21482 0.39558 0.0
C534 C 0.55538 0.78601 0.60392 0.0
C535 C 0.52843 0.78303 0.59706 0.0
H536 H 0.57953 0.76609 0.63917 0.0
C537 C 0.50483 0.75718 0.62373 0.0
H538 H 0.574 0.80576 0.5841 0.0
C539 C 0.50801 0.73464 0.65564 0.0
C540 C 0.53487 0.73741 0.6613 0.0
H541 H 0.48379 0.75424 0.62011 0.0
H542 H 0.48924 0.71496 0.67491 0.0
C543 C 0.55857 0.76333 0.63564 0.0
C544 C 0.73742 0.46301 0.76273 0.0
C545 C 0.75658 0.48426 0.83566 0.0
H546 H 0.69954 0.44797 0.66385 0.0
C547 C 0.75037 0.50434 0.87855 0.0
H548 H 0.74189 0.44729 0.7291 0.0
C549 C 0.72677 0.50489 0.84087 0.0
C550 C 0.70889 0.48526 0.76026 0.0
H551 H 0.76454 0.52055 0.93699 0.0
H552 H 0.72307 0.52136 0.87164 0.0
C553 C 0.71344 0.46346 0.72516 0.0
C554 C 0.20908 0.73515 0.88031 0.0
C555 C 0.18491 0.73782 0.87581 0.0
H556 H 0.25311 0.75512 0.91002 0.0
C557 C 0.18725 0.76398 0.89768 0.0
H558 H 0.2081 0.71531 0.8638 0.0
C559 C 0.21333 0.787 0.9244 0.0
C560 C 0.23738 0.78413 0.92995 0.0
H561 H 0.169 0.76666 0.89479 0.0
H562 H 0.21456 0.80693 0.94147 0.0
C563 C 0.23498 0.75802 0.90713 0.0
C564 C 0.57497 0.17249 0.14373 0.0
C565 C 0.55366 0.17048 0.21671 0.0
H566 H 0.61279 0.17029 0.13109 0.0
C567 C 0.5581 0.17221 0.33564 0.0
H568 H 0.57205 0.171 0.05169 0.0
C569 C 0.58178 0.17242 0.38106 0.0
C570 C 0.60094 0.17018 0.30807 0.0
H571 H 0.54198 0.17068 0.39367 0.0
H572 H 0.58317 0.17089 0.4731 0.0
C573 C 0.59829 0.17198 0.18914 0.0
C574 C 0.39877 0.57073 0.49906 0.0
C575 C 0.39897 0.56894 0.37909 0.0
H576 H 0.42251 0.59049 0.64981 0.0
C577 C 0.42178 0.58979 0.31746 0.0
H578 H 0.38134 0.55489 0.5483 0.0
C579 C 0.44558 0.60988 0.37554 0.0
C580 C 0.44661 0.60967 0.49581 0.0
H581 H 0.42251 0.58881 0.22492 0.0
H582 H 0.46399 0.6241 0.32638 0.0
C583 C 0.42233 0.59116 0.55708 0.0
C584 C 0.82172 0.38788 0.47776 0.0
C585 C 0.82721 0.36916 0.53907 0.0
H586 H 0.81702 0.42419 0.48677 0.0
C587 C 0.82552 0.36867 0.65925 0.0
H588 H 0.82293 0.38876 0.3851 0.0
C589 C 0.82157 0.38864 0.71741 0.0
C590 C 0.81987 0.40968 0.65603 0.0
H591 H 0.8295 0.35431 0.70842 0.0
H592 H 0.82293 0.38938 0.81004 0.0
C593 C 0.81838 0.4082 0.53591 0.0
C594 C 0.39096 0.80668 0.87874 0.0
C595 C 0.37186 0.80906 0.80591 0.0
H596 H 0.43068 0.80823 0.89114 0.0
C597 C 0.37451 0.80731 0.68693 0.0
H598 H 0.38956 0.80815 0.97081 0.0
C599 C 0.39778 0.80673 0.64136 0.0
C600 C 0.41905 0.8086 0.71424 0.0
H601 H 0.36006 0.8091 0.62901 0.0
H602 H 0.40071 0.80827 0.54932 0.0
C603 C 0.41459 0.8068 0.83318 0.0
C604 C 0.57381 0.40829 1.00511 0.0
C605 C 0.57362 0.41003 0.88512 0.0
H606 H 0.55007 0.38854 0.1559 0.0
C607 C 0.55086 0.3891 0.82355 0.0
H608 H 0.5912 0.42418 0.05432 0.0
C609 C 0.52708 0.36898 0.88168 0.0
C610 C 0.52603 0.36925 1.00193 0.0
H611 H 0.55014 0.39004 0.73099 0.0
H612 H 0.5087 0.35471 0.83254 0.0
C613 C 0.55027 0.38783 0.06319 0.0
C614 C 0.15122 0.58997 0.22243 0.0
C615 C 0.15298 0.56897 0.16095 0.0
H616 H 0.14327 0.62428 0.2136 0.0
C617 C 0.15452 0.57049 0.04084 0.0
H618 H 0.14982 0.5892 0.31506 0.0
C619 C 0.15119 0.59083 0.98279 0.0
C620 C 0.14566 0.60951 0.04417 0.0
H621 H 0.15593 0.55454 0.99165 0.0
H622 H 0.15003 0.58998 0.89012 0.0
C623 C 0.14729 0.60995 0.16436 0.0
loop_
_geom_bond_atom_site_label_1
_geom_bond_atom_site_label_2
_geom_bond_distance
_geom_bond_site_symmetry_2
_ccdc_geom_bond_type
Sc0 O3 2.025 . S
Sc0 O10 2.105 . S
Sc0 O13 2.105 . S
Sc0 O16 2.105 . S
Sc0 O19 2.105 1_554 S
Sc1 O3 2.025 1_556 S
Sc1 O11 2.105 . S
Sc1 O15 2.105 1_556 S
Sc1 O17 2.105 1_556 S
Sc1 O21 2.105 . S
Sc2 O3 2.025 . S
Sc2 O12 2.105 1_554 S
Sc2 O14 2.105 . S
Sc2 O18 2.105 . S
Sc2 O20 2.105 1_554 S
O3 Sc0 2.025 . S
O3 Sc1 2.025 1_554 S
O3 Sc2 2.025 . S
C4 O10 1.268 1_556 S
C4 O20 1.268 . S
C5 O11 1.268 . S
C5 O19 1.268 . S
C6 O12 1.268 . S
C6 O21 1.268 . S
C7 O13 1.268 . S
C7 O17 1.268 . S
C8 O14 1.268 . S
C8 O16 1.268 . S
C9 O15 1.268 . S
C9 O18 1.268 . S
O10 Sc0 2.105 . S
O10 C4 1.268 1_554 S
O11 Sc1 2.105 . S
O11 C5 1.268 . S
O12 Sc2 2.105 1_556 S
O12 C6 1.268 . S
O13 Sc0 2.105 . S
O13 C7 1.268 . S
O14 Sc2 2.105 . S
O14 C8 1.268 . S
O15 Sc1 2.105 1_554 S
O15 C9 1.268 . S
O16 Sc0 2.105 . S
O16 C8 1.268 . S
O17 Sc1 2.105 1_554 S
O17 C7 1.268 . S
O18 Sc2 2.105 . S
O18 C9 1.268 . S
O19 Sc0 2.105 1_556 S
O19 C5 1.268 . S
O20 Sc2 2.105 1_556 S
O20 C4 1.268 . S
O21 Sc1 2.105 . S
O21 C6 1.268 . S
Sc22 O25 2.025 . S
Sc22 O32 2.105 . S
Sc22 O35 2.105 . S
Sc22 O38 2.105 . S
Sc22 O41 2.105 . S
Sc23 O25 2.025 . S
Sc23 O33 2.105 . S
Sc23 O37 2.105 . S
Sc23 O39 2.105 . S
Sc23 O43 2.105 1_554 S
Sc24 O25 2.025 . S
Sc24 O34 2.105 . S
Sc24 O36 2.105 . S
Sc24 O40 2.105 . S
Sc24 O42 2.105 . S
O25 Sc22 2.025 . S
O25 Sc23 2.025 . S
O25 Sc24 2.025 . S
C26 O32 1.268 . S
C26 O42 1.268 . S
C27 O33 1.268 . S
C27 O41 1.268 . S
C28 O34 1.268 1_556 S
C28 O43 1.268 . S
C29 O35 1.268 . S
C29 O39 1.268 . S
C30 O36 1.268 . S
C30 O38 1.268 . S
C31 O37 1.268 . S
C31 O40 1.268 . S
O32 Sc22 2.105 . S
O32 C26 1.268 . S
O33 Sc23 2.105 . S
O33 C27 1.268 . S
O34 Sc24 2.105 . S
O34 C28 1.268 1_554 S
O35 Sc22 2.105 . S
O35 C29 1.268 . S
O36 Sc24 2.105 . S
O36 C30 1.268 . S
O37 Sc23 2.105 . S
O37 C31 1.268 . S
O38 Sc22 2.105 . S
O38 C30 1.268 . S
O39 Sc23 2.105 . S
O39 C29 1.268 . S
O40 Sc24 2.105 . S
O40 C31 1.268 . S
O41 Sc22 2.105 . S
O41 C27 1.268 . S
O42 Sc24 2.105 . S
O42 C26 1.268 . S
O43 Sc23 2.105 1_556 S
O43 C28 1.268 . S
Sc44 O47 2.025 . S
Sc44 O54 2.105 . S
Sc44 O57 2.105 . S
Sc44 O60 2.105 . S
Sc44 O63 2.105 . S
Sc45 O47 2.025 . S
Sc45 O55 2.105 . S
Sc45 O59 2.105 . S
Sc45 O61 2.105 . S
Sc45 O65 2.105 . S
Sc46 O47 2.025 . S
Sc46 O56 2.105 . S
Sc46 O58 2.105 . S
Sc46 O62 2.105 . S
Sc46 O64 2.105 . S
O47 Sc44 2.025 . S
O47 Sc45 2.025 . S
O47 Sc46 2.025 . S
C48 O54 1.268 . S
C48 O64 1.268 . S
C49 O55 1.268 . S
C49 O63 1.268 . S
C50 O56 1.268 . S
C50 O65 1.268 . S
C51 O57 1.268 . S
C51 O61 1.268 . S
C52 O58 1.268 . S
C52 O60 1.268 . S
C53 O59 1.268 . S
C53 O62 1.268 . S
O54 Sc44 2.105 . S
O54 C48 1.268 . S
O55 Sc45 2.105 . S
O55 C49 1.268 . S
O56 Sc46 2.105 . S
O56 C50 1.268 . S
O57 Sc44 2.105 . S
O57 C51 1.268 . S
O58 Sc46 2.105 . S
O58 C52 1.268 . S
O59 Sc45 2.105 . S
O59 C53 1.268 . S
O60 Sc44 2.105 . S
O60 C52 1.268 . S
O61 Sc45 2.105 . S
O61 C51 1.268 . S
O62 Sc46 2.105 . S
O62 C53 1.268 . S
O63 Sc44 2.105 . S
O63 C49 1.268 . S
O64 Sc46 2.105 . S
O64 C48 1.268 . S
O65 Sc45 2.105 . S
O65 C50 1.268 . S
Sc66 O69 2.025 . S
Sc66 O76 2.105 . S
Sc66 O79 2.105 . S
Sc66 O82 2.105 . S
Sc66 O85 2.105 . S
Sc67 O69 2.025 . S
Sc67 O77 2.105 . S
Sc67 O81 2.105 . S
Sc67 O83 2.105 . S
Sc67 O87 2.105 . S
Sc68 O69 2.025 . S
Sc68 O78 2.105 . S
Sc68 O80 2.105 . S
Sc68 O84 2.105 . S
Sc68 O86 2.105 . S
O69 Sc66 2.025 . S
O69 Sc67 2.025 . S
O69 Sc68 2.025 . S
C70 O76 1.268 . S
C70 O86 1.268 . S
C71 O77 1.268 . S
C71 O85 1.268 . S
C72 O78 1.268 . S
C72 O87 1.268 . S
C73 O79 1.268 . S
C73 O83 1.268 . S
C74 O80 1.268 . S
C74 O82 1.268 . S
C75 O81 1.268 . S
C75 O84 1.268 . S
O76 Sc66 2.105 . S
O76 C70 1.268 . S
O77 Sc67 2.105 . S
O77 C71 1.268 . S
O78 Sc68 2.105 . S
O78 C72 1.268 . S
O79 Sc66 2.105 . S
O79 C73 1.268 . S
O80 Sc68 2.105 . S
O80 C74 1.268 . S
O81 Sc67 2.105 . S
O81 C75 1.268 . S
O82 Sc66 2.105 . S
O82 C74 1.268 . S
O83 Sc67 2.105 . S
O83 C73 1.268 . S
O84 Sc68 2.105 . S
O84 C75 1.268 . S
O85 Sc66 2.105 . S
O85 C71 1.268 . S
O86 Sc68 2.105 . S
O86 C70 1.268 . S
O87 Sc67 2.105 . S
O87 C72 1.268 . S
Sc88 O91 2.025 . S
Sc88 O98 2.105 . S
Sc88 O101 2.105 . S
Sc88 O104 2.105 . S
Sc88 O107 2.105 . S
Sc89 O91 2.025 . S
Sc89 O99 2.105 . S
Sc89 O103 2.105 . S
Sc89 O105 2.105 . S
Sc89 O109 2.105 . S
Sc90 O91 2.025 . S
Sc90 O100 2.105 . S
Sc90 O102 2.105 . S
Sc90 O106 2.105 . S
Sc90 O108 2.105 . S
O91 Sc88 2.025 . S
O91 Sc89 2.025 . S
O91 Sc90 2.025 . S
C92 O98 1.268 . S
C92 O108 1.268 . S
C93 O99 1.268 . S
C93 O107 1.268 . S
C94 O100 1.268 . S
C94 O109 1.268 . S
C95 O101 1.268 . S
C95 O105 1.268 . S
C96 O102 1.268 . S
C96 O104 1.268 . S
C97 O103 1.268 . S
C97 O106 1.268 . S
O98 Sc88 2.105 . S
O98 C92 1.268 . S
O99 Sc89 2.105 . S
O99 C93 1.268 . S
O100 Sc90 2.105 . S
O100 C94 1.268 . S
O101 Sc88 2.105 . S
O101 C95 1.268 . S
O102 Sc90 2.105 . S
O102 C96 1.268 . S
O103 Sc89 2.105 . S
O103 C97 1.268 . S
O104 Sc88 2.105 . S
O104 C96 1.268 . S
O105 Sc89 2.105 . S
O105 C95 1.268 . S
O106 Sc90 2.105 . S
O106 C97 1.268 . S
O107 Sc88 2.105 . S
O107 C93 1.268 . S
O108 Sc90 2.105 . S
O108 C92 1.268 . S
O109 Sc89 2.105 . S
O109 C94 1.268 . S
Sc110 O113 2.025 . S
Sc110 O120 2.105 . S
Sc110 O123 2.105 1_556 S
Sc110 O126 2.105 1_556 S
Sc110 O129 2.105 . S
Sc111 O113 2.025 . S
Sc111 O121 2.105 . S
Sc111 O125 2.105 . S
Sc111 O127 2.105 . S
Sc111 O131 2.105 . S
Sc112 O113 2.025 . S
Sc112 O122 2.105 . S
Sc112 O124 2.105 1_556 S
Sc112 O128 2.105 . S
Sc112 O130 2.105 . S
O113 Sc110 2.025 . S
O113 Sc111 2.025 . S
O113 Sc112 2.025 . S
C114 O120 1.268 . S
C114 O130 1.268 . S
C115 O121 1.268 . S
C115 O129 1.268 . S
C116 O122 1.268 . S
C116 O131 1.268 . S
C117 O123 1.268 1_556 S
C117 O127 1.268 . S
C118 O124 1.268 . S
C118 O126 1.268 . S
C119 O125 1.268 . S
C119 O128 1.268 . S
O120 Sc110 2.105 . S
O120 C114 1.268 . S
O121 Sc111 2.105 . S
O121 C115 1.268 . S
O122 Sc112 2.105 . S
O122 C116 1.268 . S
O123 Sc110 2.105 1_554 S
O123 C117 1.268 1_554 S
O124 Sc112 2.105 1_554 S
O124 C118 1.268 . S
O125 Sc111 2.105 . S
O125 C119 1.268 . S
O126 Sc110 2.105 1_554 S
O126 C118 1.268 . S
O127 Sc111 2.105 . S
O127 C117 1.268 . S
O128 Sc112 2.105 . S
O128 C119 1.268 . S
O129 Sc110 2.105 . S
O129 C115 1.268 . S
O130 Sc112 2.105 . S
O130 C114 1.268 . S
O131 Sc111 2.105 . S
O131 C116 1.268 . S
Sc132 O135 2.025 . S
Sc132 O142 2.105 . S
Sc132 O145 2.105 . S
Sc132 O148 2.105 . S
Sc132 O151 2.105 . S
Sc133 O135 2.025 . S
Sc133 O143 2.105 . S
Sc133 O147 2.105 . S
Sc133 O149 2.105 1_556 S
Sc133 O153 2.105 . S
Sc134 O135 2.025 . S
Sc134 O144 2.105 . S
Sc134 O146 2.105 . S
Sc134 O150 2.105 . S
Sc134 O152 2.105 . S
O135 Sc132 2.025 . S
O135 Sc133 2.025 . S
O135 Sc134 2.025 . S
C136 O142 1.268 . S
C136 O152 1.268 . S
C137 O143 1.268 . S
C137 O151 1.268 . S
C138 O144 1.268 . S
C138 O153 1.268 . S
C139 O145 1.268 1_554 S
C139 O149 1.268 . S
C140 O146 1.268 . S
C140 O148 1.268 . S
C141 O147 1.268 . S
C141 O150 1.268 . S
O142 Sc132 2.105 . S
O142 C136 1.268 . S
O143 Sc133 2.105 . S
O143 C137 1.268 . S
O144 Sc134 2.105 . S
O144 C138 1.268 . S
O145 Sc132 2.105 . S
O145 C139 1.268 1_556 S
O146 Sc134 2.105 . S
O146 C140 1.268 . S
O147 Sc133 2.105 . S
O147 C141 1.268 . S
O148 Sc132 2.105 . S
O148 C140 1.268 . S
O149 Sc133 2.105 1_554 S
O149 C139 1.268 . S
O150 Sc134 2.105 . S
O150 C141 1.268 . S
O151 Sc132 2.105 . S
O151 C137 1.268 . S
O152 Sc134 2.105 . S
O152 C136 1.268 . S
O153 Sc133 2.105 . S
O153 C138 1.268 . S
Sc154 O157 2.025 . S
Sc154 O164 2.105 . S
Sc154 O167 2.105 1_556 S
Sc154 O170 2.105 1_556 S
Sc154 O173 2.105 . S
Sc155 O157 2.025 1_554 S
Sc155 O165 2.105 . S
Sc155 O169 2.105 . S
Sc155 O171 2.105 . S
Sc155 O175 2.105 1_554 S
Sc156 O157 2.025 . S
Sc156 O166 2.105 . S
Sc156 O168 2.105 . S
Sc156 O172 2.105 1_556 S
Sc156 O174 2.105 . S
O157 Sc154 2.025 . S
O157 Sc155 2.025 1_556 S
O157 Sc156 2.025 . S
C158 O164 1.268 . S
C158 O174 1.268 . S
C159 O165 1.268 1_556 S
C159 O173 1.268 . S
C160 O166 1.268 . S
C160 O175 1.268 . S
C161 O167 1.268 . S
C161 O171 1.268 . S
C162 O168 1.268 1_554 S
C162 O170 1.268 . S
C163 O169 1.268 . S
C163 O172 1.268 . S
O164 Sc154 2.105 . S
O164 C158 1.268 . S
O165 Sc155 2.105 . S
O165 C159 1.268 1_554 S
O166 Sc156 2.105 . S
O166 C160 1.268 . S
O167 Sc154 2.105 1_554 S
O167 C161 1.268 . S
O168 Sc156 2.105 . S
O168 C162 1.268 1_556 S
O169 Sc155 2.105 . S
O169 C163 1.268 . S
O170 Sc154 2.105 1_554 S
O170 C162 1.268 . S
O171 Sc155 2.105 . S
O171 C161 1.268 . S
O172 Sc156 2.105 1_554 S
O172 C163 1.268 . S
O173 Sc154 2.105 . S
O173 C159 1.268 . S
O174 Sc156 2.105 . S
O174 C158 1.268 . S
O175 Sc155 2.105 1_556 S
O175 C160 1.268 . S
Sc176 O179 2.025 . S
Sc176 O186 2.105 1_554 S
Sc176 O189 2.105 . S
Sc176 O192 2.105 . S
Sc176 O195 2.105 . S
Sc177 O179 2.025 . S
Sc177 O187 2.105 . S
Sc177 O191 2.105 . S
Sc177 O193 2.105 . S
Sc177 O197 2.105 . S
Sc178 O179 2.025 . S
Sc178 O188 2.105 . S
Sc178 O190 2.105 . S
Sc178 O194 2.105 . S
Sc178 O196 2.105 1_554 S
O179 Sc176 2.025 . S
O179 Sc177 2.025 . S
O179 Sc178 2.025 . S
C180 O186 1.268 . S
C180 O196 1.268 . S
C181 O187 1.268 . S
C181 O195 1.268 . S
C182 O188 1.268 . S
C182 O197 1.268 . S
C183 O189 1.268 . S
C183 O193 1.268 . S
C184 O190 1.268 . S
C184 O192 1.268 . S
C185 O191 1.268 . S
C185 O194 1.268 . S
O186 Sc176 2.105 1_556 S
O186 C180 1.268 . S
O187 Sc177 2.105 . S
O187 C181 1.268 . S
O188 Sc178 2.105 . S
O188 C182 1.268 . S
O189 Sc176 2.105 . S
O189 C183 1.268 . S
O190 Sc178 2.105 . S
O190 C184 1.268 . S
O191 Sc177 2.105 . S
O191 C185 1.268 . S
O192 Sc176 2.105 . S
O192 C184 1.268 . S
O193 Sc177 2.105 . S
O193 C183 1.268 . S
O194 Sc178 2.105 . S
O194 C185 1.268 . S
O195 Sc176 2.105 . S
O195 C181 1.268 . S
O196 Sc178 2.105 1_556 S
O196 C180 1.268 . S
O197 Sc177 2.105 . S
O197 C182 1.268 . S
Sc198 O201 2.025 . S
Sc198 O208 2.105 . S
Sc198 O211 2.105 . S
Sc198 O214 2.105 . S
Sc198 O217 2.105 . S
Sc199 O201 2.025 . S
Sc199 O209 2.105 . S
Sc199 O213 2.105 . S
Sc199 O215 2.105 . S
Sc199 O219 2.105 . S
Sc200 O201 2.025 . S
Sc200 O210 2.105 . S
Sc200 O212 2.105 . S
Sc200 O216 2.105 . S
Sc200 O218 2.105 . S
O201 Sc198 2.025 . S
O201 Sc199 2.025 . S
O201 Sc200 2.025 . S
C202 O208 1.268 . S
C202 O218 1.268 . S
C203 O209 1.268 . S
C203 O217 1.268 . S
C204 O210 1.268 . S
C204 O219 1.268 . S
C205 O211 1.268 . S
C205 O215 1.268 . S
C206 O212 1.268 . S
C206 O214 1.268 . S
C207 O213 1.268 . S
C207 O216 1.268 . S
O208 Sc198 2.105 . S
O208 C202 1.268 . S
O209 Sc199 2.105 . S
O209 C203 1.268 . S
O210 Sc200 2.105 . S
O210 C204 1.268 . S
O211 Sc198 2.105 . S
O211 C205 1.268 . S
O212 Sc200 2.105 . S
O212 C206 1.268 . S
O213 Sc199 2.105 . S
O213 C207 1.268 . S
O214 Sc198 2.105 . S
O214 C206 1.268 . S
O215 Sc199 2.105 . S
O215 C205 1.268 . S
O216 Sc200 2.105 . S
O216 C207 1.268 . S
O217 Sc198 2.105 . S
O217 C203 1.268 . S
O218 Sc200 2.105 . S
O218 C202 1.268 . S
O219 Sc199 2.105 . S
O219 C204 1.268 . S
Sc220 O223 2.025 . S
Sc220 O230 2.105 . S
Sc220 O233 2.105 . S
Sc220 O236 2.105 . S
Sc220 O239 2.105 . S
Sc221 O223 2.025 . S
Sc221 O231 2.105 . S
Sc221 O235 2.105 . S
Sc221 O237 2.105 . S
Sc221 O241 2.105 . S
Sc222 O223 2.025 . S
Sc222 O232 2.105 . S
Sc222 O234 2.105 . S
Sc222 O238 2.105 . S
Sc222 O240 2.105 . S
O223 Sc220 2.025 . S
O223 Sc221 2.025 . S
O223 Sc222 2.025 . S
C224 O230 1.268 . S
C224 O240 1.268 . S
C225 O231 1.268 . S
C225 O239 1.268 . S
C226 O232 1.268 . S
C226 O241 1.268 . S
C227 O233 1.268 . S
C227 O237 1.268 . S
C228 O234 1.268 . S
C228 O236 1.268 . S
C229 O235 1.268 . S
C229 O238 1.268 . S
O230 Sc220 2.105 . S
O230 C224 1.268 . S
O231 Sc221 2.105 . S
O231 C225 1.268 . S
O232 Sc222 2.105 . S
O232 C226 1.268 . S
O233 Sc220 2.105 . S
O233 C227 1.268 . S
O234 Sc222 2.105 . S
O234 C228 1.268 . S
O235 Sc221 2.105 . S
O235 C229 1.268 . S
O236 Sc220 2.105 . S
O236 C228 1.268 . S
O237 Sc221 2.105 . S
O237 C227 1.268 . S
O238 Sc222 2.105 . S
O238 C229 1.268 . S
O239 Sc220 2.105 . S
O239 C225 1.268 . S
O240 Sc222 2.105 . S
O240 C224 1.268 . S
O241 Sc221 2.105 . S
O241 C226 1.268 . S
Sc242 O245 2.025 . S
Sc242 O252 2.105 . S
Sc242 O255 2.105 . S
Sc242 O258 2.105 . S
Sc242 O261 2.105 . S
Sc243 O245 2.025 . S
Sc243 O253 2.105 . S
Sc243 O257 2.105 . S
Sc243 O259 2.105 . S
Sc243 O263 2.105 . S
Sc244 O245 2.025 . S
Sc244 O254 2.105 . S
Sc244 O256 2.105 . S
Sc244 O260 2.105 . S
Sc244 O262 2.105 . S
O245 Sc242 2.025 . S
O245 Sc243 2.025 . S
O245 Sc244 2.025 . S
C246 O252 1.268 . S
C246 O262 1.268 . S
C247 O253 1.268 . S
C247 O261 1.268 . S
C248 O254 1.268 . S
C248 O263 1.268 . S
C249 O255 1.268 . S
C249 O259 1.268 . S
C250 O256 1.268 . S
C250 O258 1.268 . S
C251 O257 1.268 . S
C251 O260 1.268 . S
O252 Sc242 2.105 . S
O252 C246 1.268 . S
O253 Sc243 2.105 . S
O253 C247 1.268 . S
O254 Sc244 2.105 . S
O254 C248 1.268 . S
O255 Sc242 2.105 . S
O255 C249 1.268 . S
O256 Sc244 2.105 . S
O256 C250 1.268 . S
O257 Sc243 2.105 . S
O257 C251 1.268 . S
O258 Sc242 2.105 . S
O258 C250 1.268 . S
O259 Sc243 2.105 . S
O259 C249 1.268 . S
O260 Sc244 2.105 . S
O260 C251 1.268 . S
O261 Sc242 2.105 . S
O261 C247 1.268 . S
O262 Sc244 2.105 . S
O262 C246 1.268 . S
O263 Sc243 2.105 . S
O263 C248 1.268 . S
C264 C265 1.387 . S
C264 H268 0.950 . S
C264 C273 1.390 . S
C265 C264 1.387 . S
C265 C267 1.387 . S
H266 C273 0.950 . S
C267 C265 1.387 . S
C267 C269 1.390 . S
C267 H271 0.950 . S
H268 C264 0.950 . S
C269 C267 1.390 . S
C269 C270 1.387 . S
C269 H272 0.950 . S
C270 C269 1.387 . S
C270 C273 1.387 . S
H271 C267 0.950 . S
H272 C269 0.950 . S
C273 C264 1.390 . S
C273 H266 0.950 . S
C273 C270 1.387 . S
C274 C275 1.387 . S
C274 H278 0.950 . S
C274 C283 1.390 . S
C275 C274 1.387 . S
C275 C277 1.387 . S
H276 C283 0.950 . S
C277 C275 1.387 . S
C277 C279 1.390 . S
C277 H281 0.950 . S
H278 C274 0.950 . S
C279 C277 1.390 . S
C279 C280 1.387 . S
C279 H282 0.950 . S
C280 C279 1.387 . S
C280 C283 1.387 . S
H281 C277 0.950 . S
H282 C279 0.950 . S
C283 C274 1.390 . S
C283 H276 0.950 . S
C283 C280 1.387 . S
C284 C285 1.387 . S
C284 H288 0.950 . S
C284 C293 1.390 . S
C285 C284 1.387 . S
C285 C287 1.387 . S
H286 C293 0.950 . S
C287 C285 1.387 . S
C287 C289 1.390 . S
C287 H291 0.950 . S
H288 C284 0.950 . S
C289 C287 1.390 . S
C289 C290 1.387 . S
C289 H292 0.950 . S
C290 C289 1.387 . S
C290 C293 1.387 . S
H291 C287 0.950 . S
H292 C289 0.950 . S
C293 C284 1.390 . S
C293 H286 0.950 . S
C293 C290 1.387 . S
C294 C295 1.387 . S
C294 H298 0.950 . S
C294 C303 1.390 1_554 S
C295 C294 1.387 . S
C295 C297 1.387 . S
H296 C303 0.950 . S
C297 C295 1.387 . S
C297 C299 1.390 1_554 S
C297 H301 0.950 . S
H298 C294 0.950 . S
C299 C297 1.390 1_556 S
C299 C300 1.387 . S
C299 H302 0.950 . S
C300 C299 1.387 . S
C300 C303 1.387 . S
H301 C297 0.950 . S
H302 C299 0.950 . S
C303 C294 1.390 1_556 S
C303 H296 0.950 . S
C303 C300 1.387 . S
C304 C305 1.387 . S
C304 H308 0.950 . S
C304 C313 1.390 . S
C305 C304 1.387 . S
C305 C307 1.387 . S
H306 C313 0.950 . S
C307 C305 1.387 . S
C307 C309 1.390 . S
C307 H311 0.950 . S
H308 C304 0.950 . S
C309 C307 1.390 . S
C309 C310 1.387 . S
C309 H312 0.950 . S
C310 C309 1.387 . S
C310 C313 1.387 . S
H311 C307 0.950 . S
H312 C309 0.950 . S
C313 C304 1.390 . S
C313 H306 0.950 . S
C313 C310 1.387 . S
C314 C315 1.387 . S
C314 H318 0.950 . S
C314 C323 1.390 . S
C315 C314 1.387 . S
C315 C317 1.387 . S
H316 C323 0.950 . S
C317 C315 1.387 . S
C317 C319 1.390 . S
C317 H321 0.950 . S
H318 C314 0.950 . S
C319 C317 1.390 . S
C319 C320 1.387 . S
C319 H322 0.950 . S
C320 C319 1.387 . S
C320 C323 1.387 . S
H321 C317 0.950 . S
H322 C319 0.950 . S
C323 C314 1.390 . S
C323 H316 0.950 . S
C323 C320 1.387 . S
C324 C325 1.387 . S
C324 H328 0.950 . S
C324 C333 1.390 . S
C325 C324 1.387 . S
C325 C327 1.387 . S
H326 C333 0.950 . S
C327 C325 1.387 . S
C327 C329 1.390 . S
C327 H331 0.950 . S
H328 C324 0.950 . S
C329 C327 1.390 . S
C329 C330 1.387 . S
C329 H332 0.950 . S
C330 C329 1.387 . S
C330 C333 1.387 . S
H331 C327 0.950 . S
H332 C329 0.950 . S
C333 C324 1.390 . S
C333 H326 0.950 . S
C333 C330 1.387 . S
C334 C335 1.387 . S
C334 H338 0.950 . S
C334 C343 1.390 . S
C335 C334 1.387 . S
C335 C337 1.387 . S
H336 C343 0.950 . S
C337 C335 1.387 . S
C337 C339 1.390 . S
C337 H341 0.950 . S
H338 C334 0.950 . S
C339 C337 1.390 . S
C339 C340 1.387 . S
C339 H342 0.950 . S
C340 C339 1.387 . S
C340 C343 1.387 . S
H341 C337 0.950 . S
H342 C339 0.950 . S
C343 C334 1.390 . S
C343 H336 0.950 . S
C343 C340 1.387 . S
C344 C345 1.387 . S
C344 H348 0.950 . S
C344 C353 1.390 . S
C345 C344 1.387 . S
C345 C347 1.387 . S
H346 C353 0.950 . S
C347 C345 1.387 . S
C347 C349 1.390 . S
C347 H351 0.950 . S
H348 C344 0.950 . S
C349 C347 1.390 . S
C349 C350 1.387 . S
C349 H352 0.950 . S
C350 C349 1.387 . S
C350 C353 1.387 . S
H351 C347 0.950 . S
H352 C349 0.950 . S
C353 C344 1.390 . S
C353 H346 0.950 . S
C353 C350 1.387 . S
C354 C355 1.387 . S
C354 H358 0.950 . S
C354 C363 1.390 . S
C355 C354 1.387 . S
C355 C357 1.387 . S
H356 C363 0.950 . S
C357 C355 1.387 . S
C357 C359 1.390 . S
C357 H361 0.950 . S
H358 C354 0.950 . S
C359 C357 1.390 . S
C359 C360 1.387 . S
C359 H362 0.950 . S
C360 C359 1.387 . S
C360 C363 1.387 . S
H361 C357 0.950 . S
H362 C359 0.950 . S
C363 C354 1.390 . S
C363 H356 0.950 . S
C363 C360 1.387 . S
C364 C365 1.387 . S
C364 H368 0.950 . S
C364 C373 1.390 1_556 S
C365 C364 1.387 . S
C365 C367 1.387 . S
H366 C373 0.950 . S
C367 C365 1.387 . S
C367 C369 1.390 1_556 S
C367 H371 0.950 . S
H368 C364 0.950 . S
C369 C367 1.390 1_554 S
C369 C370 1.387 . S
C369 H372 0.950 . S
C370 C369 1.387 . S
C370 C373 1.387 . S
H371 C367 0.950 . S
H372 C369 0.950 . S
C373 C364 1.390 1_554 S
C373 H366 0.950 . S
C373 C370 1.387 . S
C374 C375 1.387 . S
C374 H378 0.950 . S
C374 C383 1.390 . S
C375 C374 1.387 . S
C375 C377 1.387 . S
H376 C383 0.950 . S
C377 C375 1.387 . S
C377 C379 1.390 . S
C377 H381 0.950 . S
H378 C374 0.950 . S
C379 C377 1.390 . S
C379 C380 1.387 . S
C379 H382 0.950 . S
C380 C379 1.387 . S
C380 C383 1.387 . S
H381 C377 0.950 . S
H382 C379 0.950 . S
C383 C374 1.390 . S
C383 H376 0.950 . S
C383 C380 1.387 . S
C384 C385 1.387 . S
C384 H388 0.950 . S
C384 C393 1.390 1_546 S
C385 C384 1.387 . S
C385 C387 1.387 . S
H386 C393 0.950 . S
C387 C385 1.387 . S
C387 C389 1.390 1_546 S
C387 H391 0.950 . S
H388 C384 0.950 . S
C389 C387 1.390 1_564 S
C389 C390 1.387 . S
C389 H392 0.950 . S
C390 C389 1.387 . S
C390 C393 1.387 . S
H391 C387 0.950 . S
H392 C389 0.950 . S
C393 C384 1.390 1_564 S
C393 H386 0.950 . S
C393 C390 1.387 . S
C394 C395 1.387 . S
C394 H398 0.950 . S
C394 C403 1.390 . S
C395 C394 1.387 . S
C395 C397 1.387 . S
H396 C403 0.950 1_556 S
C397 C395 1.387 . S
C397 C399 1.390 . S
C397 H401 0.950 . S
H398 C394 0.950 . S
C399 C397 1.390 . S
C399 C400 1.387 . S
C399 H402 0.950 . S
C400 C399 1.387 . S
C400 C403 1.387 . S
H401 C397 0.950 . S
H402 C399 0.950 . S
C403 C394 1.390 . S
C403 H396 0.950 1_554 S
C403 C400 1.387 . S
C404 C405 1.387 . S
C404 H408 0.950 . S
C404 C413 1.390 1_455 S
C405 C404 1.387 . S
C405 C407 1.387 . S
H406 C413 0.950 . S
C407 C405 1.387 . S
C407 C409 1.390 1_455 S
C407 H411 0.950 . S
H408 C404 0.950 . S
C409 C407 1.390 1_655 S
C409 C410 1.387 . S
C409 H412 0.950 . S
C410 C409 1.387 . S
C410 C413 1.387 . S
H411 C407 0.950 . S
H412 C409 0.950 . S
C413 C404 1.390 1_655 S
C413 H406 0.950 . S
C413 C410 1.387 . S
C414 C415 1.387 . S
C414 H418 0.950 . S
C414 C423 1.390 1_565 S
C415 C414 1.387 . S
C415 C417 1.387 . S
H416 C423 0.950 . S
C417 C415 1.387 . S
C417 C419 1.390 1_565 S
C417 H421 0.950 . S
H418 C414 0.950 . S
C419 C417 1.390 1_545 S
C419 C420 1.387 . S
C419 H422 0.950 . S
C420 C419 1.387 . S
C420 C423 1.387 . S
H421 C417 0.950 . S
H422 C419 0.950 . S
C423 C414 1.390 1_545 S
C423 H416 0.950 . S
C423 C420 1.387 . S
C424 C425 1.387 . S
C424 H428 0.950 . S
C424 C433 1.390 . S
C425 C424 1.387 . S
C425 C427 1.387 . S
H426 C433 0.950 . S
C427 C425 1.387 . S
C427 C429 1.390 . S
C427 H431 0.950 . S
H428 C424 0.950 . S
C429 C427 1.390 . S
C429 C430 1.387 . S
C429 H432 0.950 . S
C430 C429 1.387 . S
C430 C433 1.387 . S
H431 C427 0.950 . S
H432 C429 0.950 . S
C433 C424 1.390 . S
C433 H426 0.950 . S
C433 C430 1.387 . S
C434 C435 1.387 . S
C434 H438 0.950 . S
C434 C443 1.390 1_455 S
C435 C434 1.387 . S
C435 C437 1.387 . S
H436 C443 0.950 1_554 S
C437 C435 1.387 . S
C437 C439 1.390 1_455 S
C437 H441 0.950 . S
H438 C434 0.950 . S
C439 C437 1.390 1_655 S
C439 C440 1.387 . S
C439 H442 0.950 . S
C440 C439 1.387 . S
C440 C443 1.387 . S
H441 C437 0.950 . S
H442 C439 0.950 . S
C443 C434 1.390 1_655 S
C443 H436 0.950 1_556 S
C443 C440 1.387 . S
C444 C445 1.387 . S
C444 H448 0.950 . S
C444 C453 1.390 . S
C445 C444 1.387 . S
C445 C447 1.387 . S
H446 C453 0.950 . S
C447 C445 1.387 . S
C447 C449 1.390 . S
C447 H451 0.950 . S
H448 C444 0.950 . S
C449 C447 1.390 . S
C449 C450 1.387 . S
C449 H452 0.950 . S
C450 C449 1.387 . S
C450 C453 1.387 . S
H451 C447 0.950 . S
H452 C449 0.950 . S
C453 C444 1.390 . S
C453 H446 0.950 . S
C453 C450 1.387 . S
C454 C455 1.387 1_554 S
C454 H458 0.950 . S
C454 C463 1.390 1_554 S
C455 C454 1.387 1_556 S
C455 C457 1.387 . S
H456 C463 0.950 . S
C457 C455 1.387 . S
C457 C459 1.390 . S
C457 H461 0.950 . S
H458 C454 0.950 . S
C459 C457 1.390 . S
C459 C460 1.387 . S
C459 H462 0.950 . S
C460 C459 1.387 . S
C460 C463 1.387 . S
H461 C457 0.950 . S
H462 C459 0.950 . S
C463 C454 1.390 1_556 S
C463 H456 0.950 . S
C463 C460 1.387 . S
C464 C465 1.387 . S
C464 H468 0.950 . S
C464 C473 1.390 . S
C465 C464 1.387 . S
C465 C467 1.387 1_554 S
H466 C473 0.950 . S
C467 C465 1.387 1_556 S
C467 C469 1.390 1_556 S
C467 H471 0.950 . S
H468 C464 0.950 . S
C469 C467 1.390 1_554 S
C469 C470 1.387 . S
C469 H472 0.950 1_554 S
C470 C469 1.387 . S
C470 C473 1.387 . S
H471 C467 0.950 . S
H472 C469 0.950 1_556 S
C473 C464 1.390 . S
C473 H466 0.950 . S
C473 C470 1.387 . S
C474 C475 1.387 . S
C474 H478 0.950 . S
C474 C483 1.390 . S
C475 C474 1.387 . S
C475 C477 1.387 . S
H476 C483 0.950 . S
C477 C475 1.387 . S
C477 C479 1.390 . S
C477 H481 0.950 . S
H478 C474 0.950 . S
C479 C477 1.390 . S
C479 C480 1.387 . S
C479 H482 0.950 . S
C480 C479 1.387 . S
C480 C483 1.387 . S
H481 C477 0.950 . S
H482 C479 0.950 . S
C483 C474 1.390 . S
C483 H476 0.950 . S
C483 C480 1.387 . S
C484 C485 1.387 . S
C484 H488 0.950 . S
C484 C493 1.390 . S
C485 C484 1.387 . S
C485 C487 1.387 . S
H486 C493 0.950 . S
C487 C485 1.387 . S
C487 C489 1.390 . S
C487 H491 0.950 . S
H488 C484 0.950 . S
C489 C487 1.390 . S
C489 C490 1.387 . S
C489 H492 0.950 . S
C490 C489 1.387 . S
C490 C493 1.387 . S
H491 C487 0.950 . S
H492 C489 0.950 . S
C493 C484 1.390 . S
C493 H486 0.950 . S
C493 C490 1.387 . S
C494 C495 1.387 . S
C494 H498 0.950 . S
C494 C503 1.390 . S
C495 C494 1.387 . S
C495 C497 1.387 . S
H496 C503 0.950 . S
C497 C495 1.387 . S
C497 C499 1.390 . S
C497 H501 0.950 . S
H498 C494 0.950 . S
C499 C497 1.390 . S
C499 C500 1.387 . S
C499 H502 0.950 . S
C500 C499 1.387 . S
C500 C503 1.387 . S
H501 C497 0.950 . S
H502 C499 0.950 . S
C503 C494 1.390 . S
C503 H496 0.950 . S
C503 C500 1.387 . S
C504 C505 1.387 1_556 S
C504 H508 0.950 . S
C504 C513 1.390 . S
C505 C504 1.387 1_554 S
C505 C507 1.387 . S
H506 C513 0.950 . S
C507 C505 1.387 . S
C507 C509 1.390 . S
C507 H511 0.950 . S
H508 C504 0.950 . S
C509 C507 1.390 . S
C509 C510 1.387 . S
C509 H512 0.950 . S
C510 C509 1.387 . S
C510 C513 1.387 1_554 S
H511 C507 0.950 . S
H512 C509 0.950 . S
C513 C504 1.390 . S
C513 H506 0.950 . S
C513 C510 1.387 1_556 S
C514 C515 1.387 . S
C514 H518 0.950 . S
C514 C523 1.390 . S
C515 C514 1.387 . S
C515 C517 1.387 . S
H516 C523 0.950 . S
C517 C515 1.387 . S
C517 C519 1.390 . S
C517 H521 0.950 . S
H518 C514 0.950 . S
C519 C517 1.390 . S
C519 C520 1.387 . S
C519 H522 0.950 . S
C520 C519 1.387 . S
C520 C523 1.387 . S
H521 C517 0.950 . S
H522 C519 0.950 . S
C523 C514 1.390 . S
C523 H516 0.950 . S
C523 C520 1.387 . S
C524 C525 1.387 . S
C524 H528 0.950 . S
C524 C533 1.390 . S
C525 C524 1.387 . S
C525 C527 1.387 . S
H526 C533 0.950 . S
C527 C525 1.387 . S
C527 C529 1.390 . S
C527 H531 0.950 . S
H528 C524 0.950 . S
C529 C527 1.390 . S
C529 C530 1.387 . S
C529 H532 0.950 . S
C530 C529 1.387 . S
C530 C533 1.387 . S
H531 C527 0.950 . S
H532 C529 0.950 . S
C533 C524 1.390 . S
C533 H526 0.950 . S
C533 C530 1.387 . S
C534 C535 1.387 . S
C534 H538 0.950 . S
C534 C543 1.390 . S
C535 C534 1.387 . S
C535 C537 1.387 . S
H536 C543 0.950 . S
C537 C535 1.387 . S
C537 C539 1.390 . S
C537 H541 0.950 . S
H538 C534 0.950 . S
C539 C537 1.390 . S
C539 C540 1.387 . S
C539 H542 0.950 . S
C540 C539 1.387 . S
C540 C543 1.387 . S
H541 C537 0.950 . S
H542 C539 0.950 . S
C543 C534 1.390 . S
C543 H536 0.950 . S
C543 C540 1.387 . S
C544 C545 1.387 . S
C544 H548 0.950 . S
C544 C553 1.390 . S
C545 C544 1.387 . S
C545 C547 1.387 . S
H546 C553 0.950 . S
C547 C545 1.387 . S
C547 C549 1.390 . S
C547 H551 0.950 . S
H548 C544 0.950 . S
C549 C547 1.390 . S
C549 C550 1.387 . S
C549 H552 0.950 . S
C550 C549 1.387 . S
C550 C553 1.387 . S
H551 C547 0.950 . S
H552 C549 0.950 . S
C553 C544 1.390 . S
C553 H546 0.950 . S
C553 C550 1.387 . S
C554 C555 1.387 . S
C554 H558 0.950 . S
C554 C563 1.390 . S
C555 C554 1.387 . S
C555 C557 1.387 1_556 S
H556 C563 0.950 . S
C557 C555 1.387 1_554 S
C557 C559 1.390 . S
C557 H561 0.950 . S
H558 C554 0.950 . S
C559 C557 1.390 . S
C559 C560 1.387 1_554 S
C559 H562 0.950 . S
C560 C559 1.387 1_556 S
C560 C563 1.387 . S
H561 C557 0.950 . S
H562 C559 0.950 . S
C563 C554 1.390 . S
C563 H556 0.950 . S
C563 C560 1.387 . S
C564 C565 1.387 . S
C564 H568 0.950 . S
C564 C573 1.390 . S
C565 C564 1.387 . S
C565 C567 1.387 . S
H566 C573 0.950 . S
C567 C565 1.387 . S
C567 C569 1.390 . S
C567 H571 0.950 . S
H568 C564 0.950 . S
C569 C567 1.390 . S
C569 C570 1.387 . S
C569 H572 0.950 . S
C570 C569 1.387 . S
C570 C573 1.387 . S
H571 C567 0.950 . S
H572 C569 0.950 . S
C573 C564 1.390 . S
C573 H566 0.950 . S
C573 C570 1.387 . S
C574 C575 1.387 . S
C574 H578 0.950 . S
C574 C583 1.390 . S
C575 C574 1.387 . S
C575 C577 1.387 . S
H576 C583 0.950 . S
C577 C575 1.387 . S
C577 C579 1.390 . S
C577 H581 0.950 . S
H578 C574 0.950 . S
C579 C577 1.390 . S
C579 C580 1.387 . S
C579 H582 0.950 . S
C580 C579 1.387 . S
C580 C583 1.387 . S
H581 C577 0.950 . S
H582 C579 0.950 . S
C583 C574 1.390 . S
C583 H576 0.950 . S
C583 C580 1.387 . S
C584 C585 1.387 . S
C584 H588 0.950 . S
C584 C593 1.390 . S
C585 C584 1.387 . S
C585 C587 1.387 . S
H586 C593 0.950 . S
C587 C585 1.387 . S
C587 C589 1.390 . S
C587 H591 0.950 . S
H588 C584 0.950 . S
C589 C587 1.390 . S
C589 C590 1.387 . S
C589 H592 0.950 . S
C590 C589 1.387 . S
C590 C593 1.387 . S
H591 C587 0.950 . S
H592 C589 0.950 . S
C593 C584 1.390 . S
C593 H586 0.950 . S
C593 C590 1.387 . S
C594 C595 1.387 . S
C594 H598 0.950 . S
C594 C603 1.390 . S
C595 C594 1.387 . S
C595 C597 1.387 . S
H596 C603 0.950 . S
C597 C595 1.387 . S
C597 C599 1.390 . S
C597 H601 0.950 . S
H598 C594 0.950 . S
C599 C597 1.390 . S
C599 C600 1.387 . S
C599 H602 0.950 . S
C600 C599 1.387 . S
C600 C603 1.387 . S
H601 C597 0.950 . S
H602 C599 0.950 . S
C603 C594 1.390 . S
C603 H596 0.950 . S
C603 C600 1.387 . S
C604 C605 1.387 . S
C604 H608 0.950 . S
C604 C613 1.390 . S
C605 C604 1.387 . S
C605 C607 1.387 . S
H606 C613 0.950 . S
C607 C605 1.387 . S
C607 C609 1.390 . S
C607 H611 0.950 . S
H608 C604 0.950 . S
C609 C607 1.390 . S
C609 C610 1.387 . S
C609 H612 0.950 . S
C610 C609 1.387 . S
C610 C613 1.387 . S
H611 C607 0.950 . S
H612 C609 0.950 . S
C613 C604 1.390 . S
C613 H606 0.950 . S
C613 C610 1.387 . S
C614 C615 1.387 . S
C614 H618 0.950 . S
C614 C623 1.390 . S
C615 C614 1.387 . S
C615 C617 1.387 . S
H616 C623 0.950 . S
C617 C615 1.387 . S
C617 C619 1.390 1_554 S
C617 H621 0.950 1_554 S
H618 C614 0.950 . S
C619 C617 1.390 1_556 S
C619 C620 1.387 1_556 S
C619 H622 0.950 . S
C620 C619 1.387 1_554 S
C620 C623 1.387 . S
H621 C617 0.950 1_556 S
H622 C619 0.950 . S
C623 C614 1.390 . S
C623 H616 0.950 . S
C623 C620 1.387 . S
C265 C6 1.723 . S
C270 C8 1.731 . S
C275 C28 1.723 . S
C280 C30 1.732 . S
C285 C52 1.731 . S
C290 C50 1.723 1_556 S
C295 C72 1.723 . S
C300 C74 1.731 . S
C305 C96 1.731 1_554 S
C310 C94 1.722 . S
C315 C116 1.723 . S
C320 C118 1.731 . S
C325 C139 1.723 . S
C330 C136 1.731 . S
C335 C158 1.731 . S
C340 C161 1.723 . S
C345 C180 1.732 . S
C350 C183 1.723 . S
C355 C202 1.732 1_556 S
C360 C205 1.723 . S
C365 C227 1.723 . S
C370 C224 1.731 . S
C375 C246 1.732 . S
C380 C249 1.722 1_554 S
C385 C4 1.508 . S
C390 C162 1.508 . S
C395 C184 1.505 . S
C400 C26 1.506 . S
C405 C206 1.506 . S
C410 C48 1.507 . S
C415 C70 1.508 . S
C420 C228 1.508 . S
C425 C92 1.505 . S
C430 C250 1.505 . S
C435 C114 1.505 . S
C440 C140 1.506 . S
C445 C5 1.200 . S
C450 C229 1.200 . S
C455 C27 1.199 1_556 S
C460 C251 1.201 . S
C465 C141 1.200 1_554 S
C470 C49 1.197 . S
C475 C71 1.200 . S
C480 C163 1.200 . S
C485 C93 1.198 . S
C490 C185 1.201 . S
C495 C207 1.197 . S
C500 C115 1.199 . S
C505 C9 1.231 . S
C510 C181 1.230 . S
C515 C203 1.229 . S
C520 C31 1.229 . S
C525 C225 1.231 . S
C530 C53 1.231 . S
C535 C75 1.230 . S
C540 C247 1.230 . S
C545 C137 1.232 . S
C550 C97 1.232 . S
C555 C119 1.231 . S
C560 C159 1.231 . S
C565 C7 1.343 . S
C570 C226 1.343 . S
C575 C29 1.343 . S
C580 C248 1.339 . S
C585 C51 1.339 . S
C590 C138 1.343 . S
C595 C160 1.340 . S
C600 C73 1.340 . S
C605 C95 1.343 . S
C610 C182 1.343 1_556 S
C615 C204 1.339 . S
C620 C117 1.342 1_554 S
