# Generated by pormake.
# Topology wiv, (6)-cn, num edge types: 1
# Building blocks:
#     Node 0, Type 0, BuildingBlock: PAMTOO_clean_sbu_0, # of connection points: 6
#     Node 1, Type 0, BuildingBlock: PAMTOO_clean_sbu_0, # of connection points: 6
#     Node 2, Type 0, BuildingBlock: PAMTOO_clean_sbu_0, # of connection points: 6
#     Node 3, Type 0, BuildingBlock: PAMTOO_clean_sbu_0, # of connection points: 6
#     Node 4, Type 0, BuildingBlock: PAMTOO_clean_sbu_0, # of connection points: 6
#     Node 5, Type 0, BuildingBlock: PAMTOO_clean_sbu_0, # of connection points: 6
#     Node 6, Type 0, BuildingBlock: PAMTOO_clean_sbu_0, # of connection points: 6
#     Node 7, Type 0, BuildingBlock: PAMTOO_clean_sbu_0, # of connection points: 6
#     Node 8, Type 0, BuildingBlock: PAMTOO_clean_sbu_0, # of connection points: 6
#     Node 9, Type 0, BuildingBlock: PAMTOO_clean_sbu_0, # of connection points: 6
#     Node 10, Type 0, BuildingBlock: PAMTOO_clean_sbu_0, # of connection points: 6
#     Node 11, Type 0, BuildingBlock: PAMTOO_clean_sbu_0, # of connection points: 6
#     Node 12, Type 0, BuildingBlock: PAMTOO_clean_sbu_0, # of connection points: 6
#     Node 13, Type 0, BuildingBlock: PAMTOO_clean_sbu_0, # of connection points: 6
#     Node 14, Type 0, BuildingBlock: PAMTOO_clean_sbu_0, # of connection points: 6
#     Node 15, Type 0, BuildingBlock: PAMTOO_clean_sbu_0, # of connection points: 6
#     Edge 16, Type (0, 0), BuildingBlock: OJICUG_clean_linker_0, # of connection points: 2
#     Edge 17, Type (0, 0), BuildingBlock: OJICUG_clean_linker_0, # of connection points: 2
#     Edge 18, Type (0, 0), BuildingBlock: OJICUG_clean_linker_0, # of connection points: 2
#     Edge 19, Type (0, 0), BuildingBlock: OJICUG_clean_linker_0, # of connection points: 2
#     Edge 20, Type (0, 0), BuildingBlock: OJICUG_clean_linker_0, # of connection points: 2
#     Edge 21, Type (0, 0), BuildingBlock: OJICUG_clean_linker_0, # of connection points: 2
#     Edge 22, Type (0, 0), BuildingBlock: OJICUG_clean_linker_0, # of connection points: 2
#     Edge 23, Type (0, 0), BuildingBlock: OJICUG_clean_linker_0, # of connection points: 2
#     Edge 24, Type (0, 0), BuildingBlock: OJICUG_clean_linker_0, # of connection points: 2
#     Edge 25, Type (0, 0), BuildingBlock: OJICUG_clean_linker_0, # of connection points: 2
#     Edge 26, Type (0, 0), BuildingBlock: OJICUG_clean_linker_0, # of connection points: 2
#     Edge 27, Type (0, 0), BuildingBlock: OJICUG_clean_linker_0, # of connection points: 2
#     Edge 28, Type (0, 0), BuildingBlock: OJICUG_clean_linker_0, # of connection points: 2
#     Edge 29, Type (0, 0), BuildingBlock: OJICUG_clean_linker_0, # of connection points: 2
#     Edge 30, Type (0, 0), BuildingBlock: OJICUG_clean_linker_0, # of connection points: 2
#     Edge 31, Type (0, 0), BuildingBlock: OJICUG_clean_linker_0, # of connection points: 2
#     Edge 32, Type (0, 0), BuildingBlock: OJICUG_clean_linker_0, # of connection points: 2
#     Edge 33, Type (0, 0), BuildingBlock: OJICUG_clean_linker_0, # of connection points: 2
#     Edge 34, Type (0, 0), BuildingBlock: OJICUG_clean_linker_0, # of connection points: 2
#     Edge 35, Type (0, 0), BuildingBlock: OJICUG_clean_linker_0, # of connection points: 2
#     Edge 36, Type (0, 0), BuildingBlock: OJICUG_clean_linker_0, # of connection points: 2
#     Edge 37, Type (0, 0), BuildingBlock: OJICUG_clean_linker_0, # of connection points: 2
#     Edge 38, Type (0, 0), BuildingBlock: OJICUG_clean_linker_0, # of connection points: 2
#     Edge 39, Type (0, 0), BuildingBlock: OJICUG_clean_linker_0, # of connection points: 2
#     Edge 40, Type (0, 0), BuildingBlock: OJICUG_clean_linker_0, # of connection points: 2
#     Edge 41, Type (0, 0), BuildingBlock: OJICUG_clean_linker_0, # of connection points: 2
#     Edge 42, Type (0, 0), BuildingBlock: OJICUG_clean_linker_0, # of connection points: 2
#     Edge 43, Type (0, 0), BuildingBlock: OJICUG_clean_linker_0, # of connection points: 2
#     Edge 44, Type (0, 0), BuildingBlock: OJICUG_clean_linker_0, # of connection points: 2
#     Edge 45, Type (0, 0), BuildingBlock: OJICUG_clean_linker_0, # of connection points: 2
#     Edge 46, Type (0, 0), BuildingBlock: OJICUG_clean_linker_0, # of connection points: 2
#     Edge 47, Type (0, 0), BuildingBlock: OJICUG_clean_linker_0, # of connection points: 2
#     Edge 48, Type (0, 0), BuildingBlock: OJICUG_clean_linker_0, # of connection points: 2
#     Edge 49, Type (0, 0), BuildingBlock: OJICUG_clean_linker_0, # of connection points: 2
#     Edge 50, Type (0, 0), BuildingBlock: OJICUG_clean_linker_0, # of connection points: 2
#     Edge 51, Type (0, 0), BuildingBlock: OJICUG_clean_linker_0, # of connection points: 2
#     Edge 52, Type (0, 0), BuildingBlock: OJICUG_clean_linker_0, # of connection points: 2
#     Edge 53, Type (0, 0), BuildingBlock: OJICUG_clean_linker_0, # of connection points: 2
#     Edge 54, Type (0, 0), BuildingBlock: OJICUG_clean_linker_0, # of connection points: 2
#     Edge 55, Type (0, 0), BuildingBlock: OJICUG_clean_linker_0, # of connection points: 2
#     Edge 56, Type (0, 0), BuildingBlock: OJICUG_clean_linker_0, # of connection points: 2
#     Edge 57, Type (0, 0), BuildingBlock: OJICUG_clean_linker_0, # of connection points: 2
#     Edge 58, Type (0, 0), BuildingBlock: OJICUG_clean_linker_0, # of connection points: 2
#     Edge 59, Type (0, 0), BuildingBlock: OJICUG_clean_linker_0, # of connection points: 2
#     Edge 60, Type (0, 0), BuildingBlock: OJICUG_clean_linker_0, # of connection points: 2
#     Edge 61, Type (0, 0), BuildingBlock: OJICUG_clean_linker_0, # of connection points: 2
#     Edge 62, Type (0, 0), BuildingBlock: OJICUG_clean_linker_0, # of connection points: 2
#     Edge 63, Type (0, 0), BuildingBlock: OJICUG_clean_linker_0, # of connection points: 2
# Relax obj value: 0.202
# Max RMSD: 0.233
# Mean RMSD: 0.233
data_MOF--net-wiv--node1-PAMTOO_clean_sbu_0--edge1-OJICUG_clean_linker_0
_symmetry_space_group_name_H-M    P1
_symmetry_Int_Tables_number       1
_symmetry_cell_setting            triclinic
loop_
_symmetry_equiv_pos_as_xyz
'x, y, z'
_cell_length_a     34.953863
_cell_length_b     34.982671
_cell_length_c     20.007418
_cell_angle_alpha  90.109097
_cell_angle_beta   89.851254
_cell_angle_gamma 89.830067
loop_
_atom_site_label
_atom_site_type_symbol
_atom_site_fract_x
_atom_site_fract_y
_atom_site_fract_z
_atom_type_partial_charge
Dy0 Dy 0.3813 0.09752 0.0747 0.0
Dy1 Dy 0.31556 0.08612 0.19354 0.0
C2 C 0.34193 0.16859 0.14766 0.0
O3 O 0.41331 0.1139 0.16708 0.0
O4 O 0.37164 0.08995 0.24706 0.0
O5 O 0.41325 0.13143 1.00338 0.0
O6 O 0.41546 0.06964 0.9986 0.0
O7 O 0.33477 0.03141 0.14743 0.0
O8 O 0.39678 0.04615 0.13478 0.0
O9 O 0.28231 0.09624 0.09881 0.0
O10 O 0.32909 0.07199 1.03088 0.0
O11 O 0.29036 0.04515 0.26079 0.0
O12 O 0.27145 0.10408 0.26359 0.0
C13 C 0.40472 0.10503 0.22958 0.0
O14 O 0.35122 0.1538 0.0892 0.0
O15 O 0.33319 0.14692 0.19873 0.0
C16 C 0.40894 0.10183 0.89588 0.0
C17 C 0.37676 0.09576 0.76623 0.0
C18 C 0.36749 0.1268 0.80811 0.0
C19 C 0.38322 0.12972 0.87224 0.0
C20 C 0.41914 0.07146 0.85326 0.0
C21 C 0.40312 0.06835 0.78934 0.0
C22 C 0.42162 0.10154 0.96674 0.0
C23 C 0.37067 0.02175 0.15381 0.0
C24 C 0.29402 0.08401 1.03977 0.0
C25 C 0.28262 0.07313 0.36807 0.0
C26 C 0.30836 0.07948 0.50226 0.0
C27 C 0.31659 0.04667 0.46399 0.0
C28 C 0.30385 0.04349 0.39801 0.0
C29 C 0.27319 0.10535 0.40692 0.0
C30 C 0.28589 0.1085 0.47313 0.0
C31 C 0.27296 0.07157 0.29564 0.0
H32 H 0.34702 0.1482 0.79219 0.0
H33 H 0.37425 0.15324 0.90394 0.0
H34 H 0.43869 0.04945 0.8702 0.0
H35 H 0.41125 0.04433 0.75808 0.0
H36 H 0.33408 0.02386 0.48411 0.0
H37 H 0.31163 0.01811 0.36995 0.0
H38 H 0.25651 0.12848 0.38576 0.0
H39 H 0.27818 0.1338 0.50142 0.0
Dy40 Dy 0.08066 0.67356 0.89208 0.0
Dy41 Dy 0.09427 0.60907 1.01071 0.0
C42 C 0.01674 0.62044 0.93636 0.0
O43 O 0.09233 0.707 0.98662 0.0
O44 O 0.06879 0.66107 0.0561 0.0
O45 O 0.03989 0.69372 0.81916 0.0
O46 O 0.09524 0.72101 0.82744 0.0
O47 O 0.15005 0.63962 0.99394 0.0
O48 O 0.14203 0.65807 0.88485 0.0
O49 O 0.11487 0.57834 0.91974 0.0
O50 O 0.08615 0.61673 0.83983 0.0
O51 O 0.12909 0.58271 0.08759 0.0
O52 O 0.06896 0.56916 0.08019 0.0
C53 C 0.0816 0.69569 1.0467 0.0
O54 O 0.02659 0.65624 0.94185 0.0
O55 O 0.0421 0.59427 0.95146 0.0
C56 C 0.07139 0.70729 0.71861 0.0
C57 C 0.07797 0.67892 0.58607 0.0
C58 C 0.04513 0.69931 0.60679 0.0
C59 C 0.04196 0.71338 0.67226 0.0
C60 C 0.10466 0.68801 0.69765 0.0
C61 C 0.10808 0.6744 0.6321 0.0
C62 C 0.06495 0.71579 0.79027 0.0
C63 C 0.16421 0.64996 0.93554 0.0
C64 C 0.10469 0.58544 0.85751 0.0
C65 C 0.09411 0.57971 0.1891 0.0
C66 C 0.08745 0.60934 0.32089 0.0
C67 C 0.12153 0.59159 0.29914 0.0
C68 C 0.12479 0.57695 0.23405 0.0
C69 C 0.05964 0.59638 0.21145 0.0
C70 C 0.05638 0.61097 0.27643 0.0
C71 C 0.09934 0.56837 0.11795 0.0
H72 H 0.02113 0.70315 0.57337 0.0
H73 H 0.01579 0.72765 0.6875 0.0
H74 H 0.12771 0.68248 0.73243 0.0
H75 H 0.13421 0.65977 0.61794 0.0
H76 H 0.14618 0.59006 0.3317 0.0
H77 H 0.15172 0.56443 0.2182 0.0
H78 H 0.03537 0.59916 0.17826 0.0
H79 H 0.02949 0.6238 0.29164 0.0
Dy80 Dy 0.60862 0.90113 0.07596 0.0
Dy81 Dy 0.67929 0.89474 0.18847 0.0
C82 C 0.64345 0.82153 0.12594 0.0
O83 O 0.57373 0.90218 0.16895 0.0
O84 O 0.62326 0.88869 0.24201 0.0
O85 O 0.56888 0.87485 1.00689 0.0
O86 O 0.58121 0.93534 0.99967 0.0
O87 O 0.66955 0.95597 0.16592 0.0
O88 O 0.60682 0.95571 0.13463 0.0
O89 O 0.71496 0.89914 0.09587 0.0
O90 O 0.66442 0.90363 1.0222 0.0
O91 O 0.71849 0.92056 0.25888 0.0
O92 O 0.70712 0.85995 0.26369 0.0
C93 C 0.58683 0.89448 0.22907 0.0
O94 O 0.61195 0.84037 0.11174 0.0
O95 O 0.67585 0.83928 0.13544 0.0
C96 C 0.57887 0.90107 0.89796 0.0
C97 C 0.60926 0.89841 0.7659 0.0
C98 C 0.61664 0.86878 0.81167 0.0
C99 C 0.6018 0.87015 0.87683 0.0
C100 C 0.57056 0.93016 0.85184 0.0
C101 C 0.5856 0.92892 0.7867 0.0
C102 C 0.56735 0.90538 0.96931 0.0
C103 C 0.6359 0.97232 0.16406 0.0
C104 C 0.70121 0.90236 1.03481 0.0
C105 C 0.70812 0.89323 0.36667 0.0
C106 C 0.67858 0.89587 0.49936 0.0
C107 C 0.67208 0.92615 0.45448 0.0
C108 C 0.68651 0.9248 0.38908 0.0
C109 C 0.71524 0.86327 0.41163 0.0
C110 C 0.70074 0.86457 0.47712 0.0
C111 C 0.72019 0.88973 0.29547 0.0
H112 H 0.6351 0.8451 0.79797 0.0
H113 H 0.6094 0.84754 0.91129 0.0
H114 H 0.55322 0.95445 0.86678 0.0
H115 H 0.57885 0.95201 0.7527 0.0
H116 H 0.65476 0.95049 0.46912 0.0
H117 H 0.67988 0.94816 0.35564 0.0
H118 H 0.73165 0.83854 0.39578 0.0
H119 H 0.70696 0.84098 0.51034 0.0
Dy120 Dy 0.91884 0.32648 0.90534 0.0
Dy121 Dy 0.90617 0.39234 1.02357 0.0
C122 C 0.9832 0.37821 0.94924 0.0
O123 O 0.90521 0.29309 0.99851 0.0
O124 O 0.92819 0.33899 0.06929 0.0
O125 O 0.96157 0.30641 0.83531 0.0
O126 O 0.90534 0.28038 0.83692 0.0
O127 O 0.84831 0.36684 1.00242 0.0
O128 O 0.85775 0.34315 0.89611 0.0
O129 O 0.88825 0.42367 0.93211 0.0
O130 O 0.91494 0.38289 0.85325 0.0
O131 O 0.87238 0.41876 0.10227 0.0
O132 O 0.93228 0.43269 0.09142 0.0
C133 C 0.91487 0.30459 0.05899 0.0
O134 O 0.97187 0.34315 0.95829 0.0
O135 O 0.95911 0.40551 0.96465 0.0
C136 C 0.9324 0.29706 0.73133 0.0
C137 C 0.92803 0.32774 0.60042 0.0
C138 C 0.96148 0.30914 0.62252 0.0
C139 C 0.96369 0.29418 0.68741 0.0
C140 C 0.89883 0.31523 0.70906 0.0
C141 C 0.89664 0.33021 0.64439 0.0
C142 C 0.93671 0.28606 0.80242 0.0
C143 C 0.83503 0.35487 0.94429 0.0
C144 C 0.89814 0.41525 0.87009 0.0
C145 C 0.90881 0.42261 0.20168 0.0
C146 C 0.9171 0.39448 0.33401 0.0
C147 C 0.88393 0.41465 0.31475 0.0
C148 C 0.8799 0.42858 0.24944 0.0
C149 C 0.94235 0.4033 0.22122 0.0
C150 C 0.94649 0.38959 0.28649 0.0
C151 C 0.90246 0.43352 0.13078 0.0
H152 H 0.98634 0.30705 0.59031 0.0
H153 H 0.99015 0.28104 0.7038 0.0
H154 H 0.87446 0.31866 0.74211 0.0
H155 H 0.87031 0.34394 0.62893 0.0
H156 H 0.86047 0.41869 0.34951 0.0
H157 H 0.85367 0.44313 0.2357 0.0
H158 H 0.9652 0.39796 0.1857 0.0
H159 H 0.97275 0.37492 0.29952 0.0
Dy160 Dy 0.38343 0.40545 0.25944 0.0
Dy161 Dy 0.31743 0.41355 0.14121 0.0
C162 C 0.34637 0.33246 0.18736 0.0
O163 O 0.41511 0.38618 0.16823 0.0
O164 O 0.37422 0.41123 0.08818 0.0
O165 O 0.41216 0.37271 0.33653 0.0
O166 O 0.4212 0.43362 0.32923 0.0
O167 O 0.33302 0.47003 0.18396 0.0
O168 O 0.39575 0.45807 0.19912 0.0
O169 O 0.28582 0.40054 0.23701 0.0
O170 O 0.33015 0.42924 0.30317 0.0
O171 O 0.29024 0.45159 0.07044 0.0
O172 O 0.27281 0.39246 0.07589 0.0
C173 C 0.40688 0.39527 0.10587 0.0
O174 O 0.35584 0.3477 0.24538 0.0
O175 O 0.33768 0.35375 0.13592 0.0
C176 C 0.41286 0.4077 0.43832 0.0
C177 C 0.38351 0.41265 0.57068 0.0
C178 C 0.40153 0.37901 0.54764 0.0
C179 C 0.41604 0.3766 0.48233 0.0
C180 C 0.39599 0.44176 0.46202 0.0
C181 C 0.38151 0.44417 0.52724 0.0
C182 C 0.42429 0.40338 0.36694 0.0
C183 C 0.36852 0.48149 0.18032 0.0
C184 C 0.29667 0.41334 0.296 0.0
C185 C 0.28335 0.41938 0.96807 0.0
C186 C 0.31336 0.41671 0.83605 0.0
C187 C 0.29219 0.44863 0.85863 0.0
C188 C 0.27732 0.44987 0.92379 0.0
C189 C 0.30359 0.38709 0.94519 0.0
C190 C 0.31801 0.38562 0.87994 0.0
C191 C 0.27324 0.42355 1.03976 0.0
H192 H 0.40338 0.35404 0.57936 0.0
H193 H 0.42882 0.35 0.46559 0.0
H194 H 0.39299 0.46638 0.42971 0.0
H195 H 0.36848 0.47075 0.54344 0.0
H196 H 0.2882 0.47334 0.82691 0.0
H197 H 0.26228 0.4753 0.94042 0.0
H198 H 0.30909 0.36318 0.97815 0.0
H199 H 0.33322 0.36012 0.86427 0.0
Dy200 Dy 0.40702 0.68917 0.94867 0.0
Dy201 Dy 0.40327 0.62344 0.82865 0.0
C202 C 0.47697 0.63843 0.91332 0.0
O203 O 0.39586 0.72108 0.85273 0.0
O204 O 0.42676 0.67718 0.78784 0.0
O205 O 0.44262 0.72173 1.01595 0.0
O206 O 0.38137 0.72988 1.01748 0.0
O207 O 0.34462 0.64974 0.83986 0.0
O208 O 0.34849 0.66566 0.95049 0.0
O209 O 0.38845 0.58993 0.91988 0.0
O210 O 0.40735 0.63268 1.00223 0.0
O211 O 0.37233 0.58884 0.75711 0.0
O212 O 0.43406 0.59235 0.75204 0.0
C213 C 0.41092 0.71075 0.79498 0.0
O214 O 0.46488 0.67381 0.91077 0.0
O215 O 0.45531 0.61111 0.88971 0.0
C216 C 0.41282 0.72509 0.12258 0.0
C217 C 0.40955 0.6986 0.25648 0.0
C218 C 0.44396 0.69705 0.21994 0.0
C219 C 0.44562 0.71029 0.15412 0.0
C220 C 0.3788 0.72809 0.15988 0.0
C221 C 0.37719 0.71504 0.226 0.0
C222 C 0.41337 0.7344 0.05004 0.0
C223 C 0.32819 0.65706 0.89786 0.0
C224 C 0.3956 0.59855 0.98297 0.0
C225 C 0.40116 0.59594 0.64947 0.0
C226 C 0.40271 0.62857 0.51991 0.0
C227 C 0.36981 0.63156 0.56023 0.0
C228 C 0.36907 0.61558 0.62432 0.0
C229 C 0.43356 0.59187 0.60827 0.0
C230 C 0.43442 0.60815 0.5444 0.0
C231 C 0.40281 0.58334 0.7203 0.0
H232 H 0.46948 0.68452 0.24138 0.0
H233 H 0.47259 0.70826 0.12764 0.0
H234 H 0.35316 0.73985 0.13752 0.0
H235 H 0.35044 0.71762 0.25308 0.0
H236 H 0.34503 0.64735 0.54306 0.0
H237 H 0.34372 0.61963 0.65478 0.0
H238 H 0.45873 0.57698 0.62624 0.0
H239 H 0.46002 0.60489 0.51425 0.0
Dy240 Dy 0.60655 0.58917 0.27416 0.0
Dy241 Dy 0.67406 0.57844 0.15591 0.0
C242 C 0.64385 0.66215 0.19663 0.0
O243 O 0.57408 0.60591 0.18341 0.0
O244 O 0.61865 0.58851 0.10254 0.0
O245 O 0.58009 0.62166 0.35429 0.0
O246 O 0.56693 0.56171 0.34189 0.0
O247 O 0.65501 0.52424 0.2027 0.0
O248 O 0.59266 0.53756 0.21257 0.0
O249 O 0.70711 0.59137 0.24905 0.0
O250 O 0.66083 0.56799 0.31864 0.0
O251 O 0.69716 0.53615 0.08757 0.0
O252 O 0.719 0.59387 0.08626 0.0
C253 C 0.58454 0.60093 0.12059 0.0
O254 O 0.6253 0.64902 0.24938 0.0
O255 O 0.66165 0.64022 0.15331 0.0
C256 C 0.5766 0.58458 0.45277 0.0
C257 C 0.60475 0.57639 0.5851 0.0
C258 C 0.58376 0.6091 0.56617 0.0
C259 C 0.5698 0.61306 0.5009 0.0
C260 C 0.59677 0.55149 0.47186 0.0
C261 C 0.61048 0.54738 0.53717 0.0
C262 C 0.56568 0.59118 0.38198 0.0
C263 C 0.61957 0.51369 0.19445 0.0
C264 C 0.69513 0.5819 0.30918 0.0
C265 C 0.70302 0.56489 0.98205 0.0
C266 C 0.67159 0.56736 0.85154 0.0
C267 C 0.68979 0.53407 0.87514 0.0
C268 C 0.70502 0.53277 0.93991 0.0
C269 C 0.68517 0.59827 0.9582 0.0
C270 C 0.66974 0.59949 0.89379 0.0
C271 C 0.71509 0.56197 0.05289 0.0
H272 H 0.57908 0.63231 0.60113 0.0
H273 H 0.55459 0.63895 0.48747 0.0
H274 H 0.60277 0.52902 0.43599 0.0
H275 H 0.62581 0.52147 0.54988 0.0
H276 H 0.6914 0.5087 0.84415 0.0
H277 H 0.71792 0.50646 0.95748 0.0
H278 H 0.6824 0.62332 0.98975 0.0
H279 H 0.65626 0.62569 0.87707 0.0
Dy280 Dy 0.59392 0.31481 0.94246 0.0
Dy281 Dy 0.59577 0.38185 0.82595 0.0
C282 C 0.5209 0.36027 0.90616 0.0
O283 O 0.60728 0.28357 0.84627 0.0
O284 O 0.57689 0.32738 0.7805 0.0
O285 O 0.5601 0.28201 1.01216 0.0
O286 O 0.62162 0.27569 1.01114 0.0
O287 O 0.65588 0.3591 0.83848 0.0
O288 O 0.65057 0.34253 0.94829 0.0
O289 O 0.60758 0.41495 0.91945 0.0
O290 O 0.5871 0.37027 0.99675 0.0
O291 O 0.62604 0.41717 0.75433 0.0
O292 O 0.56432 0.41443 0.7526 0.0
C293 C 0.59353 0.29419 0.78781 0.0
O294 O 0.53536 0.32573 0.90378 0.0
O295 O 0.54126 0.38911 0.88413 0.0
C296 C 0.59128 0.28436 0.11717 0.0
C297 C 0.59328 0.31514 0.24866 0.0
C298 C 0.55826 0.30958 0.21559 0.0
C299 C 0.55727 0.29447 0.15079 0.0
C300 C 0.62629 0.28946 0.15055 0.0
C301 C 0.62727 0.30462 0.21542 0.0
C302 C 0.59022 0.27174 1.04601 0.0
C303 C 0.67157 0.35211 0.897 0.0
C304 C 0.59848 0.40494 0.98115 0.0
C305 C 0.59583 0.41243 0.64751 0.0
C306 C 0.59566 0.38291 0.51509 0.0
C307 C 0.63025 0.38834 0.54967 0.0
C308 C 0.63034 0.40288 0.61503 0.0
C309 C 0.56139 0.4084 0.6119 0.0
C310 C 0.56129 0.39368 0.54676 0.0
C311 C 0.59513 0.42359 0.71948 0.0
H312 H 0.53153 0.31764 0.23926 0.0
H313 H 0.52975 0.29112 0.12673 0.0
H314 H 0.65306 0.28202 0.12636 0.0
H315 H 0.65472 0.30794 0.23969 0.0
H316 H 0.65724 0.38022 0.52699 0.0
H317 H 0.65744 0.40568 0.64066 0.0
H318 H 0.53428 0.41578 0.63499 0.0
H319 H 0.53417 0.39061 0.52124 0.0
Dy320 Dy 0.8795 0.59559 0.57784 0.0
Dy321 Dy 0.81196 0.59381 0.69691 0.0
C322 C 0.84856 0.67115 0.64936 0.0
O323 O 0.91389 0.60557 0.67056 0.0
O324 O 0.86769 0.59267 0.75166 0.0
O325 O 0.9151 0.62578 0.50658 0.0
O326 O 0.90943 0.5643 0.5005 0.0
O327 O 0.82645 0.53554 0.65982 0.0
O328 O 0.8896 0.54287 0.63778 0.0
O329 O 0.78117 0.60596 0.60046 0.0
O330 O 0.82498 0.57395 0.53669 0.0
O331 O 0.77826 0.55959 0.76477 0.0
O332 O 0.77174 0.62098 0.76497 0.0
C333 C 0.90304 0.60062 0.73332 0.0
O334 O 0.85573 0.65512 0.59102 0.0
O335 O 0.8386 0.65078 0.70107 0.0
C336 C 0.9072 0.59776 0.39826 0.0
C337 C 0.87501 0.59788 0.26817 0.0
C338 C 0.87341 0.6308 0.30859 0.0
C339 C 0.88917 0.63072 0.37294 0.0
C340 C 0.90998 0.56532 0.3569 0.0
C341 C 0.89393 0.56529 0.29284 0.0
C342 C 0.91957 0.59536 0.46925 0.0
C343 C 0.86155 0.52246 0.66223 0.0
C344 C 0.79173 0.59066 0.54306 0.0
C345 C 0.77717 0.59025 0.87083 0.0
C346 C 0.80527 0.59342 1.00394 0.0
C347 C 0.80531 0.55884 0.96794 0.0
C348 C 0.79128 0.55724 0.90261 0.0
C349 C 0.77605 0.62463 0.90738 0.0
C350 C 0.78988 0.62619 0.97309 0.0
C351 C 0.76682 0.58941 0.79861 0.0
H352 H 0.85884 0.65628 0.29132 0.0
H353 H 0.88619 0.65616 0.40345 0.0
H354 H 0.92367 0.53949 0.3749 0.0
H355 H 0.89617 0.53963 0.26267 0.0
H356 H 0.81702 0.53299 0.98957 0.0
H357 H 0.79189 0.53003 0.87685 0.0
H358 H 0.76505 0.65053 0.88481 0.0
H359 H 0.78856 0.65315 0.99965 0.0
Dy360 Dy 0.5883 0.17784 0.39635 0.0
Dy361 Dy 0.59391 0.11136 0.51382 0.0
C362 C 0.51889 0.12873 0.43339 0.0
O363 O 0.6019 0.20965 0.49157 0.0
O364 O 0.57331 0.16553 0.55892 0.0
O365 O 0.55084 0.20794 0.32829 0.0
O366 O 0.61155 0.2195 0.3274 0.0
O367 O 0.65286 0.13638 0.5 0.0
O368 O 0.64728 0.15543 0.39094 0.0
O369 O 0.61211 0.07938 0.42267 0.0
O370 O 0.58833 0.12118 0.34305 0.0
O371 O 0.62518 0.07872 0.5878 0.0
O372 O 0.56344 0.07636 0.58505 0.0
C373 C 0.5894 0.19887 0.55084 0.0
O374 O 0.53139 0.16373 0.43871 0.0
O375 O 0.54123 0.10071 0.45255 0.0
C376 C 0.58106 0.2087 0.22242 0.0
C377 C 0.58277 0.1782 0.09086 0.0
C378 C 0.54783 0.18817 0.12144 0.0
C379 C 0.547 0.20328 0.18633 0.0
C380 C 0.61602 0.19898 0.19161 0.0
C381 C 0.61685 0.1841 0.12662 0.0
C382 C 0.57962 0.22091 0.29367 0.0
C383 C 0.66831 0.14535 0.44186 0.0
C384 C 0.60338 0.08809 0.36045 0.0
C385 C 0.59223 0.08105 0.69226 0.0
C386 C 0.58869 0.11057 0.82454 0.0
C387 C 0.62413 0.10257 0.79387 0.0
C388 C 0.62588 0.08795 0.72869 0.0
C389 C 0.55677 0.08771 0.72381 0.0
C390 C 0.55502 0.10236 0.78894 0.0
C391 C 0.59407 0.06979 0.62043 0.0
H392 H 0.52107 0.18447 0.09508 0.0
H393 H 0.51959 0.21032 0.20863 0.0
H394 H 0.64284 0.20238 0.21791 0.0
H395 H 0.64424 0.17641 0.10493 0.0
H396 H 0.65066 0.10773 0.82016 0.0
H397 H 0.65369 0.08282 0.70635 0.0
H398 H 0.5302 0.08259 0.69756 0.0
H399 H 0.5272 0.10831 0.81058 0.0
Dy400 Dy 0.11029 0.39571 0.57561 0.0
Dy401 Dy 0.18065 0.38503 0.68734 0.0
C402 C 0.14419 0.31459 0.61863 0.0
O403 O 0.07559 0.39835 0.66855 0.0
O404 O 0.12411 0.37945 0.73979 0.0
O405 O 0.06907 0.37116 0.50716 0.0
O406 O 0.08489 0.43073 0.4983 0.0
O407 O 0.1715 0.44735 0.67744 0.0
O408 O 0.1107 0.45054 0.63439 0.0
O409 O 0.21639 0.3925 0.59495 0.0
O410 O 0.1658 0.39677 0.52151 0.0
O411 O 0.22287 0.40554 0.75785 0.0
O412 O 0.20396 0.34684 0.76218 0.0
C413 C 0.08817 0.38836 0.72791 0.0
O414 O 0.11268 0.33434 0.60887 0.0
O415 O 0.17687 0.33183 0.62756 0.0
C416 C 0.08057 0.39581 0.39748 0.0
C417 C 0.11061 0.3909 0.26518 0.0
C418 C 0.11843 0.36227 0.31271 0.0
C419 C 0.10373 0.36474 0.37792 0.0
C420 C 0.07182 0.42389 0.34973 0.0
C421 C 0.08664 0.4215 0.28447 0.0
C422 C 0.06929 0.40139 0.46874 0.0
C423 C 0.13897 0.46533 0.66918 0.0
C424 C 0.20256 0.39581 0.5339 0.0
C425 C 0.20879 0.37939 0.86522 0.0
C426 C 0.17926 0.38411 0.99782 0.0
C427 C 0.17133 0.41286 0.95057 0.0
C428 C 0.18571 0.41043 0.88518 0.0
C429 C 0.21723 0.35092 0.91236 0.0
C430 C 0.20275 0.35326 0.97783 0.0
C431 C 0.22069 0.37462 0.79418 0.0
H432 H 0.13714 0.33855 0.30036 0.0
H433 H 0.11167 0.34293 0.41369 0.0
H434 H 0.05428 0.44828 0.36342 0.0
H435 H 0.07946 0.44383 0.24921 0.0
H436 H 0.15293 0.43673 0.9634 0.0
H437 H 0.17791 0.43245 0.84975 0.0
H438 H 0.23466 0.32654 0.89827 0.0
H439 H 0.21001 0.33084 1.01283 0.0
Dy440 Dy 0.42146 0.83029 0.4087 0.0
Dy441 Dy 0.40635 0.89804 0.52573 0.0
C442 C 0.48357 0.88452 0.45295 0.0
O443 O 0.40923 0.79615 0.501 0.0
O444 O 0.42644 0.84411 0.57329 0.0
O445 O 0.46567 0.81482 0.33794 0.0
O446 O 0.41262 0.78294 0.34043 0.0
O447 O 0.34737 0.87963 0.49403 0.0
O448 O 0.35886 0.83856 0.40457 0.0
O449 O 0.39326 0.93128 0.43396 0.0
O450 O 0.4089 0.88483 0.35482 0.0
O451 O 0.37211 0.92307 0.60521 0.0
O452 O 0.43161 0.93867 0.59414 0.0
C453 C 0.41587 0.80878 0.56199 0.0
O454 O 0.47262 0.8496 0.46431 0.0
O455 O 0.45932 0.91172 0.46763 0.0
C456 C 0.4376 0.80176 0.23432 0.0
C457 C 0.43101 0.83138 0.10281 0.0
C458 C 0.46491 0.81318 0.12384 0.0
C459 C 0.46824 0.79881 0.18904 0.0
C460 C 0.40353 0.81938 0.21309 0.0
C461 C 0.40024 0.83388 0.14816 0.0
C462 C 0.44313 0.79168 0.3056 0.0
C463 C 0.33572 0.85818 0.44354 0.0
C464 C 0.39728 0.91933 0.37182 0.0
C465 C 0.40867 0.92712 0.70443 0.0
C466 C 0.41759 0.89824 0.83633 0.0
C467 C 0.38467 0.91916 0.81815 0.0
C468 C 0.38033 0.93345 0.75309 0.0
C469 C 0.44195 0.907 0.7228 0.0
C470 C 0.44641 0.89293 0.78784 0.0
C471 C 0.40188 0.93843 0.63379 0.0
H472 H 0.48932 0.81108 0.09059 0.0
H473 H 0.49509 0.78612 0.20459 0.0
H474 H 0.37967 0.82286 0.24725 0.0
H475 H 0.3736 0.84733 0.13363 0.0
H476 H 0.3616 0.92355 0.85357 0.0
H477 H 0.35428 0.94859 0.74024 0.0
H478 H 0.46432 0.90131 0.68653 0.0
H479 H 0.4725 0.87771 0.79991 0.0
Dy480 Dy 0.88564 0.90712 0.76496 0.0
Dy481 Dy 0.81996 0.91603 0.64585 0.0
C482 C 0.84934 0.83457 0.69034 0.0
O483 O 0.91749 0.88764 0.67421 0.0
O484 O 0.87666 0.91153 0.59286 0.0
O485 O 0.91357 0.87393 0.8423 0.0
O486 O 0.92387 0.93465 0.83471 0.0
O487 O 0.8371 0.97199 0.68886 0.0
O488 O 0.89952 0.9589 0.70415 0.0
O489 O 0.78783 0.9034 0.74105 0.0
O490 O 0.8323 0.93121 0.80827 0.0
O491 O 0.79378 0.95494 0.57539 0.0
O492 O 0.77469 0.89629 0.58061 0.0
C493 C 0.90929 0.89583 0.61145 0.0
O494 O 0.8587 0.84943 0.7487 0.0
O495 O 0.83943 0.85601 0.63973 0.0
C496 C 0.91491 0.90901 0.94376 0.0
C497 C 0.88542 0.91441 0.07584 0.0
C498 C 0.90351 0.88071 0.05328 0.0
C499 C 0.9181 0.87808 0.98809 0.0
C500 C 0.89792 0.94312 0.96692 0.0
C501 C 0.8834 0.94576 1.03205 0.0
C502 C 0.92633 0.90439 0.87253 0.0
C503 C 0.87283 0.98265 0.68466 0.0
C504 C 0.79849 0.91611 0.80016 0.0
C505 C 0.78579 0.92315 0.47296 0.0
C506 C 0.81549 0.91987 0.34092 0.0
C507 C 0.79548 0.95243 0.36379 0.0
C508 C 0.7808 0.954 0.42904 0.0
C509 C 0.80484 0.89024 0.44971 0.0
C510 C 0.81916 0.8885 0.38444 0.0
C511 C 0.77593 0.92744 0.54469 0.0
H512 H 0.90535 0.85585 0.08528 0.0
H513 H 0.93094 0.85143 0.97167 0.0
H514 H 0.89488 0.96759 0.93428 0.0
H515 H 0.87033 0.97239 0.0479 0.0
H516 H 0.79229 0.97731 0.33219 0.0
H517 H 0.76668 0.97989 0.44598 0.0
H518 H 0.80956 0.86605 0.48242 0.0
H519 H 0.83356 0.8626 0.36843 0.0
Dy520 Dy 0.90981 0.18598 0.44656 0.0
Dy521 Dy 0.90717 0.11994 0.32721 0.0
C522 C 0.98125 0.13793 0.41003 0.0
O523 O 0.89672 0.21748 0.35091 0.0
O524 O 0.92809 0.17434 0.28504 0.0
O525 O 0.94425 0.21927 0.51431 0.0
O526 O 0.88277 0.22555 0.51589 0.0
O527 O 0.84769 0.14378 0.34112 0.0
O528 O 0.8526 0.15954 0.45158 0.0
O529 O 0.89432 0.08639 0.41924 0.0
O530 O 0.91385 0.12978 0.49998 0.0
O531 O 0.87659 0.08456 0.25637 0.0
O532 O 0.93824 0.08891 0.25084 0.0
C533 C 0.91127 0.20739 0.29262 0.0
O534 O 0.96807 0.17296 0.40782 0.0
O535 O 0.96037 0.10999 0.38628 0.0
C536 C 0.91422 0.2199 0.62079 0.0
C537 C 0.91133 0.19226 0.75396 0.0
C538 C 0.94525 0.18969 0.71626 0.0
C539 C 0.94669 0.20331 0.65068 0.0
C540 C 0.88059 0.22346 0.659 0.0
C541 C 0.87914 0.20978 0.72476 0.0
C542 C 0.91458 0.2305 0.54881 0.0
C543 C 0.83188 0.15012 0.39998 0.0
C544 C 0.90234 0.09542 0.48182 0.0
C545 C 0.90507 0.09128 0.1484 0.0
C546 C 0.90591 0.12296 1.01808 0.0
C547 C 0.87315 0.12601 0.05872 0.0
C548 C 0.87275 0.11047 0.12316 0.0
C549 C 0.93735 0.08711 0.10692 0.0
C550 C 0.93785 0.1029 1.04266 0.0
C551 C 0.90706 0.07923 0.21949 0.0
H552 H 0.97051 0.1761 0.73666 0.0
H553 H 0.9732 0.20014 0.62313 0.0
H554 H 0.85518 0.23632 0.6377 0.0
H555 H 0.85275 0.21294 0.75273 0.0
H556 H 0.8482 0.14155 1.04157 0.0
H557 H 0.84748 0.11457 0.1538 0.0
H558 H 0.96269 0.07255 0.12496 0.0
H559 H 0.96336 0.09957 1.01231 0.0
Dy560 Dy 0.10574 0.08567 0.77412 0.0
Dy561 Dy 0.1721 0.0693 0.65557 0.0
C562 C 0.14486 0.1552 0.69047 0.0
O563 O 0.07581 0.10506 0.68179 0.0
O564 O 0.11588 0.07626 0.60363 0.0
O565 O 0.08278 0.11988 0.85532 0.0
O566 O 0.06291 0.06204 0.84051 0.0
O567 O 0.1527 0.01845 0.71194 0.0
O568 O 0.09072 0.03289 0.71678 0.0
O569 O 0.20649 0.08219 0.74758 0.0
O570 O 0.15932 0.06411 0.82064 0.0
O571 O 0.1894 0.02514 0.58588 0.0
O572 O 0.21889 0.07946 0.58659 0.0
C573 C 0.08451 0.09503 0.61994 0.0
O574 O 0.12701 0.14391 0.74524 0.0
O575 O 0.1612 0.1316 0.64783 0.0
C576 C 0.07539 0.08217 0.95211 0.0
C577 C 0.10345 0.07082 0.0839 0.0
C578 C 0.08002 0.10249 0.06844 0.0
C579 C 0.06618 0.10805 1.00338 0.0
C580 C 0.09789 0.04998 0.96766 0.0
C581 C 0.11159 0.04431 1.03269 0.0
C582 C 0.06496 0.09092 0.88182 0.0
C583 C 0.11741 0.00813 0.70158 0.0
C584 C 0.19448 0.07502 0.80881 0.0
C585 C 0.20083 0.05316 0.48149 0.0
C586 C 0.1707 0.05787 0.35011 0.0
C587 C 0.19296 0.02618 0.36986 0.0
C588 C 0.20767 0.02378 0.43502 0.0
C589 C 0.17922 0.08508 0.46148 0.0
C590 C 0.1645 0.08747 0.39666 0.0
C591 C 0.21146 0.04835 0.55265 0.0
H592 H 0.0734 0.12382 0.10604 0.0
H593 H 0.0492 0.13326 0.99264 0.0
H594 H 0.10583 0.02963 0.92915 0.0
H595 H 0.12888 0.01923 1.04257 0.0
H596 H 0.19807 0.0027 0.33561 0.0
H597 H 0.22363 -0.00145 0.44958 0.0
H598 H 0.17283 0.10787 0.49655 0.0
H599 H 0.14795 0.1125 0.38316 0.0
Dy600 Dy 0.10511 0.81457 0.43541 0.0
Dy601 Dy 0.09528 0.88524 0.32335 0.0
C602 C 0.02582 0.8585 0.41803 0.0
O603 O 0.09902 0.77906 0.34272 0.0
O604 O 0.0929 0.82959 0.26962 0.0
O605 O 0.08288 0.77286 0.50529 0.0
O606 O 0.1421 0.78999 0.51089 0.0
O607 O 0.15646 0.88339 0.35718 0.0
O608 O 0.15958 0.81946 0.37902 0.0
O609 O 0.09382 0.91972 0.41688 0.0
O610 O 0.11176 0.87067 0.48792 0.0
O611 O 0.12039 0.9257 0.25414 0.0
O612 O 0.06032 0.91143 0.24668 0.0
C613 C 0.0947 0.79285 0.28187 0.0
O614 O 0.04288 0.82533 0.4244 0.0
O615 O 0.04107 0.88654 0.3834 0.0
C616 C 0.10876 0.78551 0.61335 0.0
C617 C 0.10417 0.81453 0.74626 0.0
C618 C 0.07584 0.82341 0.69875 0.0
C619 C 0.07822 0.80928 0.63321 0.0
C620 C 0.13673 0.77603 0.66081 0.0
C621 C 0.13445 0.79026 0.72643 0.0
C622 C 0.11364 0.77392 0.54218 0.0
C623 C 0.17641 0.8524 0.36997 0.0
C624 C 0.10381 0.90678 0.47608 0.0
C625 C 0.0949 0.91425 0.14517 0.0
C626 C 0.0988 0.88359 1.01325 0.0
C627 C 0.12724 0.87512 0.06078 0.0
C628 C 0.12526 0.89011 0.12579 0.0
C629 C 0.06695 0.92355 0.09748 0.0
C630 C 0.06884 0.90842 1.0324 0.0
C631 C 0.08992 0.92608 0.21629 0.0
H632 H 0.05242 0.84242 0.71146 0.0
H633 H 0.05663 0.81789 0.59758 0.0
H634 H 0.16073 0.75802 0.64682 0.0
H635 H 0.15653 0.78225 0.76163 0.0
H636 H 0.15043 0.85571 0.04858 0.0
H637 H 0.14692 0.8817 0.16153 0.0
H638 H 0.04307 0.94181 0.11107 0.0
H639 H 0.04666 0.91608 0.99715 0.0
C640 C 0.41197 0.97897 0.31029 0.0
C641 C 0.39002 0.94581 0.31685 0.0
H642 H 0.42517 0.0275 0.2501 0.0
C643 C 0.36362 0.93609 0.26696 0.0
H644 H 0.43286 0.9866 0.34791 0.0
C645 C 0.35807 0.96024 0.21229 0.0
C646 C 0.38017 0.9934 0.20536 0.0
H647 H 0.34686 0.91017 0.27096 0.0
H648 H 0.3364 0.95319 0.17569 0.0
C649 C 0.40777 0.0021 0.25407 0.0
C650 C 0.92473 0.62939 0.84007 0.0
C651 C 0.93143 0.60406 0.78683 0.0
H652 H 0.94705 0.65466 0.92957 0.0
C653 C 0.96455 0.58139 0.78657 0.0
H654 H 0.89907 0.64687 0.84128 0.0
C655 C 0.99104 0.58454 0.83856 0.0
C656 C 0.98533 0.61134 0.89016 0.0
H657 H 0.96984 0.56123 0.74637 0.0
H658 H 0.01683 0.56734 0.83668 0.0
C659 C 0.95185 0.63356 0.8907 0.0
C660 C 0.65524 0.01311 0.26012 0.0
C661 C 0.6293 0.00574 0.20798 0.0
H662 H 0.66656 0.04402 0.35028 0.0
C663 C 0.59526 0.02714 0.20468 0.0
H664 H 0.68173 0.99719 0.2644 0.0
C665 C 0.58705 0.05475 0.25353 0.0
C666 C 0.61215 0.06031 0.30741 0.0
H667 H 0.57467 0.02199 0.16534 0.0
H668 H 0.56052 0.07076 0.25051 0.0
C669 C 0.64645 0.03963 0.30986 0.0
C670 C 0.04386 0.35958 0.89268 0.0
C671 C 0.01264 0.38468 0.89755 0.0
H672 H 0.09223 0.34123 0.83521 0.0
C673 C 0.00668 0.41175 0.84662 0.0
H674 H 0.0488 0.3382 0.93084 0.0
C675 C 0.03069 0.41256 0.79049 0.0
C676 C 0.06162 0.38702 0.78535 0.0
H677 H 0.98253 0.43117 0.84866 0.0
H678 H 0.02522 0.43325 0.75142 0.0
C679 C 0.06842 0.36109 0.83763 0.0
C680 C 0.39457 0.54604 0.14969 0.0
C681 C 0.37747 0.51143 0.13119 0.0
H682 H 0.41361 0.60126 0.11713 0.0
C683 C 0.3679 0.5052 0.06402 0.0
H684 H 0.40237 0.55129 0.20126 0.0
C685 C 0.37428 0.53327 1.01614 0.0
C686 C 0.3904 0.56847 1.03425 0.0
H687 H 0.35551 0.47848 0.04811 0.0
H688 H 0.3661 0.52737 0.96498 0.0
C689 C 0.40084 0.57452 0.10155 0.0
C690 C 0.52504 0.63274 0.08069 0.0
C691 C 0.557 0.60976 0.067 0.0
H692 H 0.47494 0.65936 1.04218 0.0
C693 C 0.5627 0.59594 1.00138 0.0
H694 H 0.51974 0.64376 0.13053 0.0
C695 C 0.53672 0.60503 0.95058 0.0
C696 C 0.50538 0.62878 0.96451 0.0
H697 H 0.58702 0.57791 0.98933 0.0
H698 H 0.54127 0.59391 0.90061 0.0
C699 C 0.49966 0.64221 1.02989 0.0
C700 C 0.59866 0.44919 0.15481 0.0
C701 C 0.61144 0.48618 0.14071 0.0
H702 H 0.58444 0.39417 0.11513 0.0
C703 C 0.61815 0.4967 0.07401 0.0
H704 H 0.59335 0.44046 0.20592 0.0
C705 C 0.61324 0.47063 1.02218 0.0
C706 C 0.60139 0.43325 1.03586 0.0
H707 H 0.6278 0.52493 0.06133 0.0
H708 H 0.61935 0.47972 0.97154 0.0
C709 C 0.59367 0.42284 0.10274 0.0
C710 C 0.45423 0.35107 0.05408 0.0
C711 C 0.43467 0.38604 0.05276 0.0
H712 H 0.49491 0.31458 1.00658 0.0
C713 C 0.44103 0.41135 0.9994 0.0
H714 H 0.44924 0.33079 0.09402 0.0
C715 C 0.46819 0.40258 0.94995 0.0
C716 C 0.48828 0.36774 0.95184 0.0
H717 H 0.42589 0.43839 0.9971 0.0
H718 H 0.47386 0.42323 0.91092 0.0
C719 C 0.48019 0.34172 1.00352 0.0
C720 C 0.86428 0.47303 0.82838 0.0
C721 C 0.88967 0.44275 0.81639 0.0
H722 H 0.83614 0.52177 0.7884 0.0
C723 C 0.90588 0.43841 0.75213 0.0
H724 H 0.85144 0.47734 0.87717 0.0
C725 C 0.89671 0.46409 0.70097 0.0
C726 C 0.87057 0.49371 0.71313 0.0
H727 H 0.92577 0.41538 0.74143 0.0
H728 H 0.90974 0.46069 0.65212 0.0
C729 C 0.85486 0.49811 0.77721 0.0
C730 C 0.49661 0.1324 0.31611 0.0
C731 C 0.4896 0.12118 0.38234 0.0
H732 H 0.47568 0.13635 0.21626 0.0
C733 C 0.45489 0.10349 0.39822 0.0
H734 H 0.52356 0.14495 0.30198 0.0
C735 C 0.42712 0.09824 0.3486 0.0
C736 C 0.43393 0.11031 0.28229 0.0
H737 H 0.44904 0.09434 0.44892 0.0
H738 H 0.40036 0.08479 0.3623 0.0
C739 C 0.46917 0.12713 0.26667 0.0
C740 C 0.09122 0.55184 0.74897 0.0
C741 C 0.11463 0.55723 0.80533 0.0
H742 H 0.08026 0.51809 0.66125 0.0
C743 C 0.14785 0.53513 0.81205 0.0
H744 H 0.06561 0.56889 0.74224 0.0
C745 C 0.15695 0.50728 0.76475 0.0
C746 C 0.13244 0.50001 0.71041 0.0
H747 H 0.16677 0.53917 0.85429 0.0
H748 H 0.18244 0.49025 0.77284 0.0
C749 C 0.09973 0.523 0.70239 0.0
C750 C 0.56817 0.86758 0.33957 0.0
C751 C 0.56034 0.89267 0.28646 0.0
H752 H 0.54981 0.84548 0.4342 0.0
C753 C 0.52866 0.91724 0.29099 0.0
H754 H 0.5926 0.84847 0.33751 0.0
C755 C 0.50506 0.91649 0.3476 0.0
C756 C 0.51217 0.89046 0.39966 0.0
H757 H 0.52241 0.93728 0.25124 0.0
H758 H 0.48045 0.93522 0.34938 0.0
C759 C 0.54399 0.8661 0.39516 0.0
C760 C 0.87317 0.00405 0.56709 0.0
C761 C 0.88251 0.01138 0.63399 0.0
H762 H 0.87231 0.02433 0.46682 0.0
C763 C 0.9005 0.0458 0.65078 0.0
H764 H 0.86011 0.97743 0.55249 0.0
C765 C 0.90767 0.07315 0.60115 0.0
C766 C 0.89731 0.06606 0.53414 0.0
H767 H 0.9082 0.05183 0.70213 0.0
H768 H 0.92087 0.09992 0.61543 0.0
C769 C 0.88051 0.03095 0.51771 0.0
C770 C 0.04193 0.14244 0.56524 0.0
C771 C 0.05901 0.10621 0.56509 0.0
H772 H 0.00629 0.18196 0.51359 0.0
C773 C 0.0537 0.08188 0.5099 0.0
H774 H 0.04659 0.16212 0.60631 0.0
C775 C 0.0296 0.09273 0.45758 0.0
C776 C 0.01171 0.12871 0.45842 0.0
H777 H 0.06742 0.0541 0.50796 0.0
H778 H 0.02447 0.07279 0.41712 0.0
C779 C 0.01916 0.15388 0.51174 0.0
C780 C 0.08008 0.96282 0.54283 0.0
C781 C 0.10645 0.93295 0.53368 0.0
H782 H 0.06147 0.00898 0.60574 0.0
C783 C 0.13417 0.9261 0.58305 0.0
H784 H 0.05797 0.96814 0.50613 0.0
C785 C 0.13646 0.94953 0.63934 0.0
C786 C 0.11052 0.97975 0.64832 0.0
H787 H 0.15465 0.90299 0.57748 0.0
H788 H 0.15906 0.9445 0.67527 0.0
C789 C 0.08175 0.98572 0.60027 0.0
C790 C 0.98462 0.8415 0.51532 0.0
C791 C 0.99208 0.86604 0.46111 0.0
H792 H 0.95353 0.83243 0.60618 0.0
C793 C 0.97048 0.89982 0.45497 0.0
H794 H 0.00058 0.8152 0.52183 0.0
C795 C 0.94275 0.90922 0.50308 0.0
C796 C 0.93715 0.8856 0.55903 0.0
H797 H 0.97562 0.91938 0.41404 0.0
H798 H 0.9267 0.93559 0.49784 0.0
C799 C 0.95793 0.85148 0.56421 0.0
C800 C 0.34265 0.22604 0.22283 0.0
C801 C 0.3427 0.21054 0.15773 0.0
H802 H 0.34427 0.27667 0.2835 0.0
C803 C 0.34445 0.23544 0.10299 0.0
H804 H 0.3417 0.2076 0.26622 0.0
C805 C 0.34564 0.27494 0.11303 0.0
C806 C 0.3456 0.29048 0.17807 0.0
H807 H 0.34468 0.22446 0.05233 0.0
H808 H 0.34687 0.29332 0.06956 0.0
C809 C 0.34436 0.2656 0.2329 0.0
C810 C 0.27039 0.65319 0.97105 0.0
C811 C 0.28617 0.65496 0.90625 0.0
H812 H 0.21977 0.65004 1.03113 0.0
C813 C 0.26149 0.65487 0.8511 0.0
H814 H 0.2886 0.65289 1.01478 0.0
C815 C 0.22182 0.65359 0.86071 0.0
C816 C 0.20612 0.65186 0.92563 0.0
H817 H 0.27276 0.65618 0.80067 0.0
H818 H 0.20347 0.65365 0.81716 0.0
C819 C 0.23088 0.65144 0.9806 0.0
C820 C 0.6752 0.75798 0.13137 0.0
C821 C 0.6422 0.7803 0.14057 0.0
H822 H 0.70148 0.70311 0.1424 0.0
C823 C 0.60977 0.76382 0.17058 0.0
H824 H 0.70066 0.77007 0.10887 0.0
C825 C 0.61065 0.72566 0.19178 0.0
C826 C 0.64368 0.70337 0.18193 0.0
H827 H 0.58417 0.78067 0.17925 0.0
H828 H 0.58531 0.71337 0.21432 0.0
C829 C 0.67577 0.71981 0.15108 0.0
C830 C 0.77889 0.35196 0.86603 0.0
C831 C 0.79322 0.35516 0.93166 0.0
H832 H 0.7292 0.3491 0.80315 0.0
C833 C 0.7672 0.35895 0.98474 0.0
H834 H 0.7982 0.34943 0.82381 0.0
C835 C 0.72785 0.35849 0.97281 0.0
C836 C 0.71346 0.35474 0.90741 0.0
H837 H 0.77719 0.36167 1.03574 0.0
H838 H 0.70865 0.36098 1.0152 0.0
C839 C 0.73938 0.35203 0.85398 0.0
C840 C 0.8527 0.72827 0.72383 0.0
C841 C 0.8508 0.71298 0.65869 0.0
H842 H 0.85389 0.77854 0.78501 0.0
C843 C 0.8497 0.73798 0.60411 0.0
H844 H 0.85399 0.70972 0.76707 0.0
C845 C 0.84931 0.7775 0.61462 0.0
C846 C 0.85047 0.79276 0.67989 0.0
H847 H 0.84829 0.72706 0.55348 0.0
H848 H 0.84804 0.7961 0.57144 0.0
C849 C 0.85273 0.76772 0.73429 0.0
C850 C 0.76496 0.14583 0.35566 0.0
C851 C 0.79007 0.14686 0.41006 0.0
H852 H 0.70682 0.14456 0.32321 0.0
C853 C 0.77487 0.14557 0.47541 0.0
H854 H 0.77574 0.1466 0.30487 0.0
C855 C 0.73538 0.14414 0.48613 0.0
C856 C 0.71023 0.1444 0.43175 0.0
H857 H 0.7935 0.14588 0.51859 0.0
H858 H 0.72457 0.1437 0.53692 0.0
C859 C 0.72546 0.1448 0.36639 0.0
C860 C 0.11125 0.25719 0.66561 0.0
C861 C 0.14262 0.27316 0.63174 0.0
H862 H 0.08791 0.20733 0.71285 0.0
C863 C 0.17462 0.25014 0.61771 0.0
H864 H 0.08646 0.27452 0.67792 0.0
C865 C 0.17532 0.21183 0.63712 0.0
C866 C 0.14449 0.1961 0.6727 0.0
H867 H 0.19928 0.26186 0.59209 0.0
H868 H 0.20027 0.19465 0.62521 0.0
C869 C 0.11236 0.21903 0.68662 0.0
C870 C 0.2794 0.82388 0.39702 0.0
C871 C 0.29466 0.85692 0.42665 0.0
H872 H 0.23004 0.79667 0.3557 0.0
C873 C 0.27116 0.88925 0.4347 0.0
H874 H 0.29695 0.79862 0.3898 0.0
C875 C 0.23302 0.88848 0.41327 0.0
C876 C 0.21766 0.8551 0.38476 0.0
H877 H 0.28241 0.91529 0.45637 0.0
H878 H 0.21531 0.91361 0.42073 0.0
C879 C 0.2412 0.82283 0.37706 0.0
C880 C 0.26024 0.07729 0.85979 0.0
C881 C 0.22039 0.07796 0.86723 0.0
H882 H 0.31452 0.07824 0.90856 0.0
C883 C 0.20475 0.08167 0.93211 0.0
H884 H 0.27319 0.07469 0.81072 0.0
C885 C 0.22836 0.08421 0.98834 0.0
C886 C 0.26818 0.08257 0.98107 0.0
H887 H 0.17409 0.08294 0.93957 0.0
H888 H 0.21542 0.08696 1.03737 0.0
C889 C 0.28384 0.07923 0.91611 0.0
C890 C 0.08891 0.76045 0.10022 0.0
C891 C 0.08488 0.72083 0.1064 0.0
H892 H 0.09461 0.81392 0.15023 0.0
C893 C 0.08486 0.70468 0.17111 0.0
H894 H 0.08924 0.7738 0.0514 0.0
C895 C 0.08858 0.72762 0.22827 0.0
C896 C 0.09188 0.76736 0.22223 0.0
H897 H 0.08248 0.6741 0.17774 0.0
H898 H 0.0887 0.71425 0.27698 0.0
C899 C 0.09204 0.78339 0.15732 0.0
C900 C 0.71147 0.90069 0.91061 0.0
C901 C 0.7269 0.90478 0.97549 0.0
H902 H 0.72157 0.90091 0.8048 0.0
C903 C 0.76609 0.91227 0.98177 0.0
H904 H 0.68141 0.89467 0.90351 0.0
C905 C 0.78902 0.91636 0.92466 0.0
C906 C 0.77344 0.91255 0.85991 0.0
H907 H 0.77893 0.91541 1.03061 0.0
H908 H 0.81916 0.92216 0.9314 0.0
C909 C 0.73446 0.90427 0.85365 0.0
C910 C 0.90839 0.29545 0.18244 0.0
C911 C 0.91178 0.27923 0.11797 0.0
H912 H 0.90488 0.28568 0.28828 0.0
C913 C 0.91291 0.23938 0.1116 0.0
H914 H 0.90684 0.32616 0.18893 0.0
C915 C 0.91228 0.21635 0.1687 0.0
C916 C 0.90971 0.2326 0.23326 0.0
H917 H 0.91533 0.22606 0.06282 0.0
H918 H 0.91401 0.18564 0.16219 0.0
C919 C 0.90701 0.27237 0.23947 0.0
C920 C 0.28869 0.41314 0.42097 0.0
C921 C 0.27256 0.40857 0.35672 0.0
H922 H 0.2798 0.41186 0.52733 0.0
C923 C 0.23404 0.39824 0.35187 0.0
H924 H 0.31854 0.42048 0.42663 0.0
C925 C 0.21197 0.39354 0.40964 0.0
C926 C 0.22782 0.39863 0.47402 0.0
H927 H 0.22078 0.39412 0.3035 0.0
H928 H 0.18221 0.38599 0.40355 0.0
C929 C 0.26665 0.40797 0.47895 0.0
C930 C 0.41472 0.72015 0.67118 0.0
C931 C 0.41068 0.73614 0.73573 0.0
H932 H 0.41903 0.73023 0.56558 0.0
C933 C 0.40716 0.77585 0.74212 0.0
H934 H 0.41709 0.6895 0.66443 0.0
C935 C 0.40881 0.79912 0.68536 0.0
C936 C 0.41339 0.78319 0.62088 0.0
H937 H 0.40388 0.78897 0.79089 0.0
H938 H 0.40632 0.82976 0.6921 0.0
C939 C 0.41572 0.74338 0.61433 0.0
C940 C 0.76007 0.58621 0.36223 0.0
C941 C 0.72016 0.58557 0.36846 0.0
H942 H 0.81379 0.58803 0.41294 0.0
C943 C 0.70369 0.5885 0.4328 0.0
H944 H 0.77359 0.58424 0.31354 0.0
C945 C 0.72664 0.5914 0.48982 0.0
C946 C 0.76654 0.59067 0.4837 0.0
H947 H 0.67291 0.5887 0.43916 0.0
H948 H 0.71319 0.59317 0.53859 0.0
C949 C 0.783 0.58833 0.4193 0.0
C950 C 0.59451 0.26345 0.60577 0.0
C951 C 0.59296 0.22357 0.61088 0.0
H952 H 0.59563 0.31684 0.658 0.0
C953 C 0.59395 0.20675 0.67503 0.0
H954 H 0.59395 0.27722 0.55731 0.0
C955 C 0.5956 0.22934 0.73288 0.0
C956 C 0.59546 0.26926 0.72781 0.0
H957 H 0.59329 0.17595 0.68064 0.0
H958 H 0.59572 0.21561 0.78138 0.0
C959 C 0.59534 0.28604 0.66361 0.0
C960 C 0.32809 0.05219 0.614 0.0
C961 C 0.32441 0.08389 0.57113 0.0
H962 H 0.34725 0.03106 0.70877 0.0
C963 C 0.33759 0.11964 0.59374 0.0
H964 H 0.31769 0.02434 0.59906 0.0
C965 C 0.35428 0.12351 0.65697 0.0
C966 C 0.35853 0.09171 0.69921 0.0
H967 H 0.33594 0.14459 0.56192 0.0
H968 H 0.36467 0.15133 0.67218 0.0
C969 C 0.34505 0.05603 0.67704 0.0
C970 C 0.09906 0.62584 0.50818 0.0
C971 C 0.08034 0.66118 0.5179 0.0
H972 H 0.11565 0.58174 0.43945 0.0
C973 C 0.06344 0.67888 0.46211 0.0
H974 H 0.11152 0.61062 0.54989 0.0
C975 C 0.06544 0.66195 0.39869 0.0
C976 C 0.08462 0.62692 0.38894 0.0
H977 H 0.04897 0.70613 0.46702 0.0
H978 H 0.05237 0.6767 0.35705 0.0
C979 C 0.10131 0.60908 0.44465 0.0
C980 C 0.65874 0.93074 0.6051 0.0
C981 C 0.66138 0.89649 0.56818 0.0
H982 H 0.64073 0.95822 0.69585 0.0
C983 C 0.64662 0.86293 0.59709 0.0
H984 H 0.67028 0.95708 0.58521 0.0
C985 C 0.62972 0.86358 0.66076 0.0
C986 C 0.62692 0.89784 0.69751 0.0
H987 H 0.64741 0.83612 0.56996 0.0
H988 H 0.61825 0.83724 0.68077 0.0
C989 C 0.64171 0.93142 0.66872 0.0
C990 C 0.90583 0.39706 0.45884 0.0
C991 C 0.92064 0.37777 0.4026 0.0
H992 H 0.89696 0.39682 0.56484 0.0
C993 C 0.93848 0.34203 0.41239 0.0
H994 H 0.89256 0.42491 0.45373 0.0
C995 C 0.94125 0.32603 0.47636 0.0
C996 C 0.92595 0.34511 0.53234 0.0
H997 H 0.94972 0.32593 0.37041 0.0
H998 H 0.95472 0.29831 0.4817 0.0
C999 C 0.90838 0.38093 0.52273 0.0
C1000 C 0.33078 0.43323 0.64966 0.0
C1001 C 0.36599 0.41449 0.63896 0.0
H1002 H 0.28621 0.44789 0.71863 0.0
C1003 C 0.38397 0.3971 0.69389 0.0
H1004 H 0.31595 0.44689 0.60872 0.0
C1005 C 0.36709 0.39807 0.75746 0.0
C1006 C 0.33147 0.41615 0.76801 0.0
H1007 H 0.41147 0.38312 0.68804 0.0
H1008 H 0.38238 0.38503 0.79855 0.0
C1009 C 0.31369 0.43389 0.71309 0.0
C1010 C 0.43818 0.68502 0.36977 0.0
C1011 C 0.40726 0.682 0.32513 0.0
H1012 H 0.46092 0.67079 0.46601 0.0
C1013 C 0.37456 0.66176 0.34581 0.0
H1014 H 0.46355 0.70095 0.35622 0.0
C1015 C 0.37298 0.64472 0.40901 0.0
C1016 C 0.40415 0.64721 0.45304 0.0
H1017 H 0.35044 0.65822 0.31254 0.0
H1018 H 0.34763 0.62882 0.42284 0.0
C1019 C 0.4367 0.66773 0.43279 0.0
C1020 C 0.67339 0.55329 0.72786 0.0
C1021 C 0.6541 0.56863 0.78358 0.0
H1022 H 0.67373 0.54457 0.62199 0.0
C1023 C 0.61805 0.58568 0.7738 0.0
H1024 H 0.7013 0.54021 0.73348 0.0
C1025 C 0.60187 0.58771 0.70992 0.0
C1026 C 0.62141 0.57302 0.6538 0.0
H1027 H 0.60209 0.59717 0.81578 0.0
H1028 H 0.57383 0.60058 0.70473 0.0
C1029 C 0.65739 0.55566 0.66382 0.0
C1030 C 0.5674 0.33823 0.42952 0.0
C1031 C 0.59528 0.36542 0.44689 0.0
H1032 H 0.54529 0.30064 0.3544 0.0
C1033 C 0.62282 0.37554 0.39869 0.0
H1034 H 0.54618 0.3292 0.4657 0.0
C1035 C 0.6223 0.35913 0.33472 0.0
C1036 C 0.59428 0.3321 0.31725 0.0
H1037 H 0.64443 0.39668 0.41001 0.0
H1038 H 0.64347 0.3682 0.2985 0.0
C1039 C 0.56691 0.3218 0.36563 0.0
C1040 C 0.84322 0.6272 0.09354 0.0
C1041 C 0.82189 0.59525 0.07273 0.0
H1042 H 0.87691 0.65297 0.17083 0.0
C1043 C 0.81761 0.56456 0.11756 0.0
H1044 H 0.8477 0.65114 0.06021 0.0
C1045 C 0.83474 0.56548 0.18074 0.0
C1046 C 0.85642 0.59722 0.20111 0.0
H1047 H 0.80079 0.53979 0.10405 0.0
H1048 H 0.83067 0.54142 0.21399 0.0
C1049 C 0.86014 0.62822 0.15695 0.0
C1050 C 0.6133 0.1563 0.91195 0.0
C1051 C 0.58688 0.12806 0.89274 0.0
H1052 H 0.6325 0.19443 0.98866 0.0
C1053 C 0.55862 0.117 0.93905 0.0
H1054 H 0.63493 0.16621 0.87727 0.0
C1055 C 0.55705 0.13349 1.00289 0.0
C1056 C 0.58376 0.16138 1.02225 0.0
H1057 H 0.53805 0.09506 0.92646 0.0
H1058 H 0.53535 0.12377 1.03761 0.0
C1059 C 0.61183 0.17263 0.97585 0.0
C1060 C 0.13216 0.35417 0.1624 0.0
C1061 C 0.12813 0.38921 0.19656 0.0
H1062 H 0.15068 0.32509 0.07361 0.0
C1063 C 0.14158 0.42253 0.1649 0.0
H1064 H 0.12175 0.32794 0.1845 0.0
C1065 C 0.15838 0.42087 0.1011 0.0
C1066 C 0.16224 0.38584 0.06682 0.0
H1067 H 0.13972 0.44996 0.18988 0.0
H1068 H 0.1688 0.44709 0.07898 0.0
C1069 C 0.14891 0.35252 0.0986 0.0
C1070 C 0.41029 0.88439 1.02542 0.0
C1071 C 0.42795 0.84857 1.0346 0.0
H1072 H 0.39401 0.92847 0.95695 0.0
C1073 C 0.44262 0.82946 0.97813 0.0
H1074 H 0.39929 0.90031 0.06785 0.0
C1075 C 0.43929 0.84549 0.9142 0.0
C1076 C 0.42151 0.88132 0.90486 0.0
H1077 H 0.45611 0.80172 0.98311 0.0
H1078 H 0.4501 0.82935 0.87193 0.0
C1079 C 0.40721 0.90057 0.96159 0.0
C1080 C 0.81573 0.93647 0.21791 0.0
C1081 C 0.83349 0.9189 0.27296 0.0
H1082 H 0.81785 0.94879 0.11326 0.0
C1083 C 0.86898 0.90056 0.26266 0.0
H1084 H 0.78835 0.95067 0.22346 0.0
C1085 C 0.88584 0.89928 0.19913 0.0
C1086 C 0.86788 0.91651 0.14401 0.0
H1087 H 0.88415 0.88757 0.30394 0.0
H1088 H 0.91329 0.88518 0.19344 0.0
C1089 C 0.83271 0.93537 0.15444 0.0
C1090 C 0.87547 0.13898 0.90761 0.0
C1091 C 0.90702 0.14128 0.95088 0.0
H1092 H 0.85224 0.15263 0.81163 0.0
C1093 C 0.93961 0.16143 0.92962 0.0
H1094 H 0.85007 0.12338 0.92216 0.0
C1095 C 0.94075 0.17852 0.86644 0.0
C1096 C 0.90941 0.17574 0.82266 0.0
H1097 H 0.96414 0.16436 0.96219 0.0
H1098 H 0.96617 0.19414 0.85206 0.0
C1099 C 0.87668 0.15591 0.84428 0.0
C1100 C 0.09941 0.07678 0.20981 0.0
C1101 C 0.12024 0.06613 0.15237 0.0
H1102 H 0.09856 0.08206 0.3165 0.0
C1103 C 0.15763 0.05171 0.16094 0.0
H1104 H 0.07032 0.08724 0.2057 0.0
C1105 C 0.1738 0.04852 0.22481 0.0
C1106 C 0.15319 0.05991 0.28199 0.0
H1107 H 0.17489 0.04368 0.11813 0.0
H1108 H 0.20283 0.03797 0.22919 0.0
C1109 C 0.11565 0.07378 0.27358 0.0
C1110 C 0.1364 0.84402 0.84706 0.0
C1111 C 0.10276 0.83157 0.81523 0.0
H1112 H 0.16157 0.87064 0.93285 0.0
C1113 C 0.06775 0.83645 0.84931 0.0
H1114 H 0.16384 0.84148 0.82219 0.0
C1115 C 0.06642 0.85338 0.91302 0.0
C1116 C 0.10008 0.86594 0.94474 0.0
H1117 H 0.04126 0.82676 0.8271 0.0
H1118 H 0.03898 0.85604 0.93787 0.0
C1119 C 0.13508 0.86091 0.91073 0.0
loop_
_geom_bond_atom_site_label_1
_geom_bond_atom_site_label_2
_geom_bond_distance
_geom_bond_site_symmetry_2
_ccdc_geom_bond_type
Dy0 O3 2.307 . S
Dy0 O5 2.395 1_554 S
Dy0 O6 2.379 1_554 S
Dy0 O8 2.339 . S
Dy0 O10 2.298 . S
Dy0 O14 2.275 . S
Dy0 C22 2.738 1_554 S
Dy1 O4 2.298 . S
Dy1 O7 2.275 . S
Dy1 O9 2.307 . S
Dy1 O11 2.395 . S
Dy1 O12 2.379 . S
Dy1 O15 2.339 . S
Dy1 C31 2.738 . S
C2 O14 1.254 . S
C2 O15 1.257 . S
O3 Dy0 2.307 . S
O3 C13 1.266 . S
O4 Dy1 2.298 . S
O4 C13 1.236 . S
O5 Dy0 2.395 1_556 S
O5 C22 1.255 . S
O6 Dy0 2.379 1_556 S
O6 C22 1.249 . S
O7 Dy1 2.275 . S
O7 C23 1.254 . S
O8 Dy0 2.339 . S
O8 C23 1.257 . S
O9 Dy1 2.307 . S
O9 C24 1.266 . S
O10 Dy0 2.298 . S
O10 C24 1.236 . S
O11 Dy1 2.395 . S
O11 C31 1.255 . S
O12 Dy1 2.379 . S
O12 C31 1.249 . S
C13 O3 1.266 . S
C13 O4 1.236 . S
O14 Dy0 2.275 . S
O14 C2 1.254 . S
O15 Dy1 2.339 . S
O15 C2 1.257 . S
C16 C19 1.344 . S
C16 C20 1.328 . S
C16 C22 1.516 . S
C17 C18 1.304 . S
C17 C21 1.323 . S
C18 C17 1.304 . S
C18 C19 1.371 . S
C18 H32 0.930 . S
C19 C16 1.344 . S
C19 C18 1.371 . S
C19 H33 0.931 . S
C20 C16 1.328 . S
C20 C21 1.433 . S
C20 H34 0.931 . S
C21 C17 1.323 . S
C21 C20 1.433 . S
C21 H35 0.933 . S
C22 Dy0 2.738 1_556 S
C22 O5 1.255 . S
C22 O6 1.249 . S
C22 C16 1.516 . S
C23 O7 1.254 . S
C23 O8 1.257 . S
C24 O9 1.266 . S
C24 O10 1.236 . S
C25 C28 1.344 . S
C25 C29 1.328 . S
C25 C31 1.516 . S
C26 C27 1.304 . S
C26 C30 1.323 . S
C27 C26 1.304 . S
C27 C28 1.371 . S
C27 H36 0.930 . S
C28 C25 1.344 . S
C28 C27 1.371 . S
C28 H37 0.931 . S
C29 C25 1.328 . S
C29 C30 1.433 . S
C29 H38 0.931 . S
C30 C26 1.323 . S
C30 C29 1.433 . S
C30 H39 0.933 . S
C31 Dy1 2.738 . S
C31 O11 1.255 . S
C31 O12 1.249 . S
C31 C25 1.516 . S
H32 C18 0.930 . S
H33 C19 0.931 . S
H34 C20 0.931 . S
H35 C21 0.933 . S
H36 C27 0.930 . S
H37 C28 0.931 . S
H38 C29 0.931 . S
H39 C30 0.933 . S
Dy40 O43 2.307 . S
Dy40 O45 2.395 . S
Dy40 O46 2.379 . S
Dy40 O48 2.339 . S
Dy40 O50 2.298 . S
Dy40 O54 2.275 . S
Dy40 C62 2.738 . S
Dy41 O44 2.298 . S
Dy41 O47 2.275 . S
Dy41 O49 2.307 . S
Dy41 O51 2.395 1_556 S
Dy41 O52 2.379 1_556 S
Dy41 O55 2.339 . S
Dy41 C71 2.738 1_556 S
C42 O54 1.254 . S
C42 O55 1.257 . S
O43 Dy40 2.307 . S
O43 C53 1.266 . S
O44 Dy41 2.298 . S
O44 C53 1.236 . S
O45 Dy40 2.395 . S
O45 C62 1.255 . S
O46 Dy40 2.379 . S
O46 C62 1.249 . S
O47 Dy41 2.275 . S
O47 C63 1.254 . S
O48 Dy40 2.339 . S
O48 C63 1.257 . S
O49 Dy41 2.307 . S
O49 C64 1.266 . S
O50 Dy40 2.298 . S
O50 C64 1.236 . S
O51 Dy41 2.395 1_554 S
O51 C71 1.255 . S
O52 Dy41 2.379 1_554 S
O52 C71 1.249 . S
C53 O43 1.266 . S
C53 O44 1.236 . S
O54 Dy40 2.275 . S
O54 C42 1.254 . S
O55 Dy41 2.339 . S
O55 C42 1.257 . S
C56 C59 1.344 . S
C56 C60 1.328 . S
C56 C62 1.516 . S
C57 C58 1.304 . S
C57 C61 1.323 . S
C58 C57 1.304 . S
C58 C59 1.371 . S
C58 H72 0.930 . S
C59 C56 1.344 . S
C59 C58 1.371 . S
C59 H73 0.931 . S
C60 C56 1.328 . S
C60 C61 1.433 . S
C60 H74 0.931 . S
C61 C57 1.323 . S
C61 C60 1.433 . S
C61 H75 0.933 . S
C62 Dy40 2.738 . S
C62 O45 1.255 . S
C62 O46 1.249 . S
C62 C56 1.516 . S
C63 O47 1.254 . S
C63 O48 1.257 . S
C64 O49 1.266 . S
C64 O50 1.236 . S
C65 C68 1.344 . S
C65 C69 1.328 . S
C65 C71 1.516 . S
C66 C67 1.304 . S
C66 C70 1.323 . S
C67 C66 1.304 . S
C67 C68 1.371 . S
C67 H76 0.930 . S
C68 C65 1.344 . S
C68 C67 1.371 . S
C68 H77 0.931 . S
C69 C65 1.328 . S
C69 C70 1.433 . S
C69 H78 0.931 . S
C70 C66 1.323 . S
C70 C69 1.433 . S
C70 H79 0.933 . S
C71 Dy41 2.738 1_554 S
C71 O51 1.255 . S
C71 O52 1.249 . S
C71 C65 1.516 . S
H72 C58 0.930 . S
H73 C59 0.931 . S
H74 C60 0.931 . S
H75 C61 0.933 . S
H76 C67 0.930 . S
H77 C68 0.931 . S
H78 C69 0.931 . S
H79 C70 0.933 . S
Dy80 O83 2.307 . S
Dy80 O85 2.395 1_554 S
Dy80 O86 2.379 1_554 S
Dy80 O88 2.339 . S
Dy80 O90 2.298 . S
Dy80 O94 2.275 . S
Dy80 C102 2.738 1_554 S
Dy81 O84 2.298 . S
Dy81 O87 2.275 . S
Dy81 O89 2.307 . S
Dy81 O91 2.395 . S
Dy81 O92 2.379 . S
Dy81 O95 2.339 . S
Dy81 C111 2.738 . S
C82 O94 1.254 . S
C82 O95 1.257 . S
O83 Dy80 2.307 . S
O83 C93 1.266 . S
O84 Dy81 2.298 . S
O84 C93 1.236 . S
O85 Dy80 2.395 1_556 S
O85 C102 1.255 . S
O86 Dy80 2.379 1_556 S
O86 C102 1.249 . S
O87 Dy81 2.275 . S
O87 C103 1.254 . S
O88 Dy80 2.339 . S
O88 C103 1.257 . S
O89 Dy81 2.307 . S
O89 C104 1.266 . S
O90 Dy80 2.298 . S
O90 C104 1.236 . S
O91 Dy81 2.395 . S
O91 C111 1.255 . S
O92 Dy81 2.379 . S
O92 C111 1.249 . S
C93 O83 1.266 . S
C93 O84 1.236 . S
O94 Dy80 2.275 . S
O94 C82 1.254 . S
O95 Dy81 2.339 . S
O95 C82 1.257 . S
C96 C99 1.344 . S
C96 C100 1.328 . S
C96 C102 1.516 . S
C97 C98 1.304 . S
C97 C101 1.323 . S
C98 C97 1.304 . S
C98 C99 1.371 . S
C98 H112 0.930 . S
C99 C96 1.344 . S
C99 C98 1.371 . S
C99 H113 0.931 . S
C100 C96 1.328 . S
C100 C101 1.433 . S
C100 H114 0.931 . S
C101 C97 1.323 . S
C101 C100 1.433 . S
C101 H115 0.933 . S
C102 Dy80 2.738 1_556 S
C102 O85 1.255 . S
C102 O86 1.249 . S
C102 C96 1.516 . S
C103 O87 1.254 . S
C103 O88 1.257 . S
C104 O89 1.266 . S
C104 O90 1.236 . S
C105 C108 1.344 . S
C105 C109 1.328 . S
C105 C111 1.516 . S
C106 C107 1.304 . S
C106 C110 1.323 . S
C107 C106 1.304 . S
C107 C108 1.371 . S
C107 H116 0.930 . S
C108 C105 1.344 . S
C108 C107 1.371 . S
C108 H117 0.931 . S
C109 C105 1.328 . S
C109 C110 1.433 . S
C109 H118 0.931 . S
C110 C106 1.323 . S
C110 C109 1.433 . S
C110 H119 0.933 . S
C111 Dy81 2.738 . S
C111 O91 1.255 . S
C111 O92 1.249 . S
C111 C105 1.516 . S
H112 C98 0.930 . S
H113 C99 0.931 . S
H114 C100 0.931 . S
H115 C101 0.933 . S
H116 C107 0.930 . S
H117 C108 0.931 . S
H118 C109 0.931 . S
H119 C110 0.933 . S
Dy120 O123 2.307 . S
Dy120 O125 2.395 . S
Dy120 O126 2.379 . S
Dy120 O128 2.339 . S
Dy120 O130 2.298 . S
Dy120 O134 2.275 . S
Dy120 C142 2.738 . S
Dy121 O124 2.298 . S
Dy121 O127 2.275 . S
Dy121 O129 2.307 . S
Dy121 O131 2.395 1_556 S
Dy121 O132 2.379 1_556 S
Dy121 O135 2.339 . S
Dy121 C151 2.738 1_556 S
C122 O134 1.254 . S
C122 O135 1.257 . S
O123 Dy120 2.307 . S
O123 C133 1.266 . S
O124 Dy121 2.298 . S
O124 C133 1.236 . S
O125 Dy120 2.395 . S
O125 C142 1.255 . S
O126 Dy120 2.379 . S
O126 C142 1.249 . S
O127 Dy121 2.275 . S
O127 C143 1.254 . S
O128 Dy120 2.339 . S
O128 C143 1.257 . S
O129 Dy121 2.307 . S
O129 C144 1.266 . S
O130 Dy120 2.298 . S
O130 C144 1.236 . S
O131 Dy121 2.395 1_554 S
O131 C151 1.255 . S
O132 Dy121 2.379 1_554 S
O132 C151 1.249 . S
C133 O123 1.266 . S
C133 O124 1.236 . S
O134 Dy120 2.275 . S
O134 C122 1.254 . S
O135 Dy121 2.339 . S
O135 C122 1.257 . S
C136 C139 1.344 . S
C136 C140 1.328 . S
C136 C142 1.516 . S
C137 C138 1.304 . S
C137 C141 1.323 . S
C138 C137 1.304 . S
C138 C139 1.371 . S
C138 H152 0.930 . S
C139 C136 1.344 . S
C139 C138 1.371 . S
C139 H153 0.931 . S
C140 C136 1.328 . S
C140 C141 1.433 . S
C140 H154 0.931 . S
C141 C137 1.323 . S
C141 C140 1.433 . S
C141 H155 0.933 . S
C142 Dy120 2.738 . S
C142 O125 1.255 . S
C142 O126 1.249 . S
C142 C136 1.516 . S
C143 O127 1.254 . S
C143 O128 1.257 . S
C144 O129 1.266 . S
C144 O130 1.236 . S
C145 C148 1.344 . S
C145 C149 1.328 . S
C145 C151 1.516 . S
C146 C147 1.304 . S
C146 C150 1.323 . S
C147 C146 1.304 . S
C147 C148 1.371 . S
C147 H156 0.930 . S
C148 C145 1.344 . S
C148 C147 1.371 . S
C148 H157 0.931 . S
C149 C145 1.328 . S
C149 C150 1.433 . S
C149 H158 0.931 . S
C150 C146 1.323 . S
C150 C149 1.433 . S
C150 H159 0.933 . S
C151 Dy121 2.738 1_554 S
C151 O131 1.255 . S
C151 O132 1.249 . S
C151 C145 1.516 . S
H152 C138 0.930 . S
H153 C139 0.931 . S
H154 C140 0.931 . S
H155 C141 0.933 . S
H156 C147 0.930 . S
H157 C148 0.931 . S
H158 C149 0.931 . S
H159 C150 0.933 . S
Dy160 O163 2.307 . S
Dy160 O165 2.395 . S
Dy160 O166 2.379 . S
Dy160 O168 2.339 . S
Dy160 O170 2.298 . S
Dy160 O174 2.275 . S
Dy160 C182 2.738 . S
Dy161 O164 2.298 . S
Dy161 O167 2.275 . S
Dy161 O169 2.307 . S
Dy161 O171 2.395 1_554 S
Dy161 O172 2.379 1_554 S
Dy161 O175 2.339 . S
Dy161 C191 2.738 1_554 S
C162 O174 1.254 . S
C162 O175 1.257 . S
O163 Dy160 2.307 . S
O163 C173 1.266 . S
O164 Dy161 2.298 . S
O164 C173 1.236 . S
O165 Dy160 2.395 . S
O165 C182 1.255 . S
O166 Dy160 2.379 . S
O166 C182 1.249 . S
O167 Dy161 2.275 . S
O167 C183 1.254 . S
O168 Dy160 2.339 . S
O168 C183 1.257 . S
O169 Dy161 2.307 . S
O169 C184 1.266 . S
O170 Dy160 2.298 . S
O170 C184 1.236 . S
O171 Dy161 2.395 1_556 S
O171 C191 1.255 . S
O172 Dy161 2.379 1_556 S
O172 C191 1.249 . S
C173 O163 1.266 . S
C173 O164 1.236 . S
O174 Dy160 2.275 . S
O174 C162 1.254 . S
O175 Dy161 2.339 . S
O175 C162 1.257 . S
C176 C179 1.344 . S
C176 C180 1.328 . S
C176 C182 1.516 . S
C177 C178 1.304 . S
C177 C181 1.323 . S
C178 C177 1.304 . S
C178 C179 1.371 . S
C178 H192 0.930 . S
C179 C176 1.344 . S
C179 C178 1.371 . S
C179 H193 0.931 . S
C180 C176 1.328 . S
C180 C181 1.433 . S
C180 H194 0.931 . S
C181 C177 1.323 . S
C181 C180 1.433 . S
C181 H195 0.933 . S
C182 Dy160 2.738 . S
C182 O165 1.255 . S
C182 O166 1.249 . S
C182 C176 1.516 . S
C183 O167 1.254 . S
C183 O168 1.257 . S
C184 O169 1.266 . S
C184 O170 1.236 . S
C185 C188 1.344 . S
C185 C189 1.328 . S
C185 C191 1.516 . S
C186 C187 1.304 . S
C186 C190 1.323 . S
C187 C186 1.304 . S
C187 C188 1.371 . S
C187 H196 0.930 . S
C188 C185 1.344 . S
C188 C187 1.371 . S
C188 H197 0.931 . S
C189 C185 1.328 . S
C189 C190 1.433 . S
C189 H198 0.931 . S
C190 C186 1.323 . S
C190 C189 1.433 . S
C190 H199 0.933 . S
C191 Dy161 2.738 1_556 S
C191 O171 1.255 . S
C191 O172 1.249 . S
C191 C185 1.516 . S
H192 C178 0.930 . S
H193 C179 0.931 . S
H194 C180 0.931 . S
H195 C181 0.933 . S
H196 C187 0.930 . S
H197 C188 0.931 . S
H198 C189 0.931 . S
H199 C190 0.933 . S
Dy200 O203 2.307 . S
Dy200 O205 2.395 1_556 S
Dy200 O206 2.379 1_556 S
Dy200 O208 2.339 . S
Dy200 O210 2.298 . S
Dy200 O214 2.275 . S
Dy200 C222 2.738 1_556 S
Dy201 O204 2.298 . S
Dy201 O207 2.275 . S
Dy201 O209 2.307 . S
Dy201 O211 2.395 . S
Dy201 O212 2.379 . S
Dy201 O215 2.339 . S
Dy201 C231 2.738 . S
C202 O214 1.254 . S
C202 O215 1.257 . S
O203 Dy200 2.307 . S
O203 C213 1.266 . S
O204 Dy201 2.298 . S
O204 C213 1.236 . S
O205 Dy200 2.395 1_554 S
O205 C222 1.255 . S
O206 Dy200 2.379 1_554 S
O206 C222 1.249 . S
O207 Dy201 2.275 . S
O207 C223 1.254 . S
O208 Dy200 2.339 . S
O208 C223 1.257 . S
O209 Dy201 2.307 . S
O209 C224 1.266 . S
O210 Dy200 2.298 . S
O210 C224 1.236 . S
O211 Dy201 2.395 . S
O211 C231 1.255 . S
O212 Dy201 2.379 . S
O212 C231 1.249 . S
C213 O203 1.266 . S
C213 O204 1.236 . S
O214 Dy200 2.275 . S
O214 C202 1.254 . S
O215 Dy201 2.339 . S
O215 C202 1.257 . S
C216 C219 1.344 . S
C216 C220 1.328 . S
C216 C222 1.516 . S
C217 C218 1.304 . S
C217 C221 1.323 . S
C218 C217 1.304 . S
C218 C219 1.371 . S
C218 H232 0.930 . S
C219 C216 1.344 . S
C219 C218 1.371 . S
C219 H233 0.931 . S
C220 C216 1.328 . S
C220 C221 1.433 . S
C220 H234 0.931 . S
C221 C217 1.323 . S
C221 C220 1.433 . S
C221 H235 0.933 . S
C222 Dy200 2.738 1_554 S
C222 O205 1.255 . S
C222 O206 1.249 . S
C222 C216 1.516 . S
C223 O207 1.254 . S
C223 O208 1.257 . S
C224 O209 1.266 . S
C224 O210 1.236 . S
C225 C228 1.344 . S
C225 C229 1.328 . S
C225 C231 1.516 . S
C226 C227 1.304 . S
C226 C230 1.323 . S
C227 C226 1.304 . S
C227 C228 1.371 . S
C227 H236 0.930 . S
C228 C225 1.344 . S
C228 C227 1.371 . S
C228 H237 0.931 . S
C229 C225 1.328 . S
C229 C230 1.433 . S
C229 H238 0.931 . S
C230 C226 1.323 . S
C230 C229 1.433 . S
C230 H239 0.933 . S
C231 Dy201 2.738 . S
C231 O211 1.255 . S
C231 O212 1.249 . S
C231 C225 1.516 . S
H232 C218 0.930 . S
H233 C219 0.931 . S
H234 C220 0.931 . S
H235 C221 0.933 . S
H236 C227 0.930 . S
H237 C228 0.931 . S
H238 C229 0.931 . S
H239 C230 0.933 . S
Dy240 O243 2.307 . S
Dy240 O245 2.395 . S
Dy240 O246 2.379 . S
Dy240 O248 2.339 . S
Dy240 O250 2.298 . S
Dy240 O254 2.275 . S
Dy240 C262 2.738 . S
Dy241 O244 2.298 . S
Dy241 O247 2.275 . S
Dy241 O249 2.307 . S
Dy241 O251 2.395 1_554 S
Dy241 O252 2.379 1_554 S
Dy241 O255 2.339 . S
Dy241 C271 2.738 1_554 S
C242 O254 1.254 . S
C242 O255 1.257 . S
O243 Dy240 2.307 . S
O243 C253 1.266 . S
O244 Dy241 2.298 . S
O244 C253 1.236 . S
O245 Dy240 2.395 . S
O245 C262 1.255 . S
O246 Dy240 2.379 . S
O246 C262 1.249 . S
O247 Dy241 2.275 . S
O247 C263 1.254 . S
O248 Dy240 2.339 . S
O248 C263 1.257 . S
O249 Dy241 2.307 . S
O249 C264 1.266 . S
O250 Dy240 2.298 . S
O250 C264 1.236 . S
O251 Dy241 2.395 1_556 S
O251 C271 1.255 . S
O252 Dy241 2.379 1_556 S
O252 C271 1.249 . S
C253 O243 1.266 . S
C253 O244 1.236 . S
O254 Dy240 2.275 . S
O254 C242 1.254 . S
O255 Dy241 2.339 . S
O255 C242 1.257 . S
C256 C259 1.344 . S
C256 C260 1.328 . S
C256 C262 1.516 . S
C257 C258 1.304 . S
C257 C261 1.323 . S
C258 C257 1.304 . S
C258 C259 1.371 . S
C258 H272 0.930 . S
C259 C256 1.344 . S
C259 C258 1.371 . S
C259 H273 0.931 . S
C260 C256 1.328 . S
C260 C261 1.433 . S
C260 H274 0.931 . S
C261 C257 1.323 . S
C261 C260 1.433 . S
C261 H275 0.933 . S
C262 Dy240 2.738 . S
C262 O245 1.255 . S
C262 O246 1.249 . S
C262 C256 1.516 . S
C263 O247 1.254 . S
C263 O248 1.257 . S
C264 O249 1.266 . S
C264 O250 1.236 . S
C265 C268 1.344 . S
C265 C269 1.328 . S
C265 C271 1.516 . S
C266 C267 1.304 . S
C266 C270 1.323 . S
C267 C266 1.304 . S
C267 C268 1.371 . S
C267 H276 0.930 . S
C268 C265 1.344 . S
C268 C267 1.371 . S
C268 H277 0.931 . S
C269 C265 1.328 . S
C269 C270 1.433 . S
C269 H278 0.931 . S
C270 C266 1.323 . S
C270 C269 1.433 . S
C270 H279 0.933 . S
C271 Dy241 2.738 1_556 S
C271 O251 1.255 . S
C271 O252 1.249 . S
C271 C265 1.516 . S
H272 C258 0.930 . S
H273 C259 0.931 . S
H274 C260 0.931 . S
H275 C261 0.933 . S
H276 C267 0.930 . S
H277 C268 0.931 . S
H278 C269 0.931 . S
H279 C270 0.933 . S
Dy280 O283 2.307 . S
Dy280 O285 2.395 1_556 S
Dy280 O286 2.379 1_556 S
Dy280 O288 2.339 . S
Dy280 O290 2.298 . S
Dy280 O294 2.275 . S
Dy280 C302 2.738 1_556 S
Dy281 O284 2.298 . S
Dy281 O287 2.275 . S
Dy281 O289 2.307 . S
Dy281 O291 2.395 . S
Dy281 O292 2.379 . S
Dy281 O295 2.339 . S
Dy281 C311 2.738 . S
C282 O294 1.254 . S
C282 O295 1.257 . S
O283 Dy280 2.307 . S
O283 C293 1.266 . S
O284 Dy281 2.298 . S
O284 C293 1.236 . S
O285 Dy280 2.395 1_554 S
O285 C302 1.255 . S
O286 Dy280 2.379 1_554 S
O286 C302 1.249 . S
O287 Dy281 2.275 . S
O287 C303 1.254 . S
O288 Dy280 2.339 . S
O288 C303 1.257 . S
O289 Dy281 2.307 . S
O289 C304 1.266 . S
O290 Dy280 2.298 . S
O290 C304 1.236 . S
O291 Dy281 2.395 . S
O291 C311 1.255 . S
O292 Dy281 2.379 . S
O292 C311 1.249 . S
C293 O283 1.266 . S
C293 O284 1.236 . S
O294 Dy280 2.275 . S
O294 C282 1.254 . S
O295 Dy281 2.339 . S
O295 C282 1.257 . S
C296 C299 1.344 . S
C296 C300 1.328 . S
C296 C302 1.516 . S
C297 C298 1.304 . S
C297 C301 1.323 . S
C298 C297 1.304 . S
C298 C299 1.371 . S
C298 H312 0.930 . S
C299 C296 1.344 . S
C299 C298 1.371 . S
C299 H313 0.931 . S
C300 C296 1.328 . S
C300 C301 1.433 . S
C300 H314 0.931 . S
C301 C297 1.323 . S
C301 C300 1.433 . S
C301 H315 0.933 . S
C302 Dy280 2.738 1_554 S
C302 O285 1.255 . S
C302 O286 1.249 . S
C302 C296 1.516 . S
C303 O287 1.254 . S
C303 O288 1.257 . S
C304 O289 1.266 . S
C304 O290 1.236 . S
C305 C308 1.344 . S
C305 C309 1.328 . S
C305 C311 1.516 . S
C306 C307 1.304 . S
C306 C310 1.323 . S
C307 C306 1.304 . S
C307 C308 1.371 . S
C307 H316 0.930 . S
C308 C305 1.344 . S
C308 C307 1.371 . S
C308 H317 0.931 . S
C309 C305 1.328 . S
C309 C310 1.433 . S
C309 H318 0.931 . S
C310 C306 1.323 . S
C310 C309 1.433 . S
C310 H319 0.933 . S
C311 Dy281 2.738 . S
C311 O291 1.255 . S
C311 O292 1.249 . S
C311 C305 1.516 . S
H312 C298 0.930 . S
H313 C299 0.931 . S
H314 C300 0.931 . S
H315 C301 0.933 . S
H316 C307 0.930 . S
H317 C308 0.931 . S
H318 C309 0.931 . S
H319 C310 0.933 . S
Dy320 O323 2.307 . S
Dy320 O325 2.395 . S
Dy320 O326 2.379 . S
Dy320 O328 2.339 . S
Dy320 O330 2.298 . S
Dy320 O334 2.275 . S
Dy320 C342 2.738 . S
Dy321 O324 2.298 . S
Dy321 O327 2.275 . S
Dy321 O329 2.307 . S
Dy321 O331 2.395 . S
Dy321 O332 2.379 . S
Dy321 O335 2.339 . S
Dy321 C351 2.738 . S
C322 O334 1.254 . S
C322 O335 1.257 . S
O323 Dy320 2.307 . S
O323 C333 1.266 . S
O324 Dy321 2.298 . S
O324 C333 1.236 . S
O325 Dy320 2.395 . S
O325 C342 1.255 . S
O326 Dy320 2.379 . S
O326 C342 1.249 . S
O327 Dy321 2.275 . S
O327 C343 1.254 . S
O328 Dy320 2.339 . S
O328 C343 1.257 . S
O329 Dy321 2.307 . S
O329 C344 1.266 . S
O330 Dy320 2.298 . S
O330 C344 1.236 . S
O331 Dy321 2.395 . S
O331 C351 1.255 . S
O332 Dy321 2.379 . S
O332 C351 1.249 . S
C333 O323 1.266 . S
C333 O324 1.236 . S
O334 Dy320 2.275 . S
O334 C322 1.254 . S
O335 Dy321 2.339 . S
O335 C322 1.257 . S
C336 C339 1.344 . S
C336 C340 1.328 . S
C336 C342 1.516 . S
C337 C338 1.304 . S
C337 C341 1.323 . S
C338 C337 1.304 . S
C338 C339 1.371 . S
C338 H352 0.930 . S
C339 C336 1.344 . S
C339 C338 1.371 . S
C339 H353 0.931 . S
C340 C336 1.328 . S
C340 C341 1.433 . S
C340 H354 0.931 . S
C341 C337 1.323 . S
C341 C340 1.433 . S
C341 H355 0.933 . S
C342 Dy320 2.738 . S
C342 O325 1.255 . S
C342 O326 1.249 . S
C342 C336 1.516 . S
C343 O327 1.254 . S
C343 O328 1.257 . S
C344 O329 1.266 . S
C344 O330 1.236 . S
C345 C348 1.344 . S
C345 C349 1.328 . S
C345 C351 1.516 . S
C346 C347 1.304 1_554 S
C346 C350 1.323 1_554 S
C347 C346 1.304 1_556 S
C347 C348 1.371 . S
C347 H356 0.930 1_556 S
C348 C345 1.344 . S
C348 C347 1.371 . S
C348 H357 0.931 . S
C349 C345 1.328 . S
C349 C350 1.433 . S
C349 H358 0.931 . S
C350 C346 1.323 1_556 S
C350 C349 1.433 . S
C350 H359 0.933 1_556 S
C351 Dy321 2.738 . S
C351 O331 1.255 . S
C351 O332 1.249 . S
C351 C345 1.516 . S
H352 C338 0.930 . S
H353 C339 0.931 . S
H354 C340 0.931 . S
H355 C341 0.933 . S
H356 C347 0.930 1_554 S
H357 C348 0.931 . S
H358 C349 0.931 . S
H359 C350 0.933 1_554 S
Dy360 O363 2.307 . S
Dy360 O365 2.395 . S
Dy360 O366 2.379 . S
Dy360 O368 2.339 . S
Dy360 O370 2.298 . S
Dy360 O374 2.275 . S
Dy360 C382 2.738 . S
Dy361 O364 2.298 . S
Dy361 O367 2.275 . S
Dy361 O369 2.307 . S
Dy361 O371 2.395 . S
Dy361 O372 2.379 . S
Dy361 O375 2.339 . S
Dy361 C391 2.738 . S
C362 O374 1.254 . S
C362 O375 1.257 . S
O363 Dy360 2.307 . S
O363 C373 1.266 . S
O364 Dy361 2.298 . S
O364 C373 1.236 . S
O365 Dy360 2.395 . S
O365 C382 1.255 . S
O366 Dy360 2.379 . S
O366 C382 1.249 . S
O367 Dy361 2.275 . S
O367 C383 1.254 . S
O368 Dy360 2.339 . S
O368 C383 1.257 . S
O369 Dy361 2.307 . S
O369 C384 1.266 . S
O370 Dy360 2.298 . S
O370 C384 1.236 . S
O371 Dy361 2.395 . S
O371 C391 1.255 . S
O372 Dy361 2.379 . S
O372 C391 1.249 . S
C373 O363 1.266 . S
C373 O364 1.236 . S
O374 Dy360 2.275 . S
O374 C362 1.254 . S
O375 Dy361 2.339 . S
O375 C362 1.257 . S
C376 C379 1.344 . S
C376 C380 1.328 . S
C376 C382 1.516 . S
C377 C378 1.304 1_556 S
C377 C381 1.323 1_556 S
C378 C377 1.304 1_554 S
C378 C379 1.371 . S
C378 H392 0.930 1_554 S
C379 C376 1.344 . S
C379 C378 1.371 . S
C379 H393 0.931 . S
C380 C376 1.328 . S
C380 C381 1.433 . S
C380 H394 0.931 . S
C381 C377 1.323 1_554 S
C381 C380 1.433 . S
C381 H395 0.933 1_554 S
C382 Dy360 2.738 . S
C382 O365 1.255 . S
C382 O366 1.249 . S
C382 C376 1.516 . S
C383 O367 1.254 . S
C383 O368 1.257 . S
C384 O369 1.266 . S
C384 O370 1.236 . S
C385 C388 1.344 . S
C385 C389 1.328 . S
C385 C391 1.516 . S
C386 C387 1.304 . S
C386 C390 1.323 . S
C387 C386 1.304 . S
C387 C388 1.371 . S
C387 H396 0.930 . S
C388 C385 1.344 . S
C388 C387 1.371 . S
C388 H397 0.931 . S
C389 C385 1.328 . S
C389 C390 1.433 . S
C389 H398 0.931 . S
C390 C386 1.323 . S
C390 C389 1.433 . S
C390 H399 0.933 . S
C391 Dy361 2.738 . S
C391 O371 1.255 . S
C391 O372 1.249 . S
C391 C385 1.516 . S
H392 C378 0.930 1_556 S
H393 C379 0.931 . S
H394 C380 0.931 . S
H395 C381 0.933 1_556 S
H396 C387 0.930 . S
H397 C388 0.931 . S
H398 C389 0.931 . S
H399 C390 0.933 . S
Dy400 O403 2.307 . S
Dy400 O405 2.395 . S
Dy400 O406 2.379 . S
Dy400 O408 2.339 . S
Dy400 O410 2.298 . S
Dy400 O414 2.275 . S
Dy400 C422 2.738 . S
Dy401 O404 2.298 . S
Dy401 O407 2.275 . S
Dy401 O409 2.307 . S
Dy401 O411 2.395 . S
Dy401 O412 2.379 . S
Dy401 O415 2.339 . S
Dy401 C431 2.738 . S
C402 O414 1.254 . S
C402 O415 1.257 . S
O403 Dy400 2.307 . S
O403 C413 1.266 . S
O404 Dy401 2.298 . S
O404 C413 1.236 . S
O405 Dy400 2.395 . S
O405 C422 1.255 . S
O406 Dy400 2.379 . S
O406 C422 1.249 . S
O407 Dy401 2.275 . S
O407 C423 1.254 . S
O408 Dy400 2.339 . S
O408 C423 1.257 . S
O409 Dy401 2.307 . S
O409 C424 1.266 . S
O410 Dy400 2.298 . S
O410 C424 1.236 . S
O411 Dy401 2.395 . S
O411 C431 1.255 . S
O412 Dy401 2.379 . S
O412 C431 1.249 . S
C413 O403 1.266 . S
C413 O404 1.236 . S
O414 Dy400 2.275 . S
O414 C402 1.254 . S
O415 Dy401 2.339 . S
O415 C402 1.257 . S
C416 C419 1.344 . S
C416 C420 1.328 . S
C416 C422 1.516 . S
C417 C418 1.304 . S
C417 C421 1.323 . S
C418 C417 1.304 . S
C418 C419 1.371 . S
C418 H432 0.930 . S
C419 C416 1.344 . S
C419 C418 1.371 . S
C419 H433 0.931 . S
C420 C416 1.328 . S
C420 C421 1.433 . S
C420 H434 0.931 . S
C421 C417 1.323 . S
C421 C420 1.433 . S
C421 H435 0.933 . S
C422 Dy400 2.738 . S
C422 O405 1.255 . S
C422 O406 1.249 . S
C422 C416 1.516 . S
C423 O407 1.254 . S
C423 O408 1.257 . S
C424 O409 1.266 . S
C424 O410 1.236 . S
C425 C428 1.344 . S
C425 C429 1.328 . S
C425 C431 1.516 . S
C426 C427 1.304 1_554 S
C426 C430 1.323 1_554 S
C427 C426 1.304 1_556 S
C427 C428 1.371 . S
C427 H436 0.930 1_556 S
C428 C425 1.344 . S
C428 C427 1.371 . S
C428 H437 0.931 . S
C429 C425 1.328 . S
C429 C430 1.433 . S
C429 H438 0.931 . S
C430 C426 1.323 1_556 S
C430 C429 1.433 . S
C430 H439 0.933 1_556 S
C431 Dy401 2.738 . S
C431 O411 1.255 . S
C431 O412 1.249 . S
C431 C425 1.516 . S
H432 C418 0.930 . S
H433 C419 0.931 . S
H434 C420 0.931 . S
H435 C421 0.933 . S
H436 C427 0.930 1_554 S
H437 C428 0.931 . S
H438 C429 0.931 . S
H439 C430 0.933 1_554 S
Dy440 O443 2.307 . S
Dy440 O445 2.395 . S
Dy440 O446 2.379 . S
Dy440 O448 2.339 . S
Dy440 O450 2.298 . S
Dy440 O454 2.275 . S
Dy440 C462 2.738 . S
Dy441 O444 2.298 . S
Dy441 O447 2.275 . S
Dy441 O449 2.307 . S
Dy441 O451 2.395 . S
Dy441 O452 2.379 . S
Dy441 O455 2.339 . S
Dy441 C471 2.738 . S
C442 O454 1.254 . S
C442 O455 1.257 . S
O443 Dy440 2.307 . S
O443 C453 1.266 . S
O444 Dy441 2.298 . S
O444 C453 1.236 . S
O445 Dy440 2.395 . S
O445 C462 1.255 . S
O446 Dy440 2.379 . S
O446 C462 1.249 . S
O447 Dy441 2.275 . S
O447 C463 1.254 . S
O448 Dy440 2.339 . S
O448 C463 1.257 . S
O449 Dy441 2.307 . S
O449 C464 1.266 . S
O450 Dy440 2.298 . S
O450 C464 1.236 . S
O451 Dy441 2.395 . S
O451 C471 1.255 . S
O452 Dy441 2.379 . S
O452 C471 1.249 . S
C453 O443 1.266 . S
C453 O444 1.236 . S
O454 Dy440 2.275 . S
O454 C442 1.254 . S
O455 Dy441 2.339 . S
O455 C442 1.257 . S
C456 C459 1.344 . S
C456 C460 1.328 . S
C456 C462 1.516 . S
C457 C458 1.304 1_556 S
C457 C461 1.323 1_556 S
C458 C457 1.304 1_554 S
C458 C459 1.371 . S
C458 H472 0.930 1_554 S
C459 C456 1.344 . S
C459 C458 1.371 . S
C459 H473 0.931 . S
C460 C456 1.328 . S
C460 C461 1.433 . S
C460 H474 0.931 . S
C461 C457 1.323 1_554 S
C461 C460 1.433 . S
C461 H475 0.933 1_554 S
C462 Dy440 2.738 . S
C462 O445 1.255 . S
C462 O446 1.249 . S
C462 C456 1.516 . S
C463 O447 1.254 . S
C463 O448 1.257 . S
C464 O449 1.266 . S
C464 O450 1.236 . S
C465 C468 1.344 . S
C465 C469 1.328 . S
C465 C471 1.516 . S
C466 C467 1.304 . S
C466 C470 1.323 . S
C467 C466 1.304 . S
C467 C468 1.371 . S
C467 H476 0.930 . S
C468 C465 1.344 . S
C468 C467 1.371 . S
C468 H477 0.931 . S
C469 C465 1.328 . S
C469 C470 1.433 . S
C469 H478 0.931 . S
C470 C466 1.323 . S
C470 C469 1.433 . S
C470 H479 0.933 . S
C471 Dy441 2.738 . S
C471 O451 1.255 . S
C471 O452 1.249 . S
C471 C465 1.516 . S
H472 C458 0.930 1_556 S
H473 C459 0.931 . S
H474 C460 0.931 . S
H475 C461 0.933 1_556 S
H476 C467 0.930 . S
H477 C468 0.931 . S
H478 C469 0.931 . S
H479 C470 0.933 . S
Dy480 O483 2.307 . S
Dy480 O485 2.395 . S
Dy480 O486 2.379 . S
Dy480 O488 2.339 . S
Dy480 O490 2.298 . S
Dy480 O494 2.275 . S
Dy480 C502 2.738 . S
Dy481 O484 2.298 . S
Dy481 O487 2.275 . S
Dy481 O489 2.307 . S
Dy481 O491 2.395 . S
Dy481 O492 2.379 . S
Dy481 O495 2.339 . S
Dy481 C511 2.738 . S
C482 O494 1.254 . S
C482 O495 1.257 . S
O483 Dy480 2.307 . S
O483 C493 1.266 . S
O484 Dy481 2.298 . S
O484 C493 1.236 . S
O485 Dy480 2.395 . S
O485 C502 1.255 . S
O486 Dy480 2.379 . S
O486 C502 1.249 . S
O487 Dy481 2.275 . S
O487 C503 1.254 . S
O488 Dy480 2.339 . S
O488 C503 1.257 . S
O489 Dy481 2.307 . S
O489 C504 1.266 . S
O490 Dy480 2.298 . S
O490 C504 1.236 . S
O491 Dy481 2.395 . S
O491 C511 1.255 . S
O492 Dy481 2.379 . S
O492 C511 1.249 . S
C493 O483 1.266 . S
C493 O484 1.236 . S
O494 Dy480 2.275 . S
O494 C482 1.254 . S
O495 Dy481 2.339 . S
O495 C482 1.257 . S
C496 C499 1.344 . S
C496 C500 1.328 . S
C496 C502 1.516 . S
C497 C498 1.304 1_554 S
C497 C501 1.323 1_554 S
C498 C497 1.304 1_556 S
C498 C499 1.371 . S
C498 H512 0.930 1_556 S
C499 C496 1.344 . S
C499 C498 1.371 . S
C499 H513 0.931 . S
C500 C496 1.328 . S
C500 C501 1.433 . S
C500 H514 0.931 . S
C501 C497 1.323 1_556 S
C501 C500 1.433 . S
C501 H515 0.933 1_556 S
C502 Dy480 2.738 . S
C502 O485 1.255 . S
C502 O486 1.249 . S
C502 C496 1.516 . S
C503 O487 1.254 . S
C503 O488 1.257 . S
C504 O489 1.266 . S
C504 O490 1.236 . S
C505 C508 1.344 . S
C505 C509 1.328 . S
C505 C511 1.516 . S
C506 C507 1.304 . S
C506 C510 1.323 . S
C507 C506 1.304 . S
C507 C508 1.371 . S
C507 H516 0.930 . S
C508 C505 1.344 . S
C508 C507 1.371 . S
C508 H517 0.931 . S
C509 C505 1.328 . S
C509 C510 1.433 . S
C509 H518 0.931 . S
C510 C506 1.323 . S
C510 C509 1.433 . S
C510 H519 0.933 . S
C511 Dy481 2.738 . S
C511 O491 1.255 . S
C511 O492 1.249 . S
C511 C505 1.516 . S
H512 C498 0.930 1_554 S
H513 C499 0.931 . S
H514 C500 0.931 . S
H515 C501 0.933 1_554 S
H516 C507 0.930 . S
H517 C508 0.931 . S
H518 C509 0.931 . S
H519 C510 0.933 . S
Dy520 O523 2.307 . S
Dy520 O525 2.395 . S
Dy520 O526 2.379 . S
Dy520 O528 2.339 . S
Dy520 O530 2.298 . S
Dy520 O534 2.275 . S
Dy520 C542 2.738 . S
Dy521 O524 2.298 . S
Dy521 O527 2.275 . S
Dy521 O529 2.307 . S
Dy521 O531 2.395 . S
Dy521 O532 2.379 . S
Dy521 O535 2.339 . S
Dy521 C551 2.738 . S
C522 O534 1.254 . S
C522 O535 1.257 . S
O523 Dy520 2.307 . S
O523 C533 1.266 . S
O524 Dy521 2.298 . S
O524 C533 1.236 . S
O525 Dy520 2.395 . S
O525 C542 1.255 . S
O526 Dy520 2.379 . S
O526 C542 1.249 . S
O527 Dy521 2.275 . S
O527 C543 1.254 . S
O528 Dy520 2.339 . S
O528 C543 1.257 . S
O529 Dy521 2.307 . S
O529 C544 1.266 . S
O530 Dy520 2.298 . S
O530 C544 1.236 . S
O531 Dy521 2.395 . S
O531 C551 1.255 . S
O532 Dy521 2.379 . S
O532 C551 1.249 . S
C533 O523 1.266 . S
C533 O524 1.236 . S
O534 Dy520 2.275 . S
O534 C522 1.254 . S
O535 Dy521 2.339 . S
O535 C522 1.257 . S
C536 C539 1.344 . S
C536 C540 1.328 . S
C536 C542 1.516 . S
C537 C538 1.304 . S
C537 C541 1.323 . S
C538 C537 1.304 . S
C538 C539 1.371 . S
C538 H552 0.930 . S
C539 C536 1.344 . S
C539 C538 1.371 . S
C539 H553 0.931 . S
C540 C536 1.328 . S
C540 C541 1.433 . S
C540 H554 0.931 . S
C541 C537 1.323 . S
C541 C540 1.433 . S
C541 H555 0.933 . S
C542 Dy520 2.738 . S
C542 O525 1.255 . S
C542 O526 1.249 . S
C542 C536 1.516 . S
C543 O527 1.254 . S
C543 O528 1.257 . S
C544 O529 1.266 . S
C544 O530 1.236 . S
C545 C548 1.344 . S
C545 C549 1.328 . S
C545 C551 1.516 . S
C546 C547 1.304 1_556 S
C546 C550 1.323 1_556 S
C547 C546 1.304 1_554 S
C547 C548 1.371 . S
C547 H556 0.930 1_554 S
C548 C545 1.344 . S
C548 C547 1.371 . S
C548 H557 0.931 . S
C549 C545 1.328 . S
C549 C550 1.433 . S
C549 H558 0.931 . S
C550 C546 1.323 1_554 S
C550 C549 1.433 . S
C550 H559 0.933 1_554 S
C551 Dy521 2.738 . S
C551 O531 1.255 . S
C551 O532 1.249 . S
C551 C545 1.516 . S
H552 C538 0.930 . S
H553 C539 0.931 . S
H554 C540 0.931 . S
H555 C541 0.933 . S
H556 C547 0.930 1_556 S
H557 C548 0.931 . S
H558 C549 0.931 . S
H559 C550 0.933 1_556 S
Dy560 O563 2.307 . S
Dy560 O565 2.395 . S
Dy560 O566 2.379 . S
Dy560 O568 2.339 . S
Dy560 O570 2.298 . S
Dy560 O574 2.275 . S
Dy560 C582 2.738 . S
Dy561 O564 2.298 . S
Dy561 O567 2.275 . S
Dy561 O569 2.307 . S
Dy561 O571 2.395 . S
Dy561 O572 2.379 . S
Dy561 O575 2.339 . S
Dy561 C591 2.738 . S
C562 O574 1.254 . S
C562 O575 1.257 . S
O563 Dy560 2.307 . S
O563 C573 1.266 . S
O564 Dy561 2.298 . S
O564 C573 1.236 . S
O565 Dy560 2.395 . S
O565 C582 1.255 . S
O566 Dy560 2.379 . S
O566 C582 1.249 . S
O567 Dy561 2.275 . S
O567 C583 1.254 . S
O568 Dy560 2.339 . S
O568 C583 1.257 . S
O569 Dy561 2.307 . S
O569 C584 1.266 . S
O570 Dy560 2.298 . S
O570 C584 1.236 . S
O571 Dy561 2.395 . S
O571 C591 1.255 . S
O572 Dy561 2.379 . S
O572 C591 1.249 . S
C573 O563 1.266 . S
C573 O564 1.236 . S
O574 Dy560 2.275 . S
O574 C562 1.254 . S
O575 Dy561 2.339 . S
O575 C562 1.257 . S
C576 C579 1.344 . S
C576 C580 1.328 . S
C576 C582 1.516 . S
C577 C578 1.304 1_554 S
C577 C581 1.323 1_554 S
C578 C577 1.304 1_556 S
C578 C579 1.371 . S
C578 H592 0.930 1_556 S
C579 C576 1.344 . S
C579 C578 1.371 . S
C579 H593 0.931 . S
C580 C576 1.328 . S
C580 C581 1.433 . S
C580 H594 0.931 . S
C581 C577 1.323 1_556 S
C581 C580 1.433 . S
C581 H595 0.933 1_556 S
C582 Dy560 2.738 . S
C582 O565 1.255 . S
C582 O566 1.249 . S
C582 C576 1.516 . S
C583 O567 1.254 . S
C583 O568 1.257 . S
C584 O569 1.266 . S
C584 O570 1.236 . S
C585 C588 1.344 . S
C585 C589 1.328 . S
C585 C591 1.516 . S
C586 C587 1.304 . S
C586 C590 1.323 . S
C587 C586 1.304 . S
C587 C588 1.371 . S
C587 H596 0.930 . S
C588 C585 1.344 . S
C588 C587 1.371 . S
C588 H597 0.931 . S
C589 C585 1.328 . S
C589 C590 1.433 . S
C589 H598 0.931 . S
C590 C586 1.323 . S
C590 C589 1.433 . S
C590 H599 0.933 . S
C591 Dy561 2.738 . S
C591 O571 1.255 . S
C591 O572 1.249 . S
C591 C585 1.516 . S
H592 C578 0.930 1_554 S
H593 C579 0.931 . S
H594 C580 0.931 . S
H595 C581 0.933 1_554 S
H596 C587 0.930 . S
H597 C588 0.931 . S
H598 C589 0.931 . S
H599 C590 0.933 . S
Dy600 O603 2.307 . S
Dy600 O605 2.395 . S
Dy600 O606 2.379 . S
Dy600 O608 2.339 . S
Dy600 O610 2.298 . S
Dy600 O614 2.275 . S
Dy600 C622 2.738 . S
Dy601 O604 2.298 . S
Dy601 O607 2.275 . S
Dy601 O609 2.307 . S
Dy601 O611 2.395 . S
Dy601 O612 2.379 . S
Dy601 O615 2.339 . S
Dy601 C631 2.738 . S
C602 O614 1.254 . S
C602 O615 1.257 . S
O603 Dy600 2.307 . S
O603 C613 1.266 . S
O604 Dy601 2.298 . S
O604 C613 1.236 . S
O605 Dy600 2.395 . S
O605 C622 1.255 . S
O606 Dy600 2.379 . S
O606 C622 1.249 . S
O607 Dy601 2.275 . S
O607 C623 1.254 . S
O608 Dy600 2.339 . S
O608 C623 1.257 . S
O609 Dy601 2.307 . S
O609 C624 1.266 . S
O610 Dy600 2.298 . S
O610 C624 1.236 . S
O611 Dy601 2.395 . S
O611 C631 1.255 . S
O612 Dy601 2.379 . S
O612 C631 1.249 . S
C613 O603 1.266 . S
C613 O604 1.236 . S
O614 Dy600 2.275 . S
O614 C602 1.254 . S
O615 Dy601 2.339 . S
O615 C602 1.257 . S
C616 C619 1.344 . S
C616 C620 1.328 . S
C616 C622 1.516 . S
C617 C618 1.304 . S
C617 C621 1.323 . S
C618 C617 1.304 . S
C618 C619 1.371 . S
C618 H632 0.930 . S
C619 C616 1.344 . S
C619 C618 1.371 . S
C619 H633 0.931 . S
C620 C616 1.328 . S
C620 C621 1.433 . S
C620 H634 0.931 . S
C621 C617 1.323 . S
C621 C620 1.433 . S
C621 H635 0.933 . S
C622 Dy600 2.738 . S
C622 O605 1.255 . S
C622 O606 1.249 . S
C622 C616 1.516 . S
C623 O607 1.254 . S
C623 O608 1.257 . S
C624 O609 1.266 . S
C624 O610 1.236 . S
C625 C628 1.344 . S
C625 C629 1.328 . S
C625 C631 1.516 . S
C626 C627 1.304 1_556 S
C626 C630 1.323 1_556 S
C627 C626 1.304 1_554 S
C627 C628 1.371 . S
C627 H636 0.930 1_554 S
C628 C625 1.344 . S
C628 C627 1.371 . S
C628 H637 0.931 . S
C629 C625 1.328 . S
C629 C630 1.433 . S
C629 H638 0.931 . S
C630 C626 1.323 1_554 S
C630 C629 1.433 . S
C630 H639 0.933 1_554 S
C631 Dy601 2.738 . S
C631 O611 1.255 . S
C631 O612 1.249 . S
C631 C625 1.516 . S
H632 C618 0.930 . S
H633 C619 0.931 . S
H634 C620 0.931 . S
H635 C621 0.933 . S
H636 C627 0.930 1_556 S
H637 C628 0.931 . S
H638 C629 0.931 . S
H639 C630 0.933 1_556 S
C640 C641 1.387 . S
C640 H644 0.950 . S
C640 C649 1.390 . S
C641 C640 1.387 . S
C641 C643 1.387 . S
H642 C649 0.950 1_545 S
C643 C641 1.387 . S
C643 C645 1.390 . S
C643 H647 0.950 . S
H644 C640 0.950 . S
C645 C643 1.390 . S
C645 C646 1.387 . S
C645 H648 0.950 . S
C646 C645 1.387 . S
C646 C649 1.387 . S
H647 C643 0.950 . S
H648 C645 0.950 . S
C649 C640 1.390 . S
C649 H642 0.950 1_565 S
C649 C646 1.387 . S
C650 C651 1.387 . S
C650 H654 0.950 . S
C650 C659 1.390 . S
C651 C650 1.387 . S
C651 C653 1.387 . S
H652 C659 0.950 . S
C653 C651 1.387 . S
C653 C655 1.390 . S
C653 H657 0.950 . S
H654 C650 0.950 . S
C655 C653 1.390 . S
C655 C656 1.387 . S
C655 H658 0.950 . S
C656 C655 1.387 . S
C656 C659 1.387 . S
H657 C653 0.950 . S
H658 C655 0.950 . S
C659 C650 1.390 . S
C659 H652 0.950 . S
C659 C656 1.387 . S
C660 C661 1.387 . S
C660 H664 0.950 1_545 S
C660 C669 1.390 . S
C661 C660 1.387 . S
C661 C663 1.387 . S
H662 C669 0.950 . S
C663 C661 1.387 . S
C663 C665 1.390 . S
C663 H667 0.950 . S
H664 C660 0.950 1_565 S
C665 C663 1.390 . S
C665 C666 1.387 . S
C665 H668 0.950 . S
C666 C665 1.387 . S
C666 C669 1.387 . S
H667 C663 0.950 . S
H668 C665 0.950 . S
C669 C660 1.390 . S
C669 H662 0.950 . S
C669 C666 1.387 . S
C670 C671 1.387 . S
C670 H674 0.950 . S
C670 C679 1.390 . S
C671 C670 1.387 . S
C671 C673 1.387 . S
H672 C679 0.950 . S
C673 C671 1.387 . S
C673 C675 1.390 . S
C673 H677 0.950 . S
H674 C670 0.950 . S
C675 C673 1.390 . S
C675 C676 1.387 . S
C675 H678 0.950 . S
C676 C675 1.387 . S
C676 C679 1.387 . S
H677 C673 0.950 . S
H678 C675 0.950 . S
C679 C670 1.390 . S
C679 H672 0.950 . S
C679 C676 1.387 . S
C680 C681 1.387 . S
C680 H684 0.950 . S
C680 C689 1.390 . S
C681 C680 1.387 . S
C681 C683 1.387 . S
H682 C689 0.950 . S
C683 C681 1.387 . S
C683 C685 1.390 1_554 S
C683 H687 0.950 1_554 S
H684 C680 0.950 . S
C685 C683 1.390 1_556 S
C685 C686 1.387 . S
C685 H688 0.950 . S
C686 C685 1.387 . S
C686 C689 1.387 1_556 S
H687 C683 0.950 1_556 S
H688 C685 0.950 . S
C689 C680 1.390 . S
C689 H682 0.950 . S
C689 C686 1.387 1_554 S
C690 C691 1.387 . S
C690 H694 0.950 . S
C690 C699 1.390 1_554 S
C691 C690 1.387 . S
C691 C693 1.387 1_554 S
H692 C699 0.950 1_554 S
C693 C691 1.387 1_556 S
C693 C695 1.390 . S
C693 H697 0.950 . S
H694 C690 0.950 . S
C695 C693 1.390 . S
C695 C696 1.387 . S
C695 H698 0.950 . S
C696 C695 1.387 . S
C696 C699 1.387 . S
H697 C693 0.950 . S
H698 C695 0.950 . S
C699 C690 1.390 1_556 S
C699 H692 0.950 1_556 S
C699 C696 1.387 . S
C700 C701 1.387 . S
C700 H704 0.950 . S
C700 C709 1.390 . S
C701 C700 1.387 . S
C701 C703 1.387 . S
H702 C709 0.950 . S
C703 C701 1.387 . S
C703 C705 1.390 1_554 S
C703 H707 0.950 1_554 S
H704 C700 0.950 . S
C705 C703 1.390 1_556 S
C705 C706 1.387 . S
C705 H708 0.950 . S
C706 C705 1.387 . S
C706 C709 1.387 1_556 S
H707 C703 0.950 1_556 S
H708 C705 0.950 . S
C709 C700 1.390 . S
C709 H702 0.950 . S
C709 C706 1.387 1_554 S
C710 C711 1.387 . S
C710 H714 0.950 . S
C710 C719 1.390 1_554 S
C711 C710 1.387 . S
C711 C713 1.387 1_554 S
H712 C719 0.948 1_554 S
C713 C711 1.387 1_556 S
C713 C715 1.390 . S
C713 H717 0.950 . S
H714 C710 0.950 . S
C715 C713 1.390 . S
C715 C716 1.387 . S
C715 H718 0.950 . S
C716 C715 1.387 . S
C716 C719 1.387 . S
H717 C713 0.950 . S
H718 C715 0.950 . S
C719 C710 1.390 1_556 S
C719 H712 0.948 1_556 S
C719 C716 1.387 . S
C720 C721 1.387 . S
C720 H724 0.950 . S
C720 C729 1.390 . S
C721 C720 1.387 . S
C721 C723 1.387 . S
H722 C729 0.950 . S
C723 C721 1.387 . S
C723 C725 1.390 . S
C723 H727 0.950 . S
H724 C720 0.950 . S
C725 C723 1.390 . S
C725 C726 1.387 . S
C725 H728 0.950 . S
C726 C725 1.387 . S
C726 C729 1.387 . S
H727 C723 0.950 . S
H728 C725 0.950 . S
C729 C720 1.390 . S
C729 H722 0.950 . S
C729 C726 1.387 . S
C730 C731 1.387 . S
C730 H734 0.950 . S
C730 C739 1.390 . S
C731 C730 1.387 . S
C731 C733 1.387 . S
H732 C739 0.950 . S
C733 C731 1.387 . S
C733 C735 1.390 . S
C733 H737 0.950 . S
H734 C730 0.950 . S
C735 C733 1.390 . S
C735 C736 1.387 . S
C735 H738 0.950 . S
C736 C735 1.387 . S
C736 C739 1.387 . S
H737 C733 0.950 . S
H738 C735 0.950 . S
C739 C730 1.390 . S
C739 H732 0.950 . S
C739 C736 1.387 . S
C740 C741 1.387 . S
C740 H744 0.950 . S
C740 C749 1.390 . S
C741 C740 1.387 . S
C741 C743 1.387 . S
H742 C749 0.950 . S
C743 C741 1.387 . S
C743 C745 1.390 . S
C743 H747 0.950 . S
H744 C740 0.950 . S
C745 C743 1.390 . S
C745 C746 1.387 . S
C745 H748 0.950 . S
C746 C745 1.387 . S
C746 C749 1.387 . S
H747 C743 0.950 . S
H748 C745 0.950 . S
C749 C740 1.390 . S
C749 H742 0.950 . S
C749 C746 1.387 . S
C750 C751 1.387 . S
C750 H754 0.950 . S
C750 C759 1.390 . S
C751 C750 1.387 . S
C751 C753 1.387 . S
H752 C759 0.950 . S
C753 C751 1.387 . S
C753 C755 1.390 . S
C753 H757 0.950 . S
H754 C750 0.950 . S
C755 C753 1.390 . S
C755 C756 1.387 . S
C755 H758 0.950 . S
C756 C755 1.387 . S
C756 C759 1.387 . S
H757 C753 0.950 . S
H758 C755 0.950 . S
C759 C750 1.390 . S
C759 H752 0.950 . S
C759 C756 1.387 . S
C760 C761 1.387 . S
C760 H764 0.950 1_545 S
C760 C769 1.390 . S
C761 C760 1.387 . S
C761 C763 1.387 . S
H762 C769 0.950 . S
C763 C761 1.387 . S
C763 C765 1.390 . S
C763 H767 0.950 . S
H764 C760 0.950 1_565 S
C765 C763 1.390 . S
C765 C766 1.387 . S
C765 H768 0.950 . S
C766 C765 1.387 . S
C766 C769 1.387 . S
H767 C763 0.950 . S
H768 C765 0.950 . S
C769 C760 1.390 . S
C769 H762 0.950 . S
C769 C766 1.387 . S
C770 C771 1.387 . S
C770 H774 0.950 . S
C770 C779 1.390 . S
C771 C770 1.387 . S
C771 C773 1.387 . S
H772 C779 0.950 1_655 S
C773 C771 1.387 . S
C773 C775 1.390 . S
C773 H777 0.950 . S
H774 C770 0.950 . S
C775 C773 1.390 . S
C775 C776 1.387 . S
C775 H778 0.950 . S
C776 C775 1.387 . S
C776 C779 1.387 . S
H777 C773 0.950 . S
H778 C775 0.950 . S
C779 C770 1.390 . S
C779 H772 0.950 1_455 S
C779 C776 1.387 . S
C780 C781 1.387 . S
C780 H784 0.950 . S
C780 C789 1.390 . S
C781 C780 1.387 . S
C781 C783 1.387 . S
H782 C789 0.950 1_545 S
C783 C781 1.387 . S
C783 C785 1.390 . S
C783 H787 0.950 . S
H784 C780 0.950 . S
C785 C783 1.390 . S
C785 C786 1.387 . S
C785 H788 0.950 . S
C786 C785 1.387 . S
C786 C789 1.387 . S
H787 C783 0.950 . S
H788 C785 0.950 . S
C789 C780 1.390 . S
C789 H782 0.950 1_565 S
C789 C786 1.387 . S
C790 C791 1.387 . S
C790 H794 0.950 1_655 S
C790 C799 1.390 . S
C791 C790 1.387 . S
C791 C793 1.387 . S
H792 C799 0.950 . S
C793 C791 1.387 . S
C793 C795 1.390 . S
C793 H797 0.950 . S
H794 C790 0.950 1_455 S
C795 C793 1.390 . S
C795 C796 1.387 . S
C795 H798 0.950 . S
C796 C795 1.387 . S
C796 C799 1.387 . S
H797 C793 0.950 . S
H798 C795 0.950 . S
C799 C790 1.390 . S
C799 H792 0.950 . S
C799 C796 1.387 . S
C800 C801 1.387 . S
C800 H804 0.950 . S
C800 C809 1.390 . S
C801 C800 1.387 . S
C801 C803 1.387 . S
H802 C809 0.950 . S
C803 C801 1.387 . S
C803 C805 1.390 . S
C803 H807 0.950 . S
H804 C800 0.950 . S
C805 C803 1.390 . S
C805 C806 1.387 . S
C805 H808 0.950 . S
C806 C805 1.387 . S
C806 C809 1.387 . S
H807 C803 0.950 . S
H808 C805 0.950 . S
C809 C800 1.390 . S
C809 H802 0.950 . S
C809 C806 1.387 . S
C810 C811 1.387 . S
C810 H814 0.950 . S
C810 C819 1.390 . S
C811 C810 1.387 . S
C811 C813 1.387 . S
H812 C819 0.950 . S
C813 C811 1.387 . S
C813 C815 1.390 . S
C813 H817 0.950 . S
H814 C810 0.950 . S
C815 C813 1.390 . S
C815 C816 1.387 . S
C815 H818 0.950 . S
C816 C815 1.387 . S
C816 C819 1.387 . S
H817 C813 0.950 . S
H818 C815 0.950 . S
C819 C810 1.390 . S
C819 H812 0.950 . S
C819 C816 1.387 . S
C820 C821 1.387 . S
C820 H824 0.950 . S
C820 C829 1.390 . S
C821 C820 1.387 . S
C821 C823 1.387 . S
H822 C829 0.950 . S
C823 C821 1.387 . S
C823 C825 1.390 . S
C823 H827 0.950 . S
H824 C820 0.950 . S
C825 C823 1.390 . S
C825 C826 1.387 . S
C825 H828 0.950 . S
C826 C825 1.387 . S
C826 C829 1.387 . S
H827 C823 0.950 . S
H828 C825 0.950 . S
C829 C820 1.390 . S
C829 H822 0.950 . S
C829 C826 1.387 . S
C830 C831 1.387 . S
C830 H834 0.950 . S
C830 C839 1.390 . S
C831 C830 1.387 . S
C831 C833 1.387 . S
H832 C839 0.950 . S
C833 C831 1.387 . S
C833 C835 1.390 . S
C833 H837 0.950 . S
H834 C830 0.950 . S
C835 C833 1.390 . S
C835 C836 1.387 . S
C835 H838 0.950 . S
C836 C835 1.387 . S
C836 C839 1.387 . S
H837 C833 0.950 . S
H838 C835 0.950 . S
C839 C830 1.390 . S
C839 H832 0.950 . S
C839 C836 1.387 . S
C840 C841 1.387 . S
C840 H844 0.950 . S
C840 C849 1.390 . S
C841 C840 1.387 . S
C841 C843 1.387 . S
H842 C849 0.950 . S
C843 C841 1.387 . S
C843 C845 1.390 . S
C843 H847 0.950 . S
H844 C840 0.950 . S
C845 C843 1.390 . S
C845 C846 1.387 . S
C845 H848 0.950 . S
C846 C845 1.387 . S
C846 C849 1.387 . S
H847 C843 0.950 . S
H848 C845 0.950 . S
C849 C840 1.390 . S
C849 H842 0.950 . S
C849 C846 1.387 . S
C850 C851 1.387 . S
C850 H854 0.950 . S
C850 C859 1.390 . S
C851 C850 1.387 . S
C851 C853 1.387 . S
H852 C859 0.950 . S
C853 C851 1.387 . S
C853 C855 1.390 . S
C853 H857 0.950 . S
H854 C850 0.950 . S
C855 C853 1.390 . S
C855 C856 1.387 . S
C855 H858 0.950 . S
C856 C855 1.387 . S
C856 C859 1.387 . S
H857 C853 0.950 . S
H858 C855 0.950 . S
C859 C850 1.390 . S
C859 H852 0.950 . S
C859 C856 1.387 . S
C860 C861 1.387 . S
C860 H864 0.950 . S
C860 C869 1.390 . S
C861 C860 1.387 . S
C861 C863 1.387 . S
H862 C869 0.950 . S
C863 C861 1.387 . S
C863 C865 1.390 . S
C863 H867 0.950 . S
H864 C860 0.950 . S
C865 C863 1.390 . S
C865 C866 1.387 . S
C865 H868 0.950 . S
C866 C865 1.387 . S
C866 C869 1.387 . S
H867 C863 0.950 . S
H868 C865 0.950 . S
C869 C860 1.390 . S
C869 H862 0.950 . S
C869 C866 1.387 . S
C870 C871 1.387 . S
C870 H874 0.950 . S
C870 C879 1.390 . S
C871 C870 1.387 . S
C871 C873 1.387 . S
H872 C879 0.950 . S
C873 C871 1.387 . S
C873 C875 1.390 . S
C873 H877 0.950 . S
H874 C870 0.950 . S
C875 C873 1.390 . S
C875 C876 1.387 . S
C875 H878 0.950 . S
C876 C875 1.387 . S
C876 C879 1.387 . S
H877 C873 0.950 . S
H878 C875 0.950 . S
C879 C870 1.390 . S
C879 H872 0.950 . S
C879 C876 1.387 . S
C880 C881 1.387 . S
C880 H884 0.950 . S
C880 C889 1.390 . S
C881 C880 1.387 . S
C881 C883 1.387 . S
H882 C889 0.950 . S
C883 C881 1.387 . S
C883 C885 1.390 . S
C883 H887 0.950 . S
H884 C880 0.950 . S
C885 C883 1.390 . S
C885 C886 1.387 . S
C885 H888 0.950 . S
C886 C885 1.387 . S
C886 C889 1.387 . S
H887 C883 0.950 . S
H888 C885 0.950 . S
C889 C880 1.390 . S
C889 H882 0.950 . S
C889 C886 1.387 . S
C890 C891 1.387 . S
C890 H894 0.950 . S
C890 C899 1.390 . S
C891 C890 1.387 . S
C891 C893 1.387 . S
H892 C899 0.950 . S
C893 C891 1.387 . S
C893 C895 1.390 . S
C893 H897 0.950 . S
H894 C890 0.950 . S
C895 C893 1.390 . S
C895 C896 1.387 . S
C895 H898 0.950 . S
C896 C895 1.387 . S
C896 C899 1.387 . S
H897 C893 0.950 . S
H898 C895 0.950 . S
C899 C890 1.390 . S
C899 H892 0.950 . S
C899 C896 1.387 . S
C900 C901 1.387 . S
C900 H904 0.950 . S
C900 C909 1.390 . S
C901 C900 1.387 . S
C901 C903 1.387 . S
H902 C909 0.950 . S
C903 C901 1.387 . S
C903 C905 1.390 . S
C903 H907 0.950 . S
H904 C900 0.950 . S
C905 C903 1.390 . S
C905 C906 1.387 . S
C905 H908 0.950 . S
C906 C905 1.387 . S
C906 C909 1.387 . S
H907 C903 0.950 . S
H908 C905 0.950 . S
C909 C900 1.390 . S
C909 H902 0.950 . S
C909 C906 1.387 . S
C910 C911 1.387 . S
C910 H914 0.950 . S
C910 C919 1.390 . S
C911 C910 1.387 . S
C911 C913 1.387 . S
H912 C919 0.950 . S
C913 C911 1.387 . S
C913 C915 1.390 . S
C913 H917 0.950 . S
H914 C910 0.950 . S
C915 C913 1.390 . S
C915 C916 1.387 . S
C915 H918 0.950 . S
C916 C915 1.387 . S
C916 C919 1.387 . S
H917 C913 0.950 . S
H918 C915 0.950 . S
C919 C910 1.390 . S
C919 H912 0.950 . S
C919 C916 1.387 . S
C920 C921 1.387 . S
C920 H924 0.950 . S
C920 C929 1.390 . S
C921 C920 1.387 . S
C921 C923 1.387 . S
H922 C929 0.950 . S
C923 C921 1.387 . S
C923 C925 1.390 . S
C923 H927 0.950 . S
H924 C920 0.950 . S
C925 C923 1.390 . S
C925 C926 1.387 . S
C925 H928 0.950 . S
C926 C925 1.387 . S
C926 C929 1.387 . S
H927 C923 0.950 . S
H928 C925 0.950 . S
C929 C920 1.390 . S
C929 H922 0.950 . S
C929 C926 1.387 . S
C930 C931 1.387 . S
C930 H934 0.950 . S
C930 C939 1.390 . S
C931 C930 1.387 . S
C931 C933 1.387 . S
H932 C939 0.950 . S
C933 C931 1.387 . S
C933 C935 1.390 . S
C933 H937 0.950 . S
H934 C930 0.950 . S
C935 C933 1.390 . S
C935 C936 1.387 . S
C935 H938 0.950 . S
C936 C935 1.387 . S
C936 C939 1.387 . S
H937 C933 0.950 . S
H938 C935 0.950 . S
C939 C930 1.390 . S
C939 H932 0.950 . S
C939 C936 1.387 . S
C940 C941 1.387 . S
C940 H944 0.950 . S
C940 C949 1.390 . S
C941 C940 1.387 . S
C941 C943 1.387 . S
H942 C949 0.950 . S
C943 C941 1.387 . S
C943 C945 1.390 . S
C943 H947 0.950 . S
H944 C940 0.950 . S
C945 C943 1.390 . S
C945 C946 1.387 . S
C945 H948 0.950 . S
C946 C945 1.387 . S
C946 C949 1.387 . S
H947 C943 0.950 . S
H948 C945 0.950 . S
C949 C940 1.390 . S
C949 H942 0.950 . S
C949 C946 1.387 . S
C950 C951 1.387 . S
C950 H954 0.950 . S
C950 C959 1.390 . S
C951 C950 1.387 . S
C951 C953 1.387 . S
H952 C959 0.950 . S
C953 C951 1.387 . S
C953 C955 1.390 . S
C953 H957 0.950 . S
H954 C950 0.950 . S
C955 C953 1.390 . S
C955 C956 1.387 . S
C955 H958 0.950 . S
C956 C955 1.387 . S
C956 C959 1.387 . S
H957 C953 0.950 . S
H958 C955 0.950 . S
C959 C950 1.390 . S
C959 H952 0.950 . S
C959 C956 1.387 . S
C960 C961 1.387 . S
C960 H964 0.950 . S
C960 C969 1.390 . S
C961 C960 1.387 . S
C961 C963 1.387 . S
H962 C969 0.950 . S
C963 C961 1.387 . S
C963 C965 1.390 . S
C963 H967 0.950 . S
H964 C960 0.950 . S
C965 C963 1.390 . S
C965 C966 1.387 . S
C965 H968 0.950 . S
C966 C965 1.387 . S
C966 C969 1.387 . S
H967 C963 0.950 . S
H968 C965 0.950 . S
C969 C960 1.390 . S
C969 H962 0.950 . S
C969 C966 1.387 . S
C970 C971 1.387 . S
C970 H974 0.950 . S
C970 C979 1.390 . S
C971 C970 1.387 . S
C971 C973 1.387 . S
H972 C979 0.950 . S
C973 C971 1.387 . S
C973 C975 1.390 . S
C973 H977 0.950 . S
H974 C970 0.950 . S
C975 C973 1.390 . S
C975 C976 1.387 . S
C975 H978 0.950 . S
C976 C975 1.387 . S
C976 C979 1.387 . S
H977 C973 0.950 . S
H978 C975 0.950 . S
C979 C970 1.390 . S
C979 H972 0.950 . S
C979 C976 1.387 . S
C980 C981 1.387 . S
C980 H984 0.950 . S
C980 C989 1.390 . S
C981 C980 1.387 . S
C981 C983 1.387 . S
H982 C989 0.950 . S
C983 C981 1.387 . S
C983 C985 1.390 . S
C983 H987 0.950 . S
H984 C980 0.950 . S
C985 C983 1.390 . S
C985 C986 1.387 . S
C985 H988 0.950 . S
C986 C985 1.387 . S
C986 C989 1.387 . S
H987 C983 0.950 . S
H988 C985 0.950 . S
C989 C980 1.390 . S
C989 H982 0.950 . S
C989 C986 1.387 . S
C990 C991 1.387 . S
C990 H994 0.950 . S
C990 C999 1.390 . S
C991 C990 1.387 . S
C991 C993 1.387 . S
H992 C999 0.950 . S
C993 C991 1.387 . S
C993 C995 1.390 . S
C993 H997 0.950 . S
H994 C990 0.950 . S
C995 C993 1.390 . S
C995 C996 1.387 . S
C995 H998 0.950 . S
C996 C995 1.387 . S
C996 C999 1.387 . S
H997 C993 0.950 . S
H998 C995 0.950 . S
C999 C990 1.390 . S
C999 H992 0.950 . S
C999 C996 1.387 . S
C1000 C1001 1.387 . S
C1000 H1004 0.950 . S
C1000 C1009 1.390 . S
C1001 C1000 1.387 . S
C1001 C1003 1.387 . S
H1002 C1009 0.950 . S
C1003 C1001 1.387 . S
C1003 C1005 1.390 . S
C1003 H1007 0.950 . S
H1004 C1000 0.950 . S
C1005 C1003 1.390 . S
C1005 C1006 1.387 . S
C1005 H1008 0.950 . S
C1006 C1005 1.387 . S
C1006 C1009 1.387 . S
H1007 C1003 0.950 . S
H1008 C1005 0.950 . S
C1009 C1000 1.390 . S
C1009 H1002 0.950 . S
C1009 C1006 1.387 . S
C1010 C1011 1.387 . S
C1010 H1014 0.950 . S
C1010 C1019 1.390 . S
C1011 C1010 1.387 . S
C1011 C1013 1.387 . S
H1012 C1019 0.950 . S
C1013 C1011 1.387 . S
C1013 C1015 1.390 . S
C1013 H1017 0.950 . S
H1014 C1010 0.950 . S
C1015 C1013 1.390 . S
C1015 C1016 1.387 . S
C1015 H1018 0.950 . S
C1016 C1015 1.387 . S
C1016 C1019 1.387 . S
H1017 C1013 0.950 . S
H1018 C1015 0.950 . S
C1019 C1010 1.390 . S
C1019 H1012 0.950 . S
C1019 C1016 1.387 . S
C1020 C1021 1.387 . S
C1020 H1024 0.950 . S
C1020 C1029 1.390 . S
C1021 C1020 1.387 . S
C1021 C1023 1.387 . S
H1022 C1029 0.950 . S
C1023 C1021 1.387 . S
C1023 C1025 1.390 . S
C1023 H1027 0.950 . S
H1024 C1020 0.950 . S
C1025 C1023 1.390 . S
C1025 C1026 1.387 . S
C1025 H1028 0.950 . S
C1026 C1025 1.387 . S
C1026 C1029 1.387 . S
H1027 C1023 0.950 . S
H1028 C1025 0.950 . S
C1029 C1020 1.390 . S
C1029 H1022 0.950 . S
C1029 C1026 1.387 . S
C1030 C1031 1.387 . S
C1030 H1034 0.950 . S
C1030 C1039 1.390 . S
C1031 C1030 1.387 . S
C1031 C1033 1.387 . S
H1032 C1039 0.950 . S
C1033 C1031 1.387 . S
C1033 C1035 1.390 . S
C1033 H1037 0.950 . S
H1034 C1030 0.950 . S
C1035 C1033 1.390 . S
C1035 C1036 1.387 . S
C1035 H1038 0.950 . S
C1036 C1035 1.387 . S
C1036 C1039 1.387 . S
H1037 C1033 0.950 . S
H1038 C1035 0.950 . S
C1039 C1030 1.390 . S
C1039 H1032 0.950 . S
C1039 C1036 1.387 . S
C1040 C1041 1.387 . S
C1040 H1044 0.950 . S
C1040 C1049 1.390 . S
C1041 C1040 1.387 . S
C1041 C1043 1.387 . S
H1042 C1049 0.950 . S
C1043 C1041 1.387 . S
C1043 C1045 1.390 . S
C1043 H1047 0.950 . S
H1044 C1040 0.950 . S
C1045 C1043 1.390 . S
C1045 C1046 1.387 . S
C1045 H1048 0.950 . S
C1046 C1045 1.387 . S
C1046 C1049 1.387 . S
H1047 C1043 0.950 . S
H1048 C1045 0.950 . S
C1049 C1040 1.390 . S
C1049 H1042 0.950 . S
C1049 C1046 1.387 . S
C1050 C1051 1.387 . S
C1050 H1054 0.950 . S
C1050 C1059 1.390 . S
C1051 C1050 1.387 . S
C1051 C1053 1.387 . S
H1052 C1059 0.950 . S
C1053 C1051 1.387 . S
C1053 C1055 1.390 . S
C1053 H1057 0.950 . S
H1054 C1050 0.950 . S
C1055 C1053 1.390 . S
C1055 C1056 1.387 . S
C1055 H1058 0.950 . S
C1056 C1055 1.387 . S
C1056 C1059 1.387 . S
H1057 C1053 0.950 . S
H1058 C1055 0.950 . S
C1059 C1050 1.390 . S
C1059 H1052 0.950 . S
C1059 C1056 1.387 . S
C1060 C1061 1.387 . S
C1060 H1064 0.950 . S
C1060 C1069 1.390 . S
C1061 C1060 1.387 . S
C1061 C1063 1.387 . S
H1062 C1069 0.950 . S
C1063 C1061 1.387 . S
C1063 C1065 1.390 . S
C1063 H1067 0.950 . S
H1064 C1060 0.950 . S
C1065 C1063 1.390 . S
C1065 C1066 1.387 . S
C1065 H1068 0.950 . S
C1066 C1065 1.387 . S
C1066 C1069 1.387 . S
H1067 C1063 0.950 . S
H1068 C1065 0.950 . S
C1069 C1060 1.390 . S
C1069 H1062 0.950 . S
C1069 C1066 1.387 . S
C1070 C1071 1.387 . S
C1070 H1074 0.950 . S
C1070 C1079 1.390 . S
C1071 C1070 1.387 . S
C1071 C1073 1.387 . S
H1072 C1079 0.950 . S
C1073 C1071 1.387 . S
C1073 C1075 1.390 . S
C1073 H1077 0.950 . S
H1074 C1070 0.950 . S
C1075 C1073 1.390 . S
C1075 C1076 1.387 . S
C1075 H1078 0.950 . S
C1076 C1075 1.387 . S
C1076 C1079 1.387 . S
H1077 C1073 0.950 . S
H1078 C1075 0.950 . S
C1079 C1070 1.390 . S
C1079 H1072 0.950 . S
C1079 C1076 1.387 . S
C1080 C1081 1.387 . S
C1080 H1084 0.950 . S
C1080 C1089 1.390 . S
C1081 C1080 1.387 . S
C1081 C1083 1.387 . S
H1082 C1089 0.950 . S
C1083 C1081 1.387 . S
C1083 C1085 1.390 . S
C1083 H1087 0.950 . S
H1084 C1080 0.950 . S
C1085 C1083 1.390 . S
C1085 C1086 1.387 . S
C1085 H1088 0.950 . S
C1086 C1085 1.387 . S
C1086 C1089 1.387 . S
H1087 C1083 0.950 . S
H1088 C1085 0.950 . S
C1089 C1080 1.390 . S
C1089 H1082 0.950 . S
C1089 C1086 1.387 . S
C1090 C1091 1.387 . S
C1090 H1094 0.950 . S
C1090 C1099 1.390 . S
C1091 C1090 1.387 . S
C1091 C1093 1.387 . S
H1092 C1099 0.950 . S
C1093 C1091 1.387 . S
C1093 C1095 1.390 . S
C1093 H1097 0.950 . S
H1094 C1090 0.950 . S
C1095 C1093 1.390 . S
C1095 C1096 1.387 . S
C1095 H1098 0.950 . S
C1096 C1095 1.387 . S
C1096 C1099 1.387 . S
H1097 C1093 0.950 . S
H1098 C1095 0.950 . S
C1099 C1090 1.390 . S
C1099 H1092 0.950 . S
C1099 C1096 1.387 . S
C1100 C1101 1.387 . S
C1100 H1104 0.950 . S
C1100 C1109 1.390 . S
C1101 C1100 1.387 . S
C1101 C1103 1.387 . S
H1102 C1109 0.950 . S
C1103 C1101 1.387 . S
C1103 C1105 1.390 . S
C1103 H1107 0.950 . S
H1104 C1100 0.950 . S
C1105 C1103 1.390 . S
C1105 C1106 1.387 . S
C1105 H1108 0.950 . S
C1106 C1105 1.387 . S
C1106 C1109 1.387 . S
H1107 C1103 0.950 . S
H1108 C1105 0.950 . S
C1109 C1100 1.390 . S
C1109 H1102 0.950 . S
C1109 C1106 1.387 . S
C1110 C1111 1.387 . S
C1110 H1114 0.950 . S
C1110 C1119 1.390 . S
C1111 C1110 1.387 . S
C1111 C1113 1.387 . S
H1112 C1119 0.950 . S
C1113 C1111 1.387 . S
C1113 C1115 1.390 . S
C1113 H1117 0.950 . S
H1114 C1110 0.950 . S
C1115 C1113 1.390 . S
C1115 C1116 1.387 . S
C1115 H1118 0.950 . S
C1116 C1115 1.387 . S
C1116 C1119 1.387 . S
H1117 C1113 0.950 . S
H1118 C1115 0.950 . S
C1119 C1110 1.390 . S
C1119 H1112 0.950 . S
C1119 C1116 1.387 . S
C641 C464 1.748 . S
C646 C23 1.745 1_565 S
C651 C333 1.749 . S
C656 C42 1.746 1_655 S
C661 C103 1.745 1_545 S
C666 C384 1.748 . S
C671 C122 1.746 1_455 S
C676 C413 1.749 . S
C681 C183 1.747 . S
C686 C224 1.749 . S
C691 C253 1.749 . S
C696 C202 1.746 . S
C701 C263 1.747 . S
C706 C304 1.749 . S
C711 C173 1.749 . S
C716 C282 1.746 . S
C721 C144 1.748 . S
C726 C343 1.745 . S
C731 C362 1.747 . S
C736 C13 1.749 . S
C741 C64 1.749 . S
C746 C423 1.747 . S
C751 C93 1.748 . S
C756 C442 1.745 . S
C761 C503 1.745 1_545 S
C766 C544 1.748 . S
C771 C573 1.749 . S
C776 C522 1.747 1_455 S
C781 C624 1.748 . S
C786 C583 1.745 1_565 S
C791 C602 1.747 1_655 S
C796 C493 1.749 . S
C801 C2 1.241 . S
C806 C162 1.241 . S
C811 C223 1.235 . S
C816 C63 1.235 . S
C821 C82 1.241 . S
C826 C242 1.241 . S
C831 C143 1.241 . S
C836 C303 1.241 . S
C841 C322 1.241 . S
C846 C482 1.241 . S
C851 C543 1.235 . S
C856 C383 1.235 . S
C861 C402 1.235 . S
C866 C562 1.235 . S
C871 C463 1.235 . S
C876 C623 1.235 . S
C881 C584 2.617 . S
C886 C24 2.617 1_556 S
C891 C53 2.619 1_554 S
C896 C613 2.619 . S
C901 C104 2.617 1_556 S
C906 C504 2.617 . S
C911 C133 2.619 1_554 S
C916 C533 2.619 . S
C921 C184 2.619 . S
C926 C424 2.619 . S
C931 C213 2.617 . S
C936 C453 2.617 . S
C941 C264 2.617 . S
C946 C344 2.617 . S
C951 C373 2.619 . S
C956 C293 2.619 . S
C961 C26 1.348 . S
C966 C17 1.348 . S
C971 C57 1.348 . S
C976 C66 1.348 . S
C981 C106 1.348 . S
C986 C97 1.348 . S
C991 C146 1.348 . S
C996 C137 1.348 . S
C1001 C177 1.348 . S
C1006 C186 1.348 . S
C1011 C217 1.343 . S
C1016 C226 1.343 . S
C1021 C266 1.348 . S
C1026 C257 1.348 . S
C1031 C306 1.343 . S
C1036 C297 1.343 . S
C1041 C346 1.343 . S
C1046 C337 1.343 . S
C1051 C386 1.346 . S
C1056 C377 1.346 . S
C1061 C417 1.343 . S
C1066 C426 1.343 . S
C1071 C457 1.348 . S
C1076 C466 1.348 . S
C1081 C506 1.346 . S
C1086 C497 1.346 . S
C1091 C546 1.348 . S
C1096 C537 1.348 . S
C1101 C577 1.343 . S
C1106 C586 1.343 . S
C1111 C617 1.348 . S
C1116 C626 1.348 . S
