# Generated by pormake.
# Topology wme, (6)-cn, num edge types: 1
# Building blocks:
#     Node 0, Type 0, BuildingBlock: KUMBOL_clean_sbu_0, # of connection points: 6
#     Node 1, Type 0, BuildingBlock: KUMBOL_clean_sbu_0, # of connection points: 6
#     Node 2, Type 0, BuildingBlock: KUMBOL_clean_sbu_0, # of connection points: 6
#     Node 3, Type 0, BuildingBlock: KUMBOL_clean_sbu_0, # of connection points: 6
#     Node 4, Type 0, BuildingBlock: KUMBOL_clean_sbu_0, # of connection points: 6
#     Node 5, Type 0, BuildingBlock: KUMBOL_clean_sbu_0, # of connection points: 6
#     Node 6, Type 0, BuildingBlock: KUMBOL_clean_sbu_0, # of connection points: 6
#     Node 7, Type 0, BuildingBlock: KUMBOL_clean_sbu_0, # of connection points: 6
#     Node 8, Type 0, BuildingBlock: KUMBOL_clean_sbu_0, # of connection points: 6
#     Node 9, Type 0, BuildingBlock: KUMBOL_clean_sbu_0, # of connection points: 6
#     Node 10, Type 0, BuildingBlock: KUMBOL_clean_sbu_0, # of connection points: 6
#     Node 11, Type 0, BuildingBlock: KUMBOL_clean_sbu_0, # of connection points: 6
#     Edge 12, Type (0, 0), BuildingBlock: XIVTED_clean_linker_0, # of connection points: 2
#     Edge 13, Type (0, 0), BuildingBlock: XIVTED_clean_linker_0, # of connection points: 2
#     Edge 14, Type (0, 0), BuildingBlock: XIVTED_clean_linker_0, # of connection points: 2
#     Edge 15, Type (0, 0), BuildingBlock: XIVTED_clean_linker_0, # of connection points: 2
#     Edge 16, Type (0, 0), BuildingBlock: XIVTED_clean_linker_0, # of connection points: 2
#     Edge 17, Type (0, 0), BuildingBlock: XIVTED_clean_linker_0, # of connection points: 2
#     Edge 18, Type (0, 0), BuildingBlock: XIVTED_clean_linker_0, # of connection points: 2
#     Edge 19, Type (0, 0), BuildingBlock: XIVTED_clean_linker_0, # of connection points: 2
#     Edge 20, Type (0, 0), BuildingBlock: XIVTED_clean_linker_0, # of connection points: 2
#     Edge 21, Type (0, 0), BuildingBlock: XIVTED_clean_linker_0, # of connection points: 2
#     Edge 22, Type (0, 0), BuildingBlock: XIVTED_clean_linker_0, # of connection points: 2
#     Edge 23, Type (0, 0), BuildingBlock: XIVTED_clean_linker_0, # of connection points: 2
#     Edge 24, Type (0, 0), BuildingBlock: XIVTED_clean_linker_0, # of connection points: 2
#     Edge 25, Type (0, 0), BuildingBlock: XIVTED_clean_linker_0, # of connection points: 2
#     Edge 26, Type (0, 0), BuildingBlock: XIVTED_clean_linker_0, # of connection points: 2
#     Edge 27, Type (0, 0), BuildingBlock: XIVTED_clean_linker_0, # of connection points: 2
#     Edge 28, Type (0, 0), BuildingBlock: XIVTED_clean_linker_0, # of connection points: 2
#     Edge 29, Type (0, 0), BuildingBlock: XIVTED_clean_linker_0, # of connection points: 2
#     Edge 30, Type (0, 0), BuildingBlock: XIVTED_clean_linker_0, # of connection points: 2
#     Edge 31, Type (0, 0), BuildingBlock: XIVTED_clean_linker_0, # of connection points: 2
#     Edge 32, Type (0, 0), BuildingBlock: XIVTED_clean_linker_0, # of connection points: 2
#     Edge 33, Type (0, 0), BuildingBlock: XIVTED_clean_linker_0, # of connection points: 2
#     Edge 34, Type (0, 0), BuildingBlock: XIVTED_clean_linker_0, # of connection points: 2
#     Edge 35, Type (0, 0), BuildingBlock: XIVTED_clean_linker_0, # of connection points: 2
#     Edge 36, Type (0, 0), BuildingBlock: XIVTED_clean_linker_0, # of connection points: 2
#     Edge 37, Type (0, 0), BuildingBlock: XIVTED_clean_linker_0, # of connection points: 2
#     Edge 38, Type (0, 0), BuildingBlock: XIVTED_clean_linker_0, # of connection points: 2
#     Edge 39, Type (0, 0), BuildingBlock: XIVTED_clean_linker_0, # of connection points: 2
#     Edge 40, Type (0, 0), BuildingBlock: XIVTED_clean_linker_0, # of connection points: 2
#     Edge 41, Type (0, 0), BuildingBlock: XIVTED_clean_linker_0, # of connection points: 2
#     Edge 42, Type (0, 0), BuildingBlock: XIVTED_clean_linker_0, # of connection points: 2
#     Edge 43, Type (0, 0), BuildingBlock: XIVTED_clean_linker_0, # of connection points: 2
#     Edge 44, Type (0, 0), BuildingBlock: XIVTED_clean_linker_0, # of connection points: 2
#     Edge 45, Type (0, 0), BuildingBlock: XIVTED_clean_linker_0, # of connection points: 2
#     Edge 46, Type (0, 0), BuildingBlock: XIVTED_clean_linker_0, # of connection points: 2
#     Edge 47, Type (0, 0), BuildingBlock: XIVTED_clean_linker_0, # of connection points: 2
# Relax obj value: 0.094
# Max RMSD: 0.208
# Mean RMSD: 0.208
data_MOF--net-wme--node1-KUMBOL_clean_sbu_0--edge1-XIVTED_clean_linker_0
_symmetry_space_group_name_H-M    P1
_symmetry_Int_Tables_number       1
_symmetry_cell_setting            triclinic
loop_
_symmetry_equiv_pos_as_xyz
'x, y, z'
_cell_length_a     38.421297
_cell_length_b     38.422771
_cell_length_c     54.973187
_cell_angle_alpha  90.074277
_cell_angle_beta   89.959355
_cell_angle_gamma 120.036
loop_
_atom_site_label
_atom_site_type_symbol
_atom_site_fract_x
_atom_site_fract_y
_atom_site_fract_z
_atom_type_partial_charge
Gd0 Gd 0.26295 0.32776 0.13434 0.0
Gd1 Gd 0.20786 0.37234 0.10397 0.0
C2 C 0.07414 0.29749 0.08559 0.0
C3 C 0.07532 0.29164 0.04162 0.0
C4 C 0.13774 0.32908 0.06426 0.0
C5 C 0.11656 0.31925 0.08583 0.0
C6 C 0.11734 0.31636 0.04184 0.0
C7 C 0.05372 0.28235 0.06348 0.0
C8 C 0.05355 0.29372 0.10731 0.0
C9 C 0.07525 0.31279 0.12827 0.0
N10 N 0.13726 0.33514 0.10676 0.0
C11 C 0.1173 0.33388 0.1276 0.0
H12 H 0.13365 0.34853 0.14392 0.0
C13 C 0.19936 0.37068 0.04424 0.0
N14 N 0.178 0.35442 0.06515 0.0
C15 C 0.18065 0.35842 0.02154 0.0
C16 C 0.13955 0.3306 0.02032 0.0
H17 H 0.23121 0.39208 0.04515 0.0
H18 H 1.02117 0.26494 0.06299 0.0
H19 H 0.34316 0.36748 0.09698 0.0
H20 H 1.02099 0.27744 0.10788 0.0
H21 H 0.05964 0.31113 0.14501 0.0
H22 H 0.05913 0.28115 0.02459 0.0
H23 H 0.23101 0.29808 0.1917 0.0
H24 H 0.44962 0.43034 0.13989 0.0
H25 H 0.41663 0.40918 0.09971 0.0
H26 H 0.4004 0.39928 0.22168 0.0
H27 H 0.19792 0.37047 0.00503 0.0
H28 H 0.12502 0.32149 0.00272 0.0
H29 H 0.44325 0.42661 0.18541 0.0
H30 H 0.25889 0.31042 0.23304 0.0
N31 N 0.33379 0.36583 0.13526 0.0
C32 C 0.41718 0.41205 0.13882 0.0
C33 C 0.39869 0.40009 0.11613 0.0
C34 C 0.39365 0.39918 0.15989 0.0
C35 C 0.35152 0.37555 0.15746 0.0
C36 C 0.35682 0.37638 0.11469 0.0
N37 N 0.28735 0.33634 0.17458 0.0
C38 C 0.32755 0.36011 0.17779 0.0
C39 C 0.27856 0.32466 0.21766 0.0
C40 C 0.31968 0.35021 0.22129 0.0
C41 C 0.26286 0.31772 0.19407 0.0
C42 C 0.34483 0.36797 0.20122 0.0
H43 H 0.33176 0.35554 0.23959 0.0
O44 O 0.2362 0.2641 0.14267 0.0
O45 O 0.20402 0.31751 0.11989 0.0
O46 O 0.20666 0.37452 0.14612 0.0
O47 O 0.26418 0.37399 0.1594 0.0
O48 O 0.20237 0.28942 0.15222 0.0
O49 O 0.28543 0.29182 0.11714 0.0
O50 O 0.21878 0.42876 0.0876 0.0
O51 O 0.26622 0.38281 0.11831 0.0
O52 O 0.27131 0.33159 0.09383 0.0
O53 O 0.21429 0.32906 0.07765 0.0
O54 O 0.26883 0.414 0.08735 0.0
O55 O 0.19513 0.41367 0.12398 0.0
C56 C 0.18083 0.29419 0.13617 0.0
C57 C 0.3866 0.39267 0.20383 0.0
C58 C 0.41098 0.40827 0.18319 0.0
C59 C 0.26068 0.25902 0.12875 0.0
C60 C 0.27724 0.23499 0.13911 0.0
C61 C 0.31291 0.25342 0.15267 0.0
C62 C 0.25629 0.19285 0.1361 0.0
C63 C 0.27064 0.16908 0.14684 0.0
C64 C 0.32758 0.23018 0.16307 0.0
C65 C 0.30667 0.18841 0.16026 0.0
C66 C 0.23431 0.38107 0.16304 0.0
C67 C 0.2902 0.40842 0.10321 0.0
C68 C 0.20421 0.43884 0.106 0.0
C69 C 0.17437 0.45163 0.10053 0.0
C70 C 0.13675 0.42367 0.09095 0.0
C71 C 0.18235 0.49113 0.10565 0.0
C72 C 0.15225 0.50162 0.10191 0.0
C73 C 0.10704 0.43385 0.0874 0.0
C74 C 0.11455 0.47238 0.09302 0.0
C75 C 0.24488 0.32204 0.07616 0.0
H76 H 0.32927 0.2857 0.15529 0.0
H77 H 0.22836 0.17857 0.12594 0.0
H78 H 0.3552 0.24458 0.17347 0.0
H79 H 0.31887 0.1712 0.1685 0.0
H80 H 0.13019 0.39384 0.08624 0.0
H81 H 0.21146 0.51332 0.11272 0.0
H82 H 0.07805 0.41175 0.08017 0.0
H83 H 0.09111 0.47971 0.08985 0.0
Gd84 Gd 0.94288 0.24795 0.62971 0.0
Gd85 Gd 0.842 0.18999 0.60057 0.0
C86 C 0.78001 0.05514 0.58421 0.0
C87 C 0.78382 0.05419 0.54012 0.0
C88 C 0.81169 0.11777 0.56188 0.0
C89 C 0.80087 0.09758 0.58375 0.0
C90 C 0.80198 0.09628 0.53975 0.0
C91 C 0.77282 0.03363 0.56235 0.0
C92 C 0.76541 0.03561 0.60647 0.0
C93 C 0.77058 0.05833 0.62738 0.0
N94 N 0.80779 0.11933 0.60445 0.0
C95 C 0.79158 0.10033 0.62599 0.0
H96 H 0.79531 0.11741 0.64232 0.0
C97 C 0.83133 0.1786 0.54114 0.0
N98 N 0.82794 0.15825 0.56222 0.0
C99 C 0.82271 0.15878 0.5187 0.0
C100 C 0.80876 0.11754 0.51796 0.0
H101 H 0.84185 0.21046 0.54164 0.0
H102 H 0.75738 1.00107 0.56237 0.0
H103 H 0.98144 0.32227 0.58823 0.0
H104 H 0.74922 1.00309 0.60761 0.0
H105 H 0.75863 0.04355 0.64462 0.0
H106 H 0.77661 0.03718 0.52332 0.0
H107 H 0.9423 0.22413 0.68834 0.0
H108 H 1.02548 0.4344 0.6253 0.0
H109 H 1.01285 0.3959 0.58706 0.0
H110 H 1.00939 0.39694 0.70947 0.0
H111 H 0.82669 0.17529 0.50202 0.0
H112 H 0.80167 0.10215 0.50058 0.0
H113 H 1.02384 0.43448 0.67102 0.0
H114 H 0.95841 0.25766 0.72837 0.0
N115 N 0.97501 0.31849 0.62678 0.0
C116 C 1.01157 0.40196 0.62595 0.0
C117 C 1.00459 0.38035 0.60434 0.0
C118 C 1.0016 0.38153 0.64818 0.0
C119 C 0.98339 0.33926 0.64798 0.0
C120 C 0.98672 0.33847 0.60511 0.0
N121 N 0.95937 0.27786 0.6685 0.0
C122 C 0.97543 0.31828 0.66955 0.0
C123 C 0.96332 0.27509 0.71197 0.0
C124 C 0.97844 0.3165 0.7134 0.0
C125 C 0.95431 0.2562 0.68923 0.0
C126 C 0.98517 0.33874 0.69202 0.0
H127 H 0.98542 0.33107 0.73104 0.0
O128 O 0.98138 0.2248 0.64176 0.0
O129 O 0.89405 0.18822 0.61678 0.0
O130 O 0.84056 0.19049 0.64258 0.0
O131 O 0.89774 0.24982 0.65462 0.0
O132 O 0.92212 0.18879 0.64901 0.0
O133 O 1.00058 0.26774 0.61226 0.0
O134 O 0.80143 0.2098 0.58711 0.0
O135 O 0.89019 0.24952 0.61387 0.0
O136 O 0.94746 0.2498 0.58881 0.0
O137 O 0.88964 0.19366 0.57376 0.0
O138 O 0.86224 0.24932 0.58185 0.0
O139 O 0.78395 0.17054 0.61809 0.0
C140 C 0.89546 0.16616 0.63335 0.0
C141 C 1.00195 0.38068 0.69239 0.0
C142 C 1.01015 0.40205 0.6705 0.0
C143 C 1.00984 0.24615 0.62627 0.0
C144 C 0.05133 0.26536 0.63563 0.0
C145 C 0.06861 0.30301 0.64704 0.0
C146 C 0.07363 0.24536 0.63361 0.0
C147 C 0.11291 0.2627 0.64322 0.0
C148 C 0.10761 0.32058 0.65628 0.0
C149 C 0.12958 0.30067 0.65446 0.0
C150 C 0.86163 0.21896 0.65903 0.0
C151 C 0.88892 0.27203 0.59754 0.0
C152 C 0.77244 0.18776 0.60217 0.0
C153 C 0.73192 0.16241 0.59122 0.0
C154 C 0.72815 0.13948 0.5705 0.0
C155 C 0.69703 0.16127 0.60082 0.0
C156 C 0.65891 0.1374 0.58954 0.0
C157 C 0.69115 0.11641 0.55923 0.0
C158 C 0.65703 0.11558 0.56844 0.0
C159 C 0.92809 0.22239 0.57185 0.0
H160 H 0.05191 0.31872 0.64883 0.0
H161 H 0.06003 0.21599 0.62508 0.0
H162 H 0.12085 0.34973 0.66501 0.0
H163 H 0.15981 0.31516 0.66176 0.0
H164 H 0.75393 0.1398 0.56268 0.0
H165 H 0.69962 0.17865 0.61693 0.0
H166 H 0.68899 0.09939 0.54303 0.0
H167 H 0.62917 0.09823 0.55855 0.0
Gd168 Gd 0.72298 0.94518 0.13408 0.0
Gd169 Gd 0.67778 0.8457 0.10336 0.0
C170 C 0.7464 0.78122 0.08298 0.0
C171 C 0.74988 0.78721 0.03893 0.0
C172 C 0.71689 0.81606 0.06255 0.0
C173 C 0.72616 0.80336 0.08381 0.0
C174 C 0.72763 0.80713 0.03981 0.0
C175 C 0.75923 0.77425 0.06049 0.0
C176 C 0.75178 0.76544 0.10465 0.0
C177 C 0.73608 0.77089 0.1263 0.0
N178 N 0.71297 0.81023 0.1052 0.0
C179 C 0.71629 0.7931 0.12619 0.0
H180 H 0.70431 0.79714 0.14305 0.0
C181 C 0.67895 0.8413 0.04343 0.0
N182 N 0.69446 0.83424 0.06403 0.0
C183 C 0.68911 0.83337 0.02047 0.0
C184 C 0.71413 0.81683 0.01863 0.0
H185 H 0.65953 0.85403 0.04472 0.0
H186 H 0.77524 0.75774 0.05952 0.0
H187 H 0.68507 0.98612 0.09592 0.0
H188 H 0.76716 0.74829 0.10479 0.0
H189 H 0.73941 0.75819 0.1431 0.0
H190 H 0.75876 0.78044 0.02165 0.0
H191 H 0.75141 0.94323 0.1918 0.0
H192 H 0.62004 0.02871 0.13767 0.0
H193 H 0.643 1.01765 0.09786 0.0
H194 H 0.64793 1.0097 0.22 0.0
H195 H 0.67761 0.83998 0.00422 0.0
H196 H 0.7217 0.81041 1.00083 0.0
H197 H 0.62184 0.02538 0.18326 0.0
H198 H 0.73752 0.95842 0.23293 0.0
N199 N 0.68489 0.97778 0.13421 0.0
C200 C 0.63842 1.01465 0.13693 0.0
C201 C 0.6514 1.00856 0.11445 0.0
C202 C 0.65042 1.00373 0.15824 0.0
C203 C 0.67421 0.98536 0.15625 0.0
C204 C 0.67527 0.99056 0.11344 0.0
N205 N 0.71298 0.96046 0.17413 0.0
C206 C 0.68888 0.97662 0.17688 0.0
C207 C 0.72354 0.96358 0.21732 0.0
C208 C 0.69748 0.97865 0.2205 0.0
C209 C 0.73133 0.95498 0.19389 0.0
C210 C 0.68018 0.98586 0.20014 0.0
H211 H 0.69151 0.98529 0.23868 0.0
O212 O 0.78718 0.98047 0.14124 0.0
O213 O 0.73232 0.89595 0.11996 0.0
O214 O 0.67387 0.84156 0.14551 0.0
O215 O 0.67658 0.90057 0.15915 0.0
O216 O 0.76025 0.92206 0.15242 0.0
O217 O 0.75877 1.00595 0.11961 0.0
O218 O 0.61727 0.80621 0.08971 0.0
O219 O 0.66742 0.89382 0.1179 0.0
O220 O 0.72111 0.94947 0.09337 0.0
O221 O 0.72395 0.8947 0.07786 0.0
O222 O 0.63875 0.86687 0.08578 0.0
O223 O 0.6394 0.78645 0.11954 0.0
C224 C 0.75515 0.89553 0.13635 0.0
C225 C 0.65523 1.0027 0.20229 0.0
C226 C 0.64035 1.01159 0.18137 0.0
C227 C 0.79204 1.01218 0.12981 0.0
C228 C 0.81633 0.05066 0.14275 0.0
C229 C 0.79961 0.06078 0.16223 0.0
C230 C 0.85723 0.07619 0.13669 0.0
C231 C 0.88169 0.11149 0.15038 0.0
C232 C 0.82331 0.09523 0.17589 0.0
C233 C 0.8639 0.12006 0.17028 0.0
C234 C 0.66802 0.86308 0.16251 0.0
C235 C 0.64329 0.89311 0.10194 0.0
C236 C 0.61055 0.77614 0.10379 0.0
C237 C 0.59509 0.73642 0.09167 0.0
C238 C 0.61143 0.73452 0.06922 0.0
C239 C 0.56373 0.7004 0.10194 0.0
C240 C 0.5492 0.66302 0.08969 0.0
C241 C 0.59725 0.69817 0.05708 0.0
C242 C 0.5664 0.6629 0.06705 0.0
C243 C 0.73181 0.9326 0.07625 0.0
H244 H 0.76839 0.04168 0.16713 0.0
H245 H 0.86971 0.06833 0.12139 0.0
H246 H 0.8103 0.10245 0.19119 0.0
H247 H 0.88137 0.14562 0.18201 0.0
H248 H 0.63481 0.76128 0.06074 0.0
H249 H 0.55097 0.70153 0.11929 0.0
H250 H 0.60995 0.69739 0.03964 0.0
H251 H 0.55549 0.6355 0.05658 0.0
Gd252 Gd 0.78924 0.71218 0.63185 0.0
Gd253 Gd 0.85214 0.67098 0.60815 0.0
C254 C 0.98845 0.74945 0.59907 0.0
C255 C 0.99577 0.75513 0.55513 0.0
C256 C 0.92949 0.71643 0.57343 0.0
C257 C 0.9463 0.72664 0.59634 0.0
C258 C 0.95412 0.72951 0.55255 0.0
C259 C 1.01295 0.76497 0.57838 0.0
C260 C 1.0048 0.7543 0.62238 0.0
C261 C 0.97935 0.73557 0.64212 0.0
N262 N 0.92175 0.71042 0.61588 0.0
C263 C 0.93775 0.7133 0.63848 0.0
H264 H 0.91859 0.69898 0.65392 0.0
C265 C 0.87279 0.67292 0.54982 0.0
N266 N 0.88952 0.6901 0.57171 0.0
C267 C 0.89571 0.68565 0.52851 0.0
C268 C 0.93645 0.71462 0.52982 0.0
H269 H 0.8413 0.65036 0.54879 0.0
H270 H 0.04531 0.7832 0.58015 0.0
H271 H 0.7185 0.66796 0.58838 0.0
H272 H 0.03701 0.77153 0.62526 0.0
H273 H 0.99173 0.73842 0.66017 0.0
H274 H 1.01514 0.76592 0.53929 0.0
H275 H 0.80732 0.74384 0.68965 0.0
H276 H 0.60377 0.60212 0.62279 0.0
H277 H 0.64534 0.62358 0.5855 0.0
H278 H 0.63364 0.63635 0.70703 0.0
H279 H 0.882 0.67292 0.51113 0.0
H280 H 0.95431 0.72398 0.51334 0.0
H281 H 0.59972 0.60681 0.6682 0.0
H282 H 0.77024 0.73142 0.72824 0.0
N283 N 0.71915 0.67093 0.62711 0.0
C284 C 0.63603 0.62162 0.62421 0.0
C285 C 0.65937 0.63374 0.60313 0.0
C286 C 0.65447 0.63575 0.64682 0.0
C287 C 0.69661 0.6609 0.64766 0.0
C288 C 0.70101 0.65901 0.60489 0.0
N289 N 0.75592 0.70253 0.66929 0.0
C290 C 0.71559 0.67732 0.66945 0.0
C291 C 0.75451 0.71586 0.71185 0.0
C292 C 0.71324 0.68861 0.71252 0.0
C293 C 0.77543 0.72284 0.68992 0.0
C294 C 0.69315 0.66932 0.6911 0.0
H295 H 0.69709 0.68328 0.72954 0.0
O296 O 0.81189 0.7753 0.6402 0.0
O297 O 0.85061 0.72458 0.62163 0.0
O298 O 0.8461 0.66794 0.65011 0.0
O299 O 0.78795 0.67009 0.6603 0.0
O300 O 0.84626 0.75261 0.65269 0.0
O301 O 0.76731 0.74625 0.61198 0.0
O302 O 0.84088 0.61346 0.5933 0.0
O303 O 0.79086 0.65773 0.61885 0.0
O304 O 0.78993 0.71132 0.59094 0.0
O305 O 0.84897 0.7126 0.57933 0.0
O306 O 0.79498 0.62947 0.58805 0.0
O307 O 0.867 0.63183 0.6289 0.0
C308 C 0.87071 0.74871 0.63848 0.0
C309 C 0.65137 0.64314 0.69055 0.0
C310 C 0.63207 0.62633 0.66845 0.0
C311 C 0.78882 0.77915 0.62443 0.0
C312 C 0.76876 0.80111 0.63283 0.0
C313 C 0.73092 0.78073 0.64401 0.0
C314 C 0.78836 0.84326 0.63032 0.0
C315 C 0.77049 0.86511 0.63922 0.0
C316 C 0.71284 0.80208 0.65259 0.0
C317 C 0.73242 0.8439 0.65031 0.0
C318 C 0.81718 0.66273 0.66576 0.0
C319 C 0.77025 0.63237 0.6026 0.0
C320 C 0.85726 0.60536 0.61156 0.0
C321 C 0.88759 0.59346 0.60544 0.0
C322 C 0.92535 0.62275 0.59679 0.0
C323 C 0.87946 0.55331 0.60787 0.0
C324 C 0.90897 0.54313 0.60121 0.0
C325 C 0.95459 0.61303 0.59068 0.0
C326 C 0.94651 0.57362 0.59279 0.0
C327 C 0.81931 0.72032 0.57533 0.0
H328 H 0.71547 0.74839 0.64617 0.0
H329 H 0.81788 0.85905 0.62199 0.0
H330 H 0.68359 0.78618 0.66118 0.0
H331 H 0.71763 0.85966 0.65711 0.0
H332 H 0.93234 0.65328 0.59468 0.0
H333 H 0.85031 0.53016 0.6143 0.0
H334 H 0.9836 0.63617 0.58408 0.0
H335 H 0.96978 0.56685 0.58777 0.0
Gd336 Gd 0.10142 0.78698 0.12992 0.0
Gd337 Gd 0.20487 0.84941 0.10528 0.0
C338 C 0.26203 0.98523 0.09434 0.0
C339 C 0.26148 0.99072 0.05034 0.0
C340 C 0.23512 0.92526 0.06952 0.0
C341 C 0.24274 0.943 0.0922 0.0
C342 C 0.24555 0.94901 0.0483 0.0
C343 C 0.26986 1.00884 0.07336 0.0
C344 C 0.2748 1.00256 0.11736 0.0
C345 C 0.2694 0.97797 0.13733 0.0
N346 N 0.23552 0.91929 0.11202 0.0
C347 C 0.24994 0.93623 0.13428 0.0
H348 H 0.24598 0.91769 0.1499 0.0
C349 C 0.22111 0.86769 0.04655 0.0
N350 N 0.22162 0.88527 0.0683 0.0
C351 C 0.23018 0.88971 0.02493 0.0
C352 C 0.2418 0.93044 0.02576 0.0
H353 H 0.21225 0.83621 0.04587 0.0
H354 H 0.28394 0.04125 0.07469 0.0
H355 H 0.07386 0.71591 0.08647 0.0
H356 H 0.28983 0.03486 0.11978 0.0
H357 H 0.27997 0.9911 0.15513 0.0
H358 H 0.26922 1.00942 0.03425 0.0
H359 H 0.0898 0.80551 0.18796 0.0
H360 H 1.02522 0.60138 0.12097 0.0
H361 H 0.04479 0.64276 0.08363 0.0
H362 H 1.02296 0.6318 0.20533 0.0
H363 H 0.22843 0.87532 0.00768 0.0
H364 H 0.24942 0.9476 0.00903 0.0
H365 H 1.01745 0.59761 0.16643 0.0
H366 H 0.06605 0.7687 0.22666 0.0
N367 N 0.07223 0.71682 0.12522 0.0
C368 C 0.03812 0.63365 0.12237 0.0
C369 C 0.04904 0.65689 0.10127 0.0
C370 C 0.04296 0.65224 0.14499 0.0
C371 C 0.0601 0.69439 0.1458 0.0
C372 C 0.06558 0.69855 0.103 0.0
N373 N 0.07863 0.75387 0.16747 0.0
C374 C 0.0633 0.71352 0.16763 0.0
C375 C 0.06524 0.75281 0.21021 0.0
C376 C 0.05094 0.7115 0.21086 0.0
C377 C 0.07866 0.77358 0.1882 0.0
C378 C 0.04936 0.69122 0.18935 0.0
H379 H 0.04052 0.69547 0.22792 0.0
O380 O 0.06098 0.80934 0.13911 0.0
O381 O 0.1503 0.84837 0.11944 0.0
O382 O 0.20284 0.84454 0.14724 0.0
O383 O 0.14319 0.78601 0.15781 0.0
O384 O 0.11856 0.84416 0.15076 0.0
O385 O 0.04531 0.76584 0.1102 0.0
O386 O 0.25132 0.83852 0.09039 0.0
O387 O 0.15708 0.78812 0.11642 0.0
O388 O 0.102 0.78709 0.08904 0.0
O389 O 0.15927 0.84623 0.07708 0.0
O390 O 0.18877 0.79194 0.08539 0.0
O391 O 0.25907 0.86461 0.126 0.0
C392 C 0.14662 0.86858 0.13639 0.0
C393 C 0.03354 0.64942 0.18881 0.0
C394 C 0.0304 0.62996 0.16667 0.0
C395 C 0.03401 0.78694 0.12315 0.0
C396 C 0.99187 0.76668 0.13147 0.0
C397 C 0.974 0.72802 0.14154 0.0
C398 C 0.96956 0.7867 0.12993 0.0
C399 C 0.92969 0.76837 0.13869 0.0
C400 C 0.93443 0.70949 0.14992 0.0
C401 C 0.91245 0.72942 0.14858 0.0
C402 C 0.17977 0.8156 0.16301 0.0
C403 C 0.16147 0.76728 0.10013 0.0
C404 C 0.27588 0.85505 0.10865 0.0
C405 C 0.31802 0.8857 0.10252 0.0
C406 C 0.32563 0.92222 0.09228 0.0
C407 C 0.35079 0.87917 0.10661 0.0
C408 C 0.39041 0.90906 0.10006 0.0
C409 C 0.3645 0.95196 0.08641 0.0
C410 C 0.39661 0.94552 0.09024 0.0
C411 C 0.12185 0.81643 0.07335 0.0
H412 H 0.99067 0.71223 0.14297 0.0
H413 H 0.98359 0.81684 0.12248 0.0
H414 H 0.92076 0.67958 0.1576 0.0
H415 H 0.88177 0.7142 0.15519 0.0
H416 H 0.30147 0.9278 0.08868 0.0
H417 H 0.34541 0.85088 0.11419 0.0
H418 H 0.36972 0.98005 0.07864 0.0
H419 H 0.42653 0.96914 0.08532 0.0
Gd420 Gd 0.3267 0.09397 0.63295 0.0
Gd421 Gd 0.37151 0.19548 0.6051 0.0
C422 C 0.29648 0.2566 0.59376 0.0
C423 C 0.28998 0.2553 0.54978 0.0
C424 C 0.32759 0.22747 0.56916 0.0
C425 C 0.31823 0.23606 0.59175 0.0
C426 C 0.31464 0.2381 0.54786 0.0
C427 C 0.28103 0.2647 0.57273 0.0
C428 C 0.29271 0.27017 0.61669 0.0
C429 C 0.31172 0.26454 0.63666 0.0
N430 N 0.33435 0.22846 0.6116 0.0
C431 C 0.33298 0.24403 0.63371 0.0
H432 H 0.34763 0.24023 0.64933 0.0
C433 C 0.36933 0.21094 0.5463 0.0
N434 N 0.35293 0.21263 0.56806 0.0
C435 C 0.35674 0.22018 0.52461 0.0
C436 C 0.32869 0.23316 0.52535 0.0
H437 H 0.39119 0.20106 0.54571 0.0
H438 H 0.26359 0.27972 0.57396 0.0
H439 H 0.36354 0.05539 0.59211 0.0
H440 H 0.27629 0.28609 0.61902 0.0
H441 H 0.30992 0.27586 0.65438 0.0
H442 H 0.2793 0.26321 0.53363 0.0
H443 H 0.29994 0.09253 0.69125 0.0
H444 H 0.42793 1.00846 0.63026 0.0
H445 H 0.40454 0.0227 0.59163 0.0
H446 H 0.40183 0.02192 0.71399 0.0
H447 H 0.36884 0.21751 0.50738 0.0
H448 H 0.31941 0.24089 0.50856 0.0
H449 H 0.42697 1.00854 0.67596 0.0
H450 H 0.31394 0.07389 0.73138 0.0
N451 N 0.36458 0.06119 0.63068 0.0
C452 C 0.40998 0.02301 0.63061 0.0
C453 C 0.39675 0.03089 0.60878 0.0
C454 C 0.39868 0.03271 0.65266 0.0
C455 C 0.3754 0.05174 0.65207 0.0
C456 C 0.37347 0.04955 0.60917 0.0
N457 N 0.33744 0.07579 0.67196 0.0
C458 C 0.36118 0.05906 0.67341 0.0
C459 C 0.32752 0.06964 0.71522 0.0
C460 C 0.35314 0.05382 0.71709 0.0
C461 C 0.31962 0.08015 0.69238 0.0
C462 C 0.36996 0.04788 0.69601 0.0
H463 H 0.35918 0.04567 0.73481 0.0
O464 O 0.26414 0.05642 0.64356 0.0
O465 O 0.31615 0.14321 0.6199 0.0
O466 O 0.37501 0.19617 0.64712 0.0
O467 O 0.37383 0.13706 0.65845 0.0
O468 O 0.28968 0.11604 0.65252 0.0
O469 O 0.28943 0.03612 0.61551 0.0
O470 O 0.42762 0.24168 0.58873 0.0
O471 O 0.38154 0.14624 0.61729 0.0
O472 O 0.32529 0.08941 0.59217 0.0
O473 O 0.33086 0.14869 0.57676 0.0
O474 O 0.41153 0.17605 0.58634 0.0
O475 O 0.41453 0.24742 0.62608 0.0
C476 C 0.29343 0.14247 0.63681 0.0
C477 C 0.39449 0.03043 0.69679 0.0
C478 C 0.40884 0.02287 0.67514 0.0
C479 C 0.2579 0.0274 0.62875 0.0
C480 C 0.23532 0.98646 0.63877 0.0
C481 C 0.25523 0.96928 0.65078 0.0
C482 C 0.19309 0.96479 0.63691 0.0
C483 C 0.17063 0.92617 0.64724 0.0
C484 C 0.23325 0.93089 0.66082 0.0
C485 C 0.19131 0.90949 0.65915 0.0
C486 C 0.38172 0.17403 0.66311 0.0
C487 C 0.40606 0.14802 0.60133 0.0
C488 C 0.43882 0.26481 0.60787 0.0
C489 C 0.45147 0.30778 0.60399 0.0
C490 C 0.42294 0.31829 0.59681 0.0
C491 C 0.49148 0.3387 0.60832 0.0
C492 C 0.50199 0.37955 0.60622 0.0
C493 C 0.43316 0.35844 0.59484 0.0
C494 C 0.47228 0.38889 0.59971 0.0
C495 C 0.32029 0.11006 0.57473 0.0
H496 H 0.28766 0.98556 0.65245 0.0
H497 H 0.17773 0.9784 0.62793 0.0
H498 H 0.24875 0.9177 0.67003 0.0
H499 H 0.17506 0.87971 0.66704 0.0
H500 H 0.39264 0.2955 0.59278 0.0
H501 H 0.51406 0.33113 0.61356 0.0
H502 H 0.41063 0.36597 0.58945 0.0
H503 H 0.47964 0.41991 0.5978 0.0
Gd504 Gd 0.7207 0.78041 0.36809 0.0
Gd505 Gd 0.67373 0.83344 0.39807 0.0
C506 C 0.74216 0.9658 0.42013 0.0
C507 C 0.74428 0.96174 0.46417 0.0
C508 C 0.71165 0.90071 0.43978 0.0
C509 C 0.72174 0.92344 0.41877 0.0
C510 C 0.72182 0.9196 0.46276 0.0
C511 C 0.75439 0.98481 0.44288 0.0
C512 C 0.74826 0.98774 0.3987 0.0
C513 C 0.73306 0.96737 0.37677 0.0
N514 N 0.7091 0.90414 0.39711 0.0
C515 C 0.71306 0.92534 0.37635 0.0
H516 H 0.70148 0.90988 0.35928 0.0
C517 C 0.67269 0.83689 0.45808 0.0
N518 N 0.68899 0.86014 0.43779 0.0
C519 C 0.6824 0.85419 0.48126 0.0
C520 C 0.7076 0.89567 0.48363 0.0
H521 H 0.6531 0.8048 0.45634 0.0
H522 H 0.77053 1.01731 0.44426 0.0
H523 H 0.68202 0.70118 0.40612 0.0
H524 H 0.76379 0.0203 0.39897 0.0
H525 H 0.73693 0.984 0.36015 0.0
H526 H 0.75272 0.9768 0.48165 0.0
H527 H 0.75002 0.81128 0.3107 0.0
H528 H 0.62113 0.59347 0.36406 0.0
H529 H 0.64164 0.62755 0.40399 0.0
H530 H 0.65153 0.64086 0.28189 0.0
H531 H 0.67034 0.83554 0.49727 0.0
H532 H 0.71477 0.90905 0.50161 0.0
H533 H 0.6248 0.59875 0.31848 0.0
H534 H 0.73829 0.78251 0.26952 0.0
N535 N 0.68366 0.70952 0.36775 0.0
C536 C 0.63884 0.62597 0.36487 0.0
C537 C 0.65044 0.64509 0.38742 0.0
C538 C 0.65135 0.649 0.34361 0.0
C539 C 0.67427 0.69123 0.3457 0.0
C540 C 0.67341 0.68704 0.38852 0.0
N541 N 0.71262 0.75508 0.32812 0.0
C542 C 0.68942 0.71476 0.3252 0.0
C543 C 0.7243 0.76309 0.28502 0.0
C544 C 0.69937 0.72178 0.28168 0.0
C545 C 0.73093 0.77929 0.30849 0.0
C546 C 0.68192 0.69698 0.30192 0.0
H547 H 0.69429 0.70931 0.26348 0.0
O548 O 0.78388 0.80563 0.35858 0.0
O549 O 0.72924 0.83887 0.38207 0.0
O550 O 0.6716 0.8346 0.35587 0.0
O551 O 0.67454 0.77826 0.34263 0.0
O552 O 0.75877 0.84112 0.35028 0.0
O553 O 0.75778 0.7611 0.38701 0.0
O554 O 0.6128 0.81236 0.41098 0.0
O555 O 0.66425 0.7756 0.38305 0.0
O556 O 0.71671 0.77307 0.40873 0.0
O557 O 0.71901 0.83037 0.4242 0.0
O558 O 0.63366 0.77214 0.41453 0.0
O559 O 0.63616 0.85502 0.38159 0.0
C560 C 0.75287 0.86238 0.36602 0.0
C561 C 0.65787 0.65507 0.29963 0.0
C562 C 0.64261 0.63111 0.32045 0.0
C563 C 0.78986 0.78366 0.37415 0.0
C564 C 0.81303 0.76501 0.36532 0.0
C565 C 0.79351 0.72777 0.3534 0.0
C566 C 0.85517 0.78489 0.3685 0.0
C567 C 0.87778 0.76779 0.35954 0.0
C568 C 0.81554 0.71044 0.34481 0.0
C569 C 0.85723 0.73019 0.34779 0.0
C570 C 0.66633 0.80736 0.3389 0.0
C571 C 0.63928 0.75122 0.39832 0.0
C572 C 0.60672 0.83618 0.39694 0.0
C573 C 0.59104 0.86032 0.40901 0.0
C574 C 0.60696 0.87819 0.4316 0.0
C575 C 0.55996 0.86528 0.39856 0.0
C576 C 0.54539 0.88814 0.41077 0.0
C577 C 0.59272 0.90033 0.4437 0.0
C578 C 0.56222 0.90511 0.43355 0.0
C579 C 0.72642 0.8001 0.42609 0.0
H580 H 0.76125 0.71212 0.35073 0.0
H581 H 0.87034 0.81395 0.37743 0.0
H582 H 0.80024 0.68159 0.3357 0.0
H583 H 0.87342 0.71584 0.341 0.0
H584 H 0.63007 0.87457 0.44022 0.0
H585 H 0.54748 0.85166 0.38111 0.0
H586 H 0.60511 0.91353 0.46125 0.0
H587 H 0.55127 0.92159 0.44397 0.0
Gd588 Gd 0.95116 0.70773 0.87038 0.0
Gd589 Gd 0.8523 0.6633 0.90221 0.0
C590 C 0.79337 0.7347 0.92811 0.0
C591 C 0.80362 0.73721 0.97184 0.0
C592 C 0.82794 0.70269 0.94577 0.0
C593 C 0.81414 0.71328 0.9255 0.0
C594 C 0.8219 0.71361 0.96924 0.0
C595 C 0.7893 0.74768 0.9513 0.0
C596 C 0.77566 0.74074 0.90753 0.0
C597 C 0.77768 0.72431 0.88527 0.0
N598 N 0.81813 0.69981 0.90343 0.0
C599 C 0.79887 0.70356 0.88359 0.0
H600 H 0.80045 0.69116 0.86625 0.0
C601 C 0.8525 0.66235 0.96234 0.0
N602 N 0.84432 0.67886 0.94264 0.0
C603 C 0.84761 0.67278 0.98595 0.0
C604 C 0.83281 0.69901 0.98943 0.0
H605 H 0.86402 0.6421 0.95983 0.0
H606 H 0.77388 0.76458 0.95363 0.0
H607 H 0.99273 0.66906 0.90752 0.0
H608 H 0.75935 0.75692 0.90876 0.0
H609 H 0.76322 0.72792 0.86936 0.0
H610 H 0.79908 0.74624 0.9897 0.0
H611 H 0.94662 0.73558 0.81312 0.0
H612 H 0.03526 0.60535 0.86447 0.0
H613 H 1.02456 0.62743 0.90468 0.0
H614 H 1.01397 0.63382 0.78271 0.0
H615 H 0.85519 0.66052 1.00145 0.0
H616 H 0.82869 0.70675 0.00775 0.0
H617 H 0.03098 0.60772 0.81893 0.0
H618 H 0.96058 0.72206 0.77157 0.0
N619 N 0.98405 0.66986 0.86931 0.0
C620 C 1.02112 0.62363 0.8656 0.0
C621 C 1.01523 0.63611 0.88831 0.0
C622 C 1.00975 0.63588 0.84457 0.0
C623 C 0.99131 0.65952 0.84708 0.0
C624 C 0.99709 0.65981 0.88981 0.0
N625 N 0.96564 0.69807 0.83008 0.0
C626 C 0.98194 0.67425 0.82679 0.0
C627 C 0.96672 0.70837 0.78694 0.0
C628 C 0.98218 0.68276 0.78323 0.0
C629 C 0.95892 0.71604 0.8106 0.0
C630 C 0.99043 0.66568 0.80329 0.0
H631 H 0.98818 0.67686 0.76487 0.0
O632 O 0.98906 0.77084 0.86081 0.0
O633 O 0.90234 0.71715 0.88496 0.0
O634 O 0.8471 0.66166 0.86012 0.0
O635 O 0.90457 0.66187 0.84576 0.0
O636 O 0.92953 0.74723 0.85329 0.0
O637 O 1.00885 0.74436 0.88821 0.0
O638 O 0.81205 0.6024 0.91498 0.0
O639 O 0.89948 0.65251 0.88647 0.0
O640 O 0.95573 0.70415 0.91099 0.0
O641 O 0.90265 0.70923 0.9271 0.0
O642 O 0.87239 0.62217 0.91809 0.0
O643 O 0.79257 0.62665 0.88619 0.0
C644 C 0.90275 0.74136 0.8693 0.0
C645 C 1.00748 0.64098 0.80061 0.0
C646 C 1.01712 0.6261 0.82123 0.0
C647 C 1.01782 0.77658 0.87567 0.0
C648 C 0.05914 0.79981 0.86605 0.0
C649 C 0.07623 0.78039 0.85336 0.0
C650 C 0.08141 0.84199 0.8691 0.0
C651 C 0.12047 0.86474 0.85923 0.0
C652 C 0.115 0.80258 0.84387 0.0
C653 C 0.13693 0.84432 0.84671 0.0
C654 C 0.86759 0.65522 0.8427 0.0
C655 C 0.89836 0.62719 0.90165 0.0
C656 C 0.78201 0.59688 0.90125 0.0
C657 C 0.74255 0.58137 0.91365 0.0
C658 C 0.74094 0.59868 0.93577 0.0
C659 C 0.7066 0.54894 0.90401 0.0
C660 C 0.66948 0.53405 0.91663 0.0
C661 C 0.7049 0.58416 0.94832 0.0
C662 C 0.6697 0.55211 0.93904 0.0
C663 C 0.94008 0.71572 0.92839 0.0
H664 H 0.05957 0.74811 0.85075 0.0
H665 H 0.06797 0.85707 0.87862 0.0
H666 H 0.12809 0.78738 0.83416 0.0
H667 H 0.16699 0.86065 0.83919 0.0
H668 H 0.76774 0.62308 0.94366 0.0
H669 H 0.70761 0.53561 0.88684 0.0
H670 H 0.70433 0.59753 0.96555 0.0
H671 H 0.64269 0.54103 0.94988 0.0
Gd672 Gd 0.26165 0.94545 0.36864 0.0
Gd673 Gd 0.20922 0.84609 0.39974 0.0
C674 C 0.07822 0.78368 0.42457 0.0
C675 C 0.08493 0.79208 0.46845 0.0
C676 C 0.14444 0.81879 0.44282 0.0
C677 C 0.12049 0.8053 0.42232 0.0
C678 C 0.12694 0.81138 0.46617 0.0
C679 C 0.0606 0.77821 0.44768 0.0
C680 C 0.055 0.76671 0.40367 0.0
C681 C 0.07405 0.77031 0.38143 0.0
N682 N 0.13848 0.81067 0.40031 0.0
C683 C 0.11604 0.79215 0.38012 0.0
H684 H 0.13046 0.7949 0.36279 0.0
C685 C 0.20927 0.84429 0.4598 0.0
N686 N 0.18484 0.83635 0.43998 0.0
C687 C 0.19338 0.83797 0.48333 0.0
C688 C 0.15209 0.82201 0.48654 0.0
H689 H 0.24122 0.85664 0.45745 0.0
H690 H 0.0282 0.76211 0.44974 0.0
H691 H 0.34169 0.9885 0.40593 0.0
H692 H 1.02247 0.74986 0.40463 0.0
H693 H 0.05643 0.75654 0.36524 0.0
H694 H 0.07092 0.78648 0.48623 0.0
H695 H 0.2292 0.94068 0.31134 0.0
H696 H 0.44851 0.03452 0.36311 0.0
H697 H 0.41534 0.02256 0.40325 0.0
H698 H 0.39902 1.01278 0.28126 0.0
H699 H 0.21296 0.84533 0.49895 0.0
H700 H 0.1398 0.81682 0.50479 0.0
H701 H 0.44211 0.03049 0.31756 0.0
H702 H 0.25688 0.95587 0.26986 0.0
N703 N 0.3325 0.97979 0.3677 0.0
C704 C 0.41601 0.01937 0.36416 0.0
C705 C 0.39741 1.01277 0.38683 0.0
C706 C 0.39246 1.00748 0.34309 0.0
C707 C 0.35026 0.9878 0.34551 0.0
C708 C 0.35545 0.9933 0.38825 0.0
N709 N 0.28594 0.9609 0.3284 0.0
C710 C 0.32619 0.97817 0.32517 0.0
C711 C 0.27675 0.96229 0.28526 0.0
C712 C 0.31801 0.97886 0.28162 0.0
C713 C 0.26117 0.9538 0.30889 0.0
C714 C 0.34338 0.98746 0.30172 0.0
H715 H 0.33 0.98544 0.2633 0.0
O716 O 0.23661 0.98331 0.35855 0.0
O717 O 0.20361 0.89562 0.38306 0.0
O718 O 0.20591 0.84157 0.35771 0.0
O719 O 0.26247 0.89993 0.3437 0.0
O720 O 0.20052 0.92285 0.35147 0.0
O721 O 0.28046 1.00197 0.38741 0.0
O722 O 0.23071 0.80642 0.41224 0.0
O723 O 0.26666 0.89428 0.3841 0.0
O724 O 0.2698 0.94983 0.40928 0.0
O725 O 0.2127 0.89523 0.4253 0.0
O726 O 0.2711 0.86755 0.41542 0.0
O727 O 0.18701 0.78667 0.3834 0.0
C728 C 0.1797 0.89576 0.36731 0.0
C729 C 0.38526 1.00565 0.29912 0.0
C730 C 0.40978 1.01567 0.31979 0.0
C731 C 0.25815 1.01137 0.37422 0.0
C732 C 0.27693 0.05322 0.3654 0.0
C733 C 0.3146 0.07105 0.35399 0.0
C734 C 0.25687 0.07542 0.36807 0.0
C735 C 0.27423 0.11515 0.3591 0.0
C736 C 0.33218 0.11043 0.34543 0.0
C737 C 0.31228 0.13229 0.34791 0.0
C738 C 0.23273 0.8627 0.34041 0.0
C739 C 0.29151 0.89402 0.3991 0.0
C740 C 0.20632 0.77628 0.39848 0.0
C741 C 0.18248 0.73669 0.4108 0.0
C742 C 0.16561 0.73526 0.43367 0.0
C743 C 0.17671 0.70035 0.40029 0.0
C744 C 0.15404 0.66311 0.4127 0.0
C745 C 0.14372 0.69907 0.44599 0.0
C746 C 0.13814 0.6635 0.43576 0.0
C747 C 0.24301 0.93298 0.42681 0.0
H748 H 0.33039 0.05452 0.35171 0.0
H749 H 0.2275 0.06148 0.3766 0.0
H750 H 0.36136 0.12407 0.33674 0.0
H751 H 0.32684 0.16284 0.34114 0.0
H752 H 0.16981 0.76227 0.4423 0.0
H753 H 0.18951 0.70108 0.3826 0.0
H754 H 0.13129 0.69865 0.46374 0.0
H755 H 0.12182 0.6362 0.44631 0.0
Gd756 Gd 0.33366 0.2476 0.87082 0.0
Gd757 Gd 0.37912 0.19189 0.89908 0.0
C758 C 0.30489 0.05642 0.91325 0.0
C759 C 0.29931 0.05369 0.95731 0.0
C760 C 0.33627 0.11805 0.9366 0.0
C761 C 0.32672 0.0988 0.9144 0.0
C762 C 0.32395 0.09568 0.95837 0.0
C763 C 0.28986 0.03405 0.93474 0.0
C764 C 0.30071 0.0378 0.89071 0.0
C765 C 0.31943 0.06134 0.87027 0.0
N766 N 0.34254 0.12139 0.89411 0.0
C767 C 0.34072 0.10327 0.87237 0.0
H768 H 0.3549 0.12098 0.8564 0.0
C769 C 0.37887 0.17761 0.95819 0.0
N770 N 0.36167 0.15832 0.93686 0.0
C771 C 0.36696 0.15697 0.98033 0.0
C772 C 0.33875 0.11593 0.98046 0.0
H773 H 0.40078 0.20935 0.95813 0.0
H774 H 0.27243 1.00151 0.93418 0.0
H775 H 0.36987 0.32318 0.9115 0.0
H776 H 0.28423 1.00534 0.88903 0.0
H777 H 0.31726 0.04725 0.85285 0.0
H778 H 0.28908 0.03601 0.97383 0.0
H779 H 0.30676 0.22186 0.81256 0.0
H780 H 0.4335 0.4345 0.87318 0.0
H781 H 0.41035 0.39698 0.91187 0.0
H782 H 0.40764 0.39447 0.78951 0.0
H783 H 0.37968 0.17269 0.99724 0.0
H784 H 0.33 0.09986 0.99759 0.0
H785 H 0.43257 0.43325 0.82748 0.0
H786 H 0.32047 0.25429 0.77238 0.0
N787 N 0.37103 0.31832 0.87295 0.0
C788 C 0.41581 0.40197 0.87288 0.0
C789 C 0.4027 0.38091 0.89474 0.0
C790 C 0.40468 0.38085 0.85087 0.0
C791 C 0.38171 0.3385 0.85153 0.0
C792 C 0.37973 0.33892 0.89442 0.0
N793 N 0.34407 0.2763 0.83176 0.0
C794 C 0.36759 0.31681 0.83023 0.0
C795 C 0.33401 0.27224 0.7885 0.0
C796 C 0.35942 0.31374 0.78656 0.0
C797 C 0.32628 0.25396 0.81138 0.0
C798 C 0.37619 0.33666 0.80759 0.0
H799 H 0.36533 0.32783 0.76882 0.0
O800 O 0.27094 0.22179 0.8604 0.0
O801 O 0.32373 0.18803 0.88381 0.0
O802 O 0.38206 0.19376 0.85703 0.0
O803 O 0.38074 0.25146 0.84534 0.0
O804 O 0.29688 0.18841 0.85129 0.0
O805 O 0.29607 0.26781 0.88822 0.0
O806 O 0.43775 0.20737 0.91402 0.0
O807 O 0.38895 0.25097 0.88636 0.0
O808 O 0.33231 0.25073 0.91164 0.0
O809 O 0.33701 0.19651 0.92697 0.0
O810 O 0.41844 0.2516 0.91768 0.0
O811 O 0.41983 0.17796 0.87923 0.0
C812 C 0.30104 0.16589 0.86691 0.0
C813 C 0.40044 0.37869 0.80674 0.0
C814 C 0.41468 0.40076 0.82835 0.0
C815 C 0.26449 0.24449 0.87514 0.0
C816 C 0.24129 0.26215 0.86514 0.0
C817 C 0.26057 0.29917 0.85301 0.0
C818 C 0.19905 0.24096 0.86714 0.0
C819 C 0.17598 0.25641 0.85682 0.0
C820 C 0.23797 0.31489 0.84298 0.0
C821 C 0.19605 0.29373 0.84479 0.0
C822 C 0.3884 0.2222 0.84081 0.0
C823 C 0.41309 0.27392 0.90244 0.0
C824 C 0.44663 0.19029 0.89648 0.0
C825 C 0.46031 0.16192 0.90386 0.0
C826 C 0.43421 0.12754 0.91721 0.0
C827 C 0.49916 0.16876 0.89797 0.0
C828 C 0.51149 0.14153 0.90594 0.0
C829 C 0.44597 0.10035 0.92465 0.0
C830 C 0.4843 0.1073 0.91916 0.0
C831 C 0.32647 0.22459 0.92896 0.0
H832 H 0.29299 0.31579 0.85121 0.0
H833 H 0.18418 0.21205 0.87622 0.0
H834 H 0.253 0.34354 0.83367 0.0
H835 H 0.17932 0.30673 0.83691 0.0
H836 H 0.40472 0.12175 0.92207 0.0
H837 H 0.51985 0.19538 0.88786 0.0
H838 H 0.42537 0.07394 0.93492 0.0
H839 H 0.49286 0.08588 0.92537 0.0
Gd840 Gd 0.09781 0.32244 0.3678 0.0
Gd841 Gd 0.19676 0.37002 0.39912 0.0
C842 C 0.26041 0.30232 0.42301 0.0
C843 C 0.25275 0.30054 0.46695 0.0
C844 C 0.22502 0.33278 0.44173 0.0
C845 C 0.23838 0.32257 0.42105 0.0
C846 C 0.233 0.32284 0.46496 0.0
C847 C 0.26648 0.29034 0.44599 0.0
C848 C 0.27707 0.2962 0.40192 0.0
C849 C 0.27265 0.31126 0.37975 0.0
N850 N 0.23239 0.33497 0.39915 0.0
C851 C 0.2505 0.33108 0.37875 0.0
H852 H 0.24719 0.34254 0.3615 0.0
C853 C 0.19921 0.37154 0.45918 0.0
N854 N 0.20701 0.35524 0.43919 0.0
C855 C 0.20608 0.36209 0.48259 0.0
C856 C 0.22247 0.3371 0.48551 0.0
H857 H 0.18659 0.39094 0.45703 0.0
H858 H 0.28289 0.27434 0.44783 0.0
H859 H 0.05509 0.36005 0.40505 0.0
H860 H 0.2942 0.28081 0.40264 0.0
H861 H 0.28609 0.30741 0.36341 0.0
H862 H 0.2588 0.29226 0.48462 0.0
H863 H 0.10263 0.29448 0.3105 0.0
H864 H 1.00863 0.42004 0.36203 0.0
H865 H 1.02109 0.39959 0.40224 0.0
H866 H 0.02967 0.39118 0.28026 0.0
H867 H 0.19882 0.37415 0.49835 0.0
H868 H 0.2281 0.33011 0.50366 0.0
H869 H 1.01215 0.41692 0.3165 0.0
H870 H 0.0872 0.30653 0.26902 0.0
N871 N 0.06325 0.35874 0.36679 0.0
C872 C 1.02374 0.40267 0.36314 0.0
C873 C 0.03063 0.39111 0.38584 0.0
C874 C 0.03535 0.39063 0.3421 0.0
C875 C 0.05504 0.36815 0.34457 0.0
C876 C 0.05005 0.3686 0.38733 0.0
N877 N 0.08212 0.33081 0.32753 0.0
C878 C 0.06461 0.35354 0.32427 0.0
C879 C 0.08071 0.31998 0.2844 0.0
C880 C 0.06387 0.3444 0.28073 0.0
C881 C 0.08935 0.31316 0.30804 0.0
C882 C 0.05519 0.36119 0.30079 0.0
H883 H 0.0572 0.34962 0.2624 0.0
O884 O 0.06056 0.25934 0.3578 0.0
O885 O 0.14755 0.31434 0.38259 0.0
O886 O 0.20156 0.37236 0.35701 0.0
O887 O 0.14266 0.36935 0.34302 0.0
O888 O 0.12168 0.28511 0.35045 0.0
O889 O 0.04096 0.28452 0.38616 0.0
O890 O 0.23608 0.43112 0.41198 0.0
O891 O 0.14856 0.37898 0.38338 0.0
O892 O 0.093 0.32633 0.40832 0.0
O893 O 0.14767 0.32465 0.42485 0.0
O894 O 0.17472 0.40988 0.41493 0.0
O895 O 0.25639 0.40763 0.38315 0.0
C896 C 0.14827 0.29104 0.36658 0.0
C897 C 0.0369 0.38475 0.29814 0.0
C898 C 0.02698 0.39945 0.31877 0.0
C899 C 0.03209 0.25273 0.37315 0.0
C900 C 0.99046 0.22928 0.36397 0.0
C901 C 0.97268 0.24874 0.35211 0.0
C902 C 0.96843 0.18701 0.36675 0.0
C903 C 0.92893 0.16428 0.35744 0.0
C904 C 0.93353 0.22658 0.34321 0.0
C905 C 0.91185 0.18482 0.34579 0.0
C906 C 0.18018 0.37785 0.33978 0.0
C907 C 0.1485 0.40392 0.39845 0.0
C908 C 0.26645 0.43716 0.39837 0.0
C909 C 0.30593 0.45304 0.41088 0.0
C910 C 0.30712 0.4381 0.43394 0.0
C911 C 0.3424 0.48328 0.40034 0.0
C912 C 0.37952 0.49801 0.41291 0.0
C913 C 0.34321 0.45255 0.44641 0.0
C914 C 0.37891 0.48224 0.43616 0.0
C915 C 0.10983 0.31696 0.42611 0.0
H916 H 0.98908 0.28105 0.34974 0.0
H917 H 0.98233 0.17187 0.37564 0.0
H918 H 0.91994 0.24184 0.33416 0.0
H919 H 0.88147 0.16855 0.33874 0.0
H920 H 0.28002 0.41559 0.44262 0.0
H921 H 0.34186 0.49497 0.38251 0.0
H922 H 0.34345 0.44095 0.46431 0.0
H923 H 0.40612 0.49338 0.44682 0.0
Gd924 Gd 0.79409 0.08694 0.87233 0.0
Gd925 Gd 0.85876 0.19115 0.89605 0.0
C926 C 0.99441 0.24759 0.90781 0.0
C927 C 0.99938 0.24887 0.95188 0.0
C928 C 0.93417 0.22197 0.93225 0.0
C929 C 0.95214 0.22847 0.90969 0.0
C930 C 0.95768 0.23318 0.95361 0.0
C931 C 1.01776 0.25624 0.92899 0.0
C932 C 1.01205 0.25938 0.88482 0.0
C933 C 0.98775 0.25317 0.86457 0.0
N934 N 0.92868 0.22053 0.88965 0.0
C935 C 0.94599 0.234 0.86735 0.0
H936 H 0.92782 0.22974 0.85148 0.0
C937 C 0.87637 0.20883 0.95464 0.0
N938 N 0.8942 0.20861 0.93315 0.0
C939 C 0.8982 0.21889 0.97638 0.0
C940 C 0.93891 0.23043 0.97592 0.0
H941 H 0.84486 0.1999 0.95505 0.0
H942 H 0.05018 0.27018 0.92787 0.0
H943 H 0.72086 0.06157 0.91399 0.0
H944 H 0.04439 0.27425 0.8826 0.0
H945 H 1.00115 0.263 0.84676 0.0
H946 H 1.01789 0.25721 0.96809 0.0
H947 H 0.80992 0.06104 0.81712 0.0
H948 H 0.61101 0.02818 0.87653 0.0
H949 H 0.64878 0.03999 0.91497 0.0
H950 H 0.64471 0.02316 0.79316 0.0
H951 H 0.88363 0.21784 0.99344 0.0
H952 H 0.95589 0.23872 0.99274 0.0
H953 H 0.61001 0.02289 0.83089 0.0
H954 H 0.77547 0.04059 0.77735 0.0
N955 N 0.72464 0.06377 0.87531 0.0
C956 C 0.64276 0.03782 0.87597 0.0
C957 C 0.66394 0.0443 0.8977 0.0
C958 C 0.66242 0.04205 0.85381 0.0
C959 C 0.70381 0.0548 0.85413 0.0
C960 C 0.70492 0.05662 0.89704 0.0
N961 N 0.76209 0.0641 0.83448 0.0
C962 C 0.72322 0.05499 0.83296 0.0
C963 C 0.76057 0.04502 0.79277 0.0
C964 C 0.72157 0.03856 0.7904 0.0
C965 C 0.78013 0.05692 0.81524 0.0
C966 C 0.70197 0.04243 0.81082 0.0
H967 H 0.70631 0.02897 0.77303 0.0
O968 O 0.81945 0.04735 0.87085 0.0
O969 O 0.85557 0.13505 0.8829 0.0
O970 O 0.85579 0.18937 0.85411 0.0
O971 O 0.80162 0.12731 0.84112 0.0
O972 O 0.8513 0.10071 0.85263 0.0
O973 O 0.76185 0.02645 0.88761 0.0
O974 O 0.849 0.23865 0.91044 0.0
O975 O 0.7971 0.14432 0.8845 0.0
O976 O 0.79323 0.09007 0.91318 0.0
O977 O 0.85425 0.14533 0.92463 0.0
O978 O 0.80155 0.17695 0.91539 0.0
O979 O 0.87444 0.24485 0.87474 0.0
C980 C 0.87576 0.12966 0.86664 0.0
C981 C 0.66144 0.03236 0.81006 0.0
C982 C 0.64168 0.0322 0.83155 0.0
C983 C 0.78845 1.01698 0.88062 0.0
C984 C 0.77376 0.97811 0.86804 0.0
C985 C 0.74461 0.96623 0.84976 0.0
C986 C 0.79075 0.95379 0.87332 0.0
C987 C 0.77946 0.9181 0.85997 0.0
C988 C 0.73342 0.9314 0.83639 0.0
C989 C 0.75091 0.90785 0.84116 0.0
C990 C 0.83054 0.16477 0.83717 0.0
C991 C 0.77676 0.15 0.90054 0.0
C992 C 0.86539 0.26247 0.89188 0.0
C993 C 0.89633 0.30479 0.89743 0.0
C994 C 0.93407 0.31303 0.90593 0.0
C995 C 0.88882 0.33716 0.89449 0.0
C996 C 0.91899 0.37696 0.90044 0.0
C997 C 0.96397 0.3521 0.91131 0.0
C998 C 0.95654 0.38379 0.90865 0.0
C999 C 0.82335 0.10853 0.92859 0.0
H1000 H 0.73086 0.98413 0.84558 0.0
H1001 H 0.81268 0.96291 0.88781 0.0
H1002 H 0.71144 0.92286 0.82197 0.0
H1003 H 0.74231 0.88193 0.82967 0.0
H1004 H 0.94056 0.28924 0.90851 0.0
H1005 H 0.85965 0.33134 0.88824 0.0
H1006 H 0.99296 0.35779 0.91779 0.0
H1007 H 0.98024 0.41389 0.91321 0.0
H1008 H 0.1691 0.91517 0.17658 0.0
H1009 H 0.23471 0.12221 0.10624 0.0
H1010 H 0.15607 0.92058 0.09912 0.0
H1011 H 0.2551 0.11361 0.18258 0.0
H1012 H 0.20075 0.0485 0.10326 0.0
H1013 H 0.1945 0.98748 0.17928 0.0
C1014 C 0.17182 0.9318 0.16011 0.0
C1015 C 0.16231 0.91241 0.13747 0.0
C1016 C 0.21246 0.06279 0.12067 0.0
C1017 C 0.19047 0.99521 0.14038 0.0
C1018 C 0.23172 0.10485 0.12241 0.0
C1019 C 0.24807 0.12426 0.14467 0.0
C1020 C 0.20908 0.03988 0.14141 0.0
C1021 C 0.24357 0.10015 0.16496 0.0
C1022 C 0.18621 0.97307 0.16163 0.0
C1023 C 0.1648 0.93491 0.11678 0.0
N1024 N 0.22463 0.05945 0.16283 0.0
N1025 N 0.17903 0.97526 0.11867 0.0
H1026 H 0.25156 0.14932 0.59799 0.0
H1027 H 0.15754 0.25536 0.67947 0.0
H1028 H 0.26859 0.16792 0.67533 0.0
H1029 H 0.12231 0.2214 0.60482 0.0
H1030 H 0.19889 0.22378 0.6775 0.0
H1031 H 0.20397 0.17475 0.59927 0.0
C1032 C 0.24548 0.15908 0.61517 0.0
C1033 C 0.26515 0.1581 0.63645 0.0
C1034 C 0.18203 0.22297 0.66152 0.0
C1035 C 0.2104 0.18634 0.6382 0.0
C1036 C 0.15852 0.24127 0.6626 0.0
C1037 C 0.1365 0.24134 0.64224 0.0
C1038 C 0.18402 0.20458 0.63986 0.0
C1039 C 0.13857 0.22192 0.62101 0.0
C1040 C 0.21809 0.17321 0.61595 0.0
C1041 C 0.25493 0.16932 0.65841 0.0
N1042 N 0.16214 0.20461 0.6203 0.0
N1043 N 0.22882 0.18347 0.65866 0.0
H1044 H 0.92788 0.19348 0.15808 0.0
H1045 H 0.133 0.24839 0.0981 0.0
H1046 H 0.937 0.09357 0.12922 0.0
H1047 H 0.12899 0.27768 0.17335 0.0
H1048 H 0.05944 0.20151 0.09935 0.0
H1049 H 1.00027 0.23612 0.15363 0.0
C1050 C 0.94474 0.18013 0.15091 0.0
C1051 C 0.92562 0.139 0.14476 0.0
C1052 C 0.07488 0.21833 0.11549 0.0
C1053 C 1.00906 0.1892 0.1383 0.0
C1054 C 0.11653 0.24529 0.11472 0.0
C1055 C 0.13664 0.26781 0.13545 0.0
C1056 C 0.05345 0.2147 0.13696 0.0
C1057 C 0.11435 0.26158 0.15684 0.0
C1058 C 0.98619 0.20488 0.14814 0.0
C1059 C 0.94979 0.12481 0.13429 0.0
N1060 N 0.07387 0.23631 0.15692 0.0
N1061 N 0.99023 0.14985 0.13138 0.0
H1062 H 0.81136 0.91398 0.6003 0.0
H1063 H 0.86802 0.11749 0.67244 0.0
H1064 H 0.77769 0.91844 0.67461 0.0
H1065 H 0.88587 0.11542 0.59522 0.0
H1066 H 0.84053 0.04478 0.6739 0.0
H1067 H 0.84378 0.98768 0.59826 0.0
C1068 C 0.81104 0.93044 0.61622 0.0
C1069 C 0.79158 0.9099 0.63763 0.0
C1070 C 0.85022 0.06 0.65656 0.0
C1071 C 0.82873 0.99417 0.63545 0.0
C1072 C 0.8658 0.10149 0.65574 0.0
C1073 C 0.87759 0.12204 0.63353 0.0
C1074 C 0.84718 0.0388 0.63506 0.0
C1075 C 0.87558 0.10027 0.61254 0.0
C1076 C 0.82937 0.97247 0.615 0.0
C1077 C 0.79182 0.93282 0.65762 0.0
N1078 N 0.86039 0.05971 0.61377 0.0
N1079 N 0.81006 0.97353 0.65604 0.0
H1080 H 0.88289 0.7723 0.17487 0.0
H1081 H 0.79534 0.88779 0.09695 0.0
H1082 H 0.92248 0.81302 0.10163 0.0
H1083 H 0.77701 0.8656 0.17396 0.0
H1084 H 0.84057 0.85952 0.09716 0.0
H1085 H 0.84195 0.8044 0.17378 0.0
C1086 C 0.88293 0.78796 0.15849 0.0
C1087 C 0.9061 0.78971 0.13827 0.0
C1088 C 0.82665 0.86086 0.114 0.0
C1089 C 0.85909 0.82704 0.13691 0.0
C1090 C 0.80061 0.87661 0.11382 0.0
C1091 C 0.78144 0.87766 0.13534 0.0
C1092 C 0.83349 0.84616 0.13587 0.0
C1093 C 0.79045 0.86437 0.15689 0.0
C1094 C 0.85965 0.80654 0.15793 0.0
C1095 C 0.90531 0.81108 0.1177 0.0
N1096 N 0.81533 0.84875 0.15656 0.0
N1097 N 0.88199 0.82867 0.11748 0.0
H1098 H 0.92063 0.79008 0.60029 0.0
H1099 H 0.11775 0.88403 0.68375 0.0
H1100 H 0.91875 0.7757 0.67804 0.0
H1101 H 0.1212 0.91645 0.60833 0.0
H1102 H 0.04459 0.8446 0.68158 0.0
H1103 H 0.9934 0.83807 0.60239 0.0
C1104 C 0.9357 0.79691 0.61775 0.0
C1105 C 0.91429 0.77773 0.63891 0.0
C1106 C 0.06121 0.86049 0.66549 0.0
C1107 C 0.99693 0.8328 0.64158 0.0
C1108 C 0.1031 0.88282 0.66668 0.0
C1109 C 0.12579 0.90345 0.64616 0.0
C1110 C 0.04149 0.85835 0.64355 0.0
C1111 C 0.10495 0.90124 0.62465 0.0
C1112 C 0.97706 0.82452 0.619 0.0
C1113 C 0.93459 0.78892 0.66123 0.0
N1114 N 0.06402 0.87883 0.62384 0.0
N1115 N 0.97484 0.81513 0.66195 0.0
H1116 H 0.13056 0.86236 0.32899 0.0
H1117 H 0.92585 0.80825 0.39909 0.0
H1118 H 0.12851 0.88594 0.40543 0.0
H1119 H 0.93227 0.77556 0.32483 0.0
H1120 H 0.99949 0.8397 0.40206 0.0
H1121 H 0.0577 0.83323 0.32737 0.0
C1122 C 0.11451 0.86094 0.34552 0.0
C1123 C 0.13528 0.8752 0.36753 0.0
C1124 C 0.9847 0.82567 0.38513 0.0
C1125 C 0.0516 0.84291 0.36577 0.0
C1126 C 0.94269 0.80792 0.38337 0.0
C1127 C 0.92264 0.78895 0.3617 0.0
C1128 C 1.00691 0.82486 0.36499 0.0
C1129 C 0.94613 0.78922 0.34201 0.0
C1130 C 0.07289 0.84444 0.34461 0.0
C1131 C 0.11331 0.87394 0.38828 0.0
N1132 N 0.98673 0.80679 0.34414 0.0
N1133 N 0.07257 0.85793 0.38693 0.0
H1134 H 0.13101 0.91296 0.89923 0.0
H1135 H 0.27908 0.11711 0.82785 0.0
H1136 H 0.16406 0.91911 0.82372 0.0
H1137 H 0.25881 0.11502 0.90501 0.0
H1138 H 0.2326 0.04472 0.82609 0.0
H1139 H 0.17334 0.98662 0.90193 0.0
C1140 C 0.14683 0.92976 0.88318 0.0
C1141 C 0.14408 0.90963 0.86124 0.0
C1142 C 0.23828 0.05982 0.84349 0.0
C1143 C 0.19252 0.99394 0.86419 0.0
C1144 C 0.26493 0.10118 0.84449 0.0
C1145 C 0.27398 0.12171 0.86674 0.0
C1146 C 0.21965 0.03858 0.86488 0.0
C1147 C 0.25376 0.09993 0.88764 0.0
C1148 C 0.17115 0.97178 0.88477 0.0
C1149 C 0.1656 0.93306 0.84111 0.0
N1150 N 0.2277 0.05943 0.88625 0.0
N1151 N 0.18874 0.97369 0.84309 0.0
H1152 H 0.15693 0.25045 0.4056 0.0
H1153 H 0.26744 0.16112 0.3236 0.0
H1154 H 0.1802 0.27193 0.32885 0.0
H1155 H 0.23267 0.12359 0.39783 0.0
H1156 H 0.23679 0.20317 0.32632 0.0
H1157 H 0.18531 0.20521 0.4044 0.0
C1158 C 0.1685 0.24601 0.38861 0.0
C1159 C 0.16751 0.26591 0.36743 0.0
C1160 C 0.23564 0.18574 0.34208 0.0
C1161 C 0.19898 0.21372 0.36575 0.0
C1162 C 0.25337 0.16175 0.34055 0.0
C1163 C 0.25298 0.13885 0.36056 0.0
C1164 C 0.21724 0.18732 0.36383 0.0
C1165 C 0.23355 0.14053 0.3819 0.0
C1166 C 0.18429 0.21993 0.38786 0.0
C1167 C 0.18132 0.25791 0.34569 0.0
N1168 N 0.2167 0.16453 0.38304 0.0
N1169 N 0.19676 0.23289 0.34547 0.0
H1170 H 0.1225 0.24448 0.82047 0.0
H1171 H 0.92627 0.13918 0.90462 0.0
H1172 H 0.12715 0.21631 0.8959 0.0
H1173 H 0.92343 0.15144 0.82691 0.0
H1174 H 0.99915 0.16473 0.90222 0.0
H1175 H 0.04931 0.20962 0.82286 0.0
C1176 C 0.10811 0.23097 0.83758 0.0
C1177 C 0.13114 0.2336 0.85805 0.0
C1178 C 0.98258 0.16173 0.88569 0.0
C1179 C 0.04681 0.19309 0.86091 0.0
C1180 C 0.94117 0.14759 0.88711 0.0
C1181 C 0.91946 0.14508 0.86605 0.0
C1182 C 1.00221 0.17349 0.86304 0.0
C1183 C 0.93953 0.15433 0.84364 0.0
C1184 C 0.0662 0.21076 0.8389 0.0
C1185 C 0.11063 0.21486 0.87962 0.0
N1186 N 0.97983 0.16879 0.84277 0.0
N1187 N 0.06968 0.1957 0.88055 0.0
H1188 H 0.8841 0.11086 0.32183 0.0
H1189 H 0.79304 0.91235 0.40492 0.0
H1190 H 0.91978 0.1149 0.39661 0.0
H1191 H 0.77314 0.91272 0.32785 0.0
H1192 H 0.83849 0.98594 0.40343 0.0
H1193 H 0.84224 0.03812 0.32474 0.0
C1194 C 0.88312 0.09644 0.33894 0.0
C1195 C 0.90542 0.11931 0.35904 0.0
C1196 C 0.82408 0.96989 0.38688 0.0
C1197 C 0.85716 0.03507 0.36254 0.0
C1198 C 0.79788 0.92804 0.38779 0.0
C1199 C 0.77831 0.90676 0.3666 0.0
C1200 C 0.83077 0.99041 0.3646 0.0
C1201 C 0.78686 0.92816 0.3447 0.0
C1202 C 0.85923 0.05469 0.34057 0.0
C1203 C 0.9033 0.09856 0.38059 0.0
N1204 N 0.81198 0.96864 0.34432 0.0
N1205 N 0.8794 0.05768 0.38184 0.0
H1206 H 0.86411 0.75394 0.8324 0.0
H1207 H 0.85509 0.93942 0.87863 0.0
H1208 H 0.89953 0.78671 0.90707 0.0
H1209 H 0.7457 0.83607 0.8529 0.0
H1210 H 0.88469 0.8962 0.88358 0.0
H1211 H 0.83427 0.79757 0.83232 0.0
C1212 C 0.86537 0.77024 0.8488 0.0
C1213 C 0.88284 0.76569 0.87005 0.0
C1214 C 0.85415 0.88332 0.87694 0.0
C1215 C 0.85085 0.81702 0.86965 0.0
C1216 C 0.83696 0.90785 0.87419 0.0
C1217 C 0.79769 0.89199 0.86486 0.0
C1218 C 0.83246 0.84294 0.86971 0.0
C1219 C 0.77646 0.85059 0.85921 0.0
C1220 C 0.84853 0.79509 0.8487 0.0
C1221 C 0.88502 0.78846 0.89062 0.0
N1222 N 0.79432 0.82784 0.86128 0.0
N1223 N 0.86931 0.81344 0.8899 0.0
H1224 H 0.14603 0.72025 0.14171 0.0
H1225 H 0.20181 0.56934 0.07623 0.0
H1226 H 0.1658 0.72141 0.06445 0.0
H1227 H 0.11647 0.52705 0.13514 0.0
H1228 H 0.20259 0.63371 0.07714 0.0
H1229 H 0.14522 0.65572 0.14447 0.0
C1230 C 0.14936 0.70663 0.1253 0.0
C1231 C 0.15508 0.72588 0.1027 0.0
C1232 C 0.18415 0.61054 0.09013 0.0
C1233 C 0.15685 0.65367 0.106 0.0
C1234 C 0.18413 0.57407 0.0898 0.0
C1235 C 0.15942 0.54307 0.1058 0.0
C1236 C 0.15971 0.61636 0.10681 0.0
C1237 C 0.13626 0.55044 0.12267 0.0
C1238 C 0.14939 0.67008 0.12693 0.0
C1239 C 0.16084 0.70748 0.08219 0.0
N1240 N 0.137 0.58633 0.1228 0.0
N1241 N 0.16201 0.67283 0.08436 0.0
H1242 H 0.64819 0.19713 0.61102 0.0
H1243 H 0.43403 0.1178 0.56709 0.0
H1244 H 0.58173 0.0727 0.58866 0.0
H1245 H 0.45292 0.15795 0.6416 0.0
H1246 H 0.49454 0.11157 0.56922 0.0
H1247 H 0.58381 0.19475 0.61872 0.0
C1248 C 0.62039 0.16919 0.60808 0.0
C1249 C 0.62086 0.13541 0.59847 0.0
C1250 C 0.48509 0.12121 0.5852 0.0
C1251 C 0.54729 0.13305 0.60671 0.0
C1252 C 0.45056 0.12455 0.58404 0.0
C1253 C 0.43787 0.1373 0.60438 0.0
C1254 C 0.50844 0.13274 0.60644 0.0
C1255 C 0.46109 0.1469 0.62573 0.0
C1256 C 0.58367 0.16796 0.61243 0.0
C1257 C 0.58337 0.10012 0.59505 0.0
N1258 N 0.49578 0.14516 0.6261 0.0
N1259 N 0.54835 0.10019 0.59853 0.0
H1260 H 0.54095 0.58778 0.08658 0.0
H1261 H 0.325 0.45361 0.14439 0.0
H1262 H 0.48001 0.64798 0.11478 0.0
H1263 H 0.35044 0.43686 0.07035 0.0
H1264 H 0.39134 0.51592 0.14646 0.0
H1265 H 0.4805 0.5231 0.094 0.0
C1266 C 0.51508 0.58762 0.09454 0.0
C1267 C 0.51547 0.62389 0.09926 0.0
C1268 C 0.38253 0.49798 0.13001 0.0
C1269 C 0.44652 0.54916 0.10886 0.0
C1270 C 0.34507 0.46229 0.12891 0.0
C1271 C 0.33264 0.43978 0.10727 0.0
C1272 C 0.40786 0.51042 0.10954 0.0
C1273 C 0.35917 0.45308 0.08744 0.0
C1274 C 0.48071 0.55053 0.09893 0.0
C1275 C 0.48127 0.62111 0.11062 0.0
N1276 N 0.39558 0.48725 0.08911 0.0
N1277 N 0.44799 0.58438 0.11481 0.0
H1278 H 0.88576 0.48985 0.63985 0.0
H1279 H 0.90835 0.32555 0.56139 0.0
H1280 H 0.91772 0.50179 0.56395 0.0
H1281 H 0.88955 0.31396 0.63889 0.0
H1282 H 0.91229 0.3908 0.56291 0.0
H1283 H 0.88462 0.42496 0.64066 0.0
C1284 C 0.89181 0.47848 0.6233 0.0
C1285 C 0.9017 0.50116 0.60177 0.0
C1286 C 0.90776 0.37443 0.57972 0.0
C1287 C 0.90122 0.42762 0.60263 0.0
C1288 C 0.90582 0.33723 0.57885 0.0
C1289 C 0.89919 0.31456 0.60004 0.0
C1290 C 0.90216 0.38912 0.60195 0.0
C1291 C 0.89542 0.33082 0.62217 0.0
C1292 C 0.89165 0.44174 0.62383 0.0
C1293 C 0.90996 0.48536 0.58094 0.0
N1294 N 0.89664 0.36702 0.62253 0.0
N1295 N 0.90959 0.44985 0.58192 0.0
H1296 H 0.61366 0.91823 0.06635 0.0
H1297 H 0.41949 0.88748 0.14013 0.0
H1298 H 0.59941 0.89039 0.14283 0.0
H1299 H 0.44321 0.91895 0.06431 0.0
H1300 H 0.48415 0.88825 0.14285 0.0
H1301 H 0.5523 0.92192 0.06692 0.0
C1302 C 0.5979 0.91375 0.08345 0.0
C1303 C 0.61191 0.90451 0.10459 0.0
C1304 C 0.47501 0.8948 0.12563 0.0
C1305 C 0.54001 0.90694 0.10532 0.0
C1306 C 0.43794 0.8939 0.12401 0.0
C1307 C 0.42592 0.90316 0.10195 0.0
C1308 C 0.50001 0.9049 0.105 0.0
C1309 C 0.45127 0.91181 0.08172 0.0
C1310 C 0.56254 0.91546 0.08376 0.0
C1311 C 0.58994 0.89829 0.1262 0.0
N1312 N 0.48685 0.91256 0.08377 0.0
N1313 N 0.55477 0.89922 0.12598 0.0
H1314 H 0.72362 0.6016 0.64425 0.0
H1315 H 0.56831 0.39576 0.57953 0.0
H1316 H 0.72411 0.582 0.56705 0.0
H1317 H 0.52986 0.4411 0.63927 0.0
H1318 H 0.63369 0.45834 0.57988 0.0
H1319 H 0.65859 0.53858 0.64729 0.0
C1320 C 0.70975 0.58454 0.62791 0.0
C1321 C 0.72886 0.59761 0.60524 0.0
C1322 C 0.6111 0.45432 0.59313 0.0
C1323 C 0.65608 0.52446 0.60886 0.0
C1324 C 0.57407 0.41848 0.59312 0.0
C1325 C 0.54386 0.41323 0.60949 0.0
C1326 C 0.61822 0.48491 0.60988 0.0
C1327 C 0.55256 0.444 0.62644 0.0
C1328 C 0.67292 0.54839 0.6297 0.0
C1329 C 0.7102 0.57335 0.58482 0.0
N1330 N 0.58896 0.47854 0.62625 0.0
N1331 N 0.67519 0.53791 0.58714 0.0
H1332 H 0.35431 0.93207 0.42975 0.0
H1333 H 0.47592 0.83441 0.38573 0.0
H1334 H 0.32287 0.87547 0.35933 0.0
H1335 H 0.53827 0.95576 0.4136 0.0
H1336 H 0.4171 0.84219 0.37733 0.0
H1337 H 0.41959 0.93545 0.42699 0.0
C1338 C 0.3617 0.92137 0.41339 0.0
C1339 C 0.33373 0.90472 0.39441 0.0
C1340 C 0.44402 0.8672 0.38494 0.0
C1341 C 0.40732 0.90582 0.39186 0.0
C1342 C 0.4777 0.86287 0.38968 0.0
C1343 C 0.51206 0.89405 0.40103 0.0
C1344 C 0.44448 0.90265 0.39197 0.0
C1345 C 0.51217 0.93022 0.40571 0.0
C1346 C 0.3988 0.92303 0.41189 0.0
C1347 C 0.34419 0.88977 0.374 0.0
N1348 N 0.47878 0.93313 0.40173 0.0
N1349 N 0.37986 0.88987 0.37345 0.0
H1350 H 0.65581 0.46567 0.89096 0.0
H1351 H 0.43947 0.33221 0.93654 0.0
H1352 H 0.5929 0.52231 0.92155 0.0
H1353 H 0.46163 0.31093 0.86273 0.0
H1354 H 0.50041 0.39863 0.93518 0.0
H1355 H 0.59035 0.40523 0.88271 0.0
C1356 C 0.62854 0.46588 0.89564 0.0
C1357 C 0.63042 0.4992 0.90765 0.0
C1358 C 0.4916 0.37971 0.91914 0.0
C1359 C 0.55553 0.42962 0.89874 0.0
C1360 C 0.45678 0.34198 0.91986 0.0
C1361 C 0.44489 0.31657 0.89951 0.0
C1362 C 0.5161 0.39145 0.89836 0.0
C1363 C 0.46916 0.33015 0.87856 0.0
C1364 C 0.59118 0.43125 0.89096 0.0
C1365 C 0.59355 0.49712 0.91322 0.0
N1366 N 0.50413 0.36642 0.87866 0.0
N1367 N 0.55794 0.4628 0.90928 0.0
H1368 H 0.08567 0.58905 0.41606 0.0
H1369 H 0.16534 0.45206 0.35797 0.0
H1370 H 0.20598 0.64588 0.38673 0.0
H1371 H 0.11236 0.43058 0.42936 0.0
H1372 H 0.16386 0.51569 0.35607 0.0
H1373 H 0.07874 0.52337 0.40809 0.0
C1374 C 0.11063 0.58792 0.40773 0.0
C1375 C 0.14707 0.62352 0.40283 0.0
C1376 C 0.15172 0.49643 0.37184 0.0
C1377 C 0.1383 0.54759 0.39273 0.0
C1378 C 0.15199 0.45993 0.3728 0.0
C1379 C 0.13812 0.43563 0.39367 0.0
C1380 C 0.13656 0.50797 0.39164 0.0
C1381 C 0.12265 0.44807 0.41279 0.0
C1382 C 0.1064 0.55025 0.40306 0.0
C1383 C 0.17748 0.61952 0.39105 0.0
N1384 N 0.12198 0.48307 0.41125 0.0
N1385 N 0.1726 0.58225 0.38662 0.0
H1386 H 0.73482 0.14575 0.85848 0.0
H1387 H 0.55109 0.14844 0.86263 0.0
H1388 H 0.7272 0.14477 0.93666 0.0
H1389 H 0.56485 0.14794 0.94033 0.0
H1390 H 0.61475 0.14874 0.85745 0.0
H1391 H 0.67101 0.14579 0.85612 0.0
C1392 C 0.71928 0.14486 0.87512 0.0
C1393 C 0.73591 0.14455 0.89781 0.0
C1394 C 0.60428 0.14893 0.87566 0.0
C1395 C 0.66344 0.146 0.89548 0.0
C1396 C 0.56801 0.14921 0.87857 0.0
C1397 C 0.55281 0.14836 0.90194 0.0
C1398 C 0.62546 0.14789 0.89636 0.0
C1399 C 0.57547 0.14861 0.92199 0.0
C1400 C 0.68292 0.14533 0.87383 0.0
C1401 C 0.71522 0.14456 0.9188 0.0
N1402 N 0.61034 0.14825 0.91873 0.0
N1403 N 0.68032 0.14527 0.91711 0.0
H1404 H 0.45344 0.50362 0.41687 0.0
H1405 H 0.59201 0.71859 0.35756 0.0
H1406 H 0.39712 0.56668 0.38636 0.0
H1407 H 0.61126 0.68961 0.43014 0.0
H1408 H 0.52828 0.65346 0.35575 0.0
H1409 H 0.51926 0.56222 0.40891 0.0
C1410 C 0.45472 0.52957 0.40827 0.0
C1411 C 0.41922 0.53037 0.40304 0.0
C1412 C 0.54708 0.66116 0.37178 0.0
C1413 C 0.49529 0.5973 0.39296 0.0
C1414 C 0.5836 0.69793 0.37271 0.0
C1415 C 0.60728 0.70907 0.39389 0.0
C1416 C 0.53491 0.63516 0.39192 0.0
C1417 C 0.59422 0.68186 0.41336 0.0
C1418 C 0.49246 0.56291 0.40361 0.0
C1419 C 0.42339 0.56458 0.39094 0.0
N1420 N 0.55922 0.64615 0.41185 0.0
N1421 N 0.46074 0.59688 0.38652 0.0
H1422 H 0.89894 0.58738 0.85952 0.0
H1423 H 0.92724 0.42644 0.93777 0.0
H1424 H 0.92134 0.59451 0.93663 0.0
H1425 H 0.89785 0.40851 0.8615 0.0
H1426 H 0.92723 0.48971 0.93633 0.0
H1427 H 0.90327 0.52533 0.85796 0.0
C1428 C 0.90587 0.57653 0.87594 0.0
C1429 C 0.91024 0.59629 0.89823 0.0
C1430 C 0.92049 0.47207 0.91983 0.0
C1431 C 0.91386 0.52495 0.89677 0.0
C1432 C 0.92022 0.43569 0.92072 0.0
C1433 C 0.91229 0.412 0.89978 0.0
C1434 C 0.91296 0.48553 0.89774 0.0
C1435 C 0.90362 0.42565 0.87813 0.0
C1436 C 0.90777 0.54085 0.87512 0.0
C1437 C 0.91808 0.58038 0.91907 0.0
N1438 N 0.90437 0.46165 0.87761 0.0
N1439 N 0.91947 0.54581 0.91783 0.0
H1440 H 0.24379 0.37546 0.31798 0.0
H1441 H 0.16752 0.37646 0.18508 0.0
H1442 H 0.1521 0.4066 0.30414 0.0
H1443 H 0.29099 0.40984 0.19893 0.0
H1444 H 0.1589 0.38357 0.22874 0.0
H1445 H 0.26047 0.38419 0.27438 0.0
C1446 C 0.22766 0.38476 0.30592 0.0
C1447 C 0.19608 0.38964 0.31471 0.0
C1448 C 0.18799 0.38975 0.22208 0.0
C1449 C 0.21428 0.39871 0.26494 0.0
C1450 C 0.19294 0.38587 0.19716 0.0
C1451 C 0.22979 0.39185 0.18832 0.0
C1452 C 0.21992 0.39911 0.23823 0.0
C1453 C 0.26171 0.40397 0.20494 0.0
C1454 C 0.23703 0.38955 0.28106 0.0
C1455 C 0.1761 0.4016 0.29816 0.0
N1456 N 0.25586 0.40647 0.2291 0.0
N1457 N 0.185 0.405 0.27407 0.0
H1458 H 0.877 0.27598 0.6937 0.0
H1459 H 0.84416 0.12668 0.80053 0.0
H1460 H 0.81992 0.14772 0.68328 0.0
H1461 H 0.83466 0.2316 0.81537 0.0
H1462 H 0.84515 0.1393 0.75706 0.0
H1463 H 0.8689 0.26533 0.73788 0.0
C1464 C 0.86185 0.24553 0.70069 0.0
C1465 C 0.84892 0.21261 0.6848 0.0
C1466 C 0.84255 0.15949 0.76974 0.0
C1467 C 0.8408 0.20048 0.73515 0.0
C1468 C 0.84168 0.1521 0.79453 0.0
C1469 C 0.83768 0.17716 0.81142 0.0
C1470 C 0.84049 0.19296 0.76163 0.0
C1471 C 0.83735 0.21135 0.80281 0.0
C1472 C 0.85742 0.23956 0.72586 0.0
C1473 C 0.82994 0.17389 0.69479 0.0
N1474 N 0.83869 0.21834 0.77837 0.0
N1475 N 0.82708 0.16895 0.71934 0.0
H1476 H 0.63831 0.89113 0.19773 0.0
H1477 H 0.63891 0.7501 0.30335 0.0
H1478 H 0.6707 0.80006 0.18499 0.0
H1479 H 0.66833 0.87269 0.31635 0.0
H1480 H 0.63277 0.75929 0.26004 0.0
H1481 H 0.63146 0.8753 0.241 0.0
C1482 C 0.64359 0.86744 0.20395 0.0
C1483 C 0.65604 0.8475 0.18766 0.0
C1484 C 0.64016 0.78402 0.27239 0.0
C1485 C 0.64713 0.82864 0.23733 0.0
C1486 C 0.64371 0.77893 0.29718 0.0
C1487 C 0.65508 0.81103 0.31358 0.0
C1488 C 0.64697 0.82119 0.26383 0.0
C1489 C 0.65976 0.84721 0.30444 0.0
C1490 C 0.63964 0.85851 0.22871 0.0
C1491 C 0.6613 0.81637 0.19682 0.0
N1492 N 0.65588 0.85139 0.28012 0.0
N1493 N 0.65703 0.80803 0.22111 0.0
H1494 H 0.76018 0.64211 0.70139 0.0
H1495 H 0.89192 0.62325 0.8068 0.0
H1496 H 0.8782 0.65781 0.68914 0.0
H1497 H 0.80793 0.66451 0.8208 0.0
H1498 H 0.87644 0.61914 0.76357 0.0
H1499 H 0.76749 0.63437 0.74482 0.0
C1500 C 0.78771 0.64397 0.70774 0.0
C1501 C 0.81918 0.6519 0.6915 0.0
C1502 C 0.86105 0.62864 0.77611 0.0
C1503 C 0.82691 0.64148 0.74133 0.0
C1504 C 0.86974 0.63095 0.80086 0.0
C1505 C 0.85171 0.64498 0.8175 0.0
C1506 C 0.83344 0.63962 0.76781 0.0
C1507 C 0.82263 0.65368 0.80867 0.0
C1508 C 0.79167 0.63934 0.73259 0.0
C1509 C 0.85335 0.6523 0.70088 0.0
N1510 N 0.81457 0.65111 0.78435 0.0
N1511 N 0.85636 0.64733 0.72518 0.0
H1512 H 0.24508 0.87807 0.1859 0.0
H1513 H 0.16457 0.80173 0.31874 0.0
H1514 H 0.14518 0.75874 0.19881 0.0
H1515 H 0.28889 0.88878 0.30435 0.0
H1516 H 0.15486 0.78604 0.27506 0.0
H1517 H 0.26046 0.88428 0.22946 0.0
C1518 C 0.22656 0.85306 0.19777 0.0
C1519 C 0.19319 0.81821 0.18864 0.0
C1520 C 0.18436 0.80819 0.2816 0.0
C1521 C 0.21033 0.82534 0.23857 0.0
C1522 C 0.18995 0.81698 0.30653 0.0
C1523 C 0.22741 0.84702 0.3152 0.0
C1524 C 0.21633 0.82997 0.26531 0.0
C1525 C 0.25923 0.86595 0.29846 0.0
C1526 C 0.23534 0.85663 0.22266 0.0
C1527 C 0.17048 0.78669 0.20503 0.0
N1528 N 0.25281 0.85764 0.27433 0.0
N1529 N 0.17904 0.79123 0.2292 0.0
H1530 H 0.38506 0.15685 0.81764 0.0
H1531 H 0.38207 0.23789 0.68644 0.0
H1532 H 0.41609 0.28007 0.80558 0.0
H1533 H 0.40956 0.14307 0.69776 0.0
H1534 H 0.39219 0.25327 0.73005 0.0
H1535 H 0.39177 0.14962 0.77383 0.0
C1536 C 0.39386 0.18254 0.80592 0.0
C1537 C 0.3992 0.21886 0.81532 0.0
C1538 C 0.39638 0.22936 0.72286 0.0
C1539 C 0.40613 0.21057 0.76517 0.0
C1540 C 0.39068 0.22063 0.69795 0.0
C1541 C 0.39402 0.18853 0.68843 0.0
C1542 C 0.40501 0.20553 0.73835 0.0
C1543 C 0.40551 0.16737 0.70434 0.0
C1544 C 0.39755 0.17837 0.78088 0.0
C1545 C 0.41066 0.25116 0.79912 0.0
N1546 N 0.40987 0.17573 0.72853 0.0
N1547 N 0.41301 0.24606 0.77484 0.0
H1548 H 0.34776 0.22276 0.97673 0.0
H1549 H 0.2012 0.29596 0.03277 0.0
H1550 H 0.26447 0.23936 0.93275 0.0
H1551 H 0.30518 0.30517 0.06907 0.0
H1552 H 0.21648 0.26639 0.99734 0.0
H1553 H 0.32359 0.24186 0.01273 0.0
C1554 C 0.3237 0.22933 0.9747 0.0
C1555 C 0.30811 0.22924 0.95167 0.0
C1556 C 0.23577 0.27492 0.01319 0.0
C1557 C 0.2808 0.25234 0.99277 0.0
C1558 C 0.22717 0.29204 0.03336 0.0
C1559 C 0.25205 0.30376 0.05402 0.0
C1560 C 0.26909 0.2689 0.01386 0.0
C1561 C 0.28494 0.29702 0.05374 0.0
C1562 C 0.31021 0.24086 0.99523 0.0
C1563 C 0.27759 0.23931 0.95015 0.0
N1564 N 0.29234 0.28016 0.03417 0.0
N1565 N 0.26507 0.2506 0.97032 0.0
H1566 H 0.12728 0.29177 0.46993 0.0
H1567 H 0.90648 0.21924 0.52371 0.0
H1568 H 0.03241 0.29943 0.43261 0.0
H1569 H 1.00513 0.23721 0.56939 0.0
H1570 H 0.95043 0.237 0.48829 0.0
H1571 H 0.08201 0.26273 0.50528 0.0
C1572 C 0.09728 0.28758 0.46909 0.0
C1573 C 0.08419 0.29871 0.44816 0.0
C1574 C 0.96244 0.23659 0.50604 0.0
C1575 C 0.03192 0.26448 0.48817 0.0
C1576 C 0.93695 0.22573 0.52627 0.0
C1577 C 0.95183 0.22638 0.54959 0.0
C1578 C 1.00329 0.2483 0.50907 0.0
C1579 C 0.99242 0.2366 0.55174 0.0
C1580 C 0.07136 0.27078 0.48921 0.0
C1581 C 0.04447 0.29169 0.44811 0.0
N1582 N 1.01677 0.24734 0.53182 0.0
N1583 N 1.02006 0.27516 0.46761 0.0
H1584 H 0.75367 0.91268 0.0321 0.0
H1585 H 0.83748 0.13436 0.9765 0.0
H1586 H 0.75672 1.01218 0.07063 0.0
H1587 H 0.80085 0.02963 0.93173 0.0
H1588 H 0.82134 0.0919 0.01277 0.0
H1589 H 0.78261 0.95668 0.99636 0.0
C1590 C 0.76019 0.94346 0.03312 0.0
C1591 C 0.75161 0.9581 0.05438 0.0
C1592 C 0.81734 0.07829 0.99497 0.0
C1593 C 0.78606 1.00905 0.01389 0.0
C1594 C 0.82706 0.10273 0.97426 0.0
C1595 C 0.82053 0.08564 0.95101 0.0
C1596 C 0.80125 0.03646 0.99242 0.0
C1597 C 0.80599 0.04403 0.9493 0.0
C1598 C 0.77696 0.96868 0.01277 0.0
C1599 C 0.76203 0.99891 0.05472 0.0
N1600 N 0.79669 0.02088 0.96964 0.0
N1601 N 0.77851 0.02269 0.03492 0.0
H1602 H 0.82392 0.69911 0.52796 0.0
H1603 H 0.75261 0.84519 0.469 0.0
H1604 H 0.8065 0.78332 0.57056 0.0
H1605 H 0.74348 0.74015 0.43408 0.0
H1606 H 0.78195 0.83086 0.50488 0.0
H1607 H 0.80645 0.72325 0.49127 0.0
C1608 C 0.81757 0.72341 0.52953 0.0
C1609 C 0.81684 0.73926 0.55235 0.0
C1610 C 0.77355 0.81117 0.48922 0.0
C1611 C 0.7956 0.76647 0.51052 0.0
C1612 C 0.75656 0.81922 0.46879 0.0
C1613 C 0.74489 0.79373 0.44839 0.0
C1614 C 0.77951 0.7778 0.48906 0.0
C1615 C 0.75164 0.76087 0.44916 0.0
C1616 C 0.80697 0.73688 0.50862 0.0
C1617 C 0.80715 0.77006 0.55331 0.0
N1618 N 0.76837 0.754 0.46898 0.0
N1619 N 0.79673 0.78251 0.53279 0.0
H1620 H 0.92487 0.7461 0.97079 0.0
H1621 H 0.14464 0.81615 0.02587 0.0
H1622 H 1.01678 0.73099 0.93527 0.0
H1623 H 0.04742 0.80737 0.06949 0.0
H1624 H 0.10088 0.7967 0.99002 0.0
H1625 H 0.97114 0.77782 0.00538 0.0
C1626 C 0.95448 0.74927 0.97019 0.0
C1627 C 0.96644 0.73531 0.95 0.0
C1628 C 0.08924 0.79962 0.00738 0.0
C1629 C 1.01992 0.77252 0.98917 0.0
C1630 C 0.11455 0.81138 0.02777 0.0
C1631 C 0.09979 0.81367 0.05065 0.0
C1632 C 0.04884 0.79001 0.00988 0.0
C1633 C 0.05992 0.80579 0.05215 0.0
C1634 C 0.98099 0.7676 0.98987 0.0
C1635 C 1.00567 0.74098 0.95022 0.0
N1636 N 0.03577 0.79411 0.03214 0.0
N1637 N 0.03071 0.75902 0.96932 0.0
H1638 H 0.1981 0.91502 0.46964 0.0
H1639 H 0.34233 0.13433 0.52715 0.0
H1640 H 0.30319 1.0102 0.43438 0.0
H1641 H 0.25907 0.03301 0.5703 0.0
H1642 H 0.31929 0.09156 0.49083 0.0
H1643 H 0.21239 0.95946 0.50515 0.0
C1644 C 0.2241 0.94495 0.46929 0.0
C1645 C 0.24959 0.95835 0.4489 0.0
C1646 C 0.3057 0.07877 0.50823 0.0
C1647 C 0.26549 1.00979 0.48916 0.0
C1648 C 0.31855 0.10346 0.52893 0.0
C1649 C 0.30266 0.08737 0.55183 0.0
C1650 C 0.27657 0.0377 0.51039 0.0
C1651 C 0.27244 0.04661 0.55303 0.0
C1652 C 0.23213 0.97042 0.48951 0.0
C1653 C 0.28249 0.99799 0.44948 0.0
N1654 N 0.26052 0.02318 0.5327 0.0
N1655 N 0.28934 0.02204 0.4691 0.0
loop_
_geom_bond_atom_site_label_1
_geom_bond_atom_site_label_2
_geom_bond_distance
_geom_bond_site_symmetry_2
_ccdc_geom_bond_type
Gd0 N31 2.661 . S
Gd0 N37 2.601 . S
Gd0 O44 2.545 . S
Gd0 O45 2.606 . S
Gd0 O47 2.429 . S
Gd0 O48 2.545 . S
Gd0 O49 2.412 . S
Gd0 O51 2.362 . S
Gd0 O52 2.324 . S
Gd0 C59 2.828 . S
Gd1 N10 2.661 . S
Gd1 N14 2.601 . S
Gd1 O45 2.362 . S
Gd1 O46 2.324 . S
Gd1 O50 2.545 . S
Gd1 O51 2.606 . S
Gd1 O53 2.429 . S
Gd1 O54 2.545 . S
Gd1 O55 2.412 . S
Gd1 C68 2.828 . S
C2 C5 1.417 . S
C2 C7 1.431 1_455 S
C2 C8 1.412 . S
C3 C6 1.437 . S
C3 C7 1.317 1_455 S
C3 H22 0.929 1_455 S
C4 C5 1.426 . S
C4 C6 1.413 . S
C4 N14 1.359 . S
C5 C2 1.417 . S
C5 C4 1.426 . S
C5 N10 1.350 . S
C6 C3 1.437 . S
C6 C4 1.413 . S
C6 C16 1.391 . S
C7 C2 1.431 1_655 S
C7 C3 1.317 1_655 S
C7 H18 0.930 . S
C8 C2 1.412 . S
C8 C9 1.355 . S
C8 H20 0.930 1_455 S
C9 C8 1.355 . S
C9 C11 1.402 . S
C9 H21 0.930 . S
N10 Gd1 2.661 . S
N10 C5 1.350 . S
N10 C11 1.307 . S
C11 C9 1.402 . S
C11 N10 1.307 . S
C11 H12 0.930 . S
H12 C11 0.930 . S
C13 N14 1.334 . S
C13 C15 1.394 . S
C13 H17 0.930 . S
N14 Gd1 2.601 . S
N14 C4 1.359 . S
N14 C13 1.334 . S
C15 C13 1.394 . S
C15 C16 1.359 . S
C15 H27 0.930 . S
C16 C6 1.391 . S
C16 C15 1.359 . S
C16 H28 0.929 . S
H17 C13 0.930 . S
H18 C7 0.930 . S
H19 C36 0.930 . S
H20 C8 0.930 1_655 S
H21 C9 0.930 . S
H22 C3 0.929 1_655 S
H23 C41 0.930 . S
H24 C32 0.930 . S
H25 C33 0.930 . S
H26 C57 0.929 . S
H27 C15 0.930 . S
H28 C16 0.929 . S
H29 C58 0.930 . S
H30 C39 0.930 . S
N31 Gd0 2.661 . S
N31 C35 1.350 . S
N31 C36 1.307 . S
C32 H24 0.930 . S
C32 C33 1.355 . S
C32 C34 1.412 . S
C33 H25 0.930 . S
C33 C32 1.355 . S
C33 C36 1.402 . S
C34 C32 1.412 . S
C34 C35 1.417 . S
C34 C58 1.431 . S
C35 N31 1.350 . S
C35 C34 1.417 . S
C35 C38 1.426 . S
C36 H19 0.930 . S
C36 N31 1.307 . S
C36 C33 1.402 . S
N37 Gd0 2.601 . S
N37 C38 1.359 . S
N37 C41 1.334 . S
C38 C35 1.426 . S
C38 N37 1.359 . S
C38 C42 1.413 . S
C39 H30 0.930 . S
C39 C40 1.359 . S
C39 C41 1.394 . S
C40 C39 1.359 . S
C40 C42 1.391 . S
C40 H43 0.929 . S
C41 H23 0.930 . S
C41 N37 1.334 . S
C41 C39 1.394 . S
C42 C38 1.413 . S
C42 C40 1.391 . S
C42 C57 1.437 . S
H43 C40 0.929 . S
O44 Gd0 2.545 . S
O44 C59 1.258 . S
O45 Gd0 2.606 . S
O45 Gd1 2.362 . S
O45 C56 1.284 . S
O46 Gd1 2.324 . S
O46 C66 1.254 . S
O47 Gd0 2.429 . S
O47 C66 1.268 . S
O48 Gd0 2.545 . S
O48 C56 1.250 . S
O49 Gd0 2.412 . S
O49 C59 1.252 . S
O50 Gd1 2.545 . S
O50 C68 1.258 . S
O51 Gd0 2.362 . S
O51 Gd1 2.606 . S
O51 C67 1.284 . S
O52 Gd0 2.324 . S
O52 C75 1.254 . S
O53 Gd1 2.429 . S
O53 C75 1.268 . S
O54 Gd1 2.545 . S
O54 C67 1.250 . S
O55 Gd1 2.412 . S
O55 C68 1.252 . S
C56 O45 1.284 . S
C56 O48 1.250 . S
C57 H26 0.929 . S
C57 C42 1.437 . S
C57 C58 1.317 . S
C58 H29 0.930 . S
C58 C34 1.431 . S
C58 C57 1.317 . S
C59 Gd0 2.828 . S
C59 O44 1.258 . S
C59 O49 1.252 . S
C59 C60 1.497 . S
C60 C59 1.497 . S
C60 C61 1.395 . S
C60 C62 1.380 . S
C61 C60 1.395 . S
C61 C64 1.398 . S
C61 H76 0.930 . S
C62 C60 1.380 . S
C62 C63 1.391 . S
C62 H77 0.930 . S
C63 C62 1.391 . S
C63 C65 1.387 . S
C64 C61 1.398 . S
C64 C65 1.380 . S
C64 H78 0.930 . S
C65 C63 1.387 . S
C65 C64 1.380 . S
C65 H79 0.930 . S
C66 O46 1.254 . S
C66 O47 1.268 . S
C67 O51 1.284 . S
C67 O54 1.250 . S
C68 Gd1 2.828 . S
C68 O50 1.258 . S
C68 O55 1.252 . S
C68 C69 1.497 . S
C69 C68 1.497 . S
C69 C70 1.395 . S
C69 C71 1.380 . S
C70 C69 1.395 . S
C70 C73 1.398 . S
C70 H80 0.930 . S
C71 C69 1.380 . S
C71 C72 1.391 . S
C71 H81 0.930 . S
C72 C71 1.391 . S
C72 C74 1.387 . S
C73 C70 1.398 . S
C73 C74 1.380 . S
C73 H82 0.930 . S
C74 C72 1.387 . S
C74 C73 1.380 . S
C74 H83 0.930 . S
C75 O52 1.254 . S
C75 O53 1.268 . S
H76 C61 0.930 . S
H77 C62 0.930 . S
H78 C64 0.930 . S
H79 C65 0.930 . S
H80 C70 0.930 . S
H81 C71 0.930 . S
H82 C73 0.930 . S
H83 C74 0.930 . S
Gd84 N115 2.661 . S
Gd84 N121 2.601 . S
Gd84 O128 2.545 . S
Gd84 O129 2.606 . S
Gd84 O131 2.429 . S
Gd84 O132 2.545 . S
Gd84 O133 2.412 . S
Gd84 O135 2.362 . S
Gd84 O136 2.324 . S
Gd84 C143 2.828 . S
Gd85 N94 2.661 . S
Gd85 N98 2.601 . S
Gd85 O129 2.362 . S
Gd85 O130 2.324 . S
Gd85 O134 2.545 . S
Gd85 O135 2.606 . S
Gd85 O137 2.429 . S
Gd85 O138 2.545 . S
Gd85 O139 2.412 . S
Gd85 C152 2.828 . S
C86 C89 1.417 . S
C86 C91 1.431 1_545 S
C86 C92 1.412 . S
C87 C90 1.437 . S
C87 C91 1.317 1_545 S
C87 H106 0.929 1_545 S
C88 C89 1.426 . S
C88 C90 1.413 . S
C88 N98 1.359 . S
C89 C86 1.417 . S
C89 C88 1.426 . S
C89 N94 1.350 . S
C90 C87 1.437 . S
C90 C88 1.413 . S
C90 C100 1.391 . S
C91 C86 1.431 1_565 S
C91 C87 1.317 1_565 S
C91 H102 0.930 . S
C92 C86 1.412 . S
C92 C93 1.355 . S
C92 H104 0.930 1_545 S
C93 C92 1.355 . S
C93 C95 1.402 . S
C93 H105 0.930 . S
N94 Gd85 2.661 . S
N94 C89 1.350 . S
N94 C95 1.307 . S
C95 C93 1.402 . S
C95 N94 1.307 . S
C95 H96 0.930 . S
H96 C95 0.930 . S
C97 N98 1.334 . S
C97 C99 1.394 . S
C97 H101 0.930 . S
N98 Gd85 2.601 . S
N98 C88 1.359 . S
N98 C97 1.334 . S
C99 C97 1.394 . S
C99 C100 1.359 . S
C99 H111 0.930 . S
C100 C90 1.391 . S
C100 C99 1.359 . S
C100 H112 0.929 . S
H101 C97 0.930 . S
H102 C91 0.930 . S
H103 C120 0.930 . S
H104 C92 0.930 1_565 S
H105 C93 0.930 . S
H106 C87 0.929 1_565 S
H107 C125 0.930 . S
H108 C116 0.930 . S
H109 C117 0.930 . S
H110 C141 0.929 1_455 S
H111 C99 0.930 . S
H112 C100 0.929 . S
H113 C142 0.930 1_455 S
H114 C123 0.930 . S
N115 Gd84 2.661 . S
N115 C119 1.350 . S
N115 C120 1.307 . S
C116 H108 0.930 . S
C116 C117 1.355 . S
C116 C118 1.412 . S
C117 H109 0.930 . S
C117 C116 1.355 . S
C117 C120 1.402 . S
C118 C116 1.412 . S
C118 C119 1.417 . S
C118 C142 1.431 . S
C119 N115 1.350 . S
C119 C118 1.417 . S
C119 C122 1.426 . S
C120 H103 0.930 . S
C120 N115 1.307 . S
C120 C117 1.402 . S
N121 Gd84 2.601 . S
N121 C122 1.359 . S
N121 C125 1.334 . S
C122 C119 1.426 . S
C122 N121 1.359 . S
C122 C126 1.413 . S
C123 H114 0.930 . S
C123 C124 1.359 . S
C123 C125 1.394 . S
C124 C123 1.359 . S
C124 C126 1.391 . S
C124 H127 0.929 . S
C125 H107 0.930 . S
C125 N121 1.334 . S
C125 C123 1.394 . S
C126 C122 1.413 . S
C126 C124 1.391 . S
C126 C141 1.437 . S
H127 C124 0.929 . S
O128 Gd84 2.545 . S
O128 C143 1.258 . S
O129 Gd84 2.606 . S
O129 Gd85 2.362 . S
O129 C140 1.284 . S
O130 Gd85 2.324 . S
O130 C150 1.254 . S
O131 Gd84 2.429 . S
O131 C150 1.268 . S
O132 Gd84 2.545 . S
O132 C140 1.250 . S
O133 Gd84 2.412 . S
O133 C143 1.252 . S
O134 Gd85 2.545 . S
O134 C152 1.258 . S
O135 Gd84 2.362 . S
O135 Gd85 2.606 . S
O135 C151 1.284 . S
O136 Gd84 2.324 . S
O136 C159 1.254 . S
O137 Gd85 2.429 . S
O137 C159 1.268 . S
O138 Gd85 2.545 . S
O138 C151 1.250 . S
O139 Gd85 2.412 . S
O139 C152 1.252 . S
C140 O129 1.284 . S
C140 O132 1.250 . S
C141 H110 0.929 1_655 S
C141 C126 1.437 . S
C141 C142 1.317 . S
C142 H113 0.930 1_655 S
C142 C118 1.431 . S
C142 C141 1.317 . S
C143 Gd84 2.828 . S
C143 O128 1.258 . S
C143 O133 1.252 . S
C143 C144 1.497 1_655 S
C144 C143 1.497 1_455 S
C144 C145 1.395 . S
C144 C146 1.380 . S
C145 C144 1.395 . S
C145 C148 1.398 . S
C145 H160 0.930 . S
C146 C144 1.380 . S
C146 C147 1.391 . S
C146 H161 0.930 . S
C147 C146 1.391 . S
C147 C149 1.387 . S
C148 C145 1.398 . S
C148 C149 1.380 . S
C148 H162 0.930 . S
C149 C147 1.387 . S
C149 C148 1.380 . S
C149 H163 0.930 . S
C150 O130 1.254 . S
C150 O131 1.268 . S
C151 O135 1.284 . S
C151 O138 1.250 . S
C152 Gd85 2.828 . S
C152 O134 1.258 . S
C152 O139 1.252 . S
C152 C153 1.497 . S
C153 C152 1.497 . S
C153 C154 1.395 . S
C153 C155 1.380 . S
C154 C153 1.395 . S
C154 C157 1.398 . S
C154 H164 0.930 . S
C155 C153 1.380 . S
C155 C156 1.391 . S
C155 H165 0.930 . S
C156 C155 1.391 . S
C156 C158 1.387 . S
C157 C154 1.398 . S
C157 C158 1.380 . S
C157 H166 0.930 . S
C158 C156 1.387 . S
C158 C157 1.380 . S
C158 H167 0.930 . S
C159 O136 1.254 . S
C159 O137 1.268 . S
H160 C145 0.930 . S
H161 C146 0.930 . S
H162 C148 0.930 . S
H163 C149 0.930 . S
H164 C154 0.930 . S
H165 C155 0.930 . S
H166 C157 0.930 . S
H167 C158 0.930 . S
Gd168 N199 2.661 . S
Gd168 N205 2.601 . S
Gd168 O212 2.545 . S
Gd168 O213 2.606 . S
Gd168 O215 2.429 . S
Gd168 O216 2.545 . S
Gd168 O217 2.412 . S
Gd168 O219 2.362 . S
Gd168 O220 2.324 . S
Gd168 C227 2.828 . S
Gd169 N178 2.661 . S
Gd169 N182 2.601 . S
Gd169 O213 2.362 . S
Gd169 O214 2.324 . S
Gd169 O218 2.545 . S
Gd169 O219 2.606 . S
Gd169 O221 2.429 . S
Gd169 O222 2.545 . S
Gd169 O223 2.412 . S
Gd169 C236 2.828 . S
C170 C173 1.417 . S
C170 C175 1.431 . S
C170 C176 1.412 . S
C171 C174 1.437 . S
C171 C175 1.317 . S
C171 H190 0.929 . S
C172 C173 1.426 . S
C172 C174 1.413 . S
C172 N182 1.359 . S
C173 C170 1.417 . S
C173 C172 1.426 . S
C173 N178 1.350 . S
C174 C171 1.437 . S
C174 C172 1.413 . S
C174 C184 1.391 . S
C175 C170 1.431 . S
C175 C171 1.317 . S
C175 H186 0.930 . S
C176 C170 1.412 . S
C176 C177 1.355 . S
C176 H188 0.930 . S
C177 C176 1.355 . S
C177 C179 1.402 . S
C177 H189 0.930 . S
N178 Gd169 2.661 . S
N178 C173 1.350 . S
N178 C179 1.307 . S
C179 C177 1.402 . S
C179 N178 1.307 . S
C179 H180 0.930 . S
H180 C179 0.930 . S
C181 N182 1.334 . S
C181 C183 1.394 . S
C181 H185 0.930 . S
N182 Gd169 2.601 . S
N182 C172 1.359 . S
N182 C181 1.334 . S
C183 C181 1.394 . S
C183 C184 1.359 . S
C183 H195 0.930 . S
C184 C174 1.391 . S
C184 C183 1.359 . S
C184 H196 0.929 . S
H185 C181 0.930 . S
H186 C175 0.930 . S
H187 C204 0.930 . S
H188 C176 0.930 . S
H189 C177 0.930 . S
H190 C171 0.929 . S
H191 C209 0.930 . S
H192 C200 0.930 . S
H193 C201 0.930 . S
H194 C225 0.929 1_545 S
H195 C183 0.930 . S
H196 C184 0.929 . S
H197 C226 0.930 1_545 S
H198 C207 0.930 . S
N199 Gd168 2.661 . S
N199 C203 1.350 . S
N199 C204 1.307 . S
C200 H192 0.930 . S
C200 C201 1.355 . S
C200 C202 1.412 . S
C201 H193 0.930 . S
C201 C200 1.355 . S
C201 C204 1.402 . S
C202 C200 1.412 . S
C202 C203 1.417 . S
C202 C226 1.431 . S
C203 N199 1.350 . S
C203 C202 1.417 . S
C203 C206 1.426 . S
C204 H187 0.930 . S
C204 N199 1.307 . S
C204 C201 1.402 . S
N205 Gd168 2.601 . S
N205 C206 1.359 . S
N205 C209 1.334 . S
C206 C203 1.426 . S
C206 N205 1.359 . S
C206 C210 1.413 . S
C207 H198 0.930 . S
C207 C208 1.359 . S
C207 C209 1.394 . S
C208 C207 1.359 . S
C208 C210 1.391 . S
C208 H211 0.929 . S
C209 H191 0.930 . S
C209 N205 1.334 . S
C209 C207 1.394 . S
C210 C206 1.413 . S
C210 C208 1.391 . S
C210 C225 1.437 . S
H211 C208 0.929 . S
O212 Gd168 2.545 . S
O212 C227 1.258 . S
O213 Gd168 2.606 . S
O213 Gd169 2.362 . S
O213 C224 1.284 . S
O214 Gd169 2.324 . S
O214 C234 1.254 . S
O215 Gd168 2.429 . S
O215 C234 1.268 . S
O216 Gd168 2.545 . S
O216 C224 1.250 . S
O217 Gd168 2.412 . S
O217 C227 1.252 . S
O218 Gd169 2.545 . S
O218 C236 1.258 . S
O219 Gd168 2.362 . S
O219 Gd169 2.606 . S
O219 C235 1.284 . S
O220 Gd168 2.324 . S
O220 C243 1.254 . S
O221 Gd169 2.429 . S
O221 C243 1.268 . S
O222 Gd169 2.545 . S
O222 C235 1.250 . S
O223 Gd169 2.412 . S
O223 C236 1.252 . S
C224 O213 1.284 . S
C224 O216 1.250 . S
C225 H194 0.929 1_565 S
C225 C210 1.437 . S
C225 C226 1.317 . S
C226 H197 0.930 1_565 S
C226 C202 1.431 . S
C226 C225 1.317 . S
C227 Gd168 2.828 . S
C227 O212 1.258 . S
C227 O217 1.252 . S
C227 C228 1.497 1_565 S
C228 C227 1.497 1_545 S
C228 C229 1.395 . S
C228 C230 1.380 . S
C229 C228 1.395 . S
C229 C232 1.398 . S
C229 H244 0.930 . S
C230 C228 1.380 . S
C230 C231 1.391 . S
C230 H245 0.930 . S
C231 C230 1.391 . S
C231 C233 1.387 . S
C232 C229 1.398 . S
C232 C233 1.380 . S
C232 H246 0.930 . S
C233 C231 1.387 . S
C233 C232 1.380 . S
C233 H247 0.930 . S
C234 O214 1.254 . S
C234 O215 1.268 . S
C235 O219 1.284 . S
C235 O222 1.250 . S
C236 Gd169 2.828 . S
C236 O218 1.258 . S
C236 O223 1.252 . S
C236 C237 1.497 . S
C237 C236 1.497 . S
C237 C238 1.395 . S
C237 C239 1.380 . S
C238 C237 1.395 . S
C238 C241 1.398 . S
C238 H248 0.930 . S
C239 C237 1.380 . S
C239 C240 1.391 . S
C239 H249 0.930 . S
C240 C239 1.391 . S
C240 C242 1.387 . S
C241 C238 1.398 . S
C241 C242 1.380 . S
C241 H250 0.930 . S
C242 C240 1.387 . S
C242 C241 1.380 . S
C242 H251 0.930 . S
C243 O220 1.254 . S
C243 O221 1.268 . S
H244 C229 0.930 . S
H245 C230 0.930 . S
H246 C232 0.930 . S
H247 C233 0.930 . S
H248 C238 0.930 . S
H249 C239 0.930 . S
H250 C241 0.930 . S
H251 C242 0.930 . S
Gd252 N283 2.661 . S
Gd252 N289 2.601 . S
Gd252 O296 2.545 . S
Gd252 O297 2.606 . S
Gd252 O299 2.429 . S
Gd252 O300 2.545 . S
Gd252 O301 2.412 . S
Gd252 O303 2.362 . S
Gd252 O304 2.324 . S
Gd252 C311 2.828 . S
Gd253 N262 2.661 . S
Gd253 N266 2.601 . S
Gd253 O297 2.362 . S
Gd253 O298 2.324 . S
Gd253 O302 2.545 . S
Gd253 O303 2.606 . S
Gd253 O305 2.429 . S
Gd253 O306 2.545 . S
Gd253 O307 2.412 . S
Gd253 C320 2.828 . S
C254 C257 1.417 . S
C254 C259 1.431 1_655 S
C254 C260 1.412 . S
C255 C258 1.437 . S
C255 C259 1.317 1_655 S
C255 H274 0.929 1_655 S
C256 C257 1.426 . S
C256 C258 1.413 . S
C256 N266 1.359 . S
C257 C254 1.417 . S
C257 C256 1.426 . S
C257 N262 1.350 . S
C258 C255 1.437 . S
C258 C256 1.413 . S
C258 C268 1.391 . S
C259 C254 1.431 1_455 S
C259 C255 1.317 1_455 S
C259 H270 0.930 . S
C260 C254 1.412 . S
C260 C261 1.355 . S
C260 H272 0.930 1_655 S
C261 C260 1.355 . S
C261 C263 1.402 . S
C261 H273 0.930 . S
N262 Gd253 2.661 . S
N262 C257 1.350 . S
N262 C263 1.307 . S
C263 C261 1.402 . S
C263 N262 1.307 . S
C263 H264 0.930 . S
H264 C263 0.930 . S
C265 N266 1.334 . S
C265 C267 1.394 . S
C265 H269 0.930 . S
N266 Gd253 2.601 . S
N266 C256 1.359 . S
N266 C265 1.334 . S
C267 C265 1.394 . S
C267 C268 1.359 . S
C267 H279 0.930 . S
C268 C258 1.391 . S
C268 C267 1.359 . S
C268 H280 0.929 . S
H269 C265 0.930 . S
H270 C259 0.930 . S
H271 C288 0.930 . S
H272 C260 0.930 1_455 S
H273 C261 0.930 . S
H274 C255 0.929 1_455 S
H275 C293 0.930 . S
H276 C284 0.930 . S
H277 C285 0.930 . S
H278 C309 0.929 . S
H279 C267 0.930 . S
H280 C268 0.929 . S
H281 C310 0.930 . S
H282 C291 0.930 . S
N283 Gd252 2.661 . S
N283 C287 1.350 . S
N283 C288 1.307 . S
C284 H276 0.930 . S
C284 C285 1.355 . S
C284 C286 1.412 . S
C285 H277 0.930 . S
C285 C284 1.355 . S
C285 C288 1.402 . S
C286 C284 1.412 . S
C286 C287 1.417 . S
C286 C310 1.431 . S
C287 N283 1.350 . S
C287 C286 1.417 . S
C287 C290 1.426 . S
C288 H271 0.930 . S
C288 N283 1.307 . S
C288 C285 1.402 . S
N289 Gd252 2.601 . S
N289 C290 1.359 . S
N289 C293 1.334 . S
C290 C287 1.426 . S
C290 N289 1.359 . S
C290 C294 1.413 . S
C291 H282 0.930 . S
C291 C292 1.359 . S
C291 C293 1.394 . S
C292 C291 1.359 . S
C292 C294 1.391 . S
C292 H295 0.929 . S
C293 H275 0.930 . S
C293 N289 1.334 . S
C293 C291 1.394 . S
C294 C290 1.413 . S
C294 C292 1.391 . S
C294 C309 1.437 . S
H295 C292 0.929 . S
O296 Gd252 2.545 . S
O296 C311 1.258 . S
O297 Gd252 2.606 . S
O297 Gd253 2.362 . S
O297 C308 1.284 . S
O298 Gd253 2.324 . S
O298 C318 1.254 . S
O299 Gd252 2.429 . S
O299 C318 1.268 . S
O300 Gd252 2.545 . S
O300 C308 1.250 . S
O301 Gd252 2.412 . S
O301 C311 1.252 . S
O302 Gd253 2.545 . S
O302 C320 1.258 . S
O303 Gd252 2.362 . S
O303 Gd253 2.606 . S
O303 C319 1.284 . S
O304 Gd252 2.324 . S
O304 C327 1.254 . S
O305 Gd253 2.429 . S
O305 C327 1.268 . S
O306 Gd253 2.545 . S
O306 C319 1.250 . S
O307 Gd253 2.412 . S
O307 C320 1.252 . S
C308 O297 1.284 . S
C308 O300 1.250 . S
C309 H278 0.929 . S
C309 C294 1.437 . S
C309 C310 1.317 . S
C310 H281 0.930 . S
C310 C286 1.431 . S
C310 C309 1.317 . S
C311 Gd252 2.828 . S
C311 O296 1.258 . S
C311 O301 1.252 . S
C311 C312 1.497 . S
C312 C311 1.497 . S
C312 C313 1.395 . S
C312 C314 1.380 . S
C313 C312 1.395 . S
C313 C316 1.398 . S
C313 H328 0.930 . S
C314 C312 1.380 . S
C314 C315 1.391 . S
C314 H329 0.930 . S
C315 C314 1.391 . S
C315 C317 1.387 . S
C316 C313 1.398 . S
C316 C317 1.380 . S
C316 H330 0.930 . S
C317 C315 1.387 . S
C317 C316 1.380 . S
C317 H331 0.930 . S
C318 O298 1.254 . S
C318 O299 1.268 . S
C319 O303 1.284 . S
C319 O306 1.250 . S
C320 Gd253 2.828 . S
C320 O302 1.258 . S
C320 O307 1.252 . S
C320 C321 1.497 . S
C321 C320 1.497 . S
C321 C322 1.395 . S
C321 C323 1.380 . S
C322 C321 1.395 . S
C322 C325 1.398 . S
C322 H332 0.930 . S
C323 C321 1.380 . S
C323 C324 1.391 . S
C323 H333 0.930 . S
C324 C323 1.391 . S
C324 C326 1.387 . S
C325 C322 1.398 . S
C325 C326 1.380 . S
C325 H334 0.930 . S
C326 C324 1.387 . S
C326 C325 1.380 . S
C326 H335 0.930 . S
C327 O304 1.254 . S
C327 O305 1.268 . S
H328 C313 0.930 . S
H329 C314 0.930 . S
H330 C316 0.930 . S
H331 C317 0.930 . S
H332 C322 0.930 . S
H333 C323 0.930 . S
H334 C325 0.930 . S
H335 C326 0.930 . S
Gd336 N367 2.661 . S
Gd336 N373 2.601 . S
Gd336 O380 2.545 . S
Gd336 O381 2.606 . S
Gd336 O383 2.429 . S
Gd336 O384 2.545 . S
Gd336 O385 2.412 . S
Gd336 O387 2.362 . S
Gd336 O388 2.324 . S
Gd336 C395 2.828 . S
Gd337 N346 2.661 . S
Gd337 N350 2.601 . S
Gd337 O381 2.362 . S
Gd337 O382 2.324 . S
Gd337 O386 2.545 . S
Gd337 O387 2.606 . S
Gd337 O389 2.429 . S
Gd337 O390 2.545 . S
Gd337 O391 2.412 . S
Gd337 C404 2.828 . S
C338 C341 1.417 . S
C338 C343 1.431 1_565 S
C338 C344 1.412 . S
C339 C342 1.437 . S
C339 C343 1.317 1_565 S
C339 H358 0.929 1_565 S
C340 C341 1.426 . S
C340 C342 1.413 . S
C340 N350 1.359 . S
C341 C338 1.417 . S
C341 C340 1.426 . S
C341 N346 1.350 . S
C342 C339 1.437 . S
C342 C340 1.413 . S
C342 C352 1.391 . S
C343 C338 1.431 1_545 S
C343 C339 1.317 1_545 S
C343 H354 0.930 . S
C344 C338 1.412 . S
C344 C345 1.355 . S
C344 H356 0.930 1_565 S
C345 C344 1.355 . S
C345 C347 1.402 . S
C345 H357 0.930 . S
N346 Gd337 2.661 . S
N346 C341 1.350 . S
N346 C347 1.307 . S
C347 C345 1.402 . S
C347 N346 1.307 . S
C347 H348 0.930 . S
H348 C347 0.930 . S
C349 N350 1.334 . S
C349 C351 1.394 . S
C349 H353 0.930 . S
N350 Gd337 2.601 . S
N350 C340 1.359 . S
N350 C349 1.334 . S
C351 C349 1.394 . S
C351 C352 1.359 . S
C351 H363 0.930 . S
C352 C342 1.391 . S
C352 C351 1.359 . S
C352 H364 0.929 . S
H353 C349 0.930 . S
H354 C343 0.930 . S
H355 C372 0.930 . S
H356 C344 0.930 1_545 S
H357 C345 0.930 . S
H358 C339 0.929 1_545 S
H359 C377 0.930 . S
H360 C368 0.930 . S
H361 C369 0.930 . S
H362 C393 0.929 1_655 S
H363 C351 0.930 . S
H364 C352 0.929 . S
H365 C394 0.930 1_655 S
H366 C375 0.930 . S
N367 Gd336 2.661 . S
N367 C371 1.350 . S
N367 C372 1.307 . S
C368 H360 0.930 . S
C368 C369 1.355 . S
C368 C370 1.412 . S
C369 H361 0.930 . S
C369 C368 1.355 . S
C369 C372 1.402 . S
C370 C368 1.412 . S
C370 C371 1.417 . S
C370 C394 1.431 . S
C371 N367 1.350 . S
C371 C370 1.417 . S
C371 C374 1.426 . S
C372 H355 0.930 . S
C372 N367 1.307 . S
C372 C369 1.402 . S
N373 Gd336 2.601 . S
N373 C374 1.359 . S
N373 C377 1.334 . S
C374 C371 1.426 . S
C374 N373 1.359 . S
C374 C378 1.413 . S
C375 H366 0.930 . S
C375 C376 1.359 . S
C375 C377 1.394 . S
C376 C375 1.359 . S
C376 C378 1.391 . S
C376 H379 0.929 . S
C377 H359 0.930 . S
C377 N373 1.334 . S
C377 C375 1.394 . S
C378 C374 1.413 . S
C378 C376 1.391 . S
C378 C393 1.437 . S
H379 C376 0.929 . S
O380 Gd336 2.545 . S
O380 C395 1.258 . S
O381 Gd336 2.606 . S
O381 Gd337 2.362 . S
O381 C392 1.284 . S
O382 Gd337 2.324 . S
O382 C402 1.254 . S
O383 Gd336 2.429 . S
O383 C402 1.268 . S
O384 Gd336 2.545 . S
O384 C392 1.250 . S
O385 Gd336 2.412 . S
O385 C395 1.252 . S
O386 Gd337 2.545 . S
O386 C404 1.258 . S
O387 Gd336 2.362 . S
O387 Gd337 2.606 . S
O387 C403 1.284 . S
O388 Gd336 2.324 . S
O388 C411 1.254 . S
O389 Gd337 2.429 . S
O389 C411 1.268 . S
O390 Gd337 2.545 . S
O390 C403 1.250 . S
O391 Gd337 2.412 . S
O391 C404 1.252 . S
C392 O381 1.284 . S
C392 O384 1.250 . S
C393 H362 0.929 1_455 S
C393 C378 1.437 . S
C393 C394 1.317 . S
C394 H365 0.930 1_455 S
C394 C370 1.431 . S
C394 C393 1.317 . S
C395 Gd336 2.828 . S
C395 O380 1.258 . S
C395 O385 1.252 . S
C395 C396 1.497 1_455 S
C396 C395 1.497 1_655 S
C396 C397 1.395 . S
C396 C398 1.380 . S
C397 C396 1.395 . S
C397 C400 1.398 . S
C397 H412 0.930 . S
C398 C396 1.380 . S
C398 C399 1.391 . S
C398 H413 0.930 . S
C399 C398 1.391 . S
C399 C401 1.387 . S
C400 C397 1.398 . S
C400 C401 1.380 . S
C400 H414 0.930 . S
C401 C399 1.387 . S
C401 C400 1.380 . S
C401 H415 0.930 . S
C402 O382 1.254 . S
C402 O383 1.268 . S
C403 O387 1.284 . S
C403 O390 1.250 . S
C404 Gd337 2.828 . S
C404 O386 1.258 . S
C404 O391 1.252 . S
C404 C405 1.497 . S
C405 C404 1.497 . S
C405 C406 1.395 . S
C405 C407 1.380 . S
C406 C405 1.395 . S
C406 C409 1.398 . S
C406 H416 0.930 . S
C407 C405 1.380 . S
C407 C408 1.391 . S
C407 H417 0.930 . S
C408 C407 1.391 . S
C408 C410 1.387 . S
C409 C406 1.398 . S
C409 C410 1.380 . S
C409 H418 0.930 . S
C410 C408 1.387 . S
C410 C409 1.380 . S
C410 H419 0.930 . S
C411 O388 1.254 . S
C411 O389 1.268 . S
H412 C397 0.930 . S
H413 C398 0.930 . S
H414 C400 0.930 . S
H415 C401 0.930 . S
H416 C406 0.930 . S
H417 C407 0.930 . S
H418 C409 0.930 . S
H419 C410 0.930 . S
Gd420 N451 2.661 . S
Gd420 N457 2.601 . S
Gd420 O464 2.545 . S
Gd420 O465 2.606 . S
Gd420 O467 2.429 . S
Gd420 O468 2.545 . S
Gd420 O469 2.412 . S
Gd420 O471 2.362 . S
Gd420 O472 2.324 . S
Gd420 C479 2.828 . S
Gd421 N430 2.661 . S
Gd421 N434 2.601 . S
Gd421 O465 2.362 . S
Gd421 O466 2.324 . S
Gd421 O470 2.545 . S
Gd421 O471 2.606 . S
Gd421 O473 2.429 . S
Gd421 O474 2.545 . S
Gd421 O475 2.412 . S
Gd421 C488 2.828 . S
C422 C425 1.417 . S
C422 C427 1.431 . S
C422 C428 1.412 . S
C423 C426 1.437 . S
C423 C427 1.317 . S
C423 H442 0.929 . S
C424 C425 1.426 . S
C424 C426 1.413 . S
C424 N434 1.359 . S
C425 C422 1.417 . S
C425 C424 1.426 . S
C425 N430 1.350 . S
C426 C423 1.437 . S
C426 C424 1.413 . S
C426 C436 1.391 . S
C427 C422 1.431 . S
C427 C423 1.317 . S
C427 H438 0.930 . S
C428 C422 1.412 . S
C428 C429 1.355 . S
C428 H440 0.930 . S
C429 C428 1.355 . S
C429 C431 1.402 . S
C429 H441 0.930 . S
N430 Gd421 2.661 . S
N430 C425 1.350 . S
N430 C431 1.307 . S
C431 C429 1.402 . S
C431 N430 1.307 . S
C431 H432 0.930 . S
H432 C431 0.930 . S
C433 N434 1.334 . S
C433 C435 1.394 . S
C433 H437 0.930 . S
N434 Gd421 2.601 . S
N434 C424 1.359 . S
N434 C433 1.334 . S
C435 C433 1.394 . S
C435 C436 1.359 . S
C435 H447 0.930 . S
C436 C426 1.391 . S
C436 C435 1.359 . S
C436 H448 0.929 . S
H437 C433 0.930 . S
H438 C427 0.930 . S
H439 C456 0.930 . S
H440 C428 0.930 . S
H441 C429 0.930 . S
H442 C423 0.929 . S
H443 C461 0.930 . S
H444 C452 0.930 . S
H445 C453 0.930 . S
H446 C477 0.929 1_565 S
H447 C435 0.930 . S
H448 C436 0.929 . S
H449 C478 0.930 1_565 S
H450 C459 0.930 . S
N451 Gd420 2.661 . S
N451 C455 1.350 . S
N451 C456 1.307 . S
C452 H444 0.930 . S
C452 C453 1.355 . S
C452 C454 1.412 . S
C453 H445 0.930 . S
C453 C452 1.355 . S
C453 C456 1.402 . S
C454 C452 1.412 . S
C454 C455 1.417 . S
C454 C478 1.431 . S
C455 N451 1.350 . S
C455 C454 1.417 . S
C455 C458 1.426 . S
C456 H439 0.930 . S
C456 N451 1.307 . S
C456 C453 1.402 . S
N457 Gd420 2.601 . S
N457 C458 1.359 . S
N457 C461 1.334 . S
C458 C455 1.426 . S
C458 N457 1.359 . S
C458 C462 1.413 . S
C459 H450 0.930 . S
C459 C460 1.359 . S
C459 C461 1.394 . S
C460 C459 1.359 . S
C460 C462 1.391 . S
C460 H463 0.929 . S
C461 H443 0.930 . S
C461 N457 1.334 . S
C461 C459 1.394 . S
C462 C458 1.413 . S
C462 C460 1.391 . S
C462 C477 1.437 . S
H463 C460 0.929 . S
O464 Gd420 2.545 . S
O464 C479 1.258 . S
O465 Gd420 2.606 . S
O465 Gd421 2.362 . S
O465 C476 1.284 . S
O466 Gd421 2.324 . S
O466 C486 1.254 . S
O467 Gd420 2.429 . S
O467 C486 1.268 . S
O468 Gd420 2.545 . S
O468 C476 1.250 . S
O469 Gd420 2.412 . S
O469 C479 1.252 . S
O470 Gd421 2.545 . S
O470 C488 1.258 . S
O471 Gd420 2.362 . S
O471 Gd421 2.606 . S
O471 C487 1.284 . S
O472 Gd420 2.324 . S
O472 C495 1.254 . S
O473 Gd421 2.429 . S
O473 C495 1.268 . S
O474 Gd421 2.545 . S
O474 C487 1.250 . S
O475 Gd421 2.412 . S
O475 C488 1.252 . S
C476 O465 1.284 . S
C476 O468 1.250 . S
C477 H446 0.929 1_545 S
C477 C462 1.437 . S
C477 C478 1.317 . S
C478 H449 0.930 1_545 S
C478 C454 1.431 . S
C478 C477 1.317 . S
C479 Gd420 2.828 . S
C479 O464 1.258 . S
C479 O469 1.252 . S
C479 C480 1.497 1_545 S
C480 C479 1.497 1_565 S
C480 C481 1.395 . S
C480 C482 1.380 . S
C481 C480 1.395 . S
C481 C484 1.398 . S
C481 H496 0.930 . S
C482 C480 1.380 . S
C482 C483 1.391 . S
C482 H497 0.930 . S
C483 C482 1.391 . S
C483 C485 1.387 . S
C484 C481 1.398 . S
C484 C485 1.380 . S
C484 H498 0.930 . S
C485 C483 1.387 . S
C485 C484 1.380 . S
C485 H499 0.930 . S
C486 O466 1.254 . S
C486 O467 1.268 . S
C487 O471 1.284 . S
C487 O474 1.250 . S
C488 Gd421 2.828 . S
C488 O470 1.258 . S
C488 O475 1.252 . S
C488 C489 1.497 . S
C489 C488 1.497 . S
C489 C490 1.395 . S
C489 C491 1.380 . S
C490 C489 1.395 . S
C490 C493 1.398 . S
C490 H500 0.930 . S
C491 C489 1.380 . S
C491 C492 1.391 . S
C491 H501 0.930 . S
C492 C491 1.391 . S
C492 C494 1.387 . S
C493 C490 1.398 . S
C493 C494 1.380 . S
C493 H502 0.930 . S
C494 C492 1.387 . S
C494 C493 1.380 . S
C494 H503 0.930 . S
C495 O472 1.254 . S
C495 O473 1.268 . S
H496 C481 0.930 . S
H497 C482 0.930 . S
H498 C484 0.930 . S
H499 C485 0.930 . S
H500 C490 0.930 . S
H501 C491 0.930 . S
H502 C493 0.930 . S
H503 C494 0.930 . S
Gd504 N535 2.661 . S
Gd504 N541 2.601 . S
Gd504 O548 2.545 . S
Gd504 O549 2.606 . S
Gd504 O551 2.429 . S
Gd504 O552 2.545 . S
Gd504 O553 2.412 . S
Gd504 O555 2.362 . S
Gd504 O556 2.324 . S
Gd504 C563 2.828 . S
Gd505 N514 2.661 . S
Gd505 N518 2.601 . S
Gd505 O549 2.362 . S
Gd505 O550 2.324 . S
Gd505 O554 2.545 . S
Gd505 O555 2.606 . S
Gd505 O557 2.429 . S
Gd505 O558 2.545 . S
Gd505 O559 2.412 . S
Gd505 C572 2.828 . S
C506 C509 1.417 . S
C506 C511 1.431 1_565 S
C506 C512 1.412 . S
C507 C510 1.437 . S
C507 C511 1.317 1_565 S
C507 H526 0.929 1_565 S
C508 C509 1.426 . S
C508 C510 1.413 . S
C508 N518 1.359 . S
C509 C506 1.417 . S
C509 C508 1.426 . S
C509 N514 1.350 . S
C510 C507 1.437 . S
C510 C508 1.413 . S
C510 C520 1.391 . S
C511 C506 1.431 1_545 S
C511 C507 1.317 1_545 S
C511 H522 0.930 . S
C512 C506 1.412 . S
C512 C513 1.355 . S
C512 H524 0.930 1_565 S
C513 C512 1.355 . S
C513 C515 1.402 . S
C513 H525 0.930 . S
N514 Gd505 2.661 . S
N514 C509 1.350 . S
N514 C515 1.307 . S
C515 C513 1.402 . S
C515 N514 1.307 . S
C515 H516 0.930 . S
H516 C515 0.930 . S
C517 N518 1.334 . S
C517 C519 1.394 . S
C517 H521 0.930 . S
N518 Gd505 2.601 . S
N518 C508 1.359 . S
N518 C517 1.334 . S
C519 C517 1.394 . S
C519 C520 1.359 . S
C519 H531 0.930 . S
C520 C510 1.391 . S
C520 C519 1.359 . S
C520 H532 0.929 . S
H521 C517 0.930 . S
H522 C511 0.930 . S
H523 C540 0.930 . S
H524 C512 0.930 1_545 S
H525 C513 0.930 . S
H526 C507 0.929 1_545 S
H527 C545 0.930 . S
H528 C536 0.930 . S
H529 C537 0.930 . S
H530 C561 0.929 . S
H531 C519 0.930 . S
H532 C520 0.929 . S
H533 C562 0.930 . S
H534 C543 0.930 . S
N535 Gd504 2.661 . S
N535 C539 1.350 . S
N535 C540 1.307 . S
C536 H528 0.930 . S
C536 C537 1.355 . S
C536 C538 1.412 . S
C537 H529 0.930 . S
C537 C536 1.355 . S
C537 C540 1.402 . S
C538 C536 1.412 . S
C538 C539 1.417 . S
C538 C562 1.431 . S
C539 N535 1.350 . S
C539 C538 1.417 . S
C539 C542 1.426 . S
C540 H523 0.930 . S
C540 N535 1.307 . S
C540 C537 1.402 . S
N541 Gd504 2.601 . S
N541 C542 1.359 . S
N541 C545 1.334 . S
C542 C539 1.426 . S
C542 N541 1.359 . S
C542 C546 1.413 . S
C543 H534 0.930 . S
C543 C544 1.359 . S
C543 C545 1.394 . S
C544 C543 1.359 . S
C544 C546 1.391 . S
C544 H547 0.929 . S
C545 H527 0.930 . S
C545 N541 1.334 . S
C545 C543 1.394 . S
C546 C542 1.413 . S
C546 C544 1.391 . S
C546 C561 1.437 . S
H547 C544 0.929 . S
O548 Gd504 2.545 . S
O548 C563 1.258 . S
O549 Gd504 2.606 . S
O549 Gd505 2.362 . S
O549 C560 1.284 . S
O550 Gd505 2.324 . S
O550 C570 1.254 . S
O551 Gd504 2.429 . S
O551 C570 1.268 . S
O552 Gd504 2.545 . S
O552 C560 1.250 . S
O553 Gd504 2.412 . S
O553 C563 1.252 . S
O554 Gd505 2.545 . S
O554 C572 1.258 . S
O555 Gd504 2.362 . S
O555 Gd505 2.606 . S
O555 C571 1.284 . S
O556 Gd504 2.324 . S
O556 C579 1.254 . S
O557 Gd505 2.429 . S
O557 C579 1.268 . S
O558 Gd505 2.545 . S
O558 C571 1.250 . S
O559 Gd505 2.412 . S
O559 C572 1.252 . S
C560 O549 1.284 . S
C560 O552 1.250 . S
C561 H530 0.929 . S
C561 C546 1.437 . S
C561 C562 1.317 . S
C562 H533 0.930 . S
C562 C538 1.431 . S
C562 C561 1.317 . S
C563 Gd504 2.828 . S
C563 O548 1.258 . S
C563 O553 1.252 . S
C563 C564 1.497 . S
C564 C563 1.497 . S
C564 C565 1.395 . S
C564 C566 1.380 . S
C565 C564 1.395 . S
C565 C568 1.398 . S
C565 H580 0.930 . S
C566 C564 1.380 . S
C566 C567 1.391 . S
C566 H581 0.930 . S
C567 C566 1.391 . S
C567 C569 1.387 . S
C568 C565 1.398 . S
C568 C569 1.380 . S
C568 H582 0.930 . S
C569 C567 1.387 . S
C569 C568 1.380 . S
C569 H583 0.930 . S
C570 O550 1.254 . S
C570 O551 1.268 . S
C571 O555 1.284 . S
C571 O558 1.250 . S
C572 Gd505 2.828 . S
C572 O554 1.258 . S
C572 O559 1.252 . S
C572 C573 1.497 . S
C573 C572 1.497 . S
C573 C574 1.395 . S
C573 C575 1.380 . S
C574 C573 1.395 . S
C574 C577 1.398 . S
C574 H584 0.930 . S
C575 C573 1.380 . S
C575 C576 1.391 . S
C575 H585 0.930 . S
C576 C575 1.391 . S
C576 C578 1.387 . S
C577 C574 1.398 . S
C577 C578 1.380 . S
C577 H586 0.930 . S
C578 C576 1.387 . S
C578 C577 1.380 . S
C578 H587 0.930 . S
C579 O556 1.254 . S
C579 O557 1.268 . S
H580 C565 0.930 . S
H581 C566 0.930 . S
H582 C568 0.930 . S
H583 C569 0.930 . S
H584 C574 0.930 . S
H585 C575 0.930 . S
H586 C577 0.930 . S
H587 C578 0.930 . S
Gd588 N619 2.661 . S
Gd588 N625 2.601 . S
Gd588 O632 2.545 . S
Gd588 O633 2.606 . S
Gd588 O635 2.429 . S
Gd588 O636 2.545 . S
Gd588 O637 2.412 . S
Gd588 O639 2.362 . S
Gd588 O640 2.324 . S
Gd588 C647 2.828 . S
Gd589 N598 2.661 . S
Gd589 N602 2.601 . S
Gd589 O633 2.362 . S
Gd589 O634 2.324 . S
Gd589 O638 2.545 . S
Gd589 O639 2.606 . S
Gd589 O641 2.429 . S
Gd589 O642 2.545 . S
Gd589 O643 2.412 . S
Gd589 C656 2.828 . S
C590 C593 1.417 . S
C590 C595 1.431 . S
C590 C596 1.412 . S
C591 C594 1.437 . S
C591 C595 1.317 . S
C591 H610 0.929 . S
C592 C593 1.426 . S
C592 C594 1.413 . S
C592 N602 1.359 . S
C593 C590 1.417 . S
C593 C592 1.426 . S
C593 N598 1.350 . S
C594 C591 1.437 . S
C594 C592 1.413 . S
C594 C604 1.391 . S
C595 C590 1.431 . S
C595 C591 1.317 . S
C595 H606 0.930 . S
C596 C590 1.412 . S
C596 C597 1.355 . S
C596 H608 0.930 . S
C597 C596 1.355 . S
C597 C599 1.402 . S
C597 H609 0.930 . S
N598 Gd589 2.661 . S
N598 C593 1.350 . S
N598 C599 1.307 . S
C599 C597 1.402 . S
C599 N598 1.307 . S
C599 H600 0.930 . S
H600 C599 0.930 . S
C601 N602 1.334 . S
C601 C603 1.394 . S
C601 H605 0.930 . S
N602 Gd589 2.601 . S
N602 C592 1.359 . S
N602 C601 1.334 . S
C603 C601 1.394 . S
C603 C604 1.359 . S
C603 H615 0.930 . S
C604 C594 1.391 . S
C604 C603 1.359 . S
C604 H616 0.929 . S
H605 C601 0.930 . S
H606 C595 0.930 . S
H607 C624 0.930 . S
H608 C596 0.930 . S
H609 C597 0.930 . S
H610 C591 0.929 . S
H611 C629 0.930 . S
H612 C620 0.930 . S
H613 C621 0.930 . S
H614 C645 0.929 1_455 S
H615 C603 0.930 . S
H616 C604 0.929 . S
H617 C646 0.930 1_455 S
H618 C627 0.930 . S
N619 Gd588 2.661 . S
N619 C623 1.350 . S
N619 C624 1.307 . S
C620 H612 0.930 . S
C620 C621 1.355 . S
C620 C622 1.412 . S
C621 H613 0.930 . S
C621 C620 1.355 . S
C621 C624 1.402 . S
C622 C620 1.412 . S
C622 C623 1.417 . S
C622 C646 1.431 . S
C623 N619 1.350 . S
C623 C622 1.417 . S
C623 C626 1.426 . S
C624 H607 0.930 . S
C624 N619 1.307 . S
C624 C621 1.402 . S
N625 Gd588 2.601 . S
N625 C626 1.359 . S
N625 C629 1.334 . S
C626 C623 1.426 . S
C626 N625 1.359 . S
C626 C630 1.413 . S
C627 H618 0.930 . S
C627 C628 1.359 . S
C627 C629 1.394 . S
C628 C627 1.359 . S
C628 C630 1.391 . S
C628 H631 0.929 . S
C629 H611 0.930 . S
C629 N625 1.334 . S
C629 C627 1.394 . S
C630 C626 1.413 . S
C630 C628 1.391 . S
C630 C645 1.437 . S
H631 C628 0.929 . S
O632 Gd588 2.545 . S
O632 C647 1.258 . S
O633 Gd588 2.606 . S
O633 Gd589 2.362 . S
O633 C644 1.284 . S
O634 Gd589 2.324 . S
O634 C654 1.254 . S
O635 Gd588 2.429 . S
O635 C654 1.268 . S
O636 Gd588 2.545 . S
O636 C644 1.250 . S
O637 Gd588 2.412 . S
O637 C647 1.252 . S
O638 Gd589 2.545 . S
O638 C656 1.258 . S
O639 Gd588 2.362 . S
O639 Gd589 2.606 . S
O639 C655 1.284 . S
O640 Gd588 2.324 . S
O640 C663 1.254 . S
O641 Gd589 2.429 . S
O641 C663 1.268 . S
O642 Gd589 2.545 . S
O642 C655 1.250 . S
O643 Gd589 2.412 . S
O643 C656 1.252 . S
C644 O633 1.284 . S
C644 O636 1.250 . S
C645 H614 0.929 1_655 S
C645 C630 1.437 . S
C645 C646 1.317 . S
C646 H617 0.930 1_655 S
C646 C622 1.431 . S
C646 C645 1.317 . S
C647 Gd588 2.828 . S
C647 O632 1.258 . S
C647 O637 1.252 . S
C647 C648 1.497 1_655 S
C648 C647 1.497 1_455 S
C648 C649 1.395 . S
C648 C650 1.380 . S
C649 C648 1.395 . S
C649 C652 1.398 . S
C649 H664 0.930 . S
C650 C648 1.380 . S
C650 C651 1.391 . S
C650 H665 0.930 . S
C651 C650 1.391 . S
C651 C653 1.387 . S
C652 C649 1.398 . S
C652 C653 1.380 . S
C652 H666 0.930 . S
C653 C651 1.387 . S
C653 C652 1.380 . S
C653 H667 0.930 . S
C654 O634 1.254 . S
C654 O635 1.268 . S
C655 O639 1.284 . S
C655 O642 1.250 . S
C656 Gd589 2.828 . S
C656 O638 1.258 . S
C656 O643 1.252 . S
C656 C657 1.497 . S
C657 C656 1.497 . S
C657 C658 1.395 . S
C657 C659 1.380 . S
C658 C657 1.395 . S
C658 C661 1.398 . S
C658 H668 0.930 . S
C659 C657 1.380 . S
C659 C660 1.391 . S
C659 H669 0.930 . S
C660 C659 1.391 . S
C660 C662 1.387 . S
C661 C658 1.398 . S
C661 C662 1.380 . S
C661 H670 0.930 . S
C662 C660 1.387 . S
C662 C661 1.380 . S
C662 H671 0.930 . S
C663 O640 1.254 . S
C663 O641 1.268 . S
H664 C649 0.930 . S
H665 C650 0.930 . S
H666 C652 0.930 . S
H667 C653 0.930 . S
H668 C658 0.930 . S
H669 C659 0.930 . S
H670 C661 0.930 . S
H671 C662 0.930 . S
Gd672 N703 2.661 . S
Gd672 N709 2.601 . S
Gd672 O716 2.545 . S
Gd672 O717 2.606 . S
Gd672 O719 2.429 . S
Gd672 O720 2.545 . S
Gd672 O721 2.412 . S
Gd672 O723 2.362 . S
Gd672 O724 2.324 . S
Gd672 C731 2.828 . S
Gd673 N682 2.661 . S
Gd673 N686 2.601 . S
Gd673 O717 2.362 . S
Gd673 O718 2.324 . S
Gd673 O722 2.545 . S
Gd673 O723 2.606 . S
Gd673 O725 2.429 . S
Gd673 O726 2.545 . S
Gd673 O727 2.412 . S
Gd673 C740 2.828 . S
C674 C677 1.417 . S
C674 C679 1.431 1_455 S
C674 C680 1.412 . S
C675 C678 1.437 . S
C675 C679 1.317 1_455 S
C675 H694 0.929 1_455 S
C676 C677 1.426 . S
C676 C678 1.413 . S
C676 N686 1.359 . S
C677 C674 1.417 . S
C677 C676 1.426 . S
C677 N682 1.350 . S
C678 C675 1.437 . S
C678 C676 1.413 . S
C678 C688 1.391 . S
C679 C674 1.431 1_655 S
C679 C675 1.317 1_655 S
C679 H690 0.930 . S
C680 C674 1.412 . S
C680 C681 1.355 . S
C680 H692 0.930 1_455 S
C681 C680 1.355 . S
C681 C683 1.402 . S
C681 H693 0.930 . S
N682 Gd673 2.661 . S
N682 C677 1.350 . S
N682 C683 1.307 . S
C683 C681 1.402 . S
C683 N682 1.307 . S
C683 H684 0.930 . S
H684 C683 0.930 . S
C685 N686 1.334 . S
C685 C687 1.394 . S
C685 H689 0.930 . S
N686 Gd673 2.601 . S
N686 C676 1.359 . S
N686 C685 1.334 . S
C687 C685 1.394 . S
C687 C688 1.359 . S
C687 H699 0.930 . S
C688 C678 1.391 . S
C688 C687 1.359 . S
C688 H700 0.929 . S
H689 C685 0.930 . S
H690 C679 0.930 . S
H691 C708 0.930 . S
H692 C680 0.930 1_655 S
H693 C681 0.930 . S
H694 C675 0.929 1_655 S
H695 C713 0.930 . S
H696 C704 0.930 . S
H697 C705 0.930 . S
H698 C729 0.929 1_545 S
H699 C687 0.930 . S
H700 C688 0.929 . S
H701 C730 0.930 1_545 S
H702 C711 0.930 . S
N703 Gd672 2.661 . S
N703 C707 1.350 . S
N703 C708 1.307 . S
C704 H696 0.930 . S
C704 C705 1.355 . S
C704 C706 1.412 . S
C705 H697 0.930 . S
C705 C704 1.355 . S
C705 C708 1.402 . S
C706 C704 1.412 . S
C706 C707 1.417 . S
C706 C730 1.431 . S
C707 N703 1.350 . S
C707 C706 1.417 . S
C707 C710 1.426 . S
C708 H691 0.930 . S
C708 N703 1.307 . S
C708 C705 1.402 . S
N709 Gd672 2.601 . S
N709 C710 1.359 . S
N709 C713 1.334 . S
C710 C707 1.426 . S
C710 N709 1.359 . S
C710 C714 1.413 . S
C711 H702 0.930 . S
C711 C712 1.359 . S
C711 C713 1.394 . S
C712 C711 1.359 . S
C712 C714 1.391 . S
C712 H715 0.929 . S
C713 H695 0.930 . S
C713 N709 1.334 . S
C713 C711 1.394 . S
C714 C710 1.413 . S
C714 C712 1.391 . S
C714 C729 1.437 . S
H715 C712 0.929 . S
O716 Gd672 2.545 . S
O716 C731 1.258 . S
O717 Gd672 2.606 . S
O717 Gd673 2.362 . S
O717 C728 1.284 . S
O718 Gd673 2.324 . S
O718 C738 1.254 . S
O719 Gd672 2.429 . S
O719 C738 1.268 . S
O720 Gd672 2.545 . S
O720 C728 1.250 . S
O721 Gd672 2.412 . S
O721 C731 1.252 . S
O722 Gd673 2.545 . S
O722 C740 1.258 . S
O723 Gd672 2.362 . S
O723 Gd673 2.606 . S
O723 C739 1.284 . S
O724 Gd672 2.324 . S
O724 C747 1.254 . S
O725 Gd673 2.429 . S
O725 C747 1.268 . S
O726 Gd673 2.545 . S
O726 C739 1.250 . S
O727 Gd673 2.412 . S
O727 C740 1.252 . S
C728 O717 1.284 . S
C728 O720 1.250 . S
C729 H698 0.929 1_565 S
C729 C714 1.437 . S
C729 C730 1.317 . S
C730 H701 0.930 1_565 S
C730 C706 1.431 . S
C730 C729 1.317 . S
C731 Gd672 2.828 . S
C731 O716 1.258 . S
C731 O721 1.252 . S
C731 C732 1.497 1_565 S
C732 C731 1.497 1_545 S
C732 C733 1.395 . S
C732 C734 1.380 . S
C733 C732 1.395 . S
C733 C736 1.398 . S
C733 H748 0.930 . S
C734 C732 1.380 . S
C734 C735 1.391 . S
C734 H749 0.930 . S
C735 C734 1.391 . S
C735 C737 1.387 . S
C736 C733 1.398 . S
C736 C737 1.380 . S
C736 H750 0.930 . S
C737 C735 1.387 . S
C737 C736 1.380 . S
C737 H751 0.930 . S
C738 O718 1.254 . S
C738 O719 1.268 . S
C739 O723 1.284 . S
C739 O726 1.250 . S
C740 Gd673 2.828 . S
C740 O722 1.258 . S
C740 O727 1.252 . S
C740 C741 1.497 . S
C741 C740 1.497 . S
C741 C742 1.395 . S
C741 C743 1.380 . S
C742 C741 1.395 . S
C742 C745 1.398 . S
C742 H752 0.930 . S
C743 C741 1.380 . S
C743 C744 1.391 . S
C743 H753 0.930 . S
C744 C743 1.391 . S
C744 C746 1.387 . S
C745 C742 1.398 . S
C745 C746 1.380 . S
C745 H754 0.930 . S
C746 C744 1.387 . S
C746 C745 1.380 . S
C746 H755 0.930 . S
C747 O724 1.254 . S
C747 O725 1.268 . S
H748 C733 0.930 . S
H749 C734 0.930 . S
H750 C736 0.930 . S
H751 C737 0.930 . S
H752 C742 0.930 . S
H753 C743 0.930 . S
H754 C745 0.930 . S
H755 C746 0.930 . S
Gd756 N787 2.661 . S
Gd756 N793 2.601 . S
Gd756 O800 2.545 . S
Gd756 O801 2.606 . S
Gd756 O803 2.429 . S
Gd756 O804 2.545 . S
Gd756 O805 2.412 . S
Gd756 O807 2.362 . S
Gd756 O808 2.324 . S
Gd756 C815 2.828 . S
Gd757 N766 2.661 . S
Gd757 N770 2.601 . S
Gd757 O801 2.362 . S
Gd757 O802 2.324 . S
Gd757 O806 2.545 . S
Gd757 O807 2.606 . S
Gd757 O809 2.429 . S
Gd757 O810 2.545 . S
Gd757 O811 2.412 . S
Gd757 C824 2.828 . S
C758 C761 1.417 . S
C758 C763 1.431 1_545 S
C758 C764 1.412 . S
C759 C762 1.437 . S
C759 C763 1.317 1_545 S
C759 H778 0.929 1_545 S
C760 C761 1.426 . S
C760 C762 1.413 . S
C760 N770 1.359 . S
C761 C758 1.417 . S
C761 C760 1.426 . S
C761 N766 1.350 . S
C762 C759 1.437 . S
C762 C760 1.413 . S
C762 C772 1.391 . S
C763 C758 1.431 1_565 S
C763 C759 1.317 1_565 S
C763 H774 0.930 . S
C764 C758 1.412 . S
C764 C765 1.355 . S
C764 H776 0.930 1_545 S
C765 C764 1.355 . S
C765 C767 1.402 . S
C765 H777 0.930 . S
N766 Gd757 2.661 . S
N766 C761 1.350 . S
N766 C767 1.307 . S
C767 C765 1.402 . S
C767 N766 1.307 . S
C767 H768 0.930 . S
H768 C767 0.930 . S
C769 N770 1.334 . S
C769 C771 1.394 . S
C769 H773 0.930 . S
N770 Gd757 2.601 . S
N770 C760 1.359 . S
N770 C769 1.334 . S
C771 C769 1.394 . S
C771 C772 1.359 . S
C771 H783 0.930 . S
C772 C762 1.391 . S
C772 C771 1.359 . S
C772 H784 0.929 . S
H773 C769 0.930 . S
H774 C763 0.930 . S
H775 C792 0.930 . S
H776 C764 0.930 1_565 S
H777 C765 0.930 . S
H778 C759 0.929 1_565 S
H779 C797 0.930 . S
H780 C788 0.930 . S
H781 C789 0.930 . S
H782 C813 0.929 . S
H783 C771 0.930 . S
H784 C772 0.929 . S
H785 C814 0.930 . S
H786 C795 0.930 . S
N787 Gd756 2.661 . S
N787 C791 1.350 . S
N787 C792 1.307 . S
C788 H780 0.930 . S
C788 C789 1.355 . S
C788 C790 1.412 . S
C789 H781 0.930 . S
C789 C788 1.355 . S
C789 C792 1.402 . S
C790 C788 1.412 . S
C790 C791 1.417 . S
C790 C814 1.431 . S
C791 N787 1.350 . S
C791 C790 1.417 . S
C791 C794 1.426 . S
C792 H775 0.930 . S
C792 N787 1.307 . S
C792 C789 1.402 . S
N793 Gd756 2.601 . S
N793 C794 1.359 . S
N793 C797 1.334 . S
C794 C791 1.426 . S
C794 N793 1.359 . S
C794 C798 1.413 . S
C795 H786 0.930 . S
C795 C796 1.359 . S
C795 C797 1.394 . S
C796 C795 1.359 . S
C796 C798 1.391 . S
C796 H799 0.929 . S
C797 H779 0.930 . S
C797 N793 1.334 . S
C797 C795 1.394 . S
C798 C794 1.413 . S
C798 C796 1.391 . S
C798 C813 1.437 . S
H799 C796 0.929 . S
O800 Gd756 2.545 . S
O800 C815 1.258 . S
O801 Gd756 2.606 . S
O801 Gd757 2.362 . S
O801 C812 1.284 . S
O802 Gd757 2.324 . S
O802 C822 1.254 . S
O803 Gd756 2.429 . S
O803 C822 1.268 . S
O804 Gd756 2.545 . S
O804 C812 1.250 . S
O805 Gd756 2.412 . S
O805 C815 1.252 . S
O806 Gd757 2.545 . S
O806 C824 1.258 . S
O807 Gd756 2.362 . S
O807 Gd757 2.606 . S
O807 C823 1.284 . S
O808 Gd756 2.324 . S
O808 C831 1.254 . S
O809 Gd757 2.429 . S
O809 C831 1.268 . S
O810 Gd757 2.545 . S
O810 C823 1.250 . S
O811 Gd757 2.412 . S
O811 C824 1.252 . S
C812 O801 1.284 . S
C812 O804 1.250 . S
C813 H782 0.929 . S
C813 C798 1.437 . S
C813 C814 1.317 . S
C814 H785 0.930 . S
C814 C790 1.431 . S
C814 C813 1.317 . S
C815 Gd756 2.828 . S
C815 O800 1.258 . S
C815 O805 1.252 . S
C815 C816 1.497 . S
C816 C815 1.497 . S
C816 C817 1.395 . S
C816 C818 1.380 . S
C817 C816 1.395 . S
C817 C820 1.398 . S
C817 H832 0.930 . S
C818 C816 1.380 . S
C818 C819 1.391 . S
C818 H833 0.930 . S
C819 C818 1.391 . S
C819 C821 1.387 . S
C820 C817 1.398 . S
C820 C821 1.380 . S
C820 H834 0.930 . S
C821 C819 1.387 . S
C821 C820 1.380 . S
C821 H835 0.930 . S
C822 O802 1.254 . S
C822 O803 1.268 . S
C823 O807 1.284 . S
C823 O810 1.250 . S
C824 Gd757 2.828 . S
C824 O806 1.258 . S
C824 O811 1.252 . S
C824 C825 1.497 . S
C825 C824 1.497 . S
C825 C826 1.395 . S
C825 C827 1.380 . S
C826 C825 1.395 . S
C826 C829 1.398 . S
C826 H836 0.930 . S
C827 C825 1.380 . S
C827 C828 1.391 . S
C827 H837 0.930 . S
C828 C827 1.391 . S
C828 C830 1.387 . S
C829 C826 1.398 . S
C829 C830 1.380 . S
C829 H838 0.930 . S
C830 C828 1.387 . S
C830 C829 1.380 . S
C830 H839 0.930 . S
C831 O808 1.254 . S
C831 O809 1.268 . S
H832 C817 0.930 . S
H833 C818 0.930 . S
H834 C820 0.930 . S
H835 C821 0.930 . S
H836 C826 0.930 . S
H837 C827 0.930 . S
H838 C829 0.930 . S
H839 C830 0.930 . S
Gd840 N871 2.661 . S
Gd840 N877 2.601 . S
Gd840 O884 2.545 . S
Gd840 O885 2.606 . S
Gd840 O887 2.429 . S
Gd840 O888 2.545 . S
Gd840 O889 2.412 . S
Gd840 O891 2.362 . S
Gd840 O892 2.324 . S
Gd840 C899 2.828 . S
Gd841 N850 2.661 . S
Gd841 N854 2.601 . S
Gd841 O885 2.362 . S
Gd841 O886 2.324 . S
Gd841 O890 2.545 . S
Gd841 O891 2.606 . S
Gd841 O893 2.429 . S
Gd841 O894 2.545 . S
Gd841 O895 2.412 . S
Gd841 C908 2.828 . S
C842 C845 1.417 . S
C842 C847 1.431 . S
C842 C848 1.412 . S
C843 C846 1.437 . S
C843 C847 1.317 . S
C843 H862 0.929 . S
C844 C845 1.426 . S
C844 C846 1.413 . S
C844 N854 1.359 . S
C845 C842 1.417 . S
C845 C844 1.426 . S
C845 N850 1.350 . S
C846 C843 1.437 . S
C846 C844 1.413 . S
C846 C856 1.391 . S
C847 C842 1.431 . S
C847 C843 1.317 . S
C847 H858 0.930 . S
C848 C842 1.412 . S
C848 C849 1.355 . S
C848 H860 0.930 . S
C849 C848 1.355 . S
C849 C851 1.402 . S
C849 H861 0.930 . S
N850 Gd841 2.661 . S
N850 C845 1.350 . S
N850 C851 1.307 . S
C851 C849 1.402 . S
C851 N850 1.307 . S
C851 H852 0.930 . S
H852 C851 0.930 . S
C853 N854 1.334 . S
C853 C855 1.394 . S
C853 H857 0.930 . S
N854 Gd841 2.601 . S
N854 C844 1.359 . S
N854 C853 1.334 . S
C855 C853 1.394 . S
C855 C856 1.359 . S
C855 H867 0.930 . S
C856 C846 1.391 . S
C856 C855 1.359 . S
C856 H868 0.929 . S
H857 C853 0.930 . S
H858 C847 0.930 . S
H859 C876 0.930 . S
H860 C848 0.930 . S
H861 C849 0.930 . S
H862 C843 0.929 . S
H863 C881 0.930 . S
H864 C872 0.930 . S
H865 C873 0.930 . S
H866 C897 0.929 1_655 S
H867 C855 0.930 . S
H868 C856 0.929 . S
H869 C898 0.930 1_655 S
H870 C879 0.930 . S
N871 Gd840 2.661 . S
N871 C875 1.350 . S
N871 C876 1.307 . S
C872 H864 0.930 . S
C872 C873 1.355 . S
C872 C874 1.412 . S
C873 H865 0.930 . S
C873 C872 1.355 . S
C873 C876 1.402 . S
C874 C872 1.412 . S
C874 C875 1.417 . S
C874 C898 1.431 . S
C875 N871 1.350 . S
C875 C874 1.417 . S
C875 C878 1.426 . S
C876 H859 0.930 . S
C876 N871 1.307 . S
C876 C873 1.402 . S
N877 Gd840 2.601 . S
N877 C878 1.359 . S
N877 C881 1.334 . S
C878 C875 1.426 . S
C878 N877 1.359 . S
C878 C882 1.413 . S
C879 H870 0.930 . S
C879 C880 1.359 . S
C879 C881 1.394 . S
C880 C879 1.359 . S
C880 C882 1.391 . S
C880 H883 0.929 . S
C881 H863 0.930 . S
C881 N877 1.334 . S
C881 C879 1.394 . S
C882 C878 1.413 . S
C882 C880 1.391 . S
C882 C897 1.437 . S
H883 C880 0.929 . S
O884 Gd840 2.545 . S
O884 C899 1.258 . S
O885 Gd840 2.606 . S
O885 Gd841 2.362 . S
O885 C896 1.284 . S
O886 Gd841 2.324 . S
O886 C906 1.254 . S
O887 Gd840 2.429 . S
O887 C906 1.268 . S
O888 Gd840 2.545 . S
O888 C896 1.250 . S
O889 Gd840 2.412 . S
O889 C899 1.252 . S
O890 Gd841 2.545 . S
O890 C908 1.258 . S
O891 Gd840 2.362 . S
O891 Gd841 2.606 . S
O891 C907 1.284 . S
O892 Gd840 2.324 . S
O892 C915 1.254 . S
O893 Gd841 2.429 . S
O893 C915 1.268 . S
O894 Gd841 2.545 . S
O894 C907 1.250 . S
O895 Gd841 2.412 . S
O895 C908 1.252 . S
C896 O885 1.284 . S
C896 O888 1.250 . S
C897 H866 0.929 1_455 S
C897 C882 1.437 . S
C897 C898 1.317 . S
C898 H869 0.930 1_455 S
C898 C874 1.431 . S
C898 C897 1.317 . S
C899 Gd840 2.828 . S
C899 O884 1.258 . S
C899 O889 1.252 . S
C899 C900 1.497 1_455 S
C900 C899 1.497 1_655 S
C900 C901 1.395 . S
C900 C902 1.380 . S
C901 C900 1.395 . S
C901 C904 1.398 . S
C901 H916 0.930 . S
C902 C900 1.380 . S
C902 C903 1.391 . S
C902 H917 0.930 . S
C903 C902 1.391 . S
C903 C905 1.387 . S
C904 C901 1.398 . S
C904 C905 1.380 . S
C904 H918 0.930 . S
C905 C903 1.387 . S
C905 C904 1.380 . S
C905 H919 0.930 . S
C906 O886 1.254 . S
C906 O887 1.268 . S
C907 O891 1.284 . S
C907 O894 1.250 . S
C908 Gd841 2.828 . S
C908 O890 1.258 . S
C908 O895 1.252 . S
C908 C909 1.497 . S
C909 C908 1.497 . S
C909 C910 1.395 . S
C909 C911 1.380 . S
C910 C909 1.395 . S
C910 C913 1.398 . S
C910 H920 0.930 . S
C911 C909 1.380 . S
C911 C912 1.391 . S
C911 H921 0.930 . S
C912 C911 1.391 . S
C912 C914 1.387 . S
C913 C910 1.398 . S
C913 C914 1.380 . S
C913 H922 0.930 . S
C914 C912 1.387 . S
C914 C913 1.380 . S
C914 H923 0.930 . S
C915 O892 1.254 . S
C915 O893 1.268 . S
H916 C901 0.930 . S
H917 C902 0.930 . S
H918 C904 0.930 . S
H919 C905 0.930 . S
H920 C910 0.930 . S
H921 C911 0.930 . S
H922 C913 0.930 . S
H923 C914 0.930 . S
Gd924 N955 2.661 . S
Gd924 N961 2.601 . S
Gd924 O968 2.545 . S
Gd924 O969 2.606 . S
Gd924 O971 2.429 . S
Gd924 O972 2.545 . S
Gd924 O973 2.412 . S
Gd924 O975 2.362 . S
Gd924 O976 2.324 . S
Gd924 C983 2.828 . S
Gd925 N934 2.661 . S
Gd925 N938 2.601 . S
Gd925 O969 2.362 . S
Gd925 O970 2.324 . S
Gd925 O974 2.545 . S
Gd925 O975 2.606 . S
Gd925 O977 2.429 . S
Gd925 O978 2.545 . S
Gd925 O979 2.412 . S
Gd925 C992 2.828 . S
C926 C929 1.417 . S
C926 C931 1.431 1_655 S
C926 C932 1.412 . S
C927 C930 1.437 . S
C927 C931 1.317 1_655 S
C927 H946 0.929 1_655 S
C928 C929 1.426 . S
C928 C930 1.413 . S
C928 N938 1.359 . S
C929 C926 1.417 . S
C929 C928 1.426 . S
C929 N934 1.350 . S
C930 C927 1.437 . S
C930 C928 1.413 . S
C930 C940 1.391 . S
C931 C926 1.431 1_455 S
C931 C927 1.317 1_455 S
C931 H942 0.930 . S
C932 C926 1.412 . S
C932 C933 1.355 . S
C932 H944 0.930 1_655 S
C933 C932 1.355 . S
C933 C935 1.402 . S
C933 H945 0.930 . S
N934 Gd925 2.661 . S
N934 C929 1.350 . S
N934 C935 1.307 . S
C935 C933 1.402 . S
C935 N934 1.307 . S
C935 H936 0.930 . S
H936 C935 0.930 . S
C937 N938 1.334 . S
C937 C939 1.394 . S
C937 H941 0.930 . S
N938 Gd925 2.601 . S
N938 C928 1.359 . S
N938 C937 1.334 . S
C939 C937 1.394 . S
C939 C940 1.359 . S
C939 H951 0.930 . S
C940 C930 1.391 . S
C940 C939 1.359 . S
C940 H952 0.929 . S
H941 C937 0.930 . S
H942 C931 0.930 . S
H943 C960 0.930 . S
H944 C932 0.930 1_455 S
H945 C933 0.930 . S
H946 C927 0.929 1_455 S
H947 C965 0.930 . S
H948 C956 0.930 . S
H949 C957 0.930 . S
H950 C981 0.929 1_565 S
H951 C939 0.930 . S
H952 C940 0.929 . S
H953 C982 0.930 1_565 S
H954 C963 0.930 . S
N955 Gd924 2.661 . S
N955 C959 1.350 . S
N955 C960 1.307 . S
C956 H948 0.930 . S
C956 C957 1.355 . S
C956 C958 1.412 . S
C957 H949 0.930 . S
C957 C956 1.355 . S
C957 C960 1.402 . S
C958 C956 1.412 . S
C958 C959 1.417 . S
C958 C982 1.431 . S
C959 N955 1.350 . S
C959 C958 1.417 . S
C959 C962 1.426 . S
C960 H943 0.930 . S
C960 N955 1.307 . S
C960 C957 1.402 . S
N961 Gd924 2.601 . S
N961 C962 1.359 . S
N961 C965 1.334 . S
C962 C959 1.426 . S
C962 N961 1.359 . S
C962 C966 1.413 . S
C963 H954 0.930 . S
C963 C964 1.359 . S
C963 C965 1.394 . S
C964 C963 1.359 . S
C964 C966 1.391 . S
C964 H967 0.929 . S
C965 H947 0.930 . S
C965 N961 1.334 . S
C965 C963 1.394 . S
C966 C962 1.413 . S
C966 C964 1.391 . S
C966 C981 1.437 . S
H967 C964 0.929 . S
O968 Gd924 2.545 . S
O968 C983 1.258 . S
O969 Gd924 2.606 . S
O969 Gd925 2.362 . S
O969 C980 1.284 . S
O970 Gd925 2.324 . S
O970 C990 1.254 . S
O971 Gd924 2.429 . S
O971 C990 1.268 . S
O972 Gd924 2.545 . S
O972 C980 1.250 . S
O973 Gd924 2.412 . S
O973 C983 1.252 . S
O974 Gd925 2.545 . S
O974 C992 1.258 . S
O975 Gd924 2.362 . S
O975 Gd925 2.606 . S
O975 C991 1.284 . S
O976 Gd924 2.324 . S
O976 C999 1.254 . S
O977 Gd925 2.429 . S
O977 C999 1.268 . S
O978 Gd925 2.545 . S
O978 C991 1.250 . S
O979 Gd925 2.412 . S
O979 C992 1.252 . S
C980 O969 1.284 . S
C980 O972 1.250 . S
C981 H950 0.929 1_545 S
C981 C966 1.437 . S
C981 C982 1.317 . S
C982 H953 0.930 1_545 S
C982 C958 1.431 . S
C982 C981 1.317 . S
C983 Gd924 2.828 . S
C983 O968 1.258 . S
C983 O973 1.252 . S
C983 C984 1.497 1_545 S
C984 C983 1.497 1_565 S
C984 C985 1.395 . S
C984 C986 1.380 . S
C985 C984 1.395 . S
C985 C988 1.398 . S
C985 H1000 0.930 . S
C986 C984 1.380 . S
C986 C987 1.391 . S
C986 H1001 0.930 . S
C987 C986 1.391 . S
C987 C989 1.387 . S
C988 C985 1.398 . S
C988 C989 1.380 . S
C988 H1002 0.930 . S
C989 C987 1.387 . S
C989 C988 1.380 . S
C989 H1003 0.930 . S
C990 O970 1.254 . S
C990 O971 1.268 . S
C991 O975 1.284 . S
C991 O978 1.250 . S
C992 Gd925 2.828 . S
C992 O974 1.258 . S
C992 O979 1.252 . S
C992 C993 1.497 . S
C993 C992 1.497 . S
C993 C994 1.395 . S
C993 C995 1.380 . S
C994 C993 1.395 . S
C994 C997 1.398 . S
C994 H1004 0.930 . S
C995 C993 1.380 . S
C995 C996 1.391 . S
C995 H1005 0.930 . S
C996 C995 1.391 . S
C996 C998 1.387 . S
C997 C994 1.398 . S
C997 C998 1.380 . S
C997 H1006 0.930 . S
C998 C996 1.387 . S
C998 C997 1.380 . S
C998 H1007 0.930 . S
C999 O976 1.254 . S
C999 O977 1.268 . S
H1000 C985 0.930 . S
H1001 C986 0.930 . S
H1002 C988 0.930 . S
H1003 C989 0.930 . S
H1004 C994 0.930 . S
H1005 C995 0.930 . S
H1006 C997 0.930 . S
H1007 C998 0.930 . S
H1008 C1014 0.930 . S
H1009 C1018 0.930 . S
H1010 C1023 0.929 . S
H1011 C1021 0.929 . S
H1012 C1016 0.929 . S
H1013 C1022 0.929 . S
C1014 H1008 0.930 . S
C1014 C1015 1.367 . S
C1014 C1022 1.378 . S
C1015 C1014 1.367 . S
C1015 C1023 1.433 . S
C1016 H1012 0.929 . S
C1016 C1018 1.378 . S
C1016 C1020 1.350 . S
C1017 C1020 1.463 1_565 S
C1017 C1022 1.350 . S
C1017 N1025 1.427 . S
C1018 H1009 0.930 . S
C1018 C1016 1.378 . S
C1018 C1019 1.367 . S
C1019 C1018 1.367 . S
C1019 C1021 1.433 . S
C1020 C1016 1.350 . S
C1020 C1017 1.463 1_545 S
C1020 N1024 1.427 . S
C1021 H1011 0.929 . S
C1021 C1019 1.433 . S
C1021 N1024 1.384 . S
C1022 H1013 0.929 . S
C1022 C1014 1.378 . S
C1022 C1017 1.350 . S
C1023 H1010 0.929 . S
C1023 C1015 1.433 . S
C1023 N1025 1.384 . S
N1024 C1020 1.427 . S
N1024 C1021 1.384 . S
N1025 C1017 1.427 . S
N1025 C1023 1.384 . S
H1026 C1032 0.930 . S
H1027 C1036 0.930 . S
H1028 C1041 0.929 . S
H1029 C1039 0.929 . S
H1030 C1034 0.929 . S
H1031 C1040 0.929 . S
C1032 H1026 0.930 . S
C1032 C1033 1.367 . S
C1032 C1040 1.378 . S
C1033 C1032 1.367 . S
C1033 C1041 1.433 . S
C1034 H1030 0.929 . S
C1034 C1036 1.378 . S
C1034 C1038 1.350 . S
C1035 C1038 1.463 . S
C1035 C1040 1.350 . S
C1035 N1043 1.427 . S
C1036 H1027 0.930 . S
C1036 C1034 1.378 . S
C1036 C1037 1.367 . S
C1037 C1036 1.367 . S
C1037 C1039 1.433 . S
C1038 C1034 1.350 . S
C1038 C1035 1.463 . S
C1038 N1042 1.427 . S
C1039 H1029 0.929 . S
C1039 C1037 1.433 . S
C1039 N1042 1.384 . S
C1040 H1031 0.929 . S
C1040 C1032 1.378 . S
C1040 C1035 1.350 . S
C1041 H1028 0.929 . S
C1041 C1033 1.433 . S
C1041 N1043 1.384 . S
N1042 C1038 1.427 . S
N1042 C1039 1.384 . S
N1043 C1035 1.427 . S
N1043 C1041 1.384 . S
H1044 C1050 0.930 . S
H1045 C1054 0.930 . S
H1046 C1059 0.929 . S
H1047 C1057 0.929 . S
H1048 C1052 0.929 . S
H1049 C1058 0.929 . S
C1050 H1044 0.930 . S
C1050 C1051 1.367 . S
C1050 C1058 1.378 . S
C1051 C1050 1.367 . S
C1051 C1059 1.433 . S
C1052 H1048 0.929 . S
C1052 C1054 1.378 . S
C1052 C1056 1.350 . S
C1053 C1056 1.463 1_655 S
C1053 C1058 1.350 . S
C1053 N1061 1.427 . S
C1054 H1045 0.930 . S
C1054 C1052 1.378 . S
C1054 C1055 1.367 . S
C1055 C1054 1.367 . S
C1055 C1057 1.433 . S
C1056 C1052 1.350 . S
C1056 C1053 1.463 1_455 S
C1056 N1060 1.427 . S
C1057 H1047 0.929 . S
C1057 C1055 1.433 . S
C1057 N1060 1.384 . S
C1058 H1049 0.929 . S
C1058 C1050 1.378 . S
C1058 C1053 1.350 . S
C1059 H1046 0.929 . S
C1059 C1051 1.433 . S
C1059 N1061 1.384 . S
N1060 C1056 1.427 . S
N1060 C1057 1.384 . S
N1061 C1053 1.427 . S
N1061 C1059 1.384 . S
H1062 C1068 0.930 . S
H1063 C1072 0.930 . S
H1064 C1077 0.929 . S
H1065 C1075 0.929 . S
H1066 C1070 0.929 . S
H1067 C1076 0.929 . S
C1068 H1062 0.930 . S
C1068 C1069 1.367 . S
C1068 C1076 1.378 . S
C1069 C1068 1.367 . S
C1069 C1077 1.433 . S
C1070 H1066 0.929 . S
C1070 C1072 1.378 . S
C1070 C1074 1.350 . S
C1071 C1074 1.463 1_565 S
C1071 C1076 1.350 . S
C1071 N1079 1.427 . S
C1072 H1063 0.930 . S
C1072 C1070 1.378 . S
C1072 C1073 1.367 . S
C1073 C1072 1.367 . S
C1073 C1075 1.433 . S
C1074 C1070 1.350 . S
C1074 C1071 1.463 1_545 S
C1074 N1078 1.427 . S
C1075 H1065 0.929 . S
C1075 C1073 1.433 . S
C1075 N1078 1.384 . S
C1076 H1067 0.929 . S
C1076 C1068 1.378 . S
C1076 C1071 1.350 . S
C1077 H1064 0.929 . S
C1077 C1069 1.433 . S
C1077 N1079 1.384 . S
N1078 C1074 1.427 . S
N1078 C1075 1.384 . S
N1079 C1071 1.427 . S
N1079 C1077 1.384 . S
H1080 C1086 0.930 . S
H1081 C1090 0.930 . S
H1082 C1095 0.929 . S
H1083 C1093 0.929 . S
H1084 C1088 0.929 . S
H1085 C1094 0.929 . S
C1086 H1080 0.930 . S
C1086 C1087 1.367 . S
C1086 C1094 1.378 . S
C1087 C1086 1.367 . S
C1087 C1095 1.433 . S
C1088 H1084 0.929 . S
C1088 C1090 1.378 . S
C1088 C1092 1.350 . S
C1089 C1092 1.463 . S
C1089 C1094 1.350 . S
C1089 N1097 1.427 . S
C1090 H1081 0.930 . S
C1090 C1088 1.378 . S
C1090 C1091 1.367 . S
C1091 C1090 1.367 . S
C1091 C1093 1.433 . S
C1092 C1088 1.350 . S
C1092 C1089 1.463 . S
C1092 N1096 1.427 . S
C1093 H1083 0.929 . S
C1093 C1091 1.433 . S
C1093 N1096 1.384 . S
C1094 H1085 0.929 . S
C1094 C1086 1.378 . S
C1094 C1089 1.350 . S
C1095 H1082 0.929 . S
C1095 C1087 1.433 . S
C1095 N1097 1.384 . S
N1096 C1092 1.427 . S
N1096 C1093 1.384 . S
N1097 C1089 1.427 . S
N1097 C1095 1.384 . S
H1098 C1104 0.930 . S
H1099 C1108 0.930 . S
H1100 C1113 0.929 . S
H1101 C1111 0.929 . S
H1102 C1106 0.929 . S
H1103 C1112 0.929 . S
C1104 H1098 0.930 . S
C1104 C1105 1.367 . S
C1104 C1112 1.378 . S
C1105 C1104 1.367 . S
C1105 C1113 1.433 . S
C1106 H1102 0.929 . S
C1106 C1108 1.378 . S
C1106 C1110 1.350 . S
C1107 C1110 1.463 1_655 S
C1107 C1112 1.350 . S
C1107 N1115 1.427 . S
C1108 H1099 0.930 . S
C1108 C1106 1.378 . S
C1108 C1109 1.367 . S
C1109 C1108 1.367 . S
C1109 C1111 1.433 . S
C1110 C1106 1.350 . S
C1110 C1107 1.463 1_455 S
C1110 N1114 1.427 . S
C1111 H1101 0.929 . S
C1111 C1109 1.433 . S
C1111 N1114 1.384 . S
C1112 H1103 0.929 . S
C1112 C1104 1.378 . S
C1112 C1107 1.350 . S
C1113 H1100 0.929 . S
C1113 C1105 1.433 . S
C1113 N1115 1.384 . S
N1114 C1110 1.427 . S
N1114 C1111 1.384 . S
N1115 C1107 1.427 . S
N1115 C1113 1.384 . S
H1116 C1122 0.930 . S
H1117 C1126 0.930 . S
H1118 C1131 0.929 . S
H1119 C1129 0.929 . S
H1120 C1124 0.929 . S
H1121 C1130 0.929 . S
C1122 H1116 0.930 . S
C1122 C1123 1.367 . S
C1122 C1130 1.378 . S
C1123 C1122 1.367 . S
C1123 C1131 1.433 . S
C1124 H1120 0.929 . S
C1124 C1126 1.378 . S
C1124 C1128 1.350 . S
C1125 C1128 1.463 1_455 S
C1125 C1130 1.350 . S
C1125 N1133 1.427 . S
C1126 H1117 0.930 . S
C1126 C1124 1.378 . S
C1126 C1127 1.367 . S
C1127 C1126 1.367 . S
C1127 C1129 1.433 . S
C1128 C1124 1.350 . S
C1128 C1125 1.463 1_655 S
C1128 N1132 1.427 . S
C1129 H1119 0.929 . S
C1129 C1127 1.433 . S
C1129 N1132 1.384 . S
C1130 H1121 0.929 . S
C1130 C1122 1.378 . S
C1130 C1125 1.350 . S
C1131 H1118 0.929 . S
C1131 C1123 1.433 . S
C1131 N1133 1.384 . S
N1132 C1128 1.427 . S
N1132 C1129 1.384 . S
N1133 C1125 1.427 . S
N1133 C1131 1.384 . S
H1134 C1140 0.930 . S
H1135 C1144 0.930 . S
H1136 C1149 0.929 . S
H1137 C1147 0.929 . S
H1138 C1142 0.929 . S
H1139 C1148 0.929 . S
C1140 H1134 0.930 . S
C1140 C1141 1.367 . S
C1140 C1148 1.378 . S
C1141 C1140 1.367 . S
C1141 C1149 1.433 . S
C1142 H1138 0.929 . S
C1142 C1144 1.378 . S
C1142 C1146 1.350 . S
C1143 C1146 1.463 1_565 S
C1143 C1148 1.350 . S
C1143 N1151 1.427 . S
C1144 H1135 0.930 . S
C1144 C1142 1.378 . S
C1144 C1145 1.367 . S
C1145 C1144 1.367 . S
C1145 C1147 1.433 . S
C1146 C1142 1.350 . S
C1146 C1143 1.463 1_545 S
C1146 N1150 1.427 . S
C1147 H1137 0.929 . S
C1147 C1145 1.433 . S
C1147 N1150 1.384 . S
C1148 H1139 0.929 . S
C1148 C1140 1.378 . S
C1148 C1143 1.350 . S
C1149 H1136 0.929 . S
C1149 C1141 1.433 . S
C1149 N1151 1.384 . S
N1150 C1146 1.427 . S
N1150 C1147 1.384 . S
N1151 C1143 1.427 . S
N1151 C1149 1.384 . S
H1152 C1158 0.930 . S
H1153 C1162 0.930 . S
H1154 C1167 0.929 . S
H1155 C1165 0.929 . S
H1156 C1160 0.929 . S
H1157 C1166 0.929 . S
C1158 H1152 0.930 . S
C1158 C1159 1.367 . S
C1158 C1166 1.378 . S
C1159 C1158 1.367 . S
C1159 C1167 1.433 . S
C1160 H1156 0.929 . S
C1160 C1162 1.378 . S
C1160 C1164 1.350 . S
C1161 C1164 1.463 . S
C1161 C1166 1.350 . S
C1161 N1169 1.427 . S
C1162 H1153 0.930 . S
C1162 C1160 1.378 . S
C1162 C1163 1.367 . S
C1163 C1162 1.367 . S
C1163 C1165 1.433 . S
C1164 C1160 1.350 . S
C1164 C1161 1.463 . S
C1164 N1168 1.427 . S
C1165 H1155 0.929 . S
C1165 C1163 1.433 . S
C1165 N1168 1.384 . S
C1166 H1157 0.929 . S
C1166 C1158 1.378 . S
C1166 C1161 1.350 . S
C1167 H1154 0.929 . S
C1167 C1159 1.433 . S
C1167 N1169 1.384 . S
N1168 C1164 1.427 . S
N1168 C1165 1.384 . S
N1169 C1161 1.427 . S
N1169 C1167 1.384 . S
H1170 C1176 0.930 . S
H1171 C1180 0.930 . S
H1172 C1185 0.929 . S
H1173 C1183 0.929 . S
H1174 C1178 0.929 1_455 S
H1175 C1184 0.929 . S
C1176 H1170 0.930 . S
C1176 C1177 1.367 . S
C1176 C1184 1.378 . S
C1177 C1176 1.367 . S
C1177 C1185 1.433 . S
C1178 H1174 0.929 1_655 S
C1178 C1180 1.378 . S
C1178 C1182 1.350 . S
C1179 C1182 1.463 1_455 S
C1179 C1184 1.350 . S
C1179 N1187 1.427 . S
C1180 H1171 0.930 . S
C1180 C1178 1.378 . S
C1180 C1181 1.367 . S
C1181 C1180 1.367 . S
C1181 C1183 1.433 . S
C1182 C1178 1.350 . S
C1182 C1179 1.463 1_655 S
C1182 N1186 1.427 . S
C1183 H1173 0.929 . S
C1183 C1181 1.433 . S
C1183 N1186 1.384 . S
C1184 H1175 0.929 . S
C1184 C1176 1.378 . S
C1184 C1179 1.350 . S
C1185 H1172 0.929 . S
C1185 C1177 1.433 . S
C1185 N1187 1.384 . S
N1186 C1182 1.427 . S
N1186 C1183 1.384 . S
N1187 C1179 1.427 . S
N1187 C1185 1.384 . S
H1188 C1194 0.930 . S
H1189 C1198 0.930 . S
H1190 C1203 0.929 . S
H1191 C1201 0.929 . S
H1192 C1196 0.929 . S
H1193 C1202 0.929 . S
C1194 H1188 0.930 . S
C1194 C1195 1.367 . S
C1194 C1202 1.378 . S
C1195 C1194 1.367 . S
C1195 C1203 1.433 . S
C1196 H1192 0.929 . S
C1196 C1198 1.378 . S
C1196 C1200 1.350 . S
C1197 C1200 1.463 1_545 S
C1197 C1202 1.350 . S
C1197 N1205 1.427 . S
C1198 H1189 0.930 . S
C1198 C1196 1.378 . S
C1198 C1199 1.367 . S
C1199 C1198 1.367 . S
C1199 C1201 1.433 . S
C1200 C1196 1.350 . S
C1200 C1197 1.463 1_565 S
C1200 N1204 1.427 . S
C1201 H1191 0.929 . S
C1201 C1199 1.433 . S
C1201 N1204 1.384 . S
C1202 H1193 0.929 . S
C1202 C1194 1.378 . S
C1202 C1197 1.350 . S
C1203 H1190 0.929 . S
C1203 C1195 1.433 . S
C1203 N1205 1.384 . S
N1204 C1200 1.427 . S
N1204 C1201 1.384 . S
N1205 C1197 1.427 . S
N1205 C1203 1.384 . S
H1206 C1212 0.930 . S
H1207 C1216 0.930 . S
H1208 C1221 0.929 . S
H1209 C1219 0.929 . S
H1210 C1214 0.929 . S
H1211 C1220 0.929 . S
C1212 H1206 0.930 . S
C1212 C1213 1.367 . S
C1212 C1220 1.378 . S
C1213 C1212 1.367 . S
C1213 C1221 1.433 . S
C1214 H1210 0.929 . S
C1214 C1216 1.378 . S
C1214 C1218 1.350 . S
C1215 C1218 1.463 . S
C1215 C1220 1.350 . S
C1215 N1223 1.427 . S
C1216 H1207 0.930 . S
C1216 C1214 1.378 . S
C1216 C1217 1.367 . S
C1217 C1216 1.367 . S
C1217 C1219 1.433 . S
C1218 C1214 1.350 . S
C1218 C1215 1.463 . S
C1218 N1222 1.427 . S
C1219 H1209 0.929 . S
C1219 C1217 1.433 . S
C1219 N1222 1.384 . S
C1220 H1211 0.929 . S
C1220 C1212 1.378 . S
C1220 C1215 1.350 . S
C1221 H1208 0.929 . S
C1221 C1213 1.433 . S
C1221 N1223 1.384 . S
N1222 C1218 1.427 . S
N1222 C1219 1.384 . S
N1223 C1215 1.427 . S
N1223 C1221 1.384 . S
H1224 C1230 0.930 . S
H1225 C1234 0.930 . S
H1226 C1239 0.929 . S
H1227 C1237 0.929 . S
H1228 C1232 0.929 . S
H1229 C1238 0.929 . S
C1230 H1224 0.930 . S
C1230 C1231 1.367 . S
C1230 C1238 1.378 . S
C1231 C1230 1.367 . S
C1231 C1239 1.433 . S
C1232 H1228 0.929 . S
C1232 C1234 1.378 . S
C1232 C1236 1.350 . S
C1233 C1236 1.463 . S
C1233 C1238 1.350 . S
C1233 N1241 1.427 . S
C1234 H1225 0.930 . S
C1234 C1232 1.378 . S
C1234 C1235 1.367 . S
C1235 C1234 1.367 . S
C1235 C1237 1.433 . S
C1236 C1232 1.350 . S
C1236 C1233 1.463 . S
C1236 N1240 1.427 . S
C1237 H1227 0.929 . S
C1237 C1235 1.433 . S
C1237 N1240 1.384 . S
C1238 H1229 0.929 . S
C1238 C1230 1.378 . S
C1238 C1233 1.350 . S
C1239 H1226 0.929 . S
C1239 C1231 1.433 . S
C1239 N1241 1.384 . S
N1240 C1236 1.427 . S
N1240 C1237 1.384 . S
N1241 C1233 1.427 . S
N1241 C1239 1.384 . S
H1242 C1248 0.930 . S
H1243 C1252 0.930 . S
H1244 C1257 0.929 . S
H1245 C1255 0.929 . S
H1246 C1250 0.929 . S
H1247 C1256 0.929 . S
C1248 H1242 0.930 . S
C1248 C1249 1.367 . S
C1248 C1256 1.378 . S
C1249 C1248 1.367 . S
C1249 C1257 1.433 . S
C1250 H1246 0.929 . S
C1250 C1252 1.378 . S
C1250 C1254 1.350 . S
C1251 C1254 1.463 . S
C1251 C1256 1.350 . S
C1251 N1259 1.427 . S
C1252 H1243 0.930 . S
C1252 C1250 1.378 . S
C1252 C1253 1.367 . S
C1253 C1252 1.367 . S
C1253 C1255 1.433 . S
C1254 C1250 1.350 . S
C1254 C1251 1.463 . S
C1254 N1258 1.427 . S
C1255 H1245 0.929 . S
C1255 C1253 1.433 . S
C1255 N1258 1.384 . S
C1256 H1247 0.929 . S
C1256 C1248 1.378 . S
C1256 C1251 1.350 . S
C1257 H1244 0.929 . S
C1257 C1249 1.433 . S
C1257 N1259 1.384 . S
N1258 C1254 1.427 . S
N1258 C1255 1.384 . S
N1259 C1251 1.427 . S
N1259 C1257 1.384 . S
H1260 C1266 0.930 . S
H1261 C1270 0.930 . S
H1262 C1275 0.929 . S
H1263 C1273 0.929 . S
H1264 C1268 0.929 . S
H1265 C1274 0.929 . S
C1266 H1260 0.930 . S
C1266 C1267 1.367 . S
C1266 C1274 1.378 . S
C1267 C1266 1.367 . S
C1267 C1275 1.433 . S
C1268 H1264 0.929 . S
C1268 C1270 1.378 . S
C1268 C1272 1.350 . S
C1269 C1272 1.463 . S
C1269 C1274 1.350 . S
C1269 N1277 1.427 . S
C1270 H1261 0.930 . S
C1270 C1268 1.378 . S
C1270 C1271 1.367 . S
C1271 C1270 1.367 . S
C1271 C1273 1.433 . S
C1272 C1268 1.350 . S
C1272 C1269 1.463 . S
C1272 N1276 1.427 . S
C1273 H1263 0.929 . S
C1273 C1271 1.433 . S
C1273 N1276 1.384 . S
C1274 H1265 0.929 . S
C1274 C1266 1.378 . S
C1274 C1269 1.350 . S
C1275 H1262 0.929 . S
C1275 C1267 1.433 . S
C1275 N1277 1.384 . S
N1276 C1272 1.427 . S
N1276 C1273 1.384 . S
N1277 C1269 1.427 . S
N1277 C1275 1.384 . S
H1278 C1284 0.930 . S
H1279 C1288 0.930 . S
H1280 C1293 0.929 . S
H1281 C1291 0.929 . S
H1282 C1286 0.929 . S
H1283 C1292 0.929 . S
C1284 H1278 0.930 . S
C1284 C1285 1.367 . S
C1284 C1292 1.378 . S
C1285 C1284 1.367 . S
C1285 C1293 1.433 . S
C1286 H1282 0.929 . S
C1286 C1288 1.378 . S
C1286 C1290 1.350 . S
C1287 C1290 1.463 . S
C1287 C1292 1.350 . S
C1287 N1295 1.427 . S
C1288 H1279 0.930 . S
C1288 C1286 1.378 . S
C1288 C1289 1.367 . S
C1289 C1288 1.367 . S
C1289 C1291 1.433 . S
C1290 C1286 1.350 . S
C1290 C1287 1.463 . S
C1290 N1294 1.427 . S
C1291 H1281 0.929 . S
C1291 C1289 1.433 . S
C1291 N1294 1.384 . S
C1292 H1283 0.929 . S
C1292 C1284 1.378 . S
C1292 C1287 1.350 . S
C1293 H1280 0.929 . S
C1293 C1285 1.433 . S
C1293 N1295 1.384 . S
N1294 C1290 1.427 . S
N1294 C1291 1.384 . S
N1295 C1287 1.427 . S
N1295 C1293 1.384 . S
H1296 C1302 0.930 . S
H1297 C1306 0.930 . S
H1298 C1311 0.929 . S
H1299 C1309 0.929 . S
H1300 C1304 0.929 . S
H1301 C1310 0.929 . S
C1302 H1296 0.930 . S
C1302 C1303 1.367 . S
C1302 C1310 1.378 . S
C1303 C1302 1.367 . S
C1303 C1311 1.433 . S
C1304 H1300 0.929 . S
C1304 C1306 1.378 . S
C1304 C1308 1.350 . S
C1305 C1308 1.463 . S
C1305 C1310 1.350 . S
C1305 N1313 1.427 . S
C1306 H1297 0.930 . S
C1306 C1304 1.378 . S
C1306 C1307 1.367 . S
C1307 C1306 1.367 . S
C1307 C1309 1.433 . S
C1308 C1304 1.350 . S
C1308 C1305 1.463 . S
C1308 N1312 1.427 . S
C1309 H1299 0.929 . S
C1309 C1307 1.433 . S
C1309 N1312 1.384 . S
C1310 H1301 0.929 . S
C1310 C1302 1.378 . S
C1310 C1305 1.350 . S
C1311 H1298 0.929 . S
C1311 C1303 1.433 . S
C1311 N1313 1.384 . S
N1312 C1308 1.427 . S
N1312 C1309 1.384 . S
N1313 C1305 1.427 . S
N1313 C1311 1.384 . S
H1314 C1320 0.930 . S
H1315 C1324 0.930 . S
H1316 C1329 0.929 . S
H1317 C1327 0.929 . S
H1318 C1322 0.929 . S
H1319 C1328 0.929 . S
C1320 H1314 0.930 . S
C1320 C1321 1.367 . S
C1320 C1328 1.378 . S
C1321 C1320 1.367 . S
C1321 C1329 1.433 . S
C1322 H1318 0.929 . S
C1322 C1324 1.378 . S
C1322 C1326 1.350 . S
C1323 C1326 1.463 . S
C1323 C1328 1.350 . S
C1323 N1331 1.427 . S
C1324 H1315 0.930 . S
C1324 C1322 1.378 . S
C1324 C1325 1.367 . S
C1325 C1324 1.367 . S
C1325 C1327 1.433 . S
C1326 C1322 1.350 . S
C1326 C1323 1.463 . S
C1326 N1330 1.427 . S
C1327 H1317 0.929 . S
C1327 C1325 1.433 . S
C1327 N1330 1.384 . S
C1328 H1319 0.929 . S
C1328 C1320 1.378 . S
C1328 C1323 1.350 . S
C1329 H1316 0.929 . S
C1329 C1321 1.433 . S
C1329 N1331 1.384 . S
N1330 C1326 1.427 . S
N1330 C1327 1.384 . S
N1331 C1323 1.427 . S
N1331 C1329 1.384 . S
H1332 C1338 0.930 . S
H1333 C1342 0.930 . S
H1334 C1347 0.929 . S
H1335 C1345 0.929 . S
H1336 C1340 0.929 . S
H1337 C1346 0.929 . S
C1338 H1332 0.930 . S
C1338 C1339 1.367 . S
C1338 C1346 1.378 . S
C1339 C1338 1.367 . S
C1339 C1347 1.433 . S
C1340 H1336 0.929 . S
C1340 C1342 1.378 . S
C1340 C1344 1.350 . S
C1341 C1344 1.463 . S
C1341 C1346 1.350 . S
C1341 N1349 1.427 . S
C1342 H1333 0.930 . S
C1342 C1340 1.378 . S
C1342 C1343 1.367 . S
C1343 C1342 1.367 . S
C1343 C1345 1.433 . S
C1344 C1340 1.350 . S
C1344 C1341 1.463 . S
C1344 N1348 1.427 . S
C1345 H1335 0.929 . S
C1345 C1343 1.433 . S
C1345 N1348 1.384 . S
C1346 H1337 0.929 . S
C1346 C1338 1.378 . S
C1346 C1341 1.350 . S
C1347 H1334 0.929 . S
C1347 C1339 1.433 . S
C1347 N1349 1.384 . S
N1348 C1344 1.427 . S
N1348 C1345 1.384 . S
N1349 C1341 1.427 . S
N1349 C1347 1.384 . S
H1350 C1356 0.930 . S
H1351 C1360 0.930 . S
H1352 C1365 0.929 . S
H1353 C1363 0.929 . S
H1354 C1358 0.929 . S
H1355 C1364 0.929 . S
C1356 H1350 0.930 . S
C1356 C1357 1.367 . S
C1356 C1364 1.378 . S
C1357 C1356 1.367 . S
C1357 C1365 1.433 . S
C1358 H1354 0.929 . S
C1358 C1360 1.378 . S
C1358 C1362 1.350 . S
C1359 C1362 1.463 . S
C1359 C1364 1.350 . S
C1359 N1367 1.427 . S
C1360 H1351 0.930 . S
C1360 C1358 1.378 . S
C1360 C1361 1.367 . S
C1361 C1360 1.367 . S
C1361 C1363 1.433 . S
C1362 C1358 1.350 . S
C1362 C1359 1.463 . S
C1362 N1366 1.427 . S
C1363 H1353 0.929 . S
C1363 C1361 1.433 . S
C1363 N1366 1.384 . S
C1364 H1355 0.929 . S
C1364 C1356 1.378 . S
C1364 C1359 1.350 . S
C1365 H1352 0.929 . S
C1365 C1357 1.433 . S
C1365 N1367 1.384 . S
N1366 C1362 1.427 . S
N1366 C1363 1.384 . S
N1367 C1359 1.427 . S
N1367 C1365 1.384 . S
H1368 C1374 0.930 . S
H1369 C1378 0.930 . S
H1370 C1383 0.929 . S
H1371 C1381 0.929 . S
H1372 C1376 0.929 . S
H1373 C1382 0.929 . S
C1374 H1368 0.930 . S
C1374 C1375 1.367 . S
C1374 C1382 1.378 . S
C1375 C1374 1.367 . S
C1375 C1383 1.433 . S
C1376 H1372 0.929 . S
C1376 C1378 1.378 . S
C1376 C1380 1.350 . S
C1377 C1380 1.463 . S
C1377 C1382 1.350 . S
C1377 N1385 1.427 . S
C1378 H1369 0.930 . S
C1378 C1376 1.378 . S
C1378 C1379 1.367 . S
C1379 C1378 1.367 . S
C1379 C1381 1.433 . S
C1380 C1376 1.350 . S
C1380 C1377 1.463 . S
C1380 N1384 1.427 . S
C1381 H1371 0.929 . S
C1381 C1379 1.433 . S
C1381 N1384 1.384 . S
C1382 H1373 0.929 . S
C1382 C1374 1.378 . S
C1382 C1377 1.350 . S
C1383 H1370 0.929 . S
C1383 C1375 1.433 . S
C1383 N1385 1.384 . S
N1384 C1380 1.427 . S
N1384 C1381 1.384 . S
N1385 C1377 1.427 . S
N1385 C1383 1.384 . S
H1386 C1392 0.930 . S
H1387 C1396 0.930 . S
H1388 C1401 0.929 . S
H1389 C1399 0.929 . S
H1390 C1394 0.929 . S
H1391 C1400 0.929 . S
C1392 H1386 0.930 . S
C1392 C1393 1.367 . S
C1392 C1400 1.378 . S
C1393 C1392 1.367 . S
C1393 C1401 1.433 . S
C1394 H1390 0.929 . S
C1394 C1396 1.378 . S
C1394 C1398 1.350 . S
C1395 C1398 1.463 . S
C1395 C1400 1.350 . S
C1395 N1403 1.427 . S
C1396 H1387 0.930 . S
C1396 C1394 1.378 . S
C1396 C1397 1.367 . S
C1397 C1396 1.367 . S
C1397 C1399 1.433 . S
C1398 C1394 1.350 . S
C1398 C1395 1.463 . S
C1398 N1402 1.427 . S
C1399 H1389 0.929 . S
C1399 C1397 1.433 . S
C1399 N1402 1.384 . S
C1400 H1391 0.929 . S
C1400 C1392 1.378 . S
C1400 C1395 1.350 . S
C1401 H1388 0.929 . S
C1401 C1393 1.433 . S
C1401 N1403 1.384 . S
N1402 C1398 1.427 . S
N1402 C1399 1.384 . S
N1403 C1395 1.427 . S
N1403 C1401 1.384 . S
H1404 C1410 0.930 . S
H1405 C1414 0.930 . S
H1406 C1419 0.929 . S
H1407 C1417 0.929 . S
H1408 C1412 0.929 . S
H1409 C1418 0.929 . S
C1410 H1404 0.930 . S
C1410 C1411 1.367 . S
C1410 C1418 1.378 . S
C1411 C1410 1.367 . S
C1411 C1419 1.433 . S
C1412 H1408 0.929 . S
C1412 C1414 1.378 . S
C1412 C1416 1.350 . S
C1413 C1416 1.463 . S
C1413 C1418 1.350 . S
C1413 N1421 1.427 . S
C1414 H1405 0.930 . S
C1414 C1412 1.378 . S
C1414 C1415 1.367 . S
C1415 C1414 1.367 . S
C1415 C1417 1.433 . S
C1416 C1412 1.350 . S
C1416 C1413 1.463 . S
C1416 N1420 1.427 . S
C1417 H1407 0.929 . S
C1417 C1415 1.433 . S
C1417 N1420 1.384 . S
C1418 H1409 0.929 . S
C1418 C1410 1.378 . S
C1418 C1413 1.350 . S
C1419 H1406 0.929 . S
C1419 C1411 1.433 . S
C1419 N1421 1.384 . S
N1420 C1416 1.427 . S
N1420 C1417 1.384 . S
N1421 C1413 1.427 . S
N1421 C1419 1.384 . S
H1422 C1428 0.930 . S
H1423 C1432 0.930 . S
H1424 C1437 0.929 . S
H1425 C1435 0.929 . S
H1426 C1430 0.929 . S
H1427 C1436 0.929 . S
C1428 H1422 0.930 . S
C1428 C1429 1.367 . S
C1428 C1436 1.378 . S
C1429 C1428 1.367 . S
C1429 C1437 1.433 . S
C1430 H1426 0.929 . S
C1430 C1432 1.378 . S
C1430 C1434 1.350 . S
C1431 C1434 1.463 . S
C1431 C1436 1.350 . S
C1431 N1439 1.427 . S
C1432 H1423 0.930 . S
C1432 C1430 1.378 . S
C1432 C1433 1.367 . S
C1433 C1432 1.367 . S
C1433 C1435 1.433 . S
C1434 C1430 1.350 . S
C1434 C1431 1.463 . S
C1434 N1438 1.427 . S
C1435 H1425 0.929 . S
C1435 C1433 1.433 . S
C1435 N1438 1.384 . S
C1436 H1427 0.929 . S
C1436 C1428 1.378 . S
C1436 C1431 1.350 . S
C1437 H1424 0.929 . S
C1437 C1429 1.433 . S
C1437 N1439 1.384 . S
N1438 C1434 1.427 . S
N1438 C1435 1.384 . S
N1439 C1431 1.427 . S
N1439 C1437 1.384 . S
H1440 C1446 0.930 . S
H1441 C1450 0.930 . S
H1442 C1455 0.929 . S
H1443 C1453 0.929 . S
H1444 C1448 0.929 . S
H1445 C1454 0.929 . S
C1446 H1440 0.930 . S
C1446 C1447 1.367 . S
C1446 C1454 1.378 . S
C1447 C1446 1.367 . S
C1447 C1455 1.433 . S
C1448 H1444 0.929 . S
C1448 C1450 1.378 . S
C1448 C1452 1.350 . S
C1449 C1452 1.463 . S
C1449 C1454 1.350 . S
C1449 N1457 1.427 . S
C1450 H1441 0.930 . S
C1450 C1448 1.378 . S
C1450 C1451 1.367 . S
C1451 C1450 1.367 . S
C1451 C1453 1.433 . S
C1452 C1448 1.350 . S
C1452 C1449 1.463 . S
C1452 N1456 1.427 . S
C1453 H1443 0.929 . S
C1453 C1451 1.433 . S
C1453 N1456 1.384 . S
C1454 H1445 0.929 . S
C1454 C1446 1.378 . S
C1454 C1449 1.350 . S
C1455 H1442 0.929 . S
C1455 C1447 1.433 . S
C1455 N1457 1.384 . S
N1456 C1452 1.427 . S
N1456 C1453 1.384 . S
N1457 C1449 1.427 . S
N1457 C1455 1.384 . S
H1458 C1464 0.930 . S
H1459 C1468 0.930 . S
H1460 C1473 0.929 . S
H1461 C1471 0.929 . S
H1462 C1466 0.929 . S
H1463 C1472 0.929 . S
C1464 H1458 0.930 . S
C1464 C1465 1.367 . S
C1464 C1472 1.378 . S
C1465 C1464 1.367 . S
C1465 C1473 1.433 . S
C1466 H1462 0.929 . S
C1466 C1468 1.378 . S
C1466 C1470 1.350 . S
C1467 C1470 1.463 . S
C1467 C1472 1.350 . S
C1467 N1475 1.427 . S
C1468 H1459 0.930 . S
C1468 C1466 1.378 . S
C1468 C1469 1.367 . S
C1469 C1468 1.367 . S
C1469 C1471 1.433 . S
C1470 C1466 1.350 . S
C1470 C1467 1.463 . S
C1470 N1474 1.427 . S
C1471 H1461 0.929 . S
C1471 C1469 1.433 . S
C1471 N1474 1.384 . S
C1472 H1463 0.929 . S
C1472 C1464 1.378 . S
C1472 C1467 1.350 . S
C1473 H1460 0.929 . S
C1473 C1465 1.433 . S
C1473 N1475 1.384 . S
N1474 C1470 1.427 . S
N1474 C1471 1.384 . S
N1475 C1467 1.427 . S
N1475 C1473 1.384 . S
H1476 C1482 0.930 . S
H1477 C1486 0.930 . S
H1478 C1491 0.929 . S
H1479 C1489 0.929 . S
H1480 C1484 0.929 . S
H1481 C1490 0.929 . S
C1482 H1476 0.930 . S
C1482 C1483 1.367 . S
C1482 C1490 1.378 . S
C1483 C1482 1.367 . S
C1483 C1491 1.433 . S
C1484 H1480 0.929 . S
C1484 C1486 1.378 . S
C1484 C1488 1.350 . S
C1485 C1488 1.463 . S
C1485 C1490 1.350 . S
C1485 N1493 1.427 . S
C1486 H1477 0.930 . S
C1486 C1484 1.378 . S
C1486 C1487 1.367 . S
C1487 C1486 1.367 . S
C1487 C1489 1.433 . S
C1488 C1484 1.350 . S
C1488 C1485 1.463 . S
C1488 N1492 1.427 . S
C1489 H1479 0.929 . S
C1489 C1487 1.433 . S
C1489 N1492 1.384 . S
C1490 H1481 0.929 . S
C1490 C1482 1.378 . S
C1490 C1485 1.350 . S
C1491 H1478 0.929 . S
C1491 C1483 1.433 . S
C1491 N1493 1.384 . S
N1492 C1488 1.427 . S
N1492 C1489 1.384 . S
N1493 C1485 1.427 . S
N1493 C1491 1.384 . S
H1494 C1500 0.930 . S
H1495 C1504 0.930 . S
H1496 C1509 0.929 . S
H1497 C1507 0.929 . S
H1498 C1502 0.929 . S
H1499 C1508 0.929 . S
C1500 H1494 0.930 . S
C1500 C1501 1.367 . S
C1500 C1508 1.378 . S
C1501 C1500 1.367 . S
C1501 C1509 1.433 . S
C1502 H1498 0.929 . S
C1502 C1504 1.378 . S
C1502 C1506 1.350 . S
C1503 C1506 1.463 . S
C1503 C1508 1.350 . S
C1503 N1511 1.427 . S
C1504 H1495 0.930 . S
C1504 C1502 1.378 . S
C1504 C1505 1.367 . S
C1505 C1504 1.367 . S
C1505 C1507 1.433 . S
C1506 C1502 1.350 . S
C1506 C1503 1.463 . S
C1506 N1510 1.427 . S
C1507 H1497 0.929 . S
C1507 C1505 1.433 . S
C1507 N1510 1.384 . S
C1508 H1499 0.929 . S
C1508 C1500 1.378 . S
C1508 C1503 1.350 . S
C1509 H1496 0.929 . S
C1509 C1501 1.433 . S
C1509 N1511 1.384 . S
N1510 C1506 1.427 . S
N1510 C1507 1.384 . S
N1511 C1503 1.427 . S
N1511 C1509 1.384 . S
H1512 C1518 0.930 . S
H1513 C1522 0.930 . S
H1514 C1527 0.929 . S
H1515 C1525 0.929 . S
H1516 C1520 0.929 . S
H1517 C1526 0.929 . S
C1518 H1512 0.930 . S
C1518 C1519 1.367 . S
C1518 C1526 1.378 . S
C1519 C1518 1.367 . S
C1519 C1527 1.433 . S
C1520 H1516 0.929 . S
C1520 C1522 1.378 . S
C1520 C1524 1.350 . S
C1521 C1524 1.463 . S
C1521 C1526 1.350 . S
C1521 N1529 1.427 . S
C1522 H1513 0.930 . S
C1522 C1520 1.378 . S
C1522 C1523 1.367 . S
C1523 C1522 1.367 . S
C1523 C1525 1.433 . S
C1524 C1520 1.350 . S
C1524 C1521 1.463 . S
C1524 N1528 1.427 . S
C1525 H1515 0.929 . S
C1525 C1523 1.433 . S
C1525 N1528 1.384 . S
C1526 H1517 0.929 . S
C1526 C1518 1.378 . S
C1526 C1521 1.350 . S
C1527 H1514 0.929 . S
C1527 C1519 1.433 . S
C1527 N1529 1.384 . S
N1528 C1524 1.427 . S
N1528 C1525 1.384 . S
N1529 C1521 1.427 . S
N1529 C1527 1.384 . S
H1530 C1536 0.930 . S
H1531 C1540 0.930 . S
H1532 C1545 0.929 . S
H1533 C1543 0.929 . S
H1534 C1538 0.929 . S
H1535 C1544 0.929 . S
C1536 H1530 0.930 . S
C1536 C1537 1.367 . S
C1536 C1544 1.378 . S
C1537 C1536 1.367 . S
C1537 C1545 1.433 . S
C1538 H1534 0.929 . S
C1538 C1540 1.378 . S
C1538 C1542 1.350 . S
C1539 C1542 1.463 . S
C1539 C1544 1.350 . S
C1539 N1547 1.427 . S
C1540 H1531 0.930 . S
C1540 C1538 1.378 . S
C1540 C1541 1.367 . S
C1541 C1540 1.367 . S
C1541 C1543 1.433 . S
C1542 C1538 1.350 . S
C1542 C1539 1.463 . S
C1542 N1546 1.427 . S
C1543 H1533 0.929 . S
C1543 C1541 1.433 . S
C1543 N1546 1.384 . S
C1544 H1535 0.929 . S
C1544 C1536 1.378 . S
C1544 C1539 1.350 . S
C1545 H1532 0.929 . S
C1545 C1537 1.433 . S
C1545 N1547 1.384 . S
N1546 C1542 1.427 . S
N1546 C1543 1.384 . S
N1547 C1539 1.427 . S
N1547 C1545 1.384 . S
H1548 C1554 0.930 . S
H1549 C1558 0.930 . S
H1550 C1563 0.929 . S
H1551 C1561 0.929 . S
H1552 C1556 0.929 . S
H1553 C1562 0.929 . S
C1554 H1548 0.930 . S
C1554 C1555 1.367 . S
C1554 C1562 1.378 . S
C1555 C1554 1.367 . S
C1555 C1563 1.433 . S
C1556 H1552 0.929 . S
C1556 C1558 1.378 . S
C1556 C1560 1.350 . S
C1557 C1560 1.463 1_556 S
C1557 C1562 1.350 . S
C1557 N1565 1.427 . S
C1558 H1549 0.930 . S
C1558 C1556 1.378 . S
C1558 C1559 1.367 . S
C1559 C1558 1.367 . S
C1559 C1561 1.433 . S
C1560 C1556 1.350 . S
C1560 C1557 1.463 1_554 S
C1560 N1564 1.427 . S
C1561 H1551 0.929 . S
C1561 C1559 1.433 . S
C1561 N1564 1.384 . S
C1562 H1553 0.929 . S
C1562 C1554 1.378 . S
C1562 C1557 1.350 . S
C1563 H1550 0.929 . S
C1563 C1555 1.433 . S
C1563 N1565 1.384 . S
N1564 C1560 1.427 . S
N1564 C1561 1.384 . S
N1565 C1557 1.427 . S
N1565 C1563 1.384 . S
H1566 C1572 0.930 . S
H1567 C1576 0.930 . S
H1568 C1581 0.929 . S
H1569 C1579 0.929 . S
H1570 C1574 0.929 . S
H1571 C1580 0.929 . S
C1572 H1566 0.930 . S
C1572 C1573 1.367 . S
C1572 C1580 1.378 . S
C1573 C1572 1.367 . S
C1573 C1581 1.433 . S
C1574 H1570 0.929 . S
C1574 C1576 1.378 . S
C1574 C1578 1.350 . S
C1575 C1578 1.463 1_455 S
C1575 C1580 1.350 . S
C1575 N1583 1.427 . S
C1576 H1567 0.930 . S
C1576 C1574 1.378 . S
C1576 C1577 1.367 . S
C1577 C1576 1.367 . S
C1577 C1579 1.433 . S
C1578 C1574 1.350 . S
C1578 C1575 1.463 1_655 S
C1578 N1582 1.427 . S
C1579 H1569 0.929 . S
C1579 C1577 1.433 . S
C1579 N1582 1.384 . S
C1580 H1571 0.929 . S
C1580 C1572 1.378 . S
C1580 C1575 1.350 . S
C1581 H1568 0.929 . S
C1581 C1573 1.433 . S
C1581 N1583 1.384 . S
N1582 C1578 1.427 . S
N1582 C1579 1.384 . S
N1583 C1575 1.427 . S
N1583 C1581 1.384 . S
H1584 C1590 0.930 . S
H1585 C1594 0.930 . S
H1586 C1599 0.929 . S
H1587 C1597 0.929 . S
H1588 C1592 0.938 . S
H1589 C1598 0.938 . S
C1590 H1584 0.930 . S
C1590 C1591 1.367 . S
C1590 C1598 1.372 1_554 S
C1591 C1590 1.367 . S
C1591 C1599 1.433 . S
C1592 H1588 0.938 . S
C1592 C1594 1.372 1_554 S
C1592 C1596 1.347 1_554 S
C1593 C1596 1.463 1_564 S
C1593 C1598 1.347 1_554 S
C1593 N1601 1.427 . S
C1594 H1585 0.930 . S
C1594 C1592 1.372 1_556 S
C1594 C1595 1.367 . S
C1595 C1594 1.367 . S
C1595 C1597 1.433 . S
C1596 C1592 1.347 1_556 S
C1596 C1593 1.463 1_546 S
C1596 N1600 1.427 . S
C1597 H1587 0.929 . S
C1597 C1595 1.433 . S
C1597 N1600 1.384 . S
C1598 H1589 0.938 . S
C1598 C1590 1.372 1_556 S
C1598 C1593 1.347 1_556 S
C1599 H1586 0.929 . S
C1599 C1591 1.433 . S
C1599 N1601 1.384 . S
N1600 C1596 1.427 . S
N1600 C1597 1.384 . S
N1601 C1593 1.427 . S
N1601 C1599 1.384 . S
H1602 C1608 0.930 . S
H1603 C1612 0.930 . S
H1604 C1617 0.929 . S
H1605 C1615 0.929 . S
H1606 C1610 0.929 . S
H1607 C1616 0.929 . S
C1608 H1602 0.930 . S
C1608 C1609 1.367 . S
C1608 C1616 1.378 . S
C1609 C1608 1.367 . S
C1609 C1617 1.433 . S
C1610 H1606 0.929 . S
C1610 C1612 1.378 . S
C1610 C1614 1.350 . S
C1611 C1614 1.463 . S
C1611 C1616 1.350 . S
C1611 N1619 1.427 . S
C1612 H1603 0.930 . S
C1612 C1610 1.378 . S
C1612 C1613 1.367 . S
C1613 C1612 1.367 . S
C1613 C1615 1.433 . S
C1614 C1610 1.350 . S
C1614 C1611 1.463 . S
C1614 N1618 1.427 . S
C1615 H1605 0.929 . S
C1615 C1613 1.433 . S
C1615 N1618 1.384 . S
C1616 H1607 0.929 . S
C1616 C1608 1.378 . S
C1616 C1611 1.350 . S
C1617 H1604 0.929 . S
C1617 C1609 1.433 . S
C1617 N1619 1.384 . S
N1618 C1614 1.427 . S
N1618 C1615 1.384 . S
N1619 C1611 1.427 . S
N1619 C1617 1.384 . S
H1620 C1626 0.930 . S
H1621 C1630 0.930 . S
H1622 C1635 0.929 . S
H1623 C1633 0.929 . S
H1624 C1628 0.929 . S
H1625 C1634 0.929 . S
C1626 H1620 0.930 . S
C1626 C1627 1.367 . S
C1626 C1634 1.378 1_556 S
C1627 C1626 1.367 . S
C1627 C1635 1.433 . S
C1628 H1624 0.929 . S
C1628 C1630 1.378 1_556 S
C1628 C1632 1.350 1_556 S
C1629 C1632 1.463 1_656 S
C1629 C1634 1.350 1_556 S
C1629 N1637 1.427 . S
C1630 H1621 0.930 . S
C1630 C1628 1.378 1_554 S
C1630 C1631 1.367 . S
C1631 C1630 1.367 . S
C1631 C1633 1.433 . S
C1632 C1628 1.350 1_554 S
C1632 C1629 1.463 1_454 S
C1632 N1636 1.427 . S
C1633 H1623 0.929 . S
C1633 C1631 1.433 . S
C1633 N1636 1.384 . S
C1634 H1625 0.929 . S
C1634 C1626 1.378 1_554 S
C1634 C1629 1.350 1_554 S
C1635 H1622 0.929 . S
C1635 C1627 1.433 . S
C1635 N1637 1.384 . S
N1636 C1632 1.427 . S
N1636 C1633 1.384 . S
N1637 C1629 1.427 . S
N1637 C1635 1.384 . S
H1638 C1644 0.930 . S
H1639 C1648 0.930 . S
H1640 C1653 0.929 . S
H1641 C1651 0.929 . S
H1642 C1646 0.929 . S
H1643 C1652 0.929 . S
C1644 H1638 0.930 . S
C1644 C1645 1.367 . S
C1644 C1652 1.378 . S
C1645 C1644 1.367 . S
C1645 C1653 1.433 . S
C1646 H1642 0.929 . S
C1646 C1648 1.378 . S
C1646 C1650 1.350 . S
C1647 C1650 1.463 1_565 S
C1647 C1652 1.350 . S
C1647 N1655 1.427 . S
C1648 H1639 0.930 . S
C1648 C1646 1.378 . S
C1648 C1649 1.367 . S
C1649 C1648 1.367 . S
C1649 C1651 1.433 . S
C1650 C1646 1.350 . S
C1650 C1647 1.463 1_545 S
C1650 N1654 1.427 . S
C1651 H1641 0.929 . S
C1651 C1649 1.433 . S
C1651 N1654 1.384 . S
C1652 H1643 0.929 . S
C1652 C1644 1.378 . S
C1652 C1647 1.350 . S
C1653 H1640 0.929 . S
C1653 C1645 1.433 . S
C1653 N1655 1.384 . S
N1654 C1650 1.427 . S
N1654 C1651 1.384 . S
N1655 C1647 1.427 . S
N1655 C1653 1.384 . S
C1015 C392 1.340 . S
C1019 C63 1.259 . S
C1033 C476 1.353 . S
C1037 C147 1.257 . S
C1051 C231 1.248 . S
C1055 C56 1.350 . S
C1069 C315 1.274 . S
C1073 C140 1.339 . S
C1087 C399 1.251 . S
C1091 C224 1.354 . S
C1105 C308 1.354 . S
C1109 C483 1.249 . S
C1123 C728 1.338 . S
C1127 C567 1.273 . S
C1141 C651 1.270 . S
C1145 C812 1.337 . S
C1159 C896 1.354 . S
C1163 C735 1.253 . S
C1177 C819 1.259 . S
C1181 C980 1.353 . S
C1195 C903 1.251 . S
C1199 C560 1.354 . S
C1213 C644 1.347 . S
C1217 C987 1.269 . S
C1231 C403 1.409 . S
C1235 C72 1.312 . S
C1249 C156 1.337 . S
C1253 C487 1.403 . S
C1267 C240 1.314 . S
C1271 C67 1.400 . S
C1285 C324 1.337 . S
C1289 C151 1.395 . S
C1303 C235 1.394 . S
C1307 C408 1.335 . S
C1321 C319 1.413 . S
C1325 C492 1.320 . S
C1339 C739 1.405 . S
C1343 C576 1.336 . S
C1357 C660 1.332 . S
C1361 C823 1.409 . S
C1375 C744 1.318 . S
C1379 C907 1.396 . S
C1393 C991 1.400 . S
C1397 C828 1.314 . S
C1411 C912 1.313 . S
C1415 C571 1.402 . S
C1429 C655 1.412 . S
C1433 C996 1.317 . S
C1447 C906 1.879 . S
C1451 C66 1.893 . S
C1465 C150 1.891 . S
C1469 C990 1.879 . S
C1483 C234 1.885 . S
C1487 C570 1.883 . S
C1501 C318 1.893 . S
C1505 C654 1.878 . S
C1519 C402 1.879 . S
C1523 C738 1.893 . S
C1537 C822 1.880 . S
C1541 C486 1.892 . S
C1555 C831 2.023 . S
C1559 C75 2.033 . S
C1573 C915 2.033 . S
C1577 C159 2.023 . S
C1591 C243 2.029 . S
C1595 C999 2.034 . S
C1609 C327 2.025 . S
C1613 C579 2.034 . S
C1627 C663 2.032 . S
C1631 C411 2.032 . S
C1645 C747 2.030 . S
C1649 C495 2.021 . S
