# Generated by pormake.
# Topology umk, (4)-cn, num edge types: 1
# Building blocks:
#     Node 0, Type 0, BuildingBlock: KUFVIS_clean_sbu_0, # of connection points: 4
#     Node 1, Type 0, BuildingBlock: KUFVIS_clean_sbu_0, # of connection points: 4
#     Node 2, Type 0, BuildingBlock: KUFVIS_clean_sbu_0, # of connection points: 4
#     Node 3, Type 0, BuildingBlock: KUFVIS_clean_sbu_0, # of connection points: 4
#     Node 4, Type 0, BuildingBlock: KUFVIS_clean_sbu_0, # of connection points: 4
#     Node 5, Type 0, BuildingBlock: KUFVIS_clean_sbu_0, # of connection points: 4
#     Node 6, Type 0, BuildingBlock: KUFVIS_clean_sbu_0, # of connection points: 4
#     Node 7, Type 0, BuildingBlock: KUFVIS_clean_sbu_0, # of connection points: 4
#     Node 8, Type 0, BuildingBlock: KUFVIS_clean_sbu_0, # of connection points: 4
#     Node 9, Type 0, BuildingBlock: KUFVIS_clean_sbu_0, # of connection points: 4
#     Node 10, Type 0, BuildingBlock: KUFVIS_clean_sbu_0, # of connection points: 4
#     Node 11, Type 0, BuildingBlock: KUFVIS_clean_sbu_0, # of connection points: 4
#     Node 12, Type 0, BuildingBlock: KUFVIS_clean_sbu_0, # of connection points: 4
#     Node 13, Type 0, BuildingBlock: KUFVIS_clean_sbu_0, # of connection points: 4
#     Node 14, Type 0, BuildingBlock: KUFVIS_clean_sbu_0, # of connection points: 4
#     Node 15, Type 0, BuildingBlock: KUFVIS_clean_sbu_0, # of connection points: 4
#     Node 16, Type 0, BuildingBlock: KUFVIS_clean_sbu_0, # of connection points: 4
#     Node 17, Type 0, BuildingBlock: KUFVIS_clean_sbu_0, # of connection points: 4
#     Node 18, Type 0, BuildingBlock: KUFVIS_clean_sbu_0, # of connection points: 4
#     Node 19, Type 0, BuildingBlock: KUFVIS_clean_sbu_0, # of connection points: 4
#     Node 20, Type 0, BuildingBlock: KUFVIS_clean_sbu_0, # of connection points: 4
#     Node 21, Type 0, BuildingBlock: KUFVIS_clean_sbu_0, # of connection points: 4
#     Node 22, Type 0, BuildingBlock: KUFVIS_clean_sbu_0, # of connection points: 4
#     Node 23, Type 0, BuildingBlock: KUFVIS_clean_sbu_0, # of connection points: 4
#     Edge 24, Type (0, 0), BuildingBlock: EZIPEK_clean_linker_0, # of connection points: 2
#     Edge 25, Type (0, 0), BuildingBlock: EZIPEK_clean_linker_0, # of connection points: 2
#     Edge 26, Type (0, 0), BuildingBlock: EZIPEK_clean_linker_0, # of connection points: 2
#     Edge 27, Type (0, 0), BuildingBlock: EZIPEK_clean_linker_0, # of connection points: 2
#     Edge 28, Type (0, 0), BuildingBlock: EZIPEK_clean_linker_0, # of connection points: 2
#     Edge 29, Type (0, 0), BuildingBlock: EZIPEK_clean_linker_0, # of connection points: 2
#     Edge 30, Type (0, 0), BuildingBlock: EZIPEK_clean_linker_0, # of connection points: 2
#     Edge 31, Type (0, 0), BuildingBlock: EZIPEK_clean_linker_0, # of connection points: 2
#     Edge 32, Type (0, 0), BuildingBlock: EZIPEK_clean_linker_0, # of connection points: 2
#     Edge 33, Type (0, 0), BuildingBlock: EZIPEK_clean_linker_0, # of connection points: 2
#     Edge 34, Type (0, 0), BuildingBlock: EZIPEK_clean_linker_0, # of connection points: 2
#     Edge 35, Type (0, 0), BuildingBlock: EZIPEK_clean_linker_0, # of connection points: 2
#     Edge 36, Type (0, 0), BuildingBlock: EZIPEK_clean_linker_0, # of connection points: 2
#     Edge 37, Type (0, 0), BuildingBlock: EZIPEK_clean_linker_0, # of connection points: 2
#     Edge 38, Type (0, 0), BuildingBlock: EZIPEK_clean_linker_0, # of connection points: 2
#     Edge 39, Type (0, 0), BuildingBlock: EZIPEK_clean_linker_0, # of connection points: 2
#     Edge 40, Type (0, 0), BuildingBlock: EZIPEK_clean_linker_0, # of connection points: 2
#     Edge 41, Type (0, 0), BuildingBlock: EZIPEK_clean_linker_0, # of connection points: 2
#     Edge 42, Type (0, 0), BuildingBlock: EZIPEK_clean_linker_0, # of connection points: 2
#     Edge 43, Type (0, 0), BuildingBlock: EZIPEK_clean_linker_0, # of connection points: 2
#     Edge 44, Type (0, 0), BuildingBlock: EZIPEK_clean_linker_0, # of connection points: 2
#     Edge 45, Type (0, 0), BuildingBlock: EZIPEK_clean_linker_0, # of connection points: 2
#     Edge 46, Type (0, 0), BuildingBlock: EZIPEK_clean_linker_0, # of connection points: 2
#     Edge 47, Type (0, 0), BuildingBlock: EZIPEK_clean_linker_0, # of connection points: 2
#     Edge 48, Type (0, 0), BuildingBlock: EZIPEK_clean_linker_0, # of connection points: 2
#     Edge 49, Type (0, 0), BuildingBlock: EZIPEK_clean_linker_0, # of connection points: 2
#     Edge 50, Type (0, 0), BuildingBlock: EZIPEK_clean_linker_0, # of connection points: 2
#     Edge 51, Type (0, 0), BuildingBlock: EZIPEK_clean_linker_0, # of connection points: 2
#     Edge 52, Type (0, 0), BuildingBlock: EZIPEK_clean_linker_0, # of connection points: 2
#     Edge 53, Type (0, 0), BuildingBlock: EZIPEK_clean_linker_0, # of connection points: 2
#     Edge 54, Type (0, 0), BuildingBlock: EZIPEK_clean_linker_0, # of connection points: 2
#     Edge 55, Type (0, 0), BuildingBlock: EZIPEK_clean_linker_0, # of connection points: 2
#     Edge 56, Type (0, 0), BuildingBlock: EZIPEK_clean_linker_0, # of connection points: 2
#     Edge 57, Type (0, 0), BuildingBlock: EZIPEK_clean_linker_0, # of connection points: 2
#     Edge 58, Type (0, 0), BuildingBlock: EZIPEK_clean_linker_0, # of connection points: 2
#     Edge 59, Type (0, 0), BuildingBlock: EZIPEK_clean_linker_0, # of connection points: 2
#     Edge 60, Type (0, 0), BuildingBlock: EZIPEK_clean_linker_0, # of connection points: 2
#     Edge 61, Type (0, 0), BuildingBlock: EZIPEK_clean_linker_0, # of connection points: 2
#     Edge 62, Type (0, 0), BuildingBlock: EZIPEK_clean_linker_0, # of connection points: 2
#     Edge 63, Type (0, 0), BuildingBlock: EZIPEK_clean_linker_0, # of connection points: 2
#     Edge 64, Type (0, 0), BuildingBlock: EZIPEK_clean_linker_0, # of connection points: 2
#     Edge 65, Type (0, 0), BuildingBlock: EZIPEK_clean_linker_0, # of connection points: 2
#     Edge 66, Type (0, 0), BuildingBlock: EZIPEK_clean_linker_0, # of connection points: 2
#     Edge 67, Type (0, 0), BuildingBlock: EZIPEK_clean_linker_0, # of connection points: 2
#     Edge 68, Type (0, 0), BuildingBlock: EZIPEK_clean_linker_0, # of connection points: 2
#     Edge 69, Type (0, 0), BuildingBlock: EZIPEK_clean_linker_0, # of connection points: 2
#     Edge 70, Type (0, 0), BuildingBlock: EZIPEK_clean_linker_0, # of connection points: 2
#     Edge 71, Type (0, 0), BuildingBlock: EZIPEK_clean_linker_0, # of connection points: 2
# Relax obj value: 0.070
# Max RMSD: 0.063
# Mean RMSD: 0.063
data_MOF--net-umk--node1-KUFVIS_clean_sbu_0--edge1-EZIPEK_clean_linker_0
_symmetry_space_group_name_H-M    P1
_symmetry_Int_Tables_number       1
_symmetry_cell_setting            triclinic
loop_
_symmetry_equiv_pos_as_xyz
'x, y, z'
_cell_length_a     48.742828
_cell_length_b     48.592617
_cell_length_c     31.014523
_cell_angle_alpha  90.075131
_cell_angle_beta   89.950374
_cell_angle_gamma 120.08247
loop_
_atom_site_label
_atom_site_type_symbol
_atom_site_fract_x
_atom_site_fract_y
_atom_site_fract_z
_atom_type_partial_charge
Mn0 Mn 0.34772 0.48739 0.08209 0.0
Mn1 Mn 0.41718 0.5254 0.13673 0.0
C2 C 0.39309 0.5267 0.04775 0.0
C3 C 0.30032 0.48334 0.05831 0.0
C4 C 0.38986 0.45849 0.10194 0.0
O5 O 0.33316 0.47731 0.14464 0.0
O6 O 0.38059 0.50548 0.17808 0.0
C7 C 0.41197 0.57686 0.18027 0.0
N8 N 0.42754 0.56752 0.15277 0.0
C9 C 0.47042 0.6214 0.14486 0.0
C10 C 0.45466 0.6316 0.17279 0.0
C11 C 0.42529 0.60923 0.19054 0.0
C12 C 0.45598 0.58882 0.13586 0.0
H13 H 0.38976 0.55971 0.19455 0.0
C14 C 0.35026 0.48744 0.17853 0.0
O15 O 0.30397 0.45868 0.05957 0.0
O16 O 0.32331 0.50987 0.07312 0.0
N17 N 0.45376 0.54556 0.10039 0.0
C18 C 0.46454 0.53208 0.07136 0.0
C19 C 0.49264 0.55148 0.04854 0.0
C20 C 0.50952 0.58438 0.05633 0.0
C21 C 0.49813 0.59765 0.08663 0.0
C22 C 0.46976 0.57721 0.1079 0.0
H23 H 0.45158 0.5068 0.06524 0.0
O24 O 0.36918 0.50501 0.02635 0.0
O25 O 0.38984 0.52471 0.08965 0.0
O26 O 0.36495 0.45613 0.08466 0.0
O27 O 0.41026 0.48311 0.12211 0.0
C28 C 0.5134 0.63046 0.09575 0.0
C29 C 0.49967 0.6423 0.12512 0.0
H30 H 0.46484 0.65656 0.18073 0.0
H31 H 0.41306 0.61689 0.21232 0.0
H32 H 0.50123 0.54112 0.02499 0.0
H33 H 0.53096 0.59931 0.03848 0.0
H34 H 0.53543 0.64686 0.07985 0.0
H35 H 0.51141 0.66762 0.13145 0.0
Mn36 Mn 0.8807 0.33992 0.5766 0.0
Mn37 Mn 0.90418 0.40363 0.64262 0.0
C38 C 0.88803 0.3878 0.54899 0.0
C39 C 0.8393 0.2926 0.54748 0.0
C40 C 0.94996 0.38486 0.60401 0.0
O41 O 0.87362 0.31984 0.63656 0.0
O42 O 0.88825 0.3638 0.6762 0.0
C43 C 0.83907 0.38353 0.67242 0.0
N44 N 0.86682 0.40592 0.65432 0.0
C45 C 0.84589 0.44085 0.64243 0.0
C46 C 0.81717 0.4182 0.66116 0.0
C47 C 0.81369 0.38933 0.67598 0.0
C48 C 0.87007 0.43338 0.63881 0.0
H49 H 0.83628 0.36136 0.68382 0.0
C50 C 0.87782 0.334 0.67262 0.0
O51 O 0.86821 0.29792 0.54871 0.0
O52 O 0.83439 0.31433 0.56374 0.0
N53 N 0.92045 0.44482 0.61739 0.0
C54 C 0.95144 0.46636 0.60905 0.0
C55 C 0.96011 0.49766 0.59769 0.0
C56 C 0.93701 0.50685 0.59652 0.0
C57 C 0.90576 0.485 0.60848 0.0
C58 C 0.89875 0.45433 0.6203 0.0
H59 H 0.96946 0.45967 0.61095 0.0
O60 O 0.88696 0.3661 0.52358 0.0
O61 O 0.88365 0.38047 0.58966 0.0
O62 O 0.92912 0.36003 0.58397 0.0
O63 O 0.94324 0.40236 0.62783 0.0
C64 C 0.88168 0.49292 0.61117 0.0
C65 C 0.85161 0.47068 0.62765 0.0
H66 H 0.79768 0.42278 0.66448 0.0
H67 H 0.79157 0.37167 0.69039 0.0
H68 H 0.98453 0.51466 0.5899 0.0
H69 H 0.94372 0.53096 0.58753 0.0
H70 H 0.88622 0.51624 0.60146 0.0
H71 H 0.83334 0.4771 0.62994 0.0
Mn72 Mn 0.53913 0.87414 0.07247 0.0
Mn73 Mn 0.49856 0.89489 0.14149 0.0
C74 C 0.49899 0.88237 0.0466 0.0
C75 C 0.54432 0.83306 0.04074 0.0
C76 C 0.56335 0.94257 0.10538 0.0
O77 O 0.55196 0.86522 0.13105 0.0
O78 O 0.52252 0.87817 0.17308 0.0
C79 C 0.45353 0.82874 0.1683 0.0
N80 N 0.45893 0.8568 0.15113 0.0
C81 C 0.40326 0.83533 0.13741 0.0
C82 C 0.39715 0.80622 0.15497 0.0
C83 C 0.42241 0.80293 0.17048 0.0
C84 C 0.43483 0.86006 0.13554 0.0
H85 H 0.47284 0.82606 0.18005 0.0
C86 C 0.54203 0.86815 0.16775 0.0
O87 O 0.56821 0.86194 0.0427 0.0
O88 O 0.51785 0.82806 0.05727 0.0
N89 N 0.47369 0.91156 0.11767 0.0
C90 C 0.48295 0.94271 0.11057 0.0
C91 C 0.46031 0.9511 0.09863 0.0
C92 C 0.4282 0.92753 0.09565 0.0
C93 C 0.41892 0.89603 0.10639 0.0
C94 C 0.44256 0.88929 0.11877 0.0
H95 H 0.50753 0.96101 0.11368 0.0
O96 O 0.51968 0.88218 0.02056 0.0
O97 O 0.50169 0.87659 0.08681 0.0
O98 O 0.56754 0.92258 0.08326 0.0
O99 O 0.53887 0.93472 0.12908 0.0
C100 C 0.38703 0.87136 0.10711 0.0
C101 C 0.37924 0.84092 0.12221 0.0
H102 H 0.37314 0.78633 0.15697 0.0
H103 H 0.41791 0.78055 0.18411 0.0
H104 H 0.4676 0.97566 0.09173 0.0
H105 H 0.41081 0.93403 0.08619 0.0
H106 H 0.36828 0.87571 0.09695 0.0
H107 H 0.35463 0.82221 0.12308 0.0
Mn108 Mn 0.67692 0.53454 0.58225 0.0
Mn109 Mn 0.61334 0.50552 0.6489 0.0
C110 C 0.62932 0.49169 0.557 0.0
C111 C 0.72244 0.536 0.55423 0.0
C112 C 0.63916 0.56794 0.6015 0.0
O113 O 0.6978 0.54991 0.64115 0.0
O114 O 0.65371 0.52723 0.68206 0.0
C115 C 0.6191 0.4577 0.70115 0.0
N116 N 0.60146 0.46601 0.67619 0.0
C117 C 0.55318 0.41851 0.69583 0.0
C118 C 0.57086 0.40928 0.72153 0.0
C119 C 0.60399 0.42883 0.72385 0.0
C120 C 0.56958 0.44739 0.67369 0.0
H121 H 0.6444 0.47306 0.70374 0.0
C122 C 0.68384 0.5434 0.67756 0.0
O123 O 0.71858 0.5605 0.55239 0.0
O124 O 0.70031 0.51083 0.57317 0.0
N125 N 0.57231 0.484 0.62314 0.0
C126 C 0.55947 0.49491 0.59346 0.0
C127 C 0.52664 0.4777 0.58591 0.0
C128 C 0.5074 0.44974 0.60934 0.0
C129 C 0.52131 0.43879 0.63932 0.0
C130 C 0.55409 0.457 0.64554 0.0
H131 H 0.57411 0.51686 0.57629 0.0
O132 O 0.65027 0.51316 0.53173 0.0
O133 O 0.63493 0.4973 0.59872 0.0
O134 O 0.66191 0.56753 0.58196 0.0
O135 O 0.62059 0.54604 0.62662 0.0
C136 C 0.50411 0.41015 0.66248 0.0
C137 C 0.52005 0.39994 0.69054 0.0
H138 H 0.55931 0.3871 0.73926 0.0
H139 H 0.61782 0.42177 0.74329 0.0
H140 H 0.51611 0.48613 0.5625 0.0
H141 H 0.48211 0.4365 0.60334 0.0
H142 H 0.47871 0.39548 0.65829 0.0
H143 H 0.50666 0.37755 0.70745 0.0
Mn144 Mn 0.14078 0.67787 0.07294 0.0
Mn145 Mn 0.10111 0.61252 0.13593 0.0
C146 C 0.13518 0.6298 0.04732 0.0
C147 C 0.18645 0.72345 0.04767 0.0
C148 C 0.06892 0.64164 0.08549 0.0
O149 O 0.14492 0.69738 0.13294 0.0
O150 O 0.12025 0.65189 0.171 0.0
C151 C 0.15304 0.61534 0.18857 0.0
N152 N 0.12659 0.59862 0.16413 0.0
C153 C 0.12274 0.54891 0.18346 0.0
C154 C 0.15065 0.56565 0.20763 0.0
C155 C 0.1662 0.59908 0.20942 0.0
C156 C 0.1121 0.56663 0.16083 0.0
H157 H 0.16449 0.64088 0.19077 0.0
C158 C 0.13593 0.68218 0.16849 0.0
O159 O 0.15853 0.72032 0.04459 0.0
O160 O 0.18823 0.70062 0.06675 0.0
N161 N 0.0809 0.57185 0.10856 0.0
C162 C 0.05721 0.56 0.07875 0.0
C163 C 0.03948 0.52699 0.07202 0.0
C164 C 0.046 0.50652 0.09621 0.0
C165 C 0.07051 0.51929 0.12669 0.0
C166 C 0.08749 0.55236 0.13181 0.0
H167 H 0.05131 0.57551 0.06123 0.0
O168 O 0.13663 0.65165 0.02198 0.0
O169 O 0.13336 0.63483 0.08871 0.0
O170 O 0.09348 0.66428 0.0682 0.0
O171 O 0.06995 0.6221 0.11137 0.0
C172 C 0.07913 0.50062 0.15185 0.0
C173 C 0.10561 0.51548 0.1797 0.0
H174 H 0.16072 0.55311 0.22396 0.0
H175 H 0.18832 0.61241 0.22655 0.0
H176 H 0.0203 0.51729 0.04903 0.0
H177 H 0.03201 0.48108 0.09118 0.0
H178 H 0.06637 0.47496 0.14875 0.0
H179 H 0.11292 0.50105 0.19742 0.0
Mn180 Mn 0.48414 0.13996 0.57465 0.0
Mn181 Mn 0.52403 0.12056 0.64661 0.0
C182 C 0.52584 0.13317 0.55159 0.0
C183 C 0.47918 0.18035 0.53957 0.0
C184 C 0.46042 0.072 0.60809 0.0
O185 O 0.46938 0.14851 0.63221 0.0
O186 O 0.49887 0.13685 0.67619 0.0
C187 C 0.56771 0.18685 0.67447 0.0
N188 N 0.56312 0.15901 0.65744 0.0
C189 C 0.61913 0.18147 0.64531 0.0
C190 C 0.62441 0.21037 0.66271 0.0
C191 C 0.59857 0.21305 0.67739 0.0
C192 C 0.58779 0.1563 0.64282 0.0
H193 H 0.54797 0.18908 0.68554 0.0
C194 C 0.47896 0.14621 0.66952 0.0
O195 O 0.45577 0.1512 0.54107 0.0
O196 O 0.5047 0.18584 0.55964 0.0
N197 N 0.54993 0.10451 0.62443 0.0
C198 C 0.54135 0.07355 0.61715 0.0
C199 C 0.56457 0.06584 0.60556 0.0
C200 C 0.59654 0.0899 0.60325 0.0
C201 C 0.60508 0.12117 0.61432 0.0
C202 C 0.58088 0.12724 0.62621 0.0
H203 H 0.51686 0.05491 0.61962 0.0
O204 O 0.50546 0.1326 0.52439 0.0
O205 O 0.52187 0.13873 0.59145 0.0
O206 O 0.45641 0.09158 0.5849 0.0
O207 O 0.48434 0.08031 0.6331 0.0
C208 C 0.63674 0.1463 0.61564 0.0
C209 C 0.64374 0.17653 0.63076 0.0
H210 H 0.6482 0.23058 0.6652 0.0
H211 H 0.60243 0.23526 0.69091 0.0
H212 H 0.55783 0.04145 0.59837 0.0
H213 H 0.61438 0.08393 0.59404 0.0
H214 H 0.65592 0.14249 0.60585 0.0
H215 H 0.66819 0.1956 0.63204 0.0
Mn216 Mn 0.54018 0.6779 0.93247 0.0
Mn217 Mn 0.5117 0.61706 0.86103 0.0
C218 C 0.49661 0.62926 0.95468 0.0
C219 C 0.54248 0.7235 0.96228 0.0
C220 C 0.57254 0.6397 0.91102 0.0
O221 O 0.5576 0.70096 0.87532 0.0
O222 O 0.5339 0.65872 0.83117 0.0
C223 C 0.46459 0.62546 0.8112 0.0
N224 N 0.47288 0.60654 0.83323 0.0
C225 C 0.42782 0.55904 0.80582 0.0
C226 C 0.41861 0.578 0.78293 0.0
C227 C 0.43687 0.61134 0.78609 0.0
C228 C 0.45531 0.57447 0.83085 0.0
H229 H 0.47922 0.65101 0.81256 0.0
C230 C 0.55099 0.68856 0.83792 0.0
O231 O 0.56619 0.71854 0.96485 0.0
O232 O 0.51743 0.70222 0.94214 0.0
N233 N 0.49003 0.57468 0.88237 0.0
C234 C 0.50043 0.56033 0.91035 0.0
C235 C 0.48448 0.52699 0.91247 0.0
C236 C 0.45853 0.50884 0.88509 0.0
C237 C 0.44791 0.52428 0.85714 0.0
C238 C 0.46471 0.55752 0.8566 0.0
H239 H 0.52112 0.57424 0.93015 0.0
O240 O 0.51749 0.64969 0.98107 0.0
O241 O 0.50269 0.6364 0.91332 0.0
O242 O 0.57207 0.66169 0.93268 0.0
O243 O 0.55151 0.62308 0.88364 0.0
C244 C 0.42079 0.50814 0.83083 0.0
C245 C 0.41063 0.5255 0.80543 0.0
H246 H 0.39744 0.56723 0.76316 0.0
H247 H 0.42981 0.62611 0.76884 0.0
H248 H 0.49242 0.51536 0.93481 0.0
H249 H 0.44631 0.48312 0.88683 0.0
H250 H 0.40718 0.48239 0.83062 0.0
H251 H 0.38937 0.51283 0.78609 0.0
Mn252 Mn 0.87245 0.53197 0.44431 0.0
Mn253 Mn 0.89856 0.4944 0.37776 0.0
C254 C 0.88262 0.49334 0.47162 0.0
C255 C 0.83018 0.53549 0.47448 0.0
C256 C 0.94216 0.55947 0.41658 0.0
O257 O 0.86418 0.54431 0.38467 0.0
O258 O 0.88228 0.51811 0.34484 0.0
C259 C 0.8345 0.44842 0.34509 0.0
N260 N 0.86185 0.45429 0.36485 0.0
C261 C 0.84175 0.39836 0.37573 0.0
C262 C 0.81335 0.39176 0.35558 0.0
C263 C 0.80972 0.41692 0.34019 0.0
C264 C 0.86537 0.43028 0.38042 0.0
H265 H 0.83159 0.46762 0.33326 0.0
C266 C 0.8702 0.53599 0.34855 0.0
O267 O 0.85854 0.56008 0.47269 0.0
O268 O 0.82619 0.50917 0.45821 0.0
N269 N 0.91542 0.4699 0.40229 0.0
C270 C 0.94659 0.47988 0.40988 0.0
C271 C 0.95572 0.45759 0.42091 0.0
C272 C 0.93291 0.42509 0.42233 0.0
C273 C 0.90151 0.41513 0.4107 0.0
C274 C 0.89402 0.43849 0.3993 0.0
H275 H 0.96435 0.50477 0.4077 0.0
O276 O 0.88054 0.51337 0.49706 0.0
O277 O 0.87738 0.49552 0.43098 0.0
O278 O 0.92049 0.56234 0.436 0.0
O279 O 0.93679 0.53523 0.3936 0.0
C280 C 0.87784 0.38287 0.40749 0.0
C281 C 0.84782 0.3745 0.39046 0.0
H282 H 0.79432 0.36746 0.35131 0.0
H283 H 0.78793 0.41205 0.32444 0.0
H284 H 0.98026 0.46542 0.42822 0.0
H285 H 0.93999 0.40795 0.43099 0.0
H286 H 0.88275 0.3643 0.41689 0.0
H287 H 0.82996 0.34961 0.38745 0.0
Mn288 Mn 0.34307 0.87006 0.93598 0.0
Mn289 Mn 0.40702 0.89091 0.87211 0.0
C290 C 0.3907 0.8796 0.96609 0.0
C291 C 0.29643 0.82973 0.96762 0.0
C292 C 0.38808 0.93833 0.90298 0.0
O293 O 0.32314 0.85927 0.87606 0.0
O294 O 0.36758 0.87438 0.83764 0.0
C295 C 0.3865 0.82464 0.84634 0.0
N296 N 0.40868 0.85272 0.8641 0.0
C297 C 0.44274 0.83145 0.8801 0.0
C298 C 0.42025 0.80233 0.86193 0.0
C299 C 0.39198 0.79891 0.84504 0.0
C300 C 0.43568 0.85605 0.88121 0.0
H301 H 0.36475 0.82188 0.8334 0.0
C302 C 0.3377 0.8632 0.84051 0.0
O303 O 0.30097 0.85827 0.96261 0.0
O304 O 0.31843 0.8245 0.95369 0.0
N305 N 0.44768 0.90748 0.89868 0.0
C306 C 0.46927 0.93863 0.90644 0.0
C307 C 0.5001 0.94716 0.91961 0.0
C308 C 0.50875 0.92371 0.92332 0.0
C309 C 0.48687 0.89219 0.91215 0.0
C310 C 0.45667 0.88528 0.89856 0.0
H311 H 0.46298 0.95688 0.90266 0.0
O312 O 0.369 0.87994 0.98983 0.0
O313 O 0.38359 0.87273 0.92562 0.0
O314 O 0.36263 0.91808 0.92252 0.0
O315 O 0.40639 0.9308 0.8828 0.0
C316 C 0.49434 0.8677 0.91197 0.0
C317 C 0.47212 0.83721 0.89646 0.0
H318 H 0.42454 0.78253 0.86049 0.0
H319 H 0.37449 0.77652 0.83092 0.0
H320 H 0.51713 0.97173 0.92688 0.0
H321 H 0.53249 0.93032 0.9337 0.0
H322 H 0.51737 0.87229 0.92276 0.0
H323 H 0.47823 0.81864 0.89609 0.0
Mn324 Mn 0.48529 0.33876 0.43716 0.0
Mn325 Mn 0.52236 0.40739 0.38 0.0
C326 C 0.52711 0.38409 0.4689 0.0
C327 C 0.4809 0.28987 0.4575 0.0
C328 C 0.45759 0.3822 0.42106 0.0
O329 O 0.47067 0.32403 0.37552 0.0
O330 O 0.5019 0.36999 0.34003 0.0
C331 C 0.57287 0.40205 0.33438 0.0
N332 N 0.56401 0.41805 0.36189 0.0
C333 C 0.61728 0.46259 0.36454 0.0
C334 C 0.62701 0.4464 0.33659 0.0
C335 C 0.6047 0.41597 0.32153 0.0
C336 C 0.58526 0.44743 0.37639 0.0
H337 H 0.5557 0.37905 0.32201 0.0
C338 C 0.48178 0.34001 0.3409 0.0
O339 O 0.45746 0.29521 0.46162 0.0
O340 O 0.5061 0.31233 0.43916 0.0
N341 N 0.54309 0.44492 0.41485 0.0
C342 C 0.53027 0.45635 0.44393 0.0
C343 C 0.54975 0.48586 0.46381 0.0
C344 C 0.58209 0.50345 0.45322 0.0
C345 C 0.59471 0.49129 0.42305 0.0
C346 C 0.5742 0.46159 0.40464 0.0
H347 H 0.50539 0.44306 0.45197 0.0
O348 O 0.50717 0.35987 0.4915 0.0
O349 O 0.52282 0.38059 0.42719 0.0
O350 O 0.45595 0.3583 0.44089 0.0
O351 O 0.48046 0.4003 0.39642 0.0
C352 C 0.62691 0.50725 0.41097 0.0
C353 C 0.63815 0.493 0.38151 0.0
H354 H 0.65153 0.45708 0.32655 0.0
H355 H 0.61198 0.4034 0.29974 0.0
H356 H 0.53984 0.49515 0.48697 0.0
H357 H 0.59703 0.52619 0.46855 0.0
H358 H 0.64333 0.5303 0.42458 0.0
H359 H 0.66304 0.50533 0.37287 0.0
Mn360 Mn 0.14854 0.48191 0.94748 0.0
Mn361 Mn 0.1133 0.51213 0.88383 0.0
C362 C 0.14153 0.52318 0.97357 0.0
C363 C 0.19286 0.48054 0.97332 0.0
C364 C 0.07701 0.44926 0.93101 0.0
O365 O 0.15192 0.46638 0.88761 0.0
O366 O 0.13147 0.49095 0.84841 0.0
C367 C 0.1681 0.561 0.83435 0.0
N368 N 0.14281 0.55285 0.86066 0.0
C369 C 0.14802 0.60452 0.85252 0.0
C370 C 0.17424 0.61349 0.8255 0.0
C371 C 0.1845 0.59171 0.81674 0.0
C372 C 0.13297 0.57374 0.86971 0.0
H373 H 0.17555 0.54414 0.82668 0.0
C374 C 0.14492 0.47417 0.85178 0.0
O375 O 0.16464 0.45589 0.97552 0.0
O376 O 0.19571 0.50555 0.95399 0.0
N377 N 0.09533 0.53383 0.91356 0.0
C378 C 0.07108 0.52212 0.94255 0.0
C379 C 0.05922 0.54158 0.95675 0.0
C380 C 0.07214 0.57263 0.94074 0.0
C381 C 0.09688 0.58407 0.91068 0.0
C382 C 0.10793 0.56372 0.89795 0.0
H383 H 0.06074 0.4981 0.95448 0.0
O384 O 0.14611 0.50464 0.99882 0.0
O385 O 0.14171 0.51737 0.93243 0.0
O386 O 0.10045 0.44986 0.95018 0.0
O387 O 0.07975 0.47066 0.90491 0.0
C388 C 0.1111 0.61489 0.89297 0.0
C389 C 0.13653 0.62505 0.86367 0.0
H390 H 0.18683 0.6371 0.81161 0.0
H391 H 0.20486 0.59848 0.79626 0.0
H392 H 0.03984 0.53253 0.9794 0.0
H393 H 0.06287 0.58748 0.95165 0.0
H394 H 0.10291 0.6311 0.90206 0.0
H395 H 0.14758 0.64894 0.85074 0.0
Mn396 Mn 0.68174 0.14704 0.43765 0.0
Mn397 Mn 0.61679 0.12838 0.37712 0.0
C398 C 0.63503 0.1381 0.47053 0.0
C399 C 0.72964 0.18605 0.46823 0.0
C400 C 0.63476 0.07948 0.40385 0.0
O401 O 0.70045 0.15813 0.37706 0.0
O402 O 0.65534 0.14406 0.34094 0.0
C403 C 0.6389 0.19537 0.35371 0.0
N404 N 0.61637 0.16736 0.37116 0.0
C405 C 0.5839 0.18996 0.39003 0.0
C406 C 0.60675 0.21902 0.37219 0.0
C407 C 0.6344 0.22174 0.35402 0.0
C408 C 0.59 0.1647 0.38956 0.0
H409 H 0.66018 0.1976 0.33983 0.0
C410 C 0.68516 0.15459 0.34231 0.0
O411 O 0.72407 0.15727 0.46178 0.0
O412 O 0.70783 0.19225 0.45648 0.0
N413 N 0.57676 0.11268 0.40528 0.0
C414 C 0.5546 0.08164 0.41253 0.0
C415 C 0.52408 0.0738 0.42637 0.0
C416 C 0.5164 0.09786 0.4317 0.0
C417 C 0.53888 0.12933 0.42124 0.0
C418 C 0.56865 0.13552 0.40661 0.0
H419 H 0.56014 0.06295 0.40759 0.0
O420 O 0.65695 0.13698 0.49271 0.0
O421 O 0.64145 0.14552 0.43006 0.0
O422 O 0.66088 0.09917 0.42249 0.0
O423 O 0.61628 0.08772 0.38577 0.0
C424 C 0.53238 0.15449 0.42268 0.0
C425 C 0.55506 0.18491 0.4076 0.0
H426 H 0.6032 0.23932 0.37198 0.0
H427 H 0.65218 0.24408 0.34016 0.0
H428 H 0.50655 0.04928 0.43301 0.0
H429 H 0.49293 0.09176 0.4427 0.0
H430 H 0.50976 0.15055 0.43445 0.0
H431 H 0.54969 0.204 0.40845 0.0
Mn432 Mn 0.67076 0.53559 0.94184 0.0
Mn433 Mn 0.61067 0.50018 0.86977 0.0
C434 C 0.62068 0.4966 0.96436 0.0
C435 C 0.7142 0.53771 0.97659 0.0
C436 C 0.63098 0.56456 0.91021 0.0
O437 O 0.69449 0.54866 0.88442 0.0
O438 O 0.65228 0.52408 0.84046 0.0
C439 C 0.62988 0.45435 0.83997 0.0
N440 N 0.60748 0.46012 0.85693 0.0
C441 C 0.57121 0.4041 0.86629 0.0
C442 C 0.59391 0.39762 0.84884 0.0
C443 C 0.62344 0.42289 0.83581 0.0
C444 C 0.57928 0.43599 0.8705 0.0
H445 H 0.65256 0.4736 0.82996 0.0
C446 C 0.68205 0.54128 0.84705 0.0
O447 O 0.71106 0.56268 0.97415 0.0
O448 O 0.69262 0.51192 0.95826 0.0
N449 N 0.56827 0.4755 0.8911 0.0
C450 C 0.54704 0.48553 0.89796 0.0
C451 C 0.51534 0.46316 0.90758 0.0
C452 C 0.5055 0.43062 0.90844 0.0
C453 C 0.52711 0.42068 0.89769 0.0
C454 C 0.55823 0.4441 0.88762 0.0
H455 H 0.55435 0.51049 0.89642 0.0
O456 O 0.64126 0.51614 0.99182 0.0
O457 O 0.63025 0.49982 0.92462 0.0
O458 O 0.65443 0.56662 0.93145 0.0
O459 O 0.61295 0.54097 0.88568 0.0
C460 C 0.51861 0.38844 0.89455 0.0
C461 C 0.54079 0.38016 0.8793 0.0
H462 H 0.58888 0.37336 0.84512 0.0
H463 H 0.64114 0.41813 0.82236 0.0
H464 H 0.49849 0.47089 0.91423 0.0
H465 H 0.48108 0.41344 0.91609 0.0
H466 H 0.4949 0.36983 0.90293 0.0
H467 H 0.53392 0.35529 0.87663 0.0
Mn468 Mn 0.14686 0.67209 0.43695 0.0
Mn469 Mn 0.11492 0.60733 0.37232 0.0
C470 C 0.14477 0.62603 0.46408 0.0
C471 C 0.19017 0.71953 0.46246 0.0
C472 C 0.07636 0.63193 0.41762 0.0
O473 O 0.14986 0.69098 0.37701 0.0
O474 O 0.13403 0.64684 0.33691 0.0
C475 C 0.17094 0.61214 0.32748 0.0
N476 N 0.14308 0.5948 0.34891 0.0
C477 C 0.14229 0.54583 0.33365 0.0
C478 C 0.17165 0.56326 0.31285 0.0
C479 C 0.18636 0.59661 0.31062 0.0
C480 C 0.12928 0.56283 0.35259 0.0
H481 H 0.18162 0.63758 0.32467 0.0
C482 C 0.14485 0.67679 0.34078 0.0
O483 O 0.16139 0.71431 0.46497 0.0
O484 O 0.19403 0.69775 0.44397 0.0
N485 N 0.09476 0.56695 0.40025 0.0
C486 C 0.07043 0.55482 0.42914 0.0
C487 C 0.05383 0.52194 0.43723 0.0
C488 C 0.06199 0.50188 0.41483 0.0
C489 C 0.08722 0.515 0.38533 0.0
C490 C 0.10321 0.54797 0.37927 0.0
H491 H 0.06336 0.57003 0.44519 0.0
O492 O 0.14397 0.6472 0.4886 0.0
O493 O 0.14384 0.63068 0.42231 0.0
O494 O 0.09854 0.65438 0.43902 0.0
O495 O 0.08114 0.61492 0.39123 0.0
C496 C 0.09805 0.49693 0.363 0.0
C497 C 0.12597 0.51243 0.33784 0.0
H498 H 0.18328 0.55134 0.29889 0.0
H499 H 0.20923 0.61022 0.29518 0.0
H500 H 0.03441 0.512 0.46003 0.0
H501 H 0.04905 0.47653 0.42102 0.0
H502 H 0.08612 0.47135 0.36682 0.0
H503 H 0.13509 0.49852 0.32277 0.0
Mn504 Mn 0.47718 0.14349 0.93519 0.0
Mn505 Mn 0.5205 0.12378 0.86962 0.0
C506 C 0.5173 0.13627 0.96404 0.0
C507 C 0.46968 0.18377 0.96521 0.0
C508 C 0.45505 0.07532 0.90296 0.0
O509 O 0.46565 0.15199 0.87532 0.0
O510 O 0.49693 0.13993 0.83591 0.0
C511 C 0.56547 0.19019 0.84382 0.0
N512 N 0.56006 0.16222 0.86132 0.0
C513 C 0.61553 0.18419 0.87701 0.0
C514 C 0.62167 0.21321 0.8591 0.0
C515 C 0.59651 0.21622 0.84246 0.0
C516 C 0.58403 0.15926 0.8781 0.0
H517 H 0.54625 0.19264 0.83117 0.0
C518 C 0.47683 0.14934 0.83944 0.0
O519 O 0.44644 0.15461 0.96229 0.0
O520 O 0.49691 0.18948 0.95052 0.0
N521 N 0.54521 0.1076 0.89538 0.0
C522 C 0.53614 0.07651 0.90258 0.0
C523 C 0.5588 0.06839 0.91548 0.0
C524 C 0.59078 0.09217 0.91924 0.0
C525 C 0.59993 0.12362 0.90845 0.0
C526 C 0.57628 0.13011 0.89516 0.0
H527 H 0.51171 0.05803 0.89875 0.0
O528 O 0.4957 0.13604 0.98867 0.0
O529 O 0.51552 0.14191 0.92347 0.0
O530 O 0.44991 0.09502 0.92419 0.0
O531 O 0.4802 0.08355 0.88059 0.0
C532 C 0.63172 0.14848 0.90848 0.0
C533 C 0.63948 0.17887 0.89322 0.0
H534 H 0.64562 0.23326 0.85768 0.0
H535 H 0.60102 0.23852 0.82855 0.0
H536 H 0.55164 0.04387 0.92245 0.0
H537 H 0.60819 0.08587 0.92939 0.0
H538 H 0.65045 0.14431 0.9193 0.0
H539 H 0.66404 0.19774 0.89295 0.0
Mn540 Mn 0.35353 0.48231 0.4492 0.0
Mn541 Mn 0.41801 0.52053 0.38407 0.0
C542 C 0.4021 0.52102 0.47745 0.0
C543 C 0.30753 0.47857 0.47944 0.0
C544 C 0.39507 0.45437 0.42054 0.0
O545 O 0.33371 0.47135 0.38879 0.0
O546 O 0.37836 0.49951 0.3501 0.0
C547 C 0.40298 0.56956 0.35513 0.0
N548 N 0.42359 0.56183 0.37347 0.0
C549 C 0.46192 0.61699 0.38545 0.0
C550 C 0.44109 0.62551 0.36664 0.0
C551 C 0.41145 0.60166 0.35149 0.0
C552 C 0.45186 0.58456 0.38902 0.0
H553 H 0.38024 0.55137 0.34351 0.0
C554 C 0.34837 0.48158 0.35308 0.0
O555 O 0.31125 0.45396 0.47683 0.0
O556 O 0.32997 0.50498 0.46356 0.0
N557 N 0.45913 0.54269 0.41001 0.0
C558 C 0.47861 0.53076 0.41864 0.0
C559 C 0.51039 0.55152 0.42993 0.0
C560 C 0.52223 0.58448 0.43056 0.0
C561 C 0.50239 0.59637 0.41879 0.0
C562 C 0.47105 0.57448 0.40723 0.0
H563 H 0.46995 0.50552 0.41694 0.0
O564 O 0.37995 0.50061 0.50249 0.0
O565 O 0.395 0.51878 0.43679 0.0
O566 O 0.37095 0.45177 0.44074 0.0
O567 O 0.41359 0.47848 0.39728 0.0
C568 C 0.51289 0.62912 0.41618 0.0
C569 C 0.49249 0.63942 0.40008 0.0
H570 H 0.44771 0.65027 0.36334 0.0
H571 H 0.39523 0.608 0.33688 0.0
H572 H 0.52576 0.54215 0.43787 0.0
H573 H 0.54674 0.60044 0.43933 0.0
H574 H 0.5368 0.64658 0.42568 0.0
H575 H 0.50091 0.66467 0.39786 0.0
Mn576 Mn 0.87313 0.34375 0.93861 0.0
Mn577 Mn 0.9104 0.407 0.87182 0.0
C578 C 0.87797 0.39213 0.96156 0.0
C579 C 0.82855 0.29823 0.96597 0.0
C580 C 0.94504 0.38246 0.92589 0.0
O581 O 0.8687 0.32192 0.88066 0.0
O582 O 0.89425 0.36603 0.84033 0.0
C583 C 0.85767 0.39725 0.81451 0.0
N584 N 0.88295 0.41657 0.83968 0.0
C585 C 0.88431 0.46338 0.8117 0.0
C586 C 0.85816 0.44398 0.78547 0.0
C587 C 0.84454 0.41075 0.78735 0.0
C588 C 0.89585 0.44849 0.83881 0.0
H589 H 0.84784 0.37186 0.81502 0.0
C590 C 0.87899 0.33581 0.84461 0.0
O591 O 0.85688 0.30244 0.96962 0.0
O592 O 0.82581 0.32014 0.94587 0.0
N593 N 0.92807 0.44901 0.8945 0.0
C594 C 0.95142 0.46393 0.92441 0.0
C595 C 0.96709 0.49726 0.92776 0.0
C596 C 0.9591 0.51487 0.89979 0.0
C597 C 0.93511 0.49896 0.86906 0.0
C598 C 0.92007 0.46576 0.86761 0.0
H599 H 0.95853 0.45054 0.94473 0.0
O600 O 0.87776 0.37131 0.98778 0.0
O601 O 0.87872 0.38596 0.92021 0.0
O602 O 0.92082 0.35858 0.94188 0.0
O603 O 0.9432 0.40168 0.90022 0.0
C604 C 0.92477 0.51463 0.8408 0.0
C605 C 0.89918 0.49683 0.81244 0.0
H606 H 0.84821 0.45431 0.76405 0.0
H607 H 0.82422 0.39558 0.76756 0.0
H608 H 0.98577 0.5095 0.95119 0.0
H609 H 0.97132 0.54055 0.90246 0.0
H610 H 0.93583 0.54031 0.84134 0.0
H611 H 0.89099 0.50909 0.79158 0.0
Mn612 Mn 0.54375 0.8744 0.43375 0.0
Mn613 Mn 0.50035 0.89375 0.36818 0.0
C614 C 0.50348 0.88148 0.46247 0.0
C615 C 0.55167 0.8348 0.46424 0.0
C616 C 0.56575 0.94239 0.40122 0.0
O617 O 0.55508 0.86539 0.37412 0.0
O618 O 0.52416 0.87778 0.33452 0.0
C619 C 0.45573 0.8273 0.34197 0.0
N620 N 0.46094 0.85518 0.35964 0.0
C621 C 0.4054 0.83288 0.37521 0.0
C622 C 0.39948 0.80395 0.35713 0.0
C623 C 0.42477 0.80115 0.34046 0.0
C624 C 0.43683 0.85794 0.37641 0.0
H625 H 0.47506 0.825 0.32929 0.0
C626 C 0.54408 0.86813 0.33821 0.0
O627 O 0.5748 0.86395 0.46093 0.0
O628 O 0.52425 0.82863 0.4498 0.0
N629 N 0.4754 0.90964 0.39411 0.0
C630 C 0.48433 0.94062 0.40204 0.0
C631 C 0.46153 0.9485 0.41518 0.0
C632 C 0.42958 0.92458 0.41863 0.0
C633 C 0.42061 0.89324 0.40728 0.0
C634 C 0.44438 0.88701 0.39371 0.0
H635 H 0.50876 0.95921 0.39854 0.0
O636 O 0.5253 0.88223 0.4871 0.0
O637 O 0.50528 0.87565 0.42196 0.0
O638 O 0.57097 0.9227 0.42215 0.0
O639 O 0.54045 0.93414 0.37925 0.0
C640 C 0.38887 0.86825 0.40713 0.0
C641 C 0.38131 0.83797 0.39154 0.0
H642 H 0.37559 0.78381 0.35561 0.0
H643 H 0.42042 0.77892 0.32642 0.0
H644 H 0.46856 0.97292 0.42263 0.0
H645 H 0.41206 0.93068 0.42902 0.0
H646 H 0.37004 0.87222 0.41814 0.0
H647 H 0.35681 0.819 0.39116 0.0
Mn648 Mn 0.47466 0.33979 0.07106 0.0
Mn649 Mn 0.51744 0.40504 0.13378 0.0
C650 C 0.51302 0.38736 0.04017 0.0
C651 C 0.4682 0.29219 0.04195 0.0
C652 C 0.45101 0.38471 0.10153 0.0
O653 O 0.465 0.32098 0.13187 0.0
O654 O 0.49607 0.36584 0.16896 0.0
C655 C 0.56508 0.38724 0.15903 0.0
N656 N 0.55807 0.40863 0.14144 0.0
C657 C 0.61314 0.44504 0.12635 0.0
C658 C 0.62091 0.42338 0.14438 0.0
C659 C 0.59674 0.3943 0.1607 0.0
C660 C 0.58107 0.43633 0.12471 0.0
H661 H 0.54664 0.36495 0.17156 0.0
C662 C 0.47681 0.33595 0.16695 0.0
O663 O 0.44438 0.29701 0.0456 0.0
O664 O 0.49541 0.31457 0.05564 0.0
N665 N 0.54021 0.44583 0.1067 0.0
C666 C 0.52942 0.46642 0.09917 0.0
C667 C 0.55084 0.49791 0.08704 0.0
C668 C 0.58335 0.50831 0.08419 0.0
C669 C 0.5942 0.48737 0.09485 0.0
C670 C 0.57172 0.45641 0.10741 0.0
H671 H 0.50458 0.45889 0.10252 0.0
O672 O 0.49146 0.36498 0.01653 0.0
O673 O 0.51239 0.38087 0.0809 0.0
O674 O 0.44623 0.35954 0.08157 0.0
O675 O 0.47611 0.4026 0.12345 0.0
C676 C 0.62657 0.49652 0.09561 0.0
C677 C 0.63601 0.47518 0.11076 0.0
H678 H 0.64536 0.42893 0.1462 0.0
H679 H 0.60251 0.37745 0.17472 0.0
H680 H 0.54232 0.51416 0.08004 0.0
H681 H 0.59982 0.53258 0.0747 0.0
H682 H 0.64445 0.52015 0.08549 0.0
H683 H 0.66099 0.48257 0.11156 0.0
Mn684 Mn 0.15619 0.48337 0.583 0.0
Mn685 Mn 0.12372 0.5196 0.64049 0.0
C686 C 0.15082 0.524 0.55099 0.0
C687 C 0.20016 0.47944 0.56046 0.0
C688 C 0.08492 0.45411 0.601 0.0
O689 O 0.15873 0.47062 0.64467 0.0
O690 O 0.141 0.49943 0.67996 0.0
C691 C 0.1797 0.57077 0.68547 0.0
N692 N 0.15425 0.56145 0.65911 0.0
C693 C 0.16092 0.61402 0.65973 0.0
C694 C 0.18737 0.62422 0.68668 0.0
C695 C 0.19698 0.60256 0.69922 0.0
C696 C 0.14497 0.58218 0.64649 0.0
H697 H 0.1866 0.55403 0.69601 0.0
C698 C 0.15249 0.48072 0.67915 0.0
O699 O 0.17164 0.45517 0.55924 0.0
O700 O 0.20347 0.50558 0.57656 0.0
N701 N 0.10641 0.54006 0.60646 0.0
C702 C 0.08237 0.52712 0.57713 0.0
C703 C 0.07139 0.54622 0.55876 0.0
C704 C 0.08491 0.57822 0.5712 0.0
C705 C 0.10952 0.59095 0.60158 0.0
C706 C 0.11975 0.57089 0.61834 0.0
H707 H 0.07165 0.50243 0.56789 0.0
O708 O 0.15439 0.50345 0.52872 0.0
O709 O 0.15106 0.52058 0.59279 0.0
O710 O 0.10746 0.45248 0.58223 0.0
O711 O 0.08915 0.47753 0.62407 0.0
C712 C 0.12459 0.62286 0.61545 0.0
C713 C 0.15014 0.63434 0.64476 0.0
H714 H 0.20065 0.64867 0.69757 0.0
H715 H 0.21753 0.61031 0.71968 0.0
H716 H 0.05233 0.53624 0.53543 0.0
H717 H 0.07635 0.59286 0.55713 0.0
H718 H 0.11708 0.63891 0.60323 0.0
H719 H 0.16191 0.65905 0.6546 0.0
Mn720 Mn 0.67336 0.14808 0.07399 0.0
Mn721 Mn 0.61023 0.12593 0.13992 0.0
C722 C 0.62522 0.13857 0.04563 0.0
C723 C 0.71961 0.1893 0.04291 0.0
C724 C 0.62935 0.07931 0.10598 0.0
O725 O 0.69398 0.15792 0.13337 0.0
O726 O 0.65017 0.14241 0.17341 0.0
C727 C 0.63047 0.19177 0.16757 0.0
N728 N 0.60829 0.16383 0.14949 0.0
C729 C 0.57413 0.18517 0.13451 0.0
C730 C 0.59664 0.21415 0.15299 0.0
C731 C 0.62495 0.21745 0.16957 0.0
C732 C 0.58121 0.16059 0.13281 0.0
H733 H 0.65226 0.19445 0.18019 0.0
C734 C 0.68001 0.15362 0.16948 0.0
O735 O 0.71529 0.16073 0.04614 0.0
O736 O 0.69754 0.19398 0.05798 0.0
N737 N 0.56924 0.10935 0.11436 0.0
C738 C 0.54765 0.07823 0.10641 0.0
C739 C 0.51676 0.06975 0.09358 0.0
C740 C 0.50809 0.09322 0.09031 0.0
C741 C 0.52998 0.12468 0.10176 0.0
C742 C 0.56019 0.13149 0.11515 0.0
H743 H 0.55401 0.06 0.10972 0.0
O744 O 0.64681 0.13895 0.02086 0.0
O745 O 0.63279 0.14481 0.0861 0.0
O746 O 0.6543 0.09992 0.08584 0.0
O747 O 0.61119 0.08637 0.12751 0.0
C748 C 0.52254 0.1492 0.10233 0.0
C749 C 0.54476 0.17955 0.11827 0.0
H750 H 0.59234 0.23394 0.15489 0.0
H751 H 0.64245 0.23973 0.18391 0.0
H752 H 0.49972 0.04521 0.08616 0.0
H753 H 0.48433 0.08666 0.08009 0.0
H754 H 0.49958 0.1448 0.09142 0.0
H755 H 0.53867 0.19814 0.11898 0.0
Mn756 Mn 0.54998 0.68192 0.57398 0.0
Mn757 Mn 0.51229 0.6205 0.64424 0.0
C758 C 0.51015 0.63247 0.54955 0.0
C759 C 0.55442 0.72782 0.54238 0.0
C760 C 0.57639 0.63938 0.60415 0.0
O761 O 0.56353 0.70433 0.6324 0.0
O762 O 0.53587 0.66167 0.67478 0.0
C763 C 0.46663 0.64023 0.67245 0.0
N764 N 0.47236 0.61759 0.65605 0.0
C765 C 0.41653 0.58112 0.64686 0.0
C766 C 0.41007 0.60402 0.66385 0.0
C767 C 0.43527 0.63379 0.67643 0.0
C768 C 0.44833 0.58925 0.64259 0.0
H769 H 0.48584 0.66308 0.68214 0.0
C770 C 0.5544 0.69143 0.66926 0.0
O771 O 0.57836 0.72308 0.54371 0.0
O772 O 0.52812 0.70616 0.55949 0.0
N773 N 0.48772 0.57814 0.6223 0.0
C774 C 0.49773 0.55673 0.61642 0.0
C775 C 0.47548 0.52479 0.60755 0.0
C776 C 0.44301 0.51483 0.6067 0.0
C777 C 0.43308 0.53664 0.61654 0.0
C778 C 0.45642 0.56805 0.62577 0.0
H779 H 0.52259 0.56405 0.61829 0.0
O780 O 0.52982 0.65362 0.52275 0.0
O781 O 0.51334 0.64129 0.58967 0.0
O782 O 0.57938 0.66327 0.58276 0.0
O783 O 0.55286 0.62234 0.62923 0.0
C784 C 0.40093 0.52805 0.61984 0.0
C785 C 0.39266 0.55042 0.6345 0.0
H786 H 0.38588 0.59896 0.66758 0.0
H787 H 0.43052 0.65166 0.68948 0.0
H788 H 0.48331 0.50787 0.6016 0.0
H789 H 0.4259 0.4902 0.59975 0.0
H790 H 0.38238 0.5041 0.61211 0.0
H791 H 0.36786 0.54347 0.63733 0.0
Mn792 Mn 0.86616 0.53611 0.07799 0.0
Mn793 Mn 0.90653 0.50609 0.13004 0.0
C794 C 0.87291 0.49657 0.04496 0.0
C795 C 0.81989 0.53652 0.05991 0.0
C796 C 0.93878 0.56996 0.08449 0.0
O797 O 0.86577 0.5496 0.14029 0.0
O798 O 0.89229 0.52787 0.17134 0.0
C799 C 0.85485 0.45806 0.18479 0.0
N800 N 0.87781 0.46552 0.15452 0.0
C801 C 0.86923 0.41225 0.15561 0.0
C802 C 0.84555 0.40404 0.18685 0.0
C803 C 0.83826 0.42703 0.20138 0.0
C804 C 0.88491 0.44355 0.14021 0.0
H805 H 0.84934 0.47568 0.19643 0.0
C806 C 0.87698 0.54291 0.17326 0.0
O807 O 0.84755 0.56179 0.05644 0.0
O808 O 0.81873 0.51132 0.07606 0.0
N809 N 0.92103 0.48352 0.09493 0.0
C810 C 0.94337 0.49481 0.06325 0.0
C811 C 0.95201 0.47425 0.04356 0.0
C812 C 0.93818 0.44256 0.05723 0.0
C813 C 0.91578 0.43162 0.09053 0.0
C814 C 0.90773 0.45305 0.10857 0.0
H815 H 0.95455 0.51929 0.05324 0.0
O816 O 0.86672 0.5155 0.02309 0.0
O817 O 0.8748 0.50115 0.08667 0.0
O818 O 0.91362 0.5694 0.07182 0.0
O819 O 0.93874 0.5476 0.10608 0.0
C820 C 0.90079 0.40016 0.10612 0.0
C821 C 0.87763 0.39052 0.1388 0.0
H822 H 0.83272 0.38013 0.19974 0.0
H823 H 0.82004 0.42089 0.22551 0.0
H824 H 0.96958 0.48282 0.01828 0.0
H825 H 0.94489 0.42685 0.04186 0.0
H826 H 0.9066 0.38309 0.09279 0.0
H827 H 0.86597 0.36618 0.15014 0.0
Mn828 Mn 0.34609 0.86707 0.5729 0.0
Mn829 Mn 0.4088 0.88683 0.63873 0.0
C830 C 0.39389 0.87583 0.54419 0.0
C831 C 0.29934 0.82727 0.54093 0.0
C832 C 0.39145 0.93505 0.60648 0.0
O833 O 0.32536 0.85694 0.63229 0.0
O834 O 0.36892 0.87097 0.67214 0.0
C835 C 0.38685 0.82035 0.66469 0.0
N836 N 0.40957 0.84823 0.6472 0.0
C837 C 0.44292 0.82597 0.63203 0.0
C838 C 0.41986 0.79703 0.64992 0.0
C839 C 0.39168 0.7942 0.66628 0.0
C840 C 0.43651 0.85101 0.63066 0.0
H841 H 0.36518 0.81805 0.67718 0.0
C842 C 0.33922 0.86057 0.66833 0.0
O843 O 0.30454 0.8561 0.54535 0.0
O844 O 0.32085 0.82151 0.55538 0.0
N845 N 0.44977 0.90278 0.61334 0.0
C846 C 0.47194 0.93383 0.60615 0.0
C847 C 0.5027 0.94175 0.59343 0.0
C848 C 0.51068 0.9178 0.58968 0.0
C849 C 0.48822 0.88641 0.60053 0.0
C850 C 0.45811 0.88011 0.61363 0.0
H851 H 0.46613 0.95242 0.60994 0.0
O852 O 0.37263 0.87634 0.51972 0.0
O853 O 0.38617 0.86904 0.58454 0.0
O854 O 0.36629 0.91517 0.5861 0.0
O855 O 0.40908 0.9271 0.62756 0.0
C856 C 0.49503 0.86147 0.60093 0.0
C857 C 0.47224 0.83114 0.6162 0.0
H858 H 0.42364 0.77691 0.65156 0.0
H859 H 0.37376 0.77196 0.68017 0.0
H860 H 0.52019 0.96623 0.58652 0.0
H861 H 0.53438 0.92394 0.57964 0.0
H862 H 0.518 0.86559 0.59056 0.0
H863 H 0.47784 0.81221 0.61681 0.0
C864 C 0.33038 0.50067 0.24561 0.0
C865 C 0.33469 0.47834 0.22149 0.0
C866 C 0.32924 0.44802 0.28702 0.0
C867 C 0.33104 0.47343 0.31154 0.0
N868 N 0.32103 0.51676 0.31614 0.0
N869 N 0.32504 0.42493 0.21589 0.0
C870 C 0.32711 0.49725 0.29124 0.0
C871 C 0.32951 0.44984 0.24116 0.0
N872 N 0.33051 0.52547 0.22479 0.0
N873 N 0.32907 0.42324 0.30789 0.0
H874 H 0.32438 0.42589 0.18231 0.0
H875 H 0.3195 0.40273 0.22782 0.0
H876 H 0.32731 0.42115 0.34143 0.0
H877 H 0.33122 0.40537 0.29249 0.0
H878 H 0.33047 0.54443 0.24034 0.0
H879 H 0.33101 0.52705 0.19119 0.0
H880 H 0.31656 0.53406 0.30399 0.0
H881 H 0.31849 0.51389 0.34955 0.0
C882 C 0.8956 0.31562 0.7362 0.0
C883 C 0.87061 0.31615 0.71375 0.0
C884 C 0.84289 0.31103 0.78166 0.0
C885 C 0.87073 0.31711 0.80398 0.0
N886 N 0.91692 0.3119 0.80569 0.0
N887 N 0.81607 0.3023 0.71235 0.0
C888 C 0.89487 0.31471 0.7821 0.0
C889 C 0.84249 0.30935 0.73578 0.0
N890 N 0.9205 0.31763 0.71344 0.0
N891 N 0.81789 0.30888 0.80439 0.0
H892 H 0.816 0.30099 0.67873 0.0
H893 H 0.79409 0.29581 0.72576 0.0
H894 H 0.81772 0.30914 0.83804 0.0
H895 H 0.79782 0.30741 0.79039 0.0
H896 H 0.94111 0.32037 0.72744 0.0
H897 H 0.92034 0.31684 0.67978 0.0
H898 H 0.93494 0.30904 0.79242 0.0
H899 H 0.91512 0.30975 0.83923 0.0
C900 C 0.58014 0.88655 0.2749 0.0
C901 C 0.55502 0.86105 0.2974 0.0
C902 C 0.53338 0.83242 0.22983 0.0
C903 C 0.55381 0.86083 0.20754 0.0
N904 N 0.60312 0.90996 0.20513 0.0
N905 N 0.51497 0.80606 0.29945 0.0
C906 C 0.57981 0.88613 0.229 0.0
C907 C 0.53429 0.83243 0.27571 0.0
N908 N 0.60293 0.91164 0.29773 0.0
N909 N 0.51246 0.80632 0.20677 0.0
H910 H 0.51635 0.80624 0.33308 0.0
H911 H 0.49884 0.78406 0.28643 0.0
H912 H 0.51274 0.80629 0.17308 0.0
H913 H 0.49547 0.78493 0.22033 0.0
H914 H 0.62106 0.93228 0.28398 0.0
H915 H 0.60358 0.91143 0.33138 0.0
H916 H 0.62323 0.92933 0.21802 0.0
H917 H 0.60284 0.90924 0.17147 0.0
C918 C 0.70476 0.57914 0.78587 0.0
C919 C 0.70202 0.5524 0.80788 0.0
C920 C 0.70668 0.5296 0.73997 0.0
C921 C 0.70261 0.55277 0.71793 0.0
N922 N 0.71203 0.606 0.71693 0.0
N923 N 0.71309 0.50968 0.80916 0.0
C924 C 0.70674 0.57998 0.74008 0.0
C925 C 0.70781 0.53035 0.78583 0.0
N926 N 0.70345 0.60243 0.80879 0.0
N927 N 0.70746 0.50605 0.71692 0.0
H928 H 0.71374 0.51042 0.84282 0.0
H929 H 0.71872 0.49352 0.79565 0.0
H930 H 0.70763 0.50612 0.68324 0.0
H931 H 0.70742 0.48653 0.7307 0.0
H932 H 0.70214 0.62119 0.7948 0.0
H933 H 0.70313 0.60232 0.84247 0.0
H934 H 0.71651 0.6274 0.73068 0.0
H935 H 0.71458 0.6066 0.68343 0.0
C936 C 0.17685 0.69825 0.27353 0.0
C937 C 0.15175 0.69511 0.29995 0.0
C938 C 0.12537 0.70197 0.23725 0.0
C939 C 0.14718 0.69901 0.21033 0.0
N940 N 0.19895 0.70551 0.20112 0.0
N941 N 0.11011 0.70714 0.31029 0.0
C942 C 0.17507 0.70146 0.22812 0.0
C943 C 0.1287 0.70161 0.28284 0.0
N944 N 0.20146 0.69677 0.2921 0.0
N945 N 0.10078 0.70348 0.21883 0.0
H946 H 0.11321 0.70784 0.34364 0.0
H947 H 0.09371 0.71354 0.30028 0.0
H948 H 0.0998 0.70607 0.18557 0.0
H949 H 0.08173 0.70203 0.23594 0.0
H950 H 0.21937 0.6959 0.275 0.0
H951 H 0.20366 0.69627 0.32555 0.0
H952 H 0.22063 0.70862 0.21139 0.0
H953 H 0.19751 0.70763 0.16783 0.0
C954 C 0.48666 0.18401 0.77571 0.0
C955 C 0.46575 0.15599 0.79842 0.0
C956 C 0.44108 0.12906 0.73084 0.0
C957 C 0.46678 0.15411 0.70856 0.0
N958 N 0.50706 0.209 0.70577 0.0
N959 N 0.41654 0.10672 0.80036 0.0
C960 C 0.48697 0.18313 0.72982 0.0
C961 C 0.44032 0.13026 0.77669 0.0
N962 N 0.50687 0.21058 0.79852 0.0
N963 N 0.41876 0.10368 0.70795 0.0
H964 H 0.41601 0.10801 0.83394 0.0
H965 H 0.3969 0.08697 0.78729 0.0
H966 H 0.41898 0.1034 0.67428 0.0
H967 H 0.40012 0.08338 0.72163 0.0
H968 H 0.524 0.23183 0.7848 0.0
H969 H 0.50577 0.21117 0.83213 0.0
H970 H 0.52303 0.23117 0.71847 0.0
H971 H 0.50665 0.20817 0.6721 0.0
C972 C 0.5427 0.71668 0.73029 0.0
C973 C 0.5649 0.71074 0.7091 0.0
C974 C 0.58976 0.71262 0.77825 0.0
C975 C 0.56229 0.70884 0.79899 0.0
N976 N 0.51653 0.71504 0.79797 0.0
N977 N 0.61398 0.71063 0.71046 0.0
C978 C 0.54043 0.71432 0.77601 0.0
C979 C 0.59047 0.71207 0.73239 0.0
N980 N 0.52322 0.72314 0.70618 0.0
N981 N 0.61437 0.71575 0.80275 0.0
H982 H 0.61496 0.71132 0.6768 0.0
H983 H 0.63194 0.70837 0.72513 0.0
H984 H 0.61377 0.71684 0.83636 0.0
H985 H 0.63586 0.71972 0.79021 0.0
H986 H 0.50709 0.72898 0.71908 0.0
H987 H 0.52495 0.72452 0.6726 0.0
H988 H 0.4978 0.71593 0.78331 0.0
H989 H 0.5155 0.71427 0.83162 0.0
C990 C 0.89166 0.57378 0.28802 0.0
C991 C 0.86493 0.54822 0.30752 0.0
C992 C 0.84037 0.53009 0.23646 0.0
C993 C 0.87038 0.55046 0.21721 0.0
N994 N 0.92429 0.59329 0.22399 0.0
N995 N 0.81116 0.50592 0.30278 0.0
C996 C 0.89574 0.57337 0.24274 0.0
C997 C 0.83808 0.52802 0.28237 0.0
N998 N 0.91332 0.59786 0.31332 0.0
N999 N 0.81468 0.51201 0.21089 0.0
H1000 H 0.80913 0.5055 0.33634 0.0
H1001 H 0.79139 0.48797 0.28715 0.0
H1002 H 0.81591 0.51278 0.17732 0.0
H1003 H 0.79175 0.49785 0.22251 0.0
H1004 H 0.93244 0.61857 0.30113 0.0
H1005 H 0.91025 0.59798 0.34665 0.0
H1006 H 0.9448 0.60807 0.24131 0.0
H1007 H 0.92761 0.59366 0.19081 0.0
C1008 C 0.32171 0.8807 0.72992 0.0
C1009 C 0.32133 0.85457 0.70912 0.0
C1010 C 0.31226 0.82702 0.77812 0.0
C1011 C 0.32037 0.85598 0.79911 0.0
N1012 N 0.32396 0.90698 0.79801 0.0
N1013 N 0.30688 0.79968 0.70985 0.0
C1014 C 0.32147 0.88153 0.77581 0.0
C1015 C 0.31291 0.82635 0.73221 0.0
N1016 N 0.32368 0.90498 0.70545 0.0
N1017 N 0.30529 0.80096 0.80253 0.0
H1018 H 0.30635 0.79914 0.67618 0.0
H1019 H 0.30169 0.7782 0.72395 0.0
H1020 H 0.30412 0.8015 0.83613 0.0
H1021 H 0.29969 0.77887 0.79011 0.0
H1022 H 0.32442 0.92523 0.71779 0.0
H1023 H 0.32336 0.90405 0.67181 0.0
H1024 H 0.32644 0.92746 0.78382 0.0
H1025 H 0.32296 0.9071 0.83165 0.0
C1026 C 0.49498 0.31875 0.27537 0.0
C1027 C 0.47254 0.32324 0.29873 0.0
C1028 C 0.44281 0.3173 0.23263 0.0
C1029 C 0.46841 0.31908 0.20881 0.0
N1030 N 0.51115 0.30831 0.20565 0.0
N1031 N 0.41889 0.31239 0.30322 0.0
C1032 C 0.49186 0.31506 0.22981 0.0
C1033 C 0.44417 0.31755 0.2785 0.0
N1034 N 0.51956 0.31905 0.29685 0.0
N1035 N 0.41826 0.31705 0.21119 0.0
H1036 H 0.41937 0.31088 0.33674 0.0
H1037 H 0.39681 0.3066 0.29079 0.0
H1038 H 0.41646 0.3153 0.17764 0.0
H1039 H 0.40034 0.31923 0.22622 0.0
H1040 H 0.53857 0.31893 0.28177 0.0
H1041 H 0.52092 0.31987 0.33048 0.0
H1042 H 0.52816 0.3037 0.21846 0.0
H1043 H 0.50828 0.3052 0.17228 0.0
C1044 C 0.13722 0.44241 0.74053 0.0
C1045 C 0.15963 0.47153 0.72137 0.0
C1046 C 0.18361 0.49227 0.79173 0.0
C1047 C 0.15605 0.4673 0.81095 0.0
N1048 N 0.11242 0.4141 0.80704 0.0
N1049 N 0.21007 0.51946 0.72534 0.0
C1050 C 0.13489 0.44056 0.78629 0.0
C1051 C 0.18516 0.49481 0.74602 0.0
N1052 N 0.1186 0.41699 0.71483 0.0
N1053 N 0.20743 0.5137 0.81763 0.0
H1054 H 0.21184 0.52032 0.69174 0.0
H1055 H 0.22889 0.53861 0.74079 0.0
H1056 H 0.20623 0.51139 0.85115 0.0
H1057 H 0.22859 0.53265 0.80645 0.0
H1058 H 0.10201 0.39462 0.72629 0.0
H1059 H 0.12155 0.418 0.68143 0.0
H1060 H 0.09404 0.39445 0.79174 0.0
H1061 H 0.11321 0.41197 0.84042 0.0
C1062 C 0.69936 0.1346 0.27725 0.0
C1063 C 0.70131 0.16077 0.30007 0.0
C1064 C 0.70694 0.18894 0.23244 0.0
C1065 C 0.69817 0.16028 0.21012 0.0
N1066 N 0.69641 0.11014 0.20738 0.0
N1067 N 0.71719 0.21602 0.30193 0.0
C1068 C 0.69835 0.13463 0.23137 0.0
C1069 C 0.70901 0.18929 0.27827 0.0
N1070 N 0.69666 0.10926 0.29988 0.0
N1071 N 0.71188 0.21502 0.20955 0.0
H1072 H 0.71934 0.21617 0.33546 0.0
H1073 H 0.72321 0.23804 0.28888 0.0
H1074 H 0.71157 0.21497 0.17587 0.0
H1075 H 0.71662 0.2365 0.22325 0.0
H1076 H 0.6929 0.08815 0.28605 0.0
H1077 H 0.69837 0.10966 0.33346 0.0
H1078 H 0.69677 0.09054 0.22007 0.0
H1079 H 0.69606 0.11044 0.17372 0.0
C1080 C 0.24795 0.48838 0.97095 0.0
C1081 C 0.22026 0.48083 0.99489 0.0
C1082 C 0.24395 0.47176 0.05951 0.0
C1083 C 0.27261 0.48215 0.03657 0.0
N1084 N 0.30378 0.50476 0.97219 0.0
N1085 N 0.19416 0.47142 0.06406 0.0
C1086 C 0.27518 0.49183 0.99281 0.0
C1087 C 0.21876 0.47398 0.03974 0.0
N1088 N 0.24778 0.49081 0.92704 0.0
N1089 N 0.24074 0.45964 0.10014 0.0
H1090 H 0.17581 0.47404 0.05137 0.0
H1091 H 0.19346 0.46979 0.09756 0.0
H1092 H 0.25909 0.45869 0.11612 0.0
H1093 H 0.21926 0.44834 0.11668 0.0
H1094 H 0.266 0.49287 0.90729 0.0
H1095 H 0.22809 0.48779 0.90979 0.0
H1096 H 0.30807 0.51573 0.94216 0.0
H1097 H 0.32401 0.50672 0.98645 0.0
C1098 C 0.75762 0.21907 0.53338 0.0
C1099 C 0.75898 0.21082 0.4898 0.0
C1100 C 0.81352 0.25576 0.48396 0.0
C1101 C 0.81269 0.26314 0.52817 0.0
N1102 N 0.78663 0.24782 0.59724 0.0
N1103 N 0.78957 0.2175 0.42566 0.0
C1104 C 0.78546 0.24362 0.55354 0.0
C1105 C 0.78748 0.22787 0.46585 0.0
N1106 N 0.72954 0.20376 0.55536 0.0
N1107 N 0.83822 0.27645 0.45851 0.0
H1108 H 0.77066 0.19784 0.41091 0.0
H1109 H 0.81067 0.22675 0.40835 0.0
H1110 H 0.85745 0.29737 0.47015 0.0
H1111 H 0.83848 0.27437 0.42512 0.0
H1112 H 0.72591 0.21126 0.58521 0.0
H1113 H 0.70909 0.18455 0.54261 0.0
H1114 H 0.76877 0.23249 0.61815 0.0
H1115 H 0.80687 0.26497 0.61321 0.0
C1116 C 0.54265 0.80192 0.97486 0.0
C1117 C 0.54654 0.80655 0.02015 0.0
C1118 C 0.54583 0.75581 0.02769 0.0
C1119 C 0.5439 0.75213 0.98213 0.0
N1120 N 0.54531 0.77371 0.9117 0.0
N1121 N 0.5565 0.79077 0.08924 0.0
C1122 C 0.5436 0.77575 0.95551 0.0
C1123 C 0.54954 0.78432 0.04642 0.0
N1124 N 0.53707 0.82204 0.95051 0.0
N1125 N 0.5426 0.73139 0.05317 0.0
H1126 H 0.55901 0.81122 0.10403 0.0
H1127 H 0.56232 0.77733 0.10936 0.0
H1128 H 0.53962 0.7101 0.04073 0.0
H1129 H 0.54023 0.73102 0.08655 0.0
H1130 H 0.53027 0.81796 0.91826 0.0
H1131 H 0.53725 0.84198 0.96335 0.0
H1132 H 0.54858 0.79174 0.89059 0.0
H1133 H 0.54599 0.75493 0.89641 0.0
C1134 C 0.77134 0.53087 0.55969 0.0
C1135 C 0.75043 0.53641 0.53408 0.0
C1136 C 0.78413 0.54507 0.47055 0.0
C1137 C 0.80343 0.53689 0.49534 0.0
N1138 N 0.81336 0.51785 0.56192 0.0
N1139 N 0.73359 0.54308 0.46361 0.0
C1140 C 0.79641 0.52856 0.53948 0.0
C1141 C 0.75601 0.54215 0.48909 0.0
N1142 N 0.76807 0.52918 0.60356 0.0
N1143 N 0.79285 0.55591 0.42932 0.0
H1144 H 0.71236 0.54028 0.47566 0.0
H1145 H 0.73459 0.54367 0.43007 0.0
H1146 H 0.81279 0.55753 0.41435 0.0
H1147 H 0.78182 0.56561 0.41115 0.0
H1148 H 0.78448 0.52856 0.62441 0.0
H1149 H 0.75033 0.5312 0.61956 0.0
H1150 H 0.8071 0.50785 0.59255 0.0
H1151 H 0.83255 0.51687 0.54872 0.0
C1152 C 0.23991 0.78517 0.96439 0.0
C1153 C 0.26768 0.80394 0.98899 0.0
C1154 C 0.2414 0.77162 0.05319 0.0
C1155 C 0.21466 0.75109 0.02765 0.0
N1156 N 0.19091 0.73486 0.95712 0.0
N1157 N 0.29681 0.81306 0.05528 0.0
C1158 C 0.21448 0.75703 0.98276 0.0
C1159 C 0.269 0.79655 0.03297 0.0
N1160 N 0.23779 0.79429 0.92342 0.0
N1161 N 0.23993 0.7682 0.09702 0.0
H1162 H 0.31708 0.8323 0.04221 0.0
H1163 H 0.30047 0.80644 0.0857 0.0
H1164 H 0.21998 0.75063 0.11296 0.0
H1165 H 0.25726 0.78435 0.11789 0.0
H1166 H 0.21692 0.78367 0.90549 0.0
H1167 H 0.25627 0.81423 0.90853 0.0
H1168 H 0.19124 0.73614 0.9236 0.0
H1169 H 0.17242 0.71347 0.96889 0.0
C1170 C 0.50687 0.23198 0.49836 0.0
C1171 C 0.47816 0.20644 0.51486 0.0
C1172 C 0.45048 0.23195 0.4825 0.0
C1173 C 0.47985 0.26059 0.4757 0.0
N1174 N 0.53633 0.28881 0.4924 0.0
N1175 N 0.42243 0.18678 0.52972 0.0
C1176 C 0.50825 0.261 0.48781 0.0
C1177 C 0.44976 0.20758 0.50893 0.0
N1178 N 0.5327 0.22863 0.49136 0.0
N1179 N 0.42343 0.2271 0.46264 0.0
H1180 H 0.42102 0.17022 0.55215 0.0
H1181 H 0.40212 0.18879 0.52855 0.0
H1182 H 0.42326 0.24255 0.43954 0.0
H1183 H 0.40212 0.20557 0.46469 0.0
H1184 H 0.55335 0.24645 0.47695 0.0
H1185 H 0.53191 0.20685 0.49399 0.0
H1186 H 0.55679 0.28934 0.50356 0.0
H1187 H 0.53828 0.31113 0.49188 0.0
C1188 C 0.78385 0.52499 0.99679 0.0
C1189 C 0.79168 0.53543 0.04013 0.0
C1190 C 0.74728 0.54574 0.04307 0.0
C1191 C 0.74162 0.53837 0.99842 0.0
N1192 N 0.75852 0.52717 0.93081 0.0
N1193 N 0.78353 0.55912 0.1035 0.0
C1194 C 0.76096 0.52961 0.97475 0.0
C1195 C 0.77421 0.5469 0.06297 0.0
N1196 N 0.79793 0.51019 0.97675 0.0
N1197 N 0.72614 0.55009 0.06688 0.0
H1198 H 0.80229 0.55905 0.11961 0.0
H1199 H 0.77403 0.57111 0.12 0.0
H1200 H 0.70596 0.549 0.05363 0.0
H1201 H 0.72709 0.5521 0.10034 0.0
H1202 H 0.79066 0.49897 0.94692 0.0
H1203 H 0.81492 0.50646 0.99161 0.0
H1204 H 0.77426 0.52417 0.91135 0.0
H1205 H 0.74278 0.53142 0.91327 0.0
C1206 C 0.21749 0.75439 0.52683 0.0
C1207 C 0.21738 0.7484 0.4819 0.0
C1208 C 0.27116 0.79464 0.47553 0.0
C1209 C 0.27034 0.80171 0.51979 0.0
N1210 N 0.2411 0.7918 0.58605 0.0
N1211 N 0.24156 0.76584 0.41196 0.0
C1212 C 0.2429 0.78271 0.54489 0.0
C1213 C 0.24355 0.76937 0.4558 0.0
N1214 N 0.19434 0.73208 0.5528 0.0
N1215 N 0.29858 0.81165 0.45257 0.0
H1216 H 0.22161 0.74793 0.39636 0.0
H1217 H 0.25841 0.78219 0.39077 0.0
H1218 H 0.31882 0.83107 0.4654 0.0
H1219 H 0.30199 0.80536 0.42177 0.0
H1220 H 0.19503 0.73338 0.58632 0.0
H1221 H 0.17577 0.71064 0.54124 0.0
H1222 H 0.22047 0.78095 0.60447 0.0
H1223 H 0.25955 0.81197 0.6006 0.0
C1224 C 0.45609 0.20872 0.0274 0.0
C1225 C 0.46571 0.20996 0.9838 0.0
C1226 C 0.47624 0.26496 0.97816 0.0
C1227 C 0.46521 0.26317 0.02104 0.0
N1228 N 0.43971 0.23196 0.08421 0.0
N1229 N 0.47831 0.23654 0.91498 0.0
C1230 C 0.45339 0.2345 0.04483 0.0
C1231 C 0.47392 0.23736 0.95842 0.0
N1232 N 0.45144 0.18384 0.053 0.0
N1233 N 0.48945 0.29325 0.95647 0.0
H1234 H 0.47595 0.21648 0.89921 0.0
H1235 H 0.48124 0.25446 0.89388 0.0
H1236 H 0.49012 0.31355 0.96885 0.0
H1237 H 0.50154 0.29723 0.92737 0.0
H1238 H 0.44801 0.18326 0.08619 0.0
H1239 H 0.45356 0.16477 0.04177 0.0
H1240 H 0.42759 0.21069 0.10121 0.0
H1241 H 0.43831 0.25068 0.09849 0.0
C1242 C 0.23622 0.48977 0.49699 0.0
C1243 C 0.22725 0.47838 0.53982 0.0
C1244 C 0.27155 0.46782 0.54382 0.0
C1245 C 0.27903 0.47699 0.49989 0.0
N1246 N 0.26458 0.49061 0.43224 0.0
N1247 N 0.23316 0.45225 0.60205 0.0
C1248 C 0.26031 0.48636 0.47583 0.0
C1249 C 0.24389 0.46596 0.56257 0.0
N1250 N 0.222 0.50428 0.47661 0.0
N1251 N 0.29179 0.46261 0.56836 0.0
H1252 H 0.21372 0.45153 0.61731 0.0
H1253 H 0.24202 0.43959 0.61822 0.0
H1254 H 0.31253 0.46429 0.55621 0.0
H1255 H 0.28956 0.45932 0.60161 0.0
H1256 H 0.23006 0.51648 0.44756 0.0
H1257 H 0.20352 0.50626 0.49023 0.0
H1258 H 0.24956 0.49416 0.4121 0.0
H1259 H 0.28136 0.4875 0.41539 0.0
C1260 C 0.77624 0.24719 0.95849 0.0
C1261 C 0.80073 0.26996 0.98535 0.0
C1262 C 0.77406 0.23716 0.04903 0.0
C1263 C 0.74836 0.21583 0.02263 0.0
N1264 N 0.72266 0.20217 0.95326 0.0
N1265 N 0.82076 0.28942 0.05672 0.0
C1266 C 0.74881 0.22129 0.9776 0.0
C1267 C 0.79914 0.26562 0.03079 0.0
N1268 N 0.77977 0.24964 0.91468 0.0
N1269 N 0.77466 0.22994 0.0915 0.0
H1270 H 0.83922 0.31075 0.04471 0.0
H1271 H 0.81893 0.28932 0.09016 0.0
H1272 H 0.75645 0.20961 0.10603 0.0
H1273 H 0.79422 0.24263 0.11147 0.0
H1274 H 0.76448 0.23209 0.89333 0.0
H1275 H 0.79953 0.26815 0.89958 0.0
H1276 H 0.71993 0.207 0.92136 0.0
H1277 H 0.70261 0.18241 0.96584 0.0
C1278 C 0.56526 0.79129 0.46014 0.0
C1279 C 0.55568 0.8095 0.48511 0.0
C1280 C 0.55079 0.77746 0.54894 0.0
C1281 C 0.55682 0.75698 0.52292 0.0
N1282 N 0.56604 0.74194 0.45258 0.0
N1283 N 0.53621 0.81839 0.55206 0.0
C1284 C 0.56338 0.7634 0.47823 0.0
C1285 C 0.54761 0.80217 0.52922 0.0
N1286 N 0.57623 0.80074 0.41912 0.0
N1287 N 0.5493 0.77399 0.59278 0.0
H1288 H 0.53471 0.83742 0.53923 0.0
H1289 H 0.52632 0.81173 0.5827 0.0
H1290 H 0.55236 0.75672 0.60836 0.0
H1291 H 0.54808 0.78999 0.61395 0.0
H1292 H 0.5867 0.79054 0.40072 0.0
H1293 H 0.57716 0.82056 0.40462 0.0
H1294 H 0.56721 0.74334 0.41909 0.0
H1295 H 0.56453 0.72115 0.46445 0.0
C1296 C 0.40493 0.42349 0.06009 0.0
C1297 C 0.39633 0.43159 0.0999 0.0
C1298 C 0.41502 0.39997 0.13905 0.0
C1299 C 0.4266 0.39472 0.09974 0.0
N1300 N 0.42411 0.39286 0.02183 0.0
N1301 N 0.39103 0.4264 0.17712 0.0
C1302 C 0.41864 0.40352 0.0599 0.0
C1303 C 0.40018 0.41888 0.13928 0.0
N1304 N 0.40257 0.43713 0.02277 0.0
N1305 N 0.41793 0.38629 0.17599 0.0
H1306 H 0.37926 0.43931 0.17811 0.0
H1307 H 0.39563 0.4209 0.20766 0.0
H1308 H 0.42834 0.37208 0.17629 0.0
H1309 H 0.4084 0.38694 0.2057 0.0
H1310 H 0.41282 0.43636 0.99368 0.0
H1311 H 0.39185 0.45101 0.02123 0.0
H1312 H 0.41576 0.39553 0.99216 0.0
H1313 H 0.43461 0.37883 0.01979 0.0
C1314 C 0.03539 0.41278 0.63632 0.0
C1315 C 0.05141 0.42784 0.59764 0.0
C1316 C 1.00022 0.40426 0.5599 0.0
C1317 C 0.9842 0.39441 0.6003 0.0
N1318 N 0.98629 0.38769 0.67701 0.0
N1319 N 0.04947 0.43931 0.52259 0.0
C1320 C 1.00176 0.39784 0.63844 0.0
C1321 C 0.03398 0.42338 0.55915 0.0
N1322 N 0.05266 0.41317 0.6712 0.0
N1323 N 0.98338 0.3958 0.52227 0.0
H1324 H 0.07411 0.4528 0.52051 0.0
H1325 H 0.03795 0.44083 0.49522 0.0
H1326 H 0.95877 0.38247 0.52099 0.0
H1327 H 0.9939 0.39963 0.49198 0.0
H1328 H 0.04284 0.40025 0.69931 0.0
H1329 H 0.07731 0.42464 0.67045 0.0
H1330 H 0.99762 0.39298 0.70679 0.0
H1331 H 0.96165 0.3749 0.67945 0.0
C1332 C 0.59916 0.99395 0.14341 0.0
C1333 C 0.58772 0.97724 0.10391 0.0
C1334 C 0.61388 0.02831 0.06473 0.0
C1335 C 0.62009 0.04488 0.10473 0.0
N1336 N 0.62129 0.04388 0.18245 0.0
N1337 N 0.58506 0.9784 0.02609 0.0
C1338 C 0.61376 0.02775 0.14414 0.0
C1339 C 0.596 0.99434 0.06427 0.0
N1340 N 0.59663 0.97731 0.18016 0.0
N1341 N 0.62472 0.04478 0.02693 0.0
H1342 H 0.57391 0.95381 0.02318 0.0
H1343 H 0.58537 0.98937 0.99715 0.0
H1344 H 0.63594 0.06938 0.02453 0.0
H1345 H 0.62477 0.03419 0.99775 0.0
H1346 H 0.60708 0.9878 0.20942 0.0
H1347 H 0.58634 0.95264 0.18044 0.0
H1348 H 0.61351 0.033 0.21234 0.0
H1349 H 0.63465 0.0686 0.18438 0.0
C1350 C 0.62042 0.59959 0.55894 0.0
C1351 C 0.63339 0.59513 0.59739 0.0
C1352 C 0.61598 0.62724 0.63774 0.0
C1353 C 0.60117 0.63002 0.59991 0.0
N1354 N 0.59798 0.62761 0.52188 0.0
N1355 N 0.65117 0.61123 0.67008 0.0
C1356 C 0.60648 0.61934 0.55956 0.0
C1357 C 0.63381 0.61139 0.63564 0.0
N1358 N 0.61929 0.5831 0.52263 0.0
N1359 N 0.61213 0.63897 0.67596 0.0
H1360 H 0.66398 0.59936 0.66912 0.0
H1361 H 0.65503 0.62467 0.69791 0.0
H1362 H 0.60117 0.65265 0.67801 0.0
H1363 H 0.61872 0.63437 0.7058 0.0
H1364 H 0.6061 0.58154 0.4954 0.0
H1365 H 0.63019 0.56938 0.52058 0.0
H1366 H 0.6042 0.62321 0.49159 0.0
H1367 H 0.58706 0.64127 0.52042 0.0
C1368 C 0.98502 0.62304 0.10316 0.0
C1369 C 0.97027 0.5976 0.07353 0.0
C1370 C 0.02143 0.61601 0.03787 0.0
C1371 C 0.03672 0.63536 0.07416 0.0
N1372 N 0.03389 0.66093 0.1389 0.0
N1373 N 0.97287 0.57246 0.00815 0.0
C1374 C 0.01868 0.64047 0.10567 0.0
C1375 C 0.98797 0.59533 0.03885 0.0
N1376 N 0.9667 0.6304 0.12843 0.0
N1377 N 0.03905 0.61714 1.00304 0.0
H1378 H 0.94823 0.55839 0.00723 0.0
H1379 H 0.98458 0.56669 0.98489 0.0
H1380 H 0.06364 0.63187 1.00218 0.0
H1381 H 0.02909 0.60607 0.97384 0.0
H1382 H 0.97583 0.64986 0.14919 0.0
H1383 H 0.9421 0.61869 0.12487 0.0
H1384 H 0.02236 0.66311 0.16584 0.0
H1385 H 0.05852 0.67515 0.13956 0.0
C1386 C 0.4237 0.02044 0.64517 0.0
C1387 C 0.43642 0.0373 0.60609 0.0
C1388 C 0.40948 0.98666 0.56604 0.0
C1389 C 0.40181 0.96971 0.60576 0.0
N1390 N 0.39991 0.97021 0.68346 0.0
N1391 N 0.44215 0.0363 0.52864 0.0
C1392 C 0.40822 0.9866 0.6454 0.0
C1393 C 0.42897 0.02045 0.56625 0.0
N1394 N 0.42576 0.03692 0.68196 0.0
N1395 N 0.39845 0.97074 0.52787 0.0
H1396 H 0.45508 0.06092 0.52602 0.0
H1397 H 0.44207 0.02496 0.50007 0.0
H1398 H 0.38547 0.94613 0.52513 0.0
H1399 H 0.39985 0.98204 0.49877 0.0
H1400 H 0.4143 0.02627 0.71066 0.0
H1401 H 0.43669 0.06165 0.68275 0.0
H1402 H 0.40769 0.98087 0.7135 0.0
H1403 H 0.38606 0.9455 0.685 0.0
C1404 C 0.61318 0.62969 0.87849 0.0
C1405 C 0.59792 0.63147 0.91643 0.0
C1406 C 0.61496 0.59818 0.95422 0.0
C1407 C 0.62404 0.59105 0.91385 0.0
N1408 N 0.63409 0.60166 0.83778 0.0
N1409 N 0.58573 0.61935 0.9916 0.0
C1410 C 0.62422 0.60766 0.87613 0.0
C1411 C 0.6 0.61699 0.95499 0.0
N1412 N 0.61668 0.64913 0.84462 0.0
N1413 N 0.62003 0.5866 0.9917 0.0
H1414 H 0.57619 0.63425 0.99403 0.0
H1415 H 0.58231 0.60578 0.01914 0.0
H1416 H 0.62927 0.57142 0.99293 0.0
H1417 H 0.61727 0.59383 0.02221 0.0
H1418 H 0.62975 0.6513 0.81699 0.0
H1419 H 0.60868 0.66538 0.84622 0.0
H1420 H 0.63126 0.60992 0.80813 0.0
H1421 H 0.64407 0.58711 0.83525 0.0
C1422 C 0.99274 0.60086 0.3819 0.0
C1423 C 0.97576 0.58567 0.42003 0.0
C1424 C 0.02575 0.60962 0.46088 0.0
C1425 C 0.04268 0.62364 0.42231 0.0
N1426 N 0.0423 0.64071 0.34984 0.0
N1427 N 0.97517 0.58326 0.49801 0.0
C1428 C 0.02598 0.62205 0.38414 0.0
C1429 C 0.99192 0.59284 0.46033 0.0
N1430 N 0.97728 0.59412 0.34319 0.0
N1431 N 0.04184 0.61019 0.49723 0.0
H1432 H 0.95053 0.57035 0.49932 0.0
H1433 H 0.98559 0.59051 0.52828 0.0
H1434 H 0.06648 0.62295 0.49935 0.0
H1435 H 0.03087 0.59659 0.52449 0.0
H1436 H 0.98877 0.60129 0.31357 0.0
H1437 H 0.95279 0.57975 0.34042 0.0
H1438 H 0.03155 0.64313 0.32224 0.0
H1439 H 0.06671 0.65613 0.35101 0.0
C1440 C 0.42214 0.02357 0.94382 0.0
C1441 C 0.43098 0.04057 0.90411 0.0
C1442 C 0.40522 0.98997 0.86409 0.0
C1443 C 0.39794 0.97291 0.90366 0.0
N1444 N 0.39255 0.97331 0.98131 0.0
N1445 N 0.42354 0.04039 0.82743 0.0
C1446 C 0.40392 0.98963 0.9435 0.0
C1447 C 0.42016 0.0238 0.86454 0.0
N1448 N 0.43285 0.03957 0.982 0.0
N1449 N 0.39829 0.97374 0.82589 0.0
H1450 H 0.43415 0.0651 0.82687 0.0
H1451 H 0.41352 0.02987 0.798 0.0
H1452 H 0.38478 0.94902 0.82401 0.0
H1453 H 0.40677 0.98452 0.7961 0.0
H1454 H 0.43216 0.0286 0.01111 0.0
H1455 H 0.44413 0.06417 0.98479 0.0
H1456 H 0.39232 0.98406 0.01025 0.0
H1457 H 0.38108 0.9487 0.98387 0.0
C1458 C 0.41168 0.42089 0.4638 0.0
C1459 C 0.40257 0.42815 0.42364 0.0
C1460 C 0.4176 0.39283 0.38688 0.0
C1461 C 0.43223 0.39069 0.42527 0.0
N1462 N 0.44356 0.40265 0.50068 0.0
N1463 N 0.39503 0.41963 0.34695 0.0
C1464 C 0.42871 0.40405 0.46412 0.0
C1465 C 0.40461 0.4133 0.38525 0.0
N1466 N 0.40453 0.43035 0.50163 0.0
N1467 N 0.4165 0.37527 0.35182 0.0
H1468 H 0.38364 0.43288 0.34493 0.0
H1469 H 0.39945 0.41298 0.31698 0.0
H1470 H 0.42629 0.36053 0.35244 0.0
H1471 H 0.40382 0.37312 0.32382 0.0
H1472 H 0.40768 0.423 0.53182 0.0
H1473 H 0.39295 0.4434 0.50321 0.0
H1474 H 0.44619 0.41594 0.52832 0.0
H1475 H 0.45477 0.38925 0.50263 0.0
C1476 C 0.02886 0.40216 0.90215 0.0
C1477 C 0.0443 0.42233 0.93766 0.0
C1478 C 0.99287 0.40231 0.97362 0.0
C1479 C 0.97752 0.38818 0.93422 0.0
N1480 N 0.98024 0.37256 0.86138 0.0
N1481 N 0.04186 0.44091 0.00872 0.0
C1482 C 0.99535 0.38689 0.89889 0.0
C1483 C 0.0266 0.4216 0.97441 0.0
N1484 N 0.04659 0.39825 0.87131 0.0
N1485 N 0.97514 0.39775 0.00979 0.0
H1486 H 0.06652 0.45456 0.01056 0.0
H1487 H 0.03018 0.44448 0.03431 0.0
H1488 H 0.95049 0.38369 0.00969 0.0
H1489 H 0.98484 0.40536 0.04036 0.0
H1490 H 0.03707 0.3821 0.84595 0.0
H1491 H 0.07116 0.40929 0.87389 0.0
H1492 H 0.95563 0.36036 0.85871 0.0
H1493 H 0.99189 0.37396 0.83262 0.0
C1494 C 0.60043 0.9938 0.44218 0.0
C1495 C 0.58994 0.9771 0.40232 0.0
C1496 C 0.61518 0.02802 0.36319 0.0
C1497 C 0.62437 0.04477 0.40307 0.0
N1498 N 0.63365 0.04332 0.47964 0.0
N1499 N 0.59525 0.97788 0.32509 0.0
C1500 C 0.61979 0.02762 0.44218 0.0
C1501 C 0.59981 0.99417 0.36287 0.0
N1502 N 0.59028 0.97781 0.48042 0.0
N1503 N 0.62084 0.04454 0.32545 0.0
H1504 H 0.58448 0.95317 0.32386 0.0
H1505 H 0.60463 0.9887 0.29558 0.0
H1506 H 0.63473 0.06924 0.32376 0.0
H1507 H 0.61088 0.03399 0.296 0.0
H1508 H 0.59246 0.98902 0.50989 0.0
H1509 H 0.57773 0.95318 0.48305 0.0
H1510 H 0.6347 0.03186 0.50741 0.0
H1511 H 0.64649 0.0679 0.48275 0.0
C1512 C 0.44347 0.57732 0.95461 0.0
C1513 C 0.46455 0.6062 0.9741 0.0
C1514 C 0.42884 0.58664 0.03721 0.0
C1515 C 0.41841 0.55481 0.02375 0.0
N1516 N 0.41578 0.52091 0.96443 0.0
N1517 N 0.46717 0.6429 0.02892 0.0
C1518 C 0.42624 0.55042 0.98109 0.0
C1519 C 0.45444 0.61239 0.01441 0.0
N1520 N 0.43208 0.57779 0.91508 0.0
N1521 N 0.41244 0.59245 0.06819 0.0
H1522 H 0.48075 0.66252 0.00928 0.0
H1523 H 0.46336 0.64872 0.05979 0.0
H1524 H 0.3919 0.57453 0.08251 0.0
H1525 H 0.41717 0.61514 0.07669 0.0
H1526 H 0.41258 0.55767 0.90198 0.0
H1527 H 0.43934 0.59937 0.89944 0.0
H1528 H 0.4184 0.51759 0.93195 0.0
H1529 H 0.40677 0.50051 0.98339 0.0
C1530 C 0.91521 0.44301 0.51751 0.0
C1531 C 0.88698 0.41535 0.53047 0.0
C1532 C 0.85579 0.43744 0.49943 0.0
C1533 C 0.88427 0.46617 0.49029 0.0
N1534 N 0.94114 0.49804 0.49693 0.0
N1535 N 0.83018 0.38799 0.53959 0.0
C1536 C 0.91386 0.46955 0.5018 0.0
C1537 C 0.85716 0.41308 0.52314 0.0
N1538 N 0.944 0.44497 0.52006 0.0
N1539 N 0.82748 0.43315 0.48468 0.0
H1540 H 0.83008 0.36938 0.55639 0.0
H1541 H 0.80829 0.38689 0.53971 0.0
H1542 H 0.82544 0.45064 0.46795 0.0
H1543 H 0.8064 0.41143 0.48591 0.0
H1544 H 0.94733 0.42662 0.53121 0.0
H1545 H 0.94733 0.42662 0.53121 0.0
H1546 H 0.9634 0.50127 0.50474 0.0
H1547 H 0.94135 0.51816 0.48503 0.0
C1548 C 0.44469 0.90989 0.99928 0.0
C1549 C 0.41842 0.88047 0.9868 0.0
C1550 C 0.44295 0.85232 0.02034 0.0
C1551 C 0.47065 0.88198 0.02866 0.0
N1552 N 0.49876 0.93939 0.02065 0.0
N1553 N 0.39348 0.82341 0.98096 0.0
C1554 C 0.47189 0.91066 0.01634 0.0
C1555 C 0.41778 0.85155 0.99611 0.0
N1556 N 0.44429 0.93757 0.99381 0.0
N1557 N 0.44041 0.82491 0.03627 0.0
H1558 H 0.37413 0.82169 0.96427 0.0
H1559 H 0.39362 0.80206 0.98199 0.0
H1560 H 0.45853 0.82436 0.05338 0.0
H1561 H 0.41946 0.80306 0.03572 0.0
H1562 H 0.46335 0.95968 1.00256 0.0
H1563 H 0.42497 0.93828 0.98078 0.0
H1564 H 0.51988 0.94237 0.0333 0.0
H1565 H 0.51988 0.94237 0.0333 0.0
C1566 C 0.55226 0.41897 0.53434 0.0
C1567 C 0.55521 0.41084 0.49105 0.0
C1568 C 0.6124 0.44978 0.49598 0.0
C1569 C 0.60698 0.45957 0.53707 0.0
N1570 N 0.58226 0.42522 0.5965 0.0
N1571 N 0.59236 0.40656 0.44368 0.0
C1572 C 0.57975 0.43722 0.55843 0.0
C1573 C 0.58665 0.42282 0.47503 0.0
N1574 N 0.5241 0.40825 0.55477 0.0
N1575 N 0.64227 0.46378 0.47918 0.0
H1576 H 0.5746 0.38526 0.43065 0.0
H1577 H 0.61499 0.41237 0.43354 0.0
H1578 H 0.66242 0.47829 0.49737 0.0
H1579 H 0.64713 0.45978 0.44787 0.0
H1580 H 0.50212 0.39644 0.53947 0.0
H1581 H 0.50212 0.39644 0.53947 0.0
H1582 H 0.60415 0.43292 0.61135 0.0
H1583 H 0.60415 0.43292 0.61135 0.0
C1584 C 0.15927 0.58234 0.97046 0.0
C1585 C 0.14279 0.55245 0.99203 0.0
C1586 C 0.14393 0.58273 0.0553 0.0
C1587 C 0.14446 0.60651 0.02936 0.0
N1588 N 0.17025 0.63668 0.96478 0.0
N1589 N 0.12495 0.5273 0.06221 0.0
C1590 C 0.15698 0.6087 0.98698 0.0
C1591 C 0.13589 0.55332 0.03649 0.0
N1592 N 0.18084 0.58697 0.93905 0.0
N1593 N 0.15923 0.59023 0.0936 0.0
H1594 H 0.11224 0.50407 0.0506 0.0
H1595 H 0.12698 0.52962 0.09554 0.0
H1596 H 0.17194 0.61363 0.1048 0.0
H1597 H 0.17194 0.61363 0.1048 0.0
H1598 H 0.19599 0.60902 0.92525 0.0
H1599 H 0.18637 0.56963 0.93025 0.0
H1600 H 0.17658 0.63849 0.93244 0.0
H1601 H 0.17731 0.65853 0.97936 0.0
C1602 C 0.58238 0.16411 0.5273 0.0
C1603 C 0.55487 0.13421 0.53515 0.0
C1604 C 0.58134 0.10705 0.50516 0.0
C1605 C 0.60751 0.13672 0.49289 0.0
N1606 N 0.6322 0.19384 0.48883 0.0
N1607 N 0.52693 0.07711 0.52745 0.0
C1608 C 0.60789 0.16541 0.50315 0.0
C1609 C 0.554 0.10578 0.52264 0.0
N1610 N 0.58429 0.19122 0.54342 0.0
N1611 N 0.58126 0.07924 0.49941 0.0
H1612 H 0.50649 0.07488 0.54136 0.0
H1613 H 0.5253 0.05569 0.51805 0.0
H1614 H 0.60018 0.07771 0.4864 0.0
H1615 H 0.60018 0.07771 0.4864 0.0
H1616 H 0.60496 0.21331 0.54309 0.0
H1617 H 0.56587 0.19129 0.56044 0.0
H1618 H 0.63193 0.2151 0.49039 0.0
H1619 H 0.65187 0.19596 0.47249 0.0
C1620 C 0.5683 0.41431 0.01095 0.0
C1621 C 0.54009 0.41505 0.01951 0.0
C1622 C 0.56458 0.46926 0.99185 0.0
C1623 C 0.59206 0.46798 0.9804 0.0
N1624 N 0.61807 0.43712 0.97205 0.0
N1625 N 0.50944 0.44126 0.01136 0.0
C1626 C 0.5933 0.43979 0.98778 0.0
C1627 C 0.53752 0.44167 0.00718 0.0
N1628 N 0.57157 0.38964 0.02587 0.0
N1629 N 0.56338 0.49656 0.98861 0.0
H1630 H 0.489 0.4216 0.02312 0.0
H1631 H 0.50682 0.46058 1.00274 0.0
H1632 H 0.5822 0.51814 0.97786 0.0
H1633 H 0.5822 0.51814 0.97786 0.0
H1634 H 0.59297 0.3897 0.02544 0.0
H1635 H 0.55349 0.37002 0.04176 0.0
H1636 H 0.61846 0.41589 0.97201 0.0
H1637 H 0.63712 0.45538 0.95555 0.0
C1638 C 0.1682 0.60902 0.52671 0.0
C1639 C 0.15497 0.60422 0.48444 0.0
C1640 C 0.14615 0.5509 0.48355 0.0
C1641 C 0.15294 0.55242 0.52851 0.0
N1642 N 0.19184 0.58957 0.57863 0.0
N1643 N 0.17125 0.58532 0.42464 0.0
C1644 C 0.17014 0.58349 0.54685 0.0
C1645 C 0.15445 0.57926 0.46154 0.0
N1646 N 0.1823 0.63845 0.54521 0.0
N1647 N 0.13538 0.52363 0.46047 0.0
H1648 H 0.18452 0.60834 0.41232 0.0
H1649 H 0.18452 0.60834 0.41232 0.0
H1650 H 0.12201 0.50105 0.47389 0.0
H1651 H 0.13838 0.52436 0.42725 0.0
H1652 H 0.18985 0.64264 0.57712 0.0
H1653 H 0.1884 0.65907 0.52784 0.0
H1654 H 0.2074 0.61227 0.59029 0.0
H1655 H 0.19691 0.57245 0.58999 0.0
C1656 C 0.57064 0.10841 0.01327 0.0
C1657 C 0.59711 0.13771 0.02607 0.0
C1658 C 0.57279 0.16621 0.99283 0.0
C1659 C 0.5452 0.13665 0.98366 0.0
N1660 N 0.51634 0.07948 0.99025 0.0
N1661 N 0.62188 0.19469 0.03317 0.0
C1662 C 0.5436 0.10785 0.99593 0.0
C1663 C 0.59775 0.16671 0.01733 0.0
N1664 N 0.57024 0.08033 0.01758 0.0
N1665 N 0.57546 0.19377 0.97731 0.0
H1666 H 0.64099 0.19621 0.05027 0.0
H1667 H 0.62176 0.21605 0.0324 0.0
H1668 H 0.55746 0.19447 0.96011 0.0
H1669 H 0.5964 0.21562 0.9784 0.0
H1670 H 0.58901 0.07831 0.03008 0.0
H1671 H 0.58901 0.07831 0.03008 0.0
H1672 H 0.51424 0.05779 0.9992 0.0
H1673 H 0.49622 0.07782 0.97615 0.0
C1674 C 0.4538 0.60385 0.52433 0.0
C1675 C 0.48217 0.60341 0.53292 0.0
C1676 C 0.45687 0.54808 0.5093 0.0
C1677 C 0.42972 0.54933 0.49624 0.0
N1678 N 0.40368 0.58 0.48615 0.0
N1679 N 0.5114 0.57515 0.52725 0.0
C1680 C 0.42854 0.5777 0.5023 0.0
C1681 C 0.48401 0.5759 0.52316 0.0
N1682 N 0.45072 0.62893 0.53796 0.0
N1683 N 0.45803 0.52069 0.50808 0.0
H1684 H 0.53278 0.59456 0.53726 0.0
H1685 H 0.53278 0.59456 0.53726 0.0
H1686 H 0.43914 0.49883 0.49827 0.0
H1687 H 0.43914 0.49883 0.49827 0.0
H1688 H 0.42937 0.62894 0.53717 0.0
H1689 H 0.46887 0.64878 0.55343 0.0
H1690 H 0.40337 0.60126 0.48491 0.0
H1691 H 0.38434 0.56121 0.4708 0.0
C1692 C 0.85475 0.4111 0.022 0.0
C1693 C 0.86846 0.41521 0.98001 0.0
C1694 C 0.87864 0.46938 0.97843 0.0
C1695 C 0.87076 0.46793 0.02295 0.0
N1696 N 0.83328 0.43198 0.07538 0.0
N1697 N 0.85844 0.43562 0.91619 0.0
C1698 C 0.85356 0.43714 0.04189 0.0
C1699 C 0.87099 0.44088 0.95637 0.0
N1700 N 0.83988 0.38178 0.04083 0.0
N1701 N 0.89211 0.49732 0.95631 0.0
H1702 H 0.84702 0.41281 0.90293 0.0
H1703 H 0.85522 0.45257 0.89987 0.0
H1704 H 0.90265 0.51951 0.97116 0.0
H1705 H 0.8946 0.49815 0.92303 0.0
H1706 H 0.83327 0.37802 0.07314 0.0
H1707 H 0.83236 0.36088 0.02334 0.0
H1708 H 0.81799 0.40966 0.08829 0.0
H1709 H 0.8291 0.44952 0.08757 0.0
C1710 C 0.4759 0.90858 0.49535 0.0
C1711 C 0.47514 0.88027 0.48212 0.0
C1712 C 0.42226 0.84885 0.51458 0.0
C1713 C 0.4223 0.87741 0.52441 0.0
N1714 N 0.44768 0.93456 0.51919 0.0
N1715 N 0.44585 0.82319 0.47406 0.0
C1716 C 0.44846 0.90716 0.51276 0.0
C1717 C 0.44777 0.85028 0.49028 0.0
N1718 N 0.50247 0.93759 0.49134 0.0
N1719 N 0.39818 0.82041 0.52925 0.0
H1720 H 0.46429 0.82308 0.45716 0.0
H1721 H 0.42515 0.80112 0.47435 0.0
H1722 H 0.37868 0.81829 0.54607 0.0
H1723 H 0.39864 0.79924 0.52777 0.0
H1724 H 0.52372 0.94108 0.47838 0.0
H1725 H 0.52372 0.94108 0.47838 0.0
H1726 H 0.4666 0.95692 0.51104 0.0
H1727 H 0.4282 0.9348 0.53254 0.0
loop_
_geom_bond_atom_site_label_1
_geom_bond_atom_site_label_2
_geom_bond_distance
_geom_bond_site_symmetry_2
_ccdc_geom_bond_type
Mn0 O5 2.095 . S
Mn0 O15 2.162 . S
Mn0 O16 2.297 . S
Mn0 O24 2.385 . S
Mn0 O25 2.209 . S
Mn0 O26 2.094 . S
Mn1 O6 2.121 . S
Mn1 N8 2.257 . S
Mn1 N17 2.282 . S
Mn1 O25 2.215 . S
Mn1 O27 2.117 . S
C2 O24 1.234 . S
C2 O25 1.283 . S
C3 O15 1.281 . S
C3 O16 1.236 . S
C4 O26 1.240 . S
C4 O27 1.264 . S
O5 Mn0 2.095 . S
O5 C14 1.250 . S
O6 Mn1 2.121 . S
O6 C14 1.258 . S
C7 N8 1.326 . S
C7 C11 1.460 . S
C7 H13 0.929 . S
N8 Mn1 2.257 . S
N8 C7 1.326 . S
N8 C12 1.362 . S
C9 C10 1.258 . S
C9 C12 1.431 . S
C9 C29 1.449 . S
C10 C9 1.258 . S
C10 C11 1.477 . S
C10 H30 0.931 . S
C11 C7 1.460 . S
C11 C10 1.477 . S
C11 H31 0.930 . S
C12 N8 1.362 . S
C12 C9 1.431 . S
C12 C22 1.476 . S
H13 C7 0.929 . S
C14 O5 1.250 . S
C14 O6 1.258 . S
O15 Mn0 2.162 . S
O15 C3 1.281 . S
O16 Mn0 2.297 . S
O16 C3 1.236 . S
N17 Mn1 2.282 . S
N17 C18 1.328 . S
N17 C22 1.318 . S
C18 N17 1.328 . S
C18 C19 1.457 . S
C18 H23 0.929 . S
C19 C18 1.457 . S
C19 C20 1.291 . S
C19 H32 0.931 1_554 S
C20 C19 1.291 . S
C20 C21 1.373 . S
C20 H33 0.929 . S
C21 C20 1.373 . S
C21 C22 1.396 . S
C21 C28 1.403 . S
C22 C12 1.476 . S
C22 N17 1.318 . S
C22 C21 1.396 . S
H23 C18 0.929 . S
O24 Mn0 2.385 . S
O24 C2 1.234 . S
O25 Mn0 2.209 . S
O25 Mn1 2.215 . S
O25 C2 1.283 . S
O26 Mn0 2.094 . S
O26 C4 1.240 . S
O27 Mn1 2.117 . S
O27 C4 1.264 . S
C28 C21 1.403 . S
C28 C29 1.399 . S
C28 H34 0.929 . S
C29 C9 1.449 . S
C29 C28 1.399 . S
C29 H35 0.930 . S
H30 C10 0.931 . S
H31 C11 0.930 . S
H32 C19 0.931 1_556 S
H33 C20 0.929 . S
H34 C28 0.929 . S
H35 C29 0.930 . S
Mn36 O41 2.095 . S
Mn36 O51 2.162 . S
Mn36 O52 2.297 . S
Mn36 O60 2.385 . S
Mn36 O61 2.209 . S
Mn36 O62 2.094 . S
Mn37 O42 2.121 . S
Mn37 N44 2.257 . S
Mn37 N53 2.282 . S
Mn37 O61 2.215 . S
Mn37 O63 2.117 . S
C38 O60 1.234 . S
C38 O61 1.283 . S
C39 O51 1.281 . S
C39 O52 1.236 . S
C40 O62 1.240 . S
C40 O63 1.264 . S
O41 Mn36 2.095 . S
O41 C50 1.250 . S
O42 Mn37 2.121 . S
O42 C50 1.258 . S
C43 N44 1.326 . S
C43 C47 1.460 . S
C43 H49 0.929 . S
N44 Mn37 2.257 . S
N44 C43 1.326 . S
N44 C48 1.362 . S
C45 C46 1.258 . S
C45 C48 1.431 . S
C45 C65 1.449 . S
C46 C45 1.258 . S
C46 C47 1.477 . S
C46 H66 0.931 . S
C47 C43 1.460 . S
C47 C46 1.477 . S
C47 H67 0.930 . S
C48 N44 1.362 . S
C48 C45 1.431 . S
C48 C58 1.476 . S
H49 C43 0.929 . S
C50 O41 1.250 . S
C50 O42 1.258 . S
O51 Mn36 2.162 . S
O51 C39 1.281 . S
O52 Mn36 2.297 . S
O52 C39 1.236 . S
N53 Mn37 2.282 . S
N53 C54 1.328 . S
N53 C58 1.318 . S
C54 N53 1.328 . S
C54 C55 1.457 . S
C54 H59 0.929 . S
C55 C54 1.457 . S
C55 C56 1.291 . S
C55 H68 0.931 . S
C56 C55 1.291 . S
C56 C57 1.373 . S
C56 H69 0.929 . S
C57 C56 1.373 . S
C57 C58 1.396 . S
C57 C64 1.403 . S
C58 C48 1.476 . S
C58 N53 1.318 . S
C58 C57 1.396 . S
H59 C54 0.929 . S
O60 Mn36 2.385 . S
O60 C38 1.234 . S
O61 Mn36 2.209 . S
O61 Mn37 2.215 . S
O61 C38 1.283 . S
O62 Mn36 2.094 . S
O62 C40 1.240 . S
O63 Mn37 2.117 . S
O63 C40 1.264 . S
C64 C57 1.403 . S
C64 C65 1.399 . S
C64 H70 0.929 . S
C65 C45 1.449 . S
C65 C64 1.399 . S
C65 H71 0.930 . S
H66 C46 0.931 . S
H67 C47 0.930 . S
H68 C55 0.931 . S
H69 C56 0.929 . S
H70 C64 0.929 . S
H71 C65 0.930 . S
Mn72 O77 2.095 . S
Mn72 O87 2.162 . S
Mn72 O88 2.297 . S
Mn72 O96 2.385 . S
Mn72 O97 2.209 . S
Mn72 O98 2.094 . S
Mn73 O78 2.121 . S
Mn73 N80 2.257 . S
Mn73 N89 2.282 . S
Mn73 O97 2.215 . S
Mn73 O99 2.117 . S
C74 O96 1.234 . S
C74 O97 1.283 . S
C75 O87 1.281 . S
C75 O88 1.236 . S
C76 O98 1.240 . S
C76 O99 1.264 . S
O77 Mn72 2.095 . S
O77 C86 1.250 . S
O78 Mn73 2.121 . S
O78 C86 1.258 . S
C79 N80 1.326 . S
C79 C83 1.460 . S
C79 H85 0.929 . S
N80 Mn73 2.257 . S
N80 C79 1.326 . S
N80 C84 1.362 . S
C81 C82 1.258 . S
C81 C84 1.431 . S
C81 C101 1.449 . S
C82 C81 1.258 . S
C82 C83 1.477 . S
C82 H102 0.931 . S
C83 C79 1.460 . S
C83 C82 1.477 . S
C83 H103 0.930 . S
C84 N80 1.362 . S
C84 C81 1.431 . S
C84 C94 1.476 . S
H85 C79 0.929 . S
C86 O77 1.250 . S
C86 O78 1.258 . S
O87 Mn72 2.162 . S
O87 C75 1.281 . S
O88 Mn72 2.297 . S
O88 C75 1.236 . S
N89 Mn73 2.282 . S
N89 C90 1.328 . S
N89 C94 1.318 . S
C90 N89 1.328 . S
C90 C91 1.457 . S
C90 H95 0.929 . S
C91 C90 1.457 . S
C91 C92 1.291 . S
C91 H104 0.931 1_554 S
C92 C91 1.291 . S
C92 C93 1.373 . S
C92 H105 0.929 . S
C93 C92 1.373 . S
C93 C94 1.396 . S
C93 C100 1.403 . S
C94 C84 1.476 . S
C94 N89 1.318 . S
C94 C93 1.396 . S
H95 C90 0.929 . S
O96 Mn72 2.385 . S
O96 C74 1.234 . S
O97 Mn72 2.209 . S
O97 Mn73 2.215 . S
O97 C74 1.283 . S
O98 Mn72 2.094 . S
O98 C76 1.240 . S
O99 Mn73 2.117 . S
O99 C76 1.264 . S
C100 C93 1.403 . S
C100 C101 1.399 . S
C100 H106 0.929 . S
C101 C81 1.449 . S
C101 C100 1.399 . S
C101 H107 0.930 . S
H102 C82 0.931 . S
H103 C83 0.930 . S
H104 C91 0.931 1_556 S
H105 C92 0.929 . S
H106 C100 0.929 . S
H107 C101 0.930 . S
Mn108 O113 2.095 . S
Mn108 O123 2.162 . S
Mn108 O124 2.297 . S
Mn108 O132 2.385 . S
Mn108 O133 2.209 . S
Mn108 O134 2.094 . S
Mn109 O114 2.121 . S
Mn109 N116 2.257 . S
Mn109 N125 2.282 . S
Mn109 O133 2.215 . S
Mn109 O135 2.117 . S
C110 O132 1.234 . S
C110 O133 1.283 . S
C111 O123 1.281 . S
C111 O124 1.236 . S
C112 O134 1.240 . S
C112 O135 1.264 . S
O113 Mn108 2.095 . S
O113 C122 1.250 . S
O114 Mn109 2.121 . S
O114 C122 1.258 . S
C115 N116 1.326 . S
C115 C119 1.460 . S
C115 H121 0.929 . S
N116 Mn109 2.257 . S
N116 C115 1.326 . S
N116 C120 1.362 . S
C117 C118 1.258 . S
C117 C120 1.431 . S
C117 C137 1.449 . S
C118 C117 1.258 . S
C118 C119 1.477 . S
C118 H138 0.931 . S
C119 C115 1.460 . S
C119 C118 1.477 . S
C119 H139 0.930 . S
C120 N116 1.362 . S
C120 C117 1.431 . S
C120 C130 1.476 . S
H121 C115 0.929 . S
C122 O113 1.250 . S
C122 O114 1.258 . S
O123 Mn108 2.162 . S
O123 C111 1.281 . S
O124 Mn108 2.297 . S
O124 C111 1.236 . S
N125 Mn109 2.282 . S
N125 C126 1.328 . S
N125 C130 1.318 . S
C126 N125 1.328 . S
C126 C127 1.457 . S
C126 H131 0.929 . S
C127 C126 1.457 . S
C127 C128 1.291 . S
C127 H140 0.931 . S
C128 C127 1.291 . S
C128 C129 1.373 . S
C128 H141 0.929 . S
C129 C128 1.373 . S
C129 C130 1.396 . S
C129 C136 1.403 . S
C130 C120 1.476 . S
C130 N125 1.318 . S
C130 C129 1.396 . S
H131 C126 0.929 . S
O132 Mn108 2.385 . S
O132 C110 1.234 . S
O133 Mn108 2.209 . S
O133 Mn109 2.215 . S
O133 C110 1.283 . S
O134 Mn108 2.094 . S
O134 C112 1.240 . S
O135 Mn109 2.117 . S
O135 C112 1.264 . S
C136 C129 1.403 . S
C136 C137 1.399 . S
C136 H142 0.929 . S
C137 C117 1.449 . S
C137 C136 1.399 . S
C137 H143 0.930 . S
H138 C118 0.931 . S
H139 C119 0.930 . S
H140 C127 0.931 . S
H141 C128 0.929 . S
H142 C136 0.929 . S
H143 C137 0.930 . S
Mn144 O149 2.095 . S
Mn144 O159 2.162 . S
Mn144 O160 2.297 . S
Mn144 O168 2.385 . S
Mn144 O169 2.209 . S
Mn144 O170 2.094 . S
Mn145 O150 2.121 . S
Mn145 N152 2.257 . S
Mn145 N161 2.282 . S
Mn145 O169 2.215 . S
Mn145 O171 2.117 . S
C146 O168 1.234 . S
C146 O169 1.283 . S
C147 O159 1.281 . S
C147 O160 1.236 . S
C148 O170 1.240 . S
C148 O171 1.264 . S
O149 Mn144 2.095 . S
O149 C158 1.250 . S
O150 Mn145 2.121 . S
O150 C158 1.258 . S
C151 N152 1.326 . S
C151 C155 1.460 . S
C151 H157 0.929 . S
N152 Mn145 2.257 . S
N152 C151 1.326 . S
N152 C156 1.362 . S
C153 C154 1.258 . S
C153 C156 1.431 . S
C153 C173 1.449 . S
C154 C153 1.258 . S
C154 C155 1.477 . S
C154 H174 0.931 . S
C155 C151 1.460 . S
C155 C154 1.477 . S
C155 H175 0.930 . S
C156 N152 1.362 . S
C156 C153 1.431 . S
C156 C166 1.476 . S
H157 C151 0.929 . S
C158 O149 1.250 . S
C158 O150 1.258 . S
O159 Mn144 2.162 . S
O159 C147 1.281 . S
O160 Mn144 2.297 . S
O160 C147 1.236 . S
N161 Mn145 2.282 . S
N161 C162 1.328 . S
N161 C166 1.318 . S
C162 N161 1.328 . S
C162 C163 1.457 . S
C162 H167 0.929 . S
C163 C162 1.457 . S
C163 C164 1.291 . S
C163 H176 0.931 1_554 S
C164 C163 1.291 . S
C164 C165 1.373 . S
C164 H177 0.929 . S
C165 C164 1.373 . S
C165 C166 1.396 . S
C165 C172 1.403 . S
C166 C156 1.476 . S
C166 N161 1.318 . S
C166 C165 1.396 . S
H167 C162 0.929 . S
O168 Mn144 2.385 . S
O168 C146 1.234 . S
O169 Mn144 2.209 . S
O169 Mn145 2.215 . S
O169 C146 1.283 . S
O170 Mn144 2.094 . S
O170 C148 1.240 . S
O171 Mn145 2.117 . S
O171 C148 1.264 . S
C172 C165 1.403 . S
C172 C173 1.399 . S
C172 H178 0.929 . S
C173 C153 1.449 . S
C173 C172 1.399 . S
C173 H179 0.930 . S
H174 C154 0.931 . S
H175 C155 0.930 . S
H176 C163 0.931 1_556 S
H177 C164 0.929 . S
H178 C172 0.929 . S
H179 C173 0.930 . S
Mn180 O185 2.095 . S
Mn180 O195 2.162 . S
Mn180 O196 2.297 . S
Mn180 O204 2.385 . S
Mn180 O205 2.209 . S
Mn180 O206 2.094 . S
Mn181 O186 2.121 . S
Mn181 N188 2.257 . S
Mn181 N197 2.282 . S
Mn181 O205 2.215 . S
Mn181 O207 2.117 . S
C182 O204 1.234 . S
C182 O205 1.283 . S
C183 O195 1.281 . S
C183 O196 1.236 . S
C184 O206 1.240 . S
C184 O207 1.264 . S
O185 Mn180 2.095 . S
O185 C194 1.250 . S
O186 Mn181 2.121 . S
O186 C194 1.258 . S
C187 N188 1.326 . S
C187 C191 1.460 . S
C187 H193 0.929 . S
N188 Mn181 2.257 . S
N188 C187 1.326 . S
N188 C192 1.362 . S
C189 C190 1.258 . S
C189 C192 1.431 . S
C189 C209 1.449 . S
C190 C189 1.258 . S
C190 C191 1.477 . S
C190 H210 0.931 . S
C191 C187 1.460 . S
C191 C190 1.477 . S
C191 H211 0.930 . S
C192 N188 1.362 . S
C192 C189 1.431 . S
C192 C202 1.476 . S
H193 C187 0.929 . S
C194 O185 1.250 . S
C194 O186 1.258 . S
O195 Mn180 2.162 . S
O195 C183 1.281 . S
O196 Mn180 2.297 . S
O196 C183 1.236 . S
N197 Mn181 2.282 . S
N197 C198 1.328 . S
N197 C202 1.318 . S
C198 N197 1.328 . S
C198 C199 1.457 . S
C198 H203 0.929 . S
C199 C198 1.457 . S
C199 C200 1.291 . S
C199 H212 0.931 . S
C200 C199 1.291 . S
C200 C201 1.373 . S
C200 H213 0.929 . S
C201 C200 1.373 . S
C201 C202 1.396 . S
C201 C208 1.403 . S
C202 C192 1.476 . S
C202 N197 1.318 . S
C202 C201 1.396 . S
H203 C198 0.929 . S
O204 Mn180 2.385 . S
O204 C182 1.234 . S
O205 Mn180 2.209 . S
O205 Mn181 2.215 . S
O205 C182 1.283 . S
O206 Mn180 2.094 . S
O206 C184 1.240 . S
O207 Mn181 2.117 . S
O207 C184 1.264 . S
C208 C201 1.403 . S
C208 C209 1.399 . S
C208 H214 0.929 . S
C209 C189 1.449 . S
C209 C208 1.399 . S
C209 H215 0.930 . S
H210 C190 0.931 . S
H211 C191 0.930 . S
H212 C199 0.931 . S
H213 C200 0.929 . S
H214 C208 0.929 . S
H215 C209 0.930 . S
Mn216 O221 2.095 . S
Mn216 O231 2.162 . S
Mn216 O232 2.297 . S
Mn216 O240 2.385 . S
Mn216 O241 2.209 . S
Mn216 O242 2.094 . S
Mn217 O222 2.121 . S
Mn217 N224 2.257 . S
Mn217 N233 2.282 . S
Mn217 O241 2.215 . S
Mn217 O243 2.117 . S
C218 O240 1.234 . S
C218 O241 1.283 . S
C219 O231 1.281 . S
C219 O232 1.236 . S
C220 O242 1.240 . S
C220 O243 1.264 . S
O221 Mn216 2.095 . S
O221 C230 1.250 . S
O222 Mn217 2.121 . S
O222 C230 1.258 . S
C223 N224 1.326 . S
C223 C227 1.460 . S
C223 H229 0.929 . S
N224 Mn217 2.257 . S
N224 C223 1.326 . S
N224 C228 1.362 . S
C225 C226 1.258 . S
C225 C228 1.431 . S
C225 C245 1.449 . S
C226 C225 1.258 . S
C226 C227 1.477 . S
C226 H246 0.931 . S
C227 C223 1.460 . S
C227 C226 1.477 . S
C227 H247 0.930 . S
C228 N224 1.362 . S
C228 C225 1.431 . S
C228 C238 1.476 . S
H229 C223 0.929 . S
C230 O221 1.250 . S
C230 O222 1.258 . S
O231 Mn216 2.162 . S
O231 C219 1.281 . S
O232 Mn216 2.297 . S
O232 C219 1.236 . S
N233 Mn217 2.282 . S
N233 C234 1.328 . S
N233 C238 1.318 . S
C234 N233 1.328 . S
C234 C235 1.457 . S
C234 H239 0.929 . S
C235 C234 1.457 . S
C235 C236 1.291 . S
C235 H248 0.931 1_556 S
C236 C235 1.291 . S
C236 C237 1.373 . S
C236 H249 0.929 . S
C237 C236 1.373 . S
C237 C238 1.396 . S
C237 C244 1.403 . S
C238 C228 1.476 . S
C238 N233 1.318 . S
C238 C237 1.396 . S
H239 C234 0.929 . S
O240 Mn216 2.385 . S
O240 C218 1.234 . S
O241 Mn216 2.209 . S
O241 Mn217 2.215 . S
O241 C218 1.283 . S
O242 Mn216 2.094 . S
O242 C220 1.240 . S
O243 Mn217 2.117 . S
O243 C220 1.264 . S
C244 C237 1.403 . S
C244 C245 1.399 . S
C244 H250 0.929 . S
C245 C225 1.449 . S
C245 C244 1.399 . S
C245 H251 0.930 . S
H246 C226 0.931 . S
H247 C227 0.930 . S
H248 C235 0.931 1_554 S
H249 C236 0.929 . S
H250 C244 0.929 . S
H251 C245 0.930 . S
Mn252 O257 2.095 . S
Mn252 O267 2.162 . S
Mn252 O268 2.297 . S
Mn252 O276 2.385 . S
Mn252 O277 2.209 . S
Mn252 O278 2.094 . S
Mn253 O258 2.121 . S
Mn253 N260 2.257 . S
Mn253 N269 2.282 . S
Mn253 O277 2.215 . S
Mn253 O279 2.117 . S
C254 O276 1.234 . S
C254 O277 1.283 . S
C255 O267 1.281 . S
C255 O268 1.236 . S
C256 O278 1.240 . S
C256 O279 1.264 . S
O257 Mn252 2.095 . S
O257 C266 1.250 . S
O258 Mn253 2.121 . S
O258 C266 1.258 . S
C259 N260 1.326 . S
C259 C263 1.460 . S
C259 H265 0.929 . S
N260 Mn253 2.257 . S
N260 C259 1.326 . S
N260 C264 1.362 . S
C261 C262 1.258 . S
C261 C264 1.431 . S
C261 C281 1.449 . S
C262 C261 1.258 . S
C262 C263 1.477 . S
C262 H282 0.931 . S
C263 C259 1.460 . S
C263 C262 1.477 . S
C263 H283 0.930 . S
C264 N260 1.362 . S
C264 C261 1.431 . S
C264 C274 1.476 . S
H265 C259 0.929 . S
C266 O257 1.250 . S
C266 O258 1.258 . S
O267 Mn252 2.162 . S
O267 C255 1.281 . S
O268 Mn252 2.297 . S
O268 C255 1.236 . S
N269 Mn253 2.282 . S
N269 C270 1.328 . S
N269 C274 1.318 . S
C270 N269 1.328 . S
C270 C271 1.457 . S
C270 H275 0.929 . S
C271 C270 1.457 . S
C271 C272 1.291 . S
C271 H284 0.931 . S
C272 C271 1.291 . S
C272 C273 1.373 . S
C272 H285 0.929 . S
C273 C272 1.373 . S
C273 C274 1.396 . S
C273 C280 1.403 . S
C274 C264 1.476 . S
C274 N269 1.318 . S
C274 C273 1.396 . S
H275 C270 0.929 . S
O276 Mn252 2.385 . S
O276 C254 1.234 . S
O277 Mn252 2.209 . S
O277 Mn253 2.215 . S
O277 C254 1.283 . S
O278 Mn252 2.094 . S
O278 C256 1.240 . S
O279 Mn253 2.117 . S
O279 C256 1.264 . S
C280 C273 1.403 . S
C280 C281 1.399 . S
C280 H286 0.929 . S
C281 C261 1.449 . S
C281 C280 1.399 . S
C281 H287 0.930 . S
H282 C262 0.931 . S
H283 C263 0.930 . S
H284 C271 0.931 . S
H285 C272 0.929 . S
H286 C280 0.929 . S
H287 C281 0.930 . S
Mn288 O293 2.095 . S
Mn288 O303 2.162 . S
Mn288 O304 2.297 . S
Mn288 O312 2.385 . S
Mn288 O313 2.209 . S
Mn288 O314 2.094 . S
Mn289 O294 2.121 . S
Mn289 N296 2.257 . S
Mn289 N305 2.282 . S
Mn289 O313 2.215 . S
Mn289 O315 2.117 . S
C290 O312 1.234 . S
C290 O313 1.283 . S
C291 O303 1.281 . S
C291 O304 1.236 . S
C292 O314 1.240 . S
C292 O315 1.264 . S
O293 Mn288 2.095 . S
O293 C302 1.250 . S
O294 Mn289 2.121 . S
O294 C302 1.258 . S
C295 N296 1.326 . S
C295 C299 1.460 . S
C295 H301 0.929 . S
N296 Mn289 2.257 . S
N296 C295 1.326 . S
N296 C300 1.362 . S
C297 C298 1.258 . S
C297 C300 1.431 . S
C297 C317 1.449 . S
C298 C297 1.258 . S
C298 C299 1.477 . S
C298 H318 0.931 . S
C299 C295 1.460 . S
C299 C298 1.477 . S
C299 H319 0.930 . S
C300 N296 1.362 . S
C300 C297 1.431 . S
C300 C310 1.476 . S
H301 C295 0.929 . S
C302 O293 1.250 . S
C302 O294 1.258 . S
O303 Mn288 2.162 . S
O303 C291 1.281 . S
O304 Mn288 2.297 . S
O304 C291 1.236 . S
N305 Mn289 2.282 . S
N305 C306 1.328 . S
N305 C310 1.318 . S
C306 N305 1.328 . S
C306 C307 1.457 . S
C306 H311 0.929 . S
C307 C306 1.457 . S
C307 C308 1.291 . S
C307 H320 0.931 1_556 S
C308 C307 1.291 . S
C308 C309 1.373 . S
C308 H321 0.929 . S
C309 C308 1.373 . S
C309 C310 1.396 . S
C309 C316 1.403 . S
C310 C300 1.476 . S
C310 N305 1.318 . S
C310 C309 1.396 . S
H311 C306 0.929 . S
O312 Mn288 2.385 . S
O312 C290 1.234 . S
O313 Mn288 2.209 . S
O313 Mn289 2.215 . S
O313 C290 1.283 . S
O314 Mn288 2.094 . S
O314 C292 1.240 . S
O315 Mn289 2.117 . S
O315 C292 1.264 . S
C316 C309 1.403 . S
C316 C317 1.399 . S
C316 H322 0.929 . S
C317 C297 1.449 . S
C317 C316 1.399 . S
C317 H323 0.930 . S
H318 C298 0.931 . S
H319 C299 0.930 . S
H320 C307 0.931 1_554 S
H321 C308 0.929 . S
H322 C316 0.929 . S
H323 C317 0.930 . S
Mn324 O329 2.095 . S
Mn324 O339 2.162 . S
Mn324 O340 2.297 . S
Mn324 O348 2.385 . S
Mn324 O349 2.209 . S
Mn324 O350 2.094 . S
Mn325 O330 2.121 . S
Mn325 N332 2.257 . S
Mn325 N341 2.282 . S
Mn325 O349 2.215 . S
Mn325 O351 2.117 . S
C326 O348 1.234 . S
C326 O349 1.283 . S
C327 O339 1.281 . S
C327 O340 1.236 . S
C328 O350 1.240 . S
C328 O351 1.264 . S
O329 Mn324 2.095 . S
O329 C338 1.250 . S
O330 Mn325 2.121 . S
O330 C338 1.258 . S
C331 N332 1.326 . S
C331 C335 1.460 . S
C331 H337 0.929 . S
N332 Mn325 2.257 . S
N332 C331 1.326 . S
N332 C336 1.362 . S
C333 C334 1.258 . S
C333 C336 1.431 . S
C333 C353 1.449 . S
C334 C333 1.258 . S
C334 C335 1.477 . S
C334 H354 0.931 . S
C335 C331 1.460 . S
C335 C334 1.477 . S
C335 H355 0.930 . S
C336 N332 1.362 . S
C336 C333 1.431 . S
C336 C346 1.476 . S
H337 C331 0.929 . S
C338 O329 1.250 . S
C338 O330 1.258 . S
O339 Mn324 2.162 . S
O339 C327 1.281 . S
O340 Mn324 2.297 . S
O340 C327 1.236 . S
N341 Mn325 2.282 . S
N341 C342 1.328 . S
N341 C346 1.318 . S
C342 N341 1.328 . S
C342 C343 1.457 . S
C342 H347 0.929 . S
C343 C342 1.457 . S
C343 C344 1.291 . S
C343 H356 0.931 . S
C344 C343 1.291 . S
C344 C345 1.373 . S
C344 H357 0.929 . S
C345 C344 1.373 . S
C345 C346 1.396 . S
C345 C352 1.403 . S
C346 C336 1.476 . S
C346 N341 1.318 . S
C346 C345 1.396 . S
H347 C342 0.929 . S
O348 Mn324 2.385 . S
O348 C326 1.234 . S
O349 Mn324 2.209 . S
O349 Mn325 2.215 . S
O349 C326 1.283 . S
O350 Mn324 2.094 . S
O350 C328 1.240 . S
O351 Mn325 2.117 . S
O351 C328 1.264 . S
C352 C345 1.403 . S
C352 C353 1.399 . S
C352 H358 0.929 . S
C353 C333 1.449 . S
C353 C352 1.399 . S
C353 H359 0.930 . S
H354 C334 0.931 . S
H355 C335 0.930 . S
H356 C343 0.931 . S
H357 C344 0.929 . S
H358 C352 0.929 . S
H359 C353 0.930 . S
Mn360 O365 2.095 . S
Mn360 O375 2.162 . S
Mn360 O376 2.297 . S
Mn360 O384 2.385 . S
Mn360 O385 2.209 . S
Mn360 O386 2.094 . S
Mn361 O366 2.121 . S
Mn361 N368 2.257 . S
Mn361 N377 2.282 . S
Mn361 O385 2.215 . S
Mn361 O387 2.117 . S
C362 O384 1.234 . S
C362 O385 1.283 . S
C363 O375 1.281 . S
C363 O376 1.236 . S
C364 O386 1.240 . S
C364 O387 1.264 . S
O365 Mn360 2.095 . S
O365 C374 1.250 . S
O366 Mn361 2.121 . S
O366 C374 1.258 . S
C367 N368 1.326 . S
C367 C371 1.460 . S
C367 H373 0.929 . S
N368 Mn361 2.257 . S
N368 C367 1.326 . S
N368 C372 1.362 . S
C369 C370 1.258 . S
C369 C372 1.431 . S
C369 C389 1.449 . S
C370 C369 1.258 . S
C370 C371 1.477 . S
C370 H390 0.931 . S
C371 C367 1.460 . S
C371 C370 1.477 . S
C371 H391 0.930 . S
C372 N368 1.362 . S
C372 C369 1.431 . S
C372 C382 1.476 . S
H373 C367 0.929 . S
C374 O365 1.250 . S
C374 O366 1.258 . S
O375 Mn360 2.162 . S
O375 C363 1.281 . S
O376 Mn360 2.297 . S
O376 C363 1.236 . S
N377 Mn361 2.282 . S
N377 C378 1.328 . S
N377 C382 1.318 . S
C378 N377 1.328 . S
C378 C379 1.457 . S
C378 H383 0.929 . S
C379 C378 1.457 . S
C379 C380 1.291 . S
C379 H392 0.931 1_556 S
C380 C379 1.291 . S
C380 C381 1.373 . S
C380 H393 0.929 . S
C381 C380 1.373 . S
C381 C382 1.396 . S
C381 C388 1.403 . S
C382 C372 1.476 . S
C382 N377 1.318 . S
C382 C381 1.396 . S
H383 C378 0.929 . S
O384 Mn360 2.385 . S
O384 C362 1.234 . S
O385 Mn360 2.209 . S
O385 Mn361 2.215 . S
O385 C362 1.283 . S
O386 Mn360 2.094 . S
O386 C364 1.240 . S
O387 Mn361 2.117 . S
O387 C364 1.264 . S
C388 C381 1.403 . S
C388 C389 1.399 . S
C388 H394 0.929 . S
C389 C369 1.449 . S
C389 C388 1.399 . S
C389 H395 0.930 . S
H390 C370 0.931 . S
H391 C371 0.930 . S
H392 C379 0.931 1_554 S
H393 C380 0.929 . S
H394 C388 0.929 . S
H395 C389 0.930 . S
Mn396 O401 2.095 . S
Mn396 O411 2.162 . S
Mn396 O412 2.297 . S
Mn396 O420 2.385 . S
Mn396 O421 2.209 . S
Mn396 O422 2.094 . S
Mn397 O402 2.121 . S
Mn397 N404 2.257 . S
Mn397 N413 2.282 . S
Mn397 O421 2.215 . S
Mn397 O423 2.117 . S
C398 O420 1.234 . S
C398 O421 1.283 . S
C399 O411 1.281 . S
C399 O412 1.236 . S
C400 O422 1.240 . S
C400 O423 1.264 . S
O401 Mn396 2.095 . S
O401 C410 1.250 . S
O402 Mn397 2.121 . S
O402 C410 1.258 . S
C403 N404 1.326 . S
C403 C407 1.460 . S
C403 H409 0.929 . S
N404 Mn397 2.257 . S
N404 C403 1.326 . S
N404 C408 1.362 . S
C405 C406 1.258 . S
C405 C408 1.431 . S
C405 C425 1.449 . S
C406 C405 1.258 . S
C406 C407 1.477 . S
C406 H426 0.931 . S
C407 C403 1.460 . S
C407 C406 1.477 . S
C407 H427 0.930 . S
C408 N404 1.362 . S
C408 C405 1.431 . S
C408 C418 1.476 . S
H409 C403 0.929 . S
C410 O401 1.250 . S
C410 O402 1.258 . S
O411 Mn396 2.162 . S
O411 C399 1.281 . S
O412 Mn396 2.297 . S
O412 C399 1.236 . S
N413 Mn397 2.282 . S
N413 C414 1.328 . S
N413 C418 1.318 . S
C414 N413 1.328 . S
C414 C415 1.457 . S
C414 H419 0.929 . S
C415 C414 1.457 . S
C415 C416 1.291 . S
C415 H428 0.931 . S
C416 C415 1.291 . S
C416 C417 1.373 . S
C416 H429 0.929 . S
C417 C416 1.373 . S
C417 C418 1.396 . S
C417 C424 1.403 . S
C418 C408 1.476 . S
C418 N413 1.318 . S
C418 C417 1.396 . S
H419 C414 0.929 . S
O420 Mn396 2.385 . S
O420 C398 1.234 . S
O421 Mn396 2.209 . S
O421 Mn397 2.215 . S
O421 C398 1.283 . S
O422 Mn396 2.094 . S
O422 C400 1.240 . S
O423 Mn397 2.117 . S
O423 C400 1.264 . S
C424 C417 1.403 . S
C424 C425 1.399 . S
C424 H430 0.929 . S
C425 C405 1.449 . S
C425 C424 1.399 . S
C425 H431 0.930 . S
H426 C406 0.931 . S
H427 C407 0.930 . S
H428 C415 0.931 . S
H429 C416 0.929 . S
H430 C424 0.929 . S
H431 C425 0.930 . S
Mn432 O437 2.095 . S
Mn432 O447 2.162 . S
Mn432 O448 2.297 . S
Mn432 O456 2.385 . S
Mn432 O457 2.209 . S
Mn432 O458 2.094 . S
Mn433 O438 2.121 . S
Mn433 N440 2.257 . S
Mn433 N449 2.282 . S
Mn433 O457 2.215 . S
Mn433 O459 2.117 . S
C434 O456 1.234 . S
C434 O457 1.283 . S
C435 O447 1.281 . S
C435 O448 1.236 . S
C436 O458 1.240 . S
C436 O459 1.264 . S
O437 Mn432 2.095 . S
O437 C446 1.250 . S
O438 Mn433 2.121 . S
O438 C446 1.258 . S
C439 N440 1.326 . S
C439 C443 1.460 . S
C439 H445 0.929 . S
N440 Mn433 2.257 . S
N440 C439 1.326 . S
N440 C444 1.362 . S
C441 C442 1.258 . S
C441 C444 1.431 . S
C441 C461 1.449 . S
C442 C441 1.258 . S
C442 C443 1.477 . S
C442 H462 0.931 . S
C443 C439 1.460 . S
C443 C442 1.477 . S
C443 H463 0.930 . S
C444 N440 1.362 . S
C444 C441 1.431 . S
C444 C454 1.476 . S
H445 C439 0.929 . S
C446 O437 1.250 . S
C446 O438 1.258 . S
O447 Mn432 2.162 . S
O447 C435 1.281 . S
O448 Mn432 2.297 . S
O448 C435 1.236 . S
N449 Mn433 2.282 . S
N449 C450 1.328 . S
N449 C454 1.318 . S
C450 N449 1.328 . S
C450 C451 1.457 . S
C450 H455 0.929 . S
C451 C450 1.457 . S
C451 C452 1.291 . S
C451 H464 0.931 1_556 S
C452 C451 1.291 . S
C452 C453 1.373 . S
C452 H465 0.929 . S
C453 C452 1.373 . S
C453 C454 1.396 . S
C453 C460 1.403 . S
C454 C444 1.476 . S
C454 N449 1.318 . S
C454 C453 1.396 . S
H455 C450 0.929 . S
O456 Mn432 2.385 . S
O456 C434 1.234 . S
O457 Mn432 2.209 . S
O457 Mn433 2.215 . S
O457 C434 1.283 . S
O458 Mn432 2.094 . S
O458 C436 1.240 . S
O459 Mn433 2.117 . S
O459 C436 1.264 . S
C460 C453 1.403 . S
C460 C461 1.399 . S
C460 H466 0.929 . S
C461 C441 1.449 . S
C461 C460 1.399 . S
C461 H467 0.930 . S
H462 C442 0.931 . S
H463 C443 0.930 . S
H464 C451 0.931 1_554 S
H465 C452 0.929 . S
H466 C460 0.929 . S
H467 C461 0.930 . S
Mn468 O473 2.095 . S
Mn468 O483 2.162 . S
Mn468 O484 2.297 . S
Mn468 O492 2.385 . S
Mn468 O493 2.209 . S
Mn468 O494 2.094 . S
Mn469 O474 2.121 . S
Mn469 N476 2.257 . S
Mn469 N485 2.282 . S
Mn469 O493 2.215 . S
Mn469 O495 2.117 . S
C470 O492 1.234 . S
C470 O493 1.283 . S
C471 O483 1.281 . S
C471 O484 1.236 . S
C472 O494 1.240 . S
C472 O495 1.264 . S
O473 Mn468 2.095 . S
O473 C482 1.250 . S
O474 Mn469 2.121 . S
O474 C482 1.258 . S
C475 N476 1.326 . S
C475 C479 1.460 . S
C475 H481 0.929 . S
N476 Mn469 2.257 . S
N476 C475 1.326 . S
N476 C480 1.362 . S
C477 C478 1.258 . S
C477 C480 1.431 . S
C477 C497 1.449 . S
C478 C477 1.258 . S
C478 C479 1.477 . S
C478 H498 0.931 . S
C479 C475 1.460 . S
C479 C478 1.477 . S
C479 H499 0.930 . S
C480 N476 1.362 . S
C480 C477 1.431 . S
C480 C490 1.476 . S
H481 C475 0.929 . S
C482 O473 1.250 . S
C482 O474 1.258 . S
O483 Mn468 2.162 . S
O483 C471 1.281 . S
O484 Mn468 2.297 . S
O484 C471 1.236 . S
N485 Mn469 2.282 . S
N485 C486 1.328 . S
N485 C490 1.318 . S
C486 N485 1.328 . S
C486 C487 1.457 . S
C486 H491 0.929 . S
C487 C486 1.457 . S
C487 C488 1.291 . S
C487 H500 0.931 . S
C488 C487 1.291 . S
C488 C489 1.373 . S
C488 H501 0.929 . S
C489 C488 1.373 . S
C489 C490 1.396 . S
C489 C496 1.403 . S
C490 C480 1.476 . S
C490 N485 1.318 . S
C490 C489 1.396 . S
H491 C486 0.929 . S
O492 Mn468 2.385 . S
O492 C470 1.234 . S
O493 Mn468 2.209 . S
O493 Mn469 2.215 . S
O493 C470 1.283 . S
O494 Mn468 2.094 . S
O494 C472 1.240 . S
O495 Mn469 2.117 . S
O495 C472 1.264 . S
C496 C489 1.403 . S
C496 C497 1.399 . S
C496 H502 0.929 . S
C497 C477 1.449 . S
C497 C496 1.399 . S
C497 H503 0.930 . S
H498 C478 0.931 . S
H499 C479 0.930 . S
H500 C487 0.931 . S
H501 C488 0.929 . S
H502 C496 0.929 . S
H503 C497 0.930 . S
Mn504 O509 2.095 . S
Mn504 O519 2.162 . S
Mn504 O520 2.297 . S
Mn504 O528 2.385 . S
Mn504 O529 2.209 . S
Mn504 O530 2.094 . S
Mn505 O510 2.121 . S
Mn505 N512 2.257 . S
Mn505 N521 2.282 . S
Mn505 O529 2.215 . S
Mn505 O531 2.117 . S
C506 O528 1.234 . S
C506 O529 1.283 . S
C507 O519 1.281 . S
C507 O520 1.236 . S
C508 O530 1.240 . S
C508 O531 1.264 . S
O509 Mn504 2.095 . S
O509 C518 1.250 . S
O510 Mn505 2.121 . S
O510 C518 1.258 . S
C511 N512 1.326 . S
C511 C515 1.460 . S
C511 H517 0.929 . S
N512 Mn505 2.257 . S
N512 C511 1.326 . S
N512 C516 1.362 . S
C513 C514 1.258 . S
C513 C516 1.431 . S
C513 C533 1.449 . S
C514 C513 1.258 . S
C514 C515 1.477 . S
C514 H534 0.931 . S
C515 C511 1.460 . S
C515 C514 1.477 . S
C515 H535 0.930 . S
C516 N512 1.362 . S
C516 C513 1.431 . S
C516 C526 1.476 . S
H517 C511 0.929 . S
C518 O509 1.250 . S
C518 O510 1.258 . S
O519 Mn504 2.162 . S
O519 C507 1.281 . S
O520 Mn504 2.297 . S
O520 C507 1.236 . S
N521 Mn505 2.282 . S
N521 C522 1.328 . S
N521 C526 1.318 . S
C522 N521 1.328 . S
C522 C523 1.457 . S
C522 H527 0.929 . S
C523 C522 1.457 . S
C523 C524 1.291 . S
C523 H536 0.931 1_556 S
C524 C523 1.291 . S
C524 C525 1.373 . S
C524 H537 0.929 . S
C525 C524 1.373 . S
C525 C526 1.396 . S
C525 C532 1.403 . S
C526 C516 1.476 . S
C526 N521 1.318 . S
C526 C525 1.396 . S
H527 C522 0.929 . S
O528 Mn504 2.385 . S
O528 C506 1.234 . S
O529 Mn504 2.209 . S
O529 Mn505 2.215 . S
O529 C506 1.283 . S
O530 Mn504 2.094 . S
O530 C508 1.240 . S
O531 Mn505 2.117 . S
O531 C508 1.264 . S
C532 C525 1.403 . S
C532 C533 1.399 . S
C532 H538 0.929 . S
C533 C513 1.449 . S
C533 C532 1.399 . S
C533 H539 0.930 . S
H534 C514 0.931 . S
H535 C515 0.930 . S
H536 C523 0.931 1_554 S
H537 C524 0.929 . S
H538 C532 0.929 . S
H539 C533 0.930 . S
Mn540 O545 2.095 . S
Mn540 O555 2.162 . S
Mn540 O556 2.297 . S
Mn540 O564 2.385 . S
Mn540 O565 2.209 . S
Mn540 O566 2.094 . S
Mn541 O546 2.121 . S
Mn541 N548 2.257 . S
Mn541 N557 2.282 . S
Mn541 O565 2.215 . S
Mn541 O567 2.117 . S
C542 O564 1.234 . S
C542 O565 1.283 . S
C543 O555 1.281 . S
C543 O556 1.236 . S
C544 O566 1.240 . S
C544 O567 1.264 . S
O545 Mn540 2.095 . S
O545 C554 1.250 . S
O546 Mn541 2.121 . S
O546 C554 1.258 . S
C547 N548 1.326 . S
C547 C551 1.460 . S
C547 H553 0.929 . S
N548 Mn541 2.257 . S
N548 C547 1.326 . S
N548 C552 1.362 . S
C549 C550 1.258 . S
C549 C552 1.431 . S
C549 C569 1.449 . S
C550 C549 1.258 . S
C550 C551 1.477 . S
C550 H570 0.931 . S
C551 C547 1.460 . S
C551 C550 1.477 . S
C551 H571 0.930 . S
C552 N548 1.362 . S
C552 C549 1.431 . S
C552 C562 1.476 . S
H553 C547 0.929 . S
C554 O545 1.250 . S
C554 O546 1.258 . S
O555 Mn540 2.162 . S
O555 C543 1.281 . S
O556 Mn540 2.297 . S
O556 C543 1.236 . S
N557 Mn541 2.282 . S
N557 C558 1.328 . S
N557 C562 1.318 . S
C558 N557 1.328 . S
C558 C559 1.457 . S
C558 H563 0.929 . S
C559 C558 1.457 . S
C559 C560 1.291 . S
C559 H572 0.931 . S
C560 C559 1.291 . S
C560 C561 1.373 . S
C560 H573 0.929 . S
C561 C560 1.373 . S
C561 C562 1.396 . S
C561 C568 1.403 . S
C562 C552 1.476 . S
C562 N557 1.318 . S
C562 C561 1.396 . S
H563 C558 0.929 . S
O564 Mn540 2.385 . S
O564 C542 1.234 . S
O565 Mn540 2.209 . S
O565 Mn541 2.215 . S
O565 C542 1.283 . S
O566 Mn540 2.094 . S
O566 C544 1.240 . S
O567 Mn541 2.117 . S
O567 C544 1.264 . S
C568 C561 1.403 . S
C568 C569 1.399 . S
C568 H574 0.929 . S
C569 C549 1.449 . S
C569 C568 1.399 . S
C569 H575 0.930 . S
H570 C550 0.931 . S
H571 C551 0.930 . S
H572 C559 0.931 . S
H573 C560 0.929 . S
H574 C568 0.929 . S
H575 C569 0.930 . S
Mn576 O581 2.095 . S
Mn576 O591 2.162 . S
Mn576 O592 2.297 . S
Mn576 O600 2.385 . S
Mn576 O601 2.209 . S
Mn576 O602 2.094 . S
Mn577 O582 2.121 . S
Mn577 N584 2.257 . S
Mn577 N593 2.282 . S
Mn577 O601 2.215 . S
Mn577 O603 2.117 . S
C578 O600 1.234 . S
C578 O601 1.283 . S
C579 O591 1.281 . S
C579 O592 1.236 . S
C580 O602 1.240 . S
C580 O603 1.264 . S
O581 Mn576 2.095 . S
O581 C590 1.250 . S
O582 Mn577 2.121 . S
O582 C590 1.258 . S
C583 N584 1.326 . S
C583 C587 1.460 . S
C583 H589 0.929 . S
N584 Mn577 2.257 . S
N584 C583 1.326 . S
N584 C588 1.362 . S
C585 C586 1.258 . S
C585 C588 1.431 . S
C585 C605 1.449 . S
C586 C585 1.258 . S
C586 C587 1.477 . S
C586 H606 0.931 . S
C587 C583 1.460 . S
C587 C586 1.477 . S
C587 H607 0.930 . S
C588 N584 1.362 . S
C588 C585 1.431 . S
C588 C598 1.476 . S
H589 C583 0.929 . S
C590 O581 1.250 . S
C590 O582 1.258 . S
O591 Mn576 2.162 . S
O591 C579 1.281 . S
O592 Mn576 2.297 . S
O592 C579 1.236 . S
N593 Mn577 2.282 . S
N593 C594 1.328 . S
N593 C598 1.318 . S
C594 N593 1.328 . S
C594 C595 1.457 . S
C594 H599 0.929 . S
C595 C594 1.457 . S
C595 C596 1.291 . S
C595 H608 0.931 1_556 S
C596 C595 1.291 . S
C596 C597 1.373 . S
C596 H609 0.929 . S
C597 C596 1.373 . S
C597 C598 1.396 . S
C597 C604 1.403 . S
C598 C588 1.476 . S
C598 N593 1.318 . S
C598 C597 1.396 . S
H599 C594 0.929 . S
O600 Mn576 2.385 . S
O600 C578 1.234 . S
O601 Mn576 2.209 . S
O601 Mn577 2.215 . S
O601 C578 1.283 . S
O602 Mn576 2.094 . S
O602 C580 1.240 . S
O603 Mn577 2.117 . S
O603 C580 1.264 . S
C604 C597 1.403 . S
C604 C605 1.399 . S
C604 H610 0.929 . S
C605 C585 1.449 . S
C605 C604 1.399 . S
C605 H611 0.930 . S
H606 C586 0.931 . S
H607 C587 0.930 . S
H608 C595 0.931 1_554 S
H609 C596 0.929 . S
H610 C604 0.929 . S
H611 C605 0.930 . S
Mn612 O617 2.095 . S
Mn612 O627 2.162 . S
Mn612 O628 2.297 . S
Mn612 O636 2.385 . S
Mn612 O637 2.209 . S
Mn612 O638 2.094 . S
Mn613 O618 2.121 . S
Mn613 N620 2.257 . S
Mn613 N629 2.282 . S
Mn613 O637 2.215 . S
Mn613 O639 2.117 . S
C614 O636 1.234 . S
C614 O637 1.283 . S
C615 O627 1.281 . S
C615 O628 1.236 . S
C616 O638 1.240 . S
C616 O639 1.264 . S
O617 Mn612 2.095 . S
O617 C626 1.250 . S
O618 Mn613 2.121 . S
O618 C626 1.258 . S
C619 N620 1.326 . S
C619 C623 1.460 . S
C619 H625 0.929 . S
N620 Mn613 2.257 . S
N620 C619 1.326 . S
N620 C624 1.362 . S
C621 C622 1.258 . S
C621 C624 1.431 . S
C621 C641 1.449 . S
C622 C621 1.258 . S
C622 C623 1.477 . S
C622 H642 0.931 . S
C623 C619 1.460 . S
C623 C622 1.477 . S
C623 H643 0.930 . S
C624 N620 1.362 . S
C624 C621 1.431 . S
C624 C634 1.476 . S
H625 C619 0.929 . S
C626 O617 1.250 . S
C626 O618 1.258 . S
O627 Mn612 2.162 . S
O627 C615 1.281 . S
O628 Mn612 2.297 . S
O628 C615 1.236 . S
N629 Mn613 2.282 . S
N629 C630 1.328 . S
N629 C634 1.318 . S
C630 N629 1.328 . S
C630 C631 1.457 . S
C630 H635 0.929 . S
C631 C630 1.457 . S
C631 C632 1.291 . S
C631 H644 0.931 . S
C632 C631 1.291 . S
C632 C633 1.373 . S
C632 H645 0.929 . S
C633 C632 1.373 . S
C633 C634 1.396 . S
C633 C640 1.403 . S
C634 C624 1.476 . S
C634 N629 1.318 . S
C634 C633 1.396 . S
H635 C630 0.929 . S
O636 Mn612 2.385 . S
O636 C614 1.234 . S
O637 Mn612 2.209 . S
O637 Mn613 2.215 . S
O637 C614 1.283 . S
O638 Mn612 2.094 . S
O638 C616 1.240 . S
O639 Mn613 2.117 . S
O639 C616 1.264 . S
C640 C633 1.403 . S
C640 C641 1.399 . S
C640 H646 0.929 . S
C641 C621 1.449 . S
C641 C640 1.399 . S
C641 H647 0.930 . S
H642 C622 0.931 . S
H643 C623 0.930 . S
H644 C631 0.931 . S
H645 C632 0.929 . S
H646 C640 0.929 . S
H647 C641 0.930 . S
Mn648 O653 2.095 . S
Mn648 O663 2.162 . S
Mn648 O664 2.297 . S
Mn648 O672 2.385 . S
Mn648 O673 2.209 . S
Mn648 O674 2.094 . S
Mn649 O654 2.121 . S
Mn649 N656 2.257 . S
Mn649 N665 2.282 . S
Mn649 O673 2.215 . S
Mn649 O675 2.117 . S
C650 O672 1.234 . S
C650 O673 1.283 . S
C651 O663 1.281 . S
C651 O664 1.236 . S
C652 O674 1.240 . S
C652 O675 1.264 . S
O653 Mn648 2.095 . S
O653 C662 1.250 . S
O654 Mn649 2.121 . S
O654 C662 1.258 . S
C655 N656 1.326 . S
C655 C659 1.460 . S
C655 H661 0.929 . S
N656 Mn649 2.257 . S
N656 C655 1.326 . S
N656 C660 1.362 . S
C657 C658 1.258 . S
C657 C660 1.431 . S
C657 C677 1.449 . S
C658 C657 1.258 . S
C658 C659 1.477 . S
C658 H678 0.931 . S
C659 C655 1.460 . S
C659 C658 1.477 . S
C659 H679 0.930 . S
C660 N656 1.362 . S
C660 C657 1.431 . S
C660 C670 1.476 . S
H661 C655 0.929 . S
C662 O653 1.250 . S
C662 O654 1.258 . S
O663 Mn648 2.162 . S
O663 C651 1.281 . S
O664 Mn648 2.297 . S
O664 C651 1.236 . S
N665 Mn649 2.282 . S
N665 C666 1.328 . S
N665 C670 1.318 . S
C666 N665 1.328 . S
C666 C667 1.457 . S
C666 H671 0.929 . S
C667 C666 1.457 . S
C667 C668 1.291 . S
C667 H680 0.931 1_554 S
C668 C667 1.291 . S
C668 C669 1.373 . S
C668 H681 0.929 . S
C669 C668 1.373 . S
C669 C670 1.396 . S
C669 C676 1.403 . S
C670 C660 1.476 . S
C670 N665 1.318 . S
C670 C669 1.396 . S
H671 C666 0.929 . S
O672 Mn648 2.385 . S
O672 C650 1.234 . S
O673 Mn648 2.209 . S
O673 Mn649 2.215 . S
O673 C650 1.283 . S
O674 Mn648 2.094 . S
O674 C652 1.240 . S
O675 Mn649 2.117 . S
O675 C652 1.264 . S
C676 C669 1.403 . S
C676 C677 1.399 . S
C676 H682 0.929 . S
C677 C657 1.449 . S
C677 C676 1.399 . S
C677 H683 0.930 . S
H678 C658 0.931 . S
H679 C659 0.930 . S
H680 C667 0.931 1_556 S
H681 C668 0.929 . S
H682 C676 0.929 . S
H683 C677 0.930 . S
Mn684 O689 2.095 . S
Mn684 O699 2.162 . S
Mn684 O700 2.297 . S
Mn684 O708 2.385 . S
Mn684 O709 2.209 . S
Mn684 O710 2.094 . S
Mn685 O690 2.121 . S
Mn685 N692 2.257 . S
Mn685 N701 2.282 . S
Mn685 O709 2.215 . S
Mn685 O711 2.117 . S
C686 O708 1.234 . S
C686 O709 1.283 . S
C687 O699 1.281 . S
C687 O700 1.236 . S
C688 O710 1.240 . S
C688 O711 1.264 . S
O689 Mn684 2.095 . S
O689 C698 1.250 . S
O690 Mn685 2.121 . S
O690 C698 1.258 . S
C691 N692 1.326 . S
C691 C695 1.460 . S
C691 H697 0.929 . S
N692 Mn685 2.257 . S
N692 C691 1.326 . S
N692 C696 1.362 . S
C693 C694 1.258 . S
C693 C696 1.431 . S
C693 C713 1.449 . S
C694 C693 1.258 . S
C694 C695 1.477 . S
C694 H714 0.931 . S
C695 C691 1.460 . S
C695 C694 1.477 . S
C695 H715 0.930 . S
C696 N692 1.362 . S
C696 C693 1.431 . S
C696 C706 1.476 . S
H697 C691 0.929 . S
C698 O689 1.250 . S
C698 O690 1.258 . S
O699 Mn684 2.162 . S
O699 C687 1.281 . S
O700 Mn684 2.297 . S
O700 C687 1.236 . S
N701 Mn685 2.282 . S
N701 C702 1.328 . S
N701 C706 1.318 . S
C702 N701 1.328 . S
C702 C703 1.457 . S
C702 H707 0.929 . S
C703 C702 1.457 . S
C703 C704 1.291 . S
C703 H716 0.931 . S
C704 C703 1.291 . S
C704 C705 1.373 . S
C704 H717 0.929 . S
C705 C704 1.373 . S
C705 C706 1.396 . S
C705 C712 1.403 . S
C706 C696 1.476 . S
C706 N701 1.318 . S
C706 C705 1.396 . S
H707 C702 0.929 . S
O708 Mn684 2.385 . S
O708 C686 1.234 . S
O709 Mn684 2.209 . S
O709 Mn685 2.215 . S
O709 C686 1.283 . S
O710 Mn684 2.094 . S
O710 C688 1.240 . S
O711 Mn685 2.117 . S
O711 C688 1.264 . S
C712 C705 1.403 . S
C712 C713 1.399 . S
C712 H718 0.929 . S
C713 C693 1.449 . S
C713 C712 1.399 . S
C713 H719 0.930 . S
H714 C694 0.931 . S
H715 C695 0.930 . S
H716 C703 0.931 . S
H717 C704 0.929 . S
H718 C712 0.929 . S
H719 C713 0.930 . S
Mn720 O725 2.095 . S
Mn720 O735 2.162 . S
Mn720 O736 2.297 . S
Mn720 O744 2.385 . S
Mn720 O745 2.209 . S
Mn720 O746 2.094 . S
Mn721 O726 2.121 . S
Mn721 N728 2.257 . S
Mn721 N737 2.282 . S
Mn721 O745 2.215 . S
Mn721 O747 2.117 . S
C722 O744 1.234 . S
C722 O745 1.283 . S
C723 O735 1.281 . S
C723 O736 1.236 . S
C724 O746 1.240 . S
C724 O747 1.264 . S
O725 Mn720 2.095 . S
O725 C734 1.250 . S
O726 Mn721 2.121 . S
O726 C734 1.258 . S
C727 N728 1.326 . S
C727 C731 1.460 . S
C727 H733 0.929 . S
N728 Mn721 2.257 . S
N728 C727 1.326 . S
N728 C732 1.362 . S
C729 C730 1.258 . S
C729 C732 1.431 . S
C729 C749 1.449 . S
C730 C729 1.258 . S
C730 C731 1.477 . S
C730 H750 0.931 . S
C731 C727 1.460 . S
C731 C730 1.477 . S
C731 H751 0.930 . S
C732 N728 1.362 . S
C732 C729 1.431 . S
C732 C742 1.476 . S
H733 C727 0.929 . S
C734 O725 1.250 . S
C734 O726 1.258 . S
O735 Mn720 2.162 . S
O735 C723 1.281 . S
O736 Mn720 2.297 . S
O736 C723 1.236 . S
N737 Mn721 2.282 . S
N737 C738 1.328 . S
N737 C742 1.318 . S
C738 N737 1.328 . S
C738 C739 1.457 . S
C738 H743 0.929 . S
C739 C738 1.457 . S
C739 C740 1.291 . S
C739 H752 0.931 1_554 S
C740 C739 1.291 . S
C740 C741 1.373 . S
C740 H753 0.929 . S
C741 C740 1.373 . S
C741 C742 1.396 . S
C741 C748 1.403 . S
C742 C732 1.476 . S
C742 N737 1.318 . S
C742 C741 1.396 . S
H743 C738 0.929 . S
O744 Mn720 2.385 . S
O744 C722 1.234 . S
O745 Mn720 2.209 . S
O745 Mn721 2.215 . S
O745 C722 1.283 . S
O746 Mn720 2.094 . S
O746 C724 1.240 . S
O747 Mn721 2.117 . S
O747 C724 1.264 . S
C748 C741 1.403 . S
C748 C749 1.399 . S
C748 H754 0.929 . S
C749 C729 1.449 . S
C749 C748 1.399 . S
C749 H755 0.930 . S
H750 C730 0.931 . S
H751 C731 0.930 . S
H752 C739 0.931 1_556 S
H753 C740 0.929 . S
H754 C748 0.929 . S
H755 C749 0.930 . S
Mn756 O761 2.095 . S
Mn756 O771 2.162 . S
Mn756 O772 2.297 . S
Mn756 O780 2.385 . S
Mn756 O781 2.209 . S
Mn756 O782 2.094 . S
Mn757 O762 2.121 . S
Mn757 N764 2.257 . S
Mn757 N773 2.282 . S
Mn757 O781 2.215 . S
Mn757 O783 2.117 . S
C758 O780 1.234 . S
C758 O781 1.283 . S
C759 O771 1.281 . S
C759 O772 1.236 . S
C760 O782 1.240 . S
C760 O783 1.264 . S
O761 Mn756 2.095 . S
O761 C770 1.250 . S
O762 Mn757 2.121 . S
O762 C770 1.258 . S
C763 N764 1.326 . S
C763 C767 1.460 . S
C763 H769 0.929 . S
N764 Mn757 2.257 . S
N764 C763 1.326 . S
N764 C768 1.362 . S
C765 C766 1.258 . S
C765 C768 1.431 . S
C765 C785 1.449 . S
C766 C765 1.258 . S
C766 C767 1.477 . S
C766 H786 0.931 . S
C767 C763 1.460 . S
C767 C766 1.477 . S
C767 H787 0.930 . S
C768 N764 1.362 . S
C768 C765 1.431 . S
C768 C778 1.476 . S
H769 C763 0.929 . S
C770 O761 1.250 . S
C770 O762 1.258 . S
O771 Mn756 2.162 . S
O771 C759 1.281 . S
O772 Mn756 2.297 . S
O772 C759 1.236 . S
N773 Mn757 2.282 . S
N773 C774 1.328 . S
N773 C778 1.318 . S
C774 N773 1.328 . S
C774 C775 1.457 . S
C774 H779 0.929 . S
C775 C774 1.457 . S
C775 C776 1.291 . S
C775 H788 0.931 . S
C776 C775 1.291 . S
C776 C777 1.373 . S
C776 H789 0.929 . S
C777 C776 1.373 . S
C777 C778 1.396 . S
C777 C784 1.403 . S
C778 C768 1.476 . S
C778 N773 1.318 . S
C778 C777 1.396 . S
H779 C774 0.929 . S
O780 Mn756 2.385 . S
O780 C758 1.234 . S
O781 Mn756 2.209 . S
O781 Mn757 2.215 . S
O781 C758 1.283 . S
O782 Mn756 2.094 . S
O782 C760 1.240 . S
O783 Mn757 2.117 . S
O783 C760 1.264 . S
C784 C777 1.403 . S
C784 C785 1.399 . S
C784 H790 0.929 . S
C785 C765 1.449 . S
C785 C784 1.399 . S
C785 H791 0.930 . S
H786 C766 0.931 . S
H787 C767 0.930 . S
H788 C775 0.931 . S
H789 C776 0.929 . S
H790 C784 0.929 . S
H791 C785 0.930 . S
Mn792 O797 2.095 . S
Mn792 O807 2.162 . S
Mn792 O808 2.297 . S
Mn792 O816 2.385 . S
Mn792 O817 2.209 . S
Mn792 O818 2.094 . S
Mn793 O798 2.121 . S
Mn793 N800 2.257 . S
Mn793 N809 2.282 . S
Mn793 O817 2.215 . S
Mn793 O819 2.117 . S
C794 O816 1.234 . S
C794 O817 1.283 . S
C795 O807 1.281 . S
C795 O808 1.236 . S
C796 O818 1.240 . S
C796 O819 1.264 . S
O797 Mn792 2.095 . S
O797 C806 1.250 . S
O798 Mn793 2.121 . S
O798 C806 1.258 . S
C799 N800 1.326 . S
C799 C803 1.460 . S
C799 H805 0.929 . S
N800 Mn793 2.257 . S
N800 C799 1.326 . S
N800 C804 1.362 . S
C801 C802 1.258 . S
C801 C804 1.431 . S
C801 C821 1.449 . S
C802 C801 1.258 . S
C802 C803 1.477 . S
C802 H822 0.931 . S
C803 C799 1.460 . S
C803 C802 1.477 . S
C803 H823 0.930 . S
C804 N800 1.362 . S
C804 C801 1.431 . S
C804 C814 1.476 . S
H805 C799 0.929 . S
C806 O797 1.250 . S
C806 O798 1.258 . S
O807 Mn792 2.162 . S
O807 C795 1.281 . S
O808 Mn792 2.297 . S
O808 C795 1.236 . S
N809 Mn793 2.282 . S
N809 C810 1.328 . S
N809 C814 1.318 . S
C810 N809 1.328 . S
C810 C811 1.457 . S
C810 H815 0.929 . S
C811 C810 1.457 . S
C811 C812 1.291 . S
C811 H824 0.931 1_554 S
C812 C811 1.291 . S
C812 C813 1.373 . S
C812 H825 0.929 . S
C813 C812 1.373 . S
C813 C814 1.396 . S
C813 C820 1.403 . S
C814 C804 1.476 . S
C814 N809 1.318 . S
C814 C813 1.396 . S
H815 C810 0.929 . S
O816 Mn792 2.385 . S
O816 C794 1.234 . S
O817 Mn792 2.209 . S
O817 Mn793 2.215 . S
O817 C794 1.283 . S
O818 Mn792 2.094 . S
O818 C796 1.240 . S
O819 Mn793 2.117 . S
O819 C796 1.264 . S
C820 C813 1.403 . S
C820 C821 1.399 . S
C820 H826 0.929 . S
C821 C801 1.449 . S
C821 C820 1.399 . S
C821 H827 0.930 . S
H822 C802 0.931 . S
H823 C803 0.930 . S
H824 C811 0.931 1_556 S
H825 C812 0.929 . S
H826 C820 0.929 . S
H827 C821 0.930 . S
Mn828 O833 2.095 . S
Mn828 O843 2.162 . S
Mn828 O844 2.297 . S
Mn828 O852 2.385 . S
Mn828 O853 2.209 . S
Mn828 O854 2.094 . S
Mn829 O834 2.121 . S
Mn829 N836 2.257 . S
Mn829 N845 2.282 . S
Mn829 O853 2.215 . S
Mn829 O855 2.117 . S
C830 O852 1.234 . S
C830 O853 1.283 . S
C831 O843 1.281 . S
C831 O844 1.236 . S
C832 O854 1.240 . S
C832 O855 1.264 . S
O833 Mn828 2.095 . S
O833 C842 1.250 . S
O834 Mn829 2.121 . S
O834 C842 1.258 . S
C835 N836 1.326 . S
C835 C839 1.460 . S
C835 H841 0.929 . S
N836 Mn829 2.257 . S
N836 C835 1.326 . S
N836 C840 1.362 . S
C837 C838 1.258 . S
C837 C840 1.431 . S
C837 C857 1.449 . S
C838 C837 1.258 . S
C838 C839 1.477 . S
C838 H858 0.931 . S
C839 C835 1.460 . S
C839 C838 1.477 . S
C839 H859 0.930 . S
C840 N836 1.362 . S
C840 C837 1.431 . S
C840 C850 1.476 . S
H841 C835 0.929 . S
C842 O833 1.250 . S
C842 O834 1.258 . S
O843 Mn828 2.162 . S
O843 C831 1.281 . S
O844 Mn828 2.297 . S
O844 C831 1.236 . S
N845 Mn829 2.282 . S
N845 C846 1.328 . S
N845 C850 1.318 . S
C846 N845 1.328 . S
C846 C847 1.457 . S
C846 H851 0.929 . S
C847 C846 1.457 . S
C847 C848 1.291 . S
C847 H860 0.931 . S
C848 C847 1.291 . S
C848 C849 1.373 . S
C848 H861 0.929 . S
C849 C848 1.373 . S
C849 C850 1.396 . S
C849 C856 1.403 . S
C850 C840 1.476 . S
C850 N845 1.318 . S
C850 C849 1.396 . S
H851 C846 0.929 . S
O852 Mn828 2.385 . S
O852 C830 1.234 . S
O853 Mn828 2.209 . S
O853 Mn829 2.215 . S
O853 C830 1.283 . S
O854 Mn828 2.094 . S
O854 C832 1.240 . S
O855 Mn829 2.117 . S
O855 C832 1.264 . S
C856 C849 1.403 . S
C856 C857 1.399 . S
C856 H862 0.929 . S
C857 C837 1.449 . S
C857 C856 1.399 . S
C857 H863 0.930 . S
H858 C838 0.931 . S
H859 C839 0.930 . S
H860 C847 0.931 . S
H861 C848 0.929 . S
H862 C856 0.929 . S
H863 C857 0.930 . S
C864 C865 1.363 . S
C864 C870 1.379 . S
C864 N872 1.356 . S
C865 C864 1.363 . S
C865 C871 1.363 . S
C866 C867 1.363 . S
C866 C871 1.379 . S
C866 N873 1.356 . S
C867 C866 1.363 . S
C867 C870 1.363 . S
N868 C870 1.356 . S
N868 H880 0.984 . S
N868 H881 0.985 . S
N869 C871 1.356 . S
N869 H874 0.984 . S
N869 H875 0.985 . S
C870 C864 1.379 . S
C870 C867 1.363 . S
C870 N868 1.356 . S
C871 C865 1.363 . S
C871 C866 1.379 . S
C871 N869 1.356 . S
N872 C864 1.356 . S
N872 H878 0.984 . S
N872 H879 0.984 . S
N873 C866 1.356 . S
N873 H876 0.984 . S
N873 H877 0.985 . S
H874 N869 0.984 . S
H875 N869 0.985 . S
H876 N873 0.984 . S
H877 N873 0.985 . S
H878 N872 0.984 . S
H879 N872 0.984 . S
H880 N868 0.984 . S
H881 N868 0.985 . S
C882 C883 1.363 . S
C882 C888 1.379 . S
C882 N890 1.356 . S
C883 C882 1.363 . S
C883 C889 1.363 . S
C884 C885 1.363 . S
C884 C889 1.379 . S
C884 N891 1.356 . S
C885 C884 1.363 . S
C885 C888 1.363 . S
N886 C888 1.356 . S
N886 H898 0.984 . S
N886 H899 0.985 . S
N887 C889 1.356 . S
N887 H892 0.984 . S
N887 H893 0.985 . S
C888 C882 1.379 . S
C888 C885 1.363 . S
C888 N886 1.356 . S
C889 C883 1.363 . S
C889 C884 1.379 . S
C889 N887 1.356 . S
N890 C882 1.356 . S
N890 H896 0.984 . S
N890 H897 0.984 . S
N891 C884 1.356 . S
N891 H894 0.984 . S
N891 H895 0.985 . S
H892 N887 0.984 . S
H893 N887 0.985 . S
H894 N891 0.984 . S
H895 N891 0.985 . S
H896 N890 0.984 . S
H897 N890 0.984 . S
H898 N886 0.984 . S
H899 N886 0.985 . S
C900 C901 1.363 . S
C900 C906 1.379 . S
C900 N908 1.356 . S
C901 C900 1.363 . S
C901 C907 1.363 . S
C902 C903 1.363 . S
C902 C907 1.379 . S
C902 N909 1.356 . S
C903 C902 1.363 . S
C903 C906 1.363 . S
N904 C906 1.356 . S
N904 H916 0.984 . S
N904 H917 0.985 . S
N905 C907 1.356 . S
N905 H910 0.984 . S
N905 H911 0.985 . S
C906 C900 1.379 . S
C906 C903 1.363 . S
C906 N904 1.356 . S
C907 C901 1.363 . S
C907 C902 1.379 . S
C907 N905 1.356 . S
N908 C900 1.356 . S
N908 H914 0.984 . S
N908 H915 0.984 . S
N909 C902 1.356 . S
N909 H912 0.984 . S
N909 H913 0.985 . S
H910 N905 0.984 . S
H911 N905 0.985 . S
H912 N909 0.984 . S
H913 N909 0.985 . S
H914 N908 0.984 . S
H915 N908 0.984 . S
H916 N904 0.984 . S
H917 N904 0.985 . S
C918 C919 1.363 . S
C918 C924 1.379 . S
C918 N926 1.356 . S
C919 C918 1.363 . S
C919 C925 1.363 . S
C920 C921 1.363 . S
C920 C925 1.379 . S
C920 N927 1.356 . S
C921 C920 1.363 . S
C921 C924 1.363 . S
N922 C924 1.356 . S
N922 H934 0.984 . S
N922 H935 0.985 . S
N923 C925 1.356 . S
N923 H928 0.984 . S
N923 H929 0.985 . S
C924 C918 1.379 . S
C924 C921 1.363 . S
C924 N922 1.356 . S
C925 C919 1.363 . S
C925 C920 1.379 . S
C925 N923 1.356 . S
N926 C918 1.356 . S
N926 H932 0.984 . S
N926 H933 0.984 . S
N927 C920 1.356 . S
N927 H930 0.984 . S
N927 H931 0.985 . S
H928 N923 0.984 . S
H929 N923 0.985 . S
H930 N927 0.984 . S
H931 N927 0.985 . S
H932 N926 0.984 . S
H933 N926 0.984 . S
H934 N922 0.984 . S
H935 N922 0.985 . S
C936 C937 1.363 . S
C936 C942 1.379 . S
C936 N944 1.356 . S
C937 C936 1.363 . S
C937 C943 1.363 . S
C938 C939 1.363 . S
C938 C943 1.379 . S
C938 N945 1.356 . S
C939 C938 1.363 . S
C939 C942 1.363 . S
N940 C942 1.356 . S
N940 H952 0.984 . S
N940 H953 0.985 . S
N941 C943 1.356 . S
N941 H946 0.984 . S
N941 H947 0.985 . S
C942 C936 1.379 . S
C942 C939 1.363 . S
C942 N940 1.356 . S
C943 C937 1.363 . S
C943 C938 1.379 . S
C943 N941 1.356 . S
N944 C936 1.356 . S
N944 H950 0.984 . S
N944 H951 0.984 . S
N945 C938 1.356 . S
N945 H948 0.984 . S
N945 H949 0.985 . S
H946 N941 0.984 . S
H947 N941 0.985 . S
H948 N945 0.984 . S
H949 N945 0.985 . S
H950 N944 0.984 . S
H951 N944 0.984 . S
H952 N940 0.984 . S
H953 N940 0.985 . S
C954 C955 1.363 . S
C954 C960 1.379 . S
C954 N962 1.356 . S
C955 C954 1.363 . S
C955 C961 1.363 . S
C956 C957 1.363 . S
C956 C961 1.379 . S
C956 N963 1.356 . S
C957 C956 1.363 . S
C957 C960 1.363 . S
N958 C960 1.356 . S
N958 H970 0.984 . S
N958 H971 0.985 . S
N959 C961 1.356 . S
N959 H964 0.984 . S
N959 H965 0.985 . S
C960 C954 1.379 . S
C960 C957 1.363 . S
C960 N958 1.356 . S
C961 C955 1.363 . S
C961 C956 1.379 . S
C961 N959 1.356 . S
N962 C954 1.356 . S
N962 H968 0.984 . S
N962 H969 0.984 . S
N963 C956 1.356 . S
N963 H966 0.984 . S
N963 H967 0.985 . S
H964 N959 0.984 . S
H965 N959 0.985 . S
H966 N963 0.984 . S
H967 N963 0.985 . S
H968 N962 0.984 . S
H969 N962 0.984 . S
H970 N958 0.984 . S
H971 N958 0.985 . S
C972 C973 1.363 . S
C972 C978 1.379 . S
C972 N980 1.356 . S
C973 C972 1.363 . S
C973 C979 1.363 . S
C974 C975 1.363 . S
C974 C979 1.379 . S
C974 N981 1.356 . S
C975 C974 1.363 . S
C975 C978 1.363 . S
N976 C978 1.356 . S
N976 H988 0.984 . S
N976 H989 0.985 . S
N977 C979 1.356 . S
N977 H982 0.984 . S
N977 H983 0.985 . S
C978 C972 1.379 . S
C978 C975 1.363 . S
C978 N976 1.356 . S
C979 C973 1.363 . S
C979 C974 1.379 . S
C979 N977 1.356 . S
N980 C972 1.356 . S
N980 H986 0.984 . S
N980 H987 0.984 . S
N981 C974 1.356 . S
N981 H984 0.984 . S
N981 H985 0.985 . S
H982 N977 0.984 . S
H983 N977 0.985 . S
H984 N981 0.984 . S
H985 N981 0.985 . S
H986 N980 0.984 . S
H987 N980 0.984 . S
H988 N976 0.984 . S
H989 N976 0.985 . S
C990 C991 1.363 . S
C990 C996 1.379 . S
C990 N998 1.356 . S
C991 C990 1.363 . S
C991 C997 1.363 . S
C992 C993 1.363 . S
C992 C997 1.379 . S
C992 N999 1.356 . S
C993 C992 1.363 . S
C993 C996 1.363 . S
N994 C996 1.356 . S
N994 H1006 0.984 . S
N994 H1007 0.985 . S
N995 C997 1.356 . S
N995 H1000 0.984 . S
N995 H1001 0.985 . S
C996 C990 1.379 . S
C996 C993 1.363 . S
C996 N994 1.356 . S
C997 C991 1.363 . S
C997 C992 1.379 . S
C997 N995 1.356 . S
N998 C990 1.356 . S
N998 H1004 0.984 . S
N998 H1005 0.984 . S
N999 C992 1.356 . S
N999 H1002 0.984 . S
N999 H1003 0.985 . S
H1000 N995 0.984 . S
H1001 N995 0.985 . S
H1002 N999 0.984 . S
H1003 N999 0.985 . S
H1004 N998 0.984 . S
H1005 N998 0.984 . S
H1006 N994 0.984 . S
H1007 N994 0.985 . S
C1008 C1009 1.363 . S
C1008 C1014 1.379 . S
C1008 N1016 1.356 . S
C1009 C1008 1.363 . S
C1009 C1015 1.363 . S
C1010 C1011 1.363 . S
C1010 C1015 1.379 . S
C1010 N1017 1.356 . S
C1011 C1010 1.363 . S
C1011 C1014 1.363 . S
N1012 C1014 1.356 . S
N1012 H1024 0.984 . S
N1012 H1025 0.985 . S
N1013 C1015 1.356 . S
N1013 H1018 0.984 . S
N1013 H1019 0.985 . S
C1014 C1008 1.379 . S
C1014 C1011 1.363 . S
C1014 N1012 1.356 . S
C1015 C1009 1.363 . S
C1015 C1010 1.379 . S
C1015 N1013 1.356 . S
N1016 C1008 1.356 . S
N1016 H1022 0.984 . S
N1016 H1023 0.984 . S
N1017 C1010 1.356 . S
N1017 H1020 0.984 . S
N1017 H1021 0.985 . S
H1018 N1013 0.984 . S
H1019 N1013 0.985 . S
H1020 N1017 0.984 . S
H1021 N1017 0.985 . S
H1022 N1016 0.984 . S
H1023 N1016 0.984 . S
H1024 N1012 0.984 . S
H1025 N1012 0.985 . S
C1026 C1027 1.363 . S
C1026 C1032 1.379 . S
C1026 N1034 1.356 . S
C1027 C1026 1.363 . S
C1027 C1033 1.363 . S
C1028 C1029 1.363 . S
C1028 C1033 1.379 . S
C1028 N1035 1.356 . S
C1029 C1028 1.363 . S
C1029 C1032 1.363 . S
N1030 C1032 1.356 . S
N1030 H1042 0.984 . S
N1030 H1043 0.985 . S
N1031 C1033 1.356 . S
N1031 H1036 0.984 . S
N1031 H1037 0.985 . S
C1032 C1026 1.379 . S
C1032 C1029 1.363 . S
C1032 N1030 1.356 . S
C1033 C1027 1.363 . S
C1033 C1028 1.379 . S
C1033 N1031 1.356 . S
N1034 C1026 1.356 . S
N1034 H1040 0.984 . S
N1034 H1041 0.984 . S
N1035 C1028 1.356 . S
N1035 H1038 0.984 . S
N1035 H1039 0.985 . S
H1036 N1031 0.984 . S
H1037 N1031 0.985 . S
H1038 N1035 0.984 . S
H1039 N1035 0.985 . S
H1040 N1034 0.984 . S
H1041 N1034 0.984 . S
H1042 N1030 0.984 . S
H1043 N1030 0.985 . S
C1044 C1045 1.363 . S
C1044 C1050 1.379 . S
C1044 N1052 1.356 . S
C1045 C1044 1.363 . S
C1045 C1051 1.363 . S
C1046 C1047 1.363 . S
C1046 C1051 1.379 . S
C1046 N1053 1.356 . S
C1047 C1046 1.363 . S
C1047 C1050 1.363 . S
N1048 C1050 1.356 . S
N1048 H1060 0.984 . S
N1048 H1061 0.985 . S
N1049 C1051 1.356 . S
N1049 H1054 0.984 . S
N1049 H1055 0.985 . S
C1050 C1044 1.379 . S
C1050 C1047 1.363 . S
C1050 N1048 1.356 . S
C1051 C1045 1.363 . S
C1051 C1046 1.379 . S
C1051 N1049 1.356 . S
N1052 C1044 1.356 . S
N1052 H1058 0.984 . S
N1052 H1059 0.984 . S
N1053 C1046 1.356 . S
N1053 H1056 0.984 . S
N1053 H1057 0.985 . S
H1054 N1049 0.984 . S
H1055 N1049 0.985 . S
H1056 N1053 0.984 . S
H1057 N1053 0.985 . S
H1058 N1052 0.984 . S
H1059 N1052 0.984 . S
H1060 N1048 0.984 . S
H1061 N1048 0.985 . S
C1062 C1063 1.363 . S
C1062 C1068 1.379 . S
C1062 N1070 1.356 . S
C1063 C1062 1.363 . S
C1063 C1069 1.363 . S
C1064 C1065 1.363 . S
C1064 C1069 1.379 . S
C1064 N1071 1.356 . S
C1065 C1064 1.363 . S
C1065 C1068 1.363 . S
N1066 C1068 1.356 . S
N1066 H1078 0.984 . S
N1066 H1079 0.985 . S
N1067 C1069 1.356 . S
N1067 H1072 0.984 . S
N1067 H1073 0.985 . S
C1068 C1062 1.379 . S
C1068 C1065 1.363 . S
C1068 N1066 1.356 . S
C1069 C1063 1.363 . S
C1069 C1064 1.379 . S
C1069 N1067 1.356 . S
N1070 C1062 1.356 . S
N1070 H1076 0.984 . S
N1070 H1077 0.984 . S
N1071 C1064 1.356 . S
N1071 H1074 0.984 . S
N1071 H1075 0.985 . S
H1072 N1067 0.984 . S
H1073 N1067 0.985 . S
H1074 N1071 0.984 . S
H1075 N1071 0.985 . S
H1076 N1070 0.984 . S
H1077 N1070 0.984 . S
H1078 N1066 0.984 . S
H1079 N1066 0.985 . S
C1080 C1081 1.363 . S
C1080 C1086 1.379 . S
C1080 N1088 1.356 . S
C1081 C1080 1.363 . S
C1081 C1087 1.363 1_556 S
C1082 C1083 1.363 . S
C1082 C1087 1.379 . S
C1082 N1089 1.356 . S
C1083 C1082 1.363 . S
C1083 C1086 1.363 1_554 S
N1084 C1086 1.356 . S
N1084 H1096 0.984 . S
N1084 H1097 0.985 1_556 S
N1085 C1087 1.356 . S
N1085 H1090 0.984 1_554 S
N1085 H1091 0.985 . S
C1086 C1080 1.379 . S
C1086 C1083 1.363 1_556 S
C1086 N1084 1.356 . S
C1087 C1081 1.363 1_554 S
C1087 C1082 1.379 . S
C1087 N1085 1.356 . S
N1088 C1080 1.356 . S
N1088 H1094 0.984 . S
N1088 H1095 0.984 . S
N1089 C1082 1.356 . S
N1089 H1092 0.984 . S
N1089 H1093 0.985 . S
H1090 N1085 0.984 1_556 S
H1091 N1085 0.985 . S
H1092 N1089 0.984 . S
H1093 N1089 0.985 . S
H1094 N1088 0.984 . S
H1095 N1088 0.984 . S
H1096 N1084 0.984 . S
H1097 N1084 0.985 1_554 S
C1098 C1099 1.363 . S
C1098 C1104 1.379 . S
C1098 N1106 1.356 . S
C1099 C1098 1.363 . S
C1099 C1105 1.363 . S
C1100 C1101 1.363 . S
C1100 C1105 1.379 . S
C1100 N1107 1.356 . S
C1101 C1100 1.363 . S
C1101 C1104 1.363 . S
N1102 C1104 1.356 . S
N1102 H1114 0.984 . S
N1102 H1115 0.985 . S
N1103 C1105 1.356 . S
N1103 H1108 0.984 . S
N1103 H1109 0.985 . S
C1104 C1098 1.379 . S
C1104 C1101 1.363 . S
C1104 N1102 1.356 . S
C1105 C1099 1.363 . S
C1105 C1100 1.379 . S
C1105 N1103 1.356 . S
N1106 C1098 1.356 . S
N1106 H1112 0.984 . S
N1106 H1113 0.984 . S
N1107 C1100 1.356 . S
N1107 H1110 0.984 . S
N1107 H1111 0.985 . S
H1108 N1103 0.984 . S
H1109 N1103 0.985 . S
H1110 N1107 0.984 . S
H1111 N1107 0.985 . S
H1112 N1106 0.984 . S
H1113 N1106 0.984 . S
H1114 N1102 0.984 . S
H1115 N1102 0.985 . S
C1116 C1117 1.363 1_556 S
C1116 C1122 1.379 . S
C1116 N1124 1.356 . S
C1117 C1116 1.363 1_554 S
C1117 C1123 1.363 . S
C1118 C1119 1.363 1_554 S
C1118 C1123 1.379 . S
C1118 N1125 1.356 . S
C1119 C1118 1.363 1_556 S
C1119 C1122 1.363 . S
N1120 C1122 1.356 . S
N1120 H1132 0.984 . S
N1120 H1133 0.985 . S
N1121 C1123 1.356 . S
N1121 H1126 0.984 . S
N1121 H1127 0.985 . S
C1122 C1116 1.379 . S
C1122 C1119 1.363 . S
C1122 N1120 1.356 . S
C1123 C1117 1.363 . S
C1123 C1118 1.379 . S
C1123 N1121 1.356 . S
N1124 C1116 1.356 . S
N1124 H1130 0.984 . S
N1124 H1131 0.984 1_556 S
N1125 C1118 1.356 . S
N1125 H1128 0.984 1_554 S
N1125 H1129 0.985 . S
H1126 N1121 0.984 . S
H1127 N1121 0.985 . S
H1128 N1125 0.984 1_556 S
H1129 N1125 0.985 . S
H1130 N1124 0.984 . S
H1131 N1124 0.984 1_554 S
H1132 N1120 0.984 . S
H1133 N1120 0.985 . S
C1134 C1135 1.363 . S
C1134 C1140 1.379 . S
C1134 N1142 1.356 . S
C1135 C1134 1.363 . S
C1135 C1141 1.363 . S
C1136 C1137 1.363 . S
C1136 C1141 1.379 . S
C1136 N1143 1.356 . S
C1137 C1136 1.363 . S
C1137 C1140 1.363 . S
N1138 C1140 1.356 . S
N1138 H1150 0.984 . S
N1138 H1151 0.985 . S
N1139 C1141 1.356 . S
N1139 H1144 0.984 . S
N1139 H1145 0.985 . S
C1140 C1134 1.379 . S
C1140 C1137 1.363 . S
C1140 N1138 1.356 . S
C1141 C1135 1.363 . S
C1141 C1136 1.379 . S
C1141 N1139 1.356 . S
N1142 C1134 1.356 . S
N1142 H1148 0.984 . S
N1142 H1149 0.984 . S
N1143 C1136 1.356 . S
N1143 H1146 0.984 . S
N1143 H1147 0.985 . S
H1144 N1139 0.984 . S
H1145 N1139 0.985 . S
H1146 N1143 0.984 . S
H1147 N1143 0.985 . S
H1148 N1142 0.984 . S
H1149 N1142 0.984 . S
H1150 N1138 0.984 . S
H1151 N1138 0.985 . S
C1152 C1153 1.363 . S
C1152 C1158 1.379 . S
C1152 N1160 1.356 . S
C1153 C1152 1.363 . S
C1153 C1159 1.363 1_556 S
C1154 C1155 1.363 . S
C1154 C1159 1.379 . S
C1154 N1161 1.356 . S
C1155 C1154 1.363 . S
C1155 C1158 1.363 1_554 S
N1156 C1158 1.356 . S
N1156 H1168 0.984 . S
N1156 H1169 0.985 . S
N1157 C1159 1.356 . S
N1157 H1162 0.984 . S
N1157 H1163 0.985 . S
C1158 C1152 1.379 . S
C1158 C1155 1.363 1_556 S
C1158 N1156 1.356 . S
C1159 C1153 1.363 1_554 S
C1159 C1154 1.379 . S
C1159 N1157 1.356 . S
N1160 C1152 1.356 . S
N1160 H1166 0.984 . S
N1160 H1167 0.984 . S
N1161 C1154 1.356 . S
N1161 H1164 0.984 . S
N1161 H1165 0.985 . S
H1162 N1157 0.984 . S
H1163 N1157 0.985 . S
H1164 N1161 0.984 . S
H1165 N1161 0.985 . S
H1166 N1160 0.984 . S
H1167 N1160 0.984 . S
H1168 N1156 0.984 . S
H1169 N1156 0.985 . S
C1170 C1171 1.363 . S
C1170 C1176 1.379 . S
C1170 N1178 1.356 . S
C1171 C1170 1.363 . S
C1171 C1177 1.363 . S
C1172 C1173 1.363 . S
C1172 C1177 1.379 . S
C1172 N1179 1.356 . S
C1173 C1172 1.363 . S
C1173 C1176 1.363 . S
N1174 C1176 1.356 . S
N1174 H1186 0.984 . S
N1174 H1187 0.985 . S
N1175 C1177 1.356 . S
N1175 H1180 0.984 . S
N1175 H1181 0.985 . S
C1176 C1170 1.379 . S
C1176 C1173 1.363 . S
C1176 N1174 1.356 . S
C1177 C1171 1.363 . S
C1177 C1172 1.379 . S
C1177 N1175 1.356 . S
N1178 C1170 1.356 . S
N1178 H1184 0.984 . S
N1178 H1185 0.984 . S
N1179 C1172 1.356 . S
N1179 H1182 0.984 . S
N1179 H1183 0.985 . S
H1180 N1175 0.984 . S
H1181 N1175 0.985 . S
H1182 N1179 0.984 . S
H1183 N1179 0.985 . S
H1184 N1178 0.984 . S
H1185 N1178 0.984 . S
H1186 N1174 0.984 . S
H1187 N1174 0.985 . S
C1188 C1189 1.363 1_556 S
C1188 C1194 1.379 . S
C1188 N1196 1.356 . S
C1189 C1188 1.363 1_554 S
C1189 C1195 1.363 . S
C1190 C1191 1.363 1_554 S
C1190 C1195 1.379 . S
C1190 N1197 1.356 . S
C1191 C1190 1.363 1_556 S
C1191 C1194 1.363 . S
N1192 C1194 1.356 . S
N1192 H1204 0.984 . S
N1192 H1205 0.985 . S
N1193 C1195 1.356 . S
N1193 H1198 0.984 . S
N1193 H1199 0.985 . S
C1194 C1188 1.379 . S
C1194 C1191 1.363 . S
C1194 N1192 1.356 . S
C1195 C1189 1.363 . S
C1195 C1190 1.379 . S
C1195 N1193 1.356 . S
N1196 C1188 1.356 . S
N1196 H1202 0.984 . S
N1196 H1203 0.984 1_556 S
N1197 C1190 1.356 . S
N1197 H1200 0.984 1_554 S
N1197 H1201 0.985 . S
H1198 N1193 0.984 . S
H1199 N1193 0.985 . S
H1200 N1197 0.984 1_556 S
H1201 N1197 0.985 . S
H1202 N1196 0.984 . S
H1203 N1196 0.984 1_554 S
H1204 N1192 0.984 . S
H1205 N1192 0.985 . S
C1206 C1207 1.363 . S
C1206 C1212 1.379 . S
C1206 N1214 1.356 . S
C1207 C1206 1.363 . S
C1207 C1213 1.363 . S
C1208 C1209 1.363 . S
C1208 C1213 1.379 . S
C1208 N1215 1.356 . S
C1209 C1208 1.363 . S
C1209 C1212 1.363 . S
N1210 C1212 1.356 . S
N1210 H1222 0.984 . S
N1210 H1223 0.985 . S
N1211 C1213 1.356 . S
N1211 H1216 0.984 . S
N1211 H1217 0.985 . S
C1212 C1206 1.379 . S
C1212 C1209 1.363 . S
C1212 N1210 1.356 . S
C1213 C1207 1.363 . S
C1213 C1208 1.379 . S
C1213 N1211 1.356 . S
N1214 C1206 1.356 . S
N1214 H1220 0.984 . S
N1214 H1221 0.984 . S
N1215 C1208 1.356 . S
N1215 H1218 0.984 . S
N1215 H1219 0.985 . S
H1216 N1211 0.984 . S
H1217 N1211 0.985 . S
H1218 N1215 0.984 . S
H1219 N1215 0.985 . S
H1220 N1214 0.984 . S
H1221 N1214 0.984 . S
H1222 N1210 0.984 . S
H1223 N1210 0.985 . S
C1224 C1225 1.363 1_554 S
C1224 C1230 1.379 . S
C1224 N1232 1.356 . S
C1225 C1224 1.363 1_556 S
C1225 C1231 1.363 . S
C1226 C1227 1.363 1_556 S
C1226 C1231 1.379 . S
C1226 N1233 1.356 . S
C1227 C1226 1.363 1_554 S
C1227 C1230 1.363 . S
N1228 C1230 1.356 . S
N1228 H1240 0.984 . S
N1228 H1241 0.985 . S
N1229 C1231 1.356 . S
N1229 H1234 0.984 . S
N1229 H1235 0.985 . S
C1230 C1224 1.379 . S
C1230 C1227 1.363 . S
C1230 N1228 1.356 . S
C1231 C1225 1.363 . S
C1231 C1226 1.379 . S
C1231 N1229 1.356 . S
N1232 C1224 1.356 . S
N1232 H1238 0.984 . S
N1232 H1239 0.984 1_554 S
N1233 C1226 1.356 . S
N1233 H1236 0.984 1_556 S
N1233 H1237 0.985 . S
H1234 N1229 0.984 . S
H1235 N1229 0.985 . S
H1236 N1233 0.984 1_554 S
H1237 N1233 0.985 . S
H1238 N1232 0.984 . S
H1239 N1232 0.984 1_556 S
H1240 N1228 0.984 . S
H1241 N1228 0.985 . S
C1242 C1243 1.363 . S
C1242 C1248 1.379 . S
C1242 N1250 1.356 . S
C1243 C1242 1.363 . S
C1243 C1249 1.363 . S
C1244 C1245 1.363 . S
C1244 C1249 1.379 . S
C1244 N1251 1.356 . S
C1245 C1244 1.363 . S
C1245 C1248 1.363 . S
N1246 C1248 1.356 . S
N1246 H1258 0.984 . S
N1246 H1259 0.985 . S
N1247 C1249 1.356 . S
N1247 H1252 0.984 . S
N1247 H1253 0.985 . S
C1248 C1242 1.379 . S
C1248 C1245 1.363 . S
C1248 N1246 1.356 . S
C1249 C1243 1.363 . S
C1249 C1244 1.379 . S
C1249 N1247 1.356 . S
N1250 C1242 1.356 . S
N1250 H1256 0.984 . S
N1250 H1257 0.984 . S
N1251 C1244 1.356 . S
N1251 H1254 0.984 . S
N1251 H1255 0.985 . S
H1252 N1247 0.984 . S
H1253 N1247 0.985 . S
H1254 N1251 0.984 . S
H1255 N1251 0.985 . S
H1256 N1250 0.984 . S
H1257 N1250 0.984 . S
H1258 N1246 0.984 . S
H1259 N1246 0.985 . S
C1260 C1261 1.363 . S
C1260 C1266 1.379 . S
C1260 N1268 1.356 . S
C1261 C1260 1.363 . S
C1261 C1267 1.363 1_556 S
C1262 C1263 1.363 . S
C1262 C1267 1.379 . S
C1262 N1269 1.356 . S
C1263 C1262 1.363 . S
C1263 C1266 1.363 1_554 S
N1264 C1266 1.356 . S
N1264 H1276 0.984 . S
N1264 H1277 0.985 . S
N1265 C1267 1.356 . S
N1265 H1270 0.984 . S
N1265 H1271 0.985 . S
C1266 C1260 1.379 . S
C1266 C1263 1.363 1_556 S
C1266 N1264 1.356 . S
C1267 C1261 1.363 1_554 S
C1267 C1262 1.379 . S
C1267 N1265 1.356 . S
N1268 C1260 1.356 . S
N1268 H1274 0.984 . S
N1268 H1275 0.984 . S
N1269 C1262 1.356 . S
N1269 H1272 0.984 . S
N1269 H1273 0.985 . S
H1270 N1265 0.984 . S
H1271 N1265 0.985 . S
H1272 N1269 0.984 . S
H1273 N1269 0.985 . S
H1274 N1268 0.984 . S
H1275 N1268 0.984 . S
H1276 N1264 0.984 . S
H1277 N1264 0.985 . S
C1278 C1279 1.363 . S
C1278 C1284 1.379 . S
C1278 N1286 1.356 . S
C1279 C1278 1.363 . S
C1279 C1285 1.363 . S
C1280 C1281 1.363 . S
C1280 C1285 1.379 . S
C1280 N1287 1.356 . S
C1281 C1280 1.363 . S
C1281 C1284 1.363 . S
N1282 C1284 1.356 . S
N1282 H1294 0.984 . S
N1282 H1295 0.985 . S
N1283 C1285 1.356 . S
N1283 H1288 0.984 . S
N1283 H1289 0.985 . S
C1284 C1278 1.379 . S
C1284 C1281 1.363 . S
C1284 N1282 1.356 . S
C1285 C1279 1.363 . S
C1285 C1280 1.379 . S
C1285 N1283 1.356 . S
N1286 C1278 1.356 . S
N1286 H1292 0.984 . S
N1286 H1293 0.984 . S
N1287 C1280 1.356 . S
N1287 H1290 0.984 . S
N1287 H1291 0.985 . S
H1288 N1283 0.984 . S
H1289 N1283 0.985 . S
H1290 N1287 0.984 . S
H1291 N1287 0.985 . S
H1292 N1286 0.984 . S
H1293 N1286 0.984 . S
H1294 N1282 0.984 . S
H1295 N1282 0.985 . S
C1296 C1297 1.363 . S
C1296 C1302 1.379 . S
C1296 N1304 1.356 . S
C1297 C1296 1.363 . S
C1297 C1303 1.363 . S
C1298 C1299 1.363 . S
C1298 C1303 1.379 . S
C1298 N1305 1.356 . S
C1299 C1298 1.363 . S
C1299 C1302 1.363 . S
N1300 C1302 1.356 . S
N1300 H1312 0.984 1_554 S
N1300 H1313 0.985 . S
N1301 C1303 1.356 . S
N1301 H1306 0.984 . S
N1301 H1307 0.985 . S
C1302 C1296 1.379 . S
C1302 C1299 1.363 . S
C1302 N1300 1.356 . S
C1303 C1297 1.363 . S
C1303 C1298 1.379 . S
C1303 N1301 1.356 . S
N1304 C1296 1.356 . S
N1304 H1310 0.984 1_554 S
N1304 H1311 0.984 . S
N1305 C1298 1.356 . S
N1305 H1308 0.984 . S
N1305 H1309 0.985 . S
H1306 N1301 0.984 . S
H1307 N1301 0.985 . S
H1308 N1305 0.984 . S
H1309 N1305 0.985 . S
H1310 N1304 0.984 1_556 S
H1311 N1304 0.984 . S
H1312 N1300 0.984 1_556 S
H1313 N1300 0.985 . S
C1314 C1315 1.363 . S
C1314 C1320 1.379 1_455 S
C1314 N1322 1.356 . S
C1315 C1314 1.363 . S
C1315 C1321 1.363 . S
C1316 C1317 1.363 . S
C1316 C1321 1.379 1_655 S
C1316 N1323 1.356 . S
C1317 C1316 1.363 . S
C1317 C1320 1.363 . S
N1318 C1320 1.356 . S
N1318 H1330 0.984 . S
N1318 H1331 0.985 . S
N1319 C1321 1.356 . S
N1319 H1324 0.984 . S
N1319 H1325 0.985 . S
C1320 C1314 1.379 1_655 S
C1320 C1317 1.363 . S
C1320 N1318 1.356 . S
C1321 C1315 1.363 . S
C1321 C1316 1.379 1_455 S
C1321 N1319 1.356 . S
N1322 C1314 1.356 . S
N1322 H1328 0.984 . S
N1322 H1329 0.984 . S
N1323 C1316 1.356 . S
N1323 H1326 0.984 . S
N1323 H1327 0.985 . S
H1324 N1319 0.984 . S
H1325 N1319 0.985 . S
H1326 N1323 0.984 . S
H1327 N1323 0.985 . S
H1328 N1322 0.984 . S
H1329 N1322 0.984 . S
H1330 N1318 0.984 . S
H1331 N1318 0.985 . S
C1332 C1333 1.363 . S
C1332 C1338 1.379 1_565 S
C1332 N1340 1.356 . S
C1333 C1332 1.363 . S
C1333 C1339 1.363 . S
C1334 C1335 1.363 . S
C1334 C1339 1.379 1_545 S
C1334 N1341 1.356 . S
C1335 C1334 1.363 . S
C1335 C1338 1.363 . S
N1336 C1338 1.356 . S
N1336 H1348 0.984 . S
N1336 H1349 0.985 . S
N1337 C1339 1.356 . S
N1337 H1342 0.984 . S
N1337 H1343 0.985 1_554 S
C1338 C1332 1.379 1_545 S
C1338 C1335 1.363 . S
C1338 N1336 1.356 . S
C1339 C1333 1.363 . S
C1339 C1334 1.379 1_565 S
C1339 N1337 1.356 . S
N1340 C1332 1.356 . S
N1340 H1346 0.984 . S
N1340 H1347 0.984 . S
N1341 C1334 1.356 . S
N1341 H1344 0.984 . S
N1341 H1345 0.985 1_554 S
H1342 N1337 0.984 . S
H1343 N1337 0.985 1_556 S
H1344 N1341 0.984 . S
H1345 N1341 0.985 1_556 S
H1346 N1340 0.984 . S
H1347 N1340 0.984 . S
H1348 N1336 0.984 . S
H1349 N1336 0.985 . S
C1350 C1351 1.363 . S
C1350 C1356 1.379 . S
C1350 N1358 1.356 . S
C1351 C1350 1.363 . S
C1351 C1357 1.363 . S
C1352 C1353 1.363 . S
C1352 C1357 1.379 . S
C1352 N1359 1.356 . S
C1353 C1352 1.363 . S
C1353 C1356 1.363 . S
N1354 C1356 1.356 . S
N1354 H1366 0.984 . S
N1354 H1367 0.985 . S
N1355 C1357 1.356 . S
N1355 H1360 0.984 . S
N1355 H1361 0.985 . S
C1356 C1350 1.379 . S
C1356 C1353 1.363 . S
C1356 N1354 1.356 . S
C1357 C1351 1.363 . S
C1357 C1352 1.379 . S
C1357 N1355 1.356 . S
N1358 C1350 1.356 . S
N1358 H1364 0.984 . S
N1358 H1365 0.984 . S
N1359 C1352 1.356 . S
N1359 H1362 0.984 . S
N1359 H1363 0.985 . S
H1360 N1355 0.984 . S
H1361 N1355 0.985 . S
H1362 N1359 0.984 . S
H1363 N1359 0.985 . S
H1364 N1358 0.984 . S
H1365 N1358 0.984 . S
H1366 N1354 0.984 . S
H1367 N1354 0.985 . S
C1368 C1369 1.363 . S
C1368 C1374 1.379 1_655 S
C1368 N1376 1.356 . S
C1369 C1368 1.363 . S
C1369 C1375 1.363 . S
C1370 C1371 1.363 . S
C1370 C1375 1.379 1_455 S
C1370 N1377 1.356 . S
C1371 C1370 1.363 . S
C1371 C1374 1.363 . S
N1372 C1374 1.356 . S
N1372 H1384 0.984 . S
N1372 H1385 0.985 . S
N1373 C1375 1.356 . S
N1373 H1378 0.984 . S
N1373 H1379 0.985 1_554 S
C1374 C1368 1.379 1_455 S
C1374 C1371 1.363 . S
C1374 N1372 1.356 . S
C1375 C1369 1.363 . S
C1375 C1370 1.379 1_655 S
C1375 N1373 1.356 . S
N1376 C1368 1.356 . S
N1376 H1382 0.984 . S
N1376 H1383 0.984 . S
N1377 C1370 1.356 . S
N1377 H1380 0.984 . S
N1377 H1381 0.985 1_554 S
H1378 N1373 0.984 . S
H1379 N1373 0.985 1_556 S
H1380 N1377 0.984 . S
H1381 N1377 0.985 1_556 S
H1382 N1376 0.984 . S
H1383 N1376 0.984 . S
H1384 N1372 0.984 . S
H1385 N1372 0.985 . S
C1386 C1387 1.363 . S
C1386 C1392 1.379 1_545 S
C1386 N1394 1.356 . S
C1387 C1386 1.363 . S
C1387 C1393 1.363 . S
C1388 C1389 1.363 . S
C1388 C1393 1.379 1_565 S
C1388 N1395 1.356 . S
C1389 C1388 1.363 . S
C1389 C1392 1.363 . S
N1390 C1392 1.356 . S
N1390 H1402 0.984 . S
N1390 H1403 0.985 . S
N1391 C1393 1.356 . S
N1391 H1396 0.984 . S
N1391 H1397 0.985 . S
C1392 C1386 1.379 1_565 S
C1392 C1389 1.363 . S
C1392 N1390 1.356 . S
C1393 C1387 1.363 . S
C1393 C1388 1.379 1_545 S
C1393 N1391 1.356 . S
N1394 C1386 1.356 . S
N1394 H1400 0.984 . S
N1394 H1401 0.984 . S
N1395 C1388 1.356 . S
N1395 H1398 0.984 . S
N1395 H1399 0.985 . S
H1396 N1391 0.984 . S
H1397 N1391 0.985 . S
H1398 N1395 0.984 . S
H1399 N1395 0.985 . S
H1400 N1394 0.984 . S
H1401 N1394 0.984 . S
H1402 N1390 0.984 . S
H1403 N1390 0.985 . S
C1404 C1405 1.363 . S
C1404 C1410 1.379 . S
C1404 N1412 1.356 . S
C1405 C1404 1.363 . S
C1405 C1411 1.363 . S
C1406 C1407 1.363 . S
C1406 C1411 1.379 . S
C1406 N1413 1.356 . S
C1407 C1406 1.363 . S
C1407 C1410 1.363 . S
N1408 C1410 1.356 . S
N1408 H1420 0.984 . S
N1408 H1421 0.985 . S
N1409 C1411 1.356 . S
N1409 H1414 0.984 . S
N1409 H1415 0.985 1_556 S
C1410 C1404 1.379 . S
C1410 C1407 1.363 . S
C1410 N1408 1.356 . S
C1411 C1405 1.363 . S
C1411 C1406 1.379 . S
C1411 N1409 1.356 . S
N1412 C1404 1.356 . S
N1412 H1418 0.984 . S
N1412 H1419 0.984 . S
N1413 C1406 1.356 . S
N1413 H1416 0.984 . S
N1413 H1417 0.985 1_556 S
H1414 N1409 0.984 . S
H1415 N1409 0.985 1_554 S
H1416 N1413 0.984 . S
H1417 N1413 0.985 1_554 S
H1418 N1412 0.984 . S
H1419 N1412 0.984 . S
H1420 N1408 0.984 . S
H1421 N1408 0.985 . S
C1422 C1423 1.363 . S
C1422 C1428 1.379 1_655 S
C1422 N1430 1.356 . S
C1423 C1422 1.363 . S
C1423 C1429 1.363 . S
C1424 C1425 1.363 . S
C1424 C1429 1.379 1_455 S
C1424 N1431 1.356 . S
C1425 C1424 1.363 . S
C1425 C1428 1.363 . S
N1426 C1428 1.356 . S
N1426 H1438 0.984 . S
N1426 H1439 0.985 . S
N1427 C1429 1.356 . S
N1427 H1432 0.984 . S
N1427 H1433 0.985 . S
C1428 C1422 1.379 1_455 S
C1428 C1425 1.363 . S
C1428 N1426 1.356 . S
C1429 C1423 1.363 . S
C1429 C1424 1.379 1_655 S
C1429 N1427 1.356 . S
N1430 C1422 1.356 . S
N1430 H1436 0.984 . S
N1430 H1437 0.984 . S
N1431 C1424 1.356 . S
N1431 H1434 0.984 . S
N1431 H1435 0.985 . S
H1432 N1427 0.984 . S
H1433 N1427 0.985 . S
H1434 N1431 0.984 . S
H1435 N1431 0.985 . S
H1436 N1430 0.984 . S
H1437 N1430 0.984 . S
H1438 N1426 0.984 . S
H1439 N1426 0.985 . S
C1440 C1441 1.363 . S
C1440 C1446 1.379 1_545 S
C1440 N1448 1.356 . S
C1441 C1440 1.363 . S
C1441 C1447 1.363 . S
C1442 C1443 1.363 . S
C1442 C1447 1.379 1_565 S
C1442 N1449 1.356 . S
C1443 C1442 1.363 . S
C1443 C1446 1.363 . S
N1444 C1446 1.356 . S
N1444 H1456 0.984 1_556 S
N1444 H1457 0.985 . S
N1445 C1447 1.356 . S
N1445 H1450 0.984 . S
N1445 H1451 0.985 . S
C1446 C1440 1.379 1_565 S
C1446 C1443 1.363 . S
C1446 N1444 1.356 . S
C1447 C1441 1.363 . S
C1447 C1442 1.379 1_545 S
C1447 N1445 1.356 . S
N1448 C1440 1.356 . S
N1448 H1454 0.984 1_556 S
N1448 H1455 0.984 . S
N1449 C1442 1.356 . S
N1449 H1452 0.984 . S
N1449 H1453 0.985 . S
H1450 N1445 0.984 . S
H1451 N1445 0.985 . S
H1452 N1449 0.984 . S
H1453 N1449 0.985 . S
H1454 N1448 0.984 1_554 S
H1455 N1448 0.984 . S
H1456 N1444 0.984 1_554 S
H1457 N1444 0.985 . S
C1458 C1459 1.363 . S
C1458 C1464 1.379 . S
C1458 N1466 1.356 . S
C1459 C1458 1.363 . S
C1459 C1465 1.363 . S
C1460 C1461 1.363 . S
C1460 C1465 1.379 . S
C1460 N1467 1.356 . S
C1461 C1460 1.363 . S
C1461 C1464 1.363 . S
N1462 C1464 1.356 . S
N1462 H1474 0.984 . S
N1462 H1475 0.985 . S
N1463 C1465 1.356 . S
N1463 H1468 0.984 . S
N1463 H1469 0.985 . S
C1464 C1458 1.379 . S
C1464 C1461 1.363 . S
C1464 N1462 1.356 . S
C1465 C1459 1.363 . S
C1465 C1460 1.379 . S
C1465 N1463 1.356 . S
N1466 C1458 1.356 . S
N1466 H1472 0.984 . S
N1466 H1473 0.984 . S
N1467 C1460 1.356 . S
N1467 H1470 0.984 . S
N1467 H1471 0.985 . S
H1468 N1463 0.984 . S
H1469 N1463 0.985 . S
H1470 N1467 0.984 . S
H1471 N1467 0.985 . S
H1472 N1466 0.984 . S
H1473 N1466 0.984 . S
H1474 N1462 0.984 . S
H1475 N1462 0.985 . S
C1476 C1477 1.363 . S
C1476 C1482 1.379 1_455 S
C1476 N1484 1.356 . S
C1477 C1476 1.363 . S
C1477 C1483 1.363 . S
C1478 C1479 1.363 . S
C1478 C1483 1.379 1_655 S
C1478 N1485 1.356 . S
C1479 C1478 1.363 . S
C1479 C1482 1.363 . S
N1480 C1482 1.356 . S
N1480 H1492 0.984 . S
N1480 H1493 0.985 . S
N1481 C1483 1.356 . S
N1481 H1486 0.984 . S
N1481 H1487 0.985 1_556 S
C1482 C1476 1.379 1_655 S
C1482 C1479 1.363 . S
C1482 N1480 1.356 . S
C1483 C1477 1.363 . S
C1483 C1478 1.379 1_455 S
C1483 N1481 1.356 . S
N1484 C1476 1.356 . S
N1484 H1490 0.984 . S
N1484 H1491 0.984 . S
N1485 C1478 1.356 . S
N1485 H1488 0.984 . S
N1485 H1489 0.985 1_556 S
H1486 N1481 0.984 . S
H1487 N1481 0.985 1_554 S
H1488 N1485 0.984 . S
H1489 N1485 0.985 1_554 S
H1490 N1484 0.984 . S
H1491 N1484 0.984 . S
H1492 N1480 0.984 . S
H1493 N1480 0.985 . S
C1494 C1495 1.363 . S
C1494 C1500 1.379 1_565 S
C1494 N1502 1.356 . S
C1495 C1494 1.363 . S
C1495 C1501 1.363 . S
C1496 C1497 1.363 . S
C1496 C1501 1.379 1_545 S
C1496 N1503 1.356 . S
C1497 C1496 1.363 . S
C1497 C1500 1.363 . S
N1498 C1500 1.356 . S
N1498 H1510 0.984 . S
N1498 H1511 0.985 . S
N1499 C1501 1.356 . S
N1499 H1504 0.984 . S
N1499 H1505 0.985 . S
C1500 C1494 1.379 1_545 S
C1500 C1497 1.363 . S
C1500 N1498 1.356 . S
C1501 C1495 1.363 . S
C1501 C1496 1.379 1_565 S
C1501 N1499 1.356 . S
N1502 C1494 1.356 . S
N1502 H1508 0.984 . S
N1502 H1509 0.984 . S
N1503 C1496 1.356 . S
N1503 H1506 0.984 . S
N1503 H1507 0.985 . S
H1504 N1499 0.984 . S
H1505 N1499 0.985 . S
H1506 N1503 0.984 . S
H1507 N1503 0.985 . S
H1508 N1502 0.984 . S
H1509 N1502 0.984 . S
H1510 N1498 0.984 . S
H1511 N1498 0.985 . S
C1512 C1513 1.363 . S
C1512 C1518 1.379 . S
C1512 N1520 1.356 . S
C1513 C1512 1.363 . S
C1513 C1519 1.363 1_556 S
C1514 C1515 1.363 . S
C1514 C1519 1.379 . S
C1514 N1521 1.356 . S
C1515 C1514 1.363 . S
C1515 C1518 1.363 1_554 S
N1516 C1518 1.356 . S
N1516 H1528 0.984 . S
N1516 H1529 0.985 . S
N1517 C1519 1.356 . S
N1517 H1522 0.984 . S
N1517 H1523 0.985 . S
C1518 C1512 1.379 . S
C1518 C1515 1.363 1_556 S
C1518 N1516 1.356 . S
C1519 C1513 1.363 1_554 S
C1519 C1514 1.379 . S
C1519 N1517 1.356 . S
N1520 C1512 1.356 . S
N1520 H1526 0.984 . S
N1520 H1527 0.984 . S
N1521 C1514 1.356 . S
N1521 H1524 0.984 . S
N1521 H1525 0.985 . S
H1522 N1517 0.984 . S
H1523 N1517 0.985 . S
H1524 N1521 0.984 . S
H1525 N1521 0.985 . S
H1526 N1520 0.984 . S
H1527 N1520 0.984 . S
H1528 N1516 0.984 . S
H1529 N1516 0.985 . S
C1530 C1531 1.363 . S
C1530 C1536 1.379 . S
C1530 N1538 1.356 . S
C1531 C1530 1.363 . S
C1531 C1537 1.363 . S
C1532 C1533 1.363 . S
C1532 C1537 1.379 . S
C1532 N1539 1.356 . S
C1533 C1532 1.363 . S
C1533 C1536 1.363 . S
N1534 C1536 1.356 . S
N1534 H1546 0.984 . S
N1534 H1547 0.985 . S
N1535 C1537 1.356 . S
N1535 H1540 0.984 . S
N1535 H1541 0.985 . S
C1536 C1530 1.379 . S
C1536 C1533 1.363 . S
C1536 N1534 1.356 . S
C1537 C1531 1.363 . S
C1537 C1532 1.379 . S
C1537 N1535 1.356 . S
N1538 C1530 1.356 . S
N1538 H1544 0.984 . S
N1538 H1545 0.984 . S
N1539 C1532 1.356 . S
N1539 H1542 0.984 . S
N1539 H1543 0.985 . S
H1540 N1535 0.984 . S
H1541 N1535 0.985 . S
H1542 N1539 0.984 . S
H1543 N1539 0.985 . S
H1544 N1538 0.984 . S
H1545 N1538 0.984 . S
H1546 N1534 0.984 . S
H1547 N1534 0.985 . S
C1548 C1549 1.363 . S
C1548 C1554 1.379 . S
C1548 N1556 1.356 . S
C1549 C1548 1.363 . S
C1549 C1555 1.363 1_556 S
C1550 C1551 1.363 . S
C1550 C1555 1.379 . S
C1550 N1557 1.356 . S
C1551 C1550 1.363 . S
C1551 C1554 1.363 1_554 S
N1552 C1554 1.356 . S
N1552 H1564 0.984 . S
N1552 H1565 0.985 1_556 S
N1553 C1555 1.356 . S
N1553 H1558 0.984 1_554 S
N1553 H1559 0.985 . S
C1554 C1548 1.379 . S
C1554 C1551 1.363 1_556 S
C1554 N1552 1.356 . S
C1555 C1549 1.363 1_554 S
C1555 C1550 1.379 . S
C1555 N1553 1.356 . S
N1556 C1548 1.356 . S
N1556 H1562 0.984 . S
N1556 H1563 0.984 . S
N1557 C1550 1.356 . S
N1557 H1560 0.984 . S
N1557 H1561 0.985 . S
H1558 N1553 0.984 1_556 S
H1559 N1553 0.985 . S
H1560 N1557 0.984 . S
H1561 N1557 0.985 . S
H1562 N1556 0.984 . S
H1563 N1556 0.984 . S
H1564 N1552 0.984 . S
H1565 N1552 0.985 1_554 S
C1566 C1567 1.363 . S
C1566 C1572 1.379 . S
C1566 N1574 1.356 . S
C1567 C1566 1.363 . S
C1567 C1573 1.363 . S
C1568 C1569 1.363 . S
C1568 C1573 1.379 . S
C1568 N1575 1.356 . S
C1569 C1568 1.363 . S
C1569 C1572 1.363 . S
N1570 C1572 1.356 . S
N1570 H1582 0.984 . S
N1570 H1583 0.985 . S
N1571 C1573 1.356 . S
N1571 H1576 0.984 . S
N1571 H1577 0.985 . S
C1572 C1566 1.379 . S
C1572 C1569 1.363 . S
C1572 N1570 1.356 . S
C1573 C1567 1.363 . S
C1573 C1568 1.379 . S
C1573 N1571 1.356 . S
N1574 C1566 1.356 . S
N1574 H1580 0.984 . S
N1574 H1581 0.984 . S
N1575 C1568 1.356 . S
N1575 H1578 0.984 . S
N1575 H1579 0.985 . S
H1576 N1571 0.984 . S
H1577 N1571 0.985 . S
H1578 N1575 0.984 . S
H1579 N1575 0.985 . S
H1580 N1574 0.984 . S
H1581 N1574 0.984 . S
H1582 N1570 0.984 . S
H1583 N1570 0.985 . S
C1584 C1585 1.363 . S
C1584 C1590 1.379 . S
C1584 N1592 1.356 . S
C1585 C1584 1.363 . S
C1585 C1591 1.363 1_556 S
C1586 C1587 1.363 . S
C1586 C1591 1.379 . S
C1586 N1593 1.356 . S
C1587 C1586 1.363 . S
C1587 C1590 1.363 1_554 S
N1588 C1590 1.356 . S
N1588 H1600 0.984 . S
N1588 H1601 0.985 . S
N1589 C1591 1.356 . S
N1589 H1594 0.984 . S
N1589 H1595 0.985 . S
C1590 C1584 1.379 . S
C1590 C1587 1.363 1_556 S
C1590 N1588 1.356 . S
C1591 C1585 1.363 1_554 S
C1591 C1586 1.379 . S
C1591 N1589 1.356 . S
N1592 C1584 1.356 . S
N1592 H1598 0.984 . S
N1592 H1599 0.984 . S
N1593 C1586 1.356 . S
N1593 H1596 0.984 . S
N1593 H1597 0.985 . S
H1594 N1589 0.984 . S
H1595 N1589 0.985 . S
H1596 N1593 0.984 . S
H1597 N1593 0.985 . S
H1598 N1592 0.984 . S
H1599 N1592 0.984 . S
H1600 N1588 0.984 . S
H1601 N1588 0.985 . S
C1602 C1603 1.363 . S
C1602 C1608 1.379 . S
C1602 N1610 1.356 . S
C1603 C1602 1.363 . S
C1603 C1609 1.363 . S
C1604 C1605 1.363 . S
C1604 C1609 1.379 . S
C1604 N1611 1.356 . S
C1605 C1604 1.363 . S
C1605 C1608 1.363 . S
N1606 C1608 1.356 . S
N1606 H1618 0.984 . S
N1606 H1619 0.985 . S
N1607 C1609 1.356 . S
N1607 H1612 0.984 . S
N1607 H1613 0.985 . S
C1608 C1602 1.379 . S
C1608 C1605 1.363 . S
C1608 N1606 1.356 . S
C1609 C1603 1.363 . S
C1609 C1604 1.379 . S
C1609 N1607 1.356 . S
N1610 C1602 1.356 . S
N1610 H1616 0.984 . S
N1610 H1617 0.984 . S
N1611 C1604 1.356 . S
N1611 H1614 0.984 . S
N1611 H1615 0.985 . S
H1612 N1607 0.984 . S
H1613 N1607 0.985 . S
H1614 N1611 0.984 . S
H1615 N1611 0.985 . S
H1616 N1610 0.984 . S
H1617 N1610 0.984 . S
H1618 N1606 0.984 . S
H1619 N1606 0.985 . S
C1620 C1621 1.363 1_556 S
C1620 C1626 1.379 . S
C1620 N1628 1.356 . S
C1621 C1620 1.363 1_554 S
C1621 C1627 1.363 . S
C1622 C1623 1.363 1_554 S
C1622 C1627 1.379 . S
C1622 N1629 1.356 . S
C1623 C1622 1.363 1_556 S
C1623 C1626 1.363 . S
N1624 C1626 1.356 . S
N1624 H1636 0.984 . S
N1624 H1637 0.985 . S
N1625 C1627 1.356 . S
N1625 H1630 0.984 . S
N1625 H1631 0.985 . S
C1626 C1620 1.379 . S
C1626 C1623 1.363 . S
C1626 N1624 1.356 . S
C1627 C1621 1.363 . S
C1627 C1622 1.379 . S
C1627 N1625 1.356 . S
N1628 C1620 1.356 . S
N1628 H1634 0.984 . S
N1628 H1635 0.984 1_556 S
N1629 C1622 1.356 . S
N1629 H1632 0.984 1_554 S
N1629 H1633 0.985 . S
H1630 N1625 0.984 . S
H1631 N1625 0.985 . S
H1632 N1629 0.984 1_556 S
H1633 N1629 0.985 . S
H1634 N1628 0.984 . S
H1635 N1628 0.984 1_554 S
H1636 N1624 0.984 . S
H1637 N1624 0.985 . S
C1638 C1639 1.363 . S
C1638 C1644 1.379 . S
C1638 N1646 1.356 . S
C1639 C1638 1.363 . S
C1639 C1645 1.363 . S
C1640 C1641 1.363 . S
C1640 C1645 1.379 . S
C1640 N1647 1.356 . S
C1641 C1640 1.363 . S
C1641 C1644 1.363 . S
N1642 C1644 1.356 . S
N1642 H1654 0.984 . S
N1642 H1655 0.985 . S
N1643 C1645 1.356 . S
N1643 H1648 0.984 . S
N1643 H1649 0.985 . S
C1644 C1638 1.379 . S
C1644 C1641 1.363 . S
C1644 N1642 1.356 . S
C1645 C1639 1.363 . S
C1645 C1640 1.379 . S
C1645 N1643 1.356 . S
N1646 C1638 1.356 . S
N1646 H1652 0.984 . S
N1646 H1653 0.984 . S
N1647 C1640 1.356 . S
N1647 H1650 0.984 . S
N1647 H1651 0.985 . S
H1648 N1643 0.984 . S
H1649 N1643 0.985 . S
H1650 N1647 0.984 . S
H1651 N1647 0.985 . S
H1652 N1646 0.984 . S
H1653 N1646 0.984 . S
H1654 N1642 0.984 . S
H1655 N1642 0.985 . S
C1656 C1657 1.363 1_556 S
C1656 C1662 1.379 . S
C1656 N1664 1.356 . S
C1657 C1656 1.363 1_554 S
C1657 C1663 1.363 . S
C1658 C1659 1.363 1_554 S
C1658 C1663 1.379 . S
C1658 N1665 1.356 . S
C1659 C1658 1.363 1_556 S
C1659 C1662 1.363 . S
N1660 C1662 1.356 . S
N1660 H1672 0.984 . S
N1660 H1673 0.985 . S
N1661 C1663 1.356 . S
N1661 H1666 0.984 . S
N1661 H1667 0.985 . S
C1662 C1656 1.379 . S
C1662 C1659 1.363 . S
C1662 N1660 1.356 . S
C1663 C1657 1.363 . S
C1663 C1658 1.379 . S
C1663 N1661 1.356 . S
N1664 C1656 1.356 . S
N1664 H1670 0.984 . S
N1664 H1671 0.984 1_556 S
N1665 C1658 1.356 . S
N1665 H1668 0.984 1_554 S
N1665 H1669 0.985 . S
H1666 N1661 0.984 . S
H1667 N1661 0.985 . S
H1668 N1665 0.984 1_556 S
H1669 N1665 0.985 . S
H1670 N1664 0.984 . S
H1671 N1664 0.984 1_554 S
H1672 N1660 0.984 . S
H1673 N1660 0.985 . S
C1674 C1675 1.363 . S
C1674 C1680 1.379 . S
C1674 N1682 1.356 . S
C1675 C1674 1.363 . S
C1675 C1681 1.363 . S
C1676 C1677 1.363 . S
C1676 C1681 1.379 . S
C1676 N1683 1.356 . S
C1677 C1676 1.363 . S
C1677 C1680 1.363 . S
N1678 C1680 1.356 . S
N1678 H1690 0.984 . S
N1678 H1691 0.985 . S
N1679 C1681 1.356 . S
N1679 H1684 0.984 . S
N1679 H1685 0.985 . S
C1680 C1674 1.379 . S
C1680 C1677 1.363 . S
C1680 N1678 1.356 . S
C1681 C1675 1.363 . S
C1681 C1676 1.379 . S
C1681 N1679 1.356 . S
N1682 C1674 1.356 . S
N1682 H1688 0.984 . S
N1682 H1689 0.984 . S
N1683 C1676 1.356 . S
N1683 H1686 0.984 . S
N1683 H1687 0.985 . S
H1684 N1679 0.984 . S
H1685 N1679 0.985 . S
H1686 N1683 0.984 . S
H1687 N1683 0.985 . S
H1688 N1682 0.984 . S
H1689 N1682 0.984 . S
H1690 N1678 0.984 . S
H1691 N1678 0.985 . S
C1692 C1693 1.363 1_554 S
C1692 C1698 1.379 . S
C1692 N1700 1.356 . S
C1693 C1692 1.363 1_556 S
C1693 C1699 1.363 . S
C1694 C1695 1.363 1_556 S
C1694 C1699 1.379 . S
C1694 N1701 1.356 . S
C1695 C1694 1.363 1_554 S
C1695 C1698 1.363 . S
N1696 C1698 1.356 . S
N1696 H1708 0.984 . S
N1696 H1709 0.985 . S
N1697 C1699 1.356 . S
N1697 H1702 0.984 . S
N1697 H1703 0.985 . S
C1698 C1692 1.379 . S
C1698 C1695 1.363 . S
C1698 N1696 1.356 . S
C1699 C1693 1.363 . S
C1699 C1694 1.379 . S
C1699 N1697 1.356 . S
N1700 C1692 1.356 . S
N1700 H1706 0.984 . S
N1700 H1707 0.984 . S
N1701 C1694 1.356 . S
N1701 H1704 0.984 . S
N1701 H1705 0.985 . S
H1702 N1697 0.984 . S
H1703 N1697 0.985 . S
H1704 N1701 0.984 . S
H1705 N1701 0.985 . S
H1706 N1700 0.984 . S
H1707 N1700 0.984 . S
H1708 N1696 0.984 . S
H1709 N1696 0.985 . S
C1710 C1711 1.363 . S
C1710 C1716 1.379 . S
C1710 N1718 1.356 . S
C1711 C1710 1.363 . S
C1711 C1717 1.363 . S
C1712 C1713 1.363 . S
C1712 C1717 1.379 . S
C1712 N1719 1.356 . S
C1713 C1712 1.363 . S
C1713 C1716 1.363 . S
N1714 C1716 1.356 . S
N1714 H1726 0.984 . S
N1714 H1727 0.985 . S
N1715 C1717 1.356 . S
N1715 H1720 0.984 . S
N1715 H1721 0.985 . S
C1716 C1710 1.379 . S
C1716 C1713 1.363 . S
C1716 N1714 1.356 . S
C1717 C1711 1.363 . S
C1717 C1712 1.379 . S
C1717 N1715 1.356 . S
N1718 C1710 1.356 . S
N1718 H1724 0.984 . S
N1718 H1725 0.984 . S
N1719 C1712 1.356 . S
N1719 H1722 0.984 . S
N1719 H1723 0.985 . S
H1720 N1715 0.984 . S
H1721 N1715 0.985 . S
H1722 N1719 0.984 . S
H1723 N1719 0.985 . S
H1724 N1718 0.984 . S
H1725 N1718 0.984 . S
H1726 N1714 0.984 . S
H1727 N1714 0.985 . S
C865 C14 1.403 . S
C867 C554 1.403 . S
C883 C50 1.404 . S
C885 C590 1.404 . S
C901 C626 1.404 . S
C903 C86 1.404 . S
C919 C446 1.403 . S
C921 C122 1.403 . S
C937 C482 1.404 . S
C939 C158 1.404 . S
C955 C518 1.404 . S
C957 C194 1.404 . S
C973 C770 1.403 . S
C975 C230 1.403 . S
C991 C266 1.404 . S
C993 C806 1.404 . S
C1009 C842 1.404 . S
C1011 C302 1.404 . S
C1027 C338 1.403 . S
C1029 C662 1.403 . S
C1045 C698 1.404 . S
C1047 C374 1.404 . S
C1063 C410 1.404 . S
C1065 C734 1.404 . S
C1081 C363 1.349 . S
C1083 C3 1.349 . S
C1099 C399 1.349 . S
C1101 C39 1.349 . S
C1117 C75 1.349 . S
C1119 C219 1.349 . S
C1135 C111 1.349 . S
C1137 C255 1.349 . S
C1153 C291 1.349 . S
C1155 C147 1.349 . S
C1171 C183 1.349 . S
C1173 C327 1.349 . S
C1189 C795 1.349 . S
C1191 C435 1.349 . S
C1207 C471 1.349 . S
C1209 C831 1.349 . S
C1225 C507 1.349 . S
C1227 C651 1.349 . S
C1243 C687 1.349 . S
C1245 C543 1.349 . S
C1261 C579 1.349 . S
C1263 C723 1.349 . S
C1279 C615 1.349 . S
C1281 C759 1.349 . S
C1297 C4 1.410 . S
C1299 C652 1.410 . S
C1315 C688 1.410 . S
C1317 C40 1.410 . S
C1333 C76 1.410 . S
C1335 C724 1.410 . S
C1351 C112 1.410 . S
C1353 C760 1.410 . S
C1369 C796 1.410 . S
C1371 C148 1.410 . S
C1387 C184 1.410 . S
C1389 C832 1.410 . S
C1405 C220 1.410 . S
C1407 C436 1.410 . S
C1423 C256 1.410 . S
C1425 C472 1.410 . S
C1441 C508 1.410 . S
C1443 C292 1.410 . S
C1459 C544 1.410 . S
C1461 C328 1.410 . S
C1477 C364 1.410 . S
C1479 C580 1.410 . S
C1495 C616 1.410 . S
C1497 C400 1.410 . S
C1513 C218 1.496 . S
C1515 C2 1.496 . S
C1531 C38 1.496 . S
C1533 C254 1.496 . S
C1549 C290 1.496 . S
C1551 C74 1.496 . S
C1567 C326 1.496 . S
C1569 C110 1.496 . S
C1585 C362 1.496 . S
C1587 C146 1.496 . S
C1603 C182 1.496 . S
C1605 C398 1.496 . S
C1621 C650 1.496 . S
C1623 C434 1.496 . S
C1639 C470 1.496 . S
C1641 C686 1.496 . S
C1657 C722 1.496 . S
C1659 C506 1.496 . S
C1675 C758 1.496 . S
C1677 C542 1.496 . S
C1693 C578 1.496 . S
C1695 C794 1.496 . S
C1711 C614 1.496 . S
C1713 C830 1.496 . S
