# Generated by pormake.
# Topology sma, (6)-cn, num edge types: 1
# Building blocks:
#     Node 0, Type 0, BuildingBlock: BETGAK_clean_sbu_0, # of connection points: 6
#     Node 1, Type 0, BuildingBlock: BETGAK_clean_sbu_0, # of connection points: 6
#     Node 2, Type 0, BuildingBlock: BETGAK_clean_sbu_0, # of connection points: 6
#     Edge 3, Type (0, 0), BuildingBlock: ZUJKAS_clean_linker_0, # of connection points: 2
#     Edge 4, Type (0, 0), BuildingBlock: ZUJKAS_clean_linker_0, # of connection points: 2
#     Edge 5, Type (0, 0), BuildingBlock: ZUJKAS_clean_linker_0, # of connection points: 2
#     Edge 6, Type (0, 0), BuildingBlock: ZUJKAS_clean_linker_0, # of connection points: 2
#     Edge 7, Type (0, 0), BuildingBlock: ZUJKAS_clean_linker_0, # of connection points: 2
#     Edge 8, Type (0, 0), BuildingBlock: ZUJKAS_clean_linker_0, # of connection points: 2
#     Edge 9, Type (0, 0), BuildingBlock: ZUJKAS_clean_linker_0, # of connection points: 2
#     Edge 10, Type (0, 0), BuildingBlock: ZUJKAS_clean_linker_0, # of connection points: 2
#     Edge 11, Type (0, 0), BuildingBlock: ZUJKAS_clean_linker_0, # of connection points: 2
# Relax obj value: 0.124
# Max RMSD: 0.244
# Mean RMSD: 0.203
data_MOF--net-sma--node1-BETGAK_clean_sbu_0--edge1-ZUJKAS_clean_linker_0
_symmetry_space_group_name_H-M    P1
_symmetry_Int_Tables_number       1
_symmetry_cell_setting            triclinic
loop_
_symmetry_equiv_pos_as_xyz
'x, y, z'
_cell_length_a     48.371759
_cell_length_b     55.485327
_cell_length_c     18.066098
_cell_angle_alpha  93.458644
_cell_angle_beta   90.8403
_cell_angle_gamma 136.54522
loop_
_atom_site_label
_atom_site_type_symbol
_atom_site_fract_x
_atom_site_fract_y
_atom_site_fract_z
_atom_type_partial_charge
La0 La 0.14049 0.6377 0.16772 0.0
La1 La 0.09484 0.65503 0.21133 0.0
C2 C 0.18166 0.63099 0.1104 0.0
C3 C 0.20794 0.62853 0.07996 0.0
C4 C 0.24605 0.64857 0.11675 0.0
C5 C 0.27128 0.64654 0.08987 0.0
C6 C 0.25921 0.62441 0.02528 0.0
C7 C 0.22096 0.6042 -0.01164 0.0
C8 C 0.19562 0.60633 0.01533 0.0
C9 C 0.1297 0.637 0.30947 0.0
C10 C 0.1894 0.71717 0.20183 0.0
C11 C 1.06882 0.67985 0.24822 0.0
C12 C 1.03632 0.67578 0.22179 0.0
C13 C 1.047 0.70582 0.20396 0.0
C14 C 1.01793 0.70321 0.17458 0.0
C15 C 0.97706 0.67043 0.16289 0.0
C16 C 0.96627 0.64027 0.18173 0.0
C17 C 0.99559 0.64289 0.21062 0.0
C18 C 1.08249 0.63039 0.07212 0.0
C19 C 1.05062 0.57749 0.20944 0.0
O20 O 0.19257 0.64984 0.1737 0.0
O21 O 0.14664 0.61534 0.07832 0.0
O22 O 0.13266 0.61796 0.27474 0.0
O23 O 0.13585 0.65721 0.26657 0.0
O24 O 0.18754 0.69475 0.16439 0.0
O25 O 0.15781 0.70631 0.23329 0.0
O26 O 0.0968 0.69361 0.20225 0.0
O27 O 1.05907 0.654 0.27987 0.0
O28 O 1.05576 0.62452 0.10863 0.0
O29 O 0.11541 0.65155 0.11126 0.0
O30 O 1.0546 0.60193 0.24315 0.0
O31 O 1.07745 0.58541 0.16456 0.0
H32 H 0.25652 0.66588 0.16684 0.0
H33 H 0.30012 0.66199 0.1206 0.0
H34 H 0.21089 0.58711 0.9382 0.0
H35 H 0.16642 0.59058 -0.01423 0.0
H36 H 1.07823 0.73146 0.21148 0.0
H37 H 1.02783 0.72697 0.15951 0.0
H38 H 0.93512 0.61461 0.1745 0.0
H39 H 0.98644 0.6192 0.22352 0.0
La40 La 0.65845 0.14762 0.42594 0.0
La41 La 0.61212 0.16116 0.36434 0.0
C42 C 0.68349 0.13092 0.50994 0.0
C43 C 0.67484 0.10001 0.5238 0.0
C44 C 0.67152 0.07973 0.46589 0.0
C45 C 0.6672 1.05275 0.48154 0.0
C46 C 0.666 1.04537 0.55539 0.0
C47 C 0.668 0.06502 0.61285 0.0
C48 C 0.67246 0.09205 0.59719 0.0
C49 C 0.65322 0.14516 0.28111 0.0
C50 C 0.56271 0.08305 0.37931 0.0
C51 C 0.58597 0.18208 0.30475 0.0
C52 C 0.58851 0.2091 0.33384 0.0
C53 C 0.55746 0.20557 0.3145 0.0
C54 C 0.55702 0.2285 0.34966 0.0
C55 C 0.58767 0.25538 0.40487 0.0
C56 C 0.61931 0.25936 0.42254 0.0
C57 C 0.61961 0.23636 0.38769 0.0
C58 C 0.62246 0.16714 0.51039 0.0
C59 C 0.70808 0.22251 0.38131 0.0
O60 O 0.69836 0.14441 0.44699 0.0
O61 O 0.65665 0.13007 0.52785 0.0
O62 O 0.68222 0.15294 0.31903 0.0
O63 O 0.62665 0.13509 0.32289 0.0
O64 O 0.59442 0.09511 0.4207 0.0
O65 O 0.56563 0.10425 0.34051 0.0
O66 O 0.56396 0.15432 0.34137 0.0
O67 O 0.62 0.19324 0.29012 0.0
O68 O 0.59134 0.15642 0.47512 0.0
O69 O 0.64712 0.17635 0.46504 0.0
O70 O 0.67454 0.20831 0.34416 0.0
O71 O 0.70768 0.20516 0.42961 0.0
H72 H 0.67321 0.08522 0.40865 0.0
H73 H 0.66611 1.03844 0.43588 0.0
H74 H 0.66639 0.05969 0.6702 0.0
H75 H 0.67484 0.10725 0.64276 0.0
H76 H 0.53296 0.18447 0.27372 0.0
H77 H 0.53243 0.22492 0.33423 0.0
H78 H 0.64306 0.2794 0.46546 0.0
H79 H 0.6435 0.23918 0.40461 0.0
La80 La 0.63978 0.67192 0.83234 0.0
La81 La 0.58711 0.59651 0.86701 0.0
C82 C 0.67916 0.72694 0.76813 0.0
C83 C 0.67588 0.75091 0.75536 0.0
C84 C 0.71087 0.78736 0.7601 0.0
C85 C 0.70852 0.81039 0.7458 0.0
C86 C 0.67107 0.79739 0.72597 0.0
C87 C 0.63599 0.76083 0.72192 0.0
C88 C 0.63833 0.73784 0.73678 0.0
C89 C 0.62211 0.66143 -0.02917 0.0
C90 C 0.54835 0.62253 0.86056 0.0
C91 C 0.55902 0.54001 0.90912 0.0
C92 C 0.56526 0.51874 0.882 0.0
C93 C 0.58687 0.52757 0.81939 0.0
C94 C 0.5906 0.50631 0.78955 0.0
C95 C 0.5724 0.47545 0.82113 0.0
C96 C 0.55106 0.46682 0.88446 0.0
C97 C 0.54762 0.48837 0.91474 0.0
C98 C 0.58377 0.6051 0.72715 0.0
C99 C 0.68057 0.64681 0.85456 0.0
O100 O 0.68861 0.72721 0.83683 0.0
O101 O 0.65065 0.69493 0.73419 0.0
O102 O 0.62795 0.68445 0.93604 0.0
O103 O 0.62867 0.64707 0.92982 0.0
O104 O 0.57798 0.64691 0.81953 0.0
O105 O 0.54924 0.60299 0.89696 0.0
O106 O 0.54006 0.54133 0.86046 0.0
O107 O 0.59043 0.57119 0.94328 0.0
O108 O 0.55325 0.5782 0.75883 0.0
O109 O 0.61462 0.62479 0.7721 0.0
O110 O 0.64393 0.6141 0.8507 0.0
O111 O 0.68657 0.67417 0.85166 0.0
H112 H 0.74013 0.79801 0.77421 0.0
H113 H 0.73614 0.83834 0.74878 0.0
H114 H 0.60664 0.74998 0.7078 0.0
H115 H 0.61078 0.70984 0.73328 0.0
H116 H 0.59996 0.55043 0.79211 0.0
H117 H 0.6066 0.51345 0.74006 0.0
H118 H 0.53691 0.44334 0.91039 0.0
H119 H 0.53058 0.48098 0.96277 0.0
H120 H 0.34103 0.6787 0.01895 0.0
H121 H 0.38681 0.67533 -0.01597 0.0
H122 H 0.2859 0.56278 0.9347 0.0
H123 H 0.23965 0.5658 -0.02972 0.0
H124 H 0.39722 0.63816 0.05095 0.0
H125 H 0.34941 0.59315 0.74949 0.0
H126 H 0.33613 0.61149 0.8039 0.0
H127 H 0.30944 0.56676 0.81019 0.0
C128 C 0.32845 0.65316 0.00064 0.0
C129 C 0.28659 0.62248 -0.00213 0.0
C130 C 0.3547 0.65132 -0.01962 0.0
C131 C 0.33988 0.61889 0.95627 0.0
C132 C 0.29806 0.58823 0.95191 0.0
H133 H 0.48696 0.58136 0.95206 0.0
H134 H 0.43491 0.57864 -0.02643 0.0
C135 C 0.27161 0.58999 -0.02777 0.0
C136 C 0.36849 0.61718 0.93948 0.0
H137 H 0.39696 0.59571 0.80101 0.0
C138 C 0.3971 0.62881 -0.00368 0.0
C139 C 0.36856 0.60529 0.868 0.0
C140 C 0.3395 0.59372 0.80406 0.0
C141 C 0.42572 0.62883 -0.01619 0.0
C142 C 0.42545 0.61643 0.91272 0.0
C143 C 0.39694 0.60493 0.85566 0.0
C144 C 0.45534 0.61625 0.89621 0.0
C145 C 0.45673 0.64297 0.0464 0.0
C146 C 0.48333 0.63744 0.84387 0.0
C147 C 0.51304 0.63896 0.83119 0.0
C148 C 0.51518 0.61909 0.87025 0.0
C149 C 0.48631 0.59707 0.92105 0.0
C150 C 0.45667 0.59565 0.93378 0.0
H151 H 0.45879 0.65888 0.09143 0.0
H152 H 0.44816 0.6206 0.0708 0.0
H153 H 0.487 0.65953 0.02563 0.0
H154 H 0.48279 0.65348 0.81406 0.0
H155 H 0.53467 0.65613 0.79151 0.0
H156 H 0.78123 0.26975 0.46603 0.0
H157 H 0.84249 0.33076 0.44268 0.0
H158 H 0.78237 0.31691 0.23973 0.0
H159 H 0.72147 0.2569 0.26308 0.0
H160 H 0.89162 0.35977 0.32462 0.0
H161 H 0.81867 0.40301 0.34986 0.0
H162 H 0.79603 0.36165 0.37893 0.0
H163 H 0.79145 0.36554 0.28236 0.0
C164 C 0.78119 0.2798 0.4165 0.0
C165 C 0.74625 0.25868 0.36719 0.0
C166 C 0.81616 0.31459 0.40317 0.0
C167 C 0.81667 0.32866 0.34033 0.0
C168 C 0.78235 0.30703 0.28965 0.0
H169 H 1.01982 0.51649 0.13472 0.0
H170 H 0.96461 0.45628 0.16892 0.0
C171 C 0.74752 0.2726 0.30314 0.0
C172 C 0.85257 0.36597 0.32726 0.0
H173 H 0.88112 0.4412 0.29383 0.0
C174 C 0.88951 0.37773 0.31856 0.0
C175 C 0.84996 0.38957 0.32044 0.0
C176 C 0.81201 0.37945 0.33416 0.0
C177 C 0.92358 0.41215 0.301 0.0
C178 C 0.9203 0.43511 0.29021 0.0
C179 C 0.8836 0.42354 0.301 0.0
C180 C 0.95456 0.47154 0.26952 0.0
C181 C 0.96283 0.42368 0.29531 0.0
C182 C 0.96657 0.50008 0.31325 0.0
C183 C 0.99738 0.53426 0.29296 0.0
C184 C 1.01712 0.54083 0.22851 0.0
C185 C 1.00528 0.5123 0.18477 0.0
C186 C 0.97399 0.47792 0.2047 0.0
H187 H 0.96352 0.4074 0.32629 0.0
H188 H 0.96631 0.42055 0.23601 0.0
H189 H 0.98896 0.45176 0.31717 0.0
H190 H 0.9521 0.49592 0.36341 0.0
H191 H 1.00604 0.55563 0.32858 0.0
H192 H 0.70553 1.04834 0.67238 0.0
H193 H 0.70375 1.00464 0.69951 0.0
H194 H 0.62135 0.93746 0.50492 0.0
H195 H 0.62247 0.98084 0.47772 0.0
H196 H 0.63826 0.93396 0.7256 0.0
H197 H 0.71187 0.94567 0.47629 0.0
H198 H 0.71245 0.97763 0.50674 0.0
H199 H 0.66814 0.93628 0.45667 0.0
C200 C 0.68663 1.02413 0.63565 0.0
C201 C 0.66417 1.01824 0.57269 0.0
C202 C 0.68586 0.99924 0.65107 0.0
C203 C 0.6629 0.96799 0.60371 0.0
C204 C 0.63998 0.96172 0.54141 0.0
H205 H 0.62589 0.78899 0.61188 0.0
H206 H 0.62239 0.82939 0.58336 0.0
C207 C 0.64067 0.98659 0.52594 0.0
C208 C 0.66276 0.94194 0.62018 0.0
H209 H 0.68719 0.90095 0.55195 0.0
C210 C 0.64902 0.92679 0.6877 0.0
C211 C 0.67678 0.93257 0.57066 0.0
C212 C 0.6935 0.94906 0.49879 0.0
C213 C 0.64855 0.90229 0.70669 0.0
C214 C 0.6628 0.89309 0.6574 0.0
C215 C 0.67624 0.90801 0.58962 0.0
C216 C 0.66452 0.86839 0.67564 0.0
C217 C 0.63222 0.88601 0.77885 0.0
C218 C 0.68966 0.87703 0.73659 0.0
C219 C 0.69174 0.85401 0.75303 0.0
C220 C 0.66868 0.82182 0.70885 0.0
C221 C 0.64361 0.81332 0.64766 0.0
C222 C 0.64175 0.83647 0.631 0.0
H223 H 0.6135 0.88904 0.80117 0.0
H224 H 0.61374 0.85754 0.77138 0.0
H225 H 0.65778 0.89922 0.82086 0.0
H226 H 0.70796 0.90176 0.77117 0.0
H227 H 0.71116 0.86129 0.80078 0.0
H228 H 0.75766 0.70762 0.91136 0.0
H229 H 0.81069 0.7136 0.95645 0.0
H230 H 0.73463 0.60448 0.88088 0.0
H231 H 0.6816 0.5982 0.83599 0.0
H232 H 0.79675 0.6697 0.06706 0.0
H233 H 0.84693 0.65789 0.80577 0.0
H234 H 0.82156 0.67065 0.80868 0.0
H235 H 0.79328 0.62532 0.8117 0.0
C236 C 0.75258 0.68513 0.90265 0.0
C237 C 0.71533 0.65245 0.86993 0.0
C238 C 0.78284 0.68854 0.92888 0.0
C239 C 0.77672 0.65954 0.92172 0.0
C240 C 0.74026 0.62733 0.88622 0.0
H241 H 0.91025 0.61752 0.06507 0.0
H242 H 0.86133 0.61464 0.00987 0.0
C243 C 0.7099 0.62379 0.86072 0.0
C244 C 0.80684 0.66198 0.95669 0.0
H245 H 0.8705 0.65567 0.91832 0.0
C246 C 0.81314 0.66692 0.0346 0.0
C247 C 0.82769 0.65778 0.91431 0.0
C248 C 0.82239 0.65286 0.83042 0.0
C249 C 0.83921 0.66719 0.07141 0.0
C250 C 0.86057 0.66345 0.02907 0.0
C251 C 0.85426 0.65857 0.95098 0.0
C252 C 0.88983 0.66481 0.0646 0.0
C253 C 0.84244 0.67028 0.15539 0.0
C254 C 0.92237 0.69397 0.11377 0.0
C255 C 0.94994 0.69537 0.1467 0.0
C256 C 0.94632 0.66797 0.13019 0.0
C257 C 0.91381 0.63887 0.08038 0.0
C258 C 0.88596 0.63734 0.04802 0.0
H259 H 0.81532 0.66151 0.17787 0.0
H260 H 0.84629 0.65443 0.17673 0.0
H261 H 0.86894 0.69827 0.17711 0.0
H262 H 0.92675 0.71594 0.1263 0.0
H263 H 0.97413 0.71805 0.18531 0.0
H264 H 0.54784 1.02856 0.42739 0.0
H265 H 0.48662 0.96515 0.39787 0.0
H266 H 0.43148 0.98766 0.27515 0.0
H267 H 0.49211 1.05059 0.30352 0.0
H268 H 0.40565 0.92308 0.4265 0.0
H269 H 0.42195 0.92341 0.12353 0.0
H270 H 0.46263 0.95955 0.19037 0.0
H271 H 0.42363 0.95534 0.15965 0.0
C272 C 0.5226 1.01998 0.3944 0.0
C273 C 0.52508 1.04469 0.36719 0.0
C274 C 0.4877 0.98377 0.37749 0.0
C275 C 0.45488 0.97175 0.33291 0.0
C276 C 0.45682 0.99636 0.30803 0.0
H277 H 0.20492 0.771 0.27528 0.0
H278 H 0.2704 0.83192 0.30727 0.0
C279 C 0.49152 1.03239 0.32473 0.0
C280 C 0.41831 0.93356 0.31233 0.0
H281 H 0.35764 0.87227 0.16251 0.0
C282 C 0.39531 0.91186 0.36886 0.0
C283 C 0.4052 0.91886 0.23711 0.0
C284 C 0.42983 0.9404 0.17416 0.0
C285 C 0.35869 0.87611 0.35201 0.0
C286 C 0.34446 0.86191 0.27661 0.0
C287 C 0.36829 0.88329 0.22023 0.0
C288 C 0.30461 0.82511 0.25506 0.0
C289 C 0.33563 0.85387 0.41514 0.0
C290 C 0.30188 0.80136 0.21236 0.0
C291 C 0.26436 0.76649 0.19324 0.0
C292 C 0.22882 0.75477 0.21625 0.0
C293 C 0.23163 0.77899 0.25706 0.0
C294 C 0.26912 0.8138 0.276 0.0
H295 H 0.35558 0.86552 0.46742 0.0
H296 H 0.31176 0.85221 0.42557 0.0
H297 H 0.32097 0.82671 0.40137 0.0
H298 H 0.32888 0.80964 0.19497 0.0
H299 H 0.26335 0.7486 0.16172 0.0
H300 H 0.63749 0.49402 0.76497 0.0
H301 H 0.63903 0.45558 0.69664 0.0
H302 H 0.5137 0.36499 0.72918 0.0
H303 H 0.51163 0.40332 0.79621 0.0
H304 H 0.62049 0.3968 0.74088 0.0
H305 H 0.51792 0.3587 0.50107 0.0
H306 H 0.54215 0.39581 0.56877 0.0
H307 H 0.49889 0.35178 0.59082 0.0
C308 C 0.61021 0.46592 0.75748 0.0
C309 C 0.57434 0.45179 0.78559 0.0
C310 C 0.6112 0.44398 0.71873 0.0
C311 C 0.57632 0.4075 0.70675 0.0
C312 C 0.5408 0.39314 0.73672 0.0
H313 H 0.52157 0.2357 0.45871 0.0
H314 H 0.51913 0.2725 0.53249 0.0
C315 C 0.5398 0.41506 0.77575 0.0
C316 C 0.57709 0.38464 0.66207 0.0
H317 H 0.5379 0.33046 0.50025 0.0
C318 C 0.6025 0.38232 0.68821 0.0
C319 C 0.55355 0.36575 0.5934 0.0
C320 C 0.5268 0.36824 0.56128 0.0
C321 C 0.60457 0.36121 0.64808 0.0
C322 C 0.58129 0.34255 0.57902 0.0
C323 C 0.55576 0.34478 0.55309 0.0
C324 C 0.58292 0.32051 0.53284 0.0
C325 C 0.63101 0.3585 0.68091 0.0
C326 C 0.61942 0.33537 0.50699 0.0
C327 C 0.6209 0.31439 0.46466 0.0
C328 C 0.5858 0.27815 0.44653 0.0
C329 C 0.54909 0.26355 0.47092 0.0
C330 C 0.54768 0.28453 0.51351 0.0
H331 H 0.6376 0.36602 0.742 0.0
H332 H 0.61665 0.33135 0.66981 0.0
H333 H 0.66016 0.37668 0.65527 0.0
H334 H 0.64681 0.36325 0.5194 0.0
H335 H 0.64953 0.3266 0.44578 0.0
H336 H 1.01664 0.59648 -0.02196 0.0
H337 H 1.01258 0.58996 0.84215 0.0
H338 H 0.13284 0.63649 0.85147 0.0
H339 H 0.13793 0.645 -0.01306 0.0
H340 H 0.12476 0.67036 0.77071 0.0
H341 H 0.99953 0.52625 0.68568 0.0
H342 H 0.98668 0.54315 0.74677 0.0
H343 H 1.02283 0.54422 0.77972 0.0
C344 C 1.04194 0.60475 0.95089 0.0
C345 C 1.07769 0.62135 -0.00775 0.0
C346 C 1.03936 0.60067 0.87352 0.0
C347 C 1.07227 0.6125 0.83727 0.0
C348 C 0.10713 0.62716 0.87891 0.0
H349 H 0.11472 0.59308 0.40265 0.0
H350 H 0.09306 0.58532 0.528 0.0
C351 C 0.11002 0.63189 0.95605 0.0
C352 C 1.07283 0.61397 0.75652 0.0
H353 H 1.02841 0.56388 0.58943 0.0
C354 C 0.1037 0.64711 0.73088 0.0
C355 C 1.04489 0.58353 0.70548 0.0
C356 C 1.01178 0.54722 0.73061 0.0
C357 C 0.10896 0.6506 0.65523 0.0
C358 C 1.08134 0.62013 0.60393 0.0
C359 C 1.0492 0.58712 0.62931 0.0
C360 C 1.08871 0.62147 0.52512 0.0
C361 C 0.14544 0.68653 0.63171 0.0
C362 C 0.09257 0.64382 0.48196 0.0
C363 C 0.10628 0.64919 0.41141 0.0
C364 C 0.11484 0.63132 0.38277 0.0
C365 C 0.10867 0.60741 0.42425 0.0
C366 C 0.09588 0.60266 0.49527 0.0
H367 H 0.16804 0.70532 0.67943 0.0
H368 H 0.16039 0.68476 0.58918 0.0
H369 H 0.13582 0.6976 0.60724 0.0
H370 H 1.08638 0.65799 0.50385 0.0
H371 H 0.11072 0.66762 0.37985 0.0
H372 H 0.71187 0.17221 0.18846 0.0
H373 H 0.71039 0.17956 0.0564 0.0
H374 H 0.59181 0.13543 0.06604 0.0
H375 H 0.59302 0.12799 0.19771 0.0
H376 H 0.60436 0.10521 0.94645 0.0
H377 H 0.71409 0.25118 -0.03124 0.0
H378 H 0.7282 0.23357 0.01732 0.0
H379 H 0.6873 0.22595 0.04647 0.0
C380 C 0.68557 0.16413 0.16219 0.0
C381 C 0.65247 0.1494 0.20247 0.0
C382 C 0.68488 0.16853 0.08733 0.0
C383 C 0.65114 0.15825 0.05253 0.0
C384 C 0.61809 0.14356 0.09267 0.0
H385 H 0.56759 0.14142 0.6109 0.0
H386 H 0.57615 0.14069 0.74443 0.0
C387 C 0.61881 0.13928 0.16746 0.0
C388 C 0.64939 0.1614 -0.0268 0.0
H389 H 0.6873 0.22087 0.84803 0.0
C390 C 0.62244 0.13042 0.92465 0.0
C391 C 0.67343 0.19451 0.94595 0.0
C392 C 0.70229 0.2283 -0.00289 0.0
C393 C 0.61863 0.13157 0.84852 0.0
C394 C 0.64191 0.16457 0.82133 0.0
C395 C 0.66944 0.19568 0.86976 0.0
C396 C 0.63772 0.16714 0.74253 0.0
C397 C 0.59014 0.09758 0.79769 0.0
C398 C 0.67005 0.18334 0.69878 0.0
C399 C 0.66532 0.184 0.62301 0.0
C400 C 0.62821 0.1684 0.59055 0.0
C401 C 0.59634 0.15331 0.63494 0.0
C402 C 0.60112 0.15275 0.71075 0.0
H403 H 0.58211 0.07581 0.8243 0.0
H404 H 0.5619 0.08973 0.78387 0.0
H405 H 0.6036 0.1009 0.74488 0.0
H406 H 0.69855 0.19474 0.72296 0.0
H407 H 0.69043 0.19615 0.58967 0.0
H408 H 0.6462 0.64886 0.64147 0.0
H409 H 0.64278 0.65855 0.5129 0.0
H410 H 0.51406 0.58674 0.5141 0.0
H411 H 0.51732 0.57634 0.6423 0.0
H412 H 0.53226 0.57206 0.39421 0.0
H413 H 0.62904 0.7147 0.42623 0.0
H414 H 0.65489 0.70599 0.46624 0.0
H415 H 0.61 0.68912 0.5048 0.0
C416 C 0.61733 0.63555 0.61441 0.0
C417 C 0.58206 0.61203 0.65127 0.0
C418 C 0.61541 0.64129 0.54137 0.0
C419 C 0.57827 0.62396 0.50465 0.0
C420 C 0.54302 0.60059 0.54179 0.0
H421 H 0.59327 0.6808 0.05348 0.0
H422 H 0.5742 0.66853 0.18162 0.0
C423 C 0.5449 0.5946 0.61465 0.0
C424 C 0.57603 0.62802 0.42551 0.0
H425 H 0.62211 0.6899 0.30306 0.0
C426 C 0.5513 0.59777 0.3743 0.0
C427 C 0.60011 0.66146 0.39976 0.0
C428 C 0.62462 0.69458 0.45234 0.0
C429 C 0.55217 0.60032 0.2976 0.0
C430 C 0.57928 0.63403 0.27182 0.0
C431 C 0.60185 0.66408 0.32301 0.0
C432 C 0.58734 0.63896 0.19274 0.0
C433 C 0.52459 0.56691 0.24507 0.0
C434 C 0.60111 0.62647 0.15698 0.0
C435 C 0.61172 0.63323 0.08407 0.0
C436 C 0.60939 0.65312 0.0464 0.0
C437 C 0.59546 0.66552 0.08186 0.0
C438 C 0.58448 0.65847 0.15469 0.0
H439 H 0.49678 0.54462 0.27116 0.0
H440 H 0.51583 0.57017 0.19255 0.0
H441 H 0.54035 0.55976 0.23132 0.0
H442 H 0.60468 0.61226 0.18613 0.0
H443 H 0.62277 0.62373 0.05794 0.0
loop_
_geom_bond_atom_site_label_1
_geom_bond_atom_site_label_2
_geom_bond_distance
_geom_bond_site_symmetry_2
_ccdc_geom_bond_type
La0 C2 2.928 . S
La0 O20 2.521 . S
La0 O21 2.628 . S
La0 O22 2.554 . S
La0 O23 2.757 . S
La0 O24 2.470 . S
La0 O29 2.482 . S
La0 O31 2.503 1_455 S
La1 C11 2.928 1_455 S
La1 O23 2.482 . S
La1 O25 2.503 . S
La1 O26 2.521 1_455 S
La1 O27 2.628 1_455 S
La1 O28 2.554 . S
La1 O29 2.757 . S
La1 O30 2.470 1_455 S
C2 La0 2.928 . S
C2 C3 1.503 . S
C2 O20 1.261 . S
C2 O21 1.243 . S
C3 C2 1.503 . S
C3 C4 1.394 . S
C3 C8 1.373 . S
C4 C3 1.394 . S
C4 C5 1.380 . S
C4 H32 0.930 . S
C5 C4 1.380 . S
C5 C6 1.376 . S
C5 H33 0.930 . S
C6 C5 1.376 . S
C6 C7 1.370 . S
C7 C6 1.370 . S
C7 C8 1.396 . S
C7 H34 0.929 . S
C8 C3 1.373 . S
C8 C7 1.396 . S
C8 H35 0.929 . S
C9 O22 1.240 . S
C9 O23 1.289 . S
C10 O24 1.258 . S
C10 O25 1.256 . S
C11 La1 2.928 1_655 S
C11 C12 1.503 . S
C11 O26 1.261 . S
C11 O27 1.243 . S
C12 C11 1.503 . S
C12 C13 1.394 . S
C12 C17 1.373 . S
C13 C12 1.394 . S
C13 C14 1.380 . S
C13 H36 0.930 . S
C14 C13 1.380 . S
C14 C15 1.376 . S
C14 H37 0.930 . S
C15 C14 1.376 . S
C15 C16 1.370 . S
C16 C15 1.370 . S
C16 C17 1.396 . S
C16 H38 0.929 . S
C17 C12 1.373 . S
C17 C16 1.396 . S
C17 H39 0.929 . S
C18 O28 1.240 . S
C18 O29 1.289 . S
C19 O30 1.258 . S
C19 O31 1.256 . S
O20 La0 2.521 . S
O20 C2 1.261 . S
O21 La0 2.628 . S
O21 C2 1.243 . S
O22 La0 2.554 . S
O22 C9 1.240 . S
O23 La0 2.757 . S
O23 La1 2.482 . S
O23 C9 1.289 . S
O24 La0 2.470 . S
O24 C10 1.258 . S
O25 La1 2.503 . S
O25 C10 1.256 . S
O26 La1 2.521 1_655 S
O26 C11 1.261 . S
O27 La1 2.628 1_655 S
O27 C11 1.243 . S
O28 La1 2.554 . S
O28 C18 1.240 . S
O29 La0 2.482 . S
O29 La1 2.757 . S
O29 C18 1.289 . S
O30 La1 2.470 1_655 S
O30 C19 1.258 . S
O31 La0 2.503 1_655 S
O31 C19 1.256 . S
H32 C4 0.930 . S
H33 C5 0.930 . S
H34 C7 0.929 . S
H35 C8 0.929 . S
H36 C13 0.930 . S
H37 C14 0.930 . S
H38 C16 0.929 . S
H39 C17 0.929 . S
La40 C42 2.928 . S
La40 O60 2.521 . S
La40 O61 2.628 . S
La40 O62 2.554 . S
La40 O63 2.757 . S
La40 O64 2.470 . S
La40 O69 2.482 . S
La40 O71 2.503 . S
La41 C51 2.928 . S
La41 O63 2.482 . S
La41 O65 2.503 . S
La41 O66 2.521 . S
La41 O67 2.628 . S
La41 O68 2.554 . S
La41 O69 2.757 . S
La41 O70 2.470 . S
C42 La40 2.928 . S
C42 C43 1.503 1_545 S
C42 O60 1.261 . S
C42 O61 1.243 . S
C43 C42 1.503 1_565 S
C43 C44 1.394 . S
C43 C48 1.373 . S
C44 C43 1.394 . S
C44 C45 1.380 . S
C44 H72 0.930 . S
C45 C44 1.380 . S
C45 C46 1.376 . S
C45 H73 0.930 . S
C46 C45 1.376 . S
C46 C47 1.370 . S
C47 C46 1.370 . S
C47 C48 1.396 . S
C47 H74 0.929 . S
C48 C43 1.373 . S
C48 C47 1.396 . S
C48 H75 0.929 . S
C49 O62 1.240 . S
C49 O63 1.289 . S
C50 O64 1.258 . S
C50 O65 1.256 . S
C51 La41 2.928 . S
C51 C52 1.503 . S
C51 O66 1.261 . S
C51 O67 1.243 . S
C52 C51 1.503 . S
C52 C53 1.394 . S
C52 C57 1.373 . S
C53 C52 1.394 . S
C53 C54 1.380 . S
C53 H76 0.930 . S
C54 C53 1.380 . S
C54 C55 1.376 . S
C54 H77 0.930 . S
C55 C54 1.376 . S
C55 C56 1.370 . S
C56 C55 1.370 . S
C56 C57 1.396 . S
C56 H78 0.929 . S
C57 C52 1.373 . S
C57 C56 1.396 . S
C57 H79 0.929 . S
C58 O68 1.240 . S
C58 O69 1.289 . S
C59 O70 1.258 . S
C59 O71 1.256 . S
O60 La40 2.521 . S
O60 C42 1.261 . S
O61 La40 2.628 . S
O61 C42 1.243 . S
O62 La40 2.554 . S
O62 C49 1.240 . S
O63 La40 2.757 . S
O63 La41 2.482 . S
O63 C49 1.289 . S
O64 La40 2.470 . S
O64 C50 1.258 . S
O65 La41 2.503 . S
O65 C50 1.256 . S
O66 La41 2.521 . S
O66 C51 1.261 . S
O67 La41 2.628 . S
O67 C51 1.243 . S
O68 La41 2.554 . S
O68 C58 1.240 . S
O69 La40 2.482 . S
O69 La41 2.757 . S
O69 C58 1.289 . S
O70 La41 2.470 . S
O70 C59 1.258 . S
O71 La40 2.503 . S
O71 C59 1.256 . S
H72 C44 0.930 . S
H73 C45 0.930 . S
H74 C47 0.929 . S
H75 C48 0.929 . S
H76 C53 0.930 . S
H77 C54 0.930 . S
H78 C56 0.929 . S
H79 C57 0.929 . S
La80 C82 2.928 . S
La80 O100 2.521 . S
La80 O101 2.628 . S
La80 O102 2.554 1_556 S
La80 O103 2.757 . S
La80 O104 2.470 . S
La80 O109 2.482 . S
La80 O111 2.503 . S
La81 C91 2.928 . S
La81 O103 2.482 . S
La81 O105 2.503 . S
La81 O106 2.521 . S
La81 O107 2.628 . S
La81 O108 2.554 . S
La81 O109 2.757 . S
La81 O110 2.470 . S
C82 La80 2.928 . S
C82 C83 1.503 . S
C82 O100 1.261 . S
C82 O101 1.243 . S
C83 C82 1.503 . S
C83 C84 1.394 . S
C83 C88 1.373 . S
C84 C83 1.394 . S
C84 C85 1.380 . S
C84 H112 0.930 . S
C85 C84 1.380 . S
C85 C86 1.376 . S
C85 H113 0.930 . S
C86 C85 1.376 . S
C86 C87 1.370 . S
C87 C86 1.370 . S
C87 C88 1.396 . S
C87 H114 0.929 . S
C88 C83 1.373 . S
C88 C87 1.396 . S
C88 H115 0.929 . S
C89 O102 1.240 . S
C89 O103 1.289 1_554 S
C90 O104 1.258 . S
C90 O105 1.256 . S
C91 La81 2.928 . S
C91 C92 1.503 . S
C91 O106 1.261 . S
C91 O107 1.243 . S
C92 C91 1.503 . S
C92 C93 1.394 . S
C92 C97 1.373 . S
C93 C92 1.394 . S
C93 C94 1.380 . S
C93 H116 0.930 . S
C94 C93 1.380 . S
C94 C95 1.376 . S
C94 H117 0.930 . S
C95 C94 1.376 . S
C95 C96 1.370 . S
C96 C95 1.370 . S
C96 C97 1.396 . S
C96 H118 0.929 . S
C97 C92 1.373 . S
C97 C96 1.396 . S
C97 H119 0.929 . S
C98 O108 1.240 . S
C98 O109 1.289 . S
C99 O110 1.258 . S
C99 O111 1.256 . S
O100 La80 2.521 . S
O100 C82 1.261 . S
O101 La80 2.628 . S
O101 C82 1.243 . S
O102 La80 2.554 1_554 S
O102 C89 1.240 . S
O103 La80 2.757 . S
O103 La81 2.482 . S
O103 C89 1.289 1_556 S
O104 La80 2.470 . S
O104 C90 1.258 . S
O105 La81 2.503 . S
O105 C90 1.256 . S
O106 La81 2.521 . S
O106 C91 1.261 . S
O107 La81 2.628 . S
O107 C91 1.243 . S
O108 La81 2.554 . S
O108 C98 1.240 . S
O109 La80 2.482 . S
O109 La81 2.757 . S
O109 C98 1.289 . S
O110 La81 2.470 . S
O110 C99 1.258 . S
O111 La80 2.503 . S
O111 C99 1.256 . S
H112 C84 0.930 . S
H113 C85 0.930 . S
H114 C87 0.929 . S
H115 C88 0.929 . S
H116 C93 0.930 . S
H117 C94 0.930 . S
H118 C96 0.929 . S
H119 C97 0.929 . S
H120 C128 0.929 . S
H121 C130 0.930 . S
H122 C132 0.930 1_556 S
H123 C135 0.929 . S
H124 C138 0.930 . S
H125 C140 0.960 . S
H126 C140 0.960 . S
H127 C140 0.960 . S
C128 H120 0.929 . S
C128 C129 1.377 . S
C128 C130 1.384 . S
C129 C128 1.377 . S
C129 C135 1.390 . S
C130 H121 0.930 . S
C130 C128 1.384 . S
C130 C131 1.372 . S
C131 C130 1.372 . S
C131 C132 1.400 . S
C131 C136 1.490 . S
C132 H122 0.930 1_554 S
C132 C131 1.400 . S
C132 C135 1.386 . S
H133 C149 0.930 . S
H134 C150 0.931 . S
C135 H123 0.929 . S
C135 C129 1.390 . S
C135 C132 1.386 . S
C136 C131 1.490 . S
C136 C138 1.395 . S
C136 C139 1.403 1_554 S
H137 C143 0.930 . S
C138 H124 0.930 . S
C138 C136 1.395 . S
C138 C141 1.403 . S
C139 C136 1.403 1_556 S
C139 C140 1.524 . S
C139 C143 1.400 . S
C140 H125 0.960 . S
C140 H126 0.960 . S
C140 H127 0.960 . S
C140 C139 1.524 . S
C141 C138 1.403 . S
C141 C142 1.392 1_554 S
C141 C145 1.495 . S
C142 C141 1.392 1_556 S
C142 C143 1.385 . S
C142 C144 1.478 . S
C143 H137 0.930 . S
C143 C139 1.400 . S
C143 C142 1.385 . S
C144 C142 1.478 . S
C144 C146 1.381 . S
C144 C150 1.383 . S
C145 C141 1.495 . S
C145 H151 0.959 . S
C145 H152 0.961 . S
C145 H153 0.960 . S
C146 C144 1.381 . S
C146 C147 1.394 . S
C146 H154 0.930 1_556 S
C147 C146 1.394 . S
C147 C148 1.383 . S
C147 H155 0.929 . S
C148 C147 1.383 . S
C148 C149 1.377 . S
C149 H133 0.930 . S
C149 C148 1.377 . S
C149 C150 1.379 . S
C150 H134 0.931 . S
C150 C144 1.383 . S
C150 C149 1.379 . S
H151 C145 0.959 . S
H152 C145 0.961 . S
H153 C145 0.960 . S
H154 C146 0.930 1_554 S
H155 C147 0.929 . S
H156 C164 0.929 . S
H157 C166 0.930 . S
H158 C168 0.930 . S
H159 C171 0.929 . S
H160 C174 0.930 . S
H161 C176 0.960 . S
H162 C176 0.960 . S
H163 C176 0.960 . S
C164 H156 0.929 . S
C164 C165 1.377 . S
C164 C166 1.384 . S
C165 C164 1.377 . S
C165 C171 1.390 . S
C166 H157 0.930 . S
C166 C164 1.384 . S
C166 C167 1.372 . S
C167 C166 1.372 . S
C167 C168 1.400 . S
C167 C172 1.490 . S
C168 H158 0.930 . S
C168 C167 1.400 . S
C168 C171 1.386 . S
H169 C185 0.930 . S
H170 C186 0.931 . S
C171 H159 0.929 . S
C171 C165 1.390 . S
C171 C168 1.386 . S
C172 C167 1.490 . S
C172 C174 1.395 . S
C172 C175 1.403 . S
H173 C179 0.930 . S
C174 H160 0.930 . S
C174 C172 1.395 . S
C174 C177 1.403 . S
C175 C172 1.403 . S
C175 C176 1.524 . S
C175 C179 1.400 . S
C176 H161 0.960 . S
C176 H162 0.960 . S
C176 H163 0.960 . S
C176 C175 1.524 . S
C177 C174 1.403 . S
C177 C178 1.392 . S
C177 C181 1.495 . S
C178 C177 1.392 . S
C178 C179 1.385 . S
C178 C180 1.478 . S
C179 H173 0.930 . S
C179 C175 1.400 . S
C179 C178 1.385 . S
C180 C178 1.478 . S
C180 C182 1.381 . S
C180 C186 1.383 . S
C181 C177 1.495 . S
C181 H187 0.959 . S
C181 H188 0.961 . S
C181 H189 0.960 . S
C182 C180 1.381 . S
C182 C183 1.394 . S
C182 H190 0.930 . S
C183 C182 1.394 . S
C183 C184 1.383 . S
C183 H191 0.929 . S
C184 C183 1.383 . S
C184 C185 1.377 . S
C185 H169 0.930 . S
C185 C184 1.377 . S
C185 C186 1.379 . S
C186 H170 0.931 . S
C186 C180 1.383 . S
C186 C185 1.379 . S
H187 C181 0.959 . S
H188 C181 0.961 . S
H189 C181 0.960 . S
H190 C182 0.930 . S
H191 C183 0.929 . S
H192 C200 0.929 . S
H193 C202 0.930 . S
H194 C204 0.930 . S
H195 C207 0.929 . S
H196 C210 0.930 . S
H197 C212 0.960 . S
H198 C212 0.960 . S
H199 C212 0.960 . S
C200 H192 0.929 . S
C200 C201 1.377 . S
C200 C202 1.384 . S
C201 C200 1.377 . S
C201 C207 1.390 . S
C202 H193 0.930 . S
C202 C200 1.384 . S
C202 C203 1.372 . S
C203 C202 1.372 . S
C203 C204 1.400 . S
C203 C208 1.490 . S
C204 H194 0.930 . S
C204 C203 1.400 . S
C204 C207 1.386 . S
H205 C221 0.930 . S
H206 C222 0.931 . S
C207 H195 0.929 . S
C207 C201 1.390 . S
C207 C204 1.386 . S
C208 C203 1.490 . S
C208 C210 1.395 . S
C208 C211 1.403 . S
H209 C215 0.930 . S
C210 H196 0.930 . S
C210 C208 1.395 . S
C210 C213 1.403 . S
C211 C208 1.403 . S
C211 C212 1.524 . S
C211 C215 1.400 . S
C212 H197 0.960 . S
C212 H198 0.960 . S
C212 H199 0.960 . S
C212 C211 1.524 . S
C213 C210 1.403 . S
C213 C214 1.392 . S
C213 C217 1.495 . S
C214 C213 1.392 . S
C214 C215 1.385 . S
C214 C216 1.478 . S
C215 H209 0.930 . S
C215 C211 1.400 . S
C215 C214 1.385 . S
C216 C214 1.478 . S
C216 C218 1.381 . S
C216 C222 1.383 . S
C217 C213 1.495 . S
C217 H223 0.959 . S
C217 H224 0.961 . S
C217 H225 0.960 . S
C218 C216 1.381 . S
C218 C219 1.394 . S
C218 H226 0.930 . S
C219 C218 1.394 . S
C219 C220 1.383 . S
C219 H227 0.929 . S
C220 C219 1.383 . S
C220 C221 1.377 . S
C221 H205 0.930 . S
C221 C220 1.377 . S
C221 C222 1.379 . S
C222 H206 0.931 . S
C222 C216 1.383 . S
C222 C221 1.379 . S
H223 C217 0.959 . S
H224 C217 0.961 . S
H225 C217 0.960 . S
H226 C218 0.930 . S
H227 C219 0.929 . S
H228 C236 0.929 . S
H229 C238 0.930 . S
H230 C240 0.930 1_554 S
H231 C243 0.929 . S
H232 C246 0.930 . S
H233 C248 0.960 . S
H234 C248 0.960 . S
H235 C248 0.960 . S
C236 H228 0.929 . S
C236 C237 1.377 . S
C236 C238 1.384 . S
C237 C236 1.377 . S
C237 C243 1.390 . S
C238 H229 0.930 . S
C238 C236 1.384 . S
C238 C239 1.372 . S
C239 C238 1.372 . S
C239 C240 1.400 . S
C239 C244 1.490 . S
C240 H230 0.930 1_556 S
C240 C239 1.400 . S
C240 C243 1.386 . S
H241 C257 0.930 . S
H242 C258 0.931 . S
C243 H231 0.929 . S
C243 C237 1.390 . S
C243 C240 1.386 . S
C244 C239 1.490 . S
C244 C246 1.395 1_556 S
C244 C247 1.403 . S
H245 C251 0.930 . S
C246 H232 0.930 . S
C246 C244 1.395 1_554 S
C246 C249 1.403 . S
C247 C244 1.403 . S
C247 C248 1.524 . S
C247 C251 1.400 1_556 S
C248 H233 0.960 . S
C248 H234 0.960 . S
C248 H235 0.960 . S
C248 C247 1.524 . S
C249 C246 1.403 . S
C249 C250 1.392 . S
C249 C253 1.495 . S
C250 C249 1.392 . S
C250 C251 1.385 . S
C250 C252 1.478 . S
C251 H245 0.930 . S
C251 C247 1.400 1_554 S
C251 C250 1.385 . S
C252 C250 1.478 . S
C252 C254 1.381 . S
C252 C258 1.383 . S
C253 C249 1.495 . S
C253 H259 0.959 . S
C253 H260 0.961 . S
C253 H261 0.960 . S
C254 C252 1.381 . S
C254 C255 1.394 . S
C254 H262 0.930 . S
C255 C254 1.394 . S
C255 C256 1.383 . S
C255 H263 0.929 . S
C256 C255 1.383 . S
C256 C257 1.377 . S
C257 H241 0.930 . S
C257 C256 1.377 . S
C257 C258 1.379 . S
C258 H242 0.931 . S
C258 C252 1.383 . S
C258 C257 1.379 . S
H259 C253 0.959 . S
H260 C253 0.961 . S
H261 C253 0.960 . S
H262 C254 0.930 . S
H263 C255 0.929 . S
H264 C272 0.929 . S
H265 C274 0.930 . S
H266 C276 0.930 . S
H267 C279 0.929 . S
H268 C282 0.930 . S
H269 C284 0.960 . S
H270 C284 0.960 . S
H271 C284 0.960 . S
C272 H264 0.929 . S
C272 C273 1.377 . S
C272 C274 1.384 . S
C273 C272 1.377 . S
C273 C279 1.390 . S
C274 H265 0.930 . S
C274 C272 1.384 . S
C274 C275 1.372 . S
C275 C274 1.372 . S
C275 C276 1.400 . S
C275 C280 1.490 . S
C276 H266 0.930 . S
C276 C275 1.400 . S
C276 C279 1.386 . S
H277 C293 0.930 . S
H278 C294 0.931 . S
C279 H267 0.929 . S
C279 C273 1.390 . S
C279 C276 1.386 . S
C280 C275 1.490 . S
C280 C282 1.395 . S
C280 C283 1.403 . S
H281 C287 0.930 . S
C282 H268 0.930 . S
C282 C280 1.395 . S
C282 C285 1.403 . S
C283 C280 1.403 . S
C283 C284 1.524 . S
C283 C287 1.400 . S
C284 H269 0.960 . S
C284 H270 0.960 . S
C284 H271 0.960 . S
C284 C283 1.524 . S
C285 C282 1.403 . S
C285 C286 1.392 . S
C285 C289 1.495 . S
C286 C285 1.392 . S
C286 C287 1.385 . S
C286 C288 1.478 . S
C287 H281 0.930 . S
C287 C283 1.400 . S
C287 C286 1.385 . S
C288 C286 1.478 . S
C288 C290 1.381 . S
C288 C294 1.383 . S
C289 C285 1.495 . S
C289 H295 0.959 . S
C289 H296 0.961 . S
C289 H297 0.960 . S
C290 C288 1.381 . S
C290 C291 1.394 . S
C290 H298 0.930 . S
C291 C290 1.394 . S
C291 C292 1.383 . S
C291 H299 0.929 . S
C292 C291 1.383 . S
C292 C293 1.377 . S
C293 H277 0.930 . S
C293 C292 1.377 . S
C293 C294 1.379 . S
C294 H278 0.931 . S
C294 C288 1.383 . S
C294 C293 1.379 . S
H295 C289 0.959 . S
H296 C289 0.961 . S
H297 C289 0.960 . S
H298 C290 0.930 . S
H299 C291 0.929 . S
H300 C308 0.929 . S
H301 C310 0.930 . S
H302 C312 0.930 . S
H303 C315 0.929 . S
H304 C318 0.930 . S
H305 C320 0.960 . S
H306 C320 0.960 . S
H307 C320 0.960 . S
C308 H300 0.929 . S
C308 C309 1.377 . S
C308 C310 1.384 . S
C309 C308 1.377 . S
C309 C315 1.390 . S
C310 H301 0.930 . S
C310 C308 1.384 . S
C310 C311 1.372 . S
C311 C310 1.372 . S
C311 C312 1.400 . S
C311 C316 1.490 . S
C312 H302 0.930 . S
C312 C311 1.400 . S
C312 C315 1.386 . S
H313 C329 0.930 . S
H314 C330 0.931 . S
C315 H303 0.929 . S
C315 C309 1.390 . S
C315 C312 1.386 . S
C316 C311 1.490 . S
C316 C318 1.395 . S
C316 C319 1.403 . S
H317 C323 0.930 . S
C318 H304 0.930 . S
C318 C316 1.395 . S
C318 C321 1.403 . S
C319 C316 1.403 . S
C319 C320 1.524 . S
C319 C323 1.400 . S
C320 H305 0.960 . S
C320 H306 0.960 . S
C320 H307 0.960 . S
C320 C319 1.524 . S
C321 C318 1.403 . S
C321 C322 1.392 . S
C321 C325 1.495 . S
C322 C321 1.392 . S
C322 C323 1.385 . S
C322 C324 1.478 . S
C323 H317 0.930 . S
C323 C319 1.400 . S
C323 C322 1.385 . S
C324 C322 1.478 . S
C324 C326 1.381 . S
C324 C330 1.383 . S
C325 C321 1.495 . S
C325 H331 0.959 . S
C325 H332 0.961 . S
C325 H333 0.960 . S
C326 C324 1.381 . S
C326 C327 1.394 . S
C326 H334 0.930 . S
C327 C326 1.394 . S
C327 C328 1.383 . S
C327 H335 0.929 . S
C328 C327 1.383 . S
C328 C329 1.377 . S
C329 H313 0.930 . S
C329 C328 1.377 . S
C329 C330 1.379 . S
C330 H314 0.931 . S
C330 C324 1.383 . S
C330 C329 1.379 . S
H331 C325 0.959 . S
H332 C325 0.961 . S
H333 C325 0.960 . S
H334 C326 0.930 . S
H335 C327 0.929 . S
H336 C344 0.929 1_554 S
H337 C346 0.930 . S
H338 C348 0.930 . S
H339 C351 0.929 . S
H340 C354 0.930 . S
H341 C356 0.960 . S
H342 C356 0.960 . S
H343 C356 0.960 . S
C344 H336 0.929 1_556 S
C344 C345 1.377 1_556 S
C344 C346 1.384 . S
C345 C344 1.377 1_554 S
C345 C351 1.390 1_554 S
C346 H337 0.930 . S
C346 C344 1.384 . S
C346 C347 1.372 . S
C347 C346 1.372 . S
C347 C348 1.400 . S
C347 C352 1.490 . S
C348 H338 0.930 . S
C348 C347 1.400 . S
C348 C351 1.386 . S
H349 C365 0.930 . S
H350 C366 0.931 . S
C351 H339 0.929 . S
C351 C345 1.390 1_556 S
C351 C348 1.386 . S
C352 C347 1.490 . S
C352 C354 1.395 . S
C352 C355 1.403 . S
H353 C359 0.930 1_655 S
C354 H340 0.930 . S
C354 C352 1.395 . S
C354 C357 1.403 . S
C355 C352 1.403 . S
C355 C356 1.524 1_455 S
C355 C359 1.400 . S
C356 H341 0.960 . S
C356 H342 0.960 . S
C356 H343 0.960 . S
C356 C355 1.524 1_655 S
C357 C354 1.403 . S
C357 C358 1.392 . S
C357 C361 1.495 . S
C358 C357 1.392 . S
C358 C359 1.385 . S
C358 C360 1.478 . S
C359 H353 0.930 1_455 S
C359 C355 1.400 . S
C359 C358 1.385 . S
C360 C358 1.478 . S
C360 C362 1.381 . S
C360 C366 1.383 . S
C361 C357 1.495 . S
C361 H367 0.959 . S
C361 H368 0.961 . S
C361 H369 0.960 . S
C362 C360 1.381 . S
C362 C363 1.394 . S
C362 H370 0.930 . S
C363 C362 1.394 . S
C363 C364 1.383 . S
C363 H371 0.929 1_455 S
C364 C363 1.383 . S
C364 C365 1.377 . S
C365 H349 0.930 . S
C365 C364 1.377 . S
C365 C366 1.379 . S
C366 H350 0.931 . S
C366 C360 1.383 . S
C366 C365 1.379 . S
H367 C361 0.959 . S
H368 C361 0.961 . S
H369 C361 0.960 . S
H370 C362 0.930 . S
H371 C363 0.929 1_655 S
H372 C380 0.929 . S
H373 C382 0.930 . S
H374 C384 0.930 . S
H375 C387 0.929 . S
H376 C390 0.930 . S
H377 C392 0.960 . S
H378 C392 0.960 . S
H379 C392 0.960 . S
C380 H372 0.929 . S
C380 C381 1.377 . S
C380 C382 1.384 . S
C381 C380 1.377 . S
C381 C387 1.390 . S
C382 H373 0.930 . S
C382 C380 1.384 . S
C382 C383 1.372 . S
C383 C382 1.372 . S
C383 C384 1.400 . S
C383 C388 1.490 . S
C384 H374 0.930 . S
C384 C383 1.400 . S
C384 C387 1.386 . S
H385 C401 0.930 . S
H386 C402 0.931 . S
C387 H375 0.929 . S
C387 C381 1.390 . S
C387 C384 1.386 . S
C388 C383 1.490 . S
C388 C390 1.395 . S
C388 C391 1.403 . S
H389 C395 0.930 . S
C390 H376 0.930 . S
C390 C388 1.395 . S
C390 C393 1.403 1_554 S
C391 C388 1.403 . S
C391 C392 1.524 . S
C391 C395 1.400 1_554 S
C392 H377 0.960 . S
C392 H378 0.960 . S
C392 H379 0.960 . S
C392 C391 1.524 . S
C393 C390 1.403 1_556 S
C393 C394 1.392 . S
C393 C397 1.495 . S
C394 C393 1.392 . S
C394 C395 1.385 . S
C394 C396 1.478 . S
C395 H389 0.930 . S
C395 C391 1.400 1_556 S
C395 C394 1.385 . S
C396 C394 1.478 . S
C396 C398 1.381 . S
C396 C402 1.383 . S
C397 C393 1.495 . S
C397 H403 0.959 . S
C397 H404 0.961 . S
C397 H405 0.960 . S
C398 C396 1.381 . S
C398 C399 1.394 . S
C398 H406 0.930 . S
C399 C398 1.394 . S
C399 C400 1.383 . S
C399 H407 0.929 . S
C400 C399 1.383 . S
C400 C401 1.377 . S
C401 H385 0.930 . S
C401 C400 1.377 . S
C401 C402 1.379 . S
C402 H386 0.931 . S
C402 C396 1.383 . S
C402 C401 1.379 . S
H403 C397 0.959 . S
H404 C397 0.961 . S
H405 C397 0.960 . S
H406 C398 0.930 . S
H407 C399 0.929 . S
H408 C416 0.929 . S
H409 C418 0.930 . S
H410 C420 0.930 . S
H411 C423 0.929 . S
H412 C426 0.930 . S
H413 C428 0.960 . S
H414 C428 0.960 . S
H415 C428 0.960 . S
C416 H408 0.929 . S
C416 C417 1.377 . S
C416 C418 1.384 . S
C417 C416 1.377 . S
C417 C423 1.390 . S
C418 H409 0.930 . S
C418 C416 1.384 . S
C418 C419 1.372 . S
C419 C418 1.372 . S
C419 C420 1.400 . S
C419 C424 1.490 . S
C420 H410 0.930 . S
C420 C419 1.400 . S
C420 C423 1.386 . S
H421 C437 0.930 . S
H422 C438 0.931 . S
C423 H411 0.929 . S
C423 C417 1.390 . S
C423 C420 1.386 . S
C424 C419 1.490 . S
C424 C426 1.395 . S
C424 C427 1.403 . S
H425 C431 0.930 . S
C426 H412 0.930 . S
C426 C424 1.395 . S
C426 C429 1.403 . S
C427 C424 1.403 . S
C427 C428 1.524 . S
C427 C431 1.400 . S
C428 H413 0.960 . S
C428 H414 0.960 . S
C428 H415 0.960 . S
C428 C427 1.524 . S
C429 C426 1.403 . S
C429 C430 1.392 . S
C429 C433 1.495 . S
C430 C429 1.392 . S
C430 C431 1.385 . S
C430 C432 1.478 . S
C431 H425 0.930 . S
C431 C427 1.400 . S
C431 C430 1.385 . S
C432 C430 1.478 . S
C432 C434 1.381 . S
C432 C438 1.383 . S
C433 C429 1.495 . S
C433 H439 0.959 . S
C433 H440 0.961 . S
C433 H441 0.960 . S
C434 C432 1.381 . S
C434 C435 1.394 . S
C434 H442 0.930 . S
C435 C434 1.394 . S
C435 C436 1.383 . S
C435 H443 0.929 . S
C436 C435 1.383 . S
C436 C437 1.377 . S
C437 H421 0.930 . S
C437 C436 1.377 . S
C437 C438 1.379 . S
C438 H422 0.931 . S
C438 C432 1.383 . S
C438 C437 1.379 . S
H439 C433 0.959 . S
H440 C433 0.961 . S
H441 C433 0.960 . S
H442 C434 0.930 . S
H443 C435 0.929 . S
C129 C6 2.202 . S
C148 C90 2.131 . S
C165 C59 3.096 . S
C184 C19 3.046 . S
C201 C46 1.563 . S
C220 C86 1.561 . S
C237 C99 2.523 . S
C256 C15 2.409 . S
C273 C50 2.715 1_565 S
C292 C10 2.679 . S
C309 C95 1.472 . S
C328 C55 1.474 . S
C345 C18 0.411 . S
C364 C9 0.472 . S
C381 C49 0.374 . S
C400 C58 0.389 . S
C417 C98 0.390 . S
C436 C89 0.479 . S
