# Generated by pormake.
# Topology uos, (4)-cn, num edge types: 1
# Building blocks:
#     Node 0, Type 0, BuildingBlock: CEKHIL_clean_sbu_0, # of connection points: 4
#     Node 1, Type 0, BuildingBlock: CEKHIL_clean_sbu_0, # of connection points: 4
#     Node 2, Type 0, BuildingBlock: CEKHIL_clean_sbu_0, # of connection points: 4
#     Node 3, Type 0, BuildingBlock: CEKHIL_clean_sbu_0, # of connection points: 4
#     Node 4, Type 0, BuildingBlock: CEKHIL_clean_sbu_0, # of connection points: 4
#     Node 5, Type 0, BuildingBlock: CEKHIL_clean_sbu_0, # of connection points: 4
#     Node 6, Type 0, BuildingBlock: CEKHIL_clean_sbu_0, # of connection points: 4
#     Node 7, Type 0, BuildingBlock: CEKHIL_clean_sbu_0, # of connection points: 4
#     Node 8, Type 0, BuildingBlock: CEKHIL_clean_sbu_0, # of connection points: 4
#     Node 9, Type 0, BuildingBlock: CEKHIL_clean_sbu_0, # of connection points: 4
#     Node 10, Type 0, BuildingBlock: CEKHIL_clean_sbu_0, # of connection points: 4
#     Node 11, Type 0, BuildingBlock: CEKHIL_clean_sbu_0, # of connection points: 4
#     Node 12, Type 0, BuildingBlock: CEKHIL_clean_sbu_0, # of connection points: 4
#     Node 13, Type 0, BuildingBlock: CEKHIL_clean_sbu_0, # of connection points: 4
#     Node 14, Type 0, BuildingBlock: CEKHIL_clean_sbu_0, # of connection points: 4
#     Node 15, Type 0, BuildingBlock: CEKHIL_clean_sbu_0, # of connection points: 4
#     Node 16, Type 0, BuildingBlock: CEKHIL_clean_sbu_0, # of connection points: 4
#     Node 17, Type 0, BuildingBlock: CEKHIL_clean_sbu_0, # of connection points: 4
#     Node 18, Type 0, BuildingBlock: CEKHIL_clean_sbu_0, # of connection points: 4
#     Node 19, Type 0, BuildingBlock: CEKHIL_clean_sbu_0, # of connection points: 4
#     Node 20, Type 0, BuildingBlock: CEKHIL_clean_sbu_0, # of connection points: 4
#     Node 21, Type 0, BuildingBlock: CEKHIL_clean_sbu_0, # of connection points: 4
#     Node 22, Type 0, BuildingBlock: CEKHIL_clean_sbu_0, # of connection points: 4
#     Node 23, Type 0, BuildingBlock: CEKHIL_clean_sbu_0, # of connection points: 4
#     Node 24, Type 0, BuildingBlock: CEKHIL_clean_sbu_0, # of connection points: 4
#     Node 25, Type 0, BuildingBlock: CEKHIL_clean_sbu_0, # of connection points: 4
#     Node 26, Type 0, BuildingBlock: CEKHIL_clean_sbu_0, # of connection points: 4
#     Node 27, Type 0, BuildingBlock: CEKHIL_clean_sbu_0, # of connection points: 4
#     Node 28, Type 0, BuildingBlock: CEKHIL_clean_sbu_0, # of connection points: 4
#     Node 29, Type 0, BuildingBlock: CEKHIL_clean_sbu_0, # of connection points: 4
#     Node 30, Type 0, BuildingBlock: CEKHIL_clean_sbu_0, # of connection points: 4
#     Node 31, Type 0, BuildingBlock: CEKHIL_clean_sbu_0, # of connection points: 4
#     Edge 32, Type (0, 0), BuildingBlock: XUDNAN_clean_linker_2, # of connection points: 2
#     Edge 33, Type (0, 0), BuildingBlock: XUDNAN_clean_linker_2, # of connection points: 2
#     Edge 34, Type (0, 0), BuildingBlock: XUDNAN_clean_linker_2, # of connection points: 2
#     Edge 35, Type (0, 0), BuildingBlock: XUDNAN_clean_linker_2, # of connection points: 2
#     Edge 36, Type (0, 0), BuildingBlock: XUDNAN_clean_linker_2, # of connection points: 2
#     Edge 37, Type (0, 0), BuildingBlock: XUDNAN_clean_linker_2, # of connection points: 2
#     Edge 38, Type (0, 0), BuildingBlock: XUDNAN_clean_linker_2, # of connection points: 2
#     Edge 39, Type (0, 0), BuildingBlock: XUDNAN_clean_linker_2, # of connection points: 2
#     Edge 40, Type (0, 0), BuildingBlock: XUDNAN_clean_linker_2, # of connection points: 2
#     Edge 41, Type (0, 0), BuildingBlock: XUDNAN_clean_linker_2, # of connection points: 2
#     Edge 42, Type (0, 0), BuildingBlock: XUDNAN_clean_linker_2, # of connection points: 2
#     Edge 43, Type (0, 0), BuildingBlock: XUDNAN_clean_linker_2, # of connection points: 2
#     Edge 44, Type (0, 0), BuildingBlock: XUDNAN_clean_linker_2, # of connection points: 2
#     Edge 45, Type (0, 0), BuildingBlock: XUDNAN_clean_linker_2, # of connection points: 2
#     Edge 46, Type (0, 0), BuildingBlock: XUDNAN_clean_linker_2, # of connection points: 2
#     Edge 47, Type (0, 0), BuildingBlock: XUDNAN_clean_linker_2, # of connection points: 2
#     Edge 48, Type (0, 0), BuildingBlock: XUDNAN_clean_linker_2, # of connection points: 2
#     Edge 49, Type (0, 0), BuildingBlock: XUDNAN_clean_linker_2, # of connection points: 2
#     Edge 50, Type (0, 0), BuildingBlock: XUDNAN_clean_linker_2, # of connection points: 2
#     Edge 51, Type (0, 0), BuildingBlock: XUDNAN_clean_linker_2, # of connection points: 2
#     Edge 52, Type (0, 0), BuildingBlock: XUDNAN_clean_linker_2, # of connection points: 2
#     Edge 53, Type (0, 0), BuildingBlock: XUDNAN_clean_linker_2, # of connection points: 2
#     Edge 54, Type (0, 0), BuildingBlock: XUDNAN_clean_linker_2, # of connection points: 2
#     Edge 55, Type (0, 0), BuildingBlock: XUDNAN_clean_linker_2, # of connection points: 2
#     Edge 56, Type (0, 0), BuildingBlock: XUDNAN_clean_linker_2, # of connection points: 2
#     Edge 57, Type (0, 0), BuildingBlock: XUDNAN_clean_linker_2, # of connection points: 2
#     Edge 58, Type (0, 0), BuildingBlock: XUDNAN_clean_linker_2, # of connection points: 2
#     Edge 59, Type (0, 0), BuildingBlock: XUDNAN_clean_linker_2, # of connection points: 2
#     Edge 60, Type (0, 0), BuildingBlock: XUDNAN_clean_linker_2, # of connection points: 2
#     Edge 61, Type (0, 0), BuildingBlock: XUDNAN_clean_linker_2, # of connection points: 2
#     Edge 62, Type (0, 0), BuildingBlock: XUDNAN_clean_linker_2, # of connection points: 2
#     Edge 63, Type (0, 0), BuildingBlock: XUDNAN_clean_linker_2, # of connection points: 2
#     Edge 64, Type (0, 0), BuildingBlock: XUDNAN_clean_linker_2, # of connection points: 2
#     Edge 65, Type (0, 0), BuildingBlock: XUDNAN_clean_linker_2, # of connection points: 2
#     Edge 66, Type (0, 0), BuildingBlock: XUDNAN_clean_linker_2, # of connection points: 2
#     Edge 67, Type (0, 0), BuildingBlock: XUDNAN_clean_linker_2, # of connection points: 2
#     Edge 68, Type (0, 0), BuildingBlock: XUDNAN_clean_linker_2, # of connection points: 2
#     Edge 69, Type (0, 0), BuildingBlock: XUDNAN_clean_linker_2, # of connection points: 2
#     Edge 70, Type (0, 0), BuildingBlock: XUDNAN_clean_linker_2, # of connection points: 2
#     Edge 71, Type (0, 0), BuildingBlock: XUDNAN_clean_linker_2, # of connection points: 2
#     Edge 72, Type (0, 0), BuildingBlock: XUDNAN_clean_linker_2, # of connection points: 2
#     Edge 73, Type (0, 0), BuildingBlock: XUDNAN_clean_linker_2, # of connection points: 2
#     Edge 74, Type (0, 0), BuildingBlock: XUDNAN_clean_linker_2, # of connection points: 2
#     Edge 75, Type (0, 0), BuildingBlock: XUDNAN_clean_linker_2, # of connection points: 2
#     Edge 76, Type (0, 0), BuildingBlock: XUDNAN_clean_linker_2, # of connection points: 2
#     Edge 77, Type (0, 0), BuildingBlock: XUDNAN_clean_linker_2, # of connection points: 2
#     Edge 78, Type (0, 0), BuildingBlock: XUDNAN_clean_linker_2, # of connection points: 2
#     Edge 79, Type (0, 0), BuildingBlock: XUDNAN_clean_linker_2, # of connection points: 2
#     Edge 80, Type (0, 0), BuildingBlock: XUDNAN_clean_linker_2, # of connection points: 2
#     Edge 81, Type (0, 0), BuildingBlock: XUDNAN_clean_linker_2, # of connection points: 2
#     Edge 82, Type (0, 0), BuildingBlock: XUDNAN_clean_linker_2, # of connection points: 2
#     Edge 83, Type (0, 0), BuildingBlock: XUDNAN_clean_linker_2, # of connection points: 2
#     Edge 84, Type (0, 0), BuildingBlock: XUDNAN_clean_linker_2, # of connection points: 2
#     Edge 85, Type (0, 0), BuildingBlock: XUDNAN_clean_linker_2, # of connection points: 2
#     Edge 86, Type (0, 0), BuildingBlock: XUDNAN_clean_linker_2, # of connection points: 2
#     Edge 87, Type (0, 0), BuildingBlock: XUDNAN_clean_linker_2, # of connection points: 2
#     Edge 88, Type (0, 0), BuildingBlock: XUDNAN_clean_linker_2, # of connection points: 2
#     Edge 89, Type (0, 0), BuildingBlock: XUDNAN_clean_linker_2, # of connection points: 2
#     Edge 90, Type (0, 0), BuildingBlock: XUDNAN_clean_linker_2, # of connection points: 2
#     Edge 91, Type (0, 0), BuildingBlock: XUDNAN_clean_linker_2, # of connection points: 2
#     Edge 92, Type (0, 0), BuildingBlock: XUDNAN_clean_linker_2, # of connection points: 2
#     Edge 93, Type (0, 0), BuildingBlock: XUDNAN_clean_linker_2, # of connection points: 2
#     Edge 94, Type (0, 0), BuildingBlock: XUDNAN_clean_linker_2, # of connection points: 2
#     Edge 95, Type (0, 0), BuildingBlock: XUDNAN_clean_linker_2, # of connection points: 2
# Relax obj value: 0.049
# Max RMSD: 0.070
# Mean RMSD: 0.070
data_MOF--net-uos--node1-CEKHIL_clean_sbu_0--edge1-XUDNAN_clean_linker_2
_symmetry_space_group_name_H-M    P1
_symmetry_Int_Tables_number       1
_symmetry_cell_setting            triclinic
loop_
_symmetry_equiv_pos_as_xyz
'x, y, z'
_cell_length_a     84.749459
_cell_length_b     84.822067
_cell_length_c     22.687124
_cell_angle_alpha  89.987807
_cell_angle_beta   89.967115
_cell_angle_gamma 89.994325
loop_
_atom_site_label
_atom_site_type_symbol
_atom_site_fract_x
_atom_site_fract_y
_atom_site_fract_z
_atom_type_partial_charge
Co0 Co 0.1694 0.17062 0.13953 0.0
O1 O 0.14917 0.16794 0.10262 0.0
O2 O 0.1688 0.1511 0.09289 0.0
C3 C 0.17218 0.19632 0.11338 0.0
O4 O 0.1922 0.17002 0.1708 0.0
Co5 Co 0.17331 0.19551 0.24048 0.0
O6 O 0.19597 0.19212 0.22414 0.0
C7 C 0.15993 0.16398 0.26708 0.0
C8 C 0.15441 0.15505 0.0791 0.0
C9 C 0.20119 0.17967 0.19941 0.0
O10 O 0.16164 0.15937 0.21319 0.0
O11 O 0.16323 0.17788 0.2852 0.0
O12 O 0.17591 0.1852 0.07658 0.0
O13 O 0.16585 0.1916 0.16186 0.0
Co14 Co 0.08949 0.92052 0.3868 0.0
O15 O 0.09214 0.89983 0.35339 0.0
O16 O 0.10914 0.91915 0.34084 0.0
C17 C 0.06384 0.92294 0.35858 0.0
O18 O 0.0902 0.94366 0.41432 0.0
Co19 Co 0.06403 0.9262 0.48474 0.0
O20 O 0.06773 0.94855 0.46426 0.0
C21 C 0.09549 0.91319 0.51666 0.0
C22 C 0.10504 0.9047 0.32882 0.0
C23 C 0.08052 0.95318 0.44034 0.0
O24 O 0.10038 0.91378 0.46266 0.0
O25 O 0.08148 0.91688 0.53265 0.0
O26 O 0.07513 0.92624 0.3219 0.0
O27 O 0.06837 0.91737 0.40856 0.0
Co28 Co 0.33881 0.84091 0.62671 0.0
O29 O 0.35885 0.84387 0.58875 0.0
O30 O 0.33889 0.86031 0.57913 0.0
C31 C 0.33668 0.815 0.60224 0.0
O32 O 0.31624 0.84107 0.66004 0.0
Co33 Co 0.33666 0.81656 0.73012 0.0
O34 O 0.31369 0.81992 0.71971 0.0
C35 C 0.35099 0.84787 0.75022 0.0
C36 C 0.35338 0.85667 0.56538 0.0
C37 C 0.30789 0.83181 0.69291 0.0
O38 O 0.34653 0.85265 0.69889 0.0
O39 O 0.34953 0.83362 0.76803 0.0
O40 O 0.33242 0.82585 0.56506 0.0
O41 O 0.34305 0.82016 0.64995 0.0
Co42 Co 0.42327 0.08921 0.85531 0.0
O43 O 0.4232 0.10848 0.81023 0.0
O44 O 0.40643 0.08901 0.79591 0.0
C45 C 0.44987 0.08549 0.85007 0.0
O46 O 0.42035 0.06713 0.89205 0.0
Co47 Co 0.44197 0.08714 0.97397 0.0
O48 O 0.43865 0.06425 0.96343 0.0
C49 C 0.41098 0.10307 0.97123 0.0
C50 C 0.41158 0.10282 0.77975 0.0
C51 C 0.42797 0.05867 0.93004 0.0
O52 O 0.4087 0.09894 0.91697 0.0
O53 O 0.42383 0.10045 0.99906 0.0
O54 O 0.44094 0.08118 0.80641 0.0
O55 O 0.44268 0.0928 0.89188 0.0
Co56 Co 0.16913 0.83871 0.91536 0.0
O57 O 0.15012 0.84015 0.9618 0.0
O58 O 0.17118 0.85481 0.97712 0.0
C59 C 0.1698 0.81182 0.91648 0.0
O60 O 0.19121 0.83995 0.87733 0.0
Co61 Co 0.16964 0.82058 0.79498 0.0
O62 O 0.19272 0.82129 0.80682 0.0
C63 C 0.15653 0.85304 0.80147 0.0
C64 C 0.15699 0.85084 0.99345 0.0
C65 C 0.19911 0.83171 0.83944 0.0
O66 O 0.16059 0.85463 0.85615 0.0
O67 O 0.15824 0.84022 0.77242 0.0
O68 O 0.17552 0.81967 0.96084 0.0
O69 O 0.16338 0.82033 0.87631 0.0
Co70 Co 0.42095 0.92179 0.16036 0.0
O71 O 0.41874 0.90343 0.20947 0.0
O72 O 0.40471 0.92511 0.22094 0.0
C73 C 0.44784 0.92115 0.16365 0.0
O74 O 0.42056 0.94328 0.1184 0.0
Co75 Co 0.43932 0.91961 0.041 0.0
O76 O 0.43813 0.94293 0.04371 0.0
C77 C 0.40712 0.90639 0.05204 0.0
C78 C 0.40816 0.91098 0.23941 0.0
C79 C 0.4283 0.95017 0.07655 0.0
O80 O 0.40494 0.91316 0.10233 0.0
O81 O 0.42033 0.90627 0.02463 0.0
O82 O 0.44001 0.92802 0.20576 0.0
O83 O 0.43927 0.91472 0.12367 0.0
Co84 Co 0.34371 0.17216 0.38543 0.0
O85 O 0.3642 0.16967 0.42073 0.0
O86 O 0.34488 0.15257 0.43164 0.0
C87 C 0.34078 0.19778 0.41302 0.0
O88 O 0.32073 0.17133 0.35617 0.0
Co89 Co 0.3387 0.19745 0.28639 0.0
O90 O 0.31622 0.19356 0.3044 0.0
C91 C 0.35196 0.16601 0.25631 0.0
C92 C 0.35924 0.15676 0.44495 0.0
C93 C 0.31139 0.18091 0.32878 0.0
O94 O 0.35101 0.16122 0.31032 0.0
O95 O 0.34837 0.17998 0.23964 0.0
O96 O 0.33741 0.18649 0.44957 0.0
O97 O 0.34684 0.19328 0.36378 0.0
Co98 Co 0.08726 0.09017 0.67131 0.0
O99 O 0.08833 0.10862 0.72029 0.0
O100 O 0.10542 0.0891 0.7252 0.0
C101 C 0.06102 0.0863 0.68594 0.0
O102 O 0.0891 0.06888 0.62816 0.0
Co103 Co 0.06558 0.09066 0.55999 0.0
O104 O 0.06887 0.0676 0.56381 0.0
C105 C 0.09712 0.10562 0.55507 0.0
C106 C 0.10048 0.10252 0.7462 0.0
C107 C 0.08044 0.06126 0.59081 0.0
O108 O 0.10031 0.10083 0.6078 0.0
O109 O 0.08368 0.1036 0.53044 0.0
O110 O 0.07121 0.08115 0.72406 0.0
O111 O 0.06688 0.09451 0.64342 0.0
Co112 Co 0.84055 0.8369 0.90294 0.0
O113 O 0.85972 0.83791 0.9482 0.0
O114 O 0.83887 0.85282 0.96525 0.0
C115 C 0.8389 0.81012 0.90198 0.0
O116 O 0.81843 0.83844 0.86622 0.0
Co117 Co 0.84059 0.82016 0.77998 0.0
O118 O 0.8174 0.82123 0.79047 0.0
C119 C 0.85487 0.85156 0.79279 0.0
C120 C 0.85311 0.84869 0.98032 0.0
C121 C 0.81077 0.83073 0.82624 0.0
O122 O 0.84903 0.85314 0.84501 0.0
O123 O 0.85412 0.83884 0.76272 0.0
O124 O 0.83392 0.81793 0.94764 0.0
O125 O 0.84577 0.81852 0.86234 0.0
Co126 Co 0.92001 0.09152 0.63033 0.0
O127 O 0.91704 0.11211 0.66413 0.0
O128 O 0.90006 0.09267 0.67452 0.0
C129 C 0.94545 0.08903 0.66086 0.0
O130 O 0.91965 0.06846 0.60199 0.0
Co131 Co 0.94615 0.08646 0.53436 0.0
O132 O 0.94236 0.06402 0.55292 0.0
C133 C 0.91476 0.09919 0.50018 0.0
C134 C 0.90401 0.10712 0.68729 0.0
C135 C 0.92952 0.05915 0.57594 0.0
O136 O 0.90957 0.09838 0.55373 0.0
O137 O 0.92892 0.09575 0.48527 0.0
O138 O 0.9339 0.08564 0.69631 0.0
O139 O 0.94127 0.09483 0.61082 0.0
Co140 Co 0.67192 0.16918 0.39614 0.0
O141 O 0.65325 0.1638 0.4419 0.0
O142 O 0.67466 0.14912 0.43611 0.0
C143 C 0.6733 0.19464 0.42726 0.0
O144 O 0.69368 0.17065 0.35666 0.0
Co145 Co 0.67268 0.19571 0.30107 0.0
O146 O 0.69589 0.1935 0.30713 0.0
C147 C 0.66138 0.16352 0.26958 0.0
C148 C 0.66072 0.15122 0.45876 0.0
C149 C 0.70184 0.18082 0.32729 0.0
O150 O 0.66334 0.15842 0.32278 0.0
O151 O 0.66393 0.17779 0.2538 0.0
O152 O 0.67894 0.18333 0.45962 0.0
O153 O 0.66622 0.19019 0.37985 0.0
Co154 Co 0.59075 0.9191 0.15503 0.0
O155 O 0.59556 0.90109 0.20516 0.0
O156 O 0.6081 0.92387 0.20778 0.0
C157 C 0.56417 0.91732 0.16678 0.0
O158 O 0.5894 0.94057 0.11377 0.0
Co159 Co 0.56965 0.9179 0.04296 0.0
O160 O 0.56958 0.94122 0.04818 0.0
C161 C 0.60291 0.90652 0.03811 0.0
C162 C 0.60649 0.90973 0.22903 0.0
C163 C 0.58043 0.94803 0.07735 0.0
O164 O 0.60565 0.91107 0.09157 0.0
O165 O 0.58932 0.90743 0.01368 0.0
O166 O 0.5726 0.92456 0.20634 0.0
O167 O 0.57198 0.91126 0.12382 0.0
Co168 Co 0.84025 0.17284 0.10124 0.0
O169 O 0.8591 0.17141 0.05387 0.0
O170 O 0.83801 0.15665 0.03998 0.0
C171 C 0.83915 0.19969 0.09981 0.0
O172 O 0.81827 0.17168 0.14013 0.0
Co173 Co 0.84034 0.19077 0.22171 0.0
O174 O 0.81724 0.19027 0.21094 0.0
C175 C 0.85321 0.15837 0.21481 0.0
C176 C 0.85212 0.16065 0.0228 0.0
C177 C 0.81058 0.18002 0.17833 0.0
O178 O 0.84903 0.15692 0.16019 0.0
O179 O 0.85163 0.17113 0.24426 0.0
O180 O 0.83355 0.19169 0.05566 0.0
O181 O 0.84599 0.19137 0.13968 0.0
Co182 Co 0.59183 0.08695 0.86411 0.0
O183 O 0.59565 0.10485 0.81193 0.0
O184 O 0.60949 0.08284 0.81217 0.0
C185 C 0.56507 0.08597 0.85325 0.0
O186 O 0.59156 0.06558 0.90704 0.0
Co187 Co 0.5714 0.08878 0.97786 0.0
O188 O 0.57301 0.06549 0.97793 0.0
C189 C 0.60379 0.10145 0.97949 0.0
C190 C 0.60713 0.09668 0.78927 0.0
C191 C 0.58326 0.05845 0.94662 0.0
O192 O 0.6064 0.09631 0.92666 0.0
O193 O 0.59036 0.10052 1.00491 0.0
O194 O 0.57422 0.07985 0.81328 0.0
O195 O 0.5723 0.09349 0.89457 0.0
Co196 Co 0.67093 0.83739 0.62295 0.0
O197 O 0.6523 0.84282 0.57708 0.0
O198 O 0.67417 0.85689 0.57998 0.0
C199 C 0.67149 0.81153 0.59629 0.0
O200 O 0.69274 0.83585 0.66158 0.0
Co201 Co 0.67146 0.81209 0.72251 0.0
O202 O 0.69471 0.81397 0.71692 0.0
C203 C 0.66078 0.84482 0.74863 0.0
C204 C 0.66009 0.85503 0.55839 0.0
C205 C 0.7008 0.82617 0.69342 0.0
O206 O 0.66283 0.84925 0.69467 0.0
O207 O 0.66305 0.83071 0.76679 0.0
O208 O 0.67734 0.82226 0.56166 0.0
O209 O 0.66473 0.81679 0.64323 0.0
Co210 Co 0.92219 0.91898 0.36953 0.0
O211 O 0.92025 0.89889 0.33147 0.0
O212 O 0.90308 0.91814 0.32029 0.0
C213 C 0.94813 0.92226 0.34717 0.0
O214 O 0.9211 0.94151 0.40268 0.0
Co215 Co 0.94587 0.92149 0.47521 0.0
O216 O 0.94183 0.94431 0.46433 0.0
C217 C 0.91473 0.90661 0.49287 0.0
C218 C 0.90744 0.90385 0.30668 0.0
C219 C 0.93003 0.94996 0.43647 0.0
O220 O 0.91026 0.91087 0.44087 0.0
O221 O 0.92883 0.90841 0.51203 0.0
O222 O 0.93735 0.92596 0.30896 0.0
O223 O 0.94294 0.91556 0.39425 0.0
Co224 Co 0.66645 0.67014 0.63779 0.0
O225 O 0.64764 0.66499 0.59241 0.0
O226 O 0.66888 0.65005 0.59792 0.0
C227 C 0.66821 0.69559 0.60661 0.0
O228 O 0.68829 0.67129 0.67656 0.0
Co229 Co 0.66764 0.69661 0.73298 0.0
O230 O 0.69078 0.6936 0.72917 0.0
C231 C 0.65587 0.66462 0.76462 0.0
C232 C 0.65495 0.65231 0.5755 0.0
C233 C 0.69656 0.681 0.70757 0.0
O234 O 0.65782 0.65948 0.71146 0.0
O235 O 0.65852 0.67888 0.78023 0.0
O236 O 0.67358 0.68418 0.57408 0.0
O237 O 0.66109 0.69124 0.65414 0.0
Co238 Co 0.59033 0.41943 0.88521 0.0
O239 O 0.59509 0.40119 0.8366 0.0
O240 O 0.61004 0.42242 0.84313 0.0
C241 C 0.56464 0.42157 0.85824 0.0
O242 O 0.5893 0.44081 0.92734 0.0
Co243 Co 0.56516 0.41893 0.98516 0.0
O244 O 0.56701 0.44222 0.98092 0.0
C245 C 0.59701 0.40573 1.00708 0.0
C246 C 0.60763 0.40868 0.81934 0.0
C247 C 0.57927 0.44859 0.95876 0.0
O248 O 0.60175 0.40986 0.95527 0.0
O249 O 0.58289 0.40764 0.02577 0.0
O250 O 0.57573 0.42725 0.82482 0.0
O251 O 0.56944 0.41381 0.90374 0.0
Co252 Co 0.8353 0.3425 0.10977 0.0
O253 O 0.85283 0.34696 0.05711 0.0
O254 O 0.8299 0.35931 0.05551 0.0
C255 C 0.83645 0.31573 0.10323 0.0
O256 O 0.81424 0.34111 0.15417 0.0
Co257 Co 0.83907 0.32344 0.22618 0.0
O258 O 0.81569 0.32269 0.22535 0.0
C259 C 0.85128 0.35583 0.21834 0.0
C260 C 0.84396 0.35772 0.03333 0.0
C261 C 0.80783 0.33241 0.19423 0.0
O262 O 0.84377 0.35824 0.16965 0.0
O263 O 0.8522 0.34239 0.24361 0.0
O264 O 0.82941 0.32378 0.06206 0.0
O265 O 0.84341 0.32409 0.14271 0.0
Co266 Co 0.92527 0.59064 0.3542 0.0
O267 O 0.92276 0.61058 0.31466 0.0
O268 O 0.90873 0.58946 0.29368 0.0
C269 C 0.95217 0.59117 0.34984 0.0
O270 O 0.92503 0.56785 0.38506 0.0
Co271 Co 0.94459 0.588 0.47164 0.0
O272 O 0.94405 0.56518 0.45374 0.0
C273 C 0.91171 0.60042 0.47302 0.0
C274 C 0.91203 0.60412 0.28193 0.0
C275 C 0.93353 0.55934 0.42008 0.0
O276 O 0.90958 0.59709 0.41787 0.0
O277 O 0.92498 0.59874 0.49932 0.0
O278 O 0.94419 0.58606 0.30477 0.0
O279 O 0.94374 0.59617 0.3929 0.0
Co280 Co 0.67053 0.33654 0.4211 0.0
O281 O 0.65307 0.34092 0.47426 0.0
O282 O 0.6743 0.35577 0.46492 0.0
C283 C 0.67286 0.31056 0.44358 0.0
O284 O 0.69121 0.33601 0.37443 0.0
Co285 Co 0.66861 0.31272 0.31745 0.0
O286 O 0.69195 0.31477 0.31529 0.0
C287 C 0.65443 0.34451 0.30436 0.0
C288 C 0.66087 0.35331 0.49108 0.0
C289 C 0.69855 0.32669 0.33886 0.0
O290 O 0.65993 0.34868 0.3551 0.0
O291 O 0.65576 0.33049 0.28393 0.0
O292 O 0.67914 0.32121 0.47744 0.0
O293 O 0.66451 0.31593 0.40047 0.0
Co294 Co 0.91779 0.42303 0.64619 0.0
O295 O 0.91224 0.40512 0.69495 0.0
O296 O 0.89806 0.42685 0.68759 0.0
C297 C 0.94351 0.42409 0.67387 0.0
O298 O 0.9199 0.44407 0.60245 0.0
Co299 Co 0.9432 0.42028 0.54711 0.0
O300 O 0.94171 0.44363 0.5457 0.0
C301 C 0.91083 0.40834 0.52625 0.0
C302 C 0.89988 0.41301 0.71142 0.0
C303 C 0.92994 0.45085 0.56795 0.0
O304 O 0.9061 0.4139 0.57616 0.0
O305 O 0.92528 0.40854 0.50959 0.0
O306 O 0.93265 0.43038 0.7068 0.0
O307 O 0.93838 0.41637 0.62886 0.0
Co308 Co 0.83999 0.66781 0.88125 0.0
O309 O 0.86084 0.666 0.91435 0.0
O310 O 0.84071 0.65135 0.94216 0.0
C311 C 0.83911 0.69462 0.88554 0.0
O312 O 0.81648 0.66695 0.85797 0.0
Co313 Co 0.83425 0.68632 0.76398 0.0
O314 O 0.81227 0.68656 0.79285 0.0
C315 C 0.84618 0.65356 0.75957 0.0
C316 C 0.85549 0.65514 0.94922 0.0
C317 C 0.80718 0.67595 0.82771 0.0
O318 O 0.84557 0.65213 0.8163 0.0
O319 O 0.84283 0.66624 0.7318 0.0
O320 O 0.8358 0.68632 0.93211 0.0
O321 O 0.84385 0.6866 0.84078 0.0
Co322 Co 0.58608 0.58802 0.17028 0.0
O323 O 0.5897 0.606 0.22237 0.0
O324 O 0.60356 0.584 0.22295 0.0
C325 C 0.55925 0.58703 0.17988 0.0
O326 O 0.58616 0.56658 0.12796 0.0
Co327 Co 0.5661 0.58926 0.05566 0.0
O328 O 0.56791 0.56599 0.05618 0.0
C329 C 0.59836 0.60228 0.0549 0.0
C330 C 0.60114 0.59786 0.24553 0.0
C331 C 0.57819 0.5592 0.08815 0.0
O332 O 0.60084 0.59735 0.10811 0.0
O333 O 0.58504 0.6011 0.02893 0.0
O334 O 0.56824 0.58096 0.22041 0.0
O335 O 0.56664 0.59442 0.13865 0.0
Co336 Co 0.33915 0.33951 0.40735 0.0
O337 O 0.35817 0.34037 0.45289 0.0
O338 O 0.33895 0.35771 0.4613 0.0
C339 C 0.33516 0.31333 0.42311 0.0
O340 O 0.31745 0.34146 0.36743 0.0
Co341 Co 0.33879 0.31777 0.29622 0.0
O342 O 0.31574 0.32163 0.30141 0.0
C343 C 0.35522 0.34838 0.29197 0.0
C344 C 0.35259 0.3526 0.47979 0.0
C345 C 0.30959 0.33302 0.33012 0.0
O346 O 0.34923 0.35236 0.34208 0.0
O347 O 0.3538 0.33461 0.26946 0.0
O348 O 0.33053 0.32363 0.46175 0.0
O349 O 0.34299 0.31908 0.3794 0.0
Co350 Co 0.41675 0.58896 0.16347 0.0
O351 O 0.41287 0.60672 0.21599 0.0
O352 O 0.39888 0.58481 0.21461 0.0
C353 C 0.44353 0.58792 0.1755 0.0
O354 O 0.41707 0.56776 0.11939 0.0
Co355 Co 0.43757 0.59139 0.05075 0.0
O356 O 0.4356 0.56815 0.04839 0.0
C357 C 0.40507 0.60375 0.04805 0.0
C358 C 0.40125 0.5986 0.23788 0.0
C359 C 0.42532 0.56092 0.07895 0.0
O360 O 0.40235 0.59852 0.10069 0.0
O361 O 0.41859 0.60299 0.0232 0.0
O362 O 0.43425 0.58166 0.21473 0.0
O363 O 0.4364 0.59558 0.1343 0.0
Co364 Co 0.17601 0.66895 0.90508 0.0
O365 O 0.15852 0.6622 0.95386 0.0
O366 O 0.18252 0.65222 0.95889 0.0
C367 C 0.17166 0.69533 0.91519 0.0
O368 O 0.19717 0.67361 0.86367 0.0
Co369 Co 0.1697 0.68885 0.79104 0.0
O370 O 0.1926 0.69283 0.79701 0.0
C371 C 0.16257 0.65487 0.79271 0.0
C372 C 0.16807 0.65226 0.97855 0.0
C373 C 0.20197 0.68412 0.82648 0.0
O374 O 0.16997 0.65291 0.84196 0.0
O375 O 0.15996 0.66835 0.76949 0.0
O376 O 0.1793 0.68775 0.95607 0.0
O377 O 0.16598 0.68656 0.87422 0.0
Co378 Co 0.08519 0.41683 0.65128 0.0
O379 O 0.08734 0.39666 0.68917 0.0
O380 O 0.10451 0.41598 0.69895 0.0
C381 C 0.05938 0.42002 0.67611 0.0
O382 O 0.08648 0.43951 0.61959 0.0
Co383 Co 0.06082 0.42175 0.54953 0.0
O384 O 0.06453 0.44432 0.56659 0.0
C385 C 0.09214 0.40741 0.5241 0.0
C386 C 0.1002 0.40176 0.71346 0.0
C387 C 0.07719 0.44895 0.59138 0.0
O388 O 0.09658 0.40878 0.57832 0.0
O389 O 0.0784 0.41126 0.50549 0.0
O390 O 0.07044 0.42368 0.71328 0.0
O391 O 0.06419 0.41369 0.62775 0.0
Co392 Co 0.33972 0.6738 0.62928 0.0
O393 O 0.35767 0.66635 0.58441 0.0
O394 O 0.33479 0.65406 0.58912 0.0
C395 C 0.34086 0.69916 0.59744 0.0
O396 O 0.31831 0.67854 0.66874 0.0
Co397 Co 0.34438 0.70005 0.72459 0.0
O398 O 0.32122 0.70163 0.71668 0.0
C399 C 0.35057 0.66672 0.75547 0.0
C400 C 0.34897 0.6547 0.56699 0.0
C401 C 0.3126 0.69049 0.697 0.0
O402 O 0.34704 0.6621 0.70283 0.0
O403 O 0.35073 0.68118 0.77153 0.0
O404 O 0.33423 0.68839 0.56527 0.0
O405 O 0.34794 0.694 0.64391 0.0
Co406 Co 0.09558 0.58574 0.36768 0.0
O407 O 0.10133 0.60372 0.31923 0.0
O408 O 0.11309 0.58054 0.31565 0.0
C409 C 0.069 0.58865 0.35519 0.0
O410 O 0.0929 0.5643 0.40865 0.0
Co411 Co 0.07375 0.58856 0.47872 0.0
O412 O 0.07321 0.56528 0.4752 0.0
C413 C 0.10717 0.59927 0.483 0.0
C414 C 0.11215 0.5949 0.29575 0.0
C415 C 0.08357 0.55764 0.44621 0.0
O416 O 0.11052 0.59294 0.43265 0.0
O417 O 0.09319 0.59987 0.50428 0.0
O418 O 0.07719 0.58131 0.31512 0.0
O419 O 0.07714 0.59428 0.39781 0.0
Co420 Co 0.16937 0.33791 0.1203 0.0
O421 O 0.15018 0.33798 0.07539 0.0
O422 O 0.16872 0.35596 0.06573 0.0
C423 C 0.17429 0.31191 0.10518 0.0
O424 O 0.19122 0.34083 0.15874 0.0
Co425 Co 0.17162 0.31668 0.23206 0.0
O426 O 0.19448 0.32046 0.22141 0.0
C427 C 0.15474 0.34716 0.23886 0.0
C428 C 0.15522 0.35035 0.04789 0.0
C429 C 0.19987 0.33228 0.1932 0.0
O430 O 0.15892 0.35051 0.18554 0.0
O431 O 0.15781 0.33393 0.26356 0.0
O432 O 0.1784 0.3223 0.06606 0.0
O433 O 0.16644 0.31739 0.14938 0.0
Co434 Co 0.42262 0.4205 0.87332 0.0
O435 O 0.42076 0.40073 0.83282 0.0
O436 O 0.40374 0.4202 0.82308 0.0
C437 C 0.44869 0.42381 0.85319 0.0
O438 O 0.42128 0.44276 0.90827 0.0
Co439 Co 0.44551 0.42279 0.98091 0.0
O440 O 0.44162 0.44574 0.97145 0.0
C441 C 0.41481 0.40677 0.99381 0.0
C442 C 0.40804 0.406 0.80813 0.0
C443 C 0.42991 0.45126 0.9428 0.0
O444 O 0.41037 0.41182 0.94282 0.0
O445 O 0.42881 0.4085 0.014 0.0
O446 O 0.43809 0.42788 0.81474 0.0
O447 O 0.44327 0.41686 0.89944 0.0
H448 H 0.28721 0.20119 0.30883 0.0
H449 H 0.2978 0.15132 0.32244 0.0
H450 H 0.27083 0.14505 0.28648 0.0
H451 H 0.2461 0.19879 0.35417 0.0
H452 H 0.24025 0.21412 0.30366 0.0
H453 H 0.25986 0.21409 0.33411 0.0
H454 H 0.27139 0.21469 0.22822 0.0
H455 H 0.25182 0.2143 0.19743 0.0
H456 H 0.26598 0.19945 0.17666 0.0
H457 H 0.24263 0.14474 0.24121 0.0
H458 H 0.21555 0.15042 0.20494 0.0
H459 H 0.22476 0.20051 0.22131 0.0
C460 C 0.28382 0.18892 0.30524 0.0
C461 C 0.29461 0.17674 0.31854 0.0
C462 C 0.28966 0.16084 0.31321 0.0
C463 C 0.27442 0.15719 0.29219 0.0
C464 C 0.2643 0.16957 0.27719 0.0
C465 C 0.26879 0.18512 0.2846 0.0
C466 C 0.25601 0.19639 0.26522 0.0
C467 C 0.25021 0.20643 0.3174 0.0
C468 C 0.26164 0.20681 0.21383 0.0
C469 C 0.24356 0.18484 0.24528 0.0
C470 C 0.24846 0.1694 0.25197 0.0
C471 C 0.2387 0.15681 0.2361 0.0
C472 C 0.2234 0.16012 0.21492 0.0
C473 C 0.21804 0.1759 0.21024 0.0
C474 C 0.22847 0.18831 0.22444 0.0
H475 H 0.06055 0.97806 0.44924 0.0
H476 H 0.11007 0.96568 0.45994 0.0
H477 H 0.11595 0.99216 0.50116 0.0
H478 H 0.06622 0.01992 0.41087 0.0
H479 H 0.04934 0.0258 0.45397 0.0
H480 H 0.04981 0.00661 0.42002 0.0
H481 H 0.04474 0.99385 0.52211 0.0
H482 H 0.04468 0.01294 0.55665 0.0
H483 H 0.05807 0.99791 0.58212 0.0
H484 H 0.11549 0.01956 0.55236 0.0
H485 H 0.10931 0.04597 0.59398 0.0
H486 H 0.0601 0.03935 0.54795 0.0
C487 C 0.07272 0.98106 0.45874 0.0
C488 C 0.08487 0.96986 0.45103 0.0
C489 C 0.10061 0.97418 0.46453 0.0
C490 C 0.10402 0.98913 0.4886 0.0
C491 C 0.09157 0.99964 0.49818 0.0
C492 C 0.07628 0.99584 0.48231 0.0
C493 C 0.06484 0.00883 0.49813 0.0
C494 C 0.0571 0.0157 0.44243 0.0
C495 C 0.05235 1.00303 0.54238 0.0
C496 C 0.07597 0.02052 0.52632 0.0
C497 C 0.09134 0.0151 0.52642 0.0
C498 C 0.1035 0.02394 0.55184 0.0
C499 C 0.09987 0.03885 0.57596 0.0
C500 C 0.08424 0.04476 0.5741 0.0
C501 C 0.0722 0.03526 0.54975 0.0
H502 H 0.22192 0.8108 0.80833 0.0
H503 H 0.21399 0.86056 0.83983 0.0
H504 H 0.24068 0.86649 0.80031 0.0
H505 H 0.26371 0.81076 0.84835 0.0
H506 H 0.26851 0.79627 0.79307 0.0
H507 H 0.2492 0.79639 0.82621 0.0
H508 H 0.23671 0.79827 0.72217 0.0
H509 H 0.25599 0.79859 0.6888 0.0
H510 H 0.24221 0.81429 0.67409 0.0
H511 H 0.26786 0.86677 0.74851 0.0
H512 H 0.29431 0.86105 0.70641 0.0
H513 H 0.28405 0.81103 0.7132 0.0
C514 C 0.22591 0.82293 0.80794 0.0
C515 C 0.21593 0.83523 0.82728 0.0
C516 C 0.22155 0.85095 0.82598 0.0
C517 C 0.23661 0.85442 0.80295 0.0
C518 C 0.24594 0.84201 0.78221 0.0
C519 C 0.24089 0.82655 0.78595 0.0
C520 C 0.25309 0.81525 0.76175 0.0
C521 C 0.25898 0.80401 0.81024 0.0
C522 C 0.24661 0.80606 0.70855 0.0
C523 C 0.26581 0.82672 0.74317 0.0
C524 C 0.26146 0.84214 0.75447 0.0
C525 C 0.27138 0.85472 0.73994 0.0
C526 C 0.2863 0.85139 0.71538 0.0
C527 C 0.2912 0.83561 0.70638 0.0
C528 C 0.28063 0.82322 0.71949 0.0
H529 H 0.44832 0.03423 0.93952 0.0
H530 H 0.39862 0.04585 0.94839 0.0
H531 H 0.393 0.01927 0.98962 0.0
H532 H 0.44297 0.99234 0.89872 0.0
H533 H 0.45987 0.98636 0.94146 0.0
H534 H 0.4593 0.00569 0.90866 0.0
H535 H 0.46428 0.01803 0.01147 0.0
H536 H 0.46443 0.99878 0.04488 0.0
H537 H 0.45095 0.01364 0.07123 0.0
H538 H 0.39372 0.99222 0.04167 0.0
H539 H 0.39988 0.96574 0.0823 0.0
H540 H 0.44896 0.97199 0.03385 0.0
C541 C 0.43618 0.03099 0.94849 0.0
C542 C 0.42385 0.04196 0.94023 0.0
C543 C 0.40816 0.03745 0.9533 0.0
C544 C 0.40492 0.02247 0.97739 0.0
C545 C 0.4175 0.01212 0.98718 0.0
C546 C 0.43276 0.01608 0.97154 0.0
C547 C 0.44427 1.00305 0.98661 0.0
C548 C 0.45206 0.99647 0.93053 0.0
C549 C 0.45671 0.00872 0.03119 0.0
C550 C 0.43319 0.99116 0.01416 0.0
C551 C 0.41782 0.99661 0.01489 0.0
C552 C 0.40569 0.9878 0.04053 0.0
C553 C 0.40932 0.97285 0.06412 0.0
C554 C 0.42489 0.96682 0.06118 0.0
C555 C 0.43694 0.97625 0.03651 0.0
H556 H 0.7885 0.80862 0.80276 0.0
H557 H 0.79485 0.8589 0.82662 0.0
H558 H 0.76735 0.86344 0.79294 0.0
H559 H 0.7659 0.8099 0.67415 0.0
H560 H 0.75292 0.79393 0.69402 0.0
H561 H 0.77265 0.79459 0.72321 0.0
H562 H 0.76175 0.7934 0.82984 0.0
H563 H 0.74198 0.79237 0.80098 0.0
H564 H 0.74715 0.80755 0.85312 0.0
H565 H 0.73998 0.86234 0.74572 0.0
H566 H 0.71363 0.8556 0.70592 0.0
H567 H 0.72494 0.80587 0.7196 0.0
C568 C 0.78397 0.82056 0.80203 0.0
C569 C 0.79372 0.83343 0.81737 0.0
C570 C 0.78747 0.84889 0.81576 0.0
C571 C 0.77194 0.85156 0.79615 0.0
C572 C 0.76279 0.83861 0.77947 0.0
C573 C 0.76847 0.82338 0.78378 0.0
C574 C 0.75631 0.81144 0.76381 0.0
C575 C 0.76231 0.80191 0.71064 0.0
C576 C 0.75151 0.80055 0.81499 0.0
C577 C 0.74294 0.82231 0.74641 0.0
C578 C 0.74694 0.83795 0.75501 0.0
C579 C 0.73667 0.85012 0.7396 0.0
C580 C 0.72179 0.84619 0.71645 0.0
C581 C 0.71724 0.83022 0.70974 0.0
C582 C 0.72806 0.81818 0.7245 0.0
H583 H 0.95056 0.97308 0.46709 0.0
H584 H 0.90081 0.96449 0.4365 0.0
H585 H 0.89464 0.99125 0.47474 0.0
H586 H 0.94667 0.99333 0.60141 0.0
H587 H 0.96239 0.00709 0.5866 0.0
H588 H 0.96279 0.98776 0.55387 0.0
H589 H 0.96484 1.00004 0.44944 0.0
H590 H 0.96487 0.01939 0.48196 0.0
H591 H 0.95047 0.01446 0.42651 0.0
H592 H 0.89427 0.01903 0.52316 0.0
H593 H 0.90004 0.04575 0.56251 0.0
H594 H 0.95003 0.03491 0.56061 0.0
C595 C 0.93836 0.97687 0.4676 0.0
C596 C 0.92616 0.9667 0.44879 0.0
C597 C 0.91036 0.97215 0.45007 0.0
C598 C 0.90675 0.98726 0.47234 0.0
C599 C 0.91909 0.99676 0.49267 0.0
C600 C 0.9346 0.99179 0.48933 0.0
C601 C 0.94584 1.00402 0.51336 0.0
C602 C 0.95495 0.99767 0.56699 0.0
C603 C 0.95717 0.00982 0.46493 0.0
C604 C 0.9343 0.01671 0.53122 0.0
C605 C 0.91889 0.01238 0.51954 0.0
C606 C 0.90631 0.0225 0.53227 0.0
C607 C 0.90967 0.03758 0.55527 0.0
C608 C 0.92547 0.0424 0.56482 0.0
C609 C 0.93781 0.03159 0.55394 0.0
H610 H 0.72664 0.2011 0.31487 0.0
H611 H 0.71365 0.15193 0.29645 0.0
H612 H 0.73968 0.1463 0.25114 0.0
H613 H 0.74769 0.20548 0.18231 0.0
H614 H 0.76299 0.21776 0.21292 0.0
H615 H 0.7436 0.21778 0.24532 0.0
H616 H 0.75539 0.21037 0.34702 0.0
H617 H 0.77486 0.21066 0.31519 0.0
H618 H 0.76797 0.1933 0.35313 0.0
H619 H 0.76683 0.14673 0.20055 0.0
H620 H 0.79396 0.15229 0.16467 0.0
H621 H 0.78905 0.20088 0.22124 0.0
C622 C 0.72938 0.18911 0.30205 0.0
C623 C 0.71817 0.17694 0.30919 0.0
C624 C 0.72216 0.16138 0.292 0.0
C625 C 0.73685 0.15812 0.26569 0.0
C626 C 0.7475 0.17049 0.25786 0.0
C627 C 0.74406 0.1856 0.27694 0.0
C628 C 0.75764 0.19674 0.26536 0.0
C629 C 0.75267 0.21023 0.22401 0.0
C630 C 0.76436 0.20314 0.32363 0.0
C631 C 0.76915 0.18568 0.2355 0.0
C632 C 0.76311 0.1706 0.23102 0.0
C633 C 0.7717 0.15848 0.20429 0.0
C634 C 0.78703 0.16176 0.18349 0.0
C635 C 0.79363 0.17699 0.19018 0.0
C636 C 0.78437 0.18909 0.21558 0.0
H637 H 0.5614 0.03628 0.97679 0.0
H638 H 0.61152 0.04273 0.94719 0.0
H639 H 0.61642 0.01538 0.98144 0.0
H640 H 0.56382 0.01289 0.10606 0.0
H641 H 0.5477 1.00006 0.08659 0.0
H642 H 0.54814 0.02001 0.05947 0.0
H643 H 0.54605 0.00989 0.95201 0.0
H644 H 0.54535 0.98992 0.97883 0.0
H645 H 0.56008 0.99557 0.92553 0.0
H646 H 0.61582 0.98801 0.02748 0.0
H647 H 0.60953 0.96127 0.06455 0.0
H648 H 0.55959 0.97205 0.05528 0.0
C649 C 0.57339 0.03186 0.97699 0.0
C650 C 0.58612 0.04159 0.9596 0.0
C651 C 0.60162 0.03541 0.95999 0.0
C652 C 0.60451 0.01995 0.97983 0.0
C653 C 0.59171 0.01078 0.99798 0.0
C654 C 0.57642 0.0164 0.99531 0.0
C655 C 0.56467 1.00402 0.01528 0.0
C656 C 0.55555 0.00958 0.0701 0.0
C657 C 0.55337 0.99959 0.9649 0.0
C658 C 0.57572 0.99057 0.03012 0.0
C659 C 0.5913 0.99479 0.02097 0.0
C660 C 0.60366 0.98453 0.03409 0.0
C661 C 0.59999 0.96943 0.05562 0.0
C662 C 0.58409 0.96463 0.06265 0.0
C663 C 0.57184 0.97541 0.05005 0.0
H664 H 0.72034 0.70099 0.74037 0.0
H665 H 0.70976 0.65146 0.71407 0.0
H666 H 0.73618 0.64442 0.75263 0.0
H667 H 0.7608 0.69861 0.69432 0.0
H668 H 0.76737 0.71312 0.7469 0.0
H669 H 0.74751 0.71384 0.71901 0.0
H670 H 0.73691 0.71309 0.82621 0.0
H671 H 0.75676 0.71201 0.85432 0.0
H672 H 0.74255 0.6971 0.87414 0.0
H673 H 0.76399 0.64295 0.79676 0.0
H674 H 0.79184 0.64744 0.82617 0.0
H675 H 0.78399 0.69789 0.81971 0.0
C676 C 0.72357 0.68865 0.74253 0.0
C677 C 0.71295 0.67677 0.72434 0.0
C678 C 0.71773 0.66078 0.72736 0.0
C679 C 0.73266 0.65666 0.74981 0.0
C680 C 0.74271 0.66868 0.76858 0.0
C681 C 0.73844 0.68436 0.76403 0.0
C682 C 0.75165 0.69512 0.78389 0.0
C683 C 0.75716 0.70579 0.733 0.0
C684 C 0.74666 0.7049 0.83785 0.0
C685 C 0.76408 0.68308 0.8001 0.0
C686 C 0.75867 0.66786 0.79208 0.0
C687 C 0.76831 0.65483 0.80326 0.0
C688 C 0.78405 0.65746 0.82062 0.0
C689 C 0.78999 0.67299 0.82565 0.0
C690 C 0.7797 0.68588 0.81676 0.0
H691 H 0.55792 0.47229 0.97676 0.0
H692 H 0.60809 0.46229 0.97772 0.0
H693 H 0.61337 0.48924 0.01505 0.0
H694 H 0.56182 0.51283 0.92608 0.0
H695 H 0.5454 0.51965 0.9697 0.0
H696 H 0.54582 0.49962 0.94347 0.0
H697 H 0.54245 0.48962 0.05068 0.0
H698 H 0.54225 0.50961 0.07733 0.0
H699 H 0.55635 0.49572 0.10633 0.0
H700 H 0.61278 0.51689 0.05965 0.0
H701 H 0.60681 0.54416 0.09224 0.0
H702 H 0.55727 0.53646 0.05435 0.0
C703 C 0.57003 0.47582 0.9844 0.0
C704 C 0.58261 0.46521 0.97456 0.0
C705 C 0.5983 0.47029 0.9846 0.0
C706 C 0.60138 0.48552 1.00624 0.0
C707 C 0.58867 0.49561 0.01659 0.0
C708 C 0.57333 0.49106 1.0047 0.0
C709 C 0.5618 0.50428 0.01736 0.0
C710 C 0.55321 0.5094 0.96078 0.0
C711 C 0.55002 0.49951 0.06581 0.0
C712 C 0.573 0.51694 0.03884 0.0
C713 C 0.58843 0.51167 0.03904 0.0
C714 C 0.60076 0.52118 0.05906 0.0
C715 C 0.59725 0.53659 0.07793 0.0
C716 C 0.58161 0.54241 0.07557 0.0
C717 C 0.56936 0.53235 0.05624 0.0
H718 H 0.72287 0.30645 0.31326 0.0
H719 H 0.71071 0.35607 0.32059 0.0
H720 H 0.7369 0.3629 0.27956 0.0
H721 H 0.76365 0.3119 0.3589 0.0
H722 H 0.77094 0.29626 0.3125 0.0
H723 H 0.75112 0.29541 0.34101 0.0
H724 H 0.74039 0.29249 0.23464 0.0
H725 H 0.76016 0.29354 0.20576 0.0
H726 H 0.74534 0.30714 0.1801 0.0
H727 H 0.76386 0.3641 0.23118 0.0
H728 H 0.79114 0.35997 0.19503 0.0
H729 H 0.78658 0.30982 0.22798 0.0
C730 C 0.72578 0.31875 0.30648 0.0
C731 C 0.71476 0.33074 0.31983 0.0
C732 C 0.71903 0.34671 0.31097 0.0
C733 C 0.73382 0.35069 0.28725 0.0
C734 C 0.74433 0.33857 0.27371 0.0
C735 C 0.74064 0.32294 0.28429 0.0
C736 C 0.75435 0.31223 0.26869 0.0
C737 C 0.76037 0.30344 0.32354 0.0
C738 C 0.74978 0.30067 0.21936 0.0
C739 C 0.76627 0.32425 0.24717 0.0
C740 C 0.76017 0.33935 0.24936 0.0
C741 C 0.76881 0.35234 0.22985 0.0
C742 C 0.78424 0.34988 0.20897 0.0
C743 C 0.79095 0.3346 0.20892 0.0
C744 C 0.78176 0.32164 0.22786 0.0
H745 H 0.95198 0.47299 0.53782 0.0
H746 H 0.90149 0.46559 0.55185 0.0
H747 H 0.8968 0.49181 0.50691 0.0
H748 H 0.95092 0.51435 0.5762 0.0
H749 H 0.96684 0.51938 0.52695 0.0
H750 H 0.96589 0.49998 0.55886 0.0
H751 H 0.96684 0.48782 0.45409 0.0
H752 H 0.96745 0.50722 0.42183 0.0
H753 H 0.95224 0.49353 0.40039 0.0
H754 H 0.89785 0.51857 0.45543 0.0
H755 H 0.90442 0.54534 0.41908 0.0
H756 H 0.95414 0.53555 0.44487 0.0
C757 C 0.93993 0.47693 0.53177 0.0
C758 C 0.92708 0.46725 0.54815 0.0
C759 C 0.9115 0.47288 0.54003 0.0
C760 C 0.90873 0.48767 0.51397 0.0
C761 C 0.92168 0.49678 0.49706 0.0
C762 C 0.93697 0.49175 0.50693 0.0
C763 C 0.94885 0.50406 0.4878 0.0
C764 C 0.9587 0.50978 0.5406 0.0
C765 C 0.95947 0.49778 0.43807 0.0
C766 C 0.93789 0.51683 0.46553 0.0
C767 C 0.92227 0.51232 0.47009 0.0
C768 C 0.91004 0.52223 0.45191 0.0
C769 C 0.91388 0.53735 0.43071 0.0
C770 C 0.92977 0.54247 0.42894 0.0
C771 C 0.94189 0.53191 0.44548 0.0
H772 H 0.28667 0.31225 0.29955 0.0
H773 H 0.29491 0.36211 0.32753 0.0
H774 H 0.26799 0.36795 0.28986 0.0
H775 H 0.2653 0.31526 0.16656 0.0
H776 H 0.25177 0.29956 0.18418 0.0
H777 H 0.27137 0.29948 0.21473 0.0
H778 H 0.25989 0.29793 0.32054 0.0
H779 H 0.24026 0.29766 0.29024 0.0
H780 H 0.24559 0.31237 0.34401 0.0
H781 H 0.24007 0.36795 0.24205 0.0
H782 H 0.2132 0.36186 0.20423 0.0
H783 H 0.22402 0.31197 0.21179 0.0
C784 C 0.28277 0.32441 0.29836 0.0
C785 C 0.29288 0.33674 0.31635 0.0
C786 C 0.2873 0.35248 0.31445 0.0
C787 C 0.27209 0.35589 0.29256 0.0
C788 C 0.26259 0.34342 0.27348 0.0
C789 C 0.26769 0.32797 0.27745 0.0
C790 C 0.25531 0.31654 0.25569 0.0
C791 C 0.2613 0.30717 0.20211 0.0
C792 C 0.24994 0.30548 0.30559 0.0
C793 C 0.24239 0.32791 0.23833 0.0
C794 C 0.24676 0.34339 0.24809 0.0
C795 C 0.23656 0.35585 0.2346 0.0
C796 C 0.22139 0.35231 0.21256 0.0
C797 C 0.21656 0.33646 0.20501 0.0
C798 C 0.22738 0.32421 0.21711 0.0
H799 H 0.44723 0.53912 0.04697 0.0
H800 H 0.39703 0.54507 0.07604 0.0
H801 H 0.39234 0.51799 0.03829 0.0
H802 H 0.44523 0.51698 0.9147 0.0
H803 H 0.46142 0.50412 0.93324 0.0
H804 H 0.46074 0.52383 0.96264 0.0
H805 H 0.46264 0.51286 0.06904 0.0
H806 H 0.46364 0.49314 0.03991 0.0
H807 H 0.4487 0.49817 0.09327 0.0
H808 H 0.39334 0.49054 0.99031 0.0
H809 H 0.40022 0.46388 0.95318 0.0
H810 H 0.44987 0.47588 0.96238 0.0
C811 C 0.43525 0.53467 0.04587 0.0
C812 C 0.42247 0.54416 0.06419 0.0
C813 C 0.40699 0.53791 0.06259 0.0
C814 C 0.40422 0.52262 0.04071 0.0
C815 C 0.4171 0.51369 0.02159 0.0
C816 C 0.43234 0.5194 0.02536 0.0
C817 C 0.44425 0.50734 1.00438 0.0
C818 C 0.45345 0.51344 0.95054 0.0
C819 C 0.45546 0.50259 0.05465 0.0
C820 C 0.43336 0.49394 0.98767 0.0
C821 C 0.41772 0.49786 0.9969 0.0
C822 C 0.40556 0.48734 0.98339 0.0
C823 C 0.40955 0.47229 0.96176 0.0
C824 C 0.42556 0.46786 0.95489 0.0
C825 C 0.43753 0.47895 0.96724 0.0
H826 H 0.29061 0.66647 0.71579 0.0
H827 H 0.29603 0.71739 0.71087 0.0
H828 H 0.26914 0.72062 0.74881 0.0
H829 H 0.24859 0.66643 0.67156 0.0
H830 H 0.24349 0.65024 0.71937 0.0
H831 H 0.26313 0.65168 0.68942 0.0
H832 H 0.27457 0.65051 0.79511 0.0
H833 H 0.25495 0.64937 0.82543 0.0
H834 H 0.26819 0.66474 0.84912 0.0
H835 H 0.24275 0.71897 0.79094 0.0
H836 H 0.21595 0.71244 0.82451 0.0
H837 H 0.226 0.66259 0.80344 0.0
C838 C 0.28597 0.67826 0.72161 0.0
C839 C 0.2955 0.69168 0.71057 0.0
C840 C 0.28906 0.70693 0.71941 0.0
C841 C 0.27378 0.70891 0.74115 0.0
C842 C 0.26493 0.69555 0.75377 0.0
C843 C 0.27055 0.68051 0.74353 0.0
C844 C 0.25821 0.66829 0.76099 0.0
C845 C 0.25305 0.65859 0.70712 0.0
C846 C 0.26435 0.6576 0.81062 0.0
C847 C 0.24492 0.67891 0.78279 0.0
C848 C 0.24925 0.69457 0.77835 0.0
C849 C 0.23917 0.70676 0.79453 0.0
C850 C 0.224 0.70293 0.81382 0.0
C851 C 0.21897 0.68705 0.81702 0.0
C852 C 0.22968 0.67482 0.80251 0.0
H853 H 0.058 0.47453 0.57933 0.0
H854 H 0.10711 0.46032 0.5731 0.0
H855 H 0.11427 0.48655 0.53284 0.0
H856 H 0.05709 0.49566 0.44762 0.0
H857 H 0.04436 0.51116 0.474 0.0
H858 H 0.04327 0.49181 0.50635 0.0
H859 H 0.04845 0.5035 0.61006 0.0
H860 H 0.04918 0.52295 0.57826 0.0
H861 H 0.06549 0.51584 0.62173 0.0
H862 H 0.11535 0.51356 0.48239 0.0
H863 H 0.11101 0.54045 0.44269 0.0
H864 H 0.06134 0.53699 0.48697 0.0
C865 C 0.07032 0.47706 0.57077 0.0
C866 C 0.08203 0.46543 0.57952 0.0
C867 C 0.098 0.46915 0.56752 0.0
C868 C 0.10213 0.48395 0.54405 0.0
C869 C 0.09018 0.49496 0.53382 0.0
C870 C 0.07465 0.4918 0.54828 0.0
C871 C 0.06399 0.50554 0.5332 0.0
C872 C 0.05144 0.50075 0.48759 0.0
C873 C 0.05633 0.51236 0.58914 0.0
C874 C 0.07586 0.51686 0.50697 0.0
C875 C 0.09089 0.51053 0.50702 0.0
C876 C 0.10365 0.51869 0.48287 0.0
C877 C 0.10106 0.53388 0.45984 0.0
C878 C 0.08585 0.54082 0.46182 0.0
C879 C 0.07312 0.53204 0.48508 0.0
H880 H 0.16279 0.13275 0.99314 0.0
H881 H 0.12277 0.15731 0.06993 0.0
H882 H 0.10525 0.14545 0.9964 0.0
H883 H 0.15099 0.13717 0.84369 0.0
H884 H 0.15716 0.11791 0.81934 0.0
H885 H 0.16689 0.12715 0.88086 0.0
H886 H 0.16071 0.10292 0.94619 0.0
H887 H 0.15104 0.09355 0.88471 0.0
H888 H 0.14061 0.09623 0.95323 0.0
H889 H 0.09229 0.13352 0.91181 0.0
H890 H 0.0837 0.12028 0.82146 0.0
H891 H 0.13099 0.10178 0.79547 0.0
C892 C 0.15029 0.13533 0.99505 0.0
C893 C 0.14419 0.14601 0.03765 0.0
C894 C 0.12779 0.14926 0.03795 0.0
C895 C 0.11769 0.14255 0.99628 0.0
C896 C 0.12403 0.13246 0.9542 0.0
C897 C 0.13988 0.12865 0.9532 0.0
C898 C 0.1434 0.1178 0.90106 0.0
C899 C 0.15532 0.12547 0.85874 0.0
C900 C 0.14929 0.10166 0.92259 0.0
C901 C 0.12712 0.11645 0.8727 0.0
C902 C 0.11624 0.12508 0.90461 0.0
C903 C 0.10063 0.12655 0.88678 0.0
C904 C 0.09589 0.11903 0.83499 0.0
C905 C 0.10661 0.10993 0.80117 0.0
C906 C 0.12247 0.10849 0.82067 0.0
H907 H 0.15971 0.88022 0.04967 0.0
H908 H 0.13653 0.83469 0.06117 0.0
H909 H 0.12279 0.84317 0.15105 0.0
H910 H 0.16385 0.88708 0.20943 0.0
H911 H 0.15919 0.90778 0.20514 0.0
H912 H 0.16841 0.89803 0.14348 0.0
H913 H 0.14573 0.90723 0.07533 0.0
H914 H 0.13648 0.91705 0.13669 0.0
H915 H 0.12562 0.90262 0.09478 0.0
H916 H 0.11114 0.85601 0.23749 0.0
H917 H 0.10012 0.87349 0.31293 0.0
H918 H 0.12902 0.91204 0.24768 0.0
C919 C 0.15187 0.87204 0.07165 0.0
C920 C 0.14928 0.8567 0.04836 0.0
C921 C 0.1387 0.84646 0.07783 0.0
C922 C 0.13088 0.85114 0.12926 0.0
C923 C 0.13354 0.86625 0.15091 0.0
C924 C 0.14361 0.87668 0.12305 0.0
C925 C 0.14332 0.89261 0.15445 0.0
C926 C 0.15967 0.89661 0.17961 0.0
C927 C 0.13744 0.90565 0.11283 0.0
C928 C 0.13146 0.88943 0.20374 0.0
C929 C 0.12622 0.87403 0.20084 0.0
C930 C 0.11514 0.8681 0.24026 0.0
C931 C 0.10893 0.8782 0.28315 0.0
C932 C 0.11362 0.89421 0.28664 0.0
C933 C 0.12527 0.89984 0.24669 0.0
H934 H 0.37763 0.91166 0.28739 0.0
H935 H 0.42512 0.8942 0.31677 0.0
H936 H 0.41629 0.88069 0.40664 0.0
H937 H 0.36673 0.91655 0.44543 0.0
H938 H 0.34685 0.9095 0.43526 0.0
H939 H 0.35691 0.9194 0.37576 0.0
H940 H 0.35191 0.89539 0.30792 0.0
H941 H 0.34186 0.88544 0.36715 0.0
H942 H 0.35836 0.87611 0.3311 0.0
H943 H 0.4029 0.86794 0.48878 0.0
H944 H 0.38509 0.85514 0.55902 0.0
H945 H 0.3451 0.87922 0.47995 0.0
C946 C 0.38615 0.90523 0.31358 0.0
C947 C 0.40214 0.9041 0.29532 0.0
C948 C 0.41286 0.89526 0.32985 0.0
C949 C 0.40797 0.88758 0.3812 0.0
C950 C 0.3922 0.88866 0.39768 0.0
C951 C 0.38135 0.89715 0.36514 0.0
C952 C 0.36487 0.8952 0.39147 0.0
C953 C 0.35846 0.91111 0.41328 0.0
C954 C 0.35359 0.88758 0.34674 0.0
C955 C 0.36824 0.88413 0.44302 0.0
C956 C 0.38417 0.88077 0.44566 0.0
C957 C 0.3904 0.87053 0.48744 0.0
C958 C 0.38012 0.86327 0.52719 0.0
C959 C 0.36365 0.86612 0.52533 0.0
C960 C 0.35764 0.87693 0.48304 0.0
H961 H 0.38248 0.10054 0.72116 0.0
H962 H 0.42767 0.12466 0.71761 0.0
H963 H 0.41948 0.13927 0.62945 0.0
H964 H 0.37699 0.09784 0.56116 0.0
H965 H 0.35614 0.10202 0.5634 0.0
H966 H 0.36555 0.09251 0.62516 0.0
H967 H 0.35527 0.1144 0.6947 0.0
H968 H 0.34576 0.12392 0.63323 0.0
H969 H 0.35958 0.13473 0.67809 0.0
H970 H 0.40711 0.15139 0.54302 0.0
H971 H 0.39012 0.16245 0.4661 0.0
H972 H 0.35165 0.13221 0.52324 0.0
C973 C 0.39064 0.10883 0.70146 0.0
C974 C 0.4058 0.11137 0.72648 0.0
C975 C 0.41602 0.1225 0.69974 0.0
C976 C 0.41151 0.13083 0.64927 0.0
C977 C 0.3966 0.12813 0.62577 0.0
C978 C 0.38618 0.11757 0.65101 0.0
C979 C 0.37052 0.11776 0.61772 0.0
C980 C 0.3671 0.10156 0.59023 0.0
C981 C 0.35698 0.12302 0.65836 0.0
C982 C 0.37385 0.13009 0.57024 0.0
C983 C 0.38909 0.13568 0.57579 0.0
C984 C 0.39514 0.14714 0.53823 0.0
C985 C 0.38533 0.15335 0.49446 0.0
C986 C 0.36947 0.14828 0.48823 0.0
C987 C 0.36373 0.13628 0.52638 0.0
H988 H 0.85023 0.87796 0.03668 0.0
H989 H 0.87486 0.83312 0.04413 0.0
H990 H 0.88963 0.84214 0.13076 0.0
H991 H 0.88412 0.90149 0.07462 0.0
H992 H 0.87345 0.91558 0.1188 0.0
H993 H 0.86362 0.90545 0.05946 0.0
H994 H 0.84228 0.89553 0.13217 0.0
H995 H 0.85207 0.90561 0.1918 0.0
H996 H 0.84816 0.88477 0.19708 0.0
H997 H 0.90214 0.85537 0.21373 0.0
H998 H 0.9135 0.87305 0.2874 0.0
H999 H 0.88249 0.91075 0.22889 0.0
C1000 C 0.85861 0.87004 0.05714 0.0
C1001 C 0.86132 0.85476 0.03365 0.0
C1002 C 0.87258 0.84484 0.06102 0.0
C1003 C 0.88101 0.84983 0.11056 0.0
C1004 C 0.87823 0.8649 0.13237 0.0
C1005 C 0.86745 0.87499 0.10665 0.0
C1006 C 0.86766 0.89094 0.1379 0.0
C1007 C 0.8725 0.90415 0.09514 0.0
C1008 C 0.85158 0.89442 0.16643 0.0
C1009 C 0.88032 0.88816 0.1846 0.0
C1010 C 0.88601 0.87293 0.1805 0.0
C1011 C 0.8978 0.86732 0.21747 0.0
C1012 C 0.90421 0.87755 0.25932 0.0
C1013 C 0.89899 0.89339 0.26424 0.0
C1014 C 0.8867 0.89872 0.22661 0.0
H1015 H 0.85019 0.1309 0.96917 0.0
H1016 H 0.87116 0.17734 0.95135 0.0
H1017 H 0.88444 0.16898 0.86032 0.0
H1018 H 0.88486 0.10987 0.92187 0.0
H1019 H 0.87437 0.09467 0.88254 0.0
H1020 H 0.86516 0.10445 0.94407 0.0
H1021 H 0.84152 0.11211 0.87783 0.0
H1022 H 0.8507 0.1024 0.81599 0.0
H1023 H 0.84502 0.12282 0.81044 0.0
H1024 H 0.896 0.15614 0.77375 0.0
H1025 H 0.90741 0.13863 0.6991 0.0
H1026 H 0.88079 0.09926 0.77068 0.0
C1027 C 0.85743 0.1393 0.94553 0.0
C1028 C 0.85954 0.15486 0.96732 0.0
C1029 C 0.86937 0.1654 0.93577 0.0
C1030 C 0.87691 0.16078 0.8837 0.0
C1031 C 0.87475 0.14545 0.86353 0.0
C1032 C 0.86543 0.13474 0.89346 0.0
C1033 C 0.86622 0.11864 0.86345 0.0
C1034 C 0.87306 0.10617 0.90549 0.0
C1035 C 0.84989 0.1137 0.84057 0.0
C1036 C 0.87751 0.12205 0.81254 0.0
C1037 C 0.88202 0.1377 0.81346 0.0
C1038 C 0.89256 0.14386 0.77247 0.0
C1039 C 0.89899 0.13375 0.73008 0.0
C1040 C 0.89505 0.11751 0.72862 0.0
C1041 C 0.88392 0.11164 0.77004 0.0
H1042 H 0.60372 0.12424 0.72448 0.0
H1043 H 0.63285 0.08237 0.74022 0.0
H1044 H 0.64913 0.09142 0.65671 0.0
H1045 H 0.60429 0.12616 0.56499 0.0
H1046 H 0.60521 0.14737 0.56221 0.0
H1047 H 0.59578 0.13773 0.62359 0.0
H1048 H 0.61415 0.15252 0.69604 0.0
H1049 H 0.62359 0.16226 0.63491 0.0
H1050 H 0.63523 0.15114 0.68681 0.0
H1051 H 0.66262 0.1051 0.57202 0.0
H1052 H 0.67237 0.12253 0.49272 0.0
H1053 H 0.63441 0.15546 0.52927 0.0
C1054 C 0.61354 0.11699 0.71042 0.0
C1055 C 0.61697 0.10256 0.73925 0.0
C1056 C 0.62993 0.09344 0.71913 0.0
C1057 C 0.63927 0.09849 0.67156 0.0
C1058 C 0.63555 0.11269 0.644 0.0
C1059 C 0.623 0.12184 0.6626 0.0
C1060 C 0.6216 0.13665 0.62511 0.0
C1061 C 0.60578 0.13699 0.59201 0.0
C1062 C 0.62378 0.15152 0.66298 0.0
C1063 C 0.63535 0.13441 0.58278 0.0
C1064 C 0.64323 0.1205 0.59456 0.0
C1065 C 0.6565 0.11599 0.56228 0.0
C1066 C 0.66195 0.12597 0.51719 0.0
C1067 C 0.65415 0.14034 0.50429 0.0
C1068 C 0.64058 0.14449 0.53749 0.0
H1069 H 0.63386 0.85084 0.48772 0.0
H1070 H 0.67194 0.8836 0.52418 0.0
H1071 H 0.66226 0.90111 0.44508 0.0
H1072 H 0.63482 0.85516 0.33054 0.0
H1073 H 0.61375 0.85376 0.32134 0.0
H1074 H 0.62318 0.84408 0.38259 0.0
H1075 H 0.60487 0.85891 0.45528 0.0
H1076 H 0.59534 0.86859 0.39423 0.0
H1077 H 0.60391 0.88014 0.4527 0.0
H1078 H 0.64861 0.91504 0.36106 0.0
H1079 H 0.63219 0.9242 0.27792 0.0
H1080 H 0.6033 0.88216 0.29313 0.0
C1081 C 0.64007 0.86178 0.47948 0.0
C1082 C 0.65364 0.86587 0.5126 0.0
C1083 C 0.66152 0.8802 0.4997 0.0
C1084 C 0.6561 0.89024 0.45476 0.0
C1085 C 0.6428 0.8858 0.42259 0.0
C1086 C 0.63489 0.8719 0.43428 0.0
C1087 C 0.62115 0.86971 0.39199 0.0
C1088 C 0.62336 0.85479 0.35439 0.0
C1089 C 0.60538 0.86932 0.42556 0.0
C1090 C 0.62258 0.88454 0.35472 0.0
C1091 C 0.63512 0.89368 0.37335 0.0
C1092 C 0.63877 0.90796 0.34612 0.0
C1093 C 0.62936 0.91307 0.29882 0.0
C1094 C 0.61646 0.90392 0.27867 0.0
C1095 C 0.61311 0.88942 0.30716 0.0
H1096 H 0.6287 0.65679 0.5048 0.0
H1097 H 0.66624 0.62346 0.5422 0.0
H1098 H 0.65636 0.60606 0.4632 0.0
H1099 H 0.59832 0.62778 0.46965 0.0
H1100 H 0.58994 0.6394 0.41096 0.0
H1101 H 0.59953 0.64899 0.47208 0.0
H1102 H 0.61806 0.66357 0.39952 0.0
H1103 H 0.60859 0.65397 0.33821 0.0
H1104 H 0.62964 0.65233 0.34775 0.0
H1105 H 0.64287 0.59245 0.3788 0.0
H1106 H 0.62664 0.58344 0.2953 0.0
H1107 H 0.59783 0.62559 0.30973 0.0
C1108 C 0.63474 0.64574 0.49682 0.0
C1109 C 0.64824 0.64147 0.53018 0.0
C1110 C 0.65588 0.627 0.51761 0.0
C1111 C 0.65035 0.61702 0.47269 0.0
C1112 C 0.63716 0.62165 0.44025 0.0
C1113 C 0.62942 0.63565 0.45169 0.0
C1114 C 0.61573 0.63797 0.40912 0.0
C1115 C 0.59994 0.63857 0.44245 0.0
C1116 C 0.61816 0.65284 0.37142 0.0
C1117 C 0.61702 0.6231 0.37193 0.0
C1118 C 0.62946 0.61386 0.39089 0.0
C1119 C 0.63309 0.59959 0.36368 0.0
C1120 C 0.62377 0.59457 0.3161 0.0
C1121 C 0.61092 0.60377 0.29562 0.0
C1122 C 0.60757 0.61828 0.32409 0.0
H1123 H 0.60371 0.38166 0.75322 0.0
H1124 H 0.63532 0.42132 0.77866 0.0
H1125 H 0.65224 0.41153 0.69784 0.0
H1126 H 0.63389 0.35267 0.71874 0.0
H1127 H 0.62207 0.34284 0.6639 0.0
H1128 H 0.61267 0.35276 0.72474 0.0
H1129 H 0.5962 0.36938 0.6514 0.0
H1130 H 0.6056 0.35958 0.59034 0.0
H1131 H 0.60614 0.38078 0.59552 0.0
H1132 H 0.66557 0.39762 0.61285 0.0
H1133 H 0.67452 0.38049 0.53144 0.0
H1134 H 0.63418 0.3499 0.55993 0.0
C1135 C 0.61426 0.38822 0.74214 0.0
C1136 C 0.6182 0.40226 0.77262 0.0
C1137 C 0.63205 0.41054 0.75624 0.0
C1138 C 0.64174 0.40507 0.71026 0.0
C1139 C 0.63745 0.39129 0.68079 0.0
C1140 C 0.62405 0.38295 0.69614 0.0
C1141 C 0.622 0.36859 0.65683 0.0
C1142 C 0.6227 0.35331 0.69323 0.0
C1143 C 0.60657 0.36965 0.62143 0.0
C1144 C 0.63631 0.37017 0.61693 0.0
C1145 C 0.64506 0.38335 0.63156 0.0
C1146 C 0.65881 0.38728 0.60109 0.0
C1147 C 0.66379 0.37746 0.55478 0.0
C1148 C 0.65507 0.36384 0.53902 0.0
C1149 C 0.6411 0.36024 0.57062 0.0
H1150 H 0.9038 0.38688 0.78169 0.0
H1151 H 0.87105 0.42491 0.74434 0.0
H1152 H 0.85301 0.4147 0.82123 0.0
H1153 H 0.87473 0.35663 0.81095 0.0
H1154 H 0.88593 0.34782 0.86991 0.0
H1155 H 0.89597 0.35785 0.81079 0.0
H1156 H 0.91001 0.37587 0.88655 0.0
H1157 H 0.9 0.36591 0.94589 0.0
H1158 H 0.89837 0.38701 0.93844 0.0
H1159 H 0.8385 0.40022 0.90294 0.0
H1160 H 0.82909 0.38321 0.98416 0.0
H1161 H 0.87169 0.35507 0.97032 0.0
C1162 C 0.89278 0.39302 0.78934 0.0
C1163 C 0.88881 0.40668 0.7566 0.0
C1164 C 0.87435 0.41442 0.76863 0.0
C1165 C 0.86402 0.40869 0.81224 0.0
C1166 C 0.86833 0.39524 0.84385 0.0
C1167 C 0.88241 0.38754 0.83306 0.0
C1168 C 0.88446 0.37357 0.87425 0.0
C1169 C 0.88532 0.35805 0.83938 0.0
C1170 C 0.89908 0.37573 0.91361 0.0
C1171 C 0.86935 0.37459 0.90995 0.0
C1172 C 0.86016 0.38713 0.89152 0.0
C1173 C 0.84563 0.39039 0.91769 0.0
C1174 C 0.84037 0.38064 0.96384 0.0
C1175 C 0.84963 0.3678 0.98386 0.0
C1176 C 0.86432 0.3648 0.95628 0.0
H1177 H 0.88407 0.59872 0.21844 0.0
H1178 H 0.92455 0.62996 0.23062 0.0
H1179 H 0.91459 0.64535 0.14708 0.0
H1180 H 0.8805 0.59926 0.05836 0.0
H1181 H 0.85924 0.59981 0.05784 0.0
H1182 H 0.86951 0.59058 0.11821 0.0
H1183 H 0.85492 0.60869 0.19205 0.0
H1184 H 0.84457 0.61795 0.13192 0.0
H1185 H 0.85587 0.62978 0.18266 0.0
H1186 H 0.90128 0.65716 0.06208 0.0
H1187 H 0.88398 0.66635 0.98273 0.0
H1188 H 0.85046 0.62917 0.02392 0.0
C1189 C 0.89081 0.60877 0.20328 0.0
C1190 C 0.90517 0.61306 0.23135 0.0
C1191 C 0.91353 0.62641 0.2104 0.0
C1192 C 0.908 0.63524 0.16263 0.0
C1193 C 0.89391 0.63079 0.13605 0.0
C1194 C 0.88526 0.61802 0.15565 0.0
C1195 C 0.87015 0.61639 0.1195 0.0
C1196 C 0.86984 0.60057 0.08652 0.0
C1197 C 0.85551 0.61832 0.15889 0.0
C1198 C 0.8718 0.63019 0.07669 0.0
C1199 C 0.88574 0.63815 0.08715 0.0
C1200 C 0.89029 0.65109 0.05357 0.0
C1201 C 0.88033 0.65619 1.00827 0.0
C1202 C 0.86578 0.64856 0.99671 0.0
C1203 C 0.86147 0.63531 0.0316 0.0
H1204 H 0.35092 0.38246 0.53435 0.0
H1205 H 0.37358 0.33657 0.54513 0.0
H1206 H 0.38846 0.34519 0.63147 0.0
H1207 H 0.38574 0.40473 0.57425 0.0
H1208 H 0.37546 0.41923 0.61783 0.0
H1209 H 0.36548 0.40952 0.55786 0.0
H1210 H 0.34345 0.40049 0.62929 0.0
H1211 H 0.35339 0.41016 0.68953 0.0
H1212 H 0.34861 0.38949 0.6945 0.0
H1213 H 0.40132 0.3579 0.71396 0.0
H1214 H 0.4131 0.37506 0.78847 0.0
H1215 H 0.38379 0.41398 0.72886 0.0
C1216 C 0.35894 0.37426 0.55531 0.0
C1217 C 0.36103 0.35879 0.53256 0.0
C1218 C 0.37177 0.34848 0.56102 0.0
C1219 C 0.38027 0.35323 0.61055 0.0
C1220 C 0.37811 0.36844 0.63161 0.0
C1221 C 0.36784 0.37893 0.60515 0.0
C1222 C 0.36859 0.39486 0.6365 0.0
C1223 C 0.37415 0.40785 0.59407 0.0
C1224 C 0.35255 0.39899 0.66409 0.0
C1225 C 0.38094 0.39156 0.68397 0.0
C1226 C 0.38603 0.37613 0.68009 0.0
C1227 C 0.39745 0.37002 0.7176 0.0
C1228 C 0.4041 0.37994 0.75991 0.0
C1229 C 0.39946 0.39594 0.76481 0.0
C1230 C 0.38754 0.4018 0.72656 0.0
H1231 H 0.37579 0.65709 0.49954 0.0
H1232 H 0.33499 0.62721 0.52889 0.0
H1233 H 0.34404 0.60948 0.44894 0.0
H1234 H 0.3758 0.65405 0.34237 0.0
H1235 H 0.397 0.65402 0.3358 0.0
H1236 H 0.38771 0.66388 0.39695 0.0
H1237 H 0.40426 0.64726 0.47008 0.0
H1238 H 0.41365 0.63738 0.40914 0.0
H1239 H 0.40375 0.62605 0.46529 0.0
H1240 H 0.35764 0.59507 0.3644 0.0
H1241 H 0.3742 0.58547 0.2822 0.0
H1242 H 0.4057 0.62528 0.30585 0.0
C1243 C 0.36882 0.64672 0.48966 0.0
C1244 C 0.3547 0.64349 0.52102 0.0
C1245 C 0.34586 0.62992 0.50586 0.0
C1246 C 0.35092 0.61978 0.46042 0.0
C1247 C 0.36481 0.6234 0.43011 0.0
C1248 C 0.37362 0.63658 0.44411 0.0
C1249 C 0.38785 0.63811 0.40376 0.0
C1250 C 0.38704 0.65342 0.36758 0.0
C1251 C 0.40329 0.63714 0.43919 0.0
C1252 C 0.38573 0.62372 0.36478 0.0
C1253 C 0.3724 0.61535 0.38087 0.0
C1254 C 0.36807 0.60157 0.35152 0.0
C1255 C 0.37758 0.5962 0.30477 0.0
C1256 C 0.39126 0.60461 0.28723 0.0
C1257 C 0.3953 0.61859 0.31783 0.0
H1258 H 0.14084 0.65461 0.04349 0.0
H1259 H 0.18272 0.62577 0.02243 0.0
H1260 H 0.17298 0.60776 0.10045 0.0
H1261 H 0.1385 0.65107 0.20191 0.0
H1262 H 0.11724 0.65067 0.20308 0.0
H1263 H 0.12743 0.661 0.14511 0.0
H1264 H 0.11246 0.64451 0.06704 0.0
H1265 H 0.10224 0.6341 0.12477 0.0
H1266 H 0.11332 0.62329 0.0703 0.0
H1267 H 0.1579 0.5923 0.17943 0.0
H1268 H 0.1399 0.5819 0.25621 0.0
H1269 H 0.10862 0.6217 0.22871 0.0
C1270 C 0.14798 0.6445 0.05519 0.0
C1271 C 0.16254 0.64157 0.0265 0.0
C1272 C 0.17155 0.62827 0.04369 0.0
C1273 C 0.16608 0.61795 0.0879 0.0
C1274 C 0.15164 0.62116 0.11512 0.0
C1275 C 0.1428 0.63422 0.09973 0.0
C1276 C 0.12787 0.63527 0.13651 0.0
C1277 C 0.12776 0.6504 0.17387 0.0
C1278 C 0.1131 0.63422 0.0973 0.0
C1279 C 0.12959 0.62072 0.17486 0.0
C1280 C 0.14331 0.61265 0.16159 0.0
C1281 C 0.14719 0.59862 0.19034 0.0
C1282 C 0.13687 0.59277 0.23385 0.0
C1283 C 0.12288 0.601 0.24887 0.0
C1284 C 0.11928 0.61517 0.21874 0.0
H1285 H 0.12494 0.40968 0.79029 0.0
H1286 H 0.09424 0.37114 0.73778 0.0
H1287 H 0.10548 0.35452 0.81535 0.0
H1288 H 0.15926 0.3844 0.82788 0.0
H1289 H 0.16497 0.39614 0.89056 0.0
H1290 H 0.15515 0.40526 0.82885 0.0
H1291 H 0.13365 0.41608 0.899 0.0
H1292 H 0.14333 0.40692 0.96085 0.0
H1293 H 0.12291 0.40261 0.94562 0.0
H1294 H 0.11796 0.34248 0.90082 0.0
H1295 H 0.13293 0.33442 0.98782 0.0
H1296 H 0.15731 0.37951 0.98858 0.0
C1297 C 0.12079 0.39767 0.79468 0.0
C1298 C 0.10862 0.39178 0.7576 0.0
C1299 C 0.10345 0.37602 0.76532 0.0
C1300 C 0.10978 0.36643 0.80944 0.0
C1301 C 0.12143 0.3726 0.84584 0.0
C1302 C 0.12711 0.38775 0.83893 0.0
C1303 C 0.13965 0.39122 0.88552 0.0
C1304 C 0.15571 0.39445 0.85646 0.0
C1305 C 0.13458 0.40503 0.92509 0.0
C1306 C 0.13987 0.37573 0.91982 0.0
C1307 C 0.12915 0.36529 0.89573 0.0
C1308 C 0.12651 0.35047 0.91983 0.0
C1309 C 0.13508 0.34604 0.96971 0.0
C1310 C 0.14638 0.35627 0.99545 0.0
C1311 C 0.14885 0.37137 0.96985 0.0
H1312 H 0.16646 0.28818 0.1813 0.0
H1313 H 0.18887 0.29703 0.01256 0.0
H1314 H 0.19207 0.26829 0.99765 0.0
H1315 H 0.19058 0.25407 0.22265 0.0
H1316 H 0.17419 0.24406 0.25682 0.0
H1317 H 0.1748 0.26529 0.25559 0.0
H1318 H 0.14737 0.26588 0.20519 0.0
H1319 H 0.1467 0.24468 0.20597 0.0
H1320 H 0.14444 0.25517 0.13741 0.0
H1321 H 0.19112 0.23825 0.99878 0.0
H1322 H 0.18661 0.20978 0.01702 0.0
H1323 H 0.16491 0.2211 0.18501 0.0
C1324 C 0.17224 0.2841 0.14155 0.0
C1325 C 0.17744 0.29484 0.09811 0.0
C1326 C 0.18485 0.28901 0.04653 0.0
C1327 C 0.18671 0.27271 0.03768 0.0
C1328 C 0.18118 0.26242 0.08099 0.0
C1329 C 0.1742 0.26792 0.1321 0.0
C1330 C 0.16872 0.25448 0.17091 0.0
C1331 C 0.17761 0.25448 0.22998 0.0
C1332 C 0.15074 0.25509 0.18039 0.0
C1333 C 0.17341 0.24053 0.13325 0.0
C1334 C 0.18067 0.24529 0.08167 0.0
C1335 C 0.18557 0.23441 0.03927 0.0
C1336 C 0.18294 0.21827 0.04992 0.0
C1337 C 0.17545 0.21322 0.10244 0.0
C1338 C 0.17075 0.22456 0.14455 0.0
H1339 H 0.97201 0.91651 0.42463 0.0
H1340 H 0.96282 0.93452 0.24904 0.0
H1341 H 0.99158 0.93794 0.23327 0.0
H1342 H 0.00515 0.94233 0.45828 0.0
H1343 H 0.01553 0.92717 0.49824 0.0
H1344 H 0.99428 0.92709 0.49603 0.0
H1345 H 0.99468 0.89856 0.45504 0.0
H1346 H 0.0159 0.89856 0.45695 0.0
H1347 H 0.00574 0.89433 0.389 0.0
H1348 H 0.02188 0.93794 0.23587 0.0
H1349 H 0.05043 0.93475 0.25705 0.0
H1350 H 0.03894 0.91688 0.431 0.0
C1351 C 0.97599 0.92133 0.38301 0.0
C1352 C 0.96518 0.92527 0.33805 0.0
C1353 C 0.97091 0.93147 0.28416 0.0
C1354 C 0.98722 0.93345 0.27485 0.0
C1355 C 0.99759 0.92926 0.32001 0.0
C1356 C 0.99214 0.92341 0.37314 0.0
C1357 C 0.00558 0.91931 0.41415 0.0
C1358 C 0.00511 0.92959 0.46997 0.0
C1359 C 0.00546 0.90165 0.42966 0.0
C1360 C 0.01952 0.92349 0.3756 0.0
C1361 C 0.01476 0.9293 0.32154 0.0
C1362 C 0.0257 0.93351 0.27826 0.0
C1363 C 0.04189 0.93165 0.2906 0.0
C1364 C 0.04692 0.92561 0.34567 0.0
C1365 C 0.03552 0.92161 0.38857 0.0
H1366 H 0.34668 0.79078 0.67193 0.0
H1367 H 0.32279 0.80055 0.50686 0.0
H1368 H 0.32095 0.77185 0.48731 0.0
H1369 H 0.36995 0.75886 0.62007 0.0
H1370 H 0.36854 0.74774 0.68757 0.0
H1371 H 0.36728 0.76892 0.68937 0.0
H1372 H 0.34029 0.76713 0.74287 0.0
H1373 H 0.34151 0.74593 0.74152 0.0
H1374 H 0.32458 0.75573 0.7104 0.0
H1375 H 0.32221 0.74175 0.48591 0.0
H1376 H 0.32644 0.7132 0.50264 0.0
H1377 H 0.35011 0.72374 0.66748 0.0
C1378 C 0.34094 0.78692 0.63182 0.0
C1379 C 0.33483 0.7979 0.59094 0.0
C1380 C 0.32752 0.79234 0.53883 0.0
C1381 C 0.32643 0.77607 0.52739 0.0
C1382 C 0.33274 0.76555 0.56847 0.0
C1383 C 0.33983 0.7708 0.61967 0.0
C1384 C 0.346 0.7572 0.65625 0.0
C1385 C 0.36401 0.75825 0.66372 0.0
C1386 C 0.33759 0.75646 0.71631 0.0
C1387 C 0.3414 0.74344 0.61753 0.0
C1388 C 0.33368 0.74844 0.56722 0.0
C1389 C 0.32825 0.73774 0.52516 0.0
C1390 C 0.33072 0.72155 0.53498 0.0
C1391 C 0.33864 0.71624 0.58626 0.0
C1392 C 0.34406 0.7274 0.62775 0.0
H1393 H 0.47315 0.08383 0.76335 0.0
H1394 H 0.46503 0.07842 0.95122 0.0
H1395 H 0.49309 0.07451 0.96745 0.0
H1396 H 0.50799 0.05571 0.75435 0.0
H1397 H 0.51853 0.0681 0.70318 0.0
H1398 H 0.49725 0.06779 0.70274 0.0
H1399 H 0.49681 0.09807 0.71652 0.0
H1400 H 0.51805 0.09847 0.71743 0.0
H1401 H 0.50708 0.1067 0.77816 0.0
H1402 H 0.5211 0.07586 0.96869 0.0
H1403 H 0.54898 0.08068 0.9544 0.0
H1404 H 0.54208 0.08409 0.76528 0.0
C1405 C 0.47732 0.0813 0.80745 0.0
C1406 C 0.46674 0.08119 0.85597 0.0
C1407 C 0.47268 0.07841 0.91326 0.0
C1408 C 0.48872 0.07613 0.92305 0.0
C1409 C 0.49888 0.07677 0.87514 0.0
C1410 C 0.49359 0.07919 0.81829 0.0
C1411 C 0.50759 0.08086 0.77634 0.0
C1412 C 0.50785 0.0673 0.73148 0.0
C1413 C 0.50736 0.09698 0.74529 0.0
C1414 C 0.52139 0.07962 0.81928 0.0
C1415 C 0.51584 0.07714 0.87578 0.0
C1416 C 0.5257 0.07727 0.92449 0.0
C1417 C 0.5417 0.08004 0.91574 0.0
C1418 C 0.54801 0.08226 0.85861 0.0
C1419 C 0.53769 0.08189 0.80935 0.0
H1420 H 0.18071 0.78831 0.99429 0.0
H1421 H 0.16072 0.79585 0.81991 0.0
H1422 H 0.16016 0.76758 0.80299 0.0
H1423 H 0.2052 0.7538 0.95179 0.0
H1424 H 0.20167 0.74324 0.01951 0.0
H1425 H 0.20154 0.7645 0.01909 0.0
H1426 H 0.17351 0.76438 0.06441 0.0
H1427 H 0.17352 0.74313 0.06464 0.0
H1428 H 0.15794 0.75372 0.0278 0.0
H1429 H 0.15909 0.73953 0.80515 0.0
H1430 H 0.15972 0.71131 0.82276 0.0
H1431 H 0.18178 0.71906 0.99343 0.0
C1432 C 0.17642 0.78395 0.95243 0.0
C1433 C 0.17081 0.79447 0.90842 0.0
C1434 C 0.16516 0.78825 0.85442 0.0
C1435 C 0.16475 0.7721 0.84417 0.0
C1436 C 0.17005 0.76208 0.88818 0.0
C1437 C 0.17593 0.76756 0.94109 0.0
C1438 C 0.1805 0.75368 0.98048 0.0
C1439 C 0.19829 0.75381 0.99348 0.0
C1440 C 0.17079 0.75374 0.03773 0.0
C1441 C 0.17602 0.73975 0.94127 0.0
C1442 C 0.16996 0.74514 0.88853 0.0
C1443 C 0.16411 0.73507 0.8457 0.0
C1444 C 0.16458 0.71894 0.85632 0.0
C1445 C 0.17115 0.71277 0.90894 0.0
C1446 C 0.17692 0.72337 0.95237 0.0
H1447 H 0.4719 0.93801 0.22116 0.0
H1448 H 0.46296 0.8983 0.10472 0.0
H1449 H 0.49119 0.89274 0.09999 0.0
H1450 H 0.50737 0.95073 0.14608 0.0
H1451 H 0.51786 0.95639 0.21185 0.0
H1452 H 0.49661 0.95715 0.21032 0.0
H1453 H 0.49545 0.93908 0.30216 0.0
H1454 H 0.5167 0.93823 0.30385 0.0
H1455 H 0.50535 0.92027 0.30073 0.0
H1456 H 0.51942 0.89121 0.10396 0.0
H1457 H 0.54794 0.89459 0.11207 0.0
H1458 H 0.54106 0.93562 0.22401 0.0
C1459 C 0.47596 0.92812 0.19515 0.0
C1460 C 0.46514 0.91858 0.16337 0.0
C1461 C 0.47092 0.90584 0.12923 0.0
C1462 C 0.48698 0.90249 0.12644 0.0
C1463 C 0.49732 0.91203 0.15766 0.0
C1464 C 0.49224 0.92466 0.19107 0.0
C1465 C 0.50638 0.93331 0.2174 0.0
C1466 C 0.50709 0.95041 0.19507 0.0
C1467 C 0.50594 0.93268 0.28507 0.0
C1468 C 0.52002 0.92355 0.19301 0.0
C1469 C 0.51428 0.91129 0.15916 0.0
C1470 C 0.52412 0.90073 0.13037 0.0
C1471 C 0.54036 0.90281 0.1352 0.0
C1472 C 0.54679 0.91539 0.16851 0.0
C1473 C 0.53648 0.92582 0.19868 0.0
H1474 H 0.34788 0.22292 0.34299 0.0
H1475 H 0.32586 0.21068 0.50947 0.0
H1476 H 0.3206 0.23899 0.52841 0.0
H1477 H 0.36728 0.25735 0.39314 0.0
H1478 H 0.36444 0.26809 0.3254 0.0
H1479 H 0.36561 0.24691 0.32421 0.0
H1480 H 0.33849 0.24558 0.27163 0.0
H1481 H 0.33722 0.26678 0.27277 0.0
H1482 H 0.32163 0.25509 0.30461 0.0
H1483 H 0.31864 0.26905 0.52986 0.0
H1484 H 0.32081 0.2979 0.5151 0.0
H1485 H 0.34426 0.28991 0.34774 0.0
C1486 C 0.34184 0.22615 0.38329 0.0
C1487 C 0.33723 0.21459 0.42473 0.0
C1488 C 0.32947 0.21934 0.47709 0.0
C1489 C 0.32641 0.23538 0.48812 0.0
C1490 C 0.33118 0.24649 0.4463 0.0
C1491 C 0.33874 0.24203 0.39495 0.0
C1492 C 0.3432 0.25619 0.35791 0.0
C1493 C 0.3612 0.25719 0.34972 0.0
C1494 C 0.33462 0.25589 0.2982 0.0
C1495 C 0.33714 0.26938 0.39662 0.0
C1496 C 0.33014 0.2636 0.44726 0.0
C1497 C 0.32403 0.27367 0.49021 0.0
C1498 C 0.3253 0.29004 0.48143 0.0
C1499 C 0.33267 0.29615 0.43025 0.0
C1500 C 0.33849 0.28562 0.3872 0.0
H1501 H 0.97107 0.09651 0.59383 0.0
H1502 H 0.95778 0.07471 0.75956 0.0
H1503 H 0.98604 0.07026 0.7825 0.0
H1504 H 1.00434 0.07106 0.56106 0.0
H1505 H 0.0159 0.08686 0.53008 0.0
H1506 H 0.99468 0.08751 0.52601 0.0
H1507 H 0.99473 0.11481 0.57743 0.0
H1508 H 0.01592 0.11425 0.58158 0.0
H1509 H 1.00443 0.117 0.64766 0.0
H1510 H 0.01615 0.06904 0.78788 0.0
H1511 H 0.0451 0.07187 0.77666 0.0
H1512 H 0.03805 0.09478 0.60774 0.0
C1513 C 0.97406 0.09068 0.6348 0.0
C1514 C 0.96222 0.08591 0.67488 0.0
C1515 C 0.96666 0.07844 0.72818 0.0
C1516 C 0.98267 0.07584 0.74148 0.0
C1517 C 0.99406 0.08078 0.70098 0.0
C1518 C 0.9899 0.08806 0.64873 0.0
C1519 C 1.00429 0.0928 0.61344 0.0
C1520 C 1.00483 0.08403 0.55414 0.0
C1521 C 1.00487 0.11078 0.60454 0.0
C1522 C 0.01726 0.08725 0.65421 0.0
C1523 C 0.01118 0.08022 0.70429 0.0
C1524 C 0.02101 0.07447 0.7487 0.0
C1525 C 0.03743 0.07611 0.74194 0.0
C1526 C 0.04383 0.08353 0.69135 0.0
C1527 C 0.03355 0.08901 0.64687 0.0
H1528 H 0.83598 0.71719 0.97435 0.0
H1529 H 0.83649 0.71118 0.78416 0.0
H1530 H 0.83338 0.73949 0.77082 0.0
H1531 H 0.80791 0.75133 0.97719 0.0
H1532 H 0.81849 0.76142 0.03484 0.0
H1533 H 0.81866 0.74017 0.03162 0.0
H1534 H 0.8492 0.7404 0.03006 0.0
H1535 H 0.84912 0.76161 0.03319 0.0
H1536 H 0.85936 0.75166 0.9743 0.0
H1537 H 0.83312 0.76776 0.77482 0.0
H1538 H 0.83595 0.79574 0.79621 0.0
H1539 H 0.83557 0.78588 0.98407 0.0
C1540 C 0.83509 0.72187 0.93008 0.0
C1541 C 0.83625 0.71181 0.8803 0.0
C1542 C 0.83546 0.71843 0.82307 0.0
C1543 C 0.83365 0.7346 0.81487 0.0
C1544 C 0.83277 0.7442 0.86429 0.0
C1545 C 0.83348 0.73824 0.9209 0.0
C1546 C 0.83359 0.75167 0.96561 0.0
C1547 C 0.81878 0.75111 1.00463 0.0
C1548 C 0.84872 0.75131 1.00299 0.0
C1549 C 0.83329 0.76595 0.92481 0.0
C1550 C 0.83264 0.76115 0.86669 0.0
C1551 C 0.83336 0.77174 0.82014 0.0
C1552 C 0.83501 0.78771 0.83291 0.0
C1553 C 0.83578 0.79314 0.89182 0.0
C1554 C 0.83466 0.78211 0.93861 0.0
H1555 H 0.66252 0.21974 0.36385 0.0
H1556 H 0.68926 0.20794 0.52077 0.0
H1557 H 0.69269 0.23644 0.54194 0.0
H1558 H 0.68543 0.25367 0.32133 0.0
H1559 H 0.66848 0.26449 0.29553 0.0
H1560 H 0.66852 0.24327 0.29288 0.0
H1561 H 0.64265 0.24261 0.35388 0.0
H1562 H 0.64252 0.26382 0.35671 0.0
H1563 H 0.64189 0.25256 0.42405 0.0
H1564 H 0.69278 0.26673 0.54563 0.0
H1565 H 0.68921 0.29554 0.53221 0.0
H1566 H 0.66228 0.28672 0.37308 0.0
C1567 C 0.66916 0.22309 0.40263 0.0
C1568 C 0.67565 0.2116 0.44066 0.0
C1569 C 0.68419 0.21655 0.491 0.0
C1570 C 0.68621 0.2327 0.50331 0.0
C1571 C 0.67961 0.24373 0.4648 0.0
C1572 C 0.67126 0.23908 0.41548 0.0
C1573 C 0.66511 0.25311 0.3813 0.0
C1574 C 0.67232 0.25367 0.31908 0.0
C1575 C 0.64697 0.25302 0.37888 0.0
C1576 C 0.67119 0.26646 0.41918 0.0
C1577 C 0.67959 0.26089 0.46706 0.0
C1578 C 0.68623 0.27118 0.50821 0.0
C1579 C 0.68415 0.28752 0.50025 0.0
C1580 C 0.67547 0.29339 0.45165 0.0
C1581 C 0.66899 0.28265 0.41071 0.0
H1582 H 0.82865 0.29225 0.02073 0.0
H1583 H 0.84213 0.29961 0.20357 0.0
H1584 H 0.84134 0.27149 0.22125 0.0
H1585 H 0.80309 0.25703 0.0472 0.0
H1586 H 0.80985 0.24673 0.98244 0.0
H1587 H 0.80938 0.26799 0.98326 0.0
H1588 H 0.83902 0.26875 0.95594 0.0
H1589 H 0.83958 0.24752 0.95511 0.0
H1590 H 0.85304 0.25837 1.00138 0.0
H1591 H 0.84156 0.24351 0.22091 0.0
H1592 H 0.84346 0.21544 0.20175 0.0
H1593 H 0.83037 0.22313 0.01865 0.0
C1594 C 0.83112 0.28788 0.0646 0.0
C1595 C 0.83512 0.29838 0.11103 0.0
C1596 C 0.83872 0.29212 0.16734 0.0
C1597 C 0.83833 0.27601 0.17809 0.0
C1598 C 0.83453 0.26602 0.13195 0.0
C1599 C 0.83107 0.2715 0.07612 0.0
C1600 C 0.82871 0.25762 0.03414 0.0
C1601 C 0.81174 0.25733 1.01035 0.0
C1602 C 0.84081 0.2581 0.98365 0.0
C1603 C 0.83175 0.24371 0.07533 0.0
C1604 C 0.83489 0.24908 0.13152 0.0
C1605 C 0.8389 0.23905 0.17735 0.0
C1606 C 0.83993 0.223 0.16578 0.0
C1607 C 0.83685 0.21688 0.10885 0.0
C1608 C 0.83253 0.2274 0.06287 0.0
H1609 H 0.65896 0.72083 0.6725 0.0
H1610 H 0.6834 0.70868 0.51076 0.0
H1611 H 0.68738 0.73713 0.48975 0.0
H1612 H 0.63862 0.7545 0.61739 0.0
H1613 H 0.6405 0.76548 0.68501 0.0
H1614 H 0.63995 0.74428 0.68689 0.0
H1615 H 0.66659 0.74386 0.74304 0.0
H1616 H 0.66722 0.76508 0.74135 0.0
H1617 H 0.68345 0.75382 0.71195 0.0
H1618 H 0.68824 0.76754 0.48696 0.0
H1619 H 0.6859 0.79641 0.50282 0.0
H1620 H 0.6609 0.78771 0.6665 0.0
C1621 C 0.6652 0.7241 0.63265 0.0
C1622 C 0.67088 0.71252 0.59324 0.0
C1623 C 0.67895 0.71735 0.5416 0.0
C1624 C 0.68126 0.73348 0.52935 0.0
C1625 C 0.67545 0.7446 0.56926 0.0
C1626 C 0.6676 0.74004 0.61991 0.0
C1627 C 0.66238 0.75414 0.65579 0.0
C1628 C 0.64429 0.75462 0.66157 0.0
C1629 C 0.67039 0.75422 0.71662 0.0
C1630 C 0.66839 0.76742 0.61742 0.0
C1631 C 0.67595 0.76178 0.5677 0.0
C1632 C 0.68236 0.77203 0.52585 0.0
C1633 C 0.68098 0.78841 0.53517 0.0
C1634 C 0.67323 0.79434 0.58587 0.0
C1635 C 0.66692 0.78361 0.62729 0.0
H1636 H 0.53982 0.41274 0.92775 0.0
H1637 H 0.55099 0.43694 0.7645 0.0
H1638 H 0.52246 0.44115 0.74645 0.0
H1639 H 0.50583 0.39262 0.87644 0.0
H1640 H 0.49514 0.39462 0.94473 0.0
H1641 H 0.51637 0.3941 0.94524 0.0
H1642 H 0.51699 0.42082 1.00061 0.0
H1643 H 0.49574 0.42143 1.00025 0.0
H1644 H 0.50687 0.43759 0.96973 0.0
H1645 H 0.4923 0.44174 0.74509 0.0
H1646 H 0.46351 0.43873 0.76083 0.0
H1647 H 0.47265 0.4145 0.92572 0.0
C1648 C 0.53631 0.419 0.88829 0.0
C1649 C 0.54764 0.42451 0.84748 0.0
C1650 C 0.54251 0.43263 0.7964 0.0
C1651 C 0.52634 0.43509 0.78582 0.0
C1652 C 0.51546 0.42943 0.82693 0.0
C1653 C 0.52028 0.4216 0.87726 0.0
C1654 C 0.50633 0.41643 0.91418 0.0
C1655 C 0.50589 0.39837 0.92048 0.0
C1656 C 0.50649 0.42456 0.97478 0.0
C1657 C 0.49285 0.42236 0.8765 0.0
C1658 C 0.4983 0.42988 0.82641 0.0
C1659 C 0.48793 0.43596 0.78436 0.0
C1660 C 0.4716 0.4342 0.79364 0.0
C1661 C 0.46583 0.42643 0.84454 0.0
C1662 C 0.47666 0.42058 0.88652 0.0
H1663 H 0.97573 0.57824 0.27566 0.0
H1664 H 0.96834 0.60527 0.4364 0.0
H1665 H 0.99665 0.60706 0.45112 0.0
H1666 H 0.00981 0.55615 0.331 0.0
H1667 H 0.02065 0.55658 0.26262 0.0
H1668 H 0.99938 0.55712 0.26185 0.0
H1669 H 1.00015 0.5829 0.2009 0.0
H1670 H 0.02142 0.58244 0.20153 0.0
H1671 H 0.01109 0.59958 0.22835 0.0
H1672 H 0.02455 0.607 0.45086 0.0
H1673 H 0.05278 0.60424 0.43812 0.0
H1674 H 0.04534 0.57648 0.27906 0.0
C1675 C 0.98016 0.58451 0.31375 0.0
C1676 C 0.96965 0.59159 0.35488 0.0
C1677 C 0.97594 0.59966 0.40426 0.0
C1678 C 0.99211 0.60081 0.41316 0.0
C1679 C 1.0021 0.59381 0.37249 0.0
C1680 C 0.99661 0.58574 0.32383 0.0
C1681 C 0.01054 0.57931 0.28824 0.0
C1682 C 0.01006 0.56121 0.28579 0.0
C1683 C 0.01081 0.58648 0.22605 0.0
C1684 C 0.0245 0.58512 0.32497 0.0
C1685 C 0.01904 0.59349 0.373 0.0
C1686 C 0.02905 0.60038 0.41372 0.0
C1687 C 0.0452 0.59866 0.40588 0.0
C1688 C 0.05149 0.58997 0.35786 0.0
C1689 C 0.04095 0.58312 0.31637 0.0
H1690 H 0.96776 0.41422 0.60397 0.0
H1691 H 0.95799 0.43826 0.76873 0.0
H1692 H 0.98674 0.4406 0.78721 0.0
H1693 H 1.00042 0.39181 0.65361 0.0
H1694 H 0.01119 0.39353 0.58538 0.0
H1695 H 0.98997 0.39429 0.58503 0.0
H1696 H 0.99091 0.42131 0.53168 0.0
H1697 H 0.01215 0.42063 0.53179 0.0
H1698 H 1.00204 0.43727 0.56367 0.0
H1699 H 0.01704 0.43929 0.78837 0.0
H1700 H 0.04562 0.43487 0.77122 0.0
H1701 H 0.03475 0.41211 0.60491 0.0
C1702 C 0.97162 0.42007 0.64386 0.0
C1703 C 0.96063 0.42605 0.68497 0.0
C1704 C 0.96621 0.4336 0.7366 0.0
C1705 C 0.98252 0.43498 0.74743 0.0
C1706 C 0.99304 0.42884 0.70599 0.0
C1707 C 0.98776 0.4216 0.6551 0.0
C1708 C 1.00134 0.41581 0.61764 0.0
C1709 C 1.00069 0.39779 0.61 0.0
C1710 C 1.00162 0.42426 0.55765 0.0
C1711 C 0.01515 0.42071 0.65559 0.0
C1712 C 0.01021 0.42824 0.70638 0.0
C1713 C 0.021 0.43349 0.74856 0.0
C1714 C 0.0372 0.43092 0.73851 0.0
C1715 C 0.04242 0.42319 0.6867 0.0
C1716 C 0.03118 0.41813 0.64484 0.0
H1717 H 0.46649 0.58593 0.26415 0.0
H1718 H 0.45978 0.58283 0.07483 0.0
H1719 H 0.48773 0.57865 0.06065 0.0
H1720 H 0.50122 0.60884 0.25349 0.0
H1721 H 0.51161 0.60002 0.31446 0.0
H1722 H 0.49036 0.60009 0.31354 0.0
H1723 H 0.49011 0.56975 0.32518 0.0
H1724 H 0.5114 0.56959 0.32625 0.0
H1725 H 0.50086 0.55772 0.27339 0.0
H1726 H 0.51564 0.57807 0.06186 0.0
H1727 H 0.54359 0.58162 0.07825 0.0
H1728 H 0.53574 0.58545 0.26685 0.0
C1729 C 0.47095 0.58394 0.22005 0.0
C1730 C 0.46065 0.58431 0.17063 0.0
C1731 C 0.46704 0.58229 0.11355 0.0
C1732 C 0.48309 0.57988 0.10486 0.0
C1733 C 0.49292 0.57981 0.15364 0.0
C1734 C 0.48732 0.58187 0.21025 0.0
C1735 C 0.50114 0.583 0.25334 0.0
C1736 C 0.50107 0.59894 0.28561 0.0
C1737 C 0.50086 0.56919 0.29715 0.0
C1738 C 0.51519 0.58169 0.21133 0.0
C1739 C 0.50989 0.57964 0.15433 0.0
C1740 C 0.52002 0.57934 0.1064 0.0
C1741 C 0.53606 0.58141 0.11636 0.0
C1742 C 0.54213 0.58353 0.17388 0.0
C1743 C 0.53153 0.58344 0.22245 0.0
H1744 H 0.13352 0.14517 0.26554 0.0
H1745 H 0.17371 0.15861 0.37225 0.0
H1746 H 0.16302 0.14343 0.4561 0.0
H1747 H 0.10565 0.15005 0.37657 0.0
H1748 H 0.09328 0.13368 0.35589 0.0
H1749 H 0.10517 0.1434 0.30112 0.0
H1750 H 0.11834 0.11682 0.27369 0.0
H1751 H 0.10633 0.10696 0.32794 0.0
H1752 H 0.12751 0.10513 0.33053 0.0
H1753 H 0.14686 0.12893 0.53113 0.0
H1754 H 0.12636 0.11593 0.59161 0.0
H1755 H 0.09617 0.11285 0.43729 0.0
C1756 C 0.14026 0.14443 0.30599 0.0
C1757 C 0.15452 0.1528 0.31246 0.0
C1758 C 0.16281 0.1521 0.36656 0.0
C1759 C 0.15685 0.14352 0.41435 0.0
C1760 C 0.14249 0.13579 0.40748 0.0
C1761 C 0.13431 0.13609 0.35464 0.0
C1762 C 0.11848 0.12798 0.36073 0.0
C1763 C 0.10485 0.13947 0.34782 0.0
C1764 C 0.11762 0.11335 0.32086 0.0
C1765 C 0.11893 0.12341 0.42532 0.0
C1766 C 0.13295 0.12784 0.45135 0.0
C1767 C 0.13587 0.12527 0.51113 0.0
C1768 C 0.12414 0.11792 0.5452 0.0
C1769 C 0.10961 0.11339 0.5195 0.0
C1770 C 0.1071 0.11618 0.45863 0.0
H1771 H 0.11932 0.89104 0.51377 0.0
H1772 H 0.09575 0.92451 0.62839 0.0
H1773 H 0.11132 0.91497 0.71285 0.0
H1774 H 0.11856 0.86002 0.61278 0.0
H1775 H 0.13755 0.85198 0.5933 0.0
H1776 H 0.12652 0.86312 0.53996 0.0
H1777 H 0.1502 0.88211 0.52623 0.0
H1778 H 0.16135 0.87097 0.57954 0.0
H1779 H 0.15853 0.89186 0.58959 0.0
H1780 H 0.12728 0.89985 0.78747 0.0
H1781 H 0.14188 0.87975 0.84527 0.0
H1782 H 0.15468 0.85616 0.68226 0.0
C1783 C 0.11781 0.89664 0.55629 0.0
C1784 C 0.1064 0.90853 0.56448 0.0
C1785 C 0.10443 0.91533 0.62117 0.0
C1786 C 0.11327 0.91006 0.66943 0.0
C1787 C 0.1241 0.89798 0.6605 0.0
C1788 C 0.12644 0.89138 0.6053 0.0
C1789 C 0.13762 0.87751 0.6088 0.0
C1790 C 0.12957 0.86226 0.58747 0.0
C1791 C 0.15283 0.88081 0.57398 0.0
C1792 C 0.14075 0.87708 0.67454 0.0
C1793 C 0.13308 0.88912 0.70366 0.0
C1794 C 0.13354 0.89048 0.76508 0.0
C1795 C 0.14185 0.87904 0.7976 0.0
C1796 C 0.14937 0.86635 0.76851 0.0
C1797 C 0.14904 0.86567 0.70611 0.0
H1798 H 0.40486 0.87612 0.01645 0.0
H1799 H 0.38068 0.92104 0.01155 0.0
H1800 H 0.36289 0.91085 0.93347 0.0
H1801 H 0.40544 0.86904 0.8686 0.0
H1802 H 0.4019 0.84811 0.87221 0.0
H1803 H 0.41116 0.85802 0.93312 0.0
H1804 H 0.38958 0.84781 1.00454 0.0
H1805 H 0.38049 0.83743 0.94417 0.0
H1806 H 0.36908 0.85114 0.98739 0.0
H1807 H 0.35094 0.89692 0.84435 0.0
H1808 H 0.34237 0.87881 0.76468 0.0
H1809 H 0.37363 0.84271 0.83298 0.0
C1810 C 0.39535 0.88353 1.00066 0.0
C1811 C 0.39384 0.8992 0.02046 0.0
C1812 C 0.38166 0.90884 0.99781 0.0
C1813 C 0.37167 0.90321 0.95306 0.0
C1814 C 0.37392 0.88786 0.9325 0.0
C1815 C 0.38517 0.878 0.95692 0.0
C1816 C 0.38569 0.86224 0.92583 0.0
C1817 C 0.40201 0.85919 0.89833 0.0
C1818 C 0.38092 0.84887 0.96799 0.0
C1819 C 0.37332 0.86488 0.87891 0.0
C1820 C 0.36673 0.87975 0.88294 0.0
C1821 C 0.35579 0.88514 0.84159 0.0
C1822 C 0.35114 0.87487 0.79614 0.0
C1823 C 0.35729 0.85937 0.79302 0.0
C1824 C 0.36861 0.85444 0.83473 0.0
H1825 H 0.40947 0.10697 0.09053 0.0
H1826 H 0.38406 0.11766 0.92918 0.0
H1827 H 0.36448 0.13282 0.98737 0.0
H1828 H 0.3748 0.10341 0.18731 0.0
H1829 H 0.38489 0.1124 0.24862 0.0
H1830 H 0.39585 0.10115 0.19505 0.0
H1831 H 0.41415 0.12512 0.17662 0.0
H1832 H 0.40327 0.13643 0.22995 0.0
H1833 H 0.4056 0.14378 0.15589 0.0
H1834 H 0.34957 0.14903 0.0617 0.0
H1835 H 0.34005 0.16477 0.14579 0.0
H1836 H 0.37496 0.14295 0.25926 0.0
C1837 C 0.3997 0.11233 0.06714 0.0
C1838 C 0.39835 0.11117 1.005 0.0
C1839 C 0.38533 0.11833 0.9766 0.0
C1840 C 0.37416 0.12694 1.00936 0.0
C1841 C 0.3761 0.12806 0.0704 0.0
C1842 C 0.38849 0.12083 0.09902 0.0
C1843 C 0.38848 0.1245 0.16445 0.0
C1844 C 0.38584 0.10947 0.20101 0.0
C1845 C 0.40378 0.13296 0.18276 0.0
C1846 C 0.37438 0.13539 0.1682 0.0
C1847 C 0.36735 0.13718 0.11348 0.0
C1848 C 0.35484 0.14752 0.10478 0.0
C1849 C 0.34957 0.15645 0.15281 0.0
C1850 C 0.35673 0.155 0.20905 0.0
C1851 C 0.36908 0.14406 0.21708 0.0
H1852 H 0.92003 0.88596 0.58274 0.0
H1853 H 0.88307 0.9133 0.49886 0.0
H1854 H 0.86433 0.90497 0.57684 0.0
H1855 H 0.89553 0.85331 0.62107 0.0
H1856 H 0.90579 0.84951 0.68921 0.0
H1857 H 0.91607 0.85848 0.62849 0.0
H1858 H 0.92394 0.88177 0.69651 0.0
H1859 H 0.91329 0.87304 0.75703 0.0
H1860 H 0.90877 0.89285 0.73376 0.0
H1861 H 0.84973 0.89355 0.66498 0.0
H1862 H 0.83934 0.87625 0.74408 0.0
H1863 H 0.88569 0.85574 0.76655 0.0
C1864 C 0.90798 0.8902 0.58074 0.0
C1865 C 0.903 0.90034 0.535 0.0
C1866 C 0.8871 0.90545 0.53339 0.0
C1867 C 0.87645 0.90094 0.57786 0.0
C1868 C 0.88188 0.89123 0.62319 0.0
C1869 C 0.8972 0.88566 0.6241 0.0
C1870 C 0.89986 0.87439 0.67481 0.0
C1871 C 0.90458 0.85795 0.65202 0.0
C1872 C 0.9122 0.88091 0.71808 0.0
C1873 C 0.88358 0.87429 0.7021 0.0
C1874 C 0.87344 0.88436 0.67264 0.0
C1875 C 0.8576 0.88576 0.68866 0.0
C1876 C 0.85184 0.87606 0.73407 0.0
C1877 C 0.86187 0.86508 0.76216 0.0
C1878 C 0.87797 0.86447 0.74693 0.0
H1879 H 0.85392 0.15434 0.33363 0.0
H1880 H 0.86901 0.13246 0.1701 0.0
H1881 H 0.88403 0.11262 0.22763 0.0
H1882 H 0.88932 0.15198 0.40552 0.0
H1883 H 0.88127 0.14798 0.47756 0.0
H1884 H 0.86977 0.15869 0.42439 0.0
H1885 H 0.84714 0.13832 0.43426 0.0
H1886 H 0.85854 0.12758 0.488 0.0
H1887 H 0.85124 0.11767 0.42323 0.0
H1888 H 0.90031 0.09792 0.30234 0.0
H1889 H 0.91587 0.08872 0.38728 0.0
H1890 H 0.88986 0.12019 0.50255 0.0
C1891 C 0.86012 0.1452 0.30966 0.0
C1892 C 0.86035 0.14497 0.24721 0.0
C1893 C 0.86859 0.1328 0.2178 0.0
C1894 C 0.87715 0.12152 0.25018 0.0
C1895 C 0.8771 0.12248 0.31174 0.0
C1896 C 0.86861 0.13392 0.34113 0.0
C1897 C 0.87142 0.13328 0.40711 0.0
C1898 C 0.87836 0.14891 0.42994 0.0
C1899 C 0.85618 0.12895 0.44009 0.0
C1900 C 0.88336 0.12007 0.41038 0.0
C1901 C 0.88634 0.11389 0.35492 0.0
C1902 C 0.89786 0.10248 0.34595 0.0
C1903 C 0.9067 0.09741 0.39452 0.0
C1904 C 0.90403 0.10374 0.45159 0.0
C1905 C 0.89196 0.11496 0.45971 0.0
H1906 H 0.63859 0.14027 0.27079 0.0
H1907 H 0.67388 0.16247 0.16009 0.0
H1908 H 0.66507 0.14656 0.07527 0.0
H1909 H 0.63931 0.10067 0.19858 0.0
H1910 H 0.61823 0.09841 0.20502 0.0
H1911 H 0.62893 0.10966 0.25927 0.0
H1912 H 0.61071 0.13365 0.23985 0.0
H1913 H 0.60002 0.12251 0.18555 0.0
H1914 H 0.60876 0.14115 0.16584 0.0
H1915 H 0.6508 0.13012 0.99974 0.0
H1916 H 0.63134 0.1153 0.93973 0.0
H1917 H 0.605 0.10454 0.09891 0.0
C1918 C 0.64471 0.1414 0.22908 0.0
C1919 C 0.65697 0.15247 0.22198 0.0
C1920 C 0.66445 0.15401 0.16634 0.0
C1921 C 0.65959 0.14498 0.11796 0.0
C1922 C 0.64717 0.13446 0.1257 0.0
C1923 C 0.63982 0.13262 0.17987 0.0
C1924 C 0.62573 0.12175 0.17482 0.0
C1925 C 0.62821 0.10673 0.2116 0.0
C1926 C 0.61041 0.13028 0.19254 0.0
C1927 C 0.62609 0.11816 0.10935 0.0
C1928 C 0.63869 0.12535 0.08183 0.0
C1929 C 0.64096 0.12428 0.0209 0.0
C1930 C 0.62989 0.11583 0.98712 0.0
C1931 C 0.61662 0.10883 0.0144 0.0
C1932 C 0.61497 0.10981 0.07647 0.0
H1933 H 0.63695 0.86693 0.74675 0.0
H1934 H 0.67471 0.84818 0.85473 0.0
H1935 H 0.66597 0.86463 0.93828 0.0
H1936 H 0.63601 0.90749 0.81318 0.0
H1937 H 0.61478 0.90834 0.80971 0.0
H1938 H 0.62563 0.89726 0.75535 0.0
H1939 H 0.6092 0.87239 0.78066 0.0
H1940 H 0.59839 0.88335 0.83518 0.0
H1941 H 0.60853 0.8655 0.85582 0.0
H1942 H 0.65143 0.88076 0.0136 0.0
H1943 H 0.63166 0.89474 0.07481 0.0
H1944 H 0.60301 0.90236 0.91872 0.0
C1945 C 0.64364 0.86675 0.78741 0.0
C1946 C 0.65659 0.85648 0.79429 0.0
C1947 C 0.66479 0.85608 0.84869 0.0
C1948 C 0.65996 0.86541 0.89631 0.0
C1949 C 0.64684 0.87508 0.88901 0.0
C1950 C 0.6388 0.87585 0.83589 0.0
C1951 C 0.62408 0.88585 0.84174 0.0
C1952 C 0.6252 0.90061 0.80268 0.0
C1953 C 0.60918 0.87619 0.82753 0.0
C1954 C 0.62487 0.8901 0.90658 0.0
C1955 C 0.63822 0.88404 0.93294 0.0
C1956 C 0.64102 0.88576 0.9933 0.0
C1957 C 0.62974 0.89371 0.02778 0.0
C1958 C 0.61575 0.89962 1.00182 0.0
C1959 C 0.61355 0.89798 0.94019 0.0
H1960 H 0.5999 0.60506 0.9354 0.0
H1961 H 0.62561 0.61663 0.09509 0.0
H1962 H 0.64496 0.63166 0.03524 0.0
H1963 H 0.63458 0.60163 0.8368 0.0
H1964 H 0.62409 0.61024 0.77566 0.0
H1965 H 0.61356 0.59891 0.83019 0.0
H1966 H 0.59482 0.62254 0.84842 0.0
H1967 H 0.60531 0.63397 0.79432 0.0
H1968 H 0.60304 0.64142 0.86825 0.0
H1969 H 0.65919 0.64815 0.95967 0.0
H1970 H 0.66799 0.66399 0.87469 0.0
H1971 H 0.63335 0.64103 0.76345 0.0
C1972 C 0.60973 0.61053 0.95798 0.0
C1973 C 0.61121 0.60972 0.02016 0.0
C1974 C 0.62428 0.61702 0.04763 0.0
C1975 C 0.6353 0.62557 0.01393 0.0
C1976 C 0.63319 0.62647 0.95288 0.0
C1977 C 0.62082 0.61896 0.92513 0.0
C1978 C 0.62054 0.62249 0.85956 0.0
C1979 C 0.62337 0.60742 0.82343 0.0
C1980 C 0.60501 0.63059 0.84163 0.0
C1981 C 0.6344 0.63365 0.85473 0.0
C1982 C 0.64159 0.63569 0.90905 0.0
C1983 C 0.65383 0.64641 0.91687 0.0
C1984 C 0.65869 0.6554 0.86837 0.0
C1985 C 0.6514 0.65364 0.81248 0.0
C1986 C 0.63932 0.64237 0.80534 0.0
H1987 H 0.6404 0.33989 0.19649 0.0
H1988 H 0.65114 0.37638 0.32469 0.0
H1989 H 0.63936 0.39629 0.25838 0.0
H1990 H 0.64846 0.36291 0.0661 0.0
H1991 H 0.63247 0.35441 0.0245 0.0
H1992 H 0.64204 0.34306 0.0813 0.0
H1993 H 0.61513 0.33847 0.13281 0.0
H1994 H 0.60546 0.34965 0.07585 0.0
H1995 H 0.60304 0.35519 0.15202 0.0
H1996 H 0.6258 0.41211 0.17912 0.0
H1997 H 0.61014 0.4224 0.09539 0.0
H1998 H 0.60851 0.37569 0.01864 0.0
C1999 C 0.64032 0.35205 0.21086 0.0
C2000 C 0.64676 0.35652 0.26605 0.0
C2001 C 0.64629 0.37261 0.28282 0.0
C2002 C 0.63969 0.38402 0.2453 0.0
C2003 C 0.63362 0.37919 0.19107 0.0
C2004 C 0.6338 0.36357 0.17405 0.0
C2005 C 0.62607 0.36136 0.11432 0.0
C2006 C 0.63797 0.35506 0.06888 0.0
C2007 C 0.61156 0.35053 0.11906 0.0
C2008 C 0.62135 0.37818 0.1005 0.0
C2009 C 0.62593 0.3883 0.14519 0.0
C2010 C 0.62232 0.40433 0.14364 0.0
C2011 C 0.61352 0.41008 0.09591 0.0
C2012 C 0.60852 0.39987 0.05033 0.0
C2013 C 0.61262 0.38377 0.05227 0.0
H2014 H 0.91553 0.38654 0.43972 0.0
H2015 H 0.87979 0.41721 0.51444 0.0
H2016 H 0.86142 0.40967 0.43421 0.0
H2017 H 0.90686 0.39332 0.28694 0.0
H2018 H 0.91017 0.3731 0.26584 0.0
H2019 H 0.92061 0.38132 0.32778 0.0
H2020 H 0.91004 0.35909 0.39568 0.0
H2021 H 0.89996 0.35058 0.33362 0.0
H2022 H 0.88909 0.35552 0.39939 0.0
H2023 H 0.84707 0.39871 0.34377 0.0
H2024 H 0.83664 0.38185 0.26328 0.0
H2025 H 0.88172 0.35807 0.25161 0.0
C2026 C 0.90382 0.39166 0.43935 0.0
C2027 C 0.8991 0.4025 0.48316 0.0
C2028 C 0.88361 0.40879 0.48151 0.0
C2029 C 0.87318 0.40473 0.43572 0.0
C2030 C 0.8784 0.39429 0.3923 0.0
C2031 C 0.89326 0.38761 0.39461 0.0
C2032 C 0.89576 0.37591 0.34524 0.0
C2033 C 0.90914 0.38124 0.30402 0.0
C2034 C 0.89888 0.35929 0.36996 0.0
C2035 C 0.87992 0.37689 0.31485 0.0
C2036 C 0.87013 0.38778 0.34171 0.0
C2037 C 0.85469 0.39025 0.32221 0.0
C2038 C 0.84891 0.3808 0.27602 0.0
C2039 C 0.85853 0.36897 0.25073 0.0
C2040 C 0.8743 0.36734 0.26936 0.0
H2041 H 0.87451 0.63834 0.76181 0.0
H2042 H 0.82997 0.64074 0.66914 0.0
H2043 H 0.8411 0.62494 0.58764 0.0
H2044 H 0.89739 0.64516 0.64264 0.0
H2045 H 0.91346 0.6322 0.66167 0.0
H2046 H 0.90122 0.64036 0.71874 0.0
H2047 H 0.89461 0.61237 0.75722 0.0
H2048 H 0.90717 0.60408 0.70108 0.0
H2049 H 0.88691 0.59781 0.707 0.0
H2050 H 0.85847 0.61293 0.50877 0.0
H2051 H 0.88012 0.60378 0.44351 0.0
H2052 H 0.91322 0.61 0.58781 0.0
C2053 C 0.86692 0.63476 0.72585 0.0
C2054 C 0.8513 0.64033 0.72223 0.0
C2055 C 0.84187 0.6362 0.67308 0.0
C2056 C 0.84812 0.62731 0.62648 0.0
C2057 C 0.86386 0.62268 0.62966 0.0
C2058 C 0.87306 0.62603 0.67859 0.0
C2059 C 0.89005 0.62131 0.6683 0.0
C2060 C 0.90117 0.63561 0.67311 0.0
C2061 C 0.89497 0.6081 0.71092 0.0
C2062 C 0.88905 0.61534 0.6055 0.0
C2063 C 0.87386 0.61605 0.58394 0.0
C2064 C 0.87039 0.61204 0.52558 0.0
C2065 C 0.88276 0.60697 0.48865 0.0
C2066 C 0.89841 0.60608 0.51022 0.0
C2067 C 0.90142 0.61036 0.56956 0.0
H2068 H 0.38339 0.346 0.23481 0.0
H2069 H 0.34386 0.37745 0.26384 0.0
H2070 H 0.35431 0.39559 0.18743 0.0
H2071 H 0.41267 0.37765 0.21295 0.0
H2072 H 0.42346 0.36645 0.15879 0.0
H2073 H 0.41292 0.35642 0.21668 0.0
H2074 H 0.3978 0.34023 0.13804 0.0
H2075 H 0.40803 0.35044 0.07988 0.0
H2076 H 0.38677 0.35039 0.08171 0.0
H2077 H 0.36769 0.40858 0.09957 0.0
H2078 H 0.38573 0.41832 0.02148 0.0
H2079 H 0.41777 0.37968 0.05748 0.0
C2080 C 0.37714 0.35688 0.22581 0.0
C2081 C 0.36289 0.36044 0.25505 0.0
C2082 C 0.35493 0.37469 0.24226 0.0
C2083 C 0.36069 0.38494 0.1986 0.0
C2084 C 0.37459 0.38088 0.16929 0.0
C2085 C 0.38296 0.36743 0.18365 0.0
C2086 C 0.39781 0.36597 0.14693 0.0
C2087 C 0.41259 0.36667 0.18618 0.0
C2088 C 0.39757 0.35086 0.10943 0.0
C2089 C 0.39636 0.38054 0.1088 0.0
C2090 C 0.38274 0.38885 0.12155 0.0
C2091 C 0.3785 0.4023 0.08987 0.0
C2092 C 0.3887 0.40765 0.04527 0.0
C2093 C 0.40306 0.39972 0.03379 0.0
C2094 C 0.40685 0.38595 0.06568 0.0
H2095 H 0.40396 0.60609 0.92858 0.0
H2096 H 0.37754 0.61796 0.08636 0.0
H2097 H 0.35834 0.63272 0.0249 0.0
H2098 H 0.40121 0.64215 0.86092 0.0
H2099 H 0.39935 0.63466 0.78691 0.0
H2100 H 0.40945 0.62322 0.84188 0.0
H2101 H 0.39069 0.59968 0.82238 0.0
H2102 H 0.38053 0.61104 0.76701 0.0
H2103 H 0.36965 0.60251 0.82741 0.0
H2104 H 0.34467 0.64933 0.94819 0.0
H2105 H 0.33699 0.66574 0.86295 0.0
H2106 H 0.37193 0.64229 0.75459 0.0
C2107 C 0.39399 0.61155 0.95037 0.0
C2108 C 0.39228 0.61094 0.01246 0.0
C2109 C 0.37903 0.6182 0.03896 0.0
C2110 C 0.3681 0.6266 1.00433 0.0
C2111 C 0.37046 0.62733 0.94335 0.0
C2112 C 0.38299 0.61982 0.9166 0.0
C2113 C 0.38366 0.6233 0.85107 0.0
C2114 C 0.39934 0.63131 0.83426 0.0
C2115 C 0.38097 0.60823 0.81483 0.0
C2116 C 0.36989 0.63453 0.84517 0.0
C2117 C 0.36234 0.63658 0.89884 0.0
C2118 C 0.35026 0.64753 0.90582 0.0
C2119 C 0.34601 0.65681 0.85723 0.0
C2120 C 0.35372 0.65504 0.80221 0.0
C2121 C 0.36556 0.64351 0.79574 0.0
H2122 H 0.13338 0.65207 0.75021 0.0
H2123 H 0.17866 0.62854 0.75363 0.0
H2124 H 0.16995 0.61114 0.67134 0.0
H2125 H 0.10879 0.61798 0.70858 0.0
H2126 H 0.09646 0.63026 0.66293 0.0
H2127 H 0.10581 0.63842 0.72728 0.0
H2128 H 0.11825 0.66016 0.66155 0.0
H2129 H 0.10948 0.65172 0.59668 0.0
H2130 H 0.13054 0.65456 0.60014 0.0
H2131 H 0.15622 0.5982 0.57932 0.0
H2132 H 0.13823 0.58948 0.49872 0.0
H2133 H 0.10366 0.62384 0.55636 0.0
C2134 C 0.14124 0.64283 0.73518 0.0
C2135 C 0.15653 0.64138 0.75868 0.0
C2136 C 0.16671 0.62949 0.73706 0.0
C2137 C 0.16193 0.61975 0.68983 0.0
C2138 C 0.14698 0.62217 0.6652 0.0
C2139 C 0.13675 0.6333 0.68823 0.0
C2140 C 0.12181 0.63464 0.6527 0.0
C2141 C 0.10737 0.63004 0.69009 0.0
C2142 C 0.11993 0.65125 0.62622 0.0
C2143 C 0.12512 0.62261 0.60551 0.0
C2144 C 0.13961 0.6154 0.61284 0.0
C2145 C 0.14484 0.60378 0.57358 0.0
C2146 C 0.13467 0.59903 0.52746 0.0
C2147 C 0.11957 0.606 0.52135 0.0
C2148 C 0.11511 0.61823 0.55994 0.0
H2149 H 0.14691 0.34563 0.35642 0.0
H2150 H 0.14316 0.37585 0.20235 0.0
H2151 H 0.12867 0.39548 0.26183 0.0
H2152 H 0.10882 0.35304 0.41326 0.0
H2153 H 0.11484 0.3528 0.48944 0.0
H2154 H 0.12569 0.34157 0.43569 0.0
H2155 H 0.15142 0.35588 0.46622 0.0
H2156 H 0.14062 0.36723 0.51994 0.0
H2157 H 0.15219 0.37711 0.46441 0.0
H2158 H 0.11305 0.41083 0.33549 0.0
H2159 H 0.09719 0.42099 0.41837 0.0
H2160 H 0.11173 0.38138 0.52628 0.0
C2161 C 0.14314 0.35641 0.33502 0.0
C2162 C 0.1462 0.35915 0.27441 0.0
C2163 C 0.14102 0.37345 0.24854 0.0
C2164 C 0.1328 0.38469 0.28205 0.0
C2165 C 0.12999 0.38155 0.3415 0.0
C2166 C 0.13503 0.36778 0.36785 0.0
C2167 C 0.12999 0.36704 0.43203 0.0
C2168 C 0.11919 0.35277 0.44323 0.0
C2169 C 0.14442 0.3668 0.47307 0.0
C2170 C 0.12101 0.38243 0.43743 0.0
C2171 C 0.12124 0.39062 0.38463 0.0
C2172 C 0.11297 0.40464 0.3772 0.0
C2173 C 0.10399 0.41029 0.42447 0.0
C2174 C 0.10341 0.40204 0.47872 0.0
C2175 C 0.11228 0.38808 0.48569 0.0
loop_
_geom_bond_atom_site_label_1
_geom_bond_atom_site_label_2
_geom_bond_distance
_geom_bond_site_symmetry_2
_ccdc_geom_bond_type
Co0 O1 2.216 . S
Co0 O2 2.091 . S
Co0 O4 2.004 . S
Co0 O10 2.021 . S
Co0 O12 2.137 . S
Co0 O13 2.244 . S
O1 Co0 2.216 . S
O1 C8 1.247 . S
O2 Co0 2.091 . S
O2 C8 1.261 . S
C3 O12 1.247 . S
C3 O13 1.272 . S
O4 Co0 2.004 . S
O4 C9 1.259 . S
Co5 O6 2.061 . S
Co5 O11 2.052 . S
Co5 O13 2.135 . S
O6 Co5 2.061 . S
O6 C9 1.235 . S
C7 O10 1.238 . S
C7 O11 1.241 . S
C8 O1 1.247 . S
C8 O2 1.261 . S
C9 O4 1.259 . S
C9 O6 1.235 . S
O10 Co0 2.021 . S
O10 C7 1.238 . S
O11 Co5 2.052 . S
O11 C7 1.241 . S
O12 Co0 2.137 . S
O12 C3 1.247 . S
O13 Co0 2.244 . S
O13 C3 1.272 . S
O13 Co5 2.135 . S
Co14 O15 2.216 . S
Co14 O16 2.091 . S
Co14 O18 2.004 . S
Co14 O24 2.021 . S
Co14 O26 2.137 . S
Co14 O27 2.244 . S
O15 Co14 2.216 . S
O15 C22 1.247 . S
O16 Co14 2.091 . S
O16 C22 1.261 . S
C17 O26 1.247 . S
C17 O27 1.272 . S
O18 Co14 2.004 . S
O18 C23 1.259 . S
Co19 O20 2.061 . S
Co19 O25 2.052 . S
Co19 O27 2.135 . S
O20 Co19 2.061 . S
O20 C23 1.235 . S
C21 O24 1.238 . S
C21 O25 1.241 . S
C22 O15 1.247 . S
C22 O16 1.261 . S
C23 O18 1.259 . S
C23 O20 1.235 . S
O24 Co14 2.021 . S
O24 C21 1.238 . S
O25 Co19 2.052 . S
O25 C21 1.241 . S
O26 Co14 2.137 . S
O26 C17 1.247 . S
O27 Co14 2.244 . S
O27 C17 1.272 . S
O27 Co19 2.135 . S
Co28 O29 2.216 . S
Co28 O30 2.091 . S
Co28 O32 2.004 . S
Co28 O38 2.021 . S
Co28 O40 2.137 . S
Co28 O41 2.244 . S
O29 Co28 2.216 . S
O29 C36 1.247 . S
O30 Co28 2.091 . S
O30 C36 1.261 . S
C31 O40 1.247 . S
C31 O41 1.272 . S
O32 Co28 2.004 . S
O32 C37 1.259 . S
Co33 O34 2.061 . S
Co33 O39 2.052 . S
Co33 O41 2.135 . S
O34 Co33 2.061 . S
O34 C37 1.235 . S
C35 O38 1.238 . S
C35 O39 1.241 . S
C36 O29 1.247 . S
C36 O30 1.261 . S
C37 O32 1.259 . S
C37 O34 1.235 . S
O38 Co28 2.021 . S
O38 C35 1.238 . S
O39 Co33 2.052 . S
O39 C35 1.241 . S
O40 Co28 2.137 . S
O40 C31 1.247 . S
O41 Co28 2.244 . S
O41 C31 1.272 . S
O41 Co33 2.135 . S
Co42 O43 2.216 . S
Co42 O44 2.091 . S
Co42 O46 2.004 . S
Co42 O52 2.021 . S
Co42 O54 2.137 . S
Co42 O55 2.244 . S
O43 Co42 2.216 . S
O43 C50 1.247 . S
O44 Co42 2.091 . S
O44 C50 1.261 . S
C45 O54 1.247 . S
C45 O55 1.272 . S
O46 Co42 2.004 . S
O46 C51 1.259 . S
Co47 O48 2.061 . S
Co47 O53 2.052 . S
Co47 O55 2.135 . S
O48 Co47 2.061 . S
O48 C51 1.235 . S
C49 O52 1.238 . S
C49 O53 1.241 . S
C50 O43 1.247 . S
C50 O44 1.261 . S
C51 O46 1.259 . S
C51 O48 1.235 . S
O52 Co42 2.021 . S
O52 C49 1.238 . S
O53 Co47 2.052 . S
O53 C49 1.241 . S
O54 Co42 2.137 . S
O54 C45 1.247 . S
O55 Co42 2.244 . S
O55 C45 1.272 . S
O55 Co47 2.135 . S
Co56 O57 2.216 . S
Co56 O58 2.091 . S
Co56 O60 2.004 . S
Co56 O66 2.021 . S
Co56 O68 2.137 . S
Co56 O69 2.244 . S
O57 Co56 2.216 . S
O57 C64 1.247 . S
O58 Co56 2.091 . S
O58 C64 1.261 . S
C59 O68 1.247 . S
C59 O69 1.272 . S
O60 Co56 2.004 . S
O60 C65 1.259 . S
Co61 O62 2.061 . S
Co61 O67 2.052 . S
Co61 O69 2.135 . S
O62 Co61 2.061 . S
O62 C65 1.235 . S
C63 O66 1.238 . S
C63 O67 1.241 . S
C64 O57 1.247 . S
C64 O58 1.261 . S
C65 O60 1.259 . S
C65 O62 1.235 . S
O66 Co56 2.021 . S
O66 C63 1.238 . S
O67 Co61 2.052 . S
O67 C63 1.241 . S
O68 Co56 2.137 . S
O68 C59 1.247 . S
O69 Co56 2.244 . S
O69 C59 1.272 . S
O69 Co61 2.135 . S
Co70 O71 2.216 . S
Co70 O72 2.091 . S
Co70 O74 2.004 . S
Co70 O80 2.021 . S
Co70 O82 2.137 . S
Co70 O83 2.244 . S
O71 Co70 2.216 . S
O71 C78 1.247 . S
O72 Co70 2.091 . S
O72 C78 1.261 . S
C73 O82 1.247 . S
C73 O83 1.272 . S
O74 Co70 2.004 . S
O74 C79 1.259 . S
Co75 O76 2.061 . S
Co75 O81 2.052 . S
Co75 O83 2.135 . S
O76 Co75 2.061 . S
O76 C79 1.235 . S
C77 O80 1.238 . S
C77 O81 1.241 . S
C78 O71 1.247 . S
C78 O72 1.261 . S
C79 O74 1.259 . S
C79 O76 1.235 . S
O80 Co70 2.021 . S
O80 C77 1.238 . S
O81 Co75 2.052 . S
O81 C77 1.241 . S
O82 Co70 2.137 . S
O82 C73 1.247 . S
O83 Co70 2.244 . S
O83 C73 1.272 . S
O83 Co75 2.135 . S
Co84 O85 2.216 . S
Co84 O86 2.091 . S
Co84 O88 2.004 . S
Co84 O94 2.021 . S
Co84 O96 2.137 . S
Co84 O97 2.244 . S
O85 Co84 2.216 . S
O85 C92 1.247 . S
O86 Co84 2.091 . S
O86 C92 1.261 . S
C87 O96 1.247 . S
C87 O97 1.272 . S
O88 Co84 2.004 . S
O88 C93 1.259 . S
Co89 O90 2.061 . S
Co89 O95 2.052 . S
Co89 O97 2.135 . S
O90 Co89 2.061 . S
O90 C93 1.235 . S
C91 O94 1.238 . S
C91 O95 1.241 . S
C92 O85 1.247 . S
C92 O86 1.261 . S
C93 O88 1.259 . S
C93 O90 1.235 . S
O94 Co84 2.021 . S
O94 C91 1.238 . S
O95 Co89 2.052 . S
O95 C91 1.241 . S
O96 Co84 2.137 . S
O96 C87 1.247 . S
O97 Co84 2.244 . S
O97 C87 1.272 . S
O97 Co89 2.135 . S
Co98 O99 2.216 . S
Co98 O100 2.091 . S
Co98 O102 2.004 . S
Co98 O108 2.021 . S
Co98 O110 2.137 . S
Co98 O111 2.244 . S
O99 Co98 2.216 . S
O99 C106 1.247 . S
O100 Co98 2.091 . S
O100 C106 1.261 . S
C101 O110 1.247 . S
C101 O111 1.272 . S
O102 Co98 2.004 . S
O102 C107 1.259 . S
Co103 O104 2.061 . S
Co103 O109 2.052 . S
Co103 O111 2.135 . S
O104 Co103 2.061 . S
O104 C107 1.235 . S
C105 O108 1.238 . S
C105 O109 1.241 . S
C106 O99 1.247 . S
C106 O100 1.261 . S
C107 O102 1.259 . S
C107 O104 1.235 . S
O108 Co98 2.021 . S
O108 C105 1.238 . S
O109 Co103 2.052 . S
O109 C105 1.241 . S
O110 Co98 2.137 . S
O110 C101 1.247 . S
O111 Co98 2.244 . S
O111 C101 1.272 . S
O111 Co103 2.135 . S
Co112 O113 2.216 . S
Co112 O114 2.091 . S
Co112 O116 2.004 . S
Co112 O122 2.021 . S
Co112 O124 2.137 . S
Co112 O125 2.244 . S
O113 Co112 2.216 . S
O113 C120 1.247 . S
O114 Co112 2.091 . S
O114 C120 1.261 . S
C115 O124 1.247 . S
C115 O125 1.272 . S
O116 Co112 2.004 . S
O116 C121 1.259 . S
Co117 O118 2.061 . S
Co117 O123 2.052 . S
Co117 O125 2.135 . S
O118 Co117 2.061 . S
O118 C121 1.235 . S
C119 O122 1.238 . S
C119 O123 1.241 . S
C120 O113 1.247 . S
C120 O114 1.261 . S
C121 O116 1.259 . S
C121 O118 1.235 . S
O122 Co112 2.021 . S
O122 C119 1.238 . S
O123 Co117 2.052 . S
O123 C119 1.241 . S
O124 Co112 2.137 . S
O124 C115 1.247 . S
O125 Co112 2.244 . S
O125 C115 1.272 . S
O125 Co117 2.135 . S
Co126 O127 2.216 . S
Co126 O128 2.091 . S
Co126 O130 2.004 . S
Co126 O136 2.021 . S
Co126 O138 2.137 . S
Co126 O139 2.244 . S
O127 Co126 2.216 . S
O127 C134 1.247 . S
O128 Co126 2.091 . S
O128 C134 1.261 . S
C129 O138 1.247 . S
C129 O139 1.272 . S
O130 Co126 2.004 . S
O130 C135 1.259 . S
Co131 O132 2.061 . S
Co131 O137 2.052 . S
Co131 O139 2.135 . S
O132 Co131 2.061 . S
O132 C135 1.235 . S
C133 O136 1.238 . S
C133 O137 1.241 . S
C134 O127 1.247 . S
C134 O128 1.261 . S
C135 O130 1.259 . S
C135 O132 1.235 . S
O136 Co126 2.021 . S
O136 C133 1.238 . S
O137 Co131 2.052 . S
O137 C133 1.241 . S
O138 Co126 2.137 . S
O138 C129 1.247 . S
O139 Co126 2.244 . S
O139 C129 1.272 . S
O139 Co131 2.135 . S
Co140 O141 2.216 . S
Co140 O142 2.091 . S
Co140 O144 2.004 . S
Co140 O150 2.021 . S
Co140 O152 2.137 . S
Co140 O153 2.244 . S
O141 Co140 2.216 . S
O141 C148 1.247 . S
O142 Co140 2.091 . S
O142 C148 1.261 . S
C143 O152 1.247 . S
C143 O153 1.272 . S
O144 Co140 2.004 . S
O144 C149 1.259 . S
Co145 O146 2.061 . S
Co145 O151 2.052 . S
Co145 O153 2.135 . S
O146 Co145 2.061 . S
O146 C149 1.235 . S
C147 O150 1.238 . S
C147 O151 1.241 . S
C148 O141 1.247 . S
C148 O142 1.261 . S
C149 O144 1.259 . S
C149 O146 1.235 . S
O150 Co140 2.021 . S
O150 C147 1.238 . S
O151 Co145 2.052 . S
O151 C147 1.241 . S
O152 Co140 2.137 . S
O152 C143 1.247 . S
O153 Co140 2.244 . S
O153 C143 1.272 . S
O153 Co145 2.135 . S
Co154 O155 2.216 . S
Co154 O156 2.091 . S
Co154 O158 2.004 . S
Co154 O164 2.021 . S
Co154 O166 2.137 . S
Co154 O167 2.244 . S
O155 Co154 2.216 . S
O155 C162 1.247 . S
O156 Co154 2.091 . S
O156 C162 1.261 . S
C157 O166 1.247 . S
C157 O167 1.272 . S
O158 Co154 2.004 . S
O158 C163 1.259 . S
Co159 O160 2.061 . S
Co159 O165 2.052 . S
Co159 O167 2.135 . S
O160 Co159 2.061 . S
O160 C163 1.235 . S
C161 O164 1.238 . S
C161 O165 1.241 . S
C162 O155 1.247 . S
C162 O156 1.261 . S
C163 O158 1.259 . S
C163 O160 1.235 . S
O164 Co154 2.021 . S
O164 C161 1.238 . S
O165 Co159 2.052 . S
O165 C161 1.241 . S
O166 Co154 2.137 . S
O166 C157 1.247 . S
O167 Co154 2.244 . S
O167 C157 1.272 . S
O167 Co159 2.135 . S
Co168 O169 2.216 . S
Co168 O170 2.091 . S
Co168 O172 2.004 . S
Co168 O178 2.021 . S
Co168 O180 2.137 . S
Co168 O181 2.244 . S
O169 Co168 2.216 . S
O169 C176 1.247 . S
O170 Co168 2.091 . S
O170 C176 1.261 . S
C171 O180 1.247 . S
C171 O181 1.272 . S
O172 Co168 2.004 . S
O172 C177 1.259 . S
Co173 O174 2.061 . S
Co173 O179 2.052 . S
Co173 O181 2.135 . S
O174 Co173 2.061 . S
O174 C177 1.235 . S
C175 O178 1.238 . S
C175 O179 1.241 . S
C176 O169 1.247 . S
C176 O170 1.261 . S
C177 O172 1.259 . S
C177 O174 1.235 . S
O178 Co168 2.021 . S
O178 C175 1.238 . S
O179 Co173 2.052 . S
O179 C175 1.241 . S
O180 Co168 2.137 . S
O180 C171 1.247 . S
O181 Co168 2.244 . S
O181 C171 1.272 . S
O181 Co173 2.135 . S
Co182 O183 2.216 . S
Co182 O184 2.091 . S
Co182 O186 2.004 . S
Co182 O192 2.021 . S
Co182 O194 2.137 . S
Co182 O195 2.244 . S
O183 Co182 2.216 . S
O183 C190 1.247 . S
O184 Co182 2.091 . S
O184 C190 1.261 . S
C185 O194 1.247 . S
C185 O195 1.272 . S
O186 Co182 2.004 . S
O186 C191 1.259 . S
Co187 O188 2.061 . S
Co187 O193 2.052 . S
Co187 O195 2.135 . S
O188 Co187 2.061 . S
O188 C191 1.235 . S
C189 O192 1.238 . S
C189 O193 1.241 . S
C190 O183 1.247 . S
C190 O184 1.261 . S
C191 O186 1.259 . S
C191 O188 1.235 . S
O192 Co182 2.021 . S
O192 C189 1.238 . S
O193 Co187 2.052 . S
O193 C189 1.241 . S
O194 Co182 2.137 . S
O194 C185 1.247 . S
O195 Co182 2.244 . S
O195 C185 1.272 . S
O195 Co187 2.135 . S
Co196 O197 2.216 . S
Co196 O198 2.091 . S
Co196 O200 2.004 . S
Co196 O206 2.021 . S
Co196 O208 2.137 . S
Co196 O209 2.244 . S
O197 Co196 2.216 . S
O197 C204 1.247 . S
O198 Co196 2.091 . S
O198 C204 1.261 . S
C199 O208 1.247 . S
C199 O209 1.272 . S
O200 Co196 2.004 . S
O200 C205 1.259 . S
Co201 O202 2.061 . S
Co201 O207 2.052 . S
Co201 O209 2.135 . S
O202 Co201 2.061 . S
O202 C205 1.235 . S
C203 O206 1.238 . S
C203 O207 1.241 . S
C204 O197 1.247 . S
C204 O198 1.261 . S
C205 O200 1.259 . S
C205 O202 1.235 . S
O206 Co196 2.021 . S
O206 C203 1.238 . S
O207 Co201 2.052 . S
O207 C203 1.241 . S
O208 Co196 2.137 . S
O208 C199 1.247 . S
O209 Co196 2.244 . S
O209 C199 1.272 . S
O209 Co201 2.135 . S
Co210 O211 2.216 . S
Co210 O212 2.091 . S
Co210 O214 2.004 . S
Co210 O220 2.021 . S
Co210 O222 2.137 . S
Co210 O223 2.244 . S
O211 Co210 2.216 . S
O211 C218 1.247 . S
O212 Co210 2.091 . S
O212 C218 1.261 . S
C213 O222 1.247 . S
C213 O223 1.272 . S
O214 Co210 2.004 . S
O214 C219 1.259 . S
Co215 O216 2.061 . S
Co215 O221 2.052 . S
Co215 O223 2.135 . S
O216 Co215 2.061 . S
O216 C219 1.235 . S
C217 O220 1.238 . S
C217 O221 1.241 . S
C218 O211 1.247 . S
C218 O212 1.261 . S
C219 O214 1.259 . S
C219 O216 1.235 . S
O220 Co210 2.021 . S
O220 C217 1.238 . S
O221 Co215 2.052 . S
O221 C217 1.241 . S
O222 Co210 2.137 . S
O222 C213 1.247 . S
O223 Co210 2.244 . S
O223 C213 1.272 . S
O223 Co215 2.135 . S
Co224 O225 2.216 . S
Co224 O226 2.091 . S
Co224 O228 2.004 . S
Co224 O234 2.021 . S
Co224 O236 2.137 . S
Co224 O237 2.244 . S
O225 Co224 2.216 . S
O225 C232 1.247 . S
O226 Co224 2.091 . S
O226 C232 1.261 . S
C227 O236 1.247 . S
C227 O237 1.272 . S
O228 Co224 2.004 . S
O228 C233 1.259 . S
Co229 O230 2.061 . S
Co229 O235 2.052 . S
Co229 O237 2.135 . S
O230 Co229 2.061 . S
O230 C233 1.235 . S
C231 O234 1.238 . S
C231 O235 1.241 . S
C232 O225 1.247 . S
C232 O226 1.261 . S
C233 O228 1.259 . S
C233 O230 1.235 . S
O234 Co224 2.021 . S
O234 C231 1.238 . S
O235 Co229 2.052 . S
O235 C231 1.241 . S
O236 Co224 2.137 . S
O236 C227 1.247 . S
O237 Co224 2.244 . S
O237 C227 1.272 . S
O237 Co229 2.135 . S
Co238 O239 2.216 . S
Co238 O240 2.091 . S
Co238 O242 2.004 . S
Co238 O248 2.021 . S
Co238 O250 2.137 . S
Co238 O251 2.244 . S
O239 Co238 2.216 . S
O239 C246 1.247 . S
O240 Co238 2.091 . S
O240 C246 1.261 . S
C241 O250 1.247 . S
C241 O251 1.272 . S
O242 Co238 2.004 . S
O242 C247 1.259 . S
Co243 O244 2.061 . S
Co243 O249 2.052 . S
Co243 O251 2.135 . S
O244 Co243 2.061 . S
O244 C247 1.235 . S
C245 O248 1.238 . S
C245 O249 1.241 . S
C246 O239 1.247 . S
C246 O240 1.261 . S
C247 O242 1.259 . S
C247 O244 1.235 . S
O248 Co238 2.021 . S
O248 C245 1.238 . S
O249 Co243 2.052 . S
O249 C245 1.241 . S
O250 Co238 2.137 . S
O250 C241 1.247 . S
O251 Co238 2.244 . S
O251 C241 1.272 . S
O251 Co243 2.135 . S
Co252 O253 2.216 . S
Co252 O254 2.091 . S
Co252 O256 2.004 . S
Co252 O262 2.021 . S
Co252 O264 2.137 . S
Co252 O265 2.244 . S
O253 Co252 2.216 . S
O253 C260 1.247 . S
O254 Co252 2.091 . S
O254 C260 1.261 . S
C255 O264 1.247 . S
C255 O265 1.272 . S
O256 Co252 2.004 . S
O256 C261 1.259 . S
Co257 O258 2.061 . S
Co257 O263 2.052 . S
Co257 O265 2.135 . S
O258 Co257 2.061 . S
O258 C261 1.235 . S
C259 O262 1.238 . S
C259 O263 1.241 . S
C260 O253 1.247 . S
C260 O254 1.261 . S
C261 O256 1.259 . S
C261 O258 1.235 . S
O262 Co252 2.021 . S
O262 C259 1.238 . S
O263 Co257 2.052 . S
O263 C259 1.241 . S
O264 Co252 2.137 . S
O264 C255 1.247 . S
O265 Co252 2.244 . S
O265 C255 1.272 . S
O265 Co257 2.135 . S
Co266 O267 2.216 . S
Co266 O268 2.091 . S
Co266 O270 2.004 . S
Co266 O276 2.021 . S
Co266 O278 2.137 . S
Co266 O279 2.244 . S
O267 Co266 2.216 . S
O267 C274 1.247 . S
O268 Co266 2.091 . S
O268 C274 1.261 . S
C269 O278 1.247 . S
C269 O279 1.272 . S
O270 Co266 2.004 . S
O270 C275 1.259 . S
Co271 O272 2.061 . S
Co271 O277 2.052 . S
Co271 O279 2.135 . S
O272 Co271 2.061 . S
O272 C275 1.235 . S
C273 O276 1.238 . S
C273 O277 1.241 . S
C274 O267 1.247 . S
C274 O268 1.261 . S
C275 O270 1.259 . S
C275 O272 1.235 . S
O276 Co266 2.021 . S
O276 C273 1.238 . S
O277 Co271 2.052 . S
O277 C273 1.241 . S
O278 Co266 2.137 . S
O278 C269 1.247 . S
O279 Co266 2.244 . S
O279 C269 1.272 . S
O279 Co271 2.135 . S
Co280 O281 2.216 . S
Co280 O282 2.091 . S
Co280 O284 2.004 . S
Co280 O290 2.021 . S
Co280 O292 2.137 . S
Co280 O293 2.244 . S
O281 Co280 2.216 . S
O281 C288 1.247 . S
O282 Co280 2.091 . S
O282 C288 1.261 . S
C283 O292 1.247 . S
C283 O293 1.272 . S
O284 Co280 2.004 . S
O284 C289 1.259 . S
Co285 O286 2.061 . S
Co285 O291 2.052 . S
Co285 O293 2.135 . S
O286 Co285 2.061 . S
O286 C289 1.235 . S
C287 O290 1.238 . S
C287 O291 1.241 . S
C288 O281 1.247 . S
C288 O282 1.261 . S
C289 O284 1.259 . S
C289 O286 1.235 . S
O290 Co280 2.021 . S
O290 C287 1.238 . S
O291 Co285 2.052 . S
O291 C287 1.241 . S
O292 Co280 2.137 . S
O292 C283 1.247 . S
O293 Co280 2.244 . S
O293 C283 1.272 . S
O293 Co285 2.135 . S
Co294 O295 2.216 . S
Co294 O296 2.091 . S
Co294 O298 2.004 . S
Co294 O304 2.021 . S
Co294 O306 2.137 . S
Co294 O307 2.244 . S
O295 Co294 2.216 . S
O295 C302 1.247 . S
O296 Co294 2.091 . S
O296 C302 1.261 . S
C297 O306 1.247 . S
C297 O307 1.272 . S
O298 Co294 2.004 . S
O298 C303 1.259 . S
Co299 O300 2.061 . S
Co299 O305 2.052 . S
Co299 O307 2.135 . S
O300 Co299 2.061 . S
O300 C303 1.235 . S
C301 O304 1.238 . S
C301 O305 1.241 . S
C302 O295 1.247 . S
C302 O296 1.261 . S
C303 O298 1.259 . S
C303 O300 1.235 . S
O304 Co294 2.021 . S
O304 C301 1.238 . S
O305 Co299 2.052 . S
O305 C301 1.241 . S
O306 Co294 2.137 . S
O306 C297 1.247 . S
O307 Co294 2.244 . S
O307 C297 1.272 . S
O307 Co299 2.135 . S
Co308 O309 2.216 . S
Co308 O310 2.091 . S
Co308 O312 2.004 . S
Co308 O318 2.021 . S
Co308 O320 2.137 . S
Co308 O321 2.244 . S
O309 Co308 2.216 . S
O309 C316 1.247 . S
O310 Co308 2.091 . S
O310 C316 1.261 . S
C311 O320 1.247 . S
C311 O321 1.272 . S
O312 Co308 2.004 . S
O312 C317 1.259 . S
Co313 O314 2.061 . S
Co313 O319 2.052 . S
Co313 O321 2.135 . S
O314 Co313 2.061 . S
O314 C317 1.235 . S
C315 O318 1.238 . S
C315 O319 1.241 . S
C316 O309 1.247 . S
C316 O310 1.261 . S
C317 O312 1.259 . S
C317 O314 1.235 . S
O318 Co308 2.021 . S
O318 C315 1.238 . S
O319 Co313 2.052 . S
O319 C315 1.241 . S
O320 Co308 2.137 . S
O320 C311 1.247 . S
O321 Co308 2.244 . S
O321 C311 1.272 . S
O321 Co313 2.135 . S
Co322 O323 2.216 . S
Co322 O324 2.091 . S
Co322 O326 2.004 . S
Co322 O332 2.021 . S
Co322 O334 2.137 . S
Co322 O335 2.244 . S
O323 Co322 2.216 . S
O323 C330 1.247 . S
O324 Co322 2.091 . S
O324 C330 1.261 . S
C325 O334 1.247 . S
C325 O335 1.272 . S
O326 Co322 2.004 . S
O326 C331 1.259 . S
Co327 O328 2.061 . S
Co327 O333 2.052 . S
Co327 O335 2.135 . S
O328 Co327 2.061 . S
O328 C331 1.235 . S
C329 O332 1.238 . S
C329 O333 1.241 . S
C330 O323 1.247 . S
C330 O324 1.261 . S
C331 O326 1.259 . S
C331 O328 1.235 . S
O332 Co322 2.021 . S
O332 C329 1.238 . S
O333 Co327 2.052 . S
O333 C329 1.241 . S
O334 Co322 2.137 . S
O334 C325 1.247 . S
O335 Co322 2.244 . S
O335 C325 1.272 . S
O335 Co327 2.135 . S
Co336 O337 2.216 . S
Co336 O338 2.091 . S
Co336 O340 2.004 . S
Co336 O346 2.021 . S
Co336 O348 2.137 . S
Co336 O349 2.244 . S
O337 Co336 2.216 . S
O337 C344 1.247 . S
O338 Co336 2.091 . S
O338 C344 1.261 . S
C339 O348 1.247 . S
C339 O349 1.272 . S
O340 Co336 2.004 . S
O340 C345 1.259 . S
Co341 O342 2.061 . S
Co341 O347 2.052 . S
Co341 O349 2.135 . S
O342 Co341 2.061 . S
O342 C345 1.235 . S
C343 O346 1.238 . S
C343 O347 1.241 . S
C344 O337 1.247 . S
C344 O338 1.261 . S
C345 O340 1.259 . S
C345 O342 1.235 . S
O346 Co336 2.021 . S
O346 C343 1.238 . S
O347 Co341 2.052 . S
O347 C343 1.241 . S
O348 Co336 2.137 . S
O348 C339 1.247 . S
O349 Co336 2.244 . S
O349 C339 1.272 . S
O349 Co341 2.135 . S
Co350 O351 2.216 . S
Co350 O352 2.091 . S
Co350 O354 2.004 . S
Co350 O360 2.021 . S
Co350 O362 2.137 . S
Co350 O363 2.244 . S
O351 Co350 2.216 . S
O351 C358 1.247 . S
O352 Co350 2.091 . S
O352 C358 1.261 . S
C353 O362 1.247 . S
C353 O363 1.272 . S
O354 Co350 2.004 . S
O354 C359 1.259 . S
Co355 O356 2.061 . S
Co355 O361 2.052 . S
Co355 O363 2.135 . S
O356 Co355 2.061 . S
O356 C359 1.235 . S
C357 O360 1.238 . S
C357 O361 1.241 . S
C358 O351 1.247 . S
C358 O352 1.261 . S
C359 O354 1.259 . S
C359 O356 1.235 . S
O360 Co350 2.021 . S
O360 C357 1.238 . S
O361 Co355 2.052 . S
O361 C357 1.241 . S
O362 Co350 2.137 . S
O362 C353 1.247 . S
O363 Co350 2.244 . S
O363 C353 1.272 . S
O363 Co355 2.135 . S
Co364 O365 2.216 . S
Co364 O366 2.091 . S
Co364 O368 2.004 . S
Co364 O374 2.021 . S
Co364 O376 2.137 . S
Co364 O377 2.244 . S
O365 Co364 2.216 . S
O365 C372 1.247 . S
O366 Co364 2.091 . S
O366 C372 1.261 . S
C367 O376 1.247 . S
C367 O377 1.272 . S
O368 Co364 2.004 . S
O368 C373 1.259 . S
Co369 O370 2.061 . S
Co369 O375 2.052 . S
Co369 O377 2.135 . S
O370 Co369 2.061 . S
O370 C373 1.235 . S
C371 O374 1.238 . S
C371 O375 1.241 . S
C372 O365 1.247 . S
C372 O366 1.261 . S
C373 O368 1.259 . S
C373 O370 1.235 . S
O374 Co364 2.021 . S
O374 C371 1.238 . S
O375 Co369 2.052 . S
O375 C371 1.241 . S
O376 Co364 2.137 . S
O376 C367 1.247 . S
O377 Co364 2.244 . S
O377 C367 1.272 . S
O377 Co369 2.135 . S
Co378 O379 2.216 . S
Co378 O380 2.091 . S
Co378 O382 2.004 . S
Co378 O388 2.021 . S
Co378 O390 2.137 . S
Co378 O391 2.244 . S
O379 Co378 2.216 . S
O379 C386 1.247 . S
O380 Co378 2.091 . S
O380 C386 1.261 . S
C381 O390 1.247 . S
C381 O391 1.272 . S
O382 Co378 2.004 . S
O382 C387 1.259 . S
Co383 O384 2.061 . S
Co383 O389 2.052 . S
Co383 O391 2.135 . S
O384 Co383 2.061 . S
O384 C387 1.235 . S
C385 O388 1.238 . S
C385 O389 1.241 . S
C386 O379 1.247 . S
C386 O380 1.261 . S
C387 O382 1.259 . S
C387 O384 1.235 . S
O388 Co378 2.021 . S
O388 C385 1.238 . S
O389 Co383 2.052 . S
O389 C385 1.241 . S
O390 Co378 2.137 . S
O390 C381 1.247 . S
O391 Co378 2.244 . S
O391 C381 1.272 . S
O391 Co383 2.135 . S
Co392 O393 2.216 . S
Co392 O394 2.091 . S
Co392 O396 2.004 . S
Co392 O402 2.021 . S
Co392 O404 2.137 . S
Co392 O405 2.244 . S
O393 Co392 2.216 . S
O393 C400 1.247 . S
O394 Co392 2.091 . S
O394 C400 1.261 . S
C395 O404 1.247 . S
C395 O405 1.272 . S
O396 Co392 2.004 . S
O396 C401 1.259 . S
Co397 O398 2.061 . S
Co397 O403 2.052 . S
Co397 O405 2.135 . S
O398 Co397 2.061 . S
O398 C401 1.235 . S
C399 O402 1.238 . S
C399 O403 1.241 . S
C400 O393 1.247 . S
C400 O394 1.261 . S
C401 O396 1.259 . S
C401 O398 1.235 . S
O402 Co392 2.021 . S
O402 C399 1.238 . S
O403 Co397 2.052 . S
O403 C399 1.241 . S
O404 Co392 2.137 . S
O404 C395 1.247 . S
O405 Co392 2.244 . S
O405 C395 1.272 . S
O405 Co397 2.135 . S
Co406 O407 2.216 . S
Co406 O408 2.091 . S
Co406 O410 2.004 . S
Co406 O416 2.021 . S
Co406 O418 2.137 . S
Co406 O419 2.244 . S
O407 Co406 2.216 . S
O407 C414 1.247 . S
O408 Co406 2.091 . S
O408 C414 1.261 . S
C409 O418 1.247 . S
C409 O419 1.272 . S
O410 Co406 2.004 . S
O410 C415 1.259 . S
Co411 O412 2.061 . S
Co411 O417 2.052 . S
Co411 O419 2.135 . S
O412 Co411 2.061 . S
O412 C415 1.235 . S
C413 O416 1.238 . S
C413 O417 1.241 . S
C414 O407 1.247 . S
C414 O408 1.261 . S
C415 O410 1.259 . S
C415 O412 1.235 . S
O416 Co406 2.021 . S
O416 C413 1.238 . S
O417 Co411 2.052 . S
O417 C413 1.241 . S
O418 Co406 2.137 . S
O418 C409 1.247 . S
O419 Co406 2.244 . S
O419 C409 1.272 . S
O419 Co411 2.135 . S
Co420 O421 2.216 . S
Co420 O422 2.091 . S
Co420 O424 2.004 . S
Co420 O430 2.021 . S
Co420 O432 2.137 . S
Co420 O433 2.244 . S
O421 Co420 2.216 . S
O421 C428 1.247 . S
O422 Co420 2.091 . S
O422 C428 1.261 . S
C423 O432 1.247 . S
C423 O433 1.272 . S
O424 Co420 2.004 . S
O424 C429 1.259 . S
Co425 O426 2.061 . S
Co425 O431 2.052 . S
Co425 O433 2.135 . S
O426 Co425 2.061 . S
O426 C429 1.235 . S
C427 O430 1.238 . S
C427 O431 1.241 . S
C428 O421 1.247 . S
C428 O422 1.261 . S
C429 O424 1.259 . S
C429 O426 1.235 . S
O430 Co420 2.021 . S
O430 C427 1.238 . S
O431 Co425 2.052 . S
O431 C427 1.241 . S
O432 Co420 2.137 . S
O432 C423 1.247 . S
O433 Co420 2.244 . S
O433 C423 1.272 . S
O433 Co425 2.135 . S
Co434 O435 2.216 . S
Co434 O436 2.091 . S
Co434 O438 2.004 . S
Co434 O444 2.021 . S
Co434 O446 2.137 . S
Co434 O447 2.244 . S
O435 Co434 2.216 . S
O435 C442 1.247 . S
O436 Co434 2.091 . S
O436 C442 1.261 . S
C437 O446 1.247 . S
C437 O447 1.272 . S
O438 Co434 2.004 . S
O438 C443 1.259 . S
Co439 O440 2.061 . S
Co439 O445 2.052 . S
Co439 O447 2.135 . S
O440 Co439 2.061 . S
O440 C443 1.235 . S
C441 O444 1.238 . S
C441 O445 1.241 . S
C442 O435 1.247 . S
C442 O436 1.261 . S
C443 O438 1.259 . S
C443 O440 1.235 . S
O444 Co434 2.021 . S
O444 C441 1.238 . S
O445 Co439 2.052 . S
O445 C441 1.241 . S
O446 Co434 2.137 . S
O446 C437 1.247 . S
O447 Co434 2.244 . S
O447 C437 1.272 . S
O447 Co439 2.135 . S
H448 C460 0.930 . S
H449 C462 0.930 . S
H450 C463 0.930 . S
H451 C467 0.959 . S
H452 C467 0.959 . S
H453 C467 0.961 . S
H454 C468 0.960 . S
H455 C468 0.961 . S
H456 C468 0.959 . S
H457 C471 0.929 . S
H458 C472 0.931 . S
H459 C474 0.930 . S
C460 H448 0.930 . S
C460 C461 1.399 . S
C460 C465 1.399 . S
C461 C460 1.399 . S
C461 C462 1.376 . S
C462 H449 0.930 . S
C462 C461 1.376 . S
C462 C463 1.388 . S
C463 H450 0.930 . S
C463 C462 1.388 . S
C463 C464 1.390 . S
C464 C463 1.390 . S
C464 C465 1.394 . S
C464 C470 1.465 . S
C465 C460 1.399 . S
C465 C464 1.394 . S
C465 C466 1.516 . S
C466 C465 1.516 . S
C466 C467 1.502 . S
C466 C468 1.561 . S
C466 C469 1.526 . S
C467 H451 0.959 . S
C467 H452 0.959 . S
C467 H453 0.961 . S
C467 C466 1.502 . S
C468 H454 0.960 . S
C468 H455 0.961 . S
C468 H456 0.959 . S
C468 C466 1.561 . S
C469 C466 1.526 . S
C469 C470 1.396 . S
C469 C474 1.390 . S
C470 C464 1.465 . S
C470 C469 1.396 . S
C470 C471 1.399 . S
C471 H457 0.929 . S
C471 C470 1.399 . S
C471 C472 1.385 . S
C472 H458 0.931 . S
C472 C471 1.385 . S
C472 C473 1.389 . S
C473 C472 1.389 . S
C473 C474 1.387 . S
C474 H459 0.930 . S
C474 C469 1.390 . S
C474 C473 1.387 . S
H475 C487 0.930 . S
H476 C489 0.930 . S
H477 C490 0.930 . S
H478 C494 0.959 . S
H479 C494 0.959 . S
H480 C494 0.960 . S
H481 C495 0.960 . S
H482 C495 0.961 . S
H483 C495 0.959 . S
H484 C498 0.929 . S
H485 C499 0.931 . S
H486 C501 0.930 . S
C487 H475 0.930 . S
C487 C488 1.399 . S
C487 C492 1.399 . S
C488 C487 1.399 . S
C488 C489 1.376 . S
C489 H476 0.930 . S
C489 C488 1.376 . S
C489 C490 1.388 . S
C490 H477 0.930 . S
C490 C489 1.388 . S
C490 C491 1.390 . S
C491 C490 1.390 . S
C491 C492 1.394 . S
C491 C497 1.465 1_565 S
C492 C487 1.399 . S
C492 C491 1.394 . S
C492 C493 1.516 1_565 S
C493 C492 1.516 1_545 S
C493 C494 1.502 . S
C493 C495 1.561 . S
C493 C496 1.526 . S
C494 H478 0.959 . S
C494 H479 0.959 . S
C494 H480 0.960 . S
C494 C493 1.502 . S
C495 H481 0.960 . S
C495 H482 0.961 . S
C495 H483 0.959 . S
C495 C493 1.561 . S
C496 C493 1.526 . S
C496 C497 1.396 . S
C496 C501 1.390 . S
C497 C491 1.465 1_545 S
C497 C496 1.396 . S
C497 C498 1.399 . S
C498 H484 0.929 . S
C498 C497 1.399 . S
C498 C499 1.385 . S
C499 H485 0.931 . S
C499 C498 1.385 . S
C499 C500 1.389 . S
C500 C499 1.389 . S
C500 C501 1.387 . S
C501 H486 0.930 . S
C501 C496 1.390 . S
C501 C500 1.387 . S
H502 C514 0.930 . S
H503 C516 0.930 . S
H504 C517 0.930 . S
H505 C521 0.959 . S
H506 C521 0.959 . S
H507 C521 0.961 . S
H508 C522 0.960 . S
H509 C522 0.961 . S
H510 C522 0.959 . S
H511 C525 0.929 . S
H512 C526 0.931 . S
H513 C528 0.930 . S
C514 H502 0.930 . S
C514 C515 1.399 . S
C514 C519 1.399 . S
C515 C514 1.399 . S
C515 C516 1.376 . S
C516 H503 0.930 . S
C516 C515 1.376 . S
C516 C517 1.388 . S
C517 H504 0.930 . S
C517 C516 1.388 . S
C517 C518 1.390 . S
C518 C517 1.390 . S
C518 C519 1.394 . S
C518 C524 1.465 . S
C519 C514 1.399 . S
C519 C518 1.394 . S
C519 C520 1.516 . S
C520 C519 1.516 . S
C520 C521 1.502 . S
C520 C522 1.561 . S
C520 C523 1.526 . S
C521 H505 0.959 . S
C521 H506 0.959 . S
C521 H507 0.961 . S
C521 C520 1.502 . S
C522 H508 0.960 . S
C522 H509 0.961 . S
C522 H510 0.959 . S
C522 C520 1.561 . S
C523 C520 1.526 . S
C523 C524 1.396 . S
C523 C528 1.390 . S
C524 C518 1.465 . S
C524 C523 1.396 . S
C524 C525 1.399 . S
C525 H511 0.929 . S
C525 C524 1.399 . S
C525 C526 1.385 . S
C526 H512 0.931 . S
C526 C525 1.385 . S
C526 C527 1.389 . S
C527 C526 1.389 . S
C527 C528 1.387 . S
C528 H513 0.930 . S
C528 C523 1.390 . S
C528 C527 1.387 . S
H529 C541 0.930 . S
H530 C543 0.930 . S
H531 C544 0.930 . S
H532 C548 0.959 . S
H533 C548 0.959 1_554 S
H534 C548 0.961 1_545 S
H535 C549 0.960 . S
H536 C549 1.013 . S
H537 C549 0.959 . S
H538 C552 0.929 . S
H539 C553 0.931 . S
H540 C555 0.930 . S
C541 H529 0.930 . S
C541 C542 1.399 . S
C541 C546 1.399 . S
C542 C541 1.399 . S
C542 C543 1.376 . S
C543 H530 0.930 . S
C543 C542 1.376 . S
C543 C544 1.388 . S
C544 H531 0.930 . S
C544 C543 1.388 . S
C544 C545 1.390 . S
C545 C544 1.390 . S
C545 C546 1.394 . S
C545 C551 1.465 1_546 S
C546 C541 1.399 . S
C546 C545 1.394 . S
C546 C547 1.516 1_556 S
C547 C546 1.516 1_554 S
C547 C548 1.502 1_544 S
C547 C549 1.561 . S
C547 C550 1.526 1_545 S
C548 H532 0.959 . S
C548 H533 0.959 1_556 S
C548 H534 0.961 1_565 S
C548 C547 1.502 1_566 S
C549 H535 0.960 . S
C549 H536 1.013 . S
C549 H537 0.959 . S
C549 C547 1.561 . S
C550 C547 1.526 1_565 S
C550 C551 1.396 . S
C550 C555 1.390 . S
C551 C545 1.465 1_564 S
C551 C550 1.396 . S
C551 C552 1.399 . S
C552 H538 0.929 . S
C552 C551 1.399 . S
C552 C553 1.385 . S
C553 H539 0.931 . S
C553 C552 1.385 . S
C553 C554 1.389 . S
C554 C553 1.389 . S
C554 C555 1.387 . S
C555 H540 0.930 . S
C555 C550 1.390 . S
C555 C554 1.387 . S
H556 C568 0.930 . S
H557 C570 0.930 . S
H558 C571 0.930 . S
H559 C575 0.959 . S
H560 C575 0.959 . S
H561 C575 0.961 . S
H562 C576 0.960 . S
H563 C576 0.961 . S
H564 C576 0.959 . S
H565 C579 0.929 . S
H566 C580 0.931 . S
H567 C582 0.930 . S
C568 H556 0.930 . S
C568 C569 1.399 . S
C568 C573 1.399 . S
C569 C568 1.399 . S
C569 C570 1.376 . S
C570 H557 0.930 . S
C570 C569 1.376 . S
C570 C571 1.388 . S
C571 H558 0.930 . S
C571 C570 1.388 . S
C571 C572 1.390 . S
C572 C571 1.390 . S
C572 C573 1.394 . S
C572 C578 1.465 . S
C573 C568 1.399 . S
C573 C572 1.394 . S
C573 C574 1.516 . S
C574 C573 1.516 . S
C574 C575 1.502 . S
C574 C576 1.561 . S
C574 C577 1.526 . S
C575 H559 0.959 . S
C575 H560 0.959 . S
C575 H561 0.961 . S
C575 C574 1.502 . S
C576 H562 0.960 . S
C576 H563 0.961 . S
C576 H564 0.959 . S
C576 C574 1.561 . S
C577 C574 1.526 . S
C577 C578 1.396 . S
C577 C582 1.390 . S
C578 C572 1.465 . S
C578 C577 1.396 . S
C578 C579 1.399 . S
C579 H565 0.929 . S
C579 C578 1.399 . S
C579 C580 1.385 . S
C580 H566 0.931 . S
C580 C579 1.385 . S
C580 C581 1.389 . S
C581 C580 1.389 . S
C581 C582 1.387 . S
C582 H567 0.930 . S
C582 C577 1.390 . S
C582 C581 1.387 . S
H583 C595 0.930 . S
H584 C597 0.930 . S
H585 C598 0.930 . S
H586 C602 0.959 . S
H587 C602 0.959 . S
H588 C602 0.961 . S
H589 C603 0.960 . S
H590 C603 0.961 . S
H591 C603 0.959 . S
H592 C606 0.929 . S
H593 C607 0.931 . S
H594 C609 0.930 . S
C595 H583 0.930 . S
C595 C596 1.399 . S
C595 C600 1.399 . S
C596 C595 1.399 . S
C596 C597 1.376 . S
C597 H584 0.930 . S
C597 C596 1.376 . S
C597 C598 1.388 . S
C598 H585 0.930 . S
C598 C597 1.388 . S
C598 C599 1.390 . S
C599 C598 1.390 . S
C599 C600 1.394 . S
C599 C605 1.465 1_565 S
C600 C595 1.399 . S
C600 C599 1.394 . S
C600 C601 1.516 1_565 S
C601 C600 1.516 1_545 S
C601 C602 1.502 . S
C601 C603 1.561 . S
C601 C604 1.526 . S
C602 H586 0.959 . S
C602 H587 0.959 . S
C602 H588 0.961 . S
C602 C601 1.502 . S
C603 H589 0.960 . S
C603 H590 0.961 . S
C603 H591 0.959 . S
C603 C601 1.561 . S
C604 C601 1.526 . S
C604 C605 1.396 . S
C604 C609 1.390 . S
C605 C599 1.465 1_545 S
C605 C604 1.396 . S
C605 C606 1.399 . S
C606 H592 0.929 . S
C606 C605 1.399 . S
C606 C607 1.385 . S
C607 H593 0.931 . S
C607 C606 1.385 . S
C607 C608 1.389 . S
C608 C607 1.389 . S
C608 C609 1.387 . S
C609 H594 0.930 . S
C609 C604 1.390 . S
C609 C608 1.387 . S
H610 C622 0.930 . S
H611 C624 0.930 . S
H612 C625 0.930 . S
H613 C629 0.959 . S
H614 C629 0.959 . S
H615 C629 0.961 . S
H616 C630 0.960 . S
H617 C630 0.961 . S
H618 C630 0.959 . S
H619 C633 0.929 . S
H620 C634 0.931 . S
H621 C636 0.930 . S
C622 H610 0.930 . S
C622 C623 1.399 . S
C622 C627 1.399 . S
C623 C622 1.399 . S
C623 C624 1.376 . S
C624 H611 0.930 . S
C624 C623 1.376 . S
C624 C625 1.388 . S
C625 H612 0.930 . S
C625 C624 1.388 . S
C625 C626 1.390 . S
C626 C625 1.390 . S
C626 C627 1.394 . S
C626 C632 1.465 . S
C627 C622 1.399 . S
C627 C626 1.394 . S
C627 C628 1.516 . S
C628 C627 1.516 . S
C628 C629 1.502 . S
C628 C630 1.561 . S
C628 C631 1.526 . S
C629 H613 0.959 . S
C629 H614 0.959 . S
C629 H615 0.961 . S
C629 C628 1.502 . S
C630 H616 0.960 . S
C630 H617 0.961 . S
C630 H618 0.959 . S
C630 C628 1.561 . S
C631 C628 1.526 . S
C631 C632 1.396 . S
C631 C636 1.390 . S
C632 C626 1.465 . S
C632 C631 1.396 . S
C632 C633 1.399 . S
C633 H619 0.929 . S
C633 C632 1.399 . S
C633 C634 1.385 . S
C634 H620 0.931 . S
C634 C633 1.385 . S
C634 C635 1.389 . S
C635 C634 1.389 . S
C635 C636 1.387 . S
C636 H621 0.930 . S
C636 C631 1.390 . S
C636 C635 1.387 . S
H637 C649 0.930 1_554 S
H638 C651 0.930 . S
H639 C652 0.930 . S
H640 C656 0.959 . S
H641 C656 0.959 . S
H642 C656 0.961 . S
H643 C657 0.960 . S
H644 C657 0.961 . S
H645 C657 0.959 . S
H646 C660 0.929 . S
H647 C661 0.931 . S
H648 C663 0.930 . S
C649 H637 0.930 1_556 S
C649 C650 1.399 . S
C649 C654 1.399 1_556 S
C650 C649 1.399 . S
C650 C651 1.376 . S
C651 H638 0.930 . S
C651 C650 1.376 . S
C651 C652 1.388 . S
C652 H639 0.930 . S
C652 C651 1.388 . S
C652 C653 1.390 . S
C653 C652 1.390 . S
C653 C654 1.394 1_556 S
C653 C659 1.465 1_545 S
C654 C649 1.399 1_554 S
C654 C653 1.394 1_554 S
C654 C655 1.516 . S
C655 C654 1.516 . S
C655 C656 1.502 . S
C655 C657 1.561 . S
C655 C658 1.526 1_545 S
C656 H640 0.959 . S
C656 H641 0.959 . S
C656 H642 0.961 . S
C656 C655 1.502 . S
C657 H643 0.960 . S
C657 H644 0.961 . S
C657 H645 0.959 . S
C657 C655 1.561 . S
C658 C655 1.526 1_565 S
C658 C659 1.396 1_554 S
C658 C663 1.390 . S
C659 C653 1.465 1_565 S
C659 C658 1.396 1_556 S
C659 C660 1.399 . S
C660 H646 0.929 . S
C660 C659 1.399 . S
C660 C661 1.385 . S
C661 H647 0.931 . S
C661 C660 1.385 . S
C661 C662 1.389 1_556 S
C662 C661 1.389 1_554 S
C662 C663 1.387 . S
C663 H648 0.930 . S
C663 C658 1.390 . S
C663 C662 1.387 . S
H664 C676 0.930 . S
H665 C678 0.930 . S
H666 C679 0.930 . S
H667 C683 0.959 . S
H668 C683 0.959 . S
H669 C683 0.961 . S
H670 C684 0.960 . S
H671 C684 0.961 . S
H672 C684 0.959 . S
H673 C687 0.929 . S
H674 C688 0.931 . S
H675 C690 0.930 . S
C676 H664 0.930 . S
C676 C677 1.399 . S
C676 C681 1.399 . S
C677 C676 1.399 . S
C677 C678 1.376 . S
C678 H665 0.930 . S
C678 C677 1.376 . S
C678 C679 1.388 . S
C679 H666 0.930 . S
C679 C678 1.388 . S
C679 C680 1.390 . S
C680 C679 1.390 . S
C680 C681 1.394 . S
C680 C686 1.465 . S
C681 C676 1.399 . S
C681 C680 1.394 . S
C681 C682 1.516 . S
C682 C681 1.516 . S
C682 C683 1.502 . S
C682 C684 1.561 . S
C682 C685 1.526 . S
C683 H667 0.959 . S
C683 H668 0.959 . S
C683 H669 0.961 . S
C683 C682 1.502 . S
C684 H670 0.960 . S
C684 H671 0.961 . S
C684 H672 0.959 . S
C684 C682 1.561 . S
C685 C682 1.526 . S
C685 C686 1.396 . S
C685 C690 1.390 . S
C686 C680 1.465 . S
C686 C685 1.396 . S
C686 C687 1.399 . S
C687 H673 0.929 . S
C687 C686 1.399 . S
C687 C688 1.385 . S
C688 H674 0.931 . S
C688 C687 1.385 . S
C688 C689 1.389 . S
C689 C688 1.389 . S
C689 C690 1.387 . S
C690 H675 0.930 . S
C690 C685 1.390 . S
C690 C689 1.387 . S
H691 C703 0.930 1_554 S
H692 C705 0.930 . S
H693 C706 0.930 . S
H694 C710 0.959 . S
H695 C710 0.959 . S
H696 C710 0.961 . S
H697 C711 0.960 . S
H698 C711 0.961 . S
H699 C711 0.959 . S
H700 C714 0.929 . S
H701 C715 0.931 . S
H702 C717 0.930 . S
C703 H691 0.930 1_556 S
C703 C704 1.399 . S
C703 C708 1.399 1_556 S
C704 C703 1.399 . S
C704 C705 1.376 . S
C705 H692 0.930 . S
C705 C704 1.376 . S
C705 C706 1.388 . S
C706 H693 0.930 . S
C706 C705 1.388 . S
C706 C707 1.390 . S
C707 C706 1.390 . S
C707 C708 1.394 1_556 S
C707 C713 1.465 . S
C708 C703 1.399 1_554 S
C708 C707 1.394 1_554 S
C708 C709 1.516 . S
C709 C708 1.516 . S
C709 C710 1.502 . S
C709 C711 1.561 . S
C709 C712 1.526 . S
C710 H694 0.959 . S
C710 H695 0.959 . S
C710 H696 0.961 . S
C710 C709 1.502 . S
C711 H697 0.960 . S
C711 H698 0.961 . S
C711 H699 0.959 . S
C711 C709 1.561 . S
C712 C709 1.526 . S
C712 C713 1.396 1_554 S
C712 C717 1.390 . S
C713 C707 1.465 . S
C713 C712 1.396 1_556 S
C713 C714 1.399 . S
C714 H700 0.929 . S
C714 C713 1.399 . S
C714 C715 1.385 . S
C715 H701 0.931 . S
C715 C714 1.385 . S
C715 C716 1.389 1_556 S
C716 C715 1.389 1_554 S
C716 C717 1.387 . S
C717 H702 0.930 . S
C717 C712 1.390 . S
C717 C716 1.387 . S
H718 C730 0.930 . S
H719 C732 0.930 . S
H720 C733 0.930 . S
H721 C737 0.959 . S
H722 C737 0.959 . S
H723 C737 0.961 . S
H724 C738 0.960 . S
H725 C738 0.961 . S
H726 C738 0.959 . S
H727 C741 0.929 . S
H728 C742 0.931 . S
H729 C744 0.930 . S
C730 H718 0.930 . S
C730 C731 1.399 . S
C730 C735 1.399 . S
C731 C730 1.399 . S
C731 C732 1.376 . S
C732 H719 0.930 . S
C732 C731 1.376 . S
C732 C733 1.388 . S
C733 H720 0.930 . S
C733 C732 1.388 . S
C733 C734 1.390 . S
C734 C733 1.390 . S
C734 C735 1.394 . S
C734 C740 1.465 . S
C735 C730 1.399 . S
C735 C734 1.394 . S
C735 C736 1.516 . S
C736 C735 1.516 . S
C736 C737 1.502 . S
C736 C738 1.561 . S
C736 C739 1.526 . S
C737 H721 0.959 . S
C737 H722 0.959 . S
C737 H723 0.961 . S
C737 C736 1.502 . S
C738 H724 0.960 . S
C738 H725 0.961 . S
C738 H726 0.959 . S
C738 C736 1.561 . S
C739 C736 1.526 . S
C739 C740 1.396 . S
C739 C744 1.390 . S
C740 C734 1.465 . S
C740 C739 1.396 . S
C740 C741 1.399 . S
C741 H727 0.929 . S
C741 C740 1.399 . S
C741 C742 1.385 . S
C742 H728 0.931 . S
C742 C741 1.385 . S
C742 C743 1.389 . S
C743 C742 1.389 . S
C743 C744 1.387 . S
C744 H729 0.930 . S
C744 C739 1.390 . S
C744 C743 1.387 . S
H745 C757 0.930 . S
H746 C759 0.930 . S
H747 C760 0.930 . S
H748 C764 0.959 . S
H749 C764 0.959 . S
H750 C764 0.961 . S
H751 C765 0.960 . S
H752 C765 0.961 . S
H753 C765 0.959 . S
H754 C768 0.929 . S
H755 C769 0.931 . S
H756 C771 0.930 . S
C757 H745 0.930 . S
C757 C758 1.399 . S
C757 C762 1.399 . S
C758 C757 1.399 . S
C758 C759 1.376 . S
C759 H746 0.930 . S
C759 C758 1.376 . S
C759 C760 1.388 . S
C760 H747 0.930 . S
C760 C759 1.388 . S
C760 C761 1.390 . S
C761 C760 1.390 . S
C761 C762 1.394 . S
C761 C767 1.465 . S
C762 C757 1.399 . S
C762 C761 1.394 . S
C762 C763 1.516 . S
C763 C762 1.516 . S
C763 C764 1.502 . S
C763 C765 1.561 . S
C763 C766 1.526 . S
C764 H748 0.959 . S
C764 H749 0.959 . S
C764 H750 0.961 . S
C764 C763 1.502 . S
C765 H751 0.960 . S
C765 H752 0.961 . S
C765 H753 0.959 . S
C765 C763 1.561 . S
C766 C763 1.526 . S
C766 C767 1.396 . S
C766 C771 1.390 . S
C767 C761 1.465 . S
C767 C766 1.396 . S
C767 C768 1.399 . S
C768 H754 0.929 . S
C768 C767 1.399 . S
C768 C769 1.385 . S
C769 H755 0.931 . S
C769 C768 1.385 . S
C769 C770 1.389 . S
C770 C769 1.389 . S
C770 C771 1.387 . S
C771 H756 0.930 . S
C771 C766 1.390 . S
C771 C770 1.387 . S
H772 C784 0.930 . S
H773 C786 0.930 . S
H774 C787 0.930 . S
H775 C791 0.959 . S
H776 C791 0.959 . S
H777 C791 0.961 . S
H778 C792 0.960 . S
H779 C792 0.961 . S
H780 C792 0.959 . S
H781 C795 0.929 . S
H782 C796 0.931 . S
H783 C798 0.930 . S
C784 H772 0.930 . S
C784 C785 1.399 . S
C784 C789 1.399 . S
C785 C784 1.399 . S
C785 C786 1.376 . S
C786 H773 0.930 . S
C786 C785 1.376 . S
C786 C787 1.388 . S
C787 H774 0.930 . S
C787 C786 1.388 . S
C787 C788 1.390 . S
C788 C787 1.390 . S
C788 C789 1.394 . S
C788 C794 1.465 . S
C789 C784 1.399 . S
C789 C788 1.394 . S
C789 C790 1.516 . S
C790 C789 1.516 . S
C790 C791 1.502 . S
C790 C792 1.561 . S
C790 C793 1.526 . S
C791 H775 0.959 . S
C791 H776 0.959 . S
C791 H777 0.961 . S
C791 C790 1.502 . S
C792 H778 0.960 . S
C792 H779 0.961 . S
C792 H780 0.959 . S
C792 C790 1.561 . S
C793 C790 1.526 . S
C793 C794 1.396 . S
C793 C798 1.390 . S
C794 C788 1.465 . S
C794 C793 1.396 . S
C794 C795 1.399 . S
C795 H781 0.929 . S
C795 C794 1.399 . S
C795 C796 1.385 . S
C796 H782 0.931 . S
C796 C795 1.385 . S
C796 C797 1.389 . S
C797 C796 1.389 . S
C797 C798 1.387 . S
C798 H783 0.930 . S
C798 C793 1.390 . S
C798 C797 1.387 . S
H799 C811 0.930 . S
H800 C813 0.930 . S
H801 C814 0.930 . S
H802 C818 0.959 . S
H803 C818 0.959 . S
H804 C818 0.961 . S
H805 C819 0.960 . S
H806 C819 0.961 . S
H807 C819 0.959 . S
H808 C822 0.929 . S
H809 C823 0.931 . S
H810 C825 0.930 1_554 S
C811 H799 0.930 . S
C811 C812 1.399 . S
C811 C816 1.399 . S
C812 C811 1.399 . S
C812 C813 1.376 . S
C813 H800 0.930 . S
C813 C812 1.376 . S
C813 C814 1.388 1_554 S
C814 H801 0.930 . S
C814 C813 1.388 1_556 S
C814 C815 1.390 . S
C815 C814 1.390 . S
C815 C816 1.394 1_556 S
C815 C821 1.465 . S
C816 C811 1.399 . S
C816 C815 1.394 1_554 S
C816 C817 1.516 . S
C817 C816 1.516 . S
C817 C818 1.502 . S
C817 C819 1.561 . S
C817 C820 1.526 . S
C818 H802 0.959 . S
C818 H803 0.959 . S
C818 H804 0.961 . S
C818 C817 1.502 . S
C819 H805 0.960 . S
C819 H806 0.961 . S
C819 H807 0.959 . S
C819 C817 1.561 . S
C820 C817 1.526 . S
C820 C821 1.396 1_554 S
C820 C825 1.390 1_554 S
C821 C815 1.465 . S
C821 C820 1.396 1_556 S
C821 C822 1.399 . S
C822 H808 0.929 . S
C822 C821 1.399 . S
C822 C823 1.385 . S
C823 H809 0.931 . S
C823 C822 1.385 . S
C823 C824 1.389 . S
C824 C823 1.389 . S
C824 C825 1.387 . S
C825 H810 0.930 1_556 S
C825 C820 1.390 1_556 S
C825 C824 1.387 . S
H826 C838 0.930 . S
H827 C840 0.930 . S
H828 C841 0.930 . S
H829 C845 0.959 . S
H830 C845 0.959 . S
H831 C845 0.961 . S
H832 C846 0.960 . S
H833 C846 0.961 . S
H834 C846 0.959 . S
H835 C849 0.929 . S
H836 C850 0.931 . S
H837 C852 0.930 . S
C838 H826 0.930 . S
C838 C839 1.399 . S
C838 C843 1.399 . S
C839 C838 1.399 . S
C839 C840 1.376 . S
C840 H827 0.930 . S
C840 C839 1.376 . S
C840 C841 1.388 . S
C841 H828 0.930 . S
C841 C840 1.388 . S
C841 C842 1.390 . S
C842 C841 1.390 . S
C842 C843 1.394 . S
C842 C848 1.465 . S
C843 C838 1.399 . S
C843 C842 1.394 . S
C843 C844 1.516 . S
C844 C843 1.516 . S
C844 C845 1.502 . S
C844 C846 1.561 . S
C844 C847 1.526 . S
C845 H829 0.959 . S
C845 H830 0.959 . S
C845 H831 0.961 . S
C845 C844 1.502 . S
C846 H832 0.960 . S
C846 H833 0.961 . S
C846 H834 0.959 . S
C846 C844 1.561 . S
C847 C844 1.526 . S
C847 C848 1.396 . S
C847 C852 1.390 . S
C848 C842 1.465 . S
C848 C847 1.396 . S
C848 C849 1.399 . S
C849 H835 0.929 . S
C849 C848 1.399 . S
C849 C850 1.385 . S
C850 H836 0.931 . S
C850 C849 1.385 . S
C850 C851 1.389 . S
C851 C850 1.389 . S
C851 C852 1.387 . S
C852 H837 0.930 . S
C852 C847 1.390 . S
C852 C851 1.387 . S
H853 C865 0.930 . S
H854 C867 0.930 . S
H855 C868 0.930 . S
H856 C872 0.959 . S
H857 C872 0.959 . S
H858 C872 0.961 . S
H859 C873 0.960 . S
H860 C873 0.961 . S
H861 C873 0.959 . S
H862 C876 0.929 . S
H863 C877 0.931 . S
H864 C879 0.930 . S
C865 H853 0.930 . S
C865 C866 1.399 . S
C865 C870 1.399 . S
C866 C865 1.399 . S
C866 C867 1.376 . S
C867 H854 0.930 . S
C867 C866 1.376 . S
C867 C868 1.388 . S
C868 H855 0.930 . S
C868 C867 1.388 . S
C868 C869 1.390 . S
C869 C868 1.390 . S
C869 C870 1.394 . S
C869 C875 1.465 . S
C870 C865 1.399 . S
C870 C869 1.394 . S
C870 C871 1.516 . S
C871 C870 1.516 . S
C871 C872 1.502 . S
C871 C873 1.561 . S
C871 C874 1.526 . S
C872 H856 0.959 . S
C872 H857 0.959 . S
C872 H858 0.961 . S
C872 C871 1.502 . S
C873 H859 0.960 . S
C873 H860 0.961 . S
C873 H861 0.959 . S
C873 C871 1.561 . S
C874 C871 1.526 . S
C874 C875 1.396 . S
C874 C879 1.390 . S
C875 C869 1.465 . S
C875 C874 1.396 . S
C875 C876 1.399 . S
C876 H862 0.929 . S
C876 C875 1.399 . S
C876 C877 1.385 . S
C877 H863 0.931 . S
C877 C876 1.385 . S
C877 C878 1.389 . S
C878 C877 1.389 . S
C878 C879 1.387 . S
C879 H864 0.930 . S
C879 C874 1.390 . S
C879 C878 1.387 . S
H880 C892 0.930 1_554 S
H881 C894 0.930 . S
H882 C895 0.930 . S
H883 C899 0.959 . S
H884 C899 0.959 . S
H885 C899 0.961 . S
H886 C900 0.960 . S
H887 C900 0.961 . S
H888 C900 0.959 . S
H889 C903 0.929 . S
H890 C904 0.931 . S
H891 C906 0.930 . S
C892 H880 0.930 1_556 S
C892 C893 1.399 . S
C892 C897 1.399 . S
C893 C892 1.399 . S
C893 C894 1.376 . S
C894 H881 0.930 . S
C894 C893 1.376 . S
C894 C895 1.388 . S
C895 H882 0.930 . S
C895 C894 1.388 . S
C895 C896 1.390 . S
C896 C895 1.390 . S
C896 C897 1.394 . S
C896 C902 1.465 . S
C897 C892 1.399 . S
C897 C896 1.394 . S
C897 C898 1.516 . S
C898 C897 1.516 . S
C898 C899 1.502 . S
C898 C900 1.561 . S
C898 C901 1.526 . S
C899 H883 0.959 . S
C899 H884 0.959 . S
C899 H885 0.961 . S
C899 C898 1.502 . S
C900 H886 0.960 . S
C900 H887 0.961 . S
C900 H888 0.959 . S
C900 C898 1.561 . S
C901 C898 1.526 . S
C901 C902 1.396 . S
C901 C906 1.390 . S
C902 C896 1.465 . S
C902 C901 1.396 . S
C902 C903 1.399 . S
C903 H889 0.929 . S
C903 C902 1.399 . S
C903 C904 1.385 . S
C904 H890 0.931 . S
C904 C903 1.385 . S
C904 C905 1.389 . S
C905 C904 1.389 . S
C905 C906 1.387 . S
C906 H891 0.930 . S
C906 C901 1.390 . S
C906 C905 1.387 . S
H907 C919 0.930 . S
H908 C921 0.930 . S
H909 C922 0.930 . S
H910 C926 0.959 . S
H911 C926 0.959 . S
H912 C926 0.961 . S
H913 C927 0.960 . S
H914 C927 0.961 . S
H915 C927 0.959 . S
H916 C930 0.929 . S
H917 C931 0.931 . S
H918 C933 0.930 . S
C919 H907 0.930 . S
C919 C920 1.399 . S
C919 C924 1.399 . S
C920 C919 1.399 . S
C920 C921 1.376 . S
C921 H908 0.930 . S
C921 C920 1.376 . S
C921 C922 1.388 . S
C922 H909 0.930 . S
C922 C921 1.388 . S
C922 C923 1.390 . S
C923 C922 1.390 . S
C923 C924 1.394 . S
C923 C929 1.465 . S
C924 C919 1.399 . S
C924 C923 1.394 . S
C924 C925 1.516 . S
C925 C924 1.516 . S
C925 C926 1.502 . S
C925 C927 1.561 . S
C925 C928 1.526 . S
C926 H910 0.959 . S
C926 H911 0.959 . S
C926 H912 0.961 . S
C926 C925 1.502 . S
C927 H913 0.960 . S
C927 H914 0.961 . S
C927 H915 0.959 . S
C927 C925 1.561 . S
C928 C925 1.526 . S
C928 C929 1.396 . S
C928 C933 1.390 . S
C929 C923 1.465 . S
C929 C928 1.396 . S
C929 C930 1.399 . S
C930 H916 0.929 . S
C930 C929 1.399 . S
C930 C931 1.385 . S
C931 H917 0.931 . S
C931 C930 1.385 . S
C931 C932 1.389 . S
C932 C931 1.389 . S
C932 C933 1.387 . S
C933 H918 0.930 . S
C933 C928 1.390 . S
C933 C932 1.387 . S
H934 C946 0.930 . S
H935 C948 0.930 . S
H936 C949 0.930 . S
H937 C953 0.959 . S
H938 C953 0.959 . S
H939 C953 0.961 . S
H940 C954 0.960 . S
H941 C954 0.961 . S
H942 C954 0.959 . S
H943 C957 0.929 . S
H944 C958 0.931 . S
H945 C960 0.930 . S
C946 H934 0.930 . S
C946 C947 1.399 . S
C946 C951 1.399 . S
C947 C946 1.399 . S
C947 C948 1.376 . S
C948 H935 0.930 . S
C948 C947 1.376 . S
C948 C949 1.388 . S
C949 H936 0.930 . S
C949 C948 1.388 . S
C949 C950 1.390 . S
C950 C949 1.390 . S
C950 C951 1.394 . S
C950 C956 1.465 . S
C951 C946 1.399 . S
C951 C950 1.394 . S
C951 C952 1.516 . S
C952 C951 1.516 . S
C952 C953 1.502 . S
C952 C954 1.561 . S
C952 C955 1.526 . S
C953 H937 0.959 . S
C953 H938 0.959 . S
C953 H939 0.961 . S
C953 C952 1.502 . S
C954 H940 0.960 . S
C954 H941 0.961 . S
C954 H942 0.959 . S
C954 C952 1.561 . S
C955 C952 1.526 . S
C955 C956 1.396 . S
C955 C960 1.390 . S
C956 C950 1.465 . S
C956 C955 1.396 . S
C956 C957 1.399 . S
C957 H943 0.929 . S
C957 C956 1.399 . S
C957 C958 1.385 . S
C958 H944 0.931 . S
C958 C957 1.385 . S
C958 C959 1.389 . S
C959 C958 1.389 . S
C959 C960 1.387 . S
C960 H945 0.930 . S
C960 C955 1.390 . S
C960 C959 1.387 . S
H961 C973 0.930 . S
H962 C975 0.930 . S
H963 C976 0.930 . S
H964 C980 0.959 . S
H965 C980 0.959 . S
H966 C980 0.961 . S
H967 C981 0.960 . S
H968 C981 0.961 . S
H969 C981 0.959 . S
H970 C984 0.929 . S
H971 C985 0.931 . S
H972 C987 0.930 . S
C973 H961 0.930 . S
C973 C974 1.399 . S
C973 C978 1.399 . S
C974 C973 1.399 . S
C974 C975 1.376 . S
C975 H962 0.930 . S
C975 C974 1.376 . S
C975 C976 1.388 . S
C976 H963 0.930 . S
C976 C975 1.388 . S
C976 C977 1.390 . S
C977 C976 1.390 . S
C977 C978 1.394 . S
C977 C983 1.465 . S
C978 C973 1.399 . S
C978 C977 1.394 . S
C978 C979 1.516 . S
C979 C978 1.516 . S
C979 C980 1.502 . S
C979 C981 1.561 . S
C979 C982 1.526 . S
C980 H964 0.959 . S
C980 H965 0.959 . S
C980 H966 0.961 . S
C980 C979 1.502 . S
C981 H967 0.960 . S
C981 H968 0.961 . S
C981 H969 0.959 . S
C981 C979 1.561 . S
C982 C979 1.526 . S
C982 C983 1.396 . S
C982 C987 1.390 . S
C983 C977 1.465 . S
C983 C982 1.396 . S
C983 C984 1.399 . S
C984 H970 0.929 . S
C984 C983 1.399 . S
C984 C985 1.385 . S
C985 H971 0.931 . S
C985 C984 1.385 . S
C985 C986 1.389 . S
C986 C985 1.389 . S
C986 C987 1.387 . S
C987 H972 0.930 . S
C987 C982 1.390 . S
C987 C986 1.387 . S
H988 C1000 0.930 . S
H989 C1002 0.930 1_556 S
H990 C1003 0.930 . S
H991 C1007 0.959 . S
H992 C1007 0.959 . S
H993 C1007 0.961 . S
H994 C1008 0.960 . S
H995 C1008 0.961 . S
H996 C1008 0.959 . S
H997 C1011 0.929 . S
H998 C1012 0.931 . S
H999 C1014 0.930 . S
C1000 H988 0.930 . S
C1000 C1001 1.399 . S
C1000 C1005 1.399 . S
C1001 C1000 1.399 . S
C1001 C1002 1.376 . S
C1002 H989 0.930 1_554 S
C1002 C1001 1.376 . S
C1002 C1003 1.388 . S
C1003 H990 0.930 . S
C1003 C1002 1.388 . S
C1003 C1004 1.390 . S
C1004 C1003 1.390 . S
C1004 C1005 1.394 . S
C1004 C1010 1.465 . S
C1005 C1000 1.399 . S
C1005 C1004 1.394 . S
C1005 C1006 1.516 . S
C1006 C1005 1.516 . S
C1006 C1007 1.502 . S
C1006 C1008 1.561 . S
C1006 C1009 1.526 . S
C1007 H991 0.959 . S
C1007 H992 0.959 . S
C1007 H993 0.961 . S
C1007 C1006 1.502 . S
C1008 H994 0.960 . S
C1008 H995 0.961 . S
C1008 H996 0.959 . S
C1008 C1006 1.561 . S
C1009 C1006 1.526 . S
C1009 C1010 1.396 . S
C1009 C1014 1.390 . S
C1010 C1004 1.465 . S
C1010 C1009 1.396 . S
C1010 C1011 1.399 . S
C1011 H997 0.929 . S
C1011 C1010 1.399 . S
C1011 C1012 1.385 . S
C1012 H998 0.931 . S
C1012 C1011 1.385 . S
C1012 C1013 1.389 . S
C1013 C1012 1.389 . S
C1013 C1014 1.387 . S
C1014 H999 0.930 . S
C1014 C1009 1.390 . S
C1014 C1013 1.387 . S
H1015 C1027 0.930 1_554 S
H1016 C1029 0.930 . S
H1017 C1030 0.930 . S
H1018 C1034 0.959 . S
H1019 C1034 0.959 . S
H1020 C1034 0.961 . S
H1021 C1035 0.960 . S
H1022 C1035 0.961 . S
H1023 C1035 0.959 . S
H1024 C1038 0.929 . S
H1025 C1039 0.931 . S
H1026 C1041 0.930 . S
C1027 H1015 0.930 1_556 S
C1027 C1028 1.399 . S
C1027 C1032 1.399 . S
C1028 C1027 1.399 . S
C1028 C1029 1.376 . S
C1029 H1016 0.930 . S
C1029 C1028 1.376 . S
C1029 C1030 1.388 . S
C1030 H1017 0.930 . S
C1030 C1029 1.388 . S
C1030 C1031 1.390 . S
C1031 C1030 1.390 . S
C1031 C1032 1.394 . S
C1031 C1037 1.465 . S
C1032 C1027 1.399 . S
C1032 C1031 1.394 . S
C1032 C1033 1.516 . S
C1033 C1032 1.516 . S
C1033 C1034 1.502 . S
C1033 C1035 1.561 . S
C1033 C1036 1.526 . S
C1034 H1018 0.959 . S
C1034 H1019 0.959 . S
C1034 H1020 0.961 . S
C1034 C1033 1.502 . S
C1035 H1021 0.960 . S
C1035 H1022 0.961 . S
C1035 H1023 0.959 . S
C1035 C1033 1.561 . S
C1036 C1033 1.526 . S
C1036 C1037 1.396 . S
C1036 C1041 1.390 . S
C1037 C1031 1.465 . S
C1037 C1036 1.396 . S
C1037 C1038 1.399 . S
C1038 H1024 0.929 . S
C1038 C1037 1.399 . S
C1038 C1039 1.385 . S
C1039 H1025 0.931 . S
C1039 C1038 1.385 . S
C1039 C1040 1.389 . S
C1040 C1039 1.389 . S
C1040 C1041 1.387 . S
C1041 H1026 0.930 . S
C1041 C1036 1.390 . S
C1041 C1040 1.387 . S
H1042 C1054 0.930 . S
H1043 C1056 0.930 . S
H1044 C1057 0.930 . S
H1045 C1061 0.959 . S
H1046 C1061 0.959 . S
H1047 C1061 0.961 . S
H1048 C1062 0.960 . S
H1049 C1062 0.961 . S
H1050 C1062 0.959 . S
H1051 C1065 0.929 . S
H1052 C1066 0.931 . S
H1053 C1068 0.930 . S
C1054 H1042 0.930 . S
C1054 C1055 1.399 . S
C1054 C1059 1.399 . S
C1055 C1054 1.399 . S
C1055 C1056 1.376 . S
C1056 H1043 0.930 . S
C1056 C1055 1.376 . S
C1056 C1057 1.388 . S
C1057 H1044 0.930 . S
C1057 C1056 1.388 . S
C1057 C1058 1.390 . S
C1058 C1057 1.390 . S
C1058 C1059 1.394 . S
C1058 C1064 1.465 . S
C1059 C1054 1.399 . S
C1059 C1058 1.394 . S
C1059 C1060 1.516 . S
C1060 C1059 1.516 . S
C1060 C1061 1.502 . S
C1060 C1062 1.561 . S
C1060 C1063 1.526 . S
C1061 H1045 0.959 . S
C1061 H1046 0.959 . S
C1061 H1047 0.961 . S
C1061 C1060 1.502 . S
C1062 H1048 0.960 . S
C1062 H1049 0.961 . S
C1062 H1050 0.959 . S
C1062 C1060 1.561 . S
C1063 C1060 1.526 . S
C1063 C1064 1.396 . S
C1063 C1068 1.390 . S
C1064 C1058 1.465 . S
C1064 C1063 1.396 . S
C1064 C1065 1.399 . S
C1065 H1051 0.929 . S
C1065 C1064 1.399 . S
C1065 C1066 1.385 . S
C1066 H1052 0.931 . S
C1066 C1065 1.385 . S
C1066 C1067 1.389 . S
C1067 C1066 1.389 . S
C1067 C1068 1.387 . S
C1068 H1053 0.930 . S
C1068 C1063 1.390 . S
C1068 C1067 1.387 . S
H1069 C1081 0.930 . S
H1070 C1083 0.930 . S
H1071 C1084 0.930 . S
H1072 C1088 0.959 . S
H1073 C1088 0.959 . S
H1074 C1088 0.961 . S
H1075 C1089 0.960 . S
H1076 C1089 0.961 . S
H1077 C1089 0.959 . S
H1078 C1092 0.929 . S
H1079 C1093 0.931 . S
H1080 C1095 0.930 . S
C1081 H1069 0.930 . S
C1081 C1082 1.399 . S
C1081 C1086 1.399 . S
C1082 C1081 1.399 . S
C1082 C1083 1.376 . S
C1083 H1070 0.930 . S
C1083 C1082 1.376 . S
C1083 C1084 1.388 . S
C1084 H1071 0.930 . S
C1084 C1083 1.388 . S
C1084 C1085 1.390 . S
C1085 C1084 1.390 . S
C1085 C1086 1.394 . S
C1085 C1091 1.465 . S
C1086 C1081 1.399 . S
C1086 C1085 1.394 . S
C1086 C1087 1.516 . S
C1087 C1086 1.516 . S
C1087 C1088 1.502 . S
C1087 C1089 1.561 . S
C1087 C1090 1.526 . S
C1088 H1072 0.959 . S
C1088 H1073 0.959 . S
C1088 H1074 0.961 . S
C1088 C1087 1.502 . S
C1089 H1075 0.960 . S
C1089 H1076 0.961 . S
C1089 H1077 0.959 . S
C1089 C1087 1.561 . S
C1090 C1087 1.526 . S
C1090 C1091 1.396 . S
C1090 C1095 1.390 . S
C1091 C1085 1.465 . S
C1091 C1090 1.396 . S
C1091 C1092 1.399 . S
C1092 H1078 0.929 . S
C1092 C1091 1.399 . S
C1092 C1093 1.385 . S
C1093 H1079 0.931 . S
C1093 C1092 1.385 . S
C1093 C1094 1.389 . S
C1094 C1093 1.389 . S
C1094 C1095 1.387 . S
C1095 H1080 0.930 . S
C1095 C1090 1.390 . S
C1095 C1094 1.387 . S
H1096 C1108 0.930 . S
H1097 C1110 0.930 . S
H1098 C1111 0.930 . S
H1099 C1115 0.959 . S
H1100 C1115 0.959 . S
H1101 C1115 0.961 . S
H1102 C1116 0.960 . S
H1103 C1116 0.961 . S
H1104 C1116 0.959 . S
H1105 C1119 0.929 . S
H1106 C1120 0.931 . S
H1107 C1122 0.930 . S
C1108 H1096 0.930 . S
C1108 C1109 1.399 . S
C1108 C1113 1.399 . S
C1109 C1108 1.399 . S
C1109 C1110 1.376 . S
C1110 H1097 0.930 . S
C1110 C1109 1.376 . S
C1110 C1111 1.388 . S
C1111 H1098 0.930 . S
C1111 C1110 1.388 . S
C1111 C1112 1.390 . S
C1112 C1111 1.390 . S
C1112 C1113 1.394 . S
C1112 C1118 1.465 . S
C1113 C1108 1.399 . S
C1113 C1112 1.394 . S
C1113 C1114 1.516 . S
C1114 C1113 1.516 . S
C1114 C1115 1.502 . S
C1114 C1116 1.561 . S
C1114 C1117 1.526 . S
C1115 H1099 0.959 . S
C1115 H1100 0.959 . S
C1115 H1101 0.961 . S
C1115 C1114 1.502 . S
C1116 H1102 0.960 . S
C1116 H1103 0.961 . S
C1116 H1104 0.959 . S
C1116 C1114 1.561 . S
C1117 C1114 1.526 . S
C1117 C1118 1.396 . S
C1117 C1122 1.390 . S
C1118 C1112 1.465 . S
C1118 C1117 1.396 . S
C1118 C1119 1.399 . S
C1119 H1105 0.929 . S
C1119 C1118 1.399 . S
C1119 C1120 1.385 . S
C1120 H1106 0.931 . S
C1120 C1119 1.385 . S
C1120 C1121 1.389 . S
C1121 C1120 1.389 . S
C1121 C1122 1.387 . S
C1122 H1107 0.930 . S
C1122 C1117 1.390 . S
C1122 C1121 1.387 . S
H1123 C1135 0.930 . S
H1124 C1137 0.930 . S
H1125 C1138 0.930 . S
H1126 C1142 0.959 . S
H1127 C1142 0.959 . S
H1128 C1142 0.961 . S
H1129 C1143 0.960 . S
H1130 C1143 0.961 . S
H1131 C1143 0.959 . S
H1132 C1146 0.929 . S
H1133 C1147 0.931 . S
H1134 C1149 0.930 . S
C1135 H1123 0.930 . S
C1135 C1136 1.399 . S
C1135 C1140 1.399 . S
C1136 C1135 1.399 . S
C1136 C1137 1.376 . S
C1137 H1124 0.930 . S
C1137 C1136 1.376 . S
C1137 C1138 1.388 . S
C1138 H1125 0.930 . S
C1138 C1137 1.388 . S
C1138 C1139 1.390 . S
C1139 C1138 1.390 . S
C1139 C1140 1.394 . S
C1139 C1145 1.465 . S
C1140 C1135 1.399 . S
C1140 C1139 1.394 . S
C1140 C1141 1.516 . S
C1141 C1140 1.516 . S
C1141 C1142 1.502 . S
C1141 C1143 1.561 . S
C1141 C1144 1.526 . S
C1142 H1126 0.959 . S
C1142 H1127 0.959 . S
C1142 H1128 0.961 . S
C1142 C1141 1.502 . S
C1143 H1129 0.960 . S
C1143 H1130 0.961 . S
C1143 H1131 0.959 . S
C1143 C1141 1.561 . S
C1144 C1141 1.526 . S
C1144 C1145 1.396 . S
C1144 C1149 1.390 . S
C1145 C1139 1.465 . S
C1145 C1144 1.396 . S
C1145 C1146 1.399 . S
C1146 H1132 0.929 . S
C1146 C1145 1.399 . S
C1146 C1147 1.385 . S
C1147 H1133 0.931 . S
C1147 C1146 1.385 . S
C1147 C1148 1.389 . S
C1148 C1147 1.389 . S
C1148 C1149 1.387 . S
C1149 H1134 0.930 . S
C1149 C1144 1.390 . S
C1149 C1148 1.387 . S
H1150 C1162 0.930 . S
H1151 C1164 0.930 . S
H1152 C1165 0.930 . S
H1153 C1169 0.959 . S
H1154 C1169 0.959 . S
H1155 C1169 0.961 . S
H1156 C1170 0.960 . S
H1157 C1170 0.961 . S
H1158 C1170 0.959 . S
H1159 C1173 0.929 . S
H1160 C1174 0.931 . S
H1161 C1176 0.930 . S
C1162 H1150 0.930 . S
C1162 C1163 1.399 . S
C1162 C1167 1.399 . S
C1163 C1162 1.399 . S
C1163 C1164 1.376 . S
C1164 H1151 0.930 . S
C1164 C1163 1.376 . S
C1164 C1165 1.388 . S
C1165 H1152 0.930 . S
C1165 C1164 1.388 . S
C1165 C1166 1.390 . S
C1166 C1165 1.390 . S
C1166 C1167 1.394 . S
C1166 C1172 1.465 . S
C1167 C1162 1.399 . S
C1167 C1166 1.394 . S
C1167 C1168 1.516 . S
C1168 C1167 1.516 . S
C1168 C1169 1.502 . S
C1168 C1170 1.561 . S
C1168 C1171 1.526 . S
C1169 H1153 0.959 . S
C1169 H1154 0.959 . S
C1169 H1155 0.961 . S
C1169 C1168 1.502 . S
C1170 H1156 0.960 . S
C1170 H1157 0.961 . S
C1170 H1158 0.959 . S
C1170 C1168 1.561 . S
C1171 C1168 1.526 . S
C1171 C1172 1.396 . S
C1171 C1176 1.390 . S
C1172 C1166 1.465 . S
C1172 C1171 1.396 . S
C1172 C1173 1.399 . S
C1173 H1159 0.929 . S
C1173 C1172 1.399 . S
C1173 C1174 1.385 . S
C1174 H1160 0.931 . S
C1174 C1173 1.385 . S
C1174 C1175 1.389 . S
C1175 C1174 1.389 . S
C1175 C1176 1.387 . S
C1176 H1161 0.930 . S
C1176 C1171 1.390 . S
C1176 C1175 1.387 . S
H1177 C1189 0.930 . S
H1178 C1191 0.930 . S
H1179 C1192 0.930 . S
H1180 C1196 0.959 . S
H1181 C1196 0.959 . S
H1182 C1196 0.961 . S
H1183 C1197 0.960 . S
H1184 C1197 0.961 . S
H1185 C1197 0.959 . S
H1186 C1200 0.929 . S
H1187 C1201 0.931 . S
H1188 C1203 0.930 . S
C1189 H1177 0.930 . S
C1189 C1190 1.399 . S
C1189 C1194 1.399 . S
C1190 C1189 1.399 . S
C1190 C1191 1.376 . S
C1191 H1178 0.930 . S
C1191 C1190 1.376 . S
C1191 C1192 1.388 . S
C1192 H1179 0.930 . S
C1192 C1191 1.388 . S
C1192 C1193 1.390 . S
C1193 C1192 1.390 . S
C1193 C1194 1.394 . S
C1193 C1199 1.465 . S
C1194 C1189 1.399 . S
C1194 C1193 1.394 . S
C1194 C1195 1.516 . S
C1195 C1194 1.516 . S
C1195 C1196 1.502 . S
C1195 C1197 1.561 . S
C1195 C1198 1.526 . S
C1196 H1180 0.959 . S
C1196 H1181 0.959 . S
C1196 H1182 0.961 . S
C1196 C1195 1.502 . S
C1197 H1183 0.960 . S
C1197 H1184 0.961 . S
C1197 H1185 0.959 . S
C1197 C1195 1.561 . S
C1198 C1195 1.526 . S
C1198 C1199 1.396 . S
C1198 C1203 1.390 . S
C1199 C1193 1.465 . S
C1199 C1198 1.396 . S
C1199 C1200 1.399 . S
C1200 H1186 0.929 . S
C1200 C1199 1.399 . S
C1200 C1201 1.385 . S
C1201 H1187 0.931 . S
C1201 C1200 1.385 . S
C1201 C1202 1.389 . S
C1202 C1201 1.389 . S
C1202 C1203 1.387 . S
C1203 H1188 0.930 . S
C1203 C1198 1.390 . S
C1203 C1202 1.387 . S
H1204 C1216 0.930 . S
H1205 C1218 0.930 . S
H1206 C1219 0.930 . S
H1207 C1223 0.959 . S
H1208 C1223 0.959 . S
H1209 C1223 0.961 . S
H1210 C1224 0.960 . S
H1211 C1224 0.961 . S
H1212 C1224 0.959 . S
H1213 C1227 0.929 . S
H1214 C1228 0.931 . S
H1215 C1230 0.930 . S
C1216 H1204 0.930 . S
C1216 C1217 1.399 . S
C1216 C1221 1.399 . S
C1217 C1216 1.399 . S
C1217 C1218 1.376 . S
C1218 H1205 0.930 . S
C1218 C1217 1.376 . S
C1218 C1219 1.388 . S
C1219 H1206 0.930 . S
C1219 C1218 1.388 . S
C1219 C1220 1.390 . S
C1220 C1219 1.390 . S
C1220 C1221 1.394 . S
C1220 C1226 1.465 . S
C1221 C1216 1.399 . S
C1221 C1220 1.394 . S
C1221 C1222 1.516 . S
C1222 C1221 1.516 . S
C1222 C1223 1.502 . S
C1222 C1224 1.561 . S
C1222 C1225 1.526 . S
C1223 H1207 0.959 . S
C1223 H1208 0.959 . S
C1223 H1209 0.961 . S
C1223 C1222 1.502 . S
C1224 H1210 0.960 . S
C1224 H1211 0.961 . S
C1224 H1212 0.959 . S
C1224 C1222 1.561 . S
C1225 C1222 1.526 . S
C1225 C1226 1.396 . S
C1225 C1230 1.390 . S
C1226 C1220 1.465 . S
C1226 C1225 1.396 . S
C1226 C1227 1.399 . S
C1227 H1213 0.929 . S
C1227 C1226 1.399 . S
C1227 C1228 1.385 . S
C1228 H1214 0.931 . S
C1228 C1227 1.385 . S
C1228 C1229 1.389 . S
C1229 C1228 1.389 . S
C1229 C1230 1.387 . S
C1230 H1215 0.930 . S
C1230 C1225 1.390 . S
C1230 C1229 1.387 . S
H1231 C1243 0.930 . S
H1232 C1245 0.930 . S
H1233 C1246 0.930 . S
H1234 C1250 0.959 . S
H1235 C1250 0.959 . S
H1236 C1250 0.961 . S
H1237 C1251 0.960 . S
H1238 C1251 0.961 . S
H1239 C1251 0.959 . S
H1240 C1254 0.929 . S
H1241 C1255 0.931 . S
H1242 C1257 0.930 . S
C1243 H1231 0.930 . S
C1243 C1244 1.399 . S
C1243 C1248 1.399 . S
C1244 C1243 1.399 . S
C1244 C1245 1.376 . S
C1245 H1232 0.930 . S
C1245 C1244 1.376 . S
C1245 C1246 1.388 . S
C1246 H1233 0.930 . S
C1246 C1245 1.388 . S
C1246 C1247 1.390 . S
C1247 C1246 1.390 . S
C1247 C1248 1.394 . S
C1247 C1253 1.465 . S
C1248 C1243 1.399 . S
C1248 C1247 1.394 . S
C1248 C1249 1.516 . S
C1249 C1248 1.516 . S
C1249 C1250 1.502 . S
C1249 C1251 1.561 . S
C1249 C1252 1.526 . S
C1250 H1234 0.959 . S
C1250 H1235 0.959 . S
C1250 H1236 0.961 . S
C1250 C1249 1.502 . S
C1251 H1237 0.960 . S
C1251 H1238 0.961 . S
C1251 H1239 0.959 . S
C1251 C1249 1.561 . S
C1252 C1249 1.526 . S
C1252 C1253 1.396 . S
C1252 C1257 1.390 . S
C1253 C1247 1.465 . S
C1253 C1252 1.396 . S
C1253 C1254 1.399 . S
C1254 H1240 0.929 . S
C1254 C1253 1.399 . S
C1254 C1255 1.385 . S
C1255 H1241 0.931 . S
C1255 C1254 1.385 . S
C1255 C1256 1.389 . S
C1256 C1255 1.389 . S
C1256 C1257 1.387 . S
C1257 H1242 0.930 . S
C1257 C1252 1.390 . S
C1257 C1256 1.387 . S
H1258 C1270 0.930 . S
H1259 C1272 0.930 . S
H1260 C1273 0.930 . S
H1261 C1277 0.959 . S
H1262 C1277 0.959 . S
H1263 C1277 0.961 . S
H1264 C1278 0.960 . S
H1265 C1278 0.961 . S
H1266 C1278 0.959 . S
H1267 C1281 0.929 . S
H1268 C1282 0.931 . S
H1269 C1284 0.930 . S
C1270 H1258 0.930 . S
C1270 C1271 1.399 . S
C1270 C1275 1.399 . S
C1271 C1270 1.399 . S
C1271 C1272 1.376 1_554 S
C1272 H1259 0.930 . S
C1272 C1271 1.376 1_556 S
C1272 C1273 1.388 1_556 S
C1273 H1260 0.930 . S
C1273 C1272 1.388 1_554 S
C1273 C1274 1.390 . S
C1274 C1273 1.390 . S
C1274 C1275 1.394 . S
C1274 C1280 1.465 . S
C1275 C1270 1.399 . S
C1275 C1274 1.394 . S
C1275 C1276 1.516 . S
C1276 C1275 1.516 . S
C1276 C1277 1.502 . S
C1276 C1278 1.561 . S
C1276 C1279 1.526 . S
C1277 H1261 0.959 . S
C1277 H1262 0.959 . S
C1277 H1263 0.961 . S
C1277 C1276 1.502 . S
C1278 H1264 0.960 . S
C1278 H1265 0.961 . S
C1278 H1266 0.959 . S
C1278 C1276 1.561 . S
C1279 C1276 1.526 . S
C1279 C1280 1.396 . S
C1279 C1284 1.390 . S
C1280 C1274 1.465 . S
C1280 C1279 1.396 . S
C1280 C1281 1.399 . S
C1281 H1267 0.929 . S
C1281 C1280 1.399 . S
C1281 C1282 1.385 . S
C1282 H1268 0.931 . S
C1282 C1281 1.385 . S
C1282 C1283 1.389 . S
C1283 C1282 1.389 . S
C1283 C1284 1.387 . S
C1284 H1269 0.930 . S
C1284 C1279 1.390 . S
C1284 C1283 1.387 . S
H1285 C1297 0.930 . S
H1286 C1299 0.930 . S
H1287 C1300 0.930 . S
H1288 C1304 0.959 . S
H1289 C1304 0.959 . S
H1290 C1304 0.961 . S
H1291 C1305 0.960 . S
H1292 C1305 0.961 . S
H1293 C1305 0.959 . S
H1294 C1308 0.929 . S
H1295 C1309 0.931 . S
H1296 C1311 0.930 . S
C1297 H1285 0.930 . S
C1297 C1298 1.399 . S
C1297 C1302 1.399 . S
C1298 C1297 1.399 . S
C1298 C1299 1.376 . S
C1299 H1286 0.930 . S
C1299 C1298 1.376 . S
C1299 C1300 1.388 . S
C1300 H1287 0.930 . S
C1300 C1299 1.388 . S
C1300 C1301 1.390 . S
C1301 C1300 1.390 . S
C1301 C1302 1.394 . S
C1301 C1307 1.465 . S
C1302 C1297 1.399 . S
C1302 C1301 1.394 . S
C1302 C1303 1.516 . S
C1303 C1302 1.516 . S
C1303 C1304 1.502 . S
C1303 C1305 1.561 . S
C1303 C1306 1.526 . S
C1304 H1288 0.959 . S
C1304 H1289 0.959 . S
C1304 H1290 0.961 . S
C1304 C1303 1.502 . S
C1305 H1291 0.960 . S
C1305 H1292 0.961 . S
C1305 H1293 0.959 . S
C1305 C1303 1.561 . S
C1306 C1303 1.526 . S
C1306 C1307 1.396 . S
C1306 C1311 1.390 . S
C1307 C1301 1.465 . S
C1307 C1306 1.396 . S
C1307 C1308 1.399 . S
C1308 H1294 0.929 . S
C1308 C1307 1.399 . S
C1308 C1309 1.385 . S
C1309 H1295 0.931 . S
C1309 C1308 1.385 . S
C1309 C1310 1.389 . S
C1310 C1309 1.389 . S
C1310 C1311 1.387 . S
C1311 H1296 0.930 . S
C1311 C1306 1.390 . S
C1311 C1310 1.387 . S
H1312 C1324 0.930 . S
H1313 C1326 0.930 . S
H1314 C1327 0.930 . S
H1315 C1331 0.959 . S
H1316 C1331 0.959 . S
H1317 C1331 0.961 . S
H1318 C1332 0.960 . S
H1319 C1332 0.961 . S
H1320 C1332 0.959 . S
H1321 C1335 0.929 . S
H1322 C1336 0.931 . S
H1323 C1338 0.930 . S
C1324 H1312 0.930 . S
C1324 C1325 1.399 . S
C1324 C1329 1.399 . S
C1325 C1324 1.399 . S
C1325 C1326 1.376 . S
C1326 H1313 0.930 . S
C1326 C1325 1.376 . S
C1326 C1327 1.388 . S
C1327 H1314 0.930 . S
C1327 C1326 1.388 . S
C1327 C1328 1.390 . S
C1328 C1327 1.390 . S
C1328 C1329 1.394 . S
C1328 C1334 1.465 . S
C1329 C1324 1.399 . S
C1329 C1328 1.394 . S
C1329 C1330 1.516 . S
C1330 C1329 1.516 . S
C1330 C1331 1.502 . S
C1330 C1332 1.561 . S
C1330 C1333 1.526 . S
C1331 H1315 0.959 . S
C1331 H1316 0.959 . S
C1331 H1317 0.961 . S
C1331 C1330 1.502 . S
C1332 H1318 0.960 . S
C1332 H1319 0.961 . S
C1332 H1320 0.959 . S
C1332 C1330 1.561 . S
C1333 C1330 1.526 . S
C1333 C1334 1.396 . S
C1333 C1338 1.390 . S
C1334 C1328 1.465 . S
C1334 C1333 1.396 . S
C1334 C1335 1.399 . S
C1335 H1321 0.929 . S
C1335 C1334 1.399 . S
C1335 C1336 1.385 . S
C1336 H1322 0.931 . S
C1336 C1335 1.385 . S
C1336 C1337 1.389 . S
C1337 C1336 1.389 . S
C1337 C1338 1.387 . S
C1338 H1323 0.930 . S
C1338 C1333 1.390 . S
C1338 C1337 1.387 . S
H1339 C1351 0.930 . S
H1340 C1353 0.930 . S
H1341 C1354 0.930 . S
H1342 C1358 0.962 . S
H1343 C1358 0.977 . S
H1344 C1358 0.942 1_655 S
H1345 C1359 0.960 1_655 S
H1346 C1359 0.961 . S
H1347 C1359 0.959 . S
H1348 C1362 0.929 . S
H1349 C1363 0.931 . S
H1350 C1365 0.930 . S
C1351 H1339 0.930 . S
C1351 C1352 1.399 . S
C1351 C1356 1.399 . S
C1352 C1351 1.399 . S
C1352 C1353 1.376 . S
C1353 H1340 0.930 . S
C1353 C1352 1.376 . S
C1353 C1354 1.388 . S
C1354 H1341 0.930 . S
C1354 C1353 1.388 . S
C1354 C1355 1.390 . S
C1355 C1354 1.390 . S
C1355 C1356 1.394 . S
C1355 C1361 1.465 1_655 S
C1356 C1351 1.399 . S
C1356 C1355 1.394 . S
C1356 C1357 1.519 1_655 S
C1357 C1356 1.519 1_455 S
C1357 C1358 1.502 . S
C1357 C1359 1.561 . S
C1357 C1360 1.523 . S
C1358 H1342 0.962 . S
C1358 H1343 0.977 . S
C1358 H1344 0.942 1_455 S
C1358 C1357 1.502 . S
C1359 H1345 0.960 1_455 S
C1359 H1346 0.961 . S
C1359 H1347 0.959 . S
C1359 C1357 1.561 . S
C1360 C1357 1.523 . S
C1360 C1361 1.396 . S
C1360 C1365 1.390 . S
C1361 C1355 1.465 1_455 S
C1361 C1360 1.396 . S
C1361 C1362 1.399 . S
C1362 H1348 0.929 . S
C1362 C1361 1.399 . S
C1362 C1363 1.385 . S
C1363 H1349 0.931 . S
C1363 C1362 1.385 . S
C1363 C1364 1.389 . S
C1364 C1363 1.389 . S
C1364 C1365 1.387 . S
C1365 H1350 0.930 . S
C1365 C1360 1.390 . S
C1365 C1364 1.387 . S
H1366 C1378 0.930 . S
H1367 C1380 0.930 . S
H1368 C1381 0.930 . S
H1369 C1385 0.959 . S
H1370 C1385 0.959 . S
H1371 C1385 0.961 . S
H1372 C1386 0.960 . S
H1373 C1386 0.961 . S
H1374 C1386 0.959 . S
H1375 C1389 0.929 . S
H1376 C1390 0.931 . S
H1377 C1392 0.930 . S
C1378 H1366 0.930 . S
C1378 C1379 1.399 . S
C1378 C1383 1.399 . S
C1379 C1378 1.399 . S
C1379 C1380 1.376 . S
C1380 H1367 0.930 . S
C1380 C1379 1.376 . S
C1380 C1381 1.388 . S
C1381 H1368 0.930 . S
C1381 C1380 1.388 . S
C1381 C1382 1.390 . S
C1382 C1381 1.390 . S
C1382 C1383 1.394 . S
C1382 C1388 1.465 . S
C1383 C1378 1.399 . S
C1383 C1382 1.394 . S
C1383 C1384 1.516 . S
C1384 C1383 1.516 . S
C1384 C1385 1.502 . S
C1384 C1386 1.561 . S
C1384 C1387 1.526 . S
C1385 H1369 0.959 . S
C1385 H1370 0.959 . S
C1385 H1371 0.961 . S
C1385 C1384 1.502 . S
C1386 H1372 0.960 . S
C1386 H1373 0.961 . S
C1386 H1374 0.959 . S
C1386 C1384 1.561 . S
C1387 C1384 1.526 . S
C1387 C1388 1.396 . S
C1387 C1392 1.390 . S
C1388 C1382 1.465 . S
C1388 C1387 1.396 . S
C1388 C1389 1.399 . S
C1389 H1375 0.929 . S
C1389 C1388 1.399 . S
C1389 C1390 1.385 . S
C1390 H1376 0.931 . S
C1390 C1389 1.385 . S
C1390 C1391 1.389 . S
C1391 C1390 1.389 . S
C1391 C1392 1.387 . S
C1392 H1377 0.930 . S
C1392 C1387 1.390 . S
C1392 C1391 1.387 . S
H1393 C1405 0.930 . S
H1394 C1407 0.930 . S
H1395 C1408 0.930 . S
H1396 C1412 0.959 . S
H1397 C1412 0.959 . S
H1398 C1412 0.961 . S
H1399 C1413 0.960 . S
H1400 C1413 0.961 . S
H1401 C1413 0.959 . S
H1402 C1416 0.929 . S
H1403 C1417 0.931 . S
H1404 C1419 0.930 . S
C1405 H1393 0.930 . S
C1405 C1406 1.399 . S
C1405 C1410 1.399 . S
C1406 C1405 1.399 . S
C1406 C1407 1.376 . S
C1407 H1394 0.930 . S
C1407 C1406 1.376 . S
C1407 C1408 1.388 . S
C1408 H1395 0.930 . S
C1408 C1407 1.388 . S
C1408 C1409 1.390 . S
C1409 C1408 1.390 . S
C1409 C1410 1.394 . S
C1409 C1415 1.465 . S
C1410 C1405 1.399 . S
C1410 C1409 1.394 . S
C1410 C1411 1.516 . S
C1411 C1410 1.516 . S
C1411 C1412 1.502 . S
C1411 C1413 1.561 . S
C1411 C1414 1.526 . S
C1412 H1396 0.959 . S
C1412 H1397 0.959 . S
C1412 H1398 0.961 . S
C1412 C1411 1.502 . S
C1413 H1399 0.960 . S
C1413 H1400 0.961 . S
C1413 H1401 0.959 . S
C1413 C1411 1.561 . S
C1414 C1411 1.526 . S
C1414 C1415 1.396 . S
C1414 C1419 1.390 . S
C1415 C1409 1.465 . S
C1415 C1414 1.396 . S
C1415 C1416 1.399 . S
C1416 H1402 0.929 . S
C1416 C1415 1.399 . S
C1416 C1417 1.385 . S
C1417 H1403 0.931 . S
C1417 C1416 1.385 . S
C1417 C1418 1.389 . S
C1418 C1417 1.389 . S
C1418 C1419 1.387 . S
C1419 H1404 0.930 . S
C1419 C1414 1.390 . S
C1419 C1418 1.387 . S
H1420 C1432 0.930 . S
H1421 C1434 0.930 . S
H1422 C1435 0.930 . S
H1423 C1439 0.959 . S
H1424 C1439 0.959 1_554 S
H1425 C1439 0.961 1_554 S
H1426 C1440 0.960 . S
H1427 C1440 0.961 . S
H1428 C1440 0.959 1_556 S
H1429 C1443 0.929 . S
H1430 C1444 0.931 . S
H1431 C1446 0.930 . S
C1432 H1420 0.930 . S
C1432 C1433 1.399 . S
C1432 C1437 1.399 . S
C1433 C1432 1.399 . S
C1433 C1434 1.376 . S
C1434 H1421 0.930 . S
C1434 C1433 1.376 . S
C1434 C1435 1.388 . S
C1435 H1422 0.930 . S
C1435 C1434 1.388 . S
C1435 C1436 1.390 . S
C1436 C1435 1.390 . S
C1436 C1437 1.394 . S
C1436 C1442 1.465 . S
C1437 C1432 1.399 . S
C1437 C1436 1.394 . S
C1437 C1438 1.516 . S
C1438 C1437 1.516 . S
C1438 C1439 1.502 . S
C1438 C1440 1.561 1_556 S
C1438 C1441 1.526 . S
C1439 H1423 0.959 . S
C1439 H1424 0.959 1_556 S
C1439 H1425 0.961 1_556 S
C1439 C1438 1.502 . S
C1440 H1426 0.960 . S
C1440 H1427 0.961 . S
C1440 H1428 0.959 1_554 S
C1440 C1438 1.561 1_554 S
C1441 C1438 1.526 . S
C1441 C1442 1.396 . S
C1441 C1446 1.390 . S
C1442 C1436 1.465 . S
C1442 C1441 1.396 . S
C1442 C1443 1.399 . S
C1443 H1429 0.929 . S
C1443 C1442 1.399 . S
C1443 C1444 1.385 . S
C1444 H1430 0.931 . S
C1444 C1443 1.385 . S
C1444 C1445 1.389 . S
C1445 C1444 1.389 . S
C1445 C1446 1.387 . S
C1446 H1431 0.930 . S
C1446 C1441 1.390 . S
C1446 C1445 1.387 . S
H1447 C1459 0.930 . S
H1448 C1461 0.930 . S
H1449 C1462 0.930 . S
H1450 C1466 0.959 . S
H1451 C1466 0.959 . S
H1452 C1466 0.961 . S
H1453 C1467 0.960 . S
H1454 C1467 0.961 . S
H1455 C1467 0.959 . S
H1456 C1470 0.929 . S
H1457 C1471 0.931 . S
H1458 C1473 0.930 . S
C1459 H1447 0.930 . S
C1459 C1460 1.399 . S
C1459 C1464 1.399 . S
C1460 C1459 1.399 . S
C1460 C1461 1.376 . S
C1461 H1448 0.930 . S
C1461 C1460 1.376 . S
C1461 C1462 1.388 . S
C1462 H1449 0.930 . S
C1462 C1461 1.388 . S
C1462 C1463 1.390 . S
C1463 C1462 1.390 . S
C1463 C1464 1.394 . S
C1463 C1469 1.465 . S
C1464 C1459 1.399 . S
C1464 C1463 1.394 . S
C1464 C1465 1.516 . S
C1465 C1464 1.516 . S
C1465 C1466 1.502 . S
C1465 C1467 1.561 . S
C1465 C1468 1.526 . S
C1466 H1450 0.959 . S
C1466 H1451 0.959 . S
C1466 H1452 0.961 . S
C1466 C1465 1.502 . S
C1467 H1453 0.960 . S
C1467 H1454 0.961 . S
C1467 H1455 0.959 . S
C1467 C1465 1.561 . S
C1468 C1465 1.526 . S
C1468 C1469 1.396 . S
C1468 C1473 1.390 . S
C1469 C1463 1.465 . S
C1469 C1468 1.396 . S
C1469 C1470 1.399 . S
C1470 H1456 0.929 . S
C1470 C1469 1.399 . S
C1470 C1471 1.385 . S
C1471 H1457 0.931 . S
C1471 C1470 1.385 . S
C1471 C1472 1.389 . S
C1472 C1471 1.389 . S
C1472 C1473 1.387 . S
C1473 H1458 0.930 . S
C1473 C1468 1.390 . S
C1473 C1472 1.387 . S
H1474 C1486 0.930 . S
H1475 C1488 0.930 . S
H1476 C1489 0.930 . S
H1477 C1493 0.959 . S
H1478 C1493 0.959 . S
H1479 C1493 0.961 . S
H1480 C1494 0.960 . S
H1481 C1494 0.961 . S
H1482 C1494 0.959 . S
H1483 C1497 0.929 . S
H1484 C1498 0.931 . S
H1485 C1500 0.930 . S
C1486 H1474 0.930 . S
C1486 C1487 1.399 . S
C1486 C1491 1.399 . S
C1487 C1486 1.399 . S
C1487 C1488 1.376 . S
C1488 H1475 0.930 . S
C1488 C1487 1.376 . S
C1488 C1489 1.388 . S
C1489 H1476 0.930 . S
C1489 C1488 1.388 . S
C1489 C1490 1.390 . S
C1490 C1489 1.390 . S
C1490 C1491 1.394 . S
C1490 C1496 1.465 . S
C1491 C1486 1.399 . S
C1491 C1490 1.394 . S
C1491 C1492 1.516 . S
C1492 C1491 1.516 . S
C1492 C1493 1.502 . S
C1492 C1494 1.561 . S
C1492 C1495 1.526 . S
C1493 H1477 0.959 . S
C1493 H1478 0.959 . S
C1493 H1479 0.961 . S
C1493 C1492 1.502 . S
C1494 H1480 0.960 . S
C1494 H1481 0.961 . S
C1494 H1482 0.959 . S
C1494 C1492 1.561 . S
C1495 C1492 1.526 . S
C1495 C1496 1.396 . S
C1495 C1500 1.390 . S
C1496 C1490 1.465 . S
C1496 C1495 1.396 . S
C1496 C1497 1.399 . S
C1497 H1483 0.929 . S
C1497 C1496 1.399 . S
C1497 C1498 1.385 . S
C1498 H1484 0.931 . S
C1498 C1497 1.385 . S
C1498 C1499 1.389 . S
C1499 C1498 1.389 . S
C1499 C1500 1.387 . S
C1500 H1485 0.930 . S
C1500 C1495 1.390 . S
C1500 C1499 1.387 . S
H1501 C1513 0.930 . S
H1502 C1515 0.930 . S
H1503 C1516 0.930 . S
H1504 C1520 0.962 . S
H1505 C1520 0.977 . S
H1506 C1520 0.942 1_655 S
H1507 C1521 0.960 1_655 S
H1508 C1521 0.961 . S
H1509 C1521 0.959 . S
H1510 C1524 0.929 . S
H1511 C1525 0.931 . S
H1512 C1527 0.930 . S
C1513 H1501 0.930 . S
C1513 C1514 1.399 . S
C1513 C1518 1.399 . S
C1514 C1513 1.399 . S
C1514 C1515 1.376 . S
C1515 H1502 0.930 . S
C1515 C1514 1.376 . S
C1515 C1516 1.388 . S
C1516 H1503 0.930 . S
C1516 C1515 1.388 . S
C1516 C1517 1.390 . S
C1517 C1516 1.390 . S
C1517 C1518 1.394 . S
C1517 C1523 1.465 1_655 S
C1518 C1513 1.399 . S
C1518 C1517 1.394 . S
C1518 C1519 1.519 1_655 S
C1519 C1518 1.519 1_455 S
C1519 C1520 1.502 . S
C1519 C1521 1.561 . S
C1519 C1522 1.523 . S
C1520 H1504 0.962 . S
C1520 H1505 0.977 . S
C1520 H1506 0.942 1_455 S
C1520 C1519 1.502 . S
C1521 H1507 0.960 1_455 S
C1521 H1508 0.961 . S
C1521 H1509 0.959 . S
C1521 C1519 1.561 . S
C1522 C1519 1.523 . S
C1522 C1523 1.396 . S
C1522 C1527 1.390 . S
C1523 C1517 1.465 1_455 S
C1523 C1522 1.396 . S
C1523 C1524 1.399 . S
C1524 H1510 0.929 . S
C1524 C1523 1.399 . S
C1524 C1525 1.385 . S
C1525 H1511 0.931 . S
C1525 C1524 1.385 . S
C1525 C1526 1.389 . S
C1526 C1525 1.389 . S
C1526 C1527 1.387 . S
C1527 H1512 0.930 . S
C1527 C1522 1.390 . S
C1527 C1526 1.387 . S
H1528 C1540 0.930 . S
H1529 C1542 0.930 . S
H1530 C1543 0.930 . S
H1531 C1547 0.959 . S
H1532 C1547 0.959 . S
H1533 C1547 0.961 . S
H1534 C1548 0.960 . S
H1535 C1548 0.961 . S
H1536 C1548 0.959 1_556 S
H1537 C1551 0.929 . S
H1538 C1552 0.931 . S
H1539 C1554 0.930 . S
C1540 H1528 0.930 . S
C1540 C1541 1.399 . S
C1540 C1545 1.399 . S
C1541 C1540 1.399 . S
C1541 C1542 1.376 . S
C1542 H1529 0.930 . S
C1542 C1541 1.376 . S
C1542 C1543 1.388 . S
C1543 H1530 0.930 . S
C1543 C1542 1.388 . S
C1543 C1544 1.390 . S
C1544 C1543 1.390 . S
C1544 C1545 1.394 . S
C1544 C1550 1.465 . S
C1545 C1540 1.399 . S
C1545 C1544 1.394 . S
C1545 C1546 1.516 . S
C1546 C1545 1.516 . S
C1546 C1547 1.502 . S
C1546 C1548 1.561 1_556 S
C1546 C1549 1.526 . S
C1547 H1531 0.959 . S
C1547 H1532 0.959 . S
C1547 H1533 0.961 . S
C1547 C1546 1.502 . S
C1548 H1534 0.960 . S
C1548 H1535 0.961 . S
C1548 H1536 0.959 1_554 S
C1548 C1546 1.561 1_554 S
C1549 C1546 1.526 . S
C1549 C1550 1.396 . S
C1549 C1554 1.390 . S
C1550 C1544 1.465 . S
C1550 C1549 1.396 . S
C1550 C1551 1.399 . S
C1551 H1537 0.929 . S
C1551 C1550 1.399 . S
C1551 C1552 1.385 . S
C1552 H1538 0.931 . S
C1552 C1551 1.385 . S
C1552 C1553 1.389 . S
C1553 C1552 1.389 . S
C1553 C1554 1.387 . S
C1554 H1539 0.930 . S
C1554 C1549 1.390 . S
C1554 C1553 1.387 . S
H1555 C1567 0.930 . S
H1556 C1569 0.930 . S
H1557 C1570 0.930 . S
H1558 C1574 0.959 . S
H1559 C1574 0.959 . S
H1560 C1574 0.961 . S
H1561 C1575 0.960 . S
H1562 C1575 0.961 . S
H1563 C1575 0.959 . S
H1564 C1578 0.929 . S
H1565 C1579 0.931 . S
H1566 C1581 0.930 . S
C1567 H1555 0.930 . S
C1567 C1568 1.399 . S
C1567 C1572 1.399 . S
C1568 C1567 1.399 . S
C1568 C1569 1.376 . S
C1569 H1556 0.930 . S
C1569 C1568 1.376 . S
C1569 C1570 1.388 . S
C1570 H1557 0.930 . S
C1570 C1569 1.388 . S
C1570 C1571 1.390 . S
C1571 C1570 1.390 . S
C1571 C1572 1.394 . S
C1571 C1577 1.465 . S
C1572 C1567 1.399 . S
C1572 C1571 1.394 . S
C1572 C1573 1.516 . S
C1573 C1572 1.516 . S
C1573 C1574 1.502 . S
C1573 C1575 1.561 . S
C1573 C1576 1.526 . S
C1574 H1558 0.959 . S
C1574 H1559 0.959 . S
C1574 H1560 0.961 . S
C1574 C1573 1.502 . S
C1575 H1561 0.960 . S
C1575 H1562 0.961 . S
C1575 H1563 0.959 . S
C1575 C1573 1.561 . S
C1576 C1573 1.526 . S
C1576 C1577 1.396 . S
C1576 C1581 1.390 . S
C1577 C1571 1.465 . S
C1577 C1576 1.396 . S
C1577 C1578 1.399 . S
C1578 H1564 0.929 . S
C1578 C1577 1.399 . S
C1578 C1579 1.385 . S
C1579 H1565 0.931 . S
C1579 C1578 1.385 . S
C1579 C1580 1.389 . S
C1580 C1579 1.389 . S
C1580 C1581 1.387 . S
C1581 H1566 0.930 . S
C1581 C1576 1.390 . S
C1581 C1580 1.387 . S
H1582 C1594 0.930 . S
H1583 C1596 0.930 . S
H1584 C1597 0.930 . S
H1585 C1601 0.959 . S
H1586 C1601 0.959 . S
H1587 C1601 0.961 . S
H1588 C1602 0.960 1_556 S
H1589 C1602 0.961 1_556 S
H1590 C1602 0.959 1_556 S
H1591 C1605 0.929 . S
H1592 C1606 0.931 . S
H1593 C1608 0.930 . S
C1594 H1582 0.930 . S
C1594 C1595 1.399 . S
C1594 C1599 1.399 . S
C1595 C1594 1.399 . S
C1595 C1596 1.376 . S
C1596 H1583 0.930 . S
C1596 C1595 1.376 . S
C1596 C1597 1.388 . S
C1597 H1584 0.930 . S
C1597 C1596 1.388 . S
C1597 C1598 1.390 . S
C1598 C1597 1.390 . S
C1598 C1599 1.394 . S
C1598 C1604 1.465 . S
C1599 C1594 1.399 . S
C1599 C1598 1.394 . S
C1599 C1600 1.516 . S
C1600 C1599 1.516 . S
C1600 C1601 1.502 . S
C1600 C1602 1.561 . S
C1600 C1603 1.526 . S
C1601 H1585 0.959 . S
C1601 H1586 0.959 . S
C1601 H1587 0.961 . S
C1601 C1600 1.502 . S
C1602 H1588 0.960 1_554 S
C1602 H1589 0.961 1_554 S
C1602 H1590 0.959 1_554 S
C1602 C1600 1.561 . S
C1603 C1600 1.526 . S
C1603 C1604 1.396 . S
C1603 C1608 1.390 . S
C1604 C1598 1.465 . S
C1604 C1603 1.396 . S
C1604 C1605 1.399 . S
C1605 H1591 0.929 . S
C1605 C1604 1.399 . S
C1605 C1606 1.385 . S
C1606 H1592 0.931 . S
C1606 C1605 1.385 . S
C1606 C1607 1.389 . S
C1607 C1606 1.389 . S
C1607 C1608 1.387 . S
C1608 H1593 0.930 . S
C1608 C1603 1.390 . S
C1608 C1607 1.387 . S
H1609 C1621 0.930 . S
H1610 C1623 0.930 . S
H1611 C1624 0.930 . S
H1612 C1628 0.959 . S
H1613 C1628 0.959 . S
H1614 C1628 0.961 . S
H1615 C1629 0.960 . S
H1616 C1629 0.961 . S
H1617 C1629 0.959 . S
H1618 C1632 0.929 . S
H1619 C1633 0.931 . S
H1620 C1635 0.930 . S
C1621 H1609 0.930 . S
C1621 C1622 1.399 . S
C1621 C1626 1.399 . S
C1622 C1621 1.399 . S
C1622 C1623 1.376 . S
C1623 H1610 0.930 . S
C1623 C1622 1.376 . S
C1623 C1624 1.388 . S
C1624 H1611 0.930 . S
C1624 C1623 1.388 . S
C1624 C1625 1.390 . S
C1625 C1624 1.390 . S
C1625 C1626 1.394 . S
C1625 C1631 1.465 . S
C1626 C1621 1.399 . S
C1626 C1625 1.394 . S
C1626 C1627 1.516 . S
C1627 C1626 1.516 . S
C1627 C1628 1.502 . S
C1627 C1629 1.561 . S
C1627 C1630 1.526 . S
C1628 H1612 0.959 . S
C1628 H1613 0.959 . S
C1628 H1614 0.961 . S
C1628 C1627 1.502 . S
C1629 H1615 0.960 . S
C1629 H1616 0.961 . S
C1629 H1617 0.959 . S
C1629 C1627 1.561 . S
C1630 C1627 1.526 . S
C1630 C1631 1.396 . S
C1630 C1635 1.390 . S
C1631 C1625 1.465 . S
C1631 C1630 1.396 . S
C1631 C1632 1.399 . S
C1632 H1618 0.929 . S
C1632 C1631 1.399 . S
C1632 C1633 1.385 . S
C1633 H1619 0.931 . S
C1633 C1632 1.385 . S
C1633 C1634 1.389 . S
C1634 C1633 1.389 . S
C1634 C1635 1.387 . S
C1635 H1620 0.930 . S
C1635 C1630 1.390 . S
C1635 C1634 1.387 . S
H1636 C1648 0.930 . S
H1637 C1650 0.930 . S
H1638 C1651 0.930 . S
H1639 C1655 0.959 . S
H1640 C1655 0.959 . S
H1641 C1655 0.961 . S
H1642 C1656 0.960 1_554 S
H1643 C1656 0.961 1_554 S
H1644 C1656 0.959 . S
H1645 C1659 0.929 . S
H1646 C1660 0.931 . S
H1647 C1662 0.930 . S
C1648 H1636 0.930 . S
C1648 C1649 1.399 . S
C1648 C1653 1.399 . S
C1649 C1648 1.399 . S
C1649 C1650 1.376 . S
C1650 H1637 0.930 . S
C1650 C1649 1.376 . S
C1650 C1651 1.388 . S
C1651 H1638 0.930 . S
C1651 C1650 1.388 . S
C1651 C1652 1.390 . S
C1652 C1651 1.390 . S
C1652 C1653 1.394 . S
C1652 C1658 1.465 . S
C1653 C1648 1.399 . S
C1653 C1652 1.394 . S
C1653 C1654 1.516 . S
C1654 C1653 1.516 . S
C1654 C1655 1.502 . S
C1654 C1656 1.561 . S
C1654 C1657 1.526 . S
C1655 H1639 0.959 . S
C1655 H1640 0.959 . S
C1655 H1641 0.961 . S
C1655 C1654 1.502 . S
C1656 H1642 0.960 1_556 S
C1656 H1643 0.961 1_556 S
C1656 H1644 0.959 . S
C1656 C1654 1.561 . S
C1657 C1654 1.526 . S
C1657 C1658 1.396 . S
C1657 C1662 1.390 . S
C1658 C1652 1.465 . S
C1658 C1657 1.396 . S
C1658 C1659 1.399 . S
C1659 H1645 0.929 . S
C1659 C1658 1.399 . S
C1659 C1660 1.385 . S
C1660 H1646 0.931 . S
C1660 C1659 1.385 . S
C1660 C1661 1.389 . S
C1661 C1660 1.389 . S
C1661 C1662 1.387 . S
C1662 H1647 0.930 . S
C1662 C1657 1.390 . S
C1662 C1661 1.387 . S
H1663 C1675 0.930 . S
H1664 C1677 0.930 . S
H1665 C1678 0.930 . S
H1666 C1682 0.962 . S
H1667 C1682 0.977 . S
H1668 C1682 0.942 1_655 S
H1669 C1683 0.960 1_655 S
H1670 C1683 0.961 . S
H1671 C1683 0.959 . S
H1672 C1686 0.929 . S
H1673 C1687 0.931 . S
H1674 C1689 0.930 . S
C1675 H1663 0.930 . S
C1675 C1676 1.399 . S
C1675 C1680 1.399 . S
C1676 C1675 1.399 . S
C1676 C1677 1.376 . S
C1677 H1664 0.930 . S
C1677 C1676 1.376 . S
C1677 C1678 1.388 . S
C1678 H1665 0.930 . S
C1678 C1677 1.388 . S
C1678 C1679 1.390 . S
C1679 C1678 1.390 . S
C1679 C1680 1.394 . S
C1679 C1685 1.465 1_655 S
C1680 C1675 1.399 . S
C1680 C1679 1.394 . S
C1680 C1681 1.519 1_655 S
C1681 C1680 1.519 1_455 S
C1681 C1682 1.502 . S
C1681 C1683 1.561 . S
C1681 C1684 1.523 . S
C1682 H1666 0.962 . S
C1682 H1667 0.977 . S
C1682 H1668 0.942 1_455 S
C1682 C1681 1.502 . S
C1683 H1669 0.960 1_455 S
C1683 H1670 0.961 . S
C1683 H1671 0.959 . S
C1683 C1681 1.561 . S
C1684 C1681 1.523 . S
C1684 C1685 1.396 . S
C1684 C1689 1.390 . S
C1685 C1679 1.465 1_455 S
C1685 C1684 1.396 . S
C1685 C1686 1.399 . S
C1686 H1672 0.929 . S
C1686 C1685 1.399 . S
C1686 C1687 1.385 . S
C1687 H1673 0.931 . S
C1687 C1686 1.385 . S
C1687 C1688 1.389 . S
C1688 C1687 1.389 . S
C1688 C1689 1.387 . S
C1689 H1674 0.930 . S
C1689 C1684 1.390 . S
C1689 C1688 1.387 . S
H1690 C1702 0.930 . S
H1691 C1704 0.930 . S
H1692 C1705 0.930 . S
H1693 C1709 0.962 . S
H1694 C1709 0.977 . S
H1695 C1709 0.942 1_655 S
H1696 C1710 0.960 1_655 S
H1697 C1710 0.961 . S
H1698 C1710 0.959 . S
H1699 C1713 0.929 . S
H1700 C1714 0.931 . S
H1701 C1716 0.930 . S
C1702 H1690 0.930 . S
C1702 C1703 1.399 . S
C1702 C1707 1.399 . S
C1703 C1702 1.399 . S
C1703 C1704 1.376 . S
C1704 H1691 0.930 . S
C1704 C1703 1.376 . S
C1704 C1705 1.388 . S
C1705 H1692 0.930 . S
C1705 C1704 1.388 . S
C1705 C1706 1.390 . S
C1706 C1705 1.390 . S
C1706 C1707 1.394 . S
C1706 C1712 1.465 1_655 S
C1707 C1702 1.399 . S
C1707 C1706 1.394 . S
C1707 C1708 1.519 1_655 S
C1708 C1707 1.519 1_455 S
C1708 C1709 1.502 . S
C1708 C1710 1.561 . S
C1708 C1711 1.523 . S
C1709 H1693 0.962 . S
C1709 H1694 0.977 . S
C1709 H1695 0.942 1_455 S
C1709 C1708 1.502 . S
C1710 H1696 0.960 1_455 S
C1710 H1697 0.961 . S
C1710 H1698 0.959 . S
C1710 C1708 1.561 . S
C1711 C1708 1.523 . S
C1711 C1712 1.396 . S
C1711 C1716 1.390 . S
C1712 C1706 1.465 1_455 S
C1712 C1711 1.396 . S
C1712 C1713 1.399 . S
C1713 H1699 0.929 . S
C1713 C1712 1.399 . S
C1713 C1714 1.385 . S
C1714 H1700 0.931 . S
C1714 C1713 1.385 . S
C1714 C1715 1.389 . S
C1715 C1714 1.389 . S
C1715 C1716 1.387 . S
C1716 H1701 0.930 . S
C1716 C1711 1.390 . S
C1716 C1715 1.387 . S
H1717 C1729 0.930 . S
H1718 C1731 0.930 . S
H1719 C1732 0.930 . S
H1720 C1736 0.959 . S
H1721 C1736 0.959 . S
H1722 C1736 0.961 . S
H1723 C1737 0.960 . S
H1724 C1737 0.961 . S
H1725 C1737 0.959 . S
H1726 C1740 0.929 . S
H1727 C1741 0.931 . S
H1728 C1743 0.930 . S
C1729 H1717 0.930 . S
C1729 C1730 1.399 . S
C1729 C1734 1.399 . S
C1730 C1729 1.399 . S
C1730 C1731 1.376 . S
C1731 H1718 0.930 . S
C1731 C1730 1.376 . S
C1731 C1732 1.388 . S
C1732 H1719 0.930 . S
C1732 C1731 1.388 . S
C1732 C1733 1.390 . S
C1733 C1732 1.390 . S
C1733 C1734 1.394 . S
C1733 C1739 1.465 . S
C1734 C1729 1.399 . S
C1734 C1733 1.394 . S
C1734 C1735 1.516 . S
C1735 C1734 1.516 . S
C1735 C1736 1.502 . S
C1735 C1737 1.561 . S
C1735 C1738 1.526 . S
C1736 H1720 0.959 . S
C1736 H1721 0.959 . S
C1736 H1722 0.961 . S
C1736 C1735 1.502 . S
C1737 H1723 0.960 . S
C1737 H1724 0.961 . S
C1737 H1725 0.959 . S
C1737 C1735 1.561 . S
C1738 C1735 1.526 . S
C1738 C1739 1.396 . S
C1738 C1743 1.390 . S
C1739 C1733 1.465 . S
C1739 C1738 1.396 . S
C1739 C1740 1.399 . S
C1740 H1726 0.929 . S
C1740 C1739 1.399 . S
C1740 C1741 1.385 . S
C1741 H1727 0.931 . S
C1741 C1740 1.385 . S
C1741 C1742 1.389 . S
C1742 C1741 1.389 . S
C1742 C1743 1.387 . S
C1743 H1728 0.930 . S
C1743 C1738 1.390 . S
C1743 C1742 1.387 . S
H1744 C1756 0.930 . S
H1745 C1758 0.930 . S
H1746 C1759 0.930 . S
H1747 C1763 0.959 . S
H1748 C1763 0.959 . S
H1749 C1763 0.961 . S
H1750 C1764 0.960 . S
H1751 C1764 0.961 . S
H1752 C1764 0.959 . S
H1753 C1767 0.929 . S
H1754 C1768 0.931 . S
H1755 C1770 0.930 . S
C1756 H1744 0.930 . S
C1756 C1757 1.399 . S
C1756 C1761 1.399 . S
C1757 C1756 1.399 . S
C1757 C1758 1.376 . S
C1758 H1745 0.930 . S
C1758 C1757 1.376 . S
C1758 C1759 1.388 . S
C1759 H1746 0.930 . S
C1759 C1758 1.388 . S
C1759 C1760 1.390 . S
C1760 C1759 1.390 . S
C1760 C1761 1.394 . S
C1760 C1766 1.465 . S
C1761 C1756 1.399 . S
C1761 C1760 1.394 . S
C1761 C1762 1.516 . S
C1762 C1761 1.516 . S
C1762 C1763 1.502 . S
C1762 C1764 1.561 . S
C1762 C1765 1.526 . S
C1763 H1747 0.959 . S
C1763 H1748 0.959 . S
C1763 H1749 0.961 . S
C1763 C1762 1.502 . S
C1764 H1750 0.960 . S
C1764 H1751 0.961 . S
C1764 H1752 0.959 . S
C1764 C1762 1.561 . S
C1765 C1762 1.526 . S
C1765 C1766 1.396 . S
C1765 C1770 1.390 . S
C1766 C1760 1.465 . S
C1766 C1765 1.396 . S
C1766 C1767 1.399 . S
C1767 H1753 0.929 . S
C1767 C1766 1.399 . S
C1767 C1768 1.385 . S
C1768 H1754 0.931 . S
C1768 C1767 1.385 . S
C1768 C1769 1.389 . S
C1769 C1768 1.389 . S
C1769 C1770 1.387 . S
C1770 H1755 0.930 . S
C1770 C1765 1.390 . S
C1770 C1769 1.387 . S
H1771 C1783 0.930 . S
H1772 C1785 0.930 . S
H1773 C1786 0.930 . S
H1774 C1790 0.959 . S
H1775 C1790 0.959 . S
H1776 C1790 0.961 . S
H1777 C1791 0.960 . S
H1778 C1791 0.961 . S
H1779 C1791 0.959 . S
H1780 C1794 0.929 . S
H1781 C1795 0.931 . S
H1782 C1797 0.930 . S
C1783 H1771 0.930 . S
C1783 C1784 1.399 . S
C1783 C1788 1.399 . S
C1784 C1783 1.399 . S
C1784 C1785 1.376 . S
C1785 H1772 0.930 . S
C1785 C1784 1.376 . S
C1785 C1786 1.388 . S
C1786 H1773 0.930 . S
C1786 C1785 1.388 . S
C1786 C1787 1.390 . S
C1787 C1786 1.390 . S
C1787 C1788 1.394 . S
C1787 C1793 1.465 . S
C1788 C1783 1.399 . S
C1788 C1787 1.394 . S
C1788 C1789 1.516 . S
C1789 C1788 1.516 . S
C1789 C1790 1.502 . S
C1789 C1791 1.561 . S
C1789 C1792 1.526 . S
C1790 H1774 0.959 . S
C1790 H1775 0.959 . S
C1790 H1776 0.961 . S
C1790 C1789 1.502 . S
C1791 H1777 0.960 . S
C1791 H1778 0.961 . S
C1791 H1779 0.959 . S
C1791 C1789 1.561 . S
C1792 C1789 1.526 . S
C1792 C1793 1.396 . S
C1792 C1797 1.390 . S
C1793 C1787 1.465 . S
C1793 C1792 1.396 . S
C1793 C1794 1.399 . S
C1794 H1780 0.929 . S
C1794 C1793 1.399 . S
C1794 C1795 1.385 . S
C1795 H1781 0.931 . S
C1795 C1794 1.385 . S
C1795 C1796 1.389 . S
C1796 C1795 1.389 . S
C1796 C1797 1.387 . S
C1797 H1782 0.930 . S
C1797 C1792 1.390 . S
C1797 C1796 1.387 . S
H1798 C1810 0.930 . S
H1799 C1812 0.930 . S
H1800 C1813 0.930 . S
H1801 C1817 0.959 . S
H1802 C1817 0.959 . S
H1803 C1817 0.961 . S
H1804 C1818 0.960 . S
H1805 C1818 0.961 . S
H1806 C1818 0.959 . S
H1807 C1821 0.929 . S
H1808 C1822 0.931 . S
H1809 C1824 0.930 . S
C1810 H1798 0.930 . S
C1810 C1811 1.399 . S
C1810 C1815 1.399 . S
C1811 C1810 1.399 . S
C1811 C1812 1.376 . S
C1812 H1799 0.930 . S
C1812 C1811 1.376 . S
C1812 C1813 1.388 . S
C1813 H1800 0.930 . S
C1813 C1812 1.388 . S
C1813 C1814 1.390 . S
C1814 C1813 1.390 . S
C1814 C1815 1.394 . S
C1814 C1820 1.465 . S
C1815 C1810 1.399 . S
C1815 C1814 1.394 . S
C1815 C1816 1.516 . S
C1816 C1815 1.516 . S
C1816 C1817 1.502 . S
C1816 C1818 1.561 . S
C1816 C1819 1.526 . S
C1817 H1801 0.959 . S
C1817 H1802 0.959 . S
C1817 H1803 0.961 . S
C1817 C1816 1.502 . S
C1818 H1804 0.960 . S
C1818 H1805 0.961 . S
C1818 H1806 0.959 . S
C1818 C1816 1.561 . S
C1819 C1816 1.526 . S
C1819 C1820 1.396 . S
C1819 C1824 1.390 . S
C1820 C1814 1.465 . S
C1820 C1819 1.396 . S
C1820 C1821 1.399 . S
C1821 H1807 0.929 . S
C1821 C1820 1.399 . S
C1821 C1822 1.385 . S
C1822 H1808 0.931 . S
C1822 C1821 1.385 . S
C1822 C1823 1.389 . S
C1823 C1822 1.389 . S
C1823 C1824 1.387 . S
C1824 H1809 0.930 . S
C1824 C1819 1.390 . S
C1824 C1823 1.387 . S
H1825 C1837 0.930 . S
H1826 C1839 0.930 . S
H1827 C1840 0.930 . S
H1828 C1844 0.959 . S
H1829 C1844 0.959 . S
H1830 C1844 0.961 . S
H1831 C1845 0.960 . S
H1832 C1845 0.961 . S
H1833 C1845 0.959 . S
H1834 C1848 0.929 . S
H1835 C1849 0.931 . S
H1836 C1851 0.930 . S
C1837 H1825 0.930 . S
C1837 C1838 1.399 . S
C1837 C1842 1.399 . S
C1838 C1837 1.399 . S
C1838 C1839 1.376 . S
C1839 H1826 0.930 . S
C1839 C1838 1.376 . S
C1839 C1840 1.388 . S
C1840 H1827 0.930 . S
C1840 C1839 1.388 . S
C1840 C1841 1.390 . S
C1841 C1840 1.390 . S
C1841 C1842 1.394 . S
C1841 C1847 1.465 . S
C1842 C1837 1.399 . S
C1842 C1841 1.394 . S
C1842 C1843 1.516 . S
C1843 C1842 1.516 . S
C1843 C1844 1.502 . S
C1843 C1845 1.561 . S
C1843 C1846 1.526 . S
C1844 H1828 0.959 . S
C1844 H1829 0.959 . S
C1844 H1830 0.961 . S
C1844 C1843 1.502 . S
C1845 H1831 0.960 . S
C1845 H1832 0.961 . S
C1845 H1833 0.959 . S
C1845 C1843 1.561 . S
C1846 C1843 1.526 . S
C1846 C1847 1.396 . S
C1846 C1851 1.390 . S
C1847 C1841 1.465 . S
C1847 C1846 1.396 . S
C1847 C1848 1.399 . S
C1848 H1834 0.929 . S
C1848 C1847 1.399 . S
C1848 C1849 1.385 . S
C1849 H1835 0.931 . S
C1849 C1848 1.385 . S
C1849 C1850 1.389 . S
C1850 C1849 1.389 . S
C1850 C1851 1.387 . S
C1851 H1836 0.930 . S
C1851 C1846 1.390 . S
C1851 C1850 1.387 . S
H1852 C1864 0.930 . S
H1853 C1866 0.930 . S
H1854 C1867 0.930 . S
H1855 C1871 0.959 . S
H1856 C1871 0.959 . S
H1857 C1871 0.961 . S
H1858 C1872 0.960 . S
H1859 C1872 0.961 . S
H1860 C1872 0.959 . S
H1861 C1875 0.929 . S
H1862 C1876 0.931 . S
H1863 C1878 0.930 . S
C1864 H1852 0.930 . S
C1864 C1865 1.399 . S
C1864 C1869 1.399 . S
C1865 C1864 1.399 . S
C1865 C1866 1.376 . S
C1866 H1853 0.930 . S
C1866 C1865 1.376 . S
C1866 C1867 1.388 . S
C1867 H1854 0.930 . S
C1867 C1866 1.388 . S
C1867 C1868 1.390 . S
C1868 C1867 1.390 . S
C1868 C1869 1.394 . S
C1868 C1874 1.465 . S
C1869 C1864 1.399 . S
C1869 C1868 1.394 . S
C1869 C1870 1.516 . S
C1870 C1869 1.516 . S
C1870 C1871 1.502 . S
C1870 C1872 1.561 . S
C1870 C1873 1.526 . S
C1871 H1855 0.959 . S
C1871 H1856 0.959 . S
C1871 H1857 0.961 . S
C1871 C1870 1.502 . S
C1872 H1858 0.960 . S
C1872 H1859 0.961 . S
C1872 H1860 0.959 . S
C1872 C1870 1.561 . S
C1873 C1870 1.526 . S
C1873 C1874 1.396 . S
C1873 C1878 1.390 . S
C1874 C1868 1.465 . S
C1874 C1873 1.396 . S
C1874 C1875 1.399 . S
C1875 H1861 0.929 . S
C1875 C1874 1.399 . S
C1875 C1876 1.385 . S
C1876 H1862 0.931 . S
C1876 C1875 1.385 . S
C1876 C1877 1.389 . S
C1877 C1876 1.389 . S
C1877 C1878 1.387 . S
C1878 H1863 0.930 . S
C1878 C1873 1.390 . S
C1878 C1877 1.387 . S
H1879 C1891 0.930 . S
H1880 C1893 0.930 . S
H1881 C1894 0.930 . S
H1882 C1898 0.959 . S
H1883 C1898 0.959 . S
H1884 C1898 0.961 . S
H1885 C1899 0.960 . S
H1886 C1899 0.961 . S
H1887 C1899 0.959 . S
H1888 C1902 0.929 . S
H1889 C1903 0.931 . S
H1890 C1905 0.930 . S
C1891 H1879 0.930 . S
C1891 C1892 1.399 . S
C1891 C1896 1.399 . S
C1892 C1891 1.399 . S
C1892 C1893 1.376 . S
C1893 H1880 0.930 . S
C1893 C1892 1.376 . S
C1893 C1894 1.388 . S
C1894 H1881 0.930 . S
C1894 C1893 1.388 . S
C1894 C1895 1.390 . S
C1895 C1894 1.390 . S
C1895 C1896 1.394 . S
C1895 C1901 1.465 . S
C1896 C1891 1.399 . S
C1896 C1895 1.394 . S
C1896 C1897 1.516 . S
C1897 C1896 1.516 . S
C1897 C1898 1.502 . S
C1897 C1899 1.561 . S
C1897 C1900 1.526 . S
C1898 H1882 0.959 . S
C1898 H1883 0.959 . S
C1898 H1884 0.961 . S
C1898 C1897 1.502 . S
C1899 H1885 0.960 . S
C1899 H1886 0.961 . S
C1899 H1887 0.959 . S
C1899 C1897 1.561 . S
C1900 C1897 1.526 . S
C1900 C1901 1.396 . S
C1900 C1905 1.390 . S
C1901 C1895 1.465 . S
C1901 C1900 1.396 . S
C1901 C1902 1.399 . S
C1902 H1888 0.929 . S
C1902 C1901 1.399 . S
C1902 C1903 1.385 . S
C1903 H1889 0.931 . S
C1903 C1902 1.385 . S
C1903 C1904 1.389 . S
C1904 C1903 1.389 . S
C1904 C1905 1.387 . S
C1905 H1890 0.930 . S
C1905 C1900 1.390 . S
C1905 C1904 1.387 . S
H1906 C1918 0.930 . S
H1907 C1920 0.930 . S
H1908 C1921 0.930 . S
H1909 C1925 0.959 . S
H1910 C1925 0.959 . S
H1911 C1925 0.961 . S
H1912 C1926 0.960 . S
H1913 C1926 0.961 . S
H1914 C1926 0.959 . S
H1915 C1929 0.929 . S
H1916 C1930 0.931 . S
H1917 C1932 0.930 . S
C1918 H1906 0.930 . S
C1918 C1919 1.399 . S
C1918 C1923 1.399 . S
C1919 C1918 1.399 . S
C1919 C1920 1.376 . S
C1920 H1907 0.930 . S
C1920 C1919 1.376 . S
C1920 C1921 1.388 . S
C1921 H1908 0.930 . S
C1921 C1920 1.388 . S
C1921 C1922 1.390 . S
C1922 C1921 1.390 . S
C1922 C1923 1.394 . S
C1922 C1928 1.465 . S
C1923 C1918 1.399 . S
C1923 C1922 1.394 . S
C1923 C1924 1.516 . S
C1924 C1923 1.516 . S
C1924 C1925 1.502 . S
C1924 C1926 1.561 . S
C1924 C1927 1.526 . S
C1925 H1909 0.959 . S
C1925 H1910 0.959 . S
C1925 H1911 0.961 . S
C1925 C1924 1.502 . S
C1926 H1912 0.960 . S
C1926 H1913 0.961 . S
C1926 H1914 0.959 . S
C1926 C1924 1.561 . S
C1927 C1924 1.526 . S
C1927 C1928 1.396 . S
C1927 C1932 1.390 . S
C1928 C1922 1.465 . S
C1928 C1927 1.396 . S
C1928 C1929 1.399 . S
C1929 H1915 0.929 . S
C1929 C1928 1.399 . S
C1929 C1930 1.385 1_554 S
C1930 H1916 0.931 . S
C1930 C1929 1.385 1_556 S
C1930 C1931 1.389 1_556 S
C1931 C1930 1.389 1_554 S
C1931 C1932 1.387 . S
C1932 H1917 0.930 . S
C1932 C1927 1.390 . S
C1932 C1931 1.387 . S
H1933 C1945 0.930 . S
H1934 C1947 0.930 . S
H1935 C1948 0.930 . S
H1936 C1952 0.959 . S
H1937 C1952 0.959 . S
H1938 C1952 0.961 . S
H1939 C1953 0.960 . S
H1940 C1953 0.961 . S
H1941 C1953 0.959 . S
H1942 C1956 0.929 . S
H1943 C1957 0.931 1_554 S
H1944 C1959 0.930 . S
C1945 H1933 0.930 . S
C1945 C1946 1.399 . S
C1945 C1950 1.399 . S
C1946 C1945 1.399 . S
C1946 C1947 1.376 . S
C1947 H1934 0.930 . S
C1947 C1946 1.376 . S
C1947 C1948 1.388 . S
C1948 H1935 0.930 . S
C1948 C1947 1.388 . S
C1948 C1949 1.390 . S
C1949 C1948 1.390 . S
C1949 C1950 1.394 . S
C1949 C1955 1.465 . S
C1950 C1945 1.399 . S
C1950 C1949 1.394 . S
C1950 C1951 1.516 . S
C1951 C1950 1.516 . S
C1951 C1952 1.502 . S
C1951 C1953 1.561 . S
C1951 C1954 1.526 . S
C1952 H1936 0.959 . S
C1952 H1937 0.959 . S
C1952 H1938 0.961 . S
C1952 C1951 1.502 . S
C1953 H1939 0.960 . S
C1953 H1940 0.961 . S
C1953 H1941 0.959 . S
C1953 C1951 1.561 . S
C1954 C1951 1.526 . S
C1954 C1955 1.396 . S
C1954 C1959 1.390 . S
C1955 C1949 1.465 . S
C1955 C1954 1.396 . S
C1955 C1956 1.399 . S
C1956 H1942 0.929 . S
C1956 C1955 1.399 . S
C1956 C1957 1.385 . S
C1957 H1943 0.931 1_556 S
C1957 C1956 1.385 . S
C1957 C1958 1.389 . S
C1958 C1957 1.389 . S
C1958 C1959 1.387 . S
C1959 H1944 0.930 . S
C1959 C1954 1.390 . S
C1959 C1958 1.387 . S
H1960 C1972 0.930 . S
H1961 C1974 0.930 . S
H1962 C1975 0.930 . S
H1963 C1979 0.959 . S
H1964 C1979 0.959 . S
H1965 C1979 0.961 . S
H1966 C1980 0.960 . S
H1967 C1980 0.961 . S
H1968 C1980 0.959 . S
H1969 C1983 0.929 . S
H1970 C1984 0.931 . S
H1971 C1986 0.930 . S
C1972 H1960 0.930 . S
C1972 C1973 1.399 . S
C1972 C1977 1.399 . S
C1973 C1972 1.399 . S
C1973 C1974 1.376 . S
C1974 H1961 0.930 . S
C1974 C1973 1.376 . S
C1974 C1975 1.388 . S
C1975 H1962 0.930 . S
C1975 C1974 1.388 . S
C1975 C1976 1.390 . S
C1976 C1975 1.390 . S
C1976 C1977 1.394 . S
C1976 C1982 1.465 . S
C1977 C1972 1.399 . S
C1977 C1976 1.394 . S
C1977 C1978 1.516 . S
C1978 C1977 1.516 . S
C1978 C1979 1.502 . S
C1978 C1980 1.561 . S
C1978 C1981 1.526 . S
C1979 H1963 0.959 . S
C1979 H1964 0.959 . S
C1979 H1965 0.961 . S
C1979 C1978 1.502 . S
C1980 H1966 0.960 . S
C1980 H1967 0.961 . S
C1980 H1968 0.959 . S
C1980 C1978 1.561 . S
C1981 C1978 1.526 . S
C1981 C1982 1.396 . S
C1981 C1986 1.390 . S
C1982 C1976 1.465 . S
C1982 C1981 1.396 . S
C1982 C1983 1.399 . S
C1983 H1969 0.929 . S
C1983 C1982 1.399 . S
C1983 C1984 1.385 . S
C1984 H1970 0.931 . S
C1984 C1983 1.385 . S
C1984 C1985 1.389 . S
C1985 C1984 1.389 . S
C1985 C1986 1.387 . S
C1986 H1971 0.930 . S
C1986 C1981 1.390 . S
C1986 C1985 1.387 . S
H1987 C1999 0.930 . S
H1988 C2001 0.930 . S
H1989 C2002 0.930 . S
H1990 C2006 0.959 . S
H1991 C2006 0.959 . S
H1992 C2006 0.961 . S
H1993 C2007 0.960 . S
H1994 C2007 0.961 . S
H1995 C2007 0.959 . S
H1996 C2010 0.929 . S
H1997 C2011 0.931 . S
H1998 C2013 0.930 1_556 S
C1999 H1987 0.930 . S
C1999 C2000 1.399 . S
C1999 C2004 1.399 . S
C2000 C1999 1.399 . S
C2000 C2001 1.376 . S
C2001 H1988 0.930 . S
C2001 C2000 1.376 . S
C2001 C2002 1.388 . S
C2002 H1989 0.930 . S
C2002 C2001 1.388 . S
C2002 C2003 1.390 . S
C2003 C2002 1.390 . S
C2003 C2004 1.394 . S
C2003 C2009 1.465 . S
C2004 C1999 1.399 . S
C2004 C2003 1.394 . S
C2004 C2005 1.516 . S
C2005 C2004 1.516 . S
C2005 C2006 1.502 . S
C2005 C2007 1.561 . S
C2005 C2008 1.526 . S
C2006 H1990 0.959 . S
C2006 H1991 0.959 . S
C2006 H1992 0.961 . S
C2006 C2005 1.502 . S
C2007 H1993 0.960 . S
C2007 H1994 0.961 . S
C2007 H1995 0.959 . S
C2007 C2005 1.561 . S
C2008 C2005 1.526 . S
C2008 C2009 1.396 . S
C2008 C2013 1.390 . S
C2009 C2003 1.465 . S
C2009 C2008 1.396 . S
C2009 C2010 1.399 . S
C2010 H1996 0.929 . S
C2010 C2009 1.399 . S
C2010 C2011 1.385 . S
C2011 H1997 0.931 . S
C2011 C2010 1.385 . S
C2011 C2012 1.389 . S
C2012 C2011 1.389 . S
C2012 C2013 1.387 . S
C2013 H1998 0.930 1_554 S
C2013 C2008 1.390 . S
C2013 C2012 1.387 . S
H2014 C2026 0.930 . S
H2015 C2028 0.930 . S
H2016 C2029 0.930 . S
H2017 C2033 0.959 . S
H2018 C2033 0.959 . S
H2019 C2033 0.961 . S
H2020 C2034 0.960 . S
H2021 C2034 0.961 . S
H2022 C2034 0.959 . S
H2023 C2037 0.929 . S
H2024 C2038 0.931 . S
H2025 C2040 0.930 . S
C2026 H2014 0.930 . S
C2026 C2027 1.399 . S
C2026 C2031 1.399 . S
C2027 C2026 1.399 . S
C2027 C2028 1.376 . S
C2028 H2015 0.930 . S
C2028 C2027 1.376 . S
C2028 C2029 1.388 . S
C2029 H2016 0.930 . S
C2029 C2028 1.388 . S
C2029 C2030 1.390 . S
C2030 C2029 1.390 . S
C2030 C2031 1.394 . S
C2030 C2036 1.465 . S
C2031 C2026 1.399 . S
C2031 C2030 1.394 . S
C2031 C2032 1.516 . S
C2032 C2031 1.516 . S
C2032 C2033 1.502 . S
C2032 C2034 1.561 . S
C2032 C2035 1.526 . S
C2033 H2017 0.959 . S
C2033 H2018 0.959 . S
C2033 H2019 0.961 . S
C2033 C2032 1.502 . S
C2034 H2020 0.960 . S
C2034 H2021 0.961 . S
C2034 H2022 0.959 . S
C2034 C2032 1.561 . S
C2035 C2032 1.526 . S
C2035 C2036 1.396 . S
C2035 C2040 1.390 . S
C2036 C2030 1.465 . S
C2036 C2035 1.396 . S
C2036 C2037 1.399 . S
C2037 H2023 0.929 . S
C2037 C2036 1.399 . S
C2037 C2038 1.385 . S
C2038 H2024 0.931 . S
C2038 C2037 1.385 . S
C2038 C2039 1.389 . S
C2039 C2038 1.389 . S
C2039 C2040 1.387 . S
C2040 H2025 0.930 . S
C2040 C2035 1.390 . S
C2040 C2039 1.387 . S
H2041 C2053 0.930 . S
H2042 C2055 0.930 . S
H2043 C2056 0.930 . S
H2044 C2060 0.959 . S
H2045 C2060 0.959 . S
H2046 C2060 0.961 . S
H2047 C2061 0.960 . S
H2048 C2061 0.961 . S
H2049 C2061 0.959 . S
H2050 C2064 0.929 . S
H2051 C2065 0.931 . S
H2052 C2067 0.930 . S
C2053 H2041 0.930 . S
C2053 C2054 1.399 . S
C2053 C2058 1.399 . S
C2054 C2053 1.399 . S
C2054 C2055 1.376 . S
C2055 H2042 0.930 . S
C2055 C2054 1.376 . S
C2055 C2056 1.388 . S
C2056 H2043 0.930 . S
C2056 C2055 1.388 . S
C2056 C2057 1.390 . S
C2057 C2056 1.390 . S
C2057 C2058 1.394 . S
C2057 C2063 1.465 . S
C2058 C2053 1.399 . S
C2058 C2057 1.394 . S
C2058 C2059 1.516 . S
C2059 C2058 1.516 . S
C2059 C2060 1.502 . S
C2059 C2061 1.561 . S
C2059 C2062 1.526 . S
C2060 H2044 0.959 . S
C2060 H2045 0.959 . S
C2060 H2046 0.961 . S
C2060 C2059 1.502 . S
C2061 H2047 0.960 . S
C2061 H2048 0.961 . S
C2061 H2049 0.959 . S
C2061 C2059 1.561 . S
C2062 C2059 1.526 . S
C2062 C2063 1.396 . S
C2062 C2067 1.390 . S
C2063 C2057 1.465 . S
C2063 C2062 1.396 . S
C2063 C2064 1.399 . S
C2064 H2050 0.929 . S
C2064 C2063 1.399 . S
C2064 C2065 1.385 . S
C2065 H2051 0.931 . S
C2065 C2064 1.385 . S
C2065 C2066 1.389 . S
C2066 C2065 1.389 . S
C2066 C2067 1.387 . S
C2067 H2052 0.930 . S
C2067 C2062 1.390 . S
C2067 C2066 1.387 . S
H2068 C2080 0.930 . S
H2069 C2082 0.930 . S
H2070 C2083 0.930 . S
H2071 C2087 0.959 . S
H2072 C2087 0.959 . S
H2073 C2087 0.961 . S
H2074 C2088 0.960 . S
H2075 C2088 0.961 . S
H2076 C2088 0.959 . S
H2077 C2091 0.929 . S
H2078 C2092 0.931 . S
H2079 C2094 0.930 . S
C2080 H2068 0.930 . S
C2080 C2081 1.399 . S
C2080 C2085 1.399 . S
C2081 C2080 1.399 . S
C2081 C2082 1.376 . S
C2082 H2069 0.930 . S
C2082 C2081 1.376 . S
C2082 C2083 1.388 . S
C2083 H2070 0.930 . S
C2083 C2082 1.388 . S
C2083 C2084 1.390 . S
C2084 C2083 1.390 . S
C2084 C2085 1.394 . S
C2084 C2090 1.465 . S
C2085 C2080 1.399 . S
C2085 C2084 1.394 . S
C2085 C2086 1.516 . S
C2086 C2085 1.516 . S
C2086 C2087 1.502 . S
C2086 C2088 1.561 . S
C2086 C2089 1.526 . S
C2087 H2071 0.959 . S
C2087 H2072 0.959 . S
C2087 H2073 0.961 . S
C2087 C2086 1.502 . S
C2088 H2074 0.960 . S
C2088 H2075 0.961 . S
C2088 H2076 0.959 . S
C2088 C2086 1.561 . S
C2089 C2086 1.526 . S
C2089 C2090 1.396 . S
C2089 C2094 1.390 . S
C2090 C2084 1.465 . S
C2090 C2089 1.396 . S
C2090 C2091 1.399 . S
C2091 H2077 0.929 . S
C2091 C2090 1.399 . S
C2091 C2092 1.385 . S
C2092 H2078 0.931 . S
C2092 C2091 1.385 . S
C2092 C2093 1.389 . S
C2093 C2092 1.389 . S
C2093 C2094 1.387 . S
C2094 H2079 0.930 . S
C2094 C2089 1.390 . S
C2094 C2093 1.387 . S
H2095 C2107 0.930 . S
H2096 C2109 0.930 . S
H2097 C2110 0.930 . S
H2098 C2114 0.959 . S
H2099 C2114 0.959 . S
H2100 C2114 0.961 . S
H2101 C2115 0.960 . S
H2102 C2115 0.961 . S
H2103 C2115 0.959 . S
H2104 C2118 0.929 . S
H2105 C2119 0.931 . S
H2106 C2121 0.930 . S
C2107 H2095 0.930 . S
C2107 C2108 1.399 . S
C2107 C2112 1.399 . S
C2108 C2107 1.399 . S
C2108 C2109 1.376 1_556 S
C2109 H2096 0.930 . S
C2109 C2108 1.376 1_554 S
C2109 C2110 1.388 1_554 S
C2110 H2097 0.930 . S
C2110 C2109 1.388 1_556 S
C2110 C2111 1.390 . S
C2111 C2110 1.390 . S
C2111 C2112 1.394 . S
C2111 C2117 1.465 . S
C2112 C2107 1.399 . S
C2112 C2111 1.394 . S
C2112 C2113 1.516 . S
C2113 C2112 1.516 . S
C2113 C2114 1.502 . S
C2113 C2115 1.561 . S
C2113 C2116 1.526 . S
C2114 H2098 0.959 . S
C2114 H2099 0.959 . S
C2114 H2100 0.961 . S
C2114 C2113 1.502 . S
C2115 H2101 0.960 . S
C2115 H2102 0.961 . S
C2115 H2103 0.959 . S
C2115 C2113 1.561 . S
C2116 C2113 1.526 . S
C2116 C2117 1.396 . S
C2116 C2121 1.390 . S
C2117 C2111 1.465 . S
C2117 C2116 1.396 . S
C2117 C2118 1.399 . S
C2118 H2104 0.929 . S
C2118 C2117 1.399 . S
C2118 C2119 1.385 . S
C2119 H2105 0.931 . S
C2119 C2118 1.385 . S
C2119 C2120 1.389 . S
C2120 C2119 1.389 . S
C2120 C2121 1.387 . S
C2121 H2106 0.930 . S
C2121 C2116 1.390 . S
C2121 C2120 1.387 . S
H2122 C2134 0.930 . S
H2123 C2136 0.930 . S
H2124 C2137 0.930 . S
H2125 C2141 0.959 . S
H2126 C2141 0.959 . S
H2127 C2141 0.961 . S
H2128 C2142 0.960 . S
H2129 C2142 0.961 . S
H2130 C2142 0.959 . S
H2131 C2145 0.929 . S
H2132 C2146 0.931 . S
H2133 C2148 0.930 . S
C2134 H2122 0.930 . S
C2134 C2135 1.399 . S
C2134 C2139 1.399 . S
C2135 C2134 1.399 . S
C2135 C2136 1.376 . S
C2136 H2123 0.930 . S
C2136 C2135 1.376 . S
C2136 C2137 1.388 . S
C2137 H2124 0.930 . S
C2137 C2136 1.388 . S
C2137 C2138 1.390 . S
C2138 C2137 1.390 . S
C2138 C2139 1.394 . S
C2138 C2144 1.465 . S
C2139 C2134 1.399 . S
C2139 C2138 1.394 . S
C2139 C2140 1.516 . S
C2140 C2139 1.516 . S
C2140 C2141 1.502 . S
C2140 C2142 1.561 . S
C2140 C2143 1.526 . S
C2141 H2125 0.959 . S
C2141 H2126 0.959 . S
C2141 H2127 0.961 . S
C2141 C2140 1.502 . S
C2142 H2128 0.960 . S
C2142 H2129 0.961 . S
C2142 H2130 0.959 . S
C2142 C2140 1.561 . S
C2143 C2140 1.526 . S
C2143 C2144 1.396 . S
C2143 C2148 1.390 . S
C2144 C2138 1.465 . S
C2144 C2143 1.396 . S
C2144 C2145 1.399 . S
C2145 H2131 0.929 . S
C2145 C2144 1.399 . S
C2145 C2146 1.385 . S
C2146 H2132 0.931 . S
C2146 C2145 1.385 . S
C2146 C2147 1.389 . S
C2147 C2146 1.389 . S
C2147 C2148 1.387 . S
C2148 H2133 0.930 . S
C2148 C2143 1.390 . S
C2148 C2147 1.387 . S
H2149 C2161 0.930 . S
H2150 C2163 0.930 . S
H2151 C2164 0.930 . S
H2152 C2168 0.959 . S
H2153 C2168 0.959 . S
H2154 C2168 0.961 . S
H2155 C2169 0.960 . S
H2156 C2169 0.961 . S
H2157 C2169 0.959 . S
H2158 C2172 0.929 . S
H2159 C2173 0.931 . S
H2160 C2175 0.930 . S
C2161 H2149 0.930 . S
C2161 C2162 1.399 . S
C2161 C2166 1.399 . S
C2162 C2161 1.399 . S
C2162 C2163 1.376 . S
C2163 H2150 0.930 . S
C2163 C2162 1.376 . S
C2163 C2164 1.388 . S
C2164 H2151 0.930 . S
C2164 C2163 1.388 . S
C2164 C2165 1.390 . S
C2165 C2164 1.390 . S
C2165 C2166 1.394 . S
C2165 C2171 1.465 . S
C2166 C2161 1.399 . S
C2166 C2165 1.394 . S
C2166 C2167 1.516 . S
C2167 C2166 1.516 . S
C2167 C2168 1.502 . S
C2167 C2169 1.561 . S
C2167 C2170 1.526 . S
C2168 H2152 0.959 . S
C2168 H2153 0.959 . S
C2168 H2154 0.961 . S
C2168 C2167 1.502 . S
C2169 H2155 0.960 . S
C2169 H2156 0.961 . S
C2169 H2157 0.959 . S
C2169 C2167 1.561 . S
C2170 C2167 1.526 . S
C2170 C2171 1.396 . S
C2170 C2175 1.390 . S
C2171 C2165 1.465 . S
C2171 C2170 1.396 . S
C2171 C2172 1.399 . S
C2172 H2158 0.929 . S
C2172 C2171 1.399 . S
C2172 C2173 1.385 . S
C2173 H2159 0.931 . S
C2173 C2172 1.385 . S
C2173 C2174 1.389 . S
C2174 C2173 1.389 . S
C2174 C2175 1.387 . S
C2175 H2160 0.930 . S
C2175 C2170 1.390 . S
C2175 C2174 1.387 . S
C461 C93 1.482 . S
C473 C9 1.504 . S
C488 C23 1.457 . S
C500 C107 1.483 . S
C515 C65 1.505 . S
C527 C37 1.470 . S
C542 C51 1.494 . S
C554 C79 1.497 . S
C569 C121 1.505 . S
C581 C205 1.491 . S
C596 C219 1.483 . S
C608 C135 1.505 . S
C623 C149 1.457 . S
C635 C177 1.478 . S
C650 C191 1.476 . S
C662 C163 1.457 . S
C677 C233 1.483 . S
C689 C317 1.503 . S
C704 C247 1.505 . S
C716 C331 1.473 . S
C731 C289 1.475 . S
C743 C261 1.505 . S
C758 C303 1.490 . S
C770 C275 1.500 . S
C785 C345 1.505 . S
C797 C429 1.493 . S
C812 C359 1.491 . S
C824 C443 1.505 . S
C839 C401 1.457 . S
C851 C373 1.470 . S
C866 C387 1.486 . S
C878 C415 1.505 . S
C893 C8 1.490 1_556 S
C905 C106 1.487 . S
C920 C64 1.491 1_554 S
C932 C22 1.490 . S
C947 C78 1.487 . S
C959 C36 1.490 . S
C974 C50 1.482 . S
C986 C92 1.486 . S
C1001 C120 1.491 1_554 S
C1013 C218 1.491 . S
C1028 C176 1.487 1_556 S
C1040 C134 1.487 . S
C1055 C190 1.478 . S
C1067 C148 1.478 . S
C1082 C204 1.478 . S
C1094 C162 1.478 . S
C1109 C232 1.478 . S
C1121 C330 1.479 . S
C1136 C246 1.484 . S
C1148 C288 1.481 . S
C1163 C302 1.479 . S
C1175 C260 1.478 1_556 S
C1190 C274 1.490 . S
C1202 C316 1.491 1_554 S
C1217 C344 1.491 . S
C1229 C442 1.491 . S
C1244 C400 1.479 . S
C1256 C358 1.479 . S
C1271 C372 1.484 1_554 S
C1283 C414 1.484 . S
C1298 C386 1.491 . S
C1310 C428 1.491 1_556 S
C1325 C423 1.485 . S
C1337 C3 1.484 . S
C1352 C213 1.485 . S
C1364 C17 1.484 . S
C1379 C31 1.476 . S
C1391 C395 1.479 . S
C1406 C45 1.480 . S
C1418 C185 1.478 . S
C1433 C59 1.479 . S
C1445 C367 1.477 . S
C1460 C73 1.485 . S
C1472 C157 1.484 . S
C1487 C87 1.479 . S
C1499 C339 1.477 . S
C1514 C129 1.470 . S
C1526 C101 1.472 . S
C1541 C311 1.480 . S
C1553 C115 1.478 . S
C1568 C143 1.470 . S
C1580 C283 1.471 . S
C1595 C255 1.484 . S
C1607 C171 1.482 . S
C1622 C227 1.484 . S
C1634 C199 1.485 . S
C1649 C241 1.475 . S
C1661 C437 1.478 . S
C1676 C269 1.480 . S
C1688 C409 1.478 . S
C1703 C297 1.475 . S
C1715 C381 1.478 . S
C1730 C353 1.472 . S
C1742 C325 1.474 . S
C1757 C7 1.389 . S
C1769 C105 1.457 . S
C1784 C21 1.404 . S
C1796 C63 1.407 . S
C1811 C77 1.437 1_556 S
C1823 C35 1.435 . S
C1838 C49 1.398 1_554 S
C1850 C91 1.413 . S
C1865 C217 1.436 . S
C1877 C119 1.414 . S
C1892 C175 1.421 . S
C1904 C133 1.413 . S
C1919 C147 1.388 . S
C1931 C189 1.447 1_554 S
C1946 C203 1.420 . S
C1958 C161 1.414 1_556 S
C1973 C329 1.393 1_556 S
C1985 C231 1.419 . S
C2000 C287 1.457 . S
C2012 C245 1.390 1_554 S
C2027 C301 1.456 . S
C2039 C259 1.407 . S
C2054 C315 1.394 . S
C2066 C273 1.458 . S
C2081 C343 1.415 . S
C2093 C441 1.435 1_554 S
C2108 C357 1.458 1_556 S
C2120 C399 1.384 . S
C2135 C371 1.419 . S
C2147 C413 1.431 . S
C2162 C427 1.442 . S
C2174 C385 1.407 . S
