# Generated by pormake.
# Topology uki, (4)-cn, num edge types: 1
# Building blocks:
#     Node 0, Type 0, BuildingBlock: MUDLON_clean_sbu_0, # of connection points: 4
#     Node 1, Type 0, BuildingBlock: MUDLON_clean_sbu_0, # of connection points: 4
#     Node 2, Type 0, BuildingBlock: MUDLON_clean_sbu_0, # of connection points: 4
#     Node 3, Type 0, BuildingBlock: MUDLON_clean_sbu_0, # of connection points: 4
#     Node 4, Type 0, BuildingBlock: MUDLON_clean_sbu_0, # of connection points: 4
#     Node 5, Type 0, BuildingBlock: MUDLON_clean_sbu_0, # of connection points: 4
#     Node 6, Type 0, BuildingBlock: MUDLON_clean_sbu_0, # of connection points: 4
#     Node 7, Type 0, BuildingBlock: MUDLON_clean_sbu_0, # of connection points: 4
#     Node 8, Type 0, BuildingBlock: MUDLON_clean_sbu_0, # of connection points: 4
#     Node 9, Type 0, BuildingBlock: MUDLON_clean_sbu_0, # of connection points: 4
#     Node 10, Type 0, BuildingBlock: MUDLON_clean_sbu_0, # of connection points: 4
#     Node 11, Type 0, BuildingBlock: MUDLON_clean_sbu_0, # of connection points: 4
#     Node 12, Type 0, BuildingBlock: MUDLON_clean_sbu_0, # of connection points: 4
#     Node 13, Type 0, BuildingBlock: MUDLON_clean_sbu_0, # of connection points: 4
#     Node 14, Type 0, BuildingBlock: MUDLON_clean_sbu_0, # of connection points: 4
#     Node 15, Type 0, BuildingBlock: MUDLON_clean_sbu_0, # of connection points: 4
#     Edge 16, Type (0, 0), BuildingBlock: AJUNOK_clean_linker_0, # of connection points: 2
#     Edge 17, Type (0, 0), BuildingBlock: AJUNOK_clean_linker_0, # of connection points: 2
#     Edge 18, Type (0, 0), BuildingBlock: AJUNOK_clean_linker_0, # of connection points: 2
#     Edge 19, Type (0, 0), BuildingBlock: AJUNOK_clean_linker_0, # of connection points: 2
#     Edge 20, Type (0, 0), BuildingBlock: AJUNOK_clean_linker_0, # of connection points: 2
#     Edge 21, Type (0, 0), BuildingBlock: AJUNOK_clean_linker_0, # of connection points: 2
#     Edge 22, Type (0, 0), BuildingBlock: AJUNOK_clean_linker_0, # of connection points: 2
#     Edge 23, Type (0, 0), BuildingBlock: AJUNOK_clean_linker_0, # of connection points: 2
#     Edge 24, Type (0, 0), BuildingBlock: AJUNOK_clean_linker_0, # of connection points: 2
#     Edge 25, Type (0, 0), BuildingBlock: AJUNOK_clean_linker_0, # of connection points: 2
#     Edge 26, Type (0, 0), BuildingBlock: AJUNOK_clean_linker_0, # of connection points: 2
#     Edge 27, Type (0, 0), BuildingBlock: AJUNOK_clean_linker_0, # of connection points: 2
#     Edge 28, Type (0, 0), BuildingBlock: AJUNOK_clean_linker_0, # of connection points: 2
#     Edge 29, Type (0, 0), BuildingBlock: AJUNOK_clean_linker_0, # of connection points: 2
#     Edge 30, Type (0, 0), BuildingBlock: AJUNOK_clean_linker_0, # of connection points: 2
#     Edge 31, Type (0, 0), BuildingBlock: AJUNOK_clean_linker_0, # of connection points: 2
#     Edge 32, Type (0, 0), BuildingBlock: AJUNOK_clean_linker_0, # of connection points: 2
#     Edge 33, Type (0, 0), BuildingBlock: AJUNOK_clean_linker_0, # of connection points: 2
#     Edge 34, Type (0, 0), BuildingBlock: AJUNOK_clean_linker_0, # of connection points: 2
#     Edge 35, Type (0, 0), BuildingBlock: AJUNOK_clean_linker_0, # of connection points: 2
#     Edge 36, Type (0, 0), BuildingBlock: AJUNOK_clean_linker_0, # of connection points: 2
#     Edge 37, Type (0, 0), BuildingBlock: AJUNOK_clean_linker_0, # of connection points: 2
#     Edge 38, Type (0, 0), BuildingBlock: AJUNOK_clean_linker_0, # of connection points: 2
#     Edge 39, Type (0, 0), BuildingBlock: AJUNOK_clean_linker_0, # of connection points: 2
#     Edge 40, Type (0, 0), BuildingBlock: AJUNOK_clean_linker_0, # of connection points: 2
#     Edge 41, Type (0, 0), BuildingBlock: AJUNOK_clean_linker_0, # of connection points: 2
#     Edge 42, Type (0, 0), BuildingBlock: AJUNOK_clean_linker_0, # of connection points: 2
#     Edge 43, Type (0, 0), BuildingBlock: AJUNOK_clean_linker_0, # of connection points: 2
#     Edge 44, Type (0, 0), BuildingBlock: AJUNOK_clean_linker_0, # of connection points: 2
#     Edge 45, Type (0, 0), BuildingBlock: AJUNOK_clean_linker_0, # of connection points: 2
#     Edge 46, Type (0, 0), BuildingBlock: AJUNOK_clean_linker_0, # of connection points: 2
#     Edge 47, Type (0, 0), BuildingBlock: AJUNOK_clean_linker_0, # of connection points: 2
# Relax obj value: 0.065
# Max RMSD: 0.232
# Mean RMSD: 0.232
data_MOF--net-uki--node1-MUDLON_clean_sbu_0--edge1-AJUNOK_clean_linker_0
_symmetry_space_group_name_H-M    P1
_symmetry_Int_Tables_number       1
_symmetry_cell_setting            triclinic
loop_
_symmetry_equiv_pos_as_xyz
'x, y, z'
_cell_length_a     24.11903
_cell_length_b     24.222232
_cell_length_c     54.031612
_cell_angle_alpha  89.86192
_cell_angle_beta   89.945267
_cell_angle_gamma 90.058311
loop_
_atom_site_label
_atom_site_type_symbol
_atom_site_fract_x
_atom_site_fract_y
_atom_site_fract_z
_atom_type_partial_charge
Mg0 Mg 0.09374 0.24238 0.31695 0.0
C1 C 0.97523 0.2633 0.30587 0.0
O2 O 0.98513 0.21744 0.29375 0.0
C3 C 0.18174 0.2096 0.35255 0.0
O4 O 0.18436 0.17027 0.33589 0.0
C5 C 0.14152 0.33932 0.29734 0.0
O6 O 0.11621 0.35115 0.31821 0.0
O7 O 0.13901 0.28993 0.28948 0.0
O8 O 1.01371 0.28362 0.31915 0.0
O9 O 0.07643 0.15591 0.30973 0.0
C10 C 0.05273 0.13325 0.32818 0.0
O11 O 0.0437 0.16324 0.34801 0.0
O12 O 0.14494 0.24689 0.35022 0.0
Mg13 Mg 0.24913 0.95113 0.71301 0.0
C14 C 0.27722 0.0735 0.71603 0.0
O15 O 0.22306 0.0779 0.7148 0.0
C16 C 0.2714 0.85781 0.67675 0.0
O17 O 0.29413 0.83626 0.69662 0.0
C18 C 0.31198 0.91866 0.75911 0.0
O19 O 0.31454 0.9726 0.76126 0.0
O20 O 0.28346 0.89821 0.74158 0.0
O21 O 0.29911 0.02604 0.71358 0.0
O22 O 0.16323 0.97309 0.71931 0.0
C23 C 0.14339 0.99385 0.73899 0.0
O24 O 0.17569 1.00001 0.75836 0.0
O25 O 0.25175 0.90651 0.67793 0.0
Mg26 Mg 0.94114 0.79804 0.3072 0.0
C27 C 0.05916 0.79393 0.29302 0.0
O28 O 0.04053 0.8385 0.28193 0.0
C29 C 0.8399 0.78249 0.33799 0.0
O30 O 0.81933 0.79237 0.31592 0.0
C31 C 0.9183 0.71343 0.26885 0.0
O32 O 0.96397 0.69506 0.27917 0.0
O33 O 0.89844 0.75916 0.27628 0.0
O34 O 0.02613 0.76701 0.30695 0.0
O35 O 0.95014 0.88701 0.30498 0.0
C36 C 0.97351 0.90644 0.32416 0.0
O37 O 0.98563 0.87236 0.34232 0.0
O38 O 0.89243 0.78078 0.3404 0.0
Mg39 Mg 0.80592 0.11052 0.71713 0.0
C40 C 0.79112 0.98617 0.72048 0.0
O41 O 0.845 0.98784 0.71705 0.0
C42 C 0.80319 0.20661 0.6831 0.0
O43 O 0.81544 0.22896 0.70454 0.0
C44 C 0.73609 0.1443 0.76124 0.0
O45 O 0.72864 0.09064 0.76258 0.0
O46 O 0.76963 0.16336 0.74519 0.0
O47 O 0.76371 0.03099 0.71943 0.0
O48 O 0.89385 0.09575 0.72163 0.0
C49 C 0.91732 0.07918 0.74134 0.0
O50 O 0.88822 0.07515 0.76183 0.0
O51 O 0.79575 0.15457 0.68219 0.0
Mg52 Mg 0.11038 0.29777 0.96719 0.0
C53 C 0.99703 0.26766 0.98251 0.0
O54 O 1.01073 0.30659 0.99826 0.0
C55 C 0.20909 0.29971 0.9338 0.0
O56 O 0.23198 0.30239 0.95581 0.0
C57 C 0.16588 0.20021 0.98369 0.0
O58 O 0.14842 0.19067 0.96106 0.0
O59 O 0.15661 0.24732 0.99313 0.0
O60 O 0.03098 0.25557 0.96534 0.0
O61 O 0.09443 0.38206 0.97871 0.0
C62 C 0.05679 0.40582 0.96616 0.0
O63 O 0.03379 0.37839 0.94788 0.0
O64 O 0.15641 0.29797 0.93238 0.0
Mg65 Mg 0.30195 0.91607 0.05752 0.0
C66 C 0.27369 1.01382 0.03114 0.0
O67 O 0.30636 0.98361 0.01717 0.0
C68 C 0.32597 0.83225 0.09492 0.0
O69 O 0.36569 0.82728 0.07842 0.0
C70 C 0.21316 0.87756 0.02555 0.0
O71 O 0.18981 0.91249 0.04091 0.0
O72 O 0.26467 0.86751 0.02796 0.0
O73 O 0.26247 0.99634 0.05282 0.0
O74 O 0.39036 0.93234 0.05333 0.0
C75 C 0.40686 0.98025 0.05961 0.0
O76 O 0.37071 1.01578 0.06828 0.0
O77 O 0.28978 0.86984 0.09178 0.0
Mg78 Mg 0.93028 0.73801 0.96154 0.0
C79 C 0.05463 0.76525 0.96301 0.0
O80 O 0.06056 0.7131 0.95702 0.0
C81 C 0.84543 0.70989 0.92468 0.0
O82 O 0.8408 0.67085 0.94147 0.0
C83 C 0.89896 0.79857 1.00833 0.0
O84 O 0.95315 0.80001 1.01069 0.0
O85 O 0.87808 0.7712 0.99057 0.0
O86 O 1.00621 0.78605 0.96331 0.0
O87 O 0.94962 0.65121 0.96592 0.0
C88 C 0.98086 0.63108 0.98259 0.0
O89 O 1.00079 0.66373 0.9998 0.0
O90 O 0.88228 0.74692 0.92765 0.0
Mg91 Mg 0.7487 0.09542 0.06272 0.0
C92 C 0.77142 0.98074 0.04661 0.0
O93 O 0.72887 0.99494 0.03285 0.0
C94 C 0.75041 0.19319 0.09548 0.0
O95 O 0.74006 0.21432 0.07356 0.0
C96 C 0.81952 0.1277 0.01798 0.0
O97 O 0.82381 0.07395 1.01565 0.0
O98 O 0.78816 0.14705 0.03479 0.0
O99 O 0.7904 1.01557 0.06205 0.0
O100 O 0.66103 0.0811 0.05611 0.0
C101 C 0.63919 0.03961 0.06684 0.0
O102 O 0.67012 1.00866 0.08127 0.0
O103 O 0.75646 0.14109 0.09729 0.0
Mg104 Mg 0.60414 0.75227 0.80637 0.0
C105 C 0.48635 0.7794 0.79771 0.0
O106 O 0.49241 0.73227 0.78603 0.0
C107 C 0.69076 0.71665 0.84202 0.0
O108 O 0.68852 0.67491 0.82658 0.0
C109 C 0.69501 0.80151 0.77394 0.0
O110 O 0.72709 0.78055 0.79119 0.0
O111 O 0.6433 0.79167 0.77471 0.0
O112 O 0.5271 0.79797 0.81009 0.0
O113 O 0.58166 0.66575 0.80191 0.0
C114 C 0.56082 0.64453 0.82137 0.0
O115 O 0.5553 0.67583 0.84104 0.0
O116 O 0.65938 0.75804 0.83828 0.0
Mg117 Mg 0.74473 0.43198 0.21694 0.0
C118 C 0.78163 0.55319 0.21808 0.0
O119 O 0.72841 0.56277 0.21527 0.0
C120 C 0.74938 0.33231 0.18371 0.0
O121 O 0.74261 0.30839 0.20535 0.0
C122 C 0.80268 0.39953 0.26437 0.0
O123 O 0.80771 0.45341 0.26602 0.0
O124 O 0.7744 0.37948 0.24668 0.0
O125 O 0.79894 0.50364 0.21757 0.0
O126 O 0.65941 0.45843 0.2213 0.0
C127 C 0.64174 0.48523 0.2399 0.0
O128 O 0.67571 0.49499 0.25839 0.0
O129 O 0.75223 0.38479 0.18279 0.0
Mg130 Mg 0.44157 0.30763 0.80925 0.0
C131 C 0.56152 0.28506 0.79887 0.0
O132 O 0.55584 0.33444 0.78912 0.0
C133 C 0.34341 0.3051 0.84368 0.0
O134 O 0.31892 0.3174 0.82267 0.0
C135 C 0.41391 0.23821 0.76449 0.0
O136 O 0.46769 0.23012 0.7655 0.0
O137 O 0.39185 0.27167 0.77971 0.0
O138 O 0.52015 0.26348 0.80988 0.0
O139 O 0.46013 0.39497 0.80485 0.0
C140 C 0.48405 0.41625 0.8235 0.0
O141 O 0.49361 0.38466 0.84283 0.0
O142 O 0.39565 0.29765 0.8437 0.0
Mg143 Mg 0.30253 0.60511 0.2201 0.0
C144 C 0.26629 0.5125 0.24746 0.0
O145 O 0.30491 0.53834 0.26005 0.0
C146 C 0.33054 0.67895 0.17817 0.0
O147 O 0.3777 0.67477 0.19017 0.0
C148 C 0.25532 0.70359 0.2472 0.0
O149 O 0.26747 0.72811 0.22617 0.0
O150 O 0.27164 0.65437 0.25065 0.0
O151 O 0.25509 0.52973 0.22577 0.0
O152 O 0.38885 0.58002 0.22227 0.0
C153 C 0.42148 0.58549 0.24054 0.0
O154 O 0.40406 0.6113 0.26044 0.0
O155 O 0.28903 0.65135 0.1859 0.0
Mg156 Mg 0.59914 0.79017 0.45898 0.0
C157 C 0.47314 0.77482 0.45823 0.0
O158 O 0.47406 0.82542 0.44944 0.0
C159 C 0.69632 0.78258 0.42515 0.0
O160 O 0.7195 0.79298 0.44664 0.0
C161 C 0.63052 0.72233 0.50417 0.0
O162 O 0.57638 0.7182 0.50604 0.0
O163 O 0.65085 0.75316 0.48737 0.0
O164 O 0.51875 0.74954 0.46155 0.0
O165 O 0.58656 0.87817 0.46377 0.0
C166 C 0.55358 0.89852 0.4797 0.0
O167 O 0.52865 0.86535 0.49546 0.0
O168 O 0.6437 0.77812 0.42422 0.0
Mg169 Mg 0.80245 0.43434 0.55681 0.0
C170 C 0.77098 0.54717 0.54112 0.0
O171 O 0.81322 0.53604 0.5266 0.0
C172 C 0.80543 0.33887 0.59249 0.0
O173 O 0.81117 0.31315 0.57126 0.0
C174 C 0.70912 0.37083 0.54057 0.0
O175 O 0.69817 0.38714 0.56323 0.0
O176 O 0.75534 0.3843 0.53096 0.0
O177 O 0.7571 0.51182 0.55743 0.0
O178 O 0.88766 0.45372 0.54672 0.0
C179 C 0.90949 0.49049 0.56039 0.0
O180 O 0.88 0.51002 0.57885 0.0
O181 O 0.80133 0.39129 0.59236 0.0
Mg182 Mg 0.41982 0.23071 0.47391 0.0
C183 C 0.5247 0.25387 0.49633 0.0
O184 O 0.49739 0.2198 0.51088 0.0
C185 C 0.34123 0.2016 0.43347 0.0
O186 O 0.34265 0.15588 0.44658 0.0
C187 C 0.38792 0.32205 0.50647 0.0
O188 O 0.42693 0.34289 0.49227 0.0
O189 O 0.37381 0.2719 0.50331 0.0
O190 O 0.5023 0.26762 0.4759 0.0
O191 O 0.43615 0.14346 0.48036 0.0
C192 C 0.47693 0.1253 0.46784 0.0
O193 O 0.50086 0.15884 0.45195 0.0
O194 O 0.37232 0.24162 0.43983 0.0
Mg195 Mg 0.24798 0.6147 0.55828 0.0
C196 C 0.26973 0.48951 0.56121 0.0
O197 O 0.21605 0.486 0.56493 0.0
C198 C 0.23598 0.71221 0.59215 0.0
O199 O 0.19432 0.72023 0.57692 0.0
C200 C 0.29276 0.69916 0.5203 0.0
O201 O 0.27496 0.73611 0.53617 0.0
O202 O 0.28254 0.64844 0.52426 0.0
O203 O 0.29241 0.53694 0.56058 0.0
O204 O 0.15937 0.59869 0.55749 0.0
C205 C 0.13486 0.56858 0.54165 0.0
O206 O 0.16365 0.54761 0.52328 0.0
O207 O 0.26635 0.66979 0.58912 0.0
C208 C 0.18229 0.38135 0.25866 0.0
C209 C 0.17387 0.38272 0.28446 0.0
C210 C 0.21126 0.42402 0.24646 0.0
C211 C 0.23372 0.46857 0.2598 0.0
H212 H 0.16571 0.34762 0.24781 0.0
H213 H 0.21688 0.42168 0.2266 0.0
S214 S 0.22332 0.49125 0.32762 0.0
N215 N 0.19047 0.43252 0.32281 0.0
N216 N 0.24484 0.51174 0.30012 0.0
C217 C 0.22564 0.47011 0.28558 0.0
C218 C 0.19577 0.42742 0.29785 0.0
C219 C 0.39391 0.79202 0.77779 0.0
C220 C 0.43672 0.81384 0.79253 0.0
C221 C 0.35163 0.82561 0.76844 0.0
C222 C 0.35024 0.88259 0.77341 0.0
H223 H 0.39427 0.74897 0.77239 0.0
H224 H 0.32138 0.80704 0.75621 0.0
S225 S 0.44727 0.95862 0.81448 0.0
N226 N 0.47123 0.8948 0.81422 0.0
N227 N 0.39161 0.95806 0.79673 0.0
C228 C 0.39016 0.90416 0.78981 0.0
C229 C 0.43341 0.8698 0.79935 0.0
C230 C 0.79678 0.6481 0.23522 0.0
C231 C 0.81914 0.59789 0.22669 0.0
C232 C 0.8298 0.68694 0.2476 0.0
C233 C 0.88646 0.67708 0.25193 0.0
H234 H 0.75284 0.6564 0.23349 0.0
H235 H 0.81003 0.72358 0.25492 0.0
S236 S 0.96723 0.5565 0.22961 0.0
N237 N 0.90303 0.54375 0.22074 0.0
N238 N 0.96496 0.6166 0.24389 0.0
C239 C 0.91018 0.62899 0.24186 0.0
C240 C 0.87658 0.58946 0.22927 0.0
C241 C 0.61073 0.19409 0.79725 0.0
C242 C 0.61144 0.2515 0.79316 0.0
C243 C 0.65311 0.1601 0.78819 0.0
C244 C 0.69797 0.18207 0.77465 0.0
H245 H 0.57586 0.17473 0.80646 0.0
H246 H 0.64908 0.11592 0.79082 0.0
S247 S 0.7242 0.33085 0.76246 0.0
N248 N 0.66442 0.32962 0.77735 0.0
N249 N 0.7439 0.26582 0.76031 0.0
C250 C 0.70135 0.23987 0.77207 0.0
C251 C 0.65813 0.2745 0.78131 0.0
C252 C 0.25042 0.07171 0.99465 0.0
C253 C 0.24797 0.06402 0.02045 0.0
C254 C 0.22472 0.11659 0.98323 0.0
C255 C 0.19601 0.15632 0.99709 0.0
H256 H 0.27137 0.04213 0.9829 0.0
H257 H 0.22711 0.11986 0.96326 0.0
S258 S 0.17915 0.15733 0.06532 0.0
N259 N 0.21569 0.10105 0.05973 0.0
N260 N 0.16778 0.18644 0.03811 0.0
C261 C 0.19442 0.15041 0.02299 0.0
C262 C 0.22016 0.10395 0.0347 0.0
C263 C 0.12847 0.8762 0.99945 0.0
C264 C 0.17854 0.85084 1.00638 0.0
C265 C 0.09058 0.84967 0.98396 0.0
C266 C 0.10076 0.79622 0.97487 0.0
H267 H 0.11751 0.91647 1.00664 0.0
H268 H 0.0518 0.87046 0.98006 0.0
S269 S 0.2288 0.71417 0.98533 0.0
N270 N 0.2389 0.77144 1.00124 0.0
N271 N 0.16737 0.72086 0.97218 0.0
C272 C 0.15236 0.77169 0.98037 0.0
C273 C 0.19131 0.79915 0.99611 0.0
C274 C 0.88918 0.87986 0.03659 0.0
C275 C 0.86395 0.83802 0.0224 0.0
C276 C 0.85834 0.92435 0.04585 0.0
C277 C 0.80117 0.92869 0.04122 0.0
H278 H 0.93364 0.88007 0.03943 0.0
H279 H 0.8801 0.9571 0.05541 0.0
S280 S 0.71332 0.82491 1.00943 0.0
N281 N 0.77681 0.79994 1.00739 0.0
N282 N 0.71911 0.88357 0.0247 0.0
C283 C 0.77467 0.88492 0.02889 0.0
C284 C 0.80596 0.83955 0.01954 0.0
C285 C 0.86306 0.22054 1.01223 0.0
C286 C 0.8587 0.16502 1.00482 0.0
C287 C 0.90624 0.25424 1.00372 0.0
C288 C 0.94665 0.23412 0.98727 0.0
H289 H 0.83461 0.23756 0.02572 0.0
H290 H 0.90911 0.29587 1.01091 0.0
S291 S 0.94962 0.09434 0.9593 0.0
N292 N 0.89519 0.09326 0.97785 0.0
N293 N 0.97629 0.15688 0.9618 0.0
C294 C 0.94049 0.18007 0.97819 0.0
C295 C 0.89656 0.14547 0.98699 0.0
C296 C 0.77517 0.84859 0.75341 0.0
C297 C 0.7175 0.84371 0.75661 0.0
C298 C 0.79834 0.89307 0.74035 0.0
C299 C 0.76482 0.93503 0.73024 0.0
H300 H 0.80293 0.81877 0.76177 0.0
H301 H 0.8431 0.89584 0.73929 0.0
S302 S 0.61099 0.93906 0.73123 0.0
N303 N 0.62699 0.88247 0.74672 0.0
N304 N 0.67065 0.96637 0.72251 0.0
C305 C 0.70693 0.92918 0.73214 0.0
C306 C 0.68324 0.88346 0.74521 0.0
C307 C 0.92421 0.35317 0.3037 0.0
C308 C 0.92475 0.2957 0.30001 0.0
C309 C 0.8822 0.3862 0.29355 0.0
C310 C 0.83912 0.36303 0.27934 0.0
H311 H 0.95819 0.37333 0.31317 0.0
H312 H 0.88549 0.43054 0.2957 0.0
S313 S 0.81573 0.21345 0.26854 0.0
N314 N 0.87421 0.21617 0.28433 0.0
N315 N 0.79537 0.2781 0.2653 0.0
C316 C 0.83658 0.30512 0.27743 0.0
C317 C 0.87938 0.27154 0.28774 0.0
C318 C 0.36959 0.11468 0.72627 0.0
C319 C 0.31166 0.12064 0.72468 0.0
C320 C 0.40253 0.15448 0.73798 0.0
C321 C 0.37896 0.20182 0.74879 0.0
H322 H 0.38967 0.07793 0.71924 0.0
H323 H 0.44659 0.14659 0.7395 0.0
S324 S 0.23022 0.24088 0.74701 0.0
N325 N 0.23274 0.18067 0.73281 0.0
N326 N 0.2947 0.25511 0.75499 0.0
C327 C 0.32154 0.21004 0.74605 0.0
C328 C 0.28793 0.16962 0.73394 0.0
C329 C 0.14993 0.80532 0.27147 0.0
C330 C 0.11458 0.77221 0.28604 0.0
C331 C 0.19768 0.78365 0.26044 0.0
C332 C 0.2124 0.72796 0.2636 0.0
H333 H 0.13939 0.84792 0.26752 0.0
H334 H 0.22177 0.81023 0.24838 0.0
S335 S 0.13806 0.62531 0.30272 0.0
N336 N 0.10072 0.68215 0.30511 0.0
N337 N 0.19077 0.64134 0.28455 0.0
C338 C 0.17991 0.69537 0.27974 0.0
C339 C 0.13093 0.71749 0.29092 0.0
C340 C 0.75769 0.63813 0.52032 0.0
C341 C 0.73657 0.5966 0.53595 0.0
C342 C 0.7239 0.68076 0.5115 0.0
C343 C 0.6673 0.68349 0.51777 0.0
H344 H 0.80033 0.63667 0.51401 0.0
H345 H 0.74188 0.71017 0.49866 0.0
S346 S 0.59329 0.58904 0.56089 0.0
N347 N 0.65688 0.56406 0.55948 0.0
N348 N 0.5931 0.64413 0.54284 0.0
C349 C 0.64652 0.64445 0.53481 0.0
C350 C 0.68119 0.60104 0.54392 0.0
C351 C 0.63514 0.30023 0.54131 0.0
C352 C 0.66777 0.33692 0.52742 0.0
C353 C 0.59073 0.27209 0.53063 0.0
C354 C 0.57621 0.28016 0.50564 0.0
H355 H 0.64332 0.2939 0.56084 0.0
H356 H 0.56645 0.24521 0.54249 0.0
S357 S 0.65081 0.36988 0.46084 0.0
N358 N 0.68503 0.37797 0.48707 0.0
N359 N 0.60028 0.32569 0.46687 0.0
C360 C 0.60975 0.31541 0.49122 0.0
C361 C 0.65589 0.34358 0.50213 0.0
C362 C 0.35724 0.44852 0.54485 0.0
C363 C 0.30155 0.44117 0.55196 0.0
C364 C 0.38542 0.40831 0.53127 0.0
C365 C 0.35944 0.35869 0.52435 0.0
H366 H 0.3787 0.48688 0.54868 0.0
H367 H 0.42744 0.41724 0.52537 0.0
S368 S 0.21695 0.3151 0.54139 0.0
N369 N 0.22336 0.37744 0.55336 0.0
N370 N 0.27685 0.30162 0.52787 0.0
C371 C 0.30533 0.34866 0.53296 0.0
C372 C 0.27628 0.38994 0.54676 0.0
C373 C 0.38087 0.78945 0.47831 0.0
C374 C 0.42185 0.75274 0.46978 0.0
C375 C 0.33752 0.77125 0.49364 0.0
C376 C 0.33289 0.71548 0.5007 0.0
H377 H 0.38399 0.83322 0.47438 0.0
H378 H 0.30862 0.80155 0.50074 0.0
S379 S 0.42574 0.60152 0.48073 0.0
N380 N 0.45234 0.65727 0.46768 0.0
N381 N 0.37052 0.62274 0.49605 0.0
C382 C 0.37141 0.67766 0.49083 0.0
C383 C 0.41598 0.69638 0.47551 0.0
C384 C 0.28313 0.15753 0.40082 0.0
C385 C 0.30204 0.20603 0.41236 0.0
C386 C 0.24429 0.15938 0.38158 0.0
C387 C 0.22174 0.20971 0.37338 0.0
H388 H 0.29863 0.11758 0.40661 0.0
H389 H 0.23136 0.12082 0.37324 0.0
S390 S 0.25733 0.34879 0.39724 0.0
N391 N 0.29565 0.30621 0.41393 0.0
N392 N 0.22162 0.30951 0.37802 0.0
C393 C 0.24003 0.25865 0.38475 0.0
C394 C 0.28051 0.25687 0.40411 0.0
C395 C 0.28159 0.73619 0.63245 0.0
C396 C 0.24663 0.75145 0.61277 0.0
C397 C 0.29021 0.77134 0.6527 0.0
C398 C 0.26465 0.82356 0.65407 0.0
H399 H 0.30169 0.6962 0.63253 0.0
H400 H 0.31669 0.757 0.66755 0.0
S401 S 0.17204 0.88495 0.60651 0.0
N402 N 0.18821 0.82365 0.59537 0.0
N403 N 0.20462 0.88968 0.63327 0.0
C404 C 0.23087 0.84007 0.63414 0.0
C405 C 0.22175 0.80407 0.61358 0.0
C406 C 0.78974 0.78174 0.40478 0.0
C407 C 0.73155 0.77871 0.40255 0.0
C408 C 0.8244 0.78133 0.38392 0.0
C409 C 0.80248 0.77816 0.35985 0.0
H410 H 0.80895 0.78522 0.42281 0.0
H411 H 0.86874 0.78486 0.38673 0.0
S412 S 0.65313 0.76577 0.34375 0.0
N413 N 0.65376 0.76972 0.37424 0.0
N414 N 0.71869 0.76902 0.33506 0.0
C415 C 0.74442 0.77357 0.35733 0.0
C416 C 0.70909 0.7738 0.37864 0.0
C417 C 0.80195 0.21649 0.63685 0.0
C418 C 0.80121 0.24131 0.66035 0.0
C419 C 0.8031 0.2484 0.61515 0.0
C420 C 0.8032 0.30658 0.61596 0.0
H421 H 0.80259 0.17193 0.63514 0.0
H422 H 0.80416 0.22704 0.59758 0.0
S423 S 0.79844 0.39215 0.67287 0.0
N424 N 0.79851 0.32792 0.68312 0.0
N425 N 0.80055 0.38769 0.64241 0.0
C426 C 0.80131 0.332 0.63934 0.0
C427 C 0.80036 0.29949 0.66148 0.0
C428 C 0.21993 0.30657 0.88767 0.0
C429 C 0.24421 0.29933 0.91112 0.0
C430 C 0.25229 0.3079 0.86608 0.0
C431 C 0.31038 0.30175 0.86694 0.0
H432 H 0.17551 0.31195 0.88593 0.0
H433 H 0.2314 0.31412 0.84857 0.0
S434 S 0.3944 0.27917 0.92365 0.0
N435 N 0.33007 0.28416 0.93382 0.0
N436 N 0.39066 0.2866 0.89333 0.0
C437 C 0.33516 0.29354 0.89024 0.0
C438 C 0.30221 0.29239 0.91227 0.0
C439 C 0.37512 0.73047 0.14353 0.0
C440 C 0.32662 0.71694 0.15667 0.0
C441 C 0.37412 0.76784 0.12375 0.0
C442 C 0.32475 0.79419 0.11649 0.0
H443 H 0.4144 0.71178 0.14846 0.0
H444 H 0.41269 0.77647 0.1142 0.0
S445 S 0.18622 0.77389 0.14505 0.0
N446 N 0.22756 0.73293 0.16109 0.0
N447 N 0.22586 0.80416 0.12406 0.0
C448 C 0.27585 0.78147 0.12955 0.0
C449 C 0.27671 0.74251 0.14954 0.0
C450 C 0.79315 0.76136 0.89168 0.0
C451 C 0.80692 0.71109 0.90329 0.0
C452 C 0.75456 0.76323 0.87219 0.0
C453 C 0.72944 0.71475 0.86328 0.0
H454 H 0.81156 0.79964 0.89797 0.0
H455 H 0.74505 0.80275 0.86379 0.0
S456 S 0.75139 0.57271 0.8872 0.0
N457 N 0.79199 0.61175 0.90443 0.0
N458 N 0.72064 0.61523 0.86765 0.0
C459 C 0.74314 0.66428 0.87461 0.0
C460 C 0.78156 0.66247 0.89465 0.0
C461 C 0.75116 0.20651 0.14155 0.0
C462 C 0.75274 0.22951 0.11764 0.0
C463 C 0.75064 0.24007 0.16269 0.0
C464 C 0.752 0.29815 0.16086 0.0
H465 H 0.74937 0.16213 0.14403 0.0
H466 H 0.74873 0.2201 0.18061 0.0
S467 S 0.75954 0.37922 0.10251 0.0
N468 N 0.75792 0.31427 0.09339 0.0
N469 N 0.75704 0.3771 0.13302 0.0
C470 C 0.75481 0.32171 0.13705 0.0
C471 C 0.75513 0.28753 0.1155 0.0
C472 C 1.00072 0.99553 0.30363 0.0
C473 C 0.99157 0.96485 0.32543 0.0
C474 C 1.02158 0.04968 0.30456 0.0
C475 C 0.03318 0.0753 0.32733 0.0
H476 H 0.99273 0.97728 0.2857 0.0
H477 H 0.02799 0.07179 0.28735 0.0
S478 S 1.01577 1.01297 0.38972 0.0
N479 N 0.99541 0.96433 0.37042 0.0
N480 N 0.03406 0.06577 0.37216 0.0
C481 C 0.02377 0.04517 0.34923 0.0
C482 C 1.00312 0.99005 0.34828 0.0
C483 C 1.0063 0.05228 0.7622 0.0
C484 C 0.97523 0.0586 0.74035 0.0
C485 C 0.06057 0.03131 0.76164 0.0
C486 C 0.08557 1.01504 0.73925 0.0
H487 H 0.98871 0.06387 0.77989 0.0
H488 H 0.08292 0.02757 0.77895 0.0
S489 S 1.02128 0.02202 0.6768 0.0
N490 N 0.97334 0.04623 0.69565 0.0
N491 N 0.07458 1.00657 0.6946 0.0
C492 C 0.05471 0.02085 0.71726 0.0
C493 C 0.99982 0.04272 0.71781 0.0
C494 C 0.99261 0.48468 0.95862 0.0
C495 C 0.03753 0.46257 0.97194 0.0
C496 C 0.97381 0.53841 0.9628 0.0
C497 C 0.99905 0.5727 0.98051 0.0
H498 H 0.97177 0.46053 0.94457 0.0
H499 H 0.93952 0.55334 0.95172 0.0
S500 S 0.11718 0.53431 0.0211 0.0
N501 N 0.10596 0.4787 1.00421 0.0
N502 N 0.07069 0.58007 1.01206 0.0
C503 C 0.04328 0.55085 0.99445 0.0
C504 C 0.06252 0.4958 0.99016 0.0
C505 C 0.50681 0.95524 0.06391 0.0
C506 C 0.46619 0.99525 0.05893 0.0
C507 C 0.5628 0.97001 0.06614 0.0
C508 C 0.58027 0.02508 0.06295 0.0
H509 H 0.49507 0.9126 0.06702 0.0
H510 H 0.59257 0.93803 0.07058 0.0
S511 S 0.49042 0.1445 0.0476 0.0
N512 N 0.44731 0.09167 0.0496 0.0
N513 N 0.5527 0.11919 0.05322 0.0
C514 C 0.5403 0.06504 0.05691 0.0
C515 C 0.48319 0.05018 0.05508 0.0
C516 C 0.50792 0.50382 0.8008 0.0
C517 C 0.50317 0.47457 0.82327 0.0
C518 C 0.52756 0.55846 0.8002 0.0
C519 C 0.54239 0.58614 0.82209 0.0
H520 H 0.49693 0.48424 0.78348 0.0
H521 H 0.53036 0.57939 0.78251 0.0
S522 S 0.5384 0.528 0.88573 0.0
N523 N 0.51559 0.47756 0.86796 0.0
N524 N 0.55201 0.57985 0.86682 0.0
C525 C 0.5379 0.55737 0.84466 0.0
C526 C 0.51845 0.50172 0.84525 0.0
C527 C 0.5657 0.53922 0.26035 0.0
C528 C 0.58496 0.50921 0.23978 0.0
C529 C 0.51311 0.564 0.26038 0.0
C530 C 0.47755 0.55994 0.23981 0.0
H531 H 0.59145 0.54389 0.27662 0.0
H532 H 0.50034 0.58646 0.27673 0.0
S533 S 0.50807 0.48603 0.18111 0.0
N534 N 0.56395 0.47683 0.19819 0.0
N535 N 0.46565 0.52339 0.19818 0.0
C536 C 0.4963 0.53001 0.21908 0.0
C537 C 0.54975 0.50464 0.21909 0.0
C538 C 0.46985 0.03061 0.48667 0.0
C539 C 0.49847 0.06836 0.47147 0.0
C540 C 0.48892 0.97632 0.48989 0.0
C541 C 0.53738 0.95756 0.47802 0.0
H542 H 0.43189 0.04273 0.4959 0.0
H543 H 0.46461 0.94852 0.50129 0.0
S544 S 0.63031 0.04124 0.43789 0.0
N545 N 0.57983 0.08381 0.44558 0.0
N546 N 0.61542 0.98218 0.45165 0.0
C547 C 0.56731 0.99535 0.46337 0.0
C548 C 0.54793 0.05056 0.46008 0.0
C549 C 0.99869 0.48973 0.53628 0.0
C550 C 0.96612 0.51229 0.55538 0.0
C551 C 0.05257 0.50913 0.53153 0.0
C552 C 0.07615 0.5519 0.54569 0.0
H553 H 0.98278 0.45634 0.52503 0.0
H554 H 0.07622 0.4896 0.51693 0.0
S555 S 1.00713 0.62749 0.59692 0.0
N556 N 0.96084 0.5816 0.58789 0.0
N557 N 0.06155 0.61794 0.57894 0.0
C558 C 0.04354 0.57572 0.56447 0.0
C559 C 0.98877 0.55595 0.56932 0.0
loop_
_geom_bond_atom_site_label_1
_geom_bond_atom_site_label_2
_geom_bond_distance
_geom_bond_site_symmetry_2
_ccdc_geom_bond_type
Mg0 O7 2.141 . S
Mg0 O8 2.048 . S
Mg0 O9 2.048 . S
Mg0 O12 2.141 . S
C1 O2 1.313 1_455 S
C1 O8 1.195 . S
O2 C1 1.313 1_655 S
C3 O4 1.245 . S
C3 O12 1.289 . S
O4 C3 1.245 . S
C5 O6 1.245 . S
C5 O7 1.289 . S
O6 C5 1.245 . S
O7 Mg0 2.141 . S
O7 C5 1.289 . S
O8 Mg0 2.048 . S
O8 C1 1.195 . S
O9 Mg0 2.048 . S
O9 C10 1.195 . S
C10 O9 1.195 . S
C10 O11 1.313 . S
O11 C10 1.313 . S
O12 Mg0 2.141 . S
O12 C3 1.289 . S
Mg13 O20 2.141 . S
Mg13 O21 2.048 . S
Mg13 O22 2.048 . S
Mg13 O25 2.141 . S
C14 O15 1.313 . S
C14 O21 1.195 . S
O15 C14 1.313 . S
C16 O17 1.245 . S
C16 O25 1.289 . S
O17 C16 1.245 . S
C18 O19 1.245 . S
C18 O20 1.289 . S
O19 C18 1.245 . S
O20 Mg13 2.141 . S
O20 C18 1.289 . S
O21 Mg13 2.048 . S
O21 C14 1.195 . S
O22 Mg13 2.048 . S
O22 C23 1.195 . S
C23 O22 1.195 . S
C23 O24 1.313 . S
O24 C23 1.313 . S
O25 Mg13 2.141 . S
O25 C16 1.289 . S
Mg26 O33 2.141 . S
Mg26 O34 2.048 . S
Mg26 O35 2.048 . S
Mg26 O38 2.141 . S
C27 O28 1.313 1_655 S
C27 O34 1.195 . S
O28 C27 1.313 1_455 S
C29 O30 1.245 . S
C29 O38 1.289 . S
O30 C29 1.245 . S
C31 O32 1.245 . S
C31 O33 1.289 . S
O32 C31 1.245 . S
O33 Mg26 2.141 . S
O33 C31 1.289 . S
O34 Mg26 2.048 . S
O34 C27 1.195 . S
O35 Mg26 2.048 . S
O35 C36 1.195 . S
C36 O35 1.195 . S
C36 O37 1.313 . S
O37 C36 1.313 . S
O38 Mg26 2.141 . S
O38 C29 1.289 . S
Mg39 O46 2.141 . S
Mg39 O47 2.048 . S
Mg39 O48 2.048 . S
Mg39 O51 2.141 . S
C40 O41 1.313 . S
C40 O47 1.195 . S
O41 C40 1.313 . S
C42 O43 1.245 . S
C42 O51 1.289 . S
O43 C42 1.245 . S
C44 O45 1.245 . S
C44 O46 1.289 . S
O45 C44 1.245 . S
O46 Mg39 2.141 . S
O46 C44 1.289 . S
O47 Mg39 2.048 . S
O47 C40 1.195 . S
O48 Mg39 2.048 . S
O48 C49 1.195 . S
C49 O48 1.195 . S
C49 O50 1.313 . S
O50 C49 1.313 . S
O51 Mg39 2.141 . S
O51 C42 1.289 . S
Mg52 O59 2.141 . S
Mg52 O60 2.048 . S
Mg52 O61 2.048 . S
Mg52 O64 2.141 . S
C53 O54 1.313 1_455 S
C53 O60 1.195 . S
O54 C53 1.313 1_655 S
C55 O56 1.245 . S
C55 O64 1.289 . S
O56 C55 1.245 . S
C57 O58 1.245 . S
C57 O59 1.289 . S
O58 C57 1.245 . S
O59 Mg52 2.141 . S
O59 C57 1.289 . S
O60 Mg52 2.048 . S
O60 C53 1.195 . S
O61 Mg52 2.048 . S
O61 C62 1.195 . S
C62 O61 1.195 . S
C62 O63 1.313 . S
O63 C62 1.313 . S
O64 Mg52 2.141 . S
O64 C55 1.289 . S
Mg65 O72 2.141 . S
Mg65 O73 2.048 . S
Mg65 O74 2.048 . S
Mg65 O77 2.141 . S
C66 O67 1.313 1_554 S
C66 O73 1.195 . S
O67 C66 1.313 1_556 S
C68 O69 1.245 . S
C68 O77 1.289 . S
O69 C68 1.245 . S
C70 O71 1.245 . S
C70 O72 1.289 . S
O71 C70 1.245 . S
O72 Mg65 2.141 . S
O72 C70 1.289 . S
O73 Mg65 2.048 . S
O73 C66 1.195 . S
O74 Mg65 2.048 . S
O74 C75 1.195 . S
C75 O74 1.195 . S
C75 O76 1.313 . S
O76 C75 1.313 . S
O77 Mg65 2.141 . S
O77 C68 1.289 . S
Mg78 O85 2.141 . S
Mg78 O86 2.048 . S
Mg78 O87 2.048 . S
Mg78 O90 2.141 . S
C79 O80 1.313 1_655 S
C79 O86 1.195 . S
O80 C79 1.313 1_455 S
C81 O82 1.245 . S
C81 O90 1.289 . S
O82 C81 1.245 . S
C83 O84 1.245 . S
C83 O85 1.289 . S
O84 C83 1.245 . S
O85 Mg78 2.141 . S
O85 C83 1.289 . S
O86 Mg78 2.048 . S
O86 C79 1.195 . S
O87 Mg78 2.048 . S
O87 C88 1.195 . S
C88 O87 1.195 . S
C88 O89 1.313 . S
O89 C88 1.313 . S
O90 Mg78 2.141 . S
O90 C81 1.289 . S
Mg91 O98 2.141 . S
Mg91 O99 2.048 . S
Mg91 O100 2.048 . S
Mg91 O103 2.141 . S
C92 O93 1.313 1_554 S
C92 O99 1.195 . S
O93 C92 1.313 1_556 S
C94 O95 1.245 . S
C94 O103 1.289 . S
O95 C94 1.245 . S
C96 O97 1.245 . S
C96 O98 1.289 . S
O97 C96 1.245 . S
O98 Mg91 2.141 . S
O98 C96 1.289 . S
O99 Mg91 2.048 . S
O99 C92 1.195 . S
O100 Mg91 2.048 . S
O100 C101 1.195 . S
C101 O100 1.195 . S
C101 O102 1.313 . S
O102 C101 1.313 . S
O103 Mg91 2.141 . S
O103 C94 1.289 . S
Mg104 O111 2.141 . S
Mg104 O112 2.048 . S
Mg104 O113 2.048 . S
Mg104 O116 2.141 . S
C105 O106 1.313 . S
C105 O112 1.195 . S
O106 C105 1.313 . S
C107 O108 1.245 . S
C107 O116 1.289 . S
O108 C107 1.245 . S
C109 O110 1.245 . S
C109 O111 1.289 . S
O110 C109 1.245 . S
O111 Mg104 2.141 . S
O111 C109 1.289 . S
O112 Mg104 2.048 . S
O112 C105 1.195 . S
O113 Mg104 2.048 . S
O113 C114 1.195 . S
C114 O113 1.195 . S
C114 O115 1.313 . S
O115 C114 1.313 . S
O116 Mg104 2.141 . S
O116 C107 1.289 . S
Mg117 O124 2.141 . S
Mg117 O125 2.048 . S
Mg117 O126 2.048 . S
Mg117 O129 2.141 . S
C118 O119 1.313 . S
C118 O125 1.195 . S
O119 C118 1.313 . S
C120 O121 1.245 . S
C120 O129 1.289 . S
O121 C120 1.245 . S
C122 O123 1.245 . S
C122 O124 1.289 . S
O123 C122 1.245 . S
O124 Mg117 2.141 . S
O124 C122 1.289 . S
O125 Mg117 2.048 . S
O125 C118 1.195 . S
O126 Mg117 2.048 . S
O126 C127 1.195 . S
C127 O126 1.195 . S
C127 O128 1.313 . S
O128 C127 1.313 . S
O129 Mg117 2.141 . S
O129 C120 1.289 . S
Mg130 O137 2.141 . S
Mg130 O138 2.048 . S
Mg130 O139 2.048 . S
Mg130 O142 2.141 . S
C131 O132 1.313 . S
C131 O138 1.195 . S
O132 C131 1.313 . S
C133 O134 1.245 . S
C133 O142 1.289 . S
O134 C133 1.245 . S
C135 O136 1.245 . S
C135 O137 1.289 . S
O136 C135 1.245 . S
O137 Mg130 2.141 . S
O137 C135 1.289 . S
O138 Mg130 2.048 . S
O138 C131 1.195 . S
O139 Mg130 2.048 . S
O139 C140 1.195 . S
C140 O139 1.195 . S
C140 O141 1.313 . S
O141 C140 1.313 . S
O142 Mg130 2.141 . S
O142 C133 1.289 . S
Mg143 O150 2.141 . S
Mg143 O151 2.048 . S
Mg143 O152 2.048 . S
Mg143 O155 2.141 . S
C144 O145 1.313 . S
C144 O151 1.195 . S
O145 C144 1.313 . S
C146 O147 1.245 . S
C146 O155 1.289 . S
O147 C146 1.245 . S
C148 O149 1.245 . S
C148 O150 1.289 . S
O149 C148 1.245 . S
O150 Mg143 2.141 . S
O150 C148 1.289 . S
O151 Mg143 2.048 . S
O151 C144 1.195 . S
O152 Mg143 2.048 . S
O152 C153 1.195 . S
C153 O152 1.195 . S
C153 O154 1.313 . S
O154 C153 1.313 . S
O155 Mg143 2.141 . S
O155 C146 1.289 . S
Mg156 O163 2.141 . S
Mg156 O164 2.048 . S
Mg156 O165 2.048 . S
Mg156 O168 2.141 . S
C157 O158 1.313 . S
C157 O164 1.195 . S
O158 C157 1.313 . S
C159 O160 1.245 . S
C159 O168 1.289 . S
O160 C159 1.245 . S
C161 O162 1.245 . S
C161 O163 1.289 . S
O162 C161 1.245 . S
O163 Mg156 2.141 . S
O163 C161 1.289 . S
O164 Mg156 2.048 . S
O164 C157 1.195 . S
O165 Mg156 2.048 . S
O165 C166 1.195 . S
C166 O165 1.195 . S
C166 O167 1.313 . S
O167 C166 1.313 . S
O168 Mg156 2.141 . S
O168 C159 1.289 . S
Mg169 O176 2.141 . S
Mg169 O177 2.048 . S
Mg169 O178 2.048 . S
Mg169 O181 2.141 . S
C170 O171 1.313 . S
C170 O177 1.195 . S
O171 C170 1.313 . S
C172 O173 1.245 . S
C172 O181 1.289 . S
O173 C172 1.245 . S
C174 O175 1.245 . S
C174 O176 1.289 . S
O175 C174 1.245 . S
O176 Mg169 2.141 . S
O176 C174 1.289 . S
O177 Mg169 2.048 . S
O177 C170 1.195 . S
O178 Mg169 2.048 . S
O178 C179 1.195 . S
C179 O178 1.195 . S
C179 O180 1.313 . S
O180 C179 1.313 . S
O181 Mg169 2.141 . S
O181 C172 1.289 . S
Mg182 O189 2.141 . S
Mg182 O190 2.048 . S
Mg182 O191 2.048 . S
Mg182 O194 2.141 . S
C183 O184 1.313 . S
C183 O190 1.195 . S
O184 C183 1.313 . S
C185 O186 1.245 . S
C185 O194 1.289 . S
O186 C185 1.245 . S
C187 O188 1.245 . S
C187 O189 1.289 . S
O188 C187 1.245 . S
O189 Mg182 2.141 . S
O189 C187 1.289 . S
O190 Mg182 2.048 . S
O190 C183 1.195 . S
O191 Mg182 2.048 . S
O191 C192 1.195 . S
C192 O191 1.195 . S
C192 O193 1.313 . S
O193 C192 1.313 . S
O194 Mg182 2.141 . S
O194 C185 1.289 . S
Mg195 O202 2.141 . S
Mg195 O203 2.048 . S
Mg195 O204 2.048 . S
Mg195 O207 2.141 . S
C196 O197 1.313 . S
C196 O203 1.195 . S
O197 C196 1.313 . S
C198 O199 1.245 . S
C198 O207 1.289 . S
O199 C198 1.245 . S
C200 O201 1.245 . S
C200 O202 1.289 . S
O201 C200 1.245 . S
O202 Mg195 2.141 . S
O202 C200 1.289 . S
O203 Mg195 2.048 . S
O203 C196 1.195 . S
O204 Mg195 2.048 . S
O204 C205 1.195 . S
C205 O204 1.195 . S
C205 O206 1.313 . S
O206 C205 1.313 . S
O207 Mg195 2.141 . S
O207 C198 1.289 . S
C208 C209 1.369 . S
C208 C210 1.419 . S
C208 H212 0.930 . S
C209 C208 1.369 . S
C209 C218 1.429 . S
C210 C208 1.419 . S
C210 C211 1.363 . S
C210 H213 0.929 . S
C211 C210 1.363 . S
C211 C217 1.428 . S
H212 C208 0.930 . S
H213 C210 0.929 . S
S214 N215 1.613 . S
S214 N216 1.610 . S
N215 S214 1.613 . S
N215 C218 1.350 . S
N216 S214 1.610 . S
N216 C217 1.351 . S
C217 C211 1.428 . S
C217 N216 1.351 . S
C217 C218 1.434 . S
C218 C209 1.429 . S
C218 N215 1.350 . S
C218 C217 1.434 . S
C219 C220 1.369 . S
C219 C221 1.419 . S
C219 H223 0.930 . S
C220 C219 1.369 . S
C220 C229 1.429 . S
C221 C219 1.419 . S
C221 C222 1.363 . S
C221 H224 0.929 . S
C222 C221 1.363 . S
C222 C228 1.428 . S
H223 C219 0.930 . S
H224 C221 0.929 . S
S225 N226 1.613 . S
S225 N227 1.610 . S
N226 S225 1.613 . S
N226 C229 1.350 . S
N227 S225 1.610 . S
N227 C228 1.351 . S
C228 C222 1.428 . S
C228 N227 1.351 . S
C228 C229 1.434 . S
C229 C220 1.429 . S
C229 N226 1.350 . S
C229 C228 1.434 . S
C230 C231 1.369 . S
C230 C232 1.419 . S
C230 H234 0.930 . S
C231 C230 1.369 . S
C231 C240 1.429 . S
C232 C230 1.419 . S
C232 C233 1.363 . S
C232 H235 0.929 . S
C233 C232 1.363 . S
C233 C239 1.428 . S
H234 C230 0.930 . S
H235 C232 0.929 . S
S236 N237 1.613 . S
S236 N238 1.610 . S
N237 S236 1.613 . S
N237 C240 1.350 . S
N238 S236 1.610 . S
N238 C239 1.351 . S
C239 C233 1.428 . S
C239 N238 1.351 . S
C239 C240 1.434 . S
C240 C231 1.429 . S
C240 N237 1.350 . S
C240 C239 1.434 . S
C241 C242 1.369 . S
C241 C243 1.419 . S
C241 H245 0.930 . S
C242 C241 1.369 . S
C242 C251 1.429 . S
C243 C241 1.419 . S
C243 C244 1.363 . S
C243 H246 0.929 . S
C244 C243 1.363 . S
C244 C250 1.428 . S
H245 C241 0.930 . S
H246 C243 0.929 . S
S247 N248 1.613 . S
S247 N249 1.610 . S
N248 S247 1.613 . S
N248 C251 1.350 . S
N249 S247 1.610 . S
N249 C250 1.351 . S
C250 C244 1.428 . S
C250 N249 1.351 . S
C250 C251 1.434 . S
C251 C242 1.429 . S
C251 N248 1.350 . S
C251 C250 1.434 . S
C252 C253 1.369 . S
C252 C254 1.419 . S
C252 H256 0.930 . S
C253 C252 1.369 . S
C253 C262 1.429 1_556 S
C254 C252 1.419 . S
C254 C255 1.363 . S
C254 H257 0.929 . S
C255 C254 1.363 . S
C255 C261 1.428 1_556 S
H256 C252 0.930 . S
H257 C254 0.929 . S
S258 N259 1.613 . S
S258 N260 1.610 . S
N259 S258 1.613 . S
N259 C262 1.350 . S
N260 S258 1.610 . S
N260 C261 1.351 . S
C261 C255 1.428 1_554 S
C261 N260 1.351 . S
C261 C262 1.434 . S
C262 C253 1.429 1_554 S
C262 N259 1.350 . S
C262 C261 1.434 . S
C263 C264 1.369 . S
C263 C265 1.419 . S
C263 H267 0.930 . S
C264 C263 1.369 . S
C264 C273 1.429 1_554 S
C265 C263 1.419 . S
C265 C266 1.363 . S
C265 H268 0.929 . S
C266 C265 1.363 . S
C266 C272 1.428 1_554 S
H267 C263 0.930 . S
H268 C265 0.929 . S
S269 N270 1.613 . S
S269 N271 1.610 . S
N270 S269 1.613 . S
N270 C273 1.350 . S
N271 S269 1.610 . S
N271 C272 1.351 . S
C272 C266 1.428 1_556 S
C272 N271 1.351 . S
C272 C273 1.434 . S
C273 C264 1.429 1_556 S
C273 N270 1.350 . S
C273 C272 1.434 . S
C274 C275 1.369 1_554 S
C274 C276 1.419 . S
C274 H278 0.930 . S
C275 C274 1.369 1_556 S
C275 C284 1.429 . S
C276 C274 1.419 . S
C276 C277 1.363 1_554 S
C276 H279 0.929 . S
C277 C276 1.363 1_556 S
C277 C283 1.428 . S
H278 C274 0.930 . S
H279 C276 0.929 . S
S280 N281 1.613 . S
S280 N282 1.610 . S
N281 S280 1.613 . S
N281 C284 1.350 . S
N282 S280 1.610 . S
N282 C283 1.351 . S
C283 C277 1.428 . S
C283 N282 1.351 . S
C283 C284 1.434 . S
C284 C275 1.429 . S
C284 N281 1.350 . S
C284 C283 1.434 . S
C285 C286 1.369 . S
C285 C287 1.419 . S
C285 H289 0.930 . S
C286 C285 1.369 . S
C286 C295 1.429 . S
C287 C285 1.419 . S
C287 C288 1.363 . S
C287 H290 0.929 . S
C288 C287 1.363 . S
C288 C294 1.428 . S
H289 C285 0.930 . S
H290 C287 0.929 . S
S291 N292 1.613 . S
S291 N293 1.610 1_654 S
N292 S291 1.613 . S
N292 C295 1.350 . S
N293 S291 1.610 1_456 S
N293 C294 1.351 1_456 S
C294 C288 1.428 . S
C294 N293 1.351 1_654 S
C294 C295 1.434 . S
C295 C286 1.429 . S
C295 N292 1.350 . S
C295 C294 1.434 . S
C296 C297 1.369 . S
C296 C298 1.419 . S
C296 H300 0.930 . S
C297 C296 1.369 . S
C297 C306 1.429 . S
C298 C296 1.419 . S
C298 C299 1.363 . S
C298 H301 0.929 . S
C299 C298 1.363 . S
C299 C305 1.428 . S
H300 C296 0.930 . S
H301 C298 0.929 . S
S302 N303 1.613 . S
S302 N304 1.610 . S
N303 S302 1.613 . S
N303 C306 1.350 . S
N304 S302 1.610 . S
N304 C305 1.351 . S
C305 C299 1.428 . S
C305 N304 1.351 . S
C305 C306 1.434 . S
C306 C297 1.429 . S
C306 N303 1.350 . S
C306 C305 1.434 . S
C307 C308 1.369 . S
C307 C309 1.419 . S
C307 H311 0.930 . S
C308 C307 1.369 . S
C308 C317 1.429 . S
C309 C307 1.419 . S
C309 C310 1.363 . S
C309 H312 0.929 . S
C310 C309 1.363 . S
C310 C316 1.428 . S
H311 C307 0.930 . S
H312 C309 0.929 . S
S313 N314 1.613 . S
S313 N315 1.610 . S
N314 S313 1.613 . S
N314 C317 1.350 . S
N315 S313 1.610 . S
N315 C316 1.351 . S
C316 C310 1.428 . S
C316 N315 1.351 . S
C316 C317 1.434 . S
C317 C308 1.429 . S
C317 N314 1.350 . S
C317 C316 1.434 . S
C318 C319 1.369 . S
C318 C320 1.419 . S
C318 H322 0.930 . S
C319 C318 1.369 . S
C319 C328 1.429 . S
C320 C318 1.419 . S
C320 C321 1.363 . S
C320 H323 0.929 . S
C321 C320 1.363 . S
C321 C327 1.428 . S
H322 C318 0.930 . S
H323 C320 0.929 . S
S324 N325 1.613 . S
S324 N326 1.610 . S
N325 S324 1.613 . S
N325 C328 1.350 . S
N326 S324 1.610 . S
N326 C327 1.351 . S
C327 C321 1.428 . S
C327 N326 1.351 . S
C327 C328 1.434 . S
C328 C319 1.429 . S
C328 N325 1.350 . S
C328 C327 1.434 . S
C329 C330 1.369 . S
C329 C331 1.419 . S
C329 H333 0.930 . S
C330 C329 1.369 . S
C330 C339 1.429 . S
C331 C329 1.419 . S
C331 C332 1.363 . S
C331 H334 0.929 . S
C332 C331 1.363 . S
C332 C338 1.428 . S
H333 C329 0.930 . S
H334 C331 0.929 . S
S335 N336 1.613 1_455 S
S335 N337 1.610 . S
N336 S335 1.613 1_655 S
N336 C339 1.350 1_655 S
N337 S335 1.610 . S
N337 C338 1.351 . S
C338 C332 1.428 . S
C338 N337 1.351 . S
C338 C339 1.434 . S
C339 C330 1.429 . S
C339 N336 1.350 1_455 S
C339 C338 1.434 . S
C340 C341 1.369 . S
C340 C342 1.419 . S
C340 H344 0.930 . S
C341 C340 1.369 . S
C341 C350 1.429 . S
C342 C340 1.419 . S
C342 C343 1.363 . S
C342 H345 0.929 . S
C343 C342 1.363 . S
C343 C349 1.428 . S
H344 C340 0.930 . S
H345 C342 0.929 . S
S346 N347 1.613 . S
S346 N348 1.610 . S
N347 S346 1.613 . S
N347 C350 1.350 . S
N348 S346 1.610 . S
N348 C349 1.351 . S
C349 C343 1.428 . S
C349 N348 1.351 . S
C349 C350 1.434 . S
C350 C341 1.429 . S
C350 N347 1.350 . S
C350 C349 1.434 . S
C351 C352 1.369 . S
C351 C353 1.419 . S
C351 H355 0.930 . S
C352 C351 1.369 . S
C352 C361 1.429 . S
C353 C351 1.419 . S
C353 C354 1.363 . S
C353 H356 0.929 . S
C354 C353 1.363 . S
C354 C360 1.428 . S
H355 C351 0.930 . S
H356 C353 0.929 . S
S357 N358 1.613 . S
S357 N359 1.610 . S
N358 S357 1.613 . S
N358 C361 1.350 . S
N359 S357 1.610 . S
N359 C360 1.351 . S
C360 C354 1.428 . S
C360 N359 1.351 . S
C360 C361 1.434 . S
C361 C352 1.429 . S
C361 N358 1.350 . S
C361 C360 1.434 . S
C362 C363 1.369 . S
C362 C364 1.419 . S
C362 H366 0.930 . S
C363 C362 1.369 . S
C363 C372 1.429 . S
C364 C362 1.419 . S
C364 C365 1.363 . S
C364 H367 0.929 . S
C365 C364 1.363 . S
C365 C371 1.428 . S
H366 C362 0.930 . S
H367 C364 0.929 . S
S368 N369 1.613 . S
S368 N370 1.610 . S
N369 S368 1.613 . S
N369 C372 1.350 . S
N370 S368 1.610 . S
N370 C371 1.351 . S
C371 C365 1.428 . S
C371 N370 1.351 . S
C371 C372 1.434 . S
C372 C363 1.429 . S
C372 N369 1.350 . S
C372 C371 1.434 . S
C373 C374 1.369 . S
C373 C375 1.419 . S
C373 H377 0.930 . S
C374 C373 1.369 . S
C374 C383 1.429 . S
C375 C373 1.419 . S
C375 C376 1.363 . S
C375 H378 0.929 . S
C376 C375 1.363 . S
C376 C382 1.428 . S
H377 C373 0.930 . S
H378 C375 0.929 . S
S379 N380 1.613 . S
S379 N381 1.610 . S
N380 S379 1.613 . S
N380 C383 1.350 . S
N381 S379 1.610 . S
N381 C382 1.351 . S
C382 C376 1.428 . S
C382 N381 1.351 . S
C382 C383 1.434 . S
C383 C374 1.429 . S
C383 N380 1.350 . S
C383 C382 1.434 . S
C384 C385 1.369 . S
C384 C386 1.419 . S
C384 H388 0.930 . S
C385 C384 1.369 . S
C385 C394 1.429 . S
C386 C384 1.419 . S
C386 C387 1.363 . S
C386 H389 0.929 . S
C387 C386 1.363 . S
C387 C393 1.428 . S
H388 C384 0.930 . S
H389 C386 0.929 . S
S390 N391 1.613 . S
S390 N392 1.610 . S
N391 S390 1.613 . S
N391 C394 1.350 . S
N392 S390 1.610 . S
N392 C393 1.351 . S
C393 C387 1.428 . S
C393 N392 1.351 . S
C393 C394 1.434 . S
C394 C385 1.429 . S
C394 N391 1.350 . S
C394 C393 1.434 . S
C395 C396 1.369 . S
C395 C397 1.419 . S
C395 H399 0.930 . S
C396 C395 1.369 . S
C396 C405 1.429 . S
C397 C395 1.419 . S
C397 C398 1.363 . S
C397 H400 0.929 . S
C398 C397 1.363 . S
C398 C404 1.428 . S
H399 C395 0.930 . S
H400 C397 0.929 . S
S401 N402 1.613 . S
S401 N403 1.610 . S
N402 S401 1.613 . S
N402 C405 1.350 . S
N403 S401 1.610 . S
N403 C404 1.351 . S
C404 C398 1.428 . S
C404 N403 1.351 . S
C404 C405 1.434 . S
C405 C396 1.429 . S
C405 N402 1.350 . S
C405 C404 1.434 . S
C406 C407 1.369 . S
C406 C408 1.419 . S
C406 H410 0.930 . S
C407 C406 1.369 . S
C407 C416 1.429 . S
C408 C406 1.419 . S
C408 C409 1.363 . S
C408 H411 0.929 . S
C409 C408 1.363 . S
C409 C415 1.428 . S
H410 C406 0.930 . S
H411 C408 0.929 . S
S412 N413 1.613 . S
S412 N414 1.610 . S
N413 S412 1.613 . S
N413 C416 1.350 . S
N414 S412 1.610 . S
N414 C415 1.351 . S
C415 C409 1.428 . S
C415 N414 1.351 . S
C415 C416 1.434 . S
C416 C407 1.429 . S
C416 N413 1.350 . S
C416 C415 1.434 . S
C417 C418 1.369 . S
C417 C419 1.419 . S
C417 H421 0.930 . S
C418 C417 1.369 . S
C418 C427 1.429 . S
C419 C417 1.419 . S
C419 C420 1.363 . S
C419 H422 0.929 . S
C420 C419 1.363 . S
C420 C426 1.428 . S
H421 C417 0.930 . S
H422 C419 0.929 . S
S423 N424 1.613 . S
S423 N425 1.610 . S
N424 S423 1.613 . S
N424 C427 1.350 . S
N425 S423 1.610 . S
N425 C426 1.351 . S
C426 C420 1.428 . S
C426 N425 1.351 . S
C426 C427 1.434 . S
C427 C418 1.429 . S
C427 N424 1.350 . S
C427 C426 1.434 . S
C428 C429 1.369 . S
C428 C430 1.419 . S
C428 H432 0.930 . S
C429 C428 1.369 . S
C429 C438 1.429 . S
C430 C428 1.419 . S
C430 C431 1.363 . S
C430 H433 0.929 . S
C431 C430 1.363 . S
C431 C437 1.428 . S
H432 C428 0.930 . S
H433 C430 0.929 . S
S434 N435 1.613 . S
S434 N436 1.610 . S
N435 S434 1.613 . S
N435 C438 1.350 . S
N436 S434 1.610 . S
N436 C437 1.351 . S
C437 C431 1.428 . S
C437 N436 1.351 . S
C437 C438 1.434 . S
C438 C429 1.429 . S
C438 N435 1.350 . S
C438 C437 1.434 . S
C439 C440 1.369 . S
C439 C441 1.419 . S
C439 H443 0.930 . S
C440 C439 1.369 . S
C440 C449 1.429 . S
C441 C439 1.419 . S
C441 C442 1.363 . S
C441 H444 0.929 . S
C442 C441 1.363 . S
C442 C448 1.428 . S
H443 C439 0.930 . S
H444 C441 0.929 . S
S445 N446 1.613 . S
S445 N447 1.610 . S
N446 S445 1.613 . S
N446 C449 1.350 . S
N447 S445 1.610 . S
N447 C448 1.351 . S
C448 C442 1.428 . S
C448 N447 1.351 . S
C448 C449 1.434 . S
C449 C440 1.429 . S
C449 N446 1.350 . S
C449 C448 1.434 . S
C450 C451 1.369 . S
C450 C452 1.419 . S
C450 H454 0.930 . S
C451 C450 1.369 . S
C451 C460 1.429 . S
C452 C450 1.419 . S
C452 C453 1.363 . S
C452 H455 0.929 . S
C453 C452 1.363 . S
C453 C459 1.428 . S
H454 C450 0.930 . S
H455 C452 0.929 . S
S456 N457 1.613 . S
S456 N458 1.610 . S
N457 S456 1.613 . S
N457 C460 1.350 . S
N458 S456 1.610 . S
N458 C459 1.351 . S
C459 C453 1.428 . S
C459 N458 1.351 . S
C459 C460 1.434 . S
C460 C451 1.429 . S
C460 N457 1.350 . S
C460 C459 1.434 . S
C461 C462 1.369 . S
C461 C463 1.419 . S
C461 H465 0.930 . S
C462 C461 1.369 . S
C462 C471 1.429 . S
C463 C461 1.419 . S
C463 C464 1.363 . S
C463 H466 0.929 . S
C464 C463 1.363 . S
C464 C470 1.428 . S
H465 C461 0.930 . S
H466 C463 0.929 . S
S467 N468 1.613 . S
S467 N469 1.610 . S
N468 S467 1.613 . S
N468 C471 1.350 . S
N469 S467 1.610 . S
N469 C470 1.351 . S
C470 C464 1.428 . S
C470 N469 1.351 . S
C470 C471 1.434 . S
C471 C462 1.429 . S
C471 N468 1.350 . S
C471 C470 1.434 . S
C472 C473 1.369 1_455 S
C472 C474 1.419 1_565 S
C472 H476 0.930 . S
C473 C472 1.369 1_655 S
C473 C482 1.429 . S
C474 C472 1.419 1_545 S
C474 C475 1.363 . S
C474 H477 0.929 . S
C475 C474 1.363 . S
C475 C481 1.428 1_455 S
H476 C472 0.930 . S
H477 C474 0.929 . S
S478 N479 1.613 1_545 S
S478 N480 1.610 . S
N479 S478 1.613 1_565 S
N479 C482 1.350 . S
N480 S478 1.610 . S
N480 C481 1.351 . S
C481 C475 1.428 1_655 S
C481 N480 1.351 . S
C481 C482 1.434 1_545 S
C482 C473 1.429 . S
C482 N479 1.350 . S
C482 C481 1.434 1_565 S
C483 C484 1.369 . S
C483 C485 1.419 1_645 S
C483 H487 0.930 . S
C484 C483 1.369 . S
C484 C493 1.429 . S
C485 C483 1.419 1_465 S
C485 C486 1.363 . S
C485 H488 0.929 . S
C486 C485 1.363 . S
C486 C492 1.428 . S
H487 C483 0.930 . S
H488 C485 0.929 . S
S489 N490 1.622 . S
S489 N491 1.610 1_655 S
N490 S489 1.622 . S
N490 C493 1.349 1_565 S
N491 S489 1.610 1_455 S
N491 C492 1.351 . S
C492 C486 1.428 . S
C492 N491 1.351 . S
C492 C493 1.434 1_465 S
C493 C484 1.429 . S
C493 N490 1.349 1_545 S
C493 C492 1.434 1_645 S
C494 C495 1.369 1_655 S
C494 C496 1.419 . S
C494 H498 0.930 . S
C495 C494 1.369 1_455 S
C495 C504 1.429 . S
C496 C494 1.419 . S
C496 C497 1.363 . S
C496 H499 0.929 . S
C497 C496 1.363 . S
C497 C503 1.428 1_655 S
H498 C494 0.930 . S
H499 C496 0.929 . S
S500 N501 1.613 . S
S500 N502 1.610 . S
N501 S500 1.613 . S
N501 C504 1.350 . S
N502 S500 1.610 . S
N502 C503 1.351 . S
C503 C497 1.428 1_455 S
C503 N502 1.351 . S
C503 C504 1.434 . S
C504 C495 1.429 . S
C504 N501 1.350 . S
C504 C503 1.434 . S
C505 C506 1.369 1_545 S
C505 C507 1.419 . S
C505 H509 0.930 . S
C506 C505 1.369 1_565 S
C506 C515 1.429 . S
C507 C505 1.419 . S
C507 C508 1.363 . S
C507 H510 0.929 . S
C508 C507 1.363 . S
C508 C514 1.428 1_545 S
H509 C505 0.930 . S
H510 C507 0.929 . S
S511 N512 1.613 . S
S511 N513 1.610 . S
N512 S511 1.613 . S
N512 C515 1.350 . S
N513 S511 1.610 . S
N513 C514 1.351 . S
C514 C508 1.428 1_565 S
C514 N513 1.351 . S
C514 C515 1.434 . S
C515 C506 1.429 . S
C515 N512 1.350 . S
C515 C514 1.434 . S
C516 C517 1.369 . S
C516 C518 1.419 . S
C516 H520 0.930 . S
C517 C516 1.369 . S
C517 C526 1.429 . S
C518 C516 1.419 . S
C518 C519 1.363 . S
C518 H521 0.929 . S
C519 C518 1.363 . S
C519 C525 1.428 . S
H520 C516 0.930 . S
H521 C518 0.929 . S
S522 N523 1.613 . S
S522 N524 1.610 . S
N523 S522 1.613 . S
N523 C526 1.350 . S
N524 S522 1.610 . S
N524 C525 1.351 . S
C525 C519 1.428 . S
C525 N524 1.351 . S
C525 C526 1.434 . S
C526 C517 1.429 . S
C526 N523 1.350 . S
C526 C525 1.434 . S
C527 C528 1.369 . S
C527 C529 1.419 . S
C527 H531 0.930 . S
C528 C527 1.369 . S
C528 C537 1.429 . S
C529 C527 1.419 . S
C529 C530 1.363 . S
C529 H532 0.929 . S
C530 C529 1.363 . S
C530 C536 1.428 . S
H531 C527 0.930 . S
H532 C529 0.929 . S
S533 N534 1.613 . S
S533 N535 1.610 . S
N534 S533 1.613 . S
N534 C537 1.350 . S
N535 S533 1.610 . S
N535 C536 1.351 . S
C536 C530 1.428 . S
C536 N535 1.351 . S
C536 C537 1.434 . S
C537 C528 1.429 . S
C537 N534 1.350 . S
C537 C536 1.434 . S
C538 C539 1.369 . S
C538 C540 1.419 1_545 S
C538 H542 0.930 . S
C539 C538 1.369 . S
C539 C548 1.429 . S
C540 C538 1.419 1_565 S
C540 C541 1.363 . S
C540 H543 0.929 . S
C541 C540 1.363 . S
C541 C547 1.428 . S
H542 C538 0.930 . S
H543 C540 0.929 . S
S544 N545 1.613 . S
S544 N546 1.610 1_545 S
N545 S544 1.613 . S
N545 C548 1.350 . S
N546 S544 1.610 1_565 S
N546 C547 1.351 . S
C547 C541 1.428 . S
C547 N546 1.351 . S
C547 C548 1.434 1_565 S
C548 C539 1.429 . S
C548 N545 1.350 . S
C548 C547 1.434 1_545 S
C549 C550 1.369 . S
C549 C551 1.419 1_655 S
C549 H553 0.930 . S
C550 C549 1.369 . S
C550 C559 1.429 . S
C551 C549 1.419 1_455 S
C551 C552 1.363 . S
C551 H554 0.929 . S
C552 C551 1.363 . S
C552 C558 1.428 . S
H553 C549 0.930 . S
H554 C551 0.929 . S
S555 N556 1.613 1_455 S
S555 N557 1.610 . S
N556 S555 1.613 1_655 S
N556 C559 1.350 . S
N557 S555 1.610 . S
N557 C558 1.351 . S
C558 C552 1.428 . S
C558 N557 1.351 . S
C558 C559 1.434 1_455 S
C559 C550 1.429 . S
C559 N556 1.350 . S
C559 C558 1.434 1_655 S
C209 C5 1.685 . S
C211 C144 1.676 . S
C220 C105 1.619 . S
C222 C18 1.648 . S
C231 C118 1.676 . S
C233 C31 1.686 . S
C242 C131 1.624 . S
C244 C44 1.647 . S
C253 C66 1.675 1_546 S
C255 C57 1.686 . S
C264 C70 1.648 . S
C266 C79 1.620 1_454 S
C275 C83 1.685 . S
C277 C92 1.677 1_566 S
C286 C96 1.652 . S
C288 C53 1.623 1_654 S
C297 C109 1.686 . S
C299 C40 1.675 1_565 S
C308 C1 1.625 1_655 S
C310 C122 1.647 . S
C319 C14 1.677 1_545 S
C321 C135 1.686 . S
C330 C27 1.620 1_455 S
C332 C148 1.650 . S
C341 C170 1.676 . S
C343 C161 1.686 . S
C352 C174 1.648 . S
C354 C183 1.620 . S
C363 C196 1.678 . S
C365 C187 1.685 . S
C374 C157 1.623 . S
C376 C200 1.652 . S
C385 C185 1.774 . S
C387 C3 1.774 . S
C396 C198 1.893 . S
C398 C16 1.890 . S
C407 C159 1.781 . S
C409 C29 1.776 . S
C418 C42 1.893 . S
C420 C172 1.891 . S
C429 C55 1.771 . S
C431 C133 1.777 . S
C440 C146 1.889 . S
C442 C68 1.890 . S
C451 C81 1.777 . S
C453 C107 1.779 . S
C462 C94 1.892 . S
C464 C120 1.889 . S
C473 C36 1.595 . S
C475 C10 1.594 . S
C484 C49 1.568 . S
C486 C23 1.567 . S
C495 C62 1.594 . S
C497 C88 1.592 . S
C506 C75 1.567 . S
C508 C101 1.567 . S
C517 C140 1.595 . S
C519 C114 1.593 . S
C528 C127 1.568 . S
C530 C153 1.567 . S
C539 C192 1.593 . S
C541 C166 1.594 . S
C550 C179 1.567 . S
C552 C205 1.567 . S
