# Generated by pormake.
# Topology npo, (4)-cn, num edge types: 1
# Building blocks:
#     Node 0, Type 0, BuildingBlock: GALJAG_clean_sbu_0, # of connection points: 4
#     Node 1, Type 0, BuildingBlock: GALJAG_clean_sbu_0, # of connection points: 4
#     Node 2, Type 0, BuildingBlock: GALJAG_clean_sbu_0, # of connection points: 4
#     Node 3, Type 0, BuildingBlock: GALJAG_clean_sbu_0, # of connection points: 4
#     Node 4, Type 0, BuildingBlock: GALJAG_clean_sbu_0, # of connection points: 4
#     Node 5, Type 0, BuildingBlock: GALJAG_clean_sbu_0, # of connection points: 4
#     Edge 6, Type (0, 0), BuildingBlock: ZUJKAS_clean_linker_0, # of connection points: 2
#     Edge 7, Type (0, 0), BuildingBlock: ZUJKAS_clean_linker_0, # of connection points: 2
#     Edge 8, Type (0, 0), BuildingBlock: ZUJKAS_clean_linker_0, # of connection points: 2
#     Edge 9, Type (0, 0), BuildingBlock: ZUJKAS_clean_linker_0, # of connection points: 2
#     Edge 10, Type (0, 0), BuildingBlock: ZUJKAS_clean_linker_0, # of connection points: 2
#     Edge 11, Type (0, 0), BuildingBlock: ZUJKAS_clean_linker_0, # of connection points: 2
#     Edge 12, Type (0, 0), BuildingBlock: ZUJKAS_clean_linker_0, # of connection points: 2
#     Edge 13, Type (0, 0), BuildingBlock: ZUJKAS_clean_linker_0, # of connection points: 2
#     Edge 14, Type (0, 0), BuildingBlock: ZUJKAS_clean_linker_0, # of connection points: 2
#     Edge 15, Type (0, 0), BuildingBlock: ZUJKAS_clean_linker_0, # of connection points: 2
#     Edge 16, Type (0, 0), BuildingBlock: ZUJKAS_clean_linker_0, # of connection points: 2
#     Edge 17, Type (0, 0), BuildingBlock: ZUJKAS_clean_linker_0, # of connection points: 2
# Relax obj value: 0.168
# Max RMSD: 0.202
# Mean RMSD: 0.202
data_MOF--net-npo--node1-GALJAG_clean_sbu_0--edge1-ZUJKAS_clean_linker_0
_symmetry_space_group_name_H-M    P1
_symmetry_Int_Tables_number       1
_symmetry_cell_setting            triclinic
loop_
_symmetry_equiv_pos_as_xyz
'x, y, z'
_cell_length_a     61.009183
_cell_length_b     61.215324
_cell_length_c     28.118533
_cell_angle_alpha  90.02936
_cell_angle_beta   90.027826
_cell_angle_gamma 120.05282
loop_
_atom_site_label
_atom_site_type_symbol
_atom_site_fract_x
_atom_site_fract_y
_atom_site_fract_z
_atom_type_partial_charge
In0 In 0.56325 0.11734 0.2406 0.0
O1 O 0.54429 0.09913 0.17112 0.0
O2 O 0.56604 0.08526 0.20529 0.0
C3 C 0.54708 0.1507 0.23093 0.0
C4 C 0.53597 0.085 0.31019 0.0
C5 C 0.61363 0.1492 0.24759 0.0
O6 O 0.55077 0.14016 0.19576 0.0
O7 O 0.55187 0.14465 0.27083 0.0
O8 O 0.59891 0.14349 0.28265 0.0
O9 O 0.60302 0.13847 0.20923 0.0
C10 C 0.55222 0.08366 0.17048 0.0
O11 O 0.55952 0.09379 0.30611 0.0
O12 O 0.52632 0.09248 0.27918 0.0
In13 In 0.44123 0.57167 0.74948 0.0
O14 O 0.43185 0.54527 0.68642 0.0
O15 O 0.47068 0.57087 0.701 0.0
C16 C 0.39156 0.55649 0.75184 0.0
C17 C 0.4558 0.55177 0.81935 0.0
C18 C 0.46108 0.62208 0.75142 0.0
O19 O 0.40477 0.56522 0.71475 0.0
O20 O 0.40348 0.55566 0.78782 0.0
O21 O 0.45119 0.60833 0.7874 0.0
O22 O 0.46121 0.61043 0.71453 0.0
C23 C 0.45462 0.55319 0.6753 0.0
O24 O 0.46864 0.57471 0.80772 0.0
O25 O 0.43557 0.53911 0.79622 0.0
In26 In 0.86306 0.43978 0.24265 0.0
O27 O 0.87846 0.44137 0.16848 0.0
O28 O 0.89508 0.47529 0.20873 0.0
C29 C 0.83179 0.38957 0.24725 0.0
C30 C 0.89557 0.44587 0.31281 0.0
C31 C 0.82974 0.45649 0.24108 0.0
O32 O 0.84612 0.40019 0.21218 0.0
O33 O 0.8332 0.4043 0.28004 0.0
O34 O 0.84492 0.46115 0.27513 0.0
O35 O 0.83162 0.44374 0.2078 0.0
C36 C 0.89489 0.46447 0.17046 0.0
O37 O 0.88337 0.4575 0.31216 0.0
O38 O 0.89139 0.43126 0.27808 0.0
In39 In 0.41726 0.86622 0.73476 0.0
O40 O 0.41865 0.88375 0.80694 0.0
O41 O 0.45336 0.896 0.77022 0.0
C42 C 0.36758 0.83162 0.73113 0.0
C43 C 0.42262 0.89737 0.66258 0.0
C44 C 0.43875 0.83725 0.73957 0.0
O45 O 0.37675 0.84847 0.76282 0.0
O46 O 0.3834 0.83243 0.70136 0.0
O47 O 0.44292 0.85239 0.70576 0.0
O48 O 0.42367 0.8367 0.77093 0.0
C49 C 0.44241 0.89782 0.80675 0.0
O50 O 0.42961 0.88122 0.65988 0.0
O51 O 0.41268 0.8977 0.70165 0.0
In52 In 0.53914 0.41312 0.25048 0.0
O53 O 0.54591 0.43079 0.17684 0.0
O54 O 0.51205 0.42267 0.21285 0.0
C55 C 0.58921 0.43068 0.25772 0.0
C56 C 0.52602 0.42956 0.32829 0.0
C57 C 0.51842 0.36297 0.2388 0.0
O58 O 0.58035 0.44412 0.2427 0.0
O59 O 0.57281 0.40847 0.26919 0.0
O60 O 0.52236 0.37319 0.27925 0.0
O61 O 0.52454 0.37803 0.20423 0.0
C62 C 0.52566 0.43159 0.17635 0.0
O63 O 0.51017 0.41076 0.30456 0.0
O64 O 0.54846 0.43964 0.31336 0.0
In65 In 0.11509 0.54451 0.74415 0.0
O66 O 0.09294 0.52475 0.81115 0.0
O67 O 0.09031 0.55591 0.78501 0.0
C68 C 0.14715 0.5264 0.74364 0.0
C69 C 0.08362 0.52089 0.67085 0.0
C70 C 0.14799 0.59447 0.74693 0.0
O71 O 0.13509 0.52607 0.78036 0.0
O72 O 0.14259 0.53538 0.70703 0.0
O73 O 0.12886 0.58491 0.72001 0.0
O74 O 0.15048 0.57885 0.77224 0.0
C75 C 0.08372 0.53902 0.81621 0.0
O76 O 0.10148 0.54343 0.66848 0.0
O77 O 0.08181 0.51013 0.71006 0.0
H78 H 0.53319 0.16473 0.14932 0.0
H79 H 0.51902 0.19559 0.14122 0.0
H80 H 0.52615 0.20806 0.29283 0.0
H81 H 0.53993 0.17701 0.30134 0.0
H82 H 0.48112 0.2039 0.25217 0.0
H83 H 0.56886 0.27185 0.15562 0.0
H84 H 0.55114 0.24072 0.13065 0.0
H85 H 0.5663 0.24508 0.18739 0.0
C86 C 0.53165 0.174 0.18091 0.0
C87 C 0.53788 0.1687 0.22591 0.0
C88 C 0.52357 0.19159 0.17621 0.0
C89 C 0.52183 0.20422 0.21638 0.0
C90 C 0.52739 0.19845 0.26144 0.0
H91 H 0.5102 0.32855 0.30788 0.0
H92 H 0.50488 0.28665 0.29693 0.0
C93 C 0.53537 0.18083 0.2662 0.0
C94 C 0.51549 0.22444 0.21163 0.0
H95 H 0.53962 0.28487 0.17269 0.0
C96 C 0.49371 0.22153 0.23432 0.0
C97 C 0.53194 0.24729 0.18812 0.0
C98 C 0.55598 0.25164 0.16429 0.0
C99 C 0.48828 0.24125 0.23523 0.0
C100 C 0.50534 0.2645 0.21357 0.0
C101 C 0.52651 0.26697 0.1891 0.0
C102 C 0.50342 0.28746 0.22002 0.0
C103 C 0.46455 0.23711 0.25989 0.0
C104 C 0.50416 0.30176 0.18044 0.0
C105 C 0.50755 0.32589 0.18661 0.0
C106 C 0.51034 0.33608 0.23248 0.0
C107 C 0.50804 0.32114 0.27212 0.0
C108 C 0.50478 0.29708 0.26592 0.0
H109 H 0.44966 0.21685 0.25933 0.0
H110 H 0.46898 0.24295 0.29766 0.0
H111 H 0.45691 0.24834 0.24313 0.0
H112 H 0.50329 0.29471 0.14474 0.0
H113 H 0.50917 0.33699 0.15543 0.0
H114 H 0.36247 0.55813 0.6799 0.0
H115 H 0.31748 0.54517 0.68288 0.0
H116 H 0.31399 0.522 0.82883 0.0
H117 H 0.35909 0.53526 0.82641 0.0
H118 H 0.2742 0.49744 0.70547 0.0
H119 H 0.28888 0.57313 0.83324 0.0
H120 H 0.3147 0.57348 0.80132 0.0
H121 H 0.30086 0.55296 0.85154 0.0
C122 C 0.35211 0.55025 0.7126 0.0
C123 C 0.36429 0.54793 0.75308 0.0
C124 C 0.32643 0.54276 0.71417 0.0
C125 C 0.31257 0.5329 0.75621 0.0
C126 C 0.32451 0.52993 0.79629 0.0
H127 H 0.1625 0.50961 0.8195 0.0
H128 H 0.20022 0.50528 0.82417 0.0
C129 C 0.35022 0.53747 0.79481 0.0
C130 C 0.28588 0.52667 0.75836 0.0
H131 H 0.24722 0.54567 0.80804 0.0
C132 C 0.26819 0.50781 0.72814 0.0
C133 C 0.27818 0.54021 0.78813 0.0
C134 C 0.29662 0.56122 0.82018 0.0
C135 C 0.24297 0.5024 0.72635 0.0
C136 C 0.23549 0.51651 0.75499 0.0
C137 C 0.253 0.53478 0.78631 0.0
C138 C 0.21041 0.51449 0.75019 0.0
C139 C 0.22463 0.48176 0.69366 0.0
C140 C 0.20342 0.52059 0.70682 0.0
C141 C 0.18191 0.52304 0.70405 0.0
C142 C 0.16721 0.51967 0.74474 0.0
C143 C 0.17351 0.51233 0.78758 0.0
C144 C 0.19502 0.50985 0.79031 0.0
H145 H 0.23063 0.46765 0.68667 0.0
H146 H 0.20521 0.47191 0.70878 0.0
H147 H 0.22405 0.49016 0.65906 0.0
H148 H 0.21533 0.52482 0.67571 0.0
H149 H 0.17754 0.52878 0.67059 0.0
H150 H 0.63822 0.18106 0.32134 0.0
H151 H 0.68068 0.21815 0.32016 0.0
H152 H 0.69241 0.1987 0.17868 0.0
H153 H 0.64964 0.16191 0.17906 0.0
H154 H 0.72992 0.22751 0.30545 0.0
H155 H 0.69861 0.2676 0.16054 0.0
H156 H 0.67674 0.23987 0.19339 0.0
H157 H 0.69594 0.23768 0.14726 0.0
C158 C 0.64999 0.18447 0.29027 0.0
C159 C 0.64053 0.16889 0.24997 0.0
C160 C 0.67424 0.20562 0.28969 0.0
C161 C 0.68941 0.21141 0.24894 0.0
C162 C 0.68073 0.19482 0.21004 0.0
H163 H 0.82388 0.35476 0.17892 0.0
H164 H 0.79226 0.30973 0.17942 0.0
C165 C 0.65637 0.1738 0.21039 0.0
C166 C 0.7132 0.23592 0.24586 0.0
H167 H 0.74034 0.29242 0.18781 0.0
C168 C 0.73234 0.24166 0.27951 0.0
C169 C 0.71617 0.25435 0.21206 0.0
C170 C 0.69573 0.24975 0.17649 0.0
C171 C 0.75433 0.26551 0.28058 0.0
C172 C 0.75699 0.28402 0.24744 0.0
C173 C 0.73822 0.27805 0.21297 0.0
C174 C 0.77813 0.31033 0.24968 0.0
C175 C 0.77442 0.27077 0.31726 0.0
C176 C 0.78062 0.32546 0.2891 0.0
C177 C 0.79854 0.35117 0.28883 0.0
C178 C 0.81415 0.36213 0.24901 0.0
C179 C 0.81207 0.3468 0.21008 0.0
C180 C 0.7941 0.32111 0.21034 0.0
H181 H 0.77301 0.25305 0.33076 0.0
H182 H 0.79367 0.28296 0.30241 0.0
H183 H 0.77197 0.28079 0.34788 0.0
H184 H 0.76807 0.31759 0.31935 0.0
H185 H 0.79972 0.36255 0.31928 0.0
H186 H 0.47055 0.83425 0.67506 0.0
H187 H 0.48584 0.80409 0.67473 0.0
H188 H 0.44702 0.77271 0.80704 0.0
H189 H 0.43185 0.80287 0.80792 0.0
H190 H 0.49811 0.77941 0.79881 0.0
H191 H 0.43414 0.72847 0.64643 0.0
H192 H 0.45575 0.76172 0.63928 0.0
H193 H 0.43053 0.75108 0.68179 0.0
C194 C 0.46551 0.8211 0.70433 0.0
C195 C 0.44978 0.82067 0.74126 0.0
C196 C 0.47425 0.80393 0.70406 0.0
C197 C 0.46731 0.78611 0.74062 0.0
C198 C 0.45256 0.78639 0.77856 0.0
H199 H 0.45682 0.64961 0.82307 0.0
H200 H 0.46502 0.69285 0.81876 0.0
C201 C 0.44382 0.80352 0.77888 0.0
C202 C 0.47353 0.76576 0.73774 0.0
H203 H 0.45623 0.71039 0.68053 0.0
C204 C 0.48929 0.76446 0.77259 0.0
C205 C 0.46206 0.74645 0.70328 0.0
C206 C 0.44454 0.74675 0.66566 0.0
C207 C 0.49326 0.7438 0.77477 0.0
C208 C 0.48067 0.7238 0.74187 0.0
C209 C 0.46591 0.72577 0.70566 0.0
C210 C 0.48003 0.69945 0.74711 0.0
C211 C 0.5106 0.74345 0.81264 0.0
C212 C 0.48571 0.68874 0.70825 0.0
C213 C 0.48062 0.66384 0.71037 0.0
C214 C 0.46975 0.64928 0.75137 0.0
C215 C 0.46528 0.66043 0.79106 0.0
C216 C 0.4702 0.68524 0.78881 0.0
H217 H 0.5254 0.76292 0.82253 0.0
H218 H 0.49938 0.73426 0.84505 0.0
H219 H 0.51998 0.73284 0.80077 0.0
H220 H 0.49313 0.69934 0.67563 0.0
H221 H 0.48432 0.65572 0.6793 0.0
H222 H 0.61205 0.4035 0.27877 0.0
H223 H 0.65732 0.41836 0.2812 0.0
H224 H 0.67361 0.49377 0.24724 0.0
H225 H 0.62809 0.4788 0.24342 0.0
H226 H 0.701 0.48038 0.19372 0.0
H227 H 0.70928 0.45854 0.38076 0.0
H228 H 0.68478 0.43112 0.3516 0.0
H229 H 0.68162 0.45871 0.35838 0.0
C230 C 0.62526 0.4233 0.27224 0.0
C231 C 0.61659 0.44002 0.26105 0.0
C232 C 0.65114 0.43182 0.27406 0.0
C233 C 0.66885 0.4573 0.26553 0.0
C234 C 0.66025 0.47409 0.25442 0.0
H235 H 0.82364 0.4865 0.30548 0.0
H236 H 0.788 0.49424 0.31076 0.0
C237 C 0.63429 0.46552 0.25222 0.0
C238 C 0.6962 0.46573 0.26503 0.0
H239 H 0.74109 0.45995 0.32677 0.0
C240 C 0.70998 0.47643 0.22319 0.0
C241 C 0.70817 0.46129 0.30389 0.0
C242 C 0.69523 0.45206 0.35134 0.0
C243 C 0.73474 0.48088 0.21784 0.0
C244 C 0.74563 0.47376 0.2548 0.0
C245 C 0.73261 0.46501 0.29803 0.0
C246 C 0.76906 0.47253 0.24784 0.0
C247 C 0.74869 0.49264 0.17223 0.0
C248 C 0.77038 0.45802 0.21048 0.0
C249 C 0.79076 0.4538 0.20715 0.0
C250 C 0.80997 0.4636 0.24168 0.0
C251 C 0.80904 0.4787 0.2784 0.0
C252 C 0.78874 0.48314 0.28142 0.0
H253 H 0.74277 0.5057 0.15727 0.0
H254 H 0.76952 0.50322 0.17767 0.0
H255 H 0.74399 0.47757 0.14552 0.0
H256 H 0.75508 0.44895 0.185 0.0
H257 H 0.79088 0.44195 0.17865 0.0
H258 H 0.34638 0.78924 0.67695 0.0
H259 H 0.30311 0.75408 0.6803 0.0
H260 H 0.28467 0.79351 0.78595 0.0
H261 H 0.32853 0.82855 0.78409 0.0
H262 H 0.26858 0.74755 0.81347 0.0
H263 H 0.23765 0.74236 0.62802 0.0
H264 H 0.26685 0.74209 0.6287 0.0
H265 H 0.26597 0.76937 0.65059 0.0
C266 C 0.33303 0.79062 0.70039 0.0
C267 C 0.34078 0.8116 0.73027 0.0
C268 C 0.30819 0.77059 0.70192 0.0
C269 C 0.29044 0.77138 0.73254 0.0
C270 C 0.298 0.79261 0.76172 0.0
H271 H 0.14235 0.63276 0.71068 0.0
H272 H 0.17345 0.67801 0.7121 0.0
C273 C 0.32302 0.81257 0.76066 0.0
C274 C 0.26492 0.74883 0.73735 0.0
H275 H 0.21746 0.7024 0.67171 0.0
C276 C 0.25709 0.73797 0.78258 0.0
C277 C 0.24948 0.7366 0.69739 0.0
C278 C 0.25533 0.74844 0.64861 0.0
C279 C 0.23536 0.71426 0.78833 0.0
C280 C 0.22166 0.70072 0.74758 0.0
C281 C 0.22828 0.71248 0.7029 0.0
C282 C 0.20199 0.67368 0.74985 0.0
C283 C 0.22765 0.70384 0.83797 0.0
C284 C 0.20776 0.65622 0.77023 0.0
C285 C 0.18998 0.63053 0.77003 0.0
C286 C 0.16629 0.62172 0.74838 0.0
C287 C 0.16051 0.6391 0.7276 0.0
C288 C 0.17822 0.66491 0.72846 0.0
H289 H 0.23309 0.71931 0.8642 0.0
H290 H 0.20694 0.69066 0.84059 0.0
H291 H 0.2377 0.69361 0.84796 0.0
H292 H 0.22628 0.66239 0.78537 0.0
H293 H 0.19503 0.61751 0.78583 0.0
H294 H 0.42278 0.91019 0.88222 0.0
H295 H 0.44617 0.94103 0.94473 0.0
H296 H 0.51678 0.95518 0.88271 0.0
H297 H 0.49352 0.92487 0.81934 0.0
H298 H 0.48039 0.94342 0.0115 0.0
H299 H 0.52517 0.02532 0.88817 0.0
H300 H 0.49953 -0.0051 0.87013 0.0
H301 H 0.5312 0.00015 0.87458 0.0
C302 C 0.44328 0.91986 0.88197 0.0
C303 C 0.45637 0.91539 0.84574 0.0
C304 C 0.4566 0.93739 0.9177 0.0
C305 C 0.48318 0.95063 0.91782 0.0
C306 C 0.49628 0.94555 0.88259 0.0
H307 H 0.56615 0.04777 0.16109 0.0
H308 H 0.55232 0.01514 0.09934 0.0
C309 C 0.48298 0.92819 0.84659 0.0
C310 C 0.49701 0.97015 0.9543 0.0
H311 H 0.53607 0.0335 0.96917 0.0
C312 C 0.49273 0.96311 0.00237 0.0
C313 C 0.51293 -0.0042 0.94202 0.0
C314 C 0.51737 0.00462 0.89097 0.0
C315 C 0.50347 0.98117 0.03865 0.0
C316 C 0.51927 0.00681 0.02633 0.0
C317 C 0.52409 0.01376 0.97831 0.0
C318 C 0.52891 0.02703 0.06244 0.0
C319 C 0.49693 0.97283 0.08971 0.0
C320 C 0.52088 0.04484 0.06115 0.0
C321 C 0.52885 0.06349 0.09592 0.0
C322 C 0.54503 0.06466 0.13261 0.0
C323 C 0.55356 0.04718 0.13331 0.0
C324 C 0.5456 0.0285 0.0983 0.0
H325 H 0.48071 0.95324 0.09253 0.0
H326 H 0.51353 0.9735 0.10734 0.0
H327 H 0.49216 0.98563 0.10939 0.0
H328 H 0.50803 0.04401 0.03364 0.0
H329 H 0.52203 0.07675 0.0944 0.0
H330 H 0.47831 0.41479 0.35972 0.0
H331 H 0.46616 0.43581 0.41968 0.0
H332 H 0.54494 0.4894 0.44591 0.0
H333 H 0.55723 0.46879 0.3856 0.0
H334 H 0.47891 0.44596 0.51677 0.0
H335 H 0.51463 0.53395 0.41103 0.0
H336 H 0.51016 0.50487 0.38584 0.0
H337 H 0.53762 0.52435 0.42152 0.0
C338 C 0.49302 0.43092 0.37858 0.0
C339 C 0.51869 0.44033 0.3678 0.0
C340 C 0.48607 0.4429 0.41269 0.0
C341 C 0.50467 0.46441 0.43634 0.0
C342 C 0.53033 0.47315 0.42717 0.0
H343 H 0.50232 0.56575 0.64751 0.0
H344 H 0.51415 0.54395 0.58871 0.0
C345 C 0.5373 0.46126 0.39298 0.0
C346 C 0.49724 0.47802 0.47004 0.0
H347 H 0.50104 0.53482 0.48967 0.0
C348 C 0.48362 0.46535 0.51085 0.0
C349 C 0.50344 0.50327 0.46191 0.0
C350 C 0.51706 0.51739 0.41751 0.0
C351 C 0.47643 0.47749 0.54443 0.0
C352 C 0.48275 0.50278 0.5364 0.0
C353 C 0.49631 0.51543 0.49556 0.0
C354 C 0.47552 0.51648 0.57021 0.0
C355 C 0.46258 0.46338 0.58866 0.0
C356 C 0.44993 0.50853 0.57813 0.0
C357 C 0.44313 0.52093 0.61154 0.0
C358 C 0.46186 0.5415 0.63732 0.0
C359 C 0.4875 0.54991 0.62819 0.0
C360 C 0.49428 0.5375 0.59473 0.0
H361 H 0.46429 0.44635 0.5946 0.0
H362 H 0.46993 0.47572 0.6205 0.0
H363 H 0.44218 0.45719 0.58494 0.0
H364 H 0.43523 0.49261 0.55878 0.0
H365 H 0.42321 0.51413 0.61773 0.0
H366 H 0.06283 0.56838 0.83451 0.0
H367 H 0.03255 0.56253 0.89717 0.0
H368 H 0.03432 0.49678 0.94694 0.0
H369 H 0.06488 0.50271 0.88485 0.0
H370 H 0.98511 0.5213 0.90946 0.0
H371 H 0.04435 0.53675 0.06911 0.0
H372 H 0.05761 0.54602 0.01021 0.0
H373 H 0.04426 0.51378 0.02931 0.0
C374 C 0.05694 0.55281 0.85911 0.0
C375 C 0.0662 0.536 0.85495 0.0
C376 C 0.03968 0.54953 0.89482 0.0
C377 C 0.03154 0.52947 0.92702 0.0
C378 C 0.04084 0.51272 0.92306 0.0
H379 H 0.89747 0.44469 0.08547 0.0
H380 H 0.93049 0.46446 0.02524 0.0
C381 C 0.05814 0.51602 0.88742 0.0
C382 C 0.01211 0.52505 0.96294 0.0
H383 H -0.00065 0.5153 0.08151 0.0
C384 C 0.9883 0.52035 0.94717 0.0
C385 C 0.0165 0.52428 0.01211 0.0
C386 C 0.04215 0.53074 0.03128 0.0
C387 C 0.96831 0.51352 0.97915 0.0
C388 C 0.97221 0.51098 0.02789 0.0
C389 C -0.00362 0.51703 0.04398 0.0
C390 C 0.9511 0.50018 0.06224 0.0
C391 C 0.9431 0.50874 0.96039 0.0
C392 C 0.95189 0.51368 0.10315 0.0
C393 C 0.9331 0.50236 0.13781 0.0
C394 C 0.9134 0.47731 0.13215 0.0
C395 C 0.91238 0.46406 0.09066 0.0
C396 C 0.93112 0.47538 0.05608 0.0
H397 H 0.94535 0.51904 0.92657 0.0
H398 H 0.93084 0.48828 0.95314 0.0
H399 H 0.93335 0.5145 0.98663 0.0
H400 H 0.9673 0.53279 0.10861 0.0
H401 H 0.93436 0.51298 0.16954 0.0
H402 H 0.48532 0.06427 0.32552 0.0
H403 H 0.45984 0.03399 0.38731 0.0
H404 H 0.52658 0.03494 0.44091 0.0
H405 H 0.55224 0.06544 0.37968 0.0
H406 H 0.45309 0.98637 0.40103 0.0
H407 H 0.49534 0.04577 0.56081 0.0
H408 H 0.49991 0.05884 0.50166 0.0
H409 H 0.51879 0.04571 0.52239 0.0
C410 C 0.49459 0.05817 0.35074 0.0
C411 C 0.52075 0.06721 0.34796 0.0
C412 C 0.48002 0.04092 0.38595 0.0
C413 C 0.49143 0.03261 0.41903 0.0
C414 C 0.51755 0.04161 0.41632 0.0
H415 H 0.444 0.90004 0.57644 0.0
H416 H 0.45573 0.93259 0.51597 0.0
C417 C 0.53214 0.05887 0.38117 0.0
C418 C 0.47592 0.01339 0.45477 0.0
H419 H 0.47233 0.00085 0.57344 0.0
C420 C 0.45697 0.98962 0.43882 0.0
C421 C 0.48068 0.01787 0.50401 0.0
C422 C 0.49961 0.04352 0.52331 0.0
C423 C 0.44373 0.96968 0.47076 0.0
C424 C 0.44998 0.97363 0.51961 0.0
C425 C 0.46777 -0.00218 0.53585 0.0
C426 C 0.44017 0.95254 0.55383 0.0
C427 C 0.42355 0.94448 0.45182 0.0
C428 C 0.42772 0.95312 0.59532 0.0
C429 C 0.42116 0.93463 0.63018 0.0
C430 C 0.4272 0.91545 0.62411 0.0
C431 C 0.43906 0.91456 0.58197 0.0
C432 C 0.44559 0.93302 0.54722 0.0
H433 H 0.41524 0.9467 0.41827 0.0
H434 H 0.43214 0.93262 0.44394 0.0
H435 H 0.40813 0.9344 0.47813 0.0
H436 H 0.42359 0.96819 0.60116 0.0
H437 H 0.41205 0.93575 0.66238 0.0
H438 H 0.49953 0.57452 0.87115 0.0
H439 H 0.51371 0.55471 0.93002 0.0
H440 H 0.44483 0.48365 0.90926 0.0
H441 H 0.43069 0.50314 0.8501 0.0
H442 H 0.49001 0.5303 0.01453 0.0
H443 H 0.5006 0.46559 0.89073 0.0
H444 H 0.49781 0.49208 0.87043 0.0
H445 H 0.47007 0.46321 0.88786 0.0
C446 C 0.48744 0.55467 0.87916 0.0
C447 C 0.46408 0.54031 0.85598 0.0
C448 C 0.49556 0.54342 0.91267 0.0
C449 C 0.48049 0.51766 0.92319 0.0
C450 C 0.45696 0.50342 0.90074 0.0
H451 H 0.48301 0.43497 0.16797 0.0
H452 H 0.47306 0.45643 0.10553 0.0
C453 C 0.44885 0.51463 0.86725 0.0
C454 C 0.48898 0.50574 0.95863 0.0
H455 H 0.50153 0.45779 0.97367 0.0
C456 C 0.49273 0.51457 0.00562 0.0
C457 C 0.49282 0.48548 0.94656 0.0
C458 C 0.49037 0.47616 0.89606 0.0
C459 C 0.4995 0.50311 0.04135 0.0
C460 C 0.50213 0.48207 0.02971 0.0
C461 C 0.49917 0.47375 0.98244 0.0
C462 C 0.50773 0.4683 0.06628 0.0
C463 C 0.50388 0.51369 0.09116 0.0
C464 C 0.53007 0.46714 0.06375 0.0
C465 C 0.53571 0.45472 0.09912 0.0
C466 C 0.519 0.44322 0.13736 0.0
C467 C 0.4963 0.44381 0.13904 0.0
C468 C 0.49066 0.45618 0.10364 0.0
H469 H 0.50781 0.53349 0.09145 0.0
H470 H 0.48664 0.50217 0.11278 0.0
H471 H 0.51996 0.5131 0.10837 0.0
H472 H 0.54335 0.47624 0.0349 0.0
H473 H 0.55332 0.45449 0.09694 0.0
H474 H 0.04449 0.47229 0.66693 0.0
H475 H 0.01239 0.45304 0.60438 0.0
H476 H 0.04911 0.5228 0.5254 0.0
H477 H 0.08147 0.54192 0.58705 0.0
H478 H 0.97961 0.46814 0.5779 0.0
H479 H 0.03687 0.47182 0.42258 0.0
H480 H 0.04873 0.4762 0.48274 0.0
H481 H 0.0496 0.50208 0.45065 0.0
C482 C 0.04591 0.48336 0.63582 0.0
C483 C 0.06545 0.50858 0.63174 0.0
C484 C 0.02759 0.47236 0.6002 0.0
C485 C 0.0286 0.48638 0.55997 0.0
C486 C 0.04834 0.51144 0.55555 0.0
H487 H 0.91119 0.47955 0.38601 0.0
H488 H 0.94226 0.48615 0.44748 0.0
C489 C 0.06672 0.5224 0.59097 0.0
C490 C 0.00791 0.47571 0.52457 0.0
H491 H -0.00359 0.46815 0.40531 0.0
C492 C 0.98319 0.46775 0.54022 0.0
C493 C 0.01255 0.47483 0.47555 0.0
C494 C 0.03835 0.48144 0.45695 0.0
C495 C 0.9632 0.46014 0.50786 0.0
C496 C 0.96824 0.46112 0.4586 0.0
C497 C -0.00732 0.4678 0.4431 0.0
C498 C 0.94876 0.4564 0.42247 0.0
C499 C 0.93693 0.45132 0.52676 0.0
C500 C 0.94263 0.43793 0.38738 0.0
C501 C 0.92515 0.43436 0.35185 0.0
C502 C 0.91358 0.44926 0.35089 0.0
C503 C 0.91969 0.46769 0.38613 0.0
C504 C 0.93728 0.47134 0.42144 0.0
H505 H 0.93474 0.44392 0.56358 0.0
H506 H 0.93353 0.46751 0.5277 0.0
H507 H 0.92224 0.43636 0.50386 0.0
H508 H 0.95144 0.42634 0.3874 0.0
H509 H 0.92078 0.42003 0.32507 0.0
loop_
_geom_bond_atom_site_label_1
_geom_bond_atom_site_label_2
_geom_bond_distance
_geom_bond_site_symmetry_2
_ccdc_geom_bond_type
In0 O1 2.294 . S
In0 O2 2.326 . S
In0 O6 2.266 . S
In0 O7 2.326 . S
In0 O8 2.266 . S
In0 O9 2.326 . S
In0 O11 2.294 . S
In0 O12 2.326 . S
O1 In0 2.294 . S
O1 C10 1.240 . S
O2 In0 2.326 . S
O2 C10 1.252 . S
C3 O6 1.252 . S
C3 O7 1.260 . S
C4 O11 1.240 . S
C4 O12 1.252 . S
C5 O8 1.252 . S
C5 O9 1.260 . S
O6 In0 2.266 . S
O6 C3 1.252 . S
O7 In0 2.326 . S
O7 C3 1.260 . S
O8 In0 2.266 . S
O8 C5 1.252 . S
O9 In0 2.326 . S
O9 C5 1.260 . S
C10 O1 1.240 . S
C10 O2 1.252 . S
O11 In0 2.294 . S
O11 C4 1.240 . S
O12 In0 2.326 . S
O12 C4 1.252 . S
In13 O14 2.294 . S
In13 O15 2.326 . S
In13 O19 2.266 . S
In13 O20 2.326 . S
In13 O21 2.266 . S
In13 O22 2.326 . S
In13 O24 2.294 . S
In13 O25 2.326 . S
O14 In13 2.294 . S
O14 C23 1.240 . S
O15 In13 2.326 . S
O15 C23 1.252 . S
C16 O19 1.252 . S
C16 O20 1.260 . S
C17 O24 1.240 . S
C17 O25 1.252 . S
C18 O21 1.252 . S
C18 O22 1.260 . S
O19 In13 2.266 . S
O19 C16 1.252 . S
O20 In13 2.326 . S
O20 C16 1.260 . S
O21 In13 2.266 . S
O21 C18 1.252 . S
O22 In13 2.326 . S
O22 C18 1.260 . S
C23 O14 1.240 . S
C23 O15 1.252 . S
O24 In13 2.294 . S
O24 C17 1.240 . S
O25 In13 2.326 . S
O25 C17 1.252 . S
In26 O27 2.294 . S
In26 O28 2.326 . S
In26 O32 2.266 . S
In26 O33 2.326 . S
In26 O34 2.266 . S
In26 O35 2.326 . S
In26 O37 2.294 . S
In26 O38 2.326 . S
O27 In26 2.294 . S
O27 C36 1.240 . S
O28 In26 2.326 . S
O28 C36 1.252 . S
C29 O32 1.252 . S
C29 O33 1.260 . S
C30 O37 1.240 . S
C30 O38 1.252 . S
C31 O34 1.252 . S
C31 O35 1.260 . S
O32 In26 2.266 . S
O32 C29 1.252 . S
O33 In26 2.326 . S
O33 C29 1.260 . S
O34 In26 2.266 . S
O34 C31 1.252 . S
O35 In26 2.326 . S
O35 C31 1.260 . S
C36 O27 1.240 . S
C36 O28 1.252 . S
O37 In26 2.294 . S
O37 C30 1.240 . S
O38 In26 2.326 . S
O38 C30 1.252 . S
In39 O40 2.294 . S
In39 O41 2.326 . S
In39 O45 2.266 . S
In39 O46 2.326 . S
In39 O47 2.266 . S
In39 O48 2.326 . S
In39 O50 2.294 . S
In39 O51 2.326 . S
O40 In39 2.294 . S
O40 C49 1.240 . S
O41 In39 2.326 . S
O41 C49 1.252 . S
C42 O45 1.252 . S
C42 O46 1.260 . S
C43 O50 1.240 . S
C43 O51 1.252 . S
C44 O47 1.252 . S
C44 O48 1.260 . S
O45 In39 2.266 . S
O45 C42 1.252 . S
O46 In39 2.326 . S
O46 C42 1.260 . S
O47 In39 2.266 . S
O47 C44 1.252 . S
O48 In39 2.326 . S
O48 C44 1.260 . S
C49 O40 1.240 . S
C49 O41 1.252 . S
O50 In39 2.294 . S
O50 C43 1.240 . S
O51 In39 2.326 . S
O51 C43 1.252 . S
In52 O53 2.294 . S
In52 O54 2.326 . S
In52 O58 2.266 . S
In52 O59 2.326 . S
In52 O60 2.266 . S
In52 O61 2.326 . S
In52 O63 2.294 . S
In52 O64 2.326 . S
O53 In52 2.294 . S
O53 C62 1.240 . S
O54 In52 2.326 . S
O54 C62 1.252 . S
C55 O58 1.252 . S
C55 O59 1.260 . S
C56 O63 1.240 . S
C56 O64 1.252 . S
C57 O60 1.252 . S
C57 O61 1.260 . S
O58 In52 2.266 . S
O58 C55 1.252 . S
O59 In52 2.326 . S
O59 C55 1.260 . S
O60 In52 2.266 . S
O60 C57 1.252 . S
O61 In52 2.326 . S
O61 C57 1.260 . S
C62 O53 1.240 . S
C62 O54 1.252 . S
O63 In52 2.294 . S
O63 C56 1.240 . S
O64 In52 2.326 . S
O64 C56 1.252 . S
In65 O66 2.294 . S
In65 O67 2.326 . S
In65 O71 2.266 . S
In65 O72 2.326 . S
In65 O73 2.266 . S
In65 O74 2.326 . S
In65 O76 2.294 . S
In65 O77 2.326 . S
O66 In65 2.294 . S
O66 C75 1.240 . S
O67 In65 2.326 . S
O67 C75 1.252 . S
C68 O71 1.252 . S
C68 O72 1.260 . S
C69 O76 1.240 . S
C69 O77 1.252 . S
C70 O73 1.252 . S
C70 O74 1.260 . S
O71 In65 2.266 . S
O71 C68 1.252 . S
O72 In65 2.326 . S
O72 C68 1.260 . S
O73 In65 2.266 . S
O73 C70 1.252 . S
O74 In65 2.326 . S
O74 C70 1.260 . S
C75 O66 1.240 . S
C75 O67 1.252 . S
O76 In65 2.294 . S
O76 C69 1.240 . S
O77 In65 2.326 . S
O77 C69 1.252 . S
H78 C86 0.929 . S
H79 C88 0.930 . S
H80 C90 0.930 . S
H81 C93 0.929 . S
H82 C96 0.930 . S
H83 C98 0.960 . S
H84 C98 0.960 . S
H85 C98 0.960 . S
C86 H78 0.929 . S
C86 C87 1.377 . S
C86 C88 1.384 . S
C87 C86 1.377 . S
C87 C93 1.390 . S
C88 H79 0.930 . S
C88 C86 1.384 . S
C88 C89 1.372 . S
C89 C88 1.372 . S
C89 C90 1.400 . S
C89 C94 1.490 . S
C90 H80 0.930 . S
C90 C89 1.400 . S
C90 C93 1.386 . S
H91 C107 0.930 . S
H92 C108 0.931 . S
C93 H81 0.929 . S
C93 C87 1.390 . S
C93 C90 1.386 . S
C94 C89 1.490 . S
C94 C96 1.395 . S
C94 C97 1.403 . S
H95 C101 0.930 . S
C96 H82 0.930 . S
C96 C94 1.395 . S
C96 C99 1.403 . S
C97 C94 1.403 . S
C97 C98 1.524 . S
C97 C101 1.400 . S
C98 H83 0.960 . S
C98 H84 0.960 . S
C98 H85 0.960 . S
C98 C97 1.524 . S
C99 C96 1.403 . S
C99 C100 1.392 . S
C99 C103 1.495 . S
C100 C99 1.392 . S
C100 C101 1.385 . S
C100 C102 1.478 . S
C101 H95 0.930 . S
C101 C97 1.400 . S
C101 C100 1.385 . S
C102 C100 1.478 . S
C102 C104 1.381 . S
C102 C108 1.383 . S
C103 C99 1.495 . S
C103 H109 0.959 . S
C103 H110 0.961 . S
C103 H111 0.960 . S
C104 C102 1.381 . S
C104 C105 1.394 . S
C104 H112 0.930 . S
C105 C104 1.394 . S
C105 C106 1.383 . S
C105 H113 0.929 . S
C106 C105 1.383 . S
C106 C107 1.377 . S
C107 H91 0.930 . S
C107 C106 1.377 . S
C107 C108 1.379 . S
C108 H92 0.931 . S
C108 C102 1.383 . S
C108 C107 1.379 . S
H109 C103 0.959 . S
H110 C103 0.961 . S
H111 C103 0.960 . S
H112 C104 0.930 . S
H113 C105 0.929 . S
H114 C122 0.929 . S
H115 C124 0.930 . S
H116 C126 0.930 . S
H117 C129 0.929 . S
H118 C132 0.930 . S
H119 C134 0.960 . S
H120 C134 0.960 . S
H121 C134 0.960 . S
C122 H114 0.929 . S
C122 C123 1.377 . S
C122 C124 1.384 . S
C123 C122 1.377 . S
C123 C129 1.390 . S
C124 H115 0.930 . S
C124 C122 1.384 . S
C124 C125 1.372 . S
C125 C124 1.372 . S
C125 C126 1.400 . S
C125 C130 1.490 . S
C126 H116 0.930 . S
C126 C125 1.400 . S
C126 C129 1.386 . S
H127 C143 0.930 . S
H128 C144 0.931 . S
C129 H117 0.929 . S
C129 C123 1.390 . S
C129 C126 1.386 . S
C130 C125 1.490 . S
C130 C132 1.395 . S
C130 C133 1.403 . S
H131 C137 0.930 . S
C132 H118 0.930 . S
C132 C130 1.395 . S
C132 C135 1.403 . S
C133 C130 1.403 . S
C133 C134 1.524 . S
C133 C137 1.400 . S
C134 H119 0.960 . S
C134 H120 0.960 . S
C134 H121 0.960 . S
C134 C133 1.524 . S
C135 C132 1.403 . S
C135 C136 1.392 . S
C135 C139 1.495 . S
C136 C135 1.392 . S
C136 C137 1.385 . S
C136 C138 1.478 . S
C137 H131 0.930 . S
C137 C133 1.400 . S
C137 C136 1.385 . S
C138 C136 1.478 . S
C138 C140 1.381 . S
C138 C144 1.383 . S
C139 C135 1.495 . S
C139 H145 0.959 . S
C139 H146 0.961 . S
C139 H147 0.960 . S
C140 C138 1.381 . S
C140 C141 1.394 . S
C140 H148 0.930 . S
C141 C140 1.394 . S
C141 C142 1.383 . S
C141 H149 0.929 . S
C142 C141 1.383 . S
C142 C143 1.377 . S
C143 H127 0.930 . S
C143 C142 1.377 . S
C143 C144 1.379 . S
C144 H128 0.931 . S
C144 C138 1.383 . S
C144 C143 1.379 . S
H145 C139 0.959 . S
H146 C139 0.961 . S
H147 C139 0.960 . S
H148 C140 0.930 . S
H149 C141 0.929 . S
H150 C158 0.929 . S
H151 C160 0.930 . S
H152 C162 0.930 . S
H153 C165 0.929 . S
H154 C168 0.930 . S
H155 C170 0.960 . S
H156 C170 0.960 . S
H157 C170 0.960 . S
C158 H150 0.929 . S
C158 C159 1.377 . S
C158 C160 1.384 . S
C159 C158 1.377 . S
C159 C165 1.390 . S
C160 H151 0.930 . S
C160 C158 1.384 . S
C160 C161 1.372 . S
C161 C160 1.372 . S
C161 C162 1.400 . S
C161 C166 1.490 . S
C162 H152 0.930 . S
C162 C161 1.400 . S
C162 C165 1.386 . S
H163 C179 0.930 . S
H164 C180 0.931 . S
C165 H153 0.929 . S
C165 C159 1.390 . S
C165 C162 1.386 . S
C166 C161 1.490 . S
C166 C168 1.395 . S
C166 C169 1.403 . S
H167 C173 0.930 . S
C168 H154 0.930 . S
C168 C166 1.395 . S
C168 C171 1.403 . S
C169 C166 1.403 . S
C169 C170 1.524 . S
C169 C173 1.400 . S
C170 H155 0.960 . S
C170 H156 0.960 . S
C170 H157 0.960 . S
C170 C169 1.524 . S
C171 C168 1.403 . S
C171 C172 1.392 . S
C171 C175 1.495 . S
C172 C171 1.392 . S
C172 C173 1.385 . S
C172 C174 1.478 . S
C173 H167 0.930 . S
C173 C169 1.400 . S
C173 C172 1.385 . S
C174 C172 1.478 . S
C174 C176 1.381 . S
C174 C180 1.383 . S
C175 C171 1.495 . S
C175 H181 0.959 . S
C175 H182 0.961 . S
C175 H183 0.960 . S
C176 C174 1.381 . S
C176 C177 1.394 . S
C176 H184 0.930 . S
C177 C176 1.394 . S
C177 C178 1.383 . S
C177 H185 0.929 . S
C178 C177 1.383 . S
C178 C179 1.377 . S
C179 H163 0.930 . S
C179 C178 1.377 . S
C179 C180 1.379 . S
C180 H164 0.931 . S
C180 C174 1.383 . S
C180 C179 1.379 . S
H181 C175 0.959 . S
H182 C175 0.961 . S
H183 C175 0.960 . S
H184 C176 0.930 . S
H185 C177 0.929 . S
H186 C194 0.929 . S
H187 C196 0.930 . S
H188 C198 0.930 . S
H189 C201 0.929 . S
H190 C204 0.930 . S
H191 C206 0.960 . S
H192 C206 0.960 . S
H193 C206 0.960 . S
C194 H186 0.929 . S
C194 C195 1.377 . S
C194 C196 1.384 . S
C195 C194 1.377 . S
C195 C201 1.390 . S
C196 H187 0.930 . S
C196 C194 1.384 . S
C196 C197 1.372 . S
C197 C196 1.372 . S
C197 C198 1.400 . S
C197 C202 1.490 . S
C198 H188 0.930 . S
C198 C197 1.400 . S
C198 C201 1.386 . S
H199 C215 0.930 . S
H200 C216 0.931 . S
C201 H189 0.929 . S
C201 C195 1.390 . S
C201 C198 1.386 . S
C202 C197 1.490 . S
C202 C204 1.395 . S
C202 C205 1.403 . S
H203 C209 0.930 . S
C204 H190 0.930 . S
C204 C202 1.395 . S
C204 C207 1.403 . S
C205 C202 1.403 . S
C205 C206 1.524 . S
C205 C209 1.400 . S
C206 H191 0.960 . S
C206 H192 0.960 . S
C206 H193 0.960 . S
C206 C205 1.524 . S
C207 C204 1.403 . S
C207 C208 1.392 . S
C207 C211 1.495 . S
C208 C207 1.392 . S
C208 C209 1.385 . S
C208 C210 1.478 . S
C209 H203 0.930 . S
C209 C205 1.400 . S
C209 C208 1.385 . S
C210 C208 1.478 . S
C210 C212 1.381 . S
C210 C216 1.383 . S
C211 C207 1.495 . S
C211 H217 0.959 . S
C211 H218 0.961 . S
C211 H219 0.960 . S
C212 C210 1.381 . S
C212 C213 1.394 . S
C212 H220 0.930 . S
C213 C212 1.394 . S
C213 C214 1.383 . S
C213 H221 0.929 . S
C214 C213 1.383 . S
C214 C215 1.377 . S
C215 H199 0.930 . S
C215 C214 1.377 . S
C215 C216 1.379 . S
C216 H200 0.931 . S
C216 C210 1.383 . S
C216 C215 1.379 . S
H217 C211 0.959 . S
H218 C211 0.961 . S
H219 C211 0.960 . S
H220 C212 0.930 . S
H221 C213 0.929 . S
H222 C230 0.929 . S
H223 C232 0.930 . S
H224 C234 0.930 . S
H225 C237 0.929 . S
H226 C240 0.930 . S
H227 C242 0.960 . S
H228 C242 0.960 . S
H229 C242 0.960 . S
C230 H222 0.929 . S
C230 C231 1.377 . S
C230 C232 1.384 . S
C231 C230 1.377 . S
C231 C237 1.390 . S
C232 H223 0.930 . S
C232 C230 1.384 . S
C232 C233 1.372 . S
C233 C232 1.372 . S
C233 C234 1.400 . S
C233 C238 1.490 . S
C234 H224 0.930 . S
C234 C233 1.400 . S
C234 C237 1.386 . S
H235 C251 0.930 . S
H236 C252 0.931 . S
C237 H225 0.929 . S
C237 C231 1.390 . S
C237 C234 1.386 . S
C238 C233 1.490 . S
C238 C240 1.395 . S
C238 C241 1.403 . S
H239 C245 0.930 . S
C240 H226 0.930 . S
C240 C238 1.395 . S
C240 C243 1.403 . S
C241 C238 1.403 . S
C241 C242 1.524 . S
C241 C245 1.400 . S
C242 H227 0.960 . S
C242 H228 0.960 . S
C242 H229 0.960 . S
C242 C241 1.524 . S
C243 C240 1.403 . S
C243 C244 1.392 . S
C243 C247 1.495 . S
C244 C243 1.392 . S
C244 C245 1.385 . S
C244 C246 1.478 . S
C245 H239 0.930 . S
C245 C241 1.400 . S
C245 C244 1.385 . S
C246 C244 1.478 . S
C246 C248 1.381 . S
C246 C252 1.383 . S
C247 C243 1.495 . S
C247 H253 0.959 . S
C247 H254 0.961 . S
C247 H255 0.960 . S
C248 C246 1.381 . S
C248 C249 1.394 . S
C248 H256 0.930 . S
C249 C248 1.394 . S
C249 C250 1.383 . S
C249 H257 0.929 . S
C250 C249 1.383 . S
C250 C251 1.377 . S
C251 H235 0.930 . S
C251 C250 1.377 . S
C251 C252 1.379 . S
C252 H236 0.931 . S
C252 C246 1.383 . S
C252 C251 1.379 . S
H253 C247 0.959 . S
H254 C247 0.961 . S
H255 C247 0.960 . S
H256 C248 0.930 . S
H257 C249 0.929 . S
H258 C266 0.929 . S
H259 C268 0.930 . S
H260 C270 0.930 . S
H261 C273 0.929 . S
H262 C276 0.930 . S
H263 C278 0.960 . S
H264 C278 0.960 . S
H265 C278 0.960 . S
C266 H258 0.929 . S
C266 C267 1.377 . S
C266 C268 1.384 . S
C267 C266 1.377 . S
C267 C273 1.390 . S
C268 H259 0.930 . S
C268 C266 1.384 . S
C268 C269 1.372 . S
C269 C268 1.372 . S
C269 C270 1.400 . S
C269 C274 1.490 . S
C270 H260 0.930 . S
C270 C269 1.400 . S
C270 C273 1.386 . S
H271 C287 0.930 . S
H272 C288 0.931 . S
C273 H261 0.929 . S
C273 C267 1.390 . S
C273 C270 1.386 . S
C274 C269 1.490 . S
C274 C276 1.395 . S
C274 C277 1.403 . S
H275 C281 0.930 . S
C276 H262 0.930 . S
C276 C274 1.395 . S
C276 C279 1.403 . S
C277 C274 1.403 . S
C277 C278 1.524 . S
C277 C281 1.400 . S
C278 H263 0.960 . S
C278 H264 0.960 . S
C278 H265 0.960 . S
C278 C277 1.524 . S
C279 C276 1.403 . S
C279 C280 1.392 . S
C279 C283 1.495 . S
C280 C279 1.392 . S
C280 C281 1.385 . S
C280 C282 1.478 . S
C281 H275 0.930 . S
C281 C277 1.400 . S
C281 C280 1.385 . S
C282 C280 1.478 . S
C282 C284 1.381 . S
C282 C288 1.383 . S
C283 C279 1.495 . S
C283 H289 0.959 . S
C283 H290 0.961 . S
C283 H291 0.960 . S
C284 C282 1.381 . S
C284 C285 1.394 . S
C284 H292 0.930 . S
C285 C284 1.394 . S
C285 C286 1.383 . S
C285 H293 0.929 . S
C286 C285 1.383 . S
C286 C287 1.377 . S
C287 H271 0.930 . S
C287 C286 1.377 . S
C287 C288 1.379 . S
C288 H272 0.931 . S
C288 C282 1.383 . S
C288 C287 1.379 . S
H289 C283 0.959 . S
H290 C283 0.961 . S
H291 C283 0.960 . S
H292 C284 0.930 . S
H293 C285 0.929 . S
H294 C302 0.929 . S
H295 C304 0.930 . S
H296 C306 0.930 . S
H297 C309 0.929 . S
H298 C312 0.930 . S
H299 C314 0.960 1_545 S
H300 C314 0.960 . S
H301 C314 0.960 . S
C302 H294 0.929 . S
C302 C303 1.377 . S
C302 C304 1.384 . S
C303 C302 1.377 . S
C303 C309 1.390 . S
C304 H295 0.930 . S
C304 C302 1.384 . S
C304 C305 1.372 . S
C305 C304 1.372 . S
C305 C306 1.400 . S
C305 C310 1.490 . S
C306 H296 0.930 . S
C306 C305 1.400 . S
C306 C309 1.386 . S
H307 C323 0.930 . S
H308 C324 0.931 . S
C309 H297 0.929 . S
C309 C303 1.390 . S
C309 C306 1.386 . S
C310 C305 1.490 . S
C310 C312 1.395 . S
C310 C313 1.403 . S
H311 C317 0.930 . S
C312 H298 0.930 . S
C312 C310 1.395 . S
C312 C315 1.403 1_566 S
C313 C310 1.403 . S
C313 C314 1.524 . S
C313 C317 1.400 1_566 S
C314 H299 0.960 1_565 S
C314 H300 0.960 . S
C314 H301 0.960 . S
C314 C313 1.524 . S
C315 C312 1.403 1_544 S
C315 C316 1.392 . S
C315 C319 1.495 . S
C316 C315 1.392 . S
C316 C317 1.385 . S
C316 C318 1.478 . S
C317 H311 0.930 . S
C317 C313 1.400 1_544 S
C317 C316 1.385 . S
C318 C316 1.478 . S
C318 C320 1.381 . S
C318 C324 1.383 . S
C319 C315 1.495 . S
C319 H325 0.959 . S
C319 H326 0.961 . S
C319 H327 0.960 . S
C320 C318 1.381 . S
C320 C321 1.394 . S
C320 H328 0.930 . S
C321 C320 1.394 . S
C321 C322 1.383 . S
C321 H329 0.929 . S
C322 C321 1.383 . S
C322 C323 1.377 . S
C323 H307 0.930 . S
C323 C322 1.377 . S
C323 C324 1.379 . S
C324 H308 0.931 . S
C324 C318 1.383 . S
C324 C323 1.379 . S
H325 C319 0.959 . S
H326 C319 0.961 . S
H327 C319 0.960 . S
H328 C320 0.930 . S
H329 C321 0.929 . S
H330 C338 0.929 . S
H331 C340 0.930 . S
H332 C342 0.930 . S
H333 C345 0.929 . S
H334 C348 0.930 . S
H335 C350 0.960 . S
H336 C350 0.960 . S
H337 C350 0.960 . S
C338 H330 0.929 . S
C338 C339 1.377 . S
C338 C340 1.384 . S
C339 C338 1.377 . S
C339 C345 1.390 . S
C340 H331 0.930 . S
C340 C338 1.384 . S
C340 C341 1.372 . S
C341 C340 1.372 . S
C341 C342 1.400 . S
C341 C346 1.490 . S
C342 H332 0.930 . S
C342 C341 1.400 . S
C342 C345 1.386 . S
H343 C359 0.930 . S
H344 C360 0.931 . S
C345 H333 0.929 . S
C345 C339 1.390 . S
C345 C342 1.386 . S
C346 C341 1.490 . S
C346 C348 1.395 . S
C346 C349 1.403 . S
H347 C353 0.930 . S
C348 H334 0.930 . S
C348 C346 1.395 . S
C348 C351 1.403 . S
C349 C346 1.403 . S
C349 C350 1.524 . S
C349 C353 1.400 . S
C350 H335 0.960 . S
C350 H336 0.960 . S
C350 H337 0.960 . S
C350 C349 1.524 . S
C351 C348 1.403 . S
C351 C352 1.392 . S
C351 C355 1.495 . S
C352 C351 1.392 . S
C352 C353 1.385 . S
C352 C354 1.478 . S
C353 H347 0.930 . S
C353 C349 1.400 . S
C353 C352 1.385 . S
C354 C352 1.478 . S
C354 C356 1.381 . S
C354 C360 1.383 . S
C355 C351 1.495 . S
C355 H361 0.959 . S
C355 H362 0.961 . S
C355 H363 0.960 . S
C356 C354 1.381 . S
C356 C357 1.394 . S
C356 H364 0.930 . S
C357 C356 1.394 . S
C357 C358 1.383 . S
C357 H365 0.929 . S
C358 C357 1.383 . S
C358 C359 1.377 . S
C359 H343 0.930 . S
C359 C358 1.377 . S
C359 C360 1.379 . S
C360 H344 0.931 . S
C360 C354 1.383 . S
C360 C359 1.379 . S
H361 C355 0.959 . S
H362 C355 0.961 . S
H363 C355 0.960 . S
H364 C356 0.930 . S
H365 C357 0.929 . S
H366 C374 0.929 . S
H367 C376 0.930 . S
H368 C378 0.930 . S
H369 C381 0.929 . S
H370 C384 0.930 . S
H371 C386 0.960 . S
H372 C386 0.960 . S
H373 C386 0.960 . S
C374 H366 0.929 . S
C374 C375 1.377 . S
C374 C376 1.384 . S
C375 C374 1.377 . S
C375 C381 1.390 . S
C376 H367 0.930 . S
C376 C374 1.384 . S
C376 C377 1.372 . S
C377 C376 1.372 . S
C377 C378 1.400 . S
C377 C382 1.490 . S
C378 H368 0.930 . S
C378 C377 1.400 . S
C378 C381 1.386 . S
H379 C395 0.930 . S
H380 C396 0.931 . S
C381 H369 0.929 . S
C381 C375 1.390 . S
C381 C378 1.386 . S
C382 C377 1.490 . S
C382 C384 1.395 1_455 S
C382 C385 1.403 1_556 S
H383 C389 0.930 . S
C384 H370 0.930 . S
C384 C382 1.395 1_655 S
C384 C387 1.403 . S
C385 C382 1.403 1_554 S
C385 C386 1.524 . S
C385 C389 1.400 . S
C386 H371 0.960 . S
C386 H372 0.960 . S
C386 H373 0.960 . S
C386 C385 1.524 . S
C387 C384 1.403 . S
C387 C388 1.392 1_556 S
C387 C391 1.495 . S
C388 C387 1.392 1_554 S
C388 C389 1.385 1_655 S
C388 C390 1.478 . S
C389 H383 0.930 . S
C389 C385 1.400 . S
C389 C388 1.385 1_455 S
C390 C388 1.478 . S
C390 C392 1.381 . S
C390 C396 1.383 . S
C391 C387 1.495 . S
C391 H397 0.959 . S
C391 H398 0.961 . S
C391 H399 0.960 . S
C392 C390 1.381 . S
C392 C393 1.394 . S
C392 H400 0.930 . S
C393 C392 1.394 . S
C393 C394 1.383 . S
C393 H401 0.929 . S
C394 C393 1.383 . S
C394 C395 1.377 . S
C395 H379 0.930 . S
C395 C394 1.377 . S
C395 C396 1.379 . S
C396 H380 0.931 . S
C396 C390 1.383 . S
C396 C395 1.379 . S
H397 C391 0.959 . S
H398 C391 0.961 . S
H399 C391 0.960 . S
H400 C392 0.930 . S
H401 C393 0.929 . S
H402 C410 0.929 . S
H403 C412 0.930 . S
H404 C414 0.930 . S
H405 C417 0.929 . S
H406 C420 0.930 . S
H407 C422 0.960 . S
H408 C422 0.960 . S
H409 C422 0.960 . S
C410 H402 0.929 . S
C410 C411 1.377 . S
C410 C412 1.384 . S
C411 C410 1.377 . S
C411 C417 1.390 . S
C412 H403 0.930 . S
C412 C410 1.384 . S
C412 C413 1.372 . S
C413 C412 1.372 . S
C413 C414 1.400 . S
C413 C418 1.490 . S
C414 H404 0.930 . S
C414 C413 1.400 . S
C414 C417 1.386 . S
H415 C431 0.930 . S
H416 C432 0.931 . S
C417 H405 0.929 . S
C417 C411 1.390 . S
C417 C414 1.386 . S
C418 C413 1.490 . S
C418 C420 1.395 1_545 S
C418 C421 1.403 . S
H419 C425 0.930 . S
C420 H406 0.930 . S
C420 C418 1.395 1_565 S
C420 C423 1.403 . S
C421 C418 1.403 . S
C421 C422 1.524 . S
C421 C425 1.400 1_545 S
C422 H407 0.960 . S
C422 H408 0.960 . S
C422 H409 0.960 . S
C422 C421 1.524 . S
C423 C420 1.403 . S
C423 C424 1.392 . S
C423 C427 1.495 . S
C424 C423 1.392 . S
C424 C425 1.385 . S
C424 C426 1.478 . S
C425 H419 0.930 . S
C425 C421 1.400 1_565 S
C425 C424 1.385 . S
C426 C424 1.478 . S
C426 C428 1.381 . S
C426 C432 1.383 . S
C427 C423 1.495 . S
C427 H433 0.959 . S
C427 H434 0.961 . S
C427 H435 0.960 . S
C428 C426 1.381 . S
C428 C429 1.394 . S
C428 H436 0.930 . S
C429 C428 1.394 . S
C429 C430 1.383 . S
C429 H437 0.929 . S
C430 C429 1.383 . S
C430 C431 1.377 . S
C431 H415 0.930 . S
C431 C430 1.377 . S
C431 C432 1.379 . S
C432 H416 0.931 . S
C432 C426 1.383 . S
C432 C431 1.379 . S
H433 C427 0.959 . S
H434 C427 0.961 . S
H435 C427 0.960 . S
H436 C428 0.930 . S
H437 C429 0.929 . S
H438 C446 0.929 . S
H439 C448 0.930 . S
H440 C450 0.930 . S
H441 C453 0.929 . S
H442 C456 0.930 . S
H443 C458 0.960 . S
H444 C458 0.960 . S
H445 C458 0.960 . S
C446 H438 0.929 . S
C446 C447 1.377 . S
C446 C448 1.384 . S
C447 C446 1.377 . S
C447 C453 1.390 . S
C448 H439 0.930 . S
C448 C446 1.384 . S
C448 C449 1.372 . S
C449 C448 1.372 . S
C449 C450 1.400 . S
C449 C454 1.490 . S
C450 H440 0.930 . S
C450 C449 1.400 . S
C450 C453 1.386 . S
H451 C467 0.930 . S
H452 C468 0.931 . S
C453 H441 0.929 . S
C453 C447 1.390 . S
C453 C450 1.386 . S
C454 C449 1.490 . S
C454 C456 1.395 . S
C454 C457 1.403 . S
H455 C461 0.930 . S
C456 H442 0.930 . S
C456 C454 1.395 . S
C456 C459 1.403 1_556 S
C457 C454 1.403 . S
C457 C458 1.524 . S
C457 C461 1.400 1_556 S
C458 H443 0.960 . S
C458 H444 0.960 . S
C458 H445 0.960 . S
C458 C457 1.524 . S
C459 C456 1.403 1_554 S
C459 C460 1.392 . S
C459 C463 1.495 . S
C460 C459 1.392 . S
C460 C461 1.385 . S
C460 C462 1.478 . S
C461 H455 0.930 . S
C461 C457 1.400 1_554 S
C461 C460 1.385 . S
C462 C460 1.478 . S
C462 C464 1.381 . S
C462 C468 1.383 . S
C463 C459 1.495 . S
C463 H469 0.959 . S
C463 H470 0.961 . S
C463 H471 0.960 . S
C464 C462 1.381 . S
C464 C465 1.394 . S
C464 H472 0.930 . S
C465 C464 1.394 . S
C465 C466 1.383 . S
C465 H473 0.929 . S
C466 C465 1.383 . S
C466 C467 1.377 . S
C467 H451 0.930 . S
C467 C466 1.377 . S
C467 C468 1.379 . S
C468 H452 0.931 . S
C468 C462 1.383 . S
C468 C467 1.379 . S
H469 C463 0.959 . S
H470 C463 0.961 . S
H471 C463 0.960 . S
H472 C464 0.930 . S
H473 C465 0.929 . S
H474 C482 0.929 . S
H475 C484 0.930 . S
H476 C486 0.930 . S
H477 C489 0.929 . S
H478 C492 0.930 . S
H479 C494 0.960 . S
H480 C494 0.960 . S
H481 C494 0.960 . S
C482 H474 0.929 . S
C482 C483 1.377 . S
C482 C484 1.384 . S
C483 C482 1.377 . S
C483 C489 1.390 . S
C484 H475 0.930 . S
C484 C482 1.384 . S
C484 C485 1.372 . S
C485 C484 1.372 . S
C485 C486 1.400 . S
C485 C490 1.490 . S
C486 H476 0.930 . S
C486 C485 1.400 . S
C486 C489 1.386 . S
H487 C503 0.930 . S
H488 C504 0.931 . S
C489 H477 0.929 . S
C489 C483 1.390 . S
C489 C486 1.386 . S
C490 C485 1.490 . S
C490 C492 1.395 1_455 S
C490 C493 1.403 . S
H491 C497 0.930 . S
C492 H478 0.930 . S
C492 C490 1.395 1_655 S
C492 C495 1.403 . S
C493 C490 1.403 . S
C493 C494 1.524 . S
C493 C497 1.400 . S
C494 H479 0.960 . S
C494 H480 0.960 . S
C494 H481 0.960 . S
C494 C493 1.524 . S
C495 C492 1.403 . S
C495 C496 1.392 . S
C495 C499 1.495 . S
C496 C495 1.392 . S
C496 C497 1.385 1_655 S
C496 C498 1.478 . S
C497 H491 0.930 . S
C497 C493 1.400 . S
C497 C496 1.385 1_455 S
C498 C496 1.478 . S
C498 C500 1.381 . S
C498 C504 1.383 . S
C499 C495 1.495 . S
C499 H505 0.959 . S
C499 H506 0.961 . S
C499 H507 0.960 . S
C500 C498 1.381 . S
C500 C501 1.394 . S
C500 H508 0.930 . S
C501 C500 1.394 . S
C501 C502 1.383 . S
C501 H509 0.929 . S
C502 C501 1.383 . S
C502 C503 1.377 . S
C503 H487 0.930 . S
C503 C502 1.377 . S
C503 C504 1.379 . S
C504 H488 0.931 . S
C504 C498 1.383 . S
C504 C503 1.379 . S
H505 C499 0.959 . S
H506 C499 0.961 . S
H507 C499 0.960 . S
H508 C500 0.930 . S
H509 C501 0.929 . S
C87 C3 1.006 . S
C106 C57 1.021 . S
C123 C16 1.007 . S
C142 C68 1.031 . S
C159 C5 1.006 . S
C178 C29 1.033 . S
C195 C44 1.007 . S
C214 C18 1.018 . S
C231 C55 1.010 . S
C250 C31 1.024 . S
C267 C42 1.011 . S
C286 C70 1.019 . S
C303 C49 1.407 . S
C322 C10 1.397 . S
C339 C56 1.407 . S
C358 C23 1.397 . S
C375 C75 1.408 . S
C394 C36 1.408 . S
C411 C4 1.408 . S
C430 C43 1.410 . S
C447 C17 1.407 . S
C466 C62 1.398 . S
C483 C69 1.409 . S
C502 C30 1.402 . S
