# Generated by pormake.
# Topology lta, (4)-cn, num edge types: 1
# Building blocks:
#     Node 0, Type 0, BuildingBlock: QUQFOY_clean_sbu_3, # of connection points: 4
#     Node 1, Type 0, BuildingBlock: QUQFOY_clean_sbu_3, # of connection points: 4
#     Node 2, Type 0, BuildingBlock: QUQFOY_clean_sbu_3, # of connection points: 4
#     Node 3, Type 0, BuildingBlock: QUQFOY_clean_sbu_3, # of connection points: 4
#     Node 4, Type 0, BuildingBlock: QUQFOY_clean_sbu_3, # of connection points: 4
#     Node 5, Type 0, BuildingBlock: QUQFOY_clean_sbu_3, # of connection points: 4
#     Node 6, Type 0, BuildingBlock: QUQFOY_clean_sbu_3, # of connection points: 4
#     Node 7, Type 0, BuildingBlock: QUQFOY_clean_sbu_3, # of connection points: 4
#     Node 8, Type 0, BuildingBlock: QUQFOY_clean_sbu_3, # of connection points: 4
#     Node 9, Type 0, BuildingBlock: QUQFOY_clean_sbu_3, # of connection points: 4
#     Node 10, Type 0, BuildingBlock: QUQFOY_clean_sbu_3, # of connection points: 4
#     Node 11, Type 0, BuildingBlock: QUQFOY_clean_sbu_3, # of connection points: 4
#     Node 12, Type 0, BuildingBlock: QUQFOY_clean_sbu_3, # of connection points: 4
#     Node 13, Type 0, BuildingBlock: QUQFOY_clean_sbu_3, # of connection points: 4
#     Node 14, Type 0, BuildingBlock: QUQFOY_clean_sbu_3, # of connection points: 4
#     Node 15, Type 0, BuildingBlock: QUQFOY_clean_sbu_3, # of connection points: 4
#     Node 16, Type 0, BuildingBlock: QUQFOY_clean_sbu_3, # of connection points: 4
#     Node 17, Type 0, BuildingBlock: QUQFOY_clean_sbu_3, # of connection points: 4
#     Node 18, Type 0, BuildingBlock: QUQFOY_clean_sbu_3, # of connection points: 4
#     Node 19, Type 0, BuildingBlock: QUQFOY_clean_sbu_3, # of connection points: 4
#     Node 20, Type 0, BuildingBlock: QUQFOY_clean_sbu_3, # of connection points: 4
#     Node 21, Type 0, BuildingBlock: QUQFOY_clean_sbu_3, # of connection points: 4
#     Node 22, Type 0, BuildingBlock: QUQFOY_clean_sbu_3, # of connection points: 4
#     Node 23, Type 0, BuildingBlock: QUQFOY_clean_sbu_3, # of connection points: 4
#     Edge 24, Type (0, 0), BuildingBlock: KIFKEQ_clean_linker_1, # of connection points: 2
#     Edge 25, Type (0, 0), BuildingBlock: KIFKEQ_clean_linker_1, # of connection points: 2
#     Edge 26, Type (0, 0), BuildingBlock: KIFKEQ_clean_linker_1, # of connection points: 2
#     Edge 27, Type (0, 0), BuildingBlock: KIFKEQ_clean_linker_1, # of connection points: 2
#     Edge 28, Type (0, 0), BuildingBlock: KIFKEQ_clean_linker_1, # of connection points: 2
#     Edge 29, Type (0, 0), BuildingBlock: KIFKEQ_clean_linker_1, # of connection points: 2
#     Edge 30, Type (0, 0), BuildingBlock: KIFKEQ_clean_linker_1, # of connection points: 2
#     Edge 31, Type (0, 0), BuildingBlock: KIFKEQ_clean_linker_1, # of connection points: 2
#     Edge 32, Type (0, 0), BuildingBlock: KIFKEQ_clean_linker_1, # of connection points: 2
#     Edge 33, Type (0, 0), BuildingBlock: KIFKEQ_clean_linker_1, # of connection points: 2
#     Edge 34, Type (0, 0), BuildingBlock: KIFKEQ_clean_linker_1, # of connection points: 2
#     Edge 35, Type (0, 0), BuildingBlock: KIFKEQ_clean_linker_1, # of connection points: 2
#     Edge 36, Type (0, 0), BuildingBlock: KIFKEQ_clean_linker_1, # of connection points: 2
#     Edge 37, Type (0, 0), BuildingBlock: KIFKEQ_clean_linker_1, # of connection points: 2
#     Edge 38, Type (0, 0), BuildingBlock: KIFKEQ_clean_linker_1, # of connection points: 2
#     Edge 39, Type (0, 0), BuildingBlock: KIFKEQ_clean_linker_1, # of connection points: 2
#     Edge 40, Type (0, 0), BuildingBlock: KIFKEQ_clean_linker_1, # of connection points: 2
#     Edge 41, Type (0, 0), BuildingBlock: KIFKEQ_clean_linker_1, # of connection points: 2
#     Edge 42, Type (0, 0), BuildingBlock: KIFKEQ_clean_linker_1, # of connection points: 2
#     Edge 43, Type (0, 0), BuildingBlock: KIFKEQ_clean_linker_1, # of connection points: 2
#     Edge 44, Type (0, 0), BuildingBlock: KIFKEQ_clean_linker_1, # of connection points: 2
#     Edge 45, Type (0, 0), BuildingBlock: KIFKEQ_clean_linker_1, # of connection points: 2
#     Edge 46, Type (0, 0), BuildingBlock: KIFKEQ_clean_linker_1, # of connection points: 2
#     Edge 47, Type (0, 0), BuildingBlock: KIFKEQ_clean_linker_1, # of connection points: 2
#     Edge 48, Type (0, 0), BuildingBlock: KIFKEQ_clean_linker_1, # of connection points: 2
#     Edge 49, Type (0, 0), BuildingBlock: KIFKEQ_clean_linker_1, # of connection points: 2
#     Edge 50, Type (0, 0), BuildingBlock: KIFKEQ_clean_linker_1, # of connection points: 2
#     Edge 51, Type (0, 0), BuildingBlock: KIFKEQ_clean_linker_1, # of connection points: 2
#     Edge 52, Type (0, 0), BuildingBlock: KIFKEQ_clean_linker_1, # of connection points: 2
#     Edge 53, Type (0, 0), BuildingBlock: KIFKEQ_clean_linker_1, # of connection points: 2
#     Edge 54, Type (0, 0), BuildingBlock: KIFKEQ_clean_linker_1, # of connection points: 2
#     Edge 55, Type (0, 0), BuildingBlock: KIFKEQ_clean_linker_1, # of connection points: 2
#     Edge 56, Type (0, 0), BuildingBlock: KIFKEQ_clean_linker_1, # of connection points: 2
#     Edge 57, Type (0, 0), BuildingBlock: KIFKEQ_clean_linker_1, # of connection points: 2
#     Edge 58, Type (0, 0), BuildingBlock: KIFKEQ_clean_linker_1, # of connection points: 2
#     Edge 59, Type (0, 0), BuildingBlock: KIFKEQ_clean_linker_1, # of connection points: 2
#     Edge 60, Type (0, 0), BuildingBlock: KIFKEQ_clean_linker_1, # of connection points: 2
#     Edge 61, Type (0, 0), BuildingBlock: KIFKEQ_clean_linker_1, # of connection points: 2
#     Edge 62, Type (0, 0), BuildingBlock: KIFKEQ_clean_linker_1, # of connection points: 2
#     Edge 63, Type (0, 0), BuildingBlock: KIFKEQ_clean_linker_1, # of connection points: 2
#     Edge 64, Type (0, 0), BuildingBlock: KIFKEQ_clean_linker_1, # of connection points: 2
#     Edge 65, Type (0, 0), BuildingBlock: KIFKEQ_clean_linker_1, # of connection points: 2
#     Edge 66, Type (0, 0), BuildingBlock: KIFKEQ_clean_linker_1, # of connection points: 2
#     Edge 67, Type (0, 0), BuildingBlock: KIFKEQ_clean_linker_1, # of connection points: 2
#     Edge 68, Type (0, 0), BuildingBlock: KIFKEQ_clean_linker_1, # of connection points: 2
#     Edge 69, Type (0, 0), BuildingBlock: KIFKEQ_clean_linker_1, # of connection points: 2
#     Edge 70, Type (0, 0), BuildingBlock: KIFKEQ_clean_linker_1, # of connection points: 2
#     Edge 71, Type (0, 0), BuildingBlock: KIFKEQ_clean_linker_1, # of connection points: 2
# Relax obj value: 0.276
# Max RMSD: 0.159
# Mean RMSD: 0.159
data_MOF--net-lta--node1-QUQFOY_clean_sbu_3--edge1-KIFKEQ_clean_linker_1
_symmetry_space_group_name_H-M    P1
_symmetry_Int_Tables_number       1
_symmetry_cell_setting            triclinic
loop_
_symmetry_equiv_pos_as_xyz
'x, y, z'
_cell_length_a     58.989736
_cell_length_b     59.363437
_cell_length_c     59.333258
_cell_angle_alpha  89.942356
_cell_angle_beta   90.06907
_cell_angle_gamma 89.99874
loop_
_atom_site_label
_atom_site_type_symbol
_atom_site_fract_x
_atom_site_fract_y
_atom_site_fract_z
_atom_type_partial_charge
C0 C 0.11843 0.35467 0.4542 0.0
O1 O 0.11455 0.37125 0.46715 0.0
Cd2 Cd 0.11021 0.36817 0.5071 0.0
O3 O 0.12066 0.33483 0.46205 0.0
Cd4 Cd 0.11939 0.31517 0.49878 0.0
C5 C 0.06494 0.33186 0.50427 0.0
O6 O 0.1395 0.34348 0.51965 0.0
O7 O 0.12423 0.31762 0.54002 0.0
O8 O 0.15014 0.29468 0.48248 0.0
C9 C 0.13644 0.33518 0.53906 0.0
O10 O 0.07282 0.35113 0.50955 0.0
C11 C 0.14335 0.27525 0.48824 0.0
O12 O 0.07809 0.31585 0.49849 0.0
O13 O 0.12475 0.2741 0.49902 0.0
C14 C 0.64339 0.14779 0.47608 0.0
O15 O 0.62623 0.14412 0.48841 0.0
Cd16 Cd 0.62682 0.12377 0.52283 0.0
O17 O 0.66327 0.14237 0.48257 0.0
Cd18 Cd 0.68035 0.12737 0.51835 0.0
C19 C 0.65768 0.0767 0.50795 0.0
O20 O 0.6543 0.14245 0.54541 0.0
O21 O 0.67408 0.11456 0.55756 0.0
O22 O 0.70892 0.15521 0.52544 0.0
C23 C 0.65969 0.12988 0.56179 0.0
O24 O 0.63848 0.08512 0.51304 0.0
C25 C 0.72563 0.1429 0.52011 0.0
O26 O 0.67552 0.08869 0.50804 0.0
O27 O 0.72146 0.12301 0.51348 0.0
C28 C 0.85788 0.62611 0.45641 0.0
O29 O 0.8686 0.61249 0.46902 0.0
Cd30 Cd 0.87596 0.61872 0.50807 0.0
O31 O 0.85117 0.64508 0.46389 0.0
Cd32 Cd 0.85637 0.6655 0.50006 0.0
C33 C 0.91305 0.66066 0.49888 0.0
O34 O 0.84226 0.63556 0.5232 0.0
O35 O 0.85949 0.66146 0.54188 0.0
O36 O 0.82149 0.68468 0.49108 0.0
C37 C 0.84679 0.64422 0.54211 0.0
O38 O 0.91033 0.64159 0.50831 0.0
C39 C 0.82882 0.70428 0.49554 0.0
O40 O 0.89611 0.67204 0.49216 0.0
O41 O 0.84927 0.7059 0.50203 0.0
C42 C 0.34868 0.86208 0.48137 0.0
O43 O 0.36169 0.87174 0.4954 0.0
Cd44 Cd 0.35194 0.87741 0.53416 0.0
O45 O 0.32919 0.85512 0.48734 0.0
Cd46 Cd 0.3059 0.85615 0.52201 0.0
C47 C 0.308 0.91265 0.5234 0.0
O48 O 0.33475 0.84334 0.54769 0.0
O49 O 0.30565 0.8584 0.56367 0.0
O50 O 0.29206 0.82001 0.50998 0.0
C51 C 0.32373 0.847 0.56558 0.0
O52 O 0.32707 0.91025 0.53319 0.0
C53 C 0.2712 0.8246 0.51234 0.0
O54 O 0.29729 0.8957 0.51578 0.0
O55 O 0.26627 0.84425 0.51925 0.0
C56 C 0.11638 0.62617 0.50533 0.0
O57 O 0.10913 0.61263 0.49042 0.0
Cd58 Cd 0.10941 0.62035 0.45102 0.0
O59 O 0.12428 0.64539 0.49982 0.0
Cd60 Cd 0.12911 0.6674 0.46446 0.0
C61 C 0.0729 0.66437 0.45515 0.0
O62 O 0.14575 0.63701 0.44416 0.0
O63 O 0.13484 0.66426 0.42288 0.0
O64 O 0.16197 0.68338 0.48264 0.0
C65 C 0.14569 0.64591 0.42483 0.0
O66 O 0.07645 0.64496 0.44676 0.0
C67 C 0.15758 0.70362 0.47729 0.0
O68 O 0.08895 0.6755 0.4641 0.0
O69 O 0.13974 0.70709 0.46579 0.0
C70 C 0.34409 0.12979 0.50583 0.0
O71 O 0.35752 0.12117 0.49153 0.0
Cd72 Cd 0.34662 0.10804 0.45541 0.0
O73 O 0.32314 0.1324 0.50118 0.0
Cd74 Cd 0.29837 0.12574 0.46765 0.0
C75 C 0.30591 0.07018 0.47202 0.0
O76 O 0.32529 0.13866 0.44055 0.0
O77 O 0.29907 0.11852 0.42594 0.0
O78 O 0.2811 0.16125 0.47664 0.0
C79 C 0.31614 0.13115 0.42289 0.0
O80 O 0.32473 0.07355 0.46208 0.0
C81 C 0.26076 0.15469 0.47447 0.0
O82 O 0.29337 0.08658 0.47786 0.0
O83 O 0.25767 0.13418 0.46918 0.0
C84 C 0.83415 0.34801 0.50679 0.0
O85 O 0.83602 0.36349 0.49212 0.0
Cd86 Cd 0.84977 0.35684 0.45492 0.0
O87 O 0.83779 0.32751 0.50158 0.0
Cd88 Cd 0.84644 0.3041 0.46794 0.0
C89 C 0.89832 0.32725 0.46934 0.0
O90 O 0.82671 0.32688 0.44105 0.0
O91 O 0.84876 0.30229 0.4262 0.0
O92 O 0.81718 0.28055 0.48245 0.0
C93 C 0.83452 0.31804 0.4233 0.0
O94 O 0.88927 0.34517 0.46158 0.0
C95 C 0.82842 0.26233 0.4818 0.0
O96 O 0.88634 0.31002 0.47381 0.0
O97 O 0.84833 0.26323 0.47368 0.0
C98 C 0.64959 0.85427 0.52664 0.0
O99 O 0.65063 0.83701 0.5143 0.0
Cd100 Cd 0.6711 0.85716 0.4848 0.0
O101 O 0.66008 0.87156 0.51983 0.0
Cd102 Cd 0.68066 0.86196 0.482 0.0
C103 C 0.67395 0.91006 0.48328 0.0
O104 O 0.65393 0.84225 0.45414 0.0
O105 O 0.67147 0.87137 0.44172 0.0
O106 O 0.69748 0.82711 0.49645 0.0
C107 C 0.65779 0.85534 0.43781 0.0
O108 O 0.65701 0.89699 0.48406 0.0
C109 C 0.71735 0.83131 0.48952 0.0
O110 O 0.6934 0.90109 0.48235 0.0
O111 O 0.72037 0.84987 0.47925 0.0
C112 C 0.46287 0.11573 0.35377 0.0
O113 O 0.47535 0.10681 0.36879 0.0
Cd114 Cd 0.51594 0.10529 0.36673 0.0
O115 O 0.47156 0.12426 0.33608 0.0
Cd116 Cd 0.5097 0.12806 0.31913 0.0
C117 C 0.51678 0.07158 0.32078 0.0
O118 O 0.52705 0.14168 0.35308 0.0
O119 O 0.55069 0.13505 0.32626 0.0
O120 O 0.49359 0.16136 0.30223 0.0
C121 C 0.54718 0.14288 0.34583 0.0
O122 O 0.52251 0.07365 0.34136 0.0
C123 C 0.50058 0.15713 0.28246 0.0
O124 O 0.51008 0.08848 0.30945 0.0
O125 O 0.5123 0.13938 0.27979 0.0
C126 C 0.84955 0.45562 0.33919 0.0
O127 O 0.85381 0.46907 0.35528 0.0
Cd128 Cd 0.85922 0.50874 0.35248 0.0
O129 O 0.84794 0.46261 0.31893 0.0
Cd130 Cd 0.85267 0.49931 0.29898 0.0
C131 C 0.90629 0.50396 0.31904 0.0
O132 O 0.83176 0.52141 0.3259 0.0
O133 O 0.84989 0.54081 0.3014 0.0
O134 O 0.82525 0.48404 0.27279 0.0
C135 C 0.83677 0.54067 0.31828 0.0
O136 O 0.8977 0.51031 0.33768 0.0
C137 C 0.83492 0.49164 0.25525 0.0
O138 O 0.89373 0.49772 0.30273 0.0
O139 O 0.85312 0.50272 0.25799 0.0
C140 C 0.51683 0.86655 0.35513 0.0
O141 O 0.50342 0.87587 0.36901 0.0
Cd142 Cd 0.46362 0.88004 0.36349 0.0
O143 O 0.50962 0.85887 0.33642 0.0
Cd144 Cd 0.47289 0.85847 0.31617 0.0
C145 C 0.4704 0.91499 0.31886 0.0
O146 O 0.45135 0.84506 0.34759 0.0
O147 O 0.43091 0.85825 0.32066 0.0
O148 O 0.48621 0.82423 0.29896 0.0
C149 C 0.43181 0.84795 0.33938 0.0
O150 O 0.46186 0.91273 0.33843 0.0
C151 C 0.48137 0.83009 0.27894 0.0
O152 O 0.47743 0.89801 0.30791 0.0
O153 O 0.47196 0.84916 0.27627 0.0
C154 C 0.13835 0.50567 0.3421 0.0
O155 O 0.13526 0.4903 0.35668 0.0
Cd156 Cd 0.12038 0.45418 0.34802 0.0
O157 O 0.13523 0.50176 0.32119 0.0
Cd158 Cd 0.12626 0.46947 0.29583 0.0
C159 C 0.07364 0.4717 0.31657 0.0
O160 O 0.14396 0.44129 0.3184 0.0
O161 O 0.12145 0.42785 0.29348 0.0
O162 O 0.1583 0.48368 0.2762 0.0
C163 C 0.1354 0.42405 0.30931 0.0
O164 O 0.08207 0.46283 0.33429 0.0
C165 C 0.15011 0.48201 0.25652 0.0
O166 O 0.08614 0.47688 0.29987 0.0
O167 O 0.13007 0.47429 0.25474 0.0
C168 C 0.45029 0.84194 0.67007 0.0
O169 O 0.46602 0.82783 0.66717 0.0
Cd170 Cd 0.49483 0.85531 0.67815 0.0
O171 O 0.45586 0.86081 0.67827 0.0
Cd172 Cd 0.49954 0.86133 0.68658 0.0
C173 C 0.48521 0.90745 0.68008 0.0
O174 O 0.52308 0.84523 0.65432 0.0
O175 O 0.53336 0.87782 0.66619 0.0
O176 O 0.50185 0.8251 0.70583 0.0
C177 C 0.53708 0.86123 0.65322 0.0
O178 O 0.4823 0.89328 0.6644 0.0
C179 C 0.51031 0.83275 0.72392 0.0
O180 O 0.4943 0.90041 0.6981 0.0
O181 O 0.51348 0.8539 0.72507 0.0
C182 C 0.14 0.45493 0.65291 0.0
O183 O 0.1558 0.46916 0.65439 0.0
Cd184 Cd 0.12977 0.49859 0.66823 0.0
O185 O 0.12078 0.46111 0.65995 0.0
Cd186 Cd 0.12482 0.5015 0.67655 0.0
C187 C 0.07726 0.4913 0.67118 0.0
O188 O 0.14029 0.52825 0.6465 0.0
O189 O 0.10933 0.53856 0.66244 0.0
O190 O 0.16226 0.49505 0.69316 0.0
C191 C 0.12487 0.54289 0.64828 0.0
O192 O 0.09015 0.49211 0.65415 0.0
C193 C 0.15738 0.50246 0.71257 0.0
O194 O 0.08626 0.49472 0.69026 0.0
O195 O 0.13726 0.50954 0.71557 0.0
C196 C 0.51168 0.11846 0.63102 0.0
O197 O 0.49866 0.11505 0.6143 0.0
Cd198 Cd 0.45835 0.11496 0.61609 0.0
O199 O 0.50368 0.12234 0.65058 0.0
Cd200 Cd 0.46609 0.12512 0.66932 0.0
C201 C 0.45513 0.07132 0.65398 0.0
O202 O 0.44942 0.14646 0.63956 0.0
O203 O 0.42536 0.13498 0.66408 0.0
O204 O 0.48573 0.15214 0.69258 0.0
C205 C 0.4291 0.14615 0.64624 0.0
O206 O 0.45175 0.0785 0.63402 0.0
C207 C 0.47738 0.1453 0.71106 0.0
O208 O 0.46129 0.08464 0.66962 0.0
O209 O 0.46336 0.12909 0.71015 0.0
C210 C 0.85042 0.50603 0.62794 0.0
O211 O 0.85435 0.49162 0.61264 0.0
Cd212 Cd 0.86338 0.4534 0.61894 0.0
O213 O 0.85085 0.50046 0.64872 0.0
Cd214 Cd 0.8568 0.4641 0.66963 0.0
C215 C 0.91053 0.46081 0.65146 0.0
O216 O 0.83352 0.44305 0.64427 0.0
O217 O 0.85381 0.42203 0.66543 0.0
O218 O 0.83162 0.48033 0.6975 0.0
C219 C 0.83801 0.42343 0.65101 0.0
O220 O 0.90276 0.45342 0.63285 0.0
C221 C 0.84142 0.47128 0.71428 0.0
O222 O 0.89718 0.46701 0.66701 0.0
O223 O 0.85844 0.45887 0.71029 0.0
C224 C 0.35528 0.47485 0.11416 0.0
O225 O 0.36945 0.48999 0.10868 0.0
Cd226 Cd 0.36189 0.52937 0.10709 0.0
O227 O 0.33487 0.47986 0.1191 0.0
Cd228 Cd 0.31155 0.51471 0.11959 0.0
C229 C 0.32344 0.52389 0.06482 0.0
O230 O 0.33894 0.53688 0.13921 0.0
O231 O 0.31207 0.55637 0.12459 0.0
O232 O 0.29107 0.49753 0.15003 0.0
C233 C 0.32967 0.55591 0.13688 0.0
O234 O 0.34204 0.5327 0.07121 0.0
C235 C 0.27145 0.50216 0.14252 0.0
O236 O 0.31007 0.51469 0.07889 0.0
O237 O 0.27037 0.51258 0.12384 0.0
C238 C 0.3695 0.51249 0.84152 0.0
O239 O 0.38335 0.49746 0.84805 0.0
Cd240 Cd 0.37173 0.46199 0.86315 0.0
O241 O 0.34826 0.50866 0.84136 0.0
Cd242 Cd 0.32235 0.47672 0.84925 0.0
C243 C 0.33511 0.48203 0.90357 0.0
O244 O 0.3462 0.44658 0.83601 0.0
O245 O 0.31929 0.43602 0.85801 0.0
O246 O 0.30322 0.48831 0.81547 0.0
C247 C 0.33534 0.43054 0.84493 0.0
O248 O 0.35321 0.47116 0.89916 0.0
C249 C 0.28341 0.48785 0.82378 0.0
O250 O 0.32146 0.48776 0.88803 0.0
O251 O 0.28151 0.48161 0.84417 0.0
C252 C 0.45898 0.3189 0.85161 0.0
O253 O 0.47041 0.31489 0.83416 0.0
Cd254 Cd 0.50347 0.30209 0.85566 0.0
O255 O 0.46807 0.31368 0.87021 0.0
Cd256 Cd 0.50724 0.29519 0.86011 0.0
C257 C 0.50745 0.30052 0.90833 0.0
O258 O 0.52972 0.32278 0.8362 0.0
O259 O 0.54637 0.31183 0.86637 0.0
O260 O 0.48973 0.27248 0.82994 0.0
C261 C 0.54722 0.32343 0.84841 0.0
O262 O 0.50387 0.31739 0.89572 0.0
C263 C 0.50195 0.25524 0.83324 0.0
O264 O 0.51056 0.2818 0.89869 0.0
O265 O 0.5169 0.25651 0.84859 0.0
C266 C 0.64066 0.46049 0.8377 0.0
O267 O 0.62683 0.47685 0.83868 0.0
Cd268 Cd 0.63677 0.51369 0.85015 0.0
O269 O 0.6618 0.46353 0.84121 0.0
Cd270 Cd 0.68785 0.49624 0.8483 0.0
C271 C 0.66452 0.49916 0.89947 0.0
O272 O 0.66748 0.52282 0.82579 0.0
O273 O 0.6904 0.53822 0.84907 0.0
O274 O 0.71337 0.47764 0.82262 0.0
C275 C 0.67638 0.54074 0.83307 0.0
O276 O 0.64741 0.50823 0.88996 0.0
C277 C 0.7313 0.483 0.83318 0.0
O278 O 0.68136 0.49248 0.88794 0.0
O279 O 0.72904 0.49434 0.85115 0.0
C280 C 0.53796 0.6244 0.84863 0.0
O281 O 0.52315 0.60935 0.85246 0.0
Cd282 Cd 0.48443 0.61678 0.8602 0.0
O283 O 0.53266 0.64522 0.84858 0.0
Cd284 Cd 0.49757 0.66824 0.85271 0.0
C285 C 0.49024 0.65126 0.90632 0.0
O286 O 0.47591 0.64265 0.83051 0.0
O287 O 0.45533 0.66731 0.84695 0.0
O288 O 0.5172 0.69145 0.8258 0.0
C289 C 0.45645 0.65093 0.83329 0.0
O290 O 0.4832 0.63255 0.8985 0.0
C291 C 0.51107 0.71014 0.83415 0.0
O292 O 0.49764 0.66653 0.89324 0.0
O293 O 0.49823 0.70946 0.8513 0.0
C294 C 0.63552 0.5181 0.11816 0.0
O295 O 0.61976 0.50398 0.11457 0.0
Cd296 Cd 0.62348 0.46421 0.11199 0.0
O297 O 0.65601 0.51178 0.12079 0.0
Cd298 Cd 0.67682 0.47527 0.11919 0.0
C299 C 0.65781 0.4677 0.0658 0.0
O300 O 0.64963 0.45461 0.14107 0.0
O301 O 0.6748 0.43398 0.12523 0.0
O302 O 0.70263 0.4927 0.1457 0.0
C303 C 0.65776 0.43514 0.13815 0.0
O304 O 0.63899 0.46124 0.07409 0.0
C305 C 0.72045 0.48444 0.13701 0.0
O306 O 0.67378 0.47463 0.07846 0.0
O307 O 0.71802 0.47215 0.11968 0.0
C308 C 0.45905 0.65899 0.1346 0.0
O309 O 0.47244 0.66108 0.15103 0.0
Cd310 Cd 0.50355 0.67407 0.12657 0.0
O311 O 0.46649 0.66495 0.11555 0.0
Cd312 Cd 0.50646 0.68266 0.12206 0.0
C313 C 0.50032 0.67571 0.07405 0.0
O314 O 0.53346 0.65357 0.13922 0.0
O315 O 0.54602 0.67183 0.11056 0.0
O316 O 0.49742 0.69853 0.15894 0.0
C317 C 0.54966 0.65724 0.12581 0.0
O318 O 0.50011 0.65902 0.08735 0.0
C319 C 0.50309 0.71856 0.15431 0.0
O320 O 0.50269 0.69504 0.08276 0.0
O321 O 0.5106 0.72229 0.13457 0.0
C322 C 0.5313 0.3275 0.13824 0.0
O323 O 0.51753 0.32563 0.15435 0.0
Cd324 Cd 0.48671 0.31309 0.12909 0.0
O325 O 0.52422 0.32137 0.11911 0.0
Cd326 Cd 0.48332 0.30555 0.12525 0.0
C327 C 0.49088 0.30587 0.07709 0.0
O328 O 0.45793 0.33689 0.13949 0.0
O329 O 0.44565 0.31911 0.11046 0.0
O330 O 0.48817 0.29086 0.16381 0.0
C331 C 0.44234 0.33429 0.12514 0.0
O332 O 0.49312 0.32385 0.08835 0.0
C333 C 0.48205 0.27094 0.1592 0.0
O334 O 0.48578 0.28826 0.08798 0.0
O335 O 0.47634 0.26695 0.13895 0.0
H336 H 0.16933 0.40516 0.33352 0.0
H337 H 0.09863 0.39729 0.31638 0.0
H338 H 0.16422 0.38038 0.366 0.0
H339 H 0.09343 0.37297 0.34925 0.0
H340 H 0.09604 0.38624 0.42985 0.0
H341 H 0.09962 0.39413 0.38967 0.0
H342 H 0.14808 0.34006 0.38311 0.0
H343 H 0.14396 0.33158 0.42348 0.0
C344 C 0.15298 0.39725 0.33612 0.0
C345 C 0.13434 0.40321 0.32264 0.0
C346 C 0.15006 0.38309 0.35467 0.0
C347 C 0.12839 0.37509 0.36015 0.0
C348 C 0.11029 0.37901 0.34526 0.0
C349 C 0.11331 0.39281 0.32642 0.0
C350 C 0.10723 0.37584 0.41979 0.0
C351 C 0.11987 0.35845 0.42972 0.0
C352 C 0.10905 0.38016 0.39679 0.0
C353 C 0.1239 0.36749 0.38338 0.0
C354 C 0.13633 0.34983 0.39316 0.0
C355 C 0.13403 0.3451 0.41616 0.0
H356 H 0.62131 0.18554 0.46296 0.0
H357 H 0.65468 0.12623 0.43751 0.0
H358 H 0.6031 0.19128 0.42649 0.0
H359 H 0.63535 0.13087 0.40145 0.0
H360 H 0.59331 0.13973 0.33927 0.0
H361 H 0.62313 0.14803 0.36687 0.0
H362 H 0.57196 0.17017 0.41408 0.0
H363 H 0.54278 0.16261 0.38664 0.0
C364 C 0.6253 0.17419 0.44924 0.0
C365 C 0.63921 0.15541 0.45292 0.0
C366 C 0.61469 0.17726 0.42844 0.0
C367 C 0.61707 0.16107 0.41127 0.0
C368 C 0.63305 0.14368 0.41422 0.0
C369 C 0.64416 0.14097 0.4349 0.0
C370 C 0.58861 0.14681 0.35542 0.0
C371 C 0.5657 0.15024 0.36092 0.0
C372 C 0.60566 0.1515 0.37124 0.0
C373 C 0.60004 0.15979 0.39276 0.0
C374 C 0.57714 0.16426 0.39762 0.0
C375 C 0.56026 0.15961 0.38192 0.0
H376 H 0.82021 0.6352 0.43103 0.0
H377 H 0.88553 0.60242 0.42898 0.0
H378 H 0.81163 0.62053 0.39317 0.0
H379 H 0.87732 0.58857 0.39116 0.0
H380 H 0.86348 0.57822 0.31863 0.0
H381 H 0.86672 0.60526 0.34948 0.0
H382 H 0.80892 0.57503 0.38214 0.0
H383 H 0.80592 0.54758 0.35159 0.0
C384 C 0.83287 0.62531 0.42227 0.0
C385 C 0.85344 0.61972 0.43287 0.0
C386 C 0.82798 0.617 0.40072 0.0
C387 C 0.84393 0.60367 0.38931 0.0
C388 C 0.8649 0.59909 0.39952 0.0
C389 C 0.86951 0.60683 0.4212 0.0
C390 C 0.85097 0.57782 0.33197 0.0
C391 C 0.83465 0.56059 0.33294 0.0
C392 C 0.85286 0.59328 0.3496 0.0
C393 C 0.83815 0.59204 0.36813 0.0
C394 C 0.82035 0.57637 0.36792 0.0
C395 C 0.81872 0.56063 0.35052 0.0
H396 H 0.37709 0.88932 0.4579 0.0
H397 H 0.33697 0.82875 0.4518 0.0
H398 H 0.39073 0.88429 0.41938 0.0
H399 H 0.35133 0.82337 0.4133 0.0
H400 H 0.423 0.815 0.36959 0.0
H401 H 0.39702 0.81743 0.4016 0.0
H402 H 0.37187 0.88094 0.37651 0.0
H403 H 0.39739 0.8782 0.344 0.0
C404 C 0.37114 0.87499 0.44827 0.0
C405 C 0.35611 0.85934 0.45782 0.0
C406 C 0.37875 0.87226 0.4262 0.0
C407 C 0.37185 0.85358 0.41344 0.0
C408 C 0.35666 0.838 0.42284 0.0
C409 C 0.34855 0.84105 0.44478 0.0
C410 C 0.41123 0.82897 0.37045 0.0
C411 C 0.41211 0.84638 0.35445 0.0
C412 C 0.39639 0.83035 0.3887 0.0
C413 C 0.38264 0.84941 0.39144 0.0
C414 C 0.38234 0.86606 0.3746 0.0
C415 C 0.3968 0.8644 0.35603 0.0
H416 H 0.15925 0.56099 0.62382 0.0
H417 H 0.08748 0.56739 0.63674 0.0
H418 H 0.15581 0.58689 0.59205 0.0
H419 H 0.08403 0.59316 0.60468 0.0
H420 H 0.08856 0.5952 0.52453 0.0
H421 H 0.08962 0.5811 0.56308 0.0
H422 H 0.14414 0.62706 0.57867 0.0
H423 H 0.14289 0.64154 0.53995 0.0
C424 C 0.14285 0.56839 0.6202 0.0
C425 C 0.12358 0.56202 0.63252 0.0
C426 C 0.14092 0.58331 0.60211 0.0
C427 C 0.11963 0.59183 0.59587 0.0
C428 C 0.10061 0.58669 0.60915 0.0
C429 C 0.10261 0.57203 0.62749 0.0
C430 C 0.10057 0.60253 0.53624 0.0
C431 C 0.11581 0.61928 0.52921 0.0
C432 C 0.101 0.59462 0.55836 0.0
C433 C 0.11691 0.60307 0.5738 0.0
C434 C 0.1317 0.62034 0.56703 0.0
C435 C 0.13098 0.62857 0.54494 0.0
H436 H 0.32079 0.13934 0.54486 0.0
H437 H 0.38823 0.13656 0.51654 0.0
H438 H 0.33708 0.14949 0.58161 0.0
H439 H 0.40421 0.14654 0.55275 0.0
H440 H 0.38671 0.12754 0.64333 0.0
H441 H 0.36211 0.12865 0.61015 0.0
H442 H 0.40593 0.17839 0.57978 0.0
H443 H 0.43074 0.17686 0.6126 0.0
C444 C 0.339 0.14112 0.54641 0.0
C445 C 0.35325 0.13704 0.52785 0.0
C446 C 0.34828 0.14689 0.56739 0.0
C447 C 0.37187 0.14907 0.56995 0.0
C448 C 0.38594 0.14547 0.55122 0.0
C449 C 0.37677 0.13948 0.53049 0.0
C450 C 0.3906 0.13929 0.62991 0.0
C451 C 0.41085 0.15176 0.63024 0.0
C452 C 0.3765 0.13995 0.61093 0.0
C453 C 0.38246 0.1532 0.5922 0.0
C454 C 0.40124 0.16766 0.5938 0.0
C455 C 0.41538 0.16684 0.61259 0.0
H456 H 0.79837 0.4185 0.62875 0.0
H457 H 0.86271 0.3859 0.64049 0.0
H458 H 0.79188 0.39443 0.59612 0.0
H459 H 0.85657 0.3622 0.60742 0.0
H460 H 0.83966 0.32226 0.54484 0.0
H461 H 0.83517 0.3344 0.58403 0.0
H462 H 0.81266 0.3997 0.56083 0.0
H463 H 0.81698 0.38766 0.52205 0.0
C464 C 0.81076 0.40563 0.62476 0.0
C465 C 0.83119 0.40425 0.63684 0.0
C466 C 0.80712 0.39196 0.60602 0.0
C467 C 0.824 0.3769 0.59886 0.0
C468 C 0.84325 0.37367 0.61251 0.0
C469 C 0.84679 0.38724 0.63147 0.0
C470 C 0.83335 0.33906 0.54817 0.0
C471 C 0.82888 0.3541 0.53036 0.0
C472 C 0.83084 0.34599 0.57059 0.0
C473 C 0.82351 0.36795 0.57553 0.0
C474 C 0.81799 0.38253 0.55765 0.0
C475 C 0.82069 0.37572 0.53536 0.0
H476 H 0.55914 0.89667 0.63357 0.0
H477 H 0.55804 0.82407 0.6372 0.0
H478 H 0.58813 0.8948 0.60426 0.0
H479 H 0.5879 0.82205 0.60913 0.0
H480 H 0.61695 0.82439 0.53869 0.0
H481 H 0.59148 0.82647 0.57062 0.0
H482 H 0.6256 0.88676 0.59364 0.0
H483 H 0.65035 0.88526 0.56072 0.0
C484 C 0.56546 0.88035 0.62838 0.0
C485 C 0.5562 0.86052 0.63734 0.0
C486 C 0.58218 0.87923 0.61169 0.0
C487 C 0.59023 0.85823 0.60403 0.0
C488 C 0.58168 0.83849 0.61403 0.0
C489 C 0.56467 0.83962 0.63025 0.0
C490 C 0.61914 0.83799 0.55067 0.0
C491 C 0.63562 0.85466 0.54722 0.0
C492 C 0.6046 0.83913 0.56913 0.0
C493 C 0.60646 0.85675 0.58489 0.0
C494 C 0.6234 0.87315 0.5817 0.0
C495 C 0.63771 0.87221 0.56295 0.0
H496 H 0.32365 0.09462 0.39616 0.0
H497 H 0.34112 0.16466 0.40484 0.0
H498 H 0.35686 0.08953 0.37197 0.0
H499 H 0.37399 0.15972 0.38048 0.0
H500 H 0.43229 0.14432 0.33409 0.0
H501 H 0.39177 0.14765 0.34256 0.0
H502 H 0.39713 0.09186 0.389 0.0
H503 H 0.43745 0.0887 0.38085 0.0
C504 C 0.33391 0.10916 0.39194 0.0
C505 C 0.33 0.13001 0.40237 0.0
C506 C 0.35299 0.10621 0.37829 0.0
C507 C 0.3681 0.12417 0.37464 0.0
C508 C 0.36259 0.14562 0.38291 0.0
C509 C 0.34378 0.14846 0.39684 0.0
C510 C 0.4247 0.13256 0.34584 0.0
C511 C 0.43806 0.11644 0.35706 0.0
C512 C 0.40155 0.13444 0.35061 0.0
C513 C 0.39133 0.11991 0.36629 0.0
C514 C 0.40448 0.10305 0.37656 0.0
C515 C 0.42763 0.10143 0.37212 0.0
H516 H 0.8005 0.34532 0.40904 0.0
H517 H 0.86651 0.32021 0.39017 0.0
H518 H 0.80361 0.3749 0.38057 0.0
H519 H 0.86977 0.35016 0.36204 0.0
H520 H 0.87667 0.43149 0.36657 0.0
H521 H 0.87177 0.39257 0.37872 0.0
H522 H 0.81246 0.38658 0.33646 0.0
H523 H 0.81794 0.42568 0.32351 0.0
C524 C 0.81527 0.34562 0.39821 0.0
C525 C 0.83339 0.33073 0.40198 0.0
C526 C 0.81699 0.36246 0.38186 0.0
C527 C 0.83701 0.36484 0.36934 0.0
C528 C 0.85417 0.34858 0.37153 0.0
C529 C 0.85227 0.33146 0.3876 0.0
C530 C 0.86287 0.4217 0.35951 0.0
C531 C 0.84758 0.43147 0.34427 0.0
C532 C 0.8602 0.39941 0.36627 0.0
C533 C 0.84186 0.38661 0.35834 0.0
C534 C 0.82685 0.39613 0.34258 0.0
C535 C 0.82994 0.41838 0.33526 0.0
H536 H 0.5408 0.89515 0.38145 0.0
H537 H 0.54746 0.8347 0.34152 0.0
H538 H 0.58001 0.89151 0.39363 0.0
H539 H 0.58694 0.83079 0.35423 0.0
H540 H 0.63155 0.82055 0.42322 0.0
H541 H 0.60087 0.82299 0.39575 0.0
H542 H 0.62151 0.89068 0.37881 0.0
H543 H 0.65237 0.88824 0.40619 0.0
C544 C 0.55076 0.88119 0.37512 0.0
C545 C 0.54109 0.86506 0.36078 0.0
C546 C 0.57328 0.87927 0.38186 0.0
C547 C 0.58648 0.86096 0.3747 0.0
C548 C 0.57707 0.84512 0.35982 0.0
C549 C 0.55457 0.84733 0.35264 0.0
C550 C 0.63003 0.83565 0.41306 0.0
C551 C 0.64398 0.85439 0.41715 0.0
C552 C 0.61257 0.83698 0.39724 0.0
C553 C 0.60871 0.85714 0.38548 0.0
C554 C 0.62411 0.87502 0.38786 0.0
C555 C 0.64176 0.8736 0.40349 0.0
H556 H 0.18235 0.61915 0.4211 0.0
H557 H 0.12218 0.64039 0.38558 0.0
H558 H 0.18641 0.58733 0.3955 0.0
H559 H 0.12561 0.60797 0.36042 0.0
H560 H 0.13736 0.54538 0.31824 0.0
H561 H 0.14513 0.58328 0.33268 0.0
H562 H 0.16175 0.55477 0.39768 0.0
H563 H 0.15434 0.51735 0.38338 0.0
C564 C 0.17043 0.61736 0.4073 0.0
C565 C 0.15183 0.63194 0.40538 0.0
C566 C 0.17264 0.59909 0.39276 0.0
C567 C 0.15596 0.59479 0.37639 0.0
C568 C 0.13874 0.61083 0.37287 0.0
C569 C 0.13675 0.6294 0.38726 0.0
C570 C 0.14304 0.54726 0.3355 0.0
C571 C 0.14504 0.5284 0.34974 0.0
C572 C 0.14743 0.56894 0.34374 0.0
C573 C 0.15418 0.57203 0.36626 0.0
C574 C 0.15702 0.55302 0.38012 0.0
C575 C 0.1525 0.53151 0.37199 0.0
H576 H 0.33401 0.87821 0.59718 0.0
H577 H 0.33879 0.80737 0.58222 0.0
H578 H 0.36082 0.87364 0.62799 0.0
H579 H 0.36411 0.80205 0.6143 0.0
H580 H 0.43723 0.81061 0.63945 0.0
H581 H 0.40167 0.8091 0.61932 0.0
H582 H 0.37483 0.86178 0.66209 0.0
H583 H 0.41136 0.86426 0.6812 0.0
C584 C 0.3401 0.86146 0.60124 0.0
C585 C 0.33465 0.84315 0.58742 0.0
C586 C 0.35543 0.85873 0.619 0.0
C587 C 0.36517 0.83749 0.62351 0.0
C588 C 0.35768 0.81879 0.61092 0.0
C589 C 0.34296 0.82171 0.59273 0.0
C590 C 0.42358 0.82157 0.64485 0.0
C591 C 0.42717 0.83781 0.6616 0.0
C592 C 0.40297 0.8206 0.63339 0.0
C593 C 0.38522 0.83556 0.63875 0.0
C594 C 0.38824 0.85045 0.65698 0.0
C595 C 0.40911 0.85176 0.6681 0.0
H596 H 0.17887 0.43811 0.63445 0.0
H597 H 0.10835 0.42223 0.64608 0.0
H598 H 0.18251 0.40461 0.6109 0.0
H599 H 0.11186 0.38912 0.62226 0.0
H600 H 0.16267 0.3727 0.54137 0.0
H601 H 0.16727 0.3978 0.57332 0.0
H602 H 0.12859 0.35207 0.61494 0.0
H603 H 0.12365 0.32697 0.58267 0.0
C604 C 0.16426 0.42727 0.63228 0.0
C605 C 0.14323 0.43297 0.64177 0.0
C606 C 0.16633 0.40814 0.61876 0.0
C607 C 0.14741 0.39437 0.61452 0.0
C608 C 0.12681 0.39924 0.62535 0.0
C609 C 0.12475 0.41835 0.63885 0.0
C610 C 0.1555 0.36777 0.55743 0.0
C611 C 0.14248 0.34808 0.55943 0.0
C612 C 0.15831 0.38207 0.57583 0.0
C613 C 0.14813 0.377 0.59662 0.0
C614 C 0.13638 0.35653 0.59903 0.0
C615 C 0.13362 0.34215 0.58059 0.0
H616 H 0.53463 0.09313 0.60077 0.0
H617 H 0.54423 0.14268 0.65319 0.0
H618 H 0.57494 0.09465 0.592 0.0
H619 H 0.58478 0.14462 0.64391 0.0
H620 H 0.63501 0.16357 0.58036 0.0
H621 H 0.60188 0.15912 0.60459 0.0
H622 H 0.61557 0.08792 0.61015 0.0
H623 H 0.64902 0.09239 0.58623 0.0
C624 C 0.54546 0.10415 0.61058 0.0
C625 C 0.53637 0.11794 0.6275 0.0
C626 C 0.56854 0.10483 0.60574 0.0
C627 C 0.5829 0.11963 0.61741 0.0
C628 C 0.574 0.13296 0.63483 0.0
C629 C 0.55089 0.13187 0.64007 0.0
C630 C 0.63144 0.14714 0.5875 0.0
C631 C 0.64434 0.12828 0.58125 0.0
C632 C 0.61257 0.14462 0.60143 0.0
C633 C 0.60615 0.12315 0.60898 0.0
C634 C 0.62024 0.10462 0.60444 0.0
C635 C 0.63938 0.10721 0.59084 0.0
H636 H 0.85775 0.54554 0.65115 0.0
H637 H 0.83103 0.51886 0.58885 0.0
H638 H 0.85234 0.58405 0.63667 0.0
H639 H 0.8257 0.55664 0.5746 0.0
H640 H 0.87507 0.63676 0.57787 0.0
H641 H 0.87146 0.60583 0.60497 0.0
H642 H 0.80431 0.59161 0.57955 0.0
H643 H 0.80839 0.6218 0.55198 0.0
C644 C 0.85036 0.54792 0.6346 0.0
C645 C 0.84501 0.52927 0.62101 0.0
C646 C 0.84733 0.56988 0.62632 0.0
C647 C 0.83845 0.57337 0.60458 0.0
C648 C 0.83218 0.55461 0.59157 0.0
C649 C 0.83549 0.53289 0.59964 0.0
C650 C 0.85925 0.62753 0.57873 0.0
C651 C 0.84215 0.63125 0.56269 0.0
C652 C 0.85714 0.60987 0.59427 0.0
C653 C 0.83781 0.59599 0.59398 0.0
C654 C 0.8196 0.60172 0.57979 0.0
C655 C 0.82188 0.61902 0.56408 0.0
H656 H 0.34046 0.4408 0.14156 0.0
H657 H 0.38696 0.45573 0.08737 0.0
H658 H 0.35605 0.40247 0.14407 0.0
H659 H 0.40197 0.41754 0.08951 0.0
H660 H 0.4155 0.3436 0.08887 0.0
H661 H 0.3887 0.37491 0.08531 0.0
H662 H 0.39879 0.39134 0.15545 0.0
H663 H 0.42586 0.3604 0.15896 0.0
C664 C 0.35367 0.43573 0.12994 0.0
C665 C 0.36273 0.4512 0.11444 0.0
C666 C 0.36251 0.4139 0.13137 0.0
C667 C 0.38004 0.40714 0.11687 0.0
C668 C 0.38825 0.42229 0.10067 0.0
C669 C 0.37983 0.44418 0.09961 0.0
C670 C 0.41153 0.35354 0.10365 0.0
C671 C 0.42294 0.34985 0.12411 0.0
C672 C 0.39625 0.3714 0.1016 0.0
C673 C 0.39184 0.38547 0.1201 0.0
C674 C 0.40181 0.38059 0.14102 0.0
C675 C 0.41739 0.36302 0.14296 0.0
H676 H 0.41666 0.64628 0.85658 0.0
H677 H 0.45211 0.62374 0.79712 0.0
H678 H 0.3908 0.61423 0.85341 0.0
H679 H 0.4261 0.59204 0.7937 0.0
H680 H 0.41238 0.52294 0.82862 0.0
H681 H 0.42796 0.56001 0.82095 0.0
H682 H 0.36215 0.58997 0.83183 0.0
H683 H 0.34635 0.55252 0.8395 0.0
C684 C 0.41826 0.63508 0.84226 0.0
C685 C 0.43658 0.63717 0.82732 0.0
C686 C 0.40347 0.61672 0.84045 0.0
C687 C 0.40684 0.60039 0.82362 0.0
C688 C 0.42344 0.60414 0.80711 0.0
C689 C 0.43824 0.62233 0.809 0.0
C690 C 0.40113 0.53736 0.8291 0.0
C691 C 0.3782 0.53483 0.8348 0.0
C692 C 0.41 0.5586 0.82448 0.0
C693 C 0.39621 0.57787 0.82564 0.0
C694 C 0.37311 0.57537 0.83079 0.0
C695 C 0.36411 0.55397 0.83512 0.0
H696 H 0.44294 0.34345 0.81658 0.0
H697 H 0.4254 0.32076 0.88345 0.0
H698 H 0.40895 0.36607 0.81512 0.0
H699 H 0.39014 0.34227 0.88154 0.0
H700 H 0.35066 0.40981 0.88252 0.0
H701 H 0.37755 0.37879 0.88404 0.0
H702 H 0.37076 0.37001 0.81189 0.0
H703 H 0.34541 0.40243 0.81048 0.0
C704 C 0.43144 0.34288 0.83079 0.0
C705 C 0.43691 0.33052 0.85021 0.0
C706 C 0.41168 0.35571 0.82989 0.0
C707 C 0.39651 0.35613 0.84821 0.0
C708 C 0.40154 0.34281 0.86726 0.0
C709 C 0.42167 0.33035 0.86835 0.0
C710 C 0.35455 0.40077 0.86714 0.0
C711 C 0.34612 0.40835 0.84639 0.0
C712 C 0.36995 0.3829 0.86795 0.0
C713 C 0.37687 0.37201 0.84801 0.0
C714 C 0.36658 0.37842 0.82751 0.0
C715 C 0.35176 0.39674 0.82667 0.0
H716 H 0.60039 0.44958 0.81854 0.0
H717 H 0.65994 0.41988 0.84888 0.0
H718 H 0.58215 0.41302 0.81778 0.0
H719 H 0.64158 0.38283 0.8479 0.0
H720 H 0.58216 0.33621 0.87595 0.0
H721 H 0.60914 0.3667 0.86924 0.0
H722 H 0.58232 0.37529 0.80198 0.0
H723 H 0.55505 0.34527 0.80889 0.0
C724 C 0.60976 0.43512 0.82467 0.0
C725 C 0.6315 0.43764 0.83398 0.0
C726 C 0.59937 0.41408 0.82406 0.0
C727 C 0.6104 0.39501 0.83283 0.0
C728 C 0.63262 0.39728 0.84117 0.0
C729 C 0.64316 0.41842 0.8416 0.0
C730 C 0.58237 0.34431 0.85959 0.0
C731 C 0.56623 0.3387 0.8431 0.0
C732 C 0.59792 0.36168 0.85568 0.0
C733 C 0.59761 0.37362 0.83519 0.0
C734 C 0.58266 0.36669 0.81809 0.0
C735 C 0.56707 0.34948 0.82204 0.0
H736 H 0.67185 0.57576 0.86271 0.0
H737 H 0.65253 0.55331 0.7962 0.0
H738 H 0.6405 0.60265 0.8625 0.0
H739 H 0.62149 0.5804 0.79588 0.0
H740 H 0.57751 0.64862 0.85269 0.0
H741 H 0.61613 0.63541 0.84423 0.0
H742 H 0.58882 0.57138 0.82288 0.0
H743 H 0.55082 0.58421 0.83151 0.0
C744 C 0.66164 0.57736 0.84761 0.0
C745 C 0.66418 0.56212 0.82968 0.0
C746 C 0.6437 0.59278 0.84749 0.0
C747 C 0.62831 0.59312 0.82941 0.0
C748 C 0.63293 0.58014 0.81018 0.0
C749 C 0.6507 0.56469 0.81035 0.0
C750 C 0.57987 0.6318 0.84602 0.0
C751 C 0.56123 0.61734 0.84295 0.0
C752 C 0.60187 0.62433 0.84116 0.0
C753 C 0.60536 0.60255 0.8326 0.0
C754 C 0.5866 0.58843 0.82902 0.0
C755 C 0.56484 0.59568 0.83425 0.0
H756 H 0.65101 0.55105 0.14656 0.0
H757 H 0.60692 0.53908 0.0897 0.0
H758 H 0.63695 0.59006 0.14888 0.0
H759 H 0.59354 0.57784 0.09153 0.0
H760 H 0.57965 0.65039 0.09156 0.0
H761 H 0.60771 0.62016 0.08921 0.0
H762 H 0.59378 0.60177 0.15821 0.0
H763 H 0.5655 0.6317 0.16052 0.0
C764 C 0.63877 0.55696 0.13428 0.0
C765 C 0.62978 0.54217 0.11813 0.0
C766 C 0.6308 0.57915 0.13558 0.0
C767 C 0.61434 0.58688 0.12026 0.0
C768 C 0.60647 0.57238 0.10332 0.0
C769 C 0.61393 0.55018 0.10242 0.0
C770 C 0.5831 0.64036 0.10643 0.0
C771 C 0.57015 0.64306 0.12609 0.0
C772 C 0.59915 0.62311 0.10508 0.0
C773 C 0.60273 0.60865 0.12349 0.0
C774 C 0.59143 0.61283 0.14385 0.0
C775 C 0.57512 0.62981 0.14509 0.0
H776 H 0.36368 0.55986 0.16717 0.0
H777 H 0.32566 0.59782 0.11782 0.0
H778 H 0.39153 0.58984 0.16928 0.0
H779 H 0.35353 0.62827 0.12018 0.0
H780 H 0.43797 0.64762 0.17389 0.0
H781 H 0.40179 0.62824 0.17829 0.0
H782 H 0.39257 0.62894 0.10601 0.0
H783 H 0.42843 0.64878 0.10168 0.0
C784 C 0.36095 0.57496 0.15726 0.0
C785 C 0.34275 0.57638 0.14207 0.0
C786 C 0.37684 0.59224 0.15856 0.0
C787 C 0.37489 0.61131 0.14466 0.0
C788 C 0.35563 0.61359 0.13084 0.0
C789 C 0.33959 0.59627 0.12962 0.0
C790 C 0.42804 0.64391 0.15898 0.0
C791 C 0.43618 0.64936 0.13741 0.0
C792 C 0.40733 0.63284 0.1615 0.0
C793 C 0.3944 0.62691 0.1425 0.0
C794 C 0.40197 0.6335 0.12102 0.0
C795 C 0.42265 0.64465 0.11851 0.0
H796 H 0.6633 0.392 0.12272 0.0
H797 H 0.62125 0.43304 0.16587 0.0
H798 H 0.63616 0.36107 0.12614 0.0
H799 H 0.59412 0.40243 0.16901 0.0
H800 H 0.56321 0.33565 0.10603 0.0
H801 H 0.59787 0.35752 0.11008 0.0
H802 H 0.58526 0.36427 0.18148 0.0
H803 H 0.55029 0.3427 0.17735 0.0
C804 C 0.64854 0.39424 0.13333 0.0
C805 C 0.64418 0.41504 0.14375 0.0
C806 C 0.63296 0.37659 0.13518 0.0
C807 C 0.61288 0.37941 0.14762 0.0
C808 C 0.60949 0.39963 0.15944 0.0
C809 C 0.62497 0.41725 0.15751 0.0
C810 C 0.56803 0.34147 0.12266 0.0
C811 C 0.55387 0.33779 0.1413 0.0
C812 C 0.58801 0.35384 0.12502 0.0
C813 C 0.59422 0.36276 0.14609 0.0
C814 C 0.58075 0.35786 0.16499 0.0
C815 C 0.56076 0.34549 0.16262 0.0
H816 H 0.04147 0.29584 0.48726 0.0
H817 H 0.03221 0.36181 0.51674 0.0
H818 H 0.00096 0.29395 0.47914 0.0
H819 H 0.9918 0.3597 0.5089 0.0
H820 H 0.92903 0.36134 0.46407 0.0
H821 H 0.96904 0.3611 0.4742 0.0
H822 H 0.96309 0.29211 0.49667 0.0
H823 H 0.92313 0.29215 0.48621 0.0
C824 C 0.03077 0.30975 0.49237 0.0
C825 C 0.04011 0.32907 0.50243 0.0
C826 C 0.00757 0.30865 0.48773 0.0
C827 C -0.00669 0.32683 0.49308 0.0
C828 C 0.00248 0.34564 0.50413 0.0
C829 C 0.02561 0.34675 0.50877 0.0
C830 C 0.93625 0.34607 0.47105 0.0
C831 C 0.92286 0.32679 0.47436 0.0
C832 C 0.95913 0.346 0.47704 0.0
C833 C 0.96911 0.32664 0.48643 0.0
C834 C 0.95587 0.30722 0.48936 0.0
C835 C 0.93297 0.3073 0.48341 0.0
H836 H 0.69555 0.05079 0.51007 0.0
H837 H 0.62428 0.04823 0.4934 0.0
H838 H 0.69897 0.01083 0.50241 0.0
H839 H 0.62789 0.00827 0.48452 0.0
H840 H 0.63691 0.93289 0.49793 0.0
H841 H 0.63266 0.97334 0.50236 0.0
H842 H 0.69965 0.98324 0.47439 0.0
H843 H 0.70426 0.94257 0.47118 0.0
C844 C 0.68066 0.04171 0.50443 0.0
C845 C 0.65962 0.05258 0.50242 0.0
C846 C 0.68266 0.01879 0.49984 0.0
C847 C 0.66374 0.00626 0.49275 0.0
C848 C 0.64274 0.01729 0.49032 0.0
C849 C 0.64066 0.0402 0.4953 0.0
C850 C 0.65067 0.94375 0.49264 0.0
C851 C 0.67098 0.93464 0.48438 0.0
C852 C 0.64818 0.96698 0.49501 0.0
C853 C 0.66583 0.98164 0.48881 0.0
C854 C 0.68589 0.97246 0.47981 0.0
C855 C 0.68852 0.94918 0.47783 0.0
H856 H 0.95201 0.65167 0.52183 0.0
H857 H 0.92605 0.68631 0.46314 0.0
H858 H 0.99076 0.65974 0.50956 0.0
H859 H 0.96491 0.69368 0.45057 0.0
H860 H 0.03579 0.65274 0.4302 0.0
H861 H -0.0039 0.65854 0.44067 0.0
H862 H 0.01715 0.69782 0.49812 0.0
H863 H 0.0568 0.69268 0.48741 0.0
C864 C 0.95461 0.66133 0.50654 0.0
C865 C 0.93612 0.66834 0.49341 0.0
C866 C 0.9767 0.66602 0.49961 0.0
C867 C 0.9806 0.67733 0.47919 0.0
C868 C 0.96217 0.68504 0.46642 0.0
C869 C 0.94004 0.68086 0.47366 0.0
C870 C 0.03191 0.66323 0.44462 0.0
C871 C 0.04935 0.67211 0.45808 0.0
C872 C 0.00927 0.66659 0.45054 0.0
C873 C 0.00381 0.6785 0.47022 0.0
C874 C 0.0211 0.68861 0.48286 0.0
C875 C 0.04372 0.6857 0.47666 0.0
H876 H 0.28066 0.05699 0.50814 0.0
H877 H 0.31728 0.03128 0.45063 0.0
H878 H 0.27495 0.01841 0.52176 0.0
H879 H 0.31097 -0.0072 0.46395 0.0
H880 H 0.28209 0.92583 0.48775 0.0
H881 H 0.27576 0.96449 0.4748 0.0
H882 H 0.3096 -0.01021 0.5341 0.0
H883 H 0.31653 0.9512 0.54682 0.0
C884 C 0.28696 0.04308 0.49814 0.0
C885 C 0.29956 0.04705 0.47843 0.0
C886 C 0.28372 0.02111 0.50595 0.0
C887 C 0.29247 0.00281 0.49382 0.0
C888 C 0.30388 0.0067 0.47344 0.0
C889 C 0.30761 0.02866 0.46592 0.0
C890 C 0.28764 0.93965 0.49831 0.0
C891 C 0.29997 0.93558 0.5182 0.0
C892 C 0.28407 0.96169 0.49086 0.0
C893 C 0.29225 0.97993 0.50348 0.0
C894 C 0.30301 0.97592 0.5242 0.0
C895 C 0.30705 0.95389 0.5314 0.0
H896 H 0.44742 0.95382 0.32766 0.0
H897 H 0.50542 0.92749 0.29188 0.0
H898 H 0.46045 -0.00779 0.31997 0.0
H899 H 0.51875 0.96593 0.28496 0.0
H900 H 0.53997 0.03346 0.33207 0.0
H901 H 0.52854 -0.00525 0.32359 0.0
H902 H 0.47429 0.01956 0.28157 0.0
H903 H 0.48609 0.05828 0.28932 0.0
C904 C 0.46261 0.95627 0.31771 0.0
C905 C 0.47545 0.93776 0.31044 0.0
C906 C 0.46999 0.97815 0.31324 0.0
C907 C 0.49053 0.98178 0.3019 0.0
C908 C 0.50278 0.96338 0.2936 0.0
C909 C 0.4951 0.94148 0.29754 0.0
C910 C 0.52615 0.03062 0.32037 0.0
C911 C 0.51383 0.0488 0.31146 0.0
C912 C 0.51968 0.00855 0.31548 0.0
C913 C 0.50055 0.00443 0.30202 0.0
C914 C 0.48916 0.02249 0.29189 0.0
C915 C 0.49598 0.04457 0.2963 0.0
H916 H 0.9381 0.51498 0.35064 0.0
H917 H 0.93091 0.48843 0.28315 0.0
H918 H 0.97872 0.50818 0.34907 0.0
H919 H 0.97162 0.48135 0.28179 0.0
H920 H 0.04937 0.49051 0.28191 0.0
H921 H 0.00916 0.50023 0.28158 0.0
H922 H 0.00229 0.47397 0.34915 0.0
H923 H 0.04238 0.46452 0.34968 0.0
C924 C 0.94518 0.50785 0.3354 0.0
C925 C 0.93121 0.50208 0.31708 0.0
C926 C 0.96844 0.50382 0.33458 0.0
C927 C 0.97828 0.49397 0.31543 0.0
C928 C 0.96451 0.48905 0.29674 0.0
C929 C 0.94118 0.49305 0.29756 0.0
C930 C 0.03927 0.48677 0.29668 0.0
C931 C 0.04911 0.47679 0.31585 0.0
C932 C 0.01624 0.49229 0.29645 0.0
C933 C 0.00265 0.48803 0.3154 0.0
C934 C 0.01244 0.47783 0.33444 0.0
C935 C 0.03539 0.47226 0.33466 0.0
H936 H 0.49789 0.94363 0.70543 0.0
H937 H 0.45614 0.92439 0.64878 0.0
H938 H 0.48724 0.98288 0.6998 0.0
H939 H 0.44459 0.96343 0.64374 0.0
H940 H 0.45524 0.03727 0.62322 0.0
H941 H 0.46023 -0.00264 0.63048 0.0
H942 H 0.45789 0.00996 0.70223 0.0
H943 H 0.4539 0.05016 0.69489 0.0
C944 C 0.4862 0.94779 0.69196 0.0
C945 C 0.47803 0.93105 0.6774 0.0
C946 C 0.47991 0.97025 0.68884 0.0
C947 C 0.46505 0.97636 0.67128 0.0
C948 C 0.45639 0.95941 0.65715 0.0
C949 C 0.46294 0.93703 0.66007 0.0
C950 C 0.45543 0.0315 0.64055 0.0
C951 C 0.45439 0.04688 0.65849 0.0
C952 C 0.45821 0.00855 0.64474 0.0
C953 C 0.45969 0.00042 0.66696 0.0
C954 C 0.45735 0.0157 0.68491 0.0
C955 C 0.45487 0.03872 0.68071 0.0
H956 H 0.9318 0.4824 0.68596 0.0
H957 H 0.94505 0.44523 0.62475 0.0
H958 H 0.97206 0.4889 0.69081 0.0
H959 H 0.98566 0.45106 0.63009 0.0
H960 H 0.05281 0.48962 0.6323 0.0
H961 H 0.01277 0.4809 0.6279 0.0
H962 H 0.00703 0.47127 0.69992 0.0
H963 H 0.04697 0.48087 0.70436 0.0
C964 C 0.94334 0.47532 0.67367 0.0
C965 C 0.9352 0.46335 0.6549 0.0
C966 C 0.96649 0.47895 0.67655 0.0
C967 C 0.98213 0.47051 0.66086 0.0
C968 C 0.97404 0.4581 0.64231 0.0
C969 C 0.95079 0.45463 0.63931 0.0
C970 C 0.04298 0.48567 0.64719 0.0
C971 C 0.05296 0.48604 0.66869 0.0
C972 C 0.02006 0.48047 0.64465 0.0
C973 C 0.00667 0.47531 0.66354 0.0
C974 C 0.01677 0.47549 0.68504 0.0
C975 C 0.03966 0.48092 0.6876 0.0
H976 H 0.34886 0.46124 0.94218 0.0
H977 H 0.31031 0.51807 0.91743 0.0
H978 H 0.34131 0.47318 0.98097 0.0
H979 H 0.3034 0.53025 0.95628 0.0
H980 H 0.34 0.54953 0.03038 0.0
H981 H 0.33923 0.54014 -0.00981 0.0
H982 H 0.29804 0.48183 0.00447 0.0
H983 H 0.29817 0.49141 0.04453 0.0
C984 C 0.33879 0.47622 0.94505 0.0
C985 C 0.33016 0.48874 0.92689 0.0
C986 C 0.33439 0.48294 0.96713 0.0
C987 C 0.32174 0.5025 0.97131 0.0
C988 C 0.3131 0.51505 0.95326 0.0
C989 C 0.31704 0.50806 0.93117 0.0
C990 C 0.33027 0.53508 0.02485 0.0
C991 C 0.31924 0.52114 0.04053 0.0
C992 C 0.32982 0.52976 0.00195 0.0
C993 C 0.31871 0.51025 -0.00543 0.0
C994 C 0.3067 0.49696 0.00998 0.0
C995 C 0.30671 0.50253 0.0328 0.0
H996 H 0.49401 0.33642 0.93381 0.0
H997 H 0.51981 0.26848 0.9388 0.0
H998 H 0.49057 0.33805 0.97475 0.0
H999 H 0.51709 0.27033 0.97967 0.0
H1000 H 0.48293 0.27096 0.04836 0.0
H1001 H 0.48789 0.27039 0.00765 0.0
H1002 H 0.51176 0.33922 0.00947 0.0
H1003 H 0.50611 0.33998 0.05018 0.0
C1004 C 0.49923 0.32196 0.94368 0.0
C1005 C 0.50703 0.30227 0.93312 0.0
C1006 C 0.49736 0.32291 0.96714 0.0
C1007 C 0.5034 0.30425 0.98048 0.0
C1008 C 0.51184 0.28483 0.96987 0.0
C1009 C 0.51355 0.28382 0.94645 0.0
C1010 C 0.48924 0.28596 0.04007 0.0
C1011 C 0.49412 0.30551 0.05244 0.0
C1012 C 0.49224 0.2856 0.01675 0.0
C1013 C 0.50033 0.30473 0.0053 0.0
C1014 C 0.50524 0.32429 0.01773 0.0
C1015 C 0.50212 0.32469 0.04106 0.0
H1016 H 0.69835 0.48087 0.92503 0.0
H1017 H 0.63036 0.50781 0.92942 0.0
H1018 H 0.69731 0.47157 0.96495 0.0
H1019 H 0.62955 0.4988 0.96951 0.0
H1020 H 0.69452 0.48269 0.04203 0.0
H1021 H 0.69652 0.4904 0.00177 0.0
H1022 H 0.62853 0.46468 -0.00666 0.0
H1023 H 0.6263 0.45727 0.03364 0.0
C1024 C 0.68324 0.48499 0.93453 0.0
C1025 C 0.6644 0.49504 0.92402 0.0
C1026 C 0.6827 0.4797 0.95743 0.0
C1027 C 0.6633 0.48432 0.97028 0.0
C1028 C 0.6446 0.49471 0.9599 0.0
C1029 C 0.64514 0.50005 0.93699 0.0
C1030 C 0.68008 0.47842 0.03158 0.0
C1031 C 0.66019 0.4695 0.04109 0.0
C1032 C 0.68126 0.48282 0.0085 0.0
C1033 C 0.66258 0.47838 -0.00551 0.0
C1034 C 0.64303 0.46867 0.00384 0.0
C1035 C 0.64185 0.46424 0.02689 0.0
H1036 H 0.51034 0.68593 0.92888 0.0
H1037 H 0.47054 0.62568 0.93936 0.0
H1038 H 0.51197 0.69197 0.96932 0.0
H1039 H 0.47151 0.63218 0.97991 0.0
H1040 H 0.49395 0.70799 0.04176 0.0
H1041 H 0.48978 0.70239 0.00124 0.0
H1042 H 0.49778 0.63057 0.01053 0.0
H1043 H 0.50112 0.63613 0.05098 0.0
C1044 C 0.50172 0.67408 0.93981 0.0
C1045 C 0.49038 0.65526 0.9309 0.0
C1046 C 0.50253 0.67765 0.96302 0.0
C1047 C 0.49187 0.66258 0.97789 0.0
C1048 C 0.48021 0.64393 0.96895 0.0
C1049 C 0.47955 0.64025 0.94571 0.0
C1050 C 0.49476 0.69103 0.03511 0.0
C1051 C 0.49788 0.67251 0.04952 0.0
C1052 C 0.49247 0.6878 0.0119 0.0
C1053 C 0.49345 0.66602 0.00262 0.0
C1054 C 0.49654 0.64753 0.01711 0.0
C1055 C 0.49863 0.65074 0.0403 0.0
H1056 H 0.18037 0.27323 0.4614 0.0
H1057 H 0.13834 0.23234 0.50487 0.0
H1058 H 0.207 0.24229 0.45765 0.0
H1059 H 0.16541 0.20118 0.50118 0.0
H1060 H 0.21516 0.14643 0.47006 0.0
H1061 H 0.18432 0.17411 0.47217 0.0
H1062 H 0.23306 0.22626 0.48724 0.0
H1063 H 0.26362 0.19899 0.48506 0.0
C1064 C 0.1767 0.25754 0.46999 0.0
C1065 C 0.15746 0.2553 0.48371 0.0
C1066 C 0.19199 0.23986 0.46788 0.0
C1067 C 0.18843 0.21956 0.47947 0.0
C1068 C 0.16851 0.21672 0.49211 0.0
C1069 C 0.15309 0.23453 0.49425 0.0
C1070 C 0.21919 0.16379 0.47395 0.0
C1071 C 0.2418 0.17061 0.47718 0.0
C1072 C 0.20158 0.17955 0.4752 0.0
C1073 C 0.20643 0.2023 0.47952 0.0
C1074 C 0.22894 0.20888 0.48343 0.0
C1075 C 0.24642 0.19323 0.48229 0.0
H1076 H 0.75729 0.13912 0.4871 0.0
H1077 H 0.74484 0.1685 0.55239 0.0
H1078 H 0.78906 0.16498 0.48144 0.0
H1079 H 0.77726 0.19345 0.54741 0.0
H1080 H 0.79095 0.25865 0.50752 0.0
H1081 H 0.77308 0.2248 0.52127 0.0
H1082 H 0.82575 0.18441 0.49082 0.0
H1083 H 0.84388 0.21892 0.47667 0.0
C1084 C 0.76211 0.15036 0.50066 0.0
C1085 C 0.74851 0.15238 0.51991 0.0
C1086 C 0.78033 0.16508 0.49749 0.0
C1087 C 0.78517 0.18163 0.51374 0.0
C1088 C 0.77348 0.18125 0.53437 0.0
C1089 C 0.75501 0.16699 0.53726 0.0
C1090 C 0.7989 0.24262 0.50385 0.0
C1091 C 0.81866 0.24139 0.49082 0.0
C1092 C 0.78883 0.22317 0.51204 0.0
C1093 C 0.7982 0.20193 0.5074 0.0
C1094 C 0.81827 0.2006 0.49471 0.0
C1095 C 0.82856 0.22027 0.48661 0.0
H1096 H 0.7842 0.70476 0.48431 0.0
H1097 H 0.83972 0.74846 0.50314 0.0
H1098 H 0.75874 0.73694 0.48361 0.0
H1099 H 0.81396 0.78082 0.50256 0.0
H1100 H 0.76076 0.83315 0.47312 0.0
H1101 H 0.78929 0.80317 0.47467 0.0
H1102 H 0.74343 0.76215 0.51385 0.0
H1103 H 0.71504 0.79173 0.51221 0.0
C1104 C 0.79099 0.72125 0.48823 0.0
C1105 C 0.8139 0.72409 0.49394 0.0
C1106 C 0.77638 0.73964 0.48795 0.0
C1107 C 0.78438 0.76125 0.49331 0.0
C1108 C 0.80743 0.76429 0.49835 0.0
C1109 C 0.82209 0.7458 0.49875 0.0
C1110 C 0.75693 0.81781 0.48226 0.0
C1111 C 0.7356 0.81463 0.49231 0.0
C1112 C 0.77324 0.80074 0.48319 0.0
C1113 C 0.76835 0.7803 0.49408 0.0
C1114 C 0.74742 0.7776 0.50496 0.0
C1115 C 0.73122 0.79458 0.50409 0.0
H1116 H 0.19582 0.70064 0.50273 0.0
H1117 H 0.15388 0.74831 0.46662 0.0
H1118 H 0.22227 0.73064 0.51209 0.0
H1119 H 0.1807 0.77836 0.47574 0.0
H1120 H 0.2251 0.82911 0.5156 0.0
H1121 H 0.19644 0.80024 0.50813 0.0
H1122 H 0.24932 0.7532 0.49024 0.0
H1123 H 0.27781 0.78171 0.49795 0.0
C1124 C 0.19223 0.71754 0.49682 0.0
C1125 C 0.17289 0.72211 0.48379 0.0
C1126 C 0.20743 0.73469 0.5021 0.0
C1127 C 0.20363 0.75676 0.49445 0.0
C1128 C 0.18396 0.76151 0.48196 0.0
C1129 C 0.1687 0.74431 0.47665 0.0
C1130 C 0.23054 0.81259 0.51007 0.0
C1131 C 0.25368 0.80762 0.50744 0.0
C1132 C 0.21416 0.79614 0.50572 0.0
C1133 C 0.2207 0.77446 0.49878 0.0
C1134 C 0.24382 0.76964 0.49596 0.0
C1135 C 0.26012 0.78603 0.50024 0.0
H1136 H 0.47473 0.19502 0.28353 0.0
H1137 H 0.51453 0.1535 0.23868 0.0
H1138 H 0.4675 0.22132 0.25287 0.0
H1139 H 0.50755 0.18014 0.20802 0.0
H1140 H 0.47482 0.22562 0.1541 0.0
H1141 H 0.47699 0.19664 0.18347 0.0
H1142 H 0.49231 0.24793 0.23282 0.0
H1143 H 0.48991 0.27668 0.20383 0.0
C1144 C 0.4819 0.19149 0.26711 0.0
C1145 C 0.49541 0.17236 0.26354 0.0
C1146 C 0.47777 0.20656 0.24958 0.0
C1147 C 0.48712 0.20283 0.22816 0.0
C1148 C 0.50001 0.18331 0.22435 0.0
C1149 C 0.50414 0.16819 0.24192 0.0
C1150 C 0.47846 0.23064 0.17127 0.0
C1151 C 0.48221 0.25336 0.1767 0.0
C1152 C 0.47981 0.21409 0.18801 0.0
C1153 C 0.48473 0.2201 0.21039 0.0
C1154 C 0.48814 0.24286 0.21577 0.0
C1155 C 0.48691 0.2593 0.19912 0.0
H1156 H 0.80772 0.45759 0.24121 0.0
H1157 H 0.83807 0.52013 0.2194 0.0
H1158 H 0.78532 0.45628 0.20658 0.0
H1159 H 0.81499 0.51913 0.18498 0.0
H1160 H 0.75638 0.45572 0.13584 0.0
H1161 H 0.79 0.45694 0.16013 0.0
H1162 H 0.768 0.52083 0.18695 0.0
H1163 H 0.7341 0.51935 0.16328 0.0
C1164 C 0.80989 0.4708 0.22879 0.0
C1165 C 0.82442 0.48904 0.23295 0.0
C1166 C 0.79724 0.46996 0.20895 0.0
C1167 C 0.79857 0.4876 0.19325 0.0
C1168 C 0.81388 0.50532 0.19687 0.0
C1169 C 0.827 0.50586 0.21649 0.0
C1170 C 0.75907 0.47029 0.1465 0.0
C1171 C 0.74262 0.48734 0.14794 0.0
C1172 C 0.77823 0.47095 0.16033 0.0
C1173 C 0.78145 0.48899 0.17525 0.0
C1174 C 0.76592 0.50689 0.17536 0.0
C1175 C 0.74651 0.50596 0.16198 0.0
H1176 H 0.51337 0.76363 0.15066 0.0
H1177 H 0.48755 0.71338 0.19681 0.0
H1178 H 0.50975 0.79229 0.18029 0.0
H1179 H 0.48377 0.7417 0.22584 0.0
H1180 H 0.47147 0.83713 0.23441 0.0
H1181 H 0.47836 0.81131 0.20303 0.0
H1182 H 0.51024 0.76436 0.24884 0.0
H1183 H 0.5031 0.7898 0.2801 0.0
C1184 C 0.50694 0.75874 0.16704 0.0
C1185 C 0.50089 0.73628 0.17149 0.0
C1186 C 0.5048 0.77509 0.1839 0.0
C1187 C 0.49674 0.76908 0.20537 0.0
C1188 C 0.49047 0.7467 0.20959 0.0
C1189 C 0.49253 0.73051 0.19287 0.0
C1190 C 0.48004 0.82133 0.2377 0.0
C1191 C 0.48646 0.8153 0.25972 0.0
C1192 C 0.48413 0.80669 0.21975 0.0
C1193 C 0.49464 0.78582 0.22361 0.0
C1194 C 0.50178 0.78022 0.24549 0.0
C1195 C 0.49769 0.79478 0.26337 0.0
H1196 H 0.18896 0.50601 0.25675 0.0
H1197 H 0.14324 0.47063 0.21209 0.0
H1198 H 0.21597 0.51024 0.22622 0.0
H1199 H 0.17071 0.47502 0.18121 0.0
H1200 H 0.2272 0.51311 0.13311 0.0
H1201 H 0.19456 0.50888 0.15845 0.0
H1202 H 0.2374 0.47561 0.20719 0.0
H1203 H 0.26976 0.47966 0.18223 0.0
C1204 C 0.18455 0.49938 0.24031 0.0
C1205 C 0.16421 0.48762 0.23686 0.0
C1206 C 0.20002 0.50181 0.22288 0.0
C1207 C 0.19549 0.49255 0.20164 0.0
C1208 C 0.17449 0.48218 0.19757 0.0
C1209 C 0.15887 0.47969 0.21517 0.0
C1210 C 0.2295 0.50456 0.14908 0.0
C1211 C 0.25107 0.49702 0.15588 0.0
C1212 C 0.21086 0.50212 0.16346 0.0
C1213 C 0.21372 0.49226 0.18476 0.0
C1214 C 0.23495 0.48358 0.19092 0.0
C1215 C 0.25344 0.48588 0.17662 0.0
H1216 H 0.54502 0.71686 0.80411 0.0
H1217 H 0.49139 0.75147 0.83952 0.0
H1218 H 0.55086 0.7499 0.78048 0.0
H1219 H 0.49689 0.78443 0.81541 0.0
H1220 H 0.51601 0.84276 0.76874 0.0
H1221 H 0.52202 0.81569 0.79958 0.0
H1222 H 0.52327 0.76137 0.75115 0.0
H1223 H 0.51734 0.78802 0.72081 0.0
C1224 C 0.53475 0.73169 0.80709 0.0
C1225 C 0.51738 0.73148 0.82322 0.0
C1226 C 0.53814 0.75059 0.79362 0.0
C1227 C 0.52403 0.7695 0.79586 0.0
C1228 C 0.50804 0.77008 0.81339 0.0
C1229 C 0.50478 0.75117 0.82705 0.0
C1230 C 0.51794 0.82505 0.76481 0.0
C1231 C 0.51602 0.81738 0.74249 0.0
C1232 C 0.52132 0.80963 0.78238 0.0
C1233 C 0.52326 0.7865 0.7777 0.0
C1234 C 0.52225 0.77913 0.75526 0.0
C1235 C 0.51859 0.79437 0.73788 0.0
H1236 H 0.23862 0.4792 0.83233 0.0
H1237 H 0.28364 0.51054 0.78419 0.0
H1238 H 0.20661 0.48567 0.80676 0.0
H1239 H 0.2518 0.51748 0.75912 0.0
H1240 H 0.20127 0.4902 0.70843 0.0
H1241 H 0.23032 0.48969 0.73716 0.0
H1242 H 0.18234 0.51462 0.78612 0.0
H1243 H 0.15266 0.51489 0.75701 0.0
C1244 C 0.24158 0.48781 0.8165 0.0
C1245 C 0.26362 0.49394 0.80997 0.0
C1246 C 0.22328 0.49163 0.80198 0.0
C1247 C 0.22685 0.50174 0.78086 0.0
C1248 C 0.24868 0.5092 0.77511 0.0
C1249 C 0.26689 0.50522 0.78945 0.0
C1250 C 0.1968 0.49567 0.72526 0.0
C1251 C 0.17469 0.50265 0.73046 0.0
C1252 C 0.21354 0.49553 0.7417 0.0
C1253 C 0.20865 0.50241 0.76378 0.0
C1254 C 0.1865 0.50926 0.76918 0.0
C1255 C 0.16961 0.50948 0.75256 0.0
H1256 H 0.45379 0.14395 0.75056 0.0
H1257 H 0.51391 0.17181 0.71968 0.0
H1258 H 0.46089 0.16655 0.78434 0.0
H1259 H 0.5211 0.19406 0.7535 0.0
H1260 H 0.53316 0.22254 0.82392 0.0
H1261 H 0.52867 0.19106 0.79747 0.0
H1262 H 0.45922 0.21082 0.78564 0.0
H1263 H 0.46377 0.24234 0.81153 0.0
C1264 C 0.46875 0.15452 0.75119 0.0
C1265 C 0.48313 0.15643 0.73245 0.0
C1266 C 0.47279 0.16739 0.77046 0.0
C1267 C 0.49151 0.18197 0.77139 0.0
C1268 C 0.50668 0.18276 0.75323 0.0
C1269 C 0.50243 0.17021 0.73383 0.0
C1270 C 0.51688 0.21988 0.81589 0.0
C1271 C 0.49888 0.23491 0.81949 0.0
C1272 C 0.51433 0.20195 0.80083 0.0
C1273 C 0.49359 0.19858 0.78969 0.0
C1274 C 0.47529 0.21294 0.79425 0.0
C1275 C 0.47796 0.23106 0.80887 0.0
H1276 H 0.74318 0.44728 0.80737 0.0
H1277 H 0.76931 0.50866 0.83653 0.0
H1278 H 0.77719 0.44399 0.7842 0.0
H1279 H 0.80309 0.50572 0.81268 0.0
H1280 H 0.8449 0.44168 0.74918 0.0
H1281 H 0.824 0.4431 0.78485 0.0
H1282 H 0.79717 0.50825 0.76655 0.0
H1283 H 0.81737 0.50657 0.73069 0.0
C1284 C 0.75652 0.45969 0.80925 0.0
C1285 C 0.75365 0.47832 0.82347 0.0
C1286 C 0.776 0.45773 0.79616 0.0
C1287 C 0.79258 0.47465 0.79674 0.0
C1288 C 0.7905 0.49245 0.81214 0.0
C1289 C 0.77124 0.4941 0.8257 0.0
C1290 C 0.83497 0.45652 0.75307 0.0
C1291 C 0.83241 0.4739 0.73718 0.0
C1292 C 0.82313 0.45733 0.77343 0.0
C1293 C 0.80919 0.47581 0.77833 0.0
C1294 C 0.80809 0.49396 0.7632 0.0
C1295 C 0.81944 0.49291 0.74265 0.0
loop_
_geom_bond_atom_site_label_1
_geom_bond_atom_site_label_2
_geom_bond_distance
_geom_bond_site_symmetry_2
_ccdc_geom_bond_type
C0 O1 1.306 . S
C0 O3 1.160 . S
O1 C0 1.306 . S
O1 Cd2 2.228 . S
Cd2 O1 2.228 . S
Cd2 O6 2.273 . S
Cd2 O10 2.277 . S
O3 C0 1.160 . S
O3 Cd4 2.203 . S
Cd4 O3 2.203 . S
Cd4 O6 2.411 . S
Cd4 O7 2.333 . S
Cd4 O8 2.352 . S
Cd4 O12 2.277 . S
Cd4 O13 2.356 . S
C5 O10 1.209 . S
C5 O12 1.226 . S
O6 Cd2 2.273 . S
O6 Cd4 2.411 . S
O6 C9 1.320 . S
O7 Cd4 2.333 . S
O7 C9 1.214 . S
O8 Cd4 2.352 . S
O8 C11 1.258 . S
C9 O6 1.320 . S
C9 O7 1.214 . S
O10 Cd2 2.277 . S
O10 C5 1.209 . S
C11 O8 1.258 . S
C11 O13 1.282 . S
O12 Cd4 2.277 . S
O12 C5 1.226 . S
O13 Cd4 2.356 . S
O13 C11 1.282 . S
C14 O15 1.306 . S
C14 O17 1.160 . S
O15 C14 1.306 . S
O15 Cd16 2.228 . S
Cd16 O15 2.228 . S
Cd16 O20 2.273 . S
Cd16 O24 2.277 . S
O17 C14 1.160 . S
O17 Cd18 2.203 . S
Cd18 O17 2.203 . S
Cd18 O20 2.411 . S
Cd18 O21 2.333 . S
Cd18 O22 2.352 . S
Cd18 O26 2.277 . S
Cd18 O27 2.356 . S
C19 O24 1.209 . S
C19 O26 1.226 . S
O20 Cd16 2.273 . S
O20 Cd18 2.411 . S
O20 C23 1.320 . S
O21 Cd18 2.333 . S
O21 C23 1.214 . S
O22 Cd18 2.352 . S
O22 C25 1.258 . S
C23 O20 1.320 . S
C23 O21 1.214 . S
O24 Cd16 2.277 . S
O24 C19 1.209 . S
C25 O22 1.258 . S
C25 O27 1.282 . S
O26 Cd18 2.277 . S
O26 C19 1.226 . S
O27 Cd18 2.356 . S
O27 C25 1.282 . S
C28 O29 1.306 . S
C28 O31 1.160 . S
O29 C28 1.306 . S
O29 Cd30 2.228 . S
Cd30 O29 2.228 . S
Cd30 O34 2.273 . S
Cd30 O38 2.277 . S
O31 C28 1.160 . S
O31 Cd32 2.203 . S
Cd32 O31 2.203 . S
Cd32 O34 2.411 . S
Cd32 O35 2.333 . S
Cd32 O36 2.352 . S
Cd32 O40 2.277 . S
Cd32 O41 2.356 . S
C33 O38 1.209 . S
C33 O40 1.226 . S
O34 Cd30 2.273 . S
O34 Cd32 2.411 . S
O34 C37 1.320 . S
O35 Cd32 2.333 . S
O35 C37 1.214 . S
O36 Cd32 2.352 . S
O36 C39 1.258 . S
C37 O34 1.320 . S
C37 O35 1.214 . S
O38 Cd30 2.277 . S
O38 C33 1.209 . S
C39 O36 1.258 . S
C39 O41 1.282 . S
O40 Cd32 2.277 . S
O40 C33 1.226 . S
O41 Cd32 2.356 . S
O41 C39 1.282 . S
C42 O43 1.306 . S
C42 O45 1.160 . S
O43 C42 1.306 . S
O43 Cd44 2.228 . S
Cd44 O43 2.228 . S
Cd44 O48 2.273 . S
Cd44 O52 2.277 . S
O45 C42 1.160 . S
O45 Cd46 2.203 . S
Cd46 O45 2.203 . S
Cd46 O48 2.411 . S
Cd46 O49 2.333 . S
Cd46 O50 2.352 . S
Cd46 O54 2.277 . S
Cd46 O55 2.356 . S
C47 O52 1.209 . S
C47 O54 1.226 . S
O48 Cd44 2.273 . S
O48 Cd46 2.411 . S
O48 C51 1.320 . S
O49 Cd46 2.333 . S
O49 C51 1.214 . S
O50 Cd46 2.352 . S
O50 C53 1.258 . S
C51 O48 1.320 . S
C51 O49 1.214 . S
O52 Cd44 2.277 . S
O52 C47 1.209 . S
C53 O50 1.258 . S
C53 O55 1.282 . S
O54 Cd46 2.277 . S
O54 C47 1.226 . S
O55 Cd46 2.356 . S
O55 C53 1.282 . S
C56 O57 1.306 . S
C56 O59 1.160 . S
O57 C56 1.306 . S
O57 Cd58 2.228 . S
Cd58 O57 2.228 . S
Cd58 O62 2.273 . S
Cd58 O66 2.277 . S
O59 C56 1.160 . S
O59 Cd60 2.203 . S
Cd60 O59 2.203 . S
Cd60 O62 2.411 . S
Cd60 O63 2.333 . S
Cd60 O64 2.352 . S
Cd60 O68 2.277 . S
Cd60 O69 2.356 . S
C61 O66 1.209 . S
C61 O68 1.226 . S
O62 Cd58 2.273 . S
O62 Cd60 2.411 . S
O62 C65 1.320 . S
O63 Cd60 2.333 . S
O63 C65 1.214 . S
O64 Cd60 2.352 . S
O64 C67 1.258 . S
C65 O62 1.320 . S
C65 O63 1.214 . S
O66 Cd58 2.277 . S
O66 C61 1.209 . S
C67 O64 1.258 . S
C67 O69 1.282 . S
O68 Cd60 2.277 . S
O68 C61 1.226 . S
O69 Cd60 2.356 . S
O69 C67 1.282 . S
C70 O71 1.306 . S
C70 O73 1.160 . S
O71 C70 1.306 . S
O71 Cd72 2.228 . S
Cd72 O71 2.228 . S
Cd72 O76 2.273 . S
Cd72 O80 2.277 . S
O73 C70 1.160 . S
O73 Cd74 2.203 . S
Cd74 O73 2.203 . S
Cd74 O76 2.411 . S
Cd74 O77 2.333 . S
Cd74 O78 2.352 . S
Cd74 O82 2.277 . S
Cd74 O83 2.356 . S
C75 O80 1.209 . S
C75 O82 1.226 . S
O76 Cd72 2.273 . S
O76 Cd74 2.411 . S
O76 C79 1.320 . S
O77 Cd74 2.333 . S
O77 C79 1.214 . S
O78 Cd74 2.352 . S
O78 C81 1.258 . S
C79 O76 1.320 . S
C79 O77 1.214 . S
O80 Cd72 2.277 . S
O80 C75 1.209 . S
C81 O78 1.258 . S
C81 O83 1.282 . S
O82 Cd74 2.277 . S
O82 C75 1.226 . S
O83 Cd74 2.356 . S
O83 C81 1.282 . S
C84 O85 1.306 . S
C84 O87 1.160 . S
O85 C84 1.306 . S
O85 Cd86 2.228 . S
Cd86 O85 2.228 . S
Cd86 O90 2.273 . S
Cd86 O94 2.277 . S
O87 C84 1.160 . S
O87 Cd88 2.203 . S
Cd88 O87 2.203 . S
Cd88 O90 2.411 . S
Cd88 O91 2.333 . S
Cd88 O92 2.352 . S
Cd88 O96 2.277 . S
Cd88 O97 2.356 . S
C89 O94 1.209 . S
C89 O96 1.226 . S
O90 Cd86 2.273 . S
O90 Cd88 2.411 . S
O90 C93 1.320 . S
O91 Cd88 2.333 . S
O91 C93 1.214 . S
O92 Cd88 2.352 . S
O92 C95 1.258 . S
C93 O90 1.320 . S
C93 O91 1.214 . S
O94 Cd86 2.277 . S
O94 C89 1.209 . S
C95 O92 1.258 . S
C95 O97 1.282 . S
O96 Cd88 2.277 . S
O96 C89 1.226 . S
O97 Cd88 2.356 . S
O97 C95 1.282 . S
C98 O99 1.306 . S
C98 O101 1.160 . S
O99 C98 1.306 . S
O99 Cd100 2.228 . S
Cd100 O99 2.228 . S
Cd100 O104 2.273 . S
Cd100 O108 2.277 . S
O101 C98 1.160 . S
O101 Cd102 2.203 . S
Cd102 O101 2.203 . S
Cd102 O104 2.411 . S
Cd102 O105 2.333 . S
Cd102 O106 2.352 . S
Cd102 O110 2.277 . S
Cd102 O111 2.356 . S
C103 O108 1.209 . S
C103 O110 1.226 . S
O104 Cd100 2.273 . S
O104 Cd102 2.411 . S
O104 C107 1.320 . S
O105 Cd102 2.333 . S
O105 C107 1.214 . S
O106 Cd102 2.352 . S
O106 C109 1.258 . S
C107 O104 1.320 . S
C107 O105 1.214 . S
O108 Cd100 2.277 . S
O108 C103 1.209 . S
C109 O106 1.258 . S
C109 O111 1.282 . S
O110 Cd102 2.277 . S
O110 C103 1.226 . S
O111 Cd102 2.356 . S
O111 C109 1.282 . S
C112 O113 1.306 . S
C112 O115 1.160 . S
O113 C112 1.306 . S
O113 Cd114 2.228 . S
Cd114 O113 2.228 . S
Cd114 O118 2.273 . S
Cd114 O122 2.277 . S
O115 C112 1.160 . S
O115 Cd116 2.203 . S
Cd116 O115 2.203 . S
Cd116 O118 2.411 . S
Cd116 O119 2.333 . S
Cd116 O120 2.352 . S
Cd116 O124 2.277 . S
Cd116 O125 2.356 . S
C117 O122 1.209 . S
C117 O124 1.226 . S
O118 Cd114 2.273 . S
O118 Cd116 2.411 . S
O118 C121 1.320 . S
O119 Cd116 2.333 . S
O119 C121 1.214 . S
O120 Cd116 2.352 . S
O120 C123 1.258 . S
C121 O118 1.320 . S
C121 O119 1.214 . S
O122 Cd114 2.277 . S
O122 C117 1.209 . S
C123 O120 1.258 . S
C123 O125 1.282 . S
O124 Cd116 2.277 . S
O124 C117 1.226 . S
O125 Cd116 2.356 . S
O125 C123 1.282 . S
C126 O127 1.306 . S
C126 O129 1.160 . S
O127 C126 1.306 . S
O127 Cd128 2.228 . S
Cd128 O127 2.228 . S
Cd128 O132 2.273 . S
Cd128 O136 2.277 . S
O129 C126 1.160 . S
O129 Cd130 2.203 . S
Cd130 O129 2.203 . S
Cd130 O132 2.411 . S
Cd130 O133 2.333 . S
Cd130 O134 2.352 . S
Cd130 O138 2.277 . S
Cd130 O139 2.356 . S
C131 O136 1.209 . S
C131 O138 1.226 . S
O132 Cd128 2.273 . S
O132 Cd130 2.411 . S
O132 C135 1.320 . S
O133 Cd130 2.333 . S
O133 C135 1.214 . S
O134 Cd130 2.352 . S
O134 C137 1.258 . S
C135 O132 1.320 . S
C135 O133 1.214 . S
O136 Cd128 2.277 . S
O136 C131 1.209 . S
C137 O134 1.258 . S
C137 O139 1.282 . S
O138 Cd130 2.277 . S
O138 C131 1.226 . S
O139 Cd130 2.356 . S
O139 C137 1.282 . S
C140 O141 1.306 . S
C140 O143 1.160 . S
O141 C140 1.306 . S
O141 Cd142 2.228 . S
Cd142 O141 2.228 . S
Cd142 O146 2.273 . S
Cd142 O150 2.277 . S
O143 C140 1.160 . S
O143 Cd144 2.203 . S
Cd144 O143 2.203 . S
Cd144 O146 2.411 . S
Cd144 O147 2.333 . S
Cd144 O148 2.352 . S
Cd144 O152 2.277 . S
Cd144 O153 2.356 . S
C145 O150 1.209 . S
C145 O152 1.226 . S
O146 Cd142 2.273 . S
O146 Cd144 2.411 . S
O146 C149 1.320 . S
O147 Cd144 2.333 . S
O147 C149 1.214 . S
O148 Cd144 2.352 . S
O148 C151 1.258 . S
C149 O146 1.320 . S
C149 O147 1.214 . S
O150 Cd142 2.277 . S
O150 C145 1.209 . S
C151 O148 1.258 . S
C151 O153 1.282 . S
O152 Cd144 2.277 . S
O152 C145 1.226 . S
O153 Cd144 2.356 . S
O153 C151 1.282 . S
C154 O155 1.306 . S
C154 O157 1.160 . S
O155 C154 1.306 . S
O155 Cd156 2.228 . S
Cd156 O155 2.228 . S
Cd156 O160 2.273 . S
Cd156 O164 2.277 . S
O157 C154 1.160 . S
O157 Cd158 2.203 . S
Cd158 O157 2.203 . S
Cd158 O160 2.411 . S
Cd158 O161 2.333 . S
Cd158 O162 2.352 . S
Cd158 O166 2.277 . S
Cd158 O167 2.356 . S
C159 O164 1.209 . S
C159 O166 1.226 . S
O160 Cd156 2.273 . S
O160 Cd158 2.411 . S
O160 C163 1.320 . S
O161 Cd158 2.333 . S
O161 C163 1.214 . S
O162 Cd158 2.352 . S
O162 C165 1.258 . S
C163 O160 1.320 . S
C163 O161 1.214 . S
O164 Cd156 2.277 . S
O164 C159 1.209 . S
C165 O162 1.258 . S
C165 O167 1.282 . S
O166 Cd158 2.277 . S
O166 C159 1.226 . S
O167 Cd158 2.356 . S
O167 C165 1.282 . S
C168 O169 1.306 . S
C168 O171 1.160 . S
O169 C168 1.306 . S
O169 Cd170 2.228 . S
Cd170 O169 2.228 . S
Cd170 O174 2.273 . S
Cd170 O178 2.277 . S
O171 C168 1.160 . S
O171 Cd172 2.203 . S
Cd172 O171 2.203 . S
Cd172 O174 2.411 . S
Cd172 O175 2.333 . S
Cd172 O176 2.352 . S
Cd172 O180 2.277 . S
Cd172 O181 2.356 . S
C173 O178 1.209 . S
C173 O180 1.226 . S
O174 Cd170 2.273 . S
O174 Cd172 2.411 . S
O174 C177 1.320 . S
O175 Cd172 2.333 . S
O175 C177 1.214 . S
O176 Cd172 2.352 . S
O176 C179 1.258 . S
C177 O174 1.320 . S
C177 O175 1.214 . S
O178 Cd170 2.277 . S
O178 C173 1.209 . S
C179 O176 1.258 . S
C179 O181 1.282 . S
O180 Cd172 2.277 . S
O180 C173 1.226 . S
O181 Cd172 2.356 . S
O181 C179 1.282 . S
C182 O183 1.306 . S
C182 O185 1.160 . S
O183 C182 1.306 . S
O183 Cd184 2.228 . S
Cd184 O183 2.228 . S
Cd184 O188 2.273 . S
Cd184 O192 2.277 . S
O185 C182 1.160 . S
O185 Cd186 2.203 . S
Cd186 O185 2.203 . S
Cd186 O188 2.411 . S
Cd186 O189 2.333 . S
Cd186 O190 2.352 . S
Cd186 O194 2.277 . S
Cd186 O195 2.356 . S
C187 O192 1.209 . S
C187 O194 1.226 . S
O188 Cd184 2.273 . S
O188 Cd186 2.411 . S
O188 C191 1.320 . S
O189 Cd186 2.333 . S
O189 C191 1.214 . S
O190 Cd186 2.352 . S
O190 C193 1.258 . S
C191 O188 1.320 . S
C191 O189 1.214 . S
O192 Cd184 2.277 . S
O192 C187 1.209 . S
C193 O190 1.258 . S
C193 O195 1.282 . S
O194 Cd186 2.277 . S
O194 C187 1.226 . S
O195 Cd186 2.356 . S
O195 C193 1.282 . S
C196 O197 1.306 . S
C196 O199 1.160 . S
O197 C196 1.306 . S
O197 Cd198 2.228 . S
Cd198 O197 2.228 . S
Cd198 O202 2.273 . S
Cd198 O206 2.277 . S
O199 C196 1.160 . S
O199 Cd200 2.203 . S
Cd200 O199 2.203 . S
Cd200 O202 2.411 . S
Cd200 O203 2.333 . S
Cd200 O204 2.352 . S
Cd200 O208 2.277 . S
Cd200 O209 2.356 . S
C201 O206 1.209 . S
C201 O208 1.226 . S
O202 Cd198 2.273 . S
O202 Cd200 2.411 . S
O202 C205 1.320 . S
O203 Cd200 2.333 . S
O203 C205 1.214 . S
O204 Cd200 2.352 . S
O204 C207 1.258 . S
C205 O202 1.320 . S
C205 O203 1.214 . S
O206 Cd198 2.277 . S
O206 C201 1.209 . S
C207 O204 1.258 . S
C207 O209 1.282 . S
O208 Cd200 2.277 . S
O208 C201 1.226 . S
O209 Cd200 2.356 . S
O209 C207 1.282 . S
C210 O211 1.306 . S
C210 O213 1.160 . S
O211 C210 1.306 . S
O211 Cd212 2.228 . S
Cd212 O211 2.228 . S
Cd212 O216 2.273 . S
Cd212 O220 2.277 . S
O213 C210 1.160 . S
O213 Cd214 2.203 . S
Cd214 O213 2.203 . S
Cd214 O216 2.411 . S
Cd214 O217 2.333 . S
Cd214 O218 2.352 . S
Cd214 O222 2.277 . S
Cd214 O223 2.356 . S
C215 O220 1.209 . S
C215 O222 1.226 . S
O216 Cd212 2.273 . S
O216 Cd214 2.411 . S
O216 C219 1.320 . S
O217 Cd214 2.333 . S
O217 C219 1.214 . S
O218 Cd214 2.352 . S
O218 C221 1.258 . S
C219 O216 1.320 . S
C219 O217 1.214 . S
O220 Cd212 2.277 . S
O220 C215 1.209 . S
C221 O218 1.258 . S
C221 O223 1.282 . S
O222 Cd214 2.277 . S
O222 C215 1.226 . S
O223 Cd214 2.356 . S
O223 C221 1.282 . S
C224 O225 1.306 . S
C224 O227 1.160 . S
O225 C224 1.306 . S
O225 Cd226 2.228 . S
Cd226 O225 2.228 . S
Cd226 O230 2.273 . S
Cd226 O234 2.277 . S
O227 C224 1.160 . S
O227 Cd228 2.203 . S
Cd228 O227 2.203 . S
Cd228 O230 2.411 . S
Cd228 O231 2.333 . S
Cd228 O232 2.352 . S
Cd228 O236 2.277 . S
Cd228 O237 2.356 . S
C229 O234 1.209 . S
C229 O236 1.226 . S
O230 Cd226 2.273 . S
O230 Cd228 2.411 . S
O230 C233 1.320 . S
O231 Cd228 2.333 . S
O231 C233 1.214 . S
O232 Cd228 2.352 . S
O232 C235 1.258 . S
C233 O230 1.320 . S
C233 O231 1.214 . S
O234 Cd226 2.277 . S
O234 C229 1.209 . S
C235 O232 1.258 . S
C235 O237 1.282 . S
O236 Cd228 2.277 . S
O236 C229 1.226 . S
O237 Cd228 2.356 . S
O237 C235 1.282 . S
C238 O239 1.306 . S
C238 O241 1.160 . S
O239 C238 1.306 . S
O239 Cd240 2.228 . S
Cd240 O239 2.228 . S
Cd240 O244 2.273 . S
Cd240 O248 2.277 . S
O241 C238 1.160 . S
O241 Cd242 2.203 . S
Cd242 O241 2.203 . S
Cd242 O244 2.411 . S
Cd242 O245 2.333 . S
Cd242 O246 2.352 . S
Cd242 O250 2.277 . S
Cd242 O251 2.356 . S
C243 O248 1.209 . S
C243 O250 1.226 . S
O244 Cd240 2.273 . S
O244 Cd242 2.411 . S
O244 C247 1.320 . S
O245 Cd242 2.333 . S
O245 C247 1.214 . S
O246 Cd242 2.352 . S
O246 C249 1.258 . S
C247 O244 1.320 . S
C247 O245 1.214 . S
O248 Cd240 2.277 . S
O248 C243 1.209 . S
C249 O246 1.258 . S
C249 O251 1.282 . S
O250 Cd242 2.277 . S
O250 C243 1.226 . S
O251 Cd242 2.356 . S
O251 C249 1.282 . S
C252 O253 1.306 . S
C252 O255 1.160 . S
O253 C252 1.306 . S
O253 Cd254 2.228 . S
Cd254 O253 2.228 . S
Cd254 O258 2.273 . S
Cd254 O262 2.277 . S
O255 C252 1.160 . S
O255 Cd256 2.203 . S
Cd256 O255 2.203 . S
Cd256 O258 2.411 . S
Cd256 O259 2.333 . S
Cd256 O260 2.352 . S
Cd256 O264 2.277 . S
Cd256 O265 2.356 . S
C257 O262 1.209 . S
C257 O264 1.226 . S
O258 Cd254 2.273 . S
O258 Cd256 2.411 . S
O258 C261 1.320 . S
O259 Cd256 2.333 . S
O259 C261 1.214 . S
O260 Cd256 2.352 . S
O260 C263 1.258 . S
C261 O258 1.320 . S
C261 O259 1.214 . S
O262 Cd254 2.277 . S
O262 C257 1.209 . S
C263 O260 1.258 . S
C263 O265 1.282 . S
O264 Cd256 2.277 . S
O264 C257 1.226 . S
O265 Cd256 2.356 . S
O265 C263 1.282 . S
C266 O267 1.306 . S
C266 O269 1.160 . S
O267 C266 1.306 . S
O267 Cd268 2.228 . S
Cd268 O267 2.228 . S
Cd268 O272 2.273 . S
Cd268 O276 2.277 . S
O269 C266 1.160 . S
O269 Cd270 2.203 . S
Cd270 O269 2.203 . S
Cd270 O272 2.411 . S
Cd270 O273 2.333 . S
Cd270 O274 2.352 . S
Cd270 O278 2.277 . S
Cd270 O279 2.356 . S
C271 O276 1.209 . S
C271 O278 1.226 . S
O272 Cd268 2.273 . S
O272 Cd270 2.411 . S
O272 C275 1.320 . S
O273 Cd270 2.333 . S
O273 C275 1.214 . S
O274 Cd270 2.352 . S
O274 C277 1.258 . S
C275 O272 1.320 . S
C275 O273 1.214 . S
O276 Cd268 2.277 . S
O276 C271 1.209 . S
C277 O274 1.258 . S
C277 O279 1.282 . S
O278 Cd270 2.277 . S
O278 C271 1.226 . S
O279 Cd270 2.356 . S
O279 C277 1.282 . S
C280 O281 1.306 . S
C280 O283 1.160 . S
O281 C280 1.306 . S
O281 Cd282 2.228 . S
Cd282 O281 2.228 . S
Cd282 O286 2.273 . S
Cd282 O290 2.277 . S
O283 C280 1.160 . S
O283 Cd284 2.203 . S
Cd284 O283 2.203 . S
Cd284 O286 2.411 . S
Cd284 O287 2.333 . S
Cd284 O288 2.352 . S
Cd284 O292 2.277 . S
Cd284 O293 2.356 . S
C285 O290 1.209 . S
C285 O292 1.226 . S
O286 Cd282 2.273 . S
O286 Cd284 2.411 . S
O286 C289 1.320 . S
O287 Cd284 2.333 . S
O287 C289 1.214 . S
O288 Cd284 2.352 . S
O288 C291 1.258 . S
C289 O286 1.320 . S
C289 O287 1.214 . S
O290 Cd282 2.277 . S
O290 C285 1.209 . S
C291 O288 1.258 . S
C291 O293 1.282 . S
O292 Cd284 2.277 . S
O292 C285 1.226 . S
O293 Cd284 2.356 . S
O293 C291 1.282 . S
C294 O295 1.306 . S
C294 O297 1.160 . S
O295 C294 1.306 . S
O295 Cd296 2.228 . S
Cd296 O295 2.228 . S
Cd296 O300 2.273 . S
Cd296 O304 2.277 . S
O297 C294 1.160 . S
O297 Cd298 2.203 . S
Cd298 O297 2.203 . S
Cd298 O300 2.411 . S
Cd298 O301 2.333 . S
Cd298 O302 2.352 . S
Cd298 O306 2.277 . S
Cd298 O307 2.356 . S
C299 O304 1.209 . S
C299 O306 1.226 . S
O300 Cd296 2.273 . S
O300 Cd298 2.411 . S
O300 C303 1.320 . S
O301 Cd298 2.333 . S
O301 C303 1.214 . S
O302 Cd298 2.352 . S
O302 C305 1.258 . S
C303 O300 1.320 . S
C303 O301 1.214 . S
O304 Cd296 2.277 . S
O304 C299 1.209 . S
C305 O302 1.258 . S
C305 O307 1.282 . S
O306 Cd298 2.277 . S
O306 C299 1.226 . S
O307 Cd298 2.356 . S
O307 C305 1.282 . S
C308 O309 1.306 . S
C308 O311 1.160 . S
O309 C308 1.306 . S
O309 Cd310 2.228 . S
Cd310 O309 2.228 . S
Cd310 O314 2.273 . S
Cd310 O318 2.277 . S
O311 C308 1.160 . S
O311 Cd312 2.203 . S
Cd312 O311 2.203 . S
Cd312 O314 2.411 . S
Cd312 O315 2.333 . S
Cd312 O316 2.352 . S
Cd312 O320 2.277 . S
Cd312 O321 2.356 . S
C313 O318 1.209 . S
C313 O320 1.226 . S
O314 Cd310 2.273 . S
O314 Cd312 2.411 . S
O314 C317 1.320 . S
O315 Cd312 2.333 . S
O315 C317 1.214 . S
O316 Cd312 2.352 . S
O316 C319 1.258 . S
C317 O314 1.320 . S
C317 O315 1.214 . S
O318 Cd310 2.277 . S
O318 C313 1.209 . S
C319 O316 1.258 . S
C319 O321 1.282 . S
O320 Cd312 2.277 . S
O320 C313 1.226 . S
O321 Cd312 2.356 . S
O321 C319 1.282 . S
C322 O323 1.306 . S
C322 O325 1.160 . S
O323 C322 1.306 . S
O323 Cd324 2.228 . S
Cd324 O323 2.228 . S
Cd324 O328 2.273 . S
Cd324 O332 2.277 . S
O325 C322 1.160 . S
O325 Cd326 2.203 . S
Cd326 O325 2.203 . S
Cd326 O328 2.411 . S
Cd326 O329 2.333 . S
Cd326 O330 2.352 . S
Cd326 O334 2.277 . S
Cd326 O335 2.356 . S
C327 O332 1.209 . S
C327 O334 1.226 . S
O328 Cd324 2.273 . S
O328 Cd326 2.411 . S
O328 C331 1.320 . S
O329 Cd326 2.333 . S
O329 C331 1.214 . S
O330 Cd326 2.352 . S
O330 C333 1.258 . S
C331 O328 1.320 . S
C331 O329 1.214 . S
O332 Cd324 2.277 . S
O332 C327 1.209 . S
C333 O330 1.258 . S
C333 O335 1.282 . S
O334 Cd326 2.277 . S
O334 C327 1.226 . S
O335 Cd326 2.356 . S
O335 C333 1.282 . S
H336 C344 0.950 . S
H337 C349 0.950 . S
H338 C346 0.950 . S
H339 C348 0.950 . S
H340 C350 0.950 . S
H341 C352 0.950 . S
H342 C354 0.950 . S
H343 C355 0.950 . S
C344 H336 0.950 . S
C344 C345 1.386 . S
C344 C346 1.391 . S
C345 C344 1.386 . S
C345 C349 1.393 . S
C346 H338 0.950 . S
C346 C344 1.391 . S
C346 C347 1.400 . S
C347 C346 1.400 . S
C347 C348 1.398 . S
C347 C353 1.491 . S
C348 H339 0.950 . S
C348 C347 1.398 . S
C348 C349 1.391 . S
C349 H337 0.950 . S
C349 C345 1.393 . S
C349 C348 1.391 . S
C350 H340 0.950 . S
C350 C351 1.386 . S
C350 C352 1.391 . S
C351 C350 1.386 . S
C351 C355 1.393 . S
C352 H341 0.950 . S
C352 C350 1.391 . S
C352 C353 1.400 . S
C353 C347 1.491 . S
C353 C352 1.400 . S
C353 C354 1.398 . S
C354 H342 0.950 . S
C354 C353 1.398 . S
C354 C355 1.391 . S
C355 H343 0.950 . S
C355 C351 1.393 . S
C355 C354 1.391 . S
H356 C364 0.950 . S
H357 C369 0.950 . S
H358 C366 0.950 . S
H359 C368 0.950 . S
H360 C370 0.950 . S
H361 C372 0.950 . S
H362 C374 0.950 . S
H363 C375 0.950 . S
C364 H356 0.950 . S
C364 C365 1.386 . S
C364 C366 1.391 . S
C365 C364 1.386 . S
C365 C369 1.393 . S
C366 H358 0.950 . S
C366 C364 1.391 . S
C366 C367 1.400 . S
C367 C366 1.400 . S
C367 C368 1.398 . S
C367 C373 1.491 . S
C368 H359 0.950 . S
C368 C367 1.398 . S
C368 C369 1.391 . S
C369 H357 0.950 . S
C369 C365 1.393 . S
C369 C368 1.391 . S
C370 H360 0.950 . S
C370 C371 1.386 . S
C370 C372 1.391 . S
C371 C370 1.386 . S
C371 C375 1.393 . S
C372 H361 0.950 . S
C372 C370 1.391 . S
C372 C373 1.400 . S
C373 C367 1.491 . S
C373 C372 1.400 . S
C373 C374 1.398 . S
C374 H362 0.950 . S
C374 C373 1.398 . S
C374 C375 1.391 . S
C375 H363 0.950 . S
C375 C371 1.393 . S
C375 C374 1.391 . S
H376 C384 0.950 . S
H377 C389 0.950 . S
H378 C386 0.950 . S
H379 C388 0.950 . S
H380 C390 0.950 . S
H381 C392 0.950 . S
H382 C394 0.950 . S
H383 C395 0.950 . S
C384 H376 0.950 . S
C384 C385 1.386 . S
C384 C386 1.391 . S
C385 C384 1.386 . S
C385 C389 1.393 . S
C386 H378 0.950 . S
C386 C384 1.391 . S
C386 C387 1.400 . S
C387 C386 1.400 . S
C387 C388 1.398 . S
C387 C393 1.491 . S
C388 H379 0.950 . S
C388 C387 1.398 . S
C388 C389 1.391 . S
C389 H377 0.950 . S
C389 C385 1.393 . S
C389 C388 1.391 . S
C390 H380 0.950 . S
C390 C391 1.386 . S
C390 C392 1.391 . S
C391 C390 1.386 . S
C391 C395 1.393 . S
C392 H381 0.950 . S
C392 C390 1.391 . S
C392 C393 1.400 . S
C393 C387 1.491 . S
C393 C392 1.400 . S
C393 C394 1.398 . S
C394 H382 0.950 . S
C394 C393 1.398 . S
C394 C395 1.391 . S
C395 H383 0.950 . S
C395 C391 1.393 . S
C395 C394 1.391 . S
H396 C404 0.950 . S
H397 C409 0.950 . S
H398 C406 0.950 . S
H399 C408 0.950 . S
H400 C410 0.950 . S
H401 C412 0.950 . S
H402 C414 0.950 . S
H403 C415 0.950 . S
C404 H396 0.950 . S
C404 C405 1.386 . S
C404 C406 1.391 . S
C405 C404 1.386 . S
C405 C409 1.393 . S
C406 H398 0.950 . S
C406 C404 1.391 . S
C406 C407 1.400 . S
C407 C406 1.400 . S
C407 C408 1.398 . S
C407 C413 1.491 . S
C408 H399 0.950 . S
C408 C407 1.398 . S
C408 C409 1.391 . S
C409 H397 0.950 . S
C409 C405 1.393 . S
C409 C408 1.391 . S
C410 H400 0.950 . S
C410 C411 1.386 . S
C410 C412 1.391 . S
C411 C410 1.386 . S
C411 C415 1.393 . S
C412 H401 0.950 . S
C412 C410 1.391 . S
C412 C413 1.400 . S
C413 C407 1.491 . S
C413 C412 1.400 . S
C413 C414 1.398 . S
C414 H402 0.950 . S
C414 C413 1.398 . S
C414 C415 1.391 . S
C415 H403 0.950 . S
C415 C411 1.393 . S
C415 C414 1.391 . S
H416 C424 0.950 . S
H417 C429 0.950 . S
H418 C426 0.950 . S
H419 C428 0.950 . S
H420 C430 0.950 . S
H421 C432 0.950 . S
H422 C434 0.950 . S
H423 C435 0.950 . S
C424 H416 0.950 . S
C424 C425 1.386 . S
C424 C426 1.391 . S
C425 C424 1.386 . S
C425 C429 1.393 . S
C426 H418 0.950 . S
C426 C424 1.391 . S
C426 C427 1.400 . S
C427 C426 1.400 . S
C427 C428 1.398 . S
C427 C433 1.491 . S
C428 H419 0.950 . S
C428 C427 1.398 . S
C428 C429 1.391 . S
C429 H417 0.950 . S
C429 C425 1.393 . S
C429 C428 1.391 . S
C430 H420 0.950 . S
C430 C431 1.386 . S
C430 C432 1.391 . S
C431 C430 1.386 . S
C431 C435 1.393 . S
C432 H421 0.950 . S
C432 C430 1.391 . S
C432 C433 1.400 . S
C433 C427 1.491 . S
C433 C432 1.400 . S
C433 C434 1.398 . S
C434 H422 0.950 . S
C434 C433 1.398 . S
C434 C435 1.391 . S
C435 H423 0.950 . S
C435 C431 1.393 . S
C435 C434 1.391 . S
H436 C444 0.950 . S
H437 C449 0.950 . S
H438 C446 0.950 . S
H439 C448 0.950 . S
H440 C450 0.950 . S
H441 C452 0.950 . S
H442 C454 0.950 . S
H443 C455 0.950 . S
C444 H436 0.950 . S
C444 C445 1.386 . S
C444 C446 1.391 . S
C445 C444 1.386 . S
C445 C449 1.393 . S
C446 H438 0.950 . S
C446 C444 1.391 . S
C446 C447 1.400 . S
C447 C446 1.400 . S
C447 C448 1.398 . S
C447 C453 1.491 . S
C448 H439 0.950 . S
C448 C447 1.398 . S
C448 C449 1.391 . S
C449 H437 0.950 . S
C449 C445 1.393 . S
C449 C448 1.391 . S
C450 H440 0.950 . S
C450 C451 1.386 . S
C450 C452 1.391 . S
C451 C450 1.386 . S
C451 C455 1.393 . S
C452 H441 0.950 . S
C452 C450 1.391 . S
C452 C453 1.400 . S
C453 C447 1.491 . S
C453 C452 1.400 . S
C453 C454 1.398 . S
C454 H442 0.950 . S
C454 C453 1.398 . S
C454 C455 1.391 . S
C455 H443 0.950 . S
C455 C451 1.393 . S
C455 C454 1.391 . S
H456 C464 0.950 . S
H457 C469 0.950 . S
H458 C466 0.950 . S
H459 C468 0.950 . S
H460 C470 0.950 . S
H461 C472 0.950 . S
H462 C474 0.950 . S
H463 C475 0.950 . S
C464 H456 0.950 . S
C464 C465 1.386 . S
C464 C466 1.391 . S
C465 C464 1.386 . S
C465 C469 1.393 . S
C466 H458 0.950 . S
C466 C464 1.391 . S
C466 C467 1.400 . S
C467 C466 1.400 . S
C467 C468 1.398 . S
C467 C473 1.491 . S
C468 H459 0.950 . S
C468 C467 1.398 . S
C468 C469 1.391 . S
C469 H457 0.950 . S
C469 C465 1.393 . S
C469 C468 1.391 . S
C470 H460 0.950 . S
C470 C471 1.386 . S
C470 C472 1.391 . S
C471 C470 1.386 . S
C471 C475 1.393 . S
C472 H461 0.950 . S
C472 C470 1.391 . S
C472 C473 1.400 . S
C473 C467 1.491 . S
C473 C472 1.400 . S
C473 C474 1.398 . S
C474 H462 0.950 . S
C474 C473 1.398 . S
C474 C475 1.391 . S
C475 H463 0.950 . S
C475 C471 1.393 . S
C475 C474 1.391 . S
H476 C484 0.950 . S
H477 C489 0.950 . S
H478 C486 0.950 . S
H479 C488 0.950 . S
H480 C490 0.950 . S
H481 C492 0.950 . S
H482 C494 0.950 . S
H483 C495 0.950 . S
C484 H476 0.950 . S
C484 C485 1.386 . S
C484 C486 1.391 . S
C485 C484 1.386 . S
C485 C489 1.393 . S
C486 H478 0.950 . S
C486 C484 1.391 . S
C486 C487 1.400 . S
C487 C486 1.400 . S
C487 C488 1.398 . S
C487 C493 1.491 . S
C488 H479 0.950 . S
C488 C487 1.398 . S
C488 C489 1.391 . S
C489 H477 0.950 . S
C489 C485 1.393 . S
C489 C488 1.391 . S
C490 H480 0.950 . S
C490 C491 1.386 . S
C490 C492 1.391 . S
C491 C490 1.386 . S
C491 C495 1.393 . S
C492 H481 0.950 . S
C492 C490 1.391 . S
C492 C493 1.400 . S
C493 C487 1.491 . S
C493 C492 1.400 . S
C493 C494 1.398 . S
C494 H482 0.950 . S
C494 C493 1.398 . S
C494 C495 1.391 . S
C495 H483 0.950 . S
C495 C491 1.393 . S
C495 C494 1.391 . S
H496 C504 0.950 . S
H497 C509 0.950 . S
H498 C506 0.950 . S
H499 C508 0.950 . S
H500 C510 0.950 . S
H501 C512 0.950 . S
H502 C514 0.950 . S
H503 C515 0.950 . S
C504 H496 0.950 . S
C504 C505 1.386 . S
C504 C506 1.391 . S
C505 C504 1.386 . S
C505 C509 1.393 . S
C506 H498 0.950 . S
C506 C504 1.391 . S
C506 C507 1.400 . S
C507 C506 1.400 . S
C507 C508 1.398 . S
C507 C513 1.491 . S
C508 H499 0.950 . S
C508 C507 1.398 . S
C508 C509 1.391 . S
C509 H497 0.950 . S
C509 C505 1.393 . S
C509 C508 1.391 . S
C510 H500 0.950 . S
C510 C511 1.386 . S
C510 C512 1.391 . S
C511 C510 1.386 . S
C511 C515 1.393 . S
C512 H501 0.950 . S
C512 C510 1.391 . S
C512 C513 1.400 . S
C513 C507 1.491 . S
C513 C512 1.400 . S
C513 C514 1.398 . S
C514 H502 0.950 . S
C514 C513 1.398 . S
C514 C515 1.391 . S
C515 H503 0.950 . S
C515 C511 1.393 . S
C515 C514 1.391 . S
H516 C524 0.950 . S
H517 C529 0.950 . S
H518 C526 0.950 . S
H519 C528 0.950 . S
H520 C530 0.950 . S
H521 C532 0.950 . S
H522 C534 0.950 . S
H523 C535 0.950 . S
C524 H516 0.950 . S
C524 C525 1.386 . S
C524 C526 1.391 . S
C525 C524 1.386 . S
C525 C529 1.393 . S
C526 H518 0.950 . S
C526 C524 1.391 . S
C526 C527 1.400 . S
C527 C526 1.400 . S
C527 C528 1.398 . S
C527 C533 1.491 . S
C528 H519 0.950 . S
C528 C527 1.398 . S
C528 C529 1.391 . S
C529 H517 0.950 . S
C529 C525 1.393 . S
C529 C528 1.391 . S
C530 H520 0.950 . S
C530 C531 1.386 . S
C530 C532 1.391 . S
C531 C530 1.386 . S
C531 C535 1.393 . S
C532 H521 0.950 . S
C532 C530 1.391 . S
C532 C533 1.400 . S
C533 C527 1.491 . S
C533 C532 1.400 . S
C533 C534 1.398 . S
C534 H522 0.950 . S
C534 C533 1.398 . S
C534 C535 1.391 . S
C535 H523 0.950 . S
C535 C531 1.393 . S
C535 C534 1.391 . S
H536 C544 0.950 . S
H537 C549 0.950 . S
H538 C546 0.950 . S
H539 C548 0.950 . S
H540 C550 0.950 . S
H541 C552 0.950 . S
H542 C554 0.950 . S
H543 C555 0.950 . S
C544 H536 0.950 . S
C544 C545 1.386 . S
C544 C546 1.391 . S
C545 C544 1.386 . S
C545 C549 1.393 . S
C546 H538 0.950 . S
C546 C544 1.391 . S
C546 C547 1.400 . S
C547 C546 1.400 . S
C547 C548 1.398 . S
C547 C553 1.491 . S
C548 H539 0.950 . S
C548 C547 1.398 . S
C548 C549 1.391 . S
C549 H537 0.950 . S
C549 C545 1.393 . S
C549 C548 1.391 . S
C550 H540 0.950 . S
C550 C551 1.386 . S
C550 C552 1.391 . S
C551 C550 1.386 . S
C551 C555 1.393 . S
C552 H541 0.950 . S
C552 C550 1.391 . S
C552 C553 1.400 . S
C553 C547 1.491 . S
C553 C552 1.400 . S
C553 C554 1.398 . S
C554 H542 0.950 . S
C554 C553 1.398 . S
C554 C555 1.391 . S
C555 H543 0.950 . S
C555 C551 1.393 . S
C555 C554 1.391 . S
H556 C564 0.950 . S
H557 C569 0.950 . S
H558 C566 0.950 . S
H559 C568 0.950 . S
H560 C570 0.950 . S
H561 C572 0.950 . S
H562 C574 0.950 . S
H563 C575 0.950 . S
C564 H556 0.950 . S
C564 C565 1.386 . S
C564 C566 1.391 . S
C565 C564 1.386 . S
C565 C569 1.393 . S
C566 H558 0.950 . S
C566 C564 1.391 . S
C566 C567 1.400 . S
C567 C566 1.400 . S
C567 C568 1.398 . S
C567 C573 1.491 . S
C568 H559 0.950 . S
C568 C567 1.398 . S
C568 C569 1.391 . S
C569 H557 0.950 . S
C569 C565 1.393 . S
C569 C568 1.391 . S
C570 H560 0.950 . S
C570 C571 1.386 . S
C570 C572 1.391 . S
C571 C570 1.386 . S
C571 C575 1.393 . S
C572 H561 0.950 . S
C572 C570 1.391 . S
C572 C573 1.400 . S
C573 C567 1.491 . S
C573 C572 1.400 . S
C573 C574 1.398 . S
C574 H562 0.950 . S
C574 C573 1.398 . S
C574 C575 1.391 . S
C575 H563 0.950 . S
C575 C571 1.393 . S
C575 C574 1.391 . S
H576 C584 0.950 . S
H577 C589 0.950 . S
H578 C586 0.950 . S
H579 C588 0.950 . S
H580 C590 0.950 . S
H581 C592 0.950 . S
H582 C594 0.950 . S
H583 C595 0.950 . S
C584 H576 0.950 . S
C584 C585 1.386 . S
C584 C586 1.391 . S
C585 C584 1.386 . S
C585 C589 1.393 . S
C586 H578 0.950 . S
C586 C584 1.391 . S
C586 C587 1.400 . S
C587 C586 1.400 . S
C587 C588 1.398 . S
C587 C593 1.491 . S
C588 H579 0.950 . S
C588 C587 1.398 . S
C588 C589 1.391 . S
C589 H577 0.950 . S
C589 C585 1.393 . S
C589 C588 1.391 . S
C590 H580 0.950 . S
C590 C591 1.386 . S
C590 C592 1.391 . S
C591 C590 1.386 . S
C591 C595 1.393 . S
C592 H581 0.950 . S
C592 C590 1.391 . S
C592 C593 1.400 . S
C593 C587 1.491 . S
C593 C592 1.400 . S
C593 C594 1.398 . S
C594 H582 0.950 . S
C594 C593 1.398 . S
C594 C595 1.391 . S
C595 H583 0.950 . S
C595 C591 1.393 . S
C595 C594 1.391 . S
H596 C604 0.950 . S
H597 C609 0.950 . S
H598 C606 0.950 . S
H599 C608 0.950 . S
H600 C610 0.950 . S
H601 C612 0.950 . S
H602 C614 0.950 . S
H603 C615 0.950 . S
C604 H596 0.950 . S
C604 C605 1.386 . S
C604 C606 1.391 . S
C605 C604 1.386 . S
C605 C609 1.393 . S
C606 H598 0.950 . S
C606 C604 1.391 . S
C606 C607 1.400 . S
C607 C606 1.400 . S
C607 C608 1.398 . S
C607 C613 1.491 . S
C608 H599 0.950 . S
C608 C607 1.398 . S
C608 C609 1.391 . S
C609 H597 0.950 . S
C609 C605 1.393 . S
C609 C608 1.391 . S
C610 H600 0.950 . S
C610 C611 1.386 . S
C610 C612 1.391 . S
C611 C610 1.386 . S
C611 C615 1.393 . S
C612 H601 0.950 . S
C612 C610 1.391 . S
C612 C613 1.400 . S
C613 C607 1.491 . S
C613 C612 1.400 . S
C613 C614 1.398 . S
C614 H602 0.950 . S
C614 C613 1.398 . S
C614 C615 1.391 . S
C615 H603 0.950 . S
C615 C611 1.393 . S
C615 C614 1.391 . S
H616 C624 0.950 . S
H617 C629 0.950 . S
H618 C626 0.950 . S
H619 C628 0.950 . S
H620 C630 0.950 . S
H621 C632 0.950 . S
H622 C634 0.950 . S
H623 C635 0.950 . S
C624 H616 0.950 . S
C624 C625 1.386 . S
C624 C626 1.391 . S
C625 C624 1.386 . S
C625 C629 1.393 . S
C626 H618 0.950 . S
C626 C624 1.391 . S
C626 C627 1.400 . S
C627 C626 1.400 . S
C627 C628 1.398 . S
C627 C633 1.491 . S
C628 H619 0.950 . S
C628 C627 1.398 . S
C628 C629 1.391 . S
C629 H617 0.950 . S
C629 C625 1.393 . S
C629 C628 1.391 . S
C630 H620 0.950 . S
C630 C631 1.386 . S
C630 C632 1.391 . S
C631 C630 1.386 . S
C631 C635 1.393 . S
C632 H621 0.950 . S
C632 C630 1.391 . S
C632 C633 1.400 . S
C633 C627 1.491 . S
C633 C632 1.400 . S
C633 C634 1.398 . S
C634 H622 0.950 . S
C634 C633 1.398 . S
C634 C635 1.391 . S
C635 H623 0.950 . S
C635 C631 1.393 . S
C635 C634 1.391 . S
H636 C644 0.950 . S
H637 C649 0.950 . S
H638 C646 0.950 . S
H639 C648 0.950 . S
H640 C650 0.950 . S
H641 C652 0.950 . S
H642 C654 0.950 . S
H643 C655 0.950 . S
C644 H636 0.950 . S
C644 C645 1.386 . S
C644 C646 1.391 . S
C645 C644 1.386 . S
C645 C649 1.393 . S
C646 H638 0.950 . S
C646 C644 1.391 . S
C646 C647 1.400 . S
C647 C646 1.400 . S
C647 C648 1.398 . S
C647 C653 1.491 . S
C648 H639 0.950 . S
C648 C647 1.398 . S
C648 C649 1.391 . S
C649 H637 0.950 . S
C649 C645 1.393 . S
C649 C648 1.391 . S
C650 H640 0.950 . S
C650 C651 1.386 . S
C650 C652 1.391 . S
C651 C650 1.386 . S
C651 C655 1.393 . S
C652 H641 0.950 . S
C652 C650 1.391 . S
C652 C653 1.400 . S
C653 C647 1.491 . S
C653 C652 1.400 . S
C653 C654 1.398 . S
C654 H642 0.950 . S
C654 C653 1.398 . S
C654 C655 1.391 . S
C655 H643 0.950 . S
C655 C651 1.393 . S
C655 C654 1.391 . S
H656 C664 0.950 . S
H657 C669 0.950 . S
H658 C666 0.950 . S
H659 C668 0.950 . S
H660 C670 0.950 . S
H661 C672 0.950 . S
H662 C674 0.950 . S
H663 C675 0.950 . S
C664 H656 0.950 . S
C664 C665 1.386 . S
C664 C666 1.391 . S
C665 C664 1.386 . S
C665 C669 1.393 . S
C666 H658 0.950 . S
C666 C664 1.391 . S
C666 C667 1.400 . S
C667 C666 1.400 . S
C667 C668 1.398 . S
C667 C673 1.491 . S
C668 H659 0.950 . S
C668 C667 1.398 . S
C668 C669 1.391 . S
C669 H657 0.950 . S
C669 C665 1.393 . S
C669 C668 1.391 . S
C670 H660 0.950 . S
C670 C671 1.386 . S
C670 C672 1.391 . S
C671 C670 1.386 . S
C671 C675 1.393 . S
C672 H661 0.950 . S
C672 C670 1.391 . S
C672 C673 1.400 . S
C673 C667 1.491 . S
C673 C672 1.400 . S
C673 C674 1.398 . S
C674 H662 0.950 . S
C674 C673 1.398 . S
C674 C675 1.391 . S
C675 H663 0.950 . S
C675 C671 1.393 . S
C675 C674 1.391 . S
H676 C684 0.950 . S
H677 C689 0.950 . S
H678 C686 0.950 . S
H679 C688 0.950 . S
H680 C690 0.950 . S
H681 C692 0.950 . S
H682 C694 0.950 . S
H683 C695 0.950 . S
C684 H676 0.950 . S
C684 C685 1.386 . S
C684 C686 1.391 . S
C685 C684 1.386 . S
C685 C689 1.393 . S
C686 H678 0.950 . S
C686 C684 1.391 . S
C686 C687 1.400 . S
C687 C686 1.400 . S
C687 C688 1.398 . S
C687 C693 1.491 . S
C688 H679 0.950 . S
C688 C687 1.398 . S
C688 C689 1.391 . S
C689 H677 0.950 . S
C689 C685 1.393 . S
C689 C688 1.391 . S
C690 H680 0.950 . S
C690 C691 1.386 . S
C690 C692 1.391 . S
C691 C690 1.386 . S
C691 C695 1.393 . S
C692 H681 0.950 . S
C692 C690 1.391 . S
C692 C693 1.400 . S
C693 C687 1.491 . S
C693 C692 1.400 . S
C693 C694 1.398 . S
C694 H682 0.950 . S
C694 C693 1.398 . S
C694 C695 1.391 . S
C695 H683 0.950 . S
C695 C691 1.393 . S
C695 C694 1.391 . S
H696 C704 0.950 . S
H697 C709 0.950 . S
H698 C706 0.950 . S
H699 C708 0.950 . S
H700 C710 0.950 . S
H701 C712 0.950 . S
H702 C714 0.950 . S
H703 C715 0.950 . S
C704 H696 0.950 . S
C704 C705 1.386 . S
C704 C706 1.391 . S
C705 C704 1.386 . S
C705 C709 1.393 . S
C706 H698 0.950 . S
C706 C704 1.391 . S
C706 C707 1.400 . S
C707 C706 1.400 . S
C707 C708 1.398 . S
C707 C713 1.491 . S
C708 H699 0.950 . S
C708 C707 1.398 . S
C708 C709 1.391 . S
C709 H697 0.950 . S
C709 C705 1.393 . S
C709 C708 1.391 . S
C710 H700 0.950 . S
C710 C711 1.386 . S
C710 C712 1.391 . S
C711 C710 1.386 . S
C711 C715 1.393 . S
C712 H701 0.950 . S
C712 C710 1.391 . S
C712 C713 1.400 . S
C713 C707 1.491 . S
C713 C712 1.400 . S
C713 C714 1.398 . S
C714 H702 0.950 . S
C714 C713 1.398 . S
C714 C715 1.391 . S
C715 H703 0.950 . S
C715 C711 1.393 . S
C715 C714 1.391 . S
H716 C724 0.950 . S
H717 C729 0.950 . S
H718 C726 0.950 . S
H719 C728 0.950 . S
H720 C730 0.950 . S
H721 C732 0.950 . S
H722 C734 0.950 . S
H723 C735 0.950 . S
C724 H716 0.950 . S
C724 C725 1.386 . S
C724 C726 1.391 . S
C725 C724 1.386 . S
C725 C729 1.393 . S
C726 H718 0.950 . S
C726 C724 1.391 . S
C726 C727 1.400 . S
C727 C726 1.400 . S
C727 C728 1.398 . S
C727 C733 1.491 . S
C728 H719 0.950 . S
C728 C727 1.398 . S
C728 C729 1.391 . S
C729 H717 0.950 . S
C729 C725 1.393 . S
C729 C728 1.391 . S
C730 H720 0.950 . S
C730 C731 1.386 . S
C730 C732 1.391 . S
C731 C730 1.386 . S
C731 C735 1.393 . S
C732 H721 0.950 . S
C732 C730 1.391 . S
C732 C733 1.400 . S
C733 C727 1.491 . S
C733 C732 1.400 . S
C733 C734 1.398 . S
C734 H722 0.950 . S
C734 C733 1.398 . S
C734 C735 1.391 . S
C735 H723 0.950 . S
C735 C731 1.393 . S
C735 C734 1.391 . S
H736 C744 0.950 . S
H737 C749 0.950 . S
H738 C746 0.950 . S
H739 C748 0.950 . S
H740 C750 0.950 . S
H741 C752 0.950 . S
H742 C754 0.950 . S
H743 C755 0.950 . S
C744 H736 0.950 . S
C744 C745 1.386 . S
C744 C746 1.391 . S
C745 C744 1.386 . S
C745 C749 1.393 . S
C746 H738 0.950 . S
C746 C744 1.391 . S
C746 C747 1.400 . S
C747 C746 1.400 . S
C747 C748 1.398 . S
C747 C753 1.491 . S
C748 H739 0.950 . S
C748 C747 1.398 . S
C748 C749 1.391 . S
C749 H737 0.950 . S
C749 C745 1.393 . S
C749 C748 1.391 . S
C750 H740 0.950 . S
C750 C751 1.386 . S
C750 C752 1.391 . S
C751 C750 1.386 . S
C751 C755 1.393 . S
C752 H741 0.950 . S
C752 C750 1.391 . S
C752 C753 1.400 . S
C753 C747 1.491 . S
C753 C752 1.400 . S
C753 C754 1.398 . S
C754 H742 0.950 . S
C754 C753 1.398 . S
C754 C755 1.391 . S
C755 H743 0.950 . S
C755 C751 1.393 . S
C755 C754 1.391 . S
H756 C764 0.950 . S
H757 C769 0.950 . S
H758 C766 0.950 . S
H759 C768 0.950 . S
H760 C770 0.950 . S
H761 C772 0.950 . S
H762 C774 0.950 . S
H763 C775 0.950 . S
C764 H756 0.950 . S
C764 C765 1.386 . S
C764 C766 1.391 . S
C765 C764 1.386 . S
C765 C769 1.393 . S
C766 H758 0.950 . S
C766 C764 1.391 . S
C766 C767 1.400 . S
C767 C766 1.400 . S
C767 C768 1.398 . S
C767 C773 1.491 . S
C768 H759 0.950 . S
C768 C767 1.398 . S
C768 C769 1.391 . S
C769 H757 0.950 . S
C769 C765 1.393 . S
C769 C768 1.391 . S
C770 H760 0.950 . S
C770 C771 1.386 . S
C770 C772 1.391 . S
C771 C770 1.386 . S
C771 C775 1.393 . S
C772 H761 0.950 . S
C772 C770 1.391 . S
C772 C773 1.400 . S
C773 C767 1.491 . S
C773 C772 1.400 . S
C773 C774 1.398 . S
C774 H762 0.950 . S
C774 C773 1.398 . S
C774 C775 1.391 . S
C775 H763 0.950 . S
C775 C771 1.393 . S
C775 C774 1.391 . S
H776 C784 0.950 . S
H777 C789 0.950 . S
H778 C786 0.950 . S
H779 C788 0.950 . S
H780 C790 0.950 . S
H781 C792 0.950 . S
H782 C794 0.950 . S
H783 C795 0.950 . S
C784 H776 0.950 . S
C784 C785 1.386 . S
C784 C786 1.391 . S
C785 C784 1.386 . S
C785 C789 1.393 . S
C786 H778 0.950 . S
C786 C784 1.391 . S
C786 C787 1.400 . S
C787 C786 1.400 . S
C787 C788 1.398 . S
C787 C793 1.491 . S
C788 H779 0.950 . S
C788 C787 1.398 . S
C788 C789 1.391 . S
C789 H777 0.950 . S
C789 C785 1.393 . S
C789 C788 1.391 . S
C790 H780 0.950 . S
C790 C791 1.386 . S
C790 C792 1.391 . S
C791 C790 1.386 . S
C791 C795 1.393 . S
C792 H781 0.950 . S
C792 C790 1.391 . S
C792 C793 1.400 . S
C793 C787 1.491 . S
C793 C792 1.400 . S
C793 C794 1.398 . S
C794 H782 0.950 . S
C794 C793 1.398 . S
C794 C795 1.391 . S
C795 H783 0.950 . S
C795 C791 1.393 . S
C795 C794 1.391 . S
H796 C804 0.950 . S
H797 C809 0.950 . S
H798 C806 0.950 . S
H799 C808 0.950 . S
H800 C810 0.950 . S
H801 C812 0.950 . S
H802 C814 0.950 . S
H803 C815 0.950 . S
C804 H796 0.950 . S
C804 C805 1.386 . S
C804 C806 1.391 . S
C805 C804 1.386 . S
C805 C809 1.393 . S
C806 H798 0.950 . S
C806 C804 1.391 . S
C806 C807 1.400 . S
C807 C806 1.400 . S
C807 C808 1.398 . S
C807 C813 1.491 . S
C808 H799 0.950 . S
C808 C807 1.398 . S
C808 C809 1.391 . S
C809 H797 0.950 . S
C809 C805 1.393 . S
C809 C808 1.391 . S
C810 H800 0.950 . S
C810 C811 1.386 . S
C810 C812 1.391 . S
C811 C810 1.386 . S
C811 C815 1.393 . S
C812 H801 0.950 . S
C812 C810 1.391 . S
C812 C813 1.400 . S
C813 C807 1.491 . S
C813 C812 1.400 . S
C813 C814 1.398 . S
C814 H802 0.950 . S
C814 C813 1.398 . S
C814 C815 1.391 . S
C815 H803 0.950 . S
C815 C811 1.393 . S
C815 C814 1.391 . S
H816 C824 0.950 . S
H817 C829 0.950 . S
H818 C826 0.950 . S
H819 C828 0.950 . S
H820 C830 0.950 . S
H821 C832 0.950 . S
H822 C834 0.950 . S
H823 C835 0.950 . S
C824 H816 0.950 . S
C824 C825 1.386 . S
C824 C826 1.391 . S
C825 C824 1.386 . S
C825 C829 1.393 . S
C826 H818 0.950 . S
C826 C824 1.391 . S
C826 C827 1.400 . S
C827 C826 1.400 . S
C827 C828 1.398 . S
C827 C833 1.491 1_455 S
C828 H819 0.950 . S
C828 C827 1.398 . S
C828 C829 1.391 . S
C829 H817 0.950 . S
C829 C825 1.393 . S
C829 C828 1.391 . S
C830 H820 0.950 . S
C830 C831 1.386 . S
C830 C832 1.391 . S
C831 C830 1.386 . S
C831 C835 1.393 . S
C832 H821 0.950 . S
C832 C830 1.391 . S
C832 C833 1.400 . S
C833 C827 1.491 1_655 S
C833 C832 1.400 . S
C833 C834 1.398 . S
C834 H822 0.950 . S
C834 C833 1.398 . S
C834 C835 1.391 . S
C835 H823 0.950 . S
C835 C831 1.393 . S
C835 C834 1.391 . S
H836 C844 0.950 . S
H837 C849 0.950 . S
H838 C846 0.950 . S
H839 C848 0.950 . S
H840 C850 0.950 . S
H841 C852 0.950 . S
H842 C854 0.950 . S
H843 C855 0.950 . S
C844 H836 0.950 . S
C844 C845 1.386 . S
C844 C846 1.391 . S
C845 C844 1.386 . S
C845 C849 1.393 . S
C846 H838 0.950 . S
C846 C844 1.391 . S
C846 C847 1.400 . S
C847 C846 1.400 . S
C847 C848 1.398 . S
C847 C853 1.491 1_545 S
C848 H839 0.950 . S
C848 C847 1.398 . S
C848 C849 1.391 . S
C849 H837 0.950 . S
C849 C845 1.393 . S
C849 C848 1.391 . S
C850 H840 0.950 . S
C850 C851 1.386 . S
C850 C852 1.391 . S
C851 C850 1.386 . S
C851 C855 1.393 . S
C852 H841 0.950 . S
C852 C850 1.391 . S
C852 C853 1.400 . S
C853 C847 1.491 1_565 S
C853 C852 1.400 . S
C853 C854 1.398 . S
C854 H842 0.950 . S
C854 C853 1.398 . S
C854 C855 1.391 . S
C855 H843 0.950 . S
C855 C851 1.393 . S
C855 C854 1.391 . S
H856 C864 0.950 . S
H857 C869 0.950 . S
H858 C866 0.950 . S
H859 C868 0.950 . S
H860 C870 0.950 . S
H861 C872 0.950 . S
H862 C874 0.950 . S
H863 C875 0.950 . S
C864 H856 0.950 . S
C864 C865 1.386 . S
C864 C866 1.391 . S
C865 C864 1.386 . S
C865 C869 1.393 . S
C866 H858 0.950 . S
C866 C864 1.391 . S
C866 C867 1.400 . S
C867 C866 1.400 . S
C867 C868 1.398 . S
C867 C873 1.491 1_655 S
C868 H859 0.950 . S
C868 C867 1.398 . S
C868 C869 1.391 . S
C869 H857 0.950 . S
C869 C865 1.393 . S
C869 C868 1.391 . S
C870 H860 0.950 . S
C870 C871 1.386 . S
C870 C872 1.391 . S
C871 C870 1.386 . S
C871 C875 1.393 . S
C872 H861 0.950 . S
C872 C870 1.391 . S
C872 C873 1.400 . S
C873 C867 1.491 1_455 S
C873 C872 1.400 . S
C873 C874 1.398 . S
C874 H862 0.950 . S
C874 C873 1.398 . S
C874 C875 1.391 . S
C875 H863 0.950 . S
C875 C871 1.393 . S
C875 C874 1.391 . S
H876 C884 0.950 . S
H877 C889 0.950 . S
H878 C886 0.950 . S
H879 C888 0.950 . S
H880 C890 0.950 . S
H881 C892 0.950 . S
H882 C894 0.950 . S
H883 C895 0.950 . S
C884 H876 0.950 . S
C884 C885 1.386 . S
C884 C886 1.391 . S
C885 C884 1.386 . S
C885 C889 1.393 . S
C886 H878 0.950 . S
C886 C884 1.391 . S
C886 C887 1.400 . S
C887 C886 1.400 . S
C887 C888 1.398 . S
C887 C893 1.491 1_545 S
C888 H879 0.950 . S
C888 C887 1.398 . S
C888 C889 1.391 . S
C889 H877 0.950 . S
C889 C885 1.393 . S
C889 C888 1.391 . S
C890 H880 0.950 . S
C890 C891 1.386 . S
C890 C892 1.391 . S
C891 C890 1.386 . S
C891 C895 1.393 . S
C892 H881 0.950 . S
C892 C890 1.391 . S
C892 C893 1.400 . S
C893 C887 1.491 1_565 S
C893 C892 1.400 . S
C893 C894 1.398 . S
C894 H882 0.950 . S
C894 C893 1.398 . S
C894 C895 1.391 . S
C895 H883 0.950 . S
C895 C891 1.393 . S
C895 C894 1.391 . S
H896 C904 0.950 . S
H897 C909 0.950 . S
H898 C906 0.950 . S
H899 C908 0.950 . S
H900 C910 0.950 . S
H901 C912 0.950 . S
H902 C914 0.950 . S
H903 C915 0.950 . S
C904 H896 0.950 . S
C904 C905 1.386 . S
C904 C906 1.391 . S
C905 C904 1.386 . S
C905 C909 1.393 . S
C906 H898 0.950 . S
C906 C904 1.391 . S
C906 C907 1.400 . S
C907 C906 1.400 . S
C907 C908 1.398 . S
C907 C913 1.491 1_565 S
C908 H899 0.950 . S
C908 C907 1.398 . S
C908 C909 1.391 . S
C909 H897 0.950 . S
C909 C905 1.393 . S
C909 C908 1.391 . S
C910 H900 0.950 . S
C910 C911 1.386 . S
C910 C912 1.391 . S
C911 C910 1.386 . S
C911 C915 1.393 . S
C912 H901 0.950 . S
C912 C910 1.391 . S
C912 C913 1.400 . S
C913 C907 1.491 1_545 S
C913 C912 1.400 . S
C913 C914 1.398 . S
C914 H902 0.950 . S
C914 C913 1.398 . S
C914 C915 1.391 . S
C915 H903 0.950 . S
C915 C911 1.393 . S
C915 C914 1.391 . S
H916 C924 0.950 . S
H917 C929 0.950 . S
H918 C926 0.950 . S
H919 C928 0.950 . S
H920 C930 0.950 . S
H921 C932 0.950 . S
H922 C934 0.950 . S
H923 C935 0.950 . S
C924 H916 0.950 . S
C924 C925 1.386 . S
C924 C926 1.391 . S
C925 C924 1.386 . S
C925 C929 1.393 . S
C926 H918 0.950 . S
C926 C924 1.391 . S
C926 C927 1.400 . S
C927 C926 1.400 . S
C927 C928 1.398 . S
C927 C933 1.491 1_655 S
C928 H919 0.950 . S
C928 C927 1.398 . S
C928 C929 1.391 . S
C929 H917 0.950 . S
C929 C925 1.393 . S
C929 C928 1.391 . S
C930 H920 0.950 . S
C930 C931 1.386 . S
C930 C932 1.391 . S
C931 C930 1.386 . S
C931 C935 1.393 . S
C932 H921 0.950 . S
C932 C930 1.391 . S
C932 C933 1.400 . S
C933 C927 1.491 1_455 S
C933 C932 1.400 . S
C933 C934 1.398 . S
C934 H922 0.950 . S
C934 C933 1.398 . S
C934 C935 1.391 . S
C935 H923 0.950 . S
C935 C931 1.393 . S
C935 C934 1.391 . S
H936 C944 0.950 . S
H937 C949 0.950 . S
H938 C946 0.950 . S
H939 C948 0.950 . S
H940 C950 0.950 . S
H941 C952 0.950 . S
H942 C954 0.950 . S
H943 C955 0.950 . S
C944 H936 0.950 . S
C944 C945 1.386 . S
C944 C946 1.391 . S
C945 C944 1.386 . S
C945 C949 1.393 . S
C946 H938 0.950 . S
C946 C944 1.391 . S
C946 C947 1.400 . S
C947 C946 1.400 . S
C947 C948 1.398 . S
C947 C953 1.491 1_565 S
C948 H939 0.950 . S
C948 C947 1.398 . S
C948 C949 1.391 . S
C949 H937 0.950 . S
C949 C945 1.393 . S
C949 C948 1.391 . S
C950 H940 0.950 . S
C950 C951 1.386 . S
C950 C952 1.391 . S
C951 C950 1.386 . S
C951 C955 1.393 . S
C952 H941 0.950 . S
C952 C950 1.391 . S
C952 C953 1.400 . S
C953 C947 1.491 1_545 S
C953 C952 1.400 . S
C953 C954 1.398 . S
C954 H942 0.950 . S
C954 C953 1.398 . S
C954 C955 1.391 . S
C955 H943 0.950 . S
C955 C951 1.393 . S
C955 C954 1.391 . S
H956 C964 0.950 . S
H957 C969 0.950 . S
H958 C966 0.950 . S
H959 C968 0.950 . S
H960 C970 0.950 . S
H961 C972 0.950 . S
H962 C974 0.950 . S
H963 C975 0.950 . S
C964 H956 0.950 . S
C964 C965 1.386 . S
C964 C966 1.391 . S
C965 C964 1.386 . S
C965 C969 1.393 . S
C966 H958 0.950 . S
C966 C964 1.391 . S
C966 C967 1.400 . S
C967 C966 1.400 . S
C967 C968 1.398 . S
C967 C973 1.491 1_655 S
C968 H959 0.950 . S
C968 C967 1.398 . S
C968 C969 1.391 . S
C969 H957 0.950 . S
C969 C965 1.393 . S
C969 C968 1.391 . S
C970 H960 0.950 . S
C970 C971 1.386 . S
C970 C972 1.391 . S
C971 C970 1.386 . S
C971 C975 1.393 . S
C972 H961 0.950 . S
C972 C970 1.391 . S
C972 C973 1.400 . S
C973 C967 1.491 1_455 S
C973 C972 1.400 . S
C973 C974 1.398 . S
C974 H962 0.950 . S
C974 C973 1.398 . S
C974 C975 1.391 . S
C975 H963 0.950 . S
C975 C971 1.393 . S
C975 C974 1.391 . S
H976 C984 0.950 . S
H977 C989 0.950 . S
H978 C986 0.950 . S
H979 C988 0.950 . S
H980 C990 0.950 . S
H981 C992 0.950 . S
H982 C994 0.950 . S
H983 C995 0.950 . S
C984 H976 0.950 . S
C984 C985 1.386 . S
C984 C986 1.391 . S
C985 C984 1.386 . S
C985 C989 1.393 . S
C986 H978 0.950 . S
C986 C984 1.391 . S
C986 C987 1.400 . S
C987 C986 1.400 . S
C987 C988 1.398 . S
C987 C993 1.491 1_556 S
C988 H979 0.950 . S
C988 C987 1.398 . S
C988 C989 1.391 . S
C989 H977 0.950 . S
C989 C985 1.393 . S
C989 C988 1.391 . S
C990 H980 0.950 . S
C990 C991 1.386 . S
C990 C992 1.391 . S
C991 C990 1.386 . S
C991 C995 1.393 . S
C992 H981 0.950 . S
C992 C990 1.391 . S
C992 C993 1.400 . S
C993 C987 1.491 1_554 S
C993 C992 1.400 . S
C993 C994 1.398 . S
C994 H982 0.950 . S
C994 C993 1.398 . S
C994 C995 1.391 . S
C995 H983 0.950 . S
C995 C991 1.393 . S
C995 C994 1.391 . S
H996 C1004 0.950 . S
H997 C1009 0.950 . S
H998 C1006 0.950 . S
H999 C1008 0.950 . S
H1000 C1010 0.950 . S
H1001 C1012 0.950 . S
H1002 C1014 0.950 . S
H1003 C1015 0.950 . S
C1004 H996 0.950 . S
C1004 C1005 1.386 . S
C1004 C1006 1.391 . S
C1005 C1004 1.386 . S
C1005 C1009 1.393 . S
C1006 H998 0.950 . S
C1006 C1004 1.391 . S
C1006 C1007 1.400 . S
C1007 C1006 1.400 . S
C1007 C1008 1.398 . S
C1007 C1013 1.491 1_556 S
C1008 H999 0.950 . S
C1008 C1007 1.398 . S
C1008 C1009 1.391 . S
C1009 H997 0.950 . S
C1009 C1005 1.393 . S
C1009 C1008 1.391 . S
C1010 H1000 0.950 . S
C1010 C1011 1.386 . S
C1010 C1012 1.391 . S
C1011 C1010 1.386 . S
C1011 C1015 1.393 . S
C1012 H1001 0.950 . S
C1012 C1010 1.391 . S
C1012 C1013 1.400 . S
C1013 C1007 1.491 1_554 S
C1013 C1012 1.400 . S
C1013 C1014 1.398 . S
C1014 H1002 0.950 . S
C1014 C1013 1.398 . S
C1014 C1015 1.391 . S
C1015 H1003 0.950 . S
C1015 C1011 1.393 . S
C1015 C1014 1.391 . S
H1016 C1024 0.950 . S
H1017 C1029 0.950 . S
H1018 C1026 0.950 . S
H1019 C1028 0.950 . S
H1020 C1030 0.950 . S
H1021 C1032 0.950 . S
H1022 C1034 0.950 . S
H1023 C1035 0.950 . S
C1024 H1016 0.950 . S
C1024 C1025 1.386 . S
C1024 C1026 1.391 . S
C1025 C1024 1.386 . S
C1025 C1029 1.393 . S
C1026 H1018 0.950 . S
C1026 C1024 1.391 . S
C1026 C1027 1.400 . S
C1027 C1026 1.400 . S
C1027 C1028 1.398 . S
C1027 C1033 1.491 1_556 S
C1028 H1019 0.950 . S
C1028 C1027 1.398 . S
C1028 C1029 1.391 . S
C1029 H1017 0.950 . S
C1029 C1025 1.393 . S
C1029 C1028 1.391 . S
C1030 H1020 0.950 . S
C1030 C1031 1.386 . S
C1030 C1032 1.391 . S
C1031 C1030 1.386 . S
C1031 C1035 1.393 . S
C1032 H1021 0.950 . S
C1032 C1030 1.391 . S
C1032 C1033 1.400 . S
C1033 C1027 1.491 1_554 S
C1033 C1032 1.400 . S
C1033 C1034 1.398 . S
C1034 H1022 0.950 . S
C1034 C1033 1.398 . S
C1034 C1035 1.391 . S
C1035 H1023 0.950 . S
C1035 C1031 1.393 . S
C1035 C1034 1.391 . S
H1036 C1044 0.950 . S
H1037 C1049 0.950 . S
H1038 C1046 0.950 . S
H1039 C1048 0.950 . S
H1040 C1050 0.950 . S
H1041 C1052 0.950 . S
H1042 C1054 0.950 . S
H1043 C1055 0.950 . S
C1044 H1036 0.950 . S
C1044 C1045 1.386 . S
C1044 C1046 1.391 . S
C1045 C1044 1.386 . S
C1045 C1049 1.393 . S
C1046 H1038 0.950 . S
C1046 C1044 1.391 . S
C1046 C1047 1.400 . S
C1047 C1046 1.400 . S
C1047 C1048 1.398 . S
C1047 C1053 1.491 1_556 S
C1048 H1039 0.950 . S
C1048 C1047 1.398 . S
C1048 C1049 1.391 . S
C1049 H1037 0.950 . S
C1049 C1045 1.393 . S
C1049 C1048 1.391 . S
C1050 H1040 0.950 . S
C1050 C1051 1.386 . S
C1050 C1052 1.391 . S
C1051 C1050 1.386 . S
C1051 C1055 1.393 . S
C1052 H1041 0.950 . S
C1052 C1050 1.391 . S
C1052 C1053 1.400 . S
C1053 C1047 1.491 1_554 S
C1053 C1052 1.400 . S
C1053 C1054 1.398 . S
C1054 H1042 0.950 . S
C1054 C1053 1.398 . S
C1054 C1055 1.391 . S
C1055 H1043 0.950 . S
C1055 C1051 1.393 . S
C1055 C1054 1.391 . S
H1056 C1064 0.950 . S
H1057 C1069 0.950 . S
H1058 C1066 0.950 . S
H1059 C1068 0.950 . S
H1060 C1070 0.950 . S
H1061 C1072 0.950 . S
H1062 C1074 0.950 . S
H1063 C1075 0.950 . S
C1064 H1056 0.950 . S
C1064 C1065 1.386 . S
C1064 C1066 1.391 . S
C1065 C1064 1.386 . S
C1065 C1069 1.393 . S
C1066 H1058 0.950 . S
C1066 C1064 1.391 . S
C1066 C1067 1.400 . S
C1067 C1066 1.400 . S
C1067 C1068 1.398 . S
C1067 C1073 1.491 . S
C1068 H1059 0.950 . S
C1068 C1067 1.398 . S
C1068 C1069 1.391 . S
C1069 H1057 0.950 . S
C1069 C1065 1.393 . S
C1069 C1068 1.391 . S
C1070 H1060 0.950 . S
C1070 C1071 1.386 . S
C1070 C1072 1.391 . S
C1071 C1070 1.386 . S
C1071 C1075 1.393 . S
C1072 H1061 0.950 . S
C1072 C1070 1.391 . S
C1072 C1073 1.400 . S
C1073 C1067 1.491 . S
C1073 C1072 1.400 . S
C1073 C1074 1.398 . S
C1074 H1062 0.950 . S
C1074 C1073 1.398 . S
C1074 C1075 1.391 . S
C1075 H1063 0.950 . S
C1075 C1071 1.393 . S
C1075 C1074 1.391 . S
H1076 C1084 0.950 . S
H1077 C1089 0.950 . S
H1078 C1086 0.950 . S
H1079 C1088 0.950 . S
H1080 C1090 0.950 . S
H1081 C1092 0.950 . S
H1082 C1094 0.950 . S
H1083 C1095 0.950 . S
C1084 H1076 0.950 . S
C1084 C1085 1.386 . S
C1084 C1086 1.391 . S
C1085 C1084 1.386 . S
C1085 C1089 1.393 . S
C1086 H1078 0.950 . S
C1086 C1084 1.391 . S
C1086 C1087 1.400 . S
C1087 C1086 1.400 . S
C1087 C1088 1.398 . S
C1087 C1093 1.491 . S
C1088 H1079 0.950 . S
C1088 C1087 1.398 . S
C1088 C1089 1.391 . S
C1089 H1077 0.950 . S
C1089 C1085 1.393 . S
C1089 C1088 1.391 . S
C1090 H1080 0.950 . S
C1090 C1091 1.386 . S
C1090 C1092 1.391 . S
C1091 C1090 1.386 . S
C1091 C1095 1.393 . S
C1092 H1081 0.950 . S
C1092 C1090 1.391 . S
C1092 C1093 1.400 . S
C1093 C1087 1.491 . S
C1093 C1092 1.400 . S
C1093 C1094 1.398 . S
C1094 H1082 0.950 . S
C1094 C1093 1.398 . S
C1094 C1095 1.391 . S
C1095 H1083 0.950 . S
C1095 C1091 1.393 . S
C1095 C1094 1.391 . S
H1096 C1104 0.950 . S
H1097 C1109 0.950 . S
H1098 C1106 0.950 . S
H1099 C1108 0.950 . S
H1100 C1110 0.950 . S
H1101 C1112 0.950 . S
H1102 C1114 0.950 . S
H1103 C1115 0.950 . S
C1104 H1096 0.950 . S
C1104 C1105 1.386 . S
C1104 C1106 1.391 . S
C1105 C1104 1.386 . S
C1105 C1109 1.393 . S
C1106 H1098 0.950 . S
C1106 C1104 1.391 . S
C1106 C1107 1.400 . S
C1107 C1106 1.400 . S
C1107 C1108 1.398 . S
C1107 C1113 1.491 . S
C1108 H1099 0.950 . S
C1108 C1107 1.398 . S
C1108 C1109 1.391 . S
C1109 H1097 0.950 . S
C1109 C1105 1.393 . S
C1109 C1108 1.391 . S
C1110 H1100 0.950 . S
C1110 C1111 1.386 . S
C1110 C1112 1.391 . S
C1111 C1110 1.386 . S
C1111 C1115 1.393 . S
C1112 H1101 0.950 . S
C1112 C1110 1.391 . S
C1112 C1113 1.400 . S
C1113 C1107 1.491 . S
C1113 C1112 1.400 . S
C1113 C1114 1.398 . S
C1114 H1102 0.950 . S
C1114 C1113 1.398 . S
C1114 C1115 1.391 . S
C1115 H1103 0.950 . S
C1115 C1111 1.393 . S
C1115 C1114 1.391 . S
H1116 C1124 0.950 . S
H1117 C1129 0.950 . S
H1118 C1126 0.950 . S
H1119 C1128 0.950 . S
H1120 C1130 0.950 . S
H1121 C1132 0.950 . S
H1122 C1134 0.950 . S
H1123 C1135 0.950 . S
C1124 H1116 0.950 . S
C1124 C1125 1.386 . S
C1124 C1126 1.391 . S
C1125 C1124 1.386 . S
C1125 C1129 1.393 . S
C1126 H1118 0.950 . S
C1126 C1124 1.391 . S
C1126 C1127 1.400 . S
C1127 C1126 1.400 . S
C1127 C1128 1.398 . S
C1127 C1133 1.491 . S
C1128 H1119 0.950 . S
C1128 C1127 1.398 . S
C1128 C1129 1.391 . S
C1129 H1117 0.950 . S
C1129 C1125 1.393 . S
C1129 C1128 1.391 . S
C1130 H1120 0.950 . S
C1130 C1131 1.386 . S
C1130 C1132 1.391 . S
C1131 C1130 1.386 . S
C1131 C1135 1.393 . S
C1132 H1121 0.950 . S
C1132 C1130 1.391 . S
C1132 C1133 1.400 . S
C1133 C1127 1.491 . S
C1133 C1132 1.400 . S
C1133 C1134 1.398 . S
C1134 H1122 0.950 . S
C1134 C1133 1.398 . S
C1134 C1135 1.391 . S
C1135 H1123 0.950 . S
C1135 C1131 1.393 . S
C1135 C1134 1.391 . S
H1136 C1144 0.950 . S
H1137 C1149 0.950 . S
H1138 C1146 0.950 . S
H1139 C1148 0.950 . S
H1140 C1150 0.950 . S
H1141 C1152 0.950 . S
H1142 C1154 0.950 . S
H1143 C1155 0.950 . S
C1144 H1136 0.950 . S
C1144 C1145 1.386 . S
C1144 C1146 1.391 . S
C1145 C1144 1.386 . S
C1145 C1149 1.393 . S
C1146 H1138 0.950 . S
C1146 C1144 1.391 . S
C1146 C1147 1.400 . S
C1147 C1146 1.400 . S
C1147 C1148 1.398 . S
C1147 C1153 1.491 . S
C1148 H1139 0.950 . S
C1148 C1147 1.398 . S
C1148 C1149 1.391 . S
C1149 H1137 0.950 . S
C1149 C1145 1.393 . S
C1149 C1148 1.391 . S
C1150 H1140 0.950 . S
C1150 C1151 1.386 . S
C1150 C1152 1.391 . S
C1151 C1150 1.386 . S
C1151 C1155 1.393 . S
C1152 H1141 0.950 . S
C1152 C1150 1.391 . S
C1152 C1153 1.400 . S
C1153 C1147 1.491 . S
C1153 C1152 1.400 . S
C1153 C1154 1.398 . S
C1154 H1142 0.950 . S
C1154 C1153 1.398 . S
C1154 C1155 1.391 . S
C1155 H1143 0.950 . S
C1155 C1151 1.393 . S
C1155 C1154 1.391 . S
H1156 C1164 0.950 . S
H1157 C1169 0.950 . S
H1158 C1166 0.950 . S
H1159 C1168 0.950 . S
H1160 C1170 0.950 . S
H1161 C1172 0.950 . S
H1162 C1174 0.950 . S
H1163 C1175 0.950 . S
C1164 H1156 0.950 . S
C1164 C1165 1.386 . S
C1164 C1166 1.391 . S
C1165 C1164 1.386 . S
C1165 C1169 1.393 . S
C1166 H1158 0.950 . S
C1166 C1164 1.391 . S
C1166 C1167 1.400 . S
C1167 C1166 1.400 . S
C1167 C1168 1.398 . S
C1167 C1173 1.491 . S
C1168 H1159 0.950 . S
C1168 C1167 1.398 . S
C1168 C1169 1.391 . S
C1169 H1157 0.950 . S
C1169 C1165 1.393 . S
C1169 C1168 1.391 . S
C1170 H1160 0.950 . S
C1170 C1171 1.386 . S
C1170 C1172 1.391 . S
C1171 C1170 1.386 . S
C1171 C1175 1.393 . S
C1172 H1161 0.950 . S
C1172 C1170 1.391 . S
C1172 C1173 1.400 . S
C1173 C1167 1.491 . S
C1173 C1172 1.400 . S
C1173 C1174 1.398 . S
C1174 H1162 0.950 . S
C1174 C1173 1.398 . S
C1174 C1175 1.391 . S
C1175 H1163 0.950 . S
C1175 C1171 1.393 . S
C1175 C1174 1.391 . S
H1176 C1184 0.950 . S
H1177 C1189 0.950 . S
H1178 C1186 0.950 . S
H1179 C1188 0.950 . S
H1180 C1190 0.950 . S
H1181 C1192 0.950 . S
H1182 C1194 0.950 . S
H1183 C1195 0.950 . S
C1184 H1176 0.950 . S
C1184 C1185 1.386 . S
C1184 C1186 1.391 . S
C1185 C1184 1.386 . S
C1185 C1189 1.393 . S
C1186 H1178 0.950 . S
C1186 C1184 1.391 . S
C1186 C1187 1.400 . S
C1187 C1186 1.400 . S
C1187 C1188 1.398 . S
C1187 C1193 1.491 . S
C1188 H1179 0.950 . S
C1188 C1187 1.398 . S
C1188 C1189 1.391 . S
C1189 H1177 0.950 . S
C1189 C1185 1.393 . S
C1189 C1188 1.391 . S
C1190 H1180 0.950 . S
C1190 C1191 1.386 . S
C1190 C1192 1.391 . S
C1191 C1190 1.386 . S
C1191 C1195 1.393 . S
C1192 H1181 0.950 . S
C1192 C1190 1.391 . S
C1192 C1193 1.400 . S
C1193 C1187 1.491 . S
C1193 C1192 1.400 . S
C1193 C1194 1.398 . S
C1194 H1182 0.950 . S
C1194 C1193 1.398 . S
C1194 C1195 1.391 . S
C1195 H1183 0.950 . S
C1195 C1191 1.393 . S
C1195 C1194 1.391 . S
H1196 C1204 0.950 . S
H1197 C1209 0.950 . S
H1198 C1206 0.950 . S
H1199 C1208 0.950 . S
H1200 C1210 0.950 . S
H1201 C1212 0.950 . S
H1202 C1214 0.950 . S
H1203 C1215 0.950 . S
C1204 H1196 0.950 . S
C1204 C1205 1.386 . S
C1204 C1206 1.391 . S
C1205 C1204 1.386 . S
C1205 C1209 1.393 . S
C1206 H1198 0.950 . S
C1206 C1204 1.391 . S
C1206 C1207 1.400 . S
C1207 C1206 1.400 . S
C1207 C1208 1.398 . S
C1207 C1213 1.491 . S
C1208 H1199 0.950 . S
C1208 C1207 1.398 . S
C1208 C1209 1.391 . S
C1209 H1197 0.950 . S
C1209 C1205 1.393 . S
C1209 C1208 1.391 . S
C1210 H1200 0.950 . S
C1210 C1211 1.386 . S
C1210 C1212 1.391 . S
C1211 C1210 1.386 . S
C1211 C1215 1.393 . S
C1212 H1201 0.950 . S
C1212 C1210 1.391 . S
C1212 C1213 1.400 . S
C1213 C1207 1.491 . S
C1213 C1212 1.400 . S
C1213 C1214 1.398 . S
C1214 H1202 0.950 . S
C1214 C1213 1.398 . S
C1214 C1215 1.391 . S
C1215 H1203 0.950 . S
C1215 C1211 1.393 . S
C1215 C1214 1.391 . S
H1216 C1224 0.950 . S
H1217 C1229 0.950 . S
H1218 C1226 0.950 . S
H1219 C1228 0.950 . S
H1220 C1230 0.950 . S
H1221 C1232 0.950 . S
H1222 C1234 0.950 . S
H1223 C1235 0.950 . S
C1224 H1216 0.950 . S
C1224 C1225 1.386 . S
C1224 C1226 1.391 . S
C1225 C1224 1.386 . S
C1225 C1229 1.393 . S
C1226 H1218 0.950 . S
C1226 C1224 1.391 . S
C1226 C1227 1.400 . S
C1227 C1226 1.400 . S
C1227 C1228 1.398 . S
C1227 C1233 1.491 . S
C1228 H1219 0.950 . S
C1228 C1227 1.398 . S
C1228 C1229 1.391 . S
C1229 H1217 0.950 . S
C1229 C1225 1.393 . S
C1229 C1228 1.391 . S
C1230 H1220 0.950 . S
C1230 C1231 1.386 . S
C1230 C1232 1.391 . S
C1231 C1230 1.386 . S
C1231 C1235 1.393 . S
C1232 H1221 0.950 . S
C1232 C1230 1.391 . S
C1232 C1233 1.400 . S
C1233 C1227 1.491 . S
C1233 C1232 1.400 . S
C1233 C1234 1.398 . S
C1234 H1222 0.950 . S
C1234 C1233 1.398 . S
C1234 C1235 1.391 . S
C1235 H1223 0.950 . S
C1235 C1231 1.393 . S
C1235 C1234 1.391 . S
H1236 C1244 0.950 . S
H1237 C1249 0.950 . S
H1238 C1246 0.950 . S
H1239 C1248 0.950 . S
H1240 C1250 0.950 . S
H1241 C1252 0.950 . S
H1242 C1254 0.950 . S
H1243 C1255 0.950 . S
C1244 H1236 0.950 . S
C1244 C1245 1.386 . S
C1244 C1246 1.391 . S
C1245 C1244 1.386 . S
C1245 C1249 1.393 . S
C1246 H1238 0.950 . S
C1246 C1244 1.391 . S
C1246 C1247 1.400 . S
C1247 C1246 1.400 . S
C1247 C1248 1.398 . S
C1247 C1253 1.491 . S
C1248 H1239 0.950 . S
C1248 C1247 1.398 . S
C1248 C1249 1.391 . S
C1249 H1237 0.950 . S
C1249 C1245 1.393 . S
C1249 C1248 1.391 . S
C1250 H1240 0.950 . S
C1250 C1251 1.386 . S
C1250 C1252 1.391 . S
C1251 C1250 1.386 . S
C1251 C1255 1.393 . S
C1252 H1241 0.950 . S
C1252 C1250 1.391 . S
C1252 C1253 1.400 . S
C1253 C1247 1.491 . S
C1253 C1252 1.400 . S
C1253 C1254 1.398 . S
C1254 H1242 0.950 . S
C1254 C1253 1.398 . S
C1254 C1255 1.391 . S
C1255 H1243 0.950 . S
C1255 C1251 1.393 . S
C1255 C1254 1.391 . S
H1256 C1264 0.950 . S
H1257 C1269 0.950 . S
H1258 C1266 0.950 . S
H1259 C1268 0.950 . S
H1260 C1270 0.950 . S
H1261 C1272 0.950 . S
H1262 C1274 0.950 . S
H1263 C1275 0.950 . S
C1264 H1256 0.950 . S
C1264 C1265 1.386 . S
C1264 C1266 1.391 . S
C1265 C1264 1.386 . S
C1265 C1269 1.393 . S
C1266 H1258 0.950 . S
C1266 C1264 1.391 . S
C1266 C1267 1.400 . S
C1267 C1266 1.400 . S
C1267 C1268 1.398 . S
C1267 C1273 1.491 . S
C1268 H1259 0.950 . S
C1268 C1267 1.398 . S
C1268 C1269 1.391 . S
C1269 H1257 0.950 . S
C1269 C1265 1.393 . S
C1269 C1268 1.391 . S
C1270 H1260 0.950 . S
C1270 C1271 1.386 . S
C1270 C1272 1.391 . S
C1271 C1270 1.386 . S
C1271 C1275 1.393 . S
C1272 H1261 0.950 . S
C1272 C1270 1.391 . S
C1272 C1273 1.400 . S
C1273 C1267 1.491 . S
C1273 C1272 1.400 . S
C1273 C1274 1.398 . S
C1274 H1262 0.950 . S
C1274 C1273 1.398 . S
C1274 C1275 1.391 . S
C1275 H1263 0.950 . S
C1275 C1271 1.393 . S
C1275 C1274 1.391 . S
H1276 C1284 0.950 . S
H1277 C1289 0.950 . S
H1278 C1286 0.950 . S
H1279 C1288 0.950 . S
H1280 C1290 0.950 . S
H1281 C1292 0.950 . S
H1282 C1294 0.950 . S
H1283 C1295 0.950 . S
C1284 H1276 0.950 . S
C1284 C1285 1.386 . S
C1284 C1286 1.391 . S
C1285 C1284 1.386 . S
C1285 C1289 1.393 . S
C1286 H1278 0.950 . S
C1286 C1284 1.391 . S
C1286 C1287 1.400 . S
C1287 C1286 1.400 . S
C1287 C1288 1.398 . S
C1287 C1293 1.491 . S
C1288 H1279 0.950 . S
C1288 C1287 1.398 . S
C1288 C1289 1.391 . S
C1289 H1277 0.950 . S
C1289 C1285 1.393 . S
C1289 C1288 1.391 . S
C1290 H1280 0.950 . S
C1290 C1291 1.386 . S
C1290 C1292 1.391 . S
C1291 C1290 1.386 . S
C1291 C1295 1.393 . S
C1292 H1281 0.950 . S
C1292 C1290 1.391 . S
C1292 C1293 1.400 . S
C1293 C1287 1.491 . S
C1293 C1292 1.400 . S
C1293 C1294 1.398 . S
C1294 H1282 0.950 . S
C1294 C1293 1.398 . S
C1294 C1295 1.391 . S
C1295 H1283 0.950 . S
C1295 C1291 1.393 . S
C1295 C1294 1.391 . S
C345 C163 1.445 . S
C351 C0 1.419 . S
C365 C14 1.417 . S
C371 C121 1.446 . S
C385 C28 1.418 . S
C391 C135 1.445 . S
C405 C42 1.399 . S
C411 C149 1.451 . S
C425 C191 1.446 . S
C431 C56 1.415 . S
C445 C70 1.419 . S
C451 C205 1.444 . S
C465 C219 1.445 . S
C471 C84 1.416 . S
C485 C177 1.451 . S
C491 C98 1.402 . S
C505 C79 1.450 . S
C511 C112 1.404 . S
C525 C93 1.446 . S
C531 C126 1.416 . S
C545 C140 1.394 . S
C551 C107 1.454 . S
C565 C65 1.445 . S
C571 C154 1.418 . S
C585 C51 1.452 . S
C591 C168 1.401 . S
C605 C182 1.407 . S
C611 C9 1.449 . S
C625 C196 1.394 . S
C631 C23 1.454 . S
C645 C210 1.417 . S
C651 C37 1.446 . S
C665 C224 1.416 . S
C671 C331 1.446 . S
C685 C289 1.453 . S
C691 C238 1.397 . S
C705 C252 1.410 . S
C711 C247 1.447 . S
C725 C266 1.417 . S
C731 C261 1.445 . S
C745 C275 1.449 . S
C751 C280 1.408 . S
C765 C294 1.416 . S
C771 C317 1.446 . S
C785 C233 1.450 . S
C791 C308 1.404 . S
C805 C303 1.448 . S
C811 C322 1.409 . S
C825 C5 1.518 . S
C831 C89 1.524 . S
C845 C19 1.519 . S
C851 C103 1.522 . S
C865 C33 1.520 . S
C871 C61 1.525 . S
C885 C75 1.522 . S
C891 C47 1.520 . S
C905 C145 1.518 . S
C911 C117 1.525 . S
C925 C131 1.520 . S
C931 C159 1.525 . S
C945 C173 1.521 . S
C951 C201 1.520 . S
C965 C215 1.524 . S
C971 C187 1.518 . S
C985 C243 1.519 . S
C991 C229 1.525 . S
C1005 C257 1.519 . S
C1011 C327 1.525 . S
C1025 C271 1.522 . S
C1031 C299 1.520 . S
C1045 C285 1.525 . S
C1051 C313 1.518 . S
C1065 C11 1.029 . S
C1071 C81 1.025 . S
C1085 C25 1.030 . S
C1091 C95 1.033 . S
C1105 C39 1.028 . S
C1111 C109 1.026 . S
C1125 C67 1.028 . S
C1131 C53 1.026 . S
C1145 C123 1.032 . S
C1151 C333 1.024 . S
C1165 C137 1.028 . S
C1171 C305 1.026 . S
C1185 C319 1.027 . S
C1191 C151 1.035 . S
C1205 C165 1.024 . S
C1211 C235 1.033 . S
C1225 C291 1.024 . S
C1231 C179 1.034 . S
C1245 C249 1.035 . S
C1251 C193 1.027 . S
C1265 C207 1.024 . S
C1271 C263 1.035 . S
C1285 C277 1.030 . S
C1291 C221 1.025 . S
