# Generated by pormake.
# Topology upb, (4)-cn, num edge types: 1
# Building blocks:
#     Node 0, Type 0, BuildingBlock: ICAMEG_clean_sbu_1, # of connection points: 4
#     Node 1, Type 0, BuildingBlock: ICAMEG_clean_sbu_1, # of connection points: 4
#     Node 2, Type 0, BuildingBlock: ICAMEG_clean_sbu_1, # of connection points: 4
#     Node 3, Type 0, BuildingBlock: ICAMEG_clean_sbu_1, # of connection points: 4
#     Node 4, Type 0, BuildingBlock: ICAMEG_clean_sbu_1, # of connection points: 4
#     Node 5, Type 0, BuildingBlock: ICAMEG_clean_sbu_1, # of connection points: 4
#     Node 6, Type 0, BuildingBlock: ICAMEG_clean_sbu_1, # of connection points: 4
#     Node 7, Type 0, BuildingBlock: ICAMEG_clean_sbu_1, # of connection points: 4
#     Node 8, Type 0, BuildingBlock: ICAMEG_clean_sbu_1, # of connection points: 4
#     Node 9, Type 0, BuildingBlock: ICAMEG_clean_sbu_1, # of connection points: 4
#     Node 10, Type 0, BuildingBlock: ICAMEG_clean_sbu_1, # of connection points: 4
#     Node 11, Type 0, BuildingBlock: ICAMEG_clean_sbu_1, # of connection points: 4
#     Node 12, Type 0, BuildingBlock: ICAMEG_clean_sbu_1, # of connection points: 4
#     Node 13, Type 0, BuildingBlock: ICAMEG_clean_sbu_1, # of connection points: 4
#     Node 14, Type 0, BuildingBlock: ICAMEG_clean_sbu_1, # of connection points: 4
#     Node 15, Type 0, BuildingBlock: ICAMEG_clean_sbu_1, # of connection points: 4
#     Edge 16, Type (0, 0), BuildingBlock: XUDNAN_clean_linker_2, # of connection points: 2
#     Edge 17, Type (0, 0), BuildingBlock: XUDNAN_clean_linker_2, # of connection points: 2
#     Edge 18, Type (0, 0), BuildingBlock: XUDNAN_clean_linker_2, # of connection points: 2
#     Edge 19, Type (0, 0), BuildingBlock: XUDNAN_clean_linker_2, # of connection points: 2
#     Edge 20, Type (0, 0), BuildingBlock: XUDNAN_clean_linker_2, # of connection points: 2
#     Edge 21, Type (0, 0), BuildingBlock: XUDNAN_clean_linker_2, # of connection points: 2
#     Edge 22, Type (0, 0), BuildingBlock: XUDNAN_clean_linker_2, # of connection points: 2
#     Edge 23, Type (0, 0), BuildingBlock: XUDNAN_clean_linker_2, # of connection points: 2
#     Edge 24, Type (0, 0), BuildingBlock: XUDNAN_clean_linker_2, # of connection points: 2
#     Edge 25, Type (0, 0), BuildingBlock: XUDNAN_clean_linker_2, # of connection points: 2
#     Edge 26, Type (0, 0), BuildingBlock: XUDNAN_clean_linker_2, # of connection points: 2
#     Edge 27, Type (0, 0), BuildingBlock: XUDNAN_clean_linker_2, # of connection points: 2
#     Edge 28, Type (0, 0), BuildingBlock: XUDNAN_clean_linker_2, # of connection points: 2
#     Edge 29, Type (0, 0), BuildingBlock: XUDNAN_clean_linker_2, # of connection points: 2
#     Edge 30, Type (0, 0), BuildingBlock: XUDNAN_clean_linker_2, # of connection points: 2
#     Edge 31, Type (0, 0), BuildingBlock: XUDNAN_clean_linker_2, # of connection points: 2
#     Edge 32, Type (0, 0), BuildingBlock: XUDNAN_clean_linker_2, # of connection points: 2
#     Edge 33, Type (0, 0), BuildingBlock: XUDNAN_clean_linker_2, # of connection points: 2
#     Edge 34, Type (0, 0), BuildingBlock: XUDNAN_clean_linker_2, # of connection points: 2
#     Edge 35, Type (0, 0), BuildingBlock: XUDNAN_clean_linker_2, # of connection points: 2
#     Edge 36, Type (0, 0), BuildingBlock: XUDNAN_clean_linker_2, # of connection points: 2
#     Edge 37, Type (0, 0), BuildingBlock: XUDNAN_clean_linker_2, # of connection points: 2
#     Edge 38, Type (0, 0), BuildingBlock: XUDNAN_clean_linker_2, # of connection points: 2
#     Edge 39, Type (0, 0), BuildingBlock: XUDNAN_clean_linker_2, # of connection points: 2
#     Edge 40, Type (0, 0), BuildingBlock: XUDNAN_clean_linker_2, # of connection points: 2
#     Edge 41, Type (0, 0), BuildingBlock: XUDNAN_clean_linker_2, # of connection points: 2
#     Edge 42, Type (0, 0), BuildingBlock: XUDNAN_clean_linker_2, # of connection points: 2
#     Edge 43, Type (0, 0), BuildingBlock: XUDNAN_clean_linker_2, # of connection points: 2
#     Edge 44, Type (0, 0), BuildingBlock: XUDNAN_clean_linker_2, # of connection points: 2
#     Edge 45, Type (0, 0), BuildingBlock: XUDNAN_clean_linker_2, # of connection points: 2
#     Edge 46, Type (0, 0), BuildingBlock: XUDNAN_clean_linker_2, # of connection points: 2
#     Edge 47, Type (0, 0), BuildingBlock: XUDNAN_clean_linker_2, # of connection points: 2
# Relax obj value: 0.189
# Max RMSD: 0.052
# Mean RMSD: 0.052
data_MOF--net-upb--node1-ICAMEG_clean_sbu_1--edge1-XUDNAN_clean_linker_2
_symmetry_space_group_name_H-M    P1
_symmetry_Int_Tables_number       1
_symmetry_cell_setting            triclinic
loop_
_symmetry_equiv_pos_as_xyz
'x, y, z'
_cell_length_a     50.006636
_cell_length_b     49.996008
_cell_length_c     24.159285
_cell_angle_alpha  89.965266
_cell_angle_beta   90.012586
_cell_angle_gamma 90.016789
loop_
_atom_site_label
_atom_site_type_symbol
_atom_site_fract_x
_atom_site_fract_y
_atom_site_fract_z
_atom_type_partial_charge
Co0 Co 0.06319 0.17824 0.23971 0.0
Co1 Co 0.04257 0.24372 0.23646 0.0
O2 O 0.07011 0.21612 0.22434 0.0
C3 C 0.08293 0.15003 0.14101 0.0
O4 O 0.05807 0.14249 0.13297 0.0
C5 C 0.09488 0.26772 0.27464 0.0
O6 O 0.10637 0.2442 0.27337 0.0
O7 O 0.03749 0.23156 0.31459 0.0
O8 O 0.03851 0.18729 0.30192 0.0
H9 H 0.9534 0.27717 0.30263 0.0
H10 H 0.12032 0.19409 0.23249 0.0
O11 O 0.08807 0.16761 0.17786 0.0
H12 H 0.10832 0.16046 0.42275 0.0
H13 H 0.08792 0.08147 0.27025 0.0
H14 H 0.01399 0.14646 0.25939 0.0
H15 H 0.07053 0.16091 0.35742 0.0
H16 H 0.09706 0.12903 0.25158 0.0
O17 O 0.07022 0.27034 0.26238 0.0
H18 H 0.98815 0.24325 0.28504 0.0
H19 H 0.03896 0.30259 0.21582 0.0
H20 H 0.00395 0.09895 0.27697 0.0
H21 H 0.1588 0.1934 0.29621 0.0
H22 H 0.04108 0.06605 0.28237 0.0
H23 H 0.1529 0.17665 0.39224 0.0
O24 O 0.0325 0.1794 0.18779 0.0
H25 H 0.09627 0.27008 0.06889 0.0
H26 H 0.00548 0.2581 0.14444 0.0
H27 H 0.0111 0.27464 0.04908 0.0
H28 H 0.05674 0.28048 0.01043 0.0
H29 H 0.08977 0.25426 0.16451 0.0
H30 H 0.00484 0.33718 0.23312 0.0
H31 H 0.96164 0.32453 0.2766 0.0
O32 O 0.01367 0.21859 0.2103 0.0
C33 C 0.03281 0.20778 0.33097 0.0
C34 C 0.9721 0.28292 0.28349 0.0
C35 C 0.001 0.3166 0.24457 0.0
N36 N 0.01549 0.27087 0.24907 0.0
C37 C 0.99183 0.26378 0.27329 0.0
C38 C 0.02028 0.29693 0.23503 0.0
C39 C 0.97676 0.30949 0.26894 0.0
C40 C 0.11761 0.18652 0.27401 0.0
N41 N 0.09309 0.17775 0.29116 0.0
C42 C 0.13947 0.1863 0.31001 0.0
C43 C 0.13614 0.17694 0.36391 0.0
C44 C 0.11112 0.16792 0.38109 0.0
C45 C 0.08971 0.16844 0.34396 0.0
C46 C 0.07156 0.09556 0.26758 0.0
C47 C 0.03026 0.13228 0.26144 0.0
C48 C 0.07661 0.12258 0.25731 0.0
N49 N 0.05608 0.1406 0.25438 0.0
C50 C 0.02445 0.10539 0.27149 0.0
C51 C 0.04528 0.08694 0.27452 0.0
C52 C 0.01287 0.19564 0.18703 0.0
C53 C 0.07627 0.26764 0.08525 0.0
C54 C 0.02543 0.26076 0.12816 0.0
C55 C 0.02848 0.27005 0.07401 0.0
C56 C 0.05409 0.27342 0.05244 0.0
N57 N 0.04729 0.25564 0.16052 0.0
C58 C 0.07246 0.25873 0.1395 0.0
Co59 Co 0.81619 0.06926 0.25038 0.0
Co60 Co 0.75586 0.0476 0.19681 0.0
O61 O 0.78328 0.07521 0.20827 0.0
C62 C 0.85803 0.08596 0.171 0.0
O63 O 0.86752 0.06157 0.17538 0.0
C64 C 0.72656 0.09418 0.24212 0.0
O65 O 0.74706 0.09874 0.2746 0.0
O66 O 0.75482 0.0393 0.27764 0.0
O67 O 0.79687 0.04681 0.30615 0.0
H68 H 0.7144 0.95674 0.22006 0.0
H69 H 0.80089 0.12503 0.22308 0.0
O70 O 0.83628 0.09211 0.1956 0.0
H71 H 0.80331 0.12126 0.42698 0.0
H72 H 0.90349 0.09649 0.33855 0.0
H73 H 0.84164 0.02178 0.30136 0.0
H74 H 0.81422 0.08139 0.37148 0.0
H75 H 0.86144 0.10414 0.28755 0.0
O76 O 0.72683 0.07471 0.20818 0.0
H77 H 0.74869 0.99158 0.23419 0.0
H78 H 0.70419 0.0459 0.13522 0.0
H79 H 0.88341 0.01326 0.35269 0.0
H80 H 0.79024 0.1655 0.27704 0.0
H81 H 0.91469 0.05078 0.37154 0.0
H82 H 0.79129 0.16374 0.37977 0.0
O83 O 0.82396 0.03682 0.20578 0.0
H84 H 0.75655 0.10873 0.03162 0.0
H85 H 0.76023 0.01482 0.09365 0.0
H86 H 0.76319 0.02512 0.99392 0.0
H87 H 0.76118 0.07233 0.9624 0.0
H88 H 0.75405 0.0976 0.13101 0.0
H89 H 0.66932 0.01173 0.12036 0.0
H90 H 0.67439 0.96674 0.16274 0.0
O91 O 0.78379 0.01957 0.185 0.0
C92 C 0.77317 0.03818 0.31428 0.0
C93 C 0.71201 0.97624 0.20123 0.0
C94 C 0.68669 0.00712 0.14533 0.0
N95 N 0.72854 0.02065 0.18518 0.0
C96 C 0.73138 0.99602 0.20898 0.0
C97 C 0.70647 0.0264 0.15399 0.0
C98 C 0.68955 0.98187 0.16911 0.0
C99 C 0.80174 0.12419 0.26774 0.0
N100 N 0.80826 0.10087 0.29402 0.0
C101 C 0.79554 0.14714 0.29809 0.0
C102 C 0.79608 0.14611 0.35573 0.0
C103 C 0.80278 0.12228 0.38224 0.0
C104 C 0.80882 0.09972 0.35056 0.0
C105 C 0.89 0.07999 0.3307 0.0
C106 C 0.85509 0.03823 0.3096 0.0
C107 C 0.86615 0.0842 0.30187 0.0
N108 N 0.84905 0.06344 0.29165 0.0
C109 C 0.87873 0.03328 0.33863 0.0
C110 C 0.89627 0.05433 0.34917 0.0
C111 C 0.80924 0.01835 0.18601 0.0
C112 C 0.75733 0.08807 0.04488 0.0
C113 C 0.75947 0.03545 0.08029 0.0
C114 C 0.76109 0.04113 0.02375 0.0
C115 C 0.75999 0.06763 0.00605 0.0
N116 N 0.75684 0.05561 0.11816 0.0
C117 C 0.75582 0.08164 0.10108 0.0
Co118 Co 0.93854 0.82304 0.24193 0.0
Co119 Co 0.95517 0.76089 0.18938 0.0
O120 O 0.93005 0.79045 0.2013 0.0
C121 C 0.92521 0.86546 0.16217 0.0
O122 O 0.95023 0.87311 0.16703 0.0
C123 C 0.90971 0.73716 0.24805 0.0
O124 O 0.91222 0.7573 0.28244 0.0
O125 O 0.96622 0.76067 0.26906 0.0
O126 O 0.95955 0.80279 0.29785 0.0
H127 H 0.04315 0.71283 0.20329 0.0
H128 H 0.88191 0.81098 0.21578 0.0
O129 O 0.91728 0.84423 0.18654 0.0
H130 H 0.8863 0.81519 0.41951 0.0
H131 H 0.9182 0.91296 0.32666 0.0
H132 H 0.98801 0.84551 0.29085 0.0
H133 H 0.92657 0.82338 0.36315 0.0
H134 H 0.90722 0.871 0.27807 0.0
O135 O 0.92575 0.73489 0.20729 0.0
H136 H 0.0118 0.75025 0.21837 0.0
H137 H 0.95039 0.70773 0.13471 0.0
H138 H 0.99983 0.88709 0.33994 0.0
H139 H 0.84108 0.80291 0.2706 0.0
H140 H 0.96479 0.9212 0.35804 0.0
H141 H 0.84315 0.80488 0.37323 0.0
O142 O 0.97126 0.82768 0.19689 0.0
H143 H 0.88956 0.76282 0.03163 0.0
H144 H 0.98501 0.76027 0.08249 0.0
H145 H 0.97226 0.76171 0.98395 0.0
H146 H 0.92422 0.76297 0.95796 0.0
H147 H 0.90322 0.7617 0.12978 0.0
H148 H 0.98097 0.66975 0.11917 0.0
H149 H 0.02776 0.67222 0.15336 0.0
O150 O 0.98477 0.7866 0.17129 0.0
C151 C 0.96804 0.77907 0.30544 0.0
C152 C 0.02283 0.71155 0.18804 0.0
C153 C 0.98792 0.68735 0.1409 0.0
N154 N 0.97939 0.73123 0.17706 0.0
C155 C 0.00503 0.7327 0.19632 0.0
C156 C 0.97068 0.70888 0.14994 0.0
C157 C 0.01418 0.68876 0.16007 0.0
C158 C 0.88289 0.81221 0.2604 0.0
N159 N 0.90656 0.81783 0.28617 0.0
C160 C 0.85974 0.80748 0.29123 0.0
C161 C 0.86093 0.80855 0.34882 0.0
C162 C 0.88514 0.8143 0.37481 0.0
C163 C 0.90789 0.81887 0.34266 0.0
C164 C 0.93363 0.89822 0.31919 0.0
C165 C 0.97262 0.86017 0.29889 0.0
C166 C 0.92752 0.87441 0.29174 0.0
N167 N 0.94694 0.85575 0.28183 0.0
C168 C 0.97944 0.8837 0.32661 0.0
C169 C 0.95978 0.90283 0.33673 0.0
C170 C 0.98793 0.81193 0.1739 0.0
C171 C 0.91055 0.76223 0.04244 0.0
C172 C 0.96406 0.76092 0.07157 0.0
C173 C 0.95697 0.76165 0.01567 0.0
C174 C 0.93001 0.76234 1.00112 0.0
N175 N 0.94486 0.76085 0.11189 0.0
C176 C 0.9184 0.76151 0.09794 0.0
Co177 Co 0.17423 0.94497 0.23529 0.0
Co178 Co 0.2371 0.9539 0.18292 0.0
O179 O 0.20528 0.93175 0.19486 0.0
C180 C 0.15139 0.91243 0.14045 0.0
O181 O 0.17444 0.91094 0.11486 0.0
C182 C 0.2792 0.91561 0.21961 0.0
O183 O 0.28874 0.9344 0.25208 0.0
O184 O 0.24045 0.95969 0.26452 0.0
O185 O 0.19749 0.96582 0.28681 0.0
H186 H 0.29692 0.03335 0.21237 0.0
H187 H 0.18253 0.8866 0.22031 0.0
O188 O 0.14914 0.9247 0.18637 0.0
H189 H 0.17559 0.9 0.42195 0.0
H190 H 0.08295 0.93865 0.32283 0.0
H191 H 0.15857 0.99821 0.27825 0.0
H192 H 0.1717 0.9382 0.35803 0.0
H193 H 0.12283 0.92113 0.27507 0.0
O194 O 0.25883 0.92026 0.18933 0.0
H195 H 0.25649 0.00582 0.22607 0.0
H196 H 0.28663 0.94721 0.11531 0.0
H197 H 0.11916 0.01652 0.32643 0.0
H198 H 0.1862 0.84776 0.2827 0.0
H199 H 0.08098 0.98665 0.34903 0.0
H200 H 0.18276 0.85432 0.38436 0.0
O201 O 0.17205 0.97561 0.18391 0.0
H202 H 0.22453 0.8982 0.01133 0.0
H203 H 0.23666 0.98964 0.08342 0.0
H204 H 0.23062 0.98266 0.98316 0.0
H205 H 0.22455 0.93679 0.9465 0.0
H206 H 0.23002 0.90599 0.1114 0.0
H207 H 0.32741 0.97407 0.10043 0.0
H208 H 0.33272 0.0175 0.14912 0.0
O209 O 0.2151 0.98769 0.17584 0.0
C210 C 0.22231 0.96682 0.29854 0.0
C211 C 0.29482 0.01448 0.19085 0.0
C212 C 0.31194 0.98121 0.12803 0.0
N213 N 0.26918 0.97502 0.17134 0.0
C214 C 0.27197 0.99883 0.19841 0.0
C215 C 0.28882 0.96609 0.13661 0.0
C216 C 0.3149 0.00557 0.15537 0.0
C217 C 0.18075 0.88961 0.26439 0.0
N218 N 0.17664 0.91465 0.28534 0.0
C219 C 0.18296 0.86754 0.29957 0.0
C220 C 0.18107 0.87124 0.35661 0.0
C221 C 0.17705 0.89686 0.37772 0.0
C222 C 0.17493 0.91844 0.34129 0.0
C223 C 0.09949 0.95185 0.31335 0.0
C224 C 0.14213 0.98504 0.2883 0.0
C225 C 0.12212 0.94205 0.28622 0.0
N226 N 0.14314 0.95858 0.27433 0.0
C227 C 0.11983 0.99554 0.31544 0.0
C228 C 0.0984 0.97878 0.32805 0.0
C229 C 0.19008 0.99226 0.16979 0.0
C230 C 0.22718 0.91834 0.02683 0.0
C231 C 0.23377 0.96956 0.06799 0.0
C232 C 0.23052 0.96576 0.01108 0.0
C233 C 0.22714 0.93998 0.99048 0.0
N234 N 0.23354 0.94825 0.10354 0.0
C235 C 0.23046 0.92288 0.0835 0.0
Co236 Co 0.07019 0.826 0.74407 0.0
Co237 Co 0.0527 0.76526 0.80102 0.0
O238 O 0.07848 0.79369 0.78555 0.0
C239 C 0.09131 0.85221 0.84665 0.0
O240 O 0.07179 0.84184 0.87601 0.0
C241 C 0.09584 0.73856 0.74076 0.0
O242 O 0.09273 0.75744 0.70357 0.0
O243 O 0.0407 0.76401 0.72208 0.0
O244 O 0.04729 0.80579 0.69116 0.0
H245 H 0.96321 0.71961 0.79543 0.0
H246 H 0.12679 0.81163 0.76537 0.0
O247 O 0.09347 0.84716 0.7952 0.0
H248 H 0.11819 0.81544 0.56215 0.0
H249 H 0.09203 0.91501 0.65741 0.0
H250 H 0.02089 0.84919 0.69557 0.0
H251 H 0.0795 0.82528 0.62201 0.0
H252 H 0.10221 0.87316 0.7072 0.0
O253 O 0.08123 0.73823 0.78398 0.0
H254 H 0.99551 0.75563 0.77521 0.0
H255 H 0.05654 0.71309 0.86006 0.0
H256 H 0.00987 0.89069 0.64527 0.0
H257 H 0.16607 0.80191 0.70702 0.0
H258 H 0.04559 0.92394 0.62586 0.0
H259 H 0.16188 0.8037 0.60463 0.0
O260 O 0.03847 0.83276 0.79147 0.0
H261 H 0.12023 0.7664 0.95514 0.0
H262 H 0.02414 0.76777 0.90931 0.0
H263 H 0.03818 0.76912 0.00714 0.0
H264 H 0.08657 0.76805 0.03054 0.0
H265 H 0.10533 0.76535 0.85783 0.0
H266 H 0.02497 0.67648 0.88077 0.0
H267 H 0.97789 0.6797 0.84862 0.0
O268 O 0.02404 0.79204 0.81782 0.0
C269 C 0.03849 0.78207 0.68503 0.0
C270 C 0.98364 0.71802 0.80982 0.0
C271 C 0.01832 0.6938 0.85765 0.0
N272 N 0.02779 0.73655 0.81688 0.0
C273 C 0.00199 0.73838 0.79863 0.0
C274 C 0.03611 0.71454 0.84569 0.0
C275 C 0.9919 0.69562 0.83962 0.0
C276 C 0.12488 0.8127 0.72085 0.0
N277 N 0.10092 0.81913 0.69716 0.0
C278 C 0.14716 0.80707 0.68802 0.0
C279 C 0.14479 0.80804 0.63058 0.0
C280 C 0.12027 0.81461 0.60671 0.0
C281 C 0.09842 0.8201 0.64084 0.0
C282 C 0.07631 0.90064 0.66545 0.0
C283 C 0.03658 0.86348 0.68693 0.0
C284 C 0.08194 0.87692 0.69371 0.0
N285 N 0.06221 0.85863 0.70381 0.0
C286 C 0.0302 0.88697 0.65858 0.0
C287 C 0.05025 0.90564 0.64777 0.0
C288 C 0.02141 0.81742 0.81469 0.0
C289 C 0.0991 0.76671 0.94544 0.0
C290 C 0.04523 0.7676 0.91915 0.0
C291 C 0.05305 0.76828 0.97464 0.0
C292 C 0.08019 0.76773 0.98774 0.0
N293 N 0.06391 0.76631 0.8779 0.0
C294 C 0.09054 0.76605 0.89043 0.0
Co295 Co 0.17983 0.06126 0.74238 0.0
Co296 Co 0.24088 0.04493 0.79862 0.0
O297 O 0.21231 0.07054 0.78233 0.0
C298 C 0.15518 0.08567 0.84273 0.0
O299 O 0.16793 0.06845 0.87417 0.0
C300 C 0.26705 0.08907 0.73999 0.0
O301 O 0.24805 0.08615 0.70301 0.0
O302 O 0.24247 0.03297 0.71967 0.0
O303 O 0.19985 0.03678 0.6921 0.0
H304 H 0.28717 0.95578 0.79434 0.0
H305 H 0.19433 0.11833 0.75618 0.0
O306 O 0.15877 0.08591 0.79059 0.0
H307 H 0.19009 0.10379 0.55448 0.0
H308 H 0.09081 0.08066 0.65346 0.0
H309 H 0.15661 0.0107 0.70006 0.0
H310 H 0.18014 0.067 0.61923 0.0
H311 H 0.13257 0.09219 0.70224 0.0
O312 O 0.26787 0.07361 0.78194 0.0
H313 H 0.25098 0.98778 0.77341 0.0
H314 H 0.29269 0.04921 0.85875 0.0
H315 H 0.11527 0.99834 0.65053 0.0
H316 H 0.20415 0.15579 0.69284 0.0
H317 H 0.08202 0.03346 0.62694 0.0
H318 H 0.20218 0.1486 0.59121 0.0
O319 O 0.17306 0.03132 0.79456 0.0
H320 H 0.23598 0.11294 0.95147 0.0
H321 H 0.23831 0.01668 0.90742 0.0
H322 H 0.23437 0.0311 0.00489 0.0
H323 H 0.23312 0.07948 0.0273 0.0
H324 H 0.23967 0.09771 0.85468 0.0
H325 H 0.32946 0.01796 0.88016 0.0
H326 H 0.32675 0.97083 0.8481 0.0
O327 O 0.21421 0.01597 0.81565 0.0
C328 C 0.22389 0.02923 0.6843 0.0
C329 C 0.28854 0.97624 0.80868 0.0
C330 C 0.3123 0.01115 0.85679 0.0
N331 N 0.26966 0.02025 0.81522 0.0
C332 C 0.26809 0.99442 0.79708 0.0
C333 C 0.29146 0.02877 0.84442 0.0
C334 C 0.31076 0.98471 0.8388 0.0
C335 C 0.19316 0.11513 0.712 0.0
N336 N 0.18664 0.09052 0.69147 0.0
C337 C 0.19885 0.13638 0.67634 0.0
C338 C 0.19778 0.13232 0.61932 0.0
C339 C 0.19103 0.10718 0.59869 0.0
C340 C 0.1855 0.08639 0.63558 0.0
C341 C 0.10518 0.06518 0.66337 0.0
C342 C 0.14232 0.02612 0.68957 0.0
C343 C 0.12883 0.07158 0.69112 0.0
N344 N 0.14712 0.05216 0.70355 0.0
C345 C 0.11892 0.01899 0.66168 0.0
C346 C 0.10026 0.0387 0.6485 0.0
C347 C 0.18872 0.01432 0.81688 0.0
C348 C 0.23654 0.09177 0.9422 0.0
C349 C 0.23779 0.03779 0.9169 0.0
C350 C 0.23559 0.04581 0.97213 0.0
C351 C 0.23492 0.07299 0.98472 0.0
N352 N 0.23933 0.05633 0.8754 0.0
C353 C 0.23874 0.08302 0.88747 0.0
Co354 Co 0.92976 0.16539 0.79899 0.0
Co355 Co 0.95716 0.22718 0.81333 0.0
O356 O 0.92801 0.20195 0.8251 0.0
C357 C 0.91258 0.13472 0.8971 0.0
O358 O 0.93677 0.12452 0.89843 0.0
C359 C 0.92431 0.2722 0.76834 0.0
O360 O 0.93999 0.27341 0.72478 0.0
O361 O 0.95574 0.22059 0.73181 0.0
O362 O 0.95132 0.17602 0.73271 0.0
H363 H 0.04291 0.26053 0.72986 0.0
H364 H 0.8773 0.19006 0.82403 0.0
O365 O 0.90752 0.15399 0.8641 0.0
H366 H 0.87152 0.1621 0.62869 0.0
H367 H 0.89255 0.07375 0.75778 0.0
H368 H 0.97316 0.13061 0.75667 0.0
H369 H 0.91242 0.15369 0.68288 0.0
H370 H 0.89016 0.12074 0.78803 0.0
O371 O 0.92903 0.25548 0.80695 0.0
H372 H 0.00694 0.22777 0.74682 0.0
H373 H 0.96764 0.28255 0.8536 0.0
H374 H 0.97645 0.08364 0.72612 0.0
H375 H 0.83586 0.19859 0.77154 0.0
H376 H 0.93595 0.05485 0.7267 0.0
H377 H 0.8328 0.1846 0.67311 0.0
O378 O 0.96324 0.16047 0.84217 0.0
H379 H 0.91815 0.24146 0.00309 0.0
H380 H 0.00119 0.22847 0.8965 0.0
H381 H 0.00337 0.23145 0.99804 0.0
H382 H 0.96171 0.23836 0.0522 0.0
H383 H 0.91672 0.23718 0.90141 0.0
H384 H 0.0032 0.31596 0.8378 0.0
H385 H 0.04118 0.305 0.77557 0.0
O386 O 0.98506 0.19841 0.82091 0.0
C387 C 0.95688 0.19788 0.70785 0.0
C388 C 0.0265 0.26553 0.75715 0.0
C389 C 0.00419 0.29665 0.81771 0.0
N390 N 0.9853 0.25323 0.80132 0.0
C391 C 0.00609 0.24705 0.76696 0.0
C392 C 0.98413 0.27768 0.82648 0.0
C393 C 0.0255 0.29048 0.78279 0.0
C394 C 0.87607 0.18375 0.78132 0.0
N395 N 0.89725 0.17128 0.75666 0.0
C396 C 0.85257 0.18871 0.75176 0.0
C397 C 0.85088 0.18088 0.69652 0.0
C398 C 0.8726 0.16828 0.67157 0.0
C399 C 0.89577 0.16366 0.70241 0.0
C400 C 0.91035 0.08606 0.75746 0.0
C401 C 0.95545 0.11821 0.75698 0.0
C402 C 0.90913 0.11271 0.77451 0.0
N403 N 0.93152 0.12844 0.77414 0.0
C404 C 0.95743 0.09163 0.73964 0.0
C405 C 0.9347 0.07548 0.73999 0.0
C406 C 0.98444 0.17463 0.84042 0.0
C407 C 0.93648 0.23869 0.97997 0.0
C408 C 0.98291 0.23132 0.91961 0.0
C409 C 0.9843 0.23315 0.9772 0.0
C410 C 0.96091 0.23692 0.00752 0.0
N411 N 0.95885 0.23279 0.89286 0.0
C412 C 0.93581 0.23644 0.92231 0.0
Co413 Co 0.8199 0.94141 0.75753 0.0
Co414 Co 0.75638 0.94946 0.80651 0.0
O415 O 0.78835 0.92766 0.79501 0.0
C416 C 0.86342 0.92726 0.83383 0.0
O417 O 0.86953 0.9528 0.83311 0.0
C418 C 0.71515 0.91145 0.76423 0.0
O419 O 0.70671 0.93027 0.73052 0.0
O420 O 0.7545 0.95693 0.72521 0.0
O421 O 0.79781 0.9638 0.70629 0.0
H422 H 0.69677 0.02919 0.7788 0.0
H423 H 0.81248 0.88289 0.76813 0.0
O424 O 0.84283 0.91896 0.80776 0.0
H425 H 0.81883 0.89989 0.56745 0.0
H426 H 0.91138 0.9351 0.67037 0.0
H427 H 0.8376 0.9954 0.72285 0.0
H428 H 0.82243 0.93701 0.6341 0.0
H429 H 0.87068 0.91726 0.7147 0.0
O430 O 0.73484 0.9159 0.79649 0.0
H431 H 0.73763 0.00218 0.76643 0.0
H432 H 0.7056 0.9412 0.86933 0.0
H433 H 0.87789 0.01407 0.67836 0.0
H434 H 0.80908 0.84509 0.70287 0.0
H435 H 0.91516 0.98384 0.65188 0.0
H436 H 0.81223 0.8535 0.60173 0.0
O437 O 0.82117 0.97106 0.81172 0.0
H438 H 0.77019 0.89115 0.97386 0.0
H439 H 0.75285 0.98301 0.90872 0.0
H440 H 0.75748 0.97434 0.00876 0.0
H441 H 0.76624 0.92817 0.04191 0.0
H442 H 0.76566 0.90069 0.87412 0.0
H443 H 0.66434 0.96749 0.88269 0.0
H444 H 0.65978 0.01185 0.83731 0.0
O445 O 0.77803 0.98301 0.81839 0.0
C446 C 0.77312 0.96512 0.69324 0.0
C447 C 0.69854 0.00991 0.79887 0.0
C448 C 0.68033 0.97527 0.85716 0.0
N449 N 0.72401 0.97022 0.8173 0.0
C450 C 0.72163 0.99455 0.79206 0.0
C451 C 0.70372 0.96048 0.84941 0.0
C452 C 0.67779 1.00016 0.83168 0.0
C453 C 0.81405 0.88667 0.72419 0.0
N454 N 0.81779 0.91211 0.70502 0.0
C455 C 0.81203 0.86521 0.68743 0.0
C456 C 0.81377 0.86994 0.63069 0.0
C457 C 0.81746 0.89596 0.61142 0.0
C458 C 0.81939 0.91692 0.64939 0.0
C459 C 0.89525 0.94847 0.68155 0.0
C460 C 0.85368 0.9821 0.71118 0.0
C461 C 0.87214 0.93848 0.7066 0.0
N462 N 0.85173 0.95526 0.72116 0.0
C463 C 0.87645 0.99279 0.68607 0.0
C464 C 0.89736 0.97581 0.67124 0.0
C465 C 0.80288 0.987 0.82778 0.0
C466 C 0.76632 0.91136 0.9599 0.0
C467 C 0.75666 0.96283 0.92274 0.0
C468 C 0.75924 0.95806 0.97948 0.0
C469 C 0.76412 0.93214 0.99807 0.0
N470 N 0.7588 0.94233 0.88549 0.0
C471 C 0.76363 0.91687 0.90347 0.0
Co472 Co 0.56337 0.66874 0.7272 0.0
Co473 Co 0.5479 0.73324 0.69337 0.0
O474 O 0.57371 0.70392 0.6998 0.0
C475 C 0.58613 0.63232 0.64389 0.0
O476 O 0.5615 0.62396 0.63618 0.0
C477 C 0.59312 0.75684 0.75441 0.0
O478 O 0.59134 0.73612 0.78761 0.0
O479 O 0.53778 0.72933 0.77287 0.0
O480 O 0.53612 0.68457 0.77853 0.0
H481 H 0.45922 0.77867 0.72038 0.0
H482 H 0.62073 0.68359 0.72851 0.0
O483 O 0.59058 0.65191 0.67653 0.0
H484 H 0.59743 0.66587 0.92344 0.0
H485 H 0.58012 0.57459 0.79385 0.0
H486 H 0.51148 0.64199 0.74878 0.0
H487 H 0.56366 0.66076 0.84987 0.0
H488 H 0.59318 0.61964 0.76221 0.0
O489 O 0.57689 0.7592 0.71404 0.0
H490 H 0.49146 0.74149 0.72726 0.0
H491 H 0.55081 0.7885 0.64746 0.0
H492 H 0.49755 0.59726 0.78067 0.0
H493 H 0.65524 0.68861 0.80074 0.0
H494 H 0.53199 0.56316 0.80332 0.0
H495 H 0.64363 0.67982 0.89905 0.0
O496 O 0.53577 0.66654 0.66835 0.0
H497 H 0.61206 0.73951 0.5338 0.0
H498 H 0.51701 0.73759 0.588 0.0
H499 H 0.52898 0.74073 0.48916 0.0
H500 H 0.57679 0.74181 0.46154 0.0
H501 H 0.59922 0.736 0.63214 0.0
H502 H 0.51929 0.82628 0.64018 0.0
H503 H 0.47308 0.82145 0.67658 0.0
O504 O 0.51827 0.70782 0.67248 0.0
C505 C 0.53048 0.70783 0.79684 0.0
C506 C 0.47927 0.78099 0.70421 0.0
C507 C 0.513 0.80773 0.65926 0.0
N508 N 0.52292 0.76276 0.6874 0.0
C509 C 0.49759 0.75999 0.70785 0.0
C510 C 0.53078 0.78629 0.66362 0.0
C511 C 0.48707 0.805 0.67968 0.0
C512 C 0.61562 0.6794 0.7711 0.0
N513 N 0.59025 0.67175 0.78486 0.0
C514 C 0.63521 0.68241 0.81186 0.0
C515 C 0.62867 0.67753 0.86702 0.0
C516 C 0.60274 0.66973 0.88075 0.0
C517 C 0.58367 0.66695 0.8389 0.0
C518 C 0.56492 0.58929 0.78423 0.0
C519 C 0.5266 0.62732 0.75882 0.0
C520 C 0.5722 0.61484 0.76631 0.0
N521 N 0.55311 0.63347 0.75373 0.0
C522 C 0.51858 0.602 0.77679 0.0
C523 C 0.53792 0.58289 0.78948 0.0
C524 C 0.51722 0.68325 0.65809 0.0
C525 C 0.59115 0.73913 0.54534 0.0
C526 C 0.53788 0.73794 0.57632 0.0
C527 C 0.54452 0.7398 0.52029 0.0
C528 C 0.57135 0.7404 0.50481 0.0
N529 N 0.55742 0.73672 0.61584 0.0
C530 C 0.58377 0.73724 0.60097 0.0
Co531 Co 0.3217 0.57093 0.7667 0.0
Co532 Co 0.26317 0.55038 0.70624 0.0
O533 O 0.29027 0.57759 0.72121 0.0
C534 C 0.34852 0.59203 0.6655 0.0
O535 O 0.33692 0.57322 0.63613 0.0
C536 C 0.23061 0.59581 0.7477 0.0
O537 O 0.24422 0.59528 0.79417 0.0
O538 O 0.25882 0.54296 0.78725 0.0
O539 O 0.30088 0.54764 0.81815 0.0
H540 H 0.21869 0.46074 0.72563 0.0
H541 H 0.30567 0.62663 0.74132 0.0
O542 O 0.34357 0.59434 0.71699 0.0
H543 H 0.30432 0.62007 0.945 0.0
H544 H 0.40722 0.59683 0.86291 0.0
H545 H 0.34539 0.5229 0.81945 0.0
H546 H 0.31731 0.58127 0.88807 0.0
H547 H 0.36647 0.60502 0.80791 0.0
O548 O 0.23522 0.57883 0.70966 0.0
H549 H 0.25318 0.49487 0.74424 0.0
H550 H 0.21391 0.54941 0.63666 0.0
H551 H 0.38574 0.51386 0.8751 0.0
H552 H 0.29271 0.66601 0.79671 0.0
H553 H 0.417 0.551 0.89716 0.0
H554 H 0.29194 0.66284 0.8993 0.0
O555 O 0.33092 0.53921 0.72123 0.0
H556 H 0.27153 0.60936 0.53854 0.0
H557 H 0.26986 0.51618 0.60555 0.0
H558 H 0.27515 0.52517 0.5056 0.0
H559 H 0.27567 0.57191 0.4716 0.0
H560 H 0.26638 0.59961 0.63802 0.0
H561 H 0.17888 0.51595 0.61722 0.0
H562 H 0.18123 0.47119 0.66165 0.0
O563 O 0.29081 0.52157 0.70081 0.0
C564 C 0.27667 0.54028 0.82468 0.0
C565 C 0.2175 0.48014 0.70589 0.0
C566 C 0.19513 0.51114 0.64511 0.0
N567 N 0.23566 0.52401 0.69124 0.0
C568 C 0.23699 0.49952 0.71617 0.0
C569 C 0.21498 0.53003 0.6564 0.0
C570 C 0.19647 0.48603 0.67003 0.0
C571 C 0.30557 0.62518 0.78597 0.0
N572 N 0.31237 0.60175 0.81142 0.0
C573 C 0.29814 0.64751 0.8171 0.0
C574 C 0.29767 0.6457 0.87466 0.0
C575 C 0.30461 0.62171 0.90033 0.0
C576 C 0.3119 0.59979 0.86786 0.0
C577 C 0.3937 0.5805 0.85376 0.0
C578 C 0.35877 0.5392 0.82931 0.0
C579 C 0.37062 0.58501 0.82257 0.0
N580 N 0.35341 0.56451 0.81103 0.0
C581 C 0.38164 0.53395 0.86065 0.0
C582 C 0.39918 0.55478 0.87296 0.0
C583 C 0.31629 0.52046 0.70211 0.0
C584 C 0.27116 0.58885 0.55289 0.0
C585 C 0.2703 0.53664 0.59111 0.0
C586 C 0.27326 0.54156 0.53449 0.0
C587 C 0.27359 0.56784 0.51537 0.0
N588 N 0.26756 0.55735 0.62763 0.0
C589 C 0.26818 0.58319 0.60918 0.0
Co590 Co 0.44131 0.32224 0.75537 0.0
Co591 Co 0.45342 0.2595 0.70357 0.0
O592 O 0.43045 0.29059 0.71471 0.0
C593 C 0.42978 0.36575 0.6771 0.0
O594 O 0.45501 0.37247 0.68271 0.0
C595 C 0.41681 0.21666 0.74392 0.0
O596 O 0.43573 0.20855 0.7777 0.0
O597 O 0.46057 0.25717 0.78506 0.0
O598 O 0.46141 0.30035 0.81021 0.0
H599 H 0.53518 0.20269 0.73101 0.0
H600 H 0.38385 0.31345 0.73142 0.0
O601 O 0.42093 0.3448 0.70105 0.0
H602 H 0.39019 0.31818 0.9349 0.0
H603 H 0.42746 0.41288 0.84239 0.0
H604 H 0.49248 0.34123 0.80304 0.0
H605 H 0.43045 0.32331 0.87705 0.0
H606 H 0.41344 0.37197 0.79332 0.0
O607 O 0.42071 0.23674 0.7124 0.0
H608 H 0.50657 0.24237 0.74428 0.0
H609 H 0.44732 0.20887 0.63916 0.0
H610 H 0.50731 0.38171 0.85263 0.0
H611 H 0.34301 0.30852 0.78776 0.0
H612 H 0.47469 0.41792 0.8725 0.0
H613 H 0.34603 0.31084 0.89027 0.0
O614 O 0.47386 0.32499 0.70884 0.0
H615 H 0.39445 0.27166 0.53696 0.0
H616 H 0.48707 0.25771 0.60102 0.0
H617 H 0.47769 0.26143 0.50084 0.0
H618 H 0.43131 0.26868 0.46836 0.0
H619 H 0.40445 0.26753 0.63644 0.0
H620 H 0.47523 0.16877 0.62489 0.0
H621 H 0.51954 0.16554 0.67092 0.0
O622 O 0.48619 0.28243 0.69346 0.0
C623 C 0.46533 0.27563 0.82025 0.0
C624 C 0.51594 0.20388 0.71065 0.0
C625 C 0.48228 0.18484 0.65111 0.0
N626 N 0.47539 0.22798 0.69231 0.0
C627 C 0.49968 0.22631 0.71795 0.0
C628 C 0.46656 0.20757 0.65937 0.0
C629 C 0.50714 0.18304 0.67695 0.0
C630 C 0.3853 0.31469 0.77599 0.0
N631 N 0.40949 0.31884 0.80084 0.0
C632 C 0.36212 0.31179 0.80768 0.0
C633 C 0.36383 0.31306 0.8652 0.0
C634 C 0.3886 0.31716 0.89027 0.0
C635 C 0.41135 0.31997 0.85727 0.0
C636 C 0.44184 0.39721 0.83413 0.0
C637 C 0.47814 0.35683 0.81182 0.0
C638 C 0.43402 0.37399 0.8064 0.0
N639 N 0.45212 0.35418 0.79548 0.0
C640 C 0.48666 0.37973 0.83983 0.0
C641 C 0.46835 0.40004 0.85096 0.0
C642 C 0.49057 0.30761 0.69174 0.0
C643 C 0.41482 0.26852 0.55062 0.0
C644 C 0.46674 0.26077 0.58717 0.0
C645 C 0.46161 0.2629 0.53046 0.0
C646 C 0.4355 0.26688 0.51217 0.0
N647 N 0.44631 0.26217 0.62463 0.0
C648 C 0.42063 0.26609 0.60695 0.0
Co649 Co 0.69118 0.43244 0.73723 0.0
Co650 Co 0.75402 0.44822 0.68826 0.0
O651 O 0.72433 0.42317 0.69946 0.0
C652 C 0.64953 0.41533 0.65868 0.0
O653 O 0.64166 0.44037 0.65885 0.0
C654 C 0.77751 0.40325 0.74867 0.0
O655 O 0.75737 0.40646 0.78281 0.0
O656 O 0.7537 0.45922 0.76769 0.0
O657 O 0.71051 0.45556 0.79128 0.0
H658 H 0.8027 0.53579 0.70492 0.0
H659 H 0.70448 0.37529 0.71996 0.0
O660 O 0.67087 0.40883 0.68437 0.0
H661 H 0.69737 0.38624 0.92226 0.0
H662 H 0.60069 0.4137 0.82121 0.0
H663 H 0.66754 0.48312 0.77755 0.0
H664 H 0.68929 0.4244 0.85989 0.0
H665 H 0.64327 0.40169 0.77617 0.0
O666 O 0.77982 0.41862 0.70678 0.0
H667 H 0.76499 0.50465 0.71863 0.0
H668 H 0.80735 0.44336 0.63437 0.0
H669 H 0.62529 0.49599 0.82291 0.0
H670 H 0.7124 0.33649 0.78087 0.0
H671 H 0.59149 0.46115 0.84494 0.0
H672 H 0.70898 0.34186 0.88282 0.0
O673 O 0.68672 0.46367 0.68713 0.0
H674 H 0.75349 0.38278 0.53032 0.0
H675 H 0.75502 0.47822 0.5816 0.0
H676 H 0.75453 0.46557 0.48296 0.0
H677 H 0.75382 0.41753 0.45678 0.0
H678 H 0.75369 0.39634 0.62853 0.0
H679 H 0.84563 0.47375 0.62016 0.0
H680 H 0.84339 0.52037 0.65536 0.0
O681 O 0.72857 0.47812 0.67017 0.0
C682 C 0.73445 0.46283 0.80143 0.0
C683 C 0.80388 0.51556 0.6892 0.0
C684 C 0.82799 0.48073 0.64169 0.0
N685 N 0.78388 0.47233 0.67683 0.0
C686 C 0.78255 0.49787 0.69667 0.0
C687 C 0.80628 0.4636 0.64995 0.0
C688 C 0.82671 0.50689 0.66144 0.0
C689 C 0.70262 0.37771 0.76424 0.0
N690 N 0.69629 0.40207 0.78625 0.0
C691 C 0.70726 0.3557 0.79854 0.0
C692 C 0.70539 0.35874 0.85574 0.0
C693 C 0.6989 0.38363 0.8779 0.0
C694 C 0.69443 0.40521 0.84234 0.0
C695 C 0.61529 0.42906 0.81195 0.0
C696 C 0.65299 0.46783 0.78723 0.0
C697 C 0.63944 0.42237 0.78648 0.0
N698 N 0.65792 0.44168 0.77431 0.0
C699 C 0.62909 0.47524 0.81286 0.0
C700 C 0.61013 0.45569 0.8252 0.0
C701 C 0.70316 0.48089 0.66802 0.0
C702 C 0.75385 0.40377 0.54122 0.0
C703 C 0.7546 0.45728 0.57056 0.0
C704 C 0.7544 0.45024 0.51462 0.0
C705 C 0.75402 0.42328 0.49997 0.0
N706 N 0.75448 0.43802 0.61079 0.0
C707 C 0.75405 0.41156 0.59675 0.0
Co708 Co 0.55988 0.32023 0.26576 0.0
Co709 Co 0.54072 0.25963 0.32235 0.0
O710 O 0.56734 0.28778 0.30823 0.0
C711 C 0.57532 0.36353 0.34166 0.0
O712 O 0.55039 0.37157 0.3377 0.0
C713 C 0.58705 0.23117 0.27356 0.0
O714 O 0.59062 0.25164 0.24041 0.0
O715 O 0.53085 0.25784 0.24223 0.0
O716 O 0.53763 0.29976 0.21203 0.0
H717 H 0.45059 0.2157 0.30866 0.0
H718 H 0.61635 0.30706 0.29099 0.0
O719 O 0.58243 0.34165 0.31867 0.0
H720 H 0.61036 0.30728 0.08725 0.0
H721 H 0.58332 0.40742 0.17236 0.0
H722 H 0.5111 0.34357 0.21572 0.0
H723 H 0.57078 0.31757 0.14414 0.0
H724 H 0.59282 0.3663 0.22522 0.0
O725 O 0.56828 0.23124 0.30914 0.0
H726 H 0.48423 0.25066 0.29001 0.0
H727 H 0.54164 0.20845 0.38576 0.0
H728 H 0.50077 0.38428 0.1621 0.0
H729 H 0.65654 0.29702 0.23559 0.0
H730 H 0.53702 0.41659 0.14025 0.0
H731 H 0.65365 0.29697 0.13295 0.0
O732 O 0.52776 0.32731 0.31186 0.0
H733 H 0.60588 0.26238 0.48049 0.0
H734 H 0.51052 0.2647 0.42871 0.0
H735 H 0.52346 0.26908 0.52723 0.0
H736 H 0.57131 0.26774 0.55344 0.0
H737 H 0.59222 0.25875 0.38273 0.0
H738 H 0.50868 0.17292 0.4051 0.0
H739 H 0.46275 0.17649 0.36664 0.0
O740 O 0.51205 0.28683 0.33585 0.0
C741 C 0.52924 0.27592 0.20506 0.0
C742 C 0.47052 0.21395 0.32579 0.0
C743 C 0.50313 0.18993 0.37987 0.0
N744 N 0.51479 0.23169 0.33714 0.0
C745 C 0.48963 0.23371 0.31547 0.0
C746 C 0.52172 0.21008 0.36869 0.0
C747 C 0.47736 0.19195 0.35829 0.0
C748 C 0.61502 0.30742 0.24635 0.0
N749 N 0.59126 0.31299 0.2209 0.0
C750 C 0.63781 0.30158 0.21519 0.0
C751 C 0.63616 0.30149 0.15761 0.0
C752 C 0.61187 0.30724 0.13194 0.0
C753 C 0.58949 0.31295 0.16442 0.0
C754 C 0.56736 0.39348 0.18153 0.0
C755 C 0.527 0.35746 0.20611 0.0
C756 C 0.57261 0.37017 0.21148 0.0
N757 N 0.55253 0.35251 0.22346 0.0
C758 C 0.52103 0.3805 0.17582 0.0
C759 C 0.54138 0.39862 0.16357 0.0
C760 C 0.51027 0.31222 0.33389 0.0
C761 C 0.58489 0.26285 0.46955 0.0
C762 C 0.53142 0.26421 0.43994 0.0
C763 C 0.53859 0.26659 0.49569 0.0
C764 C 0.5655 0.26588 0.51045 0.0
N765 N 0.55057 0.26129 0.40005 0.0
C766 C 0.57702 0.26065 0.41427 0.0
Co767 Co 0.67753 0.565 0.22714 0.0
Co768 Co 0.73662 0.55311 0.29234 0.0
O769 O 0.70758 0.57716 0.27151 0.0
C770 C 0.64788 0.59239 0.31827 0.0
O771 O 0.65927 0.5767 0.35497 0.0
C772 C 0.78269 0.58704 0.25902 0.0
O773 O 0.79136 0.56708 0.22859 0.0
O774 O 0.74294 0.5446 0.21253 0.0
O775 O 0.70056 0.53974 0.18464 0.0
H776 H 0.79047 0.46838 0.28494 0.0
H777 H 0.68988 0.62286 0.23421 0.0
O778 O 0.65361 0.59034 0.26715 0.0
H779 H 0.69246 0.60133 0.03508 0.0
H780 H 0.59165 0.5767 0.12086 0.0
H781 H 0.65818 0.51193 0.18968 0.0
H782 H 0.68197 0.56645 0.10385 0.0
H783 H 0.6309 0.59204 0.17386 0.0
O784 O 0.76122 0.58463 0.28702 0.0
H785 H 0.75334 0.49852 0.25974 0.0
H786 H 0.78349 0.55815 0.36816 0.0
H787 H 0.61936 0.49576 0.1364 0.0
H788 H 0.70019 0.65848 0.16674 0.0
H789 H 0.58575 0.52825 0.10156 0.0
H790 H 0.70155 0.64778 0.06638 0.0
O791 O 0.67021 0.53662 0.28235 0.0
H792 H 0.71686 0.6143 0.45232 0.0
H793 H 0.73071 0.52061 0.39558 0.0
H794 H 0.72013 0.53078 0.49302 0.0
H795 H 0.7131 0.57793 0.52189 0.0
H796 H 0.72724 0.60325 0.3552 0.0
H797 H 0.82103 0.52871 0.39442 0.0
H798 H 0.82462 0.48344 0.35281 0.0
O799 O 0.71176 0.52159 0.2988 0.0
C800 C 0.72563 0.53696 0.17711 0.0
C801 C 0.78909 0.48804 0.30344 0.0
C802 C 0.80625 0.52191 0.36486 0.0
N803 N 0.7662 0.52998 0.31266 0.0
C804 C 0.7681 0.50517 0.28936 0.0
C805 C 0.78499 0.5385 0.3498 0.0
C806 C 0.80825 0.49651 0.3415 0.0
C807 C 0.69032 0.6181 0.19058 0.0
N808 N 0.68526 0.59263 0.17302 0.0
C809 C 0.69622 0.63833 0.15258 0.0
C810 C 0.697 0.63231 0.09628 0.0
C811 C 0.69191 0.60626 0.07869 0.0
C812 C 0.68607 0.58656 0.11786 0.0
C813 C 0.60619 0.56236 0.13567 0.0
C814 C 0.64375 0.52622 0.17435 0.0
C815 C 0.62844 0.57091 0.16581 0.0
N816 N 0.64696 0.55292 0.18442 0.0
C817 C 0.62176 0.51693 0.14433 0.0
C818 C 0.6029 0.53517 0.12485 0.0
C819 C 0.68633 0.51911 0.30138 0.0
C820 C 0.71996 0.59369 0.44024 0.0
C821 C 0.7277 0.54119 0.40778 0.0
C822 C 0.72174 0.54681 0.46307 0.0
C823 C 0.71782 0.57326 0.47927 0.0
N824 N 0.72978 0.56134 0.36969 0.0
C825 C 0.72596 0.58732 0.38534 0.0
Co826 Co 0.42541 0.67133 0.25313 0.0
Co827 Co 0.44659 0.73679 0.27397 0.0
O828 O 0.42086 0.70728 0.2837 0.0
C829 C 0.42304 0.63738 0.35352 0.0
O830 O 0.44876 0.63324 0.34717 0.0
C831 C 0.39638 0.75736 0.22577 0.0
O832 O 0.39455 0.73447 0.19948 0.0
O833 O 0.45073 0.72935 0.19291 0.0
O834 O 0.43871 0.68637 0.18186 0.0
H835 H 0.53148 0.77991 0.20741 0.0
H836 H 0.37353 0.68808 0.30054 0.0
O837 O 0.41124 0.65493 0.32369 0.0
H838 H 0.35328 0.66096 0.10886 0.0
H839 H 0.39944 0.57551 0.21477 0.0
H840 H 0.46872 0.64474 0.19053 0.0
H841 H 0.3992 0.65769 0.14548 0.0
H842 H 0.39252 0.62112 0.25081 0.0
O843 O 0.41625 0.76185 0.25746 0.0
H844 H 0.49959 0.74278 0.22032 0.0
H845 H 0.44682 0.79414 0.30785 0.0
H846 H 0.47631 0.59948 0.15316 0.0
H847 H 0.3272 0.69127 0.26606 0.0
H848 H 0.44154 0.56447 0.16538 0.0
H849 H 0.31686 0.67777 0.16947 0.0
O850 O 0.46257 0.67013 0.28232 0.0
H851 H 0.39537 0.75202 0.45017 0.0
H852 H 0.4851 0.74624 0.36638 0.0
H853 H 0.4808 0.75492 0.46648 0.0
H854 H 0.4357 0.75789 0.50898 0.0
H855 H 0.40056 0.74314 0.35031 0.0
H856 H 0.47806 0.83188 0.29559 0.0
H857 H 0.52079 0.82485 0.24521 0.0
O858 O 0.47727 0.7125 0.29078 0.0
C859 C 0.44748 0.70854 0.16311 0.0
C860 C 0.51297 0.7832 0.2296 0.0
C861 C 0.48297 0.81238 0.27902 0.0
N862 N 0.47147 0.76625 0.26512 0.0
C863 C 0.49487 0.76224 0.23716 0.0
C864 C 0.46534 0.79095 0.28573 0.0
C865 C 0.50694 0.80842 0.25076 0.0
C866 C 0.36916 0.68207 0.25853 0.0
N867 N 0.38911 0.67296 0.22483 0.0
C868 C 0.3429 0.68397 0.23921 0.0
C869 C 0.33712 0.67642 0.18499 0.0
C870 C 0.35755 0.66704 0.15094 0.0
C871 C 0.38357 0.66545 0.17169 0.0
C872 C 0.41474 0.59059 0.20926 0.0
C873 C 0.45345 0.62965 0.19582 0.0
C874 C 0.41098 0.61643 0.22977 0.0
N875 N 0.43024 0.63558 0.22303 0.0
C876 C 0.45787 0.60404 0.17463 0.0
C877 C 0.43836 0.58441 0.18152 0.0
C878 C 0.48042 0.68729 0.29449 0.0
C879 C 0.41514 0.7508 0.4321 0.0
C880 C 0.46538 0.74741 0.38458 0.0
C881 C 0.46309 0.75238 0.44127 0.0
C882 C 0.43777 0.75407 0.46509 0.0
N883 N 0.44308 0.74429 0.35246 0.0
C884 C 0.4182 0.74587 0.37555 0.0
Co885 Co 0.31744 0.42858 0.25687 0.0
Co886 Co 0.26212 0.45606 0.31972 0.0
O887 O 0.28599 0.42588 0.30418 0.0
C888 C 0.34359 0.40606 0.3574 0.0
O889 O 0.33387 0.4259 0.38674 0.0
C890 C 0.22706 0.41296 0.27899 0.0
O891 O 0.24463 0.40936 0.23937 0.0
O892 O 0.25834 0.46445 0.2391 0.0
O893 O 0.29859 0.4534 0.20522 0.0
H894 H 0.22916 0.55067 0.30393 0.0
H895 H 0.29676 0.37488 0.286 0.0
O896 O 0.33746 0.40355 0.30652 0.0
H897 H 0.29191 0.37971 0.08236 0.0
H898 H 0.39818 0.39251 0.15719 0.0
H899 H 0.34527 0.47314 0.19986 0.0
H900 H 0.30982 0.41755 0.13632 0.0
H901 H 0.35781 0.38944 0.21543 0.0
O902 O 0.23052 0.43138 0.31471 0.0
H903 H 0.2589 0.5126 0.28328 0.0
H904 H 0.21366 0.46259 0.39022 0.0
H905 H 0.38525 0.47705 0.14062 0.0
H906 H 0.2789 0.33647 0.23358 0.0
H907 H 0.41203 0.43653 0.119 0.0
H908 H 0.27629 0.33881 0.13104 0.0
O909 O 0.33066 0.45952 0.30065 0.0
H910 H 0.26446 0.39511 0.48513 0.0
H911 H 0.27433 0.48827 0.42106 0.0
H912 H 0.28105 0.47757 0.51996 0.0
H913 H 0.27599 0.43083 0.55247 0.0
H914 H 0.2584 0.40649 0.3866 0.0
H915 H 0.18326 0.50005 0.41165 0.0
H916 H 0.19103 0.54451 0.36859 0.0
O917 O 0.29318 0.48135 0.32559 0.0
C918 C 0.27562 0.46419 0.20023 0.0
C919 C 0.22561 0.53142 0.32306 0.0
C920 C 0.19982 0.50299 0.38347 0.0
N921 N 0.23812 0.48549 0.33585 0.0
C922 C 0.24241 0.50981 0.31163 0.0
C923 C 0.21705 0.48184 0.37107 0.0
C924 C 0.2042 0.52794 0.35932 0.0
C925 C 0.29597 0.3759 0.24133 0.0
N926 N 0.30437 0.39839 0.21427 0.0
C927 C 0.28573 0.35415 0.2119 0.0
C928 C 0.28422 0.3555 0.15436 0.0
C929 C 0.29295 0.37846 0.12704 0.0
C930 C 0.303 0.39985 0.15783 0.0
C931 C 0.38663 0.4103 0.16616 0.0
C932 C 0.35669 0.45539 0.19022 0.0
C933 C 0.36378 0.4087 0.19923 0.0
N934 N 0.34904 0.43106 0.21056 0.0
C935 C 0.37937 0.45774 0.15683 0.0
C936 C 0.39439 0.435 0.14475 0.0
C937 C 0.31859 0.47948 0.32199 0.0
C938 C 0.2666 0.41562 0.47145 0.0
C939 C 0.27216 0.46781 0.43488 0.0
C940 C 0.27591 0.46193 0.49092 0.0
C941 C 0.27309 0.43565 0.5092 0.0
N942 N 0.26582 0.44803 0.39805 0.0
C943 C 0.26307 0.42221 0.41572 0.0
H944 H 0.07813 0.09833 0.10725 0.0
H945 H 0.13703 0.15987 0.14081 0.0
H946 H 0.17296 0.126 0.13497 0.0
H947 H 0.1045 0.05318 0.19577 0.0
H948 H 0.09627 0.02409 0.1554 0.0
H949 H 0.07677 0.05403 0.148 0.0
H950 H 0.08711 0.05421 0.04111 0.0
H951 H 0.10588 0.02377 0.05104 0.0
H952 H 0.12149 0.05222 0.01889 0.0
H953 H 0.20146 0.08421 0.14132 0.0
H954 H 0.21902 0.03911 0.16301 0.0
H955 H 0.14054 0.00539 0.13127 0.0
C956 C 0.09867 0.105 0.1107 0.0
C957 C 0.10479 0.13188 0.12349 0.0
C958 C 0.1319 0.13948 0.13005 0.0
C959 C 0.15244 0.12034 0.12682 0.0
C960 C 0.14554 0.09369 0.11716 0.0
C961 C 0.11923 0.08608 0.10892 0.0
C962 C 0.11634 0.05593 0.10852 0.0
C963 C 0.09734 0.04629 0.15464 0.0
C964 C 0.10714 0.04596 0.05148 0.0
C965 C 0.14489 0.04774 0.12006 0.0
C966 C 0.16165 0.06966 0.12352 0.0
C967 C 0.18856 0.06691 0.13787 0.0
C968 C 0.19837 0.04121 0.1502 0.0
C969 C 0.18112 0.01872 0.14916 0.0
C970 C 0.15427 0.02213 0.13245 0.0
H971 H 0.0013 0.14593 0.14547 0.0
H972 H 0.96556 0.22337 0.17882 0.0
H973 H 0.92108 0.20481 0.15741 0.0
H974 H 0.95088 0.12415 0.03462 0.0
H975 H 0.95218 0.09019 0.05951 0.0
H976 H 0.98154 0.11109 0.06309 0.0
H977 H 0.98496 0.10179 0.16833 0.0
H978 H 0.95562 0.08122 0.16553 0.0
H979 H 0.95682 0.10927 0.21235 0.0
H980 H 0.88033 0.17601 0.15263 0.0
H981 H 0.8474 0.13979 0.16517 0.0
H982 H 0.90946 0.08108 0.13388 0.0
C983 C 0.98429 0.1593 0.14634 0.0
C984 C 0.98702 0.18612 0.16403 0.0
C985 C 0.96408 0.20275 0.16543 0.0
C986 C 0.93868 0.19241 0.153 0.0
C987 C 0.93655 0.1655 0.13841 0.0
C988 C 0.95884 0.14927 0.13416 0.0
C989 C 0.951 0.12032 0.12515 0.0
C990 C 0.9594 0.11089 0.06714 0.0
C991 C 0.96277 0.10211 0.17056 0.0
C992 C 0.92087 0.12246 0.12955 0.0
C993 C 0.91285 0.14877 0.13546 0.0
C994 C 0.88629 0.15541 0.14657 0.0
C995 C 0.86769 0.13466 0.15373 0.0
C996 C 0.87579 0.10755 0.15042 0.0
C997 C 0.90251 0.10157 0.13589 0.0
H998 H 0.86295 0.0086 0.17597 0.0
H999 H 0.78519 0.97198 0.15011 0.0
H1000 H 0.80729 0.92956 0.12509 0.0
H1001 H 0.89849 0.97131 0.06337 0.0
H1002 H 0.92858 0.96918 0.10425 0.0
H1003 H 0.90664 0.99758 0.11156 0.0
H1004 H 0.90315 0.98859 0.21717 0.0
H1005 H 0.92502 0.96031 0.21019 0.0
H1006 H 0.89246 0.9561 0.24095 0.0
H1007 H 0.83752 0.88943 0.11962 0.0
H1008 H 0.87329 0.85574 0.13145 0.0
H1009 H 0.9311 0.91942 0.15489 0.0
C1010 C 0.85048 0.99194 0.16372 0.0
C1011 C 0.82231 0.99372 0.16519 0.0
C1012 C 0.80683 0.9712 0.14939 0.0
C1013 C 0.81921 0.94701 0.13482 0.0
C1014 C 0.84706 0.9458 0.13525 0.0
C1015 C 0.86248 0.96782 0.14856 0.0
C1016 C 0.89188 0.96088 0.15055 0.0
C1017 C 0.90731 0.97561 0.10469 0.0
C1018 C 0.9038 0.96681 0.20811 0.0
C1019 C 0.89053 0.93115 0.13926 0.0
C1020 C 0.86455 0.92283 0.12984 0.0
C1021 C 0.85803 0.89578 0.12533 0.0
C1022 C 0.87845 0.87678 0.13213 0.0
C1023 C 0.90503 0.88497 0.14312 0.0
C1024 C 0.91115 0.91252 0.14481 0.0
H1025 H 0.00483 0.86343 0.18586 0.0
H1026 H 0.02758 0.78761 0.11207 0.0
H1027 H 0.07014 0.80792 0.08073 0.0
H1028 H 0.03677 0.90788 0.08247 0.0
H1029 H 0.04671 0.9313 0.13532 0.0
H1030 H 0.01654 0.91197 0.14364 0.0
H1031 H 0.03384 0.89417 0.23802 0.0
H1032 H 0.06384 0.91352 0.23003 0.0
H1033 H 0.066 0.87794 0.24117 0.0
H1034 H 0.11243 0.83553 0.06643 0.0
H1035 H 0.15101 0.86618 0.0785 0.0
H1036 H 0.09947 0.92281 0.16254 0.0
C1037 C 0.01834 0.85112 0.16187 0.0
C1038 C 0.01267 0.82396 0.15105 0.0
C1039 C 0.03136 0.80853 0.12063 0.0
C1040 C 0.05551 0.81993 0.10231 0.0
C1041 C 0.06056 0.84674 0.11447 0.0
C1042 C 0.0424 0.86205 0.14368 0.0
C1043 C 0.05346 0.88936 0.15725 0.0
C1044 C 0.03741 0.91143 0.12789 0.0
C1045 C 0.05435 0.89398 0.22032 0.0
C1046 C 0.08116 0.88676 0.13304 0.0
C1047 C 0.08483 0.86233 0.10734 0.0
C1048 C 0.10964 0.85486 0.08573 0.0
C1049 C 0.13141 0.8724 0.09253 0.0
C1050 C 0.12814 0.89678 0.12149 0.0
C1051 C 0.1025 0.90432 0.14002 0.0
H1052 H 0.1414 0.86549 0.81362 0.0
H1053 H 0.07869 0.88822 0.92802 0.0
H1054 H 0.1021 0.93089 0.94627 0.0
H1055 H 0.19833 0.9012 0.89029 0.0
H1056 H 0.2139 0.91029 0.82565 0.0
H1057 H 0.19585 0.87917 0.83152 0.0
H1058 H 0.16624 0.89233 0.74817 0.0
H1059 H 0.18381 0.92346 0.74153 0.0
H1060 H 0.14799 0.92342 0.74994 0.0
H1061 H 0.12511 0.97485 0.9314 0.0
H1062 H 0.14945 0.01421 0.89486 0.0
H1063 H 0.19944 0.96214 0.79609 0.0
C1064 C 0.13323 0.87899 0.84433 0.0
C1065 C 0.10831 0.87367 0.86944 0.0
C1066 C 0.09793 0.89183 0.90883 0.0
C1067 C 0.11108 0.91614 0.91929 0.0
C1068 C 0.13487 0.92154 0.89116 0.0
C1069 C 0.1463 0.90307 0.85575 0.0
C1070 C 0.17035 0.91464 0.8261 0.0
C1071 C 0.19614 0.90049 0.8445 0.0
C1072 C 0.16686 0.91339 0.76273 0.0
C1073 C 0.16952 0.94312 0.84705 0.0
C1074 C 0.14908 0.94669 0.885 0.0
C1075 C 0.1418 0.97211 0.90348 0.0
C1076 C 0.15556 0.99433 0.88228 0.0
C1077 C 0.17653 0.99093 0.8437 0.0
C1078 C 0.18402 0.96502 0.82701 0.0
H1079 H 0.13464 0.13128 0.79895 0.0
H1080 H 0.1243 0.075 0.9336 0.0
H1081 H 0.08067 0.09568 0.9562 0.0
H1082 H 0.09916 0.1895 0.86648 0.0
H1083 H 0.08514 0.19966 0.80102 0.0
H1084 H 0.11752 0.18385 0.80334 0.0
H1085 H 0.10092 0.14807 0.73377 0.0
H1086 H 0.06842 0.16336 0.73193 0.0
H1087 H 0.07167 0.12856 0.75028 0.0
H1088 H 0.03446 0.11611 0.95013 0.0
H1089 H 0.99206 0.1384 0.92397 0.0
H1090 H 0.03372 0.1826 0.79589 0.0
C1091 C 0.12363 0.12395 0.83448 0.0
C1092 C 0.13281 0.10165 0.86486 0.0
C1093 C 0.11776 0.09234 0.91053 0.0
C1094 C 0.09289 0.10388 0.92333 0.0
C1095 C 0.08374 0.12499 0.89057 0.0
C1096 C 0.099 0.13537 0.84792 0.0
C1097 C 0.08388 0.15648 0.81575 0.0
C1098 C 0.09722 0.18401 0.82205 0.0
C1099 C 0.08106 0.14863 0.75434 0.0
C1100 C 0.05726 0.15556 0.84524 0.0
C1101 C 0.0575 0.13735 0.88839 0.0
C1102 C 0.03427 0.13095 0.9175 0.0
C1103 C 0.01026 0.14351 0.9021 0.0
C1104 C 0.00981 0.16239 0.85842 0.0
C1105 C 0.03369 0.16871 0.83034 0.0
H1106 H 0.91412 0.08318 0.93391 0.0
H1107 H 0.85942 0.14822 0.89834 0.0
H1108 H 0.82185 0.11639 0.89711 0.0
H1109 H 0.89166 0.04219 0.84136 0.0
H1110 H 0.89489 0.01125 0.87899 0.0
H1111 H 0.91558 0.0392 0.89688 0.0
H1112 H 0.89849 0.03714 0.99834 0.0
H1113 H 0.87792 0.00878 0.98056 0.0
H1114 H 0.86307 0.0379 0.01194 0.0
H1115 H 0.79302 0.0772 0.87422 0.0
H1116 H 0.77561 0.03459 0.83663 0.0
H1117 H 0.84932 0.99514 0.88406 0.0
C1118 C 0.89406 0.09096 0.92891 0.0
C1119 C 0.88976 0.11818 0.91612 0.0
C1120 C 0.86324 0.12746 0.90851 0.0
C1121 C 0.84171 0.10948 0.90773 0.0
C1122 C 0.84695 0.08235 0.9155 0.0
C1123 C 0.87247 0.07317 0.92726 0.0
C1124 C 0.87381 0.04294 0.92443 0.0
C1125 C 0.89523 0.03338 0.88295 0.0
C1126 C 0.8786 0.03099 0.98226 0.0
C1127 C 0.84587 0.03677 0.90416 0.0
C1128 C 0.83032 0.05957 0.90116 0.0
C1129 C 0.80476 0.05911 0.87785 0.0
C1130 C 0.79508 0.03487 0.85625 0.0
C1131 C 0.81126 0.01165 0.85684 0.0
C1132 C 0.83657 0.01259 0.88267 0.0
H1133 H 0.91708 0.93513 0.83815 0.0
H1134 H 0.85597 0.87493 0.86443 0.0
H1135 H 0.89119 0.8407 0.87767 0.0
H1136 H 0.95535 0.89661 0.75396 0.0
H1137 H 0.98728 0.90922 0.7767 0.0
H1138 H 0.95801 0.92985 0.7823 0.0
H1139 H 0.96639 0.93574 0.88755 0.0
H1140 H 0.99595 0.91526 0.88224 0.0
H1141 H 0.97003 0.90661 0.9309 0.0
H1142 H 0.93284 0.81226 0.87579 0.0
H1143 H 0.97639 0.79179 0.85325 0.0
H1144 H 0.00956 0.87074 0.82277 0.0
C1145 C 0.91109 0.91498 0.84899 0.0
C1146 C 0.88384 0.90773 0.85146 0.0
C1147 C 0.87678 0.88091 0.86323 0.0
C1148 C 0.89665 0.86139 0.87092 0.0
C1149 C 0.9234 0.86905 0.86629 0.0
C1150 C 0.93059 0.89526 0.85554 0.0
C1151 C 0.96025 0.89776 0.8443 0.0
C1152 C 0.96551 0.90901 0.78587 0.0
C1153 C 0.97396 0.91485 0.88892 0.0
C1154 C 0.96855 0.86878 0.84865 0.0
C1155 C 0.94719 0.85256 0.86259 0.0
C1156 C 0.94976 0.82482 0.86549 0.0
C1157 C 0.9746 0.81337 0.8525 0.0
C1158 C 0.99644 0.82963 0.83593 0.0
C1159 C 0.99337 0.85772 0.83543 0.0
H1160 H 0.58344 0.57963 0.61647 0.0
H1161 H 0.63965 0.64473 0.63947 0.0
H1162 H 0.67722 0.61279 0.63077 0.0
H1163 H 0.61463 0.53696 0.70248 0.0
H1164 H 0.60766 0.50677 0.66437 0.0
H1165 H 0.5858 0.53507 0.65783 0.0
H1166 H 0.59257 0.5351 0.55132 0.0
H1167 H 0.61434 0.50652 0.55746 0.0
H1168 H 0.62594 0.53639 0.52325 0.0
H1169 H 0.70812 0.57282 0.63436 0.0
H1170 H 0.72893 0.52908 0.65467 0.0
H1171 H 0.65181 0.49054 0.63455 0.0
C1172 C 0.60364 0.58741 0.61729 0.0
C1173 C 0.60863 0.61475 0.62769 0.0
C1174 C 0.63539 0.62391 0.63074 0.0
C1175 C 0.65684 0.60591 0.62572 0.0
C1176 C 0.65118 0.57883 0.61783 0.0
C1177 C 0.62515 0.56967 0.61347 0.0
C1178 C 0.62401 0.53942 0.61377 0.0
C1179 C 0.60704 0.52897 0.6625 0.0
C1180 C 0.6136 0.52873 0.55813 0.0
C1181 C 0.65329 0.53294 0.62148 0.0
C1182 C 0.6688 0.55583 0.62223 0.0
C1183 C 0.6962 0.55477 0.63293 0.0
C1184 C 0.70786 0.5298 0.64446 0.0
C1185 C 0.69199 0.50632 0.64647 0.0
C1186 C 0.66454 0.50802 0.63327 0.0
H1187 H 0.46812 0.69292 0.70002 0.0
H1188 H 0.50949 0.64772 0.5735 0.0
H1189 H 0.46712 0.62469 0.54939 0.0
H1190 H 0.4339 0.63931 0.75028 0.0
H1191 H 0.40376 0.65705 0.76828 0.0
H1192 H 0.43513 0.67452 0.76621 0.0
H1193 H 0.41569 0.70862 0.69626 0.0
H1194 H 0.38399 0.69145 0.69834 0.0
H1195 H 0.40058 0.69684 0.63304 0.0
H1196 H 0.42147 0.60289 0.54713 0.0
H1197 H 0.37895 0.58101 0.57354 0.0
H1198 H 0.36897 0.63845 0.70645 0.0
C1199 C 0.46793 0.67899 0.66567 0.0
C1200 C 0.4917 0.67256 0.63739 0.0
C1201 C 0.49122 0.65321 0.59474 0.0
C1202 C 0.46727 0.64014 0.58075 0.0
C1203 C 0.44417 0.6464 0.6105 0.0
C1204 C 0.44443 0.66528 0.65242 0.0
C1205 C 0.4184 0.66531 0.6843 0.0
C1206 C 0.42309 0.65864 0.74586 0.0
C1207 C 0.4038 0.69216 0.67755 0.0
C1208 C 0.40368 0.64302 0.6549 0.0
C1209 C 0.41851 0.63281 0.61149 0.0
C1210 C 0.40958 0.61095 0.58063 0.0
C1211 C 0.38536 0.59868 0.5958 0.0
C1212 C 0.3707 0.60802 0.64207 0.0
C1213 C 0.37968 0.63095 0.6707 0.0
H1214 H 0.37001 0.50992 0.69705 0.0
H1215 H 0.29228 0.47499 0.66187 0.0
H1216 H 0.31415 0.4327 0.63563 0.0
H1217 H 0.40752 0.47398 0.58593 0.0
H1218 H 0.43654 0.47029 0.62955 0.0
H1219 H 0.41507 0.49901 0.6373 0.0
H1220 H 0.40876 0.48788 0.74148 0.0
H1221 H 0.43027 0.45935 0.73404 0.0
H1222 H 0.39695 0.45514 0.76106 0.0
H1223 H 0.34365 0.3923 0.62875 0.0
H1224 H 0.3785 0.35766 0.64075 0.0
H1225 H 0.43691 0.41957 0.67529 0.0
C1226 C 0.35756 0.4936 0.68273 0.0
C1227 C 0.32942 0.49582 0.68176 0.0
C1228 C 0.3139 0.47384 0.66312 0.0
C1229 C 0.32614 0.44973 0.64778 0.0
C1230 C 0.35392 0.44803 0.65051 0.0
C1231 C 0.36943 0.46949 0.66702 0.0
C1232 C 0.39862 0.46188 0.67126 0.0
C1233 C 0.41542 0.4772 0.62844 0.0
C1234 C 0.40925 0.46631 0.73045 0.0
C1235 C 0.39695 0.43246 0.6571 0.0
C1236 C 0.37106 0.42487 0.6446 0.0
C1237 C 0.36412 0.39809 0.63693 0.0
C1238 C 0.384 0.37856 0.64383 0.0
C1239 C 0.41045 0.38599 0.65795 0.0
C1240 C 0.41708 0.41333 0.66273 0.0
H1241 H 0.59632 0.42156 0.63879 0.0
H1242 H 0.65834 0.36115 0.64942 0.0
H1243 H 0.62383 0.32575 0.64449 0.0
H1244 H 0.55466 0.39179 0.7298 0.0
H1245 H 0.52384 0.4012 0.69635 0.0
H1246 H 0.55323 0.42137 0.68717 0.0
H1247 H 0.54957 0.4163 0.58057 0.0
H1248 H 0.51983 0.39634 0.58934 0.0
H1249 H 0.54772 0.38336 0.55047 0.0
H1250 H 0.58178 0.29719 0.65227 0.0
H1251 H 0.53705 0.27892 0.67487 0.0
H1252 H 0.50373 0.35885 0.66369 0.0
C1253 C 0.60283 0.40092 0.63779 0.0
C1254 C 0.63009 0.39416 0.64372 0.0
C1255 C 0.63759 0.36682 0.64418 0.0
C1256 C 0.61811 0.34657 0.64139 0.0
C1257 C 0.59125 0.35399 0.63813 0.0
C1258 C 0.58369 0.38059 0.63602 0.0
C1259 C 0.55369 0.38367 0.64045 0.0
C1260 C 0.54592 0.40048 0.69146 0.0
C1261 C 0.54202 0.39562 0.58701 0.0
C1262 C 0.54556 0.35476 0.64737 0.0
C1263 C 0.56731 0.33779 0.64475 0.0
C1264 C 0.56459 0.31031 0.65365 0.0
C1265 C 0.5391 0.30011 0.66656 0.0
C1266 C 0.5168 0.31746 0.67145 0.0
C1267 C 0.52021 0.34498 0.6604 0.0
H1268 H 0.63386 0.50828 0.32422 0.0
H1269 H 0.71313 0.47291 0.32849 0.0
H1270 H 0.69335 0.42963 0.35578 0.0
H1271 H 0.60517 0.46831 0.44122 0.0
H1272 H 0.57316 0.46604 0.40721 0.0
H1273 H 0.59396 0.49509 0.39695 0.0
H1274 H 0.59212 0.48782 0.2906 0.0
H1275 H 0.57129 0.45895 0.30054 0.0
H1276 H 0.60211 0.45597 0.26239 0.0
H1277 H 0.66433 0.38873 0.36612 0.0
H1278 H 0.62878 0.35445 0.36038 0.0
H1279 H 0.56896 0.41722 0.35437 0.0
C1280 C 0.64717 0.49162 0.33208 0.0
C1281 C 0.67503 0.494 0.32396 0.0
C1282 C 0.6917 0.47163 0.33447 0.0
C1283 C 0.68066 0.44696 0.35022 0.0
C1284 C 0.65299 0.44512 0.35629 0.0
C1285 C 0.63653 0.467 0.34822 0.0
C1286 C 0.60735 0.45939 0.35241 0.0
C1287 C 0.59414 0.47301 0.40243 0.0
C1288 C 0.59236 0.46591 0.29828 0.0
C1289 C 0.60987 0.42955 0.36129 0.0
C1290 C 0.63633 0.42167 0.36414 0.0
C1291 C 0.64353 0.39471 0.36549 0.0
C1292 C 0.62322 0.37537 0.3622 0.0
C1293 C 0.59607 0.38313 0.35765 0.0
C1294 C 0.58943 0.41057 0.35925 0.0
H1295 H 0.52786 0.68757 0.24011 0.0
H1296 H 0.48998 0.66322 0.39313 0.0
H1297 H 0.53204 0.64142 0.42335 0.0
H1298 H 0.56071 0.62793 0.21753 0.0
H1299 H 0.59046 0.64237 0.18786 0.0
H1300 H 0.55918 0.6599 0.18308 0.0
H1301 H 0.58055 0.70137 0.23 0.0
H1302 H 0.612 0.68391 0.23491 0.0
H1303 H 0.59681 0.69775 0.29619 0.0
H1304 H 0.57657 0.6179 0.43157 0.0
H1305 H 0.61844 0.59275 0.41467 0.0
H1306 H 0.62655 0.63215 0.25543 0.0
C1307 C 0.52883 0.67829 0.2806 0.0
C1308 C 0.5061 0.67716 0.31478 0.0
C1309 C 0.50746 0.66425 0.36676 0.0
C1310 C 0.53125 0.65201 0.38429 0.0
C1311 C 0.55335 0.65287 0.34913 0.0
C1312 C 0.55231 0.66571 0.29833 0.0
C1313 C 0.57764 0.66118 0.26552 0.0
C1314 C 0.57162 0.647 0.21027 0.0
C1315 C 0.59263 0.68763 0.25612 0.0
C1316 C 0.59272 0.64312 0.3049 0.0
C1317 C 0.57869 0.63892 0.35338 0.0
C1318 C 0.58793 0.62136 0.39411 0.0
C1319 C 0.61175 0.60719 0.38426 0.0
C1320 C 0.62573 0.61047 0.33378 0.0
C1321 C 0.61639 0.62927 0.29458 0.0
H1322 H 0.36903 0.62841 0.34367 0.0
H1323 H 0.44115 0.59665 0.41888 0.0
H1324 H 0.41872 0.55338 0.43261 0.0
H1325 H 0.31983 0.58549 0.42882 0.0
H1326 H 0.29814 0.5817 0.36968 0.0
H1327 H 0.31677 0.61226 0.37925 0.0
H1328 H 0.33759 0.60711 0.28184 0.0
H1329 H 0.3192 0.57666 0.27153 0.0
H1330 H 0.35507 0.57668 0.26471 0.0
H1331 H 0.39427 0.51138 0.41302 0.0
H1332 H 0.36591 0.47492 0.37679 0.0
H1333 H 0.30836 0.53322 0.31802 0.0
C1334 C 0.37967 0.61279 0.36554 0.0
C1335 C 0.40698 0.61584 0.3795 0.0
C1336 C 0.42029 0.59478 0.40744 0.0
C1337 C 0.4077 0.57005 0.4154 0.0
C1338 C 0.3816 0.56687 0.39631 0.0
C1339 C 0.36737 0.5879 0.37357 0.0
C1340 C 0.34078 0.57842 0.35053 0.0
C1341 C 0.31748 0.59016 0.38407 0.0
C1342 C 0.33803 0.58512 0.28851 0.0
C1343 C 0.34326 0.54855 0.35992 0.0
C1344 C 0.36683 0.54236 0.387 0.0
C1345 C 0.37531 0.51598 0.39362 0.0
C1346 C 0.35926 0.49543 0.37236 0.0
C1347 C 0.3349 0.50133 0.34522 0.0
C1348 C 0.32662 0.52821 0.33979 0.0
H1349 H 0.35976 0.35726 0.32035 0.0
H1350 H 0.37921 0.41928 0.43911 0.0
H1351 H 0.42291 0.39776 0.45632 0.0
H1352 H 0.39715 0.30097 0.39385 0.0
H1353 H 0.40705 0.28681 0.3284 0.0
H1354 H 0.37542 0.30387 0.33457 0.0
H1355 H 0.38881 0.33498 0.25327 0.0
H1356 H 0.42058 0.31848 0.24746 0.0
H1357 H 0.41927 0.35415 0.25793 0.0
H1358 H 0.46776 0.37594 0.44345 0.0
H1359 H 0.50809 0.35178 0.41101 0.0
H1360 H 0.45871 0.30208 0.30573 0.0
C1361 C 0.37279 0.3657 0.35163 0.0
C1362 C 0.36612 0.38987 0.37852 0.0
C1363 C 0.38378 0.40058 0.41856 0.0
C1364 C 0.40871 0.38854 0.42842 0.0
C1365 C 0.41531 0.36548 0.39888 0.0
C1366 C 0.39752 0.35373 0.36243 0.0
C1367 C 0.4102 0.33043 0.33216 0.0
C1368 C 0.39665 0.30395 0.34823 0.0
C1369 C 0.40969 0.3348 0.26901 0.0
C1370 C 0.43837 0.33185 0.35478 0.0
C1371 C 0.44092 0.35211 0.39346 0.0
C1372 C 0.46581 0.35946 0.4147 0.0
C1373 C 0.48859 0.34582 0.39584 0.0
C1374 C 0.4862 0.3249 0.35682 0.0
C1375 C 0.46079 0.31752 0.33687 0.0
H1376 H 0.14749 0.27529 0.24801 0.0
H1377 H 0.07871 0.31503 0.31995 0.0
H1378 H 0.10539 0.35641 0.33107 0.0
H1379 H 0.19907 0.30735 0.33044 0.0
H1380 H 0.22203 0.31021 0.27323 0.0
H1381 H 0.19813 0.28326 0.27497 0.0
H1382 H 0.18037 0.29762 0.17864 0.0
H1383 H 0.20413 0.32469 0.17681 0.0
H1384 H 0.16896 0.33147 0.16841 0.0
H1385 H 0.13992 0.39322 0.33539 0.0
H1386 H 0.17862 0.42377 0.32623 0.0
H1387 H 0.22345 0.36106 0.24394 0.0
C1388 C 0.13821 0.29258 0.26694 0.0
C1389 C 0.1112 0.29192 0.28404 0.0
C1390 C 0.09946 0.31514 0.30709 0.0
C1391 C 0.11445 0.33867 0.31357 0.0
C1392 C 0.14098 0.33877 0.29585 0.0
C1393 C 0.15269 0.31641 0.27248 0.0
C1394 C 0.181 0.32226 0.25365 0.0
C1395 C 0.20125 0.30473 0.28496 0.0
C1396 C 0.18376 0.31881 0.19064 0.0
C1397 C 0.18344 0.35136 0.27028 0.0
C1398 C 0.16028 0.36041 0.29521 0.0
C1399 C 0.15808 0.38641 0.31556 0.0
C1400 C 0.18014 0.40359 0.31024 0.0
C1401 C 0.20385 0.39484 0.28386 0.0
C1402 C 0.20541 0.3684 0.26352 0.0
H1403 H 0.72357 0.14878 0.24745 0.0
H1404 H 0.67529 0.07675 0.2457 0.0
H1405 H 0.63428 0.10409 0.25473 0.0
H1406 H 0.68421 0.18739 0.34259 0.0
H1407 H 0.68803 0.21839 0.3053 0.0
H1408 H 0.71366 0.19316 0.30123 0.0
H1409 H 0.70976 0.19314 0.19429 0.0
H1410 H 0.6841 0.21836 0.19804 0.0
H1411 H 0.67765 0.18733 0.16252 0.0
H1412 H 0.59908 0.13891 0.26998 0.0
H1413 H 0.57101 0.17944 0.27842 0.0
H1414 H 0.64134 0.2293 0.25871 0.0
C1415 C 0.70431 0.13889 0.24924 0.0
C1416 C 0.70239 0.11075 0.24664 0.0
C1417 C 0.67699 0.09833 0.24787 0.0
C1418 C 0.65368 0.11366 0.25312 0.0
C1419 C 0.65615 0.1414 0.25562 0.0
C1420 C 0.68074 0.15397 0.25265 0.0
C1421 C 0.67763 0.18414 0.25308 0.0
C1422 C 0.69171 0.19649 0.30357 0.0
C1423 C 0.68789 0.19646 0.19874 0.0
C1424 C 0.64749 0.18653 0.25771 0.0
C1425 C 0.63557 0.1616 0.25997 0.0
C1426 C 0.60811 0.15855 0.2674 0.0
C1427 C 0.59237 0.1816 0.2723 0.0
C1428 C 0.60407 0.2073 0.26844 0.0
C1429 C 0.63194 0.2098 0.26078 0.0
H1430 H 0.8284 0.60107 0.20215 0.0
H1431 H 0.77243 0.62975 0.32619 0.0
H1432 H 0.79861 0.67118 0.33572 0.0
H1433 H 0.88769 0.62709 0.26575 0.0
H1434 H 0.9034 0.63633 0.20138 0.0
H1435 H 0.88007 0.60889 0.20329 0.0
H1436 H 0.85169 0.63161 0.12681 0.0
H1437 H 0.87496 0.65911 0.12461 0.0
H1438 H 0.83997 0.66535 0.13691 0.0
H1439 H 0.83114 0.70889 0.33403 0.0
H1440 H 0.86764 0.74125 0.31941 0.0
H1441 H 0.90242 0.68886 0.19539 0.0
C1442 C 0.82161 0.61608 0.2312 0.0
C1443 C 0.79834 0.61209 0.26342 0.0
C1444 C 0.79014 0.63229 0.30094 0.0
C1445 C 0.80489 0.65593 0.30673 0.0
C1446 C 0.82775 0.65918 0.27459 0.0
C1447 C 0.83606 0.63992 0.23738 0.0
C1448 C 0.86145 0.6485 0.208 0.0
C1449 C 0.88451 0.62904 0.22037 0.0
C1450 C 0.85672 0.65131 0.14537 0.0
C1451 C 0.86615 0.6755 0.23483 0.0
C1452 C 0.84647 0.6812 0.27316 0.0
C1453 C 0.84664 0.70471 0.304 0.0
C1454 C 0.86752 0.72293 0.29548 0.0
C1455 C 0.8879 0.71759 0.25627 0.0
C1456 C 0.88708 0.69356 0.22548 0.0
H1457 H 0.3262 0.89962 0.26935 0.0
H1458 H 0.26278 0.87185 0.16074 0.0
H1459 H 0.28548 0.82834 0.15171 0.0
H1460 H 0.38003 0.86797 0.19717 0.0
H1461 H 0.39838 0.85947 0.25895 0.0
H1462 H 0.37681 0.88831 0.25842 0.0
H1463 H 0.35119 0.86966 0.34331 0.0
H1464 H 0.37273 0.84078 0.34416 0.0
H1465 H 0.33698 0.83654 0.34018 0.0
H1466 H 0.31536 0.78802 0.15288 0.0
H1467 H 0.35041 0.75372 0.16451 0.0
H1468 H 0.39454 0.8076 0.27197 0.0
C1469 C 0.31699 0.88436 0.24392 0.0
C1470 C 0.29266 0.88923 0.21579 0.0
C1471 C 0.2814 0.86869 0.18269 0.0
C1472 C 0.29413 0.84385 0.1773 0.0
C1473 C 0.31814 0.83977 0.20524 0.0
C1474 C 0.32947 0.85941 0.23796 0.0
C1475 C 0.35566 0.84996 0.26285 0.0
C1476 C 0.3791 0.86747 0.24315 0.0
C1477 C 0.35403 0.84919 0.32639 0.0
C1478 C 0.3573 0.82202 0.23876 0.0
C1479 C 0.33543 0.81652 0.20575 0.0
C1480 C 0.33257 0.79208 0.17869 0.0
C1481 C 0.35262 0.77273 0.1855 0.0
C1482 C 0.37528 0.77793 0.21905 0.0
C1483 C 0.3775 0.80295 0.24604 0.0
H1484 H 0.20179 0.62531 0.82339 0.0
H1485 H 0.21494 0.61437 0.64717 0.0
H1486 H 0.18245 0.65003 0.62702 0.0
H1487 H 0.1306 0.6361 0.81211 0.0
H1488 H 0.12937 0.66075 0.86646 0.0
H1489 H 0.15458 0.63503 0.8678 0.0
H1490 H 0.19161 0.67121 0.87308 0.0
H1491 H 0.16651 0.69704 0.8718 0.0
H1492 H 0.19292 0.69703 0.82104 0.0
H1493 H 0.14995 0.68743 0.6253 0.0
H1494 H 0.11625 0.72251 0.64202 0.0
H1495 H 0.12121 0.70761 0.81879 0.0
C1496 C 0.19787 0.63056 0.78066 0.0
C1497 C 0.21096 0.61719 0.73686 0.0
C1498 C 0.2051 0.62432 0.68139 0.0
C1499 C 0.18675 0.6446 0.66947 0.0
C1500 C 0.17411 0.65734 0.71342 0.0
C1501 C 0.17913 0.65048 0.76789 0.0
C1502 C 0.1619 0.66675 0.80705 0.0
C1503 C 0.14299 0.64857 0.84031 0.0
C1504 C 0.17928 0.68403 0.8455 0.0
C1505 C 0.14659 0.68384 0.76598 0.0
C1506 C 0.15422 0.67824 0.71227 0.0
C1507 C 0.14361 0.6919 0.66711 0.0
C1508 C 0.12455 0.71181 0.67703 0.0
C1509 C 0.11602 0.71757 0.73158 0.0
C1510 C 0.12716 0.70334 0.7766 0.0
H1511 H 0.40067 0.17206 0.8026 0.0
H1512 H 0.37585 0.22645 0.67196 0.0
H1513 H 0.33487 0.20009 0.65827 0.0
H1514 H 0.37726 0.1122 0.73892 0.0
H1515 H 0.36581 0.09701 0.80232 0.0
H1516 H 0.39301 0.12061 0.80376 0.0
H1517 H 0.3673 0.14955 0.875 0.0
H1518 H 0.34006 0.12595 0.87396 0.0
H1519 H 0.3339 0.16074 0.85908 0.0
H1520 H 0.29765 0.16713 0.65533 0.0
H1521 H 0.26531 0.13031 0.66611 0.0
H1522 H 0.31327 0.09734 0.7997 0.0
C1523 C 0.38652 0.17854 0.77142 0.0
C1524 C 0.39157 0.20136 0.73837 0.0
C1525 C 0.37252 0.2091 0.69791 0.0
C1526 C 0.34913 0.19424 0.68972 0.0
C1527 C 0.34491 0.17174 0.72248 0.0
C1528 C 0.36292 0.16397 0.7628 0.0
C1529 C 0.35353 0.13876 0.79187 0.0
C1530 C 0.3736 0.11579 0.7837 0.0
C1531 C 0.34839 0.14408 0.85364 0.0
C1532 C 0.32763 0.13347 0.76108 0.0
C1533 C 0.32311 0.15277 0.72123 0.0
C1534 C 0.30087 0.15196 0.6866 0.0
C1535 C 0.28266 0.13089 0.69293 0.0
C1536 C 0.28674 0.11093 0.73373 0.0
C1537 C 0.30954 0.11235 0.76829 0.0
H1538 H 0.9084 0.31342 0.69902 0.0
H1539 H 0.88658 0.27114 0.84966 0.0
H1540 H 0.84704 0.2998 0.8597 0.0
H1541 H 0.88804 0.37899 0.74576 0.0
H1542 H 0.87516 0.38928 0.67939 0.0
H1543 H 0.90199 0.36531 0.68307 0.0
H1544 H 0.87407 0.33185 0.62507 0.0
H1545 H 0.84714 0.35572 0.62127 0.0
H1546 H 0.84104 0.32263 0.64813 0.0
H1547 H 0.80989 0.33226 0.85423 0.0
H1548 H 0.77725 0.36774 0.83425 0.0
H1549 H 0.82241 0.39012 0.68765 0.0
C1550 C 0.8953 0.31021 0.73408 0.0
C1551 C 0.90071 0.28997 0.77354 0.0
C1552 C 0.88303 0.28649 0.81888 0.0
C1553 C 0.86042 0.30266 0.825 0.0
C1554 C 0.85566 0.32234 0.78554 0.0
C1555 C 0.87254 0.32631 0.74101 0.0
C1556 C 0.86265 0.34915 0.70494 0.0
C1557 C 0.88318 0.37204 0.70321 0.0
C1558 C 0.85582 0.33924 0.64638 0.0
C1559 C 0.83765 0.35729 0.73632 0.0
C1560 C 0.83406 0.34145 0.78258 0.0
C1561 C 0.81247 0.34487 0.8182 0.0
C1562 C 0.79403 0.36513 0.80644 0.0
C1563 C 0.79727 0.38183 0.75948 0.0
C1564 C 0.8194 0.37774 0.72392 0.0
H1565 H 0.67169 0.89425 0.70337 0.0
H1566 H 0.72562 0.87016 0.8353 0.0
H1567 H 0.70066 0.82802 0.84607 0.0
H1568 H 0.61205 0.8679 0.76342 0.0
H1569 H 0.59801 0.85668 0.69875 0.0
H1570 H 0.62056 0.88477 0.69983 0.0
H1571 H 0.65122 0.86107 0.62867 0.0
H1572 H 0.6287 0.83294 0.62722 0.0
H1573 H 0.66352 0.82793 0.64344 0.0
H1574 H 0.66912 0.78912 0.84507 0.0
H1575 H 0.63375 0.75545 0.8303 0.0
H1576 H 0.6004 0.80428 0.69848 0.0
C1577 C 0.67837 0.88005 0.73428 0.0
C1578 C 0.70067 0.88561 0.76845 0.0
C1579 C 0.70866 0.86644 0.80848 0.0
C1580 C 0.69459 0.8424 0.81502 0.0
C1581 C 0.6726 0.83767 0.78108 0.0
C1582 C 0.66458 0.85585 0.74128 0.0
C1583 C 0.64007 0.84586 0.71056 0.0
C1584 C 0.61627 0.86494 0.71865 0.0
C1585 C 0.64626 0.8417 0.64881 0.0
C1586 C 0.63546 0.8194 0.73975 0.0
C1587 C 0.65447 0.81507 0.78025 0.0
C1588 C 0.65417 0.79223 0.81331 0.0
C1589 C 0.63394 0.77324 0.80468 0.0
C1590 C 0.61427 0.77718 0.76326 0.0
C1591 C 0.61516 0.80061 0.73041 0.0
H1592 H 0.02237 0.24358 0.41712 0.0
H1593 H 0.01278 0.16047 0.3676 0.0
H1594 H 0.9915 0.15041 0.45614 0.0
H1595 H 0.03804 0.2296 0.55984 0.0
H1596 H 0.01981 0.25764 0.58761 0.0
H1597 H 0.03369 0.25944 0.51888 0.0
H1598 H 0.9869 0.27065 0.47922 0.0
H1599 H 0.97289 0.26894 0.54788 0.0
H1600 H 0.95923 0.24855 0.49324 0.0
H1601 H 0.97294 0.14791 0.54887 0.0
H1602 H 0.95734 0.15307 0.64401 0.0
H1603 H 0.97747 0.23771 0.6389 0.0
C1604 C 0.01563 0.22334 0.42489 0.0
C1605 C 0.01941 0.20286 0.38497 0.0
C1606 C 0.01037 0.17659 0.39707 0.0
C1607 C 0.99812 0.17059 0.44742 0.0
C1608 C 0.99491 0.19099 0.4858 0.0
C1609 C 0.00331 0.21684 0.4756 0.0
C1610 C 0.99775 0.23458 0.52554 0.0
C1611 C 0.02388 0.24599 0.54937 0.0
C1612 C 0.97801 0.25701 0.51057 0.0
C1613 C 0.98512 0.21447 0.56506 0.0
C1614 C 0.98374 0.18953 0.54071 0.0
C1615 C 0.97368 0.16737 0.5684 0.0
C1616 C 0.9648 0.1706 0.62271 0.0
C1617 C 0.96584 0.19588 0.64929 0.0
C1618 C 0.97611 0.21818 0.61975 0.0
H1619 H 0.80767 0.9876 0.61864 0.0
H1620 H 0.72379 0.96802 0.64162 0.0
H1621 H 0.71418 0.98473 0.54707 0.0
H1622 H 0.79784 0.04825 0.54103 0.0
H1623 H 0.82627 0.04232 0.49686 0.0
H1624 H 0.82603 0.02941 0.56648 0.0
H1625 H 0.83463 0.98165 0.52893 0.0
H1626 H 0.83483 0.99437 0.45918 0.0
H1627 H 0.81226 0.96775 0.47798 0.0
H1628 H 0.71449 0.00265 0.44728 0.0
H1629 H 0.72432 0.02122 0.35446 0.0
H1630 H 0.80804 0.02868 0.39977 0.0
C1631 C 0.78718 0.98685 0.60423 0.0
C1632 C 0.76649 0.97637 0.63785 0.0
C1633 C 0.74001 0.97594 0.61686 0.0
C1634 C 0.73438 0.98536 0.56311 0.0
C1635 C 0.75541 0.99522 0.53096 0.0
C1636 C 0.78125 0.99611 0.55107 0.0
C1637 C 0.80047 0.00735 0.50862 0.0
C1638 C 0.8134 0.03338 0.52951 0.0
C1639 C 0.8218 0.98654 0.49274 0.0
C1640 C 0.78147 0.01265 0.46116 0.0
C1641 C 0.75556 0.00552 0.47455 0.0
C1642 C 0.73471 0.00838 0.43658 0.0
C1643 C 0.7405 0.01891 0.38386 0.0
C1644 C 0.76694 0.02655 0.36955 0.0
C1645 C 0.78757 0.02322 0.40908 0.0
H1646 H 0.02519 0.81663 0.60182 0.0
H1647 H 0.02494 0.73222 0.64432 0.0
H1648 H 0.00775 0.72157 0.55065 0.0
H1649 H 0.96484 0.81644 0.52162 0.0
H1650 H 0.97743 0.84042 0.47232 0.0
H1651 H 0.98935 0.84088 0.54265 0.0
H1652 H 0.03811 0.8367 0.50733 0.0
H1653 H 0.02632 0.83602 0.4369 0.0
H1654 H 0.04703 0.80925 0.46264 0.0
H1655 H 0.99166 0.72056 0.44944 0.0
H1656 H 0.97544 0.72964 0.3542 0.0
H1657 H 0.98637 0.81471 0.38192 0.0
C1658 C 0.02147 0.79585 0.59185 0.0
C1659 C 0.0265 0.77526 0.6306 0.0
C1660 C 0.02118 0.74838 0.61547 0.0
C1661 C 0.01153 0.74213 0.56227 0.0
C1662 C 0.0072 0.76298 0.52487 0.0
C1663 C 0.01182 0.78931 0.53939 0.0
C1664 C 0.00556 0.80821 0.49232 0.0
C1665 C 0.98295 0.82762 0.50819 0.0
C1666 C 0.03076 0.82343 0.47371 0.0
C1667 C 0.99654 0.78848 0.44884 0.0
C1668 C 0.99777 0.76244 0.46791 0.0
C1669 C 0.99056 0.7409 0.43427 0.0
C1670 C 0.9815 0.74622 0.38016 0.0
C1671 C 0.97953 0.77288 0.36057 0.0
C1672 C 0.98744 0.7941 0.39553 0.0
H1673 H 0.18866 0.01671 0.60196 0.0
H1674 H 0.27332 0.01491 0.6417 0.0
H1675 H 0.28301 0.99856 0.54683 0.0
H1676 H 0.18712 0.95795 0.51569 0.0
H1677 H 0.16308 0.97235 0.46875 0.0
H1678 H 0.16334 0.98228 0.54039 0.0
H1679 H 0.16824 0.0319 0.51074 0.0
H1680 H 0.1682 0.02211 0.43904 0.0
H1681 H 0.19556 0.04154 0.46633 0.0
H1682 H 0.28278 0.98336 0.444 0.0
H1683 H 0.27249 0.97012 0.34726 0.0
H1684 H 0.18821 0.98447 0.37873 0.0
C1685 C 0.20931 0.01276 0.59129 0.0
C1686 C 0.23023 0.01717 0.62958 0.0
C1687 C 0.2569 0.01161 0.61328 0.0
C1688 C 0.26259 0.0024 0.55939 0.0
C1689 C 0.24141 0.99887 0.52238 0.0
C1690 C 0.2153 0.00381 0.53807 0.0
C1691 C 0.19596 0.99928 0.49099 0.0
C1692 C 0.17622 0.97662 0.5048 0.0
C1693 C 0.18113 0.02525 0.47589 0.0
C1694 C 0.21519 0.99108 0.44593 0.0
C1695 C 0.24133 0.99078 0.46441 0.0
C1696 C 0.26234 0.98354 0.42931 0.0
C1697 C 0.25633 0.97612 0.37436 0.0
C1698 C 0.22953 0.97612 0.35509 0.0
C1699 C 0.20894 0.98405 0.39166 0.0
H1700 H 0.53587 0.73759 0.89248 0.0
H1701 H 0.48475 0.68018 0.80933 0.0
H1702 H 0.45546 0.67826 0.89127 0.0
H1703 H 0.53365 0.7058 0.02235 0.0
H1704 H 0.53351 0.73592 0.0633 0.0
H1705 H 0.54863 0.73597 0.99569 0.0
H1706 H 0.51818 0.77537 0.96614 0.0
H1707 H 0.50299 0.77548 0.03383 0.0
H1708 H 0.48241 0.77224 0.97292 0.0
H1709 H 0.43425 0.67903 0.98272 0.0
H1710 H 0.42223 0.68154 0.08093 0.0
H1711 H 0.48692 0.7377 0.10963 0.0
C1712 C 0.5181 0.7252 0.89138 0.0
C1713 C 0.51226 0.70923 0.84463 0.0
C1714 C 0.48939 0.6926 0.84483 0.0
C1715 C 0.47261 0.69147 0.89103 0.0
C1716 C 0.4791 0.70695 0.937 0.0
C1717 C 0.50126 0.72349 0.93788 0.0
C1718 C 0.50479 0.73604 0.99478 0.0
C1719 C 0.53174 0.72794 0.02054 0.0
C1720 C 0.50192 0.7666 0.99172 0.0
C1721 C 0.48148 0.7235 0.02577 0.0
C1722 C 0.46686 0.70705 0.99114 0.0
C1723 C 0.44535 0.69203 0.01017 0.0
C1724 C 0.43877 0.69347 0.06628 0.0
C1725 C 0.45359 0.70975 0.10313 0.0
C1726 C 0.47497 0.72538 0.0823 0.0
H1727 H 0.31098 0.51917 0.90059 0.0
H1728 H 0.22667 0.53447 0.87238 0.0
H1729 H 0.21649 0.51699 0.96631 0.0
H1730 H 0.30259 0.4575 0.97566 0.0
H1731 H 0.3303 0.46428 0.02128 0.0
H1732 H 0.33026 0.47762 0.95202 0.0
H1733 H 0.33662 0.52541 0.99137 0.0
H1734 H 0.33652 0.51225 0.06075 0.0
H1735 H 0.31315 0.53809 0.04155 0.0
H1736 H 0.21653 0.49919 0.06709 0.0
H1737 H 0.22634 0.48023 0.15988 0.0
H1738 H 0.31055 0.47632 0.1171 0.0
C1739 C 0.2903 0.51884 0.91381 0.0
C1740 C 0.26962 0.52834 0.87908 0.0
C1741 C 0.24285 0.52724 0.89816 0.0
C1742 C 0.23692 0.51744 0.95153 0.0
C1743 C 0.25796 0.5086 0.98495 0.0
C1744 C 0.28408 0.50899 0.96629 0.0
C1745 C 0.30325 0.49827 0.00926 0.0
C1746 C 0.31743 0.47291 0.9883 0.0
C1747 C 0.32357 0.51979 0.02676 0.0
C1748 C 0.28395 0.49191 0.05553 0.0
C1749 C 0.25791 0.49805 0.04122 0.0
C1750 C 0.23686 0.49418 0.07841 0.0
C1751 C 0.24262 0.48349 0.13111 0.0
C1752 C 0.26919 0.47662 0.14591 0.0
C1753 C 0.28997 0.48111 0.10732 0.0
H1754 H 0.51673 0.31079 0.12207 0.0
H1755 H 0.51644 0.22615 0.16234 0.0
H1756 H 0.50035 0.216 0.06748 0.0
H1757 H 0.45736 0.31068 0.03819 0.0
H1758 H 0.47053 0.33514 0.99062 0.0
H1759 H 0.48127 0.33515 0.06177 0.0
H1760 H 0.53064 0.33168 0.02984 0.0
H1761 H 0.52004 0.33149 0.95862 0.0
H1762 H 0.54055 0.30468 0.98487 0.0
H1763 H 0.4853 0.21573 0.96482 0.0
H1764 H 0.47099 0.22559 0.86855 0.0
H1765 H 0.48202 0.31038 0.90009 0.0
C1766 C 0.51324 0.29005 0.1114 0.0
C1767 C 0.51796 0.26926 0.14985 0.0
C1768 C 0.51292 0.24245 0.13373 0.0
C1769 C 0.50387 0.2365 0.07987 0.0
C1770 C 0.49985 0.25758 0.0428 0.0
C1771 C 0.50423 0.28382 0.05833 0.0
C1772 C 0.49862 0.30304 0.01152 0.0
C1773 C 0.47557 0.32212 0.02643 0.0
C1774 C 0.52397 0.31863 0.99526 0.0
C1775 C 0.49048 0.28359 0.96681 0.0
C1776 C 0.49127 0.25743 0.98516 0.0
C1777 C 0.48455 0.23619 0.95024 0.0
C1778 C 0.47652 0.24196 0.89556 0.0
C1779 C 0.47524 0.26876 0.87651 0.0
C1780 C 0.48259 0.28964 0.91293 0.0
H1781 H 0.69793 0.47433 0.88194 0.0
H1782 H 0.78291 0.47873 0.84603 0.0
H1783 H 0.79093 0.49711 0.93991 0.0
H1784 H 0.6933 0.53474 0.95986 0.0
H1785 H 0.66916 0.52111 0.00754 0.0
H1786 H 0.67073 0.50874 0.93766 0.0
H1787 H 0.67704 0.46048 0.975 0.0
H1788 H 0.67566 0.47278 0.04498 0.0
H1789 H 0.70405 0.45349 0.02227 0.0
H1790 H 0.78889 0.51533 0.0402 0.0
H1791 H 0.77672 0.53252 0.13328 0.0
H1792 H 0.69342 0.51415 0.09953 0.0
C1793 C 0.71832 0.47911 0.89339 0.0
C1794 C 0.7398 0.47497 0.85641 0.0
C1795 C 0.76609 0.48171 0.87355 0.0
C1796 C 0.77084 0.4921 0.92686 0.0
C1797 C 0.74911 0.49557 0.96244 0.0
C1798 C 0.72338 0.4893 0.94603 0.0
C1799 C 0.70328 0.49475 0.9912 0.0
C1800 C 0.68293 0.51611 0.97296 0.0
C1801 C 0.68919 0.46883 0.00943 0.0
C1802 C 0.72162 0.50519 0.03583 0.0
C1803 C 0.74801 0.50559 0.01896 0.0
C1804 C 0.76826 0.51503 0.05373 0.0
C1805 C 0.7612 0.52467 0.10659 0.0
C1806 C 0.73412 0.52479 0.12392 0.0
C1807 C 0.71434 0.51449 0.08796 0.0
loop_
_geom_bond_atom_site_label_1
_geom_bond_atom_site_label_2
_geom_bond_distance
_geom_bond_site_symmetry_2
_ccdc_geom_bond_type
Co0 O2 2.143 . S
Co0 O8 2.074 . S
Co0 O11 2.093 . S
Co0 O24 2.097 . S
Co0 N41 2.151 . S
Co0 N49 2.214 . S
Co1 O2 2.160 . S
Co1 O7 2.058 . S
Co1 O17 2.057 . S
Co1 O32 2.037 . S
Co1 N36 2.145 . S
Co1 N57 2.257 . S
O2 Co0 2.143 . S
O2 Co1 2.160 . S
C3 O4 1.278 . S
C3 O11 1.224 . S
O4 C3 1.278 . S
C5 O6 1.245 . S
C5 O17 1.232 . S
O6 C5 1.245 . S
O7 Co1 2.058 . S
O7 C33 1.269 . S
O8 Co0 2.074 . S
O8 C33 1.257 . S
H9 C34 0.930 . S
H10 C40 0.930 . S
O11 Co0 2.093 . S
O11 C3 1.224 . S
H12 C44 0.929 . S
H13 C46 0.930 . S
H14 C47 0.923 1_655 S
H15 C45 0.929 . S
H16 C48 0.928 . S
O17 Co1 2.057 . S
O17 C5 1.232 . S
H18 C37 0.929 . S
H19 C38 0.929 . S
H20 C50 0.931 . S
H21 C42 0.929 . S
H22 C51 0.910 1_655 S
H23 C43 0.931 . S
O24 Co0 2.097 . S
O24 C52 1.214 . S
H25 C53 0.928 1_556 S
H26 C54 0.929 . S
H27 C55 0.940 . S
H28 C56 0.929 . S
H29 C58 0.930 . S
H30 C35 0.930 . S
H31 C39 0.930 . S
O32 Co1 2.037 . S
O32 C52 1.234 . S
C33 O7 1.269 . S
C33 O8 1.257 . S
C34 H9 0.930 . S
C34 C37 1.388 . S
C34 C39 1.418 . S
C35 H30 0.930 . S
C35 C38 1.404 . S
C35 C39 1.353 1_455 S
N36 Co1 2.145 . S
N36 C37 1.397 1_455 S
N36 C38 1.334 . S
C37 H18 0.929 . S
C37 C34 1.388 . S
C37 N36 1.397 1_655 S
C38 H19 0.929 . S
C38 C35 1.404 . S
C38 N36 1.334 . S
C39 H31 0.930 . S
C39 C34 1.418 . S
C39 C35 1.353 1_655 S
C40 H10 0.930 . S
C40 N41 1.330 . S
C40 C42 1.446 . S
N41 Co0 2.151 . S
N41 C40 1.330 . S
N41 C45 1.418 . S
C42 H21 0.929 . S
C42 C40 1.446 . S
C42 C43 1.332 . S
C43 H23 0.931 . S
C43 C42 1.332 . S
C43 C44 1.267 . S
C44 H12 0.929 . S
C44 C43 1.267 . S
C44 C45 1.251 . S
C45 H15 0.929 . S
C45 N41 1.418 . S
C45 C44 1.251 . S
C46 H13 0.930 . S
C46 C48 1.406 . S
C46 C51 1.261 . S
C47 H14 0.923 1_455 S
C47 N49 1.325 . S
C47 C50 1.357 1_455 S
C48 H16 0.928 . S
C48 C46 1.406 . S
C48 N49 1.261 . S
N49 Co0 2.214 . S
N49 C47 1.325 . S
N49 C48 1.261 . S
C50 H20 0.931 . S
C50 C47 1.357 1_655 S
C50 C51 1.312 1_655 S
C51 H22 0.910 1_455 S
C51 C46 1.261 . S
C51 C50 1.312 1_455 S
C52 O24 1.214 . S
C52 O32 1.234 . S
C53 H25 0.928 1_554 S
C53 C56 1.391 1_554 S
C53 C58 1.391 . S
C54 H26 0.929 . S
C54 C55 1.374 1_554 S
C54 N57 1.391 . S
C55 H27 0.940 . S
C55 C54 1.374 1_556 S
C55 C56 1.398 . S
C56 H28 0.929 . S
C56 C53 1.391 1_556 S
C56 C55 1.398 . S
N57 Co1 2.257 . S
N57 C54 1.391 . S
N57 C58 1.388 . S
C58 H29 0.930 . S
C58 C53 1.391 . S
C58 N57 1.388 . S
Co59 O61 2.143 . S
Co59 O67 2.074 . S
Co59 O70 2.093 . S
Co59 O83 2.097 . S
Co59 N100 2.151 . S
Co59 N108 2.214 . S
Co60 O61 2.160 . S
Co60 O66 2.058 . S
Co60 O76 2.057 . S
Co60 O91 2.037 . S
Co60 N95 2.145 . S
Co60 N116 2.257 . S
O61 Co59 2.143 . S
O61 Co60 2.160 . S
C62 O63 1.278 . S
C62 O70 1.224 . S
O63 C62 1.278 . S
C64 O65 1.245 . S
C64 O76 1.232 . S
O65 C64 1.245 . S
O66 Co60 2.058 . S
O66 C92 1.269 . S
O67 Co59 2.074 . S
O67 C92 1.257 . S
H68 C93 0.930 . S
H69 C99 0.930 . S
O70 Co59 2.093 . S
O70 C62 1.224 . S
H71 C103 0.929 . S
H72 C105 0.930 . S
H73 C106 0.923 1_565 S
H74 C104 0.929 . S
H75 C107 0.928 . S
O76 Co60 2.057 . S
O76 C64 1.232 . S
H77 C96 0.929 . S
H78 C97 0.929 . S
H79 C109 0.931 . S
H80 C101 0.929 . S
H81 C110 0.910 1_565 S
H82 C102 0.931 . S
O83 Co59 2.097 . S
O83 C111 1.214 . S
H84 C112 0.928 1_556 S
H85 C113 0.929 . S
H86 C114 0.940 . S
H87 C115 0.929 . S
H88 C117 0.930 . S
H89 C94 0.930 . S
H90 C98 0.930 . S
O91 Co60 2.037 . S
O91 C111 1.234 . S
C92 O66 1.269 . S
C92 O67 1.257 . S
C93 H68 0.930 . S
C93 C96 1.388 . S
C93 C98 1.418 . S
C94 H89 0.930 . S
C94 C97 1.404 . S
C94 C98 1.353 1_545 S
N95 Co60 2.145 . S
N95 C96 1.397 1_545 S
N95 C97 1.334 . S
C96 H77 0.929 . S
C96 C93 1.388 . S
C96 N95 1.397 1_565 S
C97 H78 0.929 . S
C97 C94 1.404 . S
C97 N95 1.334 . S
C98 H90 0.930 . S
C98 C93 1.418 . S
C98 C94 1.353 1_565 S
C99 H69 0.930 . S
C99 N100 1.330 . S
C99 C101 1.446 . S
N100 Co59 2.151 . S
N100 C99 1.330 . S
N100 C104 1.418 . S
C101 H80 0.929 . S
C101 C99 1.446 . S
C101 C102 1.332 . S
C102 H82 0.931 . S
C102 C101 1.332 . S
C102 C103 1.267 . S
C103 H71 0.929 . S
C103 C102 1.267 . S
C103 C104 1.251 . S
C104 H74 0.929 . S
C104 N100 1.418 . S
C104 C103 1.251 . S
C105 H72 0.930 . S
C105 C107 1.406 . S
C105 C110 1.261 . S
C106 H73 0.923 1_545 S
C106 N108 1.325 . S
C106 C109 1.357 1_545 S
C107 H75 0.928 . S
C107 C105 1.406 . S
C107 N108 1.261 . S
N108 Co59 2.214 . S
N108 C106 1.325 . S
N108 C107 1.261 . S
C109 H79 0.931 . S
C109 C106 1.357 1_565 S
C109 C110 1.312 1_565 S
C110 H81 0.910 1_545 S
C110 C105 1.261 . S
C110 C109 1.312 1_545 S
C111 O83 1.214 . S
C111 O91 1.234 . S
C112 H84 0.928 1_554 S
C112 C115 1.391 1_554 S
C112 C117 1.391 . S
C113 H85 0.929 . S
C113 C114 1.374 1_554 S
C113 N116 1.391 . S
C114 H86 0.940 . S
C114 C113 1.374 1_556 S
C114 C115 1.398 . S
C115 H87 0.929 . S
C115 C112 1.391 1_556 S
C115 C114 1.398 . S
N116 Co60 2.257 . S
N116 C113 1.391 . S
N116 C117 1.388 . S
C117 H88 0.930 . S
C117 C112 1.391 . S
C117 N116 1.388 . S
Co118 O120 2.143 . S
Co118 O126 2.074 . S
Co118 O129 2.093 . S
Co118 O142 2.097 . S
Co118 N159 2.151 . S
Co118 N167 2.214 . S
Co119 O120 2.160 . S
Co119 O125 2.058 . S
Co119 O135 2.057 . S
Co119 O150 2.037 . S
Co119 N154 2.145 . S
Co119 N175 2.257 . S
O120 Co118 2.143 . S
O120 Co119 2.160 . S
C121 O122 1.278 . S
C121 O129 1.224 . S
O122 C121 1.278 . S
C123 O124 1.245 . S
C123 O135 1.232 . S
O124 C123 1.245 . S
O125 Co119 2.058 . S
O125 C151 1.269 . S
O126 Co118 2.074 . S
O126 C151 1.257 . S
H127 C152 0.930 . S
H128 C158 0.930 . S
O129 Co118 2.093 . S
O129 C121 1.224 . S
H130 C162 0.929 . S
H131 C164 0.930 . S
H132 C165 0.923 1_455 S
H133 C163 0.929 . S
H134 C166 0.928 . S
O135 Co119 2.057 . S
O135 C123 1.232 . S
H136 C155 0.929 . S
H137 C156 0.929 . S
H138 C168 0.931 . S
H139 C160 0.929 . S
H140 C169 0.910 1_455 S
H141 C161 0.931 . S
O142 Co118 2.097 . S
O142 C170 1.214 . S
H143 C171 0.928 1_556 S
H144 C172 0.929 . S
H145 C173 0.940 . S
H146 C174 0.929 . S
H147 C176 0.930 . S
H148 C153 0.930 . S
H149 C157 0.930 . S
O150 Co119 2.037 . S
O150 C170 1.234 . S
C151 O125 1.269 . S
C151 O126 1.257 . S
C152 H127 0.930 . S
C152 C155 1.388 . S
C152 C157 1.418 . S
C153 H148 0.930 . S
C153 C156 1.404 . S
C153 C157 1.353 1_655 S
N154 Co119 2.145 . S
N154 C155 1.397 1_655 S
N154 C156 1.334 . S
C155 H136 0.929 . S
C155 C152 1.388 . S
C155 N154 1.397 1_455 S
C156 H137 0.929 . S
C156 C153 1.404 . S
C156 N154 1.334 . S
C157 H149 0.930 . S
C157 C152 1.418 . S
C157 C153 1.353 1_455 S
C158 H128 0.930 . S
C158 N159 1.330 . S
C158 C160 1.446 . S
N159 Co118 2.151 . S
N159 C158 1.330 . S
N159 C163 1.418 . S
C160 H139 0.929 . S
C160 C158 1.446 . S
C160 C161 1.332 . S
C161 H141 0.931 . S
C161 C160 1.332 . S
C161 C162 1.267 . S
C162 H130 0.929 . S
C162 C161 1.267 . S
C162 C163 1.251 . S
C163 H133 0.929 . S
C163 N159 1.418 . S
C163 C162 1.251 . S
C164 H131 0.930 . S
C164 C166 1.406 . S
C164 C169 1.261 . S
C165 H132 0.923 1_655 S
C165 N167 1.325 . S
C165 C168 1.357 1_655 S
C166 H134 0.928 . S
C166 C164 1.406 . S
C166 N167 1.261 . S
N167 Co118 2.214 . S
N167 C165 1.325 . S
N167 C166 1.261 . S
C168 H138 0.931 . S
C168 C165 1.357 1_455 S
C168 C169 1.312 1_455 S
C169 H140 0.910 1_655 S
C169 C164 1.261 . S
C169 C168 1.312 1_655 S
C170 O142 1.214 . S
C170 O150 1.234 . S
C171 H143 0.928 1_554 S
C171 C174 1.391 1_554 S
C171 C176 1.391 . S
C172 H144 0.929 . S
C172 C173 1.374 1_554 S
C172 N175 1.391 . S
C173 H145 0.940 . S
C173 C172 1.374 1_556 S
C173 C174 1.398 . S
C174 H146 0.929 . S
C174 C171 1.391 1_556 S
C174 C173 1.398 . S
N175 Co119 2.257 . S
N175 C172 1.391 . S
N175 C176 1.388 . S
C176 H147 0.930 . S
C176 C171 1.391 . S
C176 N175 1.388 . S
Co177 O179 2.143 . S
Co177 O185 2.074 . S
Co177 O188 2.093 . S
Co177 O201 2.097 . S
Co177 N218 2.151 . S
Co177 N226 2.214 . S
Co178 O179 2.160 . S
Co178 O184 2.058 . S
Co178 O194 2.057 . S
Co178 O209 2.037 . S
Co178 N213 2.145 . S
Co178 N234 2.257 . S
O179 Co177 2.143 . S
O179 Co178 2.160 . S
C180 O181 1.278 . S
C180 O188 1.224 . S
O181 C180 1.278 . S
C182 O183 1.245 . S
C182 O194 1.232 . S
O183 C182 1.245 . S
O184 Co178 2.058 . S
O184 C210 1.269 . S
O185 Co177 2.074 . S
O185 C210 1.257 . S
H186 C211 0.930 . S
H187 C217 0.930 . S
O188 Co177 2.093 . S
O188 C180 1.224 . S
H189 C221 0.929 . S
H190 C223 0.930 . S
H191 C224 0.923 1_545 S
H192 C222 0.929 . S
H193 C225 0.928 . S
O194 Co178 2.057 . S
O194 C182 1.232 . S
H195 C214 0.929 . S
H196 C215 0.929 . S
H197 C227 0.931 . S
H198 C219 0.929 . S
H199 C228 0.910 1_545 S
H200 C220 0.931 . S
O201 Co177 2.097 . S
O201 C229 1.214 . S
H202 C230 0.928 1_556 S
H203 C231 0.929 . S
H204 C232 0.940 . S
H205 C233 0.929 . S
H206 C235 0.930 . S
H207 C212 0.930 . S
H208 C216 0.930 . S
O209 Co178 2.037 . S
O209 C229 1.234 . S
C210 O184 1.269 . S
C210 O185 1.257 . S
C211 H186 0.930 . S
C211 C214 1.388 . S
C211 C216 1.418 . S
C212 H207 0.930 . S
C212 C215 1.404 . S
C212 C216 1.353 1_565 S
N213 Co178 2.145 . S
N213 C214 1.397 1_565 S
N213 C215 1.334 . S
C214 H195 0.929 . S
C214 C211 1.388 . S
C214 N213 1.397 1_545 S
C215 H196 0.929 . S
C215 C212 1.404 . S
C215 N213 1.334 . S
C216 H208 0.930 . S
C216 C211 1.418 . S
C216 C212 1.353 1_545 S
C217 H187 0.930 . S
C217 N218 1.330 . S
C217 C219 1.446 . S
N218 Co177 2.151 . S
N218 C217 1.330 . S
N218 C222 1.418 . S
C219 H198 0.929 . S
C219 C217 1.446 . S
C219 C220 1.332 . S
C220 H200 0.931 . S
C220 C219 1.332 . S
C220 C221 1.267 . S
C221 H189 0.929 . S
C221 C220 1.267 . S
C221 C222 1.251 . S
C222 H192 0.929 . S
C222 N218 1.418 . S
C222 C221 1.251 . S
C223 H190 0.930 . S
C223 C225 1.406 . S
C223 C228 1.261 . S
C224 H191 0.923 1_565 S
C224 N226 1.325 . S
C224 C227 1.357 1_565 S
C225 H193 0.928 . S
C225 C223 1.406 . S
C225 N226 1.261 . S
N226 Co177 2.214 . S
N226 C224 1.325 . S
N226 C225 1.261 . S
C227 H197 0.931 . S
C227 C224 1.357 1_545 S
C227 C228 1.312 1_545 S
C228 H199 0.910 1_565 S
C228 C223 1.261 . S
C228 C227 1.312 1_565 S
C229 O201 1.214 . S
C229 O209 1.234 . S
C230 H202 0.928 1_554 S
C230 C233 1.391 1_554 S
C230 C235 1.391 . S
C231 H203 0.929 . S
C231 C232 1.374 1_554 S
C231 N234 1.391 . S
C232 H204 0.940 . S
C232 C231 1.374 1_556 S
C232 C233 1.398 . S
C233 H205 0.929 . S
C233 C230 1.391 1_556 S
C233 C232 1.398 . S
N234 Co178 2.257 . S
N234 C231 1.391 . S
N234 C235 1.388 . S
C235 H206 0.930 . S
C235 C230 1.391 . S
C235 N234 1.388 . S
Co236 O238 2.143 . S
Co236 O244 2.074 . S
Co236 O247 2.093 . S
Co236 O260 2.097 . S
Co236 N277 2.151 . S
Co236 N285 2.214 . S
Co237 O238 2.160 . S
Co237 O243 2.058 . S
Co237 O253 2.057 . S
Co237 O268 2.037 . S
Co237 N272 2.145 . S
Co237 N293 2.257 . S
O238 Co236 2.143 . S
O238 Co237 2.160 . S
C239 O240 1.278 . S
C239 O247 1.224 . S
O240 C239 1.278 . S
C241 O242 1.245 . S
C241 O253 1.232 . S
O242 C241 1.245 . S
O243 Co237 2.058 . S
O243 C269 1.269 . S
O244 Co236 2.074 . S
O244 C269 1.257 . S
H245 C270 0.930 . S
H246 C276 0.930 . S
O247 Co236 2.093 . S
O247 C239 1.224 . S
H248 C280 0.929 . S
H249 C282 0.930 . S
H250 C283 0.923 1_655 S
H251 C281 0.929 . S
H252 C284 0.928 . S
O253 Co237 2.057 . S
O253 C241 1.232 . S
H254 C273 0.929 . S
H255 C274 0.929 . S
H256 C286 0.931 . S
H257 C278 0.929 . S
H258 C287 0.910 1_655 S
H259 C279 0.931 . S
O260 Co236 2.097 . S
O260 C288 1.214 . S
H261 C289 0.928 1_554 S
H262 C290 0.929 . S
H263 C291 0.940 . S
H264 C292 0.929 . S
H265 C294 0.930 . S
H266 C271 0.930 . S
H267 C275 0.930 . S
O268 Co237 2.037 . S
O268 C288 1.234 . S
C269 O243 1.269 . S
C269 O244 1.257 . S
C270 H245 0.930 . S
C270 C273 1.388 . S
C270 C275 1.418 . S
C271 H266 0.930 . S
C271 C274 1.404 . S
C271 C275 1.353 1_455 S
N272 Co237 2.145 . S
N272 C273 1.397 1_455 S
N272 C274 1.334 . S
C273 H254 0.929 . S
C273 C270 1.388 . S
C273 N272 1.397 1_655 S
C274 H255 0.929 . S
C274 C271 1.404 . S
C274 N272 1.334 . S
C275 H267 0.930 . S
C275 C270 1.418 . S
C275 C271 1.353 1_655 S
C276 H246 0.930 . S
C276 N277 1.330 . S
C276 C278 1.446 . S
N277 Co236 2.151 . S
N277 C276 1.330 . S
N277 C281 1.418 . S
C278 H257 0.929 . S
C278 C276 1.446 . S
C278 C279 1.332 . S
C279 H259 0.931 . S
C279 C278 1.332 . S
C279 C280 1.267 . S
C280 H248 0.929 . S
C280 C279 1.267 . S
C280 C281 1.251 . S
C281 H251 0.929 . S
C281 N277 1.418 . S
C281 C280 1.251 . S
C282 H249 0.930 . S
C282 C284 1.406 . S
C282 C287 1.261 . S
C283 H250 0.923 1_455 S
C283 N285 1.325 . S
C283 C286 1.357 1_455 S
C284 H252 0.928 . S
C284 C282 1.406 . S
C284 N285 1.261 . S
N285 Co236 2.214 . S
N285 C283 1.325 . S
N285 C284 1.261 . S
C286 H256 0.931 . S
C286 C283 1.357 1_655 S
C286 C287 1.312 1_655 S
C287 H258 0.910 1_455 S
C287 C282 1.261 . S
C287 C286 1.312 1_455 S
C288 O260 1.214 . S
C288 O268 1.234 . S
C289 H261 0.928 1_556 S
C289 C292 1.391 1_556 S
C289 C294 1.391 . S
C290 H262 0.929 . S
C290 C291 1.374 1_556 S
C290 N293 1.391 . S
C291 H263 0.940 . S
C291 C290 1.374 1_554 S
C291 C292 1.398 . S
C292 H264 0.929 . S
C292 C289 1.391 1_554 S
C292 C291 1.398 . S
N293 Co237 2.257 . S
N293 C290 1.391 . S
N293 C294 1.388 . S
C294 H265 0.930 . S
C294 C289 1.391 . S
C294 N293 1.388 . S
Co295 O297 2.143 . S
Co295 O303 2.074 . S
Co295 O306 2.093 . S
Co295 O319 2.097 . S
Co295 N336 2.151 . S
Co295 N344 2.214 . S
Co296 O297 2.160 . S
Co296 O302 2.058 . S
Co296 O312 2.057 . S
Co296 O327 2.037 . S
Co296 N331 2.145 . S
Co296 N352 2.257 . S
O297 Co295 2.143 . S
O297 Co296 2.160 . S
C298 O299 1.278 . S
C298 O306 1.224 . S
O299 C298 1.278 . S
C300 O301 1.245 . S
C300 O312 1.232 . S
O301 C300 1.245 . S
O302 Co296 2.058 . S
O302 C328 1.269 . S
O303 Co295 2.074 . S
O303 C328 1.257 . S
H304 C329 0.930 . S
H305 C335 0.930 . S
O306 Co295 2.093 . S
O306 C298 1.224 . S
H307 C339 0.929 . S
H308 C341 0.930 . S
H309 C342 0.923 1_565 S
H310 C340 0.929 . S
H311 C343 0.928 . S
O312 Co296 2.057 . S
O312 C300 1.232 . S
H313 C332 0.929 . S
H314 C333 0.929 . S
H315 C345 0.931 . S
H316 C337 0.929 . S
H317 C346 0.910 1_565 S
H318 C338 0.931 . S
O319 Co295 2.097 . S
O319 C347 1.214 . S
H320 C348 0.928 1_554 S
H321 C349 0.929 . S
H322 C350 0.940 . S
H323 C351 0.929 . S
H324 C353 0.930 . S
H325 C330 0.930 . S
H326 C334 0.930 . S
O327 Co296 2.037 . S
O327 C347 1.234 . S
C328 O302 1.269 . S
C328 O303 1.257 . S
C329 H304 0.930 . S
C329 C332 1.388 . S
C329 C334 1.418 . S
C330 H325 0.930 . S
C330 C333 1.404 . S
C330 C334 1.353 1_545 S
N331 Co296 2.145 . S
N331 C332 1.397 1_545 S
N331 C333 1.334 . S
C332 H313 0.929 . S
C332 C329 1.388 . S
C332 N331 1.397 1_565 S
C333 H314 0.929 . S
C333 C330 1.404 . S
C333 N331 1.334 . S
C334 H326 0.930 . S
C334 C329 1.418 . S
C334 C330 1.353 1_565 S
C335 H305 0.930 . S
C335 N336 1.330 . S
C335 C337 1.446 . S
N336 Co295 2.151 . S
N336 C335 1.330 . S
N336 C340 1.418 . S
C337 H316 0.929 . S
C337 C335 1.446 . S
C337 C338 1.332 . S
C338 H318 0.931 . S
C338 C337 1.332 . S
C338 C339 1.267 . S
C339 H307 0.929 . S
C339 C338 1.267 . S
C339 C340 1.251 . S
C340 H310 0.929 . S
C340 N336 1.418 . S
C340 C339 1.251 . S
C341 H308 0.930 . S
C341 C343 1.406 . S
C341 C346 1.261 . S
C342 H309 0.923 1_545 S
C342 N344 1.325 . S
C342 C345 1.357 1_545 S
C343 H311 0.928 . S
C343 C341 1.406 . S
C343 N344 1.261 . S
N344 Co295 2.214 . S
N344 C342 1.325 . S
N344 C343 1.261 . S
C345 H315 0.931 . S
C345 C342 1.357 1_565 S
C345 C346 1.312 1_565 S
C346 H317 0.910 1_545 S
C346 C341 1.261 . S
C346 C345 1.312 1_545 S
C347 O319 1.214 . S
C347 O327 1.234 . S
C348 H320 0.928 1_556 S
C348 C351 1.391 1_556 S
C348 C353 1.391 . S
C349 H321 0.929 . S
C349 C350 1.374 1_556 S
C349 N352 1.391 . S
C350 H322 0.940 . S
C350 C349 1.374 1_554 S
C350 C351 1.398 . S
C351 H323 0.929 . S
C351 C348 1.391 1_554 S
C351 C350 1.398 . S
N352 Co296 2.257 . S
N352 C349 1.391 . S
N352 C353 1.388 . S
C353 H324 0.930 . S
C353 C348 1.391 . S
C353 N352 1.388 . S
Co354 O356 2.143 . S
Co354 O362 2.074 . S
Co354 O365 2.093 . S
Co354 O378 2.097 . S
Co354 N395 2.151 . S
Co354 N403 2.214 . S
Co355 O356 2.160 . S
Co355 O361 2.058 . S
Co355 O371 2.057 . S
Co355 O386 2.037 . S
Co355 N390 2.145 . S
Co355 N411 2.257 . S
O356 Co354 2.143 . S
O356 Co355 2.160 . S
C357 O358 1.278 . S
C357 O365 1.224 . S
O358 C357 1.278 . S
C359 O360 1.245 . S
C359 O371 1.232 . S
O360 C359 1.245 . S
O361 Co355 2.058 . S
O361 C387 1.269 . S
O362 Co354 2.074 . S
O362 C387 1.257 . S
H363 C388 0.930 . S
H364 C394 0.930 . S
O365 Co354 2.093 . S
O365 C357 1.224 . S
H366 C398 0.929 . S
H367 C400 0.930 . S
H368 C401 0.923 1_455 S
H369 C399 0.929 . S
H370 C402 0.928 . S
O371 Co355 2.057 . S
O371 C359 1.232 . S
H372 C391 0.929 . S
H373 C392 0.929 . S
H374 C404 0.931 . S
H375 C396 0.929 . S
H376 C405 0.910 1_455 S
H377 C397 0.931 . S
O378 Co354 2.097 . S
O378 C406 1.214 . S
H379 C407 0.928 1_554 S
H380 C408 0.929 . S
H381 C409 0.940 . S
H382 C410 0.929 . S
H383 C412 0.930 . S
H384 C389 0.930 . S
H385 C393 0.930 . S
O386 Co355 2.037 . S
O386 C406 1.234 . S
C387 O361 1.269 . S
C387 O362 1.257 . S
C388 H363 0.930 . S
C388 C391 1.388 . S
C388 C393 1.418 . S
C389 H384 0.930 . S
C389 C392 1.404 . S
C389 C393 1.353 1_655 S
N390 Co355 2.145 . S
N390 C391 1.397 1_655 S
N390 C392 1.334 . S
C391 H372 0.929 . S
C391 C388 1.388 . S
C391 N390 1.397 1_455 S
C392 H373 0.929 . S
C392 C389 1.404 . S
C392 N390 1.334 . S
C393 H385 0.930 . S
C393 C388 1.418 . S
C393 C389 1.353 1_455 S
C394 H364 0.930 . S
C394 N395 1.330 . S
C394 C396 1.446 . S
N395 Co354 2.151 . S
N395 C394 1.330 . S
N395 C399 1.418 . S
C396 H375 0.929 . S
C396 C394 1.446 . S
C396 C397 1.332 . S
C397 H377 0.931 . S
C397 C396 1.332 . S
C397 C398 1.267 . S
C398 H366 0.929 . S
C398 C397 1.267 . S
C398 C399 1.251 . S
C399 H369 0.929 . S
C399 N395 1.418 . S
C399 C398 1.251 . S
C400 H367 0.930 . S
C400 C402 1.406 . S
C400 C405 1.261 . S
C401 H368 0.923 1_655 S
C401 N403 1.325 . S
C401 C404 1.357 1_655 S
C402 H370 0.928 . S
C402 C400 1.406 . S
C402 N403 1.261 . S
N403 Co354 2.214 . S
N403 C401 1.325 . S
N403 C402 1.261 . S
C404 H374 0.931 . S
C404 C401 1.357 1_455 S
C404 C405 1.312 1_455 S
C405 H376 0.910 1_655 S
C405 C400 1.261 . S
C405 C404 1.312 1_655 S
C406 O378 1.214 . S
C406 O386 1.234 . S
C407 H379 0.928 1_556 S
C407 C410 1.391 1_556 S
C407 C412 1.391 . S
C408 H380 0.929 . S
C408 C409 1.374 1_556 S
C408 N411 1.391 . S
C409 H381 0.940 . S
C409 C408 1.374 1_554 S
C409 C410 1.398 . S
C410 H382 0.929 . S
C410 C407 1.391 1_554 S
C410 C409 1.398 . S
N411 Co355 2.257 . S
N411 C408 1.391 . S
N411 C412 1.388 . S
C412 H383 0.930 . S
C412 C407 1.391 . S
C412 N411 1.388 . S
Co413 O415 2.143 . S
Co413 O421 2.074 . S
Co413 O424 2.093 . S
Co413 O437 2.097 . S
Co413 N454 2.151 . S
Co413 N462 2.214 . S
Co414 O415 2.160 . S
Co414 O420 2.058 . S
Co414 O430 2.057 . S
Co414 O445 2.037 . S
Co414 N449 2.145 . S
Co414 N470 2.257 . S
O415 Co413 2.143 . S
O415 Co414 2.160 . S
C416 O417 1.278 . S
C416 O424 1.224 . S
O417 C416 1.278 . S
C418 O419 1.245 . S
C418 O430 1.232 . S
O419 C418 1.245 . S
O420 Co414 2.058 . S
O420 C446 1.269 . S
O421 Co413 2.074 . S
O421 C446 1.257 . S
H422 C447 0.930 . S
H423 C453 0.930 . S
O424 Co413 2.093 . S
O424 C416 1.224 . S
H425 C457 0.929 . S
H426 C459 0.930 . S
H427 C460 0.923 1_545 S
H428 C458 0.929 . S
H429 C461 0.928 . S
O430 Co414 2.057 . S
O430 C418 1.232 . S
H431 C450 0.929 . S
H432 C451 0.929 . S
H433 C463 0.931 . S
H434 C455 0.929 . S
H435 C464 0.910 1_545 S
H436 C456 0.931 . S
O437 Co413 2.097 . S
O437 C465 1.214 . S
H438 C466 0.928 1_554 S
H439 C467 0.929 . S
H440 C468 0.940 . S
H441 C469 0.929 . S
H442 C471 0.930 . S
H443 C448 0.930 . S
H444 C452 0.930 . S
O445 Co414 2.037 . S
O445 C465 1.234 . S
C446 O420 1.269 . S
C446 O421 1.257 . S
C447 H422 0.930 . S
C447 C450 1.388 . S
C447 C452 1.418 . S
C448 H443 0.930 . S
C448 C451 1.404 . S
C448 C452 1.353 1_565 S
N449 Co414 2.145 . S
N449 C450 1.397 1_565 S
N449 C451 1.334 . S
C450 H431 0.929 . S
C450 C447 1.388 . S
C450 N449 1.397 1_545 S
C451 H432 0.929 . S
C451 C448 1.404 . S
C451 N449 1.334 . S
C452 H444 0.930 . S
C452 C447 1.418 . S
C452 C448 1.353 1_545 S
C453 H423 0.930 . S
C453 N454 1.330 . S
C453 C455 1.446 . S
N454 Co413 2.151 . S
N454 C453 1.330 . S
N454 C458 1.418 . S
C455 H434 0.929 . S
C455 C453 1.446 . S
C455 C456 1.332 . S
C456 H436 0.931 . S
C456 C455 1.332 . S
C456 C457 1.267 . S
C457 H425 0.929 . S
C457 C456 1.267 . S
C457 C458 1.251 . S
C458 H428 0.929 . S
C458 N454 1.418 . S
C458 C457 1.251 . S
C459 H426 0.930 . S
C459 C461 1.406 . S
C459 C464 1.261 . S
C460 H427 0.923 1_565 S
C460 N462 1.325 . S
C460 C463 1.357 1_565 S
C461 H429 0.928 . S
C461 C459 1.406 . S
C461 N462 1.261 . S
N462 Co413 2.214 . S
N462 C460 1.325 . S
N462 C461 1.261 . S
C463 H433 0.931 . S
C463 C460 1.357 1_545 S
C463 C464 1.312 1_545 S
C464 H435 0.910 1_565 S
C464 C459 1.261 . S
C464 C463 1.312 1_565 S
C465 O437 1.214 . S
C465 O445 1.234 . S
C466 H438 0.928 1_556 S
C466 C469 1.391 1_556 S
C466 C471 1.391 . S
C467 H439 0.929 . S
C467 C468 1.374 1_556 S
C467 N470 1.391 . S
C468 H440 0.940 . S
C468 C467 1.374 1_554 S
C468 C469 1.398 . S
C469 H441 0.929 . S
C469 C466 1.391 1_554 S
C469 C468 1.398 . S
N470 Co414 2.257 . S
N470 C467 1.391 . S
N470 C471 1.388 . S
C471 H442 0.930 . S
C471 C466 1.391 . S
C471 N470 1.388 . S
Co472 O474 2.143 . S
Co472 O480 2.074 . S
Co472 O483 2.093 . S
Co472 O496 2.097 . S
Co472 N513 2.151 . S
Co472 N521 2.214 . S
Co473 O474 2.160 . S
Co473 O479 2.058 . S
Co473 O489 2.057 . S
Co473 O504 2.037 . S
Co473 N508 2.145 . S
Co473 N529 2.257 . S
O474 Co472 2.143 . S
O474 Co473 2.160 . S
C475 O476 1.278 . S
C475 O483 1.224 . S
O476 C475 1.278 . S
C477 O478 1.245 . S
C477 O489 1.232 . S
O478 C477 1.245 . S
O479 Co473 2.058 . S
O479 C505 1.269 . S
O480 Co472 2.074 . S
O480 C505 1.257 . S
H481 C506 0.930 . S
H482 C512 0.930 . S
O483 Co472 2.093 . S
O483 C475 1.224 . S
H484 C516 0.929 . S
H485 C518 0.930 . S
H486 C519 0.930 . S
H487 C517 0.929 . S
H488 C520 0.928 . S
O489 Co473 2.057 . S
O489 C477 1.232 . S
H490 C509 0.929 . S
H491 C510 0.929 . S
H492 C522 0.931 . S
H493 C514 0.929 . S
H494 C523 0.930 . S
H495 C515 0.931 . S
O496 Co472 2.097 . S
O496 C524 1.214 . S
H497 C525 0.929 . S
H498 C526 0.929 . S
H499 C527 0.930 . S
H500 C528 0.929 . S
H501 C530 0.930 . S
H502 C507 0.930 . S
H503 C511 0.930 . S
O504 Co473 2.037 . S
O504 C524 1.234 . S
C505 O479 1.269 . S
C505 O480 1.257 . S
C506 H481 0.930 . S
C506 C509 1.388 . S
C506 C511 1.418 . S
C507 H502 0.930 . S
C507 C510 1.404 . S
C507 C511 1.353 . S
N508 Co473 2.145 . S
N508 C509 1.397 . S
N508 C510 1.334 . S
C509 H490 0.929 . S
C509 C506 1.388 . S
C509 N508 1.397 . S
C510 H491 0.929 . S
C510 C507 1.404 . S
C510 N508 1.334 . S
C511 H503 0.930 . S
C511 C506 1.418 . S
C511 C507 1.353 . S
C512 H482 0.930 . S
C512 N513 1.330 . S
C512 C514 1.446 . S
N513 Co472 2.151 . S
N513 C512 1.330 . S
N513 C517 1.418 . S
C514 H493 0.929 . S
C514 C512 1.446 . S
C514 C515 1.332 . S
C515 H495 0.931 . S
C515 C514 1.332 . S
C515 C516 1.267 . S
C516 H484 0.929 . S
C516 C515 1.267 . S
C516 C517 1.251 . S
C517 H487 0.929 . S
C517 N513 1.418 . S
C517 C516 1.251 . S
C518 H485 0.930 . S
C518 C520 1.406 . S
C518 C523 1.261 . S
C519 H486 0.930 . S
C519 N521 1.325 . S
C519 C522 1.357 . S
C520 H488 0.928 . S
C520 C518 1.406 . S
C520 N521 1.261 . S
N521 Co472 2.214 . S
N521 C519 1.325 . S
N521 C520 1.261 . S
C522 H492 0.931 . S
C522 C519 1.357 . S
C522 C523 1.312 . S
C523 H494 0.930 . S
C523 C518 1.261 . S
C523 C522 1.312 . S
C524 O496 1.214 . S
C524 O504 1.234 . S
C525 H497 0.929 . S
C525 C528 1.391 . S
C525 C530 1.391 . S
C526 H498 0.929 . S
C526 C527 1.390 . S
C526 N529 1.391 . S
C527 H499 0.930 . S
C527 C526 1.390 . S
C527 C528 1.392 . S
C528 H500 0.929 . S
C528 C525 1.391 . S
C528 C527 1.392 . S
N529 Co473 2.257 . S
N529 C526 1.391 . S
N529 C530 1.388 . S
C530 H501 0.930 . S
C530 C525 1.391 . S
C530 N529 1.388 . S
Co531 O533 2.143 . S
Co531 O539 2.074 . S
Co531 O542 2.093 . S
Co531 O555 2.097 . S
Co531 N572 2.151 . S
Co531 N580 2.214 . S
Co532 O533 2.160 . S
Co532 O538 2.058 . S
Co532 O548 2.057 . S
Co532 O563 2.037 . S
Co532 N567 2.145 . S
Co532 N588 2.257 . S
O533 Co531 2.143 . S
O533 Co532 2.160 . S
C534 O535 1.278 . S
C534 O542 1.224 . S
O535 C534 1.278 . S
C536 O537 1.245 . S
C536 O548 1.232 . S
O537 C536 1.245 . S
O538 Co532 2.058 . S
O538 C564 1.269 . S
O539 Co531 2.074 . S
O539 C564 1.257 . S
H540 C565 0.930 . S
H541 C571 0.930 . S
O542 Co531 2.093 . S
O542 C534 1.224 . S
H543 C575 0.929 . S
H544 C577 0.930 . S
H545 C578 0.930 . S
H546 C576 0.929 . S
H547 C579 0.928 . S
O548 Co532 2.057 . S
O548 C536 1.232 . S
H549 C568 0.929 . S
H550 C569 0.929 . S
H551 C581 0.931 . S
H552 C573 0.929 . S
H553 C582 0.930 . S
H554 C574 0.931 . S
O555 Co531 2.097 . S
O555 C583 1.214 . S
H556 C584 0.929 . S
H557 C585 0.929 . S
H558 C586 0.930 . S
H559 C587 0.929 . S
H560 C589 0.930 . S
H561 C566 0.930 . S
H562 C570 0.930 . S
O563 Co532 2.037 . S
O563 C583 1.234 . S
C564 O538 1.269 . S
C564 O539 1.257 . S
C565 H540 0.930 . S
C565 C568 1.388 . S
C565 C570 1.418 . S
C566 H561 0.930 . S
C566 C569 1.404 . S
C566 C570 1.353 . S
N567 Co532 2.145 . S
N567 C568 1.397 . S
N567 C569 1.334 . S
C568 H549 0.929 . S
C568 C565 1.388 . S
C568 N567 1.397 . S
C569 H550 0.929 . S
C569 C566 1.404 . S
C569 N567 1.334 . S
C570 H562 0.930 . S
C570 C565 1.418 . S
C570 C566 1.353 . S
C571 H541 0.930 . S
C571 N572 1.330 . S
C571 C573 1.446 . S
N572 Co531 2.151 . S
N572 C571 1.330 . S
N572 C576 1.418 . S
C573 H552 0.929 . S
C573 C571 1.446 . S
C573 C574 1.332 . S
C574 H554 0.931 . S
C574 C573 1.332 . S
C574 C575 1.267 . S
C575 H543 0.929 . S
C575 C574 1.267 . S
C575 C576 1.251 . S
C576 H546 0.929 . S
C576 N572 1.418 . S
C576 C575 1.251 . S
C577 H544 0.930 . S
C577 C579 1.406 . S
C577 C582 1.261 . S
C578 H545 0.930 . S
C578 N580 1.325 . S
C578 C581 1.357 . S
C579 H547 0.928 . S
C579 C577 1.406 . S
C579 N580 1.261 . S
N580 Co531 2.214 . S
N580 C578 1.325 . S
N580 C579 1.261 . S
C581 H551 0.931 . S
C581 C578 1.357 . S
C581 C582 1.312 . S
C582 H553 0.930 . S
C582 C577 1.261 . S
C582 C581 1.312 . S
C583 O555 1.214 . S
C583 O563 1.234 . S
C584 H556 0.929 . S
C584 C587 1.391 . S
C584 C589 1.391 . S
C585 H557 0.929 . S
C585 C586 1.390 . S
C585 N588 1.391 . S
C586 H558 0.930 . S
C586 C585 1.390 . S
C586 C587 1.392 . S
C587 H559 0.929 . S
C587 C584 1.391 . S
C587 C586 1.392 . S
N588 Co532 2.257 . S
N588 C585 1.391 . S
N588 C589 1.388 . S
C589 H560 0.930 . S
C589 C584 1.391 . S
C589 N588 1.388 . S
Co590 O592 2.143 . S
Co590 O598 2.074 . S
Co590 O601 2.093 . S
Co590 O614 2.097 . S
Co590 N631 2.151 . S
Co590 N639 2.214 . S
Co591 O592 2.160 . S
Co591 O597 2.058 . S
Co591 O607 2.057 . S
Co591 O622 2.037 . S
Co591 N626 2.145 . S
Co591 N647 2.257 . S
O592 Co590 2.143 . S
O592 Co591 2.160 . S
C593 O594 1.278 . S
C593 O601 1.224 . S
O594 C593 1.278 . S
C595 O596 1.245 . S
C595 O607 1.232 . S
O596 C595 1.245 . S
O597 Co591 2.058 . S
O597 C623 1.269 . S
O598 Co590 2.074 . S
O598 C623 1.257 . S
H599 C624 0.930 . S
H600 C630 0.930 . S
O601 Co590 2.093 . S
O601 C593 1.224 . S
H602 C634 0.929 . S
H603 C636 0.930 . S
H604 C637 0.930 . S
H605 C635 0.929 . S
H606 C638 0.928 . S
O607 Co591 2.057 . S
O607 C595 1.232 . S
H608 C627 0.929 . S
H609 C628 0.929 . S
H610 C640 0.931 . S
H611 C632 0.929 . S
H612 C641 0.930 . S
H613 C633 0.931 . S
O614 Co590 2.097 . S
O614 C642 1.214 . S
H615 C643 0.929 . S
H616 C644 0.929 . S
H617 C645 0.930 . S
H618 C646 0.929 . S
H619 C648 0.930 . S
H620 C625 0.930 . S
H621 C629 0.930 . S
O622 Co591 2.037 . S
O622 C642 1.234 . S
C623 O597 1.269 . S
C623 O598 1.257 . S
C624 H599 0.930 . S
C624 C627 1.388 . S
C624 C629 1.418 . S
C625 H620 0.930 . S
C625 C628 1.404 . S
C625 C629 1.353 . S
N626 Co591 2.145 . S
N626 C627 1.397 . S
N626 C628 1.334 . S
C627 H608 0.929 . S
C627 C624 1.388 . S
C627 N626 1.397 . S
C628 H609 0.929 . S
C628 C625 1.404 . S
C628 N626 1.334 . S
C629 H621 0.930 . S
C629 C624 1.418 . S
C629 C625 1.353 . S
C630 H600 0.930 . S
C630 N631 1.330 . S
C630 C632 1.446 . S
N631 Co590 2.151 . S
N631 C630 1.330 . S
N631 C635 1.418 . S
C632 H611 0.929 . S
C632 C630 1.446 . S
C632 C633 1.332 . S
C633 H613 0.931 . S
C633 C632 1.332 . S
C633 C634 1.267 . S
C634 H602 0.929 . S
C634 C633 1.267 . S
C634 C635 1.251 . S
C635 H605 0.929 . S
C635 N631 1.418 . S
C635 C634 1.251 . S
C636 H603 0.930 . S
C636 C638 1.406 . S
C636 C641 1.261 . S
C637 H604 0.930 . S
C637 N639 1.325 . S
C637 C640 1.357 . S
C638 H606 0.928 . S
C638 C636 1.406 . S
C638 N639 1.261 . S
N639 Co590 2.214 . S
N639 C637 1.325 . S
N639 C638 1.261 . S
C640 H610 0.931 . S
C640 C637 1.357 . S
C640 C641 1.312 . S
C641 H612 0.930 . S
C641 C636 1.261 . S
C641 C640 1.312 . S
C642 O614 1.214 . S
C642 O622 1.234 . S
C643 H615 0.929 . S
C643 C646 1.391 . S
C643 C648 1.391 . S
C644 H616 0.929 . S
C644 C645 1.390 . S
C644 N647 1.391 . S
C645 H617 0.930 . S
C645 C644 1.390 . S
C645 C646 1.392 . S
C646 H618 0.929 . S
C646 C643 1.391 . S
C646 C645 1.392 . S
N647 Co591 2.257 . S
N647 C644 1.391 . S
N647 C648 1.388 . S
C648 H619 0.930 . S
C648 C643 1.391 . S
C648 N647 1.388 . S
Co649 O651 2.143 . S
Co649 O657 2.074 . S
Co649 O660 2.093 . S
Co649 O673 2.097 . S
Co649 N690 2.151 . S
Co649 N698 2.214 . S
Co650 O651 2.160 . S
Co650 O656 2.058 . S
Co650 O666 2.057 . S
Co650 O681 2.037 . S
Co650 N685 2.145 . S
Co650 N706 2.257 . S
O651 Co649 2.143 . S
O651 Co650 2.160 . S
C652 O653 1.278 . S
C652 O660 1.224 . S
O653 C652 1.278 . S
C654 O655 1.245 . S
C654 O666 1.232 . S
O655 C654 1.245 . S
O656 Co650 2.058 . S
O656 C682 1.269 . S
O657 Co649 2.074 . S
O657 C682 1.257 . S
H658 C683 0.930 . S
H659 C689 0.930 . S
O660 Co649 2.093 . S
O660 C652 1.224 . S
H661 C693 0.929 . S
H662 C695 0.930 . S
H663 C696 0.930 . S
H664 C694 0.929 . S
H665 C697 0.928 . S
O666 Co650 2.057 . S
O666 C654 1.232 . S
H667 C686 0.929 . S
H668 C687 0.929 . S
H669 C699 0.931 . S
H670 C691 0.929 . S
H671 C700 0.930 . S
H672 C692 0.931 . S
O673 Co649 2.097 . S
O673 C701 1.214 . S
H674 C702 0.929 . S
H675 C703 0.929 . S
H676 C704 0.930 . S
H677 C705 0.929 . S
H678 C707 0.930 . S
H679 C684 0.930 . S
H680 C688 0.930 . S
O681 Co650 2.037 . S
O681 C701 1.234 . S
C682 O656 1.269 . S
C682 O657 1.257 . S
C683 H658 0.930 . S
C683 C686 1.388 . S
C683 C688 1.418 . S
C684 H679 0.930 . S
C684 C687 1.404 . S
C684 C688 1.353 . S
N685 Co650 2.145 . S
N685 C686 1.397 . S
N685 C687 1.334 . S
C686 H667 0.929 . S
C686 C683 1.388 . S
C686 N685 1.397 . S
C687 H668 0.929 . S
C687 C684 1.404 . S
C687 N685 1.334 . S
C688 H680 0.930 . S
C688 C683 1.418 . S
C688 C684 1.353 . S
C689 H659 0.930 . S
C689 N690 1.330 . S
C689 C691 1.446 . S
N690 Co649 2.151 . S
N690 C689 1.330 . S
N690 C694 1.418 . S
C691 H670 0.929 . S
C691 C689 1.446 . S
C691 C692 1.332 . S
C692 H672 0.931 . S
C692 C691 1.332 . S
C692 C693 1.267 . S
C693 H661 0.929 . S
C693 C692 1.267 . S
C693 C694 1.251 . S
C694 H664 0.929 . S
C694 N690 1.418 . S
C694 C693 1.251 . S
C695 H662 0.930 . S
C695 C697 1.406 . S
C695 C700 1.261 . S
C696 H663 0.930 . S
C696 N698 1.325 . S
C696 C699 1.357 . S
C697 H665 0.928 . S
C697 C695 1.406 . S
C697 N698 1.261 . S
N698 Co649 2.214 . S
N698 C696 1.325 . S
N698 C697 1.261 . S
C699 H669 0.931 . S
C699 C696 1.357 . S
C699 C700 1.312 . S
C700 H671 0.930 . S
C700 C695 1.261 . S
C700 C699 1.312 . S
C701 O673 1.214 . S
C701 O681 1.234 . S
C702 H674 0.929 . S
C702 C705 1.391 . S
C702 C707 1.391 . S
C703 H675 0.929 . S
C703 C704 1.390 . S
C703 N706 1.391 . S
C704 H676 0.930 . S
C704 C703 1.390 . S
C704 C705 1.392 . S
C705 H677 0.929 . S
C705 C702 1.391 . S
C705 C704 1.392 . S
N706 Co650 2.257 . S
N706 C703 1.391 . S
N706 C707 1.388 . S
C707 H678 0.930 . S
C707 C702 1.391 . S
C707 N706 1.388 . S
Co708 O710 2.143 . S
Co708 O716 2.074 . S
Co708 O719 2.093 . S
Co708 O732 2.097 . S
Co708 N749 2.151 . S
Co708 N757 2.214 . S
Co709 O710 2.160 . S
Co709 O715 2.058 . S
Co709 O725 2.057 . S
Co709 O740 2.037 . S
Co709 N744 2.145 . S
Co709 N765 2.257 . S
O710 Co708 2.143 . S
O710 Co709 2.160 . S
C711 O712 1.278 . S
C711 O719 1.224 . S
O712 C711 1.278 . S
C713 O714 1.245 . S
C713 O725 1.232 . S
O714 C713 1.245 . S
O715 Co709 2.058 . S
O715 C741 1.269 . S
O716 Co708 2.074 . S
O716 C741 1.257 . S
H717 C742 0.930 . S
H718 C748 0.930 . S
O719 Co708 2.093 . S
O719 C711 1.224 . S
H720 C752 0.929 . S
H721 C754 0.930 . S
H722 C755 0.930 . S
H723 C753 0.929 . S
H724 C756 0.928 . S
O725 Co709 2.057 . S
O725 C713 1.232 . S
H726 C745 0.929 . S
H727 C746 0.929 . S
H728 C758 0.931 . S
H729 C750 0.929 . S
H730 C759 0.930 . S
H731 C751 0.931 . S
O732 Co708 2.097 . S
O732 C760 1.214 . S
H733 C761 0.929 . S
H734 C762 0.929 . S
H735 C763 0.930 . S
H736 C764 0.929 . S
H737 C766 0.930 . S
H738 C743 0.930 . S
H739 C747 0.930 . S
O740 Co709 2.037 . S
O740 C760 1.234 . S
C741 O715 1.269 . S
C741 O716 1.257 . S
C742 H717 0.930 . S
C742 C745 1.388 . S
C742 C747 1.418 . S
C743 H738 0.930 . S
C743 C746 1.404 . S
C743 C747 1.353 . S
N744 Co709 2.145 . S
N744 C745 1.397 . S
N744 C746 1.334 . S
C745 H726 0.929 . S
C745 C742 1.388 . S
C745 N744 1.397 . S
C746 H727 0.929 . S
C746 C743 1.404 . S
C746 N744 1.334 . S
C747 H739 0.930 . S
C747 C742 1.418 . S
C747 C743 1.353 . S
C748 H718 0.930 . S
C748 N749 1.330 . S
C748 C750 1.446 . S
N749 Co708 2.151 . S
N749 C748 1.330 . S
N749 C753 1.418 . S
C750 H729 0.929 . S
C750 C748 1.446 . S
C750 C751 1.332 . S
C751 H731 0.931 . S
C751 C750 1.332 . S
C751 C752 1.267 . S
C752 H720 0.929 . S
C752 C751 1.267 . S
C752 C753 1.251 . S
C753 H723 0.929 . S
C753 N749 1.418 . S
C753 C752 1.251 . S
C754 H721 0.930 . S
C754 C756 1.406 . S
C754 C759 1.261 . S
C755 H722 0.930 . S
C755 N757 1.325 . S
C755 C758 1.357 . S
C756 H724 0.928 . S
C756 C754 1.406 . S
C756 N757 1.261 . S
N757 Co708 2.214 . S
N757 C755 1.325 . S
N757 C756 1.261 . S
C758 H728 0.931 . S
C758 C755 1.357 . S
C758 C759 1.312 . S
C759 H730 0.930 . S
C759 C754 1.261 . S
C759 C758 1.312 . S
C760 O732 1.214 . S
C760 O740 1.234 . S
C761 H733 0.929 . S
C761 C764 1.391 . S
C761 C766 1.391 . S
C762 H734 0.929 . S
C762 C763 1.390 . S
C762 N765 1.391 . S
C763 H735 0.930 . S
C763 C762 1.390 . S
C763 C764 1.392 . S
C764 H736 0.929 . S
C764 C761 1.391 . S
C764 C763 1.392 . S
N765 Co709 2.257 . S
N765 C762 1.391 . S
N765 C766 1.388 . S
C766 H737 0.930 . S
C766 C761 1.391 . S
C766 N765 1.388 . S
Co767 O769 2.143 . S
Co767 O775 2.074 . S
Co767 O778 2.093 . S
Co767 O791 2.097 . S
Co767 N808 2.151 . S
Co767 N816 2.214 . S
Co768 O769 2.160 . S
Co768 O774 2.058 . S
Co768 O784 2.057 . S
Co768 O799 2.037 . S
Co768 N803 2.145 . S
Co768 N824 2.257 . S
O769 Co767 2.143 . S
O769 Co768 2.160 . S
C770 O771 1.278 . S
C770 O778 1.224 . S
O771 C770 1.278 . S
C772 O773 1.245 . S
C772 O784 1.232 . S
O773 C772 1.245 . S
O774 Co768 2.058 . S
O774 C800 1.269 . S
O775 Co767 2.074 . S
O775 C800 1.257 . S
H776 C801 0.930 . S
H777 C807 0.930 . S
O778 Co767 2.093 . S
O778 C770 1.224 . S
H779 C811 0.929 . S
H780 C813 0.930 . S
H781 C814 0.930 . S
H782 C812 0.929 . S
H783 C815 0.928 . S
O784 Co768 2.057 . S
O784 C772 1.232 . S
H785 C804 0.929 . S
H786 C805 0.929 . S
H787 C817 0.931 . S
H788 C809 0.929 . S
H789 C818 0.930 . S
H790 C810 0.931 . S
O791 Co767 2.097 . S
O791 C819 1.214 . S
H792 C820 0.929 . S
H793 C821 0.929 . S
H794 C822 0.930 . S
H795 C823 0.929 . S
H796 C825 0.930 . S
H797 C802 0.930 . S
H798 C806 0.930 . S
O799 Co768 2.037 . S
O799 C819 1.234 . S
C800 O774 1.269 . S
C800 O775 1.257 . S
C801 H776 0.930 . S
C801 C804 1.388 . S
C801 C806 1.418 . S
C802 H797 0.930 . S
C802 C805 1.404 . S
C802 C806 1.353 . S
N803 Co768 2.145 . S
N803 C804 1.397 . S
N803 C805 1.334 . S
C804 H785 0.929 . S
C804 C801 1.388 . S
C804 N803 1.397 . S
C805 H786 0.929 . S
C805 C802 1.404 . S
C805 N803 1.334 . S
C806 H798 0.930 . S
C806 C801 1.418 . S
C806 C802 1.353 . S
C807 H777 0.930 . S
C807 N808 1.330 . S
C807 C809 1.446 . S
N808 Co767 2.151 . S
N808 C807 1.330 . S
N808 C812 1.418 . S
C809 H788 0.929 . S
C809 C807 1.446 . S
C809 C810 1.332 . S
C810 H790 0.931 . S
C810 C809 1.332 . S
C810 C811 1.267 . S
C811 H779 0.929 . S
C811 C810 1.267 . S
C811 C812 1.251 . S
C812 H782 0.929 . S
C812 N808 1.418 . S
C812 C811 1.251 . S
C813 H780 0.930 . S
C813 C815 1.406 . S
C813 C818 1.261 . S
C814 H781 0.930 . S
C814 N816 1.325 . S
C814 C817 1.357 . S
C815 H783 0.928 . S
C815 C813 1.406 . S
C815 N816 1.261 . S
N816 Co767 2.214 . S
N816 C814 1.325 . S
N816 C815 1.261 . S
C817 H787 0.931 . S
C817 C814 1.357 . S
C817 C818 1.312 . S
C818 H789 0.930 . S
C818 C813 1.261 . S
C818 C817 1.312 . S
C819 O791 1.214 . S
C819 O799 1.234 . S
C820 H792 0.929 . S
C820 C823 1.391 . S
C820 C825 1.391 . S
C821 H793 0.929 . S
C821 C822 1.390 . S
C821 N824 1.391 . S
C822 H794 0.930 . S
C822 C821 1.390 . S
C822 C823 1.392 . S
C823 H795 0.929 . S
C823 C820 1.391 . S
C823 C822 1.392 . S
N824 Co768 2.257 . S
N824 C821 1.391 . S
N824 C825 1.388 . S
C825 H796 0.930 . S
C825 C820 1.391 . S
C825 N824 1.388 . S
Co826 O828 2.143 . S
Co826 O834 2.074 . S
Co826 O837 2.093 . S
Co826 O850 2.097 . S
Co826 N867 2.151 . S
Co826 N875 2.214 . S
Co827 O828 2.160 . S
Co827 O833 2.058 . S
Co827 O843 2.057 . S
Co827 O858 2.037 . S
Co827 N862 2.145 . S
Co827 N883 2.257 . S
O828 Co826 2.143 . S
O828 Co827 2.160 . S
C829 O830 1.278 . S
C829 O837 1.224 . S
O830 C829 1.278 . S
C831 O832 1.245 . S
C831 O843 1.232 . S
O832 C831 1.245 . S
O833 Co827 2.058 . S
O833 C859 1.269 . S
O834 Co826 2.074 . S
O834 C859 1.257 . S
H835 C860 0.930 . S
H836 C866 0.930 . S
O837 Co826 2.093 . S
O837 C829 1.224 . S
H838 C870 0.929 . S
H839 C872 0.930 . S
H840 C873 0.930 . S
H841 C871 0.929 . S
H842 C874 0.928 . S
O843 Co827 2.057 . S
O843 C831 1.232 . S
H844 C863 0.929 . S
H845 C864 0.929 . S
H846 C876 0.931 . S
H847 C868 0.929 . S
H848 C877 0.930 . S
H849 C869 0.931 . S
O850 Co826 2.097 . S
O850 C878 1.214 . S
H851 C879 0.929 . S
H852 C880 0.929 . S
H853 C881 0.930 . S
H854 C882 0.929 . S
H855 C884 0.930 . S
H856 C861 0.930 . S
H857 C865 0.930 . S
O858 Co827 2.037 . S
O858 C878 1.234 . S
C859 O833 1.269 . S
C859 O834 1.257 . S
C860 H835 0.930 . S
C860 C863 1.388 . S
C860 C865 1.418 . S
C861 H856 0.930 . S
C861 C864 1.404 . S
C861 C865 1.353 . S
N862 Co827 2.145 . S
N862 C863 1.397 . S
N862 C864 1.334 . S
C863 H844 0.929 . S
C863 C860 1.388 . S
C863 N862 1.397 . S
C864 H845 0.929 . S
C864 C861 1.404 . S
C864 N862 1.334 . S
C865 H857 0.930 . S
C865 C860 1.418 . S
C865 C861 1.353 . S
C866 H836 0.930 . S
C866 N867 1.330 . S
C866 C868 1.446 . S
N867 Co826 2.151 . S
N867 C866 1.330 . S
N867 C871 1.418 . S
C868 H847 0.929 . S
C868 C866 1.446 . S
C868 C869 1.332 . S
C869 H849 0.931 . S
C869 C868 1.332 . S
C869 C870 1.267 . S
C870 H838 0.929 . S
C870 C869 1.267 . S
C870 C871 1.251 . S
C871 H841 0.929 . S
C871 N867 1.418 . S
C871 C870 1.251 . S
C872 H839 0.930 . S
C872 C874 1.406 . S
C872 C877 1.261 . S
C873 H840 0.930 . S
C873 N875 1.325 . S
C873 C876 1.357 . S
C874 H842 0.928 . S
C874 C872 1.406 . S
C874 N875 1.261 . S
N875 Co826 2.214 . S
N875 C873 1.325 . S
N875 C874 1.261 . S
C876 H846 0.931 . S
C876 C873 1.357 . S
C876 C877 1.312 . S
C877 H848 0.930 . S
C877 C872 1.261 . S
C877 C876 1.312 . S
C878 O850 1.214 . S
C878 O858 1.234 . S
C879 H851 0.929 . S
C879 C882 1.391 . S
C879 C884 1.391 . S
C880 H852 0.929 . S
C880 C881 1.390 . S
C880 N883 1.391 . S
C881 H853 0.930 . S
C881 C880 1.390 . S
C881 C882 1.392 . S
C882 H854 0.929 . S
C882 C879 1.391 . S
C882 C881 1.392 . S
N883 Co827 2.257 . S
N883 C880 1.391 . S
N883 C884 1.388 . S
C884 H855 0.930 . S
C884 C879 1.391 . S
C884 N883 1.388 . S
Co885 O887 2.143 . S
Co885 O893 2.074 . S
Co885 O896 2.093 . S
Co885 O909 2.097 . S
Co885 N926 2.151 . S
Co885 N934 2.214 . S
Co886 O887 2.160 . S
Co886 O892 2.058 . S
Co886 O902 2.057 . S
Co886 O917 2.037 . S
Co886 N921 2.145 . S
Co886 N942 2.257 . S
O887 Co885 2.143 . S
O887 Co886 2.160 . S
C888 O889 1.278 . S
C888 O896 1.224 . S
O889 C888 1.278 . S
C890 O891 1.245 . S
C890 O902 1.232 . S
O891 C890 1.245 . S
O892 Co886 2.058 . S
O892 C918 1.269 . S
O893 Co885 2.074 . S
O893 C918 1.257 . S
H894 C919 0.930 . S
H895 C925 0.930 . S
O896 Co885 2.093 . S
O896 C888 1.224 . S
H897 C929 0.929 . S
H898 C931 0.930 . S
H899 C932 0.930 . S
H900 C930 0.929 . S
H901 C933 0.928 . S
O902 Co886 2.057 . S
O902 C890 1.232 . S
H903 C922 0.929 . S
H904 C923 0.929 . S
H905 C935 0.931 . S
H906 C927 0.929 . S
H907 C936 0.930 . S
H908 C928 0.931 . S
O909 Co885 2.097 . S
O909 C937 1.214 . S
H910 C938 0.929 . S
H911 C939 0.929 . S
H912 C940 0.930 . S
H913 C941 0.929 . S
H914 C943 0.930 . S
H915 C920 0.930 . S
H916 C924 0.930 . S
O917 Co886 2.037 . S
O917 C937 1.234 . S
C918 O892 1.269 . S
C918 O893 1.257 . S
C919 H894 0.930 . S
C919 C922 1.388 . S
C919 C924 1.418 . S
C920 H915 0.930 . S
C920 C923 1.404 . S
C920 C924 1.353 . S
N921 Co886 2.145 . S
N921 C922 1.397 . S
N921 C923 1.334 . S
C922 H903 0.929 . S
C922 C919 1.388 . S
C922 N921 1.397 . S
C923 H904 0.929 . S
C923 C920 1.404 . S
C923 N921 1.334 . S
C924 H916 0.930 . S
C924 C919 1.418 . S
C924 C920 1.353 . S
C925 H895 0.930 . S
C925 N926 1.330 . S
C925 C927 1.446 . S
N926 Co885 2.151 . S
N926 C925 1.330 . S
N926 C930 1.418 . S
C927 H906 0.929 . S
C927 C925 1.446 . S
C927 C928 1.332 . S
C928 H908 0.931 . S
C928 C927 1.332 . S
C928 C929 1.267 . S
C929 H897 0.929 . S
C929 C928 1.267 . S
C929 C930 1.251 . S
C930 H900 0.929 . S
C930 N926 1.418 . S
C930 C929 1.251 . S
C931 H898 0.930 . S
C931 C933 1.406 . S
C931 C936 1.261 . S
C932 H899 0.930 . S
C932 N934 1.325 . S
C932 C935 1.357 . S
C933 H901 0.928 . S
C933 C931 1.406 . S
C933 N934 1.261 . S
N934 Co885 2.214 . S
N934 C932 1.325 . S
N934 C933 1.261 . S
C935 H905 0.931 . S
C935 C932 1.357 . S
C935 C936 1.312 . S
C936 H907 0.930 . S
C936 C931 1.261 . S
C936 C935 1.312 . S
C937 O909 1.214 . S
C937 O917 1.234 . S
C938 H910 0.929 . S
C938 C941 1.391 . S
C938 C943 1.391 . S
C939 H911 0.929 . S
C939 C940 1.390 . S
C939 N942 1.391 . S
C940 H912 0.930 . S
C940 C939 1.390 . S
C940 C941 1.392 . S
C941 H913 0.929 . S
C941 C938 1.391 . S
C941 C940 1.392 . S
N942 Co886 2.257 . S
N942 C939 1.391 . S
N942 C943 1.388 . S
C943 H914 0.930 . S
C943 C938 1.391 . S
C943 N942 1.388 . S
H944 C956 0.930 . S
H945 C958 0.930 . S
H946 C959 0.930 . S
H947 C963 0.959 . S
H948 C963 0.959 . S
H949 C963 0.961 . S
H950 C964 0.960 . S
H951 C964 0.961 . S
H952 C964 0.959 . S
H953 C967 0.929 . S
H954 C968 0.931 . S
H955 C970 0.930 . S
C956 H944 0.930 . S
C956 C957 1.399 . S
C956 C961 1.399 . S
C957 C956 1.399 . S
C957 C958 1.376 . S
C958 H945 0.930 . S
C958 C957 1.376 . S
C958 C959 1.388 . S
C959 H946 0.930 . S
C959 C958 1.388 . S
C959 C960 1.390 . S
C960 C959 1.390 . S
C960 C961 1.394 . S
C960 C966 1.465 . S
C961 C956 1.399 . S
C961 C960 1.394 . S
C961 C962 1.516 . S
C962 C961 1.516 . S
C962 C963 1.502 . S
C962 C964 1.561 . S
C962 C965 1.526 . S
C963 H947 0.959 . S
C963 H948 0.959 . S
C963 H949 0.961 . S
C963 C962 1.502 . S
C964 H950 0.960 . S
C964 H951 0.961 . S
C964 H952 0.959 . S
C964 C962 1.561 . S
C965 C962 1.526 . S
C965 C966 1.396 . S
C965 C970 1.390 . S
C966 C960 1.465 . S
C966 C965 1.396 . S
C966 C967 1.399 . S
C967 H953 0.929 . S
C967 C966 1.399 . S
C967 C968 1.385 . S
C968 H954 0.931 . S
C968 C967 1.385 . S
C968 C969 1.389 . S
C969 C968 1.389 . S
C969 C970 1.387 . S
C970 H955 0.930 . S
C970 C965 1.390 . S
C970 C969 1.387 . S
H971 C983 0.930 . S
H972 C985 0.930 . S
H973 C986 0.930 . S
H974 C990 0.959 . S
H975 C990 0.959 . S
H976 C990 0.961 . S
H977 C991 0.960 . S
H978 C991 0.961 . S
H979 C991 0.959 . S
H980 C994 0.929 . S
H981 C995 0.931 . S
H982 C997 0.930 . S
C983 H971 0.930 . S
C983 C984 1.399 . S
C983 C988 1.399 . S
C984 C983 1.399 . S
C984 C985 1.376 . S
C985 H972 0.930 . S
C985 C984 1.376 . S
C985 C986 1.388 . S
C986 H973 0.930 . S
C986 C985 1.388 . S
C986 C987 1.390 . S
C987 C986 1.390 . S
C987 C988 1.394 . S
C987 C993 1.465 . S
C988 C983 1.399 . S
C988 C987 1.394 . S
C988 C989 1.516 . S
C989 C988 1.516 . S
C989 C990 1.502 . S
C989 C991 1.561 . S
C989 C992 1.526 . S
C990 H974 0.959 . S
C990 H975 0.959 . S
C990 H976 0.961 . S
C990 C989 1.502 . S
C991 H977 0.960 . S
C991 H978 0.961 . S
C991 H979 0.959 . S
C991 C989 1.561 . S
C992 C989 1.526 . S
C992 C993 1.396 . S
C992 C997 1.390 . S
C993 C987 1.465 . S
C993 C992 1.396 . S
C993 C994 1.399 . S
C994 H980 0.929 . S
C994 C993 1.399 . S
C994 C995 1.385 . S
C995 H981 0.931 . S
C995 C994 1.385 . S
C995 C996 1.389 . S
C996 C995 1.389 . S
C996 C997 1.387 . S
C997 H982 0.930 . S
C997 C992 1.390 . S
C997 C996 1.387 . S
H998 C1010 0.930 . S
H999 C1012 0.930 . S
H1000 C1013 0.930 . S
H1001 C1017 0.959 . S
H1002 C1017 0.959 . S
H1003 C1017 0.961 . S
H1004 C1018 0.960 . S
H1005 C1018 0.961 . S
H1006 C1018 0.959 . S
H1007 C1021 0.929 . S
H1008 C1022 0.931 . S
H1009 C1024 0.930 . S
C1010 H998 0.930 . S
C1010 C1011 1.399 . S
C1010 C1015 1.399 . S
C1011 C1010 1.399 . S
C1011 C1012 1.376 . S
C1012 H999 0.930 . S
C1012 C1011 1.376 . S
C1012 C1013 1.388 . S
C1013 H1000 0.930 . S
C1013 C1012 1.388 . S
C1013 C1014 1.390 . S
C1014 C1013 1.390 . S
C1014 C1015 1.394 . S
C1014 C1020 1.465 . S
C1015 C1010 1.399 . S
C1015 C1014 1.394 . S
C1015 C1016 1.516 . S
C1016 C1015 1.516 . S
C1016 C1017 1.502 . S
C1016 C1018 1.561 . S
C1016 C1019 1.526 . S
C1017 H1001 0.959 . S
C1017 H1002 0.959 . S
C1017 H1003 0.961 . S
C1017 C1016 1.502 . S
C1018 H1004 0.960 . S
C1018 H1005 0.961 . S
C1018 H1006 0.959 . S
C1018 C1016 1.561 . S
C1019 C1016 1.526 . S
C1019 C1020 1.396 . S
C1019 C1024 1.390 . S
C1020 C1014 1.465 . S
C1020 C1019 1.396 . S
C1020 C1021 1.399 . S
C1021 H1007 0.929 . S
C1021 C1020 1.399 . S
C1021 C1022 1.385 . S
C1022 H1008 0.931 . S
C1022 C1021 1.385 . S
C1022 C1023 1.389 . S
C1023 C1022 1.389 . S
C1023 C1024 1.387 . S
C1024 H1009 0.930 . S
C1024 C1019 1.390 . S
C1024 C1023 1.387 . S
H1025 C1037 0.930 . S
H1026 C1039 0.930 . S
H1027 C1040 0.930 . S
H1028 C1044 0.959 . S
H1029 C1044 0.959 . S
H1030 C1044 0.961 . S
H1031 C1045 0.960 . S
H1032 C1045 0.961 . S
H1033 C1045 0.959 . S
H1034 C1048 0.929 . S
H1035 C1049 0.931 . S
H1036 C1051 0.930 . S
C1037 H1025 0.930 . S
C1037 C1038 1.399 . S
C1037 C1042 1.399 . S
C1038 C1037 1.399 . S
C1038 C1039 1.376 . S
C1039 H1026 0.930 . S
C1039 C1038 1.376 . S
C1039 C1040 1.388 . S
C1040 H1027 0.930 . S
C1040 C1039 1.388 . S
C1040 C1041 1.390 . S
C1041 C1040 1.390 . S
C1041 C1042 1.394 . S
C1041 C1047 1.465 . S
C1042 C1037 1.399 . S
C1042 C1041 1.394 . S
C1042 C1043 1.516 . S
C1043 C1042 1.516 . S
C1043 C1044 1.502 . S
C1043 C1045 1.561 . S
C1043 C1046 1.526 . S
C1044 H1028 0.959 . S
C1044 H1029 0.959 . S
C1044 H1030 0.961 . S
C1044 C1043 1.502 . S
C1045 H1031 0.960 . S
C1045 H1032 0.961 . S
C1045 H1033 0.959 . S
C1045 C1043 1.561 . S
C1046 C1043 1.526 . S
C1046 C1047 1.396 . S
C1046 C1051 1.390 . S
C1047 C1041 1.465 . S
C1047 C1046 1.396 . S
C1047 C1048 1.399 . S
C1048 H1034 0.929 . S
C1048 C1047 1.399 . S
C1048 C1049 1.385 . S
C1049 H1035 0.931 . S
C1049 C1048 1.385 . S
C1049 C1050 1.389 . S
C1050 C1049 1.389 . S
C1050 C1051 1.387 . S
C1051 H1036 0.930 . S
C1051 C1046 1.390 . S
C1051 C1050 1.387 . S
H1052 C1064 0.930 . S
H1053 C1066 0.930 . S
H1054 C1067 0.930 . S
H1055 C1071 0.959 . S
H1056 C1071 0.959 . S
H1057 C1071 0.961 . S
H1058 C1072 0.960 . S
H1059 C1072 0.961 . S
H1060 C1072 0.959 . S
H1061 C1075 0.929 . S
H1062 C1076 0.931 1_545 S
H1063 C1078 0.930 . S
C1064 H1052 0.930 . S
C1064 C1065 1.399 . S
C1064 C1069 1.399 . S
C1065 C1064 1.399 . S
C1065 C1066 1.376 . S
C1066 H1053 0.930 . S
C1066 C1065 1.376 . S
C1066 C1067 1.388 . S
C1067 H1054 0.930 . S
C1067 C1066 1.388 . S
C1067 C1068 1.390 . S
C1068 C1067 1.390 . S
C1068 C1069 1.394 . S
C1068 C1074 1.465 . S
C1069 C1064 1.399 . S
C1069 C1068 1.394 . S
C1069 C1070 1.516 . S
C1070 C1069 1.516 . S
C1070 C1071 1.502 . S
C1070 C1072 1.561 . S
C1070 C1073 1.526 . S
C1071 H1055 0.959 . S
C1071 H1056 0.959 . S
C1071 H1057 0.961 . S
C1071 C1070 1.502 . S
C1072 H1058 0.960 . S
C1072 H1059 0.961 . S
C1072 H1060 0.959 . S
C1072 C1070 1.561 . S
C1073 C1070 1.526 . S
C1073 C1074 1.396 . S
C1073 C1078 1.390 . S
C1074 C1068 1.465 . S
C1074 C1073 1.396 . S
C1074 C1075 1.399 . S
C1075 H1061 0.929 . S
C1075 C1074 1.399 . S
C1075 C1076 1.385 . S
C1076 H1062 0.931 1_565 S
C1076 C1075 1.385 . S
C1076 C1077 1.389 . S
C1077 C1076 1.389 . S
C1077 C1078 1.387 . S
C1078 H1063 0.930 . S
C1078 C1073 1.390 . S
C1078 C1077 1.387 . S
H1079 C1091 0.930 . S
H1080 C1093 0.930 . S
H1081 C1094 0.930 . S
H1082 C1098 0.959 . S
H1083 C1098 0.959 . S
H1084 C1098 0.961 . S
H1085 C1099 0.960 . S
H1086 C1099 0.961 . S
H1087 C1099 0.959 . S
H1088 C1102 0.929 . S
H1089 C1103 0.931 . S
H1090 C1105 0.930 . S
C1091 H1079 0.930 . S
C1091 C1092 1.399 . S
C1091 C1096 1.399 . S
C1092 C1091 1.399 . S
C1092 C1093 1.376 . S
C1093 H1080 0.930 . S
C1093 C1092 1.376 . S
C1093 C1094 1.388 . S
C1094 H1081 0.930 . S
C1094 C1093 1.388 . S
C1094 C1095 1.390 . S
C1095 C1094 1.390 . S
C1095 C1096 1.394 . S
C1095 C1101 1.465 . S
C1096 C1091 1.399 . S
C1096 C1095 1.394 . S
C1096 C1097 1.516 . S
C1097 C1096 1.516 . S
C1097 C1098 1.502 . S
C1097 C1099 1.561 . S
C1097 C1100 1.526 . S
C1098 H1082 0.959 . S
C1098 H1083 0.959 . S
C1098 H1084 0.961 . S
C1098 C1097 1.502 . S
C1099 H1085 0.960 . S
C1099 H1086 0.961 . S
C1099 H1087 0.959 . S
C1099 C1097 1.561 . S
C1100 C1097 1.526 . S
C1100 C1101 1.396 . S
C1100 C1105 1.390 . S
C1101 C1095 1.465 . S
C1101 C1100 1.396 . S
C1101 C1102 1.399 . S
C1102 H1088 0.929 . S
C1102 C1101 1.399 . S
C1102 C1103 1.385 . S
C1103 H1089 0.931 . S
C1103 C1102 1.385 . S
C1103 C1104 1.389 . S
C1104 C1103 1.389 . S
C1104 C1105 1.387 . S
C1105 H1090 0.930 . S
C1105 C1100 1.390 . S
C1105 C1104 1.387 . S
H1106 C1118 0.930 . S
H1107 C1120 0.930 . S
H1108 C1121 0.930 . S
H1109 C1125 0.959 . S
H1110 C1125 0.959 . S
H1111 C1125 0.961 . S
H1112 C1126 0.960 . S
H1113 C1126 0.961 . S
H1114 C1126 0.959 . S
H1115 C1129 0.929 . S
H1116 C1130 0.931 . S
H1117 C1132 0.930 . S
C1118 H1106 0.930 . S
C1118 C1119 1.399 . S
C1118 C1123 1.399 . S
C1119 C1118 1.399 . S
C1119 C1120 1.376 . S
C1120 H1107 0.930 . S
C1120 C1119 1.376 . S
C1120 C1121 1.388 . S
C1121 H1108 0.930 . S
C1121 C1120 1.388 . S
C1121 C1122 1.390 . S
C1122 C1121 1.390 . S
C1122 C1123 1.394 . S
C1122 C1128 1.465 . S
C1123 C1118 1.399 . S
C1123 C1122 1.394 . S
C1123 C1124 1.516 . S
C1124 C1123 1.516 . S
C1124 C1125 1.502 . S
C1124 C1126 1.561 . S
C1124 C1127 1.526 . S
C1125 H1109 0.959 . S
C1125 H1110 0.959 . S
C1125 H1111 0.961 . S
C1125 C1124 1.502 . S
C1126 H1112 0.960 . S
C1126 H1113 0.961 . S
C1126 H1114 0.959 . S
C1126 C1124 1.561 . S
C1127 C1124 1.526 . S
C1127 C1128 1.396 . S
C1127 C1132 1.390 . S
C1128 C1122 1.465 . S
C1128 C1127 1.396 . S
C1128 C1129 1.399 . S
C1129 H1115 0.929 . S
C1129 C1128 1.399 . S
C1129 C1130 1.385 . S
C1130 H1116 0.931 . S
C1130 C1129 1.385 . S
C1130 C1131 1.389 . S
C1131 C1130 1.389 . S
C1131 C1132 1.387 . S
C1132 H1117 0.930 . S
C1132 C1127 1.390 . S
C1132 C1131 1.387 . S
H1133 C1145 0.930 . S
H1134 C1147 0.930 . S
H1135 C1148 0.930 . S
H1136 C1152 0.959 . S
H1137 C1152 0.959 . S
H1138 C1152 0.961 . S
H1139 C1153 0.960 . S
H1140 C1153 0.961 . S
H1141 C1153 0.959 . S
H1142 C1156 0.929 . S
H1143 C1157 0.931 . S
H1144 C1159 0.930 . S
C1145 H1133 0.930 . S
C1145 C1146 1.399 . S
C1145 C1150 1.399 . S
C1146 C1145 1.399 . S
C1146 C1147 1.376 . S
C1147 H1134 0.930 . S
C1147 C1146 1.376 . S
C1147 C1148 1.388 . S
C1148 H1135 0.930 . S
C1148 C1147 1.388 . S
C1148 C1149 1.390 . S
C1149 C1148 1.390 . S
C1149 C1150 1.394 . S
C1149 C1155 1.465 . S
C1150 C1145 1.399 . S
C1150 C1149 1.394 . S
C1150 C1151 1.516 . S
C1151 C1150 1.516 . S
C1151 C1152 1.502 . S
C1151 C1153 1.561 . S
C1151 C1154 1.526 . S
C1152 H1136 0.959 . S
C1152 H1137 0.959 . S
C1152 H1138 0.961 . S
C1152 C1151 1.502 . S
C1153 H1139 0.960 . S
C1153 H1140 0.961 . S
C1153 H1141 0.959 . S
C1153 C1151 1.561 . S
C1154 C1151 1.526 . S
C1154 C1155 1.396 . S
C1154 C1159 1.390 . S
C1155 C1149 1.465 . S
C1155 C1154 1.396 . S
C1155 C1156 1.399 . S
C1156 H1142 0.929 . S
C1156 C1155 1.399 . S
C1156 C1157 1.385 . S
C1157 H1143 0.931 . S
C1157 C1156 1.385 . S
C1157 C1158 1.389 . S
C1158 C1157 1.389 . S
C1158 C1159 1.387 . S
C1159 H1144 0.930 . S
C1159 C1154 1.390 . S
C1159 C1158 1.387 . S
H1160 C1172 0.930 . S
H1161 C1174 0.930 . S
H1162 C1175 0.930 . S
H1163 C1179 0.959 . S
H1164 C1179 0.959 . S
H1165 C1179 0.961 . S
H1166 C1180 0.960 . S
H1167 C1180 0.961 . S
H1168 C1180 0.959 . S
H1169 C1183 0.929 . S
H1170 C1184 0.931 . S
H1171 C1186 0.930 . S
C1172 H1160 0.930 . S
C1172 C1173 1.399 . S
C1172 C1177 1.399 . S
C1173 C1172 1.399 . S
C1173 C1174 1.376 . S
C1174 H1161 0.930 . S
C1174 C1173 1.376 . S
C1174 C1175 1.388 . S
C1175 H1162 0.930 . S
C1175 C1174 1.388 . S
C1175 C1176 1.390 . S
C1176 C1175 1.390 . S
C1176 C1177 1.394 . S
C1176 C1182 1.465 . S
C1177 C1172 1.399 . S
C1177 C1176 1.394 . S
C1177 C1178 1.516 . S
C1178 C1177 1.516 . S
C1178 C1179 1.502 . S
C1178 C1180 1.561 . S
C1178 C1181 1.526 . S
C1179 H1163 0.959 . S
C1179 H1164 0.959 . S
C1179 H1165 0.961 . S
C1179 C1178 1.502 . S
C1180 H1166 0.960 . S
C1180 H1167 0.961 . S
C1180 H1168 0.959 . S
C1180 C1178 1.561 . S
C1181 C1178 1.526 . S
C1181 C1182 1.396 . S
C1181 C1186 1.390 . S
C1182 C1176 1.465 . S
C1182 C1181 1.396 . S
C1182 C1183 1.399 . S
C1183 H1169 0.929 . S
C1183 C1182 1.399 . S
C1183 C1184 1.385 . S
C1184 H1170 0.931 . S
C1184 C1183 1.385 . S
C1184 C1185 1.389 . S
C1185 C1184 1.389 . S
C1185 C1186 1.387 . S
C1186 H1171 0.930 . S
C1186 C1181 1.390 . S
C1186 C1185 1.387 . S
H1187 C1199 0.930 . S
H1188 C1201 0.930 . S
H1189 C1202 0.930 . S
H1190 C1206 0.959 . S
H1191 C1206 0.959 . S
H1192 C1206 0.961 . S
H1193 C1207 0.960 . S
H1194 C1207 0.961 . S
H1195 C1207 0.959 . S
H1196 C1210 0.929 . S
H1197 C1211 0.931 . S
H1198 C1213 0.930 . S
C1199 H1187 0.930 . S
C1199 C1200 1.399 . S
C1199 C1204 1.399 . S
C1200 C1199 1.399 . S
C1200 C1201 1.376 . S
C1201 H1188 0.930 . S
C1201 C1200 1.376 . S
C1201 C1202 1.388 . S
C1202 H1189 0.930 . S
C1202 C1201 1.388 . S
C1202 C1203 1.390 . S
C1203 C1202 1.390 . S
C1203 C1204 1.394 . S
C1203 C1209 1.465 . S
C1204 C1199 1.399 . S
C1204 C1203 1.394 . S
C1204 C1205 1.516 . S
C1205 C1204 1.516 . S
C1205 C1206 1.502 . S
C1205 C1207 1.561 . S
C1205 C1208 1.526 . S
C1206 H1190 0.959 . S
C1206 H1191 0.959 . S
C1206 H1192 0.961 . S
C1206 C1205 1.502 . S
C1207 H1193 0.960 . S
C1207 H1194 0.961 . S
C1207 H1195 0.959 . S
C1207 C1205 1.561 . S
C1208 C1205 1.526 . S
C1208 C1209 1.396 . S
C1208 C1213 1.390 . S
C1209 C1203 1.465 . S
C1209 C1208 1.396 . S
C1209 C1210 1.399 . S
C1210 H1196 0.929 . S
C1210 C1209 1.399 . S
C1210 C1211 1.385 . S
C1211 H1197 0.931 . S
C1211 C1210 1.385 . S
C1211 C1212 1.389 . S
C1212 C1211 1.389 . S
C1212 C1213 1.387 . S
C1213 H1198 0.930 . S
C1213 C1208 1.390 . S
C1213 C1212 1.387 . S
H1214 C1226 0.930 . S
H1215 C1228 0.930 . S
H1216 C1229 0.930 . S
H1217 C1233 0.959 . S
H1218 C1233 0.959 . S
H1219 C1233 0.961 . S
H1220 C1234 0.960 . S
H1221 C1234 0.961 . S
H1222 C1234 0.959 . S
H1223 C1237 0.929 . S
H1224 C1238 0.931 . S
H1225 C1240 0.930 . S
C1226 H1214 0.930 . S
C1226 C1227 1.399 . S
C1226 C1231 1.399 . S
C1227 C1226 1.399 . S
C1227 C1228 1.376 . S
C1228 H1215 0.930 . S
C1228 C1227 1.376 . S
C1228 C1229 1.388 . S
C1229 H1216 0.930 . S
C1229 C1228 1.388 . S
C1229 C1230 1.390 . S
C1230 C1229 1.390 . S
C1230 C1231 1.394 . S
C1230 C1236 1.465 . S
C1231 C1226 1.399 . S
C1231 C1230 1.394 . S
C1231 C1232 1.516 . S
C1232 C1231 1.516 . S
C1232 C1233 1.502 . S
C1232 C1234 1.561 . S
C1232 C1235 1.526 . S
C1233 H1217 0.959 . S
C1233 H1218 0.959 . S
C1233 H1219 0.961 . S
C1233 C1232 1.502 . S
C1234 H1220 0.960 . S
C1234 H1221 0.961 . S
C1234 H1222 0.959 . S
C1234 C1232 1.561 . S
C1235 C1232 1.526 . S
C1235 C1236 1.396 . S
C1235 C1240 1.390 . S
C1236 C1230 1.465 . S
C1236 C1235 1.396 . S
C1236 C1237 1.399 . S
C1237 H1223 0.929 . S
C1237 C1236 1.399 . S
C1237 C1238 1.385 . S
C1238 H1224 0.931 . S
C1238 C1237 1.385 . S
C1238 C1239 1.389 . S
C1239 C1238 1.389 . S
C1239 C1240 1.387 . S
C1240 H1225 0.930 . S
C1240 C1235 1.390 . S
C1240 C1239 1.387 . S
H1241 C1253 0.930 . S
H1242 C1255 0.930 . S
H1243 C1256 0.930 . S
H1244 C1260 0.959 . S
H1245 C1260 0.959 . S
H1246 C1260 0.961 . S
H1247 C1261 0.960 . S
H1248 C1261 0.961 . S
H1249 C1261 0.959 . S
H1250 C1264 0.929 . S
H1251 C1265 0.931 . S
H1252 C1267 0.930 . S
C1253 H1241 0.930 . S
C1253 C1254 1.399 . S
C1253 C1258 1.399 . S
C1254 C1253 1.399 . S
C1254 C1255 1.376 . S
C1255 H1242 0.930 . S
C1255 C1254 1.376 . S
C1255 C1256 1.388 . S
C1256 H1243 0.930 . S
C1256 C1255 1.388 . S
C1256 C1257 1.390 . S
C1257 C1256 1.390 . S
C1257 C1258 1.394 . S
C1257 C1263 1.465 . S
C1258 C1253 1.399 . S
C1258 C1257 1.394 . S
C1258 C1259 1.516 . S
C1259 C1258 1.516 . S
C1259 C1260 1.502 . S
C1259 C1261 1.561 . S
C1259 C1262 1.526 . S
C1260 H1244 0.959 . S
C1260 H1245 0.959 . S
C1260 H1246 0.961 . S
C1260 C1259 1.502 . S
C1261 H1247 0.960 . S
C1261 H1248 0.961 . S
C1261 H1249 0.959 . S
C1261 C1259 1.561 . S
C1262 C1259 1.526 . S
C1262 C1263 1.396 . S
C1262 C1267 1.390 . S
C1263 C1257 1.465 . S
C1263 C1262 1.396 . S
C1263 C1264 1.399 . S
C1264 H1250 0.929 . S
C1264 C1263 1.399 . S
C1264 C1265 1.385 . S
C1265 H1251 0.931 . S
C1265 C1264 1.385 . S
C1265 C1266 1.389 . S
C1266 C1265 1.389 . S
C1266 C1267 1.387 . S
C1267 H1252 0.930 . S
C1267 C1262 1.390 . S
C1267 C1266 1.387 . S
H1268 C1280 0.930 . S
H1269 C1282 0.930 . S
H1270 C1283 0.930 . S
H1271 C1287 0.959 . S
H1272 C1287 0.959 . S
H1273 C1287 0.961 . S
H1274 C1288 0.960 . S
H1275 C1288 0.961 . S
H1276 C1288 0.959 . S
H1277 C1291 0.929 . S
H1278 C1292 0.931 . S
H1279 C1294 0.930 . S
C1280 H1268 0.930 . S
C1280 C1281 1.399 . S
C1280 C1285 1.399 . S
C1281 C1280 1.399 . S
C1281 C1282 1.376 . S
C1282 H1269 0.930 . S
C1282 C1281 1.376 . S
C1282 C1283 1.388 . S
C1283 H1270 0.930 . S
C1283 C1282 1.388 . S
C1283 C1284 1.390 . S
C1284 C1283 1.390 . S
C1284 C1285 1.394 . S
C1284 C1290 1.465 . S
C1285 C1280 1.399 . S
C1285 C1284 1.394 . S
C1285 C1286 1.516 . S
C1286 C1285 1.516 . S
C1286 C1287 1.502 . S
C1286 C1288 1.561 . S
C1286 C1289 1.526 . S
C1287 H1271 0.959 . S
C1287 H1272 0.959 . S
C1287 H1273 0.961 . S
C1287 C1286 1.502 . S
C1288 H1274 0.960 . S
C1288 H1275 0.961 . S
C1288 H1276 0.959 . S
C1288 C1286 1.561 . S
C1289 C1286 1.526 . S
C1289 C1290 1.396 . S
C1289 C1294 1.390 . S
C1290 C1284 1.465 . S
C1290 C1289 1.396 . S
C1290 C1291 1.399 . S
C1291 H1277 0.929 . S
C1291 C1290 1.399 . S
C1291 C1292 1.385 . S
C1292 H1278 0.931 . S
C1292 C1291 1.385 . S
C1292 C1293 1.389 . S
C1293 C1292 1.389 . S
C1293 C1294 1.387 . S
C1294 H1279 0.930 . S
C1294 C1289 1.390 . S
C1294 C1293 1.387 . S
H1295 C1307 0.930 . S
H1296 C1309 0.930 . S
H1297 C1310 0.930 . S
H1298 C1314 0.959 . S
H1299 C1314 0.959 . S
H1300 C1314 0.961 . S
H1301 C1315 0.960 . S
H1302 C1315 0.961 . S
H1303 C1315 0.959 . S
H1304 C1318 0.929 . S
H1305 C1319 0.931 . S
H1306 C1321 0.930 . S
C1307 H1295 0.930 . S
C1307 C1308 1.399 . S
C1307 C1312 1.399 . S
C1308 C1307 1.399 . S
C1308 C1309 1.376 . S
C1309 H1296 0.930 . S
C1309 C1308 1.376 . S
C1309 C1310 1.388 . S
C1310 H1297 0.930 . S
C1310 C1309 1.388 . S
C1310 C1311 1.390 . S
C1311 C1310 1.390 . S
C1311 C1312 1.394 . S
C1311 C1317 1.465 . S
C1312 C1307 1.399 . S
C1312 C1311 1.394 . S
C1312 C1313 1.516 . S
C1313 C1312 1.516 . S
C1313 C1314 1.502 . S
C1313 C1315 1.561 . S
C1313 C1316 1.526 . S
C1314 H1298 0.959 . S
C1314 H1299 0.959 . S
C1314 H1300 0.961 . S
C1314 C1313 1.502 . S
C1315 H1301 0.960 . S
C1315 H1302 0.961 . S
C1315 H1303 0.959 . S
C1315 C1313 1.561 . S
C1316 C1313 1.526 . S
C1316 C1317 1.396 . S
C1316 C1321 1.390 . S
C1317 C1311 1.465 . S
C1317 C1316 1.396 . S
C1317 C1318 1.399 . S
C1318 H1304 0.929 . S
C1318 C1317 1.399 . S
C1318 C1319 1.385 . S
C1319 H1305 0.931 . S
C1319 C1318 1.385 . S
C1319 C1320 1.389 . S
C1320 C1319 1.389 . S
C1320 C1321 1.387 . S
C1321 H1306 0.930 . S
C1321 C1316 1.390 . S
C1321 C1320 1.387 . S
H1322 C1334 0.930 . S
H1323 C1336 0.930 . S
H1324 C1337 0.930 . S
H1325 C1341 0.959 . S
H1326 C1341 0.959 . S
H1327 C1341 0.961 . S
H1328 C1342 0.960 . S
H1329 C1342 0.961 . S
H1330 C1342 0.959 . S
H1331 C1345 0.929 . S
H1332 C1346 0.931 . S
H1333 C1348 0.930 . S
C1334 H1322 0.930 . S
C1334 C1335 1.399 . S
C1334 C1339 1.399 . S
C1335 C1334 1.399 . S
C1335 C1336 1.376 . S
C1336 H1323 0.930 . S
C1336 C1335 1.376 . S
C1336 C1337 1.388 . S
C1337 H1324 0.930 . S
C1337 C1336 1.388 . S
C1337 C1338 1.390 . S
C1338 C1337 1.390 . S
C1338 C1339 1.394 . S
C1338 C1344 1.465 . S
C1339 C1334 1.399 . S
C1339 C1338 1.394 . S
C1339 C1340 1.516 . S
C1340 C1339 1.516 . S
C1340 C1341 1.502 . S
C1340 C1342 1.561 . S
C1340 C1343 1.526 . S
C1341 H1325 0.959 . S
C1341 H1326 0.959 . S
C1341 H1327 0.961 . S
C1341 C1340 1.502 . S
C1342 H1328 0.960 . S
C1342 H1329 0.961 . S
C1342 H1330 0.959 . S
C1342 C1340 1.561 . S
C1343 C1340 1.526 . S
C1343 C1344 1.396 . S
C1343 C1348 1.390 . S
C1344 C1338 1.465 . S
C1344 C1343 1.396 . S
C1344 C1345 1.399 . S
C1345 H1331 0.929 . S
C1345 C1344 1.399 . S
C1345 C1346 1.385 . S
C1346 H1332 0.931 . S
C1346 C1345 1.385 . S
C1346 C1347 1.389 . S
C1347 C1346 1.389 . S
C1347 C1348 1.387 . S
C1348 H1333 0.930 . S
C1348 C1343 1.390 . S
C1348 C1347 1.387 . S
H1349 C1361 0.930 . S
H1350 C1363 0.930 . S
H1351 C1364 0.930 . S
H1352 C1368 0.959 . S
H1353 C1368 0.959 . S
H1354 C1368 0.961 . S
H1355 C1369 0.960 . S
H1356 C1369 0.961 . S
H1357 C1369 0.959 . S
H1358 C1372 0.929 . S
H1359 C1373 0.931 . S
H1360 C1375 0.930 . S
C1361 H1349 0.930 . S
C1361 C1362 1.399 . S
C1361 C1366 1.399 . S
C1362 C1361 1.399 . S
C1362 C1363 1.376 . S
C1363 H1350 0.930 . S
C1363 C1362 1.376 . S
C1363 C1364 1.388 . S
C1364 H1351 0.930 . S
C1364 C1363 1.388 . S
C1364 C1365 1.390 . S
C1365 C1364 1.390 . S
C1365 C1366 1.394 . S
C1365 C1371 1.465 . S
C1366 C1361 1.399 . S
C1366 C1365 1.394 . S
C1366 C1367 1.516 . S
C1367 C1366 1.516 . S
C1367 C1368 1.502 . S
C1367 C1369 1.561 . S
C1367 C1370 1.526 . S
C1368 H1352 0.959 . S
C1368 H1353 0.959 . S
C1368 H1354 0.961 . S
C1368 C1367 1.502 . S
C1369 H1355 0.960 . S
C1369 H1356 0.961 . S
C1369 H1357 0.959 . S
C1369 C1367 1.561 . S
C1370 C1367 1.526 . S
C1370 C1371 1.396 . S
C1370 C1375 1.390 . S
C1371 C1365 1.465 . S
C1371 C1370 1.396 . S
C1371 C1372 1.399 . S
C1372 H1358 0.929 . S
C1372 C1371 1.399 . S
C1372 C1373 1.385 . S
C1373 H1359 0.931 . S
C1373 C1372 1.385 . S
C1373 C1374 1.389 . S
C1374 C1373 1.389 . S
C1374 C1375 1.387 . S
C1375 H1360 0.930 . S
C1375 C1370 1.390 . S
C1375 C1374 1.387 . S
H1376 C1388 0.930 . S
H1377 C1390 0.930 . S
H1378 C1391 0.930 . S
H1379 C1395 0.959 . S
H1380 C1395 0.959 . S
H1381 C1395 0.961 . S
H1382 C1396 0.960 . S
H1383 C1396 0.961 . S
H1384 C1396 0.959 . S
H1385 C1399 0.929 . S
H1386 C1400 0.931 . S
H1387 C1402 0.930 . S
C1388 H1376 0.930 . S
C1388 C1389 1.399 . S
C1388 C1393 1.399 . S
C1389 C1388 1.399 . S
C1389 C1390 1.376 . S
C1390 H1377 0.930 . S
C1390 C1389 1.376 . S
C1390 C1391 1.388 . S
C1391 H1378 0.930 . S
C1391 C1390 1.388 . S
C1391 C1392 1.390 . S
C1392 C1391 1.390 . S
C1392 C1393 1.394 . S
C1392 C1398 1.465 . S
C1393 C1388 1.399 . S
C1393 C1392 1.394 . S
C1393 C1394 1.516 . S
C1394 C1393 1.516 . S
C1394 C1395 1.502 . S
C1394 C1396 1.561 . S
C1394 C1397 1.526 . S
C1395 H1379 0.959 . S
C1395 H1380 0.959 . S
C1395 H1381 0.961 . S
C1395 C1394 1.502 . S
C1396 H1382 0.960 . S
C1396 H1383 0.961 . S
C1396 H1384 0.959 . S
C1396 C1394 1.561 . S
C1397 C1394 1.526 . S
C1397 C1398 1.396 . S
C1397 C1402 1.390 . S
C1398 C1392 1.465 . S
C1398 C1397 1.396 . S
C1398 C1399 1.399 . S
C1399 H1385 0.929 . S
C1399 C1398 1.399 . S
C1399 C1400 1.385 . S
C1400 H1386 0.931 . S
C1400 C1399 1.385 . S
C1400 C1401 1.389 . S
C1401 C1400 1.389 . S
C1401 C1402 1.387 . S
C1402 H1387 0.930 . S
C1402 C1397 1.390 . S
C1402 C1401 1.387 . S
H1403 C1415 0.930 . S
H1404 C1417 0.930 . S
H1405 C1418 0.930 . S
H1406 C1422 0.959 . S
H1407 C1422 0.959 . S
H1408 C1422 0.961 . S
H1409 C1423 0.960 . S
H1410 C1423 0.961 . S
H1411 C1423 0.959 . S
H1412 C1426 0.929 . S
H1413 C1427 0.931 . S
H1414 C1429 0.930 . S
C1415 H1403 0.930 . S
C1415 C1416 1.399 . S
C1415 C1420 1.399 . S
C1416 C1415 1.399 . S
C1416 C1417 1.376 . S
C1417 H1404 0.930 . S
C1417 C1416 1.376 . S
C1417 C1418 1.388 . S
C1418 H1405 0.930 . S
C1418 C1417 1.388 . S
C1418 C1419 1.390 . S
C1419 C1418 1.390 . S
C1419 C1420 1.394 . S
C1419 C1425 1.465 . S
C1420 C1415 1.399 . S
C1420 C1419 1.394 . S
C1420 C1421 1.516 . S
C1421 C1420 1.516 . S
C1421 C1422 1.502 . S
C1421 C1423 1.561 . S
C1421 C1424 1.526 . S
C1422 H1406 0.959 . S
C1422 H1407 0.959 . S
C1422 H1408 0.961 . S
C1422 C1421 1.502 . S
C1423 H1409 0.960 . S
C1423 H1410 0.961 . S
C1423 H1411 0.959 . S
C1423 C1421 1.561 . S
C1424 C1421 1.526 . S
C1424 C1425 1.396 . S
C1424 C1429 1.390 . S
C1425 C1419 1.465 . S
C1425 C1424 1.396 . S
C1425 C1426 1.399 . S
C1426 H1412 0.929 . S
C1426 C1425 1.399 . S
C1426 C1427 1.385 . S
C1427 H1413 0.931 . S
C1427 C1426 1.385 . S
C1427 C1428 1.389 . S
C1428 C1427 1.389 . S
C1428 C1429 1.387 . S
C1429 H1414 0.930 . S
C1429 C1424 1.390 . S
C1429 C1428 1.387 . S
H1430 C1442 0.930 . S
H1431 C1444 0.930 . S
H1432 C1445 0.930 . S
H1433 C1449 0.959 . S
H1434 C1449 0.959 . S
H1435 C1449 0.961 . S
H1436 C1450 0.960 . S
H1437 C1450 0.961 . S
H1438 C1450 0.959 . S
H1439 C1453 0.929 . S
H1440 C1454 0.931 . S
H1441 C1456 0.930 . S
C1442 H1430 0.930 . S
C1442 C1443 1.399 . S
C1442 C1447 1.399 . S
C1443 C1442 1.399 . S
C1443 C1444 1.376 . S
C1444 H1431 0.930 . S
C1444 C1443 1.376 . S
C1444 C1445 1.388 . S
C1445 H1432 0.930 . S
C1445 C1444 1.388 . S
C1445 C1446 1.390 . S
C1446 C1445 1.390 . S
C1446 C1447 1.394 . S
C1446 C1452 1.465 . S
C1447 C1442 1.399 . S
C1447 C1446 1.394 . S
C1447 C1448 1.516 . S
C1448 C1447 1.516 . S
C1448 C1449 1.502 . S
C1448 C1450 1.561 . S
C1448 C1451 1.526 . S
C1449 H1433 0.959 . S
C1449 H1434 0.959 . S
C1449 H1435 0.961 . S
C1449 C1448 1.502 . S
C1450 H1436 0.960 . S
C1450 H1437 0.961 . S
C1450 H1438 0.959 . S
C1450 C1448 1.561 . S
C1451 C1448 1.526 . S
C1451 C1452 1.396 . S
C1451 C1456 1.390 . S
C1452 C1446 1.465 . S
C1452 C1451 1.396 . S
C1452 C1453 1.399 . S
C1453 H1439 0.929 . S
C1453 C1452 1.399 . S
C1453 C1454 1.385 . S
C1454 H1440 0.931 . S
C1454 C1453 1.385 . S
C1454 C1455 1.389 . S
C1455 C1454 1.389 . S
C1455 C1456 1.387 . S
C1456 H1441 0.930 . S
C1456 C1451 1.390 . S
C1456 C1455 1.387 . S
H1457 C1469 0.930 . S
H1458 C1471 0.930 . S
H1459 C1472 0.930 . S
H1460 C1476 0.959 . S
H1461 C1476 0.959 . S
H1462 C1476 0.961 . S
H1463 C1477 0.960 . S
H1464 C1477 0.961 . S
H1465 C1477 0.959 . S
H1466 C1480 0.929 . S
H1467 C1481 0.931 . S
H1468 C1483 0.930 . S
C1469 H1457 0.930 . S
C1469 C1470 1.399 . S
C1469 C1474 1.399 . S
C1470 C1469 1.399 . S
C1470 C1471 1.376 . S
C1471 H1458 0.930 . S
C1471 C1470 1.376 . S
C1471 C1472 1.388 . S
C1472 H1459 0.930 . S
C1472 C1471 1.388 . S
C1472 C1473 1.390 . S
C1473 C1472 1.390 . S
C1473 C1474 1.394 . S
C1473 C1479 1.465 . S
C1474 C1469 1.399 . S
C1474 C1473 1.394 . S
C1474 C1475 1.516 . S
C1475 C1474 1.516 . S
C1475 C1476 1.502 . S
C1475 C1477 1.561 . S
C1475 C1478 1.526 . S
C1476 H1460 0.959 . S
C1476 H1461 0.959 . S
C1476 H1462 0.961 . S
C1476 C1475 1.502 . S
C1477 H1463 0.960 . S
C1477 H1464 0.961 . S
C1477 H1465 0.959 . S
C1477 C1475 1.561 . S
C1478 C1475 1.526 . S
C1478 C1479 1.396 . S
C1478 C1483 1.390 . S
C1479 C1473 1.465 . S
C1479 C1478 1.396 . S
C1479 C1480 1.399 . S
C1480 H1466 0.929 . S
C1480 C1479 1.399 . S
C1480 C1481 1.385 . S
C1481 H1467 0.931 . S
C1481 C1480 1.385 . S
C1481 C1482 1.389 . S
C1482 C1481 1.389 . S
C1482 C1483 1.387 . S
C1483 H1468 0.930 . S
C1483 C1478 1.390 . S
C1483 C1482 1.387 . S
H1484 C1496 0.930 . S
H1485 C1498 0.930 . S
H1486 C1499 0.930 . S
H1487 C1503 0.959 . S
H1488 C1503 0.959 . S
H1489 C1503 0.961 . S
H1490 C1504 0.960 . S
H1491 C1504 0.961 . S
H1492 C1504 0.959 . S
H1493 C1507 0.929 . S
H1494 C1508 0.931 . S
H1495 C1510 0.930 . S
C1496 H1484 0.930 . S
C1496 C1497 1.399 . S
C1496 C1501 1.399 . S
C1497 C1496 1.399 . S
C1497 C1498 1.376 . S
C1498 H1485 0.930 . S
C1498 C1497 1.376 . S
C1498 C1499 1.388 . S
C1499 H1486 0.930 . S
C1499 C1498 1.388 . S
C1499 C1500 1.390 . S
C1500 C1499 1.390 . S
C1500 C1501 1.394 . S
C1500 C1506 1.465 . S
C1501 C1496 1.399 . S
C1501 C1500 1.394 . S
C1501 C1502 1.516 . S
C1502 C1501 1.516 . S
C1502 C1503 1.502 . S
C1502 C1504 1.561 . S
C1502 C1505 1.526 . S
C1503 H1487 0.959 . S
C1503 H1488 0.959 . S
C1503 H1489 0.961 . S
C1503 C1502 1.502 . S
C1504 H1490 0.960 . S
C1504 H1491 0.961 . S
C1504 H1492 0.959 . S
C1504 C1502 1.561 . S
C1505 C1502 1.526 . S
C1505 C1506 1.396 . S
C1505 C1510 1.390 . S
C1506 C1500 1.465 . S
C1506 C1505 1.396 . S
C1506 C1507 1.399 . S
C1507 H1493 0.929 . S
C1507 C1506 1.399 . S
C1507 C1508 1.385 . S
C1508 H1494 0.931 . S
C1508 C1507 1.385 . S
C1508 C1509 1.389 . S
C1509 C1508 1.389 . S
C1509 C1510 1.387 . S
C1510 H1495 0.930 . S
C1510 C1505 1.390 . S
C1510 C1509 1.387 . S
H1511 C1523 0.930 . S
H1512 C1525 0.930 . S
H1513 C1526 0.930 . S
H1514 C1530 0.959 . S
H1515 C1530 0.959 . S
H1516 C1530 0.961 . S
H1517 C1531 0.960 . S
H1518 C1531 0.961 . S
H1519 C1531 0.959 . S
H1520 C1534 0.929 . S
H1521 C1535 0.931 . S
H1522 C1537 0.930 . S
C1523 H1511 0.930 . S
C1523 C1524 1.399 . S
C1523 C1528 1.399 . S
C1524 C1523 1.399 . S
C1524 C1525 1.376 . S
C1525 H1512 0.930 . S
C1525 C1524 1.376 . S
C1525 C1526 1.388 . S
C1526 H1513 0.930 . S
C1526 C1525 1.388 . S
C1526 C1527 1.390 . S
C1527 C1526 1.390 . S
C1527 C1528 1.394 . S
C1527 C1533 1.465 . S
C1528 C1523 1.399 . S
C1528 C1527 1.394 . S
C1528 C1529 1.516 . S
C1529 C1528 1.516 . S
C1529 C1530 1.502 . S
C1529 C1531 1.561 . S
C1529 C1532 1.526 . S
C1530 H1514 0.959 . S
C1530 H1515 0.959 . S
C1530 H1516 0.961 . S
C1530 C1529 1.502 . S
C1531 H1517 0.960 . S
C1531 H1518 0.961 . S
C1531 H1519 0.959 . S
C1531 C1529 1.561 . S
C1532 C1529 1.526 . S
C1532 C1533 1.396 . S
C1532 C1537 1.390 . S
C1533 C1527 1.465 . S
C1533 C1532 1.396 . S
C1533 C1534 1.399 . S
C1534 H1520 0.929 . S
C1534 C1533 1.399 . S
C1534 C1535 1.385 . S
C1535 H1521 0.931 . S
C1535 C1534 1.385 . S
C1535 C1536 1.389 . S
C1536 C1535 1.389 . S
C1536 C1537 1.387 . S
C1537 H1522 0.930 . S
C1537 C1532 1.390 . S
C1537 C1536 1.387 . S
H1538 C1550 0.930 . S
H1539 C1552 0.930 . S
H1540 C1553 0.930 . S
H1541 C1557 0.959 . S
H1542 C1557 0.959 . S
H1543 C1557 0.961 . S
H1544 C1558 0.960 . S
H1545 C1558 0.961 . S
H1546 C1558 0.959 . S
H1547 C1561 0.929 . S
H1548 C1562 0.931 . S
H1549 C1564 0.930 . S
C1550 H1538 0.930 . S
C1550 C1551 1.399 . S
C1550 C1555 1.399 . S
C1551 C1550 1.399 . S
C1551 C1552 1.376 . S
C1552 H1539 0.930 . S
C1552 C1551 1.376 . S
C1552 C1553 1.388 . S
C1553 H1540 0.930 . S
C1553 C1552 1.388 . S
C1553 C1554 1.390 . S
C1554 C1553 1.390 . S
C1554 C1555 1.394 . S
C1554 C1560 1.465 . S
C1555 C1550 1.399 . S
C1555 C1554 1.394 . S
C1555 C1556 1.516 . S
C1556 C1555 1.516 . S
C1556 C1557 1.502 . S
C1556 C1558 1.561 . S
C1556 C1559 1.526 . S
C1557 H1541 0.959 . S
C1557 H1542 0.959 . S
C1557 H1543 0.961 . S
C1557 C1556 1.502 . S
C1558 H1544 0.960 . S
C1558 H1545 0.961 . S
C1558 H1546 0.959 . S
C1558 C1556 1.561 . S
C1559 C1556 1.526 . S
C1559 C1560 1.396 . S
C1559 C1564 1.390 . S
C1560 C1554 1.465 . S
C1560 C1559 1.396 . S
C1560 C1561 1.399 . S
C1561 H1547 0.929 . S
C1561 C1560 1.399 . S
C1561 C1562 1.385 . S
C1562 H1548 0.931 . S
C1562 C1561 1.385 . S
C1562 C1563 1.389 . S
C1563 C1562 1.389 . S
C1563 C1564 1.387 . S
C1564 H1549 0.930 . S
C1564 C1559 1.390 . S
C1564 C1563 1.387 . S
H1565 C1577 0.930 . S
H1566 C1579 0.930 . S
H1567 C1580 0.930 . S
H1568 C1584 0.959 . S
H1569 C1584 0.959 . S
H1570 C1584 0.961 . S
H1571 C1585 0.960 . S
H1572 C1585 0.961 . S
H1573 C1585 0.959 . S
H1574 C1588 0.929 . S
H1575 C1589 0.931 . S
H1576 C1591 0.930 . S
C1577 H1565 0.930 . S
C1577 C1578 1.399 . S
C1577 C1582 1.399 . S
C1578 C1577 1.399 . S
C1578 C1579 1.376 . S
C1579 H1566 0.930 . S
C1579 C1578 1.376 . S
C1579 C1580 1.388 . S
C1580 H1567 0.930 . S
C1580 C1579 1.388 . S
C1580 C1581 1.390 . S
C1581 C1580 1.390 . S
C1581 C1582 1.394 . S
C1581 C1587 1.465 . S
C1582 C1577 1.399 . S
C1582 C1581 1.394 . S
C1582 C1583 1.516 . S
C1583 C1582 1.516 . S
C1583 C1584 1.502 . S
C1583 C1585 1.561 . S
C1583 C1586 1.526 . S
C1584 H1568 0.959 . S
C1584 H1569 0.959 . S
C1584 H1570 0.961 . S
C1584 C1583 1.502 . S
C1585 H1571 0.960 . S
C1585 H1572 0.961 . S
C1585 H1573 0.959 . S
C1585 C1583 1.561 . S
C1586 C1583 1.526 . S
C1586 C1587 1.396 . S
C1586 C1591 1.390 . S
C1587 C1581 1.465 . S
C1587 C1586 1.396 . S
C1587 C1588 1.399 . S
C1588 H1574 0.929 . S
C1588 C1587 1.399 . S
C1588 C1589 1.385 . S
C1589 H1575 0.931 . S
C1589 C1588 1.385 . S
C1589 C1590 1.389 . S
C1590 C1589 1.389 . S
C1590 C1591 1.387 . S
C1591 H1576 0.930 . S
C1591 C1586 1.390 . S
C1591 C1590 1.387 . S
H1592 C1604 0.930 . S
H1593 C1606 0.931 . S
H1594 C1607 0.930 . S
H1595 C1611 0.959 . S
H1596 C1611 0.959 . S
H1597 C1611 0.961 . S
H1598 C1612 0.960 . S
H1599 C1612 0.961 . S
H1600 C1612 0.959 . S
H1601 C1615 0.929 . S
H1602 C1616 0.931 . S
H1603 C1618 0.930 . S
C1604 H1592 0.930 . S
C1604 C1605 1.399 . S
C1604 C1609 1.399 . S
C1605 C1604 1.399 . S
C1605 C1606 1.376 . S
C1606 H1593 0.931 . S
C1606 C1605 1.376 . S
C1606 C1607 1.388 1_455 S
C1607 H1594 0.930 . S
C1607 C1606 1.388 1_655 S
C1607 C1608 1.390 . S
C1608 C1607 1.390 . S
C1608 C1609 1.394 1_655 S
C1608 C1614 1.465 . S
C1609 C1604 1.399 . S
C1609 C1608 1.394 1_455 S
C1609 C1610 1.516 . S
C1610 C1609 1.516 . S
C1610 C1611 1.502 . S
C1610 C1612 1.561 1_455 S
C1610 C1613 1.526 1_455 S
C1611 H1595 0.959 . S
C1611 H1596 0.959 . S
C1611 H1597 0.961 . S
C1611 C1610 1.502 . S
C1612 H1598 0.960 . S
C1612 H1599 0.961 . S
C1612 H1600 0.959 . S
C1612 C1610 1.561 1_655 S
C1613 C1610 1.526 1_655 S
C1613 C1614 1.396 . S
C1613 C1618 1.390 . S
C1614 C1608 1.465 . S
C1614 C1613 1.396 . S
C1614 C1615 1.399 . S
C1615 H1601 0.929 . S
C1615 C1614 1.399 . S
C1615 C1616 1.385 . S
C1616 H1602 0.931 . S
C1616 C1615 1.385 . S
C1616 C1617 1.389 . S
C1617 C1616 1.389 . S
C1617 C1618 1.387 . S
C1618 H1603 0.930 . S
C1618 C1613 1.390 . S
C1618 C1617 1.387 . S
H1619 C1631 0.930 . S
H1620 C1633 0.930 . S
H1621 C1634 0.930 . S
H1622 C1638 0.959 . S
H1623 C1638 0.959 . S
H1624 C1638 0.961 . S
H1625 C1639 0.960 . S
H1626 C1639 0.961 . S
H1627 C1639 0.959 . S
H1628 C1642 0.929 . S
H1629 C1643 0.931 . S
H1630 C1645 0.930 . S
C1631 H1619 0.930 . S
C1631 C1632 1.399 1_545 S
C1631 C1636 1.399 . S
C1632 C1631 1.399 1_565 S
C1632 C1633 1.376 . S
C1633 H1620 0.930 . S
C1633 C1632 1.376 . S
C1633 C1634 1.388 . S
C1634 H1621 0.930 . S
C1634 C1633 1.388 . S
C1634 C1635 1.390 . S
C1635 C1634 1.390 . S
C1635 C1636 1.394 1_565 S
C1635 C1641 1.465 . S
C1636 C1631 1.399 . S
C1636 C1635 1.394 1_545 S
C1636 C1637 1.516 . S
C1637 C1636 1.516 . S
C1637 C1638 1.502 . S
C1637 C1639 1.561 . S
C1637 C1640 1.526 . S
C1638 H1622 0.959 . S
C1638 H1623 0.959 . S
C1638 H1624 0.961 . S
C1638 C1637 1.502 . S
C1639 H1625 0.960 . S
C1639 H1626 0.961 . S
C1639 H1627 0.959 . S
C1639 C1637 1.561 . S
C1640 C1637 1.526 . S
C1640 C1641 1.396 1_545 S
C1640 C1645 1.390 . S
C1641 C1635 1.465 . S
C1641 C1640 1.396 1_565 S
C1641 C1642 1.399 . S
C1642 H1628 0.929 . S
C1642 C1641 1.399 . S
C1642 C1643 1.385 . S
C1643 H1629 0.931 . S
C1643 C1642 1.385 . S
C1643 C1644 1.389 1_565 S
C1644 C1643 1.389 1_545 S
C1644 C1645 1.387 . S
C1645 H1630 0.930 . S
C1645 C1640 1.390 . S
C1645 C1644 1.387 . S
H1646 C1658 0.930 . S
H1647 C1660 0.930 . S
H1648 C1661 0.930 . S
H1649 C1665 0.959 . S
H1650 C1665 0.959 . S
H1651 C1665 0.961 . S
H1652 C1666 0.960 . S
H1653 C1666 0.961 . S
H1654 C1666 0.959 . S
H1655 C1669 0.929 . S
H1656 C1670 0.931 . S
H1657 C1672 0.930 . S
C1658 H1646 0.930 . S
C1658 C1659 1.399 . S
C1658 C1663 1.399 . S
C1659 C1658 1.399 . S
C1659 C1660 1.376 . S
C1660 H1647 0.930 . S
C1660 C1659 1.376 . S
C1660 C1661 1.388 1_455 S
C1661 H1648 0.930 . S
C1661 C1660 1.388 1_655 S
C1661 C1662 1.390 . S
C1662 C1661 1.390 . S
C1662 C1663 1.394 1_655 S
C1662 C1668 1.465 . S
C1663 C1658 1.399 . S
C1663 C1662 1.394 1_455 S
C1663 C1664 1.516 . S
C1664 C1663 1.516 . S
C1664 C1665 1.502 . S
C1664 C1666 1.561 1_455 S
C1664 C1667 1.526 1_455 S
C1665 H1649 0.959 . S
C1665 H1650 0.959 . S
C1665 H1651 0.961 . S
C1665 C1664 1.502 . S
C1666 H1652 0.960 . S
C1666 H1653 0.961 . S
C1666 H1654 0.959 . S
C1666 C1664 1.561 1_655 S
C1667 C1664 1.526 1_655 S
C1667 C1668 1.396 . S
C1667 C1672 1.390 . S
C1668 C1662 1.465 . S
C1668 C1667 1.396 . S
C1668 C1669 1.399 . S
C1669 H1655 0.929 . S
C1669 C1668 1.399 . S
C1669 C1670 1.385 . S
C1670 H1656 0.931 . S
C1670 C1669 1.385 . S
C1670 C1671 1.389 . S
C1671 C1670 1.389 . S
C1671 C1672 1.387 . S
C1672 H1657 0.930 . S
C1672 C1667 1.390 . S
C1672 C1671 1.387 . S
H1673 C1685 0.930 . S
H1674 C1687 0.930 . S
H1675 C1688 0.930 . S
H1676 C1692 0.959 . S
H1677 C1692 0.959 . S
H1678 C1692 0.961 . S
H1679 C1693 0.960 . S
H1680 C1693 0.961 . S
H1681 C1693 0.959 . S
H1682 C1696 0.929 . S
H1683 C1697 0.931 . S
H1684 C1699 0.930 . S
C1685 H1673 0.930 . S
C1685 C1686 1.399 1_565 S
C1685 C1690 1.399 . S
C1686 C1685 1.399 1_545 S
C1686 C1687 1.376 . S
C1687 H1674 0.930 . S
C1687 C1686 1.376 . S
C1687 C1688 1.388 . S
C1688 H1675 0.930 . S
C1688 C1687 1.388 . S
C1688 C1689 1.390 . S
C1689 C1688 1.390 . S
C1689 C1690 1.394 1_545 S
C1689 C1695 1.465 . S
C1690 C1685 1.399 . S
C1690 C1689 1.394 1_565 S
C1690 C1691 1.516 . S
C1691 C1690 1.516 . S
C1691 C1692 1.502 . S
C1691 C1693 1.561 . S
C1691 C1694 1.526 . S
C1692 H1676 0.959 . S
C1692 H1677 0.959 . S
C1692 H1678 0.961 . S
C1692 C1691 1.502 . S
C1693 H1679 0.960 . S
C1693 H1680 0.961 . S
C1693 H1681 0.959 . S
C1693 C1691 1.561 . S
C1694 C1691 1.526 . S
C1694 C1695 1.396 1_565 S
C1694 C1699 1.390 . S
C1695 C1689 1.465 . S
C1695 C1694 1.396 1_545 S
C1695 C1696 1.399 . S
C1696 H1682 0.929 . S
C1696 C1695 1.399 . S
C1696 C1697 1.385 . S
C1697 H1683 0.931 . S
C1697 C1696 1.385 . S
C1697 C1698 1.389 1_545 S
C1698 C1697 1.389 1_565 S
C1698 C1699 1.387 . S
C1699 H1684 0.930 . S
C1699 C1694 1.390 . S
C1699 C1698 1.387 . S
H1700 C1712 0.930 . S
H1701 C1714 0.930 . S
H1702 C1715 0.930 . S
H1703 C1719 0.959 . S
H1704 C1719 0.959 . S
H1705 C1719 0.961 1_556 S
H1706 C1720 0.960 . S
H1707 C1720 0.961 1_554 S
H1708 C1720 0.959 . S
H1709 C1723 0.929 . S
H1710 C1724 0.931 . S
H1711 C1726 0.930 . S
C1712 H1700 0.930 . S
C1712 C1713 1.399 . S
C1712 C1717 1.399 . S
C1713 C1712 1.399 . S
C1713 C1714 1.376 . S
C1714 H1701 0.930 . S
C1714 C1713 1.376 . S
C1714 C1715 1.388 . S
C1715 H1702 0.930 . S
C1715 C1714 1.388 . S
C1715 C1716 1.390 . S
C1716 C1715 1.390 . S
C1716 C1717 1.394 . S
C1716 C1722 1.465 1_556 S
C1717 C1712 1.399 . S
C1717 C1716 1.394 . S
C1717 C1718 1.516 1_556 S
C1718 C1717 1.516 1_554 S
C1718 C1719 1.502 . S
C1718 C1720 1.561 1_554 S
C1718 C1721 1.526 . S
C1719 H1703 0.959 . S
C1719 H1704 0.959 . S
C1719 H1705 0.961 1_554 S
C1719 C1718 1.502 . S
C1720 H1706 0.960 . S
C1720 H1707 0.961 1_556 S
C1720 H1708 0.959 . S
C1720 C1718 1.561 1_556 S
C1721 C1718 1.526 . S
C1721 C1722 1.396 . S
C1721 C1726 1.390 . S
C1722 C1716 1.465 1_554 S
C1722 C1721 1.396 . S
C1722 C1723 1.399 . S
C1723 H1709 0.929 . S
C1723 C1722 1.399 . S
C1723 C1724 1.385 . S
C1724 H1710 0.931 . S
C1724 C1723 1.385 . S
C1724 C1725 1.389 . S
C1725 C1724 1.389 . S
C1725 C1726 1.387 . S
C1726 H1711 0.930 . S
C1726 C1721 1.390 . S
C1726 C1725 1.387 . S
H1727 C1739 0.930 . S
H1728 C1741 0.930 . S
H1729 C1742 0.930 . S
H1730 C1746 0.959 . S
H1731 C1746 0.959 1_554 S
H1732 C1746 0.961 . S
H1733 C1747 0.960 . S
H1734 C1747 0.961 . S
H1735 C1747 0.959 . S
H1736 C1750 0.929 . S
H1737 C1751 0.931 . S
H1738 C1753 0.930 . S
C1739 H1727 0.930 . S
C1739 C1740 1.399 . S
C1739 C1744 1.399 . S
C1740 C1739 1.399 . S
C1740 C1741 1.376 . S
C1741 H1728 0.930 . S
C1741 C1740 1.376 . S
C1741 C1742 1.388 . S
C1742 H1729 0.930 . S
C1742 C1741 1.388 . S
C1742 C1743 1.390 . S
C1743 C1742 1.390 . S
C1743 C1744 1.394 . S
C1743 C1749 1.465 1_556 S
C1744 C1739 1.399 . S
C1744 C1743 1.394 . S
C1744 C1745 1.516 . S
C1745 C1744 1.516 . S
C1745 C1746 1.502 . S
C1745 C1747 1.561 . S
C1745 C1748 1.526 1_556 S
C1746 H1730 0.959 . S
C1746 H1731 0.959 1_556 S
C1746 H1732 0.961 . S
C1746 C1745 1.502 . S
C1747 H1733 0.960 . S
C1747 H1734 0.961 . S
C1747 H1735 0.959 . S
C1747 C1745 1.561 . S
C1748 C1745 1.526 1_554 S
C1748 C1749 1.396 . S
C1748 C1753 1.390 . S
C1749 C1743 1.465 1_554 S
C1749 C1748 1.396 . S
C1749 C1750 1.399 . S
C1750 H1736 0.929 . S
C1750 C1749 1.399 . S
C1750 C1751 1.385 . S
C1751 H1737 0.931 . S
C1751 C1750 1.385 . S
C1751 C1752 1.389 . S
C1752 C1751 1.389 . S
C1752 C1753 1.387 . S
C1753 H1738 0.930 . S
C1753 C1748 1.390 . S
C1753 C1752 1.387 . S
H1754 C1766 0.930 . S
H1755 C1768 0.930 . S
H1756 C1769 0.930 . S
H1757 C1773 0.959 . S
H1758 C1773 0.959 1_556 S
H1759 C1773 0.961 . S
H1760 C1774 0.960 1_554 S
H1761 C1774 0.961 . S
H1762 C1774 0.959 . S
H1763 C1777 0.929 . S
H1764 C1778 0.931 . S
H1765 C1780 0.930 . S
C1766 H1754 0.930 . S
C1766 C1767 1.399 . S
C1766 C1771 1.399 . S
C1767 C1766 1.399 . S
C1767 C1768 1.376 . S
C1768 H1755 0.930 . S
C1768 C1767 1.376 . S
C1768 C1769 1.388 . S
C1769 H1756 0.930 . S
C1769 C1768 1.388 . S
C1769 C1770 1.390 . S
C1770 C1769 1.390 . S
C1770 C1771 1.394 . S
C1770 C1776 1.465 1_554 S
C1771 C1766 1.399 . S
C1771 C1770 1.394 . S
C1771 C1772 1.516 . S
C1772 C1771 1.516 . S
C1772 C1773 1.502 . S
C1772 C1774 1.561 1_554 S
C1772 C1775 1.526 1_554 S
C1773 H1757 0.959 . S
C1773 H1758 0.959 1_554 S
C1773 H1759 0.961 . S
C1773 C1772 1.502 . S
C1774 H1760 0.960 1_556 S
C1774 H1761 0.961 . S
C1774 H1762 0.959 . S
C1774 C1772 1.561 1_556 S
C1775 C1772 1.526 1_556 S
C1775 C1776 1.396 . S
C1775 C1780 1.390 . S
C1776 C1770 1.465 1_556 S
C1776 C1775 1.396 . S
C1776 C1777 1.399 . S
C1777 H1763 0.929 . S
C1777 C1776 1.399 . S
C1777 C1778 1.385 . S
C1778 H1764 0.931 . S
C1778 C1777 1.385 . S
C1778 C1779 1.389 . S
C1779 C1778 1.389 . S
C1779 C1780 1.387 . S
C1780 H1765 0.930 . S
C1780 C1775 1.390 . S
C1780 C1779 1.387 . S
H1781 C1793 0.930 . S
H1782 C1795 0.930 . S
H1783 C1796 0.930 . S
H1784 C1800 0.959 . S
H1785 C1800 0.959 . S
H1786 C1800 0.960 . S
H1787 C1801 0.960 1_556 S
H1788 C1801 0.961 . S
H1789 C1801 0.959 . S
H1790 C1804 0.929 . S
H1791 C1805 0.931 . S
H1792 C1807 0.930 . S
C1793 H1781 0.930 . S
C1793 C1794 1.399 . S
C1793 C1798 1.399 . S
C1794 C1793 1.399 . S
C1794 C1795 1.376 . S
C1795 H1782 0.930 . S
C1795 C1794 1.376 . S
C1795 C1796 1.388 . S
C1796 H1783 0.930 . S
C1796 C1795 1.388 . S
C1796 C1797 1.390 . S
C1797 C1796 1.390 . S
C1797 C1798 1.394 . S
C1797 C1803 1.465 1_556 S
C1798 C1793 1.399 . S
C1798 C1797 1.394 . S
C1798 C1799 1.516 1_556 S
C1799 C1798 1.516 1_554 S
C1799 C1800 1.502 . S
C1799 C1801 1.561 . S
C1799 C1802 1.526 . S
C1800 H1784 0.959 . S
C1800 H1785 0.959 . S
C1800 H1786 0.960 . S
C1800 C1799 1.502 . S
C1801 H1787 0.960 1_554 S
C1801 H1788 0.961 . S
C1801 H1789 0.959 . S
C1801 C1799 1.561 . S
C1802 C1799 1.526 . S
C1802 C1803 1.396 . S
C1802 C1807 1.390 . S
C1803 C1797 1.465 1_554 S
C1803 C1802 1.396 . S
C1803 C1804 1.399 . S
C1804 H1790 0.929 . S
C1804 C1803 1.399 . S
C1804 C1805 1.385 . S
C1805 H1791 0.931 . S
C1805 C1804 1.385 . S
C1805 C1806 1.389 . S
C1806 C1805 1.389 . S
C1806 C1807 1.387 . S
C1807 H1792 0.930 . S
C1807 C1802 1.390 . S
C1807 C1806 1.387 . S
C957 C3 1.626 . S
C969 C229 1.641 1_545 S
C984 C52 1.621 1_655 S
C996 C62 1.593 . S
C1011 C111 1.621 1_565 S
C1023 C121 1.594 . S
C1038 C170 1.661 1_455 S
C1050 C180 1.647 . S
C1065 C239 1.591 . S
C1077 C347 1.627 1_565 S
C1092 C298 1.625 . S
C1104 C406 1.651 1_455 S
C1119 C357 1.615 . S
C1131 C465 1.634 1_545 S
C1146 C416 1.624 . S
C1158 C288 1.640 1_655 S
C1173 C475 1.621 . S
C1185 C701 1.638 . S
C1200 C524 1.662 . S
C1212 C534 1.646 . S
C1227 C583 1.620 . S
C1239 C593 1.592 . S
C1254 C652 1.616 . S
C1266 C642 1.635 . S
C1281 C819 1.620 . S
C1293 C711 1.590 . S
C1308 C878 1.661 . S
C1320 C770 1.644 . S
C1335 C829 1.618 . S
C1347 C937 1.647 . S
C1362 C888 1.587 . S
C1374 C760 1.621 . S
C1389 C5 1.454 . S
C1401 C890 1.455 . S
C1416 C64 1.422 . S
C1428 C713 1.477 . S
C1443 C772 1.451 . S
C1455 C123 1.406 . S
C1470 C182 1.438 . S
C1482 C831 1.415 . S
C1497 C536 1.465 . S
C1509 C241 1.400 . S
C1524 C595 1.423 . S
C1536 C300 1.429 . S
C1551 C359 1.454 . S
C1563 C654 1.404 . S
C1578 C418 1.456 . S
C1590 C477 1.403 . S
C1605 C33 1.673 . S
C1617 C387 1.655 . S
C1632 C446 1.655 . S
C1644 C92 1.675 . S
C1659 C269 1.672 . S
C1671 C151 1.656 . S
C1686 C328 1.655 . S
C1698 C210 1.677 . S
C1713 C505 1.672 . S
C1725 C859 1.655 . S
C1740 C564 1.655 . S
C1752 C918 1.680 . S
C1767 C741 1.680 . S
C1779 C623 1.697 . S
C1794 C682 1.683 . S
C1806 C800 1.657 . S
