# Generated by pormake.
# Topology fnu, (5)-cn, num edge types: 1
# Building blocks:
#     Node 0, Type 0, BuildingBlock: XOMCOT_clean_sbu_0, # of connection points: 5
#     Node 1, Type 0, BuildingBlock: XOMCOT_clean_sbu_0, # of connection points: 5
#     Node 2, Type 0, BuildingBlock: XOMCOT_clean_sbu_0, # of connection points: 5
#     Node 3, Type 0, BuildingBlock: XOMCOT_clean_sbu_0, # of connection points: 5
#     Node 4, Type 0, BuildingBlock: XOMCOT_clean_sbu_0, # of connection points: 5
#     Node 5, Type 0, BuildingBlock: XOMCOT_clean_sbu_0, # of connection points: 5
#     Edge 6, Type (0, 0), BuildingBlock: AJUNOK_clean_linker_0, # of connection points: 2
#     Edge 7, Type (0, 0), BuildingBlock: AJUNOK_clean_linker_0, # of connection points: 2
#     Edge 8, Type (0, 0), BuildingBlock: AJUNOK_clean_linker_0, # of connection points: 2
#     Edge 9, Type (0, 0), BuildingBlock: AJUNOK_clean_linker_0, # of connection points: 2
#     Edge 10, Type (0, 0), BuildingBlock: AJUNOK_clean_linker_0, # of connection points: 2
#     Edge 11, Type (0, 0), BuildingBlock: AJUNOK_clean_linker_0, # of connection points: 2
#     Edge 12, Type (0, 0), BuildingBlock: AJUNOK_clean_linker_0, # of connection points: 2
#     Edge 13, Type (0, 0), BuildingBlock: AJUNOK_clean_linker_0, # of connection points: 2
#     Edge 14, Type (0, 0), BuildingBlock: AJUNOK_clean_linker_0, # of connection points: 2
#     Edge 15, Type (0, 0), BuildingBlock: AJUNOK_clean_linker_0, # of connection points: 2
#     Edge 16, Type (0, 0), BuildingBlock: AJUNOK_clean_linker_0, # of connection points: 2
#     Edge 17, Type (0, 0), BuildingBlock: AJUNOK_clean_linker_0, # of connection points: 2
#     Edge 18, Type (0, 0), BuildingBlock: AJUNOK_clean_linker_0, # of connection points: 2
#     Edge 19, Type (0, 0), BuildingBlock: AJUNOK_clean_linker_0, # of connection points: 2
#     Edge 20, Type (0, 0), BuildingBlock: AJUNOK_clean_linker_0, # of connection points: 2
# Relax obj value: 0.186
# Max RMSD: 0.134
# Mean RMSD: 0.134
data_MOF--net-fnu--node1-XOMCOT_clean_sbu_0--edge1-AJUNOK_clean_linker_0
_symmetry_space_group_name_H-M    P1
_symmetry_Int_Tables_number       1
_symmetry_cell_setting            triclinic
loop_
_symmetry_equiv_pos_as_xyz
'x, y, z'
_cell_length_a     18.651937
_cell_length_b     21.108724
_cell_length_c     26.357057
_cell_angle_alpha  89.642677
_cell_angle_beta   97.741347
_cell_angle_gamma 124.502
loop_
_atom_site_label
_atom_site_type_symbol
_atom_site_fract_x
_atom_site_fract_y
_atom_site_fract_z
_atom_type_partial_charge
Co0 Co 0.12222 0.14204 0.24691 0.0
C1 C 1.10781 0.09237 0.35282 0.0
C2 C 0.24254 0.17113 0.34313 0.0
C3 C 0.23999 0.15603 0.39406 0.0
N4 N 0.15968 0.12962 0.31675 0.0
N5 N 0.15515 0.10708 0.40017 0.0
H6 H 1.03674 1.05872 0.34537 0.0
H7 H 0.30078 0.21377 0.32755 0.0
C8 C 0.29008 0.1554 0.23352 0.0
O9 O 0.26346 0.09274 0.25752 0.0
N10 N 1.08126 0.15424 0.17853 0.0
C11 C 0.99598 0.12323 0.15906 0.0
C12 C 0.98971 0.13483 0.1081 0.0
C13 C 0.12553 0.18397 0.13891 0.0
N14 N 1.07084 0.17149 0.09541 0.0
C15 C 1.00128 0.97437 0.24005 0.0
C16 C 1.0512 0.95118 0.1516 0.0
C17 C 0.97792 0.88783 0.16894 0.0
C18 C 0.95446 0.89989 0.21474 0.0
C19 C 1.09716 1.02353 0.17854 0.0
N20 N 1.07235 1.03536 0.22216 0.0
H21 H 0.9775 0.98321 0.27245 0.0
H22 H 0.14952 0.07104 0.16169 0.0
H23 H 0.94076 0.08913 0.17933 0.0
H24 H 0.19397 0.2059 0.14013 0.0
O25 O 1.02003 0.13283 0.26732 0.0
O26 O 0.15144 0.24106 0.26983 0.0
O27 O 0.24178 0.18093 0.22684 0.0
C28 C 1.06809 0.20823 0.27053 0.0
H29 H 0.29573 0.18314 0.42487 0.0
H30 H 0.92918 0.10968 0.08107 0.0
H31 H 1.07131 0.94594 0.11606 0.0
H32 H 0.89958 0.85271 0.23064 0.0
Co33 Co 1.08412 1.05116 0.75408 0.0
C34 C 1.08674 1.039 0.64222 0.0
C35 C 0.95566 0.9862 0.65828 0.0
C36 C 0.9529 0.98643 0.60592 0.0
N37 N 1.0393 1.01764 0.68135 0.0
N38 N 1.03558 1.02101 0.59572 0.0
H39 H 0.15792 0.07252 0.64771 0.0
H40 H 0.90078 0.96926 0.67779 0.0
C41 C 0.90604 0.90092 0.76213 0.0
O42 O 0.91997 0.86333 0.72973 0.0
N43 N 0.13202 0.08768 0.82496 0.0
C44 C 0.21531 0.11575 0.84731 0.0
C45 C 0.22786 0.14462 0.89666 0.0
C46 C 1.09558 0.10086 0.86013 0.0
N47 N 0.15256 0.13513 0.90398 0.0
C48 C 0.19192 0.9942 0.74505 0.0
C49 C 0.13487 0.90301 0.82636 0.0
C50 C 0.21054 0.91886 0.8092 0.0
C51 C 0.23786 0.9633 0.76686 0.0
C52 C 1.09213 0.9352 0.80424 0.0
N53 N 0.12089 0.98131 0.76456 0.0
H54 H 0.21783 1.03351 0.71555 0.0
H55 H 1.04263 0.93033 0.82405 0.0
H56 H 0.26367 0.11585 0.82877 0.0
H57 H 1.03 0.08775 0.85355 0.0
O58 O 0.19176 0.14558 0.73921 0.0
O59 O 1.06701 0.13186 0.74585 0.0
O60 O 0.96365 0.97319 0.77396 0.0
C61 C 0.15057 0.17831 0.74402 0.0
H62 H 0.89458 0.9653 0.57774 0.0
H63 H 0.28628 0.16865 0.92533 0.0
H64 H 0.1126 0.87096 0.85968 0.0
H65 H 0.29594 0.97653 0.7521 0.0
Co66 Co 0.81941 0.40232 0.59138 0.0
C67 C 0.79561 0.39424 0.70146 0.0
C68 C 0.93076 0.44621 0.6938 0.0
C69 C 0.92466 0.44656 0.74536 0.0
N70 N 0.84986 0.41363 0.66608 0.0
N71 N 0.83966 0.41374 0.75029 0.0
H72 H 0.72575 0.36854 0.69174 0.0
H73 H 0.99074 0.46918 0.67806 0.0
C74 C 1.00069 0.52066 0.571 0.0
O75 O 0.98039 0.57071 0.57305 0.0
N76 N 0.78537 0.38872 0.51793 0.0
C77 C 0.71449 0.32387 0.4912 0.0
C78 C 0.70428 0.33837 0.441 0.0
C79 C 0.81546 0.44259 0.48402 0.0
N80 N 0.76722 0.41286 0.43718 0.0
C81 C 0.71894 0.23906 0.5996 0.0
C82 C 0.8086 0.21344 0.53615 0.0
C83 C 0.72331 0.15243 0.54175 0.0
C84 C 0.68043 0.16456 0.57654 0.0
C85 C 0.84417 0.28671 0.5593 0.0
N86 N 0.79678 0.29998 0.58765 0.0
H87 H 0.68154 0.24916 0.62218 0.0
H88 H 0.90532 0.33331 0.54873 0.0
H89 H 0.67096 0.27023 0.50716 0.0
H90 H 0.86981 0.50224 0.4931 0.0
O91 O 0.7017 0.37593 0.59516 0.0
O92 O 0.81969 0.49391 0.59338 0.0
O93 O 0.94711 0.45166 0.58249 0.0
C94 C 0.73498 0.44891 0.59152 0.0
H95 H 0.97887 0.46937 0.7769 0.0
H96 H 0.65427 0.29806 0.40982 0.0
H97 H 0.84443 0.20645 0.51016 0.0
H98 H 0.61528 0.11815 0.58313 0.0
Co99 Co 0.7545 0.45883 0.09592 0.0
C100 C 0.76096 0.41918 0.99002 0.0
C101 C 0.62832 0.37212 1.0012 0.0
C102 C 0.6281 0.35774 0.95009 0.0
N103 N 0.71162 0.41045 0.02619 0.0
N104 N 0.71163 0.38726 0.94295 0.0
H105 H 0.83201 0.45055 0.99779 0.0
H106 H 0.5723 0.35909 0.01828 0.0
C107 C 0.62968 0.32964 0.15801 0.0
O108 O 0.69864 0.34112 0.18836 0.0
N109 N 0.80095 0.51247 0.16502 0.0
C110 C 0.88414 0.57452 0.1815 0.0
C111 C 0.89302 0.59422 0.23237 0.0
C112 C 0.75923 0.50075 0.20562 0.0
N113 N 0.81482 0.54647 0.24784 0.0
C114 C 0.90211 0.45105 0.12884 0.0
C115 C 0.8084 0.29297 0.13184 0.0
C116 C 0.89587 0.33899 0.15735 0.0
C117 C 0.94345 0.4189 0.15387 0.0
C118 C 0.76935 0.32819 0.10728 0.0
N119 N 0.81402 0.40683 0.11071 0.0
H120 H 0.94082 0.51215 0.12563 0.0
H121 H 0.70127 0.29236 0.08897 0.0
H122 H 0.93681 0.60323 0.15898 0.0
H123 H 0.69053 0.4569 0.20612 0.0
O124 O 0.84743 0.5529 0.07156 0.0
O125 O 0.71639 0.52538 0.07929 0.0
O126 O 0.64085 0.37027 0.11946 0.0
C127 C 0.79662 0.57694 0.07182 0.0
H128 H 0.57127 0.33167 0.92009 0.0
H129 H 0.95446 0.63447 0.25749 0.0
H130 H 0.77026 0.23073 0.1316 0.0
H131 H 1.01178 0.457 0.17161 0.0
Co132 Co 0.45318 0.73396 0.91168 0.0
C133 C 0.45406 0.71984 0.02263 0.0
C134 C 0.58554 0.78236 1.0053 0.0
C135 C 0.58914 0.7796 0.05784 0.0
N136 N 0.50063 0.74451 0.98338 0.0
N137 N 0.50619 0.73964 0.06901 0.0
H138 H 0.38364 0.69116 0.01681 0.0
H139 H 0.6412 0.81157 0.98488 0.0
C140 C 0.57832 0.7352 0.8496 0.0
O141 O 0.50943 0.67602 0.82055 0.0
N142 N 0.40373 0.72543 0.84062 0.0
C143 C 0.31879 0.68106 0.81727 0.0
C144 C 0.31418 0.70036 0.76776 0.0
C145 C 0.4475 0.7749 0.8062 0.0
N146 N 0.3953 0.75936 0.76116 0.0
C147 C 0.31479 0.57293 0.8997 0.0
C148 C 0.41851 0.52158 0.88626 0.0
C149 C 0.32816 0.47404 0.86605 0.0
C150 C 0.27557 0.4991 0.87642 0.0
C151 C 0.45502 0.59621 0.90836 0.0
N152 N 0.40399 0.62371 0.9083 0.0
H153 H 0.27332 0.59138 0.90657 0.0
H154 H 0.52514 0.63348 0.92168 0.0
H155 H 0.26292 0.63821 0.83421 0.0
H156 H 0.51775 0.81888 0.81281 0.0
O157 O 0.35489 0.73191 0.92963 0.0
O158 O 0.48142 0.83711 0.91687 0.0
O159 O 0.56801 0.76168 0.88976 0.0
C160 C 0.39989 0.80525 0.92277 0.0
H161 H 0.64894 0.80628 0.08551 0.0
H162 H 0.25713 0.6701 0.73783 0.0
H163 H 0.46111 0.50265 0.88359 0.0
H164 H 0.20498 0.46418 0.86411 0.0
Co165 Co 0.46653 0.73081 0.42943 0.0
C166 C 0.45866 0.70838 0.31776 0.0
C167 C 0.33532 0.67916 0.33641 0.0
C168 C 0.3293 0.67469 0.28373 0.0
N169 N 0.41622 0.69997 0.35767 0.0
N170 N 0.40676 0.69276 0.27186 0.0
H171 H 0.52703 0.72816 0.32229 0.0
H172 H 0.28586 0.67218 0.3576 0.0
C173 C 0.3253 0.61978 0.49204 0.0
O174 O 0.38529 0.61905 0.52398 0.0
N175 N 0.51992 0.76579 0.50033 0.0
C176 C 0.60189 0.79006 0.52298 0.0
C177 C 0.61515 0.81814 0.57261 0.0
C178 C 0.48759 0.78475 0.53526 0.0
N179 N 0.54312 0.8147 0.57991 0.0
C180 C 0.58477 0.68447 0.43141 0.0
C181 C 0.47201 0.5393 0.46265 0.0
C182 C 0.56313 0.57407 0.47393 0.0
C183 C 0.61895 0.64473 0.4538 0.0
C184 C 0.44078 0.58113 0.4395 0.0
N185 N 0.49843 0.65665 0.43086 0.0
H186 H 0.62993 0.74157 0.42005 0.0
H187 H 0.37069 0.55426 0.43223 0.0
H188 H 0.64995 0.78888 0.50537 0.0
H189 H 0.42213 0.77247 0.52925 0.0
O190 O 0.57349 0.82289 0.4126 0.0
O191 O 0.45496 0.81572 0.42629 0.0
O192 O 0.34553 0.65417 0.45054 0.0
C193 C 0.53694 0.85888 0.42005 0.0
H194 H 0.27379 0.6637 0.25652 0.0
H195 H 0.67067 0.83494 0.6021 0.0
H196 H 0.42569 0.48267 0.47458 0.0
H197 H 0.68926 0.67141 0.45823 0.0
C198 C 0.39333 0.24962 0.17583 0.0
C199 C 0.37576 0.19644 0.21319 0.0
C200 C 0.47371 0.28985 0.15657 0.0
C201 C 0.54107 0.27987 0.17441 0.0
H202 H 0.3449 0.26093 0.16139 0.0
H203 H 0.48397 0.33087 0.12857 0.0
S204 S 0.52943 0.14767 0.27203 0.0
N205 N 0.43321 0.13573 0.26681 0.0
N206 N 0.58397 0.21168 0.23142 0.0
C207 C 0.52421 0.2264 0.21145 0.0
C208 C 0.44192 0.18474 0.23059 0.0
C209 C 0.94157 0.22325 0.25293 0.0
C210 C 1.02819 0.24881 0.24807 0.0
C211 C 0.89833 0.25186 0.22336 0.0
C212 C 0.93924 0.30536 0.1868 0.0
H213 H 0.90656 0.18002 0.2791 0.0
H214 H 0.83245 0.23192 0.22909 0.0
S215 S 0.15866 0.37964 0.15242 0.0
N216 N 0.15031 0.32748 0.20082 0.0
N217 N 1.06643 0.37474 0.14314 0.0
C218 C 1.02425 0.32897 0.18037 0.0
C219 C 1.06938 0.30262 0.21157 0.0
C220 C 0.9289 0.71339 0.08895 0.0
C221 C 0.83694 0.66048 0.08458 0.0
C222 C 0.97315 0.78642 0.11564 0.0
C223 C 0.92756 0.81067 0.13871 0.0
H224 H 0.96809 0.69656 0.07461 0.0
H225 H 1.04439 0.82281 0.12005 0.0
S226 S 0.68475 0.69793 0.13262 0.0
N227 N 0.70069 0.64024 0.10177 0.0
N228 N 0.78346 0.7783 0.15026 0.0
C229 C 0.83489 0.76036 0.1316 0.0
C230 C 0.78976 0.68553 0.10467 0.0
C231 C 0.1567 0.26961 0.80614 0.0
C232 C 0.19763 0.25748 0.76978 0.0
C233 C 0.2009 0.3377 0.83817 0.0
C234 C 0.28743 0.39942 0.8342 0.0
H235 H 1.09032 0.2247 0.81183 0.0
H236 H 0.16635 0.3413 0.86667 0.0
S237 S 0.4236 0.39963 0.74301 0.0
N238 N 0.33036 0.31273 0.7317 0.0
N239 N 0.41183 0.44484 0.78869 0.0
C240 C 0.32924 0.38909 0.79721 0.0
C241 C 0.28472 0.31757 0.7657 0.0
C242 C 0.67726 0.74237 0.79037 0.0
C243 C 0.66527 0.77658 0.83127 0.0
C244 C 0.75524 0.78245 0.76878 0.0
C245 C 0.8246 0.85899 0.78668 0.0
H246 H 0.62544 0.6842 0.77427 0.0
H247 H 0.76033 0.7534 0.73717 0.0
S248 S 0.8267 0.97524 0.89323 0.0
N249 N 0.73027 0.89151 0.88922 0.0
N250 N 0.8756 0.96686 0.8486 0.0
C251 C 0.81368 0.89355 0.82797 0.0
C252 C 0.73461 0.85243 0.85028 0.0
C253 C 0.21687 0.81716 0.85456 0.0
C254 C 0.26175 0.89249 0.83868 0.0
C255 C 0.26128 0.79178 0.88568 0.0
C256 C 0.35302 0.84025 0.90192 0.0
H257 H 0.14654 0.77686 0.84226 0.0
H258 H 0.22354 0.73228 0.89492 0.0
S259 S 0.50053 1.04518 0.87502 0.0
N260 N 0.40225 1.01745 0.84502 0.0
N261 N 0.48658 0.96902 0.90222 0.0
C262 C 0.39853 0.91655 0.88764 0.0
C263 C 0.35292 0.94267 0.85615 0.0
C264 C 0.13381 0.51783 0.56885 0.0
C265 C 1.0803 0.54216 0.5487 0.0
C266 C 0.21144 0.5414 0.54933 0.0
C267 C 0.23759 0.58859 0.50794 0.0
H268 H 0.11705 0.48228 0.60094 0.0
H269 H 0.25193 0.52325 0.56743 0.0
S270 S 0.11448 0.66107 0.43813 0.0
N271 N 1.05557 0.61195 0.48299 0.0
N272 N 0.19935 0.65457 0.44572 0.0
C273 C 0.18218 0.61035 0.48609 0.0
C274 C 1.10427 0.58764 0.50662 0.0
C275 C 0.60611 0.42996 0.53248 0.0
C276 C 0.68028 0.47654 0.57061 0.0
C277 C 0.56692 0.46103 0.50208 0.0
C278 C 0.6005 0.53985 0.5087 0.0
H279 H 0.5816 0.37023 0.52374 0.0
H280 H 0.51247 0.42383 0.47174 0.0
S281 S 0.78403 0.68299 0.60925 0.0
N282 N 0.7796 0.60318 0.61688 0.0
N283 N 0.70482 0.66102 0.56123 0.0
C284 C 0.67079 0.58556 0.54913 0.0
C285 C 0.71091 0.55409 0.57967 0.0
C286 C 0.67602 0.97431 0.46791 0.0
C287 C 0.59045 0.94108 0.44058 0.0
C288 C 0.71848 1.04239 0.50062 0.0
C289 C 0.67714 0.07993 0.50725 0.0
H290 H 0.70843 0.94513 0.46664 0.0
H291 H 0.78303 0.06445 0.52217 0.0
S292 S 0.45935 1.02336 0.4383 0.0
N293 N 0.46992 0.95544 0.41838 0.0
N294 N 0.55032 0.0839 0.47885 0.0
C295 C 0.59396 1.04988 0.47777 0.0
C296 C 0.55071 0.98061 0.4446 0.0
C297 C 0.13564 1.04222 0.53439 0.0
C298 C 1.06439 1.04244 0.54625 0.0
C299 C 0.16444 0.06278 0.48651 0.0
C300 C 0.12287 0.08399 0.44851 0.0
H301 H 0.16882 1.02532 0.5622 0.0
H302 H 0.21928 0.06155 0.47891 0.0
S303 S 0.94067 0.10335 0.46226 0.0
N304 N 0.95808 0.07251 0.51717 0.0
N305 N 1.01147 0.10982 0.42746 0.0
C306 C 1.05272 0.08587 0.46014 0.0
C307 C 1.0237 0.06546 0.5089 0.0
C308 C 0.82588 0.45607 0.88654 0.0
C309 C 0.74276 0.39187 0.89445 0.0
C310 C 0.85659 0.46274 0.83954 0.0
C311 C 0.80559 0.40572 0.79807 0.0
H312 H 0.86716 0.50244 0.91662 0.0
H313 H 0.9205 0.51375 0.83539 0.0
S314 S 0.58635 0.22312 0.79965 0.0
N315 N 0.61209 0.26777 0.85718 0.0
N316 N 0.66952 0.2809 0.76903 0.0
C317 C 0.72279 0.34082 0.80548 0.0
C318 C 0.69155 0.33376 0.8535 0.0
C319 C 0.51774 0.75904 0.21338 0.0
C320 C 0.43132 0.70153 0.22105 0.0
C321 C 0.54153 0.77082 0.164 0.0
C322 C 0.48026 0.72513 0.11985 0.0
H323 H 0.567 0.79685 0.24564 0.0
H324 H 0.60834 0.81742 0.16062 0.0
S325 S 0.24608 0.56336 0.11976 0.0
N326 N 0.28493 0.59645 0.18068 0.0
N327 N 0.32953 0.61655 0.08858 0.0
C328 C 0.39397 0.66596 0.12741 0.0
C329 C 0.36962 0.6547 0.17766 0.0
C330 C 0.15097 0.22781 0.02322 0.0
C331 C 1.0877 0.1631 0.0458 0.0
C332 C 0.17242 0.21874 0.97617 0.0
C333 C 0.13101 0.14484 0.95149 0.0
H334 H 0.18392 0.28504 0.04228 0.0
H335 H 0.22108 0.26908 0.9589 0.0
S336 S 0.96997 0.95765 0.99836 0.0
N337 N 0.98987 1.02316 0.04252 0.0
N338 N 1.03008 1.00656 0.95383 0.0
C339 C 1.06925 0.08001 0.9742 0.0
C340 C 1.04758 0.08903 0.02167 0.0
C341 C 0.77954 0.54034 0.33503 0.0
C342 C 0.80815 0.51747 0.29703 0.0
C343 C 0.7683 0.50728 0.38213 0.0
C344 C 0.78435 0.4504 0.39114 0.0
H345 H 0.76482 0.5827 0.32788 0.0
H346 H 0.74487 0.52436 0.41105 0.0
S347 S 0.86374 0.37446 0.30441 0.0
N348 N 0.85612 0.4382 0.27206 0.0
N349 N 0.8324 0.37468 0.36009 0.0
C350 C 0.81427 0.42843 0.35378 0.0
C351 C 0.82689 0.46248 0.30665 0.0
C352 C 0.49778 0.85706 0.64764 0.0
C353 C 0.51247 0.8047 0.62757 0.0
C354 C 0.45709 0.84158 0.69136 0.0
C355 C 0.42793 0.77232 0.71397 0.0
H356 H 0.51754 0.90947 0.6293 0.0
H357 H 0.44822 0.88326 0.70758 0.0
S358 S 0.44909 0.61666 0.67416 0.0
N359 N 0.49519 0.68206 0.63273 0.0
N360 N 0.41542 0.65149 0.71364 0.0
C361 C 0.44138 0.71952 0.6936 0.0
C362 C 0.48456 0.7361 0.6505 0.0
loop_
_geom_bond_atom_site_label_1
_geom_bond_atom_site_label_2
_geom_bond_distance
_geom_bond_site_symmetry_2
_ccdc_geom_bond_type
Co0 N4 2.148 . S
Co0 N10 2.128 . S
Co0 N20 2.194 1_445 S
Co0 O25 2.351 1_455 S
Co0 O26 2.155 . S
Co0 O27 2.096 . S
C1 N4 1.301 . S
C1 N5 1.328 . S
C1 H6 0.930 1_455 S
C2 C3 1.333 . S
C2 N4 1.317 . S
C2 H7 0.930 . S
C3 C2 1.333 . S
C3 N5 1.350 . S
C3 H29 0.931 . S
N4 Co0 2.148 . S
N4 C1 1.301 . S
N4 C2 1.317 . S
N5 C1 1.328 . S
N5 C3 1.350 . S
H6 C1 0.930 1_655 S
H7 C2 0.930 . S
C8 O9 1.224 . S
C8 O27 1.247 . S
O9 C8 1.224 . S
N10 Co0 2.128 . S
N10 C11 1.355 1_445 S
N10 C13 1.311 . S
C11 N10 1.355 1_665 S
C11 C12 1.363 . S
C11 H23 0.929 . S
C12 C11 1.363 . S
C12 N14 1.375 1_665 S
C12 H30 0.931 . S
C13 N10 1.311 . S
C13 N14 1.347 . S
C13 H24 0.929 . S
N14 C12 1.375 1_445 S
N14 C13 1.347 . S
C15 C18 1.365 . S
C15 N20 1.328 . S
C15 H21 0.929 . S
C16 C17 1.362 . S
C16 C19 1.378 1_655 S
C16 H31 0.929 . S
C17 C16 1.362 . S
C17 C18 1.366 . S
C18 C15 1.365 . S
C18 C17 1.366 . S
C18 H32 0.930 . S
C19 C16 1.378 1_455 S
C19 N20 1.315 1_455 S
C19 H22 0.930 . S
N20 Co0 2.194 1_665 S
N20 C15 1.328 . S
N20 C19 1.315 1_655 S
H21 C15 0.929 . S
H22 C19 0.930 . S
H23 C11 0.929 . S
H24 C13 0.929 . S
O25 Co0 2.351 1_655 S
O25 C28 1.244 . S
O26 Co0 2.155 . S
O26 C28 1.240 1_455 S
O27 Co0 2.096 . S
O27 C8 1.247 . S
C28 O25 1.244 . S
C28 O26 1.240 1_655 S
H29 C3 0.931 . S
H30 C12 0.931 . S
H31 C16 0.929 . S
H32 C18 0.930 . S
Co33 N37 2.148 . S
Co33 N43 2.128 1_655 S
Co33 N53 2.194 1_645 S
Co33 O58 2.351 1_655 S
Co33 O59 2.155 1_655 S
Co33 O60 2.096 1_545 S
C34 N37 1.301 1_455 S
C34 N38 1.328 1_455 S
C34 H39 0.930 . S
C35 C36 1.333 . S
C35 N37 1.317 1_565 S
C35 H40 0.930 . S
C36 C35 1.333 . S
C36 N38 1.350 1_565 S
C36 H62 0.931 . S
N37 Co33 2.148 . S
N37 C34 1.301 1_655 S
N37 C35 1.317 1_545 S
N38 C34 1.328 1_655 S
N38 C36 1.350 1_545 S
H39 C34 0.930 . S
H40 C35 0.930 . S
C41 O42 1.224 . S
C41 O60 1.247 . S
O42 C41 1.224 . S
N43 Co33 2.128 1_455 S
N43 C44 1.355 . S
N43 C46 1.311 1_455 S
C44 N43 1.355 . S
C44 C45 1.363 . S
C44 H56 0.929 . S
C45 C44 1.363 . S
C45 N47 1.375 . S
C45 H63 0.931 . S
C46 N43 1.311 1_655 S
C46 N47 1.347 1_655 S
C46 H57 0.929 1_545 S
N47 C45 1.375 . S
N47 C46 1.347 1_455 S
C48 C51 1.365 1_545 S
C48 N53 1.328 1_545 S
C48 H54 0.929 . S
C49 C50 1.362 . S
C49 C52 1.378 . S
C49 H64 0.929 . S
C50 C49 1.362 . S
C50 C51 1.366 . S
C51 C48 1.365 1_565 S
C51 C50 1.366 . S
C51 H65 0.930 . S
C52 C49 1.378 . S
C52 N53 1.315 . S
C52 H55 0.930 1_455 S
N53 Co33 2.194 1_465 S
N53 C48 1.328 1_565 S
N53 C52 1.315 . S
H54 C48 0.929 . S
H55 C52 0.930 1_655 S
H56 C44 0.929 . S
H57 C46 0.929 1_565 S
O58 Co33 2.351 1_455 S
O58 C61 1.244 . S
O59 Co33 2.155 1_455 S
O59 C61 1.240 . S
O60 Co33 2.096 1_565 S
O60 C41 1.247 . S
C61 O58 1.244 . S
C61 O59 1.240 . S
H62 C36 0.931 . S
H63 C45 0.931 . S
H64 C49 0.929 . S
H65 C51 0.930 . S
Co66 N70 2.148 . S
Co66 N76 2.128 . S
Co66 N86 2.194 . S
Co66 O91 2.351 . S
Co66 O92 2.155 . S
Co66 O93 2.096 . S
C67 N70 1.301 . S
C67 N71 1.328 . S
C67 H72 0.930 . S
C68 C69 1.333 . S
C68 N70 1.317 . S
C68 H73 0.930 . S
C69 C68 1.333 . S
C69 N71 1.350 . S
C69 H95 0.931 . S
N70 Co66 2.148 . S
N70 C67 1.301 . S
N70 C68 1.317 . S
N71 C67 1.328 . S
N71 C69 1.350 . S
H72 C67 0.930 . S
H73 C68 0.930 . S
C74 O75 1.224 . S
C74 O93 1.247 . S
O75 C74 1.224 . S
N76 Co66 2.128 . S
N76 C77 1.355 . S
N76 C79 1.311 . S
C77 N76 1.355 . S
C77 C78 1.363 . S
C77 H89 0.929 . S
C78 C77 1.363 . S
C78 N80 1.375 . S
C78 H96 0.931 . S
C79 N76 1.311 . S
C79 N80 1.347 . S
C79 H90 0.929 . S
N80 C78 1.375 . S
N80 C79 1.347 . S
C81 C84 1.365 . S
C81 N86 1.328 . S
C81 H87 0.929 . S
C82 C83 1.362 . S
C82 C85 1.378 . S
C82 H97 0.929 . S
C83 C82 1.362 . S
C83 C84 1.366 . S
C84 C81 1.365 . S
C84 C83 1.366 . S
C84 H98 0.930 . S
C85 C82 1.378 . S
C85 N86 1.315 . S
C85 H88 0.930 . S
N86 Co66 2.194 . S
N86 C81 1.328 . S
N86 C85 1.315 . S
H87 C81 0.929 . S
H88 C85 0.930 . S
H89 C77 0.929 . S
H90 C79 0.929 . S
O91 Co66 2.351 . S
O91 C94 1.244 . S
O92 Co66 2.155 . S
O92 C94 1.240 . S
O93 Co66 2.096 . S
O93 C74 1.247 . S
C94 O91 1.244 . S
C94 O92 1.240 . S
H95 C69 0.931 . S
H96 C78 0.931 . S
H97 C82 0.929 . S
H98 C84 0.930 . S
Co99 N103 2.148 . S
Co99 N109 2.128 . S
Co99 N119 2.194 . S
Co99 O124 2.351 . S
Co99 O125 2.155 . S
Co99 O126 2.096 . S
C100 N103 1.301 . S
C100 N104 1.328 1_554 S
C100 H105 0.930 . S
C101 C102 1.333 1_554 S
C101 N103 1.317 . S
C101 H106 0.930 . S
C102 C101 1.333 1_556 S
C102 N104 1.350 . S
C102 H128 0.931 . S
N103 Co99 2.148 . S
N103 C100 1.301 . S
N103 C101 1.317 . S
N104 C100 1.328 1_556 S
N104 C102 1.350 . S
H105 C100 0.930 . S
H106 C101 0.930 . S
C107 O108 1.224 . S
C107 O126 1.247 . S
O108 C107 1.224 . S
N109 Co99 2.128 . S
N109 C110 1.355 . S
N109 C112 1.311 . S
C110 N109 1.355 . S
C110 C111 1.363 . S
C110 H122 0.929 . S
C111 C110 1.363 . S
C111 N113 1.375 . S
C111 H129 0.931 . S
C112 N109 1.311 . S
C112 N113 1.347 . S
C112 H123 0.929 . S
N113 C111 1.375 . S
N113 C112 1.347 . S
C114 C117 1.365 . S
C114 N119 1.328 . S
C114 H120 0.929 . S
C115 C116 1.362 . S
C115 C118 1.378 . S
C115 H130 0.929 . S
C116 C115 1.362 . S
C116 C117 1.366 . S
C117 C114 1.365 . S
C117 C116 1.366 . S
C117 H131 0.930 . S
C118 C115 1.378 . S
C118 N119 1.315 . S
C118 H121 0.930 . S
N119 Co99 2.194 . S
N119 C114 1.328 . S
N119 C118 1.315 . S
H120 C114 0.929 . S
H121 C118 0.930 . S
H122 C110 0.929 . S
H123 C112 0.929 . S
O124 Co99 2.351 . S
O124 C127 1.244 . S
O125 Co99 2.155 . S
O125 C127 1.240 . S
O126 Co99 2.096 . S
O126 C107 1.247 . S
C127 O124 1.244 . S
C127 O125 1.240 . S
H128 C102 0.931 . S
H129 C111 0.931 . S
H130 C115 0.929 . S
H131 C117 0.930 . S
Co132 N136 2.148 . S
Co132 N142 2.128 . S
Co132 N152 2.194 . S
Co132 O157 2.351 . S
Co132 O158 2.155 . S
Co132 O159 2.096 . S
C133 N136 1.301 . S
C133 N137 1.328 1_556 S
C133 H138 0.930 . S
C134 C135 1.333 1_556 S
C134 N136 1.317 . S
C134 H139 0.930 . S
C135 C134 1.333 1_554 S
C135 N137 1.350 . S
C135 H161 0.931 . S
N136 Co132 2.148 . S
N136 C133 1.301 . S
N136 C134 1.317 . S
N137 C133 1.328 1_554 S
N137 C135 1.350 . S
H138 C133 0.930 . S
H139 C134 0.930 . S
C140 O141 1.224 . S
C140 O159 1.247 . S
O141 C140 1.224 . S
N142 Co132 2.128 . S
N142 C143 1.355 . S
N142 C145 1.311 . S
C143 N142 1.355 . S
C143 C144 1.363 . S
C143 H155 0.929 . S
C144 C143 1.363 . S
C144 N146 1.375 . S
C144 H162 0.931 . S
C145 N142 1.311 . S
C145 N146 1.347 . S
C145 H156 0.929 . S
N146 C144 1.375 . S
N146 C145 1.347 . S
C147 C150 1.365 . S
C147 N152 1.328 . S
C147 H153 0.929 . S
C148 C149 1.362 . S
C148 C151 1.378 . S
C148 H163 0.929 . S
C149 C148 1.362 . S
C149 C150 1.366 . S
C150 C147 1.365 . S
C150 C149 1.366 . S
C150 H164 0.930 . S
C151 C148 1.378 . S
C151 N152 1.315 . S
C151 H154 0.930 . S
N152 Co132 2.194 . S
N152 C147 1.328 . S
N152 C151 1.315 . S
H153 C147 0.929 . S
H154 C151 0.930 . S
H155 C143 0.929 . S
H156 C145 0.929 . S
O157 Co132 2.351 . S
O157 C160 1.244 . S
O158 Co132 2.155 . S
O158 C160 1.240 . S
O159 Co132 2.096 . S
O159 C140 1.247 . S
C160 O157 1.244 . S
C160 O158 1.240 . S
H161 C135 0.931 . S
H162 C144 0.931 . S
H163 C148 0.929 . S
H164 C150 0.930 . S
Co165 N169 2.148 . S
Co165 N175 2.128 . S
Co165 N185 2.194 . S
Co165 O190 2.351 . S
Co165 O191 2.155 . S
Co165 O192 2.096 . S
C166 N169 1.301 . S
C166 N170 1.328 . S
C166 H171 0.930 . S
C167 C168 1.333 . S
C167 N169 1.317 . S
C167 H172 0.930 . S
C168 C167 1.333 . S
C168 N170 1.350 . S
C168 H194 0.931 . S
N169 Co165 2.148 . S
N169 C166 1.301 . S
N169 C167 1.317 . S
N170 C166 1.328 . S
N170 C168 1.350 . S
H171 C166 0.930 . S
H172 C167 0.930 . S
C173 O174 1.224 . S
C173 O192 1.247 . S
O174 C173 1.224 . S
N175 Co165 2.128 . S
N175 C176 1.355 . S
N175 C178 1.311 . S
C176 N175 1.355 . S
C176 C177 1.363 . S
C176 H188 0.929 . S
C177 C176 1.363 . S
C177 N179 1.375 . S
C177 H195 0.931 . S
C178 N175 1.311 . S
C178 N179 1.347 . S
C178 H189 0.929 . S
N179 C177 1.375 . S
N179 C178 1.347 . S
C180 C183 1.365 . S
C180 N185 1.328 . S
C180 H186 0.929 . S
C181 C182 1.362 . S
C181 C184 1.378 . S
C181 H196 0.929 . S
C182 C181 1.362 . S
C182 C183 1.366 . S
C183 C180 1.365 . S
C183 C182 1.366 . S
C183 H197 0.930 . S
C184 C181 1.378 . S
C184 N185 1.315 . S
C184 H187 0.930 . S
N185 Co165 2.194 . S
N185 C180 1.328 . S
N185 C184 1.315 . S
H186 C180 0.929 . S
H187 C184 0.930 . S
H188 C176 0.929 . S
H189 C178 0.929 . S
O190 Co165 2.351 . S
O190 C193 1.244 . S
O191 Co165 2.155 . S
O191 C193 1.240 . S
O192 Co165 2.096 . S
O192 C173 1.247 . S
C193 O190 1.244 . S
C193 O191 1.240 . S
H194 C168 0.931 . S
H195 C177 0.931 . S
H196 C181 0.929 . S
H197 C183 0.930 . S
C198 C199 1.369 . S
C198 C200 1.419 . S
C198 H202 0.930 . S
C199 C198 1.369 . S
C199 C208 1.429 . S
C200 C198 1.419 . S
C200 C201 1.363 . S
C200 H203 0.929 . S
C201 C200 1.363 . S
C201 C207 1.428 . S
H202 C198 0.930 . S
H203 C200 0.929 . S
S204 N205 1.613 . S
S204 N206 1.610 . S
N205 S204 1.613 . S
N205 C208 1.350 . S
N206 S204 1.610 . S
N206 C207 1.351 . S
C207 C201 1.428 . S
C207 N206 1.351 . S
C207 C208 1.434 . S
C208 C199 1.429 . S
C208 N205 1.350 . S
C208 C207 1.434 . S
C209 C210 1.369 . S
C209 C211 1.419 . S
C209 H213 0.930 . S
C210 C209 1.369 . S
C210 C219 1.429 . S
C211 C209 1.419 . S
C211 C212 1.363 . S
C211 H214 0.929 . S
C212 C211 1.363 . S
C212 C218 1.428 . S
H213 C209 0.930 . S
H214 C211 0.929 . S
S215 N216 1.613 . S
S215 N217 1.610 1_455 S
N216 S215 1.613 . S
N216 C219 1.350 1_455 S
N217 S215 1.610 1_655 S
N217 C218 1.351 . S
C218 C212 1.428 . S
C218 N217 1.351 . S
C218 C219 1.434 . S
C219 C210 1.429 . S
C219 N216 1.350 1_655 S
C219 C218 1.434 . S
C220 C221 1.369 . S
C220 C222 1.419 . S
C220 H224 0.930 . S
C221 C220 1.369 . S
C221 C230 1.429 . S
C222 C220 1.419 . S
C222 C223 1.363 . S
C222 H225 0.929 . S
C223 C222 1.363 . S
C223 C229 1.428 . S
H224 C220 0.930 . S
H225 C222 0.929 . S
S226 N227 1.613 . S
S226 N228 1.610 . S
N227 S226 1.613 . S
N227 C230 1.350 . S
N228 S226 1.610 . S
N228 C229 1.351 . S
C229 C223 1.428 . S
C229 N228 1.351 . S
C229 C230 1.434 . S
C230 C221 1.429 . S
C230 N227 1.350 . S
C230 C229 1.434 . S
C231 C232 1.369 . S
C231 C233 1.419 . S
C231 H235 0.930 . S
C232 C231 1.369 . S
C232 C241 1.429 . S
C233 C231 1.419 . S
C233 C234 1.363 . S
C233 H236 0.929 . S
C234 C233 1.363 . S
C234 C240 1.428 . S
H235 C231 0.930 . S
H236 C233 0.929 . S
S237 N238 1.613 . S
S237 N239 1.610 . S
N238 S237 1.613 . S
N238 C241 1.350 . S
N239 S237 1.610 . S
N239 C240 1.351 . S
C240 C234 1.428 . S
C240 N239 1.351 . S
C240 C241 1.434 . S
C241 C232 1.429 . S
C241 N238 1.350 . S
C241 C240 1.434 . S
C242 C243 1.369 . S
C242 C244 1.419 . S
C242 H246 0.930 . S
C243 C242 1.369 . S
C243 C252 1.429 . S
C244 C242 1.419 . S
C244 C245 1.363 . S
C244 H247 0.929 . S
C245 C244 1.363 . S
C245 C251 1.428 . S
H246 C242 0.930 . S
H247 C244 0.929 . S
S248 N249 1.613 . S
S248 N250 1.610 . S
N249 S248 1.613 . S
N249 C252 1.350 . S
N250 S248 1.610 . S
N250 C251 1.351 . S
C251 C245 1.428 . S
C251 N250 1.351 . S
C251 C252 1.434 . S
C252 C243 1.429 . S
C252 N249 1.350 . S
C252 C251 1.434 . S
C253 C254 1.369 . S
C253 C255 1.419 . S
C253 H257 0.930 . S
C254 C253 1.369 . S
C254 C263 1.429 . S
C255 C253 1.419 . S
C255 C256 1.363 . S
C255 H258 0.929 . S
C256 C255 1.363 . S
C256 C262 1.428 . S
H257 C253 0.930 . S
H258 C255 0.929 . S
S259 N260 1.613 . S
S259 N261 1.610 . S
N260 S259 1.613 . S
N260 C263 1.350 . S
N261 S259 1.610 . S
N261 C262 1.351 . S
C262 C256 1.428 . S
C262 N261 1.351 . S
C262 C263 1.434 . S
C263 C254 1.429 . S
C263 N260 1.350 . S
C263 C262 1.434 . S
C264 C265 1.369 1_455 S
C264 C266 1.419 . S
C264 H268 0.930 . S
C265 C264 1.369 1_655 S
C265 C274 1.429 . S
C266 C264 1.419 . S
C266 C267 1.363 . S
C266 H269 0.929 . S
C267 C266 1.363 . S
C267 C273 1.428 . S
H268 C264 0.930 . S
H269 C266 0.929 . S
S270 N271 1.613 . S
S270 N272 1.610 1_655 S
N271 S270 1.613 . S
N271 C274 1.350 . S
N272 S270 1.610 1_455 S
N272 C273 1.351 . S
C273 C267 1.428 . S
C273 N272 1.351 . S
C273 C274 1.434 1_455 S
C274 C265 1.429 . S
C274 N271 1.350 . S
C274 C273 1.434 1_655 S
C275 C276 1.369 . S
C275 C277 1.419 . S
C275 H279 0.930 . S
C276 C275 1.369 . S
C276 C285 1.429 . S
C277 C275 1.419 . S
C277 C278 1.363 . S
C277 H280 0.929 . S
C278 C277 1.363 . S
C278 C284 1.428 . S
H279 C275 0.930 . S
H280 C277 0.929 . S
S281 N282 1.613 . S
S281 N283 1.610 . S
N282 S281 1.613 . S
N282 C285 1.350 . S
N283 S281 1.610 . S
N283 C284 1.351 . S
C284 C278 1.428 . S
C284 N283 1.351 . S
C284 C285 1.434 . S
C285 C276 1.429 . S
C285 N282 1.350 . S
C285 C284 1.434 . S
C286 C287 1.369 . S
C286 C288 1.419 . S
C286 H290 0.930 . S
C287 C286 1.369 . S
C287 C296 1.429 . S
C288 C286 1.419 . S
C288 C289 1.363 1_565 S
C288 H291 0.931 1_565 S
C289 C288 1.363 1_545 S
C289 C295 1.428 . S
H290 C286 0.930 . S
H291 C288 0.931 1_545 S
S292 N293 1.613 1_545 S
S292 N294 1.610 . S
N293 S292 1.613 1_565 S
N293 C296 1.350 . S
N294 S292 1.610 . S
N294 C295 1.351 . S
C295 C289 1.428 . S
C295 N294 1.351 . S
C295 C296 1.434 1_545 S
C296 C287 1.429 . S
C296 N293 1.350 . S
C296 C295 1.434 1_565 S
C297 C298 1.369 1_455 S
C297 C299 1.419 . S
C297 H301 0.930 . S
C298 C297 1.369 1_655 S
C298 C307 1.429 . S
C299 C297 1.419 . S
C299 C300 1.363 . S
C299 H302 0.929 . S
C300 C299 1.363 . S
C300 C306 1.428 1_455 S
H301 C297 0.930 . S
H302 C299 0.929 . S
S303 N304 1.613 . S
S303 N305 1.610 . S
N304 S303 1.613 . S
N304 C307 1.350 . S
N305 S303 1.610 . S
N305 C306 1.351 . S
C306 C300 1.428 1_655 S
C306 N305 1.351 . S
C306 C307 1.434 . S
C307 C298 1.429 . S
C307 N304 1.350 . S
C307 C306 1.434 . S
C308 C309 1.369 . S
C308 C310 1.419 . S
C308 H312 0.930 . S
C309 C308 1.369 . S
C309 C318 1.429 . S
C310 C308 1.419 . S
C310 C311 1.363 . S
C310 H313 0.929 . S
C311 C310 1.363 . S
C311 C317 1.428 . S
H312 C308 0.930 . S
H313 C310 0.929 . S
S314 N315 1.613 . S
S314 N316 1.610 . S
N315 S314 1.613 . S
N315 C318 1.350 . S
N316 S314 1.610 . S
N316 C317 1.351 . S
C317 C311 1.428 . S
C317 N316 1.351 . S
C317 C318 1.434 . S
C318 C309 1.429 . S
C318 N315 1.350 . S
C318 C317 1.434 . S
C319 C320 1.369 . S
C319 C321 1.419 . S
C319 H323 0.930 . S
C320 C319 1.369 . S
C320 C329 1.429 . S
C321 C319 1.419 . S
C321 C322 1.363 . S
C321 H324 0.929 . S
C322 C321 1.363 . S
C322 C328 1.428 . S
H323 C319 0.930 . S
H324 C321 0.929 . S
S325 N326 1.613 . S
S325 N327 1.610 . S
N326 S325 1.613 . S
N326 C329 1.350 . S
N327 S325 1.610 . S
N327 C328 1.351 . S
C328 C322 1.428 . S
C328 N327 1.351 . S
C328 C329 1.434 . S
C329 C320 1.429 . S
C329 N326 1.350 . S
C329 C328 1.434 . S
C330 C331 1.369 . S
C330 C332 1.419 1_554 S
C330 H334 0.930 . S
C331 C330 1.369 . S
C331 C340 1.429 1_445 S
C332 C330 1.419 1_556 S
C332 C333 1.363 1_445 S
C332 H335 0.929 . S
C333 C332 1.363 1_665 S
C333 C339 1.428 . S
H334 C330 0.930 . S
H335 C332 0.929 . S
S336 N337 1.613 . S
S336 N338 1.610 1_554 S
N337 S336 1.613 . S
N337 C340 1.350 . S
N338 S336 1.610 1_556 S
N338 C339 1.351 . S
C339 C333 1.428 . S
C339 N338 1.351 . S
C339 C340 1.434 1_556 S
C340 C331 1.429 1_665 S
C340 N337 1.350 . S
C340 C339 1.434 1_554 S
C341 C342 1.369 . S
C341 C343 1.419 . S
C341 H345 0.930 . S
C342 C341 1.369 . S
C342 C351 1.429 . S
C343 C341 1.419 . S
C343 C344 1.363 . S
C343 H346 0.929 . S
C344 C343 1.363 . S
C344 C350 1.428 . S
H345 C341 0.930 . S
H346 C343 0.929 . S
S347 N348 1.613 . S
S347 N349 1.610 . S
N348 S347 1.613 . S
N348 C351 1.350 . S
N349 S347 1.610 . S
N349 C350 1.351 . S
C350 C344 1.428 . S
C350 N349 1.351 . S
C350 C351 1.434 . S
C351 C342 1.429 . S
C351 N348 1.350 . S
C351 C350 1.434 . S
C352 C353 1.369 . S
C352 C354 1.419 . S
C352 H356 0.930 . S
C353 C352 1.369 . S
C353 C362 1.429 . S
C354 C352 1.419 . S
C354 C355 1.363 . S
C354 H357 0.929 . S
C355 C354 1.363 . S
C355 C361 1.428 . S
H356 C352 0.930 . S
H357 C354 0.929 . S
S358 N359 1.613 . S
S358 N360 1.610 . S
N359 S358 1.613 . S
N359 C362 1.350 . S
N360 S358 1.610 . S
N360 C361 1.351 . S
C361 C355 1.428 . S
C361 N360 1.351 . S
C361 C362 1.434 . S
C362 C353 1.429 . S
C362 N359 1.350 . S
C362 C361 1.434 . S
C199 C8 1.892 . S
C201 C107 1.891 . S
C210 C28 1.600 . S
C212 C116 1.660 . S
C221 C127 1.606 . S
C223 C17 1.657 . S
C232 C61 1.607 . S
C234 C149 1.656 . S
C243 C140 1.894 . S
C245 C41 1.889 . S
C254 C50 1.661 . S
C256 C160 1.601 . S
C265 C74 1.890 . S
C267 C173 1.892 . S
C276 C94 1.598 . S
C278 C182 1.661 . S
C287 C193 1.607 . S
C289 C83 1.657 . S
C298 N38 2.076 . S
C300 N5 2.079 . S
C309 N104 2.076 . S
C311 N71 2.079 . S
C320 N170 2.077 . S
C322 N137 2.078 . S
C331 N14 0.596 . S
C333 N47 0.609 1_665 S
C342 N113 0.616 . S
C344 N80 0.593 . S
C353 N179 0.611 . S
C355 N146 0.597 . S
