# Generated by pormake.
# Topology wnr, (7)-cn, num edge types: 1
# Building blocks:
#     Node 0, Type 0, BuildingBlock: HICVOG_clean_sbu_0, # of connection points: 7
#     Node 1, Type 0, BuildingBlock: HICVOG_clean_sbu_0, # of connection points: 7
#     Node 2, Type 0, BuildingBlock: HICVOG_clean_sbu_0, # of connection points: 7
#     Node 3, Type 0, BuildingBlock: HICVOG_clean_sbu_0, # of connection points: 7
#     Node 4, Type 0, BuildingBlock: HICVOG_clean_sbu_0, # of connection points: 7
#     Node 5, Type 0, BuildingBlock: HICVOG_clean_sbu_0, # of connection points: 7
#     Edge 6, Type (0, 0), BuildingBlock: MIFKUJ_clean_linker_0, # of connection points: 2
#     Edge 7, Type (0, 0), BuildingBlock: MIFKUJ_clean_linker_0, # of connection points: 2
#     Edge 8, Type (0, 0), BuildingBlock: MIFKUJ_clean_linker_0, # of connection points: 2
#     Edge 9, Type (0, 0), BuildingBlock: MIFKUJ_clean_linker_0, # of connection points: 2
#     Edge 10, Type (0, 0), BuildingBlock: MIFKUJ_clean_linker_0, # of connection points: 2
#     Edge 11, Type (0, 0), BuildingBlock: MIFKUJ_clean_linker_0, # of connection points: 2
#     Edge 12, Type (0, 0), BuildingBlock: MIFKUJ_clean_linker_0, # of connection points: 2
#     Edge 13, Type (0, 0), BuildingBlock: MIFKUJ_clean_linker_0, # of connection points: 2
#     Edge 14, Type (0, 0), BuildingBlock: MIFKUJ_clean_linker_0, # of connection points: 2
#     Edge 15, Type (0, 0), BuildingBlock: MIFKUJ_clean_linker_0, # of connection points: 2
#     Edge 16, Type (0, 0), BuildingBlock: MIFKUJ_clean_linker_0, # of connection points: 2
#     Edge 17, Type (0, 0), BuildingBlock: MIFKUJ_clean_linker_0, # of connection points: 2
#     Edge 18, Type (0, 0), BuildingBlock: MIFKUJ_clean_linker_0, # of connection points: 2
#     Edge 19, Type (0, 0), BuildingBlock: MIFKUJ_clean_linker_0, # of connection points: 2
#     Edge 20, Type (0, 0), BuildingBlock: MIFKUJ_clean_linker_0, # of connection points: 2
#     Edge 21, Type (0, 0), BuildingBlock: MIFKUJ_clean_linker_0, # of connection points: 2
#     Edge 22, Type (0, 0), BuildingBlock: MIFKUJ_clean_linker_0, # of connection points: 2
#     Edge 23, Type (0, 0), BuildingBlock: MIFKUJ_clean_linker_0, # of connection points: 2
#     Edge 24, Type (0, 0), BuildingBlock: MIFKUJ_clean_linker_0, # of connection points: 2
#     Edge 25, Type (0, 0), BuildingBlock: MIFKUJ_clean_linker_0, # of connection points: 2
#     Edge 26, Type (0, 0), BuildingBlock: MIFKUJ_clean_linker_0, # of connection points: 2
# Relax obj value: 0.148
# Max RMSD: 0.223
# Mean RMSD: 0.223
data_MOF--net-wnr--node1-HICVOG_clean_sbu_0--edge1-MIFKUJ_clean_linker_0
_symmetry_space_group_name_H-M    P1
_symmetry_Int_Tables_number       1
_symmetry_cell_setting            triclinic
loop_
_symmetry_equiv_pos_as_xyz
'x, y, z'
_cell_length_a     54.823504
_cell_length_b     54.775183
_cell_length_c     22.12653
_cell_angle_alpha  89.9841
_cell_angle_beta   90.14424
_cell_angle_gamma 120.12846
loop_
_atom_site_label
_atom_site_type_symbol
_atom_site_fract_x
_atom_site_fract_y
_atom_site_fract_z
_atom_type_partial_charge
Zn0 Zn 0.17519 0.40286 0.02514 0.0
C1 C 0.11207 0.40257 0.11895 0.0
N2 N 0.09624 0.38066 0.08255 0.0
C3 C 0.11529 0.38079 0.04456 0.0
N4 N 0.14171 0.40176 0.05727 0.0
N5 N 0.13967 0.4159 0.10388 0.0
C6 C 0.17059 0.42625 0.2545 0.0
O7 O 0.1725 0.40769 0.22037 0.0
O8 O 0.1713 0.39733 0.93485 0.0
Zn9 Zn 0.16853 0.45145 0.13967 0.0
N10 N 0.17922 0.37288 0.06281 0.0
C11 C 0.16882 0.3425 0.14764 0.0
C12 C 0.16509 0.36222 0.11546 0.0
C13 C 0.19653 0.36392 0.04006 0.0
N14 N 0.18645 0.334 0.12578 0.0
C15 C 0.20038 0.34396 0.07259 0.0
O16 O 0.20833 0.46826 0.10577 0.0
C17 C 0.22247 0.46257 0.06846 0.0
O18 O 0.21126 0.43949 0.03908 0.0
H19 H 0.15131 0.36931 0.13288 0.0
H20 H 0.20771 0.37279 0.99825 0.0
C21 C 0.16787 0.50293 0.16391 0.0
C22 C 0.15815 0.52215 0.15674 0.0
C23 C 0.12867 0.49426 0.07619 0.0
C24 C 0.13855 0.47541 0.08303 0.0
N25 N 0.15741 0.47969 0.12755 0.0
N26 N 0.13855 0.51704 0.11326 0.0
H27 H 0.18312 0.50609 0.19865 0.0
C28 C 0.17395 0.41814 0.90412 0.0
O29 O 0.17849 0.44108 0.93273 0.0
O30 O 0.16919 0.44644 0.2297 0.0
H31 H 0.1308 0.45718 0.05381 0.0
H32 H 0.15794 0.33413 0.18995 0.0
H33 H 0.11322 0.49079 0.04172 0.0
Zn34 Zn 0.62129 0.77714 0.69126 0.0
C35 C 0.6102 0.70862 0.784 0.0
N36 N 0.63017 0.71038 0.74653 0.0
C37 C 0.63477 0.73202 0.71074 0.0
N38 N 0.61837 0.74308 0.72544 0.0
N39 N 0.60267 0.72806 0.77175 0.0
C40 C 0.59526 0.7544 0.92248 0.0
O41 O 0.61269 0.77546 0.88786 0.0
O42 O 0.62862 0.778 0.60176 0.0
Zn43 Zn 0.56965 0.72647 0.80804 0.0
N44 N 0.65222 0.81023 0.72997 0.0
C45 C 0.68598 0.8288 0.80959 0.0
C46 C 0.66471 0.80582 0.77859 0.0
C47 C 0.66038 0.83694 0.71068 0.0
N48 N 0.69398 0.85534 0.79077 0.0
C49 C 0.68195 0.86036 0.74194 0.0
O50 O 0.55688 0.75223 0.77154 0.0
C51 C 0.56354 0.77075 0.73033 0.0
O52 O 0.58606 0.77976 0.69968 0.0
H53 H 0.65797 0.78461 0.79371 0.0
H54 H 0.64969 0.83976 0.67248 0.0
C55 C 0.51674 0.67513 0.83415 0.0
C56 C 0.49479 0.64744 0.82153 0.0
C57 C 0.51816 0.64799 0.73067 0.0
C58 C 0.53951 0.67541 0.74298 0.0
N59 N 0.5386 0.68837 0.79459 0.0
N60 N 0.49644 0.63474 0.76999 0.0
H61 H 0.51673 0.686 0.87495 0.0
C62 C 0.60925 0.7587 0.56975 0.0
O63 O 0.58623 0.73936 0.59653 0.0
O64 O 0.57539 0.7323 0.89815 0.0
H65 H 0.55678 0.68631 0.71166 0.0
H66 H 0.69598 0.82558 0.84857 0.0
H67 H 0.51873 0.63733 0.69002 0.0
Zn68 Zn 0.29438 0.84869 0.48534 0.0
C69 C 0.28367 0.9083 0.39984 0.0
N70 N 0.30259 0.92506 0.44133 0.0
C71 C 0.30614 0.90666 0.47481 0.0
N72 N 0.29037 0.87986 0.45471 0.0
N73 N 0.27584 0.88083 0.40763 0.0
C74 C 0.26006 0.85094 0.24949 0.0
O75 O 0.27637 0.84356 0.27821 0.0
O76 O 0.28938 0.84682 0.57576 0.0
Zn77 Zn 0.24317 0.84927 0.36972 0.0
N78 N 0.33282 0.85829 0.46779 0.0
C79 C 0.37196 0.88164 0.40168 0.0
C80 C 0.3445 0.87393 0.41729 0.0
C81 C 0.34734 0.8494 0.5029 0.0
N82 N 0.3865 0.87294 0.43659 0.0
C83 C 0.37519 0.85685 0.48699 0.0
O84 O 0.24192 0.81208 0.37712 0.0
C85 C 0.25121 0.79835 0.40595 0.0
O86 O 0.26954 0.80973 0.44782 0.0
H87 H 0.33254 0.88044 0.38945 0.0
H88 H 0.33688 0.83634 0.54163 0.0
C89 C 0.18271 0.82638 0.38539 0.0
C90 C 0.15876 0.82288 0.41672 0.0
C91 C 0.18889 0.85763 0.48763 0.0
C92 C 0.21243 0.8609 0.45677 0.0
N93 N 0.20902 0.8452 0.40653 0.0
N94 N 0.16277 0.8387 0.46719 0.0
H95 H 0.18055 0.8138 0.34588 0.0
C96 C 0.27039 0.85031 0.60027 0.0
O97 O 0.253 0.85403 0.56573 0.0
O98 O 0.24325 0.85571 0.28002 0.0
H99 H 0.23328 0.87561 0.47345 0.0
H100 H 0.38165 0.8943 0.36189 0.0
H101 H 0.19135 0.86986 0.5279 0.0
Zn102 Zn 0.45269 0.16492 0.86069 0.0
C103 C 0.38519 0.10904 0.95853 0.0
N104 N 0.38806 0.09078 0.92299 0.0
C105 C 0.40909 0.10794 0.88623 0.0
N106 N 0.41889 0.13541 0.8986 0.0
N107 N 0.40364 0.13629 0.94416 0.0
C108 C 0.41866 0.17177 0.09384 0.0
O109 O 0.44155 0.17668 0.06472 0.0
O110 O 0.44525 0.16331 0.77091 0.0
Zn111 Zn 0.40241 0.16941 0.97286 0.0
N112 N 0.48203 0.15585 0.87723 0.0
C113 C 0.50019 0.13633 0.94806 0.0
C114 C 0.48005 0.1434 0.93153 0.0
C115 C 0.50384 0.16211 0.83891 0.0
N116 N 0.52196 0.14263 0.91024 0.0
C117 C 0.52475 0.15556 0.856 0.0
O118 O 0.43816 0.20663 0.95871 0.0
C119 C 0.46123 0.2185 0.92946 0.0
O120 O 0.46768 0.20473 0.8928 0.0
H121 H 0.46288 0.13899 0.96185 0.0
H122 H 0.50469 0.17194 0.79603 0.0
C123 C 0.36144 0.18777 0.95155 0.0
C124 C 0.33986 0.18878 0.91823 0.0
C125 C 0.33994 0.1556 0.84871 0.0
C126 C 0.36127 0.15495 0.8814 0.0
N127 N 0.37159 0.1709 0.93215 0.0
N128 N 0.32988 0.17239 0.86772 0.0
H129 H 0.37015 0.19998 0.9923 0.0
C130 C 0.46006 0.18327 0.73451 0.0
O131 O 0.48179 0.20648 0.7554 0.0
O132 O 0.39703 0.16714 0.06341 0.0
H133 H 0.3697 0.14195 0.86607 0.0
H134 H 0.49874 0.12619 0.99092 0.0
H135 H 0.33151 0.143 0.80824 0.0
Zn136 Zn 0.84986 0.23877 0.63724 0.0
C137 C 0.90405 0.30367 0.53299 0.0
N138 N 0.92329 0.30523 0.57234 0.0
C139 C 0.90754 0.28591 0.61393 0.0
N140 N 0.87971 0.27285 0.60023 0.0
N141 N 0.87757 0.28467 0.54965 0.0
C142 C 0.84401 0.25981 0.40511 0.0
O143 O 0.84683 0.24199 0.44014 0.0
O144 O 0.85701 0.23976 0.72652 0.0
Zn145 Zn 0.84552 0.28659 0.5185 0.0
N146 N 0.84907 0.2059 0.60089 0.0
C147 C 0.86618 0.18808 0.52391 0.0
C148 C 0.86696 0.21074 0.55411 0.0
C149 C 0.83045 0.17902 0.61921 0.0
N150 N 0.84749 0.16137 0.54154 0.0
C151 C 0.82949 0.15593 0.58857 0.0
O152 O 0.80784 0.2609 0.55783 0.0
C153 C 0.79666 0.24218 0.5988 0.0
O154 O 0.81095 0.2338 0.62873 0.0
H155 H 0.8815 0.23204 0.53966 0.0
H156 H 0.81611 0.17575 0.65591 0.0
C157 C 0.84546 0.33905 0.49558 0.0
C158 C 0.85242 0.36694 0.50979 0.0
C159 C 0.87527 0.36459 0.59928 0.0
C160 C 0.86805 0.33701 0.58541 0.0
N161 N 0.85359 0.32485 0.53372 0.0
N162 N 0.86733 0.37881 0.56139 0.0
H163 H 0.83408 0.32881 0.45466 0.0
C164 C 0.85403 0.25782 0.75672 0.0
O165 O 0.84782 0.27498 0.72785 0.0
O166 O 0.84261 0.28016 0.42892 0.0
H167 H 0.87408 0.32537 0.6155 0.0
H168 H 0.88017 0.19165 0.48635 0.0
H169 H 0.88701 0.37463 0.64 0.0
Zn170 Zn 0.72762 0.56684 0.18255 0.0
C171 C 0.74048 0.63492 0.28118 0.0
N172 N 0.71944 0.63261 0.24628 0.0
C173 C 0.71517 0.61182 0.2082 0.0
N174 N 0.73251 0.60147 0.21946 0.0
N175 N 0.74872 0.6163 0.26562 0.0
C176 C 0.76559 0.60384 0.42044 0.0
O177 O 0.74613 0.58076 0.39381 0.0
O178 O 0.73466 0.5723 0.09248 0.0
Zn179 Zn 0.78186 0.61661 0.29777 0.0
N180 N 0.68828 0.53809 0.19365 0.0
C181 C 0.64684 0.52097 0.25313 0.0
C182 C 0.675 0.54076 0.2428 0.0
C183 C 0.67459 0.51593 0.1547 0.0
N184 N 0.6332 0.49888 0.21463 0.0
C185 C 0.64613 0.4954 0.16555 0.0
O186 O 0.78159 0.58003 0.28703 0.0
C187 C 0.77001 0.55671 0.25845 0.0
O188 O 0.7505 0.55061 0.21975 0.0
H189 H 0.68623 0.55818 0.2738 0.0
H190 H 0.68581 0.5146 0.11592 0.0
C191 C 0.84188 0.6542 0.27849 0.0
C192 C 0.86557 0.67551 0.24762 0.0
C193 C 0.8346 0.68002 0.17896 0.0
C194 C 0.81139 0.65908 0.20967 0.0
N195 N 0.81538 0.64653 0.25869 0.0
N196 N 0.86095 0.68766 0.19849 0.0
H197 H 0.84427 0.64338 0.31694 0.0
C198 C 0.75762 0.59094 0.06869 0.0
O199 O 0.77897 0.60741 0.10389 0.0
O200 O 0.78413 0.62357 0.38797 0.0
H201 H 0.79032 0.65272 0.19414 0.0
H202 H 0.63592 0.52297 0.29179 0.0
H203 H 0.83172 0.69011 0.13972 0.0
H204 H 0.11853 0.40078 0.93215 0.0
H205 H 0.08424 0.37535 0.85254 0.0
H206 H 0.0514 0.29852 0.95563 0.0
H207 H 0.08671 0.32387 0.03438 0.0
H208 H 0.04407 0.29399 0.81471 0.0
H209 H 0.03066 0.33819 0.99811 0.0
H210 H 0.0472 0.38008 0.06332 0.0
H211 H 0.04275 0.42754 0.91377 0.0
H212 H 0.02709 0.38623 0.84703 0.0
H213 H 0.91046 0.24318 0.67502 0.0
H214 H 0.94522 0.25117 0.75484 0.0
H215 H 0.97146 0.34 0.75487 0.0
H216 H 0.93522 0.33129 0.68236 0.0
H217 H 0.98119 0.33301 0.85245 0.0
H218 H 1.00439 0.30519 0.66836 0.0
H219 H 0.99898 0.27518 0.58048 0.0
H220 H 0.9947 0.21094 0.69869 0.0
H221 H 0.99979 0.24051 0.7874 0.0
C222 C 0.10581 0.37804 0.93534 0.0
C223 C 0.10587 0.36414 0.98856 0.0
C224 C 0.08577 0.36355 0.89024 0.0
C225 C 0.06502 0.33516 0.89872 0.0
C226 C 0.06731 0.32037 0.9481 0.0
C227 C 0.08758 0.33486 0.993 0.0
C228 C 0.03775 0.32357 0.86615 0.0
C229 C 0.02998 0.30211 0.82319 0.0
C230 C 0.01991 0.33488 0.87621 0.0
C231 C 0.028 0.35917 0.91743 0.0
C232 C 0.03353 0.35764 0.97892 0.0
C233 C 0.04294 0.38136 0.01606 0.0
C234 C 0.04622 0.40651 0.99267 0.0
C235 C 0.04022 0.40805 0.9319 0.0
C236 C 0.03117 0.38453 0.89434 0.0
C237 C 0.92276 0.26398 0.69489 0.0
C238 C 0.92018 0.28662 0.67305 0.0
C239 C 0.94314 0.26878 0.73931 0.0
C240 C 0.96193 0.29645 0.76003 0.0
C241 C 0.95756 0.3184 0.74074 0.0
C242 C 0.93668 0.31341 0.69887 0.0
C243 C 0.9872 0.30363 0.79853 0.0
C244 C 0.99468 0.32424 0.84371 0.0
C245 C 1.00561 0.29291 0.78733 0.0
C246 C 1.00195 0.2748 0.73448 0.0
C247 C 1.00196 0.28452 0.67561 0.0
C248 C 0.99905 0.26764 0.62566 0.0
C249 C 0.99636 0.24111 0.63401 0.0
C250 C 0.99667 0.23145 0.69233 0.0
C251 C 0.99957 0.24825 0.74246 0.0
H252 H 0.99413 0.22808 0.59528 0.0
H253 H 0.05324 0.42474 0.0217 0.0
H254 H 0.72336 0.61771 0.39462 0.0
H255 H 0.71777 0.64624 0.47172 0.0
H256 H 0.76582 0.72067 0.3628 0.0
H257 H 0.77168 0.69186 0.28574 0.0
H258 H 0.74392 0.6905 0.54284 0.0
H259 H 0.7263 0.75539 0.35677 0.0
H260 H 0.7138 0.75171 0.24854 0.0
H261 H 0.67486 0.66148 0.25754 0.0
H262 H 0.68653 0.66458 0.36598 0.0
H263 H 0.69178 0.76348 0.70928 0.0
H264 H 0.72209 0.75843 0.63487 0.0
H265 H 0.64899 0.70677 0.52418 0.0
H266 H 0.61912 0.71217 0.598 0.0
H267 H 0.69066 0.73292 0.45339 0.0
H268 H 0.67397 0.67684 0.63169 0.0
H269 H 0.67416 0.66518 0.73938 0.0
H270 H 0.76417 0.71862 0.74567 0.0
H271 H 0.76451 0.73039 0.63779 0.0
C272 C 0.73452 0.64043 0.38924 0.0
C273 C 0.74879 0.65275 0.33531 0.0
C274 C 0.73088 0.65673 0.43287 0.0
C275 C 0.74089 0.68554 0.42253 0.0
C276 C 0.75766 0.69844 0.37144 0.0
C277 C 0.76139 0.68207 0.32789 0.0
C278 C 0.73013 0.70057 0.46025 0.0
C279 C 0.73279 0.70032 0.52325 0.0
C280 C 0.71457 0.71236 0.43481 0.0
C281 C 0.70784 0.71031 0.36927 0.0
C282 C 0.71512 0.73478 0.3356 0.0
C283 C 0.70809 0.73278 0.27427 0.0
C284 C 0.69368 0.70639 0.24612 0.0
C285 C 0.68615 0.68192 0.27931 0.0
C286 C 0.69299 0.6838 0.34071 0.0
C287 C 0.68257 0.75242 0.66733 0.0
C288 C 0.65331 0.73908 0.65812 0.0
C289 C 0.69977 0.74905 0.6254 0.0
C290 C 0.68781 0.73173 0.57434 0.0
C291 C 0.65885 0.72033 0.56292 0.0
C292 C 0.64176 0.72377 0.6047 0.0
C293 C 0.70441 0.72286 0.53621 0.0
C294 C 0.70274 0.72414 0.47303 0.0
C295 C 0.71948 0.7105 0.56151 0.0
C296 C 0.71921 0.70485 0.62707 0.0
C297 C 0.69375 0.68635 0.65626 0.0
C298 C 0.69379 0.67955 0.71716 0.0
C299 C 0.71916 0.69124 0.74935 0.0
C300 C 0.74454 0.70965 0.72068 0.0
C301 C 0.74464 0.71634 0.65965 0.0
H302 H 0.71915 0.68608 0.79654 0.0
H303 H 0.68828 0.7049 0.19866 0.0
H304 H 0.2955 0.90524 0.2827 0.0
H305 H 0.30095 0.9387 0.20372 0.0
H306 H 0.26907 0.9777 0.32511 0.0
H307 H 0.26153 0.94262 0.40242 0.0
H308 H 0.25948 0.98664 0.2098 0.0
H309 H 0.33692 0.99809 0.32866 0.0
H310 H 0.36877 0.98367 0.37454 0.0
H311 H 0.39577 0.97462 0.19811 0.0
H312 H 0.36369 0.98854 0.15116 0.0
H313 H 0.40003 0.11679 0.0764 0.0
H314 H 0.37262 0.08558 0.15867 0.0
H315 H 0.30258 0.03996 0.03621 0.0
H316 H 0.32913 0.07336 0.95626 0.0
H317 H 0.3614 0.03623 0.15995 0.0
H318 H 0.2427 0.99411 0.10406 0.0
H319 H 0.21207 0.01295 0.0732 0.0
H320 H 0.27112 0.09374 0.14857 0.0
H321 H 0.30191 0.07529 0.18064 0.0
C322 C 0.28736 0.91931 0.29062 0.0
C323 C 0.277 0.92058 0.34768 0.0
C324 C 0.29119 0.93901 0.24602 0.0
C325 C 0.286 0.96113 0.25894 0.0
C326 C 0.27319 0.96085 0.31399 0.0
C327 C 0.26883 0.94076 0.35813 0.0
C328 C 0.29864 0.98694 0.22067 0.0
C329 C 0.28172 0.99749 0.19852 0.0
C330 C 0.32793 1.00191 0.20842 0.0
C331 C 0.34761 0.99397 0.23638 0.0
C332 C 0.34947 0.99279 0.29965 0.0
C333 C 0.36759 0.98475 0.32585 0.0
C334 C 0.38422 0.97814 0.28926 0.0
C335 C 0.38283 0.97968 0.22639 0.0
C336 C 0.36467 0.98763 0.19995 0.0
C337 C 0.37793 0.10192 0.06881 0.0
C338 C 0.36623 0.09855 0.01092 0.0
C339 C 0.36245 0.08328 0.11534 0.0
C340 C 0.33537 0.06012 0.10409 0.0
C341 C 0.32303 0.05788 0.04709 0.0
C342 C 0.33823 0.07708 0.0012 0.0
C343 C 0.32225 0.0361 0.14769 0.0
C344 C 0.33912 0.02566 0.17088 0.0
C345 C 0.29322 0.02215 0.16299 0.0
C346 C 0.2747 0.03334 0.14434 0.0
C347 C 0.24908 0.01585 0.11433 0.0
C348 C 0.2317 0.02647 0.09656 0.0
C349 C 0.23968 0.05454 0.10878 0.0
C350 C 0.26501 0.07203 0.13894 0.0
C351 C 0.28245 0.06151 0.15685 0.0
H352 H 0.22621 0.06273 0.09496 0.0
H353 H 0.39823 0.9719 0.30961 0.0
H354 H 0.12737 0.53753 0.2261 0.0
H355 H 0.14368 0.58236 0.27895 0.0
H356 H 0.22874 0.61066 0.21954 0.0
H357 H 0.21257 0.56488 0.17044 0.0
H358 H 0.23295 0.63239 0.32161 0.0
H359 H 0.18053 0.62812 0.14542 0.0
H360 H 0.13997 0.60886 0.07546 0.0
H361 H 0.08867 0.61531 0.21375 0.0
H362 H 0.12883 0.63423 0.28484 0.0
H363 H 0.23319 0.77583 0.29423 0.0
H364 H 0.2192 0.72847 0.25936 0.0
H365 H 0.23245 0.70629 0.43888 0.0
H366 H 0.24827 0.7546 0.47307 0.0
H367 H 0.17923 0.68113 0.27865 0.0
H368 H 0.24574 0.65208 0.43565 0.0
H369 H 0.29144 0.67561 0.48931 0.0
H370 H 0.32385 0.74343 0.3608 0.0
H371 H 0.27849 0.72014 0.30596 0.0
C372 C 0.14963 0.55318 0.22545 0.0
C373 C 0.16874 0.54785 0.19433 0.0
C374 C 0.15894 0.57894 0.25513 0.0
C375 C 0.18739 0.60046 0.25194 0.0
C376 C 0.20669 0.59461 0.22273 0.0
C377 C 0.19748 0.56846 0.19459 0.0
C378 C 0.19669 0.62935 0.27626 0.0
C379 C 0.22116 0.643 0.3122 0.0
C380 C 0.18184 0.64376 0.26317 0.0
C381 C 0.1576 0.63228 0.22064 0.0
C382 C 0.16054 0.62522 0.16104 0.0
C383 C 0.13763 0.61439 0.12118 0.0
C384 C 0.11173 0.61078 0.14021 0.0
C385 C 0.10872 0.61805 0.19912 0.0
C386 C 0.13154 0.62883 0.23921 0.0
C387 C 0.23317 0.7609 0.32639 0.0
C388 C 0.24182 0.76899 0.38649 0.0
C389 C 0.22508 0.73369 0.30637 0.0
C390 C 0.22487 0.71355 0.3461 0.0
C391 C 0.23301 0.72144 0.40668 0.0
C392 C 0.24185 0.74903 0.42642 0.0
C393 C 0.21567 0.68438 0.32362 0.0
C394 C 0.19106 0.67056 0.28825 0.0
C395 C 0.23117 0.67047 0.33486 0.0
C396 C 0.25861 0.68451 0.36718 0.0
C397 C 0.26265 0.67197 0.41877 0.0
C398 C 0.28849 0.68527 0.44939 0.0
C399 C 0.31049 0.71105 0.42861 0.0
C400 C 0.30675 0.72352 0.37699 0.0
C401 C 0.28098 0.7103 0.34617 0.0
H402 H 0.33046 0.72132 0.45242 0.0
H403 H 0.09403 0.60241 0.10926 0.0
H404 H 0.25182 0.51871 0.10063 0.0
H405 H 0.3005 0.55377 0.07407 0.0
H406 H 0.30968 0.48934 0.98265 0.0
H407 H 0.26131 0.45431 0.00881 0.0
H408 H 0.35656 0.52438 0.05073 0.0
H409 H 0.29566 0.53293 0.9035 0.0
H410 H 0.25702 0.54079 0.8715 0.0
H411 H 0.29893 0.62275 0.95459 0.0
H412 H 0.33767 0.61519 0.9878 0.0
H413 H 0.46317 0.59055 0.83439 0.0
H414 H 0.41991 0.5634 0.89167 0.0
H415 H 0.4259 0.64045 0.95659 0.0
H416 H 0.46906 0.668 0.89778 0.0
H417 H 0.37348 0.60426 0.91756 0.0
H418 H 0.43791 0.59846 0.05217 0.0
H419 H 0.47677 0.59076 0.08305 0.0
H420 H 0.42892 0.50433 0.02553 0.0
H421 H 0.38992 0.5116 0.99343 0.0
C422 C 0.26429 0.51195 0.07537 0.0
C423 C 0.25254 0.48368 0.05659 0.0
C424 C 0.29209 0.53204 0.06005 0.0
C425 C 0.30869 0.52422 0.02597 0.0
C426 C 0.29731 0.49588 0.00898 0.0
C427 C 0.26954 0.47588 0.02379 0.0
C428 C 0.33754 0.54552 0.00562 0.0
C429 C 0.36027 0.5418 0.02145 0.0
C430 C 0.34256 0.56877 0.96892 0.0
C431 C 0.31936 0.57336 0.94878 0.0
C432 C 0.29651 0.55253 0.91539 0.0
C433 C 0.27462 0.55694 0.89695 0.0
C434 C 0.27547 0.58221 0.91118 0.0
C435 C 0.29827 0.60316 0.94372 0.0
C436 C 0.3202 0.59883 0.96234 0.0
C437 C 0.45551 0.60185 0.86117 0.0
C438 C 0.46989 0.63155 0.86166 0.0
C439 C 0.43079 0.58622 0.89437 0.0
C440 C 0.41977 0.59981 0.92925 0.0
C441 C 0.43411 0.62948 0.9304 0.0
C442 C 0.459 0.64522 0.89715 0.0
C443 C 0.39249 0.58277 0.96152 0.0
C444 C 0.36998 0.58722 0.94784 0.0
C445 C 0.38771 0.56023 0.00038 0.0
C446 C 0.41103 0.55565 0.02004 0.0
C447 C 0.43574 0.57786 0.04572 0.0
C448 C 0.45778 0.57356 0.0635 0.0
C449 C 0.45533 0.54708 0.05617 0.0
C450 C 0.43079 0.52483 0.03117 0.0
C451 C 0.40868 0.52902 0.01326 0.0
H452 H 0.47243 0.5438 0.06994 0.0
H453 H 0.2585 0.58559 0.89686 0.0
H454 H 0.51516 0.76012 0.78975 0.0
H455 H 0.48184 0.77551 0.7611 0.0
H456 H 0.53345 0.81935 0.60705 0.0
H457 H 0.56713 0.80477 0.63614 0.0
H458 H 0.51556 0.85059 0.65746 0.0
H459 H 0.47203 0.75278 0.59681 0.0
H460 H 0.45329 0.70189 0.61322 0.0
H461 H 0.39361 0.7 0.74119 0.0
H462 H 0.41226 0.75099 0.72609 0.0
H463 H 0.42391 0.85963 0.45016 0.0
H464 H 0.4537 0.84592 0.50409 0.0
H465 H 0.39692 0.81878 0.65568 0.0
H466 H 0.36692 0.83302 0.60293 0.0
H467 H 0.41485 0.77992 0.62142 0.0
H468 H 0.45568 0.87764 0.67069 0.0
H469 H 0.47434 0.92815 0.64968 0.0
H470 H 0.5393 0.92984 0.53867 0.0
H471 H 0.52077 0.87921 0.55825 0.0
C472 C 0.51952 0.77319 0.74997 0.0
C473 C 0.54384 0.7811 0.71519 0.0
C474 C 0.50034 0.78186 0.73346 0.0
C475 C 0.50487 0.79828 0.68137 0.0
C476 C 0.52944 0.8067 0.64743 0.0
C477 C 0.5487 0.79826 0.66412 0.0
C478 C 0.48401 0.80649 0.6612 0.0
C479 C 0.49359 0.83507 0.64928 0.0
C480 C 0.45509 0.78641 0.65206 0.0
C481 C 0.44376 0.75575 0.66086 0.0
C482 C 0.45505 0.74154 0.62878 0.0
C483 C 0.44442 0.71268 0.63778 0.0
C484 C 0.42234 0.69774 0.67837 0.0
C485 C 0.41076 0.71161 0.70987 0.0
C486 C 0.42134 0.74049 0.70108 0.0
C487 C 0.41753 0.85089 0.49506 0.0
C488 C 0.39263 0.8475 0.52147 0.0
C489 C 0.43474 0.84302 0.52586 0.0
C490 C 0.42767 0.83153 0.58406 0.0
C491 C 0.40273 0.82759 0.61066 0.0
C492 C 0.38547 0.8357 0.57998 0.0
C493 C 0.44666 0.82385 0.61639 0.0
C494 C 0.43673 0.79542 0.63055 0.0
C495 C 0.47533 0.84402 0.62716 0.0
C496 C 0.4867 0.87456 0.61565 0.0
C497 C 0.47382 0.88872 0.64145 0.0
C498 C 0.4844 0.91739 0.62985 0.0
C499 C 0.50796 0.93218 0.59279 0.0
C500 C 0.52104 0.91835 0.56736 0.0
C501 C 0.51053 0.88967 0.57876 0.0
H502 H 0.51612 0.95438 0.58386 0.0
H503 H 0.41415 0.6754 0.6853 0.0
H504 H 0.55076 0.19714 0.76792 0.0
H505 H 0.59491 0.21062 0.71552 0.0
H506 H 0.60138 0.14501 0.80883 0.0
H507 H 0.55715 0.13093 0.86052 0.0
H508 H 0.64995 0.1965 0.81702 0.0
H509 H 0.5844 0.13775 0.66298 0.0
H510 H 0.544 0.12318 0.59403 0.0
H511 H 0.5874 0.2037 0.50548 0.0
H512 H 0.62789 0.21895 0.57466 0.0
H513 H 0.76357 0.19751 0.67244 0.0
H514 H 0.71565 0.1819 0.70634 0.0
H515 H 0.71371 0.24617 0.59723 0.0
H516 H 0.76157 0.26159 0.56188 0.0
H517 H 0.66299 0.19798 0.59492 0.0
H518 H 0.7284 0.25698 0.74663 0.0
H519 H 0.76877 0.2728 0.81627 0.0
H520 H 0.72561 0.19371 0.91037 0.0
H521 H 0.68515 0.1772 0.8406 0.0
C522 C 0.56106 0.18503 0.77639 0.0
C523 C 0.55008 0.16275 0.81858 0.0
C524 C 0.5865 0.19296 0.74654 0.0
C525 C 0.60147 0.17884 0.75834 0.0
C526 C 0.59029 0.15631 0.79928 0.0
C527 C 0.56491 0.14829 0.82879 0.0
C528 C 0.62937 0.18811 0.73027 0.0
C529 C 0.65273 0.19651 0.76848 0.0
C530 C 0.63314 0.18895 0.66689 0.0
C531 C 0.60907 0.1796 0.62443 0.0
C532 C 0.58526 0.15243 0.62909 0.0
C533 C 0.56234 0.14404 0.58994 0.0
C534 C 0.5631 0.16253 0.54551 0.0
C535 C 0.58682 0.18942 0.53999 0.0
C536 C 0.60977 0.19794 0.57914 0.0
C537 C 0.75292 0.20821 0.65512 0.0
C538 C 0.76661 0.23104 0.61492 0.0
C539 C 0.7255 0.19927 0.67468 0.0
C540 C 0.71125 0.21322 0.65528 0.0
C541 C 0.72431 0.23516 0.61301 0.0
C542 C 0.75172 0.24399 0.59298 0.0
C543 C 0.68347 0.20585 0.68181 0.0
C544 C 0.6602 0.19799 0.64344 0.0
C545 C 0.67975 0.2057 0.74518 0.0
C546 C 0.70383 0.21576 0.78802 0.0
C547 C 0.72758 0.24289 0.78195 0.0
C548 C 0.75048 0.25199 0.82145 0.0
C549 C 0.74979 0.23425 0.86763 0.0
C550 C 0.72613 0.20741 0.87453 0.0
C551 C 0.7032 0.19818 0.83503 0.0
H552 H 0.76755 0.24132 0.89812 0.0
H553 H 0.54532 0.156 0.5153 0.0
H554 H 0.87993 0.42397 0.49847 0.0
H555 H 0.86421 0.45295 0.44698 0.0
H556 H 0.78982 0.37804 0.38405 0.0
H557 H 0.80539 0.34862 0.43581 0.0
H558 H 0.81242 0.42072 0.29652 0.0
H559 H 0.78444 0.41089 0.50367 0.0
H560 H 0.79082 0.41185 0.61416 0.0
H561 H 0.85153 0.50043 0.60666 0.0
H562 H 0.84586 0.49991 0.49596 0.0
H563 H 0.74288 0.50011 0.23032 0.0
H564 H 0.75524 0.4651 0.26419 0.0
H565 H 0.82904 0.53071 0.35416 0.0
H566 H 0.81651 0.56554 0.32194 0.0
H567 H 0.80174 0.4883 0.42736 0.0
H568 H 0.83178 0.49755 0.21931 0.0
H569 H 0.82541 0.49659 0.10877 0.0
H570 H 0.76046 0.40946 0.11785 0.0
H571 H 0.76623 0.41001 0.22858 0.0
C572 C 0.86031 0.41353 0.47331 0.0
C573 C 0.84393 0.38388 0.47165 0.0
C574 C 0.85135 0.43019 0.44385 0.0
C575 C 0.82561 0.4177 0.41247 0.0
C576 C 0.80975 0.38813 0.40809 0.0
C577 C 0.81878 0.37133 0.43757 0.0
C578 C 0.81483 0.43574 0.38748 0.0
C579 C 0.80967 0.43523 0.32516 0.0
C580 C 0.81151 0.45488 0.42474 0.0
C581 C 0.8149 0.45529 0.49141 0.0
C582 C 0.79932 0.43053 0.52551 0.0
C583 C 0.80279 0.431 0.58819 0.0
C584 C 0.82162 0.45617 0.6174 0.0
C585 C 0.83698 0.48094 0.58398 0.0
C586 C 0.83363 0.48057 0.52126 0.0
C587 C 0.76192 0.50712 0.25672 0.0
C588 C 0.77862 0.53566 0.27358 0.0
C589 C 0.76902 0.48706 0.27594 0.0
C590 C 0.79318 0.49521 0.31162 0.0
C591 C 0.81023 0.52381 0.32698 0.0
C592 C 0.80304 0.54376 0.30835 0.0
C593 C 0.80016 0.47405 0.33594 0.0
C594 C 0.8044 0.4738 0.39849 0.0
C595 C 0.8026 0.45429 0.29881 0.0
C596 C 0.79924 0.45391 0.23226 0.0
C597 C 0.816 0.47825 0.19777 0.0
C598 C 0.81253 0.47777 0.13508 0.0
C599 C 0.79249 0.453 0.10633 0.0
C600 C 0.77595 0.42864 0.14019 0.0
C601 C 0.77933 0.42901 0.2029 0.0
H602 H 0.78983 0.45267 0.05779 0.0
H603 H 0.82426 0.45649 0.66593 0.0
H604 H 0.45259 0.25623 0.99358 0.0
H605 H 0.48691 0.30507 0.01894 0.0
H606 H 0.5509 0.29857 0.91929 0.0
H607 H 0.5166 0.24948 0.89357 0.0
H608 H 0.56961 0.32265 0.03184 0.0
H609 H 0.52373 0.33615 0.86203 0.0
H610 H 0.48345 0.32992 0.80045 0.0
H611 H 0.45844 0.36615 0.94247 0.0
H612 H 0.49816 0.37202 0.00529 0.0
H613 H 0.66558 0.46839 0.08907 0.0
H614 H 0.63736 0.42429 0.034 0.0
H615 H 0.56125 0.41894 0.10261 0.0
H616 H 0.58906 0.46358 0.15508 0.0
H617 H 0.55273 0.40205 0.99155 0.0
H618 H 0.59323 0.38208 0.16627 0.0
H619 H 0.6323 0.38762 0.23137 0.0
H620 H 0.66628 0.36315 0.084 0.0
H621 H 0.62756 0.35778 0.01782 0.0
C622 C 0.47388 0.26517 0.97654 0.0
C623 C 0.48175 0.24883 0.94137 0.0
C624 C 0.4935 0.29319 0.99098 0.0
C625 C 0.52148 0.30561 0.9707 0.0
C626 C 0.52943 0.28946 0.93536 0.0
C627 C 0.50973 0.26143 0.92046 0.0
C628 C 0.54244 0.33515 0.98821 0.0
C629 C 0.56622 0.34013 0.02203 0.0
C630 C 0.53781 0.3579 0.97637 0.0
C631 C 0.51384 0.35434 0.93857 0.0
C632 C 0.50948 0.34254 0.88033 0.0
C633 C 0.48674 0.33908 0.84516 0.0
C634 C 0.46832 0.34753 0.86753 0.0
C635 C 0.47263 0.3595 0.92513 0.0
C636 C 0.49527 0.36293 0.96054 0.0
C637 C 0.64286 0.45832 0.09146 0.0
C638 C 0.62973 0.46982 0.12691 0.0
C639 C 0.62669 0.43275 0.06043 0.0
C640 C 0.5971 0.41788 0.0649 0.0
C641 C 0.584 0.42983 0.09844 0.0
C642 C 0.60005 0.4554 0.1289 0.0
C643 C 0.57952 0.38948 0.0367 0.0
C644 C 0.55636 0.38468 0.00073 0.0
C645 C 0.58458 0.36684 0.0471 0.0
C646 C 0.60771 0.36985 0.08695 0.0
C647 C 0.60914 0.37806 0.14767 0.0
C648 C 0.6312 0.38114 0.18476 0.0
C649 C 0.65181 0.37583 0.16177 0.0
C650 C 0.65034 0.36732 0.1017 0.0
C651 C 0.62833 0.36423 0.06439 0.0
H652 H 0.66888 0.37825 0.19055 0.0
H653 H 0.45077 0.34488 0.84013 0.0
H654 H 0.90362 0.28626 0.4192 0.0
H655 H 0.93806 0.31523 0.34296 0.0
H656 H 0.96237 0.38952 0.4512 0.0
H657 H 0.92775 0.3603 0.52768 0.0
H658 H 0.95716 0.36036 0.27239 0.0
H659 H 0.0348 0.42421 0.46424 0.0
H660 H 0.03991 0.42053 0.57429 0.0
H661 H 0.99151 0.33011 0.56243 0.0
H662 H 0.98653 0.33327 0.4523 0.0
H663 H 0.08414 0.43159 0.11371 0.0
H664 H 0.04767 0.42642 0.18422 0.0
H665 H 0.06962 0.37776 0.30289 0.0
H666 H 0.10727 0.38467 0.23395 0.0
H667 H 0.0514 0.40149 0.36931 0.0
H668 H 1.00417 0.33941 0.19187 0.0
H669 H 0.98994 0.32679 0.08523 0.0
H670 H 0.97387 0.39563 0.06982 0.0
H671 H 0.98703 0.40794 0.17702 0.0
C672 C 0.91481 0.30898 0.4246 0.0
C673 C 0.91269 0.32116 0.47854 0.0
C674 C 0.9349 0.32555 0.38144 0.0
C675 C 0.9533 0.35444 0.39219 0.0
C676 C 0.94868 0.3672 0.44248 0.0
C677 C 0.92862 0.35058 0.4857 0.0
C678 C 0.9797 0.36966 0.35658 0.0
C679 C 0.97782 0.36985 0.29357 0.0
C680 C 1.00662 0.38115 0.38416 0.0
C681 C 1.00997 0.37904 0.45022 0.0
C682 C 0.02533 0.40357 0.48515 0.0
C683 C 0.02821 0.40156 0.54751 0.0
C684 C 0.01594 0.3751 0.57536 0.0
C685 C 1.00091 0.35059 0.54085 0.0
C686 C 0.99806 0.35249 0.47848 0.0
C687 C 0.08229 0.42134 0.15663 0.0
C688 C 0.09912 0.40934 0.16939 0.0
C689 C 0.06081 0.41759 0.19617 0.0
C690 C 0.05506 0.40082 0.24814 0.0
C691 C 0.0734 0.39073 0.26317 0.0
C692 C 0.09523 0.39498 0.22413 0.0
C693 C 0.02898 0.39192 0.28442 0.0
C694 C 0.03089 0.39288 0.34787 0.0
C695 C 1.0019 0.38014 0.25726 0.0
C696 C 0.99712 0.37492 0.1917 0.0
C697 C 0.99791 0.35201 0.16539 0.0
C698 C 0.9896 0.34465 0.10524 0.0
C699 C 0.98102 0.36043 0.07082 0.0
C700 C 0.98055 0.38347 0.09655 0.0
C701 C 0.98824 0.39053 0.15704 0.0
H702 H 0.975 0.35503 0.02404 0.0
H703 H 0.01814 0.3736 0.62364 0.0
H704 H 0.66039 0.59573 0.22059 0.0
H705 H 0.63113 0.60019 0.1433 0.0
H706 H 0.6941 0.6151 0.00888 0.0
H707 H 0.72437 0.61348 0.08775 0.0
H708 H 0.68554 0.65577 0.00791 0.0
H709 H 0.62344 0.55723 0.00342 0.0
H710 H 0.59345 0.50951 0.0451 0.0
H711 H 0.53845 0.53554 0.123 0.0
H712 H 0.56846 0.58361 0.08297 0.0
H713 H 0.58363 0.65174 0.77997 0.0
H714 H 0.58934 0.62282 0.85669 0.0
H715 H 0.62432 0.69357 0.97947 0.0
H716 H 0.62006 0.72269 0.90176 0.0
H717 H 0.58196 0.60512 0.9759 0.0
H718 H 0.6939 0.70512 0.01548 0.0
H719 H 0.7244 0.75065 0.9655 0.0
H720 H 0.68308 0.71611 0.79619 0.0
H721 H 0.65321 0.66995 0.84441 0.0
C722 C 0.66731 0.59863 0.17396 0.0
C723 C 0.6942 0.60319 0.15955 0.0
C724 C 0.65054 0.60112 0.12967 0.0
C725 C 0.66025 0.60784 0.06993 0.0
C726 C 0.68604 0.60975 0.05454 0.0
C727 C 0.70309 0.60794 0.09928 0.0
C728 C 0.64625 0.61789 0.02713 0.0
C729 C 0.66292 0.64451 0.0006 0.0
C730 C 0.61673 0.60314 0.017 0.0
C731 C 0.59832 0.57411 0.04041 0.0
C732 C 0.60506 0.55285 0.02977 0.0
C733 C 0.58805 0.52572 0.05311 0.0
C734 C 0.56408 0.5195 0.08671 0.0
C735 C 0.55703 0.54039 0.09695 0.0
C736 C 0.57403 0.56758 0.0739 0.0
C737 C 0.59097 0.66053 0.82464 0.0
C738 C 0.60088 0.68925 0.83559 0.0
C739 C 0.59426 0.64401 0.86844 0.0
C740 C 0.60782 0.65626 0.92324 0.0
C741 C 0.61394 0.68378 0.93732 0.0
C742 C 0.61094 0.70035 0.89327 0.0
C743 C 0.62131 0.6431 0.95825 0.0
C744 C 0.60459 0.61613 0.98319 0.0
C745 C 0.65105 0.65701 0.96499 0.0
C746 C 0.67035 0.68425 0.93436 0.0
C747 C 0.6912 0.70716 0.96762 0.0
C748 C 0.70859 0.73306 0.93944 0.0
C749 C 0.7055 0.73633 0.87779 0.0
C750 C 0.68533 0.71357 0.84401 0.0
C751 C 0.66821 0.6875 0.87177 0.0
H752 H 0.71884 0.75644 0.85612 0.0
H753 H 0.55094 0.49849 0.10475 0.0
H754 H 0.4394 0.0816 0.8962 0.0
H755 H 0.43869 0.0475 0.82373 0.0
H756 H 0.39423 0.0709 0.6962 0.0
H757 H 0.39599 0.1056 0.76804 0.0
H758 H 0.39317 1.0039 0.79707 0.0
H759 H 0.39498 0.04655 0.5516 0.0
H760 H 0.42231 0.08972 0.49267 0.0
H761 H 0.49024 0.11952 0.62104 0.0
H762 H 0.46396 0.07542 0.67906 0.0
H763 H 0.2925 0.91179 0.58902 0.0
H764 H 0.32507 0.94386 0.66502 0.0
H765 H 0.39541 0.95874 0.55244 0.0
H766 H 0.36253 0.92703 0.47579 0.0
H767 H 0.3988 1.00546 0.57377 0.0
H768 H 0.38523 0.93109 0.69949 0.0
H769 H 0.36363 0.88783 0.76115 0.0
H770 H 0.32565 0.92272 0.87553 0.0
H771 H 0.34558 0.96547 0.81287 0.0
C772 C 0.43098 0.08053 0.8513 0.0
C773 C 0.41834 0.09659 0.8369 0.0
C774 C 0.43023 0.06079 0.81015 0.0
C775 C 0.41625 0.05636 0.75438 0.0
C776 C 0.4056 0.07411 0.73825 0.0
C777 C 0.40674 0.09413 0.77918 0.0
C778 C 0.4084 0.03041 0.71828 0.0
C779 C 0.39453 1.00424 0.74818 0.0
C780 C 0.4111 0.0308 0.65464 0.0
C781 C 0.42725 0.05761 0.62023 0.0
C782 C 0.41583 0.06213 0.56723 0.0
C783 C 0.43119 0.08687 0.53388 0.0
C784 C 0.45789 0.10766 0.55347 0.0
C785 C 0.46945 0.1035 0.60611 0.0
C786 C 0.45436 0.07851 0.63914 0.0
C787 C 0.31493 0.92057 0.58224 0.0
C788 C 0.32504 0.91617 0.52755 0.0
C789 C 0.33365 0.93912 0.62562 0.0
C790 C 0.36287 0.95384 0.61481 0.0
C791 C 0.37303 0.94765 0.56208 0.0
C792 C 0.35425 0.92916 0.51859 0.0
C793 C 0.38175 0.97904 0.65232 0.0
C794 C 0.39774 1.00509 0.6227 0.0
C795 C 0.38117 0.97853 0.71628 0.0
C796 C 0.36702 0.95167 0.75116 0.0
C797 C 0.37178 0.92936 0.73696 0.0
C798 C 0.35979 0.90486 0.77218 0.0
C799 C 0.3433 0.90254 0.82228 0.0
C800 C 0.33827 0.92444 0.83654 0.0
C801 C 0.34985 0.94879 0.80103 0.0
H802 H 0.33447 0.88381 0.85021 0.0
H803 H 0.46966 0.12691 0.52769 0.0
H804 H 0.20248 0.32385 0.96031 0.0
H805 H 0.2288 0.30011 0.93166 0.0
H806 H 0.26652 0.31652 0.10898 0.0
H807 H 0.23961 0.33931 0.13844 0.0
H808 H 0.30377 0.32649 0.98937 0.0
H809 H 0.22126 0.25923 0.10789 0.0
H810 H 0.17014 0.23361 0.12822 0.0
H811 H 0.1539 0.19905 0.94874 0.0
H812 H 0.20495 0.22487 0.92711 0.0
H813 H 0.35956 0.23397 0.00015 0.0
H814 H 0.33808 0.26237 0.02396 0.0
H815 H 0.27136 0.21451 0.89604 0.0
H816 H 0.29169 0.18516 0.87388 0.0
H817 H 0.24888 0.22179 0.98901 0.0
H818 H 0.32666 0.28304 0.8668 0.0
H819 H 0.37578 0.31066 0.83132 0.0
H820 H 0.39978 0.35781 0.99713 0.0
H821 H 0.35081 0.3302 0.03402 0.0
C822 C 0.21682 0.32286 0.99267 0.0
C823 C 0.21912 0.33348 0.05151 0.0
C824 C 0.23173 0.30924 0.97638 0.0
C825 C 0.24959 0.30662 0.01827 0.0
C826 C 0.25294 0.31844 0.07599 0.0
C827 C 0.23753 0.33138 0.09275 0.0
C828 C 0.26313 0.28973 0.00365 0.0
C829 C 0.29197 0.3036 0.98996 0.0
C830 C 0.24744 0.25993 0.00245 0.0
C831 C 0.21684 0.24423 0.01568 0.0
C832 C 0.20676 0.2464 0.07259 0.0
C833 C 0.17781 0.2318 0.08439 0.0
C834 C 0.15877 0.21478 0.03973 0.0
C835 C 0.16866 0.21228 0.98325 0.0
C836 C 0.19759 0.22688 0.97121 0.0
C837 C 0.34012 0.229 0.9775 0.0
C838 C 0.32742 0.20676 0.93518 0.0
C839 C 0.32801 0.24569 0.9907 0.0
C840 C 0.30316 0.24088 0.96143 0.0
C841 C 0.29046 0.21874 0.91949 0.0
C842 C 0.30235 0.20197 0.90663 0.0
C843 C 0.28995 0.25842 0.97488 0.0
C844 C 0.261 0.24468 0.98845 0.0
C845 C 0.30547 0.28837 0.97433 0.0
C846 C 0.33513 0.30434 0.95344 0.0
C847 C 0.34247 0.29905 0.89604 0.0
C848 C 0.37026 0.31475 0.8756 0.0
C849 C 0.39085 0.33595 0.91197 0.0
C850 C 0.38377 0.34137 0.96905 0.0
C851 C 0.35601 0.32571 0.98974 0.0
H852 H 0.41223 0.34831 0.89568 0.0
H853 H 0.13637 0.20349 0.04895 0.0
H854 H 0.68441 0.88253 0.62794 0.0
H855 H 0.70482 0.93235 0.60076 0.0
H856 H 0.72366 0.95585 0.78826 0.0
H857 H 0.70304 0.90623 0.81594 0.0
H858 H 0.70377 0.98709 0.7307 0.0
H859 H 0.77418 0.9602 0.69664 0.0
H860 H 0.7925 0.93127 0.65234 0.0
H861 H 0.77941 0.95343 0.47387 0.0
H862 H 0.76065 0.9822 0.51716 0.0
H863 H 0.81033 0.13245 0.70148 0.0
H864 H 0.78126 0.08227 0.72611 0.0
H865 H 0.77445 0.0614 0.53646 0.0
H866 H 0.80406 0.11127 0.51193 0.0
H867 H 0.78615 0.02809 0.5931 0.0
H868 H 0.7178 0.0567 0.62456 0.0
H869 H 0.69879 0.08537 0.66696 0.0
H870 H 0.70642 0.05996 0.84633 0.0
H871 H 0.72584 0.03143 0.80505 0.0
C872 C 0.69235 0.89818 0.6636 0.0
C873 C 0.69198 0.89022 0.72428 0.0
C874 C 0.70426 0.92675 0.64789 0.0
C875 C 0.71601 0.94794 0.69242 0.0
C876 C 0.71474 0.93996 0.75308 0.0
C877 C 0.70307 0.91152 0.76876 0.0
C878 C 0.73097 0.97847 0.6759 0.0
C879 C 0.72192 0.99614 0.70094 0.0
C880 C 0.75431 0.99023 0.63616 0.0
C881 C 0.76574 0.9731 0.61012 0.0
C882 C 0.77501 0.95873 0.64794 0.0
C883 C 0.78551 0.94239 0.62303 0.0
C884 C 0.78704 0.94045 0.56033 0.0
C885 C 0.77816 0.95491 0.52242 0.0
C886 C 0.76762 0.97125 0.54712 0.0
C887 C 0.80221 0.11722 0.66498 0.0
C888 C 0.80946 0.12595 0.60465 0.0
C889 C 0.78554 0.08844 0.67911 0.0
C890 C 0.77533 0.06782 0.63316 0.0
C891 C 0.78206 0.0767 0.5729 0.0
C892 C 0.79899 0.10531 0.55889 0.0
C893 C 0.75895 0.03697 0.64756 0.0
C894 C 0.76784 0.01916 0.62238 0.0
C895 C 0.73533 0.02511 0.68675 0.0
C896 C 0.72353 0.04214 0.71172 0.0
C897 C 0.71561 0.05739 0.67308 0.0
C898 C 0.70474 0.07359 0.69691 0.0
C899 C 0.70147 0.07455 0.75931 0.0
C900 C 0.709 0.05923 0.79801 0.0
C901 C 0.71992 0.04301 0.77441 0.0
H902 H 0.69305 0.08711 0.77768 0.0
H903 H 0.79517 0.92779 0.54112 0.0
H904 H 0.88687 0.67446 0.36125 0.0
H905 H 0.9363 0.69415 0.38992 0.0
H906 H 0.96149 0.71992 0.20568 0.0
H907 H 0.91221 0.69959 0.17612 0.0
H908 H 0.99312 0.70008 0.25495 0.0
H909 H 0.9635 0.76647 0.31186 0.0
H910 H 0.93329 0.78127 0.36393 0.0
H911 H 0.95457 0.75991 0.53524 0.0
H912 H 0.98464 0.74466 0.48406 0.0
H913 H 0.13675 0.80859 0.30125 0.0
H914 H 0.08704 0.77904 0.27294 0.0
H915 H 0.06465 0.76156 0.46123 0.0
H916 H 0.11399 0.79167 0.48959 0.0
H917 H 0.031 0.77496 0.41172 0.0
H918 H 0.06268 0.71083 0.35704 0.0
H919 H 0.09261 0.6954 0.30603 0.0
H920 H 0.06764 0.71125 0.13309 0.0
H921 H 0.03783 0.72712 0.18308 0.0
C922 C 0.90275 0.68371 0.3264 0.0
C923 C 0.89531 0.6853 0.26613 0.0
C924 C 0.93115 0.69526 0.34309 0.0
C925 C 0.95273 0.70886 0.30011 0.0
C926 C 0.94531 0.7096 0.23973 0.0
C927 C 0.91702 0.69808 0.22301 0.0
C928 C 0.98306 0.72359 0.31815 0.0
C929 C 1.00148 0.7166 0.28894 0.0
C930 C 0.99396 0.74478 0.36329 0.0
C931 C 0.97608 0.75417 0.39409 0.0
C932 C 0.96158 0.76476 0.3606 0.0
C933 C 0.94451 0.77325 0.38995 0.0
C934 C 0.94195 0.77146 0.45284 0.0
C935 C 0.95653 0.76125 0.48652 0.0
C936 C 0.97361 0.7527 0.45738 0.0
C937 C 0.12129 0.798 0.33648 0.0
C938 C 0.12936 0.80244 0.3977 0.0
C939 C 0.0928 0.78105 0.32027 0.0
C940 C 0.0719 0.76779 0.36488 0.0
C941 C 0.08019 0.77159 0.42586 0.0
C942 C 0.10848 0.7888 0.44204 0.0
C943 C 0.04128 0.75142 0.34881 0.0
C944 C 0.02275 0.75824 0.37816 0.0
C945 C 0.03034 0.72998 0.30405 0.0
C946 C 0.04822 0.72041 0.27385 0.0
C947 C 0.06374 0.71123 0.30814 0.0
C948 C 0.08065 0.70236 0.27941 0.0
C949 C 0.08208 0.70241 0.21637 0.0
C950 C 0.06654 0.71126 0.18192 0.0
C951 C 0.04961 0.72016 0.21043 0.0
H952 H 0.09518 0.69553 0.19421 0.0
H953 H 0.92871 0.77803 0.47548 0.0
H954 H 0.16661 0.4611 0.33722 0.0
H955 H 0.1656 0.45715 0.44716 0.0
H956 H 0.1712 0.38158 0.43314 0.0
H957 H 0.17197 0.3852 0.32273 0.0
H958 H 0.13238 0.37644 0.51803 0.0
H959 H 0.22873 0.44253 0.46949 0.0
H960 H 0.26753 0.48483 0.42154 0.0
H961 H 0.24396 0.53756 0.51913 0.0
H962 H 0.20475 0.49552 0.56706 0.0
H963 H 0.16986 0.37642 0.82889 0.0
H964 H 0.16739 0.37531 0.71832 0.0
H965 H 0.1685 0.45464 0.71863 0.0
H966 H 0.17171 0.45625 0.82859 0.0
H967 H 0.2046 0.45626 0.63964 0.0
H968 H 0.10752 0.38955 0.68796 0.0
H969 H 0.06863 0.34687 0.73468 0.0
H970 H 0.09355 0.29504 0.63774 0.0
H971 H 0.13278 0.33742 0.59095 0.0
C972 C 0.16763 0.44361 0.35739 0.0
C973 C 0.16963 0.4236 0.32117 0.0
C974 C 0.16709 0.44142 0.4203 0.0
C975 C 0.16867 0.41927 0.44834 0.0
C976 C 0.17003 0.39888 0.41238 0.0
C977 C 0.1706 0.40107 0.34932 0.0
C978 C 0.16939 0.41777 0.51523 0.0
C979 C 0.14836 0.39372 0.54473 0.0
C980 C 0.18998 0.44051 0.54995 0.0
C981 C 0.21365 0.46585 0.52144 0.0
C982 C 0.23169 0.46313 0.48038 0.0
C983 C 0.25377 0.48706 0.45326 0.0
C984 C 0.25817 0.51386 0.46716 0.0
C985 C 0.24052 0.51678 0.50835 0.0
C986 C 0.21837 0.49292 0.53555 0.0
C987 C 0.16945 0.39355 0.80534 0.0
C988 C 0.17117 0.41651 0.83749 0.0
C989 C 0.16787 0.39281 0.74215 0.0
C990 C 0.16755 0.4148 0.71007 0.0
C991 C 0.1688 0.43747 0.7423 0.0
C992 C 0.17061 0.43834 0.80526 0.0
C993 C 0.16729 0.41508 0.6429 0.0
C994 C 0.18854 0.43894 0.61319 0.0
C995 C 0.14688 0.39214 0.60815 0.0
C996 C 0.12328 0.36669 0.63645 0.0
C997 C 0.10485 0.36907 0.677 0.0
C998 C 0.08271 0.34492 0.70343 0.0
C999 C 0.07873 0.31829 0.68937 0.0
C1000 C 0.09673 0.31571 0.64867 0.0
C1001 C 0.11889 0.33977 0.62215 0.0
H1002 H 0.06171 0.29959 0.70983 0.0
H1003 H 0.27528 0.53236 0.44612 0.0
H1004 H 0.65034 0.79892 0.49744 0.0
H1005 H 0.65309 0.79862 0.38694 0.0
H1006 H 0.57793 0.71657 0.38173 0.0
H1007 H 0.57503 0.71666 0.49187 0.0
H1008 H 0.61881 0.72106 0.30137 0.0
H1009 H 0.57276 0.77343 0.35675 0.0
H1010 H 0.56914 0.81107 0.40984 0.0
H1011 H 0.64384 0.87396 0.3203 0.0
H1012 H 0.64813 0.83664 0.26729 0.0
H1013 H 0.56594 0.71252 0.00489 0.0
H1014 H 0.5738 0.71381 0.11375 0.0
H1015 H 0.64354 0.79905 0.09895 0.0
H1016 H 0.63554 0.79808 0.98989 0.0
H1017 H 0.61058 0.79512 0.18945 0.0
H1018 H 0.65402 0.74303 0.12563 0.0
H1019 H 0.65861 0.70573 0.07425 0.0
H1020 H 0.59048 0.6425 0.17929 0.0
H1021 H 0.58505 0.67944 0.23081 0.0
C1022 C 0.63452 0.78072 0.47279 0.0
C1023 C 0.61226 0.75796 0.50338 0.0
C1024 C 0.63611 0.7806 0.40968 0.0
C1025 C 0.61554 0.75769 0.37612 0.0
C1026 C 0.594 0.73447 0.40673 0.0
C1027 C 0.59229 0.73465 0.4697 0.0
C1028 C 0.61546 0.75843 0.30906 0.0
C1029 C 0.61678 0.73709 0.27674 0.0
C1030 C 0.6136 0.77981 0.27708 0.0
C1031 C 0.61094 0.80225 0.30861 0.0
C1032 C 0.58854 0.79528 0.34876 0.0
C1033 C 0.58635 0.81655 0.37877 0.0
C1034 C 0.6063 0.84488 0.36859 0.0
C1035 C 0.62844 0.852 0.32823 0.0
C1036 C 0.63075 0.8308 0.29817 0.0
C1037 C 0.58296 0.73158 0.02471 0.0
C1038 C 0.60001 0.75528 0.98866 0.0
C1039 C 0.5876 0.73218 0.08698 0.0
C1040 C 0.6095 0.7564 0.11457 0.0
C1041 C 0.62657 0.78009 0.07868 0.0
C1042 C 0.62195 0.77951 0.01633 0.0
C1043 C 0.61356 0.75749 0.18123 0.0
C1044 C 0.61292 0.77919 0.21369 0.0
C1045 C 0.61609 0.73643 0.21321 0.0
C1046 C 0.61894 0.71405 0.18167 0.0
C1047 C 0.63979 0.72117 0.13738 0.0
C1048 C 0.6426 0.70007 0.10832 0.0
C1049 C 0.62486 0.67174 0.12336 0.0
C1050 C 0.60421 0.66445 0.1676 0.0
C1051 C 0.60125 0.68547 0.19679 0.0
H1052 H 0.62716 0.65547 0.10091 0.0
H1053 H 0.60456 0.86132 0.39186 0.0
H1054 H 0.30055 0.83984 0.6844 0.0
H1055 H 0.29778 0.84165 0.79407 0.0
H1056 H 0.23461 0.8662 0.77713 0.0
H1057 H 0.23717 0.86431 0.66691 0.0
H1058 H 0.27193 0.89678 0.86363 0.0
H1059 H 0.21637 0.79851 0.81502 0.0
H1060 H 0.20619 0.75363 0.76748 0.0
H1061 H 0.27448 0.75519 0.86625 0.0
H1062 H 0.28531 0.80029 0.9138 0.0
H1063 H 0.22986 0.86613 0.17467 0.0
H1064 H 0.23131 0.86831 0.064 0.0
H1065 H 0.29551 0.84475 0.06367 0.0
H1066 H 0.2939 0.84211 0.17363 0.0
H1067 H 0.25454 0.81357 0.9856 0.0
H1068 H 0.31104 0.91191 0.03396 0.0
H1069 H 0.32094 0.95618 0.08405 0.0
H1070 H 0.25241 0.95515 0.98756 0.0
H1071 H 0.24168 0.9105 0.93776 0.0
C1072 C 0.28601 0.84558 0.70389 0.0
C1073 C 0.26884 0.85161 0.66688 0.0
C1074 C 0.28445 0.84662 0.76671 0.0
C1075 C 0.26582 0.85386 0.79398 0.0
C1076 C 0.24912 0.86054 0.75714 0.0
C1077 C 0.25049 0.85928 0.69416 0.0
C1078 C 0.26348 0.85388 0.86089 0.0
C1079 C 0.26782 0.8785 0.89035 0.0
C1080 C 0.25838 0.83013 0.89581 0.0
C1081 C 0.25178 0.80289 0.86761 0.0
C1082 C 0.22933 0.78937 0.82631 0.0
C1083 C 0.22342 0.76389 0.7994 0.0
C1084 C 0.23971 0.7516 0.81375 0.0
C1085 C 0.26189 0.76475 0.85515 0.0
C1086 C 0.2679 0.79025 0.88215 0.0
C1087 C 0.24436 0.86154 0.15097 0.0
C1088 C 0.26163 0.85378 0.18292 0.0
C1089 C 0.24527 0.86293 0.08777 0.0
C1090 C 0.2636 0.85678 0.05558 0.0
C1091 C 0.28114 0.84948 0.08755 0.0
C1092 C 0.28022 0.84805 0.15049 0.0
C1093 C 0.26383 0.85672 0.98851 0.0
C1094 C 0.25878 0.83193 0.95899 0.0
C1095 C 0.26851 0.88041 0.95382 0.0
C1096 C 0.27534 0.90764 0.98261 0.0
C1097 C 0.29793 0.92099 0.02373 0.0
C1098 C 0.30371 0.94617 0.05206 0.0
C1099 C 0.28728 0.95844 0.03913 0.0
C1100 C 0.26509 0.94559 0.99762 0.0
C1101 C 0.25915 0.92034 0.96931 0.0
H1102 H 0.29177 0.97792 0.06115 0.0
H1103 H 0.23511 0.73187 0.79285 0.0
H1104 H 0.48736 0.22149 0.64405 0.0
H1105 H 0.47446 0.21704 0.53721 0.0
H1106 H 0.40252 0.13466 0.57096 0.0
H1107 H 0.41567 0.13868 0.67749 0.0
H1108 H 0.42658 0.1327 0.47355 0.0
H1109 H 0.39582 0.19421 0.54636 0.0
H1110 H 0.39952 0.23558 0.59917 0.0
H1111 H 0.46437 0.29095 0.4764 0.0
H1112 H 0.46134 0.24991 0.42333 0.0
H1113 H 0.3793 0.17145 0.17097 0.0
H1114 H 0.37968 0.17016 0.28201 0.0
H1115 H 0.45658 0.16682 0.27787 0.0
H1116 H 0.45653 0.16836 0.16777 0.0
H1117 H 0.42084 0.20818 0.36229 0.0
H1118 H 0.45296 0.12208 0.38838 0.0
H1119 H 0.44357 0.07793 0.33835 0.0
H1120 H 0.36526 0.06637 0.2689 0.0
H1121 H 0.37413 0.11036 0.31847 0.0
C1122 C 0.46876 0.20243 0.6288 0.0
C1123 C 0.45246 0.18052 0.6695 0.0
C1124 C 0.46128 0.2 0.5677 0.0
C1125 C 0.43716 0.17576 0.54609 0.0
C1126 C 0.4211 0.15368 0.58651 0.0
C1127 C 0.42864 0.15603 0.64753 0.0
C1128 C 0.42925 0.17305 0.481 0.0
C1129 C 0.42519 0.14909 0.44939 0.0
C1130 C 0.42668 0.1942 0.44957 0.0
C1131 C 0.42849 0.21897 0.48115 0.0
C1132 C 0.41101 0.21521 0.53087 0.0
C1133 C 0.41297 0.2386 0.56082 0.0
C1134 C 0.4322 0.26587 0.54122 0.0
C1135 C 0.44948 0.26981 0.49154 0.0
C1136 C 0.44763 0.24649 0.46146 0.0
C1137 C 0.39621 0.17035 0.19384 0.0
C1138 C 0.41796 0.17014 0.16064 0.0
C1139 C 0.39643 0.16969 0.25716 0.0
C1140 C 0.41808 0.16825 0.28807 0.0
C1141 C 0.43955 0.16768 0.2549 0.0
C1142 C 0.43955 0.1687 0.19192 0.0
C1143 C 0.41903 0.16811 0.35504 0.0
C1144 C 0.4219 0.19158 0.38682 0.0
C1145 C 0.41974 0.14613 0.38705 0.0
C1146 C 0.4144 0.11972 0.35663 0.0
C1147 C 0.43375 0.11013 0.36237 0.0
C1148 C 0.42853 0.08514 0.334 0.0
C1149 C 0.40395 0.06947 0.30002 0.0
C1150 C 0.38444 0.07866 0.29463 0.0
C1151 C 0.3896 0.10368 0.32272 0.0
H1152 H 0.40001 0.05019 0.27797 0.0
H1153 H 0.43369 0.28396 0.56448 0.0
H1154 H 0.83491 0.29085 0.32101 0.0
H1155 H 0.8367 0.28795 0.21118 0.0
H1156 H 0.85604 0.22103 0.22836 0.0
H1157 H 0.85436 0.22381 0.33868 0.0
H1158 H 0.89054 0.26218 0.14624 0.0
H1159 H 0.79174 0.20494 0.18628 0.0
H1160 H 0.74599 0.19375 0.23012 0.0
H1161 H 0.74799 0.26228 0.13162 0.0
H1162 H 0.79399 0.27417 0.08787 0.0
H1163 H 0.86852 0.22699 0.83092 0.0
H1164 H 0.86755 0.22569 0.94156 0.0
H1165 H 0.84166 0.28819 0.94386 0.0
H1166 H 0.84221 0.28934 0.83367 0.0
H1167 H 0.80951 0.24549 0.01689 0.0
H1168 H 0.90875 0.30522 0.98308 0.0
H1169 H 0.9554 0.31884 0.94159 0.0
H1170 H 0.95349 0.24786 0.02863 0.0
H1171 H 0.90651 0.23362 0.07051 0.0
C1172 C 0.83942 0.2754 0.30154 0.0
C1173 C 0.84433 0.25744 0.33858 0.0
C1174 C 0.84037 0.27373 0.23873 0.0
C1175 C 0.84623 0.25409 0.21169 0.0
C1176 C 0.85139 0.23627 0.24843 0.0
C1177 C 0.85029 0.23781 0.31139 0.0
C1178 C 0.84732 0.25254 0.14498 0.0
C1179 C 0.87268 0.25801 0.11786 0.0
C1180 C 0.8242 0.24778 0.10816 0.0
C1181 C 0.79646 0.2406 0.13421 0.0
C1182 C 0.78255 0.21778 0.17435 0.0
C1183 C 0.75654 0.21128 0.19911 0.0
C1184 C 0.74412 0.22734 0.18378 0.0
C1185 C 0.75765 0.24988 0.14351 0.0
C1186 C 0.78368 0.25649 0.11867 0.0
C1187 C 0.86279 0.24058 0.85505 0.0
C1188 C 0.8554 0.25823 0.82352 0.0
C1189 C 0.86236 0.2399 0.91826 0.0
C1190 C 0.85465 0.25694 0.951 0.0
C1191 C 0.84763 0.27482 0.91955 0.0
C1192 C 0.84808 0.27554 0.8565 0.0
C1193 C 0.85289 0.25554 0.01794 0.0
C1194 C 0.82733 0.24943 0.04516 0.0
C1195 C 0.87588 0.25988 0.0548 0.0
C1196 C 0.90393 0.26812 0.02916 0.0
C1197 C 0.9181 0.29229 0.99276 0.0
C1198 C 0.94463 0.30012 0.96914 0.0
C1199 C 0.95738 0.28411 0.98192 0.0
C1200 C 0.94357 0.26021 0.01855 0.0
C1201 C 0.91698 0.25224 0.04229 0.0
H1202 H 0.978 0.29031 0.96382 0.0
H1203 H 0.72398 0.22227 0.203 0.0
H1204 H 0.80641 0.64471 0.49283 0.0
H1205 H 0.80639 0.64773 0.60345 0.0
H1206 H 0.72418 0.57284 0.60876 0.0
H1207 H 0.72405 0.56963 0.49869 0.0
H1208 H 0.72865 0.61454 0.68656 0.0
H1209 H 0.7808 0.56756 0.63693 0.0
H1210 H 0.81866 0.56336 0.5868 0.0
H1211 H 0.88107 0.63849 0.67677 0.0
H1212 H 0.84353 0.64332 0.72688 0.0
H1213 H 0.71638 0.56224 0.98417 0.0
H1214 H 0.71895 0.57004 0.8752 0.0
H1215 H 0.80468 0.63846 0.8938 0.0
H1216 H 0.80246 0.6304 0.00293 0.0
H1217 H 0.80124 0.60598 0.80376 0.0
H1218 H 0.74841 0.64978 0.86304 0.0
H1219 H 0.71034 0.65469 0.90988 0.0
H1220 H 0.64892 0.58646 0.80116 0.0
H1221 H 0.68654 0.58085 0.75422 0.0
C1222 C 0.78828 0.62898 0.51757 0.0
C1223 C 0.76535 0.60677 0.487 0.0
C1224 C 0.78832 0.63071 0.58075 0.0
C1225 C 0.76537 0.61037 0.61436 0.0
C1226 C 0.74211 0.58875 0.58375 0.0
C1227 C 0.74215 0.58686 0.5208 0.0
C1228 C 0.76581 0.61081 0.68149 0.0
C1229 C 0.74437 0.61247 0.71237 0.0
C1230 C 0.78681 0.60892 0.71499 0.0
C1231 C 0.80937 0.60598 0.68507 0.0
C1232 C 0.8026 0.58331 0.64562 0.0
C1233 C 0.82399 0.58079 0.61729 0.0
C1234 C 0.85225 0.6007 0.62844 0.0
C1235 C 0.85917 0.62312 0.66809 0.0
C1236 C 0.83785 0.62575 0.69649 0.0
C1237 C 0.73582 0.57895 0.96517 0.0
C1238 C 0.75928 0.5956 0.00236 0.0
C1239 C 0.73716 0.58358 0.90279 0.0
C1240 C 0.76187 0.60513 0.87618 0.0
C1241 C 0.78533 0.62177 0.91322 0.0
C1242 C 0.78404 0.61711 0.97565 0.0
C1243 C 0.76371 0.60922 0.80942 0.0
C1244 C 0.78563 0.60841 0.7784 0.0
C1245 C 0.74309 0.6119 0.77586 0.0
C1246 C 0.72034 0.61472 0.80548 0.0
C1247 C 0.72676 0.63557 0.84967 0.0
C1248 C 0.70524 0.6385 0.87619 0.0
C1249 C 0.67722 0.62082 0.85863 0.0
C1250 C 0.67064 0.60012 0.81472 0.0
C1251 C 0.69205 0.59706 0.78814 0.0
H1252 H 0.66056 0.62317 0.87873 0.0
H1253 H 0.86879 0.5987 0.60647 0.0
loop_
_geom_bond_atom_site_label_1
_geom_bond_atom_site_label_2
_geom_bond_distance
_geom_bond_site_symmetry_2
_ccdc_geom_bond_type
Zn0 N4 2.020 . S
Zn0 O8 2.019 1_554 S
Zn0 N10 2.119 . S
Zn0 O18 1.975 . S
C1 N2 1.334 . S
C1 N5 1.336 . S
N2 C1 1.334 . S
N2 C3 1.334 . S
C3 N2 1.334 . S
C3 N4 1.336 . S
N4 Zn0 2.020 . S
N4 C3 1.336 . S
N4 N5 1.354 . S
N5 C1 1.336 . S
N5 N4 1.354 . S
N5 Zn9 2.020 . S
C6 O7 1.244 . S
C6 O30 1.257 . S
O7 C6 1.244 . S
O8 Zn0 2.019 1_556 S
O8 C28 1.257 . S
Zn9 N5 2.020 . S
Zn9 O16 1.975 . S
Zn9 N25 2.119 . S
Zn9 O30 2.019 . S
N10 Zn0 2.119 . S
N10 C12 1.334 . S
N10 C13 1.328 . S
C11 C12 1.391 . S
C11 N14 1.329 . S
C11 H32 0.930 . S
C12 N10 1.334 . S
C12 C11 1.391 . S
C12 H19 0.930 . S
C13 N10 1.328 . S
C13 C15 1.392 . S
C13 H20 0.930 . S
N14 C11 1.329 . S
N14 C15 1.331 . S
C15 C13 1.392 . S
C15 N14 1.331 . S
O16 Zn9 1.975 . S
O16 C17 1.252 . S
C17 O16 1.252 . S
C17 O18 1.252 . S
O18 Zn0 1.975 . S
O18 C17 1.252 . S
H19 C12 0.930 . S
H20 C13 0.930 . S
C21 C22 1.392 . S
C21 N25 1.328 . S
C21 H27 0.930 . S
C22 C21 1.392 . S
C22 N26 1.331 . S
C23 C24 1.391 . S
C23 N26 1.329 . S
C23 H33 0.930 . S
C24 C23 1.391 . S
C24 N25 1.334 . S
C24 H31 0.930 . S
N25 Zn9 2.119 . S
N25 C21 1.328 . S
N25 C24 1.334 . S
N26 C22 1.331 . S
N26 C23 1.329 . S
H27 C21 0.930 . S
C28 O8 1.257 . S
C28 O29 1.244 . S
O29 C28 1.244 . S
O30 C6 1.257 . S
O30 Zn9 2.019 . S
H31 C24 0.930 . S
H32 C11 0.930 . S
H33 C23 0.930 . S
Zn34 N38 2.020 . S
Zn34 O42 2.019 . S
Zn34 N44 2.119 . S
Zn34 O52 1.975 . S
C35 N36 1.334 . S
C35 N39 1.336 . S
N36 C35 1.334 . S
N36 C37 1.334 . S
C37 N36 1.334 . S
C37 N38 1.336 . S
N38 Zn34 2.020 . S
N38 C37 1.336 . S
N38 N39 1.354 . S
N39 C35 1.336 . S
N39 N38 1.354 . S
N39 Zn43 2.020 . S
C40 O41 1.244 1_554 S
C40 O64 1.257 1_554 S
O41 C40 1.244 1_556 S
O42 Zn34 2.019 . S
O42 C62 1.257 . S
Zn43 N39 2.020 . S
Zn43 O50 1.975 . S
Zn43 N59 2.119 . S
Zn43 O64 2.019 . S
N44 Zn34 2.119 . S
N44 C46 1.334 . S
N44 C47 1.328 . S
C45 C46 1.391 . S
C45 N48 1.329 . S
C45 H66 0.930 . S
C46 N44 1.334 . S
C46 C45 1.391 . S
C46 H53 0.930 . S
C47 N44 1.328 . S
C47 C49 1.392 . S
C47 H54 0.930 . S
N48 C45 1.329 . S
N48 C49 1.331 . S
C49 C47 1.392 . S
C49 N48 1.331 . S
O50 Zn43 1.975 . S
O50 C51 1.252 . S
C51 O50 1.252 . S
C51 O52 1.252 . S
O52 Zn34 1.975 . S
O52 C51 1.252 . S
H53 C46 0.930 . S
H54 C47 0.930 . S
C55 C56 1.392 . S
C55 N59 1.328 . S
C55 H61 0.930 . S
C56 C55 1.392 . S
C56 N60 1.331 . S
C57 C58 1.391 . S
C57 N60 1.329 . S
C57 H67 0.930 . S
C58 C57 1.391 . S
C58 N59 1.334 . S
C58 H65 0.930 . S
N59 Zn43 2.119 . S
N59 C55 1.328 . S
N59 C58 1.334 . S
N60 C56 1.331 . S
N60 C57 1.329 . S
H61 C55 0.930 . S
C62 O42 1.257 . S
C62 O63 1.244 . S
O63 C62 1.244 . S
O64 C40 1.257 1_556 S
O64 Zn43 2.019 . S
H65 C58 0.930 . S
H66 C45 0.930 . S
H67 C57 0.930 . S
Zn68 N72 2.020 . S
Zn68 O76 2.019 . S
Zn68 N78 2.119 . S
Zn68 O86 1.975 . S
C69 N70 1.334 . S
C69 N73 1.336 . S
N70 C69 1.334 . S
N70 C71 1.334 . S
C71 N70 1.334 . S
C71 N72 1.336 . S
N72 Zn68 2.020 . S
N72 C71 1.336 . S
N72 N73 1.354 . S
N73 C69 1.336 . S
N73 N72 1.354 . S
N73 Zn77 2.020 . S
C74 O75 1.244 . S
C74 O98 1.257 . S
O75 C74 1.244 . S
O76 Zn68 2.019 . S
O76 C96 1.257 . S
Zn77 N73 2.020 . S
Zn77 O84 1.975 . S
Zn77 N93 2.119 . S
Zn77 O98 2.019 . S
N78 Zn68 2.119 . S
N78 C80 1.334 . S
N78 C81 1.328 . S
C79 C80 1.391 . S
C79 N82 1.329 . S
C79 H100 0.930 . S
C80 N78 1.334 . S
C80 C79 1.391 . S
C80 H87 0.930 . S
C81 N78 1.328 . S
C81 C83 1.392 . S
C81 H88 0.930 . S
N82 C79 1.329 . S
N82 C83 1.331 . S
C83 C81 1.392 . S
C83 N82 1.331 . S
O84 Zn77 1.975 . S
O84 C85 1.252 . S
C85 O84 1.252 . S
C85 O86 1.252 . S
O86 Zn68 1.975 . S
O86 C85 1.252 . S
H87 C80 0.930 . S
H88 C81 0.930 . S
C89 C90 1.392 . S
C89 N93 1.328 . S
C89 H95 0.930 . S
C90 C89 1.392 . S
C90 N94 1.331 . S
C91 C92 1.391 . S
C91 N94 1.329 . S
C91 H101 0.930 . S
C92 C91 1.391 . S
C92 N93 1.334 . S
C92 H99 0.930 . S
N93 Zn77 2.119 . S
N93 C89 1.328 . S
N93 C92 1.334 . S
N94 C90 1.331 . S
N94 C91 1.329 . S
H95 C89 0.930 . S
C96 O76 1.257 . S
C96 O97 1.244 . S
O97 C96 1.244 . S
O98 C74 1.257 . S
O98 Zn77 2.019 . S
H99 C92 0.930 . S
H100 C79 0.930 . S
H101 C91 0.930 . S
Zn102 N106 2.020 . S
Zn102 O110 2.019 . S
Zn102 N112 2.119 . S
Zn102 O120 1.975 . S
C103 N104 1.334 . S
C103 N107 1.336 . S
N104 C103 1.334 . S
N104 C105 1.334 . S
C105 N104 1.334 . S
C105 N106 1.336 . S
N106 Zn102 2.020 . S
N106 C105 1.336 . S
N106 N107 1.354 . S
N107 C103 1.336 . S
N107 N106 1.354 . S
N107 Zn111 2.020 . S
C108 O109 1.244 . S
C108 O132 1.257 . S
O109 C108 1.244 . S
O110 Zn102 2.019 . S
O110 C130 1.257 . S
Zn111 N107 2.020 . S
Zn111 O118 1.975 . S
Zn111 N127 2.119 . S
Zn111 O132 2.019 1_556 S
N112 Zn102 2.119 . S
N112 C114 1.334 . S
N112 C115 1.328 . S
C113 C114 1.391 . S
C113 N116 1.329 . S
C113 H134 0.930 . S
C114 N112 1.334 . S
C114 C113 1.391 . S
C114 H121 0.930 . S
C115 N112 1.328 . S
C115 C117 1.392 . S
C115 H122 0.930 . S
N116 C113 1.329 . S
N116 C117 1.331 . S
C117 C115 1.392 . S
C117 N116 1.331 . S
O118 Zn111 1.975 . S
O118 C119 1.252 . S
C119 O118 1.252 . S
C119 O120 1.252 . S
O120 Zn102 1.975 . S
O120 C119 1.252 . S
H121 C114 0.930 . S
H122 C115 0.930 . S
C123 C124 1.392 . S
C123 N127 1.328 . S
C123 H129 0.930 . S
C124 C123 1.392 . S
C124 N128 1.331 . S
C125 C126 1.391 . S
C125 N128 1.329 . S
C125 H135 0.930 . S
C126 C125 1.391 . S
C126 N127 1.334 . S
C126 H133 0.930 . S
N127 Zn111 2.119 . S
N127 C123 1.328 . S
N127 C126 1.334 . S
N128 C124 1.331 . S
N128 C125 1.329 . S
H129 C123 0.930 . S
C130 O110 1.257 . S
C130 O131 1.244 . S
O131 C130 1.244 . S
O132 C108 1.257 . S
O132 Zn111 2.019 1_554 S
H133 C126 0.930 . S
H134 C113 0.930 . S
H135 C125 0.930 . S
Zn136 N140 2.020 . S
Zn136 O144 2.019 . S
Zn136 N146 2.119 . S
Zn136 O154 1.975 . S
C137 N138 1.334 . S
C137 N141 1.336 . S
N138 C137 1.334 . S
N138 C139 1.334 . S
C139 N138 1.334 . S
C139 N140 1.336 . S
N140 Zn136 2.020 . S
N140 C139 1.336 . S
N140 N141 1.354 . S
N141 C137 1.336 . S
N141 N140 1.354 . S
N141 Zn145 2.020 . S
C142 O143 1.244 . S
C142 O166 1.257 . S
O143 C142 1.244 . S
O144 Zn136 2.019 . S
O144 C164 1.257 . S
Zn145 N141 2.020 . S
Zn145 O152 1.975 . S
Zn145 N161 2.119 . S
Zn145 O166 2.019 . S
N146 Zn136 2.119 . S
N146 C148 1.334 . S
N146 C149 1.328 . S
C147 C148 1.391 . S
C147 N150 1.329 . S
C147 H168 0.930 . S
C148 N146 1.334 . S
C148 C147 1.391 . S
C148 H155 0.930 . S
C149 N146 1.328 . S
C149 C151 1.392 . S
C149 H156 0.930 . S
N150 C147 1.329 . S
N150 C151 1.331 . S
C151 C149 1.392 . S
C151 N150 1.331 . S
O152 Zn145 1.975 . S
O152 C153 1.252 . S
C153 O152 1.252 . S
C153 O154 1.252 . S
O154 Zn136 1.975 . S
O154 C153 1.252 . S
H155 C148 0.930 . S
H156 C149 0.930 . S
C157 C158 1.392 . S
C157 N161 1.328 . S
C157 H163 0.930 . S
C158 C157 1.392 . S
C158 N162 1.331 . S
C159 C160 1.391 . S
C159 N162 1.329 . S
C159 H169 0.930 . S
C160 C159 1.391 . S
C160 N161 1.334 . S
C160 H167 0.930 . S
N161 Zn145 2.119 . S
N161 C157 1.328 . S
N161 C160 1.334 . S
N162 C158 1.331 . S
N162 C159 1.329 . S
H163 C157 0.930 . S
C164 O144 1.257 . S
C164 O165 1.244 . S
O165 C164 1.244 . S
O166 C142 1.257 . S
O166 Zn145 2.019 . S
H167 C160 0.930 . S
H168 C147 0.930 . S
H169 C159 0.930 . S
Zn170 N174 2.020 . S
Zn170 O178 2.019 . S
Zn170 N180 2.119 . S
Zn170 O188 1.975 . S
C171 N172 1.334 . S
C171 N175 1.336 . S
N172 C171 1.334 . S
N172 C173 1.334 . S
C173 N172 1.334 . S
C173 N174 1.336 . S
N174 Zn170 2.020 . S
N174 C173 1.336 . S
N174 N175 1.354 . S
N175 C171 1.336 . S
N175 N174 1.354 . S
N175 Zn179 2.020 . S
C176 O177 1.244 . S
C176 O200 1.257 . S
O177 C176 1.244 . S
O178 Zn170 2.019 . S
O178 C198 1.257 1_554 S
Zn179 N175 2.020 . S
Zn179 O186 1.975 . S
Zn179 N195 2.119 . S
Zn179 O200 2.019 . S
N180 Zn170 2.119 . S
N180 C182 1.334 . S
N180 C183 1.328 . S
C181 C182 1.391 . S
C181 N184 1.329 . S
C181 H202 0.930 . S
C182 N180 1.334 . S
C182 C181 1.391 . S
C182 H189 0.930 . S
C183 N180 1.328 . S
C183 C185 1.392 . S
C183 H190 0.930 . S
N184 C181 1.329 . S
N184 C185 1.331 . S
C185 C183 1.392 . S
C185 N184 1.331 . S
O186 Zn179 1.975 . S
O186 C187 1.252 . S
C187 O186 1.252 . S
C187 O188 1.252 . S
O188 Zn170 1.975 . S
O188 C187 1.252 . S
H189 C182 0.930 . S
H190 C183 0.930 . S
C191 C192 1.392 . S
C191 N195 1.328 . S
C191 H197 0.930 . S
C192 C191 1.392 . S
C192 N196 1.331 . S
C193 C194 1.391 . S
C193 N196 1.329 . S
C193 H203 0.930 . S
C194 C193 1.391 . S
C194 N195 1.334 . S
C194 H201 0.930 . S
N195 Zn179 2.119 . S
N195 C191 1.328 . S
N195 C194 1.334 . S
N196 C192 1.331 . S
N196 C193 1.329 . S
H197 C191 0.930 . S
C198 O178 1.257 1_556 S
C198 O199 1.244 1_556 S
O199 C198 1.244 1_554 S
O200 C176 1.257 . S
O200 Zn179 2.019 . S
H201 C194 0.930 . S
H202 C181 0.930 . S
H203 C193 0.930 . S
H204 C222 0.951 . S
H205 C224 0.951 . S
H206 C226 0.950 . S
H207 C227 0.950 . S
H208 C229 0.950 . S
H209 C232 0.950 . S
H210 C233 0.950 1_554 S
H211 C235 0.950 . S
H212 C236 0.950 . S
H213 C237 0.951 . S
H214 C239 0.951 . S
H215 C241 0.950 . S
H216 C242 0.950 . S
H217 C244 0.950 . S
H218 C247 0.950 . S
H219 C248 0.950 . S
H220 C250 0.950 . S
H221 C251 0.950 . S
C222 H204 0.951 . S
C222 C223 1.366 1_556 S
C222 C224 1.388 . S
C223 C222 1.366 1_554 S
C223 C227 1.385 . S
C224 H205 0.951 . S
C224 C222 1.388 . S
C224 C225 1.366 . S
C225 C224 1.366 . S
C225 C226 1.414 . S
C225 C228 1.499 . S
C226 H206 0.950 . S
C226 C225 1.414 . S
C226 C227 1.374 1_556 S
C227 H207 0.950 . S
C227 C223 1.385 . S
C227 C226 1.374 1_554 S
C228 C225 1.499 . S
C228 C229 1.373 . S
C228 C230 1.389 . S
C229 H208 0.950 . S
C229 C228 1.373 . S
C229 C245 1.377 1_455 S
C230 C228 1.389 . S
C230 C231 1.524 . S
C230 C244 1.377 1_455 S
C231 C230 1.524 . S
C231 C232 1.397 . S
C231 C236 1.363 . S
C232 H209 0.950 . S
C232 C231 1.397 . S
C232 C233 1.334 . S
C233 H210 0.950 1_556 S
C233 C232 1.334 . S
C233 C234 1.287 . S
C234 C233 1.287 . S
C234 C235 1.524 . S
C234 H253 0.913 . S
C235 H211 0.950 . S
C235 C234 1.524 . S
C235 C236 1.415 . S
C236 H212 0.950 . S
C236 C231 1.363 . S
C236 C235 1.415 . S
C237 H213 0.951 . S
C237 C238 1.366 . S
C237 C239 1.388 . S
C238 C237 1.366 . S
C238 C242 1.385 . S
C239 H214 0.951 . S
C239 C237 1.388 . S
C239 C240 1.366 . S
C240 C239 1.366 . S
C240 C241 1.414 . S
C240 C243 1.499 . S
C241 H215 0.950 . S
C241 C240 1.414 . S
C241 C242 1.374 . S
C242 H216 0.950 . S
C242 C238 1.385 . S
C242 C241 1.374 . S
C243 C240 1.499 . S
C243 C244 1.373 . S
C243 C245 1.389 . S
C244 H217 0.950 . S
C244 C230 1.377 1_655 S
C244 C243 1.373 . S
C245 C229 1.377 1_655 S
C245 C243 1.389 . S
C245 C246 1.524 . S
C246 C245 1.524 . S
C246 C247 1.397 . S
C246 C251 1.363 . S
C247 H218 0.950 . S
C247 C246 1.397 . S
C247 C248 1.334 . S
C248 H219 0.950 . S
C248 C247 1.334 . S
C248 C249 1.287 . S
C249 C248 1.287 . S
C249 C250 1.524 . S
C249 H252 0.999 . S
C250 H220 0.950 . S
C250 C249 1.524 . S
C250 C251 1.415 . S
C251 H221 0.950 . S
C251 C246 1.363 . S
C251 C250 1.415 . S
H252 C249 0.999 . S
H253 C234 0.913 . S
H254 C272 0.951 . S
H255 C274 0.951 . S
H256 C276 0.950 . S
H257 C277 0.950 . S
H258 C279 0.950 . S
H259 C282 0.950 . S
H260 C283 0.950 . S
H261 C285 0.950 . S
H262 C286 0.950 . S
H263 C287 0.951 . S
H264 C289 0.951 . S
H265 C291 0.950 . S
H266 C292 0.950 . S
H267 C294 0.950 . S
H268 C297 0.950 . S
H269 C298 0.950 . S
H270 C300 0.950 . S
H271 C301 0.950 . S
C272 H254 0.951 . S
C272 C273 1.366 . S
C272 C274 1.388 . S
C273 C272 1.366 . S
C273 C277 1.385 . S
C274 H255 0.951 . S
C274 C272 1.388 . S
C274 C275 1.366 . S
C275 C274 1.366 . S
C275 C276 1.414 . S
C275 C278 1.499 . S
C276 H256 0.950 . S
C276 C275 1.414 . S
C276 C277 1.374 . S
C277 H257 0.950 . S
C277 C273 1.385 . S
C277 C276 1.374 . S
C278 C275 1.499 . S
C278 C279 1.373 . S
C278 C280 1.389 . S
C279 H258 0.950 . S
C279 C278 1.373 . S
C279 C295 1.377 . S
C280 C278 1.389 . S
C280 C281 1.524 . S
C280 C294 1.377 . S
C281 C280 1.524 . S
C281 C282 1.397 . S
C281 C286 1.363 . S
C282 H259 0.950 . S
C282 C281 1.397 . S
C282 C283 1.334 . S
C283 H260 0.950 . S
C283 C282 1.334 . S
C283 C284 1.287 . S
C284 C283 1.287 . S
C284 C285 1.524 . S
C284 H303 0.913 . S
C285 H261 0.950 . S
C285 C284 1.524 . S
C285 C286 1.415 . S
C286 H262 0.950 . S
C286 C281 1.363 . S
C286 C285 1.415 . S
C287 H263 0.951 . S
C287 C288 1.366 . S
C287 C289 1.388 . S
C288 C287 1.366 . S
C288 C292 1.385 . S
C289 H264 0.951 . S
C289 C287 1.388 . S
C289 C290 1.366 . S
C290 C289 1.366 . S
C290 C291 1.414 . S
C290 C293 1.499 . S
C291 H265 0.950 . S
C291 C290 1.414 . S
C291 C292 1.374 . S
C292 H266 0.950 . S
C292 C288 1.385 . S
C292 C291 1.374 . S
C293 C290 1.499 . S
C293 C294 1.373 . S
C293 C295 1.389 . S
C294 H267 0.950 . S
C294 C280 1.377 . S
C294 C293 1.373 . S
C295 C279 1.377 . S
C295 C293 1.389 . S
C295 C296 1.524 . S
C296 C295 1.524 . S
C296 C297 1.397 . S
C296 C301 1.363 . S
C297 H268 0.950 . S
C297 C296 1.397 . S
C297 C298 1.334 . S
C298 H269 0.950 . S
C298 C297 1.334 . S
C298 C299 1.287 . S
C299 C298 1.287 . S
C299 C300 1.524 . S
C299 H302 0.999 . S
C300 H270 0.950 . S
C300 C299 1.524 . S
C300 C301 1.415 . S
C301 H271 0.950 . S
C301 C296 1.363 . S
C301 C300 1.415 . S
H302 C299 0.999 . S
H303 C284 0.913 . S
H304 C322 0.951 . S
H305 C324 0.951 . S
H306 C326 0.950 . S
H307 C327 0.950 . S
H308 C329 0.950 . S
H309 C332 0.950 . S
H310 C333 0.950 . S
H311 C335 0.950 . S
H312 C336 0.950 . S
H313 C337 0.951 . S
H314 C339 0.951 . S
H315 C341 0.950 . S
H316 C342 0.950 . S
H317 C344 0.950 . S
H318 C347 0.950 . S
H319 C348 0.950 . S
H320 C350 0.950 . S
H321 C351 0.950 . S
C322 H304 0.951 . S
C322 C323 1.366 . S
C322 C324 1.388 . S
C323 C322 1.366 . S
C323 C327 1.385 . S
C324 H305 0.951 . S
C324 C322 1.388 . S
C324 C325 1.366 . S
C325 C324 1.366 . S
C325 C326 1.414 . S
C325 C328 1.499 . S
C326 H306 0.950 . S
C326 C325 1.414 . S
C326 C327 1.374 . S
C327 H307 0.950 . S
C327 C323 1.385 . S
C327 C326 1.374 . S
C328 C325 1.499 . S
C328 C329 1.373 1_565 S
C328 C330 1.389 . S
C329 H308 0.950 . S
C329 C328 1.373 1_545 S
C329 C345 1.377 . S
C330 C328 1.389 . S
C330 C331 1.524 . S
C330 C344 1.377 . S
C331 C330 1.524 . S
C331 C332 1.397 . S
C331 C336 1.363 . S
C332 H309 0.950 . S
C332 C331 1.397 . S
C332 C333 1.334 . S
C333 H310 0.950 . S
C333 C332 1.334 . S
C333 C334 1.287 . S
C334 C333 1.287 . S
C334 C335 1.524 . S
C334 H353 0.913 . S
C335 H311 0.950 . S
C335 C334 1.524 . S
C335 C336 1.415 . S
C336 H312 0.950 . S
C336 C331 1.363 . S
C336 C335 1.415 . S
C337 H313 0.951 . S
C337 C338 1.366 1_554 S
C337 C339 1.388 . S
C338 C337 1.366 1_556 S
C338 C342 1.385 . S
C339 H314 0.951 . S
C339 C337 1.388 . S
C339 C340 1.366 . S
C340 C339 1.366 . S
C340 C341 1.414 . S
C340 C343 1.499 . S
C341 H315 0.950 . S
C341 C340 1.414 . S
C341 C342 1.374 1_554 S
C342 H316 0.950 . S
C342 C338 1.385 . S
C342 C341 1.374 1_556 S
C343 C340 1.499 . S
C343 C344 1.373 1_545 S
C343 C345 1.389 . S
C344 H317 0.950 . S
C344 C330 1.377 . S
C344 C343 1.373 1_565 S
C345 C329 1.377 . S
C345 C343 1.389 . S
C345 C346 1.524 . S
C346 C345 1.524 . S
C346 C347 1.397 . S
C346 C351 1.363 . S
C347 H318 0.950 . S
C347 C346 1.397 . S
C347 C348 1.334 . S
C348 H319 0.950 . S
C348 C347 1.334 . S
C348 C349 1.287 . S
C349 C348 1.287 . S
C349 C350 1.524 . S
C349 H352 0.999 . S
C350 H320 0.950 . S
C350 C349 1.524 . S
C350 C351 1.415 . S
C351 H321 0.950 . S
C351 C346 1.363 . S
C351 C350 1.415 . S
H352 C349 0.999 . S
H353 C334 0.913 . S
H354 C372 0.951 . S
H355 C374 0.951 . S
H356 C376 0.950 . S
H357 C377 0.950 . S
H358 C379 0.950 . S
H359 C382 0.950 . S
H360 C383 0.950 . S
H361 C385 0.950 . S
H362 C386 0.950 . S
H363 C387 0.951 . S
H364 C389 0.951 . S
H365 C391 0.950 . S
H366 C392 0.950 . S
H367 C394 0.950 . S
H368 C397 0.950 . S
H369 C398 0.950 . S
H370 C400 0.950 . S
H371 C401 0.950 . S
C372 H354 0.951 . S
C372 C373 1.366 . S
C372 C374 1.388 . S
C373 C372 1.366 . S
C373 C377 1.385 . S
C374 H355 0.951 . S
C374 C372 1.388 . S
C374 C375 1.366 . S
C375 C374 1.366 . S
C375 C376 1.414 . S
C375 C378 1.499 . S
C376 H356 0.950 . S
C376 C375 1.414 . S
C376 C377 1.374 . S
C377 H357 0.950 . S
C377 C373 1.385 . S
C377 C376 1.374 . S
C378 C375 1.499 . S
C378 C379 1.373 . S
C378 C380 1.389 . S
C379 H358 0.950 . S
C379 C378 1.373 . S
C379 C395 1.377 . S
C380 C378 1.389 . S
C380 C381 1.524 . S
C380 C394 1.377 . S
C381 C380 1.524 . S
C381 C382 1.397 . S
C381 C386 1.363 . S
C382 H359 0.950 . S
C382 C381 1.397 . S
C382 C383 1.334 . S
C383 H360 0.950 . S
C383 C382 1.334 . S
C383 C384 1.287 . S
C384 C383 1.287 . S
C384 C385 1.524 . S
C384 H403 0.913 . S
C385 H361 0.950 . S
C385 C384 1.524 . S
C385 C386 1.415 . S
C386 H362 0.950 . S
C386 C381 1.363 . S
C386 C385 1.415 . S
C387 H363 0.951 . S
C387 C388 1.366 . S
C387 C389 1.388 . S
C388 C387 1.366 . S
C388 C392 1.385 . S
C389 H364 0.951 . S
C389 C387 1.388 . S
C389 C390 1.366 . S
C390 C389 1.366 . S
C390 C391 1.414 . S
C390 C393 1.499 . S
C391 H365 0.950 . S
C391 C390 1.414 . S
C391 C392 1.374 . S
C392 H366 0.950 . S
C392 C388 1.385 . S
C392 C391 1.374 . S
C393 C390 1.499 . S
C393 C394 1.373 . S
C393 C395 1.389 . S
C394 H367 0.950 . S
C394 C380 1.377 . S
C394 C393 1.373 . S
C395 C379 1.377 . S
C395 C393 1.389 . S
C395 C396 1.524 . S
C396 C395 1.524 . S
C396 C397 1.397 . S
C396 C401 1.363 . S
C397 H368 0.950 . S
C397 C396 1.397 . S
C397 C398 1.334 . S
C398 H369 0.950 . S
C398 C397 1.334 . S
C398 C399 1.287 . S
C399 C398 1.287 . S
C399 C400 1.524 . S
C399 H402 0.999 . S
C400 H370 0.950 . S
C400 C399 1.524 . S
C400 C401 1.415 . S
C401 H371 0.950 . S
C401 C396 1.363 . S
C401 C400 1.415 . S
H402 C399 0.999 . S
H403 C384 0.913 . S
H404 C422 0.951 . S
H405 C424 0.951 . S
H406 C426 0.950 . S
H407 C427 0.950 . S
H408 C429 0.950 . S
H409 C432 0.950 . S
H410 C433 0.950 . S
H411 C435 0.950 . S
H412 C436 0.950 . S
H413 C437 0.951 . S
H414 C439 0.951 . S
H415 C441 0.950 . S
H416 C442 0.950 . S
H417 C444 0.950 . S
H418 C447 0.950 . S
H419 C448 0.950 . S
H420 C450 0.950 . S
H421 C451 0.950 . S
C422 H404 0.951 . S
C422 C423 1.366 . S
C422 C424 1.388 . S
C423 C422 1.366 . S
C423 C427 1.385 . S
C424 H405 0.951 . S
C424 C422 1.388 . S
C424 C425 1.366 . S
C425 C424 1.366 . S
C425 C426 1.414 . S
C425 C428 1.499 . S
C426 H406 0.950 . S
C426 C425 1.414 . S
C426 C427 1.374 . S
C427 H407 0.950 . S
C427 C423 1.385 . S
C427 C426 1.374 . S
C428 C425 1.499 . S
C428 C429 1.373 . S
C428 C430 1.389 . S
C429 H408 0.950 . S
C429 C428 1.373 . S
C429 C445 1.377 . S
C430 C428 1.389 . S
C430 C431 1.524 1_554 S
C430 C444 1.377 1_554 S
C431 C430 1.524 1_556 S
C431 C432 1.397 . S
C431 C436 1.363 . S
C432 H409 0.950 . S
C432 C431 1.397 . S
C432 C433 1.334 . S
C433 H410 0.950 . S
C433 C432 1.334 . S
C433 C434 1.287 . S
C434 C433 1.287 . S
C434 C435 1.524 . S
C434 H453 0.913 . S
C435 H411 0.950 . S
C435 C434 1.524 . S
C435 C436 1.415 . S
C436 H412 0.950 . S
C436 C431 1.363 . S
C436 C435 1.415 . S
C437 H413 0.951 . S
C437 C438 1.366 . S
C437 C439 1.388 . S
C438 C437 1.366 . S
C438 C442 1.385 . S
C439 H414 0.951 . S
C439 C437 1.388 . S
C439 C440 1.366 . S
C440 C439 1.366 . S
C440 C441 1.414 . S
C440 C443 1.499 1_556 S
C441 H415 0.950 . S
C441 C440 1.414 . S
C441 C442 1.374 . S
C442 H416 0.950 . S
C442 C438 1.385 . S
C442 C441 1.374 . S
C443 C440 1.499 1_554 S
C443 C444 1.373 1_554 S
C443 C445 1.389 . S
C444 H417 0.950 . S
C444 C430 1.377 1_556 S
C444 C443 1.373 1_556 S
C445 C429 1.377 . S
C445 C443 1.389 . S
C445 C446 1.524 . S
C446 C445 1.524 . S
C446 C447 1.397 . S
C446 C451 1.363 . S
C447 H418 0.950 . S
C447 C446 1.397 . S
C447 C448 1.334 . S
C448 H419 0.950 . S
C448 C447 1.334 . S
C448 C449 1.287 . S
C449 C448 1.287 . S
C449 C450 1.524 . S
C449 H452 0.999 . S
C450 H420 0.950 . S
C450 C449 1.524 . S
C450 C451 1.415 . S
C451 H421 0.950 . S
C451 C446 1.363 . S
C451 C450 1.415 . S
H452 C449 0.999 . S
H453 C434 0.913 . S
H454 C472 0.951 . S
H455 C474 0.951 . S
H456 C476 0.950 . S
H457 C477 0.950 . S
H458 C479 0.950 . S
H459 C482 0.950 . S
H460 C483 0.950 . S
H461 C485 0.950 . S
H462 C486 0.950 . S
H463 C487 0.951 . S
H464 C489 0.951 . S
H465 C491 0.950 . S
H466 C492 0.950 . S
H467 C494 0.950 . S
H468 C497 0.950 . S
H469 C498 0.950 . S
H470 C500 0.950 . S
H471 C501 0.950 . S
C472 H454 0.951 . S
C472 C473 1.366 . S
C472 C474 1.388 . S
C473 C472 1.366 . S
C473 C477 1.385 . S
C474 H455 0.951 . S
C474 C472 1.388 . S
C474 C475 1.366 . S
C475 C474 1.366 . S
C475 C476 1.414 . S
C475 C478 1.499 . S
C476 H456 0.950 . S
C476 C475 1.414 . S
C476 C477 1.374 . S
C477 H457 0.950 . S
C477 C473 1.385 . S
C477 C476 1.374 . S
C478 C475 1.499 . S
C478 C479 1.373 . S
C478 C480 1.389 . S
C479 H458 0.950 . S
C479 C478 1.373 . S
C479 C495 1.377 . S
C480 C478 1.389 . S
C480 C481 1.524 . S
C480 C494 1.377 . S
C481 C480 1.524 . S
C481 C482 1.397 . S
C481 C486 1.363 . S
C482 H459 0.950 . S
C482 C481 1.397 . S
C482 C483 1.334 . S
C483 H460 0.950 . S
C483 C482 1.334 . S
C483 C484 1.287 . S
C484 C483 1.287 . S
C484 C485 1.524 . S
C484 H503 0.913 . S
C485 H461 0.950 . S
C485 C484 1.524 . S
C485 C486 1.415 . S
C486 H462 0.950 . S
C486 C481 1.363 . S
C486 C485 1.415 . S
C487 H463 0.951 . S
C487 C488 1.366 . S
C487 C489 1.388 . S
C488 C487 1.366 . S
C488 C492 1.385 . S
C489 H464 0.951 . S
C489 C487 1.388 . S
C489 C490 1.366 . S
C490 C489 1.366 . S
C490 C491 1.414 . S
C490 C493 1.499 . S
C491 H465 0.950 . S
C491 C490 1.414 . S
C491 C492 1.374 . S
C492 H466 0.950 . S
C492 C488 1.385 . S
C492 C491 1.374 . S
C493 C490 1.499 . S
C493 C494 1.373 . S
C493 C495 1.389 . S
C494 H467 0.950 . S
C494 C480 1.377 . S
C494 C493 1.373 . S
C495 C479 1.377 . S
C495 C493 1.389 . S
C495 C496 1.524 . S
C496 C495 1.524 . S
C496 C497 1.397 . S
C496 C501 1.363 . S
C497 H468 0.950 . S
C497 C496 1.397 . S
C497 C498 1.334 . S
C498 H469 0.950 . S
C498 C497 1.334 . S
C498 C499 1.287 . S
C499 C498 1.287 . S
C499 C500 1.524 . S
C499 H502 0.999 . S
C500 H470 0.950 . S
C500 C499 1.524 . S
C500 C501 1.415 . S
C501 H471 0.950 . S
C501 C496 1.363 . S
C501 C500 1.415 . S
H502 C499 0.999 . S
H503 C484 0.913 . S
H504 C522 0.951 . S
H505 C524 0.951 . S
H506 C526 0.950 . S
H507 C527 0.950 . S
H508 C529 0.950 . S
H509 C532 0.950 . S
H510 C533 0.950 . S
H511 C535 0.950 . S
H512 C536 0.950 . S
H513 C537 0.951 . S
H514 C539 0.951 . S
H515 C541 0.950 . S
H516 C542 0.950 . S
H517 C544 0.950 . S
H518 C547 0.950 . S
H519 C548 0.950 . S
H520 C550 0.950 . S
H521 C551 0.950 . S
C522 H504 0.951 . S
C522 C523 1.366 . S
C522 C524 1.388 . S
C523 C522 1.366 . S
C523 C527 1.385 . S
C524 H505 0.951 . S
C524 C522 1.388 . S
C524 C525 1.366 . S
C525 C524 1.366 . S
C525 C526 1.414 . S
C525 C528 1.499 . S
C526 H506 0.950 . S
C526 C525 1.414 . S
C526 C527 1.374 . S
C527 H507 0.950 . S
C527 C523 1.385 . S
C527 C526 1.374 . S
C528 C525 1.499 . S
C528 C529 1.373 . S
C528 C530 1.389 . S
C529 H508 0.950 . S
C529 C528 1.373 . S
C529 C545 1.377 . S
C530 C528 1.389 . S
C530 C531 1.524 . S
C530 C544 1.377 . S
C531 C530 1.524 . S
C531 C532 1.397 . S
C531 C536 1.363 . S
C532 H509 0.950 . S
C532 C531 1.397 . S
C532 C533 1.334 . S
C533 H510 0.950 . S
C533 C532 1.334 . S
C533 C534 1.287 . S
C534 C533 1.287 . S
C534 C535 1.524 . S
C534 H553 0.913 . S
C535 H511 0.950 . S
C535 C534 1.524 . S
C535 C536 1.415 . S
C536 H512 0.950 . S
C536 C531 1.363 . S
C536 C535 1.415 . S
C537 H513 0.951 . S
C537 C538 1.366 . S
C537 C539 1.388 . S
C538 C537 1.366 . S
C538 C542 1.385 . S
C539 H514 0.951 . S
C539 C537 1.388 . S
C539 C540 1.366 . S
C540 C539 1.366 . S
C540 C541 1.414 . S
C540 C543 1.499 . S
C541 H515 0.950 . S
C541 C540 1.414 . S
C541 C542 1.374 . S
C542 H516 0.950 . S
C542 C538 1.385 . S
C542 C541 1.374 . S
C543 C540 1.499 . S
C543 C544 1.373 . S
C543 C545 1.389 . S
C544 H517 0.950 . S
C544 C530 1.377 . S
C544 C543 1.373 . S
C545 C529 1.377 . S
C545 C543 1.389 . S
C545 C546 1.524 . S
C546 C545 1.524 . S
C546 C547 1.397 . S
C546 C551 1.363 . S
C547 H518 0.950 . S
C547 C546 1.397 . S
C547 C548 1.334 . S
C548 H519 0.950 . S
C548 C547 1.334 . S
C548 C549 1.287 . S
C549 C548 1.287 . S
C549 C550 1.524 . S
C549 H552 0.999 . S
C550 H520 0.950 . S
C550 C549 1.524 . S
C550 C551 1.415 . S
C551 H521 0.950 . S
C551 C546 1.363 . S
C551 C550 1.415 . S
H552 C549 0.999 . S
H553 C534 0.913 . S
H554 C572 0.951 . S
H555 C574 0.951 . S
H556 C576 0.950 . S
H557 C577 0.950 . S
H558 C579 0.950 . S
H559 C582 0.950 . S
H560 C583 0.950 . S
H561 C585 0.950 . S
H562 C586 0.950 . S
H563 C587 0.951 . S
H564 C589 0.951 . S
H565 C591 0.950 . S
H566 C592 0.950 . S
H567 C594 0.950 . S
H568 C597 0.950 . S
H569 C598 0.950 . S
H570 C600 0.950 . S
H571 C601 0.950 . S
C572 H554 0.951 . S
C572 C573 1.366 . S
C572 C574 1.388 . S
C573 C572 1.366 . S
C573 C577 1.385 . S
C574 H555 0.951 . S
C574 C572 1.388 . S
C574 C575 1.366 . S
C575 C574 1.366 . S
C575 C576 1.414 . S
C575 C578 1.499 . S
C576 H556 0.950 . S
C576 C575 1.414 . S
C576 C577 1.374 . S
C577 H557 0.950 . S
C577 C573 1.385 . S
C577 C576 1.374 . S
C578 C575 1.499 . S
C578 C579 1.373 . S
C578 C580 1.389 . S
C579 H558 0.950 . S
C579 C578 1.373 . S
C579 C595 1.377 . S
C580 C578 1.389 . S
C580 C581 1.524 . S
C580 C594 1.377 . S
C581 C580 1.524 . S
C581 C582 1.397 . S
C581 C586 1.363 . S
C582 H559 0.950 . S
C582 C581 1.397 . S
C582 C583 1.334 . S
C583 H560 0.950 . S
C583 C582 1.334 . S
C583 C584 1.287 . S
C584 C583 1.287 . S
C584 C585 1.524 . S
C584 H603 0.913 . S
C585 H561 0.950 . S
C585 C584 1.524 . S
C585 C586 1.415 . S
C586 H562 0.950 . S
C586 C581 1.363 . S
C586 C585 1.415 . S
C587 H563 0.951 . S
C587 C588 1.366 . S
C587 C589 1.388 . S
C588 C587 1.366 . S
C588 C592 1.385 . S
C589 H564 0.951 . S
C589 C587 1.388 . S
C589 C590 1.366 . S
C590 C589 1.366 . S
C590 C591 1.414 . S
C590 C593 1.499 . S
C591 H565 0.950 . S
C591 C590 1.414 . S
C591 C592 1.374 . S
C592 H566 0.950 . S
C592 C588 1.385 . S
C592 C591 1.374 . S
C593 C590 1.499 . S
C593 C594 1.373 . S
C593 C595 1.389 . S
C594 H567 0.950 . S
C594 C580 1.377 . S
C594 C593 1.373 . S
C595 C579 1.377 . S
C595 C593 1.389 . S
C595 C596 1.524 . S
C596 C595 1.524 . S
C596 C597 1.397 . S
C596 C601 1.363 . S
C597 H568 0.950 . S
C597 C596 1.397 . S
C597 C598 1.334 . S
C598 H569 0.950 . S
C598 C597 1.334 . S
C598 C599 1.287 . S
C599 C598 1.287 . S
C599 C600 1.524 . S
C599 H602 0.999 . S
C600 H570 0.950 . S
C600 C599 1.524 . S
C600 C601 1.415 . S
C601 H571 0.950 . S
C601 C596 1.363 . S
C601 C600 1.415 . S
H602 C599 0.999 . S
H603 C584 0.913 . S
H604 C622 0.951 . S
H605 C624 0.951 . S
H606 C626 0.950 . S
H607 C627 0.950 . S
H608 C629 0.950 . S
H609 C632 0.950 . S
H610 C633 0.950 . S
H611 C635 0.950 . S
H612 C636 0.950 . S
H613 C637 0.951 . S
H614 C639 0.959 . S
H615 C641 0.950 . S
H616 C642 0.950 . S
H617 C644 0.950 . S
H618 C647 0.950 . S
H619 C648 0.950 . S
H620 C650 0.950 . S
H621 C651 0.950 1_556 S
C622 H604 0.951 . S
C622 C623 1.366 . S
C622 C624 1.388 . S
C623 C622 1.366 . S
C623 C627 1.385 . S
C624 H605 0.951 . S
C624 C622 1.388 . S
C624 C625 1.366 . S
C625 C624 1.366 . S
C625 C626 1.414 . S
C625 C628 1.499 . S
C626 H606 0.950 . S
C626 C625 1.414 . S
C626 C627 1.374 . S
C627 H607 0.950 . S
C627 C623 1.385 . S
C627 C626 1.374 . S
C628 C625 1.499 . S
C628 C629 1.373 . S
C628 C630 1.389 . S
C629 H608 0.950 . S
C629 C628 1.373 . S
C629 C645 1.377 . S
C630 C628 1.389 . S
C630 C631 1.524 . S
C630 C644 1.377 . S
C631 C630 1.524 . S
C631 C632 1.397 . S
C631 C636 1.363 . S
C632 H609 0.950 . S
C632 C631 1.397 . S
C632 C633 1.334 . S
C633 H610 0.950 . S
C633 C632 1.334 . S
C633 C634 1.287 . S
C634 C633 1.287 . S
C634 C635 1.524 . S
C634 H653 0.913 . S
C635 H611 0.950 . S
C635 C634 1.524 . S
C635 C636 1.415 . S
C636 H612 0.950 . S
C636 C631 1.363 . S
C636 C635 1.415 . S
C637 H613 0.951 . S
C637 C638 1.366 . S
C637 C639 1.383 1_554 S
C638 C637 1.366 . S
C638 C642 1.385 . S
C639 H614 0.959 . S
C639 C637 1.383 1_556 S
C639 C640 1.362 1_556 S
C640 C639 1.362 1_554 S
C640 C641 1.414 . S
C640 C643 1.499 1_554 S
C641 H615 0.950 . S
C641 C640 1.414 . S
C641 C642 1.374 . S
C642 H616 0.950 . S
C642 C638 1.385 . S
C642 C641 1.374 . S
C643 C640 1.499 1_556 S
C643 C644 1.373 . S
C643 C645 1.389 . S
C644 H617 0.950 . S
C644 C630 1.377 . S
C644 C643 1.373 . S
C645 C629 1.377 . S
C645 C643 1.389 . S
C645 C646 1.524 1_556 S
C646 C645 1.524 1_554 S
C646 C647 1.397 . S
C646 C651 1.363 . S
C647 H618 0.950 . S
C647 C646 1.397 . S
C647 C648 1.334 . S
C648 H619 0.950 . S
C648 C647 1.334 . S
C648 C649 1.287 . S
C649 C648 1.287 . S
C649 C650 1.524 . S
C649 H652 0.999 . S
C650 H620 0.950 . S
C650 C649 1.524 . S
C650 C651 1.415 . S
C651 H621 0.950 1_554 S
C651 C646 1.363 . S
C651 C650 1.415 . S
H652 C649 0.999 . S
H653 C634 0.913 . S
H654 C672 0.951 . S
H655 C674 0.951 . S
H656 C676 0.950 . S
H657 C677 0.950 . S
H658 C679 0.950 . S
H659 C682 0.950 . S
H660 C683 0.950 . S
H661 C685 0.950 . S
H662 C686 0.950 . S
H663 C687 0.951 . S
H664 C689 0.951 . S
H665 C691 0.950 . S
H666 C692 0.950 . S
H667 C694 0.950 . S
H668 C697 0.950 . S
H669 C698 0.950 . S
H670 C700 0.950 . S
H671 C701 0.950 . S
C672 H654 0.951 . S
C672 C673 1.366 . S
C672 C674 1.388 . S
C673 C672 1.366 . S
C673 C677 1.385 . S
C674 H655 0.951 . S
C674 C672 1.388 . S
C674 C675 1.366 . S
C675 C674 1.366 . S
C675 C676 1.414 . S
C675 C678 1.499 . S
C676 H656 0.950 . S
C676 C675 1.414 . S
C676 C677 1.374 . S
C677 H657 0.950 . S
C677 C673 1.385 . S
C677 C676 1.374 . S
C678 C675 1.499 . S
C678 C679 1.373 . S
C678 C680 1.389 . S
C679 H658 0.950 . S
C679 C678 1.373 . S
C679 C695 1.377 1_655 S
C680 C678 1.389 . S
C680 C681 1.524 . S
C680 C694 1.377 1_655 S
C681 C680 1.524 . S
C681 C682 1.397 . S
C681 C686 1.363 1_655 S
C682 H659 0.950 . S
C682 C681 1.397 . S
C682 C683 1.334 . S
C683 H660 0.950 . S
C683 C682 1.334 . S
C683 C684 1.287 . S
C684 C683 1.287 . S
C684 C685 1.524 1_655 S
C684 H703 0.913 . S
C685 H661 0.950 . S
C685 C684 1.524 1_455 S
C685 C686 1.415 . S
C686 H662 0.950 . S
C686 C681 1.363 1_455 S
C686 C685 1.415 . S
C687 H663 0.951 . S
C687 C688 1.366 . S
C687 C689 1.388 . S
C688 C687 1.366 . S
C688 C692 1.385 . S
C689 H664 0.951 . S
C689 C687 1.388 . S
C689 C690 1.366 . S
C690 C689 1.366 . S
C690 C691 1.414 . S
C690 C693 1.499 . S
C691 H665 0.950 . S
C691 C690 1.414 . S
C691 C692 1.374 . S
C692 H666 0.950 . S
C692 C688 1.385 . S
C692 C691 1.374 . S
C693 C690 1.499 . S
C693 C694 1.373 . S
C693 C695 1.389 . S
C694 H667 0.950 . S
C694 C680 1.377 1_455 S
C694 C693 1.373 . S
C695 C679 1.377 1_455 S
C695 C693 1.389 . S
C695 C696 1.524 . S
C696 C695 1.524 . S
C696 C697 1.397 . S
C696 C701 1.363 1_455 S
C697 H668 0.950 . S
C697 C696 1.397 . S
C697 C698 1.334 . S
C698 H669 0.950 . S
C698 C697 1.334 . S
C698 C699 1.287 . S
C699 C698 1.287 . S
C699 C700 1.524 1_455 S
C699 H702 0.999 . S
C700 H670 0.950 . S
C700 C699 1.524 1_655 S
C700 C701 1.415 . S
C701 H671 0.950 . S
C701 C696 1.363 1_655 S
C701 C700 1.415 . S
H702 C699 0.999 . S
H703 C684 0.913 . S
H704 C722 0.951 . S
H705 C724 0.951 . S
H706 C726 0.950 1_556 S
H707 C727 0.950 . S
H708 C729 0.950 . S
H709 C732 0.950 . S
H710 C733 0.950 . S
H711 C735 0.950 . S
H712 C736 0.950 . S
H713 C737 0.951 . S
H714 C739 0.951 . S
H715 C741 0.950 1_554 S
H716 C742 0.950 . S
H717 C744 0.950 . S
H718 C747 0.950 . S
H719 C748 0.950 . S
H720 C750 0.950 . S
H721 C751 0.950 . S
C722 H704 0.951 . S
C722 C723 1.366 . S
C722 C724 1.388 . S
C723 C722 1.366 . S
C723 C727 1.385 . S
C724 H705 0.951 . S
C724 C722 1.388 . S
C724 C725 1.366 . S
C725 C724 1.366 . S
C725 C726 1.414 . S
C725 C728 1.499 . S
C726 H706 0.950 1_554 S
C726 C725 1.414 . S
C726 C727 1.374 . S
C727 H707 0.950 . S
C727 C723 1.385 . S
C727 C726 1.374 . S
C728 C725 1.499 . S
C728 C729 1.373 1_554 S
C728 C730 1.389 . S
C729 H708 0.950 . S
C729 C728 1.373 1_556 S
C729 C745 1.377 . S
C730 C728 1.389 . S
C730 C731 1.524 . S
C730 C744 1.377 . S
C731 C730 1.524 . S
C731 C732 1.397 . S
C731 C736 1.363 . S
C732 H709 0.950 . S
C732 C731 1.397 . S
C732 C733 1.334 . S
C733 H710 0.950 . S
C733 C732 1.334 . S
C733 C734 1.287 . S
C734 C733 1.287 . S
C734 C735 1.524 . S
C734 H753 0.913 . S
C735 H711 0.950 . S
C735 C734 1.524 . S
C735 C736 1.415 . S
C736 H712 0.950 . S
C736 C731 1.363 . S
C736 C735 1.415 . S
C737 H713 0.951 . S
C737 C738 1.366 . S
C737 C739 1.388 . S
C738 C737 1.366 . S
C738 C742 1.385 . S
C739 H714 0.951 . S
C739 C737 1.388 . S
C739 C740 1.366 . S
C740 C739 1.366 . S
C740 C741 1.414 . S
C740 C743 1.499 . S
C741 H715 0.950 1_556 S
C741 C740 1.414 . S
C741 C742 1.374 . S
C742 H716 0.950 . S
C742 C738 1.385 . S
C742 C741 1.374 . S
C743 C740 1.499 . S
C743 C744 1.373 1_556 S
C743 C745 1.389 . S
C744 H717 0.950 . S
C744 C730 1.377 . S
C744 C743 1.373 1_554 S
C745 C729 1.377 . S
C745 C743 1.389 . S
C745 C746 1.524 . S
C746 C745 1.524 . S
C746 C747 1.397 . S
C746 C751 1.363 . S
C747 H718 0.950 . S
C747 C746 1.397 . S
C747 C748 1.334 . S
C748 H719 0.950 . S
C748 C747 1.334 . S
C748 C749 1.287 . S
C749 C748 1.287 . S
C749 C750 1.524 . S
C749 H752 0.999 . S
C750 H720 0.950 . S
C750 C749 1.524 . S
C750 C751 1.415 . S
C751 H721 0.950 . S
C751 C746 1.363 . S
C751 C750 1.415 . S
H752 C749 0.999 . S
H753 C734 0.913 . S
H754 C772 0.951 . S
H755 C774 0.951 . S
H756 C776 0.950 . S
H757 C777 0.950 . S
H758 C779 0.950 . S
H759 C782 0.950 . S
H760 C783 0.950 . S
H761 C785 0.950 . S
H762 C786 0.950 . S
H763 C787 0.951 . S
H764 C789 0.951 . S
H765 C791 0.950 . S
H766 C792 0.950 . S
H767 C794 0.950 . S
H768 C797 0.950 . S
H769 C798 0.950 . S
H770 C800 0.950 . S
H771 C801 0.950 . S
C772 H754 0.951 . S
C772 C773 1.366 . S
C772 C774 1.388 . S
C773 C772 1.366 . S
C773 C777 1.385 . S
C774 H755 0.951 . S
C774 C772 1.388 . S
C774 C775 1.366 . S
C775 C774 1.366 . S
C775 C776 1.414 . S
C775 C778 1.499 . S
C776 H756 0.950 . S
C776 C775 1.414 . S
C776 C777 1.374 . S
C777 H757 0.950 . S
C777 C773 1.385 . S
C777 C776 1.374 . S
C778 C775 1.499 . S
C778 C779 1.373 . S
C778 C780 1.389 . S
C779 H758 0.950 . S
C779 C778 1.373 . S
C779 C795 1.377 1_545 S
C780 C778 1.389 . S
C780 C781 1.524 . S
C780 C794 1.377 1_545 S
C781 C780 1.524 . S
C781 C782 1.397 . S
C781 C786 1.363 . S
C782 H759 0.950 . S
C782 C781 1.397 . S
C782 C783 1.334 . S
C783 H760 0.950 . S
C783 C782 1.334 . S
C783 C784 1.287 . S
C784 C783 1.287 . S
C784 C785 1.524 . S
C784 H803 0.913 . S
C785 H761 0.950 . S
C785 C784 1.524 . S
C785 C786 1.415 . S
C786 H762 0.950 . S
C786 C781 1.363 . S
C786 C785 1.415 . S
C787 H763 0.951 . S
C787 C788 1.366 . S
C787 C789 1.388 . S
C788 C787 1.366 . S
C788 C792 1.385 . S
C789 H764 0.951 . S
C789 C787 1.388 . S
C789 C790 1.366 . S
C790 C789 1.366 . S
C790 C791 1.414 . S
C790 C793 1.499 . S
C791 H765 0.950 . S
C791 C790 1.414 . S
C791 C792 1.374 . S
C792 H766 0.950 . S
C792 C788 1.385 . S
C792 C791 1.374 . S
C793 C790 1.499 . S
C793 C794 1.373 . S
C793 C795 1.389 . S
C794 H767 0.950 . S
C794 C780 1.377 1_565 S
C794 C793 1.373 . S
C795 C779 1.377 1_565 S
C795 C793 1.389 . S
C795 C796 1.524 . S
C796 C795 1.524 . S
C796 C797 1.397 . S
C796 C801 1.363 . S
C797 H768 0.950 . S
C797 C796 1.397 . S
C797 C798 1.334 . S
C798 H769 0.950 . S
C798 C797 1.334 . S
C798 C799 1.287 . S
C799 C798 1.287 . S
C799 C800 1.524 . S
C799 H802 0.999 . S
C800 H770 0.950 . S
C800 C799 1.524 . S
C800 C801 1.415 . S
C801 H771 0.950 . S
C801 C796 1.363 . S
C801 C800 1.415 . S
H802 C799 0.999 . S
H803 C784 0.913 . S
H804 C822 0.951 . S
H805 C824 0.951 . S
H806 C826 0.950 . S
H807 C827 0.950 . S
H808 C829 0.950 . S
H809 C832 0.950 . S
H810 C833 0.950 . S
H811 C835 0.950 . S
H812 C836 0.950 1_556 S
H813 C837 0.951 . S
H814 C839 0.951 . S
H815 C841 0.950 . S
H816 C842 0.950 . S
H817 C844 0.950 . S
H818 C847 0.950 . S
H819 C848 0.950 . S
H820 C850 0.950 . S
H821 C851 0.950 1_554 S
C822 H804 0.951 . S
C822 C823 1.366 1_556 S
C822 C824 1.388 . S
C823 C822 1.366 1_554 S
C823 C827 1.385 . S
C824 H805 0.951 . S
C824 C822 1.388 . S
C824 C825 1.366 1_556 S
C825 C824 1.366 1_554 S
C825 C826 1.414 . S
C825 C828 1.499 . S
C826 H806 0.950 . S
C826 C825 1.414 . S
C826 C827 1.374 . S
C827 H807 0.950 . S
C827 C823 1.385 . S
C827 C826 1.374 . S
C828 C825 1.499 . S
C828 C829 1.373 1_554 S
C828 C830 1.389 . S
C829 H808 0.950 . S
C829 C828 1.373 1_556 S
C829 C845 1.377 . S
C830 C828 1.389 . S
C830 C831 1.524 . S
C830 C844 1.377 . S
C831 C830 1.524 . S
C831 C832 1.397 . S
C831 C836 1.363 . S
C832 H809 0.950 . S
C832 C831 1.397 . S
C832 C833 1.334 . S
C833 H810 0.950 . S
C833 C832 1.334 . S
C833 C834 1.287 . S
C834 C833 1.287 . S
C834 C835 1.524 . S
C834 H853 0.913 . S
C835 H811 0.950 . S
C835 C834 1.524 . S
C835 C836 1.415 . S
C836 H812 0.950 1_554 S
C836 C831 1.363 . S
C836 C835 1.415 . S
C837 H813 0.951 . S
C837 C838 1.366 1_554 S
C837 C839 1.388 . S
C838 C837 1.366 1_556 S
C838 C842 1.385 . S
C839 H814 0.951 . S
C839 C837 1.388 . S
C839 C840 1.366 1_554 S
C840 C839 1.366 1_556 S
C840 C841 1.414 . S
C840 C843 1.499 . S
C841 H815 0.950 . S
C841 C840 1.414 . S
C841 C842 1.374 . S
C842 H816 0.950 . S
C842 C838 1.385 . S
C842 C841 1.374 . S
C843 C840 1.499 . S
C843 C844 1.373 1_556 S
C843 C845 1.389 . S
C844 H817 0.950 . S
C844 C830 1.377 . S
C844 C843 1.373 1_554 S
C845 C829 1.377 . S
C845 C843 1.389 . S
C845 C846 1.524 . S
C846 C845 1.524 . S
C846 C847 1.397 . S
C846 C851 1.363 . S
C847 H818 0.950 . S
C847 C846 1.397 . S
C847 C848 1.334 . S
C848 H819 0.950 . S
C848 C847 1.334 . S
C848 C849 1.287 . S
C849 C848 1.287 . S
C849 C850 1.524 . S
C849 H852 0.999 . S
C850 H820 0.950 . S
C850 C849 1.524 . S
C850 C851 1.415 . S
C851 H821 0.950 1_556 S
C851 C846 1.363 . S
C851 C850 1.415 . S
H852 C849 0.999 . S
H853 C834 0.913 . S
H854 C872 0.951 . S
H855 C874 0.951 . S
H856 C876 0.950 . S
H857 C877 0.950 . S
H858 C879 0.950 . S
H859 C882 0.950 . S
H860 C883 0.950 . S
H861 C885 0.950 . S
H862 C886 0.950 . S
H863 C887 0.951 . S
H864 C889 0.951 . S
H865 C891 0.950 . S
H866 C892 0.950 . S
H867 C894 0.950 . S
H868 C897 0.950 . S
H869 C898 0.950 . S
H870 C900 0.950 . S
H871 C901 0.950 . S
C872 H854 0.951 . S
C872 C873 1.366 . S
C872 C874 1.388 . S
C873 C872 1.366 . S
C873 C877 1.385 . S
C874 H855 0.951 . S
C874 C872 1.388 . S
C874 C875 1.366 . S
C875 C874 1.366 . S
C875 C876 1.414 . S
C875 C878 1.499 . S
C876 H856 0.950 . S
C876 C875 1.414 . S
C876 C877 1.374 . S
C877 H857 0.950 . S
C877 C873 1.385 . S
C877 C876 1.374 . S
C878 C875 1.499 . S
C878 C879 1.373 . S
C878 C880 1.389 . S
C879 H858 0.950 . S
C879 C878 1.373 . S
C879 C895 1.377 1_565 S
C880 C878 1.389 . S
C880 C881 1.524 . S
C880 C894 1.377 1_565 S
C881 C880 1.524 . S
C881 C882 1.397 . S
C881 C886 1.363 . S
C882 H859 0.950 . S
C882 C881 1.397 . S
C882 C883 1.334 . S
C883 H860 0.950 . S
C883 C882 1.334 . S
C883 C884 1.287 . S
C884 C883 1.287 . S
C884 C885 1.524 . S
C884 H903 0.913 . S
C885 H861 0.950 . S
C885 C884 1.524 . S
C885 C886 1.415 . S
C886 H862 0.950 . S
C886 C881 1.363 . S
C886 C885 1.415 . S
C887 H863 0.951 . S
C887 C888 1.366 . S
C887 C889 1.388 . S
C888 C887 1.366 . S
C888 C892 1.385 . S
C889 H864 0.951 . S
C889 C887 1.388 . S
C889 C890 1.366 . S
C890 C889 1.366 . S
C890 C891 1.414 . S
C890 C893 1.499 . S
C891 H865 0.950 . S
C891 C890 1.414 . S
C891 C892 1.374 . S
C892 H866 0.950 . S
C892 C888 1.385 . S
C892 C891 1.374 . S
C893 C890 1.499 . S
C893 C894 1.373 . S
C893 C895 1.389 . S
C894 H867 0.950 . S
C894 C880 1.377 1_545 S
C894 C893 1.373 . S
C895 C879 1.377 1_545 S
C895 C893 1.389 . S
C895 C896 1.524 . S
C896 C895 1.524 . S
C896 C897 1.397 . S
C896 C901 1.363 . S
C897 H868 0.950 . S
C897 C896 1.397 . S
C897 C898 1.334 . S
C898 H869 0.950 . S
C898 C897 1.334 . S
C898 C899 1.287 . S
C899 C898 1.287 . S
C899 C900 1.524 . S
C899 H902 0.999 . S
C900 H870 0.950 . S
C900 C899 1.524 . S
C900 C901 1.415 . S
C901 H871 0.950 . S
C901 C896 1.363 . S
C901 C900 1.415 . S
H902 C899 0.999 . S
H903 C884 0.913 . S
H904 C922 0.951 . S
H905 C924 0.951 . S
H906 C926 0.950 . S
H907 C927 0.950 . S
H908 C929 0.950 . S
H909 C932 0.950 . S
H910 C933 0.950 . S
H911 C935 0.950 . S
H912 C936 0.950 . S
H913 C937 0.951 . S
H914 C939 0.951 . S
H915 C941 0.950 . S
H916 C942 0.950 . S
H917 C944 0.950 . S
H918 C947 0.950 . S
H919 C948 0.950 . S
H920 C950 0.950 . S
H921 C951 0.950 . S
C922 H904 0.951 . S
C922 C923 1.366 . S
C922 C924 1.388 . S
C923 C922 1.366 . S
C923 C927 1.385 . S
C924 H905 0.951 . S
C924 C922 1.388 . S
C924 C925 1.366 . S
C925 C924 1.366 . S
C925 C926 1.414 . S
C925 C928 1.499 . S
C926 H906 0.950 . S
C926 C925 1.414 . S
C926 C927 1.374 . S
C927 H907 0.950 . S
C927 C923 1.385 . S
C927 C926 1.374 . S
C928 C925 1.499 . S
C928 C929 1.373 . S
C928 C930 1.389 . S
C929 H908 0.950 . S
C929 C928 1.373 . S
C929 C945 1.377 1_655 S
C930 C928 1.389 . S
C930 C931 1.524 . S
C930 C944 1.377 1_655 S
C931 C930 1.524 . S
C931 C932 1.397 . S
C931 C936 1.363 . S
C932 H909 0.950 . S
C932 C931 1.397 . S
C932 C933 1.334 . S
C933 H910 0.950 . S
C933 C932 1.334 . S
C933 C934 1.287 . S
C934 C933 1.287 . S
C934 C935 1.524 . S
C934 H953 0.913 . S
C935 H911 0.950 . S
C935 C934 1.524 . S
C935 C936 1.415 . S
C936 H912 0.950 . S
C936 C931 1.363 . S
C936 C935 1.415 . S
C937 H913 0.951 . S
C937 C938 1.366 . S
C937 C939 1.388 . S
C938 C937 1.366 . S
C938 C942 1.385 . S
C939 H914 0.951 . S
C939 C937 1.388 . S
C939 C940 1.366 . S
C940 C939 1.366 . S
C940 C941 1.414 . S
C940 C943 1.499 . S
C941 H915 0.950 . S
C941 C940 1.414 . S
C941 C942 1.374 . S
C942 H916 0.950 . S
C942 C938 1.385 . S
C942 C941 1.374 . S
C943 C940 1.499 . S
C943 C944 1.373 . S
C943 C945 1.389 . S
C944 H917 0.950 . S
C944 C930 1.377 1_455 S
C944 C943 1.373 . S
C945 C929 1.377 1_455 S
C945 C943 1.389 . S
C945 C946 1.524 . S
C946 C945 1.524 . S
C946 C947 1.397 . S
C946 C951 1.363 . S
C947 H918 0.950 . S
C947 C946 1.397 . S
C947 C948 1.334 . S
C948 H919 0.950 . S
C948 C947 1.334 . S
C948 C949 1.287 . S
C949 C948 1.287 . S
C949 C950 1.524 . S
C949 H952 0.999 . S
C950 H920 0.950 . S
C950 C949 1.524 . S
C950 C951 1.415 . S
C951 H921 0.950 . S
C951 C946 1.363 . S
C951 C950 1.415 . S
H952 C949 0.999 . S
H953 C934 0.913 . S
H954 C972 0.951 . S
H955 C974 0.951 . S
H956 C976 0.950 . S
H957 C977 0.950 . S
H958 C979 0.950 . S
H959 C982 0.950 . S
H960 C983 0.950 . S
H961 C985 0.950 . S
H962 C986 0.950 . S
H963 C987 0.951 . S
H964 C989 0.951 . S
H965 C991 0.950 . S
H966 C992 0.950 . S
H967 C994 0.950 . S
H968 C997 0.950 . S
H969 C998 0.950 . S
H970 C1000 0.950 . S
H971 C1001 0.950 . S
C972 H954 0.951 . S
C972 C973 1.366 . S
C972 C974 1.388 . S
C973 C972 1.366 . S
C973 C977 1.385 . S
C974 H955 0.951 . S
C974 C972 1.388 . S
C974 C975 1.366 . S
C975 C974 1.366 . S
C975 C976 1.414 . S
C975 C978 1.499 . S
C976 H956 0.950 . S
C976 C975 1.414 . S
C976 C977 1.374 . S
C977 H957 0.950 . S
C977 C973 1.385 . S
C977 C976 1.374 . S
C978 C975 1.499 . S
C978 C979 1.373 . S
C978 C980 1.389 . S
C979 H958 0.950 . S
C979 C978 1.373 . S
C979 C995 1.377 . S
C980 C978 1.389 . S
C980 C981 1.524 . S
C980 C994 1.377 . S
C981 C980 1.524 . S
C981 C982 1.397 . S
C981 C986 1.363 . S
C982 H959 0.950 . S
C982 C981 1.397 . S
C982 C983 1.334 . S
C983 H960 0.950 . S
C983 C982 1.334 . S
C983 C984 1.287 . S
C984 C983 1.287 . S
C984 C985 1.524 . S
C984 H1003 0.913 . S
C985 H961 0.950 . S
C985 C984 1.524 . S
C985 C986 1.415 . S
C986 H962 0.950 . S
C986 C981 1.363 . S
C986 C985 1.415 . S
C987 H963 0.951 . S
C987 C988 1.366 . S
C987 C989 1.388 . S
C988 C987 1.366 . S
C988 C992 1.385 . S
C989 H964 0.951 . S
C989 C987 1.388 . S
C989 C990 1.366 . S
C990 C989 1.366 . S
C990 C991 1.414 . S
C990 C993 1.499 . S
C991 H965 0.950 . S
C991 C990 1.414 . S
C991 C992 1.374 . S
C992 H966 0.950 . S
C992 C988 1.385 . S
C992 C991 1.374 . S
C993 C990 1.499 . S
C993 C994 1.373 . S
C993 C995 1.389 . S
C994 H967 0.950 . S
C994 C980 1.377 . S
C994 C993 1.373 . S
C995 C979 1.377 . S
C995 C993 1.389 . S
C995 C996 1.524 . S
C996 C995 1.524 . S
C996 C997 1.397 . S
C996 C1001 1.363 . S
C997 H968 0.950 . S
C997 C996 1.397 . S
C997 C998 1.334 . S
C998 H969 0.950 . S
C998 C997 1.334 . S
C998 C999 1.287 . S
C999 C998 1.287 . S
C999 C1000 1.524 . S
C999 H1002 0.999 . S
C1000 H970 0.950 . S
C1000 C999 1.524 . S
C1000 C1001 1.415 . S
C1001 H971 0.950 . S
C1001 C996 1.363 . S
C1001 C1000 1.415 . S
H1002 C999 0.999 . S
H1003 C984 0.913 . S
H1004 C1022 0.951 . S
H1005 C1024 0.951 . S
H1006 C1026 0.950 . S
H1007 C1027 0.950 . S
H1008 C1029 0.950 . S
H1009 C1032 0.950 . S
H1010 C1033 0.950 . S
H1011 C1035 0.950 . S
H1012 C1036 0.950 . S
H1013 C1037 0.951 . S
H1014 C1039 0.951 . S
H1015 C1041 0.950 . S
H1016 C1042 0.950 . S
H1017 C1044 0.950 . S
H1018 C1047 0.950 . S
H1019 C1048 0.950 . S
H1020 C1050 0.950 . S
H1021 C1051 0.950 . S
C1022 H1004 0.951 . S
C1022 C1023 1.366 . S
C1022 C1024 1.388 . S
C1023 C1022 1.366 . S
C1023 C1027 1.385 . S
C1024 H1005 0.951 . S
C1024 C1022 1.388 . S
C1024 C1025 1.366 . S
C1025 C1024 1.366 . S
C1025 C1026 1.414 . S
C1025 C1028 1.499 . S
C1026 H1006 0.950 . S
C1026 C1025 1.414 . S
C1026 C1027 1.374 . S
C1027 H1007 0.950 . S
C1027 C1023 1.385 . S
C1027 C1026 1.374 . S
C1028 C1025 1.499 . S
C1028 C1029 1.373 . S
C1028 C1030 1.389 . S
C1029 H1008 0.950 . S
C1029 C1028 1.373 . S
C1029 C1045 1.377 . S
C1030 C1028 1.389 . S
C1030 C1031 1.524 . S
C1030 C1044 1.377 . S
C1031 C1030 1.524 . S
C1031 C1032 1.397 . S
C1031 C1036 1.363 . S
C1032 H1009 0.950 . S
C1032 C1031 1.397 . S
C1032 C1033 1.334 . S
C1033 H1010 0.950 . S
C1033 C1032 1.334 . S
C1033 C1034 1.287 . S
C1034 C1033 1.287 . S
C1034 C1035 1.524 . S
C1034 H1053 0.913 . S
C1035 H1011 0.950 . S
C1035 C1034 1.524 . S
C1035 C1036 1.415 . S
C1036 H1012 0.950 . S
C1036 C1031 1.363 . S
C1036 C1035 1.415 . S
C1037 H1013 0.951 . S
C1037 C1038 1.366 . S
C1037 C1039 1.388 . S
C1038 C1037 1.366 . S
C1038 C1042 1.385 . S
C1039 H1014 0.951 . S
C1039 C1037 1.388 . S
C1039 C1040 1.366 . S
C1040 C1039 1.366 . S
C1040 C1041 1.414 . S
C1040 C1043 1.499 . S
C1041 H1015 0.950 . S
C1041 C1040 1.414 . S
C1041 C1042 1.374 . S
C1042 H1016 0.950 . S
C1042 C1038 1.385 . S
C1042 C1041 1.374 . S
C1043 C1040 1.499 . S
C1043 C1044 1.373 . S
C1043 C1045 1.389 . S
C1044 H1017 0.950 . S
C1044 C1030 1.377 . S
C1044 C1043 1.373 . S
C1045 C1029 1.377 . S
C1045 C1043 1.389 . S
C1045 C1046 1.524 . S
C1046 C1045 1.524 . S
C1046 C1047 1.397 . S
C1046 C1051 1.363 . S
C1047 H1018 0.950 . S
C1047 C1046 1.397 . S
C1047 C1048 1.334 . S
C1048 H1019 0.950 . S
C1048 C1047 1.334 . S
C1048 C1049 1.287 . S
C1049 C1048 1.287 . S
C1049 C1050 1.524 . S
C1049 H1052 0.999 . S
C1050 H1020 0.950 . S
C1050 C1049 1.524 . S
C1050 C1051 1.415 . S
C1051 H1021 0.950 . S
C1051 C1046 1.363 . S
C1051 C1050 1.415 . S
H1052 C1049 0.999 . S
H1053 C1034 0.913 . S
H1054 C1072 0.951 . S
H1055 C1074 0.951 . S
H1056 C1076 0.950 . S
H1057 C1077 0.950 . S
H1058 C1079 0.950 . S
H1059 C1082 0.950 . S
H1060 C1083 0.950 . S
H1061 C1085 0.950 . S
H1062 C1086 0.950 . S
H1063 C1087 0.951 . S
H1064 C1089 0.951 . S
H1065 C1091 0.950 . S
H1066 C1092 0.950 . S
H1067 C1094 0.950 . S
H1068 C1097 0.950 . S
H1069 C1098 0.950 . S
H1070 C1100 0.950 . S
H1071 C1101 0.950 1_556 S
C1072 H1054 0.951 . S
C1072 C1073 1.366 . S
C1072 C1074 1.388 . S
C1073 C1072 1.366 . S
C1073 C1077 1.385 . S
C1074 H1055 0.951 . S
C1074 C1072 1.388 . S
C1074 C1075 1.366 . S
C1075 C1074 1.366 . S
C1075 C1076 1.414 . S
C1075 C1078 1.499 . S
C1076 H1056 0.950 . S
C1076 C1075 1.414 . S
C1076 C1077 1.374 . S
C1077 H1057 0.950 . S
C1077 C1073 1.385 . S
C1077 C1076 1.374 . S
C1078 C1075 1.499 . S
C1078 C1079 1.373 . S
C1078 C1080 1.389 . S
C1079 H1058 0.950 . S
C1079 C1078 1.373 . S
C1079 C1095 1.377 1_556 S
C1080 C1078 1.389 . S
C1080 C1081 1.524 . S
C1080 C1094 1.377 1_556 S
C1081 C1080 1.524 . S
C1081 C1082 1.397 . S
C1081 C1086 1.363 . S
C1082 H1059 0.950 . S
C1082 C1081 1.397 . S
C1082 C1083 1.334 . S
C1083 H1060 0.950 . S
C1083 C1082 1.334 . S
C1083 C1084 1.287 . S
C1084 C1083 1.287 . S
C1084 C1085 1.524 . S
C1084 H1103 0.913 . S
C1085 H1061 0.950 . S
C1085 C1084 1.524 . S
C1085 C1086 1.415 . S
C1086 H1062 0.950 . S
C1086 C1081 1.363 . S
C1086 C1085 1.415 . S
C1087 H1063 0.951 . S
C1087 C1088 1.366 . S
C1087 C1089 1.388 . S
C1088 C1087 1.366 . S
C1088 C1092 1.385 . S
C1089 H1064 0.951 . S
C1089 C1087 1.388 . S
C1089 C1090 1.366 . S
C1090 C1089 1.366 . S
C1090 C1091 1.414 . S
C1090 C1093 1.499 . S
C1091 H1065 0.950 . S
C1091 C1090 1.414 . S
C1091 C1092 1.374 . S
C1092 H1066 0.950 . S
C1092 C1088 1.385 . S
C1092 C1091 1.374 . S
C1093 C1090 1.499 . S
C1093 C1094 1.373 . S
C1093 C1095 1.389 . S
C1094 H1067 0.950 . S
C1094 C1080 1.377 1_554 S
C1094 C1093 1.373 . S
C1095 C1079 1.377 1_554 S
C1095 C1093 1.389 . S
C1095 C1096 1.524 . S
C1096 C1095 1.524 . S
C1096 C1097 1.397 . S
C1096 C1101 1.363 . S
C1097 H1068 0.950 . S
C1097 C1096 1.397 . S
C1097 C1098 1.334 . S
C1098 H1069 0.950 . S
C1098 C1097 1.334 . S
C1098 C1099 1.287 . S
C1099 C1098 1.287 . S
C1099 C1100 1.524 . S
C1099 H1102 0.999 . S
C1100 H1070 0.950 . S
C1100 C1099 1.524 . S
C1100 C1101 1.415 . S
C1101 H1071 0.950 1_554 S
C1101 C1096 1.363 . S
C1101 C1100 1.415 . S
H1102 C1099 0.999 . S
H1103 C1084 0.913 . S
H1104 C1122 0.951 . S
H1105 C1124 0.951 . S
H1106 C1126 0.950 . S
H1107 C1127 0.950 . S
H1108 C1129 0.950 . S
H1109 C1132 0.950 . S
H1110 C1133 0.950 . S
H1111 C1135 0.950 . S
H1112 C1136 0.950 . S
H1113 C1137 0.951 . S
H1114 C1139 0.951 . S
H1115 C1141 0.950 . S
H1116 C1142 0.950 . S
H1117 C1144 0.950 . S
H1118 C1147 0.950 . S
H1119 C1148 0.950 . S
H1120 C1150 0.950 . S
H1121 C1151 0.950 . S
C1122 H1104 0.951 . S
C1122 C1123 1.366 . S
C1122 C1124 1.388 . S
C1123 C1122 1.366 . S
C1123 C1127 1.385 . S
C1124 H1105 0.951 . S
C1124 C1122 1.388 . S
C1124 C1125 1.366 . S
C1125 C1124 1.366 . S
C1125 C1126 1.414 . S
C1125 C1128 1.499 . S
C1126 H1106 0.950 . S
C1126 C1125 1.414 . S
C1126 C1127 1.374 . S
C1127 H1107 0.950 . S
C1127 C1123 1.385 . S
C1127 C1126 1.374 . S
C1128 C1125 1.499 . S
C1128 C1129 1.373 . S
C1128 C1130 1.389 . S
C1129 H1108 0.950 . S
C1129 C1128 1.373 . S
C1129 C1145 1.377 . S
C1130 C1128 1.389 . S
C1130 C1131 1.524 . S
C1130 C1144 1.377 . S
C1131 C1130 1.524 . S
C1131 C1132 1.397 . S
C1131 C1136 1.363 . S
C1132 H1109 0.950 . S
C1132 C1131 1.397 . S
C1132 C1133 1.334 . S
C1133 H1110 0.950 . S
C1133 C1132 1.334 . S
C1133 C1134 1.287 . S
C1134 C1133 1.287 . S
C1134 C1135 1.524 . S
C1134 H1153 0.913 . S
C1135 H1111 0.950 . S
C1135 C1134 1.524 . S
C1135 C1136 1.415 . S
C1136 H1112 0.950 . S
C1136 C1131 1.363 . S
C1136 C1135 1.415 . S
C1137 H1113 0.951 . S
C1137 C1138 1.366 . S
C1137 C1139 1.388 . S
C1138 C1137 1.366 . S
C1138 C1142 1.385 . S
C1139 H1114 0.951 . S
C1139 C1137 1.388 . S
C1139 C1140 1.366 . S
C1140 C1139 1.366 . S
C1140 C1141 1.414 . S
C1140 C1143 1.499 . S
C1141 H1115 0.950 . S
C1141 C1140 1.414 . S
C1141 C1142 1.374 . S
C1142 H1116 0.950 . S
C1142 C1138 1.385 . S
C1142 C1141 1.374 . S
C1143 C1140 1.499 . S
C1143 C1144 1.373 . S
C1143 C1145 1.389 . S
C1144 H1117 0.950 . S
C1144 C1130 1.377 . S
C1144 C1143 1.373 . S
C1145 C1129 1.377 . S
C1145 C1143 1.389 . S
C1145 C1146 1.524 . S
C1146 C1145 1.524 . S
C1146 C1147 1.397 . S
C1146 C1151 1.363 . S
C1147 H1118 0.950 . S
C1147 C1146 1.397 . S
C1147 C1148 1.334 . S
C1148 H1119 0.950 . S
C1148 C1147 1.334 . S
C1148 C1149 1.287 . S
C1149 C1148 1.287 . S
C1149 C1150 1.524 . S
C1149 H1152 0.999 . S
C1150 H1120 0.950 . S
C1150 C1149 1.524 . S
C1150 C1151 1.415 . S
C1151 H1121 0.950 . S
C1151 C1146 1.363 . S
C1151 C1150 1.415 . S
H1152 C1149 0.999 . S
H1153 C1134 0.913 . S
H1154 C1172 0.951 . S
H1155 C1174 0.951 . S
H1156 C1176 0.950 . S
H1157 C1177 0.950 . S
H1158 C1179 0.950 . S
H1159 C1182 0.950 . S
H1160 C1183 0.950 . S
H1161 C1185 0.950 . S
H1162 C1186 0.950 . S
H1163 C1187 0.951 . S
H1164 C1189 0.951 . S
H1165 C1191 0.950 . S
H1166 C1192 0.950 . S
H1167 C1194 0.950 . S
H1168 C1197 0.950 . S
H1169 C1198 0.950 . S
H1170 C1200 0.950 . S
H1171 C1201 0.950 1_554 S
C1172 H1154 0.951 . S
C1172 C1173 1.366 . S
C1172 C1174 1.388 . S
C1173 C1172 1.366 . S
C1173 C1177 1.385 . S
C1174 H1155 0.951 . S
C1174 C1172 1.388 . S
C1174 C1175 1.366 . S
C1175 C1174 1.366 . S
C1175 C1176 1.414 . S
C1175 C1178 1.499 . S
C1176 H1156 0.950 . S
C1176 C1175 1.414 . S
C1176 C1177 1.374 . S
C1177 H1157 0.950 . S
C1177 C1173 1.385 . S
C1177 C1176 1.374 . S
C1178 C1175 1.499 . S
C1178 C1179 1.373 . S
C1178 C1180 1.389 . S
C1179 H1158 0.950 . S
C1179 C1178 1.373 . S
C1179 C1195 1.377 1_554 S
C1180 C1178 1.389 . S
C1180 C1181 1.524 . S
C1180 C1194 1.377 1_554 S
C1181 C1180 1.524 . S
C1181 C1182 1.397 . S
C1181 C1186 1.363 . S
C1182 H1159 0.950 . S
C1182 C1181 1.397 . S
C1182 C1183 1.334 . S
C1183 H1160 0.950 . S
C1183 C1182 1.334 . S
C1183 C1184 1.287 . S
C1184 C1183 1.287 . S
C1184 C1185 1.524 . S
C1184 H1203 0.913 . S
C1185 H1161 0.950 . S
C1185 C1184 1.524 . S
C1185 C1186 1.415 . S
C1186 H1162 0.950 . S
C1186 C1181 1.363 . S
C1186 C1185 1.415 . S
C1187 H1163 0.951 . S
C1187 C1188 1.366 . S
C1187 C1189 1.388 . S
C1188 C1187 1.366 . S
C1188 C1192 1.385 . S
C1189 H1164 0.951 . S
C1189 C1187 1.388 . S
C1189 C1190 1.366 . S
C1190 C1189 1.366 . S
C1190 C1191 1.414 . S
C1190 C1193 1.499 . S
C1191 H1165 0.950 . S
C1191 C1190 1.414 . S
C1191 C1192 1.374 . S
C1192 H1166 0.950 . S
C1192 C1188 1.385 . S
C1192 C1191 1.374 . S
C1193 C1190 1.499 . S
C1193 C1194 1.373 . S
C1193 C1195 1.389 . S
C1194 H1167 0.950 . S
C1194 C1180 1.377 1_556 S
C1194 C1193 1.373 . S
C1195 C1179 1.377 1_556 S
C1195 C1193 1.389 . S
C1195 C1196 1.524 . S
C1196 C1195 1.524 . S
C1196 C1197 1.397 . S
C1196 C1201 1.363 . S
C1197 H1168 0.950 . S
C1197 C1196 1.397 . S
C1197 C1198 1.334 . S
C1198 H1169 0.950 . S
C1198 C1197 1.334 . S
C1198 C1199 1.287 . S
C1199 C1198 1.287 . S
C1199 C1200 1.524 . S
C1199 H1202 0.999 . S
C1200 H1170 0.950 . S
C1200 C1199 1.524 . S
C1200 C1201 1.415 . S
C1201 H1171 0.950 1_556 S
C1201 C1196 1.363 . S
C1201 C1200 1.415 . S
H1202 C1199 0.999 . S
H1203 C1184 0.913 . S
H1204 C1222 0.951 . S
H1205 C1224 0.951 . S
H1206 C1226 0.950 . S
H1207 C1227 0.950 . S
H1208 C1229 0.950 . S
H1209 C1232 0.950 . S
H1210 C1233 0.950 . S
H1211 C1235 0.950 . S
H1212 C1236 0.950 . S
H1213 C1237 0.951 . S
H1214 C1239 0.951 . S
H1215 C1241 0.950 . S
H1216 C1242 0.950 . S
H1217 C1244 0.950 . S
H1218 C1247 0.950 . S
H1219 C1248 0.950 . S
H1220 C1250 0.950 . S
H1221 C1251 0.950 . S
C1222 H1204 0.951 . S
C1222 C1223 1.366 . S
C1222 C1224 1.388 . S
C1223 C1222 1.366 . S
C1223 C1227 1.385 . S
C1224 H1205 0.951 . S
C1224 C1222 1.388 . S
C1224 C1225 1.366 . S
C1225 C1224 1.366 . S
C1225 C1226 1.414 . S
C1225 C1228 1.499 . S
C1226 H1206 0.950 . S
C1226 C1225 1.414 . S
C1226 C1227 1.374 . S
C1227 H1207 0.950 . S
C1227 C1223 1.385 . S
C1227 C1226 1.374 . S
C1228 C1225 1.499 . S
C1228 C1229 1.373 . S
C1228 C1230 1.389 . S
C1229 H1208 0.950 . S
C1229 C1228 1.373 . S
C1229 C1245 1.377 . S
C1230 C1228 1.389 . S
C1230 C1231 1.524 . S
C1230 C1244 1.377 . S
C1231 C1230 1.524 . S
C1231 C1232 1.397 . S
C1231 C1236 1.363 . S
C1232 H1209 0.950 . S
C1232 C1231 1.397 . S
C1232 C1233 1.334 . S
C1233 H1210 0.950 . S
C1233 C1232 1.334 . S
C1233 C1234 1.287 . S
C1234 C1233 1.287 . S
C1234 C1235 1.524 . S
C1234 H1253 0.913 . S
C1235 H1211 0.950 . S
C1235 C1234 1.524 . S
C1235 C1236 1.415 . S
C1236 H1212 0.950 . S
C1236 C1231 1.363 . S
C1236 C1235 1.415 . S
C1237 H1213 0.951 . S
C1237 C1238 1.366 . S
C1237 C1239 1.388 . S
C1238 C1237 1.366 . S
C1238 C1242 1.385 . S
C1239 H1214 0.951 . S
C1239 C1237 1.388 . S
C1239 C1240 1.366 . S
C1240 C1239 1.366 . S
C1240 C1241 1.414 . S
C1240 C1243 1.499 . S
C1241 H1215 0.950 . S
C1241 C1240 1.414 . S
C1241 C1242 1.374 . S
C1242 H1216 0.950 . S
C1242 C1238 1.385 . S
C1242 C1241 1.374 . S
C1243 C1240 1.499 . S
C1243 C1244 1.373 . S
C1243 C1245 1.389 . S
C1244 H1217 0.950 . S
C1244 C1230 1.377 . S
C1244 C1243 1.373 . S
C1245 C1229 1.377 . S
C1245 C1243 1.389 . S
C1245 C1246 1.524 . S
C1246 C1245 1.524 . S
C1246 C1247 1.397 . S
C1246 C1251 1.363 . S
C1247 H1218 0.950 . S
C1247 C1246 1.397 . S
C1247 C1248 1.334 . S
C1248 H1219 0.950 . S
C1248 C1247 1.334 . S
C1248 C1249 1.287 . S
C1249 C1248 1.287 . S
C1249 C1250 1.524 . S
C1249 H1252 0.999 . S
C1250 H1220 0.950 . S
C1250 C1249 1.524 . S
C1250 C1251 1.415 . S
C1251 H1221 0.950 . S
C1251 C1246 1.363 . S
C1251 C1250 1.415 . S
H1252 C1249 0.999 . S
H1253 C1234 0.913 . S
C223 C3 2.685 . S
C238 C139 2.685 . S
C273 C171 2.686 . S
C288 C37 2.686 . S
C323 C69 2.685 . S
C338 C103 2.685 . S
C373 C22 1.800 . S
C388 C85 1.837 . S
C423 C17 1.838 . S
C438 C56 1.800 . S
C473 C51 1.837 . S
C488 C83 1.800 . S
C523 C117 1.800 . S
C538 C153 1.837 . S
C573 C158 1.801 . S
C588 C187 1.837 . S
C623 C119 1.837 . S
C638 C185 1.801 . S
C673 C137 0.917 . S
C688 C1 0.917 . S
C723 C173 0.917 . S
C738 C35 0.918 . S
C773 C105 0.915 . S
C788 C71 0.915 . S
C823 C15 1.226 . S
C838 C124 1.227 . S
C873 C49 1.224 . S
C888 C151 1.225 . S
C923 C192 1.224 . S
C938 C90 1.224 . S
C973 C6 1.132 . S
C988 C28 1.135 . S
C1023 C62 1.135 . S
C1038 C40 1.133 . S
C1073 C96 1.133 . S
C1088 C74 1.135 . S
C1123 C130 1.132 . S
C1138 C108 1.135 . S
C1173 C142 1.132 . S
C1188 C164 1.135 . S
C1223 C176 1.135 . S
C1238 C198 1.133 . S
