# Generated by pormake.
# Topology nov, (5)-cn, num edge types: 1
# Building blocks:
#     Node 0, Type 0, BuildingBlock: XOMCOT_clean_sbu_1, # of connection points: 5
#     Node 1, Type 0, BuildingBlock: XOMCOT_clean_sbu_1, # of connection points: 5
#     Node 2, Type 0, BuildingBlock: XOMCOT_clean_sbu_1, # of connection points: 5
#     Node 3, Type 0, BuildingBlock: XOMCOT_clean_sbu_1, # of connection points: 5
#     Node 4, Type 0, BuildingBlock: XOMCOT_clean_sbu_1, # of connection points: 5
#     Node 5, Type 0, BuildingBlock: XOMCOT_clean_sbu_1, # of connection points: 5
#     Node 6, Type 0, BuildingBlock: XOMCOT_clean_sbu_1, # of connection points: 5
#     Node 7, Type 0, BuildingBlock: XOMCOT_clean_sbu_1, # of connection points: 5
#     Edge 8, Type (0, 0), BuildingBlock: TEMPAE_clean_linker_10, # of connection points: 2
#     Edge 9, Type (0, 0), BuildingBlock: TEMPAE_clean_linker_10, # of connection points: 2
#     Edge 10, Type (0, 0), BuildingBlock: TEMPAE_clean_linker_10, # of connection points: 2
#     Edge 11, Type (0, 0), BuildingBlock: TEMPAE_clean_linker_10, # of connection points: 2
#     Edge 12, Type (0, 0), BuildingBlock: TEMPAE_clean_linker_10, # of connection points: 2
#     Edge 13, Type (0, 0), BuildingBlock: TEMPAE_clean_linker_10, # of connection points: 2
#     Edge 14, Type (0, 0), BuildingBlock: TEMPAE_clean_linker_10, # of connection points: 2
#     Edge 15, Type (0, 0), BuildingBlock: TEMPAE_clean_linker_10, # of connection points: 2
#     Edge 16, Type (0, 0), BuildingBlock: TEMPAE_clean_linker_10, # of connection points: 2
#     Edge 17, Type (0, 0), BuildingBlock: TEMPAE_clean_linker_10, # of connection points: 2
#     Edge 18, Type (0, 0), BuildingBlock: TEMPAE_clean_linker_10, # of connection points: 2
#     Edge 19, Type (0, 0), BuildingBlock: TEMPAE_clean_linker_10, # of connection points: 2
#     Edge 20, Type (0, 0), BuildingBlock: TEMPAE_clean_linker_10, # of connection points: 2
#     Edge 21, Type (0, 0), BuildingBlock: TEMPAE_clean_linker_10, # of connection points: 2
#     Edge 22, Type (0, 0), BuildingBlock: TEMPAE_clean_linker_10, # of connection points: 2
#     Edge 23, Type (0, 0), BuildingBlock: TEMPAE_clean_linker_10, # of connection points: 2
#     Edge 24, Type (0, 0), BuildingBlock: TEMPAE_clean_linker_10, # of connection points: 2
#     Edge 25, Type (0, 0), BuildingBlock: TEMPAE_clean_linker_10, # of connection points: 2
#     Edge 26, Type (0, 0), BuildingBlock: TEMPAE_clean_linker_10, # of connection points: 2
#     Edge 27, Type (0, 0), BuildingBlock: TEMPAE_clean_linker_10, # of connection points: 2
# Relax obj value: 0.129
# Max RMSD: 0.163
# Mean RMSD: 0.163
data_MOF--net-nov--node1-XOMCOT_clean_sbu_1--edge1-TEMPAE_clean_linker_10
_symmetry_space_group_name_H-M    P1
_symmetry_Int_Tables_number       1
_symmetry_cell_setting            triclinic
loop_
_symmetry_equiv_pos_as_xyz
'x, y, z'
_cell_length_a     27.165833
_cell_length_b     54.144593
_cell_length_c     28.469972
_cell_angle_alpha  90.008104
_cell_angle_beta   90.100239
_cell_angle_gamma 90.039786
loop_
_atom_site_label
_atom_site_type_symbol
_atom_site_fract_x
_atom_site_fract_y
_atom_site_fract_z
_atom_type_partial_charge
C0 C 0.09248 0.14121 0.05168 0.0
C1 C 0.09959 0.11987 0.02657 0.0
N2 N 0.09286 0.10052 0.05557 0.0
N3 N 0.08039 0.13555 0.09637 0.0
C4 C 0.08198 0.11056 0.09788 0.0
H5 H 0.09654 0.15976 0.03818 0.0
Co6 Co 0.07151 0.15902 0.1446 0.0
C7 C 0.97804 0.12684 0.15911 0.0
O8 O 0.9808 0.11391 0.12019 0.0
N9 N 0.06282 0.18235 0.1926 0.0
C10 C 1.02503 0.20904 0.23939 0.0
C11 C 1.01953 0.19353 0.20182 0.0
C12 C 0.09427 0.19143 0.22529 0.0
N13 N 0.07197 0.20766 0.25457 0.0
O14 O 0.11439 0.13996 0.18527 0.0
H15 H 0.98581 0.19056 0.18235 0.0
H16 H 0.13241 0.18589 0.22813 0.0
O17 O 1.01117 0.14292 0.1686 0.0
C18 C 0.15834 0.14406 0.17102 0.0
O19 O 0.16432 0.15869 0.13462 0.0
N20 N 0.03572 0.17938 0.10299 0.0
C21 C 1.00531 0.2111 0.03124 0.0
C22 C 0.98022 0.18884 0.03961 0.0
C23 C 0.99579 0.17324 0.07615 0.0
C24 C 0.05978 0.20115 0.0956 0.0
C25 C 0.04473 0.21741 0.0606 0.0
H26 H 0.97781 0.15568 0.0806 0.0
H27 H 0.09251 0.2054 0.11572 0.0
H28 H 0.07599 0.09996 0.12959 0.0
H29 H 0.10859 0.11874 0.98962 0.0
H30 H 0.99649 0.22064 0.25399 0.0
H31 H 0.95002 0.18319 0.01716 0.0
H32 H 0.06588 0.23409 0.05462 0.0
C33 C 0.54116 0.88582 0.55514 0.0
C34 C 0.53408 0.9068 0.52889 0.0
N35 N 0.54462 0.92654 0.5559 0.0
N36 N 0.55706 0.89211 0.59844 0.0
C37 C 0.55778 0.9171 0.59813 0.0
H38 H 0.53461 0.86709 0.54349 0.0
Co39 Co 0.56748 0.86967 0.64798 0.0
C40 C 0.66259 0.90154 0.6586 0.0
O41 O 0.66096 0.91335 0.61836 0.0
N42 N 0.57776 0.84753 0.69759 0.0
C43 C 0.61684 0.82215 0.74612 0.0
C44 C 0.62185 0.83749 0.70826 0.0
C45 C 0.54628 0.83782 0.7294 0.0
N46 N 0.56935 0.82238 0.75962 0.0
O47 O 0.52528 0.88948 0.68792 0.0
H48 H 0.65559 0.84086 0.68917 0.0
H49 H 0.5074 0.84209 0.73059 0.0
O50 O 0.62839 0.88628 0.66933 0.0
C51 C 0.48155 0.88396 0.67459 0.0
O52 O 0.47654 0.86775 0.64052 0.0
N53 N 0.6021 0.84839 0.60698 0.0
C54 C 0.6235 0.81606 0.53296 0.0
C55 C 0.64772 0.83901 0.53683 0.0
C56 C 0.63689 0.85485 0.57461 0.0
C57 C 0.58054 0.82567 0.60496 0.0
C58 C 0.59213 0.80899 0.56964 0.0
H59 H 0.6528 0.87307 0.57504 0.0
H60 H 0.55166 0.82083 0.62935 0.0
H61 H 0.56677 0.92815 0.62865 0.0
H62 H 0.52239 0.9074 0.49255 0.0
H63 H 0.64587 0.81121 0.76182 0.0
H64 H 0.67209 0.84548 0.50943 0.0
H65 H 0.57389 0.79121 0.56973 0.0
C66 C 0.10059 0.88217 0.95509 0.0
C67 C 0.10823 0.90335 0.98067 0.0
N68 N 0.09711 0.9229 0.95337 0.0
N69 N 0.0838 0.88815 0.91195 0.0
C70 C 0.08322 0.91314 0.91159 0.0
H71 H 0.10696 0.86351 0.9672 0.0
Co72 Co 0.07098 0.86529 0.86383 0.0
C73 C 0.97734 0.89824 0.85329 0.0
O74 O 0.98008 0.91037 0.89314 0.0
N75 N 0.05838 0.84249 0.81535 0.0
C76 C 1.01728 0.81633 0.76976 0.0
C77 C 1.01393 0.83224 0.80699 0.0
C78 C 0.08827 0.83243 0.7825 0.0
N79 N 0.06405 0.81648 0.75402 0.0
O80 O 0.11315 0.88411 0.82235 0.0
H81 H 0.98105 0.8359 0.82721 0.0
H82 H 0.12688 0.83684 0.77924 0.0
O83 O 1.01052 0.8824 0.84271 0.0
C84 C 0.1564 0.87602 0.83157 0.0
O85 O 0.16087 0.85891 0.86407 0.0
N86 N 0.03624 0.84499 0.90652 0.0
C87 C 1.01231 0.8134 0.98107 0.0
C88 C 0.98893 0.83648 0.97609 0.0
C89 C 1.00119 0.85199 0.9382 0.0
C90 C 0.05747 0.82225 0.90988 0.0
C91 C 0.04487 0.80598 0.9456 0.0
H92 H 0.98566 0.87027 0.93683 0.0
H93 H 0.08651 0.81705 0.88592 0.0
H94 H 0.07341 0.92398 0.88104 0.0
H95 H 0.12035 0.90422 0.01686 0.0
H96 H 0.98747 0.80518 0.75608 0.0
H97 H 0.96385 0.84323 1.00264 0.0
H98 H 0.06278 0.78813 0.94656 0.0
C99 C 0.54238 0.14446 0.45414 0.0
C100 C 0.53429 0.12324 0.47939 0.0
N101 N 0.54297 0.10373 0.45123 0.0
N102 N 0.55701 0.13853 0.41032 0.0
C103 C 0.55585 0.11355 0.40928 0.0
H104 H 0.53785 0.16312 0.46701 0.0
Co105 Co 0.56989 0.16147 0.3625 0.0
C106 C 0.66174 0.12753 0.35024 0.0
O107 O 0.65846 0.11483 0.38939 0.0
N108 N 0.5826 0.18442 0.31452 0.0
C109 C 0.62441 0.20967 0.26778 0.0
C110 C 0.62754 0.19387 0.30522 0.0
C111 C 0.55258 0.19497 0.28229 0.0
N112 N 0.57726 0.21031 0.25314 0.0
O113 O 0.52665 0.1432 0.32104 0.0
H114 H 0.6607 0.18958 0.32466 0.0
H115 H 0.51361 0.19127 0.27966 0.0
O116 O 0.62933 0.14392 0.34051 0.0
C117 C 0.48339 0.15128 0.33 0.0
O118 O 0.47871 0.16839 0.36244 0.0
N119 N 0.60614 0.1811 0.40489 0.0
C120 C 0.6371 0.21245 0.47702 0.0
C121 C 0.65984 0.18943 0.47023 0.0
C122 C 0.64402 0.17401 0.43349 0.0
C123 C 0.58438 0.20356 0.41081 0.0
C124 C 0.59979 0.21964 0.44598 0.0
H125 H 0.65996 0.15591 0.43025 0.0
H126 H 0.55304 0.20859 0.38938 0.0
H127 H 0.5639 0.1028 0.37819 0.0
H128 H 0.52366 0.12229 0.51597 0.0
H129 H 0.65456 0.22013 0.25291 0.0
H130 H 0.68829 0.18309 0.49403 0.0
H131 H 0.58032 0.23692 0.45072 0.0
C132 C 0.60818 0.64047 0.06522 0.0
C133 C 0.61257 0.61876 0.04073 0.0
N134 N 0.58557 0.60138 0.06264 0.0
N135 N 0.57851 0.63693 0.10253 0.0
C136 C 0.56513 0.61287 0.10009 0.0
H137 H 0.62573 0.65782 0.05663 0.0
Co138 Co 0.56624 0.66182 0.1465 0.0
C139 C 0.45877 0.64725 0.16194 0.0
O140 O 0.44207 0.66336 0.13156 0.0
N141 N 0.55539 0.68681 0.19157 0.0
C142 C 0.52194 0.71707 0.23376 0.0
C143 C 0.51325 0.69925 0.20042 0.0
C144 C 0.58904 0.69734 0.22049 0.0
N145 N 0.56956 0.71578 0.24632 0.0
O146 O 0.60539 0.64391 0.19177 0.0
H147 H 0.47865 0.69633 0.18272 0.0
H148 H 0.6274 0.6922 0.22166 0.0
O149 O 0.5052 0.6451 0.16952 0.0
C150 C 0.65109 0.64691 0.18284 0.0
O151 O 0.66378 0.66125 0.1477 0.0
N152 N 0.53367 0.68069 0.09902 0.0
C153 C 0.50408 0.71018 0.02324 0.0
C154 C 0.4914 0.6851 0.02492 0.0
C155 C 0.50712 0.6706 0.06279 0.0
C156 C 0.54804 0.70484 0.09636 0.0
C157 C 0.53257 0.71999 0.05972 0.0
H158 H 0.49833 0.65112 0.06268 0.0
H159 H 0.57361 0.71241 0.12162 0.0
H160 H 0.54205 0.60381 0.12581 0.0
H161 H 0.63392 0.61598 0.0091 0.0
H162 H 0.49532 0.72994 0.2479 0.0
H163 H 0.47055 0.67665 0.9967 0.0
H164 H 0.5454 0.73894 0.05857 0.0
C165 C 0.03874 0.37941 0.54774 0.0
C166 C 1.02969 0.40053 0.52239 0.0
N167 N 0.0358 0.4201 0.551 0.0
N168 N 0.05145 0.3855 0.5921 0.0
C169 C 0.04794 0.41044 0.59331 0.0
H170 H 0.03622 0.36073 0.53451 0.0
Co171 Co 0.06475 0.36274 0.64038 0.0
C172 C 0.15408 0.39818 0.65341 0.0
O173 O 0.14841 0.41169 0.61551 0.0
N174 N 0.07752 0.33981 0.68895 0.0
C175 C 0.11874 0.31359 0.73437 0.0
C176 C 0.12176 0.32923 0.69668 0.0
C177 C 0.0481 0.3302 0.72277 0.0
N178 N 0.0724 0.31422 0.75119 0.0
O179 O 1.02107 0.38084 0.68109 0.0
H180 H 0.15436 0.33253 0.67585 0.0
H181 H 1.00981 0.33502 0.72695 0.0
O182 O 0.12359 0.38078 0.66258 0.0
C183 C 0.97801 0.37256 0.67194 0.0
O184 O 0.97367 0.35507 0.64016 0.0
N185 N 0.1022 0.34347 0.59861 0.0
C186 C 0.13848 0.31247 0.52851 0.0
C187 C 0.15952 0.33583 0.53608 0.0
C188 C 0.141 0.35108 0.57176 0.0
C189 C 0.08182 0.32074 0.5918 0.0
C190 C 0.0999 0.30482 0.5576 0.0
H191 H 0.15589 0.36939 0.57568 0.0
H192 H 0.04992 0.31529 0.612 0.0
H193 H 0.05401 0.42129 0.62472 0.0
H194 H 1.02033 0.4014 0.48546 0.0
H195 H 0.14854 0.30234 0.74771 0.0
H196 H 0.18881 0.34252 0.51367 0.0
H197 H 0.08174 0.28723 0.55207 0.0
C198 C 0.61026 0.388 0.94153 0.0
C199 C 0.61238 0.40885 0.96881 0.0
N200 N 0.58408 0.42643 0.94886 0.0
N201 N 0.58083 0.39219 0.90424 0.0
C202 C 0.56565 0.41585 0.90937 0.0
H203 H 0.62865 0.37068 0.94862 0.0
Co204 Co 0.56742 0.36815 0.85853 0.0
C205 C 0.46141 0.38561 0.84379 0.0
O206 O 0.44355 0.37079 0.87582 0.0
N207 N 0.5545 0.34427 0.81162 0.0
C208 C 0.51536 0.3172 0.76625 0.0
C209 C 0.51077 0.33326 0.80316 0.0
C210 C 0.58518 0.33448 0.77907 0.0
N211 N 0.56217 0.318 0.75074 0.0
O212 O 0.60912 0.38594 0.81508 0.0
H213 H 0.47765 0.33616 0.82326 0.0
H214 H 0.62351 0.33954 0.77581 0.0
O215 O 0.50786 0.38622 0.83547 0.0
C216 C 0.65336 0.38036 0.82636 0.0
O217 O 0.66021 0.36418 0.86013 0.0
N218 N 0.53336 0.34897 0.90474 0.0
C219 C 0.50775 0.3191 0.98146 0.0
C220 C 0.49472 0.34414 0.98046 0.0
C221 C 0.50858 0.35882 0.94223 0.0
C222 C 0.54707 0.32469 0.90609 0.0
C223 C 0.53365 0.30939 0.94325 0.0
H224 H 0.50059 0.37836 0.94361 0.0
H225 H 0.57133 0.3172 0.87968 0.0
H226 H 0.54094 0.42494 0.88508 0.0
H227 H 0.63382 0.4109 1.00063 0.0
H228 H 0.48642 0.30546 0.75266 0.0
H229 H 0.47562 0.35254 0.00974 0.0
H230 H 0.54662 0.29047 0.94351 0.0
C231 C 0.03946 0.63871 0.46023 0.0
C232 C 0.03175 0.61695 0.48379 0.0
N233 N 0.03709 0.59819 0.45323 0.0
N234 N 0.05058 0.63391 0.41492 0.0
C235 C 0.04774 0.60897 0.41155 0.0
H236 H 0.03609 0.65697 0.47522 0.0
Co237 Co 0.05808 0.65859 0.36848 0.0
C238 C 0.15151 0.62723 0.35109 0.0
O239 O 0.14698 0.61253 0.38746 0.0
N240 N 0.06459 0.68335 0.3227 0.0
C241 C 0.09722 0.71394 0.28096 0.0
C242 C 0.10632 0.69617 0.31418 0.0
C243 C 0.03061 0.69353 0.29372 0.0
N244 N 0.04969 0.71225 0.26814 0.0
O245 O 1.01716 0.63982 0.32595 0.0
H246 H 0.14105 0.69317 0.33188 0.0
H247 H 0.99248 0.68786 0.29225 0.0
O248 O 0.11927 0.64401 0.34329 0.0
C249 C 0.97237 0.64027 0.33964 0.0
O250 O 0.96166 0.65171 0.379 0.0
N251 N 0.09314 0.67839 0.41131 0.0
C252 C 0.12749 0.70989 0.48147 0.0
C253 C 0.15241 0.68782 0.47145 0.0
C254 C 0.13481 0.67232 0.43566 0.0
C255 C 0.06866 0.69976 0.42094 0.0
C256 C 0.08567 0.71596 0.45519 0.0
H257 H 0.15314 0.655 0.42948 0.0
H258 H 0.0347 0.7039 0.4027 0.0
H259 H 0.05248 0.59894 0.37897 0.0
H260 H 1.0231 0.61509 0.52073 0.0
H261 H 0.12355 0.72701 0.26693 0.0
H262 H 0.18429 0.68236 0.49183 0.0
H263 H 0.06469 0.73249 0.46281 0.0
C264 C 0.13063 0.9567 1.00236 0.0
C265 C 0.09819 0.9486 0.96711 0.0
C266 C 0.13058 0.98133 0.01787 0.0
C267 C 0.09724 0.99841 0.99771 0.0
C268 C 0.06469 0.99045 0.9618 0.0
C269 C 0.06563 0.96568 0.94688 0.0
C270 C 0.16621 0.98908 0.05589 0.0
C271 C 1.02854 1.00806 0.93943 0.0
C272 C 0.06629 0.05709 0.06572 0.0
C273 C 0.09564 0.07471 0.04293 0.0
C274 C 0.06649 0.03219 0.0515 0.0
C275 C 0.09697 0.02468 0.01374 0.0
C276 C 0.12734 0.0423 0.99121 0.0
C277 C 0.12628 0.06703 0.00604 0.0
C278 C 0.03354 0.01397 0.07642 0.0
C279 C 0.16074 0.03508 0.95115 0.0
H280 H 0.1564 0.94376 0.01773 0.0
H281 H 0.04004 0.95954 0.9201 0.0
H282 H 0.19035 1.0041 0.04281 0.0
H283 H 0.14571 0.99649 0.08648 0.0
H284 H 0.18973 0.97355 0.06802 0.0
H285 H 1.00565 0.99899 0.91202 0.0
H286 H 1.00383 0.01585 0.96664 0.0
H287 H 0.04854 0.02376 0.92321 0.0
H288 H 0.04215 0.0629 0.09386 0.0
H289 H 0.14966 0.08042 0.98873 0.0
H290 H 0.05582 0.99861 0.09099 0.0
H291 H 1.00709 1.00579 0.05107 0.0
H292 H 1.0125 0.02266 0.10548 0.0
H293 H 0.18655 0.02041 0.9627 0.0
H294 H 0.18251 0.05094 0.93771 0.0
H295 H 0.13858 0.02739 0.92181 0.0
C296 C 0.57196 0.06061 0.44286 0.0
C297 C 0.54108 0.07798 0.46447 0.0
C298 C 0.57253 0.0358 0.45754 0.0
C299 C 0.54134 0.02812 0.49463 0.0
C300 C 0.50952 0.04547 0.51604 0.0
C301 C 0.50979 0.07012 0.50072 0.0
C302 C 0.60699 0.01788 0.43379 0.0
C303 C 0.47539 0.03802 0.55539 0.0
C304 C 0.51071 0.95979 0.50587 0.0
C305 C 0.54274 0.95218 0.54183 0.0
C306 C 0.50988 0.98438 0.49022 0.0
C307 C 0.54182 1.00193 0.51102 0.0
C308 C 0.5739 0.99448 0.54768 0.0
C309 C 0.57392 0.96972 0.56267 0.0
C310 C 0.47486 0.99157 0.4513 0.0
C311 C 0.60853 1.01262 0.57077 0.0
H312 H 0.59666 0.06655 0.41526 0.0
H313 H 0.48528 0.0833 0.51714 0.0
H314 H 0.63305 1.01011 0.45994 0.0
H315 H 0.58581 1.0022 0.41887 0.0
H316 H 0.62848 0.02668 0.40515 0.0
H317 H 0.45262 0.05369 0.56808 0.0
H318 H 0.4505 0.02302 0.54343 0.0
H319 H 0.49707 0.03069 0.58535 0.0
H320 H 0.48593 0.9465 0.49004 0.0
H321 H 0.59917 0.96397 0.59004 0.0
H322 H 0.49578 0.99914 0.42112 0.0
H323 H 0.4497 1.00633 0.46365 0.0
H324 H 0.45238 0.97572 0.43882 0.0
H325 H 0.63369 0.02061 0.54412 0.0
H326 H 0.631 1.00394 0.59892 0.0
H327 H 0.58734 0.02813 0.58619 0.0
C328 C 0.53692 0.56301 0.05325 0.0
C329 C 0.58154 0.57582 0.04886 0.0
C330 C 0.53227 0.53852 0.03707 0.0
C331 C 0.57347 0.52651 0.01681 0.0
C332 C 0.61879 0.53929 0.01321 0.0
C333 C 0.62214 0.56376 0.029 0.0
C334 C 0.48321 0.52562 0.04107 0.0
C335 C 0.66393 0.52708 0.99276 0.0
C336 C 0.58422 0.45659 0.0142 0.0
C337 C 0.57646 0.45124 0.96643 0.0
C338 C 0.58158 0.48086 0.03135 0.0
C339 C 0.57011 0.50039 1.00024 0.0
C340 C 0.55971 0.49506 0.95249 0.0
C341 C 0.56322 0.47058 0.93611 0.0
C342 C 0.59316 0.48568 0.08245 0.0
C343 C 0.54678 0.51534 0.91828 0.0
H344 H 0.50539 0.57238 0.06818 0.0
H345 H 0.65686 0.5735 0.02618 0.0
H346 H 0.47021 0.51997 0.00569 0.0
H347 H 0.48712 0.50855 0.06229 0.0
H348 H 0.45474 0.53752 0.0575 0.0
H349 H 0.69647 0.53953 0.99277 0.0
H350 H 0.67316 0.51026 0.01319 0.0
H351 H 0.65649 0.52119 0.95611 0.0
H352 H 0.59309 0.44182 0.03835 0.0
H353 H 0.55721 0.46679 0.89921 0.0
H354 H 0.56323 0.49654 0.09896 0.0
H355 H 0.62738 0.49679 0.08522 0.0
H356 H 0.59828 0.46834 0.10272 0.0
H357 H 0.51712 0.52715 0.93282 0.0
H358 H 0.53459 0.50794 0.88376 0.0
H359 H 0.57938 0.52732 0.91256 0.0
C360 C 0.06337 0.46343 0.55957 0.0
C361 C 0.03309 0.44583 0.53776 0.0
C362 C 0.0634 0.48822 0.54479 0.0
C363 C 0.03208 0.49568 0.50754 0.0
C364 C 1.00082 0.47808 0.48594 0.0
C365 C 1.00182 0.4534 0.5012 0.0
C366 C 0.09745 0.50638 0.56865 0.0
C367 C 0.9664 0.4853 0.44658 0.0
C368 C 1.00124 0.56408 0.4994 0.0
C369 C 0.0334 0.57222 0.4641 0.0
C370 C 0.99984 0.5392 0.51326 0.0
C371 C 0.03165 0.52196 0.49156 0.0
C372 C 0.06351 0.52993 0.45517 0.0
C373 C 0.0638 0.55495 0.44171 0.0
C374 C 0.96481 0.53146 0.55168 0.0
C375 C 0.09816 0.51216 0.43129 0.0
H376 H 0.08808 0.45768 0.58738 0.0
H377 H 0.97788 0.43999 0.48457 0.0
H378 H 0.12288 0.51457 0.54247 0.0
H379 H 0.07583 0.52174 0.58407 0.0
H380 H 0.11963 0.49765 0.59695 0.0
H381 H 0.94409 0.46947 0.43377 0.0
H382 H 0.94109 0.50007 0.45861 0.0
H383 H 0.98778 0.49288 0.41669 0.0
H384 H 0.97714 0.57727 0.51634 0.0
H385 H 0.08904 0.56118 0.41477 0.0
H386 H 0.98588 0.5243 0.58218 0.0
H387 H 0.94073 0.51627 0.53909 0.0
H388 H 0.94122 0.54695 0.5638 0.0
H389 H 0.12413 0.50434 0.45747 0.0
H390 H 0.11975 0.52112 0.4029 0.0
H391 H 0.07718 0.4965 0.41604 0.0
C392 C 0.42367 0.12056 0.29527 0.0
C393 C 0.43932 0.14499 0.30173 0.0
C394 C 0.37702 0.11539 0.27538 0.0
C395 C 0.34598 0.13513 0.26107 0.0
C396 C 0.36277 0.15976 0.26624 0.0
C397 C 0.40876 0.16433 0.2869 0.0
C398 C 0.36027 0.08893 0.27111 0.0
C399 C 0.33185 0.18146 0.25055 0.0
C400 C 0.24603 0.13145 0.16853 0.0
C401 C 0.20325 0.135 0.19528 0.0
C402 C 0.29246 0.12921 0.18978 0.0
C403 C 0.29652 0.13061 0.23926 0.0
C404 C 0.25293 0.13198 0.2667 0.0
C405 C 0.20665 0.13417 0.24435 0.0
C406 C 0.33751 0.12778 0.15889 0.0
C407 C 0.25545 0.13321 0.31956 0.0
H408 H 0.4468 0.1056 0.30768 0.0
H409 H 0.42068 0.18325 0.29214 0.0
H410 H 0.32773 0.0859 0.29391 0.0
H411 H 0.34869 0.08488 0.23453 0.0
H412 H 0.38953 0.07566 0.28143 0.0
H413 H 0.35091 0.19941 0.25583 0.0
H414 H 0.32247 0.1796 0.21276 0.0
H415 H 0.29675 0.1818 0.27041 0.0
H416 H 0.24356 0.13189 0.13051 0.0
H417 H 0.17381 0.13706 0.26521 0.0
H418 H 0.36381 0.11382 0.17239 0.0
H419 H 0.3566 0.14591 0.15909 0.0
H420 H 0.32798 0.12308 0.12199 0.0
H421 H 0.28229 0.11958 0.33336 0.0
H422 H 0.21899 0.12974 0.33591 0.0
H423 H 0.2682 0.15184 0.3304 0.0
C424 C 0.39277 0.89421 0.66996 0.0
C425 C 0.43593 0.8933 0.69713 0.0
C426 C 0.34621 0.89645 0.69075 0.0
C427 C 0.34238 0.89794 0.74021 0.0
C428 C 0.38612 0.89944 0.76758 0.0
C429 C 0.43255 0.89705 0.7457 0.0
C430 C 0.30105 0.89465 0.65991 0.0
C431 C 0.3838 0.90147 0.82034 0.0
C432 C 0.2134 0.90684 0.7928 0.0
C433 C 0.20084 0.88242 0.80393 0.0
C434 C 0.25971 0.91243 0.77269 0.0
C435 C 0.29358 0.8931 0.76296 0.0
C436 C 0.28003 0.8684 0.77301 0.0
C437 C 0.23426 0.86346 0.79359 0.0
C438 C 0.27294 0.939 0.76301 0.0
C439 C 0.31402 0.84704 0.76228 0.0
H440 H 0.39515 0.89159 0.63226 0.0
H441 H 0.46568 0.89628 0.76693 0.0
H442 H 0.28422 0.87609 0.66407 0.0
H443 H 0.27308 0.90848 0.67039 0.0
H444 H 0.30997 0.89738 0.62219 0.0
H445 H 0.41974 0.90717 0.83558 0.0
H446 H 0.3552 0.91495 0.83109 0.0
H447 H 0.3736 0.88328 0.8354 0.0
H448 H 0.188 0.92157 0.8015 0.0
H449 H 0.22465 0.84454 0.80208 0.0
H450 H 0.28363 0.94133 0.72569 0.0
H451 H 0.30523 0.94433 0.78468 0.0
H452 H 0.24209 0.95179 0.77092 0.0
H453 H 0.32306 0.84681 0.72429 0.0
H454 H 0.29762 0.82891 0.77173 0.0
H455 H 0.3491 0.84922 0.78186 0.0
C456 C 0.92548 0.88564 0.78356 0.0
C457 C 0.93251 0.90085 0.82301 0.0
C458 C 0.88169 0.88657 0.75697 0.0
C459 C 0.84394 0.90341 0.76943 0.0
C460 C 0.85138 0.91933 0.80834 0.0
C461 C 0.89528 0.91779 0.83469 0.0
C462 C 0.87545 0.86913 0.71601 0.0
C463 C 0.81259 0.93781 0.82259 0.0
C464 C 0.74719 0.91865 0.67585 0.0
C465 C 0.70757 0.90343 0.68891 0.0
C466 C 0.79126 0.9192 0.70211 0.0
C467 C 0.79638 0.90398 0.74235 0.0
C468 C 0.75622 0.88893 0.75623 0.0
C469 C 0.71235 0.88901 0.72971 0.0
C470 C 0.8327 0.9358 0.68632 0.0
C471 C 0.75989 0.87231 0.79866 0.0
H472 H 0.9539 0.87262 0.77377 0.0
H473 H 0.90014 0.92975 0.86486 0.0
H474 H 0.8429 0.85712 0.72186 0.0
H475 H 0.8686 0.87974 0.68333 0.0
H476 H 0.90823 0.8572 0.71067 0.0
H477 H 0.8248 0.94966 0.85226 0.0
H478 H 0.80301 0.94982 0.79236 0.0
H479 H 0.77851 0.92799 0.83315 0.0
H480 H 0.74412 0.92998 0.64461 0.0
H481 H 0.68203 0.8774 0.74068 0.0
H482 H 0.86513 0.92448 0.67657 0.0
H483 H 0.84421 0.94811 0.71552 0.0
H484 H 0.82221 0.94739 0.6557 0.0
H485 H 0.79059 0.85903 0.79395 0.0
H486 H 0.72545 0.86174 0.80491 0.0
H487 H 0.76827 0.88342 0.83042 0.0
C488 C 0.74567 0.10963 0.33385 0.0
C489 C 0.70694 0.12537 0.32056 0.0
C490 C 0.79 0.10877 0.30823 0.0
C491 C 0.79618 0.12406 0.26826 0.0
C492 C 0.75691 0.13964 0.25413 0.0
C493 C 0.71286 0.14001 0.2802 0.0
C494 C 0.83059 0.09173 0.32443 0.0
C495 C 0.7617 0.15626 0.21181 0.0
C496 C 0.92633 0.14069 0.22785 0.0
C497 C 0.9329 0.12505 0.18896 0.0
C498 C 0.88236 0.14043 0.25406 0.0
C499 C 0.84383 0.12399 0.24154 0.0
C500 C 0.85065 0.10776 0.20304 0.0
C501 C 0.89488 0.10852 0.17726 0.0
C502 C 0.87683 0.15808 0.29476 0.0
C503 C 0.81086 0.08982 0.18858 0.0
H504 H 0.74172 0.09818 0.36483 0.0
H505 H 0.68326 0.15209 0.26918 0.0
H506 H 0.84144 0.07916 0.29547 0.0
H507 H 0.8636 0.1027 0.33408 0.0
H508 H 0.81954 0.08042 0.35521 0.0
H509 H 0.7278 0.16721 0.20524 0.0
H510 H 0.79297 0.16919 0.21687 0.0
H511 H 0.7698 0.14508 0.1801 0.0
H512 H 0.95532 0.15347 0.2375 0.0
H513 H 0.89933 0.09628 0.14744 0.0
H514 H 0.86903 0.14766 0.32747 0.0
H515 H 0.8451 0.17054 0.28842 0.0
H516 H 0.91029 0.16952 0.30036 0.0
H517 H 0.80067 0.07788 0.21871 0.0
H518 H 0.82239 0.07785 0.15887 0.0
H519 H 0.77731 0.10009 0.178 0.0
C520 C 0.89497 0.61648 0.33115 0.0
C521 C 0.93102 0.63147 0.31051 0.0
C522 C 0.84832 0.61367 0.31041 0.0
C523 C 0.8368 0.62705 0.26913 0.0
C524 C 0.87422 0.64104 0.24664 0.0
C525 C 0.92123 0.64274 0.26729 0.0
C526 C 0.81039 0.59775 0.33453 0.0
C527 C 0.86349 0.65595 0.20302 0.0
C528 C 0.72054 0.61807 0.19605 0.0
C529 C 0.69068 0.63719 0.21291 0.0
C530 C 0.76702 0.61339 0.21605 0.0
C531 C 0.78467 0.62884 0.25255 0.0
C532 C 0.75342 0.64742 0.27114 0.0
C533 C 0.70662 0.65121 0.2513 0.0
C534 C 0.79827 0.59287 0.19624 0.0
C535 C 0.77072 0.66454 0.30967 0.0
H536 H 0.90249 0.60793 0.36487 0.0
H537 H 0.94885 0.65462 0.25169 0.0
H538 H 0.78335 0.60969 0.35282 0.0
H539 H 0.78987 0.58647 0.3085 0.0
H540 H 0.82741 0.58523 0.36087 0.0
H541 H 0.8972 0.66453 0.18814 0.0
H542 H 0.84624 0.64416 0.17573 0.0
H543 H 0.83691 0.67084 0.2116 0.0
H544 H 0.70858 0.60761 0.1656 0.0
H545 H 0.684 0.66635 0.26362 0.0
H546 H 0.81599 0.58219 0.22492 0.0
H547 H 0.82803 0.60086 0.17435 0.0
H548 H 0.77637 0.58002 0.17405 0.0
H549 H 0.78366 0.65376 0.34039 0.0
H550 H 0.7413 0.67737 0.32146 0.0
H551 H 0.80236 0.67564 0.29692 0.0
C552 C 0.91816 0.40379 0.70389 0.0
C553 C 0.9338 0.37926 0.69926 0.0
C554 C 0.87144 0.40929 0.72297 0.0
C555 C 0.84037 0.38979 0.7383 0.0
C556 C 0.85717 0.36509 0.73503 0.0
C557 C 0.90325 0.36017 0.71513 0.0
C558 C 0.85465 0.43581 0.72527 0.0
C559 C 0.82616 0.34367 0.75196 0.0
C560 C 0.73986 0.3944 0.82936 0.0
C561 C 0.69753 0.39007 0.80229 0.0
C562 C 0.78634 0.39681 0.80851 0.0
C563 C 0.79081 0.39466 0.75918 0.0
C564 C 0.74753 0.39261 0.73131 0.0
C565 C 0.70118 0.39034 0.75325 0.0
C566 C 0.83107 0.39904 0.8398 0.0
C567 C 0.75055 0.39055 0.67857 0.0
H568 H 0.94138 0.41852 0.69067 0.0
H569 H 0.91527 0.34118 0.71131 0.0
H570 H 0.82254 0.43842 0.70165 0.0
H571 H 0.84242 0.44048 0.76134 0.0
H572 H 0.88411 0.4489 0.71468 0.0
H573 H 0.84528 0.32565 0.74811 0.0
H574 H 0.81656 0.34624 0.78951 0.0
H575 H 0.79119 0.34291 0.73182 0.0
H576 H 0.73704 0.39431 0.86737 0.0
H577 H 0.6686 0.38678 0.73225 0.0
H578 H 0.85742 0.41276 0.82555 0.0
H579 H 0.85025 0.38096 0.8413 0.0
H580 H 0.8211 0.40451 0.87617 0.0
H581 H 0.77743 0.40402 0.66429 0.0
H582 H 0.71421 0.39368 0.66163 0.0
H583 H 0.76348 0.37178 0.66897 0.0
C584 C 0.38498 0.40947 0.82906 0.0
C585 C 0.42534 0.39652 0.81094 0.0
C586 C 0.34262 0.41364 0.80175 0.0
C587 C 0.33983 0.40381 0.75569 0.0
C588 C 0.38178 0.39201 0.73627 0.0
C589 C 0.42428 0.38873 0.76403 0.0
C590 C 0.29952 0.42695 0.82353 0.0
C591 C 0.3803 0.38086 0.68772 0.0
C592 C 0.21288 0.38262 0.71494 0.0
C593 C 0.2001 0.40068 0.68175 0.0
C594 C 0.25822 0.38339 0.73878 0.0
C595 C 0.29142 0.40311 0.7304 0.0
C596 C 0.27809 0.42191 0.69821 0.0
C597 C 0.2329 0.42035 0.67394 0.0
C598 C 0.27091 0.36277 0.77241 0.0
C599 C 0.3117 0.4436 0.68921 0.0
H600 H 0.38553 0.41519 0.86558 0.0
H601 H 0.45498 0.37816 0.75036 0.0
H602 H 0.28343 0.44035 0.79836 0.0
H603 H 0.27038 0.4134 0.83254 0.0
H604 H 0.31023 0.43694 0.85607 0.0
H605 H 0.41731 0.37483 0.67575 0.0
H606 H 0.35549 0.36456 0.68782 0.0
H607 H 0.36526 0.39425 0.66198 0.0
H608 H 0.1879 0.36748 0.7217 0.0
H609 H 0.2234 0.43453 0.64866 0.0
H610 H 0.27633 0.37031 0.80827 0.0
H611 H 0.30601 0.35393 0.76173 0.0
H612 H 0.24182 0.34835 0.77386 0.0
H613 H 0.32061 0.45301 0.7228 0.0
H614 H 0.29507 0.45727 0.66479 0.0
H615 H 0.34692 0.43706 0.67402 0.0
C616 C 0.2311 0.60682 0.32772 0.0
C617 C 0.19761 0.62644 0.32271 0.0
C618 C 0.27611 0.60657 0.30318 0.0
C619 C 0.28854 0.62662 0.27353 0.0
C620 C 0.25474 0.64636 0.26808 0.0
C621 C 0.2096 0.64587 0.2922 0.0
C622 C 0.31042 0.58487 0.30909 0.0
C623 C 0.26652 0.66827 0.23723 0.0
C624 C 0.42113 0.64234 0.24107 0.0
C625 C 0.42201 0.63591 0.19343 0.0
C626 C 0.37869 0.63831 0.26842 0.0
C627 C 0.33659 0.62713 0.24778 0.0
C628 C 0.33905 0.61881 0.20065 0.0
C629 C 0.38136 0.62372 0.17384 0.0
C630 C 0.37754 0.64787 0.3182 0.0
C631 C 0.29577 0.60621 0.17749 0.0
H632 H 0.22219 0.59161 0.35095 0.0
H633 H 0.18415 0.66106 0.2878 0.0
H634 H 0.3188 0.57664 0.27431 0.0
H635 H 0.34583 0.59116 0.32445 0.0
H636 H 0.29467 0.57032 0.3321 0.0
H637 H 0.23702 0.68246 0.23785 0.0
H638 H 0.30148 0.67695 0.2489 0.0
H639 H 0.27181 0.66211 0.20043 0.0
H640 H 0.45206 0.65236 0.25589 0.0
H641 H 0.38179 0.61907 0.13679 0.0
H642 H 0.36311 0.63356 0.34241 0.0
H643 H 0.35234 0.66396 0.32018 0.0
H644 H 0.41454 0.65374 0.33061 0.0
H645 H 0.28028 0.59178 0.20087 0.0
H646 H 0.30605 0.59757 0.1435 0.0
H647 H 0.26629 0.61994 0.17079 0.0
C648 C 0.08664 0.29135 0.82512 0.0
C649 C 0.05382 0.30066 0.79131 0.0
C650 C 0.07016 0.27711 0.86307 0.0
C651 C 1.01923 0.27232 0.86831 0.0
C652 C 0.98551 0.28223 0.83531 0.0
C653 C 1.0032 0.29614 0.79702 0.0
C654 C 0.10756 0.26699 0.89741 0.0
C655 C 0.93088 0.27789 0.84012 0.0
C656 C 0.99785 0.21581 0.94422 0.0
C657 C 0.99558 0.22647 0.98902 0.0
C658 C 1.00152 0.23063 0.90382 0.0
C659 C 1.00237 0.2567 0.9084 0.0
C660 C 0.99529 0.26748 0.95322 0.0
C661 C 0.99244 0.25224 0.99304 0.0
C662 C 1.00923 0.21833 0.85684 0.0
C663 C 0.99489 0.29515 0.95968 0.0
H664 H 0.12558 0.29519 0.82217 0.0
H665 H 0.97737 0.30308 0.77124 0.0
H666 H 0.09989 0.27407 0.93322 0.0
H667 H 0.10489 0.24656 0.89882 0.0
H668 H 0.1459 0.27208 0.88791 0.0
H669 H 0.90922 0.28862 0.81403 0.0
H670 H 0.92269 0.25798 0.83522 0.0
H671 H 0.91843 0.28299 0.87593 0.0
H672 H 1.00071 0.19591 0.941 0.0
H673 H 0.99035 0.26051 0.02767 0.0
H674 H 0.04828 0.22049 0.84619 0.0
H675 H 0.98621 0.22719 0.82941 0.0
H676 H 1.00044 0.1983 0.85798 0.0
H677 H 0.033 0.30236 0.95659 0.0
H678 H 0.98027 0.30053 0.99463 0.0
H679 H 0.97241 0.30416 0.932 0.0
C680 C 0.58353 0.78772 0.47451 0.0
C681 C 0.62569 0.80072 0.4892 0.0
C682 C 0.58342 0.77333 0.43371 0.0
C683 C 0.6259 0.77255 0.40514 0.0
C684 C 0.6686 0.78574 0.41904 0.0
C685 C 0.66817 0.7995 0.46115 0.0
C686 C 0.53707 0.75941 0.42068 0.0
C687 C 0.71421 0.78578 0.38889 0.0
C688 C 0.61947 0.71955 0.31822 0.0
C689 C 0.59326 0.73066 0.2815 0.0
C690 C 0.63422 0.7334 0.35763 0.0
C691 C 0.6234 0.75901 0.35957 0.0
C692 C 0.60123 0.77062 0.32029 0.0
C693 C 0.58568 0.75622 0.28209 0.0
C694 C 0.65701 0.72013 0.39887 0.0
C695 C 0.59027 0.79795 0.32012 0.0
H696 H 0.54968 0.78914 0.49433 0.0
H697 H 0.70103 0.80934 0.47191 0.0
H698 H 0.52095 0.76736 0.38821 0.0
H699 H 0.54573 0.73975 0.41342 0.0
H700 H 0.50882 0.76015 0.4488 0.0
H701 H 0.74525 0.79582 0.40574 0.0
H702 H 0.726 0.76658 0.38132 0.0
H703 H 0.70592 0.79468 0.35467 0.0
H704 H 0.62514 0.69974 0.31762 0.0
H705 H 0.56593 0.76476 0.25325 0.0
H706 H 0.62867 0.71753 0.42648 0.0
H707 H 0.68736 0.73113 0.41443 0.0
H708 H 0.67143 0.70168 0.38877 0.0
H709 H 0.55813 0.80169 0.34303 0.0
H710 H 0.58162 0.80481 0.28427 0.0
H711 H 0.62194 0.80857 0.33426 0.0
C712 C 0.96321 0.79684 0.05018 0.0
C713 C 1.0074 0.79807 0.02465 0.0
C714 C 0.95991 0.78285 0.09191 0.0
C715 C 1.00151 0.76951 0.10808 0.0
C716 C 0.04581 0.77041 0.08209 0.0
C717 C 0.04842 0.78493 0.04151 0.0
C718 C 0.91236 0.78274 0.11919 0.0
C719 C 0.09116 0.75643 0.0977 0.0
C720 C 0.03321 0.75278 0.23316 0.0
C721 C 1.02628 0.72716 0.23282 0.0
C722 C 1.0201 0.7673 0.19432 0.0
C723 C 1.00091 0.75577 0.15354 0.0
C724 C 0.99028 0.73011 0.15446 0.0
C725 C 1.00271 0.7161 0.19444 0.0
C726 C 0.03095 0.79464 0.19552 0.0
C727 C 0.97035 0.71697 0.11175 0.0
H728 H 0.9312 0.80679 0.03766 0.0
H729 H 0.08341 0.78632 0.02354 0.0
H730 H 0.89991 0.7635 0.12535 0.0
H731 H 0.91839 0.79131 0.15414 0.0
H732 H 0.88262 0.793 0.1008 0.0
H733 H 0.12138 0.75744 0.07152 0.0
H734 H 0.10486 0.76411 0.1314 0.0
H735 H 0.08205 0.7367 0.10375 0.0
H736 H 0.05109 0.76126 0.26318 0.0
H737 H 0.99762 0.69625 0.19425 0.0
H738 H 1.00033 0.80528 0.17955 0.0
H739 H 0.06462 0.79848 0.17475 0.0
H740 H 0.03708 0.80139 0.23193 0.0
H741 H 0.94101 0.72799 0.09457 0.0
H742 H 0.95539 0.69845 0.1207 0.0
H743 H 1.00046 0.71453 0.08586 0.0
C744 C 0.55097 0.2948 0.67681 0.0
C745 C 0.58233 0.30405 0.71189 0.0
C746 C 0.56887 0.28014 0.64009 0.0
C747 C 0.61979 0.27478 0.63757 0.0
C748 C 0.65212 0.28461 0.67192 0.0
C749 C 0.63299 0.29903 0.70884 0.0
C750 C 0.53295 0.27018 0.60414 0.0
C751 C 0.70672 0.2796 0.67007 0.0
C752 C 0.64152 0.21749 0.56415 0.0
C753 C 0.64661 0.22782 0.51929 0.0
C754 C 0.63702 0.23263 0.60403 0.0
C755 C 0.63809 0.25866 0.59884 0.0
C756 C 0.64822 0.26903 0.55423 0.0
C757 C 0.652 0.25349 0.51491 0.0
C758 C 0.62626 0.22078 0.65088 0.0
C759 C 0.65064 0.29663 0.54718 0.0
H760 H 0.51208 0.29905 0.67786 0.0
H761 H 0.65762 0.30594 0.73573 0.0
H762 H 0.54311 0.27679 0.56857 0.0
H763 H 0.53452 0.2497 0.60357 0.0
H764 H 0.49443 0.27587 0.6114 0.0
H765 H 0.72743 0.29042 0.69676 0.0
H766 H 0.71361 0.25968 0.67626 0.0
H767 H 0.72141 0.2841 0.63475 0.0
H768 H 0.63698 0.19768 0.56765 0.0
H769 H 0.65634 0.2615 0.48026 0.0
H770 H 0.58677 0.2234 0.65951 0.0
H771 H 0.64815 0.22962 0.67918 0.0
H772 H 0.63422 0.20066 0.65065 0.0
H773 H 0.61285 0.30438 0.54809 0.0
H774 H 0.66757 0.30155 0.51294 0.0
H775 H 0.67202 0.30554 0.57578 0.0
C776 C 0.57855 0.80206 0.83628 0.0
C777 C 0.54873 0.8084 0.79792 0.0
C778 C 0.5615 0.78635 0.87166 0.0
C779 C 0.51297 0.7769 0.86914 0.0
C780 C 0.48162 0.78419 0.83183 0.0
C781 C 0.49998 0.79984 0.79645 0.0
C782 C 0.59615 0.77926 0.91103 0.0
C783 C 0.42944 0.77482 0.82835 0.0
C784 C 0.50637 0.71702 0.93656 0.0
C785 C 0.49366 0.7256 0.98135 0.0
C786 C 0.50827 0.73322 0.89815 0.0
C787 C 0.49692 0.75852 0.9048 0.0
C788 C 0.47915 0.76667 0.94885 0.0
C789 C 0.47803 0.75012 0.98675 0.0
C790 C 0.52725 0.72375 0.85172 0.0
C791 C 0.46564 0.79334 0.95715 0.0
H792 H 0.61576 0.80916 0.83833 0.0
H793 H 0.47675 0.80465 0.76688 0.0
H794 H 0.57966 0.78402 0.94548 0.0
H795 H 0.60238 0.75901 0.91066 0.0
H796 H 0.63241 0.78865 0.90825 0.0
H797 H 0.40762 0.78523 0.80192 0.0
H798 H 0.42982 0.75506 0.81803 0.0
H799 H 0.4107 0.77608 0.86286 0.0
H800 H 0.51863 0.6981 0.93225 0.0
H801 H 0.46747 0.75669 0.02127 0.0
H802 H 0.56556 0.73034 0.8465 0.0
H803 H 0.50473 0.73097 0.82225 0.0
H804 H 0.52723 0.70325 0.85016 0.0
H805 H 0.49974 0.80449 0.96067 0.0
H806 H 0.44362 0.79567 0.98971 0.0
H807 H 0.44446 0.80085 0.92703 0.0
C808 C 0.14678 0.30729 0.44188 0.0
C809 C 0.15114 0.29721 0.48701 0.0
C810 C 0.1447 0.29194 0.40214 0.0
C811 C 0.1476 0.26598 0.40781 0.0
C812 C 0.15761 0.256 0.4528 0.0
C813 C 0.15874 0.27174 0.49199 0.0
C814 C 0.13395 0.30338 0.3549 0.0
C815 C 0.1623 0.22851 0.46028 0.0
C816 C 0.06133 0.22915 0.33018 0.0
C817 C 0.09249 0.22075 0.29432 0.0
C818 C 0.07914 0.24359 0.36725 0.0
C819 C 0.12986 0.24947 0.36944 0.0
C820 C 0.16218 0.24016 0.33468 0.0
C821 C 0.14305 0.22602 0.29727 0.0
C822 C 0.04321 0.25296 0.40364 0.0
C823 C 0.21663 0.2456 0.33632 0.0
H824 H 0.14064 0.32697 0.43796 0.0
H825 H 0.16258 0.26395 0.5269 0.0
H826 H 0.15686 0.2948 0.32715 0.0
H827 H 0.09479 0.30006 0.34563 0.0
H828 H 0.1406 0.32363 0.35492 0.0
H829 H 0.17996 0.22416 0.49452 0.0
H830 H 0.12515 0.21999 0.45985 0.0
H831 H 0.18407 0.2199 0.43171 0.0
H832 H 1.02257 0.22456 0.32926 0.0
H833 H 0.16749 0.21964 0.26983 0.0
H834 H 0.04379 0.27346 0.40442 0.0
H835 H 0.05409 0.24637 0.43904 0.0
H836 H 1.00487 0.24682 0.39661 0.0
H837 H 0.22299 0.26528 0.32742 0.0
H838 H 0.23763 0.23399 0.31117 0.0
H839 H 0.2314 0.24252 0.3722 0.0
C840 C 0.48741 0.27886 0.02047 0.0
C841 C 0.50086 0.30381 0.02429 0.0
C842 C 0.49073 0.26292 0.05922 0.0
C843 C 0.50818 0.27214 0.1027 0.0
C844 C 0.51792 0.29771 0.10769 0.0
C845 C 0.51411 0.31325 0.06841 0.0
C846 C 0.47927 0.23586 0.05259 0.0
C847 C 0.53653 0.30831 0.15345 0.0
C848 C 0.50933 0.23279 0.2137 0.0
C849 C 0.55823 0.22442 0.21417 0.0
C850 C 0.49179 0.24786 0.17703 0.0
C851 C 0.52403 0.25473 0.14022 0.0
C852 C 0.5729 0.24568 0.13986 0.0
C853 C 0.58923 0.2306 0.17664 0.0
C854 C 0.43933 0.25697 0.17838 0.0
C855 C 0.60845 0.25235 0.10108 0.0
H856 H 0.47643 0.27156 0.98657 0.0
H857 H 0.52491 0.33245 0.07161 0.0
H858 H 0.51418 0.22526 0.05104 0.0
H859 H 0.45772 0.22863 0.08266 0.0
H860 H 0.4584 0.2324 0.01964 0.0
H861 H 0.53577 0.32883 0.15353 0.0
H862 H 0.51421 0.30147 0.18333 0.0
H863 H 0.57504 0.3022 0.15934 0.0
H864 H 0.48518 0.22817 0.24262 0.0
H865 H 0.62661 0.22369 0.17605 0.0
H866 H 0.42103 0.25384 0.14403 0.0
H867 H 0.43905 0.27715 0.18503 0.0
H868 H 0.41748 0.24772 0.20627 0.0
H869 H 0.59304 0.24686 0.06651 0.0
H870 H 0.64485 0.2433 0.10552 0.0
H871 H 0.61408 0.27264 0.10032 0.0
C872 C 0.1375 0.71525 0.56775 0.0
C873 C 0.14023 0.72535 0.52256 0.0
C874 C 0.13511 0.73062 0.60742 0.0
C875 C 0.13614 0.75661 0.60155 0.0
C876 C 0.14434 0.7667 0.55634 0.0
C877 C 0.14569 0.75093 0.51725 0.0
C878 C 0.12609 0.71908 0.65488 0.0
C879 C 0.14692 0.79425 0.54862 0.0
C880 C 0.05107 0.79314 0.68058 0.0
C881 C 0.08325 0.80239 0.71496 0.0
C882 C 0.06806 0.77832 0.64375 0.0
C883 C 0.11889 0.77292 0.64028 0.0
C884 C 0.15206 0.78281 0.67378 0.0
C885 C 0.13381 0.79728 0.71098 0.0
C886 C 0.03126 0.7682 0.60876 0.0
C887 C 0.20661 0.77785 0.6707 0.0
H888 H 0.13288 0.69547 0.57179 0.0
H889 H 0.148 0.7587 0.48221 0.0
H890 H 0.14889 0.72812 0.68228 0.0
H891 H 0.08691 0.7217 0.66468 0.0
H892 H 0.13416 0.69896 0.65487 0.0
H893 H 0.16309 0.79886 0.51389 0.0
H894 H 0.10925 0.80211 0.55008 0.0
H895 H 0.16907 0.80328 0.57654 0.0
H896 H 1.01225 0.79746 0.68225 0.0
H897 H 0.15911 0.80418 0.7373 0.0
H898 H 0.03307 0.74773 0.60818 0.0
H899 H 0.04028 0.77483 0.57292 0.0
H900 H 0.99287 0.77377 0.617 0.0
H901 H 0.21379 0.75799 0.67736 0.0
H902 H 0.22798 0.78892 0.69653 0.0
H903 H 0.2203 0.78205 0.63488 0.0
loop_
_geom_bond_atom_site_label_1
_geom_bond_atom_site_label_2
_geom_bond_distance
_geom_bond_site_symmetry_2
_ccdc_geom_bond_type
C0 C1 1.351 . S
C0 N3 1.368 . S
C0 H5 0.931 . S
C1 C0 1.351 . S
C1 N2 1.373 . S
C1 H29 0.930 . S
N2 C1 1.373 . S
N2 C4 1.340 . S
N3 C0 1.368 . S
N3 C4 1.321 . S
N3 Co6 2.135 . S
C4 N2 1.340 . S
C4 N3 1.321 . S
C4 H28 0.930 1_455 S
H5 C0 0.931 . S
Co6 N3 2.135 . S
Co6 N9 2.121 . S
Co6 O14 2.055 . S
Co6 O17 2.039 1_455 S
Co6 N20 2.140 . S
C7 O8 1.227 . S
C7 O17 1.265 . S
O8 C7 1.227 . S
N9 Co6 2.121 . S
N9 C11 1.375 1_455 S
N9 C12 1.313 . S
C10 C11 1.338 . S
C10 N13 1.377 1_655 S
C10 H30 0.930 . S
C11 N9 1.375 1_655 S
C11 C10 1.338 . S
C11 H15 0.931 . S
C12 N9 1.313 . S
C12 N13 1.344 . S
C12 H16 0.930 . S
N13 C10 1.377 1_455 S
N13 C12 1.344 . S
O14 Co6 2.055 . S
O14 C18 1.253 . S
H15 C11 0.931 . S
H16 C12 0.930 . S
O17 Co6 2.039 1_655 S
O17 C7 1.265 . S
C18 O14 1.253 . S
C18 O19 1.227 . S
O19 C18 1.227 . S
N20 Co6 2.140 . S
N20 C23 1.346 . S
N20 C24 1.345 . S
C21 C22 1.387 . S
C21 C25 1.391 . S
C22 C21 1.387 . S
C22 C23 1.369 . S
C22 H31 0.929 1_455 S
C23 N20 1.346 . S
C23 C22 1.369 . S
C23 H26 0.928 1_455 S
C24 N20 1.345 . S
C24 C25 1.371 . S
C24 H27 0.931 . S
C25 C21 1.391 . S
C25 C24 1.371 . S
C25 H32 0.930 . S
H26 C23 0.928 1_655 S
H27 C24 0.931 . S
H28 C4 0.930 1_655 S
H29 C1 0.930 . S
H30 C10 0.930 . S
H31 C22 0.929 1_655 S
H32 C25 0.930 . S
C33 C34 1.351 . S
C33 N36 1.368 . S
C33 H38 0.931 . S
C34 C33 1.351 . S
C34 N35 1.373 . S
C34 H62 0.930 . S
N35 C34 1.373 . S
N35 C37 1.340 . S
N36 C33 1.368 . S
N36 C37 1.321 . S
N36 Co39 2.135 . S
C37 N35 1.340 . S
C37 N36 1.321 . S
C37 H61 0.930 . S
H38 C33 0.931 . S
Co39 N36 2.135 . S
Co39 N42 2.121 . S
Co39 O47 2.055 . S
Co39 O50 2.039 . S
Co39 N53 2.140 . S
C40 O41 1.227 . S
C40 O50 1.265 . S
O41 C40 1.227 . S
N42 Co39 2.121 . S
N42 C44 1.375 . S
N42 C45 1.313 . S
C43 C44 1.338 . S
C43 N46 1.377 . S
C43 H63 0.930 . S
C44 N42 1.375 . S
C44 C43 1.338 . S
C44 H48 0.931 . S
C45 N42 1.313 . S
C45 N46 1.344 . S
C45 H49 0.930 . S
N46 C43 1.377 . S
N46 C45 1.344 . S
O47 Co39 2.055 . S
O47 C51 1.253 . S
H48 C44 0.931 . S
H49 C45 0.930 . S
O50 Co39 2.039 . S
O50 C40 1.265 . S
C51 O47 1.253 . S
C51 O52 1.227 . S
O52 C51 1.227 . S
N53 Co39 2.140 . S
N53 C56 1.346 . S
N53 C57 1.345 . S
C54 C55 1.387 . S
C54 C58 1.391 . S
C55 C54 1.387 . S
C55 C56 1.369 . S
C55 H64 0.929 . S
C56 N53 1.346 . S
C56 C55 1.369 . S
C56 H59 0.928 . S
C57 N53 1.345 . S
C57 C58 1.371 . S
C57 H60 0.931 . S
C58 C54 1.391 . S
C58 C57 1.371 . S
C58 H65 0.930 . S
H59 C56 0.928 . S
H60 C57 0.931 . S
H61 C37 0.930 . S
H62 C34 0.930 . S
H63 C43 0.930 . S
H64 C55 0.929 . S
H65 C58 0.930 . S
C66 C67 1.351 . S
C66 N69 1.368 . S
C66 H71 0.931 . S
C67 C66 1.351 . S
C67 N68 1.373 . S
C67 H95 0.930 . S
N68 C67 1.373 . S
N68 C70 1.340 . S
N69 C66 1.368 . S
N69 C70 1.321 . S
N69 Co72 2.135 . S
C70 N68 1.340 . S
C70 N69 1.321 . S
C70 H94 0.930 1_455 S
H71 C66 0.931 . S
Co72 N69 2.135 . S
Co72 N75 2.121 . S
Co72 O80 2.055 . S
Co72 O83 2.039 1_455 S
Co72 N86 2.140 . S
C73 O74 1.227 . S
C73 O83 1.265 . S
O74 C73 1.227 . S
N75 Co72 2.121 . S
N75 C77 1.375 1_455 S
N75 C78 1.313 . S
C76 C77 1.338 . S
C76 N79 1.377 1_655 S
C76 H96 0.930 . S
C77 N75 1.375 1_655 S
C77 C76 1.338 . S
C77 H81 0.931 . S
C78 N75 1.313 . S
C78 N79 1.344 . S
C78 H82 0.930 . S
N79 C76 1.377 1_455 S
N79 C78 1.344 . S
O80 Co72 2.055 . S
O80 C84 1.253 . S
H81 C77 0.931 . S
H82 C78 0.930 . S
O83 Co72 2.039 1_655 S
O83 C73 1.265 . S
C84 O80 1.253 . S
C84 O85 1.227 . S
O85 C84 1.227 . S
N86 Co72 2.140 . S
N86 C89 1.346 . S
N86 C90 1.345 . S
C87 C88 1.387 . S
C87 C91 1.391 . S
C88 C87 1.387 . S
C88 C89 1.369 . S
C88 H97 0.929 1_455 S
C89 N86 1.346 . S
C89 C88 1.369 . S
C89 H92 0.928 1_455 S
C90 N86 1.345 . S
C90 C91 1.371 . S
C90 H93 0.931 . S
C91 C87 1.391 . S
C91 C90 1.371 . S
C91 H98 0.930 . S
H92 C89 0.928 1_655 S
H93 C90 0.931 . S
H94 C70 0.930 1_655 S
H95 C67 0.930 . S
H96 C76 0.930 . S
H97 C88 0.929 1_655 S
H98 C91 0.930 . S
C99 C100 1.351 . S
C99 N102 1.368 . S
C99 H104 0.931 . S
C100 C99 1.351 . S
C100 N101 1.373 . S
C100 H128 0.930 . S
N101 C100 1.373 . S
N101 C103 1.340 . S
N102 C99 1.368 . S
N102 C103 1.321 . S
N102 Co105 2.135 . S
C103 N101 1.340 . S
C103 N102 1.321 . S
C103 H127 0.930 . S
H104 C99 0.931 . S
Co105 N102 2.135 . S
Co105 N108 2.121 . S
Co105 O113 2.055 . S
Co105 O116 2.039 . S
Co105 N119 2.140 . S
C106 O107 1.227 . S
C106 O116 1.265 . S
O107 C106 1.227 . S
N108 Co105 2.121 . S
N108 C110 1.375 . S
N108 C111 1.313 . S
C109 C110 1.338 . S
C109 N112 1.377 . S
C109 H129 0.930 . S
C110 N108 1.375 . S
C110 C109 1.338 . S
C110 H114 0.931 . S
C111 N108 1.313 . S
C111 N112 1.344 . S
C111 H115 0.930 . S
N112 C109 1.377 . S
N112 C111 1.344 . S
O113 Co105 2.055 . S
O113 C117 1.253 . S
H114 C110 0.931 . S
H115 C111 0.930 . S
O116 Co105 2.039 . S
O116 C106 1.265 . S
C117 O113 1.253 . S
C117 O118 1.227 . S
O118 C117 1.227 . S
N119 Co105 2.140 . S
N119 C122 1.346 . S
N119 C123 1.345 . S
C120 C121 1.387 . S
C120 C124 1.391 . S
C121 C120 1.387 . S
C121 C122 1.369 . S
C121 H130 0.929 . S
C122 N119 1.346 . S
C122 C121 1.369 . S
C122 H125 0.928 . S
C123 N119 1.345 . S
C123 C124 1.371 . S
C123 H126 0.931 . S
C124 C120 1.391 . S
C124 C123 1.371 . S
C124 H131 0.930 . S
H125 C122 0.928 . S
H126 C123 0.931 . S
H127 C103 0.930 . S
H128 C100 0.930 . S
H129 C109 0.930 . S
H130 C121 0.929 . S
H131 C124 0.930 . S
C132 C133 1.351 . S
C132 N135 1.368 . S
C132 H137 0.931 . S
C133 C132 1.351 . S
C133 N134 1.373 . S
C133 H161 0.930 . S
N134 C133 1.373 . S
N134 C136 1.340 . S
N135 C132 1.368 . S
N135 C136 1.321 . S
N135 Co138 2.135 . S
C136 N134 1.340 . S
C136 N135 1.321 . S
C136 H160 0.930 . S
H137 C132 0.931 . S
Co138 N135 2.135 . S
Co138 N141 2.121 . S
Co138 O146 2.055 . S
Co138 O149 2.039 . S
Co138 N152 2.140 . S
C139 O140 1.227 . S
C139 O149 1.265 . S
O140 C139 1.227 . S
N141 Co138 2.121 . S
N141 C143 1.375 . S
N141 C144 1.313 . S
C142 C143 1.338 . S
C142 N145 1.377 . S
C142 H162 0.930 . S
C143 N141 1.375 . S
C143 C142 1.338 . S
C143 H147 0.931 . S
C144 N141 1.313 . S
C144 N145 1.344 . S
C144 H148 0.930 . S
N145 C142 1.377 . S
N145 C144 1.344 . S
O146 Co138 2.055 . S
O146 C150 1.253 . S
H147 C143 0.931 . S
H148 C144 0.930 . S
O149 Co138 2.039 . S
O149 C139 1.265 . S
C150 O146 1.253 . S
C150 O151 1.227 . S
O151 C150 1.227 . S
N152 Co138 2.140 . S
N152 C155 1.346 . S
N152 C156 1.345 . S
C153 C154 1.387 . S
C153 C157 1.391 . S
C154 C153 1.387 . S
C154 C155 1.369 . S
C154 H163 0.929 . S
C155 N152 1.346 . S
C155 C154 1.369 . S
C155 H158 0.928 . S
C156 N152 1.345 . S
C156 C157 1.371 . S
C156 H159 0.931 . S
C157 C153 1.391 . S
C157 C156 1.371 . S
C157 H164 0.930 . S
H158 C155 0.928 . S
H159 C156 0.931 . S
H160 C136 0.930 . S
H161 C133 0.930 . S
H162 C142 0.930 . S
H163 C154 0.929 . S
H164 C157 0.930 . S
C165 C166 1.351 . S
C165 N168 1.368 1_655 S
C165 H170 0.931 . S
C166 C165 1.351 . S
C166 N167 1.373 1_655 S
C166 H194 0.930 . S
N167 C166 1.373 1_455 S
N167 C169 1.340 . S
N168 C165 1.368 1_455 S
N168 C169 1.321 . S
N168 Co171 2.135 . S
C169 N167 1.340 . S
C169 N168 1.321 . S
C169 H193 0.930 . S
H170 C165 0.931 . S
Co171 N168 2.135 . S
Co171 N174 2.121 . S
Co171 O179 2.055 1_455 S
Co171 O182 2.039 . S
Co171 N185 2.140 . S
C172 O173 1.227 . S
C172 O182 1.265 . S
O173 C172 1.227 . S
N174 Co171 2.121 . S
N174 C176 1.375 . S
N174 C177 1.313 . S
C175 C176 1.338 . S
C175 N178 1.377 . S
C175 H195 0.930 . S
C176 N174 1.375 . S
C176 C175 1.338 . S
C176 H180 0.931 . S
C177 N174 1.313 . S
C177 N178 1.344 . S
C177 H181 0.930 1_455 S
N178 C175 1.377 . S
N178 C177 1.344 . S
O179 Co171 2.055 1_655 S
O179 C183 1.253 . S
H180 C176 0.931 . S
H181 C177 0.930 1_655 S
O182 Co171 2.039 . S
O182 C172 1.265 . S
C183 O179 1.253 . S
C183 O184 1.227 . S
O184 C183 1.227 . S
N185 Co171 2.140 . S
N185 C188 1.346 . S
N185 C189 1.345 . S
C186 C187 1.387 . S
C186 C190 1.391 . S
C187 C186 1.387 . S
C187 C188 1.369 . S
C187 H196 0.929 . S
C188 N185 1.346 . S
C188 C187 1.369 . S
C188 H191 0.928 . S
C189 N185 1.345 . S
C189 C190 1.371 . S
C189 H192 0.931 . S
C190 C186 1.391 . S
C190 C189 1.371 . S
C190 H197 0.930 . S
H191 C188 0.928 . S
H192 C189 0.931 . S
H193 C169 0.930 . S
H194 C166 0.930 . S
H195 C175 0.930 . S
H196 C187 0.929 . S
H197 C190 0.930 . S
C198 C199 1.351 . S
C198 N201 1.368 . S
C198 H203 0.931 . S
C199 C198 1.351 . S
C199 N200 1.373 . S
C199 H227 0.930 . S
N200 C199 1.373 . S
N200 C202 1.340 . S
N201 C198 1.368 . S
N201 C202 1.321 . S
N201 Co204 2.135 . S
C202 N200 1.340 . S
C202 N201 1.321 . S
C202 H226 0.930 . S
H203 C198 0.931 . S
Co204 N201 2.135 . S
Co204 N207 2.121 . S
Co204 O212 2.055 . S
Co204 O215 2.039 . S
Co204 N218 2.140 . S
C205 O206 1.227 . S
C205 O215 1.265 . S
O206 C205 1.227 . S
N207 Co204 2.121 . S
N207 C209 1.375 . S
N207 C210 1.313 . S
C208 C209 1.338 . S
C208 N211 1.377 . S
C208 H228 0.930 . S
C209 N207 1.375 . S
C209 C208 1.338 . S
C209 H213 0.931 . S
C210 N207 1.313 . S
C210 N211 1.344 . S
C210 H214 0.930 . S
N211 C208 1.377 . S
N211 C210 1.344 . S
O212 Co204 2.055 . S
O212 C216 1.253 . S
H213 C209 0.931 . S
H214 C210 0.930 . S
O215 Co204 2.039 . S
O215 C205 1.265 . S
C216 O212 1.253 . S
C216 O217 1.227 . S
O217 C216 1.227 . S
N218 Co204 2.140 . S
N218 C221 1.346 . S
N218 C222 1.345 . S
C219 C220 1.387 . S
C219 C223 1.391 . S
C220 C219 1.387 . S
C220 C221 1.369 . S
C220 H229 0.929 . S
C221 N218 1.346 . S
C221 C220 1.369 . S
C221 H224 0.928 . S
C222 N218 1.345 . S
C222 C223 1.371 . S
C222 H225 0.931 . S
C223 C219 1.391 . S
C223 C222 1.371 . S
C223 H230 0.930 . S
H224 C221 0.928 . S
H225 C222 0.931 . S
H226 C202 0.930 . S
H227 C199 0.930 . S
H228 C208 0.930 . S
H229 C220 0.929 . S
H230 C223 0.930 . S
C231 C232 1.351 . S
C231 N234 1.368 1_655 S
C231 H236 0.931 . S
C232 C231 1.351 . S
C232 N233 1.373 1_655 S
C232 H260 0.930 . S
N233 C232 1.373 1_455 S
N233 C235 1.340 . S
N234 C231 1.368 1_455 S
N234 C235 1.321 . S
N234 Co237 2.135 . S
C235 N233 1.340 . S
C235 N234 1.321 . S
C235 H259 0.930 . S
H236 C231 0.931 . S
Co237 N234 2.135 . S
Co237 N240 2.121 . S
Co237 O245 2.055 1_455 S
Co237 O248 2.039 . S
Co237 N251 2.140 . S
C238 O239 1.227 . S
C238 O248 1.265 . S
O239 C238 1.227 . S
N240 Co237 2.121 . S
N240 C242 1.375 . S
N240 C243 1.313 . S
C241 C242 1.338 . S
C241 N244 1.377 . S
C241 H261 0.930 . S
C242 N240 1.375 . S
C242 C241 1.338 . S
C242 H246 0.931 . S
C243 N240 1.313 . S
C243 N244 1.344 . S
C243 H247 0.930 1_455 S
N244 C241 1.377 . S
N244 C243 1.344 . S
O245 Co237 2.055 1_655 S
O245 C249 1.253 . S
H246 C242 0.931 . S
H247 C243 0.930 1_655 S
O248 Co237 2.039 . S
O248 C238 1.265 . S
C249 O245 1.253 . S
C249 O250 1.227 . S
O250 C249 1.227 . S
N251 Co237 2.140 . S
N251 C254 1.346 . S
N251 C255 1.345 . S
C252 C253 1.387 . S
C252 C256 1.391 . S
C253 C252 1.387 . S
C253 C254 1.369 . S
C253 H262 0.929 . S
C254 N251 1.346 . S
C254 C253 1.369 . S
C254 H257 0.928 . S
C255 N251 1.345 . S
C255 C256 1.371 . S
C255 H258 0.931 . S
C256 C252 1.391 . S
C256 C255 1.371 . S
C256 H263 0.930 . S
H257 C254 0.928 . S
H258 C255 0.931 . S
H259 C235 0.930 . S
H260 C232 0.930 . S
H261 C241 0.930 . S
H262 C253 0.929 . S
H263 C256 0.930 . S
C264 C265 1.391 . S
C264 C266 1.394 . S
C264 H280 0.931 . S
C265 C264 1.391 . S
C265 C269 1.376 1_455 S
C266 C264 1.394 . S
C266 C267 1.369 . S
C266 C270 1.531 . S
C267 C266 1.369 . S
C267 C268 1.410 1_455 S
C267 C275 1.503 1_566 S
C268 C267 1.410 1_655 S
C268 C269 1.392 . S
C268 C271 1.511 . S
C269 C265 1.376 1_655 S
C269 C268 1.392 . S
C269 H281 0.929 . S
C270 C266 1.531 . S
C270 H282 0.960 1_565 S
C270 H283 0.962 . S
C270 H284 0.960 . S
C271 C268 1.511 . S
C271 H285 0.961 . S
C271 H286 0.961 1_556 S
C271 H287 0.961 . S
C272 C273 1.370 . S
C272 C274 1.363 . S
C272 H288 0.931 . S
C273 C272 1.370 . S
C273 C277 1.408 . S
C274 C272 1.363 . S
C274 C275 1.370 . S
C274 C278 1.524 1_545 S
C275 C267 1.503 1_544 S
C275 C274 1.370 . S
C275 C276 1.403 1_554 S
C276 C275 1.403 1_556 S
C276 C277 1.404 1_556 S
C276 C279 1.535 1_455 S
C277 C273 1.408 . S
C277 C276 1.404 1_554 S
C277 H289 0.930 1_554 S
C278 C274 1.524 1_565 S
C278 H290 0.956 . S
C278 H291 0.961 . S
C278 H292 0.961 . S
C279 C276 1.535 1_655 S
C279 H293 0.937 1_655 S
C279 H294 0.977 . S
C279 H295 0.971 . S
H280 C264 0.931 . S
H281 C269 0.929 . S
H282 C270 0.960 1_545 S
H283 C270 0.962 . S
H284 C270 0.960 . S
H285 C271 0.961 . S
H286 C271 0.961 1_554 S
H287 C271 0.961 . S
H288 C272 0.931 . S
H289 C277 0.930 1_556 S
H290 C278 0.956 . S
H291 C278 0.961 . S
H292 C278 0.961 . S
H293 C279 0.937 1_455 S
H294 C279 0.977 . S
H295 C279 0.971 . S
C296 C297 1.391 . S
C296 C298 1.394 . S
C296 H312 0.931 . S
C297 C296 1.391 . S
C297 C301 1.376 . S
C298 C296 1.394 . S
C298 C299 1.369 . S
C298 C302 1.531 . S
C299 C298 1.369 . S
C299 C300 1.410 . S
C299 C307 1.503 1_545 S
C300 C299 1.410 . S
C300 C301 1.392 . S
C300 C303 1.511 . S
C301 C297 1.376 . S
C301 C300 1.392 . S
C301 H313 0.929 . S
C302 C298 1.531 . S
C302 H314 0.960 . S
C302 H315 0.962 . S
C302 H316 0.960 . S
C303 C300 1.511 . S
C303 H317 0.961 . S
C303 H318 0.961 1_545 S
C303 H319 0.961 . S
C304 C305 1.370 . S
C304 C306 1.363 . S
C304 H320 0.931 . S
C305 C304 1.370 . S
C305 C309 1.408 . S
C306 C304 1.363 . S
C306 C307 1.370 . S
C306 C310 1.524 . S
C307 C299 1.503 1_565 S
C307 C306 1.370 . S
C307 C308 1.403 . S
C308 C307 1.403 . S
C308 C309 1.404 . S
C308 C311 1.539 1_565 S
C309 C305 1.408 . S
C309 C308 1.404 . S
C309 H321 0.930 . S
C310 C306 1.524 . S
C310 H322 0.956 . S
C310 H323 0.961 . S
C310 H324 0.961 . S
C311 C308 1.539 1_545 S
C311 H325 0.958 . S
C311 H326 0.961 . S
C311 H327 0.960 . S
H312 C296 0.931 . S
H313 C301 0.929 . S
H314 C302 0.960 . S
H315 C302 0.962 . S
H316 C302 0.960 . S
H317 C303 0.961 . S
H318 C303 0.961 1_565 S
H319 C303 0.961 . S
H320 C304 0.931 . S
H321 C309 0.930 . S
H322 C310 0.956 . S
H323 C310 0.961 . S
H324 C310 0.961 . S
H325 C311 0.958 . S
H326 C311 0.961 . S
H327 C311 0.960 . S
C328 C329 1.391 . S
C328 C330 1.394 . S
C328 H344 0.931 . S
C329 C328 1.391 . S
C329 C333 1.376 . S
C330 C328 1.394 . S
C330 C331 1.369 . S
C330 C334 1.531 1_554 S
C331 C330 1.369 . S
C331 C332 1.410 . S
C331 C339 1.503 1_554 S
C332 C331 1.410 . S
C332 C333 1.392 . S
C332 C335 1.511 . S
C333 C329 1.376 . S
C333 C332 1.392 . S
C333 H345 0.929 . S
C334 C330 1.531 1_556 S
C334 H346 0.960 . S
C334 H347 0.962 . S
C334 H348 0.960 . S
C335 C332 1.511 . S
C335 H349 0.961 . S
C335 H350 0.961 . S
C335 H351 0.961 . S
C336 C337 1.370 . S
C336 C338 1.363 1_556 S
C336 H352 0.931 1_556 S
C337 C336 1.370 . S
C337 C341 1.408 . S
C338 C336 1.363 1_554 S
C338 C339 1.370 1_554 S
C338 C342 1.524 . S
C339 C331 1.503 1_556 S
C339 C338 1.370 1_556 S
C339 C340 1.403 . S
C340 C339 1.403 . S
C340 C341 1.404 . S
C340 C343 1.539 . S
C341 C337 1.408 . S
C341 C340 1.404 . S
C341 H353 0.930 . S
C342 C338 1.524 . S
C342 H354 0.956 . S
C342 H355 0.961 . S
C342 H356 0.961 . S
C343 C340 1.539 . S
C343 H357 0.958 . S
C343 H358 0.961 . S
C343 H359 0.960 . S
H344 C328 0.931 . S
H345 C333 0.929 . S
H346 C334 0.960 . S
H347 C334 0.962 . S
H348 C334 0.960 . S
H349 C335 0.961 . S
H350 C335 0.961 . S
H351 C335 0.961 . S
H352 C336 0.931 1_554 S
H353 C341 0.930 . S
H354 C342 0.956 . S
H355 C342 0.961 . S
H356 C342 0.961 . S
H357 C343 0.958 . S
H358 C343 0.961 . S
H359 C343 0.960 . S
C360 C361 1.391 . S
C360 C362 1.394 . S
C360 H376 0.931 . S
C361 C360 1.391 . S
C361 C365 1.376 . S
C362 C360 1.394 . S
C362 C363 1.369 . S
C362 C366 1.531 . S
C363 C362 1.369 . S
C363 C364 1.410 . S
C363 C371 1.503 . S
C364 C363 1.410 . S
C364 C365 1.392 . S
C364 C367 1.511 . S
C365 C361 1.376 . S
C365 C364 1.392 . S
C365 H377 0.929 . S
C366 C362 1.531 . S
C366 H378 0.960 . S
C366 H379 0.962 . S
C366 H380 0.960 . S
C367 C364 1.511 . S
C367 H381 0.961 . S
C367 H382 0.961 . S
C367 H383 0.961 . S
C368 C369 1.370 . S
C368 C370 1.363 . S
C368 H384 0.931 1_455 S
C369 C368 1.370 . S
C369 C373 1.408 . S
C370 C368 1.363 . S
C370 C371 1.370 . S
C370 C374 1.524 1_455 S
C371 C363 1.503 . S
C371 C370 1.370 . S
C371 C372 1.403 . S
C372 C371 1.403 . S
C372 C373 1.404 . S
C372 C375 1.539 . S
C373 C369 1.408 . S
C373 C372 1.404 . S
C373 H385 0.930 . S
C374 C370 1.524 1_655 S
C374 H386 0.956 . S
C374 H387 0.961 . S
C374 H388 0.961 . S
C375 C372 1.539 . S
C375 H389 0.958 . S
C375 H390 0.961 . S
C375 H391 0.960 . S
H376 C360 0.931 . S
H377 C365 0.929 . S
H378 C366 0.960 . S
H379 C366 0.962 . S
H380 C366 0.960 . S
H381 C367 0.961 . S
H382 C367 0.961 . S
H383 C367 0.961 . S
H384 C368 0.931 1_655 S
H385 C373 0.930 . S
H386 C374 0.956 . S
H387 C374 0.961 . S
H388 C374 0.961 . S
H389 C375 0.958 . S
H390 C375 0.961 . S
H391 C375 0.960 . S
C392 C393 1.391 . S
C392 C394 1.394 . S
C392 H408 0.931 . S
C393 C392 1.391 . S
C393 C397 1.376 . S
C394 C392 1.394 . S
C394 C395 1.369 . S
C394 C398 1.531 . S
C395 C394 1.369 . S
C395 C396 1.410 . S
C395 C403 1.503 . S
C396 C395 1.410 . S
C396 C397 1.392 . S
C396 C399 1.511 . S
C397 C393 1.376 . S
C397 C396 1.392 . S
C397 H409 0.929 . S
C398 C394 1.531 . S
C398 H410 0.960 . S
C398 H411 0.962 . S
C398 H412 0.960 . S
C399 C396 1.511 . S
C399 H413 0.961 . S
C399 H414 0.961 . S
C399 H415 0.961 . S
C400 C401 1.370 . S
C400 C402 1.363 . S
C400 H416 0.931 . S
C401 C400 1.370 . S
C401 C405 1.408 . S
C402 C400 1.363 . S
C402 C403 1.370 . S
C402 C406 1.524 . S
C403 C395 1.503 . S
C403 C402 1.370 . S
C403 C404 1.403 . S
C404 C403 1.403 . S
C404 C405 1.404 . S
C404 C407 1.539 . S
C405 C401 1.408 . S
C405 C404 1.404 . S
C405 H417 0.930 . S
C406 C402 1.524 . S
C406 H418 0.956 . S
C406 H419 0.961 . S
C406 H420 0.961 . S
C407 C404 1.539 . S
C407 H421 0.958 . S
C407 H422 0.961 . S
C407 H423 0.960 . S
H408 C392 0.931 . S
H409 C397 0.929 . S
H410 C398 0.960 . S
H411 C398 0.962 . S
H412 C398 0.960 . S
H413 C399 0.961 . S
H414 C399 0.961 . S
H415 C399 0.961 . S
H416 C400 0.931 . S
H417 C405 0.930 . S
H418 C406 0.956 . S
H419 C406 0.961 . S
H420 C406 0.961 . S
H421 C407 0.958 . S
H422 C407 0.961 . S
H423 C407 0.960 . S
C424 C425 1.391 . S
C424 C426 1.394 . S
C424 H440 0.931 . S
C425 C424 1.391 . S
C425 C429 1.376 . S
C426 C424 1.394 . S
C426 C427 1.369 . S
C426 C430 1.531 . S
C427 C426 1.369 . S
C427 C428 1.410 . S
C427 C435 1.503 . S
C428 C427 1.410 . S
C428 C429 1.392 . S
C428 C431 1.511 . S
C429 C425 1.376 . S
C429 C428 1.392 . S
C429 H441 0.929 . S
C430 C426 1.531 . S
C430 H442 0.960 . S
C430 H443 0.962 . S
C430 H444 0.960 . S
C431 C428 1.511 . S
C431 H445 0.961 . S
C431 H446 0.961 . S
C431 H447 0.961 . S
C432 C433 1.370 . S
C432 C434 1.363 . S
C432 H448 0.931 . S
C433 C432 1.370 . S
C433 C437 1.408 . S
C434 C432 1.363 . S
C434 C435 1.370 . S
C434 C438 1.524 . S
C435 C427 1.503 . S
C435 C434 1.370 . S
C435 C436 1.403 . S
C436 C435 1.403 . S
C436 C437 1.404 . S
C436 C439 1.539 . S
C437 C433 1.408 . S
C437 C436 1.404 . S
C437 H449 0.930 . S
C438 C434 1.524 . S
C438 H450 0.956 . S
C438 H451 0.961 . S
C438 H452 0.961 . S
C439 C436 1.539 . S
C439 H453 0.958 . S
C439 H454 0.961 . S
C439 H455 0.960 . S
H440 C424 0.931 . S
H441 C429 0.929 . S
H442 C430 0.960 . S
H443 C430 0.962 . S
H444 C430 0.960 . S
H445 C431 0.961 . S
H446 C431 0.961 . S
H447 C431 0.961 . S
H448 C432 0.931 . S
H449 C437 0.930 . S
H450 C438 0.956 . S
H451 C438 0.961 . S
H452 C438 0.961 . S
H453 C439 0.958 . S
H454 C439 0.961 . S
H455 C439 0.960 . S
C456 C457 1.391 . S
C456 C458 1.394 . S
C456 H472 0.931 . S
C457 C456 1.391 . S
C457 C461 1.376 . S
C458 C456 1.394 . S
C458 C459 1.369 . S
C458 C462 1.531 . S
C459 C458 1.369 . S
C459 C460 1.410 . S
C459 C467 1.503 . S
C460 C459 1.410 . S
C460 C461 1.392 . S
C460 C463 1.511 . S
C461 C457 1.376 . S
C461 C460 1.392 . S
C461 H473 0.929 . S
C462 C458 1.531 . S
C462 H474 0.960 . S
C462 H475 0.962 . S
C462 H476 0.960 . S
C463 C460 1.511 . S
C463 H477 0.961 . S
C463 H478 0.961 . S
C463 H479 0.961 . S
C464 C465 1.370 . S
C464 C466 1.363 . S
C464 H480 0.931 . S
C465 C464 1.370 . S
C465 C469 1.408 . S
C466 C464 1.363 . S
C466 C467 1.370 . S
C466 C470 1.524 . S
C467 C459 1.503 . S
C467 C466 1.370 . S
C467 C468 1.403 . S
C468 C467 1.403 . S
C468 C469 1.404 . S
C468 C471 1.539 . S
C469 C465 1.408 . S
C469 C468 1.404 . S
C469 H481 0.930 . S
C470 C466 1.524 . S
C470 H482 0.956 . S
C470 H483 0.961 . S
C470 H484 0.961 . S
C471 C468 1.539 . S
C471 H485 0.958 . S
C471 H486 0.961 . S
C471 H487 0.960 . S
H472 C456 0.931 . S
H473 C461 0.929 . S
H474 C462 0.960 . S
H475 C462 0.962 . S
H476 C462 0.960 . S
H477 C463 0.961 . S
H478 C463 0.961 . S
H479 C463 0.961 . S
H480 C464 0.931 . S
H481 C469 0.930 . S
H482 C470 0.956 . S
H483 C470 0.961 . S
H484 C470 0.961 . S
H485 C471 0.958 . S
H486 C471 0.961 . S
H487 C471 0.960 . S
C488 C489 1.391 . S
C488 C490 1.394 . S
C488 H504 0.931 . S
C489 C488 1.391 . S
C489 C493 1.376 . S
C490 C488 1.394 . S
C490 C491 1.369 . S
C490 C494 1.531 . S
C491 C490 1.369 . S
C491 C492 1.410 . S
C491 C499 1.503 . S
C492 C491 1.410 . S
C492 C493 1.392 . S
C492 C495 1.511 . S
C493 C489 1.376 . S
C493 C492 1.392 . S
C493 H505 0.929 . S
C494 C490 1.531 . S
C494 H506 0.960 . S
C494 H507 0.962 . S
C494 H508 0.960 . S
C495 C492 1.511 . S
C495 H509 0.961 . S
C495 H510 0.961 . S
C495 H511 0.961 . S
C496 C497 1.370 . S
C496 C498 1.363 . S
C496 H512 0.931 . S
C497 C496 1.370 . S
C497 C501 1.408 . S
C498 C496 1.363 . S
C498 C499 1.370 . S
C498 C502 1.524 . S
C499 C491 1.503 . S
C499 C498 1.370 . S
C499 C500 1.403 . S
C500 C499 1.403 . S
C500 C501 1.404 . S
C500 C503 1.539 . S
C501 C497 1.408 . S
C501 C500 1.404 . S
C501 H513 0.930 . S
C502 C498 1.524 . S
C502 H514 0.956 . S
C502 H515 0.961 . S
C502 H516 0.961 . S
C503 C500 1.539 . S
C503 H517 0.958 . S
C503 H518 0.961 . S
C503 H519 0.960 . S
H504 C488 0.931 . S
H505 C493 0.929 . S
H506 C494 0.960 . S
H507 C494 0.962 . S
H508 C494 0.960 . S
H509 C495 0.961 . S
H510 C495 0.961 . S
H511 C495 0.961 . S
H512 C496 0.931 . S
H513 C501 0.930 . S
H514 C502 0.956 . S
H515 C502 0.961 . S
H516 C502 0.961 . S
H517 C503 0.958 . S
H518 C503 0.961 . S
H519 C503 0.960 . S
C520 C521 1.391 . S
C520 C522 1.394 . S
C520 H536 0.931 . S
C521 C520 1.391 . S
C521 C525 1.376 . S
C522 C520 1.394 . S
C522 C523 1.369 . S
C522 C526 1.531 . S
C523 C522 1.369 . S
C523 C524 1.410 . S
C523 C531 1.503 . S
C524 C523 1.410 . S
C524 C525 1.392 . S
C524 C527 1.511 . S
C525 C521 1.376 . S
C525 C524 1.392 . S
C525 H537 0.929 . S
C526 C522 1.531 . S
C526 H538 0.960 . S
C526 H539 0.962 . S
C526 H540 0.960 . S
C527 C524 1.511 . S
C527 H541 0.961 . S
C527 H542 0.961 . S
C527 H543 0.961 . S
C528 C529 1.370 . S
C528 C530 1.363 . S
C528 H544 0.931 . S
C529 C528 1.370 . S
C529 C533 1.408 . S
C530 C528 1.363 . S
C530 C531 1.370 . S
C530 C534 1.524 . S
C531 C523 1.503 . S
C531 C530 1.370 . S
C531 C532 1.403 . S
C532 C531 1.403 . S
C532 C533 1.404 . S
C532 C535 1.539 . S
C533 C529 1.408 . S
C533 C532 1.404 . S
C533 H545 0.930 . S
C534 C530 1.524 . S
C534 H546 0.956 . S
C534 H547 0.961 . S
C534 H548 0.961 . S
C535 C532 1.539 . S
C535 H549 0.958 . S
C535 H550 0.961 . S
C535 H551 0.960 . S
H536 C520 0.931 . S
H537 C525 0.929 . S
H538 C526 0.960 . S
H539 C526 0.962 . S
H540 C526 0.960 . S
H541 C527 0.961 . S
H542 C527 0.961 . S
H543 C527 0.961 . S
H544 C528 0.931 . S
H545 C533 0.930 . S
H546 C534 0.956 . S
H547 C534 0.961 . S
H548 C534 0.961 . S
H549 C535 0.958 . S
H550 C535 0.961 . S
H551 C535 0.960 . S
C552 C553 1.391 . S
C552 C554 1.394 . S
C552 H568 0.931 . S
C553 C552 1.391 . S
C553 C557 1.376 . S
C554 C552 1.394 . S
C554 C555 1.369 . S
C554 C558 1.531 . S
C555 C554 1.369 . S
C555 C556 1.410 . S
C555 C563 1.503 . S
C556 C555 1.410 . S
C556 C557 1.392 . S
C556 C559 1.511 . S
C557 C553 1.376 . S
C557 C556 1.392 . S
C557 H569 0.929 . S
C558 C554 1.531 . S
C558 H570 0.960 . S
C558 H571 0.962 . S
C558 H572 0.960 . S
C559 C556 1.511 . S
C559 H573 0.961 . S
C559 H574 0.961 . S
C559 H575 0.961 . S
C560 C561 1.370 . S
C560 C562 1.363 . S
C560 H576 0.931 . S
C561 C560 1.370 . S
C561 C565 1.408 . S
C562 C560 1.363 . S
C562 C563 1.370 . S
C562 C566 1.524 . S
C563 C555 1.503 . S
C563 C562 1.370 . S
C563 C564 1.403 . S
C564 C563 1.403 . S
C564 C565 1.404 . S
C564 C567 1.539 . S
C565 C561 1.408 . S
C565 C564 1.404 . S
C565 H577 0.930 . S
C566 C562 1.524 . S
C566 H578 0.956 . S
C566 H579 0.961 . S
C566 H580 0.961 . S
C567 C564 1.539 . S
C567 H581 0.958 . S
C567 H582 0.961 . S
C567 H583 0.960 . S
H568 C552 0.931 . S
H569 C557 0.929 . S
H570 C558 0.960 . S
H571 C558 0.962 . S
H572 C558 0.960 . S
H573 C559 0.961 . S
H574 C559 0.961 . S
H575 C559 0.961 . S
H576 C560 0.931 . S
H577 C565 0.930 . S
H578 C566 0.956 . S
H579 C566 0.961 . S
H580 C566 0.961 . S
H581 C567 0.958 . S
H582 C567 0.961 . S
H583 C567 0.960 . S
C584 C585 1.391 . S
C584 C586 1.394 . S
C584 H600 0.931 . S
C585 C584 1.391 . S
C585 C589 1.376 . S
C586 C584 1.394 . S
C586 C587 1.369 . S
C586 C590 1.531 . S
C587 C586 1.369 . S
C587 C588 1.410 . S
C587 C595 1.503 . S
C588 C587 1.410 . S
C588 C589 1.392 . S
C588 C591 1.511 . S
C589 C585 1.376 . S
C589 C588 1.392 . S
C589 H601 0.929 . S
C590 C586 1.531 . S
C590 H602 0.960 . S
C590 H603 0.962 . S
C590 H604 0.960 . S
C591 C588 1.511 . S
C591 H605 0.961 . S
C591 H606 0.961 . S
C591 H607 0.961 . S
C592 C593 1.370 . S
C592 C594 1.363 . S
C592 H608 0.931 . S
C593 C592 1.370 . S
C593 C597 1.408 . S
C594 C592 1.363 . S
C594 C595 1.370 . S
C594 C598 1.524 . S
C595 C587 1.503 . S
C595 C594 1.370 . S
C595 C596 1.403 . S
C596 C595 1.403 . S
C596 C597 1.404 . S
C596 C599 1.539 . S
C597 C593 1.408 . S
C597 C596 1.404 . S
C597 H609 0.930 . S
C598 C594 1.524 . S
C598 H610 0.956 . S
C598 H611 0.961 . S
C598 H612 0.961 . S
C599 C596 1.539 . S
C599 H613 0.958 . S
C599 H614 0.961 . S
C599 H615 0.960 . S
H600 C584 0.931 . S
H601 C589 0.929 . S
H602 C590 0.960 . S
H603 C590 0.962 . S
H604 C590 0.960 . S
H605 C591 0.961 . S
H606 C591 0.961 . S
H607 C591 0.961 . S
H608 C592 0.931 . S
H609 C597 0.930 . S
H610 C598 0.956 . S
H611 C598 0.961 . S
H612 C598 0.961 . S
H613 C599 0.958 . S
H614 C599 0.961 . S
H615 C599 0.960 . S
C616 C617 1.391 . S
C616 C618 1.394 . S
C616 H632 0.931 . S
C617 C616 1.391 . S
C617 C621 1.376 . S
C618 C616 1.394 . S
C618 C619 1.369 . S
C618 C622 1.531 . S
C619 C618 1.369 . S
C619 C620 1.410 . S
C619 C627 1.503 . S
C620 C619 1.410 . S
C620 C621 1.392 . S
C620 C623 1.511 . S
C621 C617 1.376 . S
C621 C620 1.392 . S
C621 H633 0.929 . S
C622 C618 1.531 . S
C622 H634 0.960 . S
C622 H635 0.962 . S
C622 H636 0.960 . S
C623 C620 1.511 . S
C623 H637 0.961 . S
C623 H638 0.961 . S
C623 H639 0.961 . S
C624 C625 1.370 . S
C624 C626 1.363 . S
C624 H640 0.931 . S
C625 C624 1.370 . S
C625 C629 1.408 . S
C626 C624 1.363 . S
C626 C627 1.370 . S
C626 C630 1.524 . S
C627 C619 1.503 . S
C627 C626 1.370 . S
C627 C628 1.403 . S
C628 C627 1.403 . S
C628 C629 1.404 . S
C628 C631 1.539 . S
C629 C625 1.408 . S
C629 C628 1.404 . S
C629 H641 0.930 . S
C630 C626 1.524 . S
C630 H642 0.956 . S
C630 H643 0.961 . S
C630 H644 0.961 . S
C631 C628 1.539 . S
C631 H645 0.958 . S
C631 H646 0.961 . S
C631 H647 0.960 . S
H632 C616 0.931 . S
H633 C621 0.929 . S
H634 C622 0.960 . S
H635 C622 0.962 . S
H636 C622 0.960 . S
H637 C623 0.961 . S
H638 C623 0.961 . S
H639 C623 0.961 . S
H640 C624 0.931 . S
H641 C629 0.930 . S
H642 C630 0.956 . S
H643 C630 0.961 . S
H644 C630 0.961 . S
H645 C631 0.958 . S
H646 C631 0.961 . S
H647 C631 0.960 . S
C648 C649 1.391 . S
C648 C650 1.394 . S
C648 H664 0.931 . S
C649 C648 1.391 . S
C649 C653 1.376 1_455 S
C650 C648 1.394 . S
C650 C651 1.369 . S
C650 C654 1.531 . S
C651 C650 1.369 . S
C651 C652 1.410 1_455 S
C651 C659 1.503 . S
C652 C651 1.410 1_655 S
C652 C653 1.392 . S
C652 C655 1.511 . S
C653 C649 1.376 1_655 S
C653 C652 1.392 . S
C653 H665 0.929 . S
C654 C650 1.531 . S
C654 H666 0.960 . S
C654 H667 0.962 . S
C654 H668 0.960 . S
C655 C652 1.511 . S
C655 H669 0.961 . S
C655 H670 0.961 . S
C655 H671 0.961 . S
C656 C657 1.370 . S
C656 C658 1.363 . S
C656 H672 0.931 . S
C657 C656 1.370 . S
C657 C661 1.408 1_455 S
C658 C656 1.363 . S
C658 C659 1.370 . S
C658 C662 1.524 . S
C659 C651 1.503 . S
C659 C658 1.370 . S
C659 C660 1.403 1_455 S
C660 C659 1.403 1_655 S
C660 C661 1.404 . S
C660 C663 1.539 . S
C661 C657 1.408 1_655 S
C661 C660 1.404 . S
C661 H673 0.930 1_556 S
C662 C658 1.524 . S
C662 H674 0.956 . S
C662 H675 0.961 . S
C662 H676 0.961 . S
C663 C660 1.539 . S
C663 H677 0.958 . S
C663 H678 0.961 . S
C663 H679 0.960 . S
H664 C648 0.931 . S
H665 C653 0.929 . S
H666 C654 0.960 . S
H667 C654 0.962 . S
H668 C654 0.960 . S
H669 C655 0.961 . S
H670 C655 0.961 . S
H671 C655 0.961 . S
H672 C656 0.931 . S
H673 C661 0.930 1_554 S
H674 C662 0.956 . S
H675 C662 0.961 . S
H676 C662 0.961 . S
H677 C663 0.958 . S
H678 C663 0.961 . S
H679 C663 0.960 . S
C680 C681 1.391 . S
C680 C682 1.394 . S
C680 H696 0.931 . S
C681 C680 1.391 . S
C681 C685 1.376 . S
C682 C680 1.394 . S
C682 C683 1.369 . S
C682 C686 1.531 . S
C683 C682 1.369 . S
C683 C684 1.410 . S
C683 C691 1.503 . S
C684 C683 1.410 . S
C684 C685 1.392 . S
C684 C687 1.511 . S
C685 C681 1.376 . S
C685 C684 1.392 . S
C685 H697 0.929 . S
C686 C682 1.531 . S
C686 H698 0.960 . S
C686 H699 0.962 . S
C686 H700 0.960 . S
C687 C684 1.511 . S
C687 H701 0.961 . S
C687 H702 0.961 . S
C687 H703 0.961 . S
C688 C689 1.370 . S
C688 C690 1.363 . S
C688 H704 0.931 . S
C689 C688 1.370 . S
C689 C693 1.408 . S
C690 C688 1.363 . S
C690 C691 1.370 . S
C690 C694 1.524 . S
C691 C683 1.503 . S
C691 C690 1.370 . S
C691 C692 1.403 . S
C692 C691 1.403 . S
C692 C693 1.404 . S
C692 C695 1.539 . S
C693 C689 1.408 . S
C693 C692 1.404 . S
C693 H705 0.930 . S
C694 C690 1.524 . S
C694 H706 0.956 . S
C694 H707 0.961 . S
C694 H708 0.961 . S
C695 C692 1.539 . S
C695 H709 0.958 . S
C695 H710 0.961 . S
C695 H711 0.960 . S
H696 C680 0.931 . S
H697 C685 0.929 . S
H698 C686 0.960 . S
H699 C686 0.962 . S
H700 C686 0.960 . S
H701 C687 0.961 . S
H702 C687 0.961 . S
H703 C687 0.961 . S
H704 C688 0.931 . S
H705 C693 0.930 . S
H706 C694 0.956 . S
H707 C694 0.961 . S
H708 C694 0.961 . S
H709 C695 0.958 . S
H710 C695 0.961 . S
H711 C695 0.960 . S
C712 C713 1.391 1_655 S
C712 C714 1.394 . S
C712 H728 0.931 . S
C713 C712 1.391 1_455 S
C713 C717 1.376 . S
C714 C712 1.394 . S
C714 C715 1.369 1_655 S
C714 C718 1.531 . S
C715 C714 1.369 1_455 S
C715 C716 1.410 . S
C715 C723 1.503 . S
C716 C715 1.410 . S
C716 C717 1.392 . S
C716 C719 1.511 . S
C717 C713 1.376 . S
C717 C716 1.392 . S
C717 H729 0.929 . S
C718 C714 1.531 . S
C718 H730 0.960 . S
C718 H731 0.962 . S
C718 H732 0.960 . S
C719 C716 1.511 . S
C719 H733 0.961 . S
C719 H734 0.961 . S
C719 H735 0.961 . S
C720 C721 1.370 . S
C720 C722 1.363 . S
C720 H736 0.931 . S
C721 C720 1.370 . S
C721 C725 1.408 . S
C722 C720 1.363 . S
C722 C723 1.370 . S
C722 C726 1.524 . S
C723 C715 1.503 . S
C723 C722 1.370 . S
C723 C724 1.403 . S
C724 C723 1.403 . S
C724 C725 1.404 . S
C724 C727 1.539 . S
C725 C721 1.408 . S
C725 C724 1.404 . S
C725 H737 0.930 . S
C726 C722 1.524 . S
C726 H738 0.956 1_455 S
C726 H739 0.961 . S
C726 H740 0.961 . S
C727 C724 1.539 . S
C727 H741 0.958 . S
C727 H742 0.961 . S
C727 H743 0.960 . S
H728 C712 0.931 . S
H729 C717 0.929 . S
H730 C718 0.960 . S
H731 C718 0.962 . S
H732 C718 0.960 . S
H733 C719 0.961 . S
H734 C719 0.961 . S
H735 C719 0.961 . S
H736 C720 0.931 . S
H737 C725 0.930 . S
H738 C726 0.956 1_655 S
H739 C726 0.961 . S
H740 C726 0.961 . S
H741 C727 0.958 . S
H742 C727 0.961 . S
H743 C727 0.960 . S
C744 C745 1.391 . S
C744 C746 1.394 . S
C744 H760 0.931 . S
C745 C744 1.391 . S
C745 C749 1.376 . S
C746 C744 1.394 . S
C746 C747 1.369 . S
C746 C750 1.531 . S
C747 C746 1.369 . S
C747 C748 1.410 . S
C747 C755 1.503 . S
C748 C747 1.410 . S
C748 C749 1.392 . S
C748 C751 1.511 . S
C749 C745 1.376 . S
C749 C748 1.392 . S
C749 H761 0.929 . S
C750 C746 1.531 . S
C750 H762 0.960 . S
C750 H763 0.962 . S
C750 H764 0.960 . S
C751 C748 1.511 . S
C751 H765 0.961 . S
C751 H766 0.961 . S
C751 H767 0.961 . S
C752 C753 1.370 . S
C752 C754 1.363 . S
C752 H768 0.931 . S
C753 C752 1.370 . S
C753 C757 1.408 . S
C754 C752 1.363 . S
C754 C755 1.370 . S
C754 C758 1.524 . S
C755 C747 1.503 . S
C755 C754 1.370 . S
C755 C756 1.403 . S
C756 C755 1.403 . S
C756 C757 1.404 . S
C756 C759 1.539 . S
C757 C753 1.408 . S
C757 C756 1.404 . S
C757 H769 0.930 . S
C758 C754 1.524 . S
C758 H770 0.956 . S
C758 H771 0.961 . S
C758 H772 0.961 . S
C759 C756 1.539 . S
C759 H773 0.958 . S
C759 H774 0.961 . S
C759 H775 0.960 . S
H760 C744 0.931 . S
H761 C749 0.929 . S
H762 C750 0.960 . S
H763 C750 0.962 . S
H764 C750 0.960 . S
H765 C751 0.961 . S
H766 C751 0.961 . S
H767 C751 0.961 . S
H768 C752 0.931 . S
H769 C757 0.930 . S
H770 C758 0.956 . S
H771 C758 0.961 . S
H772 C758 0.961 . S
H773 C759 0.958 . S
H774 C759 0.961 . S
H775 C759 0.960 . S
C776 C777 1.391 . S
C776 C778 1.394 . S
C776 H792 0.931 . S
C777 C776 1.391 . S
C777 C781 1.376 . S
C778 C776 1.394 . S
C778 C779 1.369 . S
C778 C782 1.531 . S
C779 C778 1.369 . S
C779 C780 1.410 . S
C779 C787 1.503 . S
C780 C779 1.410 . S
C780 C781 1.392 . S
C780 C783 1.511 . S
C781 C777 1.376 . S
C781 C780 1.392 . S
C781 H793 0.929 . S
C782 C778 1.531 . S
C782 H794 0.960 . S
C782 H795 0.962 . S
C782 H796 0.960 . S
C783 C780 1.511 . S
C783 H797 0.961 . S
C783 H798 0.961 . S
C783 H799 0.961 . S
C784 C785 1.370 . S
C784 C786 1.363 . S
C784 H800 0.931 . S
C785 C784 1.370 . S
C785 C789 1.408 1_556 S
C786 C784 1.363 . S
C786 C787 1.370 . S
C786 C790 1.524 . S
C787 C779 1.503 . S
C787 C786 1.370 . S
C787 C788 1.403 . S
C788 C787 1.403 . S
C788 C789 1.404 1_556 S
C788 C791 1.539 . S
C789 C785 1.408 1_554 S
C789 C788 1.404 1_554 S
C789 H801 0.930 . S
C790 C786 1.524 . S
C790 H802 0.956 . S
C790 H803 0.961 . S
C790 H804 0.961 . S
C791 C788 1.539 . S
C791 H805 0.958 . S
C791 H806 0.961 . S
C791 H807 0.960 . S
H792 C776 0.931 . S
H793 C781 0.929 . S
H794 C782 0.960 . S
H795 C782 0.962 . S
H796 C782 0.960 . S
H797 C783 0.961 . S
H798 C783 0.961 . S
H799 C783 0.961 . S
H800 C784 0.931 . S
H801 C789 0.930 . S
H802 C790 0.956 . S
H803 C790 0.961 . S
H804 C790 0.961 . S
H805 C791 0.958 . S
H806 C791 0.961 . S
H807 C791 0.960 . S
C808 C809 1.391 . S
C808 C810 1.394 . S
C808 H824 0.931 1_455 S
C809 C808 1.391 . S
C809 C813 1.376 . S
C810 C808 1.394 . S
C810 C811 1.369 . S
C810 C814 1.531 1_455 S
C811 C810 1.369 . S
C811 C812 1.410 . S
C811 C819 1.503 . S
C812 C811 1.410 . S
C812 C813 1.392 . S
C812 C815 1.511 . S
C813 C809 1.376 . S
C813 C812 1.392 . S
C813 H825 0.929 . S
C814 C810 1.531 1_655 S
C814 H826 0.960 . S
C814 H827 0.962 . S
C814 H828 0.960 . S
C815 C812 1.511 . S
C815 H829 0.961 . S
C815 H830 0.961 . S
C815 H831 0.961 . S
C816 C817 1.370 . S
C816 C818 1.363 . S
C816 H832 0.931 . S
C817 C816 1.370 . S
C817 C821 1.408 . S
C818 C816 1.363 . S
C818 C819 1.370 . S
C818 C822 1.524 . S
C819 C811 1.503 . S
C819 C818 1.370 . S
C819 C820 1.403 . S
C820 C819 1.403 . S
C820 C821 1.404 . S
C820 C823 1.539 . S
C821 C817 1.408 . S
C821 C820 1.404 . S
C821 H833 0.930 . S
C822 C818 1.524 . S
C822 H834 0.956 1_455 S
C822 H835 0.961 . S
C822 H836 0.957 1_455 S
C823 C820 1.539 . S
C823 H837 0.958 . S
C823 H838 0.961 . S
C823 H839 0.960 . S
H824 C808 0.931 1_655 S
H825 C813 0.929 . S
H826 C814 0.960 . S
H827 C814 0.962 . S
H828 C814 0.960 . S
H829 C815 0.961 . S
H830 C815 0.961 . S
H831 C815 0.961 . S
H832 C816 0.931 . S
H833 C821 0.930 . S
H834 C822 0.956 1_655 S
H835 C822 0.961 . S
H836 C822 0.957 1_655 S
H837 C823 0.958 . S
H838 C823 0.961 . S
H839 C823 0.960 . S
C840 C841 1.391 . S
C840 C842 1.394 . S
C840 H856 0.931 1_554 S
C841 C840 1.391 . S
C841 C845 1.376 . S
C842 C840 1.394 . S
C842 C843 1.369 . S
C842 C846 1.531 . S
C843 C842 1.369 . S
C843 C844 1.410 . S
C843 C851 1.503 . S
C844 C843 1.410 . S
C844 C845 1.392 . S
C844 C847 1.511 . S
C845 C841 1.376 . S
C845 C844 1.392 . S
C845 H857 0.929 . S
C846 C842 1.531 . S
C846 H858 0.960 . S
C846 H859 0.962 . S
C846 H860 0.960 . S
C847 C844 1.511 . S
C847 H861 0.961 . S
C847 H862 0.961 . S
C847 H863 0.961 . S
C848 C849 1.370 . S
C848 C850 1.363 . S
C848 H864 0.931 . S
C849 C848 1.370 . S
C849 C853 1.408 . S
C850 C848 1.363 . S
C850 C851 1.370 . S
C850 C854 1.524 . S
C851 C843 1.503 . S
C851 C850 1.370 . S
C851 C852 1.403 . S
C852 C851 1.403 . S
C852 C853 1.404 . S
C852 C855 1.539 . S
C853 C849 1.408 . S
C853 C852 1.404 . S
C853 H865 0.930 . S
C854 C850 1.524 . S
C854 H866 0.956 . S
C854 H867 0.961 . S
C854 H868 0.961 . S
C855 C852 1.539 . S
C855 H869 0.958 . S
C855 H870 0.961 . S
C855 H871 0.960 . S
H856 C840 0.931 1_556 S
H857 C845 0.929 . S
H858 C846 0.960 . S
H859 C846 0.962 . S
H860 C846 0.960 . S
H861 C847 0.961 . S
H862 C847 0.961 . S
H863 C847 0.961 . S
H864 C848 0.931 . S
H865 C853 0.930 . S
H866 C854 0.956 . S
H867 C854 0.961 . S
H868 C854 0.961 . S
H869 C855 0.958 . S
H870 C855 0.961 . S
H871 C855 0.960 . S
C872 C873 1.391 . S
C872 C874 1.394 . S
C872 H888 0.931 1_455 S
C873 C872 1.391 . S
C873 C877 1.376 . S
C874 C872 1.394 . S
C874 C875 1.369 . S
C874 C878 1.531 1_455 S
C875 C874 1.369 . S
C875 C876 1.410 . S
C875 C883 1.503 . S
C876 C875 1.410 . S
C876 C877 1.392 . S
C876 C879 1.511 . S
C877 C873 1.376 . S
C877 C876 1.392 . S
C877 H889 0.929 . S
C878 C874 1.531 1_655 S
C878 H890 0.960 . S
C878 H891 0.962 . S
C878 H892 0.960 . S
C879 C876 1.511 . S
C879 H893 0.961 . S
C879 H894 0.961 . S
C879 H895 0.961 . S
C880 C881 1.370 . S
C880 C882 1.363 . S
C880 H896 0.931 . S
C881 C880 1.370 . S
C881 C885 1.408 . S
C882 C880 1.363 . S
C882 C883 1.370 . S
C882 C886 1.536 . S
C883 C875 1.503 . S
C883 C882 1.370 . S
C883 C884 1.403 . S
C884 C883 1.403 . S
C884 C885 1.404 . S
C884 C887 1.539 . S
C885 C881 1.408 . S
C885 C884 1.404 . S
C885 H897 0.930 . S
C886 C882 1.536 . S
C886 H898 0.939 1_455 S
C886 H899 0.975 . S
C886 H900 0.952 1_455 S
C887 C884 1.539 . S
C887 H901 0.958 . S
C887 H902 0.961 . S
C887 H903 0.960 . S
H888 C872 0.931 1_655 S
H889 C877 0.929 . S
H890 C878 0.960 . S
H891 C878 0.962 . S
H892 C878 0.960 . S
H893 C879 0.961 . S
H894 C879 0.961 . S
H895 C879 0.961 . S
H896 C880 0.931 . S
H897 C885 0.930 . S
H898 C886 0.939 1_655 S
H899 C886 0.975 . S
H900 C886 0.952 1_655 S
H901 C887 0.958 . S
H902 C887 0.961 . S
H903 C887 0.960 . S
C265 N68 1.381 . S
C273 N2 1.401 . S
C297 N101 1.401 . S
C305 N35 1.384 . S
C329 N134 1.389 . S
C337 N200 1.380 . S
C361 N167 1.413 . S
C369 N233 1.406 . S
C393 C117 1.460 . S
C401 C18 1.482 . S
C425 C51 1.472 . S
C433 C84 1.470 . S
C457 C73 1.224 . S
C465 C40 1.236 . S
C489 C106 1.246 . S
C497 C7 1.233 . S
C521 C249 1.457 . S
C529 C150 1.480 . S
C553 C183 1.463 . S
C561 C216 1.483 . S
C585 C205 1.240 . S
C593 C172 1.227 . S
C617 C238 1.246 . S
C625 C139 1.235 . S
C649 N178 1.509 . S
C657 C21 1.554 1_556 S
C681 C54 1.551 . S
C689 N145 1.501 . S
C713 C87 1.548 1_554 S
C721 N244 1.495 . S
C745 N211 1.513 . S
C753 C120 1.554 . S
C777 N46 1.499 . S
C785 C153 1.554 1_556 S
C809 C186 1.553 . S
C817 N13 1.512 . S
C841 C219 1.548 1_554 S
C849 N112 1.489 . S
C873 C252 1.553 . S
C881 N79 1.512 . S
