# Generated by pormake.
# Topology mok, (4)-cn, num edge types: 1
# Building blocks:
#     Node 0, Type 0, BuildingBlock: CEKHIL_clean_sbu_0, # of connection points: 4
#     Node 1, Type 0, BuildingBlock: CEKHIL_clean_sbu_0, # of connection points: 4
#     Node 2, Type 0, BuildingBlock: CEKHIL_clean_sbu_0, # of connection points: 4
#     Node 3, Type 0, BuildingBlock: CEKHIL_clean_sbu_0, # of connection points: 4
#     Node 4, Type 0, BuildingBlock: CEKHIL_clean_sbu_0, # of connection points: 4
#     Node 5, Type 0, BuildingBlock: CEKHIL_clean_sbu_0, # of connection points: 4
#     Node 6, Type 0, BuildingBlock: CEKHIL_clean_sbu_0, # of connection points: 4
#     Node 7, Type 0, BuildingBlock: CEKHIL_clean_sbu_0, # of connection points: 4
#     Edge 8, Type (0, 0), BuildingBlock: TEMPAE_clean_linker_10, # of connection points: 2
#     Edge 9, Type (0, 0), BuildingBlock: TEMPAE_clean_linker_10, # of connection points: 2
#     Edge 10, Type (0, 0), BuildingBlock: TEMPAE_clean_linker_10, # of connection points: 2
#     Edge 11, Type (0, 0), BuildingBlock: TEMPAE_clean_linker_10, # of connection points: 2
#     Edge 12, Type (0, 0), BuildingBlock: TEMPAE_clean_linker_10, # of connection points: 2
#     Edge 13, Type (0, 0), BuildingBlock: TEMPAE_clean_linker_10, # of connection points: 2
#     Edge 14, Type (0, 0), BuildingBlock: TEMPAE_clean_linker_10, # of connection points: 2
#     Edge 15, Type (0, 0), BuildingBlock: TEMPAE_clean_linker_10, # of connection points: 2
#     Edge 16, Type (0, 0), BuildingBlock: TEMPAE_clean_linker_10, # of connection points: 2
#     Edge 17, Type (0, 0), BuildingBlock: TEMPAE_clean_linker_10, # of connection points: 2
#     Edge 18, Type (0, 0), BuildingBlock: TEMPAE_clean_linker_10, # of connection points: 2
#     Edge 19, Type (0, 0), BuildingBlock: TEMPAE_clean_linker_10, # of connection points: 2
#     Edge 20, Type (0, 0), BuildingBlock: TEMPAE_clean_linker_10, # of connection points: 2
#     Edge 21, Type (0, 0), BuildingBlock: TEMPAE_clean_linker_10, # of connection points: 2
#     Edge 22, Type (0, 0), BuildingBlock: TEMPAE_clean_linker_10, # of connection points: 2
#     Edge 23, Type (0, 0), BuildingBlock: TEMPAE_clean_linker_10, # of connection points: 2
# Relax obj value: 0.017
# Max RMSD: 0.041
# Mean RMSD: 0.041
data_MOF--net-mok--node1-CEKHIL_clean_sbu_0--edge1-TEMPAE_clean_linker_10
_symmetry_space_group_name_H-M    P1
_symmetry_Int_Tables_number       1
_symmetry_cell_setting            triclinic
loop_
_symmetry_equiv_pos_as_xyz
'x, y, z'
_cell_length_a     54.196492
_cell_length_b     15.513395
_cell_length_c     27.339889
_cell_angle_alpha  89.992244
_cell_angle_beta   89.999274
_cell_angle_gamma 89.966805
loop_
_atom_site_label
_atom_site_type_symbol
_atom_site_fract_x
_atom_site_fract_y
_atom_site_fract_z
_atom_type_partial_charge
Co0 Co 0.60929 0.29936 0.02433 0.0
O1 O 0.57401 0.28459 0.0278 0.0
O2 O 0.59943 0.19035 0.99435 0.0
C3 C 0.61388 0.34181 0.10243 0.0
O4 O 0.64713 0.29184 0.01697 0.0
Co5 Co 0.6319 0.48206 0.04095 0.0
O6 O 0.66381 0.42045 0.03708 0.0
C7 C 0.60731 0.44208 0.94761 0.0
C8 C 0.57693 0.21064 0.0066 0.0
C9 C 0.6659 0.34175 0.02436 0.0
O10 O 0.60599 0.36177 0.95959 0.0
O11 O 0.61482 0.50072 0.97695 0.0
O12 O 0.61229 0.26027 0.09222 0.0
O13 O 0.61034 0.39405 0.06653 0.0
Co14 Co 0.40208 0.70015 0.02519 0.0
O15 O 0.43732 0.71666 0.02494 0.0
O16 O 0.41061 0.81327 0.99847 0.0
C17 C 0.40002 0.64834 0.1021 0.0
O18 O 0.36409 0.70473 0.02243 0.0
Co19 Co 0.38171 0.51289 0.03658 0.0
O20 O 0.34984 0.57402 0.04514 0.0
C21 C 0.40388 0.56725 0.94357 0.0
C22 C 0.43353 0.7928 0.00705 0.0
C23 C 0.3463 0.65299 0.03416 0.0
O24 O 0.40355 0.64631 0.95795 0.0
O25 O 0.39852 0.50353 0.97133 0.0
O26 O 0.40103 0.73093 0.0947 0.0
O27 O 0.40276 0.60079 0.06385 0.0
Co28 Co 0.61095 0.69811 0.50268 0.0
O29 O 0.57555 0.7141 0.50193 0.0
O30 O 0.60245 0.81376 0.52444 0.0
C31 C 0.61355 0.63638 0.42813 0.0
O32 O 0.64887 0.70634 0.50598 0.0
Co33 Co 0.63381 0.51344 0.49787 0.0
O34 O 0.66567 0.5749 0.49375 0.0
C35 C 0.61263 0.57711 0.59052 0.0
C36 C 0.57957 0.79198 0.51707 0.0
C37 C 0.66766 0.65579 0.50059 0.0
O38 O 0.60913 0.65249 0.57196 0.0
O39 O 0.62074 0.51256 0.56623 0.0
O40 O 0.61234 0.71974 0.43224 0.0
O41 O 0.61098 0.59367 0.46826 0.0
Co42 Co 0.40194 0.28907 0.50301 0.0
O43 O 0.43724 0.27253 0.50492 0.0
O44 O 0.40996 0.17273 0.52479 0.0
C45 C 0.40066 0.35089 0.42837 0.0
O46 O 0.36404 0.28335 0.50407 0.0
Co47 Co 0.38077 0.47613 0.49832 0.0
O48 O 0.34855 0.41671 0.49103 0.0
C49 C 0.40324 0.4117 0.58901 0.0
C50 C 0.43302 0.1943 0.51927 0.0
C51 C 0.34583 0.33588 0.49734 0.0
O52 O 0.40258 0.33415 0.5723 0.0
O53 O 0.39811 0.47823 0.56327 0.0
O54 O 0.40171 0.26756 0.4325 0.0
O55 O 0.40282 0.39343 0.46867 0.0
Co56 Co 0.11059 0.80351 0.02084 0.0
O57 O 0.07518 0.79101 0.02032 0.0
O58 O 0.10115 0.68934 0.99724 0.0
C59 C 0.11255 0.86187 0.09607 0.0
O60 O 0.14864 0.7931 0.01912 0.0
Co61 Co 0.13417 0.98693 0.02927 0.0
O62 O 0.16441 0.92039 0.04366 0.0
C63 C 0.11382 0.92801 0.93485 0.0
C64 C 0.07838 0.71291 0.00481 0.0
C65 C 0.16697 0.84108 0.03271 0.0
O66 O 0.10973 0.85219 0.95229 0.0
O67 O 0.12209 0.99101 0.96021 0.0
O68 O 0.11092 0.77881 0.09104 0.0
O69 O 0.11082 0.90635 0.05643 0.0
Co70 Co 0.90143 0.20889 0.02422 0.0
O71 O 0.93672 0.22439 0.0275 0.0
O72 O 0.91073 0.32244 -0.00041 0.0
C73 C 0.89728 0.15342 0.10005 0.0
O74 O 0.86364 0.21596 0.01821 0.0
Co75 Co 0.87992 0.02282 0.02996 0.0
O76 O 0.84758 0.08287 0.02901 0.0
C77 C 0.90494 0.07994 0.94072 0.0
C78 C 0.93339 0.30105 0.0099 0.0
C79 C 0.84516 0.16367 0.022 0.0
O80 O 0.90426 0.15828 0.95625 0.0
O81 O 0.89887 0.01511 0.96702 0.0
O82 O 0.89882 0.2363 0.09393 0.0
O83 O 0.90075 0.10751 0.06133 0.0
Co84 Co 0.11005 0.20075 0.49933 0.0
O85 O 0.07477 0.21557 0.4971 0.0
O86 O 0.10052 0.3109 0.52842 0.0
C87 C 0.1138 0.1556 0.42153 0.0
O88 O 0.14798 0.20742 0.50518 0.0
Co89 Co 0.13197 0.01606 0.48332 0.0
O90 O 0.1638 0.07832 0.48342 0.0
C91 C 0.10856 0.06034 0.5773 0.0
C92 C 0.07789 0.29029 0.51727 0.0
C93 C 0.16646 0.15679 0.49624 0.0
O94 O 0.10734 0.14037 0.56472 0.0
O95 O 0.11556 1.00049 0.54821 0.0
O96 O 0.11232 0.23753 0.43085 0.0
O97 O 0.11065 0.10496 0.45827 0.0
Co98 Co 0.90227 0.79923 0.50166 0.0
O99 O 0.93756 0.78381 0.49998 0.0
O100 O 0.91128 0.68498 0.52567 0.0
C101 C 0.89886 0.85647 0.42619 0.0
O102 O 0.86443 0.79238 0.50589 0.0
Co103 Co 0.88112 0.98608 0.49666 0.0
O104 O 0.84875 0.92635 0.49639 0.0
C105 C 0.90521 0.92598 0.5862 0.0
C106 C 0.93406 0.70665 0.51671 0.0
C107 C 0.84608 0.84533 0.50227 0.0
O108 O 0.90433 0.84803 0.57015 0.0
O109 O 0.89964 0.99171 0.56018 0.0
O110 O 0.90045 0.77348 0.43164 0.0
O111 O 0.90199 0.90147 0.46534 0.0
C112 C 0.80972 0.25112 0.05324 0.0
C113 C 0.81964 0.19653 0.01755 0.0
C114 C 0.7844 0.27208 0.05314 0.0
C115 C 0.76884 0.2394 0.01571 0.0
C116 C 0.7791 0.18644 0.9787 0.0
C117 C 0.80426 0.16441 0.98061 0.0
C118 C 0.77418 0.32721 0.09387 0.0
C119 C 0.76347 0.15249 0.93726 0.0
C120 C 0.69912 0.23091 0.03796 0.0
C121 C 0.69142 0.30922 0.01752 0.0
C122 C 0.72426 0.20699 0.03751 0.0
C123 C 0.74193 0.26163 0.01491 0.0
C124 C 0.73393 0.33881 0.99227 0.0
C125 C 0.70891 0.36217 0.99451 0.0
C126 C 0.73204 0.12499 0.06288 0.0
C127 C 0.75188 0.3977 0.96642 0.0
H128 H 0.82155 0.27443 0.08235 0.0
H129 H 0.81196 0.12147 0.95327 0.0
H130 H 0.76581 0.38664 0.07857 0.0
H131 H 0.75934 0.29176 0.11331 0.0
H132 H 0.78856 0.34592 0.1208 0.0
H133 H 0.7745 0.11575 0.91008 0.0
H134 H 0.74883 0.10969 0.95186 0.0
H135 H 0.75415 0.2067 0.91826 0.0
H136 H 0.68571 0.19047 0.05634 0.0
H137 H 0.703 0.42275 0.97854 0.0
H138 H 0.74491 0.14052 0.0932 0.0
H139 H 0.7421 0.08251 0.03705 0.0
H140 H 0.71608 0.08887 0.07803 0.0
H141 H 0.76517 0.42475 0.99316 0.0
H142 H 0.74245 0.45198 0.94759 0.0
H143 H 0.76269 0.36084 0.93901 0.0
C144 C 0.20026 0.73779 0.00472 0.0
C145 C 0.19263 0.80654 0.03441 0.0
C146 C 0.22528 0.71236 0.00315 0.0
C147 C 0.24298 0.75593 0.03241 0.0
C148 C 0.23518 0.82371 0.06335 0.0
C149 C 0.21025 0.84822 0.06382 0.0
C150 C 0.23288 0.63988 0.96958 0.0
C151 C 0.25319 0.8709 0.09592 0.0
C152 C 0.30311 0.64311 0.06555 0.0
C153 C 0.32027 0.6836 0.03461 0.0
C154 C 0.27802 0.66569 0.06496 0.0
C155 C 0.26958 0.72961 0.03203 0.0
C156 C 0.28678 0.77105 0.0007 0.0
C157 C 0.31198 0.74818 0.00269 0.0
C158 C 0.26056 0.62141 0.09994 0.0
C159 C 0.27851 0.83906 0.9648 0.0
H160 H 0.18686 0.70568 0.98163 0.0
H161 H 0.20457 0.90095 0.08729 0.0
H162 H 0.24683 0.66343 0.94305 0.0
H163 H 0.24162 0.58739 0.99101 0.0
H164 H 0.217 0.61278 0.949 0.0
H165 H 0.2441 0.92144 0.11838 0.0
H166 H 0.2625 0.82468 0.12082 0.0
H167 H 0.26774 0.90174 0.07338 0.0
H168 H 0.30936 0.59355 0.09063 0.0
H169 H 0.32505 0.77911 0.97836 0.0
H170 H 0.2456 0.58893 0.07929 0.0
H171 H 0.25174 0.66982 0.12417 0.0
H172 H 0.27003 0.57275 0.12312 0.0
H173 H 0.26394 0.81256 0.94059 0.0
H174 H 0.29394 0.86298 0.94174 0.0
H175 H 0.27036 0.89445 0.98472 0.0
C176 C 0.80313 0.85846 0.53387 0.0
C177 C 0.8204 0.81305 0.50563 0.0
C178 C 0.77816 0.83428 0.53487 0.0
C179 C 0.77 0.76472 0.50552 0.0
C180 C 0.78741 0.71848 0.4769 0.0
C181 C 0.81251 0.74236 0.47791 0.0
C182 C 0.76051 0.8834 0.56729 0.0
C183 C 0.77941 0.64524 0.44422 0.0
C184 C 0.70983 0.65002 0.53613 0.0
C185 C 0.69303 0.69025 0.5045 0.0
C186 C 0.73473 0.675 0.53762 0.0
C187 C 0.74331 0.73984 0.50539 0.0
C188 C 0.72634 0.78099 0.47339 0.0
C189 C 0.70128 0.75656 0.47386 0.0
C190 C 0.75187 0.63149 0.57352 0.0
C191 C 0.73482 0.84895 0.43766 0.0
H192 H 0.80924 0.91313 0.55542 0.0
H193 H 0.82578 0.70802 0.45552 0.0
H194 H 0.74624 0.91561 0.54465 0.0
H195 H 0.75081 0.83823 0.59221 0.0
H196 H 0.77001 0.9331 0.58966 0.0
H197 H 0.79506 0.61713 0.42339 0.0
H198 H 0.77075 0.59356 0.46636 0.0
H199 H 0.76529 0.66843 0.41791 0.0
H200 H 0.70342 0.59856 0.55979 0.0
H201 H 0.68835 0.78665 0.44886 0.0
H202 H 0.76127 0.68058 0.59641 0.0
H203 H 0.7664 0.59555 0.55351 0.0
H204 H 0.742 0.58581 0.59794 0.0
H205 H 0.74325 0.90378 0.45758 0.0
H206 H 0.71945 0.87383 0.41475 0.0
H207 H 0.74923 0.82175 0.41329 0.0
C208 C 0.19882 0.27426 0.49354 0.0
C209 C 0.19234 0.18785 0.50138 0.0
C210 C 0.22379 0.30024 0.49387 0.0
C211 C 0.24264 0.23862 0.50299 0.0
C212 C 0.23604 0.15211 0.51264 0.0
C213 C 0.21112 0.12786 0.51146 0.0
C214 C 0.23008 0.39306 0.48316 0.0
C215 C 0.25538 0.08448 0.52338 0.0
C216 C 0.30831 0.27591 0.45696 0.0
C217 C 0.32026 0.30364 0.49949 0.0
C218 C 0.28299 0.25553 0.45744 0.0
C219 C 0.26934 0.26337 0.50153 0.0
C220 C 0.28151 0.29104 0.54464 0.0
C221 C 0.3068 0.31131 0.543 0.0
C222 C 0.27079 0.2263 0.41067 0.0
C223 C 0.2678 0.29963 0.59246 0.0
H224 H 0.18447 0.32087 0.4855 0.0
H225 H 0.20634 0.06106 0.51819 0.0
H226 H 0.24138 0.42025 0.51326 0.0
H227 H 0.2413 0.39684 0.44929 0.0
H228 H 0.21335 0.43364 0.47842 0.0
H229 H 0.24714 0.02077 0.53216 0.0
H230 H 0.26771 0.07678 0.49129 0.0
H231 H 0.26702 0.10506 0.55463 0.0
H232 H 0.31868 0.27187 0.42312 0.0
H233 H 0.31604 0.33448 0.57563 0.0
H234 H 0.25515 0.26966 0.40166 0.0
H235 H 0.26311 0.16057 0.4155 0.0
H236 H 0.28381 0.22542 0.37929 0.0
H237 H 0.25228 0.34571 0.58829 0.0
H238 H 0.27991 0.32229 0.62261 0.0
H239 H 0.25974 0.23656 0.60297 0.0
C240 C 0.59636 0.37229 0.18391 0.0
C241 C 0.61663 0.37401 0.1524 0.0
C242 C 0.59732 0.41375 0.22943 0.0
C243 C 0.61931 0.45607 0.24388 0.0
C244 C 0.6402 0.45473 0.21271 0.0
C245 C 0.63845 0.4148 0.16676 0.0
C246 C 0.57451 0.41523 0.26115 0.0
C247 C 0.66414 0.49711 0.22741 0.0
C248 C 0.61233 0.63614 0.33687 0.0
C249 C 0.61705 0.59255 0.38074 0.0
C250 C 0.61348 0.59282 0.29185 0.0
C251 C 0.62 0.50437 0.29079 0.0
C252 C 0.6258 0.46109 0.33486 0.0
C253 C 0.62399 0.5055 0.3794 0.0
C254 C 0.60681 0.64084 0.24565 0.0
C255 C 0.63335 0.36738 0.33509 0.0
H256 H 0.57941 0.3416 0.17201 0.0
H257 H 0.65401 0.41622 0.14183 0.0
H258 H 0.57869 0.38803 0.29774 0.0
H259 H 0.56838 0.48281 0.26668 0.0
H260 H 0.55903 0.37813 0.24484 0.0
H261 H 0.67921 0.4838 0.20091 0.0
H262 H 0.66152 0.56788 0.22991 0.0
H263 H 0.66995 0.4742 0.2641 0.0
H264 H 0.60689 0.70337 0.33784 0.0
H265 H 0.62784 0.47172 0.41324 0.0
H266 H 0.59025 0.61106 0.22877 0.0
H267 H 0.62202 0.6361 0.21866 0.0
H268 H 0.60288 0.71007 0.25257 0.0
H269 H 0.61764 0.32678 0.32309 0.0
H270 H 0.63933 0.34534 0.3719 0.0
H271 H 0.64867 0.35655 0.30885 0.0
C272 C 0.41544 0.6302 0.18684 0.0
C273 C 0.3978 0.61087 0.1512 0.0
C274 C 0.41508 0.58855 0.23242 0.0
C275 C 0.39598 0.52901 0.24304 0.0
C276 C 0.37747 0.51243 0.2077 0.0
C277 C 0.37896 0.5521 0.16165 0.0
C278 C 0.43562 0.60576 0.26841 0.0
C279 C 0.35628 0.45215 0.2183 0.0
C280 C 0.40795 0.35615 0.33854 0.0
C281 C 0.39818 0.39434 0.38069 0.0
C282 C 0.4074 0.39944 0.29347 0.0
C283 C 0.39602 0.48149 0.2903 0.0
C284 C 0.38529 0.51883 0.33251 0.0
C285 C 0.38691 0.47543 0.37747 0.0
C286 C 0.41966 0.35852 0.24963 0.0
C287 C 0.37221 0.6047 0.33023 0.0
H288 H 0.43014 0.67514 0.17823 0.0
H289 H 0.36531 0.53758 0.13395 0.0
H290 H 0.42794 0.62986 0.30342 0.0
H291 H 0.44555 0.54481 0.27653 0.0
H292 H 0.44913 0.65365 0.25442 0.0
H293 H 0.34214 0.45315 0.18887 0.0
H294 H 0.36324 0.38528 0.22219 0.0
H295 H 0.34732 0.4699 0.25339 0.0
H296 H 0.41683 0.29368 0.34116 0.0
H297 H 0.37917 0.50464 0.41005 0.0
H298 H 0.4343 0.4018 0.23541 0.0
H299 H 0.40604 0.34934 0.21983 0.0
H300 H 0.42806 0.29504 0.25844 0.0
H301 H 0.38554 0.65626 0.32072 0.0
H302 H 0.36324 0.62168 0.36548 0.0
H303 H 0.35795 0.60361 0.3011 0.0
C304 C 0.42294 0.47762 0.87799 0.0
C305 C 0.4085 0.54865 0.89155 0.0
C306 C 0.42536 0.45386 0.82867 0.0
C307 C 0.41215 0.50009 0.7925 0.0
C308 C 0.39787 0.57285 0.80607 0.0
C309 C 0.3966 0.59721 0.85543 0.0
C310 C 0.44155 0.37815 0.81544 0.0
C311 C 0.38293 0.62238 0.76883 0.0
C312 C 0.42551 0.48592 0.65646 0.0
C313 C 0.40795 0.42538 0.64136 0.0
C314 C 0.42813 0.50717 0.7061 0.0
C315 C 0.412 0.46981 0.74088 0.0
C316 C 0.39453 0.40728 0.72571 0.0
C317 C 0.39304 0.38464 0.67611 0.0
C318 C 0.44764 0.57137 0.72108 0.0
C319 C 0.37649 0.36785 0.76137 0.0
H320 H 0.43222 0.44036 0.90607 0.0
H321 H 0.3852 0.65152 0.86611 0.0
H322 H 0.42996 0.32382 0.80255 0.0
H323 H 0.45416 0.39573 0.78506 0.0
H324 H 0.45275 0.35553 0.84698 0.0
H325 H 0.37295 0.67777 0.78534 0.0
H326 H 0.39509 0.64698 0.73936 0.0
H327 H 0.36924 0.57882 0.75151 0.0
H328 H 0.43703 0.51721 0.62931 0.0
H329 H 0.37925 0.33867 0.66406 0.0
H330 H 0.45828 0.54658 0.7528 0.0
H331 H 0.43877 0.63249 0.73262 0.0
H332 H 0.46067 0.58576 0.69079 0.0
H333 H 0.3865 0.3368 0.79204 0.0
H334 H 0.3644 0.31901 0.74383 0.0
H335 H 0.36469 0.41919 0.77728 0.0
C336 C 0.59204 0.40943 0.8627 0.0
C337 C 0.602 0.46805 0.8964 0.0
C338 C 0.58993 0.43101 0.81293 0.0
C339 C 0.59837 0.51244 0.79648 0.0
C340 C 0.60714 0.57348 0.8307 0.0
C341 C 0.60865 0.55084 0.88019 0.0
C342 C 0.57994 0.36494 0.7776 0.0
C343 C 0.61668 0.66052 0.81466 0.0
C344 C 0.62667 0.51938 0.67003 0.0
C345 C 0.60874 0.56398 0.64324 0.0
C346 C 0.62349 0.50292 0.71993 0.0
C347 C 0.60144 0.52934 0.74331 0.0
C348 C 0.58309 0.57382 0.71627 0.0
C349 C 0.58716 0.59201 0.66648 0.0
C350 C 0.64389 0.45788 0.74768 0.0
C351 C 0.5591 0.60085 0.73973 0.0
H352 H 0.58655 0.34576 0.87488 0.0
H353 H 0.61625 0.59706 0.9058 0.0
H354 H 0.56664 0.39519 0.75195 0.0
H355 H 0.5953 0.33824 0.75545 0.0
H356 H 0.57066 0.31076 0.79676 0.0
H357 H 0.62036 0.7039 0.84616 0.0
H358 H 0.63412 0.65183 0.79395 0.0
H359 H 0.60333 0.69255 0.78989 0.0
H360 H 0.64343 0.49832 0.65193 0.0
H361 H 0.57323 0.62578 0.64542 0.0
H362 H 0.63699 0.39631 0.7631 0.0
H363 H 0.65001 0.49851 0.7788 0.0
H364 H 0.66014 0.44376 0.72423 0.0
H365 H 0.54947 0.54337 0.75452 0.0
H366 H 0.54663 0.63409 0.71355 0.0
H367 H 0.56273 0.64459 0.771 0.0
C368 C 0.13097 0.97545 0.14869 0.0
C369 C 0.11556 0.90358 0.14387 0.0
C370 C 0.13312 0.01853 0.19355 0.0
C371 C 0.1185 0.99156 0.23358 0.0
C372 C 0.10275 0.91917 0.22868 0.0
C373 C 0.10191 0.87473 0.18404 0.0
C374 C 0.15095 0.0929 0.19803 0.0
C375 C 0.08623 0.89032 0.27005 0.0
C376 C 0.13296 0.05044 0.36483 0.0
C377 C 0.11738 0.12122 0.37211 0.0
C378 C 0.13454 0.01047 0.31899 0.0
C379 C 0.11927 0.03973 0.28042 0.0
C380 C 0.10379 0.11234 0.28748 0.0
C381 C 0.10342 0.15344 0.33319 0.0
C382 C 0.15205 0.93566 0.31226 0.0
C383 C 0.08668 0.14371 0.24769 0.0
H384 H 0.14153 0.99761 0.11751 0.0
H385 H 0.08976 0.81968 0.17988 0.0
H386 H 0.14066 0.15366 0.20442 0.0
H387 H 0.16328 0.08294 0.22994 0.0
H388 H 0.16247 0.10085 0.16473 0.0
H389 H 0.07444 0.83468 0.25966 0.0
H390 H 0.09751 0.87173 0.30219 0.0
H391 H 0.07412 0.94437 0.28157 0.0
H392 H 0.14379 0.02596 0.39511 0.0
H393 H 0.09116 0.20765 0.33931 0.0
H394 H 0.16324 0.94472 0.27864 0.0
H395 H 0.14143 0.87511 0.30774 0.0
H396 H 0.16472 0.92787 0.34391 0.0
H397 H 0.09725 0.15886 0.21407 0.0
H398 H 0.07617 0.20202 0.25881 0.0
H399 H 0.07336 0.09199 0.23823 0.0
C400 C 0.91104 0.87195 0.33918 0.0
C401 C 0.89584 0.89704 0.37799 0.0
C402 C 0.91 0.91494 0.29406 0.0
C403 C 0.89254 0.98189 0.2871 0.0
C404 C 0.87638 0.00472 0.32574 0.0
C405 C 0.87867 0.96336 0.37124 0.0
C406 C 0.92819 0.89079 0.2545 0.0
C407 C 0.85681 0.07299 0.3191 0.0
C408 C 0.90626 0.14894 0.18917 0.0
C409 C 0.89417 0.1138 0.14859 0.0
C410 C 0.90574 0.10693 0.23464 0.0
C411 C 0.89193 0.02993 0.23996 0.0
C412 C 0.87865 0.99672 0.19952 0.0
C413 C 0.8804 0.03807 0.15394 0.0
C414 C 0.92086 0.14285 0.27632 0.0
C415 C 0.8629 0.9169 0.20419 0.0
H416 H 0.92447 0.82109 0.34484 0.0
H417 H 0.86684 0.98214 0.40141 0.0
H418 H 0.91824 0.86923 0.22125 0.0
H419 H 0.9393 0.94806 0.24416 0.0
H420 H 0.94093 0.83859 0.26619 0.0
H421 H 0.84422 0.07712 0.35108 0.0
H422 H 0.8656 0.13681 0.31372 0.0
H423 H 0.84571 0.05918 0.2859 0.0
H424 H 0.9171 0.20714 0.18476 0.0
H425 H 0.87092 0.01138 0.12248 0.0
H426 H 0.93481 0.09458 0.28792 0.0
H427 H 0.9089 0.15599 0.30835 0.0
H428 H 0.93055 0.20335 0.26617 0.0
H429 H 0.87482 0.85982 0.21044 0.0
H430 H 0.8516 0.90519 0.17095 0.0
H431 H 0.85041 0.92269 0.2362 0.0
C432 C 0.89559 0.89977 0.67362 0.0
C433 C 0.91017 0.94079 0.63842 0.0
C434 C 0.89719 0.92308 0.72311 0.0
C435 C 0.91448 0.98655 0.7378 0.0
C436 C 0.93031 0.02429 0.70257 0.0
C437 C 0.92754 0.00242 0.65301 0.0
C438 C 0.87944 0.88321 0.75919 0.0
C439 C 0.94968 0.08937 0.71702 0.0
C440 C 0.89853 0.11246 0.85263 0.0
C441 C 0.91038 0.06367 0.88873 0.0
C442 C 0.90014 0.0891 0.80314 0.0
C443 C 0.91473 0.01716 0.78941 0.0
C444 C 0.92803 0.97117 0.82558 0.0
C445 C 0.92524 0.99381 0.87501 0.0
C446 C 0.88508 0.13829 0.76596 0.0
C447 C 0.94457 0.89646 0.81225 0.0
H448 H 0.88193 0.85298 0.66201 0.0
H449 H 0.9388 0.03398 0.62555 0.0
H450 H 0.8897 0.85216 0.78952 0.0
H451 H 0.86767 0.93427 0.7755 0.0
H452 H 0.86729 0.83425 0.74191 0.0
H453 H 0.96253 0.10394 0.68647 0.0
H454 H 0.94066 0.15027 0.72852 0.0
H455 H 0.96052 0.06529 0.74865 0.0
H456 H 0.88679 0.16581 0.86341 0.0
H457 H 0.93446 0.95631 0.90307 0.0
H458 H 0.87134 0.0945 0.74896 0.0
H459 H 0.89711 0.16272 0.73626 0.0
H460 H 0.87512 0.19374 0.78247 0.0
H461 H 0.9332 0.84103 0.80013 0.0
H462 H 0.95615 0.87532 0.84358 0.0
H463 H 0.95683 0.9143 0.78135 0.0
C464 C 0.12736 0.99222 0.8565 0.0
C465 C 0.10995 0.94363 0.88235 0.0
C466 C 0.1243 0.00932 0.80665 0.0
C467 C 0.10288 0.97937 0.78242 0.0
C468 C 0.08494 0.93159 0.8086 0.0
C469 C 0.08891 0.91287 0.85831 0.0
C470 C 0.14427 0.05806 0.77974 0.0
C471 C 0.06157 0.9008 0.7842 0.0
C472 C 0.09283 0.0942 0.66164 0.0
C473 C 0.10371 0.03597 0.62883 0.0
C474 C 0.09076 0.07403 0.71159 0.0
C475 C 0.10024 0.99469 0.72908 0.0
C476 C 0.11014 0.93412 0.6958 0.0
C477 C 0.11153 0.95516 0.64611 0.0
C478 C 0.07954 0.13932 0.74595 0.0
C479 C 0.12086 0.84944 0.71302 0.0
H480 H 0.14371 0.01544 0.8752 0.0
H481 H 0.07535 0.87607 0.87864 0.0
H482 H 0.15149 0.01823 0.74921 0.0
H483 H 0.13657 0.11786 0.76357 0.0
H484 H 0.15993 0.07582 0.80396 0.0
H485 H 0.04894 0.86803 0.81025 0.0
H486 H 0.05172 0.95622 0.76751 0.0
H487 H 0.06611 0.85535 0.75421 0.0
H488 H 0.08645 0.15629 0.64855 0.0
H489 H 0.11993 0.90944 0.62117 0.0
H490 H 0.09427 0.16897 0.76851 0.0
H491 H 0.06638 0.10758 0.77131 0.0
H492 H 0.06974 0.19148 0.72597 0.0
H493 H 0.13773 0.86194 0.73492 0.0
H494 H 0.12583 0.80632 0.68211 0.0
H495 H 0.10762 0.81518 0.73703 0.0
C496 C 0.47714 0.8364 0.02334 0.0
C497 C 0.45453 0.85362 0.0002 0.0
C498 C 0.49704 0.89417 0.02037 0.0
C499 C 0.49465 0.97075 0.99258 0.0
C500 C 0.47215 0.98725 0.96764 0.0
C501 C 0.45224 0.92906 0.97226 0.0
C502 C 0.52034 0.8746 0.04862 0.0
C503 C 0.469 0.06703 0.9367 0.0
C504 C 0.5352 0.15906 0.03167 0.0
C505 C 0.55562 0.15114 0.00043 0.0
C506 C 0.51517 0.10176 0.02893 0.0
C507 C 0.51507 0.03597 0.99301 0.0
C508 C 0.53529 0.02938 0.96016 0.0
C509 C 0.55552 0.08614 0.96478 0.0
C510 C 0.49452 0.10986 0.06575 0.0
C511 C 0.53564 0.96178 0.9205 0.0
H512 H 0.47912 0.77854 0.04523 0.0
H513 H 0.43492 0.94263 0.95401 0.0
H514 H 0.53649 0.87446 0.02372 0.0
H515 H 0.52354 0.92563 0.07635 0.0
H516 H 0.5195 0.81134 0.06759 0.0
H517 H 0.4514 0.06645 0.91588 0.0
H518 H 0.46928 0.12511 0.96034 0.0
H519 H 0.48456 0.07301 0.91053 0.0
H520 H 0.53519 0.2087 0.05958 0.0
H521 H 0.57116 0.08008 0.9403 0.0
H522 H 0.49331 0.04999 0.08785 0.0
H523 H 0.4766 0.11788 0.04672 0.0
H524 H 0.49718 0.16526 0.09094 0.0
H525 H 0.53686 0.89671 0.93714 0.0
H526 H 0.55146 0.97018 0.89509 0.0
H527 H 0.51824 0.96425 0.89915 0.0
C528 C 0.55187 0.90338 0.4816 0.0
C529 C 0.55903 0.85391 0.52197 0.0
C530 C 0.53108 0.95759 0.48384 0.0
C531 C 0.51714 0.96266 0.52767 0.0
C532 C 0.52456 0.91319 0.5688 0.0
C533 C 0.54536 0.85887 0.56532 0.0
C534 C 0.52383 0.00849 0.43901 0.0
C535 C 0.51045 0.91728 0.61632 0.0
C536 C 0.47713 0.16376 0.53963 0.0
C537 C 0.45373 0.13286 0.5265 0.0
C538 C 0.49764 0.10836 0.54237 0.0
C539 C 0.49493 0.02011 0.5302 0.0
C540 C 0.4712 0.98821 0.51776 0.0
C541 C 0.45082 0.04474 0.51674 0.0
C542 C 0.52237 0.14487 0.55708 0.0
C543 C 0.46753 0.89512 0.50348 0.0
H544 H 0.56235 0.89846 0.44792 0.0
H545 H 0.55081 0.81962 0.59632 0.0
H546 H 0.50476 0.99137 0.42788 0.0
H547 H 0.52395 0.07843 0.44741 0.0
H548 H 0.53641 0.9966 0.40765 0.0
H549 H 0.51899 0.87683 0.64528 0.0
H550 H 0.50952 0.98488 0.62946 0.0
H551 H 0.49121 0.89521 0.6105 0.0
H552 H 0.47946 0.23178 0.54749 0.0
H553 H 0.43282 0.02072 0.50611 0.0
H554 H 0.53523 0.14229 0.52554 0.0
H555 H 0.53059 0.10559 0.58684 0.0
H556 H 0.52098 0.21278 0.56967 0.0
H557 H 0.4782 0.881 0.46976 0.0
H558 H 0.44783 0.87949 0.49668 0.0
H559 H 0.47463 0.85194 0.5326 0.0
C560 C 0.05915 0.5738 0.97547 0.0
C561 C 0.05698 0.65335 -0.0005 0.0
C562 C 0.03897 0.51652 0.97261 0.0
C563 C 0.01624 0.53835 0.99531 0.0
C564 C 0.01396 0.61901 0.01913 0.0
C565 C 0.03418 0.67562 0.02044 0.0
C566 C 0.04206 0.43206 0.94594 0.0
C567 C 0.99038 0.64442 0.04486 0.0
C568 C 0.95546 0.42267 0.96717 0.0
C569 C 0.95449 0.36147 0.00484 0.0
C570 C 0.9759 0.47844 0.96235 0.0
C571 C 0.99533 0.47512 0.99714 0.0
C572 C 0.99418 0.41385 0.03551 0.0
C573 C 0.97406 0.35696 0.03832 0.0
C574 C 0.97673 0.54083 0.92005 0.0
C575 C 0.01392 0.40975 0.07446 0.0
H576 H 0.07663 0.55619 0.95901 0.0
H577 H 0.03229 0.7367 0.03932 0.0
H578 H 0.0409 0.37785 0.97229 0.0
H579 H 0.02693 0.42341 0.91902 0.0
H580 H 0.06002 0.42797 0.92649 0.0
H581 H 0.9914 0.71013 0.06089 0.0
H582 H 0.97463 0.64224 0.01901 0.0
H583 H 0.98639 0.59782 0.07463 0.0
H584 H 0.94049 0.42579 0.94094 0.0
H585 H 0.97331 0.31013 0.06773 0.0
H586 H 0.99435 0.53336 0.89978 0.0
H587 H 0.97605 0.60799 0.93387 0.0
H588 H 0.96116 0.53118 0.8942 0.0
H589 H 0.03215 0.39704 0.05753 0.0
H590 H 0.01022 0.35883 0.10207 0.0
H591 H 0.01519 0.47275 0.09353 0.0
C592 C 0.03512 0.33661 0.49584 0.0
C593 C 0.05662 0.35002 0.52348 0.0
C594 C 0.01509 0.39392 0.49827 0.0
C595 C 0.01615 0.46577 0.53013 0.0
C596 C 0.03747 0.47819 0.55947 0.0
C597 C 0.05761 0.42087 0.55528 0.0
C598 C 0.99312 0.37912 0.46529 0.0
C599 C 0.03912 0.55266 0.5948 0.0
C600 C 0.97671 0.65941 0.49498 0.0
C601 C 0.95517 0.64617 0.52246 0.0
C602 C 0.99673 0.60203 0.49774 0.0
C603 C 0.99561 0.53052 0.52988 0.0
C604 C 0.97419 0.51825 0.55896 0.0
C605 C 0.95406 0.57545 0.55433 0.0
C606 C 0.01877 0.61647 0.46492 0.0
C607 C 0.97247 0.44423 0.59461 0.0
H608 H 0.03421 0.28238 0.4709 0.0
H609 H 0.07408 0.43135 0.57697 0.0
H610 H 0.97599 0.37459 0.48729 0.0
H611 H 0.99093 0.43463 0.44005 0.0
H612 H 0.99497 0.31941 0.44316 0.0
H613 H 0.05585 0.54894 0.61819 0.0
H614 H 0.03956 0.61434 0.5743 0.0
H615 H 0.02255 0.55412 0.61866 0.0
H616 H 0.97767 0.7136 0.47001 0.0
H617 H 0.93755 0.56526 0.57596 0.0
H618 H 0.02107 0.56055 0.44001 0.0
H619 H 0.03584 0.6215 0.48709 0.0
H620 H 0.01694 0.67579 0.44244 0.0
H621 H 0.97223 0.38225 0.5744 0.0
H622 H 0.95563 0.44799 0.61767 0.0
H623 H 0.98892 0.44341 0.61878 0.0
loop_
_geom_bond_atom_site_label_1
_geom_bond_atom_site_label_2
_geom_bond_distance
_geom_bond_site_symmetry_2
_ccdc_geom_bond_type
Co0 O1 2.216 . S
Co0 O2 2.091 . S
Co0 O4 2.004 . S
Co0 O10 2.021 1_554 S
Co0 O12 2.137 . S
Co0 O13 2.244 . S
O1 Co0 2.216 . S
O1 C8 1.247 . S
O2 Co0 2.091 . S
O2 C8 1.261 . S
C3 O12 1.247 . S
C3 O13 1.272 . S
O4 Co0 2.004 . S
O4 C9 1.259 . S
Co5 O6 2.061 . S
Co5 O11 2.052 1_554 S
Co5 O13 2.135 . S
O6 Co5 2.061 . S
O6 C9 1.235 . S
C7 O10 1.238 . S
C7 O11 1.241 . S
C8 O1 1.247 . S
C8 O2 1.261 . S
C9 O4 1.259 . S
C9 O6 1.235 . S
O10 Co0 2.021 1_556 S
O10 C7 1.238 . S
O11 Co5 2.052 1_556 S
O11 C7 1.241 . S
O12 Co0 2.137 . S
O12 C3 1.247 . S
O13 Co0 2.244 . S
O13 C3 1.272 . S
O13 Co5 2.135 . S
Co14 O15 2.216 . S
Co14 O16 2.091 . S
Co14 O18 2.004 . S
Co14 O24 2.021 1_554 S
Co14 O26 2.137 . S
Co14 O27 2.244 . S
O15 Co14 2.216 . S
O15 C22 1.247 . S
O16 Co14 2.091 . S
O16 C22 1.261 . S
C17 O26 1.247 . S
C17 O27 1.272 . S
O18 Co14 2.004 . S
O18 C23 1.259 . S
Co19 O20 2.061 . S
Co19 O25 2.052 1_554 S
Co19 O27 2.135 . S
O20 Co19 2.061 . S
O20 C23 1.235 . S
C21 O24 1.238 . S
C21 O25 1.241 . S
C22 O15 1.247 . S
C22 O16 1.261 . S
C23 O18 1.259 . S
C23 O20 1.235 . S
O24 Co14 2.021 1_556 S
O24 C21 1.238 . S
O25 Co19 2.052 1_556 S
O25 C21 1.241 . S
O26 Co14 2.137 . S
O26 C17 1.247 . S
O27 Co14 2.244 . S
O27 C17 1.272 . S
O27 Co19 2.135 . S
Co28 O29 2.216 . S
Co28 O30 2.091 . S
Co28 O32 2.004 . S
Co28 O38 2.021 . S
Co28 O40 2.137 . S
Co28 O41 2.244 . S
O29 Co28 2.216 . S
O29 C36 1.247 . S
O30 Co28 2.091 . S
O30 C36 1.261 . S
C31 O40 1.247 . S
C31 O41 1.272 . S
O32 Co28 2.004 . S
O32 C37 1.259 . S
Co33 O34 2.061 . S
Co33 O39 2.052 . S
Co33 O41 2.135 . S
O34 Co33 2.061 . S
O34 C37 1.235 . S
C35 O38 1.238 . S
C35 O39 1.241 . S
C36 O29 1.247 . S
C36 O30 1.261 . S
C37 O32 1.259 . S
C37 O34 1.235 . S
O38 Co28 2.021 . S
O38 C35 1.238 . S
O39 Co33 2.052 . S
O39 C35 1.241 . S
O40 Co28 2.137 . S
O40 C31 1.247 . S
O41 Co28 2.244 . S
O41 C31 1.272 . S
O41 Co33 2.135 . S
Co42 O43 2.216 . S
Co42 O44 2.091 . S
Co42 O46 2.004 . S
Co42 O52 2.021 . S
Co42 O54 2.137 . S
Co42 O55 2.244 . S
O43 Co42 2.216 . S
O43 C50 1.247 . S
O44 Co42 2.091 . S
O44 C50 1.261 . S
C45 O54 1.247 . S
C45 O55 1.272 . S
O46 Co42 2.004 . S
O46 C51 1.259 . S
Co47 O48 2.061 . S
Co47 O53 2.052 . S
Co47 O55 2.135 . S
O48 Co47 2.061 . S
O48 C51 1.235 . S
C49 O52 1.238 . S
C49 O53 1.241 . S
C50 O43 1.247 . S
C50 O44 1.261 . S
C51 O46 1.259 . S
C51 O48 1.235 . S
O52 Co42 2.021 . S
O52 C49 1.238 . S
O53 Co47 2.052 . S
O53 C49 1.241 . S
O54 Co42 2.137 . S
O54 C45 1.247 . S
O55 Co42 2.244 . S
O55 C45 1.272 . S
O55 Co47 2.135 . S
Co56 O57 2.216 . S
Co56 O58 2.091 . S
Co56 O60 2.004 . S
Co56 O66 2.021 1_554 S
Co56 O68 2.137 . S
Co56 O69 2.244 . S
O57 Co56 2.216 . S
O57 C64 1.247 . S
O58 Co56 2.091 . S
O58 C64 1.261 . S
C59 O68 1.247 . S
C59 O69 1.272 . S
O60 Co56 2.004 . S
O60 C65 1.259 . S
Co61 O62 2.061 . S
Co61 O67 2.052 1_554 S
Co61 O69 2.135 . S
O62 Co61 2.061 . S
O62 C65 1.235 . S
C63 O66 1.238 . S
C63 O67 1.241 . S
C64 O57 1.247 . S
C64 O58 1.261 . S
C65 O60 1.259 . S
C65 O62 1.235 . S
O66 Co56 2.021 1_556 S
O66 C63 1.238 . S
O67 Co61 2.052 1_556 S
O67 C63 1.241 . S
O68 Co56 2.137 . S
O68 C59 1.247 . S
O69 Co56 2.244 . S
O69 C59 1.272 . S
O69 Co61 2.135 . S
Co70 O71 2.216 . S
Co70 O72 2.091 . S
Co70 O74 2.004 . S
Co70 O80 2.021 1_554 S
Co70 O82 2.137 . S
Co70 O83 2.244 . S
O71 Co70 2.216 . S
O71 C78 1.247 . S
O72 Co70 2.091 . S
O72 C78 1.261 . S
C73 O82 1.247 . S
C73 O83 1.272 . S
O74 Co70 2.004 . S
O74 C79 1.259 . S
Co75 O76 2.061 . S
Co75 O81 2.052 1_554 S
Co75 O83 2.135 . S
O76 Co75 2.061 . S
O76 C79 1.235 . S
C77 O80 1.238 . S
C77 O81 1.241 . S
C78 O71 1.247 . S
C78 O72 1.261 . S
C79 O74 1.259 . S
C79 O76 1.235 . S
O80 Co70 2.021 1_556 S
O80 C77 1.238 . S
O81 Co75 2.052 1_556 S
O81 C77 1.241 . S
O82 Co70 2.137 . S
O82 C73 1.247 . S
O83 Co70 2.244 . S
O83 C73 1.272 . S
O83 Co75 2.135 . S
Co84 O85 2.216 . S
Co84 O86 2.091 . S
Co84 O88 2.004 . S
Co84 O94 2.021 . S
Co84 O96 2.137 . S
Co84 O97 2.244 . S
O85 Co84 2.216 . S
O85 C92 1.247 . S
O86 Co84 2.091 . S
O86 C92 1.261 . S
C87 O96 1.247 . S
C87 O97 1.272 . S
O88 Co84 2.004 . S
O88 C93 1.259 . S
Co89 O90 2.061 . S
Co89 O95 2.052 . S
Co89 O97 2.135 . S
O90 Co89 2.061 . S
O90 C93 1.235 . S
C91 O94 1.238 . S
C91 O95 1.241 . S
C92 O85 1.247 . S
C92 O86 1.261 . S
C93 O88 1.259 . S
C93 O90 1.235 . S
O94 Co84 2.021 . S
O94 C91 1.238 . S
O95 Co89 2.052 . S
O95 C91 1.241 . S
O96 Co84 2.137 . S
O96 C87 1.247 . S
O97 Co84 2.244 . S
O97 C87 1.272 . S
O97 Co89 2.135 . S
Co98 O99 2.216 . S
Co98 O100 2.091 . S
Co98 O102 2.004 . S
Co98 O108 2.021 . S
Co98 O110 2.137 . S
Co98 O111 2.244 . S
O99 Co98 2.216 . S
O99 C106 1.247 . S
O100 Co98 2.091 . S
O100 C106 1.261 . S
C101 O110 1.247 . S
C101 O111 1.272 . S
O102 Co98 2.004 . S
O102 C107 1.259 . S
Co103 O104 2.061 . S
Co103 O109 2.052 . S
Co103 O111 2.135 . S
O104 Co103 2.061 . S
O104 C107 1.235 . S
C105 O108 1.238 . S
C105 O109 1.241 . S
C106 O99 1.247 . S
C106 O100 1.261 . S
C107 O102 1.259 . S
C107 O104 1.235 . S
O108 Co98 2.021 . S
O108 C105 1.238 . S
O109 Co103 2.052 . S
O109 C105 1.241 . S
O110 Co98 2.137 . S
O110 C101 1.247 . S
O111 Co98 2.244 . S
O111 C101 1.272 . S
O111 Co103 2.135 . S
C112 C113 1.391 . S
C112 C114 1.394 . S
C112 H128 0.931 . S
C113 C112 1.391 . S
C113 C117 1.376 1_554 S
C114 C112 1.394 . S
C114 C115 1.369 . S
C114 C118 1.531 . S
C115 C114 1.369 . S
C115 C116 1.410 1_554 S
C115 C123 1.503 . S
C116 C115 1.410 1_556 S
C116 C117 1.392 . S
C116 C119 1.511 . S
C117 C113 1.376 1_556 S
C117 C116 1.392 . S
C117 H129 0.929 . S
C118 C114 1.531 . S
C118 H130 0.960 . S
C118 H131 0.962 . S
C118 H132 0.960 . S
C119 C116 1.511 . S
C119 H133 0.961 . S
C119 H134 0.961 . S
C119 H135 0.961 . S
C120 C121 1.370 . S
C120 C122 1.363 . S
C120 H136 0.931 . S
C121 C120 1.370 . S
C121 C125 1.408 1_554 S
C122 C120 1.363 . S
C122 C123 1.370 . S
C122 C126 1.524 . S
C123 C115 1.503 . S
C123 C122 1.370 . S
C123 C124 1.403 1_554 S
C124 C123 1.403 1_556 S
C124 C125 1.404 . S
C124 C127 1.539 . S
C125 C121 1.408 1_556 S
C125 C124 1.404 . S
C125 H137 0.930 . S
C126 C122 1.524 . S
C126 H138 0.956 . S
C126 H139 0.961 . S
C126 H140 0.961 . S
C127 C124 1.539 . S
C127 H141 0.958 . S
C127 H142 0.961 . S
C127 H143 0.960 . S
H128 C112 0.931 . S
H129 C117 0.929 . S
H130 C118 0.960 . S
H131 C118 0.962 . S
H132 C118 0.960 . S
H133 C119 0.961 . S
H134 C119 0.961 . S
H135 C119 0.961 . S
H136 C120 0.931 . S
H137 C125 0.930 . S
H138 C126 0.956 . S
H139 C126 0.961 . S
H140 C126 0.961 . S
H141 C127 0.958 . S
H142 C127 0.961 . S
H143 C127 0.960 . S
C144 C145 1.391 1_556 S
C144 C146 1.394 . S
C144 H160 0.931 . S
C145 C144 1.391 1_554 S
C145 C149 1.376 . S
C146 C144 1.394 . S
C146 C147 1.369 1_556 S
C146 C150 1.531 . S
C147 C146 1.369 1_554 S
C147 C148 1.410 . S
C147 C155 1.503 . S
C148 C147 1.410 . S
C148 C149 1.392 . S
C148 C151 1.511 . S
C149 C145 1.376 . S
C149 C148 1.392 . S
C149 H161 0.929 . S
C150 C146 1.531 . S
C150 H162 0.960 . S
C150 H163 0.962 . S
C150 H164 0.960 . S
C151 C148 1.511 . S
C151 H165 0.961 . S
C151 H166 0.961 . S
C151 H167 0.961 . S
C152 C153 1.370 . S
C152 C154 1.363 . S
C152 H168 0.931 . S
C153 C152 1.370 . S
C153 C157 1.408 1_554 S
C154 C152 1.363 . S
C154 C155 1.370 . S
C154 C158 1.524 . S
C155 C147 1.503 . S
C155 C154 1.370 . S
C155 C156 1.403 1_554 S
C156 C155 1.403 1_556 S
C156 C157 1.404 . S
C156 C159 1.539 . S
C157 C153 1.408 1_556 S
C157 C156 1.404 . S
C157 H169 0.930 . S
C158 C154 1.524 . S
C158 H170 0.956 . S
C158 H171 0.961 . S
C158 H172 0.961 . S
C159 C156 1.539 . S
C159 H173 0.958 . S
C159 H174 0.961 . S
C159 H175 0.960 . S
H160 C144 0.931 . S
H161 C149 0.929 . S
H162 C150 0.960 . S
H163 C150 0.962 . S
H164 C150 0.960 . S
H165 C151 0.961 . S
H166 C151 0.961 . S
H167 C151 0.961 . S
H168 C152 0.931 . S
H169 C157 0.930 . S
H170 C158 0.956 . S
H171 C158 0.961 . S
H172 C158 0.961 . S
H173 C159 0.958 . S
H174 C159 0.961 . S
H175 C159 0.960 . S
C176 C177 1.391 . S
C176 C178 1.394 . S
C176 H192 0.931 . S
C177 C176 1.391 . S
C177 C181 1.376 . S
C178 C176 1.394 . S
C178 C179 1.369 . S
C178 C182 1.531 . S
C179 C178 1.369 . S
C179 C180 1.410 . S
C179 C187 1.503 . S
C180 C179 1.410 . S
C180 C181 1.392 . S
C180 C183 1.511 . S
C181 C177 1.376 . S
C181 C180 1.392 . S
C181 H193 0.929 . S
C182 C178 1.531 . S
C182 H194 0.960 . S
C182 H195 0.962 . S
C182 H196 0.960 . S
C183 C180 1.511 . S
C183 H197 0.961 . S
C183 H198 0.961 . S
C183 H199 0.961 . S
C184 C185 1.370 . S
C184 C186 1.363 . S
C184 H200 0.931 . S
C185 C184 1.370 . S
C185 C189 1.408 . S
C186 C184 1.363 . S
C186 C187 1.370 . S
C186 C190 1.524 . S
C187 C179 1.503 . S
C187 C186 1.370 . S
C187 C188 1.403 . S
C188 C187 1.403 . S
C188 C189 1.404 . S
C188 C191 1.539 . S
C189 C185 1.408 . S
C189 C188 1.404 . S
C189 H201 0.930 . S
C190 C186 1.524 . S
C190 H202 0.956 . S
C190 H203 0.961 . S
C190 H204 0.961 . S
C191 C188 1.539 . S
C191 H205 0.958 . S
C191 H206 0.961 . S
C191 H207 0.960 . S
H192 C176 0.931 . S
H193 C181 0.929 . S
H194 C182 0.960 . S
H195 C182 0.962 . S
H196 C182 0.960 . S
H197 C183 0.961 . S
H198 C183 0.961 . S
H199 C183 0.961 . S
H200 C184 0.931 . S
H201 C189 0.930 . S
H202 C190 0.956 . S
H203 C190 0.961 . S
H204 C190 0.961 . S
H205 C191 0.958 . S
H206 C191 0.961 . S
H207 C191 0.960 . S
C208 C209 1.391 . S
C208 C210 1.394 . S
C208 H224 0.931 . S
C209 C208 1.391 . S
C209 C213 1.376 . S
C210 C208 1.394 . S
C210 C211 1.369 . S
C210 C214 1.531 . S
C211 C210 1.369 . S
C211 C212 1.410 . S
C211 C219 1.503 . S
C212 C211 1.410 . S
C212 C213 1.392 . S
C212 C215 1.511 . S
C213 C209 1.376 . S
C213 C212 1.392 . S
C213 H225 0.929 . S
C214 C210 1.531 . S
C214 H226 0.960 . S
C214 H227 0.962 . S
C214 H228 0.960 . S
C215 C212 1.511 . S
C215 H229 0.961 . S
C215 H230 0.961 . S
C215 H231 0.961 . S
C216 C217 1.370 . S
C216 C218 1.363 . S
C216 H232 0.931 . S
C217 C216 1.370 . S
C217 C221 1.408 . S
C218 C216 1.363 . S
C218 C219 1.370 . S
C218 C222 1.524 . S
C219 C211 1.503 . S
C219 C218 1.370 . S
C219 C220 1.403 . S
C220 C219 1.403 . S
C220 C221 1.404 . S
C220 C223 1.539 . S
C221 C217 1.408 . S
C221 C220 1.404 . S
C221 H233 0.930 . S
C222 C218 1.524 . S
C222 H234 0.956 . S
C222 H235 0.961 . S
C222 H236 0.961 . S
C223 C220 1.539 . S
C223 H237 0.958 . S
C223 H238 0.961 . S
C223 H239 0.960 . S
H224 C208 0.931 . S
H225 C213 0.929 . S
H226 C214 0.960 . S
H227 C214 0.962 . S
H228 C214 0.960 . S
H229 C215 0.961 . S
H230 C215 0.961 . S
H231 C215 0.961 . S
H232 C216 0.931 . S
H233 C221 0.930 . S
H234 C222 0.956 . S
H235 C222 0.961 . S
H236 C222 0.961 . S
H237 C223 0.958 . S
H238 C223 0.961 . S
H239 C223 0.960 . S
C240 C241 1.391 . S
C240 C242 1.394 . S
C240 H256 0.931 . S
C241 C240 1.391 . S
C241 C245 1.376 . S
C242 C240 1.394 . S
C242 C243 1.369 . S
C242 C246 1.531 . S
C243 C242 1.369 . S
C243 C244 1.410 . S
C243 C251 1.503 . S
C244 C243 1.410 . S
C244 C245 1.392 . S
C244 C247 1.511 . S
C245 C241 1.376 . S
C245 C244 1.392 . S
C245 H257 0.929 . S
C246 C242 1.531 . S
C246 H258 0.960 . S
C246 H259 0.962 . S
C246 H260 0.960 . S
C247 C244 1.511 . S
C247 H261 0.961 . S
C247 H262 0.961 . S
C247 H263 0.961 . S
C248 C249 1.370 . S
C248 C250 1.363 . S
C248 H264 0.931 . S
C249 C248 1.370 . S
C249 C253 1.408 . S
C250 C248 1.363 . S
C250 C251 1.370 . S
C250 C254 1.524 . S
C251 C243 1.503 . S
C251 C250 1.370 . S
C251 C252 1.403 . S
C252 C251 1.403 . S
C252 C253 1.404 . S
C252 C255 1.539 . S
C253 C249 1.408 . S
C253 C252 1.404 . S
C253 H265 0.930 . S
C254 C250 1.524 . S
C254 H266 0.956 . S
C254 H267 0.961 . S
C254 H268 0.961 . S
C255 C252 1.539 . S
C255 H269 0.958 . S
C255 H270 0.961 . S
C255 H271 0.960 . S
H256 C240 0.931 . S
H257 C245 0.929 . S
H258 C246 0.960 . S
H259 C246 0.962 . S
H260 C246 0.960 . S
H261 C247 0.961 . S
H262 C247 0.961 . S
H263 C247 0.961 . S
H264 C248 0.931 . S
H265 C253 0.930 . S
H266 C254 0.956 . S
H267 C254 0.961 . S
H268 C254 0.961 . S
H269 C255 0.958 . S
H270 C255 0.961 . S
H271 C255 0.960 . S
C272 C273 1.391 . S
C272 C274 1.394 . S
C272 H288 0.931 . S
C273 C272 1.391 . S
C273 C277 1.376 . S
C274 C272 1.394 . S
C274 C275 1.369 . S
C274 C278 1.531 . S
C275 C274 1.369 . S
C275 C276 1.410 . S
C275 C283 1.503 . S
C276 C275 1.410 . S
C276 C277 1.392 . S
C276 C279 1.511 . S
C277 C273 1.376 . S
C277 C276 1.392 . S
C277 H289 0.929 . S
C278 C274 1.531 . S
C278 H290 0.960 . S
C278 H291 0.962 . S
C278 H292 0.960 . S
C279 C276 1.511 . S
C279 H293 0.961 . S
C279 H294 0.961 . S
C279 H295 0.961 . S
C280 C281 1.370 . S
C280 C282 1.363 . S
C280 H296 0.931 . S
C281 C280 1.370 . S
C281 C285 1.408 . S
C282 C280 1.363 . S
C282 C283 1.370 . S
C282 C286 1.524 . S
C283 C275 1.503 . S
C283 C282 1.370 . S
C283 C284 1.403 . S
C284 C283 1.403 . S
C284 C285 1.404 . S
C284 C287 1.539 . S
C285 C281 1.408 . S
C285 C284 1.404 . S
C285 H297 0.930 . S
C286 C282 1.524 . S
C286 H298 0.956 . S
C286 H299 0.961 . S
C286 H300 0.961 . S
C287 C284 1.539 . S
C287 H301 0.958 . S
C287 H302 0.961 . S
C287 H303 0.960 . S
H288 C272 0.931 . S
H289 C277 0.929 . S
H290 C278 0.960 . S
H291 C278 0.962 . S
H292 C278 0.960 . S
H293 C279 0.961 . S
H294 C279 0.961 . S
H295 C279 0.961 . S
H296 C280 0.931 . S
H297 C285 0.930 . S
H298 C286 0.956 . S
H299 C286 0.961 . S
H300 C286 0.961 . S
H301 C287 0.958 . S
H302 C287 0.961 . S
H303 C287 0.960 . S
C304 C305 1.391 . S
C304 C306 1.394 . S
C304 H320 0.931 . S
C305 C304 1.391 . S
C305 C309 1.376 . S
C306 C304 1.394 . S
C306 C307 1.369 . S
C306 C310 1.531 . S
C307 C306 1.369 . S
C307 C308 1.410 . S
C307 C315 1.503 . S
C308 C307 1.410 . S
C308 C309 1.392 . S
C308 C311 1.511 . S
C309 C305 1.376 . S
C309 C308 1.392 . S
C309 H321 0.929 . S
C310 C306 1.531 . S
C310 H322 0.960 . S
C310 H323 0.962 . S
C310 H324 0.960 . S
C311 C308 1.511 . S
C311 H325 0.961 . S
C311 H326 0.961 . S
C311 H327 0.961 . S
C312 C313 1.370 . S
C312 C314 1.363 . S
C312 H328 0.931 . S
C313 C312 1.370 . S
C313 C317 1.408 . S
C314 C312 1.363 . S
C314 C315 1.370 . S
C314 C318 1.524 . S
C315 C307 1.503 . S
C315 C314 1.370 . S
C315 C316 1.403 . S
C316 C315 1.403 . S
C316 C317 1.404 . S
C316 C319 1.539 . S
C317 C313 1.408 . S
C317 C316 1.404 . S
C317 H329 0.930 . S
C318 C314 1.524 . S
C318 H330 0.956 . S
C318 H331 0.961 . S
C318 H332 0.961 . S
C319 C316 1.539 . S
C319 H333 0.958 . S
C319 H334 0.961 . S
C319 H335 0.960 . S
H320 C304 0.931 . S
H321 C309 0.929 . S
H322 C310 0.960 . S
H323 C310 0.962 . S
H324 C310 0.960 . S
H325 C311 0.961 . S
H326 C311 0.961 . S
H327 C311 0.961 . S
H328 C312 0.931 . S
H329 C317 0.930 . S
H330 C318 0.956 . S
H331 C318 0.961 . S
H332 C318 0.961 . S
H333 C319 0.958 . S
H334 C319 0.961 . S
H335 C319 0.960 . S
C336 C337 1.391 . S
C336 C338 1.394 . S
C336 H352 0.931 . S
C337 C336 1.391 . S
C337 C341 1.376 . S
C338 C336 1.394 . S
C338 C339 1.369 . S
C338 C342 1.531 . S
C339 C338 1.369 . S
C339 C340 1.410 . S
C339 C347 1.503 . S
C340 C339 1.410 . S
C340 C341 1.392 . S
C340 C343 1.511 . S
C341 C337 1.376 . S
C341 C340 1.392 . S
C341 H353 0.929 . S
C342 C338 1.531 . S
C342 H354 0.960 . S
C342 H355 0.962 . S
C342 H356 0.960 . S
C343 C340 1.511 . S
C343 H357 0.961 . S
C343 H358 0.961 . S
C343 H359 0.961 . S
C344 C345 1.370 . S
C344 C346 1.363 . S
C344 H360 0.931 . S
C345 C344 1.370 . S
C345 C349 1.408 . S
C346 C344 1.363 . S
C346 C347 1.370 . S
C346 C350 1.524 . S
C347 C339 1.503 . S
C347 C346 1.370 . S
C347 C348 1.403 . S
C348 C347 1.403 . S
C348 C349 1.404 . S
C348 C351 1.539 . S
C349 C345 1.408 . S
C349 C348 1.404 . S
C349 H361 0.930 . S
C350 C346 1.524 . S
C350 H362 0.956 . S
C350 H363 0.961 . S
C350 H364 0.961 . S
C351 C348 1.539 . S
C351 H365 0.958 . S
C351 H366 0.961 . S
C351 H367 0.960 . S
H352 C336 0.931 . S
H353 C341 0.929 . S
H354 C342 0.960 . S
H355 C342 0.962 . S
H356 C342 0.960 . S
H357 C343 0.961 . S
H358 C343 0.961 . S
H359 C343 0.961 . S
H360 C344 0.931 . S
H361 C349 0.930 . S
H362 C350 0.956 . S
H363 C350 0.961 . S
H364 C350 0.961 . S
H365 C351 0.958 . S
H366 C351 0.961 . S
H367 C351 0.960 . S
C368 C369 1.391 . S
C368 C370 1.394 1_565 S
C368 H384 0.931 . S
C369 C368 1.391 . S
C369 C373 1.376 . S
C370 C368 1.394 1_545 S
C370 C371 1.369 1_545 S
C370 C374 1.531 . S
C371 C370 1.369 1_565 S
C371 C372 1.409 . S
C371 C379 1.504 1_565 S
C372 C371 1.409 . S
C372 C373 1.392 . S
C372 C375 1.511 . S
C373 C369 1.376 . S
C373 C372 1.392 . S
C373 H385 0.929 . S
C374 C370 1.531 . S
C374 H386 0.960 . S
C374 H387 0.962 . S
C374 H388 0.960 . S
C375 C372 1.511 . S
C375 H389 0.961 . S
C375 H390 0.961 . S
C375 H391 0.961 . S
C376 C377 1.370 . S
C376 C378 1.363 1_545 S
C376 H392 0.931 1_545 S
C377 C376 1.370 . S
C377 C381 1.408 . S
C378 C376 1.363 1_565 S
C378 C379 1.370 1_565 S
C378 C382 1.524 . S
C379 C371 1.504 1_545 S
C379 C378 1.370 1_545 S
C379 C380 1.403 . S
C380 C379 1.403 . S
C380 C381 1.404 . S
C380 C383 1.539 . S
C381 C377 1.408 . S
C381 C380 1.404 . S
C381 H393 0.930 . S
C382 C378 1.524 . S
C382 H394 0.956 . S
C382 H395 0.961 . S
C382 H396 0.961 . S
C383 C380 1.539 . S
C383 H397 0.958 . S
C383 H398 0.961 . S
C383 H399 0.960 . S
H384 C368 0.931 . S
H385 C373 0.929 . S
H386 C374 0.960 . S
H387 C374 0.962 . S
H388 C374 0.960 . S
H389 C375 0.961 . S
H390 C375 0.961 . S
H391 C375 0.961 . S
H392 C376 0.931 1_565 S
H393 C381 0.930 . S
H394 C382 0.956 . S
H395 C382 0.961 . S
H396 C382 0.961 . S
H397 C383 0.958 . S
H398 C383 0.961 . S
H399 C383 0.960 . S
C400 C401 1.391 . S
C400 C402 1.394 . S
C400 H416 0.931 . S
C401 C400 1.391 . S
C401 C405 1.376 . S
C402 C400 1.394 . S
C402 C403 1.369 . S
C402 C406 1.531 . S
C403 C402 1.369 . S
C403 C404 1.410 . S
C403 C411 1.503 1_565 S
C404 C403 1.410 . S
C404 C405 1.392 . S
C404 C407 1.511 1_565 S
C405 C401 1.376 . S
C405 C404 1.392 . S
C405 H417 0.929 . S
C406 C402 1.531 . S
C406 H418 0.960 . S
C406 H419 0.962 . S
C406 H420 0.960 . S
C407 C404 1.511 1_545 S
C407 H421 0.961 . S
C407 H422 0.961 . S
C407 H423 0.961 . S
C408 C409 1.370 . S
C408 C410 1.363 . S
C408 H424 0.931 . S
C409 C408 1.370 . S
C409 C413 1.408 1_545 S
C410 C408 1.363 . S
C410 C411 1.370 . S
C410 C414 1.524 . S
C411 C403 1.503 1_545 S
C411 C410 1.370 . S
C411 C412 1.403 1_545 S
C412 C411 1.403 1_565 S
C412 C413 1.404 . S
C412 C415 1.539 . S
C413 C409 1.408 1_565 S
C413 C412 1.404 . S
C413 H425 0.930 . S
C414 C410 1.524 . S
C414 H426 0.956 . S
C414 H427 0.961 . S
C414 H428 0.961 . S
C415 C412 1.539 . S
C415 H429 0.958 . S
C415 H430 0.961 . S
C415 H431 0.960 . S
H416 C400 0.931 . S
H417 C405 0.929 . S
H418 C406 0.960 . S
H419 C406 0.962 . S
H420 C406 0.960 . S
H421 C407 0.961 . S
H422 C407 0.961 . S
H423 C407 0.961 . S
H424 C408 0.931 . S
H425 C413 0.930 . S
H426 C414 0.956 . S
H427 C414 0.961 . S
H428 C414 0.961 . S
H429 C415 0.958 . S
H430 C415 0.961 . S
H431 C415 0.960 . S
C432 C433 1.391 . S
C432 C434 1.394 . S
C432 H448 0.931 . S
C433 C432 1.391 . S
C433 C437 1.376 . S
C434 C432 1.394 . S
C434 C435 1.369 . S
C434 C438 1.531 . S
C435 C434 1.369 . S
C435 C436 1.410 . S
C435 C443 1.503 1_565 S
C436 C435 1.410 . S
C436 C437 1.392 . S
C436 C439 1.511 1_565 S
C437 C433 1.376 . S
C437 C436 1.392 . S
C437 H449 0.929 . S
C438 C434 1.531 . S
C438 H450 0.960 . S
C438 H451 0.962 . S
C438 H452 0.960 . S
C439 C436 1.511 1_545 S
C439 H453 0.961 . S
C439 H454 0.961 . S
C439 H455 0.961 . S
C440 C441 1.370 . S
C440 C442 1.363 . S
C440 H456 0.931 . S
C441 C440 1.370 . S
C441 C445 1.408 . S
C442 C440 1.363 . S
C442 C443 1.370 . S
C442 C446 1.524 . S
C443 C435 1.503 1_545 S
C443 C442 1.370 . S
C443 C444 1.403 1_545 S
C444 C443 1.403 1_565 S
C444 C445 1.404 1_565 S
C444 C447 1.539 . S
C445 C441 1.408 . S
C445 C444 1.404 1_545 S
C445 H457 0.930 1_545 S
C446 C442 1.524 . S
C446 H458 0.956 . S
C446 H459 0.961 . S
C446 H460 0.961 . S
C447 C444 1.539 . S
C447 H461 0.958 . S
C447 H462 0.961 . S
C447 H463 0.960 . S
H448 C432 0.931 . S
H449 C437 0.929 . S
H450 C438 0.960 . S
H451 C438 0.962 . S
H452 C438 0.960 . S
H453 C439 0.961 . S
H454 C439 0.961 . S
H455 C439 0.961 . S
H456 C440 0.931 . S
H457 C445 0.930 1_565 S
H458 C446 0.956 . S
H459 C446 0.961 . S
H460 C446 0.961 . S
H461 C447 0.958 . S
H462 C447 0.961 . S
H463 C447 0.960 . S
C464 C465 1.391 . S
C464 C466 1.394 . S
C464 H480 0.931 . S
C465 C464 1.391 . S
C465 C469 1.376 . S
C466 C464 1.394 . S
C466 C467 1.369 . S
C466 C470 1.531 1_565 S
C467 C466 1.369 . S
C467 C468 1.410 . S
C467 C475 1.503 1_565 S
C468 C467 1.410 . S
C468 C469 1.392 . S
C468 C471 1.511 . S
C469 C465 1.376 . S
C469 C468 1.392 . S
C469 H481 0.929 . S
C470 C466 1.531 1_545 S
C470 H482 0.960 1_545 S
C470 H483 0.962 . S
C470 H484 0.960 1_545 S
C471 C468 1.511 . S
C471 H485 0.961 . S
C471 H486 0.961 . S
C471 H487 0.961 . S
C472 C473 1.370 . S
C472 C474 1.363 . S
C472 H488 0.931 . S
C473 C472 1.370 . S
C473 C477 1.408 1_545 S
C474 C472 1.363 . S
C474 C475 1.370 . S
C474 C478 1.524 . S
C475 C467 1.503 1_545 S
C475 C474 1.370 . S
C475 C476 1.403 1_545 S
C476 C475 1.403 1_565 S
C476 C477 1.404 . S
C476 C479 1.539 . S
C477 C473 1.408 1_565 S
C477 C476 1.404 . S
C477 H489 0.930 . S
C478 C474 1.524 . S
C478 H490 0.956 . S
C478 H491 0.961 . S
C478 H492 0.961 . S
C479 C476 1.539 . S
C479 H493 0.958 . S
C479 H494 0.961 . S
C479 H495 0.960 . S
H480 C464 0.931 . S
H481 C469 0.929 . S
H482 C470 0.960 1_565 S
H483 C470 0.962 . S
H484 C470 0.960 1_565 S
H485 C471 0.961 . S
H486 C471 0.961 . S
H487 C471 0.961 . S
H488 C472 0.931 . S
H489 C477 0.930 . S
H490 C478 0.956 . S
H491 C478 0.961 . S
H492 C478 0.961 . S
H493 C479 0.958 . S
H494 C479 0.961 . S
H495 C479 0.960 . S
C496 C497 1.391 . S
C496 C498 1.394 . S
C496 H512 0.931 . S
C497 C496 1.391 . S
C497 C501 1.376 1_554 S
C498 C496 1.394 . S
C498 C499 1.369 . S
C498 C502 1.531 . S
C499 C498 1.369 . S
C499 C500 1.410 1_554 S
C499 C507 1.503 1_565 S
C500 C499 1.410 1_556 S
C500 C501 1.392 . S
C500 C503 1.511 1_565 S
C501 C497 1.376 1_556 S
C501 C500 1.392 . S
C501 H513 0.929 . S
C502 C498 1.531 . S
C502 H514 0.960 . S
C502 H515 0.962 . S
C502 H516 0.960 . S
C503 C500 1.511 1_545 S
C503 H517 0.961 . S
C503 H518 0.961 . S
C503 H519 0.961 . S
C504 C505 1.370 . S
C504 C506 1.363 . S
C504 H520 0.931 . S
C505 C504 1.370 . S
C505 C509 1.408 1_554 S
C506 C504 1.363 . S
C506 C507 1.370 . S
C506 C510 1.524 . S
C507 C499 1.503 1_545 S
C507 C506 1.370 . S
C507 C508 1.403 1_554 S
C508 C507 1.403 1_556 S
C508 C509 1.404 . S
C508 C511 1.539 1_545 S
C509 C505 1.408 1_556 S
C509 C508 1.404 . S
C509 H521 0.930 . S
C510 C506 1.524 . S
C510 H522 0.956 . S
C510 H523 0.961 . S
C510 H524 0.961 . S
C511 C508 1.539 1_565 S
C511 H525 0.958 . S
C511 H526 0.961 1_565 S
C511 H527 0.960 . S
H512 C496 0.931 . S
H513 C501 0.929 . S
H514 C502 0.960 . S
H515 C502 0.962 . S
H516 C502 0.960 . S
H517 C503 0.961 . S
H518 C503 0.961 . S
H519 C503 0.961 . S
H520 C504 0.931 . S
H521 C509 0.930 . S
H522 C510 0.956 . S
H523 C510 0.961 . S
H524 C510 0.961 . S
H525 C511 0.958 . S
H526 C511 0.961 1_545 S
H527 C511 0.960 . S
C528 C529 1.391 . S
C528 C530 1.394 . S
C528 H544 0.931 . S
C529 C528 1.391 . S
C529 C533 1.376 . S
C530 C528 1.394 . S
C530 C531 1.369 . S
C530 C534 1.531 1_565 S
C531 C530 1.369 . S
C531 C532 1.410 . S
C531 C539 1.503 1_565 S
C532 C531 1.410 . S
C532 C533 1.392 . S
C532 C535 1.511 . S
C533 C529 1.376 . S
C533 C532 1.392 . S
C533 H545 0.929 . S
C534 C530 1.531 1_545 S
C534 H546 0.960 . S
C534 H547 0.962 . S
C534 H548 0.960 1_545 S
C535 C532 1.511 . S
C535 H549 0.961 . S
C535 H550 0.961 . S
C535 H551 0.961 . S
C536 C537 1.370 . S
C536 C538 1.363 . S
C536 H552 0.931 . S
C537 C536 1.370 . S
C537 C541 1.408 . S
C538 C536 1.363 . S
C538 C539 1.370 . S
C538 C542 1.524 . S
C539 C531 1.503 1_545 S
C539 C538 1.370 . S
C539 C540 1.403 . S
C540 C539 1.403 . S
C540 C541 1.404 . S
C540 C543 1.539 1_545 S
C541 C537 1.408 . S
C541 C540 1.404 . S
C541 H553 0.930 . S
C542 C538 1.524 . S
C542 H554 0.956 . S
C542 H555 0.961 . S
C542 H556 0.961 . S
C543 C540 1.539 1_565 S
C543 H557 0.958 . S
C543 H558 0.961 . S
C543 H559 0.960 . S
H544 C528 0.931 . S
H545 C533 0.929 . S
H546 C534 0.960 . S
H547 C534 0.962 . S
H548 C534 0.960 1_565 S
H549 C535 0.961 . S
H550 C535 0.961 . S
H551 C535 0.961 . S
H552 C536 0.931 . S
H553 C541 0.930 . S
H554 C542 0.956 . S
H555 C542 0.961 . S
H556 C542 0.961 . S
H557 C543 0.958 . S
H558 C543 0.961 . S
H559 C543 0.960 . S
C560 C561 1.391 . S
C560 C562 1.394 . S
C560 H576 0.931 . S
C561 C560 1.391 . S
C561 C565 1.376 . S
C562 C560 1.394 . S
C562 C563 1.369 . S
C562 C566 1.531 . S
C563 C562 1.369 . S
C563 C564 1.410 . S
C563 C571 1.503 1_455 S
C564 C563 1.410 . S
C564 C565 1.392 . S
C564 C567 1.511 1_455 S
C565 C561 1.376 . S
C565 C564 1.392 . S
C565 H577 0.929 . S
C566 C562 1.531 . S
C566 H578 0.960 . S
C566 H579 0.962 1_554 S
C566 H580 0.960 . S
C567 C564 1.511 1_655 S
C567 H581 0.961 . S
C567 H582 0.961 . S
C567 H583 0.961 . S
C568 C569 1.370 1_556 S
C568 C570 1.363 . S
C568 H584 0.931 . S
C569 C568 1.370 1_554 S
C569 C573 1.408 . S
C570 C568 1.363 . S
C570 C571 1.370 1_556 S
C570 C574 1.524 . S
C571 C563 1.503 1_655 S
C571 C570 1.370 1_554 S
C571 C572 1.403 . S
C572 C571 1.403 . S
C572 C573 1.404 . S
C572 C575 1.539 . S
C573 C569 1.408 . S
C573 C572 1.404 . S
C573 H585 0.930 . S
C574 C570 1.524 . S
C574 H586 0.956 1_655 S
C574 H587 0.961 . S
C574 H588 0.961 . S
C575 C572 1.539 . S
C575 H589 0.972 . S
C575 H590 0.961 . S
C575 H591 0.960 . S
H576 C560 0.931 . S
H577 C565 0.929 . S
H578 C566 0.960 . S
H579 C566 0.962 1_556 S
H580 C566 0.960 . S
H581 C567 0.961 . S
H582 C567 0.961 . S
H583 C567 0.961 . S
H584 C568 0.931 . S
H585 C573 0.930 . S
H586 C574 0.956 1_455 S
H587 C574 0.961 . S
H588 C574 0.961 . S
H589 C575 0.972 . S
H590 C575 0.961 . S
H591 C575 0.960 . S
C592 C593 1.391 . S
C592 C594 1.394 . S
C592 H608 0.931 . S
C593 C592 1.391 . S
C593 C597 1.376 . S
C594 C592 1.394 . S
C594 C595 1.369 . S
C594 C598 1.531 1_455 S
C595 C594 1.369 . S
C595 C596 1.410 . S
C595 C603 1.503 1_455 S
C596 C595 1.410 . S
C596 C597 1.392 . S
C596 C599 1.511 . S
C597 C593 1.376 . S
C597 C596 1.392 . S
C597 H609 0.929 . S
C598 C594 1.531 1_655 S
C598 H610 0.960 . S
C598 H611 0.962 . S
C598 H612 0.960 . S
C599 C596 1.511 . S
C599 H613 0.961 . S
C599 H614 0.961 . S
C599 H615 0.961 . S
C600 C601 1.370 . S
C600 C602 1.363 . S
C600 H616 0.931 . S
C601 C600 1.370 . S
C601 C605 1.408 . S
C602 C600 1.363 . S
C602 C603 1.370 . S
C602 C606 1.524 1_655 S
C603 C595 1.503 1_655 S
C603 C602 1.370 . S
C603 C604 1.403 . S
C604 C603 1.403 . S
C604 C605 1.404 . S
C604 C607 1.539 . S
C605 C601 1.408 . S
C605 C604 1.404 . S
C605 H617 0.930 . S
C606 C602 1.524 1_455 S
C606 H618 0.956 . S
C606 H619 0.961 . S
C606 H620 0.961 . S
C607 C604 1.539 . S
C607 H621 0.958 . S
C607 H622 0.961 . S
C607 H623 0.960 . S
H608 C592 0.931 . S
H609 C597 0.929 . S
H610 C598 0.960 . S
H611 C598 0.962 . S
H612 C598 0.960 . S
H613 C599 0.961 . S
H614 C599 0.961 . S
H615 C599 0.961 . S
H616 C600 0.931 . S
H617 C605 0.930 . S
H618 C606 0.956 . S
H619 C606 0.961 . S
H620 C606 0.961 . S
H621 C607 0.958 . S
H622 C607 0.961 . S
H623 C607 0.960 . S
C113 C79 1.495 . S
C121 C9 1.474 . S
C145 C65 1.470 . S
C153 C23 1.485 . S
C177 C107 1.460 . S
C185 C37 1.484 . S
C209 C93 1.483 . S
C217 C51 1.480 . S
C241 C3 1.385 . S
C249 C31 1.406 . S
C273 C17 1.385 . S
C281 C45 1.406 . S
C305 C21 1.355 . S
C313 C49 1.380 . S
C337 C7 1.399 . S
C345 C35 1.394 . S
C369 C59 1.411 . S
C377 C87 1.399 . S
C401 C101 1.385 . S
C409 C73 1.405 . S
C433 C105 1.405 . S
C441 C77 1.386 . S
C465 C63 1.389 . S
C473 C91 1.377 . S
C497 C22 1.500 . S
C505 C8 1.499 . S
C529 C36 1.497 . S
C537 C50 1.494 . S
C561 C64 1.489 . S
C569 C78 1.495 . S
C593 C92 1.501 . S
C601 C106 1.498 . S
