# Generated by pormake.
# Topology pcb, (4)-cn, num edge types: 1
# Building blocks:
#     Node 0, Type 0, BuildingBlock: TATPOV_clean_sbu_0, # of connection points: 4
#     Node 1, Type 0, BuildingBlock: TATPOV_clean_sbu_0, # of connection points: 4
#     Node 2, Type 0, BuildingBlock: TATPOV_clean_sbu_0, # of connection points: 4
#     Node 3, Type 0, BuildingBlock: TATPOV_clean_sbu_0, # of connection points: 4
#     Node 4, Type 0, BuildingBlock: TATPOV_clean_sbu_0, # of connection points: 4
#     Node 5, Type 0, BuildingBlock: TATPOV_clean_sbu_0, # of connection points: 4
#     Node 6, Type 0, BuildingBlock: TATPOV_clean_sbu_0, # of connection points: 4
#     Node 7, Type 0, BuildingBlock: TATPOV_clean_sbu_0, # of connection points: 4
#     Node 8, Type 0, BuildingBlock: TATPOV_clean_sbu_0, # of connection points: 4
#     Node 9, Type 0, BuildingBlock: TATPOV_clean_sbu_0, # of connection points: 4
#     Node 10, Type 0, BuildingBlock: TATPOV_clean_sbu_0, # of connection points: 4
#     Node 11, Type 0, BuildingBlock: TATPOV_clean_sbu_0, # of connection points: 4
#     Node 12, Type 0, BuildingBlock: TATPOV_clean_sbu_0, # of connection points: 4
#     Node 13, Type 0, BuildingBlock: TATPOV_clean_sbu_0, # of connection points: 4
#     Node 14, Type 0, BuildingBlock: TATPOV_clean_sbu_0, # of connection points: 4
#     Node 15, Type 0, BuildingBlock: TATPOV_clean_sbu_0, # of connection points: 4
#     Edge 16, Type (0, 0), BuildingBlock: XUDNAN_clean_linker_2, # of connection points: 2
#     Edge 17, Type (0, 0), BuildingBlock: XUDNAN_clean_linker_2, # of connection points: 2
#     Edge 18, Type (0, 0), BuildingBlock: XUDNAN_clean_linker_2, # of connection points: 2
#     Edge 19, Type (0, 0), BuildingBlock: XUDNAN_clean_linker_2, # of connection points: 2
#     Edge 20, Type (0, 0), BuildingBlock: XUDNAN_clean_linker_2, # of connection points: 2
#     Edge 21, Type (0, 0), BuildingBlock: XUDNAN_clean_linker_2, # of connection points: 2
#     Edge 22, Type (0, 0), BuildingBlock: XUDNAN_clean_linker_2, # of connection points: 2
#     Edge 23, Type (0, 0), BuildingBlock: XUDNAN_clean_linker_2, # of connection points: 2
#     Edge 24, Type (0, 0), BuildingBlock: XUDNAN_clean_linker_2, # of connection points: 2
#     Edge 25, Type (0, 0), BuildingBlock: XUDNAN_clean_linker_2, # of connection points: 2
#     Edge 26, Type (0, 0), BuildingBlock: XUDNAN_clean_linker_2, # of connection points: 2
#     Edge 27, Type (0, 0), BuildingBlock: XUDNAN_clean_linker_2, # of connection points: 2
#     Edge 28, Type (0, 0), BuildingBlock: XUDNAN_clean_linker_2, # of connection points: 2
#     Edge 29, Type (0, 0), BuildingBlock: XUDNAN_clean_linker_2, # of connection points: 2
#     Edge 30, Type (0, 0), BuildingBlock: XUDNAN_clean_linker_2, # of connection points: 2
#     Edge 31, Type (0, 0), BuildingBlock: XUDNAN_clean_linker_2, # of connection points: 2
#     Edge 32, Type (0, 0), BuildingBlock: XUDNAN_clean_linker_2, # of connection points: 2
#     Edge 33, Type (0, 0), BuildingBlock: XUDNAN_clean_linker_2, # of connection points: 2
#     Edge 34, Type (0, 0), BuildingBlock: XUDNAN_clean_linker_2, # of connection points: 2
#     Edge 35, Type (0, 0), BuildingBlock: XUDNAN_clean_linker_2, # of connection points: 2
#     Edge 36, Type (0, 0), BuildingBlock: XUDNAN_clean_linker_2, # of connection points: 2
#     Edge 37, Type (0, 0), BuildingBlock: XUDNAN_clean_linker_2, # of connection points: 2
#     Edge 38, Type (0, 0), BuildingBlock: XUDNAN_clean_linker_2, # of connection points: 2
#     Edge 39, Type (0, 0), BuildingBlock: XUDNAN_clean_linker_2, # of connection points: 2
#     Edge 40, Type (0, 0), BuildingBlock: XUDNAN_clean_linker_2, # of connection points: 2
#     Edge 41, Type (0, 0), BuildingBlock: XUDNAN_clean_linker_2, # of connection points: 2
#     Edge 42, Type (0, 0), BuildingBlock: XUDNAN_clean_linker_2, # of connection points: 2
#     Edge 43, Type (0, 0), BuildingBlock: XUDNAN_clean_linker_2, # of connection points: 2
#     Edge 44, Type (0, 0), BuildingBlock: XUDNAN_clean_linker_2, # of connection points: 2
#     Edge 45, Type (0, 0), BuildingBlock: XUDNAN_clean_linker_2, # of connection points: 2
#     Edge 46, Type (0, 0), BuildingBlock: XUDNAN_clean_linker_2, # of connection points: 2
#     Edge 47, Type (0, 0), BuildingBlock: XUDNAN_clean_linker_2, # of connection points: 2
# Relax obj value: 0.184
# Max RMSD: 0.079
# Mean RMSD: 0.079
data_MOF--net-pcb--node1-TATPOV_clean_sbu_0--edge1-XUDNAN_clean_linker_2
_symmetry_space_group_name_H-M    P1
_symmetry_Int_Tables_number       1
_symmetry_cell_setting            triclinic
loop_
_symmetry_equiv_pos_as_xyz
'x, y, z'
_cell_length_a     47.219858
_cell_length_b     46.199467
_cell_length_c     46.241074
_cell_angle_alpha  89.871159
_cell_angle_beta   89.952136
_cell_angle_gamma 90.021762
loop_
_atom_site_label
_atom_site_type_symbol
_atom_site_fract_x
_atom_site_fract_y
_atom_site_fract_z
_atom_type_partial_charge
Zn0 Zn 0.10679 0.11605 0.18818 0.0
Zn1 Zn 0.14903 0.15308 0.19679 0.0
O2 O 0.11363 0.17188 0.21502 0.0
O3 O 0.07958 0.13961 0.21185 0.0
O4 O 0.17874 0.18168 0.20819 0.0
O5 O 0.12889 0.08391 0.20708 0.0
O6 O 0.16478 0.11402 0.21159 0.0
C7 C 0.08817 0.16422 0.21996 0.0
C8 C 0.13107 0.14221 0.13542 0.0
O9 O 0.14794 0.15464 0.15287 0.0
O10 O 0.11197 0.12533 0.14499 0.0
C11 C 0.17902 0.20693 0.19723 0.0
O12 O 0.16065 0.21355 0.17695 0.0
C13 C 0.15414 0.08886 0.21471 0.0
Zn14 Zn 0.8973 0.17404 0.14114 0.0
Zn15 Zn 0.85478 0.19354 0.16786 0.0
O16 O 0.8901 0.21235 0.18682 0.0
O17 O 0.92352 0.20533 0.15463 0.0
O18 O 0.82317 0.21011 0.19152 0.0
O19 O 0.87692 0.17734 0.10361 0.0
O20 O 0.84393 0.20309 0.12518 0.0
C21 C 0.91523 0.21687 0.17787 0.0
C22 C 0.87091 0.13053 0.17512 0.0
O23 O 0.8519 0.14999 0.17661 0.0
O24 O 0.89439 0.13626 0.16315 0.0
C25 C 0.82005 0.2006 0.21714 0.0
O26 O 0.83745 0.18067 0.2269 0.0
C27 C 0.85455 0.19229 0.10225 0.0
Zn28 Zn 0.88101 0.9004 0.10066 0.0
Zn29 Zn 0.86354 0.86457 0.14043 0.0
O30 O 0.90625 0.8552 0.13763 0.0
O31 O 0.91892 0.88052 0.09941 0.0
O32 O 0.84839 0.8351 0.16842 0.0
O33 O 0.87634 0.93299 0.12839 0.0
O34 O 0.85536 0.90416 0.15986 0.0
C35 C 0.92509 0.86276 0.11932 0.0
C36 C 0.83575 0.86718 0.08006 0.0
O37 O 0.84027 0.85435 0.104 0.0
O38 O 0.84953 0.88972 0.0735 0.0
C39 C 0.85218 0.80857 0.16229 0.0
O40 O 0.86712 0.80193 0.13926 0.0
C41 C 0.86374 0.92928 0.15224 0.0
Zn42 Zn 0.18296 0.88473 0.10718 0.0
Zn43 Zn 0.19174 0.84356 0.14588 0.0
O44 O 0.14881 0.84068 0.14378 0.0
O45 O 0.14098 0.87355 0.11016 0.0
O46 O 0.20418 0.81254 0.17365 0.0
O47 O 0.20772 0.86612 0.07736 0.0
O48 O 0.20979 0.82941 0.10761 0.0
C49 C 0.13171 0.85443 0.12753 0.0
C50 C 0.20615 0.90793 0.15831 0.0
O51 O 0.20434 0.88151 0.16615 0.0
O52 O 0.199 0.91529 0.13299 0.0
C53 C 0.18874 0.8002 0.19253 0.0
O54 O 0.16208 0.80786 0.19521 0.0
C55 C 0.21541 0.84055 0.08304 0.0
Zn56 Zn 0.10706 0.82051 0.88223 0.0
Zn57 Zn 0.14326 0.81034 0.83999 0.0
O58 O 0.10635 0.78961 0.82671 0.0
O59 O 0.0779 0.79512 0.864 0.0
O60 O 0.1715 0.7984 0.81005 0.0
O61 O 0.10999 0.86314 0.87079 0.0
O62 O 0.14102 0.8543 0.83634 0.0
C63 C 0.08262 0.785 0.83906 0.0
C64 C 0.15707 0.79601 0.90418 0.0
O65 O 0.1638 0.79784 0.87756 0.0
O66 O 0.13271 0.80377 0.91246 0.0
C67 C 0.18007 0.77237 0.81139 0.0
O68 O 0.16939 0.75514 0.83125 0.0
C69 C 0.12611 0.87215 0.85072 0.0
Zn70 Zn 0.07714 0.12869 0.87822 0.0
Zn71 Zn 0.12658 0.14733 0.85993 0.0
O72 O 0.09757 0.17299 0.83803 0.0
O73 O 0.05639 0.15497 0.85133 0.0
O74 O 0.16271 0.16356 0.84345 0.0
O75 O 0.08704 0.14066 0.91865 0.0
O76 O 0.12943 0.15424 0.90414 0.0
C77 C 0.07068 0.17267 0.83642 0.0
C78 C 0.10963 0.08318 0.85353 0.0
O79 O 0.12735 0.10359 0.84909 0.0
O80 O 0.08626 0.08852 0.8658 0.0
C81 C 0.18526 0.14954 0.83818 0.0
O82 O 0.18674 0.122 0.84514 0.0
C83 C 0.11145 0.1504 0.92442 0.0
Zn84 Zn 0.88555 0.15164 0.86241 0.0
Zn85 Zn 0.84275 0.16932 0.83353 0.0
O86 O 0.8756 0.19324 0.81555 0.0
O87 O 0.90997 0.18286 0.84595 0.0
O88 O 0.80961 0.18199 0.80971 0.0
O89 O 0.88473 0.11237 0.84444 0.0
O90 O 0.84428 0.12523 0.82485 0.0
C91 C 0.90077 0.19712 0.82459 0.0
C92 C 0.84256 0.17205 0.89965 0.0
O93 O 0.8314 0.18008 0.87583 0.0
O94 O 0.8654 0.1578 0.89962 0.0
C95 C 0.7988 0.20695 0.81275 0.0
O96 O 0.80914 0.22448 0.83242 0.0
C97 C 0.863 0.10596 0.82983 0.0
Zn98 Zn 0.88007 0.84833 0.86192 0.0
Zn99 Zn 0.83939 0.83297 0.82642 0.0
O100 O 0.87366 0.80753 0.81303 0.0
O101 O 0.90643 0.81996 0.84458 0.0
O102 O 0.80794 0.82112 0.79989 0.0
O103 O 0.85735 0.83574 0.89606 0.0
O104 O 0.8222 0.82442 0.86688 0.0
C105 C 0.89859 0.80486 0.8233 0.0
C106 C 0.85968 0.89594 0.82798 0.0
O107 O 0.8431 0.87662 0.81802 0.0
O108 O 0.87795 0.88929 0.84689 0.0
C109 C 0.80057 0.79476 0.79796 0.0
O110 O 0.81418 0.77517 0.81319 0.0
C111 C 0.83251 0.82628 0.89226 0.0
Zn112 Zn 0.64653 0.61999 0.58441 0.0
Zn113 Zn 0.66179 0.65134 0.62857 0.0
O114 O 0.61834 0.64959 0.63442 0.0
O115 O 0.60652 0.61973 0.59944 0.0
O116 O 0.67584 0.67561 0.6614 0.0
O117 O 0.67315 0.58826 0.59603 0.0
O118 O 0.68129 0.612 0.6363 0.0
C119 C 0.59958 0.63489 0.6211 0.0
C120 C 0.67179 0.67206 0.56592 0.0
O121 O 0.67553 0.67518 0.593 0.0
O122 O 0.6587 0.65029 0.55624 0.0
C123 C 0.66944 0.70226 0.66296 0.0
O124 O 0.65228 0.71341 0.64356 0.0
C125 C 0.68458 0.58951 0.62074 0.0
Zn126 Zn 0.34574 0.59545 0.60025 0.0
Zn127 Zn 0.33223 0.63574 0.63851 0.0
O128 O 0.37487 0.63314 0.64599 0.0
O129 O 0.38649 0.59995 0.61403 0.0
O130 O 0.31842 0.66669 0.66531 0.0
O131 O 0.33157 0.61969 0.56732 0.0
O132 O 0.32382 0.65445 0.5988 0.0
C133 C 0.39362 0.61763 0.63368 0.0
C134 C 0.30586 0.57431 0.64091 0.0
O135 O 0.30901 0.59959 0.65141 0.0
O136 O 0.31928 0.56697 0.61841 0.0
C137 C 0.31119 0.66148 0.69126 0.0
O138 O 0.31421 0.63518 0.70168 0.0
C139 C 0.32396 0.64533 0.57283 0.0
Zn140 Zn 0.33962 0.3575 0.65446 0.0
Zn141 Zn 0.31364 0.32389 0.6841 0.0
O142 O 0.35507 0.32213 0.69978 0.0
O143 O 0.37133 0.363 0.68232 0.0
O144 O 0.2937 0.29484 0.70949 0.0
O145 O 0.30809 0.38597 0.6532 0.0
O146 O 0.29272 0.36312 0.69178 0.0
C147 C 0.37451 0.34125 0.69859 0.0
C148 C 0.32522 0.31069 0.62084 0.0
O149 O 0.30855 0.30722 0.64231 0.0
O150 O 0.34437 0.32973 0.62201 0.0
C151 C 0.30492 0.27003 0.71278 0.0
O152 O 0.32859 0.26413 0.69904 0.0
C153 C 0.29162 0.38482 0.67471 0.0
Zn154 Zn 0.59627 0.37946 0.63141 0.0
Zn155 Zn 0.62735 0.33876 0.65225 0.0
O156 O 0.5897 0.33517 0.67521 0.0
O157 O 0.56724 0.37486 0.66254 0.0
O158 O 0.65101 0.30753 0.67015 0.0
O159 O 0.59239 0.35811 0.59393 0.0
O160 O 0.62503 0.32763 0.60892 0.0
C161 C 0.56863 0.3522 0.67786 0.0
C162 C 0.64917 0.40103 0.64998 0.0
O163 O 0.65175 0.37536 0.65968 0.0
O164 O 0.62757 0.4082 0.63553 0.0
C165 C 0.65918 0.31161 0.69599 0.0
O166 O 0.65156 0.33544 0.70936 0.0
C167 C 0.60884 0.33708 0.58895 0.0
Zn168 Zn 0.58906 0.38369 0.33632 0.0
Zn169 Zn 0.63237 0.35442 0.31951 0.0
O170 O 0.5988 0.33799 0.29599 0.0
O171 O 0.56502 0.36973 0.30342 0.0
O172 O 0.66447 0.32978 0.30552 0.0
O173 O 0.61118 0.4203 0.33328 0.0
O174 O 0.64581 0.39667 0.31191 0.0
C175 C 0.57394 0.34729 0.29073 0.0
C176 C 0.61035 0.34768 0.38127 0.0
O177 O 0.63006 0.34406 0.36282 0.0
O178 O 0.58876 0.36249 0.37456 0.0
C179 C 0.66597 0.30383 0.31459 0.0
O180 O 0.64676 0.29423 0.3328 0.0
C181 C 0.63504 0.42033 0.32085 0.0
Zn182 Zn 0.63223 0.6726 0.34601 0.0
Zn183 Zn 0.67223 0.68988 0.31412 0.0
O184 O 0.63642 0.70496 0.29206 0.0
O185 O 0.60314 0.68256 0.31689 0.0
O186 O 0.70469 0.70489 0.28991 0.0
O187 O 0.64088 0.69997 0.37786 0.0
O188 O 0.68077 0.70778 0.3547 0.0
C189 C 0.61049 0.69811 0.29569 0.0
C190 C 0.66584 0.62546 0.32893 0.0
O191 O 0.67675 0.64508 0.313 0.0
O192 O 0.64711 0.63217 0.34729 0.0
C193 C 0.71769 0.68949 0.27141 0.0
O194 O 0.70972 0.66259 0.26726 0.0
C195 C 0.66529 0.71116 0.37708 0.0
Zn196 Zn 0.41209 0.65133 0.35635 0.0
Zn197 Zn 0.36845 0.66341 0.32263 0.0
O198 O 0.40254 0.68169 0.3007 0.0
O199 O 0.4389 0.66741 0.32697 0.0
O200 O 0.33537 0.67579 0.29842 0.0
O201 O 0.40065 0.60913 0.35435 0.0
O202 O 0.36676 0.61885 0.32312 0.0
C203 C 0.42915 0.68033 0.30502 0.0
C204 C 0.37145 0.68533 0.38549 0.0
O205 O 0.3579 0.68044 0.36224 0.0
O206 O 0.39677 0.67681 0.38819 0.0
C207 C 0.31003 0.67211 0.30698 0.0
O208 O 0.30539 0.65835 0.33143 0.0
C209 C 0.38082 0.60056 0.338 0.0
Zn210 Zn 0.39443 0.33907 0.38656 0.0
Zn211 Zn 0.3478 0.32706 0.35705 0.0
O212 O 0.37996 0.30917 0.3327 0.0
O213 O 0.41811 0.31561 0.35921 0.0
O214 O 0.31429 0.31537 0.33334 0.0
O215 O 0.37828 0.31985 0.4217 0.0
O216 O 0.33925 0.30983 0.39774 0.0
C217 C 0.40635 0.30557 0.33682 0.0
C218 C 0.3657 0.39002 0.36436 0.0
O219 O 0.34794 0.37143 0.35518 0.0
O220 O 0.38735 0.38177 0.37833 0.0
C221 C 0.30938 0.3276 0.30921 0.0
O222 O 0.32537 0.34937 0.30091 0.0
C223 C 0.35379 0.30875 0.42096 0.0
H224 H 0.28307 0.27515 0.31359 0.0
H225 H 0.28812 0.35203 0.25968 0.0
H226 H 0.25487 0.32975 0.22491 0.0
H227 H 0.28277 0.22464 0.25612 0.0
H228 H 0.25857 0.2 0.2736 0.0
H229 H 0.28127 0.22274 0.29504 0.0
H230 H 0.23755 0.24348 0.32188 0.0
H231 H 0.21472 0.2206 0.30072 0.0
H232 H 0.20899 0.25916 0.30129 0.0
H233 H 0.22145 0.29839 0.19573 0.0
H234 H 0.19088 0.26048 0.17449 0.0
H235 H 0.20993 0.20393 0.24701 0.0
C236 C 0.27691 0.28752 0.29469 0.0
C237 C 0.28801 0.3154 0.2894 0.0
C238 C 0.27978 0.33065 0.26417 0.0
C239 C 0.26093 0.31818 0.24431 0.0
C240 C 0.25073 0.29042 0.24998 0.0
C241 C 0.25846 0.27531 0.27457 0.0
C242 C 0.24542 0.24544 0.2752 0.0
C243 C 0.26838 0.22182 0.27497 0.0
C244 C 0.22548 0.24198 0.30132 0.0
C245 C 0.22914 0.24604 0.2471 0.0
C246 C 0.23229 0.27219 0.2329 0.0
C247 C 0.21887 0.27781 0.20664 0.0
C248 C 0.2016 0.25616 0.19475 0.0
C249 C 0.19817 0.22922 0.20902 0.0
C250 C 0.21232 0.22418 0.23542 0.0
H251 H 0.70011 0.31099 0.26723 0.0
H252 H 0.68305 0.25297 0.33916 0.0
H253 H 0.72103 0.22037 0.32224 0.0
H254 H 0.71307 0.25525 0.21495 0.0
H255 H 0.74065 0.27505 0.19659 0.0
H256 H 0.71273 0.29427 0.21486 0.0
H257 H 0.74997 0.3222 0.24508 0.0
H258 H 0.77801 0.30309 0.22688 0.0
H259 H 0.77579 0.30227 0.26579 0.0
H260 H 0.7613 0.19467 0.29807 0.0
H261 H 0.7997 0.17627 0.26685 0.0
H262 H 0.78892 0.25004 0.20956 0.0
C263 C 0.70448 0.29151 0.27951 0.0
C264 C 0.68879 0.28454 0.30458 0.0
C265 C 0.69485 0.25868 0.31987 0.0
C266 C 0.71639 0.24008 0.31048 0.0
C267 C 0.73142 0.24756 0.28564 0.0
C268 C 0.72563 0.27253 0.27025 0.0
C269 C 0.74436 0.27513 0.2438 0.0
C270 C 0.72664 0.2749 0.2159 0.0
C271 C 0.76315 0.30228 0.24551 0.0
C272 C 0.76169 0.24776 0.24682 0.0
C273 C 0.75403 0.23227 0.2712 0.0
C274 C 0.76742 0.20652 0.27884 0.0
C275 C 0.78922 0.1963 0.26102 0.0
C276 C 0.79716 0.21168 0.23575 0.0
C277 C 0.78313 0.2377 0.22861 0.0
H278 H 0.81491 0.81525 0.20738 0.0
H279 H 0.85554 0.75005 0.15407 0.0
H280 H 0.8274 0.71206 0.17826 0.0
H281 H 0.80928 0.7708 0.27346 0.0
H282 H 0.77517 0.78562 0.28276 0.0
H283 H 0.80043 0.80734 0.2631 0.0
H284 H 0.76321 0.81605 0.22285 0.0
H285 H 0.73794 0.79422 0.24223 0.0
H286 H 0.74691 0.78543 0.20539 0.0
H287 H 0.79206 0.68173 0.20519 0.0
H288 H 0.75314 0.66098 0.23426 0.0
H289 H 0.73579 0.74594 0.27018 0.0
C290 C 0.81829 0.79294 0.20114 0.0
C291 C 0.83748 0.78563 0.17885 0.0
C292 C 0.84102 0.75619 0.17112 0.0
C293 C 0.82514 0.73443 0.18475 0.0
C294 C 0.80595 0.74245 0.20617 0.0
C295 C 0.80263 0.77096 0.21451 0.0
C296 C 0.77961 0.77397 0.23711 0.0
C297 C 0.79186 0.78509 0.26581 0.0
C298 C 0.7555 0.79357 0.22623 0.0
C299 C 0.77008 0.74279 0.2397 0.0
C300 C 0.78564 0.72493 0.22179 0.0
C301 C 0.77993 0.69544 0.21955 0.0
C302 C 0.75771 0.68388 0.23606 0.0
C303 C 0.74146 0.7018 0.25455 0.0
C304 C 0.74794 0.73161 0.25643 0.0
H305 H 0.31331 0.7048 0.25771 0.0
H306 H 0.25348 0.67145 0.32089 0.0
H307 H 0.21497 0.69861 0.29688 0.0
H308 H 0.2861 0.775 0.25456 0.0
H309 H 0.29204 0.77973 0.21633 0.0
H310 H 0.31421 0.75553 0.23676 0.0
H311 H 0.3017 0.71354 0.20192 0.0
H312 H 0.27962 0.73769 0.18122 0.0
H313 H 0.26507 0.70457 0.1956 0.0
H314 H 0.18372 0.7325 0.26786 0.0
H315 H 0.16231 0.76933 0.23571 0.0
H316 H 0.24317 0.78009 0.19219 0.0
C317 C 0.29205 0.70277 0.26628 0.0
C318 C 0.28641 0.68594 0.29115 0.0
C319 C 0.2583 0.68413 0.30178 0.0
C320 C 0.23629 0.69948 0.2883 0.0
C321 C 0.24274 0.71638 0.26416 0.0
C322 C 0.26992 0.71792 0.25315 0.0
C323 C 0.27168 0.73864 0.22787 0.0
C324 C 0.29222 0.76371 0.23429 0.0
C325 C 0.28 0.72265 0.2 0.0
C326 C 0.24135 0.749 0.22669 0.0
C327 C 0.22489 0.73582 0.24763 0.0
C328 C 0.19636 0.74276 0.25121 0.0
C329 C 0.18441 0.76375 0.2329 0.0
C330 C 0.20103 0.77758 0.21141 0.0
C331 C 0.22982 0.76987 0.2083 0.0
H332 H 0.28205 0.65447 0.74198 0.0
H333 H 0.30612 0.71905 0.67817 0.0
H334 H 0.27708 0.75542 0.70359 0.0
H335 H 0.21128 0.6754 0.74768 0.0
H336 H 0.20836 0.66877 0.78599 0.0
H337 H 0.23345 0.64861 0.76478 0.0
H338 H 0.27418 0.66525 0.79843 0.0
H339 H 0.24914 0.68527 0.81996 0.0
H340 H 0.27954 0.70336 0.80474 0.0
H341 H 0.2426 0.78369 0.73377 0.0
H342 H 0.20592 0.80201 0.76718 0.0
H343 H 0.20406 0.71854 0.81055 0.0
C344 C 0.28172 0.6764 0.73368 0.0
C345 C 0.29643 0.68396 0.70817 0.0
C346 C 0.29505 0.71279 0.69773 0.0
C347 C 0.27864 0.73361 0.71202 0.0
C348 C 0.26382 0.72524 0.7367 0.0
C349 C 0.26533 0.69738 0.74755 0.0
C350 C 0.24606 0.69347 0.77341 0.0
C351 C 0.22346 0.67019 0.7676 0.0
C352 C 0.26327 0.68643 0.80076 0.0
C353 C 0.23308 0.72333 0.77508 0.0
C354 C 0.24374 0.74142 0.75388 0.0
C355 C 0.23427 0.76981 0.75063 0.0
C356 C 0.21338 0.77997 0.76964 0.0
C357 C 0.20214 0.76171 0.79146 0.0
C358 C 0.21225 0.73307 0.79414 0.0
H359 H 0.18675 0.20515 0.81762 0.0
H360 H 0.23595 0.12583 0.82125 0.0
H361 H 0.27283 0.14861 0.79079 0.0
H362 H 0.20066 0.22154 0.74457 0.0
H363 H 0.2027 0.26012 0.74987 0.0
H364 H 0.18121 0.23833 0.77359 0.0
H365 H 0.20839 0.25817 0.81801 0.0
H366 H 0.22987 0.2802 0.79443 0.0
H367 H 0.24645 0.25525 0.8192 0.0
H368 H 0.30303 0.17931 0.75772 0.0
H369 H 0.3248 0.21583 0.7256 0.0
H370 H 0.25545 0.2748 0.74367 0.0
C371 C 0.20543 0.19262 0.81236 0.0
C372 C 0.20848 0.16368 0.82189 0.0
C373 C 0.23317 0.14804 0.81429 0.0
C374 C 0.25423 0.16079 0.79698 0.0
C375 C 0.25027 0.1892 0.78756 0.0
C376 C 0.22655 0.20496 0.79512 0.0
C377 C 0.22687 0.23475 0.78142 0.0
C378 C 0.20135 0.23891 0.76116 0.0
C379 C 0.22797 0.25849 0.80465 0.0
C380 C 0.25432 0.2332 0.76463 0.0
C381 C 0.26757 0.2068 0.76853 0.0
C382 C 0.29293 0.20012 0.75466 0.0
C383 C 0.30509 0.22099 0.7364 0.0
C384 C 0.29186 0.2482 0.73211 0.0
C385 C 0.26616 0.25427 0.74653 0.0
H386 H 0.7696 0.25818 0.81451 0.0
H387 H 0.77641 0.17769 0.76667 0.0
H388 H 0.73997 0.19492 0.73252 0.0
H389 H 0.69336 0.26709 0.80577 0.0
H390 H 0.69583 0.30586 0.80203 0.0
H391 H 0.72151 0.28657 0.82347 0.0
H392 H 0.76204 0.30875 0.79272 0.0
H393 H 0.7365 0.32802 0.77115 0.0
H394 H 0.76166 0.30426 0.754 0.0
H395 H 0.70496 0.22213 0.70189 0.0
H396 H 0.67265 0.25681 0.67801 0.0
H397 H 0.68814 0.31885 0.74661 0.0
C398 C 0.76327 0.24404 0.79702 0.0
C399 C 0.77587 0.2166 0.79326 0.0
C400 C 0.76702 0.1988 0.77002 0.0
C401 C 0.74634 0.20838 0.7505 0.0
C402 C 0.73459 0.23569 0.75465 0.0
C403 C 0.74258 0.25319 0.77744 0.0
C404 C 0.72716 0.28187 0.77668 0.0
C405 C 0.70834 0.28555 0.80358 0.0
C406 C 0.74809 0.30721 0.77343 0.0
C407 C 0.70955 0.27794 0.74967 0.0
C408 C 0.71411 0.25116 0.73727 0.0
C409 C 0.701 0.24306 0.71154 0.0
C410 C 0.68276 0.26291 0.69811 0.0
C411 C 0.67779 0.29044 0.71053 0.0
C412 C 0.69128 0.29786 0.73673 0.0
H413 H 0.78443 0.7399 0.78269 0.0
H414 H 0.76377 0.83053 0.76933 0.0
H415 H 0.7253 0.81644 0.73609 0.0
H416 H 0.77451 0.7183 0.71035 0.0
H417 H 0.75961 0.68348 0.71928 0.0
H418 H 0.78395 0.70062 0.74378 0.0
H419 H 0.74679 0.69693 0.78493 0.0
H420 H 0.72228 0.67981 0.7605 0.0
H421 H 0.71199 0.71208 0.77966 0.0
H422 H 0.69065 0.79263 0.70252 0.0
H423 H 0.66369 0.7609 0.66959 0.0
H424 H 0.70747 0.686 0.70465 0.0
C425 C 0.77162 0.75679 0.77305 0.0
C426 C 0.77705 0.78631 0.77868 0.0
C427 C 0.76001 0.80776 0.76534 0.0
C428 C 0.73803 0.79998 0.74652 0.0
C429 C 0.73337 0.77069 0.7413 0.0
C430 C 0.74972 0.74943 0.75413 0.0
C431 C 0.74139 0.71961 0.74365 0.0
C432 C 0.76634 0.70464 0.72835 0.0
C433 C 0.72993 0.70102 0.76868 0.0
C434 C 0.71815 0.72746 0.72255 0.0
C435 C 0.71362 0.75699 0.72173 0.0
C436 C 0.69387 0.76944 0.70311 0.0
C437 C 0.67865 0.75124 0.68449 0.0
C438 C 0.68345 0.72098 0.68454 0.0
C439 C 0.70318 0.70902 0.70417 0.0
H440 H 0.08045 0.13547 0.97187 0.0
H441 H 0.16024 0.17482 0.94655 0.0
H442 H 0.17363 0.17884 -0.00177 0.0
H443 H 0.06875 0.17721 0.03714 0.0
H444 H 0.05408 0.14672 0.05638 0.0
H445 H 0.05032 0.14917 0.0177 0.0
H446 H 0.07356 0.09864 0.01226 0.0
H447 H 0.07758 0.0961 0.05087 0.0
H448 H 0.10805 0.09226 0.0277 0.0
H449 H 0.17844 0.17695 0.05329 0.0
H450 H 0.17479 0.16842 0.10604 0.0
H451 H 0.09246 0.12855 0.0936 0.0
C452 C 0.10062 0.14535 0.97704 0.0
C453 C 0.11923 0.15503 0.95511 0.0
C454 C 0.14557 0.16739 0.96298 0.0
C455 C 0.15334 0.16976 0.99226 0.0
C456 C 0.13455 0.15955 0.01329 0.0
C457 C 0.10874 0.1476 0.00593 0.0
C458 C 0.09281 0.13689 0.03223 0.0
C459 C 0.06484 0.1535 0.03609 0.0
C460 C 0.08772 0.10403 0.03066 0.0
C461 C 0.11377 0.14442 0.05569 0.0
C462 C 0.13762 0.15773 0.04448 0.0
C463 C 0.15983 0.16657 0.06224 0.0
C464 C 0.15757 0.16162 0.09216 0.0
C465 C 0.1334 0.14768 0.10394 0.0
C466 C 0.1113 0.13908 0.08531 0.0
H467 H 0.83872 0.13641 0.94515 0.0
H468 H 0.82043 0.22407 0.91798 0.0
H469 H 0.81206 0.2379 0.9692 0.0
H470 H 0.78962 0.13412 0.01046 0.0
H471 H 0.81529 0.11298 0.03013 0.0
H472 H 0.81209 0.10896 0.9915 0.0
H473 H 0.86565 0.11999 0.98593 0.0
H474 H 0.86898 0.12443 0.02426 0.0
H475 H 0.87967 0.15329 0.00032 0.0
H476 H 0.81594 0.24369 0.02437 0.0
H477 H 0.83104 0.24043 0.07585 0.0
H478 H 0.8473 0.14893 0.06486 0.0
C479 C 0.83173 0.15822 0.94992 0.0
C480 C 0.82995 0.17915 0.92787 0.0
C481 C 0.82135 0.20764 0.9347 0.0
C482 C 0.81667 0.21563 0.96372 0.0
C483 C 0.82018 0.19467 0.98531 0.0
C484 C 0.82701 0.16635 0.97849 0.0
C485 C 0.83357 0.14865 0.0051 0.0
C486 C 0.8113 0.12477 0.00956 0.0
C487 C 0.86374 0.13589 0.00381 0.0
C488 C 0.83111 0.17171 0.02797 0.0
C489 C 0.82271 0.19803 0.01653 0.0
C490 C 0.82184 0.22301 0.03359 0.0
C491 C 0.83041 0.22103 0.06275 0.0
C492 C 0.84022 0.19442 0.07406 0.0
C493 C 0.83969 0.16949 0.05665 0.0
H494 H 0.8456 0.79142 0.93691 0.0
H495 H 0.78279 0.85208 0.90628 0.0
H496 H 0.7657 0.8589 0.95624 0.0
H497 H 0.80079 0.76456 0.00541 0.0
H498 H 0.83338 0.76165 0.02546 0.0
H499 H 0.83268 0.75282 0.98748 0.0
H500 H 0.87341 0.7892 0.97855 0.0
H501 H 0.87398 0.79851 0.01601 0.0
H502 H 0.86894 0.82647 0.98923 0.0
H503 H 0.76947 0.87365 0.00693 0.0
H504 H 0.7892 0.88966 0.0537 0.0
H505 H 0.84602 0.81644 0.05419 0.0
C506 C 0.82696 0.80452 0.94074 0.0
C507 C 0.81519 0.82095 0.91808 0.0
C508 C 0.79154 0.83881 0.92343 0.0
C509 C 0.78181 0.84285 0.95181 0.0
C510 C 0.79547 0.82818 0.97428 0.0
C511 C 0.81685 0.80836 0.96892 0.0
C512 C 0.83142 0.79923 0.99667 0.0
C513 C 0.82412 0.76769 0.0042 0.0
C514 C 0.86381 0.80368 0.99498 0.0
C515 C 0.81766 0.81984 0.01783 0.0
C516 C 0.79634 0.83579 0.00472 0.0
C517 C 0.78495 0.86035 0.01793 0.0
C518 C 0.79628 0.86939 0.04445 0.0
C519 C 0.81834 0.85359 0.05767 0.0
C520 C 0.82816 0.82788 0.04493 0.0
H521 H 0.18828 0.7929 0.06596 0.0
H522 H 0.2576 0.84971 0.0437 0.0
H523 H 0.25879 0.82922 0.99447 0.0
H524 H 0.20295 0.73141 0.00893 0.0
H525 H 0.16539 0.72891 0.00244 0.0
H526 H 0.17835 0.73682 0.03825 0.0
H527 H 0.14718 0.78288 0.03944 0.0
H528 H 0.13451 0.77545 0.00382 0.0
H529 H 0.15123 0.80972 0.01133 0.0
H530 H 0.24415 0.81405 0.94581 0.0
H531 H 0.21292 0.81074 0.90323 0.0
H532 H 0.14893 0.76857 0.95545 0.0
C533 C 0.20495 0.79937 0.0512 0.0
C534 C 0.2235 0.82201 0.05866 0.0
C535 C 0.24388 0.83166 0.03849 0.0
C536 C 0.24464 0.82008 0.01049 0.0
C537 C 0.22446 0.79932 0.00287 0.0
C538 C 0.20494 0.78897 0.02281 0.0
C539 C 0.18087 0.77318 0.00797 0.0
C540 C 0.18197 0.74065 0.0148 0.0
C541 C 0.15179 0.78612 0.0161 0.0
C542 C 0.1883 0.77884 0.97662 0.0
C543 C 0.21435 0.79236 0.97406 0.0
C544 C 0.22411 0.80281 0.94749 0.0
C545 C 0.20624 0.80082 0.92336 0.0
C546 C 0.17862 0.78937 0.92625 0.0
C547 C 0.17015 0.77705 0.9528 0.0
H548 H 0.03973 0.15391 0.24992 0.0
H549 H 0.08823 0.22216 0.20914 0.0
H550 H 0.04594 0.2532 0.20833 0.0
H551 H 0.98602 0.15511 0.21082 0.0
H552 H 0.95811 0.14982 0.23696 0.0
H553 H 0.99319 0.13811 0.24523 0.0
H554 H 0.99319 0.16934 0.29162 0.0
H555 H 0.95765 0.18116 0.2835 0.0
H556 H 0.98526 0.20744 0.28938 0.0
H557 H -0.00176 0.26647 0.19298 0.0
H558 H 0.95092 0.26279 0.17072 0.0
H559 H 0.93088 0.19057 0.22644 0.0
C560 C 0.04166 0.17606 0.24249 0.0
C561 C 0.06702 0.18566 0.22954 0.0
C562 C 0.06903 0.2145 0.21947 0.0
C563 C 0.04502 0.23232 0.21894 0.0
C564 C 0.01946 0.22132 0.22948 0.0
C565 C 0.0179 0.1942 0.24227 0.0
C566 C 0.98741 0.18536 0.24746 0.0
C567 C 0.98083 0.15539 0.23428 0.0
C568 C 0.98047 0.18587 0.27992 0.0
C569 C 0.97215 0.20959 0.23176 0.0
C570 C 0.99094 0.23068 0.22232 0.0
C571 C 0.98303 0.25117 0.20154 0.0
C572 C 0.95607 0.24905 0.18899 0.0
C573 C 0.93716 0.22709 0.1978 0.0
C574 C 0.94463 0.20844 0.22065 0.0
H575 H 0.90437 0.96628 0.16791 0.0
H576 H 0.81446 0.95031 0.17556 0.0
H577 H 0.80749 0.00041 0.19343 0.0
H578 H 0.91033 0.02123 0.23061 0.0
H579 H 0.93598 0.04165 0.2101 0.0
H580 H 0.93459 0.00278 0.20685 0.0
H581 H 0.92912 0.0081 0.15135 0.0
H582 H 0.92995 0.04673 0.15437 0.0
H583 H 0.90029 0.02936 0.13707 0.0
H584 H 0.80931 0.05476 0.1981 0.0
H585 H 0.81968 0.10673 0.19077 0.0
H586 H 0.90875 0.08648 0.18019 0.0
C587 C 0.88346 0.97299 0.17483 0.0
C588 C 0.85998 0.95467 0.17084 0.0
C589 C 0.83272 0.96402 0.17917 0.0
C590 C 0.82864 0.99244 0.18924 0.0
C591 C 0.85216 0.01072 0.19131 0.0
C592 C 0.8792 0.00104 0.18495 0.0
C593 C 0.90038 0.02557 0.18446 0.0
C594 C 0.92157 0.02263 0.2095 0.0
C595 C 0.91579 0.02754 0.15507 0.0
C596 C 0.88079 0.05094 0.18911 0.0
C597 C 0.85318 0.04205 0.19386 0.0
C598 C 0.83096 0.06191 0.19523 0.0
C599 C 0.83703 0.0914 0.19094 0.0
C600 C 0.86504 0.10061 0.18485 0.0
C601 C 0.88717 0.08014 0.18499 0.0
H602 H 0.97043 0.8794 0.08666 0.0
H603 H 0.94728 0.82517 0.15974 0.0
H604 H -0.00208 0.81392 0.16781 0.0
H605 H 0.03076 0.83592 0.06126 0.0
H606 H 0.05092 0.86768 0.05169 0.0
H607 H 0.01281 0.86842 0.04983 0.0
H608 H 0.01212 0.9131 0.08365 0.0
H609 H 0.05014 0.91237 0.08582 0.0
H610 H 0.02924 0.91096 0.11843 0.0
H611 H 0.05171 0.81205 0.17006 0.0
H612 H 0.10343 0.81969 0.16636 0.0
H613 H 0.09023 0.87611 0.09238 0.0
C614 C 0.97584 0.86466 0.10404 0.0
C615 C 0.95483 0.85306 0.1225 0.0
C616 C 0.96298 0.8342 0.14522 0.0
C617 C 0.99169 0.82768 0.14995 0.0
C618 C 0.01189 0.84013 0.13172 0.0
C619 C 0.00424 0.8581 0.10912 0.0
C620 C 0.02988 0.87039 0.09381 0.0
C621 C 0.03116 0.85997 0.06228 0.0
C622 C 0.03036 0.90367 0.09555 0.0
C623 C 0.05326 0.8571 0.11171 0.0
C624 C 0.04257 0.83943 0.13328 0.0
C625 C 0.06029 0.82563 0.15308 0.0
C626 C 0.08963 0.83014 0.15083 0.0
C627 C 0.10091 0.84854 0.1291 0.0
C628 C 0.08236 0.86191 0.10923 0.0
H629 H 0.19957 0.07138 0.18466 0.0
H630 H 0.14647 0.0489 0.25743 0.0
H631 H 0.16794 0.00015 0.25902 0.0
H632 H 0.18529 0.01348 0.14851 0.0
H633 H 0.21914 0.00777 0.13137 0.0
H634 H 0.20941 0.04329 0.14305 0.0
H635 H 0.25485 0.04639 0.17424 0.0
H636 H 0.26488 0.01065 0.16242 0.0
H637 H 0.26228 0.01852 0.20049 0.0
H638 H 0.18539 0.95165 0.24551 0.0
H639 H 0.1918 0.90808 0.21548 0.0
H640 H 0.23002 0.96047 0.14823 0.0
C641 C 0.19396 0.05668 0.20203 0.0
C642 C 0.17227 0.06397 0.2216 0.0
C643 C 0.16377 0.04383 0.2429 0.0
C644 C 0.17593 0.01614 0.24394 0.0
C645 C 0.19618 0.00881 0.22316 0.0
C646 C 0.20515 0.02863 0.20253 0.0
C647 C 0.22141 0.01386 0.17846 0.0
C648 C 0.20797 0.01994 0.14863 0.0
C649 C 0.25272 0.02289 0.17895 0.0
C650 C 0.21802 0.98249 0.18737 0.0
C651 C 0.20478 0.98008 0.21397 0.0
C652 C 0.1964 0.95326 0.22504 0.0
C653 C 0.2002 0.92854 0.20786 0.0
C654 C 0.21146 0.93104 0.17962 0.0
C655 C 0.22174 0.95806 0.16995 0.0
H656 H 0.92577 0.76272 0.85122 0.0
H657 H 0.92082 0.80642 0.76884 0.0
H658 H 0.96912 0.78975 0.75688 0.0
H659 H 0.98417 0.78691 0.87015 0.0
H660 H -0.00057 0.756 0.88821 0.0
H661 H 0.96191 0.75867 0.88476 0.0
H662 H 0.96002 0.70905 0.85906 0.0
H663 H -0.00209 0.70588 0.86284 0.0
H664 H 0.98178 0.70258 0.82769 0.0
H665 H 0.02107 0.7843 0.76148 0.0
H666 H 0.06893 0.79101 0.78187 0.0
H667 H 0.04141 0.75174 0.86204 0.0
C668 C 0.93429 0.76684 0.82985 0.0
C669 C 0.91969 0.78523 0.8107 0.0
C670 C 0.93147 0.79158 0.78337 0.0
C671 C 0.95901 0.78226 0.77654 0.0
C672 C 0.97416 0.76636 0.79715 0.0
C673 C 0.96181 0.758 0.82309 0.0
C674 C 0.98374 0.74699 0.84431 0.0
C675 C 0.98222 0.76316 0.8735 0.0
C676 C 0.98068 0.71417 0.84871 0.0
C677 C 0.01058 0.75399 0.82786 0.0
C678 C 0.00476 0.7637 0.80013 0.0
C679 C 0.02594 0.77576 0.78271 0.0
C680 C 0.05317 0.77946 0.79442 0.0
C681 C 0.05868 0.77174 0.82346 0.0
C682 C 0.03764 0.75735 0.83962 0.0
H683 H 0.08879 0.91375 0.86763 0.0
H684 H 0.16724 0.90155 0.82029 0.0
H685 H 0.17094 0.95461 0.81317 0.0
H686 H 0.06199 0.97321 0.82362 0.0
H687 H 0.04644 0.9912 0.85431 0.0
H688 H 0.04963 0.95236 0.85412 0.0
H689 H 0.07731 0.95434 0.90252 0.0
H690 H 0.07424 0.99314 0.90283 0.0
H691 H 0.10867 0.97646 0.905 0.0
H692 H 0.16744 0.01009 0.81494 0.0
H693 H 0.15587 0.06176 0.82362 0.0
H694 H 0.07898 0.03553 0.86806 0.0
C695 C 0.10668 0.92214 0.85556 0.0
C696 C 0.12778 0.90355 0.84461 0.0
C697 C 0.15076 0.91544 0.82881 0.0
C698 C 0.15306 0.94552 0.82469 0.0
C699 C 0.13199 0.96329 0.83616 0.0
C700 C 0.1091 0.95189 0.851 0.0
C701 C 0.08952 0.97533 0.86177 0.0
C702 C 0.06016 0.97287 0.8476 0.0
C703 C 0.08733 0.97477 0.89499 0.0
C704 C 0.1052 0.00181 0.85122 0.0
C705 C 0.12964 0.99464 0.83647 0.0
C706 C 0.14814 0.0159 0.82613 0.0
C707 C 0.14144 0.04517 0.83117 0.0
C708 C 0.11643 0.05275 0.84631 0.0
C709 C 0.0981 0.03063 0.85609 0.0
H710 H 0.04125 0.16009 0.78875 0.0
H711 H 0.06304 0.22992 0.84622 0.0
H712 H 0.02112 0.25714 0.83014 0.0
H713 H 0.99583 0.21153 0.73274 0.0
H714 H 0.97209 0.1814 0.72772 0.0
H715 H 0.00969 0.17524 0.73099 0.0
H716 H 0.00031 0.13929 0.77275 0.0
H717 H 0.96324 0.14532 0.76966 0.0
H718 H 0.98051 0.15119 0.80397 0.0
H719 H 0.97082 0.26409 0.82765 0.0
H720 H 0.92154 0.25022 0.8376 0.0
H721 H 0.92873 0.17885 0.77827 0.0
C722 C 0.03804 0.18209 0.79605 0.0
C723 C 0.05519 0.19326 0.81821 0.0
C724 C 0.05037 0.22145 0.82863 0.0
C725 C 0.0265 0.23701 0.81955 0.0
C726 C 0.00798 0.22418 0.79975 0.0
C727 C 0.01415 0.1977 0.78709 0.0
C728 C 0.98844 0.18543 0.77178 0.0
C729 C 0.99171 0.18861 0.73886 0.0
C730 C 0.9828 0.1535 0.78015 0.0
C731 C 0.96574 0.20576 0.78292 0.0
C732 C 0.97763 0.22912 0.79737 0.0
C733 C 0.96124 0.24681 0.81529 0.0
C734 C 0.93308 0.23894 0.82079 0.0
C735 C 0.92152 0.21391 0.80805 0.0
C736 C 0.93715 0.19876 0.78709 0.0
H737 H 0.89794 0.93919 0.83621 0.0
H738 H 0.81479 0.922 0.8003 0.0
H739 H 0.80828 0.97447 0.79136 0.0
H740 H 0.88012 -7e-05 0.8744 0.0
H741 H 0.91281 0.01906 0.86795 0.0
H742 H 0.91234 0.98018 0.86747 0.0
H743 H 0.93365 0.98037 0.81576 0.0
H744 H 0.93431 0.01938 0.81612 0.0
H745 H 0.91625 0.00052 0.78746 0.0
H746 H 0.80876 0.02969 0.79252 0.0
H747 H 0.81672 0.08172 0.80261 0.0
H748 H 0.89991 0.06124 0.83684 0.0
C749 C 0.87857 0.94633 0.82591 0.0
C750 C 0.85686 0.92654 0.81898 0.0
C751 C 0.83179 0.9368 0.80562 0.0
C752 C 0.82791 0.96655 0.80047 0.0
C753 C 0.8495 0.98559 0.80837 0.0
C754 C 0.87449 0.97574 0.82046 0.0
C755 C 0.89368 0.00045 0.82896 0.0
C756 C 0.90009 -0.00014 0.86162 0.0
C757 C 0.92109 0.00016 0.811 0.0
C758 C 0.87516 0.02585 0.82092 0.0
C759 C 0.84988 0.01702 0.80874 0.0
C760 C 0.8287 0.03685 0.80157 0.0
C761 C 0.83337 0.06634 0.80741 0.0
C762 C 0.85895 0.0756 0.82046 0.0
C763 C 0.88019 0.055 0.82666 0.0
H764 H 0.63528 0.73515 0.42052 0.0
H765 H 0.7205 0.71172 0.39548 0.0
H766 H 0.73554 0.71452 0.44648 0.0
H767 H 0.65573 0.77903 0.49061 0.0
H768 H 0.62485 0.76441 0.50834 0.0
H769 H 0.62377 0.77283 0.47024 0.0
H770 H 0.60748 0.72042 0.45958 0.0
H771 H 0.60878 0.71181 0.49721 0.0
H772 H 0.62896 0.69053 0.47186 0.0
H773 H 0.73719 0.70319 0.49878 0.0
H774 H 0.72527 0.68 0.54549 0.0
H775 H 0.63894 0.70964 0.53744 0.0
C776 C 0.65746 0.73225 0.4257 0.0
C777 C 0.67672 0.72324 0.40422 0.0
C778 C 0.70548 0.71907 0.41158 0.0
C779 C 0.71417 0.72058 0.4406 0.0
C780 C 0.69396 0.72684 0.4618 0.0
C781 C 0.66622 0.73336 0.45453 0.0
C782 C 0.64719 0.73338 0.48091 0.0
C783 C 0.63732 0.76426 0.48794 0.0
C784 C 0.62167 0.71279 0.47715 0.0
C785 C 0.6677 0.72249 0.50354 0.0
C786 C 0.69491 0.72012 0.49253 0.0
C787 C 0.71632 0.70607 0.508 0.0
C788 C 0.70945 0.693 0.53456 0.0
C789 C 0.68141 0.69389 0.54509 0.0
C790 C 0.66073 0.70982 0.53009 0.0
H791 H 0.29727 0.63419 0.52224 0.0
H792 H 0.34386 0.70035 0.56809 0.0
H793 H 0.35133 0.72681 0.5223 0.0
H794 H 0.33849 0.6265 0.46801 0.0
H795 H 0.31298 0.62207 0.43937 0.0
H796 H 0.3032 0.6137 0.47582 0.0
H797 H 0.26115 0.64953 0.47289 0.0
H798 H 0.2706 0.65784 0.43599 0.0
H799 H 0.26731 0.68653 0.46213 0.0
H800 H 0.36813 0.73507 0.47235 0.0
H801 H 0.38658 0.72842 0.42273 0.0
H802 H 0.32468 0.66117 0.40778 0.0
C803 C 0.3076 0.65512 0.5227 0.0
C804 C 0.31988 0.66541 0.54846 0.0
C805 C 0.33389 0.69244 0.54855 0.0
C806 C 0.33827 0.70756 0.5226 0.0
C807 C 0.3276 0.69581 0.49703 0.0
C808 C 0.31154 0.67072 0.49705 0.0
C809 C 0.30584 0.66037 0.46656 0.0
C810 C 0.31575 0.62884 0.46222 0.0
C811 C 0.27435 0.66379 0.45895 0.0
C812 C 0.32381 0.68156 0.44958 0.0
C813 C 0.33582 0.70222 0.46746 0.0
C814 C 0.35777 0.7201 0.45783 0.0
C815 C 0.36822 0.71618 0.42968 0.0
C816 C 0.35627 0.69501 0.41141 0.0
C817 C 0.33308 0.67845 0.42105 0.0
H818 H 0.3835 0.28989 0.46732 0.0
H819 H 0.29773 0.3014 0.43618 0.0
H820 H 0.27945 0.29068 0.4853 0.0
H821 H 0.36703 0.23341 0.5254 0.0
H822 H 0.39297 0.24946 0.54902 0.0
H823 H 0.3984 0.24991 0.51041 0.0
H824 H 0.40413 0.30572 0.51177 0.0
H825 H 0.39878 0.30542 0.55011 0.0
H826 H 0.37636 0.32743 0.52744 0.0
H827 H 0.27165 0.28958 0.53956 0.0
H828 H 0.27557 0.30017 0.59195 0.0
H829 H 0.36645 0.28971 0.58679 0.0
C830 C 0.3608 0.28914 0.47057 0.0
C831 C 0.34203 0.29646 0.44801 0.0
C832 C 0.31248 0.29555 0.45313 0.0
C833 C 0.30194 0.28942 0.48097 0.0
C834 C 0.32121 0.2837 0.5032 0.0
C835 C 0.35008 0.28311 0.49805 0.0
C836 C 0.36678 0.2809 0.52582 0.0
C837 C 0.3822 0.25167 0.52777 0.0
C838 C 0.38769 0.30638 0.52895 0.0
C839 C 0.34302 0.28258 0.54763 0.0
C840 C 0.31676 0.2832 0.53435 0.0
C841 C 0.29202 0.28826 0.5502 0.0
C842 C 0.29437 0.2941 0.57997 0.0
C843 C 0.3213 0.29538 0.59324 0.0
C844 C 0.34561 0.28825 0.57712 0.0
H845 H 0.5715 0.35127 0.42474 0.0
H846 H 0.65546 0.31846 0.40528 0.0
H847 H 0.66125 0.30407 0.45651 0.0
H848 H 0.58857 0.38387 0.48815 0.0
H849 H 0.55581 0.37576 0.50649 0.0
H850 H 0.55649 0.37835 0.46776 0.0
H851 H 0.53545 0.32664 0.4639 0.0
H852 H 0.53475 0.32387 0.50279 0.0
H853 H 0.55299 0.29689 0.48171 0.0
H854 H 0.66019 0.29967 0.51126 0.0
H855 H 0.65315 0.30778 0.56371 0.0
H856 H 0.56998 0.34348 0.54621 0.0
C857 C 0.59088 0.34043 0.43101 0.0
C858 C 0.61301 0.33598 0.41098 0.0
C859 C 0.63815 0.32201 0.42023 0.0
C860 C 0.64157 0.31363 0.44927 0.0
C861 C 0.61954 0.31907 0.46864 0.0
C862 C 0.5946 0.332 0.45975 0.0
C863 C 0.57531 0.33841 0.485 0.0
C864 C 0.56869 0.37102 0.48696 0.0
C865 C 0.54801 0.32037 0.48324 0.0
C866 C 0.59382 0.32845 0.50971 0.0
C867 C 0.61899 0.31671 0.49996 0.0
C868 C 0.64032 0.30831 0.51912 0.0
C869 C 0.63613 0.31291 0.54887 0.0
C870 C 0.61101 0.32622 0.55899 0.0
C871 C 0.58933 0.33308 0.53914 0.0
H872 H 0.55732 0.59976 0.60189 0.0
H873 H 0.57381 0.67043 0.66123 0.0
H874 H 0.52289 0.67137 0.67441 0.0
H875 H 0.49296 0.62538 0.57511 0.0
H876 H 0.47689 0.59011 0.57226 0.0
H877 H 0.51471 0.5938 0.56962 0.0
H878 H 0.52103 0.55699 0.61155 0.0
H879 H 0.48315 0.55322 0.61436 0.0
H880 H 0.50359 0.56338 0.64564 0.0
H881 H 0.46896 0.66641 0.67805 0.0
H882 H 0.41784 0.65646 0.67153 0.0
H883 H 0.4384 0.58862 0.61021 0.0
C884 C 0.5504 0.61534 0.61787 0.0
C885 C 0.56957 0.6351 0.63048 0.0
C886 C 0.55951 0.65505 0.65132 0.0
C887 C 0.53065 0.65569 0.65896 0.0
C888 C 0.51229 0.63604 0.64578 0.0
C889 C 0.52192 0.61615 0.62579 0.0
C890 C 0.49803 0.59811 0.6137 0.0
C891 C 0.49551 0.60211 0.58073 0.0
C892 C 0.50167 0.56603 0.62181 0.0
C893 C 0.4732 0.6114 0.62939 0.0
C894 C 0.48173 0.63307 0.64803 0.0
C895 C 0.46213 0.64927 0.66375 0.0
C896 C 0.43313 0.64344 0.65992 0.0
C897 C 0.42405 0.6217 0.64041 0.0
C898 C 0.44453 0.60524 0.62545 0.0
H899 H 0.27359 0.53379 0.61535 0.0
H900 H 0.30106 0.56409 0.69913 0.0
H901 H 0.28421 0.51848 0.7214 0.0
H902 H 0.21146 0.48451 0.64404 0.0
H903 H 0.21952 0.45861 0.61613 0.0
H904 H 0.22353 0.49682 0.60912 0.0
H905 H 0.27561 0.48826 0.5937 0.0
H906 H 0.27176 0.45043 0.60058 0.0
H907 H 0.29945 0.47044 0.61848 0.0
H908 H 0.2793 0.46563 0.73105 0.0
H909 H 0.28784 0.41309 0.72643 0.0
H910 H 0.26202 0.41673 0.6369 0.0
C911 C 0.27464 0.53129 0.63861 0.0
C912 C 0.28845 0.55223 0.65559 0.0
C913 C 0.2901 0.54838 0.68586 0.0
C914 C 0.28053 0.52251 0.69865 0.0
C915 C 0.26872 0.50118 0.68093 0.0
C916 C 0.26506 0.50573 0.65154 0.0
C917 C 0.25686 0.47811 0.63616 0.0
C918 C 0.22601 0.47961 0.62576 0.0
C919 C 0.27716 0.47144 0.61081 0.0
C920 C 0.25994 0.45662 0.66068 0.0
C921 C 0.26548 0.47035 0.68668 0.0
C922 C 0.27391 0.45469 0.71113 0.0
C923 C 0.27856 0.42474 0.70843 0.0
C924 C 0.27522 0.41106 0.68136 0.0
C925 C 0.26399 0.42681 0.65793 0.0
H926 H 0.52958 0.389 0.69963 0.0
H927 H 0.55144 0.29809 0.69541 0.0
H928 H 0.50399 0.28536 0.71421 0.0
H929 H 0.47741 0.38332 0.76408 0.0
H930 H 0.45502 0.41012 0.74732 0.0
H931 H 0.49294 0.41215 0.74305 0.0
H932 H 0.4868 0.41275 0.68736 0.0
H933 H 0.44919 0.41057 0.69141 0.0
H934 H 0.46755 0.38378 0.67018 0.0
H935 H 0.4513 0.2824 0.72028 0.0
H936 H 0.4 0.28961 0.71236 0.0
H937 H 0.4126 0.38245 0.71288 0.0
C938 C 0.52478 0.36646 0.70389 0.0
C939 C 0.54405 0.34453 0.69611 0.0
C940 C 0.53704 0.31525 0.70157 0.0
C941 C 0.51012 0.30786 0.71229 0.0
C942 C 0.4908 0.33003 0.71799 0.0
C943 C 0.49811 0.35886 0.71449 0.0
C944 C 0.47262 0.37845 0.71715 0.0
C945 C 0.47462 0.39711 0.74454 0.0
C946 C 0.46883 0.39744 0.68991 0.0
C947 C 0.4494 0.35611 0.71996 0.0
C948 C 0.46025 0.32831 0.72149 0.0
C949 C 0.4426 0.30407 0.72003 0.0
C950 C 0.41345 0.30833 0.71558 0.0
C951 C 0.40247 0.33661 0.71207 0.0
C952 C 0.42048 0.36063 0.71583 0.0
H953 H 0.70287 0.54286 0.59079 0.0
H954 H 0.69265 0.57541 0.67787 0.0
H955 H 0.69796 0.52588 0.69704 0.0
H956 H 0.65909 0.49126 0.59572 0.0
H957 H 0.67699 0.46418 0.57444 0.0
H958 H 0.68464 0.50158 0.56855 0.0
H959 H 0.73791 0.49221 0.57796 0.0
H960 H 0.73039 0.45434 0.5837 0.0
H961 H 0.74892 0.47472 0.61097 0.0
H962 H 0.68832 0.47379 0.70514 0.0
H963 H 0.6648 0.4261 0.70086 0.0
H964 H 0.67977 0.42684 0.60872 0.0
C965 C 0.70324 0.53968 0.61399 0.0
C966 C 0.69724 0.56284 0.63282 0.0
C967 C 0.69749 0.55799 0.66303 0.0
C968 C 0.70053 0.52984 0.67411 0.0
C969 C 0.70383 0.50692 0.65472 0.0
C970 C 0.70587 0.51171 0.6252 0.0
C971 C 0.70337 0.48376 0.6084 0.0
C972 C 0.6796 0.48532 0.5855 0.0
C973 C 0.73185 0.47579 0.59444 0.0
C974 C 0.69618 0.46306 0.63268 0.0
C975 C 0.69792 0.47639 0.65943 0.0
C976 C 0.68793 0.4628 0.68451 0.0
C977 C 0.67464 0.4357 0.68196 0.0
C978 C 0.67114 0.42294 0.65452 0.0
C979 C 0.68315 0.43607 0.62995 0.0
H980 H 0.41927 0.33555 0.28953 0.0
H981 H 0.43712 0.25584 0.33457 0.0
H982 H 0.48082 0.24976 0.30612 0.0
H983 H 0.46647 0.31928 0.2185 0.0
H984 H 0.4774 0.35666 0.21888 0.0
H985 H 0.44165 0.34703 0.22882 0.0
H986 H 0.44783 0.37398 0.27734 0.0
H987 H 0.48315 0.38346 0.26769 0.0
H988 H 0.47667 0.36405 0.30097 0.0
H989 H 0.52784 0.26048 0.28851 0.0
H990 H 0.57197 0.28843 0.2909 0.0
H991 H 0.52773 0.36457 0.26071 0.0
C992 C 0.43154 0.31585 0.29158 0.0
C993 C 0.42472 0.2957 0.31331 0.0
C994 C 0.44172 0.27095 0.31724 0.0
C995 C 0.46659 0.26741 0.30106 0.0
C996 C 0.47446 0.28918 0.28156 0.0
C997 C 0.45714 0.31296 0.27655 0.0
C998 C 0.47338 0.33721 0.26186 0.0
C999 C 0.46418 0.3402 0.23013 0.0
C1000 C 0.47009 0.3663 0.27799 0.0
C1001 C 0.50322 0.32531 0.26377 0.0
C1002 C 0.50313 0.29669 0.27286 0.0
C1003 C 0.52815 0.28256 0.28066 0.0
C1004 C 0.55329 0.29863 0.28188 0.0
C1005 C 0.55295 0.32868 0.27622 0.0
C1006 C 0.52827 0.3415 0.26482 0.0
H1007 H 0.6355 0.46225 0.36084 0.0
H1008 H 0.66819 0.44099 0.27599 0.0
H1009 H 0.68697 0.49112 0.27112 0.0
H1010 H 0.60999 0.52853 0.3446 0.0
H1011 H 0.61888 0.54523 0.3786 0.0
H1012 H 0.61296 0.50691 0.37697 0.0
H1013 H 0.66262 0.49761 0.39906 0.0
H1014 H 0.66868 0.53608 0.40089 0.0
H1015 H 0.69349 0.51317 0.38213 0.0
H1016 H 0.6949 0.54628 0.27325 0.0
H1017 H 0.69164 0.59911 0.28222 0.0
H1018 H 0.65459 0.5818 0.36633 0.0
C1019 C 0.64723 0.46794 0.34149 0.0
C1020 C 0.65039 0.44801 0.31873 0.0
C1021 C 0.66579 0.45606 0.29373 0.0
C1022 C 0.67649 0.48442 0.29085 0.0
C1023 C 0.67209 0.50397 0.31348 0.0
C1024 C 0.65819 0.49574 0.33852 0.0
C1025 C 0.65376 0.52088 0.35877 0.0
C1026 C 0.62203 0.52566 0.36507 0.0
C1027 C 0.67066 0.51668 0.38687 0.0
C1028 C 0.66596 0.54505 0.3407 0.0
C1029 C 0.67691 0.53506 0.31482 0.0
C1030 C 0.68693 0.55418 0.29371 0.0
C1031 C 0.68503 0.58415 0.29898 0.0
C1032 C 0.67286 0.59453 0.32498 0.0
C1033 C 0.66412 0.57458 0.34629 0.0
H1034 H 0.57987 0.664 0.26159 0.0
H1035 H 0.58874 0.75235 0.29001 0.0
H1036 H 0.5388 0.76176 0.27755 0.0
H1037 H 0.51569 0.67782 0.20632 0.0
H1038 H 0.50085 0.64367 0.21766 0.0
H1039 H 0.53873 0.64781 0.21451 0.0
H1040 H 0.54428 0.6303 0.26735 0.0
H1041 H 0.50686 0.62659 0.27086 0.0
H1042 H 0.52595 0.6493 0.29584 0.0
H1043 H 0.48719 0.75648 0.28083 0.0
H1044 H 0.44152 0.73747 0.29879 0.0
H1045 H 0.4644 0.65189 0.26983 0.0
C1046 C 0.57165 0.68583 0.26293 0.0
C1047 C 0.58799 0.70763 0.27601 0.0
C1048 C 0.57668 0.7357 0.27908 0.0
C1049 C 0.5482 0.74109 0.27218 0.0
C1050 C 0.53153 0.71821 0.26206 0.0
C1051 C 0.54315 0.69117 0.25664 0.0
C1052 C 0.52029 0.66849 0.25264 0.0
C1053 C 0.5188 0.6589 0.22089 0.0
C1054 C 0.52461 0.64221 0.27291 0.0
C1055 C 0.49437 0.68594 0.26073 0.0
C1056 C 0.50096 0.71493 0.26448 0.0
C1057 C 0.48152 0.73416 0.27678 0.0
C1058 C 0.45555 0.72326 0.28688 0.0
C1059 C 0.44951 0.69343 0.28491 0.0
C1060 C 0.46843 0.67495 0.27045 0.0
H1061 H 0.39923 0.43504 0.38174 0.0
H1062 H 0.32396 0.41555 0.33154 0.0
H1063 H 0.31952 0.46737 0.31867 0.0
H1064 H 0.37531 0.5034 0.40988 0.0
H1065 H 0.40992 0.51973 0.40776 0.0
H1066 H 0.40659 0.48127 0.41318 0.0
H1067 H 0.4379 0.47219 0.36801 0.0
H1068 H 0.44118 0.51062 0.36233 0.0
H1069 H 0.42785 0.48788 0.33379 0.0
H1070 H 0.32421 0.52183 0.31059 0.0
H1071 H 0.33668 0.57391 0.30955 0.0
H1072 H 0.40877 0.55644 0.36514 0.0
C1073 C 0.38168 0.44159 0.36816 0.0
C1074 C 0.36192 0.42118 0.35769 0.0
C1075 C 0.33933 0.43078 0.33992 0.0
C1076 C 0.33667 0.46016 0.33243 0.0
C1077 C 0.35673 0.47964 0.34292 0.0
C1078 C 0.37871 0.47069 0.36052 0.0
C1079 C 0.39759 0.49572 0.36895 0.0
C1080 C 0.39732 0.50029 0.40189 0.0
C1081 C 0.42792 0.49133 0.35758 0.0
C1082 C 0.38287 0.52022 0.35332 0.0
C1083 C 0.35938 0.51062 0.33836 0.0
C1084 C 0.34255 0.52956 0.32228 0.0
C1085 C 0.34984 0.55908 0.32175 0.0
C1086 C 0.3737 0.56932 0.33725 0.0
C1087 C 0.39038 0.54943 0.35305 0.0
loop_
_geom_bond_atom_site_label_1
_geom_bond_atom_site_label_2
_geom_bond_distance
_geom_bond_site_symmetry_2
_ccdc_geom_bond_type
Zn0 O3 2.031 . S
Zn0 O5 2.049 . S
Zn0 O10 2.067 . S
Zn1 O2 1.962 . S
Zn1 O4 1.986 . S
Zn1 O6 1.996 . S
Zn1 O9 1.943 . S
O2 Zn1 1.962 . S
O2 C7 1.254 . S
O3 Zn0 2.031 . S
O3 C7 1.269 . S
O4 Zn1 1.986 . S
O4 C11 1.262 . S
O5 Zn0 2.049 . S
O5 C13 1.260 . S
O6 Zn1 1.996 . S
O6 C13 1.257 . S
C7 O2 1.254 . S
C7 O3 1.269 . S
C8 O9 1.249 . S
C8 O10 1.270 . S
O9 Zn1 1.943 . S
O9 C8 1.249 . S
O10 Zn0 2.067 . S
O10 C8 1.270 . S
C11 O4 1.262 . S
C11 O12 1.232 . S
O12 C11 1.232 . S
C13 O5 1.260 . S
C13 O6 1.257 . S
Zn14 O17 2.031 . S
Zn14 O19 2.049 . S
Zn14 O24 2.067 . S
Zn15 O16 1.962 . S
Zn15 O18 1.986 . S
Zn15 O20 1.996 . S
Zn15 O23 1.943 . S
O16 Zn15 1.962 . S
O16 C21 1.254 . S
O17 Zn14 2.031 . S
O17 C21 1.269 . S
O18 Zn15 1.986 . S
O18 C25 1.262 . S
O19 Zn14 2.049 . S
O19 C27 1.260 . S
O20 Zn15 1.996 . S
O20 C27 1.257 . S
C21 O16 1.254 . S
C21 O17 1.269 . S
C22 O23 1.249 . S
C22 O24 1.270 . S
O23 Zn15 1.943 . S
O23 C22 1.249 . S
O24 Zn14 2.067 . S
O24 C22 1.270 . S
C25 O18 1.262 . S
C25 O26 1.232 . S
O26 C25 1.232 . S
C27 O19 1.260 . S
C27 O20 1.257 . S
Zn28 O31 2.031 . S
Zn28 O33 2.049 . S
Zn28 O38 2.067 . S
Zn29 O30 1.962 . S
Zn29 O32 1.986 . S
Zn29 O34 1.996 . S
Zn29 O37 1.943 . S
O30 Zn29 1.962 . S
O30 C35 1.254 . S
O31 Zn28 2.031 . S
O31 C35 1.269 . S
O32 Zn29 1.986 . S
O32 C39 1.262 . S
O33 Zn28 2.049 . S
O33 C41 1.260 . S
O34 Zn29 1.996 . S
O34 C41 1.257 . S
C35 O30 1.254 . S
C35 O31 1.269 . S
C36 O37 1.249 . S
C36 O38 1.270 . S
O37 Zn29 1.943 . S
O37 C36 1.249 . S
O38 Zn28 2.067 . S
O38 C36 1.270 . S
C39 O32 1.262 . S
C39 O40 1.232 . S
O40 C39 1.232 . S
C41 O33 1.260 . S
C41 O34 1.257 . S
Zn42 O45 2.031 . S
Zn42 O47 2.049 . S
Zn42 O52 2.067 . S
Zn43 O44 1.962 . S
Zn43 O46 1.986 . S
Zn43 O48 1.996 . S
Zn43 O51 1.943 . S
O44 Zn43 1.962 . S
O44 C49 1.254 . S
O45 Zn42 2.031 . S
O45 C49 1.269 . S
O46 Zn43 1.986 . S
O46 C53 1.262 . S
O47 Zn42 2.049 . S
O47 C55 1.260 . S
O48 Zn43 1.996 . S
O48 C55 1.257 . S
C49 O44 1.254 . S
C49 O45 1.269 . S
C50 O51 1.249 . S
C50 O52 1.270 . S
O51 Zn43 1.943 . S
O51 C50 1.249 . S
O52 Zn42 2.067 . S
O52 C50 1.270 . S
C53 O46 1.262 . S
C53 O54 1.232 . S
O54 C53 1.232 . S
C55 O47 1.260 . S
C55 O48 1.257 . S
Zn56 O59 2.031 . S
Zn56 O61 2.049 . S
Zn56 O66 2.067 . S
Zn57 O58 1.962 . S
Zn57 O60 1.986 . S
Zn57 O62 1.996 . S
Zn57 O65 1.943 . S
O58 Zn57 1.962 . S
O58 C63 1.254 . S
O59 Zn56 2.031 . S
O59 C63 1.269 . S
O60 Zn57 1.986 . S
O60 C67 1.262 . S
O61 Zn56 2.049 . S
O61 C69 1.260 . S
O62 Zn57 1.996 . S
O62 C69 1.257 . S
C63 O58 1.254 . S
C63 O59 1.269 . S
C64 O65 1.249 . S
C64 O66 1.270 . S
O65 Zn57 1.943 . S
O65 C64 1.249 . S
O66 Zn56 2.067 . S
O66 C64 1.270 . S
C67 O60 1.262 . S
C67 O68 1.232 . S
O68 C67 1.232 . S
C69 O61 1.260 . S
C69 O62 1.257 . S
Zn70 O73 2.031 . S
Zn70 O75 2.049 . S
Zn70 O80 2.067 . S
Zn71 O72 1.962 . S
Zn71 O74 1.986 . S
Zn71 O76 1.996 . S
Zn71 O79 1.943 . S
O72 Zn71 1.962 . S
O72 C77 1.254 . S
O73 Zn70 2.031 . S
O73 C77 1.269 . S
O74 Zn71 1.986 . S
O74 C81 1.262 . S
O75 Zn70 2.049 . S
O75 C83 1.260 . S
O76 Zn71 1.996 . S
O76 C83 1.257 . S
C77 O72 1.254 . S
C77 O73 1.269 . S
C78 O79 1.249 . S
C78 O80 1.270 . S
O79 Zn71 1.943 . S
O79 C78 1.249 . S
O80 Zn70 2.067 . S
O80 C78 1.270 . S
C81 O74 1.262 . S
C81 O82 1.232 . S
O82 C81 1.232 . S
C83 O75 1.260 . S
C83 O76 1.257 . S
Zn84 O87 2.031 . S
Zn84 O89 2.049 . S
Zn84 O94 2.067 . S
Zn85 O86 1.962 . S
Zn85 O88 1.986 . S
Zn85 O90 1.996 . S
Zn85 O93 1.943 . S
O86 Zn85 1.962 . S
O86 C91 1.254 . S
O87 Zn84 2.031 . S
O87 C91 1.269 . S
O88 Zn85 1.986 . S
O88 C95 1.262 . S
O89 Zn84 2.049 . S
O89 C97 1.260 . S
O90 Zn85 1.996 . S
O90 C97 1.257 . S
C91 O86 1.254 . S
C91 O87 1.269 . S
C92 O93 1.249 . S
C92 O94 1.270 . S
O93 Zn85 1.943 . S
O93 C92 1.249 . S
O94 Zn84 2.067 . S
O94 C92 1.270 . S
C95 O88 1.262 . S
C95 O96 1.232 . S
O96 C95 1.232 . S
C97 O89 1.260 . S
C97 O90 1.257 . S
Zn98 O101 2.031 . S
Zn98 O103 2.049 . S
Zn98 O108 2.067 . S
Zn99 O100 1.962 . S
Zn99 O102 1.986 . S
Zn99 O104 1.996 . S
Zn99 O107 1.943 . S
O100 Zn99 1.962 . S
O100 C105 1.254 . S
O101 Zn98 2.031 . S
O101 C105 1.269 . S
O102 Zn99 1.986 . S
O102 C109 1.262 . S
O103 Zn98 2.049 . S
O103 C111 1.260 . S
O104 Zn99 1.996 . S
O104 C111 1.257 . S
C105 O100 1.254 . S
C105 O101 1.269 . S
C106 O107 1.249 . S
C106 O108 1.270 . S
O107 Zn99 1.943 . S
O107 C106 1.249 . S
O108 Zn98 2.067 . S
O108 C106 1.270 . S
C109 O102 1.262 . S
C109 O110 1.232 . S
O110 C109 1.232 . S
C111 O103 1.260 . S
C111 O104 1.257 . S
Zn112 O115 2.031 . S
Zn112 O117 2.049 . S
Zn112 O122 2.067 . S
Zn113 O114 1.962 . S
Zn113 O116 1.986 . S
Zn113 O118 1.996 . S
Zn113 O121 1.943 . S
O114 Zn113 1.962 . S
O114 C119 1.254 . S
O115 Zn112 2.031 . S
O115 C119 1.269 . S
O116 Zn113 1.986 . S
O116 C123 1.262 . S
O117 Zn112 2.049 . S
O117 C125 1.260 . S
O118 Zn113 1.996 . S
O118 C125 1.257 . S
C119 O114 1.254 . S
C119 O115 1.269 . S
C120 O121 1.249 . S
C120 O122 1.270 . S
O121 Zn113 1.943 . S
O121 C120 1.249 . S
O122 Zn112 2.067 . S
O122 C120 1.270 . S
C123 O116 1.262 . S
C123 O124 1.232 . S
O124 C123 1.232 . S
C125 O117 1.260 . S
C125 O118 1.257 . S
Zn126 O129 2.031 . S
Zn126 O131 2.049 . S
Zn126 O136 2.067 . S
Zn127 O128 1.962 . S
Zn127 O130 1.986 . S
Zn127 O132 1.996 . S
Zn127 O135 1.943 . S
O128 Zn127 1.962 . S
O128 C133 1.254 . S
O129 Zn126 2.031 . S
O129 C133 1.269 . S
O130 Zn127 1.986 . S
O130 C137 1.262 . S
O131 Zn126 2.049 . S
O131 C139 1.260 . S
O132 Zn127 1.996 . S
O132 C139 1.257 . S
C133 O128 1.254 . S
C133 O129 1.269 . S
C134 O135 1.249 . S
C134 O136 1.270 . S
O135 Zn127 1.943 . S
O135 C134 1.249 . S
O136 Zn126 2.067 . S
O136 C134 1.270 . S
C137 O130 1.262 . S
C137 O138 1.232 . S
O138 C137 1.232 . S
C139 O131 1.260 . S
C139 O132 1.257 . S
Zn140 O143 2.031 . S
Zn140 O145 2.049 . S
Zn140 O150 2.067 . S
Zn141 O142 1.962 . S
Zn141 O144 1.986 . S
Zn141 O146 1.996 . S
Zn141 O149 1.943 . S
O142 Zn141 1.962 . S
O142 C147 1.254 . S
O143 Zn140 2.031 . S
O143 C147 1.269 . S
O144 Zn141 1.986 . S
O144 C151 1.262 . S
O145 Zn140 2.049 . S
O145 C153 1.260 . S
O146 Zn141 1.996 . S
O146 C153 1.257 . S
C147 O142 1.254 . S
C147 O143 1.269 . S
C148 O149 1.249 . S
C148 O150 1.270 . S
O149 Zn141 1.943 . S
O149 C148 1.249 . S
O150 Zn140 2.067 . S
O150 C148 1.270 . S
C151 O144 1.262 . S
C151 O152 1.232 . S
O152 C151 1.232 . S
C153 O145 1.260 . S
C153 O146 1.257 . S
Zn154 O157 2.031 . S
Zn154 O159 2.049 . S
Zn154 O164 2.067 . S
Zn155 O156 1.962 . S
Zn155 O158 1.986 . S
Zn155 O160 1.996 . S
Zn155 O163 1.943 . S
O156 Zn155 1.962 . S
O156 C161 1.254 . S
O157 Zn154 2.031 . S
O157 C161 1.269 . S
O158 Zn155 1.986 . S
O158 C165 1.262 . S
O159 Zn154 2.049 . S
O159 C167 1.260 . S
O160 Zn155 1.996 . S
O160 C167 1.257 . S
C161 O156 1.254 . S
C161 O157 1.269 . S
C162 O163 1.249 . S
C162 O164 1.270 . S
O163 Zn155 1.943 . S
O163 C162 1.249 . S
O164 Zn154 2.067 . S
O164 C162 1.270 . S
C165 O158 1.262 . S
C165 O166 1.232 . S
O166 C165 1.232 . S
C167 O159 1.260 . S
C167 O160 1.257 . S
Zn168 O171 2.031 . S
Zn168 O173 2.049 . S
Zn168 O178 2.067 . S
Zn169 O170 1.962 . S
Zn169 O172 1.986 . S
Zn169 O174 1.996 . S
Zn169 O177 1.943 . S
O170 Zn169 1.962 . S
O170 C175 1.254 . S
O171 Zn168 2.031 . S
O171 C175 1.269 . S
O172 Zn169 1.986 . S
O172 C179 1.262 . S
O173 Zn168 2.049 . S
O173 C181 1.260 . S
O174 Zn169 1.996 . S
O174 C181 1.257 . S
C175 O170 1.254 . S
C175 O171 1.269 . S
C176 O177 1.249 . S
C176 O178 1.270 . S
O177 Zn169 1.943 . S
O177 C176 1.249 . S
O178 Zn168 2.067 . S
O178 C176 1.270 . S
C179 O172 1.262 . S
C179 O180 1.232 . S
O180 C179 1.232 . S
C181 O173 1.260 . S
C181 O174 1.257 . S
Zn182 O185 2.031 . S
Zn182 O187 2.049 . S
Zn182 O192 2.067 . S
Zn183 O184 1.962 . S
Zn183 O186 1.986 . S
Zn183 O188 1.996 . S
Zn183 O191 1.943 . S
O184 Zn183 1.962 . S
O184 C189 1.254 . S
O185 Zn182 2.031 . S
O185 C189 1.269 . S
O186 Zn183 1.986 . S
O186 C193 1.262 . S
O187 Zn182 2.049 . S
O187 C195 1.260 . S
O188 Zn183 1.996 . S
O188 C195 1.257 . S
C189 O184 1.254 . S
C189 O185 1.269 . S
C190 O191 1.249 . S
C190 O192 1.270 . S
O191 Zn183 1.943 . S
O191 C190 1.249 . S
O192 Zn182 2.067 . S
O192 C190 1.270 . S
C193 O186 1.262 . S
C193 O194 1.232 . S
O194 C193 1.232 . S
C195 O187 1.260 . S
C195 O188 1.257 . S
Zn196 O199 2.031 . S
Zn196 O201 2.049 . S
Zn196 O206 2.067 . S
Zn197 O198 1.962 . S
Zn197 O200 1.986 . S
Zn197 O202 1.996 . S
Zn197 O205 1.943 . S
O198 Zn197 1.962 . S
O198 C203 1.254 . S
O199 Zn196 2.031 . S
O199 C203 1.269 . S
O200 Zn197 1.986 . S
O200 C207 1.262 . S
O201 Zn196 2.049 . S
O201 C209 1.260 . S
O202 Zn197 1.996 . S
O202 C209 1.257 . S
C203 O198 1.254 . S
C203 O199 1.269 . S
C204 O205 1.249 . S
C204 O206 1.270 . S
O205 Zn197 1.943 . S
O205 C204 1.249 . S
O206 Zn196 2.067 . S
O206 C204 1.270 . S
C207 O200 1.262 . S
C207 O208 1.232 . S
O208 C207 1.232 . S
C209 O201 1.260 . S
C209 O202 1.257 . S
Zn210 O213 2.031 . S
Zn210 O215 2.049 . S
Zn210 O220 2.067 . S
Zn211 O212 1.962 . S
Zn211 O214 1.986 . S
Zn211 O216 1.996 . S
Zn211 O219 1.943 . S
O212 Zn211 1.962 . S
O212 C217 1.254 . S
O213 Zn210 2.031 . S
O213 C217 1.269 . S
O214 Zn211 1.986 . S
O214 C221 1.262 . S
O215 Zn210 2.049 . S
O215 C223 1.260 . S
O216 Zn211 1.996 . S
O216 C223 1.257 . S
C217 O212 1.254 . S
C217 O213 1.269 . S
C218 O219 1.249 . S
C218 O220 1.270 . S
O219 Zn211 1.943 . S
O219 C218 1.249 . S
O220 Zn210 2.067 . S
O220 C218 1.270 . S
C221 O214 1.262 . S
C221 O222 1.232 . S
O222 C221 1.232 . S
C223 O215 1.260 . S
C223 O216 1.257 . S
H224 C236 0.930 . S
H225 C238 0.930 . S
H226 C239 0.930 . S
H227 C243 0.959 . S
H228 C243 0.959 . S
H229 C243 0.961 . S
H230 C244 0.960 . S
H231 C244 0.961 . S
H232 C244 0.959 . S
H233 C247 0.929 . S
H234 C248 0.931 . S
H235 C250 0.930 . S
C236 H224 0.930 . S
C236 C237 1.399 . S
C236 C241 1.399 . S
C237 C236 1.399 . S
C237 C238 1.376 . S
C238 H225 0.930 . S
C238 C237 1.376 . S
C238 C239 1.388 . S
C239 H226 0.930 . S
C239 C238 1.388 . S
C239 C240 1.390 . S
C240 C239 1.390 . S
C240 C241 1.394 . S
C240 C246 1.465 . S
C241 C236 1.399 . S
C241 C240 1.394 . S
C241 C242 1.516 . S
C242 C241 1.516 . S
C242 C243 1.502 . S
C242 C244 1.561 . S
C242 C245 1.526 . S
C243 H227 0.959 . S
C243 H228 0.959 . S
C243 H229 0.961 . S
C243 C242 1.502 . S
C244 H230 0.960 . S
C244 H231 0.961 . S
C244 H232 0.959 . S
C244 C242 1.561 . S
C245 C242 1.526 . S
C245 C246 1.396 . S
C245 C250 1.390 . S
C246 C240 1.465 . S
C246 C245 1.396 . S
C246 C247 1.399 . S
C247 H233 0.929 . S
C247 C246 1.399 . S
C247 C248 1.385 . S
C248 H234 0.931 . S
C248 C247 1.385 . S
C248 C249 1.389 . S
C249 C248 1.389 . S
C249 C250 1.387 . S
C250 H235 0.930 . S
C250 C245 1.390 . S
C250 C249 1.387 . S
H251 C263 0.930 . S
H252 C265 0.930 . S
H253 C266 0.930 . S
H254 C270 0.959 . S
H255 C270 0.959 . S
H256 C270 0.961 . S
H257 C271 0.960 . S
H258 C271 0.961 . S
H259 C271 0.959 . S
H260 C274 0.929 . S
H261 C275 0.931 . S
H262 C277 0.930 . S
C263 H251 0.930 . S
C263 C264 1.399 . S
C263 C268 1.399 . S
C264 C263 1.399 . S
C264 C265 1.376 . S
C265 H252 0.930 . S
C265 C264 1.376 . S
C265 C266 1.388 . S
C266 H253 0.930 . S
C266 C265 1.388 . S
C266 C267 1.390 . S
C267 C266 1.390 . S
C267 C268 1.394 . S
C267 C273 1.465 . S
C268 C263 1.399 . S
C268 C267 1.394 . S
C268 C269 1.516 . S
C269 C268 1.516 . S
C269 C270 1.502 . S
C269 C271 1.561 . S
C269 C272 1.526 . S
C270 H254 0.959 . S
C270 H255 0.959 . S
C270 H256 0.961 . S
C270 C269 1.502 . S
C271 H257 0.960 . S
C271 H258 0.961 . S
C271 H259 0.959 . S
C271 C269 1.561 . S
C272 C269 1.526 . S
C272 C273 1.396 . S
C272 C277 1.390 . S
C273 C267 1.465 . S
C273 C272 1.396 . S
C273 C274 1.399 . S
C274 H260 0.929 . S
C274 C273 1.399 . S
C274 C275 1.385 . S
C275 H261 0.931 . S
C275 C274 1.385 . S
C275 C276 1.389 . S
C276 C275 1.389 . S
C276 C277 1.387 . S
C277 H262 0.930 . S
C277 C272 1.390 . S
C277 C276 1.387 . S
H278 C290 0.930 . S
H279 C292 0.930 . S
H280 C293 0.930 . S
H281 C297 0.959 . S
H282 C297 0.959 . S
H283 C297 0.961 . S
H284 C298 0.960 . S
H285 C298 0.961 . S
H286 C298 0.959 . S
H287 C301 0.929 . S
H288 C302 0.931 . S
H289 C304 0.930 . S
C290 H278 0.930 . S
C290 C291 1.399 . S
C290 C295 1.399 . S
C291 C290 1.399 . S
C291 C292 1.376 . S
C292 H279 0.930 . S
C292 C291 1.376 . S
C292 C293 1.388 . S
C293 H280 0.930 . S
C293 C292 1.388 . S
C293 C294 1.390 . S
C294 C293 1.390 . S
C294 C295 1.394 . S
C294 C300 1.465 . S
C295 C290 1.399 . S
C295 C294 1.394 . S
C295 C296 1.516 . S
C296 C295 1.516 . S
C296 C297 1.502 . S
C296 C298 1.561 . S
C296 C299 1.526 . S
C297 H281 0.959 . S
C297 H282 0.959 . S
C297 H283 0.961 . S
C297 C296 1.502 . S
C298 H284 0.960 . S
C298 H285 0.961 . S
C298 H286 0.959 . S
C298 C296 1.561 . S
C299 C296 1.526 . S
C299 C300 1.396 . S
C299 C304 1.390 . S
C300 C294 1.465 . S
C300 C299 1.396 . S
C300 C301 1.399 . S
C301 H287 0.929 . S
C301 C300 1.399 . S
C301 C302 1.385 . S
C302 H288 0.931 . S
C302 C301 1.385 . S
C302 C303 1.389 . S
C303 C302 1.389 . S
C303 C304 1.387 . S
C304 H289 0.930 . S
C304 C299 1.390 . S
C304 C303 1.387 . S
H305 C317 0.930 . S
H306 C319 0.930 . S
H307 C320 0.930 . S
H308 C324 0.959 . S
H309 C324 0.959 . S
H310 C324 0.961 . S
H311 C325 0.960 . S
H312 C325 0.961 . S
H313 C325 0.959 . S
H314 C328 0.929 . S
H315 C329 0.931 . S
H316 C331 0.930 . S
C317 H305 0.930 . S
C317 C318 1.399 . S
C317 C322 1.399 . S
C318 C317 1.399 . S
C318 C319 1.376 . S
C319 H306 0.930 . S
C319 C318 1.376 . S
C319 C320 1.388 . S
C320 H307 0.930 . S
C320 C319 1.388 . S
C320 C321 1.390 . S
C321 C320 1.390 . S
C321 C322 1.394 . S
C321 C327 1.465 . S
C322 C317 1.399 . S
C322 C321 1.394 . S
C322 C323 1.516 . S
C323 C322 1.516 . S
C323 C324 1.502 . S
C323 C325 1.561 . S
C323 C326 1.526 . S
C324 H308 0.959 . S
C324 H309 0.959 . S
C324 H310 0.961 . S
C324 C323 1.502 . S
C325 H311 0.960 . S
C325 H312 0.961 . S
C325 H313 0.959 . S
C325 C323 1.561 . S
C326 C323 1.526 . S
C326 C327 1.396 . S
C326 C331 1.390 . S
C327 C321 1.465 . S
C327 C326 1.396 . S
C327 C328 1.399 . S
C328 H314 0.929 . S
C328 C327 1.399 . S
C328 C329 1.385 . S
C329 H315 0.931 . S
C329 C328 1.385 . S
C329 C330 1.389 . S
C330 C329 1.389 . S
C330 C331 1.387 . S
C331 H316 0.930 . S
C331 C326 1.390 . S
C331 C330 1.387 . S
H332 C344 0.930 . S
H333 C346 0.930 . S
H334 C347 0.930 . S
H335 C351 0.959 . S
H336 C351 0.959 . S
H337 C351 0.961 . S
H338 C352 0.960 . S
H339 C352 0.961 . S
H340 C352 0.959 . S
H341 C355 0.929 . S
H342 C356 0.931 . S
H343 C358 0.930 . S
C344 H332 0.930 . S
C344 C345 1.399 . S
C344 C349 1.399 . S
C345 C344 1.399 . S
C345 C346 1.376 . S
C346 H333 0.930 . S
C346 C345 1.376 . S
C346 C347 1.388 . S
C347 H334 0.930 . S
C347 C346 1.388 . S
C347 C348 1.390 . S
C348 C347 1.390 . S
C348 C349 1.394 . S
C348 C354 1.465 . S
C349 C344 1.399 . S
C349 C348 1.394 . S
C349 C350 1.516 . S
C350 C349 1.516 . S
C350 C351 1.502 . S
C350 C352 1.561 . S
C350 C353 1.526 . S
C351 H335 0.959 . S
C351 H336 0.959 . S
C351 H337 0.961 . S
C351 C350 1.502 . S
C352 H338 0.960 . S
C352 H339 0.961 . S
C352 H340 0.959 . S
C352 C350 1.561 . S
C353 C350 1.526 . S
C353 C354 1.396 . S
C353 C358 1.390 . S
C354 C348 1.465 . S
C354 C353 1.396 . S
C354 C355 1.399 . S
C355 H341 0.929 . S
C355 C354 1.399 . S
C355 C356 1.385 . S
C356 H342 0.931 . S
C356 C355 1.385 . S
C356 C357 1.389 . S
C357 C356 1.389 . S
C357 C358 1.387 . S
C358 H343 0.930 . S
C358 C353 1.390 . S
C358 C357 1.387 . S
H359 C371 0.930 . S
H360 C373 0.930 . S
H361 C374 0.930 . S
H362 C378 0.959 . S
H363 C378 0.959 . S
H364 C378 0.961 . S
H365 C379 0.960 . S
H366 C379 0.961 . S
H367 C379 0.959 . S
H368 C382 0.929 . S
H369 C383 0.931 . S
H370 C385 0.930 . S
C371 H359 0.930 . S
C371 C372 1.399 . S
C371 C376 1.399 . S
C372 C371 1.399 . S
C372 C373 1.376 . S
C373 H360 0.930 . S
C373 C372 1.376 . S
C373 C374 1.388 . S
C374 H361 0.930 . S
C374 C373 1.388 . S
C374 C375 1.390 . S
C375 C374 1.390 . S
C375 C376 1.394 . S
C375 C381 1.465 . S
C376 C371 1.399 . S
C376 C375 1.394 . S
C376 C377 1.516 . S
C377 C376 1.516 . S
C377 C378 1.502 . S
C377 C379 1.561 . S
C377 C380 1.526 . S
C378 H362 0.959 . S
C378 H363 0.959 . S
C378 H364 0.961 . S
C378 C377 1.502 . S
C379 H365 0.960 . S
C379 H366 0.961 . S
C379 H367 0.959 . S
C379 C377 1.561 . S
C380 C377 1.526 . S
C380 C381 1.396 . S
C380 C385 1.390 . S
C381 C375 1.465 . S
C381 C380 1.396 . S
C381 C382 1.399 . S
C382 H368 0.929 . S
C382 C381 1.399 . S
C382 C383 1.385 . S
C383 H369 0.931 . S
C383 C382 1.385 . S
C383 C384 1.389 . S
C384 C383 1.389 . S
C384 C385 1.387 . S
C385 H370 0.930 . S
C385 C380 1.390 . S
C385 C384 1.387 . S
H386 C398 0.930 . S
H387 C400 0.930 . S
H388 C401 0.930 . S
H389 C405 0.959 . S
H390 C405 0.959 . S
H391 C405 0.961 . S
H392 C406 0.960 . S
H393 C406 0.961 . S
H394 C406 0.959 . S
H395 C409 0.929 . S
H396 C410 0.931 . S
H397 C412 0.930 . S
C398 H386 0.930 . S
C398 C399 1.399 . S
C398 C403 1.399 . S
C399 C398 1.399 . S
C399 C400 1.376 . S
C400 H387 0.930 . S
C400 C399 1.376 . S
C400 C401 1.388 . S
C401 H388 0.930 . S
C401 C400 1.388 . S
C401 C402 1.390 . S
C402 C401 1.390 . S
C402 C403 1.394 . S
C402 C408 1.465 . S
C403 C398 1.399 . S
C403 C402 1.394 . S
C403 C404 1.516 . S
C404 C403 1.516 . S
C404 C405 1.502 . S
C404 C406 1.561 . S
C404 C407 1.526 . S
C405 H389 0.959 . S
C405 H390 0.959 . S
C405 H391 0.961 . S
C405 C404 1.502 . S
C406 H392 0.960 . S
C406 H393 0.961 . S
C406 H394 0.959 . S
C406 C404 1.561 . S
C407 C404 1.526 . S
C407 C408 1.396 . S
C407 C412 1.390 . S
C408 C402 1.465 . S
C408 C407 1.396 . S
C408 C409 1.399 . S
C409 H395 0.929 . S
C409 C408 1.399 . S
C409 C410 1.385 . S
C410 H396 0.931 . S
C410 C409 1.385 . S
C410 C411 1.389 . S
C411 C410 1.389 . S
C411 C412 1.387 . S
C412 H397 0.930 . S
C412 C407 1.390 . S
C412 C411 1.387 . S
H413 C425 0.930 . S
H414 C427 0.930 . S
H415 C428 0.930 . S
H416 C432 0.959 . S
H417 C432 0.959 . S
H418 C432 0.961 . S
H419 C433 0.960 . S
H420 C433 0.961 . S
H421 C433 0.959 . S
H422 C436 0.929 . S
H423 C437 0.931 . S
H424 C439 0.930 . S
C425 H413 0.930 . S
C425 C426 1.399 . S
C425 C430 1.399 . S
C426 C425 1.399 . S
C426 C427 1.376 . S
C427 H414 0.930 . S
C427 C426 1.376 . S
C427 C428 1.388 . S
C428 H415 0.930 . S
C428 C427 1.388 . S
C428 C429 1.390 . S
C429 C428 1.390 . S
C429 C430 1.394 . S
C429 C435 1.465 . S
C430 C425 1.399 . S
C430 C429 1.394 . S
C430 C431 1.516 . S
C431 C430 1.516 . S
C431 C432 1.502 . S
C431 C433 1.561 . S
C431 C434 1.526 . S
C432 H416 0.959 . S
C432 H417 0.959 . S
C432 H418 0.961 . S
C432 C431 1.502 . S
C433 H419 0.960 . S
C433 H420 0.961 . S
C433 H421 0.959 . S
C433 C431 1.561 . S
C434 C431 1.526 . S
C434 C435 1.396 . S
C434 C439 1.390 . S
C435 C429 1.465 . S
C435 C434 1.396 . S
C435 C436 1.399 . S
C436 H422 0.929 . S
C436 C435 1.399 . S
C436 C437 1.385 . S
C437 H423 0.931 . S
C437 C436 1.385 . S
C437 C438 1.389 . S
C438 C437 1.389 . S
C438 C439 1.387 . S
C439 H424 0.930 . S
C439 C434 1.390 . S
C439 C438 1.387 . S
H440 C452 0.930 . S
H441 C454 0.930 . S
H442 C455 0.930 . S
H443 C459 0.959 . S
H444 C459 0.959 . S
H445 C459 0.961 1_556 S
H446 C460 0.960 1_556 S
H447 C460 0.961 . S
H448 C460 0.959 . S
H449 C463 0.929 . S
H450 C464 0.931 . S
H451 C466 0.930 . S
C452 H440 0.930 . S
C452 C453 1.399 . S
C452 C457 1.399 . S
C453 C452 1.399 . S
C453 C454 1.376 . S
C454 H441 0.930 . S
C454 C453 1.376 . S
C454 C455 1.388 . S
C455 H442 0.930 . S
C455 C454 1.388 . S
C455 C456 1.372 1_556 S
C456 C455 1.372 1_554 S
C456 C457 1.381 1_554 S
C456 C462 1.498 . S
C457 C452 1.399 . S
C457 C456 1.381 1_556 S
C457 C458 1.516 1_556 S
C458 C457 1.516 1_554 S
C458 C459 1.502 . S
C458 C460 1.561 . S
C458 C461 1.526 . S
C459 H443 0.959 . S
C459 H444 0.959 . S
C459 H445 0.961 1_554 S
C459 C458 1.502 . S
C460 H446 0.960 1_554 S
C460 H447 0.961 . S
C460 H448 0.959 . S
C460 C458 1.561 . S
C461 C458 1.526 . S
C461 C462 1.396 . S
C461 C466 1.390 . S
C462 C456 1.498 . S
C462 C461 1.396 . S
C462 C463 1.399 . S
C463 H449 0.929 . S
C463 C462 1.399 . S
C463 C464 1.385 . S
C464 H450 0.931 . S
C464 C463 1.385 . S
C464 C465 1.389 . S
C465 C464 1.389 . S
C465 C466 1.387 . S
C466 H451 0.930 . S
C466 C461 1.390 . S
C466 C465 1.387 . S
H467 C479 0.930 . S
H468 C481 0.930 . S
H469 C482 0.930 . S
H470 C486 0.959 . S
H471 C486 0.959 1_554 S
H472 C486 0.961 . S
H473 C487 0.960 . S
H474 C487 0.961 1_554 S
H475 C487 0.959 . S
H476 C490 0.929 . S
H477 C491 0.931 . S
H478 C493 0.930 . S
C479 H467 0.930 . S
C479 C480 1.399 . S
C479 C484 1.399 . S
C480 C479 1.399 . S
C480 C481 1.376 . S
C481 H468 0.930 . S
C481 C480 1.376 . S
C481 C482 1.388 . S
C482 H469 0.930 . S
C482 C481 1.388 . S
C482 C483 1.390 . S
C483 C482 1.390 . S
C483 C484 1.394 . S
C483 C489 1.466 . S
C484 C479 1.399 . S
C484 C483 1.394 . S
C484 C485 1.516 . S
C485 C484 1.516 . S
C485 C486 1.502 . S
C485 C487 1.561 . S
C485 C488 1.526 1_556 S
C486 H470 0.959 . S
C486 H471 0.959 1_556 S
C486 H472 0.961 . S
C486 C485 1.502 . S
C487 H473 0.960 . S
C487 H474 0.961 1_556 S
C487 H475 0.959 . S
C487 C485 1.561 . S
C488 C485 1.526 1_554 S
C488 C489 1.396 1_554 S
C488 C493 1.390 . S
C489 C483 1.466 . S
C489 C488 1.396 1_556 S
C489 C490 1.398 1_556 S
C490 H476 0.929 . S
C490 C489 1.398 1_554 S
C490 C491 1.385 . S
C491 H477 0.931 . S
C491 C490 1.385 . S
C491 C492 1.389 . S
C492 C491 1.389 . S
C492 C493 1.387 . S
C493 H478 0.930 . S
C493 C488 1.390 . S
C493 C492 1.387 . S
H494 C506 0.930 . S
H495 C508 0.930 . S
H496 C509 0.930 . S
H497 C513 0.959 . S
H498 C513 0.959 . S
H499 C513 0.961 . S
H500 C514 0.960 . S
H501 C514 0.961 . S
H502 C514 0.959 . S
H503 C517 0.929 . S
H504 C518 0.931 . S
H505 C520 0.930 . S
C506 H494 0.930 . S
C506 C507 1.399 . S
C506 C511 1.399 . S
C507 C506 1.399 . S
C507 C508 1.376 . S
C508 H495 0.930 . S
C508 C507 1.376 . S
C508 C509 1.388 . S
C509 H496 0.930 . S
C509 C508 1.388 . S
C509 C510 1.390 . S
C510 C509 1.390 . S
C510 C511 1.394 . S
C510 C516 1.465 1_556 S
C511 C506 1.399 . S
C511 C510 1.394 . S
C511 C512 1.516 1_556 S
C512 C511 1.516 1_554 S
C512 C513 1.502 . S
C512 C514 1.561 . S
C512 C515 1.526 . S
C513 H497 0.959 . S
C513 H498 0.959 . S
C513 H499 0.961 . S
C513 C512 1.502 . S
C514 H500 0.960 . S
C514 H501 0.961 . S
C514 H502 0.959 . S
C514 C512 1.561 . S
C515 C512 1.526 . S
C515 C516 1.396 . S
C515 C520 1.390 . S
C516 C510 1.465 1_554 S
C516 C515 1.396 . S
C516 C517 1.399 . S
C517 H503 0.929 . S
C517 C516 1.399 . S
C517 C518 1.385 . S
C518 H504 0.931 . S
C518 C517 1.385 . S
C518 C519 1.389 . S
C519 C518 1.389 . S
C519 C520 1.387 . S
C520 H505 0.930 . S
C520 C515 1.390 . S
C520 C519 1.387 . S
H521 C533 0.930 . S
H522 C535 0.930 . S
H523 C536 0.930 . S
H524 C540 0.959 . S
H525 C540 0.959 . S
H526 C540 0.961 1_554 S
H527 C541 0.960 1_554 S
H528 C541 0.961 . S
H529 C541 0.959 . S
H530 C544 0.929 . S
H531 C545 0.931 . S
H532 C547 0.930 . S
C533 H521 0.930 . S
C533 C534 1.399 . S
C533 C538 1.399 . S
C534 C533 1.399 . S
C534 C535 1.376 . S
C535 H522 0.930 . S
C535 C534 1.376 . S
C535 C536 1.388 . S
C536 H523 0.930 . S
C536 C535 1.388 . S
C536 C537 1.389 1_554 S
C537 C536 1.389 1_556 S
C537 C538 1.393 1_556 S
C537 C543 1.467 . S
C538 C533 1.399 . S
C538 C537 1.393 1_554 S
C538 C539 1.516 1_554 S
C539 C538 1.516 1_556 S
C539 C540 1.502 . S
C539 C541 1.561 . S
C539 C542 1.526 . S
C540 H524 0.959 . S
C540 H525 0.959 . S
C540 H526 0.961 1_556 S
C540 C539 1.502 . S
C541 H527 0.960 1_556 S
C541 H528 0.961 . S
C541 H529 0.959 . S
C541 C539 1.561 . S
C542 C539 1.526 . S
C542 C543 1.396 . S
C542 C547 1.390 . S
C543 C537 1.467 . S
C543 C542 1.396 . S
C543 C544 1.399 . S
C544 H530 0.929 . S
C544 C543 1.399 . S
C544 C545 1.385 . S
C545 H531 0.931 . S
C545 C544 1.385 . S
C545 C546 1.389 . S
C546 C545 1.389 . S
C546 C547 1.387 . S
C547 H532 0.930 . S
C547 C542 1.390 . S
C547 C546 1.387 . S
H548 C560 0.930 . S
H549 C562 0.930 . S
H550 C563 0.930 . S
H551 C567 0.959 . S
H552 C567 0.959 . S
H553 C567 0.961 1_455 S
H554 C568 0.960 1_455 S
H555 C568 0.961 . S
H556 C568 0.959 . S
H557 C571 0.929 . S
H558 C572 0.931 . S
H559 C574 0.930 . S
C560 H548 0.930 . S
C560 C561 1.399 . S
C560 C565 1.399 . S
C561 C560 1.399 . S
C561 C562 1.376 . S
C562 H549 0.930 . S
C562 C561 1.376 . S
C562 C563 1.388 . S
C563 H550 0.930 . S
C563 C562 1.388 . S
C563 C564 1.390 . S
C564 C563 1.390 . S
C564 C565 1.394 . S
C564 C570 1.465 1_455 S
C565 C560 1.399 . S
C565 C564 1.394 . S
C565 C566 1.516 1_455 S
C566 C565 1.516 1_655 S
C566 C567 1.502 . S
C566 C568 1.561 . S
C566 C569 1.526 . S
C567 H551 0.959 . S
C567 H552 0.959 . S
C567 H553 0.961 1_655 S
C567 C566 1.502 . S
C568 H554 0.960 1_655 S
C568 H555 0.961 . S
C568 H556 0.959 . S
C568 C566 1.561 . S
C569 C566 1.526 . S
C569 C570 1.396 . S
C569 C574 1.390 . S
C570 C564 1.465 1_655 S
C570 C569 1.396 . S
C570 C571 1.399 . S
C571 H557 0.929 . S
C571 C570 1.399 . S
C571 C572 1.385 . S
C572 H558 0.931 . S
C572 C571 1.385 . S
C572 C573 1.389 . S
C573 C572 1.389 . S
C573 C574 1.387 . S
C574 H559 0.930 . S
C574 C569 1.390 . S
C574 C573 1.387 . S
H575 C587 0.930 . S
H576 C589 0.930 . S
H577 C590 0.930 . S
H578 C594 0.959 . S
H579 C594 0.959 . S
H580 C594 0.961 1_565 S
H581 C595 0.960 1_565 S
H582 C595 0.961 . S
H583 C595 0.959 . S
H584 C598 0.929 . S
H585 C599 0.931 . S
H586 C601 0.930 . S
C587 H575 0.930 . S
C587 C588 1.399 . S
C587 C592 1.399 . S
C588 C587 1.399 . S
C588 C589 1.376 . S
C589 H576 0.930 . S
C589 C588 1.376 . S
C589 C590 1.388 . S
C590 H577 0.930 . S
C590 C589 1.388 . S
C590 C591 1.376 1_565 S
C591 C590 1.376 1_545 S
C591 C592 1.384 1_545 S
C591 C597 1.489 . S
C592 C587 1.399 . S
C592 C591 1.384 1_565 S
C592 C593 1.516 1_565 S
C593 C592 1.516 1_545 S
C593 C594 1.502 . S
C593 C595 1.561 . S
C593 C596 1.526 . S
C594 H578 0.959 . S
C594 H579 0.959 . S
C594 H580 0.961 1_545 S
C594 C593 1.502 . S
C595 H581 0.960 1_545 S
C595 H582 0.961 . S
C595 H583 0.959 . S
C595 C593 1.561 . S
C596 C593 1.526 . S
C596 C597 1.396 . S
C596 C601 1.390 . S
C597 C591 1.489 . S
C597 C596 1.396 . S
C597 C598 1.399 . S
C598 H584 0.929 . S
C598 C597 1.399 . S
C598 C599 1.385 . S
C599 H585 0.931 . S
C599 C598 1.385 . S
C599 C600 1.389 . S
C600 C599 1.389 . S
C600 C601 1.387 . S
C601 H586 0.930 . S
C601 C596 1.390 . S
C601 C600 1.387 . S
H602 C614 0.930 . S
H603 C616 0.930 . S
H604 C617 0.930 . S
H605 C621 0.959 . S
H606 C621 0.958 . S
H607 C621 0.962 1_655 S
H608 C622 0.960 1_655 S
H609 C622 0.961 . S
H610 C622 0.959 . S
H611 C625 0.929 . S
H612 C626 0.931 . S
H613 C628 0.930 . S
C614 H602 0.930 . S
C614 C615 1.399 . S
C614 C619 1.399 . S
C615 C614 1.399 . S
C615 C616 1.376 . S
C616 H603 0.930 . S
C616 C615 1.376 . S
C616 C617 1.388 . S
C617 H604 0.930 . S
C617 C616 1.388 . S
C617 C618 1.390 . S
C618 C617 1.390 . S
C618 C619 1.394 . S
C618 C624 1.465 1_655 S
C619 C614 1.399 . S
C619 C618 1.394 . S
C619 C620 1.490 1_655 S
C620 C619 1.490 1_455 S
C620 C621 1.501 . S
C620 C622 1.564 . S
C620 C623 1.551 . S
C621 H605 0.959 . S
C621 H606 0.958 . S
C621 H607 0.962 1_455 S
C621 C620 1.501 . S
C622 H608 0.960 1_455 S
C622 H609 0.961 . S
C622 H610 0.959 . S
C622 C620 1.564 . S
C623 C620 1.551 . S
C623 C624 1.396 . S
C623 C628 1.390 . S
C624 C618 1.465 1_455 S
C624 C623 1.396 . S
C624 C625 1.399 . S
C625 H611 0.929 . S
C625 C624 1.399 . S
C625 C626 1.385 . S
C626 H612 0.931 . S
C626 C625 1.385 . S
C626 C627 1.389 . S
C627 C626 1.389 . S
C627 C628 1.387 . S
C628 H613 0.930 . S
C628 C623 1.390 . S
C628 C627 1.387 . S
H629 C641 0.930 . S
H630 C643 0.930 . S
H631 C644 0.930 . S
H632 C648 0.959 . S
H633 C648 0.959 . S
H634 C648 0.961 1_545 S
H635 C649 0.960 1_545 S
H636 C649 0.961 . S
H637 C649 0.959 . S
H638 C652 0.929 . S
H639 C653 0.931 . S
H640 C655 0.930 . S
C641 H629 0.930 . S
C641 C642 1.399 . S
C641 C646 1.399 . S
C642 C641 1.399 . S
C642 C643 1.376 . S
C643 H630 0.930 . S
C643 C642 1.376 . S
C643 C644 1.388 . S
C644 H631 0.930 . S
C644 C643 1.388 . S
C644 C645 1.371 1_545 S
C645 C644 1.371 1_565 S
C645 C646 1.380 1_565 S
C645 C651 1.498 . S
C646 C641 1.399 . S
C646 C645 1.380 1_545 S
C646 C647 1.516 1_545 S
C647 C646 1.516 1_565 S
C647 C648 1.502 . S
C647 C649 1.561 . S
C647 C650 1.526 . S
C648 H632 0.959 . S
C648 H633 0.959 . S
C648 H634 0.961 1_565 S
C648 C647 1.502 . S
C649 H635 0.960 1_565 S
C649 H636 0.961 . S
C649 H637 0.959 . S
C649 C647 1.561 . S
C650 C647 1.526 . S
C650 C651 1.396 . S
C650 C655 1.390 . S
C651 C645 1.498 . S
C651 C650 1.396 . S
C651 C652 1.399 . S
C652 H638 0.929 . S
C652 C651 1.399 . S
C652 C653 1.385 . S
C653 H639 0.931 . S
C653 C652 1.385 . S
C653 C654 1.389 . S
C654 C653 1.389 . S
C654 C655 1.387 . S
C655 H640 0.930 . S
C655 C650 1.390 . S
C655 C654 1.387 . S
H656 C668 0.930 . S
H657 C670 0.930 . S
H658 C671 0.930 . S
H659 C675 0.959 . S
H660 C675 0.958 . S
H661 C675 0.962 1_655 S
H662 C676 0.960 1_655 S
H663 C676 0.961 . S
H664 C676 0.959 . S
H665 C679 0.929 . S
H666 C680 0.931 . S
H667 C682 0.930 . S
C668 H656 0.930 . S
C668 C669 1.399 . S
C668 C673 1.399 . S
C669 C668 1.399 . S
C669 C670 1.376 . S
C670 H657 0.930 . S
C670 C669 1.376 . S
C670 C671 1.388 . S
C671 H658 0.930 . S
C671 C670 1.388 . S
C671 C672 1.390 . S
C672 C671 1.390 . S
C672 C673 1.394 . S
C672 C678 1.465 1_655 S
C673 C668 1.399 . S
C673 C672 1.394 . S
C673 C674 1.490 1_655 S
C674 C673 1.490 1_455 S
C674 C675 1.501 . S
C674 C676 1.564 . S
C674 C677 1.552 . S
C675 H659 0.959 . S
C675 H660 0.958 . S
C675 H661 0.962 1_455 S
C675 C674 1.501 . S
C676 H662 0.960 1_455 S
C676 H663 0.961 . S
C676 H664 0.959 . S
C676 C674 1.564 . S
C677 C674 1.552 . S
C677 C678 1.396 . S
C677 C682 1.390 . S
C678 C672 1.465 1_455 S
C678 C677 1.396 . S
C678 C679 1.399 . S
C679 H665 0.929 . S
C679 C678 1.399 . S
C679 C680 1.385 . S
C680 H666 0.931 . S
C680 C679 1.385 . S
C680 C681 1.389 . S
C681 C680 1.389 . S
C681 C682 1.387 . S
C682 H667 0.930 . S
C682 C677 1.390 . S
C682 C681 1.387 . S
H683 C695 0.930 . S
H684 C697 0.930 . S
H685 C698 0.930 . S
H686 C702 0.959 . S
H687 C702 0.959 . S
H688 C702 0.961 . S
H689 C703 0.960 . S
H690 C703 0.961 . S
H691 C703 0.959 . S
H692 C706 0.929 . S
H693 C707 0.931 . S
H694 C709 0.930 . S
C695 H683 0.930 . S
C695 C696 1.399 . S
C695 C700 1.399 . S
C696 C695 1.399 . S
C696 C697 1.376 . S
C697 H684 0.930 . S
C697 C696 1.376 . S
C697 C698 1.388 . S
C698 H685 0.930 . S
C698 C697 1.388 . S
C698 C699 1.390 . S
C699 C698 1.390 . S
C699 C700 1.394 . S
C699 C705 1.465 1_565 S
C700 C695 1.399 . S
C700 C699 1.394 . S
C700 C701 1.516 1_565 S
C701 C700 1.516 1_545 S
C701 C702 1.502 . S
C701 C703 1.561 . S
C701 C704 1.526 . S
C702 H686 0.959 . S
C702 H687 0.959 . S
C702 H688 0.961 . S
C702 C701 1.502 . S
C703 H689 0.960 . S
C703 H690 0.961 . S
C703 H691 0.959 . S
C703 C701 1.561 . S
C704 C701 1.526 . S
C704 C705 1.396 . S
C704 C709 1.390 . S
C705 C699 1.465 1_545 S
C705 C704 1.396 . S
C705 C706 1.399 . S
C706 H692 0.929 . S
C706 C705 1.399 . S
C706 C707 1.385 . S
C707 H693 0.931 . S
C707 C706 1.385 . S
C707 C708 1.389 . S
C708 C707 1.389 . S
C708 C709 1.387 . S
C709 H694 0.930 . S
C709 C704 1.390 . S
C709 C708 1.387 . S
H710 C722 0.930 . S
H711 C724 0.930 . S
H712 C725 0.930 . S
H713 C729 0.959 . S
H714 C729 0.959 1_655 S
H715 C729 0.961 . S
H716 C730 0.960 . S
H717 C730 0.961 1_655 S
H718 C730 0.959 1_655 S
H719 C733 0.929 . S
H720 C734 0.931 . S
H721 C736 0.930 . S
C722 H710 0.930 . S
C722 C723 1.399 . S
C722 C727 1.399 . S
C723 C722 1.399 . S
C723 C724 1.376 . S
C724 H711 0.930 . S
C724 C723 1.376 . S
C724 C725 1.388 . S
C725 H712 0.930 . S
C725 C724 1.388 . S
C725 C726 1.390 . S
C726 C725 1.390 . S
C726 C727 1.394 . S
C726 C732 1.465 1_455 S
C727 C722 1.399 . S
C727 C726 1.394 . S
C727 C728 1.516 . S
C728 C727 1.516 . S
C728 C729 1.502 . S
C728 C730 1.561 . S
C728 C731 1.526 1_455 S
C729 H713 0.959 . S
C729 H714 0.959 1_455 S
C729 H715 0.961 . S
C729 C728 1.502 . S
C730 H716 0.960 . S
C730 H717 0.961 1_455 S
C730 H718 0.959 1_455 S
C730 C728 1.561 . S
C731 C728 1.526 1_655 S
C731 C732 1.396 . S
C731 C736 1.390 . S
C732 C726 1.465 1_655 S
C732 C731 1.396 . S
C732 C733 1.399 . S
C733 H719 0.929 . S
C733 C732 1.399 . S
C733 C734 1.385 . S
C734 H720 0.931 . S
C734 C733 1.385 . S
C734 C735 1.389 . S
C735 C734 1.389 . S
C735 C736 1.387 . S
C736 H721 0.930 . S
C736 C731 1.390 . S
C736 C735 1.387 . S
H737 C749 0.930 . S
H738 C751 0.930 . S
H739 C752 0.930 . S
H740 C756 0.959 . S
H741 C756 0.958 . S
H742 C756 0.961 . S
H743 C757 0.960 . S
H744 C757 0.961 . S
H745 C757 0.959 . S
H746 C760 0.929 . S
H747 C761 0.931 . S
H748 C763 0.930 . S
C749 H737 0.930 . S
C749 C750 1.399 . S
C749 C754 1.399 . S
C750 C749 1.399 . S
C750 C751 1.376 . S
C751 H738 0.930 . S
C751 C750 1.376 . S
C751 C752 1.388 . S
C752 H739 0.930 . S
C752 C751 1.388 . S
C752 C753 1.390 . S
C753 C752 1.390 . S
C753 C754 1.394 . S
C753 C759 1.465 1_565 S
C754 C749 1.399 . S
C754 C753 1.394 . S
C754 C755 1.516 . S
C755 C754 1.516 . S
C755 C756 1.502 . S
C755 C757 1.561 . S
C755 C758 1.526 1_565 S
C756 H740 0.959 . S
C756 H741 0.958 . S
C756 H742 0.961 . S
C756 C755 1.502 . S
C757 H743 0.960 . S
C757 H744 0.961 . S
C757 H745 0.959 . S
C757 C755 1.561 . S
C758 C755 1.526 1_545 S
C758 C759 1.396 . S
C758 C763 1.390 . S
C759 C753 1.465 1_545 S
C759 C758 1.396 . S
C759 C760 1.399 . S
C760 H746 0.929 . S
C760 C759 1.399 . S
C760 C761 1.385 . S
C761 H747 0.931 . S
C761 C760 1.385 . S
C761 C762 1.389 . S
C762 C761 1.389 . S
C762 C763 1.387 . S
C763 H748 0.930 . S
C763 C758 1.390 . S
C763 C762 1.387 . S
H764 C776 0.930 . S
H765 C778 0.930 . S
H766 C779 0.930 . S
H767 C783 0.959 . S
H768 C783 0.959 . S
H769 C783 0.961 . S
H770 C784 0.960 . S
H771 C784 0.961 . S
H772 C784 0.959 . S
H773 C787 0.929 . S
H774 C788 0.931 . S
H775 C790 0.930 . S
C776 H764 0.930 . S
C776 C777 1.399 . S
C776 C781 1.399 . S
C777 C776 1.399 . S
C777 C778 1.376 . S
C778 H765 0.930 . S
C778 C777 1.376 . S
C778 C779 1.388 . S
C779 H766 0.930 . S
C779 C778 1.388 . S
C779 C780 1.390 . S
C780 C779 1.390 . S
C780 C781 1.394 . S
C780 C786 1.465 . S
C781 C776 1.399 . S
C781 C780 1.394 . S
C781 C782 1.516 . S
C782 C781 1.516 . S
C782 C783 1.502 . S
C782 C784 1.561 . S
C782 C785 1.526 . S
C783 H767 0.959 . S
C783 H768 0.959 . S
C783 H769 0.961 . S
C783 C782 1.502 . S
C784 H770 0.960 . S
C784 H771 0.961 . S
C784 H772 0.959 . S
C784 C782 1.561 . S
C785 C782 1.526 . S
C785 C786 1.396 . S
C785 C790 1.390 . S
C786 C780 1.465 . S
C786 C785 1.396 . S
C786 C787 1.399 . S
C787 H773 0.929 . S
C787 C786 1.399 . S
C787 C788 1.385 . S
C788 H774 0.931 . S
C788 C787 1.385 . S
C788 C789 1.389 . S
C789 C788 1.389 . S
C789 C790 1.387 . S
C790 H775 0.930 . S
C790 C785 1.390 . S
C790 C789 1.387 . S
H791 C803 0.930 . S
H792 C805 0.930 . S
H793 C806 0.930 . S
H794 C810 0.959 . S
H795 C810 0.959 . S
H796 C810 0.961 . S
H797 C811 0.960 . S
H798 C811 0.961 . S
H799 C811 0.959 . S
H800 C814 0.929 . S
H801 C815 0.931 . S
H802 C817 0.930 . S
C803 H791 0.930 . S
C803 C804 1.399 . S
C803 C808 1.399 . S
C804 C803 1.399 . S
C804 C805 1.376 . S
C805 H792 0.930 . S
C805 C804 1.376 . S
C805 C806 1.388 . S
C806 H793 0.930 . S
C806 C805 1.388 . S
C806 C807 1.390 . S
C807 C806 1.390 . S
C807 C808 1.394 . S
C807 C813 1.465 . S
C808 C803 1.399 . S
C808 C807 1.394 . S
C808 C809 1.516 . S
C809 C808 1.516 . S
C809 C810 1.502 . S
C809 C811 1.561 . S
C809 C812 1.526 . S
C810 H794 0.959 . S
C810 H795 0.959 . S
C810 H796 0.961 . S
C810 C809 1.502 . S
C811 H797 0.960 . S
C811 H798 0.961 . S
C811 H799 0.959 . S
C811 C809 1.561 . S
C812 C809 1.526 . S
C812 C813 1.396 . S
C812 C817 1.390 . S
C813 C807 1.465 . S
C813 C812 1.396 . S
C813 C814 1.399 . S
C814 H800 0.929 . S
C814 C813 1.399 . S
C814 C815 1.385 . S
C815 H801 0.931 . S
C815 C814 1.385 . S
C815 C816 1.389 . S
C816 C815 1.389 . S
C816 C817 1.387 . S
C817 H802 0.930 . S
C817 C812 1.390 . S
C817 C816 1.387 . S
H818 C830 0.930 . S
H819 C832 0.930 . S
H820 C833 0.930 . S
H821 C837 0.959 . S
H822 C837 0.959 . S
H823 C837 0.961 . S
H824 C838 0.960 . S
H825 C838 0.961 . S
H826 C838 0.959 . S
H827 C841 0.929 . S
H828 C842 0.931 . S
H829 C844 0.930 . S
C830 H818 0.930 . S
C830 C831 1.399 . S
C830 C835 1.399 . S
C831 C830 1.399 . S
C831 C832 1.376 . S
C832 H819 0.930 . S
C832 C831 1.376 . S
C832 C833 1.388 . S
C833 H820 0.930 . S
C833 C832 1.388 . S
C833 C834 1.390 . S
C834 C833 1.390 . S
C834 C835 1.394 . S
C834 C840 1.465 . S
C835 C830 1.399 . S
C835 C834 1.394 . S
C835 C836 1.516 . S
C836 C835 1.516 . S
C836 C837 1.502 . S
C836 C838 1.561 . S
C836 C839 1.526 . S
C837 H821 0.959 . S
C837 H822 0.959 . S
C837 H823 0.961 . S
C837 C836 1.502 . S
C838 H824 0.960 . S
C838 H825 0.961 . S
C838 H826 0.959 . S
C838 C836 1.561 . S
C839 C836 1.526 . S
C839 C840 1.396 . S
C839 C844 1.390 . S
C840 C834 1.465 . S
C840 C839 1.396 . S
C840 C841 1.399 . S
C841 H827 0.929 . S
C841 C840 1.399 . S
C841 C842 1.385 . S
C842 H828 0.931 . S
C842 C841 1.385 . S
C842 C843 1.389 . S
C843 C842 1.389 . S
C843 C844 1.387 . S
C844 H829 0.930 . S
C844 C839 1.390 . S
C844 C843 1.387 . S
H845 C857 0.930 . S
H846 C859 0.930 . S
H847 C860 0.930 . S
H848 C864 0.959 . S
H849 C864 0.959 . S
H850 C864 0.961 . S
H851 C865 0.960 . S
H852 C865 0.961 . S
H853 C865 0.959 . S
H854 C868 0.929 . S
H855 C869 0.931 . S
H856 C871 0.930 . S
C857 H845 0.930 . S
C857 C858 1.399 . S
C857 C862 1.399 . S
C858 C857 1.399 . S
C858 C859 1.376 . S
C859 H846 0.930 . S
C859 C858 1.376 . S
C859 C860 1.388 . S
C860 H847 0.930 . S
C860 C859 1.388 . S
C860 C861 1.390 . S
C861 C860 1.390 . S
C861 C862 1.394 . S
C861 C867 1.465 . S
C862 C857 1.399 . S
C862 C861 1.394 . S
C862 C863 1.516 . S
C863 C862 1.516 . S
C863 C864 1.502 . S
C863 C865 1.561 . S
C863 C866 1.526 . S
C864 H848 0.959 . S
C864 H849 0.959 . S
C864 H850 0.961 . S
C864 C863 1.502 . S
C865 H851 0.960 . S
C865 H852 0.961 . S
C865 H853 0.959 . S
C865 C863 1.561 . S
C866 C863 1.526 . S
C866 C867 1.396 . S
C866 C871 1.390 . S
C867 C861 1.465 . S
C867 C866 1.396 . S
C867 C868 1.399 . S
C868 H854 0.929 . S
C868 C867 1.399 . S
C868 C869 1.385 . S
C869 H855 0.931 . S
C869 C868 1.385 . S
C869 C870 1.389 . S
C870 C869 1.389 . S
C870 C871 1.387 . S
C871 H856 0.930 . S
C871 C866 1.390 . S
C871 C870 1.387 . S
H872 C884 0.930 . S
H873 C886 0.930 . S
H874 C887 0.930 . S
H875 C891 0.959 . S
H876 C891 0.959 . S
H877 C891 0.961 . S
H878 C892 0.960 . S
H879 C892 0.961 . S
H880 C892 0.959 . S
H881 C895 0.929 . S
H882 C896 0.931 . S
H883 C898 0.930 . S
C884 H872 0.930 . S
C884 C885 1.399 . S
C884 C889 1.399 . S
C885 C884 1.399 . S
C885 C886 1.376 . S
C886 H873 0.930 . S
C886 C885 1.376 . S
C886 C887 1.388 . S
C887 H874 0.930 . S
C887 C886 1.388 . S
C887 C888 1.390 . S
C888 C887 1.390 . S
C888 C889 1.394 . S
C888 C894 1.465 . S
C889 C884 1.399 . S
C889 C888 1.394 . S
C889 C890 1.516 . S
C890 C889 1.516 . S
C890 C891 1.502 . S
C890 C892 1.561 . S
C890 C893 1.526 . S
C891 H875 0.959 . S
C891 H876 0.959 . S
C891 H877 0.961 . S
C891 C890 1.502 . S
C892 H878 0.960 . S
C892 H879 0.961 . S
C892 H880 0.959 . S
C892 C890 1.561 . S
C893 C890 1.526 . S
C893 C894 1.396 . S
C893 C898 1.390 . S
C894 C888 1.465 . S
C894 C893 1.396 . S
C894 C895 1.399 . S
C895 H881 0.929 . S
C895 C894 1.399 . S
C895 C896 1.385 . S
C896 H882 0.931 . S
C896 C895 1.385 . S
C896 C897 1.389 . S
C897 C896 1.389 . S
C897 C898 1.387 . S
C898 H883 0.930 . S
C898 C893 1.390 . S
C898 C897 1.387 . S
H899 C911 0.930 . S
H900 C913 0.930 . S
H901 C914 0.930 . S
H902 C918 0.959 . S
H903 C918 0.959 . S
H904 C918 0.961 . S
H905 C919 0.960 . S
H906 C919 0.961 . S
H907 C919 0.959 . S
H908 C922 0.929 . S
H909 C923 0.931 . S
H910 C925 0.930 . S
C911 H899 0.930 . S
C911 C912 1.399 . S
C911 C916 1.399 . S
C912 C911 1.399 . S
C912 C913 1.376 . S
C913 H900 0.930 . S
C913 C912 1.376 . S
C913 C914 1.388 . S
C914 H901 0.930 . S
C914 C913 1.388 . S
C914 C915 1.390 . S
C915 C914 1.390 . S
C915 C916 1.394 . S
C915 C921 1.465 . S
C916 C911 1.399 . S
C916 C915 1.394 . S
C916 C917 1.516 . S
C917 C916 1.516 . S
C917 C918 1.502 . S
C917 C919 1.561 . S
C917 C920 1.526 . S
C918 H902 0.959 . S
C918 H903 0.959 . S
C918 H904 0.961 . S
C918 C917 1.502 . S
C919 H905 0.960 . S
C919 H906 0.961 . S
C919 H907 0.959 . S
C919 C917 1.561 . S
C920 C917 1.526 . S
C920 C921 1.396 . S
C920 C925 1.390 . S
C921 C915 1.465 . S
C921 C920 1.396 . S
C921 C922 1.399 . S
C922 H908 0.929 . S
C922 C921 1.399 . S
C922 C923 1.385 . S
C923 H909 0.931 . S
C923 C922 1.385 . S
C923 C924 1.389 . S
C924 C923 1.389 . S
C924 C925 1.387 . S
C925 H910 0.930 . S
C925 C920 1.390 . S
C925 C924 1.387 . S
H926 C938 0.930 . S
H927 C940 0.930 . S
H928 C941 0.930 . S
H929 C945 0.959 . S
H930 C945 0.959 . S
H931 C945 0.961 . S
H932 C946 0.960 . S
H933 C946 0.961 . S
H934 C946 0.959 . S
H935 C949 0.929 . S
H936 C950 0.931 . S
H937 C952 0.930 . S
C938 H926 0.930 . S
C938 C939 1.399 . S
C938 C943 1.399 . S
C939 C938 1.399 . S
C939 C940 1.376 . S
C940 H927 0.930 . S
C940 C939 1.376 . S
C940 C941 1.388 . S
C941 H928 0.930 . S
C941 C940 1.388 . S
C941 C942 1.390 . S
C942 C941 1.390 . S
C942 C943 1.394 . S
C942 C948 1.465 . S
C943 C938 1.399 . S
C943 C942 1.394 . S
C943 C944 1.516 . S
C944 C943 1.516 . S
C944 C945 1.502 . S
C944 C946 1.561 . S
C944 C947 1.526 . S
C945 H929 0.959 . S
C945 H930 0.959 . S
C945 H931 0.961 . S
C945 C944 1.502 . S
C946 H932 0.960 . S
C946 H933 0.961 . S
C946 H934 0.959 . S
C946 C944 1.561 . S
C947 C944 1.526 . S
C947 C948 1.396 . S
C947 C952 1.390 . S
C948 C942 1.465 . S
C948 C947 1.396 . S
C948 C949 1.399 . S
C949 H935 0.929 . S
C949 C948 1.399 . S
C949 C950 1.385 . S
C950 H936 0.931 . S
C950 C949 1.385 . S
C950 C951 1.389 . S
C951 C950 1.389 . S
C951 C952 1.387 . S
C952 H937 0.930 . S
C952 C947 1.390 . S
C952 C951 1.387 . S
H953 C965 0.930 . S
H954 C967 0.930 . S
H955 C968 0.930 . S
H956 C972 0.959 . S
H957 C972 0.959 . S
H958 C972 0.961 . S
H959 C973 0.960 . S
H960 C973 0.961 . S
H961 C973 0.959 . S
H962 C976 0.929 . S
H963 C977 0.931 . S
H964 C979 0.930 . S
C965 H953 0.930 . S
C965 C966 1.399 . S
C965 C970 1.399 . S
C966 C965 1.399 . S
C966 C967 1.376 . S
C967 H954 0.930 . S
C967 C966 1.376 . S
C967 C968 1.388 . S
C968 H955 0.930 . S
C968 C967 1.388 . S
C968 C969 1.390 . S
C969 C968 1.390 . S
C969 C970 1.394 . S
C969 C975 1.465 . S
C970 C965 1.399 . S
C970 C969 1.394 . S
C970 C971 1.516 . S
C971 C970 1.516 . S
C971 C972 1.502 . S
C971 C973 1.561 . S
C971 C974 1.526 . S
C972 H956 0.959 . S
C972 H957 0.959 . S
C972 H958 0.961 . S
C972 C971 1.502 . S
C973 H959 0.960 . S
C973 H960 0.961 . S
C973 H961 0.959 . S
C973 C971 1.561 . S
C974 C971 1.526 . S
C974 C975 1.396 . S
C974 C979 1.390 . S
C975 C969 1.465 . S
C975 C974 1.396 . S
C975 C976 1.399 . S
C976 H962 0.929 . S
C976 C975 1.399 . S
C976 C977 1.385 . S
C977 H963 0.931 . S
C977 C976 1.385 . S
C977 C978 1.389 . S
C978 C977 1.389 . S
C978 C979 1.387 . S
C979 H964 0.930 . S
C979 C974 1.390 . S
C979 C978 1.387 . S
H980 C992 0.930 . S
H981 C994 0.930 . S
H982 C995 0.930 . S
H983 C999 0.959 . S
H984 C999 0.959 . S
H985 C999 0.961 . S
H986 C1000 0.960 . S
H987 C1000 0.961 . S
H988 C1000 0.959 . S
H989 C1003 0.929 . S
H990 C1004 0.931 . S
H991 C1006 0.930 . S
C992 H980 0.930 . S
C992 C993 1.399 . S
C992 C997 1.399 . S
C993 C992 1.399 . S
C993 C994 1.376 . S
C994 H981 0.930 . S
C994 C993 1.376 . S
C994 C995 1.388 . S
C995 H982 0.930 . S
C995 C994 1.388 . S
C995 C996 1.390 . S
C996 C995 1.390 . S
C996 C997 1.394 . S
C996 C1002 1.465 . S
C997 C992 1.399 . S
C997 C996 1.394 . S
C997 C998 1.516 . S
C998 C997 1.516 . S
C998 C999 1.502 . S
C998 C1000 1.561 . S
C998 C1001 1.526 . S
C999 H983 0.959 . S
C999 H984 0.959 . S
C999 H985 0.961 . S
C999 C998 1.502 . S
C1000 H986 0.960 . S
C1000 H987 0.961 . S
C1000 H988 0.959 . S
C1000 C998 1.561 . S
C1001 C998 1.526 . S
C1001 C1002 1.396 . S
C1001 C1006 1.390 . S
C1002 C996 1.465 . S
C1002 C1001 1.396 . S
C1002 C1003 1.399 . S
C1003 H989 0.929 . S
C1003 C1002 1.399 . S
C1003 C1004 1.385 . S
C1004 H990 0.931 . S
C1004 C1003 1.385 . S
C1004 C1005 1.389 . S
C1005 C1004 1.389 . S
C1005 C1006 1.387 . S
C1006 H991 0.930 . S
C1006 C1001 1.390 . S
C1006 C1005 1.387 . S
H1007 C1019 0.930 . S
H1008 C1021 0.930 . S
H1009 C1022 0.930 . S
H1010 C1026 0.959 . S
H1011 C1026 0.959 . S
H1012 C1026 0.961 . S
H1013 C1027 0.960 . S
H1014 C1027 0.961 . S
H1015 C1027 0.959 . S
H1016 C1030 0.929 . S
H1017 C1031 0.931 . S
H1018 C1033 0.930 . S
C1019 H1007 0.930 . S
C1019 C1020 1.399 . S
C1019 C1024 1.399 . S
C1020 C1019 1.399 . S
C1020 C1021 1.376 . S
C1021 H1008 0.930 . S
C1021 C1020 1.376 . S
C1021 C1022 1.388 . S
C1022 H1009 0.930 . S
C1022 C1021 1.388 . S
C1022 C1023 1.390 . S
C1023 C1022 1.390 . S
C1023 C1024 1.394 . S
C1023 C1029 1.465 . S
C1024 C1019 1.399 . S
C1024 C1023 1.394 . S
C1024 C1025 1.516 . S
C1025 C1024 1.516 . S
C1025 C1026 1.502 . S
C1025 C1027 1.561 . S
C1025 C1028 1.526 . S
C1026 H1010 0.959 . S
C1026 H1011 0.959 . S
C1026 H1012 0.961 . S
C1026 C1025 1.502 . S
C1027 H1013 0.960 . S
C1027 H1014 0.961 . S
C1027 H1015 0.959 . S
C1027 C1025 1.561 . S
C1028 C1025 1.526 . S
C1028 C1029 1.396 . S
C1028 C1033 1.390 . S
C1029 C1023 1.465 . S
C1029 C1028 1.396 . S
C1029 C1030 1.399 . S
C1030 H1016 0.929 . S
C1030 C1029 1.399 . S
C1030 C1031 1.385 . S
C1031 H1017 0.931 . S
C1031 C1030 1.385 . S
C1031 C1032 1.389 . S
C1032 C1031 1.389 . S
C1032 C1033 1.387 . S
C1033 H1018 0.930 . S
C1033 C1028 1.390 . S
C1033 C1032 1.387 . S
H1034 C1046 0.930 . S
H1035 C1048 0.930 . S
H1036 C1049 0.930 . S
H1037 C1053 0.959 . S
H1038 C1053 0.959 . S
H1039 C1053 0.961 . S
H1040 C1054 0.960 . S
H1041 C1054 0.961 . S
H1042 C1054 0.959 . S
H1043 C1057 0.929 . S
H1044 C1058 0.931 . S
H1045 C1060 0.930 . S
C1046 H1034 0.930 . S
C1046 C1047 1.399 . S
C1046 C1051 1.399 . S
C1047 C1046 1.399 . S
C1047 C1048 1.376 . S
C1048 H1035 0.930 . S
C1048 C1047 1.376 . S
C1048 C1049 1.388 . S
C1049 H1036 0.930 . S
C1049 C1048 1.388 . S
C1049 C1050 1.390 . S
C1050 C1049 1.390 . S
C1050 C1051 1.394 . S
C1050 C1056 1.465 . S
C1051 C1046 1.399 . S
C1051 C1050 1.394 . S
C1051 C1052 1.516 . S
C1052 C1051 1.516 . S
C1052 C1053 1.502 . S
C1052 C1054 1.561 . S
C1052 C1055 1.526 . S
C1053 H1037 0.959 . S
C1053 H1038 0.959 . S
C1053 H1039 0.961 . S
C1053 C1052 1.502 . S
C1054 H1040 0.960 . S
C1054 H1041 0.961 . S
C1054 H1042 0.959 . S
C1054 C1052 1.561 . S
C1055 C1052 1.526 . S
C1055 C1056 1.396 . S
C1055 C1060 1.390 . S
C1056 C1050 1.465 . S
C1056 C1055 1.396 . S
C1056 C1057 1.399 . S
C1057 H1043 0.929 . S
C1057 C1056 1.399 . S
C1057 C1058 1.385 . S
C1058 H1044 0.931 . S
C1058 C1057 1.385 . S
C1058 C1059 1.389 . S
C1059 C1058 1.389 . S
C1059 C1060 1.387 . S
C1060 H1045 0.930 . S
C1060 C1055 1.390 . S
C1060 C1059 1.387 . S
H1061 C1073 0.930 . S
H1062 C1075 0.930 . S
H1063 C1076 0.930 . S
H1064 C1080 0.959 . S
H1065 C1080 0.959 . S
H1066 C1080 0.961 . S
H1067 C1081 0.960 . S
H1068 C1081 0.961 . S
H1069 C1081 0.959 . S
H1070 C1084 0.929 . S
H1071 C1085 0.931 . S
H1072 C1087 0.930 . S
C1073 H1061 0.930 . S
C1073 C1074 1.399 . S
C1073 C1078 1.399 . S
C1074 C1073 1.399 . S
C1074 C1075 1.376 . S
C1075 H1062 0.930 . S
C1075 C1074 1.376 . S
C1075 C1076 1.388 . S
C1076 H1063 0.930 . S
C1076 C1075 1.388 . S
C1076 C1077 1.390 . S
C1077 C1076 1.390 . S
C1077 C1078 1.394 . S
C1077 C1083 1.465 . S
C1078 C1073 1.399 . S
C1078 C1077 1.394 . S
C1078 C1079 1.516 . S
C1079 C1078 1.516 . S
C1079 C1080 1.502 . S
C1079 C1081 1.561 . S
C1079 C1082 1.526 . S
C1080 H1064 0.959 . S
C1080 H1065 0.959 . S
C1080 H1066 0.961 . S
C1080 C1079 1.502 . S
C1081 H1067 0.960 . S
C1081 H1068 0.961 . S
C1081 H1069 0.959 . S
C1081 C1079 1.561 . S
C1082 C1079 1.526 . S
C1082 C1083 1.396 . S
C1082 C1087 1.390 . S
C1083 C1077 1.465 . S
C1083 C1082 1.396 . S
C1083 C1084 1.399 . S
C1084 H1070 0.929 . S
C1084 C1083 1.399 . S
C1084 C1085 1.385 . S
C1085 H1071 0.931 . S
C1085 C1084 1.385 . S
C1085 C1086 1.389 . S
C1086 C1085 1.389 . S
C1086 C1087 1.387 . S
C1087 H1072 0.930 . S
C1087 C1082 1.390 . S
C1087 C1086 1.387 . S
C237 C221 1.005 . S
C249 C11 0.970 . S
C264 C179 0.997 . S
C276 C25 0.971 . S
C291 C39 1.008 . S
C303 C193 0.971 . S
C318 C207 0.987 . S
C330 C53 0.977 . S
C345 C137 0.990 . S
C357 C67 1.003 . S
C372 C81 1.006 . S
C384 C151 0.970 . S
C399 C95 0.974 . S
C411 C165 1.009 . S
C426 C109 1.009 . S
C438 C123 0.974 . S
C453 C83 1.313 . S
C465 C8 1.421 . S
C480 C92 1.403 . S
C492 C27 1.241 . S
C507 C111 1.159 . S
C519 C36 1.344 . S
C534 C55 1.299 . S
C546 C64 1.402 . S
C561 C7 1.394 . S
C573 C21 1.364 . S
C588 C41 1.312 . S
C600 C22 1.415 . S
C615 C35 1.398 . S
C627 C49 1.401 . S
C642 C13 1.313 . S
C654 C50 1.421 . S
C669 C105 1.398 . S
C681 C63 1.401 . S
C696 C69 1.158 . S
C708 C78 1.350 . S
C723 C77 1.363 . S
C735 C91 1.393 . S
C750 C106 1.372 . S
C762 C97 1.252 . S
C777 C195 1.159 . S
C789 C120 1.345 . S
C804 C139 1.313 . S
C816 C204 1.421 . S
C831 C223 1.295 . S
C843 C148 1.399 . S
C858 C176 1.361 . S
C870 C167 1.228 . S
C885 C119 1.368 . S
C897 C133 1.396 . S
C912 C134 1.405 . S
C924 C153 1.247 . S
C939 C161 1.370 . S
C951 C147 1.397 . S
C966 C125 1.313 . S
C978 C162 1.421 . S
C993 C217 1.332 . S
C1005 C175 1.352 . S
C1020 C181 1.289 . S
C1032 C190 1.420 . S
C1047 C189 1.338 . S
C1059 C203 1.334 . S
C1074 C218 1.424 . S
C1086 C209 1.306 . S
