# Generated by pormake.
# Topology afw, (4)-cn, num edge types: 1
# Building blocks:
#     Node 0, Type 0, BuildingBlock: ICAMEG_clean_sbu_1, # of connection points: 4
#     Node 1, Type 0, BuildingBlock: ICAMEG_clean_sbu_1, # of connection points: 4
#     Node 2, Type 0, BuildingBlock: ICAMEG_clean_sbu_1, # of connection points: 4
#     Node 3, Type 0, BuildingBlock: ICAMEG_clean_sbu_1, # of connection points: 4
#     Node 4, Type 0, BuildingBlock: ICAMEG_clean_sbu_1, # of connection points: 4
#     Node 5, Type 0, BuildingBlock: ICAMEG_clean_sbu_1, # of connection points: 4
#     Node 6, Type 0, BuildingBlock: ICAMEG_clean_sbu_1, # of connection points: 4
#     Node 7, Type 0, BuildingBlock: ICAMEG_clean_sbu_1, # of connection points: 4
#     Node 8, Type 0, BuildingBlock: ICAMEG_clean_sbu_1, # of connection points: 4
#     Edge 9, Type (0, 0), BuildingBlock: KIFKEQ_clean_linker_1, # of connection points: 2
#     Edge 10, Type (0, 0), BuildingBlock: KIFKEQ_clean_linker_1, # of connection points: 2
#     Edge 11, Type (0, 0), BuildingBlock: KIFKEQ_clean_linker_1, # of connection points: 2
#     Edge 12, Type (0, 0), BuildingBlock: KIFKEQ_clean_linker_1, # of connection points: 2
#     Edge 13, Type (0, 0), BuildingBlock: KIFKEQ_clean_linker_1, # of connection points: 2
#     Edge 14, Type (0, 0), BuildingBlock: KIFKEQ_clean_linker_1, # of connection points: 2
#     Edge 15, Type (0, 0), BuildingBlock: KIFKEQ_clean_linker_1, # of connection points: 2
#     Edge 16, Type (0, 0), BuildingBlock: KIFKEQ_clean_linker_1, # of connection points: 2
#     Edge 17, Type (0, 0), BuildingBlock: KIFKEQ_clean_linker_1, # of connection points: 2
#     Edge 18, Type (0, 0), BuildingBlock: KIFKEQ_clean_linker_1, # of connection points: 2
#     Edge 19, Type (0, 0), BuildingBlock: KIFKEQ_clean_linker_1, # of connection points: 2
#     Edge 20, Type (0, 0), BuildingBlock: KIFKEQ_clean_linker_1, # of connection points: 2
#     Edge 21, Type (0, 0), BuildingBlock: KIFKEQ_clean_linker_1, # of connection points: 2
#     Edge 22, Type (0, 0), BuildingBlock: KIFKEQ_clean_linker_1, # of connection points: 2
#     Edge 23, Type (0, 0), BuildingBlock: KIFKEQ_clean_linker_1, # of connection points: 2
#     Edge 24, Type (0, 0), BuildingBlock: KIFKEQ_clean_linker_1, # of connection points: 2
#     Edge 25, Type (0, 0), BuildingBlock: KIFKEQ_clean_linker_1, # of connection points: 2
#     Edge 26, Type (0, 0), BuildingBlock: KIFKEQ_clean_linker_1, # of connection points: 2
# Relax obj value: 0.102
# Max RMSD: 0.139
# Mean RMSD: 0.139
data_MOF--net-afw--node1-ICAMEG_clean_sbu_1--edge1-KIFKEQ_clean_linker_1
_symmetry_space_group_name_H-M    P1
_symmetry_Int_Tables_number       1
_symmetry_cell_setting            triclinic
loop_
_symmetry_equiv_pos_as_xyz
'x, y, z'
_cell_length_a     46.830698
_cell_length_b     46.832831
_cell_length_c     35.513715
_cell_angle_alpha  90.137661
_cell_angle_beta   89.908357
_cell_angle_gamma 119.89752
loop_
_atom_site_label
_atom_site_type_symbol
_atom_site_fract_x
_atom_site_fract_y
_atom_site_fract_z
_atom_type_partial_charge
Co0 Co 0.0174 0.20794 0.06674 0.0
Co1 Co 0.00025 0.20399 0.97091 0.0
O2 O 0.00829 0.22541 0.02065 0.0
C3 C 0.9602 0.21673 0.08928 0.0
O4 O 0.94992 0.21334 0.05434 0.0
C5 C 0.05962 0.26792 0.95042 0.0
O6 O 0.07565 0.2652 0.97921 0.0
O7 O 0.03852 0.19626 0.97663 0.0
O8 O 0.04909 0.19978 0.03871 0.0
H9 H 0.98608 0.115 0.88071 0.0
H10 H 0.02268 0.27366 0.0668 0.0
O11 O 0.98608 0.21569 0.09747 0.0
H12 H 0.13274 0.29378 0.10334 0.0
H13 H 0.03993 0.20639 0.20526 0.0
H14 H 0.02654 0.15097 0.08298 0.0
H15 H 0.0876 0.23737 0.09063 0.0
H16 H 0.02849 0.22832 0.14773 0.0
O17 O 0.02934 0.24696 0.94539 0.0
H18 H 0.99629 0.14252 0.94249 0.0
H19 H 0.98605 0.2198 0.89414 0.0
H20 H 0.03829 0.1284 0.13977 0.0
H21 H 0.06698 0.33047 0.07967 0.0
H22 H 0.04504 0.15615 0.20148 0.0
H23 H 0.12252 0.34081 0.09799 0.0
O24 O 0.98114 0.162 0.05562 0.0
H25 H 0.94424 0.27165 0.97448 0.0
H26 H 0.92972 0.16171 0.94863 0.0
H27 H 0.88223 0.17051 0.94247 0.0
H28 H 0.88936 0.22585 0.95534 0.0
H29 H 0.99097 0.26161 0.98076 0.0
H30 H 0.97608 0.19329 0.83176 0.0
H31 H 0.97594 0.14043 0.82477 0.0
O32 O 0.9709 0.16063 0.99377 0.0
C33 C 0.05494 0.19541 0.00489 0.0
C34 C 0.98608 0.13802 0.88339 0.0
C35 C 0.98052 0.18199 0.85591 0.0
N36 N 0.99183 0.18278 0.92195 0.0
C37 C 0.99181 0.15371 0.91832 0.0
C38 C 0.98633 0.19696 0.89128 0.0
C39 C 0.98041 0.15232 0.85201 0.0
C40 C 0.04672 0.27796 0.07496 0.0
N41 N 0.05255 0.25223 0.07794 0.0
C42 C 0.07174 0.31018 0.08212 0.0
C43 C 0.1029 0.31597 0.09236 0.0
C44 C 0.10866 0.2896 0.09533 0.0
C45 C 0.08306 0.25772 0.08793 0.0
C46 C 0.03707 0.1941 0.17853 0.0
C47 C 0.02963 0.1633 0.10969 0.0
C48 C 0.03049 0.20634 0.14586 0.0
N49 N 0.02699 0.19103 0.11196 0.0
C50 C 0.0362 0.15036 0.14177 0.0
C51 C 0.03995 0.16592 0.17639 0.0
C52 C 0.96571 0.14694 0.0258 0.0
C53 C 0.94083 0.24744 0.96875 0.0
C54 C 0.93295 0.18576 0.95461 0.0
C55 C 0.90601 0.19065 0.95089 0.0
C56 C 0.91004 0.22172 0.95806 0.0
N57 N 0.96307 0.2111 0.9651 0.0
C58 C 0.96722 0.24164 0.97212 0.0
Co59 Co 0.83237 0.83917 0.96934 0.0
Co60 Co 0.8271 0.84209 0.06648 0.0
O61 O 0.8095 0.82128 0.01737 0.0
C62 C 0.76737 0.83395 0.95286 0.0
O63 O 0.76716 0.84623 0.98607 0.0
C64 C 0.81851 0.77569 0.08261 0.0
O65 O 0.83466 0.77723 0.0517 0.0
O66 O 0.87125 0.84669 0.05543 0.0
O67 O 0.87488 0.85017 0.99247 0.0
H68 H 0.91128 0.92777 0.15281 0.0
H69 H 0.77434 0.77212 0.97247 0.0
O70 O 0.79046 0.82854 0.94359 0.0
H71 H 0.86545 0.75693 0.92697 0.0
H72 H 0.8469 0.83914 0.82872 0.0
H73 H 0.89489 0.89854 0.94748 0.0
H74 H 0.87453 0.8125 0.94054 0.0
H75 H 0.81843 0.81702 0.88915 0.0
O76 O 0.81224 0.79847 0.09065 0.0
H77 H 0.88863 0.90103 0.09166 0.0
H78 H 0.80217 0.82745 0.14562 0.0
H79 H 0.92432 0.92138 0.88772 0.0
H80 H 0.76405 0.71607 0.95892 0.0
H81 H 0.90031 0.89162 0.82777 0.0
H82 H 0.80984 0.70821 0.93608 0.0
O83 O 0.84026 0.88436 0.98176 0.0
H84 H 0.70348 0.78159 0.07152 0.0
H85 H 0.80444 0.88727 0.09634 0.0
H86 H 0.75027 0.88233 0.1082 0.0
H87 H 0.69927 0.82913 0.09584 0.0
H88 H 0.75822 0.78779 0.05969 0.0
H89 H 0.82403 0.85319 0.20741 0.0
H90 H 0.87892 0.90381 0.21126 0.0
O91 O 0.84214 0.88621 0.04489 0.0
C92 C 0.88714 0.85128 0.02465 0.0
C93 C 0.88732 0.90573 0.1515 0.0
C94 C 0.83839 0.86385 0.18215 0.0
N95 N 0.84411 0.86269 0.11504 0.0
C96 C 0.87435 0.8905 0.11694 0.0
C97 C 0.8262 0.84929 0.14709 0.0
C98 C 0.86917 0.89226 0.18429 0.0
C99 C 0.79433 0.76889 0.96232 0.0
N100 N 0.82499 0.79557 0.95726 0.0
C101 C 0.78838 0.7371 0.95479 0.0
C102 C 0.81409 0.73271 0.94202 0.0
C103 C 0.8453 0.76003 0.93693 0.0
C104 C 0.85034 0.79145 0.9448 0.0
C105 C 0.85761 0.85233 0.85466 0.0
C106 C 0.88432 0.88538 0.92153 0.0
C107 C 0.84156 0.83999 0.88895 0.0
N108 N 0.85501 0.85644 0.92185 0.0
C109 C 0.90109 0.89847 0.88777 0.0
C110 C 0.88759 0.88177 0.85414 0.0
C111 C 0.84529 0.89974 0.01301 0.0
C112 C 0.72552 0.80489 0.07703 0.0
C113 C 0.7824 0.86418 0.09058 0.0
C114 C 0.75178 0.86145 0.09753 0.0
C115 C 0.72318 0.83158 0.09063 0.0
N116 N 0.78452 0.8379 0.07724 0.0
C117 C 0.75658 0.80853 0.07048 0.0
Co118 Co 0.18753 0.02839 0.06251 0.0
Co119 Co 0.19202 0.02906 0.96619 0.0
O120 O 0.20948 0.02713 0.01579 0.0
C121 C 0.25652 0.08012 0.08088 0.0
O122 O 0.25911 0.09467 0.04846 0.0
C123 C 0.20015 0.97032 0.95258 0.0
O124 O 0.18409 0.95638 0.9837 0.0
O125 O 0.14815 0.9903 0.97921 0.0
O126 O 0.14353 0.00325 0.0388 0.0
H127 H 0.10731 0.02753 0.87825 0.0
H128 H 0.23515 0.00429 0.06421 0.0
O129 O 0.23062 0.05331 0.08901 0.0
H130 H 0.13026 0.91117 0.10892 0.0
H131 H 0.16899 0.02004 0.20281 0.0
H132 H 0.13343 0.04177 0.08084 0.0
H133 H 0.13403 0.96396 0.09195 0.0
H134 H 0.19565 0.01784 0.14381 0.0
O135 O 0.20647 -0.00081 0.9438 0.0
H136 H 0.13031 0.02561 0.93999 0.0
H137 H 0.21657 0.03652 0.88705 0.0
H138 H 0.1059 0.04394 0.13911 0.0
H139 H 0.23255 0.95198 0.08121 0.0
H140 H 0.12367 0.03304 0.20069 0.0
H141 H 0.17978 0.90495 0.10368 0.0
O142 O 0.18972 0.07036 0.04676 0.0
H143 H 0.31558 0.09081 0.96043 0.0
H144 H 0.21502 0.09566 0.93262 0.0
H145 H 0.26931 0.1439 0.91909 0.0
H146 H 0.32012 0.14163 0.93293 0.0
H147 H 0.26071 0.04326 0.97388 0.0
H148 H 0.19435 0.03817 0.82471 0.0
H149 H 0.13939 0.03381 0.82003 0.0
O150 O 0.17735 0.05953 0.9856 0.0
C151 C 0.13126 0.98667 0.0089 0.0
C152 C 0.13129 0.02945 0.87991 0.0
C153 C 0.18011 0.03538 0.84986 0.0
N154 N 0.17473 0.03088 0.91715 0.0
C155 C 0.14445 0.02841 0.9148 0.0
C156 C 0.1925 0.03427 0.88524 0.0
C157 C 0.14929 0.03296 0.84726 0.0
C158 C 0.21218 0.984 0.07426 0.0
N159 N 0.18485 0.98725 0.07727 0.0
C160 C 0.21082 0.95442 0.08372 0.0
C161 C 0.1812 0.92803 0.09628 0.0
C162 C 0.1534 0.9315 0.09921 0.0
C163 C 0.15568 0.96144 0.08947 0.0
C164 C 0.16103 0.02484 0.17616 0.0
C165 C 0.14125 0.0369 0.10749 0.0
C166 C 0.17611 0.02375 0.14266 0.0
N167 N 0.16611 0.02964 0.10886 0.0
C168 C 0.12559 0.03821 0.14041 0.0
C169 C 0.13559 0.03212 0.17495 0.0
C170 C 0.18071 0.07629 0.0152 0.0
C171 C 0.29363 0.0921 0.95425 0.0
C172 C 0.23696 0.09458 0.93902 0.0
C173 C 0.26767 0.12192 0.93113 0.0
C174 C 0.29616 0.12062 0.93886 0.0
N175 N 0.23467 0.06669 0.9541 0.0
C176 C 0.2625 0.06523 0.96172 0.0
Co177 Co 0.67901 0.52568 0.28976 0.0
Co178 Co 0.67993 0.53349 0.38677 0.0
O179 O 0.67814 0.54869 0.33573 0.0
C180 C 0.73409 0.59366 0.274 0.0
O181 O 0.74559 0.59573 0.3082 0.0
C182 C 0.62185 0.52912 0.42482 0.0
O183 O 0.61196 0.49779 0.43002 0.0
O184 O 0.64315 0.48805 0.37479 0.0
O185 O 0.65018 0.48247 0.31336 0.0
H186 H 0.68155 0.45477 0.48152 0.0
H187 H 0.66081 0.57771 0.28501 0.0
O188 O 0.70771 0.56823 0.26361 0.0
H189 H 0.5643 0.47706 0.23683 0.0
H190 H 0.67486 0.507 0.14961 0.0
H191 H 0.68614 0.4673 0.27413 0.0
H192 H 0.61387 0.47589 0.2578 0.0
H193 H 0.67343 0.53537 0.20755 0.0
O194 O 0.64746 0.5468 0.40492 0.0
H195 H 0.67897 0.47439 0.41793 0.0
H196 H 0.68551 0.56114 0.46434 0.0
H197 H 0.68744 0.43803 0.21693 0.0
H198 H 0.61183 0.58006 0.26397 0.0
H199 H 0.68179 0.45787 0.15409 0.0
H200 H 0.56311 0.52945 0.23971 0.0
O201 O 0.71867 0.52416 0.30765 0.0
H202 H 0.73572 0.65703 0.38746 0.0
H203 H 0.7467 0.56101 0.42165 0.0
H204 H 0.79282 0.61695 0.43392 0.0
H205 H 0.78745 0.66548 0.41689 0.0
H206 H 0.69037 0.60062 0.37525 0.0
H207 H 0.68805 0.5424 0.52842 0.0
H208 H 0.6861 0.48886 0.53733 0.0
O209 O 0.71244 0.52037 0.37048 0.0
C210 C 0.63633 0.47081 0.34478 0.0
C211 C 0.68243 0.47814 0.47801 0.0
C212 C 0.68608 0.52732 0.50433 0.0
N213 N 0.68209 0.51887 0.43737 0.0
C214 C 0.68098 0.48939 0.44206 0.0
C215 C 0.68462 0.5378 0.46797 0.0
C216 C 0.68498 0.49728 0.50931 0.0
C217 C 0.63977 0.55564 0.27427 0.0
N218 N 0.64026 0.52675 0.27248 0.0
C219 C 0.61208 0.5571 0.26249 0.0
C220 C 0.58474 0.52869 0.24893 0.0
C221 C 0.58538 0.49928 0.24732 0.0
C222 C 0.61349 0.49874 0.25935 0.0
C223 C 0.67736 0.49812 0.17683 0.0
C224 C 0.68359 0.47605 0.2469 0.0
C225 C 0.67668 0.51416 0.20974 0.0
N226 N 0.67968 0.503 0.24422 0.0
C227 C 0.68438 0.45939 0.2146 0.0
C228 C 0.68123 0.47054 0.17936 0.0
C229 C 0.72672 0.51935 0.34038 0.0
C230 C 0.73834 0.63609 0.39507 0.0
C231 C 0.74427 0.58196 0.41387 0.0
C232 C 0.77041 0.6136 0.42105 0.0
C233 C 0.76737 0.64081 0.41153 0.0
N234 N 0.71583 0.57751 0.39778 0.0
C235 C 0.7127 0.60408 0.38834 0.0
Co236 Co 0.49817 0.16606 0.29936 0.0
Co237 Co 0.49452 0.16631 0.39564 0.0
O238 O 0.47553 0.14597 0.34679 0.0
C239 C 0.43196 0.15655 0.28055 0.0
O240 O 0.4321 0.17153 0.31192 0.0
C241 C 0.48067 0.09806 0.41328 0.0
O242 O 0.49833 0.0987 0.38418 0.0
O243 O 0.53629 0.1665 0.3834 0.0
O244 O 0.54194 0.18166 0.3229 0.0
H245 H 0.58402 0.24653 0.48148 0.0
H246 H 0.4456 0.09613 0.30051 0.0
O247 O 0.45531 0.15097 0.27318 0.0
H248 H 0.54488 0.09521 0.25573 0.0
H249 H 0.51524 0.17038 0.15891 0.0
H250 H 0.55624 0.23017 0.27896 0.0
H251 H 0.54693 0.14762 0.27078 0.0
H252 H 0.48768 0.14483 0.21877 0.0
O253 O 0.47583 0.12204 0.41972 0.0
H254 H 0.55924 0.22123 0.42043 0.0
H255 H 0.47003 0.15371 0.47498 0.0
H256 H 0.58471 0.25652 0.21981 0.0
H257 H 0.44237 0.04312 0.28548 0.0
H258 H 0.56421 0.22658 0.1592 0.0
H259 H 0.49228 0.04246 0.26296 0.0
O260 O 0.50034 0.20843 0.31323 0.0
H261 H 0.37167 0.11651 0.40289 0.0
H262 H 0.47872 0.21668 0.4252 0.0
H263 H 0.4274 0.21753 0.4381 0.0
H264 H 0.37338 0.16716 0.42702 0.0
H265 H 0.42363 0.11682 0.39007 0.0
H266 H 0.49394 0.17809 0.53667 0.0
H267 H 0.55131 0.22493 0.54019 0.0
O268 O 0.51339 0.21138 0.37427 0.0
C269 C 0.55347 0.17742 0.35345 0.0
C270 C 0.55898 0.22615 0.48032 0.0
C271 C 0.50845 0.18771 0.51129 0.0
N272 N 0.51318 0.18604 0.44409 0.0
C273 C 0.54479 0.21174 0.44581 0.0
C274 C 0.49508 0.17393 0.47628 0.0
C275 C 0.54063 0.21401 0.51325 0.0
C276 C 0.46735 0.09602 0.29049 0.0
N277 N 0.49635 0.12492 0.28636 0.0
C278 C 0.46541 0.06594 0.28213 0.0
C279 C 0.49343 0.06559 0.26953 0.0
C280 C 0.52295 0.09517 0.26549 0.0
C281 C 0.52398 0.12478 0.27415 0.0
C282 C 0.52441 0.18367 0.18513 0.0
C283 C 0.5472 0.21693 0.25273 0.0
C284 C 0.50883 0.16938 0.21911 0.0
N285 N 0.52035 0.18595 0.25237 0.0
C286 C 0.56342 0.232 0.21931 0.0
C287 C 0.55189 0.2152 0.18532 0.0
C288 C 0.51075 0.2244 0.34403 0.0
C289 C 0.39506 0.13858 0.40792 0.0
C290 C 0.45532 0.19469 0.42017 0.0
C291 C 0.42634 0.1953 0.42762 0.0
C292 C 0.39603 0.16702 0.42142 0.0
N293 N 0.45416 0.16666 0.40704 0.0
C294 C 0.42454 0.13887 0.40083 0.0
Co295 Co 0.86124 0.35222 0.31672 0.0
Co296 Co 0.85537 0.34559 0.41432 0.0
O297 O 0.87773 0.34787 0.36628 0.0
C298 C 0.88094 0.30011 0.30352 0.0
O299 O 0.88795 0.2992 0.33909 0.0
C300 C 0.92285 0.40172 0.43001 0.0
O301 O 0.92418 0.41373 0.39626 0.0
O302 O 0.85152 0.38501 0.40111 0.0
O303 O 0.85055 0.38507 0.33791 0.0
H304 H 0.76748 0.34624 0.49511 0.0
H305 H 0.9289 0.36239 0.32598 0.0
O306 O 0.87096 0.31939 0.29225 0.0
H307 H 0.94415 0.46501 0.26934 0.0
H308 H 0.86278 0.36233 0.17532 0.0
H309 H 0.80306 0.3565 0.29215 0.0
H310 H 0.88846 0.41902 0.28279 0.0
H311 H 0.88397 0.35722 0.23695 0.0
O312 O 0.89813 0.37462 0.44003 0.0
H313 H 0.79588 0.34904 0.43555 0.0
H314 H 0.86777 0.33682 0.49483 0.0
H315 H 0.78121 0.36198 0.23111 0.0
H316 H 0.98496 0.40749 0.31253 0.0
H317 H 0.81114 0.36491 0.17214 0.0
H318 H 0.99293 0.45937 0.28409 0.0
O319 O 0.8159 0.31542 0.32843 0.0
H320 H 0.91531 0.28255 0.43135 0.0
H321 H 0.80803 0.27784 0.44188 0.0
H322 H 0.81217 0.22886 0.45795 0.0
H323 H 0.86614 0.23105 0.45285 0.0
H324 H 0.90996 0.33085 0.41504 0.0
H325 H 0.84028 0.33413 0.55505 0.0
H326 H 0.78969 0.33874 0.55544 0.0
O327 O 0.8119 0.31652 0.39127 0.0
C328 C 0.84841 0.3964 0.36973 0.0
C329 C 0.78948 0.34415 0.49531 0.0
C330 C 0.83035 0.33738 0.52895 0.0
N331 N 0.83339 0.34299 0.46165 0.0
C332 C 0.80564 0.34567 0.46166 0.0
C333 C 0.84585 0.339 0.49475 0.0
C334 C 0.80196 0.33996 0.52915 0.0
C335 C 0.93201 0.38462 0.3132 0.0
N336 N 0.90527 0.38785 0.30494 0.0
C337 C 0.9639 0.41021 0.30583 0.0
C338 C 0.96836 0.43933 0.28994 0.0
C339 C 0.94102 0.44252 0.28169 0.0
C340 C 0.90951 0.41642 0.28951 0.0
C341 C 0.84955 0.36113 0.20083 0.0
C342 C 0.81635 0.35798 0.26664 0.0
C343 C 0.86137 0.35813 0.23582 0.0
N344 N 0.84489 0.35679 0.26819 0.0
C345 C 0.8038 0.36098 0.23214 0.0
C346 C 0.82058 0.36259 0.19906 0.0
C347 C 0.79954 0.30552 0.35904 0.0
C348 C 0.89167 0.28131 0.43375 0.0
C349 C 0.83155 0.27893 0.43925 0.0
C350 C 0.83377 0.25114 0.44857 0.0
C351 C 0.86406 0.2524 0.44575 0.0
N352 N 0.85875 0.3072 0.4275 0.0
C353 C 0.88853 0.30862 0.4247 0.0
Co354 Co 0.35025 0.86703 0.74971 0.0
Co355 Co 0.34634 0.86882 0.65228 0.0
O356 O 0.34966 0.88832 0.70231 0.0
C357 C 0.29344 0.87757 0.765 0.0
O358 O 0.28086 0.86513 0.7319 0.0
C359 C 0.40412 0.91991 0.61138 0.0
O360 O 0.4135 0.89791 0.60742 0.0
O361 O 0.38263 0.85948 0.66449 0.0
O362 O 0.37967 0.85251 0.72716 0.0
H363 H 0.34067 0.78342 0.56183 0.0
H364 H 0.36677 0.93678 0.74908 0.0
O365 O 0.32114 0.88117 0.7748 0.0
H366 H 0.465 0.93796 0.80086 0.0
H367 H 0.35709 0.85928 0.8906 0.0
H368 H 0.34506 0.8031 0.76915 0.0
H369 H 0.41594 0.88561 0.7829 0.0
H370 H 0.35687 0.88605 0.83098 0.0
O371 O 0.37896 0.91334 0.63156 0.0
H372 H 0.34523 0.80861 0.62418 0.0
H373 H 0.33933 0.88767 0.57375 0.0
H374 H 0.3455 0.77557 0.82809 0.0
H375 H 0.41514 0.98973 0.76712 0.0
H376 H 0.35152 0.80369 0.88938 0.0
H377 H 0.46475 0.99054 0.79313 0.0
O378 O 0.31074 0.82457 0.73422 0.0
H379 H 0.29236 0.93837 0.64729 0.0
H380 H 0.27832 0.82864 0.62108 0.0
H381 H 0.23249 0.83891 0.60835 0.0
H382 H 0.23939 0.89414 0.62135 0.0
H383 H 0.33747 0.92693 0.65999 0.0
H384 H 0.33478 0.86335 0.51085 0.0
H385 H 0.33542 0.81084 0.50459 0.0
O386 O 0.31389 0.82459 0.67116 0.0
C387 C 0.39139 0.85176 0.69508 0.0
C388 C 0.34038 0.80632 0.56418 0.0
C389 C 0.33706 0.85117 0.53557 0.0
N390 N 0.34258 0.8496 0.60265 0.0
C391 C 0.34296 0.82071 0.59942 0.0
C392 C 0.33966 0.86482 0.57127 0.0
C393 C 0.33742 0.82171 0.53208 0.0
C394 C 0.38824 0.93694 0.7605 0.0
N395 N 0.38859 0.90813 0.76479 0.0
C396 C 0.41557 0.96699 0.77061 0.0
C397 C 0.4434 0.96743 0.78517 0.0
C398 C 0.44357 0.93795 0.78946 0.0
C399 C 0.4158 0.90837 0.77903 0.0
C400 C 0.35445 0.84678 0.86407 0.0
C401 C 0.34782 0.81556 0.7957 0.0
C402 C 0.35417 0.86176 0.83022 0.0
N403 N 0.35101 0.84619 0.79659 0.0
C404 C 0.34799 0.79982 0.82899 0.0
C405 C 0.35134 0.8156 0.86337 0.0
C406 C 0.30101 0.81055 0.70219 0.0
C407 C 0.2891 0.91424 0.64138 0.0
C408 C 0.2815 0.8527 0.62697 0.0
C409 C 0.25547 0.8584 0.6196 0.0
C410 C 0.25936 0.8894 0.62688 0.0
N411 N 0.31066 0.87725 0.64102 0.0
C412 C 0.3146 0.90766 0.64837 0.0
Co413 Co 0.17325 0.50979 0.63815 0.0
Co414 Co 0.17716 0.5095 0.73382 0.0
O415 O 0.15445 0.48837 0.68666 0.0
C416 C 0.10426 0.49533 0.62317 0.0
O417 O 0.10517 0.51263 0.65277 0.0
C418 C 0.16078 0.43968 0.74799 0.0
O419 O 0.16869 0.43636 0.71342 0.0
O420 O 0.21759 0.50973 0.71556 0.0
O421 O 0.21912 0.52908 0.65765 0.0
H422 H 0.27311 0.59235 0.81046 0.0
H423 H 0.1255 0.43827 0.64019 0.0
O424 O 0.12829 0.4908 0.61574 0.0
H425 H 0.22639 0.44788 0.58431 0.0
H426 H 0.18179 0.51602 0.4966 0.0
H427 H 0.22599 0.57646 0.61568 0.0
H428 H 0.22422 0.49753 0.60285 0.0
H429 H 0.15944 0.48887 0.55755 0.0
O430 O 0.16174 0.46607 0.75852 0.0
H431 H 0.24328 0.5656 0.75205 0.0
H432 H 0.16003 0.49775 0.8156 0.0
H433 H 0.24929 0.60445 0.55538 0.0
H434 H 0.12649 0.38796 0.62167 0.0
H435 H 0.22715 0.5742 0.49525 0.0
H436 H 0.17725 0.3926 0.59359 0.0
O437 O 0.17218 0.55 0.6549 0.0
H438 H 0.05535 0.45792 0.75505 0.0
H439 H 0.16293 0.55927 0.76895 0.0
H440 H 0.11248 0.55915 0.78909 0.0
H441 H 0.05818 0.50817 0.78228 0.0
H442 H 0.10646 0.45922 0.73497 0.0
H443 H 0.18908 0.52362 0.8747 0.0
H444 H 0.246 0.57136 0.87237 0.0
O445 O 0.19331 0.55419 0.71234 0.0
C446 C 0.23274 0.52287 0.68497 0.0
C447 C 0.2483 0.5716 0.81185 0.0
C448 C 0.20115 0.53301 0.8479 0.0
N449 N 0.19988 0.53022 0.78034 0.0
C450 C 0.23126 0.55636 0.77885 0.0
C451 C 0.18486 0.51841 0.81432 0.0
C452 C 0.23308 0.5598 0.84657 0.0
C453 C 0.14758 0.44048 0.62771 0.0
N454 N 0.1747 0.47079 0.62251 0.0
C455 C 0.14804 0.41191 0.6174 0.0
C456 C 0.17654 0.41453 0.60169 0.0
C457 C 0.20413 0.44554 0.59651 0.0
C458 C 0.20278 0.47356 0.60717 0.0
C459 C 0.19164 0.52947 0.5226 0.0
C460 C 0.21627 0.56307 0.58967 0.0
C461 C 0.17898 0.51426 0.55721 0.0
N462 N 0.19138 0.53102 0.5902 0.0
C463 C 0.22955 0.57908 0.55559 0.0
C464 C 0.2171 0.56211 0.52187 0.0
C465 C 0.18548 0.56631 0.68487 0.0
C466 C 0.07886 0.48026 0.75823 0.0
C467 C 0.13941 0.53703 0.76573 0.0
C468 C 0.11092 0.53709 0.77729 0.0
C469 C 0.08047 0.50848 0.77347 0.0
N470 N 0.13764 0.50923 0.75089 0.0
C471 C 0.10788 0.48111 0.747 0.0
Co472 Co 0.52982 0.67947 0.7344 0.0
Co473 Co 0.53806 0.69396 0.63822 0.0
O474 O 0.55442 0.68831 0.68698 0.0
C475 C 0.59166 0.74038 0.75588 0.0
O476 O 0.59043 0.75448 0.72448 0.0
C477 C 0.54965 0.63848 0.61894 0.0
O478 O 0.5334 0.62273 0.64928 0.0
O479 O 0.49402 0.65337 0.64589 0.0
O480 O 0.48862 0.64827 0.70863 0.0
H481 H 0.45574 0.69884 0.55181 0.0
H482 H 0.58991 0.67374 0.73109 0.0
O483 O 0.57049 0.71049 0.76254 0.0
H484 H 0.50051 0.56331 0.76687 0.0
H485 H 0.51164 0.65645 0.8735 0.0
H486 H 0.46522 0.67199 0.7559 0.0
H487 H 0.4892 0.60882 0.75686 0.0
H488 H 0.54219 0.66744 0.8137 0.0
O489 O 0.55465 0.66726 0.61203 0.0
H490 H 0.4768 0.69186 0.61266 0.0
H491 H 0.56537 0.70863 0.56009 0.0
H492 H 0.4337 0.66073 0.81499 0.0
H493 H 0.6024 0.62899 0.74115 0.0
H494 H 0.45692 0.6529 0.87436 0.0
H495 H 0.55749 0.57328 0.75909 0.0
O496 O 0.52006 0.7159 0.72503 0.0
H497 H 0.66169 0.75942 0.63915 0.0
H498 H 0.56004 0.76281 0.61337 0.0
H499 H 0.61389 0.81328 0.60576 0.0
H500 H 0.66524 0.81176 0.61864 0.0
H501 H 0.60724 0.70961 0.64677 0.0
H502 H 0.54512 0.71544 0.49861 0.0
H503 H 0.48998 0.71069 0.49422 0.0
O504 O 0.52137 0.72113 0.6621 0.0
C505 C 0.47742 0.63943 0.67553 0.0
C506 C 0.47983 0.70102 0.55336 0.0
C507 C 0.52997 0.71028 0.5235 0.0
N508 N 0.52231 0.69989 0.58996 0.0
C509 C 0.49192 0.69715 0.58776 0.0
C510 C 0.54125 0.70626 0.55837 0.0
C511 C 0.49904 0.70763 0.52106 0.0
C512 C 0.57029 0.64961 0.73915 0.0
N513 N 0.5389 0.64393 0.74351 0.0
C514 C 0.57749 0.62435 0.74469 0.0
C515 C 0.55227 0.59309 0.75472 0.0
C516 C 0.52029 0.58748 0.75906 0.0
C517 C 0.51401 0.61332 0.75324 0.0
C518 C 0.50127 0.65983 0.84782 0.0
C519 C 0.47545 0.66851 0.78159 0.0
C520 C 0.5185 0.66618 0.81389 0.0
N521 N 0.5055 0.67034 0.78132 0.0
C522 C 0.45751 0.66219 0.81498 0.0
C523 C 0.47056 0.65782 0.84828 0.0
C524 C 0.51619 0.72848 0.69494 0.0
C525 C 0.63949 0.7604 0.63346 0.0
C526 C 0.58222 0.76203 0.61935 0.0
C527 C 0.61267 0.79065 0.61481 0.0
C528 C 0.64147 0.78977 0.62199 0.0
N529 N 0.58047 0.73334 0.63065 0.0
C530 C 0.6086 0.73227 0.63765 0.0
H531 H 0.16681 0.10725 0.07249 0.0
H532 H 0.17049 0.10186 0.95116 0.0
H533 H 0.14132 0.1415 0.06628 0.0
H534 H 0.14664 0.137 0.94508 0.0
H535 H 0.05718 0.15374 0.95247 0.0
H536 H 0.09306 0.12985 0.95375 0.0
H537 H 0.14691 0.19317 0.0472 0.0
H538 H 0.11054 0.21628 0.04637 0.0
C539 C 0.16301 0.11401 0.04458 0.0
C540 C 0.17054 0.10154 0.01242 0.0
C541 C 0.1485 0.13376 0.04095 0.0
C542 C 0.14158 0.14171 0.00508 0.0
C543 C 0.15094 0.13081 0.97307 0.0
C544 C 0.16502 0.11086 0.97667 0.0
C545 C 0.07721 0.1631 0.97259 0.0
C546 C 0.08082 0.18655 0.99958 0.0
C547 C 0.0978 0.14941 0.97344 0.0
C548 C 0.1226 0.15923 1.00105 0.0
C549 C 0.12758 0.18443 0.02624 0.0
C550 C 0.10687 0.19785 0.02557 0.0
H551 H 0.8471 0.93695 0.07303 0.0
H552 H 0.87145 0.94417 0.95466 0.0
H553 H 0.87189 0.9961 0.07693 0.0
H554 H 0.89751 0.00414 0.95897 0.0
H555 H 0.9208 0.10948 0.97217 0.0
H556 H 0.88823 0.04993 0.96869 0.0
H557 H 0.9265 0.04269 0.07669 0.0
H558 H 0.95867 0.10263 0.08067 0.0
C559 C 0.85747 0.95108 0.04762 0.0
C560 C 0.85721 0.93562 0.01344 0.0
C561 C 0.87206 0.9852 0.05005 0.0
C562 C 0.88709 0.00497 0.01847 0.0
C563 C 0.88589 0.98959 0.98385 0.0
C564 C 0.87099 0.95521 0.98132 0.0
C565 C 0.92198 0.09531 0.99554 0.0
C566 C 0.94248 0.11096 0.02675 0.0
C567 C 0.90347 0.06106 0.99328 0.0
C568 C 0.90499 0.04147 0.02213 0.0
C569 C 0.92449 0.05705 0.05407 0.0
C570 C 0.94296 0.09144 0.05642 0.0
H571 H 0.92939 0.87013 0.08531 0.0
H572 H 0.92556 0.85602 0.96463 0.0
H573 H 0.98945 0.89707 0.08269 0.0
H574 H 0.98481 0.88377 0.96193 0.0
H575 H 0.09569 0.92956 0.96773 0.0
H576 H 0.03702 0.88888 0.9751 0.0
H577 H 0.02848 0.95031 0.06033 0.0
H578 H 0.08625 0.9898 0.05368 0.0
C579 C 0.9412 0.87216 0.05841 0.0
C580 C 0.92258 0.86141 0.02519 0.0
C581 C 0.97562 0.88784 0.0568 0.0
C582 C 0.99201 0.89324 0.02193 0.0
C583 C 0.97319 0.88 0.98926 0.0
C584 C 0.93897 0.86423 0.99088 0.0
C585 C 0.08108 0.93422 0.98786 0.0
C586 C 0.09559 0.96281 0.01012 0.0
C587 C 0.04759 0.91093 0.99229 0.0
C588 C 0.02811 0.91603 0.01884 0.0
C589 C 0.04279 0.94491 0.04056 0.0
C590 C 0.07599 0.96785 0.03634 0.0
H591 H 0.81442 0.40954 0.42339 0.0
H592 H 0.86056 0.44134 0.3145 0.0
H593 H 0.78984 0.4444 0.41637 0.0
H594 H 0.83742 0.4773 0.3081 0.0
H595 H 0.75074 0.49535 0.28578 0.0
H596 H 0.78531 0.47073 0.29496 0.0
H597 H 0.79542 0.49702 0.41294 0.0
H598 H 0.75957 0.51996 0.40414 0.0
C599 C 0.82009 0.42467 0.39844 0.0
C600 C 0.83909 0.4223 0.36931 0.0
C601 C 0.80606 0.4448 0.39437 0.0
C602 C 0.81119 0.4634 0.36132 0.0
C603 C 0.83213 0.46268 0.33344 0.0
C604 C 0.84568 0.44223 0.33727 0.0
C605 C 0.76073 0.49631 0.31354 0.0
C606 C 0.75211 0.50944 0.34422 0.0
C607 C 0.78075 0.4823 0.31885 0.0
C608 C 0.793 0.48154 0.35486 0.0
C609 C 0.78587 0.49642 0.38502 0.0
C610 C 0.76551 0.50994 0.37983 0.0
H611 H 0.50695 0.26342 0.28863 0.0
H612 H 0.54116 0.26662 0.40245 0.0
H613 H 0.53036 0.3231 0.29022 0.0
H614 H 0.5657 0.32574 0.40331 0.0
H615 H 0.61921 0.42739 0.28659 0.0
H616 H 0.58364 0.36864 0.28741 0.0
H617 H 0.56082 0.37338 0.4045 0.0
H618 H 0.59821 0.43296 0.4042 0.0
C619 C 0.51934 0.27676 0.31395 0.0
C620 C 0.52249 0.26019 0.34515 0.0
C621 C 0.53289 0.311 0.31487 0.0
C622 C 0.55027 0.32941 0.3468 0.0
C623 C 0.55217 0.31254 0.37844 0.0
C624 C 0.53833 0.27845 0.37771 0.0
C625 C 0.60656 0.4162 0.31264 0.0
C626 C 0.61197 0.43508 0.34554 0.0
C627 C 0.58568 0.38226 0.3129 0.0
C628 C 0.5692 0.36605 0.34595 0.0
C629 C 0.5735 0.385 0.37862 0.0
C630 C 0.59481 0.41917 0.37846 0.0
H631 H 0.5913 0.17535 0.41179 0.0
H632 H 0.5968 0.20492 0.2955 0.0
H633 H 0.65111 0.19932 0.41255 0.0
H634 H 0.65578 0.23022 0.29692 0.0
H635 H 0.763 0.26613 0.2999 0.0
H636 H 0.70378 0.22748 0.29887 0.0
H637 H 0.69666 0.25209 0.4147 0.0
H638 H 0.75535 0.28873 0.41631 0.0
C639 C 0.60514 0.18674 0.3864 0.0
C640 C 0.58916 0.18852 0.35383 0.0
C641 C 0.63947 0.20072 0.38684 0.0
C642 C 0.65853 0.21715 0.35489 0.0
C643 C 0.64221 0.21748 0.32193 0.0
C644 C 0.6081 0.20318 0.32132 0.0
C645 C 0.74874 0.26293 0.32519 0.0
C646 C 0.76395 0.28083 0.35799 0.0
C647 C 0.71475 0.24087 0.32464 0.0
C648 C 0.69518 0.23671 0.35667 0.0
C649 C 0.71073 0.25399 0.38968 0.0
C650 C 0.74459 0.27549 0.39041 0.0
H651 H 0.40871 0.82689 0.6346 0.0
H652 H 0.42682 0.84761 0.75353 0.0
H653 H 0.44162 0.79976 0.6357 0.0
H654 H 0.46088 0.82223 0.75427 0.0
H655 H 0.52029 0.7721 0.64152 0.0
H656 H 0.49443 0.8058 0.64159 0.0
H657 H 0.45466 0.76927 0.75234 0.0
H658 H 0.48204 0.73661 0.75292 0.0
C659 C 0.42029 0.82635 0.66076 0.0
C660 C 0.41494 0.83934 0.69396 0.0
C661 C 0.4393 0.81087 0.66144 0.0
C662 C 0.45375 0.80848 0.69523 0.0
C663 C 0.44955 0.82285 0.72796 0.0
C664 C 0.43023 0.83781 0.72739 0.0
C665 C 0.50649 0.77159 0.66619 0.0
C666 C 0.50328 0.75159 0.69725 0.0
C667 C 0.49131 0.79073 0.66603 0.0
C668 C 0.47207 0.79007 0.69672 0.0
C669 C 0.46962 0.77079 0.72833 0.0
C670 C 0.48526 0.75194 0.72869 0.0
H671 H 0.26507 0.76903 0.76008 0.0
H672 H 0.27821 0.7721 0.63928 0.0
H673 H 0.22845 0.70957 0.75638 0.0
H674 H 0.24354 0.71309 0.63593 0.0
H675 H 0.17403 0.60465 0.63484 0.0
H676 H 0.19311 0.66359 0.64042 0.0
H677 H 0.23835 0.66596 0.74733 0.0
H678 H 0.21841 0.60791 0.74266 0.0
C679 C 0.25999 0.75715 0.73276 0.0
C680 C 0.27516 0.77536 0.70016 0.0
C681 C 0.23915 0.72301 0.7306 0.0
C682 C 0.23349 0.7063 0.69591 0.0
C683 C 0.24698 0.7249 0.6631 0.0
C684 C 0.26733 0.75895 0.66517 0.0
C685 C 0.18767 0.6178 0.65969 0.0
C686 C 0.19488 0.60149 0.68804 0.0
C687 C 0.19871 0.65159 0.6629 0.0
C688 C 0.21736 0.66971 0.69437 0.0
C689 C 0.22352 0.65297 0.72308 0.0
C690 C 0.21234 0.61945 0.72006 0.0
H691 H 0.27566 0.56761 0.63517 0.0
H692 H 0.26997 0.503 0.72513 0.0
H693 H 0.33401 0.58825 0.62918 0.0
H694 H 0.32879 0.52258 0.71781 0.0
H695 H 0.43702 0.60316 0.73286 0.0
H696 H 0.37808 0.5696 0.73209 0.0
H697 H 0.37805 0.58122 0.61129 0.0
H698 H 0.43785 0.61695 0.6124 0.0
C699 C 0.28681 0.55735 0.65335 0.0
C700 C 0.26818 0.53389 0.681 0.0
C701 C 0.32041 0.56896 0.64952 0.0
C702 C 0.33639 0.55714 0.67287 0.0
C703 C 0.31749 0.53271 0.6997 0.0
C704 C 0.28377 0.52143 0.70396 0.0
C705 C 0.42473 0.59835 0.70587 0.0
C706 C 0.44231 0.61347 0.67271 0.0
C707 C 0.39062 0.57861 0.70544 0.0
C708 C 0.37298 0.57293 0.67175 0.0
C709 C 0.39075 0.58577 0.63798 0.0
C710 C 0.42509 0.60601 0.63848 0.0
H711 H 0.12396 0.31854 0.94995 0.0
H712 H 0.03473 0.27423 0.88355 0.0
H713 H 0.15234 0.35848 0.89949 0.0
H714 H 0.06301 0.31371 0.83362 0.0
H715 H 0.12993 0.37263 0.73681 0.0
H716 H 0.10826 0.32987 0.78572 0.0
H717 H 0.14788 0.40516 0.87173 0.0
H718 H 0.16937 0.44741 0.82339 0.0
C719 C 0.1104 0.3173 0.92474 0.0
C720 C 0.07702 0.29322 0.92097 0.0
C721 C 0.12666 0.34008 0.89582 0.0
C722 C 0.10996 0.33898 0.86242 0.0
C723 C 0.07671 0.31482 0.85866 0.0
C724 C 0.06042 0.29237 0.88759 0.0
C725 C 0.13438 0.37988 0.76616 0.0
C726 C 0.15093 0.4133 0.77629 0.0
C727 C 0.12187 0.35551 0.79412 0.0
C728 C 0.12625 0.36422 0.83257 0.0
C729 C 0.14429 0.39763 0.84245 0.0
C730 C 0.15632 0.42184 0.81468 0.0
H731 H 0.70362 0.82018 0.96459 0.0
H732 H 0.77271 0.83149 0.87714 0.0
H733 H 0.66006 0.80283 0.91695 0.0
H734 H 0.72966 0.81418 0.83015 0.0
H735 H 0.6493 0.79955 0.74898 0.0
H736 H 0.69119 0.82822 0.79769 0.0
H737 H 0.63167 0.75194 0.87744 0.0
H738 H 0.59013 0.72362 0.82938 0.0
C739 C 0.70958 0.81939 0.93526 0.0
C740 C 0.7414 0.82669 0.92468 0.0
C741 C 0.68471 0.8094 0.90804 0.0
C742 C 0.69146 0.80708 0.8698 0.0
C743 C 0.72371 0.81601 0.85922 0.0
C744 C 0.7483 0.82556 0.88631 0.0
C745 C 0.64511 0.78914 0.77701 0.0
C746 C 0.61663 0.7591 0.78513 0.0
C747 C 0.66904 0.8055 0.80486 0.0
C748 C 0.66467 0.79233 0.84142 0.0
C749 C 0.6356 0.76296 0.84976 0.0
C750 C 0.61197 0.7465 0.82196 0.0
H751 H 0.30518 0.88833 0.84016 0.0
H752 H 0.2407 0.88691 0.75236 0.0
H753 H 0.27814 0.90582 0.88549 0.0
H754 H 0.21333 0.90446 0.79828 0.0
H755 H 0.21422 0.9839 0.87838 0.0
H756 H 0.232 0.957 0.83339 0.0
H757 H 0.22486 0.88856 0.91919 0.0
H758 H 0.2069 0.91587 0.9649 0.0
C759 C 0.28509 0.8916 0.83049 0.0
C760 C 0.27538 0.88662 0.79243 0.0
C761 C 0.26933 0.90126 0.8567 0.0
C762 C 0.2436 0.9065 0.84552 0.0
C763 C 0.23326 0.90078 0.80766 0.0
C764 C 0.24887 0.89071 0.78139 0.0
C765 C 0.21632 0.9631 0.88786 0.0
C766 C 0.20954 0.95232 0.92546 0.0
C767 C 0.22615 0.9474 0.86181 0.0
C768 C 0.22976 0.92062 0.87265 0.0
C769 C 0.2224 0.90928 0.91008 0.0
C770 C 0.2121 0.92484 0.93621 0.0
H771 H 0.37249 0.15461 0.28765 0.0
H772 H 0.43351 0.13995 0.20738 0.0
H773 H 0.33056 0.14033 0.23873 0.0
H774 H 0.39201 0.12592 0.15908 0.0
H775 H 0.32143 0.1282 0.07196 0.0
H776 H 0.36435 0.15051 0.12065 0.0
H777 H 0.29306 0.08818 0.20361 0.0
H778 H 0.25062 0.06612 0.15562 0.0
C779 C 0.37702 0.14847 0.25967 0.0
C780 C 0.40621 0.14814 0.25159 0.0
C781 C 0.35307 0.14032 0.2317 0.0
C782 C 0.35813 0.13218 0.19503 0.0
C783 C 0.38759 0.13252 0.18687 0.0
C784 C 0.41123 0.14022 0.2148 0.0
C785 C 0.31498 0.1195 0.10064 0.0
C786 C 0.28272 0.09514 0.10978 0.0
C787 C 0.33949 0.13218 0.12846 0.0
C788 C 0.33199 0.12109 0.16595 0.0
C789 C 0.29954 0.09749 0.17514 0.0
C790 C 0.27528 0.08459 0.14742 0.0
H791 H 0.92557 0.24961 0.08581 0.0
H792 H 0.95691 0.19935 0.16257 0.0
H793 H 0.90394 0.26647 0.13865 0.0
H794 H 0.93365 0.21423 0.21512 0.0
H795 H 0.92781 0.28146 0.30481 0.0
H796 H 0.94406 0.25848 0.25289 0.0
H797 H 0.86476 0.25307 0.18517 0.0
H798 H 0.85005 0.27787 0.23635 0.0
C799 C 0.92708 0.24152 0.11391 0.0
C800 C 0.94309 0.22341 0.12012 0.0
C801 C 0.91457 0.25103 0.14434 0.0
C802 C 0.91719 0.24202 0.18157 0.0
C803 C 0.93189 0.22251 0.18723 0.0
C804 C 0.94498 0.21366 0.15699 0.0
C805 C 0.91365 0.27489 0.27898 0.0
C806 C 0.8878 0.28156 0.27458 0.0
C807 C 0.92285 0.26159 0.24909 0.0
C808 C 0.90594 0.25402 0.21436 0.0
C809 C 0.879 0.2593 0.21089 0.0
C810 C 0.8703 0.2732 0.24044 0.0
H811 H 0.78041 0.65848 0.28712 0.0
H812 H 0.72689 0.58937 0.19796 0.0
H813 H 0.80516 0.70294 0.24054 0.0
H814 H 0.75126 0.63343 0.15196 0.0
H815 H 0.81965 0.71777 0.07421 0.0
H816 H 0.80413 0.67415 0.12121 0.0
H817 H 0.78161 0.73006 0.20068 0.0
H818 H 0.79691 0.77319 0.15437 0.0
C819 C 0.77421 0.65273 0.25766 0.0
C820 C 0.7514 0.62052 0.24633 0.0
C821 C 0.78825 0.67813 0.23102 0.0
C822 C 0.78006 0.67165 0.19259 0.0
C823 C 0.75832 0.63919 0.18123 0.0
C824 C 0.74408 0.61399 0.20776 0.0
C825 C 0.81147 0.72071 0.10175 0.0
C826 C 0.80931 0.74888 0.11035 0.0
C827 C 0.80261 0.69579 0.12864 0.0
C828 C 0.79186 0.69882 0.16473 0.0
C829 C 0.79028 0.72722 0.1734 0.0
C830 C 0.79874 0.75181 0.14655 0.0
H831 H 0.04614 0.49657 0.62839 0.0
H832 H 0.10046 0.46687 0.55496 0.0
H833 H 0.00239 0.47788 0.5809 0.0
H834 H 0.05739 0.4489 0.50799 0.0
H835 H 0.98785 0.44738 0.41715 0.0
H836 H 0.03185 0.47317 0.46432 0.0
H837 H 0.96123 0.42211 0.55276 0.0
H838 H 0.91763 0.39641 0.50609 0.0
C839 C 0.04881 0.48615 0.60226 0.0
C840 C 0.07685 0.48324 0.59561 0.0
C841 C 0.02384 0.47554 0.57508 0.0
C842 C 0.02673 0.46231 0.54057 0.0
C843 C 0.05476 0.45955 0.53397 0.0
C844 C 0.07935 0.46965 0.56119 0.0
C845 C 0.98177 0.442 0.44669 0.0
C846 C 0.94941 0.4196 0.45786 0.0
C847 C 0.00689 0.45663 0.47364 0.0
C848 C -9e-05 0.44956 0.5122 0.0
C849 C 0.96731 0.42823 0.52334 0.0
C850 C 0.94241 0.41327 0.4965 0.0
H851 H 0.56631 0.49971 0.46841 0.0
H852 H 0.64757 0.59503 0.43778 0.0
H853 H 0.5483 0.52577 0.51497 0.0
H854 H 0.63032 0.62091 0.48504 0.0
H855 H 0.57515 0.66146 0.54931 0.0
H856 H 0.58992 0.63474 0.5009 0.0
H857 H 0.56375 0.55233 0.5752 0.0
H858 H 0.54759 0.57879 0.62361 0.0
C859 C 0.58017 0.52626 0.47137 0.0
C860 C 0.60831 0.54527 0.44922 0.0
C861 C 0.57007 0.54117 0.49841 0.0
C862 C 0.58798 0.57545 0.50413 0.0
C863 C 0.61561 0.59451 0.48121 0.0
C864 C 0.62555 0.57964 0.45399 0.0
C865 C 0.57256 0.63768 0.55556 0.0
C866 C 0.56018 0.62232 0.59051 0.0
C867 C 0.58123 0.62237 0.52768 0.0
C868 C 0.57815 0.59136 0.53399 0.0
C869 C 0.56599 0.57601 0.56909 0.0
C870 C 0.557 0.59128 0.597 0.0
H871 H 0.37759 0.95858 0.59393 0.0
H872 H 0.46045 0.94507 0.56919 0.0
H873 H 0.39523 0.00012 0.54508 0.0
H874 H 0.47904 0.98784 0.52116 0.0
H875 H 0.484 0.04093 0.41099 0.0
H876 H 0.46628 -0.00139 0.45976 0.0
H877 H 0.43467 0.05375 0.52909 0.0
H878 H 0.45065 0.09462 0.48019 0.0
C879 C 0.40006 0.96504 0.57867 0.0
C880 C 0.41768 0.94857 0.58562 0.0
C881 C 0.41023 0.98895 0.55053 0.0
C882 C 0.43859 0.99741 0.52891 0.0
C883 C 0.45675 0.98158 0.53666 0.0
C884 C 0.44633 0.95733 0.56456 0.0
C885 C 0.47297 0.04375 0.43653 0.0
C886 C 0.46873 0.07119 0.44151 0.0
C887 C 0.4631 0.01968 0.46469 0.0
C888 C 0.44903 0.02268 0.49856 0.0
C889 C 0.44479 0.05013 0.50327 0.0
C890 C 0.45424 0.07383 0.47511 0.0
loop_
_geom_bond_atom_site_label_1
_geom_bond_atom_site_label_2
_geom_bond_distance
_geom_bond_site_symmetry_2
_ccdc_geom_bond_type
Co0 O2 2.143 . S
Co0 O8 2.074 . S
Co0 O11 2.093 1_455 S
Co0 O24 2.097 1_455 S
Co0 N41 2.151 . S
Co0 N49 2.214 . S
Co1 O2 2.160 1_556 S
Co1 O7 2.058 . S
Co1 O17 2.057 . S
Co1 O32 2.037 1_455 S
Co1 N36 2.145 . S
Co1 N57 2.257 1_455 S
O2 Co0 2.143 . S
O2 Co1 2.160 1_554 S
C3 O4 1.278 . S
C3 O11 1.224 . S
O4 C3 1.278 . S
C5 O6 1.245 . S
C5 O17 1.232 . S
O6 C5 1.245 . S
O7 Co1 2.058 . S
O7 C33 1.269 1_556 S
O8 Co0 2.074 . S
O8 C33 1.257 . S
H9 C34 0.930 . S
H10 C40 0.930 . S
O11 Co0 2.093 1_655 S
O11 C3 1.224 . S
H12 C44 0.929 . S
H13 C46 0.930 . S
H14 C47 0.930 . S
H15 C45 0.929 . S
H16 C48 0.928 . S
O17 Co1 2.057 . S
O17 C5 1.232 . S
H18 C37 0.929 . S
H19 C38 0.929 . S
H20 C50 0.931 . S
H21 C42 0.929 . S
H22 C51 0.930 . S
H23 C43 0.931 . S
O24 Co0 2.097 1_655 S
O24 C52 1.214 . S
H25 C53 0.929 . S
H26 C54 0.929 . S
H27 C55 0.930 . S
H28 C56 0.929 . S
H29 C58 0.930 . S
H30 C35 0.930 . S
H31 C39 0.930 . S
O32 Co1 2.037 1_655 S
O32 C52 1.234 1_556 S
C33 O7 1.269 1_554 S
C33 O8 1.257 . S
C34 H9 0.930 . S
C34 C37 1.388 . S
C34 C39 1.418 . S
C35 H30 0.930 . S
C35 C38 1.404 . S
C35 C39 1.353 1_455 S
N36 Co1 2.145 . S
N36 C37 1.397 1_455 S
N36 C38 1.334 . S
C37 H18 0.929 . S
C37 C34 1.388 . S
C37 N36 1.397 1_655 S
C38 H19 0.929 . S
C38 C35 1.404 . S
C38 N36 1.334 . S
C39 H31 0.930 . S
C39 C34 1.418 . S
C39 C35 1.353 1_655 S
C40 H10 0.930 . S
C40 N41 1.330 . S
C40 C42 1.446 . S
N41 Co0 2.151 . S
N41 C40 1.330 . S
N41 C45 1.418 . S
C42 H21 0.929 . S
C42 C40 1.446 . S
C42 C43 1.332 . S
C43 H23 0.931 . S
C43 C42 1.332 . S
C43 C44 1.267 . S
C44 H12 0.929 . S
C44 C43 1.267 . S
C44 C45 1.251 . S
C45 H15 0.929 . S
C45 N41 1.418 . S
C45 C44 1.251 . S
C46 H13 0.930 . S
C46 C48 1.406 . S
C46 C51 1.261 . S
C47 H14 0.930 . S
C47 N49 1.325 . S
C47 C50 1.357 . S
C48 H16 0.928 . S
C48 C46 1.406 . S
C48 N49 1.261 . S
N49 Co0 2.214 . S
N49 C47 1.325 . S
N49 C48 1.261 . S
C50 H20 0.931 . S
C50 C47 1.357 . S
C50 C51 1.312 . S
C51 H22 0.930 . S
C51 C46 1.261 . S
C51 C50 1.312 . S
C52 O24 1.214 . S
C52 O32 1.234 1_554 S
C53 H25 0.929 . S
C53 C56 1.391 . S
C53 C58 1.391 . S
C54 H26 0.929 . S
C54 C55 1.390 . S
C54 N57 1.391 . S
C55 H27 0.930 . S
C55 C54 1.390 . S
C55 C56 1.392 . S
C56 H28 0.929 . S
C56 C53 1.391 . S
C56 C55 1.392 . S
N57 Co1 2.257 1_655 S
N57 C54 1.391 . S
N57 C58 1.388 . S
C58 H29 0.930 . S
C58 C53 1.391 . S
C58 N57 1.388 . S
Co59 O61 2.143 1_556 S
Co59 O67 2.074 . S
Co59 O70 2.093 . S
Co59 O83 2.097 . S
Co59 N100 2.151 . S
Co59 N108 2.214 . S
Co60 O61 2.160 . S
Co60 O66 2.058 . S
Co60 O76 2.057 . S
Co60 O91 2.037 . S
Co60 N95 2.145 . S
Co60 N116 2.257 . S
O61 Co59 2.143 1_554 S
O61 Co60 2.160 . S
C62 O63 1.278 . S
C62 O70 1.224 . S
O63 C62 1.278 . S
C64 O65 1.245 . S
C64 O76 1.232 . S
O65 C64 1.245 . S
O66 Co60 2.058 . S
O66 C92 1.269 . S
O67 Co59 2.074 . S
O67 C92 1.257 1_556 S
H68 C93 0.930 . S
H69 C99 0.930 . S
O70 Co59 2.093 . S
O70 C62 1.224 . S
H71 C103 0.929 . S
H72 C105 0.930 . S
H73 C106 0.930 . S
H74 C104 0.929 . S
H75 C107 0.928 . S
O76 Co60 2.057 . S
O76 C64 1.232 . S
H77 C96 0.929 . S
H78 C97 0.929 . S
H79 C109 0.931 . S
H80 C101 0.929 . S
H81 C110 0.930 . S
H82 C102 0.931 . S
O83 Co59 2.097 . S
O83 C111 1.214 1_556 S
H84 C112 0.929 . S
H85 C113 0.929 . S
H86 C114 0.930 . S
H87 C115 0.929 . S
H88 C117 0.930 . S
H89 C94 0.930 . S
H90 C98 0.930 . S
O91 Co60 2.037 . S
O91 C111 1.234 . S
C92 O66 1.269 . S
C92 O67 1.257 1_554 S
C93 H68 0.930 . S
C93 C96 1.388 . S
C93 C98 1.418 . S
C94 H89 0.930 . S
C94 C97 1.404 . S
C94 C98 1.353 . S
N95 Co60 2.145 . S
N95 C96 1.397 . S
N95 C97 1.334 . S
C96 H77 0.929 . S
C96 C93 1.388 . S
C96 N95 1.397 . S
C97 H78 0.929 . S
C97 C94 1.404 . S
C97 N95 1.334 . S
C98 H90 0.930 . S
C98 C93 1.418 . S
C98 C94 1.353 . S
C99 H69 0.930 . S
C99 N100 1.330 . S
C99 C101 1.446 . S
N100 Co59 2.151 . S
N100 C99 1.330 . S
N100 C104 1.418 . S
C101 H80 0.929 . S
C101 C99 1.446 . S
C101 C102 1.332 . S
C102 H82 0.931 . S
C102 C101 1.332 . S
C102 C103 1.267 . S
C103 H71 0.929 . S
C103 C102 1.267 . S
C103 C104 1.251 . S
C104 H74 0.929 . S
C104 N100 1.418 . S
C104 C103 1.251 . S
C105 H72 0.930 . S
C105 C107 1.406 . S
C105 C110 1.261 . S
C106 H73 0.930 . S
C106 N108 1.325 . S
C106 C109 1.357 . S
C107 H75 0.928 . S
C107 C105 1.406 . S
C107 N108 1.261 . S
N108 Co59 2.214 . S
N108 C106 1.325 . S
N108 C107 1.261 . S
C109 H79 0.931 . S
C109 C106 1.357 . S
C109 C110 1.312 . S
C110 H81 0.930 . S
C110 C105 1.261 . S
C110 C109 1.312 . S
C111 O83 1.214 1_554 S
C111 O91 1.234 . S
C112 H84 0.929 . S
C112 C115 1.391 . S
C112 C117 1.391 . S
C113 H85 0.929 . S
C113 C114 1.390 . S
C113 N116 1.391 . S
C114 H86 0.930 . S
C114 C113 1.390 . S
C114 C115 1.392 . S
C115 H87 0.929 . S
C115 C112 1.391 . S
C115 C114 1.392 . S
N116 Co60 2.257 . S
N116 C113 1.391 . S
N116 C117 1.388 . S
C117 H88 0.930 . S
C117 C112 1.391 . S
C117 N116 1.388 . S
Co118 O120 2.143 . S
Co118 O126 2.074 1_545 S
Co118 O129 2.093 . S
Co118 O142 2.097 . S
Co118 N159 2.151 1_545 S
Co118 N167 2.214 . S
Co119 O120 2.160 1_556 S
Co119 O125 2.058 1_545 S
Co119 O135 2.057 . S
Co119 O150 2.037 . S
Co119 N154 2.145 . S
Co119 N175 2.257 . S
O120 Co118 2.143 . S
O120 Co119 2.160 1_554 S
C121 O122 1.278 . S
C121 O129 1.224 . S
O122 C121 1.278 . S
C123 O124 1.245 . S
C123 O135 1.232 1_565 S
O124 C123 1.245 . S
O125 Co119 2.058 1_565 S
O125 C151 1.269 1_556 S
O126 Co118 2.074 1_565 S
O126 C151 1.257 . S
H127 C152 0.930 . S
H128 C158 0.930 . S
O129 Co118 2.093 . S
O129 C121 1.224 . S
H130 C162 0.929 . S
H131 C164 0.930 . S
H132 C165 0.930 . S
H133 C163 0.929 . S
H134 C166 0.928 . S
O135 Co119 2.057 . S
O135 C123 1.232 1_545 S
H136 C155 0.929 . S
H137 C156 0.929 . S
H138 C168 0.931 . S
H139 C160 0.929 . S
H140 C169 0.930 . S
H141 C161 0.931 . S
O142 Co118 2.097 . S
O142 C170 1.214 . S
H143 C171 0.929 . S
H144 C172 0.929 . S
H145 C173 0.930 . S
H146 C174 0.929 . S
H147 C176 0.930 . S
H148 C153 0.930 . S
H149 C157 0.930 . S
O150 Co119 2.037 . S
O150 C170 1.234 1_556 S
C151 O125 1.269 1_554 S
C151 O126 1.257 . S
C152 H127 0.930 . S
C152 C155 1.388 . S
C152 C157 1.418 . S
C153 H148 0.930 . S
C153 C156 1.404 . S
C153 C157 1.353 . S
N154 Co119 2.145 . S
N154 C155 1.397 . S
N154 C156 1.334 . S
C155 H136 0.929 . S
C155 C152 1.388 . S
C155 N154 1.397 . S
C156 H137 0.929 . S
C156 C153 1.404 . S
C156 N154 1.334 . S
C157 H149 0.930 . S
C157 C152 1.418 . S
C157 C153 1.353 . S
C158 H128 0.930 . S
C158 N159 1.330 . S
C158 C160 1.446 . S
N159 Co118 2.151 1_565 S
N159 C158 1.330 . S
N159 C163 1.418 . S
C160 H139 0.929 . S
C160 C158 1.446 . S
C160 C161 1.332 . S
C161 H141 0.931 . S
C161 C160 1.332 . S
C161 C162 1.267 . S
C162 H130 0.929 . S
C162 C161 1.267 . S
C162 C163 1.251 . S
C163 H133 0.929 . S
C163 N159 1.418 . S
C163 C162 1.251 . S
C164 H131 0.930 . S
C164 C166 1.406 . S
C164 C169 1.261 . S
C165 H132 0.930 . S
C165 N167 1.325 . S
C165 C168 1.357 . S
C166 H134 0.928 . S
C166 C164 1.406 . S
C166 N167 1.261 . S
N167 Co118 2.214 . S
N167 C165 1.325 . S
N167 C166 1.261 . S
C168 H138 0.931 . S
C168 C165 1.357 . S
C168 C169 1.312 . S
C169 H140 0.930 . S
C169 C164 1.261 . S
C169 C168 1.312 . S
C170 O142 1.214 . S
C170 O150 1.234 1_554 S
C171 H143 0.929 . S
C171 C174 1.391 . S
C171 C176 1.391 . S
C172 H144 0.929 . S
C172 C173 1.390 . S
C172 N175 1.391 . S
C173 H145 0.930 . S
C173 C172 1.390 . S
C173 C174 1.392 . S
C174 H146 0.929 . S
C174 C171 1.391 . S
C174 C173 1.392 . S
N175 Co119 2.257 . S
N175 C172 1.391 . S
N175 C176 1.388 . S
C176 H147 0.930 . S
C176 C171 1.391 . S
C176 N175 1.388 . S
Co177 O179 2.143 . S
Co177 O185 2.074 . S
Co177 O188 2.093 . S
Co177 O201 2.097 . S
Co177 N218 2.151 . S
Co177 N226 2.214 . S
Co178 O179 2.160 . S
Co178 O184 2.058 . S
Co178 O194 2.057 . S
Co178 O209 2.037 . S
Co178 N213 2.145 . S
Co178 N234 2.257 . S
O179 Co177 2.143 . S
O179 Co178 2.160 . S
C180 O181 1.278 . S
C180 O188 1.224 . S
O181 C180 1.278 . S
C182 O183 1.245 . S
C182 O194 1.232 . S
O183 C182 1.245 . S
O184 Co178 2.058 . S
O184 C210 1.269 . S
O185 Co177 2.074 . S
O185 C210 1.257 . S
H186 C211 0.930 . S
H187 C217 0.930 . S
O188 Co177 2.093 . S
O188 C180 1.224 . S
H189 C221 0.929 . S
H190 C223 0.930 . S
H191 C224 0.930 . S
H192 C222 0.929 . S
H193 C225 0.928 . S
O194 Co178 2.057 . S
O194 C182 1.232 . S
H195 C214 0.929 . S
H196 C215 0.929 . S
H197 C227 0.931 . S
H198 C219 0.929 . S
H199 C228 0.930 . S
H200 C220 0.931 . S
O201 Co177 2.097 . S
O201 C229 1.214 . S
H202 C230 0.929 . S
H203 C231 0.929 . S
H204 C232 0.930 . S
H205 C233 0.929 . S
H206 C235 0.930 . S
H207 C212 0.930 . S
H208 C216 0.930 . S
O209 Co178 2.037 . S
O209 C229 1.234 . S
C210 O184 1.269 . S
C210 O185 1.257 . S
C211 H186 0.930 . S
C211 C214 1.388 . S
C211 C216 1.418 . S
C212 H207 0.930 . S
C212 C215 1.404 . S
C212 C216 1.353 . S
N213 Co178 2.145 . S
N213 C214 1.397 . S
N213 C215 1.334 . S
C214 H195 0.929 . S
C214 C211 1.388 . S
C214 N213 1.397 . S
C215 H196 0.929 . S
C215 C212 1.404 . S
C215 N213 1.334 . S
C216 H208 0.930 . S
C216 C211 1.418 . S
C216 C212 1.353 . S
C217 H187 0.930 . S
C217 N218 1.330 . S
C217 C219 1.446 . S
N218 Co177 2.151 . S
N218 C217 1.330 . S
N218 C222 1.418 . S
C219 H198 0.929 . S
C219 C217 1.446 . S
C219 C220 1.332 . S
C220 H200 0.931 . S
C220 C219 1.332 . S
C220 C221 1.267 . S
C221 H189 0.929 . S
C221 C220 1.267 . S
C221 C222 1.251 . S
C222 H192 0.929 . S
C222 N218 1.418 . S
C222 C221 1.251 . S
C223 H190 0.930 . S
C223 C225 1.406 . S
C223 C228 1.261 . S
C224 H191 0.930 . S
C224 N226 1.325 . S
C224 C227 1.357 . S
C225 H193 0.928 . S
C225 C223 1.406 . S
C225 N226 1.261 . S
N226 Co177 2.214 . S
N226 C224 1.325 . S
N226 C225 1.261 . S
C227 H197 0.931 . S
C227 C224 1.357 . S
C227 C228 1.312 . S
C228 H199 0.930 . S
C228 C223 1.261 . S
C228 C227 1.312 . S
C229 O201 1.214 . S
C229 O209 1.234 . S
C230 H202 0.929 . S
C230 C233 1.391 . S
C230 C235 1.391 . S
C231 H203 0.929 . S
C231 C232 1.390 . S
C231 N234 1.391 . S
C232 H204 0.930 . S
C232 C231 1.390 . S
C232 C233 1.392 . S
C233 H205 0.929 . S
C233 C230 1.391 . S
C233 C232 1.392 . S
N234 Co178 2.257 . S
N234 C231 1.391 . S
N234 C235 1.388 . S
C235 H206 0.930 . S
C235 C230 1.391 . S
C235 N234 1.388 . S
Co236 O238 2.143 . S
Co236 O244 2.074 . S
Co236 O247 2.093 . S
Co236 O260 2.097 . S
Co236 N277 2.151 . S
Co236 N285 2.214 . S
Co237 O238 2.160 . S
Co237 O243 2.058 . S
Co237 O253 2.057 . S
Co237 O268 2.037 . S
Co237 N272 2.145 . S
Co237 N293 2.257 . S
O238 Co236 2.143 . S
O238 Co237 2.160 . S
C239 O240 1.278 . S
C239 O247 1.224 . S
O240 C239 1.278 . S
C241 O242 1.245 . S
C241 O253 1.232 . S
O242 C241 1.245 . S
O243 Co237 2.058 . S
O243 C269 1.269 . S
O244 Co236 2.074 . S
O244 C269 1.257 . S
H245 C270 0.930 . S
H246 C276 0.930 . S
O247 Co236 2.093 . S
O247 C239 1.224 . S
H248 C280 0.929 . S
H249 C282 0.930 . S
H250 C283 0.930 . S
H251 C281 0.929 . S
H252 C284 0.928 . S
O253 Co237 2.057 . S
O253 C241 1.232 . S
H254 C273 0.929 . S
H255 C274 0.929 . S
H256 C286 0.931 . S
H257 C278 0.929 . S
H258 C287 0.930 . S
H259 C279 0.931 . S
O260 Co236 2.097 . S
O260 C288 1.214 . S
H261 C289 0.929 . S
H262 C290 0.929 . S
H263 C291 0.930 . S
H264 C292 0.929 . S
H265 C294 0.930 . S
H266 C271 0.930 . S
H267 C275 0.930 . S
O268 Co237 2.037 . S
O268 C288 1.234 . S
C269 O243 1.269 . S
C269 O244 1.257 . S
C270 H245 0.930 . S
C270 C273 1.388 . S
C270 C275 1.418 . S
C271 H266 0.930 . S
C271 C274 1.404 . S
C271 C275 1.353 . S
N272 Co237 2.145 . S
N272 C273 1.397 . S
N272 C274 1.334 . S
C273 H254 0.929 . S
C273 C270 1.388 . S
C273 N272 1.397 . S
C274 H255 0.929 . S
C274 C271 1.404 . S
C274 N272 1.334 . S
C275 H267 0.930 . S
C275 C270 1.418 . S
C275 C271 1.353 . S
C276 H246 0.930 . S
C276 N277 1.330 . S
C276 C278 1.446 . S
N277 Co236 2.151 . S
N277 C276 1.330 . S
N277 C281 1.418 . S
C278 H257 0.929 . S
C278 C276 1.446 . S
C278 C279 1.332 . S
C279 H259 0.931 . S
C279 C278 1.332 . S
C279 C280 1.267 . S
C280 H248 0.929 . S
C280 C279 1.267 . S
C280 C281 1.251 . S
C281 H251 0.929 . S
C281 N277 1.418 . S
C281 C280 1.251 . S
C282 H249 0.930 . S
C282 C284 1.406 . S
C282 C287 1.261 . S
C283 H250 0.930 . S
C283 N285 1.325 . S
C283 C286 1.357 . S
C284 H252 0.928 . S
C284 C282 1.406 . S
C284 N285 1.261 . S
N285 Co236 2.214 . S
N285 C283 1.325 . S
N285 C284 1.261 . S
C286 H256 0.931 . S
C286 C283 1.357 . S
C286 C287 1.312 . S
C287 H258 0.930 . S
C287 C282 1.261 . S
C287 C286 1.312 . S
C288 O260 1.214 . S
C288 O268 1.234 . S
C289 H261 0.929 . S
C289 C292 1.391 . S
C289 C294 1.391 . S
C290 H262 0.929 . S
C290 C291 1.390 . S
C290 N293 1.391 . S
C291 H263 0.930 . S
C291 C290 1.390 . S
C291 C292 1.392 . S
C292 H264 0.929 . S
C292 C289 1.391 . S
C292 C291 1.392 . S
N293 Co237 2.257 . S
N293 C290 1.391 . S
N293 C294 1.388 . S
C294 H265 0.930 . S
C294 C289 1.391 . S
C294 N293 1.388 . S
Co295 O297 2.143 . S
Co295 O303 2.074 . S
Co295 O306 2.093 . S
Co295 O319 2.097 . S
Co295 N336 2.151 . S
Co295 N344 2.214 . S
Co296 O297 2.160 . S
Co296 O302 2.058 . S
Co296 O312 2.057 . S
Co296 O327 2.037 . S
Co296 N331 2.145 . S
Co296 N352 2.257 . S
O297 Co295 2.143 . S
O297 Co296 2.160 . S
C298 O299 1.278 . S
C298 O306 1.224 . S
O299 C298 1.278 . S
C300 O301 1.245 . S
C300 O312 1.232 . S
O301 C300 1.245 . S
O302 Co296 2.058 . S
O302 C328 1.269 . S
O303 Co295 2.074 . S
O303 C328 1.257 . S
H304 C329 0.930 . S
H305 C335 0.930 . S
O306 Co295 2.093 . S
O306 C298 1.224 . S
H307 C339 0.929 . S
H308 C341 0.930 . S
H309 C342 0.930 . S
H310 C340 0.929 . S
H311 C343 0.928 . S
O312 Co296 2.057 . S
O312 C300 1.232 . S
H313 C332 0.929 . S
H314 C333 0.929 . S
H315 C345 0.931 . S
H316 C337 0.929 . S
H317 C346 0.930 . S
H318 C338 0.931 . S
O319 Co295 2.097 . S
O319 C347 1.214 . S
H320 C348 0.929 . S
H321 C349 0.929 . S
H322 C350 0.930 . S
H323 C351 0.929 . S
H324 C353 0.930 . S
H325 C330 0.930 . S
H326 C334 0.930 . S
O327 Co296 2.037 . S
O327 C347 1.234 . S
C328 O302 1.269 . S
C328 O303 1.257 . S
C329 H304 0.930 . S
C329 C332 1.388 . S
C329 C334 1.418 . S
C330 H325 0.930 . S
C330 C333 1.404 . S
C330 C334 1.353 . S
N331 Co296 2.145 . S
N331 C332 1.397 . S
N331 C333 1.334 . S
C332 H313 0.929 . S
C332 C329 1.388 . S
C332 N331 1.397 . S
C333 H314 0.929 . S
C333 C330 1.404 . S
C333 N331 1.334 . S
C334 H326 0.930 . S
C334 C329 1.418 . S
C334 C330 1.353 . S
C335 H305 0.930 . S
C335 N336 1.330 . S
C335 C337 1.446 . S
N336 Co295 2.151 . S
N336 C335 1.330 . S
N336 C340 1.418 . S
C337 H316 0.929 . S
C337 C335 1.446 . S
C337 C338 1.332 . S
C338 H318 0.931 . S
C338 C337 1.332 . S
C338 C339 1.267 . S
C339 H307 0.929 . S
C339 C338 1.267 . S
C339 C340 1.251 . S
C340 H310 0.929 . S
C340 N336 1.418 . S
C340 C339 1.251 . S
C341 H308 0.930 . S
C341 C343 1.406 . S
C341 C346 1.261 . S
C342 H309 0.930 . S
C342 N344 1.325 . S
C342 C345 1.357 . S
C343 H311 0.928 . S
C343 C341 1.406 . S
C343 N344 1.261 . S
N344 Co295 2.214 . S
N344 C342 1.325 . S
N344 C343 1.261 . S
C345 H315 0.931 . S
C345 C342 1.357 . S
C345 C346 1.312 . S
C346 H317 0.930 . S
C346 C341 1.261 . S
C346 C345 1.312 . S
C347 O319 1.214 . S
C347 O327 1.234 . S
C348 H320 0.929 . S
C348 C351 1.391 . S
C348 C353 1.391 . S
C349 H321 0.929 . S
C349 C350 1.390 . S
C349 N352 1.391 . S
C350 H322 0.930 . S
C350 C349 1.390 . S
C350 C351 1.392 . S
C351 H323 0.929 . S
C351 C348 1.391 . S
C351 C350 1.392 . S
N352 Co296 2.257 . S
N352 C349 1.391 . S
N352 C353 1.388 . S
C353 H324 0.930 . S
C353 C348 1.391 . S
C353 N352 1.388 . S
Co354 O356 2.143 . S
Co354 O362 2.074 . S
Co354 O365 2.093 . S
Co354 O378 2.097 . S
Co354 N395 2.151 . S
Co354 N403 2.214 . S
Co355 O356 2.160 . S
Co355 O361 2.058 . S
Co355 O371 2.057 . S
Co355 O386 2.037 . S
Co355 N390 2.145 . S
Co355 N411 2.257 . S
O356 Co354 2.143 . S
O356 Co355 2.160 . S
C357 O358 1.278 . S
C357 O365 1.224 . S
O358 C357 1.278 . S
C359 O360 1.245 . S
C359 O371 1.232 . S
O360 C359 1.245 . S
O361 Co355 2.058 . S
O361 C387 1.269 . S
O362 Co354 2.074 . S
O362 C387 1.257 . S
H363 C388 0.930 . S
H364 C394 0.930 . S
O365 Co354 2.093 . S
O365 C357 1.224 . S
H366 C398 0.929 . S
H367 C400 0.930 . S
H368 C401 0.930 . S
H369 C399 0.929 . S
H370 C402 0.928 . S
O371 Co355 2.057 . S
O371 C359 1.232 . S
H372 C391 0.929 . S
H373 C392 0.929 . S
H374 C404 0.931 . S
H375 C396 0.929 . S
H376 C405 0.930 . S
H377 C397 0.931 . S
O378 Co354 2.097 . S
O378 C406 1.214 . S
H379 C407 0.929 . S
H380 C408 0.929 . S
H381 C409 0.930 . S
H382 C410 0.929 . S
H383 C412 0.930 . S
H384 C389 0.930 . S
H385 C393 0.930 . S
O386 Co355 2.037 . S
O386 C406 1.234 . S
C387 O361 1.269 . S
C387 O362 1.257 . S
C388 H363 0.930 . S
C388 C391 1.388 . S
C388 C393 1.418 . S
C389 H384 0.930 . S
C389 C392 1.404 . S
C389 C393 1.353 . S
N390 Co355 2.145 . S
N390 C391 1.397 . S
N390 C392 1.334 . S
C391 H372 0.929 . S
C391 C388 1.388 . S
C391 N390 1.397 . S
C392 H373 0.929 . S
C392 C389 1.404 . S
C392 N390 1.334 . S
C393 H385 0.930 . S
C393 C388 1.418 . S
C393 C389 1.353 . S
C394 H364 0.930 . S
C394 N395 1.330 . S
C394 C396 1.446 . S
N395 Co354 2.151 . S
N395 C394 1.330 . S
N395 C399 1.418 . S
C396 H375 0.929 . S
C396 C394 1.446 . S
C396 C397 1.332 . S
C397 H377 0.931 . S
C397 C396 1.332 . S
C397 C398 1.267 . S
C398 H366 0.929 . S
C398 C397 1.267 . S
C398 C399 1.251 . S
C399 H369 0.929 . S
C399 N395 1.418 . S
C399 C398 1.251 . S
C400 H367 0.930 . S
C400 C402 1.406 . S
C400 C405 1.261 . S
C401 H368 0.930 . S
C401 N403 1.325 . S
C401 C404 1.357 . S
C402 H370 0.928 . S
C402 C400 1.406 . S
C402 N403 1.261 . S
N403 Co354 2.214 . S
N403 C401 1.325 . S
N403 C402 1.261 . S
C404 H374 0.931 . S
C404 C401 1.357 . S
C404 C405 1.312 . S
C405 H376 0.930 . S
C405 C400 1.261 . S
C405 C404 1.312 . S
C406 O378 1.214 . S
C406 O386 1.234 . S
C407 H379 0.929 . S
C407 C410 1.391 . S
C407 C412 1.391 . S
C408 H380 0.929 . S
C408 C409 1.390 . S
C408 N411 1.391 . S
C409 H381 0.930 . S
C409 C408 1.390 . S
C409 C410 1.392 . S
C410 H382 0.929 . S
C410 C407 1.391 . S
C410 C409 1.392 . S
N411 Co355 2.257 . S
N411 C408 1.391 . S
N411 C412 1.388 . S
C412 H383 0.930 . S
C412 C407 1.391 . S
C412 N411 1.388 . S
Co413 O415 2.143 . S
Co413 O421 2.074 . S
Co413 O424 2.093 . S
Co413 O437 2.097 . S
Co413 N454 2.151 . S
Co413 N462 2.214 . S
Co414 O415 2.160 . S
Co414 O420 2.058 . S
Co414 O430 2.057 . S
Co414 O445 2.037 . S
Co414 N449 2.145 . S
Co414 N470 2.257 . S
O415 Co413 2.143 . S
O415 Co414 2.160 . S
C416 O417 1.278 . S
C416 O424 1.224 . S
O417 C416 1.278 . S
C418 O419 1.245 . S
C418 O430 1.232 . S
O419 C418 1.245 . S
O420 Co414 2.058 . S
O420 C446 1.269 . S
O421 Co413 2.074 . S
O421 C446 1.257 . S
H422 C447 0.930 . S
H423 C453 0.930 . S
O424 Co413 2.093 . S
O424 C416 1.224 . S
H425 C457 0.929 . S
H426 C459 0.930 . S
H427 C460 0.930 . S
H428 C458 0.929 . S
H429 C461 0.928 . S
O430 Co414 2.057 . S
O430 C418 1.232 . S
H431 C450 0.929 . S
H432 C451 0.929 . S
H433 C463 0.931 . S
H434 C455 0.929 . S
H435 C464 0.930 . S
H436 C456 0.931 . S
O437 Co413 2.097 . S
O437 C465 1.214 . S
H438 C466 0.929 . S
H439 C467 0.929 . S
H440 C468 0.930 . S
H441 C469 0.929 . S
H442 C471 0.930 . S
H443 C448 0.930 . S
H444 C452 0.930 . S
O445 Co414 2.037 . S
O445 C465 1.234 . S
C446 O420 1.269 . S
C446 O421 1.257 . S
C447 H422 0.930 . S
C447 C450 1.388 . S
C447 C452 1.418 . S
C448 H443 0.930 . S
C448 C451 1.404 . S
C448 C452 1.353 . S
N449 Co414 2.145 . S
N449 C450 1.397 . S
N449 C451 1.334 . S
C450 H431 0.929 . S
C450 C447 1.388 . S
C450 N449 1.397 . S
C451 H432 0.929 . S
C451 C448 1.404 . S
C451 N449 1.334 . S
C452 H444 0.930 . S
C452 C447 1.418 . S
C452 C448 1.353 . S
C453 H423 0.930 . S
C453 N454 1.330 . S
C453 C455 1.446 . S
N454 Co413 2.151 . S
N454 C453 1.330 . S
N454 C458 1.418 . S
C455 H434 0.929 . S
C455 C453 1.446 . S
C455 C456 1.332 . S
C456 H436 0.931 . S
C456 C455 1.332 . S
C456 C457 1.267 . S
C457 H425 0.929 . S
C457 C456 1.267 . S
C457 C458 1.251 . S
C458 H428 0.929 . S
C458 N454 1.418 . S
C458 C457 1.251 . S
C459 H426 0.930 . S
C459 C461 1.406 . S
C459 C464 1.261 . S
C460 H427 0.930 . S
C460 N462 1.325 . S
C460 C463 1.357 . S
C461 H429 0.928 . S
C461 C459 1.406 . S
C461 N462 1.261 . S
N462 Co413 2.214 . S
N462 C460 1.325 . S
N462 C461 1.261 . S
C463 H433 0.931 . S
C463 C460 1.357 . S
C463 C464 1.312 . S
C464 H435 0.930 . S
C464 C459 1.261 . S
C464 C463 1.312 . S
C465 O437 1.214 . S
C465 O445 1.234 . S
C466 H438 0.929 . S
C466 C469 1.391 . S
C466 C471 1.391 . S
C467 H439 0.929 . S
C467 C468 1.390 . S
C467 N470 1.391 . S
C468 H440 0.930 . S
C468 C467 1.390 . S
C468 C469 1.392 . S
C469 H441 0.929 . S
C469 C466 1.391 . S
C469 C468 1.392 . S
N470 Co414 2.257 . S
N470 C467 1.391 . S
N470 C471 1.388 . S
C471 H442 0.930 . S
C471 C466 1.391 . S
C471 N470 1.388 . S
Co472 O474 2.143 . S
Co472 O480 2.074 . S
Co472 O483 2.093 . S
Co472 O496 2.097 . S
Co472 N513 2.151 . S
Co472 N521 2.214 . S
Co473 O474 2.160 . S
Co473 O479 2.058 . S
Co473 O489 2.057 . S
Co473 O504 2.037 . S
Co473 N508 2.145 . S
Co473 N529 2.257 . S
O474 Co472 2.143 . S
O474 Co473 2.160 . S
C475 O476 1.278 . S
C475 O483 1.224 . S
O476 C475 1.278 . S
C477 O478 1.245 . S
C477 O489 1.232 . S
O478 C477 1.245 . S
O479 Co473 2.058 . S
O479 C505 1.269 . S
O480 Co472 2.074 . S
O480 C505 1.257 . S
H481 C506 0.930 . S
H482 C512 0.930 . S
O483 Co472 2.093 . S
O483 C475 1.224 . S
H484 C516 0.929 . S
H485 C518 0.930 . S
H486 C519 0.930 . S
H487 C517 0.929 . S
H488 C520 0.928 . S
O489 Co473 2.057 . S
O489 C477 1.232 . S
H490 C509 0.929 . S
H491 C510 0.929 . S
H492 C522 0.931 . S
H493 C514 0.929 . S
H494 C523 0.930 . S
H495 C515 0.931 . S
O496 Co472 2.097 . S
O496 C524 1.214 . S
H497 C525 0.929 . S
H498 C526 0.929 . S
H499 C527 0.930 . S
H500 C528 0.929 . S
H501 C530 0.930 . S
H502 C507 0.930 . S
H503 C511 0.930 . S
O504 Co473 2.037 . S
O504 C524 1.234 . S
C505 O479 1.269 . S
C505 O480 1.257 . S
C506 H481 0.930 . S
C506 C509 1.388 . S
C506 C511 1.418 . S
C507 H502 0.930 . S
C507 C510 1.404 . S
C507 C511 1.353 . S
N508 Co473 2.145 . S
N508 C509 1.397 . S
N508 C510 1.334 . S
C509 H490 0.929 . S
C509 C506 1.388 . S
C509 N508 1.397 . S
C510 H491 0.929 . S
C510 C507 1.404 . S
C510 N508 1.334 . S
C511 H503 0.930 . S
C511 C506 1.418 . S
C511 C507 1.353 . S
C512 H482 0.930 . S
C512 N513 1.330 . S
C512 C514 1.446 . S
N513 Co472 2.151 . S
N513 C512 1.330 . S
N513 C517 1.418 . S
C514 H493 0.929 . S
C514 C512 1.446 . S
C514 C515 1.332 . S
C515 H495 0.931 . S
C515 C514 1.332 . S
C515 C516 1.267 . S
C516 H484 0.929 . S
C516 C515 1.267 . S
C516 C517 1.251 . S
C517 H487 0.929 . S
C517 N513 1.418 . S
C517 C516 1.251 . S
C518 H485 0.930 . S
C518 C520 1.406 . S
C518 C523 1.261 . S
C519 H486 0.930 . S
C519 N521 1.325 . S
C519 C522 1.357 . S
C520 H488 0.928 . S
C520 C518 1.406 . S
C520 N521 1.261 . S
N521 Co472 2.214 . S
N521 C519 1.325 . S
N521 C520 1.261 . S
C522 H492 0.931 . S
C522 C519 1.357 . S
C522 C523 1.312 . S
C523 H494 0.930 . S
C523 C518 1.261 . S
C523 C522 1.312 . S
C524 O496 1.214 . S
C524 O504 1.234 . S
C525 H497 0.929 . S
C525 C528 1.391 . S
C525 C530 1.391 . S
C526 H498 0.929 . S
C526 C527 1.390 . S
C526 N529 1.391 . S
C527 H499 0.930 . S
C527 C526 1.390 . S
C527 C528 1.392 . S
C528 H500 0.929 . S
C528 C525 1.391 . S
C528 C527 1.392 . S
N529 Co473 2.257 . S
N529 C526 1.391 . S
N529 C530 1.388 . S
C530 H501 0.930 . S
C530 C525 1.391 . S
C530 N529 1.388 . S
H531 C539 0.950 . S
H532 C544 0.950 . S
H533 C541 0.950 . S
H534 C543 0.950 1_556 S
H535 C545 0.950 1_556 S
H536 C547 0.948 1_556 S
H537 C549 0.950 . S
H538 C550 0.950 . S
C539 H531 0.950 . S
C539 C540 1.386 . S
C539 C541 1.391 . S
C540 C539 1.386 . S
C540 C544 1.393 . S
C541 H533 0.950 . S
C541 C539 1.391 . S
C541 C542 1.400 . S
C542 C541 1.400 . S
C542 C543 1.398 . S
C542 C548 1.491 . S
C543 H534 0.950 1_554 S
C543 C542 1.398 . S
C543 C544 1.391 . S
C544 H532 0.950 . S
C544 C540 1.393 . S
C544 C543 1.391 . S
C545 H535 0.950 1_554 S
C545 C546 1.386 . S
C545 C547 1.391 . S
C546 C545 1.386 . S
C546 C550 1.393 . S
C547 H536 0.948 1_554 S
C547 C545 1.391 . S
C547 C548 1.400 . S
C548 C542 1.491 . S
C548 C547 1.400 . S
C548 C549 1.398 . S
C549 H537 0.950 . S
C549 C548 1.398 . S
C549 C550 1.391 . S
C550 H538 0.950 . S
C550 C546 1.393 . S
C550 C549 1.391 . S
H551 C559 0.950 . S
H552 C564 0.950 . S
H553 C561 0.950 . S
H554 C563 0.954 . S
H555 C565 0.950 . S
H556 C567 0.950 . S
H557 C569 0.950 . S
H558 C570 0.950 . S
C559 H551 0.950 . S
C559 C560 1.386 . S
C559 C561 1.391 . S
C560 C559 1.386 . S
C560 C564 1.393 1_554 S
C561 H553 0.950 . S
C561 C559 1.391 . S
C561 C562 1.400 1_565 S
C562 C561 1.400 1_545 S
C562 C563 1.398 1_544 S
C562 C568 1.491 . S
C563 H554 0.954 . S
C563 C562 1.398 1_566 S
C563 C564 1.391 . S
C564 H552 0.950 . S
C564 C560 1.393 1_556 S
C564 C563 1.391 . S
C565 H555 0.950 . S
C565 C566 1.386 1_556 S
C565 C567 1.391 . S
C566 C565 1.386 1_554 S
C566 C570 1.393 . S
C567 H556 0.950 . S
C567 C565 1.391 . S
C567 C568 1.400 1_556 S
C568 C562 1.491 . S
C568 C567 1.400 1_554 S
C568 C569 1.398 . S
C569 H557 0.950 . S
C569 C568 1.398 . S
C569 C570 1.391 . S
C570 H558 0.950 . S
C570 C566 1.393 . S
C570 C569 1.391 . S
H571 C579 0.950 . S
H572 C584 0.950 . S
H573 C581 0.950 . S
H574 C583 0.950 . S
H575 C585 0.953 . S
H576 C587 0.950 1_556 S
H577 C589 0.950 . S
H578 C590 0.950 . S
C579 H571 0.950 . S
C579 C580 1.386 . S
C579 C581 1.391 . S
C580 C579 1.386 . S
C580 C584 1.393 . S
C581 H573 0.950 . S
C581 C579 1.391 . S
C581 C582 1.400 . S
C582 C581 1.400 . S
C582 C583 1.398 . S
C582 C588 1.491 1_655 S
C583 H574 0.950 . S
C583 C582 1.398 . S
C583 C584 1.391 . S
C584 H572 0.950 . S
C584 C580 1.393 . S
C584 C583 1.391 . S
C585 H575 0.953 . S
C585 C586 1.383 1_556 S
C585 C587 1.391 1_556 S
C586 C585 1.383 1_554 S
C586 C590 1.393 . S
C587 H576 0.950 1_554 S
C587 C585 1.391 1_554 S
C587 C588 1.400 . S
C588 C582 1.491 1_455 S
C588 C587 1.400 . S
C588 C589 1.398 . S
C589 H577 0.950 . S
C589 C588 1.398 . S
C589 C590 1.391 . S
C590 H578 0.950 . S
C590 C586 1.393 . S
C590 C589 1.391 . S
H591 C599 0.950 . S
H592 C604 0.950 . S
H593 C601 0.950 . S
H594 C603 0.950 . S
H595 C605 0.950 . S
H596 C607 0.950 . S
H597 C609 0.950 . S
H598 C610 0.950 . S
C599 H591 0.950 . S
C599 C600 1.386 . S
C599 C601 1.391 . S
C600 C599 1.386 . S
C600 C604 1.393 . S
C601 H593 0.950 . S
C601 C599 1.391 . S
C601 C602 1.400 . S
C602 C601 1.400 . S
C602 C603 1.398 . S
C602 C608 1.491 . S
C603 H594 0.950 . S
C603 C602 1.398 . S
C603 C604 1.391 . S
C604 H592 0.950 . S
C604 C600 1.393 . S
C604 C603 1.391 . S
C605 H595 0.950 . S
C605 C606 1.386 . S
C605 C607 1.391 . S
C606 C605 1.386 . S
C606 C610 1.393 . S
C607 H596 0.950 . S
C607 C605 1.391 . S
C607 C608 1.400 . S
C608 C602 1.491 . S
C608 C607 1.400 . S
C608 C609 1.398 . S
C609 H597 0.950 . S
C609 C608 1.398 . S
C609 C610 1.391 . S
C610 H598 0.950 . S
C610 C606 1.393 . S
C610 C609 1.391 . S
H611 C619 0.950 . S
H612 C624 0.950 . S
H613 C621 0.950 . S
H614 C623 0.950 . S
H615 C625 0.950 . S
H616 C627 0.950 . S
H617 C629 0.950 . S
H618 C630 0.950 . S
C619 H611 0.950 . S
C619 C620 1.386 . S
C619 C621 1.391 . S
C620 C619 1.386 . S
C620 C624 1.393 . S
C621 H613 0.950 . S
C621 C619 1.391 . S
C621 C622 1.400 . S
C622 C621 1.400 . S
C622 C623 1.398 . S
C622 C628 1.491 . S
C623 H614 0.950 . S
C623 C622 1.398 . S
C623 C624 1.391 . S
C624 H612 0.950 . S
C624 C620 1.393 . S
C624 C623 1.391 . S
C625 H615 0.950 . S
C625 C626 1.386 . S
C625 C627 1.391 . S
C626 C625 1.386 . S
C626 C630 1.393 . S
C627 H616 0.950 . S
C627 C625 1.391 . S
C627 C628 1.400 . S
C628 C622 1.491 . S
C628 C627 1.400 . S
C628 C629 1.398 . S
C629 H617 0.950 . S
C629 C628 1.398 . S
C629 C630 1.391 . S
C630 H618 0.950 . S
C630 C626 1.393 . S
C630 C629 1.391 . S
H631 C639 0.950 . S
H632 C644 0.950 . S
H633 C641 0.950 . S
H634 C643 0.950 . S
H635 C645 0.950 . S
H636 C647 0.950 . S
H637 C649 0.950 . S
H638 C650 0.950 . S
C639 H631 0.950 . S
C639 C640 1.386 . S
C639 C641 1.391 . S
C640 C639 1.386 . S
C640 C644 1.393 . S
C641 H633 0.950 . S
C641 C639 1.391 . S
C641 C642 1.400 . S
C642 C641 1.400 . S
C642 C643 1.398 . S
C642 C648 1.491 . S
C643 H634 0.950 . S
C643 C642 1.398 . S
C643 C644 1.391 . S
C644 H632 0.950 . S
C644 C640 1.393 . S
C644 C643 1.391 . S
C645 H635 0.950 . S
C645 C646 1.386 . S
C645 C647 1.391 . S
C646 C645 1.386 . S
C646 C650 1.393 . S
C647 H636 0.950 . S
C647 C645 1.391 . S
C647 C648 1.400 . S
C648 C642 1.491 . S
C648 C647 1.400 . S
C648 C649 1.398 . S
C649 H637 0.950 . S
C649 C648 1.398 . S
C649 C650 1.391 . S
C650 H638 0.950 . S
C650 C646 1.393 . S
C650 C649 1.391 . S
H651 C659 0.950 . S
H652 C664 0.950 . S
H653 C661 0.950 . S
H654 C663 0.950 . S
H655 C665 0.950 . S
H656 C667 0.950 . S
H657 C669 0.950 . S
H658 C670 0.950 . S
C659 H651 0.950 . S
C659 C660 1.386 . S
C659 C661 1.391 . S
C660 C659 1.386 . S
C660 C664 1.393 . S
C661 H653 0.950 . S
C661 C659 1.391 . S
C661 C662 1.400 . S
C662 C661 1.400 . S
C662 C663 1.398 . S
C662 C668 1.491 . S
C663 H654 0.950 . S
C663 C662 1.398 . S
C663 C664 1.391 . S
C664 H652 0.950 . S
C664 C660 1.393 . S
C664 C663 1.391 . S
C665 H655 0.950 . S
C665 C666 1.386 . S
C665 C667 1.391 . S
C666 C665 1.386 . S
C666 C670 1.393 . S
C667 H656 0.950 . S
C667 C665 1.391 . S
C667 C668 1.400 . S
C668 C662 1.491 . S
C668 C667 1.400 . S
C668 C669 1.398 . S
C669 H657 0.950 . S
C669 C668 1.398 . S
C669 C670 1.391 . S
C670 H658 0.950 . S
C670 C666 1.393 . S
C670 C669 1.391 . S
H671 C679 0.950 . S
H672 C684 0.950 . S
H673 C681 0.950 . S
H674 C683 0.950 . S
H675 C685 0.950 . S
H676 C687 0.950 . S
H677 C689 0.950 . S
H678 C690 0.950 . S
C679 H671 0.950 . S
C679 C680 1.386 . S
C679 C681 1.391 . S
C680 C679 1.386 . S
C680 C684 1.393 . S
C681 H673 0.950 . S
C681 C679 1.391 . S
C681 C682 1.400 . S
C682 C681 1.400 . S
C682 C683 1.398 . S
C682 C688 1.491 . S
C683 H674 0.950 . S
C683 C682 1.398 . S
C683 C684 1.391 . S
C684 H672 0.950 . S
C684 C680 1.393 . S
C684 C683 1.391 . S
C685 H675 0.950 . S
C685 C686 1.386 . S
C685 C687 1.391 . S
C686 C685 1.386 . S
C686 C690 1.393 . S
C687 H676 0.950 . S
C687 C685 1.391 . S
C687 C688 1.400 . S
C688 C682 1.491 . S
C688 C687 1.400 . S
C688 C689 1.398 . S
C689 H677 0.950 . S
C689 C688 1.398 . S
C689 C690 1.391 . S
C690 H678 0.950 . S
C690 C686 1.393 . S
C690 C689 1.391 . S
H691 C699 0.950 . S
H692 C704 0.950 . S
H693 C701 0.950 . S
H694 C703 0.950 . S
H695 C705 0.950 . S
H696 C707 0.950 . S
H697 C709 0.950 . S
H698 C710 0.950 . S
C699 H691 0.950 . S
C699 C700 1.386 . S
C699 C701 1.391 . S
C700 C699 1.386 . S
C700 C704 1.393 . S
C701 H693 0.950 . S
C701 C699 1.391 . S
C701 C702 1.400 . S
C702 C701 1.400 . S
C702 C703 1.398 . S
C702 C708 1.491 . S
C703 H694 0.950 . S
C703 C702 1.398 . S
C703 C704 1.391 . S
C704 H692 0.950 . S
C704 C700 1.393 . S
C704 C703 1.391 . S
C705 H695 0.950 . S
C705 C706 1.386 . S
C705 C707 1.391 . S
C706 C705 1.386 . S
C706 C710 1.393 . S
C707 H696 0.950 . S
C707 C705 1.391 . S
C707 C708 1.400 . S
C708 C702 1.491 . S
C708 C707 1.400 . S
C708 C709 1.398 . S
C709 H697 0.950 . S
C709 C708 1.398 . S
C709 C710 1.391 . S
C710 H698 0.950 . S
C710 C706 1.393 . S
C710 C709 1.391 . S
H711 C719 0.950 . S
H712 C724 0.950 . S
H713 C721 0.950 . S
H714 C723 0.950 . S
H715 C725 0.950 . S
H716 C727 0.950 . S
H717 C729 0.950 . S
H718 C730 0.950 . S
C719 H711 0.950 . S
C719 C720 1.386 . S
C719 C721 1.391 . S
C720 C719 1.386 . S
C720 C724 1.393 . S
C721 H713 0.950 . S
C721 C719 1.391 . S
C721 C722 1.400 . S
C722 C721 1.400 . S
C722 C723 1.398 . S
C722 C728 1.491 . S
C723 H714 0.950 . S
C723 C722 1.398 . S
C723 C724 1.391 . S
C724 H712 0.950 . S
C724 C720 1.393 . S
C724 C723 1.391 . S
C725 H715 0.950 . S
C725 C726 1.386 . S
C725 C727 1.391 . S
C726 C725 1.386 . S
C726 C730 1.393 . S
C727 H716 0.950 . S
C727 C725 1.391 . S
C727 C728 1.400 . S
C728 C722 1.491 . S
C728 C727 1.400 . S
C728 C729 1.398 . S
C729 H717 0.950 . S
C729 C728 1.398 . S
C729 C730 1.391 . S
C730 H718 0.950 . S
C730 C726 1.393 . S
C730 C729 1.391 . S
H731 C739 0.950 . S
H732 C744 0.950 . S
H733 C741 0.950 . S
H734 C743 0.950 . S
H735 C745 0.950 . S
H736 C747 0.950 . S
H737 C749 0.950 . S
H738 C750 0.950 . S
C739 H731 0.950 . S
C739 C740 1.386 . S
C739 C741 1.391 . S
C740 C739 1.386 . S
C740 C744 1.393 . S
C741 H733 0.950 . S
C741 C739 1.391 . S
C741 C742 1.400 . S
C742 C741 1.400 . S
C742 C743 1.398 . S
C742 C748 1.491 . S
C743 H734 0.950 . S
C743 C742 1.398 . S
C743 C744 1.391 . S
C744 H732 0.950 . S
C744 C740 1.393 . S
C744 C743 1.391 . S
C745 H735 0.950 . S
C745 C746 1.386 . S
C745 C747 1.391 . S
C746 C745 1.386 . S
C746 C750 1.393 . S
C747 H736 0.950 . S
C747 C745 1.391 . S
C747 C748 1.400 . S
C748 C742 1.491 . S
C748 C747 1.400 . S
C748 C749 1.398 . S
C749 H737 0.950 . S
C749 C748 1.398 . S
C749 C750 1.391 . S
C750 H738 0.950 . S
C750 C746 1.393 . S
C750 C749 1.391 . S
H751 C759 0.950 . S
H752 C764 0.950 . S
H753 C761 0.950 . S
H754 C763 0.950 . S
H755 C765 0.950 . S
H756 C767 0.950 . S
H757 C769 0.950 . S
H758 C770 0.950 . S
C759 H751 0.950 . S
C759 C760 1.386 . S
C759 C761 1.391 . S
C760 C759 1.386 . S
C760 C764 1.393 . S
C761 H753 0.950 . S
C761 C759 1.391 . S
C761 C762 1.400 . S
C762 C761 1.400 . S
C762 C763 1.398 . S
C762 C768 1.491 . S
C763 H754 0.950 . S
C763 C762 1.398 . S
C763 C764 1.391 . S
C764 H752 0.950 . S
C764 C760 1.393 . S
C764 C763 1.391 . S
C765 H755 0.950 . S
C765 C766 1.386 . S
C765 C767 1.391 . S
C766 C765 1.386 . S
C766 C770 1.393 . S
C767 H756 0.950 . S
C767 C765 1.391 . S
C767 C768 1.400 . S
C768 C762 1.491 . S
C768 C767 1.400 . S
C768 C769 1.398 . S
C769 H757 0.950 . S
C769 C768 1.398 . S
C769 C770 1.391 . S
C770 H758 0.950 . S
C770 C766 1.393 . S
C770 C769 1.391 . S
H771 C779 0.950 . S
H772 C784 0.950 . S
H773 C781 0.950 . S
H774 C783 0.950 . S
H775 C785 0.950 . S
H776 C787 0.950 . S
H777 C789 0.950 . S
H778 C790 0.950 . S
C779 H771 0.950 . S
C779 C780 1.386 . S
C779 C781 1.391 . S
C780 C779 1.386 . S
C780 C784 1.393 . S
C781 H773 0.950 . S
C781 C779 1.391 . S
C781 C782 1.400 . S
C782 C781 1.400 . S
C782 C783 1.398 . S
C782 C788 1.491 . S
C783 H774 0.950 . S
C783 C782 1.398 . S
C783 C784 1.391 . S
C784 H772 0.950 . S
C784 C780 1.393 . S
C784 C783 1.391 . S
C785 H775 0.950 . S
C785 C786 1.386 . S
C785 C787 1.391 . S
C786 C785 1.386 . S
C786 C790 1.393 . S
C787 H776 0.950 . S
C787 C785 1.391 . S
C787 C788 1.400 . S
C788 C782 1.491 . S
C788 C787 1.400 . S
C788 C789 1.398 . S
C789 H777 0.950 . S
C789 C788 1.398 . S
C789 C790 1.391 . S
C790 H778 0.950 . S
C790 C786 1.393 . S
C790 C789 1.391 . S
H791 C799 0.950 . S
H792 C804 0.950 1_455 S
H793 C801 0.950 . S
H794 C803 0.950 . S
H795 C805 0.950 . S
H796 C807 0.950 . S
H797 C809 0.950 . S
H798 C810 0.950 . S
C799 H791 0.950 . S
C799 C800 1.386 . S
C799 C801 1.391 . S
C800 C799 1.386 . S
C800 C804 1.393 . S
C801 H793 0.950 . S
C801 C799 1.391 . S
C801 C802 1.400 . S
C802 C801 1.400 . S
C802 C803 1.398 . S
C802 C808 1.491 . S
C803 H794 0.950 . S
C803 C802 1.398 . S
C803 C804 1.391 . S
C804 H792 0.950 1_655 S
C804 C800 1.393 . S
C804 C803 1.391 . S
C805 H795 0.950 . S
C805 C806 1.386 . S
C805 C807 1.391 . S
C806 C805 1.386 . S
C806 C810 1.393 . S
C807 H796 0.950 . S
C807 C805 1.391 . S
C807 C808 1.400 . S
C808 C802 1.491 . S
C808 C807 1.400 . S
C808 C809 1.398 . S
C809 H797 0.950 . S
C809 C808 1.398 . S
C809 C810 1.391 . S
C810 H798 0.950 . S
C810 C806 1.393 . S
C810 C809 1.391 . S
H811 C819 0.950 . S
H812 C824 0.950 . S
H813 C821 0.950 . S
H814 C823 0.950 . S
H815 C825 0.950 . S
H816 C827 0.950 . S
H817 C829 0.950 . S
H818 C830 0.950 . S
C819 H811 0.950 . S
C819 C820 1.386 . S
C819 C821 1.391 . S
C820 C819 1.386 . S
C820 C824 1.393 . S
C821 H813 0.950 . S
C821 C819 1.391 . S
C821 C822 1.400 . S
C822 C821 1.400 . S
C822 C823 1.398 . S
C822 C828 1.491 . S
C823 H814 0.950 . S
C823 C822 1.398 . S
C823 C824 1.391 . S
C824 H812 0.950 . S
C824 C820 1.393 . S
C824 C823 1.391 . S
C825 H815 0.950 . S
C825 C826 1.386 . S
C825 C827 1.391 . S
C826 C825 1.386 . S
C826 C830 1.393 . S
C827 H816 0.950 . S
C827 C825 1.391 . S
C827 C828 1.400 . S
C828 C822 1.491 . S
C828 C827 1.400 . S
C828 C829 1.398 . S
C829 H817 0.950 . S
C829 C828 1.398 . S
C829 C830 1.391 . S
C830 H818 0.950 . S
C830 C826 1.393 . S
C830 C829 1.391 . S
H831 C839 0.950 . S
H832 C844 0.950 . S
H833 C841 0.950 . S
H834 C843 0.950 . S
H835 C845 0.950 . S
H836 C847 0.950 . S
H837 C849 0.950 . S
H838 C850 0.950 . S
C839 H831 0.950 . S
C839 C840 1.386 . S
C839 C841 1.391 . S
C840 C839 1.386 . S
C840 C844 1.393 . S
C841 H833 0.950 . S
C841 C839 1.391 . S
C841 C842 1.400 . S
C842 C841 1.400 . S
C842 C843 1.398 . S
C842 C848 1.491 . S
C843 H834 0.950 . S
C843 C842 1.398 . S
C843 C844 1.391 . S
C844 H832 0.950 . S
C844 C840 1.393 . S
C844 C843 1.391 . S
C845 H835 0.950 . S
C845 C846 1.386 . S
C845 C847 1.391 1_655 S
C846 C845 1.386 . S
C846 C850 1.393 . S
C847 H836 0.950 . S
C847 C845 1.391 1_455 S
C847 C848 1.400 . S
C848 C842 1.491 . S
C848 C847 1.400 . S
C848 C849 1.398 1_455 S
C849 H837 0.950 . S
C849 C848 1.398 1_655 S
C849 C850 1.391 . S
C850 H838 0.950 . S
C850 C846 1.393 . S
C850 C849 1.391 . S
H851 C859 0.950 . S
H852 C864 0.950 . S
H853 C861 0.950 . S
H854 C863 0.950 . S
H855 C865 0.950 . S
H856 C867 0.950 . S
H857 C869 0.950 . S
H858 C870 0.950 . S
C859 H851 0.950 . S
C859 C860 1.386 . S
C859 C861 1.391 . S
C860 C859 1.386 . S
C860 C864 1.393 . S
C861 H853 0.950 . S
C861 C859 1.391 . S
C861 C862 1.400 . S
C862 C861 1.400 . S
C862 C863 1.398 . S
C862 C868 1.491 . S
C863 H854 0.950 . S
C863 C862 1.398 . S
C863 C864 1.391 . S
C864 H852 0.950 . S
C864 C860 1.393 . S
C864 C863 1.391 . S
C865 H855 0.950 . S
C865 C866 1.386 . S
C865 C867 1.391 . S
C866 C865 1.386 . S
C866 C870 1.393 . S
C867 H856 0.950 . S
C867 C865 1.391 . S
C867 C868 1.400 . S
C868 C862 1.491 . S
C868 C867 1.400 . S
C868 C869 1.398 . S
C869 H857 0.950 . S
C869 C868 1.398 . S
C869 C870 1.391 . S
C870 H858 0.950 . S
C870 C866 1.393 . S
C870 C869 1.391 . S
H871 C879 0.950 . S
H872 C884 0.950 . S
H873 C881 0.950 1_545 S
H874 C883 0.950 . S
H875 C885 0.950 . S
H876 C887 0.950 . S
H877 C889 0.950 . S
H878 C890 0.950 . S
C879 H871 0.950 . S
C879 C880 1.386 . S
C879 C881 1.391 . S
C880 C879 1.386 . S
C880 C884 1.393 . S
C881 H873 0.950 1_565 S
C881 C879 1.391 . S
C881 C882 1.400 1_565 S
C882 C881 1.400 1_545 S
C882 C883 1.395 . S
C882 C888 1.491 . S
C883 H874 0.950 . S
C883 C882 1.395 . S
C883 C884 1.393 1_545 S
C884 H872 0.950 . S
C884 C880 1.393 . S
C884 C883 1.393 1_565 S
C885 H875 0.950 . S
C885 C886 1.386 . S
C885 C887 1.391 . S
C886 C885 1.386 . S
C886 C890 1.393 . S
C887 H876 0.950 . S
C887 C885 1.391 . S
C887 C888 1.400 . S
C888 C882 1.491 . S
C888 C887 1.400 . S
C888 C889 1.398 . S
C889 H877 0.950 . S
C889 C888 1.398 . S
C889 C890 1.391 . S
C890 H878 0.950 . S
C890 C886 1.393 . S
C890 C889 1.391 . S
C540 C170 1.212 . S
C546 C33 1.204 . S
C560 C111 1.209 . S
C566 C52 1.219 . S
C580 C92 1.214 . S
C586 C151 1.207 . S
C600 C328 1.216 . S
C606 C229 1.209 . S
C620 C288 1.207 . S
C626 C210 1.208 . S
C640 C269 1.215 . S
C646 C347 1.214 . S
C660 C387 1.211 . S
C666 C524 1.214 . S
C680 C406 1.218 . S
C686 C465 1.210 . S
C700 C446 1.209 . S
C706 C505 1.208 . S
C720 C5 1.492 . S
C726 C418 1.493 . S
C740 C62 1.481 . S
C746 C475 1.486 . S
C760 C357 1.492 . S
C766 C123 1.495 . S
C780 C239 1.482 . S
C786 C121 1.491 . S
C800 C3 1.482 . S
C806 C298 1.485 . S
C820 C180 1.480 . S
C826 C64 1.496 . S
C840 C416 1.479 . S
C846 C300 1.495 . S
C860 C182 1.493 . S
C866 C477 1.492 . S
C880 C359 1.498 . S
C886 C241 1.498 . S
