# Generated by pormake.
# Topology zfs, (5)-cn, num edge types: 1
# Building blocks:
#     Node 0, Type 0, BuildingBlock: XOMCOT_clean_sbu_0, # of connection points: 5
#     Node 1, Type 0, BuildingBlock: XOMCOT_clean_sbu_0, # of connection points: 5
#     Node 2, Type 0, BuildingBlock: XOMCOT_clean_sbu_0, # of connection points: 5
#     Node 3, Type 0, BuildingBlock: XOMCOT_clean_sbu_0, # of connection points: 5
#     Node 4, Type 0, BuildingBlock: XOMCOT_clean_sbu_0, # of connection points: 5
#     Node 5, Type 0, BuildingBlock: XOMCOT_clean_sbu_0, # of connection points: 5
#     Node 6, Type 0, BuildingBlock: XOMCOT_clean_sbu_0, # of connection points: 5
#     Node 7, Type 0, BuildingBlock: XOMCOT_clean_sbu_0, # of connection points: 5
#     Edge 8, Type (0, 0), BuildingBlock: XUDNAN_clean_linker_2, # of connection points: 2
#     Edge 9, Type (0, 0), BuildingBlock: XUDNAN_clean_linker_2, # of connection points: 2
#     Edge 10, Type (0, 0), BuildingBlock: XUDNAN_clean_linker_2, # of connection points: 2
#     Edge 11, Type (0, 0), BuildingBlock: XUDNAN_clean_linker_2, # of connection points: 2
#     Edge 12, Type (0, 0), BuildingBlock: XUDNAN_clean_linker_2, # of connection points: 2
#     Edge 13, Type (0, 0), BuildingBlock: XUDNAN_clean_linker_2, # of connection points: 2
#     Edge 14, Type (0, 0), BuildingBlock: XUDNAN_clean_linker_2, # of connection points: 2
#     Edge 15, Type (0, 0), BuildingBlock: XUDNAN_clean_linker_2, # of connection points: 2
#     Edge 16, Type (0, 0), BuildingBlock: XUDNAN_clean_linker_2, # of connection points: 2
#     Edge 17, Type (0, 0), BuildingBlock: XUDNAN_clean_linker_2, # of connection points: 2
#     Edge 18, Type (0, 0), BuildingBlock: XUDNAN_clean_linker_2, # of connection points: 2
#     Edge 19, Type (0, 0), BuildingBlock: XUDNAN_clean_linker_2, # of connection points: 2
#     Edge 20, Type (0, 0), BuildingBlock: XUDNAN_clean_linker_2, # of connection points: 2
#     Edge 21, Type (0, 0), BuildingBlock: XUDNAN_clean_linker_2, # of connection points: 2
#     Edge 22, Type (0, 0), BuildingBlock: XUDNAN_clean_linker_2, # of connection points: 2
#     Edge 23, Type (0, 0), BuildingBlock: XUDNAN_clean_linker_2, # of connection points: 2
#     Edge 24, Type (0, 0), BuildingBlock: XUDNAN_clean_linker_2, # of connection points: 2
#     Edge 25, Type (0, 0), BuildingBlock: XUDNAN_clean_linker_2, # of connection points: 2
#     Edge 26, Type (0, 0), BuildingBlock: XUDNAN_clean_linker_2, # of connection points: 2
#     Edge 27, Type (0, 0), BuildingBlock: XUDNAN_clean_linker_2, # of connection points: 2
# Relax obj value: 0.133
# Max RMSD: 0.159
# Mean RMSD: 0.159
data_MOF--net-zfs--node1-XOMCOT_clean_sbu_0--edge1-XUDNAN_clean_linker_2
_symmetry_space_group_name_H-M    P1
_symmetry_Int_Tables_number       1
_symmetry_cell_setting            triclinic
loop_
_symmetry_equiv_pos_as_xyz
'x, y, z'
_cell_length_a     34.069081
_cell_length_b     34.09136
_cell_length_c     40.528538
_cell_angle_alpha  89.679862
_cell_angle_beta   90.005726
_cell_angle_gamma 89.912379
loop_
_atom_site_label
_atom_site_type_symbol
_atom_site_fract_x
_atom_site_fract_y
_atom_site_fract_z
_atom_type_partial_charge
Co0 Co 0.03127 0.2433 0.20758 0.0
C1 C 0.99406 0.26571 0.14488 0.0
C2 C 0.96436 0.2176 0.16786 0.0
C3 C 0.95134 0.22091 0.13573 0.0
N4 N 0.99125 0.24582 0.17363 0.0
N5 N 0.97012 0.25133 0.12152 0.0
H6 H 1.01711 0.28617 0.13917 0.0
H7 H 0.95797 0.19357 0.18454 0.0
C8 C 0.95548 0.23939 0.24554 0.0
O9 O 0.94194 0.26765 0.22649 0.0
N10 N 0.07142 0.24 0.24061 0.0
C11 C 0.10431 0.26174 0.24197 0.0
C12 C 0.1243 0.252 0.27034 0.0
C13 C 0.07168 0.2173 0.26783 0.0
N14 N 0.10363 0.22417 0.28657 0.0
C15 C 0.03879 0.32695 0.19606 0.0
C16 C 1.01633 0.34966 0.25856 0.0
C17 C 0.02796 0.37853 0.2359 0.0
C18 C 0.03898 0.36684 0.20419 0.0
C19 C 1.0159 0.31027 0.24926 0.0
N20 N 0.02588 0.29916 0.21796 0.0
H21 H 0.05164 0.31849 0.17294 0.0
H22 H 1.00964 0.28865 0.26804 0.0
H23 H 0.11268 0.2837 0.22395 0.0
H24 H 0.04901 0.19623 0.27377 0.0
O25 O 0.0718 0.24546 0.1734 0.0
O26 O 0.04428 0.19135 0.19283 0.0
O27 O 0.99065 0.22714 0.24171 0.0
C28 C 0.06903 0.20735 0.17242 0.0
H29 H 0.93243 0.2005 0.12298 0.0
H30 H 0.15134 0.26518 0.2788 0.0
H31 H 1.00882 0.35736 0.28369 0.0
H32 H 0.05001 0.38808 0.18651 0.0
Co33 Co 0.7933 0.04226 0.45466 0.0
C34 C 0.80049 1.01038 0.38734 0.0
C35 C 0.78066 0.96667 0.42154 0.0
C36 C 0.77938 0.95122 0.39016 0.0
N37 N 0.79347 1.004 0.41958 0.0
N38 N 0.79155 0.97906 0.36871 0.0
H39 H 0.81093 0.0377 0.37735 0.0
H40 H 0.77082 0.95241 0.44397 0.0
C41 C 0.82346 0.99812 0.51574 0.0
O42 O 0.80957 0.0251 0.53553 0.0
N43 N 0.793 0.08088 0.48911 0.0
C44 C 0.76241 0.1024 0.49974 0.0
C45 C 0.77562 0.1276 0.5237 0.0
C46 C 0.82456 0.09455 0.50533 0.0
N47 N 0.81468 0.12222 0.52752 0.0
C48 C 0.71257 0.03305 0.43968 0.0
C49 C 0.68652 1.0049 0.49983 0.0
C50 C 0.65913 1.01054 0.47436 0.0
C51 C 0.67279 0.02478 0.44397 0.0
C52 C 0.72636 1.01326 0.49439 0.0
N53 N 0.73901 0.0274 0.4646 0.0
H54 H 0.72227 0.04403 0.416 0.0
H55 H 0.74639 1.0087 0.51438 0.0
H56 H 0.73263 0.10003 0.49077 0.0
H57 H 0.85368 0.08245 0.50226 0.0
O58 O 0.78225 0.08456 0.42396 0.0
O59 O 0.84199 0.06502 0.43757 0.0
O60 O 0.8171 0.99993 0.48455 0.0
C61 C 0.81993 0.08927 0.42082 0.0
H62 H 0.7683 0.92257 0.38362 0.0
H63 H 0.7576 0.14797 0.53738 0.0
H64 H 0.67735 0.99371 0.52367 0.0
H65 H 0.6528 0.03012 0.42365 0.0
Co66 Co 0.03082 0.79921 0.69097 0.0
C67 C 0.06821 0.79083 0.62699 0.0
C68 C 0.09626 0.83455 0.65615 0.0
C69 C 0.10421 0.84208 0.62352 0.0
N70 N 0.07272 0.80281 0.65854 0.0
N71 N 0.08518 0.81546 0.6051 0.0
H72 H 0.04639 0.76964 0.61962 0.0
H73 H 0.10105 0.85549 0.67562 0.0
C74 C 0.10079 0.81982 0.73513 0.0
O75 O 0.12512 0.79741 0.71856 0.0
N76 N 0.98889 0.79722 0.72245 0.0
C77 C 0.96154 0.76923 0.72682 0.0
C78 C 0.93789 0.78008 0.75286 0.0
C79 C 0.98144 0.82469 0.74519 0.0
N80 N 0.95059 0.815 0.76433 0.0
C81 C 0.03966 0.71533 0.68263 0.0
C82 C 0.0573 0.69965 0.74791 0.0
C83 C 0.04903 0.6679 0.72717 0.0
C84 C 0.04123 0.67616 0.69376 0.0
C85 C 0.05419 0.73798 0.73617 0.0
N86 N 0.04547 0.74577 0.70388 0.0
H87 H 0.03113 0.72109 0.65744 0.0
H88 H 0.05594 0.76117 0.75403 0.0
H89 H 0.95922 0.74278 0.71234 0.0
H90 H 0.99894 0.8509 0.74797 0.0
O91 O 0.99314 0.78845 0.65598 0.0
O92 O 1.00943 0.84761 0.67355 0.0
O93 O 0.06487 0.82308 0.72644 0.0
C94 C 0.989 0.82634 0.65334 0.0
H95 H 0.11729 0.8688 0.61405 0.0
H96 H 0.91326 0.76358 0.76246 0.0
H97 H 0.06428 0.69522 0.77372 0.0
H98 H 0.03415 0.65287 0.67673 0.0
Co99 Co 0.247 1.00801 0.95509 0.0
C100 C 0.25114 0.04576 0.89007 0.0
C101 C 0.2102 0.07478 0.92162 0.0
C102 C 0.20303 0.0863 0.88962 0.0
N103 N 0.24035 0.04904 0.92207 0.0
N104 N 0.22835 0.0674 0.86975 0.0
H105 H 0.27036 0.023 0.88103 0.0
H106 H 0.19056 0.08016 0.942 0.0
C107 C 0.22878 0.07875 1.00005 0.0
O108 O 0.25282 0.10271 0.9846 0.0
N109 N 0.25226 0.96699 0.98754 0.0
C110 C 0.28147 0.94073 0.99177 0.0
C111 C 0.27408 0.91956 0.02032 0.0
C112 C 0.22747 0.96116 0.0128 0.0
N113 N 0.24031 0.93299 0.03352 0.0
C114 C 0.32867 1.01808 0.93912 0.0
C115 C 0.35262 0.04085 0.00131 0.0
C116 C 0.38103 0.03594 0.97666 0.0
C117 C 0.36863 0.02427 0.94524 0.0
C118 C 0.31309 0.03365 0.99433 0.0
N119 N 0.3013 0.02325 0.96334 0.0
H120 H 0.32 1.00763 0.91518 0.0
H121 H 0.2923 0.03478 0.01437 0.0
H122 H 0.3069 0.93814 0.97595 0.0
H123 H 0.20066 0.97756 0.01615 0.0
O124 O 0.25433 0.96935 0.92018 0.0
O125 O 0.19729 0.98651 0.94193 0.0
O126 O 0.22548 0.04304 0.99098 0.0
C127 C 0.21626 0.96544 0.9206 0.0
H128 H 0.17775 0.10289 0.88126 0.0
H129 H 0.29286 0.8974 0.03127 0.0
H130 H 0.36106 0.04871 0.02618 0.0
H131 H 0.38969 1.0197 0.9256 0.0
Co132 Co 0.03683 0.79994 0.30036 0.0
C133 C 0.99933 0.79504 0.36576 0.0
C134 C 0.96557 0.83035 0.33268 0.0
C135 C 0.95223 0.83661 0.36431 0.0
N136 N 0.99516 0.8039 0.33336 0.0
N137 N 0.97393 0.81461 0.38513 0.0
H138 H 0.02435 0.77963 0.3758 0.0
H139 H 0.95746 0.84799 0.31152 0.0
C140 C 0.96529 0.80208 0.2579 0.0
O141 O 0.95201 0.7735 0.2767 0.0
N142 N 0.0785 0.79811 0.26847 0.0
C143 C 0.10843 0.77234 0.26668 0.0
C144 C 0.13319 0.78408 0.24159 0.0
C145 C 0.08547 0.82523 0.24504 0.0
N146 N 0.11874 0.81747 0.22823 0.0
C147 C 0.02708 0.71913 0.31891 0.0
C148 C 0.02583 0.68846 0.25596 0.0
C149 C 0.02776 0.66255 0.283 0.0
C150 C 0.02679 0.67864 0.31474 0.0
C151 C 0.02525 0.72919 0.26129 0.0
N152 N 0.02649 0.74418 0.29258 0.0
H153 H 0.03017 0.72992 0.34352 0.0
H154 H 0.02603 0.7487 0.24017 0.0
H155 H 0.11234 0.74733 0.28291 0.0
H156 H 0.06674 0.85041 0.24077 0.0
O157 O 0.07515 0.79403 0.33511 0.0
O158 O 0.05552 0.85122 0.31491 0.0
O159 O 0.99906 0.81683 0.26396 0.0
C160 C 0.07694 0.83206 0.3363 0.0
H161 H 0.93114 0.85869 0.37163 0.0
H162 H 0.16038 0.76997 0.23454 0.0
H163 H 0.02685 0.67758 0.23093 0.0
H164 H 0.02744 0.66009 0.33652 0.0
Co165 Co 0.24488 0.03493 0.55792 0.0
C166 C 0.25404 0.99925 0.62335 0.0
C167 C 0.21879 0.96337 0.59191 0.0
C168 C 0.21417 0.95068 0.62396 0.0
N169 N 0.24325 0.99442 0.59159 0.0
N170 N 0.23564 0.97394 0.6438 0.0
H171 H 0.2706 0.0242 0.632 0.0
H172 H 0.20158 0.95354 0.57118 0.0
C173 C 0.22655 0.99425 0.49327 0.0
O174 O 0.25131 1.01735 0.47773 0.0
N175 N 0.2451 0.076 0.5248 0.0
C176 C 0.2728 0.10292 0.51744 0.0
C177 C 0.25865 0.12727 0.49302 0.0
C178 C 0.21409 0.08538 0.50567 0.0
N179 N 0.2218 0.11603 0.48558 0.0
C180 C 0.32882 0.04398 0.55832 0.0
C181 C 0.34709 0.97662 0.52418 0.0
C182 C 0.37748 1.00308 0.53142 0.0
C183 C 0.36786 0.03662 0.54966 0.0
C184 C 0.30831 0.98538 0.53307 0.0
N185 N 0.29917 1.0201 0.54796 0.0
H186 H 0.32241 0.06983 0.57259 0.0
H187 H 0.28592 0.96394 0.52804 0.0
H188 H 0.30104 0.10578 0.52902 0.0
H189 H 0.1868 0.06917 0.50587 0.0
O190 O 0.25431 0.07421 0.59145 0.0
O191 O 0.19549 0.05574 0.57455 0.0
O192 O 0.22227 0.9966 0.52463 0.0
C193 C 0.21643 0.07739 0.59415 0.0
H194 H 0.19322 0.92892 0.63229 0.0
H195 H 0.27418 0.15166 0.4819 0.0
H196 H 0.35311 0.94923 0.51175 0.0
H197 H 0.39001 0.05783 0.55644 0.0
Co198 Co 1.00605 0.25004 0.80455 0.0
C199 C 0.03778 0.27168 0.86798 0.0
C200 C 0.06791 0.22167 0.84844 0.0
C201 C 0.0761 0.22428 0.88169 0.0
N202 N 0.04332 0.25109 0.84013 0.0
N203 N 0.05673 0.25556 0.89387 0.0
H204 H 1.01556 0.29423 0.87035 0.0
H205 H 0.07514 0.19725 0.83262 0.0
C206 C 0.05458 0.23818 0.74271 0.0
O207 O 0.03189 0.2627 0.72637 0.0
N208 N 0.96758 0.24825 0.76951 0.0
C209 C 0.93626 0.27194 0.76485 0.0
C210 C 0.91543 0.25899 0.73807 0.0
C211 C 0.96432 0.22026 0.74629 0.0
N212 N 0.93335 0.22675 0.72631 0.0
C213 C 0.98869 0.33206 0.80777 0.0
C214 C 0.05593 0.36048 0.77811 0.0
C215 C 0.02713 0.38724 0.78838 0.0
C216 C 0.99328 0.37234 0.80346 0.0
C217 C 0.05017 0.32 0.78306 0.0
N218 N 1.01598 0.30602 0.79646 0.0
H219 H 0.963 0.32201 0.82076 0.0
H220 H 0.07386 0.30039 0.77693 0.0
H221 H 0.92817 0.29655 0.7799 0.0
H222 H 0.98433 0.19574 0.74394 0.0
O223 O 0.96393 0.25428 0.83656 0.0
O224 O 0.98891 0.19826 0.81914 0.0
O225 O 0.04929 0.23216 0.7736 0.0
C226 C 0.96438 0.21625 0.83847 0.0
H227 H 0.0917 0.20267 0.89634 0.0
H228 H 0.88955 0.27272 0.72761 0.0
H229 H 0.0832 0.37077 0.76744 0.0
H230 H 0.97034 0.39173 0.81217 0.0
Co231 Co 0.79887 0.98546 0.04198 0.0
C232 C 0.77484 1.01274 0.10597 0.0
C233 C 0.82314 0.04667 0.08766 0.0
C234 C 0.81987 0.05267 0.12116 0.0
N235 N 0.79531 1.02094 0.07847 0.0
N236 N 0.79014 0.03038 0.13264 0.0
H237 H 0.75303 0.98972 0.10732 0.0
H238 H 0.84741 0.0559 0.07229 0.0
C239 C 0.81669 0.03608 0.98278 0.0
O240 O 0.79233 1.01467 0.96539 0.0
N241 N 0.8034 0.9489 0.00584 0.0
C242 C 0.77932 0.91917 0.99746 0.0
C243 C 0.79522 0.89965 0.97108 0.0
C244 C 0.83437 0.94587 0.98532 0.0
N245 N 0.82965 0.91673 0.96336 0.0
C246 C 0.71551 0.97271 0.03646 0.0
C247 C 0.69573 0.0471 0.0149 0.0
C248 C 0.66574 1.01936 0.01911 0.0
C249 C 0.67613 0.98178 0.03023 0.0
C250 C 0.73482 0.03664 0.02113 0.0
N251 N 0.7447 0.99921 0.0303 0.0
H252 H 0.72219 0.94464 0.04745 0.0
H253 H 0.75677 0.05933 0.01968 0.0
H254 H 0.7524 0.91123 0.00959 0.0
H255 H 0.85976 0.96488 0.98633 0.0
O256 O 0.789 0.94159 0.0715 0.0
O257 O 0.8479 0.9651 0.06032 0.0
O258 O 0.82153 0.02928 0.01363 0.0
C259 C 0.82659 0.94012 0.07682 0.0
H260 H 0.84115 0.06759 0.13646 0.0
H261 H 0.78199 0.87534 0.95813 0.0
H262 H 0.68906 0.07685 0.00721 0.0
H263 H 0.65384 0.95997 0.0354 0.0
H264 H 0.9964 0.61246 0.23565 0.0
H265 H 0.07435 0.61458 0.32053 0.0
H266 H 0.08229 0.54324 0.31719 0.0
H267 H 0.94881 0.52192 0.25418 0.0
H268 H 0.94714 0.50492 0.21217 0.0
H269 H 0.9473 0.55675 0.22056 0.0
H270 H 1.00852 0.56555 0.1834 0.0
H271 H 1.00844 0.51375 0.17475 0.0
H272 H 0.05179 0.53652 0.19141 0.0
H273 H 0.07943 0.4718 0.30742 0.0
H274 H 0.06981 0.40379 0.28855 0.0
H275 H 0.99772 0.44607 0.20757 0.0
C276 C 1.01544 0.59799 0.25332 0.0
C277 C 0.03391 0.61939 0.2789 0.0
C278 C 0.05868 0.59904 0.30141 0.0
C279 C 0.06376 0.55841 0.29956 0.0
C280 C 0.0445 0.53819 0.27469 0.0
C281 C 1.02128 0.55716 0.25163 0.0
C282 C 1.00432 0.52796 0.22725 0.0
C283 C 0.95921 0.5279 0.22864 0.0
C284 C 1.01916 0.53646 0.19212 0.0
C285 C 1.02124 0.48976 0.24064 0.0
C286 C 0.04418 0.49653 0.26812 0.0
C287 C 0.06182 0.46608 0.28575 0.0
C288 C 0.05604 0.42757 0.27498 0.0
C289 C 0.03307 0.41975 0.24668 0.0
C290 C 1.01566 0.45133 0.22915 0.0
H291 H 0.61195 0.02789 0.52785 0.0
H292 H 0.60977 0.97384 0.43116 0.0
H293 H 0.53844 0.96338 0.43649 0.0
H294 H 0.5377 0.96378 0.56595 0.0
H295 H 0.51637 1.00296 0.58968 0.0
H296 H 0.56775 1.00425 0.57914 0.0
H297 H 0.55816 0.07263 0.55211 0.0
H298 H 0.50677 0.07146 0.5624 0.0
H299 H 0.52178 0.07882 0.52018 0.0
H300 H 0.46688 0.96222 0.45065 0.0
H301 H 0.40008 0.96997 0.47275 0.0
H302 H 0.44819 0.02244 0.56146 0.0
C303 C 0.59658 1.01321 0.50807 0.0
C304 C 0.61657 1.00179 0.47901 0.0
C305 C 0.59514 0.98329 0.45347 0.0
C306 C 0.55461 0.97699 0.45635 0.0
C307 C 0.53572 0.98917 0.485 0.0
C308 C 0.55596 1.00672 0.51051 0.0
C309 C 0.52822 1.01832 0.53812 0.0
C310 C 0.5381 0.99599 0.57012 0.0
C311 C 0.52877 0.06296 0.5435 0.0
C312 C 0.48923 1.00501 0.52392 0.0
C313 C 0.49431 0.98813 0.49333 0.0
C314 C 0.46259 0.97489 0.47481 0.0
C315 C 0.42464 0.97918 0.48777 0.0
C316 C 0.41842 0.99654 0.51909 0.0
C317 C 0.45151 1.00927 0.53739 0.0
H318 H 0.06642 0.59528 0.69864 0.0
H319 H 1.02015 0.64805 0.78805 0.0
H320 H 1.01474 0.58313 0.81351 0.0
H321 H 1.00059 0.51186 0.70112 0.0
H322 H 0.03623 0.47763 0.68534 0.0
H323 H 0.03914 0.52875 0.67411 0.0
H324 H 0.11063 0.53107 0.6957 0.0
H325 H 0.10782 0.48002 0.70722 0.0
H326 H 0.12094 0.51617 0.73757 0.0
H327 H 1.01387 0.5137 0.8302 0.0
H328 H 1.01201 0.44186 0.83544 0.0
H329 H 0.05425 0.43077 0.73483 0.0
C330 C 0.05515 0.59323 0.72355 0.0
C331 C 0.04499 0.62744 0.74152 0.0
C332 C 0.02988 0.62295 0.774 0.0
C333 C 0.02628 0.58597 0.78874 0.0
C334 C 0.0372 0.5532 0.77069 0.0
C335 C 0.05082 0.55616 0.73869 0.0
C336 C 0.05849 0.51558 0.72453 0.0
C337 C 0.03203 0.50802 0.6945 0.0
C338 C 0.10207 0.51042 0.71574 0.0
C339 C 0.04701 0.48963 0.75366 0.0
C340 C 0.03514 0.51224 0.78002 0.0
C341 C 0.02283 0.49561 0.80967 0.0
C342 C 1.02173 0.45471 0.81235 0.0
C343 C 0.0325 0.43055 0.78546 0.0
C344 C 0.04602 0.44839 0.75587 0.0
H345 H 0.44257 0.98643 0.96278 0.0
H346 H 0.41489 0.09799 0.00814 0.0
H347 H 0.48496 0.10698 0.02227 0.0
H348 H 0.51329 0.95645 0.02307 0.0
H349 H 0.54522 0.93268 0.99386 0.0
H350 H 0.49336 0.93602 0.98572 0.0
H351 H 0.50764 0.97011 0.92971 0.0
H352 H 0.55958 0.96681 0.93766 0.0
H353 H 0.53746 1.01375 0.92873 0.0
H354 H 0.55804 0.10354 0.03181 0.0
H355 H 0.6281 0.08653 0.03856 0.0
H356 H 0.60814 0.97623 0.98838 0.0
C357 C 0.4514 1.01297 0.9753 0.0
C358 C 0.42337 0.04171 0.98416 0.0
C359 C 0.43589 0.07564 0.00118 0.0
C360 C 0.47562 0.08104 0.00919 0.0
C361 C 0.50248 0.05206 1.00028 0.0
C362 C 0.49088 1.01857 0.98388 0.0
C363 C 0.52536 0.99113 0.97847 0.0
C364 C 0.51891 0.95175 0.99635 0.0
C365 C 0.53295 0.98511 0.94144 0.0
C366 C 0.55815 1.01441 0.99436 0.0
C367 C 0.54438 0.04961 0.00655 0.0
C368 C 0.56916 0.07609 0.02229 0.0
C369 C 0.60898 0.06626 0.02584 0.0
C370 C 0.62373 0.0301 0.01394 0.0
C371 C 0.59777 1.00397 0.99794 0.0
H372 H 0.24526 0.15199 0.42917 0.0
H373 H 0.14203 0.11455 0.48351 0.0
H374 H 0.09985 0.13808 0.43792 0.0
H375 H 0.20323 0.2406 0.39497 0.0
H376 H 0.22844 0.23548 0.35612 0.0
H377 H 0.2501 0.21608 0.39333 0.0
H378 H 0.25506 0.14748 0.36629 0.0
H379 H 0.23322 0.1666 0.32907 0.0
H380 H 0.2115 0.125 0.34971 0.0
H381 H 0.06921 0.16502 0.38579 0.0
H382 H 0.05254 0.19457 0.33179 0.0
H383 H 0.17629 0.21388 0.31233 0.0
C384 C 0.21378 0.14929 0.4318 0.0
C385 C 0.19696 0.13149 0.45994 0.0
C386 C 0.1556 0.12773 0.46203 0.0
C387 C 0.1314 0.14116 0.43634 0.0
C388 C 0.14908 0.15827 0.40884 0.0
C389 C 0.18931 0.16246 0.40649 0.0
C390 C 0.20114 0.18134 0.37419 0.0
C391 C 0.22194 0.22071 0.38001 0.0
C392 C 0.22673 0.15343 0.3536 0.0
C393 C 0.16123 0.18722 0.35871 0.0
C394 C 0.13155 0.17368 0.37899 0.0
C395 C 0.09223 0.17573 0.3697 0.0
C396 C 0.08307 0.19229 0.3389 0.0
C397 C 0.11314 0.20654 0.31786 0.0
C398 C 0.15264 0.20377 0.32802 0.0
H399 H 0.79128 0.15639 0.58489 0.0
H400 H 0.89483 0.12335 0.52884 0.0
H401 H 0.93667 0.14336 0.57529 0.0
H402 H 0.83362 0.24301 0.62116 0.0
H403 H 0.80813 0.23615 0.65973 0.0
H404 H 0.78663 0.21877 0.62196 0.0
H405 H 0.7812 0.14904 0.64746 0.0
H406 H 0.80324 0.16606 0.68513 0.0
H407 H 0.82462 0.1253 0.66338 0.0
H408 H 0.96713 0.16497 0.62891 0.0
H409 H 0.98393 0.19355 0.68309 0.0
H410 H 0.86054 0.2146 0.70221 0.0
C411 C 0.82269 0.15384 0.5819 0.0
C412 C 0.83949 0.1378 0.55309 0.0
C413 C 0.88097 0.13477 0.55077 0.0
C414 C 0.90509 0.14617 0.57703 0.0
C415 C 0.88735 0.16093 0.60528 0.0
C416 C 0.84715 0.16536 0.60764 0.0
C417 C 0.83534 0.18273 0.64039 0.0
C418 C 0.81473 0.22253 0.6355 0.0
C419 C 0.80958 0.15406 0.66025 0.0
C420 C 0.87523 0.1875 0.65608 0.0
C421 C 0.90487 0.17435 0.63565 0.0
C422 C 0.94419 0.17552 0.64507 0.0
C423 C 0.95343 0.19148 0.6759 0.0
C424 C 0.92349 0.20638 0.6966 0.0
C425 C 0.88395 0.20376 0.68666 0.0
H426 H 0.83943 0.84609 0.9342 0.0
H427 H 0.87395 0.96838 0.92861 0.0
H428 H 0.91019 0.95514 0.87714 0.0
H429 H 0.93106 0.80565 0.90156 0.0
H430 H 0.90622 0.76738 0.8793 0.0
H431 H 0.88532 0.78623 0.91685 0.0
H432 H 0.82071 0.80204 0.88567 0.0
H433 H 0.84153 0.7837 0.84796 0.0
H434 H 0.82221 0.83291 0.84943 0.0
H435 H 0.93777 0.92976 0.82427 0.0
H436 H 0.95941 0.89313 0.77546 0.0
H437 H 0.90841 0.78672 0.81636 0.0
C438 C 0.85485 0.86999 0.92224 0.0
C439 C 0.85386 0.90825 0.9353 0.0
C440 C 0.8747 0.93876 0.91919 0.0
C441 C 0.89515 0.93157 0.88987 0.0
C442 C 0.89473 0.89366 0.87727 0.0
C443 C 0.87557 0.86326 0.89313 0.0
C444 C 0.87908 0.82537 0.87411 0.0
C445 C 0.90178 0.79433 0.89415 0.0
C446 C 0.83846 0.81013 0.86367 0.0
C447 C 0.90253 0.83942 0.84469 0.0
C448 C 0.91127 0.87886 0.84703 0.0
C449 C 0.93166 0.89871 0.82238 0.0
C450 C 0.94396 0.87752 0.79477 0.0
C451 C 0.93604 0.83681 0.79209 0.0
C452 C 0.9148 0.81775 0.81742 0.0
H453 H 0.23798 0.8611 0.06298 0.0
H454 H 0.20393 0.98284 0.07496 0.0
H455 H 0.17099 0.96638 0.12726 0.0
H456 H 0.14925 0.81995 0.09358 0.0
H457 H 0.17237 0.77937 0.11468 0.0
H458 H 0.1954 0.80083 0.07893 0.0
H459 H 0.25868 0.81316 0.11278 0.0
H460 H 0.23585 0.79162 0.14865 0.0
H461 H 0.25578 0.8405 0.15066 0.0
H462 H 0.13974 0.93706 0.17658 0.0
H463 H 0.11186 0.89621 0.22098 0.0
H464 H 0.16511 0.79281 0.17769 0.0
C465 C 0.22403 0.88423 0.07694 0.0
C466 C 0.22319 0.92315 0.06488 0.0
C467 C 0.2043 0.95272 0.08352 0.0
C468 C 0.18578 0.94373 0.11336 0.0
C469 C 0.18649 0.90502 0.12431 0.0
C470 C 0.20515 0.87569 0.10684 0.0
C471 C 0.20011 0.83623 0.12374 0.0
C472 C 0.17796 0.80741 0.1014 0.0
C473 C 0.23998 0.81939 0.1346 0.0
C474 C 0.17545 0.84806 0.15319 0.0
C475 C 0.16813 0.88791 0.15302 0.0
C476 C 0.14528 0.9058 0.17709 0.0
C477 C 0.1293 0.88228 0.20206 0.0
C478 C 0.13612 0.84128 0.20273 0.0
C479 C 0.15976 0.8241 0.17803 0.0
H480 H 0.98073 0.19819 0.07293 0.0
H481 H 0.9733 0.32255 0.09311 0.0
H482 H 0.99448 0.33741 0.03595 0.0
H483 H 0.06664 0.20249 0.0275 0.0
H484 H 0.05389 0.16562 0.99766 0.0
H485 H 0.03284 0.164 0.03841 0.0
H486 H 0.96326 0.16443 0.01389 0.0
H487 H 0.98264 0.1663 0.97253 0.0
H488 H 0.94862 0.20331 0.98631 0.0
H489 H 1.02103 0.33856 0.97846 0.0
H490 H 0.0476 0.32592 0.92262 0.0
H491 H 0.03997 0.20076 0.9406 0.0
C492 C 0.98214 0.22846 0.06481 0.0
C493 C 0.97469 0.25938 0.08697 0.0
C494 C 0.97838 0.29869 0.0761 0.0
C495 C 0.99054 0.3073 0.04386 0.0
C496 C 0.99907 0.27617 0.02293 0.0
C497 C 0.99467 0.23753 0.03279 0.0
C498 C 1.00806 0.20959 0.00611 0.0
C499 C 0.04239 0.18389 0.01814 0.0
C500 C 0.97362 0.1844 0.99396 0.0
C501 C 1.02126 0.23861 0.97995 0.0
C502 C 1.01561 0.27684 0.99009 0.0
C503 C 0.02552 0.30877 0.97019 0.0
C504 C 0.04079 0.3014 0.93872 0.0
C505 C 0.0464 0.26252 0.92768 0.0
C506 C 0.03689 0.23078 0.94877 0.0
H507 H 0.79042 0.07255 0.18889 0.0
H508 H 0.78545 0.95409 0.15081 0.0
H509 H 0.78529 0.92757 0.20744 0.0
H510 H 0.85432 0.05177 0.25691 0.0
H511 H 0.82992 0.08473 0.28486 0.0
H512 H 0.82915 0.09449 0.24116 0.0
H513 H 0.75298 0.09656 0.24217 0.0
H514 H 0.75373 0.08709 0.28592 0.0
H515 H 0.72626 0.05544 0.25897 0.0
H516 H 0.78799 0.91386 0.26835 0.0
H517 H 0.7905 0.91445 0.32929 0.0
H518 H 0.79013 0.042 0.32676 0.0
C519 C 0.78889 0.04113 0.19268 0.0
C520 C 0.78725 1.01543 0.16568 0.0
C521 C 0.78571 0.97433 0.17127 0.0
C522 C 0.78596 0.95896 0.20331 0.0
C523 C 0.78755 0.98508 0.22947 0.0
C524 C 0.78869 0.02529 0.22455 0.0
C525 C 0.79007 0.0469 0.25695 0.0
C526 C 0.82813 0.07087 0.26014 0.0
C527 C 0.75358 0.07302 0.26125 0.0
C528 C 0.78968 1.01254 0.28069 0.0
C529 C 0.7885 0.97714 0.26447 0.0
C530 C 0.78864 0.94144 0.28142 0.0
C531 C 0.78991 0.94206 0.31603 0.0
C532 C 0.79077 0.97815 0.33317 0.0
C533 C 0.79041 1.0137 0.31494 0.0
H534 H 0.07219 0.76256 0.55676 0.0
H535 H 0.05807 0.88512 0.5821 0.0
H536 H 1.02157 0.8967 0.53046 0.0
H537 H 0.0873 0.77783 0.46972 0.0
H538 H 0.06048 0.73467 0.45782 0.0
H539 H 0.08485 0.73616 0.4972 0.0
H540 H 1.01907 0.71964 0.52623 0.0
H541 H 0.99426 0.71878 0.48696 0.0
H542 H 0.97688 0.75057 0.51925 0.0
H543 H 0.98694 0.89516 0.47598 0.0
H544 H 0.96373 0.8823 0.41944 0.0
H545 H 0.9993 0.76059 0.42942 0.0
C546 C 0.06189 0.79187 0.55103 0.0
C547 C 0.06876 0.82307 0.57298 0.0
C548 C 0.05426 0.86103 0.56513 0.0
C549 C 0.03295 0.86778 0.5361 0.0
C550 C 0.02634 0.83629 0.51514 0.0
C551 C 0.04078 0.7992 0.52199 0.0
C552 C 0.03064 0.77078 0.49475 0.0
C553 C 0.06804 0.75388 0.47893 0.0
C554 C 1.0036 0.73801 0.50757 0.0
C555 C 1.00903 0.79791 0.47123 0.0
C556 C 1.00624 0.8354 0.48373 0.0
C557 C 0.98875 0.86586 0.46596 0.0
C558 C 0.97525 0.85816 0.43395 0.0
C559 C 0.97959 0.82037 0.42001 0.0
C560 C 0.99556 0.78972 0.43945 0.0
H561 H 0.28795 1.00041 0.68896 0.0
H562 H 0.16615 0.96695 0.67591 0.0
H563 H 0.15091 0.99066 0.73171 0.0
H564 H 0.29489 0.97353 0.77577 0.0
H565 H 0.32581 1.0145 0.78605 0.0
H566 H 0.32745 0.994 0.74522 0.0
H567 H 0.31247 0.0624 0.72022 0.0
H568 H 0.3103 0.08321 0.76095 0.0
H569 H 0.26923 0.08861 0.73324 0.0
H570 H 0.14766 1.02166 0.787 0.0
H571 H 0.15862 0.04896 0.84246 0.0
H572 H 0.28274 0.06075 0.82133 0.0
C573 C 0.25826 0.99753 0.69815 0.0
C574 C 0.22836 0.98154 0.67817 0.0
C575 C 0.18974 0.97837 0.69091 0.0
C576 C 0.18064 0.99232 0.72241 0.0
C577 C 0.21052 1.00909 0.74099 0.0
C578 C 0.24873 1.01099 0.72972 0.0
C579 C 0.27537 0.02986 0.75502 0.0
C580 C 0.30777 1.00126 0.76619 0.0
C581 C 0.29287 0.0683 0.74154 0.0
C582 C 0.24619 0.03775 0.78242 0.0
C583 C 0.20882 0.02628 0.77344 0.0
C584 C 0.17675 0.0309 0.79433 0.0
C585 C 0.18317 0.04681 0.82561 0.0
C586 C 0.22141 0.05752 0.83583 0.0
C587 C 0.25322 0.05319 0.81382 0.0
H588 H 0.12903 0.22913 0.12927 0.0
H589 H 0.05843 0.12988 0.16116 0.0
H590 H 0.09237 0.08771 0.12145 0.0
H591 H 0.13372 0.20418 0.04226 0.0
H592 H 0.18396 0.2194 0.03765 0.0
H593 H 0.1533 0.24202 0.0684 0.0
H594 H 0.20529 0.22317 0.11279 0.0
H595 H 0.23492 0.19957 0.08183 0.0
H596 H 0.21926 0.17246 0.11778 0.0
H597 H 0.13126 0.05624 0.07842 0.0
H598 H 0.17469 0.03582 0.03384 0.0
H599 H 0.22396 0.15321 0.02855 0.0
C600 C 0.12085 0.19851 0.12785 0.0
C601 C 0.091 0.18286 0.14847 0.0
C602 C 0.08121 0.14263 0.14588 0.0
C603 C 0.1003 0.11835 0.1233 0.0
C604 C 0.12945 0.13448 0.10344 0.0
C605 C 0.14001 0.17349 0.10541 0.0
C606 C 0.17297 0.18261 0.08111 0.0
C607 C 0.1602 0.21393 0.05588 0.0
C608 C 0.21033 0.1952 0.09948 0.0
C609 C 0.17845 0.14279 0.06485 0.0
C610 C 0.15298 0.11567 0.07844 0.0
C611 C 0.15156 0.0771 0.06769 0.0
C612 C 0.17668 0.06573 0.04226 0.0
C613 C 0.20337 0.09258 0.02763 0.0
C614 C 0.2042 0.1318 0.03924 0.0
H615 H 0.97256 0.17876 0.28911 0.0
H616 H 0.88077 0.26137 0.26185 0.0
H617 H 0.83793 0.23343 0.3049 0.0
H618 H 0.90808 0.09705 0.30506 0.0
H619 H 0.93614 0.07858 0.33951 0.0
H620 H 0.96025 0.10551 0.30698 0.0
H621 H 0.98788 0.15419 0.34989 0.0
H622 H 0.96369 0.12761 0.3826 0.0
H623 H 0.95461 0.17935 0.37716 0.0
H624 H 0.8041 0.1959 0.34954 0.0
H625 H 0.78106 0.1507 0.39303 0.0
H626 H 0.89421 0.09206 0.39285 0.0
C627 C 0.94351 0.1911 0.29227 0.0
C628 C 0.93016 0.22245 0.27198 0.0
C629 C 0.89183 0.23749 0.27695 0.0
C630 C 0.86721 0.22181 0.30142 0.0
C631 C 0.88119 0.19101 0.32089 0.0
C632 C 0.9184 0.17571 0.31666 0.0
C633 C 0.92573 0.14198 0.34062 0.0
C634 C 0.93297 0.1035 0.32192 0.0
C635 C 0.96001 0.15136 0.36395 0.0
C636 C 0.88685 0.14087 0.35905 0.0
C637 C 0.86165 0.16942 0.3471 0.0
C638 C 0.82364 0.17359 0.35923 0.0
C639 C 0.81083 0.14774 0.38398 0.0
C640 C 0.83587 0.11805 0.39662 0.0
C641 C 0.87458 0.11486 0.3841 0.0
H642 H 0.85811 0.99698 0.57634 0.0
H643 H 0.84482 0.92744 0.48771 0.0
H644 H 0.88593 0.87506 0.51295 0.0
H645 H 0.95908 0.97149 0.59122 0.0
H646 H 0.95339 0.97153 0.63544 0.0
H647 H 0.92285 1.00268 0.61018 0.0
H648 H 0.86071 0.97152 0.63628 0.0
H649 H 0.89105 0.94019 0.66152 0.0
H650 H 0.85438 0.91905 0.63497 0.0
H651 H 0.92753 0.82913 0.54987 0.0
H652 H 0.96749 0.79632 0.59321 0.0
H653 H 0.95476 0.89841 0.65559 0.0
C654 C 0.86352 0.97066 0.56219 0.0
C655 C 0.84782 0.96614 0.53015 0.0
C656 C 0.85637 0.93148 0.51236 0.0
C657 C 0.87966 0.90159 0.52652 0.0
C658 C 0.89449 0.90703 0.55832 0.0
C659 C 0.88693 0.94097 0.57571 0.0
C660 C 0.90679 0.94046 0.6091 0.0
C661 C 0.93734 0.9735 0.61161 0.0
C662 C 0.87642 0.94294 0.63711 0.0
C663 C 0.92626 0.90061 0.60821 0.0
C664 C 0.91887 0.88156 0.57882 0.0
C665 C 0.93337 0.84389 0.57292 0.0
C666 C 0.95583 0.82538 0.59772 0.0
C667 C 0.96394 0.84479 0.62777 0.0
C668 C 0.94907 0.88291 0.63283 0.0
H669 H 0.17451 0.84712 0.75287 0.0
H670 H 0.05462 0.83554 0.78788 0.0
H671 H 0.07249 0.86852 0.83948 0.0
H672 H 0.22364 0.83334 0.83224 0.0
H673 H 0.2602 0.87043 0.82441 0.0
H674 H 0.23888 0.84388 0.79052 0.0
H675 H 0.21892 0.9096 0.76327 0.0
H676 H 0.23863 0.9369 0.79742 0.0
H677 H 0.18801 0.94312 0.78565 0.0
H678 H 0.10169 0.90382 0.88635 0.0
H679 H 0.14062 0.94183 0.92599 0.0
H680 H 0.24241 0.93289 0.86197 0.0
C681 C 0.15226 0.85115 0.77163 0.0
C682 C 0.11314 0.8387 0.76631 0.0
C683 C 0.08465 0.84509 0.79119 0.0
C684 C 0.09456 0.8636 0.82074 0.0
C685 C 0.13312 0.87584 0.82516 0.0
C686 C 0.1616 0.87013 0.80137 0.0
C687 C 0.20028 0.88836 0.81199 0.0
C688 C 0.23267 0.85713 0.81497 0.0
C689 C 0.21222 0.92144 0.78813 0.0
C690 C 0.18909 0.90462 0.84557 0.0
C691 C 0.15014 0.89696 0.85249 0.0
C692 C 0.1323 0.90986 0.88134 0.0
C693 C 0.1547 0.93148 0.9037 0.0
C694 C 0.19464 0.94008 0.89726 0.0
C695 C 0.21213 0.92621 0.86783 0.0
H696 H 0.1114 0.90582 0.33712 0.0
H697 H 0.0908 0.80211 0.39721 0.0
H698 H 0.12523 0.8329 0.44377 0.0
H699 H 0.20965 0.92308 0.36735 0.0
H700 H 0.20535 0.97579 0.36668 0.0
H701 H 0.17721 0.94673 0.33824 0.0
H702 H 0.11316 0.97916 0.35918 0.0
H703 H 0.14113 1.0083 0.3877 0.0
H704 H 0.10178 0.97769 0.40262 0.0
H705 H 0.16046 0.87476 0.48442 0.0
H706 H 0.19898 0.92367 0.51533 0.0
H707 H 0.20172 0.99897 0.42871 0.0
C708 C 0.11412 0.88976 0.36014 0.0
C709 C 0.0984 0.85154 0.36351 0.0
C710 C 0.1028 0.83127 0.39392 0.0
C711 C 0.12215 0.84857 0.42063 0.0
C712 C 0.1376 0.88604 0.41654 0.0
C713 C 0.13426 0.90633 0.38702 0.0
C714 C 0.15518 0.94561 0.38903 0.0
C715 C 0.18885 0.94792 0.36383 0.0
C716 C 0.12607 0.9797 0.38436 0.0
C717 C 0.17074 0.94403 0.42418 0.0
C718 C 0.15972 0.9096 0.43969 0.0
C719 C 0.1695 0.90175 0.47248 0.0
C720 C 0.19129 0.92975 0.4899 0.0
C721 C 0.2036 0.96496 0.47442 0.0
C722 C 0.19319 0.97205 0.44106 0.0
H723 H 0.14584 0.1167 0.59236 0.0
H724 H 0.24634 0.09243 0.65495 0.0
H725 H 0.21611 0.13094 0.69978 0.0
H726 H 0.13308 0.21731 0.61878 0.0
H727 H 0.08025 0.21567 0.61683 0.0
H728 H 0.10911 0.18506 0.59003 0.0
H729 H 0.07259 0.12363 0.61195 0.0
H730 H 0.04372 0.15405 0.63888 0.0
H731 H 0.07173 0.11376 0.65569 0.0
H732 H 0.17336 0.16947 0.73879 0.0
H733 H 0.12361 0.20971 0.7676 0.0
H734 H 0.05379 0.21439 0.67817 0.0
C735 C 0.16141 0.11962 0.61552 0.0
C736 C 0.19842 0.10168 0.62024 0.0
C737 C 0.21812 0.10626 0.65075 0.0
C738 C 0.2011 0.12792 0.67641 0.0
C739 C 0.16467 0.14548 0.67097 0.0
C740 C 0.14525 0.14202 0.64115 0.0
C741 C 0.107 0.1649 0.64142 0.0
C742 C 0.10741 0.19768 0.61521 0.0
C743 C 0.07168 0.13744 0.63671 0.0
C744 C 0.1079 0.18159 0.67604 0.0
C745 C 0.14115 0.16957 0.69283 0.0
C746 C 0.14748 0.17951 0.72574 0.0
C747 C 0.11908 0.20233 0.74191 0.0
C748 C 0.08515 0.2156 0.72501 0.0
C749 C 0.07977 0.20526 0.69156 0.0
H750 H 0.9367 0.14034 0.8368 0.0
H751 H 0.93971 0.24478 0.89738 0.0
H752 H 0.90301 0.20998 0.94112 0.0
H753 H 0.83759 0.11286 0.85958 0.0
H754 H 0.84752 0.06092 0.85894 0.0
H755 H 0.87507 0.09363 0.83272 0.0
H756 H 0.93987 0.06721 0.85793 0.0
H757 H 0.91247 0.03461 0.88437 0.0
H758 H 0.94686 0.06871 0.902 0.0
H759 H 0.87125 0.16181 0.98051 0.0
H760 H 0.83599 0.10743 0.00848 0.0
H761 H 0.84733 0.03671 0.92042 0.0
C762 C 0.92972 0.15572 0.85936 0.0
C763 C 0.94111 0.1952 0.86379 0.0
C764 C 0.93108 0.21459 0.89343 0.0
C765 C 0.91063 0.19494 0.91858 0.0
C766 C 0.90013 0.15593 0.91369 0.0
C767 C 0.90861 0.13673 0.88456 0.0
C768 C 0.89188 0.0955 0.88487 0.0
C769 C 0.86119 0.09045 0.8574 0.0
C770 C 0.92473 0.06469 0.88213 0.0
C771 C 0.87296 0.09449 0.91875 0.0
C772 C 0.87877 0.12936 0.93525 0.0
C773 C 0.86592 0.13461 0.96763 0.0
C774 C 0.84609 0.1036 0.98336 0.0
C775 C 0.83854 0.06821 0.96644 0.0
C776 C 0.85218 0.06372 0.93373 0.0
H777 H 0.97984 0.86402 0.21451 0.0
H778 H 0.89331 0.77519 0.23943 0.0
H779 H 0.85021 0.7999 0.19533 0.0
H780 H 0.90969 0.94107 0.19592 0.0
H781 H 0.93767 0.96111 0.16208 0.0
H782 H 0.96242 0.93642 0.19556 0.0
H783 H 0.99537 0.8893 0.15391 0.0
H784 H 0.97057 0.91379 0.12034 0.0
H785 H 0.96516 0.86159 0.12596 0.0
H786 H 0.81531 0.83444 0.14975 0.0
H787 H 0.7909 0.87688 0.10477 0.0
H788 H 0.89925 0.94357 0.10743 0.0
C789 C 0.95188 0.84971 0.21061 0.0
C790 C 0.94014 0.81751 0.23062 0.0
C791 C 0.90319 0.79981 0.22464 0.0
C792 C 0.87837 0.81363 0.19955 0.0
C793 C 0.8907 0.8453 0.18039 0.0
C794 C 0.92653 0.86322 0.1855 0.0
C795 C 0.93216 0.89712 0.16138 0.0
C796 C 0.93569 0.93625 0.17984 0.0
C797 C 0.96794 0.89001 0.13907 0.0
C798 C 0.89405 0.89516 0.14188 0.0
C799 C 0.87058 0.86509 0.15348 0.0
C800 C 0.83353 0.85792 0.14029 0.0
C801 C 0.81992 0.88219 0.11468 0.0
C802 C 0.84326 0.91327 0.10225 0.0
C803 C 0.88098 0.91963 0.11599 0.0
loop_
_geom_bond_atom_site_label_1
_geom_bond_atom_site_label_2
_geom_bond_distance
_geom_bond_site_symmetry_2
_ccdc_geom_bond_type
Co0 N4 2.148 . S
Co0 N10 2.128 . S
Co0 N20 2.194 . S
Co0 O25 2.351 . S
Co0 O26 2.155 . S
Co0 O27 2.096 . S
C1 N4 1.301 . S
C1 N5 1.328 . S
C1 H6 0.930 . S
C2 C3 1.333 . S
C2 N4 1.317 1_655 S
C2 H7 0.930 . S
C3 C2 1.333 . S
C3 N5 1.350 1_655 S
C3 H29 0.931 . S
N4 Co0 2.148 . S
N4 C1 1.301 . S
N4 C2 1.317 1_455 S
N5 C1 1.328 . S
N5 C3 1.350 1_455 S
H6 C1 0.930 . S
H7 C2 0.930 . S
C8 O9 1.224 . S
C8 O27 1.247 . S
O9 C8 1.224 . S
N10 Co0 2.128 . S
N10 C11 1.355 . S
N10 C13 1.311 . S
C11 N10 1.355 . S
C11 C12 1.363 . S
C11 H23 0.929 . S
C12 C11 1.363 . S
C12 N14 1.375 . S
C12 H30 0.931 . S
C13 N10 1.311 . S
C13 N14 1.347 . S
C13 H24 0.929 . S
N14 C12 1.375 . S
N14 C13 1.347 . S
C15 C18 1.365 . S
C15 N20 1.328 . S
C15 H21 0.929 . S
C16 C17 1.362 . S
C16 C19 1.378 . S
C16 H31 0.929 . S
C17 C16 1.362 . S
C17 C18 1.366 . S
C18 C15 1.365 . S
C18 C17 1.366 . S
C18 H32 0.930 . S
C19 C16 1.378 . S
C19 N20 1.315 . S
C19 H22 0.930 . S
N20 Co0 2.194 . S
N20 C15 1.328 . S
N20 C19 1.315 . S
H21 C15 0.929 . S
H22 C19 0.930 . S
H23 C11 0.929 . S
H24 C13 0.929 . S
O25 Co0 2.351 . S
O25 C28 1.244 . S
O26 Co0 2.155 . S
O26 C28 1.240 . S
O27 Co0 2.096 . S
O27 C8 1.247 . S
C28 O25 1.244 . S
C28 O26 1.240 . S
H29 C3 0.931 . S
H30 C12 0.931 . S
H31 C16 0.929 . S
H32 C18 0.930 . S
Co33 N37 2.148 . S
Co33 N43 2.128 . S
Co33 N53 2.194 . S
Co33 O58 2.351 . S
Co33 O59 2.155 . S
Co33 O60 2.096 . S
C34 N37 1.301 . S
C34 N38 1.328 . S
C34 H39 0.930 . S
C35 C36 1.333 . S
C35 N37 1.317 1_565 S
C35 H40 0.930 . S
C36 C35 1.333 . S
C36 N38 1.350 1_565 S
C36 H62 0.931 . S
N37 Co33 2.148 . S
N37 C34 1.301 . S
N37 C35 1.317 1_545 S
N38 C34 1.328 . S
N38 C36 1.350 1_545 S
H39 C34 0.930 . S
H40 C35 0.930 . S
C41 O42 1.224 . S
C41 O60 1.247 . S
O42 C41 1.224 . S
N43 Co33 2.128 . S
N43 C44 1.355 . S
N43 C46 1.311 . S
C44 N43 1.355 . S
C44 C45 1.363 . S
C44 H56 0.929 . S
C45 C44 1.363 . S
C45 N47 1.375 . S
C45 H63 0.931 . S
C46 N43 1.311 . S
C46 N47 1.347 . S
C46 H57 0.929 . S
N47 C45 1.375 . S
N47 C46 1.347 . S
C48 C51 1.365 . S
C48 N53 1.328 . S
C48 H54 0.929 . S
C49 C50 1.362 . S
C49 C52 1.378 . S
C49 H64 0.929 . S
C50 C49 1.362 . S
C50 C51 1.366 . S
C51 C48 1.365 . S
C51 C50 1.366 . S
C51 H65 0.930 . S
C52 C49 1.378 . S
C52 N53 1.315 . S
C52 H55 0.930 . S
N53 Co33 2.194 . S
N53 C48 1.328 . S
N53 C52 1.315 . S
H54 C48 0.929 . S
H55 C52 0.930 . S
H56 C44 0.929 . S
H57 C46 0.929 . S
O58 Co33 2.351 . S
O58 C61 1.244 . S
O59 Co33 2.155 . S
O59 C61 1.240 . S
O60 Co33 2.096 . S
O60 C41 1.247 . S
C61 O58 1.244 . S
C61 O59 1.240 . S
H62 C36 0.931 . S
H63 C45 0.931 . S
H64 C49 0.929 . S
H65 C51 0.930 . S
Co66 N70 2.148 . S
Co66 N76 2.128 . S
Co66 N86 2.194 . S
Co66 O91 2.351 . S
Co66 O92 2.155 . S
Co66 O93 2.096 . S
C67 N70 1.301 . S
C67 N71 1.328 . S
C67 H72 0.930 . S
C68 C69 1.333 . S
C68 N70 1.317 1_455 S
C68 H73 0.930 . S
C69 C68 1.333 . S
C69 N71 1.350 1_455 S
C69 H95 0.931 . S
N70 Co66 2.148 . S
N70 C67 1.301 . S
N70 C68 1.317 1_655 S
N71 C67 1.328 . S
N71 C69 1.350 1_655 S
H72 C67 0.930 . S
H73 C68 0.930 . S
C74 O75 1.224 . S
C74 O93 1.247 . S
O75 C74 1.224 . S
N76 Co66 2.128 . S
N76 C77 1.355 . S
N76 C79 1.311 . S
C77 N76 1.355 . S
C77 C78 1.363 . S
C77 H89 0.929 . S
C78 C77 1.363 . S
C78 N80 1.375 . S
C78 H96 0.931 . S
C79 N76 1.311 . S
C79 N80 1.347 . S
C79 H90 0.929 . S
N80 C78 1.375 . S
N80 C79 1.347 . S
C81 C84 1.365 . S
C81 N86 1.328 . S
C81 H87 0.929 . S
C82 C83 1.362 . S
C82 C85 1.378 . S
C82 H97 0.929 . S
C83 C82 1.362 . S
C83 C84 1.366 . S
C84 C81 1.365 . S
C84 C83 1.366 . S
C84 H98 0.930 . S
C85 C82 1.378 . S
C85 N86 1.315 . S
C85 H88 0.930 . S
N86 Co66 2.194 . S
N86 C81 1.328 . S
N86 C85 1.315 . S
H87 C81 0.929 . S
H88 C85 0.930 . S
H89 C77 0.929 . S
H90 C79 0.929 . S
O91 Co66 2.351 . S
O91 C94 1.244 . S
O92 Co66 2.155 . S
O92 C94 1.240 . S
O93 Co66 2.096 . S
O93 C74 1.247 . S
C94 O91 1.244 . S
C94 O92 1.240 . S
H95 C69 0.931 . S
H96 C78 0.931 . S
H97 C82 0.929 . S
H98 C84 0.930 . S
Co99 N103 2.148 . S
Co99 N109 2.128 . S
Co99 N119 2.194 . S
Co99 O124 2.351 . S
Co99 O125 2.155 . S
Co99 O126 2.096 . S
C100 N103 1.301 . S
C100 N104 1.328 . S
C100 H105 0.930 . S
C101 C102 1.333 . S
C101 N103 1.317 1_545 S
C101 H106 0.930 . S
C102 C101 1.333 . S
C102 N104 1.350 1_545 S
C102 H128 0.931 . S
N103 Co99 2.148 . S
N103 C100 1.301 . S
N103 C101 1.317 1_565 S
N104 C100 1.328 . S
N104 C102 1.350 1_565 S
H105 C100 0.930 . S
H106 C101 0.930 . S
C107 O108 1.224 . S
C107 O126 1.247 . S
O108 C107 1.224 . S
N109 Co99 2.128 . S
N109 C110 1.355 . S
N109 C112 1.311 1_556 S
C110 N109 1.355 . S
C110 C111 1.363 1_556 S
C110 H122 0.929 . S
C111 C110 1.363 1_554 S
C111 N113 1.375 . S
C111 H129 0.931 . S
C112 N109 1.311 1_554 S
C112 N113 1.347 . S
C112 H123 0.929 . S
N113 C111 1.375 . S
N113 C112 1.347 . S
C114 C117 1.365 . S
C114 N119 1.328 . S
C114 H120 0.929 . S
C115 C116 1.362 . S
C115 C118 1.378 . S
C115 H130 0.929 . S
C116 C115 1.362 . S
C116 C117 1.366 . S
C117 C114 1.365 . S
C117 C116 1.366 . S
C117 H131 0.930 . S
C118 C115 1.378 . S
C118 N119 1.315 . S
C118 H121 0.930 . S
N119 Co99 2.194 . S
N119 C114 1.328 . S
N119 C118 1.315 . S
H120 C114 0.929 . S
H121 C118 0.930 . S
H122 C110 0.929 . S
H123 C112 0.929 . S
O124 Co99 2.351 . S
O124 C127 1.244 . S
O125 Co99 2.155 . S
O125 C127 1.240 . S
O126 Co99 2.096 . S
O126 C107 1.247 . S
C127 O124 1.244 . S
C127 O125 1.240 . S
H128 C102 0.931 . S
H129 C111 0.931 . S
H130 C115 0.929 . S
H131 C117 0.930 . S
Co132 N136 2.148 . S
Co132 N142 2.128 . S
Co132 N152 2.194 . S
Co132 O157 2.351 . S
Co132 O158 2.155 . S
Co132 O159 2.096 . S
C133 N136 1.301 . S
C133 N137 1.328 . S
C133 H138 0.930 . S
C134 C135 1.333 . S
C134 N136 1.317 1_655 S
C134 H139 0.930 . S
C135 C134 1.333 . S
C135 N137 1.350 1_655 S
C135 H161 0.931 . S
N136 Co132 2.148 . S
N136 C133 1.301 . S
N136 C134 1.317 1_455 S
N137 C133 1.328 . S
N137 C135 1.350 1_455 S
H138 C133 0.930 . S
H139 C134 0.930 . S
C140 O141 1.224 . S
C140 O159 1.247 . S
O141 C140 1.224 . S
N142 Co132 2.128 . S
N142 C143 1.355 . S
N142 C145 1.311 . S
C143 N142 1.355 . S
C143 C144 1.363 . S
C143 H155 0.929 . S
C144 C143 1.363 . S
C144 N146 1.375 . S
C144 H162 0.931 . S
C145 N142 1.311 . S
C145 N146 1.347 . S
C145 H156 0.929 . S
N146 C144 1.375 . S
N146 C145 1.347 . S
C147 C150 1.365 . S
C147 N152 1.328 . S
C147 H153 0.929 . S
C148 C149 1.362 . S
C148 C151 1.378 . S
C148 H163 0.929 . S
C149 C148 1.362 . S
C149 C150 1.366 . S
C150 C147 1.365 . S
C150 C149 1.366 . S
C150 H164 0.930 . S
C151 C148 1.378 . S
C151 N152 1.315 . S
C151 H154 0.930 . S
N152 Co132 2.194 . S
N152 C147 1.328 . S
N152 C151 1.315 . S
H153 C147 0.929 . S
H154 C151 0.930 . S
H155 C143 0.929 . S
H156 C145 0.929 . S
O157 Co132 2.351 . S
O157 C160 1.244 . S
O158 Co132 2.155 . S
O158 C160 1.240 . S
O159 Co132 2.096 . S
O159 C140 1.247 . S
C160 O157 1.244 . S
C160 O158 1.240 . S
H161 C135 0.931 . S
H162 C144 0.931 . S
H163 C148 0.929 . S
H164 C150 0.930 . S
Co165 N169 2.148 . S
Co165 N175 2.128 . S
Co165 N185 2.194 . S
Co165 O190 2.351 . S
Co165 O191 2.155 . S
Co165 O192 2.096 . S
C166 N169 1.301 . S
C166 N170 1.328 . S
C166 H171 0.930 . S
C167 C168 1.333 . S
C167 N169 1.317 1_565 S
C167 H172 0.930 . S
C168 C167 1.333 . S
C168 N170 1.350 1_565 S
C168 H194 0.931 . S
N169 Co165 2.148 . S
N169 C166 1.301 . S
N169 C167 1.317 1_545 S
N170 C166 1.328 . S
N170 C168 1.350 1_545 S
H171 C166 0.930 . S
H172 C167 0.930 . S
C173 O174 1.224 . S
C173 O192 1.247 . S
O174 C173 1.224 . S
N175 Co165 2.128 . S
N175 C176 1.355 . S
N175 C178 1.311 . S
C176 N175 1.355 . S
C176 C177 1.363 . S
C176 H188 0.929 . S
C177 C176 1.363 . S
C177 N179 1.375 . S
C177 H195 0.931 . S
C178 N175 1.311 . S
C178 N179 1.347 . S
C178 H189 0.929 . S
N179 C177 1.375 . S
N179 C178 1.347 . S
C180 C183 1.365 . S
C180 N185 1.328 . S
C180 H186 0.929 . S
C181 C182 1.362 . S
C181 C184 1.378 . S
C181 H196 0.929 . S
C182 C181 1.362 . S
C182 C183 1.366 . S
C183 C180 1.365 . S
C183 C182 1.366 . S
C183 H197 0.930 . S
C184 C181 1.378 . S
C184 N185 1.315 . S
C184 H187 0.930 . S
N185 Co165 2.194 . S
N185 C180 1.328 . S
N185 C184 1.315 . S
H186 C180 0.929 . S
H187 C184 0.930 . S
H188 C176 0.929 . S
H189 C178 0.929 . S
O190 Co165 2.351 . S
O190 C193 1.244 . S
O191 Co165 2.155 . S
O191 C193 1.240 . S
O192 Co165 2.096 . S
O192 C173 1.247 . S
C193 O190 1.244 . S
C193 O191 1.240 . S
H194 C168 0.931 . S
H195 C177 0.931 . S
H196 C181 0.929 . S
H197 C183 0.930 . S
Co198 N202 2.148 . S
Co198 N208 2.128 . S
Co198 N218 2.194 . S
Co198 O223 2.351 . S
Co198 O224 2.155 . S
Co198 O225 2.096 . S
C199 N202 1.301 . S
C199 N203 1.328 . S
C199 H204 0.930 . S
C200 C201 1.333 . S
C200 N202 1.317 1_455 S
C200 H205 0.930 . S
C201 C200 1.333 . S
C201 N203 1.350 1_455 S
C201 H227 0.931 . S
N202 Co198 2.148 . S
N202 C199 1.301 . S
N202 C200 1.317 1_655 S
N203 C199 1.328 . S
N203 C201 1.350 1_655 S
H204 C199 0.930 . S
H205 C200 0.930 . S
C206 O207 1.224 . S
C206 O225 1.247 . S
O207 C206 1.224 . S
N208 Co198 2.128 . S
N208 C209 1.355 . S
N208 C211 1.311 . S
C209 N208 1.355 . S
C209 C210 1.363 . S
C209 H221 0.929 . S
C210 C209 1.363 . S
C210 N212 1.375 . S
C210 H228 0.931 . S
C211 N208 1.311 . S
C211 N212 1.347 . S
C211 H222 0.929 . S
N212 C210 1.375 . S
N212 C211 1.347 . S
C213 C216 1.365 . S
C213 N218 1.328 . S
C213 H219 0.929 . S
C214 C215 1.362 . S
C214 C217 1.378 . S
C214 H229 0.929 . S
C215 C214 1.362 . S
C215 C216 1.366 . S
C216 C213 1.365 . S
C216 C215 1.366 . S
C216 H230 0.930 . S
C217 C214 1.378 . S
C217 N218 1.315 . S
C217 H220 0.930 . S
N218 Co198 2.194 . S
N218 C213 1.328 . S
N218 C217 1.315 . S
H219 C213 0.929 . S
H220 C217 0.930 . S
H221 C209 0.929 . S
H222 C211 0.929 . S
O223 Co198 2.351 . S
O223 C226 1.244 . S
O224 Co198 2.155 . S
O224 C226 1.240 . S
O225 Co198 2.096 . S
O225 C206 1.247 . S
C226 O223 1.244 . S
C226 O224 1.240 . S
H227 C201 0.931 . S
H228 C210 0.931 . S
H229 C214 0.929 . S
H230 C216 0.930 . S
Co231 N235 2.148 . S
Co231 N241 2.128 . S
Co231 N251 2.194 . S
Co231 O256 2.351 . S
Co231 O257 2.155 . S
Co231 O258 2.096 . S
C232 N235 1.301 . S
C232 N236 1.328 . S
C232 H237 0.930 . S
C233 C234 1.333 . S
C233 N235 1.317 1_545 S
C233 H238 0.930 . S
C234 C233 1.333 . S
C234 N236 1.350 1_545 S
C234 H260 0.931 . S
N235 Co231 2.148 . S
N235 C232 1.301 . S
N235 C233 1.317 1_565 S
N236 C232 1.328 . S
N236 C234 1.350 1_565 S
H237 C232 0.930 . S
H238 C233 0.930 . S
C239 O240 1.224 . S
C239 O258 1.247 . S
O240 C239 1.224 . S
N241 Co231 2.128 . S
N241 C242 1.355 . S
N241 C244 1.311 1_554 S
C242 N241 1.355 . S
C242 C243 1.363 1_554 S
C242 H254 0.929 . S
C243 C242 1.363 1_556 S
C243 N245 1.375 . S
C243 H261 0.931 . S
C244 N241 1.311 1_556 S
C244 N245 1.347 . S
C244 H255 0.929 . S
N245 C243 1.375 . S
N245 C244 1.347 . S
C246 C249 1.365 . S
C246 N251 1.328 . S
C246 H252 0.929 . S
C247 C248 1.362 . S
C247 C250 1.378 . S
C247 H262 0.929 . S
C248 C247 1.362 . S
C248 C249 1.366 . S
C249 C246 1.365 . S
C249 C248 1.366 . S
C249 H263 0.930 . S
C250 C247 1.378 . S
C250 N251 1.315 . S
C250 H253 0.930 . S
N251 Co231 2.194 . S
N251 C246 1.328 . S
N251 C250 1.315 . S
H252 C246 0.929 . S
H253 C250 0.930 . S
H254 C242 0.929 . S
H255 C244 0.929 . S
O256 Co231 2.351 . S
O256 C259 1.244 . S
O257 Co231 2.155 . S
O257 C259 1.240 . S
O258 Co231 2.096 . S
O258 C239 1.247 . S
C259 O256 1.244 . S
C259 O257 1.240 . S
H260 C234 0.931 . S
H261 C243 0.931 . S
H262 C247 0.929 . S
H263 C249 0.930 . S
H264 C276 0.930 . S
H265 C278 0.930 . S
H266 C279 0.930 . S
H267 C283 0.959 . S
H268 C283 0.959 . S
H269 C283 0.961 . S
H270 C284 0.960 . S
H271 C284 0.961 . S
H272 C284 0.959 . S
H273 C287 0.929 . S
H274 C288 0.931 . S
H275 C290 0.930 . S
C276 H264 0.930 . S
C276 C277 1.399 . S
C276 C281 1.399 . S
C277 C276 1.399 . S
C277 C278 1.376 . S
C278 H265 0.930 . S
C278 C277 1.376 . S
C278 C279 1.388 . S
C279 H266 0.930 . S
C279 C278 1.388 . S
C279 C280 1.390 . S
C280 C279 1.390 . S
C280 C281 1.394 . S
C280 C286 1.465 . S
C281 C276 1.399 . S
C281 C280 1.394 . S
C281 C282 1.516 . S
C282 C281 1.516 . S
C282 C283 1.502 . S
C282 C284 1.561 . S
C282 C285 1.526 . S
C283 H267 0.959 . S
C283 H268 0.959 . S
C283 H269 0.961 . S
C283 C282 1.502 . S
C284 H270 0.960 . S
C284 H271 0.961 . S
C284 H272 0.959 . S
C284 C282 1.561 . S
C285 C282 1.526 . S
C285 C286 1.396 . S
C285 C290 1.390 . S
C286 C280 1.465 . S
C286 C285 1.396 . S
C286 C287 1.399 . S
C287 H273 0.929 . S
C287 C286 1.399 . S
C287 C288 1.385 . S
C288 H274 0.931 . S
C288 C287 1.385 . S
C288 C289 1.389 . S
C289 C288 1.389 . S
C289 C290 1.387 . S
C290 H275 0.930 . S
C290 C285 1.390 . S
C290 C289 1.387 . S
H291 C303 0.930 . S
H292 C305 0.930 . S
H293 C306 0.930 . S
H294 C310 0.959 . S
H295 C310 0.959 . S
H296 C310 0.961 . S
H297 C311 0.960 . S
H298 C311 0.961 . S
H299 C311 0.959 . S
H300 C314 0.929 . S
H301 C315 0.931 . S
H302 C317 0.930 . S
C303 H291 0.930 . S
C303 C304 1.399 . S
C303 C308 1.399 . S
C304 C303 1.399 . S
C304 C305 1.376 . S
C305 H292 0.930 . S
C305 C304 1.376 . S
C305 C306 1.388 . S
C306 H293 0.930 . S
C306 C305 1.388 . S
C306 C307 1.390 . S
C307 C306 1.390 . S
C307 C308 1.394 . S
C307 C313 1.465 . S
C308 C303 1.399 . S
C308 C307 1.394 . S
C308 C309 1.516 . S
C309 C308 1.516 . S
C309 C310 1.502 . S
C309 C311 1.561 . S
C309 C312 1.526 . S
C310 H294 0.959 . S
C310 H295 0.959 . S
C310 H296 0.961 . S
C310 C309 1.502 . S
C311 H297 0.960 . S
C311 H298 0.961 . S
C311 H299 0.959 . S
C311 C309 1.561 . S
C312 C309 1.526 . S
C312 C313 1.396 . S
C312 C317 1.390 . S
C313 C307 1.465 . S
C313 C312 1.396 . S
C313 C314 1.399 . S
C314 H300 0.929 . S
C314 C313 1.399 . S
C314 C315 1.385 . S
C315 H301 0.931 . S
C315 C314 1.385 . S
C315 C316 1.389 . S
C316 C315 1.389 . S
C316 C317 1.387 . S
C317 H302 0.930 . S
C317 C312 1.390 . S
C317 C316 1.387 . S
H318 C330 0.930 . S
H319 C332 0.930 . S
H320 C333 0.930 . S
H321 C337 0.959 . S
H322 C337 0.959 . S
H323 C337 0.961 . S
H324 C338 0.960 . S
H325 C338 0.961 . S
H326 C338 0.959 . S
H327 C341 0.929 . S
H328 C342 0.931 . S
H329 C344 0.930 . S
C330 H318 0.930 . S
C330 C331 1.399 . S
C330 C335 1.399 . S
C331 C330 1.399 . S
C331 C332 1.376 . S
C332 H319 0.930 . S
C332 C331 1.376 . S
C332 C333 1.388 . S
C333 H320 0.930 . S
C333 C332 1.388 . S
C333 C334 1.390 . S
C334 C333 1.390 . S
C334 C335 1.394 . S
C334 C340 1.465 . S
C335 C330 1.399 . S
C335 C334 1.394 . S
C335 C336 1.516 . S
C336 C335 1.516 . S
C336 C337 1.502 . S
C336 C338 1.561 . S
C336 C339 1.526 . S
C337 H321 0.959 . S
C337 H322 0.959 . S
C337 H323 0.961 . S
C337 C336 1.502 . S
C338 H324 0.960 . S
C338 H325 0.961 . S
C338 H326 0.959 . S
C338 C336 1.561 . S
C339 C336 1.526 . S
C339 C340 1.396 . S
C339 C344 1.390 . S
C340 C334 1.465 . S
C340 C339 1.396 . S
C340 C341 1.399 . S
C341 H327 0.929 . S
C341 C340 1.399 . S
C341 C342 1.385 . S
C342 H328 0.931 . S
C342 C341 1.385 . S
C342 C343 1.389 . S
C343 C342 1.389 . S
C343 C344 1.387 . S
C344 H329 0.930 . S
C344 C339 1.390 . S
C344 C343 1.387 . S
H345 C357 0.930 . S
H346 C359 0.930 . S
H347 C360 0.930 . S
H348 C364 0.959 . S
H349 C364 0.959 . S
H350 C364 0.961 . S
H351 C365 0.960 . S
H352 C365 0.961 . S
H353 C365 0.959 . S
H354 C368 0.929 . S
H355 C369 0.931 . S
H356 C371 0.930 . S
C357 H345 0.930 . S
C357 C358 1.399 . S
C357 C362 1.399 . S
C358 C357 1.399 . S
C358 C359 1.376 . S
C359 H346 0.930 . S
C359 C358 1.376 . S
C359 C360 1.388 . S
C360 H347 0.930 . S
C360 C359 1.388 . S
C360 C361 1.390 . S
C361 C360 1.390 . S
C361 C362 1.394 . S
C361 C367 1.465 . S
C362 C357 1.399 . S
C362 C361 1.394 . S
C362 C363 1.516 1_556 S
C363 C362 1.516 1_554 S
C363 C364 1.502 . S
C363 C365 1.561 1_554 S
C363 C366 1.526 . S
C364 H348 0.959 . S
C364 H349 0.959 . S
C364 H350 0.961 . S
C364 C363 1.502 . S
C365 H351 0.960 . S
C365 H352 0.961 . S
C365 H353 0.959 . S
C365 C363 1.561 1_556 S
C366 C363 1.526 . S
C366 C367 1.396 1_554 S
C366 C371 1.390 . S
C367 C361 1.465 . S
C367 C366 1.396 1_556 S
C367 C368 1.399 . S
C368 H354 0.929 . S
C368 C367 1.399 . S
C368 C369 1.385 1_556 S
C369 H355 0.931 . S
C369 C368 1.385 1_554 S
C369 C370 1.389 . S
C370 C369 1.389 . S
C370 C371 1.387 . S
C371 H356 0.930 . S
C371 C366 1.390 . S
C371 C370 1.387 . S
H372 C384 0.930 . S
H373 C386 0.930 . S
H374 C387 0.930 . S
H375 C391 0.959 . S
H376 C391 0.959 . S
H377 C391 0.961 . S
H378 C392 0.960 . S
H379 C392 0.961 . S
H380 C392 0.959 . S
H381 C395 0.929 . S
H382 C396 0.931 . S
H383 C398 0.930 . S
C384 H372 0.930 . S
C384 C385 1.399 . S
C384 C389 1.399 . S
C385 C384 1.399 . S
C385 C386 1.376 . S
C386 H373 0.930 . S
C386 C385 1.376 . S
C386 C387 1.388 . S
C387 H374 0.930 . S
C387 C386 1.388 . S
C387 C388 1.390 . S
C388 C387 1.390 . S
C388 C389 1.394 . S
C388 C394 1.465 . S
C389 C384 1.399 . S
C389 C388 1.394 . S
C389 C390 1.516 . S
C390 C389 1.516 . S
C390 C391 1.502 . S
C390 C392 1.561 . S
C390 C393 1.526 . S
C391 H375 0.959 . S
C391 H376 0.959 . S
C391 H377 0.961 . S
C391 C390 1.502 . S
C392 H378 0.960 . S
C392 H379 0.961 . S
C392 H380 0.959 . S
C392 C390 1.561 . S
C393 C390 1.526 . S
C393 C394 1.396 . S
C393 C398 1.390 . S
C394 C388 1.465 . S
C394 C393 1.396 . S
C394 C395 1.399 . S
C395 H381 0.929 . S
C395 C394 1.399 . S
C395 C396 1.385 . S
C396 H382 0.931 . S
C396 C395 1.385 . S
C396 C397 1.389 . S
C397 C396 1.389 . S
C397 C398 1.387 . S
C398 H383 0.930 . S
C398 C393 1.390 . S
C398 C397 1.387 . S
H399 C411 0.930 . S
H400 C413 0.930 . S
H401 C414 0.930 . S
H402 C418 0.959 . S
H403 C418 0.959 . S
H404 C418 0.961 . S
H405 C419 0.960 . S
H406 C419 0.961 . S
H407 C419 0.959 . S
H408 C422 0.929 . S
H409 C423 0.931 . S
H410 C425 0.930 . S
C411 H399 0.930 . S
C411 C412 1.399 . S
C411 C416 1.399 . S
C412 C411 1.399 . S
C412 C413 1.376 . S
C413 H400 0.930 . S
C413 C412 1.376 . S
C413 C414 1.388 . S
C414 H401 0.930 . S
C414 C413 1.388 . S
C414 C415 1.390 . S
C415 C414 1.390 . S
C415 C416 1.394 . S
C415 C421 1.465 . S
C416 C411 1.399 . S
C416 C415 1.394 . S
C416 C417 1.516 . S
C417 C416 1.516 . S
C417 C418 1.502 . S
C417 C419 1.561 . S
C417 C420 1.526 . S
C418 H402 0.959 . S
C418 H403 0.959 . S
C418 H404 0.961 . S
C418 C417 1.502 . S
C419 H405 0.960 . S
C419 H406 0.961 . S
C419 H407 0.959 . S
C419 C417 1.561 . S
C420 C417 1.526 . S
C420 C421 1.396 . S
C420 C425 1.390 . S
C421 C415 1.465 . S
C421 C420 1.396 . S
C421 C422 1.399 . S
C422 H408 0.929 . S
C422 C421 1.399 . S
C422 C423 1.385 . S
C423 H409 0.931 . S
C423 C422 1.385 . S
C423 C424 1.389 . S
C424 C423 1.389 . S
C424 C425 1.387 . S
C425 H410 0.930 . S
C425 C420 1.390 . S
C425 C424 1.387 . S
H426 C438 0.930 . S
H427 C440 0.930 . S
H428 C441 0.930 . S
H429 C445 0.959 . S
H430 C445 0.959 . S
H431 C445 0.961 . S
H432 C446 0.960 . S
H433 C446 0.961 . S
H434 C446 0.959 . S
H435 C449 0.929 . S
H436 C450 0.931 . S
H437 C452 0.930 . S
C438 H426 0.930 . S
C438 C439 1.399 . S
C438 C443 1.399 . S
C439 C438 1.399 . S
C439 C440 1.376 . S
C440 H427 0.930 . S
C440 C439 1.376 . S
C440 C441 1.388 . S
C441 H428 0.930 . S
C441 C440 1.388 . S
C441 C442 1.390 . S
C442 C441 1.390 . S
C442 C443 1.394 . S
C442 C448 1.465 . S
C443 C438 1.399 . S
C443 C442 1.394 . S
C443 C444 1.516 . S
C444 C443 1.516 . S
C444 C445 1.502 . S
C444 C446 1.561 . S
C444 C447 1.526 . S
C445 H429 0.959 . S
C445 H430 0.959 . S
C445 H431 0.961 . S
C445 C444 1.502 . S
C446 H432 0.960 . S
C446 H433 0.961 . S
C446 H434 0.959 . S
C446 C444 1.561 . S
C447 C444 1.526 . S
C447 C448 1.396 . S
C447 C452 1.390 . S
C448 C442 1.465 . S
C448 C447 1.396 . S
C448 C449 1.399 . S
C449 H435 0.929 . S
C449 C448 1.399 . S
C449 C450 1.385 . S
C450 H436 0.931 . S
C450 C449 1.385 . S
C450 C451 1.389 . S
C451 C450 1.389 . S
C451 C452 1.387 . S
C452 H437 0.930 . S
C452 C447 1.390 . S
C452 C451 1.387 . S
H453 C465 0.930 . S
H454 C467 0.930 . S
H455 C468 0.930 . S
H456 C472 0.959 . S
H457 C472 0.959 . S
H458 C472 0.961 . S
H459 C473 0.960 . S
H460 C473 0.961 . S
H461 C473 0.959 . S
H462 C476 0.929 . S
H463 C477 0.931 . S
H464 C479 0.930 . S
C465 H453 0.930 . S
C465 C466 1.399 . S
C465 C470 1.399 . S
C466 C465 1.399 . S
C466 C467 1.376 . S
C467 H454 0.930 . S
C467 C466 1.376 . S
C467 C468 1.388 . S
C468 H455 0.930 . S
C468 C467 1.388 . S
C468 C469 1.390 . S
C469 C468 1.390 . S
C469 C470 1.394 . S
C469 C475 1.465 . S
C470 C465 1.399 . S
C470 C469 1.394 . S
C470 C471 1.516 . S
C471 C470 1.516 . S
C471 C472 1.502 . S
C471 C473 1.561 . S
C471 C474 1.526 . S
C472 H456 0.959 . S
C472 H457 0.959 . S
C472 H458 0.961 . S
C472 C471 1.502 . S
C473 H459 0.960 . S
C473 H460 0.961 . S
C473 H461 0.959 . S
C473 C471 1.561 . S
C474 C471 1.526 . S
C474 C475 1.396 . S
C474 C479 1.390 . S
C475 C469 1.465 . S
C475 C474 1.396 . S
C475 C476 1.399 . S
C476 H462 0.929 . S
C476 C475 1.399 . S
C476 C477 1.385 . S
C477 H463 0.931 . S
C477 C476 1.385 . S
C477 C478 1.389 . S
C478 C477 1.389 . S
C478 C479 1.387 . S
C479 H464 0.930 . S
C479 C474 1.390 . S
C479 C478 1.387 . S
H480 C492 0.930 . S
H481 C494 0.930 . S
H482 C495 0.930 . S
H483 C499 0.959 . S
H484 C499 0.959 . S
H485 C499 0.961 1_554 S
H486 C500 0.960 . S
H487 C500 0.961 1_556 S
H488 C500 0.959 1_556 S
H489 C503 0.929 . S
H490 C504 0.931 . S
H491 C506 0.930 . S
C492 H480 0.930 . S
C492 C493 1.394 1_455 S
C492 C497 1.399 . S
C493 C492 1.394 1_655 S
C493 C494 1.384 . S
C494 H481 0.930 . S
C494 C493 1.384 . S
C494 C495 1.388 . S
C495 H482 0.930 . S
C495 C494 1.388 . S
C495 C496 1.390 . S
C496 C495 1.390 . S
C496 C497 1.394 1_655 S
C496 C502 1.465 1_554 S
C497 C492 1.399 . S
C497 C496 1.394 1_455 S
C497 C498 1.506 1_554 S
C498 C497 1.506 1_556 S
C498 C499 1.502 . S
C498 C500 1.561 1_456 S
C498 C501 1.536 . S
C499 H483 0.959 . S
C499 H484 0.959 . S
C499 H485 0.961 1_556 S
C499 C498 1.502 . S
C500 H486 0.960 . S
C500 H487 0.961 1_554 S
C500 H488 0.959 1_554 S
C500 C498 1.561 1_654 S
C501 C498 1.536 . S
C501 C502 1.396 1_455 S
C501 C506 1.390 . S
C502 C496 1.465 1_556 S
C502 C501 1.396 1_655 S
C502 C503 1.399 . S
C503 H489 0.929 . S
C503 C502 1.399 . S
C503 C504 1.385 . S
C504 H490 0.931 . S
C504 C503 1.385 . S
C504 C505 1.389 . S
C505 C504 1.389 . S
C505 C506 1.387 1_655 S
C506 H491 0.930 . S
C506 C501 1.390 . S
C506 C505 1.387 1_455 S
H507 C519 0.930 . S
H508 C521 0.930 . S
H509 C522 0.930 . S
H510 C526 0.959 . S
H511 C526 0.959 . S
H512 C526 0.961 . S
H513 C527 0.960 . S
H514 C527 0.961 . S
H515 C527 0.959 . S
H516 C530 0.929 . S
H517 C531 0.931 . S
H518 C533 0.930 . S
C519 H507 0.930 . S
C519 C520 1.399 1_545 S
C519 C524 1.399 . S
C520 C519 1.399 1_565 S
C520 C521 1.376 . S
C521 H508 0.930 . S
C521 C520 1.376 . S
C521 C522 1.388 . S
C522 H509 0.930 . S
C522 C521 1.388 . S
C522 C523 1.390 . S
C523 C522 1.390 . S
C523 C524 1.394 1_565 S
C523 C529 1.465 . S
C524 C519 1.399 . S
C524 C523 1.394 1_545 S
C524 C525 1.516 . S
C525 C524 1.516 . S
C525 C526 1.502 . S
C525 C527 1.561 . S
C525 C528 1.526 . S
C526 H510 0.959 . S
C526 H511 0.959 . S
C526 H512 0.961 . S
C526 C525 1.502 . S
C527 H513 0.960 . S
C527 H514 0.961 . S
C527 H515 0.959 . S
C527 C525 1.561 . S
C528 C525 1.526 . S
C528 C529 1.396 1_545 S
C528 C533 1.390 . S
C529 C523 1.465 . S
C529 C528 1.396 1_565 S
C529 C530 1.399 . S
C530 H516 0.929 . S
C530 C529 1.399 . S
C530 C531 1.385 . S
C531 H517 0.931 . S
C531 C530 1.385 . S
C531 C532 1.389 . S
C532 C531 1.389 . S
C532 C533 1.387 1_565 S
C533 H518 0.930 . S
C533 C528 1.390 . S
C533 C532 1.387 1_545 S
H534 C546 0.930 . S
H535 C548 0.930 . S
H536 C549 0.930 . S
H537 C553 0.959 . S
H538 C553 0.959 . S
H539 C553 0.961 . S
H540 C554 0.960 . S
H541 C554 0.961 . S
H542 C554 0.959 . S
H543 C557 0.929 . S
H544 C558 0.931 . S
H545 C560 0.930 . S
C546 H534 0.930 . S
C546 C547 1.399 1_455 S
C546 C551 1.399 . S
C547 C546 1.399 1_655 S
C547 C548 1.376 . S
C548 H535 0.930 . S
C548 C547 1.376 . S
C548 C549 1.388 . S
C549 H536 0.930 . S
C549 C548 1.388 . S
C549 C550 1.390 . S
C550 C549 1.390 . S
C550 C551 1.394 1_655 S
C550 C556 1.465 . S
C551 C546 1.399 . S
C551 C550 1.394 1_455 S
C551 C552 1.516 . S
C552 C551 1.516 . S
C552 C553 1.502 . S
C552 C554 1.561 1_455 S
C552 C555 1.526 . S
C553 H537 0.959 . S
C553 H538 0.959 . S
C553 H539 0.961 . S
C553 C552 1.502 . S
C554 H540 0.960 . S
C554 H541 0.961 . S
C554 H542 0.959 . S
C554 C552 1.561 1_655 S
C555 C552 1.526 . S
C555 C556 1.396 1_455 S
C555 C560 1.390 . S
C556 C550 1.465 . S
C556 C555 1.396 1_655 S
C556 C557 1.399 . S
C557 H543 0.929 . S
C557 C556 1.399 . S
C557 C558 1.385 . S
C558 H544 0.931 . S
C558 C557 1.385 . S
C558 C559 1.382 1_655 S
C559 C558 1.382 1_455 S
C559 C560 1.391 . S
C560 H545 0.930 . S
C560 C555 1.390 . S
C560 C559 1.391 . S
H561 C573 0.930 . S
H562 C575 0.930 . S
H563 C576 0.930 . S
H564 C580 0.959 . S
H565 C580 0.959 . S
H566 C580 0.961 . S
H567 C581 0.960 . S
H568 C581 0.961 . S
H569 C581 0.959 . S
H570 C584 0.929 . S
H571 C585 0.931 . S
H572 C587 0.930 . S
C573 H561 0.930 . S
C573 C574 1.399 1_565 S
C573 C578 1.398 1_565 S
C574 C573 1.399 1_545 S
C574 C575 1.376 . S
C575 H562 0.930 . S
C575 C574 1.376 . S
C575 C576 1.388 . S
C576 H563 0.930 . S
C576 C575 1.388 . S
C576 C577 1.390 . S
C577 C576 1.390 . S
C577 C578 1.398 . S
C577 C583 1.465 . S
C578 C573 1.398 1_545 S
C578 C577 1.398 . S
C578 C579 1.514 1_545 S
C579 C578 1.514 1_565 S
C579 C580 1.502 . S
C579 C581 1.561 1_565 S
C579 C582 1.526 . S
C580 H564 0.959 . S
C580 H565 0.959 . S
C580 H566 0.961 . S
C580 C579 1.502 . S
C581 H567 0.960 . S
C581 H568 0.961 . S
C581 H569 0.959 . S
C581 C579 1.561 1_545 S
C582 C579 1.526 . S
C582 C583 1.396 1_565 S
C582 C587 1.390 . S
C583 C577 1.465 . S
C583 C582 1.396 1_545 S
C583 C584 1.399 . S
C584 H570 0.929 . S
C584 C583 1.399 . S
C584 C585 1.385 . S
C585 H571 0.931 . S
C585 C584 1.385 . S
C585 C586 1.389 1_545 S
C586 C585 1.389 1_565 S
C586 C587 1.387 . S
C587 H572 0.930 . S
C587 C582 1.390 . S
C587 C586 1.387 . S
H588 C600 0.930 . S
H589 C602 0.930 . S
H590 C603 0.930 . S
H591 C607 0.959 . S
H592 C607 0.959 . S
H593 C607 0.961 . S
H594 C608 0.960 . S
H595 C608 0.961 . S
H596 C608 0.959 . S
H597 C611 0.929 . S
H598 C612 0.931 1_556 S
H599 C614 0.930 . S
C600 H588 0.930 . S
C600 C601 1.399 . S
C600 C605 1.399 . S
C601 C600 1.399 . S
C601 C602 1.376 . S
C602 H589 0.930 . S
C602 C601 1.376 . S
C602 C603 1.388 . S
C603 H590 0.930 . S
C603 C602 1.388 . S
C603 C604 1.390 . S
C604 C603 1.390 . S
C604 C605 1.394 . S
C604 C610 1.465 . S
C605 C600 1.399 . S
C605 C604 1.394 . S
C605 C606 1.516 . S
C606 C605 1.516 . S
C606 C607 1.502 . S
C606 C608 1.561 . S
C606 C609 1.526 . S
C607 H591 0.959 . S
C607 H592 0.959 . S
C607 H593 0.961 . S
C607 C606 1.502 . S
C608 H594 0.960 . S
C608 H595 0.961 . S
C608 H596 0.959 . S
C608 C606 1.561 . S
C609 C606 1.526 . S
C609 C610 1.396 . S
C609 C614 1.390 . S
C610 C604 1.465 . S
C610 C609 1.396 . S
C610 C611 1.399 . S
C611 H597 0.929 . S
C611 C610 1.399 . S
C611 C612 1.385 . S
C612 H598 0.931 1_554 S
C612 C611 1.385 . S
C612 C613 1.389 . S
C613 C612 1.389 . S
C613 C614 1.387 . S
C614 H599 0.930 . S
C614 C609 1.390 . S
C614 C613 1.387 . S
H615 C627 0.930 . S
H616 C629 0.930 . S
H617 C630 0.930 . S
H618 C634 0.959 . S
H619 C634 0.959 . S
H620 C634 0.961 . S
H621 C635 0.960 . S
H622 C635 0.961 . S
H623 C635 0.959 . S
H624 C638 0.929 . S
H625 C639 0.931 . S
H626 C641 0.930 . S
C627 H615 0.930 . S
C627 C628 1.399 . S
C627 C632 1.399 . S
C628 C627 1.399 . S
C628 C629 1.376 . S
C629 H616 0.930 . S
C629 C628 1.376 . S
C629 C630 1.388 . S
C630 H617 0.930 . S
C630 C629 1.388 . S
C630 C631 1.390 . S
C631 C630 1.390 . S
C631 C632 1.394 . S
C631 C637 1.465 . S
C632 C627 1.399 . S
C632 C631 1.394 . S
C632 C633 1.516 . S
C633 C632 1.516 . S
C633 C634 1.502 . S
C633 C635 1.561 . S
C633 C636 1.526 . S
C634 H618 0.959 . S
C634 H619 0.959 . S
C634 H620 0.961 . S
C634 C633 1.502 . S
C635 H621 0.960 . S
C635 H622 0.961 . S
C635 H623 0.959 . S
C635 C633 1.561 . S
C636 C633 1.526 . S
C636 C637 1.396 . S
C636 C641 1.390 . S
C637 C631 1.465 . S
C637 C636 1.396 . S
C637 C638 1.399 . S
C638 H624 0.929 . S
C638 C637 1.399 . S
C638 C639 1.385 . S
C639 H625 0.931 . S
C639 C638 1.385 . S
C639 C640 1.389 . S
C640 C639 1.389 . S
C640 C641 1.387 . S
C641 H626 0.930 . S
C641 C636 1.390 . S
C641 C640 1.387 . S
H642 C654 0.930 . S
H643 C656 0.930 . S
H644 C657 0.930 . S
H645 C661 0.959 . S
H646 C661 0.959 . S
H647 C661 0.961 . S
H648 C662 0.960 . S
H649 C662 0.961 . S
H650 C662 0.959 . S
H651 C665 0.929 . S
H652 C666 0.931 . S
H653 C668 0.930 . S
C654 H642 0.930 . S
C654 C655 1.399 . S
C654 C659 1.399 . S
C655 C654 1.399 . S
C655 C656 1.376 . S
C656 H643 0.930 . S
C656 C655 1.376 . S
C656 C657 1.388 . S
C657 H644 0.930 . S
C657 C656 1.388 . S
C657 C658 1.390 . S
C658 C657 1.390 . S
C658 C659 1.394 . S
C658 C664 1.465 . S
C659 C654 1.399 . S
C659 C658 1.394 . S
C659 C660 1.516 . S
C660 C659 1.516 . S
C660 C661 1.502 . S
C660 C662 1.561 . S
C660 C663 1.526 . S
C661 H645 0.959 . S
C661 H646 0.959 . S
C661 H647 0.961 . S
C661 C660 1.502 . S
C662 H648 0.960 . S
C662 H649 0.961 . S
C662 H650 0.959 . S
C662 C660 1.561 . S
C663 C660 1.526 . S
C663 C664 1.396 . S
C663 C668 1.390 . S
C664 C658 1.465 . S
C664 C663 1.396 . S
C664 C665 1.399 . S
C665 H651 0.929 . S
C665 C664 1.399 . S
C665 C666 1.385 . S
C666 H652 0.931 . S
C666 C665 1.385 . S
C666 C667 1.389 . S
C667 C666 1.389 . S
C667 C668 1.387 . S
C668 H653 0.930 . S
C668 C663 1.390 . S
C668 C667 1.387 . S
H669 C681 0.930 . S
H670 C683 0.930 . S
H671 C684 0.930 . S
H672 C688 0.959 . S
H673 C688 0.959 . S
H674 C688 0.961 . S
H675 C689 0.960 . S
H676 C689 0.961 . S
H677 C689 0.959 . S
H678 C692 0.929 . S
H679 C693 0.931 . S
H680 C695 0.930 . S
C681 H669 0.930 . S
C681 C682 1.399 . S
C681 C686 1.399 . S
C682 C681 1.399 . S
C682 C683 1.376 . S
C683 H670 0.930 . S
C683 C682 1.376 . S
C683 C684 1.388 . S
C684 H671 0.930 . S
C684 C683 1.388 . S
C684 C685 1.390 . S
C685 C684 1.390 . S
C685 C686 1.394 . S
C685 C691 1.465 . S
C686 C681 1.399 . S
C686 C685 1.394 . S
C686 C687 1.516 . S
C687 C686 1.516 . S
C687 C688 1.502 . S
C687 C689 1.561 . S
C687 C690 1.526 . S
C688 H672 0.959 . S
C688 H673 0.959 . S
C688 H674 0.961 . S
C688 C687 1.502 . S
C689 H675 0.960 . S
C689 H676 0.961 . S
C689 H677 0.959 . S
C689 C687 1.561 . S
C690 C687 1.526 . S
C690 C691 1.396 . S
C690 C695 1.390 . S
C691 C685 1.465 . S
C691 C690 1.396 . S
C691 C692 1.399 . S
C692 H678 0.929 . S
C692 C691 1.399 . S
C692 C693 1.385 . S
C693 H679 0.931 . S
C693 C692 1.385 . S
C693 C694 1.389 . S
C694 C693 1.389 . S
C694 C695 1.387 . S
C695 H680 0.930 . S
C695 C690 1.390 . S
C695 C694 1.387 . S
H696 C708 0.930 . S
H697 C710 0.930 . S
H698 C711 0.930 . S
H699 C715 0.959 . S
H700 C715 0.959 . S
H701 C715 0.961 . S
H702 C716 0.960 . S
H703 C716 0.961 . S
H704 C716 0.959 . S
H705 C719 0.929 . S
H706 C720 0.931 . S
H707 C722 0.930 . S
C708 H696 0.930 . S
C708 C709 1.399 . S
C708 C713 1.399 . S
C709 C708 1.399 . S
C709 C710 1.376 . S
C710 H697 0.930 . S
C710 C709 1.376 . S
C710 C711 1.388 . S
C711 H698 0.930 . S
C711 C710 1.388 . S
C711 C712 1.390 . S
C712 C711 1.390 . S
C712 C713 1.394 . S
C712 C718 1.465 . S
C713 C708 1.399 . S
C713 C712 1.394 . S
C713 C714 1.516 . S
C714 C713 1.516 . S
C714 C715 1.502 . S
C714 C716 1.561 . S
C714 C717 1.526 . S
C715 H699 0.959 . S
C715 H700 0.959 . S
C715 H701 0.961 . S
C715 C714 1.502 . S
C716 H702 0.960 . S
C716 H703 0.961 . S
C716 H704 0.959 . S
C716 C714 1.561 . S
C717 C714 1.526 . S
C717 C718 1.396 . S
C717 C722 1.390 . S
C718 C712 1.465 . S
C718 C717 1.396 . S
C718 C719 1.399 . S
C719 H705 0.929 . S
C719 C718 1.399 . S
C719 C720 1.385 . S
C720 H706 0.931 . S
C720 C719 1.385 . S
C720 C721 1.389 . S
C721 C720 1.389 . S
C721 C722 1.387 . S
C722 H707 0.930 . S
C722 C717 1.390 . S
C722 C721 1.387 . S
H723 C735 0.930 . S
H724 C737 0.930 . S
H725 C738 0.930 . S
H726 C742 0.959 . S
H727 C742 0.959 . S
H728 C742 0.961 . S
H729 C743 0.960 . S
H730 C743 0.961 . S
H731 C743 0.959 . S
H732 C746 0.929 . S
H733 C747 0.931 . S
H734 C749 0.930 . S
C735 H723 0.930 . S
C735 C736 1.399 . S
C735 C740 1.399 . S
C736 C735 1.399 . S
C736 C737 1.376 . S
C737 H724 0.930 . S
C737 C736 1.376 . S
C737 C738 1.388 . S
C738 H725 0.930 . S
C738 C737 1.388 . S
C738 C739 1.390 . S
C739 C738 1.390 . S
C739 C740 1.394 . S
C739 C745 1.465 . S
C740 C735 1.399 . S
C740 C739 1.394 . S
C740 C741 1.516 . S
C741 C740 1.516 . S
C741 C742 1.502 . S
C741 C743 1.561 . S
C741 C744 1.526 . S
C742 H726 0.959 . S
C742 H727 0.959 . S
C742 H728 0.961 . S
C742 C741 1.502 . S
C743 H729 0.960 . S
C743 H730 0.961 . S
C743 H731 0.959 . S
C743 C741 1.561 . S
C744 C741 1.526 . S
C744 C745 1.396 . S
C744 C749 1.390 . S
C745 C739 1.465 . S
C745 C744 1.396 . S
C745 C746 1.399 . S
C746 H732 0.929 . S
C746 C745 1.399 . S
C746 C747 1.385 . S
C747 H733 0.931 . S
C747 C746 1.385 . S
C747 C748 1.389 . S
C748 C747 1.389 . S
C748 C749 1.387 . S
C749 H734 0.930 . S
C749 C744 1.390 . S
C749 C748 1.387 . S
H750 C762 0.930 . S
H751 C764 0.930 . S
H752 C765 0.930 . S
H753 C769 0.959 . S
H754 C769 0.959 . S
H755 C769 0.961 . S
H756 C770 0.960 . S
H757 C770 0.961 . S
H758 C770 0.959 . S
H759 C773 0.929 . S
H760 C774 0.931 . S
H761 C776 0.930 . S
C762 H750 0.930 . S
C762 C763 1.399 . S
C762 C767 1.399 . S
C763 C762 1.399 . S
C763 C764 1.376 . S
C764 H751 0.930 . S
C764 C763 1.376 . S
C764 C765 1.388 . S
C765 H752 0.930 . S
C765 C764 1.388 . S
C765 C766 1.390 . S
C766 C765 1.390 . S
C766 C767 1.394 . S
C766 C772 1.465 . S
C767 C762 1.399 . S
C767 C766 1.394 . S
C767 C768 1.516 . S
C768 C767 1.516 . S
C768 C769 1.502 . S
C768 C770 1.561 . S
C768 C771 1.526 . S
C769 H753 0.959 . S
C769 H754 0.959 . S
C769 H755 0.961 . S
C769 C768 1.502 . S
C770 H756 0.960 . S
C770 H757 0.961 . S
C770 H758 0.959 . S
C770 C768 1.561 . S
C771 C768 1.526 . S
C771 C772 1.396 . S
C771 C776 1.390 . S
C772 C766 1.465 . S
C772 C771 1.396 . S
C772 C773 1.399 . S
C773 H759 0.929 . S
C773 C772 1.399 . S
C773 C774 1.385 . S
C774 H760 0.931 . S
C774 C773 1.385 . S
C774 C775 1.389 . S
C775 C774 1.389 . S
C775 C776 1.387 . S
C776 H761 0.930 . S
C776 C771 1.390 . S
C776 C775 1.387 . S
H777 C789 0.930 . S
H778 C791 0.930 . S
H779 C792 0.930 . S
H780 C796 0.959 . S
H781 C796 0.959 . S
H782 C796 0.961 . S
H783 C797 0.960 . S
H784 C797 0.961 . S
H785 C797 0.959 . S
H786 C800 0.929 . S
H787 C801 0.931 . S
H788 C803 0.930 . S
C789 H777 0.930 . S
C789 C790 1.399 . S
C789 C794 1.399 . S
C790 C789 1.399 . S
C790 C791 1.376 . S
C791 H778 0.930 . S
C791 C790 1.376 . S
C791 C792 1.388 . S
C792 H779 0.930 . S
C792 C791 1.388 . S
C792 C793 1.390 . S
C793 C792 1.390 . S
C793 C794 1.394 . S
C793 C799 1.465 . S
C794 C789 1.399 . S
C794 C793 1.394 . S
C794 C795 1.516 . S
C795 C794 1.516 . S
C795 C796 1.502 . S
C795 C797 1.561 . S
C795 C798 1.526 . S
C796 H780 0.959 . S
C796 H781 0.959 . S
C796 H782 0.961 . S
C796 C795 1.502 . S
C797 H783 0.960 . S
C797 H784 0.961 . S
C797 H785 0.959 . S
C797 C795 1.561 . S
C798 C795 1.526 . S
C798 C799 1.396 . S
C798 C803 1.390 . S
C799 C793 1.465 . S
C799 C798 1.396 . S
C799 C800 1.399 . S
C800 H786 0.929 . S
C800 C799 1.399 . S
C800 C801 1.385 . S
C801 H787 0.931 . S
C801 C800 1.385 . S
C801 C802 1.389 . S
C802 C801 1.389 . S
C802 C803 1.387 . S
C803 H788 0.930 . S
C803 C798 1.390 . S
C803 C802 1.387 . S
C277 C149 1.428 . S
C289 C17 1.408 . S
C304 C50 1.410 . S
C316 C182 1.390 . S
C331 C83 1.391 . S
C343 C215 1.415 . S
C358 C116 1.402 . S
C370 C248 1.389 . S
C385 N179 0.805 . S
C397 N14 0.798 . S
C412 N47 0.736 . S
C424 N212 0.823 . S
C439 N245 0.818 . S
C451 N80 0.720 . S
C466 N113 0.823 . S
C478 N146 0.730 . S
C493 N5 1.147 1_655 S
C505 N203 1.150 . S
C520 N236 1.125 . S
C532 N38 1.125 1_565 S
C547 N71 1.104 . S
C559 N137 1.107 . S
C574 N170 1.101 . S
C586 N104 1.102 . S
C601 C28 1.901 . S
C613 C107 1.941 1_544 S
C628 C8 1.916 1_655 S
C640 C61 1.930 . S
C655 C41 1.925 1_565 S
C667 C94 1.935 . S
C682 C74 1.916 1_455 S
C694 C127 1.925 . S
C709 C160 1.902 . S
C721 C173 1.941 1_565 S
C736 C193 1.934 . S
C748 C206 1.928 1_455 S
C763 C226 1.935 . S
C775 C239 1.926 1_546 S
C790 C140 1.916 1_655 S
C802 C259 1.925 . S
