# Generated by pormake.
# Topology nov, (5)-cn, num edge types: 1
# Building blocks:
#     Node 0, Type 0, BuildingBlock: XOMCOT_clean_sbu_0, # of connection points: 5
#     Node 1, Type 0, BuildingBlock: XOMCOT_clean_sbu_0, # of connection points: 5
#     Node 2, Type 0, BuildingBlock: XOMCOT_clean_sbu_0, # of connection points: 5
#     Node 3, Type 0, BuildingBlock: XOMCOT_clean_sbu_0, # of connection points: 5
#     Node 4, Type 0, BuildingBlock: XOMCOT_clean_sbu_0, # of connection points: 5
#     Node 5, Type 0, BuildingBlock: XOMCOT_clean_sbu_0, # of connection points: 5
#     Node 6, Type 0, BuildingBlock: XOMCOT_clean_sbu_0, # of connection points: 5
#     Node 7, Type 0, BuildingBlock: XOMCOT_clean_sbu_0, # of connection points: 5
#     Edge 8, Type (0, 0), BuildingBlock: MIFKUJ_clean_linker_0, # of connection points: 2
#     Edge 9, Type (0, 0), BuildingBlock: MIFKUJ_clean_linker_0, # of connection points: 2
#     Edge 10, Type (0, 0), BuildingBlock: MIFKUJ_clean_linker_0, # of connection points: 2
#     Edge 11, Type (0, 0), BuildingBlock: MIFKUJ_clean_linker_0, # of connection points: 2
#     Edge 12, Type (0, 0), BuildingBlock: MIFKUJ_clean_linker_0, # of connection points: 2
#     Edge 13, Type (0, 0), BuildingBlock: MIFKUJ_clean_linker_0, # of connection points: 2
#     Edge 14, Type (0, 0), BuildingBlock: MIFKUJ_clean_linker_0, # of connection points: 2
#     Edge 15, Type (0, 0), BuildingBlock: MIFKUJ_clean_linker_0, # of connection points: 2
#     Edge 16, Type (0, 0), BuildingBlock: MIFKUJ_clean_linker_0, # of connection points: 2
#     Edge 17, Type (0, 0), BuildingBlock: MIFKUJ_clean_linker_0, # of connection points: 2
#     Edge 18, Type (0, 0), BuildingBlock: MIFKUJ_clean_linker_0, # of connection points: 2
#     Edge 19, Type (0, 0), BuildingBlock: MIFKUJ_clean_linker_0, # of connection points: 2
#     Edge 20, Type (0, 0), BuildingBlock: MIFKUJ_clean_linker_0, # of connection points: 2
#     Edge 21, Type (0, 0), BuildingBlock: MIFKUJ_clean_linker_0, # of connection points: 2
#     Edge 22, Type (0, 0), BuildingBlock: MIFKUJ_clean_linker_0, # of connection points: 2
#     Edge 23, Type (0, 0), BuildingBlock: MIFKUJ_clean_linker_0, # of connection points: 2
#     Edge 24, Type (0, 0), BuildingBlock: MIFKUJ_clean_linker_0, # of connection points: 2
#     Edge 25, Type (0, 0), BuildingBlock: MIFKUJ_clean_linker_0, # of connection points: 2
#     Edge 26, Type (0, 0), BuildingBlock: MIFKUJ_clean_linker_0, # of connection points: 2
#     Edge 27, Type (0, 0), BuildingBlock: MIFKUJ_clean_linker_0, # of connection points: 2
# Relax obj value: 0.161
# Max RMSD: 0.191
# Mean RMSD: 0.191
data_MOF--net-nov--node1-XOMCOT_clean_sbu_0--edge1-MIFKUJ_clean_linker_0
_symmetry_space_group_name_H-M    P1
_symmetry_Int_Tables_number       1
_symmetry_cell_setting            triclinic
loop_
_symmetry_equiv_pos_as_xyz
'x, y, z'
_cell_length_a     35.311635
_cell_length_b     67.967851
_cell_length_c     35.334897
_cell_angle_alpha  90.234976
_cell_angle_beta   90.031862
_cell_angle_gamma 89.848301
loop_
_atom_site_label
_atom_site_type_symbol
_atom_site_fract_x
_atom_site_fract_y
_atom_site_fract_z
_atom_type_partial_charge
Co0 Co 0.03425 0.16059 0.14856 0.0
C1 C 0.0346 0.11937 0.11723 0.0
C2 C 0.08735 0.13453 0.10971 0.0
C3 C 0.08977 0.11659 0.09183 0.0
N4 N 0.05276 0.1364 0.12552 0.0
N5 N 0.05672 0.1071 0.09661 0.0
H6 H 0.00545 0.11629 0.12439 0.0
H7 H 0.10887 0.14582 0.10975 0.0
C8 C 0.1033 0.1781 0.18975 0.0
O9 O 0.08636 0.19513 0.19428 0.0
N10 N 0.01508 0.18472 0.17113 0.0
C11 C 0.99795 0.19972 0.15298 0.0
C12 C 0.98644 0.21348 0.1793 0.0
C13 C 0.01207 0.18912 0.20834 0.0
N14 N 0.99577 0.20689 0.21403 0.0
C15 C 0.02852 0.16918 0.07001 0.0
C16 C 0.07775 0.20066 0.06801 0.0
C17 C 0.05738 0.19587 0.03515 0.0
C18 C 0.03297 0.17964 0.03634 0.0
C19 C 0.07235 0.18984 0.10113 0.0
N20 N 0.04742 0.17452 0.10215 0.0
H21 H 0.00906 0.15694 0.07051 0.0
H22 H 0.08751 0.19437 0.12585 0.0
H23 H 0.99408 0.20067 0.12269 0.0
H24 H 0.02284 0.1798 0.23069 0.0
O25 O 0.98251 0.15413 0.13597 0.0
O26 O 0.01106 0.14598 0.18952 0.0
O27 O 0.08704 0.16409 0.17154 0.0
C28 C 0.98014 0.14622 0.16932 0.0
H29 H 0.1137 0.11107 0.07581 0.0
H30 H 0.97348 0.22757 0.17324 0.0
H31 H 0.09748 0.21283 0.06835 0.0
H32 H 0.01639 0.17539 0.01187 0.0
Co33 Co 0.54744 0.86212 0.64687 0.0
C34 C 0.54829 0.90088 0.60775 0.0
C35 C 0.5108 0.90029 0.6556 0.0
C36 C 0.5116 0.91911 0.64168 0.0
N37 N 0.53369 0.88884 0.63439 0.0
N38 N 0.53528 0.91954 0.61176 0.0
H39 H 0.5693 0.89632 0.58719 0.0
H40 H 0.49579 0.89549 0.68056 0.0
C41 C 0.4741 0.84242 0.6697 0.0
O42 O 0.48631 0.82588 0.65462 0.0
N43 N 0.56156 0.83551 0.66119 0.0
C44 C 0.57968 0.82142 0.64112 0.0
C45 C 0.58589 0.80544 0.66419 0.0
C46 C 0.55796 0.82803 0.69637 0.0
N47 N 0.57219 0.80961 0.69894 0.0
C48 C 0.562 0.85029 0.57023 0.0
C49 C 0.48838 0.84229 0.54904 0.0
C50 C 0.51792 0.83706 0.52443 0.0
C51 C 0.55495 0.84191 0.53481 0.0
C52 C 0.49669 0.85116 0.58401 0.0
N53 N 0.53339 0.85359 0.59556 0.0
H54 H 0.59104 0.85313 0.57782 0.0
H55 H 0.4734 0.85585 0.60151 0.0
H56 H 0.58891 0.82256 0.61219 0.0
H57 H 0.54474 0.83595 0.7195 0.0
O58 O 0.60021 0.86801 0.6379 0.0
O59 O 0.57157 0.87158 0.69306 0.0
O60 O 0.49436 0.85799 0.66774 0.0
C61 C 0.60268 0.87276 0.67341 0.0
H62 H 0.49638 0.93163 0.65315 0.0
H63 H 0.60038 0.79201 0.65618 0.0
H64 H 0.45918 0.83951 0.54134 0.0
H65 H 0.5786 0.83841 0.51643 0.0
Co66 Co 0.02908 0.86728 0.86272 0.0
C67 C 0.0317 0.90567 0.90424 0.0
C68 C 0.06867 0.90453 0.85598 0.0
C69 C 0.07068 0.92299 0.87162 0.0
N70 N 0.04443 0.89363 0.87636 0.0
N71 N 0.04729 0.92384 0.90179 0.0
H72 H 0.01061 0.90146 0.92486 0.0
H73 H 0.08317 0.89959 0.83072 0.0
C74 C 0.10146 0.8465 0.83958 0.0
O75 O 0.08878 0.83022 0.85494 0.0
N76 N 0.01356 0.84105 0.84722 0.0
C77 C 0.9931 0.8274 0.86578 0.0
C78 C 0.98746 0.8115 0.84214 0.0
C79 C 0.01883 0.83349 0.81221 0.0
N80 N 1.00377 0.81536 0.80849 0.0
C81 C 0.01394 0.85426 0.938 0.0
C82 C 0.0873 0.84553 0.95917 0.0
C83 C 0.05734 0.83906 0.98207 0.0
C84 C 0.02047 0.84456 0.972 0.0
C85 C 0.07939 0.85544 0.92524 0.0
N86 N 0.04282 0.85808 0.91344 0.0
H87 H 0.98504 0.85764 0.93065 0.0
H88 H 0.10281 0.86051 0.90839 0.0
H89 H 0.98191 0.82878 0.894 0.0
H90 H 0.03407 0.84109 0.79012 0.0
O91 O 0.97674 0.87397 0.87223 0.0
O92 O 0.00518 0.87737 0.81699 0.0
O93 O 0.08185 0.86235 0.84153 0.0
C94 C 0.97417 0.87873 0.83681 0.0
H95 H 0.08797 0.93494 0.86129 0.0
H96 H 0.97177 0.79833 0.84895 0.0
H97 H 0.11642 0.84232 0.96657 0.0
H98 H 0.99654 0.84086 0.98974 0.0
Co99 Co 0.55593 0.15437 0.36441 0.0
C100 C 0.56172 0.11589 0.40557 0.0
C101 C 0.52615 0.11502 0.35619 0.0
C102 C 0.52857 0.09639 0.37065 0.0
N103 N 0.54683 0.12727 0.37789 0.0
N104 N 0.55099 0.09685 0.40151 0.0
H105 H 0.58101 0.12121 0.42709 0.0
H106 H 0.51131 0.11925 0.3307 0.0
C107 C 0.47843 0.17095 0.35033 0.0
O108 O 0.48918 0.1871 0.3678 0.0
N109 N 0.5643 0.18138 0.34796 0.0
C110 C 0.57855 0.19728 0.36604 0.0
C111 C 0.57811 0.21307 0.34168 0.0
C112 C 0.55621 0.18778 0.31266 0.0
N113 N 0.56406 0.20705 0.30813 0.0
C114 C 0.57339 0.16931 0.43806 0.0
C115 C 0.50128 0.16929 0.46797 0.0
C116 C 0.53049 0.17837 0.48873 0.0
C117 C 0.56715 0.17766 0.47358 0.0
C118 C 0.50889 0.16111 0.43214 0.0
N119 N 0.54411 0.16264 0.41634 0.0
H120 H 0.60192 0.16933 0.42721 0.0
H121 H 0.48627 0.15382 0.41712 0.0
H122 H 0.58904 0.19782 0.39459 0.0
H123 H 0.54406 0.1785 0.29087 0.0
O124 O 0.60968 0.15052 0.3706 0.0
O125 O 0.57882 0.14547 0.31703 0.0
O126 O 0.50133 0.15642 0.34723 0.0
C127 C 0.61096 0.14551 0.33519 0.0
H128 H 0.51514 0.08337 0.3591 0.0
H129 H 0.58812 0.22777 0.34796 0.0
H130 H 0.47278 0.16857 0.47916 0.0
H131 H 0.59095 0.18424 0.48815 0.0
Co132 Co 0.53117 0.65727 0.14605 0.0
C133 C 0.52903 0.61741 0.10628 0.0
C134 C 0.55727 0.61755 0.15996 0.0
C135 C 0.55584 0.59854 0.14709 0.0
N136 N 0.54116 0.62961 0.13432 0.0
N137 N 0.53794 0.59835 0.11343 0.0
H138 H 0.51224 0.62194 0.08236 0.0
H139 H 0.56826 0.62223 0.18711 0.0
C140 C 0.61428 0.65275 0.15494 0.0
O141 O 0.61391 0.64317 0.12255 0.0
N142 N 0.52094 0.68428 0.16044 0.0
C143 C 0.50501 0.69864 0.13954 0.0
C144 C 0.50111 0.71523 0.16189 0.0
C145 C 0.52583 0.69214 0.19524 0.0
N146 N 0.514 0.71104 0.19691 0.0
C147 C 0.52804 0.66223 0.06518 0.0
C148 C 0.58408 0.69048 0.06138 0.0
C149 C 0.56284 0.68636 0.02883 0.0
C150 C 0.53503 0.67172 0.03081 0.0
C151 C 0.57635 0.6806 0.09504 0.0
N152 N 0.54878 0.6665 0.09678 0.0
H153 H 0.50395 0.65261 0.06689 0.0
H154 H 0.59079 0.68544 0.12031 0.0
H155 H 0.49622 0.69708 0.11036 0.0
H156 H 0.53747 0.68409 0.21894 0.0
O157 O 0.47837 0.65375 0.13416 0.0
O158 O 0.50415 0.64877 0.1906 0.0
O159 O 0.58352 0.65973 0.16864 0.0
C160 C 0.47392 0.64893 0.16945 0.0
H161 H 0.56668 0.58576 0.16177 0.0
H162 H 0.48857 0.72908 0.15341 0.0
H163 H 0.60554 0.70183 0.06128 0.0
H164 H 0.51709 0.66853 0.00669 0.0
Co165 Co 0.04239 0.3693 0.64917 0.0
C166 C 0.04356 0.40838 0.6085 0.0
C167 C 0.01105 0.40836 0.65969 0.0
C168 C 0.01218 0.42721 0.64629 0.0
N169 N 0.03003 0.39633 0.63582 0.0
N170 N 0.03277 0.4273 0.61424 0.0
H171 H 0.06284 0.40389 0.58643 0.0
H172 H 0.99857 0.40384 0.6862 0.0
C173 C 0.9586 0.37144 0.65481 0.0
O174 O 0.95921 0.38001 0.62153 0.0
N175 N 0.05498 0.34293 0.66485 0.0
C176 C 0.07462 0.32913 0.64559 0.0
C177 C 0.08005 0.31313 0.66888 0.0
C178 C 0.04926 0.33538 0.69956 0.0
N179 N 0.06429 0.31718 0.70283 0.0
C180 C 0.04938 0.36293 0.56886 0.0
C181 C 0.99467 0.334 0.56379 0.0
C182 C 0.01687 0.33803 0.53201 0.0
C183 C 0.04438 0.35278 0.53469 0.0
C184 C 1.0011 0.34418 0.59754 0.0
N185 N 0.0276 0.35881 0.59976 0.0
H186 H 0.07264 0.37308 0.57106 0.0
H187 H 0.98634 0.33928 0.62249 0.0
H188 H 0.08506 0.33077 0.61701 0.0
H189 H 0.03485 0.3432 0.72209 0.0
O190 O 0.09517 0.37415 0.63909 0.0
O191 O 0.06682 0.37925 0.69428 0.0
O192 O 0.98958 0.36579 0.67016 0.0
C193 C 0.09781 0.37959 0.67432 0.0
H194 H 0.9995 0.43999 0.65965 0.0
H195 H 0.09555 0.29986 0.66184 0.0
H196 H 0.97413 0.32219 0.5633 0.0
H197 H 0.06273 0.356 0.51096 0.0
Co198 Co 0.52242 0.36193 0.86158 0.0
C199 C 0.52326 0.40125 0.9029 0.0
C200 C 0.55554 0.40059 0.85161 0.0
C201 C 0.55579 0.41944 0.86543 0.0
N202 N 0.53592 0.38891 0.8753 0.0
N203 N 0.53534 0.41998 0.89757 0.0
H204 H 0.50381 0.39714 0.92497 0.0
H205 H 0.56771 0.39587 0.82499 0.0
C206 C 0.60609 0.36306 0.85543 0.0
O207 O 0.60577 0.37112 0.88931 0.0
N208 N 0.50865 0.33562 0.84566 0.0
C209 C 0.48192 0.32412 0.86131 0.0
C210 C 0.47651 0.30791 0.83834 0.0
C211 C 0.51938 0.32626 0.81361 0.0
N212 N 0.50013 0.3093 0.80851 0.0
C213 C 0.51753 0.3558 0.94216 0.0
C214 C 0.56934 0.32528 0.94466 0.0
C215 C 0.54882 0.32984 0.97751 0.0
C216 C 0.52298 0.34556 0.97605 0.0
C217 C 0.56271 0.33571 0.91138 0.0
N218 N 0.53766 0.35109 0.91041 0.0
H219 H 0.49511 0.36654 0.94094 0.0
H220 H 0.57642 0.33061 0.88586 0.0
H221 H 0.46644 0.32764 0.88687 0.0
H222 H 0.53936 0.3322 0.79346 0.0
O223 O 0.4701 0.36742 0.87293 0.0
O224 O 0.49726 0.37217 0.81713 0.0
O225 O 0.5749 0.35795 0.83979 0.0
C226 C 0.46676 0.37288 0.83786 0.0
H227 H 0.56951 0.43189 0.85231 0.0
H228 H 0.45633 0.29619 0.84281 0.0
H229 H 0.58953 0.31327 0.94415 0.0
H230 H 0.50542 0.34921 1.0002 0.0
Co231 Co 0.05138 0.66053 0.36043 0.0
C232 C 0.05063 0.62147 0.40133 0.0
C233 C 0.01846 0.62183 0.34993 0.0
C234 C 0.0185 0.603 0.36365 0.0
N235 N 0.0379 0.63364 0.37377 0.0
N236 N 0.03885 0.60271 0.39587 0.0
H237 H 0.06995 0.62568 0.4235 0.0
H238 H 0.00621 0.62647 0.32336 0.0
C239 C 0.96771 0.6593 0.35613 0.0
O240 O 0.96883 0.6508 0.38946 0.0
N241 N 0.06525 0.68672 0.34477 0.0
C242 C 0.08744 0.69959 0.36343 0.0
C243 C 0.09431 0.71539 0.34015 0.0
C244 C 0.05922 0.69469 0.31041 0.0
N245 N 0.07671 0.71227 0.30669 0.0
C246 C 0.05889 0.66641 0.44098 0.0
C247 C 0.00703 0.69684 0.446 0.0
C248 C 0.02829 0.69196 0.4781 0.0
C249 C 0.05412 0.67632 0.47545 0.0
C250 C 0.01253 0.68652 0.41223 0.0
N251 N 0.0377 0.67122 0.41 0.0
H252 H 0.08159 0.65589 0.43868 0.0
H253 H 0.99805 0.69173 0.38729 0.0
H254 H 0.09867 0.69738 0.39158 0.0
H255 H 0.04376 0.68727 0.28812 0.0
O256 O 0.10395 0.65478 0.36993 0.0
O257 O 0.07462 0.65027 0.31501 0.0
O258 O 0.99842 0.66484 0.34023 0.0
C259 C 0.1058 0.64935 0.33464 0.0
H260 H 0.00507 0.59042 0.35049 0.0
H261 H 0.11127 0.7281 0.34734 0.0
H262 H 0.9871 0.70898 0.44658 0.0
H263 H 0.07215 0.67253 0.49915 0.0
H264 H 0.02706 0.92527 0.97629 0.0
H265 H 0.02171 0.95504 0.01603 0.0
H266 H 0.0464 0.99102 0.91895 0.0
H267 H 0.05106 0.96174 0.87947 0.0
H268 H 0.09321 0.99869 0.98003 0.0
H269 H 0.95884 0.98947 0.95472 0.0
H270 H 0.89903 0.97086 0.95682 0.0
H271 H 0.90546 0.96866 0.07809 0.0
H272 H 0.96562 0.98705 0.07666 0.0
H273 H 0.06659 0.09654 0.02412 0.0
H274 H 0.05768 0.06387 0.99648 0.0
H275 H 0.01789 0.04239 0.1041 0.0
H276 H 0.02522 0.07566 0.1313 0.0
H277 H 0.98054 0.02435 0.04821 0.0
H278 H 0.11076 0.0351 0.07578 0.0
H279 H 0.1714 0.053 0.07619 0.0
H280 H 0.17531 0.05054 0.95481 0.0
H281 H 0.1144 0.03287 0.95363 0.0
C282 C 0.0307 0.93957 0.96342 0.0
C283 C 0.04018 0.94108 0.92483 0.0
C284 C 0.02771 0.95654 0.98612 0.0
C285 C 0.034 0.97526 0.9705 0.0
C286 C 0.04188 0.97675 0.93175 0.0
C287 C 0.04476 0.95994 0.90921 0.0
C288 C 0.03487 0.9934 0.99419 0.0
C289 C 0.06848 1.00435 0.99475 0.0
C290 C 1.00314 1.00039 0.01476 0.0
C291 C 0.96695 0.98942 0.01555 0.0
C292 C 0.94768 0.98486 0.98181 0.0
C293 C 0.91368 0.97439 0.98288 0.0
C294 C 0.89852 0.96852 0.01756 0.0
C295 C 0.91727 0.97318 0.05124 0.0
C296 C 0.95131 0.98363 0.05032 0.0
C297 C 0.05546 0.08488 0.04165 0.0
C298 C 0.04696 0.08846 0.07984 0.0
C299 C 0.05054 0.06619 0.02598 0.0
C300 C 0.03823 0.05044 0.04847 0.0
C301 C 0.02775 0.05422 0.08623 0.0
C302 C 0.03191 0.07317 0.10176 0.0
C303 C 0.03849 0.03004 0.03265 0.0
C304 C 0.00537 0.01861 0.03384 0.0
C305 C 0.07092 0.02237 0.01405 0.0
C306 C 0.10789 0.03275 0.01463 0.0
C307 C 0.12446 0.03845 0.04917 0.0
C308 C 0.15889 0.04856 0.04953 0.0
C309 C 0.17717 0.05293 0.01554 0.0
C310 C 0.16111 0.04715 0.98111 0.0
C311 C 0.12666 0.03706 0.98058 0.0
H312 H 0.20381 0.06077 0.01588 0.0
H313 H 0.87219 0.96041 0.01833 0.0
H314 H 0.56808 0.06079 0.37496 0.0
H315 H 0.57467 0.03062 0.41162 0.0
H316 H 0.563 0.06397 0.51508 0.0
H317 H 0.55681 0.09448 0.47803 0.0
H318 H 0.61462 0.03281 0.52205 0.0
H319 H 0.48707 0.04224 0.47846 0.0
H320 H 0.43739 0.04871 0.43103 0.0
H321 H 0.46985 0.99664 0.36979 0.0
H322 H 0.52015 0.99002 0.41659 0.0
H323 H 0.54191 0.95664 0.63866 0.0
H324 H 0.55383 0.98646 0.60236 0.0
H325 H 0.56424 0.95175 0.50042 0.0
H326 H 0.55191 0.92169 0.53691 0.0
H327 H 0.51599 0.98323 0.49194 0.0
H328 H 0.64111 0.97261 0.53809 0.0
H329 H 0.68983 0.96591 0.58625 0.0
H330 H 0.66157 0.01981 0.64359 0.0
H331 H 0.61213 0.02667 0.59604 0.0
C332 C 0.56743 0.06173 0.40555 0.0
C333 C 0.56135 0.07991 0.42368 0.0
C334 C 0.57121 0.04448 0.42648 0.0
C335 C 0.56846 0.04494 0.46608 0.0
C336 C 0.56501 0.06325 0.48452 0.0
C337 C 0.56154 0.08065 0.46343 0.0
C338 C 0.56605 0.02616 0.48751 0.0
C339 C 0.59282 0.02206 0.51581 0.0
C340 C 0.53808 0.0119 0.47882 0.0
C341 C 0.50761 0.01574 0.45083 0.0
C342 C 0.48379 0.03225 0.45473 0.0
C343 C 0.4555 0.03593 0.42798 0.0
C344 C 0.45052 0.02312 0.39736 0.0
C345 C 0.47377 1.00657 0.3935 0.0
C346 C 0.50216 1.00283 0.42014 0.0
C347 C 0.54684 0.95533 0.60853 0.0
C348 C 0.54564 0.93682 0.59056 0.0
C349 C 0.55401 0.97239 0.58785 0.0
C350 C 0.56013 0.97138 0.54867 0.0
C351 C 0.55968 0.95288 0.53066 0.0
C352 C 0.55285 0.93572 0.5515 0.0
C353 C 0.56461 0.98979 0.52645 0.0
C354 C 0.53802 0.99388 0.49806 0.0
C355 C 0.59264 1.00399 0.53521 0.0
C356 C 0.62264 1.00006 0.56366 0.0
C357 C 0.64505 0.98297 0.56113 0.0
C358 C 0.67285 0.97915 0.58831 0.0
C359 C 0.67876 0.9924 0.61805 0.0
C360 C 0.65694 1.00954 0.62057 0.0
C361 C 0.62903 0.01341 0.59348 0.0
H362 H 0.70027 0.98941 0.6391 0.0
H363 H 0.4286 0.026 0.37668 0.0
H364 H 0.53339 0.59505 0.0368 0.0
H365 H 0.52567 0.5645 1.00012 0.0
H366 H 0.51527 0.53173 0.10387 0.0
H367 H 0.52299 0.56198 0.14026 0.0
H368 H 0.56471 0.51438 0.05898 0.0
H369 H 0.43881 0.54002 0.04466 0.0
H370 H 0.39049 0.56476 0.02793 0.0
H371 H 0.42937 0.56444 0.91281 0.0
H372 H 0.47829 0.53988 0.92897 0.0
H373 H 0.52183 0.42222 0.97332 0.0
H374 H 0.51439 0.45234 0.01129 0.0
H375 H 0.52428 0.48734 0.91025 0.0
H376 H 0.53036 0.45751 0.87237 0.0
H377 H 0.47261 0.50311 0.9552 0.0
H378 H 0.60051 0.47939 0.96997 0.0
H379 H 0.64978 0.45503 0.98608 0.0
H380 H 0.60785 0.45229 0.09999 0.0
H381 H 0.55799 0.47645 0.08439 0.0
C382 C 0.52883 0.58136 0.05166 0.0
C383 C 0.52927 0.58094 0.09144 0.0
C384 C 0.52444 0.56389 0.03072 0.0
C385 C 0.51994 0.54572 0.0492 0.0
C386 C 0.51906 0.54546 0.08888 0.0
C387 C 0.52358 0.56281 0.10969 0.0
C388 C 0.51812 0.5268 0.02763 0.0
C389 C 0.54412 0.51184 0.0367 0.0
C390 C 0.4919 0.52353 0.99793 0.0
C391 C 0.46245 0.53825 0.98812 0.0
C392 C 0.43726 0.54534 0.01584 0.0
C393 C 0.40972 0.55931 0.00645 0.0
C394 C 0.40693 0.56621 0.96936 0.0
C395 C 0.4316 0.5591 0.94155 0.0
C396 C 0.45921 0.54514 0.9508 0.0
C397 C 0.52179 0.43633 0.95921 0.0
C398 C 0.52733 0.43741 0.91986 0.0
C399 C 0.51785 0.45356 0.98094 0.0
C400 C 0.51947 0.47221 0.96376 0.0
C401 C 0.52316 0.47322 0.9243 0.0
C402 C 0.52706 0.45608 0.90267 0.0
C403 C 0.51915 0.49073 0.98665 0.0
C404 C 0.49293 0.50562 0.97773 0.0
C405 C 0.54525 0.49401 0.01644 0.0
C406 C 0.57528 0.47955 0.0259 0.0
C407 C 0.60163 0.47348 0.99838 0.0
C408 C 0.62968 0.45972 0.00742 0.0
C409 C 0.63187 0.45207 0.044 0.0
C410 C 0.60607 0.4582 0.07164 0.0
C411 C 0.57793 0.47193 0.06273 0.0
H412 H 0.65361 0.44143 0.05096 0.0
H413 H 0.38559 0.57702 0.96214 0.0
H414 H 0.0434 0.42965 0.53829 0.0
H415 H 0.05284 0.45981 0.5014 0.0
H416 H 0.05357 0.49395 0.60461 0.0
H417 H 0.04409 0.46407 0.64122 0.0
H418 H 0.00619 0.50956 0.55546 0.0
H419 H 0.13449 0.48645 0.55214 0.0
H420 H 0.18593 0.4626 0.54036 0.0
H421 H 0.15674 0.46067 0.42242 0.0
H422 H 0.10476 0.48431 0.43359 0.0
H423 H 0.05025 0.60125 0.47177 0.0
H424 H 0.05789 0.57154 0.51032 0.0
H425 H 0.0529 0.53566 0.40948 0.0
H426 H 0.0462 0.56518 0.37099 0.0
H427 H 0.10506 0.52143 0.45861 0.0
H428 H 0.97474 0.54259 0.46267 0.0
H429 H 0.92269 0.56615 0.47398 0.0
H430 H 0.95554 0.57129 0.59062 0.0
H431 H 0.00814 0.54794 0.57986 0.0
C432 C 0.04624 0.44357 0.55302 0.0
C433 C 0.0425 0.44451 0.59258 0.0
C434 C 0.05163 0.4608 0.53198 0.0
C435 C 0.05385 0.4792 0.55024 0.0
C436 C 0.0516 0.47999 0.58984 0.0
C437 C 0.04604 0.46288 0.61074 0.0
C438 C 0.05605 0.49781 0.5283 0.0
C439 C 0.02824 0.51226 0.53475 0.0
C440 C 0.08422 0.5012 0.5006 0.0
C441 C 0.11549 0.48701 0.49378 0.0
C442 C 0.13883 0.48082 0.52375 0.0
C443 C 0.16813 0.46736 0.51717 0.0
C444 C 0.17454 0.46008 0.48069 0.0
C445 C 0.15171 0.46629 0.45068 0.0
C446 C 0.12235 0.47974 0.45711 0.0
C447 C 0.05145 0.58705 0.45785 0.0
C448 C 0.04704 0.58556 0.41841 0.0
C449 C 0.05558 0.57008 0.47987 0.0
C450 C 0.0554 0.55134 0.46281 0.0
C451 C 0.05294 0.54992 0.4233 0.0
C452 C 0.0487 0.56682 0.40136 0.0
C453 C 0.05536 0.53313 0.48602 0.0
C454 C 0.08333 0.51876 0.47964 0.0
C455 C 0.0273 0.52974 0.5138 0.0
C456 C 0.99562 0.5437 0.52036 0.0
C457 C 0.97104 0.54887 0.49066 0.0
C458 C 0.94142 0.56216 0.49698 0.0
C459 C 0.93588 0.57026 0.53297 0.0
C460 C 0.9599 0.56503 0.56274 0.0
C461 C 0.98962 0.55177 0.55656 0.0
H462 H 0.91292 0.58055 0.53781 0.0
H463 H 0.19724 0.44967 0.47565 0.0
H464 H 0.44836 0.14167 0.30587 0.0
H465 H 0.38493 0.14046 0.27775 0.0
H466 H 0.35638 0.19515 0.33324 0.0
H467 H 0.41974 0.1967 0.36068 0.0
H468 H 0.31174 0.14033 0.30527 0.0
H469 H 0.30485 0.22369 0.27063 0.0
H470 H 0.35004 0.25097 0.26281 0.0
H471 H 0.4362 0.2101 0.22783 0.0
H472 H 0.39093 0.18278 0.23293 0.0
H473 H 0.14296 0.20383 0.23386 0.0
H474 H 0.20674 0.20023 0.25904 0.0
H475 H 0.21711 0.14363 0.20426 0.0
H476 H 0.15255 0.14697 0.17936 0.0
H477 H 0.27348 0.19746 0.22689 0.0
H478 H 0.27618 0.11424 0.25736 0.0
H479 H 0.23194 0.0873 0.27224 0.0
H480 H 0.15443 0.12876 0.32195 0.0
H481 H 0.1984 0.15588 0.30781 0.0
C482 C 0.42851 0.15339 0.31223 0.0
C483 C 0.43935 0.16943 0.3351 0.0
C484 C 0.39218 0.15261 0.2963 0.0
C485 C 0.36605 0.16785 0.30293 0.0
C486 C 0.37625 0.18338 0.3272 0.0
C487 C 0.41257 0.18426 0.34284 0.0
C488 C 0.32904 0.16826 0.2827 0.0
C489 C 0.30357 0.15267 0.28764 0.0
C490 C 0.31822 0.18449 0.26002 0.0
C491 C 0.34453 0.20111 0.25276 0.0
C492 C 0.3332 0.22056 0.26056 0.0
C493 C 0.35884 0.23605 0.25648 0.0
C494 C 0.39599 0.23228 0.24489 0.0
C495 C 0.40739 0.21304 0.23671 0.0
C496 C 0.38164 0.19756 0.23984 0.0
C497 C 0.15867 0.19057 0.22705 0.0
C498 C 0.14246 0.17566 0.20458 0.0
C499 C 0.19532 0.18857 0.24145 0.0
C500 C 0.21683 0.17162 0.23384 0.0
C501 C 0.20095 0.15675 0.21103 0.0
C502 C 0.16405 0.15869 0.1967 0.0
C503 C 0.25566 0.16971 0.25013 0.0
C504 C 0.28169 0.18502 0.24423 0.0
C505 C 0.26689 0.15329 0.27209 0.0
C506 C 0.24038 0.13709 0.28109 0.0
C507 C 0.24973 0.11758 0.27155 0.0
C508 C 0.2247 0.10229 0.27985 0.0
C509 C 0.19033 0.10633 0.29789 0.0
C510 C 0.18098 0.12566 0.30783 0.0
C511 C 0.20593 0.141 0.29963 0.0
H512 H 0.17098 0.09447 0.30427 0.0
H513 H 0.41592 0.24426 0.24215 0.0
H514 H 0.43505 0.87494 0.69489 0.0
H515 H 0.37157 0.87618 0.72238 0.0
H516 H 0.36246 0.81315 0.71124 0.0
H517 H 0.42556 0.81185 0.68296 0.0
H518 H 0.29821 0.82944 0.69083 0.0
H519 H 0.38063 0.83612 0.7977 0.0
H520 H 0.4325 0.8504 0.83554 0.0
H521 H 0.37499 0.90613 0.83775 0.0
H522 H 0.32299 0.89225 0.79945 0.0
H523 H 0.14479 0.81482 0.81883 0.0
H524 H 0.20714 0.8149 0.78869 0.0
H525 H 0.20665 0.87833 0.78877 0.0
H526 H 0.14413 0.8784 0.81884 0.0
H527 H 0.27488 0.86253 0.81407 0.0
H528 H 0.19056 0.85437 0.70863 0.0
H529 H 0.13879 0.8389 0.67245 0.0
H530 H 0.20025 0.78433 0.66949 0.0
H531 H 0.25217 0.79938 0.70624 0.0
C532 C 0.41961 0.86132 0.69833 0.0
C533 C 0.43559 0.84328 0.68678 0.0
C534 C 0.38327 0.86205 0.71421 0.0
C535 C 0.36221 0.84473 0.71941 0.0
C536 C 0.378 0.82673 0.70758 0.0
C537 C 0.41423 0.82601 0.69149 0.0
C538 C 0.32378 0.84533 0.73711 0.0
C539 C 0.29327 0.83647 0.718 0.0
C540 C 0.31694 0.85481 0.77227 0.0
C541 C 0.34811 0.8632 0.79536 0.0
C542 C 0.37918 0.85146 0.806 0.0
C543 C 0.40858 0.85948 0.82757 0.0
C544 C 0.40709 0.87917 0.83895 0.0
C545 C 0.37613 0.89089 0.82886 0.0
C546 C 0.34668 0.88295 0.80724 0.0
C547 C 0.15789 0.82881 0.81246 0.0
C548 C 0.13936 0.84661 0.82124 0.0
C549 C 0.19351 0.82882 0.79505 0.0
C550 C 0.21151 0.84662 0.78618 0.0
C551 C 0.19329 0.86442 0.79527 0.0
C552 C 0.15747 0.86442 0.81234 0.0
C553 C 0.2495 0.84661 0.76783 0.0
C554 C 0.27988 0.85556 0.78684 0.0
C555 C 0.25627 0.83704 0.73278 0.0
C556 C 0.22512 0.82796 0.71055 0.0
C557 C 0.19291 0.83902 0.70058 0.0
C558 C 0.16355 0.83033 0.67991 0.0
C559 C 0.16618 0.81063 0.66876 0.0
C560 C 0.19823 0.79958 0.6782 0.0
C561 C 0.22764 0.80819 0.69893 0.0
H562 H 0.14343 0.80393 0.65274 0.0
H563 H 0.42987 0.88535 0.85566 0.0
H564 H 0.90741 0.88506 0.87344 0.0
H565 H 0.84425 0.88767 0.84583 0.0
H566 H 0.89243 0.88422 0.73386 0.0
H567 H 0.95608 0.88182 0.76144 0.0
H568 H 0.83418 0.91042 0.73634 0.0
H569 H 0.85576 0.8441 0.77534 0.0
H570 H 0.87228 0.81724 0.81904 0.0
H571 H 0.77872 0.83301 0.89068 0.0
H572 H 0.7621 0.86026 0.8478 0.0
H573 H 0.67035 0.8772 0.63743 0.0
H574 H 0.7326 0.88218 0.6658 0.0
H575 H 0.68172 0.88444 0.7767 0.0
H576 H 0.61911 0.87914 0.74839 0.0
H577 H 0.74097 0.85997 0.77558 0.0
H578 H 0.71838 0.92603 0.73336 0.0
H579 H 0.70271 0.95219 0.6877 0.0
H580 H 0.79821 0.93563 0.6194 0.0
H581 H 0.81416 0.90919 0.6643 0.0
C582 C 0.9047 0.88513 0.84291 0.0
C583 C 0.93678 0.88311 0.81962 0.0
C584 C 0.86849 0.88653 0.82716 0.0
C585 C 0.86345 0.88576 0.78777 0.0
C586 C 0.89558 0.88477 0.76434 0.0
C587 C 0.93196 0.88342 0.78013 0.0
C588 C 0.82462 0.88506 0.77131 0.0
C589 C 0.8139 0.89928 0.74462 0.0
C590 C 0.79788 0.87071 0.78257 0.0
C591 C 0.80799 0.8544 0.80858 0.0
C592 C 0.83895 0.84199 0.80062 0.0
C593 C 0.84831 0.82667 0.82523 0.0
C594 C 0.82664 0.82346 0.85769 0.0
C595 C 0.79555 0.83556 0.86559 0.0
C596 C 0.78617 0.85095 0.84115 0.0
C597 C 0.67227 0.879 0.66785 0.0
C598 C 0.63973 0.87777 0.69067 0.0
C599 C 0.70795 0.88195 0.68403 0.0
C600 C 0.71195 0.88389 0.7234 0.0
C601 C 0.67938 0.88305 0.74624 0.0
C602 C 0.64358 0.8801 0.73003 0.0
C603 C 0.7503 0.88543 0.74078 0.0
C604 C 0.76106 0.87126 0.76754 0.0
C605 C 0.77709 0.89971 0.7293 0.0
C606 C 0.76729 0.91551 0.70208 0.0
C607 C 0.73585 0.92784 0.70843 0.0
C608 C 0.72695 0.94275 0.68271 0.0
C609 C 0.74944 0.94555 0.65067 0.0
C610 C 0.78082 0.93344 0.64423 0.0
C611 C 0.78982 0.91851 0.66982 0.0
H612 H 0.74266 0.95714 0.63089 0.0
H613 H 0.83388 0.81157 0.87666 0.0
H614 H 0.62673 0.14216 0.25918 0.0
H615 H 0.68931 0.13823 0.22981 0.0
H616 H 0.74065 0.13516 0.34047 0.0
H617 H 0.6787 0.13946 0.36974 0.0
H618 H 0.77818 0.15991 0.29858 0.0
H619 H 0.73175 0.09417 0.28148 0.0
H620 H 0.68681 0.06866 0.26045 0.0
H621 H 0.70007 0.08725 0.14523 0.0
H622 H 0.74473 0.11306 0.16565 0.0
H623 H 0.96335 0.13537 0.24197 0.0
H624 H 0.90027 0.1306 0.26918 0.0
H625 H 0.84994 0.13897 0.15917 0.0
H626 H 0.91282 0.14355 0.13174 0.0
H627 H 0.81223 0.11064 0.20027 0.0
H628 H 0.8572 0.1768 0.21794 0.0
H629 H 0.9034 0.2017 0.23864 0.0
H630 H 0.89263 0.18209 0.3535 0.0
H631 H 0.8469 0.15673 0.33329 0.0
C632 C 0.65134 0.14039 0.27716 0.0
C633 C 0.64777 0.14117 0.31676 0.0
C634 C 0.68711 0.1381 0.26037 0.0
C635 C 0.71983 0.13632 0.28291 0.0
C636 C 0.71599 0.13659 0.32243 0.0
C637 C 0.68045 0.139 0.33914 0.0
C638 C 0.75834 0.13521 0.2657 0.0
C639 C 0.78569 0.14891 0.27752 0.0
C640 C 0.76809 0.1212 0.23751 0.0
C641 C 0.74129 0.10568 0.22515 0.0
C642 C 0.72485 0.09292 0.25169 0.0
C643 C 0.69947 0.07839 0.23988 0.0
C644 C 0.69051 0.07637 0.20154 0.0
C645 C 0.707 0.08885 0.17492 0.0
C646 C 0.73237 0.10342 0.1866 0.0
C647 C 0.93893 0.13576 0.22343 0.0
C648 C 0.94306 0.14001 0.18477 0.0
C649 C 0.90286 0.13311 0.23904 0.0
C650 C 0.87032 0.13474 0.2163 0.0
C651 C 0.87459 0.1377 0.17727 0.0
C652 C 0.9106 0.14038 0.16167 0.0
C653 C 0.8319 0.13516 0.23358 0.0
C654 C 0.80462 0.12149 0.22157 0.0
C655 C 0.82211 0.14919 0.26166 0.0
C656 C 0.84892 0.16473 0.27403 0.0
C657 C 0.86487 0.17771 0.24758 0.0
C658 C 0.89099 0.19191 0.25923 0.0
C659 C 0.90103 0.19347 0.29738 0.0
C660 C 0.88487 0.18085 0.32396 0.0
C661 C 0.85886 0.16655 0.31241 0.0
H662 H 0.92126 0.20447 0.3064 0.0
H663 H 0.67086 0.0651 0.19244 0.0
H664 H 0.90357 0.63842 0.3689 0.0
H665 H 0.84397 0.64002 0.33433 0.0
H666 H 0.88851 0.6868 0.2652 0.0
H667 H 0.94917 0.68453 0.29867 0.0
H668 H 0.79169 0.66498 0.32562 0.0
H669 H 0.84941 0.68569 0.17816 0.0
H670 H 0.90791 0.68208 0.14054 0.0
H671 H 0.93711 0.62995 0.20245 0.0
H672 H 0.87859 0.63314 0.24011 0.0
H673 H 0.63174 0.68077 0.20787 0.0
H674 H 0.692 0.68509 0.24115 0.0
H675 H 0.73793 0.63466 0.18211 0.0
H676 H 0.67852 0.63092 0.14759 0.0
H677 H 0.78944 0.66054 0.18551 0.0
H678 H 0.70415 0.6332 0.27702 0.0
H679 H 0.64583 0.63153 0.31526 0.0
H680 H 0.67215 0.68727 0.36635 0.0
H681 H 0.73042 0.68939 0.32805 0.0
C682 C 0.90067 0.6491 0.34639 0.0
C683 C 0.93109 0.66127 0.33631 0.0
C684 C 0.86648 0.65004 0.3267 0.0
C685 C 0.86172 0.66337 0.2968 0.0
C686 C 0.89169 0.67607 0.28756 0.0
C687 C 0.92628 0.67484 0.30679 0.0
C688 C 0.82564 0.66345 0.275 0.0
C689 C 0.79126 0.66409 0.29496 0.0
C690 C 0.82485 0.662 0.235 0.0
C691 C 0.85986 0.6598 0.2122 0.0
C692 C 0.86828 0.67343 0.18364 0.0
C693 C 0.90144 0.67146 0.16234 0.0
C694 C 0.92628 0.65584 0.1692 0.0
C695 C 0.91792 0.64209 0.19727 0.0
C696 C 0.88478 0.64398 0.21861 0.0
C697 C 0.65477 0.67065 0.20202 0.0
C698 C 0.65043 0.65546 0.17527 0.0
C699 C 0.68916 0.67308 0.22112 0.0
C700 C 0.71946 0.66003 0.2146 0.0
C701 C 0.71513 0.64497 0.1876 0.0
C702 C 0.68107 0.64279 0.16797 0.0
C703 C 0.75551 0.66172 0.23617 0.0
C704 C 0.78988 0.66157 0.21615 0.0
C705 C 0.75631 0.66282 0.27621 0.0
C706 C 0.7214 0.66155 0.29938 0.0
C707 C 0.69735 0.64516 0.29623 0.0
C708 C 0.66434 0.64412 0.31794 0.0
C709 C 0.65523 0.65931 0.34314 0.0
C710 C 0.6792 0.67554 0.34677 0.0
C711 C 0.71224 0.67666 0.32509 0.0
H712 H 0.62965 0.65848 0.35991 0.0
H713 H 0.95195 0.65435 0.1527 0.0
H714 H 0.94564 0.35272 0.72222 0.0
H715 H 0.88491 0.34872 0.75473 0.0
H716 H 0.82824 0.37909 0.66384 0.0
H717 H 0.8886 0.3833 0.63139 0.0
H718 H 0.80686 0.39321 0.73155 0.0
H719 H 0.82089 0.3297 0.67276 0.0
H720 H 0.85398 0.29862 0.65796 0.0
H721 H 0.85459 0.28343 0.77579 0.0
H722 H 0.82205 0.31459 0.79138 0.0
H723 H 0.61931 0.34437 0.78763 0.0
H724 H 0.67912 0.34302 0.75235 0.0
H725 H 0.73445 0.37546 0.84163 0.0
H726 H 0.67522 0.37686 0.87701 0.0
H727 H 0.75406 0.32891 0.7713 0.0
H728 H 0.78781 0.41069 0.79761 0.0
H729 H 0.75402 0.44176 0.81109 0.0
H730 H 0.65564 0.42001 0.75315 0.0
H731 H 0.68905 0.38897 0.7388 0.0
C732 C 0.92022 0.35848 0.7091 0.0
C733 C 0.92198 0.36837 0.67424 0.0
C734 C 0.88553 0.3561 0.72763 0.0
C735 C 0.85203 0.36351 0.71158 0.0
C736 C 0.85374 0.37327 0.67673 0.0
C737 C 0.88831 0.37562 0.65818 0.0
C738 C 0.81529 0.36179 0.7316 0.0
C739 C 0.79537 0.37913 0.74018 0.0
C740 C 0.80012 0.34342 0.74262 0.0
C741 C 0.81932 0.32457 0.73327 0.0
C742 C 0.82833 0.3198 0.69555 0.0
C743 C 0.84697 0.30216 0.68702 0.0
C744 C 0.85649 0.28909 0.71593 0.0
C745 C 0.84727 0.29359 0.75343 0.0
C746 C 0.8287 0.31124 0.76213 0.0
C747 C 0.6443 0.35106 0.79988 0.0
C748 C 0.64243 0.36087 0.83498 0.0
C749 C 0.67844 0.35018 0.7798 0.0
C750 C 0.71104 0.35926 0.79432 0.0
C751 C 0.70951 0.36847 0.82986 0.0
C752 C 0.67559 0.36925 0.85002 0.0
C753 C 0.7461 0.36033 0.77147 0.0
C754 C 0.76567 0.34293 0.76253 0.0
C755 C 0.76092 0.37863 0.75979 0.0
C756 C 0.74084 0.39744 0.76748 0.0
C757 C 0.75904 0.41259 0.78759 0.0
C758 C 0.73994 0.43019 0.7954 0.0
C759 C 0.70266 0.43284 0.78309 0.0
C760 C 0.68447 0.41792 0.76279 0.0
C761 C 0.70346 0.40031 0.75484 0.0
H762 H 0.68791 0.44646 0.78923 0.0
H763 H 0.87093 0.27545 0.70925 0.0
H764 H 0.44818 0.37881 0.76359 0.0
H765 H 0.38486 0.38403 0.73725 0.0
H766 H 0.33768 0.38391 0.84988 0.0
H767 H 0.4007 0.37828 0.87627 0.0
H768 H 0.29812 0.36065 0.80519 0.0
H769 H 0.34473 0.42661 0.79741 0.0
H770 H 0.38965 0.45279 0.78015 0.0
H771 H 0.37547 0.43864 0.66246 0.0
H772 H 0.33084 0.41218 0.67904 0.0
H773 H 0.11333 0.38717 0.74873 0.0
H774 H 0.17584 0.3906 0.77794 0.0
H775 H 0.22842 0.38542 0.66817 0.0
H776 H 0.16608 0.38217 0.63873 0.0
H777 H 0.26397 0.41292 0.71356 0.0
H778 H 0.21971 0.34601 0.72202 0.0
H779 H 0.17342 0.32044 0.73916 0.0
H780 H 0.18314 0.33667 0.85631 0.0
H781 H 0.2289 0.36264 0.83977 0.0
C782 C 0.42437 0.38016 0.78275 0.0
C783 C 0.42939 0.37812 0.82198 0.0
C784 C 0.38819 0.3832 0.76768 0.0
C785 C 0.35649 0.38449 0.79162 0.0
C786 C 0.36167 0.38292 0.83086 0.0
C787 C 0.39774 0.37977 0.8459 0.0
C788 C 0.31771 0.38641 0.77571 0.0
C789 C 0.29052 0.3723 0.78568 0.0
C790 C 0.30796 0.40134 0.74959 0.0
C791 C 0.33468 0.41729 0.73951 0.0
C792 C 0.3514 0.42898 0.76786 0.0
C793 C 0.37678 0.44389 0.7582 0.0
C794 C 0.38548 0.44735 0.72024 0.0
C795 C 0.36874 0.43593 0.69185 0.0
C796 C 0.34337 0.42099 0.70137 0.0
C797 C 0.13816 0.38709 0.73075 0.0
C798 C 0.13486 0.38421 0.69149 0.0
C799 C 0.17384 0.389 0.74749 0.0
C800 C 0.20673 0.38798 0.72524 0.0
C801 C 0.20338 0.38621 0.68583 0.0
C802 C 0.16774 0.38428 0.66909 0.0
C803 C 0.24464 0.38722 0.74316 0.0
C804 C 0.27162 0.40143 0.7334 0.0
C805 C 0.25425 0.37239 0.76951 0.0
C806 C 0.22745 0.35642 0.7796 0.0
C807 C 0.2118 0.34422 0.75141 0.0
C808 C 0.18565 0.32965 0.76101 0.0
C809 C 0.17528 0.32696 0.79879 0.0
C810 C 0.19115 0.3388 0.82705 0.0
C811 C 0.21719 0.35345 0.81758 0.0
H812 H 0.15502 0.31568 0.80617 0.0
H813 H 0.40514 0.45889 0.71281 0.0
H814 H 0.17391 0.64442 0.3697 0.0
H815 H 0.23576 0.64016 0.33966 0.0
H816 H 0.18222 0.63835 0.22996 0.0
H817 H 0.1202 0.64269 0.25976 0.0
H818 H 0.26841 0.61243 0.29126 0.0
H819 H 0.23662 0.66723 0.171 0.0
H820 H 0.19327 0.69495 0.15806 0.0
H821 H 0.18689 0.70796 0.2769 0.0
H822 H 0.2308 0.6806 0.29047 0.0
H823 H 0.40717 0.64667 0.13093 0.0
H824 H 0.34369 0.64259 0.15725 0.0
H825 H 0.39115 0.6391 0.26959 0.0
H826 H 0.45479 0.64282 0.24338 0.0
H827 H 0.30653 0.66617 0.20468 0.0
H828 H 0.33557 0.61053 0.32518 0.0
H829 H 0.37802 0.58255 0.33878 0.0
H830 H 0.38999 0.57112 0.21978 0.0
H831 H 0.34721 0.59884 0.20547 0.0
C832 C 0.17524 0.64282 0.33922 0.0
C833 C 0.1423 0.64409 0.31701 0.0
C834 C 0.21057 0.64031 0.32214 0.0
C835 C 0.21352 0.6392 0.28263 0.0
C836 C 0.18049 0.63939 0.26051 0.0
C837 C 0.14511 0.64183 0.27758 0.0
C838 C 0.25127 0.63943 0.26453 0.0
C839 C 0.27694 0.62423 0.27253 0.0
C840 C 0.26198 0.6547 0.23968 0.0
C841 C 0.23665 0.67169 0.23174 0.0
C842 C 0.22615 0.67608 0.19434 0.0
C843 C 0.20148 0.69174 0.1869 0.0
C844 C 0.18722 0.70317 0.21665 0.0
C845 C 0.19786 0.69906 0.25389 0.0
C846 C 0.22264 0.68348 0.26146 0.0
C847 C 0.40412 0.64481 0.16121 0.0
C848 C 0.43595 0.64503 0.18511 0.0
C849 C 0.36782 0.64254 0.1762 0.0
C850 C 0.36266 0.64041 0.21533 0.0
C851 C 0.39448 0.64039 0.23923 0.0
C852 C 0.43083 0.64257 0.22423 0.0
C853 C 0.32391 0.63911 0.23129 0.0
C854 C 0.29802 0.65423 0.22306 0.0
C855 C 0.31307 0.62377 0.25599 0.0
C856 C 0.33846 0.60689 0.26428 0.0
C857 C 0.34713 0.60199 0.30192 0.0
C858 C 0.37128 0.58618 0.30975 0.0
C859 C 0.38679 0.5751 0.28016 0.0
C860 C 0.37807 0.57976 0.24267 0.0
C861 C 0.35392 0.59554 0.23469 0.0
H862 H 0.4055 0.56288 0.28629 0.0
H863 H 0.168 0.71522 0.21085 0.0
H864 H 0.06226 0.27744 0.70525 0.0
H865 H 0.06253 0.25675 0.76186 0.0
H866 H 0.06812 0.30862 0.83235 0.0
H867 H 0.06821 0.32934 0.77579 0.0
H868 H 0.11721 0.27974 0.85601 0.0
H869 H 0.98654 0.28557 0.82305 0.0
H870 H 0.93075 0.28405 0.78121 0.0
H871 H 0.94802 0.222 0.76542 0.0
H872 H 0.00441 0.22322 0.80665 0.0
H873 H 0.06347 0.236 0.0306 0.0
H874 H 0.06686 0.25624 0.97381 0.0
H875 H 0.06031 0.20416 0.90406 0.0
H876 H 0.05763 0.1837 0.96081 0.0
H877 H 0.01206 0.23311 0.87983 0.0
H878 H 0.14316 0.2278 0.91455 0.0
H879 H 0.19821 0.2301 0.95727 0.0
H880 H 0.17881 0.29211 0.97106 0.0
H881 H 0.12327 0.29013 0.92885 0.0
C882 C 0.06376 0.2844 0.73281 0.0
C883 C 0.06488 0.305 0.73611 0.0
C884 C 0.06368 0.27259 0.76512 0.0
C885 C 0.06493 0.28116 0.80133 0.0
C886 C 0.06693 0.30171 0.8047 0.0
C887 C 0.06665 0.31353 0.7724 0.0
C888 C 0.06385 0.26866 0.83568 0.0
C889 C 0.09401 0.26971 0.86148 0.0
C890 C 0.03387 0.25533 0.84244 0.0
C891 C 0.99996 0.25453 0.81762 0.0
C892 C 0.97867 0.27163 0.81037 0.0
C893 C 0.94689 0.27082 0.78682 0.0
C894 C 0.93587 0.25295 0.77062 0.0
C895 C 0.95661 0.23584 0.77796 0.0
C896 C 0.98849 0.23658 0.80142 0.0
C897 C 0.0634 0.22877 1.00325 0.0
C898 C 0.06047 0.20816 1.0004 0.0
C899 C 0.06517 0.2404 0.97076 0.0
C900 C 0.06413 0.23172 0.93467 0.0
C901 C 0.06108 0.21118 0.93163 0.0
C902 C 0.05944 0.19951 0.96413 0.0
C903 C 0.06552 0.24411 0.90013 0.0
C904 C 0.03535 0.24307 0.87432 0.0
C905 C 0.09536 0.25754 0.8935 0.0
C906 C 0.12881 0.25878 0.91884 0.0
C907 C 0.15043 0.2419 0.92695 0.0
C908 C 0.18176 0.24315 0.95103 0.0
C909 C 0.19194 0.26123 0.96696 0.0
C910 C 0.17086 0.27811 0.95875 0.0
C911 C 0.13946 0.27693 0.93473 0.0
H912 H 0.21622 0.26216 0.98559 0.0
H913 H 0.91122 0.25233 0.75245 0.0
H914 H 0.47802 0.803 0.51645 0.0
H915 H 0.47391 0.78186 0.46006 0.0
H916 H 0.5384 0.82416 0.39655 0.0
H917 H 0.54323 0.84516 0.45304 0.0
H918 H 0.47136 0.80677 0.35767 0.0
H919 H 0.58504 0.78878 0.42685 0.0
H920 H 0.61975 0.77846 0.48403 0.0
H921 H 0.55211 0.72618 0.49054 0.0
H922 H 0.51655 0.73636 0.43371 0.0
H923 H 0.52649 0.75024 0.19855 0.0
H924 H 0.52435 0.77201 0.25383 0.0
H925 H 0.49586 0.72256 0.32453 0.0
H926 H 0.49971 0.70069 0.2694 0.0
H927 H 0.54195 0.74358 0.36125 0.0
H928 H 0.42888 0.75927 0.29398 0.0
H929 H 0.38948 0.76876 0.23935 0.0
H930 H 0.44849 0.82376 0.23173 0.0
H931 H 0.48859 0.81449 0.28603 0.0
C932 C 0.49069 0.80794 0.49026 0.0
C933 C 0.51092 0.82572 0.48908 0.0
C934 C 0.4885 0.79582 0.45817 0.0
C935 C 0.50602 0.80141 0.4242 0.0
C936 C 0.52468 0.81959 0.42247 0.0
C937 C 0.52749 0.83154 0.45472 0.0
C938 C 0.50674 0.78783 0.39114 0.0
C939 C 0.48706 0.79304 0.35819 0.0
C940 C 0.52627 0.76965 0.39235 0.0
C941 C 0.54786 0.76344 0.42629 0.0
C942 C 0.57733 0.77518 0.44068 0.0
C943 C 0.5972 0.76934 0.47298 0.0
C944 C 0.58807 0.75171 0.49097 0.0
C945 C 0.55911 0.73985 0.47662 0.0
C946 C 0.5391 0.74564 0.44435 0.0
C947 C 0.51972 0.74407 0.22592 0.0
C948 C 0.51318 0.7238 0.22965 0.0
C949 C 0.51826 0.75653 0.25754 0.0
C950 C 0.5091 0.7491 0.29349 0.0
C951 C 0.50294 0.72875 0.29725 0.0
C952 C 0.50517 0.71623 0.26573 0.0
C953 C 0.50654 0.76243 0.3272 0.0
C954 C 0.52597 0.75723 0.36045 0.0
C955 C 0.48607 0.78044 0.32649 0.0
C956 C 0.46198 0.7861 0.29386 0.0
C957 C 0.43363 0.77333 0.28049 0.0
C958 C 0.41115 0.77868 0.2496 0.0
C959 C 0.41654 0.79683 0.23202 0.0
C960 C 0.44437 0.8097 0.24535 0.0
C961 C 0.46697 0.80441 0.2762 0.0
H962 H 0.39911 0.80095 0.20811 0.0
H963 H 0.60349 0.74721 0.51598 0.0
H964 H 0.11323 0.84089 0.03675 0.0
H965 H 0.1206 0.8195 0.09218 0.0
H966 H 0.0229 0.7861 0.05707 0.0
H967 H 0.01557 0.80716 1.00199 0.0
H968 H 0.01816 0.79545 0.13017 0.0
H969 H 0.11306 0.76818 0.04696 0.0
H970 H 0.1699 0.76907 0.00649 0.0
H971 H 0.2369 0.78815 0.10115 0.0
H972 H 0.18031 0.78763 0.14209 0.0
H973 H 0.02668 0.71262 0.24813 0.0
H974 H 0.02764 0.73395 0.1929 0.0
H975 H 0.12868 0.76215 0.2348 0.0
H976 H 0.12907 0.74016 0.28921 0.0
H977 H 0.13394 0.75721 0.16081 0.0
H978 H 0.0395 0.78367 0.24447 0.0
H979 H 0.98277 0.78261 0.28508 0.0
H980 H 0.91495 0.76538 0.1897 0.0
H981 H 0.97139 0.76609 0.1486 0.0
C982 C 0.09358 0.82887 0.04072 0.0
C983 C 0.06352 0.82592 0.01518 0.0
C984 C 0.0978 0.81666 0.0724 0.0
C985 C 0.07225 0.80118 0.07885 0.0
C986 C 0.04275 0.79804 0.05296 0.0
C987 C 0.03851 0.81018 0.02152 0.0
C988 C 0.07514 0.78847 0.11294 0.0
C989 C 0.04338 0.78695 0.13663 0.0
C990 C 0.10836 0.77777 0.12205 0.0
C991 C 0.14237 0.77809 0.09747 0.0
C992 C 0.13985 0.77274 0.05906 0.0
C993 C 0.17203 0.77314 0.03606 0.0
C994 C 0.20696 0.77872 0.05121 0.0
C995 C 0.2098 0.78386 0.08943 0.0
C996 C 0.17769 0.78351 0.11255 0.0
C997 C 0.04942 0.72315 0.24552 0.0
C998 C 0.07756 0.72472 0.27358 0.0
C999 C 0.04971 0.73553 0.214 0.0
C1000 C 0.07778 0.74999 0.21001 0.0
C1001 C 0.10651 0.75125 0.23737 0.0
C1002 C 0.10642 0.73877 0.26878 0.0
C1003 C 0.07672 0.76398 0.17768 0.0
C1004 C 0.10881 0.76579 0.15444 0.0
C1005 C 0.0438 0.77502 0.16896 0.0
C1006 C 0.00973 0.77479 0.19353 0.0
C1007 C 0.01253 0.77955 0.23221 0.0
C1008 C 0.98042 0.77902 0.25531 0.0
C1009 C 0.94529 0.77389 0.24 0.0
C1010 C 0.94218 0.76934 0.20153 0.0
C1011 C 0.97421 0.76982 0.17831 0.0
H1012 H 0.92047 0.77348 0.25794 0.0
H1013 H 0.23185 0.77902 0.03335 0.0
H1014 H 0.56321 0.29489 0.77541 0.0
H1015 H 0.56651 0.2716 0.72238 0.0
H1016 H 0.44438 0.27177 0.71502 0.0
H1017 H 0.44139 0.29392 0.76979 0.0
H1018 H 0.4641 0.23735 0.70344 0.0
H1019 H 0.50848 0.29735 0.65009 0.0
H1020 H 0.54768 0.32719 0.64481 0.0
H1021 H 0.64782 0.29155 0.63521 0.0
H1022 H 0.60926 0.26148 0.64092 0.0
H1023 H 0.46777 0.20035 0.5087 0.0
H1024 H 0.45984 0.22145 0.56455 0.0
H1025 H 0.56945 0.20347 0.60549 0.0
H1026 H 0.57686 0.18153 0.55122 0.0
H1027 H 0.55426 0.24706 0.59764 0.0
H1028 H 0.50378 0.18677 0.65109 0.0
H1029 H 0.46012 0.15852 0.65204 0.0
H1030 H 0.36488 0.19791 0.6549 0.0
H1031 H 0.40801 0.22641 0.6534 0.0
C1032 C 0.53722 0.28991 0.76227 0.0
C1033 C 0.50209 0.29616 0.7765 0.0
C1034 C 0.53901 0.27671 0.73177 0.0
C1035 C 0.5057 0.27011 0.71381 0.0
C1036 C 0.47057 0.2765 0.72815 0.0
C1037 C 0.4688 0.28921 0.75937 0.0
C1038 C 0.50736 0.25633 0.68064 0.0
C1039 C 0.48349 0.23975 0.68013 0.0
C1040 C 0.53272 0.25913 0.64998 0.0
C1041 C 0.556 0.27717 0.64629 0.0
C1042 C 0.53889 0.29588 0.64708 0.0
C1043 C 0.56099 0.31283 0.64399 0.0
C1044 C 0.60023 0.31127 0.63978 0.0
C1045 C 0.61743 0.29274 0.63853 0.0
C1046 C 0.59546 0.27574 0.64165 0.0
C1047 C 0.48982 0.20043 0.52999 0.0
C1048 C 0.52322 0.18932 0.52491 0.0
C1049 C 0.48534 0.21266 0.56177 0.0
C1050 C 0.51428 0.21418 0.58888 0.0
C1051 C 0.54699 0.20268 0.58464 0.0
C1052 C 0.55121 0.19021 0.55336 0.0
C1053 C 0.51129 0.22832 0.62092 0.0
C1054 C 0.53486 0.2449 0.62105 0.0
C1055 C 0.48498 0.22583 0.65059 0.0
C1056 C 0.45911 0.20871 0.65171 0.0
C1057 C 0.47352 0.1894 0.65155 0.0
C1058 C 0.44887 0.17335 0.65227 0.0
C1059 C 0.40975 0.17642 0.65341 0.0
C1060 C 0.39519 0.19555 0.65395 0.0
C1061 C 0.41973 0.21166 0.6532 0.0
H1062 H 0.39071 0.16397 0.65397 0.0
H1063 H 0.61729 0.32441 0.63741 0.0
H1064 H 0.57138 0.82093 0.77282 0.0
H1065 H 0.57186 0.79958 0.82829 0.0
H1066 H 0.57602 0.74849 0.7556 0.0
H1067 H 0.5744 0.76972 0.7 0.0
H1068 H 0.52497 0.74393 0.8115 0.0
H1069 H 0.6549 0.76459 0.80233 0.0
H1070 H 0.70676 0.78871 0.79801 0.0
H1071 H 0.67389 0.81369 0.90488 0.0
H1072 H 0.62149 0.78989 0.90961 0.0
H1073 H 0.56521 0.67409 0.95478 0.0
H1074 H 0.5695 0.69459 0.89807 0.0
H1075 H 0.57318 0.74669 0.96815 0.0
H1076 H 0.56958 0.7263 0.02474 0.0
H1077 H 0.62159 0.75041 0.91272 0.0
H1078 H 0.49105 0.73151 0.9217 0.0
H1079 H 0.43757 0.7084 0.9268 0.0
H1080 H 0.46953 0.68143 0.82141 0.0
H1081 H 0.52353 0.70421 0.81594 0.0
C1082 C 0.57211 0.80517 0.76857 0.0
C1083 C 0.57291 0.79708 0.73185 0.0
C1084 C 0.57278 0.79297 0.80036 0.0
C1085 C 0.57443 0.77242 0.79614 0.0
C1086 C 0.57492 0.7643 0.75956 0.0
C1087 C 0.5743 0.77648 0.72778 0.0
C1088 C 0.57495 0.75937 0.82979 0.0
C1089 C 0.54644 0.74514 0.83336 0.0
C1090 C 0.60236 0.76131 0.85883 0.0
C1091 C 0.63404 0.77556 0.85615 0.0
C1092 C 0.65855 0.77532 0.82478 0.0
C1093 C 0.68808 0.78892 0.82228 0.0
C1094 C 0.69357 0.80276 0.8511 0.0
C1095 C 0.66959 0.80298 0.88255 0.0
C1096 C 0.63999 0.78942 0.88517 0.0
C1097 C 0.56701 0.68992 0.95803 0.0
C1098 C 0.56714 0.69856 0.99424 0.0
C1099 C 0.56937 0.70163 0.92561 0.0
C1100 C 0.57116 0.72225 0.92874 0.0
C1101 C 0.57195 0.73085 0.96492 0.0
C1102 C 0.56997 0.71915 0.99729 0.0
C1103 C 0.57158 0.73493 0.89447 0.0
C1104 C 0.60021 0.74912 0.8908 0.0
C1105 C 0.54408 0.7331 0.86546 0.0
C1106 C 0.51155 0.71943 0.86862 0.0
C1107 C 0.48683 0.72055 0.89976 0.0
C1108 C 0.45641 0.70753 0.90269 0.0
C1109 C 0.45022 0.69342 0.8745 0.0
C1110 C 0.4744 0.69234 0.84326 0.0
C1111 C 0.5049 0.70531 0.84021 0.0
H1112 H 0.42665 0.68335 0.87682 0.0
H1113 H 0.71643 0.81328 0.8491 0.0
H1114 H 0.95287 0.32837 0.49272 0.0
H1115 H 0.9474 0.30574 0.43889 0.0
H1116 H 0.06819 0.29579 0.442 0.0
H1117 H 0.07379 0.31906 0.49466 0.0
H1118 H 0.04872 0.29729 0.3732 0.0
H1119 H 1.00049 0.26236 0.47923 0.0
H1120 H 0.96053 0.25629 0.53515 0.0
H1121 H 0.86073 0.25908 0.46587 0.0
H1122 H 0.90008 0.26545 0.40958 0.0
H1123 H 0.04634 0.20615 0.27152 0.0
H1124 H 0.0474 0.22788 0.32701 0.0
H1125 H 0.9428 0.25466 0.29079 0.0
H1126 H 0.942 0.23325 0.23472 0.0
H1127 H 0.95354 0.2437 0.37596 0.0
H1128 H 0.00809 0.27955 0.26952 0.0
H1129 H 0.05251 0.2825 0.21602 0.0
H1130 H 0.14653 0.274 0.29139 0.0
H1131 H 0.10256 0.2707 0.34527 0.0
C1132 C 0.97822 0.32144 0.48161 0.0
C1133 C 0.01374 0.32547 0.49774 0.0
C1134 C 0.97508 0.30839 0.45106 0.0
C1135 C 0.00728 0.29866 0.43676 0.0
C1136 C 0.04289 0.30305 0.45242 0.0
C1137 C 0.04611 0.31638 0.48247 0.0
C1138 C 1.00394 0.2839 0.40561 0.0
C1139 C 0.02812 0.28549 0.3742 0.0
C1140 C 0.97701 0.26843 0.40648 0.0
C1141 C 0.95322 0.2646 0.44025 0.0
C1142 C 0.97 0.26184 0.47596 0.0
C1143 C 0.94747 0.25832 0.50772 0.0
C1144 C 0.90811 0.25736 0.50409 0.0
C1145 C 0.89122 0.25987 0.46866 0.0
C1146 C 0.91363 0.26342 0.4368 0.0
C1147 C 0.02317 0.21638 0.27577 0.0
C1148 C 0.99401 0.21798 0.24882 0.0
C1149 C 0.02392 0.22882 0.30735 0.0
C1150 C 0.99521 0.24284 0.31285 0.0
C1151 C 0.96515 0.24389 0.28699 0.0
C1152 C 0.96481 0.23173 0.25497 0.0
C1153 C 0.99806 0.25734 0.34406 0.0
C1154 C 0.97393 0.25561 0.37531 0.0
C1155 C 0.02561 0.27237 0.34357 0.0
C1156 C 0.05204 0.27468 0.31132 0.0
C1157 C 0.03821 0.27815 0.27462 0.0
C1158 C 0.06331 0.27991 0.24425 0.0
C1159 C 0.10232 0.27838 0.25029 0.0
C1160 C 0.11631 0.27516 0.28675 0.0
C1161 C 0.09132 0.27335 0.31721 0.0
H1162 H 0.1217 0.27975 0.22673 0.0
H1163 H 0.89071 0.25463 0.52871 0.0
H1164 H 0.54611 0.34112 0.05245 0.0
H1165 H 0.54821 0.31997 0.10826 0.0
H1166 H 0.56209 0.26902 0.03636 0.0
H1167 H 0.55792 0.28981 0.98062 0.0
H1168 H 0.51227 0.26134 0.08783 0.0
H1169 H 0.6367 0.28926 0.0893 0.0
H1170 H 0.68409 0.31584 0.08914 0.0
H1171 H 0.63856 0.33862 0.19317 0.0
H1172 H 0.59056 0.31231 0.19368 0.0
H1173 H 0.57068 0.19476 0.2354 0.0
H1174 H 0.56685 0.21503 0.17854 0.0
H1175 H 0.54211 0.26601 0.24735 0.0
H1176 H 0.54708 0.24585 0.30441 0.0
H1177 H 0.59777 0.27315 0.19688 0.0
H1178 H 0.45721 0.25366 0.16759 0.0
H1179 H 0.40724 0.22856 0.16019 0.0
H1180 H 0.48733 0.189 0.10895 0.0
H1181 H 0.53712 0.21435 0.114 0.0
C1182 C 0.54945 0.32541 0.04849 0.0
C1183 C 0.55209 0.31726 0.01189 0.0
C1184 C 0.55109 0.31334 0.08049 0.0
C1185 C 0.55583 0.29288 0.07662 0.0
C1186 C 0.55859 0.28475 0.04016 0.0
C1187 C 0.55666 0.29675 0.00823 0.0
C1188 C 0.55652 0.2798 0.11032 0.0
C1189 C 0.5314 0.26384 0.11141 0.0
C1190 C 0.58092 0.28311 0.14152 0.0
C1191 C 0.6098 0.29892 0.14133 0.0
C1192 C 0.63661 0.30002 0.11199 0.0
C1193 C 0.66361 0.31503 0.11186 0.0
C1194 C 0.66427 0.32894 0.14107 0.0
C1195 C 0.63798 0.32785 0.17053 0.0
C1196 C 0.61089 0.31288 0.17077 0.0
C1197 C 0.56375 0.21021 0.23834 0.0
C1198 C 0.55924 0.21871 0.27441 0.0
C1199 C 0.56121 0.22178 0.20573 0.0
C1200 C 0.55327 0.24201 0.20845 0.0
C1201 C 0.54806 0.25043 0.24445 0.0
C1202 C 0.55108 0.23892 0.27706 0.0
C1203 C 0.55357 0.25474 0.17425 0.0
C1204 C 0.57881 0.27069 0.17317 0.0
C1205 C 0.5297 0.25131 0.14279 0.0
C1206 C 0.50101 0.23558 0.14228 0.0
C1207 C 0.46417 0.23951 0.15517 0.0
C1208 C 0.43581 0.22534 0.15099 0.0
C1209 C 0.44426 0.20706 0.1348 0.0
C1210 C 0.48092 0.20307 0.12192 0.0
C1211 C 0.50911 0.21739 0.12511 0.0
H1212 H 0.42233 0.19606 0.13191 0.0
H1213 H 0.6852 0.34055 0.14093 0.0
H1214 H 0.02561 0.73204 0.48344 0.0
H1215 H 0.02208 0.75223 0.54069 0.0
H1216 H 0.02262 0.69985 0.60917 0.0
H1217 H 0.02562 0.67946 0.55176 0.0
H1218 H 0.96853 0.7267 0.63211 0.0
H1219 H 0.1007 0.72678 0.60181 0.0
H1220 H 0.15733 0.73137 0.56209 0.0
H1221 H 0.13031 0.79262 0.54952 0.0
H1222 H 0.0731 0.78834 0.58858 0.0
H1223 H 1.00194 0.77549 0.80742 0.0
H1224 H 0.00603 0.754 0.75198 0.0
H1225 H 0.01379 0.80481 0.67966 0.0
H1226 H 0.00974 0.82638 0.73501 0.0
H1227 H 0.06474 0.77787 0.65971 0.0
H1228 H 0.9317 0.77803 0.68663 0.0
H1229 H 0.87483 0.77416 0.72634 0.0
H1230 H 0.90281 0.71342 0.74467 0.0
H1231 H 0.96019 0.717 0.7055 0.0
C1232 C 0.0246 0.72479 0.51066 0.0
C1233 C 0.0257 0.70413 0.51307 0.0
C1234 C 0.02297 0.73636 0.54337 0.0
C1235 C 0.02245 0.72755 0.57921 0.0
C1236 C 0.02312 0.70694 0.58178 0.0
C1237 C 0.02502 0.69533 0.54901 0.0
C1238 C 0.02075 0.73992 0.6139 0.0
C1239 C 0.98986 0.73769 0.63847 0.0
C1240 C 0.04809 0.75461 0.62164 0.0
C1241 C 0.08231 0.75717 0.59777 0.0
C1242 C 0.10657 0.74118 0.59022 0.0
C1243 C 0.13883 0.74374 0.56789 0.0
C1244 C 0.14735 0.76226 0.55319 0.0
C1245 C 0.12364 0.77827 0.56084 0.0
C1246 C 0.09128 0.77579 0.58308 0.0
C1247 C 0.00407 0.7821 0.77971 0.0
C1248 C 0.0054 0.80267 0.77569 0.0
C1249 C 0.00647 0.76979 0.74801 0.0
C1250 C 0.00983 0.77778 0.71159 0.0
C1251 C 0.01129 0.7983 0.70749 0.0
C1252 C 0.00906 0.81062 0.73919 0.0
C1253 C 0.01236 0.76477 0.67778 0.0
C1254 C 0.04342 0.76687 0.65338 0.0
C1255 C 0.98505 0.75006 0.67006 0.0
C1256 C 0.95045 0.74784 0.69344 0.0
C1257 C 0.92589 0.76388 0.69937 0.0
C1258 C 0.89353 0.76174 0.72174 0.0
C1259 C 0.88526 0.74357 0.7381 0.0
C1260 C 0.90928 0.72749 0.73202 0.0
C1261 C 0.94171 0.72957 0.70972 0.0
H1262 H 0.8602 0.74194 0.75541 0.0
H1263 H 0.17237 0.76421 0.53595 0.0
loop_
_geom_bond_atom_site_label_1
_geom_bond_atom_site_label_2
_geom_bond_distance
_geom_bond_site_symmetry_2
_ccdc_geom_bond_type
Co0 N4 2.148 . S
Co0 N10 2.128 . S
Co0 N20 2.194 . S
Co0 O25 2.351 1_455 S
Co0 O26 2.155 1_455 S
Co0 O27 2.096 . S
C1 N4 1.301 . S
C1 N5 1.328 . S
C1 H6 0.930 1_455 S
C2 C3 1.333 . S
C2 N4 1.317 . S
C2 H7 0.930 . S
C3 C2 1.333 . S
C3 N5 1.350 . S
C3 H29 0.931 . S
N4 Co0 2.148 . S
N4 C1 1.301 . S
N4 C2 1.317 . S
N5 C1 1.328 . S
N5 C3 1.350 . S
H6 C1 0.930 1_655 S
H7 C2 0.930 . S
C8 O9 1.224 . S
C8 O27 1.247 . S
O9 C8 1.224 . S
N10 Co0 2.128 . S
N10 C11 1.355 1_455 S
N10 C13 1.311 . S
C11 N10 1.355 1_655 S
C11 C12 1.363 1_655 S
C11 H23 0.929 . S
C12 C11 1.363 1_455 S
C12 N14 1.375 . S
C12 H30 0.931 1_455 S
C13 N10 1.311 . S
C13 N14 1.347 . S
C13 H24 0.929 . S
N14 C12 1.375 . S
N14 C13 1.347 . S
C15 C18 1.365 . S
C15 N20 1.328 1_655 S
C15 H21 0.929 . S
C16 C17 1.362 . S
C16 C19 1.378 . S
C16 H31 0.929 . S
C17 C16 1.362 . S
C17 C18 1.366 1_455 S
C18 C15 1.365 . S
C18 C17 1.366 1_655 S
C18 H32 0.930 . S
C19 C16 1.378 . S
C19 N20 1.315 . S
C19 H22 0.930 . S
N20 Co0 2.194 . S
N20 C15 1.328 1_455 S
N20 C19 1.315 . S
H21 C15 0.929 . S
H22 C19 0.930 . S
H23 C11 0.929 . S
H24 C13 0.929 . S
O25 Co0 2.351 1_655 S
O25 C28 1.244 . S
O26 Co0 2.155 1_655 S
O26 C28 1.240 . S
O27 Co0 2.096 . S
O27 C8 1.247 . S
C28 O25 1.244 . S
C28 O26 1.240 . S
H29 C3 0.931 . S
H30 C12 0.931 1_655 S
H31 C16 0.929 . S
H32 C18 0.930 . S
Co33 N37 2.148 . S
Co33 N43 2.128 . S
Co33 N53 2.194 . S
Co33 O58 2.351 . S
Co33 O59 2.155 . S
Co33 O60 2.096 . S
C34 N37 1.301 . S
C34 N38 1.328 . S
C34 H39 0.930 . S
C35 C36 1.333 . S
C35 N37 1.317 . S
C35 H40 0.930 . S
C36 C35 1.333 . S
C36 N38 1.350 . S
C36 H62 0.931 . S
N37 Co33 2.148 . S
N37 C34 1.301 . S
N37 C35 1.317 . S
N38 C34 1.328 . S
N38 C36 1.350 . S
H39 C34 0.930 . S
H40 C35 0.930 . S
C41 O42 1.224 . S
C41 O60 1.247 . S
O42 C41 1.224 . S
N43 Co33 2.128 . S
N43 C44 1.355 . S
N43 C46 1.311 . S
C44 N43 1.355 . S
C44 C45 1.363 . S
C44 H56 0.929 . S
C45 C44 1.363 . S
C45 N47 1.375 . S
C45 H63 0.931 . S
C46 N43 1.311 . S
C46 N47 1.347 . S
C46 H57 0.929 . S
N47 C45 1.375 . S
N47 C46 1.347 . S
C48 C51 1.365 . S
C48 N53 1.328 . S
C48 H54 0.929 . S
C49 C50 1.362 . S
C49 C52 1.378 . S
C49 H64 0.929 . S
C50 C49 1.362 . S
C50 C51 1.366 . S
C51 C48 1.365 . S
C51 C50 1.366 . S
C51 H65 0.930 . S
C52 C49 1.378 . S
C52 N53 1.315 . S
C52 H55 0.930 . S
N53 Co33 2.194 . S
N53 C48 1.328 . S
N53 C52 1.315 . S
H54 C48 0.929 . S
H55 C52 0.930 . S
H56 C44 0.929 . S
H57 C46 0.929 . S
O58 Co33 2.351 . S
O58 C61 1.244 . S
O59 Co33 2.155 . S
O59 C61 1.240 . S
O60 Co33 2.096 . S
O60 C41 1.247 . S
C61 O58 1.244 . S
C61 O59 1.240 . S
H62 C36 0.931 . S
H63 C45 0.931 . S
H64 C49 0.929 . S
H65 C51 0.930 . S
Co66 N70 2.148 . S
Co66 N76 2.128 . S
Co66 N86 2.194 . S
Co66 O91 2.351 1_455 S
Co66 O92 2.155 1_455 S
Co66 O93 2.096 . S
C67 N70 1.301 . S
C67 N71 1.328 . S
C67 H72 0.930 1_455 S
C68 C69 1.333 . S
C68 N70 1.317 . S
C68 H73 0.930 . S
C69 C68 1.333 . S
C69 N71 1.350 . S
C69 H95 0.931 . S
N70 Co66 2.148 . S
N70 C67 1.301 . S
N70 C68 1.317 . S
N71 C67 1.328 . S
N71 C69 1.350 . S
H72 C67 0.930 1_655 S
H73 C68 0.930 . S
C74 O75 1.224 . S
C74 O93 1.247 . S
O75 C74 1.224 . S
N76 Co66 2.128 . S
N76 C77 1.355 1_455 S
N76 C79 1.311 . S
C77 N76 1.355 1_655 S
C77 C78 1.363 1_655 S
C77 H89 0.929 . S
C78 C77 1.363 1_455 S
C78 N80 1.375 . S
C78 H96 0.931 1_455 S
C79 N76 1.311 . S
C79 N80 1.347 . S
C79 H90 0.929 . S
N80 C78 1.375 . S
N80 C79 1.347 . S
C81 C84 1.365 . S
C81 N86 1.328 1_655 S
C81 H87 0.929 . S
C82 C83 1.362 . S
C82 C85 1.378 . S
C82 H97 0.929 . S
C83 C82 1.362 . S
C83 C84 1.366 1_455 S
C84 C81 1.365 . S
C84 C83 1.366 1_655 S
C84 H98 0.930 . S
C85 C82 1.378 . S
C85 N86 1.315 . S
C85 H88 0.930 . S
N86 Co66 2.194 . S
N86 C81 1.328 1_455 S
N86 C85 1.315 . S
H87 C81 0.929 . S
H88 C85 0.930 . S
H89 C77 0.929 . S
H90 C79 0.929 . S
O91 Co66 2.351 1_655 S
O91 C94 1.244 . S
O92 Co66 2.155 1_655 S
O92 C94 1.240 . S
O93 Co66 2.096 . S
O93 C74 1.247 . S
C94 O91 1.244 . S
C94 O92 1.240 . S
H95 C69 0.931 . S
H96 C78 0.931 1_655 S
H97 C82 0.929 . S
H98 C84 0.930 . S
Co99 N103 2.148 . S
Co99 N109 2.128 . S
Co99 N119 2.194 . S
Co99 O124 2.351 . S
Co99 O125 2.155 . S
Co99 O126 2.096 . S
C100 N103 1.301 . S
C100 N104 1.328 . S
C100 H105 0.930 . S
C101 C102 1.333 . S
C101 N103 1.317 . S
C101 H106 0.930 . S
C102 C101 1.333 . S
C102 N104 1.350 . S
C102 H128 0.931 . S
N103 Co99 2.148 . S
N103 C100 1.301 . S
N103 C101 1.317 . S
N104 C100 1.328 . S
N104 C102 1.350 . S
H105 C100 0.930 . S
H106 C101 0.930 . S
C107 O108 1.224 . S
C107 O126 1.247 . S
O108 C107 1.224 . S
N109 Co99 2.128 . S
N109 C110 1.355 . S
N109 C112 1.311 . S
C110 N109 1.355 . S
C110 C111 1.363 . S
C110 H122 0.929 . S
C111 C110 1.363 . S
C111 N113 1.375 . S
C111 H129 0.931 . S
C112 N109 1.311 . S
C112 N113 1.347 . S
C112 H123 0.929 . S
N113 C111 1.375 . S
N113 C112 1.347 . S
C114 C117 1.365 . S
C114 N119 1.328 . S
C114 H120 0.929 . S
C115 C116 1.362 . S
C115 C118 1.378 . S
C115 H130 0.929 . S
C116 C115 1.362 . S
C116 C117 1.366 . S
C117 C114 1.365 . S
C117 C116 1.366 . S
C117 H131 0.930 . S
C118 C115 1.378 . S
C118 N119 1.315 . S
C118 H121 0.930 . S
N119 Co99 2.194 . S
N119 C114 1.328 . S
N119 C118 1.315 . S
H120 C114 0.929 . S
H121 C118 0.930 . S
H122 C110 0.929 . S
H123 C112 0.929 . S
O124 Co99 2.351 . S
O124 C127 1.244 . S
O125 Co99 2.155 . S
O125 C127 1.240 . S
O126 Co99 2.096 . S
O126 C107 1.247 . S
C127 O124 1.244 . S
C127 O125 1.240 . S
H128 C102 0.931 . S
H129 C111 0.931 . S
H130 C115 0.929 . S
H131 C117 0.930 . S
Co132 N136 2.148 . S
Co132 N142 2.128 . S
Co132 N152 2.194 . S
Co132 O157 2.351 . S
Co132 O158 2.155 . S
Co132 O159 2.096 . S
C133 N136 1.301 . S
C133 N137 1.328 . S
C133 H138 0.930 . S
C134 C135 1.333 . S
C134 N136 1.317 . S
C134 H139 0.930 . S
C135 C134 1.333 . S
C135 N137 1.350 . S
C135 H161 0.931 . S
N136 Co132 2.148 . S
N136 C133 1.301 . S
N136 C134 1.317 . S
N137 C133 1.328 . S
N137 C135 1.350 . S
H138 C133 0.930 . S
H139 C134 0.930 . S
C140 O141 1.224 . S
C140 O159 1.247 . S
O141 C140 1.224 . S
N142 Co132 2.128 . S
N142 C143 1.355 . S
N142 C145 1.311 . S
C143 N142 1.355 . S
C143 C144 1.363 . S
C143 H155 0.929 . S
C144 C143 1.363 . S
C144 N146 1.375 . S
C144 H162 0.931 . S
C145 N142 1.311 . S
C145 N146 1.347 . S
C145 H156 0.929 . S
N146 C144 1.375 . S
N146 C145 1.347 . S
C147 C150 1.365 . S
C147 N152 1.328 . S
C147 H153 0.929 . S
C148 C149 1.362 . S
C148 C151 1.378 . S
C148 H163 0.929 . S
C149 C148 1.362 . S
C149 C150 1.366 . S
C150 C147 1.365 . S
C150 C149 1.366 . S
C150 H164 0.930 . S
C151 C148 1.378 . S
C151 N152 1.315 . S
C151 H154 0.930 . S
N152 Co132 2.194 . S
N152 C147 1.328 . S
N152 C151 1.315 . S
H153 C147 0.929 . S
H154 C151 0.930 . S
H155 C143 0.929 . S
H156 C145 0.929 . S
O157 Co132 2.351 . S
O157 C160 1.244 . S
O158 Co132 2.155 . S
O158 C160 1.240 . S
O159 Co132 2.096 . S
O159 C140 1.247 . S
C160 O157 1.244 . S
C160 O158 1.240 . S
H161 C135 0.931 . S
H162 C144 0.931 . S
H163 C148 0.929 . S
H164 C150 0.930 . S
Co165 N169 2.148 . S
Co165 N175 2.128 . S
Co165 N185 2.194 . S
Co165 O190 2.351 . S
Co165 O191 2.155 . S
Co165 O192 2.096 . S
C166 N169 1.301 . S
C166 N170 1.328 . S
C166 H171 0.930 . S
C167 C168 1.333 . S
C167 N169 1.317 . S
C167 H172 0.930 1_455 S
C168 C167 1.333 . S
C168 N170 1.350 . S
C168 H194 0.931 . S
N169 Co165 2.148 . S
N169 C166 1.301 . S
N169 C167 1.317 . S
N170 C166 1.328 . S
N170 C168 1.350 . S
H171 C166 0.930 . S
H172 C167 0.930 1_655 S
C173 O174 1.224 . S
C173 O192 1.247 1_655 S
O174 C173 1.224 . S
N175 Co165 2.128 . S
N175 C176 1.355 . S
N175 C178 1.311 . S
C176 N175 1.355 . S
C176 C177 1.363 . S
C176 H188 0.929 . S
C177 C176 1.363 . S
C177 N179 1.375 . S
C177 H195 0.931 . S
C178 N175 1.311 . S
C178 N179 1.347 . S
C178 H189 0.929 . S
N179 C177 1.375 . S
N179 C178 1.347 . S
C180 C183 1.365 . S
C180 N185 1.328 . S
C180 H186 0.929 . S
C181 C182 1.362 . S
C181 C184 1.378 . S
C181 H196 0.929 1_455 S
C182 C181 1.362 . S
C182 C183 1.366 . S
C183 C180 1.365 . S
C183 C182 1.366 . S
C183 H197 0.930 . S
C184 C181 1.378 . S
C184 N185 1.315 . S
C184 H187 0.930 1_455 S
N185 Co165 2.194 . S
N185 C180 1.328 . S
N185 C184 1.315 . S
H186 C180 0.929 . S
H187 C184 0.930 1_655 S
H188 C176 0.929 . S
H189 C178 0.929 . S
O190 Co165 2.351 . S
O190 C193 1.244 . S
O191 Co165 2.155 . S
O191 C193 1.240 . S
O192 Co165 2.096 . S
O192 C173 1.247 1_455 S
C193 O190 1.244 . S
C193 O191 1.240 . S
H194 C168 0.931 . S
H195 C177 0.931 . S
H196 C181 0.929 1_655 S
H197 C183 0.930 . S
Co198 N202 2.148 . S
Co198 N208 2.128 . S
Co198 N218 2.194 . S
Co198 O223 2.351 . S
Co198 O224 2.155 . S
Co198 O225 2.096 . S
C199 N202 1.301 . S
C199 N203 1.328 . S
C199 H204 0.930 . S
C200 C201 1.333 . S
C200 N202 1.317 . S
C200 H205 0.930 . S
C201 C200 1.333 . S
C201 N203 1.350 . S
C201 H227 0.931 . S
N202 Co198 2.148 . S
N202 C199 1.301 . S
N202 C200 1.317 . S
N203 C199 1.328 . S
N203 C201 1.350 . S
H204 C199 0.930 . S
H205 C200 0.930 . S
C206 O207 1.224 . S
C206 O225 1.247 . S
O207 C206 1.224 . S
N208 Co198 2.128 . S
N208 C209 1.355 . S
N208 C211 1.311 . S
C209 N208 1.355 . S
C209 C210 1.363 . S
C209 H221 0.929 . S
C210 C209 1.363 . S
C210 N212 1.375 . S
C210 H228 0.931 . S
C211 N208 1.311 . S
C211 N212 1.347 . S
C211 H222 0.929 . S
N212 C210 1.375 . S
N212 C211 1.347 . S
C213 C216 1.365 . S
C213 N218 1.328 . S
C213 H219 0.929 . S
C214 C215 1.362 . S
C214 C217 1.378 . S
C214 H229 0.929 . S
C215 C214 1.362 . S
C215 C216 1.366 . S
C216 C213 1.365 . S
C216 C215 1.366 . S
C216 H230 0.930 . S
C217 C214 1.378 . S
C217 N218 1.315 . S
C217 H220 0.930 . S
N218 Co198 2.194 . S
N218 C213 1.328 . S
N218 C217 1.315 . S
H219 C213 0.929 . S
H220 C217 0.930 . S
H221 C209 0.929 . S
H222 C211 0.929 . S
O223 Co198 2.351 . S
O223 C226 1.244 . S
O224 Co198 2.155 . S
O224 C226 1.240 . S
O225 Co198 2.096 . S
O225 C206 1.247 . S
C226 O223 1.244 . S
C226 O224 1.240 . S
H227 C201 0.931 . S
H228 C210 0.931 . S
H229 C214 0.929 . S
H230 C216 0.930 . S
Co231 N235 2.148 . S
Co231 N241 2.128 . S
Co231 N251 2.194 . S
Co231 O256 2.351 . S
Co231 O257 2.155 . S
Co231 O258 2.096 . S
C232 N235 1.301 . S
C232 N236 1.328 . S
C232 H237 0.930 . S
C233 C234 1.333 . S
C233 N235 1.317 . S
C233 H238 0.930 1_455 S
C234 C233 1.333 . S
C234 N236 1.350 . S
C234 H260 0.931 . S
N235 Co231 2.148 . S
N235 C232 1.301 . S
N235 C233 1.317 . S
N236 C232 1.328 . S
N236 C234 1.350 . S
H237 C232 0.930 . S
H238 C233 0.930 1_655 S
C239 O240 1.224 . S
C239 O258 1.247 1_655 S
O240 C239 1.224 . S
N241 Co231 2.128 . S
N241 C242 1.355 . S
N241 C244 1.311 . S
C242 N241 1.355 . S
C242 C243 1.363 . S
C242 H254 0.929 . S
C243 C242 1.363 . S
C243 N245 1.375 . S
C243 H261 0.931 . S
C244 N241 1.311 . S
C244 N245 1.347 . S
C244 H255 0.929 . S
N245 C243 1.375 . S
N245 C244 1.347 . S
C246 C249 1.365 . S
C246 N251 1.328 . S
C246 H252 0.929 . S
C247 C248 1.362 . S
C247 C250 1.378 . S
C247 H262 0.929 1_455 S
C248 C247 1.362 . S
C248 C249 1.366 . S
C249 C246 1.365 . S
C249 C248 1.366 . S
C249 H263 0.930 . S
C250 C247 1.378 . S
C250 N251 1.315 . S
C250 H253 0.930 1_455 S
N251 Co231 2.194 . S
N251 C246 1.328 . S
N251 C250 1.315 . S
H252 C246 0.929 . S
H253 C250 0.930 1_655 S
H254 C242 0.929 . S
H255 C244 0.929 . S
O256 Co231 2.351 . S
O256 C259 1.244 . S
O257 Co231 2.155 . S
O257 C259 1.240 . S
O258 Co231 2.096 . S
O258 C239 1.247 1_455 S
C259 O256 1.244 . S
C259 O257 1.240 . S
H260 C234 0.931 . S
H261 C243 0.931 . S
H262 C247 0.929 1_655 S
H263 C249 0.930 . S
H264 C282 0.951 . S
H265 C284 0.951 1_554 S
H266 C286 0.946 1_655 S
H267 C287 0.950 1_655 S
H268 C289 0.950 . S
H269 C292 0.950 1_556 S
H270 C293 0.950 . S
H271 C295 0.950 . S
H272 C296 0.950 . S
H273 C297 0.951 1_655 S
H274 C299 0.951 1_656 S
H275 C301 0.950 . S
H276 C302 0.950 . S
H277 C304 0.950 . S
H278 C307 0.950 1_554 S
H279 C308 0.950 . S
H280 C310 0.950 . S
H281 C311 0.950 . S
C282 H264 0.951 . S
C282 C283 1.366 . S
C282 C284 1.388 . S
C283 C282 1.366 . S
C283 C287 1.385 . S
C284 H265 0.951 1_556 S
C284 C282 1.388 . S
C284 C285 1.366 . S
C285 C284 1.366 . S
C285 C286 1.419 . S
C285 C288 1.499 . S
C286 H266 0.946 1_455 S
C286 C285 1.419 . S
C286 C287 1.375 . S
C287 H267 0.950 1_455 S
C287 C283 1.385 . S
C287 C286 1.375 . S
C288 C285 1.499 . S
C288 C289 1.373 . S
C288 C290 1.389 1_456 S
C289 H268 0.950 . S
C289 C288 1.373 . S
C289 C305 1.377 1_565 S
C290 C288 1.389 1_654 S
C290 C291 1.524 . S
C290 C304 1.377 1_565 S
C291 C290 1.524 . S
C291 C292 1.397 . S
C291 C296 1.363 . S
C292 H269 0.950 1_554 S
C292 C291 1.397 . S
C292 C293 1.334 . S
C293 H270 0.950 . S
C293 C292 1.334 . S
C293 C294 1.287 . S
C294 C293 1.287 . S
C294 C295 1.524 . S
C294 H313 0.913 . S
C295 H271 0.950 . S
C295 C294 1.524 . S
C295 C296 1.415 . S
C296 H272 0.950 . S
C296 C291 1.363 . S
C296 C295 1.415 . S
C297 H273 0.951 1_455 S
C297 C298 1.366 . S
C297 C299 1.388 . S
C298 C297 1.366 . S
C298 C302 1.385 . S
C299 H274 0.951 1_454 S
C299 C297 1.388 . S
C299 C300 1.366 . S
C300 C299 1.366 . S
C300 C301 1.414 . S
C300 C303 1.499 . S
C301 H275 0.950 . S
C301 C300 1.414 . S
C301 C302 1.374 . S
C302 H276 0.950 . S
C302 C298 1.385 . S
C302 C301 1.374 . S
C303 C300 1.499 . S
C303 C304 1.373 1_455 S
C303 C305 1.389 1_554 S
C304 H277 0.950 . S
C304 C290 1.377 1_545 S
C304 C303 1.373 1_655 S
C305 C289 1.377 1_545 S
C305 C303 1.389 1_556 S
C305 C306 1.524 . S
C306 C305 1.524 . S
C306 C307 1.397 . S
C306 C311 1.363 . S
C307 H278 0.950 1_556 S
C307 C306 1.397 . S
C307 C308 1.334 . S
C308 H279 0.950 . S
C308 C307 1.334 . S
C308 C309 1.287 . S
C309 C308 1.287 . S
C309 C310 1.524 . S
C309 H312 0.999 . S
C310 H280 0.950 . S
C310 C309 1.524 . S
C310 C311 1.415 . S
C311 H281 0.950 . S
C311 C306 1.363 . S
C311 C310 1.415 . S
H312 C309 0.999 . S
H313 C294 0.913 . S
H314 C332 0.951 . S
H315 C334 0.951 . S
H316 C336 0.950 . S
H317 C337 0.950 . S
H318 C339 0.950 . S
H319 C342 0.950 . S
H320 C343 0.950 . S
H321 C345 0.947 . S
H322 C346 0.950 . S
H323 C347 0.951 . S
H324 C349 0.951 . S
H325 C351 0.950 . S
H326 C352 0.950 . S
H327 C354 0.950 . S
H328 C357 0.950 . S
H329 C358 0.950 . S
H330 C360 0.947 . S
H331 C361 0.950 . S
C332 H314 0.951 . S
C332 C333 1.366 . S
C332 C334 1.388 . S
C333 C332 1.366 . S
C333 C337 1.385 . S
C334 H315 0.951 . S
C334 C332 1.388 . S
C334 C335 1.366 . S
C335 C334 1.366 . S
C335 C336 1.414 . S
C335 C338 1.499 . S
C336 H316 0.950 . S
C336 C335 1.414 . S
C336 C337 1.374 . S
C337 H317 0.950 . S
C337 C333 1.385 . S
C337 C336 1.374 . S
C338 C335 1.499 . S
C338 C339 1.373 . S
C338 C340 1.389 . S
C339 H318 0.950 . S
C339 C338 1.373 . S
C339 C355 1.377 1_545 S
C340 C338 1.389 . S
C340 C341 1.524 . S
C340 C354 1.377 1_545 S
C341 C340 1.524 . S
C341 C342 1.397 . S
C341 C346 1.363 1_545 S
C342 H319 0.950 . S
C342 C341 1.397 . S
C342 C343 1.334 . S
C343 H320 0.950 . S
C343 C342 1.334 . S
C343 C344 1.287 . S
C344 C343 1.287 . S
C344 C345 1.528 1_545 S
C344 H363 0.913 . S
C345 H321 0.947 . S
C345 C344 1.528 1_565 S
C345 C346 1.414 . S
C346 H322 0.950 . S
C346 C341 1.363 1_565 S
C346 C345 1.414 . S
C347 H323 0.951 . S
C347 C348 1.366 . S
C347 C349 1.388 . S
C348 C347 1.366 . S
C348 C352 1.385 . S
C349 H324 0.951 . S
C349 C347 1.388 . S
C349 C350 1.366 . S
C350 C349 1.366 . S
C350 C351 1.414 . S
C350 C353 1.499 . S
C351 H325 0.950 . S
C351 C350 1.414 . S
C351 C352 1.374 . S
C352 H326 0.950 . S
C352 C348 1.385 . S
C352 C351 1.374 . S
C353 C350 1.499 . S
C353 C354 1.373 . S
C353 C355 1.389 . S
C354 H327 0.950 . S
C354 C340 1.377 1_565 S
C354 C353 1.373 . S
C355 C339 1.377 1_565 S
C355 C353 1.389 . S
C355 C356 1.524 . S
C356 C355 1.524 . S
C356 C357 1.397 . S
C356 C361 1.363 1_565 S
C357 H328 0.950 . S
C357 C356 1.397 . S
C357 C358 1.334 . S
C358 H329 0.950 . S
C358 C357 1.334 . S
C358 C359 1.287 . S
C359 C358 1.287 . S
C359 C360 1.528 1_565 S
C359 H362 0.999 . S
C360 H330 0.947 . S
C360 C359 1.528 1_545 S
C360 C361 1.414 . S
C361 H331 0.950 . S
C361 C356 1.363 1_545 S
C361 C360 1.414 . S
H362 C359 0.999 . S
H363 C344 0.913 . S
H364 C382 0.951 . S
H365 C384 0.951 1_556 S
H366 C386 0.950 . S
H367 C387 0.950 . S
H368 C389 0.950 . S
H369 C392 0.952 1_554 S
H370 C393 0.950 1_554 S
H371 C395 0.950 . S
H372 C396 0.950 . S
H373 C397 0.951 . S
H374 C399 0.951 1_554 S
H375 C401 0.950 . S
H376 C402 0.950 . S
H377 C404 0.950 . S
H378 C407 0.952 1_556 S
H379 C408 0.950 1_556 S
H380 C410 0.950 . S
H381 C411 0.950 . S
C382 H364 0.951 . S
C382 C383 1.366 . S
C382 C384 1.388 . S
C383 C382 1.366 . S
C383 C387 1.385 . S
C384 H365 0.951 1_554 S
C384 C382 1.388 . S
C384 C385 1.366 . S
C385 C384 1.366 . S
C385 C386 1.414 . S
C385 C388 1.499 . S
C386 H366 0.950 . S
C386 C385 1.414 . S
C386 C387 1.374 . S
C387 H367 0.950 . S
C387 C383 1.385 . S
C387 C386 1.374 . S
C388 C385 1.499 . S
C388 C389 1.373 . S
C388 C390 1.389 1_554 S
C389 H368 0.950 . S
C389 C388 1.373 . S
C389 C405 1.377 . S
C390 C388 1.389 1_556 S
C390 C391 1.524 . S
C390 C404 1.377 . S
C391 C390 1.524 . S
C391 C392 1.395 . S
C391 C396 1.363 . S
C392 H369 0.952 1_556 S
C392 C391 1.395 . S
C392 C393 1.333 . S
C393 H370 0.950 1_556 S
C393 C392 1.333 . S
C393 C394 1.287 . S
C394 C393 1.287 . S
C394 C395 1.524 . S
C394 H413 0.913 . S
C395 H371 0.950 . S
C395 C394 1.524 . S
C395 C396 1.415 . S
C396 H372 0.950 . S
C396 C391 1.363 . S
C396 C395 1.415 . S
C397 H373 0.951 . S
C397 C398 1.366 . S
C397 C399 1.388 . S
C398 C397 1.366 . S
C398 C402 1.385 . S
C399 H374 0.951 1_556 S
C399 C397 1.388 . S
C399 C400 1.366 . S
C400 C399 1.366 . S
C400 C401 1.414 . S
C400 C403 1.499 . S
C401 H375 0.950 . S
C401 C400 1.414 . S
C401 C402 1.374 . S
C402 H376 0.950 . S
C402 C398 1.385 . S
C402 C401 1.374 . S
C403 C400 1.499 . S
C403 C404 1.373 . S
C403 C405 1.389 1_556 S
C404 H377 0.950 . S
C404 C390 1.377 . S
C404 C403 1.373 . S
C405 C389 1.377 . S
C405 C403 1.389 1_554 S
C405 C406 1.524 . S
C406 C405 1.524 . S
C406 C407 1.395 . S
C406 C411 1.363 . S
C407 H378 0.952 1_554 S
C407 C406 1.395 . S
C407 C408 1.333 . S
C408 H379 0.950 1_554 S
C408 C407 1.333 . S
C408 C409 1.287 . S
C409 C408 1.287 . S
C409 C410 1.524 . S
C409 H412 0.999 . S
C410 H380 0.950 . S
C410 C409 1.524 . S
C410 C411 1.415 . S
C411 H381 0.950 . S
C411 C406 1.363 . S
C411 C410 1.415 . S
H412 C409 0.999 . S
H413 C394 0.913 . S
H414 C432 0.951 . S
H415 C434 0.951 . S
H416 C436 0.950 . S
H417 C437 0.950 . S
H418 C439 0.950 . S
H419 C442 0.950 . S
H420 C443 0.950 . S
H421 C445 0.950 . S
H422 C446 0.950 . S
H423 C447 0.951 . S
H424 C449 0.951 . S
H425 C451 0.950 . S
H426 C452 0.950 . S
H427 C454 0.950 . S
H428 C457 0.950 1_455 S
H429 C458 0.950 . S
H430 C460 0.950 . S
H431 C461 0.950 . S
C432 H414 0.951 . S
C432 C433 1.366 . S
C432 C434 1.388 . S
C433 C432 1.366 . S
C433 C437 1.385 . S
C434 H415 0.951 . S
C434 C432 1.388 . S
C434 C435 1.366 . S
C435 C434 1.366 . S
C435 C436 1.414 . S
C435 C438 1.499 . S
C436 H416 0.950 . S
C436 C435 1.414 . S
C436 C437 1.374 . S
C437 H417 0.950 . S
C437 C433 1.385 . S
C437 C436 1.374 . S
C438 C435 1.499 . S
C438 C439 1.373 . S
C438 C440 1.389 . S
C439 H418 0.950 . S
C439 C438 1.373 . S
C439 C455 1.377 . S
C440 C438 1.389 . S
C440 C441 1.524 . S
C440 C454 1.377 . S
C441 C440 1.524 . S
C441 C442 1.397 . S
C441 C446 1.363 . S
C442 H419 0.950 . S
C442 C441 1.397 . S
C442 C443 1.334 . S
C443 H420 0.950 . S
C443 C442 1.334 . S
C443 C444 1.287 . S
C444 C443 1.287 . S
C444 C445 1.524 . S
C444 H463 0.913 . S
C445 H421 0.950 . S
C445 C444 1.524 . S
C445 C446 1.415 . S
C446 H422 0.950 . S
C446 C441 1.363 . S
C446 C445 1.415 . S
C447 H423 0.951 . S
C447 C448 1.366 . S
C447 C449 1.388 . S
C448 C447 1.366 . S
C448 C452 1.385 . S
C449 H424 0.951 . S
C449 C447 1.388 . S
C449 C450 1.366 . S
C450 C449 1.366 . S
C450 C451 1.414 . S
C450 C453 1.499 . S
C451 H425 0.950 . S
C451 C450 1.414 . S
C451 C452 1.374 . S
C452 H426 0.950 . S
C452 C448 1.385 . S
C452 C451 1.374 . S
C453 C450 1.499 . S
C453 C454 1.373 . S
C453 C455 1.389 . S
C454 H427 0.950 . S
C454 C440 1.377 . S
C454 C453 1.373 . S
C455 C439 1.377 . S
C455 C453 1.389 . S
C455 C456 1.524 1_455 S
C456 C455 1.524 1_655 S
C456 C457 1.397 . S
C456 C461 1.363 . S
C457 H428 0.950 1_655 S
C457 C456 1.397 . S
C457 C458 1.334 . S
C458 H429 0.950 . S
C458 C457 1.334 . S
C458 C459 1.287 . S
C459 C458 1.287 . S
C459 C460 1.524 . S
C459 H462 0.999 . S
C460 H430 0.950 . S
C460 C459 1.524 . S
C460 C461 1.415 . S
C461 H431 0.950 . S
C461 C456 1.363 . S
C461 C460 1.415 . S
H462 C459 0.999 . S
H463 C444 0.913 . S
H464 C482 0.951 . S
H465 C484 0.951 . S
H466 C486 0.950 . S
H467 C487 0.950 . S
H468 C489 0.950 . S
H469 C492 0.950 . S
H470 C493 0.950 . S
H471 C495 0.950 . S
H472 C496 0.950 . S
H473 C497 0.951 . S
H474 C499 0.951 . S
H475 C501 0.950 . S
H476 C502 0.950 . S
H477 C504 0.950 . S
H478 C507 0.950 . S
H479 C508 0.950 . S
H480 C510 0.950 . S
H481 C511 0.950 . S
C482 H464 0.951 . S
C482 C483 1.366 . S
C482 C484 1.388 . S
C483 C482 1.366 . S
C483 C487 1.385 . S
C484 H465 0.951 . S
C484 C482 1.388 . S
C484 C485 1.366 . S
C485 C484 1.366 . S
C485 C486 1.414 . S
C485 C488 1.499 . S
C486 H466 0.950 . S
C486 C485 1.414 . S
C486 C487 1.374 . S
C487 H467 0.950 . S
C487 C483 1.385 . S
C487 C486 1.374 . S
C488 C485 1.499 . S
C488 C489 1.373 . S
C488 C490 1.389 . S
C489 H468 0.950 . S
C489 C488 1.373 . S
C489 C505 1.377 . S
C490 C488 1.389 . S
C490 C491 1.524 . S
C490 C504 1.377 . S
C491 C490 1.524 . S
C491 C492 1.397 . S
C491 C496 1.363 . S
C492 H469 0.950 . S
C492 C491 1.397 . S
C492 C493 1.334 . S
C493 H470 0.950 . S
C493 C492 1.334 . S
C493 C494 1.287 . S
C494 C493 1.287 . S
C494 C495 1.524 . S
C494 H513 0.913 . S
C495 H471 0.950 . S
C495 C494 1.524 . S
C495 C496 1.415 . S
C496 H472 0.950 . S
C496 C491 1.363 . S
C496 C495 1.415 . S
C497 H473 0.951 . S
C497 C498 1.366 . S
C497 C499 1.388 . S
C498 C497 1.366 . S
C498 C502 1.385 . S
C499 H474 0.951 . S
C499 C497 1.388 . S
C499 C500 1.366 . S
C500 C499 1.366 . S
C500 C501 1.414 . S
C500 C503 1.499 . S
C501 H475 0.950 . S
C501 C500 1.414 . S
C501 C502 1.374 . S
C502 H476 0.950 . S
C502 C498 1.385 . S
C502 C501 1.374 . S
C503 C500 1.499 . S
C503 C504 1.373 . S
C503 C505 1.389 . S
C504 H477 0.950 . S
C504 C490 1.377 . S
C504 C503 1.373 . S
C505 C489 1.377 . S
C505 C503 1.389 . S
C505 C506 1.524 . S
C506 C505 1.524 . S
C506 C507 1.397 . S
C506 C511 1.363 . S
C507 H478 0.950 . S
C507 C506 1.397 . S
C507 C508 1.334 . S
C508 H479 0.950 . S
C508 C507 1.334 . S
C508 C509 1.287 . S
C509 C508 1.287 . S
C509 C510 1.524 . S
C509 H512 0.999 . S
C510 H480 0.950 . S
C510 C509 1.524 . S
C510 C511 1.415 . S
C511 H481 0.950 . S
C511 C506 1.363 . S
C511 C510 1.415 . S
H512 C509 0.999 . S
H513 C494 0.913 . S
H514 C532 0.951 . S
H515 C534 0.951 . S
H516 C536 0.950 . S
H517 C537 0.950 . S
H518 C539 0.950 . S
H519 C542 0.950 . S
H520 C543 0.950 . S
H521 C545 0.950 . S
H522 C546 0.950 . S
H523 C547 0.951 . S
H524 C549 0.951 . S
H525 C551 0.950 . S
H526 C552 0.950 . S
H527 C554 0.950 . S
H528 C557 0.950 . S
H529 C558 0.950 . S
H530 C560 0.950 . S
H531 C561 0.950 . S
C532 H514 0.951 . S
C532 C533 1.366 . S
C532 C534 1.388 . S
C533 C532 1.366 . S
C533 C537 1.385 . S
C534 H515 0.951 . S
C534 C532 1.388 . S
C534 C535 1.366 . S
C535 C534 1.366 . S
C535 C536 1.414 . S
C535 C538 1.499 . S
C536 H516 0.950 . S
C536 C535 1.414 . S
C536 C537 1.374 . S
C537 H517 0.950 . S
C537 C533 1.385 . S
C537 C536 1.374 . S
C538 C535 1.499 . S
C538 C539 1.373 . S
C538 C540 1.389 . S
C539 H518 0.950 . S
C539 C538 1.373 . S
C539 C555 1.377 . S
C540 C538 1.389 . S
C540 C541 1.524 . S
C540 C554 1.377 . S
C541 C540 1.524 . S
C541 C542 1.397 . S
C541 C546 1.363 . S
C542 H519 0.950 . S
C542 C541 1.397 . S
C542 C543 1.334 . S
C543 H520 0.950 . S
C543 C542 1.334 . S
C543 C544 1.287 . S
C544 C543 1.287 . S
C544 C545 1.524 . S
C544 H563 0.913 . S
C545 H521 0.950 . S
C545 C544 1.524 . S
C545 C546 1.415 . S
C546 H522 0.950 . S
C546 C541 1.363 . S
C546 C545 1.415 . S
C547 H523 0.951 . S
C547 C548 1.366 . S
C547 C549 1.388 . S
C548 C547 1.366 . S
C548 C552 1.385 . S
C549 H524 0.951 . S
C549 C547 1.388 . S
C549 C550 1.366 . S
C550 C549 1.366 . S
C550 C551 1.414 . S
C550 C553 1.499 . S
C551 H525 0.950 . S
C551 C550 1.414 . S
C551 C552 1.374 . S
C552 H526 0.950 . S
C552 C548 1.385 . S
C552 C551 1.374 . S
C553 C550 1.499 . S
C553 C554 1.373 . S
C553 C555 1.389 . S
C554 H527 0.950 . S
C554 C540 1.377 . S
C554 C553 1.373 . S
C555 C539 1.377 . S
C555 C553 1.389 . S
C555 C556 1.524 . S
C556 C555 1.524 . S
C556 C557 1.397 . S
C556 C561 1.363 . S
C557 H528 0.950 . S
C557 C556 1.397 . S
C557 C558 1.334 . S
C558 H529 0.950 . S
C558 C557 1.334 . S
C558 C559 1.287 . S
C559 C558 1.287 . S
C559 C560 1.524 . S
C559 H562 0.999 . S
C560 H530 0.950 . S
C560 C559 1.524 . S
C560 C561 1.415 . S
C561 H531 0.950 . S
C561 C556 1.363 . S
C561 C560 1.415 . S
H562 C559 0.999 . S
H563 C544 0.913 . S
H564 C582 0.951 . S
H565 C584 0.951 . S
H566 C586 0.950 . S
H567 C587 0.950 . S
H568 C589 0.950 . S
H569 C592 0.950 . S
H570 C593 0.950 . S
H571 C595 0.950 . S
H572 C596 0.950 . S
H573 C597 0.951 . S
H574 C599 0.951 . S
H575 C601 0.950 . S
H576 C602 0.950 . S
H577 C604 0.950 . S
H578 C607 0.950 . S
H579 C608 0.950 . S
H580 C610 0.950 . S
H581 C611 0.950 . S
C582 H564 0.951 . S
C582 C583 1.366 . S
C582 C584 1.388 . S
C583 C582 1.366 . S
C583 C587 1.385 . S
C584 H565 0.951 . S
C584 C582 1.388 . S
C584 C585 1.366 . S
C585 C584 1.366 . S
C585 C586 1.414 . S
C585 C588 1.499 . S
C586 H566 0.950 . S
C586 C585 1.414 . S
C586 C587 1.374 . S
C587 H567 0.950 . S
C587 C583 1.385 . S
C587 C586 1.374 . S
C588 C585 1.499 . S
C588 C589 1.373 . S
C588 C590 1.389 . S
C589 H568 0.950 . S
C589 C588 1.373 . S
C589 C605 1.377 . S
C590 C588 1.389 . S
C590 C591 1.524 . S
C590 C604 1.377 . S
C591 C590 1.524 . S
C591 C592 1.397 . S
C591 C596 1.363 . S
C592 H569 0.950 . S
C592 C591 1.397 . S
C592 C593 1.334 . S
C593 H570 0.950 . S
C593 C592 1.334 . S
C593 C594 1.287 . S
C594 C593 1.287 . S
C594 C595 1.524 . S
C594 H613 0.913 . S
C595 H571 0.950 . S
C595 C594 1.524 . S
C595 C596 1.415 . S
C596 H572 0.950 . S
C596 C591 1.363 . S
C596 C595 1.415 . S
C597 H573 0.951 . S
C597 C598 1.366 . S
C597 C599 1.388 . S
C598 C597 1.366 . S
C598 C602 1.385 . S
C599 H574 0.951 . S
C599 C597 1.388 . S
C599 C600 1.366 . S
C600 C599 1.366 . S
C600 C601 1.414 . S
C600 C603 1.499 . S
C601 H575 0.950 . S
C601 C600 1.414 . S
C601 C602 1.374 . S
C602 H576 0.950 . S
C602 C598 1.385 . S
C602 C601 1.374 . S
C603 C600 1.499 . S
C603 C604 1.373 . S
C603 C605 1.389 . S
C604 H577 0.950 . S
C604 C590 1.377 . S
C604 C603 1.373 . S
C605 C589 1.377 . S
C605 C603 1.389 . S
C605 C606 1.524 . S
C606 C605 1.524 . S
C606 C607 1.397 . S
C606 C611 1.363 . S
C607 H578 0.950 . S
C607 C606 1.397 . S
C607 C608 1.334 . S
C608 H579 0.950 . S
C608 C607 1.334 . S
C608 C609 1.287 . S
C609 C608 1.287 . S
C609 C610 1.524 . S
C609 H612 0.999 . S
C610 H580 0.950 . S
C610 C609 1.524 . S
C610 C611 1.415 . S
C611 H581 0.950 . S
C611 C606 1.363 . S
C611 C610 1.415 . S
H612 C609 0.999 . S
H613 C594 0.913 . S
H614 C632 0.951 . S
H615 C634 0.951 . S
H616 C636 0.950 . S
H617 C637 0.950 . S
H618 C639 0.950 . S
H619 C642 0.950 . S
H620 C643 0.950 . S
H621 C645 0.950 . S
H622 C646 0.950 . S
H623 C647 0.951 . S
H624 C649 0.951 . S
H625 C651 0.950 . S
H626 C652 0.950 . S
H627 C654 0.950 . S
H628 C657 0.950 . S
H629 C658 0.950 . S
H630 C660 0.950 . S
H631 C661 0.950 . S
C632 H614 0.951 . S
C632 C633 1.366 . S
C632 C634 1.388 . S
C633 C632 1.366 . S
C633 C637 1.385 . S
C634 H615 0.951 . S
C634 C632 1.388 . S
C634 C635 1.366 . S
C635 C634 1.366 . S
C635 C636 1.414 . S
C635 C638 1.499 . S
C636 H616 0.950 . S
C636 C635 1.414 . S
C636 C637 1.374 . S
C637 H617 0.950 . S
C637 C633 1.385 . S
C637 C636 1.374 . S
C638 C635 1.499 . S
C638 C639 1.373 . S
C638 C640 1.389 . S
C639 H618 0.950 . S
C639 C638 1.373 . S
C639 C655 1.377 . S
C640 C638 1.389 . S
C640 C641 1.524 . S
C640 C654 1.377 . S
C641 C640 1.524 . S
C641 C642 1.397 . S
C641 C646 1.363 . S
C642 H619 0.950 . S
C642 C641 1.397 . S
C642 C643 1.334 . S
C643 H620 0.950 . S
C643 C642 1.334 . S
C643 C644 1.287 . S
C644 C643 1.287 . S
C644 C645 1.524 . S
C644 H663 0.913 . S
C645 H621 0.950 . S
C645 C644 1.524 . S
C645 C646 1.415 . S
C646 H622 0.950 . S
C646 C641 1.363 . S
C646 C645 1.415 . S
C647 H623 0.951 . S
C647 C648 1.366 . S
C647 C649 1.388 . S
C648 C647 1.366 . S
C648 C652 1.385 . S
C649 H624 0.951 . S
C649 C647 1.388 . S
C649 C650 1.366 . S
C650 C649 1.366 . S
C650 C651 1.414 . S
C650 C653 1.499 . S
C651 H625 0.950 . S
C651 C650 1.414 . S
C651 C652 1.374 . S
C652 H626 0.950 . S
C652 C648 1.385 . S
C652 C651 1.374 . S
C653 C650 1.499 . S
C653 C654 1.373 . S
C653 C655 1.389 . S
C654 H627 0.950 . S
C654 C640 1.377 . S
C654 C653 1.373 . S
C655 C639 1.377 . S
C655 C653 1.389 . S
C655 C656 1.524 . S
C656 C655 1.524 . S
C656 C657 1.397 . S
C656 C661 1.363 . S
C657 H628 0.950 . S
C657 C656 1.397 . S
C657 C658 1.334 . S
C658 H629 0.950 . S
C658 C657 1.334 . S
C658 C659 1.287 . S
C659 C658 1.287 . S
C659 C660 1.524 . S
C659 H662 0.999 . S
C660 H630 0.950 . S
C660 C659 1.524 . S
C660 C661 1.415 . S
C661 H631 0.950 . S
C661 C656 1.363 . S
C661 C660 1.415 . S
H662 C659 0.999 . S
H663 C644 0.913 . S
H664 C682 0.951 . S
H665 C684 0.951 . S
H666 C686 0.950 . S
H667 C687 0.950 . S
H668 C689 0.950 . S
H669 C692 0.950 . S
H670 C693 0.950 . S
H671 C695 0.950 . S
H672 C696 0.950 . S
H673 C697 0.951 . S
H674 C699 0.951 . S
H675 C701 0.950 . S
H676 C702 0.950 . S
H677 C704 0.950 . S
H678 C707 0.950 . S
H679 C708 0.950 . S
H680 C710 0.950 . S
H681 C711 0.950 . S
C682 H664 0.951 . S
C682 C683 1.366 . S
C682 C684 1.388 . S
C683 C682 1.366 . S
C683 C687 1.385 . S
C684 H665 0.951 . S
C684 C682 1.388 . S
C684 C685 1.366 . S
C685 C684 1.366 . S
C685 C686 1.414 . S
C685 C688 1.499 . S
C686 H666 0.950 . S
C686 C685 1.414 . S
C686 C687 1.374 . S
C687 H667 0.950 . S
C687 C683 1.385 . S
C687 C686 1.374 . S
C688 C685 1.499 . S
C688 C689 1.373 . S
C688 C690 1.389 . S
C689 H668 0.950 . S
C689 C688 1.373 . S
C689 C705 1.377 . S
C690 C688 1.389 . S
C690 C691 1.524 . S
C690 C704 1.377 . S
C691 C690 1.524 . S
C691 C692 1.397 . S
C691 C696 1.363 . S
C692 H669 0.950 . S
C692 C691 1.397 . S
C692 C693 1.334 . S
C693 H670 0.950 . S
C693 C692 1.334 . S
C693 C694 1.287 . S
C694 C693 1.287 . S
C694 C695 1.524 . S
C694 H713 0.913 . S
C695 H671 0.950 . S
C695 C694 1.524 . S
C695 C696 1.415 . S
C696 H672 0.950 . S
C696 C691 1.363 . S
C696 C695 1.415 . S
C697 H673 0.951 . S
C697 C698 1.366 . S
C697 C699 1.388 . S
C698 C697 1.366 . S
C698 C702 1.385 . S
C699 H674 0.951 . S
C699 C697 1.388 . S
C699 C700 1.366 . S
C700 C699 1.366 . S
C700 C701 1.414 . S
C700 C703 1.499 . S
C701 H675 0.950 . S
C701 C700 1.414 . S
C701 C702 1.374 . S
C702 H676 0.950 . S
C702 C698 1.385 . S
C702 C701 1.374 . S
C703 C700 1.499 . S
C703 C704 1.373 . S
C703 C705 1.389 . S
C704 H677 0.950 . S
C704 C690 1.377 . S
C704 C703 1.373 . S
C705 C689 1.377 . S
C705 C703 1.389 . S
C705 C706 1.524 . S
C706 C705 1.524 . S
C706 C707 1.397 . S
C706 C711 1.363 . S
C707 H678 0.950 . S
C707 C706 1.397 . S
C707 C708 1.334 . S
C708 H679 0.950 . S
C708 C707 1.334 . S
C708 C709 1.287 . S
C709 C708 1.287 . S
C709 C710 1.524 . S
C709 H712 0.999 . S
C710 H680 0.950 . S
C710 C709 1.524 . S
C710 C711 1.415 . S
C711 H681 0.950 . S
C711 C706 1.363 . S
C711 C710 1.415 . S
H712 C709 0.999 . S
H713 C694 0.913 . S
H714 C732 0.951 . S
H715 C734 0.951 . S
H716 C736 0.950 . S
H717 C737 0.950 . S
H718 C739 0.950 . S
H719 C742 0.950 . S
H720 C743 0.950 . S
H721 C745 0.950 . S
H722 C746 0.950 . S
H723 C747 0.951 . S
H724 C749 0.951 . S
H725 C751 0.950 . S
H726 C752 0.950 . S
H727 C754 0.950 . S
H728 C757 0.950 . S
H729 C758 0.950 . S
H730 C760 0.950 . S
H731 C761 0.950 . S
C732 H714 0.951 . S
C732 C733 1.366 . S
C732 C734 1.388 . S
C733 C732 1.366 . S
C733 C737 1.385 . S
C734 H715 0.951 . S
C734 C732 1.388 . S
C734 C735 1.366 . S
C735 C734 1.366 . S
C735 C736 1.414 . S
C735 C738 1.499 . S
C736 H716 0.950 . S
C736 C735 1.414 . S
C736 C737 1.374 . S
C737 H717 0.950 . S
C737 C733 1.385 . S
C737 C736 1.374 . S
C738 C735 1.499 . S
C738 C739 1.373 . S
C738 C740 1.389 . S
C739 H718 0.950 . S
C739 C738 1.373 . S
C739 C755 1.377 . S
C740 C738 1.389 . S
C740 C741 1.524 . S
C740 C754 1.377 . S
C741 C740 1.524 . S
C741 C742 1.397 . S
C741 C746 1.363 . S
C742 H719 0.950 . S
C742 C741 1.397 . S
C742 C743 1.334 . S
C743 H720 0.950 . S
C743 C742 1.334 . S
C743 C744 1.287 . S
C744 C743 1.287 . S
C744 C745 1.524 . S
C744 H763 0.913 . S
C745 H721 0.950 . S
C745 C744 1.524 . S
C745 C746 1.415 . S
C746 H722 0.950 . S
C746 C741 1.363 . S
C746 C745 1.415 . S
C747 H723 0.951 . S
C747 C748 1.366 . S
C747 C749 1.388 . S
C748 C747 1.366 . S
C748 C752 1.385 . S
C749 H724 0.951 . S
C749 C747 1.388 . S
C749 C750 1.366 . S
C750 C749 1.366 . S
C750 C751 1.414 . S
C750 C753 1.499 . S
C751 H725 0.950 . S
C751 C750 1.414 . S
C751 C752 1.374 . S
C752 H726 0.950 . S
C752 C748 1.385 . S
C752 C751 1.374 . S
C753 C750 1.499 . S
C753 C754 1.373 . S
C753 C755 1.389 . S
C754 H727 0.950 . S
C754 C740 1.377 . S
C754 C753 1.373 . S
C755 C739 1.377 . S
C755 C753 1.389 . S
C755 C756 1.524 . S
C756 C755 1.524 . S
C756 C757 1.397 . S
C756 C761 1.363 . S
C757 H728 0.950 . S
C757 C756 1.397 . S
C757 C758 1.334 . S
C758 H729 0.950 . S
C758 C757 1.334 . S
C758 C759 1.287 . S
C759 C758 1.287 . S
C759 C760 1.524 . S
C759 H762 0.999 . S
C760 H730 0.950 . S
C760 C759 1.524 . S
C760 C761 1.415 . S
C761 H731 0.950 . S
C761 C756 1.363 . S
C761 C760 1.415 . S
H762 C759 0.999 . S
H763 C744 0.913 . S
H764 C782 0.951 . S
H765 C784 0.951 . S
H766 C786 0.950 . S
H767 C787 0.950 . S
H768 C789 0.950 . S
H769 C792 0.950 . S
H770 C793 0.950 . S
H771 C795 0.950 . S
H772 C796 0.950 . S
H773 C797 0.951 . S
H774 C799 0.951 . S
H775 C801 0.950 . S
H776 C802 0.950 . S
H777 C804 0.950 . S
H778 C807 0.950 . S
H779 C808 0.950 . S
H780 C810 0.950 . S
H781 C811 0.950 . S
C782 H764 0.951 . S
C782 C783 1.366 . S
C782 C784 1.388 . S
C783 C782 1.366 . S
C783 C787 1.385 . S
C784 H765 0.951 . S
C784 C782 1.388 . S
C784 C785 1.366 . S
C785 C784 1.366 . S
C785 C786 1.414 . S
C785 C788 1.499 . S
C786 H766 0.950 . S
C786 C785 1.414 . S
C786 C787 1.374 . S
C787 H767 0.950 . S
C787 C783 1.385 . S
C787 C786 1.374 . S
C788 C785 1.499 . S
C788 C789 1.373 . S
C788 C790 1.389 . S
C789 H768 0.950 . S
C789 C788 1.373 . S
C789 C805 1.377 . S
C790 C788 1.389 . S
C790 C791 1.524 . S
C790 C804 1.377 . S
C791 C790 1.524 . S
C791 C792 1.397 . S
C791 C796 1.363 . S
C792 H769 0.950 . S
C792 C791 1.397 . S
C792 C793 1.334 . S
C793 H770 0.950 . S
C793 C792 1.334 . S
C793 C794 1.287 . S
C794 C793 1.287 . S
C794 C795 1.524 . S
C794 H813 0.913 . S
C795 H771 0.950 . S
C795 C794 1.524 . S
C795 C796 1.415 . S
C796 H772 0.950 . S
C796 C791 1.363 . S
C796 C795 1.415 . S
C797 H773 0.951 . S
C797 C798 1.366 . S
C797 C799 1.388 . S
C798 C797 1.366 . S
C798 C802 1.385 . S
C799 H774 0.951 . S
C799 C797 1.388 . S
C799 C800 1.366 . S
C800 C799 1.366 . S
C800 C801 1.414 . S
C800 C803 1.499 . S
C801 H775 0.950 . S
C801 C800 1.414 . S
C801 C802 1.374 . S
C802 H776 0.950 . S
C802 C798 1.385 . S
C802 C801 1.374 . S
C803 C800 1.499 . S
C803 C804 1.373 . S
C803 C805 1.389 . S
C804 H777 0.950 . S
C804 C790 1.377 . S
C804 C803 1.373 . S
C805 C789 1.377 . S
C805 C803 1.389 . S
C805 C806 1.524 . S
C806 C805 1.524 . S
C806 C807 1.397 . S
C806 C811 1.363 . S
C807 H778 0.950 . S
C807 C806 1.397 . S
C807 C808 1.334 . S
C808 H779 0.950 . S
C808 C807 1.334 . S
C808 C809 1.287 . S
C809 C808 1.287 . S
C809 C810 1.524 . S
C809 H812 0.999 . S
C810 H780 0.950 . S
C810 C809 1.524 . S
C810 C811 1.415 . S
C811 H781 0.950 . S
C811 C806 1.363 . S
C811 C810 1.415 . S
H812 C809 0.999 . S
H813 C794 0.913 . S
H814 C832 0.951 . S
H815 C834 0.951 . S
H816 C836 0.950 . S
H817 C837 0.950 . S
H818 C839 0.950 . S
H819 C842 0.950 . S
H820 C843 0.950 . S
H821 C845 0.950 . S
H822 C846 0.950 . S
H823 C847 0.951 . S
H824 C849 0.951 . S
H825 C851 0.950 . S
H826 C852 0.950 . S
H827 C854 0.950 . S
H828 C857 0.950 . S
H829 C858 0.950 . S
H830 C860 0.950 . S
H831 C861 0.950 . S
C832 H814 0.951 . S
C832 C833 1.366 . S
C832 C834 1.388 . S
C833 C832 1.366 . S
C833 C837 1.385 . S
C834 H815 0.951 . S
C834 C832 1.388 . S
C834 C835 1.366 . S
C835 C834 1.366 . S
C835 C836 1.414 . S
C835 C838 1.499 . S
C836 H816 0.950 . S
C836 C835 1.414 . S
C836 C837 1.374 . S
C837 H817 0.950 . S
C837 C833 1.385 . S
C837 C836 1.374 . S
C838 C835 1.499 . S
C838 C839 1.373 . S
C838 C840 1.389 . S
C839 H818 0.950 . S
C839 C838 1.373 . S
C839 C855 1.377 . S
C840 C838 1.389 . S
C840 C841 1.524 . S
C840 C854 1.377 . S
C841 C840 1.524 . S
C841 C842 1.397 . S
C841 C846 1.363 . S
C842 H819 0.950 . S
C842 C841 1.397 . S
C842 C843 1.334 . S
C843 H820 0.950 . S
C843 C842 1.334 . S
C843 C844 1.287 . S
C844 C843 1.287 . S
C844 C845 1.524 . S
C844 H863 0.913 . S
C845 H821 0.950 . S
C845 C844 1.524 . S
C845 C846 1.415 . S
C846 H822 0.950 . S
C846 C841 1.363 . S
C846 C845 1.415 . S
C847 H823 0.951 . S
C847 C848 1.366 . S
C847 C849 1.388 . S
C848 C847 1.366 . S
C848 C852 1.385 . S
C849 H824 0.951 . S
C849 C847 1.388 . S
C849 C850 1.366 . S
C850 C849 1.366 . S
C850 C851 1.414 . S
C850 C853 1.499 . S
C851 H825 0.950 . S
C851 C850 1.414 . S
C851 C852 1.374 . S
C852 H826 0.950 . S
C852 C848 1.385 . S
C852 C851 1.374 . S
C853 C850 1.499 . S
C853 C854 1.373 . S
C853 C855 1.389 . S
C854 H827 0.950 . S
C854 C840 1.377 . S
C854 C853 1.373 . S
C855 C839 1.377 . S
C855 C853 1.389 . S
C855 C856 1.524 . S
C856 C855 1.524 . S
C856 C857 1.397 . S
C856 C861 1.363 . S
C857 H828 0.950 . S
C857 C856 1.397 . S
C857 C858 1.334 . S
C858 H829 0.950 . S
C858 C857 1.334 . S
C858 C859 1.287 . S
C859 C858 1.287 . S
C859 C860 1.524 . S
C859 H862 0.999 . S
C860 H830 0.950 . S
C860 C859 1.524 . S
C860 C861 1.415 . S
C861 H831 0.950 . S
C861 C856 1.363 . S
C861 C860 1.415 . S
H862 C859 0.999 . S
H863 C844 0.913 . S
H864 C882 0.951 . S
H865 C884 0.951 . S
H866 C886 0.950 . S
H867 C887 0.950 . S
H868 C889 0.950 . S
H869 C892 0.950 . S
H870 C893 0.950 . S
H871 C895 0.950 . S
H872 C896 0.950 . S
H873 C897 0.951 . S
H874 C899 0.951 . S
H875 C901 0.950 . S
H876 C902 0.961 . S
H877 C904 0.950 . S
H878 C907 0.950 . S
H879 C908 0.950 . S
H880 C910 0.950 . S
H881 C911 0.950 . S
C882 H864 0.951 . S
C882 C883 1.366 . S
C882 C884 1.388 . S
C883 C882 1.366 . S
C883 C887 1.385 . S
C884 H865 0.951 . S
C884 C882 1.388 . S
C884 C885 1.366 . S
C885 C884 1.366 . S
C885 C886 1.414 . S
C885 C888 1.499 . S
C886 H866 0.950 . S
C886 C885 1.414 . S
C886 C887 1.374 . S
C887 H867 0.950 . S
C887 C883 1.385 . S
C887 C886 1.374 . S
C888 C885 1.499 . S
C888 C889 1.373 . S
C888 C890 1.389 1_455 S
C889 H868 0.950 . S
C889 C888 1.373 . S
C889 C905 1.377 . S
C890 C888 1.389 1_655 S
C890 C891 1.524 . S
C890 C904 1.377 . S
C891 C890 1.524 . S
C891 C892 1.397 . S
C891 C896 1.363 . S
C892 H869 0.950 . S
C892 C891 1.397 . S
C892 C893 1.334 . S
C893 H870 0.950 . S
C893 C892 1.334 . S
C893 C894 1.287 . S
C894 C893 1.287 . S
C894 C895 1.524 . S
C894 H913 0.913 . S
C895 H871 0.950 . S
C895 C894 1.524 . S
C895 C896 1.415 . S
C896 H872 0.950 . S
C896 C891 1.363 . S
C896 C895 1.415 . S
C897 H873 0.951 . S
C897 C898 1.366 . S
C897 C899 1.388 1_554 S
C898 C897 1.366 . S
C898 C902 1.385 1_554 S
C899 H874 0.951 . S
C899 C897 1.388 1_556 S
C899 C900 1.366 . S
C900 C899 1.366 . S
C900 C901 1.414 . S
C900 C903 1.499 . S
C901 H875 0.950 . S
C901 C900 1.414 . S
C901 C902 1.374 . S
C902 H876 0.961 . S
C902 C898 1.385 1_556 S
C902 C901 1.374 . S
C903 C900 1.499 . S
C903 C904 1.373 1_455 S
C903 C905 1.389 . S
C904 H877 0.950 . S
C904 C890 1.377 . S
C904 C903 1.373 1_655 S
C905 C889 1.377 . S
C905 C903 1.389 . S
C905 C906 1.524 . S
C906 C905 1.524 . S
C906 C907 1.397 . S
C906 C911 1.363 . S
C907 H878 0.950 . S
C907 C906 1.397 . S
C907 C908 1.334 . S
C908 H879 0.950 . S
C908 C907 1.334 . S
C908 C909 1.287 . S
C909 C908 1.287 . S
C909 C910 1.524 . S
C909 H912 0.999 . S
C910 H880 0.950 . S
C910 C909 1.524 . S
C910 C911 1.415 . S
C911 H881 0.950 . S
C911 C906 1.363 . S
C911 C910 1.415 . S
H912 C909 0.999 . S
H913 C894 0.913 . S
H914 C932 0.951 . S
H915 C934 0.951 . S
H916 C936 0.950 . S
H917 C937 0.950 . S
H918 C939 0.950 . S
H919 C942 0.950 . S
H920 C943 0.950 . S
H921 C945 0.950 . S
H922 C946 0.950 . S
H923 C947 0.951 . S
H924 C949 0.951 . S
H925 C951 0.950 . S
H926 C952 0.950 . S
H927 C954 0.950 . S
H928 C957 0.950 . S
H929 C958 0.950 . S
H930 C960 0.950 . S
H931 C961 0.950 . S
C932 H914 0.951 . S
C932 C933 1.366 . S
C932 C934 1.388 . S
C933 C932 1.366 . S
C933 C937 1.385 . S
C934 H915 0.951 . S
C934 C932 1.388 . S
C934 C935 1.366 . S
C935 C934 1.366 . S
C935 C936 1.414 . S
C935 C938 1.499 . S
C936 H916 0.950 . S
C936 C935 1.414 . S
C936 C937 1.374 . S
C937 H917 0.950 . S
C937 C933 1.385 . S
C937 C936 1.374 . S
C938 C935 1.499 . S
C938 C939 1.373 . S
C938 C940 1.389 . S
C939 H918 0.950 . S
C939 C938 1.373 . S
C939 C955 1.377 . S
C940 C938 1.389 . S
C940 C941 1.524 . S
C940 C954 1.377 . S
C941 C940 1.524 . S
C941 C942 1.397 . S
C941 C946 1.363 . S
C942 H919 0.950 . S
C942 C941 1.397 . S
C942 C943 1.334 . S
C943 H920 0.950 . S
C943 C942 1.334 . S
C943 C944 1.287 . S
C944 C943 1.287 . S
C944 C945 1.524 . S
C944 H963 0.913 . S
C945 H921 0.950 . S
C945 C944 1.524 . S
C945 C946 1.415 . S
C946 H922 0.950 . S
C946 C941 1.363 . S
C946 C945 1.415 . S
C947 H923 0.951 . S
C947 C948 1.366 . S
C947 C949 1.388 . S
C948 C947 1.366 . S
C948 C952 1.385 . S
C949 H924 0.951 . S
C949 C947 1.388 . S
C949 C950 1.366 . S
C950 C949 1.366 . S
C950 C951 1.414 . S
C950 C953 1.499 . S
C951 H925 0.950 . S
C951 C950 1.414 . S
C951 C952 1.374 . S
C952 H926 0.950 . S
C952 C948 1.385 . S
C952 C951 1.374 . S
C953 C950 1.499 . S
C953 C954 1.373 . S
C953 C955 1.389 . S
C954 H927 0.950 . S
C954 C940 1.377 . S
C954 C953 1.373 . S
C955 C939 1.377 . S
C955 C953 1.389 . S
C955 C956 1.524 . S
C956 C955 1.524 . S
C956 C957 1.397 . S
C956 C961 1.363 . S
C957 H928 0.950 . S
C957 C956 1.397 . S
C957 C958 1.334 . S
C958 H929 0.950 . S
C958 C957 1.334 . S
C958 C959 1.287 . S
C959 C958 1.287 . S
C959 C960 1.524 . S
C959 H962 0.999 . S
C960 H930 0.950 . S
C960 C959 1.524 . S
C960 C961 1.415 . S
C961 H931 0.950 . S
C961 C956 1.363 . S
C961 C960 1.415 . S
H962 C959 0.999 . S
H963 C944 0.913 . S
H964 C982 0.951 . S
H965 C984 0.951 . S
H966 C986 0.950 1_655 S
H967 C987 0.950 1_655 S
H968 C989 0.950 . S
H969 C992 0.950 . S
H970 C993 0.950 . S
H971 C995 0.950 . S
H972 C996 0.950 . S
H973 C997 0.940 1_655 S
H974 C999 0.951 1_655 S
H975 C1001 0.950 . S
H976 C1002 0.950 . S
H977 C1004 0.950 . S
H978 C1007 0.950 . S
H979 C1008 0.950 . S
H980 C1010 0.950 . S
H981 C1011 0.950 . S
C982 H964 0.951 . S
C982 C983 1.366 1_554 S
C982 C984 1.388 . S
C983 C982 1.366 1_556 S
C983 C987 1.385 . S
C984 H965 0.951 . S
C984 C982 1.388 . S
C984 C985 1.366 . S
C985 C984 1.366 . S
C985 C986 1.414 . S
C985 C988 1.499 . S
C986 H966 0.950 1_455 S
C986 C985 1.414 . S
C986 C987 1.374 1_554 S
C987 H967 0.950 1_455 S
C987 C983 1.385 . S
C987 C986 1.374 1_556 S
C988 C985 1.499 . S
C988 C989 1.373 1_455 S
C988 C990 1.389 . S
C989 H968 0.950 . S
C989 C988 1.373 1_655 S
C989 C1005 1.377 . S
C990 C988 1.389 . S
C990 C991 1.524 . S
C990 C1004 1.377 . S
C991 C990 1.524 . S
C991 C992 1.397 . S
C991 C996 1.363 . S
C992 H969 0.950 . S
C992 C991 1.397 . S
C992 C993 1.334 . S
C993 H970 0.950 . S
C993 C992 1.334 . S
C993 C994 1.287 . S
C994 C993 1.287 . S
C994 C995 1.524 . S
C994 H1013 0.913 . S
C995 H971 0.950 . S
C995 C994 1.524 . S
C995 C996 1.415 . S
C996 H972 0.950 . S
C996 C991 1.363 . S
C996 C995 1.415 . S
C997 H973 0.940 1_455 S
C997 C998 1.366 . S
C997 C999 1.388 . S
C998 C997 1.366 . S
C998 C1002 1.385 . S
C999 H974 0.951 1_455 S
C999 C997 1.388 . S
C999 C1000 1.366 . S
C1000 C999 1.366 . S
C1000 C1001 1.414 . S
C1000 C1003 1.499 . S
C1001 H975 0.950 . S
C1001 C1000 1.414 . S
C1001 C1002 1.374 . S
C1002 H976 0.950 . S
C1002 C998 1.385 . S
C1002 C1001 1.374 . S
C1003 C1000 1.499 . S
C1003 C1004 1.373 . S
C1003 C1005 1.389 1_455 S
C1004 H977 0.950 . S
C1004 C990 1.377 . S
C1004 C1003 1.373 . S
C1005 C989 1.377 . S
C1005 C1003 1.389 1_655 S
C1005 C1006 1.524 . S
C1006 C1005 1.524 . S
C1006 C1007 1.397 . S
C1006 C1011 1.363 . S
C1007 H978 0.950 . S
C1007 C1006 1.397 . S
C1007 C1008 1.334 . S
C1008 H979 0.950 . S
C1008 C1007 1.334 . S
C1008 C1009 1.287 . S
C1009 C1008 1.287 . S
C1009 C1010 1.524 . S
C1009 H1012 0.999 . S
C1010 H980 0.950 . S
C1010 C1009 1.524 . S
C1010 C1011 1.415 . S
C1011 H981 0.950 . S
C1011 C1006 1.363 . S
C1011 C1010 1.415 . S
H1012 C1009 0.999 . S
H1013 C994 0.913 . S
H1014 C1032 0.951 . S
H1015 C1034 0.951 . S
H1016 C1036 0.950 . S
H1017 C1037 0.950 . S
H1018 C1039 0.950 . S
H1019 C1042 0.950 . S
H1020 C1043 0.950 . S
H1021 C1045 0.950 . S
H1022 C1046 0.950 . S
H1023 C1047 0.951 . S
H1024 C1049 0.951 . S
H1025 C1051 0.950 . S
H1026 C1052 0.950 . S
H1027 C1054 0.950 . S
H1028 C1057 0.950 . S
H1029 C1058 0.950 . S
H1030 C1060 0.950 . S
H1031 C1061 0.950 . S
C1032 H1014 0.951 . S
C1032 C1033 1.366 . S
C1032 C1034 1.388 . S
C1033 C1032 1.366 . S
C1033 C1037 1.385 . S
C1034 H1015 0.951 . S
C1034 C1032 1.388 . S
C1034 C1035 1.366 . S
C1035 C1034 1.366 . S
C1035 C1036 1.414 . S
C1035 C1038 1.499 . S
C1036 H1016 0.950 . S
C1036 C1035 1.414 . S
C1036 C1037 1.374 . S
C1037 H1017 0.950 . S
C1037 C1033 1.385 . S
C1037 C1036 1.374 . S
C1038 C1035 1.499 . S
C1038 C1039 1.373 . S
C1038 C1040 1.389 . S
C1039 H1018 0.950 . S
C1039 C1038 1.373 . S
C1039 C1055 1.377 . S
C1040 C1038 1.389 . S
C1040 C1041 1.524 . S
C1040 C1054 1.377 . S
C1041 C1040 1.524 . S
C1041 C1042 1.397 . S
C1041 C1046 1.363 . S
C1042 H1019 0.950 . S
C1042 C1041 1.397 . S
C1042 C1043 1.334 . S
C1043 H1020 0.950 . S
C1043 C1042 1.334 . S
C1043 C1044 1.287 . S
C1044 C1043 1.287 . S
C1044 C1045 1.524 . S
C1044 H1063 0.913 . S
C1045 H1021 0.950 . S
C1045 C1044 1.524 . S
C1045 C1046 1.415 . S
C1046 H1022 0.950 . S
C1046 C1041 1.363 . S
C1046 C1045 1.415 . S
C1047 H1023 0.951 . S
C1047 C1048 1.366 . S
C1047 C1049 1.388 . S
C1048 C1047 1.366 . S
C1048 C1052 1.385 . S
C1049 H1024 0.951 . S
C1049 C1047 1.388 . S
C1049 C1050 1.366 . S
C1050 C1049 1.366 . S
C1050 C1051 1.414 . S
C1050 C1053 1.499 . S
C1051 H1025 0.950 . S
C1051 C1050 1.414 . S
C1051 C1052 1.374 . S
C1052 H1026 0.950 . S
C1052 C1048 1.385 . S
C1052 C1051 1.374 . S
C1053 C1050 1.499 . S
C1053 C1054 1.373 . S
C1053 C1055 1.389 . S
C1054 H1027 0.950 . S
C1054 C1040 1.377 . S
C1054 C1053 1.373 . S
C1055 C1039 1.377 . S
C1055 C1053 1.389 . S
C1055 C1056 1.524 . S
C1056 C1055 1.524 . S
C1056 C1057 1.397 . S
C1056 C1061 1.363 . S
C1057 H1028 0.950 . S
C1057 C1056 1.397 . S
C1057 C1058 1.334 . S
C1058 H1029 0.950 . S
C1058 C1057 1.334 . S
C1058 C1059 1.287 . S
C1059 C1058 1.287 . S
C1059 C1060 1.524 . S
C1059 H1062 0.999 . S
C1060 H1030 0.950 . S
C1060 C1059 1.524 . S
C1060 C1061 1.415 . S
C1061 H1031 0.950 . S
C1061 C1056 1.363 . S
C1061 C1060 1.415 . S
H1062 C1059 0.999 . S
H1063 C1044 0.913 . S
H1064 C1082 0.951 . S
H1065 C1084 0.951 . S
H1066 C1086 0.950 . S
H1067 C1087 0.950 . S
H1068 C1089 0.950 . S
H1069 C1092 0.950 . S
H1070 C1093 0.950 . S
H1071 C1095 0.950 . S
H1072 C1096 0.950 . S
H1073 C1097 0.951 . S
H1074 C1099 0.951 . S
H1075 C1101 0.950 . S
H1076 C1102 0.950 . S
H1077 C1104 0.950 . S
H1078 C1107 0.950 . S
H1079 C1108 0.950 . S
H1080 C1110 0.950 . S
H1081 C1111 0.950 . S
C1082 H1064 0.951 . S
C1082 C1083 1.366 . S
C1082 C1084 1.388 . S
C1083 C1082 1.366 . S
C1083 C1087 1.385 . S
C1084 H1065 0.951 . S
C1084 C1082 1.388 . S
C1084 C1085 1.366 . S
C1085 C1084 1.366 . S
C1085 C1086 1.414 . S
C1085 C1088 1.499 . S
C1086 H1066 0.950 . S
C1086 C1085 1.414 . S
C1086 C1087 1.374 . S
C1087 H1067 0.950 . S
C1087 C1083 1.385 . S
C1087 C1086 1.374 . S
C1088 C1085 1.499 . S
C1088 C1089 1.373 . S
C1088 C1090 1.389 . S
C1089 H1068 0.950 . S
C1089 C1088 1.373 . S
C1089 C1105 1.377 . S
C1090 C1088 1.389 . S
C1090 C1091 1.524 . S
C1090 C1104 1.377 . S
C1091 C1090 1.524 . S
C1091 C1092 1.397 . S
C1091 C1096 1.363 . S
C1092 H1069 0.950 . S
C1092 C1091 1.397 . S
C1092 C1093 1.334 . S
C1093 H1070 0.950 . S
C1093 C1092 1.334 . S
C1093 C1094 1.287 . S
C1094 C1093 1.287 . S
C1094 C1095 1.524 . S
C1094 H1113 0.913 . S
C1095 H1071 0.950 . S
C1095 C1094 1.524 . S
C1095 C1096 1.415 . S
C1096 H1072 0.950 . S
C1096 C1091 1.363 . S
C1096 C1095 1.415 . S
C1097 H1073 0.951 . S
C1097 C1098 1.366 1_556 S
C1097 C1099 1.388 . S
C1098 C1097 1.366 1_554 S
C1098 C1102 1.385 . S
C1099 H1074 0.951 . S
C1099 C1097 1.388 . S
C1099 C1100 1.366 . S
C1100 C1099 1.366 . S
C1100 C1101 1.414 . S
C1100 C1103 1.499 . S
C1101 H1075 0.950 . S
C1101 C1100 1.414 . S
C1101 C1102 1.374 1_556 S
C1102 H1076 0.950 . S
C1102 C1098 1.385 . S
C1102 C1101 1.374 1_554 S
C1103 C1100 1.499 . S
C1103 C1104 1.373 . S
C1103 C1105 1.389 . S
C1104 H1077 0.950 . S
C1104 C1090 1.377 . S
C1104 C1103 1.373 . S
C1105 C1089 1.377 . S
C1105 C1103 1.389 . S
C1105 C1106 1.524 . S
C1106 C1105 1.524 . S
C1106 C1107 1.397 . S
C1106 C1111 1.363 . S
C1107 H1078 0.950 . S
C1107 C1106 1.397 . S
C1107 C1108 1.334 . S
C1108 H1079 0.950 . S
C1108 C1107 1.334 . S
C1108 C1109 1.287 . S
C1109 C1108 1.287 . S
C1109 C1110 1.524 . S
C1109 H1112 0.999 . S
C1110 H1080 0.950 . S
C1110 C1109 1.524 . S
C1110 C1111 1.415 . S
C1111 H1081 0.950 . S
C1111 C1106 1.363 . S
C1111 C1110 1.415 . S
H1112 C1109 0.999 . S
H1113 C1094 0.913 . S
H1114 C1132 0.951 1_655 S
H1115 C1134 0.951 1_655 S
H1116 C1136 0.950 . S
H1117 C1137 0.950 . S
H1118 C1139 0.950 . S
H1119 C1142 0.950 . S
H1120 C1143 0.950 . S
H1121 C1145 0.950 . S
H1122 C1146 0.950 . S
H1123 C1147 0.951 . S
H1124 C1149 0.951 . S
H1125 C1151 0.950 1_655 S
H1126 C1152 0.950 1_655 S
H1127 C1154 0.950 . S
H1128 C1157 0.950 . S
H1129 C1158 0.950 . S
H1130 C1160 0.950 . S
H1131 C1161 0.950 . S
C1132 H1114 0.951 1_455 S
C1132 C1133 1.366 . S
C1132 C1134 1.388 . S
C1133 C1132 1.366 . S
C1133 C1137 1.385 . S
C1134 H1115 0.951 1_455 S
C1134 C1132 1.388 . S
C1134 C1135 1.366 . S
C1135 C1134 1.366 . S
C1135 C1136 1.414 . S
C1135 C1138 1.499 . S
C1136 H1116 0.950 . S
C1136 C1135 1.414 . S
C1136 C1137 1.374 . S
C1137 H1117 0.950 . S
C1137 C1133 1.385 . S
C1137 C1136 1.374 . S
C1138 C1135 1.499 . S
C1138 C1139 1.373 . S
C1138 C1140 1.389 . S
C1139 H1118 0.950 . S
C1139 C1138 1.373 . S
C1139 C1155 1.377 . S
C1140 C1138 1.389 . S
C1140 C1141 1.524 . S
C1140 C1154 1.377 . S
C1141 C1140 1.524 . S
C1141 C1142 1.397 . S
C1141 C1146 1.363 1_455 S
C1142 H1119 0.950 . S
C1142 C1141 1.397 . S
C1142 C1143 1.334 . S
C1143 H1120 0.950 . S
C1143 C1142 1.334 . S
C1143 C1144 1.287 . S
C1144 C1143 1.287 . S
C1144 C1145 1.524 1_455 S
C1144 H1163 0.913 . S
C1145 H1121 0.950 . S
C1145 C1144 1.524 1_655 S
C1145 C1146 1.415 . S
C1146 H1122 0.950 . S
C1146 C1141 1.363 1_655 S
C1146 C1145 1.415 . S
C1147 H1123 0.951 . S
C1147 C1148 1.366 . S
C1147 C1149 1.388 . S
C1148 C1147 1.366 . S
C1148 C1152 1.385 . S
C1149 H1124 0.951 . S
C1149 C1147 1.388 . S
C1149 C1150 1.366 . S
C1150 C1149 1.366 . S
C1150 C1151 1.414 . S
C1150 C1153 1.499 . S
C1151 H1125 0.950 1_455 S
C1151 C1150 1.414 . S
C1151 C1152 1.374 . S
C1152 H1126 0.950 1_455 S
C1152 C1148 1.385 . S
C1152 C1151 1.374 . S
C1153 C1150 1.499 . S
C1153 C1154 1.373 . S
C1153 C1155 1.389 . S
C1154 H1127 0.950 . S
C1154 C1140 1.377 . S
C1154 C1153 1.373 . S
C1155 C1139 1.377 . S
C1155 C1153 1.389 . S
C1155 C1156 1.524 . S
C1156 C1155 1.524 . S
C1156 C1157 1.397 . S
C1156 C1161 1.363 . S
C1157 H1128 0.950 . S
C1157 C1156 1.397 . S
C1157 C1158 1.334 . S
C1158 H1129 0.950 . S
C1158 C1157 1.334 . S
C1158 C1159 1.287 . S
C1159 C1158 1.287 . S
C1159 C1160 1.524 . S
C1159 H1162 0.999 . S
C1160 H1130 0.950 . S
C1160 C1159 1.524 . S
C1160 C1161 1.415 . S
C1161 H1131 0.950 . S
C1161 C1156 1.363 . S
C1161 C1160 1.415 . S
H1162 C1159 0.999 . S
H1163 C1144 0.913 . S
H1164 C1182 0.951 . S
H1165 C1184 0.951 . S
H1166 C1186 0.950 . S
H1167 C1187 0.950 . S
H1168 C1189 0.950 . S
H1169 C1192 0.950 . S
H1170 C1193 0.950 . S
H1171 C1195 0.950 . S
H1172 C1196 0.950 . S
H1173 C1197 0.951 . S
H1174 C1199 0.951 . S
H1175 C1201 0.950 . S
H1176 C1202 0.950 . S
H1177 C1204 0.950 . S
H1178 C1207 0.950 . S
H1179 C1208 0.950 . S
H1180 C1210 0.950 . S
H1181 C1211 0.950 . S
C1182 H1164 0.951 . S
C1182 C1183 1.366 1_554 S
C1182 C1184 1.388 . S
C1183 C1182 1.366 1_556 S
C1183 C1187 1.385 . S
C1184 H1165 0.951 . S
C1184 C1182 1.388 . S
C1184 C1185 1.366 . S
C1185 C1184 1.366 . S
C1185 C1186 1.414 . S
C1185 C1188 1.499 . S
C1186 H1166 0.950 . S
C1186 C1185 1.414 . S
C1186 C1187 1.374 1_554 S
C1187 H1167 0.950 . S
C1187 C1183 1.385 . S
C1187 C1186 1.374 1_556 S
C1188 C1185 1.499 . S
C1188 C1189 1.373 . S
C1188 C1190 1.389 . S
C1189 H1168 0.950 . S
C1189 C1188 1.373 . S
C1189 C1205 1.377 . S
C1190 C1188 1.389 . S
C1190 C1191 1.524 . S
C1190 C1204 1.377 . S
C1191 C1190 1.524 . S
C1191 C1192 1.397 . S
C1191 C1196 1.363 . S
C1192 H1169 0.950 . S
C1192 C1191 1.397 . S
C1192 C1193 1.334 . S
C1193 H1170 0.950 . S
C1193 C1192 1.334 . S
C1193 C1194 1.287 . S
C1194 C1193 1.287 . S
C1194 C1195 1.524 . S
C1194 H1213 0.913 . S
C1195 H1171 0.950 . S
C1195 C1194 1.524 . S
C1195 C1196 1.415 . S
C1196 H1172 0.950 . S
C1196 C1191 1.363 . S
C1196 C1195 1.415 . S
C1197 H1173 0.951 . S
C1197 C1198 1.366 . S
C1197 C1199 1.388 . S
C1198 C1197 1.366 . S
C1198 C1202 1.385 . S
C1199 H1174 0.951 . S
C1199 C1197 1.388 . S
C1199 C1200 1.366 . S
C1200 C1199 1.366 . S
C1200 C1201 1.414 . S
C1200 C1203 1.499 . S
C1201 H1175 0.950 . S
C1201 C1200 1.414 . S
C1201 C1202 1.374 . S
C1202 H1176 0.950 . S
C1202 C1198 1.385 . S
C1202 C1201 1.374 . S
C1203 C1200 1.499 . S
C1203 C1204 1.373 . S
C1203 C1205 1.389 . S
C1204 H1177 0.950 . S
C1204 C1190 1.377 . S
C1204 C1203 1.373 . S
C1205 C1189 1.377 . S
C1205 C1203 1.389 . S
C1205 C1206 1.524 . S
C1206 C1205 1.524 . S
C1206 C1207 1.397 . S
C1206 C1211 1.363 . S
C1207 H1178 0.950 . S
C1207 C1206 1.397 . S
C1207 C1208 1.334 . S
C1208 H1179 0.950 . S
C1208 C1207 1.334 . S
C1208 C1209 1.287 . S
C1209 C1208 1.287 . S
C1209 C1210 1.524 . S
C1209 H1212 0.999 . S
C1210 H1180 0.950 . S
C1210 C1209 1.524 . S
C1210 C1211 1.415 . S
C1211 H1181 0.950 . S
C1211 C1206 1.363 . S
C1211 C1210 1.415 . S
H1212 C1209 0.999 . S
H1213 C1194 0.913 . S
H1214 C1232 0.951 . S
H1215 C1234 0.951 . S
H1216 C1236 0.950 . S
H1217 C1237 0.950 . S
H1218 C1239 0.950 1_655 S
H1219 C1242 0.950 . S
H1220 C1243 0.950 . S
H1221 C1245 0.950 . S
H1222 C1246 0.950 . S
H1223 C1247 0.951 . S
H1224 C1249 0.951 . S
H1225 C1251 0.950 . S
H1226 C1252 0.950 . S
H1227 C1254 0.950 . S
H1228 C1257 0.950 . S
H1229 C1258 0.950 . S
H1230 C1260 0.950 . S
H1231 C1261 0.950 . S
C1232 H1214 0.951 . S
C1232 C1233 1.366 . S
C1232 C1234 1.388 . S
C1233 C1232 1.366 . S
C1233 C1237 1.385 . S
C1234 H1215 0.951 . S
C1234 C1232 1.388 . S
C1234 C1235 1.366 . S
C1235 C1234 1.366 . S
C1235 C1236 1.414 . S
C1235 C1238 1.499 . S
C1236 H1216 0.950 . S
C1236 C1235 1.414 . S
C1236 C1237 1.374 . S
C1237 H1217 0.950 . S
C1237 C1233 1.385 . S
C1237 C1236 1.374 . S
C1238 C1235 1.499 . S
C1238 C1239 1.373 . S
C1238 C1240 1.389 . S
C1239 H1218 0.950 1_455 S
C1239 C1238 1.373 . S
C1239 C1255 1.377 . S
C1240 C1238 1.389 . S
C1240 C1241 1.524 . S
C1240 C1254 1.377 . S
C1241 C1240 1.524 . S
C1241 C1242 1.397 . S
C1241 C1246 1.363 . S
C1242 H1219 0.950 . S
C1242 C1241 1.397 . S
C1242 C1243 1.334 . S
C1243 H1220 0.950 . S
C1243 C1242 1.334 . S
C1243 C1244 1.287 . S
C1244 C1243 1.287 . S
C1244 C1245 1.524 . S
C1244 H1263 0.913 . S
C1245 H1221 0.950 . S
C1245 C1244 1.524 . S
C1245 C1246 1.415 . S
C1246 H1222 0.950 . S
C1246 C1241 1.363 . S
C1246 C1245 1.415 . S
C1247 H1223 0.951 . S
C1247 C1248 1.366 . S
C1247 C1249 1.388 . S
C1248 C1247 1.366 . S
C1248 C1252 1.385 . S
C1249 H1224 0.951 . S
C1249 C1247 1.388 . S
C1249 C1250 1.366 . S
C1250 C1249 1.366 . S
C1250 C1251 1.414 . S
C1250 C1253 1.499 . S
C1251 H1225 0.950 . S
C1251 C1250 1.414 . S
C1251 C1252 1.374 . S
C1252 H1226 0.950 . S
C1252 C1248 1.385 . S
C1252 C1251 1.374 . S
C1253 C1250 1.499 . S
C1253 C1254 1.373 . S
C1253 C1255 1.389 . S
C1254 H1227 0.950 . S
C1254 C1240 1.377 . S
C1254 C1253 1.373 . S
C1255 C1239 1.377 . S
C1255 C1253 1.389 . S
C1255 C1256 1.524 1_455 S
C1256 C1255 1.524 1_655 S
C1256 C1257 1.397 . S
C1256 C1261 1.363 . S
C1257 H1228 0.950 . S
C1257 C1256 1.397 . S
C1257 C1258 1.334 . S
C1258 H1229 0.950 . S
C1258 C1257 1.334 . S
C1258 C1259 1.287 . S
C1259 C1258 1.287 . S
C1259 C1260 1.524 . S
C1259 H1262 0.999 . S
C1260 H1230 0.950 . S
C1260 C1259 1.524 . S
C1260 C1261 1.415 . S
C1261 H1231 0.950 . S
C1261 C1256 1.363 . S
C1261 C1260 1.415 . S
H1262 C1259 0.999 . S
H1263 C1244 0.913 . S
C283 N71 1.357 . S
C298 N5 1.358 . S
C333 N104 1.358 . S
C348 N38 1.357 . S
C383 N137 1.357 . S
C398 N203 1.358 . S
C433 N170 1.357 . S
C448 N236 1.358 . S
C483 C107 1.530 . S
C498 C8 1.529 . S
C533 C41 1.530 . S
C548 C74 1.529 . S
C583 C94 0.918 . S
C598 C61 0.918 . S
C633 C127 0.918 . S
C648 C28 0.919 . S
C683 C239 1.529 . S
C698 C140 1.529 . S
C733 C173 1.530 . S
C748 C206 1.530 . S
C783 C226 0.918 . S
C798 C193 0.919 . S
C833 C259 0.919 . S
C848 C160 0.918 . S
C883 N179 1.580 . S
C898 C17 1.621 . S
C933 C50 1.621 . S
C948 N146 1.580 . S
C983 C83 1.621 . S
C998 N245 1.580 . S
C1033 N212 1.580 . S
C1048 C116 1.621 . S
C1083 N47 1.581 . S
C1098 C149 1.621 . S
C1133 C182 1.621 . S
C1148 N14 1.580 . S
C1183 C215 1.621 . S
C1198 N113 1.580 . S
C1233 C248 1.621 . S
C1248 N80 1.581 . S
