# Generated by pormake.
# Topology whb, (6)-cn, num edge types: 1
# Building blocks:
#     Node 0, Type 0, BuildingBlock: KUMBUR_clean_sbu_1, # of connection points: 6
#     Node 1, Type 0, BuildingBlock: KUMBUR_clean_sbu_1, # of connection points: 6
#     Node 2, Type 0, BuildingBlock: KUMBUR_clean_sbu_1, # of connection points: 6
#     Node 3, Type 0, BuildingBlock: KUMBUR_clean_sbu_1, # of connection points: 6
#     Node 4, Type 0, BuildingBlock: KUMBUR_clean_sbu_1, # of connection points: 6
#     Node 5, Type 0, BuildingBlock: KUMBUR_clean_sbu_1, # of connection points: 6
#     Node 6, Type 0, BuildingBlock: KUMBUR_clean_sbu_1, # of connection points: 6
#     Node 7, Type 0, BuildingBlock: KUMBUR_clean_sbu_1, # of connection points: 6
#     Edge 8, Type (0, 0), BuildingBlock: EZIPEK_clean_linker_0, # of connection points: 2
#     Edge 9, Type (0, 0), BuildingBlock: EZIPEK_clean_linker_0, # of connection points: 2
#     Edge 10, Type (0, 0), BuildingBlock: EZIPEK_clean_linker_0, # of connection points: 2
#     Edge 11, Type (0, 0), BuildingBlock: EZIPEK_clean_linker_0, # of connection points: 2
#     Edge 12, Type (0, 0), BuildingBlock: EZIPEK_clean_linker_0, # of connection points: 2
#     Edge 13, Type (0, 0), BuildingBlock: EZIPEK_clean_linker_0, # of connection points: 2
#     Edge 14, Type (0, 0), BuildingBlock: EZIPEK_clean_linker_0, # of connection points: 2
#     Edge 15, Type (0, 0), BuildingBlock: EZIPEK_clean_linker_0, # of connection points: 2
#     Edge 16, Type (0, 0), BuildingBlock: EZIPEK_clean_linker_0, # of connection points: 2
#     Edge 17, Type (0, 0), BuildingBlock: EZIPEK_clean_linker_0, # of connection points: 2
#     Edge 18, Type (0, 0), BuildingBlock: EZIPEK_clean_linker_0, # of connection points: 2
#     Edge 19, Type (0, 0), BuildingBlock: EZIPEK_clean_linker_0, # of connection points: 2
#     Edge 20, Type (0, 0), BuildingBlock: EZIPEK_clean_linker_0, # of connection points: 2
#     Edge 21, Type (0, 0), BuildingBlock: EZIPEK_clean_linker_0, # of connection points: 2
#     Edge 22, Type (0, 0), BuildingBlock: EZIPEK_clean_linker_0, # of connection points: 2
#     Edge 23, Type (0, 0), BuildingBlock: EZIPEK_clean_linker_0, # of connection points: 2
#     Edge 24, Type (0, 0), BuildingBlock: EZIPEK_clean_linker_0, # of connection points: 2
#     Edge 25, Type (0, 0), BuildingBlock: EZIPEK_clean_linker_0, # of connection points: 2
#     Edge 26, Type (0, 0), BuildingBlock: EZIPEK_clean_linker_0, # of connection points: 2
#     Edge 27, Type (0, 0), BuildingBlock: EZIPEK_clean_linker_0, # of connection points: 2
#     Edge 28, Type (0, 0), BuildingBlock: EZIPEK_clean_linker_0, # of connection points: 2
#     Edge 29, Type (0, 0), BuildingBlock: EZIPEK_clean_linker_0, # of connection points: 2
#     Edge 30, Type (0, 0), BuildingBlock: EZIPEK_clean_linker_0, # of connection points: 2
#     Edge 31, Type (0, 0), BuildingBlock: EZIPEK_clean_linker_0, # of connection points: 2
# Relax obj value: 0.727
# Max RMSD: 0.347
# Mean RMSD: 0.290
data_MOF--net-whb--node1-KUMBUR_clean_sbu_1--edge1-EZIPEK_clean_linker_0
_symmetry_space_group_name_H-M    P1
_symmetry_Int_Tables_number       1
_symmetry_cell_setting            triclinic
loop_
_symmetry_equiv_pos_as_xyz
'x, y, z'
_cell_length_a     24.270559
_cell_length_b     24.499287
_cell_length_c     36.88827
_cell_angle_alpha  108.72372
_cell_angle_beta   90.09454
_cell_angle_gamma 103.79169
loop_
_atom_site_label
_atom_site_type_symbol
_atom_site_fract_x
_atom_site_fract_y
_atom_site_fract_z
_atom_type_partial_charge
Tb0 Tb 0.18895 0.39103 0.07573 0.0
C1 C 0.25853 0.31666 0.2167 0.0
N2 N 0.23522 0.28083 0.18115 0.0
C3 C 0.29429 0.21498 0.18097 0.0
C4 C 0.30267 0.30466 0.23532 0.0
C5 C 0.25047 0.22895 0.1638 0.0
C6 C 0.32127 0.25359 0.21661 0.0
C7 C 0.25483 0.39912 0.27334 0.0
C8 C 0.23508 0.36297 0.23523 0.0
C9 C 0.30115 0.38994 0.29146 0.0
C10 C 0.32503 0.34264 0.27246 0.0
Tb11 Tb 0.16479 0.30689 0.15459 0.0
N12 N 0.18951 0.36905 0.217 0.0
C13 C 0.22593 0.44164 0.29249 0.0
C14 C 0.15814 0.40677 0.23686 0.0
C15 C 0.17707 0.44504 0.27428 0.0
H16 H 0.22998 0.19949 0.13606 0.0
H17 H 0.15456 0.47779 0.28889 0.0
H18 H 1.06817 0.32653 0.01903 0.0
H19 H 0.40169 0.4522 0.03272 0.0
H20 H 0.11923 0.4086 0.22348 0.0
H21 H 0.23987 0.47083 0.32161 0.0
H22 H 0.32212 0.46537 0.07403 0.0
H23 H 0.30736 0.17464 0.16665 0.0
H24 H 0.31747 0.41774 0.32056 0.0
H25 H 0.35942 0.33468 0.28718 0.0
H26 H 1.0384 0.25761 0.95303 0.0
H27 H 0.35509 0.24266 0.2299 0.0
H28 H 0.38534 0.36932 0.97076 0.0
N29 N 0.15653 0.33144 0.01387 0.0
C30 C 0.19671 0.31693 0.98972 0.0
C31 C 0.08313 0.27372 0.96305 0.0
C32 C 0.18178 0.27828 0.95157 0.0
C33 C 0.10023 0.31267 0.00058 0.0
C34 C 0.12403 0.25552 0.93863 0.0
N35 N 0.2639 0.38697 0.03788 0.0
C36 C 0.31536 0.42829 0.04748 0.0
C37 C 0.29595 0.33713 0.97721 0.0
C38 C 0.25277 0.34548 0.00239 0.0
C39 C 0.35086 0.37424 0.98917 0.0
C40 C 0.36022 0.42118 0.02406 0.0
H41 H 0.1107 0.2254 0.90959 0.0
H42 H 0.21444 0.23494 0.89814 0.0
H43 H 0.31476 0.28694 0.92059 0.0
O44 O 0.17496 0.47625 0.10033 0.0
O45 O 0.13666 0.30316 0.06925 0.0
O46 O 0.17871 0.25296 0.09686 0.0
O47 O 0.19049 0.44572 0.04114 0.0
O48 O 0.27326 0.37587 0.09609 0.0
O49 O 0.25999 0.32637 0.14142 0.0
O50 O 0.11576 0.27888 0.19519 0.0
O51 O 0.15531 0.39462 0.15957 0.0
O52 O 0.22908 0.4381 0.13373 0.0
O53 O 0.1126 0.21855 0.13791 0.0
O54 O 0.0818 0.32765 0.1375 0.0
O55 O 0.0933 0.36857 0.08814 0.0
C56 C 0.15958 0.25901 0.06568 0.0
C57 C 0.13744 0.5195 0.05945 0.0
C58 C 0.10962 0.5766 0.02205 0.0
C59 C 1.06491 0.58603 0.04536 0.0
C60 C 0.09358 0.53168 0.08324 0.0
C61 C 1.05706 0.56371 0.0758 0.0
C62 C 0.14546 0.54264 0.02885 0.0
C63 C 0.29511 0.35218 0.11965 0.0
C64 C 0.17869 0.48873 0.06866 0.0
C65 C 0.22493 0.26555 0.9273 0.0
C66 C 0.28206 0.29494 0.94014 0.0
C67 C 0.19928 0.43914 0.16316 0.0
C68 C 0.09461 0.17768 0.18955 0.0
C69 C 1.06266 0.13385 0.2397 0.0
C70 C 0.09718 0.09406 0.2266 0.0
C71 C 0.12679 0.13572 0.17618 0.0
C72 C 1.06177 0.17578 0.22099 0.0
C73 C 0.12832 0.09457 0.19481 0.0
C74 C 1.05842 0.34704 0.112 0.0
C75 C 0.09553 0.2249 0.17226 0.0
H76 H 1.03685 0.61183 0.04045 0.0
H77 H 0.08732 0.51669 0.10773 0.0
H78 H 1.02314 0.57211 0.09415 0.0
H79 H 0.18036 0.53581 0.01106 0.0
H80 H 0.09934 0.06199 0.24072 0.0
H81 H 0.15104 0.13483 0.15155 0.0
H82 H 1.03606 0.2074 0.23124 0.0
H83 H 0.15394 0.06296 0.1846 0.0
Tb84 Tb 0.51112 0.23048 0.61939 0.0
C85 C 0.30018 0.04798 0.5173 0.0
N86 N 0.35283 0.06222 0.50553 0.0
C87 C 0.34163 0.95961 0.46679 0.0
C88 C 0.26697 0.98863 0.50582 0.0
C89 C 0.37333 1.01904 0.47958 0.0
C90 C 0.28863 0.94413 0.48055 0.0
C91 C 0.22376 0.08173 0.55206 0.0
C92 C 0.27881 0.09367 0.5395 0.0
C93 C 0.1918 1.02243 0.54305 0.0
C94 C 0.21308 0.97593 0.51955 0.0
Tb95 Tb 0.406 0.15903 0.53373 0.0
N96 N 0.3112 0.15011 0.54729 0.0
C97 C 0.20275 0.12972 0.57326 0.0
C98 C 0.2867 0.19686 0.56249 0.0
C99 C 0.23414 0.18762 0.57805 0.0
H100 H 0.41515 1.03063 0.46978 0.0
H101 H 0.21761 0.22518 0.59339 0.0
H102 H 0.45875 0.19994 0.69713 0.0
H103 H 0.62413 0.4387 0.60233 0.0
H104 H 0.31017 0.24197 0.56622 0.0
H105 H 0.16154 0.1226 0.58468 0.0
H106 H 0.58443 0.33047 0.58199 0.0
H107 H 0.35854 0.92568 0.44687 0.0
H108 H 0.15033 1.01204 0.55351 0.0
H109 H 0.18731 0.93051 0.51179 0.0
H110 H 0.44333 0.25578 0.76285 0.0
H111 H 0.26444 0.89798 0.471 0.0
H112 H 0.61108 0.50232 0.66728 0.0
N113 N 0.49487 0.27741 0.68197 0.0
C114 C 0.5144 0.33774 0.69534 0.0
C115 C 0.46297 0.27944 0.74406 0.0
C116 C 0.50785 0.37137 0.73335 0.0
C117 C 0.47095 0.24794 0.70631 0.0
C118 C 0.48107 0.34144 0.75757 0.0
N119 N 0.54729 0.3317 0.6346 0.0
C120 C 0.57809 0.35721 0.61042 0.0
C121 C 0.56455 0.42812 0.68387 0.0
C122 C 0.54251 0.36577 0.67112 0.0
C123 C 0.59354 0.45455 0.65858 0.0
C124 C 0.60081 0.41884 0.62185 0.0
H125 H 0.47519 0.36566 0.78694 0.0
H126 H 0.5242 0.46015 0.77518 0.0
H127 H 0.57372 0.50989 0.73176 0.0
O128 O 0.56477 0.23129 0.66428 0.0
O129 O 0.46787 0.30303 0.60979 0.0
O130 O 0.41309 0.26131 0.55213 0.0
O131 O 0.59397 0.21941 0.60831 0.0
O132 O 0.54515 0.22525 0.56259 0.0
O133 O 0.49167 0.13796 0.52388 0.0
O134 O 0.37748 0.12772 0.47548 0.0
O135 O 0.42652 0.0826 0.54923 0.0
O136 O 0.47785 0.12636 0.60839 0.0
O137 O 0.43391 0.21439 0.49995 0.0
O138 O 0.38152 0.19891 0.59213 0.0
O139 O 0.43362 0.17504 0.63104 0.0
C140 C 0.4359 0.311 0.58234 0.0
C141 C 0.65971 0.27818 0.66264 0.0
C142 C 0.72148 0.33576 0.72121 0.0
C143 C 0.74667 0.37806 0.70407 0.0
C144 C 0.68672 0.31952 0.64514 0.0
C145 C 0.72981 0.36937 0.66592 0.0
C146 C 0.67827 0.28606 0.70034 0.0
C147 C 0.54208 0.17649 0.53333 0.0
C148 C 0.60849 0.23023 0.64433 0.0
C149 C 0.52898 0.4336 0.74613 0.0
C150 C 0.55728 0.46191 0.72144 0.0
C151 C 0.4486 0.07563 0.58017 0.0
C152 C 0.3508 0.20406 0.4618 0.0
C153 C 0.25086 0.20622 0.46578 0.0
C154 C 0.26165 0.25355 0.4509 0.0
C155 C 0.36145 0.25162 0.44743 0.0
C156 C 0.29529 0.18145 0.46999 0.0
C157 C 0.3167 0.27594 0.44172 0.0
C158 C 0.3839 0.17722 0.61993 0.0
C159 C 0.39627 0.17944 0.47168 0.0
H160 H 0.77961 0.41711 0.72004 0.0
H161 H 0.67387 0.31413 0.61584 0.0
H162 H 0.74971 0.40166 0.65255 0.0
H163 H 0.65783 0.25418 0.714 0.0
H164 H 0.22843 0.27413 0.44729 0.0
H165 H 0.40402 0.27018 0.44114 0.0
H166 H 0.28569 0.1437 0.48 0.0
H167 H 0.32488 0.31293 0.4308 0.0
Tb168 Tb 0.66324 0.30008 0.15093 0.0
C169 C 0.78983 0.45825 0.05085 0.0
N170 N 0.77935 0.46524 0.08794 0.0
C171 C 0.86902 0.53857 0.10897 0.0
C172 C 0.84049 0.49118 0.04134 0.0
C173 C 0.81728 0.50679 0.11699 0.0
C174 C 0.88089 0.53047 0.07095 0.0
C175 C 0.75432 0.41755 0.98393 0.0
C176 C 0.74815 0.42056 0.02252 0.0
C177 C 0.80466 0.45006 0.97425 0.0
C178 C 0.84813 0.48588 0.00281 0.0
Tb179 Tb 0.6916 0.4146 0.09861 0.0
N180 N 0.69914 0.39186 0.03327 0.0
C181 C 0.70852 0.38486 0.95656 0.0
C182 C 0.6538 0.36086 0.00632 0.0
C183 C 0.65827 0.35592 0.96772 0.0
H184 H 0.80824 0.51622 0.1466 0.0
H185 H 0.62206 0.33185 0.94685 0.0
H186 H 0.60813 0.35946 0.23291 0.0
H187 H 0.77936 0.1304 0.11859 0.0
H188 H 0.61259 0.34278 0.01462 0.0
H189 H 0.71077 0.38366 0.92705 0.0
H190 H 0.71569 0.18687 0.10405 0.0
H191 H 0.89914 0.57035 0.13217 0.0
H192 H 0.80982 0.44923 0.94495 0.0
H193 H 0.88649 0.51117 -0.00502 0.0
H194 H 0.62879 0.37893 0.30212 0.0
H195 H 0.92039 0.55624 0.06477 0.0
H196 H 0.81595 0.15231 0.18579 0.0
N197 N 0.67565 0.31716 0.21592 0.0
C198 C 0.7138 0.2922 0.22724 0.0
C199 C 0.65376 0.35532 0.28139 0.0
C200 C 0.72615 0.30077 0.26628 0.0
C201 C 0.64255 0.34462 0.24219 0.0
C202 C 0.69662 0.33438 0.29355 0.0
N203 N 0.71855 0.2426 0.16215 0.0
C204 C 0.732 0.19755 0.1334 0.0
C205 C 0.77159 0.22129 0.209 0.0
C206 C 0.73581 0.25296 0.19919 0.0
C207 C 0.78848 0.17767 0.17949 0.0
C208 C 0.76786 0.16516 0.14155 0.0
H209 H 0.70416 0.34154 0.32376 0.0
H210 H 0.77608 0.27956 0.30624 0.0
H211 H 0.81581 0.20976 0.25608 0.0
O212 O 0.61382 0.23306 0.16885 0.0
O213 O 0.67412 0.39305 0.18927 0.0
O214 O 0.73245 0.44868 0.15958 0.0
O215 O 0.59216 0.23995 0.11376 0.0
O216 O 0.75743 0.31665 0.13559 0.0
O217 O 0.77485 0.38601 0.10368 0.0
O218 O 0.67631 0.49813 0.13088 0.0
O219 O 0.64382 0.32083 0.06712 0.0
O220 O 0.68921 0.26997 0.09209 0.0
O221 O 0.66023 0.46331 0.06969 0.0
O222 O 0.59517 0.38031 0.10299 0.0
O223 O 0.58705 0.34212 0.15246 0.0
C224 C 0.7162 0.43926 0.19174 0.0
C225 C 0.55292 0.14613 0.12433 0.0
C226 C 0.51872 0.05673 0.14186 0.0
C227 C 0.48134 1.03099 0.10847 0.0
C228 C 0.51565 0.11971 0.09074 0.0
C229 C 0.48022 0.06235 0.08285 0.0
C230 C 0.55482 0.11365 0.14931 0.0
C231 C 0.79457 0.34992 0.1187 0.0
C232 C 0.57917 0.21079 0.13787 0.0
C233 C 0.76499 0.27272 0.27648 0.0
C234 C 0.78764 0.23289 0.24786 0.0
C235 C 0.66326 0.27342 0.06218 0.0
C236 C 0.68688 0.56738 0.09483 0.0
C237 C 0.68929 0.63532 0.05737 0.0
C238 C 0.73546 0.67586 0.08235 0.0
C239 C 0.73282 0.60921 0.11934 0.0
C240 C 0.665 0.58102 0.06387 0.0
C241 C 0.75681 0.66294 0.11306 0.0
C242 C 0.56174 0.36045 0.12756 0.0
C243 C 0.66211 0.50869 0.09996 0.0
H244 H 0.45273 0.98728 0.10264 0.0
H245 H 0.51202 0.14431 0.07152 0.0
H246 H 0.45104 1.04261 0.0572 0.0
H247 H 0.58193 0.13381 0.176 0.0
H248 H 0.75501 0.71768 0.07803 0.0
H249 H 0.75054 0.60029 0.14318 0.0
H250 H 0.62962 0.54918 0.04459 0.0
H251 H 0.79241 0.69475 0.13206 0.0
Tb252 Tb 0.40551 0.67373 0.54294 0.0
C253 C 0.35681 0.78062 0.7049 0.0
N254 N 0.35287 0.72226 0.68644 0.0
C255 C 0.39359 0.71403 0.74317 0.0
C256 C 0.38369 0.80949 0.74218 0.0
C257 C 0.36777 0.68781 0.70568 0.0
C258 C 0.40359 0.77553 0.76091 0.0
C259 C 0.33322 0.87083 0.70482 0.0
C260 C 0.33156 0.8105 0.68667 0.0
C261 C 0.36405 0.90162 0.74074 0.0
C262 C 0.38979 0.87097 0.75911 0.0
Tb263 Tb 0.32341 0.68848 0.62239 0.0
N264 N 0.30499 0.78005 0.65101 0.0
C265 C 0.30693 0.89904 0.68512 0.0
C266 C 0.27043 0.80466 0.63489 0.0
C267 C 0.27477 0.86579 0.65014 0.0
H268 H 0.36147 0.64055 0.69144 0.0
H269 H 0.2535 0.88708 0.63489 0.0
H270 H 0.4426 0.7571 0.48607 0.0
H271 H 0.23026 0.47445 0.51448 0.0
H272 H 0.24747 0.77981 0.6072 0.0
H273 H 0.31313 0.94661 0.69626 0.0
H274 H 0.29405 0.56792 0.55482 0.0
H275 H 0.40751 0.68721 0.75783 0.0
H276 H 0.36839 0.94891 0.75442 0.0
H277 H 0.41538 0.89552 0.78581 0.0
H278 H 0.43754 0.74143 0.41684 0.0
H279 H 0.42618 0.79582 0.78904 0.0
H280 H 0.2332 0.44259 0.44398 0.0
N281 N 0.3982 0.66762 0.47971 0.0
C282 C 0.36795 0.6146 0.45495 0.0
C283 C 0.41834 0.70511 0.42711 0.0
C284 C 0.36351 0.60403 0.41499 0.0
C285 C 0.42129 0.71362 0.46647 0.0
C286 C 0.39026 0.64972 0.40116 0.0
N287 N 0.33684 0.58852 0.50902 0.0
C288 C 0.29731 0.55463 0.52464 0.0
C289 C 0.29928 0.5205 0.44553 0.0
C290 C 0.33624 0.57345 0.47011 0.0
C291 C 0.26227 0.48354 0.46183 0.0
C292 C 0.26038 0.50143 0.50156 0.0
H293 H 0.38755 0.64344 0.3707 0.0
H294 H 0.32719 0.54026 0.35952 0.0
H295 H 0.27072 0.46686 0.38632 0.0
O296 O 0.47023 0.62841 0.52735 0.0
O297 O 0.31901 0.6838 0.52327 0.0
O298 O 0.26377 0.6702 0.57076 0.0
O299 O 0.48356 0.71833 0.529 0.0
O300 O 0.40897 0.59135 0.56002 0.0
O301 O 0.35706 0.60015 0.61228 0.0
O302 O 0.26724 0.6753 0.66376 0.0
O303 O 0.40815 0.68162 0.6369 0.0
O304 O 0.44607 0.736 0.60229 0.0
O305 O 0.24621 0.62126 0.60456 0.0
O306 O 0.36008 0.78123 0.60914 0.0
O307 O 0.40604 0.76887 0.55427 0.0
C308 C 0.26687 0.67609 0.53635 0.0
C309 C 0.55513 0.69679 0.5611 0.0
C310 C 0.60856 0.67152 0.60767 0.0
C311 C 0.62883 0.73283 0.62813 0.0
C312 C 0.57811 0.75757 0.58147 0.0
C313 C 0.61408 0.77522 0.6149 0.0
C314 C 0.57119 0.65448 0.57409 0.0
C315 C 0.38809 0.56751 0.58683 0.0
C316 C 0.50808 0.67752 0.53032 0.0
C317 C 0.3302 0.54948 0.39031 0.0
C318 C 0.29815 0.50773 0.40556 0.0
C319 C 0.45057 0.72333 0.63422 0.0
C320 C 0.1688 0.63793 0.64301 0.0
C321 C 0.09748 0.6917 0.67369 0.0
C322 C 1.05477 0.63889 0.65544 0.0
C323 C 0.1248 0.58842 0.62333 0.0
C324 C 0.1549 0.68853 0.6684 0.0
C325 C 1.06834 0.58875 0.62989 0.0
C326 C 0.38705 0.80582 0.58305 0.0
C327 C 0.22875 0.63422 0.63896 0.0
H328 H 0.65675 0.74888 0.65411 0.0
H329 H 0.56658 0.79163 0.5725 0.0
H330 H 0.63031 0.82215 0.63086 0.0
H331 H 0.55411 0.60801 0.55744 0.0
H332 H 1.01075 0.63376 0.66073 0.0
H333 H 0.13421 0.54866 0.60385 0.0
H334 H 0.18962 0.72514 0.68477 0.0
H335 H 1.03474 0.5493 0.61562 0.0
Tb336 Tb 0.59226 0.9189 0.88479 0.0
C337 C 0.58457 1.04054 0.75064 0.0
N338 N 0.6189 1.01492 0.7652 0.0
C339 C 0.65361 0.98002 0.70304 0.0
C340 C 0.58159 1.03504 0.7114 0.0
C341 C 0.65575 0.98781 0.74236 0.0
C342 C 0.6158 1.00307 0.68737 0.0
C343 C 0.52403 0.1087 0.76328 0.0
C344 C 0.55619 0.07644 0.776 0.0
C345 C 0.5177 0.10055 0.72389 0.0
C346 C 0.54644 0.06368 0.69792 0.0
Tb347 Tb 0.61867 1.02931 0.83012 0.0
N348 N 0.56569 0.08493 0.81383 0.0
C349 C 0.50231 0.15076 0.79077 0.0
C350 C 0.54928 0.12978 0.84077 0.0
C351 C 0.51609 0.16228 0.82975 0.0
H352 H 0.68618 0.9711 0.75436 0.0
H353 H 0.5019 0.19672 0.8513 0.0
H354 H 0.49624 0.79527 0.84023 0.0
H355 H 0.6435 1.02787 0.0385 0.0
H356 H 0.56182 0.14064 0.87085 0.0
H357 H 0.4774 0.17657 0.78226 0.0
H358 H 0.66374 0.9999 0.97094 0.0
H359 H 0.68159 0.95683 0.68495 0.0
H360 H 0.49275 0.12448 0.71349 0.0
H361 H 0.54298 0.05949 0.6678 0.0
H362 H 0.40565 0.7365 0.85323 0.0
H363 H 0.61468 0.99761 0.65702 0.0
H364 H 0.54949 0.9855 0.05638 0.0
N365 N 0.50815 0.86294 0.89495 0.0
C366 C 0.49041 0.87943 0.93073 0.0
C367 C 0.42869 0.77698 0.87521 0.0
C368 C 0.43948 0.84655 0.93982 0.0
C369 C 0.47992 0.8107 0.86785 0.0
C370 C 0.40764 0.79577 0.91112 0.0
N371 N 0.57815 0.95071 0.94935 0.0
C372 C 0.6206 0.98527 0.97774 0.0
C373 C 0.5141 0.93815 -0.00223 0.0
C374 C 0.52678 0.92521 0.95908 0.0
C375 C 0.55629 0.97679 0.0264 0.0
C376 C 0.60982 1.0002 0.01639 0.0
H377 H 0.3683 0.76924 0.91693 0.0
H378 H 0.38493 0.83867 0.9853 0.0
H379 H 0.45087 0.9182 0.03624 0.0
O380 O 0.61905 0.84009 0.85777 0.0
O381 O 0.63862 1.01317 0.91351 0.0
O382 O 0.58989 0.0608 0.88847 0.0
O383 O 0.61929 0.87469 0.9191 0.0
O384 O 0.68856 0.95487 0.88089 0.0
O385 O 0.69394 0.98585 0.82844 0.0
O386 O 0.66922 0.10006 0.81613 0.0
O387 O 0.60476 0.93649 0.79104 0.0
O388 O 0.55348 0.87809 0.82303 0.0
O389 O 0.6889 0.08658 0.86923 0.0
O390 O 0.52225 1.00904 0.84111 0.0
O391 O 0.50692 0.94352 0.87634 0.0
C392 C 0.61589 0.05845 0.91886 0.0
C393 C 0.60986 0.77092 0.89371 0.0
C394 C 0.61386 0.702 0.92959 0.0
C395 C 0.57777 0.65594 0.89994 0.0
C396 C 0.57447 0.72343 0.86447 0.0
C397 C 0.55836 0.66662 0.86777 0.0
C398 C 0.62967 0.75973 0.92633 0.0
C399 C 0.72083 0.97147 0.85473 0.0
C400 C 0.62828 0.8317 0.89037 0.0
C401 C 0.42412 0.863 0.97775 0.0
C402 C 0.46162 0.90847 0.00676 0.0
C403 C 0.56731 0.88745 0.79026 0.0
C404 C 0.72121 0.18564 0.86571 0.0
C405 C 0.74941 0.28189 0.85592 0.0
C406 C 0.77769 0.30729 0.8928 0.0
C407 C 0.74943 0.21174 0.90275 0.0
C408 C 0.72079 0.22151 0.84277 0.0
C409 C 0.77685 0.27249 0.9164 0.0
C410 C 0.48587 0.97673 0.85913 0.0
C411 C 0.70196 0.12038 0.8479 0.0
H412 H 0.56492 0.61138 0.90161 0.0
H413 H 0.55937 0.72998 0.83894 0.0
H414 H 0.53089 0.63044 0.84505 0.0
H415 H 0.65771 0.79563 0.94895 0.0
H416 H 0.80133 0.35344 0.90275 0.0
H417 H 0.75251 0.18493 0.92046 0.0
H418 H 0.70066 0.20209 0.81367 0.0
H419 H 0.7991 0.29215 0.94482 0.0
Tb420 Tb 0.9746 0.62749 0.35808 0.0
C421 C 0.95626 0.68338 0.52257 0.0
N422 N 0.91973 0.63371 0.49815 0.0
C423 C 0.91308 0.58612 0.54623 0.0
C424 C 0.97174 0.68626 0.56021 0.0
C425 C 0.89971 0.58462 0.50903 0.0
C426 C 0.94861 0.63739 0.57209 0.0
C427 C 1.0246 0.77798 0.53234 0.0
C428 C 0.98174 0.72926 0.50865 0.0
C429 C 1.03839 0.78182 0.57021 0.0
C430 C 1.01178 0.73636 0.58421 0.0
Tb431 Tb 0.89724 0.63849 0.43922 0.0
N432 N 0.96954 0.72282 0.47095 0.0
C433 C 1.05513 0.81973 0.5167 0.0
C434 C 1.00396 0.7608 0.4552 0.0
C435 C 1.04559 0.81033 0.47778 0.0
H436 H 0.87298 0.54436 0.48927 0.0
H437 H 1.07127 0.84056 0.46485 0.0
H438 H 0.91462 0.65978 0.28853 0.0
H439 H 0.09053 0.4596 0.34643 0.0
H440 H 1.00101 0.75341 0.42519 0.0
H441 H 0.08827 0.85758 0.53393 0.0
H442 H 1.06413 0.55368 0.37728 0.0
H443 H 0.89626 0.54751 0.55484 0.0
H444 H 1.0715 0.81862 0.58839 0.0
H445 H 1.0243 0.73922 0.61312 0.0
H446 H 0.88082 0.61054 0.21999 0.0
H447 H 0.95941 0.63803 0.60074 0.0
H448 H 1.04961 0.39615 0.2807 0.0
N449 N 0.94444 0.58714 0.2935 0.0
C450 C 0.95461 0.53364 0.27434 0.0
C451 C 0.90126 0.58825 0.23497 0.0
C452 C 0.9382 0.5051 0.23477 0.0
C453 C 0.91987 0.61566 0.27395 0.0
C454 C 0.91006 0.53244 0.21533 0.0
N455 N 1.00554 0.54242 0.33088 0.0
C456 C 1.04629 0.527 0.34858 0.0
C457 C 1.00178 0.45712 0.27438 0.0
C458 C 0.98621 0.51033 0.29377 0.0
C459 C 1.03755 0.43739 0.29428 0.0
C460 C 1.06089 0.47318 0.3313 0.0
H461 H 0.89648 0.5116 0.185 0.0
H462 H 0.94124 0.43005 0.18506 0.0
H463 H 0.99543 0.38637 0.21986 0.0
O464 O 1.02463 0.65105 0.31664 0.0
O465 O 0.88814 0.63089 0.34588 0.0
O466 O 0.85182 0.57463 0.38011 0.0
O467 O 1.04978 0.69736 0.37662 0.0
O468 O 0.94675 0.53435 0.37193 0.0
O469 O 0.89322 0.54219 0.42382 0.0
O470 O 0.80759 0.61695 0.43091 0.0
O471 O 0.98228 0.61597 0.45034 0.0
O472 O 1.0355 0.6539 0.41024 0.0
O473 O 0.84819 0.65997 0.48704 0.0
O474 O 0.89164 0.72313 0.42519 0.0
O475 O 0.93436 0.71146 0.36879 0.0
C476 C 0.84785 0.58683 0.34763 0.0
C477 C 0.12325 0.69085 0.33374 0.0
C478 C 0.19078 0.64532 0.29318 0.0
C479 C 0.23325 0.69865 0.30859 0.0
C480 C 0.16642 0.74345 0.34926 0.0
C481 C 0.22141 0.74686 0.33725 0.0
C482 C 0.13654 0.6411 0.30719 0.0
C483 C 0.91608 0.5078 0.39615 0.0
C484 C 1.06365 0.6909 0.34168 0.0
C485 C 0.95243 0.45152 0.21552 0.0
C486 C 0.9836 0.42708 0.23534 0.0
C487 C 1.03463 0.63475 0.43986 0.0
C488 C 0.76751 0.58056 0.47952 0.0
C489 C 0.71898 0.54628 0.52913 0.0
C490 C 0.72472 0.48863 0.50992 0.0
C491 C 0.76747 0.52141 0.45898 0.0
C492 C 0.74153 0.59245 0.51409 0.0
C493 C 0.74722 0.47593 0.47432 0.0
C494 C 0.90661 0.74498 0.39639 0.0
C495 C 0.8006 0.62974 0.46719 0.0
H496 H 0.27498 0.70346 0.29778 0.0
H497 H 0.15721 0.78236 0.36989 0.0
H498 H 0.2543 0.78787 0.349 0.0
H499 H 0.10351 0.60017 0.29507 0.0
H500 H 0.71038 0.45327 0.52198 0.0
H501 H 0.78619 0.51122 0.43211 0.0
H502 H 0.74005 0.63779 0.52976 0.0
H503 H 0.74999 0.43102 0.45889 0.0
Tb504 Tb 0.11168 1.0302 0.82497 0.0
C505 C 0.11477 1.01303 0.98411 0.0
N506 N 0.1461 0.98942 0.95552 0.0
C507 C 0.23095 1.03335 -0.0011 0.0
C508 C 0.14066 0.04906 0.02108 0.0
C509 C 0.20337 0.99724 0.96288 0.0
C510 C 0.19961 0.06004 0.02799 0.0
C511 C 1.02191 1.01849 0.00653 0.0
C512 C 1.05627 0.99906 0.9766 0.0
C513 C 1.04757 0.0565 0.0429 0.0
C514 C 0.10688 0.07203 0.0501 0.0
Tb515 Tb 0.09694 0.9372 0.89641 0.0
N516 N 1.03282 0.962 0.94109 0.0
C517 C 0.96283 0.99655 -0.00038 0.0
C518 C 0.97601 0.93357 0.93659 0.0
C519 C 0.9399 0.95238 0.96487 0.0
H520 H 0.22829 0.97637 0.94104 0.0
H521 H 0.89463 0.93171 0.96018 0.0
H522 H 0.97152 0.99345 0.7938 0.0
H523 H 0.29495 1.03656 0.74201 0.0
H524 H 0.9581 0.89618 0.91115 0.0
H525 H 0.93494 1.01043 0.02176 0.0
H526 H 0.24659 0.05482 0.80057 0.0
H527 H 0.27639 1.04042 0.00424 0.0
H528 H 1.02188 0.07274 0.06598 0.0
H529 H 0.12609 0.10052 0.07846 0.0
H530 H 0.91174 0.93602 0.7347 0.0
H531 H 0.2211 0.08789 0.05589 0.0
H532 H 0.24003 0.98062 0.67925 0.0
N533 N 1.04974 0.97933 0.77051 0.0
C534 C 1.07441 0.9606 0.73724 0.0
C535 C 0.95738 0.94166 0.73506 0.0
C536 C 1.04123 0.93066 0.70174 0.0
C537 C 0.99195 0.97316 0.76921 0.0
C538 C 0.98204 0.91951 0.70122 0.0
N539 N 0.16396 1.00385 0.77309 0.0
C540 C 0.22171 1.02612 0.77424 0.0
C541 C 0.15997 0.96326 0.70388 0.0
C542 C 0.13319 0.9747 0.73848 0.0
C543 C 0.21864 0.98561 0.70539 0.0
C544 C 0.24966 1.01722 0.74067 0.0
H545 H 0.95522 0.89636 0.67459 0.0
H546 H 1.04314 0.89278 0.64025 0.0
H547 H 0.14746 0.92251 0.6419 0.0
O548 O 0.16789 0.1093 0.82114 0.0
O549 O 1.07037 0.93482 0.80629 0.0
O550 O 0.11895 0.89417 0.83881 0.0
O551 O 0.07858 0.08991 0.80697 0.0
O552 O 0.19886 1.01769 0.84546 0.0
O553 O 0.18712 0.94734 0.87687 0.0
O554 O 1.05579 0.84571 0.87963 0.0
O555 O 0.14585 1.02915 0.91125 0.0
O556 O 0.10373 0.08118 0.8848 0.0
O557 O 0.11509 0.88657 0.92942 0.0
O558 O 1.01124 0.94457 0.87168 0.0
O559 O 1.02636 1.0269 0.85183 0.0
C560 C 0.09572 0.89371 0.80681 0.0
C561 C 0.13675 0.13796 0.76875 0.0
C562 C 0.1929 0.15636 0.71602 0.0
C563 C 0.14544 0.16696 0.70036 0.0
C564 C 0.09044 0.14912 0.75185 0.0
C565 C 0.09479 0.16334 0.71812 0.0
C566 C 0.18875 0.14228 0.75068 0.0
C567 C 0.22193 0.98331 0.86082 0.0
C568 C 0.128 0.12345 0.80528 0.0
C569 C 1.06804 0.91531 0.66765 0.0
C570 C 0.1273 0.93233 0.66862 0.0
C571 C 0.12338 0.0737 0.91535 0.0
C572 C 0.10802 0.78533 0.89624 0.0
C573 C 0.12987 0.70291 0.91211 0.0
C574 C 0.1559 0.68701 0.87765 0.0
C575 C 0.1342 0.76882 0.86185 0.0
C576 C 0.10612 0.75225 0.92133 0.0
C577 C 0.15805 0.71993 0.85271 0.0
C578 C 0.98943 0.98426 0.86158 0.0
C579 C 0.08296 0.837 0.90687 0.0
H580 H 0.1476 0.17772 0.67401 0.0
H581 H 1.05036 0.147 0.76489 0.0
H582 H 1.05851 0.17159 0.70562 0.0
H583 H 0.22558 0.13529 0.76332 0.0
H584 H 0.17451 0.64921 0.87015 0.0
H585 H 0.1362 0.79351 0.84208 0.0
H586 H 0.08611 0.76474 0.94799 0.0
H587 H 0.17824 0.70749 0.82619 0.0
Tb588 Tb 0.89355 0.15394 0.45272 0.0
C589 C 0.78479 0.98787 0.28753 0.0
N590 N 0.80462 0.04787 0.3035 0.0
C591 C 0.83521 0.05352 0.24246 0.0
C592 C 0.79114 0.95805 0.24872 0.0
C593 C 0.82769 0.08111 0.281 0.0
C594 C 0.81757 0.99164 0.22636 0.0
C595 C 0.73077 0.89493 0.29377 0.0
C596 C 0.75474 0.95682 0.30955 0.0
C597 C 0.73908 0.86452 0.25566 0.0
C598 C 0.76918 0.89604 0.23315 0.0
Tb599 Tb 0.78842 0.08847 0.36694 0.0
N600 N 0.74811 0.9877 0.3464 0.0
C601 C 0.69826 0.86575 0.31653 0.0
C602 C 0.71338 0.95993 0.36793 0.0
C603 C 0.68894 0.89855 0.35359 0.0
H604 H 0.83933 0.12921 0.29239 0.0
H605 H 0.66274 0.87664 0.37111 0.0
H606 H 0.87037 0.27485 0.51608 0.0
H607 H 0.08973 0.10594 0.39575 0.0
H608 H 0.70557 0.98466 0.39655 0.0
H609 H 0.67915 0.81823 0.30547 0.0
H610 H 0.99444 0.07867 0.41722 0.0
H611 H 0.85412 0.0801 0.22509 0.0
H612 H 0.72139 0.81689 0.24308 0.0
H613 H 0.77406 0.87228 0.2035 0.0
H614 H 0.92451 0.37799 0.55194 0.0
H615 H 0.82314 0.97044 0.19641 0.0
H616 H 0.14397 0.21126 0.41619 0.0
N617 N 0.942 0.24914 0.4891 0.0
C618 C 0.9982 0.26644 0.48485 0.0
C619 C 0.94582 0.34707 0.53319 0.0
C620 C 1.03034 0.32532 0.50369 0.0
C621 C 0.91535 0.28872 0.51293 0.0
C622 C 1.00359 0.36554 0.5285 0.0
N623 N 0.99026 0.16901 0.44393 0.0
C624 C 1.01694 0.12522 0.42574 0.0
C625 C 0.07919 0.24285 0.45127 0.0
C626 C 1.02234 0.22577 0.45968 0.0
C627 C 0.10196 0.1998 0.4256 0.0
C628 C 1.07132 0.1403 0.41376 0.0
H629 H 1.0268 0.41116 0.5435 0.0
H630 H 0.11228 0.38808 0.50917 0.0
H631 H 0.15436 0.31654 0.46226 0.0
O632 O 0.91749 0.17923 0.51145 0.0
O633 O 0.88157 0.23345 0.43597 0.0
O634 O 0.82719 0.19195 0.37794 0.0
O635 O 0.86278 0.09345 0.48281 0.0
O636 O 0.91973 0.11241 0.39473 0.0
O637 O 0.86907 0.13947 0.35643 0.0
O638 O 0.73274 0.08806 0.32322 0.0
O639 O 0.82513 1.01146 0.37667 0.0
O640 O 0.88778 0.0518 0.43107 0.0
O641 O 0.71065 0.11151 0.38123 0.0
O642 O 0.75474 0.08917 0.42331 0.0
O643 O 0.80839 0.176 0.46191 0.0
C644 C 0.85967 0.24188 0.40533 0.0
C645 C 0.94289 0.10129 0.52369 0.0
C646 C 1.04373 0.10162 0.52362 0.0
C647 C 1.03275 0.05598 0.53989 0.0
C648 C 0.93198 0.05551 0.53969 0.0
C649 C 0.97701 1.03319 0.54797 0.0
C650 C 0.99906 0.12446 0.51698 0.0
C651 C 0.91682 0.13044 0.36526 0.0
C652 C 0.89801 0.12623 0.51289 0.0
C653 C 0.08708 0.3428 0.49559 0.0
C654 C 0.11105 0.30196 0.46877 0.0
C655 C 0.86008 1.00231 0.40213 0.0
C656 C 0.63649 0.05761 0.33121 0.0
C657 C 0.5626 1.00966 0.27818 0.0
C658 C 0.5348 0.97164 0.29762 0.0
C659 C 0.60761 1.02044 0.35097 0.0
C660 C 0.61324 0.05242 0.29512 0.0
C661 C 0.55706 0.97754 0.33409 0.0
C662 C 0.75821 0.13715 0.45328 0.0
C663 C 0.6929 0.09879 0.34556 0.0
H664 H 1.06665 1.03755 0.54568 0.0
H665 H 0.88915 1.03716 0.54565 0.0
H666 H 0.9686 0.99769 0.56023 0.0
H667 H 1.00924 0.16191 0.50698 0.0
H668 H 0.49585 0.93805 0.28473 0.0
H669 H 0.62441 1.0238 0.37902 0.0
H670 H 0.63523 0.08105 0.27972 0.0
H671 H 0.53534 0.94849 0.3492 0.0
C672 C 1.00248 0.18145 0.33795 0.0
C673 C 0.96145 0.12862 0.33669 0.0
C674 C 0.9861 0.0793 0.27165 0.0
C675 C 1.0283 0.13181 0.27339 0.0
N676 N 0.08665 0.22733 0.31269 0.0
N677 N 0.92739 1.02298 0.30717 0.0
C678 C 1.03941 0.18137 0.30789 0.0
C679 C 0.95767 0.07612 0.30503 0.0
N680 N 1.00577 0.23212 0.36795 0.0
N681 N 0.97114 1.0334 0.23765 0.0
H682 H 0.90814 1.02031 0.33189 0.0
H683 H 0.92655 0.982 0.28662 0.0
H684 H 0.98855 1.03511 0.2121 0.0
H685 H 0.93776 0.99588 0.23388 0.0
H686 H 1.02927 0.27417 0.36889 0.0
H687 H 0.98239 0.2311 0.39126 0.0
H688 H 0.10025 0.2618 0.33862 0.0
H689 H 0.11556 0.22818 0.29187 0.0
C690 C 0.69722 0.35074 0.78867 0.0
C691 C 0.73815 0.34244 0.76139 0.0
C692 C 0.79727 0.32034 0.806 0.0
C693 C 0.75098 0.31618 0.8292 0.0
N694 N 0.65673 0.32763 0.84364 0.0
N695 N 0.82746 0.31909 0.74325 0.0
C696 C 0.70128 0.33271 0.82129 0.0
C697 C 0.78909 0.32874 0.77021 0.0
N698 N 0.65406 0.37478 0.78272 0.0
N699 N 0.84835 0.31438 0.81764 0.0
H700 H 0.82342 0.32534 0.71683 0.0
H701 H 0.86163 0.30145 0.74598 0.0
H702 H 0.85518 0.30619 0.8431 0.0
H703 H 0.88531 0.32276 0.80391 0.0
H704 H 0.62507 0.3862 0.80279 0.0
H705 H 0.6505 0.38833 0.75889 0.0
H706 H 0.61671 0.33187 0.83673 0.0
H707 H 0.65894 0.31582 0.86827 0.0
C708 C 0.8125 0.48726 0.28851 0.0
C709 C 0.80847 0.54644 0.30963 0.0
C710 C 0.74107 0.53547 0.2536 0.0
C711 C 0.74897 0.47827 0.23196 0.0
N712 N 0.80399 0.40783 0.2276 0.0
N713 N 0.77111 0.62834 0.30805 0.0
C714 C 0.7875 0.4566 0.24948 0.0
C715 C 0.77334 0.57069 0.2907 0.0
N716 N 0.84133 0.4594 0.30531 0.0
N717 N 0.70137 0.55586 0.23913 0.0
H718 H 0.78985 0.65359 0.33569 0.0
H719 H 0.75326 0.65212 0.29451 0.0
H720 H 0.67866 0.53232 0.21243 0.0
H721 H 0.68815 0.59359 0.25442 0.0
H722 H 0.8388 0.41392 0.29491 0.0
H723 H 0.86458 0.48153 0.33126 0.0
H724 H 0.83724 0.39313 0.2359 0.0
H725 H 0.78771 0.38557 0.19935 0.0
C726 C 1.03636 0.75239 0.72114 0.0
C727 C 0.08583 0.74898 0.70079 0.0
C728 C 0.13764 0.8434 0.74736 0.0
C729 C 0.09238 0.84225 0.77128 0.0
N730 N 0.99791 0.79384 0.7817 0.0
N731 N 0.15955 0.81504 0.6816 0.0
C732 C 1.0413 0.79625 0.75835 0.0
C733 C 0.1295 0.80179 0.70997 0.0
N734 N 0.98391 0.7239 0.70227 0.0
N735 N 0.1894 0.88246 0.76045 0.0
H736 H 0.15054 0.78763 0.6529 0.0
H737 H 0.18685 0.85674 0.68656 0.0
H738 H 0.19785 0.91248 0.78826 0.0
H739 H 0.22483 0.88089 0.74455 0.0
H740 H 0.94604 0.72727 0.715 0.0
H741 H 0.97868 0.70825 0.67234 0.0
H742 H 0.96202 0.75803 0.7753 0.0
H743 H 1.0004 0.82524 0.80893 0.0
C744 C 0.29811 0.11509 0.64039 0.0
C745 C 0.33613 0.17145 0.64564 0.0
C746 C 0.28684 0.21492 0.70234 0.0
C747 C 0.24555 0.15974 0.69449 0.0
N748 N 0.20825 0.05917 0.65035 0.0
N749 N 0.36035 0.2773 0.67822 0.0
C750 C 0.25016 0.11068 0.66219 0.0
C751 C 0.32876 0.22201 0.67581 0.0
N752 N 0.3062 0.06502 0.61356 0.0
N753 N 0.28613 0.26063 0.73527 0.0
H754 H 0.39105 0.28355 0.65935 0.0
H755 H 0.35335 0.3167 0.69679 0.0
H756 H 0.25554 0.25724 0.75482 0.0
H757 H 0.31844 0.29984 0.74482 0.0
H758 H 0.27961 1.02275 0.60935 0.0
H759 H 0.33981 0.06584 0.59616 0.0
H760 H 0.17037 0.0522 0.66347 0.0
H761 H 0.17037 0.0522 0.66347 0.0
C762 C 0.56284 0.99983 0.17408 0.0
C763 C 0.51854 1.02735 0.17132 0.0
C764 C 0.49438 1.03087 0.23632 0.0
C765 C 0.54019 1.00556 0.23968 0.0
N766 N 0.60818 0.95184 0.20955 0.0
N767 N 0.43312 0.05491 0.19484 0.0
C768 C 0.57098 0.98504 0.2076 0.0
C769 C 0.48093 1.03755 0.20072 0.0
N770 N 0.59869 0.99059 0.14543 0.0
N771 N 0.46644 0.0524 0.26785 0.0
H772 H 0.42294 0.06191 0.1695 0.0
H773 H 0.40104 0.05738 0.21355 0.0
H774 H 0.4745 0.04777 0.29433 0.0
H775 H 0.43765 0.07807 0.26861 0.0
H776 H 0.63606 0.97764 0.14759 0.0
H777 H 0.59223 0.99864 0.11984 0.0
H778 H 0.62883 0.93143 0.18629 0.0
H779 H 0.61468 0.94038 0.23387 0.0
C780 C 0.51859 0.86459 0.72247 0.0
C781 C 0.53922 0.8428 0.74994 0.0
C782 C 0.50879 0.74139 0.69915 0.0
C783 C 0.49003 0.7649 0.67159 0.0
N784 N 0.50763 0.85519 0.65543 0.0
N785 N 0.56296 0.75852 0.75977 0.0
C786 C 0.50424 0.82825 0.68266 0.0
C787 C 0.53668 0.78042 0.73688 0.0
N788 N 0.50802 0.91937 0.7348 0.0
N789 N 0.50143 0.68128 0.68886 0.0
H790 H 0.58402 0.78541 0.7864 0.0
H791 H 0.56798 0.71531 0.75132 0.0
H792 H 0.48932 0.65311 0.66065 0.0
H793 H 0.50612 0.65933 0.70815 0.0
H794 H 0.48889 0.93578 0.71676 0.0
H795 H 0.51123 0.94452 0.76385 0.0
H796 H 0.52281 0.90113 0.66221 0.0
H797 H 0.50249 0.83197 0.62613 0.0
C798 C 0.1594 0.57871 0.2263 0.0
C799 C 0.19902 0.59679 0.25845 0.0
C800 C 0.24834 0.52175 0.22284 0.0
C801 C 0.20236 0.4972 0.19369 0.0
N802 N 0.10821 0.498 0.17199 0.0
N803 N 0.2785 0.58118 0.28965 0.0
C804 C 0.15629 0.52456 0.19647 0.0
C805 C 0.24358 0.56788 0.25726 0.0
N806 N 0.12581 0.61539 0.22468 0.0
N807 N 0.29522 0.49927 0.21843 0.0
H808 H 0.27405 0.61205 0.31582 0.0
H809 H 0.30833 0.55775 0.29164 0.0
H810 H 0.33216 0.51868 0.23699 0.0
H811 H 0.29867 0.46348 0.19464 0.0
H812 H 0.09833 0.60848 0.20095 0.0
H813 H 0.09833 0.60848 0.20095 0.0
H814 H 1.07027 0.51102 0.17707 0.0
H815 H 0.10485 0.46088 0.14789 0.0
C816 C 0.18925 0.15247 0.97031 0.0
C817 C 0.13286 0.12289 0.9533 0.0
C818 C 0.0944 0.17892 0.01144 0.0
C819 C 0.15069 0.2092 0.02817 0.0
N820 N 0.25187 0.22242 0.02564 0.0
N821 N 1.03174 0.11182 0.95558 0.0
C822 C 0.19815 0.19479 0.00828 0.0
C823 C 0.08549 0.1376 0.97323 0.0
N824 N 0.23421 0.14311 0.94892 0.0
N825 N 1.04946 0.18688 0.03318 0.0
H826 H 1.02309 0.07732 0.92945 0.0
H827 H 0.99585 0.12595 0.9658 0.0
H828 H 1.05443 0.21448 0.06177 0.0
H829 H 1.0076 0.16226 0.02451 0.0
H830 H 0.27645 0.16604 0.95774 0.0
H831 H 0.22906 0.11517 0.92046 0.0
H832 H 0.25992 0.25738 0.05157 0.0
H833 H 0.28846 0.20998 0.01542 0.0
C834 C 0.61861 0.11518 0.50958 0.0
C835 C 0.5968 0.16557 0.51171 0.0
C836 C 0.68231 0.19946 0.47753 0.0
C837 C 0.70352 0.14842 0.47485 0.0
N838 N 0.68582 0.05413 0.48552 0.0
N839 N 0.61282 0.2587 0.49972 0.0
C840 C 0.66953 0.10542 0.48998 0.0
C841 C 0.63044 0.20842 0.49628 0.0
N842 N 0.59309 0.07849 0.52917 0.0
N843 N 0.70974 0.23784 0.45957 0.0
H844 H 0.57337 0.26417 0.50909 0.0
H845 H 0.63764 0.29613 0.49479 0.0
H846 H 0.74641 0.23298 0.44562 0.0
H847 H 0.69469 0.27223 0.45595 0.0
H848 H 0.6093 1.04503 0.53323 0.0
H849 H 0.55794 0.08489 0.54462 0.0
H850 H 0.65995 1.01683 0.49007 0.0
H851 H 0.72455 0.0475 0.47532 0.0
C852 C 0.61077 0.70384 -0.00097 0.0
C853 C 0.6352 0.68802 0.96329 0.0
C854 C 0.68921 0.63131 0.98772 0.0
C855 C 0.66781 0.65053 0.02429 0.0
N856 N 0.61331 0.71076 0.06634 0.0
N857 N 0.70421 0.64434 0.9255 0.0
C858 C 0.63008 0.68852 0.03035 0.0
C859 C 0.67618 0.65373 0.9582 0.0
N860 N 0.56742 0.73156 0.0026 0.0
N861 N 0.72151 0.59088 0.98103 0.0
H862 H 0.69622 0.66044 0.90357 0.0
H863 H 0.73866 0.62523 0.9214 0.0
H864 H 0.73327 0.57487 0.00211 0.0
H865 H 0.73317 0.5697 0.95399 0.0
H866 H 0.54312 0.73828 0.0261 0.0
H867 H 0.55288 0.74437 0.98073 0.0
H868 H 0.59175 0.74426 0.07405 0.0
H869 H 0.62399 0.69822 0.08938 0.0
C870 C 0.20501 0.66941 0.47239 0.0
C871 C 0.20791 0.66838 0.51132 0.0
C872 C 0.09866 0.63297 0.49982 0.0
C873 C 0.09477 0.64121 0.4631 0.0
N874 N 0.15379 0.66713 0.41508 0.0
N875 N 0.14652 0.67026 0.56374 0.0
C876 C 0.15074 0.65933 0.44998 0.0
C877 C 0.15164 0.65604 0.52524 0.0
N878 N 0.25451 0.67973 0.45538 0.0
N879 N 1.05244 0.59967 0.51061 0.0
H880 H 0.1801 0.69431 0.58435 0.0
H881 H 0.10713 0.66721 0.57526 0.0
H882 H 1.01607 0.57592 0.49217 0.0
H883 H 1.05389 0.58808 0.53539 0.0
H884 H 0.25647 0.66698 0.4257 0.0
H885 H 0.29368 0.7021 0.47062 0.0
H886 H 0.18917 0.6939 0.40778 0.0
H887 H 0.12258 0.64433 0.39268 0.0
C888 C 0.58285 0.13584 0.97441 0.0
C889 C 0.62842 0.11277 0.95633 0.0
C890 C 0.69587 0.19534 0.00717 0.0
C891 C 0.65049 0.21926 0.02472 0.0
N892 N 0.55004 0.21419 0.02176 0.0
N893 N 0.72844 0.11543 0.96176 0.0
C894 C 0.59389 0.19009 0.00722 0.0
C895 C 0.68477 0.14095 0.97466 0.0
N896 N 0.52823 0.10247 0.96243 0.0
N897 N 0.75071 0.22748 0.01968 0.0
H898 H 0.72553 0.0808 0.93606 0.0
H899 H 0.76758 0.12709 0.97751 0.0
H900 H 0.76096 0.26763 0.04234 0.0
H901 H 0.78597 0.21794 0.00537 0.0
H902 H 0.49274 0.11193 0.97643 0.0
H903 H 0.51854 0.06125 0.94063 0.0
H904 H 0.50956 0.20116 0.00757 0.0
H905 H 0.55449 0.24972 0.04723 0.0
C906 C 0.68999 0.63822 0.6264 0.0
C907 C 0.63083 0.62557 0.61805 0.0
C908 C 0.63197 0.53528 0.56692 0.0
C909 C 0.69119 0.56029 0.56563 0.0
N910 N 0.7797 0.62363 0.6012 0.0
N911 N 0.55031 0.54234 0.60496 0.0
C912 C 0.72164 0.60738 0.59828 0.0
C913 C 0.60416 0.56574 0.59781 0.0
N914 N 0.71412 0.67641 0.66145 0.0
N915 N 0.60121 0.48787 0.53742 0.0
H916 H 0.52984 0.56781 0.62635 0.0
H917 H 0.52923 0.49758 0.59227 0.0
H918 H 0.61875 0.46567 0.51312 0.0
H919 H 0.55707 0.47278 0.53613 0.0
H920 H 0.75703 0.68524 0.67033 0.0
H921 H 0.68889 0.69418 0.68277 0.0
H922 H 0.80394 0.66141 0.62228 0.0
H923 H 0.8032 0.59906 0.58174 0.0
C924 C 0.16831 0.68878 0.97092 0.0
C925 C 0.12758 0.66791 0.93873 0.0
C926 C 0.08305 0.58071 0.95729 0.0
C927 C 0.1196 0.60514 0.99171 0.0
N928 N 0.19333 0.68528 0.03369 0.0
N929 N 1.04301 0.59718 0.90249 0.0
C930 C 0.16158 0.65977 -0.00093 0.0
C931 C 0.08422 0.61449 0.93211 0.0
N932 N 0.21399 0.73576 0.9742 0.0
N933 N 1.04787 0.52474 0.94847 0.0
H934 H 1.04305 0.62017 0.88309 0.0
H935 H 1.00664 0.56259 0.89863 0.0
H936 H 1.046 0.49902 0.96638 0.0
H937 H 1.02418 0.50173 0.92215 0.0
H938 H 0.24846 0.7491 -0.00538 0.0
H939 H 0.21978 0.75866 0.95447 0.0
H940 H 0.21966 0.72833 0.0427 0.0
H941 H 0.1905 0.66502 0.05477 0.0
C942 C 0.16805 0.11944 0.46153 0.0
C943 C 0.19462 0.18139 0.47861 0.0
C944 C 0.12662 0.18839 0.52832 0.0
C945 C 0.10048 0.12634 0.51147 0.0
N946 N 0.09033 1.03452 0.45889 0.0
N947 N 0.20406 0.27356 0.53087 0.0
C948 C 0.12029 0.09202 0.47761 0.0
C949 C 0.17451 0.21585 0.51231 0.0
N950 N 0.18854 0.0869 0.42938 0.0
N951 N 0.1053 0.22105 0.56001 0.0
H952 H 0.24001 0.29523 0.52093 0.0
H953 H 0.19586 0.29958 0.55767 0.0
H954 H 1.0755 0.20149 0.57545 0.0
H955 H 0.11537 0.26734 0.57045 0.0
H956 H 0.17826 1.04061 0.41877 0.0
H957 H 0.21761 0.10654 0.41358 0.0
H958 H 0.09759 1.00903 0.43165 0.0
H959 H 1.05513 1.01251 0.46933 0.0
C960 C 0.96091 0.37476 0.09137 0.0
C961 C 0.9897 0.34503 0.11109 0.0
C962 C 0.89184 0.32018 0.13736 0.0
C963 C 0.86171 0.34568 0.11535 0.0
N964 N 0.87316 0.37386 0.05833 0.0
N965 N 0.96428 0.26695 0.13938 0.0
C966 C 0.89825 0.36658 0.08896 0.0
C967 C 0.94966 0.31155 0.13012 0.0
N968 N 0.99223 0.41159 0.07396 0.0
N969 N 0.86718 0.30534 0.16705 0.0
H970 H 1.00038 0.25234 0.1303 0.0
H971 H 0.93596 0.23798 0.15024 0.0
H972 H 0.82775 0.31121 0.17487 0.0
H973 H 0.8891 0.29378 0.18665 0.0
H974 H 0.97514 0.43988 0.06399 0.0
H975 H 1.03555 0.41757 0.07185 0.0
H976 H 0.89574 0.38346 0.03618 0.0
H977 H 0.82935 0.36066 0.05168 0.0
C978 C 0.43023 0.95453 0.54967 0.0
C979 C 0.43515 1.00734 0.58299 0.0
C980 C 0.41221 0.92952 0.61838 0.0
C981 C 0.40001 0.87661 0.58438 0.0
N982 N 0.38296 0.84986 0.51569 0.0
N983 N 0.41576 1.03561 0.6496 0.0
C984 C 0.40524 0.89294 0.54974 0.0
C985 C 0.42185 0.9916 0.61731 0.0
N986 N 0.4525 0.96199 0.51721 0.0
N987 N 0.41769 0.92172 0.6528 0.0
H988 H 0.42194 0.07961 0.65069 0.0
H989 H 0.39918 1.02729 0.67389 0.0
H990 H 0.41254 0.87958 0.65495 0.0
H991 H 0.4314 0.95704 0.6783 0.0
H992 H 0.4559 0.92637 0.49329 0.0
H993 H 0.47364 1.00361 0.51599 0.0
H994 H 0.38049 0.85885 0.49004 0.0
H995 H 0.35984 0.8073 0.51403 0.0
C996 C 0.37013 0.92701 0.85504 0.0
C997 C 0.4176 0.97875 0.86053 0.0
C998 C 0.33755 1.03398 0.86434 0.0
C999 C 0.29011 0.9824 0.85958 0.0
N1000 N 0.26823 0.8774 0.85019 0.0
N1001 N 0.43888 0.08523 0.88235 0.0
C1002 C 0.30918 0.92892 0.85544 0.0
C1003 C 0.39851 1.03278 0.86782 0.0
N1004 N 0.38299 0.87346 0.84655 0.0
N1005 N 0.32524 0.08617 0.86608 0.0
H1006 H 0.48097 0.08641 0.88872 0.0
H1007 H 0.42988 0.12669 0.89288 0.0
H1008 H 0.28425 0.0921 0.86775 0.0
H1009 H 0.35534 0.12248 0.8633 0.0
H1010 H 0.35354 0.83231 0.83853 0.0
H1011 H 0.4244 0.86994 0.84315 0.0
H1012 H 0.27536 0.84029 0.85542 0.0
H1013 H 0.22627 0.87159 0.84055 0.0
C1014 C 0.83226 0.33561 0.38949 0.0
C1015 C 0.87454 0.31007 0.40108 0.0
C1016 C 0.94459 0.41118 0.40389 0.0
C1017 C 0.90254 0.43697 0.3933 0.0
N1018 N 0.80189 0.41969 0.37983 0.0
N1019 N 0.97158 0.3403 0.42909 0.0
C1020 C 0.84537 0.39744 0.38722 0.0
C1021 C 0.93061 0.35281 0.41052 0.0
N1022 N 0.77764 0.30107 0.38172 0.0
N1023 N 0.99986 0.44351 0.4087 0.0
H1024 H 0.96423 0.30154 0.43528 0.0
H1025 H 1.01 0.37039 0.44187 0.0
H1026 H 1.01108 0.48734 0.40885 0.0
H1027 H 1.03455 0.42574 0.40971 0.0
H1028 H 0.74393 0.31177 0.37061 0.0
H1029 H 0.76565 0.25972 0.38558 0.0
H1030 H 0.75915 0.40098 0.38123 0.0
H1031 H 0.8089 0.4603 0.3751 0.0
C1032 C 0.386 0.30474 0.12045 0.0
C1033 C 0.3638 0.35498 0.12182 0.0
C1034 C 0.47051 0.40821 0.12421 0.0
C1035 C 0.49288 0.35947 0.12702 0.0
N1036 N 0.46123 0.26559 0.13855 0.0
N1037 N 0.39359 0.46023 0.13316 0.0
C1038 C 0.44724 0.30947 0.12833 0.0
C1039 C 0.40889 0.40786 0.12556 0.0
N1040 N 0.34878 0.24992 0.10917 0.0
N1041 N 0.50846 0.45711 0.12116 0.0
H1042 H 0.35149 0.46278 0.136 0.0
H1043 H 0.42274 0.50165 0.14064 0.0
H1044 H 0.55229 0.46331 0.12473 0.0
H1045 H 0.49633 0.49005 0.1133 0.0
H1046 H 0.36166 0.21048 0.103 0.0
H1047 H 0.30581 0.24371 0.10171 0.0
H1048 H 0.43113 0.23139 0.14383 0.0
H1049 H 0.5026 0.26808 0.14694 0.0
C1050 C 0.42243 0.39796 0.55162 0.0
C1051 C 0.42479 0.37824 0.58478 0.0
C1052 C 0.40895 0.48494 0.62053 0.0
C1053 C 0.39977 0.50137 0.58663 0.0
N1054 N 0.39038 0.45743 0.51744 0.0
N1055 N 0.41482 0.41187 0.65271 0.0
C1056 C 0.40478 0.45301 0.55191 0.0
C1057 C 0.41664 0.42487 0.61946 0.0
N1058 N 0.44181 0.36606 0.51893 0.0
N1059 N 0.41395 0.52871 0.65517 0.0
H1060 H 0.4231 0.37304 0.65426 0.0
H1061 H 0.40128 0.43724 0.67787 0.0
H1062 H 0.4094 0.57081 0.65753 0.0
H1063 H 0.42828 0.52558 0.68086 0.0
H1064 H 0.44898 0.38012 0.49514 0.0
H1065 H 0.458 0.32979 0.5175 0.0
H1066 H 0.38442 0.42205 0.49168 0.0
H1067 H 0.37856 0.49405 0.51486 0.0
C1068 C 0.83457 1.02349 0.85284 0.0
C1069 C 0.78989 0.97362 0.85516 0.0
C1070 C 0.87502 0.92679 0.8558 0.0
C1071 C 0.91997 0.9804 0.86008 0.0
N1072 N 0.93166 0.08588 0.87225 0.0
N1073 N 0.77685 0.87765 0.86309 0.0
C1074 C 0.89616 1.03003 0.86127 0.0
C1075 C 0.81351 0.9261 0.85852 0.0
N1076 N 0.8193 0.06538 0.84103 0.0
N1077 N 0.88956 0.8738 0.84576 0.0
H1078 H 0.73292 0.87141 0.86095 0.0
H1079 H 0.79047 0.84558 0.8711 0.0
H1080 H 0.93065 0.87016 0.8401 0.0
H1081 H 0.85977 0.83273 0.83812 0.0
H1082 H 0.84875 0.09943 0.83513 0.0
H1083 H 0.77773 0.06089 0.83173 0.0
H1084 H 0.91681 0.1241 0.87775 0.0
H1085 H 0.97461 0.09508 0.88079 0.0
C1086 C 0.87933 0.82502 0.3631 0.0
C1087 C 0.89407 0.81076 0.39686 0.0
C1088 C 0.87643 0.91609 0.43248 0.0
C1089 C 0.86955 0.93416 0.39911 0.0
N1090 N 0.86676 0.89516 0.33015 0.0
N1091 N 0.91371 0.85848 0.46559 0.0
C1092 C 0.87168 0.88506 0.36402 0.0
C1093 C 0.89433 0.86107 0.43166 0.0
N1094 N 0.8686 0.77921 0.32907 0.0
N1095 N 0.86035 0.94914 0.4661 0.0
H1096 H 0.92537 0.8217 0.46802 0.0
H1097 H 0.92334 0.89523 0.49071 0.0
H1098 H 0.84246 0.98436 0.46778 0.0
H1099 H 0.85655 0.93622 0.49046 0.0
H1100 H 0.85065 0.78123 0.30405 0.0
H1101 H 0.87211 0.73678 0.3269 0.0
H1102 H 0.8764 0.86813 0.30409 0.0
H1103 H 0.8557 0.93271 0.32861 0.0
loop_
_geom_bond_atom_site_label_1
_geom_bond_atom_site_label_2
_geom_bond_distance
_geom_bond_site_symmetry_2
_ccdc_geom_bond_type
Tb0 N29 2.617 1_454 S
Tb0 N35 2.572 1_554 S
Tb0 O44 2.465 . S
Tb0 O45 2.387 . S
Tb0 O47 2.428 . S
Tb0 O48 2.308 . S
Tb0 O52 2.349 . S
Tb0 O55 2.393 1_455 S
Tb0 C64 2.802 . S
C1 N2 1.379 . S
C1 C4 1.416 . S
C1 C8 1.424 . S
N2 C1 1.379 . S
N2 C5 1.334 . S
N2 Tb11 2.617 . S
C3 C5 1.390 . S
C3 C6 1.339 . S
C3 H23 0.930 . S
C4 C1 1.416 . S
C4 C6 1.416 . S
C4 C10 1.448 . S
C5 N2 1.334 . S
C5 C3 1.390 . S
C5 H16 0.930 . S
C6 C3 1.339 . S
C6 C4 1.416 . S
C6 H27 0.930 . S
C7 C8 1.413 . S
C7 C9 1.427 . S
C7 C13 1.416 1_455 S
C8 C1 1.424 . S
C8 C7 1.413 . S
C8 N12 1.361 . S
C9 C7 1.427 . S
C9 C10 1.328 . S
C9 H24 0.929 . S
C10 C4 1.448 . S
C10 C9 1.328 . S
C10 H25 0.930 . S
Tb11 N2 2.617 . S
Tb11 N12 2.572 . S
Tb11 O46 2.349 . S
Tb11 O49 2.393 . S
Tb11 O50 2.465 1_455 S
Tb11 O51 2.387 . S
Tb11 O53 2.428 . S
Tb11 O54 2.308 1_455 S
Tb11 C75 2.802 . S
N12 C8 1.361 . S
N12 Tb11 2.572 . S
N12 C14 1.340 1_455 S
C13 C7 1.416 1_655 S
C13 C15 1.332 . S
C13 H21 0.931 . S
C14 N12 1.340 1_655 S
C14 C15 1.407 . S
C14 H20 0.930 . S
C15 C13 1.332 . S
C15 C14 1.407 . S
C15 H17 0.929 . S
H16 C5 0.930 . S
H17 C15 0.929 . S
H18 C33 0.930 1_554 S
H19 C40 0.929 . S
H20 C14 0.930 . S
H21 C13 0.931 . S
H22 C36 0.930 1_554 S
H23 C3 0.930 . S
H24 C9 0.929 . S
H25 C10 0.930 . S
H26 C31 0.930 . S
H27 C6 0.930 . S
H28 C39 0.931 . S
N29 Tb0 2.617 1_656 S
N29 C30 1.379 1_655 S
N29 C33 1.334 . S
C30 N29 1.379 1_455 S
C30 C32 1.416 1_455 S
C30 C38 1.424 . S
C31 H26 0.930 . S
C31 C33 1.390 . S
C31 C34 1.339 . S
C32 C30 1.416 1_655 S
C32 C34 1.416 . S
C32 C65 1.462 . S
C33 H18 0.930 1_556 S
C33 N29 1.334 . S
C33 C31 1.390 . S
C34 C31 1.339 . S
C34 C32 1.416 . S
C34 H41 0.930 . S
N35 Tb0 2.572 1_556 S
N35 C36 1.340 . S
N35 C38 1.361 . S
C36 H22 0.930 1_556 S
C36 N35 1.340 . S
C36 C40 1.407 . S
C37 C38 1.413 . S
C37 C39 1.416 . S
C37 C66 1.427 . S
C38 C30 1.424 . S
C38 N35 1.361 . S
C38 C37 1.413 . S
C39 H28 0.931 . S
C39 C37 1.416 . S
C39 C40 1.332 . S
C40 H19 0.929 . S
C40 C36 1.407 . S
C40 C39 1.332 . S
H41 C34 0.930 . S
H42 C65 0.941 . S
H43 C66 0.929 . S
O44 Tb0 2.465 . S
O44 C64 1.264 . S
O45 Tb0 2.387 . S
O45 C56 1.264 . S
O46 Tb11 2.349 . S
O46 C56 1.243 . S
O47 Tb0 2.428 . S
O47 C64 1.256 . S
O48 Tb0 2.308 . S
O48 C63 1.266 . S
O49 Tb11 2.393 . S
O49 C63 1.248 . S
O50 Tb11 2.465 1_655 S
O50 C75 1.264 1_655 S
O51 Tb11 2.387 . S
O51 C67 1.264 . S
O52 Tb0 2.349 . S
O52 C67 1.243 . S
O53 Tb11 2.428 . S
O53 C75 1.256 . S
O54 Tb11 2.308 1_655 S
O54 C74 1.266 . S
O55 Tb0 2.393 1_655 S
O55 C74 1.248 . S
C56 O45 1.264 . S
C56 O46 1.243 . S
C57 C60 1.399 . S
C57 C62 1.383 . S
C57 C64 1.496 . S
C58 C59 1.399 . S
C58 C62 1.389 . S
C59 C58 1.399 . S
C59 C61 1.380 . S
C59 H76 0.929 . S
C60 C57 1.399 . S
C60 C61 1.392 . S
C60 H77 0.929 . S
C61 C59 1.380 . S
C61 C60 1.392 . S
C61 H78 0.929 . S
C62 C57 1.383 . S
C62 C58 1.389 . S
C62 H79 0.931 . S
C63 O48 1.266 . S
C63 O49 1.248 . S
C64 Tb0 2.802 . S
C64 O44 1.264 . S
C64 O47 1.256 . S
C64 C57 1.496 . S
C65 C32 1.462 . S
C65 H42 0.941 . S
C65 C66 1.306 1_655 S
C66 C37 1.427 . S
C66 H43 0.929 . S
C66 C65 1.306 1_455 S
C67 O51 1.264 . S
C67 O52 1.243 . S
C68 C71 1.399 . S
C68 C72 1.383 1_455 S
C68 C75 1.496 . S
C69 C70 1.399 1_545 S
C69 C72 1.389 . S
C70 C69 1.399 1_565 S
C70 C73 1.380 1_665 S
C70 H80 0.929 . S
C71 C68 1.399 . S
C71 C73 1.392 . S
C71 H81 0.929 . S
C72 C68 1.383 1_655 S
C72 C69 1.389 . S
C72 H82 0.931 . S
C73 C70 1.380 1_445 S
C73 C71 1.392 . S
C73 H83 0.929 . S
C74 O54 1.266 . S
C74 O55 1.248 . S
C75 Tb11 2.802 . S
C75 O50 1.264 1_455 S
C75 O53 1.256 . S
C75 C68 1.496 . S
H76 C59 0.929 . S
H77 C60 0.929 . S
H78 C61 0.929 . S
H79 C62 0.931 . S
H80 C70 0.929 . S
H81 C71 0.929 . S
H82 C72 0.931 . S
H83 C73 0.929 . S
Tb84 N113 2.617 . S
Tb84 N119 2.572 . S
Tb84 O128 2.465 . S
Tb84 O129 2.387 . S
Tb84 O131 2.428 . S
Tb84 O132 2.308 . S
Tb84 O136 2.349 . S
Tb84 O139 2.393 . S
Tb84 C148 2.802 . S
C85 N86 1.379 . S
C85 C88 1.416 1_545 S
C85 C92 1.424 . S
N86 C85 1.379 . S
N86 C89 1.334 . S
N86 Tb95 2.617 . S
C87 C89 1.390 . S
C87 C90 1.339 1_545 S
C87 H107 0.930 . S
C88 C85 1.416 1_565 S
C88 C90 1.416 . S
C88 C94 1.448 . S
C89 N86 1.334 . S
C89 C87 1.390 . S
C89 H100 0.930 . S
C90 C87 1.339 1_565 S
C90 C88 1.416 . S
C90 H111 0.930 . S
C91 C92 1.413 1_565 S
C91 C93 1.427 . S
C91 C97 1.416 . S
C92 C85 1.424 . S
C92 C91 1.413 1_545 S
C92 N96 1.361 . S
C93 C91 1.427 . S
C93 C94 1.328 . S
C93 H108 0.929 . S
C94 C88 1.448 . S
C94 C93 1.328 . S
C94 H109 0.930 . S
Tb95 N86 2.617 . S
Tb95 N96 2.572 . S
Tb95 O130 2.349 . S
Tb95 O133 2.393 . S
Tb95 O134 2.465 . S
Tb95 O135 2.387 . S
Tb95 O137 2.428 . S
Tb95 O138 2.308 . S
Tb95 C159 2.802 . S
N96 C92 1.361 . S
N96 Tb95 2.572 . S
N96 C98 1.340 . S
C97 C91 1.416 . S
C97 C99 1.323 1_565 S
C97 H105 0.931 . S
C98 N96 1.340 . S
C98 C99 1.419 . S
C98 H104 0.930 . S
C99 C97 1.323 1_545 S
C99 C98 1.419 . S
C99 H101 0.927 1_545 S
H100 C89 0.930 . S
H101 C99 0.927 1_565 S
H102 C117 0.930 . S
H103 C124 0.929 . S
H104 C98 0.930 . S
H105 C97 0.931 . S
H106 C120 0.930 . S
H107 C87 0.930 . S
H108 C93 0.929 . S
H109 C94 0.930 . S
H110 C115 0.930 . S
H111 C90 0.930 . S
H112 C123 0.931 . S
N113 Tb84 2.617 . S
N113 C114 1.379 . S
N113 C117 1.334 . S
C114 N113 1.379 . S
C114 C116 1.416 . S
C114 C122 1.424 . S
C115 H110 0.930 . S
C115 C117 1.390 . S
C115 C118 1.339 . S
C116 C114 1.416 . S
C116 C118 1.416 . S
C116 C149 1.448 . S
C117 H102 0.930 . S
C117 N113 1.334 . S
C117 C115 1.390 . S
C118 C115 1.339 . S
C118 C116 1.416 . S
C118 H125 0.930 . S
N119 Tb84 2.572 . S
N119 C120 1.340 . S
N119 C122 1.361 . S
C120 H106 0.930 . S
C120 N119 1.340 . S
C120 C124 1.407 . S
C121 C122 1.413 . S
C121 C123 1.416 . S
C121 C150 1.427 . S
C122 C114 1.424 . S
C122 N119 1.361 . S
C122 C121 1.413 . S
C123 H112 0.931 . S
C123 C121 1.416 . S
C123 C124 1.332 . S
C124 H103 0.929 . S
C124 C120 1.407 . S
C124 C123 1.332 . S
H125 C118 0.930 . S
H126 C149 0.930 . S
H127 C150 0.929 . S
O128 Tb84 2.465 . S
O128 C148 1.264 . S
O129 Tb84 2.387 . S
O129 C140 1.264 . S
O130 Tb95 2.349 . S
O130 C140 1.243 . S
O131 Tb84 2.428 . S
O131 C148 1.256 . S
O132 Tb84 2.308 . S
O132 C147 1.266 . S
O133 Tb95 2.393 . S
O133 C147 1.248 . S
O134 Tb95 2.465 . S
O134 C159 1.264 . S
O135 Tb95 2.387 . S
O135 C151 1.264 . S
O136 Tb84 2.349 . S
O136 C151 1.243 . S
O137 Tb95 2.428 . S
O137 C159 1.256 . S
O138 Tb95 2.308 . S
O138 C158 1.266 . S
O139 Tb84 2.393 . S
O139 C158 1.248 . S
C140 O129 1.264 . S
C140 O130 1.243 . S
C141 C144 1.399 . S
C141 C146 1.383 . S
C141 C148 1.496 . S
C142 C143 1.399 . S
C142 C146 1.389 . S
C143 C142 1.399 . S
C143 C145 1.380 . S
C143 H160 0.929 . S
C144 C141 1.399 . S
C144 C145 1.392 . S
C144 H161 0.929 . S
C145 C143 1.380 . S
C145 C144 1.392 . S
C145 H162 0.929 . S
C146 C141 1.383 . S
C146 C142 1.389 . S
C146 H163 0.931 . S
C147 O132 1.266 . S
C147 O133 1.248 . S
C148 Tb84 2.802 . S
C148 O128 1.264 . S
C148 O131 1.256 . S
C148 C141 1.496 . S
C149 C116 1.448 . S
C149 H126 0.930 . S
C149 C150 1.328 . S
C150 C121 1.427 . S
C150 H127 0.929 . S
C150 C149 1.328 . S
C151 O135 1.264 . S
C151 O136 1.243 . S
C152 C155 1.399 . S
C152 C156 1.383 . S
C152 C159 1.496 . S
C153 C154 1.399 . S
C153 C156 1.389 . S
C154 C153 1.399 . S
C154 C157 1.380 . S
C154 H164 0.929 . S
C155 C152 1.399 . S
C155 C157 1.392 . S
C155 H165 0.929 . S
C156 C152 1.383 . S
C156 C153 1.389 . S
C156 H166 0.931 . S
C157 C154 1.380 . S
C157 C155 1.392 . S
C157 H167 0.929 . S
C158 O138 1.266 . S
C158 O139 1.248 . S
C159 Tb95 2.802 . S
C159 O134 1.264 . S
C159 O137 1.256 . S
C159 C152 1.496 . S
H160 C143 0.929 . S
H161 C144 0.929 . S
H162 C145 0.929 . S
H163 C146 0.931 . S
H164 C154 0.929 . S
H165 C155 0.929 . S
H166 C156 0.931 . S
H167 C157 0.929 . S
Tb168 N197 2.617 . S
Tb168 N203 2.572 . S
Tb168 O212 2.465 . S
Tb168 O213 2.387 . S
Tb168 O215 2.428 . S
Tb168 O216 2.308 . S
Tb168 O220 2.349 . S
Tb168 O223 2.393 . S
Tb168 C232 2.802 . S
C169 N170 1.379 1_556 S
C169 C172 1.416 . S
C169 C176 1.424 . S
N170 C169 1.379 1_554 S
N170 C173 1.334 . S
N170 Tb179 2.617 . S
C171 C173 1.390 1_556 S
C171 C174 1.339 . S
C171 H191 0.930 . S
C172 C169 1.416 . S
C172 C174 1.416 . S
C172 C178 1.448 . S
C173 N170 1.334 . S
C173 C171 1.390 1_554 S
C173 H184 0.930 . S
C174 C171 1.339 . S
C174 C172 1.416 . S
C174 H195 0.930 . S
C175 C176 1.413 . S
C175 C177 1.427 . S
C175 C181 1.416 . S
C176 C169 1.424 . S
C176 C175 1.413 . S
C176 N180 1.361 . S
C177 C175 1.427 . S
C177 C178 1.328 . S
C177 H192 0.929 . S
C178 C172 1.448 . S
C178 C177 1.328 . S
C178 H193 0.930 . S
Tb179 N170 2.617 . S
Tb179 N180 2.572 1_554 S
Tb179 O214 2.349 . S
Tb179 O217 2.393 . S
Tb179 O218 2.465 . S
Tb179 O219 2.387 . S
Tb179 O221 2.428 . S
Tb179 O222 2.308 . S
Tb179 C243 2.802 . S
N180 C176 1.361 . S
N180 Tb179 2.572 1_556 S
N180 C182 1.340 . S
C181 C175 1.416 . S
C181 C183 1.332 . S
C181 H189 0.931 . S
C182 N180 1.340 . S
C182 C183 1.407 . S
C182 H188 0.930 1_556 S
C183 C181 1.332 . S
C183 C182 1.407 . S
C183 H185 0.929 . S
H184 C173 0.930 . S
H185 C183 0.929 . S
H186 C201 0.930 . S
H187 C208 0.929 . S
H188 C182 0.930 1_554 S
H189 C181 0.931 . S
H190 C204 0.930 . S
H191 C171 0.930 . S
H192 C177 0.929 . S
H193 C178 0.930 . S
H194 C199 0.930 . S
H195 C174 0.930 . S
H196 C207 0.931 . S
N197 Tb168 2.617 . S
N197 C198 1.379 . S
N197 C201 1.334 . S
C198 N197 1.379 . S
C198 C200 1.416 . S
C198 C206 1.424 . S
C199 H194 0.930 . S
C199 C201 1.390 . S
C199 C202 1.339 . S
C200 C198 1.416 . S
C200 C202 1.416 . S
C200 C233 1.448 . S
C201 H186 0.930 . S
C201 N197 1.334 . S
C201 C199 1.390 . S
C202 C199 1.339 . S
C202 C200 1.416 . S
C202 H209 0.930 . S
N203 Tb168 2.572 . S
N203 C204 1.340 . S
N203 C206 1.361 . S
C204 H190 0.930 . S
C204 N203 1.340 . S
C204 C208 1.407 . S
C205 C206 1.413 . S
C205 C207 1.416 . S
C205 C234 1.427 . S
C206 C198 1.424 . S
C206 N203 1.361 . S
C206 C205 1.413 . S
C207 H196 0.931 . S
C207 C205 1.416 . S
C207 C208 1.332 . S
C208 H187 0.929 . S
C208 C204 1.407 . S
C208 C207 1.332 . S
H209 C202 0.930 . S
H210 C233 0.930 . S
H211 C234 0.929 . S
O212 Tb168 2.465 . S
O212 C232 1.264 . S
O213 Tb168 2.387 . S
O213 C224 1.264 . S
O214 Tb179 2.349 . S
O214 C224 1.243 . S
O215 Tb168 2.428 . S
O215 C232 1.256 . S
O216 Tb168 2.308 . S
O216 C231 1.266 . S
O217 Tb179 2.393 . S
O217 C231 1.248 . S
O218 Tb179 2.465 . S
O218 C243 1.264 . S
O219 Tb179 2.387 . S
O219 C235 1.264 . S
O220 Tb168 2.349 . S
O220 C235 1.243 . S
O221 Tb179 2.428 . S
O221 C243 1.256 . S
O222 Tb179 2.308 . S
O222 C242 1.266 . S
O223 Tb168 2.393 . S
O223 C242 1.248 . S
C224 O213 1.264 . S
C224 O214 1.243 . S
C225 C228 1.399 . S
C225 C230 1.383 . S
C225 C232 1.496 . S
C226 C227 1.399 . S
C226 C230 1.389 . S
C227 C226 1.399 . S
C227 C229 1.380 . S
C227 H244 0.929 1_545 S
C228 C225 1.399 . S
C228 C229 1.392 . S
C228 H245 0.929 . S
C229 C227 1.380 . S
C229 C228 1.392 . S
C229 H246 0.929 . S
C230 C225 1.383 . S
C230 C226 1.389 . S
C230 H247 0.931 . S
C231 O216 1.266 . S
C231 O217 1.248 . S
C232 Tb168 2.802 . S
C232 O212 1.264 . S
C232 O215 1.256 . S
C232 C225 1.496 . S
C233 C200 1.448 . S
C233 H210 0.930 . S
C233 C234 1.328 . S
C234 C205 1.427 . S
C234 H211 0.929 . S
C234 C233 1.328 . S
C235 O219 1.264 . S
C235 O220 1.243 . S
C236 C239 1.399 . S
C236 C240 1.383 . S
C236 C243 1.496 . S
C237 C238 1.399 . S
C237 C240 1.389 . S
C238 C237 1.399 . S
C238 C241 1.380 . S
C238 H248 0.929 . S
C239 C236 1.399 . S
C239 C241 1.392 . S
C239 H249 0.929 . S
C240 C236 1.383 . S
C240 C237 1.389 . S
C240 H250 0.931 . S
C241 C238 1.380 . S
C241 C239 1.392 . S
C241 H251 0.929 . S
C242 O222 1.266 . S
C242 O223 1.248 . S
C243 Tb179 2.802 . S
C243 O218 1.264 . S
C243 O221 1.256 . S
C243 C236 1.496 . S
H244 C227 0.929 1_565 S
H245 C228 0.929 . S
H246 C229 0.929 . S
H247 C230 0.931 . S
H248 C238 0.929 . S
H249 C239 0.929 . S
H250 C240 0.931 . S
H251 C241 0.929 . S
Tb252 N281 2.617 . S
Tb252 N287 2.572 . S
Tb252 O296 2.465 . S
Tb252 O297 2.387 . S
Tb252 O299 2.428 . S
Tb252 O300 2.308 . S
Tb252 O304 2.349 . S
Tb252 O307 2.393 . S
Tb252 C316 2.802 . S
C253 N254 1.379 . S
C253 C256 1.416 . S
C253 C260 1.424 . S
N254 C253 1.379 . S
N254 C257 1.334 . S
N254 Tb263 2.617 . S
C255 C257 1.390 . S
C255 C258 1.339 . S
C255 H275 0.930 . S
C256 C253 1.416 . S
C256 C258 1.416 . S
C256 C262 1.448 . S
C257 N254 1.334 . S
C257 C255 1.390 . S
C257 H268 0.930 . S
C258 C255 1.339 . S
C258 C256 1.416 . S
C258 H279 0.930 . S
C259 C260 1.413 . S
C259 C261 1.427 . S
C259 C265 1.416 . S
C260 C253 1.424 . S
C260 C259 1.413 . S
C260 N264 1.361 . S
C261 C259 1.427 . S
C261 C262 1.328 . S
C261 H276 0.929 . S
C262 C256 1.448 . S
C262 C261 1.328 . S
C262 H277 0.930 . S
Tb263 N254 2.617 . S
Tb263 N264 2.572 . S
Tb263 O298 2.349 . S
Tb263 O301 2.393 . S
Tb263 O302 2.465 . S
Tb263 O303 2.387 . S
Tb263 O305 2.428 . S
Tb263 O306 2.308 . S
Tb263 C327 2.802 . S
N264 C260 1.361 . S
N264 Tb263 2.572 . S
N264 C266 1.340 . S
C265 C259 1.416 . S
C265 C267 1.332 . S
C265 H273 0.931 . S
C266 N264 1.340 . S
C266 C267 1.407 . S
C266 H272 0.930 . S
C267 C265 1.332 . S
C267 C266 1.407 . S
C267 H269 0.929 . S
H268 C257 0.930 . S
H269 C267 0.929 . S
H270 C285 0.930 . S
H271 C292 0.929 . S
H272 C266 0.930 . S
H273 C265 0.931 . S
H274 C288 0.930 . S
H275 C255 0.930 . S
H276 C261 0.929 . S
H277 C262 0.930 . S
H278 C283 0.930 . S
H279 C258 0.930 . S
H280 C291 0.931 . S
N281 Tb252 2.617 . S
N281 C282 1.379 . S
N281 C285 1.334 . S
C282 N281 1.379 . S
C282 C284 1.416 . S
C282 C290 1.424 . S
C283 H278 0.930 . S
C283 C285 1.390 . S
C283 C286 1.339 . S
C284 C282 1.416 . S
C284 C286 1.416 . S
C284 C317 1.448 . S
C285 H270 0.930 . S
C285 N281 1.334 . S
C285 C283 1.390 . S
C286 C283 1.339 . S
C286 C284 1.416 . S
C286 H293 0.930 . S
N287 Tb252 2.572 . S
N287 C288 1.340 . S
N287 C290 1.361 . S
C288 H274 0.930 . S
C288 N287 1.340 . S
C288 C292 1.407 . S
C289 C290 1.413 . S
C289 C291 1.416 . S
C289 C318 1.427 . S
C290 C282 1.424 . S
C290 N287 1.361 . S
C290 C289 1.413 . S
C291 H280 0.931 . S
C291 C289 1.416 . S
C291 C292 1.332 . S
C292 H271 0.929 . S
C292 C288 1.407 . S
C292 C291 1.332 . S
H293 C286 0.930 . S
H294 C317 0.930 . S
H295 C318 0.929 . S
O296 Tb252 2.465 . S
O296 C316 1.264 . S
O297 Tb252 2.387 . S
O297 C308 1.264 . S
O298 Tb263 2.349 . S
O298 C308 1.243 . S
O299 Tb252 2.428 . S
O299 C316 1.256 . S
O300 Tb252 2.308 . S
O300 C315 1.266 . S
O301 Tb263 2.393 . S
O301 C315 1.248 . S
O302 Tb263 2.465 . S
O302 C327 1.264 . S
O303 Tb263 2.387 . S
O303 C319 1.264 . S
O304 Tb252 2.349 . S
O304 C319 1.243 . S
O305 Tb263 2.428 . S
O305 C327 1.256 . S
O306 Tb263 2.308 . S
O306 C326 1.266 . S
O307 Tb252 2.393 . S
O307 C326 1.248 . S
C308 O297 1.264 . S
C308 O298 1.243 . S
C309 C312 1.399 . S
C309 C314 1.383 . S
C309 C316 1.496 . S
C310 C311 1.399 . S
C310 C314 1.389 . S
C311 C310 1.399 . S
C311 C313 1.380 . S
C311 H328 0.929 . S
C312 C309 1.399 . S
C312 C313 1.392 . S
C312 H329 0.929 . S
C313 C311 1.380 . S
C313 C312 1.392 . S
C313 H330 0.929 . S
C314 C309 1.383 . S
C314 C310 1.389 . S
C314 H331 0.931 . S
C315 O300 1.266 . S
C315 O301 1.248 . S
C316 Tb252 2.802 . S
C316 O296 1.264 . S
C316 O299 1.256 . S
C316 C309 1.496 . S
C317 C284 1.448 . S
C317 H294 0.930 . S
C317 C318 1.328 . S
C318 C289 1.427 . S
C318 H295 0.929 . S
C318 C317 1.328 . S
C319 O303 1.264 . S
C319 O304 1.243 . S
C320 C323 1.399 . S
C320 C324 1.383 . S
C320 C327 1.496 . S
C321 C322 1.399 1_455 S
C321 C324 1.389 . S
C322 C321 1.399 1_655 S
C322 C325 1.380 1_655 S
C322 H332 0.929 . S
C323 C320 1.399 . S
C323 C325 1.392 . S
C323 H333 0.929 . S
C324 C320 1.383 . S
C324 C321 1.389 . S
C324 H334 0.931 . S
C325 C322 1.380 1_455 S
C325 C323 1.392 . S
C325 H335 0.929 1_455 S
C326 O306 1.266 . S
C326 O307 1.248 . S
C327 Tb263 2.802 . S
C327 O302 1.264 . S
C327 O305 1.256 . S
C327 C320 1.496 . S
H328 C311 0.929 . S
H329 C312 0.929 . S
H330 C313 0.929 . S
H331 C314 0.931 . S
H332 C322 0.929 . S
H333 C323 0.929 . S
H334 C324 0.931 . S
H335 C325 0.929 1_655 S
Tb336 N365 2.617 . S
Tb336 N371 2.572 1_556 S
Tb336 O380 2.465 . S
Tb336 O381 2.387 . S
Tb336 O383 2.428 . S
Tb336 O384 2.308 . S
Tb336 O388 2.349 . S
Tb336 O391 2.393 . S
Tb336 C400 2.802 . S
C337 N338 1.379 . S
C337 C340 1.416 . S
C337 C344 1.424 . S
N338 C337 1.379 . S
N338 C341 1.334 . S
N338 Tb347 2.617 . S
C339 C341 1.390 . S
C339 C342 1.339 . S
C339 H359 0.930 . S
C340 C337 1.416 . S
C340 C342 1.416 . S
C340 C346 1.448 . S
C341 N338 1.334 . S
C341 C339 1.390 . S
C341 H352 0.930 . S
C342 C339 1.339 . S
C342 C340 1.416 . S
C342 H363 0.930 . S
C343 C344 1.413 . S
C343 C345 1.427 . S
C343 C349 1.416 . S
C344 C337 1.424 . S
C344 C343 1.413 . S
C344 N348 1.361 . S
C345 C343 1.427 . S
C345 C346 1.328 . S
C345 H360 0.929 . S
C346 C340 1.448 . S
C346 C345 1.328 . S
C346 H361 0.930 . S
Tb347 N338 2.617 . S
Tb347 N348 2.572 . S
Tb347 O382 2.349 1_565 S
Tb347 O385 2.393 . S
Tb347 O386 2.465 1_565 S
Tb347 O387 2.387 . S
Tb347 O389 2.428 1_565 S
Tb347 O390 2.308 . S
Tb347 C411 2.802 1_565 S
N348 C344 1.361 . S
N348 Tb347 2.572 . S
N348 C350 1.340 . S
C349 C343 1.416 . S
C349 C351 1.332 . S
C349 H357 0.931 . S
C350 N348 1.340 . S
C350 C351 1.407 . S
C350 H356 0.930 . S
C351 C349 1.332 . S
C351 C350 1.407 . S
C351 H353 0.929 . S
H352 C341 0.930 . S
H353 C351 0.929 . S
H354 C369 0.930 . S
H355 C376 0.929 . S
H356 C350 0.930 . S
H357 C349 0.931 . S
H358 C372 0.930 1_556 S
H359 C339 0.930 . S
H360 C345 0.929 . S
H361 C346 0.930 . S
H362 C367 0.930 . S
H363 C342 0.930 . S
H364 C375 0.931 1_545 S
N365 Tb336 2.617 . S
N365 C366 1.379 1_556 S
N365 C369 1.334 . S
C366 N365 1.379 1_554 S
C366 C368 1.416 . S
C366 C374 1.424 . S
C367 H362 0.930 . S
C367 C369 1.390 1_554 S
C367 C370 1.339 . S
C368 C366 1.416 . S
C368 C370 1.416 . S
C368 C401 1.448 1_565 S
C369 H354 0.930 . S
C369 N365 1.334 . S
C369 C367 1.390 1_556 S
C370 C367 1.339 . S
C370 C368 1.416 . S
C370 H377 0.930 . S
N371 Tb336 2.572 1_554 S
N371 C372 1.340 . S
N371 C374 1.361 . S
C372 H358 0.930 1_554 S
C372 N371 1.340 . S
C372 C376 1.407 . S
C373 C374 1.413 . S
C373 C375 1.416 . S
C373 C402 1.427 1_565 S
C374 C366 1.424 . S
C374 N371 1.361 . S
C374 C373 1.413 . S
C375 H364 0.931 1_565 S
C375 C373 1.416 . S
C375 C376 1.332 . S
C376 H355 0.929 . S
C376 C372 1.407 . S
C376 C375 1.332 . S
H377 C370 0.930 . S
H378 C401 0.930 . S
H379 C402 0.929 . S
O380 Tb336 2.465 . S
O380 C400 1.264 . S
O381 Tb336 2.387 . S
O381 C392 1.264 1_565 S
O382 Tb347 2.349 1_545 S
O382 C392 1.243 . S
O383 Tb336 2.428 . S
O383 C400 1.256 . S
O384 Tb336 2.308 . S
O384 C399 1.266 . S
O385 Tb347 2.393 . S
O385 C399 1.248 . S
O386 Tb347 2.465 1_545 S
O386 C411 1.264 . S
O387 Tb347 2.387 . S
O387 C403 1.264 . S
O388 Tb336 2.349 . S
O388 C403 1.243 . S
O389 Tb347 2.428 1_545 S
O389 C411 1.256 . S
O390 Tb347 2.308 . S
O390 C410 1.266 . S
O391 Tb336 2.393 . S
O391 C410 1.248 . S
C392 O381 1.264 1_545 S
C392 O382 1.243 . S
C393 C396 1.399 . S
C393 C398 1.383 . S
C393 C400 1.496 . S
C394 C395 1.399 . S
C394 C398 1.389 . S
C395 C394 1.399 . S
C395 C397 1.380 . S
C395 H412 0.929 . S
C396 C393 1.399 . S
C396 C397 1.392 . S
C396 H413 0.929 . S
C397 C395 1.380 . S
C397 C396 1.392 . S
C397 H414 0.929 . S
C398 C393 1.383 . S
C398 C394 1.389 . S
C398 H415 0.931 . S
C399 O384 1.266 . S
C399 O385 1.248 . S
C400 Tb336 2.802 . S
C400 O380 1.264 . S
C400 O383 1.256 . S
C400 C393 1.496 . S
C401 C368 1.448 1_545 S
C401 H378 0.930 . S
C401 C402 1.328 . S
C402 C373 1.427 1_545 S
C402 H379 0.929 . S
C402 C401 1.328 . S
C403 O387 1.264 . S
C403 O388 1.243 . S
C404 C407 1.399 . S
C404 C408 1.383 . S
C404 C411 1.496 . S
C405 C406 1.399 . S
C405 C408 1.389 . S
C406 C405 1.399 . S
C406 C409 1.380 . S
C406 H416 0.929 . S
C407 C404 1.399 . S
C407 C409 1.392 . S
C407 H417 0.929 . S
C408 C404 1.383 . S
C408 C405 1.389 . S
C408 H418 0.931 . S
C409 C406 1.380 . S
C409 C407 1.392 . S
C409 H419 0.929 . S
C410 O390 1.266 . S
C410 O391 1.248 . S
C411 Tb347 2.802 1_545 S
C411 O386 1.264 . S
C411 O389 1.256 . S
C411 C404 1.496 . S
H412 C395 0.929 . S
H413 C396 0.929 . S
H414 C397 0.929 . S
H415 C398 0.931 . S
H416 C406 0.929 . S
H417 C407 0.929 . S
H418 C408 0.931 . S
H419 C409 0.929 . S
Tb420 N449 2.617 . S
Tb420 N455 2.572 . S
Tb420 O464 2.465 . S
Tb420 O465 2.387 . S
Tb420 O467 2.428 . S
Tb420 O468 2.308 . S
Tb420 O472 2.349 . S
Tb420 O475 2.393 . S
Tb420 C484 2.802 1_655 S
C421 N422 1.379 . S
C421 C424 1.416 . S
C421 C428 1.424 . S
N422 C421 1.379 . S
N422 C425 1.334 . S
N422 Tb431 2.617 . S
C423 C425 1.390 . S
C423 C426 1.339 . S
C423 H443 0.930 . S
C424 C421 1.416 . S
C424 C426 1.416 . S
C424 C430 1.448 . S
C425 N422 1.334 . S
C425 C423 1.390 . S
C425 H436 0.930 . S
C426 C423 1.339 . S
C426 C424 1.416 . S
C426 H447 0.930 . S
C427 C428 1.413 . S
C427 C429 1.427 . S
C427 C433 1.416 . S
C428 C421 1.424 . S
C428 C427 1.413 . S
C428 N432 1.361 . S
C429 C427 1.427 . S
C429 C430 1.328 . S
C429 H444 0.929 . S
C430 C424 1.448 . S
C430 C429 1.328 . S
C430 H445 0.930 . S
Tb431 N422 2.617 . S
Tb431 N432 2.572 . S
Tb431 O466 2.349 . S
Tb431 O469 2.393 . S
Tb431 O470 2.465 . S
Tb431 O471 2.387 . S
Tb431 O473 2.428 . S
Tb431 O474 2.308 . S
Tb431 C495 2.802 . S
N432 C428 1.361 . S
N432 Tb431 2.572 . S
N432 C434 1.340 . S
C433 C427 1.416 . S
C433 C435 1.332 . S
C433 H441 0.931 . S
C434 N432 1.340 . S
C434 C435 1.407 . S
C434 H440 0.930 . S
C435 C433 1.332 . S
C435 C434 1.407 . S
C435 H437 0.929 . S
H436 C425 0.930 . S
H437 C435 0.929 . S
H438 C453 0.930 . S
H439 C460 0.929 . S
H440 C434 0.930 . S
H441 C433 0.931 . S
H442 C456 0.930 . S
H443 C423 0.930 . S
H444 C429 0.929 . S
H445 C430 0.930 . S
H446 C451 0.930 . S
H447 C426 0.930 . S
H448 C459 0.931 . S
N449 Tb420 2.617 . S
N449 C450 1.379 . S
N449 C453 1.334 . S
C450 N449 1.379 . S
C450 C452 1.416 . S
C450 C458 1.424 . S
C451 H446 0.930 . S
C451 C453 1.390 . S
C451 C454 1.339 . S
C452 C450 1.416 . S
C452 C454 1.416 . S
C452 C485 1.448 . S
C453 H438 0.930 . S
C453 N449 1.334 . S
C453 C451 1.390 . S
C454 C451 1.339 . S
C454 C452 1.416 . S
C454 H461 0.930 . S
N455 Tb420 2.572 . S
N455 C456 1.340 . S
N455 C458 1.361 . S
C456 H442 0.930 . S
C456 N455 1.340 . S
C456 C460 1.407 . S
C457 C458 1.413 . S
C457 C459 1.416 . S
C457 C486 1.427 . S
C458 C450 1.424 . S
C458 N455 1.361 . S
C458 C457 1.413 . S
C459 H448 0.931 . S
C459 C457 1.416 . S
C459 C460 1.332 . S
C460 H439 0.929 . S
C460 C456 1.407 . S
C460 C459 1.332 . S
H461 C454 0.930 . S
H462 C485 0.930 . S
H463 C486 0.929 . S
O464 Tb420 2.465 . S
O464 C484 1.264 1_655 S
O465 Tb420 2.387 . S
O465 C476 1.264 . S
O466 Tb431 2.349 . S
O466 C476 1.243 . S
O467 Tb420 2.428 . S
O467 C484 1.256 1_655 S
O468 Tb420 2.308 . S
O468 C483 1.266 . S
O469 Tb431 2.393 . S
O469 C483 1.248 . S
O470 Tb431 2.465 . S
O470 C495 1.264 . S
O471 Tb431 2.387 . S
O471 C487 1.264 . S
O472 Tb420 2.349 . S
O472 C487 1.243 . S
O473 Tb431 2.428 . S
O473 C495 1.256 . S
O474 Tb431 2.308 . S
O474 C494 1.266 . S
O475 Tb420 2.393 . S
O475 C494 1.248 . S
C476 O465 1.264 . S
C476 O466 1.243 . S
C477 C480 1.399 . S
C477 C482 1.383 . S
C477 C484 1.496 . S
C478 C479 1.399 . S
C478 C482 1.389 . S
C479 C478 1.399 . S
C479 C481 1.380 . S
C479 H496 0.929 . S
C480 C477 1.399 . S
C480 C481 1.392 . S
C480 H497 0.929 . S
C481 C479 1.380 . S
C481 C480 1.392 . S
C481 H498 0.929 . S
C482 C477 1.383 . S
C482 C478 1.389 . S
C482 H499 0.931 . S
C483 O468 1.266 . S
C483 O469 1.248 . S
C484 Tb420 2.802 1_455 S
C484 O464 1.264 1_455 S
C484 O467 1.256 1_455 S
C484 C477 1.496 . S
C485 C452 1.448 . S
C485 H462 0.930 . S
C485 C486 1.328 . S
C486 C457 1.427 . S
C486 H463 0.929 . S
C486 C485 1.328 . S
C487 O471 1.264 . S
C487 O472 1.243 . S
C488 C491 1.399 . S
C488 C492 1.383 . S
C488 C495 1.496 . S
C489 C490 1.399 . S
C489 C492 1.389 . S
C490 C489 1.399 . S
C490 C493 1.380 . S
C490 H500 0.929 . S
C491 C488 1.399 . S
C491 C493 1.392 . S
C491 H501 0.929 . S
C492 C488 1.383 . S
C492 C489 1.389 . S
C492 H502 0.931 . S
C493 C490 1.380 . S
C493 C491 1.392 . S
C493 H503 0.929 . S
C494 O474 1.266 . S
C494 O475 1.248 . S
C495 Tb431 2.802 . S
C495 O470 1.264 . S
C495 O473 1.256 . S
C495 C488 1.496 . S
H496 C479 0.929 . S
H497 C480 0.929 . S
H498 C481 0.929 . S
H499 C482 0.931 . S
H500 C490 0.929 . S
H501 C491 0.929 . S
H502 C492 0.931 . S
H503 C493 0.929 . S
Tb504 N533 2.617 . S
Tb504 N539 2.572 . S
Tb504 O548 2.465 1_565 S
Tb504 O549 2.387 . S
Tb504 O551 2.428 1_565 S
Tb504 O552 2.308 . S
Tb504 O556 2.349 1_565 S
Tb504 O559 2.393 . S
Tb504 C568 2.802 1_565 S
C505 N506 1.379 . S
C505 C508 1.416 1_565 S
C505 C512 1.424 . S
N506 C505 1.379 . S
N506 C509 1.334 . S
N506 Tb515 2.617 1_554 S
C507 C509 1.390 1_545 S
C507 C510 1.339 . S
C507 H527 0.930 . S
C508 C505 1.416 1_545 S
C508 C510 1.416 . S
C508 C514 1.448 . S
C509 N506 1.334 . S
C509 C507 1.390 1_565 S
C509 H520 0.930 1_554 S
C510 C507 1.339 . S
C510 C508 1.416 . S
C510 H531 0.930 . S
C511 C512 1.413 1_545 S
C511 C513 1.427 . S
C511 C517 1.416 . S
C512 C505 1.424 . S
C512 C511 1.413 1_565 S
C512 N516 1.361 . S
C513 C511 1.427 . S
C513 C514 1.328 . S
C513 H528 0.929 . S
C514 C508 1.448 . S
C514 C513 1.328 . S
C514 H529 0.930 . S
Tb515 N506 2.617 1_556 S
Tb515 N516 2.572 1_556 S
Tb515 O550 2.349 . S
Tb515 O553 2.393 . S
Tb515 O554 2.465 . S
Tb515 O555 2.387 1_565 S
Tb515 O557 2.428 . S
Tb515 O558 2.308 . S
Tb515 C579 2.802 . S
N516 C512 1.361 . S
N516 Tb515 2.572 1_554 S
N516 C518 1.340 . S
C517 C511 1.416 . S
C517 C519 1.332 1_445 S
C517 H525 0.931 1_455 S
C518 N516 1.340 . S
C518 C519 1.407 1_455 S
C518 H524 0.930 1_454 S
C519 C517 1.332 1_665 S
C519 C518 1.407 1_655 S
C519 H521 0.929 . S
H520 C509 0.930 1_556 S
H521 C519 0.929 . S
H522 C537 0.930 . S
H523 C544 0.929 . S
H524 C518 0.930 1_656 S
H525 C517 0.931 1_655 S
H526 C540 0.930 . S
H527 C507 0.930 . S
H528 C513 0.929 . S
H529 C514 0.930 . S
H530 C535 0.930 . S
H531 C510 0.930 . S
H532 C543 0.931 . S
N533 Tb504 2.617 . S
N533 C534 1.379 . S
N533 C537 1.334 1_455 S
C534 N533 1.379 . S
C534 C536 1.416 . S
C534 C542 1.424 . S
C535 H530 0.930 . S
C535 C537 1.390 . S
C535 C538 1.339 . S
C536 C534 1.416 . S
C536 C538 1.416 1_455 S
C536 C569 1.448 . S
C537 H522 0.930 . S
C537 N533 1.334 1_655 S
C537 C535 1.390 . S
C538 C535 1.339 . S
C538 C536 1.416 1_655 S
C538 H545 0.930 . S
N539 Tb504 2.572 . S
N539 C540 1.340 . S
N539 C542 1.361 . S
C540 H526 0.930 . S
C540 N539 1.340 . S
C540 C544 1.407 . S
C541 C542 1.413 . S
C541 C543 1.416 . S
C541 C570 1.427 . S
C542 C534 1.424 . S
C542 N539 1.361 . S
C542 C541 1.413 . S
C543 H532 0.931 . S
C543 C541 1.416 . S
C543 C544 1.332 . S
C544 H523 0.929 . S
C544 C540 1.407 . S
C544 C543 1.332 . S
H545 C538 0.930 . S
H546 C569 0.930 . S
H547 C570 0.929 . S
O548 Tb504 2.465 1_545 S
O548 C568 1.264 . S
O549 Tb504 2.387 . S
O549 C560 1.264 . S
O550 Tb515 2.349 . S
O550 C560 1.243 . S
O551 Tb504 2.428 1_545 S
O551 C568 1.256 . S
O552 Tb504 2.308 . S
O552 C567 1.266 . S
O553 Tb515 2.393 . S
O553 C567 1.248 . S
O554 Tb515 2.465 . S
O554 C579 1.264 . S
O555 Tb515 2.387 1_545 S
O555 C571 1.264 . S
O556 Tb504 2.349 1_545 S
O556 C571 1.243 . S
O557 Tb515 2.428 . S
O557 C579 1.256 . S
O558 Tb515 2.308 . S
O558 C578 1.266 1_455 S
O559 Tb504 2.393 . S
O559 C578 1.248 1_455 S
C560 O549 1.264 . S
C560 O550 1.243 . S
C561 C564 1.399 . S
C561 C566 1.383 . S
C561 C568 1.496 . S
C562 C563 1.399 . S
C562 C566 1.389 . S
C563 C562 1.399 . S
C563 C565 1.380 . S
C563 H580 0.929 . S
C564 C561 1.399 . S
C564 C565 1.392 . S
C564 H581 0.929 . S
C565 C563 1.380 . S
C565 C564 1.392 . S
C565 H582 0.929 . S
C566 C561 1.383 . S
C566 C562 1.389 . S
C566 H583 0.931 . S
C567 O552 1.266 . S
C567 O553 1.248 . S
C568 Tb504 2.802 1_545 S
C568 O548 1.264 . S
C568 O551 1.256 . S
C568 C561 1.496 . S
C569 C536 1.448 . S
C569 H546 0.930 . S
C569 C570 1.328 . S
C570 C541 1.427 . S
C570 H547 0.929 . S
C570 C569 1.328 . S
C571 O555 1.264 . S
C571 O556 1.243 . S
C572 C575 1.399 . S
C572 C576 1.383 . S
C572 C579 1.496 . S
C573 C574 1.399 1_655 S
C573 C576 1.389 1_655 S
C574 C573 1.399 1_455 S
C574 C577 1.380 . S
C574 H584 0.929 . S
C575 C572 1.399 . S
C575 C577 1.392 . S
C575 H585 0.929 . S
C576 C572 1.383 . S
C576 C573 1.389 1_455 S
C576 H586 0.931 1_455 S
C577 C574 1.380 . S
C577 C575 1.392 . S
C577 H587 0.929 . S
C578 O558 1.266 1_655 S
C578 O559 1.248 1_655 S
C579 Tb515 2.802 . S
C579 O554 1.264 . S
C579 O557 1.256 . S
C579 C572 1.496 . S
H580 C563 0.929 . S
H581 C564 0.929 . S
H582 C565 0.929 . S
H583 C566 0.931 . S
H584 C574 0.929 . S
H585 C575 0.929 . S
H586 C576 0.931 1_655 S
H587 C577 0.929 . S
Tb588 N617 2.617 . S
Tb588 N623 2.572 . S
Tb588 O632 2.465 . S
Tb588 O633 2.387 . S
Tb588 O635 2.428 . S
Tb588 O636 2.308 . S
Tb588 O640 2.349 1_545 S
Tb588 O643 2.393 . S
Tb588 C652 2.802 . S
C589 N590 1.379 . S
C589 C592 1.416 . S
C589 C596 1.424 . S
N590 C589 1.379 . S
N590 C593 1.334 . S
N590 Tb599 2.617 . S
C591 C593 1.390 . S
C591 C594 1.339 . S
C591 H611 0.930 . S
C592 C589 1.416 . S
C592 C594 1.416 . S
C592 C598 1.448 . S
C593 N590 1.334 . S
C593 C591 1.390 . S
C593 H604 0.930 . S
C594 C591 1.339 . S
C594 C592 1.416 . S
C594 H615 0.930 . S
C595 C596 1.413 . S
C595 C597 1.427 . S
C595 C601 1.416 . S
C596 C589 1.424 . S
C596 C595 1.413 . S
C596 N600 1.361 . S
C597 C595 1.427 . S
C597 C598 1.328 . S
C597 H612 0.929 . S
C598 C592 1.448 . S
C598 C597 1.328 . S
C598 H613 0.930 . S
Tb599 N590 2.617 . S
Tb599 N600 2.572 . S
Tb599 O634 2.349 1_565 S
Tb599 O637 2.393 1_565 S
Tb599 O638 2.465 1_565 S
Tb599 O639 2.387 . S
Tb599 O641 2.428 1_565 S
Tb599 O642 2.308 1_565 S
Tb599 C663 2.802 1_565 S
N600 C596 1.361 . S
N600 Tb599 2.572 . S
N600 C602 1.340 . S
C601 C595 1.416 . S
C601 C603 1.332 . S
C601 H609 0.931 . S
C602 N600 1.340 . S
C602 C603 1.407 . S
C602 H608 0.930 . S
C603 C601 1.332 . S
C603 C602 1.407 . S
C603 H605 0.929 . S
H604 C593 0.930 . S
H605 C603 0.929 . S
H606 C621 0.930 . S
H607 C628 0.929 . S
H608 C602 0.930 . S
H609 C601 0.931 . S
H610 C624 0.930 . S
H611 C591 0.930 . S
H612 C597 0.929 . S
H613 C598 0.930 . S
H614 C619 0.930 . S
H615 C594 0.930 . S
H616 C627 0.931 . S
N617 Tb588 2.617 . S
N617 C618 1.379 . S
N617 C621 1.334 . S
C618 N617 1.379 . S
C618 C620 1.416 . S
C618 C626 1.424 . S
C619 H614 0.930 . S
C619 C621 1.390 . S
C619 C622 1.339 . S
C620 C618 1.416 . S
C620 C622 1.416 . S
C620 C653 1.448 . S
C621 H606 0.930 . S
C621 N617 1.334 . S
C621 C619 1.390 . S
C622 C619 1.339 . S
C622 C620 1.416 . S
C622 H629 0.930 . S
N623 Tb588 2.572 . S
N623 C624 1.340 . S
N623 C626 1.361 . S
C624 H610 0.930 . S
C624 N623 1.340 . S
C624 C628 1.407 . S
C625 C626 1.413 . S
C625 C627 1.416 . S
C625 C654 1.427 . S
C626 C618 1.424 . S
C626 N623 1.361 . S
C626 C625 1.413 . S
C627 H616 0.931 . S
C627 C625 1.416 . S
C627 C628 1.332 . S
C628 H607 0.929 . S
C628 C624 1.407 . S
C628 C627 1.332 . S
H629 C622 0.930 . S
H630 C653 0.930 . S
H631 C654 0.929 . S
O632 Tb588 2.465 . S
O632 C652 1.264 . S
O633 Tb588 2.387 . S
O633 C644 1.264 . S
O634 Tb599 2.349 1_545 S
O634 C644 1.243 . S
O635 Tb588 2.428 . S
O635 C652 1.256 . S
O636 Tb588 2.308 . S
O636 C651 1.266 . S
O637 Tb599 2.393 1_545 S
O637 C651 1.248 . S
O638 Tb599 2.465 1_545 S
O638 C663 1.264 . S
O639 Tb599 2.387 . S
O639 C655 1.264 . S
O640 Tb588 2.349 1_565 S
O640 C655 1.243 . S
O641 Tb599 2.428 1_545 S
O641 C663 1.256 . S
O642 Tb599 2.308 1_545 S
O642 C662 1.266 . S
O643 Tb588 2.393 . S
O643 C662 1.248 . S
C644 O633 1.264 . S
C644 O634 1.243 . S
C645 C648 1.399 . S
C645 C650 1.383 . S
C645 C652 1.496 . S
C646 C647 1.399 . S
C646 C650 1.389 . S
C647 C646 1.399 . S
C647 C649 1.380 . S
C647 H664 0.929 1_655 S
C648 C645 1.399 . S
C648 C649 1.392 . S
C648 H665 0.929 . S
C649 C647 1.380 . S
C649 C648 1.392 . S
C649 H666 0.929 . S
C650 C645 1.383 . S
C650 C646 1.389 . S
C650 H667 0.931 . S
C651 O636 1.266 . S
C651 O637 1.248 . S
C652 Tb588 2.802 . S
C652 O632 1.264 . S
C652 O635 1.256 . S
C652 C645 1.496 . S
C653 C620 1.448 . S
C653 H630 0.930 . S
C653 C654 1.328 . S
C654 C625 1.427 . S
C654 H631 0.929 . S
C654 C653 1.328 . S
C655 O639 1.264 . S
C655 O640 1.243 . S
C656 C659 1.399 . S
C656 C660 1.383 . S
C656 C663 1.496 . S
C657 C658 1.399 . S
C657 C660 1.389 . S
C658 C657 1.399 . S
C658 C661 1.380 . S
C658 H668 0.929 . S
C659 C656 1.399 . S
C659 C661 1.392 . S
C659 H669 0.929 . S
C660 C656 1.383 . S
C660 C657 1.389 . S
C660 H670 0.931 . S
C661 C658 1.380 . S
C661 C659 1.392 . S
C661 H671 0.929 . S
C662 O642 1.266 . S
C662 O643 1.248 . S
C663 Tb599 2.802 1_545 S
C663 O638 1.264 . S
C663 O641 1.256 . S
C663 C656 1.496 . S
H664 C647 0.929 1_455 S
H665 C648 0.929 . S
H666 C649 0.929 . S
H667 C650 0.931 . S
H668 C658 0.929 . S
H669 C659 0.929 . S
H670 C660 0.931 . S
H671 C661 0.929 . S
C672 C673 1.363 . S
C672 C678 1.379 . S
C672 N680 1.356 . S
C673 C672 1.363 . S
C673 C679 1.363 1_545 S
C674 C675 1.363 1_565 S
C674 C679 1.379 . S
C674 N681 1.356 . S
C675 C674 1.363 1_545 S
C675 C678 1.363 . S
N676 C678 1.356 . S
N676 H688 0.984 . S
N676 H689 0.985 . S
N677 C679 1.356 . S
N677 H682 0.984 . S
N677 H683 0.985 . S
C678 C672 1.379 . S
C678 C675 1.363 . S
C678 N676 1.356 . S
C679 C673 1.363 1_565 S
C679 C674 1.379 . S
C679 N677 1.356 . S
N680 C672 1.356 . S
N680 H686 0.984 . S
N680 H687 0.984 . S
N681 C674 1.356 . S
N681 H684 0.984 . S
N681 H685 0.985 . S
H682 N677 0.984 . S
H683 N677 0.985 . S
H684 N681 0.984 . S
H685 N681 0.985 . S
H686 N680 0.984 . S
H687 N680 0.984 . S
H688 N676 0.984 . S
H689 N676 0.985 . S
C690 C691 1.363 . S
C690 C696 1.379 . S
C690 N698 1.356 . S
C691 C690 1.363 . S
C691 C697 1.363 . S
C692 C693 1.363 . S
C692 C697 1.379 . S
C692 N699 1.356 . S
C693 C692 1.363 . S
C693 C696 1.363 . S
N694 C696 1.356 . S
N694 H706 0.984 . S
N694 H707 0.985 . S
N695 C697 1.356 . S
N695 H700 0.984 . S
N695 H701 0.985 . S
C696 C690 1.379 . S
C696 C693 1.363 . S
C696 N694 1.356 . S
C697 C691 1.363 . S
C697 C692 1.379 . S
C697 N695 1.356 . S
N698 C690 1.356 . S
N698 H704 0.984 . S
N698 H705 0.984 . S
N699 C692 1.356 . S
N699 H702 0.984 . S
N699 H703 0.985 . S
H700 N695 0.984 . S
H701 N695 0.985 . S
H702 N699 0.984 . S
H703 N699 0.985 . S
H704 N698 0.984 . S
H705 N698 0.984 . S
H706 N694 0.984 . S
H707 N694 0.985 . S
C708 C709 1.363 . S
C708 C714 1.379 . S
C708 N716 1.356 . S
C709 C708 1.363 . S
C709 C715 1.363 . S
C710 C711 1.363 . S
C710 C715 1.379 . S
C710 N717 1.356 . S
C711 C710 1.363 . S
C711 C714 1.363 . S
N712 C714 1.356 . S
N712 H724 0.984 . S
N712 H725 0.985 . S
N713 C715 1.356 . S
N713 H718 0.984 . S
N713 H719 0.985 . S
C714 C708 1.379 . S
C714 C711 1.363 . S
C714 N712 1.356 . S
C715 C709 1.363 . S
C715 C710 1.379 . S
C715 N713 1.356 . S
N716 C708 1.356 . S
N716 H722 0.984 . S
N716 H723 0.984 . S
N717 C710 1.356 . S
N717 H720 0.984 . S
N717 H721 0.985 . S
H718 N713 0.984 . S
H719 N713 0.985 . S
H720 N717 0.984 . S
H721 N717 0.985 . S
H722 N716 0.984 . S
H723 N716 0.984 . S
H724 N712 0.984 . S
H725 N712 0.985 . S
C726 C727 1.363 . S
C726 C732 1.379 . S
C726 N734 1.356 1_455 S
C727 C726 1.363 . S
C727 C733 1.363 . S
C728 C729 1.363 . S
C728 C733 1.379 . S
C728 N735 1.356 . S
C729 C728 1.363 . S
C729 C732 1.363 . S
N730 C732 1.356 . S
N730 H742 0.984 . S
N730 H743 0.985 . S
N731 C733 1.356 . S
N731 H736 0.984 . S
N731 H737 0.985 . S
C732 C726 1.379 . S
C732 C729 1.363 . S
C732 N730 1.356 . S
C733 C727 1.363 . S
C733 C728 1.379 . S
C733 N731 1.356 . S
N734 C726 1.356 1_655 S
N734 H740 0.984 . S
N734 H741 0.984 . S
N735 C728 1.356 . S
N735 H738 0.984 . S
N735 H739 0.985 . S
H736 N731 0.984 . S
H737 N731 0.985 . S
H738 N735 0.984 . S
H739 N735 0.985 . S
H740 N734 0.984 . S
H741 N734 0.984 . S
H742 N730 0.984 . S
H743 N730 0.985 . S
C744 C745 1.363 . S
C744 C750 1.379 . S
C744 N752 1.356 . S
C745 C744 1.363 . S
C745 C751 1.363 . S
C746 C747 1.363 . S
C746 C751 1.379 . S
C746 N753 1.356 . S
C747 C746 1.363 . S
C747 C750 1.363 . S
N748 C750 1.356 . S
N748 H760 0.984 . S
N748 H761 0.985 . S
N749 C751 1.356 . S
N749 H754 0.984 . S
N749 H755 0.985 . S
C750 C744 1.379 . S
C750 C747 1.363 . S
C750 N748 1.356 . S
C751 C745 1.363 . S
C751 C746 1.379 . S
C751 N749 1.356 . S
N752 C744 1.356 . S
N752 H758 0.984 . S
N752 H759 0.984 . S
N753 C746 1.356 . S
N753 H756 0.984 . S
N753 H757 0.985 . S
H754 N749 0.984 . S
H755 N749 0.985 . S
H756 N753 0.984 . S
H757 N753 0.985 . S
H758 N752 0.984 . S
H759 N752 0.984 . S
H760 N748 0.984 . S
H761 N748 0.985 . S
C762 C763 1.363 . S
C762 C768 1.379 . S
C762 N770 1.356 . S
C763 C762 1.363 . S
C763 C769 1.363 1_545 S
C764 C765 1.367 . S
C764 C769 1.379 1_545 S
C764 N771 1.353 1_545 S
C765 C764 1.367 . S
C765 C768 1.363 . S
N766 C768 1.356 . S
N766 H778 0.984 . S
N766 H779 0.985 . S
N767 C769 1.356 . S
N767 H772 0.984 . S
N767 H773 0.985 . S
C768 C762 1.379 . S
C768 C765 1.363 . S
C768 N766 1.356 . S
C769 C763 1.363 1_565 S
C769 C764 1.379 1_565 S
C769 N767 1.356 . S
N770 C762 1.356 . S
N770 H776 0.984 . S
N770 H777 0.984 . S
N771 C764 1.353 1_565 S
N771 H774 0.984 . S
N771 H775 0.985 . S
H772 N767 0.984 . S
H773 N767 0.985 . S
H774 N771 0.984 . S
H775 N771 0.985 . S
H776 N770 0.984 . S
H777 N770 0.984 . S
H778 N766 0.984 . S
H779 N766 0.985 . S
C780 C781 1.363 . S
C780 C786 1.379 . S
C780 N788 1.356 . S
C781 C780 1.363 . S
C781 C787 1.363 . S
C782 C783 1.363 . S
C782 C787 1.379 . S
C782 N789 1.356 . S
C783 C782 1.363 . S
C783 C786 1.363 . S
N784 C786 1.356 . S
N784 H796 0.984 . S
N784 H797 0.985 . S
N785 C787 1.356 . S
N785 H790 0.984 . S
N785 H791 0.985 . S
C786 C780 1.379 . S
C786 C783 1.363 . S
C786 N784 1.356 . S
C787 C781 1.363 . S
C787 C782 1.379 . S
C787 N785 1.356 . S
N788 C780 1.356 . S
N788 H794 0.984 . S
N788 H795 0.984 . S
N789 C782 1.356 . S
N789 H792 0.984 . S
N789 H793 0.985 . S
H790 N785 0.984 . S
H791 N785 0.985 . S
H792 N789 0.984 . S
H793 N789 0.985 . S
H794 N788 0.984 . S
H795 N788 0.984 . S
H796 N784 0.984 . S
H797 N784 0.985 . S
C798 C799 1.363 . S
C798 C804 1.379 . S
C798 N806 1.356 . S
C799 C798 1.363 . S
C799 C805 1.363 . S
C800 C801 1.363 . S
C800 C805 1.379 . S
C800 N807 1.356 . S
C801 C800 1.363 . S
C801 C804 1.363 . S
N802 C804 1.356 . S
N802 H814 0.984 . S
N802 H815 0.985 . S
N803 C805 1.356 . S
N803 H808 0.984 . S
N803 H809 0.985 . S
C804 C798 1.379 . S
C804 C801 1.363 . S
C804 N802 1.356 . S
C805 C799 1.363 . S
C805 C800 1.379 . S
C805 N803 1.356 . S
N806 C798 1.356 . S
N806 H812 0.984 . S
N806 H813 0.984 . S
N807 C800 1.356 . S
N807 H810 0.984 . S
N807 H811 0.985 . S
H808 N803 0.984 . S
H809 N803 0.985 . S
H810 N807 0.984 . S
H811 N807 0.985 . S
H812 N806 0.984 . S
H813 N806 0.984 . S
H814 N802 0.984 . S
H815 N802 0.985 . S
C816 C817 1.363 . S
C816 C822 1.379 1_556 S
C816 N824 1.356 . S
C817 C816 1.363 . S
C817 C823 1.363 . S
C818 C819 1.363 . S
C818 C823 1.379 1_554 S
C818 N825 1.356 . S
C819 C818 1.363 . S
C819 C822 1.363 . S
N820 C822 1.356 . S
N820 H832 0.984 . S
N820 H833 0.985 . S
N821 C823 1.356 . S
N821 H826 0.984 . S
N821 H827 0.985 1_545 S
C822 C816 1.379 1_554 S
C822 C819 1.363 . S
C822 N820 1.356 . S
C823 C817 1.363 . S
C823 C818 1.379 1_556 S
C823 N821 1.356 . S
N824 C816 1.356 . S
N824 H830 0.984 . S
N824 H831 0.984 . S
N825 C818 1.356 . S
N825 H828 0.984 . S
N825 H829 0.985 . S
H826 N821 0.984 . S
H827 N821 0.985 1_565 S
H828 N825 0.984 . S
H829 N825 0.985 . S
H830 N824 0.984 . S
H831 N824 0.984 . S
H832 N820 0.984 . S
H833 N820 0.985 . S
C834 C835 1.363 . S
C834 C840 1.379 . S
C834 N842 1.356 . S
C835 C834 1.363 . S
C835 C841 1.363 . S
C836 C837 1.363 . S
C836 C841 1.379 . S
C836 N843 1.356 . S
C837 C836 1.363 . S
C837 C840 1.363 . S
N838 C840 1.356 . S
N838 H850 0.984 1_545 S
N838 H851 0.985 . S
N839 C841 1.356 . S
N839 H844 0.984 . S
N839 H845 0.985 . S
C840 C834 1.379 . S
C840 C837 1.363 . S
C840 N838 1.356 . S
C841 C835 1.363 . S
C841 C836 1.379 . S
C841 N839 1.356 . S
N842 C834 1.356 . S
N842 H848 0.984 . S
N842 H849 0.984 . S
N843 C836 1.356 . S
N843 H846 0.984 . S
N843 H847 0.985 . S
H844 N839 0.984 . S
H845 N839 0.985 . S
H846 N843 0.984 . S
H847 N843 0.985 . S
H848 N842 0.984 . S
H849 N842 0.984 . S
H850 N838 0.984 1_565 S
H851 N838 0.985 . S
C852 C853 1.363 1_554 S
C852 C858 1.379 . S
C852 N860 1.356 . S
C853 C852 1.363 1_556 S
C853 C859 1.363 . S
C854 C855 1.363 1_556 S
C854 C859 1.379 . S
C854 N861 1.356 . S
C855 C854 1.363 1_554 S
C855 C858 1.363 . S
N856 C858 1.356 . S
N856 H868 0.984 . S
N856 H869 0.985 . S
N857 C859 1.356 . S
N857 H862 0.984 . S
N857 H863 0.985 . S
C858 C852 1.379 . S
C858 C855 1.363 . S
C858 N856 1.356 . S
C859 C853 1.363 . S
C859 C854 1.379 . S
C859 N857 1.356 . S
N860 C852 1.356 . S
N860 H866 0.984 . S
N860 H867 0.984 1_554 S
N861 C854 1.356 . S
N861 H864 0.984 1_556 S
N861 H865 0.985 . S
H862 N857 0.984 . S
H863 N857 0.985 . S
H864 N861 0.984 1_554 S
H865 N861 0.985 . S
H866 N860 0.984 . S
H867 N860 0.984 1_556 S
H868 N856 0.984 . S
H869 N856 0.985 . S
C870 C871 1.363 . S
C870 C876 1.379 . S
C870 N878 1.356 . S
C871 C870 1.363 . S
C871 C877 1.363 . S
C872 C873 1.363 . S
C872 C877 1.379 . S
C872 N879 1.356 . S
C873 C872 1.363 . S
C873 C876 1.363 . S
N874 C876 1.356 . S
N874 H886 0.984 . S
N874 H887 0.985 . S
N875 C877 1.356 . S
N875 H880 0.984 . S
N875 H881 0.985 . S
C876 C870 1.379 . S
C876 C873 1.363 . S
C876 N874 1.356 . S
C877 C871 1.363 . S
C877 C872 1.379 . S
C877 N875 1.356 . S
N878 C870 1.356 . S
N878 H884 0.984 . S
N878 H885 0.984 . S
N879 C872 1.356 . S
N879 H882 0.984 . S
N879 H883 0.985 . S
H880 N875 0.984 . S
H881 N875 0.985 . S
H882 N879 0.984 . S
H883 N879 0.985 . S
H884 N878 0.984 . S
H885 N878 0.984 . S
H886 N874 0.984 . S
H887 N874 0.985 . S
C888 C889 1.363 1_554 S
C888 C894 1.379 . S
C888 N896 1.356 1_554 S
C889 C888 1.363 1_556 S
C889 C895 1.363 . S
C890 C891 1.363 1_556 S
C890 C895 1.379 . S
C890 N897 1.356 1_556 S
C891 C890 1.363 1_554 S
C891 C894 1.363 . S
N892 C894 1.356 . S
N892 H904 0.984 . S
N892 H905 0.985 . S
N893 C895 1.356 . S
N893 H898 0.984 . S
N893 H899 0.985 . S
C894 C888 1.379 . S
C894 C891 1.363 . S
C894 N892 1.356 . S
C895 C889 1.363 . S
C895 C890 1.379 . S
C895 N893 1.356 . S
N896 C888 1.356 1_556 S
N896 H902 0.984 1_546 S
N896 H903 0.984 . S
N897 C890 1.356 1_554 S
N897 H900 0.984 . S
N897 H901 0.985 1_554 S
H898 N893 0.984 . S
H899 N893 0.985 . S
H900 N897 0.984 . S
H901 N897 0.985 1_556 S
H902 N896 0.984 1_564 S
H903 N896 0.984 . S
H904 N892 0.984 . S
H905 N892 0.985 . S
C906 C907 1.363 . S
C906 C912 1.379 . S
C906 N914 1.356 . S
C907 C906 1.363 . S
C907 C913 1.363 . S
C908 C909 1.363 . S
C908 C913 1.379 . S
C908 N915 1.356 . S
C909 C908 1.363 . S
C909 C912 1.363 . S
N910 C912 1.356 . S
N910 H922 0.984 . S
N910 H923 0.985 . S
N911 C913 1.356 . S
N911 H916 0.984 . S
N911 H917 0.985 . S
C912 C906 1.379 . S
C912 C909 1.363 . S
C912 N910 1.356 . S
C913 C907 1.363 . S
C913 C908 1.379 . S
C913 N911 1.356 . S
N914 C906 1.356 . S
N914 H920 0.984 . S
N914 H921 0.984 . S
N915 C908 1.356 . S
N915 H918 0.984 . S
N915 H919 0.985 . S
H916 N911 0.984 . S
H917 N911 0.985 . S
H918 N915 0.984 . S
H919 N915 0.985 . S
H920 N914 0.984 . S
H921 N914 0.984 . S
H922 N910 0.984 . S
H923 N910 0.985 . S
C924 C925 1.363 1_554 S
C924 C930 1.379 . S
C924 N932 1.356 . S
C925 C924 1.363 1_556 S
C925 C931 1.363 . S
C926 C927 1.363 1_556 S
C926 C931 1.379 . S
C926 N933 1.356 . S
C927 C926 1.363 1_554 S
C927 C930 1.363 . S
N928 C930 1.356 . S
N928 H940 0.984 . S
N928 H941 0.985 . S
N929 C931 1.356 1_655 S
N929 H934 0.984 . S
N929 H935 0.985 . S
C930 C924 1.379 . S
C930 C927 1.363 . S
C930 N928 1.356 . S
C931 C925 1.363 . S
C931 C926 1.379 . S
C931 N929 1.356 1_455 S
N932 C924 1.356 . S
N932 H938 0.984 . S
N932 H939 0.984 . S
N933 C926 1.356 . S
N933 H936 0.984 . S
N933 H937 0.985 . S
H934 N929 0.984 . S
H935 N929 0.985 . S
H936 N933 0.984 . S
H937 N933 0.985 . S
H938 N932 0.984 . S
H939 N932 0.984 . S
H940 N928 0.984 . S
H941 N928 0.985 . S
C942 C943 1.363 . S
C942 C948 1.379 . S
C942 N950 1.356 . S
C943 C942 1.363 . S
C943 C949 1.363 . S
C944 C945 1.363 . S
C944 C949 1.379 . S
C944 N951 1.356 . S
C945 C944 1.363 . S
C945 C948 1.363 . S
N946 C948 1.356 1_655 S
N946 H958 0.984 . S
N946 H959 0.985 . S
N947 C949 1.356 . S
N947 H952 0.984 . S
N947 H953 0.985 . S
C948 C942 1.379 . S
C948 C945 1.363 . S
C948 N946 1.356 1_455 S
C949 C943 1.363 . S
C949 C944 1.379 . S
C949 N947 1.356 . S
N950 C942 1.356 . S
N950 H956 0.984 . S
N950 H957 0.984 . S
N951 C944 1.356 . S
N951 H954 0.984 1_545 S
N951 H955 0.985 . S
H952 N947 0.984 . S
H953 N947 0.985 . S
H954 N951 0.984 1_565 S
H955 N951 0.985 . S
H956 N950 0.984 . S
H957 N950 0.984 . S
H958 N946 0.984 . S
H959 N946 0.985 . S
C960 C961 1.363 . S
C960 C966 1.379 . S
C960 N968 1.356 . S
C961 C960 1.363 . S
C961 C967 1.363 . S
C962 C963 1.363 . S
C962 C967 1.379 . S
C962 N969 1.356 . S
C963 C962 1.363 . S
C963 C966 1.363 . S
N964 C966 1.356 . S
N964 H976 0.984 . S
N964 H977 0.985 . S
N965 C967 1.356 . S
N965 H970 0.984 . S
N965 H971 0.985 . S
C966 C960 1.379 . S
C966 C963 1.363 . S
C966 N964 1.356 . S
C967 C961 1.363 . S
C967 C962 1.379 . S
C967 N965 1.356 . S
N968 C960 1.356 . S
N968 H974 0.984 . S
N968 H975 0.984 . S
N969 C962 1.356 . S
N969 H972 0.984 . S
N969 H973 0.985 . S
H970 N965 0.984 . S
H971 N965 0.985 . S
H972 N969 0.984 . S
H973 N969 0.985 . S
H974 N968 0.984 . S
H975 N968 0.984 . S
H976 N964 0.984 . S
H977 N964 0.985 . S
C978 C979 1.363 . S
C978 C984 1.379 . S
C978 N986 1.356 . S
C979 C978 1.363 . S
C979 C985 1.363 . S
C980 C981 1.363 . S
C980 C985 1.379 . S
C980 N987 1.356 . S
C981 C980 1.363 . S
C981 C984 1.363 . S
N982 C984 1.356 . S
N982 H994 0.984 . S
N982 H995 0.985 . S
N983 C985 1.356 1_545 S
N983 H988 0.984 . S
N983 H989 0.985 . S
C984 C978 1.379 . S
C984 C981 1.363 . S
C984 N982 1.356 . S
C985 C979 1.363 . S
C985 C980 1.379 . S
C985 N983 1.356 1_565 S
N986 C978 1.356 . S
N986 H992 0.984 . S
N986 H993 0.984 . S
N987 C980 1.356 . S
N987 H990 0.984 . S
N987 H991 0.985 . S
H988 N983 0.984 . S
H989 N983 0.985 . S
H990 N987 0.984 . S
H991 N987 0.985 . S
H992 N986 0.984 . S
H993 N986 0.984 . S
H994 N982 0.984 . S
H995 N982 0.985 . S
C996 C997 1.363 . S
C996 C1002 1.379 . S
C996 N1004 1.356 . S
C997 C996 1.363 . S
C997 C1003 1.363 . S
C998 C999 1.363 . S
C998 C1003 1.379 . S
C998 N1005 1.356 1_565 S
C999 C998 1.363 . S
C999 C1002 1.363 . S
N1000 C1002 1.356 . S
N1000 H1012 0.984 . S
N1000 H1013 0.985 . S
N1001 C1003 1.356 . S
N1001 H1006 0.984 . S
N1001 H1007 0.985 1_565 S
C1002 C996 1.379 . S
C1002 C999 1.363 . S
C1002 N1000 1.356 . S
C1003 C997 1.363 . S
C1003 C998 1.379 . S
C1003 N1001 1.356 . S
N1004 C996 1.356 . S
N1004 H1010 0.984 . S
N1004 H1011 0.984 . S
N1005 C998 1.356 1_545 S
N1005 H1008 0.984 . S
N1005 H1009 0.985 . S
H1006 N1001 0.984 . S
H1007 N1001 0.985 1_545 S
H1008 N1005 0.984 . S
H1009 N1005 0.985 . S
H1010 N1004 0.984 . S
H1011 N1004 0.984 . S
H1012 N1000 0.984 . S
H1013 N1000 0.985 . S
C1014 C1015 1.363 . S
C1014 C1020 1.379 . S
C1014 N1022 1.356 . S
C1015 C1014 1.363 . S
C1015 C1021 1.363 . S
C1016 C1017 1.363 . S
C1016 C1021 1.379 . S
C1016 N1023 1.356 . S
C1017 C1016 1.363 . S
C1017 C1020 1.363 . S
N1018 C1020 1.356 . S
N1018 H1030 0.984 . S
N1018 H1031 0.985 . S
N1019 C1021 1.356 . S
N1019 H1024 0.984 . S
N1019 H1025 0.985 . S
C1020 C1014 1.379 . S
C1020 C1017 1.363 . S
C1020 N1018 1.356 . S
C1021 C1015 1.363 . S
C1021 C1016 1.379 . S
C1021 N1019 1.356 . S
N1022 C1014 1.356 . S
N1022 H1028 0.984 . S
N1022 H1029 0.984 . S
N1023 C1016 1.356 . S
N1023 H1026 0.984 . S
N1023 H1027 0.985 . S
H1024 N1019 0.984 . S
H1025 N1019 0.985 . S
H1026 N1023 0.984 . S
H1027 N1023 0.985 . S
H1028 N1022 0.984 . S
H1029 N1022 0.984 . S
H1030 N1018 0.984 . S
H1031 N1018 0.985 . S
C1032 C1033 1.363 . S
C1032 C1038 1.379 . S
C1032 N1040 1.356 . S
C1033 C1032 1.363 . S
C1033 C1039 1.363 . S
C1034 C1035 1.363 . S
C1034 C1039 1.379 . S
C1034 N1041 1.356 . S
C1035 C1034 1.363 . S
C1035 C1038 1.363 . S
N1036 C1038 1.356 . S
N1036 H1048 0.984 . S
N1036 H1049 0.985 . S
N1037 C1039 1.356 . S
N1037 H1042 0.984 . S
N1037 H1043 0.985 . S
C1038 C1032 1.379 . S
C1038 C1035 1.363 . S
C1038 N1036 1.356 . S
C1039 C1033 1.363 . S
C1039 C1034 1.379 . S
C1039 N1037 1.356 . S
N1040 C1032 1.356 . S
N1040 H1046 0.984 . S
N1040 H1047 0.984 . S
N1041 C1034 1.356 . S
N1041 H1044 0.984 . S
N1041 H1045 0.985 . S
H1042 N1037 0.984 . S
H1043 N1037 0.985 . S
H1044 N1041 0.984 . S
H1045 N1041 0.985 . S
H1046 N1040 0.984 . S
H1047 N1040 0.984 . S
H1048 N1036 0.984 . S
H1049 N1036 0.985 . S
C1050 C1051 1.363 . S
C1050 C1056 1.379 . S
C1050 N1058 1.356 . S
C1051 C1050 1.363 . S
C1051 C1057 1.363 . S
C1052 C1053 1.363 . S
C1052 C1057 1.379 . S
C1052 N1059 1.356 . S
C1053 C1052 1.363 . S
C1053 C1056 1.363 . S
N1054 C1056 1.356 . S
N1054 H1066 0.984 . S
N1054 H1067 0.985 . S
N1055 C1057 1.356 . S
N1055 H1060 0.984 . S
N1055 H1061 0.985 . S
C1056 C1050 1.379 . S
C1056 C1053 1.363 . S
C1056 N1054 1.356 . S
C1057 C1051 1.363 . S
C1057 C1052 1.379 . S
C1057 N1055 1.356 . S
N1058 C1050 1.356 . S
N1058 H1064 0.984 . S
N1058 H1065 0.984 . S
N1059 C1052 1.356 . S
N1059 H1062 0.984 . S
N1059 H1063 0.985 . S
H1060 N1055 0.984 . S
H1061 N1055 0.985 . S
H1062 N1059 0.984 . S
H1063 N1059 0.985 . S
H1064 N1058 0.984 . S
H1065 N1058 0.984 . S
H1066 N1054 0.984 . S
H1067 N1054 0.985 . S
C1068 C1069 1.363 . S
C1068 C1074 1.379 . S
C1068 N1076 1.356 . S
C1069 C1068 1.363 . S
C1069 C1075 1.363 . S
C1070 C1071 1.363 . S
C1070 C1075 1.379 . S
C1070 N1077 1.356 . S
C1071 C1070 1.363 . S
C1071 C1074 1.363 . S
N1072 C1074 1.356 . S
N1072 H1084 0.984 . S
N1072 H1085 0.985 . S
N1073 C1075 1.356 . S
N1073 H1078 0.984 . S
N1073 H1079 0.985 . S
C1074 C1068 1.379 . S
C1074 C1071 1.363 . S
C1074 N1072 1.356 . S
C1075 C1069 1.363 . S
C1075 C1070 1.379 . S
C1075 N1073 1.356 . S
N1076 C1068 1.356 . S
N1076 H1082 0.984 . S
N1076 H1083 0.984 . S
N1077 C1070 1.356 . S
N1077 H1080 0.984 . S
N1077 H1081 0.985 . S
H1078 N1073 0.984 . S
H1079 N1073 0.985 . S
H1080 N1077 0.984 . S
H1081 N1077 0.985 . S
H1082 N1076 0.984 . S
H1083 N1076 0.984 . S
H1084 N1072 0.984 . S
H1085 N1072 0.985 . S
C1086 C1087 1.363 . S
C1086 C1092 1.379 . S
C1086 N1094 1.356 . S
C1087 C1086 1.363 . S
C1087 C1093 1.363 . S
C1088 C1089 1.363 . S
C1088 C1093 1.379 . S
C1088 N1095 1.356 . S
C1089 C1088 1.363 . S
C1089 C1092 1.363 . S
N1090 C1092 1.356 . S
N1090 H1102 0.984 . S
N1090 H1103 0.985 . S
N1091 C1093 1.356 . S
N1091 H1096 0.984 . S
N1091 H1097 0.985 . S
C1092 C1086 1.379 . S
C1092 C1089 1.363 . S
C1092 N1090 1.356 . S
C1093 C1087 1.363 . S
C1093 C1088 1.379 . S
C1093 N1091 1.356 . S
N1094 C1086 1.356 . S
N1094 H1100 0.984 . S
N1094 H1101 0.984 . S
N1095 C1088 1.356 . S
N1095 H1098 0.984 . S
N1095 H1099 0.985 . S
H1096 N1091 0.984 . S
H1097 N1091 0.985 . S
H1098 N1095 0.984 . S
H1099 N1095 0.985 . S
H1100 N1094 0.984 . S
H1101 N1094 0.984 . S
H1102 N1090 0.984 . S
H1103 N1090 0.985 . S
C673 C651 1.779 . S
C675 C69 1.569 . S
C691 C142 0.364 . S
C693 C405 0.673 . S
C709 C476 2.270 . S
C711 C224 2.139 . S
C727 C321 0.812 . S
C729 C560 0.906 . S
C745 C158 1.779 . S
C747 C562 1.569 . S
C763 C226 0.673 . S
C765 C657 0.364 . S
C781 C403 2.139 . S
C783 C319 2.270 . S
C799 C478 0.812 . S
C801 C67 0.906 . S
C817 C571 0.954 . S
C819 C56 0.954 . S
C835 C147 3.239 . S
C837 C662 3.239 . S
C853 C394 1.362 . S
C855 C237 1.362 . S
C871 C308 3.557 . S
C873 C487 3.557 1_455 S
C889 C392 1.950 . S
C891 C235 1.950 . S
C907 C310 0.903 . S
C909 C489 0.903 . S
C925 C573 2.723 1_455 S
C927 C58 2.723 . S
C943 C153 1.374 . S
C945 C646 1.374 1_455 S
C961 C74 3.037 . S
C963 C231 3.217 . S
C979 C151 3.334 1_565 S
C981 C326 3.198 . S
C997 C410 3.217 . S
C999 C567 3.037 . S
C1015 C644 3.334 . S
C1017 C483 3.198 . S
C1033 C63 2.656 . S
C1035 C242 2.739 . S
C1051 C140 2.976 . S
C1053 C315 3.058 . S
C1069 C399 2.739 . S
C1071 C578 2.656 . S
C1087 C494 3.058 . S
C1089 C655 2.976 . S
