# Generated by pormake.
# Topology mer, (4)-cn, num edge types: 1
# Building blocks:
#     Node 0, Type 0, BuildingBlock: AZAVOO_clean_sbu_0, # of connection points: 4
#     Node 1, Type 0, BuildingBlock: AZAVOO_clean_sbu_0, # of connection points: 4
#     Node 2, Type 0, BuildingBlock: AZAVOO_clean_sbu_0, # of connection points: 4
#     Node 3, Type 0, BuildingBlock: AZAVOO_clean_sbu_0, # of connection points: 4
#     Node 4, Type 0, BuildingBlock: AZAVOO_clean_sbu_0, # of connection points: 4
#     Node 5, Type 0, BuildingBlock: AZAVOO_clean_sbu_0, # of connection points: 4
#     Node 6, Type 0, BuildingBlock: AZAVOO_clean_sbu_0, # of connection points: 4
#     Node 7, Type 0, BuildingBlock: AZAVOO_clean_sbu_0, # of connection points: 4
#     Node 8, Type 0, BuildingBlock: AZAVOO_clean_sbu_0, # of connection points: 4
#     Node 9, Type 0, BuildingBlock: AZAVOO_clean_sbu_0, # of connection points: 4
#     Node 10, Type 0, BuildingBlock: AZAVOO_clean_sbu_0, # of connection points: 4
#     Node 11, Type 0, BuildingBlock: AZAVOO_clean_sbu_0, # of connection points: 4
#     Node 12, Type 0, BuildingBlock: AZAVOO_clean_sbu_0, # of connection points: 4
#     Node 13, Type 0, BuildingBlock: AZAVOO_clean_sbu_0, # of connection points: 4
#     Node 14, Type 0, BuildingBlock: AZAVOO_clean_sbu_0, # of connection points: 4
#     Node 15, Type 0, BuildingBlock: AZAVOO_clean_sbu_0, # of connection points: 4
#     Node 16, Type 0, BuildingBlock: AZAVOO_clean_sbu_0, # of connection points: 4
#     Node 17, Type 0, BuildingBlock: AZAVOO_clean_sbu_0, # of connection points: 4
#     Node 18, Type 0, BuildingBlock: AZAVOO_clean_sbu_0, # of connection points: 4
#     Node 19, Type 0, BuildingBlock: AZAVOO_clean_sbu_0, # of connection points: 4
#     Node 20, Type 0, BuildingBlock: AZAVOO_clean_sbu_0, # of connection points: 4
#     Node 21, Type 0, BuildingBlock: AZAVOO_clean_sbu_0, # of connection points: 4
#     Node 22, Type 0, BuildingBlock: AZAVOO_clean_sbu_0, # of connection points: 4
#     Node 23, Type 0, BuildingBlock: AZAVOO_clean_sbu_0, # of connection points: 4
#     Node 24, Type 0, BuildingBlock: AZAVOO_clean_sbu_0, # of connection points: 4
#     Node 25, Type 0, BuildingBlock: AZAVOO_clean_sbu_0, # of connection points: 4
#     Node 26, Type 0, BuildingBlock: AZAVOO_clean_sbu_0, # of connection points: 4
#     Node 27, Type 0, BuildingBlock: AZAVOO_clean_sbu_0, # of connection points: 4
#     Node 28, Type 0, BuildingBlock: AZAVOO_clean_sbu_0, # of connection points: 4
#     Node 29, Type 0, BuildingBlock: AZAVOO_clean_sbu_0, # of connection points: 4
#     Node 30, Type 0, BuildingBlock: AZAVOO_clean_sbu_0, # of connection points: 4
#     Node 31, Type 0, BuildingBlock: AZAVOO_clean_sbu_0, # of connection points: 4
#     Edge 32, Type (0, 0), BuildingBlock: ZUJKAS_clean_linker_0, # of connection points: 2
#     Edge 33, Type (0, 0), BuildingBlock: ZUJKAS_clean_linker_0, # of connection points: 2
#     Edge 34, Type (0, 0), BuildingBlock: ZUJKAS_clean_linker_0, # of connection points: 2
#     Edge 35, Type (0, 0), BuildingBlock: ZUJKAS_clean_linker_0, # of connection points: 2
#     Edge 36, Type (0, 0), BuildingBlock: ZUJKAS_clean_linker_0, # of connection points: 2
#     Edge 37, Type (0, 0), BuildingBlock: ZUJKAS_clean_linker_0, # of connection points: 2
#     Edge 38, Type (0, 0), BuildingBlock: ZUJKAS_clean_linker_0, # of connection points: 2
#     Edge 39, Type (0, 0), BuildingBlock: ZUJKAS_clean_linker_0, # of connection points: 2
#     Edge 40, Type (0, 0), BuildingBlock: ZUJKAS_clean_linker_0, # of connection points: 2
#     Edge 41, Type (0, 0), BuildingBlock: ZUJKAS_clean_linker_0, # of connection points: 2
#     Edge 42, Type (0, 0), BuildingBlock: ZUJKAS_clean_linker_0, # of connection points: 2
#     Edge 43, Type (0, 0), BuildingBlock: ZUJKAS_clean_linker_0, # of connection points: 2
#     Edge 44, Type (0, 0), BuildingBlock: ZUJKAS_clean_linker_0, # of connection points: 2
#     Edge 45, Type (0, 0), BuildingBlock: ZUJKAS_clean_linker_0, # of connection points: 2
#     Edge 46, Type (0, 0), BuildingBlock: ZUJKAS_clean_linker_0, # of connection points: 2
#     Edge 47, Type (0, 0), BuildingBlock: ZUJKAS_clean_linker_0, # of connection points: 2
#     Edge 48, Type (0, 0), BuildingBlock: ZUJKAS_clean_linker_0, # of connection points: 2
#     Edge 49, Type (0, 0), BuildingBlock: ZUJKAS_clean_linker_0, # of connection points: 2
#     Edge 50, Type (0, 0), BuildingBlock: ZUJKAS_clean_linker_0, # of connection points: 2
#     Edge 51, Type (0, 0), BuildingBlock: ZUJKAS_clean_linker_0, # of connection points: 2
#     Edge 52, Type (0, 0), BuildingBlock: ZUJKAS_clean_linker_0, # of connection points: 2
#     Edge 53, Type (0, 0), BuildingBlock: ZUJKAS_clean_linker_0, # of connection points: 2
#     Edge 54, Type (0, 0), BuildingBlock: ZUJKAS_clean_linker_0, # of connection points: 2
#     Edge 55, Type (0, 0), BuildingBlock: ZUJKAS_clean_linker_0, # of connection points: 2
#     Edge 56, Type (0, 0), BuildingBlock: ZUJKAS_clean_linker_0, # of connection points: 2
#     Edge 57, Type (0, 0), BuildingBlock: ZUJKAS_clean_linker_0, # of connection points: 2
#     Edge 58, Type (0, 0), BuildingBlock: ZUJKAS_clean_linker_0, # of connection points: 2
#     Edge 59, Type (0, 0), BuildingBlock: ZUJKAS_clean_linker_0, # of connection points: 2
#     Edge 60, Type (0, 0), BuildingBlock: ZUJKAS_clean_linker_0, # of connection points: 2
#     Edge 61, Type (0, 0), BuildingBlock: ZUJKAS_clean_linker_0, # of connection points: 2
#     Edge 62, Type (0, 0), BuildingBlock: ZUJKAS_clean_linker_0, # of connection points: 2
#     Edge 63, Type (0, 0), BuildingBlock: ZUJKAS_clean_linker_0, # of connection points: 2
#     Edge 64, Type (0, 0), BuildingBlock: ZUJKAS_clean_linker_0, # of connection points: 2
#     Edge 65, Type (0, 0), BuildingBlock: ZUJKAS_clean_linker_0, # of connection points: 2
#     Edge 66, Type (0, 0), BuildingBlock: ZUJKAS_clean_linker_0, # of connection points: 2
#     Edge 67, Type (0, 0), BuildingBlock: ZUJKAS_clean_linker_0, # of connection points: 2
#     Edge 68, Type (0, 0), BuildingBlock: ZUJKAS_clean_linker_0, # of connection points: 2
#     Edge 69, Type (0, 0), BuildingBlock: ZUJKAS_clean_linker_0, # of connection points: 2
#     Edge 70, Type (0, 0), BuildingBlock: ZUJKAS_clean_linker_0, # of connection points: 2
#     Edge 71, Type (0, 0), BuildingBlock: ZUJKAS_clean_linker_0, # of connection points: 2
#     Edge 72, Type (0, 0), BuildingBlock: ZUJKAS_clean_linker_0, # of connection points: 2
#     Edge 73, Type (0, 0), BuildingBlock: ZUJKAS_clean_linker_0, # of connection points: 2
#     Edge 74, Type (0, 0), BuildingBlock: ZUJKAS_clean_linker_0, # of connection points: 2
#     Edge 75, Type (0, 0), BuildingBlock: ZUJKAS_clean_linker_0, # of connection points: 2
#     Edge 76, Type (0, 0), BuildingBlock: ZUJKAS_clean_linker_0, # of connection points: 2
#     Edge 77, Type (0, 0), BuildingBlock: ZUJKAS_clean_linker_0, # of connection points: 2
#     Edge 78, Type (0, 0), BuildingBlock: ZUJKAS_clean_linker_0, # of connection points: 2
#     Edge 79, Type (0, 0), BuildingBlock: ZUJKAS_clean_linker_0, # of connection points: 2
#     Edge 80, Type (0, 0), BuildingBlock: ZUJKAS_clean_linker_0, # of connection points: 2
#     Edge 81, Type (0, 0), BuildingBlock: ZUJKAS_clean_linker_0, # of connection points: 2
#     Edge 82, Type (0, 0), BuildingBlock: ZUJKAS_clean_linker_0, # of connection points: 2
#     Edge 83, Type (0, 0), BuildingBlock: ZUJKAS_clean_linker_0, # of connection points: 2
#     Edge 84, Type (0, 0), BuildingBlock: ZUJKAS_clean_linker_0, # of connection points: 2
#     Edge 85, Type (0, 0), BuildingBlock: ZUJKAS_clean_linker_0, # of connection points: 2
#     Edge 86, Type (0, 0), BuildingBlock: ZUJKAS_clean_linker_0, # of connection points: 2
#     Edge 87, Type (0, 0), BuildingBlock: ZUJKAS_clean_linker_0, # of connection points: 2
#     Edge 88, Type (0, 0), BuildingBlock: ZUJKAS_clean_linker_0, # of connection points: 2
#     Edge 89, Type (0, 0), BuildingBlock: ZUJKAS_clean_linker_0, # of connection points: 2
#     Edge 90, Type (0, 0), BuildingBlock: ZUJKAS_clean_linker_0, # of connection points: 2
#     Edge 91, Type (0, 0), BuildingBlock: ZUJKAS_clean_linker_0, # of connection points: 2
#     Edge 92, Type (0, 0), BuildingBlock: ZUJKAS_clean_linker_0, # of connection points: 2
#     Edge 93, Type (0, 0), BuildingBlock: ZUJKAS_clean_linker_0, # of connection points: 2
#     Edge 94, Type (0, 0), BuildingBlock: ZUJKAS_clean_linker_0, # of connection points: 2
#     Edge 95, Type (0, 0), BuildingBlock: ZUJKAS_clean_linker_0, # of connection points: 2
# Relax obj value: 0.175
# Max RMSD: 0.165
# Mean RMSD: 0.162
data_MOF--net-mer--node1-AZAVOO_clean_sbu_0--edge1-ZUJKAS_clean_linker_0
_symmetry_space_group_name_H-M    P1
_symmetry_Int_Tables_number       1
_symmetry_cell_setting            triclinic
loop_
_symmetry_equiv_pos_as_xyz
'x, y, z'
_cell_length_a     89.304537
_cell_length_b     89.272984
_cell_length_c     53.377298
_cell_angle_alpha  90.005215
_cell_angle_beta   90.015364
_cell_angle_gamma 89.959556
loop_
_atom_site_label
_atom_site_type_symbol
_atom_site_fract_x
_atom_site_fract_y
_atom_site_fract_z
_atom_type_partial_charge
Mg0 Mg 0.10957 0.24264 0.29373 0.0
O1 O 0.11352 0.24312 0.33633 0.0
O2 O 0.13803 0.23992 0.34298 0.0
Mg3 Mg 0.14971 0.23702 0.30533 0.0
C4 C 0.12474 0.24201 0.35109 0.0
C5 C 0.07684 0.25192 0.28147 0.0
O6 O 0.08147 0.24748 0.25932 0.0
O7 O 0.11965 0.26611 0.28955 0.0
O8 O 0.14401 0.26143 0.29577 0.0
O9 O 0.10677 0.21767 0.29433 0.0
O10 O 0.12843 0.22927 0.28936 0.0
C11 C 0.13327 0.27043 0.29084 0.0
C12 C 0.12118 0.21693 0.29201 0.0
O13 O 0.08599 0.25178 0.29969 0.0
Mg14 Mg 0.73391 0.0964 0.38358 0.0
O15 O 0.7555 0.10993 0.37693 0.0
O16 O 0.7738 0.09922 0.3992 0.0
Mg17 Mg 0.76419 0.07907 0.41986 0.0
C18 C 0.76914 0.10933 0.38419 0.0
C19 C 0.70803 0.10828 0.35086 0.0
O20 O 0.70092 0.10053 0.36808 0.0
O21 O 0.74257 0.0778 0.35809 0.0
O22 O 0.76043 0.06745 0.3819 0.0
O23 O 0.72857 0.11032 0.41709 0.0
O24 O 0.74187 0.08948 0.41845 0.0
C25 C 0.75276 0.06798 0.36169 0.0
C26 C 0.73648 0.10094 0.43003 0.0
O27 O 0.72227 0.10857 0.35131 0.0
Mg28 Mg 0.88532 0.77547 0.29366 0.0
O29 O 0.87972 0.7718 0.33521 0.0
O30 O 0.85491 0.77356 0.33966 0.0
Mg31 Mg 0.84462 0.77846 0.3013 0.0
C32 C 0.86796 0.77148 0.34882 0.0
C33 C 0.91823 0.76604 0.2824 0.0
O34 O 0.91338 0.76919 0.25976 0.0
O35 O 0.87673 0.7519 0.28388 0.0
O36 O 0.85201 0.75527 0.28736 0.0
O37 O 0.88645 0.80035 0.30005 0.0
O38 O 0.86594 0.78831 0.28903 0.0
C39 C 0.86329 0.74702 0.28215 0.0
C40 C 0.87222 0.8007 0.29538 0.0
O41 O 0.90919 0.76709 0.30071 0.0
Mg42 Mg 0.27974 0.89095 0.4075 0.0
O43 O 0.25641 0.88155 0.39768 0.0
O44 O 0.23943 0.89478 0.41905 0.0
Mg45 Mg 0.25166 0.91241 0.44236 0.0
C46 C 0.24283 0.88435 0.4037 0.0
C47 C 0.30189 0.88306 0.36416 0.0
O48 O 0.30736 0.89607 0.37114 0.0
O49 O 0.27552 0.91143 0.38298 0.0
O50 O 0.25911 0.92429 0.40618 0.0
O51 O 0.28134 0.87538 0.44013 0.0
O52 O 0.27177 0.89815 0.44223 0.0
C53 C 0.26733 0.92295 0.38669 0.0
C54 C 0.27467 0.88562 0.4532 0.0
O55 O 0.29025 0.87806 0.37503 0.0
Mg56 Mg 0.10269 0.75333 0.70219 0.0
O57 O 0.10754 0.75411 0.65993 0.0
O58 O 0.13197 0.75865 0.65489 0.0
Mg59 Mg 0.1428 0.76075 0.69352 0.0
C60 C 0.11894 0.75624 0.64591 0.0
C61 C 0.07026 0.74231 0.71201 0.0
O62 O 0.07474 0.74512 0.73499 0.0
O63 O 0.11349 0.7301 0.70521 0.0
O64 O 0.13774 0.73603 0.70192 0.0
O65 O 0.09903 0.77821 0.70312 0.0
O66 O 0.12095 0.76717 0.7087 0.0
C67 C 0.12734 0.72641 0.70538 0.0
C68 C 0.11335 0.77932 0.7063 0.0
O69 O 0.07949 0.74387 0.69411 0.0
Mg70 Mg 0.28505 0.10406 0.59595 0.0
O71 O 0.26187 0.1143 0.60446 0.0
O72 O 0.24505 0.10294 0.57982 0.0
Mg73 Mg 0.25712 0.08512 0.55667 0.0
C74 C 0.24844 0.11255 0.59662 0.0
C75 C 0.309 0.11413 0.63464 0.0
O76 O 0.31714 0.10582 0.61955 0.0
O77 O 0.2787 0.0834 0.61859 0.0
O78 O 0.26234 0.07226 0.59295 0.0
O79 O 0.28886 0.12027 0.56445 0.0
O80 O 0.27766 0.09835 0.56028 0.0
C81 C 0.26985 0.07262 0.61334 0.0
C82 C 0.28173 0.11085 0.55041 0.0
O83 O 0.29506 0.11546 0.63033 0.0
Mg84 Mg 0.89516 0.24142 0.70143 0.0
O85 O 0.88984 0.24266 0.65926 0.0
O86 O 0.86525 0.23904 0.65468 0.0
Mg87 Mg 0.85482 0.23561 0.69326 0.0
C88 C 0.87821 0.24147 0.64545 0.0
C89 C 0.92713 0.25345 0.7123 0.0
O90 O 0.9218 0.25224 0.73515 0.0
O91 O 0.88515 0.26479 0.70812 0.0
O92 O 0.86074 0.25972 0.70431 0.0
O93 O 0.8979 0.21649 0.69877 0.0
O94 O 0.87655 0.22778 0.70749 0.0
C95 C 0.87142 0.26884 0.70883 0.0
C96 C 0.88369 0.21551 0.70328 0.0
O97 O 0.91859 0.2505 0.6939 0.0
Mg98 Mg 0.71281 0.88919 0.59584 0.0
O99 O 0.73693 0.88139 0.60409 0.0
O100 O 0.75227 0.89386 0.5784 0.0
Mg101 Mg 0.73825 0.9097 0.55439 0.0
C102 C 0.75005 0.8843 0.59579 0.0
C103 C 0.6924 0.88232 0.6418 0.0
O104 O 0.68583 0.89443 0.63312 0.0
O105 O 0.7172 0.91103 0.61684 0.0
O106 O 0.73225 0.92293 0.58995 0.0
O107 O 0.71085 0.87171 0.5661 0.0
O108 O 0.719 0.89471 0.55937 0.0
C109 C 0.72499 0.92243 0.61057 0.0
C110 C 0.71658 0.88143 0.55087 0.0
O111 O 0.70423 0.87761 0.6311 0.0
Mg112 Mg 0.88052 0.76096 0.67357 0.0
O113 O 0.87653 0.76047 0.63087 0.0
O114 O 0.85182 0.76209 0.62462 0.0
Mg115 Mg 0.84005 0.7625 0.66251 0.0
C116 C 0.86519 0.76117 0.61627 0.0
C117 C 0.91161 0.74915 0.68754 0.0
O118 O 0.90402 0.74785 0.70852 0.0
O119 O 0.87333 0.7364 0.67638 0.0
O120 O 0.84874 0.73874 0.66962 0.0
O121 O 0.88028 0.78611 0.67216 0.0
O122 O 0.86032 0.77213 0.67887 0.0
C123 C 0.86028 0.7307 0.67408 0.0
C124 C 0.86591 0.78519 0.675 0.0
O125 O 0.90495 0.75422 0.66826 0.0
Mg126 Mg 0.24319 0.90493 0.76531 0.0
O127 O 0.24661 0.8942 0.72677 0.0
O128 O 0.2419 0.86967 0.72915 0.0
Mg129 Mg 0.23654 0.86455 0.77032 0.0
C130 C 0.24552 0.8813 0.71661 0.0
C131 C 0.24752 0.9324 0.73166 0.0
O132 O 0.23645 0.92528 0.72065 0.0
O133 O 0.266 0.89577 0.77718 0.0
O134 O 0.26046 0.87144 0.78137 0.0
O135 O 0.21885 0.90739 0.75651 0.0
O136 O 0.22868 0.88762 0.77524 0.0
C137 C 0.26967 0.88236 0.78282 0.0
C138 C 0.21726 0.89389 0.76492 0.0
O139 O 0.25346 0.92665 0.75104 0.0
Mg140 Mg 0.11866 0.23893 0.67605 0.0
O141 O 0.12023 0.24061 0.63298 0.0
O142 O 0.14456 0.24146 0.62309 0.0
Mg143 Mg 0.15847 0.24047 0.65885 0.0
C144 C 0.13076 0.24142 0.61679 0.0
C145 C 0.08685 0.24818 0.69423 0.0
O146 O 0.09449 0.24945 0.71517 0.0
O147 O 0.12444 0.26393 0.67932 0.0
O148 O 0.14871 0.26326 0.66924 0.0
O149 O 0.12032 0.21374 0.6738 0.0
O150 O 0.13973 0.22894 0.6767 0.0
C151 C 0.13698 0.27046 0.67576 0.0
C152 C 0.13469 0.2156 0.6735 0.0
O153 O 0.09365 0.24415 0.67443 0.0
Mg154 Mg 0.75395 0.09241 0.75021 0.0
O155 O 0.75302 0.1001 0.70915 0.0
O156 O 0.75987 0.12413 0.70691 0.0
Mg157 Mg 0.76342 0.1323 0.74702 0.0
C158 C 0.75577 0.11193 0.69649 0.0
C159 C 0.74967 0.05849 0.74389 0.0
O160 O 0.76255 0.0593 0.7557 0.0
O161 O 0.73141 0.10391 0.75739 0.0
O162 O 0.73855 0.12784 0.7546 0.0
O163 O 0.77845 0.08786 0.7452 0.0
O164 O 0.76919 0.10942 0.75832 0.0
C165 C 0.72843 0.11791 0.75785 0.0
C166 C 0.7806 0.10175 0.7511 0.0
O167 O 0.74264 0.07054 0.73909 0.0
Mg168 Mg 0.88606 0.25015 0.31956 0.0
O169 O 0.88327 0.24888 0.36252 0.0
O170 O 0.85882 0.24625 0.37036 0.0
Mg171 Mg 0.84598 0.24707 0.3335 0.0
C172 C 0.87237 0.24726 0.37782 0.0
C173 C 0.91779 0.25828 0.30335 0.0
O174 O 0.91059 0.2565 0.28208 0.0
O175 O 0.87828 0.27465 0.32011 0.0
O176 O 0.854 0.27121 0.32851 0.0
O177 O 0.88639 0.22502 0.31797 0.0
O178 O 0.86596 0.23877 0.31445 0.0
C179 C 0.86514 0.2798 0.32413 0.0
C180 C 0.87194 0.22572 0.31625 0.0
O181 O 0.91058 0.2568 0.32373 0.0
Mg182 Mg 0.73589 0.90926 0.2534 0.0
O183 O 0.73589 0.89243 0.28545 0.0
O184 O 0.75118 0.87319 0.27774 0.0
Mg185 Mg 0.75886 0.87677 0.23708 0.0
C186 C 0.74216 0.88022 0.2921 0.0
C187 C 0.71168 0.93144 0.2827 0.0
O188 O 0.69801 0.93289 0.29145 0.0
O189 O 0.72022 0.8942 0.23166 0.0
O190 O 0.73441 0.87418 0.22379 0.0
O191 O 0.75659 0.91901 0.271 0.0
O192 O 0.75677 0.9013 0.24208 0.0
C193 C 0.72188 0.88108 0.2227 0.0
C194 C 0.764 0.90911 0.2583 0.0
O195 O 0.71499 0.9195 0.27101 0.0
Mg196 Mg 0.11053 0.76093 0.32067 0.0
O197 O 0.11319 0.75926 0.36356 0.0
O198 O 0.13771 0.75846 0.37201 0.0
Mg199 Mg 0.15067 0.7589 0.33526 0.0
C200 C 0.12406 0.75852 0.37912 0.0
C201 C 0.07784 0.75667 0.30365 0.0
O202 O 0.08499 0.75872 0.2824 0.0
O203 O 0.11578 0.73575 0.31703 0.0
O204 O 0.14022 0.73622 0.32613 0.0
O205 O 0.11295 0.78598 0.32348 0.0
O206 O 0.1318 0.7704 0.31769 0.0
C207 C 0.12832 0.7291 0.32027 0.0
C208 C 0.12725 0.78385 0.32172 0.0
O209 O 0.08534 0.75658 0.32391 0.0
Mg210 Mg 0.25144 0.09065 0.23748 0.0
O211 O 0.25556 0.10147 0.27571 0.0
O212 O 0.24962 0.12579 0.27374 0.0
Mg213 Mg 0.24334 0.1308 0.23287 0.0
C214 C 0.25413 0.11432 0.28592 0.0
C215 C 0.25546 0.05718 0.24528 0.0
O216 O 0.24326 0.05824 0.23163 0.0
O217 O 0.27372 0.10044 0.22408 0.0
O218 O 0.2672 0.12459 0.22055 0.0
O219 O 0.22731 0.08772 0.24797 0.0
O220 O 0.23627 0.10753 0.2282 0.0
C221 C 0.27677 0.114 0.21838 0.0
C222 C 0.22519 0.10102 0.23905 0.0
O223 O 0.26244 0.06911 0.25101 0.0
Mg224 Mg 0.60535 0.7419 0.80188 0.0
O225 O 0.61175 0.74299 0.84367 0.0
O226 O 0.63651 0.73973 0.84618 0.0
Mg227 Mg 0.64594 0.73659 0.80685 0.0
C228 C 0.6238 0.74191 0.85648 0.0
C229 C 0.57309 0.75263 0.79232 0.0
O230 O 0.57813 0.75034 0.76951 0.0
O231 O 0.61486 0.76542 0.79501 0.0
O232 O 0.63944 0.76073 0.79693 0.0
O233 O 0.60294 0.71696 0.80449 0.0
O234 O 0.62394 0.72851 0.79444 0.0
C235 C 0.62849 0.76972 0.79347 0.0
C236 C 0.61706 0.71616 0.79914 0.0
O237 O 0.58196 0.75076 0.81068 0.0
Mg238 Mg 0.21591 0.60597 0.89489 0.0
O239 O 0.23917 0.61598 0.88642 0.0
O240 O 0.25584 0.60442 0.91105 0.0
Mg241 Mg 0.24364 0.58646 0.93359 0.0
C242 C 0.25256 0.61413 0.89437 0.0
C243 C 0.19259 0.61429 0.85456 0.0
O244 O 0.18551 0.60395 0.86745 0.0
O245 O 0.22178 0.58533 0.87193 0.0
O246 O 0.23829 0.5739 0.89701 0.0
O247 O 0.21269 0.62204 0.92664 0.0
O248 O 0.22297 0.59968 0.93057 0.0
C249 C 0.23062 0.57446 0.87679 0.0
C250 C 0.21926 0.61222 0.94072 0.0
O251 O 0.20591 0.61769 0.86079 0.0
Mg252 Mg 0.39498 0.25401 0.795 0.0
O253 O 0.38912 0.25417 0.83693 0.0
O254 O 0.36451 0.25803 0.84048 0.0
Mg255 Mg 0.35459 0.2602 0.80126 0.0
C256 C 0.37737 0.25586 0.85027 0.0
C257 C 0.42754 0.24308 0.78678 0.0
O258 O 0.42314 0.24532 0.76358 0.0
O259 O 0.38501 0.2305 0.79016 0.0
O260 O 0.36057 0.23574 0.79272 0.0
O261 O 0.39776 0.27896 0.79559 0.0
O262 O 0.37651 0.26746 0.78702 0.0
C263 C 0.37128 0.22645 0.78941 0.0
C264 C 0.38361 0.27982 0.7905 0.0
O265 O 0.41821 0.24505 0.80444 0.0
Mg266 Mg 0.78433 0.39271 0.90397 0.0
O267 O 0.76116 0.3822 0.89624 0.0
O268 O 0.74422 0.39512 0.91833 0.0
Mg269 Mg 0.75622 0.4136 0.94001 0.0
C270 C 0.74765 0.38458 0.90319 0.0
C271 C 0.80878 0.37842 0.87043 0.0
O272 O 0.81688 0.38426 0.88851 0.0
O273 O 0.77853 0.41261 0.87896 0.0
O274 O 0.76208 0.42503 0.90275 0.0
O275 O 0.78763 0.37772 0.93719 0.0
O276 O 0.77659 0.39987 0.9387 0.0
C277 C 0.76983 0.42374 0.88274 0.0
C278 C 0.78036 0.38769 0.94995 0.0
O279 O 0.79463 0.38002 0.87108 0.0
Mg280 Mg 0.60988 0.25029 0.2076 0.0
O281 O 0.61576 0.24944 0.16561 0.0
O282 O 0.64021 0.25423 0.16184 0.0
Mg283 Mg 0.64998 0.25821 0.20074 0.0
C284 C 0.62749 0.25114 0.15221 0.0
C285 C 0.57724 0.24077 0.21688 0.0
O286 O 0.58152 0.24551 0.23906 0.0
O287 O 0.62098 0.22729 0.21402 0.0
O288 O 0.64511 0.23375 0.21072 0.0
O289 O 0.60599 0.27509 0.20519 0.0
O290 O 0.62776 0.26479 0.21437 0.0
C291 C 0.63493 0.22399 0.21471 0.0
C292 C 0.62009 0.27673 0.2101 0.0
O293 O 0.58681 0.2404 0.19926 0.0
Mg294 Mg 0.79105 0.60524 0.10551 0.0
O295 O 0.76668 0.61323 0.11136 0.0
O296 O 0.75182 0.59825 0.0887 0.0
Mg297 Mg 0.76625 0.58094 0.06855 0.0
C298 C 0.75369 0.60926 0.10367 0.0
C299 C 0.81353 0.62126 0.14019 0.0
O300 O 0.82233 0.614 0.12464 0.0
O301 O 0.7866 0.58531 0.13142 0.0
O302 O 0.77222 0.571 0.10689 0.0
O303 O 0.79346 0.62002 0.07184 0.0
O304 O 0.78485 0.59684 0.07061 0.0
C305 C 0.77913 0.57333 0.12749 0.0
C306 C 0.78748 0.60924 0.05912 0.0
O307 O 0.79943 0.61975 0.13794 0.0
Mg308 Mg 0.39297 0.74248 0.20957 0.0
O309 O 0.38841 0.74415 0.16723 0.0
O310 O 0.36374 0.74174 0.16152 0.0
Mg311 Mg 0.35255 0.73795 0.19941 0.0
C312 C 0.37694 0.74371 0.15294 0.0
C313 C 0.42665 0.74616 0.21865 0.0
O314 O 0.42233 0.73798 0.2378 0.0
O315 O 0.38351 0.76612 0.21586 0.0
O316 O 0.35899 0.76178 0.21127 0.0
O317 O 0.39516 0.71747 0.20696 0.0
O318 O 0.37388 0.72947 0.21376 0.0
C319 C 0.36988 0.77057 0.21621 0.0
C320 C 0.38078 0.71706 0.20976 0.0
O321 O 0.4168 0.75082 0.20331 0.0
Mg322 Mg 0.2216 0.39386 0.10227 0.0
O323 O 0.24495 0.38409 0.11073 0.0
O324 O 0.26186 0.39786 0.09022 0.0
Mg325 Mg 0.24948 0.41613 0.06845 0.0
C326 C 0.2585 0.387 0.10475 0.0
C327 C 0.20294 0.38529 0.15081 0.0
O328 O 0.20026 0.39976 0.15125 0.0
O329 O 0.22624 0.4136 0.1282 0.0
O330 O 0.24234 0.42716 0.1056 0.0
O331 O 0.21963 0.37923 0.06861 0.0
O332 O 0.22929 0.40199 0.06794 0.0
C333 C 0.23432 0.42525 0.12518 0.0
C334 C 0.22624 0.38977 0.05616 0.0
O335 O 0.21136 0.37992 0.13381 0.0
Mg336 Mg 0.38624 0.25676 0.1763 0.0
O337 O 0.38291 0.25651 0.13342 0.0
O338 O 0.35828 0.25783 0.12609 0.0
Mg339 Mg 0.34589 0.25748 0.16338 0.0
C340 C 0.3718 0.2572 0.11834 0.0
C341 C 0.41844 0.24941 0.19205 0.0
O342 O 0.41147 0.25131 0.2135 0.0
O343 O 0.3796 0.23193 0.17809 0.0
O344 O 0.35512 0.2339 0.16996 0.0
O345 O 0.38526 0.28197 0.17548 0.0
O346 O 0.36563 0.26737 0.18096 0.0
C347 C 0.36672 0.22602 0.17476 0.0
C348 C 0.37088 0.28061 0.17766 0.0
O349 O 0.41101 0.25077 0.17185 0.0
Mg350 Mg 0.74167 0.40843 0.2614 0.0
O351 O 0.74632 0.39803 0.223 0.0
O352 O 0.74101 0.37356 0.22418 0.0
Mg353 Mg 0.73449 0.36809 0.26474 0.0
C354 C 0.74531 0.38525 0.21242 0.0
C355 C 0.75581 0.44036 0.26425 0.0
O356 O 0.7527 0.4383 0.28806 0.0
O357 O 0.76394 0.39891 0.27504 0.0
O358 O 0.75818 0.37456 0.27777 0.0
O359 O 0.71756 0.41115 0.2506 0.0
O360 O 0.72675 0.3912 0.26963 0.0
C361 C 0.7674 0.3854 0.2804 0.0
C362 C 0.71562 0.39764 0.25875 0.0
O363 O 0.75286 0.42999 0.24869 0.0
Mg364 Mg 0.61691 0.72754 0.18023 0.0
O365 O 0.62132 0.73079 0.13826 0.0
O366 O 0.64608 0.73038 0.13223 0.0
Mg367 Mg 0.65757 0.72708 0.17021 0.0
C368 C 0.63272 0.73153 0.12387 0.0
C369 C 0.58218 0.72482 0.17774 0.0
O370 O 0.5859 0.71085 0.18237 0.0
O371 O 0.62388 0.75192 0.18708 0.0
O372 O 0.64873 0.7499 0.18264 0.0
O373 O 0.61785 0.70243 0.17463 0.0
O374 O 0.63724 0.71652 0.18437 0.0
C375 C 0.63703 0.75756 0.18765 0.0
C376 C 0.63212 0.70359 0.1784 0.0
O377 O 0.59248 0.7345 0.17509 0.0
Mg378 Mg 0.24467 0.59568 0.25482 0.0
O379 O 0.24183 0.60594 0.21578 0.0
O380 O 0.24696 0.63041 0.21792 0.0
Mg381 Mg 0.25221 0.63591 0.25898 0.0
C382 C 0.24324 0.61877 0.20546 0.0
C383 C 0.23437 0.56286 0.25633 0.0
O384 O 0.23952 0.56487 0.27915 0.0
O385 O 0.22193 0.60548 0.26594 0.0
O386 O 0.2281 0.62968 0.26984 0.0
O387 O 0.26901 0.59259 0.24659 0.0
O388 O 0.25946 0.61274 0.26461 0.0
C389 C 0.2186 0.61902 0.27132 0.0
C390 C 0.27083 0.60611 0.25481 0.0
O391 O 0.23423 0.57391 0.24132 0.0
Mg392 Mg 0.3813 0.74379 0.82757 0.0
O393 O 0.37963 0.7444 0.87072 0.0
O394 O 0.35528 0.74469 0.88057 0.0
Mg395 Mg 0.34144 0.74444 0.84469 0.0
C396 C 0.36907 0.74469 0.88691 0.0
C397 C 0.41334 0.75223 0.80968 0.0
O398 O 0.40598 0.75254 0.78837 0.0
O399 O 0.37522 0.76879 0.82605 0.0
O400 O 0.35094 0.76759 0.83597 0.0
O401 O 0.37992 0.71855 0.82792 0.0
O402 O 0.36035 0.73361 0.82608 0.0
C403 C 0.36258 0.77508 0.83002 0.0
C404 C 0.36554 0.72025 0.82822 0.0
O405 O 0.40627 0.74914 0.82968 0.0
Mg406 Mg 0.25394 0.40368 0.73931 0.0
O407 O 0.25168 0.39519 0.77963 0.0
O408 O 0.25704 0.37073 0.78033 0.0
Mg409 Mg 0.26201 0.36348 0.73998 0.0
C410 C 0.25333 0.38285 0.79145 0.0
C411 C 0.24978 0.43749 0.7433 0.0
O412 O 0.2618 0.43615 0.72927 0.0
O413 O 0.23129 0.39312 0.73013 0.0
O414 O 0.23772 0.36888 0.72892 0.0
O415 O 0.27835 0.40751 0.74613 0.0
O416 O 0.26892 0.38643 0.73131 0.0
C417 C 0.22807 0.37936 0.72645 0.0
C418 C 0.28033 0.39368 0.73967 0.0
O419 O 0.24312 0.4257 0.75056 0.0
Mg420 Mg 0.61788 0.2561 0.82809 0.0
O421 O 0.62206 0.25213 0.87 0.0
O422 O 0.64683 0.25132 0.87576 0.0
Mg423 Mg 0.65849 0.25476 0.83798 0.0
C424 C 0.63347 0.25071 0.88425 0.0
C425 C 0.58635 0.24591 0.81304 0.0
O426 O 0.59387 0.24489 0.79195 0.0
O427 O 0.62389 0.23162 0.81976 0.0
O428 O 0.64885 0.23264 0.82337 0.0
O429 O 0.61944 0.28099 0.83458 0.0
O430 O 0.63859 0.26659 0.82463 0.0
C431 C 0.63682 0.22557 0.81814 0.0
C432 C 0.63371 0.27958 0.83102 0.0
O433 O 0.5932 0.25017 0.83267 0.0
Mg434 Mg 0.74725 0.59353 0.74562 0.0
O435 O 0.75146 0.60234 0.78531 0.0
O436 O 0.74504 0.62654 0.78687 0.0
Mg437 Mg 0.73808 0.63353 0.7472 0.0
C438 C 0.74987 0.61461 0.79732 0.0
C439 C 0.75261 0.55992 0.74786 0.0
O440 O 0.74049 0.56119 0.73405 0.0
O441 O 0.76906 0.60461 0.73306 0.0
O442 O 0.76186 0.62865 0.73293 0.0
O443 O 0.72329 0.58925 0.75588 0.0
O444 O 0.73153 0.61039 0.73945 0.0
C445 C 0.77166 0.61847 0.729 0.0
C446 C 0.72069 0.60296 0.74929 0.0
O447 O 0.75901 0.57176 0.75558 0.0
H448 H 0.2075 0.09985 0.28077 0.0
H449 H 0.18725 0.11721 0.29177 0.0
H450 H 0.19155 0.13852 0.21952 0.0
H451 H 0.2123 0.1218 0.2092 0.0
H452 H 0.1924 0.15843 0.25376 0.0
H453 H 0.14411 0.12173 0.27494 0.0
H454 H 0.16023 0.11713 0.29344 0.0
H455 H 0.16085 0.11482 0.25993 0.0
C456 C 0.20385 0.10804 0.26709 0.0
C457 C 0.2114 0.10954 0.24416 0.0
C458 C 0.19222 0.11791 0.27332 0.0
C459 C 0.18772 0.12911 0.25639 0.0
C460 C 0.19481 0.13001 0.23294 0.0
H461 H 0.11323 0.19141 0.26762 0.0
H462 H 0.12892 0.16918 0.26093 0.0
C463 C 0.20664 0.12045 0.22701 0.0
C464 C 0.17689 0.14096 0.26386 0.0
H465 H 0.14196 0.14734 0.28779 0.0
C466 C 0.18133 0.15595 0.26102 0.0
C467 C 0.16239 0.1378 0.27322 0.0
C468 C 0.15655 0.122 0.27532 0.0
C469 C 0.17175 0.16783 0.26705 0.0
C470 C 0.15751 0.1647 0.27744 0.0
C471 C 0.15298 0.14972 0.28024 0.0
C472 C 0.14706 0.17693 0.28455 0.0
C473 C 0.1769 0.18359 0.26142 0.0
C474 C 0.15171 0.1883 0.30098 0.0
C475 C 0.14294 0.2011 0.3043 0.0
C476 C 0.12916 0.20251 0.2919 0.0
C477 C 0.12386 0.19055 0.27731 0.0
C478 C 0.13281 0.17788 0.2735 0.0
H479 H 0.1858 0.18375 0.24689 0.0
H480 H 0.16747 0.19069 0.25483 0.0
H481 H 0.18162 0.18866 0.27867 0.0
H482 H 0.16241 0.18756 0.31045 0.0
H483 H 0.14708 0.21001 0.31616 0.0
H484 H 0.7993 0.11052 0.39302 0.0
H485 H 0.81704 0.12955 0.37902 0.0
H486 H 0.7815 0.15282 0.34059 0.0
H487 H 0.76356 0.13387 0.35461 0.0
H488 H 0.82407 0.13913 0.32868 0.0
H489 H 0.8004 0.18466 0.38776 0.0
H490 H 0.79627 0.16513 0.39314 0.0
H491 H 0.78718 0.17505 0.36812 0.0
C492 C 0.7952 0.11967 0.3816 0.0
C493 C 0.77994 0.1207 0.3751 0.0
C494 C 0.80539 0.1305 0.37355 0.0
C495 C 0.80053 0.14264 0.35903 0.0
C496 C 0.78541 0.14361 0.3521 0.0
H497 H 0.8425 0.22317 0.3043 0.0
H498 H 0.82579 0.20221 0.31299 0.0
C499 C 0.77519 0.13275 0.36007 0.0
C500 C 0.8113 0.15439 0.35147 0.0
H501 H 0.81963 0.19135 0.35958 0.0
C502 C 0.82315 0.15056 0.33541 0.0
C503 C 0.81006 0.16924 0.36042 0.0
C504 C 0.79788 0.17381 0.37848 0.0
C505 C 0.83364 0.16131 0.3276 0.0
C506 C 0.83237 0.17618 0.33652 0.0
C507 C 0.82055 0.17995 0.3527 0.0
C508 C 0.84299 0.18815 0.32919 0.0
C509 C 0.84575 0.15675 0.30944 0.0
C510 C 0.85829 0.18713 0.33512 0.0
C511 C 0.86794 0.19912 0.33005 0.0
C512 C 0.86235 0.21237 0.3193 0.0
C513 C 0.84712 0.21317 0.31283 0.0
C514 C 0.83755 0.20119 0.31774 0.0
H515 H 0.84287 0.14622 0.29944 0.0
H516 H 0.84779 0.16568 0.29537 0.0
H517 H 0.85632 0.15482 0.3199 0.0
H518 H 0.86268 0.17728 0.34442 0.0
H519 H 0.87961 0.19823 0.33538 0.0
H520 H 0.8817 0.82855 0.31067 0.0
H521 H 0.86687 0.85172 0.3125 0.0
H522 H 0.82808 0.82759 0.28643 0.0
H523 H 0.84266 0.80461 0.28447 0.0
H524 H 0.85204 0.86593 0.27309 0.0
H525 H 0.81165 0.85028 0.34687 0.0
H526 H 0.82905 0.84033 0.34217 0.0
H527 H 0.81291 0.83607 0.3232 0.0
C528 C 0.86997 0.82817 0.3056 0.0
C529 C 0.86333 0.81467 0.29771 0.0
C530 C 0.86152 0.84141 0.30667 0.0
C531 C 0.84629 0.84131 0.30012 0.0
C532 C 0.83969 0.82785 0.29226 0.0
H533 H 0.78416 0.89463 0.2292 0.0
H534 H 0.80675 0.88172 0.24282 0.0
C535 C 0.8481 0.8147 0.29109 0.0
C536 C 0.83732 0.85532 0.29967 0.0
H537 H 0.80326 0.8691 0.31723 0.0
C538 C 0.84154 0.86682 0.28319 0.0
C539 C 0.82378 0.85667 0.31325 0.0
C540 C 0.81916 0.84524 0.33257 0.0
C541 C 0.83195 0.87896 0.27832 0.0
C542 C 0.81771 0.87947 0.28994 0.0
C543 C 0.81409 0.86866 0.30806 0.0
C544 C 0.80565 0.88966 0.28111 0.0
C545 C 0.83697 0.89086 0.26012 0.0
C546 C 0.7975 0.89858 0.29802 0.0
C547 C 0.78446 0.906 0.2902 0.0
C548 C 0.77928 0.90438 0.26548 0.0
C549 C 0.7879 0.89611 0.24836 0.0
C550 C 0.80091 0.8888 0.25609 0.0
H551 H 0.84934 0.89217 0.26052 0.0
H552 H 0.83377 0.88747 0.24084 0.0
H553 H 0.83171 0.90186 0.2643 0.0
H554 H 0.80087 0.89928 0.31748 0.0
H555 H 0.77795 0.91218 0.30387 0.0
H556 H 0.1224 0.81104 0.34445 0.0
H557 H 0.14138 0.82956 0.35656 0.0
H558 H 0.17576 0.80222 0.3229 0.0
H559 H 0.157 0.7837 0.31105 0.0
H560 H 0.1824 0.8105 0.37122 0.0
H561 H 0.16503 0.86004 0.31531 0.0
H562 H 0.15052 0.85201 0.33435 0.0
H563 H 0.15824 0.84139 0.30883 0.0
C564 C 0.13398 0.80911 0.33933 0.0
C565 C 0.13822 0.79586 0.32697 0.0
C566 C 0.1448 0.81972 0.34617 0.0
C567 C 0.15998 0.81732 0.34047 0.0
C568 C 0.16412 0.8043 0.32752 0.0
H569 H 0.24527 0.86004 0.37242 0.0
H570 H 0.22507 0.84414 0.35659 0.0
C571 C 0.15337 0.7937 0.32081 0.0
C572 C 0.17176 0.82777 0.34936 0.0
H573 H 0.18449 0.86376 0.34495 0.0
C574 C 0.18289 0.82214 0.3654 0.0
C575 C 0.17233 0.84295 0.34183 0.0
C576 C 0.16098 0.84947 0.32396 0.0
C577 C 0.19452 0.83127 0.37424 0.0
C578 C 0.19518 0.84641 0.36654 0.0
C579 C 0.18398 0.85212 0.35072 0.0
C580 C 0.20736 0.85649 0.375 0.0
C581 C 0.20586 0.82471 0.39212 0.0
C582 C 0.20405 0.86895 0.38999 0.0
C583 C 0.21555 0.87809 0.39904 0.0
C584 C 0.23061 0.875 0.39312 0.0
C585 C 0.23383 0.86271 0.37749 0.0
C586 C 0.22231 0.85357 0.3685 0.0
H587 H 0.20178 0.81416 0.40079 0.0
H588 H 0.21631 0.82214 0.38174 0.0
H589 H 0.20862 0.83279 0.40725 0.0
H590 H 0.19258 0.87143 0.39513 0.0
H591 H 0.21261 0.88748 0.4109 0.0
H592 H 0.10674 0.80331 0.73548 0.0
H593 H 0.12232 0.82555 0.74193 0.0
H594 H 0.15238 0.81039 0.68383 0.0
H595 H 0.1373 0.78776 0.6786 0.0
H596 H 0.16757 0.81635 0.72234 0.0
H597 H 0.1295 0.8644 0.70873 0.0
H598 H 0.12216 0.85186 0.73185 0.0
H599 H 0.12432 0.84559 0.69994 0.0
C600 C 0.1165 0.80497 0.72376 0.0
C601 C 0.12095 0.79389 0.70669 0.0
C602 C 0.12535 0.81773 0.72729 0.0
C603 C 0.13849 0.8198 0.71319 0.0
C604 C 0.14235 0.80907 0.69501 0.0
H605 H 0.19766 0.89763 0.72607 0.0
H606 H 0.17786 0.88026 0.71306 0.0
C607 C 0.13375 0.79614 0.69201 0.0
C608 C 0.14921 0.83198 0.71948 0.0
H609 H 0.15215 0.8694 0.73205 0.0
C610 C 0.16417 0.82797 0.72409 0.0
C611 C 0.14493 0.84721 0.72156 0.0
C612 C 0.12938 0.85253 0.71498 0.0
C613 C 0.17486 0.83863 0.73117 0.0
C614 C 0.17035 0.85366 0.73496 0.0
C615 C 0.15551 0.85781 0.72968 0.0
C616 C 0.18101 0.86511 0.7443 0.0
C617 C 0.19093 0.83363 0.7341 0.0
C618 C 0.18889 0.86269 0.76669 0.0
C619 C 0.20035 0.87241 0.77387 0.0
C620 C 0.20382 0.88497 0.75917 0.0
C621 C 0.19518 0.88803 0.73776 0.0
C622 C 0.1839 0.87811 0.7303 0.0
H623 H 0.19328 0.8234 0.7229 0.0
H624 H 0.19886 0.84254 0.72821 0.0
H625 H 0.1931 0.83089 0.75405 0.0
H626 H 0.18652 0.853 0.77823 0.0
H627 H 0.20672 0.86991 0.79063 0.0
H628 H 0.24785 0.12643 0.64234 0.0
H629 H 0.22752 0.14142 0.66022 0.0
H630 H 0.20176 0.13529 0.59257 0.0
H631 H 0.22168 0.11974 0.57519 0.0
H632 H 0.21661 0.16664 0.64703 0.0
H633 H 0.17016 0.12612 0.64214 0.0
H634 H 0.18934 0.12067 0.63678 0.0
H635 H 0.17827 0.12852 0.61173 0.0
C636 C 0.23779 0.1282 0.63138 0.0
C637 C 0.23633 0.12184 0.60742 0.0
C638 C 0.22616 0.13673 0.64164 0.0
C639 C 0.2129 0.13921 0.62803 0.0
C640 C 0.21158 0.13309 0.60388 0.0
H641 H 0.15672 0.21605 0.6387 0.0
H642 H 0.17524 0.19675 0.62994 0.0
C643 C 0.22307 0.12433 0.59383 0.0
C644 C 0.20092 0.14906 0.63825 0.0
H645 H 0.16298 0.15225 0.64483 0.0
C646 C 0.20491 0.16336 0.64689 0.0
C647 C 0.18564 0.14476 0.63872 0.0
C648 C 0.18064 0.12911 0.63211 0.0
C649 C 0.19406 0.1737 0.65475 0.0
C650 C 0.1787 0.16988 0.65298 0.0
C651 C 0.17472 0.15531 0.64565 0.0
C652 C 0.16671 0.1811 0.65743 0.0
C653 C 0.19923 0.18862 0.66488 0.0
C654 C 0.1551 0.1784 0.67466 0.0
C655 C 0.14424 0.18942 0.67934 0.0
C656 C 0.14499 0.20329 0.66703 0.0
C657 C 0.15619 0.20568 0.64907 0.0
C658 C 0.16682 0.19464 0.6441 0.0
H659 H 0.21056 0.18773 0.67335 0.0
H660 H 0.19992 0.1968 0.64928 0.0
H661 H 0.19139 0.19303 0.67925 0.0
H662 H 0.15465 0.16794 0.68491 0.0
H663 H 0.13562 0.18732 0.69317 0.0
H664 H 0.79012 0.12812 0.77063 0.0
H665 H 0.81224 0.14249 0.75871 0.0
H666 H 0.8257 0.10722 0.70832 0.0
H667 H 0.80344 0.09265 0.72023 0.0
H668 H 0.84486 0.13381 0.75829 0.0
H669 H 0.81968 0.14704 0.6652 0.0
H670 H 0.80832 0.14073 0.69111 0.0
H671 H 0.82052 0.12783 0.67543 0.0
C672 C 0.79786 0.12332 0.75723 0.0
C673 C 0.79499 0.10933 0.74619 0.0
C674 C 0.81052 0.13151 0.75053 0.0
C675 C 0.82049 0.12594 0.73254 0.0
C676 C 0.81805 0.1117 0.72218 0.0
H677 H 0.89553 0.18741 0.69607 0.0
H678 H 0.88243 0.1633 0.6999 0.0
C679 C 0.8054 0.10339 0.72906 0.0
C680 C 0.83272 0.13573 0.72362 0.0
H681 H 0.84072 0.16094 0.67747 0.0
C682 C 0.84425 0.13946 0.74034 0.0
C683 C 0.83175 0.14313 0.70026 0.0
C684 C 0.81941 0.13959 0.68187 0.0
C685 C 0.85438 0.15102 0.73484 0.0
C686 C 0.85287 0.15899 0.71211 0.0
C687 C 0.84186 0.1547 0.69479 0.0
C688 C 0.86088 0.17325 0.70795 0.0
C689 C 0.86598 0.15538 0.75405 0.0
C690 C 0.85302 0.18671 0.71089 0.0
C691 C 0.86041 0.2004 0.70891 0.0
C692 C 0.87582 0.20092 0.70365 0.0
C693 C 0.88364 0.18739 0.70007 0.0
C694 C 0.87621 0.17362 0.70227 0.0
H695 H 0.86536 0.14836 0.7712 0.0
H696 H 0.87734 0.15423 0.74584 0.0
H697 H 0.86446 0.1673 0.75944 0.0
H698 H 0.84119 0.18662 0.71542 0.0
H699 H 0.85405 0.21053 0.7121 0.0
H700 H 0.87232 0.81177 0.65149 0.0
H701 H 0.85458 0.83186 0.64092 0.0
H702 H 0.81922 0.80763 0.67807 0.0
H703 H 0.83677 0.78771 0.6888 0.0
H704 H 0.82845 0.82722 0.61164 0.0
H705 H 0.81411 0.8505 0.70482 0.0
H706 H 0.83074 0.83942 0.69938 0.0
H707 H 0.81287 0.83044 0.70338 0.0
C708 C 0.86083 0.81089 0.65779 0.0
C709 C 0.85591 0.79814 0.67086 0.0
C710 C 0.85072 0.82234 0.6517 0.0
C711 C 0.83564 0.8213 0.65897 0.0
C712 C 0.83085 0.80879 0.67268 0.0
H713 H 0.75007 0.86098 0.6293 0.0
H714 H 0.77168 0.84685 0.64467 0.0
C715 C 0.84088 0.79735 0.67859 0.0
C716 C 0.8245 0.83249 0.65042 0.0
H717 H 0.79711 0.85607 0.67135 0.0
C718 C 0.82175 0.83373 0.62463 0.0
C719 C 0.81572 0.84085 0.66746 0.0
C720 C 0.81858 0.84037 0.6953 0.0
C721 C 0.81 0.84263 0.61545 0.0
C722 C 0.80098 0.85073 0.63254 0.0
C723 C 0.804 0.8498 0.6583 0.0
C724 C 0.78803 0.85981 0.62405 0.0
C725 C 0.80694 0.84273 0.58763 0.0
C726 C 0.79008 0.87195 0.60777 0.0
C727 C 0.77776 0.87999 0.59883 0.0
C728 C 0.76313 0.87613 0.6062 0.0
C729 C 0.76115 0.86423 0.62316 0.0
C730 C 0.7735 0.85616 0.632 0.0
H731 H 0.81249 0.83322 0.57792 0.0
H732 H 0.79473 0.84219 0.58382 0.0
H733 H 0.81132 0.85328 0.57944 0.0
H734 H 0.80123 0.87516 0.60184 0.0
H735 H 0.77974 0.88918 0.58602 0.0
H736 H 0.64645 0.71145 0.78789 0.0
H737 H 0.65968 0.68769 0.78505 0.0
H738 H 0.61938 0.66408 0.80533 0.0
H739 H 0.60594 0.68804 0.80869 0.0
H740 H 0.66172 0.6631 0.82472 0.0
H741 H 0.63479 0.6475 0.73408 0.0
H742 H 0.63558 0.66676 0.74434 0.0
H743 H 0.6234 0.65382 0.7599 0.0
C744 C 0.64039 0.70129 0.7922 0.0
C745 C 0.62514 0.70168 0.7987 0.0
C746 C 0.64799 0.68769 0.79049 0.0
C747 C 0.64049 0.67418 0.79497 0.0
C748 C 0.62533 0.67443 0.80179 0.0
H749 H 0.69935 0.59442 0.78345 0.0
H750 H 0.67727 0.60891 0.79662 0.0
C751 C 0.6177 0.68811 0.8037 0.0
C752 C 0.64868 0.65997 0.79125 0.0
H753 H 0.65596 0.63371 0.74642 0.0
C754 C 0.66024 0.65636 0.80799 0.0
C755 C 0.6467 0.65136 0.76929 0.0
C756 C 0.63449 0.65497 0.75072 0.0
C757 C 0.67045 0.64486 0.80259 0.0
C758 C 0.669 0.63682 0.7799 0.0
C759 C 0.65693 0.63986 0.76387 0.0
C760 C 0.68122 0.6271 0.77069 0.0
C761 C 0.68337 0.64207 0.82023 0.0
C762 C 0.69045 0.63242 0.75142 0.0
C763 C 0.703 0.62428 0.74401 0.0
C764 C 0.70652 0.6106 0.7556 0.0
C765 C 0.69689 0.60494 0.77418 0.0
C766 C 0.68433 0.61319 0.78177 0.0
H767 H 0.68336 0.64992 0.83638 0.0
H768 H 0.68274 0.63045 0.82753 0.0
H769 H 0.69415 0.64322 0.81006 0.0
H770 H 0.6882 0.64314 0.74266 0.0
H771 H 0.71012 0.62885 0.72947 0.0
H772 H 0.2533 0.62893 0.84942 0.0
H773 H 0.27359 0.64446 0.83279 0.0
H774 H 0.29913 0.63685 0.90025 0.0
H775 H 0.27928 0.6208 0.91635 0.0
H776 H 0.2841 0.66944 0.84801 0.0
H777 H 0.3311 0.62945 0.85052 0.0
H778 H 0.31198 0.6236 0.85516 0.0
H779 H 0.32282 0.63086 0.88097 0.0
C780 C 0.26332 0.63047 0.86057 0.0
C781 C 0.26473 0.62357 0.88413 0.0
C782 C 0.27493 0.63932 0.85103 0.0
C783 C 0.2881 0.64157 0.86497 0.0
C784 C 0.28938 0.63486 0.88867 0.0
H785 H 0.34312 0.71937 0.86234 0.0
H786 H 0.32478 0.69959 0.8688 0.0
C787 C 0.27793 0.62579 0.89799 0.0
C788 C 0.29999 0.65184 0.8557 0.0
H789 H 0.33793 0.65575 0.85041 0.0
C790 C 0.29585 0.66633 0.84817 0.0
C791 C 0.31534 0.64777 0.85525 0.0
C792 C 0.32053 0.63201 0.86063 0.0
C793 C 0.30661 0.67704 0.8415 0.0
C794 C 0.322 0.67339 0.84338 0.0
C795 C 0.32615 0.65868 0.84953 0.0
C796 C 0.33386 0.68491 0.84028 0.0
C797 C 0.30129 0.69218 0.83253 0.0
C798 C 0.3457 0.68289 0.82323 0.0
C799 C 0.35644 0.69417 0.81988 0.0
C800 C 0.35535 0.70764 0.83334 0.0
C801 C 0.34391 0.70933 0.8511 0.0
C802 C 0.33339 0.69802 0.85476 0.0
H803 H 0.29007 0.69139 0.82364 0.0
H804 H 0.30029 0.69986 0.84879 0.0
H805 H 0.3092 0.69715 0.81881 0.0
H806 H 0.34642 0.67276 0.81211 0.0
H807 H 0.36525 0.6926 0.80617 0.0
H808 H 0.3542 0.28453 0.77949 0.0
H809 H 0.34119 0.30833 0.77507 0.0
H810 H 0.38191 0.33206 0.79237 0.0
H811 H 0.39514 0.30806 0.79736 0.0
H812 H 0.3407 0.33444 0.814 0.0
H813 H 0.36466 0.34625 0.71954 0.0
H814 H 0.3634 0.32731 0.7312 0.0
H815 H 0.37661 0.34005 0.74476 0.0
C816 C 0.36041 0.29474 0.78281 0.0
C817 C 0.3757 0.29437 0.789 0.0
C818 C 0.35293 0.30835 0.78018 0.0
C819 C 0.36061 0.32188 0.7834 0.0
C820 C 0.37584 0.32167 0.78983 0.0
H821 H 0.30325 0.40244 0.77057 0.0
H822 H 0.32537 0.38767 0.78244 0.0
C823 C 0.38334 0.30798 0.79267 0.0
C824 C 0.35249 0.33604 0.77899 0.0
H825 H 0.34392 0.36065 0.73221 0.0
C826 C 0.34164 0.34049 0.79645 0.0
C827 C 0.35375 0.34373 0.75596 0.0
C828 C 0.3652 0.33918 0.73664 0.0
C829 C 0.33142 0.35196 0.79088 0.0
C830 C 0.33214 0.3591 0.76727 0.0
C831 C 0.34351 0.35518 0.75035 0.0
C832 C 0.31989 0.36891 0.75848 0.0
C833 C 0.31926 0.35568 0.80951 0.0
C834 C 0.30978 0.36338 0.74066 0.0
C835 C 0.29719 0.3717 0.73396 0.0
C836 C 0.29452 0.38577 0.74486 0.0
C837 C 0.30503 0.39162 0.76188 0.0
C838 C 0.31762 0.3832 0.76874 0.0
H839 H 0.3196 0.34829 0.82624 0.0
H840 H 0.32053 0.36746 0.81581 0.0
H841 H 0.30809 0.35463 0.80053 0.0
H842 H 0.31138 0.35236 0.73255 0.0
H843 H 0.28938 0.36696 0.72061 0.0
H844 H 0.62858 0.30598 0.85612 0.0
H845 H 0.64713 0.32515 0.86722 0.0
H846 H 0.68137 0.3 0.82876 0.0
H847 H 0.66305 0.28087 0.8178 0.0
H848 H 0.68929 0.30812 0.87719 0.0
H849 H 0.66776 0.35703 0.82371 0.0
H850 H 0.65437 0.34802 0.84381 0.0
H851 H 0.66181 0.33808 0.81734 0.0
C852 C 0.64002 0.30465 0.8498 0.0
C853 C 0.64438 0.29185 0.83628 0.0
C854 C 0.6506 0.31563 0.85607 0.0
C855 C 0.66561 0.31404 0.84866 0.0
C856 C 0.66986 0.30144 0.83469 0.0
H857 H 0.75008 0.3601 0.87225 0.0
H858 H 0.73004 0.34329 0.85863 0.0
C859 C 0.65936 0.29049 0.82851 0.0
C860 C 0.67719 0.32495 0.85655 0.0
H861 H 0.68829 0.3614 0.85086 0.0
C862 C 0.6891 0.31977 0.87139 0.0
C863 C 0.67686 0.34014 0.84902 0.0
C864 C 0.6646 0.34618 0.83242 0.0
C865 C 0.70066 0.32936 0.87903 0.0
C866 C 0.70044 0.3445 0.87127 0.0
C867 C 0.68845 0.34976 0.85667 0.0
C868 C 0.71248 0.35507 0.87844 0.0
C869 C 0.71287 0.32327 0.89573 0.0
C870 C 0.70917 0.36751 0.89348 0.0
C871 C 0.72057 0.37717 0.90123 0.0
C872 C 0.73552 0.37463 0.89398 0.0
C873 C 0.73873 0.36235 0.87834 0.0
C874 C 0.7273 0.35269 0.87061 0.0
H875 H 0.7095 0.31263 0.90491 0.0
H876 H 0.72299 0.321 0.88427 0.0
H877 H 0.71593 0.3315 0.91046 0.0
H878 H 0.69779 0.36958 0.89962 0.0
H879 H 0.71764 0.38654 0.91315 0.0
H880 H 0.64924 0.28314 0.22078 0.0
H881 H 0.661 0.30764 0.22385 0.0
H882 H 0.61917 0.3289 0.20485 0.0
H883 H 0.6072 0.3042 0.20133 0.0
H884 H 0.66184 0.3321 0.18535 0.0
H885 H 0.63339 0.34659 0.27517 0.0
H886 H 0.63497 0.32743 0.26463 0.0
H887 H 0.62234 0.33999 0.24916 0.0
C888 C 0.64253 0.29294 0.21682 0.0
C889 C 0.62728 0.29167 0.21063 0.0
C890 C 0.64929 0.30697 0.21866 0.0
C891 C 0.64094 0.32004 0.21464 0.0
C892 C 0.62576 0.3189 0.20811 0.0
H893 H 0.69428 0.40357 0.22304 0.0
H894 H 0.67345 0.38722 0.21042 0.0
C895 C 0.61897 0.3048 0.20607 0.0
C896 C 0.64828 0.33471 0.21836 0.0
H897 H 0.65326 0.36199 0.2624 0.0
C898 C 0.65975 0.33889 0.20184 0.0
C899 C 0.64553 0.34341 0.24 0.0
C900 C 0.63344 0.33921 0.25842 0.0
C901 C 0.66909 0.35114 0.20708 0.0
C902 C 0.66683 0.35939 0.22938 0.0
C903 C 0.65487 0.35567 0.24524 0.0
C904 C 0.6781 0.37028 0.23834 0.0
C905 C 0.68196 0.35455 0.18967 0.0
C906 C 0.68727 0.36633 0.25861 0.0
C907 C 0.69911 0.37556 0.26575 0.0
C908 C 0.70197 0.38897 0.25286 0.0
C909 C 0.69233 0.3933 0.23331 0.0
C910 C 0.68049 0.38396 0.22602 0.0
H911 H 0.68296 0.3462 0.17433 0.0
H912 H 0.6803 0.36577 0.18117 0.0
H913 H 0.69266 0.35481 0.20027 0.0
H914 H 0.68559 0.35582 0.26835 0.0
H915 H 0.70625 0.37199 0.28106 0.0
H916 H 0.75257 0.6339 0.13441 0.0
H917 H 0.73034 0.64783 0.14768 0.0
H918 H 0.70228 0.61777 0.10537 0.0
H919 H 0.72433 0.60368 0.09217 0.0
H920 H 0.70955 0.66213 0.11579 0.0
H921 H 0.68199 0.61876 0.1746 0.0
H922 H 0.70146 0.61764 0.1656 0.0
H923 H 0.68704 0.6129 0.14352 0.0
C924 C 0.74168 0.63017 0.12804 0.0
C925 C 0.74028 0.61764 0.11223 0.0
C926 C 0.72898 0.63815 0.13566 0.0
C927 C 0.71466 0.63369 0.12779 0.0
C928 C 0.7132 0.62121 0.11207 0.0
H929 H 0.6277 0.67828 0.14979 0.0
H930 H 0.64695 0.66006 0.13694 0.0
C931 C 0.72587 0.61324 0.1044 0.0
C932 C 0.70134 0.64259 0.135 0.0
H933 H 0.66846 0.64123 0.16771 0.0
C934 C 0.70057 0.65756 0.12713 0.0
C935 C 0.68957 0.63653 0.14958 0.0
C936 C 0.69003 0.62061 0.15903 0.0
C937 C 0.6884 0.66668 0.13361 0.0
C938 C 0.67682 0.66075 0.14869 0.0
C939 C 0.67737 0.6457 0.15611 0.0
C940 C 0.66471 0.67047 0.15834 0.0
C941 C 0.68804 0.68266 0.12438 0.0
C942 C 0.66826 0.68191 0.17525 0.0
C943 C 0.6574 0.69222 0.18253 0.0
C944 C 0.64273 0.69128 0.17312 0.0
C945 C 0.63892 0.67928 0.15729 0.0
C946 C 0.64989 0.66892 0.14992 0.0
H947 H 0.69564 0.68436 0.10814 0.0
H948 H 0.67652 0.68597 0.11884 0.0
H949 H 0.69173 0.69023 0.13968 0.0
H950 H 0.67958 0.68313 0.18226 0.0
H951 H 0.66062 0.70119 0.19509 0.0
H952 H 0.28196 0.62933 0.28165 0.0
H953 H 0.30291 0.64562 0.27055 0.0
H954 H 0.31117 0.61904 0.20444 0.0
H955 H 0.29061 0.60223 0.21622 0.0
H956 H 0.33701 0.62846 0.22423 0.0
H957 H 0.29823 0.6765 0.21692 0.0
H958 H 0.29768 0.66851 0.24768 0.0
H959 H 0.29169 0.65757 0.2211 0.0
C960 C 0.28839 0.62685 0.26495 0.0
C961 C 0.28462 0.61463 0.24966 0.0
C962 C 0.30027 0.63622 0.25851 0.0
C963 C 0.30829 0.63384 0.23623 0.0
C964 C 0.30504 0.62117 0.22159 0.0
H965 H 0.35677 0.71127 0.18033 0.0
H966 H 0.34044 0.68931 0.18206 0.0
C967 C 0.29332 0.61157 0.22834 0.0
C968 C 0.31954 0.64498 0.22782 0.0
H969 H 0.32429 0.68243 0.21849 0.0
C970 C 0.33423 0.64026 0.22268 0.0
C971 C 0.31581 0.6603 0.22503 0.0
C972 C 0.29995 0.66599 0.22769 0.0
C973 C 0.34543 0.65055 0.21586 0.0
C974 C 0.34194 0.66603 0.21503 0.0
C975 C 0.3271 0.67061 0.21932 0.0
C976 C 0.35337 0.67786 0.21064 0.0
C977 C 0.36076 0.64465 0.20931 0.0
C978 C 0.36639 0.67858 0.22544 0.0
C979 C 0.37596 0.69095 0.22383 0.0
C980 C 0.37237 0.70298 0.20807 0.0
C981 C 0.35967 0.70211 0.19272 0.0
C982 C 0.35036 0.68957 0.19375 0.0
H983 H 0.36009 0.6331 0.20164 0.0
H984 H 0.36646 0.65189 0.19535 0.0
H985 H 0.36771 0.64418 0.22653 0.0
H986 H 0.36878 0.67 0.23918 0.0
H987 H 0.38563 0.69154 0.23607 0.0
H988 H 0.25603 0.36161 0.13342 0.0
H989 H 0.2762 0.34515 0.14775 0.0
H990 H 0.30875 0.37372 0.11211 0.0
H991 H 0.28873 0.39031 0.09784 0.0
H992 H 0.29679 0.33008 0.11617 0.0
H993 H 0.32596 0.36775 0.18317 0.0
H994 H 0.30708 0.3712 0.17247 0.0
H995 H 0.32271 0.37546 0.15254 0.0
C996 C 0.26748 0.3645 0.1288 0.0
C997 C 0.27072 0.37731 0.11445 0.0
C998 C 0.279 0.35507 0.13701 0.0
C999 C 0.29398 0.35832 0.13125 0.0
C1000 C 0.29729 0.37116 0.11717 0.0
H1001 H 0.3769 0.30787 0.15586 0.0
H1002 H 0.35868 0.32743 0.14472 0.0
C1003 C 0.28579 0.38057 0.10888 0.0
C1004 C 0.30603 0.3478 0.13871 0.0
H1005 H 0.33772 0.34452 0.17425 0.0
C1006 C 0.30571 0.33322 0.12893 0.0
C1007 C 0.31774 0.35199 0.15513 0.0
C1008 C 0.31841 0.36741 0.16664 0.0
C1009 C 0.3168 0.32271 0.13508 0.0
C1010 C 0.32835 0.32679 0.15189 0.0
C1011 C 0.32883 0.34144 0.1614 0.0
C1012 C 0.33965 0.31574 0.16043 0.0
C1013 C 0.31614 0.30735 0.12327 0.0
C1014 C 0.33506 0.30299 0.17368 0.0
C1015 C 0.34537 0.29187 0.17998 0.0
C1016 C 0.36053 0.2933 0.17331 0.0
C1017 C 0.36529 0.30644 0.16118 0.0
C1018 C 0.3549 0.31759 0.15478 0.0
H1019 H 0.30923 0.30735 0.10595 0.0
H1020 H 0.32753 0.30321 0.11859 0.0
H1021 H 0.31099 0.29939 0.1367 0.0
H1022 H 0.32341 0.30151 0.17875 0.0
H1023 H 0.34138 0.28201 0.18974 0.0
H1024 H 0.93653 0.26139 0.34379 0.0
H1025 H 0.96386 0.26394 0.34325 0.0
H1026 H 0.96339 0.26298 0.26247 0.0
H1027 H 0.9362 0.26071 0.2628 0.0
H1028 H 0.98379 0.2438 0.32386 0.0
H1029 H 0.99057 0.29834 0.27597 0.0
H1030 H 0.97291 0.2923 0.28897 0.0
H1031 H 0.97886 0.28572 0.25867 0.0
C1032 C 0.94224 0.26195 0.32591 0.0
C1033 C 0.93418 0.26087 0.30334 0.0
C1034 C 0.95785 0.2634 0.32564 0.0
C1035 C 0.96565 0.2639 0.30281 0.0
C1036 C 0.9576 0.26301 0.28029 0.0
H1037 H 0.05449 0.25328 0.24655 0.0
H1038 H 0.02779 0.25746 0.25382 0.0
C1039 C 0.94203 0.26159 0.28054 0.0
C1040 C 0.98226 0.26416 0.30239 0.0
H1041 H 0.01224 0.28233 0.27678 0.0
C1042 C 0.99003 0.25236 0.31393 0.0
C1043 C 0.99039 0.27533 0.28938 0.0
C1044 C 0.98276 0.28871 0.27776 0.0
C1045 C 0.00565 0.25104 0.31186 0.0
C1046 C 0.01371 0.26194 0.29815 0.0
C1047 C 0.006 0.27397 0.28721 0.0
C1048 C 0.03004 0.26054 0.29384 0.0
C1049 C 0.01334 0.23766 0.32343 0.0
C1050 C 0.04018 0.26124 0.31388 0.0
C1051 C 0.05547 0.25886 0.3098 0.0
C1052 C 0.06087 0.25574 0.28558 0.0
C1053 C 0.05071 0.25557 0.26544 0.0
C1054 C 0.03545 0.25799 0.26954 0.0
H1055 H 0.00524 0.22887 0.32918 0.0
H1056 H 0.02149 0.23267 0.31011 0.0
H1057 H 0.0196 0.2413 0.34033 0.0
H1058 H 0.03624 0.26342 0.33272 0.0
H1059 H 0.063 0.25914 0.3257 0.0
H1060 H 0.77778 0.05103 0.35394 0.0
H1061 H 0.77955 0.02784 0.32976 0.0
H1062 H 0.7338 0.0336 0.30542 0.0
H1063 H 0.73226 0.05707 0.32851 0.0
H1064 H 0.765 0.00462 0.34139 0.0
H1065 H 0.75018 0.01595 0.24346 0.0
H1066 H 0.75533 0.03084 0.2647 0.0
H1067 H 0.73618 0.02441 0.26283 0.0
C1068 C 0.76827 0.04757 0.34275 0.0
C1069 C 0.75483 0.05579 0.34326 0.0
C1070 C 0.7693 0.03433 0.3289 0.0
C1071 C 0.75686 0.02895 0.31555 0.0
C1072 C 0.74373 0.03765 0.31488 0.0
H1073 H 0.71193 0.95092 0.32125 0.0
H1074 H 0.72765 0.97291 0.32651 0.0
C1075 C 0.74279 0.05105 0.32833 0.0
C1076 C 0.75656 0.01324 0.30629 0.0
H1077 H 0.74136 0.99152 0.26025 0.0
C1078 C 0.76029 0.00179 0.32326 0.0
C1079 C 0.75079 0.00933 0.28246 0.0
C1080 C 0.74809 0.02084 0.26229 0.0
C1081 C 0.75687 0.98679 0.31816 0.0
C1082 C 0.74917 0.9832 0.29584 0.0
C1083 C 0.74697 0.99434 0.27765 0.0
C1084 C 0.74097 0.96888 0.29328 0.0
C1085 C 0.76074 0.97504 0.33741 0.0
C1086 C 0.74312 0.95934 0.27266 0.0
C1087 C 0.73404 0.94665 0.26958 0.0
C1088 C 0.72261 0.94355 0.28692 0.0
C1089 C 0.7207 0.953 0.30766 0.0
C1090 C 0.72977 0.96552 0.3108 0.0
H1091 H 0.77107 0.97813 0.3478 0.0
H1092 H 0.75149 0.97421 0.35123 0.0
H1093 H 0.76239 0.96388 0.32863 0.0
H1094 H 0.75158 0.96188 0.25875 0.0
H1095 H 0.73553 0.93968 0.25317 0.0
H1096 H 0.05896 0.75684 0.26343 0.0
H1097 H 0.03165 0.75607 0.26356 0.0
H1098 H 0.03174 0.7525 0.34412 0.0
H1099 H 0.05918 0.75347 0.34423 0.0
H1100 H 0.01181 0.73434 0.28187 0.0
H1101 H 0.00461 0.78878 0.33117 0.0
H1102 H 0.02228 0.78301 0.31788 0.0
H1103 H 0.01602 0.77518 0.34704 0.0
C1104 C 0.05322 0.75586 0.28122 0.0
C1105 C 0.06128 0.75534 0.30385 0.0
C1106 C 0.03758 0.75539 0.28124 0.0
C1107 C 0.02964 0.75445 0.30385 0.0
C1108 C 0.03763 0.75351 0.32647 0.0
H1109 H 0.93259 0.76109 0.32712 0.0
H1110 H 0.95937 0.75664 0.33385 0.0
C1111 C 0.05332 0.75399 0.32648 0.0
C1112 C 0.01302 0.75466 0.30352 0.0
H1113 H 0.98266 0.77567 0.32041 0.0
C1114 C 0.00542 0.74333 0.29041 0.0
C1115 C 0.0047 0.76638 0.31474 0.0
C1116 C 0.01227 0.77911 0.32835 0.0
C1117 C 0.98976 0.74349 0.288 0.0
C1118 C 0.98148 0.75543 0.2986 0.0
C1119 C 0.98903 0.76653 0.31231 0.0
C1120 C 0.96512 0.75712 0.29449 0.0
C1121 C 0.98221 0.73085 0.27413 0.0
C1122 C 0.95945 0.75889 0.27014 0.0
C1123 C 0.94419 0.76144 0.26622 0.0
C1124 C 0.93425 0.76237 0.28661 0.0
C1125 C 0.93992 0.76041 0.311 0.0
C1126 C 0.95522 0.75788 0.31489 0.0
H1127 H 0.98929 0.72061 0.2739 0.0
H1128 H 0.97123 0.72805 0.28267 0.0
H1129 H 0.98026 0.73429 0.25442 0.0
H1130 H 0.96691 0.75868 0.25415 0.0
H1131 H 0.94023 0.76296 0.24721 0.0
H1132 H 0.28759 0.92787 0.34882 0.0
H1133 H 0.28944 0.95004 0.32187 0.0
H1134 H 0.2499 0.96848 0.35654 0.0
H1135 H 0.24812 0.94665 0.38375 0.0
H1136 H 0.27024 0.96276 0.28755 0.0
H1137 H 0.28017 0.00187 0.36611 0.0
H1138 H 0.2813 0.9818 0.36975 0.0
H1139 H 0.26342 0.99114 0.37066 0.0
C1140 C 0.27925 0.93662 0.35061 0.0
C1141 C 0.26781 0.93557 0.36868 0.0
C1142 C 0.28035 0.94928 0.33523 0.0
C1143 C 0.27004 0.96107 0.33768 0.0
C1144 C 0.25824 0.95971 0.35487 0.0
H1145 H 0.24052 0.03066 0.24184 0.0
H1146 H 0.24672 0.00702 0.26206 0.0
C1147 C 0.25719 0.94717 0.37032 0.0
C1148 C 0.27146 0.97486 0.32241 0.0
H1149 H 0.27202 0.01294 0.3274 0.0
C1150 C 0.27085 0.97374 0.29621 0.0
C1151 C 0.27267 0.98916 0.33367 0.0
C1152 C 0.2746 0.99108 0.36158 0.0
C1153 C 0.27049 0.9866 0.28105 0.0
C1154 C 0.27038 0.00092 0.29248 0.0
C1155 C 0.2719 0.00199 0.31859 0.0
C1156 C 0.26755 0.01488 0.27812 0.0
C1157 C 0.27013 0.98468 0.25298 0.0
C1158 C 0.27705 0.02732 0.28073 0.0
C1159 C 0.27338 0.04101 0.26952 0.0
C1160 C 0.26013 0.04249 0.25549 0.0
C1161 C 0.25086 0.0299 0.25238 0.0
C1162 C 0.25447 0.01629 0.26375 0.0
H1163 H 0.27575 0.97412 0.24725 0.0
H1164 H 0.25831 0.98404 0.24664 0.0
H1165 H 0.27563 0.9942 0.24327 0.0
H1166 H 0.28715 0.02653 0.2919 0.0
H1167 H 0.28076 0.0505 0.27226 0.0
H1168 H 0.0565 0.73975 0.66631 0.0
H1169 H 0.02961 0.73775 0.65801 0.0
H1170 H 0.02087 0.73626 0.73738 0.0
H1171 H 0.0477 0.7382 0.74593 0.0
H1172 H 0.00369 0.71512 0.70627 0.0
H1173 H 0.00143 0.77417 0.67278 0.0
H1174 H 0.0151 0.76216 0.65833 0.0
H1175 H 0.01696 0.76699 0.69081 0.0
C1176 C 0.04889 0.73881 0.68202 0.0
C1177 C 0.05424 0.73928 0.70681 0.0
C1178 C 0.03353 0.73773 0.67722 0.0
C1179 C 0.02328 0.73708 0.6971 0.0
C1180 C 0.02862 0.73681 0.7218 0.0
H1181 H 0.9292 0.74018 0.72654 0.0
H1182 H 0.95615 0.73583 0.72645 0.0
C1183 C 0.04396 0.73794 0.72663 0.0
C1184 C 0.00695 0.7375 0.69234 0.0
H1185 H 0.97882 0.76077 0.67332 0.0
C1186 C 0.99823 0.72505 0.6989 0.0
C1187 C 0.99992 0.75046 0.68263 0.0
C1188 C 0.00876 0.76428 0.67585 0.0
C1189 C 0.98259 0.72525 0.69622 0.0
C1190 C 0.97548 0.7384 0.68732 0.0
C1191 C 0.98427 0.7507 0.68012 0.0
C1192 C 0.95895 0.74005 0.6868 0.0
C1193 C 0.97384 0.71136 0.70286 0.0
C1194 C 0.95155 0.74418 0.66462 0.0
C1195 C 0.93611 0.74687 0.66466 0.0
C1196 C 0.9278 0.74554 0.68693 0.0
C1197 C 0.93522 0.74122 0.70902 0.0
C1198 C 0.95064 0.7386 0.70897 0.0
H1199 H 0.98086 0.70113 0.70119 0.0
H1200 H 0.97002 0.71218 0.7226 0.0
H1201 H 0.96384 0.71007 0.69068 0.0
H1202 H 0.95777 0.74549 0.64733 0.0
H1203 H 0.93073 0.75019 0.64734 0.0
H1204 H 0.23614 0.94779 0.69195 0.0
H1205 H 0.24244 0.97309 0.67838 0.0
H1206 H 0.27539 0.9764 0.73717 0.0
H1207 H 0.26917 0.95093 0.751 0.0
H1208 H 0.24078 -0.00036 0.71125 0.0
H1209 H 0.29739 0.98933 0.6706 0.0
H1210 H 0.28395 0.97441 0.67467 0.0
H1211 H 0.29333 0.98214 0.70139 0.0
C1212 C 0.24481 0.95381 0.70193 0.0
C1213 C 0.25214 0.94735 0.72259 0.0
C1214 C 0.24837 0.96828 0.69416 0.0
C1215 C 0.25939 0.97655 0.70675 0.0
C1216 C 0.26694 0.97011 0.72711 0.0
H1217 H 0.28723 0.06606 0.65445 0.0
H1218 H 0.28536 0.04399 0.68172 0.0
C1219 C 0.26335 0.95559 0.73499 0.0
C1220 C 0.26243 0.99209 0.69877 0.0
H1221 H 0.28718 0.01342 0.66567 0.0
C1222 C 0.25101 0.00274 0.7016 0.0
C1223 C 0.27585 0.99609 0.68647 0.0
C1224 C 0.28837 0.98494 0.68291 0.0
C1225 C 0.25239 0.01715 0.69144 0.0
C1226 C 0.26541 0.02086 0.67774 0.0
C1227 C 0.2772 0.0105 0.67616 0.0
C1228 C 0.2662 0.03465 0.66248 0.0
C1229 C 0.23973 0.02815 0.69491 0.0
C1230 C 0.2561 0.0366 0.64264 0.0
C1231 C 0.25716 0.04907 0.62705 0.0
C1232 C 0.26839 0.05987 0.63092 0.0
C1233 C 0.27841 0.05799 0.65104 0.0
C1234 C 0.27739 0.0454 0.66659 0.0
H1235 H 0.23305 0.02551 0.7119 0.0
H1236 H 0.24399 0.0398 0.69643 0.0
H1237 H 0.23213 0.02753 0.67848 0.0
H1238 H 0.24756 0.02829 0.63886 0.0
H1239 H 0.24924 0.05013 0.61177 0.0
H1240 H 0.06879 0.25517 0.73391 0.0
H1241 H 0.04159 0.25827 0.73391 0.0
H1242 H 0.04059 0.2506 0.65417 0.0
H1243 H 0.06778 0.24722 0.65402 0.0
H1244 H 0.02308 0.27831 0.70832 0.0
H1245 H 0.01113 0.21948 0.6808 0.0
H1246 H 0.0294 0.2255 0.69114 0.0
H1247 H 0.02325 0.22942 0.65974 0.0
C1248 C 0.06281 0.25416 0.71634 0.0
C1249 C 0.07046 0.25081 0.69399 0.0
C1250 C 0.04726 0.25597 0.71638 0.0
C1251 C 0.03904 0.25443 0.69412 0.0
C1252 C 0.04667 0.25153 0.67165 0.0
H1253 H 0.94255 0.25318 0.66792 0.0
H1254 H 0.96966 0.25519 0.66205 0.0
C1255 C 0.06223 0.24967 0.67159 0.0
C1256 C 0.02247 0.25563 0.69461 0.0
H1257 H 0.99041 0.23574 0.68432 0.0
C1258 C 0.01592 0.26902 0.70303 0.0
C1259 C 0.01316 0.24349 0.68769 0.0
C1260 C 0.01955 0.22861 0.67954 0.0
C1261 C 0.0003 0.2706 0.70469 0.0
C1262 C 0.99102 0.2584 0.69807 0.0
C1263 C 0.99756 0.24511 0.68927 0.0
C1264 C 0.97453 0.25883 0.70128 0.0
C1265 C 0.99385 0.28534 0.71337 0.0
C1266 C 0.96827 0.26034 0.72526 0.0
C1267 C 0.9528 0.25917 0.72871 0.0
C1268 C 0.94328 0.2564 0.70823 0.0
C1269 C 0.94955 0.25535 0.6841 0.0
C1270 C 0.96504 0.25647 0.6807 0.0
H1271 H 0.00196 0.29466 0.71096 0.0
H1272 H 0.98343 0.2881 0.70296 0.0
H1273 H 0.99105 0.28453 0.73357 0.0
H1274 H 0.97541 0.26188 0.74147 0.0
H1275 H 0.94836 0.26 0.74753 0.0
H1276 H 0.76457 0.03184 0.74362 0.0
H1277 H 0.75671 0.00838 0.7243 0.0
H1278 H 0.71441 0.02837 0.70409 0.0
H1279 H 0.72241 0.05213 0.72272 0.0
H1280 H 0.73371 0.98908 0.73152 0.0
H1281 H 0.73 0.0148 0.63685 0.0
H1282 H 0.73806 0.0245 0.66321 0.0
H1283 H 0.71806 0.02319 0.65997 0.0
C1284 C 0.75355 0.03125 0.73521 0.0
C1285 C 0.74419 0.04391 0.7344 0.0
C1286 C 0.74905 0.0178 0.72423 0.0
C1287 C 0.73509 0.0167 0.71233 0.0
C1288 C 0.72538 0.02908 0.71262 0.0
H1289 H 0.70675 0.92923 0.65052 0.0
H1290 H 0.70745 0.95187 0.67654 0.0
C1291 C 0.72994 0.04262 0.72338 0.0
C1292 C 0.73119 0.00279 0.6986 0.0
H1293 H 0.72439 0.98918 0.63994 0.0
C1294 C 0.73154 0.98908 0.71153 0.0
C1295 C 0.72852 0.00283 0.67246 0.0
C1296 C 0.72875 0.01708 0.65721 0.0
C1297 C 0.72973 0.97539 0.69892 0.0
C1298 C 0.72715 0.97545 0.67277 0.0
C1299 C 0.72631 0.98918 0.66001 0.0
C1300 C 0.72666 0.96148 0.65775 0.0
C1301 C 0.73129 0.96098 0.71348 0.0
C1302 C 0.73706 0.95947 0.63836 0.0
C1303 C 0.73657 0.94672 0.62332 0.0
C1304 C 0.72567 0.93562 0.62737 0.0
C1305 C 0.71534 0.93753 0.64703 0.0
C1306 C 0.71577 0.95042 0.66198 0.0
H1307 H 0.73651 0.96283 0.73213 0.0
H1308 H 0.72004 0.95605 0.71649 0.0
H1309 H 0.73816 0.95273 0.70297 0.0
H1310 H 0.74559 0.96784 0.63478 0.0
H1311 H 0.74475 0.9456 0.60846 0.0
H1312 H 0.55825 0.75525 0.83713 0.0
H1313 H 0.53122 0.75792 0.84358 0.0
H1314 H 0.52444 0.7594 0.76365 0.0
H1315 H 0.55138 0.7569 0.75699 0.0
H1316 H 0.50722 0.78073 0.79103 0.0
H1317 H 0.50197 0.7231 0.82976 0.0
H1318 H 0.51531 0.73506 0.8451 0.0
H1319 H 0.51847 0.72934 0.81328 0.0
C1320 C 0.55102 0.75629 0.82092 0.0
C1321 C 0.55697 0.75572 0.79653 0.0
C1322 C 0.53558 0.75774 0.82465 0.0
C1323 C 0.52582 0.7586 0.80408 0.0
C1324 C 0.53177 0.75868 0.77977 0.0
H1325 H 0.43183 0.75769 0.76993 0.0
H1326 H 0.45901 0.76052 0.77035 0.0
C1327 C 0.54719 0.75722 0.77602 0.0
C1328 C 0.50936 0.75887 0.80766 0.0
H1329 H 0.47993 0.73747 0.82727 0.0
C1330 C 0.50124 0.77132 0.79908 0.0
C1331 C 0.5016 0.74657 0.81819 0.0
C1332 C 0.50972 0.73269 0.82696 0.0
C1333 C 0.48554 0.77177 0.80063 0.0
C1334 C 0.47776 0.75931 0.81056 0.0
C1335 C 0.48591 0.74701 0.81968 0.0
C1336 C 0.46116 0.75843 0.81059 0.0
C1337 C 0.47745 0.78562 0.79172 0.0
C1338 C 0.45333 0.75602 0.83303 0.0
C1339 C 0.43776 0.75426 0.83284 0.0
C1340 C 0.42974 0.75478 0.81015 0.0
C1341 C 0.43763 0.75731 0.78775 0.0
C1342 C 0.45318 0.75904 0.78796 0.0
H1343 H 0.48488 0.7956 0.79205 0.0
H1344 H 0.47371 0.78391 0.77211 0.0
H1345 H 0.46743 0.78797 0.80342 0.0
H1346 H 0.45928 0.7554 0.85068 0.0
H1347 H 0.43204 0.75231 0.85043 0.0
H1348 H 0.26462 0.46399 0.73808 0.0
H1349 H 0.25846 0.48798 0.7574 0.0
H1350 H 0.21804 0.46895 0.78806 0.0
H1351 H 0.22436 0.4447 0.7694 0.0
H1352 H 0.23497 0.50749 0.75469 0.0
H1353 H 0.23966 0.48323 0.85028 0.0
H1354 H 0.24536 0.47314 0.82264 0.0
H1355 H 0.22586 0.47444 0.83076 0.0
C1356 C 0.25435 0.46491 0.74876 0.0
C1357 C 0.24509 0.45238 0.75254 0.0
C1358 C 0.25083 0.47865 0.75973 0.0
C1359 C 0.23796 0.48016 0.77457 0.0
C1360 C 0.22822 0.46792 0.77718 0.0
H1361 H 0.21114 0.56684 0.83913 0.0
H1362 H 0.21194 0.54438 0.8128 0.0
C1363 C 0.23182 0.4541 0.76642 0.0
C1364 C 0.23534 0.49429 0.78845 0.0
H1365 H 0.23315 0.5087 0.84753 0.0
C1366 C 0.23449 0.50779 0.77499 0.0
C1367 C 0.23492 0.49463 0.81495 0.0
C1368 C 0.23663 0.48062 0.83057 0.0
C1369 C 0.23345 0.52165 0.78734 0.0
C1370 C 0.23295 0.52194 0.81382 0.0
C1371 C 0.2335 0.50843 0.82722 0.0
C1372 C 0.23277 0.53611 0.8283 0.0
C1373 C 0.2335 0.53584 0.77199 0.0
C1374 C 0.24414 0.53886 0.84584 0.0
C1375 C 0.2436 0.55151 0.86111 0.0
C1376 C 0.23169 0.56175 0.8591 0.0
C1377 C 0.22051 0.55922 0.84101 0.0
C1378 C 0.22098 0.54642 0.82587 0.0
H1379 H 0.2376 0.53385 0.75263 0.0
H1380 H 0.22191 0.54026 0.77074 0.0
H1381 H 0.24062 0.54454 0.78087 0.0
H1382 H 0.25335 0.53106 0.84799 0.0
H1383 H 0.25244 0.55316 0.87473 0.0
H1384 H 0.44105 0.24096 0.83277 0.0
H1385 H 0.46786 0.23849 0.84153 0.0
H1386 H 0.47697 0.23602 0.76232 0.0
H1387 H 0.45022 0.23838 0.75334 0.0
H1388 H 0.4934 0.21489 0.79315 0.0
H1389 H 0.49718 0.27366 0.82752 0.0
H1390 H 0.48329 0.26199 0.84209 0.0
H1391 H 0.48139 0.26694 0.80965 0.0
C1392 C 0.44873 0.23973 0.81721 0.0
C1393 C 0.4435 0.24001 0.79233 0.0
C1394 C 0.46405 0.23839 0.82226 0.0
C1395 C 0.47438 0.23731 0.80255 0.0
C1396 C 0.46915 0.23692 0.77778 0.0
H1397 H 0.56851 0.23816 0.77362 0.0
H1398 H 0.54143 0.23468 0.77351 0.0
C1399 C 0.45387 0.23829 0.7727 0.0
C1400 C 0.4907 0.23726 0.80752 0.0
H1401 H 0.51941 0.25957 0.8272 0.0
C1402 C 0.4991 0.22461 0.80076 0.0
C1403 C 0.49806 0.24994 0.81754 0.0
C1404 C 0.48959 0.26397 0.82449 0.0
C1405 C 0.51474 0.22436 0.80351 0.0
C1406 C 0.52217 0.23723 0.81273 0.0
C1407 C 0.5137 0.24972 0.82016 0.0
C1408 C 0.53874 0.2384 0.81332 0.0
C1409 C 0.52315 0.21029 0.79655 0.0
C1410 C 0.54624 0.24196 0.83567 0.0
C1411 C 0.56176 0.24413 0.83577 0.0
C1412 C 0.57004 0.24286 0.81345 0.0
C1413 C 0.5625 0.23915 0.79117 0.0
C1414 C 0.54701 0.23702 0.7911 0.0
H1415 H 0.51584 0.20025 0.79782 0.0
H1416 H 0.52709 0.21122 0.7769 0.0
H1417 H 0.53304 0.20859 0.80883 0.0
H1418 H 0.54005 0.2432 0.85301 0.0
H1419 H 0.56722 0.247 0.85324 0.0
H1420 H 0.74797 0.44478 0.87787 0.0
H1421 H 0.74781 0.46656 0.85039 0.0
H1422 H 0.79009 0.4528 0.81879 0.0
H1423 H 0.79015 0.43064 0.84591 0.0
H1424 H 0.76837 0.48871 0.85156 0.0
H1425 H 0.76615 0.46347 0.75645 0.0
H1426 H 0.76216 0.45287 0.78446 0.0
H1427 H 0.78119 0.45693 0.77597 0.0
C1428 C 0.75715 0.44624 0.86485 0.0
C1429 C 0.76911 0.43601 0.86414 0.0
C1430 C 0.75704 0.45871 0.84915 0.0
C1431 C 0.7689 0.46129 0.83247 0.0
C1432 C 0.78069 0.4509 0.83119 0.0
H1433 H 0.77799 0.55289 0.7743 0.0
H1434 H 0.78448 0.5286 0.79269 0.0
C1435 C 0.78074 0.43827 0.84677 0.0
C1436 C 0.76924 0.47543 0.81793 0.0
H1437 H 0.76849 0.48982 0.75868 0.0
C1438 C 0.76848 0.48896 0.83124 0.0
C1439 C 0.76934 0.4757 0.79144 0.0
C1440 C 0.76963 0.46148 0.77616 0.0
C1441 C 0.76733 0.50275 0.81887 0.0
C1442 C 0.76743 0.50306 0.79236 0.0
C1443 C 0.76857 0.48955 0.77899 0.0
C1444 C 0.7649 0.51717 0.77834 0.0
C1445 C 0.7653 0.51677 0.83435 0.0
C1446 C 0.7522 0.51858 0.76305 0.0
C1447 C 0.74859 0.53235 0.75225 0.0
C1448 C 0.75757 0.545 0.75664 0.0
C1449 C 0.77074 0.54339 0.77084 0.0
C1450 C 0.77443 0.52954 0.78144 0.0
H1451 H 0.762 0.51418 0.85395 0.0
H1452 H 0.77602 0.52303 0.83497 0.0
H1453 H 0.75663 0.52418 0.82603 0.0
H1454 H 0.74473 0.50916 0.76033 0.0
H1455 H 0.73841 0.53318 0.74129 0.0
H1456 H 0.43725 0.24705 0.23214 0.0
H1457 H 0.46422 0.24272 0.23189 0.0
H1458 H 0.46366 0.23987 0.15125 0.0
H1459 H 0.43658 0.24448 0.15126 0.0
H1460 H 0.48083 0.21875 0.21356 0.0
H1461 H 0.49559 0.27168 0.16443 0.0
H1462 H 0.47723 0.26839 0.17741 0.0
H1463 H 0.48255 0.25977 0.14833 0.0
C1464 C 0.44282 0.24551 0.2143 0.0
C1465 C 0.43475 0.24623 0.19169 0.0
C1466 C 0.45825 0.24299 0.21422 0.0
C1467 C 0.46599 0.24117 0.19156 0.0
C1468 C 0.45796 0.24154 0.16894 0.0
H1469 H 0.56352 0.23569 0.17163 0.0
H1470 H 0.53657 0.23364 0.1635 0.0
C1471 C 0.44247 0.2441 0.16899 0.0
C1472 C 0.48249 0.23904 0.19191 0.0
H1473 H 0.51549 0.25574 0.17563 0.0
C1474 C 0.48841 0.22678 0.20512 0.0
C1475 C 0.49237 0.2495 0.1808 0.0
C1476 C 0.48668 0.26315 0.1671 0.0
C1477 C 0.50393 0.22484 0.2079 0.0
C1478 C 0.51379 0.23556 0.1975 0.0
C1479 C 0.5079 0.24753 0.18355 0.0
C1480 C 0.53014 0.23526 0.20247 0.0
C1481 C 0.50964 0.21139 0.22208 0.0
C1482 C 0.53547 0.23676 0.22708 0.0
C1483 C 0.55081 0.23796 0.23178 0.0
C1484 C 0.56117 0.23775 0.21195 0.0
C1485 C 0.55585 0.23582 0.18734 0.0
C1486 C 0.54046 0.23469 0.18264 0.0
H1487 H 0.50132 0.20214 0.2221 0.0
H1488 H 0.52029 0.20718 0.21394 0.0
H1489 H 0.51177 0.21461 0.24184 0.0
H1490 H 0.52771 0.23752 0.24263 0.0
H1491 H 0.5545 0.23947 0.25095 0.0
H1492 H 0.79573 0.57089 0.17087 0.0
H1493 H 0.79475 0.55053 0.20185 0.0
H1494 H 0.75985 0.52902 0.15921 0.0
H1495 H 0.76067 0.54909 0.12845 0.0
H1496 H 0.75487 0.53148 0.21336 0.0
H1497 H 0.80985 0.5065 0.18666 0.0
H1498 H 0.80896 0.52624 0.19356 0.0
H1499 H 0.7999 0.5191 0.16607 0.0
C1500 C 0.7878 0.56186 0.16819 0.0
C1501 C 0.77835 0.56158 0.14707 0.0
C1502 C 0.7873 0.55023 0.18584 0.0
C1503 C 0.7773 0.53826 0.18264 0.0
C1504 C 0.76766 0.53817 0.16196 0.0
H1505 H 0.76341 0.44807 0.21641 0.0
H1506 H 0.77053 0.47278 0.20092 0.0
C1507 C 0.76819 0.54965 0.14434 0.0
C1508 C 0.77685 0.52549 0.20027 0.0
H1509 H 0.79463 0.49264 0.21399 0.0
C1510 C 0.76368 0.52311 0.21401 0.0
C1511 C 0.78834 0.5146 0.20078 0.0
C1512 C 0.80258 0.51659 0.18596 0.0
C1513 C 0.76137 0.50977 0.22731 0.0
C1514 C 0.77261 0.4986 0.22702 0.0
C1515 C 0.78608 0.50128 0.21423 0.0
C1516 C 0.76983 0.48346 0.23729 0.0
C1517 C 0.74654 0.50732 0.24027 0.0
C1518 C 0.76742 0.48121 0.26298 0.0
C1519 C 0.76329 0.46707 0.27193 0.0
C1520 C 0.76152 0.45497 0.25529 0.0
C1521 C 0.76457 0.45716 0.22971 0.0
C1522 C 0.7687 0.47127 0.22082 0.0
H1523 H 0.73823 0.51613 0.23548 0.0
H1524 H 0.74181 0.49623 0.23514 0.0
H1525 H 0.74826 0.50746 0.26086 0.0
H1526 H 0.76843 0.49046 0.27601 0.0
H1527 H 0.76113 0.46574 0.29176 0.0
H1528 H 0.45017 0.73766 0.24799 0.0
H1529 H 0.47674 0.7384 0.23759 0.0
H1530 H 0.46649 0.75996 0.16735 0.0
H1531 H 0.43974 0.7591 0.17748 0.0
H1532 H 0.48468 0.73534 0.16178 0.0
H1533 H 0.50719 0.77222 0.23601 0.0
H1534 H 0.49585 0.75744 0.24856 0.0
H1535 H 0.48748 0.77137 0.22857 0.0
C1536 C 0.45355 0.74279 0.23049 0.0
C1537 C 0.44282 0.7483 0.21355 0.0
C1538 C 0.46878 0.74329 0.22465 0.0
C1539 C 0.47363 0.74941 0.20184 0.0
C1540 C 0.46299 0.75528 0.18513 0.0
H1541 H 0.57053 0.75314 0.1733 0.0
H1542 H 0.54414 0.76055 0.17577 0.0
C1543 C 0.44771 0.7548 0.19098 0.0
C1544 C 0.48965 0.74841 0.19469 0.0
H1545 H 0.52494 0.7558 0.21589 0.0
C1546 C 0.49349 0.74002 0.17338 0.0
C1547 C 0.50113 0.75469 0.20961 0.0
C1548 C 0.49771 0.76456 0.23182 0.0
C1549 C 0.5085 0.73706 0.16739 0.0
C1550 C 0.51995 0.74243 0.18335 0.0
C1551 C 0.51615 0.75152 0.20384 0.0
C1552 C 0.53582 0.73794 0.18008 0.0
C1553 C 0.51196 0.72802 0.14421 0.0
C1554 C 0.53988 0.72279 0.18173 0.0
C1555 C 0.55491 0.71852 0.18036 0.0
C1556 C 0.56621 0.72934 0.17745 0.0
C1557 C 0.5621 0.74452 0.17547 0.0
C1558 C 0.54703 0.74878 0.1769 0.0
H1559 H 0.50277 0.72881 0.13025 0.0
H1560 H 0.52254 0.73181 0.13531 0.0
H1561 H 0.51325 0.71606 0.14946 0.0
H1562 H 0.53144 0.71426 0.18471 0.0
H1563 H 0.55767 0.70675 0.18205 0.0
H1564 H 0.25186 0.45026 0.12736 0.0
H1565 H 0.24976 0.47128 0.15623 0.0
H1566 H 0.21366 0.44904 0.19483 0.0
H1567 H 0.21558 0.42786 0.16578 0.0
H1568 H 0.2073 0.47884 0.18146 0.0
H1569 H 0.26191 0.47477 0.23003 0.0
H1570 H 0.26376 0.47427 0.19656 0.0
H1571 H 0.25401 0.45941 0.21242 0.0
C1572 C 0.24357 0.4497 0.14213 0.0
C1573 C 0.23387 0.43735 0.1442 0.0
C1574 C 0.24245 0.46171 0.15874 0.0
C1575 C 0.23168 0.46163 0.17784 0.0
C1576 C 0.22211 0.44926 0.18028 0.0
H1577 H 0.23474 0.53676 0.28313 0.0
H1578 H 0.23167 0.51129 0.26707 0.0
C1579 C 0.22326 0.43716 0.1637 0.0
C1580 C 0.22989 0.47497 0.19406 0.0
H1581 H 0.2496 0.49872 0.23168 0.0
C1582 C 0.21644 0.48308 0.19281 0.0
C1583 C 0.24175 0.48035 0.20912 0.0
C1584 C 0.25611 0.47167 0.21236 0.0
C1585 C 0.21486 0.4969 0.20509 0.0
C1586 C 0.22712 0.50281 0.21863 0.0
C1587 C 0.24025 0.49426 0.22106 0.0
C1588 C 0.22704 0.51821 0.229 0.0
C1589 C 0.20014 0.50513 0.20316 0.0
C1590 C 0.22527 0.53056 0.21298 0.0
C1591 C 0.22699 0.54513 0.22209 0.0
C1592 C 0.23067 0.54762 0.24737 0.0
C1593 C 0.23193 0.53524 0.26355 0.0
C1594 C 0.23019 0.52067 0.25442 0.0
H1595 H 0.19074 0.49729 0.19953 0.0
H1596 H 0.19772 0.51153 0.22053 0.0
H1597 H 0.20067 0.51313 0.18728 0.0
H1598 H 0.22317 0.52892 0.19319 0.0
H1599 H 0.226 0.5544 0.2091 0.0
H1600 H 0.09809 0.24272 0.37691 0.0
H1601 H 0.09462 0.24454 0.42242 0.0
H1602 H 0.14248 0.24576 0.43261 0.0
H1603 H 0.14612 0.24396 0.38748 0.0
H1604 H 0.10696 0.22424 0.46038 0.0
H1605 H 0.12637 0.28278 0.4718 0.0
H1606 H 0.1202 0.27531 0.44207 0.0
H1607 H 0.13878 0.27141 0.45335 0.0
C1608 C 0.10788 0.24345 0.38883 0.0
C1609 C 0.12239 0.24323 0.3785 0.0
C1610 C 0.10586 0.24447 0.4148 0.0
C1611 C 0.11829 0.24549 0.43075 0.0
C1612 C 0.13274 0.24523 0.42053 0.0
H1613 H 0.15022 0.24359 0.57758 0.0
H1614 H 0.14441 0.24518 0.53314 0.0
C1615 C 0.13478 0.24411 0.39471 0.0
C1616 C 0.11644 0.24635 0.45825 0.0
H1617 H 0.12654 0.26747 0.50873 0.0
C1618 C 0.11092 0.23379 0.47104 0.0
C1619 C 0.12156 0.25888 0.47197 0.0
C1620 C 0.12693 0.27293 0.45911 0.0
C1621 C 0.11138 0.23302 0.49733 0.0
C1622 C 0.11735 0.24521 0.51098 0.0
C1623 C 0.12205 0.25811 0.49818 0.0
C1624 C 0.1204 0.24422 0.53817 0.0
C1625 C 0.10637 0.21885 0.51023 0.0
C1626 C 0.10878 0.24322 0.55578 0.0
C1627 C 0.11206 0.24228 0.58141 0.0
C1628 C 0.12703 0.24238 0.58976 0.0
C1629 C 0.13858 0.24346 0.57193 0.0
C1630 C 0.13529 0.2444 0.54646 0.0
H1631 H 0.10396 0.20969 0.49672 0.0
H1632 H 0.11509 0.21494 0.52358 0.0
H1633 H 0.09604 0.22114 0.52111 0.0
H1634 H 0.09721 0.24325 0.54973 0.0
H1635 H 0.1029 0.24152 0.59463 0.0
H1636 H 0.76284 0.13391 0.66267 0.0
H1637 H 0.7597 0.13329 0.61718 0.0
H1638 H 0.74188 0.08852 0.62209 0.0
H1639 H 0.74489 0.089 0.6676 0.0
H1640 H 0.77222 0.11235 0.58235 0.0
H1641 H 0.71001 0.11218 0.58156 0.0
H1642 H 0.72078 0.11752 0.60877 0.0
H1643 H 0.71844 0.09808 0.60104 0.0
C1644 C 0.7582 0.12393 0.65414 0.0
C1645 C 0.75404 0.11153 0.66886 0.0
C1646 C 0.75645 0.1236 0.62812 0.0
C1647 C 0.75038 0.11095 0.61636 0.0
C1648 C 0.74636 0.09849 0.63089 0.0
H1649 H 0.75193 0.08275 0.46215 0.0
H1650 H 0.75589 0.08627 0.50701 0.0
C1651 C 0.74816 0.09877 0.6569 0.0
C1652 C 0.74848 0.11066 0.58882 0.0
H1653 H 0.72218 0.10766 0.54269 0.0
C1654 C 0.76128 0.1114 0.57364 0.0
C1655 C 0.73419 0.10961 0.57758 0.0
C1656 C 0.72004 0.10943 0.59301 0.0
C1657 C 0.76018 0.11071 0.54743 0.0
C1658 C 0.74593 0.10912 0.53622 0.0
C1659 C 0.7331 0.10879 0.55138 0.0
C1660 C 0.74409 0.10741 0.50881 0.0
C1661 C 0.77426 0.11175 0.53191 0.0
C1662 C 0.73599 0.11806 0.49502 0.0
C1663 C 0.73374 0.11611 0.46929 0.0
C1664 C 0.73945 0.1034 0.45699 0.0
C1665 C 0.74756 0.09277 0.47092 0.0
C1666 C 0.74986 0.09476 0.49659 0.0
H1667 H 0.78369 0.11665 0.54274 0.0
H1668 H 0.77761 0.10035 0.52582 0.0
H1669 H 0.77237 0.11865 0.51489 0.0
H1670 H 0.73137 0.12785 0.50419 0.0
H1671 H 0.72738 0.12447 0.45913 0.0
H1672 H 0.89378 0.76843 0.37636 0.0
H1673 H 0.896 0.76462 0.42166 0.0
H1674 H 0.8479 0.76499 0.42845 0.0
H1675 H 0.84551 0.76867 0.38336 0.0
H1676 H 0.88501 0.78343 0.4601 0.0
H1677 H 0.86012 0.72671 0.46589 0.0
H1678 H 0.86667 0.73469 0.43679 0.0
H1679 H 0.84863 0.73981 0.44911 0.0
C1680 C 0.88366 0.76759 0.38745 0.0
C1681 C 0.86946 0.76881 0.37615 0.0
C1682 C 0.88497 0.76542 0.41333 0.0
C1683 C 0.87212 0.76429 0.42832 0.0
C1684 C 0.85796 0.76552 0.41714 0.0
H1685 H 0.84375 0.762 0.57977 0.0
H1686 H 0.8473 0.76216 0.53453 0.0
C1687 C 0.85663 0.76772 0.39134 0.0
C1688 C 0.87338 0.76247 0.45583 0.0
H1689 H 0.86182 0.74043 0.50434 0.0
C1690 C 0.88016 0.77393 0.46982 0.0
C1691 C 0.86708 0.75003 0.46837 0.0
C1692 C 0.86034 0.73703 0.45427 0.0
C1693 C 0.8801 0.77365 0.49613 0.0
C1694 C 0.87326 0.76149 0.50868 0.0
C1695 C 0.867 0.74977 0.49465 0.0
C1696 C 0.87147 0.76123 0.53626 0.0
C1697 C 0.8867 0.7867 0.51032 0.0
C1698 C 0.88392 0.76052 0.55228 0.0
C1699 C 0.88195 0.76044 0.57831 0.0
C1700 C 0.86748 0.76103 0.58873 0.0
C1701 C 0.85506 0.76158 0.5725 0.0
C1702 C 0.85705 0.76164 0.54658 0.0
H1703 H 0.88906 0.79639 0.49788 0.0
H1704 H 0.879 0.79039 0.52544 0.0
H1705 H 0.89738 0.78317 0.51916 0.0
H1706 H 0.89515 0.75997 0.54465 0.0
H1707 H 0.89176 0.75995 0.59022 0.0
H1708 H 0.24007 0.85716 0.68609 0.0
H1709 H 0.24475 0.8552 0.64096 0.0
H1710 H 0.26226 0.90017 0.6404 0.0
H1711 H 0.25759 0.90233 0.68534 0.0
H1712 H 0.23307 0.87622 0.60183 0.0
H1713 H 0.29516 0.87269 0.60649 0.0
H1714 H 0.28325 0.86814 0.63278 0.0
H1715 H 0.28674 0.88736 0.62481 0.0
C1716 C 0.24498 0.86662 0.67641 0.0
C1717 C 0.24849 0.87989 0.68938 0.0
C1718 C 0.24761 0.86547 0.65064 0.0
C1719 C 0.25398 0.87748 0.6375 0.0
C1720 C 0.2575 0.89072 0.65033 0.0
H1721 H 0.26016 0.90485 0.48487 0.0
H1722 H 0.25425 0.90105 0.52903 0.0
C1723 C 0.25476 0.89194 0.676 0.0
C1724 C 0.25665 0.87642 0.61022 0.0
H1725 H 0.28443 0.87689 0.56632 0.0
C1726 C 0.24428 0.8762 0.59402 0.0
C1727 C 0.27129 0.87628 0.6002 0.0
C1728 C 0.28491 0.876 0.61691 0.0
C1729 C 0.24621 0.87644 0.56791 0.0
C1730 C 0.26085 0.87695 0.5579 0.0
C1731 C 0.27321 0.87657 0.57411 0.0
C1732 C 0.26358 0.87871 0.53073 0.0
C1733 C 0.23259 0.87631 0.5512 0.0
C1734 C 0.27087 0.86742 0.5171 0.0
C1735 C 0.27417 0.86951 0.49171 0.0
C1736 C 0.27039 0.88301 0.47964 0.0
C1737 C 0.26305 0.89425 0.49342 0.0
C1738 C 0.25965 0.8921 0.51869 0.0
H1739 H 0.22246 0.87238 0.56133 0.0
H1740 H 0.2304 0.88785 0.54436 0.0
H1741 H 0.23445 0.86902 0.53463 0.0
H1742 H 0.27409 0.85705 0.52616 0.0
H1743 H 0.2799 0.86066 0.48168 0.0
H1744 H 0.14345 0.75078 0.41644 0.0
H1745 H 0.13853 0.74953 0.46133 0.0
H1746 H 0.09276 0.76291 0.44872 0.0
H1747 H 0.09751 0.7641 0.40345 0.0
H1748 H 0.11071 0.77971 0.48757 0.0
H1749 H 0.11118 0.71785 0.499 0.0
H1750 H 0.12619 0.72543 0.48047 0.0
H1751 H 0.10726 0.72688 0.4694 0.0
C1752 C 0.1323 0.75342 0.4231 0.0
C1753 C 0.12087 0.75755 0.40631 0.0
C1754 C 0.1295 0.75261 0.44877 0.0
C1755 C 0.11526 0.75598 0.45822 0.0
C1756 C 0.1038 0.76016 0.44166 0.0
H1757 H 0.09468 0.74658 0.61874 0.0
H1758 H 0.09173 0.7467 0.57303 0.0
C1759 C 0.10654 0.76083 0.41585 0.0
C1760 C 0.11271 0.75571 0.48557 0.0
H1761 H 0.11359 0.73243 0.53628 0.0
C1762 C 0.11108 0.76937 0.49824 0.0
C1763 C 0.11314 0.74219 0.49932 0.0
C1764 C 0.11442 0.72721 0.48641 0.0
C1765 C 0.11064 0.76991 0.52451 0.0
C1766 C 0.11188 0.75645 0.53829 0.0
C1767 C 0.11273 0.74272 0.52559 0.0
C1768 C 0.11343 0.75652 0.56585 0.0
C1769 C 0.10923 0.78487 0.53742 0.0
C1770 C 0.12668 0.76184 0.57676 0.0
C1771 C 0.12847 0.76166 0.60273 0.0
C1772 C 0.11699 0.75622 0.61833 0.0
C1773 C 0.10371 0.75089 0.60728 0.0
C1774 C 0.10199 0.75094 0.58121 0.0
H1775 H 0.10519 0.79372 0.52444 0.0
H1776 H 0.10143 0.7841 0.55358 0.0
H1777 H 0.12036 0.78828 0.5447 0.0
H1778 H 0.13568 0.76604 0.56512 0.0
H1779 H 0.13883 0.76588 0.61056 0.0
H1780 H 0.24278 0.13458 0.31937 0.0
H1781 H 0.24774 0.13597 0.36441 0.0
H1782 H 0.27901 0.09927 0.35794 0.0
H1783 H 0.27351 0.09737 0.31326 0.0
H1784 H 0.26169 0.09458 0.39538 0.0
H1785 H 0.28172 0.15303 0.40298 0.0
H1786 H 0.26336 0.15205 0.38951 0.0
H1787 H 0.27903 0.1439 0.37317 0.0
C1788 C 0.25082 0.12692 0.32756 0.0
C1789 C 0.25775 0.11586 0.31282 0.0
C1790 C 0.25374 0.12779 0.35328 0.0
C1791 C 0.26397 0.11791 0.36458 0.0
C1792 C 0.27109 0.10705 0.34971 0.0
H1793 H 0.2997 0.12448 0.51619 0.0
H1794 H 0.29523 0.12685 0.47098 0.0
C1795 C 0.26793 0.10596 0.32416 0.0
C1796 C 0.26657 0.11813 0.3921 0.0
H1797 H 0.27575 0.1407 0.44149 0.0
C1798 C 0.26487 0.10467 0.40539 0.0
C1799 C 0.27091 0.13123 0.40521 0.0
C1800 C 0.27402 0.14582 0.39194 0.0
C1801 C 0.26729 0.10391 0.4313 0.0
C1802 C 0.27087 0.11715 0.44462 0.0
C1803 C 0.27275 0.13061 0.43135 0.0
C1804 C 0.27303 0.11711 0.47221 0.0
C1805 C 0.26638 0.08879 0.44392 0.0
C1806 C 0.26183 0.11143 0.48806 0.0
C1807 C 0.26451 0.1098 0.51368 0.0
C1808 C 0.27825 0.11422 0.52403 0.0
C1809 C 0.28903 0.12094 0.50856 0.0
C1810 C 0.28648 0.12228 0.48278 0.0
H1811 H 0.26827 0.07952 0.43039 0.0
H1812 H 0.27474 0.08778 0.45923 0.0
H1813 H 0.25503 0.08731 0.452 0.0
H1814 H 0.25114 0.10793 0.48051 0.0
H1815 H 0.25584 0.10502 0.52533 0.0
H1816 H 0.85215 0.24257 0.41537 0.0
H1817 H 0.85678 0.24154 0.46028 0.0
H1818 H 0.90385 0.24907 0.44764 0.0
H1819 H 0.89934 0.25026 0.40235 0.0
H1820 H 0.8763 0.22145 0.48609 0.0
H1821 H 0.89189 0.28127 0.50031 0.0
H1822 H 0.88224 0.27489 0.47255 0.0
H1823 H 0.90183 0.27108 0.47644 0.0
C1824 C 0.86351 0.24406 0.422 0.0
C1825 C 0.87537 0.24655 0.40515 0.0
C1826 C 0.86613 0.24344 0.44774 0.0
C1827 C 0.88062 0.24537 0.45728 0.0
C1828 C 0.89254 0.24777 0.44064 0.0
H1829 H 0.90372 0.24659 0.61783 0.0
H1830 H 0.90607 0.24713 0.57205 0.0
C1831 C 0.88995 0.24837 0.41477 0.0
C1832 C 0.88304 0.24458 0.4847 0.0
H1833 H 0.89087 0.26595 0.53616 0.0
C1834 C 0.87963 0.23113 0.49703 0.0
C1835 C 0.88747 0.25721 0.49887 0.0
C1836 C 0.891 0.27199 0.48651 0.0
C1837 C 0.88013 0.23008 0.52322 0.0
C1838 C 0.88389 0.24289 0.53747 0.0
C1839 C 0.88794 0.25617 0.52514 0.0
C1840 C 0.88257 0.24296 0.56513 0.0
C1841 C 0.87645 0.2153 0.53546 0.0
C1842 C 0.86854 0.24078 0.57632 0.0
C1843 C 0.86714 0.24049 0.60234 0.0
C1844 C 0.87975 0.24245 0.61781 0.0
C1845 C 0.89378 0.24498 0.60651 0.0
C1846 C 0.89516 0.2453 0.58037 0.0
H1847 H 0.87808 0.20578 0.52233 0.0
H1848 H 0.88349 0.21341 0.55233 0.0
H1849 H 0.86454 0.21535 0.54136 0.0
H1850 H 0.85864 0.23925 0.56486 0.0
H1851 H 0.85614 0.23861 0.61029 0.0
H1852 H 0.71574 0.85366 0.52895 0.0
H1853 H 0.72223 0.84723 0.4856 0.0
H1854 H 0.73307 0.89347 0.47098 0.0
H1855 H 0.72671 0.89996 0.51398 0.0
H1856 H 0.70917 0.8579 0.44251 0.0
H1857 H 0.76943 0.87178 0.44276 0.0
H1858 H 0.75883 0.86929 0.47128 0.0
H1859 H 0.75841 0.88693 0.45489 0.0
C1860 C 0.71965 0.86243 0.51654 0.0
C1861 C 0.72085 0.87731 0.52499 0.0
C1862 C 0.72337 0.85872 0.49182 0.0
C1863 C 0.72844 0.86981 0.47524 0.0
C1864 C 0.72961 0.88465 0.48365 0.0
H1865 H 0.72015 0.88917 0.32405 0.0
H1866 H 0.71716 0.88262 0.36796 0.0
C1867 C 0.72589 0.88836 0.50826 0.0
C1868 C 0.7315 0.86628 0.4486 0.0
H1869 H 0.75711 0.87236 0.40229 0.0
C1870 C 0.71976 0.86075 0.43378 0.0
C1871 C 0.74541 0.86967 0.43727 0.0
C1872 C 0.75878 0.87459 0.45245 0.0
C1873 C 0.72119 0.85967 0.40766 0.0
C1874 C 0.7346 0.86448 0.39611 0.0
C1875 C 0.74675 0.86885 0.41111 0.0
C1876 C 0.73563 0.86692 0.36871 0.0
C1877 C 0.70814 0.85383 0.39262 0.0
C1878 C 0.74712 0.86036 0.35448 0.0
C1879 C 0.74894 0.86416 0.32919 0.0
C1880 C 0.73941 0.87475 0.31789 0.0
C1881 C 0.72771 0.88098 0.33212 0.0
C1882 C 0.72587 0.87714 0.35723 0.0
H1883 H 0.70131 0.84585 0.40379 0.0
H1884 H 0.70079 0.86333 0.38728 0.0
H1885 H 0.71195 0.84813 0.37525 0.0
H1886 H 0.75487 0.85256 0.36308 0.0
H1887 H 0.75811 0.85923 0.31879 0.0
H1888 H 0.65409 0.73394 0.08731 0.0
H1889 H 0.65028 0.73764 0.04248 0.0
H1890 H 0.60247 0.73817 0.05355 0.0
H1891 H 0.6061 0.7343 0.09853 0.0
H1892 H 0.61179 0.71974 0.01405 0.0
H1893 H 0.63734 0.77612 0.00673 0.0
H1894 H 0.64926 0.76267 0.02183 0.0
H1895 H 0.63186 0.76799 0.03633 0.0
C1896 C 0.64274 0.7349 0.08032 0.0
C1897 C 0.6304 0.73387 0.09662 0.0
C1898 C 0.6406 0.73712 0.05467 0.0
C1899 C 0.62611 0.73845 0.04477 0.0
C1900 C 0.61375 0.73729 0.06087 0.0
H1901 H 0.59885 0.74428 0.88643 0.0
H1902 H 0.59796 0.74441 0.93232 0.0
C1903 C 0.61587 0.73508 0.08658 0.0
C1904 C 0.62392 0.74047 0.01746 0.0
H1905 H 0.63361 0.76288 0.96826 0.0
C1906 C 0.61636 0.72927 0.00403 0.0
C1907 C 0.62987 0.75294 0.00452 0.0
C1908 C 0.63741 0.76569 0.0181 0.0
C1909 C 0.61522 0.72985 0.97781 0.0
C1910 C 0.62162 0.74208 0.9648 0.0
C1911 C 0.62876 0.75351 0.97831 0.0
C1912 C 0.62196 0.74269 0.93707 0.0
C1913 C 0.60777 0.71707 0.96414 0.0
C1914 C 0.63575 0.74209 0.92461 0.0
C1915 C 0.63632 0.74207 0.89849 0.0
C1916 C 0.62308 0.74272 0.88422 0.0
C1917 C 0.60925 0.7437 0.8968 0.0
C1918 C 0.60871 0.7437 0.92302 0.0
H1919 H 0.60597 0.70722 0.9765 0.0
H1920 H 0.5967 0.72081 0.95706 0.0
H1921 H 0.61461 0.71352 0.9478 0.0
H1922 H 0.64611 0.74136 0.93513 0.0
H1923 H 0.64718 0.74137 0.88951 0.0
H1924 H 0.23241 0.59341 0.97454 0.0
H1925 H 0.23684 0.59782 0.01899 0.0
H1926 H 0.2177 0.64199 0.01241 0.0
H1927 H 0.21334 0.63776 0.96756 0.0
H1928 H 0.25352 0.62265 0.04314 0.0
H1929 H 0.19309 0.61933 0.06855 0.0
H1930 H 0.20025 0.61193 0.03943 0.0
H1931 H 0.19829 0.63177 0.04348 0.0
C1932 C 0.22932 0.60416 0.98235 0.0
C1933 C 0.22258 0.61526 0.96742 0.0
C1934 C 0.23183 0.60664 0.00781 0.0
C1935 C 0.22752 0.62018 0.01894 0.0
C1936 C 0.221 0.63141 0.00412 0.0
H1937 H 0.24883 0.64294 0.17509 0.0
H1938 H 0.245 0.64474 0.12974 0.0
C1939 C 0.21856 0.62898 0.97853 0.0
C1940 C 0.2295 0.62219 0.04624 0.0
H1941 H 0.21028 0.62248 0.10152 0.0
C1942 C 0.24409 0.62281 0.05594 0.0
C1943 C 0.21714 0.62223 0.06277 0.0
C1944 C 0.20128 0.6212 0.0532 0.0
C1945 C 0.24666 0.62322 0.08188 0.0
C1946 C 0.2343 0.62306 0.09842 0.0
C1947 C 0.21971 0.62269 0.0887 0.0
C1948 C 0.23633 0.62224 0.12588 0.0
C1949 C 0.26254 0.62328 0.0915 0.0
C1950 C 0.23251 0.60908 0.13867 0.0
C1951 C 0.23471 0.60798 0.16451 0.0
C1952 C 0.24065 0.6201 0.17811 0.0
C1953 C 0.24424 0.63339 0.16523 0.0
C1954 C 0.24212 0.63443 0.13931 0.0
H1955 H 0.27082 0.62121 0.07635 0.0
H1956 H 0.26502 0.63433 0.10006 0.0
H1957 H 0.264 0.61461 0.10623 0.0
H1958 H 0.228 0.59957 0.12858 0.0
H1959 H 0.23176 0.5976 0.17379 0.0
H1960 H 0.35109 0.26021 0.08102 0.0
H1961 H 0.35531 0.26016 0.03594 0.0
H1962 H 0.40271 0.25449 0.04797 0.0
H1963 H 0.39863 0.2544 0.0934 0.0
H1964 H 0.37404 0.28014 0.00811 0.0
H1965 H 0.39128 0.22044 0.99827 0.0
H1966 H 0.38163 0.22733 0.02568 0.0
H1967 H 0.40109 0.23152 0.02115 0.0
C1968 C 0.36244 0.2589 0.0742 0.0
C1969 C 0.37452 0.25725 0.09092 0.0
C1970 C 0.36481 0.2589 0.04838 0.0
C1971 C 0.37928 0.25717 0.03865 0.0
C1972 C 0.39142 0.25562 0.05515 0.0
H1973 H 0.40269 0.25186 0.87884 0.0
H1974 H 0.40468 0.25268 0.92462 0.0
C1975 C 0.38907 0.25565 0.08109 0.0
C1976 C 0.38147 0.25726 0.01116 0.0
H1977 H 0.38987 0.23478 0.96132 0.0
C1978 C 0.37762 0.27026 0.99788 0.0
C1979 C 0.38624 0.24439 0.99793 0.0
C1980 C 0.39023 0.23006 0.01136 0.0
C1981 C 0.37808 0.27064 0.97163 0.0
C1982 C 0.38222 0.25758 0.95833 0.0
C1983 C 0.38664 0.24475 0.97162 0.0
C1984 C 0.38109 0.25678 0.93069 0.0
C1985 C 0.374 0.285 0.95834 0.0
C1986 C 0.36712 0.25849 0.91904 0.0
C1987 C 0.36592 0.25802 0.89299 0.0
C1988 C 0.37868 0.25574 0.87799 0.0
C1989 C 0.39264 0.25369 0.88978 0.0
C1990 C 0.39382 0.25416 0.91593 0.0
H1991 H 0.37538 0.29489 0.97078 0.0
H1992 H 0.38097 0.28663 0.94134 0.0
H1993 H 0.36209 0.2845 0.95249 0.0
H1994 H 0.35711 0.26021 0.93014 0.0
H1995 H 0.35497 0.25954 0.88463 0.0
H1996 H 0.73472 0.3652 0.17795 0.0
H1997 H 0.74067 0.36408 0.13323 0.0
H1998 H 0.77139 0.40102 0.1421 0.0
H1999 H 0.76488 0.40267 0.18643 0.0
H2000 H 0.75524 0.40555 0.10322 0.0
H2001 H 0.77583 0.34717 0.09768 0.0
H2002 H 0.75707 0.34809 0.10951 0.0
H2003 H 0.77217 0.35633 0.12716 0.0
C2004 C 0.74283 0.37299 0.17035 0.0
C2005 C 0.74935 0.38402 0.18565 0.0
C2006 C 0.74632 0.37227 0.14482 0.0
C2007 C 0.75672 0.38226 0.1343 0.0
C2008 C 0.76335 0.39315 0.14972 0.0
H2009 H 0.79723 0.37466 0.98636 0.0
H2010 H 0.79135 0.37295 0.03118 0.0
C2011 C 0.75963 0.3941 0.17507 0.0
C2012 C 0.76013 0.38202 0.10704 0.0
H2013 H 0.77105 0.35942 0.05869 0.0
C2014 C 0.7588 0.39546 0.09356 0.0
C2015 C 0.76498 0.36893 0.09441 0.0
C2016 C 0.76775 0.35436 0.108 0.0
C2017 C 0.76209 0.3962 0.06792 0.0
C2018 C 0.7662 0.38296 0.05501 0.0
C2019 C 0.76768 0.36952 0.06849 0.0
C2020 C 0.76933 0.38295 0.02767 0.0
C2021 C 0.76155 0.4113 0.05519 0.0
C2022 C 0.75874 0.38862 0.01068 0.0
C2023 C 0.76223 0.3899 0.98528 0.0
C2024 C 0.77619 0.3851 0.97628 0.0
C2025 C 0.78641 0.37849 0.99293 0.0
C2026 C 0.78305 0.37753 0.01848 0.0
H2027 H 0.763 0.42059 0.06885 0.0
H2028 H 0.77038 0.41232 0.04065 0.0
H2029 H 0.75047 0.41278 0.04612 0.0
H2030 H 0.74785 0.39231 0.01713 0.0
H2031 H 0.75397 0.39459 0.97271 0.0
H2032 H 0.6022 0.24778 0.12337 0.0
H2033 H 0.60079 0.24546 0.07765 0.0
H2034 H 0.64887 0.24864 0.07294 0.0
H2035 H 0.65045 0.25092 0.11837 0.0
H2036 H 0.61205 0.26656 0.04138 0.0
H2037 H 0.63859 0.21068 0.03183 0.0
H2038 H 0.63091 0.21739 0.06106 0.0
H2039 H 0.64906 0.22357 0.05081 0.0
C2040 C 0.61248 0.24789 0.11263 0.0
C2041 C 0.62644 0.2495 0.1246 0.0
C2042 C 0.61164 0.24658 0.08652 0.0
C2043 C 0.62474 0.24666 0.07201 0.0
C2044 C 0.63865 0.24828 0.08386 0.0
H2045 H 0.65489 0.2489 0.92079 0.0
H2046 H 0.65118 0.24718 0.96597 0.0
C2047 C 0.63951 0.24967 0.10986 0.0
C2048 C 0.62399 0.24569 0.04434 0.0
H2049 H 0.63679 0.22539 0.99457 0.0
C2050 C 0.61725 0.25746 0.03107 0.0
C2051 C 0.63079 0.2338 0.03105 0.0
C2052 C 0.63763 0.22056 0.04438 0.0
C2053 C 0.61779 0.25804 0.00479 0.0
C2054 C 0.62501 0.24637 0.9915 0.0
C2055 C 0.6313 0.23434 0.00479 0.0
C2056 C 0.62699 0.24687 0.96394 0.0
C2057 C 0.61125 0.27148 0.99155 0.0
C2058 C 0.6146 0.247 0.94776 0.0
C2059 C 0.61667 0.24804 0.92183 0.0
C2060 C 0.63119 0.24886 0.91161 0.0
C2061 C 0.64356 0.24833 0.92793 0.0
C2062 C 0.64147 0.24733 0.9538 0.0
H2063 H 0.60906 0.2809 0.00466 0.0
H2064 H 0.61889 0.27547 0.97655 0.0
H2065 H 0.60047 0.26829 0.98272 0.0
H2066 H 0.60334 0.24635 0.95518 0.0
H2067 H 0.60689 0.24832 0.90984 0.0
H2068 H 0.80308 0.62328 0.02224 0.0
H2069 H 0.79632 0.62526 0.97786 0.0
H2070 H 0.75455 0.60266 0.99292 0.0
H2071 H 0.76165 0.60007 0.03687 0.0
H2072 H 0.76628 0.59121 0.95375 0.0
H2073 H 0.7688 0.65269 0.94221 0.0
H2074 H 0.78632 0.64535 0.95305 0.0
H2075 H 0.7699 0.64385 0.97252 0.0
C2076 C 0.79242 0.61885 0.016 0.0
C2077 C 0.78295 0.61137 0.03282 0.0
C2078 C 0.78849 0.62009 0.9907 0.0
C2079 C 0.77479 0.61432 0.982 0.0
C2080 C 0.7652 0.60716 0.99907 0.0
H2081 H 0.7385 0.63309 0.83344 0.0
H2082 H 0.74412 0.63284 0.87833 0.0
C2083 C 0.76928 0.60561 0.02419 0.0
C2084 C 0.77077 0.61492 0.95497 0.0
H2085 H 0.76805 0.63823 0.90444 0.0
C2086 C 0.76654 0.60154 0.94306 0.0
C2087 C 0.77086 0.62841 0.941 0.0
C2088 C 0.77405 0.6434 0.95293 0.0
C2089 C 0.76258 0.60122 0.91763 0.0
C2090 C 0.76353 0.61453 0.90331 0.0
C2091 C 0.76753 0.62797 0.91528 0.0
C2092 C 0.76029 0.61479 0.87599 0.0
C2093 C 0.75706 0.58664 0.90667 0.0
C2094 C 0.76767 0.60492 0.85962 0.0
C2095 C 0.76422 0.60482 0.83409 0.0
C2096 C 0.75366 0.61492 0.82427 0.0
C2097 C 0.74669 0.62518 0.84048 0.0
C2098 C 0.7499 0.62505 0.86613 0.0
H2099 H 0.75226 0.57925 0.92137 0.0
H2100 H 0.74838 0.58855 0.89212 0.0
H2101 H 0.7666 0.58058 0.89803 0.0
H2102 H 0.77611 0.59727 0.86656 0.0
H2103 H 0.76995 0.59695 0.82198 0.0
H2104 H 0.39692 0.7451 0.90909 0.0
H2105 H 0.40258 0.74652 0.95402 0.0
H2106 H 0.35535 0.74695 0.9707 0.0
H2107 H 0.34956 0.74564 0.92621 0.0
H2108 H 0.37272 0.76975 0.99529 0.0
H2109 H 0.39677 0.7125 0.0067 0.0
H2110 H 0.40428 0.72418 0.98225 0.0
H2111 H 0.38538 0.71754 0.98003 0.0
C2112 C 0.38774 0.74544 0.92233 0.0
C2113 C 0.37278 0.74524 0.91399 0.0
C2114 C 0.39101 0.74621 0.94798 0.0
C2115 C 0.37937 0.74674 0.96562 0.0
C2116 C 0.36448 0.74655 0.95735 0.0
H2117 H 0.35505 0.74637 0.11751 0.0
H2118 H 0.35802 0.74845 0.07229 0.0
C2119 C 0.36121 0.74577 0.93186 0.0
C2120 C 0.38243 0.74772 0.99282 0.0
H2121 H 0.3937 0.72696 0.04314 0.0
C2122 C 0.3775 0.76048 0.00574 0.0
C2123 C 0.38878 0.73565 0.00632 0.0
C2124 C 0.39406 0.72162 0.99326 0.0
C2125 C 0.37817 0.76126 0.03194 0.0
C2126 C 0.38371 0.74886 0.04555 0.0
C2127 C 0.38942 0.73642 0.03259 0.0
C2128 C 0.38224 0.74799 0.07312 0.0
C2129 C 0.37264 0.77523 0.04489 0.0
C2130 C 0.39489 0.74677 0.08856 0.0
C2131 C 0.39324 0.74556 0.11457 0.0
C2132 C 0.37889 0.74537 0.12549 0.0
C2133 C 0.36627 0.74652 0.10983 0.0
C2134 C 0.36794 0.7478 0.08394 0.0
H2135 H 0.37305 0.7851 0.03224 0.0
H2136 H 0.36082 0.77357 0.05066 0.0
H2137 H 0.37935 0.77768 0.06192 0.0
H2138 H 0.40602 0.74678 0.08048 0.0
H2139 H 0.4032 0.74463 0.12606 0.0
H2140 H 0.25983 0.36026 0.82451 0.0
H2141 H 0.25568 0.36004 0.86986 0.0
H2142 H 0.23721 0.4046 0.86596 0.0
H2143 H 0.24132 0.405 0.82069 0.0
H2144 H 0.26709 0.38231 0.90659 0.0
H2145 H 0.205 0.37802 0.90294 0.0
H2146 H 0.21684 0.37293 0.87684 0.0
H2147 H 0.21325 0.3923 0.88357 0.0
C2148 C 0.25484 0.37001 0.83325 0.0
C2149 C 0.25086 0.38263 0.81891 0.0
C2150 C 0.25252 0.36986 0.85916 0.0
C2151 C 0.24602 0.38224 0.87112 0.0
C2152 C 0.24209 0.39487 0.85697 0.0
H2153 H 0.24024 0.40981 0.02523 0.0
H2154 H 0.24588 0.40688 0.98073 0.0
C2155 C 0.24451 0.39509 0.83111 0.0
C2156 C 0.24348 0.38206 0.89849 0.0
H2157 H 0.21589 0.38261 0.94273 0.0
C2158 C 0.25592 0.3823 0.91454 0.0
C2159 C 0.22888 0.3819 0.9087 0.0
C2160 C 0.21519 0.38115 0.8922 0.0
C2161 C 0.25411 0.38278 0.94066 0.0
C2162 C 0.2395 0.38309 0.95085 0.0
C2163 C 0.22708 0.38244 0.9348 0.0
C2164 C 0.23685 0.38446 0.9781 0.0
C2165 C 0.26781 0.38295 0.9572 0.0
C2166 C 0.22981 0.37285 0.9913 0.0
C2167 C 0.22665 0.37444 0.01681 0.0
C2168 C 0.23033 0.38776 0.02949 0.0
C2169 C 0.23742 0.39934 0.01617 0.0
C2170 C 0.24067 0.39769 0.99072 0.0
H2171 H 0.278 0.37932 0.94692 0.0
H2172 H 0.26969 0.39451 0.96416 0.0
H2173 H 0.26622 0.37555 0.97371 0.0
H2174 H 0.2267 0.36259 0.9818 0.0
H2175 H 0.22112 0.36533 0.02649 0.0
H2176 H 0.18844 0.39289 0.19424 0.0
H2177 H 0.17603 0.37603 0.22392 0.0
H2178 H 0.18769 0.33824 0.17746 0.0
H2179 H 0.20054 0.35487 0.14834 0.0
H2180 H 0.15273 0.35775 0.21904 0.0
H2181 H 0.20226 0.32388 0.24395 0.0
H2182 H 0.20376 0.34114 0.22659 0.0
H2183 H 0.1994 0.32385 0.21073 0.0
C2184 C 0.18847 0.38096 0.1905 0.0
C2185 C 0.19561 0.3752 0.16907 0.0
C2186 C 0.18134 0.37135 0.20744 0.0
C2187 C 0.18118 0.35583 0.20322 0.0
C2188 C 0.18806 0.35011 0.18157 0.0
H2189 H 0.1211 0.28749 0.25372 0.0
H2190 H 0.13179 0.31028 0.23579 0.0
C2191 C 0.19535 0.35966 0.16484 0.0
C2192 C 0.17353 0.34555 0.22096 0.0
H2193 H 0.17833 0.31273 0.25256 0.0
C2194 C 0.15837 0.34801 0.2267 0.0
C2195 C 0.18095 0.33304 0.2315 0.0
C2196 C 0.19753 0.33042 0.2281 0.0
C2197 C 0.15027 0.33792 0.2417 0.0
C2198 C 0.1574 0.32476 0.25052 0.0
C2199 C 0.17273 0.32269 0.24565 0.0
C2200 C 0.14924 0.31257 0.26377 0.0
C2201 C 0.1342 0.34155 0.24797 0.0
C2202 C 0.15537 0.3062 0.28557 0.0
C2203 C 0.14954 0.29292 0.29535 0.0
C2204 C 0.13726 0.2859 0.28384 0.0
C2205 C 0.13042 0.29281 0.26316 0.0
C2206 C 0.1365 0.30591 0.25297 0.0
H2207 H 0.13232 0.35385 0.24835 0.0
H2208 H 0.12679 0.33681 0.23329 0.0
H2209 H 0.13088 0.33682 0.26638 0.0
H2210 H 0.16515 0.3111 0.29433 0.0
H2211 H 0.15501 0.28781 0.31133 0.0
H2212 H 0.61971 0.20313 0.24289 0.0
H2213 H 0.63043 0.18065 0.26261 0.0
H2214 H 0.67214 0.1884 0.22416 0.0
H2215 H 0.66166 0.21076 0.20462 0.0
H2216 H 0.64744 0.15338 0.24241 0.0
H2217 H 0.68079 0.19215 0.30177 0.0
H2218 H 0.66436 0.19812 0.28477 0.0
H2219 H 0.68182 0.19558 0.26864 0.0
C2220 C 0.63103 0.19981 0.23816 0.0
C2221 C 0.63991 0.20885 0.2225 0.0
C2222 C 0.63714 0.187 0.24947 0.0
C2223 C 0.65214 0.18306 0.24512 0.0
C2224 C 0.6606 0.19139 0.22799 0.0
H2225 H 0.71907 0.12677 0.31428 0.0
H2226 H 0.7049 0.14365 0.28702 0.0
C2227 C 0.65458 0.20417 0.21685 0.0
C2228 C 0.65957 0.17127 0.26019 0.0
H2229 H 0.68676 0.16642 0.30441 0.0
C2230 C 0.65597 0.15617 0.25609 0.0
C2231 C 0.67068 0.17501 0.27801 0.0
C2232 C 0.6746 0.19109 0.2838 0.0
C2233 C 0.66355 0.14466 0.26893 0.0
C2234 C 0.67482 0.14842 0.28651 0.0
C2235 C 0.67822 0.16355 0.29078 0.0
C2236 C 0.68318 0.13697 0.30107 0.0
C2237 C 0.65972 0.12858 0.26309 0.0
C2238 C 0.67567 0.12753 0.31789 0.0
C2239 C 0.68374 0.11786 0.33349 0.0
C2240 C 0.69949 0.11753 0.3327 0.0
C2241 C 0.70696 0.12674 0.31538 0.0
C2242 C 0.69888 0.1364 0.29978 0.0
H2243 H 0.65385 0.12751 0.24482 0.0
H2244 H 0.66995 0.12151 0.26269 0.0
H2245 H 0.6522 0.12418 0.27789 0.0
H2246 H 0.6636 0.12801 0.3196 0.0
H2247 H 0.67762 0.11095 0.34665 0.0
H2248 H 0.8431 0.62739 0.14843 0.0
H2249 H 0.85377 0.64613 0.17663 0.0
H2250 H 0.80943 0.65814 0.20154 0.0
H2251 H 0.79864 0.63931 0.17354 0.0
H2252 H 0.84825 0.67657 0.17453 0.0
H2253 H 0.83236 0.65406 0.26753 0.0
H2254 H 0.83195 0.64283 0.23939 0.0
H2255 H 0.8169 0.6556 0.24619 0.0
C2256 C 0.8356 0.63387 0.16013 0.0
C2257 C 0.81999 0.63184 0.1587 0.0
C2258 C 0.84174 0.64458 0.17624 0.0
C2259 C 0.83242 0.65341 0.19142 0.0
C2260 C 0.81686 0.65124 0.19039 0.0
H2261 H 0.83644 0.73252 0.27965 0.0
H2262 H 0.83083 0.70886 0.25907 0.0
C2263 C 0.8107 0.64053 0.17425 0.0
C2264 C 0.8389 0.66564 0.20687 0.0
H2265 H 0.84046 0.67959 0.26639 0.0
C2266 C 0.84674 0.67714 0.19467 0.0
C2267 C 0.83692 0.66634 0.23313 0.0
C2268 C 0.8292 0.65398 0.2474 0.0
C2269 C 0.85206 0.68968 0.20784 0.0
C2270 C 0.84973 0.69059 0.23403 0.0
C2271 C 0.84227 0.67886 0.24634 0.0
C2272 C 0.85374 0.70422 0.24851 0.0
C2273 C 0.85948 0.70218 0.1934 0.0
C2274 C 0.8686 0.7093 0.2501 0.0
C2275 C 0.8719 0.72297 0.26184 0.0
C2276 C 0.86037 0.73173 0.27227 0.0
C2277 C 0.84562 0.72618 0.27165 0.0
C2278 C 0.84236 0.71259 0.25995 0.0
H2279 H 0.85764 0.70112 0.17288 0.0
H2280 H 0.8552 0.71325 0.1996 0.0
H2281 H 0.87172 0.70188 0.19688 0.0
H2282 H 0.87761 0.70286 0.24182 0.0
H2283 H 0.88338 0.72684 0.26209 0.0
H2284 H 0.38748 0.7899 0.24347 0.0
H2285 H 0.37915 0.81269 0.26512 0.0
H2286 H 0.33548 0.80824 0.2315 0.0
H2287 H 0.34367 0.78569 0.2097 0.0
H2288 H 0.34578 0.83854 0.23567 0.0
H2289 H 0.35004 0.80636 0.32481 0.0
H2290 H 0.3668 0.80773 0.30631 0.0
H2291 H 0.35104 0.79743 0.29455 0.0
C2292 C 0.37623 0.79399 0.24019 0.0
C2293 C 0.36617 0.78585 0.22517 0.0
C2294 C 0.37147 0.80696 0.25269 0.0
C2295 C 0.35662 0.81196 0.25026 0.0
C2296 C 0.34696 0.80452 0.23374 0.0
H2297 H 0.29483 0.85479 0.34834 0.0
H2298 H 0.30902 0.83886 0.31964 0.0
C2299 C 0.35166 0.79159 0.22136 0.0
C2300 C 0.3505 0.82387 0.26668 0.0
H2301 H 0.33979 0.8305 0.32708 0.0
C2302 C 0.34465 0.83692 0.25571 0.0
C2303 C 0.34884 0.82157 0.29276 0.0
C2304 C 0.35439 0.80749 0.30541 0.0
C2305 C 0.33693 0.84762 0.27012 0.0
C2306 C 0.33511 0.84519 0.29611 0.0
C2307 C 0.34125 0.83231 0.30714 0.0
C2308 C 0.32615 0.85538 0.3121 0.0
C2309 C 0.33026 0.86114 0.25734 0.0
C2310 C 0.33105 0.86998 0.31723 0.0
C2311 C 0.32296 0.87914 0.33368 0.0
C2312 C 0.30986 0.87381 0.34533 0.0
C2313 C 0.30486 0.85926 0.33971 0.0
C2314 C 0.31296 0.85013 0.32334 0.0
H2315 H 0.33049 0.86009 0.2366 0.0
H2316 H 0.3185 0.86284 0.26347 0.0
H2317 H 0.33672 0.87126 0.26267 0.0
H2318 H 0.3413 0.87417 0.30898 0.0
H2319 H 0.32715 0.89027 0.33763 0.0
H2320 H 0.20394 0.63614 0.82392 0.0
H2321 H 0.1903 0.65121 0.79311 0.0
H2322 H 0.14996 0.62642 0.80875 0.0
H2323 H 0.16346 0.6113 0.83961 0.0
H2324 H 0.17172 0.64174 0.74902 0.0
H2325 H 0.14019 0.67164 0.824 0.0
H2326 H 0.15721 0.6614 0.83036 0.0
H2327 H 0.14008 0.65149 0.82471 0.0
C2328 C 0.1922 0.63379 0.82067 0.0
C2329 C 0.18476 0.6226 0.83441 0.0
C2330 C 0.18444 0.64238 0.80301 0.0
C2331 C 0.16911 0.64 0.79888 0.0
C2332 C 0.16177 0.62851 0.81187 0.0
H2333 H 0.10958 0.70374 0.72371 0.0
H2334 H 0.11804 0.68017 0.74253 0.0
C2335 C 0.16952 0.61987 0.82947 0.0
C2336 C 0.1607 0.65012 0.78202 0.0
H2337 H 0.13596 0.67925 0.78261 0.0
C2338 C 0.16378 0.64986 0.75626 0.0
C2339 C 0.15025 0.66058 0.79155 0.0
C2340 C 0.14673 0.66145 0.81917 0.0
C2341 C 0.15692 0.66005 0.73979 0.0
C2342 C 0.14702 0.67101 0.7495 0.0
C2343 C 0.14351 0.67084 0.77514 0.0
C2344 C 0.14149 0.68376 0.7342 0.0
C2345 C 0.16042 0.65902 0.71221 0.0
C2346 C 0.15179 0.69344 0.72277 0.0
C2347 C 0.147 0.70683 0.71194 0.0
C2348 C 0.1318 0.71098 0.71257 0.0
C2349 C 0.12136 0.7009 0.72286 0.0
C2350 C 0.12619 0.68744 0.73368 0.0
H2351 H 0.16324 0.64734 0.70676 0.0
H2352 H 0.15088 0.66292 0.70057 0.0
H2353 H 0.17031 0.6661 0.70799 0.0
H2354 H 0.16368 0.69107 0.72343 0.0
H2355 H 0.15537 0.71427 0.70416 0.0
H2356 H 0.33882 0.11565 0.64623 0.0
H2357 H 0.35081 0.1317 0.67744 0.0
H2358 H 0.30754 0.14807 0.70066 0.0
H2359 H 0.29546 0.13224 0.66924 0.0
H2360 H 0.32736 0.17049 0.68908 0.0
H2361 H 0.35408 0.12972 0.7537 0.0
H2362 H 0.35851 0.12694 0.7212 0.0
H2363 H 0.33958 0.12444 0.73182 0.0
C2364 C 0.33182 0.1225 0.65822 0.0
C2365 C 0.31617 0.12272 0.65515 0.0
C2366 C 0.33871 0.13159 0.67619 0.0
C2367 C 0.33007 0.14095 0.69159 0.0
C2368 C 0.31442 0.14087 0.68905 0.0
H2369 H 0.34477 0.21207 0.7967 0.0
H2370 H 0.33594 0.18965 0.77513 0.0
C2371 C 0.30753 0.13183 0.67105 0.0
C2372 C 0.33734 0.15189 0.7086 0.0
H2373 H 0.36074 0.15538 0.75903 0.0
C2374 C 0.33459 0.16716 0.70443 0.0
C2375 C 0.34689 0.14753 0.7285 0.0
C2376 C 0.34987 0.13126 0.73428 0.0
C2377 C 0.34113 0.17819 0.71953 0.0
C2378 C 0.35056 0.17385 0.73954 0.0
C2379 C 0.35349 0.15861 0.74365 0.0
C2380 C 0.35698 0.18522 0.75657 0.0
C2381 C 0.33797 0.19447 0.71395 0.0
C2382 C 0.37198 0.18967 0.7542 0.0
C2383 C 0.37713 0.20251 0.76661 0.0
C2384 C 0.36727 0.21109 0.78137 0.0
C2385 C 0.3526 0.20582 0.78524 0.0
C2386 C 0.34752 0.193 0.77298 0.0
H2387 H 0.33279 0.19603 0.6952 0.0
H2388 H 0.33015 0.19897 0.72826 0.0
H2389 H 0.34844 0.20116 0.71483 0.0
H2390 H 0.37942 0.18377 0.74157 0.0
H2391 H 0.38847 0.20628 0.76322 0.0
H2392 H 0.84516 0.28368 0.7014 0.0
H2393 H 0.83605 0.30552 0.7242 0.0
H2394 H 0.87877 0.30969 0.76119 0.0
H2395 H 0.88809 0.28786 0.73812 0.0
H2396 H 0.83445 0.30405 0.77605 0.0
H2397 H 0.86758 0.35355 0.7461 0.0
H2398 H 0.86632 0.33668 0.7275 0.0
H2399 H 0.8784 0.3373 0.7544 0.0
C2400 C 0.85278 0.28947 0.71387 0.0
C2401 C 0.86732 0.28394 0.71813 0.0
C2402 C 0.84754 0.30197 0.72689 0.0
C2403 C 0.85671 0.30924 0.7444 0.0
C2404 C 0.87157 0.3044 0.74748 0.0
H2405 H 0.83837 0.37095 0.86608 0.0
H2406 H 0.84999 0.35486 0.83449 0.0
C2407 C 0.87688 0.29189 0.7343 0.0
C2408 C 0.85 0.32036 0.76174 0.0
H2409 H 0.85206 0.35661 0.78198 0.0
C2410 C 0.83823 0.31558 0.7772 0.0
C2411 C 0.85507 0.33532 0.76341 0.0
C2412 C 0.86746 0.34111 0.74685 0.0
C2413 C 0.83146 0.32528 0.79447 0.0
C2414 C 0.83638 0.3403 0.79599 0.0
C2415 C 0.84824 0.34511 0.78065 0.0
C2416 C 0.82951 0.35103 0.81384 0.0
C2417 C 0.81936 0.3192 0.8114 0.0
C2418 C 0.81419 0.35449 0.81238 0.0
C2419 C 0.80748 0.36358 0.83052 0.0
C2420 C 0.816 0.36951 0.85033 0.0
C2421 C 0.83146 0.3665 0.85116 0.0
C2422 C 0.83815 0.35735 0.83307 0.0
H2423 H 0.81963 0.30677 0.8124 0.0
H2424 H 0.82048 0.32375 0.83068 0.0
H2425 H 0.80825 0.32257 0.80398 0.0
H2426 H 0.80738 0.34996 0.79741 0.0
H2427 H 0.79558 0.3658 0.82917 0.0
H2428 H 0.66694 0.88896 0.66821 0.0
H2429 H 0.65384 0.87293 0.69832 0.0
H2430 H 0.68836 0.83947 0.69073 0.0
H2431 H 0.70153 0.85533 0.66064 0.0
H2432 H 0.65762 0.82952 0.6826 0.0
H2433 H 0.66531 0.86068 0.77208 0.0
H2434 H 0.65914 0.87115 0.74515 0.0
H2435 H 0.67759 0.86323 0.74552 0.0
C2436 C 0.67186 0.87828 0.6732 0.0
C2437 C 0.68526 0.8734 0.66193 0.0
C2438 C 0.66438 0.86917 0.69048 0.0
C2439 C 0.67018 0.85507 0.6968 0.0
C2440 C 0.68373 0.85034 0.68611 0.0
H2441 H 0.65474 0.78481 0.79931 0.0
H2442 H 0.66257 0.80754 0.7776 0.0
C2443 C 0.69125 0.85944 0.66894 0.0
C2444 C 0.66168 0.84471 0.71313 0.0
H2445 H 0.65116 0.83838 0.77373 0.0
C2446 C 0.65606 0.8315 0.70248 0.0
C2447 C 0.65972 0.84739 0.73902 0.0
C2448 C 0.6658 0.86132 0.75131 0.0
C2449 C 0.64881 0.82069 0.71715 0.0
C2450 C 0.64701 0.82323 0.74314 0.0
C2451 C 0.65239 0.83658 0.75375 0.0
C2452 C 0.64115 0.81133 0.75978 0.0
C2453 C 0.64371 0.80631 0.70494 0.0
C2454 C 0.6263 0.80632 0.75781 0.0
C2455 C 0.62174 0.79329 0.7703 0.0
C2456 C 0.63204 0.78506 0.78476 0.0
C2457 C 0.64658 0.79079 0.7881 0.0
C2458 C 0.65107 0.80382 0.77579 0.0
H2459 H 0.64793 0.80519 0.68545 0.0
H2460 H 0.64756 0.79648 0.71595 0.0
H2461 H 0.63129 0.80605 0.70439 0.0
H2462 H 0.61845 0.81207 0.74569 0.0
H2463 H 0.61046 0.78918 0.76737 0.0
H2464 H 0.8361 0.71458 0.65942 0.0
H2465 H 0.83082 0.68837 0.66732 0.0
H2466 H 0.87394 0.68312 0.7027 0.0
H2467 H 0.87935 0.70978 0.695 0.0
H2468 H 0.84647 0.66131 0.65408 0.0
H2469 H 0.84301 0.67084 0.75731 0.0
H2470 H 0.843 0.68645 0.73584 0.0
H2471 H 0.8598 0.6758 0.74057 0.0
C2472 C 0.84456 0.70791 0.66876 0.0
C2473 C 0.85807 0.71435 0.67691 0.0
C2474 C 0.84156 0.69286 0.67309 0.0
C2475 C 0.85193 0.68383 0.68574 0.0
C2476 C 0.86574 0.68996 0.69308 0.0
H2477 H 0.79939 0.6075 0.74165 0.0
H2478 H 0.8238 0.61853 0.73037 0.0
C2479 C 0.86882 0.70515 0.68861 0.0
C2480 C 0.84728 0.66845 0.69261 0.0
H2481 H 0.82967 0.65059 0.74077 0.0
C2482 C 0.84329 0.65863 0.67318 0.0
C2483 C 0.84329 0.66489 0.71756 0.0
C2484 C 0.84744 0.67499 0.73914 0.0
C2485 C 0.83389 0.64635 0.67767 0.0
C2486 C 0.82835 0.64394 0.7021 0.0
C2487 C 0.8339 0.65256 0.72201 0.0
C2488 C 0.8143 0.63553 0.70623 0.0
C2489 C 0.82887 0.63685 0.6559 0.0
C2490 C 0.80101 0.64144 0.69634 0.0
C2491 C 0.78722 0.63543 0.70309 0.0
C2492 C 0.78642 0.62326 0.71965 0.0
C2493 C 0.79975 0.61682 0.72867 0.0
C2494 C 0.81365 0.62309 0.72228 0.0
H2495 H 0.83748 0.63664 0.64087 0.0
H2496 H 0.82649 0.62518 0.66194 0.0
H2497 H 0.81846 0.64167 0.64789 0.0
H2498 H 0.80125 0.65122 0.68431 0.0
H2499 H 0.77711 0.64058 0.69585 0.0
H2500 H 0.34096 0.79232 0.85071 0.0
H2501 H 0.33542 0.81841 0.84224 0.0
H2502 H 0.37462 0.82159 0.79532 0.0
H2503 H 0.3802 0.79499 0.8035 0.0
H2504 H 0.35097 0.84564 0.84795 0.0
H2505 H 0.33994 0.83191 0.74754 0.0
H2506 H 0.34234 0.81722 0.77039 0.0
H2507 H 0.35813 0.82821 0.7607 0.0
C2508 C 0.34854 0.79854 0.83875 0.0
C2509 C 0.36087 0.7915 0.82739 0.0
C2510 C 0.34541 0.81353 0.83409 0.0
C2511 C 0.35449 0.82191 0.81792 0.0
C2512 C 0.36736 0.81525 0.80762 0.0
H2513 H 0.29581 0.89385 0.76396 0.0
H2514 H 0.3213 0.88442 0.77211 0.0
C2515 C 0.37057 0.8001 0.8124 0.0
C2516 C 0.34913 0.83697 0.8104 0.0
H2517 H 0.32756 0.85256 0.76453 0.0
C2518 C 0.34633 0.84748 0.82942 0.0
C2519 C 0.34321 0.83948 0.78614 0.0
C2520 C 0.34598 0.82866 0.76492 0.0
C2521 C 0.33625 0.85933 0.82569 0.0
C2522 C 0.32885 0.86064 0.80242 0.0
C2523 C 0.3332 0.85142 0.78243 0.0
C2524 C 0.31432 0.8685 0.80032 0.0
C2525 C 0.33257 0.86954 0.84731 0.0
C2526 C 0.30206 0.86272 0.81359 0.0
C2527 C 0.28761 0.86781 0.80863 0.0
C2528 C 0.28515 0.87893 0.79053 0.0
C2529 C 0.29748 0.88536 0.77819 0.0
C2530 C 0.312 0.88 0.7828 0.0
H2531 H 0.34224 0.87061 0.86028 0.0
H2532 H 0.32927 0.88085 0.84062 0.0
H2533 H 0.32306 0.86474 0.85803 0.0
H2534 H 0.30356 0.85363 0.82682 0.0
H2535 H 0.27829 0.86267 0.81837 0.0
H2536 H 0.15847 0.28839 0.65644 0.0
H2537 H 0.16356 0.31436 0.66637 0.0
H2538 H 0.12412 0.31608 0.71296 0.0
H2539 H 0.119 0.28958 0.70329 0.0
H2540 H 0.14747 0.34134 0.66164 0.0
H2541 H 0.15846 0.32634 0.76154 0.0
H2542 H 0.15646 0.31194 0.73808 0.0
H2543 H 0.14041 0.32249 0.748 0.0
C2544 C 0.15075 0.29425 0.66865 0.0
C2545 C 0.13848 0.28683 0.67945 0.0
C2546 C 0.15362 0.30918 0.67415 0.0
C2547 C 0.14432 0.31713 0.69061 0.0
C2548 C 0.13153 0.31008 0.70043 0.0
H2549 H 0.20154 0.39097 0.74374 0.0
H2550 H 0.17625 0.38081 0.73609 0.0
C2551 C 0.1286 0.29499 0.69481 0.0
C2552 C 0.14936 0.33216 0.69884 0.0
H2553 H 0.1707 0.34733 0.74539 0.0
C2554 C 0.15204 0.34299 0.68027 0.0
C2555 C 0.15521 0.33439 0.72321 0.0
C2556 C 0.15257 0.32322 0.74396 0.0
C2557 C 0.16199 0.35487 0.68451 0.0
C2558 C 0.16933 0.35593 0.70785 0.0
C2559 C 0.16508 0.34638 0.72745 0.0
C2560 C 0.18381 0.36379 0.71016 0.0
C2561 C 0.16573 0.36534 0.66327 0.0
C2562 C 0.19629 0.35758 0.69806 0.0
C2563 C 0.2106 0.36308 0.70277 0.0
C2564 C 0.2127 0.37506 0.71941 0.0
C2565 C 0.20015 0.3818 0.73066 0.0
C2566 C 0.18576 0.37603 0.72634 0.0
H2567 H 0.15634 0.36612 0.64967 0.0
H2568 H 0.1684 0.37672 0.6704 0.0
H2569 H 0.1757 0.36101 0.65318 0.0
H2570 H 0.19503 0.34798 0.6858 0.0
H2571 H 0.22008 0.35771 0.69384 0.0
H2572 H 0.71733 0.14555 0.74797 0.0
H2573 H 0.69258 0.15528 0.75724 0.0
H2574 H 0.67921 0.11227 0.78638 0.0
H2575 H 0.70434 0.10226 0.77712 0.0
H2576 H 0.66276 0.14432 0.74153 0.0
H2577 H 0.67264 0.14365 0.84477 0.0
H2578 H 0.68826 0.14228 0.82346 0.0
H2579 H 0.67538 0.12698 0.82625 0.0
C2580 C 0.70918 0.13805 0.75625 0.0
C2581 C 0.71289 0.12315 0.76208 0.0
C2582 C 0.69497 0.14363 0.76137 0.0
C2583 C 0.6841 0.13452 0.77255 0.0
C2584 C 0.6875 0.11949 0.77782 0.0
H2585 H 0.61989 0.20086 0.83025 0.0
H2586 H 0.62537 0.17461 0.81867 0.0
C2587 C 0.70182 0.1138 0.77249 0.0
C2588 C 0.66976 0.14158 0.77988 0.0
H2589 H 0.65582 0.16158 0.82905 0.0
C2590 C 0.66077 0.14762 0.76081 0.0
C2591 C 0.66708 0.14575 0.80504 0.0
C2592 C 0.67629 0.13937 0.8262 0.0
C2593 C 0.65052 0.15913 0.76591 0.0
C2594 C 0.64938 0.16473 0.79058 0.0
C2595 C 0.65681 0.15729 0.81011 0.0
C2596 C 0.64429 0.18024 0.79518 0.0
C2597 C 0.64211 0.16624 0.74452 0.0
C2598 C 0.6531 0.19196 0.78581 0.0
C2599 C 0.65024 0.20669 0.79275 0.0
C2600 C 0.63837 0.21008 0.80898 0.0
C2601 C 0.62905 0.19847 0.81755 0.0
C2602 C 0.63215 0.18355 0.81099 0.0
H2603 H 0.64013 0.15805 0.7292 0.0
H2604 H 0.63119 0.17083 0.75089 0.0
H2605 H 0.64886 0.17559 0.73678 0.0
H2606 H 0.66268 0.18962 0.77395 0.0
H2607 H 0.65755 0.21545 0.78584 0.0
H2608 H 0.77532 0.36399 0.31367 0.0
H2609 H 0.80049 0.35517 0.32343 0.0
H2610 H 0.81927 0.38912 0.27533 0.0
H2611 H 0.79386 0.3983 0.26584 0.0
H2612 H 0.82691 0.35775 0.26431 0.0
H2613 H 0.83708 0.37201 0.36351 0.0
H2614 H 0.8183 0.36558 0.35817 0.0
H2615 H 0.82455 0.38266 0.34365 0.0
C2616 C 0.78481 0.36982 0.30564 0.0
C2617 C 0.78268 0.38179 0.28898 0.0
C2618 C 0.79919 0.36485 0.31137 0.0
C2619 C 0.81173 0.37162 0.30035 0.0
C2620 C 0.80972 0.38391 0.28429 0.0
H2621 H 0.88194 0.30202 0.30165 0.0
H2622 H 0.87462 0.32842 0.29601 0.0
C2623 C 0.79525 0.38912 0.27892 0.0
C2624 C 0.82644 0.36418 0.30313 0.0
H2625 H 0.84766 0.34828 0.34901 0.0
C2626 C 0.83195 0.35607 0.2826 0.0
C2627 C 0.83302 0.36217 0.32694 0.0
C2628 C 0.82802 0.3712 0.34929 0.0
C2629 C 0.84244 0.34451 0.28593 0.0
C2630 C 0.84766 0.34126 0.31039 0.0
C2631 C 0.84357 0.35071 0.3303 0.0
C2632 C 0.85384 0.3263 0.31658 0.0
C2633 C 0.84653 0.33481 0.2638 0.0
C2634 C 0.84492 0.31661 0.33084 0.0
C2635 C 0.84903 0.30172 0.33408 0.0
C2636 C 0.86221 0.29611 0.32318 0.0
C2637 C 0.87168 0.30602 0.31015 0.0
C2638 C 0.86748 0.32105 0.30681 0.0
H2639 H 0.84081 0.33841 0.24632 0.0
H2640 H 0.8588 0.33533 0.26062 0.0
H2641 H 0.84353 0.32296 0.26763 0.0
H2642 H 0.83435 0.3204 0.33855 0.0
H2643 H 0.84159 0.29448 0.34456 0.0
H2644 H 0.61855 0.78135 0.17666 0.0
H2645 H 0.62485 0.80814 0.18084 0.0
H2646 H 0.66675 0.7962 0.21576 0.0
H2647 H 0.66066 0.76975 0.21153 0.0
H2648 H 0.64952 0.82184 0.23808 0.0
H2649 H 0.66056 0.82512 0.13536 0.0
H2650 H 0.64304 0.81777 0.14683 0.0
H2651 H 0.65994 0.80723 0.15106 0.0
C2652 C 0.62893 0.78453 0.18571 0.0
C2653 C 0.6392 0.77353 0.19357 0.0
C2654 C 0.63253 0.79977 0.18797 0.0
C2655 C 0.6463 0.80406 0.19844 0.0
C2656 C 0.65607 0.79308 0.20763 0.0
H2657 H 0.72109 0.85373 0.19976 0.0
H2658 H 0.69905 0.83858 0.19079 0.0
C2659 C 0.6526 0.77799 0.20512 0.0
C2660 C 0.6516 0.81972 0.19812 0.0
H2661 H 0.67216 0.84304 0.16102 0.0
C2662 C 0.65401 0.82686 0.22117 0.0
C2663 C 0.6575 0.82607 0.17598 0.0
C2664 C 0.6552 0.81873 0.15081 0.0
C2665 C 0.66333 0.83945 0.22296 0.0
C2666 C 0.67027 0.84505 0.20105 0.0
C2667 C 0.66679 0.8387 0.17773 0.0
C2668 C 0.68313 0.85543 0.20266 0.0
C2669 C 0.66679 0.84581 0.24853 0.0
C2670 C 0.68143 0.87013 0.21145 0.0
C2671 C 0.69406 0.87885 0.21667 0.0
C2672 C 0.70857 0.87297 0.21322 0.0
C2673 C 0.71013 0.85858 0.20286 0.0
C2674 C 0.69752 0.84991 0.19761 0.0
H2675 H 0.6615 0.83926 0.26384 0.0
H2676 H 0.67909 0.84602 0.25167 0.0
H2677 H 0.66264 0.8575 0.24964 0.0
H2678 H 0.67039 0.87462 0.21518 0.0
H2679 H 0.69244 0.88994 0.2245 0.0
H2680 H 0.14923 0.71109 0.34106 0.0
H2681 H 0.15432 0.68501 0.33177 0.0
H2682 H 0.11565 0.68335 0.28338 0.0
H2683 H 0.11054 0.70996 0.29243 0.0
H2684 H 0.13817 0.65811 0.33595 0.0
H2685 H 0.15066 0.67281 0.23643 0.0
H2686 H 0.14832 0.68724 0.25976 0.0
H2687 H 0.1324 0.67678 0.24906 0.0
C2688 C 0.14167 0.70521 0.3286 0.0
C2689 C 0.12964 0.71268 0.3171 0.0
C2690 C 0.14454 0.69022 0.32346 0.0
C2691 C 0.13549 0.68227 0.30665 0.0
C2692 C 0.12289 0.68936 0.29618 0.0
H2693 H 0.19214 0.60879 0.25163 0.0
H2694 H 0.167 0.61922 0.25952 0.0
C2695 C 0.11994 0.70451 0.30145 0.0
C2696 C 0.1406 0.66718 0.29876 0.0
H2697 H 0.16213 0.6515 0.25292 0.0
C2698 C 0.14293 0.65636 0.31748 0.0
C2699 C 0.1467 0.6648 0.2746 0.0
C2700 C 0.14448 0.67598 0.25371 0.0
C2701 C 0.15267 0.64424 0.31358 0.0
C2702 C 0.16022 0.64297 0.29045 0.0
C2703 C 0.15637 0.6526 0.27071 0.0
C2704 C 0.17444 0.63453 0.28836 0.0
C2705 C 0.15582 0.63365 0.33492 0.0
C2706 C 0.18683 0.63963 0.30207 0.0
C2707 C 0.20108 0.63398 0.29726 0.0
C2708 C 0.20321 0.62295 0.27888 0.0
C2709 C 0.19072 0.61718 0.26609 0.0
C2710 C 0.17641 0.62312 0.27054 0.0
H2711 H 0.14604 0.6328 0.34769 0.0
H2712 H 0.15873 0.6223 0.32791 0.0
H2713 H 0.16544 0.63795 0.34596 0.0
H2714 H 0.18562 0.64863 0.31554 0.0
H2715 H 0.21054 0.63861 0.30734 0.0
H2716 H 0.2838 0.1342 0.1827 0.0
H2717 H 0.30838 0.14464 0.17353 0.0
H2718 H 0.32859 0.1143 0.22659 0.0
H2719 H 0.30376 0.10352 0.23557 0.0
H2720 H 0.3337 0.14548 0.23555 0.0
H2721 H 0.34702 0.1313 0.13757 0.0
H2722 H 0.32773 0.13657 0.14087 0.0
H2723 H 0.33457 0.12008 0.15662 0.0
C2724 C 0.29353 0.12945 0.19188 0.0
C2725 C 0.29192 0.11808 0.20983 0.0
C2726 C 0.30759 0.13533 0.18649 0.0
C2727 C 0.32035 0.13011 0.19912 0.0
C2728 C 0.3189 0.11832 0.21639 0.0
H2729 H 0.38494 0.20515 0.19791 0.0
H2730 H 0.37944 0.17837 0.20426 0.0
C2731 C 0.30476 0.11218 0.22146 0.0
C2732 C 0.33439 0.13881 0.19683 0.0
H2733 H 0.35473 0.15638 0.15156 0.0
C2734 C 0.33884 0.1475 0.21745 0.0
C2735 C 0.34114 0.14129 0.17328 0.0
C2736 C 0.33747 0.13168 0.15089 0.0
C2737 C 0.3483 0.15992 0.21434 0.0
C2738 C 0.35353 0.16353 0.19006 0.0
C2739 C 0.35061 0.15368 0.17014 0.0
C2740 C 0.35847 0.17894 0.18393 0.0
C2741 C 0.35123 0.17004 0.23645 0.0
C2742 C 0.34878 0.18793 0.16978 0.0
C2743 C 0.35183 0.20305 0.16621 0.0
C2744 C 0.36472 0.20959 0.17664 0.0
C2745 C 0.37489 0.20043 0.18975 0.0
C2746 C 0.37175 0.18517 0.19347 0.0
H2747 H 0.34583 0.16591 0.25387 0.0
H2748 H 0.36346 0.17085 0.23978 0.0
H2749 H 0.34699 0.1815 0.23246 0.0
H2750 H 0.33846 0.18336 0.16228 0.0
H2751 H 0.34385 0.20969 0.15571 0.0
loop_
_geom_bond_atom_site_label_1
_geom_bond_atom_site_label_2
_geom_bond_distance
_geom_bond_site_symmetry_2
_ccdc_geom_bond_type
Mg0 O1 2.028 . S
Mg0 O7 1.986 . S
Mg0 O9 2.114 . S
Mg0 O10 2.251 . S
Mg0 O13 2.010 . S
O1 Mg0 2.028 . S
O1 C4 1.250 . S
O2 Mg3 2.028 . S
O2 C4 1.248 . S
Mg3 O2 2.028 . S
Mg3 O8 2.032 . S
Mg3 O10 2.079 . S
C4 O1 1.250 . S
C4 O2 1.248 . S
C5 O6 1.264 . S
C5 O13 1.249 . S
O6 C5 1.264 . S
O7 Mg0 1.986 . S
O7 C11 1.246 . S
O8 Mg3 2.032 . S
O8 C11 1.259 . S
O9 Mg0 2.114 . S
O9 C12 1.252 . S
O10 Mg0 2.251 . S
O10 Mg3 2.079 . S
O10 C12 1.273 . S
C11 O7 1.246 . S
C11 O8 1.259 . S
C12 O9 1.252 . S
C12 O10 1.273 . S
O13 Mg0 2.010 . S
O13 C5 1.249 . S
Mg14 O15 2.028 . S
Mg14 O21 1.986 . S
Mg14 O23 2.114 . S
Mg14 O24 2.251 . S
Mg14 O27 2.010 . S
O15 Mg14 2.028 . S
O15 C18 1.250 . S
O16 Mg17 2.028 . S
O16 C18 1.248 . S
Mg17 O16 2.028 . S
Mg17 O22 2.032 . S
Mg17 O24 2.079 . S
C18 O15 1.250 . S
C18 O16 1.248 . S
C19 O20 1.264 . S
C19 O27 1.249 . S
O20 C19 1.264 . S
O21 Mg14 1.986 . S
O21 C25 1.246 . S
O22 Mg17 2.032 . S
O22 C25 1.259 . S
O23 Mg14 2.114 . S
O23 C26 1.252 . S
O24 Mg14 2.251 . S
O24 Mg17 2.079 . S
O24 C26 1.273 . S
C25 O21 1.246 . S
C25 O22 1.259 . S
C26 O23 1.252 . S
C26 O24 1.273 . S
O27 Mg14 2.010 . S
O27 C19 1.249 . S
Mg28 O29 2.028 . S
Mg28 O35 1.986 . S
Mg28 O37 2.114 . S
Mg28 O38 2.251 . S
Mg28 O41 2.010 . S
O29 Mg28 2.028 . S
O29 C32 1.250 . S
O30 Mg31 2.028 . S
O30 C32 1.248 . S
Mg31 O30 2.028 . S
Mg31 O36 2.032 . S
Mg31 O38 2.079 . S
C32 O29 1.250 . S
C32 O30 1.248 . S
C33 O34 1.264 . S
C33 O41 1.249 . S
O34 C33 1.264 . S
O35 Mg28 1.986 . S
O35 C39 1.246 . S
O36 Mg31 2.032 . S
O36 C39 1.259 . S
O37 Mg28 2.114 . S
O37 C40 1.252 . S
O38 Mg28 2.251 . S
O38 Mg31 2.079 . S
O38 C40 1.273 . S
C39 O35 1.246 . S
C39 O36 1.259 . S
C40 O37 1.252 . S
C40 O38 1.273 . S
O41 Mg28 2.010 . S
O41 C33 1.249 . S
Mg42 O43 2.028 . S
Mg42 O49 1.986 . S
Mg42 O51 2.114 . S
Mg42 O52 2.251 . S
Mg42 O55 2.010 . S
O43 Mg42 2.028 . S
O43 C46 1.250 . S
O44 Mg45 2.028 . S
O44 C46 1.248 . S
Mg45 O44 2.028 . S
Mg45 O50 2.032 . S
Mg45 O52 2.079 . S
C46 O43 1.250 . S
C46 O44 1.248 . S
C47 O48 1.264 . S
C47 O55 1.249 . S
O48 C47 1.264 . S
O49 Mg42 1.986 . S
O49 C53 1.246 . S
O50 Mg45 2.032 . S
O50 C53 1.259 . S
O51 Mg42 2.114 . S
O51 C54 1.252 . S
O52 Mg42 2.251 . S
O52 Mg45 2.079 . S
O52 C54 1.273 . S
C53 O49 1.246 . S
C53 O50 1.259 . S
C54 O51 1.252 . S
C54 O52 1.273 . S
O55 Mg42 2.010 . S
O55 C47 1.249 . S
Mg56 O57 2.028 . S
Mg56 O63 1.986 . S
Mg56 O65 2.114 . S
Mg56 O66 2.251 . S
Mg56 O69 2.010 . S
O57 Mg56 2.028 . S
O57 C60 1.250 . S
O58 Mg59 2.028 . S
O58 C60 1.248 . S
Mg59 O58 2.028 . S
Mg59 O64 2.032 . S
Mg59 O66 2.079 . S
C60 O57 1.250 . S
C60 O58 1.248 . S
C61 O62 1.264 . S
C61 O69 1.249 . S
O62 C61 1.264 . S
O63 Mg56 1.986 . S
O63 C67 1.246 . S
O64 Mg59 2.032 . S
O64 C67 1.259 . S
O65 Mg56 2.114 . S
O65 C68 1.252 . S
O66 Mg56 2.251 . S
O66 Mg59 2.079 . S
O66 C68 1.273 . S
C67 O63 1.246 . S
C67 O64 1.259 . S
C68 O65 1.252 . S
C68 O66 1.273 . S
O69 Mg56 2.010 . S
O69 C61 1.249 . S
Mg70 O71 2.028 . S
Mg70 O77 1.986 . S
Mg70 O79 2.114 . S
Mg70 O80 2.251 . S
Mg70 O83 2.010 . S
O71 Mg70 2.028 . S
O71 C74 1.250 . S
O72 Mg73 2.028 . S
O72 C74 1.248 . S
Mg73 O72 2.028 . S
Mg73 O78 2.032 . S
Mg73 O80 2.079 . S
C74 O71 1.250 . S
C74 O72 1.248 . S
C75 O76 1.264 . S
C75 O83 1.249 . S
O76 C75 1.264 . S
O77 Mg70 1.986 . S
O77 C81 1.246 . S
O78 Mg73 2.032 . S
O78 C81 1.259 . S
O79 Mg70 2.114 . S
O79 C82 1.252 . S
O80 Mg70 2.251 . S
O80 Mg73 2.079 . S
O80 C82 1.273 . S
C81 O77 1.246 . S
C81 O78 1.259 . S
C82 O79 1.252 . S
C82 O80 1.273 . S
O83 Mg70 2.010 . S
O83 C75 1.249 . S
Mg84 O85 2.028 . S
Mg84 O91 1.986 . S
Mg84 O93 2.114 . S
Mg84 O94 2.251 . S
Mg84 O97 2.010 . S
O85 Mg84 2.028 . S
O85 C88 1.250 . S
O86 Mg87 2.028 . S
O86 C88 1.248 . S
Mg87 O86 2.028 . S
Mg87 O92 2.032 . S
Mg87 O94 2.079 . S
C88 O85 1.250 . S
C88 O86 1.248 . S
C89 O90 1.264 . S
C89 O97 1.249 . S
O90 C89 1.264 . S
O91 Mg84 1.986 . S
O91 C95 1.246 . S
O92 Mg87 2.032 . S
O92 C95 1.259 . S
O93 Mg84 2.114 . S
O93 C96 1.252 . S
O94 Mg84 2.251 . S
O94 Mg87 2.079 . S
O94 C96 1.273 . S
C95 O91 1.246 . S
C95 O92 1.259 . S
C96 O93 1.252 . S
C96 O94 1.273 . S
O97 Mg84 2.010 . S
O97 C89 1.249 . S
Mg98 O99 2.028 . S
Mg98 O105 1.986 . S
Mg98 O107 2.114 . S
Mg98 O108 2.251 . S
Mg98 O111 2.010 . S
O99 Mg98 2.028 . S
O99 C102 1.250 . S
O100 Mg101 2.028 . S
O100 C102 1.248 . S
Mg101 O100 2.028 . S
Mg101 O106 2.032 . S
Mg101 O108 2.079 . S
C102 O99 1.250 . S
C102 O100 1.248 . S
C103 O104 1.264 . S
C103 O111 1.249 . S
O104 C103 1.264 . S
O105 Mg98 1.986 . S
O105 C109 1.246 . S
O106 Mg101 2.032 . S
O106 C109 1.259 . S
O107 Mg98 2.114 . S
O107 C110 1.252 . S
O108 Mg98 2.251 . S
O108 Mg101 2.079 . S
O108 C110 1.273 . S
C109 O105 1.246 . S
C109 O106 1.259 . S
C110 O107 1.252 . S
C110 O108 1.273 . S
O111 Mg98 2.010 . S
O111 C103 1.249 . S
Mg112 O113 2.028 . S
Mg112 O119 1.986 . S
Mg112 O121 2.114 . S
Mg112 O122 2.251 . S
Mg112 O125 2.010 . S
O113 Mg112 2.028 . S
O113 C116 1.250 . S
O114 Mg115 2.028 . S
O114 C116 1.248 . S
Mg115 O114 2.028 . S
Mg115 O120 2.032 . S
Mg115 O122 2.079 . S
C116 O113 1.250 . S
C116 O114 1.248 . S
C117 O118 1.264 . S
C117 O125 1.249 . S
O118 C117 1.264 . S
O119 Mg112 1.986 . S
O119 C123 1.246 . S
O120 Mg115 2.032 . S
O120 C123 1.259 . S
O121 Mg112 2.114 . S
O121 C124 1.252 . S
O122 Mg112 2.251 . S
O122 Mg115 2.079 . S
O122 C124 1.273 . S
C123 O119 1.246 . S
C123 O120 1.259 . S
C124 O121 1.252 . S
C124 O122 1.273 . S
O125 Mg112 2.010 . S
O125 C117 1.249 . S
Mg126 O127 2.028 . S
Mg126 O133 1.986 . S
Mg126 O135 2.114 . S
Mg126 O136 2.251 . S
Mg126 O139 2.010 . S
O127 Mg126 2.028 . S
O127 C130 1.250 . S
O128 Mg129 2.028 . S
O128 C130 1.248 . S
Mg129 O128 2.028 . S
Mg129 O134 2.032 . S
Mg129 O136 2.079 . S
C130 O127 1.250 . S
C130 O128 1.248 . S
C131 O132 1.264 . S
C131 O139 1.249 . S
O132 C131 1.264 . S
O133 Mg126 1.986 . S
O133 C137 1.246 . S
O134 Mg129 2.032 . S
O134 C137 1.259 . S
O135 Mg126 2.114 . S
O135 C138 1.252 . S
O136 Mg126 2.251 . S
O136 Mg129 2.079 . S
O136 C138 1.273 . S
C137 O133 1.246 . S
C137 O134 1.259 . S
C138 O135 1.252 . S
C138 O136 1.273 . S
O139 Mg126 2.010 . S
O139 C131 1.249 . S
Mg140 O141 2.028 . S
Mg140 O147 1.986 . S
Mg140 O149 2.114 . S
Mg140 O150 2.251 . S
Mg140 O153 2.010 . S
O141 Mg140 2.028 . S
O141 C144 1.250 . S
O142 Mg143 2.028 . S
O142 C144 1.248 . S
Mg143 O142 2.028 . S
Mg143 O148 2.032 . S
Mg143 O150 2.079 . S
C144 O141 1.250 . S
C144 O142 1.248 . S
C145 O146 1.264 . S
C145 O153 1.249 . S
O146 C145 1.264 . S
O147 Mg140 1.986 . S
O147 C151 1.246 . S
O148 Mg143 2.032 . S
O148 C151 1.259 . S
O149 Mg140 2.114 . S
O149 C152 1.252 . S
O150 Mg140 2.251 . S
O150 Mg143 2.079 . S
O150 C152 1.273 . S
C151 O147 1.246 . S
C151 O148 1.259 . S
C152 O149 1.252 . S
C152 O150 1.273 . S
O153 Mg140 2.010 . S
O153 C145 1.249 . S
Mg154 O155 2.028 . S
Mg154 O161 1.986 . S
Mg154 O163 2.114 . S
Mg154 O164 2.251 . S
Mg154 O167 2.010 . S
O155 Mg154 2.028 . S
O155 C158 1.250 . S
O156 Mg157 2.028 . S
O156 C158 1.248 . S
Mg157 O156 2.028 . S
Mg157 O162 2.032 . S
Mg157 O164 2.079 . S
C158 O155 1.250 . S
C158 O156 1.248 . S
C159 O160 1.264 . S
C159 O167 1.249 . S
O160 C159 1.264 . S
O161 Mg154 1.986 . S
O161 C165 1.246 . S
O162 Mg157 2.032 . S
O162 C165 1.259 . S
O163 Mg154 2.114 . S
O163 C166 1.252 . S
O164 Mg154 2.251 . S
O164 Mg157 2.079 . S
O164 C166 1.273 . S
C165 O161 1.246 . S
C165 O162 1.259 . S
C166 O163 1.252 . S
C166 O164 1.273 . S
O167 Mg154 2.010 . S
O167 C159 1.249 . S
Mg168 O169 2.028 . S
Mg168 O175 1.986 . S
Mg168 O177 2.114 . S
Mg168 O178 2.251 . S
Mg168 O181 2.010 . S
O169 Mg168 2.028 . S
O169 C172 1.250 . S
O170 Mg171 2.028 . S
O170 C172 1.248 . S
Mg171 O170 2.028 . S
Mg171 O176 2.032 . S
Mg171 O178 2.079 . S
C172 O169 1.250 . S
C172 O170 1.248 . S
C173 O174 1.264 . S
C173 O181 1.249 . S
O174 C173 1.264 . S
O175 Mg168 1.986 . S
O175 C179 1.246 . S
O176 Mg171 2.032 . S
O176 C179 1.259 . S
O177 Mg168 2.114 . S
O177 C180 1.252 . S
O178 Mg168 2.251 . S
O178 Mg171 2.079 . S
O178 C180 1.273 . S
C179 O175 1.246 . S
C179 O176 1.259 . S
C180 O177 1.252 . S
C180 O178 1.273 . S
O181 Mg168 2.010 . S
O181 C173 1.249 . S
Mg182 O183 2.028 . S
Mg182 O189 1.986 . S
Mg182 O191 2.114 . S
Mg182 O192 2.251 . S
Mg182 O195 2.010 . S
O183 Mg182 2.028 . S
O183 C186 1.250 . S
O184 Mg185 2.028 . S
O184 C186 1.248 . S
Mg185 O184 2.028 . S
Mg185 O190 2.032 . S
Mg185 O192 2.079 . S
C186 O183 1.250 . S
C186 O184 1.248 . S
C187 O188 1.264 . S
C187 O195 1.249 . S
O188 C187 1.264 . S
O189 Mg182 1.986 . S
O189 C193 1.246 . S
O190 Mg185 2.032 . S
O190 C193 1.259 . S
O191 Mg182 2.114 . S
O191 C194 1.252 . S
O192 Mg182 2.251 . S
O192 Mg185 2.079 . S
O192 C194 1.273 . S
C193 O189 1.246 . S
C193 O190 1.259 . S
C194 O191 1.252 . S
C194 O192 1.273 . S
O195 Mg182 2.010 . S
O195 C187 1.249 . S
Mg196 O197 2.028 . S
Mg196 O203 1.986 . S
Mg196 O205 2.114 . S
Mg196 O206 2.251 . S
Mg196 O209 2.010 . S
O197 Mg196 2.028 . S
O197 C200 1.250 . S
O198 Mg199 2.028 . S
O198 C200 1.248 . S
Mg199 O198 2.028 . S
Mg199 O204 2.032 . S
Mg199 O206 2.079 . S
C200 O197 1.250 . S
C200 O198 1.248 . S
C201 O202 1.264 . S
C201 O209 1.249 . S
O202 C201 1.264 . S
O203 Mg196 1.986 . S
O203 C207 1.246 . S
O204 Mg199 2.032 . S
O204 C207 1.259 . S
O205 Mg196 2.114 . S
O205 C208 1.252 . S
O206 Mg196 2.251 . S
O206 Mg199 2.079 . S
O206 C208 1.273 . S
C207 O203 1.246 . S
C207 O204 1.259 . S
C208 O205 1.252 . S
C208 O206 1.273 . S
O209 Mg196 2.010 . S
O209 C201 1.249 . S
Mg210 O211 2.028 . S
Mg210 O217 1.986 . S
Mg210 O219 2.114 . S
Mg210 O220 2.251 . S
Mg210 O223 2.010 . S
O211 Mg210 2.028 . S
O211 C214 1.250 . S
O212 Mg213 2.028 . S
O212 C214 1.248 . S
Mg213 O212 2.028 . S
Mg213 O218 2.032 . S
Mg213 O220 2.079 . S
C214 O211 1.250 . S
C214 O212 1.248 . S
C215 O216 1.264 . S
C215 O223 1.249 . S
O216 C215 1.264 . S
O217 Mg210 1.986 . S
O217 C221 1.246 . S
O218 Mg213 2.032 . S
O218 C221 1.259 . S
O219 Mg210 2.114 . S
O219 C222 1.252 . S
O220 Mg210 2.251 . S
O220 Mg213 2.079 . S
O220 C222 1.273 . S
C221 O217 1.246 . S
C221 O218 1.259 . S
C222 O219 1.252 . S
C222 O220 1.273 . S
O223 Mg210 2.010 . S
O223 C215 1.249 . S
Mg224 O225 2.028 . S
Mg224 O231 1.986 . S
Mg224 O233 2.114 . S
Mg224 O234 2.251 . S
Mg224 O237 2.010 . S
O225 Mg224 2.028 . S
O225 C228 1.250 . S
O226 Mg227 2.028 . S
O226 C228 1.248 . S
Mg227 O226 2.028 . S
Mg227 O232 2.032 . S
Mg227 O234 2.079 . S
C228 O225 1.250 . S
C228 O226 1.248 . S
C229 O230 1.264 . S
C229 O237 1.249 . S
O230 C229 1.264 . S
O231 Mg224 1.986 . S
O231 C235 1.246 . S
O232 Mg227 2.032 . S
O232 C235 1.259 . S
O233 Mg224 2.114 . S
O233 C236 1.252 . S
O234 Mg224 2.251 . S
O234 Mg227 2.079 . S
O234 C236 1.273 . S
C235 O231 1.246 . S
C235 O232 1.259 . S
C236 O233 1.252 . S
C236 O234 1.273 . S
O237 Mg224 2.010 . S
O237 C229 1.249 . S
Mg238 O239 2.028 . S
Mg238 O245 1.986 . S
Mg238 O247 2.114 . S
Mg238 O248 2.251 . S
Mg238 O251 2.010 . S
O239 Mg238 2.028 . S
O239 C242 1.250 . S
O240 Mg241 2.028 . S
O240 C242 1.248 . S
Mg241 O240 2.028 . S
Mg241 O246 2.032 . S
Mg241 O248 2.079 . S
C242 O239 1.250 . S
C242 O240 1.248 . S
C243 O244 1.264 . S
C243 O251 1.249 . S
O244 C243 1.264 . S
O245 Mg238 1.986 . S
O245 C249 1.246 . S
O246 Mg241 2.032 . S
O246 C249 1.259 . S
O247 Mg238 2.114 . S
O247 C250 1.252 . S
O248 Mg238 2.251 . S
O248 Mg241 2.079 . S
O248 C250 1.273 . S
C249 O245 1.246 . S
C249 O246 1.259 . S
C250 O247 1.252 . S
C250 O248 1.273 . S
O251 Mg238 2.010 . S
O251 C243 1.249 . S
Mg252 O253 2.028 . S
Mg252 O259 1.986 . S
Mg252 O261 2.114 . S
Mg252 O262 2.251 . S
Mg252 O265 2.010 . S
O253 Mg252 2.028 . S
O253 C256 1.250 . S
O254 Mg255 2.028 . S
O254 C256 1.248 . S
Mg255 O254 2.028 . S
Mg255 O260 2.032 . S
Mg255 O262 2.079 . S
C256 O253 1.250 . S
C256 O254 1.248 . S
C257 O258 1.264 . S
C257 O265 1.249 . S
O258 C257 1.264 . S
O259 Mg252 1.986 . S
O259 C263 1.246 . S
O260 Mg255 2.032 . S
O260 C263 1.259 . S
O261 Mg252 2.114 . S
O261 C264 1.252 . S
O262 Mg252 2.251 . S
O262 Mg255 2.079 . S
O262 C264 1.273 . S
C263 O259 1.246 . S
C263 O260 1.259 . S
C264 O261 1.252 . S
C264 O262 1.273 . S
O265 Mg252 2.010 . S
O265 C257 1.249 . S
Mg266 O267 2.028 . S
Mg266 O273 1.986 . S
Mg266 O275 2.114 . S
Mg266 O276 2.251 . S
Mg266 O279 2.010 . S
O267 Mg266 2.028 . S
O267 C270 1.250 . S
O268 Mg269 2.028 . S
O268 C270 1.248 . S
Mg269 O268 2.028 . S
Mg269 O274 2.032 . S
Mg269 O276 2.079 . S
C270 O267 1.250 . S
C270 O268 1.248 . S
C271 O272 1.264 . S
C271 O279 1.249 . S
O272 C271 1.264 . S
O273 Mg266 1.986 . S
O273 C277 1.246 . S
O274 Mg269 2.032 . S
O274 C277 1.259 . S
O275 Mg266 2.114 . S
O275 C278 1.252 . S
O276 Mg266 2.251 . S
O276 Mg269 2.079 . S
O276 C278 1.273 . S
C277 O273 1.246 . S
C277 O274 1.259 . S
C278 O275 1.252 . S
C278 O276 1.273 . S
O279 Mg266 2.010 . S
O279 C271 1.249 . S
Mg280 O281 2.028 . S
Mg280 O287 1.986 . S
Mg280 O289 2.114 . S
Mg280 O290 2.251 . S
Mg280 O293 2.010 . S
O281 Mg280 2.028 . S
O281 C284 1.250 . S
O282 Mg283 2.028 . S
O282 C284 1.248 . S
Mg283 O282 2.028 . S
Mg283 O288 2.032 . S
Mg283 O290 2.079 . S
C284 O281 1.250 . S
C284 O282 1.248 . S
C285 O286 1.264 . S
C285 O293 1.249 . S
O286 C285 1.264 . S
O287 Mg280 1.986 . S
O287 C291 1.246 . S
O288 Mg283 2.032 . S
O288 C291 1.259 . S
O289 Mg280 2.114 . S
O289 C292 1.252 . S
O290 Mg280 2.251 . S
O290 Mg283 2.079 . S
O290 C292 1.273 . S
C291 O287 1.246 . S
C291 O288 1.259 . S
C292 O289 1.252 . S
C292 O290 1.273 . S
O293 Mg280 2.010 . S
O293 C285 1.249 . S
Mg294 O295 2.028 . S
Mg294 O301 1.986 . S
Mg294 O303 2.114 . S
Mg294 O304 2.251 . S
Mg294 O307 2.010 . S
O295 Mg294 2.028 . S
O295 C298 1.250 . S
O296 Mg297 2.028 . S
O296 C298 1.248 . S
Mg297 O296 2.028 . S
Mg297 O302 2.032 . S
Mg297 O304 2.079 . S
C298 O295 1.250 . S
C298 O296 1.248 . S
C299 O300 1.264 . S
C299 O307 1.249 . S
O300 C299 1.264 . S
O301 Mg294 1.986 . S
O301 C305 1.246 . S
O302 Mg297 2.032 . S
O302 C305 1.259 . S
O303 Mg294 2.114 . S
O303 C306 1.252 . S
O304 Mg294 2.251 . S
O304 Mg297 2.079 . S
O304 C306 1.273 . S
C305 O301 1.246 . S
C305 O302 1.259 . S
C306 O303 1.252 . S
C306 O304 1.273 . S
O307 Mg294 2.010 . S
O307 C299 1.249 . S
Mg308 O309 2.028 . S
Mg308 O315 1.986 . S
Mg308 O317 2.114 . S
Mg308 O318 2.251 . S
Mg308 O321 2.010 . S
O309 Mg308 2.028 . S
O309 C312 1.250 . S
O310 Mg311 2.028 . S
O310 C312 1.248 . S
Mg311 O310 2.028 . S
Mg311 O316 2.032 . S
Mg311 O318 2.079 . S
C312 O309 1.250 . S
C312 O310 1.248 . S
C313 O314 1.264 . S
C313 O321 1.249 . S
O314 C313 1.264 . S
O315 Mg308 1.986 . S
O315 C319 1.246 . S
O316 Mg311 2.032 . S
O316 C319 1.259 . S
O317 Mg308 2.114 . S
O317 C320 1.252 . S
O318 Mg308 2.251 . S
O318 Mg311 2.079 . S
O318 C320 1.273 . S
C319 O315 1.246 . S
C319 O316 1.259 . S
C320 O317 1.252 . S
C320 O318 1.273 . S
O321 Mg308 2.010 . S
O321 C313 1.249 . S
Mg322 O323 2.028 . S
Mg322 O329 1.986 . S
Mg322 O331 2.114 . S
Mg322 O332 2.251 . S
Mg322 O335 2.010 . S
O323 Mg322 2.028 . S
O323 C326 1.250 . S
O324 Mg325 2.028 . S
O324 C326 1.248 . S
Mg325 O324 2.028 . S
Mg325 O330 2.032 . S
Mg325 O332 2.079 . S
C326 O323 1.250 . S
C326 O324 1.248 . S
C327 O328 1.264 . S
C327 O335 1.249 . S
O328 C327 1.264 . S
O329 Mg322 1.986 . S
O329 C333 1.246 . S
O330 Mg325 2.032 . S
O330 C333 1.259 . S
O331 Mg322 2.114 . S
O331 C334 1.252 . S
O332 Mg322 2.251 . S
O332 Mg325 2.079 . S
O332 C334 1.273 . S
C333 O329 1.246 . S
C333 O330 1.259 . S
C334 O331 1.252 . S
C334 O332 1.273 . S
O335 Mg322 2.010 . S
O335 C327 1.249 . S
Mg336 O337 2.028 . S
Mg336 O343 1.986 . S
Mg336 O345 2.114 . S
Mg336 O346 2.251 . S
Mg336 O349 2.010 . S
O337 Mg336 2.028 . S
O337 C340 1.250 . S
O338 Mg339 2.028 . S
O338 C340 1.248 . S
Mg339 O338 2.028 . S
Mg339 O344 2.032 . S
Mg339 O346 2.079 . S
C340 O337 1.250 . S
C340 O338 1.248 . S
C341 O342 1.264 . S
C341 O349 1.249 . S
O342 C341 1.264 . S
O343 Mg336 1.986 . S
O343 C347 1.246 . S
O344 Mg339 2.032 . S
O344 C347 1.259 . S
O345 Mg336 2.114 . S
O345 C348 1.252 . S
O346 Mg336 2.251 . S
O346 Mg339 2.079 . S
O346 C348 1.273 . S
C347 O343 1.246 . S
C347 O344 1.259 . S
C348 O345 1.252 . S
C348 O346 1.273 . S
O349 Mg336 2.010 . S
O349 C341 1.249 . S
Mg350 O351 2.028 . S
Mg350 O357 1.986 . S
Mg350 O359 2.114 . S
Mg350 O360 2.251 . S
Mg350 O363 2.010 . S
O351 Mg350 2.028 . S
O351 C354 1.250 . S
O352 Mg353 2.028 . S
O352 C354 1.248 . S
Mg353 O352 2.028 . S
Mg353 O358 2.032 . S
Mg353 O360 2.079 . S
C354 O351 1.250 . S
C354 O352 1.248 . S
C355 O356 1.264 . S
C355 O363 1.249 . S
O356 C355 1.264 . S
O357 Mg350 1.986 . S
O357 C361 1.246 . S
O358 Mg353 2.032 . S
O358 C361 1.259 . S
O359 Mg350 2.114 . S
O359 C362 1.252 . S
O360 Mg350 2.251 . S
O360 Mg353 2.079 . S
O360 C362 1.273 . S
C361 O357 1.246 . S
C361 O358 1.259 . S
C362 O359 1.252 . S
C362 O360 1.273 . S
O363 Mg350 2.010 . S
O363 C355 1.249 . S
Mg364 O365 2.028 . S
Mg364 O371 1.986 . S
Mg364 O373 2.114 . S
Mg364 O374 2.251 . S
Mg364 O377 2.010 . S
O365 Mg364 2.028 . S
O365 C368 1.250 . S
O366 Mg367 2.028 . S
O366 C368 1.248 . S
Mg367 O366 2.028 . S
Mg367 O372 2.032 . S
Mg367 O374 2.079 . S
C368 O365 1.250 . S
C368 O366 1.248 . S
C369 O370 1.264 . S
C369 O377 1.249 . S
O370 C369 1.264 . S
O371 Mg364 1.986 . S
O371 C375 1.246 . S
O372 Mg367 2.032 . S
O372 C375 1.259 . S
O373 Mg364 2.114 . S
O373 C376 1.252 . S
O374 Mg364 2.251 . S
O374 Mg367 2.079 . S
O374 C376 1.273 . S
C375 O371 1.246 . S
C375 O372 1.259 . S
C376 O373 1.252 . S
C376 O374 1.273 . S
O377 Mg364 2.010 . S
O377 C369 1.249 . S
Mg378 O379 2.028 . S
Mg378 O385 1.986 . S
Mg378 O387 2.114 . S
Mg378 O388 2.251 . S
Mg378 O391 2.010 . S
O379 Mg378 2.028 . S
O379 C382 1.250 . S
O380 Mg381 2.028 . S
O380 C382 1.248 . S
Mg381 O380 2.028 . S
Mg381 O386 2.032 . S
Mg381 O388 2.079 . S
C382 O379 1.250 . S
C382 O380 1.248 . S
C383 O384 1.264 . S
C383 O391 1.249 . S
O384 C383 1.264 . S
O385 Mg378 1.986 . S
O385 C389 1.246 . S
O386 Mg381 2.032 . S
O386 C389 1.259 . S
O387 Mg378 2.114 . S
O387 C390 1.252 . S
O388 Mg378 2.251 . S
O388 Mg381 2.079 . S
O388 C390 1.273 . S
C389 O385 1.246 . S
C389 O386 1.259 . S
C390 O387 1.252 . S
C390 O388 1.273 . S
O391 Mg378 2.010 . S
O391 C383 1.249 . S
Mg392 O393 2.028 . S
Mg392 O399 1.986 . S
Mg392 O401 2.114 . S
Mg392 O402 2.251 . S
Mg392 O405 2.010 . S
O393 Mg392 2.028 . S
O393 C396 1.250 . S
O394 Mg395 2.028 . S
O394 C396 1.248 . S
Mg395 O394 2.028 . S
Mg395 O400 2.032 . S
Mg395 O402 2.079 . S
C396 O393 1.250 . S
C396 O394 1.248 . S
C397 O398 1.264 . S
C397 O405 1.249 . S
O398 C397 1.264 . S
O399 Mg392 1.986 . S
O399 C403 1.246 . S
O400 Mg395 2.032 . S
O400 C403 1.259 . S
O401 Mg392 2.114 . S
O401 C404 1.252 . S
O402 Mg392 2.251 . S
O402 Mg395 2.079 . S
O402 C404 1.273 . S
C403 O399 1.246 . S
C403 O400 1.259 . S
C404 O401 1.252 . S
C404 O402 1.273 . S
O405 Mg392 2.010 . S
O405 C397 1.249 . S
Mg406 O407 2.028 . S
Mg406 O413 1.986 . S
Mg406 O415 2.114 . S
Mg406 O416 2.251 . S
Mg406 O419 2.010 . S
O407 Mg406 2.028 . S
O407 C410 1.250 . S
O408 Mg409 2.028 . S
O408 C410 1.248 . S
Mg409 O408 2.028 . S
Mg409 O414 2.032 . S
Mg409 O416 2.079 . S
C410 O407 1.250 . S
C410 O408 1.248 . S
C411 O412 1.264 . S
C411 O419 1.249 . S
O412 C411 1.264 . S
O413 Mg406 1.986 . S
O413 C417 1.246 . S
O414 Mg409 2.032 . S
O414 C417 1.259 . S
O415 Mg406 2.114 . S
O415 C418 1.252 . S
O416 Mg406 2.251 . S
O416 Mg409 2.079 . S
O416 C418 1.273 . S
C417 O413 1.246 . S
C417 O414 1.259 . S
C418 O415 1.252 . S
C418 O416 1.273 . S
O419 Mg406 2.010 . S
O419 C411 1.249 . S
Mg420 O421 2.028 . S
Mg420 O427 1.986 . S
Mg420 O429 2.114 . S
Mg420 O430 2.251 . S
Mg420 O433 2.010 . S
O421 Mg420 2.028 . S
O421 C424 1.250 . S
O422 Mg423 2.028 . S
O422 C424 1.248 . S
Mg423 O422 2.028 . S
Mg423 O428 2.032 . S
Mg423 O430 2.079 . S
C424 O421 1.250 . S
C424 O422 1.248 . S
C425 O426 1.264 . S
C425 O433 1.249 . S
O426 C425 1.264 . S
O427 Mg420 1.986 . S
O427 C431 1.246 . S
O428 Mg423 2.032 . S
O428 C431 1.259 . S
O429 Mg420 2.114 . S
O429 C432 1.252 . S
O430 Mg420 2.251 . S
O430 Mg423 2.079 . S
O430 C432 1.273 . S
C431 O427 1.246 . S
C431 O428 1.259 . S
C432 O429 1.252 . S
C432 O430 1.273 . S
O433 Mg420 2.010 . S
O433 C425 1.249 . S
Mg434 O435 2.028 . S
Mg434 O441 1.986 . S
Mg434 O443 2.114 . S
Mg434 O444 2.251 . S
Mg434 O447 2.010 . S
O435 Mg434 2.028 . S
O435 C438 1.250 . S
O436 Mg437 2.028 . S
O436 C438 1.248 . S
Mg437 O436 2.028 . S
Mg437 O442 2.032 . S
Mg437 O444 2.079 . S
C438 O435 1.250 . S
C438 O436 1.248 . S
C439 O440 1.264 . S
C439 O447 1.249 . S
O440 C439 1.264 . S
O441 Mg434 1.986 . S
O441 C445 1.246 . S
O442 Mg437 2.032 . S
O442 C445 1.259 . S
O443 Mg434 2.114 . S
O443 C446 1.252 . S
O444 Mg434 2.251 . S
O444 Mg437 2.079 . S
O444 C446 1.273 . S
C445 O441 1.246 . S
C445 O442 1.259 . S
C446 O443 1.252 . S
C446 O444 1.273 . S
O447 Mg434 2.010 . S
O447 C439 1.249 . S
H448 C456 0.929 . S
H449 C458 0.930 . S
H450 C460 0.930 . S
H451 C463 0.929 . S
H452 C466 0.930 . S
H453 C468 0.960 . S
H454 C468 0.960 . S
H455 C468 0.960 . S
C456 H448 0.929 . S
C456 C457 1.377 . S
C456 C458 1.384 . S
C457 C456 1.377 . S
C457 C463 1.390 . S
C458 H449 0.930 . S
C458 C456 1.384 . S
C458 C459 1.372 . S
C459 C458 1.372 . S
C459 C460 1.400 . S
C459 C464 1.490 . S
C460 H450 0.930 . S
C460 C459 1.400 . S
C460 C463 1.386 . S
H461 C477 0.930 . S
H462 C478 0.931 . S
C463 H451 0.929 . S
C463 C457 1.390 . S
C463 C460 1.386 . S
C464 C459 1.490 . S
C464 C466 1.395 . S
C464 C467 1.403 . S
H465 C471 0.930 . S
C466 H452 0.930 . S
C466 C464 1.395 . S
C466 C469 1.403 . S
C467 C464 1.403 . S
C467 C468 1.524 . S
C467 C471 1.400 . S
C468 H453 0.960 . S
C468 H454 0.960 . S
C468 H455 0.960 . S
C468 C467 1.524 . S
C469 C466 1.403 . S
C469 C470 1.392 . S
C469 C473 1.495 . S
C470 C469 1.392 . S
C470 C471 1.385 . S
C470 C472 1.478 . S
C471 H465 0.930 . S
C471 C467 1.400 . S
C471 C470 1.385 . S
C472 C470 1.478 . S
C472 C474 1.381 . S
C472 C478 1.383 . S
C473 C469 1.495 . S
C473 H479 0.959 . S
C473 H480 0.961 . S
C473 H481 0.960 . S
C474 C472 1.381 . S
C474 C475 1.394 . S
C474 H482 0.930 . S
C475 C474 1.394 . S
C475 C476 1.383 . S
C475 H483 0.929 . S
C476 C475 1.383 . S
C476 C477 1.377 . S
C477 H461 0.930 . S
C477 C476 1.377 . S
C477 C478 1.379 . S
C478 H462 0.931 . S
C478 C472 1.383 . S
C478 C477 1.379 . S
H479 C473 0.959 . S
H480 C473 0.961 . S
H481 C473 0.960 . S
H482 C474 0.930 . S
H483 C475 0.929 . S
H484 C492 0.929 . S
H485 C494 0.930 . S
H486 C496 0.930 . S
H487 C499 0.929 . S
H488 C502 0.930 . S
H489 C504 0.960 . S
H490 C504 0.960 . S
H491 C504 0.960 . S
C492 H484 0.929 . S
C492 C493 1.377 . S
C492 C494 1.384 . S
C493 C492 1.377 . S
C493 C499 1.390 . S
C494 H485 0.930 . S
C494 C492 1.384 . S
C494 C495 1.372 . S
C495 C494 1.372 . S
C495 C496 1.400 . S
C495 C500 1.490 . S
C496 H486 0.930 . S
C496 C495 1.400 . S
C496 C499 1.386 . S
H497 C513 0.930 . S
H498 C514 0.931 . S
C499 H487 0.929 . S
C499 C493 1.390 . S
C499 C496 1.386 . S
C500 C495 1.490 . S
C500 C502 1.395 . S
C500 C503 1.403 . S
H501 C507 0.930 . S
C502 H488 0.930 . S
C502 C500 1.395 . S
C502 C505 1.403 . S
C503 C500 1.403 . S
C503 C504 1.524 . S
C503 C507 1.400 . S
C504 H489 0.960 . S
C504 H490 0.960 . S
C504 H491 0.960 . S
C504 C503 1.524 . S
C505 C502 1.403 . S
C505 C506 1.392 . S
C505 C509 1.495 . S
C506 C505 1.392 . S
C506 C507 1.385 . S
C506 C508 1.478 . S
C507 H501 0.930 . S
C507 C503 1.400 . S
C507 C506 1.385 . S
C508 C506 1.478 . S
C508 C510 1.381 . S
C508 C514 1.383 . S
C509 C505 1.495 . S
C509 H515 0.959 . S
C509 H516 0.961 . S
C509 H517 0.960 . S
C510 C508 1.381 . S
C510 C511 1.394 . S
C510 H518 0.930 . S
C511 C510 1.394 . S
C511 C512 1.383 . S
C511 H519 0.929 . S
C512 C511 1.383 . S
C512 C513 1.377 . S
C513 H497 0.930 . S
C513 C512 1.377 . S
C513 C514 1.379 . S
C514 H498 0.931 . S
C514 C508 1.383 . S
C514 C513 1.379 . S
H515 C509 0.959 . S
H516 C509 0.961 . S
H517 C509 0.960 . S
H518 C510 0.930 . S
H519 C511 0.929 . S
H520 C528 0.929 . S
H521 C530 0.930 . S
H522 C532 0.930 . S
H523 C535 0.929 . S
H524 C538 0.930 . S
H525 C540 0.960 . S
H526 C540 0.960 . S
H527 C540 0.960 . S
C528 H520 0.929 . S
C528 C529 1.377 . S
C528 C530 1.384 . S
C529 C528 1.377 . S
C529 C535 1.390 . S
C530 H521 0.930 . S
C530 C528 1.384 . S
C530 C531 1.372 . S
C531 C530 1.372 . S
C531 C532 1.400 . S
C531 C536 1.490 . S
C532 H522 0.930 . S
C532 C531 1.400 . S
C532 C535 1.386 . S
H533 C549 0.930 . S
H534 C550 0.931 . S
C535 H523 0.929 . S
C535 C529 1.390 . S
C535 C532 1.386 . S
C536 C531 1.490 . S
C536 C538 1.395 . S
C536 C539 1.403 . S
H537 C543 0.930 . S
C538 H524 0.930 . S
C538 C536 1.395 . S
C538 C541 1.403 . S
C539 C536 1.403 . S
C539 C540 1.524 . S
C539 C543 1.400 . S
C540 H525 0.960 . S
C540 H526 0.960 . S
C540 H527 0.960 . S
C540 C539 1.524 . S
C541 C538 1.403 . S
C541 C542 1.392 . S
C541 C545 1.495 . S
C542 C541 1.392 . S
C542 C543 1.385 . S
C542 C544 1.478 . S
C543 H537 0.930 . S
C543 C539 1.400 . S
C543 C542 1.385 . S
C544 C542 1.478 . S
C544 C546 1.381 . S
C544 C550 1.383 . S
C545 C541 1.495 . S
C545 H551 0.959 . S
C545 H552 0.961 . S
C545 H553 0.960 . S
C546 C544 1.381 . S
C546 C547 1.394 . S
C546 H554 0.930 . S
C547 C546 1.394 . S
C547 C548 1.383 . S
C547 H555 0.929 . S
C548 C547 1.383 . S
C548 C549 1.377 . S
C549 H533 0.930 . S
C549 C548 1.377 . S
C549 C550 1.379 . S
C550 H534 0.931 . S
C550 C544 1.383 . S
C550 C549 1.379 . S
H551 C545 0.959 . S
H552 C545 0.961 . S
H553 C545 0.960 . S
H554 C546 0.930 . S
H555 C547 0.929 . S
H556 C564 0.929 . S
H557 C566 0.930 . S
H558 C568 0.930 . S
H559 C571 0.929 . S
H560 C574 0.930 . S
H561 C576 0.960 . S
H562 C576 0.960 . S
H563 C576 0.960 . S
C564 H556 0.929 . S
C564 C565 1.377 . S
C564 C566 1.384 . S
C565 C564 1.377 . S
C565 C571 1.390 . S
C566 H557 0.930 . S
C566 C564 1.384 . S
C566 C567 1.372 . S
C567 C566 1.372 . S
C567 C568 1.400 . S
C567 C572 1.490 . S
C568 H558 0.930 . S
C568 C567 1.400 . S
C568 C571 1.386 . S
H569 C585 0.930 . S
H570 C586 0.931 . S
C571 H559 0.929 . S
C571 C565 1.390 . S
C571 C568 1.386 . S
C572 C567 1.490 . S
C572 C574 1.395 . S
C572 C575 1.403 . S
H573 C579 0.930 . S
C574 H560 0.930 . S
C574 C572 1.395 . S
C574 C577 1.403 . S
C575 C572 1.403 . S
C575 C576 1.524 . S
C575 C579 1.400 . S
C576 H561 0.960 . S
C576 H562 0.960 . S
C576 H563 0.960 . S
C576 C575 1.524 . S
C577 C574 1.403 . S
C577 C578 1.392 . S
C577 C581 1.495 . S
C578 C577 1.392 . S
C578 C579 1.385 . S
C578 C580 1.478 . S
C579 H573 0.930 . S
C579 C575 1.400 . S
C579 C578 1.385 . S
C580 C578 1.478 . S
C580 C582 1.381 . S
C580 C586 1.383 . S
C581 C577 1.495 . S
C581 H587 0.959 . S
C581 H588 0.961 . S
C581 H589 0.960 . S
C582 C580 1.381 . S
C582 C583 1.394 . S
C582 H590 0.930 . S
C583 C582 1.394 . S
C583 C584 1.383 . S
C583 H591 0.929 . S
C584 C583 1.383 . S
C584 C585 1.377 . S
C585 H569 0.930 . S
C585 C584 1.377 . S
C585 C586 1.379 . S
C586 H570 0.931 . S
C586 C580 1.383 . S
C586 C585 1.379 . S
H587 C581 0.959 . S
H588 C581 0.961 . S
H589 C581 0.960 . S
H590 C582 0.930 . S
H591 C583 0.929 . S
H592 C600 0.929 . S
H593 C602 0.930 . S
H594 C604 0.930 . S
H595 C607 0.929 . S
H596 C610 0.930 . S
H597 C612 0.960 . S
H598 C612 0.960 . S
H599 C612 0.960 . S
C600 H592 0.929 . S
C600 C601 1.377 . S
C600 C602 1.384 . S
C601 C600 1.377 . S
C601 C607 1.390 . S
C602 H593 0.930 . S
C602 C600 1.384 . S
C602 C603 1.372 . S
C603 C602 1.372 . S
C603 C604 1.400 . S
C603 C608 1.490 . S
C604 H594 0.930 . S
C604 C603 1.400 . S
C604 C607 1.386 . S
H605 C621 0.930 . S
H606 C622 0.931 . S
C607 H595 0.929 . S
C607 C601 1.390 . S
C607 C604 1.386 . S
C608 C603 1.490 . S
C608 C610 1.395 . S
C608 C611 1.403 . S
H609 C615 0.930 . S
C610 H596 0.930 . S
C610 C608 1.395 . S
C610 C613 1.403 . S
C611 C608 1.403 . S
C611 C612 1.524 . S
C611 C615 1.400 . S
C612 H597 0.960 . S
C612 H598 0.960 . S
C612 H599 0.960 . S
C612 C611 1.524 . S
C613 C610 1.403 . S
C613 C614 1.392 . S
C613 C617 1.495 . S
C614 C613 1.392 . S
C614 C615 1.385 . S
C614 C616 1.478 . S
C615 H609 0.930 . S
C615 C611 1.400 . S
C615 C614 1.385 . S
C616 C614 1.478 . S
C616 C618 1.381 . S
C616 C622 1.383 . S
C617 C613 1.495 . S
C617 H623 0.959 . S
C617 H624 0.961 . S
C617 H625 0.960 . S
C618 C616 1.381 . S
C618 C619 1.394 . S
C618 H626 0.930 . S
C619 C618 1.394 . S
C619 C620 1.383 . S
C619 H627 0.929 . S
C620 C619 1.383 . S
C620 C621 1.377 . S
C621 H605 0.930 . S
C621 C620 1.377 . S
C621 C622 1.379 . S
C622 H606 0.931 . S
C622 C616 1.383 . S
C622 C621 1.379 . S
H623 C617 0.959 . S
H624 C617 0.961 . S
H625 C617 0.960 . S
H626 C618 0.930 . S
H627 C619 0.929 . S
H628 C636 0.929 . S
H629 C638 0.930 . S
H630 C640 0.930 . S
H631 C643 0.929 . S
H632 C646 0.930 . S
H633 C648 0.960 . S
H634 C648 0.960 . S
H635 C648 0.960 . S
C636 H628 0.929 . S
C636 C637 1.377 . S
C636 C638 1.384 . S
C637 C636 1.377 . S
C637 C643 1.390 . S
C638 H629 0.930 . S
C638 C636 1.384 . S
C638 C639 1.372 . S
C639 C638 1.372 . S
C639 C640 1.400 . S
C639 C644 1.490 . S
C640 H630 0.930 . S
C640 C639 1.400 . S
C640 C643 1.386 . S
H641 C657 0.930 . S
H642 C658 0.931 . S
C643 H631 0.929 . S
C643 C637 1.390 . S
C643 C640 1.386 . S
C644 C639 1.490 . S
C644 C646 1.395 . S
C644 C647 1.403 . S
H645 C651 0.930 . S
C646 H632 0.930 . S
C646 C644 1.395 . S
C646 C649 1.403 . S
C647 C644 1.403 . S
C647 C648 1.524 . S
C647 C651 1.400 . S
C648 H633 0.960 . S
C648 H634 0.960 . S
C648 H635 0.960 . S
C648 C647 1.524 . S
C649 C646 1.403 . S
C649 C650 1.392 . S
C649 C653 1.495 . S
C650 C649 1.392 . S
C650 C651 1.385 . S
C650 C652 1.478 . S
C651 H645 0.930 . S
C651 C647 1.400 . S
C651 C650 1.385 . S
C652 C650 1.478 . S
C652 C654 1.381 . S
C652 C658 1.383 . S
C653 C649 1.495 . S
C653 H659 0.959 . S
C653 H660 0.961 . S
C653 H661 0.960 . S
C654 C652 1.381 . S
C654 C655 1.394 . S
C654 H662 0.930 . S
C655 C654 1.394 . S
C655 C656 1.383 . S
C655 H663 0.929 . S
C656 C655 1.383 . S
C656 C657 1.377 . S
C657 H641 0.930 . S
C657 C656 1.377 . S
C657 C658 1.379 . S
C658 H642 0.931 . S
C658 C652 1.383 . S
C658 C657 1.379 . S
H659 C653 0.959 . S
H660 C653 0.961 . S
H661 C653 0.960 . S
H662 C654 0.930 . S
H663 C655 0.929 . S
H664 C672 0.929 . S
H665 C674 0.930 . S
H666 C676 0.930 . S
H667 C679 0.929 . S
H668 C682 0.930 . S
H669 C684 0.960 . S
H670 C684 0.960 . S
H671 C684 0.960 . S
C672 H664 0.929 . S
C672 C673 1.377 . S
C672 C674 1.384 . S
C673 C672 1.377 . S
C673 C679 1.390 . S
C674 H665 0.930 . S
C674 C672 1.384 . S
C674 C675 1.372 . S
C675 C674 1.372 . S
C675 C676 1.400 . S
C675 C680 1.490 . S
C676 H666 0.930 . S
C676 C675 1.400 . S
C676 C679 1.386 . S
H677 C693 0.930 . S
H678 C694 0.931 . S
C679 H667 0.929 . S
C679 C673 1.390 . S
C679 C676 1.386 . S
C680 C675 1.490 . S
C680 C682 1.395 . S
C680 C683 1.403 . S
H681 C687 0.930 . S
C682 H668 0.930 . S
C682 C680 1.395 . S
C682 C685 1.403 . S
C683 C680 1.403 . S
C683 C684 1.524 . S
C683 C687 1.400 . S
C684 H669 0.960 . S
C684 H670 0.960 . S
C684 H671 0.960 . S
C684 C683 1.524 . S
C685 C682 1.403 . S
C685 C686 1.392 . S
C685 C689 1.495 . S
C686 C685 1.392 . S
C686 C687 1.385 . S
C686 C688 1.478 . S
C687 H681 0.930 . S
C687 C683 1.400 . S
C687 C686 1.385 . S
C688 C686 1.478 . S
C688 C690 1.381 . S
C688 C694 1.383 . S
C689 C685 1.495 . S
C689 H695 0.959 . S
C689 H696 0.961 . S
C689 H697 0.960 . S
C690 C688 1.381 . S
C690 C691 1.394 . S
C690 H698 0.930 . S
C691 C690 1.394 . S
C691 C692 1.383 . S
C691 H699 0.929 . S
C692 C691 1.383 . S
C692 C693 1.377 . S
C693 H677 0.930 . S
C693 C692 1.377 . S
C693 C694 1.379 . S
C694 H678 0.931 . S
C694 C688 1.383 . S
C694 C693 1.379 . S
H695 C689 0.959 . S
H696 C689 0.961 . S
H697 C689 0.960 . S
H698 C690 0.930 . S
H699 C691 0.929 . S
H700 C708 0.929 . S
H701 C710 0.930 . S
H702 C712 0.930 . S
H703 C715 0.929 . S
H704 C718 0.930 . S
H705 C720 0.960 . S
H706 C720 0.960 . S
H707 C720 0.960 . S
C708 H700 0.929 . S
C708 C709 1.377 . S
C708 C710 1.384 . S
C709 C708 1.377 . S
C709 C715 1.390 . S
C710 H701 0.930 . S
C710 C708 1.384 . S
C710 C711 1.372 . S
C711 C710 1.372 . S
C711 C712 1.400 . S
C711 C716 1.490 . S
C712 H702 0.930 . S
C712 C711 1.400 . S
C712 C715 1.386 . S
H713 C729 0.930 . S
H714 C730 0.931 . S
C715 H703 0.929 . S
C715 C709 1.390 . S
C715 C712 1.386 . S
C716 C711 1.490 . S
C716 C718 1.395 . S
C716 C719 1.403 . S
H717 C723 0.930 . S
C718 H704 0.930 . S
C718 C716 1.395 . S
C718 C721 1.403 . S
C719 C716 1.403 . S
C719 C720 1.524 . S
C719 C723 1.400 . S
C720 H705 0.960 . S
C720 H706 0.960 . S
C720 H707 0.960 . S
C720 C719 1.524 . S
C721 C718 1.403 . S
C721 C722 1.392 . S
C721 C725 1.495 . S
C722 C721 1.392 . S
C722 C723 1.385 . S
C722 C724 1.478 . S
C723 H717 0.930 . S
C723 C719 1.400 . S
C723 C722 1.385 . S
C724 C722 1.478 . S
C724 C726 1.381 . S
C724 C730 1.383 . S
C725 C721 1.495 . S
C725 H731 0.959 . S
C725 H732 0.961 . S
C725 H733 0.960 . S
C726 C724 1.381 . S
C726 C727 1.394 . S
C726 H734 0.930 . S
C727 C726 1.394 . S
C727 C728 1.383 . S
C727 H735 0.929 . S
C728 C727 1.383 . S
C728 C729 1.377 . S
C729 H713 0.930 . S
C729 C728 1.377 . S
C729 C730 1.379 . S
C730 H714 0.931 . S
C730 C724 1.383 . S
C730 C729 1.379 . S
H731 C725 0.959 . S
H732 C725 0.961 . S
H733 C725 0.960 . S
H734 C726 0.930 . S
H735 C727 0.929 . S
H736 C744 0.929 . S
H737 C746 0.930 . S
H738 C748 0.930 . S
H739 C751 0.929 . S
H740 C754 0.930 . S
H741 C756 0.960 . S
H742 C756 0.960 . S
H743 C756 0.960 . S
C744 H736 0.929 . S
C744 C745 1.377 . S
C744 C746 1.384 . S
C745 C744 1.377 . S
C745 C751 1.390 . S
C746 H737 0.930 . S
C746 C744 1.384 . S
C746 C747 1.372 . S
C747 C746 1.372 . S
C747 C748 1.400 . S
C747 C752 1.490 . S
C748 H738 0.930 . S
C748 C747 1.400 . S
C748 C751 1.386 . S
H749 C765 0.930 . S
H750 C766 0.931 . S
C751 H739 0.929 . S
C751 C745 1.390 . S
C751 C748 1.386 . S
C752 C747 1.490 . S
C752 C754 1.395 . S
C752 C755 1.403 . S
H753 C759 0.930 . S
C754 H740 0.930 . S
C754 C752 1.395 . S
C754 C757 1.403 . S
C755 C752 1.403 . S
C755 C756 1.524 . S
C755 C759 1.400 . S
C756 H741 0.960 . S
C756 H742 0.960 . S
C756 H743 0.960 . S
C756 C755 1.524 . S
C757 C754 1.403 . S
C757 C758 1.392 . S
C757 C761 1.495 . S
C758 C757 1.392 . S
C758 C759 1.385 . S
C758 C760 1.478 . S
C759 H753 0.930 . S
C759 C755 1.400 . S
C759 C758 1.385 . S
C760 C758 1.478 . S
C760 C762 1.381 . S
C760 C766 1.383 . S
C761 C757 1.495 . S
C761 H767 0.959 . S
C761 H768 0.961 . S
C761 H769 0.960 . S
C762 C760 1.381 . S
C762 C763 1.394 . S
C762 H770 0.930 . S
C763 C762 1.394 . S
C763 C764 1.383 . S
C763 H771 0.929 . S
C764 C763 1.383 . S
C764 C765 1.377 . S
C765 H749 0.930 . S
C765 C764 1.377 . S
C765 C766 1.379 . S
C766 H750 0.931 . S
C766 C760 1.383 . S
C766 C765 1.379 . S
H767 C761 0.959 . S
H768 C761 0.961 . S
H769 C761 0.960 . S
H770 C762 0.930 . S
H771 C763 0.929 . S
H772 C780 0.929 . S
H773 C782 0.930 . S
H774 C784 0.930 . S
H775 C787 0.929 . S
H776 C790 0.930 . S
H777 C792 0.960 . S
H778 C792 0.960 . S
H779 C792 0.960 . S
C780 H772 0.929 . S
C780 C781 1.377 . S
C780 C782 1.384 . S
C781 C780 1.377 . S
C781 C787 1.390 . S
C782 H773 0.930 . S
C782 C780 1.384 . S
C782 C783 1.372 . S
C783 C782 1.372 . S
C783 C784 1.400 . S
C783 C788 1.490 . S
C784 H774 0.930 . S
C784 C783 1.400 . S
C784 C787 1.386 . S
H785 C801 0.930 . S
H786 C802 0.931 . S
C787 H775 0.929 . S
C787 C781 1.390 . S
C787 C784 1.386 . S
C788 C783 1.490 . S
C788 C790 1.395 . S
C788 C791 1.403 . S
H789 C795 0.930 . S
C790 H776 0.930 . S
C790 C788 1.395 . S
C790 C793 1.403 . S
C791 C788 1.403 . S
C791 C792 1.524 . S
C791 C795 1.400 . S
C792 H777 0.960 . S
C792 H778 0.960 . S
C792 H779 0.960 . S
C792 C791 1.524 . S
C793 C790 1.403 . S
C793 C794 1.392 . S
C793 C797 1.495 . S
C794 C793 1.392 . S
C794 C795 1.385 . S
C794 C796 1.478 . S
C795 H789 0.930 . S
C795 C791 1.400 . S
C795 C794 1.385 . S
C796 C794 1.478 . S
C796 C798 1.381 . S
C796 C802 1.383 . S
C797 C793 1.495 . S
C797 H803 0.959 . S
C797 H804 0.961 . S
C797 H805 0.960 . S
C798 C796 1.381 . S
C798 C799 1.394 . S
C798 H806 0.930 . S
C799 C798 1.394 . S
C799 C800 1.383 . S
C799 H807 0.929 . S
C800 C799 1.383 . S
C800 C801 1.377 . S
C801 H785 0.930 . S
C801 C800 1.377 . S
C801 C802 1.379 . S
C802 H786 0.931 . S
C802 C796 1.383 . S
C802 C801 1.379 . S
H803 C797 0.959 . S
H804 C797 0.961 . S
H805 C797 0.960 . S
H806 C798 0.930 . S
H807 C799 0.929 . S
H808 C816 0.929 . S
H809 C818 0.930 . S
H810 C820 0.930 . S
H811 C823 0.929 . S
H812 C826 0.930 . S
H813 C828 0.960 . S
H814 C828 0.960 . S
H815 C828 0.960 . S
C816 H808 0.929 . S
C816 C817 1.377 . S
C816 C818 1.384 . S
C817 C816 1.377 . S
C817 C823 1.390 . S
C818 H809 0.930 . S
C818 C816 1.384 . S
C818 C819 1.372 . S
C819 C818 1.372 . S
C819 C820 1.400 . S
C819 C824 1.490 . S
C820 H810 0.930 . S
C820 C819 1.400 . S
C820 C823 1.386 . S
H821 C837 0.930 . S
H822 C838 0.931 . S
C823 H811 0.929 . S
C823 C817 1.390 . S
C823 C820 1.386 . S
C824 C819 1.490 . S
C824 C826 1.395 . S
C824 C827 1.403 . S
H825 C831 0.930 . S
C826 H812 0.930 . S
C826 C824 1.395 . S
C826 C829 1.403 . S
C827 C824 1.403 . S
C827 C828 1.524 . S
C827 C831 1.400 . S
C828 H813 0.960 . S
C828 H814 0.960 . S
C828 H815 0.960 . S
C828 C827 1.524 . S
C829 C826 1.403 . S
C829 C830 1.392 . S
C829 C833 1.495 . S
C830 C829 1.392 . S
C830 C831 1.385 . S
C830 C832 1.478 . S
C831 H825 0.930 . S
C831 C827 1.400 . S
C831 C830 1.385 . S
C832 C830 1.478 . S
C832 C834 1.381 . S
C832 C838 1.383 . S
C833 C829 1.495 . S
C833 H839 0.959 . S
C833 H840 0.961 . S
C833 H841 0.960 . S
C834 C832 1.381 . S
C834 C835 1.394 . S
C834 H842 0.930 . S
C835 C834 1.394 . S
C835 C836 1.383 . S
C835 H843 0.929 . S
C836 C835 1.383 . S
C836 C837 1.377 . S
C837 H821 0.930 . S
C837 C836 1.377 . S
C837 C838 1.379 . S
C838 H822 0.931 . S
C838 C832 1.383 . S
C838 C837 1.379 . S
H839 C833 0.959 . S
H840 C833 0.961 . S
H841 C833 0.960 . S
H842 C834 0.930 . S
H843 C835 0.929 . S
H844 C852 0.929 . S
H845 C854 0.930 . S
H846 C856 0.930 . S
H847 C859 0.929 . S
H848 C862 0.930 . S
H849 C864 0.960 . S
H850 C864 0.960 . S
H851 C864 0.960 . S
C852 H844 0.929 . S
C852 C853 1.377 . S
C852 C854 1.384 . S
C853 C852 1.377 . S
C853 C859 1.390 . S
C854 H845 0.930 . S
C854 C852 1.384 . S
C854 C855 1.372 . S
C855 C854 1.372 . S
C855 C856 1.400 . S
C855 C860 1.490 . S
C856 H846 0.930 . S
C856 C855 1.400 . S
C856 C859 1.386 . S
H857 C873 0.930 . S
H858 C874 0.931 . S
C859 H847 0.929 . S
C859 C853 1.390 . S
C859 C856 1.386 . S
C860 C855 1.490 . S
C860 C862 1.395 . S
C860 C863 1.403 . S
H861 C867 0.930 . S
C862 H848 0.930 . S
C862 C860 1.395 . S
C862 C865 1.403 . S
C863 C860 1.403 . S
C863 C864 1.524 . S
C863 C867 1.400 . S
C864 H849 0.960 . S
C864 H850 0.960 . S
C864 H851 0.960 . S
C864 C863 1.524 . S
C865 C862 1.403 . S
C865 C866 1.392 . S
C865 C869 1.495 . S
C866 C865 1.392 . S
C866 C867 1.385 . S
C866 C868 1.478 . S
C867 H861 0.930 . S
C867 C863 1.400 . S
C867 C866 1.385 . S
C868 C866 1.478 . S
C868 C870 1.381 . S
C868 C874 1.383 . S
C869 C865 1.495 . S
C869 H875 0.959 . S
C869 H876 0.961 . S
C869 H877 0.960 . S
C870 C868 1.381 . S
C870 C871 1.394 . S
C870 H878 0.930 . S
C871 C870 1.394 . S
C871 C872 1.383 . S
C871 H879 0.929 . S
C872 C871 1.383 . S
C872 C873 1.377 . S
C873 H857 0.930 . S
C873 C872 1.377 . S
C873 C874 1.379 . S
C874 H858 0.931 . S
C874 C868 1.383 . S
C874 C873 1.379 . S
H875 C869 0.959 . S
H876 C869 0.961 . S
H877 C869 0.960 . S
H878 C870 0.930 . S
H879 C871 0.929 . S
H880 C888 0.929 . S
H881 C890 0.930 . S
H882 C892 0.930 . S
H883 C895 0.929 . S
H884 C898 0.930 . S
H885 C900 0.960 . S
H886 C900 0.960 . S
H887 C900 0.960 . S
C888 H880 0.929 . S
C888 C889 1.377 . S
C888 C890 1.384 . S
C889 C888 1.377 . S
C889 C895 1.390 . S
C890 H881 0.930 . S
C890 C888 1.384 . S
C890 C891 1.372 . S
C891 C890 1.372 . S
C891 C892 1.400 . S
C891 C896 1.490 . S
C892 H882 0.930 . S
C892 C891 1.400 . S
C892 C895 1.386 . S
H893 C909 0.930 . S
H894 C910 0.931 . S
C895 H883 0.929 . S
C895 C889 1.390 . S
C895 C892 1.386 . S
C896 C891 1.490 . S
C896 C898 1.395 . S
C896 C899 1.403 . S
H897 C903 0.930 . S
C898 H884 0.930 . S
C898 C896 1.395 . S
C898 C901 1.403 . S
C899 C896 1.403 . S
C899 C900 1.524 . S
C899 C903 1.400 . S
C900 H885 0.960 . S
C900 H886 0.960 . S
C900 H887 0.960 . S
C900 C899 1.524 . S
C901 C898 1.403 . S
C901 C902 1.392 . S
C901 C905 1.495 . S
C902 C901 1.392 . S
C902 C903 1.385 . S
C902 C904 1.478 . S
C903 H897 0.930 . S
C903 C899 1.400 . S
C903 C902 1.385 . S
C904 C902 1.478 . S
C904 C906 1.381 . S
C904 C910 1.383 . S
C905 C901 1.495 . S
C905 H911 0.959 . S
C905 H912 0.961 . S
C905 H913 0.960 . S
C906 C904 1.381 . S
C906 C907 1.394 . S
C906 H914 0.930 . S
C907 C906 1.394 . S
C907 C908 1.383 . S
C907 H915 0.929 . S
C908 C907 1.383 . S
C908 C909 1.377 . S
C909 H893 0.930 . S
C909 C908 1.377 . S
C909 C910 1.379 . S
C910 H894 0.931 . S
C910 C904 1.383 . S
C910 C909 1.379 . S
H911 C905 0.959 . S
H912 C905 0.961 . S
H913 C905 0.960 . S
H914 C906 0.930 . S
H915 C907 0.929 . S
H916 C924 0.929 . S
H917 C926 0.930 . S
H918 C928 0.930 . S
H919 C931 0.929 . S
H920 C934 0.930 . S
H921 C936 0.960 . S
H922 C936 0.960 . S
H923 C936 0.960 . S
C924 H916 0.929 . S
C924 C925 1.377 . S
C924 C926 1.384 . S
C925 C924 1.377 . S
C925 C931 1.390 . S
C926 H917 0.930 . S
C926 C924 1.384 . S
C926 C927 1.372 . S
C927 C926 1.372 . S
C927 C928 1.400 . S
C927 C932 1.490 . S
C928 H918 0.930 . S
C928 C927 1.400 . S
C928 C931 1.386 . S
H929 C945 0.930 . S
H930 C946 0.931 . S
C931 H919 0.929 . S
C931 C925 1.390 . S
C931 C928 1.386 . S
C932 C927 1.490 . S
C932 C934 1.395 . S
C932 C935 1.403 . S
H933 C939 0.930 . S
C934 H920 0.930 . S
C934 C932 1.395 . S
C934 C937 1.403 . S
C935 C932 1.403 . S
C935 C936 1.524 . S
C935 C939 1.400 . S
C936 H921 0.960 . S
C936 H922 0.960 . S
C936 H923 0.960 . S
C936 C935 1.524 . S
C937 C934 1.403 . S
C937 C938 1.392 . S
C937 C941 1.495 . S
C938 C937 1.392 . S
C938 C939 1.385 . S
C938 C940 1.478 . S
C939 H933 0.930 . S
C939 C935 1.400 . S
C939 C938 1.385 . S
C940 C938 1.478 . S
C940 C942 1.381 . S
C940 C946 1.383 . S
C941 C937 1.495 . S
C941 H947 0.959 . S
C941 H948 0.961 . S
C941 H949 0.960 . S
C942 C940 1.381 . S
C942 C943 1.394 . S
C942 H950 0.930 . S
C943 C942 1.394 . S
C943 C944 1.383 . S
C943 H951 0.929 . S
C944 C943 1.383 . S
C944 C945 1.377 . S
C945 H929 0.930 . S
C945 C944 1.377 . S
C945 C946 1.379 . S
C946 H930 0.931 . S
C946 C940 1.383 . S
C946 C945 1.379 . S
H947 C941 0.959 . S
H948 C941 0.961 . S
H949 C941 0.960 . S
H950 C942 0.930 . S
H951 C943 0.929 . S
H952 C960 0.929 . S
H953 C962 0.930 . S
H954 C964 0.930 . S
H955 C967 0.929 . S
H956 C970 0.930 . S
H957 C972 0.960 . S
H958 C972 0.960 . S
H959 C972 0.960 . S
C960 H952 0.929 . S
C960 C961 1.377 . S
C960 C962 1.384 . S
C961 C960 1.377 . S
C961 C967 1.390 . S
C962 H953 0.930 . S
C962 C960 1.384 . S
C962 C963 1.372 . S
C963 C962 1.372 . S
C963 C964 1.400 . S
C963 C968 1.490 . S
C964 H954 0.930 . S
C964 C963 1.400 . S
C964 C967 1.386 . S
H965 C981 0.930 . S
H966 C982 0.931 . S
C967 H955 0.929 . S
C967 C961 1.390 . S
C967 C964 1.386 . S
C968 C963 1.490 . S
C968 C970 1.395 . S
C968 C971 1.403 . S
H969 C975 0.930 . S
C970 H956 0.930 . S
C970 C968 1.395 . S
C970 C973 1.403 . S
C971 C968 1.403 . S
C971 C972 1.524 . S
C971 C975 1.400 . S
C972 H957 0.960 . S
C972 H958 0.960 . S
C972 H959 0.960 . S
C972 C971 1.524 . S
C973 C970 1.403 . S
C973 C974 1.392 . S
C973 C977 1.495 . S
C974 C973 1.392 . S
C974 C975 1.385 . S
C974 C976 1.478 . S
C975 H969 0.930 . S
C975 C971 1.400 . S
C975 C974 1.385 . S
C976 C974 1.478 . S
C976 C978 1.381 . S
C976 C982 1.383 . S
C977 C973 1.495 . S
C977 H983 0.959 . S
C977 H984 0.961 . S
C977 H985 0.960 . S
C978 C976 1.381 . S
C978 C979 1.394 . S
C978 H986 0.930 . S
C979 C978 1.394 . S
C979 C980 1.383 . S
C979 H987 0.929 . S
C980 C979 1.383 . S
C980 C981 1.377 . S
C981 H965 0.930 . S
C981 C980 1.377 . S
C981 C982 1.379 . S
C982 H966 0.931 . S
C982 C976 1.383 . S
C982 C981 1.379 . S
H983 C977 0.959 . S
H984 C977 0.961 . S
H985 C977 0.960 . S
H986 C978 0.930 . S
H987 C979 0.929 . S
H988 C996 0.929 . S
H989 C998 0.930 . S
H990 C1000 0.930 . S
H991 C1003 0.929 . S
H992 C1006 0.930 . S
H993 C1008 0.960 . S
H994 C1008 0.960 . S
H995 C1008 0.960 . S
C996 H988 0.929 . S
C996 C997 1.377 . S
C996 C998 1.384 . S
C997 C996 1.377 . S
C997 C1003 1.390 . S
C998 H989 0.930 . S
C998 C996 1.384 . S
C998 C999 1.372 . S
C999 C998 1.372 . S
C999 C1000 1.400 . S
C999 C1004 1.490 . S
C1000 H990 0.930 . S
C1000 C999 1.400 . S
C1000 C1003 1.386 . S
H1001 C1017 0.930 . S
H1002 C1018 0.931 . S
C1003 H991 0.929 . S
C1003 C997 1.390 . S
C1003 C1000 1.386 . S
C1004 C999 1.490 . S
C1004 C1006 1.395 . S
C1004 C1007 1.403 . S
H1005 C1011 0.930 . S
C1006 H992 0.930 . S
C1006 C1004 1.395 . S
C1006 C1009 1.403 . S
C1007 C1004 1.403 . S
C1007 C1008 1.524 . S
C1007 C1011 1.400 . S
C1008 H993 0.960 . S
C1008 H994 0.960 . S
C1008 H995 0.960 . S
C1008 C1007 1.524 . S
C1009 C1006 1.403 . S
C1009 C1010 1.392 . S
C1009 C1013 1.495 . S
C1010 C1009 1.392 . S
C1010 C1011 1.385 . S
C1010 C1012 1.478 . S
C1011 H1005 0.930 . S
C1011 C1007 1.400 . S
C1011 C1010 1.385 . S
C1012 C1010 1.478 . S
C1012 C1014 1.381 . S
C1012 C1018 1.383 . S
C1013 C1009 1.495 . S
C1013 H1019 0.959 . S
C1013 H1020 0.961 . S
C1013 H1021 0.960 . S
C1014 C1012 1.381 . S
C1014 C1015 1.394 . S
C1014 H1022 0.930 . S
C1015 C1014 1.394 . S
C1015 C1016 1.383 . S
C1015 H1023 0.929 . S
C1016 C1015 1.383 . S
C1016 C1017 1.377 . S
C1017 H1001 0.930 . S
C1017 C1016 1.377 . S
C1017 C1018 1.379 . S
C1018 H1002 0.931 . S
C1018 C1012 1.383 . S
C1018 C1017 1.379 . S
H1019 C1013 0.959 . S
H1020 C1013 0.961 . S
H1021 C1013 0.960 . S
H1022 C1014 0.930 . S
H1023 C1015 0.929 . S
H1024 C1032 0.929 . S
H1025 C1034 0.930 . S
H1026 C1036 0.930 . S
H1027 C1039 0.929 . S
H1028 C1042 0.930 . S
H1029 C1044 0.960 . S
H1030 C1044 0.960 . S
H1031 C1044 0.960 . S
C1032 H1024 0.929 . S
C1032 C1033 1.377 . S
C1032 C1034 1.384 . S
C1033 C1032 1.377 . S
C1033 C1039 1.390 . S
C1034 H1025 0.930 . S
C1034 C1032 1.384 . S
C1034 C1035 1.372 . S
C1035 C1034 1.372 . S
C1035 C1036 1.400 . S
C1035 C1040 1.490 . S
C1036 H1026 0.930 . S
C1036 C1035 1.400 . S
C1036 C1039 1.386 . S
H1037 C1053 0.930 . S
H1038 C1054 0.931 . S
C1039 H1027 0.929 . S
C1039 C1033 1.390 . S
C1039 C1036 1.386 . S
C1040 C1035 1.490 . S
C1040 C1042 1.395 . S
C1040 C1043 1.403 . S
H1041 C1047 0.930 . S
C1042 H1028 0.930 . S
C1042 C1040 1.395 . S
C1042 C1045 1.403 1_655 S
C1043 C1040 1.403 . S
C1043 C1044 1.524 . S
C1043 C1047 1.400 1_655 S
C1044 H1029 0.960 . S
C1044 H1030 0.960 . S
C1044 H1031 0.960 . S
C1044 C1043 1.524 . S
C1045 C1042 1.403 1_455 S
C1045 C1046 1.392 . S
C1045 C1049 1.495 . S
C1046 C1045 1.392 . S
C1046 C1047 1.385 . S
C1046 C1048 1.478 . S
C1047 H1041 0.930 . S
C1047 C1043 1.400 1_455 S
C1047 C1046 1.385 . S
C1048 C1046 1.478 . S
C1048 C1050 1.381 . S
C1048 C1054 1.383 . S
C1049 C1045 1.495 . S
C1049 H1055 0.959 . S
C1049 H1056 0.961 . S
C1049 H1057 0.960 . S
C1050 C1048 1.381 . S
C1050 C1051 1.394 . S
C1050 H1058 0.930 . S
C1051 C1050 1.394 . S
C1051 C1052 1.383 . S
C1051 H1059 0.929 . S
C1052 C1051 1.383 . S
C1052 C1053 1.377 . S
C1053 H1037 0.930 . S
C1053 C1052 1.377 . S
C1053 C1054 1.379 . S
C1054 H1038 0.931 . S
C1054 C1048 1.383 . S
C1054 C1053 1.379 . S
H1055 C1049 0.959 . S
H1056 C1049 0.961 . S
H1057 C1049 0.960 . S
H1058 C1050 0.930 . S
H1059 C1051 0.929 . S
H1060 C1068 0.929 . S
H1061 C1070 0.930 . S
H1062 C1072 0.930 . S
H1063 C1075 0.929 . S
H1064 C1078 0.930 . S
H1065 C1080 0.960 . S
H1066 C1080 0.960 . S
H1067 C1080 0.960 . S
C1068 H1060 0.929 . S
C1068 C1069 1.377 . S
C1068 C1070 1.384 . S
C1069 C1068 1.377 . S
C1069 C1075 1.390 . S
C1070 H1061 0.930 . S
C1070 C1068 1.384 . S
C1070 C1071 1.372 . S
C1071 C1070 1.372 . S
C1071 C1072 1.400 . S
C1071 C1076 1.490 . S
C1072 H1062 0.930 . S
C1072 C1071 1.400 . S
C1072 C1075 1.386 . S
H1073 C1089 0.930 . S
H1074 C1090 0.931 . S
C1075 H1063 0.929 . S
C1075 C1069 1.390 . S
C1075 C1072 1.386 . S
C1076 C1071 1.490 . S
C1076 C1078 1.395 . S
C1076 C1079 1.403 . S
H1077 C1083 0.930 . S
C1078 H1064 0.930 . S
C1078 C1076 1.395 . S
C1078 C1081 1.403 1_545 S
C1079 C1076 1.403 . S
C1079 C1080 1.524 . S
C1079 C1083 1.400 1_545 S
C1080 H1065 0.960 . S
C1080 H1066 0.960 . S
C1080 H1067 0.960 . S
C1080 C1079 1.524 . S
C1081 C1078 1.403 1_565 S
C1081 C1082 1.392 . S
C1081 C1085 1.495 . S
C1082 C1081 1.392 . S
C1082 C1083 1.385 . S
C1082 C1084 1.478 . S
C1083 H1077 0.930 . S
C1083 C1079 1.400 1_565 S
C1083 C1082 1.385 . S
C1084 C1082 1.478 . S
C1084 C1086 1.381 . S
C1084 C1090 1.383 . S
C1085 C1081 1.495 . S
C1085 H1091 0.959 . S
C1085 H1092 0.961 . S
C1085 H1093 0.960 . S
C1086 C1084 1.381 . S
C1086 C1087 1.394 . S
C1086 H1094 0.930 . S
C1087 C1086 1.394 . S
C1087 C1088 1.383 . S
C1087 H1095 0.929 . S
C1088 C1087 1.383 . S
C1088 C1089 1.377 . S
C1089 H1073 0.930 . S
C1089 C1088 1.377 . S
C1089 C1090 1.379 . S
C1090 H1074 0.931 . S
C1090 C1084 1.383 . S
C1090 C1089 1.379 . S
H1091 C1085 0.959 . S
H1092 C1085 0.961 . S
H1093 C1085 0.960 . S
H1094 C1086 0.930 . S
H1095 C1087 0.929 . S
H1096 C1104 0.929 . S
H1097 C1106 0.930 . S
H1098 C1108 0.930 . S
H1099 C1111 0.929 . S
H1100 C1114 0.930 . S
H1101 C1116 0.960 . S
H1102 C1116 0.960 . S
H1103 C1116 0.960 . S
C1104 H1096 0.929 . S
C1104 C1105 1.377 . S
C1104 C1106 1.384 . S
C1105 C1104 1.377 . S
C1105 C1111 1.390 . S
C1106 H1097 0.930 . S
C1106 C1104 1.384 . S
C1106 C1107 1.372 . S
C1107 C1106 1.372 . S
C1107 C1108 1.400 . S
C1107 C1112 1.490 . S
C1108 H1098 0.930 . S
C1108 C1107 1.400 . S
C1108 C1111 1.386 . S
H1109 C1125 0.930 . S
H1110 C1126 0.931 . S
C1111 H1099 0.929 . S
C1111 C1105 1.390 . S
C1111 C1108 1.386 . S
C1112 C1107 1.490 . S
C1112 C1114 1.395 . S
C1112 C1115 1.403 . S
H1113 C1119 0.930 . S
C1114 H1100 0.930 . S
C1114 C1112 1.395 . S
C1114 C1117 1.403 1_455 S
C1115 C1112 1.403 . S
C1115 C1116 1.524 . S
C1115 C1119 1.400 1_455 S
C1116 H1101 0.960 . S
C1116 H1102 0.960 . S
C1116 H1103 0.960 . S
C1116 C1115 1.524 . S
C1117 C1114 1.403 1_655 S
C1117 C1118 1.392 . S
C1117 C1121 1.495 . S
C1118 C1117 1.392 . S
C1118 C1119 1.385 . S
C1118 C1120 1.478 . S
C1119 H1113 0.930 . S
C1119 C1115 1.400 1_655 S
C1119 C1118 1.385 . S
C1120 C1118 1.478 . S
C1120 C1122 1.381 . S
C1120 C1126 1.383 . S
C1121 C1117 1.495 . S
C1121 H1127 0.957 1_655 S
C1121 H1128 0.961 . S
C1121 H1129 0.960 . S
C1122 C1120 1.381 . S
C1122 C1123 1.394 . S
C1122 H1130 0.930 . S
C1123 C1122 1.394 . S
C1123 C1124 1.383 . S
C1123 H1131 0.929 . S
C1124 C1123 1.383 . S
C1124 C1125 1.377 . S
C1125 H1109 0.930 . S
C1125 C1124 1.377 . S
C1125 C1126 1.379 . S
C1126 H1110 0.931 . S
C1126 C1120 1.383 . S
C1126 C1125 1.379 . S
H1127 C1121 0.957 1_455 S
H1128 C1121 0.961 . S
H1129 C1121 0.960 . S
H1130 C1122 0.930 . S
H1131 C1123 0.929 . S
H1132 C1140 0.929 . S
H1133 C1142 0.930 . S
H1134 C1144 0.930 . S
H1135 C1147 0.929 . S
H1136 C1150 0.930 . S
H1137 C1152 0.960 . S
H1138 C1152 0.960 . S
H1139 C1152 0.960 . S
C1140 H1132 0.929 . S
C1140 C1141 1.377 . S
C1140 C1142 1.384 . S
C1141 C1140 1.377 . S
C1141 C1147 1.390 . S
C1142 H1133 0.930 . S
C1142 C1140 1.384 . S
C1142 C1143 1.372 . S
C1143 C1142 1.372 . S
C1143 C1144 1.400 . S
C1143 C1148 1.490 . S
C1144 H1134 0.930 . S
C1144 C1143 1.400 . S
C1144 C1147 1.386 . S
H1145 C1161 0.930 . S
H1146 C1162 0.931 . S
C1147 H1135 0.929 . S
C1147 C1141 1.390 . S
C1147 C1144 1.386 . S
C1148 C1143 1.490 . S
C1148 C1150 1.395 . S
C1148 C1151 1.403 . S
H1149 C1155 0.930 . S
C1150 H1136 0.930 . S
C1150 C1148 1.395 . S
C1150 C1153 1.403 1_565 S
C1151 C1148 1.403 . S
C1151 C1152 1.524 . S
C1151 C1155 1.400 1_565 S
C1152 H1137 0.960 . S
C1152 H1138 0.960 . S
C1152 H1139 0.960 . S
C1152 C1151 1.524 . S
C1153 C1150 1.403 1_545 S
C1153 C1154 1.392 . S
C1153 C1157 1.495 . S
C1154 C1153 1.392 . S
C1154 C1155 1.385 . S
C1154 C1156 1.478 . S
C1155 H1149 0.930 . S
C1155 C1151 1.400 1_545 S
C1155 C1154 1.385 . S
C1156 C1154 1.478 . S
C1156 C1158 1.381 . S
C1156 C1162 1.383 . S
C1157 C1153 1.495 . S
C1157 H1163 0.959 . S
C1157 H1164 0.961 . S
C1157 H1165 0.960 . S
C1158 C1156 1.381 . S
C1158 C1159 1.394 . S
C1158 H1166 0.930 . S
C1159 C1158 1.394 . S
C1159 C1160 1.383 . S
C1159 H1167 0.929 . S
C1160 C1159 1.383 . S
C1160 C1161 1.377 . S
C1161 H1145 0.930 . S
C1161 C1160 1.377 . S
C1161 C1162 1.379 . S
C1162 H1146 0.931 . S
C1162 C1156 1.383 . S
C1162 C1161 1.379 . S
H1163 C1157 0.959 . S
H1164 C1157 0.961 . S
H1165 C1157 0.960 . S
H1166 C1158 0.930 . S
H1167 C1159 0.929 . S
H1168 C1176 0.929 . S
H1169 C1178 0.930 . S
H1170 C1180 0.930 . S
H1171 C1183 0.929 . S
H1172 C1186 0.930 . S
H1173 C1188 0.960 . S
H1174 C1188 0.960 . S
H1175 C1188 0.960 . S
C1176 H1168 0.929 . S
C1176 C1177 1.377 . S
C1176 C1178 1.384 . S
C1177 C1176 1.377 . S
C1177 C1183 1.390 . S
C1178 H1169 0.930 . S
C1178 C1176 1.384 . S
C1178 C1179 1.372 . S
C1179 C1178 1.372 . S
C1179 C1180 1.400 . S
C1179 C1184 1.490 . S
C1180 H1170 0.930 . S
C1180 C1179 1.400 . S
C1180 C1183 1.386 . S
H1181 C1197 0.930 . S
H1182 C1198 0.931 . S
C1183 H1171 0.929 . S
C1183 C1177 1.390 . S
C1183 C1180 1.386 . S
C1184 C1179 1.490 . S
C1184 C1186 1.395 . S
C1184 C1187 1.403 . S
H1185 C1191 0.930 . S
C1186 H1172 0.930 . S
C1186 C1184 1.395 . S
C1186 C1189 1.403 1_455 S
C1187 C1184 1.403 . S
C1187 C1188 1.524 . S
C1187 C1191 1.400 1_455 S
C1188 H1173 0.960 . S
C1188 H1174 0.960 . S
C1188 H1175 0.960 . S
C1188 C1187 1.524 . S
C1189 C1186 1.403 1_655 S
C1189 C1190 1.392 . S
C1189 C1193 1.495 . S
C1190 C1189 1.392 . S
C1190 C1191 1.385 . S
C1190 C1192 1.478 . S
C1191 H1185 0.930 . S
C1191 C1187 1.400 1_655 S
C1191 C1190 1.385 . S
C1192 C1190 1.478 . S
C1192 C1194 1.381 . S
C1192 C1198 1.383 . S
C1193 C1189 1.495 . S
C1193 H1199 0.959 . S
C1193 H1200 0.961 . S
C1193 H1201 0.960 . S
C1194 C1192 1.381 . S
C1194 C1195 1.394 . S
C1194 H1202 0.930 . S
C1195 C1194 1.394 . S
C1195 C1196 1.383 . S
C1195 H1203 0.929 . S
C1196 C1195 1.383 . S
C1196 C1197 1.377 . S
C1197 H1181 0.930 . S
C1197 C1196 1.377 . S
C1197 C1198 1.379 . S
C1198 H1182 0.931 . S
C1198 C1192 1.383 . S
C1198 C1197 1.379 . S
H1199 C1193 0.959 . S
H1200 C1193 0.961 . S
H1201 C1193 0.960 . S
H1202 C1194 0.930 . S
H1203 C1195 0.929 . S
H1204 C1212 0.929 . S
H1205 C1214 0.930 . S
H1206 C1216 0.930 . S
H1207 C1219 0.929 . S
H1208 C1222 0.930 . S
H1209 C1224 0.960 . S
H1210 C1224 0.960 . S
H1211 C1224 0.960 . S
C1212 H1204 0.929 . S
C1212 C1213 1.377 . S
C1212 C1214 1.384 . S
C1213 C1212 1.377 . S
C1213 C1219 1.390 . S
C1214 H1205 0.930 . S
C1214 C1212 1.384 . S
C1214 C1215 1.372 . S
C1215 C1214 1.372 . S
C1215 C1216 1.400 . S
C1215 C1220 1.490 . S
C1216 H1206 0.930 . S
C1216 C1215 1.400 . S
C1216 C1219 1.386 . S
H1217 C1233 0.930 . S
H1218 C1234 0.931 . S
C1219 H1207 0.929 . S
C1219 C1213 1.390 . S
C1219 C1216 1.386 . S
C1220 C1215 1.490 . S
C1220 C1222 1.395 . S
C1220 C1223 1.403 . S
H1221 C1227 0.930 . S
C1222 H1208 0.930 . S
C1222 C1220 1.395 . S
C1222 C1225 1.403 1_565 S
C1223 C1220 1.403 . S
C1223 C1224 1.524 . S
C1223 C1227 1.400 1_565 S
C1224 H1209 0.960 . S
C1224 H1210 0.960 . S
C1224 H1211 0.960 . S
C1224 C1223 1.524 . S
C1225 C1222 1.403 1_545 S
C1225 C1226 1.392 . S
C1225 C1229 1.495 . S
C1226 C1225 1.392 . S
C1226 C1227 1.385 . S
C1226 C1228 1.478 . S
C1227 H1221 0.930 . S
C1227 C1223 1.400 1_545 S
C1227 C1226 1.385 . S
C1228 C1226 1.478 . S
C1228 C1230 1.381 . S
C1228 C1234 1.383 . S
C1229 C1225 1.495 . S
C1229 H1235 0.959 . S
C1229 H1236 0.961 . S
C1229 H1237 0.960 . S
C1230 C1228 1.381 . S
C1230 C1231 1.394 . S
C1230 H1238 0.930 . S
C1231 C1230 1.394 . S
C1231 C1232 1.383 . S
C1231 H1239 0.929 . S
C1232 C1231 1.383 . S
C1232 C1233 1.377 . S
C1233 H1217 0.930 . S
C1233 C1232 1.377 . S
C1233 C1234 1.379 . S
C1234 H1218 0.931 . S
C1234 C1228 1.383 . S
C1234 C1233 1.379 . S
H1235 C1229 0.959 . S
H1236 C1229 0.961 . S
H1237 C1229 0.960 . S
H1238 C1230 0.930 . S
H1239 C1231 0.929 . S
H1240 C1248 0.929 . S
H1241 C1250 0.930 . S
H1242 C1252 0.930 . S
H1243 C1255 0.929 . S
H1244 C1258 0.930 . S
H1245 C1260 0.960 . S
H1246 C1260 0.960 . S
H1247 C1260 0.960 . S
C1248 H1240 0.929 . S
C1248 C1249 1.377 . S
C1248 C1250 1.384 . S
C1249 C1248 1.377 . S
C1249 C1255 1.390 . S
C1250 H1241 0.930 . S
C1250 C1248 1.384 . S
C1250 C1251 1.372 . S
C1251 C1250 1.372 . S
C1251 C1252 1.400 . S
C1251 C1256 1.490 . S
C1252 H1242 0.930 . S
C1252 C1251 1.400 . S
C1252 C1255 1.386 . S
H1253 C1269 0.930 . S
H1254 C1270 0.931 . S
C1255 H1243 0.929 . S
C1255 C1249 1.390 . S
C1255 C1252 1.386 . S
C1256 C1251 1.490 . S
C1256 C1258 1.395 . S
C1256 C1259 1.403 . S
H1257 C1263 0.930 . S
C1258 H1244 0.930 . S
C1258 C1256 1.395 . S
C1258 C1261 1.403 1_455 S
C1259 C1256 1.403 . S
C1259 C1260 1.524 . S
C1259 C1263 1.400 1_455 S
C1260 H1245 0.960 . S
C1260 H1246 0.960 . S
C1260 H1247 0.960 . S
C1260 C1259 1.524 . S
C1261 C1258 1.403 1_655 S
C1261 C1262 1.392 . S
C1261 C1265 1.495 . S
C1262 C1261 1.392 . S
C1262 C1263 1.385 . S
C1262 C1264 1.478 . S
C1263 H1257 0.930 . S
C1263 C1259 1.400 1_655 S
C1263 C1262 1.385 . S
C1264 C1262 1.478 . S
C1264 C1266 1.381 . S
C1264 C1270 1.383 . S
C1265 C1261 1.495 . S
C1265 H1271 0.995 . S
C1265 H1272 0.961 . S
C1265 H1273 0.960 . S
C1266 C1264 1.381 . S
C1266 C1267 1.394 . S
C1266 H1274 0.930 . S
C1267 C1266 1.394 . S
C1267 C1268 1.383 . S
C1267 H1275 0.929 . S
C1268 C1267 1.383 . S
C1268 C1269 1.377 . S
C1269 H1253 0.930 . S
C1269 C1268 1.377 . S
C1269 C1270 1.379 . S
C1270 H1254 0.931 . S
C1270 C1264 1.383 . S
C1270 C1269 1.379 . S
H1271 C1265 0.995 . S
H1272 C1265 0.961 . S
H1273 C1265 0.960 . S
H1274 C1266 0.930 . S
H1275 C1267 0.929 . S
H1276 C1284 0.929 . S
H1277 C1286 0.930 . S
H1278 C1288 0.930 . S
H1279 C1291 0.929 . S
H1280 C1294 0.930 . S
H1281 C1296 0.960 . S
H1282 C1296 0.960 . S
H1283 C1296 0.960 . S
C1284 H1276 0.929 . S
C1284 C1285 1.377 . S
C1284 C1286 1.384 . S
C1285 C1284 1.377 . S
C1285 C1291 1.390 . S
C1286 H1277 0.930 . S
C1286 C1284 1.384 . S
C1286 C1287 1.372 . S
C1287 C1286 1.372 . S
C1287 C1288 1.400 . S
C1287 C1292 1.490 . S
C1288 H1278 0.930 . S
C1288 C1287 1.400 . S
C1288 C1291 1.386 . S
H1289 C1305 0.930 . S
H1290 C1306 0.931 . S
C1291 H1279 0.929 . S
C1291 C1285 1.390 . S
C1291 C1288 1.386 . S
C1292 C1287 1.490 . S
C1292 C1294 1.395 . S
C1292 C1295 1.403 . S
H1293 C1299 0.930 . S
C1294 H1280 0.930 . S
C1294 C1292 1.395 . S
C1294 C1297 1.403 1_545 S
C1295 C1292 1.403 . S
C1295 C1296 1.524 . S
C1295 C1299 1.400 1_545 S
C1296 H1281 0.960 . S
C1296 H1282 0.960 . S
C1296 H1283 0.960 . S
C1296 C1295 1.524 . S
C1297 C1294 1.403 1_565 S
C1297 C1298 1.392 . S
C1297 C1301 1.495 . S
C1298 C1297 1.392 . S
C1298 C1299 1.385 . S
C1298 C1300 1.478 . S
C1299 H1293 0.930 . S
C1299 C1295 1.400 1_565 S
C1299 C1298 1.385 . S
C1300 C1298 1.478 . S
C1300 C1302 1.381 . S
C1300 C1306 1.383 . S
C1301 C1297 1.495 . S
C1301 H1307 0.959 . S
C1301 H1308 0.961 . S
C1301 H1309 0.960 . S
C1302 C1300 1.381 . S
C1302 C1303 1.394 . S
C1302 H1310 0.930 . S
C1303 C1302 1.394 . S
C1303 C1304 1.383 . S
C1303 H1311 0.929 . S
C1304 C1303 1.383 . S
C1304 C1305 1.377 . S
C1305 H1289 0.930 . S
C1305 C1304 1.377 . S
C1305 C1306 1.379 . S
C1306 H1290 0.931 . S
C1306 C1300 1.383 . S
C1306 C1305 1.379 . S
H1307 C1301 0.959 . S
H1308 C1301 0.961 . S
H1309 C1301 0.960 . S
H1310 C1302 0.930 . S
H1311 C1303 0.929 . S
H1312 C1320 0.929 . S
H1313 C1322 0.930 . S
H1314 C1324 0.930 . S
H1315 C1327 0.929 . S
H1316 C1330 0.930 . S
H1317 C1332 0.960 . S
H1318 C1332 0.960 . S
H1319 C1332 0.960 . S
C1320 H1312 0.929 . S
C1320 C1321 1.377 . S
C1320 C1322 1.384 . S
C1321 C1320 1.377 . S
C1321 C1327 1.390 . S
C1322 H1313 0.930 . S
C1322 C1320 1.384 . S
C1322 C1323 1.372 . S
C1323 C1322 1.372 . S
C1323 C1324 1.400 . S
C1323 C1328 1.490 . S
C1324 H1314 0.930 . S
C1324 C1323 1.400 . S
C1324 C1327 1.386 . S
H1325 C1341 0.930 . S
H1326 C1342 0.931 . S
C1327 H1315 0.929 . S
C1327 C1321 1.390 . S
C1327 C1324 1.386 . S
C1328 C1323 1.490 . S
C1328 C1330 1.395 . S
C1328 C1331 1.403 . S
H1329 C1335 0.930 . S
C1330 H1316 0.930 . S
C1330 C1328 1.395 . S
C1330 C1333 1.403 . S
C1331 C1328 1.403 . S
C1331 C1332 1.524 . S
C1331 C1335 1.400 . S
C1332 H1317 0.960 . S
C1332 H1318 0.960 . S
C1332 H1319 0.960 . S
C1332 C1331 1.524 . S
C1333 C1330 1.403 . S
C1333 C1334 1.392 . S
C1333 C1337 1.495 . S
C1334 C1333 1.392 . S
C1334 C1335 1.385 . S
C1334 C1336 1.478 . S
C1335 H1329 0.930 . S
C1335 C1331 1.400 . S
C1335 C1334 1.385 . S
C1336 C1334 1.478 . S
C1336 C1338 1.381 . S
C1336 C1342 1.383 . S
C1337 C1333 1.495 . S
C1337 H1343 0.959 . S
C1337 H1344 0.961 . S
C1337 H1345 0.960 . S
C1338 C1336 1.381 . S
C1338 C1339 1.394 . S
C1338 H1346 0.930 . S
C1339 C1338 1.394 . S
C1339 C1340 1.383 . S
C1339 H1347 0.929 . S
C1340 C1339 1.383 . S
C1340 C1341 1.377 . S
C1341 H1325 0.930 . S
C1341 C1340 1.377 . S
C1341 C1342 1.379 . S
C1342 H1326 0.931 . S
C1342 C1336 1.383 . S
C1342 C1341 1.379 . S
H1343 C1337 0.959 . S
H1344 C1337 0.961 . S
H1345 C1337 0.960 . S
H1346 C1338 0.930 . S
H1347 C1339 0.929 . S
H1348 C1356 0.929 . S
H1349 C1358 0.930 . S
H1350 C1360 0.930 . S
H1351 C1363 0.929 . S
H1352 C1366 0.930 . S
H1353 C1368 0.960 . S
H1354 C1368 0.960 . S
H1355 C1368 0.960 . S
C1356 H1348 0.929 . S
C1356 C1357 1.377 . S
C1356 C1358 1.384 . S
C1357 C1356 1.377 . S
C1357 C1363 1.390 . S
C1358 H1349 0.930 . S
C1358 C1356 1.384 . S
C1358 C1359 1.372 . S
C1359 C1358 1.372 . S
C1359 C1360 1.400 . S
C1359 C1364 1.490 . S
C1360 H1350 0.930 . S
C1360 C1359 1.400 . S
C1360 C1363 1.386 . S
H1361 C1377 0.930 . S
H1362 C1378 0.931 . S
C1363 H1351 0.929 . S
C1363 C1357 1.390 . S
C1363 C1360 1.386 . S
C1364 C1359 1.490 . S
C1364 C1366 1.395 . S
C1364 C1367 1.403 . S
H1365 C1371 0.930 . S
C1366 H1352 0.930 . S
C1366 C1364 1.395 . S
C1366 C1369 1.403 . S
C1367 C1364 1.403 . S
C1367 C1368 1.524 . S
C1367 C1371 1.400 . S
C1368 H1353 0.960 . S
C1368 H1354 0.960 . S
C1368 H1355 0.960 . S
C1368 C1367 1.524 . S
C1369 C1366 1.403 . S
C1369 C1370 1.392 . S
C1369 C1373 1.495 . S
C1370 C1369 1.392 . S
C1370 C1371 1.385 . S
C1370 C1372 1.478 . S
C1371 H1365 0.930 . S
C1371 C1367 1.400 . S
C1371 C1370 1.385 . S
C1372 C1370 1.478 . S
C1372 C1374 1.381 . S
C1372 C1378 1.383 . S
C1373 C1369 1.495 . S
C1373 H1379 0.959 . S
C1373 H1380 0.961 . S
C1373 H1381 0.960 . S
C1374 C1372 1.381 . S
C1374 C1375 1.394 . S
C1374 H1382 0.930 . S
C1375 C1374 1.394 . S
C1375 C1376 1.383 . S
C1375 H1383 0.929 . S
C1376 C1375 1.383 . S
C1376 C1377 1.377 . S
C1377 H1361 0.930 . S
C1377 C1376 1.377 . S
C1377 C1378 1.379 . S
C1378 H1362 0.931 . S
C1378 C1372 1.383 . S
C1378 C1377 1.379 . S
H1379 C1373 0.959 . S
H1380 C1373 0.961 . S
H1381 C1373 0.960 . S
H1382 C1374 0.930 . S
H1383 C1375 0.929 . S
H1384 C1392 0.929 . S
H1385 C1394 0.930 . S
H1386 C1396 0.930 . S
H1387 C1399 0.929 . S
H1388 C1402 0.930 . S
H1389 C1404 0.960 . S
H1390 C1404 0.960 . S
H1391 C1404 0.960 . S
C1392 H1384 0.929 . S
C1392 C1393 1.377 . S
C1392 C1394 1.384 . S
C1393 C1392 1.377 . S
C1393 C1399 1.390 . S
C1394 H1385 0.930 . S
C1394 C1392 1.384 . S
C1394 C1395 1.372 . S
C1395 C1394 1.372 . S
C1395 C1396 1.400 . S
C1395 C1400 1.490 . S
C1396 H1386 0.930 . S
C1396 C1395 1.400 . S
C1396 C1399 1.386 . S
H1397 C1413 0.930 . S
H1398 C1414 0.931 . S
C1399 H1387 0.929 . S
C1399 C1393 1.390 . S
C1399 C1396 1.386 . S
C1400 C1395 1.490 . S
C1400 C1402 1.395 . S
C1400 C1403 1.403 . S
H1401 C1407 0.930 . S
C1402 H1388 0.930 . S
C1402 C1400 1.395 . S
C1402 C1405 1.403 . S
C1403 C1400 1.403 . S
C1403 C1404 1.524 . S
C1403 C1407 1.400 . S
C1404 H1389 0.960 . S
C1404 H1390 0.960 . S
C1404 H1391 0.960 . S
C1404 C1403 1.524 . S
C1405 C1402 1.403 . S
C1405 C1406 1.392 . S
C1405 C1409 1.495 . S
C1406 C1405 1.392 . S
C1406 C1407 1.385 . S
C1406 C1408 1.478 . S
C1407 H1401 0.930 . S
C1407 C1403 1.400 . S
C1407 C1406 1.385 . S
C1408 C1406 1.478 . S
C1408 C1410 1.381 . S
C1408 C1414 1.383 . S
C1409 C1405 1.495 . S
C1409 H1415 0.959 . S
C1409 H1416 0.961 . S
C1409 H1417 0.960 . S
C1410 C1408 1.381 . S
C1410 C1411 1.394 . S
C1410 H1418 0.930 . S
C1411 C1410 1.394 . S
C1411 C1412 1.383 . S
C1411 H1419 0.929 . S
C1412 C1411 1.383 . S
C1412 C1413 1.377 . S
C1413 H1397 0.930 . S
C1413 C1412 1.377 . S
C1413 C1414 1.379 . S
C1414 H1398 0.931 . S
C1414 C1408 1.383 . S
C1414 C1413 1.379 . S
H1415 C1409 0.959 . S
H1416 C1409 0.961 . S
H1417 C1409 0.960 . S
H1418 C1410 0.930 . S
H1419 C1411 0.929 . S
H1420 C1428 0.929 . S
H1421 C1430 0.930 . S
H1422 C1432 0.930 . S
H1423 C1435 0.929 . S
H1424 C1438 0.930 . S
H1425 C1440 0.960 . S
H1426 C1440 0.960 . S
H1427 C1440 0.960 . S
C1428 H1420 0.929 . S
C1428 C1429 1.377 . S
C1428 C1430 1.384 . S
C1429 C1428 1.377 . S
C1429 C1435 1.390 . S
C1430 H1421 0.930 . S
C1430 C1428 1.384 . S
C1430 C1431 1.372 . S
C1431 C1430 1.372 . S
C1431 C1432 1.400 . S
C1431 C1436 1.490 . S
C1432 H1422 0.930 . S
C1432 C1431 1.400 . S
C1432 C1435 1.386 . S
H1433 C1449 0.930 . S
H1434 C1450 0.931 . S
C1435 H1423 0.929 . S
C1435 C1429 1.390 . S
C1435 C1432 1.386 . S
C1436 C1431 1.490 . S
C1436 C1438 1.395 . S
C1436 C1439 1.403 . S
H1437 C1443 0.930 . S
C1438 H1424 0.930 . S
C1438 C1436 1.395 . S
C1438 C1441 1.403 . S
C1439 C1436 1.403 . S
C1439 C1440 1.524 . S
C1439 C1443 1.400 . S
C1440 H1425 0.960 . S
C1440 H1426 0.960 . S
C1440 H1427 0.960 . S
C1440 C1439 1.524 . S
C1441 C1438 1.403 . S
C1441 C1442 1.392 . S
C1441 C1445 1.495 . S
C1442 C1441 1.392 . S
C1442 C1443 1.385 . S
C1442 C1444 1.478 . S
C1443 H1437 0.930 . S
C1443 C1439 1.400 . S
C1443 C1442 1.385 . S
C1444 C1442 1.478 . S
C1444 C1446 1.381 . S
C1444 C1450 1.383 . S
C1445 C1441 1.495 . S
C1445 H1451 0.959 . S
C1445 H1452 0.961 . S
C1445 H1453 0.960 . S
C1446 C1444 1.381 . S
C1446 C1447 1.394 . S
C1446 H1454 0.930 . S
C1447 C1446 1.394 . S
C1447 C1448 1.383 . S
C1447 H1455 0.929 . S
C1448 C1447 1.383 . S
C1448 C1449 1.377 . S
C1449 H1433 0.930 . S
C1449 C1448 1.377 . S
C1449 C1450 1.379 . S
C1450 H1434 0.931 . S
C1450 C1444 1.383 . S
C1450 C1449 1.379 . S
H1451 C1445 0.959 . S
H1452 C1445 0.961 . S
H1453 C1445 0.960 . S
H1454 C1446 0.930 . S
H1455 C1447 0.929 . S
H1456 C1464 0.929 . S
H1457 C1466 0.930 . S
H1458 C1468 0.930 . S
H1459 C1471 0.929 . S
H1460 C1474 0.930 . S
H1461 C1476 0.960 . S
H1462 C1476 0.960 . S
H1463 C1476 0.960 . S
C1464 H1456 0.929 . S
C1464 C1465 1.377 . S
C1464 C1466 1.384 . S
C1465 C1464 1.377 . S
C1465 C1471 1.390 . S
C1466 H1457 0.930 . S
C1466 C1464 1.384 . S
C1466 C1467 1.372 . S
C1467 C1466 1.372 . S
C1467 C1468 1.400 . S
C1467 C1472 1.490 . S
C1468 H1458 0.930 . S
C1468 C1467 1.400 . S
C1468 C1471 1.386 . S
H1469 C1485 0.930 . S
H1470 C1486 0.931 . S
C1471 H1459 0.929 . S
C1471 C1465 1.390 . S
C1471 C1468 1.386 . S
C1472 C1467 1.490 . S
C1472 C1474 1.395 . S
C1472 C1475 1.403 . S
H1473 C1479 0.930 . S
C1474 H1460 0.930 . S
C1474 C1472 1.395 . S
C1474 C1477 1.403 . S
C1475 C1472 1.403 . S
C1475 C1476 1.524 . S
C1475 C1479 1.400 . S
C1476 H1461 0.960 . S
C1476 H1462 0.960 . S
C1476 H1463 0.960 . S
C1476 C1475 1.524 . S
C1477 C1474 1.403 . S
C1477 C1478 1.392 . S
C1477 C1481 1.495 . S
C1478 C1477 1.392 . S
C1478 C1479 1.385 . S
C1478 C1480 1.478 . S
C1479 H1473 0.930 . S
C1479 C1475 1.400 . S
C1479 C1478 1.385 . S
C1480 C1478 1.478 . S
C1480 C1482 1.381 . S
C1480 C1486 1.383 . S
C1481 C1477 1.495 . S
C1481 H1487 0.959 . S
C1481 H1488 0.961 . S
C1481 H1489 0.960 . S
C1482 C1480 1.381 . S
C1482 C1483 1.394 . S
C1482 H1490 0.930 . S
C1483 C1482 1.394 . S
C1483 C1484 1.383 . S
C1483 H1491 0.929 . S
C1484 C1483 1.383 . S
C1484 C1485 1.377 . S
C1485 H1469 0.930 . S
C1485 C1484 1.377 . S
C1485 C1486 1.379 . S
C1486 H1470 0.931 . S
C1486 C1480 1.383 . S
C1486 C1485 1.379 . S
H1487 C1481 0.959 . S
H1488 C1481 0.961 . S
H1489 C1481 0.960 . S
H1490 C1482 0.930 . S
H1491 C1483 0.929 . S
H1492 C1500 0.929 . S
H1493 C1502 0.930 . S
H1494 C1504 0.930 . S
H1495 C1507 0.929 . S
H1496 C1510 0.930 . S
H1497 C1512 0.960 . S
H1498 C1512 0.960 . S
H1499 C1512 0.960 . S
C1500 H1492 0.929 . S
C1500 C1501 1.377 . S
C1500 C1502 1.384 . S
C1501 C1500 1.377 . S
C1501 C1507 1.390 . S
C1502 H1493 0.930 . S
C1502 C1500 1.384 . S
C1502 C1503 1.372 . S
C1503 C1502 1.372 . S
C1503 C1504 1.400 . S
C1503 C1508 1.490 . S
C1504 H1494 0.930 . S
C1504 C1503 1.400 . S
C1504 C1507 1.386 . S
H1505 C1521 0.930 . S
H1506 C1522 0.931 . S
C1507 H1495 0.929 . S
C1507 C1501 1.390 . S
C1507 C1504 1.386 . S
C1508 C1503 1.490 . S
C1508 C1510 1.395 . S
C1508 C1511 1.403 . S
H1509 C1515 0.930 . S
C1510 H1496 0.930 . S
C1510 C1508 1.395 . S
C1510 C1513 1.403 . S
C1511 C1508 1.403 . S
C1511 C1512 1.524 . S
C1511 C1515 1.400 . S
C1512 H1497 0.960 . S
C1512 H1498 0.960 . S
C1512 H1499 0.960 . S
C1512 C1511 1.524 . S
C1513 C1510 1.403 . S
C1513 C1514 1.392 . S
C1513 C1517 1.495 . S
C1514 C1513 1.392 . S
C1514 C1515 1.385 . S
C1514 C1516 1.478 . S
C1515 H1509 0.930 . S
C1515 C1511 1.400 . S
C1515 C1514 1.385 . S
C1516 C1514 1.478 . S
C1516 C1518 1.381 . S
C1516 C1522 1.383 . S
C1517 C1513 1.495 . S
C1517 H1523 0.959 . S
C1517 H1524 0.961 . S
C1517 H1525 0.960 . S
C1518 C1516 1.381 . S
C1518 C1519 1.394 . S
C1518 H1526 0.930 . S
C1519 C1518 1.394 . S
C1519 C1520 1.383 . S
C1519 H1527 0.929 . S
C1520 C1519 1.383 . S
C1520 C1521 1.377 . S
C1521 H1505 0.930 . S
C1521 C1520 1.377 . S
C1521 C1522 1.379 . S
C1522 H1506 0.931 . S
C1522 C1516 1.383 . S
C1522 C1521 1.379 . S
H1523 C1517 0.959 . S
H1524 C1517 0.961 . S
H1525 C1517 0.960 . S
H1526 C1518 0.930 . S
H1527 C1519 0.929 . S
H1528 C1536 0.929 . S
H1529 C1538 0.930 . S
H1530 C1540 0.930 . S
H1531 C1543 0.929 . S
H1532 C1546 0.930 . S
H1533 C1548 0.960 . S
H1534 C1548 0.960 . S
H1535 C1548 0.960 . S
C1536 H1528 0.929 . S
C1536 C1537 1.377 . S
C1536 C1538 1.384 . S
C1537 C1536 1.377 . S
C1537 C1543 1.390 . S
C1538 H1529 0.930 . S
C1538 C1536 1.384 . S
C1538 C1539 1.372 . S
C1539 C1538 1.372 . S
C1539 C1540 1.400 . S
C1539 C1544 1.490 . S
C1540 H1530 0.930 . S
C1540 C1539 1.400 . S
C1540 C1543 1.386 . S
H1541 C1557 0.930 . S
H1542 C1558 0.931 . S
C1543 H1531 0.929 . S
C1543 C1537 1.390 . S
C1543 C1540 1.386 . S
C1544 C1539 1.490 . S
C1544 C1546 1.395 . S
C1544 C1547 1.403 . S
H1545 C1551 0.930 . S
C1546 H1532 0.930 . S
C1546 C1544 1.395 . S
C1546 C1549 1.403 . S
C1547 C1544 1.403 . S
C1547 C1548 1.524 . S
C1547 C1551 1.400 . S
C1548 H1533 0.960 . S
C1548 H1534 0.960 . S
C1548 H1535 0.960 . S
C1548 C1547 1.524 . S
C1549 C1546 1.403 . S
C1549 C1550 1.392 . S
C1549 C1553 1.495 . S
C1550 C1549 1.392 . S
C1550 C1551 1.385 . S
C1550 C1552 1.478 . S
C1551 H1545 0.930 . S
C1551 C1547 1.400 . S
C1551 C1550 1.385 . S
C1552 C1550 1.478 . S
C1552 C1554 1.381 . S
C1552 C1558 1.383 . S
C1553 C1549 1.495 . S
C1553 H1559 0.959 . S
C1553 H1560 0.961 . S
C1553 H1561 0.960 . S
C1554 C1552 1.381 . S
C1554 C1555 1.394 . S
C1554 H1562 0.930 . S
C1555 C1554 1.394 . S
C1555 C1556 1.383 . S
C1555 H1563 0.929 . S
C1556 C1555 1.383 . S
C1556 C1557 1.377 . S
C1557 H1541 0.930 . S
C1557 C1556 1.377 . S
C1557 C1558 1.379 . S
C1558 H1542 0.931 . S
C1558 C1552 1.383 . S
C1558 C1557 1.379 . S
H1559 C1553 0.959 . S
H1560 C1553 0.961 . S
H1561 C1553 0.960 . S
H1562 C1554 0.930 . S
H1563 C1555 0.929 . S
H1564 C1572 0.929 . S
H1565 C1574 0.930 . S
H1566 C1576 0.930 . S
H1567 C1579 0.929 . S
H1568 C1582 0.930 . S
H1569 C1584 0.960 . S
H1570 C1584 0.960 . S
H1571 C1584 0.960 . S
C1572 H1564 0.929 . S
C1572 C1573 1.377 . S
C1572 C1574 1.384 . S
C1573 C1572 1.377 . S
C1573 C1579 1.390 . S
C1574 H1565 0.930 . S
C1574 C1572 1.384 . S
C1574 C1575 1.372 . S
C1575 C1574 1.372 . S
C1575 C1576 1.400 . S
C1575 C1580 1.490 . S
C1576 H1566 0.930 . S
C1576 C1575 1.400 . S
C1576 C1579 1.386 . S
H1577 C1593 0.930 . S
H1578 C1594 0.931 . S
C1579 H1567 0.929 . S
C1579 C1573 1.390 . S
C1579 C1576 1.386 . S
C1580 C1575 1.490 . S
C1580 C1582 1.395 . S
C1580 C1583 1.403 . S
H1581 C1587 0.930 . S
C1582 H1568 0.930 . S
C1582 C1580 1.395 . S
C1582 C1585 1.403 . S
C1583 C1580 1.403 . S
C1583 C1584 1.524 . S
C1583 C1587 1.400 . S
C1584 H1569 0.960 . S
C1584 H1570 0.960 . S
C1584 H1571 0.960 . S
C1584 C1583 1.524 . S
C1585 C1582 1.403 . S
C1585 C1586 1.392 . S
C1585 C1589 1.495 . S
C1586 C1585 1.392 . S
C1586 C1587 1.385 . S
C1586 C1588 1.478 . S
C1587 H1581 0.930 . S
C1587 C1583 1.400 . S
C1587 C1586 1.385 . S
C1588 C1586 1.478 . S
C1588 C1590 1.381 . S
C1588 C1594 1.383 . S
C1589 C1585 1.495 . S
C1589 H1595 0.959 . S
C1589 H1596 0.961 . S
C1589 H1597 0.960 . S
C1590 C1588 1.381 . S
C1590 C1591 1.394 . S
C1590 H1598 0.930 . S
C1591 C1590 1.394 . S
C1591 C1592 1.383 . S
C1591 H1599 0.929 . S
C1592 C1591 1.383 . S
C1592 C1593 1.377 . S
C1593 H1577 0.930 . S
C1593 C1592 1.377 . S
C1593 C1594 1.379 . S
C1594 H1578 0.931 . S
C1594 C1588 1.383 . S
C1594 C1593 1.379 . S
H1595 C1589 0.959 . S
H1596 C1589 0.961 . S
H1597 C1589 0.960 . S
H1598 C1590 0.930 . S
H1599 C1591 0.929 . S
H1600 C1608 0.929 . S
H1601 C1610 0.930 . S
H1602 C1612 0.930 . S
H1603 C1615 0.929 . S
H1604 C1618 0.930 . S
H1605 C1620 0.960 . S
H1606 C1620 0.960 . S
H1607 C1620 0.960 . S
C1608 H1600 0.929 . S
C1608 C1609 1.377 . S
C1608 C1610 1.384 . S
C1609 C1608 1.377 . S
C1609 C1615 1.390 . S
C1610 H1601 0.930 . S
C1610 C1608 1.384 . S
C1610 C1611 1.372 . S
C1611 C1610 1.372 . S
C1611 C1612 1.400 . S
C1611 C1616 1.490 . S
C1612 H1602 0.930 . S
C1612 C1611 1.400 . S
C1612 C1615 1.386 . S
H1613 C1629 0.930 . S
H1614 C1630 0.931 . S
C1615 H1603 0.929 . S
C1615 C1609 1.390 . S
C1615 C1612 1.386 . S
C1616 C1611 1.490 . S
C1616 C1618 1.395 . S
C1616 C1619 1.403 . S
H1617 C1623 0.930 . S
C1618 H1604 0.930 . S
C1618 C1616 1.395 . S
C1618 C1621 1.403 . S
C1619 C1616 1.403 . S
C1619 C1620 1.524 . S
C1619 C1623 1.400 . S
C1620 H1605 0.960 . S
C1620 H1606 0.960 . S
C1620 H1607 0.960 . S
C1620 C1619 1.524 . S
C1621 C1618 1.403 . S
C1621 C1622 1.392 . S
C1621 C1625 1.495 . S
C1622 C1621 1.392 . S
C1622 C1623 1.385 . S
C1622 C1624 1.478 . S
C1623 H1617 0.930 . S
C1623 C1619 1.400 . S
C1623 C1622 1.385 . S
C1624 C1622 1.478 . S
C1624 C1626 1.381 . S
C1624 C1630 1.383 . S
C1625 C1621 1.495 . S
C1625 H1631 0.959 . S
C1625 H1632 0.961 . S
C1625 H1633 0.960 . S
C1626 C1624 1.381 . S
C1626 C1627 1.394 . S
C1626 H1634 0.930 . S
C1627 C1626 1.394 . S
C1627 C1628 1.383 . S
C1627 H1635 0.929 . S
C1628 C1627 1.383 . S
C1628 C1629 1.377 . S
C1629 H1613 0.930 . S
C1629 C1628 1.377 . S
C1629 C1630 1.379 . S
C1630 H1614 0.931 . S
C1630 C1624 1.383 . S
C1630 C1629 1.379 . S
H1631 C1625 0.959 . S
H1632 C1625 0.961 . S
H1633 C1625 0.960 . S
H1634 C1626 0.930 . S
H1635 C1627 0.929 . S
H1636 C1644 0.929 . S
H1637 C1646 0.930 . S
H1638 C1648 0.930 . S
H1639 C1651 0.929 . S
H1640 C1654 0.930 . S
H1641 C1656 0.960 . S
H1642 C1656 0.960 . S
H1643 C1656 0.960 . S
C1644 H1636 0.929 . S
C1644 C1645 1.377 . S
C1644 C1646 1.384 . S
C1645 C1644 1.377 . S
C1645 C1651 1.390 . S
C1646 H1637 0.930 . S
C1646 C1644 1.384 . S
C1646 C1647 1.372 . S
C1647 C1646 1.372 . S
C1647 C1648 1.400 . S
C1647 C1652 1.490 . S
C1648 H1638 0.930 . S
C1648 C1647 1.400 . S
C1648 C1651 1.386 . S
H1649 C1665 0.930 . S
H1650 C1666 0.931 . S
C1651 H1639 0.929 . S
C1651 C1645 1.390 . S
C1651 C1648 1.386 . S
C1652 C1647 1.490 . S
C1652 C1654 1.395 . S
C1652 C1655 1.403 . S
H1653 C1659 0.930 . S
C1654 H1640 0.930 . S
C1654 C1652 1.395 . S
C1654 C1657 1.403 . S
C1655 C1652 1.403 . S
C1655 C1656 1.524 . S
C1655 C1659 1.400 . S
C1656 H1641 0.960 . S
C1656 H1642 0.960 . S
C1656 H1643 0.960 . S
C1656 C1655 1.524 . S
C1657 C1654 1.403 . S
C1657 C1658 1.392 . S
C1657 C1661 1.495 . S
C1658 C1657 1.392 . S
C1658 C1659 1.385 . S
C1658 C1660 1.478 . S
C1659 H1653 0.930 . S
C1659 C1655 1.400 . S
C1659 C1658 1.385 . S
C1660 C1658 1.478 . S
C1660 C1662 1.381 . S
C1660 C1666 1.383 . S
C1661 C1657 1.495 . S
C1661 H1667 0.959 . S
C1661 H1668 0.961 . S
C1661 H1669 0.960 . S
C1662 C1660 1.381 . S
C1662 C1663 1.394 . S
C1662 H1670 0.930 . S
C1663 C1662 1.394 . S
C1663 C1664 1.383 . S
C1663 H1671 0.929 . S
C1664 C1663 1.383 . S
C1664 C1665 1.377 . S
C1665 H1649 0.930 . S
C1665 C1664 1.377 . S
C1665 C1666 1.379 . S
C1666 H1650 0.931 . S
C1666 C1660 1.383 . S
C1666 C1665 1.379 . S
H1667 C1661 0.959 . S
H1668 C1661 0.961 . S
H1669 C1661 0.960 . S
H1670 C1662 0.930 . S
H1671 C1663 0.929 . S
H1672 C1680 0.929 . S
H1673 C1682 0.930 . S
H1674 C1684 0.930 . S
H1675 C1687 0.929 . S
H1676 C1690 0.930 . S
H1677 C1692 0.960 . S
H1678 C1692 0.960 . S
H1679 C1692 0.960 . S
C1680 H1672 0.929 . S
C1680 C1681 1.377 . S
C1680 C1682 1.384 . S
C1681 C1680 1.377 . S
C1681 C1687 1.390 . S
C1682 H1673 0.930 . S
C1682 C1680 1.384 . S
C1682 C1683 1.372 . S
C1683 C1682 1.372 . S
C1683 C1684 1.400 . S
C1683 C1688 1.490 . S
C1684 H1674 0.930 . S
C1684 C1683 1.400 . S
C1684 C1687 1.386 . S
H1685 C1701 0.930 . S
H1686 C1702 0.931 . S
C1687 H1675 0.929 . S
C1687 C1681 1.390 . S
C1687 C1684 1.386 . S
C1688 C1683 1.490 . S
C1688 C1690 1.395 . S
C1688 C1691 1.403 . S
H1689 C1695 0.930 . S
C1690 H1676 0.930 . S
C1690 C1688 1.395 . S
C1690 C1693 1.403 . S
C1691 C1688 1.403 . S
C1691 C1692 1.524 . S
C1691 C1695 1.400 . S
C1692 H1677 0.960 . S
C1692 H1678 0.960 . S
C1692 H1679 0.960 . S
C1692 C1691 1.524 . S
C1693 C1690 1.403 . S
C1693 C1694 1.392 . S
C1693 C1697 1.495 . S
C1694 C1693 1.392 . S
C1694 C1695 1.385 . S
C1694 C1696 1.478 . S
C1695 H1689 0.930 . S
C1695 C1691 1.400 . S
C1695 C1694 1.385 . S
C1696 C1694 1.478 . S
C1696 C1698 1.381 . S
C1696 C1702 1.383 . S
C1697 C1693 1.495 . S
C1697 H1703 0.959 . S
C1697 H1704 0.961 . S
C1697 H1705 0.960 . S
C1698 C1696 1.381 . S
C1698 C1699 1.394 . S
C1698 H1706 0.930 . S
C1699 C1698 1.394 . S
C1699 C1700 1.383 . S
C1699 H1707 0.929 . S
C1700 C1699 1.383 . S
C1700 C1701 1.377 . S
C1701 H1685 0.930 . S
C1701 C1700 1.377 . S
C1701 C1702 1.379 . S
C1702 H1686 0.931 . S
C1702 C1696 1.383 . S
C1702 C1701 1.379 . S
H1703 C1697 0.959 . S
H1704 C1697 0.961 . S
H1705 C1697 0.960 . S
H1706 C1698 0.930 . S
H1707 C1699 0.929 . S
H1708 C1716 0.929 . S
H1709 C1718 0.930 . S
H1710 C1720 0.930 . S
H1711 C1723 0.929 . S
H1712 C1726 0.930 . S
H1713 C1728 0.960 . S
H1714 C1728 0.960 . S
H1715 C1728 0.960 . S
C1716 H1708 0.929 . S
C1716 C1717 1.377 . S
C1716 C1718 1.384 . S
C1717 C1716 1.377 . S
C1717 C1723 1.390 . S
C1718 H1709 0.930 . S
C1718 C1716 1.384 . S
C1718 C1719 1.372 . S
C1719 C1718 1.372 . S
C1719 C1720 1.400 . S
C1719 C1724 1.490 . S
C1720 H1710 0.930 . S
C1720 C1719 1.400 . S
C1720 C1723 1.386 . S
H1721 C1737 0.930 . S
H1722 C1738 0.931 . S
C1723 H1711 0.929 . S
C1723 C1717 1.390 . S
C1723 C1720 1.386 . S
C1724 C1719 1.490 . S
C1724 C1726 1.395 . S
C1724 C1727 1.403 . S
H1725 C1731 0.930 . S
C1726 H1712 0.930 . S
C1726 C1724 1.395 . S
C1726 C1729 1.403 . S
C1727 C1724 1.403 . S
C1727 C1728 1.524 . S
C1727 C1731 1.400 . S
C1728 H1713 0.960 . S
C1728 H1714 0.960 . S
C1728 H1715 0.960 . S
C1728 C1727 1.524 . S
C1729 C1726 1.403 . S
C1729 C1730 1.392 . S
C1729 C1733 1.495 . S
C1730 C1729 1.392 . S
C1730 C1731 1.385 . S
C1730 C1732 1.478 . S
C1731 H1725 0.930 . S
C1731 C1727 1.400 . S
C1731 C1730 1.385 . S
C1732 C1730 1.478 . S
C1732 C1734 1.381 . S
C1732 C1738 1.383 . S
C1733 C1729 1.495 . S
C1733 H1739 0.959 . S
C1733 H1740 0.961 . S
C1733 H1741 0.960 . S
C1734 C1732 1.381 . S
C1734 C1735 1.394 . S
C1734 H1742 0.930 . S
C1735 C1734 1.394 . S
C1735 C1736 1.383 . S
C1735 H1743 0.929 . S
C1736 C1735 1.383 . S
C1736 C1737 1.377 . S
C1737 H1721 0.930 . S
C1737 C1736 1.377 . S
C1737 C1738 1.379 . S
C1738 H1722 0.931 . S
C1738 C1732 1.383 . S
C1738 C1737 1.379 . S
H1739 C1733 0.959 . S
H1740 C1733 0.961 . S
H1741 C1733 0.960 . S
H1742 C1734 0.930 . S
H1743 C1735 0.929 . S
H1744 C1752 0.929 . S
H1745 C1754 0.930 . S
H1746 C1756 0.930 . S
H1747 C1759 0.929 . S
H1748 C1762 0.930 . S
H1749 C1764 0.960 . S
H1750 C1764 0.960 . S
H1751 C1764 0.960 . S
C1752 H1744 0.929 . S
C1752 C1753 1.377 . S
C1752 C1754 1.384 . S
C1753 C1752 1.377 . S
C1753 C1759 1.390 . S
C1754 H1745 0.930 . S
C1754 C1752 1.384 . S
C1754 C1755 1.372 . S
C1755 C1754 1.372 . S
C1755 C1756 1.400 . S
C1755 C1760 1.490 . S
C1756 H1746 0.930 . S
C1756 C1755 1.400 . S
C1756 C1759 1.386 . S
H1757 C1773 0.930 . S
H1758 C1774 0.931 . S
C1759 H1747 0.929 . S
C1759 C1753 1.390 . S
C1759 C1756 1.386 . S
C1760 C1755 1.490 . S
C1760 C1762 1.395 . S
C1760 C1763 1.403 . S
H1761 C1767 0.930 . S
C1762 H1748 0.930 . S
C1762 C1760 1.395 . S
C1762 C1765 1.403 . S
C1763 C1760 1.403 . S
C1763 C1764 1.524 . S
C1763 C1767 1.400 . S
C1764 H1749 0.960 . S
C1764 H1750 0.960 . S
C1764 H1751 0.960 . S
C1764 C1763 1.524 . S
C1765 C1762 1.403 . S
C1765 C1766 1.392 . S
C1765 C1769 1.495 . S
C1766 C1765 1.392 . S
C1766 C1767 1.385 . S
C1766 C1768 1.478 . S
C1767 H1761 0.930 . S
C1767 C1763 1.400 . S
C1767 C1766 1.385 . S
C1768 C1766 1.478 . S
C1768 C1770 1.381 . S
C1768 C1774 1.383 . S
C1769 C1765 1.495 . S
C1769 H1775 0.959 . S
C1769 H1776 0.961 . S
C1769 H1777 0.960 . S
C1770 C1768 1.381 . S
C1770 C1771 1.394 . S
C1770 H1778 0.930 . S
C1771 C1770 1.394 . S
C1771 C1772 1.383 . S
C1771 H1779 0.929 . S
C1772 C1771 1.383 . S
C1772 C1773 1.377 . S
C1773 H1757 0.930 . S
C1773 C1772 1.377 . S
C1773 C1774 1.379 . S
C1774 H1758 0.931 . S
C1774 C1768 1.383 . S
C1774 C1773 1.379 . S
H1775 C1769 0.959 . S
H1776 C1769 0.961 . S
H1777 C1769 0.960 . S
H1778 C1770 0.930 . S
H1779 C1771 0.929 . S
H1780 C1788 0.929 . S
H1781 C1790 0.930 . S
H1782 C1792 0.930 . S
H1783 C1795 0.929 . S
H1784 C1798 0.930 . S
H1785 C1800 0.960 . S
H1786 C1800 0.960 . S
H1787 C1800 0.960 . S
C1788 H1780 0.929 . S
C1788 C1789 1.377 . S
C1788 C1790 1.384 . S
C1789 C1788 1.377 . S
C1789 C1795 1.390 . S
C1790 H1781 0.930 . S
C1790 C1788 1.384 . S
C1790 C1791 1.372 . S
C1791 C1790 1.372 . S
C1791 C1792 1.400 . S
C1791 C1796 1.490 . S
C1792 H1782 0.930 . S
C1792 C1791 1.400 . S
C1792 C1795 1.386 . S
H1793 C1809 0.930 . S
H1794 C1810 0.931 . S
C1795 H1783 0.929 . S
C1795 C1789 1.390 . S
C1795 C1792 1.386 . S
C1796 C1791 1.490 . S
C1796 C1798 1.395 . S
C1796 C1799 1.403 . S
H1797 C1803 0.930 . S
C1798 H1784 0.930 . S
C1798 C1796 1.395 . S
C1798 C1801 1.403 . S
C1799 C1796 1.403 . S
C1799 C1800 1.524 . S
C1799 C1803 1.400 . S
C1800 H1785 0.960 . S
C1800 H1786 0.960 . S
C1800 H1787 0.960 . S
C1800 C1799 1.524 . S
C1801 C1798 1.403 . S
C1801 C1802 1.392 . S
C1801 C1805 1.495 . S
C1802 C1801 1.392 . S
C1802 C1803 1.385 . S
C1802 C1804 1.478 . S
C1803 H1797 0.930 . S
C1803 C1799 1.400 . S
C1803 C1802 1.385 . S
C1804 C1802 1.478 . S
C1804 C1806 1.381 . S
C1804 C1810 1.383 . S
C1805 C1801 1.495 . S
C1805 H1811 0.959 . S
C1805 H1812 0.961 . S
C1805 H1813 0.960 . S
C1806 C1804 1.381 . S
C1806 C1807 1.394 . S
C1806 H1814 0.930 . S
C1807 C1806 1.394 . S
C1807 C1808 1.383 . S
C1807 H1815 0.929 . S
C1808 C1807 1.383 . S
C1808 C1809 1.377 . S
C1809 H1793 0.930 . S
C1809 C1808 1.377 . S
C1809 C1810 1.379 . S
C1810 H1794 0.931 . S
C1810 C1804 1.383 . S
C1810 C1809 1.379 . S
H1811 C1805 0.959 . S
H1812 C1805 0.961 . S
H1813 C1805 0.960 . S
H1814 C1806 0.930 . S
H1815 C1807 0.929 . S
H1816 C1824 0.929 . S
H1817 C1826 0.930 . S
H1818 C1828 0.930 . S
H1819 C1831 0.929 . S
H1820 C1834 0.930 . S
H1821 C1836 0.960 . S
H1822 C1836 0.960 . S
H1823 C1836 0.960 . S
C1824 H1816 0.929 . S
C1824 C1825 1.377 . S
C1824 C1826 1.384 . S
C1825 C1824 1.377 . S
C1825 C1831 1.390 . S
C1826 H1817 0.930 . S
C1826 C1824 1.384 . S
C1826 C1827 1.372 . S
C1827 C1826 1.372 . S
C1827 C1828 1.400 . S
C1827 C1832 1.490 . S
C1828 H1818 0.930 . S
C1828 C1827 1.400 . S
C1828 C1831 1.386 . S
H1829 C1845 0.930 . S
H1830 C1846 0.931 . S
C1831 H1819 0.929 . S
C1831 C1825 1.390 . S
C1831 C1828 1.386 . S
C1832 C1827 1.490 . S
C1832 C1834 1.395 . S
C1832 C1835 1.403 . S
H1833 C1839 0.930 . S
C1834 H1820 0.930 . S
C1834 C1832 1.395 . S
C1834 C1837 1.403 . S
C1835 C1832 1.403 . S
C1835 C1836 1.524 . S
C1835 C1839 1.400 . S
C1836 H1821 0.960 . S
C1836 H1822 0.960 . S
C1836 H1823 0.960 . S
C1836 C1835 1.524 . S
C1837 C1834 1.403 . S
C1837 C1838 1.392 . S
C1837 C1841 1.495 . S
C1838 C1837 1.392 . S
C1838 C1839 1.385 . S
C1838 C1840 1.478 . S
C1839 H1833 0.930 . S
C1839 C1835 1.400 . S
C1839 C1838 1.385 . S
C1840 C1838 1.478 . S
C1840 C1842 1.381 . S
C1840 C1846 1.383 . S
C1841 C1837 1.495 . S
C1841 H1847 0.959 . S
C1841 H1848 0.961 . S
C1841 H1849 0.960 . S
C1842 C1840 1.381 . S
C1842 C1843 1.394 . S
C1842 H1850 0.930 . S
C1843 C1842 1.394 . S
C1843 C1844 1.383 . S
C1843 H1851 0.929 . S
C1844 C1843 1.383 . S
C1844 C1845 1.377 . S
C1845 H1829 0.930 . S
C1845 C1844 1.377 . S
C1845 C1846 1.379 . S
C1846 H1830 0.931 . S
C1846 C1840 1.383 . S
C1846 C1845 1.379 . S
H1847 C1841 0.959 . S
H1848 C1841 0.961 . S
H1849 C1841 0.960 . S
H1850 C1842 0.930 . S
H1851 C1843 0.929 . S
H1852 C1860 0.929 . S
H1853 C1862 0.930 . S
H1854 C1864 0.930 . S
H1855 C1867 0.929 . S
H1856 C1870 0.930 . S
H1857 C1872 0.960 . S
H1858 C1872 0.960 . S
H1859 C1872 0.960 . S
C1860 H1852 0.929 . S
C1860 C1861 1.377 . S
C1860 C1862 1.384 . S
C1861 C1860 1.377 . S
C1861 C1867 1.390 . S
C1862 H1853 0.930 . S
C1862 C1860 1.384 . S
C1862 C1863 1.372 . S
C1863 C1862 1.372 . S
C1863 C1864 1.400 . S
C1863 C1868 1.490 . S
C1864 H1854 0.930 . S
C1864 C1863 1.400 . S
C1864 C1867 1.386 . S
H1865 C1881 0.930 . S
H1866 C1882 0.931 . S
C1867 H1855 0.929 . S
C1867 C1861 1.390 . S
C1867 C1864 1.386 . S
C1868 C1863 1.490 . S
C1868 C1870 1.395 . S
C1868 C1871 1.403 . S
H1869 C1875 0.930 . S
C1870 H1856 0.930 . S
C1870 C1868 1.395 . S
C1870 C1873 1.403 . S
C1871 C1868 1.403 . S
C1871 C1872 1.524 . S
C1871 C1875 1.400 . S
C1872 H1857 0.960 . S
C1872 H1858 0.960 . S
C1872 H1859 0.960 . S
C1872 C1871 1.524 . S
C1873 C1870 1.403 . S
C1873 C1874 1.392 . S
C1873 C1877 1.495 . S
C1874 C1873 1.392 . S
C1874 C1875 1.385 . S
C1874 C1876 1.478 . S
C1875 H1869 0.930 . S
C1875 C1871 1.400 . S
C1875 C1874 1.385 . S
C1876 C1874 1.478 . S
C1876 C1878 1.381 . S
C1876 C1882 1.383 . S
C1877 C1873 1.495 . S
C1877 H1883 0.959 . S
C1877 H1884 0.961 . S
C1877 H1885 0.960 . S
C1878 C1876 1.381 . S
C1878 C1879 1.394 . S
C1878 H1886 0.930 . S
C1879 C1878 1.394 . S
C1879 C1880 1.383 . S
C1879 H1887 0.929 . S
C1880 C1879 1.383 . S
C1880 C1881 1.377 . S
C1881 H1865 0.930 . S
C1881 C1880 1.377 . S
C1881 C1882 1.379 . S
C1882 H1866 0.931 . S
C1882 C1876 1.383 . S
C1882 C1881 1.379 . S
H1883 C1877 0.959 . S
H1884 C1877 0.961 . S
H1885 C1877 0.960 . S
H1886 C1878 0.930 . S
H1887 C1879 0.929 . S
H1888 C1896 0.929 . S
H1889 C1898 0.930 . S
H1890 C1900 0.930 . S
H1891 C1903 0.929 . S
H1892 C1906 0.930 . S
H1893 C1908 0.960 . S
H1894 C1908 0.960 . S
H1895 C1908 0.960 . S
C1896 H1888 0.929 . S
C1896 C1897 1.377 . S
C1896 C1898 1.384 . S
C1897 C1896 1.377 . S
C1897 C1903 1.390 . S
C1898 H1889 0.930 . S
C1898 C1896 1.384 . S
C1898 C1899 1.372 . S
C1899 C1898 1.372 . S
C1899 C1900 1.400 . S
C1899 C1904 1.490 . S
C1900 H1890 0.930 . S
C1900 C1899 1.400 . S
C1900 C1903 1.386 . S
H1901 C1917 0.930 . S
H1902 C1918 0.931 . S
C1903 H1891 0.929 . S
C1903 C1897 1.390 . S
C1903 C1900 1.386 . S
C1904 C1899 1.490 . S
C1904 C1906 1.395 . S
C1904 C1907 1.403 . S
H1905 C1911 0.930 . S
C1906 H1892 0.930 . S
C1906 C1904 1.395 . S
C1906 C1909 1.403 1_554 S
C1907 C1904 1.403 . S
C1907 C1908 1.524 . S
C1907 C1911 1.400 1_554 S
C1908 H1893 0.960 . S
C1908 H1894 0.960 . S
C1908 H1895 0.960 . S
C1908 C1907 1.524 . S
C1909 C1906 1.403 1_556 S
C1909 C1910 1.392 . S
C1909 C1913 1.495 . S
C1910 C1909 1.392 . S
C1910 C1911 1.385 . S
C1910 C1912 1.478 . S
C1911 H1905 0.930 . S
C1911 C1907 1.400 1_556 S
C1911 C1910 1.385 . S
C1912 C1910 1.478 . S
C1912 C1914 1.381 . S
C1912 C1918 1.383 . S
C1913 C1909 1.495 . S
C1913 H1919 0.959 . S
C1913 H1920 0.961 . S
C1913 H1921 0.960 . S
C1914 C1912 1.381 . S
C1914 C1915 1.394 . S
C1914 H1922 0.930 . S
C1915 C1914 1.394 . S
C1915 C1916 1.383 . S
C1915 H1923 0.929 . S
C1916 C1915 1.383 . S
C1916 C1917 1.377 . S
C1917 H1901 0.930 . S
C1917 C1916 1.377 . S
C1917 C1918 1.379 . S
C1918 H1902 0.931 . S
C1918 C1912 1.383 . S
C1918 C1917 1.379 . S
H1919 C1913 0.959 . S
H1920 C1913 0.961 . S
H1921 C1913 0.960 . S
H1922 C1914 0.930 . S
H1923 C1915 0.929 . S
H1924 C1932 0.929 . S
H1925 C1934 0.930 . S
H1926 C1936 0.930 . S
H1927 C1939 0.929 . S
H1928 C1942 0.930 1_556 S
H1929 C1944 0.976 . S
H1930 C1944 0.948 1_556 S
H1931 C1944 0.948 1_556 S
C1932 H1924 0.929 . S
C1932 C1933 1.377 . S
C1932 C1934 1.384 . S
C1933 C1932 1.377 . S
C1933 C1939 1.390 . S
C1934 H1925 0.930 . S
C1934 C1932 1.384 . S
C1934 C1935 1.372 . S
C1935 C1934 1.372 . S
C1935 C1936 1.400 . S
C1935 C1940 1.490 . S
C1936 H1926 0.930 . S
C1936 C1935 1.400 . S
C1936 C1939 1.386 . S
H1937 C1953 0.930 . S
H1938 C1954 0.931 . S
C1939 H1927 0.929 . S
C1939 C1933 1.390 . S
C1939 C1936 1.386 . S
C1940 C1935 1.490 . S
C1940 C1942 1.395 1_556 S
C1940 C1943 1.403 1_556 S
H1941 C1947 0.930 . S
C1942 H1928 0.930 1_554 S
C1942 C1940 1.395 1_554 S
C1942 C1945 1.403 . S
C1943 C1940 1.403 1_554 S
C1943 C1944 1.532 . S
C1943 C1947 1.400 . S
C1944 H1929 0.976 . S
C1944 H1930 0.948 1_554 S
C1944 H1931 0.948 1_554 S
C1944 C1943 1.532 . S
C1945 C1942 1.403 . S
C1945 C1946 1.392 . S
C1945 C1949 1.495 . S
C1946 C1945 1.392 . S
C1946 C1947 1.385 . S
C1946 C1948 1.478 . S
C1947 H1941 0.930 . S
C1947 C1943 1.400 . S
C1947 C1946 1.385 . S
C1948 C1946 1.478 . S
C1948 C1950 1.381 . S
C1948 C1954 1.383 . S
C1949 C1945 1.495 . S
C1949 H1955 0.959 . S
C1949 H1956 0.961 . S
C1949 H1957 0.960 . S
C1950 C1948 1.381 . S
C1950 C1951 1.394 . S
C1950 H1958 0.930 . S
C1951 C1950 1.394 . S
C1951 C1952 1.383 . S
C1951 H1959 0.929 . S
C1952 C1951 1.383 . S
C1952 C1953 1.377 . S
C1953 H1937 0.930 . S
C1953 C1952 1.377 . S
C1953 C1954 1.379 . S
C1954 H1938 0.931 . S
C1954 C1948 1.383 . S
C1954 C1953 1.379 . S
H1955 C1949 0.959 . S
H1956 C1949 0.961 . S
H1957 C1949 0.960 . S
H1958 C1950 0.930 . S
H1959 C1951 0.929 . S
H1960 C1968 0.929 . S
H1961 C1970 0.930 . S
H1962 C1972 0.930 . S
H1963 C1975 0.929 . S
H1964 C1978 0.930 . S
H1965 C1980 0.960 . S
H1966 C1980 0.960 . S
H1967 C1980 0.960 . S
C1968 H1960 0.929 . S
C1968 C1969 1.377 . S
C1968 C1970 1.384 . S
C1969 C1968 1.377 . S
C1969 C1975 1.390 . S
C1970 H1961 0.930 . S
C1970 C1968 1.384 . S
C1970 C1971 1.372 . S
C1971 C1970 1.372 . S
C1971 C1972 1.400 . S
C1971 C1976 1.490 . S
C1972 H1962 0.930 . S
C1972 C1971 1.400 . S
C1972 C1975 1.386 . S
H1973 C1989 0.930 . S
H1974 C1990 0.931 . S
C1975 H1963 0.929 . S
C1975 C1969 1.390 . S
C1975 C1972 1.386 . S
C1976 C1971 1.490 . S
C1976 C1978 1.395 . S
C1976 C1979 1.403 . S
H1977 C1983 0.930 . S
C1978 H1964 0.930 . S
C1978 C1976 1.395 . S
C1978 C1981 1.403 1_554 S
C1979 C1976 1.403 . S
C1979 C1980 1.524 . S
C1979 C1983 1.400 1_554 S
C1980 H1965 0.960 . S
C1980 H1966 0.960 . S
C1980 H1967 0.960 . S
C1980 C1979 1.524 . S
C1981 C1978 1.403 1_556 S
C1981 C1982 1.392 . S
C1981 C1985 1.495 . S
C1982 C1981 1.392 . S
C1982 C1983 1.385 . S
C1982 C1984 1.478 . S
C1983 H1977 0.930 . S
C1983 C1979 1.400 1_556 S
C1983 C1982 1.385 . S
C1984 C1982 1.478 . S
C1984 C1986 1.381 . S
C1984 C1990 1.383 . S
C1985 C1981 1.495 . S
C1985 H1991 0.959 . S
C1985 H1992 0.961 . S
C1985 H1993 0.960 . S
C1986 C1984 1.381 . S
C1986 C1987 1.394 . S
C1986 H1994 0.930 . S
C1987 C1986 1.394 . S
C1987 C1988 1.383 . S
C1987 H1995 0.929 . S
C1988 C1987 1.383 . S
C1988 C1989 1.377 . S
C1989 H1973 0.930 . S
C1989 C1988 1.377 . S
C1989 C1990 1.379 . S
C1990 H1974 0.931 . S
C1990 C1984 1.383 . S
C1990 C1989 1.379 . S
H1991 C1985 0.959 . S
H1992 C1985 0.961 . S
H1993 C1985 0.960 . S
H1994 C1986 0.930 . S
H1995 C1987 0.929 . S
H1996 C2004 0.929 . S
H1997 C2006 0.930 . S
H1998 C2008 0.930 . S
H1999 C2011 0.929 . S
H2000 C2014 0.930 . S
H2001 C2016 0.960 . S
H2002 C2016 0.960 . S
H2003 C2016 0.960 . S
C2004 H1996 0.929 . S
C2004 C2005 1.377 . S
C2004 C2006 1.384 . S
C2005 C2004 1.377 . S
C2005 C2011 1.390 . S
C2006 H1997 0.930 . S
C2006 C2004 1.384 . S
C2006 C2007 1.372 . S
C2007 C2006 1.372 . S
C2007 C2008 1.400 . S
C2007 C2012 1.490 . S
C2008 H1998 0.930 . S
C2008 C2007 1.400 . S
C2008 C2011 1.386 . S
H2009 C2025 0.930 . S
H2010 C2026 0.931 . S
C2011 H1999 0.929 . S
C2011 C2005 1.390 . S
C2011 C2008 1.386 . S
C2012 C2007 1.490 . S
C2012 C2014 1.395 . S
C2012 C2015 1.403 . S
H2013 C2019 0.929 . S
C2014 H2000 0.930 . S
C2014 C2012 1.395 . S
C2014 C2017 1.403 . S
C2015 C2012 1.403 . S
C2015 C2016 1.524 . S
C2015 C2019 1.400 . S
C2016 H2001 0.960 . S
C2016 H2002 0.960 . S
C2016 H2003 0.960 . S
C2016 C2015 1.524 . S
C2017 C2014 1.403 . S
C2017 C2018 1.392 1_554 S
C2017 C2021 1.495 1_554 S
C2018 C2017 1.392 1_556 S
C2018 C2019 1.385 1_556 S
C2018 C2020 1.478 . S
C2019 H2013 0.929 . S
C2019 C2015 1.400 . S
C2019 C2018 1.385 1_554 S
C2020 C2018 1.478 . S
C2020 C2022 1.381 . S
C2020 C2026 1.383 . S
C2021 C2017 1.495 1_556 S
C2021 H2027 0.959 1_556 S
C2021 H2028 0.961 . S
C2021 H2029 0.960 . S
C2022 C2020 1.381 . S
C2022 C2023 1.394 . S
C2022 H2030 0.930 . S
C2023 C2022 1.394 . S
C2023 C2024 1.383 . S
C2023 H2031 0.929 . S
C2024 C2023 1.383 . S
C2024 C2025 1.377 . S
C2025 H2009 0.930 . S
C2025 C2024 1.377 . S
C2025 C2026 1.379 . S
C2026 H2010 0.931 . S
C2026 C2020 1.383 . S
C2026 C2025 1.379 . S
H2027 C2021 0.959 1_554 S
H2028 C2021 0.961 . S
H2029 C2021 0.960 . S
H2030 C2022 0.930 . S
H2031 C2023 0.929 . S
H2032 C2040 0.929 . S
H2033 C2042 0.930 . S
H2034 C2044 0.930 . S
H2035 C2047 0.929 . S
H2036 C2050 0.930 . S
H2037 C2052 0.960 . S
H2038 C2052 0.960 . S
H2039 C2052 0.960 . S
C2040 H2032 0.929 . S
C2040 C2041 1.377 . S
C2040 C2042 1.384 . S
C2041 C2040 1.377 . S
C2041 C2047 1.390 . S
C2042 H2033 0.930 . S
C2042 C2040 1.384 . S
C2042 C2043 1.372 . S
C2043 C2042 1.372 . S
C2043 C2044 1.400 . S
C2043 C2048 1.490 . S
C2044 H2034 0.930 . S
C2044 C2043 1.400 . S
C2044 C2047 1.386 . S
H2045 C2061 0.930 . S
H2046 C2062 0.931 . S
C2047 H2035 0.929 . S
C2047 C2041 1.390 . S
C2047 C2044 1.386 . S
C2048 C2043 1.490 . S
C2048 C2050 1.395 . S
C2048 C2051 1.403 . S
H2049 C2055 0.930 . S
C2050 H2036 0.930 . S
C2050 C2048 1.395 . S
C2050 C2053 1.403 1_554 S
C2051 C2048 1.403 . S
C2051 C2052 1.524 . S
C2051 C2055 1.400 1_554 S
C2052 H2037 0.960 . S
C2052 H2038 0.960 . S
C2052 H2039 0.960 . S
C2052 C2051 1.524 . S
C2053 C2050 1.403 1_556 S
C2053 C2054 1.392 . S
C2053 C2057 1.495 . S
C2054 C2053 1.392 . S
C2054 C2055 1.385 . S
C2054 C2056 1.478 . S
C2055 H2049 0.930 . S
C2055 C2051 1.400 1_556 S
C2055 C2054 1.385 . S
C2056 C2054 1.478 . S
C2056 C2058 1.381 . S
C2056 C2062 1.383 . S
C2057 C2053 1.495 . S
C2057 H2063 0.959 . S
C2057 H2064 0.961 . S
C2057 H2065 0.960 . S
C2058 C2056 1.381 . S
C2058 C2059 1.394 . S
C2058 H2066 0.930 . S
C2059 C2058 1.394 . S
C2059 C2060 1.383 . S
C2059 H2067 0.929 . S
C2060 C2059 1.383 . S
C2060 C2061 1.377 . S
C2061 H2045 0.930 . S
C2061 C2060 1.377 . S
C2061 C2062 1.379 . S
C2062 H2046 0.931 . S
C2062 C2056 1.383 . S
C2062 C2061 1.379 . S
H2063 C2057 0.959 . S
H2064 C2057 0.961 . S
H2065 C2057 0.960 . S
H2066 C2058 0.930 . S
H2067 C2059 0.929 . S
H2068 C2076 0.929 . S
H2069 C2078 0.930 . S
H2070 C2080 0.930 . S
H2071 C2083 0.929 . S
H2072 C2086 0.912 1_554 S
H2073 C2088 0.960 1_556 S
H2074 C2088 0.960 . S
H2075 C2088 0.960 . S
C2076 H2068 0.929 . S
C2076 C2077 1.377 . S
C2076 C2078 1.384 . S
C2077 C2076 1.377 . S
C2077 C2083 1.390 . S
C2078 H2069 0.930 . S
C2078 C2076 1.384 . S
C2078 C2079 1.372 . S
C2079 C2078 1.372 . S
C2079 C2080 1.400 . S
C2079 C2084 1.490 . S
C2080 H2070 0.930 . S
C2080 C2079 1.400 . S
C2080 C2083 1.386 . S
H2081 C2097 0.930 . S
H2082 C2098 0.931 . S
C2083 H2071 0.929 . S
C2083 C2077 1.390 . S
C2083 C2080 1.386 . S
C2084 C2079 1.490 . S
C2084 C2086 1.395 1_554 S
C2084 C2087 1.403 1_554 S
H2085 C2091 0.930 . S
C2086 H2072 0.912 1_556 S
C2086 C2084 1.395 1_556 S
C2086 C2089 1.403 . S
C2087 C2084 1.403 1_556 S
C2087 C2088 1.524 1_556 S
C2087 C2091 1.400 . S
C2088 H2073 0.960 1_554 S
C2088 H2074 0.960 . S
C2088 H2075 0.960 . S
C2088 C2087 1.524 1_554 S
C2089 C2086 1.403 . S
C2089 C2090 1.392 . S
C2089 C2093 1.495 . S
C2090 C2089 1.392 . S
C2090 C2091 1.385 . S
C2090 C2092 1.478 . S
C2091 H2085 0.930 . S
C2091 C2087 1.400 . S
C2091 C2090 1.385 . S
C2092 C2090 1.478 . S
C2092 C2094 1.381 . S
C2092 C2098 1.383 . S
C2093 C2089 1.495 . S
C2093 H2099 0.959 . S
C2093 H2100 0.961 . S
C2093 H2101 0.960 . S
C2094 C2092 1.381 . S
C2094 C2095 1.394 . S
C2094 H2102 0.930 . S
C2095 C2094 1.394 . S
C2095 C2096 1.383 . S
C2095 H2103 0.929 . S
C2096 C2095 1.383 . S
C2096 C2097 1.377 . S
C2097 H2081 0.930 . S
C2097 C2096 1.377 . S
C2097 C2098 1.379 . S
C2098 H2082 0.931 . S
C2098 C2092 1.383 . S
C2098 C2097 1.379 . S
H2099 C2093 0.959 . S
H2100 C2093 0.961 . S
H2101 C2093 0.960 . S
H2102 C2094 0.930 . S
H2103 C2095 0.929 . S
H2104 C2112 0.929 . S
H2105 C2114 0.930 . S
H2106 C2116 0.930 . S
H2107 C2119 0.929 . S
H2108 C2122 0.930 . S
H2109 C2124 0.960 . S
H2110 C2124 0.960 . S
H2111 C2124 0.960 . S
C2112 H2104 0.929 . S
C2112 C2113 1.377 . S
C2112 C2114 1.384 . S
C2113 C2112 1.377 . S
C2113 C2119 1.390 . S
C2114 H2105 0.930 . S
C2114 C2112 1.384 . S
C2114 C2115 1.372 . S
C2115 C2114 1.372 . S
C2115 C2116 1.400 . S
C2115 C2120 1.490 . S
C2116 H2106 0.930 . S
C2116 C2115 1.400 . S
C2116 C2119 1.386 . S
H2117 C2133 0.930 . S
H2118 C2134 0.931 . S
C2119 H2107 0.929 . S
C2119 C2113 1.390 . S
C2119 C2116 1.386 . S
C2120 C2115 1.490 . S
C2120 C2122 1.395 . S
C2120 C2123 1.403 . S
H2121 C2127 0.930 . S
C2122 H2108 0.930 . S
C2122 C2120 1.395 . S
C2122 C2125 1.403 1_556 S
C2123 C2120 1.403 . S
C2123 C2124 1.524 . S
C2123 C2127 1.400 1_556 S
C2124 H2109 0.960 . S
C2124 H2110 0.960 . S
C2124 H2111 0.960 . S
C2124 C2123 1.524 . S
C2125 C2122 1.403 1_554 S
C2125 C2126 1.392 . S
C2125 C2129 1.495 . S
C2126 C2125 1.392 . S
C2126 C2127 1.385 . S
C2126 C2128 1.478 . S
C2127 H2121 0.930 . S
C2127 C2123 1.400 1_554 S
C2127 C2126 1.385 . S
C2128 C2126 1.478 . S
C2128 C2130 1.381 . S
C2128 C2134 1.383 . S
C2129 C2125 1.495 . S
C2129 H2135 0.959 . S
C2129 H2136 0.961 . S
C2129 H2137 0.960 . S
C2130 C2128 1.381 . S
C2130 C2131 1.394 . S
C2130 H2138 0.930 . S
C2131 C2130 1.394 . S
C2131 C2132 1.383 . S
C2131 H2139 0.929 . S
C2132 C2131 1.383 . S
C2132 C2133 1.377 . S
C2133 H2117 0.930 . S
C2133 C2132 1.377 . S
C2133 C2134 1.379 . S
C2134 H2118 0.931 . S
C2134 C2128 1.383 . S
C2134 C2133 1.379 . S
H2135 C2129 0.959 . S
H2136 C2129 0.961 . S
H2137 C2129 0.960 . S
H2138 C2130 0.930 . S
H2139 C2131 0.929 . S
H2140 C2148 0.929 . S
H2141 C2150 0.930 . S
H2142 C2152 0.930 . S
H2143 C2155 0.929 . S
H2144 C2158 0.930 . S
H2145 C2160 0.960 . S
H2146 C2160 0.960 . S
H2147 C2160 0.960 . S
C2148 H2140 0.929 . S
C2148 C2149 1.377 . S
C2148 C2150 1.384 . S
C2149 C2148 1.377 . S
C2149 C2155 1.390 . S
C2150 H2141 0.930 . S
C2150 C2148 1.384 . S
C2150 C2151 1.372 . S
C2151 C2150 1.372 . S
C2151 C2152 1.400 . S
C2151 C2156 1.490 . S
C2152 H2142 0.930 . S
C2152 C2151 1.400 . S
C2152 C2155 1.386 . S
H2153 C2169 0.930 . S
H2154 C2170 0.931 . S
C2155 H2143 0.929 . S
C2155 C2149 1.390 . S
C2155 C2152 1.386 . S
C2156 C2151 1.490 . S
C2156 C2158 1.395 . S
C2156 C2159 1.403 . S
H2157 C2163 0.931 . S
C2158 H2144 0.930 . S
C2158 C2156 1.395 . S
C2158 C2161 1.403 . S
C2159 C2156 1.403 . S
C2159 C2160 1.524 . S
C2159 C2163 1.400 . S
C2160 H2145 0.960 . S
C2160 H2146 0.960 . S
C2160 H2147 0.960 . S
C2160 C2159 1.524 . S
C2161 C2158 1.403 . S
C2161 C2162 1.392 1_556 S
C2161 C2165 1.495 1_556 S
C2162 C2161 1.392 1_554 S
C2162 C2163 1.385 1_554 S
C2162 C2164 1.478 . S
C2163 H2157 0.931 . S
C2163 C2159 1.400 . S
C2163 C2162 1.385 1_556 S
C2164 C2162 1.478 . S
C2164 C2166 1.381 . S
C2164 C2170 1.383 . S
C2165 C2161 1.495 1_554 S
C2165 H2171 0.959 1_554 S
C2165 H2172 0.961 . S
C2165 H2173 0.960 . S
C2166 C2164 1.381 . S
C2166 C2167 1.394 . S
C2166 H2174 0.930 . S
C2167 C2166 1.394 . S
C2167 C2168 1.383 . S
C2167 H2175 0.929 . S
C2168 C2167 1.383 . S
C2168 C2169 1.377 . S
C2169 H2153 0.930 . S
C2169 C2168 1.377 . S
C2169 C2170 1.379 . S
C2170 H2154 0.931 . S
C2170 C2164 1.383 . S
C2170 C2169 1.379 . S
H2171 C2165 0.959 1_556 S
H2172 C2165 0.961 . S
H2173 C2165 0.960 . S
H2174 C2166 0.930 . S
H2175 C2167 0.929 . S
H2176 C2184 0.929 . S
H2177 C2186 0.930 . S
H2178 C2188 0.930 . S
H2179 C2191 0.929 . S
H2180 C2194 0.930 . S
H2181 C2196 0.960 . S
H2182 C2196 0.960 . S
H2183 C2196 0.960 . S
C2184 H2176 0.929 . S
C2184 C2185 1.377 . S
C2184 C2186 1.384 . S
C2185 C2184 1.377 . S
C2185 C2191 1.390 . S
C2186 H2177 0.930 . S
C2186 C2184 1.384 . S
C2186 C2187 1.372 . S
C2187 C2186 1.372 . S
C2187 C2188 1.400 . S
C2187 C2192 1.490 . S
C2188 H2178 0.930 . S
C2188 C2187 1.400 . S
C2188 C2191 1.386 . S
H2189 C2205 0.930 . S
H2190 C2206 0.931 . S
C2191 H2179 0.929 . S
C2191 C2185 1.390 . S
C2191 C2188 1.386 . S
C2192 C2187 1.490 . S
C2192 C2194 1.395 . S
C2192 C2195 1.403 . S
H2193 C2199 0.930 . S
C2194 H2180 0.930 . S
C2194 C2192 1.395 . S
C2194 C2197 1.403 . S
C2195 C2192 1.403 . S
C2195 C2196 1.524 . S
C2195 C2199 1.400 . S
C2196 H2181 0.960 . S
C2196 H2182 0.960 . S
C2196 H2183 0.960 . S
C2196 C2195 1.524 . S
C2197 C2194 1.403 . S
C2197 C2198 1.392 . S
C2197 C2201 1.495 . S
C2198 C2197 1.392 . S
C2198 C2199 1.385 . S
C2198 C2200 1.478 . S
C2199 H2193 0.930 . S
C2199 C2195 1.400 . S
C2199 C2198 1.385 . S
C2200 C2198 1.478 . S
C2200 C2202 1.381 . S
C2200 C2206 1.383 . S
C2201 C2197 1.495 . S
C2201 H2207 0.959 . S
C2201 H2208 0.961 . S
C2201 H2209 0.960 . S
C2202 C2200 1.381 . S
C2202 C2203 1.394 . S
C2202 H2210 0.930 . S
C2203 C2202 1.394 . S
C2203 C2204 1.383 . S
C2203 H2211 0.929 . S
C2204 C2203 1.383 . S
C2204 C2205 1.377 . S
C2205 H2189 0.930 . S
C2205 C2204 1.377 . S
C2205 C2206 1.379 . S
C2206 H2190 0.931 . S
C2206 C2200 1.383 . S
C2206 C2205 1.379 . S
H2207 C2201 0.959 . S
H2208 C2201 0.961 . S
H2209 C2201 0.960 . S
H2210 C2202 0.930 . S
H2211 C2203 0.929 . S
H2212 C2220 0.929 . S
H2213 C2222 0.930 . S
H2214 C2224 0.930 . S
H2215 C2227 0.929 . S
H2216 C2230 0.930 . S
H2217 C2232 0.960 . S
H2218 C2232 0.960 . S
H2219 C2232 0.960 . S
C2220 H2212 0.929 . S
C2220 C2221 1.377 . S
C2220 C2222 1.384 . S
C2221 C2220 1.377 . S
C2221 C2227 1.390 . S
C2222 H2213 0.930 . S
C2222 C2220 1.384 . S
C2222 C2223 1.372 . S
C2223 C2222 1.372 . S
C2223 C2224 1.400 . S
C2223 C2228 1.490 . S
C2224 H2214 0.930 . S
C2224 C2223 1.400 . S
C2224 C2227 1.386 . S
H2225 C2241 0.930 . S
H2226 C2242 0.931 . S
C2227 H2215 0.929 . S
C2227 C2221 1.390 . S
C2227 C2224 1.386 . S
C2228 C2223 1.490 . S
C2228 C2230 1.395 . S
C2228 C2231 1.403 . S
H2229 C2235 0.930 . S
C2230 H2216 0.930 . S
C2230 C2228 1.395 . S
C2230 C2233 1.403 . S
C2231 C2228 1.403 . S
C2231 C2232 1.524 . S
C2231 C2235 1.400 . S
C2232 H2217 0.960 . S
C2232 H2218 0.960 . S
C2232 H2219 0.960 . S
C2232 C2231 1.524 . S
C2233 C2230 1.403 . S
C2233 C2234 1.392 . S
C2233 C2237 1.495 . S
C2234 C2233 1.392 . S
C2234 C2235 1.385 . S
C2234 C2236 1.478 . S
C2235 H2229 0.930 . S
C2235 C2231 1.400 . S
C2235 C2234 1.385 . S
C2236 C2234 1.478 . S
C2236 C2238 1.381 . S
C2236 C2242 1.383 . S
C2237 C2233 1.495 . S
C2237 H2243 0.959 . S
C2237 H2244 0.961 . S
C2237 H2245 0.960 . S
C2238 C2236 1.381 . S
C2238 C2239 1.394 . S
C2238 H2246 0.930 . S
C2239 C2238 1.394 . S
C2239 C2240 1.383 . S
C2239 H2247 0.929 . S
C2240 C2239 1.383 . S
C2240 C2241 1.377 . S
C2241 H2225 0.930 . S
C2241 C2240 1.377 . S
C2241 C2242 1.379 . S
C2242 H2226 0.931 . S
C2242 C2236 1.383 . S
C2242 C2241 1.379 . S
H2243 C2237 0.959 . S
H2244 C2237 0.961 . S
H2245 C2237 0.960 . S
H2246 C2238 0.930 . S
H2247 C2239 0.929 . S
H2248 C2256 0.929 . S
H2249 C2258 0.930 . S
H2250 C2260 0.930 . S
H2251 C2263 0.929 . S
H2252 C2266 0.930 . S
H2253 C2268 0.960 . S
H2254 C2268 0.960 . S
H2255 C2268 0.960 . S
C2256 H2248 0.929 . S
C2256 C2257 1.377 . S
C2256 C2258 1.384 . S
C2257 C2256 1.377 . S
C2257 C2263 1.390 . S
C2258 H2249 0.930 . S
C2258 C2256 1.384 . S
C2258 C2259 1.372 . S
C2259 C2258 1.372 . S
C2259 C2260 1.400 . S
C2259 C2264 1.490 . S
C2260 H2250 0.930 . S
C2260 C2259 1.400 . S
C2260 C2263 1.386 . S
H2261 C2277 0.930 . S
H2262 C2278 0.931 . S
C2263 H2251 0.929 . S
C2263 C2257 1.390 . S
C2263 C2260 1.386 . S
C2264 C2259 1.490 . S
C2264 C2266 1.395 . S
C2264 C2267 1.403 . S
H2265 C2271 0.930 . S
C2266 H2252 0.930 . S
C2266 C2264 1.395 . S
C2266 C2269 1.403 . S
C2267 C2264 1.403 . S
C2267 C2268 1.524 . S
C2267 C2271 1.400 . S
C2268 H2253 0.960 . S
C2268 H2254 0.960 . S
C2268 H2255 0.960 . S
C2268 C2267 1.524 . S
C2269 C2266 1.403 . S
C2269 C2270 1.392 . S
C2269 C2273 1.495 . S
C2270 C2269 1.392 . S
C2270 C2271 1.385 . S
C2270 C2272 1.478 . S
C2271 H2265 0.930 . S
C2271 C2267 1.400 . S
C2271 C2270 1.385 . S
C2272 C2270 1.478 . S
C2272 C2274 1.381 . S
C2272 C2278 1.383 . S
C2273 C2269 1.495 . S
C2273 H2279 0.959 . S
C2273 H2280 0.961 . S
C2273 H2281 0.960 . S
C2274 C2272 1.381 . S
C2274 C2275 1.394 . S
C2274 H2282 0.930 . S
C2275 C2274 1.394 . S
C2275 C2276 1.383 . S
C2275 H2283 0.929 . S
C2276 C2275 1.383 . S
C2276 C2277 1.377 . S
C2277 H2261 0.930 . S
C2277 C2276 1.377 . S
C2277 C2278 1.379 . S
C2278 H2262 0.931 . S
C2278 C2272 1.383 . S
C2278 C2277 1.379 . S
H2279 C2273 0.959 . S
H2280 C2273 0.961 . S
H2281 C2273 0.960 . S
H2282 C2274 0.930 . S
H2283 C2275 0.929 . S
H2284 C2292 0.929 . S
H2285 C2294 0.930 . S
H2286 C2296 0.930 . S
H2287 C2299 0.929 . S
H2288 C2302 0.930 . S
H2289 C2304 0.960 . S
H2290 C2304 0.960 . S
H2291 C2304 0.960 . S
C2292 H2284 0.929 . S
C2292 C2293 1.377 . S
C2292 C2294 1.384 . S
C2293 C2292 1.377 . S
C2293 C2299 1.390 . S
C2294 H2285 0.930 . S
C2294 C2292 1.384 . S
C2294 C2295 1.372 . S
C2295 C2294 1.372 . S
C2295 C2296 1.400 . S
C2295 C2300 1.490 . S
C2296 H2286 0.930 . S
C2296 C2295 1.400 . S
C2296 C2299 1.386 . S
H2297 C2313 0.930 . S
H2298 C2314 0.931 . S
C2299 H2287 0.929 . S
C2299 C2293 1.390 . S
C2299 C2296 1.386 . S
C2300 C2295 1.490 . S
C2300 C2302 1.395 . S
C2300 C2303 1.403 . S
H2301 C2307 0.930 . S
C2302 H2288 0.930 . S
C2302 C2300 1.395 . S
C2302 C2305 1.403 . S
C2303 C2300 1.403 . S
C2303 C2304 1.524 . S
C2303 C2307 1.400 . S
C2304 H2289 0.960 . S
C2304 H2290 0.960 . S
C2304 H2291 0.960 . S
C2304 C2303 1.524 . S
C2305 C2302 1.403 . S
C2305 C2306 1.392 . S
C2305 C2309 1.495 . S
C2306 C2305 1.392 . S
C2306 C2307 1.385 . S
C2306 C2308 1.478 . S
C2307 H2301 0.930 . S
C2307 C2303 1.400 . S
C2307 C2306 1.385 . S
C2308 C2306 1.478 . S
C2308 C2310 1.381 . S
C2308 C2314 1.383 . S
C2309 C2305 1.495 . S
C2309 H2315 0.959 . S
C2309 H2316 0.961 . S
C2309 H2317 0.960 . S
C2310 C2308 1.381 . S
C2310 C2311 1.394 . S
C2310 H2318 0.930 . S
C2311 C2310 1.394 . S
C2311 C2312 1.383 . S
C2311 H2319 0.929 . S
C2312 C2311 1.383 . S
C2312 C2313 1.377 . S
C2313 H2297 0.930 . S
C2313 C2312 1.377 . S
C2313 C2314 1.379 . S
C2314 H2298 0.931 . S
C2314 C2308 1.383 . S
C2314 C2313 1.379 . S
H2315 C2309 0.959 . S
H2316 C2309 0.961 . S
H2317 C2309 0.960 . S
H2318 C2310 0.930 . S
H2319 C2311 0.929 . S
H2320 C2328 0.929 . S
H2321 C2330 0.930 . S
H2322 C2332 0.930 . S
H2323 C2335 0.929 . S
H2324 C2338 0.930 . S
H2325 C2340 0.960 . S
H2326 C2340 0.960 . S
H2327 C2340 0.960 . S
C2328 H2320 0.929 . S
C2328 C2329 1.377 . S
C2328 C2330 1.384 . S
C2329 C2328 1.377 . S
C2329 C2335 1.390 . S
C2330 H2321 0.930 . S
C2330 C2328 1.384 . S
C2330 C2331 1.372 . S
C2331 C2330 1.372 . S
C2331 C2332 1.400 . S
C2331 C2336 1.490 . S
C2332 H2322 0.930 . S
C2332 C2331 1.400 . S
C2332 C2335 1.386 . S
H2333 C2349 0.930 . S
H2334 C2350 0.931 . S
C2335 H2323 0.929 . S
C2335 C2329 1.390 . S
C2335 C2332 1.386 . S
C2336 C2331 1.490 . S
C2336 C2338 1.395 . S
C2336 C2339 1.403 . S
H2337 C2343 0.930 . S
C2338 H2324 0.930 . S
C2338 C2336 1.395 . S
C2338 C2341 1.403 . S
C2339 C2336 1.403 . S
C2339 C2340 1.524 . S
C2339 C2343 1.400 . S
C2340 H2325 0.960 . S
C2340 H2326 0.960 . S
C2340 H2327 0.960 . S
C2340 C2339 1.524 . S
C2341 C2338 1.403 . S
C2341 C2342 1.392 . S
C2341 C2345 1.495 . S
C2342 C2341 1.392 . S
C2342 C2343 1.385 . S
C2342 C2344 1.478 . S
C2343 H2337 0.930 . S
C2343 C2339 1.400 . S
C2343 C2342 1.385 . S
C2344 C2342 1.478 . S
C2344 C2346 1.381 . S
C2344 C2350 1.383 . S
C2345 C2341 1.495 . S
C2345 H2351 0.959 . S
C2345 H2352 0.961 . S
C2345 H2353 0.960 . S
C2346 C2344 1.381 . S
C2346 C2347 1.394 . S
C2346 H2354 0.930 . S
C2347 C2346 1.394 . S
C2347 C2348 1.383 . S
C2347 H2355 0.929 . S
C2348 C2347 1.383 . S
C2348 C2349 1.377 . S
C2349 H2333 0.930 . S
C2349 C2348 1.377 . S
C2349 C2350 1.379 . S
C2350 H2334 0.931 . S
C2350 C2344 1.383 . S
C2350 C2349 1.379 . S
H2351 C2345 0.959 . S
H2352 C2345 0.961 . S
H2353 C2345 0.960 . S
H2354 C2346 0.930 . S
H2355 C2347 0.929 . S
H2356 C2364 0.929 . S
H2357 C2366 0.930 . S
H2358 C2368 0.930 . S
H2359 C2371 0.929 . S
H2360 C2374 0.930 . S
H2361 C2376 0.960 . S
H2362 C2376 0.960 . S
H2363 C2376 0.960 . S
C2364 H2356 0.929 . S
C2364 C2365 1.377 . S
C2364 C2366 1.384 . S
C2365 C2364 1.377 . S
C2365 C2371 1.390 . S
C2366 H2357 0.930 . S
C2366 C2364 1.384 . S
C2366 C2367 1.372 . S
C2367 C2366 1.372 . S
C2367 C2368 1.400 . S
C2367 C2372 1.490 . S
C2368 H2358 0.930 . S
C2368 C2367 1.400 . S
C2368 C2371 1.386 . S
H2369 C2385 0.930 . S
H2370 C2386 0.931 . S
C2371 H2359 0.929 . S
C2371 C2365 1.390 . S
C2371 C2368 1.386 . S
C2372 C2367 1.490 . S
C2372 C2374 1.395 . S
C2372 C2375 1.403 . S
H2373 C2379 0.930 . S
C2374 H2360 0.930 . S
C2374 C2372 1.395 . S
C2374 C2377 1.403 . S
C2375 C2372 1.403 . S
C2375 C2376 1.524 . S
C2375 C2379 1.400 . S
C2376 H2361 0.960 . S
C2376 H2362 0.960 . S
C2376 H2363 0.960 . S
C2376 C2375 1.524 . S
C2377 C2374 1.403 . S
C2377 C2378 1.392 . S
C2377 C2381 1.495 . S
C2378 C2377 1.392 . S
C2378 C2379 1.385 . S
C2378 C2380 1.478 . S
C2379 H2373 0.930 . S
C2379 C2375 1.400 . S
C2379 C2378 1.385 . S
C2380 C2378 1.478 . S
C2380 C2382 1.381 . S
C2380 C2386 1.383 . S
C2381 C2377 1.495 . S
C2381 H2387 0.959 . S
C2381 H2388 0.961 . S
C2381 H2389 0.960 . S
C2382 C2380 1.381 . S
C2382 C2383 1.394 . S
C2382 H2390 0.930 . S
C2383 C2382 1.394 . S
C2383 C2384 1.383 . S
C2383 H2391 0.929 . S
C2384 C2383 1.383 . S
C2384 C2385 1.377 . S
C2385 H2369 0.930 . S
C2385 C2384 1.377 . S
C2385 C2386 1.379 . S
C2386 H2370 0.931 . S
C2386 C2380 1.383 . S
C2386 C2385 1.379 . S
H2387 C2381 0.959 . S
H2388 C2381 0.961 . S
H2389 C2381 0.960 . S
H2390 C2382 0.930 . S
H2391 C2383 0.929 . S
H2392 C2400 0.929 . S
H2393 C2402 0.930 . S
H2394 C2404 0.930 . S
H2395 C2407 0.929 . S
H2396 C2410 0.930 . S
H2397 C2412 0.960 . S
H2398 C2412 0.960 . S
H2399 C2412 0.960 . S
C2400 H2392 0.929 . S
C2400 C2401 1.377 . S
C2400 C2402 1.384 . S
C2401 C2400 1.377 . S
C2401 C2407 1.390 . S
C2402 H2393 0.930 . S
C2402 C2400 1.384 . S
C2402 C2403 1.372 . S
C2403 C2402 1.372 . S
C2403 C2404 1.400 . S
C2403 C2408 1.490 . S
C2404 H2394 0.930 . S
C2404 C2403 1.400 . S
C2404 C2407 1.386 . S
H2405 C2421 0.930 . S
H2406 C2422 0.931 . S
C2407 H2395 0.929 . S
C2407 C2401 1.390 . S
C2407 C2404 1.386 . S
C2408 C2403 1.490 . S
C2408 C2410 1.395 . S
C2408 C2411 1.403 . S
H2409 C2415 0.930 . S
C2410 H2396 0.930 . S
C2410 C2408 1.395 . S
C2410 C2413 1.403 . S
C2411 C2408 1.403 . S
C2411 C2412 1.524 . S
C2411 C2415 1.400 . S
C2412 H2397 0.960 . S
C2412 H2398 0.960 . S
C2412 H2399 0.960 . S
C2412 C2411 1.524 . S
C2413 C2410 1.403 . S
C2413 C2414 1.392 . S
C2413 C2417 1.495 . S
C2414 C2413 1.392 . S
C2414 C2415 1.385 . S
C2414 C2416 1.478 . S
C2415 H2409 0.930 . S
C2415 C2411 1.400 . S
C2415 C2414 1.385 . S
C2416 C2414 1.478 . S
C2416 C2418 1.381 . S
C2416 C2422 1.383 . S
C2417 C2413 1.495 . S
C2417 H2423 0.959 . S
C2417 H2424 0.961 . S
C2417 H2425 0.960 . S
C2418 C2416 1.381 . S
C2418 C2419 1.394 . S
C2418 H2426 0.930 . S
C2419 C2418 1.394 . S
C2419 C2420 1.383 . S
C2419 H2427 0.929 . S
C2420 C2419 1.383 . S
C2420 C2421 1.377 . S
C2421 H2405 0.930 . S
C2421 C2420 1.377 . S
C2421 C2422 1.379 . S
C2422 H2406 0.931 . S
C2422 C2416 1.383 . S
C2422 C2421 1.379 . S
H2423 C2417 0.959 . S
H2424 C2417 0.961 . S
H2425 C2417 0.960 . S
H2426 C2418 0.930 . S
H2427 C2419 0.929 . S
H2428 C2436 0.929 . S
H2429 C2438 0.930 . S
H2430 C2440 0.930 . S
H2431 C2443 0.929 . S
H2432 C2446 0.930 . S
H2433 C2448 0.960 . S
H2434 C2448 0.960 . S
H2435 C2448 0.960 . S
C2436 H2428 0.929 . S
C2436 C2437 1.377 . S
C2436 C2438 1.384 . S
C2437 C2436 1.377 . S
C2437 C2443 1.390 . S
C2438 H2429 0.930 . S
C2438 C2436 1.384 . S
C2438 C2439 1.372 . S
C2439 C2438 1.372 . S
C2439 C2440 1.400 . S
C2439 C2444 1.490 . S
C2440 H2430 0.930 . S
C2440 C2439 1.400 . S
C2440 C2443 1.386 . S
H2441 C2457 0.930 . S
H2442 C2458 0.931 . S
C2443 H2431 0.929 . S
C2443 C2437 1.390 . S
C2443 C2440 1.386 . S
C2444 C2439 1.490 . S
C2444 C2446 1.395 . S
C2444 C2447 1.403 . S
H2445 C2451 0.930 . S
C2446 H2432 0.930 . S
C2446 C2444 1.395 . S
C2446 C2449 1.403 . S
C2447 C2444 1.403 . S
C2447 C2448 1.524 . S
C2447 C2451 1.400 . S
C2448 H2433 0.960 . S
C2448 H2434 0.960 . S
C2448 H2435 0.960 . S
C2448 C2447 1.524 . S
C2449 C2446 1.403 . S
C2449 C2450 1.392 . S
C2449 C2453 1.495 . S
C2450 C2449 1.392 . S
C2450 C2451 1.385 . S
C2450 C2452 1.478 . S
C2451 H2445 0.930 . S
C2451 C2447 1.400 . S
C2451 C2450 1.385 . S
C2452 C2450 1.478 . S
C2452 C2454 1.381 . S
C2452 C2458 1.383 . S
C2453 C2449 1.495 . S
C2453 H2459 0.959 . S
C2453 H2460 0.961 . S
C2453 H2461 0.960 . S
C2454 C2452 1.381 . S
C2454 C2455 1.394 . S
C2454 H2462 0.930 . S
C2455 C2454 1.394 . S
C2455 C2456 1.383 . S
C2455 H2463 0.929 . S
C2456 C2455 1.383 . S
C2456 C2457 1.377 . S
C2457 H2441 0.930 . S
C2457 C2456 1.377 . S
C2457 C2458 1.379 . S
C2458 H2442 0.931 . S
C2458 C2452 1.383 . S
C2458 C2457 1.379 . S
H2459 C2453 0.959 . S
H2460 C2453 0.961 . S
H2461 C2453 0.960 . S
H2462 C2454 0.930 . S
H2463 C2455 0.929 . S
H2464 C2472 0.929 . S
H2465 C2474 0.930 . S
H2466 C2476 0.930 . S
H2467 C2479 0.929 . S
H2468 C2482 0.930 . S
H2469 C2484 0.960 . S
H2470 C2484 0.960 . S
H2471 C2484 0.960 . S
C2472 H2464 0.929 . S
C2472 C2473 1.377 . S
C2472 C2474 1.384 . S
C2473 C2472 1.377 . S
C2473 C2479 1.390 . S
C2474 H2465 0.930 . S
C2474 C2472 1.384 . S
C2474 C2475 1.372 . S
C2475 C2474 1.372 . S
C2475 C2476 1.400 . S
C2475 C2480 1.490 . S
C2476 H2466 0.930 . S
C2476 C2475 1.400 . S
C2476 C2479 1.386 . S
H2477 C2493 0.930 . S
H2478 C2494 0.931 . S
C2479 H2467 0.929 . S
C2479 C2473 1.390 . S
C2479 C2476 1.386 . S
C2480 C2475 1.490 . S
C2480 C2482 1.395 . S
C2480 C2483 1.403 . S
H2481 C2487 0.930 . S
C2482 H2468 0.930 . S
C2482 C2480 1.395 . S
C2482 C2485 1.403 . S
C2483 C2480 1.403 . S
C2483 C2484 1.524 . S
C2483 C2487 1.400 . S
C2484 H2469 0.960 . S
C2484 H2470 0.960 . S
C2484 H2471 0.960 . S
C2484 C2483 1.524 . S
C2485 C2482 1.403 . S
C2485 C2486 1.392 . S
C2485 C2489 1.495 . S
C2486 C2485 1.392 . S
C2486 C2487 1.385 . S
C2486 C2488 1.478 . S
C2487 H2481 0.930 . S
C2487 C2483 1.400 . S
C2487 C2486 1.385 . S
C2488 C2486 1.478 . S
C2488 C2490 1.381 . S
C2488 C2494 1.383 . S
C2489 C2485 1.495 . S
C2489 H2495 0.959 . S
C2489 H2496 0.961 . S
C2489 H2497 0.960 . S
C2490 C2488 1.381 . S
C2490 C2491 1.394 . S
C2490 H2498 0.930 . S
C2491 C2490 1.394 . S
C2491 C2492 1.383 . S
C2491 H2499 0.929 . S
C2492 C2491 1.383 . S
C2492 C2493 1.377 . S
C2493 H2477 0.930 . S
C2493 C2492 1.377 . S
C2493 C2494 1.379 . S
C2494 H2478 0.931 . S
C2494 C2488 1.383 . S
C2494 C2493 1.379 . S
H2495 C2489 0.959 . S
H2496 C2489 0.961 . S
H2497 C2489 0.960 . S
H2498 C2490 0.930 . S
H2499 C2491 0.929 . S
H2500 C2508 0.929 . S
H2501 C2510 0.930 . S
H2502 C2512 0.930 . S
H2503 C2515 0.929 . S
H2504 C2518 0.930 . S
H2505 C2520 0.960 . S
H2506 C2520 0.960 . S
H2507 C2520 0.960 . S
C2508 H2500 0.929 . S
C2508 C2509 1.377 . S
C2508 C2510 1.384 . S
C2509 C2508 1.377 . S
C2509 C2515 1.390 . S
C2510 H2501 0.930 . S
C2510 C2508 1.384 . S
C2510 C2511 1.372 . S
C2511 C2510 1.372 . S
C2511 C2512 1.400 . S
C2511 C2516 1.490 . S
C2512 H2502 0.930 . S
C2512 C2511 1.400 . S
C2512 C2515 1.386 . S
H2513 C2529 0.930 . S
H2514 C2530 0.931 . S
C2515 H2503 0.929 . S
C2515 C2509 1.390 . S
C2515 C2512 1.386 . S
C2516 C2511 1.490 . S
C2516 C2518 1.395 . S
C2516 C2519 1.403 . S
H2517 C2523 0.930 . S
C2518 H2504 0.930 . S
C2518 C2516 1.395 . S
C2518 C2521 1.403 . S
C2519 C2516 1.403 . S
C2519 C2520 1.524 . S
C2519 C2523 1.400 . S
C2520 H2505 0.960 . S
C2520 H2506 0.960 . S
C2520 H2507 0.960 . S
C2520 C2519 1.524 . S
C2521 C2518 1.403 . S
C2521 C2522 1.392 . S
C2521 C2525 1.495 . S
C2522 C2521 1.392 . S
C2522 C2523 1.385 . S
C2522 C2524 1.478 . S
C2523 H2517 0.930 . S
C2523 C2519 1.400 . S
C2523 C2522 1.385 . S
C2524 C2522 1.478 . S
C2524 C2526 1.381 . S
C2524 C2530 1.383 . S
C2525 C2521 1.495 . S
C2525 H2531 0.959 . S
C2525 H2532 0.961 . S
C2525 H2533 0.960 . S
C2526 C2524 1.381 . S
C2526 C2527 1.394 . S
C2526 H2534 0.930 . S
C2527 C2526 1.394 . S
C2527 C2528 1.383 . S
C2527 H2535 0.929 . S
C2528 C2527 1.383 . S
C2528 C2529 1.377 . S
C2529 H2513 0.930 . S
C2529 C2528 1.377 . S
C2529 C2530 1.379 . S
C2530 H2514 0.931 . S
C2530 C2524 1.383 . S
C2530 C2529 1.379 . S
H2531 C2525 0.959 . S
H2532 C2525 0.961 . S
H2533 C2525 0.960 . S
H2534 C2526 0.930 . S
H2535 C2527 0.929 . S
H2536 C2544 0.929 . S
H2537 C2546 0.930 . S
H2538 C2548 0.930 . S
H2539 C2551 0.929 . S
H2540 C2554 0.930 . S
H2541 C2556 0.960 . S
H2542 C2556 0.960 . S
H2543 C2556 0.960 . S
C2544 H2536 0.929 . S
C2544 C2545 1.377 . S
C2544 C2546 1.384 . S
C2545 C2544 1.377 . S
C2545 C2551 1.390 . S
C2546 H2537 0.930 . S
C2546 C2544 1.384 . S
C2546 C2547 1.372 . S
C2547 C2546 1.372 . S
C2547 C2548 1.400 . S
C2547 C2552 1.490 . S
C2548 H2538 0.930 . S
C2548 C2547 1.400 . S
C2548 C2551 1.386 . S
H2549 C2565 0.930 . S
H2550 C2566 0.931 . S
C2551 H2539 0.929 . S
C2551 C2545 1.390 . S
C2551 C2548 1.386 . S
C2552 C2547 1.490 . S
C2552 C2554 1.395 . S
C2552 C2555 1.403 . S
H2553 C2559 0.930 . S
C2554 H2540 0.930 . S
C2554 C2552 1.395 . S
C2554 C2557 1.403 . S
C2555 C2552 1.403 . S
C2555 C2556 1.524 . S
C2555 C2559 1.400 . S
C2556 H2541 0.960 . S
C2556 H2542 0.960 . S
C2556 H2543 0.960 . S
C2556 C2555 1.524 . S
C2557 C2554 1.403 . S
C2557 C2558 1.392 . S
C2557 C2561 1.495 . S
C2558 C2557 1.392 . S
C2558 C2559 1.385 . S
C2558 C2560 1.478 . S
C2559 H2553 0.930 . S
C2559 C2555 1.400 . S
C2559 C2558 1.385 . S
C2560 C2558 1.478 . S
C2560 C2562 1.381 . S
C2560 C2566 1.383 . S
C2561 C2557 1.495 . S
C2561 H2567 0.959 . S
C2561 H2568 0.961 . S
C2561 H2569 0.960 . S
C2562 C2560 1.381 . S
C2562 C2563 1.394 . S
C2562 H2570 0.930 . S
C2563 C2562 1.394 . S
C2563 C2564 1.383 . S
C2563 H2571 0.929 . S
C2564 C2563 1.383 . S
C2564 C2565 1.377 . S
C2565 H2549 0.930 . S
C2565 C2564 1.377 . S
C2565 C2566 1.379 . S
C2566 H2550 0.931 . S
C2566 C2560 1.383 . S
C2566 C2565 1.379 . S
H2567 C2561 0.959 . S
H2568 C2561 0.961 . S
H2569 C2561 0.960 . S
H2570 C2562 0.930 . S
H2571 C2563 0.929 . S
H2572 C2580 0.929 . S
H2573 C2582 0.930 . S
H2574 C2584 0.930 . S
H2575 C2587 0.929 . S
H2576 C2590 0.930 . S
H2577 C2592 0.960 . S
H2578 C2592 0.960 . S
H2579 C2592 0.960 . S
C2580 H2572 0.929 . S
C2580 C2581 1.377 . S
C2580 C2582 1.384 . S
C2581 C2580 1.377 . S
C2581 C2587 1.390 . S
C2582 H2573 0.930 . S
C2582 C2580 1.384 . S
C2582 C2583 1.372 . S
C2583 C2582 1.372 . S
C2583 C2584 1.400 . S
C2583 C2588 1.490 . S
C2584 H2574 0.930 . S
C2584 C2583 1.400 . S
C2584 C2587 1.386 . S
H2585 C2601 0.930 . S
H2586 C2602 0.931 . S
C2587 H2575 0.929 . S
C2587 C2581 1.390 . S
C2587 C2584 1.386 . S
C2588 C2583 1.490 . S
C2588 C2590 1.395 . S
C2588 C2591 1.403 . S
H2589 C2595 0.930 . S
C2590 H2576 0.930 . S
C2590 C2588 1.395 . S
C2590 C2593 1.403 . S
C2591 C2588 1.403 . S
C2591 C2592 1.524 . S
C2591 C2595 1.400 . S
C2592 H2577 0.960 . S
C2592 H2578 0.960 . S
C2592 H2579 0.960 . S
C2592 C2591 1.524 . S
C2593 C2590 1.403 . S
C2593 C2594 1.392 . S
C2593 C2597 1.495 . S
C2594 C2593 1.392 . S
C2594 C2595 1.385 . S
C2594 C2596 1.478 . S
C2595 H2589 0.930 . S
C2595 C2591 1.400 . S
C2595 C2594 1.385 . S
C2596 C2594 1.478 . S
C2596 C2598 1.381 . S
C2596 C2602 1.383 . S
C2597 C2593 1.495 . S
C2597 H2603 0.959 . S
C2597 H2604 0.961 . S
C2597 H2605 0.960 . S
C2598 C2596 1.381 . S
C2598 C2599 1.394 . S
C2598 H2606 0.930 . S
C2599 C2598 1.394 . S
C2599 C2600 1.383 . S
C2599 H2607 0.929 . S
C2600 C2599 1.383 . S
C2600 C2601 1.377 . S
C2601 H2585 0.930 . S
C2601 C2600 1.377 . S
C2601 C2602 1.379 . S
C2602 H2586 0.931 . S
C2602 C2596 1.383 . S
C2602 C2601 1.379 . S
H2603 C2597 0.959 . S
H2604 C2597 0.961 . S
H2605 C2597 0.960 . S
H2606 C2598 0.930 . S
H2607 C2599 0.929 . S
H2608 C2616 0.929 . S
H2609 C2618 0.930 . S
H2610 C2620 0.930 . S
H2611 C2623 0.929 . S
H2612 C2626 0.930 . S
H2613 C2628 0.960 . S
H2614 C2628 0.960 . S
H2615 C2628 0.960 . S
C2616 H2608 0.929 . S
C2616 C2617 1.377 . S
C2616 C2618 1.384 . S
C2617 C2616 1.377 . S
C2617 C2623 1.390 . S
C2618 H2609 0.930 . S
C2618 C2616 1.384 . S
C2618 C2619 1.372 . S
C2619 C2618 1.372 . S
C2619 C2620 1.400 . S
C2619 C2624 1.490 . S
C2620 H2610 0.930 . S
C2620 C2619 1.400 . S
C2620 C2623 1.386 . S
H2621 C2637 0.930 . S
H2622 C2638 0.931 . S
C2623 H2611 0.929 . S
C2623 C2617 1.390 . S
C2623 C2620 1.386 . S
C2624 C2619 1.490 . S
C2624 C2626 1.395 . S
C2624 C2627 1.403 . S
H2625 C2631 0.930 . S
C2626 H2612 0.930 . S
C2626 C2624 1.395 . S
C2626 C2629 1.403 . S
C2627 C2624 1.403 . S
C2627 C2628 1.524 . S
C2627 C2631 1.400 . S
C2628 H2613 0.960 . S
C2628 H2614 0.960 . S
C2628 H2615 0.960 . S
C2628 C2627 1.524 . S
C2629 C2626 1.403 . S
C2629 C2630 1.392 . S
C2629 C2633 1.495 . S
C2630 C2629 1.392 . S
C2630 C2631 1.385 . S
C2630 C2632 1.478 . S
C2631 H2625 0.930 . S
C2631 C2627 1.400 . S
C2631 C2630 1.385 . S
C2632 C2630 1.478 . S
C2632 C2634 1.381 . S
C2632 C2638 1.383 . S
C2633 C2629 1.495 . S
C2633 H2639 0.959 . S
C2633 H2640 0.961 . S
C2633 H2641 0.960 . S
C2634 C2632 1.381 . S
C2634 C2635 1.394 . S
C2634 H2642 0.930 . S
C2635 C2634 1.394 . S
C2635 C2636 1.383 . S
C2635 H2643 0.929 . S
C2636 C2635 1.383 . S
C2636 C2637 1.377 . S
C2637 H2621 0.930 . S
C2637 C2636 1.377 . S
C2637 C2638 1.379 . S
C2638 H2622 0.931 . S
C2638 C2632 1.383 . S
C2638 C2637 1.379 . S
H2639 C2633 0.959 . S
H2640 C2633 0.961 . S
H2641 C2633 0.960 . S
H2642 C2634 0.930 . S
H2643 C2635 0.929 . S
H2644 C2652 0.929 . S
H2645 C2654 0.930 . S
H2646 C2656 0.930 . S
H2647 C2659 0.929 . S
H2648 C2662 0.930 . S
H2649 C2664 0.960 . S
H2650 C2664 0.960 . S
H2651 C2664 0.960 . S
C2652 H2644 0.929 . S
C2652 C2653 1.377 . S
C2652 C2654 1.384 . S
C2653 C2652 1.377 . S
C2653 C2659 1.390 . S
C2654 H2645 0.930 . S
C2654 C2652 1.384 . S
C2654 C2655 1.372 . S
C2655 C2654 1.372 . S
C2655 C2656 1.400 . S
C2655 C2660 1.490 . S
C2656 H2646 0.930 . S
C2656 C2655 1.400 . S
C2656 C2659 1.386 . S
H2657 C2673 0.930 . S
H2658 C2674 0.931 . S
C2659 H2647 0.929 . S
C2659 C2653 1.390 . S
C2659 C2656 1.386 . S
C2660 C2655 1.490 . S
C2660 C2662 1.395 . S
C2660 C2663 1.403 . S
H2661 C2667 0.930 . S
C2662 H2648 0.930 . S
C2662 C2660 1.395 . S
C2662 C2665 1.403 . S
C2663 C2660 1.403 . S
C2663 C2664 1.524 . S
C2663 C2667 1.400 . S
C2664 H2649 0.960 . S
C2664 H2650 0.960 . S
C2664 H2651 0.960 . S
C2664 C2663 1.524 . S
C2665 C2662 1.403 . S
C2665 C2666 1.392 . S
C2665 C2669 1.495 . S
C2666 C2665 1.392 . S
C2666 C2667 1.385 . S
C2666 C2668 1.478 . S
C2667 H2661 0.930 . S
C2667 C2663 1.400 . S
C2667 C2666 1.385 . S
C2668 C2666 1.478 . S
C2668 C2670 1.381 . S
C2668 C2674 1.383 . S
C2669 C2665 1.495 . S
C2669 H2675 0.959 . S
C2669 H2676 0.961 . S
C2669 H2677 0.960 . S
C2670 C2668 1.381 . S
C2670 C2671 1.394 . S
C2670 H2678 0.930 . S
C2671 C2670 1.394 . S
C2671 C2672 1.383 . S
C2671 H2679 0.929 . S
C2672 C2671 1.383 . S
C2672 C2673 1.377 . S
C2673 H2657 0.930 . S
C2673 C2672 1.377 . S
C2673 C2674 1.379 . S
C2674 H2658 0.931 . S
C2674 C2668 1.383 . S
C2674 C2673 1.379 . S
H2675 C2669 0.959 . S
H2676 C2669 0.961 . S
H2677 C2669 0.960 . S
H2678 C2670 0.930 . S
H2679 C2671 0.929 . S
H2680 C2688 0.929 . S
H2681 C2690 0.930 . S
H2682 C2692 0.930 . S
H2683 C2695 0.929 . S
H2684 C2698 0.930 . S
H2685 C2700 0.960 . S
H2686 C2700 0.960 . S
H2687 C2700 0.960 . S
C2688 H2680 0.929 . S
C2688 C2689 1.377 . S
C2688 C2690 1.384 . S
C2689 C2688 1.377 . S
C2689 C2695 1.390 . S
C2690 H2681 0.930 . S
C2690 C2688 1.384 . S
C2690 C2691 1.372 . S
C2691 C2690 1.372 . S
C2691 C2692 1.400 . S
C2691 C2696 1.490 . S
C2692 H2682 0.930 . S
C2692 C2691 1.400 . S
C2692 C2695 1.386 . S
H2693 C2709 0.930 . S
H2694 C2710 0.931 . S
C2695 H2683 0.929 . S
C2695 C2689 1.390 . S
C2695 C2692 1.386 . S
C2696 C2691 1.490 . S
C2696 C2698 1.395 . S
C2696 C2699 1.403 . S
H2697 C2703 0.930 . S
C2698 H2684 0.930 . S
C2698 C2696 1.395 . S
C2698 C2701 1.403 . S
C2699 C2696 1.403 . S
C2699 C2700 1.524 . S
C2699 C2703 1.400 . S
C2700 H2685 0.960 . S
C2700 H2686 0.960 . S
C2700 H2687 0.960 . S
C2700 C2699 1.524 . S
C2701 C2698 1.403 . S
C2701 C2702 1.392 . S
C2701 C2705 1.495 . S
C2702 C2701 1.392 . S
C2702 C2703 1.385 . S
C2702 C2704 1.478 . S
C2703 H2697 0.930 . S
C2703 C2699 1.400 . S
C2703 C2702 1.385 . S
C2704 C2702 1.478 . S
C2704 C2706 1.381 . S
C2704 C2710 1.383 . S
C2705 C2701 1.495 . S
C2705 H2711 0.959 . S
C2705 H2712 0.961 . S
C2705 H2713 0.960 . S
C2706 C2704 1.381 . S
C2706 C2707 1.394 . S
C2706 H2714 0.930 . S
C2707 C2706 1.394 . S
C2707 C2708 1.383 . S
C2707 H2715 0.929 . S
C2708 C2707 1.383 . S
C2708 C2709 1.377 . S
C2709 H2693 0.930 . S
C2709 C2708 1.377 . S
C2709 C2710 1.379 . S
C2710 H2694 0.931 . S
C2710 C2704 1.383 . S
C2710 C2709 1.379 . S
H2711 C2705 0.959 . S
H2712 C2705 0.961 . S
H2713 C2705 0.960 . S
H2714 C2706 0.930 . S
H2715 C2707 0.929 . S
H2716 C2724 0.929 . S
H2717 C2726 0.930 . S
H2718 C2728 0.930 . S
H2719 C2731 0.929 . S
H2720 C2734 0.930 . S
H2721 C2736 0.960 . S
H2722 C2736 0.960 . S
H2723 C2736 0.960 . S
C2724 H2716 0.929 . S
C2724 C2725 1.377 . S
C2724 C2726 1.384 . S
C2725 C2724 1.377 . S
C2725 C2731 1.390 . S
C2726 H2717 0.930 . S
C2726 C2724 1.384 . S
C2726 C2727 1.372 . S
C2727 C2726 1.372 . S
C2727 C2728 1.400 . S
C2727 C2732 1.490 . S
C2728 H2718 0.930 . S
C2728 C2727 1.400 . S
C2728 C2731 1.386 . S
H2729 C2745 0.930 . S
H2730 C2746 0.931 . S
C2731 H2719 0.929 . S
C2731 C2725 1.390 . S
C2731 C2728 1.386 . S
C2732 C2727 1.490 . S
C2732 C2734 1.395 . S
C2732 C2735 1.403 . S
H2733 C2739 0.930 . S
C2734 H2720 0.930 . S
C2734 C2732 1.395 . S
C2734 C2737 1.403 . S
C2735 C2732 1.403 . S
C2735 C2736 1.524 . S
C2735 C2739 1.400 . S
C2736 H2721 0.960 . S
C2736 H2722 0.960 . S
C2736 H2723 0.960 . S
C2736 C2735 1.524 . S
C2737 C2734 1.403 . S
C2737 C2738 1.392 . S
C2737 C2741 1.495 . S
C2738 C2737 1.392 . S
C2738 C2739 1.385 . S
C2738 C2740 1.478 . S
C2739 H2733 0.930 . S
C2739 C2735 1.400 . S
C2739 C2738 1.385 . S
C2740 C2738 1.478 . S
C2740 C2742 1.381 . S
C2740 C2746 1.383 . S
C2741 C2737 1.495 . S
C2741 H2747 0.959 . S
C2741 H2748 0.961 . S
C2741 H2749 0.960 . S
C2742 C2740 1.381 . S
C2742 C2743 1.394 . S
C2742 H2750 0.930 . S
C2743 C2742 1.394 . S
C2743 C2744 1.383 . S
C2743 H2751 0.929 . S
C2744 C2743 1.383 . S
C2744 C2745 1.377 . S
C2745 H2729 0.930 . S
C2745 C2744 1.377 . S
C2745 C2746 1.379 . S
C2746 H2730 0.931 . S
C2746 C2740 1.383 . S
C2746 C2745 1.379 . S
H2747 C2741 0.959 . S
H2748 C2741 0.961 . S
H2749 C2741 0.960 . S
H2750 C2742 0.930 . S
H2751 C2743 0.929 . S
C457 C222 1.126 . S
C476 C12 1.113 . S
C493 C18 1.232 . S
C512 C180 1.268 . S
C529 C40 1.127 . S
C548 C194 1.143 . S
C565 C208 1.258 . S
C584 C46 1.225 . S
C601 C68 1.132 . S
C620 C138 1.108 . S
C637 C74 1.238 . S
C656 C152 1.242 . S
C673 C166 1.122 . S
C692 C96 1.130 . S
C709 C124 1.259 . S
C728 C102 1.208 . S
C745 C236 1.131 . S
C764 C446 1.104 . S
C781 C242 1.237 . S
C800 C404 1.247 . S
C817 C264 1.132 . S
C836 C418 1.105 . S
C853 C432 1.259 . S
C872 C270 1.218 . S
C889 C292 1.128 . S
C908 C362 1.106 . S
C925 C298 1.239 . S
C944 C376 1.241 . S
C961 C390 1.125 . S
C980 C320 1.144 . S
C997 C326 1.242 . S
C1016 C348 1.237 . S
C1033 C173 0.909 . S
C1052 C5 0.961 . S
C1069 C25 0.909 . S
C1088 C187 0.917 . S
C1105 C201 0.905 . S
C1124 C33 0.860 . S
C1141 C53 0.895 . S
C1160 C215 0.883 . S
C1177 C61 0.914 . S
C1196 C117 0.842 . S
C1213 C131 0.889 . S
C1232 C81 0.917 . S
C1249 C145 0.900 . S
C1268 C89 0.888 . S
C1285 C159 0.889 . S
C1304 C109 0.913 . S
C1321 C229 0.917 . S
C1340 C397 0.842 . S
C1357 C411 0.868 . S
C1376 C249 0.931 . S
C1393 C257 0.920 . S
C1412 C425 0.848 . S
C1429 C277 0.897 . S
C1448 C439 0.925 . S
C1465 C341 0.916 . S
C1484 C285 0.843 . S
C1501 C305 0.911 . S
C1520 C355 0.844 . S
C1537 C313 0.905 . S
C1556 C369 0.970 . S
C1573 C333 0.897 . S
C1592 C383 0.927 . S
C1609 C4 1.450 . S
C1628 C144 1.452 . S
C1645 C158 1.398 . S
C1664 C26 1.427 . S
C1681 C32 1.449 . S
C1700 C116 1.456 . S
C1717 C130 1.397 . S
C1736 C54 1.426 . S
C1753 C200 1.443 . S
C1772 C60 1.449 . S
C1789 C214 1.396 . S
C1808 C82 1.428 . S
C1825 C172 1.445 . S
C1844 C88 1.435 . S
C1861 C110 1.434 . S
C1880 C186 1.377 . S
C1897 C368 1.445 . S
C1916 C228 1.436 . S
C1933 C250 1.434 . S
C1952 C382 1.378 . S
C1969 C340 1.448 . S
C1988 C256 1.423 . S
C2005 C354 1.396 . S
C2024 C278 1.428 . S
C2041 C284 1.449 . S
C2060 C424 1.458 . S
C2077 C306 1.435 . S
C2096 C438 1.420 . S
C2113 C396 1.452 . S
C2132 C312 1.427 . S
C2149 C410 1.396 . S
C2168 C334 1.427 . S
C2185 C327 1.098 . S
C2204 C11 1.226 . S
C2221 C291 1.194 . S
C2240 C19 1.035 . S
C2257 C299 1.082 . S
C2276 C39 1.189 . S
C2293 C319 1.202 . S
C2312 C47 1.107 . S
C2329 C243 1.095 . S
C2348 C67 1.163 . S
C2365 C75 1.084 . S
C2384 C263 1.166 . S
C2401 C95 1.200 . S
C2420 C271 1.147 . S
C2437 C103 1.083 . S
C2456 C235 1.171 . S
C2473 C123 1.239 . S
C2492 C445 1.251 . S
C2509 C403 1.238 . S
C2528 C137 1.263 . S
C2545 C151 1.239 . S
C2564 C417 1.248 . S
C2581 C165 1.226 . S
C2600 C431 1.263 . S
C2617 C361 1.227 . S
C2636 C179 1.262 . S
C2653 C375 1.239 . S
C2672 C193 1.252 . S
C2689 C207 1.239 . S
C2708 C389 1.252 . S
C2725 C221 1.239 . S
C2744 C347 1.211 . S
