# Generated by pormake.
# Topology cha, (4)-cn, num edge types: 1
# Building blocks:
#     Node 0, Type 0, BuildingBlock: AZAVOO_clean_sbu_0, # of connection points: 4
#     Node 1, Type 0, BuildingBlock: AZAVOO_clean_sbu_0, # of connection points: 4
#     Node 2, Type 0, BuildingBlock: AZAVOO_clean_sbu_0, # of connection points: 4
#     Node 3, Type 0, BuildingBlock: AZAVOO_clean_sbu_0, # of connection points: 4
#     Node 4, Type 0, BuildingBlock: AZAVOO_clean_sbu_0, # of connection points: 4
#     Node 5, Type 0, BuildingBlock: AZAVOO_clean_sbu_0, # of connection points: 4
#     Node 6, Type 0, BuildingBlock: AZAVOO_clean_sbu_0, # of connection points: 4
#     Node 7, Type 0, BuildingBlock: AZAVOO_clean_sbu_0, # of connection points: 4
#     Node 8, Type 0, BuildingBlock: AZAVOO_clean_sbu_0, # of connection points: 4
#     Node 9, Type 0, BuildingBlock: AZAVOO_clean_sbu_0, # of connection points: 4
#     Node 10, Type 0, BuildingBlock: AZAVOO_clean_sbu_0, # of connection points: 4
#     Node 11, Type 0, BuildingBlock: AZAVOO_clean_sbu_0, # of connection points: 4
#     Node 12, Type 0, BuildingBlock: AZAVOO_clean_sbu_0, # of connection points: 4
#     Node 13, Type 0, BuildingBlock: AZAVOO_clean_sbu_0, # of connection points: 4
#     Node 14, Type 0, BuildingBlock: AZAVOO_clean_sbu_0, # of connection points: 4
#     Node 15, Type 0, BuildingBlock: AZAVOO_clean_sbu_0, # of connection points: 4
#     Node 16, Type 0, BuildingBlock: AZAVOO_clean_sbu_0, # of connection points: 4
#     Node 17, Type 0, BuildingBlock: AZAVOO_clean_sbu_0, # of connection points: 4
#     Node 18, Type 0, BuildingBlock: AZAVOO_clean_sbu_0, # of connection points: 4
#     Node 19, Type 0, BuildingBlock: AZAVOO_clean_sbu_0, # of connection points: 4
#     Node 20, Type 0, BuildingBlock: AZAVOO_clean_sbu_0, # of connection points: 4
#     Node 21, Type 0, BuildingBlock: AZAVOO_clean_sbu_0, # of connection points: 4
#     Node 22, Type 0, BuildingBlock: AZAVOO_clean_sbu_0, # of connection points: 4
#     Node 23, Type 0, BuildingBlock: AZAVOO_clean_sbu_0, # of connection points: 4
#     Node 24, Type 0, BuildingBlock: AZAVOO_clean_sbu_0, # of connection points: 4
#     Node 25, Type 0, BuildingBlock: AZAVOO_clean_sbu_0, # of connection points: 4
#     Node 26, Type 0, BuildingBlock: AZAVOO_clean_sbu_0, # of connection points: 4
#     Node 27, Type 0, BuildingBlock: AZAVOO_clean_sbu_0, # of connection points: 4
#     Node 28, Type 0, BuildingBlock: AZAVOO_clean_sbu_0, # of connection points: 4
#     Node 29, Type 0, BuildingBlock: AZAVOO_clean_sbu_0, # of connection points: 4
#     Node 30, Type 0, BuildingBlock: AZAVOO_clean_sbu_0, # of connection points: 4
#     Node 31, Type 0, BuildingBlock: AZAVOO_clean_sbu_0, # of connection points: 4
#     Node 32, Type 0, BuildingBlock: AZAVOO_clean_sbu_0, # of connection points: 4
#     Node 33, Type 0, BuildingBlock: AZAVOO_clean_sbu_0, # of connection points: 4
#     Node 34, Type 0, BuildingBlock: AZAVOO_clean_sbu_0, # of connection points: 4
#     Node 35, Type 0, BuildingBlock: AZAVOO_clean_sbu_0, # of connection points: 4
#     Edge 36, Type (0, 0), BuildingBlock: AJUNOK_clean_linker_0, # of connection points: 2
#     Edge 37, Type (0, 0), BuildingBlock: AJUNOK_clean_linker_0, # of connection points: 2
#     Edge 38, Type (0, 0), BuildingBlock: AJUNOK_clean_linker_0, # of connection points: 2
#     Edge 39, Type (0, 0), BuildingBlock: AJUNOK_clean_linker_0, # of connection points: 2
#     Edge 40, Type (0, 0), BuildingBlock: AJUNOK_clean_linker_0, # of connection points: 2
#     Edge 41, Type (0, 0), BuildingBlock: AJUNOK_clean_linker_0, # of connection points: 2
#     Edge 42, Type (0, 0), BuildingBlock: AJUNOK_clean_linker_0, # of connection points: 2
#     Edge 43, Type (0, 0), BuildingBlock: AJUNOK_clean_linker_0, # of connection points: 2
#     Edge 44, Type (0, 0), BuildingBlock: AJUNOK_clean_linker_0, # of connection points: 2
#     Edge 45, Type (0, 0), BuildingBlock: AJUNOK_clean_linker_0, # of connection points: 2
#     Edge 46, Type (0, 0), BuildingBlock: AJUNOK_clean_linker_0, # of connection points: 2
#     Edge 47, Type (0, 0), BuildingBlock: AJUNOK_clean_linker_0, # of connection points: 2
#     Edge 48, Type (0, 0), BuildingBlock: AJUNOK_clean_linker_0, # of connection points: 2
#     Edge 49, Type (0, 0), BuildingBlock: AJUNOK_clean_linker_0, # of connection points: 2
#     Edge 50, Type (0, 0), BuildingBlock: AJUNOK_clean_linker_0, # of connection points: 2
#     Edge 51, Type (0, 0), BuildingBlock: AJUNOK_clean_linker_0, # of connection points: 2
#     Edge 52, Type (0, 0), BuildingBlock: AJUNOK_clean_linker_0, # of connection points: 2
#     Edge 53, Type (0, 0), BuildingBlock: AJUNOK_clean_linker_0, # of connection points: 2
#     Edge 54, Type (0, 0), BuildingBlock: AJUNOK_clean_linker_0, # of connection points: 2
#     Edge 55, Type (0, 0), BuildingBlock: AJUNOK_clean_linker_0, # of connection points: 2
#     Edge 56, Type (0, 0), BuildingBlock: AJUNOK_clean_linker_0, # of connection points: 2
#     Edge 57, Type (0, 0), BuildingBlock: AJUNOK_clean_linker_0, # of connection points: 2
#     Edge 58, Type (0, 0), BuildingBlock: AJUNOK_clean_linker_0, # of connection points: 2
#     Edge 59, Type (0, 0), BuildingBlock: AJUNOK_clean_linker_0, # of connection points: 2
#     Edge 60, Type (0, 0), BuildingBlock: AJUNOK_clean_linker_0, # of connection points: 2
#     Edge 61, Type (0, 0), BuildingBlock: AJUNOK_clean_linker_0, # of connection points: 2
#     Edge 62, Type (0, 0), BuildingBlock: AJUNOK_clean_linker_0, # of connection points: 2
#     Edge 63, Type (0, 0), BuildingBlock: AJUNOK_clean_linker_0, # of connection points: 2
#     Edge 64, Type (0, 0), BuildingBlock: AJUNOK_clean_linker_0, # of connection points: 2
#     Edge 65, Type (0, 0), BuildingBlock: AJUNOK_clean_linker_0, # of connection points: 2
#     Edge 66, Type (0, 0), BuildingBlock: AJUNOK_clean_linker_0, # of connection points: 2
#     Edge 67, Type (0, 0), BuildingBlock: AJUNOK_clean_linker_0, # of connection points: 2
#     Edge 68, Type (0, 0), BuildingBlock: AJUNOK_clean_linker_0, # of connection points: 2
#     Edge 69, Type (0, 0), BuildingBlock: AJUNOK_clean_linker_0, # of connection points: 2
#     Edge 70, Type (0, 0), BuildingBlock: AJUNOK_clean_linker_0, # of connection points: 2
#     Edge 71, Type (0, 0), BuildingBlock: AJUNOK_clean_linker_0, # of connection points: 2
#     Edge 72, Type (0, 0), BuildingBlock: AJUNOK_clean_linker_0, # of connection points: 2
#     Edge 73, Type (0, 0), BuildingBlock: AJUNOK_clean_linker_0, # of connection points: 2
#     Edge 74, Type (0, 0), BuildingBlock: AJUNOK_clean_linker_0, # of connection points: 2
#     Edge 75, Type (0, 0), BuildingBlock: AJUNOK_clean_linker_0, # of connection points: 2
#     Edge 76, Type (0, 0), BuildingBlock: AJUNOK_clean_linker_0, # of connection points: 2
#     Edge 77, Type (0, 0), BuildingBlock: AJUNOK_clean_linker_0, # of connection points: 2
#     Edge 78, Type (0, 0), BuildingBlock: AJUNOK_clean_linker_0, # of connection points: 2
#     Edge 79, Type (0, 0), BuildingBlock: AJUNOK_clean_linker_0, # of connection points: 2
#     Edge 80, Type (0, 0), BuildingBlock: AJUNOK_clean_linker_0, # of connection points: 2
#     Edge 81, Type (0, 0), BuildingBlock: AJUNOK_clean_linker_0, # of connection points: 2
#     Edge 82, Type (0, 0), BuildingBlock: AJUNOK_clean_linker_0, # of connection points: 2
#     Edge 83, Type (0, 0), BuildingBlock: AJUNOK_clean_linker_0, # of connection points: 2
#     Edge 84, Type (0, 0), BuildingBlock: AJUNOK_clean_linker_0, # of connection points: 2
#     Edge 85, Type (0, 0), BuildingBlock: AJUNOK_clean_linker_0, # of connection points: 2
#     Edge 86, Type (0, 0), BuildingBlock: AJUNOK_clean_linker_0, # of connection points: 2
#     Edge 87, Type (0, 0), BuildingBlock: AJUNOK_clean_linker_0, # of connection points: 2
#     Edge 88, Type (0, 0), BuildingBlock: AJUNOK_clean_linker_0, # of connection points: 2
#     Edge 89, Type (0, 0), BuildingBlock: AJUNOK_clean_linker_0, # of connection points: 2
#     Edge 90, Type (0, 0), BuildingBlock: AJUNOK_clean_linker_0, # of connection points: 2
#     Edge 91, Type (0, 0), BuildingBlock: AJUNOK_clean_linker_0, # of connection points: 2
#     Edge 92, Type (0, 0), BuildingBlock: AJUNOK_clean_linker_0, # of connection points: 2
#     Edge 93, Type (0, 0), BuildingBlock: AJUNOK_clean_linker_0, # of connection points: 2
#     Edge 94, Type (0, 0), BuildingBlock: AJUNOK_clean_linker_0, # of connection points: 2
#     Edge 95, Type (0, 0), BuildingBlock: AJUNOK_clean_linker_0, # of connection points: 2
#     Edge 96, Type (0, 0), BuildingBlock: AJUNOK_clean_linker_0, # of connection points: 2
#     Edge 97, Type (0, 0), BuildingBlock: AJUNOK_clean_linker_0, # of connection points: 2
#     Edge 98, Type (0, 0), BuildingBlock: AJUNOK_clean_linker_0, # of connection points: 2
#     Edge 99, Type (0, 0), BuildingBlock: AJUNOK_clean_linker_0, # of connection points: 2
#     Edge 100, Type (0, 0), BuildingBlock: AJUNOK_clean_linker_0, # of connection points: 2
#     Edge 101, Type (0, 0), BuildingBlock: AJUNOK_clean_linker_0, # of connection points: 2
#     Edge 102, Type (0, 0), BuildingBlock: AJUNOK_clean_linker_0, # of connection points: 2
#     Edge 103, Type (0, 0), BuildingBlock: AJUNOK_clean_linker_0, # of connection points: 2
#     Edge 104, Type (0, 0), BuildingBlock: AJUNOK_clean_linker_0, # of connection points: 2
#     Edge 105, Type (0, 0), BuildingBlock: AJUNOK_clean_linker_0, # of connection points: 2
#     Edge 106, Type (0, 0), BuildingBlock: AJUNOK_clean_linker_0, # of connection points: 2
#     Edge 107, Type (0, 0), BuildingBlock: AJUNOK_clean_linker_0, # of connection points: 2
# Relax obj value: 0.175
# Max RMSD: 0.157
# Mean RMSD: 0.157
data_MOF--net-cha--node1-AZAVOO_clean_sbu_0--edge1-AJUNOK_clean_linker_0
_symmetry_space_group_name_H-M    P1
_symmetry_Int_Tables_number       1
_symmetry_cell_setting            triclinic
loop_
_symmetry_equiv_pos_as_xyz
'x, y, z'
_cell_length_a     48.446869
_cell_length_b     48.494523
_cell_length_c     53.379437
_cell_angle_alpha  90.036812
_cell_angle_beta   90.030087
_cell_angle_gamma 119.99467
loop_
_atom_site_label
_atom_site_type_symbol
_atom_site_fract_x
_atom_site_fract_y
_atom_site_fract_z
_atom_type_partial_charge
Mg0 Mg 0.02787 0.25603 0.09343 0.0
O1 O 0.98529 0.20394 0.09062 0.0
O2 O 0.00101 0.18031 0.06263 0.0
Mg3 Mg 0.05159 0.21415 0.04984 0.0
C4 C 0.98032 0.17946 0.07789 0.0
C5 C 0.01405 0.29663 0.12413 0.0
O6 O 0.03075 0.31335 0.10479 0.0
O7 O 0.05394 0.23923 0.11926 0.0
O8 O 0.06625 0.2135 0.09064 0.0
O9 O 0.0087 0.26992 0.06082 0.0
O10 O 0.04404 0.2539 0.05781 0.0
C11 C 0.06583 0.22193 0.11326 0.0
C12 C 0.02586 0.2625 0.04692 0.0
O13 O 0.00683 0.26772 0.12615 0.0
Mg14 Mg 0.7801 0.79363 0.09293 0.0
O15 O 0.83139 0.80017 0.09388 0.0
O16 O 0.86245 0.83921 0.06712 0.0
Mg17 Mg 0.83588 0.86623 0.06282 0.0
C18 C 0.85751 0.81638 0.08177 0.0
C19 C 0.73409 0.73874 0.12415 0.0
O20 O 0.71515 0.74578 0.11151 0.0
O21 O 0.78911 0.83076 0.12279 0.0
O22 O 0.83509 0.86064 0.10553 0.0
O23 O 0.77128 0.76741 0.05779 0.0
O24 O 0.79058 0.81976 0.05927 0.0
C25 C 0.81366 0.85798 0.12056 0.0
C26 C 0.78255 0.79435 0.04624 0.0
O27 O 0.76398 0.75573 0.1215 0.0
Mg28 Mg 0.24199 0.00655 0.09326 0.0
O29 O 0.23957 0.05318 0.0954 0.0
O30 O 0.19712 0.04369 0.07216 0.0
Mg31 Mg 0.17488 -0.0052 0.05425 0.0
C32 C 0.22047 0.06167 0.08637 0.0
C33 C 0.29602 0.01108 0.12411 0.0
O34 O 0.29298 0.99195 0.10555 0.0
O35 O 0.19947 0.9815 0.12 0.0
O36 O 0.16037 0.97434 0.09387 0.0
O37 O 0.27335 0.02443 0.05952 0.0
O38 O 0.2207 -0.00327 0.05808 0.0
C39 C 0.17009 0.97143 0.11545 0.0
C40 C 0.2474 0.01243 0.04646 0.0
O41 O 0.27695 0.02187 0.12525 0.0
Mg42 Mg 0.25136 0.02977 0.89096 0.0
O43 O 0.20064 0.98445 0.88974 0.0
O44 O 0.17041 -0.00352 0.91392 0.0
Mg45 Mg 0.19906 0.04781 0.9274 0.0
C46 C 0.17407 0.97694 0.90029 0.0
C47 C 0.2964 0.01452 0.86447 0.0
O48 O 0.31051 0.02709 0.88587 0.0
O49 O 0.23859 0.05678 0.86275 0.0
O50 O 0.2081 0.06799 0.88707 0.0
O51 O 0.26225 0.01139 0.92527 0.0
O52 O 0.24214 0.04334 0.92613 0.0
C53 C 0.22155 0.06966 0.86609 0.0
C54 C 0.25126 0.02629 0.9383 0.0
O55 O 0.26922 0.01134 0.85996 0.0
Mg56 Mg 0.0038 0.24563 0.89277 0.0
O57 O 0.04898 0.24057 0.89024 0.0
O58 O 0.03913 0.19933 0.91491 0.0
Mg59 Mg -0.00949 0.17992 0.93324 0.0
C60 C 0.05701 0.22139 0.89973 0.0
C61 C 0.0143 0.30122 0.86158 0.0
O62 O 0.00206 0.30491 0.88241 0.0
O63 O 0.9765 0.20265 0.86731 0.0
O64 O 0.96886 0.16395 0.89392 0.0
O65 O 0.02475 0.27843 0.9252 0.0
O66 O -0.00676 0.22626 0.92864 0.0
C67 C 0.96576 0.17335 0.87227 0.0
C68 C 0.01091 0.25342 0.93927 0.0
O69 O 0.01922 0.27797 0.85956 0.0
Mg70 Mg 0.79443 0.78291 0.89148 0.0
O71 O 0.79438 0.83056 0.88891 0.0
O72 O 0.83465 0.86533 0.91309 0.0
Mg73 Mg 0.86019 0.84119 0.92985 0.0
C74 C 0.81124 0.85826 0.89845 0.0
C75 C 0.73596 0.73491 0.86318 0.0
O76 O 0.73472 0.71939 0.88369 0.0
O77 O 0.83672 0.8013 0.86459 0.0
O78 O 0.87513 0.83551 0.89011 0.0
O79 O 0.76321 0.76943 0.9249 0.0
O80 O 0.81566 0.79523 0.92714 0.0
C81 C 0.8658 0.82197 0.86877 0.0
C82 C 0.78864 0.78399 0.93849 0.0
O83 O 0.75901 0.76294 0.85982 0.0
Mg84 Mg 0.00245 0.78043 0.89182 0.0
O85 O 0.04824 0.83071 0.89232 0.0
O86 O 0.03858 0.8593 0.92029 0.0
Mg87 Mg 0.98705 0.83085 0.93314 0.0
C88 C 0.05703 0.85628 0.9049 0.0
C89 C 0.00876 0.73427 0.85913 0.0
O90 O 0.98638 0.71672 0.87532 0.0
O91 O 0.97782 0.79821 0.86532 0.0
O92 O 0.97044 0.82909 0.89235 0.0
O93 O 0.02056 0.76645 0.92473 0.0
O94 O 0.98915 0.78726 0.92758 0.0
C95 C 0.96834 0.81783 0.8703 0.0
C96 C 0.00647 0.77759 0.93855 0.0
O97 O 0.02106 0.76434 0.85996 0.0
Mg98 Mg 0.25173 0.24477 0.89257 0.0
O99 O 0.20127 0.23905 0.88938 0.0
O100 O 0.16856 0.19397 0.90961 0.0
Mg101 Mg 0.19759 0.17385 0.92735 0.0
C102 C 0.17341 0.21803 0.89659 0.0
C103 C 0.29953 0.29576 0.85874 0.0
O104 O 0.31727 0.28803 0.87231 0.0
O105 O 0.24006 0.2052 0.86423 0.0
O106 O 0.20898 0.16296 0.8879 0.0
O107 O 0.26135 0.27368 0.92681 0.0
O108 O 0.24084 0.22151 0.92721 0.0
C109 C 0.22316 0.17522 0.86725 0.0
C110 C 0.24992 0.24756 0.93957 0.0
O111 O 0.26962 0.28109 0.86216 0.0
Mg112 Mg 0.7912 0.03186 0.89268 0.0
O113 O 0.79151 0.98423 0.8897 0.0
O114 O 0.8329 0.99083 0.91302 0.0
Mg115 Mg 0.85771 0.04008 0.93066 0.0
C116 C 0.80927 0.97408 0.89867 0.0
C117 C 0.73073 0.01809 0.86594 0.0
O118 O 0.72641 0.02608 0.88849 0.0
O119 O 0.83313 0.05604 0.86582 0.0
O120 O 0.87234 0.06204 0.89128 0.0
O121 O 0.76027 0.01474 0.92652 0.0
O122 O 0.81294 0.04068 0.92781 0.0
C123 C 0.8625 0.06592 0.87005 0.0
C124 C 0.78619 0.02601 0.93952 0.0
O125 O 0.75623 0.01794 0.86086 0.0
Mg126 Mg 0.78219 0.0121 0.09464 0.0
O127 O 0.83662 0.05252 0.09378 0.0
O128 O 0.85874 0.03967 0.06222 0.0
Mg129 Mg 0.82684 0.9868 0.05849 0.0
C130 C 0.86011 0.05915 0.07897 0.0
C131 C 0.74208 0.02953 0.12214 0.0
O132 O 0.72765 0.01602 0.10107 0.0
O133 O 0.78866 0.97878 0.12077 0.0
O134 O 0.83291 0.99158 0.10129 0.0
O135 O 0.77442 0.0341 0.06145 0.0
O136 O 0.78629 -0.00436 0.05929 0.0
C137 C 0.8123 0.97475 0.11758 0.0
C138 C 0.78102 0.01605 0.04786 0.0
O139 O 0.76959 0.03354 0.12661 0.0
Mg140 Mg 0.0307 0.79539 0.09237 0.0
O141 O 0.98421 0.79801 0.09301 0.0
O142 O -0.00658 0.83909 0.06836 0.0
Mg143 Mg 0.04365 0.86165 0.05261 0.0
C144 C 0.97533 0.81609 0.08273 0.0
C145 C 0.02484 0.74234 0.12405 0.0
O146 O 0.04586 0.74637 0.10679 0.0
O147 O 0.0555 0.83779 0.11899 0.0
O148 O 0.06286 0.8767 0.09273 0.0
O149 O 0.01242 0.7636 0.05927 0.0
O150 O 0.0426 0.8161 0.05693 0.0
C151 C 0.06544 0.86707 0.11444 0.0
C152 C 0.026 0.78912 0.04577 0.0
O153 O 0.01354 0.76097 0.1243 0.0
Mg154 Mg 0.23754 0.25401 0.09418 0.0
O155 O 0.23723 0.206 0.0958 0.0
O156 O 0.19585 0.17265 0.07181 0.0
Mg157 Mg 0.17274 0.19837 0.05376 0.0
C158 C 0.21906 0.17846 0.08633 0.0
C159 C 0.29388 0.3013 0.12322 0.0
O160 O 0.29552 0.3158 0.10203 0.0
O161 O 0.19444 0.2343 0.12007 0.0
O162 O 0.15638 0.20249 0.09322 0.0
O163 O 0.27018 0.26963 0.06119 0.0
O164 O 0.21753 0.24303 0.05872 0.0
C165 C 0.16536 0.21454 0.11506 0.0
C166 C 0.2447 0.25534 0.04765 0.0
O167 O 0.27082 0.27336 0.12686 0.0
Mg168 Mg 0.68978 0.58845 0.42669 0.0
O169 O 0.64565 0.53772 0.4306 0.0
O170 O 0.65797 0.50638 0.40812 0.0
Mg171 Mg 0.70548 0.53576 0.38819 0.0
C172 C 0.63913 0.51026 0.42251 0.0
C173 C 0.67956 0.63487 0.45582 0.0
O174 O 0.69185 0.64937 0.43451 0.0
O175 O 0.71995 0.57673 0.45231 0.0
O176 O 0.73137 0.54789 0.42612 0.0
O177 O 0.66831 0.59883 0.3938 0.0
O178 O 0.69912 0.57733 0.39131 0.0
C179 C 0.73421 0.56136 0.44729 0.0
C180 C 0.68186 0.58691 0.38016 0.0
O181 O 0.67479 0.60694 0.45924 0.0
Mg182 Mg 0.44502 0.12939 0.43185 0.0
O183 O 0.49437 0.12997 0.43295 0.0
O184 O 0.52586 0.166 0.40431 0.0
Mg185 Mg 0.50596 0.19901 0.40099 0.0
C186 C 0.51968 0.14316 0.41936 0.0
C187 C 0.39988 0.0648 0.45458 0.0
O188 O 0.38936 0.06119 0.43145 0.0
O189 O 0.45786 0.16844 0.46167 0.0
O190 O 0.50298 0.18988 0.44278 0.0
O191 O 0.43422 0.10291 0.3961 0.0
O192 O 0.45833 0.15553 0.39724 0.0
C193 C 0.48443 0.19319 0.45748 0.0
C194 C 0.44823 0.12973 0.38428 0.0
O195 O 0.42371 0.09106 0.46128 0.0
Mg196 Mg 0.90773 0.33782 0.42394 0.0
O197 O 0.90342 0.38299 0.42777 0.0
O198 O 0.85831 0.37246 0.40811 0.0
Mg199 Mg 0.83631 0.32329 0.39026 0.0
C200 C 0.88301 0.39085 0.42094 0.0
C201 C 0.96334 0.34485 0.45593 0.0
O202 O 0.9593 0.32138 0.44122 0.0
O203 O 0.86836 0.31123 0.45277 0.0
O204 O 0.82594 0.3019 0.42993 0.0
O205 O 0.93642 0.357 0.38943 0.0
O206 O 0.88378 0.32756 0.38968 0.0
C207 C 0.8384 0.29954 0.45034 0.0
C208 C 0.90977 0.34452 0.37727 0.0
O209 O 0.94464 0.35594 0.45408 0.0
Mg210 Mg 0.9158 0.36086 0.22178 0.0
O211 O 0.86225 0.31911 0.21881 0.0
O212 O 0.83362 0.32932 0.24653 0.0
Mg213 Mg 0.86375 0.38224 0.25247 0.0
C214 C 0.83626 0.31095 0.23075 0.0
C215 C 0.96006 0.34687 0.19394 0.0
O216 O 0.9767 0.36418 0.21315 0.0
O217 O 0.91271 0.39411 0.1928 0.0
O218 O 0.86721 0.37887 0.21013 0.0
O219 O 0.92033 0.33923 0.25642 0.0
O220 O 0.90647 0.3764 0.25669 0.0
C221 C 0.88937 0.3985 0.19607 0.0
C222 C 0.91162 0.35642 0.26899 0.0
O223 O 0.9311 0.33946 0.19182 0.0
Mg224 Mg 0.67264 0.57922 0.22486 0.0
O225 O 0.71591 0.56983 0.22579 0.0
O226 O 0.70725 0.5356 0.25716 0.0
Mg227 Mg 0.65394 0.51028 0.26112 0.0
C228 C 0.72507 0.55466 0.24011 0.0
C229 C 0.68314 0.63222 0.19233 0.0
O230 O 0.66011 0.62797 0.20766 0.0
O231 O 0.64239 0.53894 0.19725 0.0
O232 O 0.65977 0.51278 0.21858 0.0
O233 O 0.69143 0.60879 0.25878 0.0
O234 O 0.65649 0.55709 0.26001 0.0
C235 C 0.64031 0.51255 0.20262 0.0
C236 C 0.67461 0.58328 0.27184 0.0
O237 O 0.69464 0.61388 0.19393 0.0
Mg238 Mg 0.45176 0.11301 0.22885 0.0
O239 O 0.45595 0.16235 0.22303 0.0
O240 O 0.50193 0.19819 0.24074 0.0
Mg241 Mg 0.52535 0.17222 0.2583 0.0
C242 C 0.47654 0.19105 0.22864 0.0
C243 C 0.4033 0.06344 0.19242 0.0
O244 O 0.41832 0.04858 0.19975 0.0
O245 O 0.48909 0.12173 0.19888 0.0
O246 O 0.53284 0.15625 0.21958 0.0
O247 O 0.42556 0.10705 0.26392 0.0
O248 O 0.47792 0.12866 0.26272 0.0
C249 C 0.51925 0.13941 0.20021 0.0
C250 C 0.45249 0.12073 0.27574 0.0
O251 O 0.41225 0.09127 0.2005 0.0
Mg252 Mg 0.66973 0.11355 0.22676 0.0
O253 O 0.71185 0.16544 0.22236 0.0
O254 O 0.69717 0.19564 0.24382 0.0
Mg255 Mg 0.64945 0.1643 0.26308 0.0
C256 C 0.71697 0.19265 0.22994 0.0
C257 C 0.68211 0.06904 0.19561 0.0
O258 O 0.66766 0.05151 0.21533 0.0
O259 O 0.63797 0.12194 0.2 0.0
O260 O 0.62482 0.15092 0.22448 0.0
O261 O 0.69285 0.1063 0.2602 0.0
O262 O 0.65931 0.12469 0.26186 0.0
C263 C 0.62296 0.13685 0.20377 0.0
C264 C 0.67849 0.11778 0.27334 0.0
O265 O 0.68735 0.09735 0.19456 0.0
Mg266 Mg 0.92221 0.58391 0.22385 0.0
O267 O 0.86841 0.57136 0.22353 0.0
O268 O 0.84298 0.53421 0.25319 0.0
Mg269 Mg 0.87375 0.51196 0.25787 0.0
C270 C 0.84374 0.55404 0.23704 0.0
C271 C 0.96418 0.62998 0.18651 0.0
O272 O 0.97971 0.61644 0.19557 0.0
O273 O 0.91659 0.54568 0.19558 0.0
O274 O 0.87251 0.51613 0.21541 0.0
O275 O 0.92875 0.61135 0.25824 0.0
O276 O 0.91564 0.56063 0.25864 0.0
C277 C 0.89331 0.51821 0.19999 0.0
C278 C 0.92075 0.5857 0.27092 0.0
O279 O 0.93584 0.62025 0.19374 0.0
Mg280 Mg 0.45507 0.36493 0.22252 0.0
O281 O 0.45988 0.319 0.21946 0.0
O282 O 0.49158 0.32089 0.25093 0.0
Mg283 Mg 0.52229 0.37399 0.25653 0.0
C284 C 0.47185 0.30598 0.2333 0.0
C285 C 0.39457 0.34892 0.19639 0.0
O286 O 0.39084 0.35757 0.21888 0.0
O287 O 0.49535 0.39476 0.19518 0.0
O288 O 0.51943 0.37291 0.21358 0.0
O289 O 0.42593 0.34428 0.2563 0.0
O290 O 0.47808 0.37693 0.25817 0.0
C291 C 0.52091 0.39441 0.19918 0.0
C292 C 0.45165 0.35853 0.26962 0.0
O293 O 0.41975 0.34819 0.19131 0.0
Mg294 Mg 0.44158 0.33926 0.42428 0.0
O295 O 0.49319 0.38371 0.42759 0.0
O296 O 0.52223 0.38121 0.39584 0.0
Mg297 Mg 0.49644 0.32884 0.38671 0.0
C298 C 0.51866 0.39587 0.41432 0.0
C299 C 0.39453 0.3448 0.45725 0.0
O300 O 0.37713 0.32656 0.43872 0.0
O301 O 0.45365 0.30743 0.44815 0.0
O302 O 0.5001 0.32778 0.42943 0.0
O303 O 0.43251 0.36167 0.39111 0.0
O304 O 0.45108 0.32824 0.38889 0.0
C305 C 0.48019 0.3084 0.44507 0.0
C306 C 0.44334 0.34687 0.37775 0.0
O307 O 0.42436 0.35533 0.45743 0.0
Mg308 Mg 0.69718 0.12962 0.42927 0.0
O309 O 0.64915 0.12959 0.43177 0.0
O310 O 0.65738 0.17216 0.40959 0.0
Mg311 Mg 0.70848 0.19968 0.39576 0.0
C312 C 0.63935 0.14746 0.42246 0.0
C313 C 0.68062 0.06679 0.45494 0.0
O314 O 0.68772 0.06169 0.4323 0.0
O315 O 0.72117 0.16858 0.45861 0.0
O316 O 0.72909 0.21024 0.43573 0.0
O317 O 0.68087 0.10154 0.39421 0.0
O318 O 0.70835 0.154 0.3944 0.0
C319 C 0.73209 0.19834 0.45619 0.0
C320 C 0.69318 0.12788 0.38171 0.0
O321 O 0.68147 0.09282 0.45978 0.0
Mg322 Mg 0.91174 0.58763 0.42587 0.0
O323 O 0.90631 0.53761 0.42994 0.0
O324 O 0.8619 0.50461 0.4088 0.0
Mg325 Mg 0.84197 0.53274 0.3894 0.0
C326 C 0.88561 0.50975 0.42247 0.0
C327 C 0.96628 0.63673 0.45615 0.0
O328 O 0.9646 0.65273 0.43692 0.0
O329 O 0.87084 0.57587 0.45262 0.0
O330 O 0.82966 0.54561 0.42757 0.0
O331 O 0.9418 0.59728 0.39199 0.0
O332 O 0.88929 0.57555 0.39121 0.0
C333 C 0.841 0.55985 0.44838 0.0
C334 C 0.91553 0.58473 0.37929 0.0
O335 O 0.94671 0.60706 0.45758 0.0
Mg336 Mg 0.36448 0.92416 0.76084 0.0
O337 O 0.3178 0.87504 0.76424 0.0
O338 O 0.32612 0.84152 0.74077 0.0
Mg339 Mg 0.37441 0.86791 0.72175 0.0
C340 C 0.30885 0.84722 0.75552 0.0
C341 C 0.35118 0.97008 0.78972 0.0
O342 O 0.35894 0.98325 0.76744 0.0
O343 O 0.39042 0.90723 0.78689 0.0
O344 O 0.39658 0.87453 0.76097 0.0
O345 O 0.34517 0.937 0.7276 0.0
O346 O 0.37285 0.91211 0.72529 0.0
C347 C 0.40035 0.88785 0.78236 0.0
C348 C 0.35677 0.92306 0.71413 0.0
O349 O 0.35079 0.94407 0.79362 0.0
Mg350 Mg 0.11331 0.45807 0.75975 0.0
O351 O 0.16537 0.46764 0.76463 0.0
O352 O 0.19509 0.51154 0.74204 0.0
Mg353 Mg 0.16404 0.52795 0.72237 0.0
C354 C 0.19248 0.48935 0.75646 0.0
C355 C 0.0682 0.39896 0.78629 0.0
O356 O 0.05575 0.39634 0.76395 0.0
O357 O 0.12207 0.49879 0.78598 0.0
O358 O 0.15096 0.54009 0.76076 0.0
O359 O 0.10562 0.4271 0.72673 0.0
O360 O 0.12402 0.47883 0.72424 0.0
C361 C 0.13708 0.52858 0.78165 0.0
C362 C 0.11604 0.45232 0.71301 0.0
O363 O 0.09464 0.42348 0.79161 0.0
Mg364 Mg 0.57328 0.6713 0.76251 0.0
O365 O 0.56739 0.71606 0.76099 0.0
O366 O 0.52985 0.70555 0.73208 0.0
Mg367 Mg 0.5082 0.65427 0.71893 0.0
C368 C 0.5506 0.72427 0.74784 0.0
C369 C 0.63003 0.68554 0.79374 0.0
O370 O 0.63007 0.66826 0.77478 0.0
O371 O 0.52973 0.64555 0.78827 0.0
O372 O 0.49337 0.63707 0.75905 0.0
O373 O 0.60545 0.68908 0.72898 0.0
O374 O 0.55359 0.65697 0.72649 0.0
C375 C 0.50082 0.63477 0.7816 0.0
C376 C 0.58025 0.6739 0.71519 0.0
O377 O 0.60753 0.69175 0.79524 0.0
Mg378 Mg 0.58979 0.70105 0.56108 0.0
O379 O 0.54051 0.65465 0.55729 0.0
O380 O 0.50694 0.66371 0.57993 0.0
Mg381 Mg 0.53337 0.7126 0.59809 0.0
C382 C 0.5126 0.64599 0.56566 0.0
C383 C 0.63503 0.68575 0.5333 0.0
O384 O 0.64732 0.69186 0.55594 0.0
O385 O 0.57444 0.72725 0.53399 0.0
O386 O 0.5407 0.73382 0.55833 0.0
O387 O 0.60093 0.68127 0.59464 0.0
O388 O 0.57766 0.71059 0.59627 0.0
C389 C 0.5548 0.73711 0.53738 0.0
C390 C 0.58762 0.69384 0.60776 0.0
O391 O 0.60972 0.68662 0.52904 0.0
Mg392 Mg 0.33568 0.90771 0.55904 0.0
O393 O 0.38091 0.90231 0.55974 0.0
O394 O 0.36844 0.8613 0.58545 0.0
Mg395 Mg 0.31682 0.83902 0.59788 0.0
C396 C 0.38827 0.88388 0.57148 0.0
C397 C 0.34834 0.96421 0.52809 0.0
O398 O 0.33243 0.96565 0.5475 0.0
O399 O 0.31055 0.8669 0.53148 0.0
O400 O 0.29921 0.82619 0.55697 0.0
O401 O 0.35289 0.93832 0.59292 0.0
O402 O 0.32126 0.88626 0.59449 0.0
C403 C 0.29841 0.83721 0.53539 0.0
C404 C 0.33803 0.91276 0.60631 0.0
O405 O 0.35508 0.94211 0.52699 0.0
Mg406 Mg 0.12346 0.44773 0.55753 0.0
O407 O 0.12606 0.49766 0.55742 0.0
O408 O 0.15689 0.52648 0.5896 0.0
Mg409 Mg 0.18915 0.50537 0.59383 0.0
C410 C 0.13703 0.52185 0.57211 0.0
C411 C 0.06918 0.4008 0.52547 0.0
O412 O 0.07305 0.38243 0.54149 0.0
O413 O 0.16566 0.46253 0.53097 0.0
O414 O 0.18782 0.50739 0.55112 0.0
O415 O 0.09341 0.4341 0.59147 0.0
O416 O 0.14613 0.45745 0.59279 0.0
C417 C 0.19057 0.4887 0.53608 0.0
C418 C 0.1194 0.44635 0.60455 0.0
O419 O 0.08801 0.43066 0.52624 0.0
Mg420 Mg 0.33878 0.44939 0.55713 0.0
O421 O 0.38519 0.50048 0.55388 0.0
O422 O 0.38132 0.53168 0.58325 0.0
Mg423 Mg 0.32858 0.50759 0.59068 0.0
C424 C 0.39707 0.52658 0.56649 0.0
C425 C 0.34774 0.40069 0.52913 0.0
O426 O 0.33267 0.38612 0.54971 0.0
O427 O 0.30732 0.46025 0.53078 0.0
O428 O 0.3318 0.50637 0.54847 0.0
O429 O 0.35912 0.44001 0.5913 0.0
O430 O 0.32843 0.46177 0.59257 0.0
C431 C 0.30923 0.48695 0.53475 0.0
C432 C 0.34606 0.45298 0.60429 0.0
O433 O 0.35443 0.4293 0.5256 0.0
Mg434 Mg 0.58396 0.90736 0.55675 0.0
O435 O 0.53335 0.90253 0.55715 0.0
O436 O 0.50426 0.86011 0.58155 0.0
Mg437 Mg 0.53268 0.83686 0.59324 0.0
C438 C 0.50734 0.88348 0.56846 0.0
C439 C 0.62895 0.96728 0.52953 0.0
O440 O 0.64388 0.96875 0.55047 0.0
O441 O 0.56879 0.86743 0.52778 0.0
O442 O 0.5384 0.82638 0.55246 0.0
O443 O 0.59695 0.93718 0.59124 0.0
O444 O 0.57518 0.88501 0.59229 0.0
C445 C 0.55054 0.83768 0.53109 0.0
C446 C 0.58513 0.91143 0.60443 0.0
O447 O 0.60138 0.94357 0.52565 0.0
Mg448 Mg 0.12498 0.69994 0.55699 0.0
O449 O 0.12515 0.65201 0.55583 0.0
O450 O 0.16741 0.66007 0.5786 0.0
Mg451 Mg 0.19378 0.71119 0.59291 0.0
C452 C 0.14296 0.64222 0.56536 0.0
C453 C 0.06565 0.68938 0.5304 0.0
O454 O 0.0641 0.70196 0.55177 0.0
O455 O 0.16503 0.72306 0.52833 0.0
O456 O 0.20562 0.73033 0.5526 0.0
O457 O 0.09642 0.68392 0.59199 0.0
O458 O 0.14904 0.71215 0.59125 0.0
C459 C 0.19461 0.73312 0.53157 0.0
C460 C 0.12319 0.69706 0.60406 0.0
O461 O 0.08839 0.68409 0.52637 0.0
Mg462 Mg 0.11302 0.67877 0.75839 0.0
O463 O 0.16367 0.72229 0.76346 0.0
O464 O 0.19679 0.71016 0.74353 0.0
Mg465 Mg 0.16792 0.66154 0.72486 0.0
C466 C 0.19167 0.72907 0.75673 0.0
C467 C 0.06482 0.68063 0.79318 0.0
O468 O 0.04771 0.65368 0.78109 0.0
O469 O 0.12178 0.64846 0.78659 0.0
O470 O 0.15379 0.63778 0.76358 0.0
O471 O 0.10715 0.70063 0.72386 0.0
O472 O 0.12523 0.6667 0.72428 0.0
C473 C 0.13841 0.635 0.78375 0.0
C474 C 0.11857 0.68538 0.71184 0.0
O475 O 0.0944 0.69721 0.78853 0.0
Mg476 Mg 0.36105 0.45932 0.76145 0.0
O477 O 0.31891 0.47006 0.76438 0.0
O478 O 0.33174 0.5132 0.7408 0.0
Mg479 Mg 0.38174 0.53258 0.725 0.0
C480 C 0.31251 0.49078 0.75531 0.0
C481 C 0.35321 0.40376 0.79135 0.0
O482 O 0.37796 0.41112 0.77699 0.0
O483 O 0.38898 0.49544 0.7938 0.0
O484 O 0.39219 0.52666 0.76375 0.0
O485 O 0.34129 0.43226 0.72557 0.0
O486 O 0.37418 0.48384 0.72548 0.0
C487 C 0.39827 0.52337 0.78607 0.0
C488 C 0.35629 0.45833 0.71297 0.0
O489 O 0.3396 0.4203 0.7899 0.0
Mg490 Mg 0.5741 0.91984 0.76029 0.0
O491 O 0.56986 0.86973 0.75962 0.0
O492 O 0.52729 0.83935 0.73561 0.0
Mg493 Mg 0.50506 0.86828 0.7217 0.0
C494 C 0.55067 0.84315 0.74912 0.0
C495 C 0.63056 0.965 0.79175 0.0
O496 O 0.63101 0.98282 0.77304 0.0
O497 O 0.53277 0.90273 0.78807 0.0
O498 O 0.49249 0.87334 0.76215 0.0
O499 O 0.60486 0.93488 0.72597 0.0
O500 O 0.55235 0.91109 0.72496 0.0
C501 C 0.50309 0.88487 0.78386 0.0
C502 C 0.57888 0.92228 0.71293 0.0
O503 O 0.60906 0.93588 0.79222 0.0
C504 C 0.1132 0.24121 0.13986 0.0
C505 C 0.08444 0.21521 0.13147 0.0
C506 C 0.14103 0.23907 0.14042 0.0
C507 C 0.14011 0.21097 0.13239 0.0
H508 H 0.11554 0.26457 0.14141 0.0
H509 H 0.16367 0.26091 0.14242 0.0
S510 S 0.0678 0.13276 0.12204 0.0
N511 N 0.0545 0.15801 0.12512 0.0
N512 N 0.1068 0.15395 0.12614 0.0
C513 C 0.1103 0.18306 0.13095 0.0
C514 C 0.08213 0.18523 0.13043 0.0
C515 C 0.81987 0.93514 0.14203 0.0
C516 C 0.80697 0.94263 0.1213 0.0
C517 C 0.82053 0.90649 0.14258 0.0
C518 C 0.80839 0.88507 0.12238 0.0
H519 H 0.83082 0.9521 0.15718 0.0
H520 H 0.83179 0.90175 0.15824 0.0
S521 S 0.77013 0.8931 0.06495 0.0
N522 N 0.78009 0.92579 0.08115 0.0
N523 N 0.7814 0.87219 0.08215 0.0
C524 C 0.79394 0.89167 0.10234 0.0
C525 C 0.79321 0.9205 0.10181 0.0
C526 C 0.11557 0.89212 0.1383 0.0
C527 C 0.08714 0.89174 0.13216 0.0
C528 C 0.1446 0.92103 0.13873 0.0
C529 C 0.14531 0.94969 0.13304 0.0
H530 H 0.11635 0.87017 0.13819 0.0
H531 H 0.1665 0.92012 0.13887 0.0
S532 S 0.07575 0.96162 0.12931 0.0
N533 N 0.06021 0.92256 0.13039 0.0
N534 N 0.11476 0.9769 0.13139 0.0
C535 C 0.11645 0.94988 0.13378 0.0
C536 C 0.08706 0.92061 0.13323 0.0
C537 C 0.25409 0.12367 0.84995 0.0
C538 C 0.22489 0.09485 0.84888 0.0
C539 C 0.25461 0.15285 0.85033 0.0
C540 C 0.22594 0.15351 0.84953 0.0
H541 H 0.27571 0.12358 0.85505 0.0
H542 H 0.27658 0.174 0.85573 0.0
S543 S 0.14658 0.08609 0.83317 0.0
N544 N 0.16912 0.06972 0.83717 0.0
N545 N 0.17013 0.12473 0.83771 0.0
C546 C 0.19823 0.12574 0.84211 0.0
C547 C 0.19768 0.09611 0.84183 0.0
C548 C 0.94488 0.12022 0.85352 0.0
C549 C 0.94377 0.1486 0.8548 0.0
C550 C 0.91665 0.09079 0.85253 0.0
C551 C 0.88696 0.08939 0.85308 0.0
H552 H 0.96696 0.1205 0.85749 0.0
H553 H 0.918 0.06945 0.85586 0.0
S554 S 0.87287 0.15716 0.84469 0.0
N555 N 0.91194 0.17375 0.8475 0.0
N556 N 0.85872 0.11832 0.84572 0.0
C557 C 0.88622 0.11742 0.84782 0.0
C558 C 0.91499 0.14741 0.84878 0.0
C559 C 0.8906 0.7965 0.84504 0.0
C560 C 0.89091 0.82479 0.85153 0.0
C561 C 0.91899 0.79534 0.84555 0.0
C562 C 0.9478 0.82247 0.85246 0.0
H563 H 0.86825 0.77419 0.84419 0.0
H564 H 0.91727 0.77219 0.84508 0.0
S565 S 0.96235 0.90477 0.85715 0.0
N566 N 0.92323 0.88236 0.85452 0.0
N567 N 0.97655 0.88012 0.85555 0.0
C568 C 0.94912 0.85202 0.85206 0.0
C569 C 0.92038 0.85322 0.85152 0.0
C570 C 0.76215 0.53945 0.4716 0.0
C571 C 0.76135 0.5663 0.46272 0.0
C572 C 0.79093 0.53911 0.47213 0.0
C573 C 0.81926 0.56558 0.46371 0.0
H574 H 0.7401 0.51728 0.47455 0.0
H575 H 0.79011 0.51666 0.47541 0.0
S576 S 0.83033 0.64374 0.44444 0.0
N577 N 0.79183 0.62175 0.45031 0.0
N578 N 0.84584 0.62114 0.45136 0.0
C579 C 0.8195 0.59426 0.45943 0.0
C580 C 0.7903 0.59459 0.45885 0.0
C581 C 0.46088 0.25623 0.46726 0.0
C582 C 0.48532 0.28254 0.45455 0.0
C583 C 0.46182 0.22791 0.47002 0.0
C584 C 0.48714 0.22492 0.46003 0.0
H585 H 0.43988 0.25669 0.47361 0.0
H586 H 0.44159 0.20766 0.47858 0.0
S587 S 0.5601 0.28902 0.42967 0.0
N588 N 0.53809 0.30539 0.43563 0.0
N589 N 0.53957 0.25239 0.44055 0.0
C590 C 0.51326 0.25217 0.44974 0.0
C591 C 0.51243 0.28094 0.44708 0.0
C592 C 0.78873 0.27852 0.47466 0.0
C593 C 0.81636 0.27709 0.46911 0.0
C594 C 0.75926 0.25048 0.47708 0.0
C595 C 0.75702 0.2207 0.47349 0.0
H596 H 0.78896 0.3009 0.47296 0.0
H597 H 0.73786 0.2523 0.47694 0.0
S598 S 0.82429 0.20508 0.46992 0.0
N599 N 0.84119 0.24427 0.4689 0.0
N600 N 0.78574 0.19153 0.47347 0.0
C601 C 0.78531 0.21932 0.47462 0.0
C602 C 0.81532 0.24784 0.47215 0.0
C603 C 0.89758 0.44615 0.21873 0.0
C604 C 0.89597 0.43144 0.19575 0.0
C605 C 0.8986 0.47528 0.21967 0.0
C606 C 0.89822 0.49086 0.19767 0.0
H607 H 0.89723 0.43471 0.2362 0.0
H608 H 0.8988 0.48523 0.23785 0.0
S609 S 0.90113 0.46557 0.13268 0.0
N610 N 0.89904 0.43657 0.15035 0.0
N611 N 0.90113 0.49213 0.15215 0.0
C612 C 0.89973 0.47802 0.17445 0.0
C613 C 0.89858 0.44801 0.17349 0.0
C614 C 0.59561 0.46552 0.22206 0.0
C615 C 0.60908 0.48357 0.20037 0.0
C616 C 0.56701 0.43699 0.22121 0.0
C617 C 0.55058 0.42515 0.19862 0.0
H618 H 0.60713 0.47341 0.24005 0.0
H619 H 0.55768 0.42426 0.23857 0.0
S620 S 0.57402 0.46464 0.1366 0.0
N621 N 0.60298 0.48897 0.15567 0.0
N622 N 0.54833 0.43446 0.15404 0.0
C623 C 0.56283 0.44347 0.17675 0.0
C624 C 0.59234 0.47294 0.17763 0.0
C625 C 0.53945 0.10476 0.18683 0.0
C626 C 0.53993 0.13375 0.1833 0.0
C627 C 0.56811 0.10429 0.18869 0.0
C628 C 0.59752 0.13264 0.18647 0.0
H629 H 0.51772 0.08382 0.19287 0.0
H630 H 0.56725 0.08298 0.19589 0.0
S631 S 0.60971 0.21006 0.16407 0.0
N632 N 0.57075 0.188 0.16808 0.0
N633 N 0.62472 0.18707 0.17136 0.0
C634 C 0.59757 0.15953 0.17685 0.0
C635 C 0.56847 0.16001 0.17506 0.0
C636 C 0.42137 0.85551 0.80091 0.0
C637 C 0.4222 0.88489 0.79997 0.0
C638 C 0.44975 0.85455 0.80221 0.0
C639 C 0.4793 0.883 0.80203 0.0
H640 H 0.39953 0.83371 0.79644 0.0
H641 H 0.44871 0.83208 0.79847 0.0
S642 S 0.49238 0.96413 0.81233 0.0
N643 N 0.45342 0.94159 0.80871 0.0
N644 N 0.50689 0.93974 0.81085 0.0
C645 C 0.47959 0.91137 0.80794 0.0
C646 C 0.45068 0.91238 0.80675 0.0
C647 C 0.10446 0.55105 0.7961 0.0
C648 C 0.13303 0.55039 0.79838 0.0
C649 C 0.10466 0.58006 0.79729 0.0
C650 C 0.13353 0.60881 0.80042 0.0
H651 H 0.0831 0.53022 0.78935 0.0
H652 H 0.08347 0.58041 0.79125 0.0
S653 S 0.21079 0.61699 0.81906 0.0
N654 N 0.18789 0.57869 0.81271 0.0
N655 N 0.1883 0.63334 0.81477 0.0
C656 C 0.16024 0.6072 0.80846 0.0
C657 C 0.16004 0.57775 0.80732 0.0
C658 C 0.44756 0.55727 0.81043 0.0
C659 C 0.41876 0.55262 0.8003 0.0
C660 C 0.47516 0.58752 0.80938 0.0
C661 C 0.47413 0.6132 0.79798 0.0
H662 H 0.45006 0.53693 0.81529 0.0
H663 H 0.4979 0.5893 0.81351 0.0
S664 S 0.40205 0.61468 0.77706 0.0
N665 N 0.38902 0.57743 0.78542 0.0
N666 N 0.44054 0.63394 0.7835 0.0
C667 C 0.44415 0.61004 0.79331 0.0
C668 C 0.41632 0.57954 0.79439 0.0
C669 C 0.58015 0.78691 0.5128 0.0
C670 C 0.55234 0.75823 0.51877 0.0
C671 C 0.57881 0.81495 0.50944 0.0
C672 C 0.54979 0.81454 0.51279 0.0
H673 H 0.60332 0.78889 0.51494 0.0
H674 H 0.60106 0.83741 0.5095 0.0
S675 S 0.46966 0.74298 0.51466 0.0
N676 N 0.4945 0.72912 0.51752 0.0
N677 N 0.49219 0.78192 0.51115 0.0
C678 C 0.52162 0.78494 0.51147 0.0
C679 C 0.52287 0.75651 0.515 0.0
C680 C 0.24733 0.75667 0.51188 0.0
C681 C 0.21815 0.7562 0.51387 0.0
C682 C 0.27614 0.78551 0.51376 0.0
C683 C 0.2761 0.81424 0.51698 0.0
H684 H 0.24791 0.73471 0.51376 0.0
H685 H 0.29784 0.78472 0.51686 0.0
S686 S 0.20656 0.826 0.51101 0.0
N687 N 0.19133 0.787 0.50989 0.0
N688 N 0.24556 0.84132 0.51299 0.0
C689 C 0.24768 0.81442 0.51215 0.0
C690 C 0.21835 0.78503 0.51045 0.0
C691 C 0.25402 0.46802 0.51814 0.0
C692 C 0.28082 0.49071 0.53157 0.0
C693 C 0.22533 0.46862 0.51833 0.0
C694 C 0.22236 0.49185 0.53205 0.0
H695 H 0.25479 0.44894 0.50819 0.0
H696 H 0.20498 0.4499 0.50853 0.0
S697 S 0.28661 0.55881 0.56813 0.0
N698 N 0.30334 0.53896 0.55702 0.0
N699 N 0.2497 0.53982 0.55755 0.0
C700 C 0.24965 0.51592 0.54415 0.0
C701 C 0.27879 0.5154 0.54387 0.0
C702 C 0.01214 0.31727 0.16613 0.0
C703 C 0.00094 0.3103 0.14143 0.0
C704 C -0.00062 0.3301 0.18293 0.0
C705 C 0.97459 0.33549 0.17554 0.0
H706 H 0.0308 0.31279 0.17245 0.0
H707 H 0.00835 0.33497 0.20197 0.0
S708 S 0.93867 0.32257 0.11217 0.0
N709 N 0.9654 0.31106 0.10977 0.0
N710 N 0.94058 0.33436 0.14148 0.0
C711 C 0.96374 0.32912 0.15064 0.0
C712 C 0.97719 0.3167 0.1335 0.0
C713 C 0.69114 0.6999 0.15205 0.0
C714 C 0.72098 0.71093 0.14071 0.0
C715 C 0.679 0.67427 0.16874 0.0
C716 C 0.6961 0.6586 0.17425 0.0
H717 H 0.67739 0.71152 0.14844 0.0
H718 H 0.65608 0.66675 0.17736 0.0
S719 S 0.7747 0.67753 0.14818 0.0
N720 N 0.76681 0.70368 0.13519 0.0
N721 N 0.74407 0.65555 0.16656 0.0
C722 C 0.72569 0.66905 0.16256 0.0
C723 C 0.73812 0.69524 0.14576 0.0
C724 C 0.32423 0.04112 0.1626 0.0
C725 C 0.32251 0.02177 0.14232 0.0
C726 C 0.35028 0.05401 0.17893 0.0
C727 C 0.3754 0.04774 0.17581 0.0
H728 H 0.30565 0.04697 0.16566 0.0
H729 H 0.35083 0.06922 0.19404 0.0
S730 S 0.3823 -0.00222 0.12645 0.0
N731 N 0.34815 -0.00365 0.12047 0.0
N732 N 0.39685 0.02031 0.15165 0.0
C733 C 0.37361 0.02755 0.15628 0.0
C734 C 0.34722 0.01464 0.13939 0.0
C735 C 0.30706 0.00691 0.82018 0.0
C736 C 0.31211 0.00464 0.84584 0.0
C737 C 0.32099 -0.00313 0.80207 0.0
C738 C 0.33969 0.98344 0.80907 0.0
H739 H 0.29221 0.01648 0.81405 0.0
H740 H 0.31615 -0.00141 0.78249 0.0
S741 S 0.36147 0.97373 0.87372 0.0
N742 N 0.33849 0.98963 0.87735 0.0
N743 N 0.3639 0.96978 0.84319 0.0
C744 C 0.3455 0.98164 0.83462 0.0
C745 C 0.33191 0.99254 0.85306 0.0
C746 C 0.05103 0.3813 0.82996 0.0
C747 C 0.05198 0.37353 0.80476 0.0
C748 C 0.03725 0.35748 0.84816 0.0
C749 C 0.02491 0.32532 0.84174 0.0
H750 H 0.06122 0.40595 0.83565 0.0
H751 H 0.03751 0.36442 0.86749 0.0
S752 S 0.01997 0.29265 0.77802 0.0
N753 N 0.0377 0.33158 0.77394 0.0
N754 N 0.0127 0.28672 0.80836 0.0
C755 C 0.02484 0.3172 0.81647 0.0
C756 C 0.03816 0.34139 0.79788 0.0
C757 C 0.68075 0.6903 0.80968 0.0
C758 C 0.65635 0.69795 0.81229 0.0
C759 C 0.70644 0.70209 0.82642 0.0
C760 C 0.7086 0.72196 0.84625 0.0
H761 H 0.6802 0.67521 0.7945 0.0
H762 H 0.72483 0.69588 0.82371 0.0
S763 S 0.6517 0.74919 0.86199 0.0
N764 N 0.63638 0.72676 0.83681 0.0
N765 N 0.68486 0.74871 0.8682 0.0
C766 C 0.68457 0.72968 0.84938 0.0
C767 C 0.65836 0.71773 0.83239 0.0
C768 C 0.05228 0.73869 0.83182 0.0
C769 C 0.02175 0.71966 0.84204 0.0
C770 C 0.06604 0.72563 0.8164 0.0
C771 C 0.04968 0.69306 0.81027 0.0
H772 H 0.06596 0.7639 0.83602 0.0
H773 H 0.08963 0.74139 0.809 0.0
S774 S 0.96895 0.63275 0.83215 0.0
N775 N 0.97544 0.66642 0.84512 0.0
N776 N 0.00125 0.64186 0.81568 0.0
C777 C 0.01902 0.67364 0.82025 0.0
C778 C 0.00509 0.68693 0.83627 0.0
C779 C 0.30949 0.36346 0.81776 0.0
C780 C 0.3405 0.37602 0.80824 0.0
C781 C 0.29647 0.33728 0.83379 0.0
C782 C 0.31405 0.32277 0.84117 0.0
H783 H 0.29495 0.37381 0.81272 0.0
H784 H 0.2725 0.32866 0.84069 0.0
S785 S 0.39636 0.34626 0.8214 0.0
N786 N 0.38851 0.37174 0.80706 0.0
N787 N 0.36405 0.32258 0.83766 0.0
C788 C 0.34514 0.33498 0.83184 0.0
C789 C 0.35834 0.36154 0.81519 0.0
C790 C 0.70745 0.02117 0.82538 0.0
C791 C 0.70455 0.00517 0.84792 0.0
C792 C 0.68301 0.00826 0.80752 0.0
C793 C 0.65527 0.9786 0.81146 0.0
H794 H 0.72873 0.04374 0.82155 0.0
H795 H 0.68623 0.02133 0.7903 0.0
S796 S 0.63712 0.92758 0.86791 0.0
N797 N 0.6724 0.95887 0.87372 0.0
N798 N 0.6266 0.93384 0.83998 0.0
C799 C 0.65226 0.96251 0.83416 0.0
C800 C 0.67691 0.97603 0.85246 0.0
C801 C 0.72091 0.02701 0.16482 0.0
C802 C 0.72595 0.03904 0.14033 0.0
C803 C 0.7052 0.03567 0.1824 0.0
C804 C 0.69494 0.05726 0.17609 0.0
H805 H 0.72907 0.01078 0.17035 0.0
H806 H 0.70213 0.02632 0.20125 0.0
S807 S 0.70112 0.09377 0.11377 0.0
N808 N 0.71804 0.07175 0.11003 0.0
N809 N 0.68942 0.08907 0.1433 0.0
C810 C 0.69922 0.06878 0.15141 0.0
C811 C 0.71454 0.05937 0.13343 0.0
C812 C 0.98685 0.70928 0.1574 0.0
C813 C 0.01162 0.71447 0.1409 0.0
C814 C 0.97152 0.68171 0.17188 0.0
C815 C 0.98064 0.65845 0.17069 0.0
H816 H 0.9787 0.72634 0.15887 0.0
H817 H 0.95247 0.67872 0.18423 0.0
S818 S 0.04499 0.66086 0.13152 0.0
N819 N 0.04526 0.69424 0.12482 0.0
N820 N 0.01651 0.64248 0.1525 0.0
C821 C 0.00596 0.66359 0.15492 0.0
C822 C 0.02146 0.6916 0.13991 0.0
C823 C 0.31283 0.31028 0.16727 0.0
C824 C 0.31974 0.316 0.14161 0.0
C825 C 0.3373 0.32208 0.18505 0.0
C826 C 0.36935 0.33911 0.1776 0.0
H827 H 0.28838 0.29639 0.1736 0.0
H828 H 0.33111 0.31685 0.20466 0.0
S829 S 0.39989 0.36138 0.11277 0.0
N830 N 0.36073 0.34098 0.10965 0.0
N831 N 0.40685 0.36234 0.14314 0.0
C832 C 0.37657 0.34553 0.15206 0.0
C833 C 0.35167 0.33419 0.13401 0.0
C834 C 0.66132 0.65568 0.51948 0.0
C835 C 0.649 0.67562 0.51351 0.0
C836 C 0.67161 0.64291 0.50062 0.0
C837 C 0.67065 0.65037 0.47531 0.0
H838 H 0.66183 0.64888 0.53873 0.0
H839 H 0.68009 0.62685 0.50588 0.0
S840 S 0.64335 0.70408 0.45032 0.0
N841 N 0.63812 0.70387 0.4809 0.0
N842 N 0.65837 0.68057 0.44538 0.0
C843 C 0.6599 0.6716 0.46923 0.0
C844 C 0.64878 0.68404 0.48839 0.0
C845 C 0.37902 0.04426 0.49707 0.0
C846 C 0.38477 0.03839 0.47242 0.0
C847 C 0.36613 0.01975 0.51479 0.0
C848 C 0.35951 0.98886 0.50855 0.0
H849 H 0.38461 0.06798 0.50271 0.0
H850 H 0.36234 0.02531 0.53369 0.0
S851 S 0.36932 0.96122 0.44611 0.0
N852 N 0.38163 -0.00056 0.4422 0.0
N853 N 0.3584 0.95343 0.47575 0.0
C854 C 0.36462 0.98259 0.48379 0.0
C855 C 0.37699 0.00738 0.46562 0.0
C856 C 0.00362 0.34164 0.48301 0.0
C857 C 0.99028 0.35945 0.47358 0.0
C858 C 0.02906 0.35513 0.50001 0.0
C859 C 0.04239 0.38704 0.50765 0.0
H860 H -0.00589 0.31702 0.47749 0.0
H861 H 0.03855 0.34056 0.50698 0.0
S862 S 0.01617 0.44383 0.48819 0.0
N863 N -0.0077 0.41063 0.473 0.0
N864 N 0.04017 0.43598 0.50478 0.0
C865 C 0.02935 0.40513 0.49825 0.0
C866 C 0.00326 0.39132 0.48124 0.0
C867 C 0.36586 0.39665 0.48626 0.0
C868 C 0.35761 0.38448 0.51074 0.0
C869 C 0.37698 0.38295 0.46879 0.0
C870 C 0.38052 0.35692 0.47533 0.0
H871 H 0.364 0.4171 0.48056 0.0
H872 H 0.38353 0.39324 0.45023 0.0
S873 S 0.36116 0.31499 0.53623 0.0
N874 N 0.35267 0.34374 0.54014 0.0
N875 N 0.37405 0.31845 0.50711 0.0
C876 C 0.37173 0.3439 0.49935 0.0
C877 C 0.36009 0.35758 0.51714 0.0
C878 C 0.63848 0.98558 0.48521 0.0
C879 C 0.64396 0.99287 0.51085 0.0
C880 C 0.65157 0.00964 0.4671 0.0
C881 C 0.66979 0.04179 0.47414 0.0
H882 H 0.62393 0.96111 0.47909 0.0
H883 H 0.64645 0.00309 0.44754 0.0
S884 S 0.69241 0.07321 0.5388 0.0
N885 N 0.67025 0.03427 0.54236 0.0
N886 N 0.69407 0.07964 0.50831 0.0
C887 C 0.67605 0.04935 0.49969 0.0
C888 C 0.66334 0.02481 0.51808 0.0
C889 C 0.98634 0.63879 0.49941 0.0
C890 C -0.00896 0.65259 0.47547 0.0
C891 C 0.01028 0.65185 0.51761 0.0
C892 C 0.03978 0.67872 0.51225 0.0
H893 H 0.96416 0.61747 0.50402 0.0
H894 H 0.00614 0.64018 0.53564 0.0
S895 S 0.06372 0.72513 0.45336 0.0
N896 N 0.02698 0.69597 0.44805 0.0
N897 N 0.0723 0.71988 0.4823 0.0
C898 C 0.04461 0.69342 0.48883 0.0
C899 C 0.02007 0.68052 0.4704 0.0
C900 C -0.00777 0.24367 0.00857 0.0
C901 C 0.02256 0.26102 0.01953 0.0
C902 C 0.98874 0.24071 0.98246 0.0
C903 C 0.01537 0.25593 0.9666 0.0
H904 H 0.97119 0.23175 0.02025 0.0
H905 H 0.96502 0.22688 0.97462 0.0
S906 S 0.09971 0.30509 0.98619 0.0
N907 N 0.0796 0.29368 0.01277 0.0
N908 N 0.07287 0.28945 0.96361 0.0
C909 C 0.04572 0.27393 0.97735 0.0
C910 C 0.04936 0.27611 0.0039 0.0
C911 C 0.81461 0.80519 0.98029 0.0
C912 C 0.7866 0.78844 0.96585 0.0
C913 C 0.81327 0.80853 0.00633 0.0
C914 C 0.78392 0.79488 0.01879 0.0
H915 H 0.83781 0.8153 0.97158 0.0
H916 H 0.8353 0.82081 0.01687 0.0
S917 S 0.70363 0.74964 0.99028 0.0
N918 N 0.72843 0.75903 0.96643 0.0
N919 N 0.72632 0.76481 0.01533 0.0
C920 C 0.75579 0.77854 0.00477 0.0
C921 C 0.75701 0.77545 0.97829 0.0
C922 C 0.2572 0.00191 0.97767 0.0
C923 C 0.24938 0.02323 0.96604 0.0
C924 C 0.25685 -0.00111 0.00377 0.0
C925 C 0.24838 0.01683 0.01922 0.0
H926 H 0.26376 0.98737 0.96656 0.0
H927 H 0.26295 0.98217 0.01193 0.0
S928 S 0.22772 0.07728 -0.00097 0.0
N929 N 0.23436 0.06376 0.97261 0.0
N930 N 0.23315 0.05734 0.02173 0.0
C931 C 0.24075 0.03836 0.00816 0.0
C932 C 0.24136 0.04174 0.98153 0.0
C933 C 0.98687 0.77516 0.98217 0.0
C934 C 0.01206 0.78134 0.9658 0.0
C935 C -0.00851 0.7776 0.00822 0.0
C936 C 0.02166 0.7873 0.01851 0.0
H937 H 0.96331 0.76773 0.97484 0.0
H938 H 0.97147 0.77211 0.02036 0.0
S939 S 0.09551 0.8074 0.98379 0.0
N940 N 0.06821 0.79777 0.96177 0.0
N941 N 0.07708 0.80357 0.0107 0.0
C942 C 0.04712 0.79412 0.0024 0.0
C943 C 0.04226 0.79082 0.97599 0.0
C944 C 0.25553 0.27953 0.00541 0.0
C945 C 0.24668 0.25274 0.02045 0.0
C946 C 0.25606 0.27736 0.97928 0.0
C947 C 0.24804 0.24836 0.96728 0.0
H948 H 0.2616 0.30219 0.01388 0.0
H949 H 0.26281 0.29868 0.96844 0.0
S950 S 0.22636 0.17211 -0.00075 0.0
N951 N 0.23159 0.19704 0.02227 0.0
N952 N 0.23308 0.19273 0.9731 0.0
C953 C 0.23998 0.22156 0.98241 0.0
C954 C 0.2392 0.22383 0.00904 0.0
C955 C 0.7967 0.00617 0.97949 0.0
C956 C 0.7849 0.02354 0.96693 0.0
C957 C 0.79515 0.00359 0.00572 0.0
C958 C 0.78246 0.01897 0.02018 0.0
H959 H 0.80677 -0.0058 0.96896 0.0
H960 H 0.80415 0.98965 0.01468 0.0
S961 S 0.74909 0.06796 -0.00452 0.0
N962 N 0.76018 0.05622 0.9703 0.0
N963 N 0.758 0.05241 0.01951 0.0
C964 C 0.77082 0.03666 0.00758 0.0
C965 C 0.77186 0.03867 0.98094 0.0
C966 C 0.67237 0.55793 0.31314 0.0
C967 C 0.67608 0.58434 0.29944 0.0
C968 C 0.67421 0.55881 0.33938 0.0
C969 C 0.67878 0.58574 0.35273 0.0
H970 H 0.6687 0.53669 0.30355 0.0
H971 H 0.67176 0.53822 0.34928 0.0
S972 S 0.68911 0.66081 0.32581 0.0
N973 N 0.68453 0.63818 0.30123 0.0
N974 N 0.68675 0.6393 0.35055 0.0
C975 C 0.68188 0.61205 0.33933 0.0
C976 C 0.68089 0.61151 0.31265 0.0
C977 C 0.42324 0.1087 0.3429 0.0
C978 C 0.45037 0.12985 0.35666 0.0
C979 C 0.42429 0.10665 0.3168 0.0
C980 C 0.45278 0.12506 0.30334 0.0
H981 H 0.40089 0.09358 0.35241 0.0
H982 H 0.4026 0.08987 0.30719 0.0
S983 S 0.53094 0.18328 0.33094 0.0
N984 N 0.50656 0.16958 0.35515 0.0
N985 N 0.50906 0.16474 0.30616 0.0
C986 C 0.48023 0.14612 0.31697 0.0
C987 C 0.47888 0.14883 0.3436 0.0
C988 C 0.93028 0.34282 0.33516 0.0
C989 C 0.90981 0.34866 0.34993 0.0
C990 C 0.9304 0.34534 0.30905 0.0
C991 C 0.91063 0.35462 0.29672 0.0
H992 H 0.94588 0.33555 0.34382 0.0
H993 H 0.94636 0.34017 0.29846 0.0
S994 S 0.85504 0.37583 0.32743 0.0
N995 N 0.87068 0.36594 0.35083 0.0
N996 N 0.8714 0.37157 0.30164 0.0
C997 C 0.89091 0.36175 0.31142 0.0
C998 C 0.89032 0.35848 0.33808 0.0
C999 C 0.68265 0.09844 0.34129 0.0
C1000 C 0.69026 0.12695 0.35391 0.0
C1001 C 0.67963 0.09602 0.31516 0.0
C1002 C 0.68333 0.12174 0.30064 0.0
H1003 H 0.67919 0.07774 0.35163 0.0
H1004 H 0.67367 0.07359 0.30631 0.0
S1005 S 0.70497 0.20209 0.32361 0.0
N1006 N 0.7029 0.18199 0.34919 0.0
N1007 N 0.69637 0.17691 0.30013 0.0
C1008 C 0.69124 0.15043 0.31271 0.0
C1009 C 0.69496 0.15318 0.33934 0.0
C1010 C 0.90821 0.55693 0.33845 0.0
C1011 C 0.91608 0.58474 0.35189 0.0
C1012 C 0.90933 0.55728 0.31217 0.0
C1013 C 0.91802 0.58541 0.29859 0.0
H1014 H 0.90159 0.53496 0.34832 0.0
H1015 H 0.90364 0.53543 0.30249 0.0
S1016 S 0.93878 0.66404 0.32592 0.0
N1017 N 0.93168 0.64062 0.35038 0.0
N1018 N 0.93329 0.64153 0.30109 0.0
C1019 C 0.92516 0.6132 0.31211 0.0
C1020 C 0.92433 0.61279 0.33877 0.0
C1021 C 0.47176 0.3755 0.33885 0.0
C1022 C 0.44549 0.34977 0.35038 0.0
C1023 C 0.47423 0.37769 0.31259 0.0
C1024 C 0.45029 0.35437 0.29717 0.0
H1025 H 0.49046 0.39394 0.35017 0.0
H1026 H 0.4946 0.39815 0.30436 0.0
S1027 S 0.378 0.28113 0.31891 0.0
N1028 N 0.39624 0.29974 0.34494 0.0
N1029 N 0.4004 0.30381 0.29573 0.0
C1030 C 0.4243 0.32816 0.30873 0.0
C1031 C 0.42203 0.32587 0.33534 0.0
C1032 C 0.3697 0.94556 0.67123 0.0
C1033 C 0.35138 0.91958 0.68696 0.0
C1034 C 0.36515 0.94296 0.64522 0.0
C1035 C 0.34195 0.91431 0.634 0.0
H1036 H 0.38782 0.968 0.67908 0.0
H1037 H 0.3801 0.96364 0.63385 0.0
S1038 S 0.28605 0.84016 0.66793 0.0
N1039 N 0.30839 0.86497 0.69021 0.0
N1040 N 0.29911 0.85992 0.64133 0.0
C1041 C 0.32298 0.88831 0.64981 0.0
C1042 C 0.32788 0.89101 0.67631 0.0
C1043 C 0.14039 0.47593 0.67148 0.0
C1044 C 0.11716 0.45022 0.68544 0.0
C1045 C 0.14125 0.47441 0.64526 0.0
C1046 C 0.11834 0.44752 0.63211 0.0
H1047 H 0.15823 0.49724 0.68088 0.0
H1048 H 0.15962 0.49467 0.63523 0.0
S1049 S 0.05215 0.37401 0.6598 0.0
N1050 N 0.07072 0.39692 0.68413 0.0
N1051 N 0.07175 0.39462 0.63486 0.0
C1052 C 0.09478 0.42177 0.6458 0.0
C1053 C 0.09438 0.42296 0.67248 0.0
C1054 C 0.60735 0.70535 0.67676 0.0
C1055 C 0.58142 0.67846 0.68767 0.0
C1056 C 0.60871 0.71057 0.65083 0.0
C1057 C 0.58428 0.68904 0.63497 0.0
H1058 H 0.62666 0.72265 0.68831 0.0
H1059 H 0.62917 0.7314 0.64308 0.0
S1060 S 0.51192 0.61445 0.65357 0.0
N1061 N 0.5311 0.62954 0.68016 0.0
N1062 N 0.53393 0.63971 0.63145 0.0
C1063 C 0.55837 0.66205 0.64542 0.0
C1064 C 0.55686 0.65668 0.6718 0.0
C1065 C 0.35027 0.43148 0.67187 0.0
C1066 C 0.3538 0.45805 0.68529 0.0
C1067 C 0.34864 0.43047 0.64562 0.0
C1068 C 0.3498 0.45571 0.63183 0.0
H1069 H 0.34913 0.4114 0.68172 0.0
H1070 H 0.34577 0.40945 0.63609 0.0
S1071 S 0.35903 0.53081 0.65776 0.0
N1072 N 0.35821 0.51012 0.68256 0.0
N1073 N 0.35557 0.50833 0.63342 0.0
C1074 C 0.35342 0.48241 0.64494 0.0
C1075 C 0.35536 0.48358 0.67164 0.0
C1076 C 0.60076 0.94523 0.67074 0.0
C1077 C 0.57987 0.91899 0.68544 0.0
C1078 C 0.60199 0.94248 0.6446 0.0
C1079 C 0.58298 0.91317 0.63221 0.0
H1080 H 0.61593 0.96815 0.67946 0.0
H1081 H 0.61826 0.96349 0.63407 0.0
S1082 S 0.52552 0.83703 0.66286 0.0
N1083 N 0.54052 0.86287 0.68604 0.0
N1084 N 0.54321 0.85736 0.63736 0.0
C1085 C 0.5625 0.88674 0.64697 0.0
C1086 C 0.56083 0.88975 0.67345 0.0
C1087 C 0.0992 0.66335 0.66948 0.0
C1088 C 0.12196 0.68797 0.68454 0.0
C1089 C 0.09996 0.66636 0.64335 0.0
C1090 C 0.12392 0.69383 0.63149 0.0
H1091 H 0.08018 0.64201 0.678 0.0
H1092 H 0.08163 0.64709 0.63237 0.0
S1093 S 0.18942 0.76464 0.66298 0.0
N1094 N 0.16903 0.74043 0.68618 0.0
N1095 N 0.17129 0.74588 0.63691 0.0
C1096 C 0.14732 0.71827 0.64644 0.0
C1097 C 0.14608 0.71542 0.67307 0.0
C1098 C 0.89246 0.11804 0.08893 0.0
C1099 C 0.89096 0.0894 0.08166 0.0
C1100 C 0.92159 0.14717 0.08856 0.0
C1101 C 0.95013 0.14855 0.08093 0.0
H1102 H 0.87086 0.11816 0.09397 0.0
H1103 H 0.92152 0.16884 0.09338 0.0
S1104 S 0.95989 0.07918 0.06524 0.0
N1105 N 0.92134 0.06373 0.07019 0.0
N1106 N 0.97552 0.11783 0.06958 0.0
C1107 C 0.94912 0.11966 0.07537 0.0
C1108 C 0.91972 0.09028 0.07571 0.0
C1109 C 0.94041 0.83556 0.09926 0.0
C1110 C 0.94324 0.81117 0.08751 0.0
C1111 C 0.91155 0.83565 0.09888 0.0
C1112 C 0.88463 0.81144 0.08665 0.0
H1113 H 0.96113 0.85558 0.10765 0.0
H1114 H 0.91075 0.85571 0.10705 0.0
S1115 S 0.87919 0.74131 0.05431 0.0
N1116 N 0.91638 0.7613 0.0645 0.0
N1117 N 0.86195 0.76157 0.0637 0.0
C1118 C 0.88656 0.78595 0.07608 0.0
C1119 C 0.91601 0.7858 0.07653 0.0
C1120 C 0.19767 0.09445 0.10092 0.0
C1121 C 0.2244 0.09309 0.09241 0.0
C1122 C 0.19734 0.12311 0.10092 0.0
C1123 C 0.22371 0.15144 0.09242 0.0
H1124 H 0.17615 0.07281 0.10622 0.0
H1125 H 0.17556 0.12276 0.10622 0.0
S1126 S 0.30026 0.161 0.06978 0.0
N1127 N 0.27863 0.12274 0.07672 0.0
N1128 N 0.27799 0.17694 0.07672 0.0
C1129 C 0.25142 0.15093 0.08549 0.0
C1130 C 0.25177 0.12159 0.08549 0.0
C1131 C 0.12987 0.92909 0.87828 0.0
C1132 C 0.14763 0.94351 0.9001 0.0
C1133 C 0.10132 0.89944 0.87945 0.0
C1134 C 0.08983 0.88358 0.90248 0.0
H1135 H 0.13715 0.94151 0.86053 0.0
H1136 H 0.08728 0.88981 0.86258 0.0
S1137 S 0.12998 0.90939 0.96413 0.0
N1138 N 0.1534 0.93819 0.94473 0.0
N1139 N 0.10007 0.88293 0.94692 0.0
C1140 C 0.10846 0.89696 0.92401 0.0
C1141 C 0.13729 0.92684 0.92282 0.0
C1142 C 0.14541 0.24967 0.89891 0.0
C1143 C 0.14559 0.22195 0.89126 0.0
C1144 C 0.11677 0.25052 0.89978 0.0
C1145 C 0.08765 0.22372 0.89292 0.0
H1146 H 0.16703 0.26989 0.90599 0.0
H1147 H 0.11708 0.27135 0.90748 0.0
S1148 S 0.07666 0.14821 0.86646 0.0
N1149 N 0.11509 0.16912 0.87308 0.0
N1150 N 0.06151 0.17077 0.87465 0.0
C1151 C 0.08811 0.19709 0.88312 0.0
C1152 C 0.11706 0.19619 0.88229 0.0
C1153 C 0.78354 0.88799 0.90941 0.0
C1154 C 0.80371 0.8835 0.89309 0.0
C1155 C 0.78298 0.91668 0.90942 0.0
C1156 C 0.80257 0.9416 0.8931 0.0
H1157 H 0.76992 0.87021 0.92347 0.0
H1158 H 0.76898 0.92027 0.9235 0.0
S1159 S 0.85729 0.94032 0.84528 0.0
N1160 N 0.8418 0.90514 0.859 0.0
N1161 N 0.84079 0.95909 0.85902 0.0
C1162 C 0.82119 0.93651 0.8756 0.0
C1163 C 0.82175 0.90737 0.87559 0.0
C1164 C 0.54965 0.45505 0.42171 0.0
C1165 C 0.54746 0.42505 0.42276 0.0
C1166 C 0.57941 0.48318 0.42414 0.0
C1167 C 0.60762 0.48191 0.42751 0.0
H1168 H 0.52876 0.4568 0.41728 0.0
H1169 H 0.58063 0.50589 0.42135 0.0
S1170 S 0.61296 0.40894 0.437 0.0
N1171 N 0.57482 0.39566 0.43143 0.0
N1172 N 0.63045 0.44817 0.43592 0.0
C1173 C 0.60501 0.45198 0.43102 0.0
C1174 C 0.57495 0.4236 0.42862 0.0
C1175 C 0.5895 0.13465 0.40046 0.0
C1176 C 0.6052 0.13776 0.42332 0.0
C1177 C 0.5598 0.13285 0.39966 0.0
C1178 C 0.54464 0.13423 0.42168 0.0
H1179 H 0.60117 0.13551 0.38292 0.0
H1180 H 0.54964 0.13264 0.38151 0.0
S1181 S 0.57419 0.13893 0.4865 0.0
N1182 N 0.60226 0.13923 0.46868 0.0
N1183 N 0.54614 0.13599 0.46719 0.0
C1184 C 0.55877 0.13467 0.44482 0.0
C1185 C 0.58923 0.13649 0.44564 0.0
C1186 C 0.86422 0.42591 0.43874 0.0
C1187 C 0.88837 0.42287 0.42674 0.0
C1188 C 0.86495 0.45518 0.43927 0.0
C1189 C 0.88987 0.48231 0.42783 0.0
H1190 H 0.84375 0.40513 0.44654 0.0
H1191 H 0.84497 0.45617 0.44739 0.0
S1192 S 0.95926 0.48697 0.39473 0.0
N1193 N 0.93848 0.44954 0.40409 0.0
N1194 N 0.93984 0.50466 0.40505 0.0
C1195 C 0.91512 0.48003 0.41711 0.0
C1196 C 0.91438 0.4502 0.41657 0.0
C1197 C 0.77682 0.22218 0.22605 0.0
C1198 C 0.74763 0.22191 0.22431 0.0
C1199 C 0.80611 0.25113 0.22643 0.0
C1200 C 0.80692 0.2805 0.22508 0.0
H1201 H 0.77694 0.20012 0.22881 0.0
H1202 H 0.82794 0.25056 0.2294 0.0
S1203 S 0.73784 0.2923 0.21462 0.0
N1204 N 0.72199 0.25334 0.2171 0.0
N1205 N 0.77665 0.30731 0.21788 0.0
C1206 C 0.77815 0.28027 0.22106 0.0
C1207 C 0.74858 0.25107 0.22065 0.0
C1208 C 0.81345 0.58346 0.2316 0.0
C1209 C 0.81382 0.55465 0.23318 0.0
C1210 C 0.78444 0.58367 0.23248 0.0
C1211 C 0.75523 0.55507 0.23499 0.0
H1212 H 0.83566 0.60593 0.23109 0.0
H1213 H 0.78497 0.60626 0.23254 0.0
S1214 S 0.74323 0.47328 0.2337 0.0
N1215 N 0.78229 0.49683 0.23297 0.0
N1216 N 0.72823 0.49724 0.23464 0.0
C1217 C 0.75535 0.52616 0.2343 0.0
C1218 C 0.78455 0.52595 0.23339 0.0
C1219 C 0.44886 0.24888 0.24438 0.0
C1220 C 0.46605 0.27384 0.22742 0.0
C1221 C 0.44999 0.22054 0.24299 0.0
C1222 C 0.46889 0.2166 0.22497 0.0
H1223 H 0.43597 0.252 0.25966 0.0
H1224 H 0.43788 0.20256 0.25727 0.0
S1225 S 0.51706 0.27432 0.17554 0.0
N1226 N 0.50088 0.29215 0.19114 0.0
N1227 N 0.50389 0.23928 0.18908 0.0
C1228 C 0.485 0.24078 0.2072 0.0
C1229 C 0.48333 0.26935 0.20829 0.0
C1230 C 0.24928 0.81779 0.75356 0.0
C1231 C 0.27763 0.81989 0.76239 0.0
C1232 C 0.22042 0.78853 0.75377 0.0
C1233 C 0.21928 0.76063 0.76265 0.0
H1234 H 0.24989 0.83821 0.74476 0.0
H1235 H 0.19953 0.78724 0.74519 0.0
S1236 S 0.28574 0.75517 0.79193 0.0
N1237 N 0.30184 0.79283 0.78336 0.0
N1238 N 0.24786 0.73797 0.78356 0.0
C1239 C 0.2469 0.76316 0.77339 0.0
C1240 C 0.27605 0.79281 0.7733 0.0
C1241 C 0.28058 0.51774 0.76103 0.0
C1242 C 0.28176 0.48932 0.76114 0.0
C1243 C 0.25152 0.5174 0.76154 0.0
C1244 C 0.22223 0.48862 0.76214 0.0
H1245 H 0.30232 0.54054 0.75942 0.0
H1246 H 0.25202 0.53994 0.76021 0.0
S1247 S 0.21226 0.40775 0.76678 0.0
N1248 N 0.25124 0.43171 0.76512 0.0
N1249 N 0.19638 0.43101 0.76597 0.0
C1250 C 0.22306 0.46011 0.76457 0.0
C1251 C 0.25288 0.46048 0.76409 0.0
C1252 C 0.55227 0.76973 0.772 0.0
C1253 C 0.55618 0.7571 0.74937 0.0
C1254 C 0.55246 0.79893 0.77236 0.0
C1255 C 0.55684 0.81627 0.75014 0.0
H1256 H 0.54736 0.75619 0.78918 0.0
H1257 H 0.54756 0.80712 0.78978 0.0
S1258 S 0.57256 0.79552 0.68696 0.0
N1259 N 0.5675 0.76559 0.70487 0.0
N1260 N 0.56842 0.82036 0.70565 0.0
C1261 C 0.5627 0.80473 0.72785 0.0
C1262 C 0.56224 0.77515 0.72743 0.0
C1263 C 0.48555 0.5862 0.56415 0.0
C1264 C 0.4852 0.61453 0.55903 0.0
C1265 C 0.457 0.55651 0.56431 0.0
C1266 C 0.4276 0.55456 0.5591 0.0
H1267 H 0.50747 0.58726 0.57002 0.0
H1268 H 0.45765 0.53553 0.57036 0.0
S1269 S 0.41506 0.62093 0.53984 0.0
N1270 N 0.45375 0.63801 0.54521 0.0
N1271 N 0.40056 0.5826 0.54525 0.0
C1272 C 0.42761 0.58231 0.55159 0.0
C1273 C 0.45633 0.61225 0.55161 0.0
C1274 C 0.43696 0.89249 0.54757 0.0
C1275 C 0.42122 0.88937 0.57049 0.0
C1276 C 0.46614 0.89254 0.54678 0.0
C1277 C 0.48027 0.88956 0.56891 0.0
H1278 H 0.42589 0.8932 0.53013 0.0
H1279 H 0.47675 0.89319 0.52878 0.0
S1280 S 0.45142 0.8866 0.63376 0.0
N1281 N 0.42403 0.88736 0.61583 0.0
N1282 N 0.47845 0.88759 0.61439 0.0
C1283 C 0.4658 0.88873 0.59192 0.0
C1284 C 0.43636 0.88859 0.5927 0.0
C1285 C 0.14992 0.59944 0.54561 0.0
C1286 C 0.13419 0.60848 0.56306 0.0
C1287 C 0.14811 0.56963 0.54725 0.0
C1288 C 0.13101 0.54823 0.56667 0.0
H1289 H 0.16519 0.61621 0.53152 0.0
H1290 H 0.16208 0.56427 0.53437 0.0
S1291 S 0.084 0.55989 0.61595 0.0
N1292 N 0.09925 0.59295 0.59922 0.0
N1293 N 0.09659 0.53733 0.60273 0.0
C1294 C 0.11396 0.55639 0.58346 0.0
C1295 C 0.11538 0.58647 0.58154 0.0
loop_
_geom_bond_atom_site_label_1
_geom_bond_atom_site_label_2
_geom_bond_distance
_geom_bond_site_symmetry_2
_ccdc_geom_bond_type
Mg0 O1 2.028 1_455 S
Mg0 O7 1.986 . S
Mg0 O9 2.114 . S
Mg0 O10 2.251 . S
Mg0 O13 2.010 . S
O1 Mg0 2.028 1_655 S
O1 C4 1.250 . S
O2 Mg3 2.028 1_655 S
O2 C4 1.248 . S
Mg3 O2 2.028 1_455 S
Mg3 O8 2.032 . S
Mg3 O10 2.079 . S
C4 O1 1.250 . S
C4 O2 1.248 . S
C5 O6 1.264 . S
C5 O13 1.249 . S
O6 C5 1.264 . S
O7 Mg0 1.986 . S
O7 C11 1.246 . S
O8 Mg3 2.032 . S
O8 C11 1.259 . S
O9 Mg0 2.114 . S
O9 C12 1.252 . S
O10 Mg0 2.251 . S
O10 Mg3 2.079 . S
O10 C12 1.273 . S
C11 O7 1.246 . S
C11 O8 1.259 . S
C12 O9 1.252 . S
C12 O10 1.273 . S
O13 Mg0 2.010 . S
O13 C5 1.249 . S
Mg14 O15 2.028 . S
Mg14 O21 1.986 . S
Mg14 O23 2.114 . S
Mg14 O24 2.251 . S
Mg14 O27 2.010 . S
O15 Mg14 2.028 . S
O15 C18 1.250 . S
O16 Mg17 2.028 . S
O16 C18 1.248 . S
Mg17 O16 2.028 . S
Mg17 O22 2.032 . S
Mg17 O24 2.079 . S
C18 O15 1.250 . S
C18 O16 1.248 . S
C19 O20 1.264 . S
C19 O27 1.249 . S
O20 C19 1.264 . S
O21 Mg14 1.986 . S
O21 C25 1.246 . S
O22 Mg17 2.032 . S
O22 C25 1.259 . S
O23 Mg14 2.114 . S
O23 C26 1.252 . S
O24 Mg14 2.251 . S
O24 Mg17 2.079 . S
O24 C26 1.273 . S
C25 O21 1.246 . S
C25 O22 1.259 . S
C26 O23 1.252 . S
C26 O24 1.273 . S
O27 Mg14 2.010 . S
O27 C19 1.249 . S
Mg28 O29 2.028 . S
Mg28 O35 1.986 1_545 S
Mg28 O37 2.114 . S
Mg28 O38 2.251 . S
Mg28 O41 2.010 . S
O29 Mg28 2.028 . S
O29 C32 1.250 . S
O30 Mg31 2.028 . S
O30 C32 1.248 . S
Mg31 O30 2.028 . S
Mg31 O36 2.032 1_545 S
Mg31 O38 2.079 . S
C32 O29 1.250 . S
C32 O30 1.248 . S
C33 O34 1.264 . S
C33 O41 1.249 . S
O34 C33 1.264 . S
O35 Mg28 1.986 1_565 S
O35 C39 1.246 . S
O36 Mg31 2.032 1_565 S
O36 C39 1.259 . S
O37 Mg28 2.114 . S
O37 C40 1.252 . S
O38 Mg28 2.251 . S
O38 Mg31 2.079 . S
O38 C40 1.273 . S
C39 O35 1.246 . S
C39 O36 1.259 . S
C40 O37 1.252 . S
C40 O38 1.273 . S
O41 Mg28 2.010 . S
O41 C33 1.249 . S
Mg42 O43 2.028 1_545 S
Mg42 O49 1.986 . S
Mg42 O51 2.114 . S
Mg42 O52 2.251 . S
Mg42 O55 2.010 . S
O43 Mg42 2.028 1_565 S
O43 C46 1.250 . S
O44 Mg45 2.028 1_565 S
O44 C46 1.248 . S
Mg45 O44 2.028 1_545 S
Mg45 O50 2.032 . S
Mg45 O52 2.079 . S
C46 O43 1.250 . S
C46 O44 1.248 . S
C47 O48 1.264 . S
C47 O55 1.249 . S
O48 C47 1.264 . S
O49 Mg42 1.986 . S
O49 C53 1.246 . S
O50 Mg45 2.032 . S
O50 C53 1.259 . S
O51 Mg42 2.114 . S
O51 C54 1.252 . S
O52 Mg42 2.251 . S
O52 Mg45 2.079 . S
O52 C54 1.273 . S
C53 O49 1.246 . S
C53 O50 1.259 . S
C54 O51 1.252 . S
C54 O52 1.273 . S
O55 Mg42 2.010 . S
O55 C47 1.249 . S
Mg56 O57 2.028 . S
Mg56 O63 1.986 1_455 S
Mg56 O65 2.114 . S
Mg56 O66 2.251 . S
Mg56 O69 2.010 . S
O57 Mg56 2.028 . S
O57 C60 1.250 . S
O58 Mg59 2.028 . S
O58 C60 1.248 . S
Mg59 O58 2.028 . S
Mg59 O64 2.032 1_455 S
Mg59 O66 2.079 . S
C60 O57 1.250 . S
C60 O58 1.248 . S
C61 O62 1.264 . S
C61 O69 1.249 . S
O62 C61 1.264 . S
O63 Mg56 1.986 1_655 S
O63 C67 1.246 . S
O64 Mg59 2.032 1_655 S
O64 C67 1.259 . S
O65 Mg56 2.114 . S
O65 C68 1.252 . S
O66 Mg56 2.251 . S
O66 Mg59 2.079 . S
O66 C68 1.273 . S
C67 O63 1.246 . S
C67 O64 1.259 . S
C68 O65 1.252 . S
C68 O66 1.273 . S
O69 Mg56 2.010 . S
O69 C61 1.249 . S
Mg70 O71 2.028 . S
Mg70 O77 1.986 . S
Mg70 O79 2.114 . S
Mg70 O80 2.251 . S
Mg70 O83 2.010 . S
O71 Mg70 2.028 . S
O71 C74 1.250 . S
O72 Mg73 2.028 . S
O72 C74 1.248 . S
Mg73 O72 2.028 . S
Mg73 O78 2.032 . S
Mg73 O80 2.079 . S
C74 O71 1.250 . S
C74 O72 1.248 . S
C75 O76 1.264 . S
C75 O83 1.249 . S
O76 C75 1.264 . S
O77 Mg70 1.986 . S
O77 C81 1.246 . S
O78 Mg73 2.032 . S
O78 C81 1.259 . S
O79 Mg70 2.114 . S
O79 C82 1.252 . S
O80 Mg70 2.251 . S
O80 Mg73 2.079 . S
O80 C82 1.273 . S
C81 O77 1.246 . S
C81 O78 1.259 . S
C82 O79 1.252 . S
C82 O80 1.273 . S
O83 Mg70 2.010 . S
O83 C75 1.249 . S
Mg84 O85 2.028 . S
Mg84 O91 1.986 1_455 S
Mg84 O93 2.114 . S
Mg84 O94 2.251 . S
Mg84 O97 2.010 . S
O85 Mg84 2.028 . S
O85 C88 1.250 . S
O86 Mg87 2.028 . S
O86 C88 1.248 . S
Mg87 O86 2.028 . S
Mg87 O92 2.032 1_455 S
Mg87 O94 2.079 . S
C88 O85 1.250 . S
C88 O86 1.248 . S
C89 O90 1.264 . S
C89 O97 1.249 . S
O90 C89 1.264 . S
O91 Mg84 1.986 1_655 S
O91 C95 1.246 . S
O92 Mg87 2.032 1_655 S
O92 C95 1.259 . S
O93 Mg84 2.114 . S
O93 C96 1.252 . S
O94 Mg84 2.251 . S
O94 Mg87 2.079 . S
O94 C96 1.273 . S
C95 O91 1.246 . S
C95 O92 1.259 . S
C96 O93 1.252 . S
C96 O94 1.273 . S
O97 Mg84 2.010 . S
O97 C89 1.249 . S
Mg98 O99 2.028 . S
Mg98 O105 1.986 . S
Mg98 O107 2.114 . S
Mg98 O108 2.251 . S
Mg98 O111 2.010 . S
O99 Mg98 2.028 . S
O99 C102 1.250 . S
O100 Mg101 2.028 . S
O100 C102 1.248 . S
Mg101 O100 2.028 . S
Mg101 O106 2.032 . S
Mg101 O108 2.079 . S
C102 O99 1.250 . S
C102 O100 1.248 . S
C103 O104 1.264 . S
C103 O111 1.249 . S
O104 C103 1.264 . S
O105 Mg98 1.986 . S
O105 C109 1.246 . S
O106 Mg101 2.032 . S
O106 C109 1.259 . S
O107 Mg98 2.114 . S
O107 C110 1.252 . S
O108 Mg98 2.251 . S
O108 Mg101 2.079 . S
O108 C110 1.273 . S
C109 O105 1.246 . S
C109 O106 1.259 . S
C110 O107 1.252 . S
C110 O108 1.273 . S
O111 Mg98 2.010 . S
O111 C103 1.249 . S
Mg112 O113 2.028 1_545 S
Mg112 O119 1.986 . S
Mg112 O121 2.114 . S
Mg112 O122 2.251 . S
Mg112 O125 2.010 . S
O113 Mg112 2.028 1_565 S
O113 C116 1.250 . S
O114 Mg115 2.028 1_565 S
O114 C116 1.248 . S
Mg115 O114 2.028 1_545 S
Mg115 O120 2.032 . S
Mg115 O122 2.079 . S
C116 O113 1.250 . S
C116 O114 1.248 . S
C117 O118 1.264 . S
C117 O125 1.249 . S
O118 C117 1.264 . S
O119 Mg112 1.986 . S
O119 C123 1.246 . S
O120 Mg115 2.032 . S
O120 C123 1.259 . S
O121 Mg112 2.114 . S
O121 C124 1.252 . S
O122 Mg112 2.251 . S
O122 Mg115 2.079 . S
O122 C124 1.273 . S
C123 O119 1.246 . S
C123 O120 1.259 . S
C124 O121 1.252 . S
C124 O122 1.273 . S
O125 Mg112 2.010 . S
O125 C117 1.249 . S
Mg126 O127 2.028 . S
Mg126 O133 1.986 1_545 S
Mg126 O135 2.114 . S
Mg126 O136 2.251 . S
Mg126 O139 2.010 . S
O127 Mg126 2.028 . S
O127 C130 1.250 . S
O128 Mg129 2.028 . S
O128 C130 1.248 . S
Mg129 O128 2.028 . S
Mg129 O134 2.032 1_545 S
Mg129 O136 2.079 . S
C130 O127 1.250 . S
C130 O128 1.248 . S
C131 O132 1.264 . S
C131 O139 1.249 . S
O132 C131 1.264 . S
O133 Mg126 1.986 1_565 S
O133 C137 1.246 . S
O134 Mg129 2.032 1_565 S
O134 C137 1.259 . S
O135 Mg126 2.114 . S
O135 C138 1.252 . S
O136 Mg126 2.251 . S
O136 Mg129 2.079 . S
O136 C138 1.273 . S
C137 O133 1.246 . S
C137 O134 1.259 . S
C138 O135 1.252 . S
C138 O136 1.273 . S
O139 Mg126 2.010 . S
O139 C131 1.249 . S
Mg140 O141 2.028 1_455 S
Mg140 O147 1.986 . S
Mg140 O149 2.114 . S
Mg140 O150 2.251 . S
Mg140 O153 2.010 . S
O141 Mg140 2.028 1_655 S
O141 C144 1.250 . S
O142 Mg143 2.028 1_655 S
O142 C144 1.248 . S
Mg143 O142 2.028 1_455 S
Mg143 O148 2.032 . S
Mg143 O150 2.079 . S
C144 O141 1.250 . S
C144 O142 1.248 . S
C145 O146 1.264 . S
C145 O153 1.249 . S
O146 C145 1.264 . S
O147 Mg140 1.986 . S
O147 C151 1.246 . S
O148 Mg143 2.032 . S
O148 C151 1.259 . S
O149 Mg140 2.114 . S
O149 C152 1.252 . S
O150 Mg140 2.251 . S
O150 Mg143 2.079 . S
O150 C152 1.273 . S
C151 O147 1.246 . S
C151 O148 1.259 . S
C152 O149 1.252 . S
C152 O150 1.273 . S
O153 Mg140 2.010 . S
O153 C145 1.249 . S
Mg154 O155 2.028 . S
Mg154 O161 1.986 . S
Mg154 O163 2.114 . S
Mg154 O164 2.251 . S
Mg154 O167 2.010 . S
O155 Mg154 2.028 . S
O155 C158 1.250 . S
O156 Mg157 2.028 . S
O156 C158 1.248 . S
Mg157 O156 2.028 . S
Mg157 O162 2.032 . S
Mg157 O164 2.079 . S
C158 O155 1.250 . S
C158 O156 1.248 . S
C159 O160 1.264 . S
C159 O167 1.249 . S
O160 C159 1.264 . S
O161 Mg154 1.986 . S
O161 C165 1.246 . S
O162 Mg157 2.032 . S
O162 C165 1.259 . S
O163 Mg154 2.114 . S
O163 C166 1.252 . S
O164 Mg154 2.251 . S
O164 Mg157 2.079 . S
O164 C166 1.273 . S
C165 O161 1.246 . S
C165 O162 1.259 . S
C166 O163 1.252 . S
C166 O164 1.273 . S
O167 Mg154 2.010 . S
O167 C159 1.249 . S
Mg168 O169 2.028 . S
Mg168 O175 1.986 . S
Mg168 O177 2.114 . S
Mg168 O178 2.251 . S
Mg168 O181 2.010 . S
O169 Mg168 2.028 . S
O169 C172 1.250 . S
O170 Mg171 2.028 . S
O170 C172 1.248 . S
Mg171 O170 2.028 . S
Mg171 O176 2.032 . S
Mg171 O178 2.079 . S
C172 O169 1.250 . S
C172 O170 1.248 . S
C173 O174 1.264 . S
C173 O181 1.249 . S
O174 C173 1.264 . S
O175 Mg168 1.986 . S
O175 C179 1.246 . S
O176 Mg171 2.032 . S
O176 C179 1.259 . S
O177 Mg168 2.114 . S
O177 C180 1.252 . S
O178 Mg168 2.251 . S
O178 Mg171 2.079 . S
O178 C180 1.273 . S
C179 O175 1.246 . S
C179 O176 1.259 . S
C180 O177 1.252 . S
C180 O178 1.273 . S
O181 Mg168 2.010 . S
O181 C173 1.249 . S
Mg182 O183 2.028 . S
Mg182 O189 1.986 . S
Mg182 O191 2.114 . S
Mg182 O192 2.251 . S
Mg182 O195 2.010 . S
O183 Mg182 2.028 . S
O183 C186 1.250 . S
O184 Mg185 2.028 . S
O184 C186 1.248 . S
Mg185 O184 2.028 . S
Mg185 O190 2.032 . S
Mg185 O192 2.079 . S
C186 O183 1.250 . S
C186 O184 1.248 . S
C187 O188 1.264 . S
C187 O195 1.249 . S
O188 C187 1.264 . S
O189 Mg182 1.986 . S
O189 C193 1.246 . S
O190 Mg185 2.032 . S
O190 C193 1.259 . S
O191 Mg182 2.114 . S
O191 C194 1.252 . S
O192 Mg182 2.251 . S
O192 Mg185 2.079 . S
O192 C194 1.273 . S
C193 O189 1.246 . S
C193 O190 1.259 . S
C194 O191 1.252 . S
C194 O192 1.273 . S
O195 Mg182 2.010 . S
O195 C187 1.249 . S
Mg196 O197 2.028 . S
Mg196 O203 1.986 . S
Mg196 O205 2.114 . S
Mg196 O206 2.251 . S
Mg196 O209 2.010 . S
O197 Mg196 2.028 . S
O197 C200 1.250 . S
O198 Mg199 2.028 . S
O198 C200 1.248 . S
Mg199 O198 2.028 . S
Mg199 O204 2.032 . S
Mg199 O206 2.079 . S
C200 O197 1.250 . S
C200 O198 1.248 . S
C201 O202 1.264 . S
C201 O209 1.249 . S
O202 C201 1.264 . S
O203 Mg196 1.986 . S
O203 C207 1.246 . S
O204 Mg199 2.032 . S
O204 C207 1.259 . S
O205 Mg196 2.114 . S
O205 C208 1.252 . S
O206 Mg196 2.251 . S
O206 Mg199 2.079 . S
O206 C208 1.273 . S
C207 O203 1.246 . S
C207 O204 1.259 . S
C208 O205 1.252 . S
C208 O206 1.273 . S
O209 Mg196 2.010 . S
O209 C201 1.249 . S
Mg210 O211 2.028 . S
Mg210 O217 1.986 . S
Mg210 O219 2.114 . S
Mg210 O220 2.251 . S
Mg210 O223 2.010 . S
O211 Mg210 2.028 . S
O211 C214 1.250 . S
O212 Mg213 2.028 . S
O212 C214 1.248 . S
Mg213 O212 2.028 . S
Mg213 O218 2.032 . S
Mg213 O220 2.079 . S
C214 O211 1.250 . S
C214 O212 1.248 . S
C215 O216 1.264 1_655 S
C215 O223 1.249 . S
O216 C215 1.264 1_455 S
O217 Mg210 1.986 . S
O217 C221 1.246 . S
O218 Mg213 2.032 . S
O218 C221 1.259 . S
O219 Mg210 2.114 . S
O219 C222 1.252 . S
O220 Mg210 2.251 . S
O220 Mg213 2.079 . S
O220 C222 1.273 . S
C221 O217 1.246 . S
C221 O218 1.259 . S
C222 O219 1.252 . S
C222 O220 1.273 . S
O223 Mg210 2.010 . S
O223 C215 1.249 . S
Mg224 O225 2.028 . S
Mg224 O231 1.986 . S
Mg224 O233 2.114 . S
Mg224 O234 2.251 . S
Mg224 O237 2.010 . S
O225 Mg224 2.028 . S
O225 C228 1.250 . S
O226 Mg227 2.028 . S
O226 C228 1.248 . S
Mg227 O226 2.028 . S
Mg227 O232 2.032 . S
Mg227 O234 2.079 . S
C228 O225 1.250 . S
C228 O226 1.248 . S
C229 O230 1.264 . S
C229 O237 1.249 . S
O230 C229 1.264 . S
O231 Mg224 1.986 . S
O231 C235 1.246 . S
O232 Mg227 2.032 . S
O232 C235 1.259 . S
O233 Mg224 2.114 . S
O233 C236 1.252 . S
O234 Mg224 2.251 . S
O234 Mg227 2.079 . S
O234 C236 1.273 . S
C235 O231 1.246 . S
C235 O232 1.259 . S
C236 O233 1.252 . S
C236 O234 1.273 . S
O237 Mg224 2.010 . S
O237 C229 1.249 . S
Mg238 O239 2.028 . S
Mg238 O245 1.986 . S
Mg238 O247 2.114 . S
Mg238 O248 2.251 . S
Mg238 O251 2.010 . S
O239 Mg238 2.028 . S
O239 C242 1.250 . S
O240 Mg241 2.028 . S
O240 C242 1.248 . S
Mg241 O240 2.028 . S
Mg241 O246 2.032 . S
Mg241 O248 2.079 . S
C242 O239 1.250 . S
C242 O240 1.248 . S
C243 O244 1.264 . S
C243 O251 1.249 . S
O244 C243 1.264 . S
O245 Mg238 1.986 . S
O245 C249 1.246 . S
O246 Mg241 2.032 . S
O246 C249 1.259 . S
O247 Mg238 2.114 . S
O247 C250 1.252 . S
O248 Mg238 2.251 . S
O248 Mg241 2.079 . S
O248 C250 1.273 . S
C249 O245 1.246 . S
C249 O246 1.259 . S
C250 O247 1.252 . S
C250 O248 1.273 . S
O251 Mg238 2.010 . S
O251 C243 1.249 . S
Mg252 O253 2.028 . S
Mg252 O259 1.986 . S
Mg252 O261 2.114 . S
Mg252 O262 2.251 . S
Mg252 O265 2.010 . S
O253 Mg252 2.028 . S
O253 C256 1.250 . S
O254 Mg255 2.028 . S
O254 C256 1.248 . S
Mg255 O254 2.028 . S
Mg255 O260 2.032 . S
Mg255 O262 2.079 . S
C256 O253 1.250 . S
C256 O254 1.248 . S
C257 O258 1.264 . S
C257 O265 1.249 . S
O258 C257 1.264 . S
O259 Mg252 1.986 . S
O259 C263 1.246 . S
O260 Mg255 2.032 . S
O260 C263 1.259 . S
O261 Mg252 2.114 . S
O261 C264 1.252 . S
O262 Mg252 2.251 . S
O262 Mg255 2.079 . S
O262 C264 1.273 . S
C263 O259 1.246 . S
C263 O260 1.259 . S
C264 O261 1.252 . S
C264 O262 1.273 . S
O265 Mg252 2.010 . S
O265 C257 1.249 . S
Mg266 O267 2.028 . S
Mg266 O273 1.986 . S
Mg266 O275 2.114 . S
Mg266 O276 2.251 . S
Mg266 O279 2.010 . S
O267 Mg266 2.028 . S
O267 C270 1.250 . S
O268 Mg269 2.028 . S
O268 C270 1.248 . S
Mg269 O268 2.028 . S
Mg269 O274 2.032 . S
Mg269 O276 2.079 . S
C270 O267 1.250 . S
C270 O268 1.248 . S
C271 O272 1.264 1_655 S
C271 O279 1.249 . S
O272 C271 1.264 1_455 S
O273 Mg266 1.986 . S
O273 C277 1.246 . S
O274 Mg269 2.032 . S
O274 C277 1.259 . S
O275 Mg266 2.114 . S
O275 C278 1.252 . S
O276 Mg266 2.251 . S
O276 Mg269 2.079 . S
O276 C278 1.273 . S
C277 O273 1.246 . S
C277 O274 1.259 . S
C278 O275 1.252 . S
C278 O276 1.273 . S
O279 Mg266 2.010 . S
O279 C271 1.249 . S
Mg280 O281 2.028 . S
Mg280 O287 1.986 . S
Mg280 O289 2.114 . S
Mg280 O290 2.251 . S
Mg280 O293 2.010 . S
O281 Mg280 2.028 . S
O281 C284 1.250 . S
O282 Mg283 2.028 . S
O282 C284 1.248 . S
Mg283 O282 2.028 . S
Mg283 O288 2.032 . S
Mg283 O290 2.079 . S
C284 O281 1.250 . S
C284 O282 1.248 . S
C285 O286 1.264 . S
C285 O293 1.249 . S
O286 C285 1.264 . S
O287 Mg280 1.986 . S
O287 C291 1.246 . S
O288 Mg283 2.032 . S
O288 C291 1.259 . S
O289 Mg280 2.114 . S
O289 C292 1.252 . S
O290 Mg280 2.251 . S
O290 Mg283 2.079 . S
O290 C292 1.273 . S
C291 O287 1.246 . S
C291 O288 1.259 . S
C292 O289 1.252 . S
C292 O290 1.273 . S
O293 Mg280 2.010 . S
O293 C285 1.249 . S
Mg294 O295 2.028 . S
Mg294 O301 1.986 . S
Mg294 O303 2.114 . S
Mg294 O304 2.251 . S
Mg294 O307 2.010 . S
O295 Mg294 2.028 . S
O295 C298 1.250 . S
O296 Mg297 2.028 . S
O296 C298 1.248 . S
Mg297 O296 2.028 . S
Mg297 O302 2.032 . S
Mg297 O304 2.079 . S
C298 O295 1.250 . S
C298 O296 1.248 . S
C299 O300 1.264 . S
C299 O307 1.249 . S
O300 C299 1.264 . S
O301 Mg294 1.986 . S
O301 C305 1.246 . S
O302 Mg297 2.032 . S
O302 C305 1.259 . S
O303 Mg294 2.114 . S
O303 C306 1.252 . S
O304 Mg294 2.251 . S
O304 Mg297 2.079 . S
O304 C306 1.273 . S
C305 O301 1.246 . S
C305 O302 1.259 . S
C306 O303 1.252 . S
C306 O304 1.273 . S
O307 Mg294 2.010 . S
O307 C299 1.249 . S
Mg308 O309 2.028 . S
Mg308 O315 1.986 . S
Mg308 O317 2.114 . S
Mg308 O318 2.251 . S
Mg308 O321 2.010 . S
O309 Mg308 2.028 . S
O309 C312 1.250 . S
O310 Mg311 2.028 . S
O310 C312 1.248 . S
Mg311 O310 2.028 . S
Mg311 O316 2.032 . S
Mg311 O318 2.079 . S
C312 O309 1.250 . S
C312 O310 1.248 . S
C313 O314 1.264 . S
C313 O321 1.249 . S
O314 C313 1.264 . S
O315 Mg308 1.986 . S
O315 C319 1.246 . S
O316 Mg311 2.032 . S
O316 C319 1.259 . S
O317 Mg308 2.114 . S
O317 C320 1.252 . S
O318 Mg308 2.251 . S
O318 Mg311 2.079 . S
O318 C320 1.273 . S
C319 O315 1.246 . S
C319 O316 1.259 . S
C320 O317 1.252 . S
C320 O318 1.273 . S
O321 Mg308 2.010 . S
O321 C313 1.249 . S
Mg322 O323 2.028 . S
Mg322 O329 1.986 . S
Mg322 O331 2.114 . S
Mg322 O332 2.251 . S
Mg322 O335 2.010 . S
O323 Mg322 2.028 . S
O323 C326 1.250 . S
O324 Mg325 2.028 . S
O324 C326 1.248 . S
Mg325 O324 2.028 . S
Mg325 O330 2.032 . S
Mg325 O332 2.079 . S
C326 O323 1.250 . S
C326 O324 1.248 . S
C327 O328 1.264 . S
C327 O335 1.249 . S
O328 C327 1.264 . S
O329 Mg322 1.986 . S
O329 C333 1.246 . S
O330 Mg325 2.032 . S
O330 C333 1.259 . S
O331 Mg322 2.114 . S
O331 C334 1.252 . S
O332 Mg322 2.251 . S
O332 Mg325 2.079 . S
O332 C334 1.273 . S
C333 O329 1.246 . S
C333 O330 1.259 . S
C334 O331 1.252 . S
C334 O332 1.273 . S
O335 Mg322 2.010 . S
O335 C327 1.249 . S
Mg336 O337 2.028 . S
Mg336 O343 1.986 . S
Mg336 O345 2.114 . S
Mg336 O346 2.251 . S
Mg336 O349 2.010 . S
O337 Mg336 2.028 . S
O337 C340 1.250 . S
O338 Mg339 2.028 . S
O338 C340 1.248 . S
Mg339 O338 2.028 . S
Mg339 O344 2.032 . S
Mg339 O346 2.079 . S
C340 O337 1.250 . S
C340 O338 1.248 . S
C341 O342 1.264 1_565 S
C341 O349 1.249 . S
O342 C341 1.264 1_545 S
O343 Mg336 1.986 . S
O343 C347 1.246 . S
O344 Mg339 2.032 . S
O344 C347 1.259 . S
O345 Mg336 2.114 . S
O345 C348 1.252 . S
O346 Mg336 2.251 . S
O346 Mg339 2.079 . S
O346 C348 1.273 . S
C347 O343 1.246 . S
C347 O344 1.259 . S
C348 O345 1.252 . S
C348 O346 1.273 . S
O349 Mg336 2.010 . S
O349 C341 1.249 . S
Mg350 O351 2.028 . S
Mg350 O357 1.986 . S
Mg350 O359 2.114 . S
Mg350 O360 2.251 . S
Mg350 O363 2.010 . S
O351 Mg350 2.028 . S
O351 C354 1.250 . S
O352 Mg353 2.028 . S
O352 C354 1.248 . S
Mg353 O352 2.028 . S
Mg353 O358 2.032 . S
Mg353 O360 2.079 . S
C354 O351 1.250 . S
C354 O352 1.248 . S
C355 O356 1.264 . S
C355 O363 1.249 . S
O356 C355 1.264 . S
O357 Mg350 1.986 . S
O357 C361 1.246 . S
O358 Mg353 2.032 . S
O358 C361 1.259 . S
O359 Mg350 2.114 . S
O359 C362 1.252 . S
O360 Mg350 2.251 . S
O360 Mg353 2.079 . S
O360 C362 1.273 . S
C361 O357 1.246 . S
C361 O358 1.259 . S
C362 O359 1.252 . S
C362 O360 1.273 . S
O363 Mg350 2.010 . S
O363 C355 1.249 . S
Mg364 O365 2.028 . S
Mg364 O371 1.986 . S
Mg364 O373 2.114 . S
Mg364 O374 2.251 . S
Mg364 O377 2.010 . S
O365 Mg364 2.028 . S
O365 C368 1.250 . S
O366 Mg367 2.028 . S
O366 C368 1.248 . S
Mg367 O366 2.028 . S
Mg367 O372 2.032 . S
Mg367 O374 2.079 . S
C368 O365 1.250 . S
C368 O366 1.248 . S
C369 O370 1.264 . S
C369 O377 1.249 . S
O370 C369 1.264 . S
O371 Mg364 1.986 . S
O371 C375 1.246 . S
O372 Mg367 2.032 . S
O372 C375 1.259 . S
O373 Mg364 2.114 . S
O373 C376 1.252 . S
O374 Mg364 2.251 . S
O374 Mg367 2.079 . S
O374 C376 1.273 . S
C375 O371 1.246 . S
C375 O372 1.259 . S
C376 O373 1.252 . S
C376 O374 1.273 . S
O377 Mg364 2.010 . S
O377 C369 1.249 . S
Mg378 O379 2.028 . S
Mg378 O385 1.986 . S
Mg378 O387 2.114 . S
Mg378 O388 2.251 . S
Mg378 O391 2.010 . S
O379 Mg378 2.028 . S
O379 C382 1.250 . S
O380 Mg381 2.028 . S
O380 C382 1.248 . S
Mg381 O380 2.028 . S
Mg381 O386 2.032 . S
Mg381 O388 2.079 . S
C382 O379 1.250 . S
C382 O380 1.248 . S
C383 O384 1.264 . S
C383 O391 1.249 . S
O384 C383 1.264 . S
O385 Mg378 1.986 . S
O385 C389 1.246 . S
O386 Mg381 2.032 . S
O386 C389 1.259 . S
O387 Mg378 2.114 . S
O387 C390 1.252 . S
O388 Mg378 2.251 . S
O388 Mg381 2.079 . S
O388 C390 1.273 . S
C389 O385 1.246 . S
C389 O386 1.259 . S
C390 O387 1.252 . S
C390 O388 1.273 . S
O391 Mg378 2.010 . S
O391 C383 1.249 . S
Mg392 O393 2.028 . S
Mg392 O399 1.986 . S
Mg392 O401 2.114 . S
Mg392 O402 2.251 . S
Mg392 O405 2.010 . S
O393 Mg392 2.028 . S
O393 C396 1.250 . S
O394 Mg395 2.028 . S
O394 C396 1.248 . S
Mg395 O394 2.028 . S
Mg395 O400 2.032 . S
Mg395 O402 2.079 . S
C396 O393 1.250 . S
C396 O394 1.248 . S
C397 O398 1.264 . S
C397 O405 1.249 . S
O398 C397 1.264 . S
O399 Mg392 1.986 . S
O399 C403 1.246 . S
O400 Mg395 2.032 . S
O400 C403 1.259 . S
O401 Mg392 2.114 . S
O401 C404 1.252 . S
O402 Mg392 2.251 . S
O402 Mg395 2.079 . S
O402 C404 1.273 . S
C403 O399 1.246 . S
C403 O400 1.259 . S
C404 O401 1.252 . S
C404 O402 1.273 . S
O405 Mg392 2.010 . S
O405 C397 1.249 . S
Mg406 O407 2.028 . S
Mg406 O413 1.986 . S
Mg406 O415 2.114 . S
Mg406 O416 2.251 . S
Mg406 O419 2.010 . S
O407 Mg406 2.028 . S
O407 C410 1.250 . S
O408 Mg409 2.028 . S
O408 C410 1.248 . S
Mg409 O408 2.028 . S
Mg409 O414 2.032 . S
Mg409 O416 2.079 . S
C410 O407 1.250 . S
C410 O408 1.248 . S
C411 O412 1.264 . S
C411 O419 1.249 . S
O412 C411 1.264 . S
O413 Mg406 1.986 . S
O413 C417 1.246 . S
O414 Mg409 2.032 . S
O414 C417 1.259 . S
O415 Mg406 2.114 . S
O415 C418 1.252 . S
O416 Mg406 2.251 . S
O416 Mg409 2.079 . S
O416 C418 1.273 . S
C417 O413 1.246 . S
C417 O414 1.259 . S
C418 O415 1.252 . S
C418 O416 1.273 . S
O419 Mg406 2.010 . S
O419 C411 1.249 . S
Mg420 O421 2.028 . S
Mg420 O427 1.986 . S
Mg420 O429 2.114 . S
Mg420 O430 2.251 . S
Mg420 O433 2.010 . S
O421 Mg420 2.028 . S
O421 C424 1.250 . S
O422 Mg423 2.028 . S
O422 C424 1.248 . S
Mg423 O422 2.028 . S
Mg423 O428 2.032 . S
Mg423 O430 2.079 . S
C424 O421 1.250 . S
C424 O422 1.248 . S
C425 O426 1.264 . S
C425 O433 1.249 . S
O426 C425 1.264 . S
O427 Mg420 1.986 . S
O427 C431 1.246 . S
O428 Mg423 2.032 . S
O428 C431 1.259 . S
O429 Mg420 2.114 . S
O429 C432 1.252 . S
O430 Mg420 2.251 . S
O430 Mg423 2.079 . S
O430 C432 1.273 . S
C431 O427 1.246 . S
C431 O428 1.259 . S
C432 O429 1.252 . S
C432 O430 1.273 . S
O433 Mg420 2.010 . S
O433 C425 1.249 . S
Mg434 O435 2.028 . S
Mg434 O441 1.986 . S
Mg434 O443 2.114 . S
Mg434 O444 2.251 . S
Mg434 O447 2.010 . S
O435 Mg434 2.028 . S
O435 C438 1.250 . S
O436 Mg437 2.028 . S
O436 C438 1.248 . S
Mg437 O436 2.028 . S
Mg437 O442 2.032 . S
Mg437 O444 2.079 . S
C438 O435 1.250 . S
C438 O436 1.248 . S
C439 O440 1.264 . S
C439 O447 1.249 . S
O440 C439 1.264 . S
O441 Mg434 1.986 . S
O441 C445 1.246 . S
O442 Mg437 2.032 . S
O442 C445 1.259 . S
O443 Mg434 2.114 . S
O443 C446 1.252 . S
O444 Mg434 2.251 . S
O444 Mg437 2.079 . S
O444 C446 1.273 . S
C445 O441 1.246 . S
C445 O442 1.259 . S
C446 O443 1.252 . S
C446 O444 1.273 . S
O447 Mg434 2.010 . S
O447 C439 1.249 . S
Mg448 O449 2.028 . S
Mg448 O455 1.986 . S
Mg448 O457 2.114 . S
Mg448 O458 2.251 . S
Mg448 O461 2.010 . S
O449 Mg448 2.028 . S
O449 C452 1.250 . S
O450 Mg451 2.028 . S
O450 C452 1.248 . S
Mg451 O450 2.028 . S
Mg451 O456 2.032 . S
Mg451 O458 2.079 . S
C452 O449 1.250 . S
C452 O450 1.248 . S
C453 O454 1.264 . S
C453 O461 1.249 . S
O454 C453 1.264 . S
O455 Mg448 1.986 . S
O455 C459 1.246 . S
O456 Mg451 2.032 . S
O456 C459 1.259 . S
O457 Mg448 2.114 . S
O457 C460 1.252 . S
O458 Mg448 2.251 . S
O458 Mg451 2.079 . S
O458 C460 1.273 . S
C459 O455 1.246 . S
C459 O456 1.259 . S
C460 O457 1.252 . S
C460 O458 1.273 . S
O461 Mg448 2.010 . S
O461 C453 1.249 . S
Mg462 O463 2.028 . S
Mg462 O469 1.986 . S
Mg462 O471 2.114 . S
Mg462 O472 2.251 . S
Mg462 O475 2.010 . S
O463 Mg462 2.028 . S
O463 C466 1.250 . S
O464 Mg465 2.028 . S
O464 C466 1.248 . S
Mg465 O464 2.028 . S
Mg465 O470 2.032 . S
Mg465 O472 2.079 . S
C466 O463 1.250 . S
C466 O464 1.248 . S
C467 O468 1.264 . S
C467 O475 1.249 . S
O468 C467 1.264 . S
O469 Mg462 1.986 . S
O469 C473 1.246 . S
O470 Mg465 2.032 . S
O470 C473 1.259 . S
O471 Mg462 2.114 . S
O471 C474 1.252 . S
O472 Mg462 2.251 . S
O472 Mg465 2.079 . S
O472 C474 1.273 . S
C473 O469 1.246 . S
C473 O470 1.259 . S
C474 O471 1.252 . S
C474 O472 1.273 . S
O475 Mg462 2.010 . S
O475 C467 1.249 . S
Mg476 O477 2.028 . S
Mg476 O483 1.986 . S
Mg476 O485 2.114 . S
Mg476 O486 2.251 . S
Mg476 O489 2.010 . S
O477 Mg476 2.028 . S
O477 C480 1.250 . S
O478 Mg479 2.028 . S
O478 C480 1.248 . S
Mg479 O478 2.028 . S
Mg479 O484 2.032 . S
Mg479 O486 2.079 . S
C480 O477 1.250 . S
C480 O478 1.248 . S
C481 O482 1.264 . S
C481 O489 1.249 . S
O482 C481 1.264 . S
O483 Mg476 1.986 . S
O483 C487 1.246 . S
O484 Mg479 2.032 . S
O484 C487 1.259 . S
O485 Mg476 2.114 . S
O485 C488 1.252 . S
O486 Mg476 2.251 . S
O486 Mg479 2.079 . S
O486 C488 1.273 . S
C487 O483 1.246 . S
C487 O484 1.259 . S
C488 O485 1.252 . S
C488 O486 1.273 . S
O489 Mg476 2.010 . S
O489 C481 1.249 . S
Mg490 O491 2.028 . S
Mg490 O497 1.986 . S
Mg490 O499 2.114 . S
Mg490 O500 2.251 . S
Mg490 O503 2.010 . S
O491 Mg490 2.028 . S
O491 C494 1.250 . S
O492 Mg493 2.028 . S
O492 C494 1.248 . S
Mg493 O492 2.028 . S
Mg493 O498 2.032 . S
Mg493 O500 2.079 . S
C494 O491 1.250 . S
C494 O492 1.248 . S
C495 O496 1.264 1_565 S
C495 O503 1.249 . S
O496 C495 1.264 1_545 S
O497 Mg490 1.986 . S
O497 C501 1.246 . S
O498 Mg493 2.032 . S
O498 C501 1.259 . S
O499 Mg490 2.114 . S
O499 C502 1.252 . S
O500 Mg490 2.251 . S
O500 Mg493 2.079 . S
O500 C502 1.273 . S
C501 O497 1.246 . S
C501 O498 1.259 . S
C502 O499 1.252 . S
C502 O500 1.273 . S
O503 Mg490 2.010 . S
O503 C495 1.249 . S
C504 C505 1.369 . S
C504 C506 1.419 . S
C504 H508 0.930 . S
C505 C504 1.369 . S
C505 C514 1.429 . S
C506 C504 1.419 . S
C506 C507 1.363 . S
C506 H509 0.929 . S
C507 C506 1.363 . S
C507 C513 1.428 . S
H508 C504 0.930 . S
H509 C506 0.929 . S
S510 N511 1.613 . S
S510 N512 1.610 . S
N511 S510 1.613 . S
N511 C514 1.350 . S
N512 S510 1.610 . S
N512 C513 1.351 . S
C513 C507 1.428 . S
C513 N512 1.351 . S
C513 C514 1.434 . S
C514 C505 1.429 . S
C514 N511 1.350 . S
C514 C513 1.434 . S
C515 C516 1.369 . S
C515 C517 1.419 . S
C515 H519 0.930 . S
C516 C515 1.369 . S
C516 C525 1.429 . S
C517 C515 1.419 . S
C517 C518 1.363 . S
C517 H520 0.929 . S
C518 C517 1.363 . S
C518 C524 1.428 . S
H519 C515 0.930 . S
H520 C517 0.929 . S
S521 N522 1.613 . S
S521 N523 1.610 . S
N522 S521 1.613 . S
N522 C525 1.350 . S
N523 S521 1.610 . S
N523 C524 1.351 . S
C524 C518 1.428 . S
C524 N523 1.351 . S
C524 C525 1.434 . S
C525 C516 1.429 . S
C525 N522 1.350 . S
C525 C524 1.434 . S
C526 C527 1.369 . S
C526 C528 1.419 . S
C526 H530 0.930 . S
C527 C526 1.369 . S
C527 C536 1.429 . S
C528 C526 1.419 . S
C528 C529 1.363 . S
C528 H531 0.929 . S
C529 C528 1.363 . S
C529 C535 1.428 . S
H530 C526 0.930 . S
H531 C528 0.929 . S
S532 N533 1.613 . S
S532 N534 1.610 . S
N533 S532 1.613 . S
N533 C536 1.350 . S
N534 S532 1.610 . S
N534 C535 1.351 . S
C535 C529 1.428 . S
C535 N534 1.351 . S
C535 C536 1.434 . S
C536 C527 1.429 . S
C536 N533 1.350 . S
C536 C535 1.434 . S
C537 C538 1.369 . S
C537 C539 1.419 . S
C537 H541 0.930 . S
C538 C537 1.369 . S
C538 C547 1.429 . S
C539 C537 1.419 . S
C539 C540 1.363 . S
C539 H542 0.929 . S
C540 C539 1.363 . S
C540 C546 1.428 . S
H541 C537 0.930 . S
H542 C539 0.929 . S
S543 N544 1.613 . S
S543 N545 1.610 . S
N544 S543 1.613 . S
N544 C547 1.350 . S
N545 S543 1.610 . S
N545 C546 1.351 . S
C546 C540 1.428 . S
C546 N545 1.351 . S
C546 C547 1.434 . S
C547 C538 1.429 . S
C547 N544 1.350 . S
C547 C546 1.434 . S
C548 C549 1.369 . S
C548 C550 1.419 . S
C548 H552 0.930 . S
C549 C548 1.369 . S
C549 C558 1.429 . S
C550 C548 1.419 . S
C550 C551 1.363 . S
C550 H553 0.929 . S
C551 C550 1.363 . S
C551 C557 1.428 . S
H552 C548 0.930 . S
H553 C550 0.929 . S
S554 N555 1.613 . S
S554 N556 1.610 . S
N555 S554 1.613 . S
N555 C558 1.350 . S
N556 S554 1.610 . S
N556 C557 1.351 . S
C557 C551 1.428 . S
C557 N556 1.351 . S
C557 C558 1.434 . S
C558 C549 1.429 . S
C558 N555 1.350 . S
C558 C557 1.434 . S
C559 C560 1.369 . S
C559 C561 1.419 . S
C559 H563 0.930 . S
C560 C559 1.369 . S
C560 C569 1.429 . S
C561 C559 1.419 . S
C561 C562 1.363 . S
C561 H564 0.929 . S
C562 C561 1.363 . S
C562 C568 1.428 . S
H563 C559 0.930 . S
H564 C561 0.929 . S
S565 N566 1.613 . S
S565 N567 1.610 . S
N566 S565 1.613 . S
N566 C569 1.350 . S
N567 S565 1.610 . S
N567 C568 1.351 . S
C568 C562 1.428 . S
C568 N567 1.351 . S
C568 C569 1.434 . S
C569 C560 1.429 . S
C569 N566 1.350 . S
C569 C568 1.434 . S
C570 C571 1.369 . S
C570 C572 1.419 . S
C570 H574 0.930 . S
C571 C570 1.369 . S
C571 C580 1.429 . S
C572 C570 1.419 . S
C572 C573 1.363 . S
C572 H575 0.929 . S
C573 C572 1.363 . S
C573 C579 1.428 . S
H574 C570 0.930 . S
H575 C572 0.929 . S
S576 N577 1.613 . S
S576 N578 1.610 . S
N577 S576 1.613 . S
N577 C580 1.350 . S
N578 S576 1.610 . S
N578 C579 1.351 . S
C579 C573 1.428 . S
C579 N578 1.351 . S
C579 C580 1.434 . S
C580 C571 1.429 . S
C580 N577 1.350 . S
C580 C579 1.434 . S
C581 C582 1.369 . S
C581 C583 1.419 . S
C581 H585 0.930 . S
C582 C581 1.369 . S
C582 C591 1.429 . S
C583 C581 1.419 . S
C583 C584 1.363 . S
C583 H586 0.929 . S
C584 C583 1.363 . S
C584 C590 1.428 . S
H585 C581 0.930 . S
H586 C583 0.929 . S
S587 N588 1.613 . S
S587 N589 1.610 . S
N588 S587 1.613 . S
N588 C591 1.350 . S
N589 S587 1.610 . S
N589 C590 1.351 . S
C590 C584 1.428 . S
C590 N589 1.351 . S
C590 C591 1.434 . S
C591 C582 1.429 . S
C591 N588 1.350 . S
C591 C590 1.434 . S
C592 C593 1.369 . S
C592 C594 1.419 . S
C592 H596 0.930 . S
C593 C592 1.369 . S
C593 C602 1.429 . S
C594 C592 1.419 . S
C594 C595 1.363 . S
C594 H597 0.929 . S
C595 C594 1.363 . S
C595 C601 1.428 . S
H596 C592 0.930 . S
H597 C594 0.929 . S
S598 N599 1.613 . S
S598 N600 1.610 . S
N599 S598 1.613 . S
N599 C602 1.350 . S
N600 S598 1.610 . S
N600 C601 1.351 . S
C601 C595 1.428 . S
C601 N600 1.351 . S
C601 C602 1.434 . S
C602 C593 1.429 . S
C602 N599 1.350 . S
C602 C601 1.434 . S
C603 C604 1.369 . S
C603 C605 1.419 . S
C603 H607 0.930 . S
C604 C603 1.369 . S
C604 C613 1.429 . S
C605 C603 1.419 . S
C605 C606 1.363 . S
C605 H608 0.929 . S
C606 C605 1.363 . S
C606 C612 1.428 . S
H607 C603 0.930 . S
H608 C605 0.929 . S
S609 N610 1.613 . S
S609 N611 1.610 . S
N610 S609 1.613 . S
N610 C613 1.350 . S
N611 S609 1.610 . S
N611 C612 1.351 . S
C612 C606 1.428 . S
C612 N611 1.351 . S
C612 C613 1.434 . S
C613 C604 1.429 . S
C613 N610 1.350 . S
C613 C612 1.434 . S
C614 C615 1.369 . S
C614 C616 1.419 . S
C614 H618 0.930 . S
C615 C614 1.369 . S
C615 C624 1.429 . S
C616 C614 1.419 . S
C616 C617 1.363 . S
C616 H619 0.929 . S
C617 C616 1.363 . S
C617 C623 1.428 . S
H618 C614 0.930 . S
H619 C616 0.929 . S
S620 N621 1.613 . S
S620 N622 1.610 . S
N621 S620 1.613 . S
N621 C624 1.350 . S
N622 S620 1.610 . S
N622 C623 1.351 . S
C623 C617 1.428 . S
C623 N622 1.351 . S
C623 C624 1.434 . S
C624 C615 1.429 . S
C624 N621 1.350 . S
C624 C623 1.434 . S
C625 C626 1.369 . S
C625 C627 1.419 . S
C625 H629 0.930 . S
C626 C625 1.369 . S
C626 C635 1.429 . S
C627 C625 1.419 . S
C627 C628 1.363 . S
C627 H630 0.929 . S
C628 C627 1.363 . S
C628 C634 1.428 . S
H629 C625 0.930 . S
H630 C627 0.929 . S
S631 N632 1.613 . S
S631 N633 1.610 . S
N632 S631 1.613 . S
N632 C635 1.350 . S
N633 S631 1.610 . S
N633 C634 1.351 . S
C634 C628 1.428 . S
C634 N633 1.351 . S
C634 C635 1.434 . S
C635 C626 1.429 . S
C635 N632 1.350 . S
C635 C634 1.434 . S
C636 C637 1.369 . S
C636 C638 1.419 . S
C636 H640 0.930 . S
C637 C636 1.369 . S
C637 C646 1.429 . S
C638 C636 1.419 . S
C638 C639 1.363 . S
C638 H641 0.929 . S
C639 C638 1.363 . S
C639 C645 1.428 . S
H640 C636 0.930 . S
H641 C638 0.929 . S
S642 N643 1.613 . S
S642 N644 1.610 . S
N643 S642 1.613 . S
N643 C646 1.350 . S
N644 S642 1.610 . S
N644 C645 1.351 . S
C645 C639 1.428 . S
C645 N644 1.351 . S
C645 C646 1.434 . S
C646 C637 1.429 . S
C646 N643 1.350 . S
C646 C645 1.434 . S
C647 C648 1.369 . S
C647 C649 1.419 . S
C647 H651 0.930 . S
C648 C647 1.369 . S
C648 C657 1.429 . S
C649 C647 1.419 . S
C649 C650 1.363 . S
C649 H652 0.929 . S
C650 C649 1.363 . S
C650 C656 1.428 . S
H651 C647 0.930 . S
H652 C649 0.929 . S
S653 N654 1.613 . S
S653 N655 1.610 . S
N654 S653 1.613 . S
N654 C657 1.350 . S
N655 S653 1.610 . S
N655 C656 1.351 . S
C656 C650 1.428 . S
C656 N655 1.351 . S
C656 C657 1.434 . S
C657 C648 1.429 . S
C657 N654 1.350 . S
C657 C656 1.434 . S
C658 C659 1.369 . S
C658 C660 1.419 . S
C658 H662 0.930 . S
C659 C658 1.369 . S
C659 C668 1.429 . S
C660 C658 1.419 . S
C660 C661 1.363 . S
C660 H663 0.929 . S
C661 C660 1.363 . S
C661 C667 1.428 . S
H662 C658 0.930 . S
H663 C660 0.929 . S
S664 N665 1.613 . S
S664 N666 1.610 . S
N665 S664 1.613 . S
N665 C668 1.350 . S
N666 S664 1.610 . S
N666 C667 1.351 . S
C667 C661 1.428 . S
C667 N666 1.351 . S
C667 C668 1.434 . S
C668 C659 1.429 . S
C668 N665 1.350 . S
C668 C667 1.434 . S
C669 C670 1.369 . S
C669 C671 1.419 . S
C669 H673 0.930 . S
C670 C669 1.369 . S
C670 C679 1.429 . S
C671 C669 1.419 . S
C671 C672 1.363 . S
C671 H674 0.929 . S
C672 C671 1.363 . S
C672 C678 1.428 . S
H673 C669 0.930 . S
H674 C671 0.929 . S
S675 N676 1.613 . S
S675 N677 1.610 . S
N676 S675 1.613 . S
N676 C679 1.350 . S
N677 S675 1.610 . S
N677 C678 1.351 . S
C678 C672 1.428 . S
C678 N677 1.351 . S
C678 C679 1.434 . S
C679 C670 1.429 . S
C679 N676 1.350 . S
C679 C678 1.434 . S
C680 C681 1.369 . S
C680 C682 1.419 . S
C680 H684 0.930 . S
C681 C680 1.369 . S
C681 C690 1.429 . S
C682 C680 1.419 . S
C682 C683 1.363 . S
C682 H685 0.929 . S
C683 C682 1.363 . S
C683 C689 1.428 . S
H684 C680 0.930 . S
H685 C682 0.929 . S
S686 N687 1.613 . S
S686 N688 1.610 . S
N687 S686 1.613 . S
N687 C690 1.350 . S
N688 S686 1.610 . S
N688 C689 1.351 . S
C689 C683 1.428 . S
C689 N688 1.351 . S
C689 C690 1.434 . S
C690 C681 1.429 . S
C690 N687 1.350 . S
C690 C689 1.434 . S
C691 C692 1.369 . S
C691 C693 1.419 . S
C691 H695 0.930 . S
C692 C691 1.369 . S
C692 C701 1.429 . S
C693 C691 1.419 . S
C693 C694 1.363 . S
C693 H696 0.929 . S
C694 C693 1.363 . S
C694 C700 1.428 . S
H695 C691 0.930 . S
H696 C693 0.929 . S
S697 N698 1.613 . S
S697 N699 1.610 . S
N698 S697 1.613 . S
N698 C701 1.350 . S
N699 S697 1.610 . S
N699 C700 1.351 . S
C700 C694 1.428 . S
C700 N699 1.351 . S
C700 C701 1.434 . S
C701 C692 1.429 . S
C701 N698 1.350 . S
C701 C700 1.434 . S
C702 C703 1.369 1_455 S
C702 C704 1.419 1_455 S
C702 H706 0.930 . S
C703 C702 1.369 1_655 S
C703 C712 1.429 . S
C704 C702 1.419 1_655 S
C704 C705 1.363 . S
C704 H707 0.929 1_655 S
C705 C704 1.363 . S
C705 C711 1.428 . S
H706 C702 0.930 . S
H707 C704 0.929 1_455 S
S708 N709 1.613 . S
S708 N710 1.610 . S
N709 S708 1.613 . S
N709 C712 1.350 . S
N710 S708 1.610 . S
N710 C711 1.351 . S
C711 C705 1.428 . S
C711 N710 1.351 . S
C711 C712 1.434 . S
C712 C703 1.429 . S
C712 N709 1.350 . S
C712 C711 1.434 . S
C713 C714 1.369 . S
C713 C715 1.419 . S
C713 H717 0.930 . S
C714 C713 1.369 . S
C714 C723 1.429 . S
C715 C713 1.419 . S
C715 C716 1.363 . S
C715 H718 0.929 . S
C716 C715 1.363 . S
C716 C722 1.428 . S
H717 C713 0.930 . S
H718 C715 0.929 . S
S719 N720 1.613 . S
S719 N721 1.610 . S
N720 S719 1.613 . S
N720 C723 1.350 . S
N721 S719 1.610 . S
N721 C722 1.351 . S
C722 C716 1.428 . S
C722 N721 1.351 . S
C722 C723 1.434 . S
C723 C714 1.429 . S
C723 N720 1.350 . S
C723 C722 1.434 . S
C724 C725 1.369 . S
C724 C726 1.419 . S
C724 H728 0.930 . S
C725 C724 1.369 . S
C725 C734 1.429 . S
C726 C724 1.419 . S
C726 C727 1.363 . S
C726 H729 0.929 . S
C727 C726 1.363 . S
C727 C733 1.428 . S
H728 C724 0.930 . S
H729 C726 0.929 . S
S730 N731 1.613 . S
S730 N732 1.610 . S
N731 S730 1.613 . S
N731 C734 1.350 . S
N732 S730 1.610 . S
N732 C733 1.351 . S
C733 C727 1.428 . S
C733 N732 1.351 . S
C733 C734 1.434 . S
C734 C725 1.429 . S
C734 N731 1.350 . S
C734 C733 1.434 . S
C735 C736 1.369 . S
C735 C737 1.419 . S
C735 H739 0.926 1_565 S
C736 C735 1.369 . S
C736 C745 1.429 . S
C737 C735 1.419 . S
C737 C738 1.363 . S
C737 H740 0.929 . S
C738 C737 1.363 . S
C738 C744 1.428 . S
H739 C735 0.926 1_545 S
H740 C737 0.929 . S
S741 N742 1.613 . S
S741 N743 1.610 . S
N742 S741 1.613 . S
N742 C745 1.350 . S
N743 S741 1.610 . S
N743 C744 1.351 . S
C744 C738 1.428 . S
C744 N743 1.351 . S
C744 C745 1.434 . S
C745 C736 1.429 . S
C745 N742 1.350 . S
C745 C744 1.434 . S
C746 C747 1.369 . S
C746 C748 1.419 . S
C746 H750 0.930 . S
C747 C746 1.369 . S
C747 C756 1.429 . S
C748 C746 1.419 . S
C748 C749 1.363 . S
C748 H751 0.929 . S
C749 C748 1.363 . S
C749 C755 1.428 . S
H750 C746 0.930 . S
H751 C748 0.929 . S
S752 N753 1.613 . S
S752 N754 1.610 . S
N753 S752 1.613 . S
N753 C756 1.350 . S
N754 S752 1.610 . S
N754 C755 1.351 . S
C755 C749 1.428 . S
C755 N754 1.351 . S
C755 C756 1.434 . S
C756 C747 1.429 . S
C756 N753 1.350 . S
C756 C755 1.434 . S
C757 C758 1.369 . S
C757 C759 1.419 . S
C757 H761 0.930 . S
C758 C757 1.369 . S
C758 C767 1.429 . S
C759 C757 1.419 . S
C759 C760 1.363 . S
C759 H762 0.929 . S
C760 C759 1.363 . S
C760 C766 1.428 . S
H761 C757 0.930 . S
H762 C759 0.929 . S
S763 N764 1.613 . S
S763 N765 1.610 . S
N764 S763 1.613 . S
N764 C767 1.350 . S
N765 S763 1.610 . S
N765 C766 1.351 . S
C766 C760 1.428 . S
C766 N765 1.351 . S
C766 C767 1.434 . S
C767 C758 1.429 . S
C767 N764 1.350 . S
C767 C766 1.434 . S
C768 C769 1.369 . S
C768 C770 1.419 . S
C768 H772 0.930 . S
C769 C768 1.369 . S
C769 C778 1.429 . S
C770 C768 1.419 . S
C770 C771 1.363 . S
C770 H773 0.929 . S
C771 C770 1.363 . S
C771 C777 1.428 . S
H772 C768 0.930 . S
H773 C770 0.929 . S
S774 N775 1.613 1_655 S
S774 N776 1.610 1_655 S
N775 S774 1.613 1_455 S
N775 C778 1.350 . S
N776 S774 1.610 1_455 S
N776 C777 1.351 . S
C777 C771 1.428 . S
C777 N776 1.351 . S
C777 C778 1.434 . S
C778 C769 1.429 . S
C778 N775 1.350 . S
C778 C777 1.434 . S
C779 C780 1.369 . S
C779 C781 1.419 . S
C779 H783 0.930 . S
C780 C779 1.369 . S
C780 C789 1.429 . S
C781 C779 1.419 . S
C781 C782 1.363 . S
C781 H784 0.929 . S
C782 C781 1.363 . S
C782 C788 1.428 . S
H783 C779 0.930 . S
H784 C781 0.929 . S
S785 N786 1.613 . S
S785 N787 1.610 . S
N786 S785 1.613 . S
N786 C789 1.350 . S
N787 S785 1.610 . S
N787 C788 1.351 . S
C788 C782 1.428 . S
C788 N787 1.351 . S
C788 C789 1.434 . S
C789 C780 1.429 . S
C789 N786 1.350 . S
C789 C788 1.434 . S
C790 C791 1.369 1_545 S
C790 C792 1.419 1_545 S
C790 H794 0.930 . S
C791 C790 1.369 1_565 S
C791 C800 1.429 . S
C792 C790 1.419 1_565 S
C792 C793 1.363 . S
C792 H795 0.929 1_565 S
C793 C792 1.363 . S
C793 C799 1.428 . S
H794 C790 0.930 . S
H795 C792 0.929 1_545 S
S796 N797 1.613 . S
S796 N798 1.610 . S
N797 S796 1.613 . S
N797 C800 1.350 . S
N798 S796 1.610 . S
N798 C799 1.351 . S
C799 C793 1.428 . S
C799 N798 1.351 . S
C799 C800 1.434 . S
C800 C791 1.429 . S
C800 N797 1.350 . S
C800 C799 1.434 . S
C801 C802 1.369 . S
C801 C803 1.419 . S
C801 H805 0.930 . S
C802 C801 1.369 . S
C802 C811 1.429 . S
C803 C801 1.419 . S
C803 C804 1.363 . S
C803 H806 0.929 . S
C804 C803 1.363 . S
C804 C810 1.428 . S
H805 C801 0.930 . S
H806 C803 0.929 . S
S807 N808 1.613 . S
S807 N809 1.610 . S
N808 S807 1.613 . S
N808 C811 1.350 . S
N809 S807 1.610 . S
N809 C810 1.351 . S
C810 C804 1.428 . S
C810 N809 1.351 . S
C810 C811 1.434 . S
C811 C802 1.429 . S
C811 N808 1.350 . S
C811 C810 1.434 . S
C812 C813 1.369 . S
C812 C814 1.419 . S
C812 H816 0.930 . S
C813 C812 1.369 . S
C813 C822 1.429 1_655 S
C814 C812 1.419 . S
C814 C815 1.363 . S
C814 H817 0.929 . S
C815 C814 1.363 . S
C815 C821 1.428 . S
H816 C812 0.930 . S
H817 C814 0.929 . S
S818 N819 1.613 . S
S818 N820 1.610 . S
N819 S818 1.613 . S
N819 C822 1.350 . S
N820 S818 1.610 . S
N820 C821 1.351 1_455 S
C821 C815 1.428 . S
C821 N820 1.351 1_655 S
C821 C822 1.434 1_655 S
C822 C813 1.429 1_455 S
C822 N819 1.350 . S
C822 C821 1.434 1_455 S
C823 C824 1.369 . S
C823 C825 1.419 . S
C823 H827 0.930 . S
C824 C823 1.369 . S
C824 C833 1.429 . S
C825 C823 1.419 . S
C825 C826 1.363 . S
C825 H828 0.929 . S
C826 C825 1.363 . S
C826 C832 1.428 . S
H827 C823 0.930 . S
H828 C825 0.929 . S
S829 N830 1.613 . S
S829 N831 1.610 . S
N830 S829 1.613 . S
N830 C833 1.350 . S
N831 S829 1.610 . S
N831 C832 1.351 . S
C832 C826 1.428 . S
C832 N831 1.351 . S
C832 C833 1.434 . S
C833 C824 1.429 . S
C833 N830 1.350 . S
C833 C832 1.434 . S
C834 C835 1.369 . S
C834 C836 1.419 . S
C834 H838 0.930 . S
C835 C834 1.369 . S
C835 C844 1.429 . S
C836 C834 1.419 . S
C836 C837 1.363 . S
C836 H839 0.929 . S
C837 C836 1.363 . S
C837 C843 1.428 . S
H838 C834 0.930 . S
H839 C836 0.929 . S
S840 N841 1.613 . S
S840 N842 1.610 . S
N841 S840 1.613 . S
N841 C844 1.350 . S
N842 S840 1.610 . S
N842 C843 1.351 . S
C843 C837 1.428 . S
C843 N842 1.351 . S
C843 C844 1.434 . S
C844 C835 1.429 . S
C844 N841 1.350 . S
C844 C843 1.434 . S
C845 C846 1.369 . S
C845 C847 1.419 . S
C845 H849 0.930 . S
C846 C845 1.369 . S
C846 C855 1.429 . S
C847 C845 1.419 . S
C847 C848 1.363 1_545 S
C847 H850 0.929 . S
C848 C847 1.363 1_565 S
C848 C854 1.428 . S
H849 C845 0.930 . S
H850 C847 0.929 . S
S851 N852 1.613 1_565 S
S851 N853 1.610 . S
N852 S851 1.613 1_545 S
N852 C855 1.350 . S
N853 S851 1.610 . S
N853 C854 1.351 . S
C854 C848 1.428 . S
C854 N853 1.351 . S
C854 C855 1.434 1_565 S
C855 C846 1.429 . S
C855 N852 1.350 . S
C855 C854 1.434 1_545 S
C856 C857 1.369 1_455 S
C856 C858 1.419 . S
C856 H860 0.930 . S
C857 C856 1.369 1_655 S
C857 C866 1.429 1_655 S
C858 C856 1.419 . S
C858 C859 1.363 . S
C858 H861 0.929 . S
C859 C858 1.363 . S
C859 C865 1.428 . S
H860 C856 0.930 . S
H861 C858 0.929 . S
S862 N863 1.613 . S
S862 N864 1.610 . S
N863 S862 1.613 . S
N863 C866 1.350 . S
N864 S862 1.610 . S
N864 C865 1.351 . S
C865 C859 1.428 . S
C865 N864 1.351 . S
C865 C866 1.434 . S
C866 C857 1.429 1_455 S
C866 N863 1.350 . S
C866 C865 1.434 . S
C867 C868 1.369 . S
C867 C869 1.419 . S
C867 H871 0.930 . S
C868 C867 1.369 . S
C868 C877 1.429 . S
C869 C867 1.419 . S
C869 C870 1.363 . S
C869 H872 0.929 . S
C870 C869 1.363 . S
C870 C876 1.428 . S
H871 C867 0.930 . S
H872 C869 0.929 . S
S873 N874 1.613 . S
S873 N875 1.610 . S
N874 S873 1.613 . S
N874 C877 1.350 . S
N875 S873 1.610 . S
N875 C876 1.351 . S
C876 C870 1.428 . S
C876 N875 1.351 . S
C876 C877 1.434 . S
C877 C868 1.429 . S
C877 N874 1.350 . S
C877 C876 1.434 . S
C878 C879 1.369 . S
C878 C880 1.419 1_565 S
C878 H882 0.930 . S
C879 C878 1.369 . S
C879 C888 1.429 1_565 S
C880 C878 1.419 1_545 S
C880 C881 1.363 . S
C880 H883 0.929 . S
C881 C880 1.363 . S
C881 C887 1.428 . S
H882 C878 0.930 . S
H883 C880 0.929 . S
S884 N885 1.613 . S
S884 N886 1.610 . S
N885 S884 1.613 . S
N885 C888 1.350 . S
N886 S884 1.610 . S
N886 C887 1.351 . S
C887 C881 1.428 . S
C887 N886 1.351 . S
C887 C888 1.434 . S
C888 C879 1.429 1_545 S
C888 N885 1.350 . S
C888 C887 1.434 . S
C889 C890 1.371 1_455 S
C889 C891 1.415 . S
C889 H893 0.932 1_455 S
C890 C889 1.371 1_655 S
C890 C899 1.429 1_655 S
C891 C889 1.415 . S
C891 C892 1.363 . S
C891 H894 0.929 . S
C892 C891 1.363 . S
C892 C898 1.428 . S
H893 C889 0.932 1_655 S
H894 C891 0.929 . S
S895 N896 1.613 . S
S895 N897 1.610 . S
N896 S895 1.613 . S
N896 C899 1.350 . S
N897 S895 1.610 . S
N897 C898 1.351 . S
C898 C892 1.428 . S
C898 N897 1.351 . S
C898 C899 1.434 . S
C899 C890 1.429 1_455 S
C899 N896 1.350 . S
C899 C898 1.434 . S
C900 C901 1.369 1_655 S
C900 C902 1.419 1_554 S
C900 H904 0.930 . S
C901 C900 1.369 1_455 S
C901 C910 1.429 . S
C902 C900 1.419 1_556 S
C902 C903 1.363 1_655 S
C902 H905 0.929 . S
C903 C902 1.363 1_455 S
C903 C909 1.428 . S
H904 C900 0.930 . S
H905 C902 0.929 . S
S906 N907 1.619 . S
S906 N908 1.604 1_554 S
N907 S906 1.619 . S
N907 C910 1.350 . S
N908 S906 1.604 1_556 S
N908 C909 1.351 . S
C909 C903 1.428 . S
C909 N908 1.351 . S
C909 C910 1.434 1_556 S
C910 C901 1.429 . S
C910 N907 1.350 . S
C910 C909 1.434 1_554 S
C911 C912 1.369 . S
C911 C913 1.419 1_556 S
C911 H915 0.930 . S
C912 C911 1.369 . S
C912 C921 1.429 . S
C913 C911 1.419 1_554 S
C913 C914 1.363 . S
C913 H916 0.929 . S
C914 C913 1.363 . S
C914 C920 1.428 . S
H915 C911 0.930 . S
H916 C913 0.929 . S
S917 N918 1.610 1_554 S
S917 N919 1.613 . S
N918 S917 1.610 1_556 S
N918 C921 1.350 . S
N919 S917 1.613 . S
N919 C920 1.351 . S
C920 C914 1.428 . S
C920 N919 1.351 . S
C920 C921 1.434 1_554 S
C921 C912 1.429 . S
C921 N918 1.350 . S
C921 C920 1.434 1_556 S
C922 C923 1.369 . S
C922 C924 1.419 1_556 S
C922 H926 0.930 1_545 S
C923 C922 1.369 . S
C923 C932 1.429 . S
C924 C922 1.419 1_554 S
C924 C925 1.363 . S
C924 H927 0.929 1_545 S
C925 C924 1.363 . S
C925 C931 1.428 . S
H926 C922 0.930 1_565 S
H927 C924 0.929 1_565 S
S928 N929 1.616 . S
S928 N930 1.607 1_556 S
N929 S928 1.616 . S
N929 C932 1.350 . S
N930 S928 1.607 1_554 S
N930 C931 1.351 . S
C931 C925 1.428 . S
C931 N930 1.351 . S
C931 C932 1.434 1_554 S
C932 C923 1.429 . S
C932 N929 1.350 . S
C932 C931 1.434 1_556 S
C933 C934 1.341 1_655 S
C933 C935 1.419 1_556 S
C933 H937 0.959 . S
C934 C933 1.341 1_455 S
C934 C943 1.429 . S
C935 C933 1.419 1_554 S
C935 C936 1.329 1_655 S
C935 H938 0.965 . S
C936 C935 1.329 1_455 S
C936 C942 1.428 . S
H937 C933 0.959 . S
H938 C935 0.965 . S
S939 N940 1.606 1_554 S
S939 N941 1.618 . S
N940 S939 1.606 1_556 S
N940 C943 1.350 . S
N941 S939 1.618 . S
N941 C942 1.351 . S
C942 C936 1.428 . S
C942 N941 1.351 . S
C942 C943 1.434 1_554 S
C943 C934 1.429 . S
C943 N940 1.350 . S
C943 C942 1.434 1_556 S
C944 C945 1.369 . S
C944 C946 1.419 1_554 S
C944 H948 0.930 . S
C945 C944 1.369 . S
C945 C954 1.429 . S
C946 C944 1.419 1_556 S
C946 C947 1.363 . S
C946 H949 0.929 . S
C947 C946 1.363 . S
C947 C953 1.428 . S
H948 C944 0.930 . S
H949 C946 0.929 . S
S950 N951 1.608 1_556 S
S950 N952 1.615 . S
N951 S950 1.608 1_554 S
N951 C954 1.350 . S
N952 S950 1.615 . S
N952 C953 1.351 . S
C953 C947 1.428 . S
C953 N952 1.351 . S
C953 C954 1.434 1_556 S
C954 C945 1.429 . S
C954 N951 1.350 . S
C954 C953 1.434 1_554 S
C955 C956 1.369 . S
C955 C957 1.419 1_556 S
C955 H959 0.930 1_545 S
C956 C955 1.369 . S
C956 C965 1.429 . S
C957 C955 1.419 1_554 S
C957 C958 1.363 . S
C957 H960 0.929 1_545 S
C958 C957 1.363 . S
C958 C964 1.428 . S
H959 C955 0.930 1_565 S
H960 C957 0.929 1_565 S
S961 N962 1.616 . S
S961 N963 1.608 1_556 S
N962 S961 1.616 . S
N962 C965 1.350 . S
N963 S961 1.608 1_554 S
N963 C964 1.351 . S
C964 C958 1.428 . S
C964 N963 1.351 . S
C964 C965 1.434 1_554 S
C965 C956 1.429 . S
C965 N962 1.350 . S
C965 C964 1.434 1_556 S
C966 C967 1.369 . S
C966 C968 1.419 . S
C966 H970 0.930 . S
C967 C966 1.369 . S
C967 C976 1.429 . S
C968 C966 1.419 . S
C968 C969 1.363 . S
C968 H971 0.929 . S
C969 C968 1.363 . S
C969 C975 1.428 . S
H970 C966 0.930 . S
H971 C968 0.929 . S
S972 N973 1.613 . S
S972 N974 1.610 . S
N973 S972 1.613 . S
N973 C976 1.350 . S
N974 S972 1.610 . S
N974 C975 1.351 . S
C975 C969 1.428 . S
C975 N974 1.351 . S
C975 C976 1.434 . S
C976 C967 1.429 . S
C976 N973 1.350 . S
C976 C975 1.434 . S
C977 C978 1.369 . S
C977 C979 1.419 . S
C977 H981 0.930 . S
C978 C977 1.369 . S
C978 C987 1.429 . S
C979 C977 1.419 . S
C979 C980 1.363 . S
C979 H982 0.929 . S
C980 C979 1.363 . S
C980 C986 1.428 . S
H981 C977 0.930 . S
H982 C979 0.929 . S
S983 N984 1.613 . S
S983 N985 1.610 . S
N984 S983 1.613 . S
N984 C987 1.350 . S
N985 S983 1.610 . S
N985 C986 1.351 . S
C986 C980 1.428 . S
C986 N985 1.351 . S
C986 C987 1.434 . S
C987 C978 1.429 . S
C987 N984 1.350 . S
C987 C986 1.434 . S
C988 C989 1.369 . S
C988 C990 1.419 . S
C988 H992 0.930 . S
C989 C988 1.369 . S
C989 C998 1.429 . S
C990 C988 1.419 . S
C990 C991 1.363 . S
C990 H993 0.929 . S
C991 C990 1.363 . S
C991 C997 1.428 . S
H992 C988 0.930 . S
H993 C990 0.929 . S
S994 N995 1.613 . S
S994 N996 1.610 . S
N995 S994 1.613 . S
N995 C998 1.350 . S
N996 S994 1.610 . S
N996 C997 1.351 . S
C997 C991 1.428 . S
C997 N996 1.351 . S
C997 C998 1.434 . S
C998 C989 1.429 . S
C998 N995 1.350 . S
C998 C997 1.434 . S
C999 C1000 1.369 . S
C999 C1001 1.419 . S
C999 H1003 0.930 . S
C1000 C999 1.369 . S
C1000 C1009 1.429 . S
C1001 C999 1.419 . S
C1001 C1002 1.363 . S
C1001 H1004 0.929 . S
C1002 C1001 1.363 . S
C1002 C1008 1.428 . S
H1003 C999 0.930 . S
H1004 C1001 0.929 . S
S1005 N1006 1.613 . S
S1005 N1007 1.610 . S
N1006 S1005 1.613 . S
N1006 C1009 1.350 . S
N1007 S1005 1.610 . S
N1007 C1008 1.351 . S
C1008 C1002 1.428 . S
C1008 N1007 1.351 . S
C1008 C1009 1.434 . S
C1009 C1000 1.429 . S
C1009 N1006 1.350 . S
C1009 C1008 1.434 . S
C1010 C1011 1.369 . S
C1010 C1012 1.419 . S
C1010 H1014 0.930 . S
C1011 C1010 1.369 . S
C1011 C1020 1.429 . S
C1012 C1010 1.419 . S
C1012 C1013 1.363 . S
C1012 H1015 0.929 . S
C1013 C1012 1.363 . S
C1013 C1019 1.428 . S
H1014 C1010 0.930 . S
H1015 C1012 0.929 . S
S1016 N1017 1.613 . S
S1016 N1018 1.610 . S
N1017 S1016 1.613 . S
N1017 C1020 1.350 . S
N1018 S1016 1.610 . S
N1018 C1019 1.351 . S
C1019 C1013 1.428 . S
C1019 N1018 1.351 . S
C1019 C1020 1.434 . S
C1020 C1011 1.429 . S
C1020 N1017 1.350 . S
C1020 C1019 1.434 . S
C1021 C1022 1.369 . S
C1021 C1023 1.419 . S
C1021 H1025 0.930 . S
C1022 C1021 1.369 . S
C1022 C1031 1.429 . S
C1023 C1021 1.419 . S
C1023 C1024 1.363 . S
C1023 H1026 0.929 . S
C1024 C1023 1.363 . S
C1024 C1030 1.428 . S
H1025 C1021 0.930 . S
H1026 C1023 0.929 . S
S1027 N1028 1.613 . S
S1027 N1029 1.610 . S
N1028 S1027 1.613 . S
N1028 C1031 1.350 . S
N1029 S1027 1.610 . S
N1029 C1030 1.351 . S
C1030 C1024 1.428 . S
C1030 N1029 1.351 . S
C1030 C1031 1.434 . S
C1031 C1022 1.429 . S
C1031 N1028 1.350 . S
C1031 C1030 1.434 . S
C1032 C1033 1.369 . S
C1032 C1034 1.419 . S
C1032 H1036 0.930 . S
C1033 C1032 1.369 . S
C1033 C1042 1.429 . S
C1034 C1032 1.419 . S
C1034 C1035 1.363 . S
C1034 H1037 0.929 . S
C1035 C1034 1.363 . S
C1035 C1041 1.428 . S
H1036 C1032 0.930 . S
H1037 C1034 0.929 . S
S1038 N1039 1.613 . S
S1038 N1040 1.610 . S
N1039 S1038 1.613 . S
N1039 C1042 1.350 . S
N1040 S1038 1.610 . S
N1040 C1041 1.351 . S
C1041 C1035 1.428 . S
C1041 N1040 1.351 . S
C1041 C1042 1.434 . S
C1042 C1033 1.429 . S
C1042 N1039 1.350 . S
C1042 C1041 1.434 . S
C1043 C1044 1.369 . S
C1043 C1045 1.419 . S
C1043 H1047 0.930 . S
C1044 C1043 1.369 . S
C1044 C1053 1.429 . S
C1045 C1043 1.419 . S
C1045 C1046 1.363 . S
C1045 H1048 0.929 . S
C1046 C1045 1.363 . S
C1046 C1052 1.428 . S
H1047 C1043 0.930 . S
H1048 C1045 0.929 . S
S1049 N1050 1.613 . S
S1049 N1051 1.610 . S
N1050 S1049 1.613 . S
N1050 C1053 1.350 . S
N1051 S1049 1.610 . S
N1051 C1052 1.351 . S
C1052 C1046 1.428 . S
C1052 N1051 1.351 . S
C1052 C1053 1.434 . S
C1053 C1044 1.429 . S
C1053 N1050 1.350 . S
C1053 C1052 1.434 . S
C1054 C1055 1.369 . S
C1054 C1056 1.419 . S
C1054 H1058 0.930 . S
C1055 C1054 1.369 . S
C1055 C1064 1.429 . S
C1056 C1054 1.419 . S
C1056 C1057 1.363 . S
C1056 H1059 0.929 . S
C1057 C1056 1.363 . S
C1057 C1063 1.428 . S
H1058 C1054 0.930 . S
H1059 C1056 0.929 . S
S1060 N1061 1.613 . S
S1060 N1062 1.610 . S
N1061 S1060 1.613 . S
N1061 C1064 1.350 . S
N1062 S1060 1.610 . S
N1062 C1063 1.351 . S
C1063 C1057 1.428 . S
C1063 N1062 1.351 . S
C1063 C1064 1.434 . S
C1064 C1055 1.429 . S
C1064 N1061 1.350 . S
C1064 C1063 1.434 . S
C1065 C1066 1.369 . S
C1065 C1067 1.419 . S
C1065 H1069 0.930 . S
C1066 C1065 1.369 . S
C1066 C1075 1.429 . S
C1067 C1065 1.419 . S
C1067 C1068 1.363 . S
C1067 H1070 0.929 . S
C1068 C1067 1.363 . S
C1068 C1074 1.428 . S
H1069 C1065 0.930 . S
H1070 C1067 0.929 . S
S1071 N1072 1.613 . S
S1071 N1073 1.610 . S
N1072 S1071 1.613 . S
N1072 C1075 1.350 . S
N1073 S1071 1.610 . S
N1073 C1074 1.351 . S
C1074 C1068 1.428 . S
C1074 N1073 1.351 . S
C1074 C1075 1.434 . S
C1075 C1066 1.429 . S
C1075 N1072 1.350 . S
C1075 C1074 1.434 . S
C1076 C1077 1.369 . S
C1076 C1078 1.419 . S
C1076 H1080 0.930 . S
C1077 C1076 1.369 . S
C1077 C1086 1.429 . S
C1078 C1076 1.419 . S
C1078 C1079 1.363 . S
C1078 H1081 0.929 . S
C1079 C1078 1.363 . S
C1079 C1085 1.428 . S
H1080 C1076 0.930 . S
H1081 C1078 0.929 . S
S1082 N1083 1.613 . S
S1082 N1084 1.610 . S
N1083 S1082 1.613 . S
N1083 C1086 1.350 . S
N1084 S1082 1.610 . S
N1084 C1085 1.351 . S
C1085 C1079 1.428 . S
C1085 N1084 1.351 . S
C1085 C1086 1.434 . S
C1086 C1077 1.429 . S
C1086 N1083 1.350 . S
C1086 C1085 1.434 . S
C1087 C1088 1.369 . S
C1087 C1089 1.419 . S
C1087 H1091 0.930 . S
C1088 C1087 1.369 . S
C1088 C1097 1.429 . S
C1089 C1087 1.419 . S
C1089 C1090 1.363 . S
C1089 H1092 0.929 . S
C1090 C1089 1.363 . S
C1090 C1096 1.428 . S
H1091 C1087 0.930 . S
H1092 C1089 0.929 . S
S1093 N1094 1.613 . S
S1093 N1095 1.610 . S
N1094 S1093 1.613 . S
N1094 C1097 1.350 . S
N1095 S1093 1.610 . S
N1095 C1096 1.351 . S
C1096 C1090 1.428 . S
C1096 N1095 1.351 . S
C1096 C1097 1.434 . S
C1097 C1088 1.429 . S
C1097 N1094 1.350 . S
C1097 C1096 1.434 . S
C1098 C1099 1.369 . S
C1098 C1100 1.419 . S
C1098 H1102 0.930 . S
C1099 C1098 1.369 . S
C1099 C1108 1.429 . S
C1100 C1098 1.419 . S
C1100 C1101 1.363 . S
C1100 H1103 0.929 . S
C1101 C1100 1.363 . S
C1101 C1107 1.428 . S
H1102 C1098 0.930 . S
H1103 C1100 0.929 . S
S1104 N1105 1.613 . S
S1104 N1106 1.610 . S
N1105 S1104 1.613 . S
N1105 C1108 1.350 . S
N1106 S1104 1.610 . S
N1106 C1107 1.351 . S
C1107 C1101 1.428 . S
C1107 N1106 1.351 . S
C1107 C1108 1.434 . S
C1108 C1099 1.429 . S
C1108 N1105 1.350 . S
C1108 C1107 1.434 . S
C1109 C1110 1.369 . S
C1109 C1111 1.419 . S
C1109 H1113 0.930 . S
C1110 C1109 1.369 . S
C1110 C1119 1.429 . S
C1111 C1109 1.419 . S
C1111 C1112 1.363 . S
C1111 H1114 0.929 . S
C1112 C1111 1.363 . S
C1112 C1118 1.428 . S
H1113 C1109 0.930 . S
H1114 C1111 0.929 . S
S1115 N1116 1.613 . S
S1115 N1117 1.610 . S
N1116 S1115 1.613 . S
N1116 C1119 1.350 . S
N1117 S1115 1.610 . S
N1117 C1118 1.351 . S
C1118 C1112 1.428 . S
C1118 N1117 1.351 . S
C1118 C1119 1.434 . S
C1119 C1110 1.429 . S
C1119 N1116 1.350 . S
C1119 C1118 1.434 . S
C1120 C1121 1.369 . S
C1120 C1122 1.419 . S
C1120 H1124 0.930 . S
C1121 C1120 1.369 . S
C1121 C1130 1.429 . S
C1122 C1120 1.419 . S
C1122 C1123 1.363 . S
C1122 H1125 0.929 . S
C1123 C1122 1.363 . S
C1123 C1129 1.428 . S
H1124 C1120 0.930 . S
H1125 C1122 0.929 . S
S1126 N1127 1.613 . S
S1126 N1128 1.610 . S
N1127 S1126 1.613 . S
N1127 C1130 1.350 . S
N1128 S1126 1.610 . S
N1128 C1129 1.351 . S
C1129 C1123 1.428 . S
C1129 N1128 1.351 . S
C1129 C1130 1.434 . S
C1130 C1121 1.429 . S
C1130 N1127 1.350 . S
C1130 C1129 1.434 . S
C1131 C1132 1.369 . S
C1131 C1133 1.419 . S
C1131 H1135 0.930 . S
C1132 C1131 1.369 . S
C1132 C1141 1.429 . S
C1133 C1131 1.419 . S
C1133 C1134 1.363 . S
C1133 H1136 0.929 . S
C1134 C1133 1.363 . S
C1134 C1140 1.428 . S
H1135 C1131 0.930 . S
H1136 C1133 0.929 . S
S1137 N1138 1.613 . S
S1137 N1139 1.610 . S
N1138 S1137 1.613 . S
N1138 C1141 1.350 . S
N1139 S1137 1.610 . S
N1139 C1140 1.351 . S
C1140 C1134 1.428 . S
C1140 N1139 1.351 . S
C1140 C1141 1.434 . S
C1141 C1132 1.429 . S
C1141 N1138 1.350 . S
C1141 C1140 1.434 . S
C1142 C1143 1.369 . S
C1142 C1144 1.419 . S
C1142 H1146 0.930 . S
C1143 C1142 1.369 . S
C1143 C1152 1.429 . S
C1144 C1142 1.419 . S
C1144 C1145 1.363 . S
C1144 H1147 0.929 . S
C1145 C1144 1.363 . S
C1145 C1151 1.428 . S
H1146 C1142 0.930 . S
H1147 C1144 0.929 . S
S1148 N1149 1.613 . S
S1148 N1150 1.610 . S
N1149 S1148 1.613 . S
N1149 C1152 1.350 . S
N1150 S1148 1.610 . S
N1150 C1151 1.351 . S
C1151 C1145 1.428 . S
C1151 N1150 1.351 . S
C1151 C1152 1.434 . S
C1152 C1143 1.429 . S
C1152 N1149 1.350 . S
C1152 C1151 1.434 . S
C1153 C1154 1.369 . S
C1153 C1155 1.419 . S
C1153 H1157 0.930 . S
C1154 C1153 1.369 . S
C1154 C1163 1.429 . S
C1155 C1153 1.419 . S
C1155 C1156 1.363 . S
C1155 H1158 0.929 . S
C1156 C1155 1.363 . S
C1156 C1162 1.428 . S
H1157 C1153 0.930 . S
H1158 C1155 0.929 . S
S1159 N1160 1.613 . S
S1159 N1161 1.610 . S
N1160 S1159 1.613 . S
N1160 C1163 1.350 . S
N1161 S1159 1.610 . S
N1161 C1162 1.351 . S
C1162 C1156 1.428 . S
C1162 N1161 1.351 . S
C1162 C1163 1.434 . S
C1163 C1154 1.429 . S
C1163 N1160 1.350 . S
C1163 C1162 1.434 . S
C1164 C1165 1.369 . S
C1164 C1166 1.419 . S
C1164 H1168 0.930 . S
C1165 C1164 1.369 . S
C1165 C1174 1.429 . S
C1166 C1164 1.419 . S
C1166 C1167 1.363 . S
C1166 H1169 0.929 . S
C1167 C1166 1.363 . S
C1167 C1173 1.428 . S
H1168 C1164 0.930 . S
H1169 C1166 0.929 . S
S1170 N1171 1.613 . S
S1170 N1172 1.610 . S
N1171 S1170 1.613 . S
N1171 C1174 1.350 . S
N1172 S1170 1.610 . S
N1172 C1173 1.351 . S
C1173 C1167 1.428 . S
C1173 N1172 1.351 . S
C1173 C1174 1.434 . S
C1174 C1165 1.429 . S
C1174 N1171 1.350 . S
C1174 C1173 1.434 . S
C1175 C1176 1.369 . S
C1175 C1177 1.419 . S
C1175 H1179 0.930 . S
C1176 C1175 1.369 . S
C1176 C1185 1.429 . S
C1177 C1175 1.419 . S
C1177 C1178 1.363 . S
C1177 H1180 0.929 . S
C1178 C1177 1.363 . S
C1178 C1184 1.428 . S
H1179 C1175 0.930 . S
H1180 C1177 0.929 . S
S1181 N1182 1.613 . S
S1181 N1183 1.610 . S
N1182 S1181 1.613 . S
N1182 C1185 1.350 . S
N1183 S1181 1.610 . S
N1183 C1184 1.351 . S
C1184 C1178 1.428 . S
C1184 N1183 1.351 . S
C1184 C1185 1.434 . S
C1185 C1176 1.429 . S
C1185 N1182 1.350 . S
C1185 C1184 1.434 . S
C1186 C1187 1.369 . S
C1186 C1188 1.419 . S
C1186 H1190 0.930 . S
C1187 C1186 1.369 . S
C1187 C1196 1.429 . S
C1188 C1186 1.419 . S
C1188 C1189 1.363 . S
C1188 H1191 0.929 . S
C1189 C1188 1.363 . S
C1189 C1195 1.428 . S
H1190 C1186 0.930 . S
H1191 C1188 0.929 . S
S1192 N1193 1.613 . S
S1192 N1194 1.610 . S
N1193 S1192 1.613 . S
N1193 C1196 1.350 . S
N1194 S1192 1.610 . S
N1194 C1195 1.351 . S
C1195 C1189 1.428 . S
C1195 N1194 1.351 . S
C1195 C1196 1.434 . S
C1196 C1187 1.429 . S
C1196 N1193 1.350 . S
C1196 C1195 1.434 . S
C1197 C1198 1.369 . S
C1197 C1199 1.419 . S
C1197 H1201 0.930 . S
C1198 C1197 1.369 . S
C1198 C1207 1.429 . S
C1199 C1197 1.419 . S
C1199 C1200 1.363 . S
C1199 H1202 0.929 . S
C1200 C1199 1.363 . S
C1200 C1206 1.428 . S
H1201 C1197 0.930 . S
H1202 C1199 0.929 . S
S1203 N1204 1.613 . S
S1203 N1205 1.610 . S
N1204 S1203 1.613 . S
N1204 C1207 1.350 . S
N1205 S1203 1.610 . S
N1205 C1206 1.351 . S
C1206 C1200 1.428 . S
C1206 N1205 1.351 . S
C1206 C1207 1.434 . S
C1207 C1198 1.429 . S
C1207 N1204 1.350 . S
C1207 C1206 1.434 . S
C1208 C1209 1.369 . S
C1208 C1210 1.419 . S
C1208 H1212 0.930 . S
C1209 C1208 1.369 . S
C1209 C1218 1.429 . S
C1210 C1208 1.419 . S
C1210 C1211 1.363 . S
C1210 H1213 0.929 . S
C1211 C1210 1.363 . S
C1211 C1217 1.428 . S
H1212 C1208 0.930 . S
H1213 C1210 0.929 . S
S1214 N1215 1.613 . S
S1214 N1216 1.610 . S
N1215 S1214 1.613 . S
N1215 C1218 1.350 . S
N1216 S1214 1.610 . S
N1216 C1217 1.351 . S
C1217 C1211 1.428 . S
C1217 N1216 1.351 . S
C1217 C1218 1.434 . S
C1218 C1209 1.429 . S
C1218 N1215 1.350 . S
C1218 C1217 1.434 . S
C1219 C1220 1.369 . S
C1219 C1221 1.419 . S
C1219 H1223 0.930 . S
C1220 C1219 1.369 . S
C1220 C1229 1.429 . S
C1221 C1219 1.419 . S
C1221 C1222 1.363 . S
C1221 H1224 0.929 . S
C1222 C1221 1.363 . S
C1222 C1228 1.428 . S
H1223 C1219 0.930 . S
H1224 C1221 0.929 . S
S1225 N1226 1.613 . S
S1225 N1227 1.610 . S
N1226 S1225 1.613 . S
N1226 C1229 1.350 . S
N1227 S1225 1.610 . S
N1227 C1228 1.351 . S
C1228 C1222 1.428 . S
C1228 N1227 1.351 . S
C1228 C1229 1.434 . S
C1229 C1220 1.429 . S
C1229 N1226 1.350 . S
C1229 C1228 1.434 . S
C1230 C1231 1.369 . S
C1230 C1232 1.419 . S
C1230 H1234 0.930 . S
C1231 C1230 1.369 . S
C1231 C1240 1.429 . S
C1232 C1230 1.419 . S
C1232 C1233 1.363 . S
C1232 H1235 0.929 . S
C1233 C1232 1.363 . S
C1233 C1239 1.428 . S
H1234 C1230 0.930 . S
H1235 C1232 0.929 . S
S1236 N1237 1.613 . S
S1236 N1238 1.610 . S
N1237 S1236 1.613 . S
N1237 C1240 1.350 . S
N1238 S1236 1.610 . S
N1238 C1239 1.351 . S
C1239 C1233 1.428 . S
C1239 N1238 1.351 . S
C1239 C1240 1.434 . S
C1240 C1231 1.429 . S
C1240 N1237 1.350 . S
C1240 C1239 1.434 . S
C1241 C1242 1.369 . S
C1241 C1243 1.419 . S
C1241 H1245 0.930 . S
C1242 C1241 1.369 . S
C1242 C1251 1.429 . S
C1243 C1241 1.419 . S
C1243 C1244 1.363 . S
C1243 H1246 0.929 . S
C1244 C1243 1.363 . S
C1244 C1250 1.428 . S
H1245 C1241 0.930 . S
H1246 C1243 0.929 . S
S1247 N1248 1.613 . S
S1247 N1249 1.610 . S
N1248 S1247 1.613 . S
N1248 C1251 1.350 . S
N1249 S1247 1.610 . S
N1249 C1250 1.351 . S
C1250 C1244 1.428 . S
C1250 N1249 1.351 . S
C1250 C1251 1.434 . S
C1251 C1242 1.429 . S
C1251 N1248 1.350 . S
C1251 C1250 1.434 . S
C1252 C1253 1.369 . S
C1252 C1254 1.419 . S
C1252 H1256 0.930 . S
C1253 C1252 1.369 . S
C1253 C1262 1.429 . S
C1254 C1252 1.419 . S
C1254 C1255 1.363 . S
C1254 H1257 0.929 . S
C1255 C1254 1.363 . S
C1255 C1261 1.428 . S
H1256 C1252 0.930 . S
H1257 C1254 0.929 . S
S1258 N1259 1.613 . S
S1258 N1260 1.610 . S
N1259 S1258 1.613 . S
N1259 C1262 1.350 . S
N1260 S1258 1.610 . S
N1260 C1261 1.351 . S
C1261 C1255 1.428 . S
C1261 N1260 1.351 . S
C1261 C1262 1.434 . S
C1262 C1253 1.429 . S
C1262 N1259 1.350 . S
C1262 C1261 1.434 . S
C1263 C1264 1.369 . S
C1263 C1265 1.419 . S
C1263 H1267 0.930 . S
C1264 C1263 1.369 . S
C1264 C1273 1.429 . S
C1265 C1263 1.419 . S
C1265 C1266 1.363 . S
C1265 H1268 0.929 . S
C1266 C1265 1.363 . S
C1266 C1272 1.428 . S
H1267 C1263 0.930 . S
H1268 C1265 0.929 . S
S1269 N1270 1.613 . S
S1269 N1271 1.610 . S
N1270 S1269 1.613 . S
N1270 C1273 1.350 . S
N1271 S1269 1.610 . S
N1271 C1272 1.351 . S
C1272 C1266 1.428 . S
C1272 N1271 1.351 . S
C1272 C1273 1.434 . S
C1273 C1264 1.429 . S
C1273 N1270 1.350 . S
C1273 C1272 1.434 . S
C1274 C1275 1.369 . S
C1274 C1276 1.419 . S
C1274 H1278 0.930 . S
C1275 C1274 1.369 . S
C1275 C1284 1.429 . S
C1276 C1274 1.419 . S
C1276 C1277 1.363 . S
C1276 H1279 0.929 . S
C1277 C1276 1.363 . S
C1277 C1283 1.428 . S
H1278 C1274 0.930 . S
H1279 C1276 0.929 . S
S1280 N1281 1.613 . S
S1280 N1282 1.610 . S
N1281 S1280 1.613 . S
N1281 C1284 1.350 . S
N1282 S1280 1.610 . S
N1282 C1283 1.351 . S
C1283 C1277 1.428 . S
C1283 N1282 1.351 . S
C1283 C1284 1.434 . S
C1284 C1275 1.429 . S
C1284 N1281 1.350 . S
C1284 C1283 1.434 . S
C1285 C1286 1.369 . S
C1285 C1287 1.419 . S
C1285 H1289 0.930 . S
C1286 C1285 1.369 . S
C1286 C1295 1.429 . S
C1287 C1285 1.419 . S
C1287 C1288 1.363 . S
C1287 H1290 0.929 . S
C1288 C1287 1.363 . S
C1288 C1294 1.428 . S
H1289 C1285 0.930 . S
H1290 C1287 0.929 . S
S1291 N1292 1.613 . S
S1291 N1293 1.610 . S
N1292 S1291 1.613 . S
N1292 C1295 1.350 . S
N1293 S1291 1.610 . S
N1293 C1294 1.351 . S
C1294 C1288 1.428 . S
C1294 N1293 1.351 . S
C1294 C1295 1.434 . S
C1295 C1286 1.429 . S
C1295 N1292 1.350 . S
C1295 C1294 1.434 . S
C505 C11 1.090 . S
C507 C165 1.091 . S
C516 C137 1.090 . S
C518 C25 1.090 . S
C527 C151 1.088 . S
C529 C39 1.089 . S
C538 C53 1.099 . S
C540 C109 1.098 . S
C549 C67 1.095 . S
C551 C123 1.095 . S
C560 C81 1.092 . S
C562 C95 1.092 . S
C571 C179 1.088 . S
C573 C333 1.090 . S
C582 C305 1.088 . S
C584 C193 1.089 . S
C593 C207 1.093 . S
C595 C319 1.093 . S
C604 C221 1.101 . S
C606 C277 1.099 . S
C615 C235 1.100 . S
C617 C291 1.099 . S
C626 C249 1.100 . S
C628 C263 1.098 . S
C637 C347 1.098 . S
C639 C501 1.097 . S
C648 C361 1.100 . S
C650 C473 1.098 . S
C659 C487 1.087 . S
C661 C375 1.089 . S
C670 C389 1.094 . S
C672 C445 1.094 . S
C681 C459 1.099 . S
C683 C403 1.097 . S
C692 C431 1.088 . S
C694 C417 1.089 . S
C703 C5 1.153 1_655 S
C705 C215 1.159 . S
C714 C19 1.161 . S
C716 C229 1.163 . S
C725 C33 1.146 . S
C727 C243 1.151 . S
C736 C47 1.148 1_565 S
C738 C341 1.155 . S
C747 C355 1.151 . S
C749 C61 1.157 . S
C758 C369 1.165 . S
C760 C75 1.161 . S
C769 C89 1.147 . S
C771 C467 1.151 . S
C780 C481 1.147 . S
C782 C103 1.150 . S
C791 C117 1.162 1_565 S
C793 C495 1.163 . S
C802 C131 1.160 . S
C804 C257 1.162 . S
C813 C145 1.148 1_655 S
C815 C271 1.153 . S
C824 C159 1.154 . S
C826 C285 1.159 . S
C835 C383 1.160 . S
C837 C173 1.154 . S
C846 C187 1.153 . S
C848 C397 1.159 . S
C857 C201 1.162 . S
C859 C411 1.163 . S
C868 C425 1.151 . S
C870 C299 1.156 . S
C879 C439 1.154 . S
C881 C313 1.159 . S
C890 C327 1.150 . S
C892 C453 1.155 . S
C901 C12 1.453 . S
C903 C68 1.452 . S
C912 C82 1.453 . S
C914 C26 1.453 . S
C923 C54 1.451 . S
C925 C40 1.451 . S
C934 C96 1.453 . S
C936 C152 1.452 . S
C945 C166 1.451 . S
C947 C110 1.452 . S
C956 C124 1.452 . S
C958 C138 1.452 . S
C967 C236 1.453 . S
C969 C180 1.453 . S
C978 C194 1.450 . S
C980 C250 1.451 . S
C989 C208 1.450 . S
C991 C222 1.451 . S
C1000 C320 1.450 . S
C1002 C264 1.451 . S
C1011 C334 1.453 . S
C1013 C278 1.452 . S
C1022 C306 1.452 . S
C1024 C292 1.452 . S
C1033 C348 1.450 . S
C1035 C404 1.451 . S
C1044 C362 1.453 . S
C1046 C418 1.453 . S
C1055 C376 1.452 . S
C1057 C390 1.451 . S
C1066 C488 1.451 . S
C1068 C432 1.451 . S
C1077 C502 1.451 . S
C1079 C446 1.451 . S
C1088 C474 1.452 . S
C1090 C460 1.452 . S
C1099 C130 1.553 . S
C1101 C4 1.554 . S
C1110 C144 1.554 . S
C1112 C18 1.555 . S
C1121 C32 1.557 . S
C1123 C158 1.557 . S
C1132 C46 1.554 . S
C1134 C88 1.554 . S
C1143 C102 1.558 . S
C1145 C60 1.557 . S
C1154 C74 1.557 . S
C1156 C116 1.557 . S
C1165 C298 1.556 . S
C1167 C172 1.556 . S
C1176 C312 1.560 . S
C1178 C186 1.559 . S
C1187 C200 1.556 . S
C1189 C326 1.556 . S
C1198 C256 1.556 . S
C1200 C214 1.556 . S
C1209 C270 1.555 . S
C1211 C228 1.555 . S
C1220 C284 1.560 . S
C1222 C242 1.559 . S
C1231 C340 1.556 . S
C1233 C466 1.556 . S
C1242 C480 1.557 . S
C1244 C354 1.557 . S
C1253 C368 1.553 . S
C1255 C494 1.554 . S
C1264 C382 1.554 . S
C1266 C424 1.555 . S
C1275 C396 1.553 . S
C1277 C438 1.554 . S
C1286 C452 1.553 . S
C1288 C410 1.554 . S
