# Generated by pormake.
# Topology kag, (6)-cn, num edge types: 1
# Building blocks:
#     Node 0, Type 0, BuildingBlock: PAMTOO_clean_sbu_0, # of connection points: 6
#     Node 1, Type 0, BuildingBlock: PAMTOO_clean_sbu_0, # of connection points: 6
#     Node 2, Type 0, BuildingBlock: PAMTOO_clean_sbu_0, # of connection points: 6
#     Edge 3, Type (0, 0), BuildingBlock: CIFDUS_clean_linker_0, # of connection points: 2
#     Edge 4, Type (0, 0), BuildingBlock: CIFDUS_clean_linker_0, # of connection points: 2
#     Edge 5, Type (0, 0), BuildingBlock: CIFDUS_clean_linker_0, # of connection points: 2
#     Edge 6, Type (0, 0), BuildingBlock: CIFDUS_clean_linker_0, # of connection points: 2
#     Edge 7, Type (0, 0), BuildingBlock: CIFDUS_clean_linker_0, # of connection points: 2
#     Edge 8, Type (0, 0), BuildingBlock: CIFDUS_clean_linker_0, # of connection points: 2
#     Edge 9, Type (0, 0), BuildingBlock: CIFDUS_clean_linker_0, # of connection points: 2
#     Edge 10, Type (0, 0), BuildingBlock: CIFDUS_clean_linker_0, # of connection points: 2
#     Edge 11, Type (0, 0), BuildingBlock: CIFDUS_clean_linker_0, # of connection points: 2
# Relax obj value: 0.114
# Max RMSD: 0.177
# Mean RMSD: 0.128
data_MOF--net-kag--node1-PAMTOO_clean_sbu_0--edge1-CIFDUS_clean_linker_0
_symmetry_space_group_name_H-M    P1
_symmetry_Int_Tables_number       1
_symmetry_cell_setting            triclinic
loop_
_symmetry_equiv_pos_as_xyz
'x, y, z'
_cell_length_a     27.096791
_cell_length_b     38.291251
_cell_length_c     13.321823
_cell_angle_alpha  99.465617
_cell_angle_beta   90.478848
_cell_angle_gamma 93.054326
loop_
_atom_site_label
_atom_site_type_symbol
_atom_site_fract_x
_atom_site_fract_y
_atom_site_fract_z
_atom_type_partial_charge
Dy0 Dy 0.07261 0.54973 0.96717 0.0
Dy1 Dy 1.06165 0.46242 0.94881 0.0
C2 C 0.06635 0.49926 0.75482 0.0
O3 O 0.99286 0.53742 -0.00447 0.0
O4 O 0.98379 0.47783 0.93093 0.0
O5 O 0.08894 0.5951 0.89454 0.0
O6 O 1.06325 0.60249 0.05 0.0
O7 O 1.04475 0.48495 0.10916 0.0
O8 O 0.09093 0.53749 0.12083 0.0
O9 O 0.14191 0.4767 0.98069 0.0
O10 O 0.15046 0.53331 0.94315 0.0
O11 O 0.07618 0.41471 0.00838 0.0
O12 O 1.03883 0.41145 0.86216 0.0
C13 C 0.9649 0.5084 0.96499 0.0
O14 O 1.04723 0.52668 0.8094 0.0
O15 O 0.08548 0.47474 0.79834 0.0
C16 C 0.11352 0.64885 -0.00027 0.0
C17 C 0.17862 0.70948 0.02467 0.0
C18 C 0.12728 0.71262 0.0185 0.0
C19 C 0.09507 0.68255 0.00609 0.0
C20 C 0.16458 0.64546 0.00973 0.0
C21 C 0.19699 0.67567 0.02252 0.0
C22 C 0.07895 0.61781 0.97489 0.0
C23 C 0.06811 0.51273 0.16355 0.0
C24 C 0.1696 0.50426 0.96312 0.0
C25 C 1.01848 0.36667 0.95883 0.0
C26 C 0.95218 0.31225 0.00229 0.0
C27 C 1.00186 0.30562 0.98067 0.0
C28 C 1.03467 0.33261 0.95918 0.0
C29 C 0.96916 0.37374 0.9816 0.0
C30 C 0.93616 0.34666 0.00292 0.0
C31 C 1.05345 0.39411 0.93246 0.0
H32 H 0.11205 0.73836 0.0216 0.0
H33 H 1.05573 0.68557 -0.00134 0.0
H34 H 0.17937 0.6195 0.00473 0.0
H35 H 0.23639 0.67249 0.02674 0.0
H36 H 1.01517 0.27931 0.9779 0.0
H37 H 0.07263 0.32677 0.94148 0.0
H38 H 0.95617 0.40004 0.982 0.0
H39 H 0.89821 0.35262 0.02003 0.0
Dy40 Dy 0.51291 1.00138 -0.00756 0.0
Dy41 Dy 0.63335 0.01707 0.0232 0.0
C42 C 0.56376 0.01215 0.21127 0.0
O43 O 0.52272 0.06037 0.03997 0.0
O44 O 0.60471 0.06915 0.00225 0.0
O45 O 0.43834 1.00327 0.0491 0.0
O46 O 0.45169 0.98094 0.892 0.0
O47 O 0.61762 0.99577 0.85886 0.0
O48 O 0.54189 0.0183 0.8513 0.0
O49 O 0.6208 0.96039 0.04162 0.0
O50 O 0.54477 0.94778 0.96216 0.0
O51 O 0.70414 0.02644 0.95664 0.0
O52 O 0.69955 0.02512 0.11776 0.0
C53 C 0.56105 0.08141 0.02461 0.0
O54 O 0.53111 0.99301 0.14951 0.0
O55 O 0.60035 0.03049 0.17702 0.0
C56 C 0.38787 0.95381 0.97377 0.0
C57 C 0.32752 0.89187 0.97791 0.0
C58 C 0.37909 0.89159 -0.00945 0.0
C59 C 0.40898 0.92235 -0.01123 0.0
C60 C 0.33654 0.95451 0.96335 0.0
C61 C 0.30655 0.92383 0.96574 0.0
C62 C 0.41942 0.98539 0.96443 0.0
C63 C 0.58209 1.0068 0.80657 0.0
C64 C 0.58497 0.93757 0.00246 0.0
C65 C 0.7567 0.06639 0.0647 0.0
C66 C 0.81246 0.13142 0.08763 0.0
C67 C 0.76076 0.13076 0.09654 0.0
C68 C 0.73312 0.09848 0.08527 0.0
C69 C 0.80821 0.06684 0.05779 0.0
C70 C 0.83595 0.09911 0.06939 0.0
C71 C 0.72741 0.03263 0.04415 0.0
H72 H 0.39653 0.86741 -0.00103 0.0
H73 H 0.44866 0.92142 -0.00296 0.0
H74 H 0.31971 0.97864 0.95207 0.0
H75 H 0.26692 0.92512 0.95761 0.0
H76 H 0.74166 0.15517 0.11151 0.0
H77 H 0.69327 0.09854 0.09088 0.0
H78 H 0.82686 0.04226 0.04122 0.0
H79 H 0.87563 0.09875 0.06074 0.0
Dy80 Dy 0.55517 0.46034 0.9419 0.0
Dy81 Dy 0.57919 0.54874 0.95792 0.0
C82 C 0.56894 0.5118 0.15603 0.0
O83 O 0.48241 0.48489 0.97058 0.0
O84 O 0.4969 0.54191 0.93765 0.0
O85 O 0.51855 0.41625 -0.00026 0.0
O86 O 0.55994 0.4069 0.85996 0.0
O87 O 0.59472 0.52181 0.8008 0.0
O88 O 0.53774 0.47527 0.79114 0.0
O89 O 0.65207 0.52637 0.98149 0.0
O90 O 0.63734 0.46642 0.92344 0.0
O91 O 0.5777 0.59466 0.88366 0.0
O92 O 0.61232 0.59941 0.03345 0.0
C93 C 0.46667 0.51554 0.95497 0.0
O94 O 0.57922 0.48119 0.10196 0.0
O95 O 0.5583 0.53934 0.11379 0.0
C96 C 0.54396 0.35749 0.9459 0.0
C97 C 0.56219 0.28816 0.98022 0.0
C98 C 0.59754 0.31657 0.00932 0.0
C99 C 0.58847 0.35099 -0.00764 0.0
C100 C 0.5088 0.32937 0.91721 0.0
C101 C 0.51775 0.29517 0.93388 0.0
C102 C 0.53251 0.39281 0.92447 0.0
C103 C 0.56548 0.49721 0.74715 0.0
C104 C 0.66774 0.49436 0.95276 0.0
C105 C 0.59174 0.65329 0.97596 0.0
C106 C 0.57563 0.72642 -0.01236 0.0
C107 C 0.53564 0.70146 -0.00859 0.0
C108 C 0.54361 0.66516 0.9851 0.0
C109 C 0.63156 0.67806 0.97478 0.0
C110 C 0.6237 0.71406 0.98 0.0
C111 C 0.60211 0.61535 0.95704 0.0
H112 H 0.63203 0.31228 0.04584 0.0
H113 H 0.61609 0.3724 0.01517 0.0
H114 H 0.4743 0.33381 0.88077 0.0
H115 H 0.49006 0.27406 0.90836 0.0
H116 H 0.49814 0.70987 -0.0015 0.0
H117 H 0.51228 0.64639 0.98545 0.0
H118 H 0.66895 0.66938 0.96627 0.0
H119 H 0.65546 0.73198 0.9744 0.0
H120 H 0.06966 0.55235 0.64281 0.0
H121 H 1.06304 0.4384 0.61625 0.0
H122 H 1.06159 0.43247 0.43057 0.0
H123 H 1.06226 0.45974 0.27579 0.0
H124 H 0.07528 0.57366 0.30227 0.0
H125 H 0.0743 0.57962 0.48792 0.0
C126 C 0.06773 0.52625 0.59618 0.0
C127 C 0.06607 0.49585 0.64282 0.0
C128 C 0.06817 0.52307 0.48962 0.0
C129 C 1.06442 0.46218 0.58187 0.0
C130 C 1.06348 0.45878 0.47581 0.0
C131 C 1.06475 0.48585 0.32233 0.0
C132 C 0.06848 0.51622 0.27563 0.0
C133 C 0.06533 0.48903 0.42888 0.0
C134 C 0.07247 0.54989 0.33663 0.0
C135 C 0.07178 0.55331 0.44268 0.0
H136 H 0.63821 0.01599 0.35136 0.0
H137 H 0.4794 1.00735 0.31723 0.0
H138 H 0.47111 1.00529 0.49871 0.0
H139 H 0.50886 1.00539 0.66651 0.0
H140 H 0.66763 0.00964 0.70002 0.0
H141 H 0.67621 0.01362 0.51931 0.0
C142 C 0.60187 0.01394 0.38414 0.0
C143 C 0.55944 0.01218 0.3216 0.0
C144 C 0.59742 0.01168 0.48805 0.0
C145 C 0.51254 0.00881 0.36415 0.0
C146 C 0.50779 1.00761 0.46777 0.0
C147 C 0.54536 1.00719 0.63426 0.0
C148 C 0.58754 1.00738 0.69651 0.0
C149 C 0.54994 0.00889 0.53031 0.0
C150 C 0.63458 0.00928 0.65346 0.0
C151 C 0.6395 0.01173 0.55032 0.0
H152 H 0.58394 0.54959 0.63566 0.0
H153 H 0.54299 0.43795 0.60768 0.0
H154 H 0.54139 0.43251 0.42215 0.0
H155 H 0.55187 0.45946 0.26796 0.0
H156 H 0.58723 0.57186 0.29576 0.0
H157 H 0.59062 0.57711 0.48131 0.0
C158 C 0.57484 0.52407 0.58879 0.0
C159 C 0.564 0.49414 0.63509 0.0
C160 C 0.57288 0.52132 0.4823 0.0
C161 C 0.55144 0.46136 0.57371 0.0
C162 C 0.55061 0.45823 0.46769 0.0
C163 C 0.56042 0.48509 0.31468 0.0
C164 C 0.56965 0.51519 0.26827 0.0
C165 C 0.56131 0.48801 0.42119 0.0
C166 C 0.5799 0.54832 0.32974 0.0
C167 C 0.58199 0.55131 0.43577 0.0
H168 H 0.24218 0.55516 0.93771 0.0
H169 H 0.2208 0.44765 -0.00435 0.0
H170 H 0.30962 0.44218 -0.00042 0.0
H171 H 0.39348 0.46698 0.98503 0.0
H172 H 0.41696 0.5742 0.92688 0.0
H173 H 0.32758 0.58053 0.92497 0.0
C174 C 0.25691 0.53054 0.95123 0.0
C175 C 0.22435 0.50188 0.96614 0.0
C176 C 0.30861 0.5274 0.95344 0.0
C177 C 0.24449 0.47024 0.98382 0.0
C178 C 0.29552 0.467 0.9861 0.0
C179 C 0.37931 0.49185 0.97207 0.0
C180 C 0.4123 0.52002 0.95596 0.0
C181 C 0.32792 0.49531 0.97079 0.0
C182 C 0.39272 0.55197 0.93942 0.0
C183 C 0.34147 0.55563 0.93824 0.0
H184 H 0.78992 0.18783 -0.00072 0.0
H185 H 0.90089 0.15142 0.18588 0.0
H186 H 0.9525 0.2054 0.18133 0.0
H187 H 0.96795 0.26131 0.11692 0.0
H188 H 0.8579 0.29711 0.92705 0.0
H189 H 0.8033 0.24552 0.94316 0.0
C190 C 0.82501 0.19198 0.04044 0.0
C191 C 0.8417 0.16554 0.09228 0.0
C192 C 0.85458 0.22298 0.03706 0.0
C193 C 0.88756 0.17113 0.14414 0.0
C194 C 0.91698 0.20203 0.14191 0.0
C195 C 0.932 0.25781 0.07908 0.0
C196 C 0.91719 0.28285 0.02022 0.0
C197 C 0.90124 0.22781 0.08713 0.0
C198 C 0.87007 0.27836 0.9734 0.0
C199 C 0.83899 0.24873 0.98191 0.0
H200 H 0.52114 0.88106 0.92582 0.0
H201 H 0.65896 0.9077 0.09325 0.0
H202 H 0.66636 0.84573 0.10828 0.0
H203 H 0.63443 0.784 0.07461 0.0
H204 H 0.49911 0.75601 0.89962 0.0
H205 H 0.48936 0.81845 0.89044 0.0
C206 C 0.55288 0.87335 0.9654 0.0
C207 C 0.58952 0.89929 0.00786 0.0
C208 C 0.55716 0.83736 0.97372 0.0
C209 C 0.63025 0.88856 0.05912 0.0
C210 C 0.63451 0.85301 0.06819 0.0
C211 C 0.603 0.79131 0.03329 0.0
C212 C 0.56779 0.7649 -0.01253 0.0
C213 C 0.5983 0.82718 0.02565 0.0
C214 C 0.52663 0.77548 0.93695 0.0
C215 C 0.52125 0.81127 0.93064 0.0
H216 H 0.89253 0.45474 0.91796 0.0
H217 H 0.91357 0.56755 0.0228 0.0
H218 H 0.82463 0.57269 0.02972 0.0
H219 H 0.74083 0.54597 0.00452 0.0
H220 H 0.71775 0.43342 0.89946 0.0
H221 H 0.80726 0.42755 0.89466 0.0
C222 C 0.8777 0.48045 0.94233 0.0
C223 C 0.91017 0.5107 0.96954 0.0
C224 C 0.82598 0.48337 0.94625 0.0
C225 C 0.88992 0.54374 0.00127 0.0
C226 C 0.83885 0.54678 0.0053 0.0
C227 C 0.7551 0.52004 0.98069 0.0
C228 C 0.72219 0.49021 0.95222 0.0
C229 C 0.80654 0.51685 0.97775 0.0
C230 C 0.74193 0.45691 0.92173 0.0
C231 C 0.79323 0.45353 0.91886 0.0
H232 H 0.17356 0.76029 0.90699 0.0
H233 H 0.26006 0.72975 0.14824 0.0
H234 H 0.31426 0.78346 0.15486 0.0
H235 H 0.33518 0.83996 0.09497 0.0
H236 H 0.24885 0.86904 0.85057 0.0
H237 H 0.19569 0.81537 0.84409 0.0
C238 C 0.20406 0.76553 0.96161 0.0
C239 C 0.21253 0.74135 0.02778 0.0
C240 C 0.23479 0.79631 0.96497 0.0
C241 C 0.25289 0.74799 0.09641 0.0
C242 C 0.2837 0.77873 0.10048 0.0
C243 C 0.30501 0.83441 0.03969 0.0
C244 C 0.29578 0.85877 0.9741 0.0
C245 C 0.27481 0.80318 0.03541 0.0
C246 C 0.25621 0.85123 0.90352 0.0
C247 C 0.22598 0.82038 0.89914 0.0
H248 H 0.49657 0.23859 0.0375 0.0
H249 H 0.64903 0.25399 0.95566 0.0
H250 H 0.66274 0.19222 0.96742 0.0
H251 H 0.63026 0.13283 -0.00906 0.0
H252 H 0.47693 0.11727 0.06738 0.0
H253 H 0.46478 0.17985 0.06597 0.0
C254 C 0.53279 0.22848 0.0216 0.0
C255 C 0.57156 0.25111 -0.00509 0.0
C256 C 0.54023 0.1927 0.02667 0.0
C257 C 0.61852 0.2375 0.97722 0.0
C258 C 0.62632 0.202 0.98308 0.0
C259 C 0.59418 0.14307 0.00783 0.0
C260 C 0.55451 0.12004 0.02872 0.0
C261 C 0.58727 0.17921 0.00633 0.0
C262 C 0.50815 0.1341 0.05064 0.0
C263 C 0.50112 0.16999 0.04985 0.0
loop_
_geom_bond_atom_site_label_1
_geom_bond_atom_site_label_2
_geom_bond_distance
_geom_bond_site_symmetry_2
_ccdc_geom_bond_type
Dy0 O3 2.307 1_455 S
Dy0 O5 2.395 1_554 S
Dy0 O6 2.379 . S
Dy0 O8 2.339 . S
Dy0 O10 2.298 . S
Dy0 O14 2.275 1_554 S
Dy0 C22 2.738 . S
Dy1 O4 2.298 . S
Dy1 O7 2.275 1_656 S
Dy1 O9 2.307 1_655 S
Dy1 O11 2.395 1_556 S
Dy1 O12 2.379 . S
Dy1 O15 2.339 . S
Dy1 C31 2.738 . S
C2 O14 1.254 . S
C2 O15 1.257 1_455 S
O3 Dy0 2.307 1_655 S
O3 C13 1.266 . S
O4 Dy1 2.298 . S
O4 C13 1.236 1_556 S
O5 Dy0 2.395 1_556 S
O5 C22 1.255 1_556 S
O6 Dy0 2.379 . S
O6 C22 1.249 . S
O7 Dy1 2.275 1_454 S
O7 C23 1.254 . S
O8 Dy0 2.339 . S
O8 C23 1.257 . S
O9 Dy1 2.307 1_455 S
O9 C24 1.266 . S
O10 Dy0 2.298 . S
O10 C24 1.236 1_554 S
O11 Dy1 2.395 1_554 S
O11 C31 1.255 1_554 S
O12 Dy1 2.379 . S
O12 C31 1.249 . S
C13 O3 1.266 . S
C13 O4 1.236 1_554 S
O14 Dy0 2.275 1_556 S
O14 C2 1.254 . S
O15 Dy1 2.339 . S
O15 C2 1.257 1_655 S
C16 C19 1.344 1_554 S
C16 C20 1.328 . S
C16 C22 1.516 . S
C17 C18 1.304 1_554 S
C17 C21 1.323 . S
C18 C17 1.304 1_556 S
C18 C19 1.371 . S
C18 H32 0.930 . S
C19 C16 1.344 1_556 S
C19 C18 1.371 . S
C19 H33 0.931 . S
C20 C16 1.328 . S
C20 C21 1.433 . S
C20 H34 0.931 . S
C21 C17 1.323 . S
C21 C20 1.433 . S
C21 H35 0.933 . S
C22 Dy0 2.738 . S
C22 O5 1.255 1_554 S
C22 O6 1.249 . S
C22 C16 1.516 . S
C23 O7 1.254 . S
C23 O8 1.257 . S
C24 O9 1.266 . S
C24 O10 1.236 1_556 S
C25 C28 1.344 1_556 S
C25 C29 1.328 . S
C25 C31 1.516 . S
C26 C27 1.304 1_556 S
C26 C30 1.323 . S
C27 C26 1.304 1_554 S
C27 C28 1.371 . S
C27 H36 0.930 . S
C28 C25 1.344 1_554 S
C28 C27 1.371 . S
C28 H37 0.931 . S
C29 C25 1.328 . S
C29 C30 1.433 . S
C29 H38 0.931 . S
C30 C26 1.323 . S
C30 C29 1.433 . S
C30 H39 0.933 . S
C31 Dy1 2.738 . S
C31 O11 1.255 1_556 S
C31 O12 1.249 . S
C31 C25 1.516 . S
H32 C18 0.930 . S
H33 C19 0.931 . S
H34 C20 0.931 . S
H35 C21 0.933 . S
H36 C27 0.930 . S
H37 C28 0.931 . S
H38 C29 0.931 . S
H39 C30 0.933 . S
Dy40 O43 2.307 1_565 S
Dy40 O45 2.395 1_556 S
Dy40 O46 2.379 . S
Dy40 O48 2.339 . S
Dy40 O50 2.298 . S
Dy40 O54 2.275 1_556 S
Dy40 C62 2.738 . S
Dy41 O44 2.298 . S
Dy41 O47 2.275 1_554 S
Dy41 O49 2.307 1_545 S
Dy41 O51 2.395 1_554 S
Dy41 O52 2.379 . S
Dy41 O55 2.339 . S
Dy41 C71 2.738 . S
C42 O54 1.254 1_545 S
C42 O55 1.257 . S
O43 Dy40 2.307 1_545 S
O43 C53 1.266 1_556 S
O44 Dy41 2.298 . S
O44 C53 1.236 . S
O45 Dy40 2.395 1_554 S
O45 C62 1.255 1_554 S
O46 Dy40 2.379 . S
O46 C62 1.249 . S
O47 Dy41 2.275 1_556 S
O47 C63 1.254 1_545 S
O48 Dy40 2.339 . S
O48 C63 1.257 . S
O49 Dy41 2.307 1_565 S
O49 C64 1.266 1_554 S
O50 Dy40 2.298 . S
O50 C64 1.236 . S
O51 Dy41 2.395 1_556 S
O51 C71 1.255 1_556 S
O52 Dy41 2.379 . S
O52 C71 1.249 . S
C53 O43 1.266 1_554 S
C53 O44 1.236 . S
O54 Dy40 2.275 1_554 S
O54 C42 1.254 1_565 S
O55 Dy41 2.339 . S
O55 C42 1.257 . S
C56 C59 1.344 1_556 S
C56 C60 1.328 . S
C56 C62 1.516 . S
C57 C58 1.304 . S
C57 C61 1.323 1_554 S
C58 C57 1.304 . S
C58 C59 1.371 . S
C58 H72 0.930 . S
C59 C56 1.344 1_554 S
C59 C58 1.371 . S
C59 H73 0.931 . S
C60 C56 1.328 . S
C60 C61 1.433 . S
C60 H74 0.931 . S
C61 C57 1.323 1_556 S
C61 C60 1.433 . S
C61 H75 0.933 . S
C62 Dy40 2.738 . S
C62 O45 1.255 1_556 S
C62 O46 1.249 . S
C62 C56 1.516 . S
C63 O47 1.254 1_565 S
C63 O48 1.257 . S
C64 O49 1.266 1_556 S
C64 O50 1.236 . S
C65 C68 1.344 1_554 S
C65 C69 1.328 . S
C65 C71 1.516 . S
C66 C67 1.304 . S
C66 C70 1.323 1_556 S
C67 C66 1.304 . S
C67 C68 1.371 . S
C67 H76 0.930 . S
C68 C65 1.344 1_556 S
C68 C67 1.371 . S
C68 H77 0.931 . S
C69 C65 1.328 . S
C69 C70 1.433 . S
C69 H78 0.931 . S
C70 C66 1.323 1_554 S
C70 C69 1.433 . S
C70 H79 0.933 . S
C71 Dy41 2.738 . S
C71 O51 1.255 1_554 S
C71 O52 1.249 . S
C71 C65 1.516 . S
H72 C58 0.930 . S
H73 C59 0.931 . S
H74 C60 0.931 . S
H75 C61 0.933 . S
H76 C67 0.930 . S
H77 C68 0.931 . S
H78 C69 0.931 . S
H79 C70 0.933 . S
Dy80 O83 2.307 . S
Dy80 O85 2.395 1_556 S
Dy80 O86 2.379 . S
Dy80 O88 2.339 . S
Dy80 O90 2.298 . S
Dy80 O94 2.275 1_556 S
Dy80 C102 2.738 . S
Dy81 O84 2.298 . S
Dy81 O87 2.275 1_554 S
Dy81 O89 2.307 . S
Dy81 O91 2.395 1_554 S
Dy81 O92 2.379 . S
Dy81 O95 2.339 . S
Dy81 C111 2.738 . S
C82 O94 1.254 . S
C82 O95 1.257 . S
O83 Dy80 2.307 . S
O83 C93 1.266 . S
O84 Dy81 2.298 . S
O84 C93 1.236 1_554 S
O85 Dy80 2.395 1_554 S
O85 C102 1.255 1_554 S
O86 Dy80 2.379 . S
O86 C102 1.249 . S
O87 Dy81 2.275 1_556 S
O87 C103 1.254 . S
O88 Dy80 2.339 . S
O88 C103 1.257 . S
O89 Dy81 2.307 . S
O89 C104 1.266 . S
O90 Dy80 2.298 . S
O90 C104 1.236 1_556 S
O91 Dy81 2.395 1_556 S
O91 C111 1.255 1_556 S
O92 Dy81 2.379 . S
O92 C111 1.249 . S
C93 O83 1.266 . S
C93 O84 1.236 1_556 S
O94 Dy80 2.275 1_554 S
O94 C82 1.254 . S
O95 Dy81 2.339 . S
O95 C82 1.257 . S
C96 C99 1.344 1_556 S
C96 C100 1.328 . S
C96 C102 1.516 . S
C97 C98 1.304 . S
C97 C101 1.323 1_554 S
C98 C97 1.304 . S
C98 C99 1.371 . S
C98 H112 0.930 . S
C99 C96 1.344 1_554 S
C99 C98 1.371 . S
C99 H113 0.931 . S
C100 C96 1.328 . S
C100 C101 1.433 . S
C100 H114 0.931 . S
C101 C97 1.323 1_556 S
C101 C100 1.433 . S
C101 H115 0.933 . S
C102 Dy80 2.738 . S
C102 O85 1.255 1_556 S
C102 O86 1.249 . S
C102 C96 1.516 . S
C103 O87 1.254 . S
C103 O88 1.257 . S
C104 O89 1.266 . S
C104 O90 1.236 1_554 S
C105 C108 1.344 1_554 S
C105 C109 1.328 . S
C105 C111 1.516 . S
C106 C107 1.307 . S
C106 C110 1.319 1_556 S
C107 C106 1.307 . S
C107 C108 1.371 . S
C107 H116 0.930 . S
C108 C105 1.344 1_556 S
C108 C107 1.371 . S
C108 H117 0.931 . S
C109 C105 1.328 . S
C109 C110 1.433 . S
C109 H118 0.931 . S
C110 C106 1.319 1_554 S
C110 C109 1.433 . S
C110 H119 0.933 . S
C111 Dy81 2.738 . S
C111 O91 1.255 1_554 S
C111 O92 1.249 . S
C111 C105 1.516 . S
H112 C98 0.930 . S
H113 C99 0.931 . S
H114 C100 0.931 . S
H115 C101 0.933 . S
H116 C107 0.930 . S
H117 C108 0.931 . S
H118 C109 0.931 . S
H119 C110 0.933 . S
H120 C126 0.930 . S
H121 C129 0.930 . S
H122 C130 0.930 . S
H123 C131 0.930 . S
H124 C134 0.930 . S
H125 C135 0.930 . S
C126 H120 0.930 . S
C126 C127 1.355 1_655 S
C126 C128 1.415 . S
C127 C126 1.355 1_455 S
C127 C129 1.419 . S
C128 C126 1.415 . S
C128 C133 1.425 1_655 S
C128 C135 1.409 . S
C129 H121 0.930 . S
C129 C127 1.419 . S
C129 C130 1.362 . S
C130 H122 0.930 . S
C130 C129 1.362 . S
C130 C133 1.409 . S
C131 H123 0.930 . S
C131 C132 1.355 1_455 S
C131 C133 1.415 . S
C132 C131 1.355 1_655 S
C132 C134 1.419 . S
C133 C128 1.425 1_455 S
C133 C130 1.409 . S
C133 C131 1.415 . S
C134 H124 0.930 . S
C134 C132 1.419 . S
C134 C135 1.362 . S
C135 H125 0.930 . S
C135 C128 1.409 . S
C135 C134 1.362 . S
H136 C142 0.930 . S
H137 C145 0.930 . S
H138 C146 0.930 . S
H139 C147 0.930 . S
H140 C150 0.930 . S
H141 C151 0.930 . S
C142 H136 0.930 . S
C142 C143 1.355 1_545 S
C142 C144 1.415 . S
C143 C142 1.355 1_565 S
C143 C145 1.419 . S
C144 C142 1.415 . S
C144 C149 1.425 1_545 S
C144 C151 1.409 . S
C145 H137 0.930 . S
C145 C143 1.419 . S
C145 C146 1.362 . S
C146 H138 0.930 . S
C146 C145 1.362 . S
C146 C149 1.409 . S
C147 H139 0.930 . S
C147 C148 1.355 1_565 S
C147 C149 1.415 . S
C148 C147 1.355 1_545 S
C148 C150 1.419 . S
C149 C144 1.425 1_565 S
C149 C146 1.409 . S
C149 C147 1.415 . S
C150 H140 0.930 . S
C150 C148 1.419 . S
C150 C151 1.362 . S
C151 H141 0.930 . S
C151 C144 1.409 . S
C151 C150 1.362 . S
H152 C158 0.930 . S
H153 C161 0.930 . S
H154 C162 0.930 . S
H155 C163 0.930 . S
H156 C166 0.930 . S
H157 C167 0.930 . S
C158 H152 0.930 . S
C158 C159 1.355 . S
C158 C160 1.415 . S
C159 C158 1.355 . S
C159 C161 1.419 . S
C160 C158 1.415 . S
C160 C165 1.425 . S
C160 C167 1.409 . S
C161 H153 0.930 . S
C161 C159 1.419 . S
C161 C162 1.362 . S
C162 H154 0.930 . S
C162 C161 1.362 . S
C162 C165 1.409 . S
C163 H155 0.930 . S
C163 C164 1.355 . S
C163 C165 1.415 . S
C164 C163 1.355 . S
C164 C166 1.419 . S
C165 C160 1.425 . S
C165 C162 1.409 . S
C165 C163 1.415 . S
C166 H156 0.930 . S
C166 C164 1.419 . S
C166 C167 1.362 . S
C167 H157 0.930 . S
C167 C160 1.409 . S
C167 C166 1.362 . S
H168 C174 0.930 . S
H169 C177 0.930 . S
H170 C178 0.930 . S
H171 C179 0.930 . S
H172 C182 0.930 . S
H173 C183 0.930 . S
C174 H168 0.930 . S
C174 C175 1.355 . S
C174 C176 1.415 . S
C175 C174 1.355 . S
C175 C177 1.419 1_556 S
C176 C174 1.415 . S
C176 C181 1.425 1_556 S
C176 C183 1.409 . S
C177 H169 0.930 . S
C177 C175 1.419 1_554 S
C177 C178 1.362 . S
C178 H170 0.930 . S
C178 C177 1.362 . S
C178 C181 1.409 . S
C179 H171 0.930 . S
C179 C180 1.355 1_554 S
C179 C181 1.415 . S
C180 C179 1.355 1_556 S
C180 C182 1.419 . S
C181 C176 1.425 1_554 S
C181 C178 1.409 . S
C181 C179 1.415 . S
C182 H172 0.930 . S
C182 C180 1.419 . S
C182 C183 1.362 . S
C183 H173 0.930 . S
C183 C176 1.409 . S
C183 C182 1.362 . S
H184 C190 0.930 . S
H185 C193 0.930 . S
H186 C194 0.930 . S
H187 C195 0.930 . S
H188 C198 0.930 . S
H189 C199 0.930 . S
C190 H184 0.930 . S
C190 C191 1.355 . S
C190 C192 1.415 . S
C191 C190 1.355 . S
C191 C193 1.419 1_556 S
C192 C190 1.415 . S
C192 C197 1.425 1_556 S
C192 C199 1.409 . S
C193 H185 0.930 . S
C193 C191 1.419 1_554 S
C193 C194 1.362 . S
C194 H186 0.930 . S
C194 C193 1.362 . S
C194 C197 1.409 . S
C195 H187 0.930 . S
C195 C196 1.355 1_554 S
C195 C197 1.415 . S
C196 C195 1.355 1_556 S
C196 C198 1.419 . S
C197 C192 1.425 1_554 S
C197 C194 1.409 . S
C197 C195 1.415 . S
C198 H188 0.930 . S
C198 C196 1.419 . S
C198 C199 1.362 . S
C199 H189 0.930 . S
C199 C192 1.409 . S
C199 C198 1.362 . S
H200 C206 0.930 . S
H201 C209 0.930 . S
H202 C210 0.930 . S
H203 C211 0.930 . S
H204 C214 0.930 . S
H205 C215 0.930 . S
C206 H200 0.930 . S
C206 C207 1.355 1_556 S
C206 C208 1.415 . S
C207 C206 1.355 1_554 S
C207 C209 1.419 . S
C208 C206 1.415 . S
C208 C213 1.425 1_556 S
C208 C215 1.409 . S
C209 H201 0.930 . S
C209 C207 1.419 . S
C209 C210 1.362 . S
C210 H202 0.930 . S
C210 C209 1.362 . S
C210 C213 1.409 . S
C211 H203 0.930 . S
C211 C212 1.355 1_554 S
C211 C213 1.415 . S
C212 C211 1.355 1_556 S
C212 C214 1.419 . S
C213 C208 1.425 1_554 S
C213 C210 1.409 . S
C213 C211 1.415 . S
C214 H204 0.930 . S
C214 C212 1.419 . S
C214 C215 1.362 . S
C215 H205 0.930 . S
C215 C208 1.409 . S
C215 C214 1.362 . S
H216 C222 0.930 . S
H217 C225 0.930 . S
H218 C226 0.930 . S
H219 C227 0.930 . S
H220 C230 0.930 . S
H221 C231 0.930 . S
C222 H216 0.930 . S
C222 C223 1.355 1_556 S
C222 C224 1.415 . S
C223 C222 1.355 1_554 S
C223 C225 1.419 . S
C224 C222 1.415 . S
C224 C229 1.425 1_556 S
C224 C231 1.409 . S
C225 H217 0.930 . S
C225 C223 1.419 . S
C225 C226 1.362 . S
C226 H218 0.930 . S
C226 C225 1.362 . S
C226 C229 1.409 . S
C227 H219 0.930 . S
C227 C228 1.355 . S
C227 C229 1.415 . S
C228 C227 1.355 . S
C228 C230 1.419 1_554 S
C229 C224 1.425 1_554 S
C229 C226 1.409 . S
C229 C227 1.415 . S
C230 H220 0.930 . S
C230 C228 1.419 1_556 S
C230 C231 1.362 . S
C231 H221 0.930 . S
C231 C224 1.409 . S
C231 C230 1.362 . S
H232 C238 0.930 . S
H233 C241 0.930 . S
H234 C242 0.930 . S
H235 C243 0.930 . S
H236 C246 0.930 . S
H237 C247 0.930 . S
C238 H232 0.930 . S
C238 C239 1.355 1_556 S
C238 C240 1.415 . S
C239 C238 1.355 1_554 S
C239 C241 1.419 . S
C240 C238 1.415 . S
C240 C245 1.425 1_556 S
C240 C247 1.409 . S
C241 H233 0.930 . S
C241 C239 1.419 . S
C241 C242 1.362 . S
C242 H234 0.930 . S
C242 C241 1.362 . S
C242 C245 1.409 . S
C243 H235 0.930 . S
C243 C244 1.355 . S
C243 C245 1.415 . S
C244 C243 1.355 . S
C244 C246 1.419 1_554 S
C245 C240 1.425 1_554 S
C245 C242 1.409 . S
C245 C243 1.415 . S
C246 H236 0.930 . S
C246 C244 1.419 1_556 S
C246 C247 1.362 . S
C247 H237 0.930 . S
C247 C240 1.409 . S
C247 C246 1.362 . S
H248 C254 0.930 . S
H249 C257 0.930 . S
H250 C258 0.930 . S
H251 C259 0.930 . S
H252 C262 0.930 . S
H253 C263 0.930 . S
C254 H248 0.930 . S
C254 C255 1.355 1_556 S
C254 C256 1.415 . S
C255 C254 1.355 1_554 S
C255 C257 1.419 . S
C256 C254 1.415 . S
C256 C261 1.425 1_556 S
C256 C263 1.409 . S
C257 H249 0.930 . S
C257 C255 1.419 . S
C257 C258 1.362 . S
C258 H250 0.930 . S
C258 C257 1.362 . S
C258 C261 1.409 . S
C259 H251 0.930 . S
C259 C260 1.355 1_554 S
C259 C261 1.415 . S
C260 C259 1.355 1_556 S
C260 C262 1.419 . S
C261 C256 1.425 1_554 S
C261 C258 1.409 . S
C261 C259 1.415 . S
C262 H252 0.930 . S
C262 C260 1.419 . S
C262 C263 1.362 . S
C263 H253 0.930 . S
C263 C256 1.409 . S
C263 C262 1.362 . S
C127 C2 1.460 . S
C132 C23 1.460 1_655 S
C143 C42 1.487 1_565 S
C148 C63 1.487 1_545 S
C159 C103 1.468 . S
C164 C82 1.468 . S
C175 C24 2.542 . S
C180 C93 2.525 . S
C191 C66 0.790 . S
C196 C26 0.805 . S
C207 C64 1.872 1_554 S
C212 C106 1.863 . S
C223 C13 2.545 . S
C228 C104 2.522 . S
C239 C17 0.794 . S
C244 C57 0.761 . S
C255 C97 1.880 . S
C260 C53 1.891 1_556 S
