# Generated by pormake.
# Topology umw, (4)-cn, num edge types: 1
# Building blocks:
#     Node 0, Type 0, BuildingBlock: KUFVIS_clean_sbu_0, # of connection points: 4
#     Node 1, Type 0, BuildingBlock: KUFVIS_clean_sbu_0, # of connection points: 4
#     Node 2, Type 0, BuildingBlock: KUFVIS_clean_sbu_0, # of connection points: 4
#     Node 3, Type 0, BuildingBlock: KUFVIS_clean_sbu_0, # of connection points: 4
#     Node 4, Type 0, BuildingBlock: KUFVIS_clean_sbu_0, # of connection points: 4
#     Node 5, Type 0, BuildingBlock: KUFVIS_clean_sbu_0, # of connection points: 4
#     Node 6, Type 0, BuildingBlock: KUFVIS_clean_sbu_0, # of connection points: 4
#     Node 7, Type 0, BuildingBlock: KUFVIS_clean_sbu_0, # of connection points: 4
#     Edge 8, Type (0, 0), BuildingBlock: UVAHIK_clean_linker_0, # of connection points: 2
#     Edge 9, Type (0, 0), BuildingBlock: UVAHIK_clean_linker_0, # of connection points: 2
#     Edge 10, Type (0, 0), BuildingBlock: UVAHIK_clean_linker_0, # of connection points: 2
#     Edge 11, Type (0, 0), BuildingBlock: UVAHIK_clean_linker_0, # of connection points: 2
#     Edge 12, Type (0, 0), BuildingBlock: UVAHIK_clean_linker_0, # of connection points: 2
#     Edge 13, Type (0, 0), BuildingBlock: UVAHIK_clean_linker_0, # of connection points: 2
#     Edge 14, Type (0, 0), BuildingBlock: UVAHIK_clean_linker_0, # of connection points: 2
#     Edge 15, Type (0, 0), BuildingBlock: UVAHIK_clean_linker_0, # of connection points: 2
#     Edge 16, Type (0, 0), BuildingBlock: UVAHIK_clean_linker_0, # of connection points: 2
#     Edge 17, Type (0, 0), BuildingBlock: UVAHIK_clean_linker_0, # of connection points: 2
#     Edge 18, Type (0, 0), BuildingBlock: UVAHIK_clean_linker_0, # of connection points: 2
#     Edge 19, Type (0, 0), BuildingBlock: UVAHIK_clean_linker_0, # of connection points: 2
#     Edge 20, Type (0, 0), BuildingBlock: UVAHIK_clean_linker_0, # of connection points: 2
#     Edge 21, Type (0, 0), BuildingBlock: UVAHIK_clean_linker_0, # of connection points: 2
#     Edge 22, Type (0, 0), BuildingBlock: UVAHIK_clean_linker_0, # of connection points: 2
#     Edge 23, Type (0, 0), BuildingBlock: UVAHIK_clean_linker_0, # of connection points: 2
# Relax obj value: 0.135
# Max RMSD: 0.105
# Mean RMSD: 0.105
data_MOF--net-umw--node1-KUFVIS_clean_sbu_0--edge1-UVAHIK_clean_linker_0
_symmetry_space_group_name_H-M    P1
_symmetry_Int_Tables_number       1
_symmetry_cell_setting            triclinic
loop_
_symmetry_equiv_pos_as_xyz
'x, y, z'
_cell_length_a     54.124558
_cell_length_b     54.158624
_cell_length_c     32.580819
_cell_angle_alpha  90.047013
_cell_angle_beta   90.053086
_cell_angle_gamma 90.036183
loop_
_atom_site_label
_atom_site_type_symbol
_atom_site_fract_x
_atom_site_fract_y
_atom_site_fract_z
_atom_type_partial_charge
Mn0 Mn 0.40761 0.17964 0.29419 0.0
Mn1 Mn 0.46587 0.15827 0.28115 0.0
C2 C 0.43174 0.1699 0.35035 0.0
C3 C 0.37966 0.21182 0.30442 0.0
C4 C 0.42019 0.12647 0.27025 0.0
O5 O 0.41492 0.18898 0.23453 0.0
O6 O 0.45435 0.17543 0.2312 0.0
C7 C 0.49192 0.20622 0.27492 0.0
N8 N 0.48929 0.18371 0.29299 0.0
C9 C 0.52494 0.19059 0.33563 0.0
C10 C 0.52815 0.21377 0.31727 0.0
C11 C 0.51148 0.22167 0.28692 0.0
C12 C 0.50505 0.17604 0.32252 0.0
H13 H 0.47922 0.2123 0.25152 0.0
C14 C 0.43542 0.18605 0.21576 0.0
O15 O 0.3725 0.19053 0.29034 0.0
O16 O 0.40321 0.21488 0.30971 0.0
N17 N 0.47976 0.1414 0.3273 0.0
C18 C 0.47317 0.11922 0.34375 0.0
C19 C 0.4874 0.10912 0.37564 0.0
C20 C 0.50849 0.12167 0.38975 0.0
C21 C 0.5151 0.14429 0.37196 0.0
C22 C 0.50012 0.15353 0.34047 0.0
H23 H 0.45712 0.10938 0.33273 0.0
O24 O 0.40789 0.17066 0.35347 0.0
O25 O 0.44098 0.17519 0.31462 0.0
O26 O 0.40425 0.14299 0.27903 0.0
O27 O 0.44342 0.13054 0.26917 0.0
C28 C 0.53577 0.15821 0.38456 0.0
C29 C 0.54057 0.18142 0.36667 0.0
H30 H 0.54324 0.22573 0.32641 0.0
H31 H 0.51376 0.23958 0.27272 0.0
H32 H 0.48218 0.09165 0.38921 0.0
H33 H 0.51939 0.11383 0.4144 0.0
H34 H 0.54797 0.15136 0.40833 0.0
H35 H 0.55625 0.19214 0.37718 0.0
Mn36 Mn 0.81987 0.4076 0.54822 0.0
Mn37 Mn 0.83808 0.46702 0.53737 0.0
C38 C 0.82539 0.43244 0.60507 0.0
C39 C 0.78893 0.37788 0.55519 0.0
C40 C 0.87327 0.42365 0.53117 0.0
O41 O 0.81257 0.41413 0.48763 0.0
O42 O 0.82491 0.45397 0.48509 0.0
C43 C 0.78897 0.48936 0.5224 0.0
N44 N 0.81039 0.48847 0.54431 0.0
C45 C 0.79836 0.5236 0.58484 0.0
C46 C 0.77622 0.52498 0.56257 0.0
C47 C 0.77146 0.50771 0.53135 0.0
C48 C 0.81504 0.50482 0.5747 0.0
H49 H 0.78531 0.47621 0.49823 0.0
C50 C 0.81589 0.4345 0.46869 0.0
O51 O 0.81114 0.37185 0.54386 0.0
O52 O 0.7844 0.40123 0.55962 0.0
N53 N 0.8511 0.48238 0.58565 0.0
C54 C 0.87273 0.47769 0.60562 0.0
C55 C 0.87984 0.49279 0.63866 0.0
C56 C 0.86491 0.51283 0.65025 0.0
C57 C 0.84295 0.51753 0.62878 0.0
C58 C 0.83671 0.50173 0.59636 0.0
H59 H 0.8844 0.46248 0.59652 0.0
O60 O 0.82629 0.40862 0.60841 0.0
O61 O 0.82117 0.44119 0.56863 0.0
O62 O 0.85732 0.4066 0.53695 0.0
O63 O 0.86781 0.44657 0.53059 0.0
C64 C 0.82687 0.53712 0.63851 0.0
C65 C 0.80449 0.54002 0.61683 0.0
H66 H 0.7627 0.53915 0.56931 0.0
H67 H 0.75439 0.5086 0.51411 0.0
H68 H 0.89683 0.48906 0.65503 0.0
H69 H 0.87043 0.52442 0.67578 0.0
H70 H 0.8314 0.54991 0.66297 0.0
H71 H 0.79207 0.55488 0.62513 0.0
Mn72 Mn 0.59285 0.81818 0.79645 0.0
Mn73 Mn 0.53478 0.83998 0.78401 0.0
C74 C 0.56966 0.82971 0.85276 0.0
C75 C 0.62032 0.78573 0.80775 0.0
C76 C 0.58086 0.87048 0.76803 0.0
O77 O 0.58441 0.80767 0.73759 0.0
O78 O 0.54453 0.82009 0.73578 0.0
C79 C 0.50714 0.79279 0.78596 0.0
N80 N 0.51098 0.81598 0.80081 0.0
C81 C 0.47656 0.81227 0.8471 0.0
C82 C 0.47211 0.78841 0.83205 0.0
C83 C 0.48756 0.77859 0.8015 0.0
C84 C 0.49641 0.8255 0.83054 0.0
H85 H 0.51894 0.78523 0.76246 0.0
C86 C 0.56329 0.80926 0.72015 0.0
O87 O 0.62768 0.80652 0.79208 0.0
O88 O 0.59679 0.78323 0.81396 0.0
N89 N 0.52281 0.85942 0.82887 0.0
C90 C 0.53061 0.88202 0.842 0.0
C91 C 0.51775 0.89401 0.87369 0.0
C92 C 0.49681 0.88283 0.89107 0.0
C93 C 0.48897 0.85971 0.8767 0.0
C94 C 0.50259 0.84858 0.84523 0.0
H95 H 0.54655 0.89082 0.82854 0.0
O96 O 0.59352 0.82851 0.85528 0.0
O97 O 0.55996 0.82377 0.81766 0.0
O98 O 0.59664 0.85432 0.77903 0.0
O99 O 0.55762 0.86645 0.7669 0.0
C100 C 0.46833 0.84714 0.89269 0.0
C101 C 0.46225 0.82334 0.87817 0.0
H102 H 0.45702 0.77741 0.84395 0.0
H103 H 0.48433 0.76014 0.78988 0.0
H104 H 0.52393 0.91185 0.8846 0.0
H105 H 0.48696 0.89211 0.91556 0.0
H106 H 0.45724 0.85543 0.91668 0.0
H107 H 0.44666 0.81365 0.89136 0.0
Mn108 Mn 0.18341 0.59621 0.04485 0.0
Mn109 Mn 0.16043 0.53861 0.05688 0.0
C110 C 0.17841 0.57951 0.10954 0.0
C111 C 0.21662 0.62357 0.04068 0.0
C112 C 0.12846 0.583 0.03747 0.0
O113 O 0.18814 0.58143 0.98738 0.0
O114 O 0.17245 0.54357 0.00035 0.0
C115 C 0.20718 0.51086 0.04717 0.0
N116 N 0.18671 0.51636 0.06964 0.0
C117 C 0.19823 0.48732 0.12215 0.0
C118 C 0.21939 0.48126 0.09947 0.0
C119 C 0.22392 0.49314 0.06189 0.0
C120 C 0.18227 0.50517 0.10597 0.0
H121 H 0.2107 0.51993 0.01825 0.0
C122 C 0.18221 0.55951 0.97634 0.0
O123 O 0.1947 0.62988 0.02819 0.0
O124 O 0.21958 0.60081 0.05185 0.0
N125 N 0.14811 0.5311 0.11046 0.0
C126 C 0.12736 0.53974 0.12925 0.0
C127 C 0.12026 0.52986 0.16729 0.0
C128 C 0.13439 0.51104 0.18537 0.0
C129 C 0.15561 0.50237 0.16538 0.0
C130 C 0.16166 0.51277 0.12736 0.0
H131 H 0.11628 0.55403 0.11529 0.0
O132 O 0.1791 0.60323 0.10474 0.0
O133 O 0.18038 0.56627 0.07654 0.0
O134 O 0.14582 0.59897 0.03582 0.0
O135 O 0.13216 0.56017 0.04495 0.0
C136 C 0.17116 0.48403 0.1819 0.0
C137 C 0.19253 0.4766 0.1604 0.0
H138 H 0.23236 0.46762 0.11073 0.0
H139 H 0.24026 0.48862 0.0443 0.0
H140 H 0.10387 0.53666 0.18256 0.0
H141 H 0.12881 0.50341 0.21464 0.0
H142 H 0.16705 0.47578 0.2114 0.0
H143 H 0.20453 0.46274 0.17369 0.0
Mn144 Mn 0.4066 0.81492 0.27824 0.0
Mn145 Mn 0.46456 0.83663 0.29362 0.0
C146 C 0.43059 0.82703 0.22323 0.0
C147 C 0.37914 0.7827 0.26462 0.0
C148 C 0.41835 0.86714 0.30798 0.0
O149 O 0.41405 0.80385 0.33713 0.0
O150 O 0.45365 0.81692 0.3413 0.0
C151 C 0.49172 0.78918 0.29333 0.0
N152 N 0.48848 0.8124 0.2783 0.0
C153 C 0.52402 0.80842 0.2345 0.0
C154 C 0.52787 0.78453 0.24978 0.0
C155 C 0.51156 0.77483 0.27917 0.0
C156 C 0.50389 0.82182 0.24969 0.0
H157 H 0.47925 0.7817 0.31592 0.0
C158 C 0.43475 0.80578 0.35581 0.0
O159 O 0.37166 0.80332 0.28074 0.0
O160 O 0.40276 0.78016 0.25942 0.0
N161 N 0.47775 0.85592 0.24958 0.0
C162 C 0.47048 0.87857 0.23596 0.0
C163 C 0.48422 0.89043 0.2052 0.0
C164 C 0.50551 0.87911 0.18929 0.0
C165 C 0.5128 0.85595 0.20418 0.0
C166 C 0.49831 0.84495 0.23468 0.0
H167 H 0.45427 0.88747 0.24834 0.0
O168 O 0.40676 0.82587 0.21986 0.0
O169 O 0.43988 0.82066 0.25844 0.0
O170 O 0.40266 0.85092 0.29666 0.0
O171 O 0.4416 0.86324 0.30937 0.0
C172 C 0.53371 0.84319 0.1896 0.0
C173 C 0.5392 0.81936 0.20448 0.0
H174 H 0.54316 0.77341 0.23894 0.0
H175 H 0.51431 0.75635 0.29095 0.0
H176 H 0.47846 0.9083 0.19387 0.0
H177 H 0.51602 0.88829 0.1655 0.0
H178 H 0.54553 0.8514 0.16653 0.0
H179 H 0.55504 0.80955 0.19241 0.0
Mn180 Mn 0.18704 0.40639 0.52577 0.0
Mn181 Mn 0.16996 0.46625 0.53371 0.0
C182 C 0.18117 0.43002 0.46756 0.0
C183 C 0.21779 0.37646 0.51993 0.0
C184 C 0.13462 0.42317 0.54615 0.0
O185 O 0.19488 0.41451 0.58577 0.0
O186 O 0.1863 0.45541 0.58499 0.0
C187 C 0.21938 0.48962 0.53813 0.0
N188 N 0.19681 0.48764 0.51996 0.0
C189 C 0.20634 0.52044 0.47274 0.0
C190 C 0.22962 0.52297 0.4912 0.0
C191 C 0.2362 0.50742 0.52393 0.0
C192 C 0.19036 0.50237 0.48823 0.0
H193 H 0.2245 0.47768 0.56318 0.0
C194 C 0.19443 0.43588 0.60249 0.0
O195 O 0.19568 0.37075 0.5322 0.0
O196 O 0.22238 0.39966 0.51394 0.0
N197 N 0.15415 0.47925 0.48576 0.0
C198 C 0.13163 0.47342 0.46967 0.0
C199 C 0.12254 0.48684 0.43604 0.0
C200 C 0.13658 0.50623 0.4195 0.0
C201 C 0.15966 0.51195 0.43661 0.0
C202 C 0.16768 0.49805 0.4703 0.0
H203 H 0.12068 0.45861 0.4823 0.0
O204 O 0.18015 0.40615 0.46537 0.0
O205 O 0.18562 0.43932 0.50348 0.0
O206 O 0.14985 0.40588 0.538 0.0
O207 O 0.14075 0.44595 0.54717 0.0
C208 C 0.1752 0.53062 0.42111 0.0
C209 C 0.19856 0.53481 0.43907 0.0
H210 H 0.24268 0.53662 0.48025 0.0
H211 H 0.25419 0.50916 0.53817 0.0
H212 H 0.10474 0.48226 0.42292 0.0
H213 H 0.12952 0.51651 0.39351 0.0
H214 H 0.16954 0.54159 0.39494 0.0
H215 H 0.21052 0.54892 0.42643 0.0
Mn216 Mn 0.59626 0.18254 0.77736 0.0
Mn217 Mn 0.53766 0.16176 0.787 0.0
C218 C 0.57344 0.17231 0.7198 0.0
C219 C 0.62436 0.21476 0.76862 0.0
C220 C 0.58297 0.13032 0.80405 0.0
O221 O 0.58731 0.19216 0.83646 0.0
O222 O 0.54688 0.18148 0.83573 0.0
C223 C 0.51074 0.20931 0.78368 0.0
N224 N 0.51447 0.18605 0.76907 0.0
C225 C 0.48085 0.19018 0.7212 0.0
C226 C 0.47647 0.21408 0.73606 0.0
C227 C 0.49159 0.22374 0.76727 0.0
C228 C 0.50028 0.17672 0.73863 0.0
H229 H 0.52234 0.21676 0.80758 0.0
C230 C 0.56579 0.1914 0.85266 0.0
O231 O 0.63122 0.19359 0.78348 0.0
O232 O 0.60095 0.2177 0.76168 0.0
N233 N 0.52622 0.14252 0.74146 0.0
C234 C 0.53388 0.1198 0.72872 0.0
C235 C 0.52136 0.10796 0.69646 0.0
C236 C 0.50087 0.1194 0.6781 0.0
C237 C 0.49314 0.14263 0.69207 0.0
C238 C 0.50641 0.1536 0.72415 0.0
H239 H 0.54946 0.11079 0.74294 0.0
O240 O 0.59735 0.17319 0.71798 0.0
O241 O 0.56357 0.1778 0.75488 0.0
O242 O 0.59918 0.1461 0.79325 0.0
O243 O 0.55985 0.13495 0.80516 0.0
C244 C 0.47292 0.15543 0.67515 0.0
C245 C 0.46688 0.17927 0.68948 0.0
H246 H 0.4617 0.22526 0.7235 0.0
H247 H 0.48845 0.24224 0.77871 0.0
H248 H 0.52744 0.09002 0.68589 0.0
H249 H 0.49127 0.11023 0.65318 0.0
H250 H 0.46216 0.14731 0.65055 0.0
H251 H 0.45163 0.18915 0.67559 0.0
Mn252 Mn 0.81612 0.5976 0.03285 0.0
Mn253 Mn 0.83821 0.53926 0.03757 0.0
C254 C 0.82182 0.57485 0.97371 0.0
C255 C 0.78389 0.62606 0.02933 0.0
C256 C 0.8709 0.58427 0.04438 0.0
O257 O 0.81027 0.58895 0.0932 0.0
O258 O 0.82699 0.5508 0.09187 0.0
C259 C 0.79093 0.51446 0.05737 0.0
N260 N 0.81126 0.51664 0.03302 0.0
C261 C 0.79922 0.48128 0.99301 0.0
C262 C 0.77821 0.47858 0.01775 0.0
C263 C 0.77398 0.49533 0.04993 0.0
C264 C 0.81533 0.50084 0.00165 0.0
H265 H 0.78772 0.52717 0.08234 0.0
C266 C 0.81675 0.56883 0.11056 0.0
O267 O 0.80595 0.63268 0.04059 0.0
O268 O 0.7802 0.60267 0.02333 0.0
N269 N 0.84973 0.52514 0.98729 0.0
C270 C 0.87031 0.53096 0.96525 0.0
C271 C 0.87677 0.51643 0.93119 0.0
C272 C 0.86237 0.49574 0.92078 0.0
C273 C 0.84155 0.48986 0.94441 0.0
C274 C 0.83586 0.50518 0.9777 0.0
H275 H 0.88163 0.54662 0.97353 0.0
O276 O 0.82151 0.59875 0.97246 0.0
O277 O 0.81879 0.56472 0.00951 0.0
O278 O 0.85365 0.60032 0.0426 0.0
O279 O 0.86714 0.56105 0.04193 0.0
C280 C 0.82609 0.4695 0.93609 0.0
C281 C 0.80481 0.46537 0.96009 0.0
H282 H 0.76516 0.46377 0.01224 0.0
H283 H 0.75778 0.49341 0.06911 0.0
H284 H 0.8929 0.52105 0.91315 0.0
H285 H 0.86743 0.48456 0.89452 0.0
H286 H 0.83025 0.45704 0.91102 0.0
H287 H 0.79284 0.44991 0.95291 0.0
C288 C 0.44128 0.15013 0.4173 0.0
C289 C 0.44685 0.16792 0.38746 0.0
C290 C 0.45504 0.14903 0.45351 0.0
C291 C 0.47731 0.17098 0.53562 0.0
H292 H 0.5474 0.15607 0.53211 0.0
C293 C 0.54177 0.18894 0.67263 0.0
C294 C 0.55891 0.17044 0.6821 0.0
C295 C 0.52798 0.1876 0.63657 0.0
C296 C 0.52782 0.16006 0.53364 0.0
H297 H 0.46931 0.19983 0.37305 0.0
H298 H 0.49426 0.19721 0.43576 0.0
H299 H 0.52298 0.15495 0.46897 0.0
H300 H 0.57658 0.13699 0.6609 0.0
H301 H 0.55215 0.13429 0.59765 0.0
H302 H 0.48207 0.17713 0.59981 0.0
C303 C 0.47962 0.18388 0.43069 0.0
C304 C 0.51397 0.15956 0.49753 0.0
C305 C 0.46559 0.18523 0.39489 0.0
C306 C 0.56304 0.15117 0.65427 0.0
C307 C 0.54919 0.14974 0.61817 0.0
C308 C 0.4912 0.17194 0.57162 0.0
C309 C 0.47443 0.16576 0.46011 0.0
C310 C 0.4887 0.16504 0.49837 0.0
C311 C 0.5314 0.16788 0.60914 0.0
C312 C 0.51659 0.16644 0.57104 0.0
H313 H 0.42642 0.13703 0.41245 0.0
H314 H 0.45068 0.13512 0.47625 0.0
H315 H 0.45781 0.17547 0.53666 0.0
H316 H 0.53903 0.20444 0.69318 0.0
H317 H 0.51482 0.20213 0.63001 0.0
C318 C 0.80497 0.46481 0.64684 0.0
C319 C 0.82416 0.44767 0.6421 0.0
C320 C 0.80337 0.479 0.68247 0.0
C321 C 0.81967 0.47925 0.79053 0.0
H322 H 0.81561 0.55064 0.78265 0.0
C323 C 0.80292 0.54224 0.93035 0.0
C324 C 0.82076 0.56076 0.93541 0.0
C325 C 0.80178 0.5288 0.89389 0.0
C326 C 0.81671 0.53073 0.78518 0.0
H327 H 0.8555 0.43024 0.67137 0.0
H328 H 0.85262 0.45495 0.73428 0.0
H329 H 0.8163 0.52561 0.72011 0.0
H330 H 0.84986 0.58154 0.90578 0.0
H331 H 0.84778 0.5581 0.84141 0.0
H332 H 0.81938 0.48432 0.85552 0.0
C333 C 0.83919 0.45782 0.71007 0.0
C334 C 0.81706 0.51646 0.74952 0.0
C335 C 0.84091 0.44382 0.67425 0.0
C336 C 0.83637 0.56687 0.90266 0.0
C337 C 0.83508 0.55361 0.86598 0.0
C338 C 0.81874 0.49348 0.82615 0.0
C339 C 0.82053 0.47566 0.71429 0.0
C340 C 0.81895 0.49066 0.75193 0.0
C341 C 0.81802 0.53424 0.86158 0.0
C342 C 0.81763 0.51931 0.82377 0.0
H343 H 0.79123 0.46721 0.62299 0.0
H344 H 0.78859 0.49237 0.68535 0.0
H345 H 0.82082 0.45935 0.79314 0.0
H346 H 0.78998 0.53806 0.95473 0.0
H347 H 0.78822 0.51418 0.8909 0.0
C348 C 0.43989 0.84952 0.15864 0.0
C349 C 0.44568 0.83068 0.18651 0.0
C350 C 0.45352 0.8521 0.12254 0.0
C351 C 0.47446 0.83548 0.03785 0.0
H352 H 0.54582 0.84248 0.04048 0.0
C353 C 0.53683 0.81483 0.89939 0.0
C354 C 0.55493 0.83245 0.89008 0.0
C355 C 0.52313 0.81681 0.93541 0.0
C356 C 0.52589 0.84075 0.03932 0.0
H357 H 0.4685 0.79856 0.19755 0.0
H358 H 0.49315 0.8037 0.13511 0.0
H359 H 0.52242 0.84221 0.10471 0.0
H360 H 0.5744 0.86484 0.91167 0.0
H361 H 0.55043 0.86833 0.97536 0.0
H362 H 0.47793 0.83256 0.97275 0.0
C363 C 0.47849 0.81673 0.14162 0.0
C364 C 0.5126 0.84051 0.07597 0.0
C365 C 0.46459 0.81392 0.17729 0.0
C366 C 0.56009 0.85141 0.91809 0.0
C367 C 0.54648 0.85333 0.95435 0.0
C368 C 0.48779 0.83514 0.00127 0.0
C369 C 0.473 0.83581 0.11404 0.0
C370 C 0.48685 0.83779 0.07543 0.0
C371 C 0.52779 0.83611 0.96314 0.0
C372 C 0.5136 0.83773 0.00168 0.0
H373 H 0.42491 0.86223 0.16488 0.0
H374 H 0.4489 0.86676 0.10129 0.0
H375 H 0.45459 0.8331 0.03691 0.0
H376 H 0.53336 0.79947 0.87885 0.0
H377 H 0.50918 0.803 0.94191 0.0
C378 C 0.2036 0.46037 0.42517 0.0
C379 C 0.18321 0.44475 0.4302 0.0
C380 C 0.20511 0.47581 0.39115 0.0
C381 C 0.16464 0.5045 0.31334 0.0
H382 H 0.22707 0.52402 0.26508 0.0
C383 C 0.20118 0.55196 0.15638 0.0
C384 C 0.18193 0.56879 0.15027 0.0
C385 C 0.20365 0.53986 0.19378 0.0
C386 C 0.20943 0.51871 0.27803 0.0
H387 H 0.14993 0.43048 0.40215 0.0
H388 H 0.15262 0.45724 0.34174 0.0
H389 H 0.22657 0.49338 0.31928 0.0
H390 H 0.15223 0.58899 0.17918 0.0
H391 H 0.15666 0.56813 0.24548 0.0
H392 H 0.14738 0.52894 0.27094 0.0
C393 C 0.16692 0.45845 0.36491 0.0
C394 C 0.20917 0.50129 0.30948 0.0
C395 C 0.16542 0.44303 0.39916 0.0
C396 C 0.1667 0.57539 0.18317 0.0
C397 C 0.1692 0.56335 0.22087 0.0
C398 C 0.16488 0.52175 0.28165 0.0
C399 C 0.18642 0.47555 0.36116 0.0
C400 C 0.18675 0.49381 0.32729 0.0
C401 C 0.18713 0.54474 0.22608 0.0
C402 C 0.18724 0.5288 0.26313 0.0
H403 H 0.21797 0.46122 0.4483 0.0
H404 H 0.22035 0.48872 0.38948 0.0
H405 H 0.14707 0.49958 0.32688 0.0
H406 H 0.21371 0.54738 0.1316 0.0
H407 H 0.21759 0.52562 0.19627 0.0
C408 C 0.37009 0.25339 0.33388 0.0
C409 C 0.36179 0.23028 0.31995 0.0
C410 C 0.35421 0.26917 0.35525 0.0
C411 C 0.28814 0.28003 0.38222 0.0
H412 H 0.31685 0.31421 0.47546 0.0
C413 C 0.228 0.33312 0.49897 0.0
C414 C 0.23577 0.35744 0.50683 0.0
C415 C 0.24366 0.3165 0.47885 0.0
C416 C 0.30859 0.30486 0.44945 0.0
H417 H 0.32997 0.20605 0.31595 0.0
H418 H 0.30238 0.23334 0.35372 0.0
H419 H 0.34295 0.2885 0.43206 0.0
H420 H 0.26654 0.38293 0.50203 0.0
H421 H 0.29396 0.35384 0.46764 0.0
H422 H 0.2537 0.29627 0.4001 0.0
C423 C 0.32107 0.23951 0.34776 0.0
C424 C 0.32357 0.29024 0.42433 0.0
C425 C 0.33691 0.22381 0.32606 0.0
C426 C 0.26002 0.36431 0.49646 0.0
C427 C 0.27575 0.34763 0.47677 0.0
C428 C 0.27313 0.2945 0.40757 0.0
C429 C 0.32969 0.26213 0.36357 0.0
C430 C 0.3136 0.27777 0.39016 0.0
C431 C 0.2675 0.32377 0.46665 0.0
C432 C 0.28321 0.3072 0.44132 0.0
H433 H 0.38913 0.25898 0.32949 0.0
H434 H 0.36135 0.28672 0.36597 0.0
H435 H 0.27984 0.27097 0.35596 0.0
H436 H 0.20939 0.3273 0.50642 0.0
H437 H 0.23692 0.29812 0.47195 0.0
C438 C 0.74641 0.36636 0.578 0.0
C439 C 0.77075 0.35923 0.56899 0.0
C440 C 0.73041 0.35025 0.59839 0.0
C441 C 0.72213 0.28494 0.63197 0.0
H442 H 0.6814 0.31522 0.716 0.0
C443 C 0.66759 0.22685 0.74984 0.0
C444 C 0.64255 0.23323 0.75412 0.0
C445 C 0.68392 0.24256 0.72918 0.0
C446 C 0.69257 0.3065 0.69253 0.0
H447 H 0.79706 0.32915 0.57254 0.0
H448 H 0.76933 0.30114 0.6087 0.0
H449 H 0.70765 0.34103 0.67309 0.0
H450 H 0.61532 0.26167 0.74206 0.0
H451 H 0.64388 0.28922 0.70667 0.0
H452 H 0.70717 0.25035 0.65203 0.0
C453 C 0.76241 0.31907 0.59959 0.0
C454 C 0.70752 0.3213 0.66768 0.0
C455 C 0.77835 0.33514 0.5788 0.0
C456 C 0.63451 0.25624 0.73935 0.0
C457 C 0.65088 0.27204 0.71908 0.0
C458 C 0.7073 0.27012 0.65708 0.0
C459 C 0.73845 0.32669 0.61071 0.0
C460 C 0.72239 0.31075 0.63685 0.0
C461 C 0.67561 0.26509 0.7128 0.0
C462 C 0.69226 0.28075 0.68751 0.0
H463 H 0.73994 0.38476 0.5706 0.0
H464 H 0.7119 0.35653 0.60537 0.0
H465 H 0.73309 0.27616 0.60831 0.0
H466 H 0.67435 0.20921 0.76074 0.0
H467 H 0.70296 0.23687 0.72533 0.0
C468 C 0.74116 0.63669 0.006 0.0
C469 C 0.76515 0.6444 0.01652 0.0
C470 C 0.72496 0.65276 0.98589 0.0
C471 C 0.72667 0.70484 0.91505 0.0
H472 H 0.65673 0.71051 0.93854 0.0
C473 C 0.66298 0.77381 0.82986 0.0
C474 C 0.63806 0.76741 0.82411 0.0
C475 C 0.67874 0.75845 0.85237 0.0
C476 C 0.67614 0.70883 0.93106 0.0
H477 H 0.79048 0.67544 0.0162 0.0
H478 H 0.76218 0.70347 0.98096 0.0
H479 H 0.68296 0.68565 0.98317 0.0
H480 H 0.61052 0.73912 0.83516 0.0
H481 H 0.63818 0.71186 0.8729 0.0
H482 H 0.7199 0.72744 0.86242 0.0
C483 C 0.756 0.68493 0.98806 0.0
C484 C 0.69119 0.69472 0.9569 0.0
C485 C 0.7721 0.66895 0.00862 0.0
C486 C 0.62961 0.74464 0.83923 0.0
C487 C 0.64542 0.72915 0.86135 0.0
C488 C 0.71159 0.71874 0.88894 0.0
C489 C 0.73251 0.67678 0.97549 0.0
C490 C 0.71662 0.6926 0.94921 0.0
C491 C 0.67001 0.73618 0.86929 0.0
C492 C 0.68609 0.72093 0.89655 0.0
H493 H 0.73527 0.61787 0.01161 0.0
H494 H 0.707 0.64593 0.97653 0.0
H495 H 0.74614 0.70318 0.90791 0.0
H496 H 0.67003 0.79133 0.81889 0.0
H497 H 0.69746 0.76464 0.85803 0.0
C498 C 0.25967 0.63452 0.06172 0.0
C499 C 0.23576 0.64218 0.05063 0.0
C500 C 0.27597 0.65087 0.08106 0.0
C501 C 0.27381 0.70359 0.15032 0.0
H502 H 0.3442 0.70826 0.13019 0.0
C503 C 0.33683 0.77138 0.23978 0.0
C504 C 0.36156 0.76469 0.24667 0.0
C505 C 0.32134 0.75637 0.21603 0.0
C506 C 0.32464 0.70688 0.13674 0.0
H507 H 0.2108 0.67346 0.04873 0.0
H508 H 0.23929 0.70199 0.08264 0.0
H509 H 0.31838 0.68358 0.08446 0.0
H510 H 0.38902 0.73628 0.23615 0.0
H511 H 0.36179 0.7096 0.19631 0.0
H512 H 0.27998 0.72615 0.20324 0.0
C513 C 0.24532 0.68327 0.07656 0.0
C514 C 0.30984 0.69289 0.11023 0.0
C515 C 0.22912 0.667 0.0567 0.0
C516 C 0.37007 0.74201 0.23126 0.0
C517 C 0.35452 0.72686 0.20792 0.0
C518 C 0.28863 0.71734 0.17711 0.0
C519 C 0.2686 0.67514 0.09015 0.0
C520 C 0.28426 0.6911 0.11672 0.0
C521 C 0.33013 0.73415 0.19897 0.0
C522 C 0.31429 0.71917 0.17077 0.0
H523 H 0.26531 0.6155 0.05754 0.0
H524 H 0.29377 0.64404 0.0912 0.0
H525 H 0.25421 0.70217 0.15659 0.0
H526 H 0.32975 0.78885 0.2509 0.0
H527 H 0.3028 0.7628 0.20962 0.0
C528 C 0.42427 0.90887 0.33881 0.0
C529 C 0.41008 0.89286 0.31442 0.0
C530 C 0.42039 0.93431 0.3373 0.0
C531 C 0.38005 0.98442 0.29623 0.0
H532 H 0.44285 0.01848 0.28741 0.0
C533 C 0.42697 0.08372 0.24428 0.0
C534 C 0.41215 0.1005 0.26599 0.0
C535 C 0.42286 0.05838 0.24752 0.0
C536 C 0.42511 0.00928 0.28927 0.0
H537 H 0.37946 0.89076 0.27162 0.0
H538 H 0.37302 0.93534 0.26823 0.0
H539 H 0.44223 0.97479 0.30252 0.0
H540 H 0.38031 0.10398 0.3059 0.0
H541 H 0.37338 0.05953 0.31223 0.0
H542 H 0.36309 0.0192 0.28175 0.0
C543 C 0.38693 0.92823 0.28899 0.0
C544 C 0.42474 0.98422 0.29879 0.0
C545 C 0.3906 0.90265 0.29096 0.0
C546 C 0.39196 0.09148 0.28863 0.0
C547 C 0.38801 0.066 0.29229 0.0
C548 C 0.38043 0.00967 0.28662 0.0
C549 C 0.40253 0.94439 0.31078 0.0
C550 C 0.40225 0.97142 0.30247 0.0
C551 C 0.40407 0.04916 0.27309 0.0
C552 C 0.40303 0.02233 0.28272 0.0
H553 H 0.43924 0.90181 0.35753 0.0
H554 H 0.43225 0.94618 0.35545 0.0
H555 H 0.36241 0.97513 0.29893 0.0
H556 H 0.44249 0.09014 0.2262 0.0
H557 H 0.43511 0.04594 0.23133 0.0
C558 C 0.91675 0.43534 0.51453 0.0
C559 C 0.89979 0.41714 0.52693 0.0
C560 C 0.942 0.43049 0.51398 0.0
C561 C 0.98937 0.39126 0.56129 0.0
H562 H 0.03067 0.42337 0.48 0.0
C563 C 0.09918 0.39275 0.54696 0.0
C564 C 0.10792 0.4172 0.55025 0.0
C565 C 0.07372 0.38792 0.54475 0.0
C566 C 0.01934 0.41409 0.50265 0.0
H567 H 0.89626 0.37922 0.54753 0.0
H568 H 0.94075 0.37066 0.54624 0.0
H569 H 0.98597 0.42275 0.47075 0.0
H570 H 0.09645 0.45554 0.55606 0.0
H571 H 0.05249 0.447 0.55134 0.0
H572 H 0.02319 0.383 0.59327 0.0
C573 C 0.93428 0.38879 0.53725 0.0
C574 C 0.99376 0.41384 0.49755 0.0
C575 C 0.9088 0.39364 0.53769 0.0
C576 C 0.09058 0.43649 0.55332 0.0
C577 C 0.06534 0.43168 0.55053 0.0
C578 C 0.01513 0.39127 0.56612 0.0
C579 C 0.95118 0.40728 0.52569 0.0
C580 C 0.97838 0.40329 0.52757 0.0
C581 C 0.05674 0.40748 0.54533 0.0
C582 C 0.03017 0.40342 0.53746 0.0
H583 H 0.91059 0.45366 0.506 0.0
H584 H 0.95442 0.44535 0.50563 0.0
H585 H 0.97807 0.38308 0.58507 0.0
H586 H 0.11196 0.37744 0.5446 0.0
H587 H 0.06738 0.3691 0.54076 0.0
C588 C 0.60892 0.90582 0.7849 0.0
C589 C 0.58902 0.89628 0.76207 0.0
C590 C 0.61269 0.93136 0.78753 0.0
C591 C 0.57527 0.98786 0.78049 0.0
H592 H 0.63765 0.02196 0.79522 0.0
C593 C 0.61047 0.09449 0.78761 0.0
C594 C 0.59047 0.10429 0.80981 0.0
C595 C 0.6138 0.0689 0.78482 0.0
C596 C 0.62009 0.0127 0.79102 0.0
H597 H 0.55909 0.90575 0.72078 0.0
H598 H 0.56625 0.95008 0.72396 0.0
H599 H 0.63743 0.97794 0.77788 0.0
H600 H 0.55984 0.09517 0.84981 0.0
H601 H 0.5662 0.05074 0.84635 0.0
H602 H 0.55782 0.02238 0.7924 0.0
C603 C 0.57837 0.938 0.74117 0.0
C604 C 0.61997 0.98745 0.78133 0.0
C605 C 0.5744 0.91258 0.73899 0.0
C606 C 0.57524 0.08815 0.83208 0.0
C607 C 0.57876 0.06267 0.82975 0.0
C608 C 0.57539 0.01293 0.79 0.0
C609 C 0.59677 0.94778 0.76705 0.0
C610 C 0.5975 0.97476 0.77583 0.0
C611 C 0.59733 0.05268 0.80452 0.0
C612 C 0.59776 0.02571 0.79562 0.0
H613 H 0.6204 0.89372 0.80325 0.0
H614 H 0.62701 0.93821 0.80778 0.0
H615 H 0.55759 0.97866 0.77738 0.0
H616 H 0.62243 0.10645 0.76988 0.0
H617 H 0.62826 0.06188 0.76508 0.0
C618 C 0.90457 0.61595 0.03505 0.0
C619 C 0.89684 0.59254 0.04871 0.0
C620 C 0.92968 0.62243 0.03604 0.0
C621 C 0.98918 0.60488 0.08384 0.0
H622 H 0.01958 0.62444 0.98105 0.0
C623 C 0.0835 0.57314 0.03279 0.0
C624 C 0.10235 0.59105 0.03344 0.0
C625 C 0.05877 0.58006 0.0344 0.0
C626 C 0.01125 0.61961 0.01019 0.0
H627 H 0.90921 0.55803 0.07552 0.0
H628 H 0.95254 0.56933 0.07758 0.0
H629 H 0.97434 0.62455 0.98749 0.0
H630 H 0.10972 0.63047 0.03408 0.0
H631 H 0.06588 0.64254 0.03644 0.0
H632 H 0.02594 0.59822 0.10549 0.0
C633 C 0.93938 0.58273 0.06613 0.0
C634 C 0.98545 0.61967 0.01393 0.0
C635 C 0.91453 0.57617 0.06464 0.0
C636 C 0.09569 0.61621 0.03355 0.0
C637 C 0.0707 0.62315 0.03493 0.0
C638 C 0.01483 0.60477 0.08005 0.0
C639 C 0.94732 0.60578 0.05145 0.0
C640 C 0.97418 0.61128 0.05027 0.0
C641 C 0.05219 0.60502 0.03632 0.0
C642 C 0.02599 0.61128 0.04279 0.0
H643 H 0.89137 0.6289 0.02241 0.0
H644 H 0.93532 0.64031 0.0245 0.0
H645 H 0.98102 0.59867 0.11238 0.0
H646 H 0.08777 0.55361 0.03233 0.0
H647 H 0.04469 0.56582 0.03522 0.0
C648 C 0.56882 0.18859 0.92844 0.0
C649 C 0.56142 0.20181 0.8936 0.0
C650 C 0.55679 0.19237 0.96596 0.0
C651 C 0.5084 0.23034 0.01919 0.0
H652 H 0.49103 0.16698 0.06622 0.0
C653 C 0.45254 0.21764 0.16952 0.0
C654 C 0.43894 0.19578 0.17424 0.0
C655 C 0.4656 0.22213 0.13328 0.0
C656 C 0.49534 0.18483 0.05311 0.0
H657 H 0.53765 0.2309 0.87111 0.0
H658 H 0.51653 0.23737 0.93595 0.0
H659 H 0.52123 0.16885 0.01158 0.0
H660 H 0.42642 0.16248 0.14414 0.0
H661 H 0.44801 0.17086 0.0798 0.0
H662 H 0.48168 0.24613 0.06004 0.0
C663 C 0.5316 0.22425 0.93498 0.0
C664 C 0.51319 0.18598 0.02233 0.0
C665 C 0.54369 0.22054 0.89768 0.0
C666 C 0.43646 0.17969 0.14083 0.0
C667 C 0.44928 0.18427 0.10439 0.0
C668 C 0.49038 0.22918 0.04998 0.0
C669 C 0.53703 0.20923 0.96898 0.0
C670 C 0.51992 0.20871 0.00479 0.0
C671 C 0.4652 0.20478 0.10115 0.0
C672 C 0.48348 0.20635 0.06709 0.0
H673 H 0.58222 0.17382 0.92582 0.0
H674 H 0.56185 0.1809 0.99185 0.0
H675 H 0.51318 0.24819 0.00651 0.0
H676 H 0.455 0.2301 0.19523 0.0
H677 H 0.47764 0.23808 0.13201 0.0
C678 C 0.83131 0.55662 0.17888 0.0
C679 C 0.81159 0.56436 0.1541 0.0
C680 C 0.82695 0.54231 0.21362 0.0
C681 C 0.78479 0.51925 0.2899 0.0
H682 H 0.81961 0.45737 0.27343 0.0
C683 C 0.78498 0.44512 0.41572 0.0
C684 C 0.80888 0.43702 0.42552 0.0
C685 C 0.78048 0.45712 0.3784 0.0
C686 C 0.80977 0.4745 0.27859 0.0
H687 H 0.7718 0.56505 0.14766 0.0
H688 H 0.76404 0.5404 0.20973 0.0
H689 H 0.8216 0.48942 0.22107 0.0
H690 H 0.84644 0.43372 0.40389 0.0
H691 H 0.83878 0.45419 0.33877 0.0
H692 H 0.77408 0.50495 0.34848 0.0
C693 C 0.78283 0.54545 0.20203 0.0
C694 C 0.81091 0.49282 0.24861 0.0
C695 C 0.78725 0.55978 0.16693 0.0
C696 C 0.82772 0.43922 0.39636 0.0
C697 C 0.82328 0.45112 0.35913 0.0
C698 C 0.7839 0.50098 0.3203 0.0
C699 C 0.80277 0.53552 0.22419 0.0
C700 C 0.79901 0.51558 0.25451 0.0
C701 C 0.79989 0.46127 0.35051 0.0
C702 C 0.79698 0.47864 0.31545 0.0
H703 H 0.85023 0.55963 0.16917 0.0
H704 H 0.84257 0.53506 0.23057 0.0
H705 H 0.77541 0.53665 0.29493 0.0
H706 H 0.77034 0.44413 0.43832 0.0
H707 H 0.7622 0.4644 0.37248 0.0
C708 C 0.54302 0.77824 0.67611 0.0
C709 C 0.55918 0.79841 0.67947 0.0
C710 C 0.5306 0.77357 0.63931 0.0
C711 C 0.50721 0.81024 0.55353 0.0
H712 H 0.48316 0.74748 0.51231 0.0
C713 C 0.43237 0.80967 0.4312 0.0
C714 C 0.43815 0.79524 0.39684 0.0
C715 C 0.44454 0.80566 0.4685 0.0
C716 C 0.48971 0.76515 0.5235 0.0
H717 H 0.57672 0.8283 0.64663 0.0
H718 H 0.55581 0.81963 0.58156 0.0
H719 H 0.5143 0.74822 0.56681 0.0
H720 H 0.45929 0.76402 0.37502 0.0
H721 H 0.48062 0.75698 0.43981 0.0
H722 H 0.48323 0.82725 0.50997 0.0
C723 C 0.55229 0.80767 0.60754 0.0
C724 C 0.50753 0.76557 0.55475 0.0
C725 C 0.56464 0.81238 0.64448 0.0
C726 C 0.45436 0.77521 0.40132 0.0
C727 C 0.46663 0.77124 0.43849 0.0
C728 C 0.48949 0.80982 0.52245 0.0
C729 C 0.53408 0.7891 0.60526 0.0
C730 C 0.51654 0.78816 0.57005 0.0
C731 C 0.46291 0.78734 0.47178 0.0
C732 C 0.48043 0.7873 0.50706 0.0
H733 H 0.53836 0.7674 0.70293 0.0
H734 H 0.51673 0.75915 0.63878 0.0
H735 H 0.51327 0.82799 0.56511 0.0
H736 H 0.42026 0.8255 0.42819 0.0
H737 H 0.44082 0.81803 0.49389 0.0
C738 C 0.20921 0.55571 0.91371 0.0
C739 C 0.18693 0.55074 0.9342 0.0
C740 C 0.21545 0.54237 0.87816 0.0
C741 C 0.20277 0.48191 0.83199 0.0
H742 H 0.2228 0.51013 0.72805 0.0
C743 C 0.18744 0.4338 0.67743 0.0
C744 C 0.20325 0.43922 0.64466 0.0
C745 C 0.1915 0.44452 0.71591 0.0
C746 C 0.21781 0.50183 0.75711 0.0
H747 H 0.15286 0.52967 0.93199 0.0
H748 H 0.16354 0.50687 0.87037 0.0
H749 H 0.21788 0.53692 0.78786 0.0
H750 H 0.2366 0.45833 0.62656 0.0
H751 H 0.24414 0.47661 0.694 0.0
H752 H 0.20204 0.44696 0.80137 0.0
C753 C 0.1765 0.52043 0.88202 0.0
C754 C 0.21492 0.51725 0.79127 0.0
C755 C 0.17031 0.53366 0.91709 0.0
C756 C 0.22426 0.45382 0.6516 0.0
C757 C 0.22839 0.46449 0.69004 0.0
C758 C 0.20578 0.4665 0.79802 0.0
C759 C 0.19947 0.52394 0.86306 0.0
C760 C 0.20653 0.50753 0.82861 0.0
C761 C 0.21142 0.4609 0.7221 0.0
C762 C 0.21254 0.47637 0.75981 0.0
H763 H 0.2224 0.56866 0.9265 0.0
H764 H 0.2332 0.54554 0.86378 0.0
H765 H 0.19674 0.47388 0.86074 0.0
H766 H 0.17082 0.42304 0.6724 0.0
H767 H 0.17791 0.44151 0.73975 0.0
loop_
_geom_bond_atom_site_label_1
_geom_bond_atom_site_label_2
_geom_bond_distance
_geom_bond_site_symmetry_2
_ccdc_geom_bond_type
Mn0 O5 2.095 . S
Mn0 O15 2.162 . S
Mn0 O16 2.297 . S
Mn0 O24 2.385 . S
Mn0 O25 2.209 . S
Mn0 O26 2.094 . S
Mn1 O6 2.121 . S
Mn1 N8 2.257 . S
Mn1 N17 2.282 . S
Mn1 O25 2.215 . S
Mn1 O27 2.117 . S
C2 O24 1.234 . S
C2 O25 1.283 . S
C3 O15 1.281 . S
C3 O16 1.236 . S
C4 O26 1.240 . S
C4 O27 1.264 . S
O5 Mn0 2.095 . S
O5 C14 1.250 . S
O6 Mn1 2.121 . S
O6 C14 1.258 . S
C7 N8 1.326 . S
C7 C11 1.460 . S
C7 H13 0.929 . S
N8 Mn1 2.257 . S
N8 C7 1.326 . S
N8 C12 1.362 . S
C9 C10 1.258 . S
C9 C12 1.431 . S
C9 C29 1.449 . S
C10 C9 1.258 . S
C10 C11 1.477 . S
C10 H30 0.931 . S
C11 C7 1.460 . S
C11 C10 1.477 . S
C11 H31 0.930 . S
C12 N8 1.362 . S
C12 C9 1.431 . S
C12 C22 1.476 . S
H13 C7 0.929 . S
C14 O5 1.250 . S
C14 O6 1.258 . S
O15 Mn0 2.162 . S
O15 C3 1.281 . S
O16 Mn0 2.297 . S
O16 C3 1.236 . S
N17 Mn1 2.282 . S
N17 C18 1.328 . S
N17 C22 1.318 . S
C18 N17 1.328 . S
C18 C19 1.457 . S
C18 H23 0.929 . S
C19 C18 1.457 . S
C19 C20 1.291 . S
C19 H32 0.931 . S
C20 C19 1.291 . S
C20 C21 1.373 . S
C20 H33 0.929 . S
C21 C20 1.373 . S
C21 C22 1.396 . S
C21 C28 1.403 . S
C22 C12 1.476 . S
C22 N17 1.318 . S
C22 C21 1.396 . S
H23 C18 0.929 . S
O24 Mn0 2.385 . S
O24 C2 1.234 . S
O25 Mn0 2.209 . S
O25 Mn1 2.215 . S
O25 C2 1.283 . S
O26 Mn0 2.094 . S
O26 C4 1.240 . S
O27 Mn1 2.117 . S
O27 C4 1.264 . S
C28 C21 1.403 . S
C28 C29 1.399 . S
C28 H34 0.929 . S
C29 C9 1.449 . S
C29 C28 1.399 . S
C29 H35 0.930 . S
H30 C10 0.931 . S
H31 C11 0.930 . S
H32 C19 0.931 . S
H33 C20 0.929 . S
H34 C28 0.929 . S
H35 C29 0.930 . S
Mn36 O41 2.095 . S
Mn36 O51 2.162 . S
Mn36 O52 2.297 . S
Mn36 O60 2.385 . S
Mn36 O61 2.209 . S
Mn36 O62 2.094 . S
Mn37 O42 2.121 . S
Mn37 N44 2.257 . S
Mn37 N53 2.282 . S
Mn37 O61 2.215 . S
Mn37 O63 2.117 . S
C38 O60 1.234 . S
C38 O61 1.283 . S
C39 O51 1.281 . S
C39 O52 1.236 . S
C40 O62 1.240 . S
C40 O63 1.264 . S
O41 Mn36 2.095 . S
O41 C50 1.250 . S
O42 Mn37 2.121 . S
O42 C50 1.258 . S
C43 N44 1.326 . S
C43 C47 1.460 . S
C43 H49 0.929 . S
N44 Mn37 2.257 . S
N44 C43 1.326 . S
N44 C48 1.362 . S
C45 C46 1.258 . S
C45 C48 1.431 . S
C45 C65 1.449 . S
C46 C45 1.258 . S
C46 C47 1.477 . S
C46 H66 0.931 . S
C47 C43 1.460 . S
C47 C46 1.477 . S
C47 H67 0.930 . S
C48 N44 1.362 . S
C48 C45 1.431 . S
C48 C58 1.476 . S
H49 C43 0.929 . S
C50 O41 1.250 . S
C50 O42 1.258 . S
O51 Mn36 2.162 . S
O51 C39 1.281 . S
O52 Mn36 2.297 . S
O52 C39 1.236 . S
N53 Mn37 2.282 . S
N53 C54 1.328 . S
N53 C58 1.318 . S
C54 N53 1.328 . S
C54 C55 1.457 . S
C54 H59 0.929 . S
C55 C54 1.457 . S
C55 C56 1.291 . S
C55 H68 0.931 . S
C56 C55 1.291 . S
C56 C57 1.373 . S
C56 H69 0.929 . S
C57 C56 1.373 . S
C57 C58 1.396 . S
C57 C64 1.403 . S
C58 C48 1.476 . S
C58 N53 1.318 . S
C58 C57 1.396 . S
H59 C54 0.929 . S
O60 Mn36 2.385 . S
O60 C38 1.234 . S
O61 Mn36 2.209 . S
O61 Mn37 2.215 . S
O61 C38 1.283 . S
O62 Mn36 2.094 . S
O62 C40 1.240 . S
O63 Mn37 2.117 . S
O63 C40 1.264 . S
C64 C57 1.403 . S
C64 C65 1.399 . S
C64 H70 0.929 . S
C65 C45 1.449 . S
C65 C64 1.399 . S
C65 H71 0.930 . S
H66 C46 0.931 . S
H67 C47 0.930 . S
H68 C55 0.931 . S
H69 C56 0.929 . S
H70 C64 0.929 . S
H71 C65 0.930 . S
Mn72 O77 2.095 . S
Mn72 O87 2.162 . S
Mn72 O88 2.297 . S
Mn72 O96 2.385 . S
Mn72 O97 2.209 . S
Mn72 O98 2.094 . S
Mn73 O78 2.121 . S
Mn73 N80 2.257 . S
Mn73 N89 2.282 . S
Mn73 O97 2.215 . S
Mn73 O99 2.117 . S
C74 O96 1.234 . S
C74 O97 1.283 . S
C75 O87 1.281 . S
C75 O88 1.236 . S
C76 O98 1.240 . S
C76 O99 1.264 . S
O77 Mn72 2.095 . S
O77 C86 1.250 . S
O78 Mn73 2.121 . S
O78 C86 1.258 . S
C79 N80 1.326 . S
C79 C83 1.460 . S
C79 H85 0.929 . S
N80 Mn73 2.257 . S
N80 C79 1.326 . S
N80 C84 1.362 . S
C81 C82 1.258 . S
C81 C84 1.431 . S
C81 C101 1.449 . S
C82 C81 1.258 . S
C82 C83 1.477 . S
C82 H102 0.931 . S
C83 C79 1.460 . S
C83 C82 1.477 . S
C83 H103 0.930 . S
C84 N80 1.362 . S
C84 C81 1.431 . S
C84 C94 1.476 . S
H85 C79 0.929 . S
C86 O77 1.250 . S
C86 O78 1.258 . S
O87 Mn72 2.162 . S
O87 C75 1.281 . S
O88 Mn72 2.297 . S
O88 C75 1.236 . S
N89 Mn73 2.282 . S
N89 C90 1.328 . S
N89 C94 1.318 . S
C90 N89 1.328 . S
C90 C91 1.457 . S
C90 H95 0.929 . S
C91 C90 1.457 . S
C91 C92 1.291 . S
C91 H104 0.931 . S
C92 C91 1.291 . S
C92 C93 1.373 . S
C92 H105 0.929 . S
C93 C92 1.373 . S
C93 C94 1.396 . S
C93 C100 1.403 . S
C94 C84 1.476 . S
C94 N89 1.318 . S
C94 C93 1.396 . S
H95 C90 0.929 . S
O96 Mn72 2.385 . S
O96 C74 1.234 . S
O97 Mn72 2.209 . S
O97 Mn73 2.215 . S
O97 C74 1.283 . S
O98 Mn72 2.094 . S
O98 C76 1.240 . S
O99 Mn73 2.117 . S
O99 C76 1.264 . S
C100 C93 1.403 . S
C100 C101 1.399 . S
C100 H106 0.929 . S
C101 C81 1.449 . S
C101 C100 1.399 . S
C101 H107 0.930 . S
H102 C82 0.931 . S
H103 C83 0.930 . S
H104 C91 0.931 . S
H105 C92 0.929 . S
H106 C100 0.929 . S
H107 C101 0.930 . S
Mn108 O113 2.095 . S
Mn108 O123 2.162 . S
Mn108 O124 2.297 . S
Mn108 O132 2.385 . S
Mn108 O133 2.209 . S
Mn108 O134 2.094 . S
Mn109 O114 2.142 . S
Mn109 N116 2.257 . S
Mn109 N125 2.282 . S
Mn109 O133 2.215 . S
Mn109 O135 2.117 . S
C110 O132 1.234 . S
C110 O133 1.283 . S
C111 O123 1.281 . S
C111 O124 1.236 . S
C112 O134 1.240 . S
C112 O135 1.264 . S
O113 Mn108 2.095 . S
O113 C122 1.250 1_554 S
O114 Mn109 2.142 . S
O114 C122 1.249 1_554 S
C115 N116 1.326 . S
C115 C119 1.460 . S
C115 H121 0.929 . S
N116 Mn109 2.257 . S
N116 C115 1.326 . S
N116 C120 1.362 . S
C117 C118 1.258 . S
C117 C120 1.431 . S
C117 C137 1.449 . S
C118 C117 1.258 . S
C118 C119 1.477 . S
C118 H138 0.931 . S
C119 C115 1.460 . S
C119 C118 1.477 . S
C119 H139 0.930 . S
C120 N116 1.362 . S
C120 C117 1.431 . S
C120 C130 1.476 . S
H121 C115 0.929 . S
C122 O113 1.250 1_556 S
C122 O114 1.249 1_556 S
O123 Mn108 2.162 . S
O123 C111 1.281 . S
O124 Mn108 2.297 . S
O124 C111 1.236 . S
N125 Mn109 2.282 . S
N125 C126 1.328 . S
N125 C130 1.318 . S
C126 N125 1.328 . S
C126 C127 1.457 . S
C126 H131 0.929 . S
C127 C126 1.457 . S
C127 C128 1.291 . S
C127 H140 0.931 . S
C128 C127 1.291 . S
C128 C129 1.373 . S
C128 H141 0.929 . S
C129 C128 1.373 . S
C129 C130 1.396 . S
C129 C136 1.403 . S
C130 C120 1.476 . S
C130 N125 1.318 . S
C130 C129 1.396 . S
H131 C126 0.929 . S
O132 Mn108 2.385 . S
O132 C110 1.234 . S
O133 Mn108 2.209 . S
O133 Mn109 2.215 . S
O133 C110 1.283 . S
O134 Mn108 2.094 . S
O134 C112 1.240 . S
O135 Mn109 2.117 . S
O135 C112 1.264 . S
C136 C129 1.403 . S
C136 C137 1.399 . S
C136 H142 0.929 . S
C137 C117 1.449 . S
C137 C136 1.399 . S
C137 H143 0.930 . S
H138 C118 0.931 . S
H139 C119 0.930 . S
H140 C127 0.931 . S
H141 C128 0.929 . S
H142 C136 0.929 . S
H143 C137 0.930 . S
Mn144 O149 2.095 . S
Mn144 O159 2.162 . S
Mn144 O160 2.297 . S
Mn144 O168 2.385 . S
Mn144 O169 2.209 . S
Mn144 O170 2.094 . S
Mn145 O150 2.121 . S
Mn145 N152 2.257 . S
Mn145 N161 2.282 . S
Mn145 O169 2.215 . S
Mn145 O171 2.117 . S
C146 O168 1.234 . S
C146 O169 1.283 . S
C147 O159 1.281 . S
C147 O160 1.236 . S
C148 O170 1.240 . S
C148 O171 1.264 . S
O149 Mn144 2.095 . S
O149 C158 1.250 . S
O150 Mn145 2.121 . S
O150 C158 1.258 . S
C151 N152 1.326 . S
C151 C155 1.460 . S
C151 H157 0.929 . S
N152 Mn145 2.257 . S
N152 C151 1.326 . S
N152 C156 1.362 . S
C153 C154 1.258 . S
C153 C156 1.431 . S
C153 C173 1.449 . S
C154 C153 1.258 . S
C154 C155 1.477 . S
C154 H174 0.931 . S
C155 C151 1.460 . S
C155 C154 1.477 . S
C155 H175 0.930 . S
C156 N152 1.362 . S
C156 C153 1.431 . S
C156 C166 1.476 . S
H157 C151 0.929 . S
C158 O149 1.250 . S
C158 O150 1.258 . S
O159 Mn144 2.162 . S
O159 C147 1.281 . S
O160 Mn144 2.297 . S
O160 C147 1.236 . S
N161 Mn145 2.282 . S
N161 C162 1.328 . S
N161 C166 1.318 . S
C162 N161 1.328 . S
C162 C163 1.457 . S
C162 H167 0.929 . S
C163 C162 1.457 . S
C163 C164 1.291 . S
C163 H176 0.931 . S
C164 C163 1.291 . S
C164 C165 1.373 . S
C164 H177 0.929 . S
C165 C164 1.373 . S
C165 C166 1.396 . S
C165 C172 1.403 . S
C166 C156 1.476 . S
C166 N161 1.318 . S
C166 C165 1.396 . S
H167 C162 0.929 . S
O168 Mn144 2.385 . S
O168 C146 1.234 . S
O169 Mn144 2.209 . S
O169 Mn145 2.215 . S
O169 C146 1.283 . S
O170 Mn144 2.094 . S
O170 C148 1.240 . S
O171 Mn145 2.117 . S
O171 C148 1.264 . S
C172 C165 1.403 . S
C172 C173 1.399 . S
C172 H178 0.929 . S
C173 C153 1.449 . S
C173 C172 1.399 . S
C173 H179 0.930 . S
H174 C154 0.931 . S
H175 C155 0.930 . S
H176 C163 0.931 . S
H177 C164 0.929 . S
H178 C172 0.929 . S
H179 C173 0.930 . S
Mn180 O185 2.095 . S
Mn180 O195 2.162 . S
Mn180 O196 2.297 . S
Mn180 O204 2.385 . S
Mn180 O205 2.209 . S
Mn180 O206 2.094 . S
Mn181 O186 2.121 . S
Mn181 N188 2.257 . S
Mn181 N197 2.282 . S
Mn181 O205 2.215 . S
Mn181 O207 2.117 . S
C182 O204 1.234 . S
C182 O205 1.283 . S
C183 O195 1.281 . S
C183 O196 1.236 . S
C184 O206 1.240 . S
C184 O207 1.264 . S
O185 Mn180 2.095 . S
O185 C194 1.250 . S
O186 Mn181 2.121 . S
O186 C194 1.258 . S
C187 N188 1.326 . S
C187 C191 1.460 . S
C187 H193 0.929 . S
N188 Mn181 2.257 . S
N188 C187 1.326 . S
N188 C192 1.362 . S
C189 C190 1.258 . S
C189 C192 1.431 . S
C189 C209 1.449 . S
C190 C189 1.258 . S
C190 C191 1.477 . S
C190 H210 0.931 . S
C191 C187 1.460 . S
C191 C190 1.477 . S
C191 H211 0.930 . S
C192 N188 1.362 . S
C192 C189 1.431 . S
C192 C202 1.476 . S
H193 C187 0.929 . S
C194 O185 1.250 . S
C194 O186 1.258 . S
O195 Mn180 2.162 . S
O195 C183 1.281 . S
O196 Mn180 2.297 . S
O196 C183 1.236 . S
N197 Mn181 2.282 . S
N197 C198 1.328 . S
N197 C202 1.318 . S
C198 N197 1.328 . S
C198 C199 1.457 . S
C198 H203 0.929 . S
C199 C198 1.457 . S
C199 C200 1.291 . S
C199 H212 0.931 . S
C200 C199 1.291 . S
C200 C201 1.373 . S
C200 H213 0.929 . S
C201 C200 1.373 . S
C201 C202 1.396 . S
C201 C208 1.403 . S
C202 C192 1.476 . S
C202 N197 1.318 . S
C202 C201 1.396 . S
H203 C198 0.929 . S
O204 Mn180 2.385 . S
O204 C182 1.234 . S
O205 Mn180 2.209 . S
O205 Mn181 2.215 . S
O205 C182 1.283 . S
O206 Mn180 2.094 . S
O206 C184 1.240 . S
O207 Mn181 2.117 . S
O207 C184 1.264 . S
C208 C201 1.403 . S
C208 C209 1.399 . S
C208 H214 0.929 . S
C209 C189 1.449 . S
C209 C208 1.399 . S
C209 H215 0.930 . S
H210 C190 0.931 . S
H211 C191 0.930 . S
H212 C199 0.931 . S
H213 C200 0.929 . S
H214 C208 0.929 . S
H215 C209 0.930 . S
Mn216 O221 2.095 . S
Mn216 O231 2.162 . S
Mn216 O232 2.297 . S
Mn216 O240 2.385 . S
Mn216 O241 2.209 . S
Mn216 O242 2.094 . S
Mn217 O222 2.121 . S
Mn217 N224 2.257 . S
Mn217 N233 2.282 . S
Mn217 O241 2.215 . S
Mn217 O243 2.117 . S
C218 O240 1.234 . S
C218 O241 1.283 . S
C219 O231 1.281 . S
C219 O232 1.236 . S
C220 O242 1.240 . S
C220 O243 1.264 . S
O221 Mn216 2.095 . S
O221 C230 1.250 . S
O222 Mn217 2.121 . S
O222 C230 1.258 . S
C223 N224 1.326 . S
C223 C227 1.460 . S
C223 H229 0.929 . S
N224 Mn217 2.257 . S
N224 C223 1.326 . S
N224 C228 1.362 . S
C225 C226 1.258 . S
C225 C228 1.431 . S
C225 C245 1.449 . S
C226 C225 1.258 . S
C226 C227 1.477 . S
C226 H246 0.931 . S
C227 C223 1.460 . S
C227 C226 1.477 . S
C227 H247 0.930 . S
C228 N224 1.362 . S
C228 C225 1.431 . S
C228 C238 1.476 . S
H229 C223 0.929 . S
C230 O221 1.250 . S
C230 O222 1.258 . S
O231 Mn216 2.162 . S
O231 C219 1.281 . S
O232 Mn216 2.297 . S
O232 C219 1.236 . S
N233 Mn217 2.282 . S
N233 C234 1.328 . S
N233 C238 1.318 . S
C234 N233 1.328 . S
C234 C235 1.457 . S
C234 H239 0.929 . S
C235 C234 1.457 . S
C235 C236 1.291 . S
C235 H248 0.931 . S
C236 C235 1.291 . S
C236 C237 1.373 . S
C236 H249 0.929 . S
C237 C236 1.373 . S
C237 C238 1.396 . S
C237 C244 1.403 . S
C238 C228 1.476 . S
C238 N233 1.318 . S
C238 C237 1.396 . S
H239 C234 0.929 . S
O240 Mn216 2.385 . S
O240 C218 1.234 . S
O241 Mn216 2.209 . S
O241 Mn217 2.215 . S
O241 C218 1.283 . S
O242 Mn216 2.094 . S
O242 C220 1.240 . S
O243 Mn217 2.117 . S
O243 C220 1.264 . S
C244 C237 1.403 . S
C244 C245 1.399 . S
C244 H250 0.929 . S
C245 C225 1.449 . S
C245 C244 1.399 . S
C245 H251 0.930 . S
H246 C226 0.931 . S
H247 C227 0.930 . S
H248 C235 0.931 . S
H249 C236 0.929 . S
H250 C244 0.929 . S
H251 C245 0.930 . S
Mn252 O257 2.095 . S
Mn252 O267 2.162 . S
Mn252 O268 2.297 . S
Mn252 O276 2.385 1_554 S
Mn252 O277 2.214 . S
Mn252 O278 2.094 . S
Mn253 O258 2.121 . S
Mn253 N260 2.257 . S
Mn253 N269 2.282 1_554 S
Mn253 O277 2.223 . S
Mn253 O279 2.117 . S
C254 O276 1.234 . S
C254 O277 1.269 1_556 S
C255 O267 1.281 . S
C255 O268 1.236 . S
C256 O278 1.240 . S
C256 O279 1.264 . S
O257 Mn252 2.095 . S
O257 C266 1.250 . S
O258 Mn253 2.121 . S
O258 C266 1.258 . S
C259 N260 1.326 . S
C259 C263 1.460 . S
C259 H265 0.929 . S
N260 Mn253 2.257 . S
N260 C259 1.326 . S
N260 C264 1.362 1_554 S
C261 C262 1.258 1_556 S
C261 C264 1.431 . S
C261 C281 1.449 . S
C262 C261 1.258 1_554 S
C262 C263 1.477 . S
C262 H282 0.931 1_554 S
C263 C259 1.460 . S
C263 C262 1.477 . S
C263 H283 0.930 . S
C264 N260 1.362 1_556 S
C264 C261 1.431 . S
C264 C274 1.476 . S
H265 C259 0.929 . S
C266 O257 1.250 . S
C266 O258 1.258 . S
O267 Mn252 2.162 . S
O267 C255 1.281 . S
O268 Mn252 2.297 . S
O268 C255 1.236 . S
N269 Mn253 2.282 1_556 S
N269 C270 1.328 . S
N269 C274 1.318 . S
C270 N269 1.328 . S
C270 C271 1.457 . S
C270 H275 0.929 . S
C271 C270 1.457 . S
C271 C272 1.291 . S
C271 H284 0.931 . S
C272 C271 1.291 . S
C272 C273 1.373 . S
C272 H285 0.929 . S
C273 C272 1.373 . S
C273 C274 1.396 . S
C273 C280 1.403 . S
C274 C264 1.476 . S
C274 N269 1.318 . S
C274 C273 1.396 . S
H275 C270 0.929 . S
O276 Mn252 2.385 1_556 S
O276 C254 1.234 . S
O277 Mn252 2.214 . S
O277 Mn253 2.223 . S
O277 C254 1.269 1_554 S
O278 Mn252 2.094 . S
O278 C256 1.240 . S
O279 Mn253 2.117 . S
O279 C256 1.264 . S
C280 C273 1.403 . S
C280 C281 1.399 . S
C280 H286 0.929 . S
C281 C261 1.449 . S
C281 C280 1.399 . S
C281 H287 0.930 . S
H282 C262 0.931 1_556 S
H283 C263 0.930 . S
H284 C271 0.931 . S
H285 C272 0.929 . S
H286 C280 0.929 . S
H287 C281 0.930 . S
C288 C289 1.349 . S
C288 C290 1.327 . S
C288 H313 0.950 . S
C289 C288 1.349 . S
C289 C305 1.349 . S
C290 C288 1.327 . S
C290 C309 1.429 . S
C290 H314 0.950 . S
C291 C308 1.574 . S
C291 C310 1.368 . S
C291 H315 0.949 . S
H292 C296 0.949 . S
C293 C294 1.349 . S
C293 C295 1.327 . S
C293 H316 0.950 . S
C294 C293 1.349 . S
C294 C306 1.349 . S
C295 C293 1.327 . S
C295 C311 1.429 . S
C295 H317 0.950 . S
C296 H292 0.949 . S
C296 C304 1.574 . S
C296 C312 1.368 . S
H297 C305 0.950 . S
H298 C303 0.950 . S
H299 C304 0.949 . S
H300 C306 0.950 . S
H301 C307 0.950 . S
H302 C308 0.949 . S
C303 H298 0.950 . S
C303 C305 1.327 . S
C303 C309 1.429 . S
C304 C296 1.574 . S
C304 H299 0.949 . S
C304 C310 1.368 . S
C305 C289 1.349 . S
C305 H297 0.950 . S
C305 C303 1.327 . S
C306 C294 1.349 . S
C306 H300 0.950 . S
C306 C307 1.327 . S
C307 H301 0.950 . S
C307 C306 1.327 . S
C307 C311 1.429 . S
C308 C291 1.574 . S
C308 H302 0.949 . S
C308 C312 1.368 . S
C309 C290 1.429 . S
C309 C303 1.429 . S
C309 C310 1.523 . S
C310 C291 1.368 . S
C310 C304 1.368 . S
C310 C309 1.523 . S
C311 C295 1.429 . S
C311 C307 1.429 . S
C311 C312 1.523 . S
C312 C296 1.368 . S
C312 C308 1.368 . S
C312 C311 1.523 . S
H313 C288 0.950 . S
H314 C290 0.950 . S
H315 C291 0.949 . S
H316 C293 0.950 . S
H317 C295 0.950 . S
C318 C319 1.349 . S
C318 C320 1.327 . S
C318 H343 0.950 . S
C319 C318 1.349 . S
C319 C335 1.349 . S
C320 C318 1.327 . S
C320 C339 1.429 . S
C320 H344 0.950 . S
C321 C338 1.574 . S
C321 C340 1.368 . S
C321 H345 0.949 . S
H322 C326 0.949 . S
C323 C324 1.349 . S
C323 C325 1.327 . S
C323 H346 0.950 . S
C324 C323 1.349 . S
C324 C336 1.349 . S
C325 C323 1.327 . S
C325 C341 1.429 . S
C325 H347 0.950 . S
C326 H322 0.949 . S
C326 C334 1.574 . S
C326 C342 1.368 . S
H327 C335 0.950 . S
H328 C333 0.950 . S
H329 C334 0.949 . S
H330 C336 0.950 . S
H331 C337 0.950 . S
H332 C338 0.949 . S
C333 H328 0.950 . S
C333 C335 1.327 . S
C333 C339 1.429 . S
C334 C326 1.574 . S
C334 H329 0.949 . S
C334 C340 1.368 . S
C335 C319 1.349 . S
C335 H327 0.950 . S
C335 C333 1.327 . S
C336 C324 1.349 . S
C336 H330 0.950 . S
C336 C337 1.327 . S
C337 H331 0.950 . S
C337 C336 1.327 . S
C337 C341 1.429 . S
C338 C321 1.574 . S
C338 H332 0.949 . S
C338 C342 1.368 . S
C339 C320 1.429 . S
C339 C333 1.429 . S
C339 C340 1.523 . S
C340 C321 1.368 . S
C340 C334 1.368 . S
C340 C339 1.523 . S
C341 C325 1.429 . S
C341 C337 1.429 . S
C341 C342 1.523 . S
C342 C326 1.368 . S
C342 C338 1.368 . S
C342 C341 1.523 . S
H343 C318 0.950 . S
H344 C320 0.950 . S
H345 C321 0.949 . S
H346 C323 0.950 . S
H347 C325 0.950 . S
C348 C349 1.349 . S
C348 C350 1.327 . S
C348 H373 0.950 . S
C349 C348 1.349 . S
C349 C365 1.349 . S
C350 C348 1.327 . S
C350 C369 1.429 . S
C350 H374 0.950 . S
C351 C368 1.574 . S
C351 C370 1.368 . S
C351 H375 0.949 . S
H352 C356 0.949 . S
C353 C354 1.349 . S
C353 C355 1.327 . S
C353 H376 0.950 . S
C354 C353 1.349 . S
C354 C366 1.349 . S
C355 C353 1.327 . S
C355 C371 1.429 . S
C355 H377 0.950 . S
C356 H352 0.949 . S
C356 C364 1.574 . S
C356 C372 1.368 . S
H357 C365 0.950 . S
H358 C363 0.950 . S
H359 C364 0.949 . S
H360 C366 0.950 . S
H361 C367 0.950 . S
H362 C368 0.949 1_556 S
C363 H358 0.950 . S
C363 C365 1.327 . S
C363 C369 1.429 . S
C364 C356 1.574 . S
C364 H359 0.949 . S
C364 C370 1.368 . S
C365 C349 1.349 . S
C365 H357 0.950 . S
C365 C363 1.327 . S
C366 C354 1.349 . S
C366 H360 0.950 . S
C366 C367 1.327 . S
C367 H361 0.950 . S
C367 C366 1.327 . S
C367 C371 1.429 . S
C368 C351 1.574 . S
C368 H362 0.949 1_554 S
C368 C372 1.368 . S
C369 C350 1.429 . S
C369 C363 1.429 . S
C369 C370 1.523 . S
C370 C351 1.368 . S
C370 C364 1.368 . S
C370 C369 1.523 . S
C371 C355 1.429 . S
C371 C367 1.429 . S
C371 C372 1.523 1_556 S
C372 C356 1.368 . S
C372 C368 1.368 . S
C372 C371 1.523 1_554 S
H373 C348 0.950 . S
H374 C350 0.950 . S
H375 C351 0.949 . S
H376 C353 0.950 . S
H377 C355 0.950 . S
C378 C379 1.349 . S
C378 C380 1.327 . S
C378 H403 0.950 . S
C379 C378 1.349 . S
C379 C395 1.349 . S
C380 C378 1.327 . S
C380 C399 1.429 . S
C380 H404 0.950 . S
C381 C398 1.574 . S
C381 C400 1.368 . S
C381 H405 0.949 . S
H382 C386 0.949 . S
C383 C384 1.349 . S
C383 C385 1.327 . S
C383 H406 0.950 . S
C384 C383 1.349 . S
C384 C396 1.349 . S
C385 C383 1.327 . S
C385 C401 1.429 . S
C385 H407 0.950 . S
C386 H382 0.949 . S
C386 C394 1.574 . S
C386 C402 1.368 . S
H387 C395 0.950 . S
H388 C393 0.950 . S
H389 C394 0.949 . S
H390 C396 0.950 . S
H391 C397 0.950 . S
H392 C398 0.949 . S
C393 H388 0.950 . S
C393 C395 1.327 . S
C393 C399 1.429 . S
C394 C386 1.574 . S
C394 H389 0.949 . S
C394 C400 1.368 . S
C395 C379 1.349 . S
C395 H387 0.950 . S
C395 C393 1.327 . S
C396 C384 1.349 . S
C396 H390 0.950 . S
C396 C397 1.327 . S
C397 H391 0.950 . S
C397 C396 1.327 . S
C397 C401 1.429 . S
C398 C381 1.574 . S
C398 H392 0.949 . S
C398 C402 1.368 . S
C399 C380 1.429 . S
C399 C393 1.429 . S
C399 C400 1.523 . S
C400 C381 1.368 . S
C400 C394 1.368 . S
C400 C399 1.523 . S
C401 C385 1.429 . S
C401 C397 1.429 . S
C401 C402 1.523 . S
C402 C386 1.368 . S
C402 C398 1.368 . S
C402 C401 1.523 . S
H403 C378 0.950 . S
H404 C380 0.950 . S
H405 C381 0.949 . S
H406 C383 0.950 . S
H407 C385 0.950 . S
C408 C409 1.349 . S
C408 C410 1.327 . S
C408 H433 0.950 . S
C409 C408 1.349 . S
C409 C425 1.349 . S
C410 C408 1.327 . S
C410 C429 1.429 . S
C410 H434 0.950 . S
C411 C428 1.574 . S
C411 C430 1.368 . S
C411 H435 0.949 . S
H412 C416 0.949 . S
C413 C414 1.349 . S
C413 C415 1.327 . S
C413 H436 0.950 . S
C414 C413 1.349 . S
C414 C426 1.349 . S
C415 C413 1.327 . S
C415 C431 1.429 . S
C415 H437 0.950 . S
C416 H412 0.949 . S
C416 C424 1.574 . S
C416 C432 1.368 . S
H417 C425 0.950 . S
H418 C423 0.950 . S
H419 C424 0.949 . S
H420 C426 0.950 . S
H421 C427 0.950 . S
H422 C428 0.949 . S
C423 H418 0.950 . S
C423 C425 1.327 . S
C423 C429 1.429 . S
C424 C416 1.574 . S
C424 H419 0.949 . S
C424 C430 1.368 . S
C425 C409 1.349 . S
C425 H417 0.950 . S
C425 C423 1.327 . S
C426 C414 1.349 . S
C426 H420 0.950 . S
C426 C427 1.327 . S
C427 H421 0.950 . S
C427 C426 1.327 . S
C427 C431 1.429 . S
C428 C411 1.574 . S
C428 H422 0.949 . S
C428 C432 1.368 . S
C429 C410 1.429 . S
C429 C423 1.429 . S
C429 C430 1.523 . S
C430 C411 1.368 . S
C430 C424 1.368 . S
C430 C429 1.523 . S
C431 C415 1.429 . S
C431 C427 1.429 . S
C431 C432 1.523 . S
C432 C416 1.368 . S
C432 C428 1.368 . S
C432 C431 1.523 . S
H433 C408 0.950 . S
H434 C410 0.950 . S
H435 C411 0.949 . S
H436 C413 0.950 . S
H437 C415 0.950 . S
C438 C439 1.349 . S
C438 C440 1.327 . S
C438 H463 0.950 . S
C439 C438 1.349 . S
C439 C455 1.349 . S
C440 C438 1.327 . S
C440 C459 1.429 . S
C440 H464 0.950 . S
C441 C458 1.574 . S
C441 C460 1.368 . S
C441 H465 0.949 . S
H442 C446 0.949 . S
C443 C444 1.349 . S
C443 C445 1.327 . S
C443 H466 0.950 . S
C444 C443 1.349 . S
C444 C456 1.349 . S
C445 C443 1.327 . S
C445 C461 1.429 . S
C445 H467 0.950 . S
C446 H442 0.949 . S
C446 C454 1.574 . S
C446 C462 1.368 . S
H447 C455 0.950 . S
H448 C453 0.950 . S
H449 C454 0.949 . S
H450 C456 0.950 . S
H451 C457 0.950 . S
H452 C458 0.949 . S
C453 H448 0.950 . S
C453 C455 1.327 . S
C453 C459 1.429 . S
C454 C446 1.574 . S
C454 H449 0.949 . S
C454 C460 1.368 . S
C455 C439 1.349 . S
C455 H447 0.950 . S
C455 C453 1.327 . S
C456 C444 1.349 . S
C456 H450 0.950 . S
C456 C457 1.327 . S
C457 H451 0.950 . S
C457 C456 1.327 . S
C457 C461 1.429 . S
C458 C441 1.574 . S
C458 H452 0.949 . S
C458 C462 1.368 . S
C459 C440 1.429 . S
C459 C453 1.429 . S
C459 C460 1.523 . S
C460 C441 1.368 . S
C460 C454 1.368 . S
C460 C459 1.523 . S
C461 C445 1.429 . S
C461 C457 1.429 . S
C461 C462 1.523 . S
C462 C446 1.368 . S
C462 C458 1.368 . S
C462 C461 1.523 . S
H463 C438 0.950 . S
H464 C440 0.950 . S
H465 C441 0.949 . S
H466 C443 0.950 . S
H467 C445 0.950 . S
C468 C469 1.349 . S
C468 C470 1.327 1_554 S
C468 H493 0.950 . S
C469 C468 1.349 . S
C469 C485 1.349 1_554 S
C470 C468 1.327 1_556 S
C470 C489 1.429 . S
C470 H494 0.950 1_556 S
C471 C488 1.574 . S
C471 C490 1.368 . S
C471 H495 0.949 . S
H472 C476 0.949 . S
C473 C474 1.349 . S
C473 C475 1.327 . S
C473 H496 0.950 . S
C474 C473 1.349 . S
C474 C486 1.349 . S
C475 C473 1.327 . S
C475 C491 1.429 . S
C475 H497 0.950 . S
C476 H472 0.949 . S
C476 C484 1.574 . S
C476 C492 1.368 . S
H477 C485 0.950 . S
H478 C483 0.950 . S
H479 C484 0.949 . S
H480 C486 0.950 . S
H481 C487 0.950 . S
H482 C488 0.949 . S
C483 H478 0.950 . S
C483 C485 1.327 . S
C483 C489 1.429 . S
C484 C476 1.574 . S
C484 H479 0.949 . S
C484 C490 1.368 . S
C485 C469 1.349 1_556 S
C485 H477 0.950 . S
C485 C483 1.327 . S
C486 C474 1.349 . S
C486 H480 0.950 . S
C486 C487 1.327 . S
C487 H481 0.950 . S
C487 C486 1.327 . S
C487 C491 1.429 . S
C488 C471 1.574 . S
C488 H482 0.949 . S
C488 C492 1.368 . S
C489 C470 1.429 . S
C489 C483 1.429 . S
C489 C490 1.523 . S
C490 C471 1.368 . S
C490 C484 1.368 . S
C490 C489 1.523 . S
C491 C475 1.429 . S
C491 C487 1.429 . S
C491 C492 1.523 . S
C492 C476 1.368 . S
C492 C488 1.368 . S
C492 C491 1.523 . S
H493 C468 0.950 . S
H494 C470 0.950 1_554 S
H495 C471 0.949 . S
H496 C473 0.950 . S
H497 C475 0.950 . S
C498 C499 1.349 . S
C498 C500 1.327 . S
C498 H523 0.950 . S
C499 C498 1.349 . S
C499 C515 1.349 . S
C500 C498 1.327 . S
C500 C519 1.429 . S
C500 H524 0.950 . S
C501 C518 1.574 . S
C501 C520 1.368 . S
C501 H525 0.949 . S
H502 C506 0.949 . S
C503 C504 1.349 . S
C503 C505 1.327 . S
C503 H526 0.950 . S
C504 C503 1.349 . S
C504 C516 1.349 . S
C505 C503 1.327 . S
C505 C521 1.429 . S
C505 H527 0.950 . S
C506 H502 0.949 . S
C506 C514 1.574 . S
C506 C522 1.368 . S
H507 C515 0.950 . S
H508 C513 0.950 . S
H509 C514 0.949 . S
H510 C516 0.950 . S
H511 C517 0.950 . S
H512 C518 0.949 . S
C513 H508 0.950 . S
C513 C515 1.327 . S
C513 C519 1.429 . S
C514 C506 1.574 . S
C514 H509 0.949 . S
C514 C520 1.368 . S
C515 C499 1.349 . S
C515 H507 0.950 . S
C515 C513 1.327 . S
C516 C504 1.349 . S
C516 H510 0.950 . S
C516 C517 1.327 . S
C517 H511 0.950 . S
C517 C516 1.327 . S
C517 C521 1.429 . S
C518 C501 1.574 . S
C518 H512 0.949 . S
C518 C522 1.368 . S
C519 C500 1.429 . S
C519 C513 1.429 . S
C519 C520 1.523 . S
C520 C501 1.368 . S
C520 C514 1.368 . S
C520 C519 1.523 . S
C521 C505 1.429 . S
C521 C517 1.429 . S
C521 C522 1.523 . S
C522 C506 1.368 . S
C522 C518 1.368 . S
C522 C521 1.523 . S
H523 C498 0.950 . S
H524 C500 0.950 . S
H525 C501 0.949 . S
H526 C503 0.950 . S
H527 C505 0.950 . S
C528 C529 1.349 . S
C528 C530 1.327 . S
C528 H553 0.950 . S
C529 C528 1.349 . S
C529 C545 1.349 . S
C530 C528 1.327 . S
C530 C549 1.429 . S
C530 H554 0.950 . S
C531 C548 1.574 1_565 S
C531 C550 1.368 . S
C531 H555 0.949 . S
H532 C536 0.949 . S
C533 C534 1.349 . S
C533 C535 1.327 . S
C533 H556 0.950 . S
C534 C533 1.349 . S
C534 C546 1.349 . S
C535 C533 1.327 . S
C535 C551 1.429 . S
C535 H557 0.950 . S
C536 H532 0.949 . S
C536 C544 1.574 1_545 S
C536 C552 1.368 . S
H537 C545 0.950 . S
H538 C543 0.950 . S
H539 C544 0.949 . S
H540 C546 0.950 . S
H541 C547 0.950 . S
H542 C548 0.949 . S
C543 H538 0.950 . S
C543 C545 1.327 . S
C543 C549 1.429 . S
C544 C536 1.574 1_565 S
C544 H539 0.949 . S
C544 C550 1.368 . S
C545 C529 1.349 . S
C545 H537 0.950 . S
C545 C543 1.327 . S
C546 C534 1.349 . S
C546 H540 0.950 . S
C546 C547 1.327 . S
C547 H541 0.950 . S
C547 C546 1.327 . S
C547 C551 1.429 . S
C548 C531 1.574 1_545 S
C548 H542 0.949 . S
C548 C552 1.368 . S
C549 C530 1.429 . S
C549 C543 1.429 . S
C549 C550 1.523 . S
C550 C531 1.368 . S
C550 C544 1.368 . S
C550 C549 1.523 . S
C551 C535 1.429 . S
C551 C547 1.429 . S
C551 C552 1.523 . S
C552 C536 1.368 . S
C552 C548 1.368 . S
C552 C551 1.523 . S
H553 C528 0.950 . S
H554 C530 0.950 . S
H555 C531 0.949 . S
H556 C533 0.950 . S
H557 C535 0.950 . S
C558 C559 1.349 . S
C558 C560 1.327 . S
C558 H583 0.950 . S
C559 C558 1.349 . S
C559 C575 1.349 . S
C560 C558 1.327 . S
C560 C579 1.429 . S
C560 H584 0.950 . S
C561 C578 1.574 1_655 S
C561 C580 1.368 . S
C561 H585 0.949 . S
H562 C566 0.949 . S
C563 C564 1.349 . S
C563 C565 1.327 . S
C563 H586 0.950 . S
C564 C563 1.349 . S
C564 C576 1.349 . S
C565 C563 1.327 . S
C565 C581 1.429 . S
C565 H587 0.950 . S
C566 H562 0.949 . S
C566 C574 1.574 1_455 S
C566 C582 1.368 . S
H567 C575 0.950 . S
H568 C573 0.950 . S
H569 C574 0.949 . S
H570 C576 0.950 . S
H571 C577 0.950 . S
H572 C578 0.949 . S
C573 H568 0.950 . S
C573 C575 1.327 . S
C573 C579 1.429 . S
C574 C566 1.574 1_655 S
C574 H569 0.949 . S
C574 C580 1.368 . S
C575 C559 1.349 . S
C575 H567 0.950 . S
C575 C573 1.327 . S
C576 C564 1.349 . S
C576 H570 0.950 . S
C576 C577 1.327 . S
C577 H571 0.950 . S
C577 C576 1.327 . S
C577 C581 1.429 . S
C578 C561 1.574 1_455 S
C578 H572 0.949 . S
C578 C582 1.368 . S
C579 C560 1.429 . S
C579 C573 1.429 . S
C579 C580 1.523 . S
C580 C561 1.368 . S
C580 C574 1.368 . S
C580 C579 1.523 . S
C581 C565 1.429 . S
C581 C577 1.429 . S
C581 C582 1.523 . S
C582 C566 1.368 . S
C582 C578 1.368 . S
C582 C581 1.523 . S
H583 C558 0.950 . S
H584 C560 0.950 . S
H585 C561 0.949 . S
H586 C563 0.950 . S
H587 C565 0.950 . S
C588 C589 1.349 . S
C588 C590 1.327 . S
C588 H613 0.950 . S
C589 C588 1.349 . S
C589 C605 1.349 . S
C590 C588 1.327 . S
C590 C609 1.429 . S
C590 H614 0.950 . S
C591 C608 1.574 1_565 S
C591 C610 1.368 . S
C591 H615 0.949 . S
H592 C596 0.949 . S
C593 C594 1.349 . S
C593 C595 1.327 . S
C593 H616 0.950 . S
C594 C593 1.349 . S
C594 C606 1.349 . S
C595 C593 1.327 . S
C595 C611 1.429 . S
C595 H617 0.950 . S
C596 H592 0.949 . S
C596 C604 1.574 1_545 S
C596 C612 1.368 . S
H597 C605 0.950 . S
H598 C603 0.950 . S
H599 C604 0.949 . S
H600 C606 0.950 . S
H601 C607 0.950 . S
H602 C608 0.949 . S
C603 H598 0.950 . S
C603 C605 1.327 . S
C603 C609 1.429 . S
C604 C596 1.574 1_565 S
C604 H599 0.949 . S
C604 C610 1.368 . S
C605 C589 1.349 . S
C605 H597 0.950 . S
C605 C603 1.327 . S
C606 C594 1.349 . S
C606 H600 0.950 . S
C606 C607 1.327 . S
C607 H601 0.950 . S
C607 C606 1.327 . S
C607 C611 1.429 . S
C608 C591 1.574 1_545 S
C608 H602 0.949 . S
C608 C612 1.368 . S
C609 C590 1.429 . S
C609 C603 1.429 . S
C609 C610 1.523 . S
C610 C591 1.368 . S
C610 C604 1.368 . S
C610 C609 1.523 . S
C611 C595 1.429 . S
C611 C607 1.429 . S
C611 C612 1.523 . S
C612 C596 1.368 . S
C612 C608 1.368 . S
C612 C611 1.523 . S
H613 C588 0.950 . S
H614 C590 0.950 . S
H615 C591 0.949 . S
H616 C593 0.950 . S
H617 C595 0.950 . S
C618 C619 1.349 . S
C618 C620 1.327 . S
C618 H643 0.950 . S
C619 C618 1.349 . S
C619 C635 1.349 . S
C620 C618 1.327 . S
C620 C639 1.429 . S
C620 H644 0.950 . S
C621 C638 1.574 1_655 S
C621 C640 1.368 . S
C621 H645 0.949 . S
H622 C626 0.949 . S
C623 C624 1.349 . S
C623 C625 1.327 . S
C623 H646 0.950 . S
C624 C623 1.349 . S
C624 C636 1.349 . S
C625 C623 1.327 . S
C625 C641 1.429 . S
C625 H647 0.950 . S
C626 H622 0.949 . S
C626 C634 1.574 1_455 S
C626 C642 1.368 . S
H627 C635 0.950 . S
H628 C633 0.950 . S
H629 C634 0.949 . S
H630 C636 0.950 . S
H631 C637 0.950 . S
H632 C638 0.949 . S
C633 H628 0.950 . S
C633 C635 1.327 . S
C633 C639 1.429 . S
C634 C626 1.574 1_655 S
C634 H629 0.949 . S
C634 C640 1.368 . S
C635 C619 1.349 . S
C635 H627 0.950 . S
C635 C633 1.327 . S
C636 C624 1.349 . S
C636 H630 0.950 . S
C636 C637 1.327 . S
C637 H631 0.950 . S
C637 C636 1.327 . S
C637 C641 1.429 . S
C638 C621 1.574 1_455 S
C638 H632 0.949 . S
C638 C642 1.368 . S
C639 C620 1.429 . S
C639 C633 1.429 . S
C639 C640 1.523 . S
C640 C621 1.368 . S
C640 C634 1.368 . S
C640 C639 1.523 . S
C641 C625 1.429 . S
C641 C637 1.429 . S
C641 C642 1.523 . S
C642 C626 1.368 . S
C642 C638 1.368 . S
C642 C641 1.523 . S
H643 C618 0.950 . S
H644 C620 0.950 . S
H645 C621 0.949 . S
H646 C623 0.950 . S
H647 C625 0.950 . S
C648 C649 1.349 . S
C648 C650 1.327 . S
C648 H673 0.950 . S
C649 C648 1.349 . S
C649 C665 1.349 . S
C650 C648 1.327 . S
C650 C669 1.429 . S
C650 H674 0.950 . S
C651 C668 1.574 . S
C651 C670 1.368 . S
C651 H675 0.949 1_554 S
H652 C656 0.949 . S
C653 C654 1.349 . S
C653 C655 1.327 . S
C653 H676 0.950 . S
C654 C653 1.349 . S
C654 C666 1.349 . S
C655 C653 1.327 . S
C655 C671 1.429 . S
C655 H677 0.950 . S
C656 H652 0.949 . S
C656 C664 1.574 . S
C656 C672 1.368 . S
H657 C665 0.950 . S
H658 C663 0.950 . S
H659 C664 0.949 . S
H660 C666 0.950 . S
H661 C667 0.950 . S
H662 C668 0.949 . S
C663 H658 0.950 . S
C663 C665 1.327 . S
C663 C669 1.429 . S
C664 C656 1.574 . S
C664 H659 0.949 . S
C664 C670 1.368 . S
C665 C649 1.349 . S
C665 H657 0.950 . S
C665 C663 1.327 . S
C666 C654 1.349 . S
C666 H660 0.950 . S
C666 C667 1.327 . S
C667 H661 0.950 . S
C667 C666 1.327 . S
C667 C671 1.429 . S
C668 C651 1.574 . S
C668 H662 0.949 . S
C668 C672 1.368 . S
C669 C650 1.429 . S
C669 C663 1.429 . S
C669 C670 1.523 1_556 S
C670 C651 1.368 . S
C670 C664 1.368 . S
C670 C669 1.523 1_554 S
C671 C655 1.429 . S
C671 C667 1.429 . S
C671 C672 1.523 . S
C672 C656 1.368 . S
C672 C668 1.368 . S
C672 C671 1.523 . S
H673 C648 0.950 . S
H674 C650 0.950 . S
H675 C651 0.949 1_556 S
H676 C653 0.950 . S
H677 C655 0.950 . S
C678 C679 1.349 . S
C678 C680 1.327 . S
C678 H703 0.950 . S
C679 C678 1.349 . S
C679 C695 1.349 . S
C680 C678 1.327 . S
C680 C699 1.429 . S
C680 H704 0.950 . S
C681 C698 1.574 . S
C681 C700 1.368 . S
C681 H705 0.949 . S
H682 C686 0.949 . S
C683 C684 1.349 . S
C683 C685 1.327 . S
C683 H706 0.950 . S
C684 C683 1.349 . S
C684 C696 1.349 . S
C685 C683 1.327 . S
C685 C701 1.429 . S
C685 H707 0.950 . S
C686 H682 0.949 . S
C686 C694 1.574 . S
C686 C702 1.368 . S
H687 C695 0.950 . S
H688 C693 0.950 . S
H689 C694 0.949 . S
H690 C696 0.950 . S
H691 C697 0.950 . S
H692 C698 0.949 . S
C693 H688 0.950 . S
C693 C695 1.327 . S
C693 C699 1.429 . S
C694 C686 1.574 . S
C694 H689 0.949 . S
C694 C700 1.368 . S
C695 C679 1.349 . S
C695 H687 0.950 . S
C695 C693 1.327 . S
C696 C684 1.349 . S
C696 H690 0.950 . S
C696 C697 1.327 . S
C697 H691 0.950 . S
C697 C696 1.327 . S
C697 C701 1.429 . S
C698 C681 1.574 . S
C698 H692 0.949 . S
C698 C702 1.368 . S
C699 C680 1.429 . S
C699 C693 1.429 . S
C699 C700 1.523 . S
C700 C681 1.368 . S
C700 C694 1.368 . S
C700 C699 1.523 . S
C701 C685 1.429 . S
C701 C697 1.429 . S
C701 C702 1.523 . S
C702 C686 1.368 . S
C702 C698 1.368 . S
C702 C701 1.523 . S
H703 C678 0.950 . S
H704 C680 0.950 . S
H705 C681 0.949 . S
H706 C683 0.950 . S
H707 C685 0.950 . S
C708 C709 1.349 . S
C708 C710 1.327 . S
C708 H733 0.950 . S
C709 C708 1.349 . S
C709 C725 1.349 . S
C710 C708 1.327 . S
C710 C729 1.429 . S
C710 H734 0.950 . S
C711 C728 1.574 . S
C711 C730 1.368 . S
C711 H735 0.949 . S
H712 C716 0.949 . S
C713 C714 1.349 . S
C713 C715 1.327 . S
C713 H736 0.950 . S
C714 C713 1.349 . S
C714 C726 1.349 . S
C715 C713 1.327 . S
C715 C731 1.429 . S
C715 H737 0.950 . S
C716 H712 0.949 . S
C716 C724 1.574 . S
C716 C732 1.368 . S
H717 C725 0.950 . S
H718 C723 0.950 . S
H719 C724 0.949 . S
H720 C726 0.950 . S
H721 C727 0.950 . S
H722 C728 0.949 . S
C723 H718 0.950 . S
C723 C725 1.327 . S
C723 C729 1.429 . S
C724 C716 1.574 . S
C724 H719 0.949 . S
C724 C730 1.368 . S
C725 C709 1.349 . S
C725 H717 0.950 . S
C725 C723 1.327 . S
C726 C714 1.349 . S
C726 H720 0.950 . S
C726 C727 1.327 . S
C727 H721 0.950 . S
C727 C726 1.327 . S
C727 C731 1.429 . S
C728 C711 1.574 . S
C728 H722 0.949 . S
C728 C732 1.368 . S
C729 C710 1.429 . S
C729 C723 1.429 . S
C729 C730 1.523 . S
C730 C711 1.368 . S
C730 C724 1.368 . S
C730 C729 1.523 . S
C731 C715 1.429 . S
C731 C727 1.429 . S
C731 C732 1.523 . S
C732 C716 1.368 . S
C732 C728 1.368 . S
C732 C731 1.523 . S
H733 C708 0.950 . S
H734 C710 0.950 . S
H735 C711 0.949 . S
H736 C713 0.950 . S
H737 C715 0.950 . S
C738 C739 1.349 . S
C738 C740 1.327 . S
C738 H763 0.950 . S
C739 C738 1.349 . S
C739 C755 1.349 . S
C740 C738 1.327 . S
C740 C759 1.429 . S
C740 H764 0.950 . S
C741 C758 1.574 . S
C741 C760 1.368 . S
C741 H765 0.949 . S
H742 C746 0.949 . S
C743 C744 1.349 . S
C743 C745 1.327 . S
C743 H766 0.950 . S
C744 C743 1.349 . S
C744 C756 1.349 . S
C745 C743 1.327 . S
C745 C761 1.429 . S
C745 H767 0.950 . S
C746 H742 0.949 . S
C746 C754 1.574 . S
C746 C762 1.368 . S
H747 C755 0.950 . S
H748 C753 0.950 . S
H749 C754 0.949 . S
H750 C756 0.950 . S
H751 C757 0.950 . S
H752 C758 0.949 . S
C753 H748 0.950 . S
C753 C755 1.327 . S
C753 C759 1.429 . S
C754 C746 1.574 . S
C754 H749 0.949 . S
C754 C760 1.368 . S
C755 C739 1.349 . S
C755 H747 0.950 . S
C755 C753 1.327 . S
C756 C744 1.349 . S
C756 H750 0.950 . S
C756 C757 1.327 . S
C757 H751 0.950 . S
C757 C756 1.327 . S
C757 C761 1.429 . S
C758 C741 1.574 . S
C758 H752 0.949 . S
C758 C762 1.368 . S
C759 C740 1.429 . S
C759 C753 1.429 . S
C759 C760 1.523 . S
C760 C741 1.368 . S
C760 C754 1.368 . S
C760 C759 1.523 . S
C761 C745 1.429 . S
C761 C757 1.429 . S
C761 C762 1.523 . S
C762 C746 1.368 . S
C762 C758 1.368 . S
C762 C761 1.523 . S
H763 C738 0.950 . S
H764 C740 0.950 . S
H765 C741 0.949 . S
H766 C743 0.950 . S
H767 C745 0.950 . S
C289 C2 0.631 . S
C294 C218 0.631 . S
C319 C38 0.631 . S
C324 C254 0.631 . S
C349 C146 0.631 . S
C354 C74 0.631 . S
C379 C182 0.631 . S
C384 C110 0.631 . S
C409 C3 1.404 . S
C414 C183 1.404 . S
C439 C39 1.404 . S
C444 C219 1.404 . S
C469 C255 1.404 . S
C474 C75 1.404 . S
C499 C111 1.404 . S
C504 C147 1.404 . S
C529 C148 1.469 . S
C534 C4 1.469 . S
C559 C40 1.469 . S
C564 C184 1.469 . S
C589 C76 1.469 . S
C594 C220 1.469 . S
C619 C256 1.469 . S
C624 C112 1.469 . S
C649 C230 1.345 . S
C654 C14 1.345 . S
C679 C266 1.345 . S
C684 C50 1.345 . S
C709 C86 1.345 . S
C714 C158 1.345 . S
C739 C122 1.345 . S
C744 C194 1.345 . S
