# Generated by pormake.
# Topology pcl, (4)-cn, num edge types: 1
# Building blocks:
#     Node 0, Type 0, BuildingBlock: AZAVOO_clean_sbu_0, # of connection points: 4
#     Node 1, Type 0, BuildingBlock: AZAVOO_clean_sbu_0, # of connection points: 4
#     Node 2, Type 0, BuildingBlock: AZAVOO_clean_sbu_0, # of connection points: 4
#     Node 3, Type 0, BuildingBlock: AZAVOO_clean_sbu_0, # of connection points: 4
#     Node 4, Type 0, BuildingBlock: AZAVOO_clean_sbu_0, # of connection points: 4
#     Node 5, Type 0, BuildingBlock: AZAVOO_clean_sbu_0, # of connection points: 4
#     Node 6, Type 0, BuildingBlock: AZAVOO_clean_sbu_0, # of connection points: 4
#     Node 7, Type 0, BuildingBlock: AZAVOO_clean_sbu_0, # of connection points: 4
#     Node 8, Type 0, BuildingBlock: AZAVOO_clean_sbu_0, # of connection points: 4
#     Node 9, Type 0, BuildingBlock: AZAVOO_clean_sbu_0, # of connection points: 4
#     Node 10, Type 0, BuildingBlock: AZAVOO_clean_sbu_0, # of connection points: 4
#     Node 11, Type 0, BuildingBlock: AZAVOO_clean_sbu_0, # of connection points: 4
#     Node 12, Type 0, BuildingBlock: AZAVOO_clean_sbu_0, # of connection points: 4
#     Node 13, Type 0, BuildingBlock: AZAVOO_clean_sbu_0, # of connection points: 4
#     Node 14, Type 0, BuildingBlock: AZAVOO_clean_sbu_0, # of connection points: 4
#     Node 15, Type 0, BuildingBlock: AZAVOO_clean_sbu_0, # of connection points: 4
#     Edge 16, Type (0, 0), BuildingBlock: MIFKUJ_clean_linker_0, # of connection points: 2
#     Edge 17, Type (0, 0), BuildingBlock: MIFKUJ_clean_linker_0, # of connection points: 2
#     Edge 18, Type (0, 0), BuildingBlock: MIFKUJ_clean_linker_0, # of connection points: 2
#     Edge 19, Type (0, 0), BuildingBlock: MIFKUJ_clean_linker_0, # of connection points: 2
#     Edge 20, Type (0, 0), BuildingBlock: MIFKUJ_clean_linker_0, # of connection points: 2
#     Edge 21, Type (0, 0), BuildingBlock: MIFKUJ_clean_linker_0, # of connection points: 2
#     Edge 22, Type (0, 0), BuildingBlock: MIFKUJ_clean_linker_0, # of connection points: 2
#     Edge 23, Type (0, 0), BuildingBlock: MIFKUJ_clean_linker_0, # of connection points: 2
#     Edge 24, Type (0, 0), BuildingBlock: MIFKUJ_clean_linker_0, # of connection points: 2
#     Edge 25, Type (0, 0), BuildingBlock: MIFKUJ_clean_linker_0, # of connection points: 2
#     Edge 26, Type (0, 0), BuildingBlock: MIFKUJ_clean_linker_0, # of connection points: 2
#     Edge 27, Type (0, 0), BuildingBlock: MIFKUJ_clean_linker_0, # of connection points: 2
#     Edge 28, Type (0, 0), BuildingBlock: MIFKUJ_clean_linker_0, # of connection points: 2
#     Edge 29, Type (0, 0), BuildingBlock: MIFKUJ_clean_linker_0, # of connection points: 2
#     Edge 30, Type (0, 0), BuildingBlock: MIFKUJ_clean_linker_0, # of connection points: 2
#     Edge 31, Type (0, 0), BuildingBlock: MIFKUJ_clean_linker_0, # of connection points: 2
#     Edge 32, Type (0, 0), BuildingBlock: MIFKUJ_clean_linker_0, # of connection points: 2
#     Edge 33, Type (0, 0), BuildingBlock: MIFKUJ_clean_linker_0, # of connection points: 2
#     Edge 34, Type (0, 0), BuildingBlock: MIFKUJ_clean_linker_0, # of connection points: 2
#     Edge 35, Type (0, 0), BuildingBlock: MIFKUJ_clean_linker_0, # of connection points: 2
#     Edge 36, Type (0, 0), BuildingBlock: MIFKUJ_clean_linker_0, # of connection points: 2
#     Edge 37, Type (0, 0), BuildingBlock: MIFKUJ_clean_linker_0, # of connection points: 2
#     Edge 38, Type (0, 0), BuildingBlock: MIFKUJ_clean_linker_0, # of connection points: 2
#     Edge 39, Type (0, 0), BuildingBlock: MIFKUJ_clean_linker_0, # of connection points: 2
#     Edge 40, Type (0, 0), BuildingBlock: MIFKUJ_clean_linker_0, # of connection points: 2
#     Edge 41, Type (0, 0), BuildingBlock: MIFKUJ_clean_linker_0, # of connection points: 2
#     Edge 42, Type (0, 0), BuildingBlock: MIFKUJ_clean_linker_0, # of connection points: 2
#     Edge 43, Type (0, 0), BuildingBlock: MIFKUJ_clean_linker_0, # of connection points: 2
#     Edge 44, Type (0, 0), BuildingBlock: MIFKUJ_clean_linker_0, # of connection points: 2
#     Edge 45, Type (0, 0), BuildingBlock: MIFKUJ_clean_linker_0, # of connection points: 2
#     Edge 46, Type (0, 0), BuildingBlock: MIFKUJ_clean_linker_0, # of connection points: 2
#     Edge 47, Type (0, 0), BuildingBlock: MIFKUJ_clean_linker_0, # of connection points: 2
# Relax obj value: 0.077
# Max RMSD: 0.071
# Mean RMSD: 0.070
data_MOF--net-pcl--node1-AZAVOO_clean_sbu_0--edge1-MIFKUJ_clean_linker_0
_symmetry_space_group_name_H-M    P1
_symmetry_Int_Tables_number       1
_symmetry_cell_setting            triclinic
loop_
_symmetry_equiv_pos_as_xyz
'x, y, z'
_cell_length_a     50.981669
_cell_length_b     66.366903
_cell_length_c     59.01177
_cell_angle_alpha  89.869066
_cell_angle_beta   90.004656
_cell_angle_gamma 90.036002
loop_
_atom_site_label
_atom_site_type_symbol
_atom_site_fract_x
_atom_site_fract_y
_atom_site_fract_z
_atom_type_partial_charge
Mg0 Mg 0.20578 0.37091 0.08284 0.0
O1 O 0.16252 0.36949 0.07299 0.0
O2 O 0.15855 0.37548 0.0359 0.0
Mg3 Mg 0.20005 0.38064 0.02214 0.0
C4 C 0.14849 0.37154 0.05523 0.0
C5 C 0.20912 0.34399 0.12694 0.0
O6 O 0.22993 0.33646 0.11693 0.0
O7 O 0.21255 0.3403 0.06709 0.0
O8 O 0.21165 0.34779 0.03016 0.0
O9 O 0.20227 0.40359 0.0893 0.0
O10 O 0.2129 0.39066 0.05601 0.0
C11 C 0.21498 0.33523 0.04638 0.0
C12 C 0.20719 0.4063 0.06799 0.0
O13 O 0.1956 0.35726 0.11677 0.0
Mg14 Mg 0.80928 0.62261 0.57397 0.0
O15 O 0.85389 0.62725 0.57284 0.0
O16 O 0.86648 0.62469 0.53669 0.0
Mg17 Mg 0.8303 0.61839 0.51504 0.0
C18 C 0.8717 0.6275 0.55761 0.0
C19 C 0.79495 0.62313 0.62347 0.0
O20 O 0.78305 0.60711 0.61542 0.0
O21 O 0.80302 0.65395 0.5598 0.0
O22 O 0.8144 0.65002 0.52353 0.0
O23 O 0.81516 0.5898 0.5782 0.0
O24 O 0.81123 0.60492 0.54494 0.0
C25 C 0.80579 0.66089 0.53978 0.0
C26 C 0.81581 0.58867 0.55632 0.0
O27 O 0.80808 0.63414 0.60999 0.0
Mg28 Mg 0.20271 0.62383 0.92336 0.0
O29 O 0.15827 0.6245 0.92881 0.0
O30 O 0.15022 0.62581 0.966 0.0
Mg31 Mg 0.18976 0.62543 0.98424 0.0
C32 C 0.14234 0.62528 0.94547 0.0
C33 C 0.20848 0.64392 0.87498 0.0
O34 O 0.22561 0.65545 0.88537 0.0
O35 O 0.20523 0.65703 0.93194 0.0
O36 O 0.19885 0.65686 0.96939 0.0
O37 O 0.20186 0.59063 0.92487 0.0
O38 O 0.20754 0.61013 0.95487 0.0
C39 C 0.20358 0.6662 0.95085 0.0
C40 C 0.20408 0.59232 0.94665 0.0
O41 O 0.19633 0.63045 0.88613 0.0
Mg42 Mg 0.83025 0.36855 0.42023 0.0
O43 O 0.87388 0.36066 0.42447 0.0
O44 O 0.88273 0.36011 0.46157 0.0
Mg45 Mg 0.84523 0.36764 0.48084 0.0
C46 C 0.88983 0.35821 0.44095 0.0
C47 C 0.82642 0.37393 0.36938 0.0
O48 O 0.81998 0.39161 0.37764 0.0
O49 O 0.81808 0.33706 0.43114 0.0
O50 O 0.82696 0.33794 0.46827 0.0
O51 O 0.84048 0.40092 0.41976 0.0
O52 O 0.83057 0.38413 0.45099 0.0
C53 C 0.81842 0.32881 0.45069 0.0
C54 C 0.83804 0.40072 0.44157 0.0
O55 O 0.83186 0.3597 0.38303 0.0
Mg56 Mg 0.80567 0.62589 0.90681 0.0
O57 O 0.85028 0.63051 0.90612 0.0
O58 O 0.85848 0.6602 0.88959 0.0
Mg59 Mg 0.81945 0.67395 0.87869 0.0
C60 C 0.86624 0.64407 0.89934 0.0
C61 C 0.82531 0.58564 0.92722 0.0
O62 O 0.83879 0.58617 0.90825 0.0
O63 O 0.80193 0.6489 0.93504 0.0
O64 O 0.80862 0.67772 0.91626 0.0
O65 O 0.80692 0.61079 0.87343 0.0
O66 O 0.80189 0.64364 0.87783 0.0
C67 C 0.80332 0.66808 0.93447 0.0
C68 C 0.80479 0.62851 0.8644 0.0
O69 O 0.81022 0.60026 0.93199 0.0
Mg70 Mg 0.22171 0.37373 0.40657 0.0
O71 O 0.17955 0.36218 0.40643 0.0
O72 O 0.17806 0.33216 0.38943 0.0
Mg73 Mg 0.21999 0.32484 0.37791 0.0
C74 C 0.16685 0.34679 0.39958 0.0
C75 C 0.1928 0.41057 0.42668 0.0
O76 O 0.18149 0.40939 0.40673 0.0
O77 O 0.23208 0.35148 0.43466 0.0
O78 O 0.23317 0.32269 0.41498 0.0
O79 O 0.2146 0.388 0.37293 0.0
O80 O 0.22969 0.35704 0.37767 0.0
C81 C 0.23633 0.33256 0.43335 0.0
C82 C 0.22126 0.37086 0.36422 0.0
O83 O 0.21019 0.39769 0.43202 0.0
Mg84 Mg 0.8097 0.36633 0.08515 0.0
O85 O 0.85447 0.36279 0.08474 0.0
O86 O 0.86493 0.3358 0.10559 0.0
Mg87 Mg 0.82684 0.32132 0.11786 0.0
C88 C 0.87144 0.35087 0.09333 0.0
C89 C 0.79921 0.4059 0.06079 0.0
O90 O 0.78373 0.40679 0.07856 0.0
O91 O 0.80618 0.34112 0.05938 0.0
O92 O 0.81572 0.31435 0.08089 0.0
O93 O 0.81218 0.38387 0.11709 0.0
O94 O 0.80747 0.35079 0.11584 0.0
C95 C 0.80912 0.32215 0.06189 0.0
C96 C 0.81098 0.36682 0.12773 0.0
O97 O 0.81288 0.39016 0.05773 0.0
Mg98 Mg 0.20445 0.62364 0.59129 0.0
O99 O 0.16098 0.63227 0.59342 0.0
O100 O 0.15732 0.66153 0.61178 0.0
Mg101 Mg 0.19879 0.67212 0.62033 0.0
C102 C 0.14707 0.64649 0.60163 0.0
C103 C 0.2017 0.58125 0.57134 0.0
O104 O 0.21496 0.57847 0.59018 0.0
O105 O 0.21073 0.6465 0.56311 0.0
O106 O 0.2074 0.67546 0.58221 0.0
O107 O 0.20113 0.60873 0.62482 0.0
O108 O 0.21234 0.64067 0.62006 0.0
C109 C 0.21108 0.66572 0.56381 0.0
C110 C 0.20653 0.6261 0.63361 0.0
O111 O 0.19429 0.59895 0.56621 0.0
Mg112 Mg 0.69867 0.87015 0.07258 0.0
O113 O 0.65391 0.87024 0.06863 0.0
O114 O 0.64436 0.87033 0.03168 0.0
Mg115 Mg 0.68294 0.87082 0.01208 0.0
C116 C 0.63731 0.87026 0.05243 0.0
C117 C 0.68225 0.87488 0.12209 0.0
O118 O 0.67338 0.89153 0.11279 0.0
O119 O 0.70026 0.83724 0.06254 0.0
O120 O 0.69238 0.83898 0.02535 0.0
O121 O 0.69891 0.90344 0.07236 0.0
O122 O 0.70236 0.8849 0.04143 0.0
C123 C 0.69776 0.82887 0.04323 0.0
C124 C 0.69992 0.90246 0.05049 0.0
O125 O 0.69387 0.86204 0.10972 0.0
Mg126 Mg 0.27457 0.11857 0.57362 0.0
O127 O 0.31862 0.1162 0.56601 0.0
O128 O 0.32436 0.11517 0.5285 0.0
Mg129 Mg 0.28381 0.11681 0.51222 0.0
C130 C 0.33349 0.1152 0.54864 0.0
C131 C 0.27701 0.14119 0.62107 0.0
O132 O 0.26251 0.15491 0.61101 0.0
O133 O 0.27557 0.15148 0.56329 0.0
O134 O 0.28046 0.14924 0.52575 0.0
O135 O 0.27135 0.08546 0.57406 0.0
O136 O 0.26614 0.10406 0.54321 0.0
C137 C 0.27789 0.15965 0.54382 0.0
C138 C 0.26799 0.08643 0.55234 0.0
O139 O 0.28444 0.1258 0.61007 0.0
Mg140 Mg 0.69662 0.12269 0.90997 0.0
O141 O 0.65285 0.12801 0.91624 0.0
O142 O 0.64547 0.1246 0.95336 0.0
Mg143 Mg 0.68427 0.11656 0.97063 0.0
C144 C 0.63739 0.12814 0.93326 0.0
C145 C 0.70289 0.12383 0.85938 0.0
O146 O 0.71468 0.1072 0.86592 0.0
O147 O 0.70652 0.1535 0.92451 0.0
O148 O 0.70147 0.14753 0.96155 0.0
O149 O 0.68911 0.08984 0.90572 0.0
O150 O 0.69859 0.10418 0.93844 0.0
C151 C 0.70806 0.15908 0.94515 0.0
C152 C 0.69216 0.0882 0.92741 0.0
O153 O 0.69282 0.13517 0.87432 0.0
Mg154 Mg 0.29103 0.86801 0.40939 0.0
O155 O 0.33508 0.86984 0.41659 0.0
O156 O 0.34122 0.87356 0.45381 0.0
Mg157 Mg 0.30068 0.87451 0.47032 0.0
C158 C 0.35017 0.87177 0.43372 0.0
C159 C 0.29061 0.84187 0.3644 0.0
O160 O 0.27418 0.83036 0.37568 0.0
O161 O 0.29021 0.83611 0.42322 0.0
O162 O 0.29465 0.84126 0.46044 0.0
O163 O 0.28911 0.9012 0.40577 0.0
O164 O 0.28323 0.88498 0.43818 0.0
C165 C 0.29153 0.82951 0.4435 0.0
C166 C 0.28535 0.90186 0.42745 0.0
O167 O 0.30026 0.85735 0.37388 0.0
Mg168 Mg 0.30032 0.12512 0.90418 0.0
O169 O 0.34461 0.13093 0.90199 0.0
O170 O 0.35114 0.15958 0.88282 0.0
Mg171 Mg 0.31107 0.17221 0.87297 0.0
C172 C 0.35986 0.14428 0.89359 0.0
C173 C 0.29005 0.09711 0.94531 0.0
O174 O 0.26937 0.10887 0.94634 0.0
O175 O 0.29698 0.14918 0.93154 0.0
O176 O 0.3027 0.17702 0.9107 0.0
O177 O 0.30139 0.10926 0.87088 0.0
O178 O 0.29427 0.14188 0.87496 0.0
C179 C 0.29837 0.16833 0.92969 0.0
C180 C 0.29779 0.12679 0.8617 0.0
O181 O 0.30718 0.10035 0.93011 0.0
Mg182 Mg 0.68827 0.86903 0.40645 0.0
O183 O 0.64388 0.86325 0.40675 0.0
O184 O 0.63583 0.83499 0.3875 0.0
Mg185 Mg 0.67505 0.82244 0.37538 0.0
C186 C 0.62797 0.85013 0.39892 0.0
C187 C 0.69417 0.90999 0.42876 0.0
O188 O 0.70889 0.91142 0.41055 0.0
O189 O 0.69435 0.84462 0.433 0.0
O190 O 0.68704 0.8169 0.41245 0.0
O191 O 0.68424 0.8857 0.37407 0.0
O192 O 0.69186 0.85296 0.37627 0.0
C193 C 0.69309 0.82548 0.43111 0.0
C194 C 0.68695 0.86856 0.36393 0.0
O195 O 0.68285 0.89335 0.433 0.0
Mg196 Mg 0.29952 0.86762 0.08485 0.0
O197 O 0.34428 0.86381 0.08482 0.0
O198 O 0.35353 0.83309 0.09821 0.0
Mg199 Mg 0.31494 0.81736 0.10677 0.0
C200 C 0.36073 0.85014 0.09032 0.0
C201 C 0.28674 0.90968 0.06731 0.0
O202 O 0.26867 0.90653 0.0828 0.0
O203 O 0.29589 0.84755 0.05373 0.0
O204 O 0.30451 0.81737 0.06892 0.0
O205 O 0.30157 0.87884 0.12025 0.0
O206 O 0.29612 0.84682 0.11106 0.0
C207 C 0.29846 0.82848 0.05198 0.0
C208 C 0.29967 0.86019 0.12653 0.0
O209 O 0.30335 0.89587 0.06336 0.0
Mg210 Mg 0.67143 0.13131 0.5776 0.0
O211 O 0.62662 0.13417 0.57759 0.0
O212 O 0.61593 0.16322 0.59425 0.0
Mg213 Mg 0.65378 0.17817 0.60636 0.0
C214 C 0.60957 0.14693 0.58421 0.0
C215 C 0.65474 0.0907 0.55692 0.0
O216 O 0.64156 0.09072 0.57605 0.0
O217 O 0.67516 0.15513 0.55004 0.0
O218 O 0.6663 0.18329 0.56931 0.0
O219 O 0.67026 0.11558 0.61068 0.0
O220 O 0.67363 0.14864 0.607 0.0
C221 C 0.67296 0.17426 0.55108 0.0
C222 C 0.67147 0.13316 0.6201 0.0
O223 O 0.66879 0.10591 0.55194 0.0
H224 H 0.11084 0.38195 0.02409 0.0
H225 H 0.06317 0.37904 0.02818 0.0
H226 H 0.07331 0.35373 0.09499 0.0
H227 H 0.12082 0.35655 0.09111 0.0
H228 H 0.03774 0.33246 0.06824 0.0
H229 H 0.05639 0.40194 0.08898 0.0
H230 H 0.07394 0.43601 0.08175 0.0
H231 H 0.02314 0.44226 0.02413 0.0
H232 H 0.00556 0.4081 0.03081 0.0
H233 H 0.91343 0.33727 0.11756 0.0
H234 H 0.95984 0.34169 0.10887 0.0
H235 H 0.93963 0.37592 0.0491 0.0
H236 H 0.89304 0.37224 0.05825 0.0
H237 H 0.97985 0.39253 0.06806 0.0
H238 H 0.95944 0.32545 0.04631 0.0
H239 H 0.94174 0.29105 0.05034 0.0
H240 H 0.99531 0.27937 0.10495 0.0
H241 H 0.0131 0.31382 0.10146 0.0
C242 C 0.10294 0.3757 0.03962 0.0
C243 C 0.11966 0.36951 0.05729 0.0
C244 C 0.0757 0.37413 0.04196 0.0
C245 C 0.06477 0.36629 0.06194 0.0
C246 C 0.0814 0.35984 0.07944 0.0
C247 C 0.10855 0.36153 0.07721 0.0
C248 C 0.036 0.36471 0.06481 0.0
C249 C 0.02507 0.34558 0.06842 0.0
C250 C 0.01943 0.38179 0.06411 0.0
C251 C 0.02985 0.40239 0.06027 0.0
C252 C 0.04911 0.41052 0.07467 0.0
C253 C 0.05903 0.42986 0.07069 0.0
C254 C 0.04968 0.44127 0.05248 0.0
C255 C 0.03037 0.43339 0.03822 0.0
C256 C 0.02041 0.41405 0.0421 0.0
C257 C 0.91885 0.34578 0.10259 0.0
C258 C 0.89957 0.35426 0.08848 0.0
C259 C 0.94541 0.34821 0.09756 0.0
C260 C 0.95327 0.35872 0.07801 0.0
C261 C 0.93407 0.36766 0.0642 0.0
C262 C 0.90745 0.36552 0.06944 0.0
C263 C 0.98153 0.36025 0.07204 0.0
C264 C 0.99239 0.37934 0.06775 0.0
C265 C 0.99801 0.34306 0.07163 0.0
C266 C 0.98746 0.32228 0.07374 0.0
C267 C 0.96733 0.3156 0.05928 0.0
C268 C 0.95729 0.29608 0.06145 0.0
C269 C 0.96736 0.28305 0.07792 0.0
C270 C 0.98752 0.28949 0.09221 0.0
C271 C 0.99761 0.309 0.09013 0.0
H272 H 0.95956 0.26794 0.07958 0.0
H273 H 0.05734 0.45625 0.04944 0.0
H274 H 0.89186 0.63087 0.60058 0.0
H275 H 0.93773 0.63613 0.61134 0.0
H276 H 0.95993 0.63682 0.54082 0.0
H277 H 0.91431 0.63174 0.52987 0.0
H278 H 0.98084 0.61298 0.60345 0.0
H279 H 0.00918 0.67049 0.53333 0.0
H280 H 0.98846 0.69775 0.5112 0.0
H281 H 0.9322 0.70695 0.56432 0.0
H282 H 0.9528 0.67996 0.5869 0.0
H283 H 0.11762 0.61583 0.58383 0.0
H284 H 0.06999 0.61432 0.57993 0.0
H285 H 0.06322 0.67309 0.6104 0.0
H286 H 0.1109 0.67486 0.61426 0.0
H287 H 0.03315 0.66999 0.57289 0.0
H288 H 0.04718 0.63225 0.64067 0.0
H289 H 0.06732 0.60616 0.66485 0.0
H290 H 0.03765 0.55997 0.62092 0.0
H291 H 0.01764 0.5858 0.59628 0.0
C292 C 0.90648 0.63223 0.58734 0.0
C293 C 0.89935 0.63093 0.56434 0.0
C294 C 0.93268 0.63516 0.59354 0.0
C295 C 0.95216 0.63705 0.57687 0.0
C296 C 0.94514 0.63569 0.55394 0.0
C297 C 0.91903 0.6327 0.54773 0.0
C298 C 0.97997 0.64008 0.58331 0.0
C299 C 0.99227 0.62548 0.59686 0.0
C300 C 0.99473 0.6566 0.57503 0.0
C301 C 0.98243 0.67308 0.56171 0.0
C302 C 0.99247 0.6784 0.54033 0.0
C303 C 0.98073 0.69379 0.5277 0.0
C304 C 0.95899 0.70404 0.53632 0.0
C305 C 0.94899 0.69896 0.55763 0.0
C306 C 0.96067 0.68359 0.57033 0.0
C307 C 0.10606 0.62845 0.58975 0.0
C308 C 0.11814 0.64547 0.59938 0.0
C309 C 0.07881 0.62751 0.5876 0.0
C310 C 0.06308 0.64351 0.59508 0.0
C311 C 0.07502 0.66056 0.60457 0.0
C312 C 0.10228 0.66151 0.60679 0.0
C313 C 0.03419 0.64259 0.5925 0.0
C314 C 0.02169 0.65757 0.57963 0.0
C315 C 0.01919 0.62659 0.60169 0.0
C316 C 0.03108 0.61099 0.61653 0.0
C317 C 0.04511 0.61654 0.63607 0.0
C318 C 0.05648 0.60179 0.64988 0.0
C319 C 0.05381 0.58143 0.6444 0.0
C320 C 0.03972 0.57576 0.62513 0.0
C321 C 0.02833 0.59044 0.61125 0.0
H322 H 0.06263 0.57003 0.65512 0.0
H323 H 0.94991 0.71594 0.52651 0.0
H324 H 0.8925 0.60886 0.9077 0.0
H325 H 0.93944 0.60458 0.91473 0.0
H326 H 0.95078 0.66878 0.90801 0.0
H327 H 0.90419 0.67303 0.90001 0.0
H328 H 0.98865 0.65117 0.88809 0.0
H329 H 0.94814 0.64364 0.96098 0.0
H330 H 0.91732 0.62925 0.98889 0.0
H331 H 0.9518 0.5708 0.97991 0.0
H332 H 0.98263 0.58481 0.95174 0.0
H333 H 0.10306 0.63667 0.97423 0.0
H334 H 0.05623 0.63906 0.96597 0.0
H335 H 0.07015 0.61685 0.89835 0.0
H336 H 0.11713 0.61513 0.90622 0.0
H337 H 0.01972 0.61364 0.95575 0.0
H338 H 0.02768 0.63753 0.86148 0.0
H339 H 0.0583 0.65574 0.83632 0.0
H340 H 0.08851 0.68862 0.89322 0.0
H341 H 0.05786 0.67081 0.91865 0.0
C342 C 0.90503 0.62205 0.90767 0.0
C343 C 0.89464 0.6413 0.90335 0.0
C344 C 0.93184 0.6196 0.9118 0.0
C345 C 0.94864 0.6364 0.91225 0.0
C346 C 0.93828 0.65558 0.90771 0.0
C347 C 0.9116 0.658 0.90318 0.0
C348 C 0.97697 0.63412 0.91755 0.0
C349 C 0.9954 0.64293 0.90287 0.0
C350 C 0.98588 0.62367 0.93704 0.0
C351 C 0.96751 0.61523 0.9541 0.0
C352 C 0.94904 0.6277 0.96486 0.0
C353 C 0.93158 0.61961 0.98074 0.0
C354 C 0.93255 0.59911 0.98612 0.0
C355 C 0.95105 0.58667 0.9757 0.0
C356 C 0.96853 0.59467 0.95979 0.0
C357 C 0.09615 0.63227 0.9576 0.0
C358 C 0.11384 0.62589 0.94081 0.0
C359 C 0.06936 0.63358 0.95292 0.0
C360 C 0.05968 0.6284 0.93144 0.0
C361 C 0.07721 0.62137 0.91489 0.0
C362 C 0.10406 0.62034 0.91944 0.0
C363 C 0.03133 0.63069 0.92629 0.0
C364 C 0.01293 0.62182 0.94093 0.0
C365 C 0.0224 0.64166 0.90719 0.0
C366 C 0.04066 0.65268 0.89198 0.0
C367 C 0.04079 0.64871 0.86859 0.0
C368 C 0.05816 0.65894 0.85429 0.0
C369 C 0.0754 0.67327 0.86317 0.0
C370 C 0.07522 0.67746 0.88637 0.0
C371 C 0.05787 0.66729 0.90074 0.0
H372 H 0.08886 0.68116 0.85208 0.0
H373 H 0.91901 0.59288 -0.00159 0.0
H374 H 0.13431 0.37834 0.40862 0.0
H375 H 0.08716 0.37742 0.41529 0.0
H376 H 0.08731 0.31287 0.40656 0.0
H377 H 0.1345 0.31379 0.39894 0.0
H378 H 0.04613 0.32761 0.38694 0.0
H379 H 0.08455 0.33549 0.46014 0.0
H380 H 0.11316 0.35075 0.48912 0.0
H381 H 0.07172 0.40678 0.48275 0.0
H382 H 0.04313 0.39196 0.45349 0.0
H383 H 0.9263 0.34246 0.46985 0.0
H384 H 0.97284 0.33681 0.46263 0.0
H385 H 0.96333 0.35914 0.39437 0.0
H386 H 0.91653 0.36411 0.40123 0.0
H387 H 0.00955 0.36181 0.45457 0.0
H388 H 0.00861 0.33961 0.3593 0.0
H389 H 0.98031 0.32119 0.33249 0.0
H390 H 0.94702 0.28732 0.3875 0.0
H391 H 0.97536 0.30534 0.4146 0.0
C392 C 0.12434 0.36392 0.40813 0.0
C393 C 0.13819 0.3461 0.40343 0.0
C394 C 0.09736 0.36342 0.41204 0.0
C395 C 0.08372 0.34503 0.4119 0.0
C396 C 0.09741 0.32723 0.40683 0.0
C397 C 0.12439 0.32777 0.40253 0.0
C398 C 0.05522 0.34445 0.41712 0.0
C399 C 0.03813 0.33502 0.40177 0.0
C400 C 0.04477 0.35372 0.43673 0.0
C401 C 0.06182 0.36265 0.45449 0.0
C402 C 0.08165 0.3511 0.46482 0.0
C403 C 0.09786 0.35968 0.48131 0.0
C404 C 0.09432 0.37974 0.48774 0.0
C405 C 0.07449 0.39126 0.47774 0.0
C406 C 0.05825 0.38277 0.46122 0.0
C407 C 0.93405 0.34597 0.45321 0.0
C408 C 0.91771 0.35373 0.4361 0.0
C409 C 0.9607 0.34277 0.44912 0.0
C410 C 0.97165 0.34741 0.42791 0.0
C411 C 0.95531 0.35503 0.41073 0.0
C412 C 0.92854 0.35795 0.4147 0.0
C413 C 0.00035 0.34526 0.42421 0.0
C414 C 0.01751 0.35425 0.43982 0.0
C415 C 0.01086 0.33507 0.4052 0.0
C416 C 0.99396 0.32397 0.38899 0.0
C417 C 0.99534 0.32817 0.36566 0.0
C418 C 0.97927 0.31781 0.35042 0.0
C419 C 0.96182 0.30314 0.35829 0.0
C420 C 0.96047 0.29874 0.38143 0.0
C421 C 0.97651 0.30904 0.39674 0.0
H422 H 0.94938 0.29515 0.34647 0.0
H423 H 0.10689 0.38635 0.5005 0.0
H424 H 0.40047 0.82266 0.08864 0.0
H425 H 0.44727 0.82915 0.08433 0.0
H426 H 0.43228 0.89313 0.08231 0.0
H427 H 0.3852 0.88668 0.08574 0.0
H428 H 0.46679 0.88503 0.05236 0.0
H429 H 0.4586 0.86919 0.1303 0.0
H430 H 0.44496 0.84997 0.16411 0.0
H431 H 0.49098 0.79947 0.14222 0.0
H432 H 0.50462 0.81829 0.1081 0.0
H433 H 0.61387 0.87842 0.09317 0.0
H434 H 0.56694 0.87871 0.10172 0.0
H435 H 0.54988 0.86152 0.03277 0.0
H436 H 0.59656 0.86189 0.02392 0.0
H437 H 0.53159 0.85127 0.10236 0.0
H438 H 0.49321 0.87991 0.0148 0.0
H439 H 0.50718 0.90327 0.98454 0.0
H440 H 0.55453 0.9359 0.03215 0.0
H441 H 0.54068 0.91287 0.06273 0.0
C442 C 0.40711 0.83813 0.08732 0.0
C443 C 0.38912 0.85416 0.08763 0.0
C444 C 0.43393 0.84183 0.08499 0.0
C445 C 0.44342 0.86165 0.08345 0.0
C446 C 0.42547 0.8777 0.08354 0.0
C447 C 0.39856 0.87399 0.08552 0.0
C448 C 0.47203 0.86551 0.08125 0.0
C449 C 0.48093 0.87772 0.06336 0.0
C450 C 0.49057 0.85652 0.09602 0.0
C451 C 0.48247 0.84512 0.11655 0.0
C452 C 0.46567 0.85394 0.13261 0.0
C453 C 0.45796 0.84312 0.15185 0.0
C454 C 0.46706 0.8235 0.15529 0.0
C455 C 0.48394 0.81467 0.13952 0.0
C456 C 0.49169 0.82541 0.12025 0.0
C457 C 0.60011 0.87478 0.07981 0.0
C458 C 0.60895 0.87024 0.05783 0.0
C459 C 0.57328 0.87493 0.08473 0.0
C460 C 0.55481 0.87044 0.06781 0.0
C461 C 0.56367 0.86556 0.04597 0.0
C462 C 0.59042 0.86566 0.04097 0.0
C463 C 0.52631 0.87025 0.07304 0.0
C464 C 0.51743 0.85873 0.09149 0.0
C465 C 0.50782 0.8805 0.05932 0.0
C466 C 0.51605 0.89455 0.04102 0.0
C467 C 0.50652 0.89212 0.01883 0.0
C468 C 0.51446 0.90528 0.00161 0.0
C469 C 0.53181 0.92102 0.0064 0.0
C470 C 0.54121 0.92365 0.02843 0.0
C471 C 0.53335 0.91052 0.04571 0.0
H472 H 0.53791 0.9312 0.99305 0.0
H473 H 0.46107 0.81514 0.17019 0.0
H474 H 0.5861 0.11021 0.579 0.0
H475 H 0.53947 0.10325 0.57338 0.0
H476 H 0.52324 0.1671 0.57392 0.0
H477 H 0.56961 0.17404 0.58075 0.0
H478 H 0.4876 0.14992 0.59631 0.0
H479 H 0.52554 0.13724 0.52354 0.0
H480 H 0.55628 0.1218 0.49638 0.0
H481 H 0.52715 0.06301 0.51361 0.0
H482 H 0.49645 0.07809 0.54109 0.0
H483 H 0.37125 0.1229 0.51691 0.0
H484 H 0.41828 0.12677 0.52305 0.0
H485 H 0.40825 0.11135 0.59361 0.0
H486 H 0.36096 0.10819 0.58777 0.0
H487 H 0.45691 0.1044 0.53525 0.0
H488 H 0.45145 0.13797 0.62602 0.0
H489 H 0.42097 0.15765 0.64966 0.0
H490 H 0.38464 0.18193 0.58992 0.0
H491 H 0.41534 0.1628 0.56591 0.0
C492 C 0.57256 0.12275 0.57788 0.0
C493 C 0.58149 0.14267 0.58026 0.0
C494 C 0.54591 0.11877 0.57456 0.0
C495 C 0.52779 0.13466 0.57285 0.0
C496 C 0.53676 0.15456 0.57523 0.0
C497 C 0.56329 0.15852 0.57906 0.0
C498 C 0.49946 0.13063 0.56882 0.0
C499 C 0.48094 0.13994 0.58296 0.0
C500 C 0.49061 0.11789 0.55117 0.0
C501 C 0.50888 0.10878 0.53452 0.0
C502 C 0.52581 0.12101 0.52163 0.0
C503 C 0.54321 0.11233 0.50617 0.0
C504 C 0.54372 0.09144 0.50332 0.0
C505 C 0.52676 0.07919 0.51587 0.0
C506 C 0.50933 0.0878 0.53137 0.0
C507 C 0.37904 0.12018 0.53372 0.0
C508 C 0.36229 0.11545 0.55191 0.0
C509 C 0.40598 0.12236 0.53719 0.0
C510 C 0.41679 0.1197 0.55887 0.0
C511 C 0.4003 0.11395 0.57683 0.0
C512 C 0.37327 0.11206 0.57345 0.0
C513 C 0.44513 0.12368 0.56274 0.0
C514 C 0.46362 0.11431 0.54864 0.0
C515 C 0.45393 0.13698 0.57989 0.0
C516 C 0.43548 0.14871 0.59417 0.0
C517 C 0.437 0.14754 0.61793 0.0
C518 C 0.41967 0.1586 0.6314 0.0
C519 C 0.40073 0.1709 0.62131 0.0
C520 C 0.39922 0.17231 0.59772 0.0
C521 C 0.41659 0.16136 0.58417 0.0
H522 H 0.38729 0.17941 0.63178 0.0
H523 H 0.55721 0.08474 0.49136 0.0
H524 H 0.59844 0.1306 0.96513 0.0
H525 H 0.55131 0.13379 0.95863 0.0
H526 H 0.56472 0.13675 0.88654 0.0
H527 H 0.61188 0.13339 0.89279 0.0
H528 H 0.5208 0.16231 0.93875 0.0
H529 H 0.51579 0.11037 0.86034 0.0
H530 H 0.53989 0.08166 0.84393 0.0
H531 H 0.56631 0.06425 0.91023 0.0
H532 H 0.54208 0.09267 0.92706 0.0
H533 H 0.39805 0.17183 0.88326 0.0
H534 H 0.44507 0.16922 0.89053 0.0
H535 H 0.43382 0.11002 0.91922 0.0
H536 H 0.3867 0.11242 0.91199 0.0
H537 H 0.47615 0.11154 0.8906 0.0
H538 H 0.44232 0.14856 0.95372 0.0
H539 H 0.41752 0.17571 0.97246 0.0
H540 H 0.4675 0.22 0.9415 0.0
H541 H 0.49237 0.19311 0.9223 0.0
C542 C 0.59144 0.13205 0.94787 0.0
C543 C 0.60899 0.13157 0.92947 0.0
C544 C 0.56448 0.13394 0.94421 0.0
C545 C 0.55452 0.13526 0.92211 0.0
C546 C 0.57199 0.13546 0.90373 0.0
C547 C 0.59896 0.13361 0.90736 0.0
C548 C 0.5258 0.13577 0.91825 0.0
C549 C 0.51104 0.15126 0.92817 0.0
C550 C 0.51302 0.12111 0.90481 0.0
C551 C 0.52733 0.10377 0.89491 0.0
C552 C 0.52666 0.10036 0.87142 0.0
C553 C 0.54035 0.08415 0.86204 0.0
C554 C 0.55469 0.07118 0.87602 0.0
C555 C 0.55528 0.07435 0.89942 0.0
C556 C 0.54159 0.09052 0.90887 0.0
C557 C 0.40552 0.15819 0.89102 0.0
C558 C 0.38853 0.14236 0.89711 0.0
C559 C 0.43241 0.15678 0.89524 0.0
C560 C 0.44285 0.13951 0.9056 0.0
C561 C 0.42611 0.12349 0.91123 0.0
C562 C 0.39917 0.12492 0.90714 0.0
C563 C 0.47123 0.13828 0.91075 0.0
C564 C 0.48593 0.12265 0.90109 0.0
C565 C 0.48385 0.15261 0.92475 0.0
C566 C 0.46905 0.16882 0.93639 0.0
C567 C 0.44789 0.1641 0.95076 0.0
C568 C 0.43384 0.17944 0.96149 0.0
C569 C 0.44088 0.19957 0.95813 0.0
C570 C 0.46204 0.2044 0.94407 0.0
C571 C 0.47614 0.18911 0.93327 0.0
H572 H 0.42998 0.21143 0.96645 0.0
H573 H 0.5653 0.05865 0.86873 0.0
H574 H 0.37688 0.87236 0.39346 0.0
H575 H 0.4242 0.86943 0.38771 0.0
H576 H 0.43595 0.8668 0.46002 0.0
H577 H 0.38868 0.86969 0.46601 0.0
H578 H 0.46598 0.89278 0.40167 0.0
H579 H 0.48449 0.83164 0.46971 0.0
H580 H 0.46061 0.80402 0.48874 0.0
H581 H 0.41016 0.79789 0.43089 0.0
H582 H 0.43397 0.82526 0.41141 0.0
H583 H 0.60299 0.88126 0.42051 0.0
H584 H 0.55588 0.88543 0.42656 0.0
H585 H 0.54126 0.82905 0.3926 0.0
H586 H 0.58826 0.82461 0.38664 0.0
H587 H 0.51229 0.83221 0.43065 0.0
H588 H 0.53121 0.8729 0.36521 0.0
H589 H 0.55453 0.89925 0.34362 0.0
H590 H 0.52894 0.94392 0.39127 0.0
H591 H 0.50574 0.91777 0.41331 0.0
C592 C 0.3895 0.87126 0.40818 0.0
C593 C 0.37894 0.87116 0.43021 0.0
C594 C 0.41655 0.86967 0.40484 0.0
C595 C 0.4335 0.86773 0.42343 0.0
C596 C 0.42314 0.86809 0.44545 0.0
C597 C 0.39611 0.8698 0.44882 0.0
C598 C 0.46196 0.86472 0.41976 0.0
C599 C 0.47615 0.87958 0.40807 0.0
C600 C 0.47507 0.84734 0.42779 0.0
C601 C 0.46085 0.83066 0.43923 0.0
C602 C 0.46836 0.82435 0.46103 0.0
C603 C 0.45483 0.80874 0.47189 0.0
C604 C 0.43382 0.79926 0.46106 0.0
C605 C 0.42637 0.8053 0.4393 0.0
C606 C 0.43985 0.82088 0.42836 0.0
C607 C 0.58979 0.8697 0.41436 0.0
C608 C 0.59946 0.85262 0.403 0.0
C609 C 0.56286 0.87216 0.41777 0.0
C610 C 0.54508 0.85763 0.40985 0.0
C611 C 0.55466 0.84044 0.39885 0.0
C612 C 0.58156 0.83797 0.39539 0.0
C613 C 0.51644 0.8604 0.41282 0.0
C614 C 0.50219 0.84548 0.42439 0.0
C615 C 0.5032 0.87758 0.40434 0.0
C616 C 0.51696 0.89335 0.39102 0.0
C617 C 0.53071 0.88832 0.37117 0.0
C618 C 0.54388 0.90322 0.35884 0.0
C619 C 0.54327 0.92324 0.3661 0.0
C620 C 0.52942 0.92841 0.38568 0.0
C621 C 0.51624 0.91355 0.39808 0.0
H622 H 0.55348 0.93476 0.35653 0.0
H623 H 0.42336 0.78719 0.4695 0.0
H624 H 0.16867 0.35835 0.15237 0.0
H625 H 0.1657 0.35857 0.19357 0.0
H626 H 0.2349 0.32148 0.19797 0.0
H627 H 0.2383 0.32129 0.15654 0.0
H628 H 0.19179 0.31424 0.23265 0.0
H629 H 0.24749 0.36651 0.1997 0.0
H630 H 0.2561 0.39419 0.17275 0.0
H631 H 0.19088 0.42731 0.19971 0.0
H632 H 0.18164 0.39964 0.22658 0.0
H633 H 0.2425 0.34025 0.33988 0.0
H634 H 0.23539 0.33248 0.29999 0.0
H635 H 0.18288 0.38325 0.29423 0.0
H636 H 0.19063 0.39149 0.33409 0.0
H637 H 0.21431 0.38282 0.25999 0.0
H638 H 0.16047 0.33347 0.29555 0.0
H639 H 0.14935 0.3061 0.32218 0.0
H640 H 0.20671 0.26784 0.2909 0.0
H641 H 0.21848 0.2951 0.2643 0.0
C642 C 0.18296 0.34982 0.162 0.0
C643 C 0.20409 0.34016 0.15122 0.0
C644 C 0.18112 0.34992 0.18554 0.0
C645 C 0.20027 0.34027 0.19866 0.0
C646 C 0.21997 0.32901 0.188 0.0
C647 C 0.22193 0.329 0.16437 0.0
C648 C 0.20193 0.34455 0.22311 0.0
C649 C 0.19694 0.32913 0.23876 0.0
C650 C 0.20791 0.36416 0.23084 0.0
C651 C 0.21371 0.38093 0.21496 0.0
C652 C 0.23486 0.37962 0.19974 0.0
C653 C 0.23987 0.39532 0.18451 0.0
C654 C 0.224 0.41247 0.18447 0.0
C655 C 0.20313 0.41399 0.19973 0.0
C656 C 0.19801 0.39832 0.21497 0.0
C657 C 0.22936 0.34972 0.33013 0.0
C658 C 0.21706 0.36645 0.34006 0.0
C659 C 0.22517 0.34517 0.30737 0.0
C660 C 0.20819 0.35704 0.29423 0.0
C661 C 0.19597 0.37383 0.3041 0.0
C662 C 0.20044 0.37855 0.32683 0.0
C663 C 0.20427 0.35248 0.26991 0.0
C664 C 0.20893 0.36789 0.25412 0.0
C665 C 0.19764 0.33291 0.26216 0.0
C666 C 0.19051 0.31641 0.27804 0.0
C667 C 0.17086 0.31928 0.29445 0.0
C668 C 0.16442 0.30377 0.30953 0.0
C669 C 0.17736 0.28526 0.30827 0.0
C670 C 0.19672 0.2822 0.29188 0.0
C671 C 0.20327 0.29767 0.27678 0.0
H672 H 0.17234 0.27327 0.31996 0.0
H673 H 0.2279 0.42461 0.17266 0.0
H674 H 0.81242 0.65693 0.64543 0.0
H675 H 0.81326 0.66282 0.68638 0.0
H676 H 0.77815 0.60445 0.69765 0.0
H677 H 0.77644 0.59878 0.65695 0.0
H678 H 0.7569 0.63047 0.72477 0.0
H679 H 0.84561 0.61348 0.70303 0.0
H680 H 0.88684 0.61764 0.68164 0.0
H681 H 0.89641 0.67705 0.7091 0.0
H682 H 0.85503 0.67333 0.73043 0.0
H683 H 0.80071 0.59923 0.8325 0.0
H684 H 0.79867 0.60345 0.7914 0.0
H685 H 0.8086 0.6676 0.79885 0.0
H686 H 0.80996 0.66364 0.84009 0.0
H687 H 0.8416 0.64471 0.76302 0.0
H688 H 0.75353 0.65865 0.78829 0.0
H689 H 0.71347 0.65185 0.81042 0.0
H690 H 0.7041 0.59508 0.7766 0.0
H691 H 0.74437 0.60141 0.75451 0.0
C692 C 0.80473 0.64543 0.65667 0.0
C693 C 0.79448 0.62735 0.648 0.0
C694 C 0.80532 0.64879 0.68004 0.0
C695 C 0.79609 0.63396 0.69508 0.0
C696 C 0.78533 0.61612 0.68638 0.0
C697 C 0.78444 0.61288 0.66308 0.0
C698 C 0.79808 0.63657 0.71995 0.0
C699 C 0.77545 0.63355 0.73308 0.0
C700 C 0.82218 0.64101 0.73083 0.0
C701 C 0.84708 0.64323 0.71809 0.0
C702 C 0.85641 0.62749 0.70436 0.0
C703 C 0.87982 0.62976 0.69228 0.0
C704 C 0.89419 0.64763 0.69395 0.0
C705 C 0.88522 0.66324 0.70778 0.0
C706 C 0.86181 0.66106 0.71987 0.0
C707 C 0.80267 0.61424 0.82544 0.0
C708 C 0.80549 0.63111 0.83957 0.0
C709 C 0.80146 0.6166 0.80199 0.0
C710 C 0.80341 0.63582 0.79227 0.0
C711 C 0.8071 0.65266 0.80618 0.0
C712 C 0.80784 0.65035 0.82971 0.0
C713 C 0.80061 0.63814 0.76757 0.0
C714 C 0.82302 0.64205 0.75456 0.0
C715 C 0.77643 0.63423 0.75677 0.0
C716 C 0.7521 0.63044 0.76989 0.0
C717 C 0.74306 0.64464 0.78572 0.0
C718 C 0.72029 0.64089 0.79823 0.0
C719 C 0.70628 0.62303 0.79496 0.0
C720 C 0.71498 0.6089 0.77913 0.0
C721 C 0.73777 0.61258 0.76659 0.0
H722 H 0.68865 0.62015 0.80466 0.0
H723 H 0.9123 0.64935 0.68458 0.0
H724 H 0.17822 0.61969 0.84844 0.0
H725 H 0.17593 0.61923 0.80719 0.0
H726 H 0.22832 0.67017 0.80385 0.0
H727 H 0.23091 0.67075 0.84535 0.0
H728 H 0.1843 0.67116 0.77224 0.0
H729 H 0.25474 0.62762 0.79649 0.0
H730 H 0.27436 0.60024 0.81915 0.0
H731 H 0.21955 0.55808 0.79085 0.0
H732 H 0.19934 0.58529 0.76827 0.0
H733 H 0.22385 0.6586 0.65754 0.0
H734 H 0.2218 0.66366 0.69847 0.0
H735 H 0.18248 0.60643 0.70617 0.0
H736 H 0.18505 0.60106 0.66528 0.0
H737 H 0.22016 0.60966 0.73594 0.0
H738 H 0.14969 0.65198 0.71133 0.0
H739 H 0.12858 0.67881 0.68887 0.0
H740 H 0.18082 0.7226 0.71765 0.0
H741 H 0.20253 0.69597 0.74004 0.0
C742 C 0.18907 0.63096 0.83902 0.0
C743 C 0.20502 0.64512 0.85016 0.0
C744 C 0.18771 0.63066 0.81545 0.0
C745 C 0.20218 0.64452 0.80259 0.0
C746 C 0.21706 0.65934 0.81358 0.0
C747 C 0.21859 0.65959 0.83724 0.0
C748 C 0.20307 0.64253 0.7777 0.0
C749 C 0.19243 0.65788 0.7642 0.0
C750 C 0.21313 0.62494 0.76742 0.0
C751 C 0.22537 0.60853 0.78086 0.0
C752 C 0.24673 0.61254 0.79525 0.0
C753 C 0.25799 0.59705 0.80805 0.0
C754 C 0.24817 0.57744 0.80649 0.0
C755 C 0.22712 0.57328 0.79207 0.0
C756 C 0.21577 0.58873 0.77925 0.0
C757 C 0.21459 0.64717 0.66794 0.0
C758 C 0.20457 0.62944 0.65823 0.0
C759 C 0.21334 0.65012 0.69132 0.0
C760 C 0.2017 0.63554 0.70535 0.0
C761 C 0.19153 0.61788 0.69565 0.0
C762 C 0.193 0.61484 0.6723 0.0
C763 C 0.20114 0.63824 0.73025 0.0
C764 C 0.21196 0.623 0.74384 0.0
C765 C 0.19102 0.65586 0.74055 0.0
C766 C 0.17791 0.67193 0.7272 0.0
C767 C 0.15682 0.6673 0.71274 0.0
C768 C 0.14472 0.68248 0.70004 0.0
C769 C 0.1534 0.70239 0.70179 0.0
C770 C 0.17415 0.70717 0.71629 0.0
C771 C 0.18635 0.69204 0.729 0.0
H772 H 0.144 0.71412 0.69195 0.0
H773 H 0.25691 0.56547 0.81641 0.0
H774 H 0.82099 0.3978 0.15681 0.0
H775 H 0.82676 0.39597 0.19781 0.0
H776 H 0.81613 0.33149 0.19567 0.0
H777 H 0.80932 0.3333 0.15479 0.0
H778 H 0.78919 0.34657 0.22923 0.0
H779 H 0.87735 0.35278 0.20374 0.0
H780 H 0.91434 0.36717 0.18219 0.0
H781 H 0.90568 0.42324 0.21757 0.0
H782 H 0.86836 0.40929 0.2391 0.0
H783 H 0.82923 0.33838 0.34586 0.0
H784 H 0.82978 0.33415 0.30454 0.0
H785 H 0.82695 0.39866 0.29593 0.0
H786 H 0.8262 0.40303 0.33694 0.0
H787 H 0.86416 0.37946 0.26802 0.0
H788 H 0.77274 0.3733 0.29021 0.0
H789 H 0.73602 0.35826 0.31157 0.0
H790 H 0.75252 0.30051 0.28217 0.0
H791 H 0.78959 0.31518 0.26085 0.0
C792 C 0.81996 0.38321 0.16504 0.0
C793 C 0.81498 0.36566 0.15249 0.0
C794 C 0.82344 0.38217 0.18847 0.0
C795 C 0.82237 0.36354 0.19976 0.0
C796 C 0.81722 0.34601 0.18729 0.0
C797 C 0.81351 0.34706 0.16388 0.0
C798 C 0.82571 0.3625 0.22468 0.0
C799 C 0.80587 0.35341 0.23767 0.0
C800 C 0.84734 0.37158 0.23572 0.0
C801 C 0.86991 0.38002 0.22293 0.0
C802 C 0.88321 0.36822 0.20682 0.0
C803 C 0.90426 0.3763 0.19462 0.0
C804 C 0.91232 0.39612 0.19848 0.0
C805 C 0.8994 0.40789 0.21459 0.0
C806 C 0.87831 0.3999 0.22682 0.0
C807 C 0.82883 0.35163 0.33513 0.0
C808 C 0.82753 0.37102 0.34461 0.0
C809 C 0.82911 0.34919 0.31159 0.0
C810 C 0.82834 0.36611 0.29728 0.0
C811 C 0.82762 0.38544 0.30673 0.0
C812 C 0.82704 0.38788 0.33016 0.0
C813 C 0.82747 0.36388 0.27239 0.0
C814 C 0.84776 0.37235 0.25947 0.0
C815 C 0.80641 0.35408 0.2614 0.0
C816 C 0.78412 0.34528 0.27417 0.0
C817 C 0.76869 0.35736 0.28847 0.0
C818 C 0.74778 0.34891 0.30053 0.0
C819 C 0.742 0.32842 0.29829 0.0
C820 C 0.75706 0.31636 0.28393 0.0
C821 C 0.77801 0.32474 0.27184 0.0
H822 H 0.7258 0.32191 0.30764 0.0
H823 H 0.92862 0.40234 0.18902 0.0
H824 H 0.69197 0.83484 0.33763 0.0
H825 H 0.68747 0.83249 0.29652 0.0
H826 H 0.67079 0.89615 0.29303 0.0
H827 H 0.67445 0.89852 0.33418 0.0
H828 H 0.63888 0.87527 0.26565 0.0
H829 H 0.73229 0.87714 0.28144 0.0
H830 H 0.77313 0.86503 0.29926 0.0
H831 H 0.76352 0.80751 0.26712 0.0
H832 H 0.72243 0.81922 0.24933 0.0
H833 H 0.66882 0.90263 0.15387 0.0
H834 H 0.66656 0.89804 0.19476 0.0
H835 H 0.68723 0.83536 0.18711 0.0
H836 H 0.69047 0.84006 0.14603 0.0
H837 H 0.71438 0.8513 0.22005 0.0
H838 H 0.62351 0.85056 0.20077 0.0
H839 H 0.58295 0.86273 0.18256 0.0
H840 H 0.58722 0.91754 0.22092 0.0
H841 H 0.62801 0.90582 0.23913 0.0
C842 C 0.68704 0.84829 0.32817 0.0
C843 C 0.68353 0.86687 0.33917 0.0
C844 C 0.68465 0.84694 0.30465 0.0
C845 C 0.67909 0.86419 0.29172 0.0
C846 C 0.67507 0.88265 0.3027 0.0
C847 C 0.67729 0.88399 0.32621 0.0
C848 C 0.67808 0.86325 0.26667 0.0
C849 C 0.65543 0.87015 0.25564 0.0
C850 C 0.69938 0.85596 0.25369 0.0
C851 C 0.72416 0.84898 0.26427 0.0
C852 C 0.7388 0.86187 0.27831 0.0
C853 C 0.762 0.85508 0.28838 0.0
C854 C 0.77087 0.83549 0.28438 0.0
C855 C 0.7566 0.82267 0.27024 0.0
C856 C 0.73337 0.82937 0.26015 0.0
C857 C 0.6727 0.88782 0.16084 0.0
C858 C 0.67976 0.87169 0.14674 0.0
C859 C 0.67124 0.88518 0.18424 0.0
C860 C 0.67624 0.86626 0.19399 0.0
C861 C 0.68318 0.85007 0.17994 0.0
C862 C 0.68499 0.85277 0.15649 0.0
C863 C 0.67535 0.86374 0.21893 0.0
C864 C 0.69764 0.85615 0.22999 0.0
C865 C 0.65367 0.87035 0.23193 0.0
C866 C 0.62892 0.87734 0.22123 0.0
C867 C 0.61588 0.86525 0.20524 0.0
C868 C 0.59284 0.87207 0.19492 0.0
C869 C 0.58254 0.89091 0.20056 0.0
C870 C 0.59522 0.90294 0.21657 0.0
C871 C 0.61828 0.89621 0.22693 0.0
H872 H 0.56471 0.89617 0.19253 0.0
H873 H 0.78883 0.83026 0.2922 0.0
H874 H 0.28452 0.16056 0.83814 0.0
H875 H 0.28466 0.16541 0.79718 0.0
H876 H 0.31264 0.10464 0.78809 0.0
H877 H 0.31287 0.09969 0.82929 0.0
H878 H 0.33807 0.1329 0.76023 0.0
H879 H 0.24994 0.11373 0.78069 0.0
H880 H 0.20858 0.11635 0.80214 0.0
H881 H 0.19741 0.17659 0.77726 0.0
H882 H 0.23893 0.17442 0.7559 0.0
H883 H 0.30271 0.11356 0.64705 0.0
H884 H 0.30979 0.11434 0.68776 0.0
H885 H 0.27298 0.17279 0.69126 0.0
H886 H 0.26511 0.1719 0.65032 0.0
H887 H 0.25354 0.14846 0.72233 0.0
H888 H 0.33994 0.16668 0.69901 0.0
H889 H 0.38107 0.16388 0.6773 0.0
H890 H 0.39589 0.10593 0.70715 0.0
H891 H 0.35462 0.10823 0.72879 0.0
C892 C 0.29099 0.14827 0.82749 0.0
C893 C 0.2987 0.12973 0.83693 0.0
C894 C 0.29094 0.15106 0.80408 0.0
C895 C 0.29847 0.13534 0.78968 0.0
C896 C 0.30678 0.11695 0.799 0.0
C897 C 0.30676 0.11411 0.82249 0.0
C898 C 0.29671 0.13791 0.76485 0.0
C899 C 0.31959 0.13612 0.75184 0.0
C900 C 0.27269 0.14269 0.75413 0.0
C901 C 0.24768 0.14399 0.7669 0.0
C902 C 0.23878 0.1276 0.77995 0.0
C903 C 0.21529 0.12899 0.79206 0.0
C904 C 0.20041 0.14665 0.79112 0.0
C905 C 0.20897 0.16294 0.77801 0.0
C906 C 0.23247 0.16163 0.76588 0.0
C907 C 0.29632 0.12671 0.65638 0.0
C908 C 0.28322 0.14265 0.64545 0.0
C909 C 0.30058 0.12718 0.67968 0.0
C910 C 0.29222 0.14373 0.69252 0.0
C911 C 0.27965 0.15989 0.68162 0.0
C912 C 0.2752 0.15938 0.65825 0.0
C913 C 0.29491 0.14334 0.7175 0.0
C914 C 0.27215 0.14549 0.73062 0.0
C915 C 0.31908 0.13894 0.72828 0.0
C916 C 0.34406 0.13758 0.71542 0.0
C917 C 0.35186 0.15328 0.70083 0.0
C918 C 0.37523 0.15178 0.68854 0.0
C919 C 0.39106 0.13472 0.69081 0.0
C920 C 0.38359 0.11914 0.70541 0.0
C921 C 0.36023 0.12054 0.71771 0.0
H922 H 0.40914 0.13357 0.68131 0.0
H923 H 0.18223 0.1477 0.8005 0.0
H924 H 0.71474 0.09929 0.82408 0.0
H925 H 0.70936 0.10604 0.78387 0.0
H926 H 0.68041 0.16562 0.7989 0.0
H927 H 0.68497 0.15868 0.83957 0.0
H928 H 0.65125 0.14907 0.76733 0.0
H929 H 0.74245 0.15878 0.77655 0.0
H930 H 0.78752 0.15164 0.78939 0.0
H931 H 0.7887 0.09758 0.74959 0.0
H932 H 0.74348 0.10421 0.73675 0.0
H933 H 0.66764 0.16772 0.64539 0.0
H934 H 0.67188 0.17075 0.68663 0.0
H935 H 0.68098 0.10635 0.69212 0.0
H936 H 0.67616 0.10308 0.65114 0.0
H937 H 0.72217 0.13237 0.71295 0.0
H938 H 0.62738 0.1225 0.7082 0.0
H939 H 0.58307 0.13174 0.69503 0.0
H940 H 0.59085 0.18992 0.72603 0.0
H941 H 0.63539 0.1811 0.7391 0.0
C942 C 0.70739 0.1139 0.8189 0.0
C943 C 0.7004 0.1285 0.835 0.0
C944 C 0.70445 0.11778 0.79585 0.0
C945 C 0.69498 0.13649 0.78832 0.0
C946 C 0.6879 0.15113 0.80434 0.0
C947 C 0.69057 0.14716 0.82753 0.0
C948 C 0.69174 0.1402 0.7637 0.0
C949 C 0.66694 0.14585 0.75548 0.0
C950 C 0.7122 0.13603 0.74818 0.0
C951 C 0.73948 0.13195 0.75578 0.0
C952 C 0.75224 0.14529 0.77065 0.0
C953 C 0.77784 0.14135 0.77791 0.0
C954 C 0.79095 0.12416 0.77033 0.0
C955 C 0.77851 0.11089 0.75544 0.0
C956 C 0.75291 0.11475 0.74814 0.0
C957 C 0.67013 0.15418 0.6554 0.0
C958 C 0.67155 0.13515 0.64501 0.0
C959 C 0.67258 0.15596 0.67891 0.0
C960 C 0.67682 0.13877 0.69225 0.0
C961 C 0.67776 0.11977 0.682 0.0
C962 C 0.6749 0.11794 0.65861 0.0
C963 C 0.68157 0.14045 0.71681 0.0
C964 C 0.7067 0.13592 0.72492 0.0
C965 C 0.66161 0.14601 0.73215 0.0
C966 C 0.63483 0.15124 0.72436 0.0
C967 C 0.61975 0.13734 0.712 0.0
C968 C 0.59457 0.14248 0.7046 0.0
C969 C 0.58418 0.16143 0.70962 0.0
C970 C 0.59893 0.17526 0.72211 0.0
C971 C 0.62414 0.17019 0.72952 0.0
H972 H 0.56468 0.16538 0.70389 0.0
H973 H 0.81076 0.12113 0.77598 0.0
H974 H 0.28699 0.82409 0.14573 0.0
H975 H 0.28948 0.81482 0.18584 0.0
H976 H 0.32124 0.87341 0.20146 0.0
H977 H 0.31862 0.88289 0.1614 0.0
H978 H 0.34695 0.83995 0.22377 0.0
H979 H 0.25965 0.86702 0.2094 0.0
H980 H 0.21701 0.86795 0.18967 0.0
H981 H 0.20166 0.80693 0.21012 0.0
H982 H 0.24441 0.80556 0.22971 0.0
H983 H 0.32078 0.86461 0.33615 0.0
H984 H 0.32642 0.86075 0.29555 0.0
H985 H 0.27934 0.80669 0.29697 0.0
H986 H 0.27291 0.8108 0.33786 0.0
H987 H 0.26293 0.83055 0.26493 0.0
H988 H 0.34622 0.80505 0.28509 0.0
H989 H 0.38871 0.80336 0.30494 0.0
H990 H 0.4124 0.85902 0.27386 0.0
H991 H 0.3699 0.86123 0.25408 0.0
C992 C 0.29474 0.83493 0.15767 0.0
C993 C 0.3025 0.85425 0.15049 0.0
C994 C 0.29612 0.82961 0.18054 0.0
C995 C 0.30548 0.84346 0.1965 0.0
C996 C 0.31404 0.86252 0.1893 0.0
C997 C 0.31238 0.86794 0.16648 0.0
C998 C 0.30492 0.83864 0.22093 0.0
C999 C 0.32865 0.83794 0.23289 0.0
C1000 C 0.28104 0.83525 0.23248 0.0
C1001 C 0.25534 0.8361 0.22075 0.0
C1002 C 0.24728 0.85374 0.2095 0.0
C1003 C 0.22308 0.85436 0.19839 0.0
C1004 C 0.20668 0.83749 0.19857 0.0
C1005 C 0.21441 0.81997 0.20994 0.0
C1006 C 0.23862 0.81927 0.22106 0.0
C1007 C 0.31187 0.85172 0.32795 0.0
C1008 C 0.29624 0.83807 0.34022 0.0
C1009 C 0.31532 0.84943 0.3047 0.0
C1010 C 0.3036 0.83327 0.29322 0.0
C1011 C 0.28864 0.81923 0.30552 0.0
C1012 C 0.28501 0.82159 0.32886 0.0
C1013 C 0.30501 0.83239 0.26815 0.0
C1014 C 0.28139 0.83205 0.25594 0.0
C1015 C 0.32906 0.83461 0.25637 0.0
C1016 C 0.35476 0.83335 0.26817 0.0
C1017 C 0.36041 0.81701 0.2826 0.0
C1018 C 0.38451 0.81595 0.29382 0.0
C1019 C 0.40323 0.83109 0.29068 0.0
C1020 C 0.39788 0.8473 0.27627 0.0
C1021 C 0.3738 0.84845 0.26501 0.0
H1022 H 0.42188 0.83024 0.2994 0.0
H1023 H 0.18794 0.838 0.18997 0.0
H1024 H 0.30799 0.20844 0.93305 0.0
H1025 H 0.29748 0.23069 0.96416 0.0
H1026 H 0.26892 0.18026 0.00333 0.0
H1027 H 0.27906 0.15757 0.97165 0.0
H1028 H 0.23447 0.21077 0.00358 0.0
H1029 H 0.32368 0.205 0.0213 0.0
H1030 H 0.37127 0.20246 0.01454 0.0
H1031 H 0.3722 0.26268 0.98784 0.0
H1032 H 0.32455 0.2655 0.99405 0.0
H1033 H 0.21298 0.3015 0.07341 0.0
H1034 H 0.22976 0.26771 0.0644 0.0
H1035 H 0.2543 0.28895 -0.00136 0.0
H1036 H 0.23725 0.32237 0.00715 0.0
H1037 H 0.29378 0.26633 0.02678 0.0
H1038 H 0.2021 0.26488 -0.00109 0.0
H1039 H 0.15435 0.26662 0.00536 0.0
H1040 H 0.1597 0.2185 0.05392 0.0
H1041 H 0.20758 0.21668 0.04794 0.0
C1042 C 0.29974 0.20191 0.94831 0.0
C1043 C 0.29422 0.18121 0.94978 0.0
C1044 C 0.29398 0.21469 0.96625 0.0
C1045 C 0.28282 0.20711 0.98625 0.0
C1046 C 0.27775 0.18637 0.9881 0.0
C1047 C 0.28359 0.17345 0.97002 0.0
C1048 C 0.27441 0.22153 0.00393 0.0
C1049 C 0.24763 0.22254 0.00935 0.0
C1050 C 0.29158 0.23683 0.01163 0.0
C1051 C 0.32044 0.23545 0.00818 0.0
C1052 C 0.33399 0.21769 0.01391 0.0
C1053 C 0.361 0.21619 0.01016 0.0
C1054 C 0.37475 0.23239 0.00078 0.0
C1055 C 0.36153 0.25015 0.99516 0.0
C1056 C 0.33451 0.25172 -0.00116 0.0
C1057 C 0.22184 0.2989 0.05699 0.0
C1058 C 0.22373 0.31458 0.04094 0.0
C1059 C 0.23144 0.27966 0.05194 0.0
C1060 C 0.24341 0.27602 0.03097 0.0
C1061 C 0.24527 0.29159 0.01498 0.0
C1062 C 0.23531 0.31063 0.01982 0.0
C1063 C 0.25384 0.256 0.02501 0.0
C1064 C 0.28097 0.25403 0.02189 0.0
C1065 C 0.23711 0.23972 0.01973 0.0
C1066 C 0.2084 0.24084 0.02324 0.0
C1067 C 0.19312 0.25482 0.01113 0.0
C1068 C 0.16603 0.25579 0.01466 0.0
C1069 C 0.15401 0.24274 0.03011 0.0
C1070 C 0.16904 0.22864 0.04201 0.0
C1071 C 0.19614 0.22763 0.03856 0.0
H1072 H 0.13303 0.2435 0.03281 0.0
H1073 H 0.39565 0.23119 -0.00215 0.0
H1074 H 0.78403 0.68838 0.56899 0.0
H1075 H 0.76632 0.72163 0.55953 0.0
H1076 H 0.79052 0.71377 0.49006 0.0
H1077 H 0.80859 0.68085 0.49933 0.0
H1078 H 0.79835 0.75187 0.50335 0.0
H1079 H 0.72809 0.70176 0.50773 0.0
H1080 H 0.70125 0.67632 0.52763 0.0
H1081 H 0.67935 0.72029 0.57743 0.0
H1082 H 0.70632 0.74593 0.55793 0.0
H1083 H 0.68205 0.78572 0.43711 0.0
H1084 H 0.70075 0.763 0.46523 0.0
H1085 H 0.74041 0.81296 0.49699 0.0
H1086 H 0.72177 0.83595 0.46866 0.0
H1087 H 0.70187 0.75888 0.51133 0.0
H1088 H 0.80311 0.79528 0.50899 0.0
H1089 H 0.82934 0.81851 0.48534 0.0
H1090 H 0.7881 0.7987 0.42595 0.0
H1091 H 0.7619 0.77522 0.44923 0.0
C1092 C 0.78591 0.69385 0.55176 0.0
C1093 C 0.79745 0.68182 0.53485 0.0
C1094 C 0.77575 0.71284 0.54641 0.0
C1095 C 0.77686 0.72006 0.52405 0.0
C1096 C 0.7895 0.70851 0.50744 0.0
C1097 C 0.79969 0.6896 0.51276 0.0
C1098 C 0.76313 0.73877 0.51721 0.0
C1099 C 0.77733 0.7536 0.50549 0.0
C1100 C 0.7357 0.74103 0.51994 0.0
C1101 C 0.71944 0.72566 0.53156 0.0
C1102 C 0.71768 0.70595 0.52302 0.0
C1103 C 0.70243 0.69151 0.5342 0.0
C1104 C 0.68867 0.69667 0.55383 0.0
C1105 C 0.69007 0.7163 0.56226 0.0
C1106 C 0.70532 0.73079 0.55115 0.0
C1107 C 0.69438 0.79198 0.45029 0.0
C1108 C 0.70077 0.81258 0.45045 0.0
C1109 C 0.70489 0.77898 0.46647 0.0
C1110 C 0.72216 0.78628 0.48303 0.0
C1111 C 0.72723 0.80704 0.48422 0.0
C1112 C 0.71654 0.82014 0.46806 0.0
C1113 C 0.737 0.77164 0.49696 0.0
C1114 C 0.72303 0.75757 0.51001 0.0
C1115 C 0.76457 0.76986 0.49507 0.0
C1116 C 0.78035 0.78374 0.48088 0.0
C1117 C 0.7997 0.79589 0.49088 0.0
C1118 C 0.81455 0.80909 0.47754 0.0
C1119 C 0.81031 0.81014 0.45417 0.0
C1120 C 0.79129 0.79794 0.44407 0.0
C1121 C 0.77642 0.7847 0.45732 0.0
H1122 H 0.82181 0.82038 0.44388 0.0
H1123 H 0.67688 0.68547 0.56247 0.0
H1124 H 0.31319 0.79094 0.03897 0.0
H1125 H 0.29673 0.77175 0.00706 0.0
H1126 H 0.25324 0.82359 0.98378 0.0
H1127 H 0.26952 0.84301 0.01622 0.0
H1128 H 0.22202 0.7926 0.98756 0.0
H1129 H 0.30073 0.80281 0.94917 0.0
H1130 H 0.34832 0.8065 0.94314 0.0
H1131 H 0.35995 0.74445 0.96123 0.0
H1132 H 0.3125 0.74043 0.96773 0.0
H1133 H 0.22142 0.69079 0.91663 0.0
H1134 H 0.23418 0.72627 0.91956 0.0
H1135 H 0.21058 0.72645 0.98977 0.0
H1136 H 0.19755 0.69134 0.98697 0.0
H1137 H 0.27191 0.74098 0.94489 0.0
H1138 H 0.19034 0.77011 0.00716 0.0
H1139 H 0.14234 0.76749 0.01104 0.0
H1140 H 0.13544 0.75373 0.94024 0.0
H1141 H 0.18337 0.75658 0.93581 0.0
C1142 C 0.30058 0.79845 0.02683 0.0
C1143 C 0.29239 0.81841 0.03029 0.0
C1144 C 0.29138 0.7875 0.00839 0.0
C1145 C 0.27389 0.79626 0.99286 0.0
C1146 C 0.26683 0.81658 0.99549 0.0
C1147 C 0.27618 0.82764 0.014 0.0
C1148 C 0.26026 0.78306 0.97637 0.0
C1149 C 0.23285 0.78154 0.97784 0.0
C1150 C 0.27427 0.76914 0.96287 0.0
C1151 C 0.30294 0.77133 0.9589 0.0
C1152 C 0.31342 0.78996 0.95197 0.0
C1153 C 0.3404 0.79211 0.94847 0.0
C1154 C 0.35714 0.77572 0.95179 0.0
C1155 C 0.34694 0.75713 0.95861 0.0
C1156 C 0.31998 0.75489 0.96215 0.0
C1157 C 0.2185 0.69851 0.93258 0.0
C1158 C 0.20864 0.68816 0.95163 0.0
C1159 C 0.2258 0.71878 0.9342 0.0
C1160 C 0.22307 0.7291 0.95479 0.0
C1161 C 0.21235 0.71897 0.97355 0.0
C1162 C 0.20514 0.69878 0.97198 0.0
C1163 C 0.23408 0.74959 0.9579 0.0
C1164 C 0.26095 0.75246 0.95386 0.0
C1165 C 0.2195 0.76498 0.96862 0.0
C1166 C 0.19054 0.76356 0.97116 0.0
C1167 C 0.1786 0.76672 0.99236 0.0
C1168 C 0.15138 0.76513 0.99467 0.0
C1169 C 0.13585 0.76043 0.9759 0.0
C1170 C 0.1475 0.75734 0.95477 0.0
C1171 C 0.1747 0.75891 0.95236 0.0
H1172 H 0.11479 0.7592 0.97774 0.0
H1173 H 0.37803 0.77741 0.94908 0.0
H1174 H 0.70793 0.16405 0.51791 0.0
H1175 H 0.73137 0.18748 0.49304 0.0
H1176 H 0.68165 0.23597 0.51569 0.0
H1177 H 0.65868 0.21282 0.54105 0.0
H1178 H 0.72439 0.21627 0.45946 0.0
H1179 H 0.71992 0.27378 0.53267 0.0
H1180 H 0.71307 0.27413 0.57408 0.0
H1181 H 0.74289 0.21378 0.57893 0.0
H1182 H 0.75029 0.2132 0.53763 0.0
H1183 H 0.77686 0.31267 0.4279 0.0
H1184 H 0.75222 0.28238 0.43826 0.0
H1185 H 0.80915 0.26915 0.4904 0.0
H1186 H 0.83295 0.29994 0.48085 0.0
H1187 H 0.76445 0.26883 0.50814 0.0
H1188 H 0.79924 0.23883 0.44119 0.0
H1189 H 0.80989 0.2361 0.40056 0.0
H1190 H 0.7279 0.23748 0.38399 0.0
H1191 H 0.71676 0.24049 0.42452 0.0
C1192 C 0.70144 0.17957 0.51705 0.0
C1193 C 0.68187 0.18672 0.53179 0.0
C1194 C 0.71483 0.19293 0.50278 0.0
C1195 C 0.70864 0.21352 0.50296 0.0
C1196 C 0.68703 0.22018 0.51564 0.0
C1197 C 0.67394 0.20694 0.53014 0.0
C1198 C 0.72714 0.2284 0.49318 0.0
C1199 C 0.73316 0.22784 0.46999 0.0
C1200 C 0.73922 0.24302 0.50712 0.0
C1201 C 0.73539 0.24339 0.53205 0.0
C1202 C 0.72512 0.26063 0.54261 0.0
C1203 C 0.72114 0.26086 0.56605 0.0
C1204 C 0.72746 0.24396 0.57912 0.0
C1205 C 0.73792 0.22683 0.56878 0.0
C1206 C 0.742 0.22655 0.54537 0.0
C1207 C 0.78439 0.30302 0.44122 0.0
C1208 C 0.80662 0.3087 0.45376 0.0
C1209 C 0.77036 0.28564 0.44707 0.0
C1210 C 0.77877 0.27343 0.46516 0.0
C1211 C 0.8021 0.27841 0.47654 0.0
C1212 C 0.81573 0.29597 0.47106 0.0
C1213 C 0.76178 0.25706 0.47415 0.0
C1214 C 0.75589 0.25733 0.49739 0.0
C1215 C 0.75056 0.24191 0.46028 0.0
C1216 C 0.75718 0.24007 0.4359 0.0
C1217 C 0.78349 0.23871 0.42888 0.0
C1218 C 0.78961 0.23708 0.40586 0.0
C1219 C 0.76959 0.23666 0.3897 0.0
C1220 C 0.74339 0.23782 0.39653 0.0
C1221 C 0.73716 0.23947 0.41952 0.0
H1222 H 0.77437 0.2354 0.37189 0.0
H1223 H 0.72431 0.24416 0.59725 0.0
H1224 H 0.71907 0.80326 0.07491 0.0
H1225 H 0.7351 0.76897 0.06845 0.0
H1226 H 0.70594 0.77131 -0.00015 0.0
H1227 H 0.6896 0.80522 0.00619 0.0
H1228 H 0.70074 0.73398 0.01704 0.0
H1229 H 0.76877 0.78648 0.01281 0.0
H1230 H 0.7956 0.81374 0.02926 0.0
H1231 H 0.82271 0.77349 0.08131 0.0
H1232 H 0.79578 0.74606 0.06526 0.0
H1233 H 0.81182 0.70805 0.94171 0.0
H1234 H 0.79454 0.72859 0.97229 0.0
H1235 H 0.76268 0.67553 0.00453 0.0
H1236 H 0.77973 0.65471 0.9736 0.0
H1237 H 0.79802 0.73152 0.01768 0.0
H1238 H 0.70136 0.68951 0.02404 0.0
H1239 H 0.67467 0.66482 0.00288 0.0
H1240 H 0.70528 0.68756 0.94002 0.0
H1241 H 0.73189 0.71249 0.96082 0.0
C1242 C 0.71554 0.79629 0.05861 0.0
C1243 C 0.70347 0.80712 0.04091 0.0
C1244 C 0.72473 0.7767 0.05497 0.0
C1245 C 0.72202 0.76772 0.03359 0.0
C1246 C 0.70824 0.77794 0.0165 0.0
C1247 C 0.69908 0.79744 0.0201 0.0
C1248 C 0.73614 0.74897 0.02766 0.0
C1249 C 0.72198 0.73317 0.0177 0.0
C1250 C 0.76386 0.74792 0.02847 0.0
C1251 C 0.78005 0.76435 0.03804 0.0
C1252 C 0.78033 0.78351 0.02785 0.0
C1253 C 0.79556 0.79897 0.03708 0.0
C1254 C 0.81078 0.79537 0.05637 0.0
C1255 C 0.81086 0.77628 0.06642 0.0
C1256 C 0.79562 0.76077 0.05726 0.0
C1257 C 0.80151 0.70063 0.95545 0.0
C1258 C 0.79673 0.67979 0.95499 0.0
C1259 C 0.79182 0.7124 0.97306 0.0
C1260 C 0.77708 0.70361 0.99055 0.0
C1261 C 0.77383 0.68261 0.99106 0.0
C1262 C 0.78361 0.67076 0.97339 0.0
C1263 C 0.76264 0.71699 0.00623 0.0
C1264 C 0.77674 0.73176 0.01806 0.0
C1265 C 0.73489 0.71735 0.00668 0.0
C1266 C 0.71882 0.70262 0.99399 0.0
C1267 C 0.70233 0.68922 0.0057 0.0
C1268 C 0.68723 0.6752 0.99378 0.0
C1269 C 0.68836 0.67457 0.97013 0.0
C1270 C 0.7045 0.68801 0.95834 0.0
C1271 C 0.7196 0.70207 0.97018 0.0
H1272 H 0.67668 0.66369 0.96093 0.0
H1273 H 0.82257 0.80736 0.06349 0.0
H1274 H 0.29579 0.18225 0.50863 0.0
H1275 H 0.29346 0.21862 0.50409 0.0
H1276 H 0.25707 0.22399 0.5698 0.0
H1277 H 0.25947 0.18724 0.5746 0.0
H1278 H 0.23 0.24404 0.53534 0.0
H1279 H 0.31537 0.24411 0.56494 0.0
H1280 H 0.3607 0.23239 0.57099 0.0
H1281 H 0.37909 0.24494 0.50138 0.0
H1282 H 0.33377 0.25641 0.49476 0.0
H1283 H 0.22614 0.3403 0.47827 0.0
H1284 H 0.2378 0.31877 0.51082 0.0
H1285 H 0.27879 0.27841 0.46586 0.0
H1286 H 0.26709 0.29946 0.43365 0.0
H1287 H 0.30512 0.28459 0.50727 0.0
H1288 H 0.21576 0.2698 0.47766 0.0
H1289 H 0.17 0.27997 0.4702 0.0
H1290 H 0.15996 0.29492 0.54044 0.0
H1291 H 0.2058 0.28501 0.54822 0.0
C1292 C 0.28748 0.19111 0.52224 0.0
C1293 C 0.27768 0.18185 0.54191 0.0
C1294 C 0.28639 0.21194 0.51972 0.0
C1295 C 0.27542 0.22401 0.53676 0.0
C1296 C 0.26584 0.21492 0.55658 0.0
C1297 C 0.26722 0.19397 0.55926 0.0
C1298 C 0.27208 0.2458 0.53237 0.0
C1299 C 0.24648 0.25326 0.53002 0.0
C1300 C 0.29359 0.25783 0.52554 0.0
C1301 C 0.32108 0.25117 0.52937 0.0
C1302 C 0.32903 0.2443 0.55088 0.0
C1303 C 0.35474 0.23769 0.55441 0.0
C1304 C 0.37277 0.23794 0.53659 0.0
C1305 C 0.36512 0.24481 0.51519 0.0
C1306 C 0.33942 0.25141 0.51155 0.0
C1307 C 0.23802 0.327 0.47551 0.0
C1308 C 0.24545 0.32136 0.45346 0.0
C1309 C 0.24467 0.31478 0.49405 0.0
C1310 C 0.25916 0.29704 0.49069 0.0
C1311 C 0.26776 0.29211 0.46884 0.0
C1312 C 0.26083 0.30405 0.45041 0.0
C1313 C 0.26309 0.28204 0.50891 0.0
C1314 C 0.28878 0.27586 0.51382 0.0
C1315 C 0.24172 0.27118 0.51811 0.0
C1316 C 0.2142 0.27693 0.51346 0.0
C1317 C 0.20381 0.27537 0.49147 0.0
C1318 C 0.17788 0.28107 0.48719 0.0
C1319 C 0.16211 0.28815 0.50482 0.0
C1320 C 0.17222 0.28948 0.52679 0.0
C1321 C 0.19816 0.28383 0.53114 0.0
H1322 H 0.14204 0.29257 0.50148 0.0
H1323 H 0.39266 0.2328 0.53936 0.0
H1324 H 0.81314 0.28123 0.06131 0.0
H1325 H 0.80081 0.25839 0.03116 0.0
H1326 H 0.78063 0.30882 0.9883 0.0
H1327 H 0.79247 0.33206 0.0189 0.0
H1328 H 0.74283 0.28164 0.98756 0.0
H1329 H 0.83364 0.27894 0.97479 0.0
H1330 H 0.88076 0.27722 0.98392 0.0
H1331 H 0.87017 0.21824 0.01254 0.0
H1332 H 0.82291 0.2197 0.00393 0.0
H1333 H 0.71365 0.19223 0.9174 0.0
H1334 H 0.73469 0.22451 0.92705 0.0
H1335 H 0.75034 0.20238 0.99445 0.0
H1336 H 0.72912 0.17059 0.9853 0.0
H1337 H 0.79512 0.22087 0.9689 0.0
H1338 H 0.70213 0.23073 0.9905 0.0
H1339 H 0.65514 0.23309 0.98087 0.0
H1340 H 0.67198 0.27982 0.93254 0.0
H1341 H 0.71915 0.27752 0.94172 0.0
C1342 C 0.80639 0.28759 0.04544 0.0
C1343 C 0.80373 0.30852 0.0426 0.0
C1344 C 0.79955 0.27446 0.02807 0.0
C1345 C 0.79022 0.28188 0.00729 0.0
C1346 C 0.78797 0.30278 0.00415 0.0
C1347 C 0.79476 0.31602 0.02164 0.0
C1348 C 0.78082 0.26745 0.98994 0.0
C1349 C 0.75456 0.26867 0.98286 0.0
C1350 C 0.79611 0.25058 0.98361 0.0
C1351 C 0.82464 0.24946 0.9887 0.0
C1352 C 0.84131 0.26563 0.98313 0.0
C1353 C 0.86806 0.2647 0.98821 0.0
C1354 C 0.87845 0.24763 -0.0012 0.0
C1355 C 0.8621 0.23144 0.0043 0.0
C1356 C 0.83533 0.2323 -0.00073 0.0
C1357 C 0.7215 0.19434 0.93429 0.0
C1358 C 0.71964 0.1789 0.95062 0.0
C1359 C 0.73351 0.21271 0.93972 0.0
C1360 C 0.74417 0.21564 0.96138 0.0
C1361 C 0.74235 0.20028 0.9776 0.0
C1362 C 0.73002 0.18218 0.97237 0.0
C1363 C 0.757 0.2347 0.96785 0.0
C1364 C 0.78387 0.23429 0.97283 0.0
C1365 C 0.74242 0.25239 0.97195 0.0
C1366 C 0.71413 0.25375 0.96654 0.0
C1367 C 0.69582 0.24136 0.97766 0.0
C1368 C 0.66916 0.24272 0.97233 0.0
C1369 C 0.66059 0.25654 0.95604 0.0
C1370 C 0.67865 0.26908 0.94511 0.0
C1371 C 0.70534 0.26775 0.95037 0.0
H1372 H 0.63994 0.25758 0.95194 0.0
H1373 H 0.89917 0.24695 0.00275 0.0
H1374 H 0.19914 0.70488 0.55512 0.0
H1375 H 0.21327 0.72529 0.52303 0.0
H1376 H 0.2513 0.67356 0.49353 0.0
H1377 H 0.237 0.65283 0.52578 0.0
H1378 H 0.28397 0.70657 0.49699 0.0
H1379 H 0.20125 0.69241 0.46546 0.0
H1380 H 0.15333 0.68753 0.46452 0.0
H1381 H 0.14172 0.74981 0.48127 0.0
H1382 H 0.18956 0.75502 0.48267 0.0
H1383 H 0.27277 0.80074 0.41436 0.0
H1384 H 0.26208 0.76562 0.42338 0.0
H1385 H 0.2909 0.77419 0.49142 0.0
H1386 H 0.30171 0.80904 0.48261 0.0
H1387 H 0.22671 0.7539 0.45459 0.0
H1388 H 0.31562 0.73221 0.51245 0.0
H1389 H 0.36355 0.73706 0.51271 0.0
H1390 H 0.36327 0.74484 0.44047 0.0
H1391 H 0.31539 0.73971 0.43969 0.0
C1392 C 0.21018 0.69773 0.54167 0.0
C1393 C 0.21711 0.67728 0.54304 0.0
C1394 C 0.21808 0.70938 0.52324 0.0
C1395 C 0.23315 0.70088 0.50583 0.0
C1396 C 0.23953 0.68034 0.50676 0.0
C1397 C 0.23131 0.66854 0.52514 0.0
C1398 C 0.24422 0.71424 0.48815 0.0
C1399 C 0.27154 0.71671 0.48736 0.0
C1400 C 0.22795 0.72703 0.4751 0.0
C1401 C 0.19907 0.72409 0.47419 0.0
C1402 C 0.1885 0.70505 0.46907 0.0
C1403 C 0.16133 0.70223 0.46844 0.0
C1404 C 0.14449 0.71835 0.47283 0.0
C1405 C 0.15479 0.73734 0.47784 0.0
C1406 C 0.18194 0.74024 0.4785 0.0
C1407 C 0.27729 0.79502 0.43111 0.0
C1408 C 0.2879 0.80773 0.44784 0.0
C1409 C 0.27114 0.77497 0.43622 0.0
C1410 C 0.2759 0.76726 0.45799 0.0
C1411 C 0.28746 0.77971 0.47438 0.0
C1412 C 0.29343 0.79972 0.46937 0.0
C1413 C 0.26632 0.74706 0.46471 0.0
C1414 C 0.23926 0.74333 0.46351 0.0
C1415 C 0.28286 0.73301 0.47573 0.0
C1416 C 0.31182 0.7356 0.47603 0.0
C1417 C 0.32578 0.73476 0.49658 0.0
C1418 C 0.35295 0.73761 0.49683 0.0
C1419 C 0.36644 0.74128 0.47663 0.0
C1420 C 0.35279 0.74204 0.45612 0.0
C1421 C 0.32562 0.73917 0.45577 0.0
H1422 H 0.38747 0.74353 0.47686 0.0
H1423 H 0.12347 0.71613 0.47234 0.0
H1424 H 0.20805 0.59057 0.99293 0.0
H1425 H 0.20473 0.56066 0.01702 0.0
H1426 H 0.19169 0.52383 0.95791 0.0
H1427 H 0.19422 0.55367 0.93381 0.0
H1428 H 0.15998 0.51251 0.9916 0.0
H1429 H 0.25226 0.52731 0.98273 0.0
H1430 H 0.29195 0.54848 0.98492 0.0
H1431 H 0.28146 0.55465 0.05677 0.0
H1432 H 0.24148 0.53371 0.05495 0.0
H1433 H 0.20736 0.41623 0.02291 0.0
H1434 H 0.20288 0.44968 0.00622 0.0
H1435 H 0.1987 0.47585 0.07291 0.0
H1436 H 0.20236 0.44225 0.08989 0.0
H1437 H 0.2359 0.49432 0.04018 0.0
H1438 H 0.14628 0.47532 0.04897 0.0
H1439 H 0.10847 0.45237 0.04605 0.0
H1440 H 0.11485 0.45304 0.97351 0.0
H1441 H 0.15322 0.47561 0.97601 0.0
C1442 C 0.20419 0.57615 0.98508 0.0
C1443 C 0.20143 0.57449 0.96146 0.0
C1444 C 0.20243 0.55906 -0.00114 0.0
C1445 C 0.19821 0.54001 0.98922 0.0
C1446 C 0.19489 0.5384 0.9657 0.0
C1447 C 0.1965 0.55546 0.95194 0.0
C1448 C 0.19824 0.52158 0.00338 0.0
C1449 C 0.17662 0.5085 0.00214 0.0
C1450 C 0.21971 0.51658 0.01754 0.0
C1451 C 0.24372 0.52916 0.01866 0.0
C1452 C 0.2583 0.53332 -0.00103 0.0
C1453 C 0.28087 0.54525 0.00015 0.0
C1454 C 0.28917 0.55296 0.02096 0.0
C1455 C 0.27497 0.5487 0.04065 0.0
C1456 C 0.25236 0.5368 0.03956 0.0
C1457 C 0.20525 0.42899 0.03409 0.0
C1458 C 0.20492 0.42652 0.05773 0.0
C1459 C 0.20273 0.4481 0.0245 0.0
C1460 C 0.20028 0.46509 0.03839 0.0
C1461 C 0.20047 0.46282 0.06198 0.0
C1462 C 0.20249 0.44364 0.0716 0.0
C1463 C 0.19792 0.48522 0.02801 0.0
C1464 C 0.21909 0.49855 0.02993 0.0
C1465 C 0.17615 0.49037 0.01437 0.0
C1466 C 0.15281 0.47703 0.0127 0.0
C1467 C 0.1398 0.47043 0.03239 0.0
C1468 C 0.11822 0.45751 0.03081 0.0
C1469 C 0.10924 0.45124 0.00961 0.0
C1470 C 0.12183 0.45791 0.98993 0.0
C1471 C 0.14351 0.47077 0.99142 0.0
H1472 H 0.09251 0.44124 0.00843 0.0
H1473 H 0.30666 0.56218 0.02184 0.0
H1474 H 0.82378 0.55203 0.5761 0.0
H1475 H 0.83234 0.51997 0.55738 0.0
H1476 H 0.83175 0.54989 0.49236 0.0
H1477 H 0.8221 0.58184 0.5109 0.0
H1478 H 0.80337 0.51763 0.49045 0.0
H1479 H 0.88949 0.53239 0.51806 0.0
H1480 H 0.92289 0.54138 0.54652 0.0
H1481 H 0.90502 0.48772 0.58426 0.0
H1482 H 0.87123 0.47853 0.55619 0.0
H1483 H 0.85177 0.4377 0.42552 0.0
H1484 H 0.85301 0.46934 0.44645 0.0
H1485 H 0.83551 0.43755 0.50843 0.0
H1486 H 0.83396 0.40568 0.48757 0.0
H1487 H 0.87438 0.4702 0.51211 0.0
H1488 H 0.78689 0.45678 0.48438 0.0
H1489 H 0.75439 0.44806 0.45503 0.0
H1490 H 0.77664 0.50027 0.41643 0.0
H1491 H 0.80958 0.50912 0.44541 0.0
C1492 C 0.82565 0.55182 0.55782 0.0
C1493 C 0.82238 0.56952 0.54498 0.0
C1494 C 0.83073 0.53349 0.54715 0.0
C1495 C 0.83307 0.53256 0.52348 0.0
C1496 C 0.83011 0.55026 0.51066 0.0
C1497 C 0.82472 0.56856 0.5213 0.0
C1498 C 0.83703 0.51298 0.51197 0.0
C1499 C 0.81919 0.50745 0.49498 0.0
C1500 C 0.85727 0.49943 0.51824 0.0
C1501 C 0.87765 0.50487 0.53512 0.0
C1502 C 0.89254 0.52258 0.53252 0.0
C1503 C 0.91157 0.5277 0.54856 0.0
C1504 C 0.91603 0.51515 0.56721 0.0
C1505 C 0.90152 0.49743 0.56982 0.0
C1506 C 0.88244 0.49225 0.55383 0.0
C1507 C 0.8486 0.43733 0.44367 0.0
C1508 C 0.84252 0.41921 0.45487 0.0
C1509 C 0.84934 0.45543 0.45557 0.0
C1510 C 0.8441 0.45571 0.47888 0.0
C1511 C 0.83961 0.43754 0.49042 0.0
C1512 C 0.83867 0.41939 0.47847 0.0
C1513 C 0.84091 0.47516 0.49062 0.0
C1514 C 0.85873 0.48055 0.50763 0.0
C1515 C 0.82081 0.48871 0.48429 0.0
C1516 C 0.80088 0.48349 0.46694 0.0
C1517 C 0.78501 0.4663 0.46953 0.0
C1518 C 0.76648 0.46135 0.45299 0.0
C1519 C 0.7635 0.47357 0.43385 0.0
C1520 C 0.779 0.4908 0.43125 0.0
C1521 C 0.79759 0.49579 0.44773 0.0
H1522 H 0.74914 0.46972 0.42106 0.0
H1523 H 0.93077 0.51914 0.57962 0.0
H1524 H 0.83098 0.40982 0.02358 0.0
H1525 H 0.83683 0.43974 -0.00021 0.0
H1526 H 0.77989 0.4717 0.0401 0.0
H1527 H 0.77363 0.44186 0.0637 0.0
H1528 H 0.77232 0.47833 0.99579 0.0
H1529 H 0.84562 0.47909 0.04751 0.0
H1530 H 0.8848 0.46502 0.06624 0.0
H1531 H 0.92333 0.45976 0.00182 0.0
H1532 H 0.88421 0.47356 0.98266 0.0
H1533 H 0.79761 0.57888 0.96614 0.0
H1534 H 0.79511 0.54766 0.98799 0.0
H1535 H 0.85091 0.51988 0.94289 0.0
H1536 H 0.85377 0.55116 0.921 0.0
H1537 H 0.86002 0.51001 0.98743 0.0
H1538 H 0.78748 0.51034 0.93586 0.0
H1539 H 0.74839 0.52444 0.91703 0.0
H1540 H 0.70848 0.52744 0.981 0.0
H1541 H 0.74749 0.51361 0.00028 0.0
C1542 C 0.8196 0.42319 0.02729 0.0
C1543 C 0.80191 0.4235 0.04558 0.0
C1544 C 0.82306 0.44029 0.01376 0.0
C1545 C 0.80904 0.45801 0.01838 0.0
C1546 C 0.79094 0.45819 0.03628 0.0
C1547 C 0.78743 0.44112 0.04977 0.0
C1548 C 0.81322 0.47649 0.00473 0.0
C1549 C 0.79145 0.48537 0.99416 0.0
C1550 C 0.83831 0.48535 0.00212 0.0
C1551 C 0.86189 0.47715 0.01363 0.0
C1552 C 0.86237 0.47479 0.03732 0.0
C1553 C 0.88458 0.46689 0.04802 0.0
C1554 C 0.90651 0.46144 0.03523 0.0
C1555 C 0.90631 0.46395 0.01171 0.0
C1556 C 0.88413 0.47182 0.00092 0.0
C1557 C 0.80955 0.56621 0.96096 0.0
C1558 C 0.82569 0.56743 0.94169 0.0
C1559 C 0.80802 0.54836 0.97342 0.0
C1560 C 0.82249 0.53138 0.9668 0.0
C1561 C 0.8395 0.5328 0.94819 0.0
C1562 C 0.84105 0.55067 0.93569 0.0
C1563 C 0.81905 0.51198 0.97884 0.0
C1564 C 0.84093 0.5029 0.98901 0.0
C1565 C 0.79406 0.5029 0.98109 0.0
C1566 C 0.7705 0.51111 0.96954 0.0
C1567 C 0.77044 0.51415 0.94594 0.0
C1568 C 0.74829 0.52207 0.93518 0.0
C1569 C 0.72599 0.52688 0.94782 0.0
C1570 C 0.72578 0.52373 0.97124 0.0
C1571 C 0.7479 0.51583 0.98209 0.0
H1572 H 0.70885 0.53301 0.93946 0.0
H1573 H 0.92368 0.45532 0.04354 0.0
H1574 H 0.20931 0.41562 0.47031 0.0
H1575 H 0.20272 0.44498 0.49447 0.0
H1576 H 0.15665 0.47333 0.44203 0.0
H1577 H 0.16318 0.44397 0.41765 0.0
H1578 H 0.19529 0.49796 0.45828 0.0
H1579 H 0.12647 0.45799 0.48883 0.0
H1580 H 0.10579 0.42738 0.50437 0.0
H1581 H 0.15847 0.4286 0.56111 0.0
H1582 H 0.17973 0.45912 0.54576 0.0
H1583 H 0.17343 0.58136 0.53183 0.0
H1584 H 0.16447 0.5527 0.50696 0.0
H1585 H 0.20754 0.51366 0.55214 0.0
H1586 H 0.21619 0.54206 0.57721 0.0
H1587 H 0.1632 0.49575 0.53763 0.0
H1588 H 0.23559 0.53259 0.50405 0.0
H1589 H 0.25729 0.56265 0.48806 0.0
H1590 H 0.198 0.56673 0.43656 0.0
H1591 H 0.17576 0.53682 0.45245 0.0
C1592 C 0.19753 0.428 0.46398 0.0
C1593 C 0.18689 0.42753 0.44202 0.0
C1594 C 0.19366 0.44472 0.47786 0.0
C1595 C 0.17907 0.46126 0.47007 0.0
C1596 C 0.16793 0.46068 0.44835 0.0
C1597 C 0.17165 0.44388 0.43448 0.0
C1598 C 0.17715 0.47965 0.48409 0.0
C1599 C 0.18771 0.49762 0.47546 0.0
C1600 C 0.16768 0.47905 0.5066 0.0
C1601 C 0.15482 0.46078 0.51605 0.0
C1602 C 0.13378 0.45166 0.50454 0.0
C1603 C 0.12193 0.43433 0.51332 0.0
C1604 C 0.13085 0.42601 0.53368 0.0
C1605 C 0.15159 0.43505 0.54533 0.0
C1606 C 0.16352 0.4524 0.53662 0.0
C1607 C 0.18091 0.56666 0.5365 0.0
C1608 C 0.19569 0.56401 0.55641 0.0
C1609 C 0.17579 0.55031 0.52226 0.0
C1610 C 0.18554 0.5311 0.52762 0.0
C1611 C 0.19978 0.52836 0.54772 0.0
C1612 C 0.20484 0.54464 0.56197 0.0
C1613 C 0.18188 0.51391 0.51197 0.0
C1614 C 0.17031 0.49618 0.5203 0.0
C1615 C 0.19047 0.5147 0.48918 0.0
C1616 C 0.20385 0.53264 0.4796 0.0
C1617 C 0.22707 0.54 0.48943 0.0
C1618 C 0.23949 0.55699 0.48037 0.0
C1619 C 0.22898 0.56664 0.46135 0.0
C1620 C 0.20608 0.55927 0.45132 0.0
C1621 C 0.19357 0.5423 0.46034 0.0
H1622 H 0.23862 0.57979 0.45436 0.0
H1623 H 0.12166 0.41257 0.54043 0.0
H1624 H 0.69495 0.08068 0.97285 0.0
H1625 H 0.69281 0.04819 0.99185 0.0
H1626 H 0.68066 0.01874 0.9276 0.0
H1627 H 0.68178 0.05149 0.9084 0.0
H1628 H 0.65148 0.00125 0.96044 0.0
H1629 H 0.74115 0.01996 0.95064 0.0
H1630 H 0.77989 0.04215 0.95256 0.0
H1631 H 0.77373 0.04398 0.02509 0.0
H1632 H 0.73471 0.02202 0.02359 0.0
H1633 H 0.69703 0.9055 0.00414 0.0
H1634 H 0.69234 0.93627 0.9816 0.0
H1635 H 0.69224 0.97172 0.04274 0.0
H1636 H 0.69637 0.9411 0.06544 0.0
H1637 H 0.72821 0.98459 0.00876 0.0
H1638 H 0.6373 0.96543 0.01736 0.0
H1639 H 0.59991 0.94204 0.01424 0.0
H1640 H 0.61016 0.93958 0.94208 0.0
H1641 H 0.64798 0.96267 0.94482 0.0
C1642 C 0.69135 0.06741 0.96273 0.0
C1643 C 0.68864 0.06869 0.93909 0.0
C1644 C 0.69031 0.04879 0.97363 0.0
C1645 C 0.68711 0.03103 0.96107 0.0
C1646 C 0.68326 0.03228 0.93758 0.0
C1647 C 0.684 0.05099 0.92665 0.0
C1648 C 0.68923 0.01123 0.97248 0.0
C1649 C 0.6684 -0.00253 0.97075 0.0
C1650 C 0.7113 0.00635 0.98599 0.0
C1651 C 0.73487 0.01947 0.98698 0.0
C1652 C 0.74795 0.02521 0.96699 0.0
C1653 C 0.76997 0.03773 0.968 0.0
C1654 C 0.77923 0.04451 0.98893 0.0
C1655 C 0.76652 0.03873 0.00889 0.0
C1656 C 0.74447 0.02623 0.00798 0.0
C1657 C 0.6957 0.91979 0.01282 0.0
C1658 C 0.69691 0.92084 0.0366 0.0
C1659 C 0.69303 0.93734 -0.0001 0.0
C1660 C 0.69181 0.95616 0.01058 0.0
C1661 C 0.6931 0.95727 0.03426 0.0
C1662 C 0.69545 0.93976 0.04717 0.0
C1663 C 0.69025 0.97487 -0.00287 0.0
C1664 C 0.71133 0.98836 -0.00162 0.0
C1665 C 0.6686 0.97931 0.98301 0.0
C1666 C 0.64568 0.9656 0.98133 0.0
C1667 C 0.63175 0.95976 0.00084 0.0
C1668 C 0.61043 0.94658 -0.00086 0.0
C1669 C 0.60269 0.93928 0.97798 0.0
C1670 C 0.6162 0.94521 0.95847 0.0
C1671 C 0.63758 0.95835 0.96008 0.0
H1672 H 0.58621 0.92906 0.9767 0.0
H1673 H 0.79629 0.0542 0.98968 0.0
H1674 H 0.2796 0.90809 0.47296 0.0
H1675 H 0.27646 0.9402 0.49265 0.0
H1676 H 0.28383 0.97181 0.42898 0.0
H1677 H 0.28805 0.93965 0.40919 0.0
H1678 H 0.31188 0.99006 0.46035 0.0
H1679 H 0.22384 0.96599 0.45509 0.0
H1680 H 0.18759 0.94161 0.45897 0.0
H1681 H 0.1989 0.94011 0.53106 0.0
H1682 H 0.23547 0.96428 0.52758 0.0
H1683 H 0.26487 0.08319 0.50607 0.0
H1684 H 0.26744 0.05241 0.4835 0.0
H1685 H 0.27361 0.01705 0.54467 0.0
H1686 H 0.27156 0.04771 0.56737 0.0
H1687 H 0.23723 0.00198 0.5126 0.0
H1688 H 0.32676 0.02579 0.51657 0.0
H1689 H 0.36167 0.05118 0.51178 0.0
H1690 H 0.34559 0.0542 0.44043 0.0
H1691 H 0.31025 0.02906 0.44486 0.0
C1692 C 0.28085 0.92183 0.46313 0.0
C1693 C 0.28414 0.9213 0.43951 0.0
C1694 C 0.2788 0.94021 0.4744 0.0
C1695 C 0.27944 0.95839 0.46223 0.0
C1696 C 0.2832 0.95794 0.43869 0.0
C1697 C 0.28554 0.93955 0.42741 0.0
C1698 C 0.27605 0.97784 0.47413 0.0
C1699 C 0.29533 0.99277 0.47149 0.0
C1700 C 0.2546 0.98131 0.48886 0.0
C1701 C 0.23255 0.96682 0.49104 0.0
C1702 C 0.21872 0.96035 0.47175 0.0
C1703 C 0.1981 0.94658 0.47388 0.0
C1704 C 0.19099 0.93928 0.49524 0.0
C1705 C 0.20445 0.94576 0.51452 0.0
C1706 C 0.22511 0.95951 0.51248 0.0
C1707 C 0.26695 0.06892 0.51474 0.0
C1708 C 0.26839 0.06793 0.5385 0.0
C1709 C 0.26834 0.05135 0.50181 0.0
C1710 C 0.27092 0.03255 0.51248 0.0
C1711 C 0.27166 0.03146 0.53618 0.0
C1712 C 0.27055 0.04901 0.54909 0.0
C1713 C 0.27316 0.01395 0.49898 0.0
C1714 C 0.25364 -0.00077 0.50132 0.0
C1715 C 0.29421 0.01079 0.48382 0.0
C1716 C 0.31567 0.02571 0.48109 0.0
C1717 C 0.33052 0.03199 0.49989 0.0
C1718 C 0.35041 0.04632 0.49724 0.0
C1719 C 0.3558 0.05434 0.47582 0.0
C1720 C 0.34136 0.048 0.45701 0.0
C1721 C 0.32141 0.03371 0.45958 0.0
H1722 H 0.3712 0.06543 0.4738 0.0
H1723 H 0.17501 0.92862 0.49686 0.0
H1724 H 0.32326 0.92211 0.03621 0.0
H1725 H 0.32521 0.95459 0.01657 0.0
H1726 H 0.25516 0.97377 0.05136 0.0
H1727 H 0.25291 0.94134 0.0709 0.0
H1728 H 0.25312 0.98233 0.00652 0.0
H1729 H 0.31449 0.99109 0.06762 0.0
H1730 H 0.35285 0.98234 0.09111 0.0
H1731 H 0.40306 0.98758 0.03297 0.0
H1732 H 0.36493 0.9961 0.00906 0.0
H1733 H 0.25656 0.08554 0.97908 0.0
H1734 H 0.25768 0.05431 0.00104 0.0
H1735 H 0.3287 0.0366 0.96673 0.0
H1736 H 0.32799 0.06796 0.94494 0.0
H1737 H 0.33084 0.02719 0.0112 0.0
H1738 H 0.27015 0.01789 0.95 0.0
H1739 H 0.2321 0.02615 0.92592 0.0
H1740 H 0.18098 0.02125 0.9835 0.0
H1741 H 0.21881 0.01323 0.008 0.0
C1742 C 0.30826 0.93324 0.03967 0.0
C1743 C 0.28794 0.92916 0.05514 0.0
C1744 C 0.30948 0.95182 0.02852 0.0
C1745 C 0.29047 0.96665 0.03269 0.0
C1746 C 0.27004 0.96253 0.04793 0.0
C1747 C 0.26883 0.944 0.05911 0.0
C1748 C 0.29156 0.98638 0.02094 0.0
C1749 C 0.26996 0.99227 0.00779 0.0
C1750 C 0.31384 -0.00093 0.02214 0.0
C1751 C 0.33681 0.99404 0.03651 0.0
C1752 C 0.33368 0.99022 0.05981 0.0
C1753 C 0.35539 0.98533 0.0732 0.0
C1754 C 0.38037 0.98435 0.06353 0.0
C1755 C 0.3837 0.98832 0.04044 0.0
C1756 C 0.36205 0.9932 0.02696 0.0
C1757 C 0.27256 0.0751 0.97634 0.0
C1758 C 0.29204 0.07915 0.9601 0.0
C1759 C 0.27312 0.05722 0.98885 0.0
C1760 C 0.29302 0.04298 0.98522 0.0
C1761 C 0.31311 0.04735 0.96973 0.0
C1762 C 0.31263 0.06527 0.95725 0.0
C1763 C 0.2923 0.0232 -0.00308 0.0
C1764 C 0.31398 0.01727 0.00998 0.0
C1765 C 0.27014 0.0104 0.99557 0.0
C1766 C 0.24735 0.01516 0.98087 0.0
C1767 C 0.25082 0.01873 0.95756 0.0
C1768 C 0.22929 0.02335 0.94383 0.0
C1769 C 0.20414 0.02428 0.95318 0.0
C1770 C 0.20047 0.02055 0.97628 0.0
C1771 C 0.22195 0.01595 0.99009 0.0
H1772 H 0.1875 0.02785 0.94253 0.0
H1773 H 0.39715 0.98056 0.07393 0.0
H1774 H 0.62883 0.05521 0.56405 0.0
H1775 H 0.63249 0.02417 0.54208 0.0
H1776 H 0.68524 0.05378 0.49554 0.0
H1777 H 0.68153 0.08497 0.51728 0.0
H1778 H 0.64979 0.02983 0.47362 0.0
H1779 H 0.70917 0.02424 0.53699 0.0
H1780 H 0.7213 0.02453 0.57744 0.0
H1781 H 0.66732 0.97618 0.59045 0.0
H1782 H 0.65461 0.97579 0.5501 0.0
H1783 H 0.71409 0.94778 0.42293 0.0
H1784 H 0.70424 0.97793 0.44487 0.0
H1785 H 0.65326 0.94329 0.48841 0.0
H1786 H 0.66319 0.91287 0.4666 0.0
H1787 H 0.68449 0.96895 0.51234 0.0
H1788 H 0.627 0.97301 0.4486 0.0
H1789 H 0.61493 0.97254 0.40815 0.0
H1790 H 0.66485 0.02352 0.39578 0.0
H1791 H 0.67752 0.02412 0.43612 0.0
C1792 C 0.64104 0.05519 0.54903 0.0
C1793 C 0.65509 0.07251 0.54252 0.0
C1794 C 0.64316 0.03742 0.53655 0.0
C1795 C 0.65944 0.03662 0.51741 0.0
C1796 C 0.67264 0.05409 0.51032 0.0
C1797 C 0.67054 0.07188 0.5228 0.0
C1798 C 0.6635 0.0174 0.5052 0.0
C1799 C 0.6576 0.01657 0.48202 0.0
C1800 C 0.67305 -3e-05 0.51634 0.0
C1801 C 0.68073 0.00014 0.54058 0.0
C1802 C 0.69973 0.01378 0.54851 0.0
C1803 C 0.70674 0.01395 0.57141 0.0
C1804 C 0.69503 0.00042 0.58652 0.0
C1805 C 0.67634 0.98667 0.57874 0.0
C1806 C 0.66924 0.98646 0.55586 0.0
C1807 C 0.70086 0.9465 0.43723 0.0
C1808 C 0.68932 0.92794 0.44296 0.0
C1809 C 0.69515 0.96379 0.44967 0.0
C1810 C 0.6777 0.96289 0.46802 0.0
C1811 C 0.66668 0.9443 0.47421 0.0
C1812 C 0.67237 0.92695 0.46173 0.0
C1813 C 0.67106 0.98144 0.48068 0.0
C1814 C 0.67647 0.98215 0.50396 0.0
C1815 C 0.66103 -0.00125 0.46963 0.0
C1816 C 0.65339 -0.00151 0.44536 0.0
C1817 C 0.63557 0.98402 0.43723 0.0
C1818 C 0.62859 0.98375 0.41432 0.0
C1819 C 0.63917 -0.00204 0.39939 0.0
C1820 C 0.6567 0.01251 0.40736 0.0
C1821 C 0.66376 0.01284 0.43025 0.0
H1822 H 0.63374 -0.00227 0.38166 0.0
H1823 H 0.70049 0.00057 0.60425 0.0
loop_
_geom_bond_atom_site_label_1
_geom_bond_atom_site_label_2
_geom_bond_distance
_geom_bond_site_symmetry_2
_ccdc_geom_bond_type
Mg0 O1 2.028 . S
Mg0 O7 1.986 . S
Mg0 O9 2.114 . S
Mg0 O10 2.251 . S
Mg0 O13 2.010 . S
O1 Mg0 2.028 . S
O1 C4 1.250 . S
O2 Mg3 2.028 . S
O2 C4 1.248 . S
Mg3 O2 2.028 . S
Mg3 O8 2.032 . S
Mg3 O10 2.079 . S
C4 O1 1.250 . S
C4 O2 1.248 . S
C5 O6 1.264 . S
C5 O13 1.249 . S
O6 C5 1.264 . S
O7 Mg0 1.986 . S
O7 C11 1.246 . S
O8 Mg3 2.032 . S
O8 C11 1.259 . S
O9 Mg0 2.114 . S
O9 C12 1.252 . S
O10 Mg0 2.251 . S
O10 Mg3 2.079 . S
O10 C12 1.273 . S
C11 O7 1.246 . S
C11 O8 1.259 . S
C12 O9 1.252 . S
C12 O10 1.273 . S
O13 Mg0 2.010 . S
O13 C5 1.249 . S
Mg14 O15 2.028 . S
Mg14 O21 1.986 . S
Mg14 O23 2.114 . S
Mg14 O24 2.251 . S
Mg14 O27 2.010 . S
O15 Mg14 2.028 . S
O15 C18 1.250 . S
O16 Mg17 2.028 . S
O16 C18 1.248 . S
Mg17 O16 2.028 . S
Mg17 O22 2.032 . S
Mg17 O24 2.079 . S
C18 O15 1.250 . S
C18 O16 1.248 . S
C19 O20 1.264 . S
C19 O27 1.249 . S
O20 C19 1.264 . S
O21 Mg14 1.986 . S
O21 C25 1.246 . S
O22 Mg17 2.032 . S
O22 C25 1.259 . S
O23 Mg14 2.114 . S
O23 C26 1.252 . S
O24 Mg14 2.251 . S
O24 Mg17 2.079 . S
O24 C26 1.273 . S
C25 O21 1.246 . S
C25 O22 1.259 . S
C26 O23 1.252 . S
C26 O24 1.273 . S
O27 Mg14 2.010 . S
O27 C19 1.249 . S
Mg28 O29 2.028 . S
Mg28 O35 1.986 . S
Mg28 O37 2.114 . S
Mg28 O38 2.251 . S
Mg28 O41 2.010 . S
O29 Mg28 2.028 . S
O29 C32 1.250 . S
O30 Mg31 2.028 . S
O30 C32 1.248 . S
Mg31 O30 2.028 . S
Mg31 O36 2.032 . S
Mg31 O38 2.079 . S
C32 O29 1.250 . S
C32 O30 1.248 . S
C33 O34 1.264 . S
C33 O41 1.249 . S
O34 C33 1.264 . S
O35 Mg28 1.986 . S
O35 C39 1.246 . S
O36 Mg31 2.032 . S
O36 C39 1.259 . S
O37 Mg28 2.114 . S
O37 C40 1.252 . S
O38 Mg28 2.251 . S
O38 Mg31 2.079 . S
O38 C40 1.273 . S
C39 O35 1.246 . S
C39 O36 1.259 . S
C40 O37 1.252 . S
C40 O38 1.273 . S
O41 Mg28 2.010 . S
O41 C33 1.249 . S
Mg42 O43 2.028 . S
Mg42 O49 1.986 . S
Mg42 O51 2.114 . S
Mg42 O52 2.251 . S
Mg42 O55 2.010 . S
O43 Mg42 2.028 . S
O43 C46 1.250 . S
O44 Mg45 2.028 . S
O44 C46 1.248 . S
Mg45 O44 2.028 . S
Mg45 O50 2.032 . S
Mg45 O52 2.079 . S
C46 O43 1.250 . S
C46 O44 1.248 . S
C47 O48 1.264 . S
C47 O55 1.249 . S
O48 C47 1.264 . S
O49 Mg42 1.986 . S
O49 C53 1.246 . S
O50 Mg45 2.032 . S
O50 C53 1.259 . S
O51 Mg42 2.114 . S
O51 C54 1.252 . S
O52 Mg42 2.251 . S
O52 Mg45 2.079 . S
O52 C54 1.273 . S
C53 O49 1.246 . S
C53 O50 1.259 . S
C54 O51 1.252 . S
C54 O52 1.273 . S
O55 Mg42 2.010 . S
O55 C47 1.249 . S
Mg56 O57 2.028 . S
Mg56 O63 1.986 . S
Mg56 O65 2.114 . S
Mg56 O66 2.251 . S
Mg56 O69 2.010 . S
O57 Mg56 2.028 . S
O57 C60 1.250 . S
O58 Mg59 2.028 . S
O58 C60 1.248 . S
Mg59 O58 2.028 . S
Mg59 O64 2.032 . S
Mg59 O66 2.079 . S
C60 O57 1.250 . S
C60 O58 1.248 . S
C61 O62 1.264 . S
C61 O69 1.249 . S
O62 C61 1.264 . S
O63 Mg56 1.986 . S
O63 C67 1.246 . S
O64 Mg59 2.032 . S
O64 C67 1.259 . S
O65 Mg56 2.114 . S
O65 C68 1.252 . S
O66 Mg56 2.251 . S
O66 Mg59 2.079 . S
O66 C68 1.273 . S
C67 O63 1.246 . S
C67 O64 1.259 . S
C68 O65 1.252 . S
C68 O66 1.273 . S
O69 Mg56 2.010 . S
O69 C61 1.249 . S
Mg70 O71 2.028 . S
Mg70 O77 1.986 . S
Mg70 O79 2.114 . S
Mg70 O80 2.251 . S
Mg70 O83 2.010 . S
O71 Mg70 2.028 . S
O71 C74 1.250 . S
O72 Mg73 2.028 . S
O72 C74 1.248 . S
Mg73 O72 2.028 . S
Mg73 O78 2.032 . S
Mg73 O80 2.079 . S
C74 O71 1.250 . S
C74 O72 1.248 . S
C75 O76 1.264 . S
C75 O83 1.249 . S
O76 C75 1.264 . S
O77 Mg70 1.986 . S
O77 C81 1.246 . S
O78 Mg73 2.032 . S
O78 C81 1.259 . S
O79 Mg70 2.114 . S
O79 C82 1.252 . S
O80 Mg70 2.251 . S
O80 Mg73 2.079 . S
O80 C82 1.273 . S
C81 O77 1.246 . S
C81 O78 1.259 . S
C82 O79 1.252 . S
C82 O80 1.273 . S
O83 Mg70 2.010 . S
O83 C75 1.249 . S
Mg84 O85 2.028 . S
Mg84 O91 1.986 . S
Mg84 O93 2.114 . S
Mg84 O94 2.251 . S
Mg84 O97 2.010 . S
O85 Mg84 2.028 . S
O85 C88 1.250 . S
O86 Mg87 2.028 . S
O86 C88 1.248 . S
Mg87 O86 2.028 . S
Mg87 O92 2.032 . S
Mg87 O94 2.079 . S
C88 O85 1.250 . S
C88 O86 1.248 . S
C89 O90 1.264 . S
C89 O97 1.249 . S
O90 C89 1.264 . S
O91 Mg84 1.986 . S
O91 C95 1.246 . S
O92 Mg87 2.032 . S
O92 C95 1.259 . S
O93 Mg84 2.114 . S
O93 C96 1.252 . S
O94 Mg84 2.251 . S
O94 Mg87 2.079 . S
O94 C96 1.273 . S
C95 O91 1.246 . S
C95 O92 1.259 . S
C96 O93 1.252 . S
C96 O94 1.273 . S
O97 Mg84 2.010 . S
O97 C89 1.249 . S
Mg98 O99 2.028 . S
Mg98 O105 1.986 . S
Mg98 O107 2.114 . S
Mg98 O108 2.251 . S
Mg98 O111 2.010 . S
O99 Mg98 2.028 . S
O99 C102 1.250 . S
O100 Mg101 2.028 . S
O100 C102 1.248 . S
Mg101 O100 2.028 . S
Mg101 O106 2.032 . S
Mg101 O108 2.079 . S
C102 O99 1.250 . S
C102 O100 1.248 . S
C103 O104 1.264 . S
C103 O111 1.249 . S
O104 C103 1.264 . S
O105 Mg98 1.986 . S
O105 C109 1.246 . S
O106 Mg101 2.032 . S
O106 C109 1.259 . S
O107 Mg98 2.114 . S
O107 C110 1.252 . S
O108 Mg98 2.251 . S
O108 Mg101 2.079 . S
O108 C110 1.273 . S
C109 O105 1.246 . S
C109 O106 1.259 . S
C110 O107 1.252 . S
C110 O108 1.273 . S
O111 Mg98 2.010 . S
O111 C103 1.249 . S
Mg112 O113 2.028 . S
Mg112 O119 1.986 . S
Mg112 O121 2.114 . S
Mg112 O122 2.251 . S
Mg112 O125 2.010 . S
O113 Mg112 2.028 . S
O113 C116 1.250 . S
O114 Mg115 2.028 . S
O114 C116 1.248 . S
Mg115 O114 2.028 . S
Mg115 O120 2.032 . S
Mg115 O122 2.079 . S
C116 O113 1.250 . S
C116 O114 1.248 . S
C117 O118 1.264 . S
C117 O125 1.249 . S
O118 C117 1.264 . S
O119 Mg112 1.986 . S
O119 C123 1.246 . S
O120 Mg115 2.032 . S
O120 C123 1.259 . S
O121 Mg112 2.114 . S
O121 C124 1.252 . S
O122 Mg112 2.251 . S
O122 Mg115 2.079 . S
O122 C124 1.273 . S
C123 O119 1.246 . S
C123 O120 1.259 . S
C124 O121 1.252 . S
C124 O122 1.273 . S
O125 Mg112 2.010 . S
O125 C117 1.249 . S
Mg126 O127 2.028 . S
Mg126 O133 1.986 . S
Mg126 O135 2.114 . S
Mg126 O136 2.251 . S
Mg126 O139 2.010 . S
O127 Mg126 2.028 . S
O127 C130 1.250 . S
O128 Mg129 2.028 . S
O128 C130 1.248 . S
Mg129 O128 2.028 . S
Mg129 O134 2.032 . S
Mg129 O136 2.079 . S
C130 O127 1.250 . S
C130 O128 1.248 . S
C131 O132 1.264 . S
C131 O139 1.249 . S
O132 C131 1.264 . S
O133 Mg126 1.986 . S
O133 C137 1.246 . S
O134 Mg129 2.032 . S
O134 C137 1.259 . S
O135 Mg126 2.114 . S
O135 C138 1.252 . S
O136 Mg126 2.251 . S
O136 Mg129 2.079 . S
O136 C138 1.273 . S
C137 O133 1.246 . S
C137 O134 1.259 . S
C138 O135 1.252 . S
C138 O136 1.273 . S
O139 Mg126 2.010 . S
O139 C131 1.249 . S
Mg140 O141 2.028 . S
Mg140 O147 1.986 . S
Mg140 O149 2.114 . S
Mg140 O150 2.251 . S
Mg140 O153 2.010 . S
O141 Mg140 2.028 . S
O141 C144 1.250 . S
O142 Mg143 2.028 . S
O142 C144 1.248 . S
Mg143 O142 2.028 . S
Mg143 O148 2.032 . S
Mg143 O150 2.079 . S
C144 O141 1.250 . S
C144 O142 1.248 . S
C145 O146 1.264 . S
C145 O153 1.249 . S
O146 C145 1.264 . S
O147 Mg140 1.986 . S
O147 C151 1.246 . S
O148 Mg143 2.032 . S
O148 C151 1.259 . S
O149 Mg140 2.114 . S
O149 C152 1.252 . S
O150 Mg140 2.251 . S
O150 Mg143 2.079 . S
O150 C152 1.273 . S
C151 O147 1.246 . S
C151 O148 1.259 . S
C152 O149 1.252 . S
C152 O150 1.273 . S
O153 Mg140 2.010 . S
O153 C145 1.249 . S
Mg154 O155 2.028 . S
Mg154 O161 1.986 . S
Mg154 O163 2.114 . S
Mg154 O164 2.251 . S
Mg154 O167 2.010 . S
O155 Mg154 2.028 . S
O155 C158 1.250 . S
O156 Mg157 2.028 . S
O156 C158 1.248 . S
Mg157 O156 2.028 . S
Mg157 O162 2.032 . S
Mg157 O164 2.079 . S
C158 O155 1.250 . S
C158 O156 1.248 . S
C159 O160 1.264 . S
C159 O167 1.249 . S
O160 C159 1.264 . S
O161 Mg154 1.986 . S
O161 C165 1.246 . S
O162 Mg157 2.032 . S
O162 C165 1.259 . S
O163 Mg154 2.114 . S
O163 C166 1.252 . S
O164 Mg154 2.251 . S
O164 Mg157 2.079 . S
O164 C166 1.273 . S
C165 O161 1.246 . S
C165 O162 1.259 . S
C166 O163 1.252 . S
C166 O164 1.273 . S
O167 Mg154 2.010 . S
O167 C159 1.249 . S
Mg168 O169 2.028 . S
Mg168 O175 1.986 . S
Mg168 O177 2.114 . S
Mg168 O178 2.251 . S
Mg168 O181 2.010 . S
O169 Mg168 2.028 . S
O169 C172 1.250 . S
O170 Mg171 2.028 . S
O170 C172 1.248 . S
Mg171 O170 2.028 . S
Mg171 O176 2.032 . S
Mg171 O178 2.079 . S
C172 O169 1.250 . S
C172 O170 1.248 . S
C173 O174 1.264 . S
C173 O181 1.249 . S
O174 C173 1.264 . S
O175 Mg168 1.986 . S
O175 C179 1.246 . S
O176 Mg171 2.032 . S
O176 C179 1.259 . S
O177 Mg168 2.114 . S
O177 C180 1.252 . S
O178 Mg168 2.251 . S
O178 Mg171 2.079 . S
O178 C180 1.273 . S
C179 O175 1.246 . S
C179 O176 1.259 . S
C180 O177 1.252 . S
C180 O178 1.273 . S
O181 Mg168 2.010 . S
O181 C173 1.249 . S
Mg182 O183 2.028 . S
Mg182 O189 1.986 . S
Mg182 O191 2.114 . S
Mg182 O192 2.251 . S
Mg182 O195 2.010 . S
O183 Mg182 2.028 . S
O183 C186 1.250 . S
O184 Mg185 2.028 . S
O184 C186 1.248 . S
Mg185 O184 2.028 . S
Mg185 O190 2.032 . S
Mg185 O192 2.079 . S
C186 O183 1.250 . S
C186 O184 1.248 . S
C187 O188 1.264 . S
C187 O195 1.249 . S
O188 C187 1.264 . S
O189 Mg182 1.986 . S
O189 C193 1.246 . S
O190 Mg185 2.032 . S
O190 C193 1.259 . S
O191 Mg182 2.114 . S
O191 C194 1.252 . S
O192 Mg182 2.251 . S
O192 Mg185 2.079 . S
O192 C194 1.273 . S
C193 O189 1.246 . S
C193 O190 1.259 . S
C194 O191 1.252 . S
C194 O192 1.273 . S
O195 Mg182 2.010 . S
O195 C187 1.249 . S
Mg196 O197 2.028 . S
Mg196 O203 1.986 . S
Mg196 O205 2.114 . S
Mg196 O206 2.251 . S
Mg196 O209 2.010 . S
O197 Mg196 2.028 . S
O197 C200 1.250 . S
O198 Mg199 2.028 . S
O198 C200 1.248 . S
Mg199 O198 2.028 . S
Mg199 O204 2.032 . S
Mg199 O206 2.079 . S
C200 O197 1.250 . S
C200 O198 1.248 . S
C201 O202 1.264 . S
C201 O209 1.249 . S
O202 C201 1.264 . S
O203 Mg196 1.986 . S
O203 C207 1.246 . S
O204 Mg199 2.032 . S
O204 C207 1.259 . S
O205 Mg196 2.114 . S
O205 C208 1.252 . S
O206 Mg196 2.251 . S
O206 Mg199 2.079 . S
O206 C208 1.273 . S
C207 O203 1.246 . S
C207 O204 1.259 . S
C208 O205 1.252 . S
C208 O206 1.273 . S
O209 Mg196 2.010 . S
O209 C201 1.249 . S
Mg210 O211 2.028 . S
Mg210 O217 1.986 . S
Mg210 O219 2.114 . S
Mg210 O220 2.251 . S
Mg210 O223 2.010 . S
O211 Mg210 2.028 . S
O211 C214 1.250 . S
O212 Mg213 2.028 . S
O212 C214 1.248 . S
Mg213 O212 2.028 . S
Mg213 O218 2.032 . S
Mg213 O220 2.079 . S
C214 O211 1.250 . S
C214 O212 1.248 . S
C215 O216 1.264 . S
C215 O223 1.249 . S
O216 C215 1.264 . S
O217 Mg210 1.986 . S
O217 C221 1.246 . S
O218 Mg213 2.032 . S
O218 C221 1.259 . S
O219 Mg210 2.114 . S
O219 C222 1.252 . S
O220 Mg210 2.251 . S
O220 Mg213 2.079 . S
O220 C222 1.273 . S
C221 O217 1.246 . S
C221 O218 1.259 . S
C222 O219 1.252 . S
C222 O220 1.273 . S
O223 Mg210 2.010 . S
O223 C215 1.249 . S
H224 C242 0.951 . S
H225 C244 0.951 . S
H226 C246 0.950 . S
H227 C247 0.950 . S
H228 C249 0.950 . S
H229 C252 0.950 . S
H230 C253 0.950 . S
H231 C255 0.950 . S
H232 C256 0.950 . S
H233 C257 0.951 . S
H234 C259 0.951 . S
H235 C261 0.950 . S
H236 C262 0.950 . S
H237 C264 0.950 . S
H238 C267 0.950 . S
H239 C268 0.950 . S
H240 C270 0.950 . S
H241 C271 0.950 . S
C242 H224 0.951 . S
C242 C243 1.366 . S
C242 C244 1.388 . S
C243 C242 1.366 . S
C243 C247 1.385 . S
C244 H225 0.951 . S
C244 C242 1.388 . S
C244 C245 1.366 . S
C245 C244 1.366 . S
C245 C246 1.414 . S
C245 C248 1.499 . S
C246 H226 0.950 . S
C246 C245 1.414 . S
C246 C247 1.374 . S
C247 H227 0.950 . S
C247 C243 1.385 . S
C247 C246 1.374 . S
C248 C245 1.499 . S
C248 C249 1.373 . S
C248 C250 1.389 . S
C249 H228 0.950 . S
C249 C248 1.373 . S
C249 C265 1.377 1_455 S
C250 C248 1.389 . S
C250 C251 1.524 . S
C250 C264 1.377 1_455 S
C251 C250 1.524 . S
C251 C252 1.397 . S
C251 C256 1.363 . S
C252 H229 0.950 . S
C252 C251 1.397 . S
C252 C253 1.334 . S
C253 H230 0.950 . S
C253 C252 1.334 . S
C253 C254 1.287 . S
C254 C253 1.287 . S
C254 C255 1.524 . S
C254 H273 0.913 . S
C255 H231 0.950 . S
C255 C254 1.524 . S
C255 C256 1.415 . S
C256 H232 0.950 . S
C256 C251 1.363 . S
C256 C255 1.415 . S
C257 H233 0.951 . S
C257 C258 1.366 . S
C257 C259 1.388 . S
C258 C257 1.366 . S
C258 C262 1.385 . S
C259 H234 0.951 . S
C259 C257 1.388 . S
C259 C260 1.366 . S
C260 C259 1.366 . S
C260 C261 1.414 . S
C260 C263 1.499 . S
C261 H235 0.950 . S
C261 C260 1.414 . S
C261 C262 1.374 . S
C262 H236 0.950 . S
C262 C258 1.385 . S
C262 C261 1.374 . S
C263 C260 1.499 . S
C263 C264 1.373 . S
C263 C265 1.389 . S
C264 H237 0.950 . S
C264 C250 1.377 1_655 S
C264 C263 1.373 . S
C265 C249 1.377 1_655 S
C265 C263 1.389 . S
C265 C266 1.524 . S
C266 C265 1.524 . S
C266 C267 1.397 . S
C266 C271 1.363 . S
C267 H238 0.950 . S
C267 C266 1.397 . S
C267 C268 1.334 . S
C268 H239 0.950 . S
C268 C267 1.334 . S
C268 C269 1.287 . S
C269 C268 1.287 . S
C269 C270 1.524 . S
C269 H272 0.999 . S
C270 H240 0.950 . S
C270 C269 1.524 . S
C270 C271 1.415 . S
C271 H241 0.950 . S
C271 C266 1.363 . S
C271 C270 1.415 . S
H272 C269 0.999 . S
H273 C254 0.913 . S
H274 C292 0.951 . S
H275 C294 0.951 . S
H276 C296 0.950 . S
H277 C297 0.950 . S
H278 C299 0.950 . S
H279 C302 0.950 . S
H280 C303 0.950 . S
H281 C305 0.950 . S
H282 C306 0.950 . S
H283 C307 0.951 . S
H284 C309 0.951 . S
H285 C311 0.950 . S
H286 C312 0.950 . S
H287 C314 0.950 . S
H288 C317 0.950 . S
H289 C318 0.950 . S
H290 C320 0.950 . S
H291 C321 0.950 . S
C292 H274 0.951 . S
C292 C293 1.366 . S
C292 C294 1.388 . S
C293 C292 1.366 . S
C293 C297 1.385 . S
C294 H275 0.951 . S
C294 C292 1.388 . S
C294 C295 1.366 . S
C295 C294 1.366 . S
C295 C296 1.414 . S
C295 C298 1.499 . S
C296 H276 0.950 . S
C296 C295 1.414 . S
C296 C297 1.374 . S
C297 H277 0.950 . S
C297 C293 1.385 . S
C297 C296 1.374 . S
C298 C295 1.499 . S
C298 C299 1.373 . S
C298 C300 1.389 . S
C299 H278 0.950 . S
C299 C298 1.373 . S
C299 C315 1.377 1_655 S
C300 C298 1.389 . S
C300 C301 1.524 . S
C300 C314 1.377 1_655 S
C301 C300 1.524 . S
C301 C302 1.397 . S
C301 C306 1.363 . S
C302 H279 0.950 . S
C302 C301 1.397 . S
C302 C303 1.334 . S
C303 H280 0.950 . S
C303 C302 1.334 . S
C303 C304 1.287 . S
C304 C303 1.287 . S
C304 C305 1.524 . S
C304 H323 0.913 . S
C305 H281 0.950 . S
C305 C304 1.524 . S
C305 C306 1.415 . S
C306 H282 0.950 . S
C306 C301 1.363 . S
C306 C305 1.415 . S
C307 H283 0.951 . S
C307 C308 1.366 . S
C307 C309 1.388 . S
C308 C307 1.366 . S
C308 C312 1.385 . S
C309 H284 0.951 . S
C309 C307 1.388 . S
C309 C310 1.366 . S
C310 C309 1.366 . S
C310 C311 1.414 . S
C310 C313 1.499 . S
C311 H285 0.950 . S
C311 C310 1.414 . S
C311 C312 1.374 . S
C312 H286 0.950 . S
C312 C308 1.385 . S
C312 C311 1.374 . S
C313 C310 1.499 . S
C313 C314 1.373 . S
C313 C315 1.389 . S
C314 H287 0.950 . S
C314 C300 1.377 1_455 S
C314 C313 1.373 . S
C315 C299 1.377 1_455 S
C315 C313 1.389 . S
C315 C316 1.524 . S
C316 C315 1.524 . S
C316 C317 1.397 . S
C316 C321 1.363 . S
C317 H288 0.950 . S
C317 C316 1.397 . S
C317 C318 1.334 . S
C318 H289 0.950 . S
C318 C317 1.334 . S
C318 C319 1.287 . S
C319 C318 1.287 . S
C319 C320 1.524 . S
C319 H322 0.999 . S
C320 H290 0.950 . S
C320 C319 1.524 . S
C320 C321 1.415 . S
C321 H291 0.950 . S
C321 C316 1.363 . S
C321 C320 1.415 . S
H322 C319 0.999 . S
H323 C304 0.913 . S
H324 C342 0.951 . S
H325 C344 0.951 . S
H326 C346 0.950 . S
H327 C347 0.950 . S
H328 C349 0.950 . S
H329 C352 0.950 . S
H330 C353 0.950 . S
H331 C355 0.950 . S
H332 C356 0.950 . S
H333 C357 0.951 . S
H334 C359 0.951 . S
H335 C361 0.950 . S
H336 C362 0.950 . S
H337 C364 0.950 . S
H338 C367 0.950 . S
H339 C368 0.950 . S
H340 C370 0.950 . S
H341 C371 0.950 . S
C342 H324 0.951 . S
C342 C343 1.366 . S
C342 C344 1.388 . S
C343 C342 1.366 . S
C343 C347 1.385 . S
C344 H325 0.951 . S
C344 C342 1.388 . S
C344 C345 1.366 . S
C345 C344 1.366 . S
C345 C346 1.414 . S
C345 C348 1.499 . S
C346 H326 0.950 . S
C346 C345 1.414 . S
C346 C347 1.374 . S
C347 H327 0.950 . S
C347 C343 1.385 . S
C347 C346 1.374 . S
C348 C345 1.499 . S
C348 C349 1.373 . S
C348 C350 1.389 . S
C349 H328 0.950 . S
C349 C348 1.373 . S
C349 C365 1.377 1_655 S
C350 C348 1.389 . S
C350 C351 1.524 . S
C350 C364 1.377 1_655 S
C351 C350 1.524 . S
C351 C352 1.397 . S
C351 C356 1.363 . S
C352 H329 0.950 . S
C352 C351 1.397 . S
C352 C353 1.334 . S
C353 H330 0.950 . S
C353 C352 1.334 . S
C353 C354 1.287 . S
C354 C353 1.287 . S
C354 C355 1.524 . S
C354 H373 0.913 . S
C355 H331 0.950 . S
C355 C354 1.524 . S
C355 C356 1.415 . S
C356 H332 0.950 . S
C356 C351 1.363 . S
C356 C355 1.415 . S
C357 H333 0.951 . S
C357 C358 1.366 . S
C357 C359 1.388 . S
C358 C357 1.366 . S
C358 C362 1.385 . S
C359 H334 0.951 . S
C359 C357 1.388 . S
C359 C360 1.366 . S
C360 C359 1.366 . S
C360 C361 1.414 . S
C360 C363 1.499 . S
C361 H335 0.950 . S
C361 C360 1.414 . S
C361 C362 1.374 . S
C362 H336 0.950 . S
C362 C358 1.385 . S
C362 C361 1.374 . S
C363 C360 1.499 . S
C363 C364 1.373 . S
C363 C365 1.389 . S
C364 H337 0.950 . S
C364 C350 1.377 1_455 S
C364 C363 1.373 . S
C365 C349 1.377 1_455 S
C365 C363 1.389 . S
C365 C366 1.524 . S
C366 C365 1.524 . S
C366 C367 1.397 . S
C366 C371 1.363 . S
C367 H338 0.950 . S
C367 C366 1.397 . S
C367 C368 1.334 . S
C368 H339 0.950 . S
C368 C367 1.334 . S
C368 C369 1.287 . S
C369 C368 1.287 . S
C369 C370 1.524 . S
C369 H372 0.999 . S
C370 H340 0.950 . S
C370 C369 1.524 . S
C370 C371 1.415 . S
C371 H341 0.950 . S
C371 C366 1.363 . S
C371 C370 1.415 . S
H372 C369 0.999 . S
H373 C354 0.913 . S
H374 C392 0.951 . S
H375 C394 0.951 . S
H376 C396 0.950 . S
H377 C397 0.950 . S
H378 C399 0.950 . S
H379 C402 0.950 . S
H380 C403 0.950 . S
H381 C405 0.950 . S
H382 C406 0.950 . S
H383 C407 0.951 . S
H384 C409 0.951 . S
H385 C411 0.950 . S
H386 C412 0.950 . S
H387 C414 0.950 . S
H388 C417 0.950 . S
H389 C418 0.950 . S
H390 C420 0.950 . S
H391 C421 0.950 . S
C392 H374 0.951 . S
C392 C393 1.366 . S
C392 C394 1.388 . S
C393 C392 1.366 . S
C393 C397 1.385 . S
C394 H375 0.951 . S
C394 C392 1.388 . S
C394 C395 1.366 . S
C395 C394 1.366 . S
C395 C396 1.414 . S
C395 C398 1.499 . S
C396 H376 0.950 . S
C396 C395 1.414 . S
C396 C397 1.374 . S
C397 H377 0.950 . S
C397 C393 1.385 . S
C397 C396 1.374 . S
C398 C395 1.499 . S
C398 C399 1.373 . S
C398 C400 1.389 . S
C399 H378 0.950 . S
C399 C398 1.373 . S
C399 C415 1.377 1_455 S
C400 C398 1.389 . S
C400 C401 1.524 . S
C400 C414 1.377 1_455 S
C401 C400 1.524 . S
C401 C402 1.397 . S
C401 C406 1.363 . S
C402 H379 0.950 . S
C402 C401 1.397 . S
C402 C403 1.334 . S
C403 H380 0.950 . S
C403 C402 1.334 . S
C403 C404 1.287 . S
C404 C403 1.287 . S
C404 C405 1.524 . S
C404 H423 0.913 . S
C405 H381 0.950 . S
C405 C404 1.524 . S
C405 C406 1.415 . S
C406 H382 0.950 . S
C406 C401 1.363 . S
C406 C405 1.415 . S
C407 H383 0.951 . S
C407 C408 1.366 . S
C407 C409 1.388 . S
C408 C407 1.366 . S
C408 C412 1.385 . S
C409 H384 0.951 . S
C409 C407 1.388 . S
C409 C410 1.366 . S
C410 C409 1.366 . S
C410 C411 1.414 . S
C410 C413 1.499 . S
C411 H385 0.950 . S
C411 C410 1.414 . S
C411 C412 1.374 . S
C412 H386 0.950 . S
C412 C408 1.385 . S
C412 C411 1.374 . S
C413 C410 1.499 . S
C413 C414 1.373 . S
C413 C415 1.389 . S
C414 H387 0.950 . S
C414 C400 1.377 1_655 S
C414 C413 1.373 . S
C415 C399 1.377 1_655 S
C415 C413 1.389 . S
C415 C416 1.524 . S
C416 C415 1.524 . S
C416 C417 1.397 . S
C416 C421 1.363 . S
C417 H388 0.950 . S
C417 C416 1.397 . S
C417 C418 1.334 . S
C418 H389 0.950 . S
C418 C417 1.334 . S
C418 C419 1.287 . S
C419 C418 1.287 . S
C419 C420 1.524 . S
C419 H422 0.999 . S
C420 H390 0.950 . S
C420 C419 1.524 . S
C420 C421 1.415 . S
C421 H391 0.950 . S
C421 C416 1.363 . S
C421 C420 1.415 . S
H422 C419 0.999 . S
H423 C404 0.913 . S
H424 C442 0.951 . S
H425 C444 0.951 . S
H426 C446 0.950 . S
H427 C447 0.950 . S
H428 C449 0.950 . S
H429 C452 0.950 . S
H430 C453 0.950 . S
H431 C455 0.950 . S
H432 C456 0.950 . S
H433 C457 0.951 . S
H434 C459 0.951 . S
H435 C461 0.950 . S
H436 C462 0.950 . S
H437 C464 0.950 . S
H438 C467 0.950 . S
H439 C468 0.950 . S
H440 C470 0.950 . S
H441 C471 0.950 . S
C442 H424 0.951 . S
C442 C443 1.366 . S
C442 C444 1.388 . S
C443 C442 1.366 . S
C443 C447 1.385 . S
C444 H425 0.951 . S
C444 C442 1.388 . S
C444 C445 1.366 . S
C445 C444 1.366 . S
C445 C446 1.414 . S
C445 C448 1.499 . S
C446 H426 0.950 . S
C446 C445 1.414 . S
C446 C447 1.374 . S
C447 H427 0.950 . S
C447 C443 1.385 . S
C447 C446 1.374 . S
C448 C445 1.499 . S
C448 C449 1.373 . S
C448 C450 1.389 . S
C449 H428 0.950 . S
C449 C448 1.373 . S
C449 C465 1.377 . S
C450 C448 1.389 . S
C450 C451 1.524 . S
C450 C464 1.377 . S
C451 C450 1.524 . S
C451 C452 1.397 . S
C451 C456 1.363 . S
C452 H429 0.950 . S
C452 C451 1.397 . S
C452 C453 1.334 . S
C453 H430 0.950 . S
C453 C452 1.334 . S
C453 C454 1.287 . S
C454 C453 1.287 . S
C454 C455 1.524 . S
C454 H473 0.913 . S
C455 H431 0.950 . S
C455 C454 1.524 . S
C455 C456 1.415 . S
C456 H432 0.950 . S
C456 C451 1.363 . S
C456 C455 1.415 . S
C457 H433 0.951 . S
C457 C458 1.366 . S
C457 C459 1.388 . S
C458 C457 1.366 . S
C458 C462 1.385 . S
C459 H434 0.951 . S
C459 C457 1.388 . S
C459 C460 1.366 . S
C460 C459 1.366 . S
C460 C461 1.414 . S
C460 C463 1.499 . S
C461 H435 0.950 . S
C461 C460 1.414 . S
C461 C462 1.374 . S
C462 H436 0.950 . S
C462 C458 1.385 . S
C462 C461 1.374 . S
C463 C460 1.499 . S
C463 C464 1.373 . S
C463 C465 1.389 . S
C464 H437 0.950 . S
C464 C450 1.377 . S
C464 C463 1.373 . S
C465 C449 1.377 . S
C465 C463 1.389 . S
C465 C466 1.524 . S
C466 C465 1.524 . S
C466 C467 1.397 . S
C466 C471 1.363 . S
C467 H438 0.950 . S
C467 C466 1.397 . S
C467 C468 1.334 . S
C468 H439 0.950 . S
C468 C467 1.334 . S
C468 C469 1.287 . S
C469 C468 1.287 . S
C469 C470 1.524 . S
C469 H472 0.999 . S
C470 H440 0.950 . S
C470 C469 1.524 . S
C470 C471 1.415 . S
C471 H441 0.950 . S
C471 C466 1.363 . S
C471 C470 1.415 . S
H472 C469 0.999 . S
H473 C454 0.913 . S
H474 C492 0.951 . S
H475 C494 0.951 . S
H476 C496 0.950 . S
H477 C497 0.950 . S
H478 C499 0.950 . S
H479 C502 0.950 . S
H480 C503 0.950 . S
H481 C505 0.950 . S
H482 C506 0.950 . S
H483 C507 0.951 . S
H484 C509 0.951 . S
H485 C511 0.950 . S
H486 C512 0.950 . S
H487 C514 0.950 . S
H488 C517 0.950 . S
H489 C518 0.950 . S
H490 C520 0.950 . S
H491 C521 0.950 . S
C492 H474 0.951 . S
C492 C493 1.366 . S
C492 C494 1.388 . S
C493 C492 1.366 . S
C493 C497 1.385 . S
C494 H475 0.951 . S
C494 C492 1.388 . S
C494 C495 1.366 . S
C495 C494 1.366 . S
C495 C496 1.414 . S
C495 C498 1.499 . S
C496 H476 0.950 . S
C496 C495 1.414 . S
C496 C497 1.374 . S
C497 H477 0.950 . S
C497 C493 1.385 . S
C497 C496 1.374 . S
C498 C495 1.499 . S
C498 C499 1.373 . S
C498 C500 1.389 . S
C499 H478 0.950 . S
C499 C498 1.373 . S
C499 C515 1.377 . S
C500 C498 1.389 . S
C500 C501 1.524 . S
C500 C514 1.377 . S
C501 C500 1.524 . S
C501 C502 1.397 . S
C501 C506 1.363 . S
C502 H479 0.950 . S
C502 C501 1.397 . S
C502 C503 1.334 . S
C503 H480 0.950 . S
C503 C502 1.334 . S
C503 C504 1.287 . S
C504 C503 1.287 . S
C504 C505 1.524 . S
C504 H523 0.913 . S
C505 H481 0.950 . S
C505 C504 1.524 . S
C505 C506 1.415 . S
C506 H482 0.950 . S
C506 C501 1.363 . S
C506 C505 1.415 . S
C507 H483 0.951 . S
C507 C508 1.366 . S
C507 C509 1.388 . S
C508 C507 1.366 . S
C508 C512 1.385 . S
C509 H484 0.951 . S
C509 C507 1.388 . S
C509 C510 1.366 . S
C510 C509 1.366 . S
C510 C511 1.414 . S
C510 C513 1.499 . S
C511 H485 0.950 . S
C511 C510 1.414 . S
C511 C512 1.374 . S
C512 H486 0.950 . S
C512 C508 1.385 . S
C512 C511 1.374 . S
C513 C510 1.499 . S
C513 C514 1.373 . S
C513 C515 1.389 . S
C514 H487 0.950 . S
C514 C500 1.377 . S
C514 C513 1.373 . S
C515 C499 1.377 . S
C515 C513 1.389 . S
C515 C516 1.524 . S
C516 C515 1.524 . S
C516 C517 1.397 . S
C516 C521 1.363 . S
C517 H488 0.950 . S
C517 C516 1.397 . S
C517 C518 1.334 . S
C518 H489 0.950 . S
C518 C517 1.334 . S
C518 C519 1.287 . S
C519 C518 1.287 . S
C519 C520 1.524 . S
C519 H522 0.999 . S
C520 H490 0.950 . S
C520 C519 1.524 . S
C520 C521 1.415 . S
C521 H491 0.950 . S
C521 C516 1.363 . S
C521 C520 1.415 . S
H522 C519 0.999 . S
H523 C504 0.913 . S
H524 C542 0.951 . S
H525 C544 0.951 . S
H526 C546 0.950 . S
H527 C547 0.950 . S
H528 C549 0.950 . S
H529 C552 0.950 . S
H530 C553 0.950 . S
H531 C555 0.950 . S
H532 C556 0.950 . S
H533 C557 0.951 . S
H534 C559 0.951 . S
H535 C561 0.950 . S
H536 C562 0.950 . S
H537 C564 0.950 . S
H538 C567 0.950 . S
H539 C568 0.950 . S
H540 C570 0.950 . S
H541 C571 0.950 . S
C542 H524 0.951 . S
C542 C543 1.366 . S
C542 C544 1.388 . S
C543 C542 1.366 . S
C543 C547 1.385 . S
C544 H525 0.951 . S
C544 C542 1.388 . S
C544 C545 1.366 . S
C545 C544 1.366 . S
C545 C546 1.414 . S
C545 C548 1.499 . S
C546 H526 0.950 . S
C546 C545 1.414 . S
C546 C547 1.374 . S
C547 H527 0.950 . S
C547 C543 1.385 . S
C547 C546 1.374 . S
C548 C545 1.499 . S
C548 C549 1.373 . S
C548 C550 1.389 . S
C549 H528 0.950 . S
C549 C548 1.373 . S
C549 C565 1.377 . S
C550 C548 1.389 . S
C550 C551 1.524 . S
C550 C564 1.377 . S
C551 C550 1.524 . S
C551 C552 1.397 . S
C551 C556 1.363 . S
C552 H529 0.950 . S
C552 C551 1.397 . S
C552 C553 1.334 . S
C553 H530 0.950 . S
C553 C552 1.334 . S
C553 C554 1.287 . S
C554 C553 1.287 . S
C554 C555 1.524 . S
C554 H573 0.913 . S
C555 H531 0.950 . S
C555 C554 1.524 . S
C555 C556 1.415 . S
C556 H532 0.950 . S
C556 C551 1.363 . S
C556 C555 1.415 . S
C557 H533 0.951 . S
C557 C558 1.366 . S
C557 C559 1.388 . S
C558 C557 1.366 . S
C558 C562 1.385 . S
C559 H534 0.951 . S
C559 C557 1.388 . S
C559 C560 1.366 . S
C560 C559 1.366 . S
C560 C561 1.414 . S
C560 C563 1.499 . S
C561 H535 0.950 . S
C561 C560 1.414 . S
C561 C562 1.374 . S
C562 H536 0.950 . S
C562 C558 1.385 . S
C562 C561 1.374 . S
C563 C560 1.499 . S
C563 C564 1.373 . S
C563 C565 1.389 . S
C564 H537 0.950 . S
C564 C550 1.377 . S
C564 C563 1.373 . S
C565 C549 1.377 . S
C565 C563 1.389 . S
C565 C566 1.524 . S
C566 C565 1.524 . S
C566 C567 1.397 . S
C566 C571 1.363 . S
C567 H538 0.950 . S
C567 C566 1.397 . S
C567 C568 1.334 . S
C568 H539 0.950 . S
C568 C567 1.334 . S
C568 C569 1.287 . S
C569 C568 1.287 . S
C569 C570 1.524 . S
C569 H572 0.999 1_556 S
C570 H540 0.950 . S
C570 C569 1.524 . S
C570 C571 1.415 . S
C571 H541 0.950 . S
C571 C566 1.363 . S
C571 C570 1.415 . S
H572 C569 0.999 1_554 S
H573 C554 0.913 . S
H574 C592 0.951 . S
H575 C594 0.951 . S
H576 C596 0.950 . S
H577 C597 0.950 . S
H578 C599 0.950 . S
H579 C602 0.950 . S
H580 C603 0.950 . S
H581 C605 0.950 . S
H582 C606 0.950 . S
H583 C607 0.951 . S
H584 C609 0.951 . S
H585 C611 0.950 . S
H586 C612 0.950 . S
H587 C614 0.950 . S
H588 C617 0.950 . S
H589 C618 0.950 . S
H590 C620 0.950 . S
H591 C621 0.950 . S
C592 H574 0.951 . S
C592 C593 1.366 . S
C592 C594 1.388 . S
C593 C592 1.366 . S
C593 C597 1.385 . S
C594 H575 0.951 . S
C594 C592 1.388 . S
C594 C595 1.366 . S
C595 C594 1.366 . S
C595 C596 1.414 . S
C595 C598 1.499 . S
C596 H576 0.950 . S
C596 C595 1.414 . S
C596 C597 1.374 . S
C597 H577 0.950 . S
C597 C593 1.385 . S
C597 C596 1.374 . S
C598 C595 1.499 . S
C598 C599 1.373 . S
C598 C600 1.389 . S
C599 H578 0.950 . S
C599 C598 1.373 . S
C599 C615 1.377 . S
C600 C598 1.389 . S
C600 C601 1.524 . S
C600 C614 1.377 . S
C601 C600 1.524 . S
C601 C602 1.397 . S
C601 C606 1.363 . S
C602 H579 0.950 . S
C602 C601 1.397 . S
C602 C603 1.334 . S
C603 H580 0.950 . S
C603 C602 1.334 . S
C603 C604 1.287 . S
C604 C603 1.287 . S
C604 C605 1.524 . S
C604 H623 0.913 . S
C605 H581 0.950 . S
C605 C604 1.524 . S
C605 C606 1.415 . S
C606 H582 0.950 . S
C606 C601 1.363 . S
C606 C605 1.415 . S
C607 H583 0.951 . S
C607 C608 1.366 . S
C607 C609 1.388 . S
C608 C607 1.366 . S
C608 C612 1.385 . S
C609 H584 0.951 . S
C609 C607 1.388 . S
C609 C610 1.366 . S
C610 C609 1.366 . S
C610 C611 1.414 . S
C610 C613 1.499 . S
C611 H585 0.950 . S
C611 C610 1.414 . S
C611 C612 1.374 . S
C612 H586 0.950 . S
C612 C608 1.385 . S
C612 C611 1.374 . S
C613 C610 1.499 . S
C613 C614 1.373 . S
C613 C615 1.389 . S
C614 H587 0.950 . S
C614 C600 1.377 . S
C614 C613 1.373 . S
C615 C599 1.377 . S
C615 C613 1.389 . S
C615 C616 1.524 . S
C616 C615 1.524 . S
C616 C617 1.397 . S
C616 C621 1.363 . S
C617 H588 0.950 . S
C617 C616 1.397 . S
C617 C618 1.334 . S
C618 H589 0.950 . S
C618 C617 1.334 . S
C618 C619 1.287 . S
C619 C618 1.287 . S
C619 C620 1.524 . S
C619 H622 0.999 . S
C620 H590 0.950 . S
C620 C619 1.524 . S
C620 C621 1.415 . S
C621 H591 0.950 . S
C621 C616 1.363 . S
C621 C620 1.415 . S
H622 C619 0.999 . S
H623 C604 0.913 . S
H624 C642 0.951 . S
H625 C644 0.951 . S
H626 C646 0.950 . S
H627 C647 0.950 . S
H628 C649 0.950 . S
H629 C652 0.950 . S
H630 C653 0.950 . S
H631 C655 0.950 . S
H632 C656 0.950 . S
H633 C657 0.951 . S
H634 C659 0.951 . S
H635 C661 0.950 . S
H636 C662 0.950 . S
H637 C664 0.950 . S
H638 C667 0.950 . S
H639 C668 0.950 . S
H640 C670 0.950 . S
H641 C671 0.950 . S
C642 H624 0.951 . S
C642 C643 1.366 . S
C642 C644 1.388 . S
C643 C642 1.366 . S
C643 C647 1.385 . S
C644 H625 0.951 . S
C644 C642 1.388 . S
C644 C645 1.366 . S
C645 C644 1.366 . S
C645 C646 1.414 . S
C645 C648 1.499 . S
C646 H626 0.950 . S
C646 C645 1.414 . S
C646 C647 1.374 . S
C647 H627 0.950 . S
C647 C643 1.385 . S
C647 C646 1.374 . S
C648 C645 1.499 . S
C648 C649 1.373 . S
C648 C650 1.389 . S
C649 H628 0.950 . S
C649 C648 1.373 . S
C649 C665 1.377 . S
C650 C648 1.389 . S
C650 C651 1.524 . S
C650 C664 1.377 . S
C651 C650 1.524 . S
C651 C652 1.397 . S
C651 C656 1.363 . S
C652 H629 0.950 . S
C652 C651 1.397 . S
C652 C653 1.334 . S
C653 H630 0.950 . S
C653 C652 1.334 . S
C653 C654 1.287 . S
C654 C653 1.287 . S
C654 C655 1.524 . S
C654 H673 0.913 . S
C655 H631 0.950 . S
C655 C654 1.524 . S
C655 C656 1.415 . S
C656 H632 0.950 . S
C656 C651 1.363 . S
C656 C655 1.415 . S
C657 H633 0.951 . S
C657 C658 1.366 . S
C657 C659 1.388 . S
C658 C657 1.366 . S
C658 C662 1.385 . S
C659 H634 0.951 . S
C659 C657 1.388 . S
C659 C660 1.366 . S
C660 C659 1.366 . S
C660 C661 1.414 . S
C660 C663 1.499 . S
C661 H635 0.950 . S
C661 C660 1.414 . S
C661 C662 1.374 . S
C662 H636 0.950 . S
C662 C658 1.385 . S
C662 C661 1.374 . S
C663 C660 1.499 . S
C663 C664 1.373 . S
C663 C665 1.389 . S
C664 H637 0.950 . S
C664 C650 1.377 . S
C664 C663 1.373 . S
C665 C649 1.377 . S
C665 C663 1.389 . S
C665 C666 1.524 . S
C666 C665 1.524 . S
C666 C667 1.397 . S
C666 C671 1.363 . S
C667 H638 0.950 . S
C667 C666 1.397 . S
C667 C668 1.334 . S
C668 H639 0.950 . S
C668 C667 1.334 . S
C668 C669 1.287 . S
C669 C668 1.287 . S
C669 C670 1.524 . S
C669 H672 0.999 . S
C670 H640 0.950 . S
C670 C669 1.524 . S
C670 C671 1.415 . S
C671 H641 0.950 . S
C671 C666 1.363 . S
C671 C670 1.415 . S
H672 C669 0.999 . S
H673 C654 0.913 . S
H674 C692 0.951 . S
H675 C694 0.951 . S
H676 C696 0.950 . S
H677 C697 0.950 . S
H678 C699 0.950 . S
H679 C702 0.950 . S
H680 C703 0.950 . S
H681 C705 0.950 . S
H682 C706 0.950 . S
H683 C707 0.951 . S
H684 C709 0.951 . S
H685 C711 0.950 . S
H686 C712 0.950 . S
H687 C714 0.950 . S
H688 C717 0.950 . S
H689 C718 0.950 . S
H690 C720 0.950 . S
H691 C721 0.950 . S
C692 H674 0.951 . S
C692 C693 1.366 . S
C692 C694 1.388 . S
C693 C692 1.366 . S
C693 C697 1.385 . S
C694 H675 0.951 . S
C694 C692 1.388 . S
C694 C695 1.366 . S
C695 C694 1.366 . S
C695 C696 1.414 . S
C695 C698 1.499 . S
C696 H676 0.950 . S
C696 C695 1.414 . S
C696 C697 1.374 . S
C697 H677 0.950 . S
C697 C693 1.385 . S
C697 C696 1.374 . S
C698 C695 1.499 . S
C698 C699 1.373 . S
C698 C700 1.389 . S
C699 H678 0.950 . S
C699 C698 1.373 . S
C699 C715 1.377 . S
C700 C698 1.389 . S
C700 C701 1.524 . S
C700 C714 1.377 . S
C701 C700 1.524 . S
C701 C702 1.397 . S
C701 C706 1.363 . S
C702 H679 0.950 . S
C702 C701 1.397 . S
C702 C703 1.334 . S
C703 H680 0.950 . S
C703 C702 1.334 . S
C703 C704 1.287 . S
C704 C703 1.287 . S
C704 C705 1.524 . S
C704 H723 0.913 . S
C705 H681 0.950 . S
C705 C704 1.524 . S
C705 C706 1.415 . S
C706 H682 0.950 . S
C706 C701 1.363 . S
C706 C705 1.415 . S
C707 H683 0.951 . S
C707 C708 1.366 . S
C707 C709 1.388 . S
C708 C707 1.366 . S
C708 C712 1.385 . S
C709 H684 0.951 . S
C709 C707 1.388 . S
C709 C710 1.366 . S
C710 C709 1.366 . S
C710 C711 1.414 . S
C710 C713 1.499 . S
C711 H685 0.950 . S
C711 C710 1.414 . S
C711 C712 1.374 . S
C712 H686 0.950 . S
C712 C708 1.385 . S
C712 C711 1.374 . S
C713 C710 1.499 . S
C713 C714 1.373 . S
C713 C715 1.389 . S
C714 H687 0.950 . S
C714 C700 1.377 . S
C714 C713 1.373 . S
C715 C699 1.377 . S
C715 C713 1.389 . S
C715 C716 1.524 . S
C716 C715 1.524 . S
C716 C717 1.397 . S
C716 C721 1.363 . S
C717 H688 0.950 . S
C717 C716 1.397 . S
C717 C718 1.334 . S
C718 H689 0.950 . S
C718 C717 1.334 . S
C718 C719 1.287 . S
C719 C718 1.287 . S
C719 C720 1.524 . S
C719 H722 0.999 . S
C720 H690 0.950 . S
C720 C719 1.524 . S
C720 C721 1.415 . S
C721 H691 0.950 . S
C721 C716 1.363 . S
C721 C720 1.415 . S
H722 C719 0.999 . S
H723 C704 0.913 . S
H724 C742 0.951 . S
H725 C744 0.951 . S
H726 C746 0.950 . S
H727 C747 0.950 . S
H728 C749 0.950 . S
H729 C752 0.950 . S
H730 C753 0.950 . S
H731 C755 0.950 . S
H732 C756 0.950 . S
H733 C757 0.951 . S
H734 C759 0.951 . S
H735 C761 0.950 . S
H736 C762 0.950 . S
H737 C764 0.950 . S
H738 C767 0.950 . S
H739 C768 0.950 . S
H740 C770 0.950 . S
H741 C771 0.950 . S
C742 H724 0.951 . S
C742 C743 1.366 . S
C742 C744 1.388 . S
C743 C742 1.366 . S
C743 C747 1.385 . S
C744 H725 0.951 . S
C744 C742 1.388 . S
C744 C745 1.366 . S
C745 C744 1.366 . S
C745 C746 1.414 . S
C745 C748 1.499 . S
C746 H726 0.950 . S
C746 C745 1.414 . S
C746 C747 1.374 . S
C747 H727 0.950 . S
C747 C743 1.385 . S
C747 C746 1.374 . S
C748 C745 1.499 . S
C748 C749 1.373 . S
C748 C750 1.389 . S
C749 H728 0.950 . S
C749 C748 1.373 . S
C749 C765 1.377 . S
C750 C748 1.389 . S
C750 C751 1.524 . S
C750 C764 1.377 . S
C751 C750 1.524 . S
C751 C752 1.397 . S
C751 C756 1.363 . S
C752 H729 0.950 . S
C752 C751 1.397 . S
C752 C753 1.334 . S
C753 H730 0.950 . S
C753 C752 1.334 . S
C753 C754 1.287 . S
C754 C753 1.287 . S
C754 C755 1.524 . S
C754 H773 0.913 . S
C755 H731 0.950 . S
C755 C754 1.524 . S
C755 C756 1.415 . S
C756 H732 0.950 . S
C756 C751 1.363 . S
C756 C755 1.415 . S
C757 H733 0.951 . S
C757 C758 1.366 . S
C757 C759 1.388 . S
C758 C757 1.366 . S
C758 C762 1.385 . S
C759 H734 0.951 . S
C759 C757 1.388 . S
C759 C760 1.366 . S
C760 C759 1.366 . S
C760 C761 1.414 . S
C760 C763 1.499 . S
C761 H735 0.950 . S
C761 C760 1.414 . S
C761 C762 1.374 . S
C762 H736 0.950 . S
C762 C758 1.385 . S
C762 C761 1.374 . S
C763 C760 1.499 . S
C763 C764 1.373 . S
C763 C765 1.389 . S
C764 H737 0.950 . S
C764 C750 1.377 . S
C764 C763 1.373 . S
C765 C749 1.377 . S
C765 C763 1.389 . S
C765 C766 1.524 . S
C766 C765 1.524 . S
C766 C767 1.397 . S
C766 C771 1.363 . S
C767 H738 0.950 . S
C767 C766 1.397 . S
C767 C768 1.334 . S
C768 H739 0.950 . S
C768 C767 1.334 . S
C768 C769 1.287 . S
C769 C768 1.287 . S
C769 C770 1.524 . S
C769 H772 0.999 . S
C770 H740 0.950 . S
C770 C769 1.524 . S
C770 C771 1.415 . S
C771 H741 0.950 . S
C771 C766 1.363 . S
C771 C770 1.415 . S
H772 C769 0.999 . S
H773 C754 0.913 . S
H774 C792 0.951 . S
H775 C794 0.951 . S
H776 C796 0.950 . S
H777 C797 0.950 . S
H778 C799 0.950 . S
H779 C802 0.950 . S
H780 C803 0.950 . S
H781 C805 0.950 . S
H782 C806 0.950 . S
H783 C807 0.951 . S
H784 C809 0.951 . S
H785 C811 0.950 . S
H786 C812 0.950 . S
H787 C814 0.950 . S
H788 C817 0.950 . S
H789 C818 0.950 . S
H790 C820 0.950 . S
H791 C821 0.950 . S
C792 H774 0.951 . S
C792 C793 1.366 . S
C792 C794 1.388 . S
C793 C792 1.366 . S
C793 C797 1.385 . S
C794 H775 0.951 . S
C794 C792 1.388 . S
C794 C795 1.366 . S
C795 C794 1.366 . S
C795 C796 1.414 . S
C795 C798 1.499 . S
C796 H776 0.950 . S
C796 C795 1.414 . S
C796 C797 1.374 . S
C797 H777 0.950 . S
C797 C793 1.385 . S
C797 C796 1.374 . S
C798 C795 1.499 . S
C798 C799 1.373 . S
C798 C800 1.389 . S
C799 H778 0.950 . S
C799 C798 1.373 . S
C799 C815 1.377 . S
C800 C798 1.389 . S
C800 C801 1.524 . S
C800 C814 1.377 . S
C801 C800 1.524 . S
C801 C802 1.397 . S
C801 C806 1.363 . S
C802 H779 0.950 . S
C802 C801 1.397 . S
C802 C803 1.334 . S
C803 H780 0.950 . S
C803 C802 1.334 . S
C803 C804 1.287 . S
C804 C803 1.287 . S
C804 C805 1.524 . S
C804 H823 0.913 . S
C805 H781 0.950 . S
C805 C804 1.524 . S
C805 C806 1.415 . S
C806 H782 0.950 . S
C806 C801 1.363 . S
C806 C805 1.415 . S
C807 H783 0.951 . S
C807 C808 1.366 . S
C807 C809 1.388 . S
C808 C807 1.366 . S
C808 C812 1.385 . S
C809 H784 0.951 . S
C809 C807 1.388 . S
C809 C810 1.366 . S
C810 C809 1.366 . S
C810 C811 1.414 . S
C810 C813 1.499 . S
C811 H785 0.950 . S
C811 C810 1.414 . S
C811 C812 1.374 . S
C812 H786 0.950 . S
C812 C808 1.385 . S
C812 C811 1.374 . S
C813 C810 1.499 . S
C813 C814 1.373 . S
C813 C815 1.389 . S
C814 H787 0.950 . S
C814 C800 1.377 . S
C814 C813 1.373 . S
C815 C799 1.377 . S
C815 C813 1.389 . S
C815 C816 1.524 . S
C816 C815 1.524 . S
C816 C817 1.397 . S
C816 C821 1.363 . S
C817 H788 0.950 . S
C817 C816 1.397 . S
C817 C818 1.334 . S
C818 H789 0.950 . S
C818 C817 1.334 . S
C818 C819 1.287 . S
C819 C818 1.287 . S
C819 C820 1.524 . S
C819 H822 0.999 . S
C820 H790 0.950 . S
C820 C819 1.524 . S
C820 C821 1.415 . S
C821 H791 0.950 . S
C821 C816 1.363 . S
C821 C820 1.415 . S
H822 C819 0.999 . S
H823 C804 0.913 . S
H824 C842 0.951 . S
H825 C844 0.951 . S
H826 C846 0.950 . S
H827 C847 0.950 . S
H828 C849 0.950 . S
H829 C852 0.950 . S
H830 C853 0.950 . S
H831 C855 0.950 . S
H832 C856 0.950 . S
H833 C857 0.951 . S
H834 C859 0.951 . S
H835 C861 0.950 . S
H836 C862 0.950 . S
H837 C864 0.950 . S
H838 C867 0.950 . S
H839 C868 0.950 . S
H840 C870 0.950 . S
H841 C871 0.950 . S
C842 H824 0.951 . S
C842 C843 1.366 . S
C842 C844 1.388 . S
C843 C842 1.366 . S
C843 C847 1.385 . S
C844 H825 0.951 . S
C844 C842 1.388 . S
C844 C845 1.366 . S
C845 C844 1.366 . S
C845 C846 1.414 . S
C845 C848 1.499 . S
C846 H826 0.950 . S
C846 C845 1.414 . S
C846 C847 1.374 . S
C847 H827 0.950 . S
C847 C843 1.385 . S
C847 C846 1.374 . S
C848 C845 1.499 . S
C848 C849 1.373 . S
C848 C850 1.389 . S
C849 H828 0.950 . S
C849 C848 1.373 . S
C849 C865 1.377 . S
C850 C848 1.389 . S
C850 C851 1.524 . S
C850 C864 1.377 . S
C851 C850 1.524 . S
C851 C852 1.397 . S
C851 C856 1.363 . S
C852 H829 0.950 . S
C852 C851 1.397 . S
C852 C853 1.334 . S
C853 H830 0.950 . S
C853 C852 1.334 . S
C853 C854 1.287 . S
C854 C853 1.287 . S
C854 C855 1.524 . S
C854 H873 0.913 . S
C855 H831 0.950 . S
C855 C854 1.524 . S
C855 C856 1.415 . S
C856 H832 0.950 . S
C856 C851 1.363 . S
C856 C855 1.415 . S
C857 H833 0.951 . S
C857 C858 1.366 . S
C857 C859 1.388 . S
C858 C857 1.366 . S
C858 C862 1.385 . S
C859 H834 0.951 . S
C859 C857 1.388 . S
C859 C860 1.366 . S
C860 C859 1.366 . S
C860 C861 1.414 . S
C860 C863 1.499 . S
C861 H835 0.950 . S
C861 C860 1.414 . S
C861 C862 1.374 . S
C862 H836 0.950 . S
C862 C858 1.385 . S
C862 C861 1.374 . S
C863 C860 1.499 . S
C863 C864 1.373 . S
C863 C865 1.389 . S
C864 H837 0.950 . S
C864 C850 1.377 . S
C864 C863 1.373 . S
C865 C849 1.377 . S
C865 C863 1.389 . S
C865 C866 1.524 . S
C866 C865 1.524 . S
C866 C867 1.397 . S
C866 C871 1.363 . S
C867 H838 0.950 . S
C867 C866 1.397 . S
C867 C868 1.334 . S
C868 H839 0.950 . S
C868 C867 1.334 . S
C868 C869 1.287 . S
C869 C868 1.287 . S
C869 C870 1.524 . S
C869 H872 0.999 . S
C870 H840 0.950 . S
C870 C869 1.524 . S
C870 C871 1.415 . S
C871 H841 0.950 . S
C871 C866 1.363 . S
C871 C870 1.415 . S
H872 C869 0.999 . S
H873 C854 0.913 . S
H874 C892 0.951 . S
H875 C894 0.951 . S
H876 C896 0.950 . S
H877 C897 0.950 . S
H878 C899 0.950 . S
H879 C902 0.950 . S
H880 C903 0.950 . S
H881 C905 0.950 . S
H882 C906 0.950 . S
H883 C907 0.951 . S
H884 C909 0.951 . S
H885 C911 0.950 . S
H886 C912 0.950 . S
H887 C914 0.950 . S
H888 C917 0.950 . S
H889 C918 0.950 . S
H890 C920 0.950 . S
H891 C921 0.950 . S
C892 H874 0.951 . S
C892 C893 1.366 . S
C892 C894 1.388 . S
C893 C892 1.366 . S
C893 C897 1.385 . S
C894 H875 0.951 . S
C894 C892 1.388 . S
C894 C895 1.366 . S
C895 C894 1.366 . S
C895 C896 1.414 . S
C895 C898 1.499 . S
C896 H876 0.950 . S
C896 C895 1.414 . S
C896 C897 1.374 . S
C897 H877 0.950 . S
C897 C893 1.385 . S
C897 C896 1.374 . S
C898 C895 1.499 . S
C898 C899 1.373 . S
C898 C900 1.389 . S
C899 H878 0.950 . S
C899 C898 1.373 . S
C899 C915 1.377 . S
C900 C898 1.389 . S
C900 C901 1.524 . S
C900 C914 1.377 . S
C901 C900 1.524 . S
C901 C902 1.397 . S
C901 C906 1.363 . S
C902 H879 0.950 . S
C902 C901 1.397 . S
C902 C903 1.334 . S
C903 H880 0.950 . S
C903 C902 1.334 . S
C903 C904 1.287 . S
C904 C903 1.287 . S
C904 C905 1.524 . S
C904 H923 0.913 . S
C905 H881 0.950 . S
C905 C904 1.524 . S
C905 C906 1.415 . S
C906 H882 0.950 . S
C906 C901 1.363 . S
C906 C905 1.415 . S
C907 H883 0.951 . S
C907 C908 1.366 . S
C907 C909 1.388 . S
C908 C907 1.366 . S
C908 C912 1.385 . S
C909 H884 0.951 . S
C909 C907 1.388 . S
C909 C910 1.366 . S
C910 C909 1.366 . S
C910 C911 1.414 . S
C910 C913 1.499 . S
C911 H885 0.950 . S
C911 C910 1.414 . S
C911 C912 1.374 . S
C912 H886 0.950 . S
C912 C908 1.385 . S
C912 C911 1.374 . S
C913 C910 1.499 . S
C913 C914 1.373 . S
C913 C915 1.389 . S
C914 H887 0.950 . S
C914 C900 1.377 . S
C914 C913 1.373 . S
C915 C899 1.377 . S
C915 C913 1.389 . S
C915 C916 1.524 . S
C916 C915 1.524 . S
C916 C917 1.397 . S
C916 C921 1.363 . S
C917 H888 0.950 . S
C917 C916 1.397 . S
C917 C918 1.334 . S
C918 H889 0.950 . S
C918 C917 1.334 . S
C918 C919 1.287 . S
C919 C918 1.287 . S
C919 C920 1.524 . S
C919 H922 0.999 . S
C920 H890 0.950 . S
C920 C919 1.524 . S
C920 C921 1.415 . S
C921 H891 0.950 . S
C921 C916 1.363 . S
C921 C920 1.415 . S
H922 C919 0.999 . S
H923 C904 0.913 . S
H924 C942 0.951 . S
H925 C944 0.951 . S
H926 C946 0.950 . S
H927 C947 0.950 . S
H928 C949 0.950 . S
H929 C952 0.950 . S
H930 C953 0.950 . S
H931 C955 0.950 . S
H932 C956 0.950 . S
H933 C957 0.951 . S
H934 C959 0.951 . S
H935 C961 0.950 . S
H936 C962 0.950 . S
H937 C964 0.950 . S
H938 C967 0.950 . S
H939 C968 0.950 . S
H940 C970 0.950 . S
H941 C971 0.950 . S
C942 H924 0.951 . S
C942 C943 1.366 . S
C942 C944 1.388 . S
C943 C942 1.366 . S
C943 C947 1.385 . S
C944 H925 0.951 . S
C944 C942 1.388 . S
C944 C945 1.366 . S
C945 C944 1.366 . S
C945 C946 1.414 . S
C945 C948 1.499 . S
C946 H926 0.950 . S
C946 C945 1.414 . S
C946 C947 1.374 . S
C947 H927 0.950 . S
C947 C943 1.385 . S
C947 C946 1.374 . S
C948 C945 1.499 . S
C948 C949 1.373 . S
C948 C950 1.389 . S
C949 H928 0.950 . S
C949 C948 1.373 . S
C949 C965 1.377 . S
C950 C948 1.389 . S
C950 C951 1.524 . S
C950 C964 1.377 . S
C951 C950 1.524 . S
C951 C952 1.397 . S
C951 C956 1.363 . S
C952 H929 0.950 . S
C952 C951 1.397 . S
C952 C953 1.334 . S
C953 H930 0.950 . S
C953 C952 1.334 . S
C953 C954 1.287 . S
C954 C953 1.287 . S
C954 C955 1.524 . S
C954 H973 0.913 . S
C955 H931 0.950 . S
C955 C954 1.524 . S
C955 C956 1.415 . S
C956 H932 0.950 . S
C956 C951 1.363 . S
C956 C955 1.415 . S
C957 H933 0.951 . S
C957 C958 1.366 . S
C957 C959 1.388 . S
C958 C957 1.366 . S
C958 C962 1.385 . S
C959 H934 0.951 . S
C959 C957 1.388 . S
C959 C960 1.366 . S
C960 C959 1.366 . S
C960 C961 1.414 . S
C960 C963 1.499 . S
C961 H935 0.950 . S
C961 C960 1.414 . S
C961 C962 1.374 . S
C962 H936 0.950 . S
C962 C958 1.385 . S
C962 C961 1.374 . S
C963 C960 1.499 . S
C963 C964 1.373 . S
C963 C965 1.389 . S
C964 H937 0.950 . S
C964 C950 1.377 . S
C964 C963 1.373 . S
C965 C949 1.377 . S
C965 C963 1.389 . S
C965 C966 1.524 . S
C966 C965 1.524 . S
C966 C967 1.397 . S
C966 C971 1.363 . S
C967 H938 0.950 . S
C967 C966 1.397 . S
C967 C968 1.334 . S
C968 H939 0.950 . S
C968 C967 1.334 . S
C968 C969 1.287 . S
C969 C968 1.287 . S
C969 C970 1.524 . S
C969 H972 0.999 . S
C970 H940 0.950 . S
C970 C969 1.524 . S
C970 C971 1.415 . S
C971 H941 0.950 . S
C971 C966 1.363 . S
C971 C970 1.415 . S
H972 C969 0.999 . S
H973 C954 0.913 . S
H974 C992 0.951 . S
H975 C994 0.951 . S
H976 C996 0.950 . S
H977 C997 0.950 . S
H978 C999 0.950 . S
H979 C1002 0.950 . S
H980 C1003 0.950 . S
H981 C1005 0.950 . S
H982 C1006 0.950 . S
H983 C1007 0.951 . S
H984 C1009 0.951 . S
H985 C1011 0.950 . S
H986 C1012 0.950 . S
H987 C1014 0.950 . S
H988 C1017 0.950 . S
H989 C1018 0.950 . S
H990 C1020 0.950 . S
H991 C1021 0.950 . S
C992 H974 0.951 . S
C992 C993 1.366 . S
C992 C994 1.388 . S
C993 C992 1.366 . S
C993 C997 1.385 . S
C994 H975 0.951 . S
C994 C992 1.388 . S
C994 C995 1.366 . S
C995 C994 1.366 . S
C995 C996 1.414 . S
C995 C998 1.499 . S
C996 H976 0.950 . S
C996 C995 1.414 . S
C996 C997 1.374 . S
C997 H977 0.950 . S
C997 C993 1.385 . S
C997 C996 1.374 . S
C998 C995 1.499 . S
C998 C999 1.373 . S
C998 C1000 1.389 . S
C999 H978 0.950 . S
C999 C998 1.373 . S
C999 C1015 1.377 . S
C1000 C998 1.389 . S
C1000 C1001 1.524 . S
C1000 C1014 1.377 . S
C1001 C1000 1.524 . S
C1001 C1002 1.397 . S
C1001 C1006 1.363 . S
C1002 H979 0.950 . S
C1002 C1001 1.397 . S
C1002 C1003 1.334 . S
C1003 H980 0.950 . S
C1003 C1002 1.334 . S
C1003 C1004 1.287 . S
C1004 C1003 1.287 . S
C1004 C1005 1.524 . S
C1004 H1023 0.913 . S
C1005 H981 0.950 . S
C1005 C1004 1.524 . S
C1005 C1006 1.415 . S
C1006 H982 0.950 . S
C1006 C1001 1.363 . S
C1006 C1005 1.415 . S
C1007 H983 0.951 . S
C1007 C1008 1.366 . S
C1007 C1009 1.388 . S
C1008 C1007 1.366 . S
C1008 C1012 1.385 . S
C1009 H984 0.951 . S
C1009 C1007 1.388 . S
C1009 C1010 1.366 . S
C1010 C1009 1.366 . S
C1010 C1011 1.414 . S
C1010 C1013 1.499 . S
C1011 H985 0.950 . S
C1011 C1010 1.414 . S
C1011 C1012 1.374 . S
C1012 H986 0.950 . S
C1012 C1008 1.385 . S
C1012 C1011 1.374 . S
C1013 C1010 1.499 . S
C1013 C1014 1.373 . S
C1013 C1015 1.389 . S
C1014 H987 0.950 . S
C1014 C1000 1.377 . S
C1014 C1013 1.373 . S
C1015 C999 1.377 . S
C1015 C1013 1.389 . S
C1015 C1016 1.524 . S
C1016 C1015 1.524 . S
C1016 C1017 1.397 . S
C1016 C1021 1.363 . S
C1017 H988 0.950 . S
C1017 C1016 1.397 . S
C1017 C1018 1.334 . S
C1018 H989 0.950 . S
C1018 C1017 1.334 . S
C1018 C1019 1.287 . S
C1019 C1018 1.287 . S
C1019 C1020 1.524 . S
C1019 H1022 0.999 . S
C1020 H990 0.950 . S
C1020 C1019 1.524 . S
C1020 C1021 1.415 . S
C1021 H991 0.950 . S
C1021 C1016 1.363 . S
C1021 C1020 1.415 . S
H1022 C1019 0.999 . S
H1023 C1004 0.913 . S
H1024 C1042 0.951 . S
H1025 C1044 0.951 . S
H1026 C1046 0.950 1_554 S
H1027 C1047 0.950 . S
H1028 C1049 0.950 . S
H1029 C1052 0.950 . S
H1030 C1053 0.950 . S
H1031 C1055 0.950 . S
H1032 C1056 0.950 . S
H1033 C1057 0.951 . S
H1034 C1059 0.951 . S
H1035 C1061 0.950 1_556 S
H1036 C1062 0.950 . S
H1037 C1064 0.950 . S
H1038 C1067 0.950 . S
H1039 C1068 0.950 . S
H1040 C1070 0.950 . S
H1041 C1071 0.950 . S
C1042 H1024 0.951 . S
C1042 C1043 1.366 . S
C1042 C1044 1.388 . S
C1043 C1042 1.366 . S
C1043 C1047 1.385 . S
C1044 H1025 0.951 . S
C1044 C1042 1.388 . S
C1044 C1045 1.366 . S
C1045 C1044 1.366 . S
C1045 C1046 1.414 . S
C1045 C1048 1.499 . S
C1046 H1026 0.950 1_556 S
C1046 C1045 1.414 . S
C1046 C1047 1.374 . S
C1047 H1027 0.950 . S
C1047 C1043 1.385 . S
C1047 C1046 1.374 . S
C1048 C1045 1.499 . S
C1048 C1049 1.373 1_556 S
C1048 C1050 1.389 . S
C1049 H1028 0.950 . S
C1049 C1048 1.373 1_554 S
C1049 C1065 1.377 . S
C1050 C1048 1.389 . S
C1050 C1051 1.524 . S
C1050 C1064 1.377 . S
C1051 C1050 1.524 . S
C1051 C1052 1.397 . S
C1051 C1056 1.363 . S
C1052 H1029 0.950 . S
C1052 C1051 1.397 . S
C1052 C1053 1.334 . S
C1053 H1030 0.950 . S
C1053 C1052 1.334 . S
C1053 C1054 1.287 . S
C1054 C1053 1.287 . S
C1054 C1055 1.524 . S
C1054 H1073 0.913 . S
C1055 H1031 0.950 . S
C1055 C1054 1.524 . S
C1055 C1056 1.415 . S
C1056 H1032 0.950 . S
C1056 C1051 1.363 . S
C1056 C1055 1.415 . S
C1057 H1033 0.951 . S
C1057 C1058 1.366 . S
C1057 C1059 1.388 . S
C1058 C1057 1.366 . S
C1058 C1062 1.385 . S
C1059 H1034 0.951 . S
C1059 C1057 1.388 . S
C1059 C1060 1.366 . S
C1060 C1059 1.366 . S
C1060 C1061 1.414 . S
C1060 C1063 1.499 . S
C1061 H1035 0.950 1_554 S
C1061 C1060 1.414 . S
C1061 C1062 1.374 . S
C1062 H1036 0.950 . S
C1062 C1058 1.385 . S
C1062 C1061 1.374 . S
C1063 C1060 1.499 . S
C1063 C1064 1.373 1_554 S
C1063 C1065 1.389 . S
C1064 H1037 0.950 . S
C1064 C1050 1.377 . S
C1064 C1063 1.373 1_556 S
C1065 C1049 1.377 . S
C1065 C1063 1.389 . S
C1065 C1066 1.524 . S
C1066 C1065 1.524 . S
C1066 C1067 1.397 . S
C1066 C1071 1.363 . S
C1067 H1038 0.950 . S
C1067 C1066 1.397 . S
C1067 C1068 1.334 . S
C1068 H1039 0.950 . S
C1068 C1067 1.334 . S
C1068 C1069 1.287 . S
C1069 C1068 1.287 . S
C1069 C1070 1.524 . S
C1069 H1072 0.999 . S
C1070 H1040 0.950 . S
C1070 C1069 1.524 . S
C1070 C1071 1.415 . S
C1071 H1041 0.950 . S
C1071 C1066 1.363 . S
C1071 C1070 1.415 . S
H1072 C1069 0.999 . S
H1073 C1054 0.913 . S
H1074 C1092 0.951 . S
H1075 C1094 0.951 . S
H1076 C1096 0.950 . S
H1077 C1097 0.950 . S
H1078 C1099 0.950 . S
H1079 C1102 0.950 . S
H1080 C1103 0.950 . S
H1081 C1105 0.950 . S
H1082 C1106 0.950 . S
H1083 C1107 0.951 . S
H1084 C1109 0.951 . S
H1085 C1111 0.950 . S
H1086 C1112 0.950 . S
H1087 C1114 0.950 . S
H1088 C1117 0.950 . S
H1089 C1118 0.950 . S
H1090 C1120 0.950 . S
H1091 C1121 0.950 . S
C1092 H1074 0.951 . S
C1092 C1093 1.366 . S
C1092 C1094 1.388 . S
C1093 C1092 1.366 . S
C1093 C1097 1.385 . S
C1094 H1075 0.951 . S
C1094 C1092 1.388 . S
C1094 C1095 1.366 . S
C1095 C1094 1.366 . S
C1095 C1096 1.414 . S
C1095 C1098 1.499 . S
C1096 H1076 0.950 . S
C1096 C1095 1.414 . S
C1096 C1097 1.374 . S
C1097 H1077 0.950 . S
C1097 C1093 1.385 . S
C1097 C1096 1.374 . S
C1098 C1095 1.499 . S
C1098 C1099 1.373 . S
C1098 C1100 1.389 . S
C1099 H1078 0.950 . S
C1099 C1098 1.373 . S
C1099 C1115 1.377 . S
C1100 C1098 1.389 . S
C1100 C1101 1.524 . S
C1100 C1114 1.377 . S
C1101 C1100 1.524 . S
C1101 C1102 1.397 . S
C1101 C1106 1.363 . S
C1102 H1079 0.950 . S
C1102 C1101 1.397 . S
C1102 C1103 1.334 . S
C1103 H1080 0.950 . S
C1103 C1102 1.334 . S
C1103 C1104 1.287 . S
C1104 C1103 1.287 . S
C1104 C1105 1.524 . S
C1104 H1123 0.913 . S
C1105 H1081 0.950 . S
C1105 C1104 1.524 . S
C1105 C1106 1.415 . S
C1106 H1082 0.950 . S
C1106 C1101 1.363 . S
C1106 C1105 1.415 . S
C1107 H1083 0.951 . S
C1107 C1108 1.366 . S
C1107 C1109 1.388 . S
C1108 C1107 1.366 . S
C1108 C1112 1.385 . S
C1109 H1084 0.951 . S
C1109 C1107 1.388 . S
C1109 C1110 1.366 . S
C1110 C1109 1.366 . S
C1110 C1111 1.414 . S
C1110 C1113 1.499 . S
C1111 H1085 0.950 . S
C1111 C1110 1.414 . S
C1111 C1112 1.374 . S
C1112 H1086 0.950 . S
C1112 C1108 1.385 . S
C1112 C1111 1.374 . S
C1113 C1110 1.499 . S
C1113 C1114 1.373 . S
C1113 C1115 1.389 . S
C1114 H1087 0.950 . S
C1114 C1100 1.377 . S
C1114 C1113 1.373 . S
C1115 C1099 1.377 . S
C1115 C1113 1.389 . S
C1115 C1116 1.524 . S
C1116 C1115 1.524 . S
C1116 C1117 1.397 . S
C1116 C1121 1.363 . S
C1117 H1088 0.950 . S
C1117 C1116 1.397 . S
C1117 C1118 1.334 . S
C1118 H1089 0.950 . S
C1118 C1117 1.334 . S
C1118 C1119 1.287 . S
C1119 C1118 1.287 . S
C1119 C1120 1.524 . S
C1119 H1122 0.999 . S
C1120 H1090 0.950 . S
C1120 C1119 1.524 . S
C1120 C1121 1.415 . S
C1121 H1091 0.950 . S
C1121 C1116 1.363 . S
C1121 C1120 1.415 . S
H1122 C1119 0.999 . S
H1123 C1104 0.913 . S
H1124 C1142 0.951 . S
H1125 C1144 0.951 . S
H1126 C1146 0.949 1_556 S
H1127 C1147 0.950 . S
H1128 C1149 0.950 . S
H1129 C1152 0.950 . S
H1130 C1153 0.950 . S
H1131 C1155 0.950 . S
H1132 C1156 0.950 . S
H1133 C1157 0.951 . S
H1134 C1159 0.951 . S
H1135 C1161 0.950 1_554 S
H1136 C1162 0.950 . S
H1137 C1164 0.950 1_556 S
H1138 C1167 0.943 1_554 S
H1139 C1168 0.950 . S
H1140 C1170 0.950 . S
H1141 C1171 0.950 . S
C1142 H1124 0.951 . S
C1142 C1143 1.366 . S
C1142 C1144 1.388 . S
C1143 C1142 1.366 . S
C1143 C1147 1.385 . S
C1144 H1125 0.951 . S
C1144 C1142 1.388 . S
C1144 C1145 1.366 . S
C1145 C1144 1.366 . S
C1145 C1146 1.414 . S
C1145 C1148 1.499 . S
C1146 H1126 0.949 1_554 S
C1146 C1145 1.414 . S
C1146 C1147 1.374 . S
C1147 H1127 0.950 . S
C1147 C1143 1.385 . S
C1147 C1146 1.374 . S
C1148 C1145 1.499 . S
C1148 C1149 1.373 . S
C1148 C1150 1.389 . S
C1149 H1128 0.950 . S
C1149 C1148 1.373 . S
C1149 C1165 1.377 1_554 S
C1150 C1148 1.389 . S
C1150 C1151 1.524 . S
C1150 C1164 1.376 . S
C1151 C1150 1.524 . S
C1151 C1152 1.397 . S
C1151 C1156 1.363 . S
C1152 H1129 0.950 . S
C1152 C1151 1.397 . S
C1152 C1153 1.334 . S
C1153 H1130 0.950 . S
C1153 C1152 1.334 . S
C1153 C1154 1.287 . S
C1154 C1153 1.287 . S
C1154 C1155 1.524 . S
C1154 H1173 0.913 . S
C1155 H1131 0.950 . S
C1155 C1154 1.524 . S
C1155 C1156 1.415 . S
C1156 H1132 0.950 . S
C1156 C1151 1.363 . S
C1156 C1155 1.415 . S
C1157 H1133 0.951 . S
C1157 C1158 1.366 . S
C1157 C1159 1.388 . S
C1158 C1157 1.366 . S
C1158 C1162 1.385 . S
C1159 H1134 0.951 . S
C1159 C1157 1.388 . S
C1159 C1160 1.366 . S
C1160 C1159 1.366 . S
C1160 C1161 1.414 . S
C1160 C1163 1.499 . S
C1161 H1135 0.950 1_556 S
C1161 C1160 1.414 . S
C1161 C1162 1.374 . S
C1162 H1136 0.950 . S
C1162 C1158 1.385 . S
C1162 C1161 1.374 . S
C1163 C1160 1.499 . S
C1163 C1164 1.374 1_556 S
C1163 C1165 1.389 . S
C1164 H1137 0.950 1_554 S
C1164 C1150 1.376 . S
C1164 C1163 1.374 1_554 S
C1165 C1149 1.377 1_556 S
C1165 C1163 1.389 . S
C1165 C1166 1.524 . S
C1166 C1165 1.524 . S
C1166 C1167 1.397 . S
C1166 C1171 1.363 . S
C1167 H1138 0.943 1_556 S
C1167 C1166 1.397 . S
C1167 C1168 1.334 . S
C1168 H1139 0.950 . S
C1168 C1167 1.334 . S
C1168 C1169 1.287 . S
C1169 C1168 1.287 . S
C1169 C1170 1.524 . S
C1169 H1172 0.999 . S
C1170 H1140 0.950 . S
C1170 C1169 1.524 . S
C1170 C1171 1.415 . S
C1171 H1141 0.950 . S
C1171 C1166 1.363 . S
C1171 C1170 1.415 . S
H1172 C1169 0.999 . S
H1173 C1154 0.913 . S
H1174 C1192 0.951 . S
H1175 C1194 0.951 . S
H1176 C1196 0.950 . S
H1177 C1197 0.950 . S
H1178 C1199 0.950 . S
H1179 C1202 0.950 . S
H1180 C1203 0.950 . S
H1181 C1205 0.950 . S
H1182 C1206 0.950 . S
H1183 C1207 0.951 . S
H1184 C1209 0.951 . S
H1185 C1211 0.950 . S
H1186 C1212 0.950 . S
H1187 C1214 0.950 . S
H1188 C1217 0.950 . S
H1189 C1218 0.950 . S
H1190 C1220 0.950 . S
H1191 C1221 0.950 . S
C1192 H1174 0.951 . S
C1192 C1193 1.366 . S
C1192 C1194 1.388 . S
C1193 C1192 1.366 . S
C1193 C1197 1.385 . S
C1194 H1175 0.951 . S
C1194 C1192 1.388 . S
C1194 C1195 1.366 . S
C1195 C1194 1.366 . S
C1195 C1196 1.414 . S
C1195 C1198 1.499 . S
C1196 H1176 0.950 . S
C1196 C1195 1.414 . S
C1196 C1197 1.374 . S
C1197 H1177 0.950 . S
C1197 C1193 1.385 . S
C1197 C1196 1.374 . S
C1198 C1195 1.499 . S
C1198 C1199 1.373 . S
C1198 C1200 1.389 . S
C1199 H1178 0.950 . S
C1199 C1198 1.373 . S
C1199 C1215 1.377 . S
C1200 C1198 1.389 . S
C1200 C1201 1.524 . S
C1200 C1214 1.377 . S
C1201 C1200 1.524 . S
C1201 C1202 1.397 . S
C1201 C1206 1.363 . S
C1202 H1179 0.950 . S
C1202 C1201 1.397 . S
C1202 C1203 1.334 . S
C1203 H1180 0.950 . S
C1203 C1202 1.334 . S
C1203 C1204 1.287 . S
C1204 C1203 1.287 . S
C1204 C1205 1.524 . S
C1204 H1223 0.913 . S
C1205 H1181 0.950 . S
C1205 C1204 1.524 . S
C1205 C1206 1.415 . S
C1206 H1182 0.950 . S
C1206 C1201 1.363 . S
C1206 C1205 1.415 . S
C1207 H1183 0.951 . S
C1207 C1208 1.366 . S
C1207 C1209 1.388 . S
C1208 C1207 1.366 . S
C1208 C1212 1.385 . S
C1209 H1184 0.951 . S
C1209 C1207 1.388 . S
C1209 C1210 1.366 . S
C1210 C1209 1.366 . S
C1210 C1211 1.414 . S
C1210 C1213 1.499 . S
C1211 H1185 0.950 . S
C1211 C1210 1.414 . S
C1211 C1212 1.374 . S
C1212 H1186 0.950 . S
C1212 C1208 1.385 . S
C1212 C1211 1.374 . S
C1213 C1210 1.499 . S
C1213 C1214 1.373 . S
C1213 C1215 1.389 . S
C1214 H1187 0.950 . S
C1214 C1200 1.377 . S
C1214 C1213 1.373 . S
C1215 C1199 1.377 . S
C1215 C1213 1.389 . S
C1215 C1216 1.524 . S
C1216 C1215 1.524 . S
C1216 C1217 1.397 . S
C1216 C1221 1.363 . S
C1217 H1188 0.950 . S
C1217 C1216 1.397 . S
C1217 C1218 1.334 . S
C1218 H1189 0.950 . S
C1218 C1217 1.334 . S
C1218 C1219 1.287 . S
C1219 C1218 1.287 . S
C1219 C1220 1.524 . S
C1219 H1222 0.999 . S
C1220 H1190 0.950 . S
C1220 C1219 1.524 . S
C1220 C1221 1.415 . S
C1221 H1191 0.950 . S
C1221 C1216 1.363 . S
C1221 C1220 1.415 . S
H1222 C1219 0.999 . S
H1223 C1204 0.913 . S
H1224 C1242 0.951 . S
H1225 C1244 0.951 . S
H1226 C1246 0.949 . S
H1227 C1247 0.950 . S
H1228 C1249 0.950 . S
H1229 C1252 0.950 1_556 S
H1230 C1253 0.950 . S
H1231 C1255 0.950 . S
H1232 C1256 0.950 . S
H1233 C1257 0.951 . S
H1234 C1259 0.951 . S
H1235 C1261 0.950 . S
H1236 C1262 0.950 . S
H1237 C1264 0.950 . S
H1238 C1267 0.950 1_554 S
H1239 C1268 0.950 . S
H1240 C1270 0.950 . S
H1241 C1271 0.950 . S
C1242 H1224 0.951 . S
C1242 C1243 1.366 . S
C1242 C1244 1.388 . S
C1243 C1242 1.366 . S
C1243 C1247 1.385 . S
C1244 H1225 0.951 . S
C1244 C1242 1.388 . S
C1244 C1245 1.366 . S
C1245 C1244 1.366 . S
C1245 C1246 1.414 . S
C1245 C1248 1.499 . S
C1246 H1226 0.949 . S
C1246 C1245 1.414 . S
C1246 C1247 1.374 . S
C1247 H1227 0.950 . S
C1247 C1243 1.385 . S
C1247 C1246 1.374 . S
C1248 C1245 1.499 . S
C1248 C1249 1.373 . S
C1248 C1250 1.389 . S
C1249 H1228 0.950 . S
C1249 C1248 1.373 . S
C1249 C1265 1.377 1_554 S
C1250 C1248 1.389 . S
C1250 C1251 1.524 . S
C1250 C1264 1.377 1_554 S
C1251 C1250 1.524 . S
C1251 C1252 1.397 . S
C1251 C1256 1.363 . S
C1252 H1229 0.950 1_554 S
C1252 C1251 1.397 . S
C1252 C1253 1.334 . S
C1253 H1230 0.950 . S
C1253 C1252 1.334 . S
C1253 C1254 1.287 . S
C1254 C1253 1.287 . S
C1254 C1255 1.524 . S
C1254 H1273 0.913 . S
C1255 H1231 0.950 . S
C1255 C1254 1.524 . S
C1255 C1256 1.415 . S
C1256 H1232 0.950 . S
C1256 C1251 1.363 . S
C1256 C1255 1.415 . S
C1257 H1233 0.951 . S
C1257 C1258 1.366 . S
C1257 C1259 1.388 . S
C1258 C1257 1.366 . S
C1258 C1262 1.385 . S
C1259 H1234 0.951 . S
C1259 C1257 1.388 . S
C1259 C1260 1.366 . S
C1260 C1259 1.366 . S
C1260 C1261 1.414 . S
C1260 C1263 1.499 . S
C1261 H1235 0.950 . S
C1261 C1260 1.414 . S
C1261 C1262 1.374 . S
C1262 H1236 0.950 . S
C1262 C1258 1.385 . S
C1262 C1261 1.374 . S
C1263 C1260 1.499 . S
C1263 C1264 1.373 . S
C1263 C1265 1.389 . S
C1264 H1237 0.950 . S
C1264 C1250 1.377 1_556 S
C1264 C1263 1.373 . S
C1265 C1249 1.377 1_556 S
C1265 C1263 1.389 . S
C1265 C1266 1.524 . S
C1266 C1265 1.524 . S
C1266 C1267 1.397 . S
C1266 C1271 1.363 . S
C1267 H1238 0.950 1_556 S
C1267 C1266 1.397 . S
C1267 C1268 1.334 . S
C1268 H1239 0.950 . S
C1268 C1267 1.334 . S
C1268 C1269 1.287 . S
C1269 C1268 1.287 . S
C1269 C1270 1.524 . S
C1269 H1272 0.999 . S
C1270 H1240 0.950 . S
C1270 C1269 1.524 . S
C1270 C1271 1.415 . S
C1271 H1241 0.950 . S
C1271 C1266 1.363 . S
C1271 C1270 1.415 . S
H1272 C1269 0.999 . S
H1273 C1254 0.913 . S
H1274 C1292 0.951 . S
H1275 C1294 0.951 . S
H1276 C1296 0.950 . S
H1277 C1297 0.950 . S
H1278 C1299 0.950 . S
H1279 C1302 0.950 . S
H1280 C1303 0.950 . S
H1281 C1305 0.950 . S
H1282 C1306 0.950 . S
H1283 C1307 0.951 . S
H1284 C1309 0.951 . S
H1285 C1311 0.950 . S
H1286 C1312 0.950 . S
H1287 C1314 0.950 . S
H1288 C1317 0.950 . S
H1289 C1318 0.950 . S
H1290 C1320 0.950 . S
H1291 C1321 0.950 . S
C1292 H1274 0.951 . S
C1292 C1293 1.366 . S
C1292 C1294 1.388 . S
C1293 C1292 1.366 . S
C1293 C1297 1.385 . S
C1294 H1275 0.951 . S
C1294 C1292 1.388 . S
C1294 C1295 1.366 . S
C1295 C1294 1.366 . S
C1295 C1296 1.414 . S
C1295 C1298 1.499 . S
C1296 H1276 0.950 . S
C1296 C1295 1.414 . S
C1296 C1297 1.374 . S
C1297 H1277 0.950 . S
C1297 C1293 1.385 . S
C1297 C1296 1.374 . S
C1298 C1295 1.499 . S
C1298 C1299 1.373 . S
C1298 C1300 1.389 . S
C1299 H1278 0.950 . S
C1299 C1298 1.373 . S
C1299 C1315 1.377 . S
C1300 C1298 1.389 . S
C1300 C1301 1.524 . S
C1300 C1314 1.377 . S
C1301 C1300 1.524 . S
C1301 C1302 1.397 . S
C1301 C1306 1.363 . S
C1302 H1279 0.950 . S
C1302 C1301 1.397 . S
C1302 C1303 1.334 . S
C1303 H1280 0.950 . S
C1303 C1302 1.334 . S
C1303 C1304 1.287 . S
C1304 C1303 1.287 . S
C1304 C1305 1.524 . S
C1304 H1323 0.913 . S
C1305 H1281 0.950 . S
C1305 C1304 1.524 . S
C1305 C1306 1.415 . S
C1306 H1282 0.950 . S
C1306 C1301 1.363 . S
C1306 C1305 1.415 . S
C1307 H1283 0.951 . S
C1307 C1308 1.366 . S
C1307 C1309 1.388 . S
C1308 C1307 1.366 . S
C1308 C1312 1.385 . S
C1309 H1284 0.951 . S
C1309 C1307 1.388 . S
C1309 C1310 1.366 . S
C1310 C1309 1.366 . S
C1310 C1311 1.414 . S
C1310 C1313 1.499 . S
C1311 H1285 0.950 . S
C1311 C1310 1.414 . S
C1311 C1312 1.374 . S
C1312 H1286 0.950 . S
C1312 C1308 1.385 . S
C1312 C1311 1.374 . S
C1313 C1310 1.499 . S
C1313 C1314 1.373 . S
C1313 C1315 1.389 . S
C1314 H1287 0.950 . S
C1314 C1300 1.377 . S
C1314 C1313 1.373 . S
C1315 C1299 1.377 . S
C1315 C1313 1.389 . S
C1315 C1316 1.524 . S
C1316 C1315 1.524 . S
C1316 C1317 1.397 . S
C1316 C1321 1.363 . S
C1317 H1288 0.950 . S
C1317 C1316 1.397 . S
C1317 C1318 1.334 . S
C1318 H1289 0.950 . S
C1318 C1317 1.334 . S
C1318 C1319 1.287 . S
C1319 C1318 1.287 . S
C1319 C1320 1.524 . S
C1319 H1322 0.999 . S
C1320 H1290 0.950 . S
C1320 C1319 1.524 . S
C1320 C1321 1.415 . S
C1321 H1291 0.950 . S
C1321 C1316 1.363 . S
C1321 C1320 1.415 . S
H1322 C1319 0.999 . S
H1323 C1304 0.913 . S
H1324 C1342 0.951 . S
H1325 C1344 0.951 . S
H1326 C1346 0.950 . S
H1327 C1347 0.950 . S
H1328 C1349 0.950 . S
H1329 C1352 0.950 . S
H1330 C1353 0.950 . S
H1331 C1355 0.950 . S
H1332 C1356 0.950 . S
H1333 C1357 0.951 . S
H1334 C1359 0.951 . S
H1335 C1361 0.950 1_554 S
H1336 C1362 0.950 . S
H1337 C1364 0.950 . S
H1338 C1367 0.950 . S
H1339 C1368 0.950 . S
H1340 C1370 0.950 . S
H1341 C1371 0.950 . S
C1342 H1324 0.951 . S
C1342 C1343 1.366 . S
C1342 C1344 1.388 . S
C1343 C1342 1.366 . S
C1343 C1347 1.385 . S
C1344 H1325 0.951 . S
C1344 C1342 1.388 . S
C1344 C1345 1.366 . S
C1345 C1344 1.366 . S
C1345 C1346 1.414 . S
C1345 C1348 1.499 . S
C1346 H1326 0.950 . S
C1346 C1345 1.414 . S
C1346 C1347 1.374 . S
C1347 H1327 0.950 . S
C1347 C1343 1.385 . S
C1347 C1346 1.374 . S
C1348 C1345 1.499 . S
C1348 C1349 1.373 1_554 S
C1348 C1350 1.389 . S
C1349 H1328 0.950 . S
C1349 C1348 1.373 1_556 S
C1349 C1365 1.377 . S
C1350 C1348 1.389 . S
C1350 C1351 1.524 . S
C1350 C1364 1.377 . S
C1351 C1350 1.524 . S
C1351 C1352 1.397 . S
C1351 C1356 1.363 . S
C1352 H1329 0.950 . S
C1352 C1351 1.397 . S
C1352 C1353 1.334 . S
C1353 H1330 0.950 . S
C1353 C1352 1.334 . S
C1353 C1354 1.287 . S
C1354 C1353 1.287 . S
C1354 C1355 1.524 . S
C1354 H1373 0.913 . S
C1355 H1331 0.950 . S
C1355 C1354 1.524 . S
C1355 C1356 1.415 . S
C1356 H1332 0.950 . S
C1356 C1351 1.363 . S
C1356 C1355 1.415 . S
C1357 H1333 0.951 . S
C1357 C1358 1.366 . S
C1357 C1359 1.388 . S
C1358 C1357 1.366 . S
C1358 C1362 1.385 . S
C1359 H1334 0.951 . S
C1359 C1357 1.388 . S
C1359 C1360 1.366 . S
C1360 C1359 1.366 . S
C1360 C1361 1.414 . S
C1360 C1363 1.499 . S
C1361 H1335 0.950 1_556 S
C1361 C1360 1.414 . S
C1361 C1362 1.374 . S
C1362 H1336 0.950 . S
C1362 C1358 1.385 . S
C1362 C1361 1.374 . S
C1363 C1360 1.499 . S
C1363 C1364 1.373 1_556 S
C1363 C1365 1.389 . S
C1364 H1337 0.950 . S
C1364 C1350 1.377 . S
C1364 C1363 1.373 1_554 S
C1365 C1349 1.377 . S
C1365 C1363 1.389 . S
C1365 C1366 1.524 . S
C1366 C1365 1.524 . S
C1366 C1367 1.397 . S
C1366 C1371 1.363 . S
C1367 H1338 0.950 . S
C1367 C1366 1.397 . S
C1367 C1368 1.334 . S
C1368 H1339 0.950 . S
C1368 C1367 1.334 . S
C1368 C1369 1.287 . S
C1369 C1368 1.287 . S
C1369 C1370 1.524 . S
C1369 H1372 0.999 . S
C1370 H1340 0.950 . S
C1370 C1369 1.524 . S
C1370 C1371 1.415 . S
C1371 H1341 0.950 . S
C1371 C1366 1.363 . S
C1371 C1370 1.415 . S
H1372 C1369 0.999 . S
H1373 C1354 0.913 . S
H1374 C1392 0.951 . S
H1375 C1394 0.951 . S
H1376 C1396 0.950 . S
H1377 C1397 0.950 . S
H1378 C1399 0.950 . S
H1379 C1402 0.950 . S
H1380 C1403 0.950 . S
H1381 C1405 0.950 . S
H1382 C1406 0.950 . S
H1383 C1407 0.951 . S
H1384 C1409 0.951 . S
H1385 C1411 0.950 . S
H1386 C1412 0.950 . S
H1387 C1414 0.950 . S
H1388 C1417 0.950 . S
H1389 C1418 0.950 . S
H1390 C1420 0.950 . S
H1391 C1421 0.950 . S
C1392 H1374 0.951 . S
C1392 C1393 1.366 . S
C1392 C1394 1.388 . S
C1393 C1392 1.366 . S
C1393 C1397 1.385 . S
C1394 H1375 0.951 . S
C1394 C1392 1.388 . S
C1394 C1395 1.366 . S
C1395 C1394 1.366 . S
C1395 C1396 1.414 . S
C1395 C1398 1.499 . S
C1396 H1376 0.950 . S
C1396 C1395 1.414 . S
C1396 C1397 1.374 . S
C1397 H1377 0.950 . S
C1397 C1393 1.385 . S
C1397 C1396 1.374 . S
C1398 C1395 1.499 . S
C1398 C1399 1.373 . S
C1398 C1400 1.389 . S
C1399 H1378 0.950 . S
C1399 C1398 1.373 . S
C1399 C1415 1.377 . S
C1400 C1398 1.389 . S
C1400 C1401 1.524 . S
C1400 C1414 1.377 . S
C1401 C1400 1.524 . S
C1401 C1402 1.397 . S
C1401 C1406 1.363 . S
C1402 H1379 0.950 . S
C1402 C1401 1.397 . S
C1402 C1403 1.334 . S
C1403 H1380 0.950 . S
C1403 C1402 1.334 . S
C1403 C1404 1.287 . S
C1404 C1403 1.287 . S
C1404 C1405 1.524 . S
C1404 H1423 0.913 . S
C1405 H1381 0.950 . S
C1405 C1404 1.524 . S
C1405 C1406 1.415 . S
C1406 H1382 0.950 . S
C1406 C1401 1.363 . S
C1406 C1405 1.415 . S
C1407 H1383 0.951 . S
C1407 C1408 1.366 . S
C1407 C1409 1.388 . S
C1408 C1407 1.366 . S
C1408 C1412 1.385 . S
C1409 H1384 0.951 . S
C1409 C1407 1.388 . S
C1409 C1410 1.366 . S
C1410 C1409 1.366 . S
C1410 C1411 1.414 . S
C1410 C1413 1.499 . S
C1411 H1385 0.950 . S
C1411 C1410 1.414 . S
C1411 C1412 1.374 . S
C1412 H1386 0.950 . S
C1412 C1408 1.385 . S
C1412 C1411 1.374 . S
C1413 C1410 1.499 . S
C1413 C1414 1.373 . S
C1413 C1415 1.389 . S
C1414 H1387 0.950 . S
C1414 C1400 1.377 . S
C1414 C1413 1.373 . S
C1415 C1399 1.377 . S
C1415 C1413 1.389 . S
C1415 C1416 1.524 . S
C1416 C1415 1.524 . S
C1416 C1417 1.397 . S
C1416 C1421 1.363 . S
C1417 H1388 0.950 . S
C1417 C1416 1.397 . S
C1417 C1418 1.334 . S
C1418 H1389 0.950 . S
C1418 C1417 1.334 . S
C1418 C1419 1.287 . S
C1419 C1418 1.287 . S
C1419 C1420 1.524 . S
C1419 H1422 0.999 . S
C1420 H1390 0.950 . S
C1420 C1419 1.524 . S
C1420 C1421 1.415 . S
C1421 H1391 0.950 . S
C1421 C1416 1.363 . S
C1421 C1420 1.415 . S
H1422 C1419 0.999 . S
H1423 C1404 0.913 . S
H1424 C1442 0.951 . S
H1425 C1444 0.907 1_554 S
H1426 C1446 0.950 . S
H1427 C1447 0.950 . S
H1428 C1449 0.950 . S
H1429 C1452 0.950 . S
H1430 C1453 0.950 . S
H1431 C1455 0.950 . S
H1432 C1456 0.950 . S
H1433 C1457 0.951 . S
H1434 C1459 0.907 1_556 S
H1435 C1461 0.950 . S
H1436 C1462 0.950 . S
H1437 C1464 0.950 . S
H1438 C1467 0.950 . S
H1439 C1468 0.950 . S
H1440 C1470 0.950 . S
H1441 C1471 0.950 . S
C1442 H1424 0.951 . S
C1442 C1443 1.366 . S
C1442 C1444 1.388 . S
C1443 C1442 1.366 . S
C1443 C1447 1.385 . S
C1444 H1425 0.907 1_556 S
C1444 C1442 1.388 . S
C1444 C1445 1.366 . S
C1445 C1444 1.366 . S
C1445 C1446 1.414 . S
C1445 C1448 1.499 . S
C1446 H1426 0.950 . S
C1446 C1445 1.414 . S
C1446 C1447 1.374 . S
C1447 H1427 0.950 . S
C1447 C1443 1.385 . S
C1447 C1446 1.374 . S
C1448 C1445 1.499 . S
C1448 C1449 1.373 . S
C1448 C1450 1.398 . S
C1449 H1428 0.950 . S
C1449 C1448 1.373 . S
C1449 C1465 1.368 1_556 S
C1450 C1448 1.398 . S
C1450 C1451 1.525 . S
C1450 C1464 1.368 1_556 S
C1451 C1450 1.525 . S
C1451 C1452 1.397 . S
C1451 C1456 1.363 1_556 S
C1452 H1429 0.950 . S
C1452 C1451 1.397 . S
C1452 C1453 1.334 . S
C1453 H1430 0.950 . S
C1453 C1452 1.334 . S
C1453 C1454 1.287 . S
C1454 C1453 1.287 . S
C1454 C1455 1.524 1_556 S
C1454 H1473 0.913 . S
C1455 H1431 0.950 . S
C1455 C1454 1.524 1_554 S
C1455 C1456 1.415 . S
C1456 H1432 0.950 . S
C1456 C1451 1.363 1_554 S
C1456 C1455 1.415 . S
C1457 H1433 0.951 . S
C1457 C1458 1.366 . S
C1457 C1459 1.388 . S
C1458 C1457 1.366 . S
C1458 C1462 1.385 . S
C1459 H1434 0.907 1_554 S
C1459 C1457 1.388 . S
C1459 C1460 1.366 . S
C1460 C1459 1.366 . S
C1460 C1461 1.414 . S
C1460 C1463 1.499 . S
C1461 H1435 0.950 . S
C1461 C1460 1.414 . S
C1461 C1462 1.374 . S
C1462 H1436 0.950 . S
C1462 C1458 1.385 . S
C1462 C1461 1.374 . S
C1463 C1460 1.499 . S
C1463 C1464 1.373 . S
C1463 C1465 1.398 . S
C1464 H1437 0.950 . S
C1464 C1450 1.368 1_554 S
C1464 C1463 1.373 . S
C1465 C1449 1.368 1_554 S
C1465 C1463 1.398 . S
C1465 C1466 1.525 . S
C1466 C1465 1.525 . S
C1466 C1467 1.397 . S
C1466 C1471 1.363 1_554 S
C1467 H1438 0.950 . S
C1467 C1466 1.397 . S
C1467 C1468 1.334 . S
C1468 H1439 0.950 . S
C1468 C1467 1.334 . S
C1468 C1469 1.287 . S
C1469 C1468 1.287 . S
C1469 C1470 1.524 1_554 S
C1469 H1472 0.999 . S
C1470 H1440 0.950 . S
C1470 C1469 1.524 1_556 S
C1470 C1471 1.415 . S
C1471 H1441 0.950 . S
C1471 C1466 1.363 1_556 S
C1471 C1470 1.415 . S
H1472 C1469 0.999 . S
H1473 C1454 0.913 . S
H1474 C1492 0.951 . S
H1475 C1494 0.951 . S
H1476 C1496 0.950 . S
H1477 C1497 0.950 . S
H1478 C1499 0.950 . S
H1479 C1502 0.950 . S
H1480 C1503 0.950 . S
H1481 C1505 0.950 . S
H1482 C1506 0.950 . S
H1483 C1507 0.951 . S
H1484 C1509 0.951 . S
H1485 C1511 0.950 . S
H1486 C1512 0.950 . S
H1487 C1514 0.950 . S
H1488 C1517 0.950 . S
H1489 C1518 0.950 . S
H1490 C1520 0.950 . S
H1491 C1521 0.950 . S
C1492 H1474 0.951 . S
C1492 C1493 1.366 . S
C1492 C1494 1.388 . S
C1493 C1492 1.366 . S
C1493 C1497 1.385 . S
C1494 H1475 0.951 . S
C1494 C1492 1.388 . S
C1494 C1495 1.366 . S
C1495 C1494 1.366 . S
C1495 C1496 1.414 . S
C1495 C1498 1.499 . S
C1496 H1476 0.950 . S
C1496 C1495 1.414 . S
C1496 C1497 1.374 . S
C1497 H1477 0.950 . S
C1497 C1493 1.385 . S
C1497 C1496 1.374 . S
C1498 C1495 1.499 . S
C1498 C1499 1.373 . S
C1498 C1500 1.389 . S
C1499 H1478 0.950 . S
C1499 C1498 1.373 . S
C1499 C1515 1.377 . S
C1500 C1498 1.389 . S
C1500 C1501 1.524 . S
C1500 C1514 1.377 . S
C1501 C1500 1.524 . S
C1501 C1502 1.397 . S
C1501 C1506 1.363 . S
C1502 H1479 0.950 . S
C1502 C1501 1.397 . S
C1502 C1503 1.334 . S
C1503 H1480 0.950 . S
C1503 C1502 1.334 . S
C1503 C1504 1.287 . S
C1504 C1503 1.287 . S
C1504 C1505 1.524 . S
C1504 H1523 0.913 . S
C1505 H1481 0.950 . S
C1505 C1504 1.524 . S
C1505 C1506 1.415 . S
C1506 H1482 0.950 . S
C1506 C1501 1.363 . S
C1506 C1505 1.415 . S
C1507 H1483 0.951 . S
C1507 C1508 1.366 . S
C1507 C1509 1.388 . S
C1508 C1507 1.366 . S
C1508 C1512 1.385 . S
C1509 H1484 0.951 . S
C1509 C1507 1.388 . S
C1509 C1510 1.366 . S
C1510 C1509 1.366 . S
C1510 C1511 1.414 . S
C1510 C1513 1.499 . S
C1511 H1485 0.950 . S
C1511 C1510 1.414 . S
C1511 C1512 1.374 . S
C1512 H1486 0.950 . S
C1512 C1508 1.385 . S
C1512 C1511 1.374 . S
C1513 C1510 1.499 . S
C1513 C1514 1.373 . S
C1513 C1515 1.389 . S
C1514 H1487 0.950 . S
C1514 C1500 1.377 . S
C1514 C1513 1.373 . S
C1515 C1499 1.377 . S
C1515 C1513 1.389 . S
C1515 C1516 1.524 . S
C1516 C1515 1.524 . S
C1516 C1517 1.397 . S
C1516 C1521 1.363 . S
C1517 H1488 0.950 . S
C1517 C1516 1.397 . S
C1517 C1518 1.334 . S
C1518 H1489 0.950 . S
C1518 C1517 1.334 . S
C1518 C1519 1.287 . S
C1519 C1518 1.287 . S
C1519 C1520 1.524 . S
C1519 H1522 0.999 . S
C1520 H1490 0.950 . S
C1520 C1519 1.524 . S
C1520 C1521 1.415 . S
C1521 H1491 0.950 . S
C1521 C1516 1.363 . S
C1521 C1520 1.415 . S
H1522 C1519 0.999 . S
H1523 C1504 0.913 . S
H1524 C1542 0.951 . S
H1525 C1544 0.951 . S
H1526 C1546 0.950 . S
H1527 C1547 0.950 . S
H1528 C1549 0.950 . S
H1529 C1552 0.950 . S
H1530 C1553 0.950 . S
H1531 C1555 0.950 . S
H1532 C1556 0.950 1_556 S
H1533 C1557 0.951 . S
H1534 C1559 0.951 . S
H1535 C1561 0.950 . S
H1536 C1562 0.950 . S
H1537 C1564 0.950 . S
H1538 C1567 0.950 . S
H1539 C1568 0.950 . S
H1540 C1570 0.950 . S
H1541 C1571 0.950 1_554 S
C1542 H1524 0.951 . S
C1542 C1543 1.366 . S
C1542 C1544 1.388 . S
C1543 C1542 1.366 . S
C1543 C1547 1.385 . S
C1544 H1525 0.951 . S
C1544 C1542 1.388 . S
C1544 C1545 1.366 . S
C1545 C1544 1.366 . S
C1545 C1546 1.414 . S
C1545 C1548 1.499 . S
C1546 H1526 0.950 . S
C1546 C1545 1.414 . S
C1546 C1547 1.374 . S
C1547 H1527 0.950 . S
C1547 C1543 1.385 . S
C1547 C1546 1.374 . S
C1548 C1545 1.499 . S
C1548 C1549 1.373 . S
C1548 C1550 1.389 . S
C1549 H1528 0.950 . S
C1549 C1548 1.373 . S
C1549 C1565 1.377 1_554 S
C1550 C1548 1.389 . S
C1550 C1551 1.524 . S
C1550 C1564 1.377 1_554 S
C1551 C1550 1.524 . S
C1551 C1552 1.397 . S
C1551 C1556 1.363 . S
C1552 H1529 0.950 . S
C1552 C1551 1.397 . S
C1552 C1553 1.334 . S
C1553 H1530 0.950 . S
C1553 C1552 1.334 . S
C1553 C1554 1.287 . S
C1554 C1553 1.287 . S
C1554 C1555 1.524 . S
C1554 H1573 0.913 . S
C1555 H1531 0.950 . S
C1555 C1554 1.524 . S
C1555 C1556 1.415 . S
C1556 H1532 0.950 1_554 S
C1556 C1551 1.363 . S
C1556 C1555 1.415 . S
C1557 H1533 0.951 . S
C1557 C1558 1.366 . S
C1557 C1559 1.388 . S
C1558 C1557 1.366 . S
C1558 C1562 1.385 . S
C1559 H1534 0.951 . S
C1559 C1557 1.388 . S
C1559 C1560 1.366 . S
C1560 C1559 1.366 . S
C1560 C1561 1.414 . S
C1560 C1563 1.499 . S
C1561 H1535 0.950 . S
C1561 C1560 1.414 . S
C1561 C1562 1.374 . S
C1562 H1536 0.950 . S
C1562 C1558 1.385 . S
C1562 C1561 1.374 . S
C1563 C1560 1.499 . S
C1563 C1564 1.373 . S
C1563 C1565 1.389 . S
C1564 H1537 0.950 . S
C1564 C1550 1.377 1_556 S
C1564 C1563 1.373 . S
C1565 C1549 1.377 1_556 S
C1565 C1563 1.389 . S
C1565 C1566 1.524 . S
C1566 C1565 1.524 . S
C1566 C1567 1.397 . S
C1566 C1571 1.363 . S
C1567 H1538 0.950 . S
C1567 C1566 1.397 . S
C1567 C1568 1.334 . S
C1568 H1539 0.950 . S
C1568 C1567 1.334 . S
C1568 C1569 1.287 . S
C1569 C1568 1.287 . S
C1569 C1570 1.524 . S
C1569 H1572 0.999 . S
C1570 H1540 0.950 . S
C1570 C1569 1.524 . S
C1570 C1571 1.415 . S
C1571 H1541 0.950 1_556 S
C1571 C1566 1.363 . S
C1571 C1570 1.415 . S
H1572 C1569 0.999 . S
H1573 C1554 0.913 . S
H1574 C1592 0.951 . S
H1575 C1594 0.951 . S
H1576 C1596 0.950 . S
H1577 C1597 0.950 . S
H1578 C1599 0.950 . S
H1579 C1602 0.950 . S
H1580 C1603 0.950 . S
H1581 C1605 0.950 . S
H1582 C1606 0.950 . S
H1583 C1607 0.951 . S
H1584 C1609 0.951 . S
H1585 C1611 0.950 . S
H1586 C1612 0.950 . S
H1587 C1614 0.950 . S
H1588 C1617 0.950 . S
H1589 C1618 0.950 . S
H1590 C1620 0.950 . S
H1591 C1621 0.950 . S
C1592 H1574 0.951 . S
C1592 C1593 1.366 . S
C1592 C1594 1.388 . S
C1593 C1592 1.366 . S
C1593 C1597 1.385 . S
C1594 H1575 0.951 . S
C1594 C1592 1.388 . S
C1594 C1595 1.366 . S
C1595 C1594 1.366 . S
C1595 C1596 1.414 . S
C1595 C1598 1.499 . S
C1596 H1576 0.950 . S
C1596 C1595 1.414 . S
C1596 C1597 1.374 . S
C1597 H1577 0.950 . S
C1597 C1593 1.385 . S
C1597 C1596 1.374 . S
C1598 C1595 1.499 . S
C1598 C1599 1.373 . S
C1598 C1600 1.389 . S
C1599 H1578 0.950 . S
C1599 C1598 1.373 . S
C1599 C1615 1.377 . S
C1600 C1598 1.389 . S
C1600 C1601 1.524 . S
C1600 C1614 1.377 . S
C1601 C1600 1.524 . S
C1601 C1602 1.397 . S
C1601 C1606 1.363 . S
C1602 H1579 0.950 . S
C1602 C1601 1.397 . S
C1602 C1603 1.334 . S
C1603 H1580 0.950 . S
C1603 C1602 1.334 . S
C1603 C1604 1.287 . S
C1604 C1603 1.287 . S
C1604 C1605 1.524 . S
C1604 H1623 0.913 . S
C1605 H1581 0.950 . S
C1605 C1604 1.524 . S
C1605 C1606 1.415 . S
C1606 H1582 0.950 . S
C1606 C1601 1.363 . S
C1606 C1605 1.415 . S
C1607 H1583 0.951 . S
C1607 C1608 1.366 . S
C1607 C1609 1.388 . S
C1608 C1607 1.366 . S
C1608 C1612 1.385 . S
C1609 H1584 0.951 . S
C1609 C1607 1.388 . S
C1609 C1610 1.366 . S
C1610 C1609 1.366 . S
C1610 C1611 1.414 . S
C1610 C1613 1.499 . S
C1611 H1585 0.950 . S
C1611 C1610 1.414 . S
C1611 C1612 1.374 . S
C1612 H1586 0.950 . S
C1612 C1608 1.385 . S
C1612 C1611 1.374 . S
C1613 C1610 1.499 . S
C1613 C1614 1.373 . S
C1613 C1615 1.389 . S
C1614 H1587 0.950 . S
C1614 C1600 1.377 . S
C1614 C1613 1.373 . S
C1615 C1599 1.377 . S
C1615 C1613 1.389 . S
C1615 C1616 1.524 . S
C1616 C1615 1.524 . S
C1616 C1617 1.397 . S
C1616 C1621 1.363 . S
C1617 H1588 0.950 . S
C1617 C1616 1.397 . S
C1617 C1618 1.334 . S
C1618 H1589 0.950 . S
C1618 C1617 1.334 . S
C1618 C1619 1.287 . S
C1619 C1618 1.287 . S
C1619 C1620 1.524 . S
C1619 H1622 0.999 . S
C1620 H1590 0.950 . S
C1620 C1619 1.524 . S
C1620 C1621 1.415 . S
C1621 H1591 0.950 . S
C1621 C1616 1.363 . S
C1621 C1620 1.415 . S
H1622 C1619 0.999 . S
H1623 C1604 0.913 . S
H1624 C1642 0.951 . S
H1625 C1644 0.951 . S
H1626 C1646 0.950 . S
H1627 C1647 0.950 . S
H1628 C1649 0.950 . S
H1629 C1652 0.950 . S
H1630 C1653 0.950 . S
H1631 C1655 0.950 1_554 S
H1632 C1656 0.950 . S
H1633 C1657 0.951 . S
H1634 C1659 0.951 . S
H1635 C1661 0.950 . S
H1636 C1662 0.950 . S
H1637 C1664 0.950 . S
H1638 C1667 0.950 . S
H1639 C1668 0.950 . S
H1640 C1670 0.950 1_556 S
H1641 C1671 0.950 . S
C1642 H1624 0.951 . S
C1642 C1643 1.366 . S
C1642 C1644 1.388 . S
C1643 C1642 1.366 . S
C1643 C1647 1.385 . S
C1644 H1625 0.951 . S
C1644 C1642 1.388 . S
C1644 C1645 1.366 . S
C1645 C1644 1.366 . S
C1645 C1646 1.414 . S
C1645 C1648 1.499 . S
C1646 H1626 0.950 . S
C1646 C1645 1.414 . S
C1646 C1647 1.374 . S
C1647 H1627 0.950 . S
C1647 C1643 1.385 . S
C1647 C1646 1.374 . S
C1648 C1645 1.499 . S
C1648 C1649 1.373 . S
C1648 C1650 1.389 . S
C1649 H1628 0.950 . S
C1649 C1648 1.373 . S
C1649 C1665 1.377 1_546 S
C1650 C1648 1.389 . S
C1650 C1651 1.524 . S
C1650 C1664 1.377 1_546 S
C1651 C1650 1.524 . S
C1651 C1652 1.397 . S
C1651 C1656 1.363 1_556 S
C1652 H1629 0.950 . S
C1652 C1651 1.397 . S
C1652 C1653 1.334 . S
C1653 H1630 0.950 . S
C1653 C1652 1.334 . S
C1653 C1654 1.287 . S
C1654 C1653 1.287 . S
C1654 C1655 1.524 . S
C1654 H1673 0.913 . S
C1655 H1631 0.950 1_556 S
C1655 C1654 1.524 . S
C1655 C1656 1.415 1_556 S
C1656 H1632 0.950 . S
C1656 C1651 1.363 1_554 S
C1656 C1655 1.415 1_554 S
C1657 H1633 0.951 . S
C1657 C1658 1.366 . S
C1657 C1659 1.388 . S
C1658 C1657 1.366 . S
C1658 C1662 1.385 . S
C1659 H1634 0.951 . S
C1659 C1657 1.388 . S
C1659 C1660 1.366 . S
C1660 C1659 1.366 . S
C1660 C1661 1.414 . S
C1660 C1663 1.499 . S
C1661 H1635 0.950 . S
C1661 C1660 1.414 . S
C1661 C1662 1.374 . S
C1662 H1636 0.950 . S
C1662 C1658 1.385 . S
C1662 C1661 1.374 . S
C1663 C1660 1.499 . S
C1663 C1664 1.373 . S
C1663 C1665 1.389 . S
C1664 H1637 0.950 . S
C1664 C1650 1.377 1_564 S
C1664 C1663 1.373 . S
C1665 C1649 1.377 1_564 S
C1665 C1663 1.389 . S
C1665 C1666 1.524 . S
C1666 C1665 1.524 . S
C1666 C1667 1.397 . S
C1666 C1671 1.363 1_554 S
C1667 H1638 0.950 . S
C1667 C1666 1.397 . S
C1667 C1668 1.334 . S
C1668 H1639 0.950 . S
C1668 C1667 1.334 . S
C1668 C1669 1.287 . S
C1669 C1668 1.287 . S
C1669 C1670 1.524 . S
C1669 H1672 0.999 . S
C1670 H1640 0.950 1_554 S
C1670 C1669 1.524 . S
C1670 C1671 1.415 1_554 S
C1671 H1641 0.950 . S
C1671 C1666 1.363 1_556 S
C1671 C1670 1.415 1_556 S
H1672 C1669 0.999 . S
H1673 C1654 0.913 . S
H1674 C1692 0.951 . S
H1675 C1694 0.951 . S
H1676 C1696 0.950 . S
H1677 C1697 0.950 . S
H1678 C1699 0.950 . S
H1679 C1702 0.950 . S
H1680 C1703 0.950 . S
H1681 C1705 0.950 . S
H1682 C1706 0.950 . S
H1683 C1707 0.951 . S
H1684 C1709 0.951 . S
H1685 C1711 0.950 . S
H1686 C1712 0.950 . S
H1687 C1714 0.950 . S
H1688 C1717 0.950 . S
H1689 C1718 0.950 . S
H1690 C1720 0.950 . S
H1691 C1721 0.950 . S
C1692 H1674 0.951 . S
C1692 C1693 1.366 . S
C1692 C1694 1.388 . S
C1693 C1692 1.366 . S
C1693 C1697 1.385 . S
C1694 H1675 0.951 . S
C1694 C1692 1.388 . S
C1694 C1695 1.366 . S
C1695 C1694 1.366 . S
C1695 C1696 1.414 . S
C1695 C1698 1.499 . S
C1696 H1676 0.950 . S
C1696 C1695 1.414 . S
C1696 C1697 1.374 . S
C1697 H1677 0.950 . S
C1697 C1693 1.385 . S
C1697 C1696 1.374 . S
C1698 C1695 1.499 . S
C1698 C1699 1.373 . S
C1698 C1700 1.389 . S
C1699 H1678 0.950 . S
C1699 C1698 1.373 . S
C1699 C1715 1.377 1_565 S
C1700 C1698 1.389 . S
C1700 C1701 1.524 . S
C1700 C1714 1.377 1_565 S
C1701 C1700 1.524 . S
C1701 C1702 1.397 . S
C1701 C1706 1.363 . S
C1702 H1679 0.950 . S
C1702 C1701 1.397 . S
C1702 C1703 1.334 . S
C1703 H1680 0.950 . S
C1703 C1702 1.334 . S
C1703 C1704 1.287 . S
C1704 C1703 1.287 . S
C1704 C1705 1.524 . S
C1704 H1723 0.913 . S
C1705 H1681 0.950 . S
C1705 C1704 1.524 . S
C1705 C1706 1.415 . S
C1706 H1682 0.950 . S
C1706 C1701 1.363 . S
C1706 C1705 1.415 . S
C1707 H1683 0.951 . S
C1707 C1708 1.366 . S
C1707 C1709 1.388 . S
C1708 C1707 1.366 . S
C1708 C1712 1.385 . S
C1709 H1684 0.951 . S
C1709 C1707 1.388 . S
C1709 C1710 1.366 . S
C1710 C1709 1.366 . S
C1710 C1711 1.414 . S
C1710 C1713 1.499 . S
C1711 H1685 0.950 . S
C1711 C1710 1.414 . S
C1711 C1712 1.374 . S
C1712 H1686 0.950 . S
C1712 C1708 1.385 . S
C1712 C1711 1.374 . S
C1713 C1710 1.499 . S
C1713 C1714 1.373 . S
C1713 C1715 1.389 . S
C1714 H1687 0.950 . S
C1714 C1700 1.377 1_545 S
C1714 C1713 1.373 . S
C1715 C1699 1.377 1_545 S
C1715 C1713 1.389 . S
C1715 C1716 1.524 . S
C1716 C1715 1.524 . S
C1716 C1717 1.397 . S
C1716 C1721 1.363 . S
C1717 H1688 0.950 . S
C1717 C1716 1.397 . S
C1717 C1718 1.334 . S
C1718 H1689 0.950 . S
C1718 C1717 1.334 . S
C1718 C1719 1.287 . S
C1719 C1718 1.287 . S
C1719 C1720 1.524 . S
C1719 H1722 0.999 . S
C1720 H1690 0.950 . S
C1720 C1719 1.524 . S
C1720 C1721 1.415 . S
C1721 H1691 0.950 . S
C1721 C1716 1.363 . S
C1721 C1720 1.415 . S
H1722 C1719 0.999 . S
H1723 C1704 0.913 . S
H1724 C1742 0.951 . S
H1725 C1744 0.951 . S
H1726 C1746 0.950 . S
H1727 C1747 0.950 . S
H1728 C1749 0.952 . S
H1729 C1752 0.950 . S
H1730 C1753 0.950 . S
H1731 C1755 0.950 . S
H1732 C1756 0.991 . S
H1733 C1757 0.951 . S
H1734 C1759 0.951 . S
H1735 C1761 0.950 . S
H1736 C1762 0.950 . S
H1737 C1764 0.952 . S
H1738 C1767 0.950 . S
H1739 C1768 0.950 . S
H1740 C1770 0.950 . S
H1741 C1771 0.991 . S
C1742 H1724 0.951 . S
C1742 C1743 1.366 . S
C1742 C1744 1.388 . S
C1743 C1742 1.366 . S
C1743 C1747 1.385 . S
C1744 H1725 0.951 . S
C1744 C1742 1.388 . S
C1744 C1745 1.366 . S
C1745 C1744 1.366 . S
C1745 C1746 1.414 . S
C1745 C1748 1.499 . S
C1746 H1726 0.950 . S
C1746 C1745 1.414 . S
C1746 C1747 1.374 . S
C1747 H1727 0.950 . S
C1747 C1743 1.385 . S
C1747 C1746 1.374 . S
C1748 C1745 1.499 . S
C1748 C1749 1.394 . S
C1748 C1750 1.389 . S
C1749 H1728 0.952 . S
C1749 C1748 1.394 . S
C1749 C1765 1.356 1_564 S
C1750 C1748 1.389 . S
C1750 C1751 1.524 . S
C1750 C1764 1.356 1_564 S
C1751 C1750 1.524 . S
C1751 C1752 1.397 . S
C1751 C1756 1.363 . S
C1752 H1729 0.950 . S
C1752 C1751 1.397 . S
C1752 C1753 1.334 . S
C1753 H1730 0.950 . S
C1753 C1752 1.334 . S
C1753 C1754 1.287 . S
C1754 C1753 1.287 . S
C1754 C1755 1.524 . S
C1754 H1773 0.913 . S
C1755 H1731 0.950 . S
C1755 C1754 1.524 . S
C1755 C1756 1.415 . S
C1756 H1732 0.991 . S
C1756 C1751 1.363 . S
C1756 C1755 1.415 . S
C1757 H1733 0.951 . S
C1757 C1758 1.366 . S
C1757 C1759 1.388 . S
C1758 C1757 1.366 . S
C1758 C1762 1.385 . S
C1759 H1734 0.951 . S
C1759 C1757 1.388 . S
C1759 C1760 1.366 . S
C1760 C1759 1.366 . S
C1760 C1761 1.414 . S
C1760 C1763 1.499 . S
C1761 H1735 0.950 . S
C1761 C1760 1.414 . S
C1761 C1762 1.374 . S
C1762 H1736 0.950 . S
C1762 C1758 1.385 . S
C1762 C1761 1.374 . S
C1763 C1760 1.499 . S
C1763 C1764 1.394 . S
C1763 C1765 1.389 . S
C1764 H1737 0.952 . S
C1764 C1750 1.356 1_546 S
C1764 C1763 1.394 . S
C1765 C1749 1.356 1_546 S
C1765 C1763 1.389 . S
C1765 C1766 1.524 . S
C1766 C1765 1.524 . S
C1766 C1767 1.397 . S
C1766 C1771 1.363 . S
C1767 H1738 0.950 . S
C1767 C1766 1.397 . S
C1767 C1768 1.334 . S
C1768 H1739 0.950 . S
C1768 C1767 1.334 . S
C1768 C1769 1.287 . S
C1769 C1768 1.287 . S
C1769 C1770 1.524 . S
C1769 H1772 0.999 . S
C1770 H1740 0.950 . S
C1770 C1769 1.524 . S
C1770 C1771 1.415 . S
C1771 H1741 0.991 . S
C1771 C1766 1.363 . S
C1771 C1770 1.415 . S
H1772 C1769 0.999 . S
H1773 C1754 0.913 . S
H1774 C1792 0.951 . S
H1775 C1794 0.951 . S
H1776 C1796 0.950 . S
H1777 C1797 0.950 . S
H1778 C1799 0.950 . S
H1779 C1802 0.950 . S
H1780 C1803 0.950 . S
H1781 C1805 0.950 . S
H1782 C1806 0.950 . S
H1783 C1807 0.951 . S
H1784 C1809 0.951 . S
H1785 C1811 0.950 . S
H1786 C1812 0.950 . S
H1787 C1814 0.950 . S
H1788 C1817 0.950 . S
H1789 C1818 0.950 . S
H1790 C1820 0.950 . S
H1791 C1821 0.950 . S
C1792 H1774 0.951 . S
C1792 C1793 1.366 . S
C1792 C1794 1.388 . S
C1793 C1792 1.366 . S
C1793 C1797 1.385 . S
C1794 H1775 0.951 . S
C1794 C1792 1.388 . S
C1794 C1795 1.366 . S
C1795 C1794 1.366 . S
C1795 C1796 1.414 . S
C1795 C1798 1.499 . S
C1796 H1776 0.950 . S
C1796 C1795 1.414 . S
C1796 C1797 1.374 . S
C1797 H1777 0.950 . S
C1797 C1793 1.385 . S
C1797 C1796 1.374 . S
C1798 C1795 1.499 . S
C1798 C1799 1.373 . S
C1798 C1800 1.392 1_545 S
C1799 H1778 0.950 . S
C1799 C1798 1.373 . S
C1799 C1815 1.374 . S
C1800 C1798 1.392 1_565 S
C1800 C1801 1.524 . S
C1800 C1814 1.374 . S
C1801 C1800 1.524 . S
C1801 C1802 1.397 1_565 S
C1801 C1806 1.363 . S
C1802 H1779 0.950 . S
C1802 C1801 1.397 1_545 S
C1802 C1803 1.334 . S
C1803 H1780 0.950 . S
C1803 C1802 1.334 . S
C1803 C1804 1.287 1_545 S
C1804 C1803 1.287 1_565 S
C1804 C1805 1.524 . S
C1804 H1823 0.913 . S
C1805 H1781 0.950 . S
C1805 C1804 1.524 . S
C1805 C1806 1.415 . S
C1806 H1782 0.950 . S
C1806 C1801 1.363 . S
C1806 C1805 1.415 . S
C1807 H1783 0.951 . S
C1807 C1808 1.366 . S
C1807 C1809 1.388 . S
C1808 C1807 1.366 . S
C1808 C1812 1.385 . S
C1809 H1784 0.951 . S
C1809 C1807 1.388 . S
C1809 C1810 1.366 . S
C1810 C1809 1.366 . S
C1810 C1811 1.414 . S
C1810 C1813 1.499 . S
C1811 H1785 0.950 . S
C1811 C1810 1.414 . S
C1811 C1812 1.374 . S
C1812 H1786 0.950 . S
C1812 C1808 1.385 . S
C1812 C1811 1.374 . S
C1813 C1810 1.499 . S
C1813 C1814 1.373 . S
C1813 C1815 1.392 1_565 S
C1814 H1787 0.950 . S
C1814 C1800 1.374 . S
C1814 C1813 1.373 . S
C1815 C1799 1.374 . S
C1815 C1813 1.392 1_545 S
C1815 C1816 1.524 . S
C1816 C1815 1.524 . S
C1816 C1817 1.397 1_545 S
C1816 C1821 1.363 . S
C1817 H1788 0.950 . S
C1817 C1816 1.397 1_565 S
C1817 C1818 1.334 . S
C1818 H1789 0.950 . S
C1818 C1817 1.334 . S
C1818 C1819 1.287 1_565 S
C1819 C1818 1.287 1_545 S
C1819 C1820 1.524 . S
C1819 H1822 0.999 . S
C1820 H1790 0.950 . S
C1820 C1819 1.524 . S
C1820 C1821 1.415 . S
C1821 H1791 0.950 . S
C1821 C1816 1.363 . S
C1821 C1820 1.415 . S
H1822 C1819 0.999 . S
H1823 C1804 0.913 . S
C243 C4 1.461 . S
C258 C88 1.463 . S
C293 C18 1.461 . S
C308 C102 1.462 . S
C343 C60 1.462 . S
C358 C32 1.461 . S
C393 C74 1.462 . S
C408 C46 1.461 . S
C443 C200 1.463 . S
C458 C116 1.461 . S
C493 C214 1.462 . S
C508 C130 1.461 . S
C543 C144 1.461 . S
C558 C172 1.462 . S
C593 C158 1.461 . S
C608 C186 1.462 . S
C643 C5 1.254 . S
C658 C82 1.392 . S
C693 C19 1.252 . S
C708 C68 1.392 . S
C743 C33 1.254 . S
C758 C110 1.392 . S
C793 C96 1.392 . S
C808 C47 1.255 . S
C843 C194 1.392 . S
C858 C117 1.253 . S
C893 C180 1.392 . S
C908 C131 1.253 . S
C943 C145 1.255 . S
C958 C222 1.392 . S
C993 C208 1.392 . S
C1008 C159 1.253 . S
C1043 C179 1.286 . S
C1058 C11 1.282 . S
C1093 C25 1.282 . S
C1108 C193 1.286 . S
C1143 C207 1.286 . S
C1158 C39 1.283 . S
C1193 C221 1.286 . S
C1208 C53 1.282 . S
C1243 C123 1.282 . S
C1258 C67 1.285 . S
C1293 C137 1.282 . S
C1308 C81 1.286 . S
C1343 C95 1.286 . S
C1358 C151 1.282 . S
C1393 C109 1.286 . S
C1408 C165 1.283 . S
C1443 C40 1.522 . S
C1458 C12 1.523 . S
C1493 C26 1.523 . S
C1508 C54 1.522 . S
C1543 C89 1.135 . S
C1558 C61 1.137 . S
C1593 C75 1.135 . S
C1608 C103 1.137 . S
C1643 C152 1.522 . S
C1658 C124 1.523 . S
C1693 C166 1.522 . S
C1708 C138 1.523 . S
C1743 C201 1.135 . S
C1758 C173 1.137 . S
C1793 C215 1.137 . S
C1808 C187 1.135 . S
