# Generated by pormake.
# Topology uoe, (4)-cn, num edge types: 1
# Building blocks:
#     Node 0, Type 0, BuildingBlock: CEKHIL_clean_sbu_0, # of connection points: 4
#     Node 1, Type 0, BuildingBlock: CEKHIL_clean_sbu_0, # of connection points: 4
#     Node 2, Type 0, BuildingBlock: CEKHIL_clean_sbu_0, # of connection points: 4
#     Node 3, Type 0, BuildingBlock: CEKHIL_clean_sbu_0, # of connection points: 4
#     Node 4, Type 0, BuildingBlock: CEKHIL_clean_sbu_0, # of connection points: 4
#     Node 5, Type 0, BuildingBlock: CEKHIL_clean_sbu_0, # of connection points: 4
#     Node 6, Type 0, BuildingBlock: CEKHIL_clean_sbu_0, # of connection points: 4
#     Node 7, Type 0, BuildingBlock: CEKHIL_clean_sbu_0, # of connection points: 4
#     Node 8, Type 0, BuildingBlock: CEKHIL_clean_sbu_0, # of connection points: 4
#     Node 9, Type 0, BuildingBlock: CEKHIL_clean_sbu_0, # of connection points: 4
#     Node 10, Type 0, BuildingBlock: CEKHIL_clean_sbu_0, # of connection points: 4
#     Node 11, Type 0, BuildingBlock: CEKHIL_clean_sbu_0, # of connection points: 4
#     Node 12, Type 0, BuildingBlock: CEKHIL_clean_sbu_0, # of connection points: 4
#     Node 13, Type 0, BuildingBlock: CEKHIL_clean_sbu_0, # of connection points: 4
#     Node 14, Type 0, BuildingBlock: CEKHIL_clean_sbu_0, # of connection points: 4
#     Node 15, Type 0, BuildingBlock: CEKHIL_clean_sbu_0, # of connection points: 4
#     Node 16, Type 0, BuildingBlock: CEKHIL_clean_sbu_0, # of connection points: 4
#     Node 17, Type 0, BuildingBlock: CEKHIL_clean_sbu_0, # of connection points: 4
#     Node 18, Type 0, BuildingBlock: CEKHIL_clean_sbu_0, # of connection points: 4
#     Node 19, Type 0, BuildingBlock: CEKHIL_clean_sbu_0, # of connection points: 4
#     Node 20, Type 0, BuildingBlock: CEKHIL_clean_sbu_0, # of connection points: 4
#     Node 21, Type 0, BuildingBlock: CEKHIL_clean_sbu_0, # of connection points: 4
#     Node 22, Type 0, BuildingBlock: CEKHIL_clean_sbu_0, # of connection points: 4
#     Node 23, Type 0, BuildingBlock: CEKHIL_clean_sbu_0, # of connection points: 4
#     Node 24, Type 0, BuildingBlock: CEKHIL_clean_sbu_0, # of connection points: 4
#     Node 25, Type 0, BuildingBlock: CEKHIL_clean_sbu_0, # of connection points: 4
#     Node 26, Type 0, BuildingBlock: CEKHIL_clean_sbu_0, # of connection points: 4
#     Node 27, Type 0, BuildingBlock: CEKHIL_clean_sbu_0, # of connection points: 4
#     Node 28, Type 0, BuildingBlock: CEKHIL_clean_sbu_0, # of connection points: 4
#     Node 29, Type 0, BuildingBlock: CEKHIL_clean_sbu_0, # of connection points: 4
#     Node 30, Type 0, BuildingBlock: CEKHIL_clean_sbu_0, # of connection points: 4
#     Node 31, Type 0, BuildingBlock: CEKHIL_clean_sbu_0, # of connection points: 4
#     Edge 32, Type (0, 0), BuildingBlock: CIFDUS_clean_linker_0, # of connection points: 2
#     Edge 33, Type (0, 0), BuildingBlock: CIFDUS_clean_linker_0, # of connection points: 2
#     Edge 34, Type (0, 0), BuildingBlock: CIFDUS_clean_linker_0, # of connection points: 2
#     Edge 35, Type (0, 0), BuildingBlock: CIFDUS_clean_linker_0, # of connection points: 2
#     Edge 36, Type (0, 0), BuildingBlock: CIFDUS_clean_linker_0, # of connection points: 2
#     Edge 37, Type (0, 0), BuildingBlock: CIFDUS_clean_linker_0, # of connection points: 2
#     Edge 38, Type (0, 0), BuildingBlock: CIFDUS_clean_linker_0, # of connection points: 2
#     Edge 39, Type (0, 0), BuildingBlock: CIFDUS_clean_linker_0, # of connection points: 2
#     Edge 40, Type (0, 0), BuildingBlock: CIFDUS_clean_linker_0, # of connection points: 2
#     Edge 41, Type (0, 0), BuildingBlock: CIFDUS_clean_linker_0, # of connection points: 2
#     Edge 42, Type (0, 0), BuildingBlock: CIFDUS_clean_linker_0, # of connection points: 2
#     Edge 43, Type (0, 0), BuildingBlock: CIFDUS_clean_linker_0, # of connection points: 2
#     Edge 44, Type (0, 0), BuildingBlock: CIFDUS_clean_linker_0, # of connection points: 2
#     Edge 45, Type (0, 0), BuildingBlock: CIFDUS_clean_linker_0, # of connection points: 2
#     Edge 46, Type (0, 0), BuildingBlock: CIFDUS_clean_linker_0, # of connection points: 2
#     Edge 47, Type (0, 0), BuildingBlock: CIFDUS_clean_linker_0, # of connection points: 2
#     Edge 48, Type (0, 0), BuildingBlock: CIFDUS_clean_linker_0, # of connection points: 2
#     Edge 49, Type (0, 0), BuildingBlock: CIFDUS_clean_linker_0, # of connection points: 2
#     Edge 50, Type (0, 0), BuildingBlock: CIFDUS_clean_linker_0, # of connection points: 2
#     Edge 51, Type (0, 0), BuildingBlock: CIFDUS_clean_linker_0, # of connection points: 2
#     Edge 52, Type (0, 0), BuildingBlock: CIFDUS_clean_linker_0, # of connection points: 2
#     Edge 53, Type (0, 0), BuildingBlock: CIFDUS_clean_linker_0, # of connection points: 2
#     Edge 54, Type (0, 0), BuildingBlock: CIFDUS_clean_linker_0, # of connection points: 2
#     Edge 55, Type (0, 0), BuildingBlock: CIFDUS_clean_linker_0, # of connection points: 2
#     Edge 56, Type (0, 0), BuildingBlock: CIFDUS_clean_linker_0, # of connection points: 2
#     Edge 57, Type (0, 0), BuildingBlock: CIFDUS_clean_linker_0, # of connection points: 2
#     Edge 58, Type (0, 0), BuildingBlock: CIFDUS_clean_linker_0, # of connection points: 2
#     Edge 59, Type (0, 0), BuildingBlock: CIFDUS_clean_linker_0, # of connection points: 2
#     Edge 60, Type (0, 0), BuildingBlock: CIFDUS_clean_linker_0, # of connection points: 2
#     Edge 61, Type (0, 0), BuildingBlock: CIFDUS_clean_linker_0, # of connection points: 2
#     Edge 62, Type (0, 0), BuildingBlock: CIFDUS_clean_linker_0, # of connection points: 2
#     Edge 63, Type (0, 0), BuildingBlock: CIFDUS_clean_linker_0, # of connection points: 2
#     Edge 64, Type (0, 0), BuildingBlock: CIFDUS_clean_linker_0, # of connection points: 2
#     Edge 65, Type (0, 0), BuildingBlock: CIFDUS_clean_linker_0, # of connection points: 2
#     Edge 66, Type (0, 0), BuildingBlock: CIFDUS_clean_linker_0, # of connection points: 2
#     Edge 67, Type (0, 0), BuildingBlock: CIFDUS_clean_linker_0, # of connection points: 2
#     Edge 68, Type (0, 0), BuildingBlock: CIFDUS_clean_linker_0, # of connection points: 2
#     Edge 69, Type (0, 0), BuildingBlock: CIFDUS_clean_linker_0, # of connection points: 2
#     Edge 70, Type (0, 0), BuildingBlock: CIFDUS_clean_linker_0, # of connection points: 2
#     Edge 71, Type (0, 0), BuildingBlock: CIFDUS_clean_linker_0, # of connection points: 2
#     Edge 72, Type (0, 0), BuildingBlock: CIFDUS_clean_linker_0, # of connection points: 2
#     Edge 73, Type (0, 0), BuildingBlock: CIFDUS_clean_linker_0, # of connection points: 2
#     Edge 74, Type (0, 0), BuildingBlock: CIFDUS_clean_linker_0, # of connection points: 2
#     Edge 75, Type (0, 0), BuildingBlock: CIFDUS_clean_linker_0, # of connection points: 2
#     Edge 76, Type (0, 0), BuildingBlock: CIFDUS_clean_linker_0, # of connection points: 2
#     Edge 77, Type (0, 0), BuildingBlock: CIFDUS_clean_linker_0, # of connection points: 2
#     Edge 78, Type (0, 0), BuildingBlock: CIFDUS_clean_linker_0, # of connection points: 2
#     Edge 79, Type (0, 0), BuildingBlock: CIFDUS_clean_linker_0, # of connection points: 2
#     Edge 80, Type (0, 0), BuildingBlock: CIFDUS_clean_linker_0, # of connection points: 2
#     Edge 81, Type (0, 0), BuildingBlock: CIFDUS_clean_linker_0, # of connection points: 2
#     Edge 82, Type (0, 0), BuildingBlock: CIFDUS_clean_linker_0, # of connection points: 2
#     Edge 83, Type (0, 0), BuildingBlock: CIFDUS_clean_linker_0, # of connection points: 2
#     Edge 84, Type (0, 0), BuildingBlock: CIFDUS_clean_linker_0, # of connection points: 2
#     Edge 85, Type (0, 0), BuildingBlock: CIFDUS_clean_linker_0, # of connection points: 2
#     Edge 86, Type (0, 0), BuildingBlock: CIFDUS_clean_linker_0, # of connection points: 2
#     Edge 87, Type (0, 0), BuildingBlock: CIFDUS_clean_linker_0, # of connection points: 2
#     Edge 88, Type (0, 0), BuildingBlock: CIFDUS_clean_linker_0, # of connection points: 2
#     Edge 89, Type (0, 0), BuildingBlock: CIFDUS_clean_linker_0, # of connection points: 2
#     Edge 90, Type (0, 0), BuildingBlock: CIFDUS_clean_linker_0, # of connection points: 2
#     Edge 91, Type (0, 0), BuildingBlock: CIFDUS_clean_linker_0, # of connection points: 2
#     Edge 92, Type (0, 0), BuildingBlock: CIFDUS_clean_linker_0, # of connection points: 2
#     Edge 93, Type (0, 0), BuildingBlock: CIFDUS_clean_linker_0, # of connection points: 2
#     Edge 94, Type (0, 0), BuildingBlock: CIFDUS_clean_linker_0, # of connection points: 2
#     Edge 95, Type (0, 0), BuildingBlock: CIFDUS_clean_linker_0, # of connection points: 2
# Relax obj value: 0.177
# Max RMSD: 0.205
# Mean RMSD: 0.205
data_MOF--net-uoe--node1-CEKHIL_clean_sbu_0--edge1-CIFDUS_clean_linker_0
_symmetry_space_group_name_H-M    P1
_symmetry_Int_Tables_number       1
_symmetry_cell_setting            triclinic
loop_
_symmetry_equiv_pos_as_xyz
'x, y, z'
_cell_length_a     65.461379
_cell_length_b     65.525778
_cell_length_c     23.199842
_cell_angle_alpha  89.965985
_cell_angle_beta   90.069386
_cell_angle_gamma 89.917176
loop_
_atom_site_label
_atom_site_type_symbol
_atom_site_fract_x
_atom_site_fract_y
_atom_site_fract_z
_atom_type_partial_charge
Co0 Co 0.10431 0.46222 0.0287 0.0
O1 O 0.13047 0.44946 0.03882 0.0
O2 O 0.10135 0.43676 0.0713 0.0
C3 C 0.10777 0.47046 0.93538 0.0
O4 O 0.07443 0.47149 0.02519 0.0
Co5 Co 0.10293 0.50872 -0.00062 0.0
O6 O 0.07322 0.50364 -0.0093 0.0
C7 C 0.1144 0.49542 0.11554 0.0
C8 C 0.12117 0.43536 0.06794 0.0
C9 C 0.06443 0.48737 0.00778 0.0
O10 O 0.10855 0.47726 0.10289 0.0
O11 O 0.1151 0.50995 0.07871 0.0
O12 O 0.10226 0.45206 0.94962 0.0
O13 O 0.11312 0.48213 0.97743 0.0
Co14 Co 0.79771 0.84923 0.28012 0.0
O15 O 0.81401 0.87337 0.28945 0.0
O16 O 0.82192 0.84322 0.32633 0.0
C17 C 0.7911 0.85244 0.18535 0.0
O18 O 0.78398 0.82103 0.27822 0.0
Co19 Co 0.75184 0.85544 0.24682 0.0
O20 O 0.75288 0.82535 0.23789 0.0
C21 C 0.76549 0.86537 0.36341 0.0
C22 C 0.82613 0.86258 0.32154 0.0
C23 C 0.76704 0.81391 0.25765 0.0
O24 O 0.78262 0.85665 0.3523 0.0
O25 O 0.75147 0.86801 0.32565 0.0
O26 O 0.80839 0.8446 0.20223 0.0
O27 O 0.77999 0.8602 0.22558 0.0
Co28 Co 0.41554 0.54522 0.53787 0.0
O29 O 0.3908 0.56066 0.54328 0.0
O30 O 0.42012 0.57006 0.58249 0.0
C31 C 0.41335 0.5378 0.44368 0.0
O32 O 0.4442 0.53249 0.53903 0.0
Co33 Co 0.41123 0.49897 0.50781 0.0
O34 O 0.44136 0.50093 0.50103 0.0
C35 C 0.39997 0.51328 0.62279 0.0
C36 C 0.40066 0.57353 0.57523 0.0
C37 C 0.45212 0.51565 0.52036 0.0
O38 O 0.40802 0.53062 0.6107 0.0
O39 O 0.39815 0.49885 0.58601 0.0
O40 O 0.42053 0.55541 0.4598 0.0
O41 O 0.40567 0.52671 0.48409 0.0
Co42 Co 0.72408 0.15601 0.76794 0.0
O43 O 0.70914 0.13093 0.76245 0.0
O44 O 0.69719 0.1591 0.80268 0.0
C45 C 0.73716 0.15672 0.67878 0.0
O46 O 0.73552 0.18481 0.77975 0.0
Co47 Co 0.77158 0.15418 0.75982 0.0
O48 O 0.76912 0.18444 0.75842 0.0
C49 C 0.75113 0.13869 0.86252 0.0
C50 C 0.69471 0.13975 0.79162 0.0
C51 C 0.75277 0.19398 0.77152 0.0
O52 O 0.73461 0.14706 0.84461 0.0
O53 O 0.76757 0.13818 0.83275 0.0
O54 O 0.71845 0.16283 0.68727 0.0
O55 O 0.74588 0.14804 0.72216 0.0
Co56 Co 0.10691 0.53562 0.54059 0.0
O57 O 0.13316 0.54748 0.52663 0.0
O58 O 0.10398 0.56054 0.4952 0.0
C59 C 0.11127 0.52836 0.6343 0.0
O60 O 0.07693 0.52683 0.54837 0.0
Co61 Co 0.10622 0.48936 0.57314 0.0
O62 O 0.07706 0.49548 0.58873 0.0
C63 C 0.11572 0.50147 0.45512 0.0
C64 C 0.12388 0.56125 0.49619 0.0
C65 C 0.06764 0.51137 0.57102 0.0
O66 O 0.1099 0.51967 0.46741 0.0
O67 O 0.11709 0.48722 0.49261 0.0
O68 O 0.10602 0.54676 0.61897 0.0
O69 O 0.11611 0.51626 0.59275 0.0
Co70 Co 0.72814 0.85455 0.78536 0.0
O71 O 0.71447 0.88034 0.78038 0.0
O72 O 0.703 0.85228 0.73925 0.0
C73 C 0.73535 0.85577 0.88025 0.0
O74 O 0.73917 0.82505 0.78396 0.0
Co75 Co 0.77457 0.85608 0.81748 0.0
O76 O 0.77023 0.8263 0.82653 0.0
C77 C 0.76159 0.86792 0.7016 0.0
C78 C 0.70095 0.87189 0.74742 0.0
C79 C 0.75524 0.81632 0.80553 0.0
O80 O 0.7436 0.86135 0.71333 0.0
O81 O 0.77603 0.86867 0.73876 0.0
O82 O 0.71734 0.84991 0.8632 0.0
O83 O 0.74702 0.86287 0.84036 0.0
Co84 Co 0.41165 0.47603 0.04455 0.0
O85 O 0.38605 0.46241 0.03399 0.0
O86 O 0.41534 0.45165 -0.00271 0.0
C87 C 0.40875 0.4824 0.13924 0.0
O88 O 0.44105 0.48701 0.04831 0.0
Co89 Co 0.4092 0.52209 0.07861 0.0
O90 O 0.43894 0.518 0.09043 0.0
C91 C 0.39903 0.50991 0.96122 0.0
C92 C 0.39558 0.44955 0.00122 0.0
C93 C 0.44935 0.50305 0.07086 0.0
O94 O 0.40609 0.49208 0.97267 0.0
O95 O 0.39735 0.52403 -0.00101 0.0
O96 O 0.41492 0.46452 0.12204 0.0
O97 O 0.40217 0.49437 0.09919 0.0
Co98 Co 0.7959 0.17417 0.27783 0.0
O99 O 0.80754 0.14747 0.2824 0.0
O100 O 0.82337 0.17404 0.24464 0.0
C101 C 0.7823 0.17497 0.36638 0.0
O102 O 0.78749 0.20414 0.26772 0.0
Co103 Co 0.74819 0.17585 0.28223 0.0
O104 O 0.75345 0.20571 0.28318 0.0
C105 C 0.76918 0.15689 0.18557 0.0
C106 C 0.82313 0.15441 0.25424 0.0
C107 C 0.77063 0.21429 0.27366 0.0
O108 O 0.78505 0.16704 0.20021 0.0
O109 O 0.75283 0.15669 0.21574 0.0
O110 O 0.80159 0.17926 0.35972 0.0
O111 O 0.77313 0.16812 0.32137 0.0
Co112 Co 0.90506 0.53601 0.0328 0.0
O113 O 0.8794 0.5502 0.03817 0.0
O114 O 0.90602 0.56153 -0.01066 0.0
C115 C 0.90836 0.52679 0.12531 0.0
O116 O 0.93412 0.52536 0.01898 0.0
Co117 Co 0.90565 0.48903 0.05785 0.0
O118 O 0.93558 0.49254 0.0481 0.0
C119 C 0.88589 0.5044 0.95418 0.0
C120 C 0.88692 0.56386 0.00363 0.0
C121 C 0.9441 0.50868 0.02901 0.0
O122 O 0.89464 0.52168 0.96271 0.0
O123 O 0.88672 0.4896 -0.00996 0.0
O124 O 0.91335 0.54525 0.1099 0.0
O125 O 0.89932 0.516 0.08671 0.0
Co126 Co 0.23089 0.15355 0.78507 0.0
O127 O 0.2185 0.12707 0.78086 0.0
O128 O 0.20555 0.15488 0.74088 0.0
C129 C 0.23883 0.15308 0.87961 0.0
O130 O 0.23974 0.1835 0.78169 0.0
Co131 Co 0.27733 0.15596 0.81517 0.0
O132 O 0.27179 0.18571 0.8168 0.0
C133 C 0.26476 0.14201 0.70059 0.0
C134 C 0.20442 0.13524 0.7489 0.0
C135 C 0.25553 0.19396 0.79725 0.0
O136 O 0.24633 0.1474 0.71222 0.0
O137 O 0.27925 0.14255 0.73765 0.0
O138 O 0.22038 0.15783 0.86332 0.0
O139 O 0.25071 0.14656 0.83937 0.0
Co140 Co 0.60903 0.47829 0.55116 0.0
O141 O 0.6333 0.46198 0.54386 0.0
O142 O 0.60259 0.45226 0.515 0.0
C143 C 0.61367 0.48942 0.64179 0.0
O144 O 0.5807 0.49157 0.55223 0.0
Co145 Co 0.61466 0.52519 0.56351 0.0
O146 O 0.58463 0.52477 0.57542 0.0
C147 C 0.62226 0.50598 0.45197 0.0
C148 C 0.62215 0.44863 0.51713 0.0
C149 C 0.57337 0.50934 0.56488 0.0
O150 O 0.61448 0.48959 0.47246 0.0
O151 O 0.62534 0.52192 0.48262 0.0
O152 O 0.60599 0.47139 0.63281 0.0
O153 O 0.62068 0.49868 0.59688 0.0
Co154 Co 0.29445 0.85396 0.28901 0.0
O155 O 0.30833 0.87968 0.28374 0.0
O156 O 0.31973 0.85078 0.24617 0.0
C157 C 0.28631 0.85553 0.38305 0.0
O158 O 0.28432 0.8245 0.28664 0.0
Co159 Co 0.24797 0.85324 0.31808 0.0
O160 O 0.25206 0.82324 0.32003 0.0
C161 C 0.26138 0.86657 0.20355 0.0
C162 C 0.32208 0.87034 0.25325 0.0
C163 C 0.26817 0.81451 0.30133 0.0
O164 O 0.27956 0.86043 0.21548 0.0
O165 O 0.24684 0.86666 0.24039 0.0
O166 O 0.30451 0.84968 0.36764 0.0
O167 O 0.27479 0.86226 0.34212 0.0
Co168 Co 0.91042 0.48124 0.54332 0.0
O169 O 0.8869 0.46358 0.54441 0.0
O170 O 0.91671 0.45598 0.58389 0.0
C171 C 0.90888 0.4913 0.45105 0.0
O172 O 0.93819 0.4955 0.54967 0.0
Co173 Co 0.90484 0.52796 0.52121 0.0
O174 O 0.93512 0.52762 0.51588 0.0
C175 C 0.88939 0.50944 0.62685 0.0
C176 C 0.89771 0.45099 0.57523 0.0
C177 C 0.94597 0.51273 0.53387 0.0
O178 O 0.90058 0.49371 0.61687 0.0
O179 O 0.88747 0.52428 0.59144 0.0
O180 O 0.917 0.47366 0.46366 0.0
O181 O 0.90001 0.50059 0.49293 0.0
Co182 Co 0.30423 0.15505 0.27691 0.0
O183 O 0.3199 0.13006 0.2773 0.0
O184 O 0.32924 0.15863 0.32083 0.0
C185 C 0.29594 0.15506 0.18266 0.0
O186 O 0.29256 0.18393 0.28401 0.0
Co187 Co 0.25776 0.15458 0.2483 0.0
O188 O 0.26048 0.18475 0.24909 0.0
C189 C 0.27173 0.14042 0.36179 0.0
C190 C 0.33308 0.13958 0.30931 0.0
C191 C 0.27616 0.19368 0.26968 0.0
O192 O 0.28987 0.14647 0.34945 0.0
O193 O 0.25696 0.14082 0.32559 0.0
O194 O 0.31383 0.16148 0.19907 0.0
O195 O 0.28484 0.14693 0.22241 0.0
Co196 Co 0.59901 0.55669 0.03336 0.0
O197 O 0.6193 0.578 0.03858 0.0
O198 O 0.58871 0.57911 0.07913 0.0
C199 C 0.60224 0.54926 0.93911 0.0
O200 O 0.57393 0.53811 0.03658 0.0
Co201 Co 0.61151 0.51219 0.00499 0.0
O202 O 0.58159 0.50793 -0.00426 0.0
C203 C 0.62067 0.52878 0.11928 0.0
C204 C 0.60667 0.58732 0.07285 0.0
C205 C 0.56871 0.52043 0.01703 0.0
O206 O 0.61019 0.54461 0.10597 0.0
O207 O 0.62411 0.51412 0.08412 0.0
O208 O 0.59118 0.56482 0.95511 0.0
O209 O 0.61259 0.54048 0.97952 0.0
Co210 Co 0.22101 0.85678 0.77928 0.0
O211 O 0.20693 0.88246 0.78493 0.0
O212 O 0.19588 0.85346 0.82264 0.0
C213 C 0.22892 0.85822 0.68512 0.0
O214 O 0.23131 0.82737 0.7815 0.0
Co215 Co 0.26742 0.85605 0.74947 0.0
O216 O 0.26354 0.82602 0.74795 0.0
C217 C 0.25432 0.86893 0.86465 0.0
C218 C 0.19333 0.87301 0.81568 0.0
C219 C 0.24746 0.81734 0.76684 0.0
O220 O 0.23605 0.86319 0.85254 0.0
O221 O 0.26885 0.86896 0.82778 0.0
O222 O 0.21076 0.85245 0.70097 0.0
O223 O 0.24053 0.86508 0.72568 0.0
Co224 Co 0.60674 0.96222 0.51271 0.0
O225 O 0.63215 0.9479 0.52254 0.0
O226 O 0.60219 0.93578 0.54983 0.0
C227 C 0.61169 0.97285 0.42111 0.0
O228 O 0.57739 0.97353 0.50858 0.0
Co229 Co 0.60911 0.00937 0.49499 0.0
O230 O 0.57978 1.00591 0.47591 0.0
C231 C 0.6163 0.99219 0.61 0.0
C232 C 0.62199 0.93364 0.54842 0.0
C233 C 0.56925 0.99032 0.49 0.0
O234 O 0.61064 0.97471 0.59093 0.0
O235 O 0.61821 1.00793 0.57769 0.0
O236 O 0.60514 0.95444 0.43113 0.0
O237 O 0.61729 0.98292 0.46617 0.0
Co238 Co 0.3022 0.35357 0.78211 0.0
O239 O 0.31625 0.37926 0.78765 0.0
O240 O 0.32741 0.35034 0.82557 0.0
C241 C 0.29411 0.35503 0.68797 0.0
O242 O 0.29194 0.32412 0.78422 0.0
Co243 Co 0.25573 0.35291 0.75271 0.0
O244 O 0.25974 0.32289 0.75006 0.0
C245 C 0.26909 0.36602 0.86748 0.0
C246 C 0.3299 0.36989 0.81857 0.0
C247 C 0.27583 0.31413 0.76893 0.0
O248 O 0.28728 0.36002 0.85538 0.0
O249 O 0.2545 0.36611 0.83069 0.0
O250 O 0.31232 0.34924 0.70371 0.0
O251 O 0.28258 0.36188 0.72864 0.0
Co252 Co 0.91008 0.0566 0.02272 0.0
O253 O 0.88491 0.07156 0.03047 0.0
O254 O 0.91518 0.08294 0.0584 0.0
C255 C 0.90594 0.0455 0.93141 0.0
O256 O 0.93923 0.04541 0.02158 0.0
Co257 Co 0.90859 0.00947 0.00744 0.0
O258 O 0.93865 0.012 -0.00105 0.0
C259 C 0.89896 0.02732 0.12004 0.0
C260 C 0.89551 0.08568 0.05589 0.0
C261 C 0.94834 0.02838 0.01044 0.0
O262 O 0.90534 0.04459 0.10119 0.0
O263 O 0.89738 0.0115 0.08799 0.0
O264 O 0.91246 0.06393 0.94123 0.0
O265 O 0.89985 0.03555 0.97629 0.0
Co266 Co 0.21945 0.65576 0.28026 0.0
O267 O 0.20506 0.63025 0.28586 0.0
O268 O 0.19431 0.65937 0.32342 0.0
C269 C 0.22755 0.6542 0.18617 0.0
O270 O 0.22996 0.68507 0.28236 0.0
Co271 Co 0.26592 0.65602 0.25103 0.0
O272 O 0.26217 0.68607 0.24857 0.0
C273 C 0.25256 0.64344 0.36627 0.0
C274 C 0.19151 0.63986 0.31646 0.0
C275 C 0.24615 0.69493 0.26736 0.0
O276 O 0.23432 0.64924 0.35377 0.0
O277 O 0.26716 0.64327 0.32961 0.0
O278 O 0.2094 0.66017 0.20172 0.0
O279 O 0.239 0.64723 0.22696 0.0
Co280 Co 0.60675 0.05062 0.04134 0.0
O281 O 0.63237 0.06444 0.02969 0.0
O282 O 0.60211 0.07707 0.00577 0.0
C283 C 0.61203 0.0394 0.13212 0.0
O284 O 0.57724 0.04065 0.04673 0.0
Co285 Co 0.6068 1.00346 0.05722 0.0
O286 O 0.57708 1.0073 0.07023 0.0
C287 C 0.61468 0.02079 0.94289 0.0
C288 C 0.62189 0.07895 0.00548 0.0
C289 C 0.56776 0.02399 0.05959 0.0
O290 O 0.60953 0.03835 0.96253 0.0
O291 O 0.61625 1.00492 0.97484 0.0
O292 O 0.60611 0.0581 0.12301 0.0
O293 O 0.61696 0.02923 0.08654 0.0
Co294 Co 0.22882 0.35379 0.29093 0.0
O295 O 0.21666 0.38034 0.28635 0.0
O296 O 0.20346 0.35263 0.24669 0.0
C297 C 0.23681 0.35453 0.38529 0.0
O298 O 0.23763 0.32377 0.28806 0.0
Co299 Co 0.27531 0.35141 0.3207 0.0
O300 O 0.26973 0.32168 0.32295 0.0
C301 C 0.26253 0.36527 0.20623 0.0
C302 C 0.20258 0.37232 0.25423 0.0
C303 C 0.25349 0.31336 0.30367 0.0
O304 O 0.2442 0.35968 0.218 0.0
O305 O 0.27705 0.36491 0.2432 0.0
O306 O 0.21835 0.34978 0.36934 0.0
O307 O 0.24866 0.36082 0.34473 0.0
Co308 Co 0.90579 0.96886 0.54851 0.0
O309 O 0.87948 0.95611 0.54745 0.0
O310 O 0.90733 0.94204 0.51141 0.0
C311 C 0.90475 0.9801 0.64065 0.0
O312 O 0.93567 0.97822 0.54343 0.0
Co313 Co 0.90675 0.0161 0.56415 0.0
O314 O 0.93661 0.01136 0.56952 0.0
C315 C 0.89508 0.99903 0.45211 0.0
C316 C 0.88763 0.94109 0.51932 0.0
C317 C 0.94554 0.99483 0.55493 0.0
O318 O 0.89989 0.98124 0.471 0.0
O319 O 0.89522 0.015 0.48387 0.0
O320 O 0.90994 0.96132 0.62961 0.0
O321 O 0.89818 0.99035 0.59688 0.0
Co322 Co 0.29345 0.6574 0.79048 0.0
O323 O 0.30604 0.63107 0.7841 0.0
O324 O 0.31868 0.65947 0.7466 0.0
C325 C 0.28543 0.6559 0.88468 0.0
O326 O 0.28438 0.68726 0.78898 0.0
Co327 Co 0.24699 0.65947 0.82025 0.0
O328 O 0.25212 0.68929 0.82229 0.0
C329 C 0.25979 0.64613 0.70536 0.0
C330 C 0.31993 0.63976 0.75269 0.0
C331 C 0.26844 0.69763 0.80378 0.0
O332 O 0.2781 0.65183 0.71713 0.0
O333 O 0.24533 0.64623 0.74245 0.0
O334 O 0.30385 0.66096 0.86916 0.0
O335 O 0.27364 0.64977 0.84372 0.0
Co336 Co 0.41699 0.04183 0.54036 0.0
O337 O 0.39449 0.06081 0.53932 0.0
O338 O 0.42366 0.06542 0.49293 0.0
C339 C 0.4164 0.03507 0.63536 0.0
O340 O 0.44378 0.02552 0.53391 0.0
Co341 Co 0.40842 0.99661 0.57304 0.0
O342 O 0.43869 0.99508 0.57689 0.0
C343 C 0.39626 0.01146 0.45907 0.0
C344 C 0.40532 0.07192 0.50477 0.0
C345 C 0.45041 1.00825 0.5536 0.0
O346 O 0.4057 0.02816 0.46999 0.0
O347 O 0.39426 0.99709 0.49604 0.0
O348 O 0.42539 0.05149 0.61662 0.0
O349 O 0.40631 0.02486 0.59728 0.0
Co350 Co 0.71135 0.66386 0.29782 0.0
O351 O 0.69087 0.64279 0.28967 0.0
O352 O 0.68799 0.67428 0.25597 0.0
C353 C 0.71976 0.65864 0.39094 0.0
O354 O 0.72881 0.68979 0.29858 0.0
Co355 Co 0.75669 0.65248 0.32056 0.0
O356 O 0.76013 0.68229 0.33279 0.0
C357 C 0.73957 0.64625 0.20528 0.0
C358 C 0.68053 0.65593 0.25941 0.0
C359 C 0.74677 0.69515 0.3159 0.0
O360 O 0.72332 0.6554 0.22211 0.0
O361 O 0.7546 0.64231 0.23887 0.0
O362 O 0.7034 0.66902 0.3779 0.0
O363 O 0.72877 0.64984 0.34813 0.0
Co364 Co 0.10734 0.97754 0.03437 0.0
O365 O 0.1337 0.96495 0.031 0.0
O366 O 0.10599 0.95266 0.9886 0.0
C367 C 0.10719 0.98491 0.12894 0.0
O368 O 0.07758 0.98707 0.0296 0.0
Co369 Co 0.10624 0.0239 0.06464 0.0
O370 O 0.07628 0.01941 0.06266 0.0
C371 C 0.12038 0.01116 0.95092 0.0
C372 C 0.12564 0.95147 -0.00297 0.0
C373 C 0.0676 1.00338 0.04332 0.0
O374 O 0.11416 0.99307 0.96257 0.0
O375 O 0.12022 0.0257 0.98774 0.0
O376 O 0.10233 0.96665 0.1117 0.0
O377 O 0.1143 0.99687 0.08963 0.0
Co378 Co 0.79921 0.35502 0.78254 0.0
O379 O 0.80975 0.38222 0.78249 0.0
O380 O 0.82668 0.35562 0.74881 0.0
C381 C 0.7856 0.35549 0.87119 0.0
O382 O 0.79172 0.32458 0.77714 0.0
Co383 Co 0.75139 0.35239 0.78821 0.0
O384 O 0.75766 0.32278 0.79256 0.0
C385 C 0.77179 0.36963 0.68815 0.0
C386 C 0.82549 0.3754 0.75475 0.0
C387 C 0.775 0.3143 0.7843 0.0
O388 O 0.78798 0.36018 0.70404 0.0
O389 O 0.75558 0.37024 0.71883 0.0
O390 O 0.80506 0.35177 0.86537 0.0
O391 O 0.77631 0.36112 0.82512 0.0
Co392 Co 0.40809 0.97596 0.03925 0.0
O393 O 0.3817 0.96343 0.04161 0.0
O394 O 0.4092 0.95115 0.08542 0.0
C395 C 0.4089 0.98303 0.94451 0.0
O396 O 0.43783 0.98532 0.04522 0.0
Co397 Co 0.40958 0.0222 0.00834 0.0
O398 O 0.43951 0.0176 0.01176 0.0
C399 C 0.39488 0.00983 0.12191 0.0
C400 C 0.38961 0.94993 0.07595 0.0
C401 C 0.44799 1.00152 0.03169 0.0
O402 O 0.40086 0.99163 0.11052 0.0
O403 O 0.39547 0.02436 0.08507 0.0
O404 O 0.41356 0.96481 0.96264 0.0
O405 O 0.40154 0.99521 0.98297 0.0
Co406 Co 0.79498 0.65836 0.77502 0.0
O407 O 0.80905 0.63278 0.78434 0.0
O408 O 0.82151 0.66259 0.81172 0.0
C409 C 0.78411 0.65388 0.6836 0.0
O410 O 0.78404 0.68782 0.77149 0.0
Co411 Co 0.74774 0.6567 0.75895 0.0
O412 O 0.75141 0.68603 0.7401 0.0
C413 C 0.76547 0.64806 0.87242 0.0
C414 C 0.82347 0.64281 0.81007 0.0
C415 C 0.7673 0.69624 0.75342 0.0
O416 O 0.7827 0.65438 0.85328 0.0
O417 O 0.7496 0.64626 0.8405 0.0
O418 O 0.80266 0.66005 0.69362 0.0
O419 O 0.77396 0.64825 0.72855 0.0
Co420 Co 0.10376 0.04728 0.52917 0.0
O421 O 0.12955 0.06111 0.53302 0.0
O422 O 0.10108 0.0724 0.57345 0.0
C423 C 0.10437 0.03949 0.43488 0.0
O424 O 0.07436 0.03662 0.5333 0.0
Co425 Co 0.104 1.00085 0.5002 0.0
O426 O 0.07386 1.00421 0.50071 0.0
C427 C 0.11816 0.01457 0.61333 0.0
C428 C 0.12065 0.07457 0.56543 0.0
C429 C 0.06475 0.02008 0.51953 0.0
O430 O 0.11107 0.03237 0.60168 0.0
O431 O 0.11845 0.99998 0.57669 0.0
O432 O 0.09859 0.05758 0.45134 0.0
O433 O 0.11174 0.02792 0.47486 0.0
Co434 Co 0.72312 0.37412 0.26718 0.0
O435 O 0.70916 0.39984 0.26648 0.0
O436 O 0.69597 0.37127 0.30081 0.0
C437 C 0.73658 0.37533 0.17838 0.0
O438 O 0.73345 0.34467 0.27349 0.0
Co439 Co 0.77077 0.37421 0.25902 0.0
O440 O 0.76709 0.34419 0.25248 0.0
C441 C 0.75066 0.38824 0.3641 0.0
C442 C 0.69433 0.39095 0.29377 0.0
C443 C 0.75036 0.33504 0.2638 0.0
O444 O 0.73384 0.38072 0.3455 0.0
O445 O 0.76698 0.38899 0.33386 0.0
O446 O 0.71765 0.36959 0.18493 0.0
O447 O 0.74529 0.38245 0.22377 0.0
H448 H 0.96957 0.4763 0.04597 0.0
H449 H 0.96932 0.5391 -0.01096 0.0
H450 H 1.00631 0.53761 0.9751 0.0
H451 H 0.03869 0.51886 0.98184 0.0
H452 H 0.03887 0.45625 0.04044 0.0
H453 H 1.00175 0.45735 0.05053 0.0
C454 C 0.9775 0.48972 0.03033 0.0
C455 C 0.96654 0.50785 0.01878 0.0
C456 C 0.99876 0.48879 0.02268 0.0
C457 C 0.97726 0.52497 -0.00156 0.0
C458 C 0.99844 0.52412 -0.00955 0.0
C459 C 0.03068 0.50536 -0.00348 0.0
C460 C 0.04171 0.48748 0.01048 0.0
C461 C 0.00934 0.50615 0.00281 0.0
C462 C 0.0309 0.47021 0.02942 0.0
C463 C 0.00964 0.47085 0.03532 0.0
H464 H 0.78424 0.78428 0.3265 0.0
H465 H 0.73965 0.79344 0.19158 0.0
H466 H 0.72896 0.75805 0.19926 0.0
H467 H 0.73135 0.72458 0.24562 0.0
H468 H 0.77626 0.71455 0.37882 0.0
H469 H 0.78749 0.75003 0.37086 0.0
C470 C 0.77238 0.77845 0.29832 0.0
C471 C 0.76273 0.79164 0.25882 0.0
C472 C 0.7661 0.75792 0.30314 0.0
C473 C 0.74728 0.78377 0.22283 0.0
C474 C 0.74107 0.76349 0.22719 0.0
C475 C 0.74348 0.73019 0.27324 0.0
C476 C 0.75281 0.71696 0.31303 0.0
C477 C 0.75013 0.75049 0.26772 0.0
C478 C 0.76877 0.72442 0.34781 0.0
C479 C 0.77526 0.74471 0.34321 0.0
H480 H 0.48121 0.53849 0.57636 0.0
H481 H 0.47373 0.48502 0.46957 0.0
H482 H 0.51002 0.47777 0.47644 0.0
H483 H 0.54416 0.48641 0.51203 0.0
H484 H 0.55218 0.54005 0.61741 0.0
H485 H 0.51563 0.5472 0.61211 0.0
C486 C 0.48753 0.52534 0.55432 0.0
C487 C 0.47459 0.51236 0.52265 0.0
C488 C 0.5086 0.52111 0.55846 0.0
C489 C 0.48317 0.4953 0.49458 0.0
C490 C 0.504 0.49106 0.49846 0.0
C491 C 0.53789 0.49955 0.5343 0.0
C492 C 0.55093 0.51263 0.565 0.0
C493 C 0.51687 0.50378 0.53045 0.0
C494 C 0.54253 0.52973 0.59315 0.0
C495 C 0.5216 0.53388 0.59012 0.0
H496 H 0.7861 0.21863 0.75587 0.0
H497 H 0.72208 0.22038 0.80113 0.0
H498 H 0.72381 0.25738 0.81048 0.0
H499 H 0.743 0.28902 0.80465 0.0
H500 H 0.80691 0.28812 0.75849 0.0
H501 H 0.80566 0.2508 0.75118 0.0
C502 C 0.77249 0.22705 0.76787 0.0
C503 C 0.75393 0.21657 0.77765 0.0
C504 C 0.77356 0.24844 0.77311 0.0
C505 C 0.73654 0.22789 0.79319 0.0
C506 C 0.73751 0.24909 0.7986 0.0
C507 C 0.75678 0.28081 0.79297 0.0
C508 C 0.77506 0.29155 0.78191 0.0
C509 C 0.7559 0.25949 0.78847 0.0
C510 C 0.79265 0.28038 0.76727 0.0
C511 C 0.79191 0.25902 0.76295 0.0
H512 H 0.03977 0.53554 0.51426 0.0
H513 H 0.04435 0.48579 0.63581 0.0
H514 H 1.00747 0.48173 0.63493 0.0
H515 H 0.9738 0.49115 0.59694 0.0
H516 H 0.96873 0.54118 0.47672 0.0
H517 H 1.00565 0.54614 0.47982 0.0
C518 C 0.03268 0.52399 0.54106 0.0
C519 C 0.04496 0.51091 0.57456 0.0
C520 C 0.01127 0.52158 0.54026 0.0
C521 C 0.03541 0.49598 0.60899 0.0
C522 C 0.01424 0.49359 0.60857 0.0
C523 C 0.98076 0.50312 0.57137 0.0
C524 C 0.96846 0.51566 0.5365 0.0
C525 C 1.00203 0.50606 0.57369 0.0
C526 C 0.97778 0.53128 0.50413 0.0
C527 C 0.99894 0.53415 0.5058 0.0
H528 H 0.78183 0.72397 0.8305 0.0
H529 H 0.74695 0.71877 0.6736 0.0
H530 H 0.73889 0.75522 0.6768 0.0
H531 H 0.74116 0.78874 0.72566 0.0
H532 H 0.77542 0.79334 0.88407 0.0
H533 H 0.78385 0.75718 0.87953 0.0
C534 C 0.77279 0.73093 0.79654 0.0
C535 C 0.76521 0.71876 0.75159 0.0
C536 C 0.76768 0.7518 0.79958 0.0
C537 C 0.75308 0.72788 0.70853 0.0
C538 C 0.74833 0.7487 0.71054 0.0
C539 C 0.75019 0.78172 0.75953 0.0
C540 C 0.75758 0.79377 0.80514 0.0
C541 C 0.75529 0.7608 0.75633 0.0
C542 C 0.76955 0.78446 0.84833 0.0
C543 C 0.77449 0.76376 0.84569 0.0
H544 H 0.54021 0.53342 0.09366 0.0
H545 H 0.54857 0.49262 0.94984 0.0
H546 H 0.51275 0.48215 0.95603 0.0
H547 H 0.47839 0.48583 5e-05 0.0
H548 H 0.47104 0.52625 0.14549 0.0
H549 H 0.507 0.53525 0.14143 0.0
C550 C 0.5342 0.52227 0.06357 0.0
C551 C 0.54701 0.514 0.02101 0.0
C552 C 0.5137 0.5161 0.0679 0.0
C553 C 0.53903 0.49928 0.98301 0.0
C554 C 0.51853 0.49326 0.98653 0.0
C555 C 0.48476 0.49632 0.03139 0.0
C556 C 0.47191 0.50548 0.07257 0.0
C557 C 0.50564 0.50166 0.02864 0.0
C558 C 0.48046 0.51913 0.11279 0.0
C559 C 0.50107 0.52436 0.11052 0.0
H560 H 0.78326 0.30977 0.24961 0.0
H561 H 0.71842 0.30904 0.28451 0.0
H562 H 0.71922 0.27186 0.29024 0.0
H563 H 0.73811 0.23979 0.28607 0.0
H564 H 0.80296 0.24008 0.25165 0.0
H565 H 0.80227 0.27737 0.24509 0.0
C566 C 0.76925 0.30154 0.25842 0.0
C567 C 0.75077 0.31234 0.26665 0.0
C568 C 0.76981 0.28011 0.26183 0.0
C569 C 0.73285 0.30126 0.27803 0.0
C570 C 0.7333 0.27997 0.28134 0.0
C571 C 0.75219 0.24789 0.27707 0.0
C572 C 0.77061 0.23698 0.26939 0.0
C573 C 0.75168 0.26926 0.27342 0.0
C574 C 0.78858 0.24796 0.25782 0.0
C575 C 0.78818 0.26931 0.25404 0.0
H576 H 0.24408 0.28823 0.74701 0.0
H577 H 0.3066 0.28913 0.80709 0.0
H578 H 0.30546 0.25231 0.82215 0.0
H579 H 0.28689 0.22006 0.81886 0.0
H580 H 0.22444 0.21879 0.75854 0.0
H581 H 0.22544 0.25573 0.74346 0.0
C582 C 0.25753 0.28043 0.76322 0.0
C583 C 0.27543 0.29157 0.77583 0.0
C584 C 0.25676 0.25922 0.77209 0.0
C585 C 0.29262 0.28106 0.79691 0.0
C586 C 0.29198 0.25997 0.80568 0.0
C587 C 0.2734 0.22777 0.80257 0.0
C588 C 0.25557 0.21653 0.78998 0.0
C589 C 0.27412 0.24893 0.79361 0.0
C590 C 0.23835 0.22696 0.76875 0.0
C591 C 0.23893 0.2481 0.75997 0.0
H592 H 0.23601 0.78898 0.31952 0.0
H593 H 0.29909 0.78929 0.2649 0.0
H594 H 0.29758 0.75252 0.2483 0.0
H595 H 0.2784 0.72041 0.2489 0.0
H596 H 0.21531 0.72021 0.30349 0.0
H597 H 0.21685 0.75695 0.31998 0.0
C598 C 0.24951 0.78107 0.3042 0.0
C599 C 0.26767 0.792 0.29362 0.0
C600 C 0.24852 0.75996 0.29436 0.0
C601 C 0.28492 0.78136 0.27356 0.0
C602 C 0.28406 0.76031 0.2639 0.0
C603 C 0.26491 0.72835 0.26418 0.0
C604 C 0.24674 0.71744 0.27485 0.0
C605 C 0.26592 0.74948 0.27396 0.0
C606 C 0.2295 0.72812 0.29482 0.0
C607 C 0.23037 0.74916 0.30441 0.0
H608 H 0.24388 0.2192 0.24863 0.0
H609 H 0.30589 0.21879 0.3128 0.0
H610 H 0.30387 0.25541 0.33059 0.0
H611 H 0.28484 0.2874 0.32751 0.0
H612 H 0.22296 0.28835 0.26261 0.0
H613 H 0.22462 0.2515 0.24611 0.0
C614 C 0.25701 0.22707 0.26643 0.0
C615 C 0.27506 0.21611 0.27921 0.0
C616 C 0.25575 0.24819 0.27672 0.0
C617 C 0.29183 0.22671 0.30238 0.0
C618 C 0.29067 0.24768 0.3127 0.0
C619 C 0.2716 0.27964 0.30995 0.0
C620 C 0.25376 0.29078 0.29637 0.0
C621 C 0.27273 0.25855 0.30006 0.0
C622 C 0.23687 0.28027 0.27361 0.0
C623 C 0.23784 0.25918 0.26399 0.0
H624 H 0.23665 0.72365 0.8217 0.0
H625 H 0.29976 0.7224 0.7674 0.0
H626 H 0.29859 0.75918 0.74998 0.0
H627 H 0.27961 0.79152 0.74944 0.0
H628 H 0.21646 0.79248 0.80344 0.0
H629 H 0.21775 0.7558 0.82115 0.0
C630 C 0.25025 0.73134 0.80631 0.0
C631 C 0.2683 0.72015 0.79603 0.0
C632 C 0.24943 0.75242 0.79589 0.0
C633 C 0.28567 0.73054 0.77586 0.0
C634 C 0.28499 0.75158 0.76571 0.0
C635 C 0.26606 0.78375 0.76485 0.0
C636 C 0.24793 0.79486 0.77498 0.0
C637 C 0.26692 0.76265 0.77531 0.0
C638 C 0.23061 0.78441 0.79515 0.0
C639 C 0.23134 0.76342 0.80545 0.0
H640 H 0.4783 0.02209 0.47481 0.0
H641 H 0.47181 0.9814 0.61988 0.0
H642 H 0.50729 0.97062 0.6099 0.0
H643 H 0.54078 0.97342 0.56187 0.0
H644 H 0.54725 0.01416 0.417 0.0
H645 H 0.51134 0.02379 0.42422 0.0
C646 C 0.48469 0.01096 0.5044 0.0
C647 C 0.47237 1.0027 0.54817 0.0
C648 C 0.50515 1.00457 0.49803 0.0
C649 C 0.48089 0.98805 0.58567 0.0
C650 C 0.50121 0.9818 0.57997 0.0
C651 C 0.5342 0.98407 0.53119 0.0
C652 C 0.54671 0.99301 0.48896 0.0
C653 C 0.51353 0.98992 0.5363 0.0
C654 C 0.53799 1.00705 0.45005 0.0
C655 C 0.51745 0.01269 0.45432 0.0
H656 H 0.97273 0.99486 -0.00398 0.0
H657 H 0.97504 0.0593 0.03521 0.0
H658 H 0.01189 0.05698 0.04901 0.0
H659 H 0.04316 0.03676 0.05231 0.0
H660 H 0.04135 0.97234 0.01314 0.0
H661 H 1.00443 0.97464 -0.00274 0.0
C662 C 0.98125 1.00847 0.00724 0.0
C663 C 0.97098 0.02725 0.01466 0.0
C664 C 1.00249 1.00702 0.01556 0.0
C665 C 0.98242 0.04465 0.0292 0.0
C666 C 1.00352 0.04333 0.03729 0.0
C667 C 0.03478 0.02312 0.0405 0.0
C668 C 0.04511 1.00434 0.03435 0.0
C669 C 0.01366 0.02457 0.03111 0.0
C670 C 0.03386 0.98697 0.01841 0.0
C671 C 0.01274 0.98829 0.00923 0.0
H672 H 0.54272 0.99132 0.0778 0.0
H673 H 0.54156 0.05561 0.03619 0.0
H674 H 0.50456 0.05413 0.0244 0.0
H675 H 0.47289 0.03452 0.02229 0.0
H676 H 0.47374 0.9702 0.06325 0.0
H677 H 0.51068 0.97184 0.07864 0.0
C678 C 0.53442 1.00509 0.06656 0.0
C679 C 0.54506 0.02356 0.05771 0.0
C680 C 0.51313 1.0041 0.05921 0.0
C681 C 0.5339 0.04119 0.04325 0.0
C682 C 0.51271 0.04034 0.03628 0.0
C683 C 0.48107 0.02077 0.03446 0.0
C684 C 0.47045 1.00219 0.04111 0.0
C685 C 0.50224 0.02184 0.04342 0.0
C686 C 0.48144 0.98468 0.05754 0.0
C687 C 0.50258 0.98562 0.06643 0.0
H688 H 0.04015 0.98695 0.50321 0.0
H689 H 0.03855 0.05018 0.5559 0.0
H690 H 1.00185 0.04752 0.57309 0.0
H691 H 0.97042 0.02746 0.57316 0.0
H692 H 0.97172 0.96427 0.52018 0.0
H693 H 1.00856 0.96675 0.50374 0.0
C694 C 0.03184 1.00023 0.51828 0.0
C695 C 0.04225 0.0188 0.52808 0.0
C696 C 0.01073 0.99857 0.52842 0.0
C697 C 0.03106 0.03573 0.54783 0.0
C698 C 0.01005 0.0342 0.55782 0.0
C699 C 0.97867 0.01412 0.55822 0.0
C700 C 0.96815 0.99565 0.548 0.0
C701 C 0.99976 0.0157 0.54838 0.0
C702 C 0.9793 0.97864 0.52861 0.0
C703 C 1.00038 0.98008 0.519 0.0
H704 H 0.10759 0.50983 0.90033 0.0
H705 H 0.10674 0.44796 0.83672 0.0
H706 H 0.10786 0.46062 0.73751 0.0
H707 H 0.11025 0.48912 0.66991 0.0
H708 H 0.10902 0.55107 0.73276 0.0
H709 H 0.10759 0.53847 0.83212 0.0
C710 C 0.1076 0.49911 0.86478 0.0
C711 C 0.10729 0.47799 0.87564 0.0
C712 C 0.10796 0.5065 0.80814 0.0
C713 C 0.10702 0.46428 0.82925 0.0
C714 C 0.10772 0.4715 0.77267 0.0
C715 C 0.10961 0.49991 0.70522 0.0
C716 C 0.10992 0.521 0.69416 0.0
C717 C 0.10839 0.49256 0.76174 0.0
C718 C 0.10888 0.53476 0.74036 0.0
C719 C 0.10807 0.52757 0.79703 0.0
H720 H 0.77445 0.85325 0.91797 0.0
H721 H 0.71202 0.85368 0.97722 0.0
H722 H 0.72385 0.8526 0.07737 0.0
H723 H 0.75197 0.85302 0.14746 0.0
H724 H 0.81431 0.8497 0.08824 0.0
H725 H 0.80248 0.85031 0.98802 0.0
C726 C 0.76343 0.853 0.95275 0.0
C727 C 0.7424 0.85379 0.9404 0.0
C728 C 0.77034 0.85192 0.00993 0.0
C729 C 0.72829 0.85316 0.98582 0.0
C730 C 0.73504 0.85259 0.04298 0.0
C731 C 0.76297 0.85234 0.11268 0.0
C732 C 0.784 0.85158 0.12506 0.0
C733 C 0.75603 0.85222 0.05547 0.0
C734 C 0.79806 0.85038 0.0796 0.0
C735 C 0.7913 0.85077 0.02242 0.0
H736 H 0.41071 0.52134 0.17714 0.0
H737 H 0.41128 0.45889 0.23603 0.0
H738 H 0.41305 0.47061 0.33619 0.0
H739 H 0.41318 0.4987 0.40639 0.0
H740 H 0.41536 0.56101 0.34665 0.0
H741 H 0.41404 0.54923 0.24662 0.0
C742 C 0.41131 0.51027 0.21178 0.0
C743 C 0.41063 0.48929 0.19941 0.0
C744 C 0.41284 0.51711 0.26878 0.0
C745 C 0.41169 0.47513 0.2447 0.0
C746 C 0.41268 0.48182 0.30183 0.0
C747 C 0.41344 0.50968 0.37146 0.0
C748 C 0.4141 0.53069 0.38361 0.0
C749 C 0.41307 0.50278 0.3143 0.0
C750 C 0.41479 0.54477 0.33811 0.0
C751 C 0.41397 0.53805 0.28106 0.0
H752 H 0.7223 0.1711 0.57699 0.0
H753 H 0.77802 0.15254 0.66185 0.0
H754 H 0.79741 0.1593 0.57458 0.0
H755 H 0.79831 0.16812 0.47187 0.0
H756 H 0.74232 0.18367 0.38429 0.0
H757 H 0.72336 0.18085 0.4746 0.0
C758 C 0.73869 0.16864 0.57633 0.0
C759 C 0.74866 0.16127 0.62571 0.0
C760 C 0.74974 0.1721 0.52543 0.0
C761 C 0.76992 0.15813 0.62435 0.0
C762 C 0.78107 0.16202 0.57444 0.0
C763 C 0.78203 0.17125 0.473 0.0
C764 C 0.77168 0.17612 0.42197 0.0
C765 C 0.77112 0.16874 0.5245 0.0
C766 C 0.75055 0.17984 0.42334 0.0
C767 C 0.7397 0.17815 0.47485 0.0
H768 H 0.90782 0.54611 0.22819 0.0
H769 H 0.91883 0.48763 0.14922 0.0
H770 H 0.92236 0.47172 0.24351 0.0
H771 H 0.91879 0.4737 0.34876 0.0
H772 H 0.90377 0.53157 0.42673 0.0
H773 H 0.90536 0.54831 0.33355 0.0
C774 C 0.91134 0.52998 0.23189 0.0
C775 C 0.91309 0.51807 0.18211 0.0
C776 C 0.91236 0.52071 0.28636 0.0
C777 C 0.91737 0.49711 0.18706 0.0
C778 C 0.91933 0.48796 0.24102 0.0
C779 C 0.91608 0.49 0.34527 0.0
C780 C 0.91115 0.50131 0.39455 0.0
C781 C 0.91628 0.49949 0.29101 0.0
C782 C 0.90755 0.52242 0.3895 0.0
C783 C 0.90845 0.53208 0.3361 0.0
H784 H 0.27794 0.1571 0.91603 0.0
H785 H 0.21585 0.15441 0.97751 0.0
H786 H 0.22809 0.15545 0.07726 0.0
H787 H 0.25657 0.15512 0.14648 0.0
H788 H 0.31854 0.15971 0.08494 0.0
H789 H 0.30621 0.16011 0.98526 0.0
C790 C 0.26708 0.15682 0.95123 0.0
C791 C 0.24604 0.15537 0.93957 0.0
C792 C 0.27422 0.15772 0.00824 0.0
C793 C 0.23212 0.15542 0.98553 0.0
C794 C 0.23912 0.15596 0.04249 0.0
C795 C 0.26737 0.1563 0.11126 0.0
C796 C 0.28845 0.15708 0.12288 0.0
C797 C 0.26015 0.15678 0.05429 0.0
C798 C 0.30225 0.15899 0.07695 0.0
C799 C 0.29521 0.15916 0.02003 0.0
H800 H 0.62889 0.52249 0.89264 0.0
H801 H 0.574 0.55633 0.85406 0.0
H802 H 0.57235 0.54036 0.7586 0.0
H803 H 0.58657 0.51643 0.68648 0.0
H804 H 0.64176 0.48326 0.72514 0.0
H805 H 0.6433 0.49924 0.82059 0.0
C806 C 0.6166 0.52643 0.86327 0.0
C807 C 0.60162 0.54061 0.88025 0.0
C808 C 0.61583 0.51727 0.80865 0.0
C809 C 0.58582 0.54561 0.84173 0.0
C810 C 0.58483 0.53641 0.7873 0.0
C811 C 0.59896 0.51285 0.7158 0.0
C812 C 0.6141 0.49881 0.69926 0.0
C813 C 0.59976 0.52221 0.77032 0.0
C814 C 0.62996 0.49401 0.7375 0.0
C815 C 0.63084 0.50316 0.79183 0.0
H816 H 0.26825 0.85628 0.64945 0.0
H817 H 0.20615 0.85528 0.58708 0.0
H818 H 0.21854 0.85386 0.48761 0.0
H819 H 0.24701 0.85448 0.41885 0.0
H820 H 0.30909 0.85351 0.48134 0.0
H821 H 0.2967 0.85395 0.58089 0.0
C822 C 0.25742 0.8557 0.61413 0.0
C823 C 0.23632 0.85616 0.6254 0.0
C824 C 0.26465 0.85455 0.55735 0.0
C825 C 0.22247 0.85504 0.57932 0.0
C826 C 0.22954 0.85426 0.52254 0.0
C827 C 0.25783 0.85429 0.45424 0.0
C828 C 0.27893 0.85423 0.44294 0.0
C829 C 0.25059 0.85427 0.5111 0.0
C830 C 0.29278 0.85363 0.48912 0.0
C831 C 0.2857 0.85395 0.54593 0.0
H832 H 0.61114 0.99899 0.15881 0.0
H833 H 0.61243 0.05888 0.23579 0.0
H834 H 0.61283 0.04356 0.33199 0.0
H835 H 0.61318 0.01316 0.39406 0.0
H836 H 0.60944 0.95332 0.31748 0.0
H837 H 0.60962 0.96859 0.22115 0.0
C838 C 0.61155 0.00869 0.19663 0.0
C839 C 0.61196 0.03004 0.1902 0.0
C840 C 0.61134 0.99977 0.2518 0.0
C841 C 0.61216 0.0424 0.23963 0.0
C842 C 0.61242 0.03365 0.29462 0.0
C843 C 0.61242 1.00345 0.35633 0.0
C844 C 0.61147 0.98212 0.36289 0.0
C845 C 0.61208 0.01236 0.30121 0.0
C846 C 0.61023 0.96977 0.31355 0.0
C847 C 0.61035 0.9785 0.25848 0.0
H848 H 0.276 0.352 0.42159 0.0
H849 H 0.21388 0.35292 0.48333 0.0
H850 H 0.22622 0.35275 0.58305 0.0
H851 H 0.25473 0.35413 0.65199 0.0
H852 H 0.31679 0.35146 0.59008 0.0
H853 H 0.30439 0.35044 0.49055 0.0
C854 C 0.26515 0.35208 0.45684 0.0
C855 C 0.24407 0.35274 0.44528 0.0
C856 C 0.27236 0.35175 0.51377 0.0
C857 C 0.23018 0.35249 0.4913 0.0
C858 C 0.23724 0.35245 0.54821 0.0
C859 C 0.26554 0.35327 0.61675 0.0
C860 C 0.28665 0.35315 0.6282 0.0
C861 C 0.25829 0.35239 0.55988 0.0
C862 C 0.30048 0.35167 0.58221 0.0
C863 C 0.2934 0.35112 0.52539 0.0
H864 H 0.90848 1.00525 0.90357 0.0
H865 H 0.90412 0.06533 0.82859 0.0
H866 H 0.90338 0.05042 0.73194 0.0
H867 H 0.90326 0.02028 0.66892 0.0
H868 H 0.90984 0.96028 0.74324 0.0
H869 H 0.91065 0.97516 0.83996 0.0
C870 C 0.90735 0.01505 0.86604 0.0
C871 C 0.90613 0.03635 0.87315 0.0
C872 C 0.90739 1.00639 0.81056 0.0
C873 C 0.90504 0.0489 0.82416 0.0
C874 C 0.90459 0.04038 0.76893 0.0
C875 C 0.9049 0.01046 0.70627 0.0
C876 C 0.90626 0.98918 0.69895 0.0
C877 C 0.90565 0.01914 0.76162 0.0
C878 C 0.90867 0.97669 0.74773 0.0
C879 C 0.90909 0.98519 0.80305 0.0
H880 H 0.24618 0.65825 0.92026 0.0
H881 H 0.30819 0.65702 0.98329 0.0
H882 H 0.29565 0.65673 0.08275 0.0
H883 H 0.26701 0.65507 0.151 0.0
H884 H 0.20507 0.65814 0.08784 0.0
H885 H 0.21766 0.65954 0.98861 0.0
C886 C 0.25697 0.658 0.95573 0.0
C887 C 0.27807 0.65738 0.94459 0.0
C888 C 0.24965 0.65808 0.01249 0.0
C889 C 0.29187 0.65742 -0.00908 0.0
C890 C 0.28471 0.65719 0.04768 0.0
C891 C 0.25626 0.6561 0.11556 0.0
C892 C 0.23513 0.65623 0.12657 0.0
C893 C 0.26363 0.65721 0.05888 0.0
C894 C 0.2214 0.65792 0.08032 0.0
C895 C 0.22859 0.65868 0.02368 0.0
H896 H 0.41551 0.0213 0.90419 0.0
H897 H 0.40878 0.95876 0.84967 0.0
H898 H 0.41096 0.96933 0.74869 0.0
H899 H 0.41296 0.99657 0.67621 0.0
H900 H 0.42231 0.05881 0.73027 0.0
H901 H 0.42107 0.04816 0.83146 0.0
C902 C 0.41458 0.01001 0.87014 0.0
C903 C 0.41167 0.98934 0.88406 0.0
C904 C 0.41628 0.01615 0.81234 0.0
C905 C 0.41092 0.97478 0.83979 0.0
C906 C 0.41211 0.98081 0.78214 0.0
C907 C 0.41483 1.00778 0.71015 0.0
C908 C 0.41744 0.02846 0.69604 0.0
C909 C 0.4145 1.00149 0.76795 0.0
C910 C 0.42022 0.0428 0.74029 0.0
C911 C 0.41944 0.03673 0.79804 0.0
H912 H 0.75943 0.65314 0.42073 0.0
H913 H 0.69972 0.66366 0.4931 0.0
H914 H 0.7142 0.66234 0.59055 0.0
H915 H 0.74395 0.65788 0.65491 0.0
H916 H 0.80404 0.65104 0.58134 0.0
H917 H 0.78933 0.65124 0.48436 0.0
C918 C 0.74957 0.65515 0.45776 0.0
C919 C 0.7285 0.65829 0.44978 0.0
C920 C 0.7581 0.65501 0.51334 0.0
C921 C 0.71598 0.66117 0.49822 0.0
C922 C 0.72426 0.66038 0.55387 0.0
C923 C 0.7538 0.65645 0.61764 0.0
C924 C 0.77503 0.65426 0.62522 0.0
C925 C 0.7453 0.65725 0.56195 0.0
C926 C 0.78765 0.65269 0.57654 0.0
C927 C 0.77925 0.65278 0.52113 0.0
H928 H 0.10369 1.00048 0.39651 0.0
H929 H 0.1013 0.06298 0.3384 0.0
H930 H 0.10138 0.05151 0.23804 0.0
H931 H 0.10404 0.02377 0.1673 0.0
H932 H 0.10462 0.9612 0.22517 0.0
H933 H 0.1032 0.97263 0.32555 0.0
C934 C 0.10311 0.01157 0.36186 0.0
C935 C 0.10279 0.03254 0.37463 0.0
C936 C 0.1029 1.00485 0.30446 0.0
C937 C 0.10165 0.04676 0.32947 0.0
C938 C 0.10175 0.04021 0.27218 0.0
C939 C 0.10378 0.01264 0.20188 0.0
C940 C 0.10474 0.9917 0.18908 0.0
C941 C 0.10269 0.01931 0.25922 0.0
C942 C 0.104 0.97742 0.23414 0.0
C943 C 0.10324 0.98394 0.29144 0.0
H944 H 0.72353 0.35871 0.07706 0.0
H945 H 0.77685 0.38311 0.16215 0.0
H946 H 0.79744 0.37648 0.07715 0.0
H947 H 0.80007 0.36567 0.97627 0.0
H948 H 0.74636 0.34397 0.88819 0.0
H949 H 0.72635 0.34717 0.97644 0.0
C950 C 0.73964 0.36255 0.07688 0.0
C951 C 0.74858 0.37141 0.12577 0.0
C952 C 0.75143 0.35902 0.02731 0.0
C953 C 0.76952 0.37627 0.12506 0.0
C954 C 0.78138 0.37246 0.07646 0.0
C955 C 0.78409 0.3613 0.97695 0.0
C956 C 0.77468 0.35453 0.92629 0.0
C957 C 0.77248 0.36402 0.02715 0.0
C958 C 0.75389 0.34923 0.92697 0.0
C959 C 0.74242 0.35115 0.97729 0.0
H960 H 0.12123 0.52845 0.36809 0.0
H961 H 0.11943 0.46384 0.40499 0.0
H962 H 0.12136 0.4563 0.30211 0.0
H963 H 0.11948 0.46812 0.2023 0.0
H964 H 0.12013 0.5328 0.16562 0.0
H965 H 0.12302 0.54019 0.26832 0.0
C966 C 0.12139 0.51269 0.35376 0.0
C967 C 0.11971 0.49673 0.39403 0.0
C968 C 0.12217 0.50848 0.29473 0.0
C969 C 0.12047 0.47641 0.37482 0.0
C970 C 0.1215 0.47209 0.31602 0.0
C971 C 0.12039 0.48386 0.21663 0.0
C972 C 0.1191 0.49989 0.17644 0.0
C973 C 0.12169 0.48802 0.27565 0.0
C974 C 0.12083 0.52016 0.19568 0.0
C975 C 0.12242 0.52442 0.2544 0.0
H976 H 0.7342 0.87539 0.61648 0.0
H977 H 0.79902 0.87184 0.65034 0.0
H978 H 0.80599 0.87349 0.54711 0.0
H979 H 0.79344 0.87067 0.44814 0.0
H980 H 0.7286 0.87331 0.41413 0.0
H981 H 0.72189 0.87741 0.517 0.0
C982 C 0.74988 0.87521 0.60138 0.0
C983 C 0.76605 0.87295 0.6409 0.0
C984 C 0.75375 0.87574 0.5421 0.0
C985 C 0.78628 0.87331 0.62078 0.0
C986 C 0.79028 0.87414 0.56175 0.0
C987 C 0.77784 0.87241 0.46307 0.0
C988 C 0.76151 0.87122 0.42375 0.0
C989 C 0.77409 0.87449 0.52212 0.0
C990 C 0.74143 0.87395 0.44362 0.0
C991 C 0.73758 0.87621 0.50242 0.0
H992 H 0.39487 0.54149 0.70703 0.0
H993 H 0.39205 0.47662 0.67462 0.0
H994 H 0.38865 0.47015 0.77776 0.0
H995 H 0.3915 0.48259 0.87665 0.0
H996 H 0.3954 0.54733 0.90951 0.0
H997 H 0.39313 0.55418 0.80615 0.0
C998 C 0.39331 0.52592 0.72241 0.0
C999 C 0.39425 0.50952 0.68336 0.0
C1000 C 0.39175 0.52229 0.78168 0.0
C1001 C 0.39164 0.4895 0.70382 0.0
C1002 C 0.38978 0.48578 0.76279 0.0
C1003 C 0.3916 0.49823 0.86133 0.0
C1004 C 0.39409 0.51441 0.9005 0.0
C1005 C 0.39063 0.50201 0.80208 0.0
C1006 C 0.39372 0.5346 0.88014 0.0
C1007 C 0.39251 0.53852 0.82107 0.0
H1008 H 0.73701 0.14185 0.12462 0.0
H1009 H 0.80269 0.14813 0.12086 0.0
H1010 H 0.80328 0.13761 0.02041 0.0
H1011 H 0.78462 0.13407 0.92993 0.0
H1012 H 0.71882 0.12979 0.93213 0.0
H1013 H 0.71891 0.13131 0.03708 0.0
C1014 C 0.75147 0.14052 0.10214 0.0
C1015 C 0.76963 0.14658 0.12926 0.0
C1016 C 0.75171 0.13492 0.04393 0.0
C1017 C 0.78835 0.14428 0.10016 0.0
C1018 C 0.78876 0.13817 0.04277 0.0
C1019 C 0.77036 0.13282 0.9534 0.0
C1020 C 0.75174 0.13259 0.92351 0.0
C1021 C 0.77043 0.13459 0.01346 0.0
C1022 C 0.73337 0.13057 0.95441 0.0
C1023 C 0.73337 0.13154 0.01437 0.0
H1024 H 0.88105 0.47868 0.7005 0.0
H1025 H 0.8762 0.54406 0.68095 0.0
H1026 H 0.86883 0.54756 0.78349 0.0
H1027 H 0.8722 0.53287 0.87975 0.0
H1028 H 0.88011 0.46783 0.89987 0.0
H1029 H 0.87706 0.46325 0.79585 0.0
C1030 C 0.87803 0.49366 0.71856 0.0
C1031 C 0.88001 0.51116 0.68408 0.0
C1032 C 0.87447 0.4956 0.7776 0.0
C1033 C 0.87525 0.5304 0.70713 0.0
C1034 C 0.87109 0.53242 0.76573 0.0
C1035 C 0.87276 0.51764 0.8614 0.0
C1036 C 0.87723 0.50081 0.89672 0.0
C1037 C 0.87197 0.51526 0.8017 0.0
C1038 C 0.87712 0.48107 0.87317 0.0
C1039 C 0.87556 0.47847 0.8137 0.0
H1040 H 0.23808 0.1341 0.6136 0.0
H1041 H 0.30258 0.13777 0.65181 0.0
H1042 H 0.31052 0.13459 0.54956 0.0
H1043 H 0.29901 0.13554 0.44924 0.0
H1044 H 0.23445 0.13299 0.41093 0.0
H1045 H 0.22677 0.1306 0.51348 0.0
C1046 C 0.2539 0.13399 0.59971 0.0
C1047 C 0.26968 0.13666 0.64024 0.0
C1048 C 0.25837 0.13249 0.54081 0.0
C1049 C 0.2901 0.13599 0.62155 0.0
C1050 C 0.29467 0.13424 0.56302 0.0
C1051 C 0.28325 0.13419 0.46314 0.0
C1052 C 0.26732 0.13493 0.4224 0.0
C1053 C 0.2789 0.13324 0.5222 0.0
C1054 C 0.24703 0.13271 0.44127 0.0
C1055 C 0.2426 0.13144 0.49999 0.0
H1056 H 0.62447 0.4944 0.18344 0.0
H1057 H 0.63147 0.55976 0.19055 0.0
H1058 H 0.63528 0.5583 0.29513 0.0
H1059 H 0.63173 0.53896 0.38518 0.0
H1060 H 0.622 0.47382 0.37738 0.0
H1061 H 0.62459 0.47463 0.27309 0.0
C1062 C 0.62736 0.50822 0.20782 0.0
C1063 C 0.62741 0.52715 0.17969 0.0
C1064 C 0.62883 0.50734 0.26811 0.0
C1065 C 0.63106 0.54502 0.21165 0.0
C1066 C 0.6332 0.5442 0.2714 0.0
C1067 C 0.63049 0.5249 0.36076 0.0
C1068 C 0.62651 0.50643 0.38931 0.0
C1069 C 0.63128 0.52553 0.30031 0.0
C1070 C 0.62501 0.48833 0.3568 0.0
C1071 C 0.62641 0.48875 0.29691 0.0
H1072 H 0.22742 0.87491 0.9521 0.0
H1073 H 0.29201 0.87394 0.91394 0.0
H1074 H 0.29987 0.87577 0.01655 0.0
H1075 H 0.28843 0.87292 0.11663 0.0
H1076 H 0.22382 0.87281 0.15462 0.0
H1077 H 0.21603 0.8764 0.05235 0.0
C1078 C 0.24324 0.87533 0.96609 0.0
C1079 C 0.25909 0.87378 0.92541 0.0
C1080 C 0.24767 0.876 0.02512 0.0
C1081 C 0.27948 0.87485 0.94429 0.0
C1082 C 0.28401 0.87581 0.00302 0.0
C1083 C 0.27263 0.87388 0.10269 0.0
C1084 C 0.25674 0.8721 0.14315 0.0
C1085 C 0.26822 0.87561 0.04378 0.0
C1086 C 0.23637 0.87388 0.1244 0.0
C1087 C 0.23188 0.87587 0.06587 0.0
H1088 H 0.61868 0.02727 0.67238 0.0
H1089 H 0.62107 0.96165 0.68904 0.0
H1090 H 0.62245 0.96476 0.79366 0.0
H1091 H 0.62008 0.98593 0.8805 0.0
H1092 H 0.61643 0.0515 0.8634 0.0
H1093 H 0.61868 0.04851 0.75912 0.0
C1094 C 0.61976 0.01365 0.6988 0.0
C1095 C 0.61951 0.99428 0.67285 0.0
C1096 C 0.6202 0.01549 0.75903 0.0
C1097 C 0.62096 0.97678 0.70786 0.0
C1098 C 0.62176 0.97852 0.76776 0.0
C1099 C 0.61998 0.99958 0.85407 0.0
C1100 C 0.61791 0.01887 0.87996 0.0
C1101 C 0.6209 0.99778 0.79385 0.0
C1102 C 0.61787 0.03641 0.84484 0.0
C1103 C 0.61913 0.03474 0.78504 0.0
H1104 H 0.23556 0.37233 0.11943 0.0
H1105 H 0.3002 0.37031 0.15708 0.0
H1106 H 0.3079 0.37325 0.05461 0.0
H1107 H 0.29627 0.37161 0.95453 0.0
H1108 H 0.23162 0.37232 0.91682 0.0
H1109 H 0.22401 0.37498 0.0194 0.0
C1110 C 0.25136 0.37273 0.10538 0.0
C1111 C 0.26727 0.37058 0.14579 0.0
C1112 C 0.25569 0.37403 0.0464 0.0
C1113 C 0.28763 0.37167 0.12689 0.0
C1114 C 0.29207 0.37328 0.06825 0.0
C1115 C 0.2805 0.37256 0.96859 0.0
C1116 C 0.26454 0.37125 0.92809 0.0
C1117 C 0.27621 0.37369 0.02761 0.0
C1118 C 0.24422 0.37302 0.94705 0.0
C1119 C 0.23983 0.37447 0.00575 0.0
H1120 H 0.8925 0.03418 0.38972 0.0
H1121 H 0.88876 0.96861 0.37349 0.0
H1122 H 0.88761 0.97172 0.26887 0.0
H1123 H 0.89151 0.99272 0.18204 0.0
H1124 H 0.89612 0.05822 0.19861 0.0
H1125 H 0.89291 0.05538 0.30283 0.0
C1126 C 0.8911 0.02057 0.36343 0.0
C1127 C 0.89106 1.0012 0.38955 0.0
C1128 C 0.89084 0.0224 0.30317 0.0
C1129 C 0.88913 0.98374 0.35462 0.0
C1130 C 0.88849 0.98547 0.29468 0.0
C1131 C 0.89157 1.0064 0.20831 0.0
C1132 C 0.89446 0.02559 0.18243 0.0
C1133 C 0.88998 1.00468 0.26846 0.0
C1134 C 0.89429 0.04318 0.21729 0.0
C1135 C 0.89242 0.0416 0.27701 0.0
H1136 H 0.28662 0.63898 0.6184 0.0
H1137 H 0.22205 0.6412 0.65649 0.0
H1138 H 0.21414 0.63775 0.55426 0.0
H1139 H 0.22555 0.63861 0.45399 0.0
H1140 H 0.29012 0.63748 0.4157 0.0
H1141 H 0.29795 0.63566 0.51835 0.0
C1142 C 0.27079 0.63852 0.60448 0.0
C1143 C 0.25496 0.64083 0.64495 0.0
C1144 C 0.26633 0.63686 0.54561 0.0
C1145 C 0.23456 0.6397 0.62625 0.0
C1146 C 0.23 0.63779 0.56774 0.0
C1147 C 0.24135 0.63774 0.46794 0.0
C1148 C 0.25722 0.63867 0.42719 0.0
C1149 C 0.24577 0.63708 0.52698 0.0
C1150 C 0.27758 0.63705 0.44609 0.0
C1151 C 0.2821 0.63609 0.50483 0.0
H1152 H 0.38475 0.98246 0.20477 0.0
H1153 H 0.39195 0.04712 0.17464 0.0
H1154 H 0.38957 0.05352 0.27807 0.0
H1155 H 0.39102 0.04026 0.37653 0.0
H1156 H 0.38573 0.97545 0.4068 0.0
H1157 H 0.38135 0.96968 0.30351 0.0
C1158 C 0.38552 0.99801 0.22069 0.0
C1159 C 0.38908 0.01425 0.18218 0.0
C1160 C 0.38464 1.00154 0.28017 0.0
C1161 C 0.38947 0.03433 0.20336 0.0
C1162 C 0.3882 0.03799 0.26253 0.0
C1163 C 0.38866 0.02488 0.3607 0.0
C1164 C 0.38927 1.00825 0.39914 0.0
C1165 C 0.38669 0.02163 0.30131 0.0
C1166 C 0.38559 0.9885 0.37809 0.0
C1167 C 0.38319 0.98517 0.319 0.0
H1168 H 0.77418 0.64151 0.14184 0.0
H1169 H 0.70841 0.6409 0.12917 0.0
H1170 H 0.71057 0.63934 0.02439 0.0
H1171 H 0.73104 0.64217 0.93634 0.0
H1172 H 0.79686 0.64397 0.94914 0.0
H1173 H 0.79474 0.64083 0.05349 0.0
C1174 C 0.76035 0.64062 0.11617 0.0
C1175 C 0.74119 0.64165 0.14315 0.0
C1176 C 0.76168 0.6402 0.05579 0.0
C1177 C 0.72337 0.64049 0.10932 0.0
C1178 C 0.72458 0.6396 0.04938 0.0
C1179 C 0.74493 0.64162 0.96185 0.0
C1180 C 0.76402 0.6437 0.9349 0.0
C1181 C 0.74364 0.64014 0.02209 0.0
C1182 C 0.78189 0.64278 0.96872 0.0
C1183 C 0.78073 0.64094 0.02852 0.0
H1184 H 0.1281 0.98361 0.86662 0.0
H1185 H 0.12536 0.04846 0.89926 0.0
H1186 H 0.12772 0.05521 0.79598 0.0
H1187 H 0.12507 0.04257 0.6971 0.0
H1188 H 0.12576 0.97765 0.66463 0.0
H1189 H 0.13 0.97109 0.76755 0.0
C1190 C 0.12825 0.99926 0.8513 0.0
C1191 C 0.12598 0.0155 0.89048 0.0
C1192 C 0.12902 1.003 0.79196 0.0
C1193 C 0.1268 0.03567 0.87001 0.0
C1194 C 0.12804 0.03954 0.81093 0.0
C1195 C 0.12635 0.02696 0.71236 0.0
C1196 C 0.12452 0.01059 0.67341 0.0
C1197 C 0.12826 0.0233 0.77156 0.0
C1198 C 0.12682 0.99052 0.69375 0.0
C1199 C 0.12916 0.98675 0.75262 0.0
H1200 H 0.73915 0.38422 0.62837 0.0
H1201 H 0.80459 0.37614 0.61858 0.0
H1202 H 0.80422 0.38631 0.51788 0.0
H1203 H 0.78473 0.39096 0.4295 0.0
H1204 H 0.71904 0.39638 0.43706 0.0
H1205 H 0.72019 0.39442 0.542 0.0
C1206 C 0.75336 0.38499 0.60445 0.0
C1207 C 0.77173 0.37882 0.63033 0.0
C1208 C 0.753 0.39029 0.54605 0.0
C1209 C 0.79011 0.3803 0.59918 0.0
C1210 C 0.78996 0.38617 0.5416 0.0
C1211 C 0.77071 0.39229 0.45412 0.0
C1212 C 0.75182 0.39317 0.42576 0.0
C1213 C 0.77138 0.39023 0.514 0.0
C1214 C 0.73377 0.39518 0.45815 0.0
C1215 C 0.73439 0.39397 0.51807 0.0
H1216 H 0.15858 0.44097 0.11102 0.0
H1217 H 0.11046 0.39633 0.10178 0.0
H1218 H 0.13143 0.37221 0.15803 0.0
H1219 H 0.16411 0.36404 0.20994 0.0
H1220 H 0.21008 0.41103 0.22328 0.0
H1221 H 0.18934 0.4339 0.1655 0.0
C1222 C 0.15269 0.42589 0.12087 0.0
C1223 C 0.13318 0.42028 0.10145 0.0
C1224 C 0.16448 0.41254 0.15435 0.0
C1225 C 0.12554 0.40092 0.11594 0.0
C1226 C 0.13753 0.38716 0.14808 0.0
C1227 C 0.16945 0.37931 0.20027 0.0
C1228 C 0.18863 0.3858 0.22115 0.0
C1229 C 0.15711 0.39281 0.1676 0.0
C1230 C 0.19533 0.40567 0.20846 0.0
C1231 C 0.18353 0.41879 0.17507 0.0
H1232 H 0.89813 0.90613 0.45789 0.0
H1233 H 0.84646 0.94156 0.51679 0.0
H1234 H 0.82343 0.92025 0.46187 0.0
H1235 H 0.81767 0.89332 0.39196 0.0
H1236 H 0.86747 0.85522 0.33651 0.0
H1237 H 0.89146 0.87563 0.39492 0.0
C1238 C 0.88182 0.90897 0.45924 0.0
C1239 C 0.87418 0.92567 0.49124 0.0
C1240 C 0.8683 0.8963 0.42766 0.0
C1241 C 0.85293 0.92898 0.49267 0.0
C1242 C 0.83964 0.91681 0.46098 0.0
C1243 C 0.83377 0.88937 0.39308 0.0
C1244 C 0.8409 0.87305 0.35963 0.0
C1245 C 0.84715 0.90075 0.42753 0.0
C1246 C 0.8617 0.86784 0.36188 0.0
C1247 C 0.87537 0.87954 0.39515 0.0
H1248 H 0.36009 0.57537 0.58876 0.0
H1249 H 0.41539 0.60701 0.63534 0.0
H1250 H 0.3953 0.63146 0.69266 0.0
H1251 H 0.36147 0.64294 0.73237 0.0
H1252 H 0.30761 0.60818 0.68963 0.0
H1253 H 0.32764 0.58593 0.62774 0.0
C1254 C 0.36786 0.58772 0.61084 0.0
C1255 C 0.38921 0.58947 0.60723 0.0
C1256 C 0.35638 0.60111 0.6448 0.0
C1257 C 0.39894 0.60539 0.63711 0.0
C1258 C 0.38745 0.61932 0.66999 0.0
C1259 C 0.35426 0.63049 0.7093 0.0
C1260 C 0.33314 0.62706 0.71573 0.0
C1261 C 0.3661 0.61722 0.67465 0.0
C1262 C 0.32389 0.6109 0.6859 0.0
C1263 C 0.3353 0.59822 0.65031 0.0
H1264 H 0.66661 0.151 0.87443 0.0
H1265 H 0.68705 0.09975 0.77251 0.0
H1266 H 0.66625 0.07677 0.82981 0.0
H1267 H 0.64477 0.07049 0.91389 0.0
H1268 H 0.62181 0.1209 0.01344 0.0
H1269 H 0.64114 0.14495 0.95267 0.0
C1270 C 0.66614 0.13489 0.864 0.0
C1271 C 0.6786 0.12716 0.81937 0.0
C1272 C 0.65401 0.12154 0.89745 0.0
C1273 C 0.67778 0.10618 0.80664 0.0
C1274 C 0.66596 0.09294 0.83964 0.0
C1275 C 0.64389 0.08678 0.92189 0.0
C1276 C 0.63223 0.094 0.96828 0.0
C1277 C 0.65449 0.10035 0.88602 0.0
C1278 C 0.63088 0.11508 0.97806 0.0
C1279 C 0.64191 0.12877 0.9433 0.0
H1280 H 0.18769 0.59903 0.32536 0.0
H1281 H 0.15878 0.65524 0.37724 0.0
H1282 H 0.13388 0.63597 0.43455 0.0
H1283 H 0.12167 0.60273 0.475 0.0
H1284 H 0.15321 0.54751 0.4267 0.0
H1285 H 0.17552 0.56669 0.3628 0.0
C1286 C 0.17581 0.60713 0.34858 0.0
C1287 C 0.17509 0.62854 0.34682 0.0
C1288 C 0.16202 0.59604 0.38253 0.0
C1289 C 0.15967 0.63873 0.37775 0.0
C1290 C 0.14546 0.62772 0.41068 0.0
C1291 C 0.13333 0.59502 0.44999 0.0
C1292 C 0.13591 0.57378 0.45566 0.0
C1293 C 0.14666 0.60632 0.41419 0.0
C1294 C 0.15112 0.56388 0.42341 0.0
C1295 C 0.16386 0.57482 0.38676 0.0
H1296 H 0.65269 0.94176 0.61958 0.0
H1297 H 0.61606 0.89179 0.55829 0.0
H1298 H 0.63703 0.86765 0.61494 0.0
H1299 H 0.6672 0.86101 0.68009 0.0
H1300 H 0.70113 0.91291 0.74376 0.0
H1301 H 0.67983 0.93583 0.68854 0.0
C1302 C 0.64927 0.92555 0.61857 0.0
C1303 C 0.63314 0.91849 0.58416 0.0
C1304 C 0.66098 0.91206 0.65194 0.0
C1305 C 0.62853 0.89755 0.5843 0.0
C1306 C 0.64056 0.88379 0.61661 0.0
C1307 C 0.66977 0.87733 0.68215 0.0
C1308 C 0.68596 0.88506 0.71614 0.0
C1309 C 0.65703 0.89085 0.65037 0.0
C1310 C 0.68891 0.90633 0.71835 0.0
C1311 C 0.67674 0.91959 0.6865 0.0
H1312 H 0.33158 0.41063 0.83259 0.0
H1313 H 0.36395 0.35535 0.87561 0.0
H1314 H 0.3885 0.37511 0.93306 0.0
H1315 H 0.3996 0.40845 0.97568 0.0
H1316 H 0.36438 0.46244 0.93702 0.0
H1317 H 0.34233 0.44298 0.87313 0.0
C1318 C 0.34414 0.40286 0.85388 0.0
C1319 C 0.34598 0.38156 0.84946 0.0
C1320 C 0.35769 0.41417 0.88804 0.0
C1321 C 0.36221 0.37176 0.87814 0.0
C1322 C 0.37622 0.38306 0.91113 0.0
C1323 C 0.38719 0.41584 0.95278 0.0
C1324 C 0.38358 0.43683 0.961 0.0
C1325 C 0.37397 0.40431 0.91711 0.0
C1326 C 0.36735 0.44628 0.9316 0.0
C1327 C 0.35473 0.43517 0.89498 0.0
H1328 H 0.858 0.1618 0.1891 0.0
H1329 H 0.81918 0.11347 0.25276 0.0
H1330 H 0.83744 0.08874 0.1953 0.0
H1331 H 0.86335 0.08041 0.12436 0.0
H1332 H 0.90511 0.12658 0.06551 0.0
H1333 H 0.88696 0.15244 0.12329 0.0
C1334 C 0.85381 0.14581 0.19104 0.0
C1335 C 0.8371 0.13967 0.22536 0.0
C1336 C 0.86474 0.13124 0.15809 0.0
C1337 C 0.83192 0.11882 0.22718 0.0
C1338 C 0.8423 0.10454 0.19392 0.0
C1339 C 0.8684 0.09619 0.12389 0.0
C1340 C 0.88515 0.10175 0.08978 0.0
C1341 C 0.85847 0.11059 0.15864 0.0
C1342 C 0.89202 0.12205 0.09095 0.0
C1343 C 0.88167 0.13678 0.12408 0.0
H1344 H 0.89698 0.59687 0.93427 0.0
H1345 H 0.84573 0.56514 0.0097 0.0
H1346 H 0.82213 0.58674 0.9569 0.0
H1347 H 0.81557 0.61326 0.88563 0.0
H1348 H 0.86545 0.64749 0.81361 0.0
H1349 H 0.89 0.62648 0.86852 0.0
C1350 C 0.88066 0.59489 0.93963 0.0
C1351 C 0.87325 0.57923 0.97594 0.0
C1352 C 0.86688 0.60771 0.90929 0.0
C1353 C 0.852 0.57699 0.98239 0.0
C1354 C 0.83839 0.5893 0.9519 0.0
C1355 C 0.83184 0.61615 0.88208 0.0
C1356 C 0.83877 0.63161 0.84506 0.0
C1357 C 0.84563 0.60444 0.91464 0.0
C1358 C 0.85981 0.63556 0.84169 0.0
C1359 C 0.8738 0.62352 0.87301 0.0
H1360 H 0.15754 0.06744 0.60997 0.0
H1361 H 0.11144 0.11417 0.59745 0.0
H1362 H 0.13333 0.13769 0.65275 0.0
H1363 H 0.16631 0.14476 0.70417 0.0
H1364 H 0.21015 0.09581 0.72154 0.0
H1365 H 0.18845 0.07342 0.66515 0.0
C1366 C 0.15232 0.08284 0.61895 0.0
C1367 C 0.13314 0.08925 0.59873 0.0
C1368 C 0.1646 0.09585 0.65202 0.0
C1369 C 0.12627 0.109 0.61218 0.0
C1370 C 0.13879 0.1224 0.64378 0.0
C1371 C 0.17098 0.12916 0.69573 0.0
C1372 C 0.18987 0.122 0.71714 0.0
C1373 C 0.15808 0.11599 0.6639 0.0
C1374 C 0.19567 0.10171 0.70614 0.0
C1375 C 0.18331 0.08887 0.67355 0.0
H1376 H 0.66324 0.37868 0.36714 0.0
H1377 H 0.69102 0.43204 0.29078 0.0
H1378 H 0.6714 0.454 0.35391 0.0
H1379 H 0.64887 0.45835 0.4361 0.0
H1380 H 0.61744 0.40669 0.50816 0.0
H1381 H 0.63613 0.38371 0.4423 0.0
C1382 C 0.66466 0.39511 0.36357 0.0
C1383 C 0.67887 0.40359 0.32448 0.0
C1384 C 0.65302 0.40794 0.40008 0.0
C1385 C 0.6804 0.42496 0.32044 0.0
C1386 C 0.66925 0.43763 0.35687 0.0
C1387 C 0.64594 0.44206 0.43697 0.0
C1388 C 0.63209 0.43413 0.47721 0.0
C1389 C 0.65599 0.42929 0.39775 0.0
C1390 C 0.62822 0.41306 0.47771 0.0
C1391 C 0.63887 0.4 0.44001 0.0
H1392 H 0.39466 0.90976 0.1095 0.0
H1393 H 0.35408 0.96152 0.12195 0.0
H1394 H 0.3306 0.94191 0.18109 0.0
H1395 H 0.32084 0.91015 0.22688 0.0
H1396 H 0.3588 0.85674 0.20934 0.0
H1397 H 0.384 0.87673 0.15474 0.0
C1398 C 0.38066 0.91661 0.12528 0.0
C1399 C 0.376 0.93699 0.11107 0.0
C1400 C 0.36676 0.90497 0.15832 0.0
C1401 C 0.35782 0.94577 0.13158 0.0
C1402 C 0.34442 0.93461 0.16568 0.0
C1403 C 0.33473 0.90288 0.21171 0.0
C1404 C 0.33808 0.88209 0.22275 0.0
C1405 C 0.34865 0.91422 0.17899 0.0
C1406 C 0.35594 0.8728 0.20164 0.0
C1407 C 0.37032 0.88422 0.17036 0.0
H1408 H 0.86686 0.37533 0.72486 0.0
H1409 H 0.81024 0.40832 0.70247 0.0
H1410 H 0.82711 0.43317 0.64184 0.0
H1411 H 0.85768 0.44661 0.59738 0.0
H1412 H 0.91564 0.41685 0.62401 0.0
H1413 H 0.89871 0.38988 0.68021 0.0
C1414 C 0.85834 0.38799 0.70668 0.0
C1415 C 0.83731 0.39 0.71884 0.0
C1416 C 0.86837 0.40287 0.67239 0.0
C1417 C 0.82648 0.40653 0.69489 0.0
C1418 C 0.83607 0.42076 0.65973 0.0
C1419 C 0.86665 0.4341 0.61475 0.0
C1420 C 0.88785 0.43362 0.6057 0.0
C1421 C 0.85698 0.4192 0.6485 0.0
C1422 C 0.89924 0.4175 0.62987 0.0
C1423 C 0.88956 0.40211 0.66221 0.0
H1424 H 0.40094 0.07736 0.38994 0.0
H1425 H 0.38691 0.10465 0.55395 0.0
H1426 H 0.36523 0.13014 0.50634 0.0
H1427 H 0.34718 0.14216 0.41912 0.0
H1428 H 0.35742 0.11149 0.2575 0.0
H1429 H 0.38365 0.09003 0.30229 0.0
C1430 C 0.39355 0.08926 0.41486 0.0
C1431 C 0.3958 0.08948 0.47512 0.0
C1432 C 0.38018 0.10309 0.38746 0.0
C1433 C 0.38562 0.10448 0.50738 0.0
C1434 C 0.37312 0.11893 0.4802 0.0
C1435 C 0.35549 0.13104 0.39362 0.0
C1436 C 0.35059 0.12852 0.33501 0.0
C1437 C 0.36983 0.11805 0.42042 0.0
C1438 C 0.36104 0.11372 0.30265 0.0
C1439 C 0.37598 0.10141 0.3283 0.0
H1440 H 0.63127 0.62 0.05077 0.0
H1441 H 0.60031 0.58825 0.1878 0.0
H1442 H 0.61964 0.60752 0.2596 0.0
H1443 H 0.64853 0.63054 0.28294 0.0
H1444 H 0.67672 0.66505 0.14646 0.0
H1445 H 0.65524 0.64791 0.07514 0.0
C1446 C 0.62834 0.61781 0.09636 0.0
C1447 C 0.61442 0.60274 0.11399 0.0
C1448 C 0.63918 0.62933 0.13756 0.0
C1449 C 0.61077 0.59996 0.17317 0.0
C1450 C 0.62198 0.61083 0.21431 0.0
C1451 C 0.64951 0.63467 0.23775 0.0
C1452 C 0.66421 0.64895 0.21989 0.0
C1453 C 0.63667 0.62515 0.19701 0.0
C1454 C 0.66538 0.65422 0.16126 0.0
C1455 C 0.65321 0.6443 0.12037 0.0
H1456 H 0.19395 0.9129 0.84157 0.0
H1457 H 0.15706 0.85893 0.86092 0.0
H1458 H 0.13186 0.87849 0.91679 0.0
H1459 H 0.12098 0.91127 0.9631 0.0
H1460 H 0.16053 0.96365 0.94867 0.0
H1461 H 0.1839 0.94449 0.88793 0.0
C1462 C 0.18029 0.90542 0.8574 0.0
C1463 C 0.17726 0.88457 0.84656 0.0
C1464 C 0.16637 0.91652 0.89088 0.0
C1465 C 0.15968 0.87502 0.86847 0.0
C1466 C 0.1453 0.8862 0.9005 0.0
C1467 C 0.13472 0.91836 0.94651 0.0
C1468 C 0.13914 0.93878 0.96071 0.0
C1469 C 0.14857 0.90698 0.9125 0.0
C1470 C 0.15699 0.94785 0.9391 0.0
C1471 C 0.17032 0.93696 0.90408 0.0
loop_
_geom_bond_atom_site_label_1
_geom_bond_atom_site_label_2
_geom_bond_distance
_geom_bond_site_symmetry_2
_ccdc_geom_bond_type
Co0 O1 2.216 . S
Co0 O2 2.091 . S
Co0 O4 2.004 . S
Co0 O10 2.021 . S
Co0 O12 2.137 1_554 S
Co0 O13 2.244 . S
O1 Co0 2.216 . S
O1 C8 1.247 . S
O2 Co0 2.091 . S
O2 C8 1.261 . S
C3 O12 1.247 . S
C3 O13 1.272 1_556 S
O4 Co0 2.004 . S
O4 C9 1.259 . S
Co5 O6 2.061 . S
Co5 O11 2.052 . S
Co5 O13 2.135 . S
O6 Co5 2.061 . S
O6 C9 1.235 . S
C7 O10 1.238 . S
C7 O11 1.241 . S
C8 O1 1.247 . S
C8 O2 1.261 . S
C9 O4 1.259 . S
C9 O6 1.235 . S
O10 Co0 2.021 . S
O10 C7 1.238 . S
O11 Co5 2.052 . S
O11 C7 1.241 . S
O12 Co0 2.137 1_556 S
O12 C3 1.247 . S
O13 Co0 2.244 . S
O13 C3 1.272 1_554 S
O13 Co5 2.135 . S
Co14 O15 2.216 . S
Co14 O16 2.091 . S
Co14 O18 2.004 . S
Co14 O24 2.021 . S
Co14 O26 2.137 . S
Co14 O27 2.244 . S
O15 Co14 2.216 . S
O15 C22 1.247 . S
O16 Co14 2.091 . S
O16 C22 1.261 . S
C17 O26 1.247 . S
C17 O27 1.272 . S
O18 Co14 2.004 . S
O18 C23 1.259 . S
Co19 O20 2.061 . S
Co19 O25 2.052 . S
Co19 O27 2.135 . S
O20 Co19 2.061 . S
O20 C23 1.235 . S
C21 O24 1.238 . S
C21 O25 1.241 . S
C22 O15 1.247 . S
C22 O16 1.261 . S
C23 O18 1.259 . S
C23 O20 1.235 . S
O24 Co14 2.021 . S
O24 C21 1.238 . S
O25 Co19 2.052 . S
O25 C21 1.241 . S
O26 Co14 2.137 . S
O26 C17 1.247 . S
O27 Co14 2.244 . S
O27 C17 1.272 . S
O27 Co19 2.135 . S
Co28 O29 2.216 . S
Co28 O30 2.091 . S
Co28 O32 2.004 . S
Co28 O38 2.021 . S
Co28 O40 2.137 . S
Co28 O41 2.244 . S
O29 Co28 2.216 . S
O29 C36 1.247 . S
O30 Co28 2.091 . S
O30 C36 1.261 . S
C31 O40 1.247 . S
C31 O41 1.272 . S
O32 Co28 2.004 . S
O32 C37 1.259 . S
Co33 O34 2.061 . S
Co33 O39 2.052 . S
Co33 O41 2.135 . S
O34 Co33 2.061 . S
O34 C37 1.235 . S
C35 O38 1.238 . S
C35 O39 1.241 . S
C36 O29 1.247 . S
C36 O30 1.261 . S
C37 O32 1.259 . S
C37 O34 1.235 . S
O38 Co28 2.021 . S
O38 C35 1.238 . S
O39 Co33 2.052 . S
O39 C35 1.241 . S
O40 Co28 2.137 . S
O40 C31 1.247 . S
O41 Co28 2.244 . S
O41 C31 1.272 . S
O41 Co33 2.135 . S
Co42 O43 2.216 . S
Co42 O44 2.091 . S
Co42 O46 2.004 . S
Co42 O52 2.021 . S
Co42 O54 2.137 . S
Co42 O55 2.244 . S
O43 Co42 2.216 . S
O43 C50 1.247 . S
O44 Co42 2.091 . S
O44 C50 1.261 . S
C45 O54 1.247 . S
C45 O55 1.272 . S
O46 Co42 2.004 . S
O46 C51 1.259 . S
Co47 O48 2.061 . S
Co47 O53 2.052 . S
Co47 O55 2.135 . S
O48 Co47 2.061 . S
O48 C51 1.235 . S
C49 O52 1.238 . S
C49 O53 1.241 . S
C50 O43 1.247 . S
C50 O44 1.261 . S
C51 O46 1.259 . S
C51 O48 1.235 . S
O52 Co42 2.021 . S
O52 C49 1.238 . S
O53 Co47 2.052 . S
O53 C49 1.241 . S
O54 Co42 2.137 . S
O54 C45 1.247 . S
O55 Co42 2.244 . S
O55 C45 1.272 . S
O55 Co47 2.135 . S
Co56 O57 2.216 . S
Co56 O58 2.091 . S
Co56 O60 2.004 . S
Co56 O66 2.021 . S
Co56 O68 2.137 . S
Co56 O69 2.244 . S
O57 Co56 2.216 . S
O57 C64 1.247 . S
O58 Co56 2.091 . S
O58 C64 1.261 . S
C59 O68 1.247 . S
C59 O69 1.272 . S
O60 Co56 2.004 . S
O60 C65 1.259 . S
Co61 O62 2.061 . S
Co61 O67 2.052 . S
Co61 O69 2.135 . S
O62 Co61 2.061 . S
O62 C65 1.235 . S
C63 O66 1.238 . S
C63 O67 1.241 . S
C64 O57 1.247 . S
C64 O58 1.261 . S
C65 O60 1.259 . S
C65 O62 1.235 . S
O66 Co56 2.021 . S
O66 C63 1.238 . S
O67 Co61 2.052 . S
O67 C63 1.241 . S
O68 Co56 2.137 . S
O68 C59 1.247 . S
O69 Co56 2.244 . S
O69 C59 1.272 . S
O69 Co61 2.135 . S
Co70 O71 2.216 . S
Co70 O72 2.091 . S
Co70 O74 2.004 . S
Co70 O80 2.021 . S
Co70 O82 2.137 . S
Co70 O83 2.244 . S
O71 Co70 2.216 . S
O71 C78 1.247 . S
O72 Co70 2.091 . S
O72 C78 1.261 . S
C73 O82 1.247 . S
C73 O83 1.272 . S
O74 Co70 2.004 . S
O74 C79 1.259 . S
Co75 O76 2.061 . S
Co75 O81 2.052 . S
Co75 O83 2.135 . S
O76 Co75 2.061 . S
O76 C79 1.235 . S
C77 O80 1.238 . S
C77 O81 1.241 . S
C78 O71 1.247 . S
C78 O72 1.261 . S
C79 O74 1.259 . S
C79 O76 1.235 . S
O80 Co70 2.021 . S
O80 C77 1.238 . S
O81 Co75 2.052 . S
O81 C77 1.241 . S
O82 Co70 2.137 . S
O82 C73 1.247 . S
O83 Co70 2.244 . S
O83 C73 1.272 . S
O83 Co75 2.135 . S
Co84 O85 2.216 . S
Co84 O86 2.091 . S
Co84 O88 2.004 . S
Co84 O94 2.021 1_554 S
Co84 O96 2.137 . S
Co84 O97 2.244 . S
O85 Co84 2.216 . S
O85 C92 1.247 . S
O86 Co84 2.091 . S
O86 C92 1.261 . S
C87 O96 1.247 . S
C87 O97 1.272 . S
O88 Co84 2.004 . S
O88 C93 1.259 . S
Co89 O90 2.061 . S
Co89 O95 2.052 1_554 S
Co89 O97 2.135 . S
O90 Co89 2.061 . S
O90 C93 1.235 . S
C91 O94 1.238 . S
C91 O95 1.241 . S
C92 O85 1.247 . S
C92 O86 1.261 . S
C93 O88 1.259 . S
C93 O90 1.235 . S
O94 Co84 2.021 1_556 S
O94 C91 1.238 . S
O95 Co89 2.052 1_556 S
O95 C91 1.241 . S
O96 Co84 2.137 . S
O96 C87 1.247 . S
O97 Co84 2.244 . S
O97 C87 1.272 . S
O97 Co89 2.135 . S
Co98 O99 2.216 . S
Co98 O100 2.091 . S
Co98 O102 2.004 . S
Co98 O108 2.021 . S
Co98 O110 2.137 . S
Co98 O111 2.244 . S
O99 Co98 2.216 . S
O99 C106 1.247 . S
O100 Co98 2.091 . S
O100 C106 1.261 . S
C101 O110 1.247 . S
C101 O111 1.272 . S
O102 Co98 2.004 . S
O102 C107 1.259 . S
Co103 O104 2.061 . S
Co103 O109 2.052 . S
Co103 O111 2.135 . S
O104 Co103 2.061 . S
O104 C107 1.235 . S
C105 O108 1.238 . S
C105 O109 1.241 . S
C106 O99 1.247 . S
C106 O100 1.261 . S
C107 O102 1.259 . S
C107 O104 1.235 . S
O108 Co98 2.021 . S
O108 C105 1.238 . S
O109 Co103 2.052 . S
O109 C105 1.241 . S
O110 Co98 2.137 . S
O110 C101 1.247 . S
O111 Co98 2.244 . S
O111 C101 1.272 . S
O111 Co103 2.135 . S
Co112 O113 2.216 . S
Co112 O114 2.091 . S
Co112 O116 2.004 . S
Co112 O122 2.021 1_554 S
Co112 O124 2.137 . S
Co112 O125 2.244 . S
O113 Co112 2.216 . S
O113 C120 1.247 . S
O114 Co112 2.091 . S
O114 C120 1.261 . S
C115 O124 1.247 . S
C115 O125 1.272 . S
O116 Co112 2.004 . S
O116 C121 1.259 . S
Co117 O118 2.061 . S
Co117 O123 2.052 1_554 S
Co117 O125 2.135 . S
O118 Co117 2.061 . S
O118 C121 1.235 . S
C119 O122 1.238 . S
C119 O123 1.241 . S
C120 O113 1.247 . S
C120 O114 1.261 . S
C121 O116 1.259 . S
C121 O118 1.235 . S
O122 Co112 2.021 1_556 S
O122 C119 1.238 . S
O123 Co117 2.052 1_556 S
O123 C119 1.241 . S
O124 Co112 2.137 . S
O124 C115 1.247 . S
O125 Co112 2.244 . S
O125 C115 1.272 . S
O125 Co117 2.135 . S
Co126 O127 2.216 . S
Co126 O128 2.091 . S
Co126 O130 2.004 . S
Co126 O136 2.021 . S
Co126 O138 2.137 . S
Co126 O139 2.244 . S
O127 Co126 2.216 . S
O127 C134 1.247 . S
O128 Co126 2.091 . S
O128 C134 1.261 . S
C129 O138 1.247 . S
C129 O139 1.272 . S
O130 Co126 2.004 . S
O130 C135 1.259 . S
Co131 O132 2.061 . S
Co131 O137 2.052 . S
Co131 O139 2.135 . S
O132 Co131 2.061 . S
O132 C135 1.235 . S
C133 O136 1.238 . S
C133 O137 1.241 . S
C134 O127 1.247 . S
C134 O128 1.261 . S
C135 O130 1.259 . S
C135 O132 1.235 . S
O136 Co126 2.021 . S
O136 C133 1.238 . S
O137 Co131 2.052 . S
O137 C133 1.241 . S
O138 Co126 2.137 . S
O138 C129 1.247 . S
O139 Co126 2.244 . S
O139 C129 1.272 . S
O139 Co131 2.135 . S
Co140 O141 2.216 . S
Co140 O142 2.091 . S
Co140 O144 2.004 . S
Co140 O150 2.021 . S
Co140 O152 2.137 . S
Co140 O153 2.244 . S
O141 Co140 2.216 . S
O141 C148 1.247 . S
O142 Co140 2.091 . S
O142 C148 1.261 . S
C143 O152 1.247 . S
C143 O153 1.272 . S
O144 Co140 2.004 . S
O144 C149 1.259 . S
Co145 O146 2.061 . S
Co145 O151 2.052 . S
Co145 O153 2.135 . S
O146 Co145 2.061 . S
O146 C149 1.235 . S
C147 O150 1.238 . S
C147 O151 1.241 . S
C148 O141 1.247 . S
C148 O142 1.261 . S
C149 O144 1.259 . S
C149 O146 1.235 . S
O150 Co140 2.021 . S
O150 C147 1.238 . S
O151 Co145 2.052 . S
O151 C147 1.241 . S
O152 Co140 2.137 . S
O152 C143 1.247 . S
O153 Co140 2.244 . S
O153 C143 1.272 . S
O153 Co145 2.135 . S
Co154 O155 2.216 . S
Co154 O156 2.091 . S
Co154 O158 2.004 . S
Co154 O164 2.021 . S
Co154 O166 2.137 . S
Co154 O167 2.244 . S
O155 Co154 2.216 . S
O155 C162 1.247 . S
O156 Co154 2.091 . S
O156 C162 1.261 . S
C157 O166 1.247 . S
C157 O167 1.272 . S
O158 Co154 2.004 . S
O158 C163 1.259 . S
Co159 O160 2.061 . S
Co159 O165 2.052 . S
Co159 O167 2.135 . S
O160 Co159 2.061 . S
O160 C163 1.235 . S
C161 O164 1.238 . S
C161 O165 1.241 . S
C162 O155 1.247 . S
C162 O156 1.261 . S
C163 O158 1.259 . S
C163 O160 1.235 . S
O164 Co154 2.021 . S
O164 C161 1.238 . S
O165 Co159 2.052 . S
O165 C161 1.241 . S
O166 Co154 2.137 . S
O166 C157 1.247 . S
O167 Co154 2.244 . S
O167 C157 1.272 . S
O167 Co159 2.135 . S
Co168 O169 2.216 . S
Co168 O170 2.091 . S
Co168 O172 2.004 . S
Co168 O178 2.021 . S
Co168 O180 2.137 . S
Co168 O181 2.244 . S
O169 Co168 2.216 . S
O169 C176 1.247 . S
O170 Co168 2.091 . S
O170 C176 1.261 . S
C171 O180 1.247 . S
C171 O181 1.272 . S
O172 Co168 2.004 . S
O172 C177 1.259 . S
Co173 O174 2.061 . S
Co173 O179 2.052 . S
Co173 O181 2.135 . S
O174 Co173 2.061 . S
O174 C177 1.235 . S
C175 O178 1.238 . S
C175 O179 1.241 . S
C176 O169 1.247 . S
C176 O170 1.261 . S
C177 O172 1.259 . S
C177 O174 1.235 . S
O178 Co168 2.021 . S
O178 C175 1.238 . S
O179 Co173 2.052 . S
O179 C175 1.241 . S
O180 Co168 2.137 . S
O180 C171 1.247 . S
O181 Co168 2.244 . S
O181 C171 1.272 . S
O181 Co173 2.135 . S
Co182 O183 2.216 . S
Co182 O184 2.091 . S
Co182 O186 2.004 . S
Co182 O192 2.021 . S
Co182 O194 2.137 . S
Co182 O195 2.244 . S
O183 Co182 2.216 . S
O183 C190 1.247 . S
O184 Co182 2.091 . S
O184 C190 1.261 . S
C185 O194 1.247 . S
C185 O195 1.272 . S
O186 Co182 2.004 . S
O186 C191 1.259 . S
Co187 O188 2.061 . S
Co187 O193 2.052 . S
Co187 O195 2.135 . S
O188 Co187 2.061 . S
O188 C191 1.235 . S
C189 O192 1.238 . S
C189 O193 1.241 . S
C190 O183 1.247 . S
C190 O184 1.261 . S
C191 O186 1.259 . S
C191 O188 1.235 . S
O192 Co182 2.021 . S
O192 C189 1.238 . S
O193 Co187 2.052 . S
O193 C189 1.241 . S
O194 Co182 2.137 . S
O194 C185 1.247 . S
O195 Co182 2.244 . S
O195 C185 1.272 . S
O195 Co187 2.135 . S
Co196 O197 2.216 . S
Co196 O198 2.091 . S
Co196 O200 2.004 . S
Co196 O206 2.021 . S
Co196 O208 2.137 1_554 S
Co196 O209 2.244 . S
O197 Co196 2.216 . S
O197 C204 1.247 . S
O198 Co196 2.091 . S
O198 C204 1.261 . S
C199 O208 1.247 . S
C199 O209 1.272 1_556 S
O200 Co196 2.004 . S
O200 C205 1.259 . S
Co201 O202 2.061 . S
Co201 O207 2.052 . S
Co201 O209 2.135 . S
O202 Co201 2.061 . S
O202 C205 1.235 . S
C203 O206 1.238 . S
C203 O207 1.241 . S
C204 O197 1.247 . S
C204 O198 1.261 . S
C205 O200 1.259 . S
C205 O202 1.235 . S
O206 Co196 2.021 . S
O206 C203 1.238 . S
O207 Co201 2.052 . S
O207 C203 1.241 . S
O208 Co196 2.137 1_556 S
O208 C199 1.247 . S
O209 Co196 2.244 . S
O209 C199 1.272 1_554 S
O209 Co201 2.135 . S
Co210 O211 2.216 . S
Co210 O212 2.091 . S
Co210 O214 2.004 . S
Co210 O220 2.021 . S
Co210 O222 2.137 . S
Co210 O223 2.244 . S
O211 Co210 2.216 . S
O211 C218 1.247 . S
O212 Co210 2.091 . S
O212 C218 1.261 . S
C213 O222 1.247 . S
C213 O223 1.272 . S
O214 Co210 2.004 . S
O214 C219 1.259 . S
Co215 O216 2.061 . S
Co215 O221 2.052 . S
Co215 O223 2.135 . S
O216 Co215 2.061 . S
O216 C219 1.235 . S
C217 O220 1.238 . S
C217 O221 1.241 . S
C218 O211 1.247 . S
C218 O212 1.261 . S
C219 O214 1.259 . S
C219 O216 1.235 . S
O220 Co210 2.021 . S
O220 C217 1.238 . S
O221 Co215 2.052 . S
O221 C217 1.241 . S
O222 Co210 2.137 . S
O222 C213 1.247 . S
O223 Co210 2.244 . S
O223 C213 1.272 . S
O223 Co215 2.135 . S
Co224 O225 2.216 . S
Co224 O226 2.091 . S
Co224 O228 2.004 . S
Co224 O234 2.021 . S
Co224 O236 2.137 . S
Co224 O237 2.212 1_565 S
O225 Co224 2.216 . S
O225 C232 1.247 . S
O226 Co224 2.091 . S
O226 C232 1.261 . S
C227 O236 1.247 . S
C227 O237 1.250 1_565 S
O228 Co224 2.004 . S
O228 C233 1.259 . S
Co229 O230 2.061 . S
Co229 O235 2.052 . S
Co229 O237 2.161 . S
O230 Co229 2.061 . S
O230 C233 1.235 1_545 S
C231 O234 1.238 1_545 S
C231 O235 1.241 . S
C232 O225 1.247 . S
C232 O226 1.261 . S
C233 O228 1.259 . S
C233 O230 1.235 1_565 S
O234 Co224 2.021 . S
O234 C231 1.238 1_565 S
O235 Co229 2.052 . S
O235 C231 1.241 . S
O236 Co224 2.137 . S
O236 C227 1.247 . S
O237 Co224 2.212 1_545 S
O237 C227 1.250 1_545 S
O237 Co229 2.161 . S
Co238 O239 2.216 . S
Co238 O240 2.091 . S
Co238 O242 2.004 . S
Co238 O248 2.021 . S
Co238 O250 2.137 . S
Co238 O251 2.244 . S
O239 Co238 2.216 . S
O239 C246 1.247 . S
O240 Co238 2.091 . S
O240 C246 1.261 . S
C241 O250 1.247 . S
C241 O251 1.272 . S
O242 Co238 2.004 . S
O242 C247 1.259 . S
Co243 O244 2.061 . S
Co243 O249 2.052 . S
Co243 O251 2.135 . S
O244 Co243 2.061 . S
O244 C247 1.235 . S
C245 O248 1.238 . S
C245 O249 1.241 . S
C246 O239 1.247 . S
C246 O240 1.261 . S
C247 O242 1.259 . S
C247 O244 1.235 . S
O248 Co238 2.021 . S
O248 C245 1.238 . S
O249 Co243 2.052 . S
O249 C245 1.241 . S
O250 Co238 2.137 . S
O250 C241 1.247 . S
O251 Co238 2.244 . S
O251 C241 1.272 . S
O251 Co243 2.135 . S
Co252 O253 2.216 . S
Co252 O254 2.091 . S
Co252 O256 2.004 . S
Co252 O262 2.021 . S
Co252 O264 2.137 1_554 S
Co252 O265 2.211 1_545 S
O253 Co252 2.216 . S
O253 C260 1.247 . S
O254 Co252 2.091 . S
O254 C260 1.261 . S
C255 O264 1.247 . S
C255 O265 1.249 1_546 S
O256 Co252 2.004 . S
O256 C261 1.259 . S
Co257 O258 2.061 . S
Co257 O263 2.052 . S
Co257 O265 2.162 . S
O258 Co257 2.061 . S
O258 C261 1.235 1_565 S
C259 O262 1.238 1_565 S
C259 O263 1.241 . S
C260 O253 1.247 . S
C260 O254 1.261 . S
C261 O256 1.259 . S
C261 O258 1.235 1_545 S
O262 Co252 2.021 . S
O262 C259 1.238 1_545 S
O263 Co257 2.052 . S
O263 C259 1.241 . S
O264 Co252 2.137 1_556 S
O264 C255 1.247 . S
O265 Co252 2.211 1_565 S
O265 C255 1.249 1_564 S
O265 Co257 2.162 . S
Co266 O267 2.216 . S
Co266 O268 2.091 . S
Co266 O270 2.004 . S
Co266 O276 2.021 . S
Co266 O278 2.137 . S
Co266 O279 2.244 . S
O267 Co266 2.216 . S
O267 C274 1.247 . S
O268 Co266 2.091 . S
O268 C274 1.261 . S
C269 O278 1.247 . S
C269 O279 1.272 . S
O270 Co266 2.004 . S
O270 C275 1.259 . S
Co271 O272 2.061 . S
Co271 O277 2.052 . S
Co271 O279 2.135 . S
O272 Co271 2.061 . S
O272 C275 1.235 . S
C273 O276 1.238 . S
C273 O277 1.241 . S
C274 O267 1.247 . S
C274 O268 1.261 . S
C275 O270 1.259 . S
C275 O272 1.235 . S
O276 Co266 2.021 . S
O276 C273 1.238 . S
O277 Co271 2.052 . S
O277 C273 1.241 . S
O278 Co266 2.137 . S
O278 C269 1.247 . S
O279 Co266 2.244 . S
O279 C269 1.272 . S
O279 Co271 2.135 . S
Co280 O281 2.216 . S
Co280 O282 2.091 . S
Co280 O284 2.004 . S
Co280 O290 2.021 1_554 S
Co280 O292 2.137 . S
Co280 O293 2.209 1_545 S
O281 Co280 2.216 . S
O281 C288 1.247 . S
O282 Co280 2.091 . S
O282 C288 1.261 . S
C283 O292 1.247 . S
C283 O293 1.248 1_545 S
O284 Co280 2.004 . S
O284 C289 1.259 . S
Co285 O286 2.061 . S
Co285 O291 2.052 1_554 S
Co285 O293 2.164 . S
O286 Co285 2.061 . S
O286 C289 1.235 1_565 S
C287 O290 1.238 1_565 S
C287 O291 1.241 . S
C288 O281 1.247 . S
C288 O282 1.261 . S
C289 O284 1.259 . S
C289 O286 1.235 1_545 S
O290 Co280 2.021 1_556 S
O290 C287 1.238 1_545 S
O291 Co285 2.052 1_556 S
O291 C287 1.241 . S
O292 Co280 2.137 . S
O292 C283 1.247 . S
O293 Co280 2.209 1_565 S
O293 C283 1.248 1_565 S
O293 Co285 2.164 . S
Co294 O295 2.216 . S
Co294 O296 2.091 . S
Co294 O298 2.004 . S
Co294 O304 2.021 . S
Co294 O306 2.137 . S
Co294 O307 2.244 . S
O295 Co294 2.216 . S
O295 C302 1.247 . S
O296 Co294 2.091 . S
O296 C302 1.261 . S
C297 O306 1.247 . S
C297 O307 1.272 . S
O298 Co294 2.004 . S
O298 C303 1.259 . S
Co299 O300 2.061 . S
Co299 O305 2.052 . S
Co299 O307 2.135 . S
O300 Co299 2.061 . S
O300 C303 1.235 . S
C301 O304 1.238 . S
C301 O305 1.241 . S
C302 O295 1.247 . S
C302 O296 1.261 . S
C303 O298 1.259 . S
C303 O300 1.235 . S
O304 Co294 2.021 . S
O304 C301 1.238 . S
O305 Co299 2.052 . S
O305 C301 1.241 . S
O306 Co294 2.137 . S
O306 C297 1.247 . S
O307 Co294 2.244 . S
O307 C297 1.272 . S
O307 Co299 2.135 . S
Co308 O309 2.216 . S
Co308 O310 2.091 . S
Co308 O312 2.004 . S
Co308 O318 2.021 . S
Co308 O320 2.137 . S
Co308 O321 2.209 1_565 S
O309 Co308 2.216 . S
O309 C316 1.247 . S
O310 Co308 2.091 . S
O310 C316 1.261 . S
C311 O320 1.247 . S
C311 O321 1.248 1_565 S
O312 Co308 2.004 . S
O312 C317 1.259 . S
Co313 O314 2.061 . S
Co313 O319 2.052 . S
Co313 O321 2.164 . S
O314 Co313 2.061 . S
O314 C317 1.235 1_545 S
C315 O318 1.238 1_545 S
C315 O319 1.241 . S
C316 O309 1.247 . S
C316 O310 1.261 . S
C317 O312 1.259 . S
C317 O314 1.235 1_565 S
O318 Co308 2.021 . S
O318 C315 1.238 1_565 S
O319 Co313 2.052 . S
O319 C315 1.241 . S
O320 Co308 2.137 . S
O320 C311 1.247 . S
O321 Co308 2.209 1_545 S
O321 C311 1.248 1_545 S
O321 Co313 2.164 . S
Co322 O323 2.216 . S
Co322 O324 2.091 . S
Co322 O326 2.004 . S
Co322 O332 2.021 . S
Co322 O334 2.137 . S
Co322 O335 2.244 . S
O323 Co322 2.216 . S
O323 C330 1.247 . S
O324 Co322 2.091 . S
O324 C330 1.261 . S
C325 O334 1.247 . S
C325 O335 1.272 . S
O326 Co322 2.004 . S
O326 C331 1.259 . S
Co327 O328 2.061 . S
Co327 O333 2.052 . S
Co327 O335 2.135 . S
O328 Co327 2.061 . S
O328 C331 1.235 . S
C329 O332 1.238 . S
C329 O333 1.241 . S
C330 O323 1.247 . S
C330 O324 1.261 . S
C331 O326 1.259 . S
C331 O328 1.235 . S
O332 Co322 2.021 . S
O332 C329 1.238 . S
O333 Co327 2.052 . S
O333 C329 1.241 . S
O334 Co322 2.137 . S
O334 C325 1.247 . S
O335 Co322 2.244 . S
O335 C325 1.272 . S
O335 Co327 2.135 . S
Co336 O337 2.216 . S
Co336 O338 2.091 . S
Co336 O340 2.004 . S
Co336 O346 2.021 . S
Co336 O348 2.137 . S
Co336 O349 2.209 1_545 S
O337 Co336 2.216 . S
O337 C344 1.247 . S
O338 Co336 2.091 . S
O338 C344 1.261 . S
C339 O348 1.247 . S
C339 O349 1.248 1_545 S
O340 Co336 2.004 . S
O340 C345 1.259 . S
Co341 O342 2.061 . S
Co341 O347 2.052 . S
Co341 O349 2.164 . S
O342 Co341 2.061 . S
O342 C345 1.235 1_565 S
C343 O346 1.238 1_565 S
C343 O347 1.241 . S
C344 O337 1.247 . S
C344 O338 1.261 . S
C345 O340 1.259 . S
C345 O342 1.235 1_545 S
O346 Co336 2.021 . S
O346 C343 1.238 1_545 S
O347 Co341 2.052 . S
O347 C343 1.241 . S
O348 Co336 2.137 . S
O348 C339 1.247 . S
O349 Co336 2.209 1_565 S
O349 C339 1.248 1_565 S
O349 Co341 2.164 . S
Co350 O351 2.216 . S
Co350 O352 2.091 . S
Co350 O354 2.004 . S
Co350 O360 2.021 . S
Co350 O362 2.137 . S
Co350 O363 2.244 . S
O351 Co350 2.216 . S
O351 C358 1.247 . S
O352 Co350 2.091 . S
O352 C358 1.261 . S
C353 O362 1.247 . S
C353 O363 1.272 . S
O354 Co350 2.004 . S
O354 C359 1.259 . S
Co355 O356 2.061 . S
Co355 O361 2.052 . S
Co355 O363 2.135 . S
O356 Co355 2.061 . S
O356 C359 1.235 . S
C357 O360 1.238 . S
C357 O361 1.241 . S
C358 O351 1.247 . S
C358 O352 1.261 . S
C359 O354 1.259 . S
C359 O356 1.235 . S
O360 Co350 2.021 . S
O360 C357 1.238 . S
O361 Co355 2.052 . S
O361 C357 1.241 . S
O362 Co350 2.137 . S
O362 C353 1.247 . S
O363 Co350 2.244 . S
O363 C353 1.272 . S
O363 Co355 2.135 . S
Co364 O365 2.216 . S
Co364 O366 2.091 . S
Co364 O368 2.004 . S
Co364 O374 2.021 1_554 S
Co364 O376 2.137 . S
Co364 O377 2.209 1_565 S
O365 Co364 2.216 . S
O365 C372 1.247 . S
O366 Co364 2.091 . S
O366 C372 1.261 . S
C367 O376 1.247 . S
C367 O377 1.248 1_565 S
O368 Co364 2.004 . S
O368 C373 1.259 . S
Co369 O370 2.061 . S
Co369 O375 2.052 1_554 S
Co369 O377 2.164 . S
O370 Co369 2.061 . S
O370 C373 1.235 1_545 S
C371 O374 1.238 1_545 S
C371 O375 1.241 . S
C372 O365 1.247 . S
C372 O366 1.261 . S
C373 O368 1.259 . S
C373 O370 1.235 1_565 S
O374 Co364 2.021 1_556 S
O374 C371 1.238 1_565 S
O375 Co369 2.052 1_556 S
O375 C371 1.241 . S
O376 Co364 2.137 . S
O376 C367 1.247 . S
O377 Co364 2.209 1_545 S
O377 C367 1.248 1_545 S
O377 Co369 2.164 . S
Co378 O379 2.216 . S
Co378 O380 2.091 . S
Co378 O382 2.004 . S
Co378 O388 2.021 . S
Co378 O390 2.137 . S
Co378 O391 2.244 . S
O379 Co378 2.216 . S
O379 C386 1.247 . S
O380 Co378 2.091 . S
O380 C386 1.261 . S
C381 O390 1.247 . S
C381 O391 1.272 . S
O382 Co378 2.004 . S
O382 C387 1.259 . S
Co383 O384 2.061 . S
Co383 O389 2.052 . S
Co383 O391 2.135 . S
O384 Co383 2.061 . S
O384 C387 1.235 . S
C385 O388 1.238 . S
C385 O389 1.241 . S
C386 O379 1.247 . S
C386 O380 1.261 . S
C387 O382 1.259 . S
C387 O384 1.235 . S
O388 Co378 2.021 . S
O388 C385 1.238 . S
O389 Co383 2.052 . S
O389 C385 1.241 . S
O390 Co378 2.137 . S
O390 C381 1.247 . S
O391 Co378 2.244 . S
O391 C381 1.272 . S
O391 Co383 2.135 . S
Co392 O393 2.216 . S
Co392 O394 2.091 . S
Co392 O396 2.004 . S
Co392 O402 2.021 . S
Co392 O404 2.137 1_554 S
Co392 O405 2.211 1_565 S
O393 Co392 2.216 . S
O393 C400 1.247 . S
O394 Co392 2.091 . S
O394 C400 1.261 . S
C395 O404 1.247 . S
C395 O405 1.249 1_566 S
O396 Co392 2.004 . S
O396 C401 1.259 . S
Co397 O398 2.061 . S
Co397 O403 2.052 . S
Co397 O405 2.162 . S
O398 Co397 2.061 . S
O398 C401 1.235 1_545 S
C399 O402 1.238 1_545 S
C399 O403 1.241 . S
C400 O393 1.247 . S
C400 O394 1.261 . S
C401 O396 1.259 . S
C401 O398 1.235 1_565 S
O402 Co392 2.021 . S
O402 C399 1.238 1_565 S
O403 Co397 2.052 . S
O403 C399 1.241 . S
O404 Co392 2.137 1_556 S
O404 C395 1.247 . S
O405 Co392 2.211 1_545 S
O405 C395 1.249 1_544 S
O405 Co397 2.162 . S
Co406 O407 2.216 . S
Co406 O408 2.091 . S
Co406 O410 2.004 . S
Co406 O416 2.021 . S
Co406 O418 2.137 . S
Co406 O419 2.244 . S
O407 Co406 2.216 . S
O407 C414 1.247 . S
O408 Co406 2.091 . S
O408 C414 1.261 . S
C409 O418 1.247 . S
C409 O419 1.272 . S
O410 Co406 2.004 . S
O410 C415 1.259 . S
Co411 O412 2.061 . S
Co411 O417 2.052 . S
Co411 O419 2.135 . S
O412 Co411 2.061 . S
O412 C415 1.235 . S
C413 O416 1.238 . S
C413 O417 1.241 . S
C414 O407 1.247 . S
C414 O408 1.261 . S
C415 O410 1.259 . S
C415 O412 1.235 . S
O416 Co406 2.021 . S
O416 C413 1.238 . S
O417 Co411 2.052 . S
O417 C413 1.241 . S
O418 Co406 2.137 . S
O418 C409 1.247 . S
O419 Co406 2.244 . S
O419 C409 1.272 . S
O419 Co411 2.135 . S
Co420 O421 2.216 . S
Co420 O422 2.091 . S
Co420 O424 2.004 . S
Co420 O430 2.021 . S
Co420 O432 2.137 . S
Co420 O433 2.212 1_545 S
O421 Co420 2.216 . S
O421 C428 1.247 . S
O422 Co420 2.091 . S
O422 C428 1.261 . S
C423 O432 1.247 . S
C423 O433 1.250 1_545 S
O424 Co420 2.004 . S
O424 C429 1.259 . S
Co425 O426 2.061 . S
Co425 O431 2.052 . S
Co425 O433 2.161 . S
O426 Co425 2.061 . S
O426 C429 1.235 1_565 S
C427 O430 1.238 1_565 S
C427 O431 1.241 . S
C428 O421 1.247 . S
C428 O422 1.261 . S
C429 O424 1.259 . S
C429 O426 1.235 1_545 S
O430 Co420 2.021 . S
O430 C427 1.238 1_545 S
O431 Co425 2.052 . S
O431 C427 1.241 . S
O432 Co420 2.137 . S
O432 C423 1.247 . S
O433 Co420 2.212 1_565 S
O433 C423 1.250 1_565 S
O433 Co425 2.161 . S
Co434 O435 2.216 . S
Co434 O436 2.091 . S
Co434 O438 2.004 . S
Co434 O444 2.021 . S
Co434 O446 2.137 . S
Co434 O447 2.244 . S
O435 Co434 2.216 . S
O435 C442 1.247 . S
O436 Co434 2.091 . S
O436 C442 1.261 . S
C437 O446 1.247 . S
C437 O447 1.272 . S
O438 Co434 2.004 . S
O438 C443 1.259 . S
Co439 O440 2.061 . S
Co439 O445 2.052 . S
Co439 O447 2.135 . S
O440 Co439 2.061 . S
O440 C443 1.235 . S
C441 O444 1.238 . S
C441 O445 1.241 . S
C442 O435 1.247 . S
C442 O436 1.261 . S
C443 O438 1.259 . S
C443 O440 1.235 . S
O444 Co434 2.021 . S
O444 C441 1.238 . S
O445 Co439 2.052 . S
O445 C441 1.241 . S
O446 Co434 2.137 . S
O446 C437 1.247 . S
O447 Co434 2.244 . S
O447 C437 1.272 . S
O447 Co439 2.135 . S
H448 C454 0.930 1_556 S
H449 C457 0.930 . S
H450 C458 0.925 1_455 S
H451 C459 0.930 . S
H452 C462 0.930 . S
H453 C463 0.925 1_655 S
C454 H448 0.930 1_554 S
C454 C455 1.355 . S
C454 C456 1.415 . S
C455 C454 1.355 . S
C455 C457 1.419 . S
C456 C454 1.415 . S
C456 C461 1.425 1_655 S
C456 C463 1.409 1_654 S
C457 H449 0.930 . S
C457 C455 1.419 . S
C457 C458 1.362 . S
C458 H450 0.925 1_655 S
C458 C457 1.362 . S
C458 C461 1.409 1_655 S
C459 H451 0.930 . S
C459 C460 1.355 . S
C459 C461 1.415 . S
C460 C459 1.355 . S
C460 C462 1.419 1_554 S
C461 C456 1.425 1_455 S
C461 C458 1.409 1_455 S
C461 C459 1.415 . S
C462 H452 0.930 . S
C462 C460 1.419 1_556 S
C462 C463 1.362 . S
C463 H453 0.925 1_455 S
C463 C456 1.409 1_456 S
C463 C462 1.362 . S
H464 C470 0.930 . S
H465 C473 0.930 . S
H466 C474 0.930 . S
H467 C475 0.930 . S
H468 C478 0.930 . S
H469 C479 0.930 . S
C470 H464 0.930 . S
C470 C471 1.355 . S
C470 C472 1.415 . S
C471 C470 1.355 . S
C471 C473 1.419 . S
C472 C470 1.415 . S
C472 C477 1.425 . S
C472 C479 1.409 . S
C473 H465 0.930 . S
C473 C471 1.419 . S
C473 C474 1.362 . S
C474 H466 0.930 . S
C474 C473 1.362 . S
C474 C477 1.409 . S
C475 H467 0.930 . S
C475 C476 1.355 . S
C475 C477 1.415 . S
C476 C475 1.355 . S
C476 C478 1.419 . S
C477 C472 1.425 . S
C477 C474 1.409 . S
C477 C475 1.415 . S
C478 H468 0.930 . S
C478 C476 1.419 . S
C478 C479 1.362 . S
C479 H469 0.930 . S
C479 C472 1.409 . S
C479 C478 1.362 . S
H480 C486 0.930 . S
H481 C489 0.930 . S
H482 C490 0.930 . S
H483 C491 0.930 . S
H484 C494 0.930 . S
H485 C495 0.930 . S
C486 H480 0.930 . S
C486 C487 1.355 . S
C486 C488 1.415 . S
C487 C486 1.355 . S
C487 C489 1.419 . S
C488 C486 1.415 . S
C488 C493 1.425 . S
C488 C495 1.409 . S
C489 H481 0.930 . S
C489 C487 1.419 . S
C489 C490 1.362 . S
C490 H482 0.930 . S
C490 C489 1.362 . S
C490 C493 1.409 . S
C491 H483 0.930 . S
C491 C492 1.355 . S
C491 C493 1.415 . S
C492 C491 1.355 . S
C492 C494 1.419 . S
C493 C488 1.425 . S
C493 C490 1.409 . S
C493 C491 1.415 . S
C494 H484 0.930 . S
C494 C492 1.419 . S
C494 C495 1.362 . S
C495 H485 0.930 . S
C495 C488 1.409 . S
C495 C494 1.362 . S
H496 C502 0.930 . S
H497 C505 0.930 . S
H498 C506 0.930 . S
H499 C507 0.930 . S
H500 C510 0.930 . S
H501 C511 0.930 . S
C502 H496 0.930 . S
C502 C503 1.355 . S
C502 C504 1.415 . S
C503 C502 1.355 . S
C503 C505 1.419 . S
C504 C502 1.415 . S
C504 C509 1.425 . S
C504 C511 1.409 . S
C505 H497 0.930 . S
C505 C503 1.419 . S
C505 C506 1.362 . S
C506 H498 0.930 . S
C506 C505 1.362 . S
C506 C509 1.409 . S
C507 H499 0.930 . S
C507 C508 1.355 . S
C507 C509 1.415 . S
C508 C507 1.355 . S
C508 C510 1.419 . S
C509 C504 1.425 . S
C509 C506 1.409 . S
C509 C507 1.415 . S
C510 H500 0.930 . S
C510 C508 1.419 . S
C510 C511 1.362 . S
C511 H501 0.930 . S
C511 C504 1.409 . S
C511 C510 1.362 . S
H512 C518 0.930 . S
H513 C521 0.930 . S
H514 C522 0.930 . S
H515 C523 0.930 . S
H516 C526 0.930 . S
H517 C527 0.930 . S
C518 H512 0.930 . S
C518 C519 1.355 . S
C518 C520 1.412 1_455 S
C519 C518 1.355 . S
C519 C521 1.419 . S
C520 C518 1.412 1_655 S
C520 C525 1.425 1_655 S
C520 C527 1.412 . S
C521 H513 0.930 . S
C521 C519 1.419 . S
C521 C522 1.362 . S
C522 H514 0.930 . S
C522 C521 1.362 . S
C522 C525 1.412 . S
C523 H515 0.930 . S
C523 C524 1.355 . S
C523 C525 1.412 1_655 S
C524 C523 1.355 . S
C524 C526 1.419 . S
C525 C520 1.425 1_455 S
C525 C522 1.412 . S
C525 C523 1.412 1_455 S
C526 H516 0.930 . S
C526 C524 1.419 . S
C526 C527 1.362 . S
C527 H517 0.930 . S
C527 C520 1.412 . S
C527 C526 1.362 . S
H528 C534 0.930 . S
H529 C537 0.930 . S
H530 C538 0.930 . S
H531 C539 0.930 . S
H532 C542 0.930 . S
H533 C543 0.930 . S
C534 H528 0.930 . S
C534 C535 1.355 . S
C534 C536 1.415 . S
C535 C534 1.355 . S
C535 C537 1.419 . S
C536 C534 1.415 . S
C536 C541 1.425 . S
C536 C543 1.409 . S
C537 H529 0.930 . S
C537 C535 1.419 . S
C537 C538 1.362 . S
C538 H530 0.930 . S
C538 C537 1.362 . S
C538 C541 1.409 . S
C539 H531 0.930 . S
C539 C540 1.355 . S
C539 C541 1.415 . S
C540 C539 1.355 . S
C540 C542 1.419 . S
C541 C536 1.425 . S
C541 C538 1.409 . S
C541 C539 1.415 . S
C542 H532 0.930 . S
C542 C540 1.419 . S
C542 C543 1.362 . S
C543 H533 0.930 . S
C543 C536 1.409 . S
C543 C542 1.362 . S
H544 C550 0.930 . S
H545 C553 0.930 . S
H546 C554 0.930 . S
H547 C555 0.930 . S
H548 C558 0.930 . S
H549 C559 0.930 . S
C550 H544 0.930 . S
C550 C551 1.355 . S
C550 C552 1.415 . S
C551 C550 1.355 . S
C551 C553 1.419 . S
C552 C550 1.415 . S
C552 C557 1.425 . S
C552 C559 1.409 . S
C553 H545 0.930 . S
C553 C551 1.419 . S
C553 C554 1.362 . S
C554 H546 0.930 . S
C554 C553 1.362 . S
C554 C557 1.409 . S
C555 H547 0.930 . S
C555 C556 1.355 . S
C555 C557 1.415 . S
C556 C555 1.355 . S
C556 C558 1.419 . S
C557 C552 1.425 . S
C557 C554 1.409 . S
C557 C555 1.415 . S
C558 H548 0.930 . S
C558 C556 1.419 . S
C558 C559 1.362 . S
C559 H549 0.930 . S
C559 C552 1.409 . S
C559 C558 1.362 . S
H560 C566 0.930 . S
H561 C569 0.930 . S
H562 C570 0.930 . S
H563 C571 0.930 . S
H564 C574 0.930 . S
H565 C575 0.930 . S
C566 H560 0.930 . S
C566 C567 1.355 . S
C566 C568 1.415 . S
C567 C566 1.355 . S
C567 C569 1.419 . S
C568 C566 1.415 . S
C568 C573 1.425 . S
C568 C575 1.409 . S
C569 H561 0.930 . S
C569 C567 1.419 . S
C569 C570 1.362 . S
C570 H562 0.930 . S
C570 C569 1.362 . S
C570 C573 1.409 . S
C571 H563 0.930 . S
C571 C572 1.355 . S
C571 C573 1.415 . S
C572 C571 1.355 . S
C572 C574 1.419 . S
C573 C568 1.425 . S
C573 C570 1.409 . S
C573 C571 1.415 . S
C574 H564 0.930 . S
C574 C572 1.419 . S
C574 C575 1.362 . S
C575 H565 0.930 . S
C575 C568 1.409 . S
C575 C574 1.362 . S
H576 C582 0.930 . S
H577 C585 0.930 . S
H578 C586 0.930 . S
H579 C587 0.930 . S
H580 C590 0.930 . S
H581 C591 0.930 . S
C582 H576 0.930 . S
C582 C583 1.355 . S
C582 C584 1.415 . S
C583 C582 1.355 . S
C583 C585 1.419 . S
C584 C582 1.415 . S
C584 C589 1.425 . S
C584 C591 1.409 . S
C585 H577 0.930 . S
C585 C583 1.419 . S
C585 C586 1.362 . S
C586 H578 0.930 . S
C586 C585 1.362 . S
C586 C589 1.409 . S
C587 H579 0.930 . S
C587 C588 1.355 . S
C587 C589 1.415 . S
C588 C587 1.355 . S
C588 C590 1.419 . S
C589 C584 1.425 . S
C589 C586 1.409 . S
C589 C587 1.415 . S
C590 H580 0.930 . S
C590 C588 1.419 . S
C590 C591 1.362 . S
C591 H581 0.930 . S
C591 C584 1.409 . S
C591 C590 1.362 . S
H592 C598 0.930 . S
H593 C601 0.930 . S
H594 C602 0.930 . S
H595 C603 0.930 . S
H596 C606 0.930 . S
H597 C607 0.930 . S
C598 H592 0.930 . S
C598 C599 1.355 . S
C598 C600 1.415 . S
C599 C598 1.355 . S
C599 C601 1.419 . S
C600 C598 1.415 . S
C600 C605 1.425 . S
C600 C607 1.409 . S
C601 H593 0.930 . S
C601 C599 1.419 . S
C601 C602 1.362 . S
C602 H594 0.930 . S
C602 C601 1.362 . S
C602 C605 1.409 . S
C603 H595 0.930 . S
C603 C604 1.355 . S
C603 C605 1.415 . S
C604 C603 1.355 . S
C604 C606 1.419 . S
C605 C600 1.425 . S
C605 C602 1.409 . S
C605 C603 1.415 . S
C606 H596 0.930 . S
C606 C604 1.419 . S
C606 C607 1.362 . S
C607 H597 0.930 . S
C607 C600 1.409 . S
C607 C606 1.362 . S
H608 C614 0.930 . S
H609 C617 0.930 . S
H610 C618 0.930 . S
H611 C619 0.930 . S
H612 C622 0.930 . S
H613 C623 0.930 . S
C614 H608 0.930 . S
C614 C615 1.355 . S
C614 C616 1.415 . S
C615 C614 1.355 . S
C615 C617 1.419 . S
C616 C614 1.415 . S
C616 C621 1.425 . S
C616 C623 1.409 . S
C617 H609 0.930 . S
C617 C615 1.419 . S
C617 C618 1.362 . S
C618 H610 0.930 . S
C618 C617 1.362 . S
C618 C621 1.409 . S
C619 H611 0.930 . S
C619 C620 1.355 . S
C619 C621 1.415 . S
C620 C619 1.355 . S
C620 C622 1.419 . S
C621 C616 1.425 . S
C621 C618 1.409 . S
C621 C619 1.415 . S
C622 H612 0.930 . S
C622 C620 1.419 . S
C622 C623 1.362 . S
C623 H613 0.930 . S
C623 C616 1.409 . S
C623 C622 1.362 . S
H624 C630 0.930 . S
H625 C633 0.930 . S
H626 C634 0.930 . S
H627 C635 0.930 . S
H628 C638 0.930 . S
H629 C639 0.930 . S
C630 H624 0.930 . S
C630 C631 1.355 . S
C630 C632 1.415 . S
C631 C630 1.355 . S
C631 C633 1.419 . S
C632 C630 1.415 . S
C632 C637 1.425 . S
C632 C639 1.409 . S
C633 H625 0.930 . S
C633 C631 1.419 . S
C633 C634 1.362 . S
C634 H626 0.930 . S
C634 C633 1.362 . S
C634 C637 1.409 . S
C635 H627 0.930 . S
C635 C636 1.355 . S
C635 C637 1.415 . S
C636 C635 1.355 . S
C636 C638 1.419 . S
C637 C632 1.425 . S
C637 C634 1.409 . S
C637 C635 1.415 . S
C638 H628 0.930 . S
C638 C636 1.419 . S
C638 C639 1.362 . S
C639 H629 0.930 . S
C639 C632 1.409 . S
C639 C638 1.362 . S
H640 C646 0.930 . S
H641 C649 0.930 . S
H642 C650 0.930 . S
H643 C651 0.930 . S
H644 C654 0.930 . S
H645 C655 0.930 . S
C646 H640 0.930 . S
C646 C647 1.355 . S
C646 C648 1.415 . S
C647 C646 1.355 . S
C647 C649 1.419 1_545 S
C648 C646 1.415 . S
C648 C653 1.425 1_545 S
C648 C655 1.409 . S
C649 H641 0.930 . S
C649 C647 1.419 1_565 S
C649 C650 1.362 . S
C650 H642 0.930 . S
C650 C649 1.362 . S
C650 C653 1.409 . S
C651 H643 0.930 . S
C651 C652 1.355 . S
C651 C653 1.415 . S
C652 C651 1.355 . S
C652 C654 1.419 1_565 S
C653 C648 1.425 1_565 S
C653 C650 1.409 . S
C653 C651 1.415 . S
C654 H644 0.930 . S
C654 C652 1.419 1_545 S
C654 C655 1.362 . S
C655 H645 0.930 . S
C655 C648 1.409 . S
C655 C654 1.362 . S
H656 C662 0.930 . S
H657 C665 0.930 . S
H658 C666 0.930 1_455 S
H659 C667 0.930 . S
H660 C670 0.930 . S
H661 C671 0.930 1_655 S
C662 H656 0.930 . S
C662 C663 1.355 1_565 S
C662 C664 1.415 . S
C663 C662 1.355 1_545 S
C663 C665 1.419 . S
C664 C662 1.415 . S
C664 C669 1.425 1_665 S
C664 C671 1.409 1_655 S
C665 H657 0.930 . S
C665 C663 1.419 . S
C665 C666 1.362 . S
C666 H658 0.930 1_655 S
C666 C665 1.362 . S
C666 C669 1.409 1_655 S
C667 H659 0.930 . S
C667 C668 1.355 1_545 S
C667 C669 1.415 . S
C668 C667 1.355 1_565 S
C668 C670 1.419 . S
C669 C664 1.425 1_445 S
C669 C666 1.409 1_455 S
C669 C667 1.415 . S
C670 H660 0.930 . S
C670 C668 1.419 . S
C670 C671 1.362 . S
C671 H661 0.930 1_455 S
C671 C664 1.409 1_455 S
C671 C670 1.362 . S
H672 C678 0.930 . S
H673 C681 0.930 . S
H674 C682 0.930 . S
H675 C683 0.930 . S
H676 C686 0.930 . S
H677 C687 0.930 . S
C678 H672 0.930 . S
C678 C679 1.355 1_565 S
C678 C680 1.415 . S
C679 C678 1.355 1_545 S
C679 C681 1.419 . S
C680 C678 1.415 . S
C680 C685 1.425 1_565 S
C680 C687 1.409 . S
C681 H673 0.930 . S
C681 C679 1.419 . S
C681 C682 1.362 . S
C682 H674 0.930 . S
C682 C681 1.362 . S
C682 C685 1.409 . S
C683 H675 0.930 . S
C683 C684 1.355 1_545 S
C683 C685 1.415 . S
C684 C683 1.355 1_565 S
C684 C686 1.419 . S
C685 C680 1.425 1_545 S
C685 C682 1.409 . S
C685 C683 1.415 . S
C686 H676 0.930 . S
C686 C684 1.419 . S
C686 C687 1.362 . S
C687 H677 0.930 . S
C687 C680 1.409 . S
C687 C686 1.362 . S
H688 C694 0.930 . S
H689 C697 0.930 . S
H690 C698 0.899 1_655 S
H691 C699 0.930 . S
H692 C702 0.930 . S
H693 C703 0.899 1_455 S
C694 H688 0.930 . S
C694 C695 1.355 1_565 S
C694 C696 1.415 . S
C695 C694 1.355 1_545 S
C695 C697 1.419 . S
C696 C694 1.415 . S
C696 C701 1.425 1_465 S
C696 C703 1.391 1_455 S
C697 H689 0.930 . S
C697 C695 1.419 . S
C697 C698 1.412 . S
C698 H690 0.899 1_455 S
C698 C697 1.412 . S
C698 C701 1.391 1_455 S
C699 H691 0.930 . S
C699 C700 1.355 1_545 S
C699 C701 1.415 . S
C700 C699 1.355 1_565 S
C700 C702 1.419 . S
C701 C696 1.425 1_645 S
C701 C698 1.391 1_655 S
C701 C699 1.415 . S
C702 H692 0.930 . S
C702 C700 1.419 . S
C702 C703 1.412 . S
C703 H693 0.899 1_655 S
C703 C696 1.391 1_655 S
C703 C702 1.412 . S
H704 C710 0.930 . S
H705 C713 0.930 . S
H706 C714 0.930 . S
H707 C715 0.930 . S
H708 C718 0.930 . S
H709 C719 0.930 . S
C710 H704 0.930 . S
C710 C711 1.355 . S
C710 C712 1.415 . S
C711 C710 1.355 . S
C711 C713 1.419 . S
C712 C710 1.415 . S
C712 C717 1.425 . S
C712 C719 1.409 . S
C713 H705 0.930 . S
C713 C711 1.419 . S
C713 C714 1.362 . S
C714 H706 0.930 . S
C714 C713 1.362 . S
C714 C717 1.409 . S
C715 H707 0.930 . S
C715 C716 1.355 . S
C715 C717 1.415 . S
C716 C715 1.355 . S
C716 C718 1.419 . S
C717 C712 1.425 . S
C717 C714 1.409 . S
C717 C715 1.415 . S
C718 H708 0.930 . S
C718 C716 1.419 . S
C718 C719 1.362 . S
C719 H709 0.930 . S
C719 C712 1.409 . S
C719 C718 1.362 . S
H720 C726 0.930 . S
H721 C729 0.930 . S
H722 C730 0.930 . S
H723 C731 0.930 . S
H724 C734 0.930 . S
H725 C735 0.930 . S
C726 H720 0.930 . S
C726 C727 1.355 . S
C726 C728 1.415 1_556 S
C727 C726 1.355 . S
C727 C729 1.419 . S
C728 C726 1.415 1_554 S
C728 C733 1.425 . S
C728 C735 1.409 . S
C729 H721 0.930 . S
C729 C727 1.419 . S
C729 C730 1.362 1_556 S
C730 H722 0.930 . S
C730 C729 1.362 1_554 S
C730 C733 1.409 . S
C731 H723 0.930 . S
C731 C732 1.355 . S
C731 C733 1.415 . S
C732 C731 1.355 . S
C732 C734 1.419 . S
C733 C728 1.425 . S
C733 C730 1.409 . S
C733 C731 1.415 . S
C734 H724 0.930 . S
C734 C732 1.419 . S
C734 C735 1.362 . S
C735 H725 0.930 . S
C735 C728 1.409 . S
C735 C734 1.362 . S
H736 C742 0.930 . S
H737 C745 0.930 . S
H738 C746 0.930 . S
H739 C747 0.930 . S
H740 C750 0.930 . S
H741 C751 0.930 . S
C742 H736 0.930 . S
C742 C743 1.355 . S
C742 C744 1.415 . S
C743 C742 1.355 . S
C743 C745 1.419 . S
C744 C742 1.415 . S
C744 C749 1.425 . S
C744 C751 1.409 . S
C745 H737 0.930 . S
C745 C743 1.419 . S
C745 C746 1.362 . S
C746 H738 0.930 . S
C746 C745 1.362 . S
C746 C749 1.409 . S
C747 H739 0.930 . S
C747 C748 1.355 . S
C747 C749 1.415 . S
C748 C747 1.355 . S
C748 C750 1.419 . S
C749 C744 1.425 . S
C749 C746 1.409 . S
C749 C747 1.415 . S
C750 H740 0.930 . S
C750 C748 1.419 . S
C750 C751 1.362 . S
C751 H741 0.930 . S
C751 C744 1.409 . S
C751 C750 1.362 . S
H752 C758 0.930 . S
H753 C761 0.930 . S
H754 C762 0.930 . S
H755 C763 0.930 . S
H756 C766 0.930 . S
H757 C767 0.930 . S
C758 H752 0.930 . S
C758 C759 1.355 . S
C758 C760 1.415 . S
C759 C758 1.355 . S
C759 C761 1.419 . S
C760 C758 1.415 . S
C760 C765 1.425 . S
C760 C767 1.409 . S
C761 H753 0.930 . S
C761 C759 1.419 . S
C761 C762 1.362 . S
C762 H754 0.930 . S
C762 C761 1.362 . S
C762 C765 1.409 . S
C763 H755 0.930 . S
C763 C764 1.355 . S
C763 C765 1.415 . S
C764 C763 1.355 . S
C764 C766 1.419 . S
C765 C760 1.425 . S
C765 C762 1.409 . S
C765 C763 1.415 . S
C766 H756 0.930 . S
C766 C764 1.419 . S
C766 C767 1.362 . S
C767 H757 0.930 . S
C767 C760 1.409 . S
C767 C766 1.362 . S
H768 C774 0.930 . S
H769 C777 0.930 . S
H770 C778 0.930 . S
H771 C779 0.930 . S
H772 C782 0.930 . S
H773 C783 0.930 . S
C774 H768 0.930 . S
C774 C775 1.355 . S
C774 C776 1.415 . S
C775 C774 1.355 . S
C775 C777 1.419 . S
C776 C774 1.415 . S
C776 C781 1.425 . S
C776 C783 1.409 . S
C777 H769 0.930 . S
C777 C775 1.419 . S
C777 C778 1.362 . S
C778 H770 0.930 . S
C778 C777 1.362 . S
C778 C781 1.409 . S
C779 H771 0.930 . S
C779 C780 1.355 . S
C779 C781 1.415 . S
C780 C779 1.355 . S
C780 C782 1.419 . S
C781 C776 1.425 . S
C781 C778 1.409 . S
C781 C779 1.415 . S
C782 H772 0.930 . S
C782 C780 1.419 . S
C782 C783 1.362 . S
C783 H773 0.930 . S
C783 C776 1.409 . S
C783 C782 1.362 . S
H784 C790 0.930 . S
H785 C793 0.930 . S
H786 C794 0.930 . S
H787 C795 0.930 . S
H788 C798 0.930 . S
H789 C799 0.930 . S
C790 H784 0.930 . S
C790 C791 1.355 . S
C790 C792 1.415 1_556 S
C791 C790 1.355 . S
C791 C793 1.419 . S
C792 C790 1.415 1_554 S
C792 C797 1.425 . S
C792 C799 1.409 . S
C793 H785 0.930 . S
C793 C791 1.419 . S
C793 C794 1.362 1_556 S
C794 H786 0.930 . S
C794 C793 1.362 1_554 S
C794 C797 1.409 . S
C795 H787 0.930 . S
C795 C796 1.355 . S
C795 C797 1.415 . S
C796 C795 1.355 . S
C796 C798 1.419 . S
C797 C792 1.425 . S
C797 C794 1.409 . S
C797 C795 1.415 . S
C798 H788 0.930 . S
C798 C796 1.419 . S
C798 C799 1.362 . S
C799 H789 0.930 . S
C799 C792 1.409 . S
C799 C798 1.362 . S
H800 C806 0.930 . S
H801 C809 0.930 . S
H802 C810 0.930 . S
H803 C811 0.930 . S
H804 C814 0.930 . S
H805 C815 0.930 . S
C806 H800 0.930 . S
C806 C807 1.355 . S
C806 C808 1.415 . S
C807 C806 1.355 . S
C807 C809 1.419 . S
C808 C806 1.415 . S
C808 C813 1.425 . S
C808 C815 1.409 . S
C809 H801 0.930 . S
C809 C807 1.419 . S
C809 C810 1.362 . S
C810 H802 0.930 . S
C810 C809 1.362 . S
C810 C813 1.409 . S
C811 H803 0.930 . S
C811 C812 1.355 . S
C811 C813 1.415 . S
C812 C811 1.355 . S
C812 C814 1.419 . S
C813 C808 1.425 . S
C813 C810 1.409 . S
C813 C811 1.415 . S
C814 H804 0.930 . S
C814 C812 1.419 . S
C814 C815 1.362 . S
C815 H805 0.930 . S
C815 C808 1.409 . S
C815 C814 1.362 . S
H816 C822 0.930 . S
H817 C825 0.930 . S
H818 C826 0.930 . S
H819 C827 0.930 . S
H820 C830 0.930 . S
H821 C831 0.930 . S
C822 H816 0.930 . S
C822 C823 1.355 . S
C822 C824 1.415 . S
C823 C822 1.355 . S
C823 C825 1.419 . S
C824 C822 1.415 . S
C824 C829 1.425 . S
C824 C831 1.409 . S
C825 H817 0.930 . S
C825 C823 1.419 . S
C825 C826 1.362 . S
C826 H818 0.930 . S
C826 C825 1.362 . S
C826 C829 1.409 . S
C827 H819 0.930 . S
C827 C828 1.355 . S
C827 C829 1.415 . S
C828 C827 1.355 . S
C828 C830 1.419 . S
C829 C824 1.425 . S
C829 C826 1.409 . S
C829 C827 1.415 . S
C830 H820 0.930 . S
C830 C828 1.419 . S
C830 C831 1.362 . S
C831 H821 0.930 . S
C831 C824 1.409 . S
C831 C830 1.362 . S
H832 C838 0.930 . S
H833 C841 0.930 . S
H834 C842 0.930 . S
H835 C843 0.930 . S
H836 C846 0.930 . S
H837 C847 0.930 . S
C838 H832 0.930 . S
C838 C839 1.355 1_565 S
C838 C840 1.415 . S
C839 C838 1.355 1_545 S
C839 C841 1.419 . S
C840 C838 1.415 . S
C840 C845 1.425 1_565 S
C840 C847 1.409 . S
C841 H833 0.930 . S
C841 C839 1.419 . S
C841 C842 1.362 . S
C842 H834 0.930 . S
C842 C841 1.362 . S
C842 C845 1.409 . S
C843 H835 0.930 . S
C843 C844 1.355 1_545 S
C843 C845 1.415 . S
C844 C843 1.355 1_565 S
C844 C846 1.419 . S
C845 C840 1.425 1_545 S
C845 C842 1.409 . S
C845 C843 1.415 . S
C846 H836 0.930 . S
C846 C844 1.419 . S
C846 C847 1.362 . S
C847 H837 0.930 . S
C847 C840 1.409 . S
C847 C846 1.362 . S
H848 C854 0.930 . S
H849 C857 0.930 . S
H850 C858 0.930 . S
H851 C859 0.930 . S
H852 C862 0.930 . S
H853 C863 0.930 . S
C854 H848 0.930 . S
C854 C855 1.355 . S
C854 C856 1.415 . S
C855 C854 1.355 . S
C855 C857 1.419 . S
C856 C854 1.415 . S
C856 C861 1.425 . S
C856 C863 1.409 . S
C857 H849 0.930 . S
C857 C855 1.419 . S
C857 C858 1.362 . S
C858 H850 0.930 . S
C858 C857 1.362 . S
C858 C861 1.409 . S
C859 H851 0.930 . S
C859 C860 1.355 . S
C859 C861 1.415 . S
C860 C859 1.355 . S
C860 C862 1.419 . S
C861 C856 1.425 . S
C861 C858 1.409 . S
C861 C859 1.415 . S
C862 H852 0.930 . S
C862 C860 1.419 . S
C862 C863 1.362 . S
C863 H853 0.930 . S
C863 C856 1.409 . S
C863 C862 1.362 . S
H864 C870 0.930 . S
H865 C873 0.930 . S
H866 C874 0.930 . S
H867 C875 0.930 . S
H868 C878 0.930 . S
H869 C879 0.930 . S
C870 H864 0.930 . S
C870 C871 1.355 . S
C870 C872 1.415 . S
C871 C870 1.355 . S
C871 C873 1.419 1_545 S
C872 C870 1.415 . S
C872 C877 1.425 1_545 S
C872 C879 1.409 . S
C873 H865 0.930 . S
C873 C871 1.419 1_565 S
C873 C874 1.362 . S
C874 H866 0.930 . S
C874 C873 1.362 . S
C874 C877 1.409 . S
C875 H867 0.930 . S
C875 C876 1.355 . S
C875 C877 1.415 . S
C876 C875 1.355 . S
C876 C878 1.419 1_565 S
C877 C872 1.425 1_565 S
C877 C874 1.409 . S
C877 C875 1.415 . S
C878 H868 0.930 . S
C878 C876 1.419 1_545 S
C878 C879 1.362 . S
C879 H869 0.930 . S
C879 C872 1.409 . S
C879 C878 1.362 . S
H880 C886 0.930 . S
H881 C889 0.930 . S
H882 C890 0.930 . S
H883 C891 0.930 . S
H884 C894 0.930 . S
H885 C895 0.930 . S
C886 H880 0.930 . S
C886 C887 1.355 . S
C886 C888 1.415 1_556 S
C887 C886 1.355 . S
C887 C889 1.419 . S
C888 C886 1.415 1_554 S
C888 C893 1.425 . S
C888 C895 1.409 . S
C889 H881 0.930 . S
C889 C887 1.419 . S
C889 C890 1.362 1_556 S
C890 H882 0.930 . S
C890 C889 1.362 1_554 S
C890 C893 1.409 . S
C891 H883 0.930 . S
C891 C892 1.355 . S
C891 C893 1.415 . S
C892 C891 1.355 . S
C892 C894 1.419 . S
C893 C888 1.425 . S
C893 C890 1.409 . S
C893 C891 1.415 . S
C894 H884 0.930 . S
C894 C892 1.419 . S
C894 C895 1.362 . S
C895 H885 0.930 . S
C895 C888 1.409 . S
C895 C894 1.362 . S
H896 C902 0.930 . S
H897 C905 0.930 . S
H898 C906 0.930 . S
H899 C907 0.930 . S
H900 C910 0.930 . S
H901 C911 0.930 . S
C902 H896 0.930 . S
C902 C903 1.355 . S
C902 C904 1.415 . S
C903 C902 1.355 . S
C903 C905 1.419 1_565 S
C904 C902 1.415 . S
C904 C909 1.425 1_565 S
C904 C911 1.409 . S
C905 H897 0.930 . S
C905 C903 1.419 1_545 S
C905 C906 1.362 . S
C906 H898 0.930 . S
C906 C905 1.362 . S
C906 C909 1.409 . S
C907 H899 0.930 . S
C907 C908 1.355 . S
C907 C909 1.415 . S
C908 C907 1.355 . S
C908 C910 1.419 1_545 S
C909 C904 1.425 1_545 S
C909 C906 1.409 . S
C909 C907 1.415 . S
C910 H900 0.930 . S
C910 C908 1.419 1_565 S
C910 C911 1.362 . S
C911 H901 0.930 . S
C911 C904 1.409 . S
C911 C910 1.362 . S
H912 C918 0.930 . S
H913 C921 0.930 . S
H914 C922 0.930 . S
H915 C923 0.930 . S
H916 C926 0.930 . S
H917 C927 0.930 . S
C918 H912 0.930 . S
C918 C919 1.355 . S
C918 C920 1.415 . S
C919 C918 1.355 . S
C919 C921 1.419 . S
C920 C918 1.415 . S
C920 C925 1.425 . S
C920 C927 1.409 . S
C921 H913 0.930 . S
C921 C919 1.419 . S
C921 C922 1.362 . S
C922 H914 0.930 . S
C922 C921 1.362 . S
C922 C925 1.409 . S
C923 H915 0.930 . S
C923 C924 1.355 . S
C923 C925 1.415 . S
C924 C923 1.355 . S
C924 C926 1.419 . S
C925 C920 1.425 . S
C925 C922 1.409 . S
C925 C923 1.415 . S
C926 H916 0.930 . S
C926 C924 1.419 . S
C926 C927 1.362 . S
C927 H917 0.930 . S
C927 C920 1.409 . S
C927 C926 1.362 . S
H928 C934 0.925 1_565 S
H929 C937 0.930 . S
H930 C938 0.930 . S
H931 C939 0.926 1_545 S
H932 C942 0.930 . S
H933 C943 0.930 . S
C934 H928 0.925 1_545 S
C934 C935 1.363 . S
C934 C936 1.411 1_545 S
C935 C934 1.363 . S
C935 C937 1.419 . S
C936 C934 1.411 1_565 S
C936 C941 1.425 1_565 S
C936 C943 1.409 . S
C937 H929 0.930 . S
C937 C935 1.419 . S
C937 C938 1.362 . S
C938 H930 0.930 . S
C938 C937 1.362 . S
C938 C941 1.409 . S
C939 H931 0.926 1_565 S
C939 C940 1.362 . S
C939 C941 1.412 1_565 S
C940 C939 1.362 . S
C940 C942 1.419 . S
C941 C936 1.425 1_545 S
C941 C938 1.409 . S
C941 C939 1.412 1_545 S
C942 H932 0.930 . S
C942 C940 1.419 . S
C942 C943 1.362 . S
C943 H933 0.930 . S
C943 C936 1.409 . S
C943 C942 1.362 . S
H944 C950 0.930 . S
H945 C953 0.930 . S
H946 C954 0.930 . S
H947 C955 0.930 . S
H948 C958 0.930 . S
H949 C959 0.930 . S
C950 H944 0.930 . S
C950 C951 1.355 . S
C950 C952 1.415 . S
C951 C950 1.355 . S
C951 C953 1.419 . S
C952 C950 1.415 . S
C952 C957 1.425 . S
C952 C959 1.409 . S
C953 H945 0.930 . S
C953 C951 1.419 . S
C953 C954 1.362 . S
C954 H946 0.930 . S
C954 C953 1.362 . S
C954 C957 1.409 . S
C955 H947 0.930 . S
C955 C956 1.355 . S
C955 C957 1.415 1_556 S
C956 C955 1.355 . S
C956 C958 1.419 . S
C957 C952 1.425 . S
C957 C954 1.409 . S
C957 C955 1.415 1_554 S
C958 H948 0.930 . S
C958 C956 1.419 . S
C958 C959 1.362 1_556 S
C959 H949 0.930 . S
C959 C952 1.409 . S
C959 C958 1.362 1_554 S
H960 C966 0.930 . S
H961 C969 0.930 . S
H962 C970 0.930 . S
H963 C971 0.930 . S
H964 C974 0.930 . S
H965 C975 0.930 . S
C966 H960 0.930 . S
C966 C967 1.355 . S
C966 C968 1.415 . S
C967 C966 1.355 . S
C967 C969 1.419 . S
C968 C966 1.415 . S
C968 C973 1.425 . S
C968 C975 1.409 . S
C969 H961 0.930 . S
C969 C967 1.419 . S
C969 C970 1.362 . S
C970 H962 0.930 . S
C970 C969 1.362 . S
C970 C973 1.409 . S
C971 H963 0.930 . S
C971 C972 1.355 . S
C971 C973 1.415 . S
C972 C971 1.355 . S
C972 C974 1.419 . S
C973 C968 1.425 . S
C973 C970 1.409 . S
C973 C971 1.415 . S
C974 H964 0.930 . S
C974 C972 1.419 . S
C974 C975 1.362 . S
C975 H965 0.930 . S
C975 C968 1.409 . S
C975 C974 1.362 . S
H976 C982 0.930 . S
H977 C985 0.930 . S
H978 C986 0.930 . S
H979 C987 0.930 . S
H980 C990 0.930 . S
H981 C991 0.930 . S
C982 H976 0.930 . S
C982 C983 1.355 . S
C982 C984 1.415 . S
C983 C982 1.355 . S
C983 C985 1.419 . S
C984 C982 1.415 . S
C984 C989 1.425 . S
C984 C991 1.409 . S
C985 H977 0.930 . S
C985 C983 1.419 . S
C985 C986 1.362 . S
C986 H978 0.930 . S
C986 C985 1.362 . S
C986 C989 1.409 . S
C987 H979 0.930 . S
C987 C988 1.355 . S
C987 C989 1.415 . S
C988 C987 1.355 . S
C988 C990 1.419 . S
C989 C984 1.425 . S
C989 C986 1.409 . S
C989 C987 1.415 . S
C990 H980 0.930 . S
C990 C988 1.419 . S
C990 C991 1.362 . S
C991 H981 0.930 . S
C991 C984 1.409 . S
C991 C990 1.362 . S
H992 C998 0.930 . S
H993 C1001 0.930 . S
H994 C1002 0.930 . S
H995 C1003 0.930 . S
H996 C1006 0.930 . S
H997 C1007 0.930 . S
C998 H992 0.930 . S
C998 C999 1.355 . S
C998 C1000 1.415 . S
C999 C998 1.355 . S
C999 C1001 1.419 . S
C1000 C998 1.415 . S
C1000 C1005 1.425 . S
C1000 C1007 1.409 . S
C1001 H993 0.930 . S
C1001 C999 1.419 . S
C1001 C1002 1.362 . S
C1002 H994 0.930 . S
C1002 C1001 1.362 . S
C1002 C1005 1.409 . S
C1003 H995 0.930 . S
C1003 C1004 1.355 . S
C1003 C1005 1.415 . S
C1004 C1003 1.355 . S
C1004 C1006 1.419 . S
C1005 C1000 1.425 . S
C1005 C1002 1.409 . S
C1005 C1003 1.415 . S
C1006 H996 0.930 . S
C1006 C1004 1.419 . S
C1006 C1007 1.362 . S
C1007 H997 0.930 . S
C1007 C1000 1.409 . S
C1007 C1006 1.362 . S
H1008 C1014 0.930 . S
H1009 C1017 0.930 . S
H1010 C1018 0.930 . S
H1011 C1019 0.930 . S
H1012 C1022 0.930 . S
H1013 C1023 0.930 . S
C1014 H1008 0.930 . S
C1014 C1015 1.355 . S
C1014 C1016 1.415 . S
C1015 C1014 1.355 . S
C1015 C1017 1.419 . S
C1016 C1014 1.415 . S
C1016 C1021 1.425 . S
C1016 C1023 1.409 . S
C1017 H1009 0.930 . S
C1017 C1015 1.419 . S
C1017 C1018 1.362 . S
C1018 H1010 0.930 . S
C1018 C1017 1.362 . S
C1018 C1021 1.409 . S
C1019 H1011 0.930 . S
C1019 C1020 1.355 . S
C1019 C1021 1.415 1_556 S
C1020 C1019 1.355 . S
C1020 C1022 1.419 . S
C1021 C1016 1.425 . S
C1021 C1018 1.409 . S
C1021 C1019 1.415 1_554 S
C1022 H1012 0.930 . S
C1022 C1020 1.419 . S
C1022 C1023 1.362 1_556 S
C1023 H1013 0.930 . S
C1023 C1016 1.409 . S
C1023 C1022 1.362 1_554 S
H1024 C1030 0.930 . S
H1025 C1033 0.930 . S
H1026 C1034 0.930 . S
H1027 C1035 0.930 . S
H1028 C1038 0.930 . S
H1029 C1039 0.930 . S
C1030 H1024 0.930 . S
C1030 C1031 1.355 . S
C1030 C1032 1.415 . S
C1031 C1030 1.355 . S
C1031 C1033 1.419 . S
C1032 C1030 1.415 . S
C1032 C1037 1.425 . S
C1032 C1039 1.409 . S
C1033 H1025 0.930 . S
C1033 C1031 1.419 . S
C1033 C1034 1.362 . S
C1034 H1026 0.930 . S
C1034 C1033 1.362 . S
C1034 C1037 1.409 . S
C1035 H1027 0.930 . S
C1035 C1036 1.355 . S
C1035 C1037 1.415 . S
C1036 C1035 1.355 . S
C1036 C1038 1.419 . S
C1037 C1032 1.425 . S
C1037 C1034 1.409 . S
C1037 C1035 1.415 . S
C1038 H1028 0.930 . S
C1038 C1036 1.419 . S
C1038 C1039 1.362 . S
C1039 H1029 0.930 . S
C1039 C1032 1.409 . S
C1039 C1038 1.362 . S
H1040 C1046 0.930 . S
H1041 C1049 0.930 . S
H1042 C1050 0.930 . S
H1043 C1051 0.930 . S
H1044 C1054 0.930 . S
H1045 C1055 0.930 . S
C1046 H1040 0.930 . S
C1046 C1047 1.355 . S
C1046 C1048 1.415 . S
C1047 C1046 1.355 . S
C1047 C1049 1.419 . S
C1048 C1046 1.415 . S
C1048 C1053 1.425 . S
C1048 C1055 1.409 . S
C1049 H1041 0.930 . S
C1049 C1047 1.419 . S
C1049 C1050 1.362 . S
C1050 H1042 0.930 . S
C1050 C1049 1.362 . S
C1050 C1053 1.409 . S
C1051 H1043 0.930 . S
C1051 C1052 1.355 . S
C1051 C1053 1.415 . S
C1052 C1051 1.355 . S
C1052 C1054 1.419 . S
C1053 C1048 1.425 . S
C1053 C1050 1.409 . S
C1053 C1051 1.415 . S
C1054 H1044 0.930 . S
C1054 C1052 1.419 . S
C1054 C1055 1.362 . S
C1055 H1045 0.930 . S
C1055 C1048 1.409 . S
C1055 C1054 1.362 . S
H1056 C1062 0.930 . S
H1057 C1065 0.930 . S
H1058 C1066 0.930 . S
H1059 C1067 0.930 . S
H1060 C1070 0.930 . S
H1061 C1071 0.930 . S
C1062 H1056 0.930 . S
C1062 C1063 1.355 . S
C1062 C1064 1.415 . S
C1063 C1062 1.355 . S
C1063 C1065 1.419 . S
C1064 C1062 1.415 . S
C1064 C1069 1.425 . S
C1064 C1071 1.409 . S
C1065 H1057 0.930 . S
C1065 C1063 1.419 . S
C1065 C1066 1.362 . S
C1066 H1058 0.930 . S
C1066 C1065 1.362 . S
C1066 C1069 1.409 . S
C1067 H1059 0.930 . S
C1067 C1068 1.355 . S
C1067 C1069 1.415 . S
C1068 C1067 1.355 . S
C1068 C1070 1.419 . S
C1069 C1064 1.425 . S
C1069 C1066 1.409 . S
C1069 C1067 1.415 . S
C1070 H1060 0.930 . S
C1070 C1068 1.419 . S
C1070 C1071 1.362 . S
C1071 H1061 0.930 . S
C1071 C1064 1.409 . S
C1071 C1070 1.362 . S
H1072 C1078 0.930 . S
H1073 C1081 0.930 . S
H1074 C1082 0.930 . S
H1075 C1083 0.930 . S
H1076 C1086 0.930 . S
H1077 C1087 0.930 . S
C1078 H1072 0.930 . S
C1078 C1079 1.355 . S
C1078 C1080 1.415 1_556 S
C1079 C1078 1.355 . S
C1079 C1081 1.419 . S
C1080 C1078 1.415 1_554 S
C1080 C1085 1.425 . S
C1080 C1087 1.409 . S
C1081 H1073 0.930 . S
C1081 C1079 1.419 . S
C1081 C1082 1.362 1_556 S
C1082 H1074 0.930 . S
C1082 C1081 1.362 1_554 S
C1082 C1085 1.409 . S
C1083 H1075 0.930 . S
C1083 C1084 1.355 . S
C1083 C1085 1.415 . S
C1084 C1083 1.355 . S
C1084 C1086 1.419 . S
C1085 C1080 1.425 . S
C1085 C1082 1.409 . S
C1085 C1083 1.415 . S
C1086 H1076 0.930 . S
C1086 C1084 1.419 . S
C1086 C1087 1.362 . S
C1087 H1077 0.930 . S
C1087 C1080 1.409 . S
C1087 C1086 1.362 . S
H1088 C1094 0.930 . S
H1089 C1097 0.930 . S
H1090 C1098 0.930 . S
H1091 C1099 0.930 . S
H1092 C1102 0.930 . S
H1093 C1103 0.930 . S
C1094 H1088 0.930 . S
C1094 C1095 1.355 . S
C1094 C1096 1.415 . S
C1095 C1094 1.355 . S
C1095 C1097 1.419 1_545 S
C1096 C1094 1.415 . S
C1096 C1101 1.425 1_545 S
C1096 C1103 1.409 . S
C1097 H1089 0.930 . S
C1097 C1095 1.419 1_565 S
C1097 C1098 1.362 . S
C1098 H1090 0.930 . S
C1098 C1097 1.362 . S
C1098 C1101 1.409 . S
C1099 H1091 0.930 . S
C1099 C1100 1.355 . S
C1099 C1101 1.415 . S
C1100 C1099 1.355 . S
C1100 C1102 1.419 1_565 S
C1101 C1096 1.425 1_565 S
C1101 C1098 1.409 . S
C1101 C1099 1.415 . S
C1102 H1092 0.930 . S
C1102 C1100 1.419 1_545 S
C1102 C1103 1.362 . S
C1103 H1093 0.930 . S
C1103 C1096 1.409 . S
C1103 C1102 1.362 . S
H1104 C1110 0.930 . S
H1105 C1113 0.930 . S
H1106 C1114 0.930 . S
H1107 C1115 0.930 . S
H1108 C1118 0.930 . S
H1109 C1119 0.930 . S
C1110 H1104 0.930 . S
C1110 C1111 1.355 . S
C1110 C1112 1.415 . S
C1111 C1110 1.355 . S
C1111 C1113 1.419 . S
C1112 C1110 1.415 . S
C1112 C1117 1.425 . S
C1112 C1119 1.409 . S
C1113 H1105 0.930 . S
C1113 C1111 1.419 . S
C1113 C1114 1.362 . S
C1114 H1106 0.930 . S
C1114 C1113 1.362 . S
C1114 C1117 1.409 . S
C1115 H1107 0.930 . S
C1115 C1116 1.355 . S
C1115 C1117 1.415 1_556 S
C1116 C1115 1.355 . S
C1116 C1118 1.419 . S
C1117 C1112 1.425 . S
C1117 C1114 1.409 . S
C1117 C1115 1.415 1_554 S
C1118 H1108 0.930 . S
C1118 C1116 1.419 . S
C1118 C1119 1.362 1_556 S
C1119 H1109 0.930 . S
C1119 C1112 1.409 . S
C1119 C1118 1.362 1_554 S
H1120 C1126 0.930 . S
H1121 C1129 0.930 . S
H1122 C1130 0.930 . S
H1123 C1131 0.930 . S
H1124 C1134 0.930 . S
H1125 C1135 0.930 . S
C1126 H1120 0.930 . S
C1126 C1127 1.355 . S
C1126 C1128 1.415 . S
C1127 C1126 1.355 . S
C1127 C1129 1.419 1_545 S
C1128 C1126 1.415 . S
C1128 C1133 1.425 1_545 S
C1128 C1135 1.409 . S
C1129 H1121 0.930 . S
C1129 C1127 1.419 1_565 S
C1129 C1130 1.362 . S
C1130 H1122 0.930 . S
C1130 C1129 1.362 . S
C1130 C1133 1.409 . S
C1131 H1123 0.930 . S
C1131 C1132 1.355 . S
C1131 C1133 1.415 . S
C1132 C1131 1.355 . S
C1132 C1134 1.419 1_565 S
C1133 C1128 1.425 1_565 S
C1133 C1130 1.409 . S
C1133 C1131 1.415 . S
C1134 H1124 0.930 . S
C1134 C1132 1.419 1_545 S
C1134 C1135 1.362 . S
C1135 H1125 0.930 . S
C1135 C1128 1.409 . S
C1135 C1134 1.362 . S
H1136 C1142 0.930 . S
H1137 C1145 0.930 . S
H1138 C1146 0.930 . S
H1139 C1147 0.930 . S
H1140 C1150 0.930 . S
H1141 C1151 0.930 . S
C1142 H1136 0.930 . S
C1142 C1143 1.355 . S
C1142 C1144 1.415 . S
C1143 C1142 1.355 . S
C1143 C1145 1.419 . S
C1144 C1142 1.415 . S
C1144 C1149 1.425 . S
C1144 C1151 1.409 . S
C1145 H1137 0.930 . S
C1145 C1143 1.419 . S
C1145 C1146 1.362 . S
C1146 H1138 0.930 . S
C1146 C1145 1.362 . S
C1146 C1149 1.409 . S
C1147 H1139 0.930 . S
C1147 C1148 1.355 . S
C1147 C1149 1.415 . S
C1148 C1147 1.355 . S
C1148 C1150 1.419 . S
C1149 C1144 1.425 . S
C1149 C1146 1.409 . S
C1149 C1147 1.415 . S
C1150 H1140 0.930 . S
C1150 C1148 1.419 . S
C1150 C1151 1.362 . S
C1151 H1141 0.930 . S
C1151 C1144 1.409 . S
C1151 C1150 1.362 . S
H1152 C1158 0.930 . S
H1153 C1161 0.930 . S
H1154 C1162 0.930 . S
H1155 C1163 0.930 . S
H1156 C1166 0.930 . S
H1157 C1167 0.930 . S
C1158 H1152 0.930 . S
C1158 C1159 1.355 1_565 S
C1158 C1160 1.415 . S
C1159 C1158 1.355 1_545 S
C1159 C1161 1.419 . S
C1160 C1158 1.415 . S
C1160 C1165 1.425 1_565 S
C1160 C1167 1.409 . S
C1161 H1153 0.930 . S
C1161 C1159 1.419 . S
C1161 C1162 1.362 . S
C1162 H1154 0.930 . S
C1162 C1161 1.362 . S
C1162 C1165 1.409 . S
C1163 H1155 0.930 . S
C1163 C1164 1.355 1_545 S
C1163 C1165 1.415 . S
C1164 C1163 1.355 1_565 S
C1164 C1166 1.419 . S
C1165 C1160 1.425 1_545 S
C1165 C1162 1.409 . S
C1165 C1163 1.415 . S
C1166 H1156 0.930 . S
C1166 C1164 1.419 . S
C1166 C1167 1.362 . S
C1167 H1157 0.930 . S
C1167 C1160 1.409 . S
C1167 C1166 1.362 . S
H1168 C1174 0.930 . S
H1169 C1177 0.930 . S
H1170 C1178 0.930 . S
H1171 C1179 0.930 . S
H1172 C1182 0.930 . S
H1173 C1183 0.930 . S
C1174 H1168 0.930 . S
C1174 C1175 1.355 . S
C1174 C1176 1.415 . S
C1175 C1174 1.355 . S
C1175 C1177 1.419 . S
C1176 C1174 1.415 . S
C1176 C1181 1.425 . S
C1176 C1183 1.409 . S
C1177 H1169 0.930 . S
C1177 C1175 1.419 . S
C1177 C1178 1.362 . S
C1178 H1170 0.930 . S
C1178 C1177 1.362 . S
C1178 C1181 1.409 . S
C1179 H1171 0.930 . S
C1179 C1180 1.355 . S
C1179 C1181 1.415 1_556 S
C1180 C1179 1.355 . S
C1180 C1182 1.419 . S
C1181 C1176 1.425 . S
C1181 C1178 1.409 . S
C1181 C1179 1.415 1_554 S
C1182 H1172 0.930 . S
C1182 C1180 1.419 . S
C1182 C1183 1.362 1_556 S
C1183 H1173 0.930 . S
C1183 C1176 1.409 . S
C1183 C1182 1.362 1_554 S
H1184 C1190 0.930 . S
H1185 C1193 0.930 . S
H1186 C1194 0.930 . S
H1187 C1195 0.930 . S
H1188 C1198 0.930 . S
H1189 C1199 0.930 . S
C1190 H1184 0.930 . S
C1190 C1191 1.355 1_565 S
C1190 C1192 1.415 . S
C1191 C1190 1.355 1_545 S
C1191 C1193 1.419 . S
C1192 C1190 1.415 . S
C1192 C1197 1.425 1_565 S
C1192 C1199 1.409 . S
C1193 H1185 0.930 . S
C1193 C1191 1.419 . S
C1193 C1194 1.362 . S
C1194 H1186 0.930 . S
C1194 C1193 1.362 . S
C1194 C1197 1.409 . S
C1195 H1187 0.930 . S
C1195 C1196 1.355 1_545 S
C1195 C1197 1.415 . S
C1196 C1195 1.355 1_565 S
C1196 C1198 1.419 . S
C1197 C1192 1.425 1_545 S
C1197 C1194 1.409 . S
C1197 C1195 1.415 . S
C1198 H1188 0.930 . S
C1198 C1196 1.419 . S
C1198 C1199 1.362 . S
C1199 H1189 0.930 . S
C1199 C1192 1.409 . S
C1199 C1198 1.362 . S
H1200 C1206 0.930 . S
H1201 C1209 0.930 . S
H1202 C1210 0.930 . S
H1203 C1211 0.930 . S
H1204 C1214 0.930 . S
H1205 C1215 0.930 . S
C1206 H1200 0.930 . S
C1206 C1207 1.355 . S
C1206 C1208 1.415 . S
C1207 C1206 1.355 . S
C1207 C1209 1.419 . S
C1208 C1206 1.415 . S
C1208 C1213 1.425 . S
C1208 C1215 1.409 . S
C1209 H1201 0.930 . S
C1209 C1207 1.419 . S
C1209 C1210 1.362 . S
C1210 H1202 0.930 . S
C1210 C1209 1.362 . S
C1210 C1213 1.409 . S
C1211 H1203 0.930 . S
C1211 C1212 1.355 . S
C1211 C1213 1.415 . S
C1212 C1211 1.355 . S
C1212 C1214 1.419 . S
C1213 C1208 1.425 . S
C1213 C1210 1.409 . S
C1213 C1211 1.415 . S
C1214 H1204 0.930 . S
C1214 C1212 1.419 . S
C1214 C1215 1.362 . S
C1215 H1205 0.930 . S
C1215 C1208 1.409 . S
C1215 C1214 1.362 . S
H1216 C1222 0.930 . S
H1217 C1225 0.930 . S
H1218 C1226 0.930 . S
H1219 C1227 0.930 . S
H1220 C1230 0.930 . S
H1221 C1231 0.930 . S
C1222 H1216 0.930 . S
C1222 C1223 1.355 . S
C1222 C1224 1.415 . S
C1223 C1222 1.355 . S
C1223 C1225 1.419 . S
C1224 C1222 1.415 . S
C1224 C1229 1.425 . S
C1224 C1231 1.409 . S
C1225 H1217 0.930 . S
C1225 C1223 1.419 . S
C1225 C1226 1.362 . S
C1226 H1218 0.930 . S
C1226 C1225 1.362 . S
C1226 C1229 1.409 . S
C1227 H1219 0.930 . S
C1227 C1228 1.355 . S
C1227 C1229 1.415 . S
C1228 C1227 1.355 . S
C1228 C1230 1.419 . S
C1229 C1224 1.425 . S
C1229 C1226 1.409 . S
C1229 C1227 1.415 . S
C1230 H1220 0.930 . S
C1230 C1228 1.419 . S
C1230 C1231 1.362 . S
C1231 H1221 0.930 . S
C1231 C1224 1.409 . S
C1231 C1230 1.362 . S
H1232 C1238 0.930 . S
H1233 C1241 0.930 . S
H1234 C1242 0.930 . S
H1235 C1243 0.930 . S
H1236 C1246 0.930 . S
H1237 C1247 0.930 . S
C1238 H1232 0.930 . S
C1238 C1239 1.355 . S
C1238 C1240 1.415 . S
C1239 C1238 1.355 . S
C1239 C1241 1.419 . S
C1240 C1238 1.415 . S
C1240 C1245 1.425 . S
C1240 C1247 1.409 . S
C1241 H1233 0.930 . S
C1241 C1239 1.419 . S
C1241 C1242 1.362 . S
C1242 H1234 0.930 . S
C1242 C1241 1.362 . S
C1242 C1245 1.409 . S
C1243 H1235 0.930 . S
C1243 C1244 1.355 . S
C1243 C1245 1.415 . S
C1244 C1243 1.355 . S
C1244 C1246 1.419 . S
C1245 C1240 1.425 . S
C1245 C1242 1.409 . S
C1245 C1243 1.415 . S
C1246 H1236 0.930 . S
C1246 C1244 1.419 . S
C1246 C1247 1.362 . S
C1247 H1237 0.930 . S
C1247 C1240 1.409 . S
C1247 C1246 1.362 . S
H1248 C1254 0.930 . S
H1249 C1257 0.930 . S
H1250 C1258 0.930 . S
H1251 C1259 0.930 . S
H1252 C1262 0.930 . S
H1253 C1263 0.930 . S
C1254 H1248 0.930 . S
C1254 C1255 1.355 . S
C1254 C1256 1.415 . S
C1255 C1254 1.355 . S
C1255 C1257 1.419 . S
C1256 C1254 1.415 . S
C1256 C1261 1.425 . S
C1256 C1263 1.409 . S
C1257 H1249 0.930 . S
C1257 C1255 1.419 . S
C1257 C1258 1.362 . S
C1258 H1250 0.930 . S
C1258 C1257 1.362 . S
C1258 C1261 1.409 . S
C1259 H1251 0.930 . S
C1259 C1260 1.355 . S
C1259 C1261 1.415 . S
C1260 C1259 1.355 . S
C1260 C1262 1.419 . S
C1261 C1256 1.425 . S
C1261 C1258 1.409 . S
C1261 C1259 1.415 . S
C1262 H1252 0.930 . S
C1262 C1260 1.419 . S
C1262 C1263 1.362 . S
C1263 H1253 0.930 . S
C1263 C1256 1.409 . S
C1263 C1262 1.362 . S
H1264 C1270 0.930 . S
H1265 C1273 0.930 . S
H1266 C1274 0.930 . S
H1267 C1275 0.930 . S
H1268 C1278 0.930 . S
H1269 C1279 0.930 1_554 S
C1270 H1264 0.930 . S
C1270 C1271 1.355 . S
C1270 C1272 1.415 . S
C1271 C1270 1.355 . S
C1271 C1273 1.419 . S
C1272 C1270 1.415 . S
C1272 C1277 1.425 . S
C1272 C1279 1.409 . S
C1273 H1265 0.930 . S
C1273 C1271 1.419 . S
C1273 C1274 1.362 . S
C1274 H1266 0.930 . S
C1274 C1273 1.362 . S
C1274 C1277 1.409 . S
C1275 H1267 0.930 . S
C1275 C1276 1.355 . S
C1275 C1277 1.415 . S
C1276 C1275 1.355 . S
C1276 C1278 1.419 1_556 S
C1277 C1272 1.425 . S
C1277 C1274 1.409 . S
C1277 C1275 1.415 . S
C1278 H1268 0.930 . S
C1278 C1276 1.419 1_554 S
C1278 C1279 1.362 1_554 S
C1279 H1269 0.930 1_556 S
C1279 C1272 1.409 . S
C1279 C1278 1.362 1_556 S
H1280 C1286 0.930 . S
H1281 C1289 0.930 . S
H1282 C1290 0.930 . S
H1283 C1291 0.930 . S
H1284 C1294 0.930 . S
H1285 C1295 0.930 . S
C1286 H1280 0.930 . S
C1286 C1287 1.355 . S
C1286 C1288 1.415 . S
C1287 C1286 1.355 . S
C1287 C1289 1.419 . S
C1288 C1286 1.415 . S
C1288 C1293 1.425 . S
C1288 C1295 1.409 . S
C1289 H1281 0.930 . S
C1289 C1287 1.419 . S
C1289 C1290 1.362 . S
C1290 H1282 0.930 . S
C1290 C1289 1.362 . S
C1290 C1293 1.409 . S
C1291 H1283 0.930 . S
C1291 C1292 1.355 . S
C1291 C1293 1.415 . S
C1292 C1291 1.355 . S
C1292 C1294 1.419 . S
C1293 C1288 1.425 . S
C1293 C1290 1.409 . S
C1293 C1291 1.415 . S
C1294 H1284 0.930 . S
C1294 C1292 1.419 . S
C1294 C1295 1.362 . S
C1295 H1285 0.930 . S
C1295 C1288 1.409 . S
C1295 C1294 1.362 . S
H1296 C1302 0.930 . S
H1297 C1305 0.930 . S
H1298 C1306 0.930 . S
H1299 C1307 0.930 . S
H1300 C1310 0.930 . S
H1301 C1311 0.930 . S
C1302 H1296 0.930 . S
C1302 C1303 1.355 . S
C1302 C1304 1.415 . S
C1303 C1302 1.355 . S
C1303 C1305 1.419 . S
C1304 C1302 1.415 . S
C1304 C1309 1.425 . S
C1304 C1311 1.409 . S
C1305 H1297 0.930 . S
C1305 C1303 1.419 . S
C1305 C1306 1.362 . S
C1306 H1298 0.930 . S
C1306 C1305 1.362 . S
C1306 C1309 1.409 . S
C1307 H1299 0.930 . S
C1307 C1308 1.355 . S
C1307 C1309 1.415 . S
C1308 C1307 1.355 . S
C1308 C1310 1.419 . S
C1309 C1304 1.425 . S
C1309 C1306 1.409 . S
C1309 C1307 1.415 . S
C1310 H1300 0.930 . S
C1310 C1308 1.419 . S
C1310 C1311 1.362 . S
C1311 H1301 0.930 . S
C1311 C1304 1.409 . S
C1311 C1310 1.362 . S
H1312 C1318 0.930 . S
H1313 C1321 0.930 . S
H1314 C1322 0.930 . S
H1315 C1323 0.930 . S
H1316 C1326 0.930 1_554 S
H1317 C1327 0.930 . S
C1318 H1312 0.930 . S
C1318 C1319 1.355 . S
C1318 C1320 1.415 . S
C1319 C1318 1.355 . S
C1319 C1321 1.419 . S
C1320 C1318 1.415 . S
C1320 C1325 1.425 . S
C1320 C1327 1.409 . S
C1321 H1313 0.930 . S
C1321 C1319 1.419 . S
C1321 C1322 1.362 . S
C1322 H1314 0.930 . S
C1322 C1321 1.362 . S
C1322 C1325 1.409 . S
C1323 H1315 0.930 . S
C1323 C1324 1.355 . S
C1323 C1325 1.415 . S
C1324 C1323 1.355 . S
C1324 C1326 1.419 . S
C1325 C1320 1.425 . S
C1325 C1322 1.409 . S
C1325 C1323 1.415 . S
C1326 H1316 0.930 1_556 S
C1326 C1324 1.419 . S
C1326 C1327 1.362 . S
C1327 H1317 0.930 . S
C1327 C1320 1.409 . S
C1327 C1326 1.362 . S
H1328 C1334 0.930 . S
H1329 C1337 0.930 . S
H1330 C1338 0.930 . S
H1331 C1339 0.930 . S
H1332 C1342 0.930 . S
H1333 C1343 0.930 . S
C1334 H1328 0.930 . S
C1334 C1335 1.355 . S
C1334 C1336 1.415 . S
C1335 C1334 1.355 . S
C1335 C1337 1.419 . S
C1336 C1334 1.415 . S
C1336 C1341 1.425 . S
C1336 C1343 1.409 . S
C1337 H1329 0.930 . S
C1337 C1335 1.419 . S
C1337 C1338 1.362 . S
C1338 H1330 0.930 . S
C1338 C1337 1.362 . S
C1338 C1341 1.409 . S
C1339 H1331 0.930 . S
C1339 C1340 1.355 . S
C1339 C1341 1.415 . S
C1340 C1339 1.355 . S
C1340 C1342 1.419 . S
C1341 C1336 1.425 . S
C1341 C1338 1.409 . S
C1341 C1339 1.415 . S
C1342 H1332 0.930 . S
C1342 C1340 1.419 . S
C1342 C1343 1.362 . S
C1343 H1333 0.930 . S
C1343 C1336 1.409 . S
C1343 C1342 1.362 . S
H1344 C1350 0.930 . S
H1345 C1353 0.930 . S
H1346 C1354 0.930 1_554 S
H1347 C1355 0.930 . S
H1348 C1358 0.930 . S
H1349 C1359 0.930 . S
C1350 H1344 0.930 . S
C1350 C1351 1.355 . S
C1350 C1352 1.415 . S
C1351 C1350 1.355 . S
C1351 C1353 1.419 1_556 S
C1352 C1350 1.415 . S
C1352 C1357 1.425 . S
C1352 C1359 1.409 . S
C1353 H1345 0.930 . S
C1353 C1351 1.419 1_554 S
C1353 C1354 1.362 1_554 S
C1354 H1346 0.930 1_556 S
C1354 C1353 1.362 1_556 S
C1354 C1357 1.409 . S
C1355 H1347 0.930 . S
C1355 C1356 1.355 . S
C1355 C1357 1.415 . S
C1356 C1355 1.355 . S
C1356 C1358 1.419 . S
C1357 C1352 1.425 . S
C1357 C1354 1.409 . S
C1357 C1355 1.415 . S
C1358 H1348 0.930 . S
C1358 C1356 1.419 . S
C1358 C1359 1.362 . S
C1359 H1349 0.930 . S
C1359 C1352 1.409 . S
C1359 C1358 1.362 . S
H1360 C1366 0.930 . S
H1361 C1369 0.930 . S
H1362 C1370 0.930 . S
H1363 C1371 0.930 . S
H1364 C1374 0.930 . S
H1365 C1375 0.930 . S
C1366 H1360 0.930 . S
C1366 C1367 1.355 . S
C1366 C1368 1.415 . S
C1367 C1366 1.355 . S
C1367 C1369 1.419 . S
C1368 C1366 1.415 . S
C1368 C1373 1.425 . S
C1368 C1375 1.409 . S
C1369 H1361 0.930 . S
C1369 C1367 1.419 . S
C1369 C1370 1.362 . S
C1370 H1362 0.930 . S
C1370 C1369 1.362 . S
C1370 C1373 1.409 . S
C1371 H1363 0.930 . S
C1371 C1372 1.355 . S
C1371 C1373 1.415 . S
C1372 C1371 1.355 . S
C1372 C1374 1.419 . S
C1373 C1368 1.425 . S
C1373 C1370 1.409 . S
C1373 C1371 1.415 . S
C1374 H1364 0.930 . S
C1374 C1372 1.419 . S
C1374 C1375 1.362 . S
C1375 H1365 0.930 . S
C1375 C1368 1.409 . S
C1375 C1374 1.362 . S
H1376 C1382 0.930 . S
H1377 C1385 0.930 . S
H1378 C1386 0.930 . S
H1379 C1387 0.930 . S
H1380 C1390 0.930 . S
H1381 C1391 0.930 . S
C1382 H1376 0.930 . S
C1382 C1383 1.355 . S
C1382 C1384 1.415 . S
C1383 C1382 1.355 . S
C1383 C1385 1.419 . S
C1384 C1382 1.415 . S
C1384 C1389 1.425 . S
C1384 C1391 1.409 . S
C1385 H1377 0.930 . S
C1385 C1383 1.419 . S
C1385 C1386 1.362 . S
C1386 H1378 0.930 . S
C1386 C1385 1.362 . S
C1386 C1389 1.409 . S
C1387 H1379 0.930 . S
C1387 C1388 1.355 . S
C1387 C1389 1.415 . S
C1388 C1387 1.355 . S
C1388 C1390 1.419 . S
C1389 C1384 1.425 . S
C1389 C1386 1.409 . S
C1389 C1387 1.415 . S
C1390 H1380 0.930 . S
C1390 C1388 1.419 . S
C1390 C1391 1.362 . S
C1391 H1381 0.930 . S
C1391 C1384 1.409 . S
C1391 C1390 1.362 . S
H1392 C1398 0.930 . S
H1393 C1401 0.930 . S
H1394 C1402 0.930 . S
H1395 C1403 0.930 . S
H1396 C1406 0.930 . S
H1397 C1407 0.930 . S
C1398 H1392 0.930 . S
C1398 C1399 1.355 . S
C1398 C1400 1.415 . S
C1399 C1398 1.355 . S
C1399 C1401 1.419 . S
C1400 C1398 1.415 . S
C1400 C1405 1.425 . S
C1400 C1407 1.409 . S
C1401 H1393 0.930 . S
C1401 C1399 1.419 . S
C1401 C1402 1.362 . S
C1402 H1394 0.930 . S
C1402 C1401 1.362 . S
C1402 C1405 1.409 . S
C1403 H1395 0.930 . S
C1403 C1404 1.355 . S
C1403 C1405 1.415 . S
C1404 C1403 1.355 . S
C1404 C1406 1.419 . S
C1405 C1400 1.425 . S
C1405 C1402 1.409 . S
C1405 C1403 1.415 . S
C1406 H1396 0.930 . S
C1406 C1404 1.419 . S
C1406 C1407 1.362 . S
C1407 H1397 0.930 . S
C1407 C1400 1.409 . S
C1407 C1406 1.362 . S
H1408 C1414 0.930 . S
H1409 C1417 0.930 . S
H1410 C1418 0.930 . S
H1411 C1419 0.930 . S
H1412 C1422 0.930 . S
H1413 C1423 0.930 . S
C1414 H1408 0.930 . S
C1414 C1415 1.355 . S
C1414 C1416 1.415 . S
C1415 C1414 1.355 . S
C1415 C1417 1.419 . S
C1416 C1414 1.415 . S
C1416 C1421 1.425 . S
C1416 C1423 1.409 . S
C1417 H1409 0.930 . S
C1417 C1415 1.419 . S
C1417 C1418 1.362 . S
C1418 H1410 0.930 . S
C1418 C1417 1.362 . S
C1418 C1421 1.409 . S
C1419 H1411 0.930 . S
C1419 C1420 1.355 . S
C1419 C1421 1.415 . S
C1420 C1419 1.355 . S
C1420 C1422 1.419 . S
C1421 C1416 1.425 . S
C1421 C1418 1.409 . S
C1421 C1419 1.415 . S
C1422 H1412 0.930 . S
C1422 C1420 1.419 . S
C1422 C1423 1.362 . S
C1423 H1413 0.930 . S
C1423 C1416 1.409 . S
C1423 C1422 1.362 . S
H1424 C1430 0.930 . S
H1425 C1433 0.930 . S
H1426 C1434 0.930 . S
H1427 C1435 0.930 . S
H1428 C1438 0.930 . S
H1429 C1439 0.930 . S
C1430 H1424 0.930 . S
C1430 C1431 1.355 . S
C1430 C1432 1.415 . S
C1431 C1430 1.355 . S
C1431 C1433 1.419 . S
C1432 C1430 1.415 . S
C1432 C1437 1.425 . S
C1432 C1439 1.409 . S
C1433 H1425 0.930 . S
C1433 C1431 1.419 . S
C1433 C1434 1.362 . S
C1434 H1426 0.930 . S
C1434 C1433 1.362 . S
C1434 C1437 1.409 . S
C1435 H1427 0.930 . S
C1435 C1436 1.355 . S
C1435 C1437 1.415 . S
C1436 C1435 1.355 . S
C1436 C1438 1.419 . S
C1437 C1432 1.425 . S
C1437 C1434 1.409 . S
C1437 C1435 1.415 . S
C1438 H1428 0.930 . S
C1438 C1436 1.419 . S
C1438 C1439 1.362 . S
C1439 H1429 0.930 . S
C1439 C1432 1.409 . S
C1439 C1438 1.362 . S
H1440 C1446 0.930 . S
H1441 C1449 0.930 . S
H1442 C1450 0.930 . S
H1443 C1451 0.930 . S
H1444 C1454 0.930 . S
H1445 C1455 0.930 . S
C1446 H1440 0.930 . S
C1446 C1447 1.355 . S
C1446 C1448 1.415 . S
C1447 C1446 1.355 . S
C1447 C1449 1.419 . S
C1448 C1446 1.415 . S
C1448 C1453 1.425 . S
C1448 C1455 1.409 . S
C1449 H1441 0.930 . S
C1449 C1447 1.419 . S
C1449 C1450 1.362 . S
C1450 H1442 0.930 . S
C1450 C1449 1.362 . S
C1450 C1453 1.409 . S
C1451 H1443 0.930 . S
C1451 C1452 1.355 . S
C1451 C1453 1.415 . S
C1452 C1451 1.355 . S
C1452 C1454 1.419 . S
C1453 C1448 1.425 . S
C1453 C1450 1.409 . S
C1453 C1451 1.415 . S
C1454 H1444 0.930 . S
C1454 C1452 1.419 . S
C1454 C1455 1.362 . S
C1455 H1445 0.930 . S
C1455 C1448 1.409 . S
C1455 C1454 1.362 . S
H1456 C1462 0.930 . S
H1457 C1465 0.930 . S
H1458 C1466 0.930 . S
H1459 C1467 0.930 . S
H1460 C1470 0.930 . S
H1461 C1471 0.930 . S
C1462 H1456 0.930 . S
C1462 C1463 1.355 . S
C1462 C1464 1.415 . S
C1463 C1462 1.355 . S
C1463 C1465 1.419 . S
C1464 C1462 1.415 . S
C1464 C1469 1.425 . S
C1464 C1471 1.409 . S
C1465 H1457 0.930 . S
C1465 C1463 1.419 . S
C1465 C1466 1.362 . S
C1466 H1458 0.930 . S
C1466 C1465 1.362 . S
C1466 C1469 1.409 . S
C1467 H1459 0.930 . S
C1467 C1468 1.355 . S
C1467 C1469 1.415 . S
C1468 C1467 1.355 . S
C1468 C1470 1.419 . S
C1469 C1464 1.425 . S
C1469 C1466 1.409 . S
C1469 C1467 1.415 . S
C1470 H1460 0.930 . S
C1470 C1468 1.419 . S
C1470 C1471 1.362 . S
C1471 H1461 0.930 . S
C1471 C1464 1.409 . S
C1471 C1470 1.362 . S
C455 C121 1.409 . S
C460 C9 1.409 . S
C471 C23 1.384 . S
C476 C359 1.384 . S
C487 C37 1.363 . S
C492 C149 1.363 . S
C503 C51 1.419 . S
C508 C387 1.419 . S
C519 C65 1.362 . S
C524 C177 1.362 . S
C535 C415 1.362 . S
C540 C79 1.362 . S
C551 C205 1.361 . S
C556 C93 1.361 . S
C567 C443 1.436 . S
C572 C107 1.436 . S
C583 C247 1.421 . S
C588 C135 1.421 . S
C599 C163 1.410 . S
C604 C275 1.410 . S
C615 C191 1.423 . S
C620 C303 1.423 . S
C631 C331 1.440 . S
C636 C219 1.440 . S
C647 C345 1.363 . S
C652 C233 1.363 . S
C663 C261 1.440 . S
C668 C373 1.440 . S
C679 C289 1.440 . S
C684 C401 1.440 . S
C695 C429 1.436 . S
C700 C317 1.436 . S
C711 C3 1.389 . S
C716 C59 1.376 . S
C727 C73 1.349 . S
C732 C17 1.385 . S
C743 C87 1.336 . S
C748 C31 1.347 . S
C759 C45 1.384 . S
C764 C101 1.383 . S
C775 C115 1.378 . S
C780 C171 1.388 . S
C791 C129 1.389 . S
C796 C185 1.358 . S
C807 C199 1.358 . S
C812 C143 1.389 . S
C823 C213 1.390 . S
C828 C157 1.374 . S
C839 C283 1.343 . S
C844 C227 1.381 . S
C855 C297 1.339 . S
C860 C241 1.342 . S
C871 C255 1.390 . S
C876 C311 1.359 . S
C887 C325 1.365 . S
C892 C269 1.390 . S
C903 C395 1.358 . S
C908 C339 1.389 . S
C919 C353 1.345 . S
C924 C409 1.382 . S
C935 C423 1.334 . S
C940 C367 1.366 . S
C951 C437 1.387 . S
C956 C381 1.380 . S
C967 C63 0.633 . S
C972 C7 0.707 . S
C983 C77 0.735 . S
C988 C21 0.655 . S
C999 C35 0.722 . S
C1004 C91 0.639 . S
C1015 C105 0.633 . S
C1020 C49 0.698 . S
C1031 C175 0.729 . S
C1036 C119 0.707 . S
C1047 C133 0.715 . S
C1052 C189 0.635 . S
C1063 C203 0.637 . S
C1068 C147 0.719 . S
C1079 C217 0.691 . S
C1084 C161 0.634 . S
C1095 C231 0.691 . S
C1100 C287 0.634 . S
C1111 C301 0.714 . S
C1116 C245 0.724 . S
C1127 C315 0.638 . S
C1132 C259 0.679 . S
C1143 C329 0.738 . S
C1148 C273 0.665 . S
C1159 C399 0.738 . S
C1164 C343 0.682 . S
C1175 C357 0.697 . S
C1180 C413 0.633 . S
C1191 C371 0.725 . S
C1196 C427 0.713 . S
C1207 C385 0.637 . S
C1212 C441 0.720 . S
C1223 C8 1.551 . S
C1228 C302 1.547 . S
C1239 C316 1.514 . S
C1244 C22 1.519 . S
C1255 C36 1.514 . S
C1260 C330 1.511 . S
C1271 C50 1.548 . S
C1276 C288 1.552 1_556 S
C1287 C274 1.547 . S
C1292 C64 1.543 . S
C1303 C232 1.556 . S
C1308 C78 1.554 . S
C1319 C246 1.549 . S
C1324 C92 1.545 1_556 S
C1335 C106 1.509 . S
C1340 C260 1.512 . S
C1351 C120 1.557 1_556 S
C1356 C414 1.556 . S
C1367 C428 1.543 . S
C1372 C134 1.538 . S
C1383 C442 1.516 . S
C1388 C148 1.521 . S
C1399 C400 1.511 . S
C1404 C162 1.515 . S
C1415 C386 1.515 . S
C1420 C176 1.520 . S
C1431 C344 1.557 . S
C1436 C190 1.556 . S
C1447 C204 1.509 . S
C1452 C358 1.507 . S
C1463 C218 1.521 . S
C1468 C372 1.516 1_556 S
