# Generated by pormake.
# Topology dia-f, (3)-cn, num edge types: 1
# Building blocks:
#     Node 0, Type 0, BuildingBlock: OLANEW_clean_sbu_2, # of connection points: 3
#     Node 1, Type 0, BuildingBlock: OLANEW_clean_sbu_2, # of connection points: 3
#     Node 2, Type 0, BuildingBlock: OLANEW_clean_sbu_2, # of connection points: 3
#     Node 3, Type 0, BuildingBlock: OLANEW_clean_sbu_2, # of connection points: 3
#     Node 4, Type 0, BuildingBlock: OLANEW_clean_sbu_2, # of connection points: 3
#     Node 5, Type 0, BuildingBlock: OLANEW_clean_sbu_2, # of connection points: 3
#     Node 6, Type 0, BuildingBlock: OLANEW_clean_sbu_2, # of connection points: 3
#     Node 7, Type 0, BuildingBlock: OLANEW_clean_sbu_2, # of connection points: 3
#     Node 8, Type 0, BuildingBlock: OLANEW_clean_sbu_2, # of connection points: 3
#     Node 9, Type 0, BuildingBlock: OLANEW_clean_sbu_2, # of connection points: 3
#     Node 10, Type 0, BuildingBlock: OLANEW_clean_sbu_2, # of connection points: 3
#     Node 11, Type 0, BuildingBlock: OLANEW_clean_sbu_2, # of connection points: 3
#     Node 12, Type 0, BuildingBlock: OLANEW_clean_sbu_2, # of connection points: 3
#     Node 13, Type 0, BuildingBlock: OLANEW_clean_sbu_2, # of connection points: 3
#     Node 14, Type 0, BuildingBlock: OLANEW_clean_sbu_2, # of connection points: 3
#     Node 15, Type 0, BuildingBlock: OLANEW_clean_sbu_2, # of connection points: 3
#     Edge 16, Type (0, 0), BuildingBlock: KIFKEQ_clean_linker_1, # of connection points: 2
#     Edge 17, Type (0, 0), BuildingBlock: KIFKEQ_clean_linker_1, # of connection points: 2
#     Edge 18, Type (0, 0), BuildingBlock: KIFKEQ_clean_linker_1, # of connection points: 2
#     Edge 19, Type (0, 0), BuildingBlock: KIFKEQ_clean_linker_1, # of connection points: 2
#     Edge 20, Type (0, 0), BuildingBlock: KIFKEQ_clean_linker_1, # of connection points: 2
#     Edge 21, Type (0, 0), BuildingBlock: KIFKEQ_clean_linker_1, # of connection points: 2
#     Edge 22, Type (0, 0), BuildingBlock: KIFKEQ_clean_linker_1, # of connection points: 2
#     Edge 23, Type (0, 0), BuildingBlock: KIFKEQ_clean_linker_1, # of connection points: 2
#     Edge 24, Type (0, 0), BuildingBlock: KIFKEQ_clean_linker_1, # of connection points: 2
#     Edge 25, Type (0, 0), BuildingBlock: KIFKEQ_clean_linker_1, # of connection points: 2
#     Edge 26, Type (0, 0), BuildingBlock: KIFKEQ_clean_linker_1, # of connection points: 2
#     Edge 27, Type (0, 0), BuildingBlock: KIFKEQ_clean_linker_1, # of connection points: 2
#     Edge 28, Type (0, 0), BuildingBlock: KIFKEQ_clean_linker_1, # of connection points: 2
#     Edge 29, Type (0, 0), BuildingBlock: KIFKEQ_clean_linker_1, # of connection points: 2
#     Edge 30, Type (0, 0), BuildingBlock: KIFKEQ_clean_linker_1, # of connection points: 2
#     Edge 31, Type (0, 0), BuildingBlock: KIFKEQ_clean_linker_1, # of connection points: 2
#     Edge 32, Type (0, 0), BuildingBlock: KIFKEQ_clean_linker_1, # of connection points: 2
#     Edge 33, Type (0, 0), BuildingBlock: KIFKEQ_clean_linker_1, # of connection points: 2
#     Edge 34, Type (0, 0), BuildingBlock: KIFKEQ_clean_linker_1, # of connection points: 2
#     Edge 35, Type (0, 0), BuildingBlock: KIFKEQ_clean_linker_1, # of connection points: 2
#     Edge 36, Type (0, 0), BuildingBlock: KIFKEQ_clean_linker_1, # of connection points: 2
#     Edge 37, Type (0, 0), BuildingBlock: KIFKEQ_clean_linker_1, # of connection points: 2
#     Edge 38, Type (0, 0), BuildingBlock: KIFKEQ_clean_linker_1, # of connection points: 2
#     Edge 39, Type (0, 0), BuildingBlock: KIFKEQ_clean_linker_1, # of connection points: 2
# Relax obj value: 0.008
# Max RMSD: 0.057
# Mean RMSD: 0.043
data_MOF--net-dia-f--node1-OLANEW_clean_sbu_2--edge1-KIFKEQ_clean_linker_1
_symmetry_space_group_name_H-M    P1
_symmetry_Int_Tables_number       1
_symmetry_cell_setting            triclinic
loop_
_symmetry_equiv_pos_as_xyz
'x, y, z'
_cell_length_a     75.580425
_cell_length_b     75.394404
_cell_length_c     19.655872
_cell_angle_alpha  90.021948
_cell_angle_beta   89.983819
_cell_angle_gamma 97.264346
loop_
_atom_site_label
_atom_site_type_symbol
_atom_site_fract_x
_atom_site_fract_y
_atom_site_fract_z
_atom_type_partial_charge
O0 O 0.09664 0.60068 0.08845 0.0
Cd1 Cd 0.06875 0.58164 0.11364 0.0
O2 O 0.10916 0.59656 0.18717 0.0
Cd3 Cd 0.08355 0.58496 0.22856 0.0
O4 O 0.05948 0.59491 0.26602 0.0
C5 C 0.05576 0.60885 0.23563 0.0
O6 O 0.06582 0.6151 0.1843 0.0
C7 C 0.11012 0.60321 0.12763 0.0
C8 C 0.06656 0.54921 0.04423 0.0
O9 O 0.06127 0.56302 0.01669 0.0
O10 O 0.07285 0.55073 0.10481 0.0
O11 O 0.68184 0.71803 0.60634 0.0
Cd12 Cd 0.69838 0.73977 0.68255 0.0
O13 O 0.68072 0.74033 0.53622 0.0
Cd14 Cd 0.67171 0.7548 0.44916 0.0
O15 O 0.66081 0.77589 0.39296 0.0
C16 C 0.64693 0.78127 0.4179 0.0
O17 O 0.63991 0.77354 0.47326 0.0
C18 C 0.67674 0.72383 0.54989 0.0
C19 C 0.73522 0.74122 0.66765 0.0
O20 O 0.72675 0.73105 0.71227 0.0
O21 O 0.72624 0.75066 0.6298 0.0
O22 O 0.60744 0.41616 0.7211 0.0
Cd23 Cd 0.59486 0.44297 0.75646 0.0
O24 O 0.58381 0.39946 0.76003 0.0
Cd25 Cd 0.56547 0.37501 0.77885 0.0
O26 O 0.54539 0.35303 0.80992 0.0
C27 C 0.53215 0.35676 0.84461 0.0
O28 O 0.53105 0.37356 0.85976 0.0
C29 C 0.59898 0.40072 0.73106 0.0
C30 C 0.59798 0.46839 0.65274 0.0
O31 O 0.61033 0.468 0.69717 0.0
O32 O 0.58407 0.45682 0.65769 0.0
O33 O 0.91017 0.28928 0.41054 0.0
Cd34 Cd 0.88848 0.2633 0.38536 0.0
O35 O 0.92909 0.26981 0.42282 0.0
Cd36 Cd 0.95443 0.26075 0.45226 0.0
O37 O 0.9782 0.24881 0.48146 0.0
C38 C 0.98196 0.24699 0.5439 0.0
O39 O 0.97153 0.25269 0.59041 0.0
C40 C 0.92586 0.28597 0.42395 0.0
C41 C 0.85352 0.26865 0.41504 0.0
O42 O 0.86392 0.26406 0.46156 0.0
O43 O 0.85971 0.27088 0.35449 0.0
O44 O 0.08029 0.38188 0.76284 0.0
Cd45 Cd 0.05844 0.40015 0.71824 0.0
O46 O 0.08781 0.37229 0.6625 0.0
Cd47 Cd 0.06657 0.38376 0.60991 0.0
O48 O 0.04091 0.37704 0.55966 0.0
C49 C 0.02726 0.37249 0.59641 0.0
O50 O 0.02886 0.37363 0.66289 0.0
C51 C 0.08984 0.37281 0.72669 0.0
C52 C 0.0599 0.43246 0.78836 0.0
O53 O 0.05018 0.41841 0.80977 0.0
O54 O 0.06887 0.43124 0.73357 0.0
O55 O 0.92469 0.75848 0.56663 0.0
Cd56 Cd 0.90347 0.7345 0.61438 0.0
O57 O 0.93682 0.73607 0.5248 0.0
Cd58 Cd 0.95686 0.72189 0.4757 0.0
O59 O 0.97454 0.70448 0.43006 0.0
C60 C 0.97032 0.68763 0.43256 0.0
O61 O 0.95537 0.68113 0.46265 0.0
C62 C 0.93704 0.75288 0.5319 0.0
C63 C 0.86799 0.74089 0.62072 0.0
O64 O 0.87859 0.74471 0.67101 0.0
O65 O 0.87431 0.7345 0.56674 0.0
O66 O 0.62742 0.61568 0.23337 0.0
Cd67 Cd 0.61605 0.58738 0.17923 0.0
O68 O 0.60027 0.62287 0.23655 0.0
Cd69 Cd 0.57921 0.63988 0.25271 0.0
O70 O 0.55575 0.65396 0.24288 0.0
C71 C 0.54631 0.65116 0.18948 0.0
O72 O 0.55101 0.64 0.14348 0.0
C73 C 0.61676 0.62667 0.25028 0.0
C74 C 0.61142 0.56025 0.27641 0.0
O75 O 0.62624 0.56386 0.24455 0.0
O76 O 0.59871 0.56933 0.26163 0.0
O77 O 0.67635 0.23031 0.52945 0.0
Cd78 Cd 0.68622 0.26235 0.53943 0.0
O79 O 0.65409 0.23307 0.45985 0.0
Cd80 Cd 0.65756 0.26212 0.46792 0.0
O81 O 0.65143 0.28836 0.4999 0.0
C82 C 0.65009 0.29126 0.56329 0.0
O83 O 0.6533 0.27874 0.60641 0.0
C84 C 0.66347 0.22319 0.493 0.0
C85 C 0.72286 0.26853 0.51721 0.0
O86 O 0.71652 0.26419 0.57622 0.0
O87 O 0.71185 0.27031 0.46884 0.0
O88 O 0.42551 0.26562 0.0583 0.0
Cd89 Cd 0.40588 0.24087 0.10887 0.0
O90 O 0.44136 0.24434 0.03218 0.0
Cd91 Cd 0.46244 0.23086 0.98691 0.0
O92 O 0.47928 0.21103 0.95378 0.0
C93 C 0.48595 0.20165 0.99844 0.0
O94 O 0.48291 0.20457 0.06305 0.0
C95 C 0.43943 0.26086 0.03121 0.0
C96 C 0.37048 0.24665 0.12591 0.0
O97 O 0.38195 0.25038 0.17349 0.0
O98 O 0.37588 0.24058 0.06968 0.0
O99 O 0.19249 0.72326 0.99137 0.0
Cd100 Cd 0.20564 0.7543 0.97669 0.0
O101 O 0.18656 0.72796 0.09899 0.0
Cd102 Cd 0.19039 0.75709 0.09247 0.0
O103 O 0.17913 0.7822 0.10562 0.0
C104 C 0.1636 0.78061 0.1316 0.0
O105 O 0.15594 0.76455 0.14799 0.0
C106 C 0.18711 0.71725 0.04922 0.0
C107 C 0.24232 0.75643 0.99819 0.0
O108 O 0.23156 0.75773 0.04781 0.0
O109 O 0.23577 0.75449 0.93811 0.0
O110 O 0.18712 0.21592 0.15042 0.0
Cd111 Cd 0.20177 0.23886 0.22638 0.0
O112 O 0.18462 0.23769 0.07928 0.0
Cd113 Cd 0.1754 0.2515 0.99094 0.0
O114 O 0.16468 0.27207 0.93136 0.0
C115 C 0.15229 0.27945 0.95907 0.0
O116 O 0.14658 0.27398 0.0196 0.0
C117 C 0.18193 0.22109 0.09312 0.0
C118 C 0.23856 0.24327 0.20697 0.0
O119 O 0.23124 0.2326 0.25254 0.0
O120 O 0.22847 0.25195 0.17078 0.0
O121 O 0.42688 0.77826 0.07672 0.0
Cd122 Cd 0.40964 0.74964 0.10578 0.0
O123 O 0.43064 0.77131 0.96955 0.0
Cd124 Cd 0.42347 0.74305 0.99293 0.0
O125 O 0.43695 0.7214 0.03396 0.0
C126 C 0.44965 0.72665 0.07454 0.0
O127 O 0.45259 0.74373 0.09004 0.0
C128 C 0.43235 0.78279 0.01727 0.0
C129 C 0.37346 0.75109 0.08225 0.0
O130 O 0.38071 0.75621 0.13906 0.0
O131 O 0.38329 0.74509 0.03669 0.0
O132 O 0.5882 0.09983 0.58637 0.0
Cd133 Cd 0.56289 0.07964 0.62993 0.0
O134 O 0.60321 0.10122 0.68241 0.0
Cd135 Cd 0.58002 0.08893 0.73858 0.0
O136 O 0.55855 0.09947 0.79348 0.0
C137 C 0.56341 0.11045 0.84101 0.0
O138 O 0.5804 0.1133 0.8572 0.0
C139 C 0.60223 0.1053 0.61989 0.0
C140 C 0.55901 0.04755 0.55793 0.0
O141 O 0.5518 0.06103 0.53686 0.0
O142 O 0.56794 0.04919 0.6135 0.0
O143 O 0.10731 0.90333 0.21127 0.0
Cd144 Cd 0.0923 0.92954 0.23464 0.0
O145 O 0.08263 0.88629 0.23738 0.0
Cd146 Cd 0.06486 0.86176 0.2611 0.0
O147 O 0.04335 0.84134 0.29379 0.0
C148 C 0.04046 0.83896 0.35706 0.0
O149 O 0.05079 0.84853 0.40078 0.0
C150 C 0.09885 0.88777 0.21834 0.0
C151 C 0.09853 0.95547 0.13337 0.0
O152 O 0.10911 0.95525 0.18426 0.0
O153 O 0.08501 0.94338 0.13032 0.0
O154 O 0.57266 0.88418 0.24744 0.0
Cd155 Cd 0.54991 0.90221 0.20878 0.0
O156 O 0.58495 0.88147 0.14714 0.0
Cd157 Cd 0.56385 0.89396 0.09763 0.0
O158 O 0.53661 0.88787 0.06028 0.0
C159 C 0.53437 0.87702 0.01064 0.0
O160 O 0.54852 0.87185 0.98151 0.0
C161 C 0.58458 0.87841 0.21078 0.0
C162 C 0.55113 0.93368 0.28402 0.0
O163 O 0.54209 0.91916 0.3048 0.0
O164 O 0.55952 0.93333 0.22743 0.0
O165 O 0.13801 0.11017 0.76926 0.0
Cd166 Cd 0.12703 0.08402 0.70088 0.0
O167 O 0.11636 0.12461 0.73402 0.0
Cd168 Cd 0.0991 0.14585 0.73165 0.0
O169 O 0.07933 0.16422 0.71552 0.0
C170 C 0.08198 0.17638 0.67059 0.0
O171 O 0.09693 0.17798 0.63567 0.0
C172 C 0.13016 0.12411 0.7707 0.0
C173 C 0.1202 0.05418 0.78521 0.0
O174 O 0.1356 0.05842 0.75833 0.0
O175 O 0.10793 0.0639 0.77129 0.0
H176 H 0.18267 0.69092 0.95195 0.0
H177 H 0.17607 0.70022 0.16695 0.0
H178 H 0.16813 0.66029 0.96571 0.0
H179 H 0.1613 0.66995 0.18027 0.0
H180 H 0.14063 0.61311 0.20074 0.0
H181 H 0.1634 0.63828 0.17762 0.0
H182 H 0.13751 0.64767 0.98739 0.0
H183 H 0.11507 0.62231 0.00953 0.0
C184 C 0.17833 0.68638 0.00224 0.0
C185 C 0.18034 0.69809 0.0582 0.0
C186 C 0.16995 0.66886 0.01005 0.0
C187 C 0.16346 0.66268 0.074 0.0
C188 C 0.16632 0.67414 0.13044 0.0
C189 C 0.17466 0.69161 0.12265 0.0
C190 C 0.14004 0.62027 0.15321 0.0
C191 C 0.12585 0.61588 0.10754 0.0
C192 C 0.15304 0.63477 0.14015 0.0
C193 C 0.1521 0.64519 0.08126 0.0
C194 C 0.13872 0.6399 0.0331 0.0
C195 C 0.12576 0.62539 0.04604 0.0
H196 H 0.61601 0.79389 0.45362 0.0
H197 H 0.66 0.80277 0.3121 0.0
H198 H 0.60293 0.81869 0.40391 0.0
H199 H 0.64712 0.82804 0.26335 0.0
H200 H 0.60598 0.85722 0.14498 0.0
H201 H 0.62225 0.83456 0.19517 0.0
H202 H 0.60713 0.85056 0.39593 0.0
H203 H 0.59041 0.87281 0.34568 0.0
C204 C 0.62296 0.80121 0.41212 0.0
C205 C 0.63904 0.79633 0.38679 0.0
C206 C 0.61554 0.81557 0.38395 0.0
C207 C 0.62405 0.82549 0.32998 0.0
C208 C 0.64014 0.8206 0.3045 0.0
C209 C 0.64754 0.80615 0.33256 0.0
C210 C 0.60635 0.85608 0.19988 0.0
C211 C 0.59673 0.86668 0.2413 0.0
C212 C 0.61573 0.8431 0.2287 0.0
C213 C 0.61578 0.84054 0.29958 0.0
C214 C 0.60699 0.85186 0.34107 0.0
C215 C 0.59751 0.86472 0.31228 0.0
H216 H 0.43387 0.29262 0.97463 0.0
H217 H 0.47543 0.26001 0.01915 0.0
H218 H 0.45597 0.31547 0.92574 0.0
H219 H 0.49752 0.28277 0.97027 0.0
H220 H 0.53023 0.32066 0.82248 0.0
H221 H 0.50755 0.29719 0.86371 0.0
H222 H 0.48035 0.33704 0.96374 0.0
H223 H 0.50275 0.36047 0.92149 0.0
C224 C 0.44772 0.29028 0.97359 0.0
C225 C 0.45285 0.27434 0.99949 0.0
C226 C 0.46039 0.3034 0.94585 0.0
C227 C 0.47853 0.30094 0.94389 0.0
C228 C 0.48363 0.28494 0.96964 0.0
C229 C 0.47094 0.27181 0.9973 0.0
C230 C 0.51937 0.32441 0.85308 0.0
C231 C 0.51831 0.34245 0.8687 0.0
C232 C 0.50642 0.31095 0.87701 0.0
C233 C 0.49212 0.31522 0.91703 0.0
C234 C 0.49103 0.33328 0.93223 0.0
C235 C 0.50396 0.34672 0.90833 0.0
H236 H 0.0059 0.23334 0.46057 0.0
H237 H 0.99304 0.24003 0.67255 0.0
H238 H 0.03053 0.21721 0.49339 0.0
H239 H 0.0179 0.22416 0.70535 0.0
H240 H 0.08316 0.20312 0.57606 0.0
H241 H 0.05973 0.2213 0.54756 0.0
H242 H 0.0257 0.19379 0.70096 0.0
H243 H 0.04922 0.17584 0.73037 0.0
C244 C 0.00841 0.2315 0.51419 0.0
C245 C 0.99745 0.23792 0.56391 0.0
C246 C 0.02261 0.22234 0.53303 0.0
C247 C 0.02617 0.21937 0.60201 0.0
C248 C 0.01537 0.22602 0.65175 0.0
C249 C 0.00118 0.2352 0.63292 0.0
C250 C 0.07072 0.20101 0.60401 0.0
C251 C 0.06805 0.18798 0.65536 0.0
C252 C 0.05726 0.21137 0.58738 0.0
C253 C 0.04081 0.20895 0.62177 0.0
C254 C 0.03827 0.19614 0.67399 0.0
C255 C 0.05173 0.18577 0.69059 0.0
H256 H 0.09908 0.37206 0.86115 0.0
H257 H 0.10787 0.34767 0.66703 0.0
H258 H 0.11599 0.35082 0.9173 0.0
H259 H 0.12426 0.32611 0.72336 0.0
H260 H 0.16327 0.29652 0.84047 0.0
H261 H 0.15053 0.32093 0.78497 0.0
H262 H 0.11085 0.31962 0.94392 0.0
H263 H 0.12388 0.29568 0.00019 0.0
C264 C 0.10474 0.36226 0.83037 0.0
C265 C 0.102 0.36148 0.75968 0.0
C266 C 0.11432 0.34999 0.86263 0.0
C267 C 0.12128 0.33658 0.825 0.0
C268 C 0.11922 0.33633 0.75391 0.0
C269 C 0.10974 0.34867 0.7216 0.0
C270 C 0.15186 0.30149 0.86358 0.0
C271 C 0.14457 0.29414 0.9247 0.0
C272 C 0.14452 0.31545 0.83168 0.0
C273 C 0.12969 0.32231 0.86007 0.0
C274 C 0.12247 0.31494 0.92128 0.0
C275 C 0.12985 0.30107 0.95329 0.0
H276 H 0.01508 0.81876 0.28071 0.0
H277 H 0.03153 0.83005 0.48843 0.0
H278 H 0.98968 0.79832 0.32129 0.0
H279 H 0.00642 0.80932 0.52886 0.0
H280 H 0.94966 0.7858 0.58105 0.0
H281 H 0.97434 0.80667 0.53734 0.0
H282 H 0.98225 0.76965 0.37556 0.0
H283 H 0.957 0.74926 0.41734 0.0
C284 C 0.01336 0.81679 0.335 0.0
C285 C 0.02533 0.82607 0.38131 0.0
C286 C 0.99883 0.80501 0.35828 0.0
C287 C 0.99596 0.8022 0.42839 0.0
C288 C 0.00804 0.81138 0.47458 0.0
C289 C 0.02253 0.82318 0.45134 0.0
C290 C 0.95664 0.78217 0.53597 0.0
C291 C 0.9517 0.76565 0.50375 0.0
C292 C 0.97088 0.79406 0.51126 0.0
C293 C 0.98046 0.78975 0.45346 0.0
C294 C 0.97519 0.77341 0.4202 0.0
C295 C 0.96092 0.76154 0.44494 0.0
H296 H 0.44861 0.69075 0.04851 0.0
H297 H 0.47882 0.73464 0.15552 0.0
H298 H 0.47052 0.6712 0.08201 0.0
H299 H 0.50086 0.71533 0.18723 0.0
H300 H 0.53169 0.67364 0.27672 0.0
H301 H 0.50667 0.69037 0.25522 0.0
H302 H 0.50083 0.66749 0.05361 0.0
H303 H 0.52546 0.65042 0.07579 0.0
C304 C 0.45985 0.6962 0.07947 0.0
C305 C 0.462 0.71428 0.09904 0.0
C306 C 0.47247 0.68503 0.09831 0.0
C307 C 0.48752 0.6917 0.13704 0.0
C308 C 0.48934 0.70965 0.15818 0.0
C309 C 0.47673 0.72078 0.13954 0.0
C310 C 0.52498 0.67209 0.22799 0.0
C311 C 0.53065 0.66077 0.17784 0.0
C312 C 0.51068 0.68174 0.21554 0.0
C313 C 0.50177 0.68035 0.15254 0.0
C314 C 0.50721 0.66871 0.10302 0.0
C315 C 0.52145 0.65901 0.11558 0.0
H316 H 0.63015 0.125 0.68398 0.0
H317 H 0.60546 0.11584 0.48668 0.0
H318 H 0.64826 0.15139 0.64039 0.0
H319 H 0.62414 0.14198 0.44211 0.0
H320 H 0.63368 0.20416 0.43865 0.0
H321 H 0.62265 0.17297 0.4582 0.0
H322 H 0.67076 0.1663 0.56909 0.0
H323 H 0.68155 0.19783 0.55147 0.0
C324 C 0.62898 0.12829 0.63066 0.0
C325 C 0.61609 0.11852 0.5892 0.0
C326 C 0.63948 0.14343 0.60542 0.0
C327 C 0.63746 0.14904 0.53792 0.0
C328 C 0.62572 0.1383 0.49481 0.0
C329 C 0.61509 0.12324 0.52025 0.0
C330 C 0.64207 0.196 0.46618 0.0
C331 C 0.65835 0.20358 0.49453 0.0
C332 C 0.6358 0.178 0.47698 0.0
C333 C 0.64573 0.1671 0.51591 0.0
C334 C 0.66261 0.17439 0.54006 0.0
C335 C 0.66883 0.19245 0.5297 0.0
H336 H 0.99587 0.36067 0.66041 0.0
H337 H 0.02128 0.36325 0.46298 0.0
H338 H 0.97039 0.34155 0.61333 0.0
H339 H 0.99569 0.34425 0.41594 0.0
H340 H 0.96135 0.289 0.3942 0.0
H341 H 0.9847 0.31218 0.43208 0.0
H342 H 0.9451 0.33979 0.53132 0.0
H343 H 0.92174 0.31622 0.49474 0.0
C344 C 0.99589 0.35743 0.60672 0.0
C345 C 0.0107 0.36332 0.56565 0.0
C346 C 0.98124 0.34653 0.5797 0.0
C347 C 0.98114 0.34124 0.51112 0.0
C348 C 0.99553 0.34789 0.46924 0.0
C349 C 0.01014 0.35886 0.49615 0.0
C350 C 0.95767 0.29989 0.42484 0.0
C351 C 0.93983 0.30058 0.44313 0.0
C352 C 0.97099 0.31334 0.44549 0.0
C353 C 0.96673 0.32779 0.48487 0.0
C354 C 0.94879 0.32873 0.5016 0.0
C355 C 0.93544 0.31531 0.48044 0.0
H356 H 0.56944 0.13415 0.94593 0.0
H357 H 0.52881 0.11241 0.80349 0.0
H358 H 0.54995 0.15529 0.98643 0.0
H359 H 0.50924 0.1335 0.84466 0.0
H360 H 0.49188 0.18988 0.86981 0.0
H361 H 0.50952 0.16639 0.83632 0.0
H362 H 0.52164 0.15743 0.0473 0.0
H363 H 0.50412 0.18104 0.08094 0.0
C364 C 0.55625 0.1337 0.92391 0.0
C365 C 0.55072 0.12167 0.87117 0.0
C366 C 0.54506 0.14578 0.94734 0.0
C367 C 0.52812 0.14615 0.91835 0.0
C368 C 0.52233 0.13369 0.86728 0.0
C369 C 0.53349 0.12153 0.84409 0.0
C370 C 0.49829 0.1829 0.9091 0.0
C371 C 0.49664 0.18738 0.97804 0.0
C372 C 0.50827 0.16934 0.88993 0.0
C373 C 0.51691 0.16002 0.93921 0.0
C374 C 0.51524 0.16446 0.00815 0.0
C375 C 0.50516 0.17796 0.02738 0.0
H376 H 0.6001 0.64434 0.34826 0.0
H377 H 0.64946 0.6459 0.23656 0.0
H378 H 0.61305 0.6698 0.41674 0.0
H379 H 0.66248 0.67118 0.30549 0.0
H380 H 0.67641 0.72494 0.41066 0.0
H381 H 0.66005 0.7034 0.33308 0.0
H382 H 0.63741 0.67288 0.50498 0.0
H383 H 0.65355 0.69452 0.58237 0.0
C384 C 0.61353 0.65042 0.33708 0.0
C385 C 0.6237 0.64328 0.28652 0.0
C386 C 0.62102 0.66484 0.37688 0.0
C387 C 0.63877 0.67247 0.36647 0.0
C388 C 0.64871 0.66572 0.31421 0.0
C389 C 0.64129 0.65119 0.27503 0.0
C390 C 0.6676 0.71389 0.4318 0.0
C391 C 0.66608 0.71153 0.50254 0.0
C392 C 0.6584 0.70145 0.38742 0.0
C393 C 0.64739 0.6865 0.41297 0.0
C394 C 0.64558 0.68439 0.48376 0.0
C395 C 0.65493 0.6967 0.52804 0.0
H396 H 0.0846 0.85461 0.17303 0.0
H397 H 0.13423 0.88541 0.23266 0.0
H398 H 0.10024 0.82879 0.1515 0.0
H399 H 0.14991 0.85963 0.21132 0.0
H400 H 0.17481 0.81565 0.09985 0.0
H401 H 0.15899 0.84148 0.1194 0.0
H402 H 0.11541 0.80708 0.21116 0.0
H403 H 0.13098 0.78129 0.19026 0.0
C404 C 0.09877 0.85574 0.18305 0.0
C405 C 0.1081 0.87191 0.20603 0.0
C406 C 0.10778 0.84099 0.17024 0.0
C407 C 0.12634 0.8421 0.17994 0.0
C408 C 0.13566 0.85835 0.20249 0.0
C409 C 0.12666 0.8731 0.2151 0.0
C410 C 0.16185 0.81362 0.12412 0.0
C411 C 0.15417 0.79641 0.14347 0.0
C412 C 0.15281 0.82843 0.13566 0.0
C413 C 0.13592 0.82636 0.16689 0.0
C414 C 0.12827 0.80913 0.18612 0.0
C415 C 0.13727 0.79434 0.1745 0.0
H416 H 0.03543 0.60266 0.35088 0.0
H417 H 0.04402 0.63803 0.17775 0.0
H418 H 0.0141 0.62125 0.39725 0.0
H419 H 0.0225 0.65633 0.22332 0.0
H420 H 0.00202 0.69677 0.36689 0.0
H421 H 0.02158 0.67688 0.31786 0.0
H422 H 0.98479 0.63112 0.37927 0.0
H423 H 0.96532 0.65104 0.42961 0.0
C424 C 0.0326 0.61425 0.32229 0.0
C425 C 0.04153 0.61895 0.26092 0.0
C426 C 0.02033 0.62487 0.34874 0.0
C427 C 0.01674 0.64038 0.3143 0.0
C428 C 0.02523 0.64468 0.25179 0.0
C429 C 0.03749 0.63411 0.22546 0.0
C430 C 0.99807 0.68247 0.36993 0.0
C431 C 0.98211 0.6755 0.40218 0.0
C432 C 0.00924 0.67106 0.3414 0.0
C433 C 0.0047 0.65241 0.34435 0.0
C434 C 0.98874 0.64542 0.37669 0.0
C435 C 0.97755 0.65685 0.40523 0.0
H436 H 0.12836 0.16011 0.75509 0.0
H437 H 0.14768 0.12163 0.88983 0.0
H438 H 0.13929 0.18417 0.83361 0.0
H439 H 0.15926 0.14563 0.96663 0.0
H440 H 0.16241 0.18937 0.12392 0.0
H441 H 0.14874 0.16657 0.04571 0.0
H442 H 0.16772 0.1998 0.87517 0.0
H443 H 0.1814 0.22261 0.95363 0.0
C444 C 0.13465 0.15675 0.80194 0.0
C445 C 0.13675 0.13893 0.81711 0.0
C446 C 0.1412 0.17056 0.84638 0.0
C447 C 0.15 0.16681 0.90676 0.0
C448 C 0.15223 0.14897 0.92133 0.0
C449 C 0.14573 0.13523 0.87698 0.0
C450 C 0.16355 0.19187 0.06972 0.0
C451 C 0.17276 0.20791 0.04499 0.0
C452 C 0.15577 0.17878 0.02488 0.0
C453 C 0.15717 0.18134 0.95415 0.0
C454 C 0.16614 0.19753 0.92936 0.0
C455 C 0.1739 0.21067 0.97435 0.0
H456 H 0.639 0.31825 0.4877 0.0
H457 H 0.64669 0.30184 0.69511 0.0
H458 H 0.6268 0.34466 0.52884 0.0
H459 H 0.63491 0.32849 0.73624 0.0
H460 H 0.59451 0.36687 0.78501 0.0
H461 H 0.60699 0.34066 0.74335 0.0
H462 H 0.63506 0.3728 0.58572 0.0
H463 H 0.62176 0.39876 0.62525 0.0
C464 C 0.63827 0.32037 0.54208 0.0
C465 C 0.64377 0.3079 0.58811 0.0
C466 C 0.63134 0.33556 0.56569 0.0
C467 C 0.6298 0.33867 0.63588 0.0
C468 C 0.63561 0.32635 0.68187 0.0
C469 C 0.6425 0.31113 0.65826 0.0
C470 C 0.60291 0.36822 0.74033 0.0
C471 C 0.6067 0.38475 0.70716 0.0
C472 C 0.6104 0.35328 0.71728 0.0
C473 C 0.62197 0.35459 0.66092 0.0
C474 C 0.62596 0.37123 0.62849 0.0
C475 C 0.61845 0.38614 0.65146 0.0
H476 H 0.4458 0.79727 0.89713 0.0
H477 H 0.4425 0.80854 0.11201 0.0
H478 H 0.46727 0.824 0.88288 0.0
H479 H 0.46431 0.83475 0.09836 0.0
H480 H 0.50228 0.88303 0.06541 0.0
H481 H 0.47388 0.86385 0.0555 0.0
H482 H 0.49783 0.8302 0.91316 0.0
H483 H 0.52584 0.84964 0.92118 0.0
C484 C 0.44943 0.80559 0.94113 0.0
C485 C 0.44266 0.8006 0.00591 0.0
C486 C 0.46182 0.82087 0.93303 0.0
C487 C 0.46778 0.83141 0.98961 0.0
C488 C 0.45997 0.8271 0.05343 0.0
C489 C 0.44751 0.81193 0.06141 0.0
C490 C 0.50133 0.87178 0.03076 0.0
C491 C 0.51641 0.86768 0.99501 0.0
C492 C 0.48508 0.86071 0.02538 0.0
C493 C 0.4836 0.84528 0.98446 0.0
C494 C 0.49835 0.84201 0.9448 0.0
C495 C 0.51453 0.85313 0.94981 0.0
H496 H 0.07273 0.51664 0.09358 0.0
H497 H 0.05797 0.54296 0.91064 0.0
H498 H 0.07109 0.48838 0.03172 0.0
H499 H 0.05631 0.51469 0.84903 0.0
H500 H 0.07573 0.46537 0.74788 0.0
H501 H 0.07732 0.49355 0.81013 0.0
H502 H 0.04774 0.46645 0.976 0.0
H503 H 0.04616 0.43823 0.91393 0.0
C504 C 0.06913 0.5164 0.04023 0.0
C505 C 0.06549 0.53204 0.007 0.0
C506 C 0.0681 0.5002 0.00494 0.0
C507 C 0.06358 0.49934 0.93556 0.0
C508 C 0.06 0.51499 0.90231 0.0
C509 C 0.06086 0.53115 0.93772 0.0
C510 C 0.06956 0.46541 0.79761 0.0
C511 C 0.06081 0.44957 0.82595 0.0
C512 C 0.0704 0.48157 0.83308 0.0
C513 C 0.06265 0.48219 0.89789 0.0
C514 C 0.05397 0.46634 0.9264 0.0
C515 C 0.05299 0.45021 0.89066 0.0
H516 H 0.7564 0.75796 0.56795 0.0
H517 H 0.75832 0.72645 0.75082 0.0
H518 H 0.78873 0.75926 0.55602 0.0
H519 H 0.79057 0.72775 0.73868 0.0
H520 H 0.84974 0.74939 0.73368 0.0
H521 H 0.81773 0.75047 0.74456 0.0
H522 H 0.81079 0.73781 0.5312 0.0
H523 H 0.84282 0.73676 0.52008 0.0
C524 C 0.76371 0.75134 0.60561 0.0
C525 C 0.7548 0.74209 0.66031 0.0
C526 C 0.7822 0.75203 0.5986 0.0
C527 C 0.79217 0.74365 0.64651 0.0
C528 C 0.78327 0.73452 0.70141 0.0
C529 C 0.76478 0.73368 0.70809 0.0
C530 C 0.84142 0.74699 0.68893 0.0
C531 C 0.84881 0.74292 0.62606 0.0
C532 C 0.82308 0.7475 0.6953 0.0
C533 C 0.81175 0.74411 0.63883 0.0
C534 C 0.8192 0.74059 0.5755 0.0
C535 C 0.83754 0.73992 0.56924 0.0
H536 H 0.62619 0.49391 0.62691 0.0
H537 H 0.57387 0.47301 0.55258 0.0
H538 H 0.62921 0.51581 0.53514 0.0
H539 H 0.57703 0.49477 0.46014 0.0
H540 H 0.58164 0.54938 0.35196 0.0
H541 H 0.57832 0.52709 0.4425 0.0
H542 H 0.63276 0.51707 0.41137 0.0
H543 H 0.63619 0.53954 0.32157 0.0
C544 C 0.61535 0.49395 0.59091 0.0
C545 C 0.59978 0.48172 0.5971 0.0
C546 C 0.61713 0.50644 0.53805 0.0
C547 C 0.60338 0.507 0.49025 0.0
C548 C 0.58779 0.4948 0.49656 0.0
C549 C 0.58602 0.48228 0.54935 0.0
C550 C 0.59289 0.54238 0.36429 0.0
C551 C 0.60919 0.54626 0.32965 0.0
C552 C 0.59095 0.52955 0.41595 0.0
C553 C 0.60529 0.52034 0.43424 0.0
C554 C 0.62154 0.52411 0.39913 0.0
C555 C 0.62346 0.53691 0.34738 0.0
H556 H 0.82591 0.26842 0.32565 0.0
H557 H 0.83881 0.27355 0.5393 0.0
H558 H 0.79463 0.26968 0.35166 0.0
H559 H 0.80768 0.27582 0.56538 0.0
H560 H 0.74854 0.25676 0.59639 0.0
H561 H 0.78019 0.25808 0.57198 0.0
H562 H 0.7729 0.28716 0.38648 0.0
H563 H 0.74101 0.28493 0.40948 0.0
C564 C 0.82208 0.27013 0.37813 0.0
C565 C 0.83477 0.27076 0.43048 0.0
C566 C 0.80413 0.27098 0.39311 0.0
C567 C 0.7985 0.2728 0.46077 0.0
C568 C 0.81138 0.27401 0.51286 0.0
C569 C 0.82928 0.27284 0.49793 0.0
C570 C 0.75373 0.26353 0.5506 0.0
C571 C 0.74229 0.27066 0.50468 0.0
C572 C 0.77194 0.2644 0.53672 0.0
C573 C 0.77922 0.27271 0.47708 0.0
C574 C 0.76778 0.28033 0.43218 0.0
C575 C 0.7495 0.27918 0.44556 0.0
H576 H 0.3543 0.2549 0.24405 0.0
H577 H 0.34351 0.2423 0.03238 0.0
H578 H 0.32252 0.25557 0.2639 0.0
H579 H 0.31172 0.2429 0.05249 0.0
H580 H 0.25754 0.26114 0.10397 0.0
H581 H 0.28968 0.2637 0.08421 0.0
H582 H 0.29576 0.23245 0.26485 0.0
H583 H 0.2637 0.22993 0.28483 0.0
C584 C 0.34518 0.25242 0.20164 0.0
C585 C 0.35142 0.24846 0.1367 0.0
C586 C 0.32697 0.25271 0.21313 0.0
C587 C 0.31464 0.24919 0.15984 0.0
C588 C 0.32093 0.24579 0.09443 0.0
C589 C 0.33913 0.24537 0.08302 0.0
C590 C 0.26575 0.25489 0.13964 0.0
C591 C 0.25808 0.2453 0.19591 0.0
C592 C 0.28413 0.2563 0.12813 0.0
C593 C 0.29522 0.24829 0.17302 0.0
C594 C 0.28757 0.23893 0.22981 0.0
C595 C 0.26919 0.2374 0.24099 0.0
H596 H 0.35071 0.76813 0.15921 0.0
H597 H 0.353 0.73668 0.97642 0.0
H598 H 0.31936 0.77039 0.13779 0.0
H599 H 0.32144 0.73831 0.95626 0.0
H600 H 0.25933 0.75452 0.11995 0.0
H601 H 0.29091 0.75324 0.13971 0.0
H602 H 0.3008 0.75797 0.9234 0.0
H603 H 0.26905 0.75855 0.9036 0.0
C604 C 0.34447 0.76157 0.1147 0.0
C605 C 0.35434 0.75222 0.06955 0.0
C606 C 0.32644 0.76278 0.10257 0.0
C607 C 0.31779 0.7545 0.04533 0.0
C608 C 0.3277 0.74511 0.00024 0.0
C609 C 0.34578 0.74406 0.01204 0.0
C610 C 0.26825 0.75535 0.07663 0.0
C611 C 0.26168 0.7566 0.0102 0.0
C612 C 0.28641 0.75471 0.08797 0.0
C613 C 0.29848 0.75549 0.03318 0.0
C614 C 0.29189 0.75702 0.96676 0.0
C615 C 0.27369 0.75749 0.95539 0.0
H616 H 0.5399 0.93744 0.4148 0.0
H617 H 0.56423 0.96753 0.24452 0.0
H618 H 0.54149 0.96493 0.48166 0.0
H619 H 0.56573 0.99498 0.31144 0.0
H620 H 0.54615 0.04183 0.42893 0.0
H621 H 0.54397 0.01419 0.36297 0.0
H622 H 0.56582 0.98751 0.53184 0.0
H623 H 0.56807 0.01516 0.59796 0.0
C624 C 0.54555 0.94991 0.3916 0.0
C625 C 0.55194 0.95032 0.32437 0.0
C626 C 0.54653 0.96562 0.43001 0.0
C627 C 0.55372 0.98207 0.40168 0.0
C628 C 0.55998 0.9825 0.33432 0.0
C629 C 0.5592 0.96678 0.29618 0.0
C630 C 0.55044 0.03007 0.45209 0.0
C631 C 0.5573 0.03068 0.51863 0.0
C632 C 0.54928 0.01428 0.41417 0.0
C633 C 0.55475 0.99874 0.44228 0.0
C634 C 0.56138 0.99927 0.50912 0.0
C635 C 0.56275 0.01512 0.54679 0.0
H636 H 0.08873 0.04117 0.84652 0.0
H637 H 0.14406 0.03257 0.83123 0.0
H638 H 0.08355 0.01684 0.92877 0.0
H639 H 0.1388 0.00812 0.91291 0.0
H640 H 0.127 0.9815 0.12186 0.0
H641 H 0.1321 0.00474 0.03532 0.0
H642 H 0.08262 0.98406 0.9373 0.0
H643 H 0.0774 0.96089 0.02431 0.0
C644 C 0.09976 0.03401 0.86031 0.0
C645 C 0.11682 0.03884 0.83248 0.0
C646 C 0.09676 0.02001 0.90719 0.0
C647 C 0.11078 0.0106 0.92749 0.0
C648 C 0.12778 0.01527 0.89893 0.0
C649 C 0.13076 0.02921 0.85183 0.0
C650 C 0.11722 0.98188 0.0818 0.0
C651 C 0.10178 0.96936 0.08004 0.0
C652 C 0.1202 0.99514 0.03197 0.0
C653 C 0.10777 0.99622 0.97943 0.0
C654 C 0.09236 0.98367 0.97753 0.0
C655 C 0.08941 0.97035 0.02719 0.0
loop_
_geom_bond_atom_site_label_1
_geom_bond_atom_site_label_2
_geom_bond_distance
_geom_bond_site_symmetry_2
_ccdc_geom_bond_type
O0 Cd1 2.300 . S
O0 C7 1.275 . S
Cd1 O0 2.300 . S
Cd1 O9 2.381 . S
Cd1 O10 2.378 . S
O2 Cd3 2.385 . S
O2 C7 1.255 . S
Cd3 O2 2.385 . S
Cd3 O4 2.317 . S
O4 Cd3 2.317 . S
O4 C5 1.232 . S
C5 O4 1.232 . S
C5 O6 1.218 . S
O6 C5 1.218 . S
C7 O0 1.275 . S
C7 O2 1.255 . S
C8 O9 1.258 . S
C8 O10 1.256 . S
O9 Cd1 2.381 . S
O9 C8 1.258 . S
O10 Cd1 2.378 . S
O10 C8 1.256 . S
O11 Cd12 2.300 . S
O11 C18 1.275 . S
Cd12 O11 2.300 . S
Cd12 O20 2.381 . S
Cd12 O21 2.378 . S
O13 Cd14 2.385 . S
O13 C18 1.255 . S
Cd14 O13 2.385 . S
Cd14 O15 2.317 . S
O15 Cd14 2.317 . S
O15 C16 1.232 . S
C16 O15 1.232 . S
C16 O17 1.218 . S
O17 C16 1.218 . S
C18 O11 1.275 . S
C18 O13 1.255 . S
C19 O20 1.258 . S
C19 O21 1.256 . S
O20 Cd12 2.381 . S
O20 C19 1.258 . S
O21 Cd12 2.378 . S
O21 C19 1.256 . S
O22 Cd23 2.300 . S
O22 C29 1.275 . S
Cd23 O22 2.300 . S
Cd23 O31 2.381 . S
Cd23 O32 2.378 . S
O24 Cd25 2.385 . S
O24 C29 1.255 . S
Cd25 O24 2.385 . S
Cd25 O26 2.317 . S
O26 Cd25 2.317 . S
O26 C27 1.232 . S
C27 O26 1.232 . S
C27 O28 1.218 . S
O28 C27 1.218 . S
C29 O22 1.275 . S
C29 O24 1.255 . S
C30 O31 1.258 . S
C30 O32 1.256 . S
O31 Cd23 2.381 . S
O31 C30 1.258 . S
O32 Cd23 2.378 . S
O32 C30 1.256 . S
O33 Cd34 2.300 . S
O33 C40 1.275 . S
Cd34 O33 2.300 . S
Cd34 O42 2.381 . S
Cd34 O43 2.378 . S
O35 Cd36 2.385 . S
O35 C40 1.255 . S
Cd36 O35 2.385 . S
Cd36 O37 2.317 . S
O37 Cd36 2.317 . S
O37 C38 1.232 . S
C38 O37 1.232 . S
C38 O39 1.218 . S
O39 C38 1.218 . S
C40 O33 1.275 . S
C40 O35 1.255 . S
C41 O42 1.258 . S
C41 O43 1.256 . S
O42 Cd34 2.381 . S
O42 C41 1.258 . S
O43 Cd34 2.378 . S
O43 C41 1.256 . S
O44 Cd45 2.300 . S
O44 C51 1.275 . S
Cd45 O44 2.300 . S
Cd45 O53 2.381 . S
Cd45 O54 2.378 . S
O46 Cd47 2.385 . S
O46 C51 1.255 . S
Cd47 O46 2.385 . S
Cd47 O48 2.317 . S
O48 Cd47 2.317 . S
O48 C49 1.232 . S
C49 O48 1.232 . S
C49 O50 1.218 . S
O50 C49 1.218 . S
C51 O44 1.275 . S
C51 O46 1.255 . S
C52 O53 1.258 . S
C52 O54 1.256 . S
O53 Cd45 2.381 . S
O53 C52 1.258 . S
O54 Cd45 2.378 . S
O54 C52 1.256 . S
O55 Cd56 2.300 . S
O55 C62 1.275 . S
Cd56 O55 2.300 . S
Cd56 O64 2.381 . S
Cd56 O65 2.378 . S
O57 Cd58 2.385 . S
O57 C62 1.255 . S
Cd58 O57 2.385 . S
Cd58 O59 2.317 . S
O59 Cd58 2.317 . S
O59 C60 1.232 . S
C60 O59 1.232 . S
C60 O61 1.218 . S
O61 C60 1.218 . S
C62 O55 1.275 . S
C62 O57 1.255 . S
C63 O64 1.258 . S
C63 O65 1.256 . S
O64 Cd56 2.381 . S
O64 C63 1.258 . S
O65 Cd56 2.378 . S
O65 C63 1.256 . S
O66 Cd67 2.300 . S
O66 C73 1.275 . S
Cd67 O66 2.300 . S
Cd67 O75 2.381 . S
Cd67 O76 2.378 . S
O68 Cd69 2.385 . S
O68 C73 1.255 . S
Cd69 O68 2.385 . S
Cd69 O70 2.317 . S
O70 Cd69 2.317 . S
O70 C71 1.232 . S
C71 O70 1.232 . S
C71 O72 1.218 . S
O72 C71 1.218 . S
C73 O66 1.275 . S
C73 O68 1.255 . S
C74 O75 1.258 . S
C74 O76 1.256 . S
O75 Cd67 2.381 . S
O75 C74 1.258 . S
O76 Cd67 2.378 . S
O76 C74 1.256 . S
O77 Cd78 2.300 . S
O77 C84 1.275 . S
Cd78 O77 2.300 . S
Cd78 O86 2.381 . S
Cd78 O87 2.378 . S
O79 Cd80 2.385 . S
O79 C84 1.255 . S
Cd80 O79 2.385 . S
Cd80 O81 2.317 . S
O81 Cd80 2.317 . S
O81 C82 1.232 . S
C82 O81 1.232 . S
C82 O83 1.218 . S
O83 C82 1.218 . S
C84 O77 1.275 . S
C84 O79 1.255 . S
C85 O86 1.258 . S
C85 O87 1.256 . S
O86 Cd78 2.381 . S
O86 C85 1.258 . S
O87 Cd78 2.378 . S
O87 C85 1.256 . S
O88 Cd89 2.300 . S
O88 C95 1.275 . S
Cd89 O88 2.300 . S
Cd89 O97 2.381 1_556 S
Cd89 O98 2.378 . S
O90 Cd91 2.385 . S
O90 C95 1.255 . S
Cd91 O90 2.385 . S
Cd91 O92 2.317 . S
O92 Cd91 2.317 . S
O92 C93 1.232 . S
C93 O92 1.232 . S
C93 O94 1.218 . S
O94 C93 1.218 . S
C95 O88 1.275 . S
C95 O90 1.255 . S
C96 O97 1.258 . S
C96 O98 1.256 1_554 S
O97 Cd89 2.381 1_554 S
O97 C96 1.258 . S
O98 Cd89 2.378 . S
O98 C96 1.256 1_556 S
O99 Cd100 2.300 1_554 S
O99 C106 1.275 . S
Cd100 O99 2.300 1_556 S
Cd100 O108 2.381 1_556 S
Cd100 O109 2.378 . S
O101 Cd102 2.385 . S
O101 C106 1.255 1_556 S
Cd102 O101 2.385 . S
Cd102 O103 2.317 . S
O103 Cd102 2.317 . S
O103 C104 1.234 . S
C104 O103 1.234 . S
C104 O105 1.221 . S
O105 C104 1.221 . S
C106 O99 1.275 . S
C106 O101 1.255 1_554 S
C107 O108 1.258 1_556 S
C107 O109 1.256 . S
O108 Cd100 2.381 1_554 S
O108 C107 1.258 1_554 S
O109 Cd100 2.378 . S
O109 C107 1.256 . S
O110 Cd111 2.297 1_554 S
O110 C117 1.271 1_554 S
Cd111 O110 2.297 1_556 S
Cd111 O119 2.381 1_556 S
Cd111 O120 2.378 . S
O112 Cd113 2.385 . S
O112 C117 1.255 . S
Cd113 O112 2.385 . S
Cd113 O114 2.317 . S
O114 Cd113 2.317 . S
O114 C115 1.232 . S
C115 O114 1.232 . S
C115 O116 1.218 . S
O116 C115 1.218 . S
C117 O110 1.271 1_556 S
C117 O112 1.255 . S
C118 O119 1.258 . S
C118 O120 1.256 1_554 S
O119 Cd111 2.381 1_554 S
O119 C118 1.258 . S
O120 Cd111 2.378 . S
O120 C118 1.256 1_556 S
O121 Cd122 2.300 1_554 S
O121 C128 1.275 . S
Cd122 O121 2.300 1_556 S
Cd122 O130 2.381 1_556 S
Cd122 O131 2.378 . S
O123 Cd124 2.385 . S
O123 C128 1.255 1_556 S
Cd124 O123 2.385 . S
Cd124 O125 2.317 . S
O125 Cd124 2.317 . S
O125 C126 1.232 1_556 S
C126 O125 1.232 1_554 S
C126 O127 1.218 1_554 S
O127 C126 1.218 1_556 S
C128 O121 1.275 . S
C128 O123 1.255 1_554 S
C129 O130 1.258 1_556 S
C129 O131 1.256 . S
O130 Cd122 2.381 1_554 S
O130 C129 1.258 1_554 S
O131 Cd122 2.378 . S
O131 C129 1.256 . S
O132 Cd133 2.300 . S
O132 C139 1.275 . S
Cd133 O132 2.300 . S
Cd133 O141 2.381 . S
Cd133 O142 2.378 . S
O134 Cd135 2.385 . S
O134 C139 1.255 . S
Cd135 O134 2.385 . S
Cd135 O136 2.317 . S
O136 Cd135 2.317 . S
O136 C137 1.232 . S
C137 O136 1.232 . S
C137 O138 1.218 . S
O138 C137 1.218 . S
C139 O132 1.275 . S
C139 O134 1.255 . S
C140 O141 1.258 . S
C140 O142 1.256 . S
O141 Cd133 2.381 . S
O141 C140 1.258 . S
O142 Cd133 2.378 . S
O142 C140 1.256 . S
O143 Cd144 2.300 . S
O143 C150 1.275 . S
Cd144 O143 2.300 . S
Cd144 O152 2.381 . S
Cd144 O153 2.378 . S
O145 Cd146 2.385 . S
O145 C150 1.255 . S
Cd146 O145 2.385 . S
Cd146 O147 2.317 . S
O147 Cd146 2.317 . S
O147 C148 1.232 . S
C148 O147 1.232 . S
C148 O149 1.218 . S
O149 C148 1.218 . S
C150 O143 1.275 . S
C150 O145 1.255 . S
C151 O152 1.258 . S
C151 O153 1.256 . S
O152 Cd144 2.381 . S
O152 C151 1.258 . S
O153 Cd144 2.378 . S
O153 C151 1.256 . S
O154 Cd155 2.300 . S
O154 C161 1.275 . S
Cd155 O154 2.300 . S
Cd155 O163 2.381 . S
Cd155 O164 2.378 . S
O156 Cd157 2.385 . S
O156 C161 1.255 . S
Cd157 O156 2.385 . S
Cd157 O158 2.317 . S
O158 Cd157 2.317 . S
O158 C159 1.232 . S
C159 O158 1.232 . S
C159 O160 1.218 . S
O160 C159 1.218 . S
C161 O154 1.275 . S
C161 O156 1.255 . S
C162 O163 1.258 . S
C162 O164 1.256 . S
O163 Cd155 2.381 . S
O163 C162 1.258 . S
O164 Cd155 2.378 . S
O164 C162 1.256 . S
O165 Cd166 2.300 . S
O165 C172 1.275 . S
Cd166 O165 2.300 . S
Cd166 O174 2.381 . S
Cd166 O175 2.378 . S
O167 Cd168 2.385 . S
O167 C172 1.255 . S
Cd168 O167 2.385 . S
Cd168 O169 2.317 . S
O169 Cd168 2.317 . S
O169 C170 1.232 . S
C170 O169 1.232 . S
C170 O171 1.218 . S
O171 C170 1.218 . S
C172 O165 1.275 . S
C172 O167 1.255 . S
C173 O174 1.258 . S
C173 O175 1.256 . S
O174 Cd166 2.381 . S
O174 C173 1.258 . S
O175 Cd166 2.378 . S
O175 C173 1.256 . S
H176 C184 0.950 1_556 S
H177 C189 0.950 . S
H178 C186 0.950 . S
H179 C188 0.950 . S
H180 C190 0.950 . S
H181 C192 0.950 . S
H182 C194 0.950 . S
H183 C195 0.950 . S
C184 H176 0.950 1_554 S
C184 C185 1.386 . S
C184 C186 1.391 . S
C185 C184 1.386 . S
C185 C189 1.393 . S
C186 H178 0.950 . S
C186 C184 1.391 . S
C186 C187 1.400 . S
C187 C186 1.400 . S
C187 C188 1.398 . S
C187 C193 1.491 . S
C188 H179 0.950 . S
C188 C187 1.398 . S
C188 C189 1.391 . S
C189 H177 0.950 . S
C189 C185 1.393 . S
C189 C188 1.391 . S
C190 H180 0.950 . S
C190 C191 1.386 . S
C190 C192 1.391 . S
C191 C190 1.386 . S
C191 C195 1.393 . S
C192 H181 0.950 . S
C192 C190 1.391 . S
C192 C193 1.400 . S
C193 C187 1.491 . S
C193 C192 1.400 . S
C193 C194 1.398 . S
C194 H182 0.950 . S
C194 C193 1.398 . S
C194 C195 1.391 . S
C195 H183 0.950 . S
C195 C191 1.393 . S
C195 C194 1.391 . S
H196 C204 0.950 . S
H197 C209 0.950 . S
H198 C206 0.950 . S
H199 C208 0.950 . S
H200 C210 0.950 . S
H201 C212 0.950 . S
H202 C214 0.950 . S
H203 C215 0.950 . S
C204 H196 0.950 . S
C204 C205 1.386 . S
C204 C206 1.391 . S
C205 C204 1.386 . S
C205 C209 1.393 . S
C206 H198 0.950 . S
C206 C204 1.391 . S
C206 C207 1.400 . S
C207 C206 1.400 . S
C207 C208 1.398 . S
C207 C213 1.491 . S
C208 H199 0.950 . S
C208 C207 1.398 . S
C208 C209 1.391 . S
C209 H197 0.950 . S
C209 C205 1.393 . S
C209 C208 1.391 . S
C210 H200 0.950 . S
C210 C211 1.386 . S
C210 C212 1.391 . S
C211 C210 1.386 . S
C211 C215 1.393 . S
C212 H201 0.950 . S
C212 C210 1.391 . S
C212 C213 1.400 . S
C213 C207 1.491 . S
C213 C212 1.400 . S
C213 C214 1.398 . S
C214 H202 0.950 . S
C214 C213 1.398 . S
C214 C215 1.391 . S
C215 H203 0.950 . S
C215 C211 1.393 . S
C215 C214 1.391 . S
H216 C224 0.950 1_554 S
H217 C229 0.950 . S
H218 C226 0.961 . S
H219 C228 0.950 . S
H220 C230 0.950 . S
H221 C232 0.950 . S
H222 C234 0.950 . S
H223 C235 0.950 . S
C224 H216 0.950 1_556 S
C224 C225 1.386 . S
C224 C226 1.391 . S
C225 C224 1.386 . S
C225 C229 1.393 . S
C226 H218 0.961 . S
C226 C224 1.391 . S
C226 C227 1.400 . S
C227 C226 1.400 . S
C227 C228 1.398 . S
C227 C233 1.491 . S
C228 H219 0.950 . S
C228 C227 1.398 . S
C228 C229 1.391 . S
C229 H217 0.950 . S
C229 C225 1.393 . S
C229 C228 1.391 . S
C230 H220 0.950 . S
C230 C231 1.386 . S
C230 C232 1.391 . S
C231 C230 1.386 . S
C231 C235 1.393 . S
C232 H221 0.950 . S
C232 C230 1.391 . S
C232 C233 1.400 . S
C233 C227 1.491 . S
C233 C232 1.400 . S
C233 C234 1.398 . S
C234 H222 0.950 . S
C234 C233 1.398 . S
C234 C235 1.391 . S
C235 H223 0.950 . S
C235 C231 1.393 . S
C235 C234 1.391 . S
H236 C244 0.950 . S
H237 C249 0.950 . S
H238 C246 0.950 . S
H239 C248 0.952 . S
H240 C250 0.950 . S
H241 C252 0.950 . S
H242 C254 0.950 1_655 S
H243 C255 0.950 . S
C244 H236 0.950 . S
C244 C245 1.386 . S
C244 C246 1.391 . S
C245 C244 1.386 . S
C245 C249 1.393 . S
C246 H238 0.950 . S
C246 C244 1.391 . S
C246 C247 1.400 . S
C247 C246 1.400 . S
C247 C248 1.398 1_655 S
C247 C253 1.491 1_655 S
C248 H239 0.952 . S
C248 C247 1.398 1_455 S
C248 C249 1.389 1_455 S
C249 H237 0.950 . S
C249 C245 1.393 . S
C249 C248 1.389 1_655 S
C250 H240 0.950 . S
C250 C251 1.386 . S
C250 C252 1.391 . S
C251 C250 1.386 . S
C251 C255 1.393 . S
C252 H241 0.950 . S
C252 C250 1.391 . S
C252 C253 1.400 . S
C253 C247 1.491 1_455 S
C253 C252 1.400 . S
C253 C254 1.398 . S
C254 H242 0.950 1_455 S
C254 C253 1.398 . S
C254 C255 1.391 . S
C255 H243 0.950 . S
C255 C251 1.393 . S
C255 C254 1.391 . S
H256 C264 0.950 . S
H257 C269 0.950 . S
H258 C266 0.950 . S
H259 C268 0.950 . S
H260 C270 0.950 . S
H261 C272 0.950 . S
H262 C274 0.950 . S
H263 C275 0.950 1_554 S
C264 H256 0.950 . S
C264 C265 1.386 . S
C264 C266 1.391 . S
C265 C264 1.386 . S
C265 C269 1.393 . S
C266 H258 0.950 . S
C266 C264 1.391 . S
C266 C267 1.400 . S
C267 C266 1.400 . S
C267 C268 1.398 . S
C267 C273 1.491 . S
C268 H259 0.950 . S
C268 C267 1.398 . S
C268 C269 1.391 . S
C269 H257 0.950 . S
C269 C265 1.393 . S
C269 C268 1.391 . S
C270 H260 0.950 . S
C270 C271 1.386 . S
C270 C272 1.391 . S
C271 C270 1.386 . S
C271 C275 1.393 . S
C272 H261 0.950 . S
C272 C270 1.391 . S
C272 C273 1.400 . S
C273 C267 1.491 . S
C273 C272 1.400 . S
C273 C274 1.398 . S
C274 H262 0.950 . S
C274 C273 1.398 . S
C274 C275 1.391 . S
C275 H263 0.950 1_556 S
C275 C271 1.393 . S
C275 C274 1.391 . S
H276 C284 0.950 . S
H277 C289 0.950 . S
H278 C286 0.950 1_655 S
H279 C288 0.950 . S
H280 C290 0.950 . S
H281 C292 0.950 . S
H282 C294 0.950 . S
H283 C295 0.950 . S
C284 H276 0.950 . S
C284 C285 1.386 . S
C284 C286 1.391 . S
C285 C284 1.386 . S
C285 C289 1.393 . S
C286 H278 0.950 1_455 S
C286 C284 1.391 . S
C286 C287 1.400 . S
C287 C286 1.400 . S
C287 C288 1.398 . S
C287 C293 1.491 1_455 S
C288 H279 0.950 . S
C288 C287 1.398 . S
C288 C289 1.391 . S
C289 H277 0.950 . S
C289 C285 1.393 . S
C289 C288 1.391 . S
C290 H280 0.950 . S
C290 C291 1.386 . S
C290 C292 1.391 . S
C291 C290 1.386 . S
C291 C295 1.393 . S
C292 H281 0.950 . S
C292 C290 1.391 . S
C292 C293 1.400 . S
C293 C287 1.491 1_655 S
C293 C292 1.400 . S
C293 C294 1.398 . S
C294 H282 0.950 . S
C294 C293 1.398 . S
C294 C295 1.391 . S
C295 H283 0.950 . S
C295 C291 1.393 . S
C295 C294 1.391 . S
H296 C304 0.950 1_556 S
H297 C309 0.950 . S
H298 C306 0.950 . S
H299 C308 0.950 . S
H300 C310 0.950 . S
H301 C312 0.950 . S
H302 C314 0.950 . S
H303 C315 0.950 . S
C304 H296 0.950 1_554 S
C304 C305 1.386 . S
C304 C306 1.391 . S
C305 C304 1.386 . S
C305 C309 1.393 . S
C306 H298 0.950 . S
C306 C304 1.391 . S
C306 C307 1.400 . S
C307 C306 1.400 . S
C307 C308 1.398 . S
C307 C313 1.491 . S
C308 H299 0.950 . S
C308 C307 1.398 . S
C308 C309 1.391 . S
C309 H297 0.950 . S
C309 C305 1.393 . S
C309 C308 1.391 . S
C310 H300 0.950 . S
C310 C311 1.386 . S
C310 C312 1.391 . S
C311 C310 1.386 . S
C311 C315 1.393 . S
C312 H301 0.950 . S
C312 C310 1.391 . S
C312 C313 1.400 . S
C313 C307 1.491 . S
C313 C312 1.400 . S
C313 C314 1.398 . S
C314 H302 0.950 . S
C314 C313 1.398 . S
C314 C315 1.391 . S
C315 H303 0.950 . S
C315 C311 1.393 . S
C315 C314 1.391 . S
H316 C324 0.950 . S
H317 C329 0.950 . S
H318 C326 0.950 . S
H319 C328 0.950 . S
H320 C330 0.950 . S
H321 C332 0.950 . S
H322 C334 0.950 . S
H323 C335 0.950 . S
C324 H316 0.950 . S
C324 C325 1.386 . S
C324 C326 1.391 . S
C325 C324 1.386 . S
C325 C329 1.393 . S
C326 H318 0.950 . S
C326 C324 1.391 . S
C326 C327 1.400 . S
C327 C326 1.400 . S
C327 C328 1.398 . S
C327 C333 1.491 . S
C328 H319 0.950 . S
C328 C327 1.398 . S
C328 C329 1.391 . S
C329 H317 0.950 . S
C329 C325 1.393 . S
C329 C328 1.391 . S
C330 H320 0.950 . S
C330 C331 1.386 . S
C330 C332 1.391 . S
C331 C330 1.386 . S
C331 C335 1.393 . S
C332 H321 0.950 . S
C332 C330 1.391 . S
C332 C333 1.400 . S
C333 C327 1.491 . S
C333 C332 1.400 . S
C333 C334 1.398 . S
C334 H322 0.950 . S
C334 C333 1.398 . S
C334 C335 1.391 . S
C335 H323 0.950 . S
C335 C331 1.393 . S
C335 C334 1.391 . S
H336 C344 0.950 . S
H337 C349 0.950 . S
H338 C346 0.950 . S
H339 C348 0.950 . S
H340 C350 0.950 . S
H341 C352 0.950 . S
H342 C354 0.950 . S
H343 C355 0.950 . S
C344 H336 0.950 . S
C344 C345 1.386 . S
C344 C346 1.391 . S
C345 C344 1.386 . S
C345 C349 1.393 . S
C346 H338 0.950 . S
C346 C344 1.391 . S
C346 C347 1.400 . S
C347 C346 1.400 . S
C347 C348 1.398 . S
C347 C353 1.491 1_455 S
C348 H339 0.950 . S
C348 C347 1.398 . S
C348 C349 1.391 . S
C349 H337 0.950 . S
C349 C345 1.393 . S
C349 C348 1.391 . S
C350 H340 0.950 . S
C350 C351 1.386 . S
C350 C352 1.391 . S
C351 C350 1.386 . S
C351 C355 1.393 . S
C352 H341 0.950 . S
C352 C350 1.391 . S
C352 C353 1.400 . S
C353 C347 1.491 1_655 S
C353 C352 1.400 . S
C353 C354 1.398 . S
C354 H342 0.950 . S
C354 C353 1.398 . S
C354 C355 1.391 . S
C355 H343 0.950 . S
C355 C351 1.393 . S
C355 C354 1.391 . S
H356 C364 0.950 . S
H357 C369 0.950 . S
H358 C366 0.950 . S
H359 C368 0.950 . S
H360 C370 0.950 . S
H361 C372 0.950 . S
H362 C374 0.950 . S
H363 C375 0.950 . S
C364 H356 0.950 . S
C364 C365 1.386 . S
C364 C366 1.391 . S
C365 C364 1.386 . S
C365 C369 1.393 . S
C366 H358 0.950 . S
C366 C364 1.391 . S
C366 C367 1.400 . S
C367 C366 1.400 . S
C367 C368 1.398 . S
C367 C373 1.491 . S
C368 H359 0.950 . S
C368 C367 1.398 . S
C368 C369 1.391 . S
C369 H357 0.950 . S
C369 C365 1.393 . S
C369 C368 1.391 . S
C370 H360 0.950 . S
C370 C371 1.386 . S
C370 C372 1.391 . S
C371 C370 1.386 . S
C371 C375 1.393 . S
C372 H361 0.950 . S
C372 C370 1.391 . S
C372 C373 1.400 . S
C373 C367 1.491 . S
C373 C372 1.400 . S
C373 C374 1.398 . S
C374 H362 0.950 . S
C374 C373 1.398 . S
C374 C375 1.391 . S
C375 H363 0.950 . S
C375 C371 1.393 . S
C375 C374 1.391 . S
H376 C384 0.950 . S
H377 C389 0.950 . S
H378 C386 0.950 . S
H379 C388 0.950 . S
H380 C390 0.950 . S
H381 C392 0.950 . S
H382 C394 0.950 . S
H383 C395 0.950 . S
C384 H376 0.950 . S
C384 C385 1.386 . S
C384 C386 1.391 . S
C385 C384 1.386 . S
C385 C389 1.393 . S
C386 H378 0.950 . S
C386 C384 1.391 . S
C386 C387 1.400 . S
C387 C386 1.400 . S
C387 C388 1.398 . S
C387 C393 1.491 . S
C388 H379 0.950 . S
C388 C387 1.398 . S
C388 C389 1.391 . S
C389 H377 0.950 . S
C389 C385 1.393 . S
C389 C388 1.391 . S
C390 H380 0.950 . S
C390 C391 1.386 . S
C390 C392 1.391 . S
C391 C390 1.386 . S
C391 C395 1.393 . S
C392 H381 0.950 . S
C392 C390 1.391 . S
C392 C393 1.400 . S
C393 C387 1.491 . S
C393 C392 1.400 . S
C393 C394 1.398 . S
C394 H382 0.950 . S
C394 C393 1.398 . S
C394 C395 1.391 . S
C395 H383 0.950 . S
C395 C391 1.393 . S
C395 C394 1.391 . S
H396 C404 0.950 . S
H397 C409 0.950 . S
H398 C406 0.950 . S
H399 C408 0.950 . S
H400 C410 0.950 . S
H401 C412 0.950 . S
H402 C414 0.950 . S
H403 C415 0.950 . S
C404 H396 0.950 . S
C404 C405 1.386 . S
C404 C406 1.391 . S
C405 C404 1.386 . S
C405 C409 1.393 . S
C406 H398 0.950 . S
C406 C404 1.391 . S
C406 C407 1.400 . S
C407 C406 1.400 . S
C407 C408 1.398 . S
C407 C413 1.491 . S
C408 H399 0.950 . S
C408 C407 1.398 . S
C408 C409 1.391 . S
C409 H397 0.950 . S
C409 C405 1.393 . S
C409 C408 1.391 . S
C410 H400 0.950 . S
C410 C411 1.386 . S
C410 C412 1.391 . S
C411 C410 1.386 . S
C411 C415 1.393 . S
C412 H401 0.950 . S
C412 C410 1.391 . S
C412 C413 1.400 . S
C413 C407 1.491 . S
C413 C412 1.400 . S
C413 C414 1.398 . S
C414 H402 0.950 . S
C414 C413 1.398 . S
C414 C415 1.391 . S
C415 H403 0.950 . S
C415 C411 1.393 . S
C415 C414 1.391 . S
H416 C424 0.950 . S
H417 C429 0.950 . S
H418 C426 0.950 . S
H419 C428 0.950 . S
H420 C430 0.950 . S
H421 C432 0.950 1_455 S
H422 C434 0.950 . S
H423 C435 0.950 . S
C424 H416 0.950 . S
C424 C425 1.386 . S
C424 C426 1.391 . S
C425 C424 1.386 . S
C425 C429 1.393 . S
C426 H418 0.950 . S
C426 C424 1.391 . S
C426 C427 1.400 . S
C427 C426 1.400 . S
C427 C428 1.398 . S
C427 C433 1.491 1_455 S
C428 H419 0.950 . S
C428 C427 1.398 . S
C428 C429 1.391 . S
C429 H417 0.950 . S
C429 C425 1.393 . S
C429 C428 1.391 . S
C430 H420 0.950 . S
C430 C431 1.386 . S
C430 C432 1.391 . S
C431 C430 1.386 . S
C431 C435 1.393 . S
C432 H421 0.950 1_655 S
C432 C430 1.391 . S
C432 C433 1.400 . S
C433 C427 1.491 1_655 S
C433 C432 1.400 . S
C433 C434 1.398 . S
C434 H422 0.950 . S
C434 C433 1.398 . S
C434 C435 1.391 . S
C435 H423 0.950 . S
C435 C431 1.393 . S
C435 C434 1.391 . S
H436 C444 0.950 . S
H437 C449 0.950 . S
H438 C446 0.950 . S
H439 C448 0.950 . S
H440 C450 0.950 1_554 S
H441 C452 0.950 . S
H442 C454 0.950 . S
H443 C455 0.950 . S
C444 H436 0.950 . S
C444 C445 1.386 . S
C444 C446 1.391 . S
C445 C444 1.386 . S
C445 C449 1.393 . S
C446 H438 0.950 . S
C446 C444 1.391 . S
C446 C447 1.400 . S
C447 C446 1.400 . S
C447 C448 1.398 . S
C447 C453 1.491 . S
C448 H439 0.950 . S
C448 C447 1.398 . S
C448 C449 1.391 . S
C449 H437 0.950 . S
C449 C445 1.393 . S
C449 C448 1.391 . S
C450 H440 0.950 1_556 S
C450 C451 1.386 . S
C450 C452 1.391 . S
C451 C450 1.386 . S
C451 C455 1.393 . S
C452 H441 0.950 . S
C452 C450 1.391 . S
C452 C453 1.400 . S
C453 C447 1.491 . S
C453 C452 1.400 . S
C453 C454 1.398 . S
C454 H442 0.950 . S
C454 C453 1.398 . S
C454 C455 1.391 . S
C455 H443 0.950 . S
C455 C451 1.393 . S
C455 C454 1.391 . S
H456 C464 0.950 . S
H457 C469 0.950 . S
H458 C466 0.950 . S
H459 C468 0.950 . S
H460 C470 0.950 . S
H461 C472 0.950 . S
H462 C474 0.950 . S
H463 C475 0.950 . S
C464 H456 0.950 . S
C464 C465 1.386 . S
C464 C466 1.391 . S
C465 C464 1.386 . S
C465 C469 1.393 . S
C466 H458 0.950 . S
C466 C464 1.391 . S
C466 C467 1.400 . S
C467 C466 1.400 . S
C467 C468 1.398 . S
C467 C473 1.491 . S
C468 H459 0.950 . S
C468 C467 1.398 . S
C468 C469 1.391 . S
C469 H457 0.950 . S
C469 C465 1.393 . S
C469 C468 1.391 . S
C470 H460 0.950 . S
C470 C471 1.386 . S
C470 C472 1.391 . S
C471 C470 1.386 . S
C471 C475 1.393 . S
C472 H461 0.950 . S
C472 C470 1.391 . S
C472 C473 1.400 . S
C473 C467 1.491 . S
C473 C472 1.400 . S
C473 C474 1.398 . S
C474 H462 0.950 . S
C474 C473 1.398 . S
C474 C475 1.391 . S
C475 H463 0.950 . S
C475 C471 1.393 . S
C475 C474 1.391 . S
H476 C484 0.950 . S
H477 C489 0.950 . S
H478 C486 0.950 . S
H479 C488 0.950 . S
H480 C490 0.950 . S
H481 C492 0.950 . S
H482 C494 0.950 . S
H483 C495 0.950 . S
C484 H476 0.950 . S
C484 C485 1.386 . S
C484 C486 1.391 . S
C485 C484 1.386 . S
C485 C489 1.393 . S
C486 H478 0.950 . S
C486 C484 1.391 . S
C486 C487 1.400 . S
C487 C486 1.400 . S
C487 C488 1.398 . S
C487 C493 1.491 . S
C488 H479 0.950 . S
C488 C487 1.398 . S
C488 C489 1.391 . S
C489 H477 0.950 . S
C489 C485 1.393 . S
C489 C488 1.391 . S
C490 H480 0.950 . S
C490 C491 1.386 . S
C490 C492 1.391 . S
C491 C490 1.386 . S
C491 C495 1.393 . S
C492 H481 0.950 . S
C492 C490 1.391 . S
C492 C493 1.400 . S
C493 C487 1.491 . S
C493 C492 1.400 . S
C493 C494 1.398 . S
C494 H482 0.950 . S
C494 C493 1.398 . S
C494 C495 1.391 . S
C495 H483 0.950 . S
C495 C491 1.393 . S
C495 C494 1.391 . S
H496 C504 0.950 . S
H497 C509 0.950 . S
H498 C506 0.950 . S
H499 C508 0.950 1_556 S
H500 C510 0.950 . S
H501 C512 0.950 . S
H502 C514 0.950 1_554 S
H503 C515 0.950 . S
C504 H496 0.950 . S
C504 C505 1.386 . S
C504 C506 1.391 . S
C505 C504 1.386 . S
C505 C509 1.393 . S
C506 H498 0.950 . S
C506 C504 1.391 . S
C506 C507 1.400 . S
C507 C506 1.400 . S
C507 C508 1.398 . S
C507 C513 1.491 1_554 S
C508 H499 0.950 1_554 S
C508 C507 1.398 . S
C508 C509 1.391 . S
C509 H497 0.950 . S
C509 C505 1.393 . S
C509 C508 1.391 . S
C510 H500 0.950 . S
C510 C511 1.386 . S
C510 C512 1.391 . S
C511 C510 1.386 . S
C511 C515 1.393 . S
C512 H501 0.950 . S
C512 C510 1.391 . S
C512 C513 1.400 . S
C513 C507 1.491 1_556 S
C513 C512 1.400 . S
C513 C514 1.398 . S
C514 H502 0.950 1_556 S
C514 C513 1.398 . S
C514 C515 1.391 . S
C515 H503 0.950 . S
C515 C511 1.393 . S
C515 C514 1.391 . S
H516 C524 0.950 . S
H517 C529 0.950 . S
H518 C526 0.950 . S
H519 C528 0.950 . S
H520 C530 0.950 . S
H521 C532 0.950 . S
H522 C534 0.950 . S
H523 C535 0.950 . S
C524 H516 0.950 . S
C524 C525 1.386 . S
C524 C526 1.391 . S
C525 C524 1.386 . S
C525 C529 1.393 . S
C526 H518 0.950 . S
C526 C524 1.391 . S
C526 C527 1.400 . S
C527 C526 1.400 . S
C527 C528 1.398 . S
C527 C533 1.491 . S
C528 H519 0.950 . S
C528 C527 1.398 . S
C528 C529 1.391 . S
C529 H517 0.950 . S
C529 C525 1.393 . S
C529 C528 1.391 . S
C530 H520 0.950 . S
C530 C531 1.386 . S
C530 C532 1.391 . S
C531 C530 1.386 . S
C531 C535 1.393 . S
C532 H521 0.950 . S
C532 C530 1.391 . S
C532 C533 1.400 . S
C533 C527 1.491 . S
C533 C532 1.400 . S
C533 C534 1.398 . S
C534 H522 0.950 . S
C534 C533 1.398 . S
C534 C535 1.391 . S
C535 H523 0.950 . S
C535 C531 1.393 . S
C535 C534 1.391 . S
H536 C544 0.950 . S
H537 C549 0.950 . S
H538 C546 0.950 . S
H539 C548 0.950 . S
H540 C550 0.950 . S
H541 C552 0.950 . S
H542 C554 0.950 . S
H543 C555 0.950 . S
C544 H536 0.950 . S
C544 C545 1.386 . S
C544 C546 1.391 . S
C545 C544 1.386 . S
C545 C549 1.393 . S
C546 H538 0.950 . S
C546 C544 1.391 . S
C546 C547 1.400 . S
C547 C546 1.400 . S
C547 C548 1.398 . S
C547 C553 1.491 . S
C548 H539 0.950 . S
C548 C547 1.398 . S
C548 C549 1.391 . S
C549 H537 0.950 . S
C549 C545 1.393 . S
C549 C548 1.391 . S
C550 H540 0.950 . S
C550 C551 1.386 . S
C550 C552 1.391 . S
C551 C550 1.386 . S
C551 C555 1.393 . S
C552 H541 0.950 . S
C552 C550 1.391 . S
C552 C553 1.400 . S
C553 C547 1.491 . S
C553 C552 1.400 . S
C553 C554 1.398 . S
C554 H542 0.950 . S
C554 C553 1.398 . S
C554 C555 1.391 . S
C555 H543 0.950 . S
C555 C551 1.393 . S
C555 C554 1.391 . S
H556 C564 0.950 . S
H557 C569 0.950 . S
H558 C566 0.950 . S
H559 C568 0.950 . S
H560 C570 0.950 . S
H561 C572 0.950 . S
H562 C574 0.950 . S
H563 C575 0.950 . S
C564 H556 0.950 . S
C564 C565 1.386 . S
C564 C566 1.391 . S
C565 C564 1.386 . S
C565 C569 1.393 . S
C566 H558 0.950 . S
C566 C564 1.391 . S
C566 C567 1.400 . S
C567 C566 1.400 . S
C567 C568 1.398 . S
C567 C573 1.491 . S
C568 H559 0.950 . S
C568 C567 1.398 . S
C568 C569 1.391 . S
C569 H557 0.950 . S
C569 C565 1.393 . S
C569 C568 1.391 . S
C570 H560 0.950 . S
C570 C571 1.386 . S
C570 C572 1.391 . S
C571 C570 1.386 . S
C571 C575 1.393 . S
C572 H561 0.950 . S
C572 C570 1.391 . S
C572 C573 1.400 . S
C573 C567 1.491 . S
C573 C572 1.400 . S
C573 C574 1.398 . S
C574 H562 0.950 . S
C574 C573 1.398 . S
C574 C575 1.391 . S
C575 H563 0.950 . S
C575 C571 1.393 . S
C575 C574 1.391 . S
H576 C584 0.950 . S
H577 C589 0.950 . S
H578 C586 0.950 . S
H579 C588 0.950 . S
H580 C590 0.950 . S
H581 C592 0.950 . S
H582 C594 0.950 . S
H583 C595 0.950 . S
C584 H576 0.950 . S
C584 C585 1.386 . S
C584 C586 1.391 . S
C585 C584 1.386 . S
C585 C589 1.393 1_554 S
C586 H578 0.950 . S
C586 C584 1.391 . S
C586 C587 1.400 . S
C587 C586 1.400 . S
C587 C588 1.398 1_554 S
C587 C593 1.491 . S
C588 H579 0.950 . S
C588 C587 1.398 1_556 S
C588 C589 1.391 . S
C589 H577 0.950 . S
C589 C585 1.393 1_556 S
C589 C588 1.391 . S
C590 H580 0.950 . S
C590 C591 1.386 1_556 S
C590 C592 1.391 . S
C591 C590 1.386 1_554 S
C591 C595 1.393 . S
C592 H581 0.950 . S
C592 C590 1.391 . S
C592 C593 1.400 1_556 S
C593 C587 1.491 . S
C593 C592 1.400 1_554 S
C593 C594 1.398 . S
C594 H582 0.950 . S
C594 C593 1.398 . S
C594 C595 1.391 . S
C595 H583 0.950 . S
C595 C591 1.393 . S
C595 C594 1.391 . S
H596 C604 0.950 . S
H597 C609 0.950 . S
H598 C606 0.950 . S
H599 C608 0.950 . S
H600 C610 0.950 . S
H601 C612 0.950 . S
H602 C614 0.950 . S
H603 C615 0.950 . S
C604 H596 0.950 . S
C604 C605 1.386 . S
C604 C606 1.391 . S
C605 C604 1.386 . S
C605 C609 1.393 . S
C606 H598 0.950 . S
C606 C604 1.391 . S
C606 C607 1.400 . S
C607 C606 1.400 . S
C607 C608 1.398 . S
C607 C613 1.491 . S
C608 H599 0.950 . S
C608 C607 1.398 . S
C608 C609 1.391 . S
C609 H597 0.950 . S
C609 C605 1.393 . S
C609 C608 1.391 . S
C610 H600 0.950 . S
C610 C611 1.386 . S
C610 C612 1.391 . S
C611 C610 1.386 . S
C611 C615 1.393 . S
C612 H601 0.950 . S
C612 C610 1.391 . S
C612 C613 1.400 . S
C613 C607 1.491 . S
C613 C612 1.400 . S
C613 C614 1.398 . S
C614 H602 0.950 . S
C614 C613 1.398 . S
C614 C615 1.391 . S
C615 H603 0.950 . S
C615 C611 1.393 . S
C615 C614 1.391 . S
H616 C624 0.950 . S
H617 C629 0.950 . S
H618 C626 0.950 . S
H619 C628 0.950 1_545 S
H620 C630 0.950 . S
H621 C632 0.950 . S
H622 C634 0.950 1_565 S
H623 C635 0.950 . S
C624 H616 0.950 . S
C624 C625 1.386 . S
C624 C626 1.391 . S
C625 C624 1.386 . S
C625 C629 1.393 . S
C626 H618 0.950 . S
C626 C624 1.391 . S
C626 C627 1.400 . S
C627 C626 1.400 . S
C627 C628 1.398 . S
C627 C633 1.491 1_565 S
C628 H619 0.950 1_565 S
C628 C627 1.398 . S
C628 C629 1.391 . S
C629 H617 0.950 . S
C629 C625 1.393 . S
C629 C628 1.391 . S
C630 H620 0.950 . S
C630 C631 1.386 . S
C630 C632 1.391 . S
C631 C630 1.386 . S
C631 C635 1.393 . S
C632 H621 0.950 . S
C632 C630 1.391 . S
C632 C633 1.400 . S
C633 C627 1.491 1_545 S
C633 C632 1.400 . S
C633 C634 1.398 . S
C634 H622 0.950 1_545 S
C634 C633 1.398 . S
C634 C635 1.391 . S
C635 H623 0.950 . S
C635 C631 1.393 . S
C635 C634 1.391 . S
H636 C644 0.950 . S
H637 C649 0.950 . S
H638 C646 0.950 . S
H639 C648 0.950 . S
H640 C650 0.950 . S
H641 C652 0.950 . S
H642 C654 0.950 . S
H643 C655 0.950 . S
C644 H636 0.950 . S
C644 C645 1.386 . S
C644 C646 1.391 . S
C645 C644 1.386 . S
C645 C649 1.393 . S
C646 H638 0.950 . S
C646 C644 1.391 . S
C646 C647 1.400 . S
C647 C646 1.400 . S
C647 C648 1.398 . S
C647 C653 1.491 1_546 S
C648 H639 0.950 . S
C648 C647 1.398 . S
C648 C649 1.391 . S
C649 H637 0.950 . S
C649 C645 1.393 . S
C649 C648 1.391 . S
C650 H640 0.950 . S
C650 C651 1.386 . S
C650 C652 1.391 . S
C651 C650 1.386 . S
C651 C655 1.393 . S
C652 H641 0.950 . S
C652 C650 1.391 . S
C652 C653 1.400 . S
C653 C647 1.491 1_564 S
C653 C652 1.400 . S
C653 C654 1.398 . S
C654 H642 0.950 . S
C654 C653 1.398 . S
C654 C655 1.391 . S
C655 H643 0.950 . S
C655 C651 1.393 . S
C655 C654 1.391 . S
C185 C106 1.651 . S
C191 C7 1.662 . S
C205 C16 1.327 . S
C211 C161 1.664 . S
C225 C95 1.462 . S
C231 C27 1.231 . S
C245 C38 1.359 . S
C251 C170 1.238 . S
C265 C51 1.665 . S
C271 C115 1.346 . S
C285 C148 1.222 . S
C291 C62 1.442 . S
C305 C126 1.380 . S
C311 C71 1.277 . S
C325 C139 1.656 . S
C331 C84 1.660 . S
C345 C49 1.382 . S
C351 C40 1.505 . S
C365 C137 1.394 . S
C371 C93 1.262 . S
C385 C73 1.576 . S
C391 C18 1.582 . S
C405 C150 1.565 . S
C411 C104 1.555 1_554 S
C425 C5 1.356 . S
C431 C60 1.224 . S
C445 C172 1.566 . S
C451 C117 1.559 . S
C465 C82 1.536 . S
C471 C29 1.588 . S
C485 C128 1.493 . S
C491 C159 1.377 . S
C505 C8 1.631 . S
C511 C52 1.628 . S
C525 C19 1.561 . S
C531 C63 1.564 . S
C545 C30 1.568 . S
C551 C74 1.567 . S
C565 C41 1.591 . S
C571 C85 1.589 . S
C585 C96 1.549 . S
C591 C118 1.571 . S
C605 C129 1.589 . S
C611 C107 1.590 . S
C625 C162 1.626 . S
C631 C140 1.629 . S
C645 C173 1.589 . S
C651 C151 1.589 . S
