# Generated by pormake.
# Topology vcb, (5)-cn, num edge types: 1
# Building blocks:
#     Node 0, Type 0, BuildingBlock: XOMCOT_clean_sbu_1, # of connection points: 5
#     Node 1, Type 0, BuildingBlock: XOMCOT_clean_sbu_1, # of connection points: 5
#     Node 2, Type 0, BuildingBlock: XOMCOT_clean_sbu_1, # of connection points: 5
#     Node 3, Type 0, BuildingBlock: XOMCOT_clean_sbu_1, # of connection points: 5
#     Node 4, Type 0, BuildingBlock: XOMCOT_clean_sbu_1, # of connection points: 5
#     Node 5, Type 0, BuildingBlock: XOMCOT_clean_sbu_1, # of connection points: 5
#     Node 6, Type 0, BuildingBlock: XOMCOT_clean_sbu_1, # of connection points: 5
#     Node 7, Type 0, BuildingBlock: XOMCOT_clean_sbu_1, # of connection points: 5
#     Node 8, Type 0, BuildingBlock: XOMCOT_clean_sbu_1, # of connection points: 5
#     Node 9, Type 0, BuildingBlock: XOMCOT_clean_sbu_1, # of connection points: 5
#     Node 10, Type 0, BuildingBlock: XOMCOT_clean_sbu_1, # of connection points: 5
#     Node 11, Type 0, BuildingBlock: XOMCOT_clean_sbu_1, # of connection points: 5
#     Node 12, Type 0, BuildingBlock: XOMCOT_clean_sbu_1, # of connection points: 5
#     Node 13, Type 0, BuildingBlock: XOMCOT_clean_sbu_1, # of connection points: 5
#     Node 14, Type 0, BuildingBlock: XOMCOT_clean_sbu_1, # of connection points: 5
#     Node 15, Type 0, BuildingBlock: XOMCOT_clean_sbu_1, # of connection points: 5
#     Node 16, Type 0, BuildingBlock: XOMCOT_clean_sbu_1, # of connection points: 5
#     Node 17, Type 0, BuildingBlock: XOMCOT_clean_sbu_1, # of connection points: 5
#     Node 18, Type 0, BuildingBlock: XOMCOT_clean_sbu_1, # of connection points: 5
#     Node 19, Type 0, BuildingBlock: XOMCOT_clean_sbu_1, # of connection points: 5
#     Node 20, Type 0, BuildingBlock: XOMCOT_clean_sbu_1, # of connection points: 5
#     Node 21, Type 0, BuildingBlock: XOMCOT_clean_sbu_1, # of connection points: 5
#     Node 22, Type 0, BuildingBlock: XOMCOT_clean_sbu_1, # of connection points: 5
#     Node 23, Type 0, BuildingBlock: XOMCOT_clean_sbu_1, # of connection points: 5
#     Node 24, Type 0, BuildingBlock: XOMCOT_clean_sbu_1, # of connection points: 5
#     Node 25, Type 0, BuildingBlock: XOMCOT_clean_sbu_1, # of connection points: 5
#     Node 26, Type 0, BuildingBlock: XOMCOT_clean_sbu_1, # of connection points: 5
#     Node 27, Type 0, BuildingBlock: XOMCOT_clean_sbu_1, # of connection points: 5
#     Node 28, Type 0, BuildingBlock: XOMCOT_clean_sbu_1, # of connection points: 5
#     Node 29, Type 0, BuildingBlock: XOMCOT_clean_sbu_1, # of connection points: 5
#     Node 30, Type 0, BuildingBlock: XOMCOT_clean_sbu_1, # of connection points: 5
#     Node 31, Type 0, BuildingBlock: XOMCOT_clean_sbu_1, # of connection points: 5
#     Edge 32, Type (0, 0), BuildingBlock: XUDNAN_clean_linker_2, # of connection points: 2
#     Edge 33, Type (0, 0), BuildingBlock: XUDNAN_clean_linker_2, # of connection points: 2
#     Edge 34, Type (0, 0), BuildingBlock: XUDNAN_clean_linker_2, # of connection points: 2
#     Edge 35, Type (0, 0), BuildingBlock: XUDNAN_clean_linker_2, # of connection points: 2
#     Edge 36, Type (0, 0), BuildingBlock: XUDNAN_clean_linker_2, # of connection points: 2
#     Edge 37, Type (0, 0), BuildingBlock: XUDNAN_clean_linker_2, # of connection points: 2
#     Edge 38, Type (0, 0), BuildingBlock: XUDNAN_clean_linker_2, # of connection points: 2
#     Edge 39, Type (0, 0), BuildingBlock: XUDNAN_clean_linker_2, # of connection points: 2
#     Edge 40, Type (0, 0), BuildingBlock: XUDNAN_clean_linker_2, # of connection points: 2
#     Edge 41, Type (0, 0), BuildingBlock: XUDNAN_clean_linker_2, # of connection points: 2
#     Edge 42, Type (0, 0), BuildingBlock: XUDNAN_clean_linker_2, # of connection points: 2
#     Edge 43, Type (0, 0), BuildingBlock: XUDNAN_clean_linker_2, # of connection points: 2
#     Edge 44, Type (0, 0), BuildingBlock: XUDNAN_clean_linker_2, # of connection points: 2
#     Edge 45, Type (0, 0), BuildingBlock: XUDNAN_clean_linker_2, # of connection points: 2
#     Edge 46, Type (0, 0), BuildingBlock: XUDNAN_clean_linker_2, # of connection points: 2
#     Edge 47, Type (0, 0), BuildingBlock: XUDNAN_clean_linker_2, # of connection points: 2
#     Edge 48, Type (0, 0), BuildingBlock: XUDNAN_clean_linker_2, # of connection points: 2
#     Edge 49, Type (0, 0), BuildingBlock: XUDNAN_clean_linker_2, # of connection points: 2
#     Edge 50, Type (0, 0), BuildingBlock: XUDNAN_clean_linker_2, # of connection points: 2
#     Edge 51, Type (0, 0), BuildingBlock: XUDNAN_clean_linker_2, # of connection points: 2
#     Edge 52, Type (0, 0), BuildingBlock: XUDNAN_clean_linker_2, # of connection points: 2
#     Edge 53, Type (0, 0), BuildingBlock: XUDNAN_clean_linker_2, # of connection points: 2
#     Edge 54, Type (0, 0), BuildingBlock: XUDNAN_clean_linker_2, # of connection points: 2
#     Edge 55, Type (0, 0), BuildingBlock: XUDNAN_clean_linker_2, # of connection points: 2
#     Edge 56, Type (0, 0), BuildingBlock: XUDNAN_clean_linker_2, # of connection points: 2
#     Edge 57, Type (0, 0), BuildingBlock: XUDNAN_clean_linker_2, # of connection points: 2
#     Edge 58, Type (0, 0), BuildingBlock: XUDNAN_clean_linker_2, # of connection points: 2
#     Edge 59, Type (0, 0), BuildingBlock: XUDNAN_clean_linker_2, # of connection points: 2
#     Edge 60, Type (0, 0), BuildingBlock: XUDNAN_clean_linker_2, # of connection points: 2
#     Edge 61, Type (0, 0), BuildingBlock: XUDNAN_clean_linker_2, # of connection points: 2
#     Edge 62, Type (0, 0), BuildingBlock: XUDNAN_clean_linker_2, # of connection points: 2
#     Edge 63, Type (0, 0), BuildingBlock: XUDNAN_clean_linker_2, # of connection points: 2
#     Edge 64, Type (0, 0), BuildingBlock: XUDNAN_clean_linker_2, # of connection points: 2
#     Edge 65, Type (0, 0), BuildingBlock: XUDNAN_clean_linker_2, # of connection points: 2
#     Edge 66, Type (0, 0), BuildingBlock: XUDNAN_clean_linker_2, # of connection points: 2
#     Edge 67, Type (0, 0), BuildingBlock: XUDNAN_clean_linker_2, # of connection points: 2
#     Edge 68, Type (0, 0), BuildingBlock: XUDNAN_clean_linker_2, # of connection points: 2
#     Edge 69, Type (0, 0), BuildingBlock: XUDNAN_clean_linker_2, # of connection points: 2
#     Edge 70, Type (0, 0), BuildingBlock: XUDNAN_clean_linker_2, # of connection points: 2
#     Edge 71, Type (0, 0), BuildingBlock: XUDNAN_clean_linker_2, # of connection points: 2
#     Edge 72, Type (0, 0), BuildingBlock: XUDNAN_clean_linker_2, # of connection points: 2
#     Edge 73, Type (0, 0), BuildingBlock: XUDNAN_clean_linker_2, # of connection points: 2
#     Edge 74, Type (0, 0), BuildingBlock: XUDNAN_clean_linker_2, # of connection points: 2
#     Edge 75, Type (0, 0), BuildingBlock: XUDNAN_clean_linker_2, # of connection points: 2
#     Edge 76, Type (0, 0), BuildingBlock: XUDNAN_clean_linker_2, # of connection points: 2
#     Edge 77, Type (0, 0), BuildingBlock: XUDNAN_clean_linker_2, # of connection points: 2
#     Edge 78, Type (0, 0), BuildingBlock: XUDNAN_clean_linker_2, # of connection points: 2
#     Edge 79, Type (0, 0), BuildingBlock: XUDNAN_clean_linker_2, # of connection points: 2
#     Edge 80, Type (0, 0), BuildingBlock: XUDNAN_clean_linker_2, # of connection points: 2
#     Edge 81, Type (0, 0), BuildingBlock: XUDNAN_clean_linker_2, # of connection points: 2
#     Edge 82, Type (0, 0), BuildingBlock: XUDNAN_clean_linker_2, # of connection points: 2
#     Edge 83, Type (0, 0), BuildingBlock: XUDNAN_clean_linker_2, # of connection points: 2
#     Edge 84, Type (0, 0), BuildingBlock: XUDNAN_clean_linker_2, # of connection points: 2
#     Edge 85, Type (0, 0), BuildingBlock: XUDNAN_clean_linker_2, # of connection points: 2
#     Edge 86, Type (0, 0), BuildingBlock: XUDNAN_clean_linker_2, # of connection points: 2
#     Edge 87, Type (0, 0), BuildingBlock: XUDNAN_clean_linker_2, # of connection points: 2
#     Edge 88, Type (0, 0), BuildingBlock: XUDNAN_clean_linker_2, # of connection points: 2
#     Edge 89, Type (0, 0), BuildingBlock: XUDNAN_clean_linker_2, # of connection points: 2
#     Edge 90, Type (0, 0), BuildingBlock: XUDNAN_clean_linker_2, # of connection points: 2
#     Edge 91, Type (0, 0), BuildingBlock: XUDNAN_clean_linker_2, # of connection points: 2
#     Edge 92, Type (0, 0), BuildingBlock: XUDNAN_clean_linker_2, # of connection points: 2
#     Edge 93, Type (0, 0), BuildingBlock: XUDNAN_clean_linker_2, # of connection points: 2
#     Edge 94, Type (0, 0), BuildingBlock: XUDNAN_clean_linker_2, # of connection points: 2
#     Edge 95, Type (0, 0), BuildingBlock: XUDNAN_clean_linker_2, # of connection points: 2
#     Edge 96, Type (0, 0), BuildingBlock: XUDNAN_clean_linker_2, # of connection points: 2
#     Edge 97, Type (0, 0), BuildingBlock: XUDNAN_clean_linker_2, # of connection points: 2
#     Edge 98, Type (0, 0), BuildingBlock: XUDNAN_clean_linker_2, # of connection points: 2
#     Edge 99, Type (0, 0), BuildingBlock: XUDNAN_clean_linker_2, # of connection points: 2
#     Edge 100, Type (0, 0), BuildingBlock: XUDNAN_clean_linker_2, # of connection points: 2
#     Edge 101, Type (0, 0), BuildingBlock: XUDNAN_clean_linker_2, # of connection points: 2
#     Edge 102, Type (0, 0), BuildingBlock: XUDNAN_clean_linker_2, # of connection points: 2
#     Edge 103, Type (0, 0), BuildingBlock: XUDNAN_clean_linker_2, # of connection points: 2
#     Edge 104, Type (0, 0), BuildingBlock: XUDNAN_clean_linker_2, # of connection points: 2
#     Edge 105, Type (0, 0), BuildingBlock: XUDNAN_clean_linker_2, # of connection points: 2
#     Edge 106, Type (0, 0), BuildingBlock: XUDNAN_clean_linker_2, # of connection points: 2
#     Edge 107, Type (0, 0), BuildingBlock: XUDNAN_clean_linker_2, # of connection points: 2
#     Edge 108, Type (0, 0), BuildingBlock: XUDNAN_clean_linker_2, # of connection points: 2
#     Edge 109, Type (0, 0), BuildingBlock: XUDNAN_clean_linker_2, # of connection points: 2
#     Edge 110, Type (0, 0), BuildingBlock: XUDNAN_clean_linker_2, # of connection points: 2
#     Edge 111, Type (0, 0), BuildingBlock: XUDNAN_clean_linker_2, # of connection points: 2
# Relax obj value: 0.110
# Max RMSD: 0.135
# Mean RMSD: 0.135
data_MOF--net-vcb--node1-XOMCOT_clean_sbu_1--edge1-XUDNAN_clean_linker_2
_symmetry_space_group_name_H-M    P1
_symmetry_Int_Tables_number       1
_symmetry_cell_setting            triclinic
loop_
_symmetry_equiv_pos_as_xyz
'x, y, z'
_cell_length_a     68.066699
_cell_length_b     95.265687
_cell_length_c     26.794659
_cell_angle_alpha  90.100468
_cell_angle_beta   90.054393
_cell_angle_gamma 90.047258
loop_
_atom_site_label
_atom_site_type_symbol
_atom_site_fract_x
_atom_site_fract_y
_atom_site_fract_z
_atom_type_partial_charge
C0 C 1.00058 0.07347 0.2551 0.0
C1 C 0.98075 0.07085 0.2551 0.0
N2 N 0.97318 0.07547 0.29851 0.0
N3 N 1.00572 0.07978 0.29826 0.0
C4 C 0.98862 0.0809 0.32408 0.0
H5 H 1.0107 0.07045 0.22599 0.0
Co6 Co 0.03205 0.0835 0.31613 0.0
C7 C 0.02963 0.1076 0.3895 0.0
O8 O 0.04707 0.11259 0.37882 0.0
N9 N 0.05925 0.08693 0.33318 0.0
C10 C 0.08978 0.08445 0.3628 0.0
C11 C 0.07119 0.0788 0.36134 0.0
C12 C 0.07142 0.09728 0.31677 0.0
N13 N 0.09 0.09616 0.33484 0.0
O14 O 0.03333 0.09695 0.26289 0.0
H15 H 0.06704 0.06913 0.37944 0.0
H16 H 0.06669 0.10557 0.29207 0.0
O17 O 1.02271 0.09713 0.36541 0.0
C18 C 0.04089 0.09033 0.22606 0.0
O19 O 0.04832 0.07782 0.23462 0.0
N20 N 0.03047 0.06922 0.36302 0.0
C21 C 0.02743 0.04474 0.41923 0.0
C22 C 0.02811 0.05797 0.44272 0.0
C23 C 0.02942 0.07016 0.41381 0.0
C24 C 0.03013 0.05654 0.33978 0.0
C25 C 0.02821 0.04424 0.3669 0.0
H26 H 0.03008 0.08022 0.43235 0.0
H27 H 0.03104 0.05603 0.29953 0.0
H28 H 0.98763 0.08497 0.36171 0.0
H29 H 0.97254 0.06575 0.22556 0.0
H30 H 0.10209 0.08024 0.38343 0.0
H31 H 0.02788 0.05893 0.48296 0.0
H32 H 0.02709 0.03445 0.34652 0.0
C33 C 0.30368 0.17745 0.35036 0.0
C34 C 0.32311 0.17874 0.36287 0.0
N35 N 0.33023 0.16588 0.37289 0.0
N36 N 0.29824 0.16386 0.35333 0.0
C37 C 0.3149 0.15696 0.36642 0.0
H38 H 0.29402 0.18593 0.33949 0.0
Co39 Co 0.27245 0.15811 0.33727 0.0
C40 C 0.26306 0.14126 0.42756 0.0
O41 O 0.24708 0.14877 0.43416 0.0
N42 N 0.24664 0.15281 0.31704 0.0
C43 C 0.2217 0.15444 0.26334 0.0
C44 C 0.24067 0.15834 0.27326 0.0
C45 C 0.23101 0.14489 0.33188 0.0
N46 N 0.21548 0.14605 0.30036 0.0
O47 O 0.28258 0.14558 0.28759 0.0
H48 H 0.24948 0.1653 0.25059 0.0
H49 H 0.23063 0.13848 0.36495 0.0
O50 O 0.27386 0.14345 0.38917 0.0
C51 C 0.28947 0.152 0.24964 0.0
O52 O 0.29028 0.16578 0.25049 0.0
N53 N 0.26261 0.17152 0.38331 0.0
C54 C 0.25442 0.19541 0.44012 0.0
C55 C 0.26672 0.18488 0.45882 0.0
C56 C 0.27084 0.17313 0.42963 0.0
C57 C 0.25015 0.18152 0.36528 0.0
C58 C 0.24569 0.19346 0.39326 0.0
H59 H 0.28169 0.16577 0.44304 0.0
H60 H 0.24458 0.18085 0.32773 0.0
H61 H 0.31578 0.14569 0.37115 0.0
H62 H 0.33155 0.18839 0.36347 0.0
H63 H 0.21299 0.15773 0.23162 0.0
H64 H 0.27424 0.18613 0.49419 0.0
H65 H 0.23621 0.20141 0.37731 0.0
C66 C 0.98876 0.1663 0.85829 0.0
C67 C 0.96903 0.16768 0.86703 0.0
N68 N 0.96016 0.15553 0.85462 0.0
N69 N 0.99246 0.15345 0.83909 0.0
C70 C 0.97481 0.14687 0.83995 0.0
H71 H 0.99966 0.17437 0.86441 0.0
Co72 Co 1.01764 0.14765 0.81755 0.0
C73 C 0.99234 0.13771 0.72742 0.0
O74 O 0.97613 0.14445 0.73861 0.0
N75 N 0.0428 0.14206 0.79699 0.0
C76 C 0.06888 0.13911 0.74839 0.0
C77 C 0.04989 0.1438 0.75042 0.0
C78 C 0.05791 0.13635 0.82287 0.0
N79 N 0.07404 0.13447 0.79404 0.0
O80 O 1.01504 0.13081 0.85581 0.0
H81 H 0.0419 0.1486 0.72003 0.0
H82 H 0.0573 0.13402 0.86233 0.0
O83 O 1.00747 0.13867 0.75577 0.0
C84 C 1.01811 0.13456 0.90101 0.0
O85 O 1.02185 0.14786 0.91013 0.0
N86 N 1.02123 0.16491 0.78603 0.0
C87 C 1.02173 0.19383 0.77559 0.0
C88 C 1.0094 0.18562 0.7454 0.0
C89 C 1.00934 0.17103 0.75129 0.0
C90 C 0.03476 0.17266 0.81152 0.0
C91 C 0.03532 0.18716 0.80672 0.0
H92 H 0.99848 0.16503 0.73152 0.0
H93 H 0.04383 0.16769 0.83955 0.0
H94 H 0.97258 0.13619 0.82734 0.0
H95 H 0.9617 0.17704 0.8803 0.0
H96 H 0.07819 0.1392 0.71568 0.0
H97 H 0.9987 0.19046 0.72093 0.0
H98 H 0.04525 0.19318 0.83008 0.0
C99 C 0.29377 0.06918 0.86692 0.0
C100 C 0.3136 0.06702 0.87355 0.0
N101 N 0.32287 0.07945 0.86924 0.0
N102 N 0.29044 0.08292 0.85767 0.0
C103 C 0.30849 0.08889 0.86047 0.0
H104 H 0.28274 0.06108 0.86866 0.0
Co105 Co 0.2669 0.09289 0.84471 0.0
C106 C 0.291 0.09692 0.7509 0.0
O107 O 0.3008 0.08521 0.75764 0.0
N108 N 0.244 0.10317 0.83275 0.0
C109 C 0.22501 0.12107 0.81087 0.0
C110 C 0.24397 0.11635 0.81445 0.0
C111 C 0.22481 0.10017 0.84084 0.0
N112 N 0.2129 0.1109 0.82733 0.0
O113 O 0.2768 0.10802 0.88416 0.0
H114 H 0.25699 0.12228 0.80493 0.0
H115 H 0.21967 0.09032 0.85601 0.0
O116 O 0.278 0.10072 0.78272 0.0
C117 C 0.27138 0.10543 0.92875 0.0
O118 O 0.26015 0.09441 0.93645 0.0
N119 N 0.25605 0.07745 0.81122 0.0
C120 C 0.24415 0.05099 0.77995 0.0
C121 C 0.25064 0.06095 0.74515 0.0
C122 C 0.25612 0.07433 0.76147 0.0
C123 C 0.24751 0.0685 0.84435 0.0
C124 C 0.24156 0.05513 0.82962 0.0
H125 H 0.26082 0.08185 0.73408 0.0
H126 H 0.24678 0.07137 0.88337 0.0
H127 H 0.31111 0.09993 0.85369 0.0
H128 H 0.3206 0.05705 0.88098 0.0
H129 H 0.22055 0.13136 0.79811 0.0
H130 H 0.25216 0.05823 0.70606 0.0
H131 H 0.23646 0.04779 0.85759 0.0
C132 C 0.05505 0.92031 0.63507 0.0
C133 C 0.07459 0.92146 0.64697 0.0
N134 N 0.08347 0.90921 0.63606 0.0
N135 N 0.05152 0.9075 0.61541 0.0
C136 C 0.069 0.90076 0.61861 0.0
H137 H 0.0441 0.92843 0.63976 0.0
Co138 Co 0.02652 0.90157 0.59304 0.0
C139 C 0.052 0.8912 0.50357 0.0
O140 O 0.06873 0.89719 0.51556 0.0
N141 N 1.0015 0.89568 0.57173 0.0
C142 C 0.97624 0.89076 0.522 0.0
C143 C 0.99503 0.89596 0.52409 0.0
C144 C 0.98618 0.89051 0.59816 0.0
N145 N 0.97067 0.88734 0.56859 0.0
O146 O 0.02916 0.88486 0.63194 0.0
H147 H 1.00336 0.89991 0.49275 0.0
H148 H 0.98642 0.88897 0.63815 0.0
O149 O 0.037 0.89255 0.532 0.0
C150 C 1.02551 0.88848 0.67695 0.0
O151 O 1.02102 0.90167 0.68587 0.0
N152 N 1.02302 0.9187 0.55986 0.0
C153 C 1.01925 0.94701 0.53464 0.0
C154 C 0.03495 0.93892 0.51627 0.0
C155 C 0.03645 0.92475 0.52887 0.0
C156 C 1.00733 0.92622 0.57668 0.0
C157 C 1.0049 0.94025 0.56354 0.0
H158 H 0.04931 0.9191 0.5173 0.0
H159 H 0.99707 0.92151 0.60248 0.0
H160 H 0.07122 0.89002 0.60674 0.0
H161 H 0.08176 0.9307 0.66202 0.0
H162 H 0.96722 0.88982 0.48887 0.0
H163 H 0.04672 0.94358 0.49481 0.0
H164 H 0.99219 0.94579 0.57758 0.0
C165 C 0.75139 0.82374 0.66034 0.0
C166 C 0.73127 0.82374 0.66045 0.0
N167 N 0.72499 0.83185 0.62258 0.0
N168 N 0.75795 0.83183 0.62269 0.0
C169 C 0.74148 0.83675 0.60031 0.0
H170 H 0.76072 0.81778 0.68516 0.0
Co171 Co 0.78463 0.83246 0.60806 0.0
C172 C 0.79006 0.84876 0.51536 0.0
O173 O 0.80424 0.83998 0.50427 0.0
N174 N 0.81233 0.83276 0.59575 0.0
C175 C 0.84326 0.82737 0.57595 0.0
C176 C 0.82429 0.82251 0.57824 0.0
C177 C 0.8247 0.84369 0.60447 0.0
N178 N 0.84352 0.84067 0.5926 0.0
O179 O 0.78811 0.84605 0.66068 0.0
H180 H 0.81988 0.81214 0.56691 0.0
H181 H 0.81997 0.8538 0.61848 0.0
O182 O 0.78037 0.84722 0.55618 0.0
C183 C 0.79389 0.83935 0.69928 0.0
O184 O 0.79781 0.82591 0.69427 0.0
N185 N 0.7804 0.81794 0.56209 0.0
C186 C 0.76988 0.79328 0.51288 0.0
C187 C 0.76471 0.80635 0.49299 0.0
C188 C 0.76993 0.81862 0.51854 0.0
C189 C 0.78453 0.80526 0.583 0.0
C190 C 0.77991 0.79282 0.55846 0.0
H191 H 0.76454 0.82849 0.50448 0.0
H192 H 0.79135 0.80486 0.61945 0.0
H193 H 0.74153 0.84319 0.56708 0.0
H194 H 0.72193 0.81803 0.68606 0.0
H195 H 0.85597 0.82148 0.56363 0.0
H196 H 0.75639 0.80707 0.4586 0.0
H197 H 0.7835 0.7829 0.57594 0.0
C198 C 0.0429 0.81984 0.05473 0.0
C199 C 0.06281 0.8205 0.04728 0.0
N200 N 0.0696 0.83229 0.06897 0.0
N201 N 0.037 0.83118 0.08085 0.0
C202 C 0.05369 0.83862 0.0893 0.0
H203 H 0.03316 0.81183 0.0403 0.0
Co204 Co 1.01028 0.83482 0.09059 0.0
C205 C 1.00734 0.85263 0.1813 0.0
O206 O 0.99072 0.84623 0.1914 0.0
N207 N 0.9827 0.83832 0.09754 0.0
C208 C 0.95017 0.8356 0.10126 0.0
C209 C 0.96794 0.82884 0.10058 0.0
C210 C 0.97321 0.85086 0.09524 0.0
N211 N 0.95339 0.84949 0.09793 0.0
O212 O 1.0112 0.84786 0.03619 0.0
H213 H 0.96951 0.81761 0.10134 0.0
H214 H 0.98075 0.86079 0.09124 0.0
O215 O 1.01663 0.84946 0.14108 0.0
C216 C 1.00705 0.8405 0.99767 0.0
O217 O 1.00139 0.82746 0.0046 0.0
N218 N 1.00988 0.82057 0.13928 0.0
C219 C 1.01015 0.79635 0.19766 0.0
C220 C 1.01789 0.80897 0.2162 0.0
C221 C 1.0182 0.82087 0.18577 0.0
C222 C 1.00366 0.80812 0.11974 0.0
C223 C 1.00326 0.79597 0.14846 0.0
H224 H 0.02589 0.83 0.19924 0.0
H225 H 0.99901 0.80762 0.08117 0.0
H226 H 0.05406 0.84875 0.10756 0.0
H227 H 0.07164 0.81304 0.02664 0.0
H228 H 0.93594 0.83061 0.10446 0.0
H229 H 1.0243 0.80948 0.25318 0.0
H230 H 0.99759 0.78636 0.13222 0.0
C231 C 0.738 0.90183 0.03973 0.0
C232 C 0.71799 0.90144 0.04511 0.0
N233 N 0.71356 0.90375 0.0934 0.0
N234 N 0.74652 0.90424 0.08439 0.0
C235 C 0.73119 0.90544 0.1165 0.0
H236 H 0.74567 0.90106 0.00463 0.0
Co237 Co 0.77373 0.90734 0.09226 0.0
C238 C 0.78493 0.89735 0.19465 0.0
O239 O 0.79993 0.90601 0.19479 0.0
N240 N 0.80139 0.91062 0.09738 0.0
C241 C 0.83065 0.92113 0.09764 0.0
C242 C 0.81072 0.92313 0.09538 0.0
C243 C 0.81629 0.90111 0.09958 0.0
N244 N 0.83426 0.90726 0.10059 0.0
O245 O 0.77914 0.8904 0.05565 0.0
H246 H 0.80376 0.93323 0.09177 0.0
H247 H 0.81393 0.88989 0.10148 0.0
O248 O 0.77321 0.89703 0.15705 0.0
C249 C 0.78341 0.89373 0.01074 0.0
O250 O 0.78388 0.90712 -0.00104 0.0
N251 N 0.76818 0.9247 0.12221 0.0
C252 C 0.76702 0.95301 0.14726 0.0
C253 C 0.7669 0.94273 0.18469 0.0
C254 C 0.76729 0.92852 0.17133 0.0
C255 C 0.76578 0.93451 0.08578 0.0
C256 C 0.76544 0.94875 0.09738 0.0
H257 H 0.76744 0.92084 0.20064 0.0
H258 H 0.76577 0.93126 0.04707 0.0
H259 H 0.73295 0.90792 0.15568 0.0
H260 H 0.7075 0.90033 0.01499 0.0
H261 H 0.84164 0.92933 0.09613 0.0
H262 H 0.76762 0.94563 0.22376 0.0
H263 H 0.76492 0.95637 0.06745 0.0
C264 C 1.01772 0.56712 0.85192 0.0
C265 C 0.99763 0.56604 0.84765 0.0
N266 N 0.9895 0.57771 0.86724 0.0
N267 N 1.02228 0.57938 0.87424 0.0
C268 C 1.0048 0.58565 0.88281 0.0
H269 H 0.02836 0.55937 0.84012 0.0
Co270 Co 0.04758 0.58526 0.89107 0.0
C271 C 0.04051 0.61035 0.95446 0.0
O272 O 0.05248 0.61787 0.92683 0.0
N273 N 0.07315 0.59104 0.90883 0.0
C274 C 0.09881 0.59615 0.95686 0.0
C275 C 0.07956 0.59202 0.95642 0.0
C276 C 0.08897 0.5946 0.88086 0.0
N277 N 0.10485 0.59774 0.90935 0.0
O278 O 0.0462 0.59919 0.83921 0.0
H279 H 0.07071 0.58992 0.98907 0.0
H280 H 0.08898 0.5947 0.84051 0.0
O281 O 0.03685 0.59768 0.9422 0.0
C282 C 0.05075 0.59234 0.79978 0.0
O283 O 0.05669 0.5793 0.80507 0.0
N284 N 0.04923 0.57056 0.93638 0.0
C285 C 0.05151 0.54563 0.98937 0.0
C286 C 0.04016 0.55681 0.00746 0.0
C287 C 0.03894 0.5692 0.97984 0.0
C288 C 0.06064 0.5599 0.91898 0.0
C289 C 0.0619 0.54727 0.94478 0.0
H290 H 0.02934 0.57744 0.99274 0.0
H291 H 0.06835 0.56111 0.88397 0.0
H292 H 1.00329 0.59569 0.9013 0.0
H293 H 0.98967 0.55734 0.83129 0.0
H294 H 0.10758 0.59807 0.98989 0.0
H295 H 0.03174 0.55575 0.04154 0.0
H296 H 0.07076 0.53881 0.92982 0.0
C297 C 0.31963 0.67403 0.85993 0.0
C298 C 0.33931 0.67566 0.85006 0.0
N299 N 0.34797 0.66298 0.85258 0.0
N300 N 0.31583 0.6604 0.86982 0.0
C301 C 0.33332 0.65387 0.8631 0.0
H302 H 0.30893 0.6824 0.86085 0.0
Co303 Co 0.29151 0.6524 0.88876 0.0
C304 C 0.31845 0.64508 0.97641 0.0
O305 O 0.33172 0.65458 0.96542 0.0
N306 N 0.2673 0.64446 0.90703 0.0
C307 C 0.24242 0.63769 0.95491 0.0
C308 C 0.26057 0.64393 0.95433 0.0
C309 C 0.25273 0.6387 0.87922 0.0
N310 N 0.23746 0.63437 0.9077 0.0
O311 O 0.29746 0.63635 0.84852 0.0
H312 H 0.26813 0.64819 0.98641 0.0
H313 H 0.25324 0.63768 0.83904 0.0
O314 O 0.30306 0.64372 0.94925 0.0
C315 C 0.29268 0.6401 0.80442 0.0
O316 O 0.28488 0.65256 0.79775 0.0
N317 N 0.28447 0.66886 0.92226 0.0
C318 C 0.27466 0.69643 0.94518 0.0
C319 C 0.28695 0.68872 0.97704 0.0
C320 C 0.29175 0.67483 0.96483 0.0
C321 C 0.2713 0.67589 0.89336 0.0
C322 C 0.26619 0.68968 0.90407 0.0
H323 H 0.30188 0.66931 0.98842 0.0
H324 H 0.2656 0.67098 0.85993 0.0
H325 H 0.33552 0.64276 0.86941 0.0
H326 H 0.34675 0.68548 0.84264 0.0
H327 H 0.2333 0.63613 0.9875 0.0
H328 H 0.2937 0.69362 0.0093 0.0
H329 H 0.25638 0.69521 0.87907 0.0
C330 C 0.99308 0.65683 0.45376 0.0
C331 C 0.97305 0.6563 0.44853 0.0
N332 N 0.96875 0.65446 0.39988 0.0
N333 N 1.00164 0.65523 0.40879 0.0
C334 C 0.98641 0.65383 0.37649 0.0
H335 H 1.00086 0.65884 0.48818 0.0
Co336 Co 0.02885 0.65686 0.39998 0.0
C337 C 0.03783 0.64853 0.29599 0.0
O338 O 0.05076 0.65876 0.29582 0.0
N339 N 0.05679 0.65849 0.39329 0.0
C340 C 0.0877 0.66607 0.38574 0.0
C341 C 0.06831 0.67002 0.38866 0.0
C342 C 0.0698 0.64768 0.39357 0.0
N343 N 0.08862 0.65202 0.3891 0.0
O344 O 0.03247 0.63994 0.43778 0.0
H345 H 0.06328 0.68072 0.38701 0.0
H346 H 0.06556 0.63676 0.39642 0.0
O347 O 0.02749 0.64638 0.33539 0.0
C348 C 0.03677 0.64348 0.48254 0.0
O349 O 0.03895 0.6569 0.4926 0.0
N350 N 1.02456 0.67428 0.3696 0.0
C351 C 1.01631 0.70202 0.34393 0.0
C352 C 1.01292 0.69106 0.30982 0.0
C353 C 1.01678 0.67719 0.32374 0.0
C354 C 0.02676 0.6847 0.404 0.0
C355 C 1.02317 0.69864 0.39172 0.0
H356 H 1.01285 0.66892 0.29814 0.0
H357 H 0.03174 0.68212 0.44123 0.0
H358 H 0.98822 0.65272 0.33658 0.0
H359 H 0.96246 0.65788 0.47812 0.0
H360 H 0.1002 0.67304 0.38245 0.0
H361 H 1.00684 0.69315 0.27321 0.0
H362 H 0.02596 0.70669 0.41942 0.0
C363 C 0.29802 0.57079 0.42248 0.0
C364 C 0.31697 0.56887 0.43923 0.0
N365 N 0.32669 0.58109 0.4346 0.0
N366 N 0.29582 0.58416 0.40666 0.0
C367 C 0.31345 0.59024 0.41603 0.0
H368 H 0.2867 0.56285 0.42184 0.0
Co369 Co 0.27295 0.59303 0.38225 0.0
C370 C 0.30383 0.59919 0.30301 0.0
O371 O 0.31415 0.58799 0.31415 0.0
N372 N 0.24992 0.60188 0.35959 0.0
C373 C 0.22717 0.6112 0.31003 0.0
C374 C 0.24574 0.60559 0.31217 0.0
C375 C 0.2334 0.60505 0.38543 0.0
N376 N 0.21938 0.61084 0.35614 0.0
O377 O 0.27868 0.60848 0.42562 0.0
H378 H 0.25522 0.60382 0.28063 0.0
H379 H 0.23157 0.60306 0.42485 0.0
O380 O 0.2878 0.60186 0.32637 0.0
C381 C 0.27218 0.60523 0.46878 0.0
O382 O 0.26167 0.59373 0.47318 0.0
N383 N 0.26629 0.57714 0.34477 0.0
C384 C 0.25858 0.54966 0.31553 0.0
C385 C 0.2696 0.5586 0.28472 0.0
C386 C 0.27312 0.57245 0.29982 0.0
C387 C 0.25368 0.56911 0.37193 0.0
C388 C 0.24964 0.55533 0.35811 0.0
H389 H 0.28186 0.57901 0.27603 0.0
H390 H 0.24789 0.57314 0.4067 0.0
H391 H 0.31669 0.60113 0.40793 0.0
H392 H 0.32329 0.5591 0.4521 0.0
H393 H 0.21967 0.61476 0.27672 0.0
H394 H 0.27643 0.55473 0.25092 0.0
H395 H 0.24048 0.54895 0.38209 0.0
C396 C 0.05142 0.40741 0.24168 0.0
C397 C 0.07161 0.40742 0.23796 0.0
N398 N 0.0764 0.40669 0.18933 0.0
N399 N 0.04345 0.40654 0.19561 0.0
C400 C 0.0591 0.40609 0.16455 0.0
H401 H 0.04314 0.40843 0.27588 0.0
Co402 Co 1.01649 0.40706 0.18018 0.0
C403 C 1.0123 0.39356 0.08052 0.0
O404 O 0.99729 0.4018 0.07124 0.0
N405 N 0.98892 0.40747 0.16565 0.0
C406 C 0.95831 0.41381 0.14614 0.0
C407 C 0.97742 0.41833 0.1513 0.0
C408 C 0.97622 0.39651 0.16938 0.0
N409 N 0.95757 0.4001 0.1578 0.0
O410 O 1.01228 0.3918 0.2261 0.0
H411 H 0.98236 0.42892 0.14465 0.0
H412 H 0.9806 0.38601 0.17989 0.0
O413 O 1.02118 0.39441 0.12271 0.0
C414 C 1.00546 0.39792 0.26496 0.0
O415 O 1.00178 0.41143 0.2622 0.0
N416 N 1.02101 0.42329 0.14266 0.0
C417 C 0.03253 0.45017 0.11381 0.0
C418 C 0.03492 0.43871 0.08125 0.0
C419 C 0.02921 0.42524 0.09661 0.0
C420 C 1.01837 0.43437 0.17404 0.0
C421 C 1.02366 0.44786 0.16016 0.0
H422 H 0.03256 0.41648 0.07263 0.0
H423 H 1.01243 0.43265 0.21087 0.0
H424 H 0.0579 0.40557 0.12435 0.0
H425 H 0.08194 0.4086 0.26843 0.0
H426 H 0.94584 0.42021 0.13565 0.0
H427 H 0.042 0.44003 0.04538 0.0
H428 H 1.02115 0.45639 0.18617 0.0
C429 C 0.74429 0.32117 0.16719 0.0
C430 C 0.72424 0.31987 0.17116 0.0
N431 N 0.71581 0.33133 0.15091 0.0
N432 N 0.74865 0.33341 0.14463 0.0
C433 C 0.73099 0.33941 0.13536 0.0
H434 H 0.75506 0.31355 0.17928 0.0
Co435 Co 0.77436 0.33903 0.12878 0.0
C436 C 0.75953 0.36468 0.0729 0.0
O437 O 0.75849 0.37335 0.11096 0.0
N438 N 0.80014 0.34471 0.1122 0.0
C439 C 0.82539 0.35165 0.06558 0.0
C440 C 0.80659 0.34645 0.06494 0.0
C441 C 0.81554 0.34878 0.14103 0.0
N442 N 0.83103 0.35316 0.11342 0.0
O443 O 0.77343 0.35232 0.18244 0.0
H444 H 0.79804 0.34426 0.03184 0.0
H445 H 0.81523 0.34897 0.18138 0.0
O446 O 0.76491 0.35204 0.07946 0.0
C447 C 0.77746 0.34482 0.22061 0.0
O448 O 0.78321 0.3318 0.21324 0.0
N449 N 0.77524 0.3249 0.08096 0.0
C450 C 0.76964 0.29897 0.03569 0.0
C451 C 0.75893 0.31072 0.01984 0.0
C452 C 0.76179 0.32362 0.04339 0.0
C453 C 0.78702 0.31395 0.09371 0.0
C454 C 0.78452 0.30084 0.07138 0.0
H455 H 0.75188 0.3321 0.03456 0.0
H456 H 0.79718 0.31506 0.12454 0.0
H457 H 0.72925 0.34932 0.11632 0.0
H458 H 0.71653 0.31112 0.18779 0.0
H459 H 0.83426 0.35413 0.03324 0.0
H460 H 0.74745 0.30975 0.99201 0.0
H461 H 0.79298 0.29203 0.08515 0.0
C462 C 0.0493 0.31778 0.64564 0.0
C463 C 0.0688 0.31633 0.63386 0.0
N464 N 0.0774 0.32905 0.6363 0.0
N465 N 0.04546 0.33134 0.65638 0.0
C466 C 0.06274 0.33803 0.64833 0.0
H467 H 0.03864 0.30938 0.64624 0.0
Co468 Co 1.02057 0.33857 0.67395 0.0
C469 C 0.04667 0.34967 0.75933 0.0
O470 O 0.06176 0.34159 0.74917 0.0
N471 N 0.99576 0.34559 0.69032 0.0
C472 C 0.97016 0.35278 0.73475 0.0
C473 C 0.9888 0.34736 0.73704 0.0
C474 C 0.98093 0.34977 0.66014 0.0
N475 N 0.96519 0.35432 0.6864 0.0
O476 O 1.02457 0.35413 0.6304 0.0
H477 H 0.99667 0.34469 0.77077 0.0
H478 H 0.98172 0.3496 0.6198 0.0
O479 O 0.03119 0.34905 0.73212 0.0
C480 C 1.02323 0.35016 0.58497 0.0
O481 O 1.02082 0.33674 0.57531 0.0
N482 N 1.01537 0.32262 0.71212 0.0
C483 C 1.00833 0.29572 0.74783 0.0
C484 C 1.02085 0.30488 0.77374 0.0
C485 C 1.02422 0.31834 0.75519 0.0
C486 C 1.00223 0.31415 0.68825 0.0
C487 C 0.99848 0.30064 0.70544 0.0
H488 H 0.0346 0.32484 0.77448 0.0
H489 H 0.99542 0.31769 0.65402 0.0
H490 H 0.06466 0.34922 0.65364 0.0
H491 H 0.07604 0.30657 0.62444 0.0
H492 H 0.9608 0.35512 0.76633 0.0
H493 H 0.02887 0.30144 0.80642 0.0
H494 H 0.98852 0.29394 0.68471 0.0
C495 C 0.74712 0.42063 0.58645 0.0
C496 C 0.72711 0.42171 0.57958 0.0
N497 N 0.71854 0.4102 0.59908 0.0
N498 N 0.7511 0.40859 0.61076 0.0
C499 C 0.73343 0.40239 0.61741 0.0
H500 H 0.75804 0.42827 0.57542 0.0
Co501 Co 0.7756 0.4023 0.63291 0.0
C502 C 0.76351 0.38275 0.71307 0.0
O503 O 0.77251 0.3723 0.69067 0.0
N504 N 0.80018 0.39595 0.65623 0.0
C505 C 0.82487 0.39221 0.70879 0.0
C506 C 0.80586 0.39671 0.70444 0.0
C507 C 0.81619 0.39102 0.63179 0.0
N508 N 0.83151 0.38871 0.6631 0.0
O509 O 0.77201 0.38551 0.59509 0.0
H510 H 0.79687 0.40062 0.73467 0.0
H511 H 0.81683 0.38961 0.59176 0.0
O512 O 0.76323 0.39481 0.69258 0.0
C513 C 0.777 0.38914 0.55099 0.0
O514 O 0.78391 0.40189 0.5444 0.0
N515 N 0.77988 0.41938 0.6642 0.0
C516 C 0.78833 0.44642 0.69637 0.0
C517 C 0.77258 0.43893 0.71724 0.0
C518 C 0.76853 0.42532 0.70044 0.0
C519 C 0.79504 0.42657 0.64325 0.0
C520 C 0.79965 0.44005 0.65909 0.0
H521 H 0.75598 0.41979 0.71523 0.0
H522 H 0.80338 0.42185 0.61327 0.0
H523 H 0.73145 0.39253 0.63675 0.0
H524 H 0.71945 0.43032 0.56187 0.0
H525 H 0.83315 0.39161 0.74321 0.0
H526 H 0.7634 0.44358 0.74582 0.0
H527 H 0.81157 0.44561 0.64104 0.0
C528 C 0.49327 0.06907 0.8085 0.0
C529 C 0.47316 0.06902 0.80375 0.0
N530 N 0.46573 0.07896 0.83418 0.0
N531 N 0.49861 0.07903 0.84157 0.0
C532 C 0.48151 0.08494 0.85644 0.0
H533 H 0.50332 0.06192 0.79034 0.0
Co534 Co 0.52425 0.08145 0.86482 0.0
C535 C 0.52391 0.10774 0.92156 0.0
O536 O 0.53783 0.11277 0.8927 0.0
N537 N 0.55026 0.08381 0.88917 0.0
C538 C 0.57461 0.08726 0.94349 0.0
C539 C 0.55556 0.08283 0.93773 0.0
C540 C 0.56659 0.08874 0.86618 0.0
N541 N 0.58151 0.09106 0.89848 0.0
O542 O 0.52896 0.0944 0.81152 0.0
H543 H 0.54584 0.07987 0.96783 0.0
H544 H 0.56728 0.09154 0.8272 0.0
O545 O 0.516 0.09598 0.91092 0.0
C546 C 0.53512 0.08705 0.77482 0.0
O547 O 0.5384 0.07362 0.78237 0.0
N548 N 0.5195 0.06768 0.91218 0.0
C549 C 0.51025 0.04361 0.96574 0.0
C550 C 0.50117 0.05644 0.97714 0.0
C551 C 0.50594 0.0684 0.94962 0.0
C552 C 0.52878 0.05542 0.9014 0.0
C553 C 0.52446 0.04326 0.92784 0.0
H554 H 0.49807 0.07801 0.95698 0.0
H555 H 0.53903 0.05499 0.87059 0.0
H556 H 0.48054 0.09296 0.88496 0.0
H557 H 0.46468 0.06202 0.78028 0.0
H558 H 0.58255 0.08805 0.97841 0.0
H559 H 0.49012 0.05714 0.0061 0.0
H560 H 0.5315 0.03354 0.91689 0.0
C561 C 0.79198 0.17712 0.84767 0.0
C562 C 0.81154 0.17724 0.83489 0.0
N563 N 0.81782 0.16386 0.83005 0.0
N564 N 0.78586 0.16373 0.85201 0.0
C565 C 0.80162 0.15595 0.83853 0.0
H566 H 0.78311 0.18627 0.85556 0.0
Co567 Co 0.76143 0.15703 0.87499 0.0
C568 C 0.79008 0.14438 0.95091 0.0
O569 O 0.8053 0.152 0.93793 0.0
N570 N 0.7371 0.15017 0.89793 0.0
C571 C 0.71387 0.14304 0.95036 0.0
C572 C 0.73209 0.14909 0.9465 0.0
C573 C 0.72152 0.14479 0.87293 0.0
N574 N 0.70715 0.1403 0.90402 0.0
O575 O 0.76281 0.14225 0.82658 0.0
H576 H 0.74129 0.15229 0.97744 0.0
H577 H 0.72073 0.14412 0.83274 0.0
O578 O 0.77375 0.14567 0.92766 0.0
C579 C 0.75598 0.14835 0.78782 0.0
O580 O 0.74983 0.16137 0.79245 0.0
N581 N 0.75877 0.17257 0.9172 0.0
C582 C 0.75328 0.19899 0.95928 0.0
C583 C 0.76763 0.18988 0.97826 0.0
C584 C 0.77013 0.17663 0.95672 0.0
C585 C 0.74436 0.18114 0.89955 0.0
C586 C 0.74127 0.19435 0.92017 0.0
H587 H 0.78173 0.1701 0.9706 0.0
H588 H 0.73568 0.17788 0.86776 0.0
H589 H 0.80143 0.14461 0.83889 0.0
H590 H 0.82056 0.18656 0.83253 0.0
H591 H 0.70649 0.14048 0.98491 0.0
H592 H 0.77716 0.19312 0.00858 0.0
H593 H 0.73024 0.20112 0.90384 0.0
C594 C 0.49604 0.13099 0.35581 0.0
C595 C 0.47591 0.13115 0.35953 0.0
N596 N 0.47026 0.14401 0.3748 0.0
N597 N 0.50326 0.1437 0.36835 0.0
C598 C 0.48719 0.15139 0.38022 0.0
H599 H 0.5049 0.12207 0.34494 0.0
Co600 Co 0.53017 0.14834 0.36828 0.0
C601 C 0.54351 0.13984 0.26657 0.0
O602 O 0.55633 0.15015 0.26573 0.0
N603 N 0.55769 0.15248 0.36896 0.0
C604 C 0.58704 0.16277 0.37461 0.0
C605 C 0.5671 0.16482 0.37639 0.0
C606 C 0.57257 0.14301 0.36421 0.0
N607 N 0.59056 0.14905 0.36678 0.0
O608 O 0.53543 0.13214 0.40766 0.0
H609 H 0.5603 0.17483 0.38319 0.0
H610 H 0.57021 0.13192 0.35764 0.0
O611 O 0.53297 0.1379 0.3055 0.0
C612 C 0.53308 0.13603 0.45285 0.0
O613 O 0.52798 0.14912 0.46139 0.0
N614 N 0.52408 0.16514 0.33487 0.0
C615 C 0.51265 0.19167 0.30182 0.0
C616 C 0.51166 0.18003 0.26976 0.0
C617 C 0.51717 0.16675 0.28728 0.0
C618 C 0.5236 0.17617 0.36728 0.0
C619 C 0.51846 0.18957 0.35134 0.0
H620 H 0.5151 0.15784 0.26303 0.0
H621 H 0.52723 0.1745 0.40612 0.0
H622 H 0.48789 0.16224 0.39198 0.0
H623 H 0.46623 0.12235 0.35236 0.0
H624 H 0.59816 0.1708 0.3793 0.0
H625 H 0.50659 0.18115 0.23165 0.0
H626 H 0.51859 0.19815 0.37791 0.0
C627 C 0.81002 0.10511 0.37313 0.0
C628 C 0.83004 0.10373 0.37116 0.0
N629 N 0.83453 0.08997 0.37123 0.0
N630 N 0.80155 0.0923 0.37451 0.0
C631 C 0.81693 0.08324 0.37334 0.0
H632 H 0.80206 0.11493 0.37238 0.0
Co633 Co 0.77393 0.09001 0.37476 0.0
C634 C 0.76181 0.10351 0.27906 0.0
O635 O 0.74728 0.09456 0.27335 0.0
N636 N 0.74591 0.08853 0.37548 0.0
C637 C 0.71424 0.08236 0.37791 0.0
C638 C 0.73338 0.07755 0.37912 0.0
C639 C 0.73386 0.09986 0.37357 0.0
N640 N 0.71455 0.09645 0.37397 0.0
O641 O 0.77166 0.10505 0.42113 0.0
H642 H 0.73755 0.06667 0.38229 0.0
H643 H 0.7393 0.11051 0.37124 0.0
O644 O 0.77269 0.10286 0.31796 0.0
C645 C 0.77535 0.10123 0.4657 0.0
O646 O 0.78147 0.08834 0.47355 0.0
N647 N 0.77648 0.07425 0.33303 0.0
C648 C 0.77995 0.0487 0.28251 0.0
C649 C 0.78377 0.06146 0.2581 0.0
C650 C 0.7825 0.0741 0.28441 0.0
C651 C 0.77421 0.06196 0.35821 0.0
C652 C 0.77561 0.04909 0.33367 0.0
H653 H 0.78678 0.08361 0.26564 0.0
H654 H 0.77121 0.06219 0.39785 0.0
H655 H 0.81523 0.07195 0.3734 0.0
H656 H 0.84042 0.11229 0.36788 0.0
H657 H 0.70115 0.07592 0.37862 0.0
H658 H 0.78765 0.06175 0.21895 0.0
H659 H 0.77353 0.03954 0.35487 0.0
C660 C 0.54216 0.9256 0.14811 0.0
C661 C 0.56174 0.92868 0.15443 0.0
N662 N 0.57244 0.91759 0.13904 0.0
N663 N 0.54036 0.91265 0.12827 0.0
C664 C 0.55909 0.90803 0.12303 0.0
H665 H 0.52998 0.93218 0.15916 0.0
Co666 Co 0.51668 0.90263 0.12114 0.0
C667 C 0.51625 0.89247 0.01847 0.0
O668 O 0.49774 0.89639 0.01779 0.0
N669 N 0.49295 0.89187 0.11572 0.0
C670 C 0.47555 0.87209 0.1089 0.0
C671 C 0.494 0.87781 0.10911 0.0
C672 C 0.47329 0.89437 0.11951 0.0
N673 N 0.46245 0.88246 0.11559 0.0
O674 O 0.5275 0.88813 0.16107 0.0
H675 H 0.5075 0.87198 0.10449 0.0
H676 H 0.46687 0.90455 0.12601 0.0
O677 O 0.52638 0.89402 0.0585 0.0
C678 C 0.52466 0.89193 0.2061 0.0
O679 O 0.51576 0.90396 0.21428 0.0
N680 N 0.50597 0.91803 0.08706 0.0
C681 C 0.49606 0.94523 0.05867 0.0
C682 C 0.50952 0.93738 0.03065 0.0
C683 C 0.5146 0.92391 0.04604 0.0
C684 C 0.49271 0.9255 0.11436 0.0
C685 C 0.48718 0.93902 0.10021 0.0
H686 H 0.5267 0.9188 0.02742 0.0
H687 H 0.48773 0.92149 0.14986 0.0
H688 H 0.56278 0.89756 0.11049 0.0
H689 H 0.56759 0.93828 0.17022 0.0
H690 H 0.47206 0.86109 0.10367 0.0
H691 H 0.51701 0.94195 -0.00108 0.0
H692 H 0.47733 0.94496 0.12392 0.0
C693 C 0.23364 0.83433 0.1744 0.0
C694 C 0.21363 0.83559 0.17097 0.0
N695 N 0.20918 0.84144 0.12664 0.0
N696 N 0.24206 0.83941 0.13269 0.0
C697 C 0.22676 0.84362 0.10394 0.0
H698 H 0.24156 0.82958 0.20495 0.0
Co699 Co 0.26932 0.83851 0.12457 0.0
C700 C 0.27922 0.8488 0.02432 0.0
O701 O 0.29245 0.83878 0.02267 0.0
N702 N 0.29744 0.83761 0.11957 0.0
C703 C 0.32879 0.83081 0.11965 0.0
C704 C 0.30961 0.82639 0.12058 0.0
C705 C 0.30993 0.84878 0.11845 0.0
N706 N 0.32909 0.84493 0.11859 0.0
O707 O 0.27214 0.85478 0.16522 0.0
H708 H 0.3053 0.81555 0.12248 0.0
H709 H 0.305 0.85957 0.11848 0.0
O710 O 0.26814 0.85006 0.06287 0.0
C711 C 0.27576 0.85121 0.21013 0.0
O712 O 0.27721 0.83779 0.2207 0.0
N713 N 0.26582 0.82172 0.08891 0.0
C714 C 0.26164 0.79516 0.04619 0.0
C715 C 0.25556 0.80724 0.0204 0.0
C716 C 0.25748 0.82041 0.04274 0.0
C717 C 0.26924 0.81006 0.11683 0.0
C718 C 0.26796 0.7967 0.09578 0.0
H719 H 0.252 0.82944 0.02293 0.0
H720 H 0.27387 0.81119 0.15527 0.0
H721 H 0.22844 0.84798 0.06694 0.0
H722 H 0.20314 0.83188 0.19826 0.0
H723 H 0.34153 0.82404 0.11963 0.0
H724 H 0.24932 0.80655 0.98328 0.0
H725 H 0.27249 0.78778 0.11791 0.0
C726 C 0.55408 0.81739 0.58818 0.0
C727 C 0.57398 0.816 0.58046 0.0
N728 N 0.58258 0.82852 0.58909 0.0
N729 N 0.55016 0.8307 0.60214 0.0
C730 C 0.56779 0.83726 0.60189 0.0
H731 H 0.54317 0.80921 0.58416 0.0
Co732 Co 0.52557 0.83817 0.61836 0.0
C733 C 0.53624 0.86324 0.6755 0.0
O734 O 0.52616 0.87098 0.64403 0.0
N735 N 0.50086 0.84575 0.63579 0.0
C736 C 0.47689 0.85388 0.68417 0.0
C737 C 0.49509 0.8478 0.68349 0.0
C738 C 0.4856 0.85051 0.60798 0.0
N739 N 0.47087 0.85563 0.63676 0.0
O740 O 0.52874 0.85158 0.56645 0.0
H741 H 0.50373 0.84518 0.71606 0.0
H742 H 0.48545 0.8505 0.5676 0.0
O743 O 0.53786 0.85011 0.66781 0.0
C744 C 0.52499 0.84477 0.52655 0.0
O745 O 0.51829 0.83187 0.53043 0.0
N746 N 0.52201 0.82401 0.66463 0.0
C747 C 0.51683 0.79936 0.71766 0.0
C748 C 0.52993 0.80965 0.73499 0.0
C749 C 0.53254 0.82194 0.70736 0.0
C750 C 0.50874 0.81433 0.64839 0.0
C751 C 0.50596 0.80187 0.67428 0.0
H752 H 0.5435 0.82944 0.71926 0.0
H753 H 0.50086 0.81611 0.6139 0.0
H754 H 0.56978 0.84818 0.61187 0.0
H755 H 0.58151 0.80652 0.56912 0.0
H756 H 0.46861 0.85671 0.71718 0.0
H757 H 0.53874 0.80789 0.76808 0.0
H758 H 0.49577 0.7941 0.65993 0.0
C759 C 0.2514 0.92201 0.56312 0.0
C760 C 0.23128 0.92136 0.56378 0.0
N761 N 0.22579 0.91204 0.59883 0.0
N762 N 0.25872 0.91318 0.59763 0.0
C763 C 0.24273 0.90713 0.61872 0.0
H764 H 0.26019 0.92876 0.53967 0.0
Co765 Co 0.28567 0.9124 0.60981 0.0
C766 C 0.29186 0.89626 0.70294 0.0
O767 O 0.30748 0.90397 0.71154 0.0
N768 N 0.31353 0.91189 0.61966 0.0
C769 C 0.34479 0.91743 0.6352 0.0
C770 C 0.32577 0.92223 0.63514 0.0
C771 C 0.32575 0.90094 0.61 0.0
N772 N 0.3448 0.90404 0.61927 0.0
O773 O 0.28797 0.89836 0.55904 0.0
H774 H 0.32149 0.93266 0.64618 0.0
H775 H 0.32074 0.89078 0.59706 0.0
O776 O 0.28159 0.89832 0.66341 0.0
C777 C 0.2929 0.90507 0.51976 0.0
O778 O 0.29672 0.91855 0.52404 0.0
N779 N 0.28256 0.92741 0.65396 0.0
C780 C 0.27113 0.95283 0.69679 0.0
C781 C 0.2678 0.9401 0.72174 0.0
C782 C 0.27331 0.92743 0.69923 0.0
C783 C 0.28574 0.93968 0.6293 0.0
C784 C 0.28039 0.95248 0.65013 0.0
H785 H 0.26893 0.9178 0.71696 0.0
H786 H 0.29185 0.93945 0.59207 0.0
H787 H 0.24342 0.89967 0.64905 0.0
H788 H 0.22141 0.92735 0.54034 0.0
H789 H 0.35769 0.92345 0.64541 0.0
H790 H 0.2604 0.93987 0.75749 0.0
H791 H 0.28262 0.96194 0.62851 0.0
C792 C 0.48962 0.58899 0.32085 0.0
C793 C 0.46976 0.58987 0.32851 0.0
N794 N 0.46645 0.59056 0.37796 0.0
N795 N 0.49905 0.58928 0.36513 0.0
C796 C 0.48447 0.59014 0.39946 0.0
H797 H 0.49661 0.58779 0.28497 0.0
Co798 Co 0.52638 0.58753 0.37138 0.0
C799 C 0.53731 0.59685 0.47318 0.0
O800 O 0.55099 0.58714 0.47342 0.0
N801 N 0.55426 0.58588 0.37552 0.0
C802 C 0.58533 0.57853 0.37854 0.0
C803 C 0.56595 0.57441 0.37661 0.0
C804 C 0.56707 0.59682 0.37614 0.0
N805 N 0.586 0.59264 0.37805 0.0
O806 O 0.5298 0.60435 0.33362 0.0
H807 H 0.56101 0.56366 0.37607 0.0
H808 H 0.56259 0.60771 0.37611 0.0
O809 O 0.52585 0.59808 0.43537 0.0
C810 C 0.53327 0.60064 0.28868 0.0
O811 O 0.53375 0.58717 0.27798 0.0
N812 N 0.52256 0.57018 0.40226 0.0
C813 C 0.51566 0.54231 0.42841 0.0
C814 C 0.51378 0.55308 0.46398 0.0
C815 C 0.51696 0.56705 0.44991 0.0
C816 C 0.52343 0.55992 0.36692 0.0
C817 C 0.52039 0.54593 0.37924 0.0
H818 H 0.51435 0.57519 0.47704 0.0
H819 H 0.52693 0.56267 0.32881 0.0
H820 H 0.48698 0.59025 0.43934 0.0
H821 H 0.45855 0.58939 0.29987 0.0
H822 H 0.59798 0.57165 0.37922 0.0
H823 H 0.50947 0.55077 0.50199 0.0
H824 H 0.52203 0.53801 0.3505 0.0
C825 C 0.79763 0.67031 0.32103 0.0
C826 C 0.81716 0.67304 0.31193 0.0
N827 N 0.82809 0.66349 0.33657 0.0
N828 N 0.79618 0.65914 0.35156 0.0
C829 C 0.81497 0.6552 0.36041 0.0
H830 H 0.78524 0.67582 0.30511 0.0
Co831 Co 0.77298 0.64988 0.36822 0.0
C832 C 0.77614 0.64305 0.47386 0.0
O833 O 0.75796 0.64759 0.4775 0.0
N834 N 0.74948 0.63973 0.38366 0.0
C835 C 0.73213 0.62061 0.40237 0.0
C836 C 0.75057 0.62613 0.39772 0.0
C837 C 0.72985 0.64211 0.3794 0.0
N838 N 0.71893 0.63062 0.39094 0.0
O839 O 0.78239 0.63406 0.33237 0.0
H840 H 0.76411 0.6204 0.40313 0.0
H841 H 0.72358 0.65191 0.36718 0.0
O842 O 0.78477 0.64315 0.43133 0.0
C843 C 0.77362 0.63357 0.29047 0.0
O844 O 0.75928 0.64245 0.28163 0.0
N845 N 0.76389 0.66653 0.3982 0.0
C846 C 0.7558 0.69462 0.42028 0.0
C847 C 0.76985 0.68711 0.44771 0.0
C848 C 0.77415 0.67329 0.43497 0.0
C849 C 0.75001 0.6736 0.3715 0.0
C850 C 0.74552 0.68759 0.38235 0.0
H851 H 0.78674 0.66849 0.4524 0.0
H852 H 0.74362 0.66879 0.33876 0.0
H853 H 0.8189 0.64599 0.38177 0.0
H854 H 0.82285 0.68131 0.28836 0.0
H855 H 0.72885 0.6098 0.41147 0.0
H856 H 0.77828 0.69209 0.47712 0.0
H857 H 0.73511 0.6931 0.35892 0.0
C858 C 0.51606 0.66817 0.94545 0.0
C859 C 0.49588 0.66811 0.94502 0.0
N860 N 0.48978 0.66063 0.90518 0.0
N861 N 0.52277 0.66079 0.90608 0.0
C862 C 0.50639 0.65624 0.88228 0.0
H863 H 0.52532 0.6736 0.97205 0.0
Co864 Co 0.54942 0.6598 0.89024 0.0
C865 C 0.55239 0.64652 0.79097 0.0
O866 O 0.56693 0.65514 0.78123 0.0
N867 N 0.57701 0.65887 0.87572 0.0
C868 C 0.60803 0.66372 0.85498 0.0
C869 C 0.58937 0.66903 0.85942 0.0
C870 C 0.58881 0.64748 0.88113 0.0
N871 N 0.6077 0.65017 0.86883 0.0
O872 O 0.55212 0.64465 0.93677 0.0
H873 H 0.58539 0.67966 0.85032 0.0
H874 H 0.58364 0.63731 0.89337 0.0
O875 O 0.54366 0.6471 0.83332 0.0
C876 C 0.55868 0.65063 0.9762 0.0
O877 O 0.56353 0.66396 0.97343 0.0
N878 N 0.54613 0.6759 0.85203 0.0
C879 C 0.53395 0.70279 0.82629 0.0
C880 C 0.52881 0.69125 0.7963 0.0
C881 C 0.53479 0.67774 0.8104 0.0
C882 C 0.5514 0.68709 0.88072 0.0
C883 C 0.54587 0.7006 0.86804 0.0
H884 H 0.52902 0.66885 0.79014 0.0
H885 H 0.55936 0.68542 0.9151 0.0
H886 H 0.50657 0.65035 0.84776 0.0
H887 H 0.48642 0.67327 0.97179 0.0
H888 H 0.62094 0.66948 0.84327 0.0
H889 H 0.51927 0.69255 0.76428 0.0
H890 H 0.55031 0.70923 0.89194 0.0
C891 C 0.81761 0.56849 0.9081 0.0
C892 C 0.83756 0.56708 0.91515 0.0
N893 N 0.84648 0.57871 0.89759 0.0
N894 N 0.81399 0.5809 0.88587 0.0
C895 C 0.83182 0.58694 0.88038 0.0
H896 H 0.80645 0.56087 0.91766 0.0
Co897 Co 0.78949 0.58731 0.86525 0.0
C898 C 0.79959 0.61285 0.81092 0.0
O899 O 0.78888 0.62015 0.8424 0.0
N900 N 0.76464 0.59379 0.84383 0.0
C901 C 0.74086 0.60092 0.7928 0.0
C902 C 0.75958 0.59566 0.79552 0.0
C903 C 0.74851 0.5978 0.86979 0.0
N904 N 0.73387 0.60229 0.83951 0.0
O905 O 0.79056 0.60101 0.91648 0.0
H906 H 0.76904 0.59347 0.76404 0.0
H907 H 0.74757 0.59776 0.91005 0.0
O908 O 0.80169 0.59971 0.81745 0.0
C909 C 0.78391 0.59569 0.95657 0.0
O910 O 0.77611 0.58307 0.95507 0.0
N911 N 0.78846 0.57294 0.81875 0.0
C912 C 0.79061 0.54705 0.77149 0.0
C913 C 0.80319 0.55804 0.75741 0.0
C914 C 0.80198 0.57094 0.78186 0.0
C915 C 0.77528 0.56274 0.8306 0.0
C916 C 0.77603 0.5497 0.80724 0.0
H917 H 0.81283 0.57888 0.77363 0.0
H918 H 0.76506 0.56443 0.8609 0.0
H919 H 0.83408 0.59701 0.86271 0.0
H920 H 0.8449 0.55817 0.93181 0.0
H921 H 0.73294 0.60346 0.75894 0.0
H922 H 0.81456 0.55644 0.72973 0.0
H923 H 0.76624 0.54147 0.81987 0.0
C924 C 0.55285 0.42013 0.70376 0.0
C925 C 0.57286 0.42039 0.69801 0.0
N926 N 0.5779 0.41037 0.66494 0.0
N927 N 0.54515 0.41001 0.67446 0.0
C928 C 0.56082 0.40414 0.65132 0.0
H929 H 0.54435 0.42714 0.72701 0.0
Co930 Co 0.51806 0.4076 0.66879 0.0
C931 C 0.51117 0.39034 0.57772 0.0
O932 O 0.49508 0.39764 0.57012 0.0
N933 N 0.49026 0.40545 0.66506 0.0
C934 C 0.45822 0.40937 0.65498 0.0
C935 C 0.47648 0.41542 0.65667 0.0
C936 C 0.47967 0.39343 0.67014 0.0
N937 N 0.46022 0.39557 0.66331 0.0
O938 O 0.51885 0.39407 0.72227 0.0
H939 H 0.47909 0.42644 0.65138 0.0
H940 H 0.48619 0.38323 0.67658 0.0
O941 O 0.52176 0.39295 0.6164 0.0
C942 C 0.51592 0.40114 0.76218 0.0
O943 O 0.51162 0.41452 0.75771 0.0
N944 N 0.51797 0.42219 0.62162 0.0
C945 C 0.51798 0.44687 0.56592 0.0
C946 C 0.5237 0.43412 0.54413 0.0
C947 C 0.52419 0.42193 0.57311 0.0
C948 C 0.51402 0.43471 0.64414 0.0
C949 C 0.51354 0.44712 0.61691 0.0
H950 H 0.53011 0.41255 0.55657 0.0
H951 H 0.51065 0.43496 0.68357 0.0
H952 H 0.55974 0.39585 0.62384 0.0
H953 H 0.58295 0.42745 0.71669 0.0
H954 H 0.44446 0.41472 0.64798 0.0
H955 H 0.52821 0.43365 0.5054 0.0
H956 H 0.50935 0.45677 0.63549 0.0
C957 C 0.24866 0.3191 0.67453 0.0
C958 C 0.22857 0.31846 0.6788 0.0
N959 N 0.22072 0.32926 0.65316 0.0
N960 N 0.25358 0.33026 0.64643 0.0
C961 C 0.23627 0.33632 0.63414 0.0
H962 H 0.25905 0.31175 0.69026 0.0
Co963 Co 0.27931 0.33479 0.62836 0.0
C964 C 0.27388 0.35875 0.56041 0.0
O965 O 0.28521 0.36642 0.58941 0.0
N966 N 0.30529 0.33921 0.60992 0.0
C967 C 0.33145 0.3436 0.56273 0.0
C968 C 0.31218 0.33931 0.56266 0.0
C969 C 0.32084 0.3432 0.63821 0.0
N970 N 0.33689 0.34603 0.61026 0.0
O971 O 0.27882 0.34997 0.67577 0.0
H972 H 0.30361 0.33665 0.52997 0.0
H973 H 0.32034 0.34439 0.67832 0.0
O974 O 0.26971 0.34622 0.57325 0.0
C975 C 0.28254 0.3439 0.71723 0.0
O976 O 0.28761 0.33059 0.71634 0.0
N977 N 0.27984 0.31899 0.58789 0.0
C978 C 0.27458 0.29146 0.55681 0.0
C979 C 0.2639 0.30234 0.53434 0.0
C980 C 0.26664 0.31614 0.55082 0.0
C981 C 0.29141 0.30869 0.60716 0.0
C982 C 0.28906 0.29482 0.59204 0.0
H983 H 0.25695 0.32422 0.53704 0.0
H984 H 0.30139 0.31111 0.63744 0.0
H985 H 0.23505 0.34547 0.61055 0.0
H986 H 0.22042 0.3106 0.69929 0.0
H987 H 0.34077 0.34484 0.5303 0.0
H988 H 0.25247 0.30008 0.50732 0.0
H989 H 0.29768 0.28669 0.60987 0.0
C990 C 0.5443 0.31688 0.13085 0.0
C991 C 0.56413 0.31614 0.12177 0.0
N992 N 0.57222 0.32873 0.13201 0.0
N993 N 0.5397 0.32983 0.14755 0.0
C994 C 0.55698 0.33694 0.14625 0.0
H995 H 0.53401 0.30839 0.12535 0.0
Co996 Co 0.51453 0.33657 0.16578 0.0
C997 C 0.53949 0.34367 0.25705 0.0
O998 O 0.55196 0.33342 0.24869 0.0
N999 N 0.48954 0.34333 0.18336 0.0
C1000 C 0.46437 0.35039 0.22991 0.0
C1001 C 0.4829 0.34475 0.23058 0.0
C1002 C 0.47451 0.3479 0.15446 0.0
N1003 N 0.45907 0.35238 0.18207 0.0
O1004 O 0.51923 0.35309 0.12648 0.0
H1005 H 0.49096 0.34179 0.26371 0.0
H1006 H 0.47497 0.34818 0.11411 0.0
O1007 O 0.5251 0.34563 0.22696 0.0
C1008 C 0.51609 0.34981 0.08084 0.0
O1009 O 0.51044 0.33692 0.0708 0.0
N1010 N 0.5087 0.31964 0.1984 0.0
C1011 C 0.49965 0.29204 0.22477 0.0
C1012 C 0.50844 0.30121 0.25936 0.0
C1013 C 0.51269 0.31506 0.24562 0.0
C1014 C 0.49888 0.31119 0.16579 0.0
C1015 C 0.49442 0.29734 0.17786 0.0
H1016 H 0.51908 0.32186 0.27316 0.0
H1017 H 0.49536 0.31508 0.12895 0.0
H1018 H 0.55841 0.34779 0.1577 0.0
H1019 H 0.57193 0.30697 0.10851 0.0
H1020 H 0.45533 0.35267 0.26215 0.0
H1021 H 0.51212 0.29769 0.29663 0.0
H1022 H 0.4877 0.29072 0.14973 0.0
C1023 C 0.24357 0.41129 0.05481 0.0
C1024 C 0.22368 0.41212 0.04937 0.0
N1025 N 0.21524 0.41032 0.09435 0.0
N1026 N 0.24811 0.40868 0.10281 0.0
C1027 C 0.23042 0.40803 0.12632 0.0
H1028 H 0.25416 0.413 0.02549 0.0
Co1029 Co 0.27485 0.40864 0.11967 0.0
C1030 C 0.27961 0.39821 0.22215 0.0
O1031 O 0.29278 0.40821 0.22653 0.0
N1032 N 0.30262 0.40866 0.133 0.0
C1033 C 0.33395 0.41437 0.14758 0.0
C1034 C 0.31516 0.41941 0.14238 0.0
C1035 C 0.3145 0.3972 0.13225 0.0
N1036 N 0.33355 0.40041 0.14086 0.0
O1037 O 0.27816 0.39232 0.07832 0.0
H1038 H 0.31133 0.43033 0.14549 0.0
H1039 H 0.30931 0.38662 0.12565 0.0
O1040 O 0.27032 0.39679 0.18052 0.0
C1041 C 0.2856 0.39503 0.03566 0.0
O1042 O 0.29215 0.4078 0.02725 0.0
N1043 N 0.27074 0.42547 0.15545 0.0
C1044 C 0.26475 0.45178 0.19893 0.0
C1045 C 0.25724 0.4396 0.2212 0.0
C1046 C 0.26006 0.4266 0.19845 0.0
C1047 C 0.27614 0.43731 0.13047 0.0
C1048 C 0.27383 0.45057 0.15212 0.0
H1049 H 0.25332 0.41757 0.21543 0.0
H1050 H 0.28297 0.4364 0.09415 0.0
H1051 H 0.22871 0.40656 0.16608 0.0
H1052 H 0.21606 0.41417 0.01469 0.0
H1053 H 0.34703 0.42057 0.15441 0.0
H1054 H 0.24905 0.44009 0.25579 0.0
H1055 H 0.2795 0.45968 0.13284 0.0
H1056 H 0.0472 0.11677 0.47515 0.0
H1057 H 0.99017 0.1078 0.41019 0.0
H1058 H 0.97428 0.11363 0.4908 0.0
H1059 H 0.0367 0.1013 0.59449 0.0
H1060 H 0.05081 0.11403 0.62917 0.0
H1061 H 0.05754 0.10976 0.56594 0.0
H1062 H 0.05525 0.13603 0.54156 0.0
H1063 H 0.04871 0.14036 0.60483 0.0
H1064 H 0.03292 0.14557 0.5541 0.0
H1065 H 0.96475 0.12132 0.57841 0.0
H1066 H 0.96235 0.12959 0.66566 0.0
H1067 H 0.02593 0.13128 0.67473 0.0
C1068 C 0.03134 0.11625 0.47765 0.0
C1069 C 1.01985 0.11207 0.43621 0.0
C1070 C 0.9992 0.11109 0.4414 0.0
C1071 C 0.99008 0.11436 0.48703 0.0
C1072 C 1.00188 0.1183 0.52735 0.0
C1073 C 1.02208 0.11914 0.52314 0.0
C1074 C 0.0315 0.12315 0.57243 0.0
C1075 C 0.04493 0.11135 0.59163 0.0
C1076 C 0.04276 0.13711 0.56794 0.0
C1077 C 1.01344 0.12471 0.60489 0.0
C1078 C 0.99648 0.12193 0.57821 0.0
C1079 C 0.97796 0.12339 0.59971 0.0
C1080 C 0.97675 0.12808 0.64936 0.0
C1081 C 0.99395 0.13112 0.67728 0.0
C1082 C 1.0125 0.12905 0.6548 0.0
H1083 H 0.24581 0.13781 0.51884 0.0
H1084 H 0.29718 0.1257 0.43305 0.0
H1085 H 0.31057 0.11359 0.50739 0.0
H1086 H 0.27104 0.14533 0.63173 0.0
H1087 H 0.25183 0.13869 0.67148 0.0
H1088 H 0.24584 0.14573 0.61102 0.0
H1089 H 0.22847 0.12246 0.58686 0.0
H1090 H 0.23415 0.11545 0.64755 0.0
H1091 H 0.24167 0.10612 0.59218 0.0
H1092 H 0.3184 0.10303 0.59246 0.0
H1093 H 0.31942 0.09424 0.67924 0.0
H1094 H 0.26339 0.11428 0.70889 0.0
C1095 C 0.25978 0.13248 0.51524 0.0
C1096 C 0.27038 0.13265 0.46983 0.0
C1097 C 0.2887 0.12564 0.46723 0.0
C1098 C 0.29646 0.11879 0.50936 0.0
C1099 C 0.28578 0.11912 0.55381 0.0
C1100 C 0.26778 0.12574 0.55684 0.0
C1101 C 0.2593 0.12484 0.60901 0.0
C1102 C 0.25687 0.13952 0.63215 0.0
C1103 C 0.23974 0.11673 0.60887 0.0
C1104 C 0.27533 0.11664 0.63505 0.0
C1105 C 0.29047 0.11341 0.60266 0.0
C1106 C 0.30664 0.10555 0.61809 0.0
C1107 C 0.30712 0.10065 0.66751 0.0
C1108 C 0.29159 0.10367 0.70108 0.0
C1109 C 0.27567 0.11198 0.68456 0.0
H1110 H 1.01932 0.87828 0.46317 0.0
H1111 H 0.07908 0.89063 0.42765 0.0
H1112 H 0.07404 0.88297 0.34053 0.0
H1113 H 1.0173 0.84771 0.38375 0.0
H1114 H 0.99207 0.85061 0.36612 0.0
H1115 H 1.00082 0.8566 0.42592 0.0
H1116 H 0.98908 0.88176 0.40517 0.0
H1117 H 0.98047 0.87591 0.34504 0.0
H1118 H 0.99776 0.89021 0.34922 0.0
H1119 H 0.06203 0.87428 0.25565 0.0
H1120 H 0.04467 0.86408 0.18281 0.0
H1121 H 0.99256 0.85849 0.27397 0.0
C1122 C 0.03137 0.87941 0.43722 0.0
C1123 C 0.04955 0.88521 0.45252 0.0
C1124 C 0.06499 0.88624 0.41715 0.0
C1125 C 0.06225 0.88197 0.36736 0.0
C1126 C 0.04396 0.8767 0.35326 0.0
C1127 C 0.02883 0.87532 0.38732 0.0
C1128 C 1.01054 0.86943 0.36277 0.0
C1129 C 1.00486 0.85525 0.38602 0.0
C1130 C 0.99346 0.87996 0.36572 0.0
C1131 C 1.01774 0.86767 0.30959 0.0
C1132 C 0.03704 0.87192 0.3047 0.0
C1133 C 0.04689 0.87095 0.25909 0.0
C1134 C 0.03688 0.86521 0.21779 0.0
C1135 C 1.0172 0.86051 0.22233 0.0
C1136 C 1.00754 0.86204 0.26884 0.0
H1137 H 0.8141 0.8633 0.4546 0.0
H1138 H 0.75254 0.85538 0.48393 0.0
H1139 H 0.74379 0.86711 0.4041 0.0
H1140 H 0.80764 0.89787 0.39414 0.0
H1141 H 0.82736 0.89447 0.35092 0.0
H1142 H 0.82791 0.88682 0.41233 0.0
H1143 H 0.8316 0.86218 0.37234 0.0
H1144 H 0.83054 0.86968 0.31084 0.0
H1145 H 0.8134 0.85613 0.32833 0.0
H1146 H 0.74274 0.87743 0.31411 0.0
H1147 H 0.74909 0.88811 0.23099 0.0
H1148 H 0.81138 0.88929 0.26459 0.0
C1149 C 0.79871 0.86442 0.44497 0.0
C1150 C 0.78397 0.8586 0.47559 0.0
C1151 C 0.76403 0.86005 0.46146 0.0
C1152 C 0.75898 0.86655 0.41589 0.0
C1153 C 0.77404 0.87168 0.38543 0.0
C1154 C 0.79349 0.87095 0.40022 0.0
C1155 C 0.80712 0.8768 0.3609 0.0
C1156 C 0.81815 0.88976 0.38076 0.0
C1157 C 0.8215 0.86552 0.342 0.0
C1158 C 0.79245 0.88076 0.32101 0.0
C1159 C 0.77341 0.87769 0.33531 0.0
C1160 C 0.75759 0.88002 0.30301 0.0
C1161 C 0.76133 0.88595 0.25569 0.0
C1162 C 0.78071 0.88956 0.24139 0.0
C1163 C 0.79636 0.88676 0.27453 0.0
H1164 H 0.05638 0.65274 0.20711 0.0
H1165 H 1.01099 0.62729 0.27592 0.0
H1166 H 1.00522 0.61544 0.19449 0.0
H1167 H 0.03222 0.65768 0.08917 0.0
H1168 H 0.05476 0.65686 0.05405 0.0
H1169 H 0.055 0.66322 0.11739 0.0
H1170 H 0.08114 0.64459 0.14095 0.0
H1171 H 0.0811 0.63825 0.07764 0.0
H1172 H 0.07629 0.62631 0.1283 0.0
H1173 H 1.00543 0.60599 0.10414 0.0
H1174 H 1.0119 0.59964 0.01605 0.0
H1175 H 0.05665 0.632 0.00828 0.0
C1176 C 0.04517 0.64468 0.20544 0.0
C1177 C 0.03416 0.64093 0.24822 0.0
C1178 C 1.01966 0.63032 0.24383 0.0
C1179 C 1.01626 0.62358 0.19765 0.0
C1180 C 0.02738 0.62763 0.15621 0.0
C1181 C 0.04154 0.63797 0.15994 0.0
C1182 C 0.05178 0.64041 0.11053 0.0
C1183 C 0.04822 0.65543 0.09169 0.0
C1184 C 0.07388 0.63719 0.11462 0.0
C1185 C 0.04135 0.62974 0.0781 0.0
C1186 C 0.02729 0.62246 0.10492 0.0
C1187 C 1.01634 0.61171 0.08293 0.0
C1188 C 1.02012 0.60817 0.03281 0.0
C1189 C 0.03472 0.61536 0.005 0.0
C1190 C 0.04517 0.62644 0.02804 0.0
H1191 H 0.28881 0.63383 0.03422 0.0
H1192 H 0.352 0.63961 0.02843 0.0
H1193 H 0.35507 0.62897 0.11208 0.0
H1194 H 0.28378 0.64317 0.16298 0.0
H1195 H 0.26459 0.63062 0.17544 0.0
H1196 H 0.26735 0.63781 0.11369 0.0
H1197 H 0.27024 0.61276 0.07679 0.0
H1198 H 0.26725 0.60548 0.13831 0.0
H1199 H 0.28842 0.60088 0.10141 0.0
H1200 H 0.35131 0.61745 0.19612 0.0
H1201 H 0.34084 0.60621 0.27493 0.0
H1202 H 0.28001 0.60969 0.22877 0.0
C1203 C 0.3033 0.63274 0.05023 0.0
C1204 C 0.32018 0.63751 0.02457 0.0
C1205 C 0.33886 0.63601 0.04731 0.0
C1206 C 0.34076 0.63 0.09485 0.0
C1207 C 0.3238 0.62571 0.11961 0.0
C1208 C 0.30541 0.62704 0.09817 0.0
C1209 C 0.28947 0.62207 0.13353 0.0
C1210 C 0.27547 0.63414 0.14721 0.0
C1211 C 0.27819 0.60955 0.11117 0.0
C1212 C 0.30178 0.61766 0.17804 0.0
C1213 C 0.32155 0.61975 0.16907 0.0
C1214 C 0.33585 0.6159 0.20373 0.0
C1215 C 0.32978 0.60956 0.24839 0.0
C1216 C 0.3096 0.60735 0.25843 0.0
C1217 C 0.29546 0.61161 0.22293 0.0
H1218 H 0.99558 0.38863 0.98928 0.0
H1219 H 0.04827 0.38033 0.07574 0.0
H1220 H 0.06326 0.36894 0.00189 0.0
H1221 H 0.99578 0.35624 0.91809 0.0
H1222 H 0.98697 0.36455 0.86198 0.0
H1223 H 0.98035 0.37157 0.9221 0.0
H1224 H 0.99436 0.39579 0.89613 0.0
H1225 H 1.00122 0.38877 0.83617 0.0
H1226 H 1.01946 0.39704 0.8752 0.0
H1227 H 0.07281 0.35918 0.91722 0.0
H1228 H 0.07529 0.3501 0.83128 0.0
H1229 H 1.01632 0.36512 0.80021 0.0
C1230 C 1.01022 0.38431 0.993 0.0
C1231 C 1.02074 0.38536 0.03849 0.0
C1232 C 0.03986 0.37957 0.04151 0.0
C1233 C 0.04853 0.37316 -0.00036 0.0
C1234 C 0.03787 0.37259 0.95511 0.0
C1235 C 1.01904 0.37789 0.95173 0.0
C1236 C 1.01068 0.37599 0.89964 0.0
C1237 C 0.99237 0.36652 0.90053 0.0
C1238 C 1.00617 0.39025 0.87537 0.0
C1239 C 0.02776 0.36879 0.87407 0.0
C1240 C 0.04333 0.36698 0.90662 0.0
C1241 C 0.06067 0.3605 0.89155 0.0
C1242 C 0.06195 0.35543 0.84244 0.0
C1243 C 0.04595 0.35678 0.80877 0.0
C1244 C 0.0288 0.36382 0.82484 0.0
H1245 H 0.76852 0.35086 0.98644 0.0
H1246 H 0.74269 0.38952 0.04153 0.0
H1247 H 0.73796 0.39749 0.95425 0.0
H1248 H 0.79563 0.36622 0.88956 0.0
H1249 H 0.79241 0.3517 0.84711 0.0
H1250 H 0.79197 0.34873 0.91339 0.0
H1251 H 0.75769 0.33708 0.90536 0.0
H1252 H 0.75798 0.34006 0.83895 0.0
H1253 H 0.73791 0.34659 0.87613 0.0
H1254 H 0.73751 0.40148 0.86028 0.0
H1255 H 0.74324 0.40198 0.7694 0.0
H1256 H 0.77033 0.36082 0.77743 0.0
C1257 C 0.76158 0.36093 0.9805 0.0
C1258 C 0.75581 0.36952 0.02106 0.0
C1259 C 0.74715 0.38273 0.01115 0.0
C1260 C 0.74435 0.38731 0.96169 0.0
C1261 C 0.75034 0.37855 0.92266 0.0
C1262 C 0.75885 0.36566 0.93169 0.0
C1263 C 0.76528 0.35858 0.88376 0.0
C1264 C 0.78764 0.35618 0.88345 0.0
C1265 C 0.75404 0.34476 0.87558 0.0
C1266 C 0.75928 0.36958 0.84602 0.0
C1267 C 0.75048 0.38095 0.86908 0.0
C1268 C 0.74433 0.39261 0.84194 0.0
C1269 C 0.7477 0.3928 0.79023 0.0
C1270 C 0.75732 0.38147 0.76607 0.0
C1271 C 0.76277 0.3696 0.79447 0.0
H1272 H 0.56244 0.14145 0.17615 0.0
H1273 H 0.51177 0.12276 0.24868 0.0
H1274 H 0.50029 0.11372 0.1674 0.0
H1275 H 0.53815 0.15244 0.06567 0.0
H1276 H 0.55825 0.14828 0.02446 0.0
H1277 H 0.56307 0.15291 0.08853 0.0
H1278 H 0.58196 0.12957 0.10149 0.0
H1279 H 0.57753 0.12503 0.03718 0.0
H1280 H 0.57014 0.11318 0.08604 0.0
H1281 H 0.4936 0.10747 0.07758 0.0
H1282 H 0.49411 0.10226 0.98726 0.0
H1283 H 0.5492 0.1249 0.97333 0.0
C1284 C 0.54905 0.13531 0.17512 0.0
C1285 C 0.53802 0.13283 0.21899 0.0
C1286 C 0.52056 0.12475 0.2158 0.0
C1287 C 0.51383 0.11965 0.16968 0.0
C1288 C 0.52477 0.12262 0.12704 0.0
C1289 C 0.54217 0.13007 0.12942 0.0
C1290 C 0.55124 0.1317 0.07806 0.0
C1291 C 0.55276 0.14726 0.06333 0.0
C1292 C 0.57141 0.12444 0.07556 0.0
C1293 C 0.53615 0.12408 0.0464 0.0
C1294 C 0.52096 0.11898 0.07534 0.0
C1295 C 0.50546 0.11138 0.05459 0.0
C1296 C 0.50584 0.10851 0.00321 0.0
C1297 C 0.52165 0.11319 0.9731 0.0
C1298 C 0.53674 0.12136 0.99503 0.0
H1299 H 0.74275 0.10747 0.18973 0.0
H1300 H 0.79664 0.11763 0.26896 0.0
H1301 H 0.81012 0.12818 0.1924 0.0
H1302 H 0.76464 0.09801 0.0748 0.0
H1303 H 0.74589 0.10578 0.03616 0.0
H1304 H 0.73983 0.09955 0.09769 0.0
H1305 H 0.72624 0.12408 0.12145 0.0
H1306 H 0.73194 0.13028 0.05967 0.0
H1307 H 0.74159 0.13935 0.11348 0.0
H1308 H 0.81863 0.13623 0.10633 0.0
H1309 H 0.82 0.14425 0.01911 0.0
H1310 H 0.76044 0.12916 0.99554 0.0
C1311 C 0.75727 0.1121 0.19122 0.0
C1312 C 0.76863 0.11169 0.23544 0.0
C1313 C 0.78759 0.11786 0.23572 0.0
C1314 C 0.79545 0.1238 0.19228 0.0
C1315 C 0.78412 0.12361 0.14898 0.0
C1316 C 0.7653 0.11816 0.14827 0.0
C1317 C 0.75621 0.11937 0.09676 0.0
C1318 C 0.75136 0.10481 0.07509 0.0
C1319 C 0.73791 0.12883 0.09793 0.0
C1320 C 0.77292 0.12624 0.06861 0.0
C1321 C 0.78892 0.12849 0.09938 0.0
C1322 C 0.80615 0.13464 0.08194 0.0
C1323 C 0.80681 0.13907 0.03215 0.0
C1324 C 0.79028 0.13745 0.00038 0.0
C1325 C 0.7733 0.13063 0.01878 0.0
H1326 H 0.50407 0.89963 0.9258 0.0
H1327 H 0.54892 0.87581 0.0033 0.0
H1328 H 0.56194 0.86761 0.92161 0.0
H1329 H 0.4935 0.87518 0.83364 0.0
H1330 H 0.4897 0.88794 0.785 0.0
H1331 H 0.48546 0.89269 0.84903 0.0
H1332 H 0.50989 0.91346 0.84027 0.0
H1333 H 0.51428 0.9087 0.77611 0.0
H1334 H 0.53459 0.91015 0.81905 0.0
H1335 H 0.56678 0.85967 0.83102 0.0
H1336 H 0.56396 0.85361 0.74132 0.0
H1337 H 0.51721 0.88413 0.72497 0.0
C1338 C 0.51677 0.89279 0.92575 0.0
C1339 C 0.52542 0.88822 0.9708 0.0
C1340 C 0.54212 0.87941 0.9691 0.0
C1341 C 0.54958 0.87473 0.92292 0.0
C1342 C 0.54041 0.87927 0.87908 0.0
C1343 C 0.52451 0.88826 0.88034 0.0
C1344 C 0.51662 0.89121 0.82865 0.0
C1345 C 0.49506 0.88647 0.82382 0.0
C1346 C 0.519 0.90681 0.81524 0.0
C1347 C 0.53013 0.88211 0.79782 0.0
C1348 C 0.54381 0.87529 0.82737 0.0
C1349 C 0.55646 0.86522 0.80749 0.0
C1350 C 0.55477 0.86185 0.75654 0.0
C1351 C 0.54066 0.86863 0.72604 0.0
C1352 C 0.52859 0.87912 0.74689 0.0
H1353 H 0.31423 0.88161 0.76779 0.0
H1354 H 0.25368 0.8917 0.73343 0.0
H1355 H 0.24323 0.88101 0.81359 0.0
H1356 H 0.30428 0.84787 0.82928 0.0
H1357 H 0.32378 0.85055 0.87386 0.0
H1358 H 0.32563 0.858 0.81232 0.0
H1359 H 0.33096 0.88256 0.85194 0.0
H1360 H 0.32861 0.87526 0.91354 0.0
H1361 H 0.31283 0.88946 0.89443 0.0
H1362 H 0.24033 0.87112 0.90352 0.0
H1363 H 0.24477 0.85997 0.98669 0.0
H1364 H 0.30721 0.85626 0.9582 0.0
C1365 C 0.29871 0.88127 0.77656 0.0
C1366 C 0.28474 0.88738 0.74435 0.0
C1367 C 0.26458 0.88685 0.75722 0.0
C1368 C 0.25856 0.88094 0.80294 0.0
C1369 C 0.27289 0.87547 0.83485 0.0
C1370 C 0.2925 0.87532 0.82146 0.0
C1371 C 0.30519 0.86901 0.8619 0.0
C1372 C 0.31531 0.85556 0.84323 0.0
C1373 C 0.32028 0.87971 0.88159 0.0
C1374 C 0.28976 0.86579 0.90071 0.0
C1375 C 0.27119 0.86965 0.88498 0.0
C1376 C 0.2548 0.86794 0.91584 0.0
C1377 C 0.25745 0.86175 0.96318 0.0
C1378 C 0.27631 0.85727 0.97871 0.0
C1379 C 0.29259 0.85953 0.94719 0.0
H1380 H 0.57466 0.63286 0.72314 0.0
H1381 H 0.51412 0.64063 0.76432 0.0
H1382 H 0.50303 0.62914 0.68587 0.0
H1383 H 0.57032 0.63949 0.59543 0.0
H1384 H 0.58679 0.62571 0.57614 0.0
H1385 H 0.58969 0.63375 0.63653 0.0
H1386 H 0.58702 0.60944 0.67933 0.0
H1387 H 0.58454 0.60129 0.61896 0.0
H1388 H 0.56615 0.59836 0.66618 0.0
H1389 H 0.49923 0.61859 0.59701 0.0
H1390 H 0.50291 0.60696 0.51432 0.0
H1391 H 0.56597 0.60549 0.536 0.0
C1392 C 0.55904 0.63189 0.7161 0.0
C1393 C 0.54522 0.63754 0.74976 0.0
C1394 C 0.52492 0.63616 0.73932 0.0
C1395 C 0.51853 0.62978 0.69461 0.0
C1396 C 0.53265 0.62468 0.66135 0.0
C1397 C 0.55248 0.6254 0.67237 0.0
C1398 C 0.56485 0.61915 0.63114 0.0
C1399 C 0.57872 0.63019 0.60849 0.0
C1400 C 0.57631 0.60629 0.65003 0.0
C1401 C 0.54897 0.61495 0.59461 0.0
C1402 C 0.53046 0.61832 0.61211 0.0
C1403 C 0.51366 0.61578 0.58336 0.0
C1404 C 0.51587 0.60931 0.5363 0.0
C1405 C 0.5347 0.60532 0.51901 0.0
C1406 C 0.55137 0.60834 0.54847 0.0
H1407 H 0.78218 0.6351 0.76555 0.0
H1408 H 0.82653 0.60307 0.74327 0.0
H1409 H 0.82898 0.60972 0.65426 0.0
H1410 H 0.75681 0.62776 0.66066 0.0
H1411 H 0.74974 0.64552 0.64617 0.0
H1412 H 0.75481 0.64068 0.70962 0.0
H1413 H 0.78105 0.66034 0.71632 0.0
H1414 H 0.77587 0.66543 0.6529 0.0
H1415 H 0.80064 0.66113 0.67116 0.0
H1416 H 0.82296 0.6177 0.56488 0.0
H1417 H 0.80841 0.6258 0.48486 0.0
H1418 H 0.76709 0.6515 0.56743 0.0
C1419 C 0.79304 0.62989 0.74254 0.0
C1420 C 0.80436 0.61872 0.76141 0.0
C1421 C 0.81785 0.61178 0.72956 0.0
C1422 C 0.81936 0.6155 0.679 0.0
C1423 C 0.80728 0.62617 0.66096 0.0
C1424 C 0.79447 0.63331 0.69201 0.0
C1425 C 0.78112 0.64294 0.66282 0.0
C1426 C 0.75935 0.63898 0.67026 0.0
C1427 C 0.78491 0.65838 0.67662 0.0
C1428 C 0.78791 0.63976 0.61037 0.0
C1429 C 0.80329 0.63031 0.60979 0.0
C1430 C 0.81111 0.62526 0.56498 0.0
C1431 C 0.80278 0.62988 0.51977 0.0
C1432 C 0.78658 0.63917 0.52009 0.0
C1433 C 0.77942 0.64433 0.56599 0.0
H1434 H 0.51135 0.36104 0.29829 0.0
H1435 H 0.56813 0.34219 0.32883 0.0
H1436 H 0.56714 0.35169 0.41457 0.0
H1437 H 0.51847 0.39273 0.37198 0.0
H1438 H 0.49335 0.39304 0.39319 0.0
H1439 H 0.49925 0.38543 0.3335 0.0
H1440 H 0.48236 0.36225 0.36014 0.0
H1441 H 0.4766 0.36973 0.42013 0.0
H1442 H 0.49025 0.35356 0.41641 0.0
H1443 H 0.55932 0.36278 0.49906 0.0
H1444 H 0.54585 0.37528 0.57266 0.0
H1445 H 0.49384 0.38593 0.48682 0.0
C1446 C 0.52369 0.35901 0.32271 0.0
C1447 C 0.5398 0.35081 0.30656 0.0
C1448 C 0.5556 0.34843 0.34011 0.0
C1449 C 0.55516 0.35375 0.38905 0.0
C1450 C 0.5388 0.36144 0.40419 0.0
C1451 C 0.52341 0.36412 0.37185 0.0
C1452 C 0.5073 0.37237 0.39757 0.0
C1453 C 0.50444 0.38674 0.37258 0.0
C1454 C 0.48799 0.36397 0.39862 0.0
C1455 C 0.516 0.37388 0.44942 0.0
C1456 C 0.5342 0.36755 0.45263 0.0
C1457 C 0.54507 0.36777 0.4969 0.0
C1458 C 0.53728 0.37485 0.53864 0.0
C1459 C 0.51876 0.38158 0.53586 0.0
C1460 C 0.50799 0.38086 0.49061 0.0
H1461 H 0.28928 0.38137 0.5113 0.0
H1462 H 0.24878 0.34662 0.49195 0.0
H1463 H 0.24447 0.35308 0.40312 0.0
H1464 H 0.26484 0.40598 0.42727 0.0
H1465 H 0.28783 0.41295 0.40494 0.0
H1466 H 0.2861 0.40615 0.46746 0.0
H1467 H 0.31505 0.38922 0.44911 0.0
H1468 H 0.31674 0.39587 0.38646 0.0
H1469 H 0.31341 0.37733 0.39686 0.0
H1470 H 0.24617 0.36316 0.31306 0.0
H1471 H 0.25378 0.37572 0.23395 0.0
H1472 H 0.29371 0.40294 0.31548 0.0
C1473 C 0.27917 0.37526 0.48881 0.0
C1474 C 0.2693 0.36353 0.50886 0.0
C1475 C 0.2565 0.35568 0.47757 0.0
C1476 C 0.25395 0.35928 0.42698 0.0
C1477 C 0.26432 0.37075 0.40812 0.0
C1478 C 0.2766 0.37863 0.43839 0.0
C1479 C 0.28692 0.38999 0.40917 0.0
C1480 C 0.28107 0.40463 0.42835 0.0
C1481 C 0.30935 0.38797 0.41048 0.0
C1482 C 0.27871 0.38725 0.35761 0.0
C1483 C 0.26558 0.37621 0.35732 0.0
C1484 C 0.25641 0.37186 0.31308 0.0
C1485 C 0.26082 0.37901 0.26828 0.0
C1486 C 0.2744 0.39029 0.26814 0.0
C1487 C 0.28331 0.39435 0.31371 0.0
H1488 H 0.12926 0.09072 0.34957 0.0
H1489 H 0.08858 0.12339 0.30369 0.0
H1490 H 0.11636 0.13959 0.29214 0.0
H1491 H 0.162 0.11351 0.41937 0.0
H1492 H 0.18392 0.10427 0.40086 0.0
H1493 H 0.16089 0.09502 0.40525 0.0
H1494 H 0.16449 0.08671 0.31366 0.0
H1495 H 0.18755 0.09589 0.30901 0.0
H1496 H 0.16814 0.09952 0.2651 0.0
H1497 H 0.14833 0.15228 0.28448 0.0
H1498 H 0.18256 0.16062 0.28034 0.0
H1499 H 0.20312 0.1203 0.3338 0.0
C1500 C 0.12606 0.10129 0.33749 0.0
C1501 C 0.10647 0.10564 0.32742 0.0
C1502 C 0.10327 0.1196 0.31098 0.0
C1503 C 0.11901 0.12897 0.30467 0.0
C1504 C 0.13799 0.12433 0.31512 0.0
C1505 C 0.14162 0.11083 0.33122 0.0
C1506 C 0.16352 0.10853 0.33953 0.0
C1507 C 0.16783 0.10513 0.39453 0.0
C1508 C 0.17138 0.09698 0.30475 0.0
C1509 C 0.17163 0.12285 0.32533 0.0
C1510 C 0.15657 0.13176 0.31136 0.0
C1511 C 0.16022 0.1454 0.2954 0.0
C1512 C 0.17973 0.15003 0.293 0.0
C1513 C 0.19553 0.14112 0.30658 0.0
C1514 C 0.19135 0.12738 0.32367 0.0
H1515 H 0.10895 0.14096 0.75118 0.0
H1516 H 0.08273 0.11628 0.86959 0.0
H1517 H 0.11566 0.10694 0.8913 0.0
H1518 H 0.14382 0.11523 0.71113 0.0
H1519 H 0.16256 0.12806 0.69778 0.0
H1520 H 0.13702 0.13277 0.69279 0.0
H1521 H 0.14253 0.15341 0.75448 0.0
H1522 H 0.16809 0.14878 0.75958 0.0
H1523 H 0.15314 0.14998 0.81491 0.0
H1524 H 0.15228 0.10005 0.89822 0.0
H1525 H 0.18846 0.09737 0.89225 0.0
H1526 H 0.1892 0.12631 0.76755 0.0
C1527 C 0.10998 0.13349 0.78139 0.0
C1528 C 0.09316 0.12928 0.80838 0.0
C1529 C 0.0954 0.11973 0.84852 0.0
C1530 C 0.11403 0.11431 0.86089 0.0
C1531 C 0.13026 0.11857 0.83284 0.0
C1532 C 0.12832 0.12801 0.79406 0.0
C1533 C 0.14784 0.13112 0.76965 0.0
C1534 C 0.1478 0.12652 0.71458 0.0
C1535 C 0.15321 0.14675 0.775 0.0
C1536 C 0.1612 0.12198 0.80068 0.0
C1537 C 0.15091 0.11475 0.8369 0.0
C1538 C 0.16043 0.10568 0.86993 0.0
C1539 C 0.18096 0.10415 0.86609 0.0
C1540 C 0.19173 0.1117 0.82967 0.0
C1541 C 0.18152 0.12056 0.79637 0.0
H1542 H 0.87417 0.84194 0.52876 0.0
H1543 H 0.85158 0.85927 0.66676 0.0
H1544 H 0.88226 0.87309 0.67727 0.0
H1545 H 0.92409 0.83847 0.56622 0.0
H1546 H 0.93397 0.8435 0.50647 0.0
H1547 H 0.91022 0.83523 0.51 0.0
H1548 H 0.8946 0.85618 0.46281 0.0
H1549 H 0.91834 0.86447 0.4588 0.0
H1550 H 0.898 0.87375 0.48645 0.0
H1551 H 0.91672 0.88396 0.67417 0.0
H1552 H 0.95001 0.89282 0.65317 0.0
H1553 H 0.94885 0.86882 0.51573 0.0
C1554 C 0.8757 0.84866 0.56115 0.0
C1555 C 0.86061 0.84951 0.59714 0.0
C1556 C 0.86296 0.85857 0.63867 0.0
C1557 C 0.88036 0.86636 0.64504 0.0
C1558 C 0.89512 0.86509 0.60916 0.0
C1559 C 0.89278 0.85661 0.56764 0.0
C1560 C 0.91055 0.85726 0.53383 0.0
C1561 C 0.92028 0.84275 0.52887 0.0
C1562 C 0.90504 0.86328 0.48244 0.0
C1563 C 0.92339 0.86732 0.56293 0.0
C1564 C 0.91439 0.87166 0.60652 0.0
C1565 C 0.9238 0.88071 0.63992 0.0
C1566 C 0.94273 0.88561 0.62794 0.0
C1567 C 0.9519 0.88158 0.58272 0.0
C1568 C 0.94207 0.87224 0.5502 0.0
H1569 H 0.91507 0.84717 0.06867 0.0
H1570 H 0.95763 0.87645 0.13001 0.0
H1571 H 0.9316 0.89443 0.13705 0.0
H1572 H 0.88714 0.87254 0.99726 0.0
H1573 H 0.86387 0.86423 0.00985 0.0
H1574 H 0.886 0.85389 0.00803 0.0
H1575 H 0.87866 0.84467 0.09698 0.0
H1576 H 0.85658 0.85505 0.09919 0.0
H1577 H 0.87497 0.85702 0.14715 0.0
H1578 H 0.9006 0.90882 0.14104 0.0
H1579 H 0.86753 0.91912 0.1377 0.0
H1580 H 0.84484 0.88056 0.07299 0.0
C1581 C 0.91898 0.85735 0.08369 0.0
C1582 C 0.93851 0.86035 0.09893 0.0
C1583 C 0.94292 0.87391 0.11758 0.0
C1584 C 0.92817 0.88416 0.12204 0.0
C1585 C 0.90906 0.88074 0.10748 0.0
C1586 C 0.90445 0.86769 0.08832 0.0
C1587 C 0.88274 0.86667 0.07557 0.0
C1588 C 0.87977 0.86419 0.01933 0.0
C1589 C 0.87264 0.85517 0.10658 0.0
C1590 C 0.87577 0.88117 0.09093 0.0
C1591 C 0.89121 0.88909 0.10926 0.0
C1592 C 0.88847 0.90275 0.12626 0.0
C1593 C 0.86955 0.90854 0.12393 0.0
C1594 C 0.85345 0.90077 0.10449 0.0
C1595 C 0.8567 0.8868 0.08823 0.0
H1596 H 0.21625 0.61541 0.95944 0.0
H1597 H 0.21699 0.63924 0.82194 0.0
H1598 H 0.1835 0.63051 0.80191 0.0
H1599 H 0.18782 0.58515 0.91204 0.0
H1600 H 0.17494 0.58319 0.97036 0.0
H1601 H 0.19965 0.58999 0.96979 0.0
H1602 H 0.1879 0.61213 0.01761 0.0
H1603 H 0.16319 0.60546 0.01806 0.0
H1604 H 0.1682 0.62253 0.99209 0.0
H1605 H 0.14795 0.62108 0.80301 0.0
H1606 H 0.115 0.61166 0.82408 0.0
H1607 H 0.13887 0.59386 0.96003 0.0
C1608 C 0.20948 0.61866 0.92477 0.0
C1609 C 0.21916 0.62804 0.89233 0.0
C1610 C 0.20989 0.63195 0.84709 0.0
C1611 C 0.19086 0.62708 0.83557 0.0
C1612 C 0.18148 0.61815 0.86935 0.0
C1613 C 0.19068 0.61386 0.91274 0.0
C1614 C 0.17731 0.60491 0.94452 0.0
C1615 C 0.18541 0.58992 0.94944 0.0
C1616 C 0.17395 0.61167 0.99609 0.0
C1617 C 0.15884 0.60518 0.91323 0.0
C1618 C 0.16145 0.61273 0.86973 0.0
C1619 C 0.14589 0.61498 0.83664 0.0
C1620 C 0.12723 0.60955 0.8488 0.0
C1621 C 0.12426 0.60207 0.89386 0.0
C1622 C 0.14049 0.59966 0.92561 0.0
H1623 H 0.12189 0.65645 0.33586 0.0
H1624 H 0.09527 0.6286 0.44411 0.0
H1625 H 0.12628 0.61503 0.449 0.0
H1626 H 0.14938 0.62956 0.27063 0.0
H1627 H 0.17012 0.64087 0.259 0.0
H1628 H 0.14585 0.64823 0.26451 0.0
H1629 H 0.15821 0.66482 0.33459 0.0
H1630 H 0.18248 0.65745 0.32951 0.0
H1631 H 0.17002 0.65749 0.38884 0.0
H1632 H 0.16118 0.60525 0.44466 0.0
H1633 H 0.19559 0.59873 0.42523 0.0
H1634 H 0.19861 0.63253 0.31751 0.0
C1635 C 0.12262 0.6475 0.36059 0.0
C1636 C 0.10623 0.6436 0.38981 0.0
C1637 C 0.10762 0.63169 0.42118 0.0
C1638 C 0.1252 0.62399 0.42441 0.0
C1639 C 0.14119 0.62823 0.3955 0.0
C1640 C 0.13993 0.6396 0.36366 0.0
C1641 C 0.15899 0.64183 0.33562 0.0
C1642 C 0.15589 0.64001 0.27909 0.0
C1643 C 0.16795 0.65625 0.3479 0.0
C1644 C 0.17128 0.63003 0.35694 0.0
C1645 C 0.16086 0.62236 0.39176 0.0
C1646 C 0.16941 0.61114 0.41722 0.0
C1647 C 0.18899 0.60756 0.40624 0.0
C1648 C 0.19974 0.61508 0.36974 0.0
C1649 C 0.19069 0.62649 0.34514 0.0
H1650 H 0.92636 0.40115 0.09493 0.0
H1651 H 0.9495 0.3793 0.22384 0.0
H1652 H 0.91902 0.36508 0.22847 0.0
H1653 H 0.87607 0.4027 0.13406 0.0
H1654 H 0.86629 0.39966 0.07243 0.0
H1655 H 0.88981 0.4081 0.07987 0.0
H1656 H 0.90595 0.38923 0.0235 0.0
H1657 H 0.88247 0.38078 0.01567 0.0
H1658 H 0.90313 0.37093 0.03894 0.0
H1659 H 0.88492 0.35388 0.22033 0.0
H1660 H 0.85197 0.34518 0.19506 0.0
H1661 H 0.85219 0.37387 0.06979 0.0
C1662 C 0.92497 0.3934 0.1242 0.0
C1663 C 0.94024 0.39137 0.1592 0.0
C1664 C 0.93802 0.38096 0.19648 0.0
C1665 C 0.92072 0.37291 0.19956 0.0
C1666 C 0.90585 0.37528 0.16468 0.0
C1667 C 0.90795 0.38516 0.12731 0.0
C1668 C 0.89014 0.38542 0.09341 0.0
C1669 C 0.87998 0.39983 0.09507 0.0
C1670 C 0.89576 0.38134 0.03971 0.0
C1671 C 0.87759 0.37421 0.11762 0.0
C1672 C 0.88676 0.36855 0.15899 0.0
C1673 C 0.87769 0.3582 0.1878 0.0
C1674 C 0.85895 0.35337 0.17342 0.0
C1675 C 0.84961 0.35876 0.1303 0.0
C1676 C 0.85909 0.3694 0.1025 0.0
H1677 H 0.94257 0.37418 0.72943 0.0
H1678 H 0.94567 0.34609 0.60245 0.0
H1679 H 0.9121 0.35336 0.57698 0.0
H1680 H 0.89414 0.3674 0.76144 0.0
H1681 H 0.88847 0.38516 0.7797 0.0
H1682 H 0.9133 0.37886 0.78393 0.0
H1683 H 0.9252 0.39939 0.72817 0.0
H1684 H 0.90037 0.40582 0.72397 0.0
H1685 H 0.91403 0.40208 0.66791 0.0
H1686 H 0.87632 0.36222 0.57144 0.0
H1687 H 0.84298 0.37199 0.58547 0.0
H1688 H 0.86476 0.39449 0.71503 0.0
C1689 C 0.93628 0.36966 0.69596 0.0
C1690 C 0.94666 0.35953 0.66803 0.0
C1691 C 0.93801 0.35395 0.62414 0.0
C1692 C 0.91894 0.358 0.60955 0.0
C1693 C 0.90889 0.36778 0.63886 0.0
C1694 C 0.91745 0.37364 0.68084 0.0
C1695 C 0.9035 0.38341 0.70759 0.0
C1696 C 0.89963 0.3784 0.76132 0.0
C1697 C 0.91124 0.39857 0.70684 0.0
C1698 C 0.88545 0.38182 0.6752 0.0
C1699 C 0.88876 0.37288 0.63542 0.0
C1700 C 0.87371 0.36938 0.60214 0.0
C1701 C 0.85482 0.375 0.61027 0.0
C1702 C 0.85114 0.38394 0.65155 0.0
C1703 C 0.86689 0.38755 0.68353 0.0
H1704 H 0.60189 0.1083 0.96041 0.0
H1705 H 0.60294 0.08932 0.81326 0.0
H1706 H 0.63494 0.1008 0.79642 0.0
H1707 H 0.62357 0.14144 0.92477 0.0
H1708 H 0.63725 0.14317 0.98207 0.0
H1709 H 0.6143 0.13374 0.98149 0.0
H1710 H 0.63162 0.11192 0.01862 0.0
H1711 H 0.65461 0.12126 0.0194 0.0
H1712 H 0.65274 0.10467 0.98729 0.0
H1713 H 0.6678 0.11358 0.79799 0.0
H1714 H 0.69822 0.12663 0.81707 0.0
H1715 H 0.67452 0.13776 0.96231 0.0
C1716 C 0.60889 0.10646 0.92476 0.0
C1717 C 0.60002 0.09781 0.88825 0.0
C1718 C 0.60947 0.09595 0.84163 0.0
C1719 C 0.62764 0.1024 0.83183 0.0
C1720 C 0.63604 0.11079 0.86887 0.0
C1721 C 0.62688 0.11288 0.91429 0.0
C1722 C 0.63892 0.12229 0.94804 0.0
C1723 C 0.62785 0.13597 0.95976 0.0
C1724 C 0.64482 0.11457 0.99617 0.0
C1725 C 0.65652 0.12497 0.91493 0.0
C1726 C 0.6546 0.1183 0.86937 0.0
C1727 C 0.66936 0.11895 0.8334 0.0
C1728 C 0.68659 0.12648 0.84453 0.0
C1729 C 0.68895 0.13329 0.89131 0.0
C1730 C 0.67347 0.1326 0.92644 0.0
H1731 H 0.67625 0.09223 0.40304 0.0
H1732 H 0.71481 0.1221 0.32968 0.0
H1733 H 0.687 0.13822 0.31859 0.0
H1734 H 0.63365 0.09856 0.32393 0.0
H1735 H 0.61616 0.09689 0.37405 0.0
H1736 H 0.63908 0.08746 0.37658 0.0
H1737 H 0.64688 0.09877 0.46226 0.0
H1738 H 0.62398 0.10821 0.46005 0.0
H1739 H 0.64674 0.11762 0.46828 0.0
H1740 H 0.65549 0.15137 0.31586 0.0
H1741 H 0.62203 0.16096 0.32275 0.0
H1742 H 0.60273 0.12285 0.39629 0.0
C1743 C 0.67885 0.10211 0.38436 0.0
C1744 C 0.69796 0.10586 0.3677 0.0
C1745 C 0.70058 0.119 0.34379 0.0
C1746 C 0.68477 0.12823 0.33686 0.0
C1747 C 0.66625 0.12424 0.35378 0.0
C1748 C 0.66314 0.11151 0.37703 0.0
C1749 C 0.64167 0.10996 0.39212 0.0
C1750 C 0.63208 0.09748 0.36505 0.0
C1751 C 0.63971 0.10856 0.44906 0.0
C1752 C 0.63329 0.12384 0.37387 0.0
C1753 C 0.64781 0.13186 0.35183 0.0
C1754 C 0.644 0.14519 0.33302 0.0
C1755 C 0.62493 0.15058 0.33733 0.0
C1756 C 0.60972 0.14273 0.36023 0.0
C1757 C 0.61397 0.12906 0.37816 0.0
H1758 H 0.36541 0.83809 0.15337 0.0
H1759 H 0.33251 0.87185 0.0842 0.0
H1760 H 0.36285 0.88624 0.08114 0.0
H1761 H 0.39819 0.85971 0.22756 0.0
H1762 H 0.41882 0.84816 0.21793 0.0
H1763 H 0.39421 0.84119 0.21792 0.0
H1764 H 0.40003 0.83042 0.13024 0.0
H1765 H 0.42463 0.83734 0.13 0.0
H1766 H 0.40798 0.84161 0.07993 0.0
H1767 H 0.39818 0.89643 0.082 0.0
H1768 H 0.43417 0.9008 0.08463 0.0
H1769 H 0.44284 0.85995 0.15191 0.0
C1770 C 0.36444 0.84849 0.13743 0.0
C1771 C 0.34645 0.85376 0.11884 0.0
C1772 C 0.34601 0.86758 0.09916 0.0
C1773 C 0.36322 0.87582 0.09712 0.0
C1774 C 0.38077 0.87014 0.11514 0.0
C1775 C 0.38138 0.85677 0.13501 0.0
C1776 C 0.40203 0.85273 0.15011 0.0
C1777 C 0.40338 0.85031 0.20674 0.0
C1778 C 0.40907 0.83976 0.12081 0.0
C1779 C 0.41313 0.86578 0.13481 0.0
C1780 C 0.4007 0.87583 0.11518 0.0
C1781 C 0.40796 0.88863 0.09759 0.0
C1782 C 0.42841 0.89107 0.09943 0.0
C1783 C 0.44136 0.8807 0.1182 0.0
C1784 C 0.43341 0.86803 0.13678 0.0
H1785 H 0.45204 0.87696 0.68286 0.0
H1786 H 0.4479 0.84835 0.55749 0.0
H1787 H 0.41464 0.85763 0.53811 0.0
H1788 H 0.40284 0.8741 0.72337 0.0
H1789 H 0.40065 0.89233 0.74068 0.0
H1790 H 0.42427 0.88386 0.74254 0.0
H1791 H 0.4386 0.90285 0.68374 0.0
H1792 H 0.41507 0.91146 0.68202 0.0
H1793 H 0.42682 0.90622 0.62469 0.0
H1794 H 0.38043 0.8693 0.53712 0.0
H1795 H 0.35035 0.88358 0.54955 0.0
H1796 H 0.37796 0.90443 0.67523 0.0
C1797 C 0.44418 0.87267 0.65119 0.0
C1798 C 0.45247 0.86187 0.62182 0.0
C1799 C 0.44185 0.85669 0.58022 0.0
C1800 C 0.42292 0.86184 0.56923 0.0
C1801 C 0.41498 0.87228 0.5999 0.0
C1802 C 0.42547 0.87775 0.63962 0.0
C1803 C 0.41387 0.88886 0.66715 0.0
C1804 C 0.41019 0.88452 0.72165 0.0
C1805 C 0.4242 0.9032 0.6642 0.0
C1806 C 0.39504 0.88875 0.63718 0.0
C1807 C 0.39582 0.87909 0.59865 0.0
C1808 C 0.37979 0.87695 0.56697 0.0
C1809 C 0.3627 0.88503 0.5745 0.0
C1810 C 0.36185 0.89519 0.61314 0.0
C1811 C 0.37826 0.89693 0.64488 0.0
H1812 H 0.62035 0.58732 0.42555 0.0
H1813 H 0.59105 0.61759 0.33075 0.0
H1814 H 0.62156 0.63179 0.32748 0.0
H1815 H 0.64955 0.61282 0.49611 0.0
H1816 H 0.67044 0.60127 0.50016 0.0
H1817 H 0.64599 0.59407 0.49678 0.0
H1818 H 0.65604 0.57933 0.41949 0.0
H1819 H 0.68048 0.58649 0.42258 0.0
H1820 H 0.66638 0.58804 0.36589 0.0
H1821 H 0.65666 0.64165 0.32976 0.0
H1822 H 0.69219 0.64643 0.33911 0.0
H1823 H 0.69732 0.61019 0.43632 0.0
C1824 C 0.62034 0.59697 0.40426 0.0
C1825 C 0.60336 0.60134 0.3783 0.0
C1826 C 0.60385 0.61412 0.3513 0.0
C1827 C 0.62113 0.62222 0.34911 0.0
C1828 C 0.63772 0.6175 0.37476 0.0
C1829 C 0.63733 0.60523 0.40226 0.0
C1830 C 0.6571 0.60228 0.42585 0.0
C1831 C 0.65568 0.60264 0.48312 0.0
C1832 C 0.66549 0.5882 0.40732 0.0
C1833 C 0.66886 0.61458 0.40629 0.0
C1834 C 0.65751 0.6233 0.37702 0.0
C1835 C 0.66561 0.63497 0.35316 0.0
C1836 C 0.68585 0.63765 0.35889 0.0
C1837 C 0.69782 0.62869 0.38829 0.0
C1838 C 0.6889 0.6172 0.41294 0.0
H1839 H 0.63907 0.64986 0.80676 0.0
H1840 H 0.61425 0.62956 0.93684 0.0
H1841 H 0.64417 0.61487 0.94445 0.0
H1842 H 0.66245 0.61889 0.75543 0.0
H1843 H 0.68345 0.62851 0.73291 0.0
H1844 H 0.65993 0.63705 0.73777 0.0
H1845 H 0.67551 0.65638 0.79338 0.0
H1846 H 0.69903 0.64785 0.78894 0.0
H1847 H 0.6885 0.65144 0.84932 0.0
H1848 H 0.67815 0.60335 0.93989 0.0
H1849 H 0.7115 0.59462 0.91906 0.0
H1850 H 0.71314 0.62236 0.79111 0.0
C1851 C 0.63992 0.64231 0.83682 0.0
C1852 C 0.62439 0.64088 0.87136 0.0
C1853 C 0.62593 0.63073 0.90976 0.0
C1854 C 0.64291 0.62243 0.91452 0.0
C1855 C 0.65812 0.62429 0.88023 0.0
C1856 C 0.65662 0.63388 0.84174 0.0
C1857 C 0.67483 0.63383 0.80939 0.0
C1858 C 0.66986 0.62929 0.7557 0.0
C1859 C 0.68507 0.64823 0.81034 0.0
C1860 C 0.68696 0.62282 0.83588 0.0
C1861 C 0.67719 0.61747 0.87685 0.0
C1862 C 0.68584 0.6074 0.90765 0.0
C1863 C 0.70482 0.60257 0.89579 0.0
C1864 C 0.71484 0.60772 0.85327 0.0
C1865 C 0.70573 0.61804 0.82334 0.0
H1866 H 0.4318 0.39399 0.59378 0.0
H1867 H 0.45311 0.37456 0.72922 0.0
H1868 H 0.4236 0.35911 0.73082 0.0
H1869 H 0.38168 0.39476 0.62422 0.0
H1870 H 0.37316 0.39073 0.56211 0.0
H1871 H 0.3963 0.39955 0.57082 0.0
H1872 H 0.41402 0.38011 0.52023 0.0
H1873 H 0.39088 0.37129 0.51089 0.0
H1874 H 0.41123 0.36201 0.53849 0.0
H1875 H 0.38964 0.34748 0.72059 0.0
H1876 H 0.35678 0.3388 0.69435 0.0
H1877 H 0.35932 0.36534 0.56348 0.0
C1878 C 0.43031 0.38636 0.62343 0.0
C1879 C 0.44456 0.38543 0.66153 0.0
C1880 C 0.44233 0.3753 0.69961 0.0
C1881 C 0.42559 0.36659 0.70087 0.0
C1882 C 0.41151 0.36802 0.66321 0.0
C1883 C 0.41397 0.37749 0.62468 0.0
C1884 C 0.39689 0.37709 0.58857 0.0
C1885 C 0.38639 0.39138 0.58634 0.0
C1886 C 0.40366 0.37234 0.53647 0.0
C1887 C 0.38415 0.36609 0.61312 0.0
C1888 C 0.39268 0.36102 0.65634 0.0
C1889 C 0.38301 0.35125 0.68644 0.0
C1890 C 0.36433 0.34645 0.67152 0.0
C1891 C 0.35567 0.35129 0.62667 0.0
C1892 C 0.36577 0.36126 0.59741 0.0
H1893 H 0.36525 0.40156 0.20173 0.0
H1894 H 0.3399 0.37854 0.0779 0.0
H1895 H 0.37 0.36391 0.0726 0.0
H1896 H 0.41482 0.40219 0.15861 0.0
H1897 H 0.42541 0.3997 0.21964 0.0
H1898 H 0.40194 0.40824 0.21334 0.0
H1899 H 0.38624 0.39007 0.2732 0.0
H1900 H 0.4097 0.38156 0.28003 0.0
H1901 H 0.38862 0.3716 0.25974 0.0
H1902 H 0.40418 0.35266 0.07873 0.0
H1903 H 0.43732 0.34397 0.10235 0.0
H1904 H 0.43904 0.37376 0.22453 0.0
C1905 C 0.36606 0.39342 0.17358 0.0
C1906 C 0.35033 0.39119 0.14006 0.0
C1907 C 0.35176 0.38032 0.10412 0.0
C1908 C 0.36884 0.37205 0.10065 0.0
C1909 C 0.38423 0.37467 0.13388 0.0
C1910 C 0.38281 0.38495 0.1702 0.0
C1911 C 0.40106 0.38543 0.20248 0.0
C1912 C 0.41141 0.39974 0.19824 0.0
C1913 C 0.39611 0.38195 0.25709 0.0
C1914 C 0.4131 0.3739 0.17854 0.0
C1915 C 0.40331 0.36789 0.13863 0.0
C1916 C 0.41187 0.35723 0.11017 0.0
C1917 C 0.43072 0.35242 0.12354 0.0
C1918 C 0.44062 0.35813 0.16538 0.0
C1919 C 0.43168 0.36909 0.19273 0.0
H1920 H 0.03366 0.96218 0.45475 0.0
H1921 H 1.00375 0.96731 0.59707 0.0
H1922 H 1.00281 0.9928 0.58398 0.0
H1923 H 0.06513 0.99251 0.47201 0.0
H1924 H 0.06501 -0.00316 0.40656 0.0
H1925 H 0.06235 0.97884 0.42591 0.0
H1926 H 0.02981 0.97697 0.37586 0.0
H1927 H 0.03235 0.99496 0.35646 0.0
H1928 H 1.01033 0.98933 0.38797 0.0
H1929 H 1.00383 0.01788 0.55314 0.0
H1930 H 1.00831 0.04035 0.50896 0.0
H1931 H 0.04245 0.01878 0.39518 0.0
C1932 C 0.02711 0.96856 0.48372 0.0
C1933 C 1.01851 0.96249 0.5266 0.0
C1934 C 1.00987 0.97147 0.56291 0.0
C1935 C 1.00947 0.98605 0.55623 0.0
C1936 C 1.01819 0.9916 0.5137 0.0
C1937 C 0.02709 0.98313 0.47846 0.0
C1938 C 0.03602 0.9917 0.43687 0.0
C1939 C 0.05846 0.98986 0.43528 0.0
C1940 C 0.02655 0.98802 0.38632 0.0
C1941 C 0.03041 0.0063 0.45377 0.0
C1942 C 1.02 0.00605 0.49791 0.0
C1943 C 1.01227 0.01824 0.51894 0.0
C1944 C 1.01504 0.031 0.49371 0.0
C1945 C 0.02571 0.03147 0.44826 0.0
C1946 C 0.03385 0.01891 0.4291 0.0
H1947 H 0.25668 0.22167 0.3996 0.0
H1948 H 0.24961 0.19985 0.54051 0.0
H1949 H 0.25192 0.22248 0.58536 0.0
H1950 H 0.29197 0.24518 0.43912 0.0
H1951 H 0.28314 0.25996 0.40368 0.0
H1952 H 0.2785 0.24238 0.38198 0.0
H1953 H 0.24109 0.24734 0.37991 0.0
H1954 H 0.24561 0.26503 0.40097 0.0
H1955 H 0.22905 0.25385 0.43519 0.0
H1956 H 0.25856 0.24685 0.61492 0.0
H1957 H 0.26734 0.27174 0.62756 0.0
H1958 H 0.26949 0.27784 0.46725 0.0
C1959 C 0.25493 0.22168 0.43976 0.0
C1960 C 0.25282 0.20902 0.46662 0.0
C1961 C 0.25127 0.20944 0.51929 0.0
C1962 C 0.25249 0.22223 0.54501 0.0
C1963 C 0.25512 0.23448 0.51743 0.0
C1964 C 0.25609 0.23434 0.46595 0.0
C1965 C 0.26024 0.24885 0.4454 0.0
C1966 C 0.27962 0.2491 0.41582 0.0
C1967 C 0.24296 0.25407 0.41349 0.0
C1968 C 0.26196 0.25711 0.49347 0.0
C1969 C 0.25887 0.24862 0.53454 0.0
C1970 C 0.26078 0.25364 0.58308 0.0
C1971 C 0.26594 0.26774 0.58986 0.0
C1972 C 0.26915 0.27663 0.54832 0.0
C1973 C 0.26694 0.27126 0.49955 0.0
H1974 H 1.00964 0.27301 0.68568 0.0
H1975 H 1.00515 0.28468 0.84193 0.0
H1976 H 1.00686 0.25964 0.86549 0.0
H1977 H 0.98052 0.24048 0.69393 0.0
H1978 H 0.99594 0.23141 0.64975 0.0
H1979 H 0.99276 0.25015 0.64524 0.0
H1980 H 0.03053 0.25345 0.64907 0.0
H1981 H 0.03384 0.23476 0.65418 0.0
H1982 H 0.04407 0.24627 0.70095 0.0
H1983 H 1.01149 0.23379 0.87216 0.0
H1984 H 1.01736 0.20842 0.86187 0.0
H1985 H 1.01839 0.21348 0.70097 0.0
C1986 C 1.00846 0.27028 0.72479 0.0
C1987 C 1.00713 0.28075 0.76205 0.0
C1988 C 1.00624 0.2768 0.81289 0.0
C1989 C 1.00712 0.26263 0.82656 0.0
C1990 C 1.00882 0.2526 0.78889 0.0
C1991 C 1.00931 0.25622 0.73903 0.0
C1992 C 1.01213 0.24346 0.70603 0.0
C1993 C 0.99427 0.24124 0.67172 0.0
C1994 C 0.03128 0.24456 0.67579 0.0
C1995 C 1.01345 0.2321 0.74521 0.0
C1996 C 1.01148 0.23762 0.79273 0.0
C1997 C 1.01294 0.22933 0.83519 0.0
C1998 C 1.01645 0.21498 0.82895 0.0
C1999 C 1.01849 0.20908 0.78063 0.0
C2000 C 1.01681 0.21775 0.73825 0.0
H2001 H 0.28918 0.97849 0.69225 0.0
H2002 H 0.23621 0.95795 0.74531 0.0
H2003 H 0.22284 0.98098 0.77084 0.0
H2004 H 0.29186 0.0054 0.78637 0.0
H2005 H 0.30035 0.01855 0.74314 0.0
H2006 H 0.30597 0.00033 0.73236 0.0
H2007 H 0.29015 0.00202 0.64447 0.0
H2008 H 0.2842 0.02019 0.65531 0.0
H2009 H 0.2651 0.00793 0.63856 0.0
H2010 H 0.21518 0.00655 0.78942 0.0
H2011 H 0.21455 0.03236 0.80188 0.0
H2012 H 0.2716 0.0357 0.73105 0.0
C2013 C 0.27475 0.97878 0.70922 0.0
C2014 C 0.26377 0.96639 0.71679 0.0
C2015 C 0.24507 0.96727 0.73985 0.0
C2016 C 0.23725 0.98031 0.75399 0.0
C2017 C 0.24828 0.99235 0.74457 0.0
C2018 C 0.26666 0.99166 0.72288 0.0
C2019 C 0.27547 0.00608 0.71584 0.0
C2020 C 0.29453 0.00768 0.74625 0.0
C2021 C 0.27892 0.00924 0.66024 0.0
C2022 C 0.25917 0.01504 0.7369 0.0
C2023 C 0.24361 0.00697 0.75351 0.0
C2024 C 0.22722 0.01298 0.77622 0.0
C2025 C 0.22694 0.0276 0.78301 0.0
C2026 C 0.24287 0.03597 0.7666 0.0
C2027 C 0.25899 0.02958 0.74266 0.0
H2028 H 0.78492 0.71364 0.43973 0.0
H2029 H 0.72191 0.71049 0.41691 0.0
H2030 H 0.71891 0.73615 0.42979 0.0
H2031 H 0.78259 0.73773 0.53955 0.0
H2032 H 0.8046 0.74695 0.52155 0.0
H2033 H 0.8017 0.72871 0.5058 0.0
H2034 H 0.80749 0.73459 0.41248 0.0
H2035 H 0.81024 0.7529 0.42793 0.0
H2036 H 0.79223 0.74752 0.38237 0.0
H2037 H 0.72293 0.76218 0.44962 0.0
H2038 H 0.73327 0.78568 0.47989 0.0
H2039 H 0.79327 0.77091 0.49253 0.0
C2040 C 0.7704 0.71825 0.43782 0.0
C2041 C 0.75361 0.71 0.42771 0.0
C2042 C 0.73501 0.71661 0.42429 0.0
C2043 C 0.73317 0.73116 0.43157 0.0
C2044 C 0.75007 0.73893 0.44205 0.0
C2045 C 0.7683 0.73264 0.44535 0.0
C2046 C 0.78409 0.74302 0.45992 0.0
C2047 C 0.7938 0.73885 0.50965 0.0
C2048 C 0.79941 0.7446 0.41817 0.0
C2049 C 0.77186 0.75614 0.46539 0.0
C2050 C 0.75232 0.75368 0.45418 0.0
C2051 C 0.73821 0.76424 0.45812 0.0
C2052 C 0.7442 0.77754 0.47505 0.0
C2053 C 0.76404 0.78002 0.48834 0.0
C2054 C 0.77802 0.76925 0.48253 0.0
H2055 H 1.02426 0.71491 0.25462 0.0
H2056 H 1.00028 0.72281 0.40215 0.0
H2057 H 0.9965 0.74787 0.38127 0.0
H2058 H 0.05135 0.74654 0.2434 0.0
H2059 H 0.04607 0.7489 0.17802 0.0
H2060 H 0.04663 0.73151 0.20417 0.0
H2061 H 1.01126 0.72693 0.17204 0.0
H2062 H 1.01065 0.74427 0.14543 0.0
H2063 H 0.99186 0.73891 0.18878 0.0
H2064 H 0.99647 0.77225 0.34537 0.0
H2065 H 0.99823 0.79392 0.29474 0.0
H2066 H 1.02129 0.76985 0.17034 0.0
C2067 C 1.01792 0.72184 0.28231 0.0
C2068 C 1.01271 0.71689 0.33016 0.0
C2069 C 1.00473 0.72639 0.36553 0.0
C2070 C 1.00242 0.74064 0.35397 0.0
C2071 C 1.00802 0.7452 0.30676 0.0
C2072 C 1.01542 0.73607 0.27132 0.0
C2073 C 1.02034 0.74365 0.22337 0.0
C2074 C 0.04241 0.74259 0.21158 0.0
C2075 C 1.00777 0.73811 0.17984 0.0
C2076 C 1.01463 0.75847 0.23747 0.0
C2077 C 1.00764 0.75917 0.28579 0.0
C2078 C 1.00182 0.77183 0.30738 0.0
C2079 C 1.00298 0.78407 0.27854 0.0
C2080 C 1.00978 0.78352 0.22866 0.0
C2081 C 1.01576 0.77054 0.20815 0.0
H2082 H 0.74954 0.96935 0.21974 0.0
H2083 H 0.79355 0.97021 0.10273 0.0
H2084 H 0.80147 0.99477 0.12402 0.0
H2085 H 0.73255 0.00517 0.2017 0.0
H2086 H 0.72879 0.00831 0.26736 0.0
H2087 H 0.72639 0.99081 0.24251 0.0
H2088 H 0.7522 0.9819 0.30616 0.0
H2089 H 0.75476 -0.00062 0.33101 0.0
H2090 H 0.77606 0.9901 0.30856 0.0
H2091 H 0.80581 0.01871 0.16038 0.0
H2092 H 0.80501 0.04109 0.20648 0.0
H2093 H 0.75685 0.02528 0.29689 0.0
C2094 C 0.76078 0.97475 0.19861 0.0
C2095 C 0.77085 0.96794 0.15939 0.0
C2096 C 0.78545 0.97533 0.1324 0.0
C2097 C 0.79014 0.98924 0.14441 0.0
C2098 C 0.78001 0.99565 0.18329 0.0
C2099 C 0.76551 0.98873 0.20973 0.0
C2100 C 0.75678 -0.00185 0.24954 0.0
C2101 C 0.73483 0.00076 0.23966 0.0
C2102 C 0.76016 0.99201 0.30191 0.0
C2103 C 0.76879 0.01135 0.24162 0.0
C2104 C 0.78216 0.00966 0.20338 0.0
C2105 C 0.79523 0.02025 0.19 0.0
C2106 C 0.79455 0.03298 0.21624 0.0
C2107 C 0.78076 0.03508 0.25518 0.0
C2108 C 0.76773 0.02404 0.26777 0.0
H2109 H 0.02981 0.4641 0.02397 0.0
H2110 H 0.05159 0.4685 0.17558 0.0
H2111 H 0.06 0.49319 0.1591 0.0
H2112 H 0.06763 0.48705 0.96641 0.0
H2113 H 0.05049 0.49415 0.9218 0.0
H2114 H 0.04741 0.47648 0.94441 0.0
H2115 H 1.01197 0.48253 0.97235 0.0
H2116 H 1.015 0.50024 0.95034 0.0
H2117 H 1.00801 0.49709 0.01422 0.0
H2118 H 0.06257 0.51792 0.12981 0.0
H2119 H 0.06226 0.54077 0.08576 0.0
H2120 H 0.04101 0.52014 0.95188 0.0
C2121 C 0.03676 0.47016 0.05329 0.0
C2122 C 0.03974 0.46443 0.10127 0.0
C2123 C 0.04872 0.47276 0.13884 0.0
C2124 C 0.0537 0.48677 0.1298 0.0
C2125 C 0.04994 0.49225 0.08271 0.0
C2126 C 0.04201 0.48417 0.04475 0.0
C2127 C 0.03902 0.4928 0.99794 0.0
C2128 C 0.05191 0.48729 0.95511 0.0
C2129 C 1.0172 0.49318 0.98286 0.0
C2130 C 0.04602 0.50702 0.01606 0.0
C2131 C 0.05223 0.50647 0.06512 0.0
C2132 C 0.05811 0.51846 0.09109 0.0
C2133 C 0.05779 0.53136 0.06604 0.0
C2134 C 0.05184 0.53206 0.01558 0.0
C2135 C 0.04596 0.51975 0.99029 0.0
H2136 H 0.26506 0.71124 0.03024 0.0
H2137 H 0.27918 0.71617 0.87333 0.0
H2138 H 0.27568 0.74181 0.88133 0.0
H2139 H 0.22852 0.73926 0.03512 0.0
H2140 H 0.23557 0.74492 0.09682 0.0
H2141 H 0.23865 0.72682 0.07876 0.0
H2142 H 0.2756 0.7282 0.10172 0.0
H2143 H 0.27263 0.74628 0.11987 0.0
H2144 H 0.29073 0.74158 0.07373 0.0
H2145 H 0.27267 0.76673 0.90673 0.0
H2146 H 0.26976 0.78968 0.94783 0.0
H2147 H 0.25535 0.76888 0.08749 0.0
C2148 C 0.26735 0.71776 0.99769 0.0
C2149 C 0.27223 0.71176 0.95109 0.0
C2150 C 0.27513 0.72057 0.90918 0.0
C2151 C 0.27324 0.73513 0.91336 0.0
C2152 C 0.26832 0.74073 0.95964 0.0
C2153 C 0.2653 0.73236 0.00105 0.0
C2154 C 0.26033 0.74117 0.04645 0.0
C2155 C 0.23953 0.73784 0.06539 0.0
C2156 C 0.27575 0.73919 0.08788 0.0
C2157 C 0.26141 0.75576 0.02415 0.0
C2158 C 0.26602 0.75523 0.97404 0.0
C2159 C 0.26873 0.76731 0.9458 0.0
C2160 C 0.26686 0.78034 0.96951 0.0
C2161 C 0.26212 0.78123 0.02098 0.0
C2162 C 0.25914 0.76868 0.04828 0.0
H2163 H 0.25429 0.53528 0.2263 0.0
H2164 H 0.26297 0.52925 0.38546 0.0
H2165 H 0.26435 0.50372 0.37275 0.0
H2166 H 0.224 0.50409 0.20613 0.0
H2167 H 0.23478 0.50019 0.14628 0.0
H2168 H 0.23345 0.51809 0.16784 0.0
H2169 H 0.27107 0.52066 0.15614 0.0
H2170 H 0.27253 0.50275 0.13479 0.0
H2171 H 0.28734 0.50848 0.18679 0.0
H2172 H 0.26674 0.47919 0.34339 0.0
H2173 H 0.26891 0.45666 0.29888 0.0
H2174 H 0.25796 0.47805 0.15842 0.0
C2175 C 0.25636 0.52857 0.25844 0.0
C2176 C 0.25825 0.53427 0.30697 0.0
C2177 C 0.261 0.52513 0.34809 0.0
C2178 C 0.26196 0.5106 0.34126 0.0
C2179 C 0.26013 0.50533 0.29307 0.0
C2180 C 0.25729 0.51397 0.25233 0.0
C2181 C 0.25616 0.50548 0.20447 0.0
C2182 C 0.23589 0.50706 0.17973 0.0
C2183 C 0.27277 0.50959 0.16843 0.0
C2184 C 0.25909 0.49079 0.2248 0.0
C2185 C 0.26132 0.49099 0.27601 0.0
C2186 C 0.26474 0.47884 0.30334 0.0
C2187 C 0.26582 0.46607 0.27767 0.0
C2188 C 0.26338 0.4655 0.22514 0.0
C2189 C 0.25998 0.47809 0.1985 0.0
H2190 H 0.78337 0.21746 0.97584 0.0
H2191 H 0.71983 0.21378 0.98002 0.0
H2192 H 0.7172 0.23914 -0.00177 0.0
H2193 H 0.78767 0.24338 0.07642 0.0
H2194 H 0.80756 0.25253 0.04627 0.0
H2195 H 0.80435 0.23397 0.03622 0.0
H2196 H 0.80313 0.23824 0.94076 0.0
H2197 H 0.80601 0.25683 0.95052 0.0
H2198 H 0.78529 0.25029 0.91558 0.0
H2199 H 0.72139 0.26485 0.01211 0.0
H2200 H 0.7321 0.28916 0.0275 0.0
H2201 H 0.79302 0.27623 0.01329 0.0
C2202 C 0.76893 0.22193 0.98179 0.0
C2203 C 0.75179 0.21369 0.9767 0.0
C2204 C 0.73313 0.21996 0.98357 0.0
C2205 C 0.7315 0.23432 0.9939 0.0
C2206 C 0.74867 0.24222 0.9973 0.0
C2207 C 0.76704 0.23625 0.99202 0.0
C2208 C 0.78314 0.24716 0.99649 0.0
C2209 C 0.79646 0.24408 0.04154 0.0
C2210 C 0.79509 0.24818 0.94794 0.0
C2211 C 0.77092 0.26021 0.00487 0.0
C2212 C 0.75108 0.25712 0.00504 0.0
C2213 C 0.73688 0.26742 0.01202 0.0
C2214 C 0.74312 0.28123 0.02011 0.0
C2215 C 0.76341 0.28463 0.02107 0.0
C2216 C 0.77743 0.27395 0.01282 0.0
H2217 H 0.76336 0.52697 0.74589 0.0
H2218 H 0.82612 0.53407 0.76095 0.0
H2219 H 0.83228 0.50908 0.74335 0.0
H2220 H 0.76251 0.49425 0.80749 0.0
H2221 H 0.74419 0.48646 0.76745 0.0
H2222 H 0.74457 0.50518 0.7769 0.0
H2223 H 0.74698 0.50917 0.68142 0.0
H2224 H 0.74627 0.49047 0.67161 0.0
H2225 H 0.76626 0.50068 0.64657 0.0
H2226 H 0.8316 0.48321 0.73006 0.0
H2227 H 0.82421 0.4582 0.7148 0.0
H2228 H 0.76191 0.4678 0.70937 0.0
C2229 C 0.7784 0.52329 0.74494 0.0
C2230 C 0.79426 0.5325 0.75439 0.0
C2231 C 0.81375 0.5273 0.75275 0.0
C2232 C 0.8174 0.51308 0.74333 0.0
C2233 C 0.80141 0.50424 0.7356 0.0
C2234 C 0.78231 0.50914 0.73572 0.0
C2235 C 0.76776 0.49733 0.72748 0.0
C2236 C 0.75395 0.49572 0.77252 0.0
C2237 C 0.75614 0.49955 0.67887 0.0
C2238 C 0.78168 0.48502 0.72324 0.0
C2239 C 0.80101 0.48924 0.72809 0.0
C2240 C 0.81654 0.47977 0.72579 0.0
C2241 C 0.8122 0.46562 0.71713 0.0
C2242 C 0.79251 0.4611 0.71084 0.0
C2243 C 0.77708 0.47093 0.71465 0.0
H2244 H 0.53364 0.0219 0.99576 0.0
H2245 H 0.47273 0.03518 0.98857 0.0
H2246 H 0.46222 0.01174 0.01756 0.0
H2247 H 0.52608 0.98897 0.94455 0.0
H2248 H 0.54402 0.98008 0.98257 0.0
H2249 H 0.54692 -0.00156 0.96903 0.0
H2250 H 0.54847 0.00414 0.06362 0.0
H2251 H 0.54586 0.98573 0.07752 0.0
H2252 H 0.52896 -0.00175 0.10398 0.0
H2253 H 0.45836 0.98597 0.03951 0.0
H2254 H 0.46174 0.96037 0.05429 0.0
H2255 H 0.52506 0.96429 0.04302 0.0
C2256 C 0.51809 0.01996 0.00095 0.0
C2257 C 0.50402 0.03037 0.99002 0.0
C2258 C 0.48381 0.02743 0.99753 0.0
C2259 C 0.47769 0.01412 0.01367 0.0
C2260 C 0.49197 0.00393 0.02227 0.0
C2261 C 0.51176 0.00676 0.01655 0.0
C2262 C 0.52414 0.99381 0.02452 0.0
C2263 C 0.53597 0.99011 0.97736 0.0
C2264 C 0.53765 0.99559 0.07014 0.0
C2265 C 0.50821 0.98314 0.03429 0.0
C2266 C 0.48974 0.98915 0.03351 0.0
C2267 C 0.47277 0.98118 0.04055 0.0
C2268 C 0.47479 0.96669 0.04877 0.0
C2269 C 0.49362 0.96039 0.04906 0.0
C2270 C 0.51046 0.96879 0.04202 0.0
H2271 H 0.53271 0.21612 0.31768 0.0
H2272 H 0.48011 0.19938 0.24803 0.0
H2273 H 0.47022 0.22343 0.22372 0.0
H2274 H 0.51123 0.24762 0.36691 0.0
H2275 H 0.53251 0.25832 0.35443 0.0
H2276 H 0.53536 0.23983 0.36644 0.0
H2277 H 0.5537 0.23676 0.28238 0.0
H2278 H 0.55109 0.25525 0.27038 0.0
H2279 H 0.54221 0.24263 0.22548 0.0
H2280 H 0.46584 0.24942 0.20897 0.0
H2281 H 0.46854 0.27509 0.1985 0.0
H2282 H 0.52467 0.27455 0.27568 0.0
C2283 C 0.51908 0.21753 0.29743 0.0
C2284 C 0.50711 0.20593 0.28482 0.0
C2285 C 0.48954 0.20814 0.25768 0.0
C2286 C 0.48374 0.22175 0.24409 0.0
C2287 C 0.49578 0.23298 0.25769 0.0
C2288 C 0.51318 0.23099 0.28329 0.0
C2289 C 0.52376 0.24475 0.29219 0.0
C2290 C 0.52583 0.24781 0.34833 0.0
C2291 C 0.54388 0.24485 0.26603 0.0
C2292 C 0.50958 0.25484 0.26767 0.0
C2293 C 0.49346 0.24787 0.24832 0.0
C2294 C 0.47845 0.25498 0.22371 0.0
C2295 C 0.48017 0.26955 0.2178 0.0
C2296 C 0.49686 0.27688 0.23604 0.0
C2297 C 0.51158 0.26936 0.26191 0.0
H2298 H 0.53273 0.71704 0.73731 0.0
H2299 H 0.51801 0.72071 0.89431 0.0
H2300 H 0.50965 0.74563 0.88232 0.0
H2301 H 0.55574 0.74915 0.72552 0.0
H2302 H 0.54656 0.75321 0.6641 0.0
H2303 H 0.54909 0.7352 0.68314 0.0
H2304 H 0.51233 0.73068 0.66359 0.0
H2305 H 0.50972 0.74867 0.64388 0.0
H2306 H 0.49387 0.74171 0.69169 0.0
H2307 H 0.50753 0.77065 0.85647 0.0
H2308 H 0.50863 0.79396 0.81549 0.0
H2309 H 0.523 0.77393 0.67483 0.0
C2310 C 0.5272 0.723 0.76873 0.0
C2311 C 0.5262 0.71703 0.81677 0.0
C2312 C 0.51918 0.72519 0.8573 0.0
C2313 C 0.51428 0.73931 0.85085 0.0
C2314 C 0.51618 0.74506 0.80347 0.0
C2315 C 0.52213 0.73714 0.76287 0.0
C2316 C 0.52396 0.74612 0.71658 0.0
C2317 C 0.54509 0.7459 0.69617 0.0
C2318 C 0.50908 0.74152 0.67658 0.0
C2319 C 0.51876 0.76035 0.73799 0.0
C2320 C 0.51427 0.75951 0.78816 0.0
C2321 C 0.51056 0.77144 0.81693 0.0
C2322 C 0.51133 0.78459 0.79361 0.0
C2323 C 0.51561 0.78559 0.74216 0.0
C2324 C 0.51926 0.77333 0.71406 0.0
H2325 H 0.52845 0.52888 0.51294 0.0
H2326 H 0.49676 0.52188 0.37439 0.0
H2327 H 0.49466 0.4966 0.39345 0.0
H2328 H 0.5566 0.49754 0.51054 0.0
H2329 H 0.55509 0.49449 0.5768 0.0
H2330 H 0.55382 0.51212 0.55291 0.0
H2331 H 0.52052 0.51591 0.59779 0.0
H2332 H 0.52178 0.49834 0.62226 0.0
H2333 H 0.50063 0.50378 0.5867 0.0
H2334 H 0.49698 0.47198 0.42614 0.0
H2335 H 0.50145 0.44995 0.47355 0.0
H2336 H 0.53104 0.47316 0.59115 0.0
C2337 C 0.52079 0.52208 0.48699 0.0
C2338 C 0.5129 0.52735 0.44201 0.0
C2339 C 0.50321 0.51805 0.4087 0.0
C2340 C 0.50187 0.50368 0.41926 0.0
C2341 C 0.51017 0.49879 0.46341 0.0
C2342 C 0.51926 0.50772 0.49699 0.0
C2343 C 0.52698 0.49978 0.54176 0.0
C2344 C 0.54946 0.50106 0.5457 0.0
C2345 C 0.51687 0.50475 0.58997 0.0
C2346 C 0.52084 0.48501 0.52802 0.0
C2347 C 0.51126 0.48464 0.48257 0.0
C2348 C 0.5044 0.47213 0.46187 0.0
C2349 C 0.50713 0.45967 0.48883 0.0
C2350 C 0.51652 0.45988 0.536 0.0
C2351 C 0.52361 0.47272 0.55544 0.0
H2352 H 0.95123 0.09425 0.35157 0.0
H2353 H 0.9491 0.05357 0.27917 0.0
H2354 H 0.91361 0.0519 0.29689 0.0
H2355 H 0.9139 0.08661 0.44938 0.0
H2356 H 0.90358 0.104 0.44611 0.0
H2357 H 0.92925 0.1013 0.43281 0.0
H2358 H 0.92476 0.1132 0.34673 0.0
H2359 H 0.89909 0.11587 0.35963 0.0
H2360 H 0.90645 0.10654 0.30414 0.0
H2361 H 0.87772 0.05547 0.31593 0.0
H2362 H 0.84432 0.06428 0.33362 0.0
H2363 H 0.86948 0.10252 0.3947 0.0
C2364 C 0.94334 0.08487 0.34062 0.0
C2365 C 0.95294 0.07403 0.31401 0.0
C2366 C 0.94202 0.06204 0.29925 0.0
C2367 C 0.92186 0.06095 0.30941 0.0
C2368 C 0.91269 0.07195 0.33452 0.0
C2369 C 0.92307 0.08367 0.35015 0.0
C2370 C 0.90936 0.09441 0.37329 0.0
C2371 C 0.91432 0.09671 0.4287 0.0
C2372 C 0.90996 0.10832 0.3442 0.0
C2373 C 0.88969 0.08705 0.36709 0.0
C2374 C 0.89195 0.07404 0.3452 0.0
C2375 C 0.87579 0.06558 0.33368 0.0
C2376 C 0.85682 0.07065 0.34409 0.0
C2377 C 0.85407 0.08412 0.36552 0.0
C2378 C 0.8709 0.09224 0.3779 0.0
H2379 H 0.43663 0.13341 0.33343 0.0
H2380 H 0.45829 0.16525 0.43574 0.0
H2381 H 0.42426 0.17311 0.45069 0.0
H2382 H 0.39881 0.15397 0.27899 0.0
H2383 H 0.38159 0.13967 0.27349 0.0
H2384 H 0.40758 0.13622 0.27231 0.0
H2385 H 0.40358 0.11883 0.34582 0.0
H2386 H 0.37756 0.1223 0.34743 0.0
H2387 H 0.3922 0.1247 0.40288 0.0
H2388 H 0.38807 0.17807 0.45235 0.0
H2389 H 0.35239 0.18049 0.43784 0.0
H2390 H 0.35374 0.14512 0.33618 0.0
C2391 C 0.43427 0.14191 0.35956 0.0
C2392 C 0.4503 0.14866 0.38354 0.0
C2393 C 0.44641 0.15997 0.41652 0.0
C2394 C 0.42707 0.16443 0.42559 0.0
C2395 C 0.41168 0.15749 0.40153 0.0
C2396 C 0.41505 0.14649 0.36908 0.0
C2397 C 0.39594 0.14116 0.34654 0.0
C2398 C 0.39599 0.14286 0.28945 0.0
C2399 C 0.3921 0.12584 0.36158 0.0
C2400 C 0.38128 0.151 0.37097 0.0
C2401 C 0.39072 0.16028 0.40277 0.0
C2402 C 0.38053 0.1708 0.42788 0.0
C2403 C 0.36029 0.17209 0.41944 0.0
C2404 C 0.35032 0.16292 0.3863 0.0
C2405 C 0.36093 0.15205 0.36252 0.0
H2406 H 0.93308 0.17512 0.82985 0.0
H2407 H 0.93991 0.13111 0.86667 0.0
H2408 H 0.90385 0.1278 0.85831 0.0
H2409 H 0.88906 0.18103 0.89644 0.0
H2410 H 0.87893 0.1928 0.85056 0.0
H2411 H 0.90513 0.19129 0.8574 0.0
H2412 H 0.90821 0.18509 0.76346 0.0
H2413 H 0.88196 0.18652 0.75639 0.0
H2414 H 0.89433 0.17058 0.73838 0.0
H2415 H 0.86654 0.13001 0.85072 0.0
H2416 H 0.832 0.13716 0.84524 0.0
H2417 H 0.85044 0.17971 0.80979 0.0
C2418 C 0.92703 0.16479 0.83653 0.0
C2419 C 0.93927 0.15338 0.84956 0.0
C2420 C 0.93078 0.13996 0.85667 0.0
C2421 C 0.91035 0.13802 0.852 0.0
C2422 C 0.89871 0.14956 0.83946 0.0
C2423 C 0.90682 0.16266 0.83155 0.0
C2424 C 0.89127 0.17345 0.81925 0.0
C2425 C 0.89109 0.18534 0.85824 0.0
C2426 C 0.89411 0.17925 0.76621 0.0
C2427 C 0.87297 0.16449 0.82263 0.0
C2428 C 0.87751 0.15074 0.83405 0.0
C2429 C 0.86287 0.14073 0.84129 0.0
C2430 C 0.84314 0.14496 0.83785 0.0
C2431 C 0.83807 0.15913 0.82726 0.0
C2432 C 0.85343 0.16885 0.81839 0.0
H2433 H 0.3518 0.06097 0.84487 0.0
H2434 H 0.34155 0.10373 0.89439 0.0
H2435 H 0.37729 0.1083 0.89189 0.0
H2436 H 0.39685 0.05542 0.91484 0.0
H2437 H 0.40798 0.04511 0.86599 0.0
H2438 H 0.38167 0.04521 0.87318 0.0
H2439 H 0.37782 0.05303 0.78108 0.0
H2440 H 0.4041 0.05304 0.77369 0.0
H2441 H 0.3902 0.06865 0.75991 0.0
H2442 H 0.41445 0.10822 0.88253 0.0
H2443 H 0.44961 0.10351 0.86633 0.0
H2444 H 0.43513 0.06074 0.82411 0.0
C2445 C 0.35704 0.07124 0.85595 0.0
C2446 C 0.3438 0.08198 0.86991 0.0
C2447 C 0.35134 0.09536 0.88309 0.0
C2448 C 0.37164 0.09804 0.88204 0.0
C2449 C 0.38424 0.08724 0.86771 0.0
C2450 C 0.37721 0.0741 0.85499 0.0
C2451 C 0.39373 0.06436 0.83984 0.0
C2452 C 0.39514 0.05178 0.8756 0.0
C2453 C 0.39131 0.05949 0.7854 0.0
C2454 C 0.41118 0.07408 0.84567 0.0
C2455 C 0.40546 0.08722 0.86201 0.0
C2456 C 0.41908 0.09794 0.86989 0.0
C2457 C 0.43904 0.09516 0.86078 0.0
C2458 C 0.44521 0.08177 0.84374 0.0
C2459 C 0.43097 0.07115 0.83633 0.0
H2460 H 0.19515 0.93002 0.60029 0.0
H2461 H 0.21115 0.88675 0.62818 0.0
H2462 H 0.17606 0.88102 0.64411 0.0
H2463 H 0.15673 0.93237 0.6942 0.0
H2464 H 0.14159 0.94354 0.6559 0.0
H2465 H 0.16793 0.94404 0.64961 0.0
H2466 H 0.16461 0.93874 0.55502 0.0
H2467 H 0.13829 0.93817 0.56104 0.0
H2468 H 0.15124 0.92338 0.53501 0.0
H2469 H 0.13813 0.88003 0.64992 0.0
H2470 H 0.10211 0.88422 0.65114 0.0
H2471 H 0.11231 0.92828 0.62056 0.0
C2472 C 0.1913 0.91934 0.60992 0.0
C2473 C 0.20582 0.90879 0.61264 0.0
C2474 C 0.20023 0.89499 0.62617 0.0
C2475 C 0.18035 0.89166 0.63502 0.0
C2476 C 0.16633 0.9023 0.63086 0.0
C2477 C 0.1717 0.91591 0.61924 0.0
C2478 C 0.15405 0.92549 0.61629 0.0
C2479 C 0.15515 0.93704 0.6564 0.0
C2480 C 0.15193 0.93181 0.56372 0.0
C2481 C 0.13777 0.91516 0.62724 0.0
C2482 C 0.145 0.90181 0.63548 0.0
C2483 C 0.13239 0.89049 0.6441 0.0
C2484 C 0.11197 0.89293 0.64448 0.0
C2485 C 0.10437 0.9066 0.63666 0.0
C2486 C 0.11759 0.91778 0.62798 0.0
H2487 H 0.69581 0.81267 0.62801 0.0
H2488 H 0.70839 0.85555 0.58498 0.0
H2489 H 0.67289 0.85941 0.56817 0.0
H2490 H 0.65711 0.80633 0.53637 0.0
H2491 H 0.64299 0.79568 0.57879 0.0
H2492 H 0.66936 0.79633 0.58421 0.0
H2493 H 0.6661 0.80396 0.67673 0.0
H2494 H 0.63975 0.80341 0.67157 0.0
H2495 H 0.65177 0.81928 0.69209 0.0
H2496 H 0.63523 0.85883 0.56339 0.0
H2497 H 0.5996 0.85345 0.56495 0.0
H2498 H 0.6126 0.81078 0.60997 0.0
C2499 C 0.69112 0.82286 0.61484 0.0
C2500 C 0.70479 0.83387 0.60814 0.0
C2501 C 0.69813 0.84698 0.59007 0.0
C2502 C 0.67802 0.84926 0.58069 0.0
C2503 C 0.66486 0.83823 0.5889 0.0
C2504 C 0.67125 0.82524 0.60494 0.0
C2505 C 0.65432 0.81513 0.61176 0.0
C2506 C 0.65605 0.80263 0.57562 0.0
C2507 C 0.65291 0.81016 0.66627 0.0
C2508 C 0.63725 0.8245 0.59804 0.0
C2509 C 0.64354 0.8378 0.58498 0.0
C2510 C 0.63021 0.8484 0.57304 0.0
C2511 C 0.61001 0.84529 0.57434 0.0
C2512 C 0.60332 0.83167 0.58722 0.0
C2513 C 0.61723 0.8212 0.59901 0.0
H2514 H 0.1756 0.84544 0.18003 0.0
H2515 H 0.19788 0.84147 0.02902 0.0
H2516 H 0.16383 0.84177 0.99688 0.0
H2517 H 0.13664 0.82229 0.16639 0.0
H2518 H 0.1197 0.8319 0.2052 0.0
H2519 H 0.14571 0.83348 0.21562 0.0
H2520 H 0.14326 0.86047 0.20589 0.0
H2521 H 0.11717 0.85897 0.19546 0.0
H2522 H 0.13242 0.86775 0.15025 0.0
H2523 H 0.12749 0.8391 0.98237 0.0
H2524 H 0.09178 0.83434 0.98639 0.0
H2525 H 0.0928 0.84029 0.14647 0.0
C2526 C 0.17339 0.84482 0.14011 0.0
C2527 C 0.18954 0.84341 0.10708 0.0
C2528 C 0.18588 0.84274 0.05508 0.0
C2529 C 0.16654 0.84285 0.0365 0.0
C2530 C 0.15099 0.84381 0.0703 0.0
C2531 C 0.15421 0.84493 0.12102 0.0
C2532 C 0.13499 0.84481 0.14978 0.0
C2533 C 0.13423 0.83238 0.18638 0.0
C2534 C 0.13177 0.85884 0.17694 0.0
C2535 C 0.12041 0.84294 0.10746 0.0
C2536 C 0.12996 0.84252 0.06186 0.0
C2537 C 0.11986 0.8397 0.01772 0.0
C2538 C 0.09962 0.83699 0.02031 0.0
C2539 C 0.0896 0.83719 0.06659 0.0
C2540 C 0.10007 0.84049 0.11056 0.0
H2541 H 0.67938 0.8931 0.05573 0.0
H2542 H 0.70277 0.91895 0.1754 0.0
H2543 H 0.66893 0.92414 0.2032 0.0
H2544 H 0.6401 0.9154 0.02418 0.0
H2545 H 0.62304 0.90145 0.01022 0.0
H2546 H 0.64902 0.89862 0.00285 0.0
H2547 H 0.64721 0.87716 0.06189 0.0
H2548 H 0.62117 0.87989 0.06929 0.0
H2549 H 0.63689 0.87922 0.12341 0.0
H2550 H 0.63238 0.92805 0.21362 0.0
H2551 H 0.59634 0.92979 0.20789 0.0
H2552 H 0.59664 0.90183 0.07996 0.0
C2553 C 0.67748 0.8998 0.08798 0.0
C2554 C 0.69392 0.90564 0.11323 0.0
C2555 C 0.69058 0.9142 0.15568 0.0
C2556 C 0.67135 0.91728 0.17159 0.0
C2557 C 0.65555 0.91165 0.14491 0.0
C2558 C 0.65843 0.903 0.10421 0.0
C2559 C 0.63901 0.89876 0.08061 0.0
C2560 C 0.63773 0.90387 0.02625 0.0
C2561 C 0.63589 0.88281 0.08402 0.0
C2562 C 0.62469 0.90659 0.11383 0.0
C2563 C 0.63455 0.91391 0.15082 0.0
C2564 C 0.62455 0.92231 0.18494 0.0
C2565 C 0.60403 0.92332 0.18109 0.0
C2566 C 0.59355 0.91601 0.14329 0.0
C2567 C 0.60413 0.90742 0.10958 0.0
H2568 H 0.95947 0.55888 0.87333 0.0
H2569 H 0.97242 0.60349 0.87279 0.0
H2570 H 0.93706 0.60866 0.88215 0.0
H2571 H 0.91479 0.56091 0.80198 0.0
H2572 H 0.90268 0.54727 0.83693 0.0
H2573 H 0.92902 0.54717 0.83076 0.0
H2574 H 0.93256 0.54663 0.92706 0.0
H2575 H 0.90622 0.5468 0.93353 0.0
H2576 H 0.92086 0.56005 0.96408 0.0
H2577 H 0.90003 0.60891 0.89035 0.0
H2578 H 0.86444 0.60421 0.89742 0.0
H2579 H 0.8759 0.55944 0.89142 0.0
C2580 C 0.95492 0.56974 0.8747 0.0
C2581 C 0.96881 0.58077 0.87228 0.0
C2582 C 0.96214 0.59485 0.87513 0.0
C2583 C 0.94205 0.59789 0.8802 0.0
C2584 C 0.9288 0.58675 0.8825 0.0
C2585 C 0.93497 0.57296 0.87986 0.0
C2586 C 0.91777 0.5629 0.88322 0.0
C2587 C 0.91596 0.55405 0.83537 0.0
C2588 C 0.91946 0.55354 0.92975 0.0
C2589 C 0.90093 0.57319 0.888 0.0
C2590 C 0.90757 0.58689 0.88747 0.0
C2591 C 0.89467 0.59821 0.89078 0.0
C2592 C 0.87447 0.59544 0.89453 0.0
C2593 C 0.86731 0.58145 0.89502 0.0
C2594 C 0.88085 0.57023 0.8919 0.0
H2595 H 0.37685 0.6802 0.88599 0.0
H2596 H 0.36631 0.6393 0.82019 0.0
H2597 H 0.40209 0.63434 0.82302 0.0
H2598 H 0.42305 0.68765 0.82383 0.0
H2599 H 0.43347 0.69608 0.87799 0.0
H2600 H 0.40731 0.6965 0.86786 0.0
H2601 H 0.40171 0.68561 0.9553 0.0
H2602 H 0.42783 0.68512 0.96564 0.0
H2603 H 0.41352 0.66926 0.9709 0.0
H2604 H 0.43959 0.63407 0.83419 0.0
H2605 H 0.4745 0.6379 0.85723 0.0
H2606 H 0.45948 0.67876 0.91738 0.0
C2607 C 0.38207 0.6703 0.87127 0.0
C2608 C 0.36881 0.66019 0.85225 0.0
C2609 C 0.37622 0.64718 0.83485 0.0
C2610 C 0.39651 0.64432 0.83614 0.0
C2611 C 0.40917 0.65454 0.85533 0.0
C2612 C 0.40214 0.66724 0.8728 0.0
C2613 C 0.4185 0.67623 0.89393 0.0
C2614 C 0.42071 0.68992 0.86411 0.0
C2615 C 0.41519 0.67923 0.94975 0.0
C2616 C 0.43589 0.66662 0.88592 0.0
C2617 C 0.43033 0.65421 0.86314 0.0
C2618 C 0.44404 0.64376 0.85204 0.0
C2619 C 0.46385 0.64604 0.86505 0.0
C2620 C 0.46969 0.65857 0.88946 0.0
C2621 C 0.45545 0.66898 0.89948 0.0
H2622 H 0.93444 0.64702 0.44486 0.0
H2623 H 0.95857 0.66295 0.30624 0.0
H2624 H 0.92492 0.66578 0.27297 0.0
H2625 H 0.89254 0.62828 0.39038 0.0
H2626 H 0.87643 0.63287 0.44118 0.0
H2627 H 0.90241 0.63096 0.45213 0.0
H2628 H 0.90367 0.65609 0.48915 0.0
H2629 H 0.87774 0.6581 0.47811 0.0
H2630 H 0.89482 0.67062 0.45248 0.0
H2631 H 0.88842 0.66874 0.25771 0.0
H2632 H 0.85227 0.67059 0.26003 0.0
H2633 H 0.85196 0.653 0.40921 0.0
C2634 C 0.93272 0.65102 0.40736 0.0
C2635 C 0.94927 0.65477 0.37823 0.0
C2636 C 0.94624 0.65983 0.32911 0.0
C2637 C 0.92713 0.66155 0.31001 0.0
C2638 C 0.91118 0.65808 0.34029 0.0
C2639 C 0.91379 0.65279 0.38778 0.0
C2640 C 0.89424 0.65035 0.41353 0.0
C2641 C 0.89123 0.63468 0.42496 0.0
C2642 C 0.89253 0.65933 0.46112 0.0
C2643 C 0.88017 0.65533 0.37347 0.0
C2644 C 0.89023 0.65971 0.33146 0.0
C2645 C 0.88042 0.66524 0.2903 0.0
C2646 C 0.85986 0.66636 0.29214 0.0
C2647 C 0.84921 0.66196 0.33484 0.0
C2648 C 0.85961 0.65627 0.3758 0.0
H2649 H 0.3506 0.59649 0.37535 0.0
H2650 H 0.34995 0.56998 0.50647 0.0
H2651 H 0.38622 0.57176 0.51221 0.0
H2652 H 0.39164 0.58111 0.32108 0.0
H2653 H 0.40134 0.59708 0.29481 0.0
H2654 H 0.37537 0.59538 0.30554 0.0
H2655 H 0.3758 0.61795 0.35949 0.0
H2656 H 0.40183 0.61976 0.34889 0.0
H2657 H 0.39243 0.61921 0.41173 0.0
H2658 H 0.42293 0.57501 0.49927 0.0
H2659 H 0.45657 0.57816 0.46582 0.0
H2660 H 0.43289 0.60205 0.34214 0.0
C2661 C 0.35806 0.59142 0.40612 0.0
C2662 C 0.3475 0.58326 0.44096 0.0
C2663 C 0.35782 0.57633 0.47962 0.0
C2664 C 0.37838 0.57735 0.48325 0.0
C2665 C 0.38841 0.58528 0.44772 0.0
C2666 C 0.37856 0.59216 0.4098 0.0
C2667 C 0.39278 0.59884 0.37345 0.0
C2668 C 0.39012 0.59273 0.32062 0.0
C2669 C 0.39058 0.61489 0.37342 0.0
C2670 C 0.41218 0.59441 0.39621 0.0
C2671 C 0.40942 0.58679 0.43947 0.0
C2672 C 0.42525 0.58109 0.46571 0.0
C2673 C 0.44433 0.58298 0.44663 0.0
C2674 C 0.44737 0.59033 0.40139 0.0
C2675 C 0.43104 0.59633 0.37669 0.0
H2676 H 0.111 0.3963 0.22531 0.0
H2677 H 0.08564 0.42113 0.10604 0.0
H2678 H 0.11873 0.42527 0.07158 0.0
H2679 H 0.15511 0.41685 0.24268 0.0
H2680 H 0.17093 0.40196 0.25284 0.0
H2681 H 0.14529 0.40094 0.26916 0.0
H2682 H 0.14125 0.37893 0.21324 0.0
H2683 H 0.1669 0.37982 0.19707 0.0
H2684 H 0.14851 0.37974 0.14862 0.0
H2685 H 0.15397 0.42772 0.05222 0.0
H2686 H 0.1896 0.4263 0.04209 0.0
H2687 H 0.19344 0.39856 0.17024 0.0
C2688 C 0.1125 0.40259 0.19194 0.0
C2689 C 0.09575 0.40839 0.16822 0.0
C2690 C 0.09821 0.41646 0.12438 0.0
C2691 C 0.11696 0.41896 0.10482 0.0
C2692 C 0.13315 0.4132 0.12919 0.0
C2693 C 0.13119 0.40502 0.17135 0.0
C2694 C 0.15113 0.39971 0.18889 0.0
C2695 C 0.15589 0.4052 0.24152 0.0
C2696 C 0.15199 0.38359 0.18682 0.0
C2697 C 0.16457 0.40627 0.15007 0.0
C2698 C 0.15376 0.41412 0.11649 0.0
C2699 C 0.16257 0.42142 0.07773 0.0
C2700 C 0.18292 0.42043 0.07212 0.0
C2701 C 0.19447 0.412 0.1045 0.0
C2702 C 0.18511 0.40503 0.14472 0.0
H2703 H 0.60293 0.31052 0.13994 0.0
H2704 H 0.58893 0.35474 0.12466 0.0
H2705 H 0.62439 0.36043 0.12695 0.0
H2706 H 0.6427 0.3145 0.22418 0.0
H2707 H 0.65703 0.30052 0.19713 0.0
H2708 H 0.63063 0.30003 0.19329 0.0
H2709 H 0.63267 0.29789 0.09698 0.0
H2710 H 0.65909 0.29829 0.10053 0.0
H2711 H 0.64627 0.31081 0.06208 0.0
H2712 H 0.66202 0.3611 0.13198 0.0
H2713 H 0.69769 0.35672 0.14003 0.0
H2714 H 0.68628 0.31198 0.14953 0.0
C2715 C 0.60719 0.32141 0.13626 0.0
C2716 C 0.59296 0.33217 0.13186 0.0
C2717 C 0.59942 0.34629 0.12844 0.0
C2718 C 0.61958 0.34962 0.12946 0.0
C2719 C 0.63315 0.33871 0.13391 0.0
C2720 C 0.62716 0.32489 0.13717 0.0
C2721 C 0.64451 0.31507 0.14245 0.0
C2722 C 0.64366 0.30706 0.19222 0.0
C2723 C 0.6457 0.30492 0.09785 0.0
C2724 C 0.66128 0.32551 0.14189 0.0
C2725 C 0.65451 0.3391 0.13682 0.0
C2726 C 0.66743 0.35048 0.13576 0.0
C2727 C 0.68772 0.34788 0.14012 0.0
C2728 C 0.69496 0.334 0.14559 0.0
C2729 C 0.68139 0.32273 0.14619 0.0
H2730 H 0.19051 0.31064 0.65924 0.0
H2731 H 0.20379 0.35445 0.63075 0.0
H2732 H 0.16833 0.35925 0.61985 0.0
H2733 H 0.15067 0.30726 0.57215 0.0
H2734 H 0.13662 0.29589 0.61227 0.0
H2735 H 0.16304 0.29596 0.61596 0.0
H2736 H 0.16116 0.30153 0.7106 0.0
H2737 H 0.13476 0.3014 0.70725 0.0
H2738 H 0.1474 0.31659 0.73146 0.0
H2739 H 0.13069 0.35918 0.6147 0.0
H2740 H 0.09499 0.35421 0.61585 0.0
H2741 H 0.1074 0.3106 0.65038 0.0
C2742 C 0.18608 0.32128 0.65108 0.0
C2743 C 0.20006 0.33217 0.64604 0.0
C2744 C 0.19345 0.34589 0.63434 0.0
C2745 C 0.1733 0.34873 0.62827 0.0
C2746 C 0.15994 0.33773 0.63388 0.0
C2747 C 0.16613 0.32429 0.645 0.0
C2748 C 0.14897 0.3143 0.65005 0.0
C2749 C 0.14989 0.30267 0.61023 0.0
C2750 C 0.14802 0.3081 0.70299 0.0
C2751 C 0.13208 0.32423 0.64044 0.0
C2752 C 0.1386 0.33769 0.631 0.0
C2753 C 0.12546 0.34865 0.62197 0.0
C2754 C 0.10519 0.34574 0.62293 0.0
C2755 C 0.09822 0.33199 0.63292 0.0
C2756 C 0.11202 0.32117 0.64156 0.0
H2757 H 0.60704 0.42926 0.65048 0.0
H2758 H 0.59327 0.38493 0.64067 0.0
H2759 H 0.62798 0.37991 0.61861 0.0
H2760 H 0.64218 0.43002 0.54733 0.0
H2761 H 0.65778 0.44266 0.57809 0.0
H2762 H 0.63173 0.44262 0.58996 0.0
H2763 H 0.63845 0.44023 0.6848 0.0
H2764 H 0.66449 0.4402 0.67324 0.0
H2765 H 0.65337 0.42591 0.70703 0.0
H2766 H 0.66517 0.37979 0.60538 0.0
H2767 H 0.70074 0.3847 0.59589 0.0
H2768 H 0.68937 0.42921 0.61228 0.0
C2769 C 0.6113 0.4185 0.64343 0.0
C2770 C 0.59752 0.40746 0.64759 0.0
C2771 C 0.60359 0.39354 0.63737 0.0
C2772 C 0.62327 0.3906 0.62505 0.0
C2773 C 0.63658 0.40174 0.62238 0.0
C2774 C 0.63073 0.41544 0.63062 0.0
C2775 C 0.64781 0.42555 0.62634 0.0
C2776 C 0.64469 0.43582 0.58283 0.0
C2777 C 0.65123 0.43343 0.6758 0.0
C2778 C 0.66435 0.41541 0.61544 0.0
C2779 C 0.65764 0.40171 0.61335 0.0
C2780 C 0.6705 0.39049 0.60632 0.0
C2781 C 0.69067 0.39336 0.60126 0.0
C2782 C 0.69778 0.40734 0.60289 0.0
C2783 C 0.68434 0.41845 0.60979 0.0
H2784 H 0.02613 0.1155 0.18962 0.0
H2785 H 0.05035 0.07539 0.14305 0.0
H2786 H 0.04455 0.08148 0.05536 0.0
H2787 H 0.98844 0.11778 0.0948 0.0
H2788 H 0.99151 0.13636 0.08505 0.0
H2789 H 0.99694 0.12881 0.14511 0.0
H2790 H 0.03216 0.13913 0.14193 0.0
H2791 H 0.02673 0.14688 0.08227 0.0
H2792 H 0.04758 0.13538 0.08888 0.0
H2793 H 0.03582 0.09163 0.97183 0.0
H2794 H 0.02854 0.10668 0.89863 0.0
H2795 H 1.0111 0.1403 -0.00149 0.0
C2796 C 0.03027 0.10804 0.16096 0.0
C2797 C 0.03863 0.09495 0.17352 0.0
C2798 C 0.04392 0.08551 0.13471 0.0
C2799 C 0.04057 0.08881 0.08456 0.0
C2800 C 0.03203 0.10166 0.07339 0.0
C2801 C 0.02722 0.11123 0.11034 0.0
C2802 C 1.0191 0.12459 0.08778 0.0
C2803 C 0.99773 0.12702 0.10417 0.0
C2804 C 0.03218 0.13724 0.10099 0.0
C2805 C 1.02028 0.12101 0.03265 0.0
C2806 C 0.02748 0.10766 0.02509 0.0
C2807 C 0.03012 0.10212 0.9772 0.0
C2808 C 0.02581 0.11066 0.93586 0.0
C2809 C 1.01924 0.12459 0.94298 0.0
C2810 C 1.01609 0.12966 0.992 0.0
H2811 H 0.26017 0.1022 0.02545 0.0
H2812 H 0.29803 0.12728 0.93048 0.0
H2813 H 0.30961 0.1404 0.00499 0.0
H2814 H 0.24537 0.12954 0.10588 0.0
H2815 H 0.24492 0.11867 0.16085 0.0
H2816 H 0.24067 0.11098 0.10044 0.0
H2817 H 0.26904 0.09337 0.11613 0.0
H2818 H 0.27354 0.10115 0.17644 0.0
H2819 H 0.29317 0.0999 0.13154 0.0
H2820 H 0.3155 0.15147 0.08947 0.0
H2821 H 0.31391 0.1606 0.17568 0.0
H2822 H 0.27266 0.12772 0.21491 0.0
C2823 C 0.27099 0.1104 0.0201 0.0
C2824 C 0.27822 0.11373 0.9721 0.0
C2825 C 0.29226 0.12459 0.96689 0.0
C2826 C 0.299 0.13201 0.00901 0.0
C2827 C 0.29162 0.12835 0.05586 0.0
C2828 C 0.27786 0.11782 0.0615 0.0
C2829 C 0.27149 0.1163 0.11535 0.0
C2830 C 0.24931 0.11904 0.12093 0.0
C2831 C 0.27715 0.10182 0.13608 0.0
C2832 C 0.28353 0.12782 0.13932 0.0
C2833 C 0.29518 0.13457 0.10445 0.0
C2834 C 0.30663 0.14616 0.11711 0.0
C2835 C 0.30565 0.15124 0.16617 0.0
C2836 C 0.29335 0.14474 0.20199 0.0
C2837 C 0.28258 0.13266 0.18866 0.0
H2838 H 1.01524 0.86745 0.96397 0.0
H2839 H 1.0063 0.82454 0.91366 0.0
H2840 H 1.01221 0.83177 0.82713 0.0
H2841 H 0.99063 0.88356 0.86065 0.0
H2842 H 1.00726 0.89826 0.85695 0.0
H2843 H 1.00331 0.88961 0.91577 0.0
H2844 H 0.04079 0.88537 0.92405 0.0
H2845 H 0.04482 0.89393 0.865 0.0
H2846 H 0.05368 0.87632 0.87484 0.0
H2847 H 1.01872 0.84352 0.74504 0.0
H2848 H 1.02291 0.85963 0.67321 0.0
H2849 H 0.02685 0.89481 0.77592 0.0
C2850 C 1.0146 0.8596 0.93475 0.0
C2851 C 1.01031 0.84544 0.94586 0.0
C2852 C 1.00948 0.83549 0.90637 0.0
C2853 C 1.01293 0.83945 0.85689 0.0
C2854 C 1.01714 0.85344 0.84709 0.0
C2855 C 1.01785 0.8634 0.88476 0.0
C2856 C 1.02183 0.87784 0.86352 0.0
C2857 C 1.00474 0.88791 0.87489 0.0
C2858 C 0.04145 0.88371 0.88302 0.0
C2859 C 1.02299 0.87442 0.80828 0.0
C2860 C 1.02051 0.86026 0.79957 0.0
C2861 C 1.02074 0.85465 0.75133 0.0
C2862 C 1.0232 0.86384 0.71079 0.0
C2863 C 1.02516 0.87843 0.71894 0.0
C2864 C 1.02533 0.88368 0.76841 0.0
H2865 H 0.78654 0.86688 0.728 0.0
H2866 H 0.8028 0.82593 0.78584 0.0
H2867 H 0.80209 0.83524 0.87129 0.0
H2868 H 0.81555 0.88708 0.8179 0.0
H2869 H 0.79751 0.90084 0.82315 0.0
H2870 H 0.7997 0.89104 0.76586 0.0
H2871 H 0.76276 0.88455 0.77068 0.0
H2872 H 0.7605 0.89426 0.82811 0.0
H2873 H 0.75341 0.87604 0.82583 0.0
H2874 H 0.79783 0.84855 0.95174 0.0
H2875 H 0.79258 0.86569 0.02029 0.0
H2876 H 0.78042 0.89802 0.91061 0.0
C2877 C 0.79012 0.85993 0.7586 0.0
C2878 C 0.79468 0.84567 0.74993 0.0
C2879 C 0.79925 0.83691 0.7912 0.0
C2880 C 0.79886 0.84208 0.84013 0.0
C2881 C 0.79405 0.85609 0.84754 0.0
C2882 C 0.78997 0.86495 0.80797 0.0
C2883 C 0.78526 0.8796 0.8265 0.0
C2884 C 0.80041 0.89027 0.80721 0.0
C2885 C 0.76423 0.88386 0.81191 0.0
C2886 C 0.78715 0.87749 0.88241 0.0
C2887 C 0.79212 0.86384 0.89389 0.0
C2888 C 0.79409 0.85932 0.94324 0.0
C2889 C 0.79102 0.86908 0.98193 0.0
C2890 C 0.78625 0.88317 0.97083 0.0
C2891 C 0.78429 0.88734 0.92037 0.0
H2892 H 0.04569 0.61998 0.76847 0.0
H2893 H 0.05016 0.57708 0.71442 0.0
H2894 H 0.04651 0.58529 0.62821 0.0
H2895 H 1.00972 0.6317 0.67724 0.0
H2896 H 1.02065 0.64882 0.66993 0.0
H2897 H 1.02303 0.63961 0.72829 0.0
H2898 H 0.06092 0.64183 0.723 0.0
H2899 H 0.05864 0.65103 0.66463 0.0
H2900 H 0.07351 0.63542 0.66835 0.0
H2901 H 0.04238 0.59793 0.54692 0.0
H2902 H 0.0391 0.61464 0.47653 0.0
H2903 H 0.03823 0.64923 0.58222 0.0
C2904 C 0.0458 0.61234 0.73848 0.0
C2905 C 0.04824 0.59789 0.74845 0.0
C2906 C 0.04843 0.58824 0.70799 0.0
C2907 C 0.0463 0.59276 0.65867 0.0
C2908 C 0.04406 0.60703 0.64993 0.0
C2909 C 0.04386 0.61671 0.68856 0.0
C2910 C 0.04176 0.63148 0.66839 0.0
C2911 C 1.02265 0.6383 0.68708 0.0
C2912 C 0.05978 0.64047 0.6819 0.0
C2913 C 0.04085 0.62853 0.61274 0.0
C2914 C 0.04207 0.61435 0.60284 0.0
C2915 C 0.04144 0.60909 0.55413 0.0
C2916 C 0.03955 0.61862 0.51439 0.0
C2917 C 0.0385 0.63321 0.52374 0.0
C2918 C 0.03914 0.63814 0.57366 0.0
H2919 H 0.26667 0.6231 0.75809 0.0
H2920 H 0.32557 0.63991 0.74787 0.0
H2921 H 0.32713 0.63284 0.65886 0.0
H2922 H 0.27397 0.59294 0.6689 0.0
H2923 H 0.24939 0.5949 0.64481 0.0
H2924 H 0.25462 0.59928 0.70891 0.0
H2925 H 0.24009 0.62405 0.69405 0.0
H2926 H 0.2355 0.61997 0.62949 0.0
H2927 H 0.25031 0.635 0.64576 0.0
H2928 H 0.32001 0.62703 0.56755 0.0
H2929 H 0.30695 0.6193 0.48541 0.0
H2930 H 0.25282 0.6063 0.55697 0.0
C2931 C 0.28026 0.62456 0.73771 0.0
C2932 C 0.29629 0.63152 0.75992 0.0
C2933 C 0.31347 0.63405 0.7317 0.0
C2934 C 0.31435 0.63026 0.68102 0.0
C2935 C 0.29789 0.62396 0.6594 0.0
C2936 C 0.28136 0.62079 0.68727 0.0
C2937 C 0.26522 0.61474 0.65485 0.0
C2938 C 0.26053 0.59956 0.67027 0.0
C2939 C 0.2467 0.624 0.65614 0.0
C2940 C 0.27504 0.61528 0.60427 0.0
C2941 C 0.29384 0.62069 0.60738 0.0
C2942 C 0.3054 0.62261 0.56484 0.0
C2943 C 0.29778 0.61839 0.51827 0.0
C2944 C 0.27888 0.61227 0.51492 0.0
C2945 C 0.26734 0.61096 0.55845 0.0
H2946 H 0.03499 0.34644 0.48879 0.0
H2947 H 1.00608 0.37603 0.58758 0.0
H2948 H 0.99709 0.39064 0.51477 0.0
H2949 H 0.05467 0.37316 0.40249 0.0
H2950 H 0.05142 0.36204 0.3486 0.0
H2951 H 0.05621 0.35435 0.40876 0.0
H2952 H 1.02466 0.33933 0.39976 0.0
H2953 H 1.0195 0.34723 0.34014 0.0
H2954 H 1.00142 0.3479 0.38919 0.0
H2955 H 0.98842 0.40048 0.43193 0.0
H2956 H 0.98594 0.4081 0.34484 0.0
H2957 H 1.02242 0.37305 0.29828 0.0
C2958 C 0.02711 0.35616 0.49505 0.0
C2959 C 1.02125 0.3602 0.54362 0.0
C2960 C 1.01092 0.37291 0.55069 0.0
C2961 C 1.00558 0.38115 0.50955 0.0
C2962 C 1.011 0.37661 0.46196 0.0
C2963 C 1.02201 0.36464 0.45453 0.0
C2964 C 0.02625 0.36231 0.39948 0.0
C2965 C 0.04846 0.36301 0.38923 0.0
C2966 C 1.01743 0.34836 0.38108 0.0
C2967 C 1.0156 0.37475 0.37696 0.0
C2968 C 1.00671 0.3827 0.41385 0.0
C2969 C 0.99559 0.39449 0.40282 0.0
C2970 C 0.99423 0.39868 0.35305 0.0
C2971 C 1.00417 0.39125 0.31467 0.0
C2972 C 1.0146 0.3789 0.32669 0.0
H2973 H 0.77972 0.37171 0.25964 0.0
H2974 H 0.76815 0.32832 0.29891 0.0
H2975 H 0.76497 0.33496 0.38728 0.0
H2976 H 0.80966 0.37908 0.3643 0.0
H2977 H 0.80099 0.39678 0.37299 0.0
H2978 H 0.80048 0.38894 0.31186 0.0
H2979 H 0.76315 0.39398 0.30513 0.0
H2980 H 0.76358 0.40191 0.36623 0.0
H2981 H 0.74686 0.38769 0.35318 0.0
H2982 H 0.76461 0.346 0.4725 0.0
H2983 H 0.76779 0.36092 0.5481 0.0
H2984 H 0.7805 0.39679 0.4537 0.0
C2985 C 0.77617 0.3637 0.28681 0.0
C2986 C 0.77416 0.34953 0.27246 0.0
C2987 C 0.76986 0.33926 0.30915 0.0
C2988 C 0.76793 0.34291 0.35948 0.0
C2989 C 0.77041 0.3569 0.37279 0.0
C2990 C 0.77443 0.36715 0.33762 0.0
C2991 C 0.77758 0.38125 0.36244 0.0
C2992 C 0.79842 0.38683 0.35229 0.0
C2993 C 0.76185 0.39183 0.34575 0.0
C2994 C 0.77498 0.37724 0.41677 0.0
C2995 C 0.77064 0.36318 0.42204 0.0
C2996 C 0.76792 0.35706 0.46891 0.0
C2997 C 0.76976 0.36557 0.5116 0.0
C2998 C 0.77447 0.37996 0.50689 0.0
C2999 C 0.77698 0.3858 0.45874 0.0
H3000 H 0.52505 0.11326 0.73863 0.0
H3001 H 0.55223 0.07378 0.69625 0.0
H3002 H 0.5553 0.08205 0.6098 0.0
H3003 H 0.49683 0.11747 0.62859 0.0
H3004 H 0.50005 0.13622 0.62481 0.0
H3005 H 0.50098 0.12761 0.68451 0.0
H3006 H 0.53547 0.1382 0.70108 0.0
H3007 H 0.53457 0.14694 0.64155 0.0
H3008 H 0.55481 0.13547 0.65618 0.0
H3009 H 0.55368 0.09394 0.5263 0.0
H3010 H 0.54889 0.10941 0.45298 0.0
H3011 H 0.52326 0.14108 0.54971 0.0
C3012 C 0.5319 0.10646 0.7113 0.0
C3013 C 0.53837 0.09288 0.72433 0.0
C3014 C 0.5471 0.08423 0.6873 0.0
C3015 C 0.54894 0.08882 0.63794 0.0
C3016 C 0.54207 0.10212 0.626 0.0
C3017 C 0.53388 0.11088 0.66163 0.0
C3018 C 0.52726 0.12457 0.6385 0.0
C3019 C 0.50496 0.12658 0.64446 0.0
C3020 C 0.53872 0.13703 0.66064 0.0
C3021 C 0.53279 0.12202 0.58446 0.0
C3022 C 0.54131 0.10902 0.57793 0.0
C3023 C 0.54715 0.10421 0.53094 0.0
C3024 C 0.54431 0.11302 0.48952 0.0
C3025 C 0.53578 0.12644 0.4956 0.0
C3026 C 0.52996 0.13091 0.54377 0.0
H3027 H 0.77574 0.1248 0.75276 0.0
H3028 H 0.73453 0.15739 0.70938 0.0
H3029 H 0.73555 0.14911 0.62276 0.0
H3030 H 0.80526 0.12632 0.6437 0.0
H3031 H 0.8092 0.10765 0.6389 0.0
H3032 H 0.80476 0.11555 0.69896 0.0
H3033 H 0.77537 0.09874 0.71352 0.0
H3034 H 0.77991 0.09066 0.65379 0.0
H3035 H 0.75601 0.09779 0.66768 0.0
H3036 H 0.74249 0.13872 0.54002 0.0
H3037 H 0.75234 0.12472 0.46655 0.0
H3038 H 0.78818 0.09826 0.56198 0.0
C3039 C 0.76669 0.12999 0.72514 0.0
C3040 C 0.75516 0.14179 0.73786 0.0
C3041 C 0.74363 0.1484 0.70056 0.0
C3042 C 0.74409 0.1438 0.6511 0.0
C3043 C 0.75603 0.13247 0.63933 0.0
C3044 C 0.76689 0.12548 0.67517 0.0
C3045 C 0.77856 0.11362 0.6518 0.0
C3046 C 0.80076 0.11593 0.65876 0.0
C3047 C 0.77207 0.09936 0.67295 0.0
C3048 C 0.7726 0.11519 0.59749 0.0
C3049 C 0.75971 0.12621 0.59118 0.0
C3050 C 0.75247 0.12997 0.54439 0.0
C3051 C 0.75824 0.12203 0.50285 0.0
C3052 C 0.77096 0.11042 0.5086 0.0
C3053 C 0.77835 0.10706 0.55651 0.0
H3054 H 0.52408 0.87207 0.49326 0.0
H3055 H 0.53661 0.82933 0.44733 0.0
H3056 H 0.54209 0.8373 0.36111 0.0
H3057 H 0.49621 0.88048 0.38938 0.0
H3058 H 0.50445 0.8984 0.38415 0.0
H3059 H 0.50471 0.88982 0.44386 0.0
H3060 H 0.54185 0.8953 0.45325 0.0
H3061 H 0.54168 0.90395 0.39346 0.0
H3062 H 0.55869 0.88983 0.4051 0.0
H3063 H 0.54269 0.84927 0.27852 0.0
H3064 H 0.53727 0.86452 0.20507 0.0
H3065 H 0.52374 0.8993 0.30411 0.0
C3066 C 0.52849 0.86451 0.4652 0.0
C3067 C 0.53 0.85014 0.47674 0.0
C3068 C 0.53531 0.84042 0.43903 0.0
C3069 C 0.5386 0.84484 0.39003 0.0
C3070 C 0.53649 0.85902 0.3793 0.0
C3071 C 0.53158 0.86874 0.41575 0.0
C3072 C 0.52822 0.88308 0.39321 0.0
C3073 C 0.50715 0.88824 0.40324 0.0
C3074 C 0.54353 0.89367 0.4124 0.0
C3075 C 0.53137 0.87976 0.3385 0.0
C3076 C 0.53648 0.8659 0.33128 0.0
C3077 C 0.53898 0.86021 0.28364 0.0
C3078 C 0.53586 0.86892 0.24218 0.0
C3079 C 0.53009 0.88305 0.24892 0.0
C3080 C 0.52821 0.88854 0.29773 0.0
H3081 H 0.2841 0.87769 0.49235 0.0
H3082 H 0.30108 0.9183 0.43257 0.0
H3083 H 0.29833 0.90905 0.34739 0.0
H3084 H 0.31048 0.85692 0.39904 0.0
H3085 H 0.29175 0.84356 0.39597 0.0
H3086 H 0.29549 0.85327 0.45294 0.0
H3087 H 0.2588 0.86052 0.45261 0.0
H3088 H 0.25499 0.85094 0.39541 0.0
H3089 H 0.24877 0.8693 0.39876 0.0
H3090 H 0.29195 0.89603 0.26818 0.0
H3091 H 0.28512 0.87908 0.20015 0.0
H3092 H 0.27348 0.84678 0.31035 0.0
C3093 C 0.28743 0.88457 0.46135 0.0
C3094 C 0.29273 0.89873 0.46932 0.0
C3095 C 0.29695 0.90741 0.42765 0.0
C3096 C 0.2954 0.90228 0.37892 0.0
C3097 C 0.28979 0.88839 0.3722 0.0
C3098 C 0.28611 0.87958 0.41214 0.0
C3099 C 0.28039 0.86506 0.39419 0.0
C3100 C 0.29543 0.85405 0.41156 0.0
C3101 C 0.2595 0.86124 0.41126 0.0
C3102 C 0.28128 0.86719 0.33817 0.0
C3103 C 0.2866 0.88075 0.32627 0.0
C3104 C 0.28791 0.88532 0.27692 0.0
C3105 C 0.28391 0.87568 0.23858 0.0
C3106 C 0.27888 0.86165 0.25003 0.0
C3107 C 0.27748 0.85743 0.30048 0.0
H3108 H 0.54171 0.62545 0.00541 0.0
H3109 H 0.57555 0.66098 0.06018 0.0
H3110 H 0.57182 0.65252 0.14607 0.0
H3111 H 0.50744 0.62426 0.10434 0.0
H3112 H 0.50633 0.60539 0.1081 0.0
H3113 H 0.51227 0.61372 0.04976 0.0
H3114 H 0.54468 0.59955 0.04433 0.0
H3115 H 0.53865 0.59097 0.10219 0.0
H3116 H 0.56174 0.60007 0.09583 0.0
H3117 H 0.56226 0.64147 0.22707 0.0
H3118 H 0.55142 0.62625 0.29686 0.0
H3119 H 0.52523 0.59746 0.19023 0.0
C3120 C 0.54865 0.63127 0.03538 0.0
C3121 C 0.5588 0.64392 0.02594 0.0
C3122 C 0.56756 0.6513 0.06633 0.0
C3123 C 0.56551 0.64662 0.11545 0.0
C3124 C 0.55483 0.63444 0.1238 0.0
C3125 C 0.54689 0.62667 0.08495 0.0
C3126 C 0.5362 0.61388 0.10457 0.0
C3127 C 0.51426 0.61435 0.09087 0.0
C3128 C 0.5459 0.60031 0.08561 0.0
C3129 C 0.53925 0.61581 0.16023 0.0
C3130 C 0.54985 0.62781 0.17061 0.0
C3131 C 0.55408 0.63196 0.2195 0.0
C3132 C 0.54773 0.62337 0.25886 0.0
C3133 C 0.53756 0.61075 0.24874 0.0
C3134 C 0.53309 0.60705 0.19888 0.0
H3135 H 0.75272 0.61609 0.23181 0.0
H3136 H 0.8107 0.63384 0.25305 0.0
H3137 H 0.8203 0.62574 0.16846 0.0
H3138 H 0.76929 0.5848 0.15701 0.0
H3139 H 0.74743 0.58545 0.11904 0.0
H3140 H 0.74654 0.59106 0.18326 0.0
H3141 H 0.73247 0.61499 0.15455 0.0
H3142 H 0.73395 0.60969 0.09021 0.0
H3143 H 0.74616 0.62547 0.11069 0.0
H3144 H 0.82114 0.61933 0.07626 0.0
H3145 H 0.81562 0.61067 0.98989 0.0
H3146 H 0.75781 0.59587 0.03245 0.0
C3147 C 0.76769 0.6177 0.2193 0.0
C3148 C 0.78114 0.6253 0.24867 0.0
C3149 C 0.80044 0.62766 0.23118 0.0
C3150 C 0.80589 0.62326 0.18309 0.0
C3151 C 0.79194 0.61632 0.15391 0.0
C3152 C 0.77344 0.61313 0.17206 0.0
C3153 C 0.7609 0.60598 0.13302 0.0
C3154 C 0.75574 0.59093 0.14903 0.0
C3155 C 0.74228 0.61455 0.12146 0.0
C3156 C 0.77495 0.60605 0.08947 0.0
C3157 C 0.79272 0.61218 0.10189 0.0
C3158 C 0.80744 0.61426 0.06643 0.0
C3159 C 0.80411 0.6095 0.01746 0.0
C3160 C 0.78633 0.60264 0.00505 0.0
C3161 C 0.77158 0.60102 0.04136 0.0
H3162 H 0.5132 0.3441 0.98117 0.0
H3163 H 0.52418 0.37818 0.08533 0.0
H3164 H 0.52679 0.39468 0.01419 0.0
H3165 H 0.54644 0.35599 0.88386 0.0
H3166 H 0.53045 0.35038 0.834 0.0
H3167 H 0.53022 0.34124 0.89283 0.0
H3168 H 0.49275 0.34547 0.90036 0.0
H3169 H 0.49285 0.35462 0.84163 0.0
H3170 H 0.48334 0.36312 0.89669 0.0
H3171 H 0.52644 0.40748 0.93235 0.0
H3172 H 0.52381 0.41595 0.84606 0.0
H3173 H 0.51363 0.37338 0.79403 0.0
C3174 C 0.51627 0.35502 0.98924 0.0
C3175 C 0.51847 0.35987 0.03902 0.0
C3176 C 0.52248 0.37424 0.04765 0.0
C3177 C 0.52398 0.38366 0.00745 0.0
C3178 C 0.52158 0.37851 0.95894 0.0
C3179 C 0.5179 0.36451 0.94968 0.0
C3180 C 0.51549 0.36168 0.89418 0.0
C3181 C 0.53162 0.35173 0.8751 0.0
C3182 C 0.49489 0.35588 0.88255 0.0
C3183 C 0.51812 0.37635 0.87344 0.0
C3184 C 0.52164 0.38586 0.91157 0.0
C3185 C 0.52383 0.40011 0.90228 0.0
C3186 C 0.52222 0.40481 0.85298 0.0
C3187 C 0.51852 0.39533 0.81313 0.0
C3188 C 0.51668 0.38085 0.82355 0.0
H3189 H 0.29236 0.37069 0.74962 0.0
H3190 H 0.26572 0.33147 0.79618 0.0
H3191 H 0.26354 0.3402 0.88252 0.0
H3192 H 0.32212 0.37498 0.8572 0.0
H3193 H 0.31944 0.39377 0.86125 0.0
H3194 H 0.31743 0.38511 0.80167 0.0
H3195 H 0.28299 0.39604 0.78814 0.0
H3196 H 0.28504 0.40491 0.84737 0.0
H3197 H 0.26428 0.39367 0.83497 0.0
H3198 H 0.26579 0.35243 0.96462 0.0
H3199 H 0.27078 0.36821 0.03692 0.0
H3200 H 0.29673 0.39932 0.93863 0.0
C3201 C 0.28565 0.36414 0.77788 0.0
C3202 C 0.27909 0.35046 0.76634 0.0
C3203 C 0.27083 0.34201 0.8044 0.0
C3204 C 0.26953 0.34685 0.85356 0.0
C3205 C 0.27666 0.36019 0.86431 0.0
C3206 C 0.28443 0.36879 0.82766 0.0
C3207 C 0.29176 0.38245 0.85012 0.0
C3208 C 0.31401 0.38417 0.84208 0.0
C3209 C 0.28033 0.39501 0.82889 0.0
C3210 C 0.28698 0.38008 0.90481 0.0
C3211 C 0.27824 0.36718 0.91213 0.0
C3212 C 0.27256 0.36261 0.95942 0.0
C3213 C 0.27554 0.37159 0.00031 0.0
C3214 C 0.28418 0.38497 0.9936 0.0
C3215 C 0.29015 0.38913 0.94517 0.0
loop_
_geom_bond_atom_site_label_1
_geom_bond_atom_site_label_2
_geom_bond_distance
_geom_bond_site_symmetry_2
_ccdc_geom_bond_type
C0 C1 1.351 . S
C0 N3 1.368 . S
C0 H5 0.931 . S
C1 C0 1.351 . S
C1 N2 1.373 . S
C1 H29 0.930 . S
N2 C1 1.373 . S
N2 C4 1.340 . S
N3 C0 1.368 . S
N3 C4 1.321 . S
N3 Co6 2.196 . S
C4 N2 1.340 . S
C4 N3 1.321 . S
C4 H28 0.930 . S
H5 C0 0.931 . S
Co6 N3 2.196 . S
Co6 N9 2.059 1_655 S
Co6 O14 2.054 . S
Co6 O17 2.049 . S
Co6 N20 2.136 1_655 S
C7 O8 1.227 . S
C7 O17 1.265 . S
O8 C7 1.227 . S
N9 Co6 2.059 1_455 S
N9 C11 1.375 . S
N9 C12 1.313 . S
C10 C11 1.338 . S
C10 N13 1.377 . S
C10 H30 0.930 . S
C11 N9 1.375 . S
C11 C10 1.338 . S
C11 H15 0.931 . S
C12 N9 1.313 . S
C12 N13 1.344 . S
C12 H16 0.930 . S
N13 C10 1.377 . S
N13 C12 1.344 . S
O14 Co6 2.054 . S
O14 C18 1.250 1_655 S
H15 C11 0.931 . S
H16 C12 0.930 . S
O17 Co6 2.049 . S
O17 C7 1.265 . S
C18 O14 1.250 1_455 S
C18 O19 1.227 . S
O19 C18 1.227 . S
N20 Co6 2.136 1_455 S
N20 C23 1.346 1_455 S
N20 C24 1.345 . S
C21 C22 1.387 1_455 S
C21 C25 1.391 . S
C22 C21 1.387 1_655 S
C22 C23 1.369 . S
C22 H31 0.929 . S
C23 N20 1.346 1_655 S
C23 C22 1.369 . S
C23 H26 0.928 . S
C24 N20 1.345 . S
C24 C25 1.371 . S
C24 H27 0.931 . S
C25 C21 1.391 . S
C25 C24 1.371 . S
C25 H32 0.930 . S
H26 C23 0.928 . S
H27 C24 0.931 . S
H28 C4 0.930 . S
H29 C1 0.930 . S
H30 C10 0.930 . S
H31 C22 0.929 . S
H32 C25 0.930 . S
C33 C34 1.351 . S
C33 N36 1.368 . S
C33 H38 0.931 . S
C34 C33 1.351 . S
C34 N35 1.373 . S
C34 H62 0.930 . S
N35 C34 1.373 . S
N35 C37 1.340 . S
N36 C33 1.368 . S
N36 C37 1.321 . S
N36 Co39 2.135 . S
C37 N35 1.340 . S
C37 N36 1.321 . S
C37 H61 0.930 . S
H38 C33 0.931 . S
Co39 N36 2.135 . S
Co39 N42 2.121 . S
Co39 O47 2.055 . S
Co39 O50 2.039 . S
Co39 N53 2.140 . S
C40 O41 1.227 . S
C40 O50 1.265 . S
O41 C40 1.227 . S
N42 Co39 2.121 . S
N42 C44 1.375 . S
N42 C45 1.313 . S
C43 C44 1.338 . S
C43 N46 1.377 . S
C43 H63 0.930 . S
C44 N42 1.375 . S
C44 C43 1.338 . S
C44 H48 0.931 . S
C45 N42 1.313 . S
C45 N46 1.344 . S
C45 H49 0.930 . S
N46 C43 1.377 . S
N46 C45 1.344 . S
O47 Co39 2.055 . S
O47 C51 1.253 . S
H48 C44 0.931 . S
H49 C45 0.930 . S
O50 Co39 2.039 . S
O50 C40 1.265 . S
C51 O47 1.253 . S
C51 O52 1.227 . S
O52 C51 1.227 . S
N53 Co39 2.140 . S
N53 C56 1.346 . S
N53 C57 1.345 . S
C54 C55 1.387 . S
C54 C58 1.391 . S
C55 C54 1.387 . S
C55 C56 1.369 . S
C55 H64 0.929 . S
C56 N53 1.346 . S
C56 C55 1.369 . S
C56 H59 0.928 . S
C57 N53 1.345 . S
C57 C58 1.371 . S
C57 H60 0.931 . S
C58 C54 1.391 . S
C58 C57 1.371 . S
C58 H65 0.930 . S
H59 C56 0.928 . S
H60 C57 0.931 . S
H61 C37 0.930 . S
H62 C34 0.930 . S
H63 C43 0.930 . S
H64 C55 0.929 . S
H65 C58 0.930 . S
C66 C67 1.351 . S
C66 N69 1.368 . S
C66 H71 0.931 . S
C67 C66 1.351 . S
C67 N68 1.373 . S
C67 H95 0.930 . S
N68 C67 1.373 . S
N68 C70 1.340 . S
N69 C66 1.368 . S
N69 C70 1.321 . S
N69 Co72 2.196 . S
C70 N68 1.340 . S
C70 N69 1.321 . S
C70 H94 0.930 . S
H71 C66 0.931 . S
Co72 N69 2.196 . S
Co72 N75 2.059 1_655 S
Co72 O80 2.054 . S
Co72 O83 2.049 . S
Co72 N86 2.136 1_655 S
C73 O74 1.227 . S
C73 O83 1.265 . S
O74 C73 1.227 . S
N75 Co72 2.059 1_455 S
N75 C77 1.375 . S
N75 C78 1.313 . S
C76 C77 1.338 . S
C76 N79 1.377 . S
C76 H96 0.930 . S
C77 N75 1.375 . S
C77 C76 1.338 . S
C77 H81 0.931 . S
C78 N75 1.313 . S
C78 N79 1.344 . S
C78 H82 0.930 . S
N79 C76 1.377 . S
N79 C78 1.344 . S
O80 Co72 2.054 . S
O80 C84 1.250 1_655 S
H81 C77 0.931 . S
H82 C78 0.930 . S
O83 Co72 2.049 . S
O83 C73 1.265 . S
C84 O80 1.250 1_455 S
C84 O85 1.227 . S
O85 C84 1.227 . S
N86 Co72 2.136 1_455 S
N86 C89 1.346 1_455 S
N86 C90 1.345 . S
C87 C88 1.387 1_455 S
C87 C91 1.391 . S
C88 C87 1.387 1_655 S
C88 C89 1.369 . S
C88 H97 0.929 . S
C89 N86 1.346 1_655 S
C89 C88 1.369 . S
C89 H92 0.928 . S
C90 N86 1.345 . S
C90 C91 1.371 . S
C90 H93 0.931 . S
C91 C87 1.391 . S
C91 C90 1.371 . S
C91 H98 0.930 . S
H92 C89 0.928 . S
H93 C90 0.931 . S
H94 C70 0.930 . S
H95 C67 0.930 . S
H96 C76 0.930 . S
H97 C88 0.929 . S
H98 C91 0.930 . S
C99 C100 1.351 . S
C99 N102 1.368 . S
C99 H104 0.931 . S
C100 C99 1.351 . S
C100 N101 1.373 . S
C100 H128 0.930 . S
N101 C100 1.373 . S
N101 C103 1.340 . S
N102 C99 1.368 . S
N102 C103 1.321 . S
N102 Co105 2.135 . S
C103 N101 1.340 . S
C103 N102 1.321 . S
C103 H127 0.930 . S
H104 C99 0.931 . S
Co105 N102 2.135 . S
Co105 N108 2.121 . S
Co105 O113 2.055 . S
Co105 O116 2.039 . S
Co105 N119 2.140 . S
C106 O107 1.227 . S
C106 O116 1.265 . S
O107 C106 1.227 . S
N108 Co105 2.121 . S
N108 C110 1.375 . S
N108 C111 1.313 . S
C109 C110 1.338 . S
C109 N112 1.377 . S
C109 H129 0.930 . S
C110 N108 1.375 . S
C110 C109 1.338 . S
C110 H114 0.931 . S
C111 N108 1.313 . S
C111 N112 1.344 . S
C111 H115 0.930 . S
N112 C109 1.377 . S
N112 C111 1.344 . S
O113 Co105 2.055 . S
O113 C117 1.253 . S
H114 C110 0.931 . S
H115 C111 0.930 . S
O116 Co105 2.039 . S
O116 C106 1.265 . S
C117 O113 1.253 . S
C117 O118 1.227 . S
O118 C117 1.227 . S
N119 Co105 2.140 . S
N119 C122 1.346 . S
N119 C123 1.345 . S
C120 C121 1.387 . S
C120 C124 1.391 . S
C121 C120 1.387 . S
C121 C122 1.369 . S
C121 H130 0.929 . S
C122 N119 1.346 . S
C122 C121 1.369 . S
C122 H125 0.928 . S
C123 N119 1.345 . S
C123 C124 1.371 . S
C123 H126 0.931 . S
C124 C120 1.391 . S
C124 C123 1.371 . S
C124 H131 0.930 . S
H125 C122 0.928 . S
H126 C123 0.931 . S
H127 C103 0.930 . S
H128 C100 0.930 . S
H129 C109 0.930 . S
H130 C121 0.929 . S
H131 C124 0.930 . S
C132 C133 1.351 . S
C132 N135 1.368 . S
C132 H137 0.931 . S
C133 C132 1.351 . S
C133 N134 1.373 . S
C133 H161 0.930 . S
N134 C133 1.373 . S
N134 C136 1.340 . S
N135 C132 1.368 . S
N135 C136 1.321 . S
N135 Co138 2.196 . S
C136 N134 1.340 . S
C136 N135 1.321 . S
C136 H160 0.930 . S
H137 C132 0.931 . S
Co138 N135 2.196 . S
Co138 N141 2.059 1_455 S
Co138 O146 2.054 . S
Co138 O149 2.049 . S
Co138 N152 2.136 1_455 S
C139 O140 1.227 . S
C139 O149 1.265 . S
O140 C139 1.227 . S
N141 Co138 2.059 1_655 S
N141 C143 1.375 . S
N141 C144 1.313 . S
C142 C143 1.338 . S
C142 N145 1.377 . S
C142 H162 0.930 . S
C143 N141 1.375 . S
C143 C142 1.338 . S
C143 H147 0.931 . S
C144 N141 1.313 . S
C144 N145 1.344 . S
C144 H148 0.930 . S
N145 C142 1.377 . S
N145 C144 1.344 . S
O146 Co138 2.054 . S
O146 C150 1.250 1_455 S
H147 C143 0.931 . S
H148 C144 0.930 . S
O149 Co138 2.049 . S
O149 C139 1.265 . S
C150 O146 1.250 1_655 S
C150 O151 1.227 . S
O151 C150 1.227 . S
N152 Co138 2.136 1_655 S
N152 C155 1.346 1_655 S
N152 C156 1.345 . S
C153 C154 1.387 1_655 S
C153 C157 1.391 . S
C154 C153 1.387 1_455 S
C154 C155 1.369 . S
C154 H163 0.929 . S
C155 N152 1.346 1_455 S
C155 C154 1.369 . S
C155 H158 0.928 . S
C156 N152 1.345 . S
C156 C157 1.371 . S
C156 H159 0.931 . S
C157 C153 1.391 . S
C157 C156 1.371 . S
C157 H164 0.930 . S
H158 C155 0.928 . S
H159 C156 0.931 . S
H160 C136 0.930 . S
H161 C133 0.930 . S
H162 C142 0.930 . S
H163 C154 0.929 . S
H164 C157 0.930 . S
C165 C166 1.351 . S
C165 N168 1.368 . S
C165 H170 0.931 . S
C166 C165 1.351 . S
C166 N167 1.373 . S
C166 H194 0.930 . S
N167 C166 1.373 . S
N167 C169 1.340 . S
N168 C165 1.368 . S
N168 C169 1.321 . S
N168 Co171 2.135 . S
C169 N167 1.340 . S
C169 N168 1.321 . S
C169 H193 0.930 . S
H170 C165 0.931 . S
Co171 N168 2.135 . S
Co171 N174 2.121 . S
Co171 O179 2.055 . S
Co171 O182 2.039 . S
Co171 N185 2.140 . S
C172 O173 1.227 . S
C172 O182 1.265 . S
O173 C172 1.227 . S
N174 Co171 2.121 . S
N174 C176 1.375 . S
N174 C177 1.313 . S
C175 C176 1.338 . S
C175 N178 1.377 . S
C175 H195 0.930 . S
C176 N174 1.375 . S
C176 C175 1.338 . S
C176 H180 0.931 . S
C177 N174 1.313 . S
C177 N178 1.344 . S
C177 H181 0.930 . S
N178 C175 1.377 . S
N178 C177 1.344 . S
O179 Co171 2.055 . S
O179 C183 1.253 . S
H180 C176 0.931 . S
H181 C177 0.930 . S
O182 Co171 2.039 . S
O182 C172 1.265 . S
C183 O179 1.253 . S
C183 O184 1.227 . S
O184 C183 1.227 . S
N185 Co171 2.140 . S
N185 C188 1.346 . S
N185 C189 1.345 . S
C186 C187 1.387 . S
C186 C190 1.391 . S
C187 C186 1.387 . S
C187 C188 1.369 . S
C187 H196 0.929 . S
C188 N185 1.346 . S
C188 C187 1.369 . S
C188 H191 0.928 . S
C189 N185 1.345 . S
C189 C190 1.371 . S
C189 H192 0.931 . S
C190 C186 1.391 . S
C190 C189 1.371 . S
C190 H197 0.930 . S
H191 C188 0.928 . S
H192 C189 0.931 . S
H193 C169 0.930 . S
H194 C166 0.930 . S
H195 C175 0.930 . S
H196 C187 0.929 . S
H197 C190 0.930 . S
C198 C199 1.351 . S
C198 N201 1.368 . S
C198 H203 0.931 . S
C199 C198 1.351 . S
C199 N200 1.373 . S
C199 H227 0.930 . S
N200 C199 1.373 . S
N200 C202 1.340 . S
N201 C198 1.368 . S
N201 C202 1.321 . S
N201 Co204 2.196 . S
C202 N200 1.340 . S
C202 N201 1.321 . S
C202 H226 0.930 . S
H203 C198 0.931 . S
Co204 N201 2.196 . S
Co204 N207 2.059 1_455 S
Co204 O212 2.054 . S
Co204 O215 2.049 . S
Co204 N218 2.136 1_455 S
C205 O206 1.227 . S
C205 O215 1.265 . S
O206 C205 1.227 . S
N207 Co204 2.059 1_655 S
N207 C209 1.375 . S
N207 C210 1.313 . S
C208 C209 1.338 . S
C208 N211 1.377 . S
C208 H228 0.930 . S
C209 N207 1.375 . S
C209 C208 1.338 . S
C209 H213 0.931 . S
C210 N207 1.313 . S
C210 N211 1.344 . S
C210 H214 0.930 . S
N211 C208 1.377 . S
N211 C210 1.344 . S
O212 Co204 2.054 . S
O212 C216 1.250 1_455 S
H213 C209 0.931 . S
H214 C210 0.930 . S
O215 Co204 2.049 . S
O215 C205 1.265 . S
C216 O212 1.250 1_655 S
C216 O217 1.227 . S
O217 C216 1.227 . S
N218 Co204 2.136 1_655 S
N218 C221 1.346 1_655 S
N218 C222 1.345 . S
C219 C220 1.387 1_655 S
C219 C223 1.391 . S
C220 C219 1.387 1_455 S
C220 C221 1.369 . S
C220 H229 0.929 . S
C221 N218 1.346 1_455 S
C221 C220 1.369 . S
C221 H224 0.928 . S
C222 N218 1.345 . S
C222 C223 1.371 . S
C222 H225 0.931 . S
C223 C219 1.391 . S
C223 C222 1.371 . S
C223 H230 0.930 . S
H224 C221 0.928 . S
H225 C222 0.931 . S
H226 C202 0.930 . S
H227 C199 0.930 . S
H228 C208 0.930 . S
H229 C220 0.929 . S
H230 C223 0.930 . S
C231 C232 1.351 . S
C231 N234 1.368 . S
C231 H236 0.931 . S
C232 C231 1.351 . S
C232 N233 1.373 . S
C232 H260 0.930 . S
N233 C232 1.373 . S
N233 C235 1.340 . S
N234 C231 1.368 . S
N234 C235 1.321 . S
N234 Co237 2.135 . S
C235 N233 1.340 . S
C235 N234 1.321 . S
C235 H259 0.930 . S
H236 C231 0.931 . S
Co237 N234 2.135 . S
Co237 N240 2.121 . S
Co237 O245 2.055 . S
Co237 O248 2.039 . S
Co237 N251 2.140 . S
C238 O239 1.227 . S
C238 O248 1.265 . S
O239 C238 1.227 . S
N240 Co237 2.121 . S
N240 C242 1.375 . S
N240 C243 1.313 . S
C241 C242 1.338 . S
C241 N244 1.377 . S
C241 H261 0.930 . S
C242 N240 1.375 . S
C242 C241 1.338 . S
C242 H246 0.931 . S
C243 N240 1.313 . S
C243 N244 1.344 . S
C243 H247 0.930 . S
N244 C241 1.377 . S
N244 C243 1.344 . S
O245 Co237 2.055 . S
O245 C249 1.253 . S
H246 C242 0.931 . S
H247 C243 0.930 . S
O248 Co237 2.039 . S
O248 C238 1.265 . S
C249 O245 1.253 . S
C249 O250 1.227 . S
O250 C249 1.227 . S
N251 Co237 2.140 . S
N251 C254 1.346 . S
N251 C255 1.345 . S
C252 C253 1.387 . S
C252 C256 1.391 . S
C253 C252 1.387 . S
C253 C254 1.369 . S
C253 H262 0.929 . S
C254 N251 1.346 . S
C254 C253 1.369 . S
C254 H257 0.928 . S
C255 N251 1.345 . S
C255 C256 1.371 . S
C255 H258 0.931 . S
C256 C252 1.391 . S
C256 C255 1.371 . S
C256 H263 0.930 . S
H257 C254 0.928 . S
H258 C255 0.931 . S
H259 C235 0.930 . S
H260 C232 0.930 . S
H261 C241 0.930 . S
H262 C253 0.929 . S
H263 C256 0.930 . S
C264 C265 1.351 . S
C264 N267 1.368 . S
C264 H269 0.931 . S
C265 C264 1.351 . S
C265 N266 1.373 . S
C265 H293 0.930 . S
N266 C265 1.373 . S
N266 C268 1.340 . S
N267 C264 1.368 . S
N267 C268 1.321 . S
N267 Co270 2.196 . S
C268 N266 1.340 . S
C268 N267 1.321 . S
C268 H292 0.930 . S
H269 C264 0.931 . S
Co270 N267 2.196 . S
Co270 N273 2.059 1_655 S
Co270 O278 2.054 . S
Co270 O281 2.049 . S
Co270 N284 2.136 1_655 S
C271 O272 1.227 . S
C271 O281 1.265 . S
O272 C271 1.227 . S
N273 Co270 2.059 1_455 S
N273 C275 1.375 . S
N273 C276 1.313 . S
C274 C275 1.338 . S
C274 N277 1.377 . S
C274 H294 0.930 . S
C275 N273 1.375 . S
C275 C274 1.338 . S
C275 H279 0.931 . S
C276 N273 1.313 . S
C276 N277 1.344 . S
C276 H280 0.930 . S
N277 C274 1.377 . S
N277 C276 1.344 . S
O278 Co270 2.054 . S
O278 C282 1.250 1_655 S
H279 C275 0.931 . S
H280 C276 0.930 . S
O281 Co270 2.049 . S
O281 C271 1.265 . S
C282 O278 1.250 1_455 S
C282 O283 1.227 . S
O283 C282 1.227 . S
N284 Co270 2.136 1_455 S
N284 C287 1.346 1_455 S
N284 C288 1.345 . S
C285 C286 1.387 1_455 S
C285 C289 1.391 . S
C286 C285 1.387 1_655 S
C286 C287 1.369 . S
C286 H295 0.929 . S
C287 N284 1.346 1_655 S
C287 C286 1.369 . S
C287 H290 0.928 . S
C288 N284 1.345 . S
C288 C289 1.371 . S
C288 H291 0.931 . S
C289 C285 1.391 . S
C289 C288 1.371 . S
C289 H296 0.930 . S
H290 C287 0.928 . S
H291 C288 0.931 . S
H292 C268 0.930 . S
H293 C265 0.930 . S
H294 C274 0.930 . S
H295 C286 0.929 . S
H296 C289 0.930 . S
C297 C298 1.351 . S
C297 N300 1.368 . S
C297 H302 0.931 . S
C298 C297 1.351 . S
C298 N299 1.373 . S
C298 H326 0.930 . S
N299 C298 1.373 . S
N299 C301 1.340 . S
N300 C297 1.368 . S
N300 C301 1.321 . S
N300 Co303 2.135 . S
C301 N299 1.340 . S
C301 N300 1.321 . S
C301 H325 0.930 . S
H302 C297 0.931 . S
Co303 N300 2.135 . S
Co303 N306 2.121 . S
Co303 O311 2.055 . S
Co303 O314 2.039 . S
Co303 N317 2.140 . S
C304 O305 1.227 . S
C304 O314 1.265 . S
O305 C304 1.227 . S
N306 Co303 2.121 . S
N306 C308 1.375 . S
N306 C309 1.313 . S
C307 C308 1.338 . S
C307 N310 1.377 . S
C307 H327 0.930 . S
C308 N306 1.375 . S
C308 C307 1.338 . S
C308 H312 0.931 . S
C309 N306 1.313 . S
C309 N310 1.344 . S
C309 H313 0.930 . S
N310 C307 1.377 . S
N310 C309 1.344 . S
O311 Co303 2.055 . S
O311 C315 1.253 . S
H312 C308 0.931 . S
H313 C309 0.930 . S
O314 Co303 2.039 . S
O314 C304 1.265 . S
C315 O311 1.253 . S
C315 O316 1.227 . S
O316 C315 1.227 . S
N317 Co303 2.140 . S
N317 C320 1.346 . S
N317 C321 1.345 . S
C318 C319 1.387 . S
C318 C322 1.391 . S
C319 C318 1.387 . S
C319 C320 1.369 . S
C319 H328 0.929 . S
C320 N317 1.346 . S
C320 C319 1.369 . S
C320 H323 0.928 . S
C321 N317 1.345 . S
C321 C322 1.371 . S
C321 H324 0.931 . S
C322 C318 1.391 . S
C322 C321 1.371 . S
C322 H329 0.930 . S
H323 C320 0.928 . S
H324 C321 0.931 . S
H325 C301 0.930 . S
H326 C298 0.930 . S
H327 C307 0.930 . S
H328 C319 0.929 . S
H329 C322 0.930 . S
C330 C331 1.351 . S
C330 N333 1.368 . S
C330 H335 0.931 . S
C331 C330 1.351 . S
C331 N332 1.373 . S
C331 H359 0.930 . S
N332 C331 1.373 . S
N332 C334 1.340 . S
N333 C330 1.368 . S
N333 C334 1.321 . S
N333 Co336 2.196 . S
C334 N332 1.340 . S
C334 N333 1.321 . S
C334 H358 0.930 . S
H335 C330 0.931 . S
Co336 N333 2.196 . S
Co336 N339 2.059 1_655 S
Co336 O344 2.054 . S
Co336 O347 2.049 . S
Co336 N350 2.136 1_655 S
C337 O338 1.227 . S
C337 O347 1.265 . S
O338 C337 1.227 . S
N339 Co336 2.059 1_455 S
N339 C341 1.375 . S
N339 C342 1.313 . S
C340 C341 1.338 . S
C340 N343 1.377 . S
C340 H360 0.930 . S
C341 N339 1.375 . S
C341 C340 1.338 . S
C341 H345 0.931 . S
C342 N339 1.313 . S
C342 N343 1.344 . S
C342 H346 0.930 . S
N343 C340 1.377 . S
N343 C342 1.344 . S
O344 Co336 2.054 . S
O344 C348 1.250 1_655 S
H345 C341 0.931 . S
H346 C342 0.930 . S
O347 Co336 2.049 . S
O347 C337 1.265 . S
C348 O344 1.250 1_455 S
C348 O349 1.227 . S
O349 C348 1.227 . S
N350 Co336 2.136 1_455 S
N350 C353 1.346 1_455 S
N350 C354 1.345 . S
C351 C352 1.387 1_455 S
C351 C355 1.391 . S
C352 C351 1.387 1_655 S
C352 C353 1.369 . S
C352 H361 0.929 . S
C353 N350 1.346 1_655 S
C353 C352 1.369 . S
C353 H356 0.928 . S
C354 N350 1.345 . S
C354 C355 1.371 . S
C354 H357 0.931 . S
C355 C351 1.391 . S
C355 C354 1.371 . S
C355 H362 0.930 . S
H356 C353 0.928 . S
H357 C354 0.931 . S
H358 C334 0.930 . S
H359 C331 0.930 . S
H360 C340 0.930 . S
H361 C352 0.929 . S
H362 C355 0.930 . S
C363 C364 1.351 . S
C363 N366 1.368 . S
C363 H368 0.931 . S
C364 C363 1.351 . S
C364 N365 1.373 . S
C364 H392 0.930 . S
N365 C364 1.373 . S
N365 C367 1.340 . S
N366 C363 1.368 . S
N366 C367 1.321 . S
N366 Co369 2.135 . S
C367 N365 1.340 . S
C367 N366 1.321 . S
C367 H391 0.930 . S
H368 C363 0.931 . S
Co369 N366 2.135 . S
Co369 N372 2.121 . S
Co369 O377 2.055 . S
Co369 O380 2.039 . S
Co369 N383 2.140 . S
C370 O371 1.227 . S
C370 O380 1.265 . S
O371 C370 1.227 . S
N372 Co369 2.121 . S
N372 C374 1.375 . S
N372 C375 1.313 . S
C373 C374 1.338 . S
C373 N376 1.377 . S
C373 H393 0.930 . S
C374 N372 1.375 . S
C374 C373 1.338 . S
C374 H378 0.931 . S
C375 N372 1.313 . S
C375 N376 1.344 . S
C375 H379 0.930 . S
N376 C373 1.377 . S
N376 C375 1.344 . S
O377 Co369 2.055 . S
O377 C381 1.253 . S
H378 C374 0.931 . S
H379 C375 0.930 . S
O380 Co369 2.039 . S
O380 C370 1.265 . S
C381 O377 1.253 . S
C381 O382 1.227 . S
O382 C381 1.227 . S
N383 Co369 2.140 . S
N383 C386 1.346 . S
N383 C387 1.345 . S
C384 C385 1.387 . S
C384 C388 1.391 . S
C385 C384 1.387 . S
C385 C386 1.369 . S
C385 H394 0.929 . S
C386 N383 1.346 . S
C386 C385 1.369 . S
C386 H389 0.928 . S
C387 N383 1.345 . S
C387 C388 1.371 . S
C387 H390 0.931 . S
C388 C384 1.391 . S
C388 C387 1.371 . S
C388 H395 0.930 . S
H389 C386 0.928 . S
H390 C387 0.931 . S
H391 C367 0.930 . S
H392 C364 0.930 . S
H393 C373 0.930 . S
H394 C385 0.929 . S
H395 C388 0.930 . S
C396 C397 1.351 . S
C396 N399 1.368 . S
C396 H401 0.931 . S
C397 C396 1.351 . S
C397 N398 1.373 . S
C397 H425 0.930 . S
N398 C397 1.373 . S
N398 C400 1.340 . S
N399 C396 1.368 . S
N399 C400 1.321 . S
N399 Co402 2.196 . S
C400 N398 1.340 . S
C400 N399 1.321 . S
C400 H424 0.930 . S
H401 C396 0.931 . S
Co402 N399 2.196 . S
Co402 N405 2.059 1_455 S
Co402 O410 2.054 . S
Co402 O413 2.049 . S
Co402 N416 2.136 1_455 S
C403 O404 1.227 . S
C403 O413 1.265 . S
O404 C403 1.227 . S
N405 Co402 2.059 1_655 S
N405 C407 1.375 . S
N405 C408 1.313 . S
C406 C407 1.338 . S
C406 N409 1.377 . S
C406 H426 0.930 . S
C407 N405 1.375 . S
C407 C406 1.338 . S
C407 H411 0.931 . S
C408 N405 1.313 . S
C408 N409 1.344 . S
C408 H412 0.930 . S
N409 C406 1.377 . S
N409 C408 1.344 . S
O410 Co402 2.054 . S
O410 C414 1.250 1_455 S
H411 C407 0.931 . S
H412 C408 0.930 . S
O413 Co402 2.049 . S
O413 C403 1.265 . S
C414 O410 1.250 1_655 S
C414 O415 1.227 . S
O415 C414 1.227 . S
N416 Co402 2.136 1_655 S
N416 C419 1.346 1_655 S
N416 C420 1.345 . S
C417 C418 1.387 1_655 S
C417 C421 1.391 . S
C418 C417 1.387 1_455 S
C418 C419 1.369 . S
C418 H427 0.929 . S
C419 N416 1.346 1_455 S
C419 C418 1.369 . S
C419 H422 0.928 . S
C420 N416 1.345 . S
C420 C421 1.371 . S
C420 H423 0.931 . S
C421 C417 1.391 . S
C421 C420 1.371 . S
C421 H428 0.930 . S
H422 C419 0.928 . S
H423 C420 0.931 . S
H424 C400 0.930 . S
H425 C397 0.930 . S
H426 C406 0.930 . S
H427 C418 0.929 . S
H428 C421 0.930 . S
C429 C430 1.351 . S
C429 N432 1.368 . S
C429 H434 0.931 . S
C430 C429 1.351 . S
C430 N431 1.373 . S
C430 H458 0.930 . S
N431 C430 1.373 . S
N431 C433 1.340 . S
N432 C429 1.368 . S
N432 C433 1.321 . S
N432 Co435 2.135 . S
C433 N431 1.340 . S
C433 N432 1.321 . S
C433 H457 0.930 . S
H434 C429 0.931 . S
Co435 N432 2.135 . S
Co435 N438 2.121 . S
Co435 O443 2.055 . S
Co435 O446 2.039 . S
Co435 N449 2.140 . S
C436 O437 1.227 . S
C436 O446 1.265 . S
O437 C436 1.227 . S
N438 Co435 2.121 . S
N438 C440 1.375 . S
N438 C441 1.313 . S
C439 C440 1.338 . S
C439 N442 1.377 . S
C439 H459 0.930 . S
C440 N438 1.375 . S
C440 C439 1.338 . S
C440 H444 0.931 . S
C441 N438 1.313 . S
C441 N442 1.344 . S
C441 H445 0.930 . S
N442 C439 1.377 . S
N442 C441 1.344 . S
O443 Co435 2.055 . S
O443 C447 1.253 . S
H444 C440 0.931 . S
H445 C441 0.930 . S
O446 Co435 2.039 . S
O446 C436 1.265 . S
C447 O443 1.253 . S
C447 O448 1.227 . S
O448 C447 1.227 . S
N449 Co435 2.140 . S
N449 C452 1.346 . S
N449 C453 1.345 . S
C450 C451 1.387 . S
C450 C454 1.391 . S
C451 C450 1.387 . S
C451 C452 1.369 . S
C451 H460 0.929 . S
C452 N449 1.346 . S
C452 C451 1.369 . S
C452 H455 0.928 . S
C453 N449 1.345 . S
C453 C454 1.371 . S
C453 H456 0.931 . S
C454 C450 1.391 . S
C454 C453 1.371 . S
C454 H461 0.930 . S
H455 C452 0.928 . S
H456 C453 0.931 . S
H457 C433 0.930 . S
H458 C430 0.930 . S
H459 C439 0.930 . S
H460 C451 0.929 . S
H461 C454 0.930 . S
C462 C463 1.351 . S
C462 N465 1.368 . S
C462 H467 0.931 . S
C463 C462 1.351 . S
C463 N464 1.373 . S
C463 H491 0.930 . S
N464 C463 1.373 . S
N464 C466 1.340 . S
N465 C462 1.368 . S
N465 C466 1.321 . S
N465 Co468 2.196 . S
C466 N464 1.340 . S
C466 N465 1.321 . S
C466 H490 0.930 . S
H467 C462 0.931 . S
Co468 N465 2.196 . S
Co468 N471 2.059 1_455 S
Co468 O476 2.054 . S
Co468 O479 2.049 . S
Co468 N482 2.136 1_455 S
C469 O470 1.227 . S
C469 O479 1.265 . S
O470 C469 1.227 . S
N471 Co468 2.059 1_655 S
N471 C473 1.375 . S
N471 C474 1.313 . S
C472 C473 1.338 . S
C472 N475 1.377 . S
C472 H492 0.930 . S
C473 N471 1.375 . S
C473 C472 1.338 . S
C473 H477 0.931 . S
C474 N471 1.313 . S
C474 N475 1.344 . S
C474 H478 0.930 . S
N475 C472 1.377 . S
N475 C474 1.344 . S
O476 Co468 2.054 . S
O476 C480 1.250 1_455 S
H477 C473 0.931 . S
H478 C474 0.930 . S
O479 Co468 2.049 . S
O479 C469 1.265 . S
C480 O476 1.250 1_655 S
C480 O481 1.227 . S
O481 C480 1.227 . S
N482 Co468 2.136 1_655 S
N482 C485 1.346 1_655 S
N482 C486 1.345 . S
C483 C484 1.387 1_655 S
C483 C487 1.391 . S
C484 C483 1.387 1_455 S
C484 C485 1.369 . S
C484 H493 0.929 . S
C485 N482 1.346 1_455 S
C485 C484 1.369 . S
C485 H488 0.928 . S
C486 N482 1.345 . S
C486 C487 1.371 . S
C486 H489 0.931 . S
C487 C483 1.391 . S
C487 C486 1.371 . S
C487 H494 0.930 . S
H488 C485 0.928 . S
H489 C486 0.931 . S
H490 C466 0.930 . S
H491 C463 0.930 . S
H492 C472 0.930 . S
H493 C484 0.929 . S
H494 C487 0.930 . S
C495 C496 1.351 . S
C495 N498 1.368 . S
C495 H500 0.931 . S
C496 C495 1.351 . S
C496 N497 1.373 . S
C496 H524 0.930 . S
N497 C496 1.373 . S
N497 C499 1.340 . S
N498 C495 1.368 . S
N498 C499 1.321 . S
N498 Co501 2.135 . S
C499 N497 1.340 . S
C499 N498 1.321 . S
C499 H523 0.930 . S
H500 C495 0.931 . S
Co501 N498 2.135 . S
Co501 N504 2.121 . S
Co501 O509 2.055 . S
Co501 O512 2.039 . S
Co501 N515 2.140 . S
C502 O503 1.227 . S
C502 O512 1.265 . S
O503 C502 1.227 . S
N504 Co501 2.121 . S
N504 C506 1.375 . S
N504 C507 1.313 . S
C505 C506 1.338 . S
C505 N508 1.377 . S
C505 H525 0.930 . S
C506 N504 1.375 . S
C506 C505 1.338 . S
C506 H510 0.931 . S
C507 N504 1.313 . S
C507 N508 1.344 . S
C507 H511 0.930 . S
N508 C505 1.377 . S
N508 C507 1.344 . S
O509 Co501 2.055 . S
O509 C513 1.253 . S
H510 C506 0.931 . S
H511 C507 0.930 . S
O512 Co501 2.039 . S
O512 C502 1.265 . S
C513 O509 1.253 . S
C513 O514 1.227 . S
O514 C513 1.227 . S
N515 Co501 2.140 . S
N515 C518 1.346 . S
N515 C519 1.345 . S
C516 C517 1.387 . S
C516 C520 1.391 . S
C517 C516 1.387 . S
C517 C518 1.369 . S
C517 H526 0.929 . S
C518 N515 1.346 . S
C518 C517 1.369 . S
C518 H521 0.928 . S
C519 N515 1.345 . S
C519 C520 1.371 . S
C519 H522 0.931 . S
C520 C516 1.391 . S
C520 C519 1.371 . S
C520 H527 0.930 . S
H521 C518 0.928 . S
H522 C519 0.931 . S
H523 C499 0.930 . S
H524 C496 0.930 . S
H525 C505 0.930 . S
H526 C517 0.929 . S
H527 C520 0.930 . S
C528 C529 1.351 . S
C528 N531 1.368 . S
C528 H533 0.931 . S
C529 C528 1.351 . S
C529 N530 1.373 . S
C529 H557 0.930 . S
N530 C529 1.373 . S
N530 C532 1.340 . S
N531 C528 1.368 . S
N531 C532 1.321 . S
N531 Co534 2.135 . S
C532 N530 1.340 . S
C532 N531 1.321 . S
C532 H556 0.930 . S
H533 C528 0.931 . S
Co534 N531 2.135 . S
Co534 N537 2.121 . S
Co534 O542 2.055 . S
Co534 O545 2.039 . S
Co534 N548 2.140 . S
C535 O536 1.227 . S
C535 O545 1.265 . S
O536 C535 1.227 . S
N537 Co534 2.121 . S
N537 C539 1.375 . S
N537 C540 1.313 . S
C538 C539 1.338 . S
C538 N541 1.377 . S
C538 H558 0.930 . S
C539 N537 1.375 . S
C539 C538 1.338 . S
C539 H543 0.931 . S
C540 N537 1.313 . S
C540 N541 1.344 . S
C540 H544 0.930 . S
N541 C538 1.377 . S
N541 C540 1.344 . S
O542 Co534 2.055 . S
O542 C546 1.253 . S
H543 C539 0.931 . S
H544 C540 0.930 . S
O545 Co534 2.039 . S
O545 C535 1.265 . S
C546 O542 1.253 . S
C546 O547 1.227 . S
O547 C546 1.227 . S
N548 Co534 2.140 . S
N548 C551 1.346 . S
N548 C552 1.345 . S
C549 C550 1.387 . S
C549 C553 1.391 . S
C550 C549 1.387 . S
C550 C551 1.369 . S
C550 H559 0.929 . S
C551 N548 1.346 . S
C551 C550 1.369 . S
C551 H554 0.928 . S
C552 N548 1.345 . S
C552 C553 1.371 . S
C552 H555 0.931 . S
C553 C549 1.391 . S
C553 C552 1.371 . S
C553 H560 0.930 . S
H554 C551 0.928 . S
H555 C552 0.931 . S
H556 C532 0.930 . S
H557 C529 0.930 . S
H558 C538 0.930 . S
H559 C550 0.929 . S
H560 C553 0.930 . S
C561 C562 1.351 . S
C561 N564 1.368 . S
C561 H566 0.931 . S
C562 C561 1.351 . S
C562 N563 1.373 . S
C562 H590 0.930 . S
N563 C562 1.373 . S
N563 C565 1.340 . S
N564 C561 1.368 . S
N564 C565 1.321 . S
N564 Co567 2.135 . S
C565 N563 1.340 . S
C565 N564 1.321 . S
C565 H589 0.930 . S
H566 C561 0.931 . S
Co567 N564 2.135 . S
Co567 N570 2.121 . S
Co567 O575 2.055 . S
Co567 O578 2.039 . S
Co567 N581 2.140 . S
C568 O569 1.227 . S
C568 O578 1.265 . S
O569 C568 1.227 . S
N570 Co567 2.121 . S
N570 C572 1.375 . S
N570 C573 1.313 . S
C571 C572 1.338 . S
C571 N574 1.377 . S
C571 H591 0.930 . S
C572 N570 1.375 . S
C572 C571 1.338 . S
C572 H576 0.931 . S
C573 N570 1.313 . S
C573 N574 1.344 . S
C573 H577 0.930 . S
N574 C571 1.377 . S
N574 C573 1.344 . S
O575 Co567 2.055 . S
O575 C579 1.253 . S
H576 C572 0.931 . S
H577 C573 0.930 . S
O578 Co567 2.039 . S
O578 C568 1.265 . S
C579 O575 1.253 . S
C579 O580 1.227 . S
O580 C579 1.227 . S
N581 Co567 2.140 . S
N581 C584 1.346 . S
N581 C585 1.345 . S
C582 C583 1.387 . S
C582 C586 1.391 . S
C583 C582 1.387 . S
C583 C584 1.369 . S
C583 H592 0.929 . S
C584 N581 1.346 . S
C584 C583 1.369 . S
C584 H587 0.928 . S
C585 N581 1.345 . S
C585 C586 1.371 . S
C585 H588 0.931 . S
C586 C582 1.391 . S
C586 C585 1.371 . S
C586 H593 0.930 . S
H587 C584 0.928 . S
H588 C585 0.931 . S
H589 C565 0.930 . S
H590 C562 0.930 . S
H591 C571 0.930 . S
H592 C583 0.929 . S
H593 C586 0.930 . S
C594 C595 1.351 . S
C594 N597 1.368 . S
C594 H599 0.931 . S
C595 C594 1.351 . S
C595 N596 1.373 . S
C595 H623 0.930 . S
N596 C595 1.373 . S
N596 C598 1.340 . S
N597 C594 1.368 . S
N597 C598 1.321 . S
N597 Co600 2.135 . S
C598 N596 1.340 . S
C598 N597 1.321 . S
C598 H622 0.930 . S
H599 C594 0.931 . S
Co600 N597 2.135 . S
Co600 N603 2.121 . S
Co600 O608 2.055 . S
Co600 O611 2.039 . S
Co600 N614 2.140 . S
C601 O602 1.227 . S
C601 O611 1.265 . S
O602 C601 1.227 . S
N603 Co600 2.121 . S
N603 C605 1.375 . S
N603 C606 1.313 . S
C604 C605 1.338 . S
C604 N607 1.377 . S
C604 H624 0.930 . S
C605 N603 1.375 . S
C605 C604 1.338 . S
C605 H609 0.931 . S
C606 N603 1.313 . S
C606 N607 1.344 . S
C606 H610 0.930 . S
N607 C604 1.377 . S
N607 C606 1.344 . S
O608 Co600 2.055 . S
O608 C612 1.253 . S
H609 C605 0.931 . S
H610 C606 0.930 . S
O611 Co600 2.039 . S
O611 C601 1.265 . S
C612 O608 1.253 . S
C612 O613 1.227 . S
O613 C612 1.227 . S
N614 Co600 2.140 . S
N614 C617 1.346 . S
N614 C618 1.345 . S
C615 C616 1.387 . S
C615 C619 1.391 . S
C616 C615 1.387 . S
C616 C617 1.369 . S
C616 H625 0.929 . S
C617 N614 1.346 . S
C617 C616 1.369 . S
C617 H620 0.928 . S
C618 N614 1.345 . S
C618 C619 1.371 . S
C618 H621 0.931 . S
C619 C615 1.391 . S
C619 C618 1.371 . S
C619 H626 0.930 . S
H620 C617 0.928 . S
H621 C618 0.931 . S
H622 C598 0.930 . S
H623 C595 0.930 . S
H624 C604 0.930 . S
H625 C616 0.929 . S
H626 C619 0.930 . S
C627 C628 1.351 . S
C627 N630 1.368 . S
C627 H632 0.931 . S
C628 C627 1.351 . S
C628 N629 1.373 . S
C628 H656 0.930 . S
N629 C628 1.373 . S
N629 C631 1.340 . S
N630 C627 1.368 . S
N630 C631 1.321 . S
N630 Co633 2.135 . S
C631 N629 1.340 . S
C631 N630 1.321 . S
C631 H655 0.930 . S
H632 C627 0.931 . S
Co633 N630 2.135 . S
Co633 N636 2.121 . S
Co633 O641 2.055 . S
Co633 O644 2.039 . S
Co633 N647 2.140 . S
C634 O635 1.227 . S
C634 O644 1.265 . S
O635 C634 1.227 . S
N636 Co633 2.121 . S
N636 C638 1.375 . S
N636 C639 1.313 . S
C637 C638 1.338 . S
C637 N640 1.377 . S
C637 H657 0.930 . S
C638 N636 1.375 . S
C638 C637 1.338 . S
C638 H642 0.931 . S
C639 N636 1.313 . S
C639 N640 1.344 . S
C639 H643 0.930 . S
N640 C637 1.377 . S
N640 C639 1.344 . S
O641 Co633 2.055 . S
O641 C645 1.253 . S
H642 C638 0.931 . S
H643 C639 0.930 . S
O644 Co633 2.039 . S
O644 C634 1.265 . S
C645 O641 1.253 . S
C645 O646 1.227 . S
O646 C645 1.227 . S
N647 Co633 2.140 . S
N647 C650 1.346 . S
N647 C651 1.345 . S
C648 C649 1.387 . S
C648 C652 1.391 . S
C649 C648 1.387 . S
C649 C650 1.369 . S
C649 H658 0.929 . S
C650 N647 1.346 . S
C650 C649 1.369 . S
C650 H653 0.928 . S
C651 N647 1.345 . S
C651 C652 1.371 . S
C651 H654 0.931 . S
C652 C648 1.391 . S
C652 C651 1.371 . S
C652 H659 0.930 . S
H653 C650 0.928 . S
H654 C651 0.931 . S
H655 C631 0.930 . S
H656 C628 0.930 . S
H657 C637 0.930 . S
H658 C649 0.929 . S
H659 C652 0.930 . S
C660 C661 1.351 . S
C660 N663 1.368 . S
C660 H665 0.931 . S
C661 C660 1.351 . S
C661 N662 1.373 . S
C661 H689 0.930 . S
N662 C661 1.373 . S
N662 C664 1.340 . S
N663 C660 1.368 . S
N663 C664 1.321 . S
N663 Co666 2.135 . S
C664 N662 1.340 . S
C664 N663 1.321 . S
C664 H688 0.930 . S
H665 C660 0.931 . S
Co666 N663 2.135 . S
Co666 N669 2.121 . S
Co666 O674 2.055 . S
Co666 O677 2.039 . S
Co666 N680 2.140 . S
C667 O668 1.227 . S
C667 O677 1.265 . S
O668 C667 1.227 . S
N669 Co666 2.121 . S
N669 C671 1.375 . S
N669 C672 1.313 . S
C670 C671 1.338 . S
C670 N673 1.377 . S
C670 H690 0.930 . S
C671 N669 1.375 . S
C671 C670 1.338 . S
C671 H675 0.931 . S
C672 N669 1.313 . S
C672 N673 1.344 . S
C672 H676 0.930 . S
N673 C670 1.377 . S
N673 C672 1.344 . S
O674 Co666 2.055 . S
O674 C678 1.253 . S
H675 C671 0.931 . S
H676 C672 0.930 . S
O677 Co666 2.039 . S
O677 C667 1.265 . S
C678 O674 1.253 . S
C678 O679 1.227 . S
O679 C678 1.227 . S
N680 Co666 2.140 . S
N680 C683 1.346 . S
N680 C684 1.345 . S
C681 C682 1.387 . S
C681 C685 1.391 . S
C682 C681 1.387 . S
C682 C683 1.369 . S
C682 H691 0.929 . S
C683 N680 1.346 . S
C683 C682 1.369 . S
C683 H686 0.928 . S
C684 N680 1.345 . S
C684 C685 1.371 . S
C684 H687 0.931 . S
C685 C681 1.391 . S
C685 C684 1.371 . S
C685 H692 0.930 . S
H686 C683 0.928 . S
H687 C684 0.931 . S
H688 C664 0.930 . S
H689 C661 0.930 . S
H690 C670 0.930 . S
H691 C682 0.929 . S
H692 C685 0.930 . S
C693 C694 1.351 . S
C693 N696 1.368 . S
C693 H698 0.931 . S
C694 C693 1.351 . S
C694 N695 1.373 . S
C694 H722 0.930 . S
N695 C694 1.373 . S
N695 C697 1.340 . S
N696 C693 1.368 . S
N696 C697 1.321 . S
N696 Co699 2.135 . S
C697 N695 1.340 . S
C697 N696 1.321 . S
C697 H721 0.930 . S
H698 C693 0.931 . S
Co699 N696 2.135 . S
Co699 N702 2.121 . S
Co699 O707 2.055 . S
Co699 O710 2.039 . S
Co699 N713 2.140 . S
C700 O701 1.227 . S
C700 O710 1.265 . S
O701 C700 1.227 . S
N702 Co699 2.121 . S
N702 C704 1.375 . S
N702 C705 1.313 . S
C703 C704 1.338 . S
C703 N706 1.377 . S
C703 H723 0.930 . S
C704 N702 1.375 . S
C704 C703 1.338 . S
C704 H708 0.931 . S
C705 N702 1.313 . S
C705 N706 1.344 . S
C705 H709 0.930 . S
N706 C703 1.377 . S
N706 C705 1.344 . S
O707 Co699 2.055 . S
O707 C711 1.253 . S
H708 C704 0.931 . S
H709 C705 0.930 . S
O710 Co699 2.039 . S
O710 C700 1.265 . S
C711 O707 1.253 . S
C711 O712 1.227 . S
O712 C711 1.227 . S
N713 Co699 2.140 . S
N713 C716 1.346 . S
N713 C717 1.345 . S
C714 C715 1.387 . S
C714 C718 1.391 . S
C715 C714 1.387 . S
C715 C716 1.369 . S
C715 H724 0.929 . S
C716 N713 1.346 . S
C716 C715 1.369 . S
C716 H719 0.928 . S
C717 N713 1.345 . S
C717 C718 1.371 . S
C717 H720 0.931 . S
C718 C714 1.391 . S
C718 C717 1.371 . S
C718 H725 0.930 . S
H719 C716 0.928 . S
H720 C717 0.931 . S
H721 C697 0.930 . S
H722 C694 0.930 . S
H723 C703 0.930 . S
H724 C715 0.929 . S
H725 C718 0.930 . S
C726 C727 1.351 . S
C726 N729 1.368 . S
C726 H731 0.931 . S
C727 C726 1.351 . S
C727 N728 1.373 . S
C727 H755 0.930 . S
N728 C727 1.373 . S
N728 C730 1.340 . S
N729 C726 1.368 . S
N729 C730 1.321 . S
N729 Co732 2.135 . S
C730 N728 1.340 . S
C730 N729 1.321 . S
C730 H754 0.930 . S
H731 C726 0.931 . S
Co732 N729 2.135 . S
Co732 N735 2.121 . S
Co732 O740 2.055 . S
Co732 O743 2.039 . S
Co732 N746 2.140 . S
C733 O734 1.227 . S
C733 O743 1.265 . S
O734 C733 1.227 . S
N735 Co732 2.121 . S
N735 C737 1.375 . S
N735 C738 1.313 . S
C736 C737 1.338 . S
C736 N739 1.377 . S
C736 H756 0.930 . S
C737 N735 1.375 . S
C737 C736 1.338 . S
C737 H741 0.931 . S
C738 N735 1.313 . S
C738 N739 1.344 . S
C738 H742 0.930 . S
N739 C736 1.377 . S
N739 C738 1.344 . S
O740 Co732 2.055 . S
O740 C744 1.253 . S
H741 C737 0.931 . S
H742 C738 0.930 . S
O743 Co732 2.039 . S
O743 C733 1.265 . S
C744 O740 1.253 . S
C744 O745 1.227 . S
O745 C744 1.227 . S
N746 Co732 2.140 . S
N746 C749 1.346 . S
N746 C750 1.345 . S
C747 C748 1.387 . S
C747 C751 1.391 . S
C748 C747 1.387 . S
C748 C749 1.369 . S
C748 H757 0.929 . S
C749 N746 1.346 . S
C749 C748 1.369 . S
C749 H752 0.928 . S
C750 N746 1.345 . S
C750 C751 1.371 . S
C750 H753 0.931 . S
C751 C747 1.391 . S
C751 C750 1.371 . S
C751 H758 0.930 . S
H752 C749 0.928 . S
H753 C750 0.931 . S
H754 C730 0.930 . S
H755 C727 0.930 . S
H756 C736 0.930 . S
H757 C748 0.929 . S
H758 C751 0.930 . S
C759 C760 1.351 . S
C759 N762 1.368 . S
C759 H764 0.931 . S
C760 C759 1.351 . S
C760 N761 1.373 . S
C760 H788 0.930 . S
N761 C760 1.373 . S
N761 C763 1.340 . S
N762 C759 1.368 . S
N762 C763 1.321 . S
N762 Co765 2.135 . S
C763 N761 1.340 . S
C763 N762 1.321 . S
C763 H787 0.930 . S
H764 C759 0.931 . S
Co765 N762 2.135 . S
Co765 N768 2.121 . S
Co765 O773 2.055 . S
Co765 O776 2.039 . S
Co765 N779 2.140 . S
C766 O767 1.227 . S
C766 O776 1.265 . S
O767 C766 1.227 . S
N768 Co765 2.121 . S
N768 C770 1.375 . S
N768 C771 1.313 . S
C769 C770 1.338 . S
C769 N772 1.377 . S
C769 H789 0.930 . S
C770 N768 1.375 . S
C770 C769 1.338 . S
C770 H774 0.931 . S
C771 N768 1.313 . S
C771 N772 1.344 . S
C771 H775 0.930 . S
N772 C769 1.377 . S
N772 C771 1.344 . S
O773 Co765 2.055 . S
O773 C777 1.253 . S
H774 C770 0.931 . S
H775 C771 0.930 . S
O776 Co765 2.039 . S
O776 C766 1.265 . S
C777 O773 1.253 . S
C777 O778 1.227 . S
O778 C777 1.227 . S
N779 Co765 2.140 . S
N779 C782 1.346 . S
N779 C783 1.345 . S
C780 C781 1.387 . S
C780 C784 1.391 . S
C781 C780 1.387 . S
C781 C782 1.369 . S
C781 H790 0.929 . S
C782 N779 1.346 . S
C782 C781 1.369 . S
C782 H785 0.928 . S
C783 N779 1.345 . S
C783 C784 1.371 . S
C783 H786 0.931 . S
C784 C780 1.391 . S
C784 C783 1.371 . S
C784 H791 0.930 . S
H785 C782 0.928 . S
H786 C783 0.931 . S
H787 C763 0.930 . S
H788 C760 0.930 . S
H789 C769 0.930 . S
H790 C781 0.929 . S
H791 C784 0.930 . S
C792 C793 1.351 . S
C792 N795 1.368 . S
C792 H797 0.931 . S
C793 C792 1.351 . S
C793 N794 1.373 . S
C793 H821 0.930 . S
N794 C793 1.373 . S
N794 C796 1.340 . S
N795 C792 1.368 . S
N795 C796 1.321 . S
N795 Co798 2.135 . S
C796 N794 1.340 . S
C796 N795 1.321 . S
C796 H820 0.930 . S
H797 C792 0.931 . S
Co798 N795 2.135 . S
Co798 N801 2.121 . S
Co798 O806 2.055 . S
Co798 O809 2.039 . S
Co798 N812 2.140 . S
C799 O800 1.227 . S
C799 O809 1.265 . S
O800 C799 1.227 . S
N801 Co798 2.121 . S
N801 C803 1.375 . S
N801 C804 1.313 . S
C802 C803 1.338 . S
C802 N805 1.377 . S
C802 H822 0.930 . S
C803 N801 1.375 . S
C803 C802 1.338 . S
C803 H807 0.931 . S
C804 N801 1.313 . S
C804 N805 1.344 . S
C804 H808 0.930 . S
N805 C802 1.377 . S
N805 C804 1.344 . S
O806 Co798 2.055 . S
O806 C810 1.253 . S
H807 C803 0.931 . S
H808 C804 0.930 . S
O809 Co798 2.039 . S
O809 C799 1.265 . S
C810 O806 1.253 . S
C810 O811 1.227 . S
O811 C810 1.227 . S
N812 Co798 2.140 . S
N812 C815 1.346 . S
N812 C816 1.345 . S
C813 C814 1.387 . S
C813 C817 1.391 . S
C814 C813 1.387 . S
C814 C815 1.369 . S
C814 H823 0.929 . S
C815 N812 1.346 . S
C815 C814 1.369 . S
C815 H818 0.928 . S
C816 N812 1.345 . S
C816 C817 1.371 . S
C816 H819 0.931 . S
C817 C813 1.391 . S
C817 C816 1.371 . S
C817 H824 0.930 . S
H818 C815 0.928 . S
H819 C816 0.931 . S
H820 C796 0.930 . S
H821 C793 0.930 . S
H822 C802 0.930 . S
H823 C814 0.929 . S
H824 C817 0.930 . S
C825 C826 1.351 . S
C825 N828 1.368 . S
C825 H830 0.931 . S
C826 C825 1.351 . S
C826 N827 1.373 . S
C826 H854 0.930 . S
N827 C826 1.373 . S
N827 C829 1.340 . S
N828 C825 1.368 . S
N828 C829 1.321 . S
N828 Co831 2.135 . S
C829 N827 1.340 . S
C829 N828 1.321 . S
C829 H853 0.930 . S
H830 C825 0.931 . S
Co831 N828 2.135 . S
Co831 N834 2.121 . S
Co831 O839 2.055 . S
Co831 O842 2.039 . S
Co831 N845 2.140 . S
C832 O833 1.227 . S
C832 O842 1.265 . S
O833 C832 1.227 . S
N834 Co831 2.121 . S
N834 C836 1.375 . S
N834 C837 1.313 . S
C835 C836 1.338 . S
C835 N838 1.377 . S
C835 H855 0.930 . S
C836 N834 1.375 . S
C836 C835 1.338 . S
C836 H840 0.931 . S
C837 N834 1.313 . S
C837 N838 1.344 . S
C837 H841 0.930 . S
N838 C835 1.377 . S
N838 C837 1.344 . S
O839 Co831 2.055 . S
O839 C843 1.253 . S
H840 C836 0.931 . S
H841 C837 0.930 . S
O842 Co831 2.039 . S
O842 C832 1.265 . S
C843 O839 1.253 . S
C843 O844 1.227 . S
O844 C843 1.227 . S
N845 Co831 2.140 . S
N845 C848 1.346 . S
N845 C849 1.345 . S
C846 C847 1.387 . S
C846 C850 1.391 . S
C847 C846 1.387 . S
C847 C848 1.369 . S
C847 H856 0.929 . S
C848 N845 1.346 . S
C848 C847 1.369 . S
C848 H851 0.928 . S
C849 N845 1.345 . S
C849 C850 1.371 . S
C849 H852 0.931 . S
C850 C846 1.391 . S
C850 C849 1.371 . S
C850 H857 0.930 . S
H851 C848 0.928 . S
H852 C849 0.931 . S
H853 C829 0.930 . S
H854 C826 0.930 . S
H855 C835 0.930 . S
H856 C847 0.929 . S
H857 C850 0.930 . S
C858 C859 1.351 . S
C858 N861 1.368 . S
C858 H863 0.931 . S
C859 C858 1.351 . S
C859 N860 1.373 . S
C859 H887 0.930 . S
N860 C859 1.373 . S
N860 C862 1.340 . S
N861 C858 1.368 . S
N861 C862 1.321 . S
N861 Co864 2.135 . S
C862 N860 1.340 . S
C862 N861 1.321 . S
C862 H886 0.930 . S
H863 C858 0.931 . S
Co864 N861 2.135 . S
Co864 N867 2.121 . S
Co864 O872 2.055 . S
Co864 O875 2.039 . S
Co864 N878 2.140 . S
C865 O866 1.227 . S
C865 O875 1.265 . S
O866 C865 1.227 . S
N867 Co864 2.121 . S
N867 C869 1.375 . S
N867 C870 1.313 . S
C868 C869 1.338 . S
C868 N871 1.377 . S
C868 H888 0.930 . S
C869 N867 1.375 . S
C869 C868 1.338 . S
C869 H873 0.931 . S
C870 N867 1.313 . S
C870 N871 1.344 . S
C870 H874 0.930 . S
N871 C868 1.377 . S
N871 C870 1.344 . S
O872 Co864 2.055 . S
O872 C876 1.253 . S
H873 C869 0.931 . S
H874 C870 0.930 . S
O875 Co864 2.039 . S
O875 C865 1.265 . S
C876 O872 1.253 . S
C876 O877 1.227 . S
O877 C876 1.227 . S
N878 Co864 2.140 . S
N878 C881 1.346 . S
N878 C882 1.345 . S
C879 C880 1.387 . S
C879 C883 1.391 . S
C880 C879 1.387 . S
C880 C881 1.369 . S
C880 H889 0.929 . S
C881 N878 1.346 . S
C881 C880 1.369 . S
C881 H884 0.928 . S
C882 N878 1.345 . S
C882 C883 1.371 . S
C882 H885 0.931 . S
C883 C879 1.391 . S
C883 C882 1.371 . S
C883 H890 0.930 . S
H884 C881 0.928 . S
H885 C882 0.931 . S
H886 C862 0.930 . S
H887 C859 0.930 . S
H888 C868 0.930 . S
H889 C880 0.929 . S
H890 C883 0.930 . S
C891 C892 1.351 . S
C891 N894 1.368 . S
C891 H896 0.931 . S
C892 C891 1.351 . S
C892 N893 1.373 . S
C892 H920 0.930 . S
N893 C892 1.373 . S
N893 C895 1.340 . S
N894 C891 1.368 . S
N894 C895 1.321 . S
N894 Co897 2.135 . S
C895 N893 1.340 . S
C895 N894 1.321 . S
C895 H919 0.930 . S
H896 C891 0.931 . S
Co897 N894 2.135 . S
Co897 N900 2.121 . S
Co897 O905 2.055 . S
Co897 O908 2.039 . S
Co897 N911 2.140 . S
C898 O899 1.227 . S
C898 O908 1.265 . S
O899 C898 1.227 . S
N900 Co897 2.121 . S
N900 C902 1.375 . S
N900 C903 1.313 . S
C901 C902 1.338 . S
C901 N904 1.377 . S
C901 H921 0.930 . S
C902 N900 1.375 . S
C902 C901 1.338 . S
C902 H906 0.931 . S
C903 N900 1.313 . S
C903 N904 1.344 . S
C903 H907 0.930 . S
N904 C901 1.377 . S
N904 C903 1.344 . S
O905 Co897 2.055 . S
O905 C909 1.253 . S
H906 C902 0.931 . S
H907 C903 0.930 . S
O908 Co897 2.039 . S
O908 C898 1.265 . S
C909 O905 1.253 . S
C909 O910 1.227 . S
O910 C909 1.227 . S
N911 Co897 2.140 . S
N911 C914 1.346 . S
N911 C915 1.345 . S
C912 C913 1.387 . S
C912 C916 1.391 . S
C913 C912 1.387 . S
C913 C914 1.369 . S
C913 H922 0.929 . S
C914 N911 1.346 . S
C914 C913 1.369 . S
C914 H917 0.928 . S
C915 N911 1.345 . S
C915 C916 1.371 . S
C915 H918 0.931 . S
C916 C912 1.391 . S
C916 C915 1.371 . S
C916 H923 0.930 . S
H917 C914 0.928 . S
H918 C915 0.931 . S
H919 C895 0.930 . S
H920 C892 0.930 . S
H921 C901 0.930 . S
H922 C913 0.929 . S
H923 C916 0.930 . S
C924 C925 1.351 . S
C924 N927 1.368 . S
C924 H929 0.931 . S
C925 C924 1.351 . S
C925 N926 1.373 . S
C925 H953 0.930 . S
N926 C925 1.373 . S
N926 C928 1.340 . S
N927 C924 1.368 . S
N927 C928 1.321 . S
N927 Co930 2.135 . S
C928 N926 1.340 . S
C928 N927 1.321 . S
C928 H952 0.930 . S
H929 C924 0.931 . S
Co930 N927 2.135 . S
Co930 N933 2.121 . S
Co930 O938 2.055 . S
Co930 O941 2.039 . S
Co930 N944 2.140 . S
C931 O932 1.227 . S
C931 O941 1.265 . S
O932 C931 1.227 . S
N933 Co930 2.121 . S
N933 C935 1.375 . S
N933 C936 1.313 . S
C934 C935 1.338 . S
C934 N937 1.377 . S
C934 H954 0.930 . S
C935 N933 1.375 . S
C935 C934 1.338 . S
C935 H939 0.931 . S
C936 N933 1.313 . S
C936 N937 1.344 . S
C936 H940 0.930 . S
N937 C934 1.377 . S
N937 C936 1.344 . S
O938 Co930 2.055 . S
O938 C942 1.253 . S
H939 C935 0.931 . S
H940 C936 0.930 . S
O941 Co930 2.039 . S
O941 C931 1.265 . S
C942 O938 1.253 . S
C942 O943 1.227 . S
O943 C942 1.227 . S
N944 Co930 2.140 . S
N944 C947 1.346 . S
N944 C948 1.345 . S
C945 C946 1.387 . S
C945 C949 1.391 . S
C946 C945 1.387 . S
C946 C947 1.369 . S
C946 H955 0.929 . S
C947 N944 1.346 . S
C947 C946 1.369 . S
C947 H950 0.928 . S
C948 N944 1.345 . S
C948 C949 1.371 . S
C948 H951 0.931 . S
C949 C945 1.391 . S
C949 C948 1.371 . S
C949 H956 0.930 . S
H950 C947 0.928 . S
H951 C948 0.931 . S
H952 C928 0.930 . S
H953 C925 0.930 . S
H954 C934 0.930 . S
H955 C946 0.929 . S
H956 C949 0.930 . S
C957 C958 1.351 . S
C957 N960 1.368 . S
C957 H962 0.931 . S
C958 C957 1.351 . S
C958 N959 1.373 . S
C958 H986 0.930 . S
N959 C958 1.373 . S
N959 C961 1.340 . S
N960 C957 1.368 . S
N960 C961 1.321 . S
N960 Co963 2.135 . S
C961 N959 1.340 . S
C961 N960 1.321 . S
C961 H985 0.930 . S
H962 C957 0.931 . S
Co963 N960 2.135 . S
Co963 N966 2.121 . S
Co963 O971 2.055 . S
Co963 O974 2.039 . S
Co963 N977 2.140 . S
C964 O965 1.227 . S
C964 O974 1.265 . S
O965 C964 1.227 . S
N966 Co963 2.121 . S
N966 C968 1.375 . S
N966 C969 1.313 . S
C967 C968 1.338 . S
C967 N970 1.377 . S
C967 H987 0.930 . S
C968 N966 1.375 . S
C968 C967 1.338 . S
C968 H972 0.931 . S
C969 N966 1.313 . S
C969 N970 1.344 . S
C969 H973 0.930 . S
N970 C967 1.377 . S
N970 C969 1.344 . S
O971 Co963 2.055 . S
O971 C975 1.253 . S
H972 C968 0.931 . S
H973 C969 0.930 . S
O974 Co963 2.039 . S
O974 C964 1.265 . S
C975 O971 1.253 . S
C975 O976 1.227 . S
O976 C975 1.227 . S
N977 Co963 2.140 . S
N977 C980 1.346 . S
N977 C981 1.345 . S
C978 C979 1.387 . S
C978 C982 1.391 . S
C979 C978 1.387 . S
C979 C980 1.369 . S
C979 H988 0.929 . S
C980 N977 1.346 . S
C980 C979 1.369 . S
C980 H983 0.928 . S
C981 N977 1.345 . S
C981 C982 1.371 . S
C981 H984 0.931 . S
C982 C978 1.391 . S
C982 C981 1.371 . S
C982 H989 0.930 . S
H983 C980 0.928 . S
H984 C981 0.931 . S
H985 C961 0.930 . S
H986 C958 0.930 . S
H987 C967 0.930 . S
H988 C979 0.929 . S
H989 C982 0.930 . S
C990 C991 1.351 . S
C990 N993 1.368 . S
C990 H995 0.931 . S
C991 C990 1.351 . S
C991 N992 1.373 . S
C991 H1019 0.930 . S
N992 C991 1.373 . S
N992 C994 1.340 . S
N993 C990 1.368 . S
N993 C994 1.321 . S
N993 Co996 2.135 . S
C994 N992 1.340 . S
C994 N993 1.321 . S
C994 H1018 0.930 . S
H995 C990 0.931 . S
Co996 N993 2.135 . S
Co996 N999 2.121 . S
Co996 O1004 2.055 . S
Co996 O1007 2.039 . S
Co996 N1010 2.140 . S
C997 O998 1.227 . S
C997 O1007 1.265 . S
O998 C997 1.227 . S
N999 Co996 2.121 . S
N999 C1001 1.375 . S
N999 C1002 1.313 . S
C1000 C1001 1.338 . S
C1000 N1003 1.377 . S
C1000 H1020 0.930 . S
C1001 N999 1.375 . S
C1001 C1000 1.338 . S
C1001 H1005 0.931 . S
C1002 N999 1.313 . S
C1002 N1003 1.344 . S
C1002 H1006 0.930 . S
N1003 C1000 1.377 . S
N1003 C1002 1.344 . S
O1004 Co996 2.055 . S
O1004 C1008 1.253 . S
H1005 C1001 0.931 . S
H1006 C1002 0.930 . S
O1007 Co996 2.039 . S
O1007 C997 1.265 . S
C1008 O1004 1.253 . S
C1008 O1009 1.227 . S
O1009 C1008 1.227 . S
N1010 Co996 2.140 . S
N1010 C1013 1.346 . S
N1010 C1014 1.345 . S
C1011 C1012 1.387 . S
C1011 C1015 1.391 . S
C1012 C1011 1.387 . S
C1012 C1013 1.369 . S
C1012 H1021 0.929 . S
C1013 N1010 1.346 . S
C1013 C1012 1.369 . S
C1013 H1016 0.928 . S
C1014 N1010 1.345 . S
C1014 C1015 1.371 . S
C1014 H1017 0.931 . S
C1015 C1011 1.391 . S
C1015 C1014 1.371 . S
C1015 H1022 0.930 . S
H1016 C1013 0.928 . S
H1017 C1014 0.931 . S
H1018 C994 0.930 . S
H1019 C991 0.930 . S
H1020 C1000 0.930 . S
H1021 C1012 0.929 . S
H1022 C1015 0.930 . S
C1023 C1024 1.351 . S
C1023 N1026 1.368 . S
C1023 H1028 0.931 . S
C1024 C1023 1.351 . S
C1024 N1025 1.373 . S
C1024 H1052 0.930 . S
N1025 C1024 1.373 . S
N1025 C1027 1.340 . S
N1026 C1023 1.368 . S
N1026 C1027 1.321 . S
N1026 Co1029 2.135 . S
C1027 N1025 1.340 . S
C1027 N1026 1.321 . S
C1027 H1051 0.930 . S
H1028 C1023 0.931 . S
Co1029 N1026 2.135 . S
Co1029 N1032 2.121 . S
Co1029 O1037 2.055 . S
Co1029 O1040 2.039 . S
Co1029 N1043 2.140 . S
C1030 O1031 1.227 . S
C1030 O1040 1.265 . S
O1031 C1030 1.227 . S
N1032 Co1029 2.121 . S
N1032 C1034 1.375 . S
N1032 C1035 1.313 . S
C1033 C1034 1.338 . S
C1033 N1036 1.377 . S
C1033 H1053 0.930 . S
C1034 N1032 1.375 . S
C1034 C1033 1.338 . S
C1034 H1038 0.931 . S
C1035 N1032 1.313 . S
C1035 N1036 1.344 . S
C1035 H1039 0.930 . S
N1036 C1033 1.377 . S
N1036 C1035 1.344 . S
O1037 Co1029 2.055 . S
O1037 C1041 1.253 . S
H1038 C1034 0.931 . S
H1039 C1035 0.930 . S
O1040 Co1029 2.039 . S
O1040 C1030 1.265 . S
C1041 O1037 1.253 . S
C1041 O1042 1.227 . S
O1042 C1041 1.227 . S
N1043 Co1029 2.140 . S
N1043 C1046 1.346 . S
N1043 C1047 1.345 . S
C1044 C1045 1.387 . S
C1044 C1048 1.391 . S
C1045 C1044 1.387 . S
C1045 C1046 1.369 . S
C1045 H1054 0.929 . S
C1046 N1043 1.346 . S
C1046 C1045 1.369 . S
C1046 H1049 0.928 . S
C1047 N1043 1.345 . S
C1047 C1048 1.371 . S
C1047 H1050 0.931 . S
C1048 C1044 1.391 . S
C1048 C1047 1.371 . S
C1048 H1055 0.930 . S
H1049 C1046 0.928 . S
H1050 C1047 0.931 . S
H1051 C1027 0.930 . S
H1052 C1024 0.930 . S
H1053 C1033 0.930 . S
H1054 C1045 0.929 . S
H1055 C1048 0.930 . S
H1056 C1068 0.930 . S
H1057 C1070 0.930 . S
H1058 C1071 0.930 . S
H1059 C1075 0.959 . S
H1060 C1075 0.959 . S
H1061 C1075 0.961 . S
H1062 C1076 0.960 . S
H1063 C1076 0.961 . S
H1064 C1076 0.959 . S
H1065 C1079 0.929 . S
H1066 C1080 0.931 . S
H1067 C1082 0.930 . S
C1068 H1056 0.930 . S
C1068 C1069 1.399 . S
C1068 C1073 1.399 . S
C1069 C1068 1.399 . S
C1069 C1070 1.376 . S
C1070 H1057 0.930 . S
C1070 C1069 1.376 . S
C1070 C1071 1.388 . S
C1071 H1058 0.930 . S
C1071 C1070 1.388 . S
C1071 C1072 1.390 . S
C1072 C1071 1.390 . S
C1072 C1073 1.394 . S
C1072 C1078 1.465 . S
C1073 C1068 1.399 . S
C1073 C1072 1.394 . S
C1073 C1074 1.516 . S
C1074 C1073 1.516 . S
C1074 C1075 1.502 . S
C1074 C1076 1.561 1_655 S
C1074 C1077 1.526 . S
C1075 H1059 0.959 . S
C1075 H1060 0.959 . S
C1075 H1061 0.961 . S
C1075 C1074 1.502 . S
C1076 H1062 0.960 . S
C1076 H1063 0.961 . S
C1076 H1064 0.959 . S
C1076 C1074 1.561 1_455 S
C1077 C1074 1.526 . S
C1077 C1078 1.396 . S
C1077 C1082 1.390 . S
C1078 C1072 1.465 . S
C1078 C1077 1.396 . S
C1078 C1079 1.399 . S
C1079 H1065 0.929 . S
C1079 C1078 1.399 . S
C1079 C1080 1.385 . S
C1080 H1066 0.931 . S
C1080 C1079 1.385 . S
C1080 C1081 1.389 . S
C1081 C1080 1.389 . S
C1081 C1082 1.387 . S
C1082 H1067 0.930 . S
C1082 C1077 1.390 . S
C1082 C1081 1.387 . S
H1083 C1095 0.930 . S
H1084 C1097 0.930 . S
H1085 C1098 0.930 . S
H1086 C1102 0.959 . S
H1087 C1102 0.959 . S
H1088 C1102 0.961 . S
H1089 C1103 0.960 . S
H1090 C1103 0.961 . S
H1091 C1103 0.959 . S
H1092 C1106 0.929 . S
H1093 C1107 0.931 . S
H1094 C1109 0.930 . S
C1095 H1083 0.930 . S
C1095 C1096 1.399 . S
C1095 C1100 1.399 . S
C1096 C1095 1.399 . S
C1096 C1097 1.376 . S
C1097 H1084 0.930 . S
C1097 C1096 1.376 . S
C1097 C1098 1.388 . S
C1098 H1085 0.930 . S
C1098 C1097 1.388 . S
C1098 C1099 1.390 . S
C1099 C1098 1.390 . S
C1099 C1100 1.394 . S
C1099 C1105 1.465 . S
C1100 C1095 1.399 . S
C1100 C1099 1.394 . S
C1100 C1101 1.516 . S
C1101 C1100 1.516 . S
C1101 C1102 1.502 . S
C1101 C1103 1.561 . S
C1101 C1104 1.526 . S
C1102 H1086 0.959 . S
C1102 H1087 0.959 . S
C1102 H1088 0.961 . S
C1102 C1101 1.502 . S
C1103 H1089 0.960 . S
C1103 H1090 0.961 . S
C1103 H1091 0.959 . S
C1103 C1101 1.561 . S
C1104 C1101 1.526 . S
C1104 C1105 1.396 . S
C1104 C1109 1.390 . S
C1105 C1099 1.465 . S
C1105 C1104 1.396 . S
C1105 C1106 1.399 . S
C1106 H1092 0.929 . S
C1106 C1105 1.399 . S
C1106 C1107 1.385 . S
C1107 H1093 0.931 . S
C1107 C1106 1.385 . S
C1107 C1108 1.389 . S
C1108 C1107 1.389 . S
C1108 C1109 1.387 . S
C1109 H1094 0.930 . S
C1109 C1104 1.390 . S
C1109 C1108 1.387 . S
H1110 C1122 0.930 . S
H1111 C1124 0.930 . S
H1112 C1125 0.930 . S
H1113 C1129 0.959 . S
H1114 C1129 0.959 . S
H1115 C1129 0.961 . S
H1116 C1130 0.960 . S
H1117 C1130 0.961 . S
H1118 C1130 0.959 . S
H1119 C1133 0.929 . S
H1120 C1134 0.931 . S
H1121 C1136 0.930 . S
C1122 H1110 0.930 . S
C1122 C1123 1.399 . S
C1122 C1127 1.399 . S
C1123 C1122 1.399 . S
C1123 C1124 1.376 . S
C1124 H1111 0.930 . S
C1124 C1123 1.376 . S
C1124 C1125 1.388 . S
C1125 H1112 0.930 . S
C1125 C1124 1.388 . S
C1125 C1126 1.390 . S
C1126 C1125 1.390 . S
C1126 C1127 1.394 . S
C1126 C1132 1.465 . S
C1127 C1122 1.399 . S
C1127 C1126 1.394 . S
C1127 C1128 1.515 . S
C1128 C1127 1.515 . S
C1128 C1129 1.499 . S
C1128 C1130 1.566 1_455 S
C1128 C1131 1.525 . S
C1129 H1113 0.959 . S
C1129 H1114 0.959 . S
C1129 H1115 0.961 . S
C1129 C1128 1.499 . S
C1130 H1116 0.960 . S
C1130 H1117 0.961 . S
C1130 H1118 0.959 . S
C1130 C1128 1.566 1_655 S
C1131 C1128 1.525 . S
C1131 C1132 1.396 . S
C1131 C1136 1.390 . S
C1132 C1126 1.465 . S
C1132 C1131 1.396 . S
C1132 C1133 1.399 . S
C1133 H1119 0.929 . S
C1133 C1132 1.399 . S
C1133 C1134 1.385 . S
C1134 H1120 0.931 . S
C1134 C1133 1.385 . S
C1134 C1135 1.389 . S
C1135 C1134 1.389 . S
C1135 C1136 1.387 . S
C1136 H1121 0.930 . S
C1136 C1131 1.390 . S
C1136 C1135 1.387 . S
H1137 C1149 0.930 . S
H1138 C1151 0.930 . S
H1139 C1152 0.930 . S
H1140 C1156 0.959 . S
H1141 C1156 0.959 . S
H1142 C1156 0.961 . S
H1143 C1157 0.960 . S
H1144 C1157 0.961 . S
H1145 C1157 0.959 . S
H1146 C1160 0.929 . S
H1147 C1161 0.931 . S
H1148 C1163 0.930 . S
C1149 H1137 0.930 . S
C1149 C1150 1.399 . S
C1149 C1154 1.399 . S
C1150 C1149 1.399 . S
C1150 C1151 1.376 . S
C1151 H1138 0.930 . S
C1151 C1150 1.376 . S
C1151 C1152 1.388 . S
C1152 H1139 0.930 . S
C1152 C1151 1.388 . S
C1152 C1153 1.390 . S
C1153 C1152 1.390 . S
C1153 C1154 1.394 . S
C1153 C1159 1.465 . S
C1154 C1149 1.399 . S
C1154 C1153 1.394 . S
C1154 C1155 1.516 . S
C1155 C1154 1.516 . S
C1155 C1156 1.502 . S
C1155 C1157 1.561 . S
C1155 C1158 1.526 . S
C1156 H1140 0.959 . S
C1156 H1141 0.959 . S
C1156 H1142 0.961 . S
C1156 C1155 1.502 . S
C1157 H1143 0.960 . S
C1157 H1144 0.961 . S
C1157 H1145 0.959 . S
C1157 C1155 1.561 . S
C1158 C1155 1.526 . S
C1158 C1159 1.396 . S
C1158 C1163 1.390 . S
C1159 C1153 1.465 . S
C1159 C1158 1.396 . S
C1159 C1160 1.399 . S
C1160 H1146 0.929 . S
C1160 C1159 1.399 . S
C1160 C1161 1.385 . S
C1161 H1147 0.931 . S
C1161 C1160 1.385 . S
C1161 C1162 1.389 . S
C1162 C1161 1.389 . S
C1162 C1163 1.387 . S
C1163 H1148 0.930 . S
C1163 C1158 1.390 . S
C1163 C1162 1.387 . S
H1164 C1176 0.930 . S
H1165 C1178 0.930 . S
H1166 C1179 0.930 . S
H1167 C1183 0.959 . S
H1168 C1183 0.959 . S
H1169 C1183 0.961 . S
H1170 C1184 0.960 . S
H1171 C1184 0.961 . S
H1172 C1184 0.959 1_455 S
H1173 C1187 0.929 . S
H1174 C1188 0.931 . S
H1175 C1190 0.930 . S
C1176 H1164 0.930 . S
C1176 C1177 1.399 . S
C1176 C1181 1.399 . S
C1177 C1176 1.399 . S
C1177 C1178 1.376 1_655 S
C1178 H1165 0.930 . S
C1178 C1177 1.376 1_455 S
C1178 C1179 1.388 . S
C1179 H1166 0.930 . S
C1179 C1178 1.388 . S
C1179 C1180 1.390 1_455 S
C1180 C1179 1.390 1_655 S
C1180 C1181 1.394 . S
C1180 C1186 1.465 . S
C1181 C1176 1.399 . S
C1181 C1180 1.394 . S
C1181 C1182 1.516 . S
C1182 C1181 1.516 . S
C1182 C1183 1.502 . S
C1182 C1184 1.561 . S
C1182 C1185 1.526 . S
C1183 H1167 0.959 . S
C1183 H1168 0.959 . S
C1183 H1169 0.961 . S
C1183 C1182 1.502 . S
C1184 H1170 0.960 . S
C1184 H1171 0.961 . S
C1184 H1172 0.959 1_655 S
C1184 C1182 1.561 . S
C1185 C1182 1.526 . S
C1185 C1186 1.396 . S
C1185 C1190 1.390 . S
C1186 C1180 1.465 . S
C1186 C1185 1.396 . S
C1186 C1187 1.399 1_655 S
C1187 H1173 0.929 . S
C1187 C1186 1.399 1_455 S
C1187 C1188 1.385 . S
C1188 H1174 0.931 . S
C1188 C1187 1.385 . S
C1188 C1189 1.389 1_455 S
C1189 C1188 1.389 1_655 S
C1189 C1190 1.387 . S
C1190 H1175 0.930 . S
C1190 C1185 1.390 . S
C1190 C1189 1.387 . S
H1191 C1203 0.930 . S
H1192 C1205 0.911 1_556 S
H1193 C1206 0.930 . S
H1194 C1210 0.959 . S
H1195 C1210 0.959 . S
H1196 C1210 0.961 . S
H1197 C1211 0.960 . S
H1198 C1211 0.961 . S
H1199 C1211 0.959 . S
H1200 C1214 0.929 . S
H1201 C1215 0.931 . S
H1202 C1217 0.930 . S
C1203 H1191 0.930 . S
C1203 C1204 1.399 . S
C1203 C1208 1.399 . S
C1204 C1203 1.399 . S
C1204 C1205 1.377 . S
C1205 H1192 0.911 1_554 S
C1205 C1204 1.377 . S
C1205 C1206 1.408 . S
C1206 H1193 0.930 . S
C1206 C1205 1.408 . S
C1206 C1207 1.390 . S
C1207 C1206 1.390 . S
C1207 C1208 1.394 . S
C1207 C1213 1.465 . S
C1208 C1203 1.399 . S
C1208 C1207 1.394 . S
C1208 C1209 1.516 . S
C1209 C1208 1.516 . S
C1209 C1210 1.502 . S
C1209 C1211 1.561 . S
C1209 C1212 1.526 . S
C1210 H1194 0.959 . S
C1210 H1195 0.959 . S
C1210 H1196 0.961 . S
C1210 C1209 1.502 . S
C1211 H1197 0.960 . S
C1211 H1198 0.961 . S
C1211 H1199 0.959 . S
C1211 C1209 1.561 . S
C1212 C1209 1.526 . S
C1212 C1213 1.396 . S
C1212 C1217 1.390 . S
C1213 C1207 1.465 . S
C1213 C1212 1.396 . S
C1213 C1214 1.399 . S
C1214 H1200 0.929 . S
C1214 C1213 1.399 . S
C1214 C1215 1.385 . S
C1215 H1201 0.931 . S
C1215 C1214 1.385 . S
C1215 C1216 1.389 . S
C1216 C1215 1.389 . S
C1216 C1217 1.387 . S
C1217 H1202 0.930 . S
C1217 C1212 1.390 . S
C1217 C1216 1.387 . S
H1218 C1230 0.930 . S
H1219 C1232 0.930 1_554 S
H1220 C1233 0.930 . S
H1221 C1237 0.959 . S
H1222 C1237 0.959 . S
H1223 C1237 0.961 . S
H1224 C1238 0.960 . S
H1225 C1238 0.961 . S
H1226 C1238 0.959 . S
H1227 C1241 0.929 . S
H1228 C1242 0.931 . S
H1229 C1244 0.930 . S
C1230 H1218 0.930 . S
C1230 C1231 1.399 . S
C1230 C1235 1.399 . S
C1231 C1230 1.399 . S
C1231 C1232 1.376 . S
C1232 H1219 0.930 1_556 S
C1232 C1231 1.376 . S
C1232 C1233 1.388 . S
C1233 H1220 0.930 . S
C1233 C1232 1.388 . S
C1233 C1234 1.390 . S
C1234 C1233 1.390 . S
C1234 C1235 1.394 . S
C1234 C1240 1.465 . S
C1235 C1230 1.399 . S
C1235 C1234 1.394 . S
C1235 C1236 1.516 . S
C1236 C1235 1.516 . S
C1236 C1237 1.502 1_455 S
C1236 C1238 1.561 . S
C1236 C1239 1.526 . S
C1237 H1221 0.959 . S
C1237 H1222 0.959 . S
C1237 H1223 0.961 . S
C1237 C1236 1.502 1_655 S
C1238 H1224 0.960 . S
C1238 H1225 0.961 . S
C1238 H1226 0.959 . S
C1238 C1236 1.561 . S
C1239 C1236 1.526 . S
C1239 C1240 1.396 . S
C1239 C1244 1.390 . S
C1240 C1234 1.465 . S
C1240 C1239 1.396 . S
C1240 C1241 1.399 . S
C1241 H1227 0.929 . S
C1241 C1240 1.399 . S
C1241 C1242 1.385 . S
C1242 H1228 0.931 . S
C1242 C1241 1.385 . S
C1242 C1243 1.389 . S
C1243 C1242 1.389 . S
C1243 C1244 1.387 . S
C1244 H1229 0.930 . S
C1244 C1239 1.390 . S
C1244 C1243 1.387 . S
H1245 C1257 0.930 . S
H1246 C1259 0.930 1_554 S
H1247 C1260 0.930 . S
H1248 C1264 0.959 . S
H1249 C1264 0.959 . S
H1250 C1264 0.961 . S
H1251 C1265 0.960 . S
H1252 C1265 0.961 . S
H1253 C1265 0.959 . S
H1254 C1268 0.929 . S
H1255 C1269 0.931 . S
H1256 C1271 0.930 . S
C1257 H1245 0.930 . S
C1257 C1258 1.399 . S
C1257 C1262 1.399 . S
C1258 C1257 1.399 . S
C1258 C1259 1.376 . S
C1259 H1246 0.930 1_556 S
C1259 C1258 1.376 . S
C1259 C1260 1.388 . S
C1260 H1247 0.930 . S
C1260 C1259 1.388 . S
C1260 C1261 1.390 . S
C1261 C1260 1.390 . S
C1261 C1262 1.394 . S
C1261 C1267 1.465 . S
C1262 C1257 1.399 . S
C1262 C1261 1.394 . S
C1262 C1263 1.516 . S
C1263 C1262 1.516 . S
C1263 C1264 1.502 . S
C1263 C1265 1.561 . S
C1263 C1266 1.526 . S
C1264 H1248 0.959 . S
C1264 H1249 0.959 . S
C1264 H1250 0.961 . S
C1264 C1263 1.502 . S
C1265 H1251 0.960 . S
C1265 H1252 0.961 . S
C1265 H1253 0.959 . S
C1265 C1263 1.561 . S
C1266 C1263 1.526 . S
C1266 C1267 1.396 . S
C1266 C1271 1.390 . S
C1267 C1261 1.465 . S
C1267 C1266 1.396 . S
C1267 C1268 1.399 . S
C1268 H1254 0.929 . S
C1268 C1267 1.399 . S
C1268 C1269 1.385 . S
C1269 H1255 0.931 . S
C1269 C1268 1.385 . S
C1269 C1270 1.389 . S
C1270 C1269 1.389 . S
C1270 C1271 1.387 . S
C1271 H1256 0.930 . S
C1271 C1266 1.390 . S
C1271 C1270 1.387 . S
H1272 C1284 0.930 . S
H1273 C1286 0.930 . S
H1274 C1287 0.930 . S
H1275 C1291 0.959 . S
H1276 C1291 0.959 . S
H1277 C1291 0.961 . S
H1278 C1292 0.960 . S
H1279 C1292 0.961 . S
H1280 C1292 0.959 . S
H1281 C1295 0.929 . S
H1282 C1296 0.931 . S
H1283 C1298 0.930 . S
C1284 H1272 0.930 . S
C1284 C1285 1.399 . S
C1284 C1289 1.399 . S
C1285 C1284 1.399 . S
C1285 C1286 1.376 . S
C1286 H1273 0.930 . S
C1286 C1285 1.376 . S
C1286 C1287 1.388 . S
C1287 H1274 0.930 . S
C1287 C1286 1.388 . S
C1287 C1288 1.390 . S
C1288 C1287 1.390 . S
C1288 C1289 1.394 . S
C1288 C1294 1.465 . S
C1289 C1284 1.399 . S
C1289 C1288 1.394 . S
C1289 C1290 1.516 . S
C1290 C1289 1.516 . S
C1290 C1291 1.502 . S
C1290 C1292 1.561 . S
C1290 C1293 1.526 . S
C1291 H1275 0.959 . S
C1291 H1276 0.959 . S
C1291 H1277 0.961 . S
C1291 C1290 1.502 . S
C1292 H1278 0.960 . S
C1292 H1279 0.961 . S
C1292 H1280 0.959 . S
C1292 C1290 1.561 . S
C1293 C1290 1.526 . S
C1293 C1294 1.396 . S
C1293 C1298 1.390 . S
C1294 C1288 1.465 . S
C1294 C1293 1.396 . S
C1294 C1295 1.399 . S
C1295 H1281 0.929 . S
C1295 C1294 1.399 . S
C1295 C1296 1.385 . S
C1296 H1282 0.931 . S
C1296 C1295 1.385 . S
C1296 C1297 1.389 . S
C1297 C1296 1.389 . S
C1297 C1298 1.387 . S
C1298 H1283 0.930 . S
C1298 C1293 1.390 . S
C1298 C1297 1.387 . S
H1299 C1311 0.930 . S
H1300 C1313 0.930 . S
H1301 C1314 0.930 . S
H1302 C1318 0.959 . S
H1303 C1318 0.959 . S
H1304 C1318 0.961 . S
H1305 C1319 0.960 . S
H1306 C1319 0.961 . S
H1307 C1319 0.959 . S
H1308 C1322 0.929 . S
H1309 C1323 0.931 . S
H1310 C1325 0.930 . S
C1311 H1299 0.930 . S
C1311 C1312 1.399 . S
C1311 C1316 1.399 . S
C1312 C1311 1.399 . S
C1312 C1313 1.376 . S
C1313 H1300 0.930 . S
C1313 C1312 1.376 . S
C1313 C1314 1.388 . S
C1314 H1301 0.930 . S
C1314 C1313 1.388 . S
C1314 C1315 1.390 . S
C1315 C1314 1.390 . S
C1315 C1316 1.394 . S
C1315 C1321 1.465 . S
C1316 C1311 1.399 . S
C1316 C1315 1.394 . S
C1316 C1317 1.516 . S
C1317 C1316 1.516 . S
C1317 C1318 1.502 . S
C1317 C1319 1.561 . S
C1317 C1320 1.526 . S
C1318 H1302 0.959 . S
C1318 H1303 0.959 . S
C1318 H1304 0.961 . S
C1318 C1317 1.502 . S
C1319 H1305 0.960 . S
C1319 H1306 0.961 . S
C1319 H1307 0.959 . S
C1319 C1317 1.561 . S
C1320 C1317 1.526 . S
C1320 C1321 1.396 . S
C1320 C1325 1.390 . S
C1321 C1315 1.465 . S
C1321 C1320 1.396 . S
C1321 C1322 1.399 . S
C1322 H1308 0.929 . S
C1322 C1321 1.399 . S
C1322 C1323 1.385 . S
C1323 H1309 0.931 . S
C1323 C1322 1.385 . S
C1323 C1324 1.389 . S
C1324 C1323 1.389 . S
C1324 C1325 1.387 . S
C1325 H1310 0.930 . S
C1325 C1320 1.390 . S
C1325 C1324 1.387 . S
H1326 C1338 0.930 . S
H1327 C1340 0.930 1_554 S
H1328 C1341 0.930 . S
H1329 C1345 0.959 . S
H1330 C1345 0.959 . S
H1331 C1345 0.961 . S
H1332 C1346 0.960 . S
H1333 C1346 0.961 . S
H1334 C1346 0.959 . S
H1335 C1349 0.929 . S
H1336 C1350 0.931 . S
H1337 C1352 0.930 . S
C1338 H1326 0.930 . S
C1338 C1339 1.399 . S
C1338 C1343 1.399 . S
C1339 C1338 1.399 . S
C1339 C1340 1.376 . S
C1340 H1327 0.930 1_556 S
C1340 C1339 1.376 . S
C1340 C1341 1.388 . S
C1341 H1328 0.930 . S
C1341 C1340 1.388 . S
C1341 C1342 1.390 . S
C1342 C1341 1.390 . S
C1342 C1343 1.394 . S
C1342 C1348 1.465 . S
C1343 C1338 1.399 . S
C1343 C1342 1.394 . S
C1343 C1344 1.516 . S
C1344 C1343 1.516 . S
C1344 C1345 1.502 . S
C1344 C1346 1.561 . S
C1344 C1347 1.526 . S
C1345 H1329 0.959 . S
C1345 H1330 0.959 . S
C1345 H1331 0.961 . S
C1345 C1344 1.502 . S
C1346 H1332 0.960 . S
C1346 H1333 0.961 . S
C1346 H1334 0.959 . S
C1346 C1344 1.561 . S
C1347 C1344 1.526 . S
C1347 C1348 1.396 . S
C1347 C1352 1.390 . S
C1348 C1342 1.465 . S
C1348 C1347 1.396 . S
C1348 C1349 1.399 . S
C1349 H1335 0.929 . S
C1349 C1348 1.399 . S
C1349 C1350 1.385 . S
C1350 H1336 0.931 . S
C1350 C1349 1.385 . S
C1350 C1351 1.389 . S
C1351 C1350 1.389 . S
C1351 C1352 1.387 . S
C1352 H1337 0.930 . S
C1352 C1347 1.390 . S
C1352 C1351 1.387 . S
H1353 C1365 0.930 . S
H1354 C1367 0.930 . S
H1355 C1368 0.930 . S
H1356 C1372 0.959 . S
H1357 C1372 0.959 . S
H1358 C1372 0.961 . S
H1359 C1373 0.960 . S
H1360 C1373 0.961 . S
H1361 C1373 0.959 . S
H1362 C1376 0.929 . S
H1363 C1377 0.931 . S
H1364 C1379 0.930 . S
C1365 H1353 0.930 . S
C1365 C1366 1.399 . S
C1365 C1370 1.399 . S
C1366 C1365 1.399 . S
C1366 C1367 1.376 . S
C1367 H1354 0.930 . S
C1367 C1366 1.376 . S
C1367 C1368 1.388 . S
C1368 H1355 0.930 . S
C1368 C1367 1.388 . S
C1368 C1369 1.390 . S
C1369 C1368 1.390 . S
C1369 C1370 1.394 . S
C1369 C1375 1.465 . S
C1370 C1365 1.399 . S
C1370 C1369 1.394 . S
C1370 C1371 1.516 . S
C1371 C1370 1.516 . S
C1371 C1372 1.502 . S
C1371 C1373 1.561 . S
C1371 C1374 1.526 . S
C1372 H1356 0.959 . S
C1372 H1357 0.959 . S
C1372 H1358 0.961 . S
C1372 C1371 1.502 . S
C1373 H1359 0.960 . S
C1373 H1360 0.961 . S
C1373 H1361 0.959 . S
C1373 C1371 1.561 . S
C1374 C1371 1.526 . S
C1374 C1375 1.396 . S
C1374 C1379 1.390 . S
C1375 C1369 1.465 . S
C1375 C1374 1.396 . S
C1375 C1376 1.399 . S
C1376 H1362 0.929 . S
C1376 C1375 1.399 . S
C1376 C1377 1.385 . S
C1377 H1363 0.931 . S
C1377 C1376 1.385 . S
C1377 C1378 1.389 . S
C1378 C1377 1.389 . S
C1378 C1379 1.387 . S
C1379 H1364 0.930 . S
C1379 C1374 1.390 . S
C1379 C1378 1.387 . S
H1380 C1392 0.930 . S
H1381 C1394 0.930 . S
H1382 C1395 0.930 . S
H1383 C1399 0.959 . S
H1384 C1399 0.959 . S
H1385 C1399 0.961 . S
H1386 C1400 0.960 . S
H1387 C1400 0.961 . S
H1388 C1400 0.959 . S
H1389 C1403 0.929 . S
H1390 C1404 0.931 . S
H1391 C1406 0.930 . S
C1392 H1380 0.930 . S
C1392 C1393 1.399 . S
C1392 C1397 1.399 . S
C1393 C1392 1.399 . S
C1393 C1394 1.376 . S
C1394 H1381 0.930 . S
C1394 C1393 1.376 . S
C1394 C1395 1.388 . S
C1395 H1382 0.930 . S
C1395 C1394 1.388 . S
C1395 C1396 1.390 . S
C1396 C1395 1.390 . S
C1396 C1397 1.394 . S
C1396 C1402 1.465 . S
C1397 C1392 1.399 . S
C1397 C1396 1.394 . S
C1397 C1398 1.516 . S
C1398 C1397 1.516 . S
C1398 C1399 1.502 . S
C1398 C1400 1.561 . S
C1398 C1401 1.526 . S
C1399 H1383 0.959 . S
C1399 H1384 0.959 . S
C1399 H1385 0.961 . S
C1399 C1398 1.502 . S
C1400 H1386 0.960 . S
C1400 H1387 0.961 . S
C1400 H1388 0.959 . S
C1400 C1398 1.561 . S
C1401 C1398 1.526 . S
C1401 C1402 1.396 . S
C1401 C1406 1.390 . S
C1402 C1396 1.465 . S
C1402 C1401 1.396 . S
C1402 C1403 1.399 . S
C1403 H1389 0.929 . S
C1403 C1402 1.399 . S
C1403 C1404 1.385 . S
C1404 H1390 0.931 . S
C1404 C1403 1.385 . S
C1404 C1405 1.389 . S
C1405 C1404 1.389 . S
C1405 C1406 1.387 . S
C1406 H1391 0.930 . S
C1406 C1401 1.390 . S
C1406 C1405 1.387 . S
H1407 C1419 0.930 . S
H1408 C1421 0.930 . S
H1409 C1422 0.930 . S
H1410 C1426 0.959 . S
H1411 C1426 0.959 . S
H1412 C1426 0.961 . S
H1413 C1427 0.960 . S
H1414 C1427 0.961 . S
H1415 C1427 0.959 . S
H1416 C1430 0.929 . S
H1417 C1431 0.931 . S
H1418 C1433 0.930 . S
C1419 H1407 0.930 . S
C1419 C1420 1.399 . S
C1419 C1424 1.399 . S
C1420 C1419 1.399 . S
C1420 C1421 1.376 . S
C1421 H1408 0.930 . S
C1421 C1420 1.376 . S
C1421 C1422 1.388 . S
C1422 H1409 0.930 . S
C1422 C1421 1.388 . S
C1422 C1423 1.390 . S
C1423 C1422 1.390 . S
C1423 C1424 1.394 . S
C1423 C1429 1.465 . S
C1424 C1419 1.399 . S
C1424 C1423 1.394 . S
C1424 C1425 1.516 . S
C1425 C1424 1.516 . S
C1425 C1426 1.502 . S
C1425 C1427 1.561 . S
C1425 C1428 1.526 . S
C1426 H1410 0.959 . S
C1426 H1411 0.959 . S
C1426 H1412 0.961 . S
C1426 C1425 1.502 . S
C1427 H1413 0.960 . S
C1427 H1414 0.961 . S
C1427 H1415 0.959 . S
C1427 C1425 1.561 . S
C1428 C1425 1.526 . S
C1428 C1429 1.396 . S
C1428 C1433 1.390 . S
C1429 C1423 1.465 . S
C1429 C1428 1.396 . S
C1429 C1430 1.399 . S
C1430 H1416 0.929 . S
C1430 C1429 1.399 . S
C1430 C1431 1.385 . S
C1431 H1417 0.931 . S
C1431 C1430 1.385 . S
C1431 C1432 1.389 . S
C1432 C1431 1.389 . S
C1432 C1433 1.387 . S
C1433 H1418 0.930 . S
C1433 C1428 1.390 . S
C1433 C1432 1.387 . S
H1434 C1446 0.930 . S
H1435 C1448 0.930 . S
H1436 C1449 0.930 . S
H1437 C1453 0.959 . S
H1438 C1453 0.959 . S
H1439 C1453 0.961 . S
H1440 C1454 0.960 . S
H1441 C1454 0.961 . S
H1442 C1454 0.959 . S
H1443 C1457 0.929 . S
H1444 C1458 0.931 . S
H1445 C1460 0.930 . S
C1446 H1434 0.930 . S
C1446 C1447 1.399 . S
C1446 C1451 1.399 . S
C1447 C1446 1.399 . S
C1447 C1448 1.376 . S
C1448 H1435 0.930 . S
C1448 C1447 1.376 . S
C1448 C1449 1.388 . S
C1449 H1436 0.930 . S
C1449 C1448 1.388 . S
C1449 C1450 1.390 . S
C1450 C1449 1.390 . S
C1450 C1451 1.394 . S
C1450 C1456 1.465 . S
C1451 C1446 1.399 . S
C1451 C1450 1.394 . S
C1451 C1452 1.516 . S
C1452 C1451 1.516 . S
C1452 C1453 1.502 . S
C1452 C1454 1.561 . S
C1452 C1455 1.526 . S
C1453 H1437 0.959 . S
C1453 H1438 0.959 . S
C1453 H1439 0.961 . S
C1453 C1452 1.502 . S
C1454 H1440 0.960 . S
C1454 H1441 0.961 . S
C1454 H1442 0.959 . S
C1454 C1452 1.561 . S
C1455 C1452 1.526 . S
C1455 C1456 1.396 . S
C1455 C1460 1.390 . S
C1456 C1450 1.465 . S
C1456 C1455 1.396 . S
C1456 C1457 1.399 . S
C1457 H1443 0.929 . S
C1457 C1456 1.399 . S
C1457 C1458 1.385 . S
C1458 H1444 0.931 . S
C1458 C1457 1.385 . S
C1458 C1459 1.389 . S
C1459 C1458 1.389 . S
C1459 C1460 1.387 . S
C1460 H1445 0.930 . S
C1460 C1455 1.390 . S
C1460 C1459 1.387 . S
H1461 C1473 0.930 . S
H1462 C1475 0.930 . S
H1463 C1476 0.930 . S
H1464 C1480 0.959 . S
H1465 C1480 0.959 . S
H1466 C1480 0.961 . S
H1467 C1481 0.960 . S
H1468 C1481 0.961 . S
H1469 C1481 0.959 . S
H1470 C1484 0.929 . S
H1471 C1485 0.931 . S
H1472 C1487 0.930 . S
C1473 H1461 0.930 . S
C1473 C1474 1.399 . S
C1473 C1478 1.399 . S
C1474 C1473 1.399 . S
C1474 C1475 1.376 . S
C1475 H1462 0.930 . S
C1475 C1474 1.376 . S
C1475 C1476 1.388 . S
C1476 H1463 0.930 . S
C1476 C1475 1.388 . S
C1476 C1477 1.390 . S
C1477 C1476 1.390 . S
C1477 C1478 1.394 . S
C1477 C1483 1.465 . S
C1478 C1473 1.399 . S
C1478 C1477 1.394 . S
C1478 C1479 1.516 . S
C1479 C1478 1.516 . S
C1479 C1480 1.502 . S
C1479 C1481 1.561 . S
C1479 C1482 1.526 . S
C1480 H1464 0.959 . S
C1480 H1465 0.959 . S
C1480 H1466 0.961 . S
C1480 C1479 1.502 . S
C1481 H1467 0.960 . S
C1481 H1468 0.961 . S
C1481 H1469 0.959 . S
C1481 C1479 1.561 . S
C1482 C1479 1.526 . S
C1482 C1483 1.396 . S
C1482 C1487 1.390 . S
C1483 C1477 1.465 . S
C1483 C1482 1.396 . S
C1483 C1484 1.399 . S
C1484 H1470 0.929 . S
C1484 C1483 1.399 . S
C1484 C1485 1.385 . S
C1485 H1471 0.931 . S
C1485 C1484 1.385 . S
C1485 C1486 1.389 . S
C1486 C1485 1.389 . S
C1486 C1487 1.387 . S
C1487 H1472 0.930 . S
C1487 C1482 1.390 . S
C1487 C1486 1.387 . S
H1488 C1500 0.930 . S
H1489 C1502 0.930 . S
H1490 C1503 0.930 . S
H1491 C1507 0.959 . S
H1492 C1507 0.959 . S
H1493 C1507 0.961 . S
H1494 C1508 0.960 . S
H1495 C1508 0.961 . S
H1496 C1508 0.959 . S
H1497 C1511 0.929 . S
H1498 C1512 0.931 . S
H1499 C1514 0.930 . S
C1500 H1488 0.930 . S
C1500 C1501 1.399 . S
C1500 C1505 1.399 . S
C1501 C1500 1.399 . S
C1501 C1502 1.376 . S
C1502 H1489 0.930 . S
C1502 C1501 1.376 . S
C1502 C1503 1.388 . S
C1503 H1490 0.930 . S
C1503 C1502 1.388 . S
C1503 C1504 1.390 . S
C1504 C1503 1.390 . S
C1504 C1505 1.394 . S
C1504 C1510 1.465 . S
C1505 C1500 1.399 . S
C1505 C1504 1.394 . S
C1505 C1506 1.516 . S
C1506 C1505 1.516 . S
C1506 C1507 1.502 . S
C1506 C1508 1.561 . S
C1506 C1509 1.526 . S
C1507 H1491 0.959 . S
C1507 H1492 0.959 . S
C1507 H1493 0.961 . S
C1507 C1506 1.502 . S
C1508 H1494 0.960 . S
C1508 H1495 0.961 . S
C1508 H1496 0.959 . S
C1508 C1506 1.561 . S
C1509 C1506 1.526 . S
C1509 C1510 1.396 . S
C1509 C1514 1.390 . S
C1510 C1504 1.465 . S
C1510 C1509 1.396 . S
C1510 C1511 1.399 . S
C1511 H1497 0.929 . S
C1511 C1510 1.399 . S
C1511 C1512 1.385 . S
C1512 H1498 0.931 . S
C1512 C1511 1.385 . S
C1512 C1513 1.389 . S
C1513 C1512 1.389 . S
C1513 C1514 1.387 . S
C1514 H1499 0.930 . S
C1514 C1509 1.390 . S
C1514 C1513 1.387 . S
H1515 C1527 0.930 . S
H1516 C1529 0.930 . S
H1517 C1530 0.930 . S
H1518 C1534 0.959 . S
H1519 C1534 0.959 . S
H1520 C1534 0.961 . S
H1521 C1535 0.970 . S
H1522 C1535 0.961 1_554 S
H1523 C1535 0.959 . S
H1524 C1538 0.929 . S
H1525 C1539 0.931 . S
H1526 C1541 0.930 . S
C1527 H1515 0.930 . S
C1527 C1528 1.399 . S
C1527 C1532 1.399 . S
C1528 C1527 1.399 . S
C1528 C1529 1.376 . S
C1529 H1516 0.930 . S
C1529 C1528 1.376 . S
C1529 C1530 1.388 . S
C1530 H1517 0.930 . S
C1530 C1529 1.388 . S
C1530 C1531 1.390 . S
C1531 C1530 1.390 . S
C1531 C1532 1.394 . S
C1531 C1537 1.465 . S
C1532 C1527 1.399 . S
C1532 C1531 1.394 . S
C1532 C1533 1.516 . S
C1533 C1532 1.516 . S
C1533 C1534 1.502 . S
C1533 C1535 1.561 . S
C1533 C1536 1.526 . S
C1534 H1518 0.959 . S
C1534 H1519 0.959 . S
C1534 H1520 0.961 . S
C1534 C1533 1.502 . S
C1535 H1521 0.970 . S
C1535 H1522 0.961 1_556 S
C1535 H1523 0.959 . S
C1535 C1533 1.561 . S
C1536 C1533 1.526 . S
C1536 C1537 1.396 . S
C1536 C1541 1.390 . S
C1537 C1531 1.465 . S
C1537 C1536 1.396 . S
C1537 C1538 1.399 . S
C1538 H1524 0.929 . S
C1538 C1537 1.399 . S
C1538 C1539 1.385 . S
C1539 H1525 0.931 . S
C1539 C1538 1.385 . S
C1539 C1540 1.389 . S
C1540 C1539 1.389 . S
C1540 C1541 1.387 . S
C1541 H1526 0.930 . S
C1541 C1536 1.390 . S
C1541 C1540 1.387 . S
H1542 C1554 0.930 . S
H1543 C1556 0.930 . S
H1544 C1557 0.930 . S
H1545 C1561 0.959 . S
H1546 C1561 0.959 . S
H1547 C1561 0.961 . S
H1548 C1562 0.960 . S
H1549 C1562 0.961 . S
H1550 C1562 0.959 . S
H1551 C1565 0.929 . S
H1552 C1566 0.931 . S
H1553 C1568 0.930 . S
C1554 H1542 0.930 . S
C1554 C1555 1.399 . S
C1554 C1559 1.399 . S
C1555 C1554 1.399 . S
C1555 C1556 1.376 . S
C1556 H1543 0.930 . S
C1556 C1555 1.376 . S
C1556 C1557 1.388 . S
C1557 H1544 0.930 . S
C1557 C1556 1.388 . S
C1557 C1558 1.390 . S
C1558 C1557 1.390 . S
C1558 C1559 1.394 . S
C1558 C1564 1.465 . S
C1559 C1554 1.399 . S
C1559 C1558 1.394 . S
C1559 C1560 1.516 . S
C1560 C1559 1.516 . S
C1560 C1561 1.502 . S
C1560 C1562 1.561 . S
C1560 C1563 1.526 . S
C1561 H1545 0.959 . S
C1561 H1546 0.959 . S
C1561 H1547 0.961 . S
C1561 C1560 1.502 . S
C1562 H1548 0.960 . S
C1562 H1549 0.961 . S
C1562 H1550 0.959 . S
C1562 C1560 1.561 . S
C1563 C1560 1.526 . S
C1563 C1564 1.396 . S
C1563 C1568 1.390 . S
C1564 C1558 1.465 . S
C1564 C1563 1.396 . S
C1564 C1565 1.399 . S
C1565 H1551 0.929 . S
C1565 C1564 1.399 . S
C1565 C1566 1.385 . S
C1566 H1552 0.931 . S
C1566 C1565 1.385 . S
C1566 C1567 1.389 . S
C1567 C1566 1.389 . S
C1567 C1568 1.387 . S
C1568 H1553 0.930 . S
C1568 C1563 1.390 . S
C1568 C1567 1.387 . S
H1569 C1581 0.930 . S
H1570 C1583 0.930 . S
H1571 C1584 0.930 . S
H1572 C1588 0.959 . S
H1573 C1588 0.959 . S
H1574 C1588 0.961 . S
H1575 C1589 0.960 . S
H1576 C1589 0.961 . S
H1577 C1589 0.959 . S
H1578 C1592 0.929 . S
H1579 C1593 0.931 . S
H1580 C1595 0.930 . S
C1581 H1569 0.930 . S
C1581 C1582 1.399 . S
C1581 C1586 1.399 . S
C1582 C1581 1.399 . S
C1582 C1583 1.376 . S
C1583 H1570 0.930 . S
C1583 C1582 1.376 . S
C1583 C1584 1.388 . S
C1584 H1571 0.930 . S
C1584 C1583 1.388 . S
C1584 C1585 1.390 . S
C1585 C1584 1.390 . S
C1585 C1586 1.394 . S
C1585 C1591 1.465 . S
C1586 C1581 1.399 . S
C1586 C1585 1.394 . S
C1586 C1587 1.516 . S
C1587 C1586 1.516 . S
C1587 C1588 1.502 . S
C1587 C1589 1.561 . S
C1587 C1590 1.526 . S
C1588 H1572 0.959 . S
C1588 H1573 0.959 . S
C1588 H1574 0.961 . S
C1588 C1587 1.502 . S
C1589 H1575 0.960 . S
C1589 H1576 0.961 . S
C1589 H1577 0.959 . S
C1589 C1587 1.561 . S
C1590 C1587 1.526 . S
C1590 C1591 1.396 . S
C1590 C1595 1.390 . S
C1591 C1585 1.465 . S
C1591 C1590 1.396 . S
C1591 C1592 1.399 . S
C1592 H1578 0.929 . S
C1592 C1591 1.399 . S
C1592 C1593 1.385 . S
C1593 H1579 0.931 . S
C1593 C1592 1.385 . S
C1593 C1594 1.389 . S
C1594 C1593 1.389 . S
C1594 C1595 1.387 . S
C1595 H1580 0.930 . S
C1595 C1590 1.390 . S
C1595 C1594 1.387 . S
H1596 C1608 0.930 . S
H1597 C1610 0.930 . S
H1598 C1611 0.930 . S
H1599 C1615 0.959 . S
H1600 C1615 0.959 . S
H1601 C1615 0.961 . S
H1602 C1616 0.960 . S
H1603 C1616 0.961 . S
H1604 C1616 0.959 . S
H1605 C1619 0.929 . S
H1606 C1620 0.931 . S
H1607 C1622 0.930 . S
C1608 H1596 0.930 . S
C1608 C1609 1.399 . S
C1608 C1613 1.399 . S
C1609 C1608 1.399 . S
C1609 C1610 1.376 . S
C1610 H1597 0.930 . S
C1610 C1609 1.376 . S
C1610 C1611 1.388 . S
C1611 H1598 0.930 . S
C1611 C1610 1.388 . S
C1611 C1612 1.390 . S
C1612 C1611 1.390 . S
C1612 C1613 1.394 . S
C1612 C1618 1.465 . S
C1613 C1608 1.399 . S
C1613 C1612 1.394 . S
C1613 C1614 1.516 . S
C1614 C1613 1.516 . S
C1614 C1615 1.502 . S
C1614 C1616 1.561 . S
C1614 C1617 1.526 . S
C1615 H1599 0.959 . S
C1615 H1600 0.959 . S
C1615 H1601 0.961 . S
C1615 C1614 1.502 . S
C1616 H1602 0.960 . S
C1616 H1603 0.961 . S
C1616 H1604 0.959 . S
C1616 C1614 1.561 . S
C1617 C1614 1.526 . S
C1617 C1618 1.396 . S
C1617 C1622 1.390 . S
C1618 C1612 1.465 . S
C1618 C1617 1.396 . S
C1618 C1619 1.399 . S
C1619 H1605 0.929 . S
C1619 C1618 1.399 . S
C1619 C1620 1.385 . S
C1620 H1606 0.931 . S
C1620 C1619 1.385 . S
C1620 C1621 1.389 . S
C1621 C1620 1.389 . S
C1621 C1622 1.387 . S
C1622 H1607 0.930 . S
C1622 C1617 1.390 . S
C1622 C1621 1.387 . S
H1623 C1635 0.930 . S
H1624 C1637 0.930 . S
H1625 C1638 0.930 . S
H1626 C1642 0.959 . S
H1627 C1642 0.959 . S
H1628 C1642 0.961 . S
H1629 C1643 0.960 . S
H1630 C1643 0.961 . S
H1631 C1643 0.959 . S
H1632 C1646 0.929 . S
H1633 C1647 0.931 . S
H1634 C1649 0.930 . S
C1635 H1623 0.930 . S
C1635 C1636 1.399 . S
C1635 C1640 1.399 . S
C1636 C1635 1.399 . S
C1636 C1637 1.376 . S
C1637 H1624 0.930 . S
C1637 C1636 1.376 . S
C1637 C1638 1.388 . S
C1638 H1625 0.930 . S
C1638 C1637 1.388 . S
C1638 C1639 1.390 . S
C1639 C1638 1.390 . S
C1639 C1640 1.394 . S
C1639 C1645 1.465 . S
C1640 C1635 1.399 . S
C1640 C1639 1.394 . S
C1640 C1641 1.516 . S
C1641 C1640 1.516 . S
C1641 C1642 1.502 . S
C1641 C1643 1.561 . S
C1641 C1644 1.526 . S
C1642 H1626 0.959 . S
C1642 H1627 0.959 . S
C1642 H1628 0.961 . S
C1642 C1641 1.502 . S
C1643 H1629 0.960 . S
C1643 H1630 0.961 . S
C1643 H1631 0.959 . S
C1643 C1641 1.561 . S
C1644 C1641 1.526 . S
C1644 C1645 1.396 . S
C1644 C1649 1.390 . S
C1645 C1639 1.465 . S
C1645 C1644 1.396 . S
C1645 C1646 1.399 . S
C1646 H1632 0.929 . S
C1646 C1645 1.399 . S
C1646 C1647 1.385 . S
C1647 H1633 0.931 . S
C1647 C1646 1.385 . S
C1647 C1648 1.389 . S
C1648 C1647 1.389 . S
C1648 C1649 1.387 . S
C1649 H1634 0.930 . S
C1649 C1644 1.390 . S
C1649 C1648 1.387 . S
H1650 C1662 0.930 . S
H1651 C1664 0.930 . S
H1652 C1665 0.930 . S
H1653 C1669 0.959 . S
H1654 C1669 0.959 . S
H1655 C1669 0.961 . S
H1656 C1670 0.960 . S
H1657 C1670 0.961 . S
H1658 C1670 0.959 . S
H1659 C1673 0.929 . S
H1660 C1674 0.931 . S
H1661 C1676 0.930 . S
C1662 H1650 0.930 . S
C1662 C1663 1.399 . S
C1662 C1667 1.399 . S
C1663 C1662 1.399 . S
C1663 C1664 1.376 . S
C1664 H1651 0.930 . S
C1664 C1663 1.376 . S
C1664 C1665 1.388 . S
C1665 H1652 0.930 . S
C1665 C1664 1.388 . S
C1665 C1666 1.390 . S
C1666 C1665 1.390 . S
C1666 C1667 1.394 . S
C1666 C1672 1.465 . S
C1667 C1662 1.399 . S
C1667 C1666 1.394 . S
C1667 C1668 1.516 . S
C1668 C1667 1.516 . S
C1668 C1669 1.502 . S
C1668 C1670 1.561 . S
C1668 C1671 1.526 . S
C1669 H1653 0.959 . S
C1669 H1654 0.959 . S
C1669 H1655 0.961 . S
C1669 C1668 1.502 . S
C1670 H1656 0.960 . S
C1670 H1657 0.961 . S
C1670 H1658 0.959 . S
C1670 C1668 1.561 . S
C1671 C1668 1.526 . S
C1671 C1672 1.396 . S
C1671 C1676 1.390 . S
C1672 C1666 1.465 . S
C1672 C1671 1.396 . S
C1672 C1673 1.399 . S
C1673 H1659 0.929 . S
C1673 C1672 1.399 . S
C1673 C1674 1.385 . S
C1674 H1660 0.931 . S
C1674 C1673 1.385 . S
C1674 C1675 1.389 . S
C1675 C1674 1.389 . S
C1675 C1676 1.387 . S
C1676 H1661 0.930 . S
C1676 C1671 1.390 . S
C1676 C1675 1.387 . S
H1677 C1689 0.930 . S
H1678 C1691 0.930 . S
H1679 C1692 0.930 . S
H1680 C1696 0.959 . S
H1681 C1696 0.959 . S
H1682 C1696 0.961 . S
H1683 C1697 0.960 . S
H1684 C1697 0.961 . S
H1685 C1697 0.959 . S
H1686 C1700 0.929 . S
H1687 C1701 0.931 . S
H1688 C1703 0.930 . S
C1689 H1677 0.930 . S
C1689 C1690 1.399 . S
C1689 C1694 1.399 . S
C1690 C1689 1.399 . S
C1690 C1691 1.376 . S
C1691 H1678 0.930 . S
C1691 C1690 1.376 . S
C1691 C1692 1.388 . S
C1692 H1679 0.930 . S
C1692 C1691 1.388 . S
C1692 C1693 1.390 . S
C1693 C1692 1.390 . S
C1693 C1694 1.394 . S
C1693 C1699 1.465 . S
C1694 C1689 1.399 . S
C1694 C1693 1.394 . S
C1694 C1695 1.516 . S
C1695 C1694 1.516 . S
C1695 C1696 1.502 . S
C1695 C1697 1.561 . S
C1695 C1698 1.526 . S
C1696 H1680 0.959 . S
C1696 H1681 0.959 . S
C1696 H1682 0.961 . S
C1696 C1695 1.502 . S
C1697 H1683 0.960 . S
C1697 H1684 0.961 . S
C1697 H1685 0.959 . S
C1697 C1695 1.561 . S
C1698 C1695 1.526 . S
C1698 C1699 1.396 . S
C1698 C1703 1.390 . S
C1699 C1693 1.465 . S
C1699 C1698 1.396 . S
C1699 C1700 1.399 . S
C1700 H1686 0.929 . S
C1700 C1699 1.399 . S
C1700 C1701 1.385 . S
C1701 H1687 0.931 . S
C1701 C1700 1.385 . S
C1701 C1702 1.389 . S
C1702 C1701 1.389 . S
C1702 C1703 1.387 . S
C1703 H1688 0.930 . S
C1703 C1698 1.390 . S
C1703 C1702 1.387 . S
H1704 C1716 0.930 . S
H1705 C1718 0.930 . S
H1706 C1719 0.930 . S
H1707 C1723 0.959 . S
H1708 C1723 0.959 . S
H1709 C1723 0.961 . S
H1710 C1724 0.960 . S
H1711 C1724 0.961 . S
H1712 C1724 0.959 . S
H1713 C1727 0.929 . S
H1714 C1728 0.931 . S
H1715 C1730 0.930 . S
C1716 H1704 0.930 . S
C1716 C1717 1.399 . S
C1716 C1721 1.399 . S
C1717 C1716 1.399 . S
C1717 C1718 1.376 . S
C1718 H1705 0.930 . S
C1718 C1717 1.376 . S
C1718 C1719 1.388 . S
C1719 H1706 0.930 . S
C1719 C1718 1.388 . S
C1719 C1720 1.390 . S
C1720 C1719 1.390 . S
C1720 C1721 1.394 . S
C1720 C1726 1.465 . S
C1721 C1716 1.399 . S
C1721 C1720 1.394 . S
C1721 C1722 1.516 . S
C1722 C1721 1.516 . S
C1722 C1723 1.502 . S
C1722 C1724 1.561 . S
C1722 C1725 1.526 . S
C1723 H1707 0.959 . S
C1723 H1708 0.959 . S
C1723 H1709 0.961 . S
C1723 C1722 1.502 . S
C1724 H1710 0.960 . S
C1724 H1711 0.961 . S
C1724 H1712 0.959 . S
C1724 C1722 1.561 . S
C1725 C1722 1.526 . S
C1725 C1726 1.396 . S
C1725 C1730 1.390 . S
C1726 C1720 1.465 . S
C1726 C1725 1.396 . S
C1726 C1727 1.399 . S
C1727 H1713 0.929 . S
C1727 C1726 1.399 . S
C1727 C1728 1.385 . S
C1728 H1714 0.931 . S
C1728 C1727 1.385 . S
C1728 C1729 1.389 . S
C1729 C1728 1.389 . S
C1729 C1730 1.387 . S
C1730 H1715 0.930 . S
C1730 C1725 1.390 . S
C1730 C1729 1.387 . S
H1731 C1743 0.930 . S
H1732 C1745 0.930 . S
H1733 C1746 0.930 . S
H1734 C1750 0.959 . S
H1735 C1750 0.959 . S
H1736 C1750 0.961 . S
H1737 C1751 0.960 . S
H1738 C1751 0.961 . S
H1739 C1751 0.959 . S
H1740 C1754 0.929 . S
H1741 C1755 0.931 . S
H1742 C1757 0.930 . S
C1743 H1731 0.930 . S
C1743 C1744 1.399 . S
C1743 C1748 1.399 . S
C1744 C1743 1.399 . S
C1744 C1745 1.376 . S
C1745 H1732 0.930 . S
C1745 C1744 1.376 . S
C1745 C1746 1.388 . S
C1746 H1733 0.930 . S
C1746 C1745 1.388 . S
C1746 C1747 1.390 . S
C1747 C1746 1.390 . S
C1747 C1748 1.394 . S
C1747 C1753 1.465 . S
C1748 C1743 1.399 . S
C1748 C1747 1.394 . S
C1748 C1749 1.516 . S
C1749 C1748 1.516 . S
C1749 C1750 1.502 . S
C1749 C1751 1.561 . S
C1749 C1752 1.526 . S
C1750 H1734 0.959 . S
C1750 H1735 0.959 . S
C1750 H1736 0.961 . S
C1750 C1749 1.502 . S
C1751 H1737 0.960 . S
C1751 H1738 0.961 . S
C1751 H1739 0.959 . S
C1751 C1749 1.561 . S
C1752 C1749 1.526 . S
C1752 C1753 1.396 . S
C1752 C1757 1.390 . S
C1753 C1747 1.465 . S
C1753 C1752 1.396 . S
C1753 C1754 1.399 . S
C1754 H1740 0.929 . S
C1754 C1753 1.399 . S
C1754 C1755 1.385 . S
C1755 H1741 0.931 . S
C1755 C1754 1.385 . S
C1755 C1756 1.389 . S
C1756 C1755 1.389 . S
C1756 C1757 1.387 . S
C1757 H1742 0.930 . S
C1757 C1752 1.390 . S
C1757 C1756 1.387 . S
H1758 C1770 0.930 . S
H1759 C1772 0.930 . S
H1760 C1773 0.930 . S
H1761 C1777 0.959 . S
H1762 C1777 0.959 . S
H1763 C1777 0.961 . S
H1764 C1778 0.960 . S
H1765 C1778 0.961 . S
H1766 C1778 0.959 . S
H1767 C1781 0.929 . S
H1768 C1782 0.931 . S
H1769 C1784 0.930 . S
C1770 H1758 0.930 . S
C1770 C1771 1.399 . S
C1770 C1775 1.399 . S
C1771 C1770 1.399 . S
C1771 C1772 1.376 . S
C1772 H1759 0.930 . S
C1772 C1771 1.376 . S
C1772 C1773 1.388 . S
C1773 H1760 0.930 . S
C1773 C1772 1.388 . S
C1773 C1774 1.390 . S
C1774 C1773 1.390 . S
C1774 C1775 1.394 . S
C1774 C1780 1.465 . S
C1775 C1770 1.399 . S
C1775 C1774 1.394 . S
C1775 C1776 1.516 . S
C1776 C1775 1.516 . S
C1776 C1777 1.502 . S
C1776 C1778 1.561 . S
C1776 C1779 1.526 . S
C1777 H1761 0.959 . S
C1777 H1762 0.959 . S
C1777 H1763 0.961 . S
C1777 C1776 1.502 . S
C1778 H1764 0.960 . S
C1778 H1765 0.961 . S
C1778 H1766 0.959 . S
C1778 C1776 1.561 . S
C1779 C1776 1.526 . S
C1779 C1780 1.396 . S
C1779 C1784 1.390 . S
C1780 C1774 1.465 . S
C1780 C1779 1.396 . S
C1780 C1781 1.399 . S
C1781 H1767 0.929 . S
C1781 C1780 1.399 . S
C1781 C1782 1.385 . S
C1782 H1768 0.931 . S
C1782 C1781 1.385 . S
C1782 C1783 1.389 . S
C1783 C1782 1.389 . S
C1783 C1784 1.387 . S
C1784 H1769 0.930 . S
C1784 C1779 1.390 . S
C1784 C1783 1.387 . S
H1785 C1797 0.930 . S
H1786 C1799 0.930 . S
H1787 C1800 0.930 . S
H1788 C1804 0.959 . S
H1789 C1804 0.959 . S
H1790 C1804 0.961 . S
H1791 C1805 0.960 . S
H1792 C1805 0.961 . S
H1793 C1805 0.959 . S
H1794 C1808 0.929 . S
H1795 C1809 0.931 . S
H1796 C1811 0.930 . S
C1797 H1785 0.930 . S
C1797 C1798 1.399 . S
C1797 C1802 1.399 . S
C1798 C1797 1.399 . S
C1798 C1799 1.376 . S
C1799 H1786 0.930 . S
C1799 C1798 1.376 . S
C1799 C1800 1.388 . S
C1800 H1787 0.930 . S
C1800 C1799 1.388 . S
C1800 C1801 1.390 . S
C1801 C1800 1.390 . S
C1801 C1802 1.394 . S
C1801 C1807 1.465 . S
C1802 C1797 1.399 . S
C1802 C1801 1.394 . S
C1802 C1803 1.516 . S
C1803 C1802 1.516 . S
C1803 C1804 1.502 . S
C1803 C1805 1.561 . S
C1803 C1806 1.526 . S
C1804 H1788 0.959 . S
C1804 H1789 0.959 . S
C1804 H1790 0.961 . S
C1804 C1803 1.502 . S
C1805 H1791 0.960 . S
C1805 H1792 0.961 . S
C1805 H1793 0.959 . S
C1805 C1803 1.561 . S
C1806 C1803 1.526 . S
C1806 C1807 1.396 . S
C1806 C1811 1.390 . S
C1807 C1801 1.465 . S
C1807 C1806 1.396 . S
C1807 C1808 1.399 . S
C1808 H1794 0.929 . S
C1808 C1807 1.399 . S
C1808 C1809 1.385 . S
C1809 H1795 0.931 . S
C1809 C1808 1.385 . S
C1809 C1810 1.389 . S
C1810 C1809 1.389 . S
C1810 C1811 1.387 . S
C1811 H1796 0.930 . S
C1811 C1806 1.390 . S
C1811 C1810 1.387 . S
H1812 C1824 0.930 . S
H1813 C1826 0.930 . S
H1814 C1827 0.930 . S
H1815 C1831 0.959 . S
H1816 C1831 0.959 . S
H1817 C1831 0.961 . S
H1818 C1832 0.960 . S
H1819 C1832 0.961 . S
H1820 C1832 0.959 . S
H1821 C1835 0.929 . S
H1822 C1836 0.931 . S
H1823 C1838 0.930 . S
C1824 H1812 0.930 . S
C1824 C1825 1.399 . S
C1824 C1829 1.399 . S
C1825 C1824 1.399 . S
C1825 C1826 1.376 . S
C1826 H1813 0.930 . S
C1826 C1825 1.376 . S
C1826 C1827 1.388 . S
C1827 H1814 0.930 . S
C1827 C1826 1.388 . S
C1827 C1828 1.390 . S
C1828 C1827 1.390 . S
C1828 C1829 1.394 . S
C1828 C1834 1.465 . S
C1829 C1824 1.399 . S
C1829 C1828 1.394 . S
C1829 C1830 1.516 . S
C1830 C1829 1.516 . S
C1830 C1831 1.502 . S
C1830 C1832 1.561 . S
C1830 C1833 1.526 . S
C1831 H1815 0.959 . S
C1831 H1816 0.959 . S
C1831 H1817 0.961 . S
C1831 C1830 1.502 . S
C1832 H1818 0.960 . S
C1832 H1819 0.961 . S
C1832 H1820 0.959 . S
C1832 C1830 1.561 . S
C1833 C1830 1.526 . S
C1833 C1834 1.396 . S
C1833 C1838 1.390 . S
C1834 C1828 1.465 . S
C1834 C1833 1.396 . S
C1834 C1835 1.399 . S
C1835 H1821 0.929 . S
C1835 C1834 1.399 . S
C1835 C1836 1.385 . S
C1836 H1822 0.931 . S
C1836 C1835 1.385 . S
C1836 C1837 1.389 . S
C1837 C1836 1.389 . S
C1837 C1838 1.387 . S
C1838 H1823 0.930 . S
C1838 C1833 1.390 . S
C1838 C1837 1.387 . S
H1839 C1851 0.930 . S
H1840 C1853 0.930 . S
H1841 C1854 0.930 . S
H1842 C1858 0.959 . S
H1843 C1858 0.959 . S
H1844 C1858 0.961 . S
H1845 C1859 0.960 . S
H1846 C1859 0.961 . S
H1847 C1859 0.959 . S
H1848 C1862 0.929 . S
H1849 C1863 0.931 . S
H1850 C1865 0.930 . S
C1851 H1839 0.930 . S
C1851 C1852 1.399 . S
C1851 C1856 1.399 . S
C1852 C1851 1.399 . S
C1852 C1853 1.376 . S
C1853 H1840 0.930 . S
C1853 C1852 1.376 . S
C1853 C1854 1.388 . S
C1854 H1841 0.930 . S
C1854 C1853 1.388 . S
C1854 C1855 1.390 . S
C1855 C1854 1.390 . S
C1855 C1856 1.394 . S
C1855 C1861 1.465 . S
C1856 C1851 1.399 . S
C1856 C1855 1.394 . S
C1856 C1857 1.516 . S
C1857 C1856 1.516 . S
C1857 C1858 1.502 . S
C1857 C1859 1.561 . S
C1857 C1860 1.526 . S
C1858 H1842 0.959 . S
C1858 H1843 0.959 . S
C1858 H1844 0.961 . S
C1858 C1857 1.502 . S
C1859 H1845 0.960 . S
C1859 H1846 0.961 . S
C1859 H1847 0.959 . S
C1859 C1857 1.561 . S
C1860 C1857 1.526 . S
C1860 C1861 1.396 . S
C1860 C1865 1.390 . S
C1861 C1855 1.465 . S
C1861 C1860 1.396 . S
C1861 C1862 1.399 . S
C1862 H1848 0.929 . S
C1862 C1861 1.399 . S
C1862 C1863 1.385 . S
C1863 H1849 0.931 . S
C1863 C1862 1.385 . S
C1863 C1864 1.389 . S
C1864 C1863 1.389 . S
C1864 C1865 1.387 . S
C1865 H1850 0.930 . S
C1865 C1860 1.390 . S
C1865 C1864 1.387 . S
H1866 C1878 0.930 . S
H1867 C1880 0.930 . S
H1868 C1881 0.930 . S
H1869 C1885 0.959 . S
H1870 C1885 0.959 . S
H1871 C1885 0.961 . S
H1872 C1886 0.960 . S
H1873 C1886 0.961 . S
H1874 C1886 0.959 . S
H1875 C1889 0.929 . S
H1876 C1890 0.931 . S
H1877 C1892 0.930 . S
C1878 H1866 0.930 . S
C1878 C1879 1.399 . S
C1878 C1883 1.399 . S
C1879 C1878 1.399 . S
C1879 C1880 1.376 . S
C1880 H1867 0.930 . S
C1880 C1879 1.376 . S
C1880 C1881 1.388 . S
C1881 H1868 0.930 . S
C1881 C1880 1.388 . S
C1881 C1882 1.390 . S
C1882 C1881 1.390 . S
C1882 C1883 1.394 . S
C1882 C1888 1.465 . S
C1883 C1878 1.399 . S
C1883 C1882 1.394 . S
C1883 C1884 1.516 . S
C1884 C1883 1.516 . S
C1884 C1885 1.502 . S
C1884 C1886 1.561 . S
C1884 C1887 1.526 . S
C1885 H1869 0.959 . S
C1885 H1870 0.959 . S
C1885 H1871 0.961 . S
C1885 C1884 1.502 . S
C1886 H1872 0.960 . S
C1886 H1873 0.961 . S
C1886 H1874 0.959 . S
C1886 C1884 1.561 . S
C1887 C1884 1.526 . S
C1887 C1888 1.396 . S
C1887 C1892 1.390 . S
C1888 C1882 1.465 . S
C1888 C1887 1.396 . S
C1888 C1889 1.399 . S
C1889 H1875 0.929 . S
C1889 C1888 1.399 . S
C1889 C1890 1.385 . S
C1890 H1876 0.931 . S
C1890 C1889 1.385 . S
C1890 C1891 1.389 . S
C1891 C1890 1.389 . S
C1891 C1892 1.387 . S
C1892 H1877 0.930 . S
C1892 C1887 1.390 . S
C1892 C1891 1.387 . S
H1893 C1905 0.930 . S
H1894 C1907 0.930 . S
H1895 C1908 0.930 . S
H1896 C1912 0.959 . S
H1897 C1912 0.959 . S
H1898 C1912 0.961 . S
H1899 C1913 0.960 . S
H1900 C1913 0.961 . S
H1901 C1913 0.959 . S
H1902 C1916 0.929 . S
H1903 C1917 0.931 . S
H1904 C1919 0.930 . S
C1905 H1893 0.930 . S
C1905 C1906 1.399 . S
C1905 C1910 1.399 . S
C1906 C1905 1.399 . S
C1906 C1907 1.376 . S
C1907 H1894 0.930 . S
C1907 C1906 1.376 . S
C1907 C1908 1.388 . S
C1908 H1895 0.930 . S
C1908 C1907 1.388 . S
C1908 C1909 1.390 . S
C1909 C1908 1.390 . S
C1909 C1910 1.394 . S
C1909 C1915 1.465 . S
C1910 C1905 1.399 . S
C1910 C1909 1.394 . S
C1910 C1911 1.516 . S
C1911 C1910 1.516 . S
C1911 C1912 1.502 . S
C1911 C1913 1.561 . S
C1911 C1914 1.526 . S
C1912 H1896 0.959 . S
C1912 H1897 0.959 . S
C1912 H1898 0.961 . S
C1912 C1911 1.502 . S
C1913 H1899 0.960 . S
C1913 H1900 0.961 . S
C1913 H1901 0.959 . S
C1913 C1911 1.561 . S
C1914 C1911 1.526 . S
C1914 C1915 1.396 . S
C1914 C1919 1.390 . S
C1915 C1909 1.465 . S
C1915 C1914 1.396 . S
C1915 C1916 1.399 . S
C1916 H1902 0.929 . S
C1916 C1915 1.399 . S
C1916 C1917 1.385 . S
C1917 H1903 0.931 . S
C1917 C1916 1.385 . S
C1917 C1918 1.389 . S
C1918 C1917 1.389 . S
C1918 C1919 1.387 . S
C1919 H1904 0.930 . S
C1919 C1914 1.390 . S
C1919 C1918 1.387 . S
H1920 C1932 0.930 . S
H1921 C1934 0.930 . S
H1922 C1935 0.930 . S
H1923 C1939 0.963 1_545 S
H1924 C1939 0.959 . S
H1925 C1939 0.961 . S
H1926 C1940 0.960 . S
H1927 C1940 0.961 . S
H1928 C1940 0.959 . S
H1929 C1943 0.929 . S
H1930 C1944 0.931 . S
H1931 C1946 0.930 . S
C1932 H1920 0.930 . S
C1932 C1933 1.399 1_455 S
C1932 C1937 1.399 . S
C1933 C1932 1.399 1_655 S
C1933 C1934 1.376 . S
C1934 H1921 0.930 . S
C1934 C1933 1.376 . S
C1934 C1935 1.388 . S
C1935 H1922 0.930 . S
C1935 C1934 1.388 . S
C1935 C1936 1.390 . S
C1936 C1935 1.390 . S
C1936 C1937 1.394 1_655 S
C1936 C1942 1.465 1_565 S
C1937 C1932 1.399 . S
C1937 C1936 1.394 1_455 S
C1937 C1938 1.516 . S
C1938 C1937 1.516 . S
C1938 C1939 1.502 . S
C1938 C1940 1.561 . S
C1938 C1941 1.526 1_565 S
C1939 H1923 0.963 1_565 S
C1939 H1924 0.959 . S
C1939 H1925 0.961 . S
C1939 C1938 1.502 . S
C1940 H1926 0.960 . S
C1940 H1927 0.961 . S
C1940 H1928 0.959 . S
C1940 C1938 1.561 . S
C1941 C1938 1.526 1_545 S
C1941 C1942 1.396 1_455 S
C1941 C1946 1.390 . S
C1942 C1936 1.465 1_545 S
C1942 C1941 1.396 1_655 S
C1942 C1943 1.399 . S
C1943 H1929 0.929 . S
C1943 C1942 1.399 . S
C1943 C1944 1.385 . S
C1944 H1930 0.931 . S
C1944 C1943 1.385 . S
C1944 C1945 1.389 1_655 S
C1945 C1944 1.389 1_455 S
C1945 C1946 1.387 . S
C1946 H1931 0.930 . S
C1946 C1941 1.390 . S
C1946 C1945 1.387 . S
H1947 C1959 0.930 . S
H1948 C1961 0.930 . S
H1949 C1962 0.930 . S
H1950 C1966 0.959 . S
H1951 C1966 0.959 . S
H1952 C1966 0.961 . S
H1953 C1967 0.960 . S
H1954 C1967 0.961 . S
H1955 C1967 0.959 . S
H1956 C1970 0.929 . S
H1957 C1971 0.931 . S
H1958 C1973 0.930 . S
C1959 H1947 0.930 . S
C1959 C1960 1.399 . S
C1959 C1964 1.399 . S
C1960 C1959 1.399 . S
C1960 C1961 1.376 . S
C1961 H1948 0.930 . S
C1961 C1960 1.376 . S
C1961 C1962 1.388 . S
C1962 H1949 0.930 . S
C1962 C1961 1.388 . S
C1962 C1963 1.390 . S
C1963 C1962 1.390 . S
C1963 C1964 1.394 . S
C1963 C1969 1.465 . S
C1964 C1959 1.399 . S
C1964 C1963 1.394 . S
C1964 C1965 1.516 . S
C1965 C1964 1.516 . S
C1965 C1966 1.502 . S
C1965 C1967 1.561 . S
C1965 C1968 1.526 . S
C1966 H1950 0.959 . S
C1966 H1951 0.959 . S
C1966 H1952 0.961 . S
C1966 C1965 1.502 . S
C1967 H1953 0.960 . S
C1967 H1954 0.961 . S
C1967 H1955 0.959 . S
C1967 C1965 1.561 . S
C1968 C1965 1.526 . S
C1968 C1969 1.396 . S
C1968 C1973 1.390 . S
C1969 C1963 1.465 . S
C1969 C1968 1.396 . S
C1969 C1970 1.399 . S
C1970 H1956 0.929 . S
C1970 C1969 1.399 . S
C1970 C1971 1.385 . S
C1971 H1957 0.931 . S
C1971 C1970 1.385 . S
C1971 C1972 1.389 . S
C1972 C1971 1.389 . S
C1972 C1973 1.387 . S
C1973 H1958 0.930 . S
C1973 C1968 1.390 . S
C1973 C1972 1.387 . S
H1974 C1986 0.930 . S
H1975 C1988 0.930 . S
H1976 C1989 0.930 . S
H1977 C1993 0.959 . S
H1978 C1993 0.959 . S
H1979 C1993 0.961 . S
H1980 C1994 0.960 . S
H1981 C1994 0.961 . S
H1982 C1994 0.959 . S
H1983 C1997 0.929 . S
H1984 C1998 0.931 . S
H1985 C2000 0.921 1_655 S
C1986 H1974 0.930 . S
C1986 C1987 1.399 . S
C1986 C1991 1.399 . S
C1987 C1986 1.399 . S
C1987 C1988 1.376 1_655 S
C1988 H1975 0.930 . S
C1988 C1987 1.376 1_455 S
C1988 C1989 1.388 . S
C1989 H1976 0.930 . S
C1989 C1988 1.388 . S
C1989 C1990 1.390 . S
C1990 C1989 1.390 . S
C1990 C1991 1.394 1_455 S
C1990 C1996 1.465 . S
C1991 C1986 1.399 . S
C1991 C1990 1.394 1_655 S
C1991 C1992 1.516 . S
C1992 C1991 1.516 . S
C1992 C1993 1.502 . S
C1992 C1994 1.561 1_655 S
C1992 C1995 1.526 1_655 S
C1993 H1977 0.959 . S
C1993 H1978 0.959 . S
C1993 H1979 0.961 . S
C1993 C1992 1.502 . S
C1994 H1980 0.960 . S
C1994 H1981 0.961 . S
C1994 H1982 0.959 . S
C1994 C1992 1.561 1_455 S
C1995 C1992 1.526 1_455 S
C1995 C1996 1.396 . S
C1995 C2000 1.390 . S
C1996 C1990 1.465 . S
C1996 C1995 1.396 . S
C1996 C1997 1.399 . S
C1997 H1983 0.929 . S
C1997 C1996 1.399 . S
C1997 C1998 1.385 . S
C1998 H1984 0.931 . S
C1998 C1997 1.385 . S
C1998 C1999 1.389 . S
C1999 C1998 1.389 . S
C1999 C2000 1.387 . S
C2000 H1985 0.921 1_455 S
C2000 C1995 1.390 . S
C2000 C1999 1.387 . S
H2001 C2013 0.930 . S
H2002 C2015 0.930 . S
H2003 C2016 0.930 . S
H2004 C2020 0.956 1_565 S
H2005 C2020 0.967 . S
H2006 C2020 0.955 1_565 S
H2007 C2021 0.960 . S
H2008 C2021 0.961 . S
H2009 C2021 0.959 . S
H2010 C2024 0.929 . S
H2011 C2025 0.931 . S
H2012 C2027 0.930 . S
C2013 H2001 0.930 . S
C2013 C2014 1.399 . S
C2013 C2018 1.399 . S
C2014 C2013 1.399 . S
C2014 C2015 1.376 . S
C2015 H2002 0.930 . S
C2015 C2014 1.376 . S
C2015 C2016 1.388 . S
C2016 H2003 0.930 . S
C2016 C2015 1.388 . S
C2016 C2017 1.390 . S
C2017 C2016 1.390 . S
C2017 C2018 1.394 . S
C2017 C2023 1.465 1_565 S
C2018 C2013 1.399 . S
C2018 C2017 1.394 . S
C2018 C2019 1.516 1_565 S
C2019 C2018 1.516 1_545 S
C2019 C2020 1.504 . S
C2019 C2021 1.561 . S
C2019 C2022 1.526 . S
C2020 H2004 0.956 1_545 S
C2020 H2005 0.967 . S
C2020 H2006 0.955 1_545 S
C2020 C2019 1.504 . S
C2021 H2007 0.960 . S
C2021 H2008 0.961 . S
C2021 H2009 0.959 . S
C2021 C2019 1.561 . S
C2022 C2019 1.526 . S
C2022 C2023 1.396 . S
C2022 C2027 1.390 . S
C2023 C2017 1.465 1_545 S
C2023 C2022 1.396 . S
C2023 C2024 1.399 . S
C2024 H2010 0.929 . S
C2024 C2023 1.399 . S
C2024 C2025 1.385 . S
C2025 H2011 0.931 . S
C2025 C2024 1.385 . S
C2025 C2026 1.389 . S
C2026 C2025 1.389 . S
C2026 C2027 1.387 . S
C2027 H2012 0.930 . S
C2027 C2022 1.390 . S
C2027 C2026 1.387 . S
H2028 C2040 0.930 . S
H2029 C2042 0.930 . S
H2030 C2043 0.930 . S
H2031 C2047 0.959 . S
H2032 C2047 0.959 . S
H2033 C2047 0.961 . S
H2034 C2048 0.960 . S
H2035 C2048 0.961 . S
H2036 C2048 0.959 . S
H2037 C2051 0.929 . S
H2038 C2052 0.931 . S
H2039 C2054 0.930 . S
C2040 H2028 0.930 . S
C2040 C2041 1.399 . S
C2040 C2045 1.399 . S
C2041 C2040 1.399 . S
C2041 C2042 1.376 . S
C2042 H2029 0.930 . S
C2042 C2041 1.376 . S
C2042 C2043 1.388 . S
C2043 H2030 0.930 . S
C2043 C2042 1.388 . S
C2043 C2044 1.390 . S
C2044 C2043 1.390 . S
C2044 C2045 1.394 . S
C2044 C2050 1.465 . S
C2045 C2040 1.399 . S
C2045 C2044 1.394 . S
C2045 C2046 1.516 . S
C2046 C2045 1.516 . S
C2046 C2047 1.502 . S
C2046 C2048 1.561 . S
C2046 C2049 1.526 . S
C2047 H2031 0.959 . S
C2047 H2032 0.959 . S
C2047 H2033 0.961 . S
C2047 C2046 1.502 . S
C2048 H2034 0.960 . S
C2048 H2035 0.961 . S
C2048 H2036 0.959 . S
C2048 C2046 1.561 . S
C2049 C2046 1.526 . S
C2049 C2050 1.396 . S
C2049 C2054 1.390 . S
C2050 C2044 1.465 . S
C2050 C2049 1.396 . S
C2050 C2051 1.399 . S
C2051 H2037 0.929 . S
C2051 C2050 1.399 . S
C2051 C2052 1.385 . S
C2052 H2038 0.931 . S
C2052 C2051 1.385 . S
C2052 C2053 1.389 . S
C2053 C2052 1.389 . S
C2053 C2054 1.387 . S
C2054 H2039 0.930 . S
C2054 C2049 1.390 . S
C2054 C2053 1.387 . S
H2055 C2067 0.930 . S
H2056 C2069 0.930 . S
H2057 C2070 0.930 . S
H2058 C2074 0.959 . S
H2059 C2074 0.959 . S
H2060 C2074 0.961 . S
H2061 C2075 0.960 . S
H2062 C2075 0.961 . S
H2063 C2075 0.959 1_655 S
H2064 C2078 0.929 . S
H2065 C2079 0.931 . S
H2066 C2081 0.930 . S
C2067 H2055 0.930 . S
C2067 C2068 1.399 . S
C2067 C2072 1.399 . S
C2068 C2067 1.399 . S
C2068 C2069 1.376 1_455 S
C2069 H2056 0.930 . S
C2069 C2068 1.376 1_655 S
C2069 C2070 1.388 . S
C2070 H2057 0.930 . S
C2070 C2069 1.388 . S
C2070 C2071 1.390 . S
C2071 C2070 1.390 . S
C2071 C2072 1.394 1_655 S
C2071 C2077 1.465 . S
C2072 C2067 1.399 . S
C2072 C2071 1.394 1_455 S
C2072 C2073 1.516 . S
C2073 C2072 1.516 . S
C2073 C2074 1.502 . S
C2073 C2075 1.561 . S
C2073 C2076 1.526 . S
C2074 H2058 0.959 . S
C2074 H2059 0.959 . S
C2074 H2060 0.961 . S
C2074 C2073 1.502 . S
C2075 H2061 0.960 . S
C2075 H2062 0.961 . S
C2075 H2063 0.959 1_455 S
C2075 C2073 1.561 . S
C2076 C2073 1.526 . S
C2076 C2077 1.396 1_455 S
C2076 C2081 1.390 . S
C2077 C2071 1.465 . S
C2077 C2076 1.396 1_655 S
C2077 C2078 1.399 . S
C2078 H2064 0.929 . S
C2078 C2077 1.399 . S
C2078 C2079 1.385 . S
C2079 H2065 0.931 . S
C2079 C2078 1.385 . S
C2079 C2080 1.389 . S
C2080 C2079 1.389 . S
C2080 C2081 1.387 1_655 S
C2081 H2066 0.930 . S
C2081 C2076 1.390 . S
C2081 C2080 1.387 1_455 S
H2082 C2094 0.930 . S
H2083 C2096 0.930 . S
H2084 C2097 0.930 . S
H2085 C2101 0.959 . S
H2086 C2101 0.959 . S
H2087 C2101 0.961 1_565 S
H2088 C2102 0.960 . S
H2089 C2102 0.961 . S
H2090 C2102 0.959 . S
H2091 C2105 0.929 . S
H2092 C2106 0.931 . S
H2093 C2108 0.930 . S
C2094 H2082 0.930 . S
C2094 C2095 1.399 . S
C2094 C2099 1.399 . S
C2095 C2094 1.399 . S
C2095 C2096 1.376 . S
C2096 H2083 0.930 . S
C2096 C2095 1.376 . S
C2096 C2097 1.388 . S
C2097 H2084 0.930 . S
C2097 C2096 1.388 . S
C2097 C2098 1.390 . S
C2098 C2097 1.390 . S
C2098 C2099 1.394 . S
C2098 C2104 1.465 1_565 S
C2099 C2094 1.399 . S
C2099 C2098 1.394 . S
C2099 C2100 1.516 . S
C2100 C2099 1.516 . S
C2100 C2101 1.502 1_565 S
C2100 C2102 1.561 . S
C2100 C2103 1.526 1_565 S
C2101 H2085 0.959 . S
C2101 H2086 0.959 . S
C2101 H2087 0.961 1_545 S
C2101 C2100 1.502 1_545 S
C2102 H2088 0.960 . S
C2102 H2089 0.961 . S
C2102 H2090 0.959 . S
C2102 C2100 1.561 . S
C2103 C2100 1.526 1_545 S
C2103 C2104 1.396 . S
C2103 C2108 1.390 . S
C2104 C2098 1.465 1_545 S
C2104 C2103 1.396 . S
C2104 C2105 1.399 . S
C2105 H2091 0.929 . S
C2105 C2104 1.399 . S
C2105 C2106 1.385 . S
C2106 H2092 0.931 . S
C2106 C2105 1.385 . S
C2106 C2107 1.389 . S
C2107 C2106 1.389 . S
C2107 C2108 1.387 . S
C2108 H2093 0.930 . S
C2108 C2103 1.390 . S
C2108 C2107 1.387 . S
H2109 C2121 0.930 1_556 S
H2110 C2123 0.926 1_455 S
H2111 C2124 0.930 . S
H2112 C2128 0.959 . S
H2113 C2128 0.956 1_655 S
H2114 C2128 0.951 1_655 S
H2115 C2129 0.960 . S
H2116 C2129 0.961 . S
H2117 C2129 0.959 . S
H2118 C2132 0.929 . S
H2119 C2133 0.924 1_554 S
H2120 C2135 0.941 . S
C2121 H2109 0.930 1_554 S
C2121 C2122 1.399 . S
C2121 C2126 1.399 . S
C2122 C2121 1.399 . S
C2122 C2123 1.388 . S
C2123 H2110 0.926 1_655 S
C2123 C2122 1.388 . S
C2123 C2124 1.383 1_655 S
C2124 H2111 0.930 . S
C2124 C2123 1.383 1_455 S
C2124 C2125 1.386 1_455 S
C2125 C2124 1.386 1_655 S
C2125 C2126 1.404 . S
C2125 C2131 1.461 1_655 S
C2126 C2121 1.399 . S
C2126 C2125 1.404 . S
C2126 C2127 1.516 1_554 S
C2127 C2126 1.516 1_556 S
C2127 C2128 1.502 1_655 S
C2127 C2129 1.561 . S
C2127 C2130 1.526 . S
C2128 H2112 0.959 . S
C2128 H2113 0.956 1_455 S
C2128 H2114 0.951 1_455 S
C2128 C2127 1.502 1_455 S
C2129 H2115 0.960 . S
C2129 H2116 0.961 . S
C2129 H2117 0.959 . S
C2129 C2127 1.561 . S
C2130 C2127 1.526 . S
C2130 C2131 1.396 1_656 S
C2130 C2135 1.394 . S
C2131 C2125 1.461 1_455 S
C2131 C2130 1.396 1_454 S
C2131 C2132 1.399 . S
C2132 H2118 0.929 . S
C2132 C2131 1.399 . S
C2132 C2133 1.385 1_554 S
C2133 H2119 0.924 1_556 S
C2133 C2132 1.385 1_556 S
C2133 C2134 1.389 . S
C2134 C2133 1.389 . S
C2134 C2135 1.374 1_455 S
C2135 H2120 0.941 . S
C2135 C2130 1.394 . S
C2135 C2134 1.374 1_655 S
H2136 C2148 0.930 1_554 S
H2137 C2150 0.930 . S
H2138 C2151 0.930 . S
H2139 C2155 0.959 . S
H2140 C2155 0.959 . S
H2141 C2155 0.961 . S
H2142 C2156 0.960 . S
H2143 C2156 0.961 . S
H2144 C2156 0.959 . S
H2145 C2159 0.929 . S
H2146 C2160 0.932 . S
H2147 C2162 0.930 . S
C2148 H2136 0.930 1_556 S
C2148 C2149 1.399 . S
C2148 C2153 1.399 . S
C2149 C2148 1.399 . S
C2149 C2150 1.376 . S
C2150 H2137 0.930 . S
C2150 C2149 1.376 . S
C2150 C2151 1.388 . S
C2151 H2138 0.930 . S
C2151 C2150 1.388 . S
C2151 C2152 1.390 . S
C2152 C2151 1.390 . S
C2152 C2153 1.394 . S
C2152 C2158 1.465 . S
C2153 C2148 1.399 . S
C2153 C2152 1.394 . S
C2153 C2154 1.516 1_556 S
C2154 C2153 1.516 1_554 S
C2154 C2155 1.502 . S
C2154 C2156 1.561 . S
C2154 C2157 1.526 . S
C2155 H2139 0.959 . S
C2155 H2140 0.959 . S
C2155 H2141 0.961 . S
C2155 C2154 1.502 . S
C2156 H2142 0.960 . S
C2156 H2143 0.961 . S
C2156 H2144 0.959 . S
C2156 C2154 1.561 . S
C2157 C2154 1.526 . S
C2157 C2158 1.396 1_554 S
C2157 C2162 1.390 . S
C2158 C2152 1.465 . S
C2158 C2157 1.396 1_556 S
C2158 C2159 1.399 . S
C2159 H2145 0.929 . S
C2159 C2158 1.399 . S
C2159 C2160 1.385 1_556 S
C2160 H2146 0.932 . S
C2160 C2159 1.385 1_554 S
C2160 C2161 1.389 . S
C2161 C2160 1.389 . S
C2161 C2162 1.387 . S
C2162 H2147 0.930 . S
C2162 C2157 1.390 . S
C2162 C2161 1.387 . S
H2163 C2175 0.930 . S
H2164 C2177 0.930 . S
H2165 C2178 0.930 . S
H2166 C2182 0.959 . S
H2167 C2182 0.959 . S
H2168 C2182 0.961 . S
H2169 C2183 0.960 . S
H2170 C2183 0.961 . S
H2171 C2183 0.959 . S
H2172 C2186 0.929 . S
H2173 C2187 0.931 . S
H2174 C2189 0.930 . S
C2175 H2163 0.930 . S
C2175 C2176 1.399 . S
C2175 C2180 1.399 . S
C2176 C2175 1.399 . S
C2176 C2177 1.376 . S
C2177 H2164 0.930 . S
C2177 C2176 1.376 . S
C2177 C2178 1.388 . S
C2178 H2165 0.930 . S
C2178 C2177 1.388 . S
C2178 C2179 1.390 . S
C2179 C2178 1.390 . S
C2179 C2180 1.394 . S
C2179 C2185 1.465 . S
C2180 C2175 1.399 . S
C2180 C2179 1.394 . S
C2180 C2181 1.516 . S
C2181 C2180 1.516 . S
C2181 C2182 1.502 . S
C2181 C2183 1.561 . S
C2181 C2184 1.526 . S
C2182 H2166 0.959 . S
C2182 H2167 0.959 . S
C2182 H2168 0.961 . S
C2182 C2181 1.502 . S
C2183 H2169 0.960 . S
C2183 H2170 0.961 . S
C2183 H2171 0.959 . S
C2183 C2181 1.561 . S
C2184 C2181 1.526 . S
C2184 C2185 1.396 . S
C2184 C2189 1.390 . S
C2185 C2179 1.465 . S
C2185 C2184 1.396 . S
C2185 C2186 1.399 . S
C2186 H2172 0.929 . S
C2186 C2185 1.399 . S
C2186 C2187 1.385 . S
C2187 H2173 0.931 . S
C2187 C2186 1.385 . S
C2187 C2188 1.389 . S
C2188 C2187 1.389 . S
C2188 C2189 1.387 . S
C2189 H2174 0.930 . S
C2189 C2184 1.390 . S
C2189 C2188 1.387 . S
H2190 C2202 0.930 . S
H2191 C2204 0.930 . S
H2192 C2205 0.930 . S
H2193 C2209 0.959 . S
H2194 C2209 0.959 . S
H2195 C2209 0.961 . S
H2196 C2210 0.960 . S
H2197 C2210 0.961 . S
H2198 C2210 0.959 . S
H2199 C2213 0.929 . S
H2200 C2214 0.931 . S
H2201 C2216 0.930 . S
C2202 H2190 0.930 . S
C2202 C2203 1.399 . S
C2202 C2207 1.399 . S
C2203 C2202 1.399 . S
C2203 C2204 1.376 . S
C2204 H2191 0.930 . S
C2204 C2203 1.376 . S
C2204 C2205 1.388 1_556 S
C2205 H2192 0.930 . S
C2205 C2204 1.388 1_554 S
C2205 C2206 1.390 . S
C2206 C2205 1.390 . S
C2206 C2207 1.394 1_554 S
C2206 C2212 1.465 . S
C2207 C2202 1.399 . S
C2207 C2206 1.394 1_556 S
C2207 C2208 1.516 . S
C2208 C2207 1.516 . S
C2208 C2209 1.502 . S
C2208 C2210 1.561 . S
C2208 C2211 1.526 1_556 S
C2209 H2193 0.959 . S
C2209 H2194 0.959 . S
C2209 H2195 0.961 . S
C2209 C2208 1.502 . S
C2210 H2196 0.960 . S
C2210 H2197 0.961 . S
C2210 H2198 0.959 . S
C2210 C2208 1.561 . S
C2211 C2208 1.526 1_554 S
C2211 C2212 1.396 . S
C2211 C2216 1.390 . S
C2212 C2206 1.465 . S
C2212 C2211 1.396 . S
C2212 C2213 1.399 . S
C2213 H2199 0.929 . S
C2213 C2212 1.399 . S
C2213 C2214 1.385 . S
C2214 H2200 0.931 . S
C2214 C2213 1.385 . S
C2214 C2215 1.389 . S
C2215 C2214 1.389 . S
C2215 C2216 1.387 . S
C2216 H2201 0.930 . S
C2216 C2211 1.390 . S
C2216 C2215 1.387 . S
H2217 C2229 0.930 . S
H2218 C2231 0.930 . S
H2219 C2232 0.930 . S
H2220 C2236 0.959 . S
H2221 C2236 0.959 . S
H2222 C2236 0.961 . S
H2223 C2237 0.960 . S
H2224 C2237 0.961 . S
H2225 C2237 0.959 . S
H2226 C2240 0.929 . S
H2227 C2241 0.931 . S
H2228 C2243 0.930 . S
C2229 H2217 0.930 . S
C2229 C2230 1.399 . S
C2229 C2234 1.399 . S
C2230 C2229 1.399 . S
C2230 C2231 1.376 . S
C2231 H2218 0.930 . S
C2231 C2230 1.376 . S
C2231 C2232 1.388 . S
C2232 H2219 0.930 . S
C2232 C2231 1.388 . S
C2232 C2233 1.390 . S
C2233 C2232 1.390 . S
C2233 C2234 1.394 . S
C2233 C2239 1.465 . S
C2234 C2229 1.399 . S
C2234 C2233 1.394 . S
C2234 C2235 1.516 . S
C2235 C2234 1.516 . S
C2235 C2236 1.502 . S
C2235 C2237 1.561 . S
C2235 C2238 1.526 . S
C2236 H2220 0.959 . S
C2236 H2221 0.959 . S
C2236 H2222 0.961 . S
C2236 C2235 1.502 . S
C2237 H2223 0.960 . S
C2237 H2224 0.961 . S
C2237 H2225 0.959 . S
C2237 C2235 1.561 . S
C2238 C2235 1.526 . S
C2238 C2239 1.396 . S
C2238 C2243 1.390 . S
C2239 C2233 1.465 . S
C2239 C2238 1.396 . S
C2239 C2240 1.399 . S
C2240 H2226 0.929 . S
C2240 C2239 1.399 . S
C2240 C2241 1.385 . S
C2241 H2227 0.931 . S
C2241 C2240 1.385 . S
C2241 C2242 1.389 . S
C2242 C2241 1.389 . S
C2242 C2243 1.387 . S
C2243 H2228 0.930 . S
C2243 C2238 1.390 . S
C2243 C2242 1.387 . S
H2244 C2256 0.930 . S
H2245 C2258 0.930 . S
H2246 C2259 0.930 . S
H2247 C2263 0.959 1_565 S
H2248 C2263 0.959 1_565 S
H2249 C2263 0.961 . S
H2250 C2264 0.960 . S
H2251 C2264 0.961 . S
H2252 C2264 0.959 . S
H2253 C2267 0.929 . S
H2254 C2268 0.931 . S
H2255 C2270 0.930 . S
C2256 H2244 0.930 . S
C2256 C2257 1.399 . S
C2256 C2261 1.399 . S
C2257 C2256 1.399 . S
C2257 C2258 1.376 . S
C2258 H2245 0.930 . S
C2258 C2257 1.376 . S
C2258 C2259 1.388 . S
C2259 H2246 0.930 . S
C2259 C2258 1.388 . S
C2259 C2260 1.390 . S
C2260 C2259 1.390 . S
C2260 C2261 1.394 . S
C2260 C2266 1.465 1_546 S
C2261 C2256 1.399 . S
C2261 C2260 1.394 . S
C2261 C2262 1.516 1_556 S
C2262 C2261 1.516 1_554 S
C2262 C2263 1.502 . S
C2262 C2264 1.561 . S
C2262 C2265 1.526 1_545 S
C2263 H2247 0.959 1_545 S
C2263 H2248 0.959 1_545 S
C2263 H2249 0.961 . S
C2263 C2262 1.502 . S
C2264 H2250 0.960 . S
C2264 H2251 0.961 . S
C2264 H2252 0.959 . S
C2264 C2262 1.561 . S
C2265 C2262 1.526 1_565 S
C2265 C2266 1.396 . S
C2265 C2270 1.390 . S
C2266 C2260 1.465 1_564 S
C2266 C2265 1.396 . S
C2266 C2267 1.399 1_554 S
C2267 H2253 0.929 . S
C2267 C2266 1.399 1_556 S
C2267 C2268 1.385 1_556 S
C2268 H2254 0.931 . S
C2268 C2267 1.385 1_554 S
C2268 C2269 1.389 . S
C2269 C2268 1.389 . S
C2269 C2270 1.387 . S
C2270 H2255 0.930 . S
C2270 C2265 1.390 . S
C2270 C2269 1.387 . S
H2271 C2283 0.930 . S
H2272 C2285 0.930 . S
H2273 C2286 0.930 . S
H2274 C2290 0.959 . S
H2275 C2290 0.959 . S
H2276 C2290 0.961 . S
H2277 C2291 0.960 . S
H2278 C2291 0.961 . S
H2279 C2291 0.959 . S
H2280 C2294 0.929 . S
H2281 C2295 0.931 . S
H2282 C2297 0.930 . S
C2283 H2271 0.930 . S
C2283 C2284 1.399 . S
C2283 C2288 1.399 . S
C2284 C2283 1.399 . S
C2284 C2285 1.376 . S
C2285 H2272 0.930 . S
C2285 C2284 1.376 . S
C2285 C2286 1.388 . S
C2286 H2273 0.930 . S
C2286 C2285 1.388 . S
C2286 C2287 1.390 . S
C2287 C2286 1.390 . S
C2287 C2288 1.394 . S
C2287 C2293 1.465 . S
C2288 C2283 1.399 . S
C2288 C2287 1.394 . S
C2288 C2289 1.516 . S
C2289 C2288 1.516 . S
C2289 C2290 1.502 . S
C2289 C2291 1.561 . S
C2289 C2292 1.526 . S
C2290 H2274 0.959 . S
C2290 H2275 0.959 . S
C2290 H2276 0.961 . S
C2290 C2289 1.502 . S
C2291 H2277 0.960 . S
C2291 H2278 0.961 . S
C2291 H2279 0.959 . S
C2291 C2289 1.561 . S
C2292 C2289 1.526 . S
C2292 C2293 1.396 . S
C2292 C2297 1.390 . S
C2293 C2287 1.465 . S
C2293 C2292 1.396 . S
C2293 C2294 1.399 . S
C2294 H2280 0.929 . S
C2294 C2293 1.399 . S
C2294 C2295 1.385 . S
C2295 H2281 0.931 . S
C2295 C2294 1.385 . S
C2295 C2296 1.389 . S
C2296 C2295 1.389 . S
C2296 C2297 1.387 . S
C2297 H2282 0.930 . S
C2297 C2292 1.390 . S
C2297 C2296 1.387 . S
H2298 C2310 0.930 . S
H2299 C2312 0.930 . S
H2300 C2313 0.930 . S
H2301 C2317 0.959 . S
H2302 C2317 0.959 . S
H2303 C2317 0.961 . S
H2304 C2318 0.960 . S
H2305 C2318 0.961 . S
H2306 C2318 0.959 . S
H2307 C2321 0.929 . S
H2308 C2322 0.931 . S
H2309 C2324 0.930 . S
C2310 H2298 0.930 . S
C2310 C2311 1.399 . S
C2310 C2315 1.399 . S
C2311 C2310 1.399 . S
C2311 C2312 1.376 . S
C2312 H2299 0.930 . S
C2312 C2311 1.376 . S
C2312 C2313 1.388 . S
C2313 H2300 0.930 . S
C2313 C2312 1.388 . S
C2313 C2314 1.390 . S
C2314 C2313 1.390 . S
C2314 C2315 1.394 . S
C2314 C2320 1.465 . S
C2315 C2310 1.399 . S
C2315 C2314 1.394 . S
C2315 C2316 1.516 . S
C2316 C2315 1.516 . S
C2316 C2317 1.502 . S
C2316 C2318 1.561 . S
C2316 C2319 1.526 . S
C2317 H2301 0.959 . S
C2317 H2302 0.959 . S
C2317 H2303 0.961 . S
C2317 C2316 1.502 . S
C2318 H2304 0.960 . S
C2318 H2305 0.961 . S
C2318 H2306 0.959 . S
C2318 C2316 1.561 . S
C2319 C2316 1.526 . S
C2319 C2320 1.396 . S
C2319 C2324 1.390 . S
C2320 C2314 1.465 . S
C2320 C2319 1.396 . S
C2320 C2321 1.399 . S
C2321 H2307 0.929 . S
C2321 C2320 1.399 . S
C2321 C2322 1.385 . S
C2322 H2308 0.931 . S
C2322 C2321 1.385 . S
C2322 C2323 1.389 . S
C2323 C2322 1.389 . S
C2323 C2324 1.387 . S
C2324 H2309 0.930 . S
C2324 C2319 1.390 . S
C2324 C2323 1.387 . S
H2325 C2337 0.930 . S
H2326 C2339 0.930 . S
H2327 C2340 0.930 . S
H2328 C2344 0.959 . S
H2329 C2344 0.959 . S
H2330 C2344 0.961 . S
H2331 C2345 0.960 . S
H2332 C2345 0.961 . S
H2333 C2345 0.959 . S
H2334 C2348 0.929 . S
H2335 C2349 0.931 . S
H2336 C2351 0.930 . S
C2337 H2325 0.930 . S
C2337 C2338 1.399 . S
C2337 C2342 1.399 . S
C2338 C2337 1.399 . S
C2338 C2339 1.376 . S
C2339 H2326 0.930 . S
C2339 C2338 1.376 . S
C2339 C2340 1.388 . S
C2340 H2327 0.930 . S
C2340 C2339 1.388 . S
C2340 C2341 1.390 . S
C2341 C2340 1.390 . S
C2341 C2342 1.394 . S
C2341 C2347 1.465 . S
C2342 C2337 1.399 . S
C2342 C2341 1.394 . S
C2342 C2343 1.516 . S
C2343 C2342 1.516 . S
C2343 C2344 1.502 . S
C2343 C2345 1.561 . S
C2343 C2346 1.526 . S
C2344 H2328 0.959 . S
C2344 H2329 0.959 . S
C2344 H2330 0.961 . S
C2344 C2343 1.502 . S
C2345 H2331 0.960 . S
C2345 H2332 0.961 . S
C2345 H2333 0.959 . S
C2345 C2343 1.561 . S
C2346 C2343 1.526 . S
C2346 C2347 1.396 . S
C2346 C2351 1.390 . S
C2347 C2341 1.465 . S
C2347 C2346 1.396 . S
C2347 C2348 1.399 . S
C2348 H2334 0.929 . S
C2348 C2347 1.399 . S
C2348 C2349 1.385 . S
C2349 H2335 0.931 . S
C2349 C2348 1.385 . S
C2349 C2350 1.389 . S
C2350 C2349 1.389 . S
C2350 C2351 1.387 . S
C2351 H2336 0.930 . S
C2351 C2346 1.390 . S
C2351 C2350 1.387 . S
H2352 C2364 0.930 . S
H2353 C2366 0.930 . S
H2354 C2367 0.930 . S
H2355 C2371 0.959 . S
H2356 C2371 0.959 . S
H2357 C2371 0.961 . S
H2358 C2372 0.960 . S
H2359 C2372 0.961 . S
H2360 C2372 0.959 . S
H2361 C2375 0.929 . S
H2362 C2376 0.931 . S
H2363 C2378 0.930 . S
C2364 H2352 0.930 . S
C2364 C2365 1.399 . S
C2364 C2369 1.399 . S
C2365 C2364 1.399 . S
C2365 C2366 1.376 . S
C2366 H2353 0.930 . S
C2366 C2365 1.376 . S
C2366 C2367 1.388 . S
C2367 H2354 0.930 . S
C2367 C2366 1.388 . S
C2367 C2368 1.390 . S
C2368 C2367 1.390 . S
C2368 C2369 1.394 . S
C2368 C2374 1.465 . S
C2369 C2364 1.399 . S
C2369 C2368 1.394 . S
C2369 C2370 1.516 . S
C2370 C2369 1.516 . S
C2370 C2371 1.502 . S
C2370 C2372 1.561 . S
C2370 C2373 1.526 . S
C2371 H2355 0.959 . S
C2371 H2356 0.959 . S
C2371 H2357 0.961 . S
C2371 C2370 1.502 . S
C2372 H2358 0.960 . S
C2372 H2359 0.961 . S
C2372 H2360 0.959 . S
C2372 C2370 1.561 . S
C2373 C2370 1.526 . S
C2373 C2374 1.396 . S
C2373 C2378 1.390 . S
C2374 C2368 1.465 . S
C2374 C2373 1.396 . S
C2374 C2375 1.399 . S
C2375 H2361 0.929 . S
C2375 C2374 1.399 . S
C2375 C2376 1.385 . S
C2376 H2362 0.931 . S
C2376 C2375 1.385 . S
C2376 C2377 1.389 . S
C2377 C2376 1.389 . S
C2377 C2378 1.387 . S
C2378 H2363 0.930 . S
C2378 C2373 1.390 . S
C2378 C2377 1.387 . S
H2379 C2391 0.930 . S
H2380 C2393 0.930 . S
H2381 C2394 0.930 . S
H2382 C2398 0.959 . S
H2383 C2398 0.959 . S
H2384 C2398 0.961 . S
H2385 C2399 0.960 . S
H2386 C2399 0.961 . S
H2387 C2399 0.959 . S
H2388 C2402 0.929 . S
H2389 C2403 0.931 . S
H2390 C2405 0.930 . S
C2391 H2379 0.930 . S
C2391 C2392 1.399 . S
C2391 C2396 1.399 . S
C2392 C2391 1.399 . S
C2392 C2393 1.376 . S
C2393 H2380 0.930 . S
C2393 C2392 1.376 . S
C2393 C2394 1.388 . S
C2394 H2381 0.930 . S
C2394 C2393 1.388 . S
C2394 C2395 1.390 . S
C2395 C2394 1.390 . S
C2395 C2396 1.394 . S
C2395 C2401 1.465 . S
C2396 C2391 1.399 . S
C2396 C2395 1.394 . S
C2396 C2397 1.516 . S
C2397 C2396 1.516 . S
C2397 C2398 1.502 . S
C2397 C2399 1.561 . S
C2397 C2400 1.526 . S
C2398 H2382 0.959 . S
C2398 H2383 0.959 . S
C2398 H2384 0.961 . S
C2398 C2397 1.502 . S
C2399 H2385 0.960 . S
C2399 H2386 0.961 . S
C2399 H2387 0.959 . S
C2399 C2397 1.561 . S
C2400 C2397 1.526 . S
C2400 C2401 1.396 . S
C2400 C2405 1.390 . S
C2401 C2395 1.465 . S
C2401 C2400 1.396 . S
C2401 C2402 1.399 . S
C2402 H2388 0.929 . S
C2402 C2401 1.399 . S
C2402 C2403 1.385 . S
C2403 H2389 0.931 . S
C2403 C2402 1.385 . S
C2403 C2404 1.389 . S
C2404 C2403 1.389 . S
C2404 C2405 1.387 . S
C2405 H2390 0.930 . S
C2405 C2400 1.390 . S
C2405 C2404 1.387 . S
H2406 C2418 0.930 . S
H2407 C2420 0.930 . S
H2408 C2421 0.930 . S
H2409 C2425 0.959 . S
H2410 C2425 0.959 . S
H2411 C2425 0.961 . S
H2412 C2426 0.960 . S
H2413 C2426 0.961 . S
H2414 C2426 0.959 . S
H2415 C2429 0.929 . S
H2416 C2430 0.931 . S
H2417 C2432 0.930 . S
C2418 H2406 0.930 . S
C2418 C2419 1.399 . S
C2418 C2423 1.399 . S
C2419 C2418 1.399 . S
C2419 C2420 1.376 . S
C2420 H2407 0.930 . S
C2420 C2419 1.376 . S
C2420 C2421 1.388 . S
C2421 H2408 0.930 . S
C2421 C2420 1.388 . S
C2421 C2422 1.390 . S
C2422 C2421 1.390 . S
C2422 C2423 1.394 . S
C2422 C2428 1.465 . S
C2423 C2418 1.399 . S
C2423 C2422 1.394 . S
C2423 C2424 1.516 . S
C2424 C2423 1.516 . S
C2424 C2425 1.502 . S
C2424 C2426 1.561 . S
C2424 C2427 1.526 . S
C2425 H2409 0.959 . S
C2425 H2410 0.959 . S
C2425 H2411 0.961 . S
C2425 C2424 1.502 . S
C2426 H2412 0.960 . S
C2426 H2413 0.961 . S
C2426 H2414 0.959 . S
C2426 C2424 1.561 . S
C2427 C2424 1.526 . S
C2427 C2428 1.396 . S
C2427 C2432 1.390 . S
C2428 C2422 1.465 . S
C2428 C2427 1.396 . S
C2428 C2429 1.399 . S
C2429 H2415 0.929 . S
C2429 C2428 1.399 . S
C2429 C2430 1.385 . S
C2430 H2416 0.931 . S
C2430 C2429 1.385 . S
C2430 C2431 1.389 . S
C2431 C2430 1.389 . S
C2431 C2432 1.387 . S
C2432 H2417 0.930 . S
C2432 C2427 1.390 . S
C2432 C2431 1.387 . S
H2433 C2445 0.930 . S
H2434 C2447 0.930 . S
H2435 C2448 0.930 . S
H2436 C2452 0.959 . S
H2437 C2452 0.959 . S
H2438 C2452 0.961 . S
H2439 C2453 0.960 . S
H2440 C2453 0.961 . S
H2441 C2453 0.959 . S
H2442 C2456 0.929 . S
H2443 C2457 0.931 . S
H2444 C2459 0.930 . S
C2445 H2433 0.930 . S
C2445 C2446 1.399 . S
C2445 C2450 1.399 . S
C2446 C2445 1.399 . S
C2446 C2447 1.376 . S
C2447 H2434 0.930 . S
C2447 C2446 1.376 . S
C2447 C2448 1.388 . S
C2448 H2435 0.930 . S
C2448 C2447 1.388 . S
C2448 C2449 1.390 . S
C2449 C2448 1.390 . S
C2449 C2450 1.394 . S
C2449 C2455 1.465 . S
C2450 C2445 1.399 . S
C2450 C2449 1.394 . S
C2450 C2451 1.516 . S
C2451 C2450 1.516 . S
C2451 C2452 1.502 . S
C2451 C2453 1.561 . S
C2451 C2454 1.526 . S
C2452 H2436 0.959 . S
C2452 H2437 0.959 . S
C2452 H2438 0.961 . S
C2452 C2451 1.502 . S
C2453 H2439 0.960 . S
C2453 H2440 0.961 . S
C2453 H2441 0.959 . S
C2453 C2451 1.561 . S
C2454 C2451 1.526 . S
C2454 C2455 1.396 . S
C2454 C2459 1.390 . S
C2455 C2449 1.465 . S
C2455 C2454 1.396 . S
C2455 C2456 1.399 . S
C2456 H2442 0.929 . S
C2456 C2455 1.399 . S
C2456 C2457 1.385 . S
C2457 H2443 0.931 . S
C2457 C2456 1.385 . S
C2457 C2458 1.389 . S
C2458 C2457 1.389 . S
C2458 C2459 1.387 . S
C2459 H2444 0.930 . S
C2459 C2454 1.390 . S
C2459 C2458 1.387 . S
H2460 C2472 0.930 . S
H2461 C2474 0.930 . S
H2462 C2475 0.930 . S
H2463 C2479 0.959 . S
H2464 C2479 0.959 . S
H2465 C2479 0.961 . S
H2466 C2480 0.960 . S
H2467 C2480 0.961 . S
H2468 C2480 0.959 . S
H2469 C2483 0.929 . S
H2470 C2484 0.931 . S
H2471 C2486 0.930 . S
C2472 H2460 0.930 . S
C2472 C2473 1.399 . S
C2472 C2477 1.399 . S
C2473 C2472 1.399 . S
C2473 C2474 1.376 . S
C2474 H2461 0.930 . S
C2474 C2473 1.376 . S
C2474 C2475 1.388 . S
C2475 H2462 0.930 . S
C2475 C2474 1.388 . S
C2475 C2476 1.390 . S
C2476 C2475 1.390 . S
C2476 C2477 1.394 . S
C2476 C2482 1.465 . S
C2477 C2472 1.399 . S
C2477 C2476 1.394 . S
C2477 C2478 1.516 . S
C2478 C2477 1.516 . S
C2478 C2479 1.502 . S
C2478 C2480 1.561 . S
C2478 C2481 1.526 . S
C2479 H2463 0.959 . S
C2479 H2464 0.959 . S
C2479 H2465 0.961 . S
C2479 C2478 1.502 . S
C2480 H2466 0.960 . S
C2480 H2467 0.961 . S
C2480 H2468 0.959 . S
C2480 C2478 1.561 . S
C2481 C2478 1.526 . S
C2481 C2482 1.396 . S
C2481 C2486 1.390 . S
C2482 C2476 1.465 . S
C2482 C2481 1.396 . S
C2482 C2483 1.399 . S
C2483 H2469 0.929 . S
C2483 C2482 1.399 . S
C2483 C2484 1.385 . S
C2484 H2470 0.931 . S
C2484 C2483 1.385 . S
C2484 C2485 1.389 . S
C2485 C2484 1.389 . S
C2485 C2486 1.387 . S
C2486 H2471 0.930 . S
C2486 C2481 1.390 . S
C2486 C2485 1.387 . S
H2487 C2499 0.930 . S
H2488 C2501 0.930 . S
H2489 C2502 0.930 . S
H2490 C2506 0.959 . S
H2491 C2506 0.959 . S
H2492 C2506 0.961 . S
H2493 C2507 0.960 . S
H2494 C2507 0.961 . S
H2495 C2507 0.959 . S
H2496 C2510 0.929 . S
H2497 C2511 0.931 . S
H2498 C2513 0.930 . S
C2499 H2487 0.930 . S
C2499 C2500 1.399 . S
C2499 C2504 1.399 . S
C2500 C2499 1.399 . S
C2500 C2501 1.376 . S
C2501 H2488 0.930 . S
C2501 C2500 1.376 . S
C2501 C2502 1.388 . S
C2502 H2489 0.930 . S
C2502 C2501 1.388 . S
C2502 C2503 1.390 . S
C2503 C2502 1.390 . S
C2503 C2504 1.394 . S
C2503 C2509 1.465 . S
C2504 C2499 1.399 . S
C2504 C2503 1.394 . S
C2504 C2505 1.516 . S
C2505 C2504 1.516 . S
C2505 C2506 1.502 . S
C2505 C2507 1.561 . S
C2505 C2508 1.526 . S
C2506 H2490 0.959 . S
C2506 H2491 0.959 . S
C2506 H2492 0.961 . S
C2506 C2505 1.502 . S
C2507 H2493 0.960 . S
C2507 H2494 0.961 . S
C2507 H2495 0.959 . S
C2507 C2505 1.561 . S
C2508 C2505 1.526 . S
C2508 C2509 1.396 . S
C2508 C2513 1.390 . S
C2509 C2503 1.465 . S
C2509 C2508 1.396 . S
C2509 C2510 1.399 . S
C2510 H2496 0.929 . S
C2510 C2509 1.399 . S
C2510 C2511 1.385 . S
C2511 H2497 0.931 . S
C2511 C2510 1.385 . S
C2511 C2512 1.389 . S
C2512 C2511 1.389 . S
C2512 C2513 1.387 . S
C2513 H2498 0.930 . S
C2513 C2508 1.390 . S
C2513 C2512 1.387 . S
H2514 C2526 0.930 . S
H2515 C2528 0.930 . S
H2516 C2529 0.930 . S
H2517 C2533 0.959 . S
H2518 C2533 0.959 . S
H2519 C2533 0.961 . S
H2520 C2534 0.960 . S
H2521 C2534 0.961 . S
H2522 C2534 0.959 . S
H2523 C2537 0.929 . S
H2524 C2538 0.931 . S
H2525 C2540 0.930 . S
C2526 H2514 0.930 . S
C2526 C2527 1.399 . S
C2526 C2531 1.399 . S
C2527 C2526 1.399 . S
C2527 C2528 1.376 . S
C2528 H2515 0.930 . S
C2528 C2527 1.376 . S
C2528 C2529 1.388 . S
C2529 H2516 0.930 . S
C2529 C2528 1.388 . S
C2529 C2530 1.390 . S
C2530 C2529 1.390 . S
C2530 C2531 1.394 . S
C2530 C2536 1.465 . S
C2531 C2526 1.399 . S
C2531 C2530 1.394 . S
C2531 C2532 1.516 . S
C2532 C2531 1.516 . S
C2532 C2533 1.502 . S
C2532 C2534 1.561 . S
C2532 C2535 1.526 . S
C2533 H2517 0.959 . S
C2533 H2518 0.959 . S
C2533 H2519 0.961 . S
C2533 C2532 1.502 . S
C2534 H2520 0.960 . S
C2534 H2521 0.961 . S
C2534 H2522 0.959 . S
C2534 C2532 1.561 . S
C2535 C2532 1.526 . S
C2535 C2536 1.396 . S
C2535 C2540 1.390 . S
C2536 C2530 1.465 . S
C2536 C2535 1.396 . S
C2536 C2537 1.399 . S
C2537 H2523 0.929 . S
C2537 C2536 1.399 . S
C2537 C2538 1.385 . S
C2538 H2524 0.931 . S
C2538 C2537 1.385 . S
C2538 C2539 1.389 . S
C2539 C2538 1.389 . S
C2539 C2540 1.387 . S
C2540 H2525 0.930 . S
C2540 C2535 1.390 . S
C2540 C2539 1.387 . S
H2541 C2553 0.930 . S
H2542 C2555 0.930 . S
H2543 C2556 0.930 . S
H2544 C2560 0.959 . S
H2545 C2560 0.959 . S
H2546 C2560 0.961 . S
H2547 C2561 0.960 . S
H2548 C2561 0.961 . S
H2549 C2561 0.959 . S
H2550 C2564 0.929 . S
H2551 C2565 0.931 . S
H2552 C2567 0.930 . S
C2553 H2541 0.930 . S
C2553 C2554 1.399 . S
C2553 C2558 1.399 . S
C2554 C2553 1.399 . S
C2554 C2555 1.376 . S
C2555 H2542 0.930 . S
C2555 C2554 1.376 . S
C2555 C2556 1.388 . S
C2556 H2543 0.930 . S
C2556 C2555 1.388 . S
C2556 C2557 1.390 . S
C2557 C2556 1.390 . S
C2557 C2558 1.394 . S
C2557 C2563 1.465 . S
C2558 C2553 1.399 . S
C2558 C2557 1.394 . S
C2558 C2559 1.516 . S
C2559 C2558 1.516 . S
C2559 C2560 1.502 . S
C2559 C2561 1.561 . S
C2559 C2562 1.526 . S
C2560 H2544 0.959 . S
C2560 H2545 0.959 . S
C2560 H2546 0.961 . S
C2560 C2559 1.502 . S
C2561 H2547 0.960 . S
C2561 H2548 0.961 . S
C2561 H2549 0.959 . S
C2561 C2559 1.561 . S
C2562 C2559 1.526 . S
C2562 C2563 1.396 . S
C2562 C2567 1.390 . S
C2563 C2557 1.465 . S
C2563 C2562 1.396 . S
C2563 C2564 1.399 . S
C2564 H2550 0.929 . S
C2564 C2563 1.399 . S
C2564 C2565 1.385 . S
C2565 H2551 0.931 . S
C2565 C2564 1.385 . S
C2565 C2566 1.389 . S
C2566 C2565 1.389 . S
C2566 C2567 1.387 . S
C2567 H2552 0.930 . S
C2567 C2562 1.390 . S
C2567 C2566 1.387 . S
H2568 C2580 0.930 . S
H2569 C2582 0.930 . S
H2570 C2583 0.930 . S
H2571 C2587 0.959 . S
H2572 C2587 0.959 . S
H2573 C2587 0.961 . S
H2574 C2588 0.960 . S
H2575 C2588 0.961 . S
H2576 C2588 0.959 . S
H2577 C2591 0.929 . S
H2578 C2592 0.931 . S
H2579 C2594 0.930 . S
C2580 H2568 0.930 . S
C2580 C2581 1.399 . S
C2580 C2585 1.399 . S
C2581 C2580 1.399 . S
C2581 C2582 1.376 . S
C2582 H2569 0.930 . S
C2582 C2581 1.376 . S
C2582 C2583 1.388 . S
C2583 H2570 0.930 . S
C2583 C2582 1.388 . S
C2583 C2584 1.390 . S
C2584 C2583 1.390 . S
C2584 C2585 1.394 . S
C2584 C2590 1.465 . S
C2585 C2580 1.399 . S
C2585 C2584 1.394 . S
C2585 C2586 1.516 . S
C2586 C2585 1.516 . S
C2586 C2587 1.502 . S
C2586 C2588 1.561 . S
C2586 C2589 1.526 . S
C2587 H2571 0.959 . S
C2587 H2572 0.959 . S
C2587 H2573 0.961 . S
C2587 C2586 1.502 . S
C2588 H2574 0.960 . S
C2588 H2575 0.961 . S
C2588 H2576 0.959 . S
C2588 C2586 1.561 . S
C2589 C2586 1.526 . S
C2589 C2590 1.396 . S
C2589 C2594 1.390 . S
C2590 C2584 1.465 . S
C2590 C2589 1.396 . S
C2590 C2591 1.399 . S
C2591 H2577 0.929 . S
C2591 C2590 1.399 . S
C2591 C2592 1.385 . S
C2592 H2578 0.931 . S
C2592 C2591 1.385 . S
C2592 C2593 1.389 . S
C2593 C2592 1.389 . S
C2593 C2594 1.387 . S
C2594 H2579 0.930 . S
C2594 C2589 1.390 . S
C2594 C2593 1.387 . S
H2595 C2607 0.930 . S
H2596 C2609 0.930 . S
H2597 C2610 0.930 . S
H2598 C2614 0.959 . S
H2599 C2614 0.959 . S
H2600 C2614 0.961 . S
H2601 C2615 0.960 . S
H2602 C2615 0.961 . S
H2603 C2615 0.959 . S
H2604 C2618 0.929 . S
H2605 C2619 0.931 . S
H2606 C2621 0.930 . S
C2607 H2595 0.930 . S
C2607 C2608 1.399 . S
C2607 C2612 1.399 . S
C2608 C2607 1.399 . S
C2608 C2609 1.376 . S
C2609 H2596 0.930 . S
C2609 C2608 1.376 . S
C2609 C2610 1.388 . S
C2610 H2597 0.930 . S
C2610 C2609 1.388 . S
C2610 C2611 1.390 . S
C2611 C2610 1.390 . S
C2611 C2612 1.394 . S
C2611 C2617 1.465 . S
C2612 C2607 1.399 . S
C2612 C2611 1.394 . S
C2612 C2613 1.516 . S
C2613 C2612 1.516 . S
C2613 C2614 1.502 . S
C2613 C2615 1.561 . S
C2613 C2616 1.526 . S
C2614 H2598 0.959 . S
C2614 H2599 0.959 . S
C2614 H2600 0.961 . S
C2614 C2613 1.502 . S
C2615 H2601 0.960 . S
C2615 H2602 0.961 . S
C2615 H2603 0.959 . S
C2615 C2613 1.561 . S
C2616 C2613 1.526 . S
C2616 C2617 1.396 . S
C2616 C2621 1.390 . S
C2617 C2611 1.465 . S
C2617 C2616 1.396 . S
C2617 C2618 1.399 . S
C2618 H2604 0.929 . S
C2618 C2617 1.399 . S
C2618 C2619 1.385 . S
C2619 H2605 0.931 . S
C2619 C2618 1.385 . S
C2619 C2620 1.389 . S
C2620 C2619 1.389 . S
C2620 C2621 1.387 . S
C2621 H2606 0.930 . S
C2621 C2616 1.390 . S
C2621 C2620 1.387 . S
H2622 C2634 0.930 . S
H2623 C2636 0.930 . S
H2624 C2637 0.930 . S
H2625 C2641 0.959 . S
H2626 C2641 0.959 . S
H2627 C2641 0.961 . S
H2628 C2642 0.960 . S
H2629 C2642 0.961 . S
H2630 C2642 0.959 . S
H2631 C2645 0.929 . S
H2632 C2646 0.931 . S
H2633 C2648 0.930 . S
C2634 H2622 0.930 . S
C2634 C2635 1.399 . S
C2634 C2639 1.399 . S
C2635 C2634 1.399 . S
C2635 C2636 1.376 . S
C2636 H2623 0.930 . S
C2636 C2635 1.376 . S
C2636 C2637 1.388 . S
C2637 H2624 0.930 . S
C2637 C2636 1.388 . S
C2637 C2638 1.390 . S
C2638 C2637 1.390 . S
C2638 C2639 1.394 . S
C2638 C2644 1.465 . S
C2639 C2634 1.399 . S
C2639 C2638 1.394 . S
C2639 C2640 1.516 . S
C2640 C2639 1.516 . S
C2640 C2641 1.502 . S
C2640 C2642 1.561 . S
C2640 C2643 1.526 . S
C2641 H2625 0.959 . S
C2641 H2626 0.959 . S
C2641 H2627 0.961 . S
C2641 C2640 1.502 . S
C2642 H2628 0.960 . S
C2642 H2629 0.961 . S
C2642 H2630 0.959 . S
C2642 C2640 1.561 . S
C2643 C2640 1.526 . S
C2643 C2644 1.396 . S
C2643 C2648 1.390 . S
C2644 C2638 1.465 . S
C2644 C2643 1.396 . S
C2644 C2645 1.399 . S
C2645 H2631 0.929 . S
C2645 C2644 1.399 . S
C2645 C2646 1.385 . S
C2646 H2632 0.931 . S
C2646 C2645 1.385 . S
C2646 C2647 1.389 . S
C2647 C2646 1.389 . S
C2647 C2648 1.387 . S
C2648 H2633 0.930 . S
C2648 C2643 1.390 . S
C2648 C2647 1.387 . S
H2649 C2661 0.930 . S
H2650 C2663 0.930 . S
H2651 C2664 0.930 . S
H2652 C2668 0.959 . S
H2653 C2668 0.959 . S
H2654 C2668 0.961 . S
H2655 C2669 0.960 . S
H2656 C2669 0.961 . S
H2657 C2669 0.959 . S
H2658 C2672 0.929 . S
H2659 C2673 0.931 . S
H2660 C2675 0.930 . S
C2661 H2649 0.930 . S
C2661 C2662 1.399 . S
C2661 C2666 1.399 . S
C2662 C2661 1.399 . S
C2662 C2663 1.376 . S
C2663 H2650 0.930 . S
C2663 C2662 1.376 . S
C2663 C2664 1.388 . S
C2664 H2651 0.930 . S
C2664 C2663 1.388 . S
C2664 C2665 1.390 . S
C2665 C2664 1.390 . S
C2665 C2666 1.394 . S
C2665 C2671 1.465 . S
C2666 C2661 1.399 . S
C2666 C2665 1.394 . S
C2666 C2667 1.516 . S
C2667 C2666 1.516 . S
C2667 C2668 1.502 . S
C2667 C2669 1.561 . S
C2667 C2670 1.526 . S
C2668 H2652 0.959 . S
C2668 H2653 0.959 . S
C2668 H2654 0.961 . S
C2668 C2667 1.502 . S
C2669 H2655 0.960 . S
C2669 H2656 0.961 . S
C2669 H2657 0.959 . S
C2669 C2667 1.561 . S
C2670 C2667 1.526 . S
C2670 C2671 1.396 . S
C2670 C2675 1.390 . S
C2671 C2665 1.465 . S
C2671 C2670 1.396 . S
C2671 C2672 1.399 . S
C2672 H2658 0.929 . S
C2672 C2671 1.399 . S
C2672 C2673 1.385 . S
C2673 H2659 0.931 . S
C2673 C2672 1.385 . S
C2673 C2674 1.389 . S
C2674 C2673 1.389 . S
C2674 C2675 1.387 . S
C2675 H2660 0.930 . S
C2675 C2670 1.390 . S
C2675 C2674 1.387 . S
H2676 C2688 0.930 . S
H2677 C2690 0.930 . S
H2678 C2691 0.930 . S
H2679 C2695 0.959 . S
H2680 C2695 0.959 . S
H2681 C2695 0.961 . S
H2682 C2696 0.960 . S
H2683 C2696 0.961 . S
H2684 C2696 0.959 . S
H2685 C2699 0.929 . S
H2686 C2700 0.931 . S
H2687 C2702 0.930 . S
C2688 H2676 0.930 . S
C2688 C2689 1.399 . S
C2688 C2693 1.399 . S
C2689 C2688 1.399 . S
C2689 C2690 1.376 . S
C2690 H2677 0.930 . S
C2690 C2689 1.376 . S
C2690 C2691 1.388 . S
C2691 H2678 0.930 . S
C2691 C2690 1.388 . S
C2691 C2692 1.390 . S
C2692 C2691 1.390 . S
C2692 C2693 1.394 . S
C2692 C2698 1.465 . S
C2693 C2688 1.399 . S
C2693 C2692 1.394 . S
C2693 C2694 1.516 . S
C2694 C2693 1.516 . S
C2694 C2695 1.502 . S
C2694 C2696 1.561 . S
C2694 C2697 1.526 . S
C2695 H2679 0.959 . S
C2695 H2680 0.959 . S
C2695 H2681 0.961 . S
C2695 C2694 1.502 . S
C2696 H2682 0.960 . S
C2696 H2683 0.961 . S
C2696 H2684 0.959 . S
C2696 C2694 1.561 . S
C2697 C2694 1.526 . S
C2697 C2698 1.396 . S
C2697 C2702 1.390 . S
C2698 C2692 1.465 . S
C2698 C2697 1.396 . S
C2698 C2699 1.399 . S
C2699 H2685 0.929 . S
C2699 C2698 1.399 . S
C2699 C2700 1.385 . S
C2700 H2686 0.931 . S
C2700 C2699 1.385 . S
C2700 C2701 1.389 . S
C2701 C2700 1.389 . S
C2701 C2702 1.387 . S
C2702 H2687 0.930 . S
C2702 C2697 1.390 . S
C2702 C2701 1.387 . S
H2703 C2715 0.930 . S
H2704 C2717 0.930 . S
H2705 C2718 0.930 . S
H2706 C2722 0.959 . S
H2707 C2722 0.959 . S
H2708 C2722 0.961 . S
H2709 C2723 0.960 . S
H2710 C2723 0.961 . S
H2711 C2723 0.959 . S
H2712 C2726 0.929 . S
H2713 C2727 0.931 . S
H2714 C2729 0.930 . S
C2715 H2703 0.930 . S
C2715 C2716 1.399 . S
C2715 C2720 1.399 . S
C2716 C2715 1.399 . S
C2716 C2717 1.376 . S
C2717 H2704 0.930 . S
C2717 C2716 1.376 . S
C2717 C2718 1.388 . S
C2718 H2705 0.930 . S
C2718 C2717 1.388 . S
C2718 C2719 1.390 . S
C2719 C2718 1.390 . S
C2719 C2720 1.394 . S
C2719 C2725 1.465 . S
C2720 C2715 1.399 . S
C2720 C2719 1.394 . S
C2720 C2721 1.516 . S
C2721 C2720 1.516 . S
C2721 C2722 1.502 . S
C2721 C2723 1.561 . S
C2721 C2724 1.526 . S
C2722 H2706 0.959 . S
C2722 H2707 0.959 . S
C2722 H2708 0.961 . S
C2722 C2721 1.502 . S
C2723 H2709 0.960 . S
C2723 H2710 0.961 . S
C2723 H2711 0.959 . S
C2723 C2721 1.561 . S
C2724 C2721 1.526 . S
C2724 C2725 1.396 . S
C2724 C2729 1.390 . S
C2725 C2719 1.465 . S
C2725 C2724 1.396 . S
C2725 C2726 1.399 . S
C2726 H2712 0.929 . S
C2726 C2725 1.399 . S
C2726 C2727 1.385 . S
C2727 H2713 0.931 . S
C2727 C2726 1.385 . S
C2727 C2728 1.389 . S
C2728 C2727 1.389 . S
C2728 C2729 1.387 . S
C2729 H2714 0.930 . S
C2729 C2724 1.390 . S
C2729 C2728 1.387 . S
H2730 C2742 0.930 . S
H2731 C2744 0.930 . S
H2732 C2745 0.930 . S
H2733 C2749 0.959 . S
H2734 C2749 0.959 . S
H2735 C2749 0.961 . S
H2736 C2750 0.960 . S
H2737 C2750 0.961 . S
H2738 C2750 0.959 . S
H2739 C2753 0.929 . S
H2740 C2754 0.931 . S
H2741 C2756 0.930 . S
C2742 H2730 0.930 . S
C2742 C2743 1.399 . S
C2742 C2747 1.399 . S
C2743 C2742 1.399 . S
C2743 C2744 1.376 . S
C2744 H2731 0.930 . S
C2744 C2743 1.376 . S
C2744 C2745 1.388 . S
C2745 H2732 0.930 . S
C2745 C2744 1.388 . S
C2745 C2746 1.390 . S
C2746 C2745 1.390 . S
C2746 C2747 1.394 . S
C2746 C2752 1.465 . S
C2747 C2742 1.399 . S
C2747 C2746 1.394 . S
C2747 C2748 1.516 . S
C2748 C2747 1.516 . S
C2748 C2749 1.502 . S
C2748 C2750 1.561 . S
C2748 C2751 1.526 . S
C2749 H2733 0.959 . S
C2749 H2734 0.959 . S
C2749 H2735 0.961 . S
C2749 C2748 1.502 . S
C2750 H2736 0.960 . S
C2750 H2737 0.961 . S
C2750 H2738 0.959 . S
C2750 C2748 1.561 . S
C2751 C2748 1.526 . S
C2751 C2752 1.396 . S
C2751 C2756 1.390 . S
C2752 C2746 1.465 . S
C2752 C2751 1.396 . S
C2752 C2753 1.399 . S
C2753 H2739 0.929 . S
C2753 C2752 1.399 . S
C2753 C2754 1.385 . S
C2754 H2740 0.931 . S
C2754 C2753 1.385 . S
C2754 C2755 1.389 . S
C2755 C2754 1.389 . S
C2755 C2756 1.387 . S
C2756 H2741 0.930 . S
C2756 C2751 1.390 . S
C2756 C2755 1.387 . S
H2757 C2769 0.930 . S
H2758 C2771 0.930 . S
H2759 C2772 0.930 . S
H2760 C2776 0.959 . S
H2761 C2776 0.959 . S
H2762 C2776 0.961 . S
H2763 C2777 0.960 . S
H2764 C2777 0.961 . S
H2765 C2777 0.959 . S
H2766 C2780 0.929 . S
H2767 C2781 0.931 . S
H2768 C2783 0.930 . S
C2769 H2757 0.930 . S
C2769 C2770 1.399 . S
C2769 C2774 1.399 . S
C2770 C2769 1.399 . S
C2770 C2771 1.376 . S
C2771 H2758 0.930 . S
C2771 C2770 1.376 . S
C2771 C2772 1.388 . S
C2772 H2759 0.930 . S
C2772 C2771 1.388 . S
C2772 C2773 1.390 . S
C2773 C2772 1.390 . S
C2773 C2774 1.394 . S
C2773 C2779 1.465 . S
C2774 C2769 1.399 . S
C2774 C2773 1.394 . S
C2774 C2775 1.516 . S
C2775 C2774 1.516 . S
C2775 C2776 1.502 . S
C2775 C2777 1.561 . S
C2775 C2778 1.526 . S
C2776 H2760 0.959 . S
C2776 H2761 0.959 . S
C2776 H2762 0.961 . S
C2776 C2775 1.502 . S
C2777 H2763 0.960 . S
C2777 H2764 0.961 . S
C2777 H2765 0.959 . S
C2777 C2775 1.561 . S
C2778 C2775 1.526 . S
C2778 C2779 1.396 . S
C2778 C2783 1.390 . S
C2779 C2773 1.465 . S
C2779 C2778 1.396 . S
C2779 C2780 1.399 . S
C2780 H2766 0.929 . S
C2780 C2779 1.399 . S
C2780 C2781 1.385 . S
C2781 H2767 0.931 . S
C2781 C2780 1.385 . S
C2781 C2782 1.389 . S
C2782 C2781 1.389 . S
C2782 C2783 1.387 . S
C2783 H2768 0.930 . S
C2783 C2778 1.390 . S
C2783 C2782 1.387 . S
H2784 C2796 0.922 1_655 S
H2785 C2798 0.930 . S
H2786 C2799 0.930 . S
H2787 C2803 0.959 . S
H2788 C2803 0.959 . S
H2789 C2803 0.961 . S
H2790 C2804 0.960 . S
H2791 C2804 0.961 . S
H2792 C2804 0.959 . S
H2793 C2807 0.929 . S
H2794 C2808 0.912 1_556 S
H2795 C2810 0.929 . S
C2796 H2784 0.922 1_455 S
C2796 C2797 1.399 . S
C2796 C2801 1.399 . S
C2797 C2796 1.399 . S
C2797 C2798 1.376 . S
C2798 H2785 0.930 . S
C2798 C2797 1.376 . S
C2798 C2799 1.388 . S
C2799 H2786 0.930 . S
C2799 C2798 1.388 . S
C2799 C2800 1.390 . S
C2800 C2799 1.390 . S
C2800 C2801 1.394 . S
C2800 C2806 1.465 . S
C2801 C2796 1.399 . S
C2801 C2800 1.394 . S
C2801 C2802 1.516 . S
C2802 C2801 1.516 . S
C2802 C2803 1.502 1_455 S
C2802 C2804 1.561 . S
C2802 C2805 1.526 . S
C2803 H2787 0.959 . S
C2803 H2788 0.959 . S
C2803 H2789 0.961 . S
C2803 C2802 1.502 1_655 S
C2804 H2790 0.960 . S
C2804 H2791 0.961 . S
C2804 H2792 0.959 . S
C2804 C2802 1.561 . S
C2805 C2802 1.526 . S
C2805 C2806 1.396 . S
C2805 C2810 1.390 . S
C2806 C2800 1.465 . S
C2806 C2805 1.396 . S
C2806 C2807 1.399 . S
C2807 H2793 0.929 . S
C2807 C2806 1.399 . S
C2807 C2808 1.401 . S
C2808 H2794 0.912 1_554 S
C2808 C2807 1.401 . S
C2808 C2809 1.392 . S
C2809 C2808 1.392 . S
C2809 C2810 1.387 . S
C2810 H2795 0.929 . S
C2810 C2805 1.390 . S
C2810 C2809 1.387 . S
H2811 C2823 0.930 . S
H2812 C2825 0.930 1_556 S
H2813 C2826 0.930 . S
H2814 C2830 0.959 . S
H2815 C2830 0.959 . S
H2816 C2830 0.961 . S
H2817 C2831 0.960 . S
H2818 C2831 0.961 . S
H2819 C2831 0.959 . S
H2820 C2834 0.929 . S
H2821 C2835 0.931 . S
H2822 C2837 0.930 . S
C2823 H2811 0.930 . S
C2823 C2824 1.399 . S
C2823 C2828 1.399 . S
C2824 C2823 1.399 . S
C2824 C2825 1.376 . S
C2825 H2812 0.930 1_554 S
C2825 C2824 1.376 . S
C2825 C2826 1.388 . S
C2826 H2813 0.930 . S
C2826 C2825 1.388 . S
C2826 C2827 1.390 . S
C2827 C2826 1.390 . S
C2827 C2828 1.394 . S
C2827 C2833 1.465 . S
C2828 C2823 1.399 . S
C2828 C2827 1.394 . S
C2828 C2829 1.516 . S
C2829 C2828 1.516 . S
C2829 C2830 1.502 . S
C2829 C2831 1.561 . S
C2829 C2832 1.526 . S
C2830 H2814 0.959 . S
C2830 H2815 0.959 . S
C2830 H2816 0.961 . S
C2830 C2829 1.502 . S
C2831 H2817 0.960 . S
C2831 H2818 0.961 . S
C2831 H2819 0.959 . S
C2831 C2829 1.561 . S
C2832 C2829 1.526 . S
C2832 C2833 1.396 . S
C2832 C2837 1.390 . S
C2833 C2827 1.465 . S
C2833 C2832 1.396 . S
C2833 C2834 1.399 . S
C2834 H2820 0.929 . S
C2834 C2833 1.399 . S
C2834 C2835 1.385 . S
C2835 H2821 0.931 . S
C2835 C2834 1.385 . S
C2835 C2836 1.389 . S
C2836 C2835 1.389 . S
C2836 C2837 1.387 . S
C2837 H2822 0.930 . S
C2837 C2832 1.390 . S
C2837 C2836 1.387 . S
H2838 C2850 0.936 . S
H2839 C2852 0.930 . S
H2840 C2853 0.930 . S
H2841 C2857 0.959 . S
H2842 C2857 0.959 . S
H2843 C2857 0.961 . S
H2844 C2858 0.960 . S
H2845 C2858 0.961 . S
H2846 C2858 0.959 . S
H2847 C2861 0.929 . S
H2848 C2862 0.932 . S
H2849 C2864 0.930 . S
C2850 H2838 0.936 . S
C2850 C2851 1.399 . S
C2850 C2855 1.399 . S
C2851 C2850 1.399 . S
C2851 C2852 1.376 1_655 S
C2852 H2839 0.930 . S
C2852 C2851 1.376 1_455 S
C2852 C2853 1.388 . S
C2853 H2840 0.930 . S
C2853 C2852 1.388 . S
C2853 C2854 1.390 1_455 S
C2854 C2853 1.390 1_655 S
C2854 C2855 1.393 . S
C2854 C2860 1.465 . S
C2855 C2850 1.399 . S
C2855 C2854 1.393 . S
C2855 C2856 1.516 . S
C2856 C2855 1.516 . S
C2856 C2857 1.502 . S
C2856 C2858 1.561 1_655 S
C2856 C2859 1.526 . S
C2857 H2841 0.959 . S
C2857 H2842 0.959 . S
C2857 H2843 0.961 . S
C2857 C2856 1.502 . S
C2858 H2844 0.960 . S
C2858 H2845 0.961 . S
C2858 H2846 0.959 . S
C2858 C2856 1.561 1_455 S
C2859 C2856 1.526 . S
C2859 C2860 1.400 . S
C2859 C2864 1.390 . S
C2860 C2854 1.465 . S
C2860 C2859 1.400 . S
C2860 C2861 1.396 1_655 S
C2861 H2847 0.929 . S
C2861 C2860 1.396 1_455 S
C2861 C2862 1.387 . S
C2862 H2848 0.932 . S
C2862 C2861 1.387 . S
C2862 C2863 1.387 1_455 S
C2863 C2862 1.387 1_655 S
C2863 C2864 1.387 . S
C2864 H2849 0.930 . S
C2864 C2859 1.390 . S
C2864 C2863 1.387 . S
H2865 C2877 0.930 . S
H2866 C2879 0.930 . S
H2867 C2880 0.930 . S
H2868 C2884 0.959 . S
H2869 C2884 0.959 . S
H2870 C2884 0.961 . S
H2871 C2885 0.960 . S
H2872 C2885 0.961 . S
H2873 C2885 0.959 . S
H2874 C2888 0.929 . S
H2875 C2889 0.931 1_554 S
H2876 C2891 0.930 . S
C2877 H2865 0.930 . S
C2877 C2878 1.399 . S
C2877 C2882 1.399 . S
C2878 C2877 1.399 . S
C2878 C2879 1.376 . S
C2879 H2866 0.930 . S
C2879 C2878 1.376 . S
C2879 C2880 1.388 . S
C2880 H2867 0.930 . S
C2880 C2879 1.388 . S
C2880 C2881 1.390 . S
C2881 C2880 1.390 . S
C2881 C2882 1.394 . S
C2881 C2887 1.465 . S
C2882 C2877 1.399 . S
C2882 C2881 1.394 . S
C2882 C2883 1.516 . S
C2883 C2882 1.516 . S
C2883 C2884 1.502 . S
C2883 C2885 1.561 . S
C2883 C2886 1.526 . S
C2884 H2868 0.959 . S
C2884 H2869 0.959 . S
C2884 H2870 0.961 . S
C2884 C2883 1.502 . S
C2885 H2871 0.960 . S
C2885 H2872 0.961 . S
C2885 H2873 0.959 . S
C2885 C2883 1.561 . S
C2886 C2883 1.526 . S
C2886 C2887 1.396 . S
C2886 C2891 1.390 . S
C2887 C2881 1.465 . S
C2887 C2886 1.396 . S
C2887 C2888 1.399 . S
C2888 H2874 0.929 . S
C2888 C2887 1.399 . S
C2888 C2889 1.385 . S
C2889 H2875 0.931 1_556 S
C2889 C2888 1.385 . S
C2889 C2890 1.389 . S
C2890 C2889 1.389 . S
C2890 C2891 1.387 . S
C2891 H2876 0.930 . S
C2891 C2886 1.390 . S
C2891 C2890 1.387 . S
H2892 C2904 0.930 . S
H2893 C2906 0.930 . S
H2894 C2907 0.930 . S
H2895 C2911 0.959 . S
H2896 C2911 0.959 . S
H2897 C2911 0.961 . S
H2898 C2912 0.960 . S
H2899 C2912 0.963 . S
H2900 C2912 0.959 . S
H2901 C2915 0.929 . S
H2902 C2916 0.931 . S
H2903 C2918 0.930 . S
C2904 H2892 0.930 . S
C2904 C2905 1.399 1_655 S
C2904 C2909 1.398 1_655 S
C2905 C2904 1.399 1_455 S
C2905 C2906 1.376 . S
C2906 H2893 0.930 . S
C2906 C2905 1.376 . S
C2906 C2907 1.388 . S
C2907 H2894 0.930 . S
C2907 C2906 1.388 . S
C2907 C2908 1.390 . S
C2908 C2907 1.390 . S
C2908 C2909 1.397 . S
C2908 C2914 1.465 . S
C2909 C2904 1.398 1_455 S
C2909 C2908 1.397 . S
C2909 C2910 1.514 1_455 S
C2910 C2909 1.514 1_655 S
C2910 C2911 1.502 . S
C2910 C2912 1.561 1_655 S
C2910 C2913 1.523 1_655 S
C2911 H2895 0.959 . S
C2911 H2896 0.959 . S
C2911 H2897 0.961 . S
C2911 C2910 1.502 . S
C2912 H2898 0.960 . S
C2912 H2899 0.963 . S
C2912 H2900 0.959 . S
C2912 C2910 1.561 1_455 S
C2913 C2910 1.523 1_455 S
C2913 C2914 1.400 . S
C2913 C2918 1.388 1_455 S
C2914 C2908 1.465 . S
C2914 C2913 1.400 . S
C2914 C2915 1.399 . S
C2915 H2901 0.929 . S
C2915 C2914 1.399 . S
C2915 C2916 1.385 . S
C2916 H2902 0.931 . S
C2916 C2915 1.385 . S
C2916 C2917 1.389 . S
C2917 C2916 1.389 . S
C2917 C2918 1.387 1_455 S
C2918 H2903 0.930 . S
C2918 C2913 1.388 1_655 S
C2918 C2917 1.387 1_655 S
H2919 C2931 0.930 . S
H2920 C2933 0.930 . S
H2921 C2934 0.930 . S
H2922 C2938 0.959 . S
H2923 C2938 0.959 . S
H2924 C2938 0.961 . S
H2925 C2939 0.960 . S
H2926 C2939 0.961 . S
H2927 C2939 0.959 . S
H2928 C2942 0.929 . S
H2929 C2943 0.931 . S
H2930 C2945 0.930 . S
C2931 H2919 0.930 . S
C2931 C2932 1.399 . S
C2931 C2936 1.399 . S
C2932 C2931 1.399 . S
C2932 C2933 1.376 . S
C2933 H2920 0.930 . S
C2933 C2932 1.376 . S
C2933 C2934 1.388 . S
C2934 H2921 0.930 . S
C2934 C2933 1.388 . S
C2934 C2935 1.390 . S
C2935 C2934 1.390 . S
C2935 C2936 1.394 . S
C2935 C2941 1.465 . S
C2936 C2931 1.399 . S
C2936 C2935 1.394 . S
C2936 C2937 1.516 . S
C2937 C2936 1.516 . S
C2937 C2938 1.502 . S
C2937 C2939 1.561 . S
C2937 C2940 1.526 . S
C2938 H2922 0.959 . S
C2938 H2923 0.959 . S
C2938 H2924 0.961 . S
C2938 C2937 1.502 . S
C2939 H2925 0.960 . S
C2939 H2926 0.961 . S
C2939 H2927 0.959 . S
C2939 C2937 1.561 . S
C2940 C2937 1.526 . S
C2940 C2941 1.396 . S
C2940 C2945 1.390 . S
C2941 C2935 1.465 . S
C2941 C2940 1.396 . S
C2941 C2942 1.399 . S
C2942 H2928 0.929 . S
C2942 C2941 1.399 . S
C2942 C2943 1.385 . S
C2943 H2929 0.931 . S
C2943 C2942 1.385 . S
C2943 C2944 1.389 . S
C2944 C2943 1.389 . S
C2944 C2945 1.387 . S
C2945 H2930 0.930 . S
C2945 C2940 1.390 . S
C2945 C2944 1.387 . S
H2946 C2958 0.930 . S
H2947 C2960 0.930 . S
H2948 C2961 0.930 . S
H2949 C2965 0.959 . S
H2950 C2965 0.959 . S
H2951 C2965 0.961 . S
H2952 C2966 0.960 . S
H2953 C2966 0.961 . S
H2954 C2966 0.959 1_655 S
H2955 C2969 0.929 . S
H2956 C2970 0.931 . S
H2957 C2972 0.930 . S
C2958 H2946 0.930 . S
C2958 C2959 1.399 1_455 S
C2958 C2963 1.399 . S
C2959 C2958 1.399 1_655 S
C2959 C2960 1.376 . S
C2960 H2947 0.930 . S
C2960 C2959 1.376 . S
C2960 C2961 1.388 . S
C2961 H2948 0.930 . S
C2961 C2960 1.388 . S
C2961 C2962 1.390 . S
C2962 C2961 1.390 . S
C2962 C2963 1.394 1_655 S
C2962 C2968 1.465 . S
C2963 C2958 1.399 . S
C2963 C2962 1.394 1_455 S
C2963 C2964 1.516 . S
C2964 C2963 1.516 . S
C2964 C2965 1.502 . S
C2964 C2966 1.561 . S
C2964 C2967 1.526 . S
C2965 H2949 0.959 . S
C2965 H2950 0.959 . S
C2965 H2951 0.961 . S
C2965 C2964 1.502 . S
C2966 H2952 0.960 . S
C2966 H2953 0.961 . S
C2966 H2954 0.959 1_455 S
C2966 C2964 1.561 . S
C2967 C2964 1.526 . S
C2967 C2968 1.396 1_455 S
C2967 C2972 1.390 . S
C2968 C2962 1.465 . S
C2968 C2967 1.396 1_655 S
C2968 C2969 1.399 . S
C2969 H2955 0.929 . S
C2969 C2968 1.399 . S
C2969 C2970 1.385 . S
C2970 H2956 0.931 . S
C2970 C2969 1.385 . S
C2970 C2971 1.389 . S
C2971 C2970 1.389 . S
C2971 C2972 1.387 1_655 S
C2972 H2957 0.930 . S
C2972 C2967 1.390 . S
C2972 C2971 1.387 1_455 S
H2973 C2985 0.930 . S
H2974 C2987 0.930 . S
H2975 C2988 0.930 . S
H2976 C2992 0.959 . S
H2977 C2992 0.959 . S
H2978 C2992 0.961 . S
H2979 C2993 0.960 . S
H2980 C2993 0.961 . S
H2981 C2993 0.959 . S
H2982 C2996 0.929 . S
H2983 C2997 0.931 . S
H2984 C2999 0.930 . S
C2985 H2973 0.930 . S
C2985 C2986 1.399 . S
C2985 C2990 1.399 . S
C2986 C2985 1.399 . S
C2986 C2987 1.376 . S
C2987 H2974 0.930 . S
C2987 C2986 1.376 . S
C2987 C2988 1.388 . S
C2988 H2975 0.930 . S
C2988 C2987 1.388 . S
C2988 C2989 1.390 . S
C2989 C2988 1.390 . S
C2989 C2990 1.394 . S
C2989 C2995 1.465 . S
C2990 C2985 1.399 . S
C2990 C2989 1.394 . S
C2990 C2991 1.516 . S
C2991 C2990 1.516 . S
C2991 C2992 1.502 . S
C2991 C2993 1.561 . S
C2991 C2994 1.526 . S
C2992 H2976 0.959 . S
C2992 H2977 0.959 . S
C2992 H2978 0.961 . S
C2992 C2991 1.502 . S
C2993 H2979 0.960 . S
C2993 H2980 0.961 . S
C2993 H2981 0.959 . S
C2993 C2991 1.561 . S
C2994 C2991 1.526 . S
C2994 C2995 1.396 . S
C2994 C2999 1.390 . S
C2995 C2989 1.465 . S
C2995 C2994 1.396 . S
C2995 C2996 1.399 . S
C2996 H2982 0.929 . S
C2996 C2995 1.399 . S
C2996 C2997 1.385 . S
C2997 H2983 0.931 . S
C2997 C2996 1.385 . S
C2997 C2998 1.389 . S
C2998 C2997 1.389 . S
C2998 C2999 1.387 . S
C2999 H2984 0.930 . S
C2999 C2994 1.390 . S
C2999 C2998 1.387 . S
H3000 C3012 0.930 . S
H3001 C3014 0.930 . S
H3002 C3015 0.930 . S
H3003 C3019 0.959 . S
H3004 C3019 0.959 . S
H3005 C3019 0.961 . S
H3006 C3020 0.960 . S
H3007 C3020 0.961 . S
H3008 C3020 0.959 . S
H3009 C3023 0.929 . S
H3010 C3024 0.931 . S
H3011 C3026 0.930 . S
C3012 H3000 0.930 . S
C3012 C3013 1.399 . S
C3012 C3017 1.399 . S
C3013 C3012 1.399 . S
C3013 C3014 1.376 . S
C3014 H3001 0.930 . S
C3014 C3013 1.376 . S
C3014 C3015 1.388 . S
C3015 H3002 0.930 . S
C3015 C3014 1.388 . S
C3015 C3016 1.390 . S
C3016 C3015 1.390 . S
C3016 C3017 1.394 . S
C3016 C3022 1.465 . S
C3017 C3012 1.399 . S
C3017 C3016 1.394 . S
C3017 C3018 1.516 . S
C3018 C3017 1.516 . S
C3018 C3019 1.502 . S
C3018 C3020 1.561 . S
C3018 C3021 1.526 . S
C3019 H3003 0.959 . S
C3019 H3004 0.959 . S
C3019 H3005 0.961 . S
C3019 C3018 1.502 . S
C3020 H3006 0.960 . S
C3020 H3007 0.961 . S
C3020 H3008 0.959 . S
C3020 C3018 1.561 . S
C3021 C3018 1.526 . S
C3021 C3022 1.396 . S
C3021 C3026 1.390 . S
C3022 C3016 1.465 . S
C3022 C3021 1.396 . S
C3022 C3023 1.399 . S
C3023 H3009 0.929 . S
C3023 C3022 1.399 . S
C3023 C3024 1.385 . S
C3024 H3010 0.931 . S
C3024 C3023 1.385 . S
C3024 C3025 1.389 . S
C3025 C3024 1.389 . S
C3025 C3026 1.387 . S
C3026 H3011 0.930 . S
C3026 C3021 1.390 . S
C3026 C3025 1.387 . S
H3027 C3039 0.930 . S
H3028 C3041 0.930 . S
H3029 C3042 0.930 . S
H3030 C3046 0.959 . S
H3031 C3046 0.959 . S
H3032 C3046 0.961 . S
H3033 C3047 0.960 . S
H3034 C3047 0.961 . S
H3035 C3047 0.959 . S
H3036 C3050 0.929 . S
H3037 C3051 0.931 . S
H3038 C3053 0.930 . S
C3039 H3027 0.930 . S
C3039 C3040 1.399 . S
C3039 C3044 1.399 . S
C3040 C3039 1.399 . S
C3040 C3041 1.376 . S
C3041 H3028 0.930 . S
C3041 C3040 1.376 . S
C3041 C3042 1.388 . S
C3042 H3029 0.930 . S
C3042 C3041 1.388 . S
C3042 C3043 1.390 . S
C3043 C3042 1.390 . S
C3043 C3044 1.394 . S
C3043 C3049 1.465 . S
C3044 C3039 1.399 . S
C3044 C3043 1.394 . S
C3044 C3045 1.516 . S
C3045 C3044 1.516 . S
C3045 C3046 1.502 . S
C3045 C3047 1.561 . S
C3045 C3048 1.526 . S
C3046 H3030 0.959 . S
C3046 H3031 0.959 . S
C3046 H3032 0.961 . S
C3046 C3045 1.502 . S
C3047 H3033 0.960 . S
C3047 H3034 0.961 . S
C3047 H3035 0.959 . S
C3047 C3045 1.561 . S
C3048 C3045 1.526 . S
C3048 C3049 1.396 . S
C3048 C3053 1.390 . S
C3049 C3043 1.465 . S
C3049 C3048 1.396 . S
C3049 C3050 1.399 . S
C3050 H3036 0.929 . S
C3050 C3049 1.399 . S
C3050 C3051 1.385 . S
C3051 H3037 0.931 . S
C3051 C3050 1.385 . S
C3051 C3052 1.389 . S
C3052 C3051 1.389 . S
C3052 C3053 1.387 . S
C3053 H3038 0.930 . S
C3053 C3048 1.390 . S
C3053 C3052 1.387 . S
H3054 C3066 0.930 . S
H3055 C3068 0.930 . S
H3056 C3069 0.930 . S
H3057 C3073 0.959 . S
H3058 C3073 0.959 . S
H3059 C3073 0.961 . S
H3060 C3074 0.960 . S
H3061 C3074 0.961 . S
H3062 C3074 0.959 . S
H3063 C3077 0.929 . S
H3064 C3078 0.931 . S
H3065 C3080 0.930 . S
C3066 H3054 0.930 . S
C3066 C3067 1.399 . S
C3066 C3071 1.399 . S
C3067 C3066 1.399 . S
C3067 C3068 1.376 . S
C3068 H3055 0.930 . S
C3068 C3067 1.376 . S
C3068 C3069 1.388 . S
C3069 H3056 0.930 . S
C3069 C3068 1.388 . S
C3069 C3070 1.390 . S
C3070 C3069 1.390 . S
C3070 C3071 1.394 . S
C3070 C3076 1.465 . S
C3071 C3066 1.399 . S
C3071 C3070 1.394 . S
C3071 C3072 1.516 . S
C3072 C3071 1.516 . S
C3072 C3073 1.502 . S
C3072 C3074 1.561 . S
C3072 C3075 1.526 . S
C3073 H3057 0.959 . S
C3073 H3058 0.959 . S
C3073 H3059 0.961 . S
C3073 C3072 1.502 . S
C3074 H3060 0.960 . S
C3074 H3061 0.961 . S
C3074 H3062 0.959 . S
C3074 C3072 1.561 . S
C3075 C3072 1.526 . S
C3075 C3076 1.396 . S
C3075 C3080 1.390 . S
C3076 C3070 1.465 . S
C3076 C3075 1.396 . S
C3076 C3077 1.399 . S
C3077 H3063 0.929 . S
C3077 C3076 1.399 . S
C3077 C3078 1.385 . S
C3078 H3064 0.931 . S
C3078 C3077 1.385 . S
C3078 C3079 1.389 . S
C3079 C3078 1.389 . S
C3079 C3080 1.387 . S
C3080 H3065 0.930 . S
C3080 C3075 1.390 . S
C3080 C3079 1.387 . S
H3081 C3093 0.930 . S
H3082 C3095 0.930 . S
H3083 C3096 0.930 . S
H3084 C3100 0.959 . S
H3085 C3100 0.959 . S
H3086 C3100 0.961 . S
H3087 C3101 0.960 . S
H3088 C3101 0.961 . S
H3089 C3101 0.959 . S
H3090 C3104 0.929 . S
H3091 C3105 0.931 . S
H3092 C3107 0.930 . S
C3093 H3081 0.930 . S
C3093 C3094 1.399 . S
C3093 C3098 1.399 . S
C3094 C3093 1.399 . S
C3094 C3095 1.376 . S
C3095 H3082 0.930 . S
C3095 C3094 1.376 . S
C3095 C3096 1.388 . S
C3096 H3083 0.930 . S
C3096 C3095 1.388 . S
C3096 C3097 1.390 . S
C3097 C3096 1.390 . S
C3097 C3098 1.394 . S
C3097 C3103 1.465 . S
C3098 C3093 1.399 . S
C3098 C3097 1.394 . S
C3098 C3099 1.516 . S
C3099 C3098 1.516 . S
C3099 C3100 1.502 . S
C3099 C3101 1.561 . S
C3099 C3102 1.526 . S
C3100 H3084 0.959 . S
C3100 H3085 0.959 . S
C3100 H3086 0.961 . S
C3100 C3099 1.502 . S
C3101 H3087 0.960 . S
C3101 H3088 0.961 . S
C3101 H3089 0.959 . S
C3101 C3099 1.561 . S
C3102 C3099 1.526 . S
C3102 C3103 1.396 . S
C3102 C3107 1.390 . S
C3103 C3097 1.465 . S
C3103 C3102 1.396 . S
C3103 C3104 1.399 . S
C3104 H3090 0.929 . S
C3104 C3103 1.399 . S
C3104 C3105 1.385 . S
C3105 H3091 0.931 . S
C3105 C3104 1.385 . S
C3105 C3106 1.389 . S
C3106 C3105 1.389 . S
C3106 C3107 1.387 . S
C3107 H3092 0.930 . S
C3107 C3102 1.390 . S
C3107 C3106 1.387 . S
H3108 C3120 0.930 . S
H3109 C3122 0.930 . S
H3110 C3123 0.930 . S
H3111 C3127 0.959 . S
H3112 C3127 0.959 . S
H3113 C3127 0.961 . S
H3114 C3128 0.960 . S
H3115 C3128 0.961 . S
H3116 C3128 0.959 . S
H3117 C3131 0.929 . S
H3118 C3132 0.931 . S
H3119 C3134 0.930 . S
C3120 H3108 0.930 . S
C3120 C3121 1.399 . S
C3120 C3125 1.399 . S
C3121 C3120 1.399 . S
C3121 C3122 1.376 . S
C3122 H3109 0.930 . S
C3122 C3121 1.376 . S
C3122 C3123 1.388 . S
C3123 H3110 0.930 . S
C3123 C3122 1.388 . S
C3123 C3124 1.390 . S
C3124 C3123 1.390 . S
C3124 C3125 1.394 . S
C3124 C3130 1.465 . S
C3125 C3120 1.399 . S
C3125 C3124 1.394 . S
C3125 C3126 1.516 . S
C3126 C3125 1.516 . S
C3126 C3127 1.502 . S
C3126 C3128 1.561 . S
C3126 C3129 1.526 . S
C3127 H3111 0.959 . S
C3127 H3112 0.959 . S
C3127 H3113 0.961 . S
C3127 C3126 1.502 . S
C3128 H3114 0.960 . S
C3128 H3115 0.961 . S
C3128 H3116 0.959 . S
C3128 C3126 1.561 . S
C3129 C3126 1.526 . S
C3129 C3130 1.396 . S
C3129 C3134 1.390 . S
C3130 C3124 1.465 . S
C3130 C3129 1.396 . S
C3130 C3131 1.399 . S
C3131 H3117 0.929 . S
C3131 C3130 1.399 . S
C3131 C3132 1.385 . S
C3132 H3118 0.931 . S
C3132 C3131 1.385 . S
C3132 C3133 1.389 . S
C3133 C3132 1.389 . S
C3133 C3134 1.387 . S
C3134 H3119 0.930 . S
C3134 C3129 1.390 . S
C3134 C3133 1.387 . S
H3135 C3147 0.930 . S
H3136 C3149 0.930 . S
H3137 C3150 0.930 . S
H3138 C3154 0.959 . S
H3139 C3154 0.959 . S
H3140 C3154 0.961 . S
H3141 C3155 0.960 . S
H3142 C3155 0.961 . S
H3143 C3155 0.959 . S
H3144 C3158 0.929 . S
H3145 C3159 0.925 1_556 S
H3146 C3161 0.930 . S
C3147 H3135 0.930 . S
C3147 C3148 1.399 . S
C3147 C3152 1.399 . S
C3148 C3147 1.399 . S
C3148 C3149 1.376 . S
C3149 H3136 0.930 . S
C3149 C3148 1.376 . S
C3149 C3150 1.388 . S
C3150 H3137 0.930 . S
C3150 C3149 1.388 . S
C3150 C3151 1.390 . S
C3151 C3150 1.390 . S
C3151 C3152 1.394 . S
C3151 C3157 1.465 . S
C3152 C3147 1.399 . S
C3152 C3151 1.394 . S
C3152 C3153 1.516 . S
C3153 C3152 1.516 . S
C3153 C3154 1.502 . S
C3153 C3155 1.561 . S
C3153 C3156 1.526 . S
C3154 H3138 0.959 . S
C3154 H3139 0.959 . S
C3154 H3140 0.961 . S
C3154 C3153 1.502 . S
C3155 H3141 0.960 . S
C3155 H3142 0.961 . S
C3155 H3143 0.959 . S
C3155 C3153 1.561 . S
C3156 C3153 1.526 . S
C3156 C3157 1.396 . S
C3156 C3161 1.390 . S
C3157 C3151 1.465 . S
C3157 C3156 1.396 . S
C3157 C3158 1.399 . S
C3158 H3144 0.929 . S
C3158 C3157 1.399 . S
C3158 C3159 1.385 . S
C3159 H3145 0.925 1_554 S
C3159 C3158 1.385 . S
C3159 C3160 1.389 . S
C3160 C3159 1.389 . S
C3160 C3161 1.387 . S
C3161 H3146 0.930 . S
C3161 C3156 1.390 . S
C3161 C3160 1.387 . S
H3162 C3174 0.930 . S
H3163 C3176 0.930 1_554 S
H3164 C3177 0.930 . S
H3165 C3181 0.959 . S
H3166 C3181 0.959 . S
H3167 C3181 0.961 . S
H3168 C3182 0.960 . S
H3169 C3182 0.961 . S
H3170 C3182 0.959 . S
H3171 C3185 0.929 . S
H3172 C3186 0.931 . S
H3173 C3188 0.930 . S
C3174 H3162 0.930 . S
C3174 C3175 1.399 . S
C3174 C3179 1.399 . S
C3175 C3174 1.399 . S
C3175 C3176 1.376 . S
C3176 H3163 0.930 1_556 S
C3176 C3175 1.376 . S
C3176 C3177 1.388 . S
C3177 H3164 0.930 . S
C3177 C3176 1.388 . S
C3177 C3178 1.390 . S
C3178 C3177 1.390 . S
C3178 C3179 1.394 . S
C3178 C3184 1.465 . S
C3179 C3174 1.399 . S
C3179 C3178 1.394 . S
C3179 C3180 1.516 . S
C3180 C3179 1.516 . S
C3180 C3181 1.502 . S
C3180 C3182 1.561 . S
C3180 C3183 1.526 . S
C3181 H3165 0.959 . S
C3181 H3166 0.959 . S
C3181 H3167 0.961 . S
C3181 C3180 1.502 . S
C3182 H3168 0.960 . S
C3182 H3169 0.961 . S
C3182 H3170 0.959 . S
C3182 C3180 1.561 . S
C3183 C3180 1.526 . S
C3183 C3184 1.396 . S
C3183 C3188 1.390 . S
C3184 C3178 1.465 . S
C3184 C3183 1.396 . S
C3184 C3185 1.399 . S
C3185 H3171 0.929 . S
C3185 C3184 1.399 . S
C3185 C3186 1.385 . S
C3186 H3172 0.931 . S
C3186 C3185 1.385 . S
C3186 C3187 1.389 . S
C3187 C3186 1.389 . S
C3187 C3188 1.387 . S
C3188 H3173 0.930 . S
C3188 C3183 1.390 . S
C3188 C3187 1.387 . S
H3189 C3201 0.930 . S
H3190 C3203 0.930 . S
H3191 C3204 0.930 . S
H3192 C3208 0.959 . S
H3193 C3208 0.959 . S
H3194 C3208 0.961 . S
H3195 C3209 0.960 . S
H3196 C3209 0.961 . S
H3197 C3209 0.959 . S
H3198 C3212 0.929 . S
H3199 C3213 0.931 1_554 S
H3200 C3215 0.930 . S
C3201 H3189 0.930 . S
C3201 C3202 1.399 . S
C3201 C3206 1.399 . S
C3202 C3201 1.399 . S
C3202 C3203 1.376 . S
C3203 H3190 0.930 . S
C3203 C3202 1.376 . S
C3203 C3204 1.388 . S
C3204 H3191 0.930 . S
C3204 C3203 1.388 . S
C3204 C3205 1.390 . S
C3205 C3204 1.390 . S
C3205 C3206 1.394 . S
C3205 C3211 1.465 . S
C3206 C3201 1.399 . S
C3206 C3205 1.394 . S
C3206 C3207 1.516 . S
C3207 C3206 1.516 . S
C3207 C3208 1.502 . S
C3207 C3209 1.561 . S
C3207 C3210 1.526 . S
C3208 H3192 0.959 . S
C3208 H3193 0.959 . S
C3208 H3194 0.961 . S
C3208 C3207 1.502 . S
C3209 H3195 0.960 . S
C3209 H3196 0.961 . S
C3209 H3197 0.959 . S
C3209 C3207 1.561 . S
C3210 C3207 1.526 . S
C3210 C3211 1.396 . S
C3210 C3215 1.390 . S
C3211 C3205 1.465 . S
C3211 C3210 1.396 . S
C3211 C3212 1.399 . S
C3212 H3198 0.929 . S
C3212 C3211 1.399 . S
C3212 C3213 1.385 . S
C3213 H3199 0.931 1_556 S
C3213 C3212 1.385 . S
C3213 C3214 1.389 . S
C3214 C3213 1.389 . S
C3214 C3215 1.387 . S
C3215 H3200 0.930 . S
C3215 C3210 1.390 . S
C3215 C3214 1.387 . S
C1069 C7 0.812 . S
C1081 C73 0.718 . S
C1096 C40 0.798 . S
C1108 C106 0.722 . S
C1123 C139 0.718 . S
C1135 C205 0.814 . S
C1150 C172 0.783 . S
C1162 C238 0.733 . S
C1177 C337 0.799 . S
C1189 C271 0.726 1_554 S
C1204 C304 0.810 1_554 S
C1216 C370 0.715 . S
C1231 C403 0.810 1_556 S
C1243 C469 0.718 . S
C1258 C436 0.791 1_556 S
C1270 C502 0.754 . S
C1285 C601 0.802 . S
C1297 C535 0.723 1_554 S
C1312 C634 0.805 . S
C1324 C568 0.717 1_554 S
C1339 C667 0.805 1_556 S
C1351 C733 0.720 . S
C1366 C766 0.794 . S
C1378 C700 0.724 1_556 S
C1393 C865 0.788 . S
C1405 C799 0.760 . S
C1420 C898 0.722 . S
C1432 C832 0.795 . S
C1447 C997 0.726 . S
C1459 C931 0.813 . S
C1474 C964 0.728 . S
C1486 C1030 0.808 . S
C1501 N13 1.771 . S
C1513 N46 1.778 . S
C1528 N79 1.772 . S
C1540 N112 1.782 . S
C1555 N178 1.821 . S
C1567 N145 1.828 . S
C1582 N211 1.788 . S
C1594 N244 1.768 . S
C1609 N310 1.838 . S
C1621 N277 1.819 . S
C1636 N343 1.838 . S
C1648 N376 1.822 . S
C1663 N409 1.813 . S
C1675 N442 1.831 . S
C1690 N475 1.794 . S
C1702 N508 1.766 . S
C1717 N541 1.808 . S
C1729 N574 1.785 . S
C1744 N640 1.776 . S
C1756 N607 1.793 . S
C1771 N706 1.784 . S
C1783 N673 1.783 . S
C1798 N739 1.818 . S
C1810 N772 1.840 . S
C1825 N805 1.840 . S
C1837 N838 1.825 . S
C1852 N871 1.840 . S
C1864 N904 1.825 . S
C1879 N937 1.818 . S
C1891 N970 1.841 . S
C1906 N1036 1.824 . S
C1918 N1003 1.839 . S
C1933 C153 1.649 . S
C1945 C21 1.614 . S
C1960 C54 1.636 . S
C1972 C978 1.642 . S
C1987 C483 1.607 . S
C1999 C87 1.660 . S
C2014 C780 1.630 . S
C2026 C120 1.647 . S
C2041 C846 1.641 . S
C2053 C186 1.636 . S
C2068 C351 1.634 . S
C2080 C219 1.625 . S
C2095 C252 1.632 . S
C2107 C648 1.629 . S
C2122 C417 1.659 . S
C2134 C285 1.612 . S
C2149 C318 1.656 . S
C2161 C714 1.610 . S
C2176 C384 1.646 . S
C2188 C1044 1.617 . S
C2203 C582 1.633 . S
C2215 C450 1.644 . S
C2230 C912 1.624 . S
C2242 C516 1.637 . S
C2257 C549 1.627 . S
C2269 C681 1.632 . S
C2284 C615 1.607 . S
C2296 C1011 1.657 . S
C2311 C879 1.646 . S
C2323 C747 1.615 . S
C2338 C813 1.649 . S
C2350 C945 1.613 . S
C2365 N2 1.205 . S
C2377 N629 1.253 . S
C2392 N596 1.205 . S
C2404 N35 1.238 . S
C2419 N68 1.181 . S
C2431 N563 1.274 . S
C2446 N101 1.253 . S
C2458 N530 1.184 . S
C2473 N761 1.178 . S
C2485 N134 1.247 . S
C2500 N167 1.179 . S
C2512 N728 1.228 . S
C2527 N695 1.268 . S
C2539 N200 1.216 . S
C2554 N233 1.273 . S
C2566 N662 1.176 . S
C2581 N266 1.248 . S
C2593 N893 1.204 . S
C2608 N299 1.251 . S
C2620 N860 1.186 . S
C2635 N332 1.237 . S
C2647 N827 1.222 . S
C2662 N365 1.188 . S
C2674 N794 1.253 . S
C2689 N398 1.269 . S
C2701 N1025 1.214 . S
C2716 N992 1.194 . S
C2728 N431 1.210 . S
C2743 N959 1.184 . S
C2755 N464 1.238 . S
C2770 N926 1.175 . S
C2782 N497 1.234 . S
C2797 C18 1.270 . S
C2809 C84 1.264 1_554 S
C2824 C117 1.262 1_554 S
C2836 C51 1.267 . S
C2851 C216 1.268 1_556 S
C2863 C150 1.262 . S
C2878 C183 1.269 . S
C2890 C249 1.263 1_556 S
C2905 C282 1.269 . S
C2917 C348 1.265 . S
C2932 C315 1.269 . S
C2944 C381 1.263 . S
C2959 C480 1.267 . S
C2971 C414 1.269 . S
C2986 C447 1.267 . S
C2998 C513 1.262 . S
C3013 C546 1.268 . S
C3025 C612 1.262 . S
C3040 C579 1.268 . S
C3052 C645 1.265 . S
C3067 C744 1.266 . S
C3079 C678 1.262 . S
C3094 C777 1.268 . S
C3106 C711 1.262 . S
C3121 C876 1.269 1_554 S
C3133 C810 1.264 . S
C3148 C843 1.266 . S
C3160 C909 1.263 1_554 S
C3175 C1008 1.266 1_556 S
C3187 C942 1.270 . S
C3202 C975 1.266 . S
C3214 C1041 1.262 1_556 S
