# Generated by pormake.
# Topology wne, (6)-cn, num edge types: 1
# Building blocks:
#     Node 0, Type 0, BuildingBlock: BETGAK_clean_sbu_0, # of connection points: 6
#     Node 1, Type 0, BuildingBlock: BETGAK_clean_sbu_0, # of connection points: 6
#     Node 2, Type 0, BuildingBlock: BETGAK_clean_sbu_0, # of connection points: 6
#     Node 3, Type 0, BuildingBlock: BETGAK_clean_sbu_0, # of connection points: 6
#     Node 4, Type 0, BuildingBlock: BETGAK_clean_sbu_0, # of connection points: 6
#     Node 5, Type 0, BuildingBlock: BETGAK_clean_sbu_0, # of connection points: 6
#     Node 6, Type 0, BuildingBlock: BETGAK_clean_sbu_0, # of connection points: 6
#     Node 7, Type 0, BuildingBlock: BETGAK_clean_sbu_0, # of connection points: 6
#     Node 8, Type 0, BuildingBlock: BETGAK_clean_sbu_0, # of connection points: 6
#     Node 9, Type 0, BuildingBlock: BETGAK_clean_sbu_0, # of connection points: 6
#     Node 10, Type 0, BuildingBlock: BETGAK_clean_sbu_0, # of connection points: 6
#     Node 11, Type 0, BuildingBlock: BETGAK_clean_sbu_0, # of connection points: 6
#     Node 12, Type 0, BuildingBlock: BETGAK_clean_sbu_0, # of connection points: 6
#     Node 13, Type 0, BuildingBlock: BETGAK_clean_sbu_0, # of connection points: 6
#     Node 14, Type 0, BuildingBlock: BETGAK_clean_sbu_0, # of connection points: 6
#     Node 15, Type 0, BuildingBlock: BETGAK_clean_sbu_0, # of connection points: 6
#     Node 16, Type 0, BuildingBlock: BETGAK_clean_sbu_0, # of connection points: 6
#     Node 17, Type 0, BuildingBlock: BETGAK_clean_sbu_0, # of connection points: 6
#     Node 18, Type 0, BuildingBlock: BETGAK_clean_sbu_0, # of connection points: 6
#     Node 19, Type 0, BuildingBlock: BETGAK_clean_sbu_0, # of connection points: 6
#     Node 20, Type 0, BuildingBlock: BETGAK_clean_sbu_0, # of connection points: 6
#     Node 21, Type 0, BuildingBlock: BETGAK_clean_sbu_0, # of connection points: 6
#     Node 22, Type 0, BuildingBlock: BETGAK_clean_sbu_0, # of connection points: 6
#     Node 23, Type 0, BuildingBlock: BETGAK_clean_sbu_0, # of connection points: 6
#     Node 24, Type 0, BuildingBlock: BETGAK_clean_sbu_0, # of connection points: 6
#     Node 25, Type 0, BuildingBlock: BETGAK_clean_sbu_0, # of connection points: 6
#     Node 26, Type 0, BuildingBlock: BETGAK_clean_sbu_0, # of connection points: 6
#     Node 27, Type 0, BuildingBlock: BETGAK_clean_sbu_0, # of connection points: 6
#     Node 28, Type 0, BuildingBlock: BETGAK_clean_sbu_0, # of connection points: 6
#     Node 29, Type 0, BuildingBlock: BETGAK_clean_sbu_0, # of connection points: 6
#     Node 30, Type 0, BuildingBlock: BETGAK_clean_sbu_0, # of connection points: 6
#     Node 31, Type 0, BuildingBlock: BETGAK_clean_sbu_0, # of connection points: 6
#     Node 32, Type 0, BuildingBlock: BETGAK_clean_sbu_0, # of connection points: 6
#     Node 33, Type 0, BuildingBlock: BETGAK_clean_sbu_0, # of connection points: 6
#     Node 34, Type 0, BuildingBlock: BETGAK_clean_sbu_0, # of connection points: 6
#     Node 35, Type 0, BuildingBlock: BETGAK_clean_sbu_0, # of connection points: 6
#     Edge 36, Type (0, 0), BuildingBlock: XIVTED_clean_linker_0, # of connection points: 2
#     Edge 37, Type (0, 0), BuildingBlock: XIVTED_clean_linker_0, # of connection points: 2
#     Edge 38, Type (0, 0), BuildingBlock: XIVTED_clean_linker_0, # of connection points: 2
#     Edge 39, Type (0, 0), BuildingBlock: XIVTED_clean_linker_0, # of connection points: 2
#     Edge 40, Type (0, 0), BuildingBlock: XIVTED_clean_linker_0, # of connection points: 2
#     Edge 41, Type (0, 0), BuildingBlock: XIVTED_clean_linker_0, # of connection points: 2
#     Edge 42, Type (0, 0), BuildingBlock: XIVTED_clean_linker_0, # of connection points: 2
#     Edge 43, Type (0, 0), BuildingBlock: XIVTED_clean_linker_0, # of connection points: 2
#     Edge 44, Type (0, 0), BuildingBlock: XIVTED_clean_linker_0, # of connection points: 2
#     Edge 45, Type (0, 0), BuildingBlock: XIVTED_clean_linker_0, # of connection points: 2
#     Edge 46, Type (0, 0), BuildingBlock: XIVTED_clean_linker_0, # of connection points: 2
#     Edge 47, Type (0, 0), BuildingBlock: XIVTED_clean_linker_0, # of connection points: 2
#     Edge 48, Type (0, 0), BuildingBlock: XIVTED_clean_linker_0, # of connection points: 2
#     Edge 49, Type (0, 0), BuildingBlock: XIVTED_clean_linker_0, # of connection points: 2
#     Edge 50, Type (0, 0), BuildingBlock: XIVTED_clean_linker_0, # of connection points: 2
#     Edge 51, Type (0, 0), BuildingBlock: XIVTED_clean_linker_0, # of connection points: 2
#     Edge 52, Type (0, 0), BuildingBlock: XIVTED_clean_linker_0, # of connection points: 2
#     Edge 53, Type (0, 0), BuildingBlock: XIVTED_clean_linker_0, # of connection points: 2
#     Edge 54, Type (0, 0), BuildingBlock: XIVTED_clean_linker_0, # of connection points: 2
#     Edge 55, Type (0, 0), BuildingBlock: XIVTED_clean_linker_0, # of connection points: 2
#     Edge 56, Type (0, 0), BuildingBlock: XIVTED_clean_linker_0, # of connection points: 2
#     Edge 57, Type (0, 0), BuildingBlock: XIVTED_clean_linker_0, # of connection points: 2
#     Edge 58, Type (0, 0), BuildingBlock: XIVTED_clean_linker_0, # of connection points: 2
#     Edge 59, Type (0, 0), BuildingBlock: XIVTED_clean_linker_0, # of connection points: 2
#     Edge 60, Type (0, 0), BuildingBlock: XIVTED_clean_linker_0, # of connection points: 2
#     Edge 61, Type (0, 0), BuildingBlock: XIVTED_clean_linker_0, # of connection points: 2
#     Edge 62, Type (0, 0), BuildingBlock: XIVTED_clean_linker_0, # of connection points: 2
#     Edge 63, Type (0, 0), BuildingBlock: XIVTED_clean_linker_0, # of connection points: 2
#     Edge 64, Type (0, 0), BuildingBlock: XIVTED_clean_linker_0, # of connection points: 2
#     Edge 65, Type (0, 0), BuildingBlock: XIVTED_clean_linker_0, # of connection points: 2
#     Edge 66, Type (0, 0), BuildingBlock: XIVTED_clean_linker_0, # of connection points: 2
#     Edge 67, Type (0, 0), BuildingBlock: XIVTED_clean_linker_0, # of connection points: 2
#     Edge 68, Type (0, 0), BuildingBlock: XIVTED_clean_linker_0, # of connection points: 2
#     Edge 69, Type (0, 0), BuildingBlock: XIVTED_clean_linker_0, # of connection points: 2
#     Edge 70, Type (0, 0), BuildingBlock: XIVTED_clean_linker_0, # of connection points: 2
#     Edge 71, Type (0, 0), BuildingBlock: XIVTED_clean_linker_0, # of connection points: 2
#     Edge 72, Type (0, 0), BuildingBlock: XIVTED_clean_linker_0, # of connection points: 2
#     Edge 73, Type (0, 0), BuildingBlock: XIVTED_clean_linker_0, # of connection points: 2
#     Edge 74, Type (0, 0), BuildingBlock: XIVTED_clean_linker_0, # of connection points: 2
#     Edge 75, Type (0, 0), BuildingBlock: XIVTED_clean_linker_0, # of connection points: 2
#     Edge 76, Type (0, 0), BuildingBlock: XIVTED_clean_linker_0, # of connection points: 2
#     Edge 77, Type (0, 0), BuildingBlock: XIVTED_clean_linker_0, # of connection points: 2
#     Edge 78, Type (0, 0), BuildingBlock: XIVTED_clean_linker_0, # of connection points: 2
#     Edge 79, Type (0, 0), BuildingBlock: XIVTED_clean_linker_0, # of connection points: 2
#     Edge 80, Type (0, 0), BuildingBlock: XIVTED_clean_linker_0, # of connection points: 2
#     Edge 81, Type (0, 0), BuildingBlock: XIVTED_clean_linker_0, # of connection points: 2
#     Edge 82, Type (0, 0), BuildingBlock: XIVTED_clean_linker_0, # of connection points: 2
#     Edge 83, Type (0, 0), BuildingBlock: XIVTED_clean_linker_0, # of connection points: 2
#     Edge 84, Type (0, 0), BuildingBlock: XIVTED_clean_linker_0, # of connection points: 2
#     Edge 85, Type (0, 0), BuildingBlock: XIVTED_clean_linker_0, # of connection points: 2
#     Edge 86, Type (0, 0), BuildingBlock: XIVTED_clean_linker_0, # of connection points: 2
#     Edge 87, Type (0, 0), BuildingBlock: XIVTED_clean_linker_0, # of connection points: 2
#     Edge 88, Type (0, 0), BuildingBlock: XIVTED_clean_linker_0, # of connection points: 2
#     Edge 89, Type (0, 0), BuildingBlock: XIVTED_clean_linker_0, # of connection points: 2
#     Edge 90, Type (0, 0), BuildingBlock: XIVTED_clean_linker_0, # of connection points: 2
#     Edge 91, Type (0, 0), BuildingBlock: XIVTED_clean_linker_0, # of connection points: 2
#     Edge 92, Type (0, 0), BuildingBlock: XIVTED_clean_linker_0, # of connection points: 2
#     Edge 93, Type (0, 0), BuildingBlock: XIVTED_clean_linker_0, # of connection points: 2
#     Edge 94, Type (0, 0), BuildingBlock: XIVTED_clean_linker_0, # of connection points: 2
#     Edge 95, Type (0, 0), BuildingBlock: XIVTED_clean_linker_0, # of connection points: 2
#     Edge 96, Type (0, 0), BuildingBlock: XIVTED_clean_linker_0, # of connection points: 2
#     Edge 97, Type (0, 0), BuildingBlock: XIVTED_clean_linker_0, # of connection points: 2
#     Edge 98, Type (0, 0), BuildingBlock: XIVTED_clean_linker_0, # of connection points: 2
#     Edge 99, Type (0, 0), BuildingBlock: XIVTED_clean_linker_0, # of connection points: 2
#     Edge 100, Type (0, 0), BuildingBlock: XIVTED_clean_linker_0, # of connection points: 2
#     Edge 101, Type (0, 0), BuildingBlock: XIVTED_clean_linker_0, # of connection points: 2
#     Edge 102, Type (0, 0), BuildingBlock: XIVTED_clean_linker_0, # of connection points: 2
#     Edge 103, Type (0, 0), BuildingBlock: XIVTED_clean_linker_0, # of connection points: 2
#     Edge 104, Type (0, 0), BuildingBlock: XIVTED_clean_linker_0, # of connection points: 2
#     Edge 105, Type (0, 0), BuildingBlock: XIVTED_clean_linker_0, # of connection points: 2
#     Edge 106, Type (0, 0), BuildingBlock: XIVTED_clean_linker_0, # of connection points: 2
#     Edge 107, Type (0, 0), BuildingBlock: XIVTED_clean_linker_0, # of connection points: 2
#     Edge 108, Type (0, 0), BuildingBlock: XIVTED_clean_linker_0, # of connection points: 2
#     Edge 109, Type (0, 0), BuildingBlock: XIVTED_clean_linker_0, # of connection points: 2
#     Edge 110, Type (0, 0), BuildingBlock: XIVTED_clean_linker_0, # of connection points: 2
#     Edge 111, Type (0, 0), BuildingBlock: XIVTED_clean_linker_0, # of connection points: 2
#     Edge 112, Type (0, 0), BuildingBlock: XIVTED_clean_linker_0, # of connection points: 2
#     Edge 113, Type (0, 0), BuildingBlock: XIVTED_clean_linker_0, # of connection points: 2
#     Edge 114, Type (0, 0), BuildingBlock: XIVTED_clean_linker_0, # of connection points: 2
#     Edge 115, Type (0, 0), BuildingBlock: XIVTED_clean_linker_0, # of connection points: 2
#     Edge 116, Type (0, 0), BuildingBlock: XIVTED_clean_linker_0, # of connection points: 2
#     Edge 117, Type (0, 0), BuildingBlock: XIVTED_clean_linker_0, # of connection points: 2
#     Edge 118, Type (0, 0), BuildingBlock: XIVTED_clean_linker_0, # of connection points: 2
#     Edge 119, Type (0, 0), BuildingBlock: XIVTED_clean_linker_0, # of connection points: 2
#     Edge 120, Type (0, 0), BuildingBlock: XIVTED_clean_linker_0, # of connection points: 2
#     Edge 121, Type (0, 0), BuildingBlock: XIVTED_clean_linker_0, # of connection points: 2
#     Edge 122, Type (0, 0), BuildingBlock: XIVTED_clean_linker_0, # of connection points: 2
#     Edge 123, Type (0, 0), BuildingBlock: XIVTED_clean_linker_0, # of connection points: 2
#     Edge 124, Type (0, 0), BuildingBlock: XIVTED_clean_linker_0, # of connection points: 2
#     Edge 125, Type (0, 0), BuildingBlock: XIVTED_clean_linker_0, # of connection points: 2
#     Edge 126, Type (0, 0), BuildingBlock: XIVTED_clean_linker_0, # of connection points: 2
#     Edge 127, Type (0, 0), BuildingBlock: XIVTED_clean_linker_0, # of connection points: 2
#     Edge 128, Type (0, 0), BuildingBlock: XIVTED_clean_linker_0, # of connection points: 2
#     Edge 129, Type (0, 0), BuildingBlock: XIVTED_clean_linker_0, # of connection points: 2
#     Edge 130, Type (0, 0), BuildingBlock: XIVTED_clean_linker_0, # of connection points: 2
#     Edge 131, Type (0, 0), BuildingBlock: XIVTED_clean_linker_0, # of connection points: 2
#     Edge 132, Type (0, 0), BuildingBlock: XIVTED_clean_linker_0, # of connection points: 2
#     Edge 133, Type (0, 0), BuildingBlock: XIVTED_clean_linker_0, # of connection points: 2
#     Edge 134, Type (0, 0), BuildingBlock: XIVTED_clean_linker_0, # of connection points: 2
#     Edge 135, Type (0, 0), BuildingBlock: XIVTED_clean_linker_0, # of connection points: 2
#     Edge 136, Type (0, 0), BuildingBlock: XIVTED_clean_linker_0, # of connection points: 2
#     Edge 137, Type (0, 0), BuildingBlock: XIVTED_clean_linker_0, # of connection points: 2
#     Edge 138, Type (0, 0), BuildingBlock: XIVTED_clean_linker_0, # of connection points: 2
#     Edge 139, Type (0, 0), BuildingBlock: XIVTED_clean_linker_0, # of connection points: 2
#     Edge 140, Type (0, 0), BuildingBlock: XIVTED_clean_linker_0, # of connection points: 2
#     Edge 141, Type (0, 0), BuildingBlock: XIVTED_clean_linker_0, # of connection points: 2
#     Edge 142, Type (0, 0), BuildingBlock: XIVTED_clean_linker_0, # of connection points: 2
#     Edge 143, Type (0, 0), BuildingBlock: XIVTED_clean_linker_0, # of connection points: 2
# Relax obj value: 0.384
# Max RMSD: 0.249
# Mean RMSD: 0.249
data_MOF--net-wne--node1-BETGAK_clean_sbu_0--edge1-XIVTED_clean_linker_0
_symmetry_space_group_name_H-M    P1
_symmetry_Int_Tables_number       1
_symmetry_cell_setting            triclinic
loop_
_symmetry_equiv_pos_as_xyz
'x, y, z'
_cell_length_a     86.192775
_cell_length_b     86.346236
_cell_length_c     31.795538
_cell_angle_alpha  90.024759
_cell_angle_beta   89.976575
_cell_angle_gamma 119.96127
loop_
_atom_site_label
_atom_site_type_symbol
_atom_site_fract_x
_atom_site_fract_y
_atom_site_fract_z
_atom_type_partial_charge
La0 La 0.30588 0.21094 0.10358 0.0
La1 La 0.32923 0.24776 0.12328 0.0
C2 C 0.29003 0.17798 0.08177 0.0
C3 C 0.29039 0.16089 0.0732 0.0
C4 C 0.28513 0.14766 0.10463 0.0
C5 C 0.28247 0.13048 0.09559 0.0
C6 C 0.28488 0.1257 0.05462 0.0
C7 C 0.29062 0.13911 1.02336 0.0
C8 C 0.29319 0.15631 0.0324 0.0
C9 C 0.29393 0.22301 0.16827 0.0
C10 C 0.3426 0.2211 0.15002 0.0
C11 C 0.34576 0.2791 0.15089 0.0
C12 C 0.34306 0.2939 0.13677 0.0
C13 C 0.35269 0.30439 0.10215 0.0
C14 C 0.34751 0.31554 0.08265 0.0
C15 C 0.33267 0.31656 0.09744 0.0
C16 C 0.32365 0.30689 0.13349 0.0
C17 C 0.3288 0.29567 0.15301 0.0
C18 C 0.33477 0.24116 0.04419 0.0
C19 C 0.29336 0.23785 0.07573 0.0
O20 O 0.29171 0.18367 0.12056 0.0
O21 O 0.29718 0.19137 0.05508 0.0
O22 O 0.28413 0.21156 0.13989 0.0
O23 O 0.30988 0.22656 0.16104 0.0
O24 O 0.32745 0.20837 0.13371 0.0
O25 O 0.34618 0.23789 0.15038 0.0
O26 O 0.35266 0.27302 0.12328 0.0
O27 O 0.33209 0.26607 0.17005 0.0
O28 O 0.33187 0.25376 0.0565 0.0
O29 O 0.33185 0.23089 0.0759 0.0
O30 O 0.30538 0.24871 0.10317 0.0
O31 O 0.29319 0.22291 0.0646 0.0
H32 H 0.2825 0.15038 0.13629 0.0
H33 H 0.27835 0.12086 0.12095 0.0
H34 H 0.29249 0.13616 0.99129 0.0
H35 H 0.29685 0.16584 1.00697 0.0
H36 H 0.36378 0.30344 0.08901 0.0
H37 H 0.35513 0.32336 0.05579 0.0
H38 H 0.31231 0.30761 0.14587 0.0
H39 H 0.32108 0.28779 0.17971 0.0
La40 La 0.87958 0.11137 0.10166 0.0
La41 La 0.84327 0.09845 0.12632 0.0
C42 C 0.91208 0.12832 0.07591 0.0
C43 C 0.92912 0.14589 0.06798 0.0
C44 C 0.94242 0.15359 0.09938 0.0
C45 C 0.95958 0.16821 0.09065 0.0
C46 C 0.96425 0.1758 0.05005 0.0
C47 C 0.95076 0.16843 1.01888 0.0
C48 C 0.93358 0.15369 1.0276 0.0
C49 C 0.86872 0.08723 0.16588 0.0
C50 C 0.87065 0.13894 0.14676 0.0
C51 C 0.81521 0.08734 0.16994 0.0
C52 C 0.80387 0.07013 0.19062 0.0
C53 C 0.78919 0.06754 0.21461 0.0
C54 C 0.77722 0.05058 0.23032 0.0
C55 C 0.77981 0.03595 0.22231 0.0
C56 C 0.79546 0.03906 0.20129 0.0
C57 C 0.80724 0.05596 0.18506 0.0
C58 C 0.84788 0.11053 0.04734 0.0
C59 C 0.85162 0.07193 0.07698 0.0
O60 O 0.90715 0.1235 0.11484 0.0
O61 O 0.89814 0.12284 0.05106 0.0
O62 O 0.87967 0.08888 0.13607 0.0
O63 O 0.86513 0.09964 0.15997 0.0
O64 O 0.88323 0.13521 0.13575 0.0
O65 O 0.85355 0.12673 0.14235 0.0
O66 O 0.81529 0.08691 0.12894 0.0
O67 O 0.83135 0.09664 0.18507 0.0
O68 O 0.83468 0.09576 0.06149 0.0
O69 O 0.85923 0.1177 0.07745 0.0
O70 O 0.8418 0.07327 0.10725 0.0
O71 O 0.86604 0.08664 0.06327 0.0
H72 H 0.9398 0.14794 0.13073 0.0
H73 H 0.96927 0.17347 0.11593 0.0
H74 H 0.95365 0.1736 0.9871 0.0
H75 H 0.92397 0.14803 1.0022 0.0
H76 H 0.78648 0.07839 0.21942 0.0
H77 H 0.76522 0.04874 0.24579 0.0
H78 H 0.79804 1.02821 0.19509 0.0
H79 H 0.81863 0.05778 0.16686 0.0
La80 La 0.97935 0.78535 0.10669 0.0
La81 La 0.99254 0.76176 0.12593 0.0
C82 C 0.96252 0.80151 0.08503 0.0
C83 C 0.94511 0.80119 0.07613 0.0
C84 C 0.93761 0.80741 0.1066 0.0
C85 C 0.92306 0.80998 0.09703 0.0
C86 C 0.91537 0.80648 0.05647 0.0
C87 C 0.92261 0.79983 1.02622 0.0
C88 C 0.93726 0.79734 0.03577 0.0
C89 C 1.00338 0.79706 0.17133 0.0
C90 C 0.9526 0.74885 0.15316 0.0
C91 C 1.00692 0.74455 0.15188 0.0
C92 C 1.02367 0.74611 0.13523 0.0
C93 C 1.02298 0.73513 0.10185 0.0
C94 C 1.03848 0.73905 0.07972 0.0
C95 C 0.05503 0.75395 0.09061 0.0
C96 C 0.05594 0.76435 0.12543 0.0
C97 C 1.04041 0.76046 0.14758 0.0
C98 C 0.98033 0.75639 0.04688 0.0
C99 C 1.01866 0.79749 0.07857 0.0
O100 O 0.9663 0.79959 0.12387 0.0
O101 O 0.96887 0.79446 0.0583 0.0
O102 O 1.00176 0.80691 0.14306 0.0
O103 O 0.99092 0.78116 0.16415 0.0
O104 O 0.95503 0.76389 0.13625 0.0
O105 O 0.96585 0.74529 0.15413 0.0
O106 O 0.99321 0.73773 0.1263 0.0
O107 O 1.00873 0.75882 0.17057 0.0
O108 O 0.99582 0.75919 0.05905 0.0
O109 O 0.9731 0.75941 0.07871 0.0
O110 O 1.01744 0.78544 0.10595 0.0
O111 O 1.00394 0.79779 0.0675 0.0
H112 H 0.94336 0.81085 0.13783 0.0
H113 H 0.9179 0.81484 0.12164 0.0
H114 H 0.91739 0.79711 0.99446 0.0
H115 H 0.94277 0.79291 1.01104 0.0
H116 H 1.01034 0.72394 0.09167 0.0
H117 H 1.03748 0.73042 0.05387 0.0
H118 H 0.06854 0.7758 0.13479 0.0
H119 H 1.04146 0.7692 0.17321 0.0
La120 La 0.22969 0.28613 0.45044 0.0
La121 La 0.26647 0.30996 0.43227 0.0
C122 C 0.19659 0.26973 0.47131 0.0
C123 C 0.17957 0.27019 0.48013 0.0
C124 C 0.16641 0.26528 0.44864 0.0
C125 C 0.14927 0.26274 0.45781 0.0
C126 C 0.1445 0.26494 0.49897 0.0
C127 C 0.15786 0.27033 0.5303 0.0
C128 C 0.17501 0.27279 0.52112 0.0
C129 C 0.24243 0.27493 0.38555 0.0
C130 C 0.23925 0.32275 0.4052 0.0
C131 C 0.29833 0.32768 0.40831 0.0
C132 C 0.31344 0.32657 0.42695 0.0
C133 C 0.32601 0.34069 0.45179 0.0
C134 C 0.33773 0.33828 0.4776 0.0
C135 C 0.33715 0.32171 0.47896 0.0
C136 C 0.32535 0.30792 0.45221 0.0
C137 C 0.31359 0.31031 0.42648 0.0
C138 C 0.25922 0.31484 0.51132 0.0
C139 C 0.25671 0.27401 0.479 0.0
O140 O 0.20248 0.27193 0.43259 0.0
O141 O 0.20987 0.27655 0.49838 0.0
O142 O 0.23087 0.26486 0.41346 0.0
O143 O 0.24573 0.29075 0.39321 0.0
O144 O 0.22673 0.30764 0.42193 0.0
O145 O 0.25612 0.3264 0.40403 0.0
O146 O 0.29093 0.33428 0.43295 0.0
O147 O 0.28629 0.31332 0.38904 0.0
O148 O 0.27194 0.31206 0.49932 0.0
O149 O 0.24913 0.31197 0.47928 0.0
O150 O 0.26764 0.28614 0.45182 0.0
O151 O 0.24169 0.27371 0.4899 0.0
H152 H 0.16914 0.26283 0.41682 0.0
H153 H 0.13967 0.2589 0.43243 0.0
H154 H 0.15489 0.27202 0.56249 0.0
H155 H 0.18452 0.27618 0.54657 0.0
H156 H 0.32618 0.35332 0.45282 0.0
H157 H 0.34708 0.34933 0.49702 0.0
H158 H 0.32469 0.29506 0.4524 0.0
H159 H 0.30403 0.29907 0.40782 0.0
La160 La 0.80485 0.96034 0.44782 0.0
La161 La 0.78112 0.97316 0.42537 0.0
C162 C 0.82111 0.94378 0.47097 0.0
C163 C 0.82067 0.92636 0.48016 0.0
C164 C 0.8251 0.91772 0.44862 0.0
C165 C 0.82769 0.9032 0.45807 0.0
C166 C 0.82604 0.8967 0.49955 0.0
C167 C 0.82113 0.90506 0.53095 0.0
C168 C 0.81861 0.91967 0.52148 0.0
C169 C 0.81669 0.98382 0.38215 0.0
C170 C 0.7685 0.93293 0.40153 0.0
C171 C 0.76412 0.98696 0.39417 0.0
C172 C 0.76476 1.00361 0.40761 0.0
C173 C 0.75994 1.00534 0.44881 0.0
C174 C 0.76409 1.02203 0.46443 0.0
C175 C 0.77329 0.03744 0.43944 0.0
C176 C 0.77743 1.03563 0.3976 0.0
C177 C 0.77315 1.01884 0.38181 0.0
C178 C 0.77531 0.96175 0.50508 0.0
C179 C 0.81647 0.99953 0.47473 0.0
O180 O 0.81947 0.94757 0.43195 0.0
O181 O 0.81379 0.95006 0.49714 0.0
O182 O 0.82649 0.98274 0.41144 0.0
O183 O 0.80083 0.97125 0.38924 0.0
O184 O 0.78351 0.93567 0.41938 0.0
O185 O 0.76486 0.94609 0.3988 0.0
O186 O 0.75691 0.97346 0.42031 0.0
O187 O 0.77921 0.98933 0.37903 0.0
O188 O 0.77761 0.97687 0.49147 0.0
O189 O 0.77866 0.95429 0.47427 0.0
O190 O 0.8046 0.99819 0.44645 0.0
O191 O 0.81673 0.98492 0.48663 0.0
H192 H 0.82713 0.92253 0.41651 0.0
H193 H 0.83115 0.89714 0.43263 0.0
H194 H 0.81987 0.90077 0.56337 0.0
H195 H 0.81562 0.9261 0.54694 0.0
H196 H 0.75353 0.99391 0.46965 0.0
H197 H 0.76011 1.02284 0.49631 0.0
H198 H 0.78442 0.04721 0.37744 0.0
H199 H 0.77716 1.01788 0.35004 0.0
La200 La 0.13096 0.86099 0.45272 0.0
La201 La 0.11804 0.82435 0.43275 0.0
C202 C 0.14758 0.89389 0.47474 0.0
C203 C 0.165 0.91095 0.48332 0.0
C204 C 0.17315 0.92407 0.45171 0.0
C205 C 0.18765 0.94124 0.46074 0.0
C206 C 0.19463 0.94609 0.50185 0.0
C207 C 0.18676 0.9328 0.5333 0.0
C208 C 0.17217 0.91562 0.52426 0.0
C209 C 0.10694 0.84868 0.38806 0.0
C210 C 0.15825 0.85164 0.40731 0.0
C211 C 0.10371 0.7933 0.40346 0.0
C212 C 0.08567 0.77852 0.41444 0.0
C213 C 0.08329 0.7679 0.44994 0.0
C214 C 0.06617 0.75658 0.46568 0.0
C215 C 1.05103 0.75554 0.4462 0.0
C216 C 1.0533 0.76548 0.40953 0.0
C217 C 0.07044 0.77684 0.39374 0.0
C218 C 0.12998 0.83084 0.51185 0.0
C219 C 0.09174 0.83372 0.48082 0.0
O220 O 0.14364 0.88823 0.43591 0.0
O221 O 0.14147 0.88048 0.50135 0.0
O222 O 0.10833 0.85997 0.41662 0.0
O223 O 0.11954 0.84543 0.39519 0.0
O224 O 0.15535 0.86417 0.42277 0.0
O225 O 0.14531 0.83469 0.40732 0.0
O226 O 0.11574 0.79889 0.43334 0.0
O227 O 0.10396 0.80666 0.3838 0.0
O228 O 0.11456 0.81813 0.49934 0.0
O229 O 0.13733 0.84126 0.48034 0.0
O230 O 0.09296 0.82289 0.45331 0.0
O231 O 0.10642 0.84873 0.49179 0.0
H232 H 0.16795 0.92126 0.41992 0.0
H233 H 0.19332 0.95078 0.43527 0.0
H234 H 0.19143 0.93584 0.56546 0.0
H235 H 0.16613 0.90616 0.5498 0.0
H236 H 0.09468 0.7688 0.46652 0.0
H237 H 0.0648 0.74858 0.49317 0.0
H238 H 1.04186 0.76479 0.3936 0.0
H239 H 0.07179 0.78484 0.36626 0.0
La240 La 0.78083 0.82422 0.92675 0.0
La241 La 0.80405 0.8608 0.94907 0.0
C242 C 0.76467 0.79353 0.89507 0.0
C243 C 0.76635 0.77801 0.90779 0.0
C244 C 0.76127 0.77083 0.94837 0.0
C245 C 0.76644 0.759 0.96381 0.0
C246 C 0.77692 0.75415 0.93922 0.0
C247 C 0.78132 0.7607 0.89791 0.0
C248 C 0.77603 0.77249 0.88229 0.0
C249 C 0.77431 0.82982 1.00595 0.0
C250 C 0.81603 0.83356 0.97713 0.0
C251 C 0.81993 0.89359 0.972 0.0
C252 C 0.81939 0.91054 0.98095 0.0
C253 C 0.82418 0.92371 0.94955 0.0
C254 C 0.82665 0.94078 0.95896 0.0
C255 C 0.82453 0.94548 1.00025 0.0
C256 C 0.8193 0.93212 0.03148 0.0
C257 C 0.8169 0.91504 1.02206 0.0
C258 C 0.81634 0.84923 0.8841 0.0
C259 C 0.76772 0.85128 0.90153 0.0
O260 O 0.75717 0.79926 0.92198 0.0
O261 O 0.77931 0.80668 0.87942 0.0
O262 O 0.77683 0.81705 0.9929 0.0
O263 O 0.77784 0.84059 0.975 0.0
O264 O 0.80436 0.82295 0.9487 0.0
O265 O 0.81605 0.84837 0.9886 0.0
O266 O 0.81847 0.88815 0.93304 0.0
O267 O 0.8126 0.88004 0.99821 0.0
O268 O 0.82599 0.86014 0.91351 0.0
O269 O 0.80045 0.84591 0.8908 0.0
O270 O 0.78262 0.86374 0.91935 0.0
O271 O 0.76427 0.83453 0.8996 0.0
H272 H 0.75385 0.7748 0.96895 0.0
H273 H 0.76222 0.75368 0.9952 0.0
H274 H 0.78924 0.75711 0.87804 0.0
H275 H 0.78025 0.77796 0.85098 0.0
H276 H 0.82656 0.92103 0.91763 0.0
H277 H 0.83038 0.95038 0.93365 0.0
H278 H 0.81769 0.93503 0.06378 0.0
H279 H 0.81363 0.90554 0.04744 0.0
La280 La 0.26665 0.97266 0.9268 0.0
La281 La 0.23007 0.96004 0.95091 0.0
C282 C 0.29537 0.9855 0.88602 0.0
C283 C 0.30872 1.00454 0.88012 0.0
C284 C 0.31711 1.0155 0.91508 0.0
C285 C 0.32835 1.0338 0.91004 0.0
C286 C 0.33139 0.04171 0.86999 0.0
C287 C 0.32262 1.03084 0.83511 0.0
C288 C 0.31147 1.01239 0.84008 0.0
C289 C 0.26149 0.9607 1.00578 0.0
C290 C 0.25839 0.99938 0.9765 0.0
C291 C 0.19744 0.94367 0.97527 0.0
C292 C 0.18025 0.92635 0.98338 0.0
C293 C 0.16684 0.91898 0.95216 0.0
C294 C 0.14959 0.90458 0.96099 0.0
C295 C 0.14496 0.89693 1.00149 0.0
C296 C 0.15853 0.90397 0.03249 0.0
C297 C 0.17581 0.91849 1.02368 0.0
C298 C 0.24172 0.98402 0.88653 0.0
C299 C 0.23893 0.93216 0.90596 0.0
O300 O 0.29359 0.97908 0.92406 0.0
O301 O 0.27987 0.98046 0.86858 0.0
O302 O 0.2747 0.97564 0.99213 0.0
O303 O 0.25025 0.95362 0.97543 0.0
O304 O 0.26864 0.99789 0.94761 0.0
O305 O 0.24354 0.98483 0.9892 0.0
O306 O 0.20266 0.94802 0.93628 0.0
O307 O 0.21116 0.94924 1.0009 0.0
O308 O 0.23038 0.98249 0.91513 0.0
O309 O 0.24489 0.97139 0.8932 0.0
O310 O 0.22641 0.93557 0.9196 0.0
O311 O 0.25602 0.94472 0.90724 0.0
H312 H 0.31502 1.00999 0.94653 0.0
H313 H 0.33519 0.04163 0.93758 0.0
H314 H 0.32458 0.0366 0.80401 0.0
H315 H 0.30476 1.00428 0.81277 0.0
H316 H 0.16947 0.92472 0.92091 0.0
H317 H 0.1398 0.89954 0.93588 0.0
H318 H 0.15565 0.89872 0.0642 0.0
H319 H 0.18551 0.92392 0.04892 0.0
La320 La 0.11852 0.31068 0.92265 0.0
La321 La 0.13001 0.28617 0.94978 0.0
C322 C 0.10191 0.32457 0.88901 0.0
C323 C 0.08403 0.31751 0.87075 0.0
C324 C 0.07976 0.32909 0.84974 0.0
C325 C 0.0622 0.32309 0.83686 0.0
C326 C 1.04859 0.30539 0.8451 0.0
C327 C 1.05334 0.2934 0.86265 0.0
C328 C 0.07095 0.29945 0.87548 0.0
C329 C 0.14019 0.32409 0.98966 0.0
C330 C 0.09123 0.27532 0.97545 0.0
C331 C 0.14625 0.26981 0.97485 0.0
C332 C 0.16365 0.26988 0.98202 0.0
C333 C 0.17041 0.2631 0.95105 0.0
C334 C 0.1849 0.26031 0.95946 0.0
C335 C 0.19325 0.26411 0.99928 0.0
C336 C 0.18678 0.27134 0.02997 0.0
C337 C 0.17219 0.27406 1.02159 0.0
C338 C 0.10685 0.27421 0.88361 0.0
C339 C 0.15775 0.3215 0.89959 0.0
O340 O 0.10251 0.32252 0.92964 0.0
O341 O 0.11262 0.32065 0.86859 0.0
O342 O 0.13916 0.33288 0.95805 0.0
O343 O 0.12827 0.30757 0.98404 0.0
O344 O 0.09341 0.28793 0.94826 0.0
O345 O 0.10514 0.27363 0.9864 0.0
O346 O 0.14113 0.26984 0.93618 0.0
O347 O 0.14148 0.27882 0.99973 0.0
O348 O 0.10768 0.26446 0.91344 0.0
O349 O 0.11976 0.28995 0.89 0.0
O350 O 0.15534 0.30857 0.9257 0.0
O351 O 0.14412 0.32363 0.88913 0.0
H352 H 0.08979 0.343 0.84522 0.0
H353 H 0.05909 0.3328 0.82377 0.0
H354 H 1.04327 0.27965 0.86884 0.0
H355 H 0.07415 0.2902 0.89055 0.0
H356 H 0.16413 0.2594 0.92039 0.0
H357 H 0.18948 0.25501 0.93455 0.0
H358 H 0.19254 0.27431 0.0612 0.0
H359 H 0.16724 0.27892 0.04668 0.0
La360 La 0.84403 0.76205 0.6284 0.0
La361 La 0.88022 0.78542 0.60384 0.0
C362 C 0.8159 0.74505 0.67171 0.0
C363 C 0.80445 0.75091 0.69205 0.0
C364 C 0.78934 0.73871 0.71458 0.0
C365 C 0.77736 0.7438 0.72993 0.0
C366 C 0.78038 0.76125 0.72308 0.0
C367 C 0.79639 0.77382 0.70344 0.0
C368 C 0.80816 0.7686 0.68751 0.0
C369 C 0.84863 0.75471 0.54916 0.0
C370 C 0.85211 0.79689 0.57982 0.0
C371 C 0.9126 0.80186 0.57784 0.0
C372 C 0.92985 0.80253 0.56621 0.0
C373 C 0.93458 0.78998 0.58043 0.0
C374 C 0.95181 0.79236 0.57209 0.0
C375 C 0.96491 0.80751 0.54996 0.0
C376 C 0.95989 0.81982 0.53541 0.0
C377 C 0.94271 0.81733 0.54328 0.0
C378 C 0.86931 0.79849 0.66861 0.0
C379 C 0.87143 0.74867 0.64751 0.0
O380 O 0.81607 0.74552 0.63071 0.0
O381 O 0.83201 0.75192 0.68703 0.0
O382 O 0.83541 0.75625 0.56354 0.0
O383 O 0.86001 0.75888 0.57913 0.0
O384 O 0.84239 0.78571 0.61002 0.0
O385 O 0.86653 0.79662 0.56586 0.0
O386 O 0.90783 0.79975 0.6174 0.0
O387 O 0.89867 0.79423 0.55276 0.0
O388 O 0.88022 0.80784 0.6389 0.0
O389 O 0.86585 0.78258 0.66235 0.0
O390 O 0.88401 0.76481 0.63562 0.0
O391 O 0.85434 0.74404 0.64443 0.0
H392 H 0.78634 0.72502 0.71853 0.0
H393 H 0.76509 0.7336 0.74428 0.0
H394 H 0.79931 0.7874 0.69814 0.0
H395 H 0.81985 0.77825 0.67036 0.0
H396 H 0.92511 0.77852 0.5986 0.0
H397 H 0.95503 0.78258 0.58412 0.0
H398 H 0.96929 0.83149 0.51774 0.0
H399 H 0.9396 0.82732 0.53213 0.0
La400 La 0.3296 0.09885 0.62786 0.0
La401 La 0.30552 0.11141 0.60589 0.0
C402 C 0.34721 0.08791 0.6693 0.0
C403 C 0.3418 0.07053 0.68838 0.0
C404 C 0.35469 0.06721 0.70596 0.0
C405 C 0.34985 0.05007 0.71997 0.0
C406 C 0.33196 0.03603 0.71699 0.0
C407 C 0.31889 0.03977 0.70171 0.0
C408 C 0.32382 0.05685 0.68713 0.0
C409 C 0.33618 0.11166 0.54924 0.0
C410 C 0.29444 0.07213 0.58003 0.0
C411 C 0.28919 0.12777 0.58202 0.0
C412 C 0.28948 0.14515 0.57366 0.0
C413 C 0.2833 0.15255 0.60449 0.0
C414 C 0.28069 0.16708 0.59533 0.0
C415 C 0.2841 0.17482 0.55487 0.0
C416 C 0.29071 0.16769 0.52427 0.0
C417 C 0.29323 0.15306 0.53341 0.0
C418 C 0.29329 0.08719 0.66988 0.0
C419 C 0.34254 0.1393 0.6491 0.0
O420 O 0.3467 0.08804 0.62831 0.0
O421 O 0.33994 0.09659 0.68579 0.0
O422 O 0.33542 0.09706 0.562 0.0
O423 O 0.33204 0.11822 0.58056 0.0
O424 O 0.30598 0.07357 0.60932 0.0
O425 O 0.29433 0.08675 0.56712 0.0
O426 O 0.29022 0.12352 0.621 0.0
O427 O 0.29717 0.12207 0.55622 0.0
O428 O 0.28355 0.08865 0.64098 0.0
O429 O 0.30913 0.09981 0.66326 0.0
O430 O 0.32621 0.13561 0.63826 0.0
O431 O 0.34737 0.12704 0.64482 0.0
H432 H 0.36862 0.07765 0.70717 0.0
H433 H 0.36036 0.04765 0.73073 0.0
H434 H 0.30501 1.02931 0.69922 0.0
H435 H 0.31369 0.05922 0.67353 0.0
H436 H 0.27993 0.14676 0.63567 0.0
H437 H 0.27587 0.17217 0.62016 0.0
H438 H 0.29335 0.17297 0.49258 0.0
H439 H 0.29762 0.14761 0.50843 0.0
La440 La 0.9918 0.24724 0.62794 0.0
La441 La 0.97912 0.21095 0.60352 0.0
C442 C 1.00365 0.27583 0.66961 0.0
C443 C 1.02207 0.28845 0.68256 0.0
C444 C 1.0269 0.30592 0.69396 0.0
C445 C 1.04497 0.31886 0.69784 0.0
C446 C 0.05841 0.31446 0.68998 0.0
C447 C 1.05341 0.29655 0.68246 0.0
C448 C 1.03537 0.28367 0.67857 0.0
C449 C 0.97974 0.2423 0.54887 0.0
C450 C 1.01849 0.23908 0.57828 0.0
C451 C 0.96257 0.17843 0.5784 0.0
C452 C 0.94513 0.16136 0.56988 0.0
C453 C 0.93743 0.14789 0.60087 0.0
C454 C 0.9229 0.13076 0.5916 0.0
C455 C 0.91543 0.1263 0.55086 0.0
C456 C 0.92285 0.13994 0.52008 0.0
C457 C 0.93748 0.15708 0.52934 0.0
C458 C 1.00329 0.22215 0.6678 0.0
C459 C 0.95122 0.21967 0.64823 0.0
O460 O 1.00088 0.27483 0.62914 0.0
O461 O 0.99654 0.26002 0.68655 0.0
O462 O 0.99463 0.25547 0.56274 0.0
O463 O 0.97262 0.23106 0.57913 0.0
O464 O 1.01706 0.24898 0.60812 0.0
O465 O 1.00385 0.2245 0.56496 0.0
O466 O 0.96696 0.18348 0.61746 0.0
O467 O 0.96822 0.19226 0.55317 0.0
O468 O 1.0018 0.21128 0.63805 0.0
O469 O 0.99067 0.22547 0.66183 0.0
O470 O 0.95487 0.20719 0.63595 0.0
O471 O 0.9636 0.23676 0.64559 0.0
H472 H 1.0168 0.30981 0.69721 0.0
H473 H 1.04839 0.33259 0.70325 0.0
H474 H 0.06345 0.29277 0.67646 0.0
H475 H 1.03191 0.27024 0.66982 0.0
H476 H 0.943 0.15039 0.63231 0.0
H477 H 0.91759 0.12095 0.61659 0.0
H478 H 0.91779 0.13721 0.48819 0.0
H479 H 0.94316 0.16682 0.50424 0.0
La480 La 0.97174 0.54332 0.43781 0.0
La481 La 0.99553 0.57968 0.46116 0.0
C482 C 0.95557 0.51073 0.41335 0.0
C483 C 0.95596 0.49369 0.40471 0.0
C484 C 0.9513 0.48066 0.43642 0.0
C485 C 0.94865 0.46351 0.4273 0.0
C486 C 0.95048 0.45859 0.38603 0.0
C487 C 0.95562 0.4718 0.35449 0.0
C488 C 0.9582 0.48897 0.36361 0.0
C489 C 0.95947 0.55491 0.50272 0.0
C490 C 1.00837 0.55213 0.48295 0.0
C491 C 1.01162 0.60894 0.4997 0.0
C492 C 1.006 0.62243 0.50462 0.0
C493 C 1.007 0.63319 0.47047 0.0
C494 C 0.99994 0.64454 0.47368 0.0
C495 C 0.99169 0.64541 0.51104 0.0
C496 C 0.99057 0.63461 0.54519 0.0
C497 C 0.99775 0.62328 0.5421 0.0
C498 C 1.00201 0.5743 0.38199 0.0
C499 C 0.96051 0.57139 0.4121 0.0
O500 O 0.95649 0.51591 0.45239 0.0
O501 O 0.96356 0.52446 0.3878 0.0
O502 O 0.94978 0.54413 0.47313 0.0
O503 O 0.97529 0.55803 0.49603 0.0
O504 O 0.99243 0.53966 0.46951 0.0
O505 O 1.01296 0.56921 0.48121 0.0
O506 O 1.01605 0.60662 0.46187 0.0
O507 O 1.0013 0.59371 0.51811 0.0
O508 O 0.99999 0.58735 0.39549 0.0
O509 O 0.99824 0.56329 0.41261 0.0
O510 O 0.97206 0.58152 0.44134 0.0
O511 O 0.96041 0.55668 0.39927 0.0
H512 H 0.94913 0.48351 0.46837 0.0
H513 H 0.945 0.45402 0.45284 0.0
H514 H 0.95702 0.46871 0.3222 0.0
H515 H 0.96137 0.49836 0.33803 0.0
H516 H 1.01315 0.63282 0.44106 0.0
H517 H 1.00145 0.65306 0.44718 0.0
H518 H 0.98416 0.63498 0.57414 0.0
H519 H 0.99663 0.615 0.56882 0.0
La520 La 0.54677 0.44506 0.43778 0.0
La521 La 0.51033 0.43245 0.46317 0.0
C522 C 0.57914 0.46154 0.41143 0.0
C523 C 0.59611 0.479 0.40246 0.0
C524 C 0.60917 0.48762 0.43405 0.0
C525 C 0.62628 0.50219 0.42468 0.0
C526 C 0.63111 0.50876 0.38327 0.0
C527 C 0.61786 0.50042 0.35183 0.0
C528 C 0.60075 0.48576 0.3612 0.0
C529 C 0.53575 0.4211 0.50222 0.0
C530 C 0.5382 0.47316 0.48182 0.0
C531 C 0.48282 0.42175 0.50827 0.0
C532 C 0.47062 0.40418 0.52699 0.0
C533 C 0.4626 0.38874 0.50198 0.0
C534 C 0.45093 0.37221 0.5198 0.0
C535 C 0.4471 0.37061 0.56322 0.0
C536 C 0.45621 0.38593 0.58866 0.0
C537 C 0.46777 0.40258 0.57063 0.0
C538 C 0.5149 0.44406 0.38392 0.0
C539 C 0.51827 0.40552 0.41417 0.0
O540 O 0.57434 0.45725 0.45066 0.0
O541 O 0.56513 0.45575 0.38665 0.0
O542 O 0.54706 0.42286 0.47328 0.0
O543 O 0.53223 0.43352 0.49581 0.0
O544 O 0.5507 0.46939 0.47025 0.0
O545 O 0.52107 0.46086 0.47873 0.0
O546 O 0.4827 0.42294 0.46731 0.0
O547 O 0.49907 0.42977 0.52321 0.0
O548 O 0.50157 0.42943 0.39849 0.0
O549 O 0.52636 0.45133 0.4138 0.0
O550 O 0.50836 0.40703 0.444 0.0
O551 O 0.53282 0.4201 0.40031 0.0
H552 H 0.60639 0.48277 0.46612 0.0
H553 H 0.63578 0.50823 0.45013 0.0
H554 H 0.6209 0.50477 0.31945 0.0
H555 H 0.59134 0.47934 0.33572 0.0
H556 H 0.46495 0.38945 0.46839 0.0
H557 H 0.4441 0.36093 0.49873 0.0
H558 H 0.45389 0.3852 0.62226 0.0
H559 H 0.47429 0.41426 0.59068 0.0
La560 La 0.64582 0.11816 0.43592 0.0
La561 La 0.65811 0.09474 0.46539 0.0
C562 C 0.62952 0.13416 0.40906 0.0
C563 C 0.61204 0.13383 0.40099 0.0
C564 C 0.60385 0.13865 0.43291 0.0
C565 C 0.58931 0.14135 0.42423 0.0
C566 C 0.58232 0.13941 0.38318 0.0
C567 C 0.5902 0.1341 0.35142 0.0
C568 C 0.60484 0.13149 0.36011 0.0
C569 C 0.66941 0.13136 0.50122 0.0
C570 C 0.6174 0.08192 0.48197 0.0
C571 C 0.66958 0.07963 0.51395 0.0
C572 C 0.68774 0.08582 0.52952 0.0
C573 C 0.69231 0.07355 0.54543 0.0
C574 C 0.7102 0.07896 0.55373 0.0
C575 C 0.72378 0.09671 0.54591 0.0
C576 C 0.71891 0.10929 0.53336 0.0
C577 C 0.70101 0.10385 0.52511 0.0
C578 C 0.64674 0.08636 0.38604 0.0
C579 C 0.68514 0.12845 0.41239 0.0
O580 O 0.63436 0.13425 0.44807 0.0
O581 O 0.6347 0.12529 0.38469 0.0
O582 O 0.66908 0.14051 0.46938 0.0
O583 O 0.65644 0.11569 0.4957 0.0
O584 O 0.62114 0.09789 0.46803 0.0
O585 O 0.6298 0.07718 0.4813 0.0
O586 O 0.66735 0.07652 0.47358 0.0
O587 O 0.66231 0.08887 0.5269 0.0
O588 O 0.66117 0.08759 0.40193 0.0
O589 O 0.63946 0.0912 0.41459 0.0
O590 O 0.68353 0.11761 0.44369 0.0
O591 O 0.67061 0.12837 0.3979 0.0
H592 H 0.60902 0.1409 0.46471 0.0
H593 H 0.58363 0.14511 0.44993 0.0
H594 H 0.58552 0.1326 0.31929 0.0
H595 H 0.61091 0.12819 0.33437 0.0
H596 H 0.6822 0.05961 0.54913 0.0
H597 H 0.71349 0.06885 0.56281 0.0
H598 H 0.72903 0.12304 0.52727 0.0
H599 H 0.69769 0.11355 0.51313 0.0
La600 La 0.89755 0.62061 0.78397 0.0
La601 La 0.9344 0.64418 0.76168 0.0
C602 C 0.8649 0.60485 0.80832 0.0
C603 C 0.84785 0.60526 0.81704 0.0
C604 C 0.83469 0.60039 0.78552 0.0
C605 C 0.81751 0.59776 0.79476 0.0
C606 C 0.81272 0.59983 0.83598 0.0
C607 C 0.82606 0.60514 0.86733 0.0
C608 C 0.84324 0.60769 0.8581 0.0
C609 C 0.90932 0.60799 0.72031 0.0
C610 C 0.90705 0.65734 0.73898 0.0
C611 C 0.96336 0.66046 0.72176 0.0
C612 C 0.97641 0.65463 0.71316 0.0
C613 C 0.98065 0.6459 0.74443 0.0
C614 C 0.99244 0.63969 0.73594 0.0
C615 C 1.00013 0.64183 0.69574 0.0
C616 C 0.99509 0.6498 0.66394 0.0
C617 C 0.98337 0.65618 0.67258 0.0
C618 C 0.92864 0.65076 0.84034 0.0
C619 C 0.92535 0.60893 0.81051 0.0
O620 O 0.87008 0.60579 0.76925 0.0
O621 O 0.87866 0.61267 0.83395 0.0
O622 O 0.89753 0.5983 0.74823 0.0
O623 O 0.91286 0.62391 0.72699 0.0
O624 O 0.89431 0.64133 0.75123 0.0
O625 O 0.92411 0.66186 0.74232 0.0
O626 O 0.96165 0.66384 0.76101 0.0
O627 O 0.94787 0.65082 0.70366 0.0
O628 O 0.94182 0.64879 0.82739 0.0
O629 O 0.91775 0.64703 0.80936 0.0
O630 O 0.93592 0.62059 0.78192 0.0
O631 O 0.91055 0.60891 0.82255 0.0
H632 H 0.83744 0.59805 0.75363 0.0
H633 H 0.80793 0.59397 0.76937 0.0
H634 H 0.82306 0.60671 0.89959 0.0
H635 H 0.85273 0.61101 0.88355 0.0
H636 H 0.97503 0.64404 0.77575 0.0
H637 H 0.99612 0.634 0.76174 0.0
H638 H 1.0006 0.65156 0.63267 0.0
H639 H 0.9798 0.66237 0.64766 0.0
La640 La 0.47119 0.29356 0.78263 0.0
La641 La 0.44767 0.30659 0.75901 0.0
C642 C 0.4878 0.27751 0.8066 0.0
C643 C 0.48868 0.26106 0.81826 0.0
C644 C 0.47516 0.24352 0.8085 0.0
C645 C 0.47745 0.22868 0.81738 0.0
C646 C 0.49346 0.23095 0.83567 0.0
C647 C 0.50679 0.24858 0.84567 0.0
C648 C 0.50441 0.26327 0.83723 0.0
C649 C 0.48337 0.31708 0.71702 0.0
C650 C 0.43488 0.26639 0.73551 0.0
C651 C 0.43131 0.32075 0.72638 0.0
C652 C 0.43247 0.33769 0.73944 0.0
C653 C 0.42674 0.3393 0.77972 0.0
C654 C 0.43166 0.35607 0.79614 0.0
C655 C 0.4425 0.37165 0.77286 0.0
C656 C 0.44741 0.37003 0.73164 0.0
C657 C 0.44239 0.35317 0.71503 0.0
C658 C 0.44119 0.29489 0.83858 0.0
C659 C 0.48277 0.33289 0.80905 0.0
O660 O 0.485 0.27987 0.76729 0.0
O661 O 0.48073 0.28412 0.83251 0.0
O662 O 0.49304 0.31594 0.74656 0.0
O663 O 0.46751 0.30453 0.72387 0.0
O664 O 0.44963 0.26887 0.75439 0.0
O665 O 0.43151 0.2797 0.73208 0.0
O666 O 0.42375 0.30736 0.75278 0.0
O667 O 0.44625 0.32261 0.71151 0.0
O668 O 0.44348 0.31 0.82491 0.0
O669 O 0.44488 0.28758 0.80799 0.0
O670 O 0.47101 0.33154 0.7805 0.0
O671 O 0.48299 0.31828 0.8212 0.0
H672 H 0.46293 0.24129 0.79351 0.0
H673 H 0.46685 0.21544 0.80887 0.0
H674 H 0.51917 0.25109 0.86033 0.0
H675 H 0.51515 0.27657 0.84499 0.0
H676 H 0.41908 0.32768 0.79943 0.0
H677 H 0.42703 0.35679 0.82736 0.0
H678 H 0.45558 0.38177 0.71272 0.0
H679 H 0.44706 0.3523 0.68394 0.0
La680 La 0.79651 0.19413 0.78214 0.0
La681 La 0.78406 0.15795 0.75864 0.0
C682 C 0.81275 0.22699 0.80452 0.0
C683 C 0.83011 0.24419 0.8126 0.0
C684 C 0.83725 0.25773 0.78173 0.0
C685 C 0.85172 0.27494 0.79063 0.0
C686 C 0.85967 0.27939 0.83089 0.0
C687 C 0.85282 0.26568 0.86152 0.0
C688 C 0.83825 0.24846 0.85263 0.0
C689 C 0.77282 0.18223 0.71686 0.0
C690 C 0.82409 0.18554 0.73476 0.0
C691 C 0.76965 0.12732 0.7274 0.0
C692 C 0.75312 0.11177 0.74346 0.0
C693 C 0.75437 0.09877 0.76728 0.0
C694 C 0.74009 0.08695 0.79248 0.0
C695 C 0.72422 0.0878 0.79407 0.0
C696 C 0.72238 0.09977 0.76764 0.0
C697 C 0.73672 0.11169 0.74259 0.0
C698 C 0.79573 0.16325 0.83829 0.0
C699 C 0.75768 0.16623 0.81029 0.0
O700 O 0.80855 0.22139 0.76572 0.0
O701 O 0.80707 0.21355 0.83091 0.0
O702 O 0.77314 0.19223 0.74746 0.0
O703 O 0.78585 0.1796 0.72319 0.0
O704 O 0.82128 0.19766 0.75317 0.0
O705 O 0.81101 0.16875 0.73179 0.0
O706 O 0.78348 0.13342 0.75261 0.0
O707 O 0.76776 0.14026 0.71156 0.0
O708 O 0.78068 0.15035 0.82451 0.0
O709 O 0.80301 0.17424 0.80774 0.0
O710 O 0.75903 0.15602 0.78123 0.0
O711 O 0.77225 0.18116 0.82208 0.0
H712 H 0.83128 0.25522 0.75071 0.0
H713 H 0.85659 0.28481 0.76576 0.0
H714 H 0.85827 0.26841 0.89306 0.0
H715 H 0.83301 0.23865 0.87765 0.0
H716 H 0.76679 0.09847 0.76847 0.0
H717 H 0.74163 0.07744 0.81164 0.0
H718 H 0.71022 0.10054 0.76795 0.0
H719 H 0.73524 0.12151 0.72455 0.0
La720 La 0.44718 0.15818 0.26062 0.0
La721 La 0.47135 0.19481 0.28432 0.0
C722 C 0.42958 0.13031 0.21723 0.0
C723 C 0.43467 0.11837 0.19592 0.0
C724 C 0.44435 0.11171 0.21728 0.0
C725 C 0.44852 0.09989 0.19734 0.0
C726 C 0.44322 0.09454 0.15545 0.0
C727 C 0.43491 0.10248 0.13307 0.0
C728 C 0.43056 0.1142 0.15327 0.0
C729 C 0.43992 0.16386 0.33942 0.0
C730 C 0.48235 0.16622 0.30811 0.0
C731 C 0.48722 0.2272 0.31028 0.0
C732 C 0.4866 0.2441 0.31933 0.0
C733 C 0.49102 0.25719 0.28786 0.0
C734 C 0.49339 0.27422 0.29731 0.0
C735 C 0.49151 0.27897 0.33873 0.0
C736 C 0.48663 0.2657 0.37006 0.0
C737 C 0.48434 0.24867 0.36059 0.0
C738 C 0.48384 0.18319 0.21998 0.0
C739 C 0.43467 0.18617 0.24001 0.0
O740 O 0.42989 0.13041 0.25832 0.0
O741 O 0.43677 0.14643 0.20185 0.0
O742 O 0.44103 0.15027 0.32602 0.0
O743 O 0.44461 0.17484 0.30846 0.0
O744 O 0.47071 0.15622 0.27881 0.0
O745 O 0.48252 0.18091 0.32171 0.0
O746 O 0.48662 0.22233 0.27106 0.0
O747 O 0.47914 0.21325 0.33522 0.0
O748 O 0.49361 0.19479 0.24818 0.0
O749 O 0.46795 0.17978 0.22697 0.0
O750 O 0.45099 0.19867 0.25116 0.0
O751 O 0.42971 0.16906 0.24413 0.0
H752 H 0.44825 0.11519 0.24983 0.0
H753 H 0.45478 0.09404 0.216 0.0
H754 H 0.43097 0.09897 0.10056 0.0
H755 H 0.4236 0.11968 0.13586 0.0
H756 H 0.4932 0.25448 0.25579 0.0
H757 H 0.49684 0.28373 0.27192 0.0
H758 H 0.48521 0.26866 0.40245 0.0
H759 H 0.48135 0.23924 0.38601 0.0
La760 La 0.93222 0.30574 0.25914 0.0
La761 La 0.8959 0.29307 0.28288 0.0
C762 C 0.96058 0.31673 0.21675 0.0
C763 C 0.97229 0.33409 0.19711 0.0
C764 C 0.98764 0.33702 0.17554 0.0
C765 C 0.99987 0.35414 0.16115 0.0
C766 C 0.99686 0.36858 0.16802 0.0
C767 C 0.98066 0.36515 0.18664 0.0
C768 C 0.96862 0.34811 0.2016 0.0
C769 C 0.92729 0.29389 0.33835 0.0
C770 C 0.92394 0.33253 0.30732 0.0
C771 C 0.86335 0.27629 0.30829 0.0
C772 C 0.84643 0.25869 0.31685 0.0
C773 C 0.83364 0.24987 0.28483 0.0
C774 C 0.81654 0.23518 0.29376 0.0
C775 C 0.81141 0.22867 0.33515 0.0
C776 C 0.8244 0.23721 0.36704 0.0
C777 C 0.84151 0.25198 0.35811 0.0
C778 C 0.90713 0.31707 0.21824 0.0
C779 C 0.90479 0.26527 0.23882 0.0
O780 O 0.96016 0.3168 0.25774 0.0
O781 O 0.94455 0.30776 0.20086 0.0
O782 O 0.94052 0.30864 0.32423 0.0
O783 O 0.91604 0.28666 0.30809 0.0
O784 O 0.93381 0.33103 0.27748 0.0
O785 O 0.90939 0.31793 0.32093 0.0
O786 O 0.86835 0.28076 0.26924 0.0
O787 O 0.87725 0.28208 0.33339 0.0
O788 O 0.89611 0.31559 0.24771 0.0
O789 O 0.91053 0.30456 0.2247 0.0
O790 O 0.89223 0.26907 0.24952 0.0
O791 O 0.92188 0.27745 0.24328 0.0
H792 H 0.99061 0.3263 0.17168 0.0
H793 H 1.01228 0.35622 0.14757 0.0
H794 H 0.97776 0.37585 0.19191 0.0
H795 H 0.95676 0.34604 0.21804 0.0
H796 H 0.83662 0.25464 0.25272 0.0
H797 H 0.80726 0.22899 0.26796 0.0
H798 H 0.82115 0.23293 0.39942 0.0
H799 H 0.85069 0.25854 0.3839 0.0
La800 La 0.78462 0.64339 0.26098 0.0
La801 La 0.79745 0.61985 0.28365 0.0
C802 C 0.77319 0.66078 0.22035 0.0
C803 C 0.75541 0.65515 0.20307 0.0
C804 C 0.75163 0.6678 0.18602 0.0
C805 C 0.73412 0.66279 0.17453 0.0
C806 C 0.72015 0.64499 0.17955 0.0
C807 C 0.72429 0.63214 0.19413 0.0
C808 C 0.74175 0.63723 0.20619 0.0
C809 C 0.79677 0.65023 0.34001 0.0
C810 C 0.75794 0.60819 0.3086 0.0
C811 C 0.81405 0.60384 0.30821 0.0
C812 C 0.83153 0.6043 0.31704 0.0
C813 C 0.83973 0.5992 0.28575 0.0
C814 C 0.85431 0.59667 0.29511 0.0
C815 C 0.86133 0.59907 0.33623 0.0
C816 C 0.85341 0.60463 0.36734 0.0
C817 C 0.83873 0.60708 0.35798 0.0
C818 C 0.77348 0.60727 0.21884 0.0
C819 C 0.82532 0.65676 0.24061 0.0
O820 O 0.77404 0.66067 0.26126 0.0
O821 O 0.78164 0.6534 0.20323 0.0
O822 O 0.78181 0.64846 0.32646 0.0
O823 O 0.80389 0.64628 0.30941 0.0
O824 O 0.75934 0.61958 0.27902 0.0
O825 O 0.77264 0.60837 0.322 0.0
O826 O 0.80991 0.60484 0.26913 0.0
O827 O 0.80811 0.61168 0.33374 0.0
O828 O 0.77501 0.59769 0.24803 0.0
O829 O 0.78594 0.62316 0.22562 0.0
O830 O 0.82173 0.64053 0.2517 0.0
O831 O 0.81288 0.66139 0.24431 0.0
H832 H 0.76202 0.68169 0.18349 0.0
H833 H 0.73138 0.67316 0.16435 0.0
H834 H 0.71388 0.61834 0.19826 0.0
H835 H 0.74443 0.62729 0.21944 0.0
H836 H 0.83451 0.5966 0.25397 0.0
H837 H 0.86002 0.59269 0.26989 0.0
H838 H 0.8581 0.60647 0.39951 0.0
H839 H 0.83265 0.61061 0.38327 0.0
La840 La 0.51017 0.09546 0.96102 0.0
La841 La 0.54658 0.11878 0.93807 0.0
C842 C 0.47964 0.07942 0.99387 0.0
C843 C 0.46417 0.08152 0.98249 0.0
C844 C 0.45435 0.07351 0.94582 0.0
C845 C 0.44262 0.07868 0.92961 0.0
C846 C 0.4404 0.09197 0.94963 0.0
C847 C 0.44935 0.0992 0.98774 0.0
C848 C 0.46108 0.09398 1.0041 0.0
C849 C 0.51548 0.08883 0.88175 0.0
C850 C 0.51904 0.13036 0.90989 0.0
C851 C 0.5794 0.13489 0.91514 0.0
C852 C 0.59645 0.13445 0.90694 0.0
C853 C 0.60967 0.13983 0.93847 0.0
C854 C 0.62684 0.14241 0.92964 0.0
C855 C 0.63157 0.13978 0.88885 0.0
C856 C 0.61816 0.13391 0.85753 0.0
C857 C 0.60097 0.13141 0.86634 0.0
C858 C 0.53503 0.13116 1.00282 0.0
C859 C 0.53763 0.08257 0.98487 0.0
O860 O 0.48499 0.07206 0.96568 0.0
O861 O 0.49314 0.09366 1.01004 0.0
O862 O 0.50268 0.09127 0.89509 0.0
O863 O 0.52644 0.0925 0.91242 0.0
O864 O 0.50848 0.11871 0.93843 0.0
O865 O 0.53395 0.13051 0.89851 0.0
O866 O 0.57392 0.13364 0.95402 0.0
O867 O 0.56585 0.12724 0.88892 0.0
O868 O 0.54574 0.14068 0.97298 0.0
O869 O 0.53186 0.11531 0.99665 0.0
O870 O 0.54997 0.09768 0.96768 0.0
O871 O 0.52075 0.07882 0.98675 0.0
H872 H 0.45625 0.06376 0.92855 0.0
H873 H 0.43535 0.07229 0.9011 0.0
H874 H 0.44773 0.10928 1.00422 0.0
H875 H 0.46841 0.10035 0.03258 0.0
H876 H 0.60695 0.14263 0.96998 0.0
H877 H 0.63649 0.14665 0.95499 0.0
H878 H 0.62113 0.13187 0.82559 0.0
H879 H 0.59141 0.12764 0.84089 0.0
La880 La 0.99488 0.43127 0.95898 0.0
La881 La 0.97152 0.44457 0.93761 0.0
C882 C 1.01155 0.41682 0.98849 0.0
C883 C 1.01003 0.3998 0.97448 0.0
C884 C 1.01685 0.39865 0.9352 0.0
C885 C 1.01216 0.38204 0.91796 0.0
C886 C 1.00049 0.36617 0.93942 0.0
C887 C 0.99433 0.36733 0.97958 0.0
C888 C 0.99912 0.38399 0.99701 0.0
C889 C 1.00099 0.44333 0.8797 0.0
C890 C 0.95948 0.40527 0.91003 0.0
C891 C 0.95498 0.46081 0.91455 0.0
C892 C 0.95414 0.47728 0.9031 0.0
C893 C 0.96825 0.49485 0.91 0.0
C894 C 0.96613 0.50978 0.90098 0.0
C895 C 0.94974 0.50759 0.88539 0.0
C896 C 0.9358 0.48993 0.8783 0.0
C897 C 0.93799 0.47513 0.88689 0.0
C898 C 0.95933 0.4207 1.00258 0.0
C899 C 1.00798 0.4714 0.9844 0.0
O900 O 1.01875 0.43022 0.96209 0.0
O901 O 0.99698 0.41518 1.00522 0.0
O902 O 0.99836 0.42799 0.89254 0.0
O903 O 0.99763 0.45058 0.91091 0.0
O904 O 0.97131 0.40644 0.93809 0.0
O905 O 0.95934 0.41999 0.89852 0.0
O906 O 0.95795 0.45843 0.95372 0.0
O907 O 0.96189 0.45415 0.8883 0.0
O908 O 0.94967 0.42224 0.97366 0.0
O909 O 0.97526 0.43316 0.99575 0.0
O910 O 0.99314 0.46905 0.96633 0.0
O911 O 1.01133 0.45804 0.98667 0.0
H912 H 1.02531 0.41053 0.91696 0.0
H913 H 1.01768 0.38165 0.88761 0.0
H914 H 0.98542 0.35537 0.99707 0.0
H915 H 0.99361 0.38446 1.02731 0.0
H916 H 0.98084 0.49703 0.92279 0.0
H917 H 0.97721 0.52305 0.90722 0.0
H918 H 0.92309 0.48745 0.86573 0.0
H919 H 0.92681 0.46182 0.88132 0.0
La920 La 0.6592 0.58049 0.96039 0.0
La921 La 0.6463 0.5442 0.93695 0.0
C922 C 0.67111 0.60924 1.00137 0.0
C923 C 0.68927 0.62138 1.01664 0.0
C924 C 0.69388 0.63846 0.03079 0.0
C925 C 0.71174 0.65086 0.03956 0.0
C926 C 0.72521 0.64628 0.0347 0.0
C927 C 0.72032 0.62877 1.02297 0.0
C928 C 0.7025 0.61647 1.0137 0.0
C929 C 0.64675 0.5754 0.88164 0.0
C930 C 0.68571 0.57201 0.91136 0.0
C931 C 0.62953 0.5116 0.91229 0.0
C932 C 0.61208 0.49446 0.9043 0.0
C933 C 0.60455 0.48113 0.93565 0.0
C934 C 0.59006 0.46392 0.92688 0.0
C935 C 0.58246 0.45921 0.8863 0.0
C936 C 0.58968 0.47271 0.85517 0.0
C937 C 0.60428 0.48994 0.86392 0.0
C938 C 0.67051 0.55541 1.00118 0.0
C939 C 0.61872 0.55322 0.98195 0.0
O940 O 0.66936 0.60827 0.96059 0.0
O941 O 0.66309 0.59344 1.01854 0.0
O942 O 0.66178 0.58847 0.89505 0.0
O943 O 0.63974 0.56425 0.91213 0.0
O944 O 0.68438 0.58196 0.94117 0.0
O945 O 0.67098 0.55749 0.89814 0.0
O946 O 0.63415 0.51676 0.95119 0.0
O947 O 0.63504 0.52536 0.88691 0.0
O948 O 0.66894 0.54443 0.97159 0.0
O949 O 0.65799 0.55885 0.99506 0.0
O950 O 0.62233 0.54064 0.97034 0.0
O951 O 0.63105 0.57028 0.97809 0.0
H952 H 0.68385 0.64249 0.03302 0.0
H953 H 0.71512 0.6644 0.0474 0.0
H954 H 0.73039 0.62489 1.01874 0.0
H955 H 0.69921 0.60337 1.00248 0.0
H956 H 0.61023 0.4838 0.96699 0.0
H957 H 0.5849 0.45422 0.95213 0.0
H958 H 0.5845 0.46979 0.82339 0.0
H959 H 0.60984 0.49956 0.83856 0.0
La960 La 0.63931 0.87821 0.7685 0.0
La961 La 0.66325 0.91465 0.79267 0.0
C962 C 0.62318 0.84571 0.74336 0.0
C963 C 0.62337 0.82852 0.73522 0.0
C964 C 0.61728 0.81507 0.76631 0.0
C965 C 0.61454 0.79787 0.75742 0.0
C966 C 0.61774 0.79331 0.71697 0.0
C967 C 0.62427 0.80692 0.68608 0.0
C968 C 0.62691 0.82414 0.69495 0.0
C969 C 0.6266 0.88968 0.83268 0.0
C970 C 0.676 0.8868 0.81249 0.0
C971 C 0.6803 0.94251 0.83631 0.0
C972 C 0.67497 0.95498 0.8536 0.0
C973 C 0.66709 0.96228 0.82771 0.0
C974 C 0.66228 0.97424 0.84409 0.0
C975 C 0.66503 0.97906 0.88695 0.0
C976 C 0.67167 0.97063 0.91342 0.0
C977 C 0.67672 0.95879 0.89679 0.0
C978 C 0.67023 0.90965 0.71369 0.0
C979 C 0.6283 0.90663 0.74385 0.0
O980 O 0.62377 0.85079 0.78237 0.0
O981 O 0.63153 0.85951 0.71812 0.0
O982 O 0.61696 0.8783 0.804 0.0
O983 O 0.64251 0.89306 0.82619 0.0
O984 O 0.65972 0.87432 0.8011 0.0
O985 O 0.68085 0.9039 0.80896 0.0
O986 O 0.68167 0.94218 0.79544 0.0
O987 O 0.67191 0.92645 0.85218 0.0
O988 O 0.66877 0.92297 0.72767 0.0
O989 O 0.666 0.89834 0.74391 0.0
O990 O 0.63978 0.91665 0.77344 0.0
O991 O 0.62828 0.89201 0.73047 0.0
H992 H 0.61406 0.81764 0.79753 0.0
H993 H 0.60979 0.78807 0.78247 0.0
H994 H 0.62676 0.80412 0.65439 0.0
H995 H 0.63122 0.83387 0.66978 0.0
H996 H 0.66503 0.95914 0.79447 0.0
H997 H 0.65746 0.98049 0.82226 0.0
H998 H 0.67363 0.97369 0.94668 0.0
H999 H 0.68223 0.95282 0.91756 0.0
La1000 La 0.21349 0.77781 0.77273 0.0
La1001 La 0.17686 0.76459 0.79501 0.0
C1002 C 0.24618 0.79396 0.74908 0.0
C1003 C 0.26345 0.81042 0.73716 0.0
C1004 C 0.26888 0.82755 0.75359 0.0
C1005 C 0.28615 0.84219 0.74485 0.0
C1006 C 0.29862 0.84007 0.72008 0.0
C1007 C 0.2929 0.82293 0.70328 0.0
C1008 C 0.27567 0.80845 0.71156 0.0
C1009 C 0.20202 0.75401 0.83774 0.0
C1010 C 0.20401 0.80487 0.8192 0.0
C1011 C 0.14605 0.75011 0.82624 0.0
C1012 C 0.1309 0.73251 0.81411 0.0
C1013 C 0.12221 0.73044 0.77546 0.0
C1014 C 0.11103 0.71345 0.75912 0.0
C1015 C 0.10825 0.69811 0.78097 0.0
C1016 C 0.11608 0.7001 0.82077 0.0
C1017 C 0.12728 0.71715 0.83725 0.0
C1018 C 0.18262 0.77666 0.71578 0.0
C1019 C 0.18602 0.73846 0.74564 0.0
O1020 O 0.24093 0.79176 0.78834 0.0
O1021 O 0.23257 0.78705 0.72299 0.0
O1022 O 0.21314 0.75552 0.80861 0.0
O1023 O 0.19851 0.76644 0.83103 0.0
O1024 O 0.21646 0.80239 0.80124 0.0
O1025 O 0.18727 0.79155 0.82166 0.0
O1026 O 0.15162 0.76285 0.79814 0.0
O1027 O 0.15943 0.74944 0.84344 0.0
O1028 O 0.16985 0.76136 0.72872 0.0
O1029 O 0.19334 0.78388 0.74682 0.0
O1030 O 0.17546 0.73966 0.77398 0.0
O1031 O 0.20081 0.75319 0.73376 0.0
H1032 H 0.25992 0.82956 0.77381 0.0
H1033 H 0.28992 0.85506 0.75865 0.0
H1034 H 0.3018 0.82063 0.68357 0.0
H1035 H 0.27203 0.79546 0.69863 0.0
H1036 H 0.12458 0.74193 0.75685 0.0
H1037 H 0.1046 0.71236 0.72913 0.0
H1038 H 0.11398 0.68852 0.8386 0.0
H1039 H 0.1338 0.71834 0.86716 0.0
La1040 La 0.31293 0.45156 0.77083 0.0
La1041 La 0.32564 0.42812 0.7963 0.0
C1042 C 0.29635 0.4675 0.74558 0.0
C1043 C 0.27887 0.46714 0.73745 0.0
C1044 C 0.27084 0.4722 0.76924 0.0
C1045 C 0.2563 0.47489 0.76053 0.0
C1046 C 0.24915 0.47268 0.7196 0.0
C1047 C 0.25687 0.46713 0.68798 0.0
C1048 C 0.27152 0.46453 0.69668 0.0
C1049 C 0.33686 0.46464 0.83551 0.0
C1050 C 0.28491 0.41492 0.81524 0.0
C1051 C 0.33716 0.41153 0.83966 0.0
C1052 C 0.35524 0.41728 0.85507 0.0
C1053 C 0.35962 0.4046 0.86895 0.0
C1054 C 0.37742 0.40975 0.87765 0.0
C1055 C 0.39106 0.42769 0.87284 0.0
C1056 C 0.38638 0.44055 0.86159 0.0
C1057 C 0.36861 0.43534 0.85253 0.0
C1058 C 0.31376 0.42069 0.71715 0.0
C1059 C 0.35239 0.46275 0.74634 0.0
O1060 O 0.30088 0.46699 0.78459 0.0
O1061 O 0.3019 0.45921 0.72038 0.0
O1062 O 0.33558 0.47393 0.80522 0.0
O1063 O 0.32427 0.44873 0.82963 0.0
O1064 O 0.28851 0.431 0.80271 0.0
O1065 O 0.29739 0.4103 0.81314 0.0
O1066 O 0.33528 0.41006 0.79892 0.0
O1067 O 0.32959 0.42001 0.8556 0.0
O1068 O 0.32861 0.42241 0.73144 0.0
O1069 O 0.30653 0.42489 0.74707 0.0
O1070 O 0.35094 0.45158 0.77662 0.0
O1071 O 0.33772 0.46256 0.73251 0.0
H1072 H 0.27615 0.47467 0.80092 0.0
H1073 H 0.25074 0.47886 0.78611 0.0
H1074 H 0.25205 0.46541 0.65594 0.0
H1075 H 0.27747 0.46104 0.67103 0.0
H1076 H 0.34945 0.39061 0.871 0.0
H1077 H 0.3806 0.39944 0.88545 0.0
H1078 H 0.39658 0.45444 0.85767 0.0
H1079 H 0.36545 0.44532 0.84174 0.0
La1080 La 0.56339 0.9533 0.11578 0.0
La1081 La 0.59988 0.97714 0.09472 0.0
C1082 C 0.53046 0.93669 0.13785 0.0
C1083 C 0.51331 0.93688 0.14653 0.0
C1084 C 0.49971 0.93071 0.11578 0.0
C1085 C 0.48253 0.92801 0.1251 0.0
C1086 C 0.47818 0.93132 0.16565 0.0
C1087 C 0.49195 0.93793 0.19619 0.0
C1088 C 0.50914 0.94055 0.18689 0.0
C1089 C 0.57547 0.94178 0.05032 0.0
C1090 C 0.57229 0.98979 0.07053 0.0
C1091 C 0.63103 0.99424 0.06593 0.0
C1092 C 0.64643 0.99265 0.08069 0.0
C1093 C 0.65908 1.00571 0.10764 0.0
C1094 C 0.67102 1.0024 0.13004 0.0
C1095 C 0.67065 0.98601 0.12572 0.0
C1096 C 0.65887 0.97343 0.09662 0.0
C1097 C 0.64685 0.9767 0.07431 0.0
C1098 C 0.59375 0.98237 0.17449 0.0
C1099 C 0.59096 0.94166 0.14286 0.0
O1100 O 0.53611 0.93855 0.09899 0.0
O1101 O 0.54389 0.94403 0.16445 0.0
O1102 O 0.56451 0.93188 0.07937 0.0
O1103 O 0.57862 0.95757 0.0575 0.0
O1104 O 0.55997 0.9746 0.08743 0.0
O1105 O 0.58919 0.99361 0.06863 0.0
O1106 O 0.62468 1.00107 0.09301 0.0
O1107 O 0.61821 0.98005 0.04775 0.0
O1108 O 0.60657 0.97997 0.16114 0.0
O1109 O 0.58316 0.97931 0.14336 0.0
O1110 O 0.6015 0.95362 0.11486 0.0
O1111 O 0.57599 0.9413 0.15464 0.0
H1112 H 0.50216 0.9274 0.08453 0.0
H1113 H 0.4726 0.92319 0.10032 0.0
H1114 H 0.48929 0.94051 0.22794 0.0
H1115 H 0.51901 0.94494 0.2118 0.0
H1116 H 0.65912 1.01812 0.11306 0.0
H1117 H 0.68038 1.01258 0.15133 0.0
H1118 H 0.65843 0.96076 0.09238 0.0
H1119 H 0.6373 0.9663 0.05373 0.0
La1120 La 0.13716 0.62605 0.11697 0.0
La1121 La 0.11365 0.63896 0.09363 0.0
C1122 C 0.15314 0.60941 0.14154 0.0
C1123 C 0.15279 0.59198 0.14991 0.0
C1124 C 0.1586 0.58434 0.11882 0.0
C1125 C 0.16121 0.56981 0.12792 0.0
C1126 C 0.15819 0.56229 0.16858 0.0
C1127 C 0.15193 0.56966 0.19947 0.0
C1128 C 0.1494 0.58429 0.19039 0.0
C1129 C 0.15001 0.6501 0.05247 0.0
C1130 C 0.10021 0.59829 0.0736 0.0
C1131 C 0.09645 0.65019 0.05147 0.0
C1132 C 0.10228 0.6675 0.03138 0.0
C1133 C 0.09005 0.6704 1.00893 0.0
C1134 C 0.09513 0.68744 0.99366 0.0
C1135 C 0.11262 0.70185 1.00048 0.0
C1136 C 0.12521 0.69844 1.02014 0.0
C1137 C 0.11999 0.68148 0.036 0.0
C1138 C 0.10664 0.62688 0.17266 0.0
C1139 C 0.14876 0.66544 0.14212 0.0
O1140 O 0.15234 0.61376 0.10253 0.0
O1141 O 0.14508 0.61513 0.16703 0.0
O1142 O 0.15951 0.64854 0.08185 0.0
O1143 O 0.13406 0.63769 0.05896 0.0
O1144 O 0.11648 0.60189 0.08459 0.0
O1145 O 0.09555 0.61069 0.07752 0.0
O1146 O 0.09716 0.65045 0.09244 0.0
O1147 O 0.10318 0.64093 0.03555 0.0
O1148 O 0.1082 0.64168 0.1588 0.0
O1149 O 0.11063 0.61971 0.14222 0.0
O1150 O 0.13752 0.66413 0.11216 0.0
O1151 O 0.14848 0.65072 0.15558 0.0
H1152 H 0.16168 0.58995 0.08743 0.0
H1153 H 0.16575 0.56454 0.10286 0.0
H1154 H 0.14958 0.56455 0.23132 0.0
H1155 H 0.14532 0.58993 0.21556 0.0
H1156 H 0.07634 0.65972 1.00493 0.0
H1157 H 0.08492 0.68951 0.97931 0.0
H1158 H 0.13882 0.70909 1.02539 0.0
H1159 H 0.12966 0.67943 0.05308 0.0
La1160 La 0.46412 0.52771 0.11742 0.0
La1161 La 0.45165 0.49112 0.09393 0.0
C1162 C 0.48058 0.56026 0.14213 0.0
C1163 C 0.49803 0.57736 0.15032 0.0
C1164 C 0.50558 0.59076 0.11917 0.0
C1165 C 0.52014 0.60791 0.12811 0.0
C1166 C 0.52778 0.61244 0.16867 0.0
C1167 C 0.52051 0.59887 0.19961 0.0
C1168 C 0.50584 0.58171 0.19069 0.0
C1169 C 0.44005 0.51591 0.05309 0.0
C1170 C 0.49204 0.51897 0.0726 0.0
C1171 C 0.43947 0.46256 0.05284 0.0
C1172 C 0.42065 0.44942 0.04351 0.0
C1173 C 0.40814 0.44169 0.07621 0.0
C1174 C 0.39013 0.43019 0.06727 0.0
C1175 C 0.38413 0.42629 1.0254 0.0
C1176 C 0.39654 0.43466 0.99272 0.0
C1177 C 0.41467 0.44602 1.00167 0.0
C1178 C 0.46345 0.49653 0.17299 0.0
C1179 C 0.42479 0.49933 0.14281 0.0
O1180 O 0.47614 0.55512 0.10314 0.0
O1181 O 0.475 0.5465 0.16756 0.0
O1182 O 0.44166 0.52736 0.08142 0.0
O1183 O 0.45264 0.51266 0.06001 0.0
O1184 O 0.48835 0.53144 0.08489 0.0
O1185 O 0.47977 0.50185 0.07552 0.0
O1186 O 0.4445 0.46403 0.0921 0.0
O1187 O 0.44529 0.47815 0.03534 0.0
O1188 O 0.44857 0.48325 0.1593 0.0
O1189 O 0.47065 0.50766 0.14248 0.0
O1190 O 0.42631 0.48913 0.11392 0.0
O1191 O 0.43931 0.51418 0.15557 0.0
H1192 H 0.49988 0.5882 0.08786 0.0
H1193 H 0.52534 0.61768 0.10302 0.0
H1194 H 0.5257 0.60166 0.23138 0.0
H1195 H 0.50027 0.57201 0.2159 0.0
H1196 H 0.41221 0.44439 0.10885 0.0
H1197 H 0.38109 0.42376 0.09338 0.0
H1198 H 0.39227 0.43216 0.96028 0.0
H1199 H 0.424 0.45228 0.97593 0.0
La1200 La 0.1137 0.49025 0.5955 0.0
La1201 La 0.13739 0.52677 0.61782 0.0
C1202 C 0.09659 0.46061 0.55818 0.0
C1203 C 0.10173 0.44692 0.55225 0.0
C1204 C 0.08854 0.42894 0.54846 0.0
C1205 C 0.09321 0.41564 0.55175 0.0
C1206 C 0.11107 0.42023 0.55958 0.0
C1207 C 0.12441 0.43827 0.5604 0.0
C1208 C 0.11978 0.45153 0.5563 0.0
C1209 C 0.10726 0.49599 0.67442 0.0
C1210 C 0.14898 0.49897 0.64397 0.0
C1211 C 0.15334 0.55944 0.64195 0.0
C1212 C 0.15305 0.57657 0.6504 0.0
C1213 C 0.15911 0.59012 0.61956 0.0
C1214 C 0.16175 0.60727 0.62879 0.0
C1215 C 0.15849 0.61169 0.66936 0.0
C1216 C 0.152 0.59797 0.69999 0.0
C1217 C 0.14945 0.58081 0.69077 0.0
C1218 C 0.15002 0.51507 0.55378 0.0
C1219 C 0.10081 0.51772 0.57259 0.0
O1220 O 0.09361 0.46313 0.59708 0.0
O1221 O 0.10661 0.47572 0.53907 0.0
O1222 O 0.10953 0.48303 0.66144 0.0
O1223 O 0.1109 0.50682 0.64346 0.0
O1224 O 0.1373 0.48869 0.61516 0.0
O1225 O 0.1491 0.51374 0.65647 0.0
O1226 O 0.15246 0.5542 0.60298 0.0
O1227 O 0.14537 0.54573 0.6676 0.0
O1228 O 0.15956 0.52629 0.58284 0.0
O1229 O 0.13407 0.5117 0.56008 0.0
O1230 O 0.11684 0.53028 0.58513 0.0
O1231 O 0.09617 0.50065 0.5755 0.0
H1232 H 0.07457 0.42515 0.54546 0.0
H1233 H 0.08265 0.40177 0.55157 0.0
H1234 H 0.13824 0.44208 0.56645 0.0
H1235 H 0.13021 0.46536 0.55869 0.0
H1236 H 0.16238 0.58766 0.58828 0.0
H1237 H 0.16648 0.61714 0.6039 0.0
H1238 H 0.14947 0.60065 0.73176 0.0
H1239 H 0.14517 0.57101 0.71579 0.0
La1240 La 0.60018 0.64032 0.59733 0.0
La1241 La 0.56336 0.62699 0.61614 0.0
C1242 C 0.63185 0.65477 0.57158 0.0
C1243 C 0.64703 0.67148 0.58824 0.0
C1244 C 0.65713 0.67082 0.62211 0.0
C1245 C 0.66876 0.68636 0.64395 0.0
C1246 C 0.67064 0.70292 0.6323 0.0
C1247 C 0.66131 0.70376 0.59703 0.0
C1248 C 0.64965 0.6882 0.57515 0.0
C1249 C 0.59329 0.62817 0.67644 0.0
C1250 C 0.59021 0.66635 0.64412 0.0
C1251 C 0.53032 0.61002 0.63768 0.0
C1252 C 0.51336 0.59255 0.64679 0.0
C1253 C 0.50027 0.58397 0.61526 0.0
C1254 C 0.48315 0.56939 0.62465 0.0
C1255 C 0.47832 0.56277 0.66605 0.0
C1256 C 0.49161 0.57108 0.69743 0.0
C1257 C 0.50873 0.58574 0.68803 0.0
C1258 C 0.57572 0.65089 0.55125 0.0
C1259 C 0.57343 0.60036 0.57008 0.0
O1260 O 0.62497 0.64106 0.5971 0.0
O1261 O 0.61938 0.65661 0.55295 0.0
O1262 O 0.60593 0.64366 0.66429 0.0
O1263 O 0.58313 0.62089 0.64457 0.0
O1264 O 0.60117 0.66518 0.61698 0.0
O1265 O 0.57525 0.6516 0.65514 0.0
O1266 O 0.53607 0.61373 0.59885 0.0
O1267 O 0.5437 0.61655 0.66448 0.0
O1268 O 0.56418 0.64933 0.57937 0.0
O1269 O 0.57914 0.63844 0.55878 0.0
O1270 O 0.56074 0.60273 0.58685 0.0
O1271 O 0.59022 0.61366 0.56921 0.0
H1272 H 0.65553 0.65819 0.63286 0.0
H1273 H 0.67625 0.68538 0.67016 0.0
H1274 H 0.66262 0.71636 0.58708 0.0
H1275 H 0.6421 0.68922 0.54912 0.0
H1276 H 0.50304 0.58888 0.58323 0.0
H1277 H 0.47364 0.56339 0.59921 0.0
H1278 H 0.4886 0.56671 0.7298 0.0
H1279 H 0.51816 0.59211 0.71351 0.0
La1280 La 0.45012 0.97674 0.59812 0.0
La1281 La 0.46374 0.95354 0.61723 0.0
C1282 C 0.43518 0.99327 0.57121 0.0
C1283 C 0.41818 0.99124 0.58738 0.0
C1284 C 0.41823 1.00082 0.62311 0.0
C1285 C 0.40233 0.99606 0.64436 0.0
C1286 C 0.386 0.98168 0.6303 0.0
C1287 C 0.38576 0.97273 0.59326 0.0
C1288 C 0.40169 0.97748 0.57194 0.0
C1289 C 0.46244 0.9824 0.67708 0.0
C1290 C 0.42447 0.94106 0.64654 0.0
C1291 C 0.48094 0.93772 0.6386 0.0
C1292 C 0.49849 0.93834 0.64758 0.0
C1293 C 0.50681 0.93335 0.61637 0.0
C1294 C 0.5215 0.93099 0.62582 0.0
C1295 C 0.5285 0.93344 0.66698 0.0
C1296 C 0.52044 0.93887 0.69802 0.0
C1297 C 0.50567 0.94117 0.68857 0.0
C1298 C 0.43959 0.9417 0.55276 0.0
C1299 C 0.49018 0.9902 0.5709 0.0
O1300 O 0.44886 1.00046 0.59691 0.0
O1301 O 0.43375 0.97907 0.55296 0.0
O1302 O 0.44692 0.97955 0.66492 0.0
O1303 O 0.46972 0.97941 0.6453 0.0
O1304 O 0.4254 0.95306 0.61936 0.0
O1305 O 0.4393 0.94082 0.65674 0.0
O1306 O 0.47712 0.93965 0.5998 0.0
O1307 O 0.4744 0.94454 0.66544 0.0
O1308 O 0.44121 0.93187 0.5811 0.0
O1309 O 0.45207 0.95756 0.55993 0.0
O1310 O 0.48789 0.97519 0.58762 0.0
O1311 O 0.47681 0.99361 0.57019 0.0
H1312 H 0.43065 1.01154 0.63573 0.0
H1313 H 0.40285 1.00366 0.67198 0.0
H1314 H 0.37334 0.96174 0.58142 0.0
H1315 H 0.40116 0.96982 0.54443 0.0
H1316 H 0.50161 0.93071 0.58457 0.0
H1317 H 0.5273 0.92709 0.60063 0.0
H1318 H 0.5251 0.94074 0.73023 0.0
H1319 H 0.49952 0.94461 0.71383 0.0
La1320 La 0.1772 0.42799 0.29236 0.0
La1321 La 0.21365 0.45174 0.27124 0.0
C1322 C 0.14596 0.41083 0.32073 0.0
C1323 C 0.1304 0.4119 0.30479 0.0
C1324 C 0.12078 0.40166 0.26985 0.0
C1325 C 0.10897 0.40552 0.24861 0.0
C1326 C 0.10646 0.41965 0.26188 0.0
C1327 C 0.11526 0.42922 0.29826 0.0
C1328 C 0.12708 0.42536 0.31959 0.0
C1329 C 0.18319 0.42218 0.21294 0.0
C1330 C 0.18614 0.46335 0.24361 0.0
C1331 C 0.24657 0.46816 0.24897 0.0
C1332 C 0.26359 0.46772 0.24026 0.0
C1333 C 0.27676 0.4727 0.27178 0.0
C1334 C 0.2939 0.47525 0.26265 0.0
C1335 C 0.29866 0.473 0.22154 0.0
C1336 C 0.2853 0.46753 0.1902 0.0
C1337 C 0.26814 0.46506 0.19933 0.0
C1338 C 0.20158 0.46334 0.33664 0.0
C1339 C 0.2048 0.41545 0.3174 0.0
O1340 O 0.15268 0.40377 0.29533 0.0
O1341 O 0.15852 0.4255 0.33784 0.0
O1342 O 0.17037 0.42463 0.22598 0.0
O1343 O 0.19391 0.42565 0.24401 0.0
O1344 O 0.17558 0.45146 0.2717 0.0
O1345 O 0.20109 0.46365 0.232 0.0
O1346 O 0.24095 0.46642 0.28785 0.0
O1347 O 0.23311 0.46088 0.22245 0.0
O1348 O 0.21255 0.47321 0.30756 0.0
O1349 O 0.19847 0.44756 0.32954 0.0
O1350 O 0.21708 0.43048 0.2998 0.0
O1351 O 0.18794 0.41175 0.31964 0.0
H1352 H 0.12291 0.39114 0.25776 0.0
H1353 H 0.10187 0.39748 0.22153 0.0
H1354 H 0.11345 0.44006 0.30948 0.0
H1355 H 0.13425 0.4335 0.34649 0.0
H1356 H 0.27403 0.47519 0.30356 0.0
H1357 H 0.30351 0.47916 0.28803 0.0
H1358 H 0.28828 0.4658 0.15804 0.0
H1359 H 0.25862 0.46161 0.17388 0.0
La1360 La 0.66245 0.76558 0.29153 0.0
La1361 La 0.6388 0.77837 0.27036 0.0
C1362 C 0.6793 0.75137 0.32098 0.0
C1363 C 0.67737 0.73416 0.30709 0.0
C1364 C 0.68559 0.73326 0.26976 0.0
C1365 C 0.68059 0.71679 0.25128 0.0
C1366 C 0.66729 0.70084 0.26969 0.0
C1367 C 0.65977 0.70163 0.30823 0.0
C1368 C 0.66479 0.71813 0.32681 0.0
C1369 C 0.66817 0.77719 0.21201 0.0
C1370 C 0.62705 0.73925 0.2427 0.0
C1371 C 0.62241 0.7949 0.24822 0.0
C1372 C 0.62275 0.81231 0.23974 0.0
C1373 C 0.61709 0.82002 0.27098 0.0
C1374 C 0.61445 0.83454 0.26194 0.0
C1375 C 0.6173 0.84196 0.2212 0.0
C1376 C 0.62344 0.83455 0.19017 0.0
C1377 C 0.62599 0.81993 0.19919 0.0
C1378 C 0.62691 0.75453 0.33537 0.0
C1379 C 0.67529 0.80575 0.31611 0.0
O1380 O 0.68632 0.76452 0.2939 0.0
O1381 O 0.66506 0.75012 0.33862 0.0
O1382 O 0.66561 0.76192 0.22518 0.0
O1383 O 0.66493 0.78462 0.24307 0.0
O1384 O 0.63896 0.74055 0.27075 0.0
O1385 O 0.62678 0.75389 0.23112 0.0
O1386 O 0.6241 0.79096 0.28705 0.0
O1387 O 0.62976 0.78881 0.22165 0.0
O1388 O 0.61716 0.75578 0.3062 0.0
O1389 O 0.64277 0.76719 0.32861 0.0
O1390 O 0.6601 0.80295 0.29922 0.0
O1391 O 0.67905 0.79265 0.31784 0.0
H1392 H 0.69539 0.74529 0.25381 0.0
H1393 H 0.68712 0.71657 0.22235 0.0
H1394 H 0.64966 0.68953 0.32338 0.0
H1395 H 0.65819 0.71838 0.35561 0.0
H1396 H 0.61413 0.81447 0.30243 0.0
H1397 H 0.61002 0.83985 0.2871 0.0
H1398 H 0.62565 0.8396 0.15828 0.0
H1399 H 0.62997 0.81424 0.17393 0.0
La1400 La 0.32514 0.91301 0.2896 0.0
La1401 La 0.31222 0.87643 0.27088 0.0
C1402 C 0.33915 0.94479 0.31371 0.0
C1403 C 0.3551 0.96 0.29451 0.0
C1404 C 0.353 0.97178 0.26794 0.0
C1405 C 0.36703 0.98352 0.24199 0.0
C1406 C 0.38349 0.9838 0.24226 0.0
C1407 C 0.38598 0.9728 0.2706 0.0
C1408 C 0.37192 0.96099 0.29645 0.0
C1409 C 0.31317 0.9061 0.21037 0.0
C1410 C 0.3514 0.90342 0.2425 0.0
C1411 C 0.29558 0.84346 0.24942 0.0
C1412 C 0.27813 0.82652 0.24014 0.0
C1413 C 0.26977 0.81321 0.27125 0.0
C1414 C 0.25517 0.79617 0.26158 0.0
C1415 C 0.24832 0.79165 0.22029 0.0
C1416 C 0.25644 0.80514 0.18934 0.0
C1417 C 0.27111 0.82218 0.19902 0.0
C1418 C 0.33619 0.88894 0.33575 0.0
C1419 C 0.28517 0.88585 0.31688 0.0
O1420 O 0.32489 0.93727 0.28988 0.0
O1421 O 0.34186 0.93287 0.33231 0.0
O1422 O 0.32865 0.9187 0.22266 0.0
O1423 O 0.30584 0.89593 0.24218 0.0
O1424 O 0.35017 0.91424 0.26991 0.0
O1425 O 0.33669 0.88846 0.23148 0.0
O1426 O 0.29914 0.8492 0.28826 0.0
O1427 O 0.30212 0.8568 0.22262 0.0
O1428 O 0.33471 0.8775 0.30754 0.0
O1429 O 0.32361 0.89223 0.32844 0.0
O1430 O 0.28774 0.8734 0.29967 0.0
O1431 O 0.29841 0.90266 0.31828 0.0
H1432 H 0.34023 0.97132 0.26577 0.0
H1433 H 0.36491 0.99226 0.2213 0.0
H1434 H 0.39856 0.97285 0.2717 0.0
H1435 H 0.37405 0.95207 0.31647 0.0
H1436 H 0.27486 0.81577 0.30314 0.0
H1437 H 0.24932 0.78647 0.28669 0.0
H1438 H 0.25189 0.80236 0.15705 0.0
H1439 H 0.27731 0.83179 0.17383 0.0
H1440 H 0.25872 0.0932 0.08784 0.0
H1441 H 0.28657 1.0319 0.95166 0.0
H1442 H 0.30195 0.11445 0.99788 0.0
H1443 H 0.24046 1.00971 0.03326 0.0
H1444 H 0.293 0.06197 0.97084 0.0
H1445 H 0.25263 0.06296 0.07106 0.0
C1446 C 0.26709 0.09166 0.06478 0.0
C1447 C 0.281 0.1068 0.04452 0.0
C1448 C 0.2815 0.05058 0.98478 0.0
C1449 C 0.27382 0.07155 1.02466 0.0
C1450 C 0.2778 1.03325 0.97392 0.0
C1451 C 0.2629 1.01793 0.99085 0.0
C1452 C 0.27031 0.05299 1.01307 0.0
C1453 C 0.25213 1.02093 1.01937 0.0
C1454 C 0.26347 0.07422 0.05498 0.0
C1455 C 0.29098 0.10346 1.01426 0.0
N1456 N 0.25602 0.03797 0.02947 0.0
N1457 N 0.28724 0.08639 1.00548 0.0
H1458 H 0.05889 0.27266 0.95363 0.0
H1459 H 0.99673 0.18135 0.0814 0.0
H1460 H 0.08026 0.24596 0.02819 0.0
H1461 H 0.97553 0.2049 0.99586 0.0
H1462 H 1.02705 0.20553 0.06538 0.0
H1463 H 1.02853 0.24906 0.97165 0.0
C1464 C 0.05731 0.26194 0.97403 0.0
C1465 C 0.07248 0.26154 0.98928 0.0
C1466 C 1.01579 0.20547 0.0501 0.0
C1467 C 1.03716 0.23403 1.01029 0.0
C1468 C 0.99831 0.19163 0.05948 0.0
C1469 C 0.98317 0.19084 0.04026 0.0
C1470 C 1.0185 0.21896 1.02127 0.0
C1471 C 0.98654 0.20461 1.0114 0.0
C1472 C 1.03983 0.24834 0.98426 0.0
C1473 C 0.06919 0.24706 1.01562 0.0
N1474 N 1.00367 0.21799 1.00301 0.0
N1475 N 1.05205 0.23402 1.02518 0.0
H1476 H 0.84463 0.85281 0.03188 0.0
H1477 H 0.88638 0.78785 1.00265 0.0
H1478 H 0.8202 0.80482 0.95675 0.0
H1479 H 0.90945 0.83358 0.08527 0.0
H1480 H 0.86243 0.79419 0.98522 0.0
H1481 H 0.86835 0.84624 0.05197 0.0
C1482 C 0.84411 0.84083 1.01979 0.0
C1483 C 0.83017 0.82939 0.99253 0.0
C1484 C 0.8727 0.80285 1.00724 0.0
C1485 C 0.85768 0.82181 1.01525 0.0
C1486 C 0.88656 0.79928 1.01711 0.0
C1487 C 0.90024 0.81011 0.04569 0.0
C1488 C 0.87231 0.8175 1.0257 0.0
C1489 C 0.89924 0.82459 0.06357 0.0
C1490 C 0.85776 0.8371 0.03123 0.0
C1491 C 0.83051 0.81412 0.97786 0.0
N1492 N 0.88569 0.82785 0.05325 0.0
N1493 N 0.84393 0.81086 0.9892 0.0
H1494 H 1.05111 0.26672 0.60429 0.0
H1495 H 0.11193 0.23917 0.46532 0.0
H1496 H 1.02859 0.2215 0.52017 0.0
H1497 H 0.13349 0.2819 0.55641 0.0
H1498 H 0.08172 0.23324 0.48242 0.0
H1499 H 0.08113 0.27301 0.58478 0.0
C1500 C 1.05238 0.25812 0.58141 0.0
C1501 C 1.037 0.24351 0.56386 0.0
C1502 C 0.09304 0.24393 0.49867 0.0
C1503 C 0.07197 0.25076 0.54125 0.0
C1504 C 0.11045 0.24746 0.48869 0.0
C1505 C 0.12566 0.26118 0.50919 0.0
C1506 C 0.09049 0.25418 0.52942 0.0
C1507 C 0.12243 0.27107 0.53985 0.0
C1508 C 0.06968 0.26174 0.57036 0.0
C1509 C 1.03987 0.23294 0.53455 0.0
N1510 N 0.10538 0.26742 0.54882 0.0
N1511 N 0.05689 0.23675 0.52427 0.0
H1512 H 0.85121 0.88929 0.46441 0.0
H1513 H 0.82519 0.80264 0.60799 0.0
H1514 H 0.80982 0.86949 0.55901 0.0
H1515 H 0.86909 0.8239 0.51991 0.0
H1516 H 0.81887 0.82629 0.58831 0.0
H1517 H 0.85723 0.86515 0.4819 0.0
C1518 C 0.84323 0.87986 0.48864 0.0
C1519 C 0.82986 0.88169 0.51 0.0
C1520 C 0.82986 0.82582 0.57307 0.0
C1521 C 0.83697 0.85368 0.53069 0.0
C1522 C 0.83348 0.81217 0.58422 0.0
C1523 C 0.84772 0.811 0.56558 0.0
C1524 C 0.84045 0.83866 0.54276 0.0
C1525 C 0.85794 0.82406 0.53516 0.0
C1526 C 0.84681 0.86605 0.49884 0.0
C1527 C 0.82037 0.86899 0.54174 0.0
N1528 N 0.85412 0.83723 0.5248 0.0
N1529 N 0.82406 0.85566 0.5509 0.0
H1530 H 0.20115 0.97851 0.46795 0.0
H1531 H 0.28953 0.03962 0.6063 0.0
H1532 H 0.22265 0.9573 0.55917 0.0
H1533 H 0.26659 0.06196 0.52223 0.0
H1534 H 0.26586 1.00962 0.58705 0.0
H1535 H 0.22529 1.00876 0.48482 0.0
C1536 C 0.21096 0.98007 0.4913 0.0
C1537 C 0.20961 0.96496 0.51191 0.0
C1538 C 0.26597 1.02103 0.57258 0.0
C1539 C 0.23762 1.00016 0.53187 0.0
C1540 C 0.27962 0.03831 0.58348 0.0
C1541 C 0.28032 0.05364 0.56585 0.0
C1542 C 0.25265 1.01868 0.54355 0.0
C1543 C 0.2668 0.05071 0.53666 0.0
C1544 C 0.22476 0.9975 0.50115 0.0
C1545 C 0.22278 0.96829 0.54253 0.0
N1546 N 0.25362 1.0337 0.52651 0.0
N1547 N 0.2361 0.98535 0.55136 0.0
H1548 H 0.86897 0.0623 1.01728 0.0
H1549 H 0.80755 0.95604 0.05858 0.0
H1550 H 0.82468 0.03912 0.10423 0.0
H1551 H 0.84988 0.97823 0.96632 0.0
H1552 H 0.8139 0.98632 0.07567 0.0
H1553 H 0.86237 1.03198 0.9979 0.0
C1554 C 0.85779 0.05091 0.03215 0.0
C1555 C 0.84737 0.05352 0.06242 0.0
C1556 C 0.82181 0.9846 0.0516 0.0
C1557 C 0.83978 1.01842 0.04048 0.0
C1558 C 0.81824 0.96719 0.04191 0.0
C1559 C 0.82812 0.96421 1.01075 0.0
C1560 C 0.83549 0.9995 0.03034 0.0
C1561 C 0.84164 0.97954 0.99012 0.0
C1562 C 0.85404 1.03352 1.02109 0.0
C1563 C 0.83312 0.03801 0.08061 0.0
N1564 N 0.84491 0.99634 1.00029 0.0
N1565 N 0.82983 1.02132 0.06952 0.0
H1566 H 0.11253 0.89206 0.97149 0.0
H1567 H 1.05108 0.80045 0.09808 0.0
H1568 H 0.13366 0.86757 0.05445 0.0
H1569 H 1.0288 0.82712 1.02651 0.0
H1570 H 0.08113 0.82406 0.07903 0.0
H1571 H 0.08213 0.86801 0.98783 0.0
C1572 C 0.1109 0.88161 0.99291 0.0
C1573 C 0.12603 0.88207 1.01137 0.0
C1574 C 0.06973 0.8248 0.06728 0.0
C1575 C 0.0907 0.85418 0.03064 0.0
C1576 C 1.05241 0.8112 0.07808 0.0
C1577 C 1.03709 0.81158 0.06397 0.0
C1578 C 0.07212 0.83916 0.04187 0.0
C1579 C 1.04004 0.82608 0.03816 0.0
C1580 C 0.0934 0.86786 1.00245 0.0
C1581 C 0.12265 0.86811 0.03956 0.0
N1582 N 0.0571 0.8392 0.02804 0.0
N1583 N 0.10552 0.85485 0.0481 0.0
H1584 H 0.29046 0.26738 0.09439 0.0
H1585 H 0.19775 0.23611 0.97082 0.0
H1586 H 0.26343 0.21805 1.02448 0.0
H1587 H 0.22332 0.28283 0.0501 0.0
H1588 H 0.22194 0.22991 0.9869 0.0
H1589 H 0.26673 0.27368 0.07539 0.0
C1590 C 0.2796 0.25784 0.07477 0.0
C1591 C 0.27917 0.24208 0.06111 0.0
C1592 C 0.22229 0.24153 1.00077 0.0
C1593 C 0.25143 0.24937 0.03907 0.0
C1594 C 0.20846 0.24521 0.99136 0.0
C1595 C 0.20824 0.26014 1.00888 0.0
C1596 C 0.23631 0.25285 1.02791 0.0
C1597 C 0.22255 0.27107 0.03598 0.0
C1598 C 0.26593 0.26149 0.06399 0.0
C1599 C 0.26453 0.23039 0.03576 0.0
N1600 N 0.23587 0.26725 0.04444 0.0
N1601 N 0.25133 0.23424 1.02568 0.0
H1602 H 0.08175 0.85579 0.52188 0.0
H1603 H 0.97599 0.78318 0.52964 0.0
H1604 H 0.05945 0.80231 0.47278 0.0
H1605 H 0.99723 0.83939 0.55292 0.0
H1606 H 1.00654 0.78915 0.51553 0.0
H1607 H 1.05135 0.84929 0.54018 0.0
C1608 C 0.07055 0.84261 0.51533 0.0
C1609 C 0.07341 0.82962 0.49573 0.0
C1610 C 1.00454 0.80019 0.52377 0.0
C1611 C 1.03817 0.82203 0.51671 0.0
C1612 C 0.98701 0.79676 0.53211 0.0
C1613 C 0.98373 0.81076 0.54237 0.0
C1614 C 1.01919 0.81776 0.52616 0.0
C1615 C 0.99883 0.82812 0.54458 0.0
C1616 C 1.0531 0.83893 0.5256 0.0
C1617 C 0.0581 0.81283 0.48781 0.0
N1618 N 1.01572 0.83107 0.53673 0.0
N1619 N 1.04132 0.80956 0.4983 0.0
H1620 H 0.30274 0.20397 0.50174 0.0
H1621 H 0.23723 0.24501 0.53238 0.0
H1622 H 0.25684 0.18042 0.58406 0.0
H1623 H 0.28562 0.27011 0.45845 0.0
H1624 H 0.24387 0.22129 0.55165 0.0
H1625 H 0.29628 0.22787 0.48505 0.0
C1626 C 0.29124 0.20368 0.51628 0.0
C1627 C 0.2804 0.18989 0.54456 0.0
C1628 C 0.25308 0.23203 0.53135 0.0
C1629 C 0.27288 0.21774 0.52544 0.0
C1630 C 0.2493 0.24567 0.52038 0.0
C1631 C 0.26085 0.2598 0.49372 0.0
C1632 C 0.26851 0.23232 0.51548 0.0
C1633 C 0.27625 0.25965 0.47913 0.0
C1634 C 0.28761 0.2175 0.50685 0.0
C1635 C 0.26583 0.19073 0.56258 0.0
N1636 N 0.27954 0.24624 0.49 0.0
N1637 N 0.26251 0.20425 0.55269 0.0
H1638 H 0.88668 0.11563 0.49606 0.0
H1639 H 0.84501 1.0093 0.5299 0.0
H1640 H 0.9094 0.09353 0.58153 0.0
H1641 H 0.82058 1.03225 0.45253 0.0
H1642 H 0.86863 0.03968 0.54917 0.0
H1643 H 0.86281 0.08526 0.47932 0.0
C1644 C 0.8868 0.10448 0.51129 0.0
C1645 C 0.90035 0.10751 0.54047 0.0
C1646 C 0.85805 0.03808 0.52811 0.0
C1647 C 0.87252 0.07212 0.52126 0.0
C1648 C 0.84447 1.02064 0.51714 0.0
C1649 C 0.83056 1.01795 0.48951 0.0
C1650 C 0.85795 0.05315 0.51128 0.0
C1651 C 0.83087 1.03342 0.47397 0.0
C1652 C 0.87299 0.08702 0.50182 0.0
C1653 C 0.89929 0.09217 0.55932 0.0
N1654 N 0.84424 0.05016 0.48487 0.0
N1655 N 0.88579 0.07533 0.54936 0.0
H1656 H 0.9249 0.4262 0.42077 0.0
H1657 H 0.9513 0.36502 0.28006 0.0
H1658 H 0.96694 0.44736 0.32773 0.0
H1659 H 0.90667 0.34276 0.36613 0.0
H1660 H 0.95773 0.39503 0.29945 0.0
H1661 H 0.91875 0.39596 0.40374 0.0
C1662 C 0.93299 0.42463 0.39698 0.0
C1663 C 0.94658 0.43973 0.37591 0.0
C1664 C 0.94655 0.38364 0.31432 0.0
C1665 C 0.93933 0.40453 0.35577 0.0
C1666 C 0.94286 0.36635 0.30333 0.0
C1667 C 0.92838 0.35104 0.32148 0.0
C1668 C 0.93579 0.38601 0.34396 0.0
C1669 C 0.918 0.35399 0.35127 0.0
C1670 C 0.92934 0.4072 0.38705 0.0
C1671 C 0.95622 0.43638 0.34474 0.0
N1672 N 0.92188 0.371 0.36149 0.0
N1673 N 0.95245 0.41933 0.33584 0.0
H1674 H 0.74816 0.58096 0.36752 0.0
H1675 H 0.64184 0.53609 0.3245 0.0
H1676 H 0.72513 0.60244 0.28124 0.0
H1677 H 0.6638 0.51626 0.41801 0.0
H1678 H 0.67222 0.56002 0.30785 0.0
H1679 H 0.71774 0.5572 0.38633 0.0
C1680 C 0.73679 0.58082 0.35267 0.0
C1681 C 0.73947 0.59397 0.32277 0.0
C1682 C 0.67043 0.55047 0.33209 0.0
C1683 C 0.70425 0.56641 0.34403 0.0
C1684 C 0.65297 0.53662 0.34153 0.0
C1685 C 0.6499 0.52387 0.37292 0.0
C1686 C 0.68528 0.55177 0.35383 0.0
C1687 C 0.66519 0.52575 0.39402 0.0
C1688 C 0.71934 0.56716 0.36341 0.0
C1689 C 0.72397 0.59279 0.30459 0.0
N1690 N 0.68204 0.53927 0.38407 0.0
N1691 N 0.70723 0.57937 0.31533 0.0
H1692 H 0.48711 0.13857 0.28106 0.0
H1693 H 0.57576 0.16515 0.41808 0.0
H1694 H 0.51034 0.18361 0.36569 0.0
H1695 H 0.55424 0.12289 0.32582 0.0
H1696 H 0.55158 0.17135 0.40196 0.0
H1697 H 0.5108 0.13208 0.29954 0.0
C1698 C 0.49709 0.14709 0.30384 0.0
C1699 C 0.49646 0.1617 0.32184 0.0
C1700 C 0.55211 0.1607 0.38524 0.0
C1701 C 0.52416 0.15422 0.34325 0.0
C1702 C 0.56594 0.15702 0.39465 0.0
C1703 C 0.5673 0.14335 0.37353 0.0
C1704 C 0.53923 0.15065 0.35445 0.0
C1705 C 0.55411 0.13367 0.34284 0.0
C1706 C 0.51075 0.14335 0.31429 0.0
C1707 C 0.51006 0.17217 0.35097 0.0
N1708 N 0.54076 0.13745 0.33445 0.0
N1709 N 0.52324 0.16825 0.36067 0.0
H1710 H 0.80186 0.61673 0.89373 0.0
H1711 H 0.69551 0.5544 0.85273 0.0
H1712 H 0.78005 0.5742 0.80211 0.0
H1713 H 0.71847 0.59933 0.93768 0.0
H1714 H 0.72597 0.56114 0.83363 0.0
H1715 H 0.77143 0.61016 0.91041 0.0
C1716 C 0.79075 0.60594 0.87712 0.0
C1717 C 0.79388 0.59608 0.84626 0.0
C1718 C 0.72435 0.56958 0.85632 0.0
C1719 C 0.75842 0.58846 0.86538 0.0
C1720 C 0.70688 0.56574 0.86721 0.0
C1721 C 0.70416 0.5763 0.89685 0.0
C1722 C 0.73942 0.58406 0.87527 0.0
C1723 C 0.71965 0.59077 0.91457 0.0
C1724 C 0.77325 0.60226 0.88657 0.0
C1725 C 0.77861 0.58244 0.82568 0.0
N1726 N 0.73641 0.59413 0.90368 0.0
N1727 N 0.76172 0.57904 0.83563 0.0
H1728 H 0.54048 0.16129 0.86432 0.0
H1729 H 0.46935 0.19655 0.86359 0.0
H1730 H 0.48814 0.13214 0.92097 0.0
H1731 H 0.52463 0.22925 0.82707 0.0
H1732 H 0.47507 0.17194 0.879 0.0
H1733 H 0.53407 0.1851 0.84487 0.0
C1734 C 0.52756 0.15974 0.87233 0.0
C1735 C 0.51488 0.14447 0.89436 0.0
C1736 C 0.48597 0.1845 0.86757 0.0
C1737 C 0.50739 0.17205 0.87208 0.0
C1738 C 0.48267 0.19861 0.85846 0.0
C1739 C 0.4965 0.21529 0.84409 0.0
C1740 C 0.50322 0.18678 0.86191 0.0
C1741 C 0.51352 0.2169 0.83865 0.0
C1742 C 0.52393 0.17346 0.86136 0.0
C1743 C 0.49842 0.14353 0.90403 0.0
N1744 N 0.51634 0.20296 0.8474 0.0
N1745 N 0.4952 0.15699 0.89288 0.0
H1746 H 0.86462 0.31195 0.80183 0.0
H1747 H 0.95628 0.37277 0.92961 0.0
H1748 H 0.88922 0.29047 0.88341 0.0
H1749 H 0.93007 0.3953 0.85716 0.0
H1750 H 0.93262 0.34284 0.91001 0.0
H1751 H 0.88878 0.34221 0.81861 0.0
C1752 C 0.87512 0.31346 0.82303 0.0
C1753 C 0.87463 0.29826 0.84097 0.0
C1754 C 0.93199 0.35427 0.89819 0.0
C1755 C 0.90267 0.33347 0.8608 0.0
C1756 C 0.94563 0.37153 0.9093 0.0
C1757 C 0.9454 0.38689 0.89511 0.0
C1758 C 0.91774 0.35198 0.87238 0.0
C1759 C 0.93101 0.38404 0.86889 0.0
C1760 C 0.88893 0.33089 0.83283 0.0
C1761 C 0.88867 0.30152 0.86892 0.0
N1762 N 0.91785 0.36704 0.85849 0.0
N1763 N 0.90198 0.31858 0.87774 0.0
H1764 H 0.47476 0.28952 0.39784 0.0
H1765 H 0.53543 0.39571 0.35448 0.0
H1766 H 0.51642 0.31172 0.30396 0.0
H1767 H 0.49136 0.37272 0.44203 0.0
H1768 H 0.52887 0.36538 0.33554 0.0
H1769 H 0.48095 0.31978 0.41469 0.0
C1770 C 0.48527 0.30067 0.38076 0.0
C1771 C 0.495 0.29769 0.3492 0.0
C1772 C 0.52057 0.36695 0.35877 0.0
C1773 C 0.50218 0.33296 0.36853 0.0
C1774 C 0.5243 0.38435 0.36958 0.0
C1775 C 0.51394 0.38704 0.39989 0.0
C1776 C 0.50639 0.35188 0.37844 0.0
C1777 C 0.49975 0.37156 0.41836 0.0
C1778 C 0.48874 0.31807 0.39032 0.0
C1779 C 0.50829 0.31302 0.32807 0.0
N1780 N 0.49648 0.35484 0.40752 0.0
N1781 N 0.51147 0.3298 0.33813 0.0
H1782 H 0.71771 0.13404 0.44126 0.0
H1783 H 0.77899 0.22079 0.29827 0.0
H1784 H 0.69554 0.15523 0.35181 0.0
H1785 H 0.8002 0.20154 0.39497 0.0
H1786 H 0.7488 0.19643 0.3148 0.0
H1787 H 0.74781 0.15774 0.42226 0.0
C1788 C 0.71908 0.14354 0.41726 0.0
C1789 C 0.70375 0.14235 0.39809 0.0
C1790 C 0.76004 0.19749 0.33241 0.0
C1791 C 0.73882 0.17007 0.37609 0.0
C1792 C 0.77745 0.21143 0.32277 0.0
C1793 C 0.79256 0.21349 0.345 0.0
C1794 C 0.75737 0.1852 0.36457 0.0
C1795 C 0.78922 0.20086 0.37702 0.0
C1796 C 0.73642 0.15722 0.40653 0.0
C1797 C 0.70676 0.15538 0.36746 0.0
N1798 N 0.77217 0.18739 0.38563 0.0
N1799 N 0.72381 0.16858 0.35752 0.0
H1800 H 0.88936 0.61645 0.39312 0.0
H1801 H 0.93277 0.55347 0.35459 0.0
H1802 H 0.86815 0.57314 0.30357 0.0
H1803 H 0.95555 0.5992 0.43718 0.0
H1804 H 0.9091 0.56023 0.33545 0.0
H1805 H 0.9133 0.61 0.40995 0.0
C1806 C 0.88959 0.60552 0.377 0.0
C1807 C 0.87644 0.59541 0.34666 0.0
C1808 C 0.91932 0.56884 0.35763 0.0
C1809 C 0.90434 0.58791 0.36595 0.0
C1810 C 0.93294 0.565 0.36853 0.0
C1811 C 0.94641 0.57576 0.39754 0.0
C1812 C 0.91895 0.58354 0.37591 0.0
C1813 C 0.94563 0.59046 0.41459 0.0
C1814 C 0.90344 0.6019 0.38653 0.0
C1815 C 0.87794 0.58157 0.3267 0.0
N1816 N 0.93224 0.59383 0.4037 0.0
N1817 N 0.89147 0.57825 0.33672 0.0
H1818 H 0.72521 0.13743 0.78813 0.0
H1819 H 0.66404 0.16642 0.92078 0.0
H1820 H 0.74755 0.18468 0.86573 0.0
H1821 H 0.64269 0.12214 0.83391 0.0
H1822 H 0.69434 0.17248 0.90422 0.0
H1823 H 0.69515 0.13095 0.80769 0.0
C1824 C 0.72388 0.14643 0.80964 0.0
C1825 C 0.73922 0.16166 0.82529 0.0
C1826 C 0.68305 0.16142 0.88879 0.0
C1827 C 0.70421 0.15423 0.84789 0.0
C1828 C 0.6656 0.15782 0.89846 0.0
C1829 C 0.65044 0.14362 0.87896 0.0
C1830 C 0.68567 0.15075 0.85939 0.0
C1831 C 0.65373 0.13333 0.84963 0.0
C1832 C 0.70657 0.14271 0.82069 0.0
C1833 C 0.73629 0.17274 0.85288 0.0
N1834 N 0.67082 0.13705 0.84096 0.0
N1835 N 0.71925 0.16883 0.86318 0.0
H1836 H 0.90439 0.57875 0.85891 0.0
H1837 H 0.97358 0.54115 0.8525 0.0
H1838 H 0.95546 0.60606 0.79584 0.0
H1839 H 0.91939 0.51044 0.89826 0.0
H1840 H 0.96817 0.56592 0.83668 0.0
H1841 H 0.91056 0.55479 0.87841 0.0
C1842 C 0.91698 0.57987 0.84944 0.0
C1843 C 0.92939 0.59468 0.82566 0.0
C1844 C 0.95745 0.55377 0.85023 0.0
C1845 C 0.93659 0.56692 0.84802 0.0
C1846 C 0.96058 0.53957 0.85958 0.0
C1847 C 0.94695 0.52338 0.87668 0.0
C1848 C 0.94059 0.55209 0.85833 0.0
C1849 C 0.93032 0.52237 0.88453 0.0
C1850 C 0.92047 0.56606 0.86048 0.0
C1851 C 0.94542 0.59506 0.81421 0.0
N1852 N 0.92767 0.53639 0.87545 0.0
N1853 N 0.94851 0.58152 0.82543 0.0
H1854 H 0.57704 0.42678 0.91758 0.0
H1855 H 0.48612 0.36532 0.78767 0.0
H1856 H 0.55336 0.44789 0.83211 0.0
H1857 H 0.51191 0.34317 0.86305 0.0
H1858 H 0.50974 0.39537 0.80676 0.0
H1859 H 0.55291 0.39646 0.90123 0.0
C1860 C 0.56675 0.42518 0.89561 0.0
C1861 C 0.56749 0.4403 0.87646 0.0
C1862 C 0.51028 0.384 0.81934 0.0
C1863 C 0.53946 0.405 0.85714 0.0
C1864 C 0.49667 0.36667 0.80852 0.0
C1865 C 0.49678 0.35137 0.82369 0.0
C1866 C 0.52439 0.38642 0.84583 0.0
C1867 C 0.51104 0.35437 0.85056 0.0
C1868 C 0.55295 0.40771 0.88606 0.0
C1869 C 0.55371 0.43691 0.84757 0.0
N1870 N 0.52418 0.37142 0.86065 0.0
N1871 N 0.54039 0.41981 0.83903 0.0
H1872 H 0.63609 0.78239 0.66373 0.0
H1873 H 0.57059 0.67612 0.69682 0.0
H1874 H 0.59054 0.76066 0.7471 0.0
H1875 H 0.61913 0.69902 0.62344 0.0
H1876 H 0.5772 0.70656 0.71531 0.0
H1877 H 0.62953 0.75195 0.64782 0.0
C1878 C 0.62465 0.7713 0.67866 0.0
C1879 C 0.61394 0.77446 0.70701 0.0
C1880 C 0.58644 0.70491 0.69529 0.0
C1881 C 0.6063 0.73898 0.68877 0.0
C1882 C 0.58268 0.68746 0.68478 0.0
C1883 C 0.59427 0.68473 0.6585 0.0
C1884 C 0.6019 0.71997 0.67932 0.0
C1885 C 0.6097 0.7002 0.64382 0.0
C1886 C 0.62096 0.7538 0.66968 0.0
C1887 C 0.59943 0.7592 0.72553 0.0
N1888 N 0.61297 0.71694 0.65422 0.0
N1889 N 0.59605 0.7423 0.71605 0.0
H1890 H 0.33036 0.8393 0.71791 0.0
H1891 H 0.39265 0.94127 0.64342 0.0
H1892 H 0.31052 0.87601 0.70412 0.0
H1893 H 0.41422 0.90821 0.68412 0.0
H1894 H 0.36262 0.91745 0.66312 0.0
H1895 H 0.36069 0.86377 0.70303 0.0
C1896 C 0.33228 0.85246 0.7116 0.0
C1897 C 0.31754 0.85535 0.71218 0.0
C1898 C 0.37389 0.91539 0.66805 0.0
C1899 C 0.3528 0.88383 0.69493 0.0
C1900 C 0.39116 0.92906 0.65679 0.0
C1901 C 0.40625 0.92695 0.66215 0.0
C1902 C 0.37134 0.89913 0.68441 0.0
C1903 C 0.40317 0.91065 0.6796 0.0
C1904 C 0.34974 0.86653 0.70333 0.0
C1905 C 0.32127 0.87297 0.70438 0.0
N1906 N 0.38618 0.89742 0.6897 0.0
N1907 N 0.33836 0.88638 0.69582 0.0
H1908 H 0.15311 0.47061 0.62009 0.0
H1909 H 0.24302 0.49891 0.75315 0.0
H1910 H 0.17765 0.51734 0.69942 0.0
H1911 H 0.22068 0.45562 0.66356 0.0
H1912 H 0.21879 0.50504 0.73704 0.0
H1913 H 0.17686 0.46429 0.63869 0.0
C1914 C 0.1634 0.47955 0.64171 0.0
C1915 C 0.16313 0.49459 0.65815 0.0
C1916 C 0.21916 0.49419 0.72091 0.0
C1917 C 0.1909 0.48729 0.67977 0.0
C1918 C 0.23301 0.49054 0.73031 0.0
C1919 C 0.23414 0.4766 0.70993 0.0
C1920 C 0.20602 0.48381 0.69091 0.0
C1921 C 0.22071 0.46661 0.67999 0.0
C1922 C 0.1771 0.47591 0.65225 0.0
C1923 C 0.1771 0.50557 0.68594 0.0
N1924 N 0.20734 0.47036 0.67162 0.0
N1925 N 0.19032 0.50172 0.69578 0.0
H1926 H 0.36103 0.88403 0.18898 0.0
H1927 H 0.46753 0.94981 0.21898 0.0
H1928 H 0.38412 0.93237 0.26282 0.0
H1929 H 0.44539 0.90401 0.13661 0.0
H1930 H 0.4371 0.94321 0.2359 0.0
H1931 H 0.39145 0.89079 0.16948 0.0
C1932 C 0.37241 0.89611 0.20091 0.0
C1933 C 0.36976 0.90761 0.22762 0.0
C1934 C 0.43886 0.93459 0.21404 0.0
C1935 C 0.40496 0.91541 0.2056 0.0
C1936 C 0.45635 0.93831 0.20448 0.0
C1937 C 0.45937 0.92753 0.17612 0.0
C1938 C 0.42394 0.91985 0.1955 0.0
C1939 C 0.44402 0.91295 0.15815 0.0
C1940 C 0.38986 0.89996 0.18981 0.0
C1941 C 0.38527 0.92303 0.24212 0.0
N1942 N 0.42714 0.90955 0.16818 0.0
N1943 N 0.402 0.92639 0.23113 0.0
H1944 H 0.14003 0.53346 0.22292 0.0
H1945 H 0.20507 0.49203 0.18907 0.0
H1946 H 0.18506 0.55637 0.13796 0.0
H1947 H 0.15734 0.4673 0.26539 0.0
H1948 H 0.19826 0.51565 0.17003 0.0
H1949 H 0.14656 0.50957 0.23935 0.0
C1950 C 0.15135 0.53361 0.20773 0.0
C1951 C 0.16192 0.54722 0.17879 0.0
C1952 C 0.18923 0.50501 0.19081 0.0
C1953 C 0.16952 0.51939 0.19764 0.0
C1954 C 0.1931 0.49143 0.20164 0.0
C1955 C 0.1818 0.47743 0.22891 0.0
C1956 C 0.17395 0.50482 0.20743 0.0
C1957 C 0.16653 0.47765 0.24423 0.0
C1958 C 0.15502 0.5198 0.21703 0.0
C1959 C 0.17627 0.54622 0.15998 0.0
N1960 N 0.16314 0.49103 0.23348 0.0
N1961 N 0.17963 0.53271 0.16977 0.0
H1962 H 0.59818 0.72946 0.18855 0.0
H1963 H 0.55682 0.62319 0.22252 0.0
H1964 H 0.62317 0.70658 0.26425 0.0
H1965 H 0.53358 0.64513 0.13812 0.0
H1966 H 0.58078 0.65359 0.23868 0.0
H1967 H 0.57446 0.69905 0.16974 0.0
C1968 C 0.59882 0.71812 0.20102 0.0
C1969 C 0.61291 0.72085 0.22805 0.0
C1970 C 0.57047 0.6518 0.21654 0.0
C1971 C 0.58542 0.68563 0.20685 0.0
C1972 C 0.55661 0.63432 0.20741 0.0
C1973 C 0.54289 0.63124 0.17871 0.0
C1974 C 0.5708 0.66665 0.19722 0.0
C1975 C 0.54383 0.64654 0.15996 0.0
C1976 C 0.58518 0.70068 0.19032 0.0
C1977 C 0.61273 0.70539 0.24327 0.0
N1978 N 0.55737 0.6634 0.16959 0.0
N1979 N 0.59931 0.68865 0.23266 0.0
H1980 H 0.20507 0.7288 0.69086 0.0
H1981 H 0.14021 0.62236 0.72362 0.0
H1982 H 0.15735 0.70567 0.76722 0.0
H1983 H 0.18542 0.64453 0.63922 0.0
H1984 H 0.14667 0.65271 0.74035 0.0
H1985 H 0.19839 0.69843 0.67155 0.0
C1986 C 0.19313 0.71742 0.70339 0.0
C1987 C 0.1818 0.72007 0.73075 0.0
C1988 C 0.15519 0.65098 0.71809 0.0
C1989 C 0.1741 0.68488 0.70894 0.0
C1990 C 0.15156 0.63352 0.70862 0.0
C1991 C 0.1622 0.6305 0.67974 0.0
C1992 C 0.16972 0.6659 0.69895 0.0
C1993 C 0.17657 0.64587 0.66118 0.0
C1994 C 0.18934 0.7 0.6924 0.0
C1995 C 0.16657 0.70455 0.746 0.0
N1996 N 0.1799 0.66271 0.67113 0.0
N1997 N 0.16326 0.68783 0.73509 0.0
H1998 H 0.4457 0.5553 0.63105 0.0
H1999 H 0.38509 0.46845 0.77429 0.0
H2000 H 0.46737 0.53547 0.7253 0.0
H2001 H 0.36245 0.48975 0.68644 0.0
H2002 H 0.41508 0.49214 0.75459 0.0
H2003 H 0.41554 0.53108 0.64849 0.0
C2004 C 0.44427 0.54584 0.65519 0.0
C2005 C 0.45949 0.5477 0.67646 0.0
C2006 C 0.40361 0.49166 0.73939 0.0
C2007 C 0.42436 0.51959 0.69711 0.0
C2008 C 0.38633 0.478 0.75055 0.0
C2009 C 0.37091 0.47683 0.73199 0.0
C2010 C 0.40586 0.50453 0.70916 0.0
C2011 C 0.37375 0.4899 0.70163 0.0
C2012 C 0.42688 0.53199 0.66536 0.0
C2013 C 0.45629 0.53496 0.70809 0.0
N2014 N 0.39075 0.50309 0.69127 0.0
N2015 N 0.43927 0.52158 0.71723 0.0
H2016 H 0.60107 0.8891 0.68503 0.0
H2017 H 0.55628 0.9508 0.72463 0.0
H2018 H 0.6227 0.93393 0.77024 0.0
H2019 H 0.53592 0.90794 0.63393 0.0
H2020 H 0.58036 0.9446 0.74179 0.0
H2021 H 0.57731 0.89567 0.66569 0.0
C2022 C 0.60097 0.9004 0.69952 0.0
C2023 C 0.61416 0.91097 0.7293 0.0
C2024 C 0.57066 0.93655 0.71805 0.0
C2025 C 0.58656 0.91854 0.7074 0.0
C2026 C 0.55672 0.94003 0.70831 0.0
C2027 C 0.54375 0.92996 0.67756 0.0
C2028 C 0.57186 0.92277 0.69724 0.0
C2029 C 0.54555 0.91634 0.65738 0.0
C2030 C 0.58729 0.90413 0.68849 0.0
C2031 C 0.61302 0.92537 0.74701 0.0
N2032 N 0.55916 0.91316 0.66759 0.0
N2033 N 0.59957 0.92865 0.73596 0.0
H2034 H 0.33116 0.49905 0.25472 0.0
H2035 H 0.39227 0.47126 0.11772 0.0
H2036 H 0.30972 0.4559 0.16472 0.0
H2037 H 0.41455 0.51713 0.19986 0.0
H2038 H 0.36217 0.46482 0.13713 0.0
H2039 H 0.36141 0.50507 0.23776 0.0
C2040 C 0.33268 0.49068 0.23162 0.0
C2041 C 0.31751 0.47682 0.21139 0.0
C2042 C 0.37359 0.47627 0.15113 0.0
C2043 C 0.3527 0.48392 0.19133 0.0
C2044 C 0.39092 0.47996 0.14015 0.0
C2045 C 0.40626 0.4948 0.15717 0.0
C2046 C 0.37123 0.4874 0.17962 0.0
C2047 C 0.40331 0.50552 0.1859 0.0
C2048 C 0.35011 0.49426 0.22173 0.0
C2049 C 0.32077 0.46683 0.18106 0.0
N2050 N 0.38627 0.50163 0.19612 0.0
N2051 N 0.33784 0.47053 0.17217 0.0
H2052 H 0.59039 0.84763 0.25231 0.0
H2053 H 0.6199 0.93806 0.12092 0.0
H2054 H 0.63514 0.8708 0.16655 0.0
H2055 H 0.57215 0.91275 0.19709 0.0
H2056 H 0.62631 0.91443 0.14023 0.0
H2057 H 0.5843 0.87179 0.23554 0.0
C2058 C 0.59909 0.85782 0.23019 0.0
C2059 C 0.61342 0.85694 0.21109 0.0
C2060 C 0.61445 0.914 0.15293 0.0
C2061 C 0.60627 0.88498 0.19126 0.0
C2062 C 0.61075 0.92762 0.14199 0.0
C2063 C 0.5954 0.92763 0.15734 0.0
C2064 C 0.60279 0.90003 0.17972 0.0
C2065 C 0.58417 0.9135 0.18445 0.0
C2066 C 0.59547 0.87163 0.22039 0.0
C2067 C 0.62384 0.87058 0.18198 0.0
N2068 N 0.58806 0.90037 0.19466 0.0
N2069 N 0.6201 0.88391 0.17318 0.0
H2070 H 0.22073 0.7813 0.16218 0.0
H2071 H 0.17582 0.67492 0.20147 0.0
H2072 H 0.24092 0.75876 0.25331 0.0
H2073 H 0.15467 0.69834 0.11542 0.0
H2074 H 0.19958 0.70517 0.22112 0.0
H2075 H 0.19678 0.75109 0.14466 0.0
C2076 C 0.22028 0.77009 0.17851 0.0
C2077 C 0.23316 0.77295 0.20949 0.0
C2078 C 0.1897 0.7037 0.19806 0.0
C2079 C 0.2052 0.73774 0.1894 0.0
C2080 C 0.17603 0.68634 0.18685 0.0
C2081 C 0.16297 0.68382 0.15675 0.0
C2082 C 0.19054 0.71886 0.17903 0.0
C2083 C 0.16425 0.69938 0.13889 0.0
C2084 C 0.20642 0.75271 0.16857 0.0
C2085 C 0.23135 0.75754 0.22969 0.0
N2086 N 0.17767 0.71604 0.15013 0.0
N2087 N 0.2178 0.74079 0.21928 0.0
H2088 H 0.37705 0.24348 0.17959 0.0
H2089 H 0.39975 0.16429 0.21427 0.0
H2090 H 0.33966 0.18784 0.15528 0.0
H2091 H 0.43848 0.21995 0.23374 0.0
H2092 H 0.37764 0.17278 0.19372 0.0
H2093 H 0.39943 0.23531 0.20103 0.0
C2094 C 0.37345 0.22953 0.17896 0.0
C2095 C 0.35627 0.21638 0.16555 0.0
C2096 C 0.39098 0.18318 0.20239 0.0
C2097 C 0.38211 0.20688 0.19005 0.0
C2098 C 0.4037 0.17833 0.21414 0.0
C2099 C 0.42119 0.19137 0.2258 0.0
C2100 C 0.39556 0.20129 0.20226 0.0
C2101 C 0.42527 0.20935 0.22495 0.0
C2102 C 0.38632 0.22488 0.19112 0.0
C2103 C 0.35261 0.19853 0.16534 0.0
N2104 N 0.41263 0.21374 0.21353 0.0
N2105 N 0.36533 0.19437 0.17728 0.0
H2106 H 0.90454 0.16808 0.15723 0.0
H2107 H 0.87088 0.23613 0.22845 0.0
H2108 H 0.84881 0.1526 0.16944 0.0
H2109 H 0.9266 0.25155 0.2164 0.0
H2110 H 0.8626 0.2057 0.20684 0.0
H2111 H 0.9128 0.19848 0.17894 0.0
C2112 C 0.89399 0.17099 0.16459 0.0
C2113 C 0.87588 0.15753 0.16143 0.0
C2114 C 0.87665 0.21572 0.20883 0.0
C2115 C 0.88538 0.19275 0.1864 0.0
C2116 C 0.88142 0.2332 0.22115 0.0
C2117 C 0.89953 0.24665 0.22431 0.0
C2118 C 0.89001 0.21141 0.19946 0.0
C2119 C 0.91247 0.24178 0.21444 0.0
C2120 C 0.89875 0.18846 0.17697 0.0
C2121 C 0.86293 0.16237 0.17139 0.0
N2122 N 0.90749 0.22468 0.20258 0.0
N2123 N 0.86791 0.17947 0.1833 0.0
H2124 H 0.83822 0.69169 0.21507 0.0
H2125 H 0.94049 0.71457 0.1835 0.0
H2126 H 0.85545 0.6532 0.2353 0.0
H2127 H 0.92221 0.75184 0.15733 0.0
H2128 H 0.90987 0.69227 0.20441 0.0
H2129 H 0.86892 0.7139 0.19524 0.0
C2130 C 0.8484 0.68782 0.21526 0.0
C2131 C 0.84401 0.67037 0.2269 0.0
C2132 C 0.91256 0.70535 0.19422 0.0
C2133 C 0.87963 0.69608 0.20424 0.0
C2134 C 0.93013 0.71817 0.18237 0.0
C2135 C 0.93417 0.73528 0.16857 0.0
C2136 C 0.89872 0.70953 0.19245 0.0
C2137 C 0.91994 0.73893 0.16771 0.0
C2138 C 0.86602 0.70059 0.20393 0.0
C2139 C 0.85801 0.66638 0.2265 0.0
N2140 N 0.90301 0.72626 0.17936 0.0
N2141 N 0.87506 0.67906 0.2155 0.0
H2142 H 0.23838 0.41886 0.31788 0.0
H2143 H 0.20574 0.3194 0.4035 0.0
H2144 H 0.18351 0.38126 0.34975 0.0
H2145 H 0.26082 0.35713 0.37373 0.0
H2146 H 0.19748 0.34165 0.38335 0.0
H2147 H 0.24678 0.39667 0.33801 0.0
C2148 C 0.22804 0.40598 0.32931 0.0
C2149 C 0.21012 0.40212 0.33208 0.0
C2150 C 0.21138 0.34511 0.38106 0.0
C2151 C 0.21982 0.37626 0.35517 0.0
C2152 C 0.21616 0.33232 0.39251 0.0
C2153 C 0.2341 0.3362 0.39036 0.0
C2154 C 0.22454 0.36214 0.36719 0.0
C2155 C 0.24684 0.35335 0.37589 0.0
C2156 C 0.2329 0.39324 0.34076 0.0
C2157 C 0.19748 0.38503 0.34711 0.0
N2158 N 0.24184 0.3656 0.36499 0.0
N2159 N 0.20255 0.37283 0.35792 0.0
H2160 H 0.67206 0.83597 0.31616 0.0
H2161 H 0.77168 0.90268 0.40214 0.0
H2162 H 0.70959 0.81859 0.34811 0.0
H2163 H 0.73434 0.92012 0.36874 0.0
H2164 H 0.74932 0.8721 0.38251 0.0
H2165 H 0.69444 0.86653 0.33572 0.0
C2166 C 0.68496 0.83848 0.3275 0.0
C2167 C 0.68875 0.82441 0.33046 0.0
C2168 C 0.74598 0.88258 0.37931 0.0
C2169 C 0.71483 0.85992 0.35292 0.0
C2170 C 0.75883 0.90018 0.39047 0.0
C2171 C 0.75508 0.91427 0.38713 0.0
C2172 C 0.72904 0.87875 0.36461 0.0
C2173 C 0.73802 0.90988 0.37183 0.0
C2174 C 0.69782 0.85607 0.33861 0.0
C2175 C 0.70588 0.82881 0.34533 0.0
N2176 N 0.72572 0.89263 0.3613 0.0
N2177 N 0.71819 0.84606 0.35586 0.0
H2178 H 0.25517 0.85236 0.3198 0.0
H2179 H 0.18819 0.88525 0.40416 0.0
H2180 H 0.27234 0.90744 0.34825 0.0
H2181 H 0.17133 0.83011 0.37721 0.0
H2182 H 0.21874 0.89357 0.3835 0.0
H2183 H 0.2247 0.84411 0.34077 0.0
C2184 C 0.25263 0.86278 0.33066 0.0
C2185 C 0.26662 0.88071 0.3322 0.0
C2186 C 0.20839 0.87965 0.38197 0.0
C2187 C 0.23119 0.87117 0.35629 0.0
C2188 C 0.19081 0.87483 0.39371 0.0
C2189 C 0.17689 0.85686 0.39248 0.0
C2190 C 0.21238 0.86648 0.36873 0.0
C2191 C 0.18143 0.84412 0.37867 0.0
C2192 C 0.23509 0.858 0.34259 0.0
C2193 C 0.26218 0.89346 0.34656 0.0
N2194 N 0.19866 0.84915 0.36747 0.0
N2195 N 0.24497 0.88847 0.35788 0.0
H2196 H 0.73362 0.82926 0.86966 0.0
H2197 H 0.71079 0.90857 0.83941 0.0
H2198 H 0.77056 0.88454 0.89874 0.0
H2199 H 0.67232 0.85307 0.81704 0.0
H2200 H 0.73286 0.89998 0.85972 0.0
H2201 H 0.71137 0.8376 0.84839 0.0
C2202 C 0.73716 0.84317 0.87137 0.0
C2203 C 0.75417 0.85616 0.88608 0.0
C2204 C 0.71959 0.88964 0.85046 0.0
C2205 C 0.72846 0.86588 0.86176 0.0
C2206 C 0.70689 0.89455 0.83885 0.0
C2207 C 0.68948 0.88158 0.82646 0.0
C2208 C 0.71506 0.87155 0.84969 0.0
C2209 C 0.68546 0.86361 0.82642 0.0
C2210 C 0.72436 0.84793 0.85931 0.0
C2211 C 0.75774 0.87397 0.88766 0.0
N2212 N 0.69808 0.85917 0.8377 0.0
N2213 N 0.7451 0.87824 0.87576 0.0
H2214 H 0.18201 0.81681 0.85206 0.0
H2215 H 0.26073 0.91959 0.87611 0.0
H2216 H 0.23718 0.8356 0.81967 0.0
H2217 H 0.20536 0.9017 0.90423 0.0
H2218 H 0.25232 0.88896 0.85617 0.0
H2219 H 0.19021 0.84741 0.87253 0.0
C2220 C 0.19587 0.82728 0.84943 0.0
C2221 C 0.20887 0.82337 0.83406 0.0
C2222 C 0.24197 0.89169 0.8666 0.0
C2223 C 0.21842 0.85883 0.85745 0.0
C2224 C 0.24678 0.90929 0.87798 0.0
C2225 C 0.23379 0.91349 0.89191 0.0
C2226 C 0.22398 0.87791 0.86911 0.0
C2227 C 0.21592 0.89931 0.89363 0.0
C2228 C 0.20054 0.84484 0.86105 0.0
C2229 C 0.2266 0.83775 0.83131 0.0
N2230 N 0.21159 0.88229 0.88252 0.0
N2231 N 0.2308 0.85468 0.84278 0.0
H2232 H 0.1888 0.32003 0.9095 0.0
H2233 H 0.25436 0.41775 0.8129 0.0
H2234 H 0.16971 0.35354 0.85728 0.0
H2235 H 0.27222 0.3809 0.84738 0.0
H2236 H 0.22369 0.39512 0.83189 0.0
H2237 H 0.21938 0.34247 0.88947 0.0
C2238 C 0.19096 0.33205 0.89362 0.0
C2239 C 0.17643 0.33472 0.88505 0.0
C2240 C 0.2343 0.39196 0.83538 0.0
C2241 C 0.21186 0.36085 0.86225 0.0
C2242 C 0.25192 0.40496 0.82467 0.0
C2243 C 0.26613 0.40139 0.82851 0.0
C2244 C 0.23062 0.37513 0.85045 0.0
C2245 C 0.26186 0.3844 0.84381 0.0
C2246 C 0.20853 0.34492 0.88219 0.0
C2247 C 0.18033 0.35071 0.86444 0.0
N2248 N 0.24462 0.37202 0.85422 0.0
N2249 N 0.19756 0.36311 0.85401 0.0
H2250 H 0.84937 0.71361 0.67217 0.0
H2251 H 0.92926 0.69235 0.71373 0.0
H2252 H 0.90521 0.75256 0.65521 0.0
H2253 H 0.87337 0.65352 0.73042 0.0
H2254 H 0.9208 0.7144 0.69198 0.0
H2255 H 0.85791 0.6916 0.69348 0.0
C2256 C 0.86345 0.71762 0.67299 0.0
C2257 C 0.87653 0.73514 0.66178 0.0
C2258 C 0.91037 0.70105 0.7003 0.0
C2259 C 0.8865 0.70967 0.68629 0.0
C2260 C 0.9152 0.68837 0.71271 0.0
C2261 C 0.90206 0.67087 0.724 0.0
C2262 C 0.8922 0.69637 0.69904 0.0
C2263 C 0.88405 0.66674 0.72202 0.0
C2264 C 0.86833 0.70496 0.68516 0.0
C2265 C 0.89456 0.73932 0.66353 0.0
N2266 N 0.8797 0.6793 0.70992 0.0
N2267 N 0.89897 0.72676 0.67544 0.0
H2268 H 0.37735 0.15203 0.6756 0.0
H2269 H 0.401 0.25446 0.70269 0.0
H2270 H 0.33909 0.16948 0.65365 0.0
H2271 H 0.43745 0.23575 0.73493 0.0
H2272 H 0.37864 0.22388 0.68223 0.0
H2273 H 0.39965 0.18265 0.69544 0.0
C2274 C 0.37355 0.16224 0.67505 0.0
C2275 C 0.35614 0.15794 0.66292 0.0
C2276 C 0.39154 0.22645 0.69367 0.0
C2277 C 0.38195 0.19346 0.68554 0.0
C2278 C 0.40441 0.244 0.70527 0.0
C2279 C 0.42131 0.24791 0.72062 0.0
C2280 C 0.39547 0.2125 0.69719 0.0
C2281 C 0.42471 0.23357 0.72331 0.0
C2282 C 0.38637 0.17981 0.68639 0.0
C2283 C 0.35223 0.17197 0.66286 0.0
N2284 N 0.412 0.21665 0.71179 0.0
N2285 N 0.36497 0.18898 0.67382 0.0
H2286 H 0.92136 0.18593 0.65173 0.0
H2287 H 0.85423 0.21905 0.73382 0.0
H2288 H 0.9379 0.24121 0.67565 0.0
H2289 H 0.83687 0.16416 0.7026 0.0
H2290 H 0.88478 0.22727 0.7134 0.0
H2291 H 0.89068 0.17767 0.67141 0.0
C2292 C 0.91863 0.19638 0.66129 0.0
C2293 C 0.93247 0.21436 0.66199 0.0
C2294 C 0.87431 0.21342 0.71085 0.0
C2295 C 0.89694 0.20487 0.68462 0.0
C2296 C 0.85675 0.20868 0.72247 0.0
C2297 C 0.84271 0.19082 0.71996 0.0
C2298 C 0.87815 0.20026 0.69661 0.0
C2299 C 0.84709 0.1781 0.70504 0.0
C2300 C 0.901 0.19161 0.67245 0.0
C2301 C 0.92784 0.22719 0.67459 0.0
N2302 N 0.86431 0.18304 0.69413 0.0
N2303 N 0.9106 0.22221 0.68533 0.0
H2304 H 1.00401 0.51828 0.48967 0.0
H2305 H 0.1052 0.55152 0.56483 0.0
H2306 H 1.04349 0.57374 0.50878 0.0
H2307 H 0.06559 0.496 0.54738 0.0
H2308 H 0.08298 0.55983 0.54388 0.0
H2309 H 1.02622 0.50993 0.51052 0.0
C2310 C 1.01731 0.52875 0.49839 0.0
C2311 C 1.02172 0.54682 0.49742 0.0
C2312 C 0.07912 0.54582 0.54451 0.0
C2313 C 1.04752 0.5372 0.52134 0.0
C2314 C 0.09187 0.54102 0.55643 0.0
C2315 C 0.08743 0.52296 0.55793 0.0
C2316 C 0.0616 0.53252 0.53386 0.0
C2317 C 0.06979 0.51008 0.54671 0.0
C2318 C 1.03005 0.52393 0.51027 0.0
C2319 C 1.03931 0.55965 0.50905 0.0
N2320 N 0.05761 0.51509 0.53527 0.0
N2321 N 1.05147 0.55462 0.52039 0.0
H2322 H 0.59575 0.58828 0.53969 0.0
H2323 H 0.51637 0.48622 0.50823 0.0
H2324 H 0.54014 0.56998 0.56584 0.0
H2325 H 0.572 0.50324 0.4864 0.0
H2326 H 0.52494 0.51686 0.52824 0.0
H2327 H 0.58751 0.55771 0.51853 0.0
C2328 C 0.5818 0.57793 0.54078 0.0
C2329 C 0.56868 0.58196 0.55463 0.0
C2330 C 0.53531 0.51394 0.51916 0.0
C2331 C 0.55908 0.54657 0.53047 0.0
C2332 C 0.53041 0.49633 0.50772 0.0
C2333 C 0.54342 0.49189 0.49557 0.0
C2334 C 0.55344 0.5275 0.51851 0.0
C2335 C 0.56142 0.50584 0.49559 0.0
C2336 C 0.5771 0.56039 0.52878 0.0
C2337 C 0.55082 0.56774 0.55543 0.0
N2338 N 0.56585 0.52289 0.50675 0.0
N2339 N 0.54661 0.55085 0.54365 0.0
H2340 H 0.60454 0.04765 0.51164 0.0
H2341 H 0.50198 1.02431 0.53931 0.0
H2342 H 0.58704 0.08537 0.4835 0.0
H2343 H 0.52075 0.98759 0.56761 0.0
H2344 H 0.53256 0.04667 0.51792 0.0
H2345 H 0.57389 1.02568 0.53178 0.0
C2346 C 0.59431 0.0514 0.50976 0.0
C2347 C 0.59862 0.06857 0.49578 0.0
C2348 C 0.52997 1.0337 0.52869 0.0
C2349 C 0.56298 0.04309 0.51893 0.0
C2350 C 0.51244 1.02085 0.54084 0.0
C2351 C 0.50855 1.00386 0.55535 0.0
C2352 C 0.54392 1.02968 0.53096 0.0
C2353 C 0.52288 1.00038 0.55668 0.0
C2354 C 0.57669 0.03876 0.52128 0.0
C2355 C 0.58453 0.07241 0.49412 0.0
N2356 N 0.53976 1.01308 0.5448 0.0
N2357 N 0.56746 0.05985 0.50544 0.0
H2358 H 0.53871 0.9864 0.07031 0.0
H2359 H 0.57118 0.08593 0.98525 0.0
H2360 H 0.59359 1.02409 0.03875 0.0
H2361 H 0.51628 0.04828 1.01677 0.0
H2362 H 0.57953 0.06367 1.00495 0.0
H2363 H 0.53032 1.00865 0.05067 0.0
C2364 C 0.54906 0.99931 0.05905 0.0
C2365 C 0.56697 1.00318 0.05622 0.0
C2366 C 0.56566 0.06024 1.00772 0.0
C2367 C 0.55729 1.0291 0.03368 0.0
C2368 C 0.56082 0.07302 0.99653 0.0
C2369 C 0.54291 0.06917 0.99932 0.0
C2370 C 0.55256 0.04323 1.02193 0.0
C2371 C 0.53024 0.05204 1.01411 0.0
C2372 C 0.5442 1.01209 0.04789 0.0
C2373 C 0.57962 1.02032 0.04144 0.0
N2374 N 0.53528 0.0398 1.02471 0.0
N2375 N 0.57456 1.03254 0.03087 0.0
H2376 H 1.042 0.48328 1.01666 0.0
H2377 H 0.06537 0.58557 0.04697 0.0
H2378 H 1.00533 0.50197 0.98665 0.0
H2379 H 0.10362 0.5681 0.06874 0.0
H2380 H 1.04314 0.555 1.02653 0.0
H2381 H 0.06432 0.5138 0.03793 0.0
C2382 C 1.03853 0.49371 1.01473 0.0
C2383 C 1.02158 0.48981 0.99977 0.0
C2384 C 0.0564 0.55781 0.0357 0.0
C2385 C 1.04737 0.52515 1.02413 0.0
C2386 C 0.06918 0.57537 0.04739 0.0
C2387 C 0.08658 0.57966 0.05964 0.0
C2388 C 0.06084 0.54417 0.03627 0.0
C2389 C 0.09049 0.56562 0.05948 0.0
C2390 C 1.05137 0.51123 1.0268 0.0
C2391 C 1.01811 0.50413 0.99794 0.0
N2392 N 0.0778 0.54864 0.04815 0.0
N2393 N 1.03079 0.521 1.00987 0.0
H2394 H 0.52139 0.55288 0.06437 0.0
H2395 H 0.58938 0.51943 0.99094 0.0
H2396 H 0.50565 0.49735 0.048 0.0
H2397 H 0.60519 0.57504 1.00579 0.0
H2398 H 0.5589 0.51119 1.01214 0.0
H2399 H 0.55193 0.56123 0.04311 0.0
C2400 C 0.52426 0.54239 0.05617 0.0
C2401 C 0.51069 0.52432 0.05804 0.0
C2402 C 0.56901 0.52521 1.01088 0.0
C2403 C 0.54605 0.53391 0.03364 0.0
C2404 C 0.58653 0.52996 0.9988 0.0
C2405 C 0.60011 0.54802 0.99652 0.0
C2406 C 0.56478 0.53855 1.0209 0.0
C2407 C 0.59532 0.56095 1.00707 0.0
C2408 C 0.54181 0.54721 0.04406 0.0
C2409 C 0.5155 0.51145 0.04706 0.0
N2410 N 0.57817 0.55598 1.01869 0.0
N2411 N 0.53266 0.51647 0.03547 0.0
H2412 H 0.34667 0.26809 0.98657 0.0
H2413 H 0.423 0.25848 0.86413 0.0
H2414 H 0.357 0.2263 1.0255 0.0
H2415 H 0.42487 0.3085 0.8881 0.0
H2416 H 0.39712 0.24363 0.91316 0.0
H2417 H 0.37231 0.27962 0.93935 0.0
C2418 C 0.35415 0.26109 0.985 0.0
C2419 C 0.34932 0.24606 1.01084 0.0
C2420 C 0.40332 0.25788 0.90781 0.0
C2421 C 0.37948 0.25956 0.955 0.0
C2422 C 0.41821 0.26643 0.87978 0.0
C2423 C 0.42648 0.28497 0.87141 0.0
C2424 C 0.39622 0.26778 0.92709 0.0
C2425 C 0.41924 0.29428 0.89287 0.0
C2426 C 0.36901 0.26785 0.95786 0.0
C2427 C 0.35993 0.23782 1.00645 0.0
N2428 N 0.40468 0.28568 0.91876 0.0
N2429 N 0.37438 0.24462 0.97923 0.0
H2430 H 0.82117 0.09572 0.98943 0.0
H2431 H 0.83232 0.18121 0.86318 0.0
H2432 H 0.86373 0.14761 1.02729 0.0
H2433 H 0.7818 0.13396 0.88957 0.0
H2434 H 0.84698 0.17024 0.91294 0.0
H2435 H 0.81014 0.10994 0.94129 0.0
C2436 C 0.82844 0.11018 0.98742 0.0
C2437 C 0.84351 0.12028 1.01326 0.0
C2438 C 0.83266 0.16239 0.90797 0.0
C2439 C 0.83059 0.13707 0.95638 0.0
C2440 C 0.82423 0.16869 0.87952 0.0
C2441 C 0.8056 0.15863 0.87159 0.0
C2442 C 0.82256 0.14564 0.9281 0.0
C2443 C 0.7961 0.14237 0.89395 0.0
C2444 C 0.82198 0.11835 0.95975 0.0
C2445 C 0.85215 0.13909 1.00824 0.0
N2446 N 0.80459 0.13643 0.9202 0.0
N2447 N 0.84561 0.14682 0.98056 0.0
H2448 H 0.95518 0.66276 0.89891 0.0
H2449 H 0.94355 0.73699 1.02387 0.0
H2450 H 0.91276 0.67209 0.8591 0.0
H2451 H 0.99443 0.74137 0.99473 0.0
H2452 H 0.92896 0.71116 0.97472 0.0
H2453 H 0.96605 0.68818 0.94653 0.0
C2454 C 0.9479 0.66997 0.90039 0.0
C2455 C 0.93292 0.66496 0.87414 0.0
C2456 C 0.94333 0.71791 0.97897 0.0
C2457 C 0.94563 0.69483 0.93043 0.0
C2458 C 0.95173 0.73276 1.00706 0.0
C2459 C 0.97044 0.74171 1.01401 0.0
C2460 C 0.95357 0.71153 0.95827 0.0
C2461 C 0.98006 0.73519 0.99109 0.0
C2462 C 0.95427 0.68469 0.92775 0.0
C2463 C 0.92427 0.67518 0.87847 0.0
N2464 N 0.97161 0.72063 0.96525 0.0
N2465 N 0.9307 0.68952 0.90589 0.0
H2466 H 0.24277 0.33537 0.53172 0.0
H2467 H 0.32818 0.40712 0.66228 0.0
H2468 H 0.28738 0.32861 0.5662 0.0
H2469 H 0.27678 0.40067 0.6952 0.0
H2470 H 0.31345 0.38162 0.61497 0.0
H2471 H 0.25425 0.36126 0.58071 0.0
C2472 C 0.25479 0.33907 0.54972 0.0
C2473 C 0.26398 0.32946 0.54429 0.0
C2474 C 0.30528 0.38575 0.63218 0.0
C2475 C 0.2776 0.35971 0.59985 0.0
C2476 C 0.31374 0.40052 0.65937 0.0
C2477 C 0.30391 0.40636 0.68359 0.0
C2478 C 0.28655 0.37642 0.62761 0.0
C2479 C 0.28511 0.39692 0.67745 0.0
C2480 C 0.26139 0.35397 0.5777 0.0
C2481 C 0.27966 0.33533 0.56865 0.0
N2482 N 0.27709 0.38252 0.6502 0.0
N2483 N 0.28594 0.34994 0.59438 0.0
H2484 H 0.68959 0.89207 0.69152 0.0
H2485 H 0.7624 0.9767 0.56038 0.0
H2486 H 0.6844 0.93772 0.65902 0.0
H2487 H 0.75459 0.9249 0.52706 0.0
H2488 H 0.737 0.96247 0.60819 0.0
H2489 H 0.71524 0.90295 0.64173 0.0
C2490 C 0.69357 0.90419 0.67377 0.0
C2491 C 0.6845 0.91387 0.68005 0.0
C2492 C 0.7408 0.9541 0.59079 0.0
C2493 C 0.71447 0.92678 0.62357 0.0
C2494 C 0.75552 0.96228 0.56331 0.0
C2495 C 0.76097 0.95218 0.53884 0.0
C2496 C 0.73111 0.93541 0.59541 0.0
C2497 C 0.75115 0.93342 0.54499 0.0
C2498 C 0.70833 0.91045 0.64535 0.0
C2499 C 0.69072 0.92964 0.65597 0.0
N2500 N 0.73682 0.92569 0.57252 0.0
N2501 N 0.70519 0.93557 0.6298 0.0
H2502 H 0.11496 0.80401 0.56968 0.0
H2503 H 0.20076 0.81319 0.69136 0.0
H2504 H 0.1671 0.84566 0.53017 0.0
H2505 H 0.1528 0.76317 0.66584 0.0
H2506 H 0.18976 0.8282 0.6428 0.0
H2507 H 0.12908 0.79239 0.61654 0.0
C2508 C 0.12945 0.81097 0.57107 0.0
C2509 C 0.13965 0.82597 0.54515 0.0
C2510 C 0.18175 0.81392 0.64771 0.0
C2511 C 0.15631 0.81237 0.60057 0.0
C2512 C 0.18807 0.80528 0.67546 0.0
C2513 C 0.17783 0.78668 0.68324 0.0
C2514 C 0.16482 0.80406 0.62814 0.0
C2515 C 0.16136 0.77742 0.6615 0.0
C2516 C 0.13756 0.80416 0.59799 0.0
C2517 C 0.1585 0.83415 0.5493 0.0
N2518 N 0.15542 0.78612 0.63591 0.0
N2519 N 0.16617 0.82731 0.57631 0.0
H2520 H 0.68065 0.76215 0.15578 0.0
H2521 H 0.75542 0.8476 0.02984 0.0
H2522 H 0.6896 0.81412 0.1916 0.0
H2523 H 0.75875 0.80047 0.05713 0.0
H2524 H 0.72954 0.83654 0.07892 0.0
H2525 H 0.70621 0.77629 0.10838 0.0
C2526 C 0.68781 0.7766 0.15348 0.0
C2527 C 0.68263 0.78676 0.17851 0.0
C2528 C 0.73607 0.82873 0.07428 0.0
C2529 C 0.71268 0.80343 0.12247 0.0
C2530 C 0.75095 0.83508 0.04623 0.0
C2531 C 0.75961 0.82509 0.03879 0.0
C2532 C 0.72939 0.812 0.09451 0.0
C2533 C 0.7528 0.80883 0.06118 0.0
C2534 C 0.70262 0.78472 0.12624 0.0
C2535 C 0.69282 0.80555 0.1732 0.0
N2536 N 0.73823 0.80284 0.08706 0.0
N2537 N 0.70724 0.81323 0.1459 0.0
H2538 H 0.24321 0.92398 0.02883 0.0
H2539 H 0.32827 0.93304 0.15288 0.0
H2540 H 0.29043 0.97409 0.05815 0.0
H2541 H 0.27609 0.89126 0.1918 0.0
H2542 H 0.31419 0.9447 0.10602 0.0
H2543 H 0.25391 0.90881 0.0777 0.0
C2544 C 0.25565 0.93188 0.04568 0.0
C2545 C 0.26581 0.95054 0.03881 0.0
C2546 C 0.3057 0.93289 0.12444 0.0
C2547 C 0.2785 0.933 0.0942 0.0
C2548 C 0.31378 0.92607 0.15136 0.0
C2549 C 0.30355 0.91102 0.17711 0.0
C2550 C 0.28695 0.92465 0.12169 0.0
C2551 C 0.2847 0.9028 0.1728 0.0
C2552 C 0.26181 0.92315 0.07358 0.0
C2553 C 0.28198 0.95978 0.06172 0.0
N2554 N 0.27706 0.90966 0.14577 0.0
N2555 N 0.28779 0.95101 0.0874 0.0
H2556 H 0.20292 0.40616 0.18376 0.0
H2557 H 0.12013 0.32979 0.04869 0.0
H2558 H 0.15207 0.40367 0.16769 0.0
H2559 H 0.17445 0.34382 1.02126 0.0
H2560 H 0.13122 0.3532 0.10311 0.0
H2561 H 0.19286 0.38084 0.13374 0.0
C2562 C 0.18974 0.40047 0.16978 0.0
C2563 C 0.17851 0.40744 0.18036 0.0
C2564 C 0.14077 0.35094 0.08596 0.0
C2565 C 0.16655 0.37776 0.12354 0.0
C2566 C 0.13436 0.33725 0.05523 0.0
C2567 C 0.14623 0.33416 0.03099 0.0
C2568 C 0.15933 0.3619 0.09316 0.0
C2569 C 0.16467 0.34516 0.0399 0.0
C2570 C 0.18394 0.38589 0.14122 0.0
C2571 C 0.16143 0.39909 0.16097 0.0
N2572 N 0.1706 0.35837 0.07001 0.0
N2573 N 0.15605 0.38485 0.13429 0.0
H2574 H 0.82147 0.7423 0.49234 0.0
H2575 H 0.8337 0.66967 0.36198 0.0
H2576 H 0.86505 0.73409 0.52801 0.0
H2577 H 0.78273 0.6643 0.39471 0.0
H2578 H 0.84837 0.69525 0.41184 0.0
H2579 H 0.81062 0.71706 0.44424 0.0
C2580 C 0.829 0.73537 0.48985 0.0
C2581 C 0.8443 0.74063 0.51508 0.0
C2582 C 0.83396 0.68832 0.40825 0.0
C2583 C 0.83161 0.71098 0.45823 0.0
C2584 C 0.82552 0.6736 0.37979 0.0
C2585 C 0.80676 0.66451 0.37357 0.0
C2586 C 0.82369 0.69438 0.4301 0.0
C2587 C 0.79713 0.67065 0.39772 0.0
C2588 C 0.82264 0.72075 0.46221 0.0
C2589 C 0.85328 0.73079 0.50946 0.0
N2590 N 0.80561 0.68507 0.42392 0.0
N2591 N 0.84685 0.71653 0.48178 0.0
H2592 H 0.36425 0.14732 0.54952 0.0
H2593 H 0.40565 0.13655 0.3297 0.0
H2594 H 0.34057 0.09994 0.47276 0.0
H2595 H 0.43727 0.1799 0.41455 0.0
H2596 H 0.38033 0.1257 0.37812 0.0
H2597 H 0.38917 0.16178 0.49826 0.0
C2598 C 0.36398 0.14008 0.52145 0.0
C2599 C 0.34991 0.12235 0.51545 0.0
C2600 C 0.39268 0.13768 0.38634 0.0
C2601 C 0.37883 0.1389 0.45637 0.0
C2602 C 0.40726 0.144 0.35837 0.0
C2603 C 0.42386 0.15932 0.36746 0.0
C2604 C 0.39428 0.14655 0.42464 0.0
C2605 C 0.42483 0.16818 0.40561 0.0
C2606 C 0.37839 0.14832 0.49231 0.0
C2607 C 0.35083 0.11364 0.4788 0.0
N2608 N 0.41037 0.16168 0.43266 0.0
N2609 N 0.36481 0.1219 0.45109 0.0
H2610 H 0.94301 0.22411 0.52495 0.0
H2611 H 0.95364 0.30885 0.39698 0.0
H2612 H 0.99349 0.27097 0.49594 0.0
H2613 H 0.91157 0.25684 0.35833 0.0
H2614 H 0.96467 0.29476 0.44553 0.0
H2615 H 0.92816 0.23474 0.4748 0.0
C2616 C 0.95105 0.23646 0.50793 0.0
C2617 C 0.96972 0.24655 0.51526 0.0
C2618 C 0.95293 0.2863 0.42681 0.0
C2619 C 0.95256 0.25914 0.45838 0.0
C2620 C 0.94647 0.2944 0.39893 0.0
C2621 C 0.93156 0.28422 0.37274 0.0
C2622 C 0.94446 0.26759 0.43005 0.0
C2623 C 0.92303 0.26541 0.37766 0.0
C2624 C 0.94251 0.24257 0.47929 0.0
C2625 C 0.97916 0.26258 0.49207 0.0
N2626 N 0.92957 0.25775 0.40556 0.0
N2627 N 0.97057 0.26835 0.46567 0.0
H2628 H 0.09476 0.64161 0.23086 0.0
H2629 H 1.02107 0.55659 0.35872 0.0
H2630 H 0.08549 0.5898 0.19251 0.0
H2631 H 1.01659 0.60285 0.32856 0.0
H2632 H 1.04666 0.56747 0.3088 0.0
H2633 H 0.06949 0.62728 0.27899 0.0
C2634 C 0.08759 0.62715 0.23278 0.0
C2635 C 0.09257 0.61709 0.2068 0.0
C2636 C 1.03993 0.57511 0.31297 0.0
C2637 C 0.06287 0.6002 0.26366 0.0
C2638 C 1.02521 0.56885 0.34148 0.0
C2639 C 1.01635 0.5787 0.34844 0.0
C2640 C 1.04624 0.59159 0.29181 0.0
C2641 C 1.02275 0.59464 0.32498 0.0
C2642 C 0.07295 0.61892 0.26043 0.0
C2643 C 0.08242 0.59828 0.21168 0.0
N2644 N 1.03718 0.60056 0.29871 0.0
N2645 N 0.06815 0.59049 0.23938 0.0
H2646 H 0.48781 0.42934 0.32694 0.0
H2647 H 0.50037 0.51395 0.19524 0.0
H2648 H 0.53148 0.48101 0.36226 0.0
H2649 H 0.44932 0.46866 0.2282 0.0
H2650 H 0.51496 0.50307 0.24549 0.0
H2651 H 0.47706 0.44371 0.27846 0.0
C2652 C 0.49538 0.44377 0.32429 0.0
C2653 C 0.51067 0.45378 0.34954 0.0
C2654 C 0.50055 0.49565 0.24188 0.0
C2655 C 0.4981 0.47073 0.29225 0.0
C2656 C 0.49215 0.50192 0.21319 0.0
C2657 C 0.4734 0.49233 0.2069 0.0
C2658 C 0.49023 0.47941 0.26389 0.0
C2659 C 0.46372 0.47666 0.23124 0.0
C2660 C 0.48908 0.45202 0.29643 0.0
C2661 C 0.5197 0.47256 0.34369 0.0
N2662 N 0.47215 0.47071 0.25766 0.0
N2663 N 0.51333 0.48038 0.31581 0.0
H2664 H 0.6106 0.06931 0.35768 0.0
H2665 H 0.62028 0.99347 0.23296 0.0
H2666 H 0.66032 0.06994 0.33718 0.0
H2667 H 0.57879 1.0044 0.19433 0.0
H2668 H 0.63162 1.01855 0.28166 0.0
H2669 H 0.59588 0.04395 0.30726 0.0
C2670 C 0.61851 0.06436 0.34251 0.0
C2671 C 0.63692 0.07208 0.3523 0.0
C2672 C 0.61995 1.01551 0.26289 0.0
C2673 C 0.61987 0.04245 0.295 0.0
C2674 C 0.61331 1.00097 0.23491 0.0
C2675 C 0.59843 0.99648 0.20873 0.0
C2676 C 0.61172 1.02602 0.26621 0.0
C2677 C 0.59021 1.00707 0.21363 0.0
C2678 C 0.61004 0.04977 0.31369 0.0
C2679 C 0.64619 0.06468 0.33137 0.0
N2680 N 0.5969 1.02124 0.24161 0.0
N2681 N 0.63765 0.05043 0.30467 0.0
H2682 H 0.44753 0.99453 0.73458 0.0
H2683 H 0.53348 0.07024 0.85717 0.0
H2684 H 0.49956 1.00436 0.69559 0.0
H2685 H 0.4858 0.07292 0.83149 0.0
H2686 H 0.52238 0.04433 0.80834 0.0
H2687 H 0.46177 1.02018 0.78158 0.0
C2688 C 0.46202 1.0019 0.73609 0.0
C2689 C 0.47216 0.99694 0.7103 0.0
C2690 C 0.51446 0.05072 0.81327 0.0
C2691 C 0.48896 1.02709 0.76588 0.0
C2692 C 0.52083 0.06562 0.84118 0.0
C2693 C 0.5107 0.07411 0.84901 0.0
C2694 C 0.49756 0.04384 0.79359 0.0
C2695 C 0.49427 0.0671 0.82714 0.0
C2696 C 0.4702 1.01676 0.7631 0.0
C2697 C 0.49101 1.0074 0.71461 0.0
N2698 N 0.48826 0.05252 0.80139 0.0
N2699 N 0.49875 1.02186 0.74171 0.0
H2700 H 0.09526 0.46929 0.73245 0.0
H2701 H 1.01987 0.47991 0.85575 0.0
H2702 H 0.08555 0.51145 0.69307 0.0
H2703 H 1.01666 0.42947 0.82885 0.0
H2704 H 1.04582 0.49465 0.80686 0.0
H2705 H 0.06966 0.4581 0.77971 0.0
C2706 C 0.08792 0.47644 0.73394 0.0
C2707 C 0.09288 0.49144 0.70794 0.0
C2708 C 1.0393 0.48034 0.81153 0.0
C2709 C 0.0628 0.47836 0.7638 0.0
C2710 C 1.02438 0.47186 0.83948 0.0
C2711 C 1.01573 0.45323 0.84697 0.0
C2712 C 1.04604 0.47027 0.79151 0.0
C2713 C 1.0226 0.44377 0.82475 0.0
C2714 C 0.07309 0.46989 0.7611 0.0
C2715 C 0.0825 0.49992 0.71226 0.0
N2716 N 1.03721 0.45231 0.799 0.0
N2717 N 0.06806 0.49331 0.73948 0.0
H2718 H 0.62066 0.64297 0.73314 0.0
H2719 H 0.60983 0.55774 0.85934 0.0
H2720 H 0.57778 0.59115 0.69585 0.0
H2721 H 0.66049 0.60402 0.82852 0.0
H2722 H 0.59494 0.56874 0.81032 0.0
H2723 H 0.63196 0.62862 0.78019 0.0
C2724 C 0.61337 0.62851 0.73504 0.0
C2725 C 0.59812 0.61845 0.70968 0.0
C2726 C 0.60933 0.57636 0.81415 0.0
C2727 C 0.61133 0.60154 0.76539 0.0
C2728 C 0.6179 0.57003 0.84215 0.0
C2729 C 0.63664 0.57985 0.84865 0.0
C2730 C 0.61944 0.59289 0.79306 0.0
C2731 C 0.64611 0.59584 0.82528 0.0
C2732 C 0.61999 0.62027 0.76208 0.0
C2733 C 0.58951 0.59964 0.7145 0.0
N2734 N 0.63751 0.60182 0.79953 0.0
N2735 N 0.59616 0.59184 0.74165 0.0
H2736 H 0.2706 0.294 0.32765 0.0
H2737 H 0.25901 0.21388 0.18465 0.0
H2738 H 0.23265 0.24019 0.36492 0.0
H2739 H 0.31221 0.25004 0.22959 0.0
H2740 H 0.24702 0.22648 0.23618 0.0
H2741 H 0.28411 0.28202 0.27803 0.0
C2742 C 0.26515 0.27972 0.32601 0.0
C2743 C 0.25059 0.26828 0.35203 0.0
C2744 C 0.26135 0.23182 0.23449 0.0
C2745 C 0.2656 0.25422 0.29255 0.0
C2746 C 0.26831 0.22459 0.20491 0.0
C2747 C 0.28688 0.23096 0.20142 0.0
C2748 C 0.27292 0.24611 0.26071 0.0
C2749 C 0.29795 0.24492 0.22942 0.0
C2750 C 0.27287 0.27284 0.29723 0.0
C2751 C 0.24388 0.24974 0.34626 0.0
N2752 N 0.2909 0.25212 0.2571 0.0
N2753 N 0.25119 0.2434 0.31721 0.0
H2754 H 0.87786 0.06131 0.18098 0.0
H2755 H 0.79808 0.99093 0.31869 0.0
H2756 H 0.84189 0.07839 0.22706 0.0
H2757 H 0.85135 1.01062 0.36687 0.0
H2758 H 0.81005 1.01643 0.26922 0.0
H2759 H 0.86523 0.03663 0.23234 0.0
C2760 C 0.86723 0.05991 0.20158 0.0
C2761 C 0.86095 0.07218 0.1987 0.0
C2762 C 0.81909 1.0152 0.2908 0.0
C2763 C 0.84578 0.04303 0.25757 0.0
C2764 C 0.81221 1.00064 0.31958 0.0
C2765 C 0.82347 0.99862 0.34867 0.0
C2766 C 0.83763 1.02761 0.28921 0.0
C2767 C 0.84193 1.01146 0.34583 0.0
C2768 C 0.85998 0.04569 0.231 0.0
C2769 C 0.84709 0.06933 0.22701 0.0
N2770 N 0.84834 1.02506 0.31674 0.0
N2771 N 0.83986 0.05506 0.25447 0.0
H2772 H 1.0282 0.83197 0.18998 0.0
H2773 H 0.09951 0.8226 0.32542 0.0
H2774 H 1.0129 0.77869 0.23069 0.0
H2775 H 0.08009 0.85651 0.37251 0.0
H2776 H 0.07387 0.80886 0.27638 0.0
H2777 H 1.05274 0.84396 0.24165 0.0
C2778 C 1.02998 0.82266 0.20937 0.0
C2779 C 1.01826 0.80408 0.20471 0.0
C2780 C 0.07517 0.81924 0.29766 0.0
C2781 C 1.04734 0.81807 0.26407 0.0
C2782 C 0.08982 0.82703 0.32624 0.0
C2783 C 0.09199 0.8405 0.35488 0.0
C2784 C 0.06279 0.82539 0.29578 0.0
C2785 C 0.07916 0.84613 0.35182 0.0
C2786 C 1.04413 0.82962 0.23902 0.0
C2787 C 1.02162 0.793 0.23158 0.0
N2788 N 0.06546 0.83882 0.32289 0.0
N2789 N 1.03585 0.80007 0.25932 0.0
H2790 H 0.87767 0.83333 0.68272 0.0
H2791 H 0.79815 0.82418 0.81933 0.0
H2792 H 0.84297 0.78041 0.73072 0.0
H2793 H 0.851 0.85659 0.87075 0.0
H2794 H 0.81031 0.81072 0.77008 0.0
H2795 H 0.8648 0.8452 0.73401 0.0
C2796 C 0.86727 0.82409 0.70374 0.0
C2797 C 0.86141 0.80563 0.70143 0.0
C2798 C 0.81921 0.82072 0.79234 0.0
C2799 C 0.84598 0.81939 0.76021 0.0
C2800 C 0.81221 0.82834 0.82099 0.0
C2801 C 0.8233 0.84127 0.85089 0.0
C2802 C 0.83769 0.82655 0.79176 0.0
C2803 C 0.84171 0.84661 0.84904 0.0
C2804 C 0.85988 0.83096 0.73311 0.0
C2805 C 0.84784 0.7946 0.73026 0.0
N2806 N 0.84826 0.83948 0.82007 0.0
N2807 N 0.84047 0.80153 0.75771 0.0
H2808 H 0.22409 0.99431 0.83061 0.0
H2809 H 0.3116 0.08131 0.73567 0.0
H2810 H 0.27752 1.0086 0.86763 0.0
H2811 H 0.2592 0.05854 0.68016 0.0
H2812 H 0.29978 0.05626 0.78629 0.0
H2813 H 0.23663 1.01883 0.77891 0.0
C2814 C 0.2385 1.00239 0.82757 0.0
C2815 C 0.24964 0.99865 0.85292 0.0
C2816 C 0.29083 0.05673 0.7631 0.0
C2817 C 0.26442 1.02766 0.79363 0.0
C2818 C 0.29763 0.07112 0.73392 0.0
C2819 C 0.28656 0.07226 0.70279 0.0
C2820 C 0.27256 0.0433 0.76229 0.0
C2821 C 0.26843 0.05848 0.70315 0.0
C2822 C 0.24571 1.01652 0.79788 0.0
C2823 C 0.26828 1.01015 0.84773 0.0
N2824 N 0.26211 0.04484 0.73209 0.0
N2825 N 0.275 1.024 0.81917 0.0
H2826 H 1.03012 0.21415 0.68049 0.0
H2827 H 0.09817 0.29307 0.82453 0.0
H2828 H 1.01125 0.24789 0.73167 0.0
H2829 H 0.08155 0.23943 0.86456 0.0
H2830 H 0.07269 0.28102 0.77493 0.0
H2831 H 0.05488 0.22677 0.73166 0.0
C2832 C 1.03114 0.22431 0.70213 0.0
C2833 C 1.01835 0.22998 0.70063 0.0
C2834 C 0.07464 0.2719 0.79458 0.0
C2835 C 1.04759 0.24516 0.75934 0.0
C2836 C 0.08927 0.27881 0.82319 0.0
C2837 C 0.09213 0.26744 0.85001 0.0
C2838 C 0.06304 0.25329 0.79087 0.0
C2839 C 0.08005 0.24891 0.84521 0.0
C2840 C 1.04541 0.23155 0.73144 0.0
C2841 C 1.02073 0.24323 0.73028 0.0
N2842 N 0.06638 0.2425 0.81625 0.0
N2843 N 1.03506 0.25049 0.75765 0.0
H2844 H 0.89134 0.5785 0.66885 0.0
H2845 H 0.97743 0.57765 0.57118 0.0
H2846 H 0.94492 0.62029 0.69616 0.0
H2847 H 0.92576 0.55092 0.51142 0.0
H2848 H 0.96605 0.59149 0.62114 0.0
H2849 H 0.90345 0.56618 0.61673 0.0
C2850 C 0.90566 0.58529 0.66368 0.0
C2851 C 0.91694 0.60097 0.68653 0.0
C2852 C 0.95719 0.58266 0.59702 0.0
C2853 C 0.93125 0.58632 0.62684 0.0
C2854 C 0.96379 0.57482 0.56791 0.0
C2855 C 0.95283 0.56328 0.53566 0.0
C2856 C 0.93917 0.57862 0.59531 0.0
C2857 C 0.93492 0.55972 0.53515 0.0
C2858 C 0.91262 0.57818 0.63372 0.0
C2859 C 0.9355 0.60873 0.6785 0.0
N2860 N 0.92874 0.56716 0.56424 0.0
N2861 N 0.942 0.60135 0.64993 0.0
H2862 H 0.55263 0.40637 0.54713 0.0
H2863 H 0.46529 0.32315 0.65061 0.0
H2864 H 0.50053 0.40056 0.53128 0.0
H2865 H 0.51763 0.34537 0.70624 0.0
H2866 H 0.47727 0.34854 0.60091 0.0
H2867 H 0.5399 0.38161 0.59823 0.0
C2868 C 0.5385 0.40003 0.55453 0.0
C2869 C 0.52784 0.40618 0.5352 0.0
C2870 C 0.48614 0.34791 0.62408 0.0
C2871 C 0.51274 0.37683 0.59363 0.0
C2872 C 0.47922 0.33338 0.65294 0.0
C2873 C 0.49021 0.33202 0.68399 0.0
C2874 C 0.50447 0.36114 0.62478 0.0
C2875 C 0.50843 0.34563 0.68348 0.0
C2876 C 0.53118 0.38578 0.5839 0.0
C2877 C 0.50948 0.39693 0.5461 0.0
N2878 N 0.51488 0.35931 0.65461 0.0
N2879 N 0.50256 0.38279 0.57393 0.0
H2880 H 0.66858 0.12017 0.58397 0.0
H2881 H 0.77392 0.17256 0.63329 0.0
H2882 H 0.70528 0.15695 0.49254 0.0
H2883 H 0.7369 0.17129 0.72595 0.0
H2884 H 0.74926 0.15987 0.5811 0.0
H2885 H 0.6933 0.13157 0.63577 0.0
C2886 C 0.68181 0.13053 0.57452 0.0
C2887 C 0.68457 0.1376 0.53343 0.0
C2888 C 0.74651 0.16227 0.61294 0.0
C2889 C 0.71345 0.15049 0.593 0.0
C2890 C 0.76063 0.16947 0.64295 0.0
C2891 C 0.75774 0.17322 0.68452 0.0
C2892 C 0.729 0.15806 0.62447 0.0
C2893 C 0.74 0.16884 0.69451 0.0
C2894 C 0.69597 0.13709 0.6043 0.0
C2895 C 0.70226 0.15109 0.52364 0.0
N2896 N 0.72646 0.16141 0.66522 0.0
N2897 N 0.71589 0.15686 0.55269 0.0
H2898 H 0.46721 0.14867 0.18681 0.0
H2899 H 0.54188 0.16559 1.01347 0.0
H2900 H 0.51649 0.19862 0.17878 0.0
H2901 H 0.51076 0.11361 0.0698 0.0
H2902 H 0.52963 0.17777 0.0652 0.0
H2903 H 0.47915 0.13548 0.13629 0.0
C2904 C 0.48039 0.15698 0.174 0.0
C2905 C 0.49056 0.17494 0.18714 0.0
C2906 C 0.52533 0.16366 0.06618 0.0
C2907 C 0.50465 0.15985 0.12816 0.0
C2908 C 0.53237 0.1566 0.03644 0.0
C2909 C 0.5273 0.13831 0.0361 0.0
C2910 C 0.51261 0.15244 0.09609 0.0
C2911 C 0.51484 0.12761 0.0674 0.0
C2912 C 0.48735 0.14936 0.14531 0.0
C2913 C 0.50794 0.18479 0.1698 0.0
N2914 N 0.50785 0.13473 0.09546 0.0
N2915 N 0.51424 0.17728 0.14118 0.0
H2916 H 0.93393 0.32521 0.15768 0.0
H2917 H 0.92437 0.39507 1.01819 0.0
H2918 H 0.89864 0.34345 0.20191 0.0
H2919 H 0.97734 0.41207 0.06496 0.0
H2920 H 0.91213 0.37053 0.06975 0.0
H2921 H 0.94765 0.3508 0.10863 0.0
C2922 C 0.92904 0.33453 0.15744 0.0
C2923 C 0.91522 0.33206 0.18531 0.0
C2924 C 0.92647 0.37952 0.06846 0.0
C2925 C 0.93046 0.36132 0.12667 0.0
C2926 C 0.93356 0.39366 0.03888 0.0
C2927 C 0.95215 0.40583 0.03589 0.0
C2928 C 0.93791 0.3768 0.09516 0.0
C2929 C 0.96308 0.40296 0.06442 0.0
C2930 C 0.93691 0.34921 0.12912 0.0
C2931 C 0.9093 0.34463 0.18176 0.0
N2932 N 0.9559 0.38873 0.09208 0.0
N2933 N 0.91669 0.35838 0.15302 0.0
H2934 H 0.76481 0.62587 0.15923 0.0
H2935 H 0.69642 0.54629 1.01656 0.0
H2936 H 0.7481 0.57233 0.20025 0.0
H2937 H 0.67895 0.58182 0.06336 0.0
H2938 H 0.72092 0.55868 0.06848 0.0
H2939 H 0.73942 0.61375 0.10947 0.0
C2940 C 0.75588 0.61161 0.15813 0.0
C2941 C 0.7587 0.60031 0.18533 0.0
C2942 C 0.7118 0.56388 0.0672 0.0
C2943 C 0.72972 0.58604 0.12581 0.0
C2944 C 0.69769 0.55677 0.03743 0.0
C2945 C 0.68538 0.56301 0.03452 0.0
C2946 C 0.71431 0.57791 0.09408 0.0
C2947 C 0.68805 0.57666 0.06323 0.0
C2948 C 0.74132 0.60465 0.12939 0.0
C2949 C 0.74663 0.58177 0.18065 0.0
N2950 N 0.70224 0.58378 0.09099 0.0
N2951 N 0.73301 0.5753 0.15152 0.0
H2952 H 0.59475 0.87303 0.87675 0.0
H2953 H 0.60073 0.96035 0.98604 0.0
H2954 H 0.64167 0.92471 0.86326 0.0
H2955 H 0.56847 0.90739 0.03649 0.0
H2956 H 0.6139 0.94839 0.93541 0.0
H2957 H 0.58285 0.88573 0.92838 0.0
C2958 C 0.60271 0.88706 0.88477 0.0
C2959 C 0.61965 0.89759 0.86593 0.0
C2960 C 0.60397 0.93938 0.95763 0.0
C2961 C 0.60557 0.91267 0.92507 0.0
C2962 C 0.59646 0.94627 0.98697 0.0
C2963 C 0.58355 0.93507 1.0168 0.0
C2964 C 0.59825 0.92091 0.95671 0.0
C2965 C 0.57836 0.91674 1.01469 0.0
C2966 C 0.59584 0.89435 0.91446 0.0
C2967 C 0.62897 0.91582 0.87766 0.0
N2968 N 0.58552 0.91034 0.98545 0.0
N2969 N 0.62184 0.92274 0.90583 0.0
H2970 H 0.13144 0.65846 0.99225 0.0
H2971 H 0.2104 0.72757 0.85112 0.0
H2972 H 0.18496 0.67629 0.036 0.0
H2973 H 0.17615 0.74599 0.9018 0.0
H2974 H 0.19795 0.70291 0.90239 0.0
H2975 H 0.14345 0.68408 0.94326 0.0
C2976 C 0.14567 0.66769 0.99191 0.0
C2977 C 0.15699 0.66511 1.01961 0.0
C2978 C 0.19299 0.71223 0.90199 0.0
C2979 C 0.17115 0.6944 0.96111 0.0
C2980 C 0.20013 0.72644 0.87259 0.0
C2981 C 0.19421 0.73903 0.87076 0.0
C2982 C 0.17925 0.7099 0.9297 0.0
C2983 C 0.18084 0.73652 0.90027 0.0
C2984 C 0.15257 0.68239 0.96363 0.0
C2985 C 0.17551 0.67757 1.01597 0.0
N2986 N 0.1737 0.72224 0.92776 0.0
N2987 N 0.18193 0.69134 0.9873 0.0
H2988 H 0.41669 0.48002 0.03308 0.0
H2989 H 0.36589 0.4986 0.84261 0.0
H2990 H 0.42818 0.53281 0.9987 0.0
H2991 H 0.34272 0.4475 0.90435 0.0
H2992 H 0.39048 0.51062 0.89393 0.0
H2993 H 0.39204 0.46734 0.98156 0.0
C2994 C 0.41444 0.48903 1.01402 0.0
C2995 C 0.42521 0.50767 1.01989 0.0
C2996 C 0.38008 0.49675 0.89636 0.0
C2997 C 0.39619 0.49301 0.96033 0.0
C2998 C 0.36589 0.48979 0.86685 0.0
C2999 C 0.35193 0.4718 0.86829 0.0
C3000 C 0.38085 0.48574 0.9281 0.0
C3001 C 0.35306 0.46131 0.90103 0.0
C3002 C 0.40004 0.48171 0.98484 0.0
C3003 C 0.42062 0.51842 0.99529 0.0
N3004 N 0.36717 0.46832 0.92906 0.0
N3005 N 0.40679 0.51104 0.9667 0.0
H3006 H 0.18505 0.52427 0.53832 0.0
H3007 H 0.17525 0.44454 0.39862 0.0
H3008 H 0.13209 0.48816 0.49219 0.0
H3009 H 0.21007 0.49801 0.35377 0.0
H3010 H 0.16177 0.45647 0.44849 0.0
H3011 H 0.19725 0.51176 0.48694 0.0
C3012 C 0.17585 0.5136 0.51783 0.0
C3013 C 0.15726 0.50724 0.52086 0.0
C3014 C 0.17232 0.46557 0.42757 0.0
C3015 C 0.17143 0.4922 0.46191 0.0
C3016 C 0.17997 0.45871 0.39861 0.0
C3017 C 0.1936 0.47006 0.37036 0.0
C3018 C 0.17877 0.48412 0.43017 0.0
C3019 C 0.19954 0.48854 0.37417 0.0
C3020 C 0.18291 0.50642 0.48838 0.0
C3021 C 0.14632 0.49333 0.49263 0.0
N3022 N 0.19234 0.4949 0.40342 0.0
N3023 N 0.15346 0.48619 0.46512 0.0
H3024 H 0.59217 0.7281 0.34997 0.0
H3025 H 0.60326 0.65954 0.49173 0.0
H3026 H 0.64518 0.74647 0.39828 0.0
H3027 H 0.56648 0.67645 0.53284 0.0
H3028 H 0.61682 0.68517 0.44264 0.0
H3029 H 0.58028 0.70348 0.40128 0.0
C3030 C 0.60145 0.72697 0.37094 0.0
C3031 C 0.61995 0.73957 0.36847 0.0
C3032 C 0.60584 0.68331 0.4626 0.0
C3033 C 0.60613 0.71042 0.42746 0.0
C3034 C 0.59811 0.66865 0.49111 0.0
C3035 C 0.58387 0.66579 0.51806 0.0
C3036 C 0.59887 0.69499 0.45912 0.0
C3037 C 0.57746 0.67794 0.51345 0.0
C3038 C 0.59456 0.71277 0.40036 0.0
C3039 C 0.631 0.73703 0.39733 0.0
N3040 N 0.58475 0.69164 0.48462 0.0
N3041 N 0.62403 0.72276 0.42487 0.0
H3042 H 0.43135 0.96031 0.49171 0.0
H3043 H 0.36076 0.87865 0.35594 0.0
H3044 H 0.41363 0.9069 0.53561 0.0
H3045 H 0.34587 0.91735 0.39356 0.0
H3046 H 0.38528 0.89142 0.40761 0.0
H3047 H 0.40575 0.94815 0.44245 0.0
C3048 C 0.42205 0.94609 0.49169 0.0
C3049 C 0.42468 0.93483 0.51949 0.0
C3050 C 0.37676 0.89725 0.40435 0.0
C3051 C 0.39552 0.92051 0.46028 0.0
C3052 C 0.36262 0.88993 0.37469 0.0
C3053 C 0.35102 0.89692 0.3692 0.0
C3054 C 0.38007 0.91225 0.42856 0.0
C3055 C 0.35448 0.91162 0.39522 0.0
C3056 C 0.40742 0.93911 0.46305 0.0
C3057 C 0.41233 0.91632 0.51557 0.0
N3058 N 0.3687 0.91888 0.42298 0.0
N3059 N 0.39865 0.90983 0.48661 0.0
H3060 H 0.3296 0.32053 1.01301 0.0
H3061 H 0.3526 0.4174 0.06674 0.0
H3062 H 0.32384 0.33991 0.13373 0.0
H3063 H 0.37381 0.40056 0.96481 0.0
H3064 H 0.32745 0.38686 0.07227 0.0
H3065 H 0.33038 0.34636 0.97947 0.0
C3066 C 0.32805 0.33001 0.03233 0.0
C3067 C 0.32754 0.32861 0.07633 0.0
C3068 C 0.33723 0.39007 0.0475 0.0
C3069 C 0.3284 0.35803 0.03831 0.0
C3070 C 0.35164 0.40747 0.04446 0.0
C3071 C 0.36582 0.41129 1.01676 0.0
C3072 C 0.33713 0.37659 1.02265 0.0
C3073 C 0.36346 0.39819 0.98734 0.0
C3074 C 0.32832 0.34464 1.01315 0.0
C3075 C 0.32478 0.34077 0.09978 0.0
N3076 N 0.34967 0.38125 0.99186 0.0
N3077 N 0.32584 0.35531 0.08057 0.0
H3078 H 0.69106 0.97153 0.10012 0.0
H3079 H 0.75455 1.02181 0.28577 0.0
H3080 H 0.67762 0.99185 0.20979 0.0
H3081 H 0.76962 1.00767 0.16859 0.0
H3082 H 0.72372 0.99808 0.27404 0.0
H3083 H 0.71572 0.97205 0.13918 0.0
C3084 C 0.69303 0.97568 0.13276 0.0
C3085 C 0.68282 0.98239 0.15129 0.0
C3086 C 0.73391 0.99979 0.25162 0.0
C3087 C 0.71107 0.98324 0.19588 0.0
C3088 C 0.75153 1.01335 0.25829 0.0
C3089 C 0.76446 1.01749 0.22682 0.0
C3090 C 0.72935 0.99053 0.21313 0.0
C3091 C 0.76002 1.0055 0.19304 0.0
C3092 C 0.7071 0.97596 0.1551 0.0
C3093 C 0.68573 0.98732 0.19383 0.0
N3094 N 0.74268 0.99295 0.18632 0.0
N3095 N 0.69986 0.98806 0.21442 0.0
H3096 H 0.05904 0.7537 1.0052 0.0
H3097 H 0.13256 0.7306 0.05199 0.0
H3098 H 0.08825 0.76337 0.12147 0.0
H3099 H 0.10087 0.71601 0.93845 0.0
H3100 H 0.12726 0.75535 0.06164 0.0
H3101 H 0.08324 0.7524 0.96834 0.0
C3102 C 0.07073 0.75589 1.02281 0.0
C3103 C 0.07133 0.75786 0.0667 0.0
C3104 C 0.12187 0.74708 0.03388 0.0
C3105 C 0.09897 0.75637 1.02487 0.0
C3106 C 0.12503 0.73292 1.02802 0.0
C3107 C 0.11621 0.72048 0.99563 0.0
C3108 C 0.10944 0.74844 1.00791 0.0
C3109 C 0.10702 0.72464 0.96533 0.0
C3110 C 0.0846 0.75531 1.00171 0.0
C3111 C 0.08704 0.76138 0.08775 0.0
N3112 N 0.10326 0.73789 0.97306 0.0
N3113 N 0.10004 0.76005 0.06681 0.0
H3114 H 0.423 0.36773 0.62397 0.0
H3115 H 0.35681 0.30529 0.46306 0.0
H3116 H 0.43423 0.33534 0.53969 0.0
H3117 H 0.34431 0.33175 0.56137 0.0
H3118 H 0.38093 0.30693 0.50645 0.0
H3119 H 0.39166 0.34527 0.62264 0.0
C3120 C 0.41909 0.35564 0.60621 0.0
C3121 C 0.43116 0.35413 0.57915 0.0
C3122 C 0.37264 0.31198 0.5191 0.0
C3123 C 0.39497 0.32875 0.57587 0.0
C3124 C 0.35887 0.31107 0.49421 0.0
C3125 C 0.34909 0.31911 0.50797 0.0
C3126 C 0.3768 0.32127 0.55757 0.0
C3127 C 0.35212 0.32614 0.54883 0.0
C3128 C 0.40098 0.34278 0.60514 0.0
C3129 C 0.42514 0.33771 0.55849 0.0
N3130 N 0.36598 0.32744 0.57179 0.0
N3131 N 0.4073 0.32598 0.55558 0.0
H3132 H 0.78505 0.05058 0.51887 0.0
H3133 H 0.74706 0.11486 0.48227 0.0
H3134 H 0.77151 0.06474 0.39974 0.0
H3135 H 0.743 0.08701 0.59801 0.0
H3136 H 0.77099 0.10965 0.45939 0.0
H3137 H 0.78404 0.07566 0.55171 0.0
C3138 C 0.7822 0.05915 0.49943 0.0
C3139 C 0.77754 0.05507 0.45687 0.0
C3140 C 0.76533 0.10526 0.49048 0.0
C3141 C 0.7768 0.08394 0.49406 0.0
C3142 C 0.75172 0.10835 0.50382 0.0
C3143 C 0.7425 0.10064 0.54137 0.0
C3144 C 0.7695 0.09425 0.5147 0.0
C3145 C 0.74931 0.09252 0.56804 0.0
C3146 C 0.78184 0.07357 0.51814 0.0
C3147 C 0.77481 0.06711 0.43281 0.0
N3148 N 0.76206 0.08902 0.55361 0.0
N3149 N 0.77406 0.08077 0.45197 0.0
H3150 H 1.03989 0.74994 0.52834 0.0
H3151 H 0.97263 0.65407 0.45633 0.0
H3152 H 1.02088 0.73275 0.40196 0.0
H3153 H 1.00036 0.66933 0.5751 0.0
H3154 H 0.97701 0.68416 0.44912 0.0
H3155 H 1.01347 0.7234 0.55547 0.0
C3156 C 1.02993 0.74078 0.50634 0.0
C3157 C 1.03296 0.74303 0.46283 0.0
C3158 C 0.98151 0.68073 0.4776 0.0
C3159 C 1.00285 0.71276 0.49353 0.0
C3160 C 0.97901 0.66356 0.48171 0.0
C3161 C 0.9869 0.65955 0.51542 0.0
C3162 C 0.99228 0.69389 0.50698 0.0
C3163 C 0.99448 0.67203 0.54807 0.0
C3164 C 1.01478 0.72573 0.52184 0.0
C3165 C 1.01932 0.73125 0.43574 0.0
N3166 N 0.99754 0.6889 0.5424 0.0
N3167 N 1.00507 0.71632 0.45151 0.0
H3168 H 0.75041 0.65137 0.97595 0.0
H3169 H 0.78816 0.75262 1.01912 0.0
H3170 H 0.74305 0.67432 0.0894 0.0
H3171 H 0.77756 0.72652 0.89821 0.0
H3172 H 0.78721 0.72646 0.05125 0.0
H3173 H 0.77592 0.68032 0.95781 0.0
C3174 C 0.75465 0.66227 0.99813 0.0
C3175 C 0.74417 0.66067 0.03347 0.0
C3176 C 0.78572 0.72675 1.01748 0.0
C3177 C 0.77302 0.6938 1.01229 0.0
C3178 C 0.78605 0.74156 0.99916 0.0
C3179 C 0.782 0.74133 0.95627 0.0
C3180 C 0.78126 0.71165 0.99269 0.0
C3181 C 0.78026 0.72709 0.93158 0.0
C3182 C 0.76919 0.67885 0.98757 0.0
C3183 C 0.75044 0.6752 0.06116 0.0
N3184 N 0.77942 0.71259 0.95036 0.0
N3185 N 0.76417 0.69136 0.04937 0.0
H3186 H 0.35692 0.05555 0.80847 0.0
H3187 H 0.41637 0.09869 0.99082 0.0
H3188 H 0.33932 0.07082 0.9199 0.0
H3189 H 0.4363 0.09795 0.86679 0.0
H3190 H 0.39089 0.09907 0.95914 0.0
H3191 H 0.38661 0.08104 0.81794 0.0
C3192 C 0.35906 0.06469 0.83398 0.0
C3193 C 0.34589 0.0605 0.86477 0.0
C3194 C 0.40106 0.09933 0.93865 0.0
C3195 C 0.38019 0.08913 0.87731 0.0
C3196 C 0.41567 0.09912 0.95687 0.0
C3197 C 0.42797 0.09735 0.93139 0.0
C3198 C 0.39854 0.09722 0.89485 0.0
C3199 C 0.42655 0.09832 0.8876 0.0
C3200 C 0.37619 0.07926 0.83973 0.0
C3201 C 0.34945 0.07305 0.89676 0.0
N3202 N 0.41178 0.09763 0.87067 0.0
N3203 N 0.36649 0.08643 0.90329 0.0
H3204 H 0.99254 0.35574 0.85692 0.0
H3205 H 1.02275 0.2866 0.90394 0.0
H3206 H 0.99722 0.3364 0.97872 0.0
H3207 H 1.03113 0.31487 0.78673 0.0
H3208 H 0.99859 0.29231 0.92061 0.0
H3209 H 0.99253 0.33013 0.82418 0.0
C3210 C 0.99324 0.34594 0.87685 0.0
C3211 C 0.99571 0.34863 0.92048 0.0
C3212 C 1.00527 0.29673 0.89051 0.0
C3213 C 0.9954 0.31922 0.88328 0.0
C3214 C 1.01904 0.29332 0.88066 0.0
C3215 C 1.02965 0.30114 0.84481 0.0
C3216 C 1.00241 0.30824 0.86468 0.0
C3217 C 1.02384 0.30938 0.8157 0.0
C3218 C 0.99302 0.33123 0.85815 0.0
C3219 C 0.99569 0.33511 0.94491 0.0
N3220 N 1.01102 0.31333 0.82696 0.0
N3221 N 0.99601 0.3212 0.92587 0.0
H3222 H 0.77148 0.78099 0.67114 0.0
H3223 H 0.67481 0.70729 0.71769 0.0
H3224 H 0.75437 0.74954 0.78495 0.0
H3225 H 0.69458 0.73589 0.60082 0.0
H3226 H 0.70022 0.73159 0.75432 0.0
H3227 H 0.74131 0.77538 0.66084 0.0
C3228 C 0.7616 0.77345 0.69503 0.0
C3229 C 0.76527 0.76478 0.72768 0.0
C3230 C 0.69875 0.73279 0.72085 0.0
C3231 C 0.73042 0.75766 0.7147 0.0
C3232 C 0.68434 0.71885 0.69987 0.0
C3233 C 0.68305 0.71926 0.65592 0.0
C3234 C 0.71208 0.74704 0.69753 0.0
C3235 C 0.69529 0.73483 0.6346 0.0
C3236 C 0.74421 0.77011 0.6888 0.0
C3237 C 0.75186 0.75558 0.75788 0.0
N3238 N 0.70956 0.74791 0.65546 0.0
N3239 N 0.73481 0.75164 0.7498 0.0
H3240 H 0.38025 0.97879 0.71539 0.0
H3241 H 0.31015 1.00693 0.66857 0.0
H3242 H 0.35354 0.97379 0.59727 0.0
H3243 H 0.34468 1.02228 0.77731 0.0
H3244 H 0.31362 0.98089 0.65984 0.0
H3245 H 0.35611 0.98037 0.75175 0.0
C3246 C 0.36907 0.9776 0.69722 0.0
C3247 C 0.36928 0.97705 0.65312 0.0
C3248 C 0.31993 0.98959 0.68655 0.0
C3249 C 0.34175 0.97886 0.69435 0.0
C3250 C 0.31788 1.00449 0.69177 0.0
C3251 C 0.32791 1.01733 0.72249 0.0
C3252 C 0.33236 0.98784 0.71163 0.0
C3253 C 0.33741 1.01317 0.75191 0.0
C3254 C 0.35523 0.97834 0.71802 0.0
C3255 C 0.35416 0.97473 0.63123 0.0
N3256 N 0.33989 0.99906 0.74496 0.0
N3257 N 0.34122 0.97624 0.65199 0.0
H3258 H 0.10326 0.38881 0.52129 0.0
H3259 H 0.07952 0.34578 0.73282 0.0
H3260 H 0.12674 0.41994 0.63331 0.0
H3261 H 0.0787 0.31627 0.62251 0.0
H3262 H 0.10319 0.37307 0.70055 0.0
H3263 H 0.10065 0.36259 0.557 0.0
C3264 C 0.10842 0.3902 0.55297 0.0
C3265 C 0.11487 0.40634 0.57476 0.0
C3266 C 0.09832 0.36052 0.684 0.0
C3267 C 0.11136 0.37643 0.6164 0.0
C3268 C 0.08478 0.34496 0.70246 0.0
C3269 C 0.07673 0.32891 0.6797 0.0
C3270 C 0.10339 0.35999 0.64221 0.0
C3271 C 0.08429 0.32844 0.6409 0.0
C3272 C 0.10697 0.37527 0.57345 0.0
C3273 C 0.12151 0.4076 0.61566 0.0
N3274 N 0.09679 0.34388 0.62272 0.0
N3275 N 0.11904 0.39266 0.63573 0.0
H3276 H 1.00603 0.61608 0.73249 0.0
H3277 H 0.08259 0.66818 0.82135 0.0
H3278 H 1.0296 0.66003 0.64443 0.0
H3279 H 0.10642 0.68717 0.69928 0.0
H3280 H 0.05723 0.64304 0.78795 0.0
H3281 H 1.03577 0.62011 0.74552 0.0
C3282 C 1.01732 0.62632 0.71519 0.0
C3283 C 1.01544 0.63863 0.68978 0.0
C3284 C 0.06831 0.65219 0.76832 0.0
C3285 C 1.04925 0.64307 0.70411 0.0
C3286 C 0.08283 0.66669 0.78757 0.0
C3287 C 0.09618 0.68023 0.76287 0.0
C3288 C 0.06704 0.65154 0.72415 0.0
C3289 C 0.09589 0.67745 0.7193 0.0
C3290 C 1.03427 0.62853 0.72255 0.0
C3291 C 1.0303 0.65067 0.6658 0.0
N3292 N 0.0812 0.66376 0.70114 0.0
N3293 N 1.04669 0.65292 0.6745 0.0
H3294 H 0.45308 0.38318 0.85374 0.0
H3295 H 0.41659 0.4481 0.81512 0.0
H3296 H 0.44375 0.40061 0.73399 0.0
H3297 H 0.40854 0.41672 0.92706 0.0
H3298 H 0.44199 0.44446 0.79664 0.0
H3299 H 0.45218 0.4081 0.88777 0.0
C3300 C 0.45125 0.39249 0.83446 0.0
C3301 C 0.44756 0.38932 0.79127 0.0
C3302 C 0.43511 0.43898 0.82612 0.0
C3303 C 0.44686 0.41791 0.82985 0.0
C3304 C 0.42063 0.44112 0.83689 0.0
C3305 C 0.40996 0.432 0.87175 0.0
C3306 C 0.43868 0.42748 0.85012 0.0
C3307 C 0.416 0.42335 0.89897 0.0
C3308 C 0.45094 0.4068 0.85387 0.0
C3309 C 0.44617 0.40224 0.76752 0.0
N3310 N 0.42967 0.42082 0.88691 0.0
N3311 N 0.44535 0.41574 0.78731 0.0
H3312 H 0.68814 0.06761 0.77892 0.0
H3313 H 0.68666 1.00441 0.9449 0.0
H3314 H 0.72755 0.08205 0.87698 0.0
H3315 H 0.64216 0.9912 0.86174 0.0
H3316 H 0.69489 1.03548 0.94109 0.0
H3317 H 0.66607 0.04387 0.8239 0.0
C3318 C 0.69202 0.06604 0.81034 0.0
C3319 C 0.70984 0.07621 0.82367 0.0
C3320 C 0.68303 1.02579 0.92436 0.0
C3321 C 0.68483 0.04906 0.87508 0.0
C3322 C 0.67815 1.00783 0.92688 0.0
C3323 C 0.66445 0.99522 0.90097 0.0
C3324 C 0.67457 1.03114 0.89467 0.0
C3325 C 0.65369 1.00068 0.87971 0.0
C3326 C 0.67941 0.05252 0.83613 0.0
C3327 C 0.7141 0.07391 0.86488 0.0
N3328 N 0.65946 1.01838 0.87534 0.0
N3329 N 0.7018 0.0603 0.88876 0.0
H3330 H 0.46767 0.08298 0.16786 0.0
H3331 H 0.41905 1.00539 0.26046 0.0
H3332 H 0.41753 0.06804 0.10614 0.0
H3333 H 0.38108 0.98972 0.15869 0.0
H3334 H 0.44093 1.02995 0.21794 0.0
H3335 H 0.45891 0.05141 0.17221 0.0
C3336 C 0.45501 0.07313 0.1543 0.0
C3337 C 0.44273 0.0781 0.13954 0.0
C3338 C 0.42812 1.02083 0.20392 0.0
C3339 C 0.43251 0.04212 0.14521 0.0
C3340 C 0.41552 1.0068 0.22856 0.0
C3341 C 0.39804 0.99597 0.21361 0.0
C3342 C 0.42307 1.02409 0.16423 0.0
C3343 C 0.39423 0.99828 0.17198 0.0
C3344 C 0.44995 0.05507 0.15714 0.0
C3345 C 0.42714 0.06492 0.11971 0.0
N3346 N 0.40649 1.01236 0.14912 0.0
N3347 N 0.4222 0.04746 0.12442 0.0
H3348 H 1.00536 0.39681 0.22098 0.0
H3349 H 0.1029 0.42114 0.17656 0.0
H3350 H 1.02347 0.38313 0.10765 0.0
H3351 H 0.08175 0.42755 0.29417 0.0
H3352 H 0.07749 0.42007 0.13987 0.0
H3353 H 1.03543 0.42129 0.23275 0.0
C3354 C 1.01545 0.39929 0.1975 0.0
C3355 C 1.01207 0.38718 0.16449 0.0
C3356 C 0.07866 0.42222 0.17356 0.0
C3357 C 1.04677 0.41482 0.17913 0.0
C3358 C 0.09306 0.42265 0.19457 0.0
C3359 C 0.09397 0.42363 0.23865 0.0
C3360 C 0.06499 0.42251 0.19695 0.0
C3361 C 0.08135 0.42634 0.26025 0.0
C3362 C 1.03277 0.41329 0.20458 0.0
C3363 C 1.02573 0.39152 0.13491 0.0
N3364 N 0.06712 0.42523 0.23928 0.0
N3365 N 1.0427 0.4046 0.14376 0.0
H3366 H 0.66103 0.69207 0.18621 0.0
H3367 H 0.69277 0.62445 0.23367 0.0
H3368 H 0.66203 0.67005 0.30726 0.0
H3369 H 0.7046 0.65674 0.12195 0.0
H3370 H 0.66703 0.62817 0.24663 0.0
H3371 H 0.6621 0.66725 0.15218 0.0
C3372 C 0.66105 0.68177 0.20561 0.0
C3373 C 0.66234 0.68353 0.24956 0.0
C3374 C 0.67484 0.63386 0.21832 0.0
C3375 C 0.66352 0.65521 0.21095 0.0
C3376 C 0.68954 0.63166 0.21069 0.0
C3377 C 0.70132 0.64096 0.1775 0.0
C3378 C 0.67217 0.64564 0.193 0.0
C3379 C 0.69623 0.64989 0.14868 0.0
C3380 C 0.6615 0.66754 0.18618 0.0
C3381 C 0.66153 0.66947 0.27326 0.0
N3382 N 0.68233 0.65249 0.15776 0.0
N3383 N 0.66269 0.65612 0.25362 0.0
loop_
_geom_bond_atom_site_label_1
_geom_bond_atom_site_label_2
_geom_bond_distance
_geom_bond_site_symmetry_2
_ccdc_geom_bond_type
La0 C2 2.928 . S
La0 O20 2.521 . S
La0 O21 2.628 . S
La0 O22 2.554 . S
La0 O23 2.757 . S
La0 O24 2.470 . S
La0 O29 2.482 . S
La0 O31 2.503 . S
La1 C11 2.928 . S
La1 O23 2.482 . S
La1 O25 2.503 . S
La1 O26 2.521 . S
La1 O27 2.628 . S
La1 O28 2.554 . S
La1 O29 2.757 . S
La1 O30 2.470 . S
C2 La0 2.928 . S
C2 C3 1.503 . S
C2 O20 1.261 . S
C2 O21 1.243 . S
C3 C2 1.503 . S
C3 C4 1.394 . S
C3 C8 1.373 . S
C4 C3 1.394 . S
C4 C5 1.380 . S
C4 H32 0.930 . S
C5 C4 1.380 . S
C5 C6 1.376 . S
C5 H33 0.930 . S
C6 C5 1.376 . S
C6 C7 1.370 . S
C7 C6 1.370 . S
C7 C8 1.396 . S
C7 H34 0.929 . S
C8 C3 1.373 . S
C8 C7 1.396 . S
C8 H35 0.929 . S
C9 O22 1.240 . S
C9 O23 1.289 . S
C10 O24 1.258 . S
C10 O25 1.256 . S
C11 La1 2.928 . S
C11 C12 1.503 . S
C11 O26 1.261 . S
C11 O27 1.243 . S
C12 C11 1.503 . S
C12 C13 1.394 . S
C12 C17 1.373 . S
C13 C12 1.394 . S
C13 C14 1.380 . S
C13 H36 0.930 . S
C14 C13 1.380 . S
C14 C15 1.376 . S
C14 H37 0.930 . S
C15 C14 1.376 . S
C15 C16 1.370 . S
C16 C15 1.370 . S
C16 C17 1.396 . S
C16 H38 0.929 . S
C17 C12 1.373 . S
C17 C16 1.396 . S
C17 H39 0.929 . S
C18 O28 1.240 . S
C18 O29 1.289 . S
C19 O30 1.258 . S
C19 O31 1.256 . S
O20 La0 2.521 . S
O20 C2 1.261 . S
O21 La0 2.628 . S
O21 C2 1.243 . S
O22 La0 2.554 . S
O22 C9 1.240 . S
O23 La0 2.757 . S
O23 La1 2.482 . S
O23 C9 1.289 . S
O24 La0 2.470 . S
O24 C10 1.258 . S
O25 La1 2.503 . S
O25 C10 1.256 . S
O26 La1 2.521 . S
O26 C11 1.261 . S
O27 La1 2.628 . S
O27 C11 1.243 . S
O28 La1 2.554 . S
O28 C18 1.240 . S
O29 La0 2.482 . S
O29 La1 2.757 . S
O29 C18 1.289 . S
O30 La1 2.470 . S
O30 C19 1.258 . S
O31 La0 2.503 . S
O31 C19 1.256 . S
H32 C4 0.930 . S
H33 C5 0.930 . S
H34 C7 0.929 . S
H35 C8 0.929 . S
H36 C13 0.930 . S
H37 C14 0.930 . S
H38 C16 0.929 . S
H39 C17 0.929 . S
La40 C42 2.928 . S
La40 O60 2.521 . S
La40 O61 2.628 . S
La40 O62 2.554 . S
La40 O63 2.757 . S
La40 O64 2.470 . S
La40 O69 2.482 . S
La40 O71 2.503 . S
La41 C51 2.928 . S
La41 O63 2.482 . S
La41 O65 2.503 . S
La41 O66 2.521 . S
La41 O67 2.628 . S
La41 O68 2.554 . S
La41 O69 2.757 . S
La41 O70 2.470 . S
C42 La40 2.928 . S
C42 C43 1.503 . S
C42 O60 1.261 . S
C42 O61 1.243 . S
C43 C42 1.503 . S
C43 C44 1.394 . S
C43 C48 1.373 . S
C44 C43 1.394 . S
C44 C45 1.380 . S
C44 H72 0.930 . S
C45 C44 1.380 . S
C45 C46 1.376 . S
C45 H73 0.930 . S
C46 C45 1.376 . S
C46 C47 1.370 . S
C47 C46 1.370 . S
C47 C48 1.396 . S
C47 H74 0.929 . S
C48 C43 1.373 . S
C48 C47 1.396 . S
C48 H75 0.929 . S
C49 O62 1.240 . S
C49 O63 1.289 . S
C50 O64 1.258 . S
C50 O65 1.256 . S
C51 La41 2.928 . S
C51 C52 1.503 . S
C51 O66 1.261 . S
C51 O67 1.243 . S
C52 C51 1.503 . S
C52 C53 1.394 . S
C52 C57 1.373 . S
C53 C52 1.394 . S
C53 C54 1.380 . S
C53 H76 0.930 . S
C54 C53 1.380 . S
C54 C55 1.315 1_545 S
C54 H77 0.930 . S
C55 C54 1.315 1_565 S
C55 C56 1.407 . S
C56 C55 1.407 . S
C56 C57 1.396 1_565 S
C56 H78 0.929 . S
C57 C52 1.373 . S
C57 C56 1.396 1_545 S
C57 H79 0.929 . S
C58 O68 1.240 . S
C58 O69 1.289 . S
C59 O70 1.258 . S
C59 O71 1.256 . S
O60 La40 2.521 . S
O60 C42 1.261 . S
O61 La40 2.628 . S
O61 C42 1.243 . S
O62 La40 2.554 . S
O62 C49 1.240 . S
O63 La40 2.757 . S
O63 La41 2.482 . S
O63 C49 1.289 . S
O64 La40 2.470 . S
O64 C50 1.258 . S
O65 La41 2.503 . S
O65 C50 1.256 . S
O66 La41 2.521 . S
O66 C51 1.261 . S
O67 La41 2.628 . S
O67 C51 1.243 . S
O68 La41 2.554 . S
O68 C58 1.240 . S
O69 La40 2.482 . S
O69 La41 2.757 . S
O69 C58 1.289 . S
O70 La41 2.470 . S
O70 C59 1.258 . S
O71 La40 2.503 . S
O71 C59 1.256 . S
H72 C44 0.930 . S
H73 C45 0.930 . S
H74 C47 0.929 . S
H75 C48 0.929 . S
H76 C53 0.930 . S
H77 C54 0.930 . S
H78 C56 0.929 . S
H79 C57 0.929 . S
La80 C82 2.928 . S
La80 O100 2.521 . S
La80 O101 2.628 . S
La80 O102 2.554 . S
La80 O103 2.757 . S
La80 O104 2.470 . S
La80 O109 2.482 . S
La80 O111 2.503 . S
La81 C91 2.928 . S
La81 O103 2.482 . S
La81 O105 2.503 . S
La81 O106 2.521 . S
La81 O107 2.628 . S
La81 O108 2.554 . S
La81 O109 2.757 . S
La81 O110 2.470 . S
C82 La80 2.928 . S
C82 C83 1.503 . S
C82 O100 1.261 . S
C82 O101 1.243 . S
C83 C82 1.503 . S
C83 C84 1.394 . S
C83 C88 1.373 . S
C84 C83 1.394 . S
C84 C85 1.380 . S
C84 H112 0.930 . S
C85 C84 1.380 . S
C85 C86 1.376 . S
C85 H113 0.930 . S
C86 C85 1.376 . S
C86 C87 1.370 . S
C87 C86 1.370 . S
C87 C88 1.396 . S
C87 H114 0.929 . S
C88 C83 1.373 . S
C88 C87 1.396 . S
C88 H115 0.929 . S
C89 O102 1.240 . S
C89 O103 1.289 . S
C90 O104 1.258 . S
C90 O105 1.256 . S
C91 La81 2.928 . S
C91 C92 1.503 . S
C91 O106 1.261 . S
C91 O107 1.243 . S
C92 C91 1.503 . S
C92 C93 1.394 . S
C92 C97 1.373 . S
C93 C92 1.394 . S
C93 C94 1.380 . S
C93 H116 0.930 . S
C94 C93 1.380 . S
C94 C95 1.333 1_655 S
C94 H117 0.930 . S
C95 C94 1.333 1_455 S
C95 C96 1.345 . S
C96 C95 1.345 . S
C96 C97 1.396 1_455 S
C96 H118 0.929 . S
C97 C92 1.373 . S
C97 C96 1.396 1_655 S
C97 H119 0.929 . S
C98 O108 1.240 . S
C98 O109 1.289 . S
C99 O110 1.258 . S
C99 O111 1.256 . S
O100 La80 2.521 . S
O100 C82 1.261 . S
O101 La80 2.628 . S
O101 C82 1.243 . S
O102 La80 2.554 . S
O102 C89 1.240 . S
O103 La80 2.757 . S
O103 La81 2.482 . S
O103 C89 1.289 . S
O104 La80 2.470 . S
O104 C90 1.258 . S
O105 La81 2.503 . S
O105 C90 1.256 . S
O106 La81 2.521 . S
O106 C91 1.261 . S
O107 La81 2.628 . S
O107 C91 1.243 . S
O108 La81 2.554 . S
O108 C98 1.240 . S
O109 La80 2.482 . S
O109 La81 2.757 . S
O109 C98 1.289 . S
O110 La81 2.470 . S
O110 C99 1.258 . S
O111 La80 2.503 . S
O111 C99 1.256 . S
H112 C84 0.930 . S
H113 C85 0.930 . S
H114 C87 0.929 . S
H115 C88 0.929 . S
H116 C93 0.930 . S
H117 C94 0.930 . S
H118 C96 0.929 . S
H119 C97 0.929 . S
La120 C122 2.928 . S
La120 O140 2.521 . S
La120 O141 2.628 . S
La120 O142 2.554 . S
La120 O143 2.757 . S
La120 O144 2.470 . S
La120 O149 2.482 . S
La120 O151 2.503 . S
La121 C131 2.928 . S
La121 O143 2.482 . S
La121 O145 2.503 . S
La121 O146 2.521 . S
La121 O147 2.628 . S
La121 O148 2.554 . S
La121 O149 2.757 . S
La121 O150 2.470 . S
C122 La120 2.928 . S
C122 C123 1.503 . S
C122 O140 1.261 . S
C122 O141 1.243 . S
C123 C122 1.503 . S
C123 C124 1.394 . S
C123 C128 1.373 . S
C124 C123 1.394 . S
C124 C125 1.380 . S
C124 H152 0.930 . S
C125 C124 1.380 . S
C125 C126 1.376 . S
C125 H153 0.930 . S
C126 C125 1.376 . S
C126 C127 1.370 . S
C127 C126 1.370 . S
C127 C128 1.396 . S
C127 H154 0.929 . S
C128 C123 1.373 . S
C128 C127 1.396 . S
C128 H155 0.929 . S
C129 O142 1.240 . S
C129 O143 1.289 . S
C130 O144 1.258 . S
C130 O145 1.256 . S
C131 La121 2.928 . S
C131 C132 1.503 . S
C131 O146 1.261 . S
C131 O147 1.243 . S
C132 C131 1.503 . S
C132 C133 1.394 . S
C132 C137 1.373 . S
C133 C132 1.394 . S
C133 C134 1.380 . S
C133 H156 0.930 . S
C134 C133 1.380 . S
C134 C135 1.376 . S
C134 H157 0.930 . S
C135 C134 1.376 . S
C135 C136 1.370 . S
C136 C135 1.370 . S
C136 C137 1.396 . S
C136 H158 0.929 . S
C137 C132 1.373 . S
C137 C136 1.396 . S
C137 H159 0.929 . S
C138 O148 1.240 . S
C138 O149 1.289 . S
C139 O150 1.258 . S
C139 O151 1.256 . S
O140 La120 2.521 . S
O140 C122 1.261 . S
O141 La120 2.628 . S
O141 C122 1.243 . S
O142 La120 2.554 . S
O142 C129 1.240 . S
O143 La120 2.757 . S
O143 La121 2.482 . S
O143 C129 1.289 . S
O144 La120 2.470 . S
O144 C130 1.258 . S
O145 La121 2.503 . S
O145 C130 1.256 . S
O146 La121 2.521 . S
O146 C131 1.261 . S
O147 La121 2.628 . S
O147 C131 1.243 . S
O148 La121 2.554 . S
O148 C138 1.240 . S
O149 La120 2.482 . S
O149 La121 2.757 . S
O149 C138 1.289 . S
O150 La121 2.470 . S
O150 C139 1.258 . S
O151 La120 2.503 . S
O151 C139 1.256 . S
H152 C124 0.930 . S
H153 C125 0.930 . S
H154 C127 0.929 . S
H155 C128 0.929 . S
H156 C133 0.930 . S
H157 C134 0.930 . S
H158 C136 0.929 . S
H159 C137 0.929 . S
La160 C162 2.928 . S
La160 O180 2.521 . S
La160 O181 2.628 . S
La160 O182 2.554 . S
La160 O183 2.757 . S
La160 O184 2.470 . S
La160 O189 2.482 . S
La160 O191 2.503 . S
La161 C171 2.928 . S
La161 O183 2.482 . S
La161 O185 2.503 . S
La161 O186 2.521 . S
La161 O187 2.628 . S
La161 O188 2.554 . S
La161 O189 2.757 . S
La161 O190 2.470 . S
C162 La160 2.928 . S
C162 C163 1.503 . S
C162 O180 1.261 . S
C162 O181 1.243 . S
C163 C162 1.503 . S
C163 C164 1.394 . S
C163 C168 1.373 . S
C164 C163 1.394 . S
C164 C165 1.380 . S
C164 H192 0.930 . S
C165 C164 1.380 . S
C165 C166 1.376 . S
C165 H193 0.930 . S
C166 C165 1.376 . S
C166 C167 1.370 . S
C167 C166 1.370 . S
C167 C168 1.396 . S
C167 H194 0.929 . S
C168 C163 1.373 . S
C168 C167 1.396 . S
C168 H195 0.929 . S
C169 O182 1.240 . S
C169 O183 1.289 . S
C170 O184 1.258 . S
C170 O185 1.256 . S
C171 La161 2.928 . S
C171 C172 1.503 . S
C171 O186 1.261 . S
C171 O187 1.243 . S
C172 C171 1.503 . S
C172 C173 1.394 . S
C172 C177 1.373 . S
C173 C172 1.394 . S
C173 C174 1.380 . S
C173 H196 0.930 . S
C174 C173 1.380 . S
C174 C175 1.333 1_565 S
C174 H197 0.930 . S
C175 C174 1.333 1_545 S
C175 C176 1.345 . S
C176 C175 1.345 . S
C176 C177 1.396 1_545 S
C176 H198 0.929 . S
C177 C172 1.373 . S
C177 C176 1.396 1_565 S
C177 H199 0.929 . S
C178 O188 1.240 . S
C178 O189 1.289 . S
C179 O190 1.258 . S
C179 O191 1.256 . S
O180 La160 2.521 . S
O180 C162 1.261 . S
O181 La160 2.628 . S
O181 C162 1.243 . S
O182 La160 2.554 . S
O182 C169 1.240 . S
O183 La160 2.757 . S
O183 La161 2.482 . S
O183 C169 1.289 . S
O184 La160 2.470 . S
O184 C170 1.258 . S
O185 La161 2.503 . S
O185 C170 1.256 . S
O186 La161 2.521 . S
O186 C171 1.261 . S
O187 La161 2.628 . S
O187 C171 1.243 . S
O188 La161 2.554 . S
O188 C178 1.240 . S
O189 La160 2.482 . S
O189 La161 2.757 . S
O189 C178 1.289 . S
O190 La161 2.470 . S
O190 C179 1.258 . S
O191 La160 2.503 . S
O191 C179 1.256 . S
H192 C164 0.930 . S
H193 C165 0.930 . S
H194 C167 0.929 . S
H195 C168 0.929 . S
H196 C173 0.930 . S
H197 C174 0.930 . S
H198 C176 0.929 . S
H199 C177 0.929 . S
La200 C202 2.928 . S
La200 O220 2.521 . S
La200 O221 2.628 . S
La200 O222 2.554 . S
La200 O223 2.757 . S
La200 O224 2.470 . S
La200 O229 2.482 . S
La200 O231 2.503 . S
La201 C211 2.928 . S
La201 O223 2.482 . S
La201 O225 2.503 . S
La201 O226 2.521 . S
La201 O227 2.628 . S
La201 O228 2.554 . S
La201 O229 2.757 . S
La201 O230 2.470 . S
C202 La200 2.928 . S
C202 C203 1.503 . S
C202 O220 1.261 . S
C202 O221 1.243 . S
C203 C202 1.503 . S
C203 C204 1.394 . S
C203 C208 1.373 . S
C204 C203 1.394 . S
C204 C205 1.380 . S
C204 H232 0.930 . S
C205 C204 1.380 . S
C205 C206 1.376 . S
C205 H233 0.930 . S
C206 C205 1.376 . S
C206 C207 1.370 . S
C207 C206 1.370 . S
C207 C208 1.396 . S
C207 H234 0.929 . S
C208 C203 1.373 . S
C208 C207 1.396 . S
C208 H235 0.929 . S
C209 O222 1.240 . S
C209 O223 1.289 . S
C210 O224 1.258 . S
C210 O225 1.256 . S
C211 La201 2.928 . S
C211 C212 1.503 . S
C211 O226 1.261 . S
C211 O227 1.243 . S
C212 C211 1.503 . S
C212 C213 1.394 . S
C212 C217 1.373 . S
C213 C212 1.394 . S
C213 C214 1.380 . S
C213 H236 0.930 . S
C214 C213 1.380 . S
C214 C215 1.315 1_455 S
C214 H237 0.930 . S
C215 C214 1.315 1_655 S
C215 C216 1.407 . S
C216 C215 1.407 . S
C216 C217 1.396 1_655 S
C216 H238 0.929 . S
C217 C212 1.373 . S
C217 C216 1.396 1_455 S
C217 H239 0.929 . S
C218 O228 1.240 . S
C218 O229 1.289 . S
C219 O230 1.258 . S
C219 O231 1.256 . S
O220 La200 2.521 . S
O220 C202 1.261 . S
O221 La200 2.628 . S
O221 C202 1.243 . S
O222 La200 2.554 . S
O222 C209 1.240 . S
O223 La200 2.757 . S
O223 La201 2.482 . S
O223 C209 1.289 . S
O224 La200 2.470 . S
O224 C210 1.258 . S
O225 La201 2.503 . S
O225 C210 1.256 . S
O226 La201 2.521 . S
O226 C211 1.261 . S
O227 La201 2.628 . S
O227 C211 1.243 . S
O228 La201 2.554 . S
O228 C218 1.240 . S
O229 La200 2.482 . S
O229 La201 2.757 . S
O229 C218 1.289 . S
O230 La201 2.470 . S
O230 C219 1.258 . S
O231 La200 2.503 . S
O231 C219 1.256 . S
H232 C204 0.930 . S
H233 C205 0.930 . S
H234 C207 0.929 . S
H235 C208 0.929 . S
H236 C213 0.930 . S
H237 C214 0.930 . S
H238 C216 0.929 . S
H239 C217 0.929 . S
La240 C242 2.928 . S
La240 O260 2.521 . S
La240 O261 2.628 . S
La240 O262 2.554 . S
La240 O263 2.757 . S
La240 O264 2.470 . S
La240 O269 2.482 . S
La240 O271 2.503 . S
La241 C251 2.928 . S
La241 O263 2.482 . S
La241 O265 2.503 . S
La241 O266 2.521 . S
La241 O267 2.628 . S
La241 O268 2.554 . S
La241 O269 2.757 . S
La241 O270 2.470 . S
C242 La240 2.928 . S
C242 C243 1.503 . S
C242 O260 1.261 . S
C242 O261 1.243 . S
C243 C242 1.503 . S
C243 C244 1.394 . S
C243 C248 1.373 . S
C244 C243 1.394 . S
C244 C245 1.380 . S
C244 H272 0.930 . S
C245 C244 1.380 . S
C245 C246 1.376 . S
C245 H273 0.930 . S
C246 C245 1.376 . S
C246 C247 1.370 . S
C247 C246 1.370 . S
C247 C248 1.396 . S
C247 H274 0.929 . S
C248 C243 1.373 . S
C248 C247 1.396 . S
C248 H275 0.929 . S
C249 O262 1.240 . S
C249 O263 1.289 . S
C250 O264 1.258 . S
C250 O265 1.256 . S
C251 La241 2.928 . S
C251 C252 1.503 . S
C251 O266 1.261 . S
C251 O267 1.243 . S
C252 C251 1.503 . S
C252 C253 1.394 . S
C252 C257 1.373 . S
C253 C252 1.394 . S
C253 C254 1.380 . S
C253 H276 0.930 . S
C254 C253 1.380 . S
C254 C255 1.376 . S
C254 H277 0.930 . S
C255 C254 1.376 . S
C255 C256 1.370 . S
C256 C255 1.370 . S
C256 C257 1.396 . S
C256 H278 0.929 . S
C257 C252 1.373 . S
C257 C256 1.396 . S
C257 H279 0.929 . S
C258 O268 1.240 . S
C258 O269 1.289 . S
C259 O270 1.258 . S
C259 O271 1.256 . S
O260 La240 2.521 . S
O260 C242 1.261 . S
O261 La240 2.628 . S
O261 C242 1.243 . S
O262 La240 2.554 . S
O262 C249 1.240 . S
O263 La240 2.757 . S
O263 La241 2.482 . S
O263 C249 1.289 . S
O264 La240 2.470 . S
O264 C250 1.258 . S
O265 La241 2.503 . S
O265 C250 1.256 . S
O266 La241 2.521 . S
O266 C251 1.261 . S
O267 La241 2.628 . S
O267 C251 1.243 . S
O268 La241 2.554 . S
O268 C258 1.240 . S
O269 La240 2.482 . S
O269 La241 2.757 . S
O269 C258 1.289 . S
O270 La241 2.470 . S
O270 C259 1.258 . S
O271 La240 2.503 . S
O271 C259 1.256 . S
H272 C244 0.930 . S
H273 C245 0.930 . S
H274 C247 0.929 . S
H275 C248 0.929 . S
H276 C253 0.930 . S
H277 C254 0.930 . S
H278 C256 0.929 . S
H279 C257 0.929 . S
La280 C282 2.928 . S
La280 O300 2.521 . S
La280 O301 2.628 . S
La280 O302 2.554 . S
La280 O303 2.757 . S
La280 O304 2.470 . S
La280 O309 2.482 . S
La280 O311 2.503 . S
La281 C291 2.928 . S
La281 O303 2.482 . S
La281 O305 2.503 . S
La281 O306 2.521 . S
La281 O307 2.628 . S
La281 O308 2.554 . S
La281 O309 2.757 . S
La281 O310 2.470 . S
C282 La280 2.928 . S
C282 C283 1.503 . S
C282 O300 1.261 . S
C282 O301 1.243 . S
C283 C282 1.503 . S
C283 C284 1.394 . S
C283 C288 1.373 . S
C284 C283 1.394 . S
C284 C285 1.380 . S
C284 H312 0.930 . S
C285 C284 1.380 . S
C285 C286 1.315 1_565 S
C285 H313 0.930 . S
C286 C285 1.315 1_545 S
C286 C287 1.407 . S
C287 C286 1.407 . S
C287 C288 1.396 1_545 S
C287 H314 0.929 . S
C288 C283 1.373 . S
C288 C287 1.396 1_565 S
C288 H315 0.929 . S
C289 O302 1.240 . S
C289 O303 1.289 . S
C290 O304 1.258 . S
C290 O305 1.256 . S
C291 La281 2.928 . S
C291 C292 1.503 . S
C291 O306 1.261 . S
C291 O307 1.243 . S
C292 C291 1.503 . S
C292 C293 1.394 . S
C292 C297 1.373 . S
C293 C292 1.394 . S
C293 C294 1.380 . S
C293 H316 0.930 . S
C294 C293 1.380 . S
C294 C295 1.376 . S
C294 H317 0.930 . S
C295 C294 1.376 . S
C295 C296 1.370 . S
C296 C295 1.370 . S
C296 C297 1.396 . S
C296 H318 0.929 . S
C297 C292 1.373 . S
C297 C296 1.396 . S
C297 H319 0.929 . S
C298 O308 1.240 . S
C298 O309 1.289 . S
C299 O310 1.258 . S
C299 O311 1.256 . S
O300 La280 2.521 . S
O300 C282 1.261 . S
O301 La280 2.628 . S
O301 C282 1.243 . S
O302 La280 2.554 . S
O302 C289 1.240 . S
O303 La280 2.757 . S
O303 La281 2.482 . S
O303 C289 1.289 . S
O304 La280 2.470 . S
O304 C290 1.258 . S
O305 La281 2.503 . S
O305 C290 1.256 . S
O306 La281 2.521 . S
O306 C291 1.261 . S
O307 La281 2.628 . S
O307 C291 1.243 . S
O308 La281 2.554 . S
O308 C298 1.240 . S
O309 La280 2.482 . S
O309 La281 2.757 . S
O309 C298 1.289 . S
O310 La281 2.470 . S
O310 C299 1.258 . S
O311 La280 2.503 . S
O311 C299 1.256 . S
H312 C284 0.930 . S
H313 C285 0.930 . S
H314 C287 0.929 . S
H315 C288 0.929 . S
H316 C293 0.930 . S
H317 C294 0.930 . S
H318 C296 0.929 . S
H319 C297 0.929 . S
La320 C322 2.928 . S
La320 O340 2.521 . S
La320 O341 2.628 . S
La320 O342 2.554 . S
La320 O343 2.757 . S
La320 O344 2.470 . S
La320 O349 2.482 . S
La320 O351 2.503 . S
La321 C331 2.928 . S
La321 O343 2.482 . S
La321 O345 2.503 . S
La321 O346 2.521 . S
La321 O347 2.628 . S
La321 O348 2.554 . S
La321 O349 2.757 . S
La321 O350 2.470 . S
C322 La320 2.928 . S
C322 C323 1.503 . S
C322 O340 1.261 . S
C322 O341 1.243 . S
C323 C322 1.503 . S
C323 C324 1.394 . S
C323 C328 1.373 . S
C324 C323 1.394 . S
C324 C325 1.380 . S
C324 H352 0.930 . S
C325 C324 1.380 . S
C325 C326 1.333 1_455 S
C325 H353 0.930 . S
C326 C325 1.333 1_655 S
C326 C327 1.345 . S
C327 C326 1.345 . S
C327 C328 1.396 1_655 S
C327 H354 0.929 . S
C328 C323 1.373 . S
C328 C327 1.396 1_455 S
C328 H355 0.929 . S
C329 O342 1.240 . S
C329 O343 1.289 . S
C330 O344 1.258 . S
C330 O345 1.256 . S
C331 La321 2.928 . S
C331 C332 1.503 . S
C331 O346 1.261 . S
C331 O347 1.243 . S
C332 C331 1.503 . S
C332 C333 1.394 . S
C332 C337 1.373 . S
C333 C332 1.394 . S
C333 C334 1.380 . S
C333 H356 0.930 . S
C334 C333 1.380 . S
C334 C335 1.376 . S
C334 H357 0.930 . S
C335 C334 1.376 . S
C335 C336 1.370 . S
C336 C335 1.370 . S
C336 C337 1.396 . S
C336 H358 0.929 . S
C337 C332 1.373 . S
C337 C336 1.396 . S
C337 H359 0.929 . S
C338 O348 1.240 . S
C338 O349 1.289 . S
C339 O350 1.258 . S
C339 O351 1.256 . S
O340 La320 2.521 . S
O340 C322 1.261 . S
O341 La320 2.628 . S
O341 C322 1.243 . S
O342 La320 2.554 . S
O342 C329 1.240 . S
O343 La320 2.757 . S
O343 La321 2.482 . S
O343 C329 1.289 . S
O344 La320 2.470 . S
O344 C330 1.258 . S
O345 La321 2.503 . S
O345 C330 1.256 . S
O346 La321 2.521 . S
O346 C331 1.261 . S
O347 La321 2.628 . S
O347 C331 1.243 . S
O348 La321 2.554 . S
O348 C338 1.240 . S
O349 La320 2.482 . S
O349 La321 2.757 . S
O349 C338 1.289 . S
O350 La321 2.470 . S
O350 C339 1.258 . S
O351 La320 2.503 . S
O351 C339 1.256 . S
H352 C324 0.930 . S
H353 C325 0.930 . S
H354 C327 0.929 . S
H355 C328 0.929 . S
H356 C333 0.930 . S
H357 C334 0.930 . S
H358 C336 0.929 . S
H359 C337 0.929 . S
La360 C362 2.928 . S
La360 O380 2.521 . S
La360 O381 2.628 . S
La360 O382 2.554 . S
La360 O383 2.757 . S
La360 O384 2.470 . S
La360 O389 2.482 . S
La360 O391 2.503 . S
La361 C371 2.928 . S
La361 O383 2.482 . S
La361 O385 2.503 . S
La361 O386 2.521 . S
La361 O387 2.628 . S
La361 O388 2.554 . S
La361 O389 2.757 . S
La361 O390 2.470 . S
C362 La360 2.928 . S
C362 C363 1.503 . S
C362 O380 1.261 . S
C362 O381 1.243 . S
C363 C362 1.503 . S
C363 C364 1.394 . S
C363 C368 1.373 . S
C364 C363 1.394 . S
C364 C365 1.380 . S
C364 H392 0.930 . S
C365 C364 1.380 . S
C365 C366 1.376 . S
C365 H393 0.930 . S
C366 C365 1.376 . S
C366 C367 1.370 . S
C367 C366 1.370 . S
C367 C368 1.396 . S
C367 H394 0.929 . S
C368 C363 1.373 . S
C368 C367 1.396 . S
C368 H395 0.929 . S
C369 O382 1.240 . S
C369 O383 1.289 . S
C370 O384 1.258 . S
C370 O385 1.256 . S
C371 La361 2.928 . S
C371 C372 1.503 . S
C371 O386 1.261 . S
C371 O387 1.243 . S
C372 C371 1.503 . S
C372 C373 1.394 . S
C372 C377 1.373 . S
C373 C372 1.394 . S
C373 C374 1.380 . S
C373 H396 0.930 . S
C374 C373 1.380 . S
C374 C375 1.376 . S
C374 H397 0.930 . S
C375 C374 1.376 . S
C375 C376 1.370 . S
C376 C375 1.370 . S
C376 C377 1.396 . S
C376 H398 0.929 . S
C377 C372 1.373 . S
C377 C376 1.396 . S
C377 H399 0.929 . S
C378 O388 1.240 . S
C378 O389 1.289 . S
C379 O390 1.258 . S
C379 O391 1.256 . S
O380 La360 2.521 . S
O380 C362 1.261 . S
O381 La360 2.628 . S
O381 C362 1.243 . S
O382 La360 2.554 . S
O382 C369 1.240 . S
O383 La360 2.757 . S
O383 La361 2.482 . S
O383 C369 1.289 . S
O384 La360 2.470 . S
O384 C370 1.258 . S
O385 La361 2.503 . S
O385 C370 1.256 . S
O386 La361 2.521 . S
O386 C371 1.261 . S
O387 La361 2.628 . S
O387 C371 1.243 . S
O388 La361 2.554 . S
O388 C378 1.240 . S
O389 La360 2.482 . S
O389 La361 2.757 . S
O389 C378 1.289 . S
O390 La361 2.470 . S
O390 C379 1.258 . S
O391 La360 2.503 . S
O391 C379 1.256 . S
H392 C364 0.930 . S
H393 C365 0.930 . S
H394 C367 0.929 . S
H395 C368 0.929 . S
H396 C373 0.930 . S
H397 C374 0.930 . S
H398 C376 0.929 . S
H399 C377 0.929 . S
La400 C402 2.928 . S
La400 O420 2.521 . S
La400 O421 2.628 . S
La400 O422 2.554 . S
La400 O423 2.757 . S
La400 O424 2.470 . S
La400 O429 2.482 . S
La400 O431 2.503 . S
La401 C411 2.928 . S
La401 O423 2.482 . S
La401 O425 2.503 . S
La401 O426 2.521 . S
La401 O427 2.628 . S
La401 O428 2.554 . S
La401 O429 2.757 . S
La401 O430 2.470 . S
C402 La400 2.928 . S
C402 C403 1.503 . S
C402 O420 1.261 . S
C402 O421 1.243 . S
C403 C402 1.503 . S
C403 C404 1.394 . S
C403 C408 1.373 . S
C404 C403 1.394 . S
C404 C405 1.380 . S
C404 H432 0.930 . S
C405 C404 1.380 . S
C405 C406 1.333 1_545 S
C405 H433 0.930 . S
C406 C405 1.333 1_565 S
C406 C407 1.345 . S
C407 C406 1.345 . S
C407 C408 1.396 1_565 S
C407 H434 0.929 . S
C408 C403 1.373 . S
C408 C407 1.396 1_545 S
C408 H435 0.929 . S
C409 O422 1.240 . S
C409 O423 1.289 . S
C410 O424 1.258 . S
C410 O425 1.256 . S
C411 La401 2.928 . S
C411 C412 1.503 . S
C411 O426 1.261 . S
C411 O427 1.243 . S
C412 C411 1.503 . S
C412 C413 1.394 . S
C412 C417 1.373 . S
C413 C412 1.394 . S
C413 C414 1.380 . S
C413 H436 0.930 . S
C414 C413 1.380 . S
C414 C415 1.376 . S
C414 H437 0.930 . S
C415 C414 1.376 . S
C415 C416 1.370 . S
C416 C415 1.370 . S
C416 C417 1.396 . S
C416 H438 0.929 . S
C417 C412 1.373 . S
C417 C416 1.396 . S
C417 H439 0.929 . S
C418 O428 1.240 . S
C418 O429 1.289 . S
C419 O430 1.258 . S
C419 O431 1.256 . S
O420 La400 2.521 . S
O420 C402 1.261 . S
O421 La400 2.628 . S
O421 C402 1.243 . S
O422 La400 2.554 . S
O422 C409 1.240 . S
O423 La400 2.757 . S
O423 La401 2.482 . S
O423 C409 1.289 . S
O424 La400 2.470 . S
O424 C410 1.258 . S
O425 La401 2.503 . S
O425 C410 1.256 . S
O426 La401 2.521 . S
O426 C411 1.261 . S
O427 La401 2.628 . S
O427 C411 1.243 . S
O428 La401 2.554 . S
O428 C418 1.240 . S
O429 La400 2.482 . S
O429 La401 2.757 . S
O429 C418 1.289 . S
O430 La401 2.470 . S
O430 C419 1.258 . S
O431 La400 2.503 . S
O431 C419 1.256 . S
H432 C404 0.930 . S
H433 C405 0.930 . S
H434 C407 0.929 . S
H435 C408 0.929 . S
H436 C413 0.930 . S
H437 C414 0.930 . S
H438 C416 0.929 . S
H439 C417 0.929 . S
La440 C442 2.928 . S
La440 O460 2.521 . S
La440 O461 2.628 . S
La440 O462 2.554 . S
La440 O463 2.757 . S
La440 O464 2.470 . S
La440 O469 2.482 . S
La440 O471 2.503 . S
La441 C451 2.928 . S
La441 O463 2.482 . S
La441 O465 2.503 . S
La441 O466 2.521 . S
La441 O467 2.628 . S
La441 O468 2.554 . S
La441 O469 2.757 . S
La441 O470 2.470 . S
C442 La440 2.928 . S
C442 C443 1.503 . S
C442 O460 1.261 . S
C442 O461 1.243 . S
C443 C442 1.503 . S
C443 C444 1.394 . S
C443 C448 1.373 . S
C444 C443 1.394 . S
C444 C445 1.380 . S
C444 H472 0.930 . S
C445 C444 1.380 . S
C445 C446 1.315 1_655 S
C445 H473 0.930 . S
C446 C445 1.315 1_455 S
C446 C447 1.407 . S
C447 C446 1.407 . S
C447 C448 1.396 1_455 S
C447 H474 0.929 . S
C448 C443 1.373 . S
C448 C447 1.396 1_655 S
C448 H475 0.929 . S
C449 O462 1.240 . S
C449 O463 1.289 . S
C450 O464 1.258 . S
C450 O465 1.256 . S
C451 La441 2.928 . S
C451 C452 1.503 . S
C451 O466 1.261 . S
C451 O467 1.243 . S
C452 C451 1.503 . S
C452 C453 1.394 . S
C452 C457 1.373 . S
C453 C452 1.394 . S
C453 C454 1.380 . S
C453 H476 0.930 . S
C454 C453 1.380 . S
C454 C455 1.376 . S
C454 H477 0.930 . S
C455 C454 1.376 . S
C455 C456 1.370 . S
C456 C455 1.370 . S
C456 C457 1.396 . S
C456 H478 0.929 . S
C457 C452 1.373 . S
C457 C456 1.396 . S
C457 H479 0.929 . S
C458 O468 1.240 . S
C458 O469 1.289 . S
C459 O470 1.258 . S
C459 O471 1.256 . S
O460 La440 2.521 . S
O460 C442 1.261 . S
O461 La440 2.628 . S
O461 C442 1.243 . S
O462 La440 2.554 . S
O462 C449 1.240 . S
O463 La440 2.757 . S
O463 La441 2.482 . S
O463 C449 1.289 . S
O464 La440 2.470 . S
O464 C450 1.258 . S
O465 La441 2.503 . S
O465 C450 1.256 . S
O466 La441 2.521 . S
O466 C451 1.261 . S
O467 La441 2.628 . S
O467 C451 1.243 . S
O468 La441 2.554 . S
O468 C458 1.240 . S
O469 La440 2.482 . S
O469 La441 2.757 . S
O469 C458 1.289 . S
O470 La441 2.470 . S
O470 C459 1.258 . S
O471 La440 2.503 . S
O471 C459 1.256 . S
H472 C444 0.930 . S
H473 C445 0.930 . S
H474 C447 0.929 . S
H475 C448 0.929 . S
H476 C453 0.930 . S
H477 C454 0.930 . S
H478 C456 0.929 . S
H479 C457 0.929 . S
La480 C482 2.928 . S
La480 O500 2.521 . S
La480 O501 2.628 . S
La480 O502 2.554 . S
La480 O503 2.757 . S
La480 O504 2.470 . S
La480 O509 2.482 . S
La480 O511 2.503 . S
La481 C491 2.928 . S
La481 O503 2.482 . S
La481 O505 2.503 . S
La481 O506 2.521 . S
La481 O507 2.628 . S
La481 O508 2.554 . S
La481 O509 2.757 . S
La481 O510 2.470 . S
C482 La480 2.928 . S
C482 C483 1.503 . S
C482 O500 1.261 . S
C482 O501 1.243 . S
C483 C482 1.503 . S
C483 C484 1.394 . S
C483 C488 1.373 . S
C484 C483 1.394 . S
C484 C485 1.380 . S
C484 H512 0.930 . S
C485 C484 1.380 . S
C485 C486 1.376 . S
C485 H513 0.930 . S
C486 C485 1.376 . S
C486 C487 1.370 . S
C487 C486 1.370 . S
C487 C488 1.396 . S
C487 H514 0.929 . S
C488 C483 1.373 . S
C488 C487 1.396 . S
C488 H515 0.929 . S
C489 O502 1.240 . S
C489 O503 1.289 . S
C490 O504 1.258 . S
C490 O505 1.256 . S
C491 La481 2.928 . S
C491 C492 1.503 . S
C491 O506 1.261 . S
C491 O507 1.243 . S
C492 C491 1.503 . S
C492 C493 1.394 . S
C492 C497 1.373 . S
C493 C492 1.394 . S
C493 C494 1.380 . S
C493 H516 0.930 . S
C494 C493 1.380 . S
C494 C495 1.376 . S
C494 H517 0.930 . S
C495 C494 1.376 . S
C495 C496 1.370 . S
C496 C495 1.370 . S
C496 C497 1.396 . S
C496 H518 0.929 . S
C497 C492 1.373 . S
C497 C496 1.396 . S
C497 H519 0.929 . S
C498 O508 1.240 . S
C498 O509 1.289 . S
C499 O510 1.258 . S
C499 O511 1.256 . S
O500 La480 2.521 . S
O500 C482 1.261 . S
O501 La480 2.628 . S
O501 C482 1.243 . S
O502 La480 2.554 . S
O502 C489 1.240 . S
O503 La480 2.757 . S
O503 La481 2.482 . S
O503 C489 1.289 . S
O504 La480 2.470 . S
O504 C490 1.258 . S
O505 La481 2.503 . S
O505 C490 1.256 . S
O506 La481 2.521 . S
O506 C491 1.261 . S
O507 La481 2.628 . S
O507 C491 1.243 . S
O508 La481 2.554 . S
O508 C498 1.240 . S
O509 La480 2.482 . S
O509 La481 2.757 . S
O509 C498 1.289 . S
O510 La481 2.470 . S
O510 C499 1.258 . S
O511 La480 2.503 . S
O511 C499 1.256 . S
H512 C484 0.930 . S
H513 C485 0.930 . S
H514 C487 0.929 . S
H515 C488 0.929 . S
H516 C493 0.930 . S
H517 C494 0.930 . S
H518 C496 0.929 . S
H519 C497 0.929 . S
La520 C522 2.928 . S
La520 O540 2.521 . S
La520 O541 2.628 . S
La520 O542 2.554 . S
La520 O543 2.757 . S
La520 O544 2.470 . S
La520 O549 2.482 . S
La520 O551 2.503 . S
La521 C531 2.928 . S
La521 O543 2.482 . S
La521 O545 2.503 . S
La521 O546 2.521 . S
La521 O547 2.628 . S
La521 O548 2.554 . S
La521 O549 2.757 . S
La521 O550 2.470 . S
C522 La520 2.928 . S
C522 C523 1.503 . S
C522 O540 1.261 . S
C522 O541 1.243 . S
C523 C522 1.503 . S
C523 C524 1.394 . S
C523 C528 1.373 . S
C524 C523 1.394 . S
C524 C525 1.380 . S
C524 H552 0.930 . S
C525 C524 1.380 . S
C525 C526 1.376 . S
C525 H553 0.930 . S
C526 C525 1.376 . S
C526 C527 1.370 . S
C527 C526 1.370 . S
C527 C528 1.396 . S
C527 H554 0.929 . S
C528 C523 1.373 . S
C528 C527 1.396 . S
C528 H555 0.929 . S
C529 O542 1.240 . S
C529 O543 1.289 . S
C530 O544 1.258 . S
C530 O545 1.256 . S
C531 La521 2.928 . S
C531 C532 1.503 . S
C531 O546 1.261 . S
C531 O547 1.243 . S
C532 C531 1.503 . S
C532 C533 1.394 . S
C532 C537 1.373 . S
C533 C532 1.394 . S
C533 C534 1.380 . S
C533 H556 0.930 . S
C534 C533 1.380 . S
C534 C535 1.376 . S
C534 H557 0.930 . S
C535 C534 1.376 . S
C535 C536 1.370 . S
C536 C535 1.370 . S
C536 C537 1.396 . S
C536 H558 0.929 . S
C537 C532 1.373 . S
C537 C536 1.396 . S
C537 H559 0.929 . S
C538 O548 1.240 . S
C538 O549 1.289 . S
C539 O550 1.258 . S
C539 O551 1.256 . S
O540 La520 2.521 . S
O540 C522 1.261 . S
O541 La520 2.628 . S
O541 C522 1.243 . S
O542 La520 2.554 . S
O542 C529 1.240 . S
O543 La520 2.757 . S
O543 La521 2.482 . S
O543 C529 1.289 . S
O544 La520 2.470 . S
O544 C530 1.258 . S
O545 La521 2.503 . S
O545 C530 1.256 . S
O546 La521 2.521 . S
O546 C531 1.261 . S
O547 La521 2.628 . S
O547 C531 1.243 . S
O548 La521 2.554 . S
O548 C538 1.240 . S
O549 La520 2.482 . S
O549 La521 2.757 . S
O549 C538 1.289 . S
O550 La521 2.470 . S
O550 C539 1.258 . S
O551 La520 2.503 . S
O551 C539 1.256 . S
H552 C524 0.930 . S
H553 C525 0.930 . S
H554 C527 0.929 . S
H555 C528 0.929 . S
H556 C533 0.930 . S
H557 C534 0.930 . S
H558 C536 0.929 . S
H559 C537 0.929 . S
La560 C562 2.928 . S
La560 O580 2.521 . S
La560 O581 2.628 . S
La560 O582 2.554 . S
La560 O583 2.757 . S
La560 O584 2.470 . S
La560 O589 2.482 . S
La560 O591 2.503 . S
La561 C571 2.928 . S
La561 O583 2.482 . S
La561 O585 2.503 . S
La561 O586 2.521 . S
La561 O587 2.628 . S
La561 O588 2.554 . S
La561 O589 2.757 . S
La561 O590 2.470 . S
C562 La560 2.928 . S
C562 C563 1.503 . S
C562 O580 1.261 . S
C562 O581 1.243 . S
C563 C562 1.503 . S
C563 C564 1.394 . S
C563 C568 1.373 . S
C564 C563 1.394 . S
C564 C565 1.380 . S
C564 H592 0.930 . S
C565 C564 1.380 . S
C565 C566 1.376 . S
C565 H593 0.930 . S
C566 C565 1.376 . S
C566 C567 1.370 . S
C567 C566 1.370 . S
C567 C568 1.396 . S
C567 H594 0.929 . S
C568 C563 1.373 . S
C568 C567 1.396 . S
C568 H595 0.929 . S
C569 O582 1.240 . S
C569 O583 1.289 . S
C570 O584 1.258 . S
C570 O585 1.256 . S
C571 La561 2.928 . S
C571 C572 1.503 . S
C571 O586 1.261 . S
C571 O587 1.243 . S
C572 C571 1.503 . S
C572 C573 1.394 . S
C572 C577 1.373 . S
C573 C572 1.394 . S
C573 C574 1.380 . S
C573 H596 0.930 . S
C574 C573 1.380 . S
C574 C575 1.376 . S
C574 H597 0.930 . S
C575 C574 1.376 . S
C575 C576 1.370 . S
C576 C575 1.370 . S
C576 C577 1.396 . S
C576 H598 0.929 . S
C577 C572 1.373 . S
C577 C576 1.396 . S
C577 H599 0.929 . S
C578 O588 1.240 . S
C578 O589 1.289 . S
C579 O590 1.258 . S
C579 O591 1.256 . S
O580 La560 2.521 . S
O580 C562 1.261 . S
O581 La560 2.628 . S
O581 C562 1.243 . S
O582 La560 2.554 . S
O582 C569 1.240 . S
O583 La560 2.757 . S
O583 La561 2.482 . S
O583 C569 1.289 . S
O584 La560 2.470 . S
O584 C570 1.258 . S
O585 La561 2.503 . S
O585 C570 1.256 . S
O586 La561 2.521 . S
O586 C571 1.261 . S
O587 La561 2.628 . S
O587 C571 1.243 . S
O588 La561 2.554 . S
O588 C578 1.240 . S
O589 La560 2.482 . S
O589 La561 2.757 . S
O589 C578 1.289 . S
O590 La561 2.470 . S
O590 C579 1.258 . S
O591 La560 2.503 . S
O591 C579 1.256 . S
H592 C564 0.930 . S
H593 C565 0.930 . S
H594 C567 0.929 . S
H595 C568 0.929 . S
H596 C573 0.930 . S
H597 C574 0.930 . S
H598 C576 0.929 . S
H599 C577 0.929 . S
La600 C602 2.928 . S
La600 O620 2.521 . S
La600 O621 2.628 . S
La600 O622 2.554 . S
La600 O623 2.757 . S
La600 O624 2.470 . S
La600 O629 2.482 . S
La600 O631 2.503 . S
La601 C611 2.928 . S
La601 O623 2.482 . S
La601 O625 2.503 . S
La601 O626 2.521 . S
La601 O627 2.628 . S
La601 O628 2.554 . S
La601 O629 2.757 . S
La601 O630 2.470 . S
C602 La600 2.928 . S
C602 C603 1.503 . S
C602 O620 1.261 . S
C602 O621 1.243 . S
C603 C602 1.503 . S
C603 C604 1.394 . S
C603 C608 1.373 . S
C604 C603 1.394 . S
C604 C605 1.380 . S
C604 H632 0.930 . S
C605 C604 1.380 . S
C605 C606 1.376 . S
C605 H633 0.930 . S
C606 C605 1.376 . S
C606 C607 1.370 . S
C607 C606 1.370 . S
C607 C608 1.396 . S
C607 H634 0.929 . S
C608 C603 1.373 . S
C608 C607 1.396 . S
C608 H635 0.929 . S
C609 O622 1.240 . S
C609 O623 1.289 . S
C610 O624 1.258 . S
C610 O625 1.256 . S
C611 La601 2.928 . S
C611 C612 1.503 . S
C611 O626 1.261 . S
C611 O627 1.243 . S
C612 C611 1.503 . S
C612 C613 1.394 . S
C612 C617 1.373 . S
C613 C612 1.394 . S
C613 C614 1.380 . S
C613 H636 0.930 . S
C614 C613 1.380 . S
C614 C615 1.376 . S
C614 H637 0.930 . S
C615 C614 1.376 . S
C615 C616 1.370 . S
C616 C615 1.370 . S
C616 C617 1.396 . S
C616 H638 0.929 . S
C617 C612 1.373 . S
C617 C616 1.396 . S
C617 H639 0.929 . S
C618 O628 1.240 . S
C618 O629 1.289 . S
C619 O630 1.258 . S
C619 O631 1.256 . S
O620 La600 2.521 . S
O620 C602 1.261 . S
O621 La600 2.628 . S
O621 C602 1.243 . S
O622 La600 2.554 . S
O622 C609 1.240 . S
O623 La600 2.757 . S
O623 La601 2.482 . S
O623 C609 1.289 . S
O624 La600 2.470 . S
O624 C610 1.258 . S
O625 La601 2.503 . S
O625 C610 1.256 . S
O626 La601 2.521 . S
O626 C611 1.261 . S
O627 La601 2.628 . S
O627 C611 1.243 . S
O628 La601 2.554 . S
O628 C618 1.240 . S
O629 La600 2.482 . S
O629 La601 2.757 . S
O629 C618 1.289 . S
O630 La601 2.470 . S
O630 C619 1.258 . S
O631 La600 2.503 . S
O631 C619 1.256 . S
H632 C604 0.930 . S
H633 C605 0.930 . S
H634 C607 0.929 . S
H635 C608 0.929 . S
H636 C613 0.930 . S
H637 C614 0.930 . S
H638 C616 0.929 . S
H639 C617 0.929 . S
La640 C642 2.928 . S
La640 O660 2.521 . S
La640 O661 2.628 . S
La640 O662 2.554 . S
La640 O663 2.757 . S
La640 O664 2.470 . S
La640 O669 2.482 . S
La640 O671 2.503 . S
La641 C651 2.928 . S
La641 O663 2.482 . S
La641 O665 2.503 . S
La641 O666 2.521 . S
La641 O667 2.628 . S
La641 O668 2.554 . S
La641 O669 2.757 . S
La641 O670 2.470 . S
C642 La640 2.928 . S
C642 C643 1.503 . S
C642 O660 1.261 . S
C642 O661 1.243 . S
C643 C642 1.503 . S
C643 C644 1.394 . S
C643 C648 1.373 . S
C644 C643 1.394 . S
C644 C645 1.380 . S
C644 H672 0.930 . S
C645 C644 1.380 . S
C645 C646 1.376 . S
C645 H673 0.930 . S
C646 C645 1.376 . S
C646 C647 1.370 . S
C647 C646 1.370 . S
C647 C648 1.396 . S
C647 H674 0.929 . S
C648 C643 1.373 . S
C648 C647 1.396 . S
C648 H675 0.929 . S
C649 O662 1.240 . S
C649 O663 1.289 . S
C650 O664 1.258 . S
C650 O665 1.256 . S
C651 La641 2.928 . S
C651 C652 1.503 . S
C651 O666 1.261 . S
C651 O667 1.243 . S
C652 C651 1.503 . S
C652 C653 1.394 . S
C652 C657 1.373 . S
C653 C652 1.394 . S
C653 C654 1.380 . S
C653 H676 0.930 . S
C654 C653 1.380 . S
C654 C655 1.376 . S
C654 H677 0.930 . S
C655 C654 1.376 . S
C655 C656 1.370 . S
C656 C655 1.370 . S
C656 C657 1.396 . S
C656 H678 0.929 . S
C657 C652 1.373 . S
C657 C656 1.396 . S
C657 H679 0.929 . S
C658 O668 1.240 . S
C658 O669 1.289 . S
C659 O670 1.258 . S
C659 O671 1.256 . S
O660 La640 2.521 . S
O660 C642 1.261 . S
O661 La640 2.628 . S
O661 C642 1.243 . S
O662 La640 2.554 . S
O662 C649 1.240 . S
O663 La640 2.757 . S
O663 La641 2.482 . S
O663 C649 1.289 . S
O664 La640 2.470 . S
O664 C650 1.258 . S
O665 La641 2.503 . S
O665 C650 1.256 . S
O666 La641 2.521 . S
O666 C651 1.261 . S
O667 La641 2.628 . S
O667 C651 1.243 . S
O668 La641 2.554 . S
O668 C658 1.240 . S
O669 La640 2.482 . S
O669 La641 2.757 . S
O669 C658 1.289 . S
O670 La641 2.470 . S
O670 C659 1.258 . S
O671 La640 2.503 . S
O671 C659 1.256 . S
H672 C644 0.930 . S
H673 C645 0.930 . S
H674 C647 0.929 . S
H675 C648 0.929 . S
H676 C653 0.930 . S
H677 C654 0.930 . S
H678 C656 0.929 . S
H679 C657 0.929 . S
La680 C682 2.928 . S
La680 O700 2.521 . S
La680 O701 2.628 . S
La680 O702 2.554 . S
La680 O703 2.757 . S
La680 O704 2.470 . S
La680 O709 2.482 . S
La680 O711 2.503 . S
La681 C691 2.928 . S
La681 O703 2.482 . S
La681 O705 2.503 . S
La681 O706 2.521 . S
La681 O707 2.628 . S
La681 O708 2.554 . S
La681 O709 2.757 . S
La681 O710 2.470 . S
C682 La680 2.928 . S
C682 C683 1.503 . S
C682 O700 1.261 . S
C682 O701 1.243 . S
C683 C682 1.503 . S
C683 C684 1.394 . S
C683 C688 1.373 . S
C684 C683 1.394 . S
C684 C685 1.380 . S
C684 H712 0.930 . S
C685 C684 1.380 . S
C685 C686 1.376 . S
C685 H713 0.930 . S
C686 C685 1.376 . S
C686 C687 1.370 . S
C687 C686 1.370 . S
C687 C688 1.396 . S
C687 H714 0.929 . S
C688 C683 1.373 . S
C688 C687 1.396 . S
C688 H715 0.929 . S
C689 O702 1.240 . S
C689 O703 1.289 . S
C690 O704 1.258 . S
C690 O705 1.256 . S
C691 La681 2.928 . S
C691 C692 1.503 . S
C691 O706 1.261 . S
C691 O707 1.243 . S
C692 C691 1.503 . S
C692 C693 1.394 . S
C692 C697 1.373 . S
C693 C692 1.394 . S
C693 C694 1.380 . S
C693 H716 0.930 . S
C694 C693 1.380 . S
C694 C695 1.376 . S
C694 H717 0.930 . S
C695 C694 1.376 . S
C695 C696 1.370 . S
C696 C695 1.370 . S
C696 C697 1.396 . S
C696 H718 0.929 . S
C697 C692 1.373 . S
C697 C696 1.396 . S
C697 H719 0.929 . S
C698 O708 1.240 . S
C698 O709 1.289 . S
C699 O710 1.258 . S
C699 O711 1.256 . S
O700 La680 2.521 . S
O700 C682 1.261 . S
O701 La680 2.628 . S
O701 C682 1.243 . S
O702 La680 2.554 . S
O702 C689 1.240 . S
O703 La680 2.757 . S
O703 La681 2.482 . S
O703 C689 1.289 . S
O704 La680 2.470 . S
O704 C690 1.258 . S
O705 La681 2.503 . S
O705 C690 1.256 . S
O706 La681 2.521 . S
O706 C691 1.261 . S
O707 La681 2.628 . S
O707 C691 1.243 . S
O708 La681 2.554 . S
O708 C698 1.240 . S
O709 La680 2.482 . S
O709 La681 2.757 . S
O709 C698 1.289 . S
O710 La681 2.470 . S
O710 C699 1.258 . S
O711 La680 2.503 . S
O711 C699 1.256 . S
H712 C684 0.930 . S
H713 C685 0.930 . S
H714 C687 0.929 . S
H715 C688 0.929 . S
H716 C693 0.930 . S
H717 C694 0.930 . S
H718 C696 0.929 . S
H719 C697 0.929 . S
La720 C722 2.928 . S
La720 O740 2.521 . S
La720 O741 2.628 . S
La720 O742 2.554 . S
La720 O743 2.757 . S
La720 O744 2.470 . S
La720 O749 2.482 . S
La720 O751 2.503 . S
La721 C731 2.928 . S
La721 O743 2.482 . S
La721 O745 2.503 . S
La721 O746 2.521 . S
La721 O747 2.628 . S
La721 O748 2.554 . S
La721 O749 2.757 . S
La721 O750 2.470 . S
C722 La720 2.928 . S
C722 C723 1.503 . S
C722 O740 1.261 . S
C722 O741 1.243 . S
C723 C722 1.503 . S
C723 C724 1.394 . S
C723 C728 1.373 . S
C724 C723 1.394 . S
C724 C725 1.380 . S
C724 H752 0.930 . S
C725 C724 1.380 . S
C725 C726 1.376 . S
C725 H753 0.930 . S
C726 C725 1.376 . S
C726 C727 1.370 . S
C727 C726 1.370 . S
C727 C728 1.396 . S
C727 H754 0.929 . S
C728 C723 1.373 . S
C728 C727 1.396 . S
C728 H755 0.929 . S
C729 O742 1.240 . S
C729 O743 1.289 . S
C730 O744 1.258 . S
C730 O745 1.256 . S
C731 La721 2.928 . S
C731 C732 1.503 . S
C731 O746 1.261 . S
C731 O747 1.243 . S
C732 C731 1.503 . S
C732 C733 1.394 . S
C732 C737 1.373 . S
C733 C732 1.394 . S
C733 C734 1.380 . S
C733 H756 0.930 . S
C734 C733 1.380 . S
C734 C735 1.376 . S
C734 H757 0.930 . S
C735 C734 1.376 . S
C735 C736 1.370 . S
C736 C735 1.370 . S
C736 C737 1.396 . S
C736 H758 0.929 . S
C737 C732 1.373 . S
C737 C736 1.396 . S
C737 H759 0.929 . S
C738 O748 1.240 . S
C738 O749 1.289 . S
C739 O750 1.258 . S
C739 O751 1.256 . S
O740 La720 2.521 . S
O740 C722 1.261 . S
O741 La720 2.628 . S
O741 C722 1.243 . S
O742 La720 2.554 . S
O742 C729 1.240 . S
O743 La720 2.757 . S
O743 La721 2.482 . S
O743 C729 1.289 . S
O744 La720 2.470 . S
O744 C730 1.258 . S
O745 La721 2.503 . S
O745 C730 1.256 . S
O746 La721 2.521 . S
O746 C731 1.261 . S
O747 La721 2.628 . S
O747 C731 1.243 . S
O748 La721 2.554 . S
O748 C738 1.240 . S
O749 La720 2.482 . S
O749 La721 2.757 . S
O749 C738 1.289 . S
O750 La721 2.470 . S
O750 C739 1.258 . S
O751 La720 2.503 . S
O751 C739 1.256 . S
H752 C724 0.930 . S
H753 C725 0.930 . S
H754 C727 0.929 . S
H755 C728 0.929 . S
H756 C733 0.930 . S
H757 C734 0.930 . S
H758 C736 0.929 . S
H759 C737 0.929 . S
La760 C762 2.928 . S
La760 O780 2.521 . S
La760 O781 2.628 . S
La760 O782 2.554 . S
La760 O783 2.757 . S
La760 O784 2.470 . S
La760 O789 2.482 . S
La760 O791 2.503 . S
La761 C771 2.928 . S
La761 O783 2.482 . S
La761 O785 2.503 . S
La761 O786 2.521 . S
La761 O787 2.628 . S
La761 O788 2.554 . S
La761 O789 2.757 . S
La761 O790 2.470 . S
C762 La760 2.928 . S
C762 C763 1.503 . S
C762 O780 1.261 . S
C762 O781 1.243 . S
C763 C762 1.503 . S
C763 C764 1.394 . S
C763 C768 1.373 . S
C764 C763 1.394 . S
C764 C765 1.380 . S
C764 H792 0.930 . S
C765 C764 1.380 . S
C765 C766 1.376 . S
C765 H793 0.930 . S
C766 C765 1.376 . S
C766 C767 1.370 . S
C767 C766 1.370 . S
C767 C768 1.396 . S
C767 H794 0.929 . S
C768 C763 1.373 . S
C768 C767 1.396 . S
C768 H795 0.929 . S
C769 O782 1.240 . S
C769 O783 1.289 . S
C770 O784 1.258 . S
C770 O785 1.256 . S
C771 La761 2.928 . S
C771 C772 1.503 . S
C771 O786 1.261 . S
C771 O787 1.243 . S
C772 C771 1.503 . S
C772 C773 1.394 . S
C772 C777 1.373 . S
C773 C772 1.394 . S
C773 C774 1.380 . S
C773 H796 0.930 . S
C774 C773 1.380 . S
C774 C775 1.376 . S
C774 H797 0.930 . S
C775 C774 1.376 . S
C775 C776 1.370 . S
C776 C775 1.370 . S
C776 C777 1.396 . S
C776 H798 0.929 . S
C777 C772 1.373 . S
C777 C776 1.396 . S
C777 H799 0.929 . S
C778 O788 1.240 . S
C778 O789 1.289 . S
C779 O790 1.258 . S
C779 O791 1.256 . S
O780 La760 2.521 . S
O780 C762 1.261 . S
O781 La760 2.628 . S
O781 C762 1.243 . S
O782 La760 2.554 . S
O782 C769 1.240 . S
O783 La760 2.757 . S
O783 La761 2.482 . S
O783 C769 1.289 . S
O784 La760 2.470 . S
O784 C770 1.258 . S
O785 La761 2.503 . S
O785 C770 1.256 . S
O786 La761 2.521 . S
O786 C771 1.261 . S
O787 La761 2.628 . S
O787 C771 1.243 . S
O788 La761 2.554 . S
O788 C778 1.240 . S
O789 La760 2.482 . S
O789 La761 2.757 . S
O789 C778 1.289 . S
O790 La761 2.470 . S
O790 C779 1.258 . S
O791 La760 2.503 . S
O791 C779 1.256 . S
H792 C764 0.930 . S
H793 C765 0.930 . S
H794 C767 0.929 . S
H795 C768 0.929 . S
H796 C773 0.930 . S
H797 C774 0.930 . S
H798 C776 0.929 . S
H799 C777 0.929 . S
La800 C802 2.928 . S
La800 O820 2.521 . S
La800 O821 2.628 . S
La800 O822 2.554 . S
La800 O823 2.757 . S
La800 O824 2.470 . S
La800 O829 2.482 . S
La800 O831 2.503 . S
La801 C811 2.928 . S
La801 O823 2.482 . S
La801 O825 2.503 . S
La801 O826 2.521 . S
La801 O827 2.628 . S
La801 O828 2.554 . S
La801 O829 2.757 . S
La801 O830 2.470 . S
C802 La800 2.928 . S
C802 C803 1.503 . S
C802 O820 1.261 . S
C802 O821 1.243 . S
C803 C802 1.503 . S
C803 C804 1.394 . S
C803 C808 1.373 . S
C804 C803 1.394 . S
C804 C805 1.380 . S
C804 H832 0.930 . S
C805 C804 1.380 . S
C805 C806 1.376 . S
C805 H833 0.930 . S
C806 C805 1.376 . S
C806 C807 1.370 . S
C807 C806 1.370 . S
C807 C808 1.396 . S
C807 H834 0.929 . S
C808 C803 1.373 . S
C808 C807 1.396 . S
C808 H835 0.929 . S
C809 O822 1.240 . S
C809 O823 1.289 . S
C810 O824 1.258 . S
C810 O825 1.256 . S
C811 La801 2.928 . S
C811 C812 1.503 . S
C811 O826 1.261 . S
C811 O827 1.243 . S
C812 C811 1.503 . S
C812 C813 1.394 . S
C812 C817 1.373 . S
C813 C812 1.394 . S
C813 C814 1.380 . S
C813 H836 0.930 . S
C814 C813 1.380 . S
C814 C815 1.376 . S
C814 H837 0.930 . S
C815 C814 1.376 . S
C815 C816 1.370 . S
C816 C815 1.370 . S
C816 C817 1.396 . S
C816 H838 0.929 . S
C817 C812 1.373 . S
C817 C816 1.396 . S
C817 H839 0.929 . S
C818 O828 1.240 . S
C818 O829 1.289 . S
C819 O830 1.258 . S
C819 O831 1.256 . S
O820 La800 2.521 . S
O820 C802 1.261 . S
O821 La800 2.628 . S
O821 C802 1.243 . S
O822 La800 2.554 . S
O822 C809 1.240 . S
O823 La800 2.757 . S
O823 La801 2.482 . S
O823 C809 1.289 . S
O824 La800 2.470 . S
O824 C810 1.258 . S
O825 La801 2.503 . S
O825 C810 1.256 . S
O826 La801 2.521 . S
O826 C811 1.261 . S
O827 La801 2.628 . S
O827 C811 1.243 . S
O828 La801 2.554 . S
O828 C818 1.240 . S
O829 La800 2.482 . S
O829 La801 2.757 . S
O829 C818 1.289 . S
O830 La801 2.470 . S
O830 C819 1.258 . S
O831 La800 2.503 . S
O831 C819 1.256 . S
H832 C804 0.930 . S
H833 C805 0.930 . S
H834 C807 0.929 . S
H835 C808 0.929 . S
H836 C813 0.930 . S
H837 C814 0.930 . S
H838 C816 0.929 . S
H839 C817 0.929 . S
La840 C842 2.928 . S
La840 O860 2.521 . S
La840 O861 2.628 . S
La840 O862 2.554 . S
La840 O863 2.757 . S
La840 O864 2.470 . S
La840 O869 2.482 . S
La840 O871 2.503 . S
La841 C851 2.928 . S
La841 O863 2.482 . S
La841 O865 2.503 . S
La841 O866 2.521 . S
La841 O867 2.628 . S
La841 O868 2.554 . S
La841 O869 2.757 . S
La841 O870 2.470 . S
C842 La840 2.928 . S
C842 C843 1.503 . S
C842 O860 1.261 . S
C842 O861 1.243 . S
C843 C842 1.503 . S
C843 C844 1.394 . S
C843 C848 1.373 . S
C844 C843 1.394 . S
C844 C845 1.380 . S
C844 H872 0.930 . S
C845 C844 1.380 . S
C845 C846 1.376 . S
C845 H873 0.930 . S
C846 C845 1.376 . S
C846 C847 1.370 . S
C847 C846 1.370 . S
C847 C848 1.396 . S
C847 H874 0.929 . S
C848 C843 1.373 . S
C848 C847 1.396 . S
C848 H875 0.929 . S
C849 O862 1.240 . S
C849 O863 1.289 . S
C850 O864 1.258 . S
C850 O865 1.256 . S
C851 La841 2.928 . S
C851 C852 1.503 . S
C851 O866 1.261 . S
C851 O867 1.243 . S
C852 C851 1.503 . S
C852 C853 1.394 . S
C852 C857 1.373 . S
C853 C852 1.394 . S
C853 C854 1.380 . S
C853 H876 0.930 . S
C854 C853 1.380 . S
C854 C855 1.376 . S
C854 H877 0.930 . S
C855 C854 1.376 . S
C855 C856 1.370 . S
C856 C855 1.370 . S
C856 C857 1.396 . S
C856 H878 0.929 . S
C857 C852 1.373 . S
C857 C856 1.396 . S
C857 H879 0.929 . S
C858 O868 1.240 . S
C858 O869 1.289 . S
C859 O870 1.258 . S
C859 O871 1.256 . S
O860 La840 2.521 . S
O860 C842 1.261 . S
O861 La840 2.628 . S
O861 C842 1.243 . S
O862 La840 2.554 . S
O862 C849 1.240 . S
O863 La840 2.757 . S
O863 La841 2.482 . S
O863 C849 1.289 . S
O864 La840 2.470 . S
O864 C850 1.258 . S
O865 La841 2.503 . S
O865 C850 1.256 . S
O866 La841 2.521 . S
O866 C851 1.261 . S
O867 La841 2.628 . S
O867 C851 1.243 . S
O868 La841 2.554 . S
O868 C858 1.240 . S
O869 La840 2.482 . S
O869 La841 2.757 . S
O869 C858 1.289 . S
O870 La841 2.470 . S
O870 C859 1.258 . S
O871 La840 2.503 . S
O871 C859 1.256 . S
H872 C844 0.930 . S
H873 C845 0.930 . S
H874 C847 0.929 . S
H875 C848 0.929 . S
H876 C853 0.930 . S
H877 C854 0.930 . S
H878 C856 0.929 . S
H879 C857 0.929 . S
La880 C882 2.928 . S
La880 O900 2.521 . S
La880 O901 2.628 . S
La880 O902 2.554 . S
La880 O903 2.757 . S
La880 O904 2.470 . S
La880 O909 2.482 . S
La880 O911 2.503 . S
La881 C891 2.928 . S
La881 O903 2.482 . S
La881 O905 2.503 . S
La881 O906 2.521 . S
La881 O907 2.628 . S
La881 O908 2.554 . S
La881 O909 2.757 . S
La881 O910 2.470 . S
C882 La880 2.928 . S
C882 C883 1.503 . S
C882 O900 1.261 . S
C882 O901 1.243 . S
C883 C882 1.503 . S
C883 C884 1.394 . S
C883 C888 1.373 . S
C884 C883 1.394 . S
C884 C885 1.380 . S
C884 H912 0.930 . S
C885 C884 1.380 . S
C885 C886 1.376 . S
C885 H913 0.930 . S
C886 C885 1.376 . S
C886 C887 1.370 . S
C887 C886 1.370 . S
C887 C888 1.396 . S
C887 H914 0.929 . S
C888 C883 1.373 . S
C888 C887 1.396 . S
C888 H915 0.929 . S
C889 O902 1.240 . S
C889 O903 1.289 . S
C890 O904 1.258 . S
C890 O905 1.256 . S
C891 La881 2.928 . S
C891 C892 1.503 . S
C891 O906 1.261 . S
C891 O907 1.243 . S
C892 C891 1.503 . S
C892 C893 1.394 . S
C892 C897 1.373 . S
C893 C892 1.394 . S
C893 C894 1.380 . S
C893 H916 0.930 . S
C894 C893 1.380 . S
C894 C895 1.376 . S
C894 H917 0.930 . S
C895 C894 1.376 . S
C895 C896 1.370 . S
C896 C895 1.370 . S
C896 C897 1.396 . S
C896 H918 0.929 . S
C897 C892 1.373 . S
C897 C896 1.396 . S
C897 H919 0.929 . S
C898 O908 1.240 . S
C898 O909 1.289 . S
C899 O910 1.258 . S
C899 O911 1.256 . S
O900 La880 2.521 . S
O900 C882 1.261 . S
O901 La880 2.628 . S
O901 C882 1.243 . S
O902 La880 2.554 . S
O902 C889 1.240 . S
O903 La880 2.757 . S
O903 La881 2.482 . S
O903 C889 1.289 . S
O904 La880 2.470 . S
O904 C890 1.258 . S
O905 La881 2.503 . S
O905 C890 1.256 . S
O906 La881 2.521 . S
O906 C891 1.261 . S
O907 La881 2.628 . S
O907 C891 1.243 . S
O908 La881 2.554 . S
O908 C898 1.240 . S
O909 La880 2.482 . S
O909 La881 2.757 . S
O909 C898 1.289 . S
O910 La881 2.470 . S
O910 C899 1.258 . S
O911 La880 2.503 . S
O911 C899 1.256 . S
H912 C884 0.930 . S
H913 C885 0.930 . S
H914 C887 0.929 . S
H915 C888 0.929 . S
H916 C893 0.930 . S
H917 C894 0.930 . S
H918 C896 0.929 . S
H919 C897 0.929 . S
La920 C922 2.928 . S
La920 O940 2.521 . S
La920 O941 2.628 . S
La920 O942 2.554 . S
La920 O943 2.757 . S
La920 O944 2.470 . S
La920 O949 2.482 . S
La920 O951 2.503 . S
La921 C931 2.928 . S
La921 O943 2.482 . S
La921 O945 2.503 . S
La921 O946 2.521 . S
La921 O947 2.628 . S
La921 O948 2.554 . S
La921 O949 2.757 . S
La921 O950 2.470 . S
C922 La920 2.928 . S
C922 C923 1.503 . S
C922 O940 1.261 . S
C922 O941 1.243 . S
C923 C922 1.503 . S
C923 C924 1.394 . S
C923 C928 1.373 . S
C924 C923 1.394 . S
C924 C925 1.380 . S
C924 H952 0.930 . S
C925 C924 1.380 . S
C925 C926 1.376 . S
C925 H953 0.930 . S
C926 C925 1.376 . S
C926 C927 1.370 . S
C927 C926 1.370 . S
C927 C928 1.396 . S
C927 H954 0.929 . S
C928 C923 1.373 . S
C928 C927 1.396 . S
C928 H955 0.929 . S
C929 O942 1.240 . S
C929 O943 1.289 . S
C930 O944 1.258 . S
C930 O945 1.256 . S
C931 La921 2.928 . S
C931 C932 1.503 . S
C931 O946 1.261 . S
C931 O947 1.243 . S
C932 C931 1.503 . S
C932 C933 1.394 . S
C932 C937 1.373 . S
C933 C932 1.394 . S
C933 C934 1.380 . S
C933 H956 0.930 . S
C934 C933 1.380 . S
C934 C935 1.376 . S
C934 H957 0.930 . S
C935 C934 1.376 . S
C935 C936 1.370 . S
C936 C935 1.370 . S
C936 C937 1.396 . S
C936 H958 0.929 . S
C937 C932 1.373 . S
C937 C936 1.396 . S
C937 H959 0.929 . S
C938 O948 1.240 . S
C938 O949 1.289 . S
C939 O950 1.258 . S
C939 O951 1.256 . S
O940 La920 2.521 . S
O940 C922 1.261 . S
O941 La920 2.628 . S
O941 C922 1.243 . S
O942 La920 2.554 . S
O942 C929 1.240 . S
O943 La920 2.757 . S
O943 La921 2.482 . S
O943 C929 1.289 . S
O944 La920 2.470 . S
O944 C930 1.258 . S
O945 La921 2.503 . S
O945 C930 1.256 . S
O946 La921 2.521 . S
O946 C931 1.261 . S
O947 La921 2.628 . S
O947 C931 1.243 . S
O948 La921 2.554 . S
O948 C938 1.240 . S
O949 La920 2.482 . S
O949 La921 2.757 . S
O949 C938 1.289 . S
O950 La921 2.470 . S
O950 C939 1.258 . S
O951 La920 2.503 . S
O951 C939 1.256 . S
H952 C924 0.930 . S
H953 C925 0.930 . S
H954 C927 0.929 . S
H955 C928 0.929 . S
H956 C933 0.930 . S
H957 C934 0.930 . S
H958 C936 0.929 . S
H959 C937 0.929 . S
La960 C962 2.928 . S
La960 O980 2.521 . S
La960 O981 2.628 . S
La960 O982 2.554 . S
La960 O983 2.757 . S
La960 O984 2.470 . S
La960 O989 2.482 . S
La960 O991 2.503 . S
La961 C971 2.928 . S
La961 O983 2.482 . S
La961 O985 2.503 . S
La961 O986 2.521 . S
La961 O987 2.628 . S
La961 O988 2.554 . S
La961 O989 2.757 . S
La961 O990 2.470 . S
C962 La960 2.928 . S
C962 C963 1.503 . S
C962 O980 1.261 . S
C962 O981 1.243 . S
C963 C962 1.503 . S
C963 C964 1.394 . S
C963 C968 1.373 . S
C964 C963 1.394 . S
C964 C965 1.380 . S
C964 H992 0.930 . S
C965 C964 1.380 . S
C965 C966 1.376 . S
C965 H993 0.930 . S
C966 C965 1.376 . S
C966 C967 1.370 . S
C967 C966 1.370 . S
C967 C968 1.396 . S
C967 H994 0.929 . S
C968 C963 1.373 . S
C968 C967 1.396 . S
C968 H995 0.929 . S
C969 O982 1.240 . S
C969 O983 1.289 . S
C970 O984 1.258 . S
C970 O985 1.256 . S
C971 La961 2.928 . S
C971 C972 1.503 . S
C971 O986 1.261 . S
C971 O987 1.243 . S
C972 C971 1.503 . S
C972 C973 1.394 . S
C972 C977 1.373 . S
C973 C972 1.394 . S
C973 C974 1.380 . S
C973 H996 0.930 . S
C974 C973 1.380 . S
C974 C975 1.376 . S
C974 H997 0.930 . S
C975 C974 1.376 . S
C975 C976 1.370 . S
C976 C975 1.370 . S
C976 C977 1.396 . S
C976 H998 0.929 . S
C977 C972 1.373 . S
C977 C976 1.396 . S
C977 H999 0.929 . S
C978 O988 1.240 . S
C978 O989 1.289 . S
C979 O990 1.258 . S
C979 O991 1.256 . S
O980 La960 2.521 . S
O980 C962 1.261 . S
O981 La960 2.628 . S
O981 C962 1.243 . S
O982 La960 2.554 . S
O982 C969 1.240 . S
O983 La960 2.757 . S
O983 La961 2.482 . S
O983 C969 1.289 . S
O984 La960 2.470 . S
O984 C970 1.258 . S
O985 La961 2.503 . S
O985 C970 1.256 . S
O986 La961 2.521 . S
O986 C971 1.261 . S
O987 La961 2.628 . S
O987 C971 1.243 . S
O988 La961 2.554 . S
O988 C978 1.240 . S
O989 La960 2.482 . S
O989 La961 2.757 . S
O989 C978 1.289 . S
O990 La961 2.470 . S
O990 C979 1.258 . S
O991 La960 2.503 . S
O991 C979 1.256 . S
H992 C964 0.930 . S
H993 C965 0.930 . S
H994 C967 0.929 . S
H995 C968 0.929 . S
H996 C973 0.930 . S
H997 C974 0.930 . S
H998 C976 0.929 . S
H999 C977 0.929 . S
La1000 C1002 2.928 . S
La1000 O1020 2.521 . S
La1000 O1021 2.628 . S
La1000 O1022 2.554 . S
La1000 O1023 2.757 . S
La1000 O1024 2.470 . S
La1000 O1029 2.482 . S
La1000 O1031 2.503 . S
La1001 C1011 2.928 . S
La1001 O1023 2.482 . S
La1001 O1025 2.503 . S
La1001 O1026 2.521 . S
La1001 O1027 2.628 . S
La1001 O1028 2.554 . S
La1001 O1029 2.757 . S
La1001 O1030 2.470 . S
C1002 La1000 2.928 . S
C1002 C1003 1.503 . S
C1002 O1020 1.261 . S
C1002 O1021 1.243 . S
C1003 C1002 1.503 . S
C1003 C1004 1.394 . S
C1003 C1008 1.373 . S
C1004 C1003 1.394 . S
C1004 C1005 1.380 . S
C1004 H1032 0.930 . S
C1005 C1004 1.380 . S
C1005 C1006 1.376 . S
C1005 H1033 0.930 . S
C1006 C1005 1.376 . S
C1006 C1007 1.370 . S
C1007 C1006 1.370 . S
C1007 C1008 1.396 . S
C1007 H1034 0.929 . S
C1008 C1003 1.373 . S
C1008 C1007 1.396 . S
C1008 H1035 0.929 . S
C1009 O1022 1.240 . S
C1009 O1023 1.289 . S
C1010 O1024 1.258 . S
C1010 O1025 1.256 . S
C1011 La1001 2.928 . S
C1011 C1012 1.503 . S
C1011 O1026 1.261 . S
C1011 O1027 1.243 . S
C1012 C1011 1.503 . S
C1012 C1013 1.394 . S
C1012 C1017 1.373 . S
C1013 C1012 1.394 . S
C1013 C1014 1.380 . S
C1013 H1036 0.930 . S
C1014 C1013 1.380 . S
C1014 C1015 1.376 . S
C1014 H1037 0.930 . S
C1015 C1014 1.376 . S
C1015 C1016 1.370 . S
C1016 C1015 1.370 . S
C1016 C1017 1.396 . S
C1016 H1038 0.929 . S
C1017 C1012 1.373 . S
C1017 C1016 1.396 . S
C1017 H1039 0.929 . S
C1018 O1028 1.240 . S
C1018 O1029 1.289 . S
C1019 O1030 1.258 . S
C1019 O1031 1.256 . S
O1020 La1000 2.521 . S
O1020 C1002 1.261 . S
O1021 La1000 2.628 . S
O1021 C1002 1.243 . S
O1022 La1000 2.554 . S
O1022 C1009 1.240 . S
O1023 La1000 2.757 . S
O1023 La1001 2.482 . S
O1023 C1009 1.289 . S
O1024 La1000 2.470 . S
O1024 C1010 1.258 . S
O1025 La1001 2.503 . S
O1025 C1010 1.256 . S
O1026 La1001 2.521 . S
O1026 C1011 1.261 . S
O1027 La1001 2.628 . S
O1027 C1011 1.243 . S
O1028 La1001 2.554 . S
O1028 C1018 1.240 . S
O1029 La1000 2.482 . S
O1029 La1001 2.757 . S
O1029 C1018 1.289 . S
O1030 La1001 2.470 . S
O1030 C1019 1.258 . S
O1031 La1000 2.503 . S
O1031 C1019 1.256 . S
H1032 C1004 0.930 . S
H1033 C1005 0.930 . S
H1034 C1007 0.929 . S
H1035 C1008 0.929 . S
H1036 C1013 0.930 . S
H1037 C1014 0.930 . S
H1038 C1016 0.929 . S
H1039 C1017 0.929 . S
La1040 C1042 2.928 . S
La1040 O1060 2.521 . S
La1040 O1061 2.628 . S
La1040 O1062 2.554 . S
La1040 O1063 2.757 . S
La1040 O1064 2.470 . S
La1040 O1069 2.482 . S
La1040 O1071 2.503 . S
La1041 C1051 2.928 . S
La1041 O1063 2.482 . S
La1041 O1065 2.503 . S
La1041 O1066 2.521 . S
La1041 O1067 2.628 . S
La1041 O1068 2.554 . S
La1041 O1069 2.757 . S
La1041 O1070 2.470 . S
C1042 La1040 2.928 . S
C1042 C1043 1.503 . S
C1042 O1060 1.261 . S
C1042 O1061 1.243 . S
C1043 C1042 1.503 . S
C1043 C1044 1.394 . S
C1043 C1048 1.373 . S
C1044 C1043 1.394 . S
C1044 C1045 1.380 . S
C1044 H1072 0.930 . S
C1045 C1044 1.380 . S
C1045 C1046 1.376 . S
C1045 H1073 0.930 . S
C1046 C1045 1.376 . S
C1046 C1047 1.370 . S
C1047 C1046 1.370 . S
C1047 C1048 1.396 . S
C1047 H1074 0.929 . S
C1048 C1043 1.373 . S
C1048 C1047 1.396 . S
C1048 H1075 0.929 . S
C1049 O1062 1.240 . S
C1049 O1063 1.289 . S
C1050 O1064 1.258 . S
C1050 O1065 1.256 . S
C1051 La1041 2.928 . S
C1051 C1052 1.503 . S
C1051 O1066 1.261 . S
C1051 O1067 1.243 . S
C1052 C1051 1.503 . S
C1052 C1053 1.394 . S
C1052 C1057 1.373 . S
C1053 C1052 1.394 . S
C1053 C1054 1.380 . S
C1053 H1076 0.930 . S
C1054 C1053 1.380 . S
C1054 C1055 1.376 . S
C1054 H1077 0.930 . S
C1055 C1054 1.376 . S
C1055 C1056 1.370 . S
C1056 C1055 1.370 . S
C1056 C1057 1.396 . S
C1056 H1078 0.929 . S
C1057 C1052 1.373 . S
C1057 C1056 1.396 . S
C1057 H1079 0.929 . S
C1058 O1068 1.240 . S
C1058 O1069 1.289 . S
C1059 O1070 1.258 . S
C1059 O1071 1.256 . S
O1060 La1040 2.521 . S
O1060 C1042 1.261 . S
O1061 La1040 2.628 . S
O1061 C1042 1.243 . S
O1062 La1040 2.554 . S
O1062 C1049 1.240 . S
O1063 La1040 2.757 . S
O1063 La1041 2.482 . S
O1063 C1049 1.289 . S
O1064 La1040 2.470 . S
O1064 C1050 1.258 . S
O1065 La1041 2.503 . S
O1065 C1050 1.256 . S
O1066 La1041 2.521 . S
O1066 C1051 1.261 . S
O1067 La1041 2.628 . S
O1067 C1051 1.243 . S
O1068 La1041 2.554 . S
O1068 C1058 1.240 . S
O1069 La1040 2.482 . S
O1069 La1041 2.757 . S
O1069 C1058 1.289 . S
O1070 La1041 2.470 . S
O1070 C1059 1.258 . S
O1071 La1040 2.503 . S
O1071 C1059 1.256 . S
H1072 C1044 0.930 . S
H1073 C1045 0.930 . S
H1074 C1047 0.929 . S
H1075 C1048 0.929 . S
H1076 C1053 0.930 . S
H1077 C1054 0.930 . S
H1078 C1056 0.929 . S
H1079 C1057 0.929 . S
La1080 C1082 2.928 . S
La1080 O1100 2.521 . S
La1080 O1101 2.628 . S
La1080 O1102 2.554 . S
La1080 O1103 2.757 . S
La1080 O1104 2.470 . S
La1080 O1109 2.482 . S
La1080 O1111 2.503 . S
La1081 C1091 2.928 . S
La1081 O1103 2.482 . S
La1081 O1105 2.503 . S
La1081 O1106 2.521 . S
La1081 O1107 2.628 . S
La1081 O1108 2.554 . S
La1081 O1109 2.757 . S
La1081 O1110 2.470 . S
C1082 La1080 2.928 . S
C1082 C1083 1.503 . S
C1082 O1100 1.261 . S
C1082 O1101 1.243 . S
C1083 C1082 1.503 . S
C1083 C1084 1.394 . S
C1083 C1088 1.373 . S
C1084 C1083 1.394 . S
C1084 C1085 1.380 . S
C1084 H1112 0.930 . S
C1085 C1084 1.380 . S
C1085 C1086 1.376 . S
C1085 H1113 0.930 . S
C1086 C1085 1.376 . S
C1086 C1087 1.370 . S
C1087 C1086 1.370 . S
C1087 C1088 1.396 . S
C1087 H1114 0.929 . S
C1088 C1083 1.373 . S
C1088 C1087 1.396 . S
C1088 H1115 0.929 . S
C1089 O1102 1.240 . S
C1089 O1103 1.289 . S
C1090 O1104 1.258 . S
C1090 O1105 1.256 . S
C1091 La1081 2.928 . S
C1091 C1092 1.503 . S
C1091 O1106 1.261 . S
C1091 O1107 1.243 . S
C1092 C1091 1.503 . S
C1092 C1093 1.394 . S
C1092 C1097 1.373 . S
C1093 C1092 1.394 . S
C1093 C1094 1.380 . S
C1093 H1116 0.930 . S
C1094 C1093 1.380 . S
C1094 C1095 1.376 . S
C1094 H1117 0.930 . S
C1095 C1094 1.376 . S
C1095 C1096 1.370 . S
C1096 C1095 1.370 . S
C1096 C1097 1.396 . S
C1096 H1118 0.929 . S
C1097 C1092 1.373 . S
C1097 C1096 1.396 . S
C1097 H1119 0.929 . S
C1098 O1108 1.240 . S
C1098 O1109 1.289 . S
C1099 O1110 1.258 . S
C1099 O1111 1.256 . S
O1100 La1080 2.521 . S
O1100 C1082 1.261 . S
O1101 La1080 2.628 . S
O1101 C1082 1.243 . S
O1102 La1080 2.554 . S
O1102 C1089 1.240 . S
O1103 La1080 2.757 . S
O1103 La1081 2.482 . S
O1103 C1089 1.289 . S
O1104 La1080 2.470 . S
O1104 C1090 1.258 . S
O1105 La1081 2.503 . S
O1105 C1090 1.256 . S
O1106 La1081 2.521 . S
O1106 C1091 1.261 . S
O1107 La1081 2.628 . S
O1107 C1091 1.243 . S
O1108 La1081 2.554 . S
O1108 C1098 1.240 . S
O1109 La1080 2.482 . S
O1109 La1081 2.757 . S
O1109 C1098 1.289 . S
O1110 La1081 2.470 . S
O1110 C1099 1.258 . S
O1111 La1080 2.503 . S
O1111 C1099 1.256 . S
H1112 C1084 0.930 . S
H1113 C1085 0.930 . S
H1114 C1087 0.929 . S
H1115 C1088 0.929 . S
H1116 C1093 0.930 . S
H1117 C1094 0.930 . S
H1118 C1096 0.929 . S
H1119 C1097 0.929 . S
La1120 C1122 2.928 . S
La1120 O1140 2.521 . S
La1120 O1141 2.628 . S
La1120 O1142 2.554 . S
La1120 O1143 2.757 . S
La1120 O1144 2.470 . S
La1120 O1149 2.482 . S
La1120 O1151 2.503 . S
La1121 C1131 2.928 . S
La1121 O1143 2.482 . S
La1121 O1145 2.503 . S
La1121 O1146 2.521 . S
La1121 O1147 2.628 . S
La1121 O1148 2.554 . S
La1121 O1149 2.757 . S
La1121 O1150 2.470 . S
C1122 La1120 2.928 . S
C1122 C1123 1.503 . S
C1122 O1140 1.261 . S
C1122 O1141 1.243 . S
C1123 C1122 1.503 . S
C1123 C1124 1.394 . S
C1123 C1128 1.373 . S
C1124 C1123 1.394 . S
C1124 C1125 1.380 . S
C1124 H1152 0.930 . S
C1125 C1124 1.380 . S
C1125 C1126 1.376 . S
C1125 H1153 0.930 . S
C1126 C1125 1.376 . S
C1126 C1127 1.370 . S
C1127 C1126 1.370 . S
C1127 C1128 1.396 . S
C1127 H1154 0.929 . S
C1128 C1123 1.373 . S
C1128 C1127 1.396 . S
C1128 H1155 0.929 . S
C1129 O1142 1.240 . S
C1129 O1143 1.289 . S
C1130 O1144 1.258 . S
C1130 O1145 1.256 . S
C1131 La1121 2.928 . S
C1131 C1132 1.503 . S
C1131 O1146 1.261 . S
C1131 O1147 1.243 . S
C1132 C1131 1.503 . S
C1132 C1133 1.394 . S
C1132 C1137 1.373 . S
C1133 C1132 1.394 . S
C1133 C1134 1.380 . S
C1133 H1156 0.930 . S
C1134 C1133 1.380 . S
C1134 C1135 1.376 . S
C1134 H1157 0.930 . S
C1135 C1134 1.376 . S
C1135 C1136 1.370 . S
C1136 C1135 1.370 . S
C1136 C1137 1.396 . S
C1136 H1158 0.929 . S
C1137 C1132 1.373 . S
C1137 C1136 1.396 . S
C1137 H1159 0.929 . S
C1138 O1148 1.240 . S
C1138 O1149 1.289 . S
C1139 O1150 1.258 . S
C1139 O1151 1.256 . S
O1140 La1120 2.521 . S
O1140 C1122 1.261 . S
O1141 La1120 2.628 . S
O1141 C1122 1.243 . S
O1142 La1120 2.554 . S
O1142 C1129 1.240 . S
O1143 La1120 2.757 . S
O1143 La1121 2.482 . S
O1143 C1129 1.289 . S
O1144 La1120 2.470 . S
O1144 C1130 1.258 . S
O1145 La1121 2.503 . S
O1145 C1130 1.256 . S
O1146 La1121 2.521 . S
O1146 C1131 1.261 . S
O1147 La1121 2.628 . S
O1147 C1131 1.243 . S
O1148 La1121 2.554 . S
O1148 C1138 1.240 . S
O1149 La1120 2.482 . S
O1149 La1121 2.757 . S
O1149 C1138 1.289 . S
O1150 La1121 2.470 . S
O1150 C1139 1.258 . S
O1151 La1120 2.503 . S
O1151 C1139 1.256 . S
H1152 C1124 0.930 . S
H1153 C1125 0.930 . S
H1154 C1127 0.929 . S
H1155 C1128 0.929 . S
H1156 C1133 0.930 . S
H1157 C1134 0.930 . S
H1158 C1136 0.929 . S
H1159 C1137 0.929 . S
La1160 C1162 2.928 . S
La1160 O1180 2.521 . S
La1160 O1181 2.628 . S
La1160 O1182 2.554 . S
La1160 O1183 2.757 . S
La1160 O1184 2.470 . S
La1160 O1189 2.482 . S
La1160 O1191 2.503 . S
La1161 C1171 2.928 . S
La1161 O1183 2.482 . S
La1161 O1185 2.503 . S
La1161 O1186 2.521 . S
La1161 O1187 2.628 . S
La1161 O1188 2.554 . S
La1161 O1189 2.757 . S
La1161 O1190 2.470 . S
C1162 La1160 2.928 . S
C1162 C1163 1.503 . S
C1162 O1180 1.261 . S
C1162 O1181 1.243 . S
C1163 C1162 1.503 . S
C1163 C1164 1.394 . S
C1163 C1168 1.373 . S
C1164 C1163 1.394 . S
C1164 C1165 1.380 . S
C1164 H1192 0.930 . S
C1165 C1164 1.380 . S
C1165 C1166 1.376 . S
C1165 H1193 0.930 . S
C1166 C1165 1.376 . S
C1166 C1167 1.370 . S
C1167 C1166 1.370 . S
C1167 C1168 1.396 . S
C1167 H1194 0.929 . S
C1168 C1163 1.373 . S
C1168 C1167 1.396 . S
C1168 H1195 0.929 . S
C1169 O1182 1.240 . S
C1169 O1183 1.289 . S
C1170 O1184 1.258 . S
C1170 O1185 1.256 . S
C1171 La1161 2.928 . S
C1171 C1172 1.503 . S
C1171 O1186 1.261 . S
C1171 O1187 1.243 . S
C1172 C1171 1.503 . S
C1172 C1173 1.394 . S
C1172 C1177 1.373 . S
C1173 C1172 1.394 . S
C1173 C1174 1.380 . S
C1173 H1196 0.930 . S
C1174 C1173 1.380 . S
C1174 C1175 1.376 . S
C1174 H1197 0.930 . S
C1175 C1174 1.376 . S
C1175 C1176 1.370 . S
C1176 C1175 1.370 . S
C1176 C1177 1.396 . S
C1176 H1198 0.929 . S
C1177 C1172 1.373 . S
C1177 C1176 1.396 . S
C1177 H1199 0.929 . S
C1178 O1188 1.240 . S
C1178 O1189 1.289 . S
C1179 O1190 1.258 . S
C1179 O1191 1.256 . S
O1180 La1160 2.521 . S
O1180 C1162 1.261 . S
O1181 La1160 2.628 . S
O1181 C1162 1.243 . S
O1182 La1160 2.554 . S
O1182 C1169 1.240 . S
O1183 La1160 2.757 . S
O1183 La1161 2.482 . S
O1183 C1169 1.289 . S
O1184 La1160 2.470 . S
O1184 C1170 1.258 . S
O1185 La1161 2.503 . S
O1185 C1170 1.256 . S
O1186 La1161 2.521 . S
O1186 C1171 1.261 . S
O1187 La1161 2.628 . S
O1187 C1171 1.243 . S
O1188 La1161 2.554 . S
O1188 C1178 1.240 . S
O1189 La1160 2.482 . S
O1189 La1161 2.757 . S
O1189 C1178 1.289 . S
O1190 La1161 2.470 . S
O1190 C1179 1.258 . S
O1191 La1160 2.503 . S
O1191 C1179 1.256 . S
H1192 C1164 0.930 . S
H1193 C1165 0.930 . S
H1194 C1167 0.929 . S
H1195 C1168 0.929 . S
H1196 C1173 0.930 . S
H1197 C1174 0.930 . S
H1198 C1176 0.929 . S
H1199 C1177 0.929 . S
La1200 C1202 2.928 . S
La1200 O1220 2.521 . S
La1200 O1221 2.628 . S
La1200 O1222 2.554 . S
La1200 O1223 2.757 . S
La1200 O1224 2.470 . S
La1200 O1229 2.482 . S
La1200 O1231 2.503 . S
La1201 C1211 2.928 . S
La1201 O1223 2.482 . S
La1201 O1225 2.503 . S
La1201 O1226 2.521 . S
La1201 O1227 2.628 . S
La1201 O1228 2.554 . S
La1201 O1229 2.757 . S
La1201 O1230 2.470 . S
C1202 La1200 2.928 . S
C1202 C1203 1.503 . S
C1202 O1220 1.261 . S
C1202 O1221 1.243 . S
C1203 C1202 1.503 . S
C1203 C1204 1.394 . S
C1203 C1208 1.373 . S
C1204 C1203 1.394 . S
C1204 C1205 1.380 . S
C1204 H1232 0.930 . S
C1205 C1204 1.380 . S
C1205 C1206 1.376 . S
C1205 H1233 0.930 . S
C1206 C1205 1.376 . S
C1206 C1207 1.370 . S
C1207 C1206 1.370 . S
C1207 C1208 1.396 . S
C1207 H1234 0.929 . S
C1208 C1203 1.373 . S
C1208 C1207 1.396 . S
C1208 H1235 0.929 . S
C1209 O1222 1.240 . S
C1209 O1223 1.289 . S
C1210 O1224 1.258 . S
C1210 O1225 1.256 . S
C1211 La1201 2.928 . S
C1211 C1212 1.503 . S
C1211 O1226 1.261 . S
C1211 O1227 1.243 . S
C1212 C1211 1.503 . S
C1212 C1213 1.394 . S
C1212 C1217 1.373 . S
C1213 C1212 1.394 . S
C1213 C1214 1.380 . S
C1213 H1236 0.930 . S
C1214 C1213 1.380 . S
C1214 C1215 1.376 . S
C1214 H1237 0.930 . S
C1215 C1214 1.376 . S
C1215 C1216 1.370 . S
C1216 C1215 1.370 . S
C1216 C1217 1.396 . S
C1216 H1238 0.929 . S
C1217 C1212 1.373 . S
C1217 C1216 1.396 . S
C1217 H1239 0.929 . S
C1218 O1228 1.240 . S
C1218 O1229 1.289 . S
C1219 O1230 1.258 . S
C1219 O1231 1.256 . S
O1220 La1200 2.521 . S
O1220 C1202 1.261 . S
O1221 La1200 2.628 . S
O1221 C1202 1.243 . S
O1222 La1200 2.554 . S
O1222 C1209 1.240 . S
O1223 La1200 2.757 . S
O1223 La1201 2.482 . S
O1223 C1209 1.289 . S
O1224 La1200 2.470 . S
O1224 C1210 1.258 . S
O1225 La1201 2.503 . S
O1225 C1210 1.256 . S
O1226 La1201 2.521 . S
O1226 C1211 1.261 . S
O1227 La1201 2.628 . S
O1227 C1211 1.243 . S
O1228 La1201 2.554 . S
O1228 C1218 1.240 . S
O1229 La1200 2.482 . S
O1229 La1201 2.757 . S
O1229 C1218 1.289 . S
O1230 La1201 2.470 . S
O1230 C1219 1.258 . S
O1231 La1200 2.503 . S
O1231 C1219 1.256 . S
H1232 C1204 0.930 . S
H1233 C1205 0.930 . S
H1234 C1207 0.929 . S
H1235 C1208 0.929 . S
H1236 C1213 0.930 . S
H1237 C1214 0.930 . S
H1238 C1216 0.929 . S
H1239 C1217 0.929 . S
La1240 C1242 2.928 . S
La1240 O1260 2.521 . S
La1240 O1261 2.628 . S
La1240 O1262 2.554 . S
La1240 O1263 2.757 . S
La1240 O1264 2.470 . S
La1240 O1269 2.482 . S
La1240 O1271 2.503 . S
La1241 C1251 2.928 . S
La1241 O1263 2.482 . S
La1241 O1265 2.503 . S
La1241 O1266 2.521 . S
La1241 O1267 2.628 . S
La1241 O1268 2.554 . S
La1241 O1269 2.757 . S
La1241 O1270 2.470 . S
C1242 La1240 2.928 . S
C1242 C1243 1.503 . S
C1242 O1260 1.261 . S
C1242 O1261 1.243 . S
C1243 C1242 1.503 . S
C1243 C1244 1.394 . S
C1243 C1248 1.373 . S
C1244 C1243 1.394 . S
C1244 C1245 1.380 . S
C1244 H1272 0.930 . S
C1245 C1244 1.380 . S
C1245 C1246 1.376 . S
C1245 H1273 0.930 . S
C1246 C1245 1.376 . S
C1246 C1247 1.370 . S
C1247 C1246 1.370 . S
C1247 C1248 1.396 . S
C1247 H1274 0.929 . S
C1248 C1243 1.373 . S
C1248 C1247 1.396 . S
C1248 H1275 0.929 . S
C1249 O1262 1.240 . S
C1249 O1263 1.289 . S
C1250 O1264 1.258 . S
C1250 O1265 1.256 . S
C1251 La1241 2.928 . S
C1251 C1252 1.503 . S
C1251 O1266 1.261 . S
C1251 O1267 1.243 . S
C1252 C1251 1.503 . S
C1252 C1253 1.394 . S
C1252 C1257 1.373 . S
C1253 C1252 1.394 . S
C1253 C1254 1.380 . S
C1253 H1276 0.930 . S
C1254 C1253 1.380 . S
C1254 C1255 1.376 . S
C1254 H1277 0.930 . S
C1255 C1254 1.376 . S
C1255 C1256 1.370 . S
C1256 C1255 1.370 . S
C1256 C1257 1.396 . S
C1256 H1278 0.929 . S
C1257 C1252 1.373 . S
C1257 C1256 1.396 . S
C1257 H1279 0.929 . S
C1258 O1268 1.240 . S
C1258 O1269 1.289 . S
C1259 O1270 1.258 . S
C1259 O1271 1.256 . S
O1260 La1240 2.521 . S
O1260 C1242 1.261 . S
O1261 La1240 2.628 . S
O1261 C1242 1.243 . S
O1262 La1240 2.554 . S
O1262 C1249 1.240 . S
O1263 La1240 2.757 . S
O1263 La1241 2.482 . S
O1263 C1249 1.289 . S
O1264 La1240 2.470 . S
O1264 C1250 1.258 . S
O1265 La1241 2.503 . S
O1265 C1250 1.256 . S
O1266 La1241 2.521 . S
O1266 C1251 1.261 . S
O1267 La1241 2.628 . S
O1267 C1251 1.243 . S
O1268 La1241 2.554 . S
O1268 C1258 1.240 . S
O1269 La1240 2.482 . S
O1269 La1241 2.757 . S
O1269 C1258 1.289 . S
O1270 La1241 2.470 . S
O1270 C1259 1.258 . S
O1271 La1240 2.503 . S
O1271 C1259 1.256 . S
H1272 C1244 0.930 . S
H1273 C1245 0.930 . S
H1274 C1247 0.929 . S
H1275 C1248 0.929 . S
H1276 C1253 0.930 . S
H1277 C1254 0.930 . S
H1278 C1256 0.929 . S
H1279 C1257 0.929 . S
La1280 C1282 2.928 . S
La1280 O1300 2.521 . S
La1280 O1301 2.628 . S
La1280 O1302 2.554 . S
La1280 O1303 2.757 . S
La1280 O1304 2.470 . S
La1280 O1309 2.482 . S
La1280 O1311 2.503 . S
La1281 C1291 2.928 . S
La1281 O1303 2.482 . S
La1281 O1305 2.503 . S
La1281 O1306 2.521 . S
La1281 O1307 2.628 . S
La1281 O1308 2.554 . S
La1281 O1309 2.757 . S
La1281 O1310 2.470 . S
C1282 La1280 2.928 . S
C1282 C1283 1.503 . S
C1282 O1300 1.261 . S
C1282 O1301 1.243 . S
C1283 C1282 1.503 . S
C1283 C1284 1.394 . S
C1283 C1288 1.373 . S
C1284 C1283 1.394 . S
C1284 C1285 1.380 . S
C1284 H1312 0.930 . S
C1285 C1284 1.380 . S
C1285 C1286 1.376 . S
C1285 H1313 0.930 . S
C1286 C1285 1.376 . S
C1286 C1287 1.370 . S
C1287 C1286 1.370 . S
C1287 C1288 1.396 . S
C1287 H1314 0.929 . S
C1288 C1283 1.373 . S
C1288 C1287 1.396 . S
C1288 H1315 0.929 . S
C1289 O1302 1.240 . S
C1289 O1303 1.289 . S
C1290 O1304 1.258 . S
C1290 O1305 1.256 . S
C1291 La1281 2.928 . S
C1291 C1292 1.503 . S
C1291 O1306 1.261 . S
C1291 O1307 1.243 . S
C1292 C1291 1.503 . S
C1292 C1293 1.394 . S
C1292 C1297 1.373 . S
C1293 C1292 1.394 . S
C1293 C1294 1.380 . S
C1293 H1316 0.930 . S
C1294 C1293 1.380 . S
C1294 C1295 1.376 . S
C1294 H1317 0.930 . S
C1295 C1294 1.376 . S
C1295 C1296 1.370 . S
C1296 C1295 1.370 . S
C1296 C1297 1.396 . S
C1296 H1318 0.929 . S
C1297 C1292 1.373 . S
C1297 C1296 1.396 . S
C1297 H1319 0.929 . S
C1298 O1308 1.240 . S
C1298 O1309 1.289 . S
C1299 O1310 1.258 . S
C1299 O1311 1.256 . S
O1300 La1280 2.521 . S
O1300 C1282 1.261 . S
O1301 La1280 2.628 . S
O1301 C1282 1.243 . S
O1302 La1280 2.554 . S
O1302 C1289 1.240 . S
O1303 La1280 2.757 . S
O1303 La1281 2.482 . S
O1303 C1289 1.289 . S
O1304 La1280 2.470 . S
O1304 C1290 1.258 . S
O1305 La1281 2.503 . S
O1305 C1290 1.256 . S
O1306 La1281 2.521 . S
O1306 C1291 1.261 . S
O1307 La1281 2.628 . S
O1307 C1291 1.243 . S
O1308 La1281 2.554 . S
O1308 C1298 1.240 . S
O1309 La1280 2.482 . S
O1309 La1281 2.757 . S
O1309 C1298 1.289 . S
O1310 La1281 2.470 . S
O1310 C1299 1.258 . S
O1311 La1280 2.503 . S
O1311 C1299 1.256 . S
H1312 C1284 0.930 . S
H1313 C1285 0.930 . S
H1314 C1287 0.929 . S
H1315 C1288 0.929 . S
H1316 C1293 0.930 . S
H1317 C1294 0.930 . S
H1318 C1296 0.929 . S
H1319 C1297 0.929 . S
La1320 C1322 2.928 . S
La1320 O1340 2.521 . S
La1320 O1341 2.628 . S
La1320 O1342 2.554 . S
La1320 O1343 2.757 . S
La1320 O1344 2.470 . S
La1320 O1349 2.482 . S
La1320 O1351 2.503 . S
La1321 C1331 2.928 . S
La1321 O1343 2.482 . S
La1321 O1345 2.503 . S
La1321 O1346 2.521 . S
La1321 O1347 2.628 . S
La1321 O1348 2.554 . S
La1321 O1349 2.757 . S
La1321 O1350 2.470 . S
C1322 La1320 2.928 . S
C1322 C1323 1.503 . S
C1322 O1340 1.261 . S
C1322 O1341 1.243 . S
C1323 C1322 1.503 . S
C1323 C1324 1.394 . S
C1323 C1328 1.373 . S
C1324 C1323 1.394 . S
C1324 C1325 1.380 . S
C1324 H1352 0.930 . S
C1325 C1324 1.380 . S
C1325 C1326 1.376 . S
C1325 H1353 0.930 . S
C1326 C1325 1.376 . S
C1326 C1327 1.370 . S
C1327 C1326 1.370 . S
C1327 C1328 1.396 . S
C1327 H1354 0.929 . S
C1328 C1323 1.373 . S
C1328 C1327 1.396 . S
C1328 H1355 0.929 . S
C1329 O1342 1.240 . S
C1329 O1343 1.289 . S
C1330 O1344 1.258 . S
C1330 O1345 1.256 . S
C1331 La1321 2.928 . S
C1331 C1332 1.503 . S
C1331 O1346 1.261 . S
C1331 O1347 1.243 . S
C1332 C1331 1.503 . S
C1332 C1333 1.394 . S
C1332 C1337 1.373 . S
C1333 C1332 1.394 . S
C1333 C1334 1.380 . S
C1333 H1356 0.930 . S
C1334 C1333 1.380 . S
C1334 C1335 1.376 . S
C1334 H1357 0.930 . S
C1335 C1334 1.376 . S
C1335 C1336 1.370 . S
C1336 C1335 1.370 . S
C1336 C1337 1.396 . S
C1336 H1358 0.929 . S
C1337 C1332 1.373 . S
C1337 C1336 1.396 . S
C1337 H1359 0.929 . S
C1338 O1348 1.240 . S
C1338 O1349 1.289 . S
C1339 O1350 1.258 . S
C1339 O1351 1.256 . S
O1340 La1320 2.521 . S
O1340 C1322 1.261 . S
O1341 La1320 2.628 . S
O1341 C1322 1.243 . S
O1342 La1320 2.554 . S
O1342 C1329 1.240 . S
O1343 La1320 2.757 . S
O1343 La1321 2.482 . S
O1343 C1329 1.289 . S
O1344 La1320 2.470 . S
O1344 C1330 1.258 . S
O1345 La1321 2.503 . S
O1345 C1330 1.256 . S
O1346 La1321 2.521 . S
O1346 C1331 1.261 . S
O1347 La1321 2.628 . S
O1347 C1331 1.243 . S
O1348 La1321 2.554 . S
O1348 C1338 1.240 . S
O1349 La1320 2.482 . S
O1349 La1321 2.757 . S
O1349 C1338 1.289 . S
O1350 La1321 2.470 . S
O1350 C1339 1.258 . S
O1351 La1320 2.503 . S
O1351 C1339 1.256 . S
H1352 C1324 0.930 . S
H1353 C1325 0.930 . S
H1354 C1327 0.929 . S
H1355 C1328 0.929 . S
H1356 C1333 0.930 . S
H1357 C1334 0.930 . S
H1358 C1336 0.929 . S
H1359 C1337 0.929 . S
La1360 C1362 2.928 . S
La1360 O1380 2.521 . S
La1360 O1381 2.628 . S
La1360 O1382 2.554 . S
La1360 O1383 2.757 . S
La1360 O1384 2.470 . S
La1360 O1389 2.482 . S
La1360 O1391 2.503 . S
La1361 C1371 2.928 . S
La1361 O1383 2.482 . S
La1361 O1385 2.503 . S
La1361 O1386 2.521 . S
La1361 O1387 2.628 . S
La1361 O1388 2.554 . S
La1361 O1389 2.757 . S
La1361 O1390 2.470 . S
C1362 La1360 2.928 . S
C1362 C1363 1.503 . S
C1362 O1380 1.261 . S
C1362 O1381 1.243 . S
C1363 C1362 1.503 . S
C1363 C1364 1.394 . S
C1363 C1368 1.373 . S
C1364 C1363 1.394 . S
C1364 C1365 1.380 . S
C1364 H1392 0.930 . S
C1365 C1364 1.380 . S
C1365 C1366 1.376 . S
C1365 H1393 0.930 . S
C1366 C1365 1.376 . S
C1366 C1367 1.370 . S
C1367 C1366 1.370 . S
C1367 C1368 1.396 . S
C1367 H1394 0.929 . S
C1368 C1363 1.373 . S
C1368 C1367 1.396 . S
C1368 H1395 0.929 . S
C1369 O1382 1.240 . S
C1369 O1383 1.289 . S
C1370 O1384 1.258 . S
C1370 O1385 1.256 . S
C1371 La1361 2.928 . S
C1371 C1372 1.503 . S
C1371 O1386 1.261 . S
C1371 O1387 1.243 . S
C1372 C1371 1.503 . S
C1372 C1373 1.394 . S
C1372 C1377 1.373 . S
C1373 C1372 1.394 . S
C1373 C1374 1.380 . S
C1373 H1396 0.930 . S
C1374 C1373 1.380 . S
C1374 C1375 1.376 . S
C1374 H1397 0.930 . S
C1375 C1374 1.376 . S
C1375 C1376 1.370 . S
C1376 C1375 1.370 . S
C1376 C1377 1.396 . S
C1376 H1398 0.929 . S
C1377 C1372 1.373 . S
C1377 C1376 1.396 . S
C1377 H1399 0.929 . S
C1378 O1388 1.240 . S
C1378 O1389 1.289 . S
C1379 O1390 1.258 . S
C1379 O1391 1.256 . S
O1380 La1360 2.521 . S
O1380 C1362 1.261 . S
O1381 La1360 2.628 . S
O1381 C1362 1.243 . S
O1382 La1360 2.554 . S
O1382 C1369 1.240 . S
O1383 La1360 2.757 . S
O1383 La1361 2.482 . S
O1383 C1369 1.289 . S
O1384 La1360 2.470 . S
O1384 C1370 1.258 . S
O1385 La1361 2.503 . S
O1385 C1370 1.256 . S
O1386 La1361 2.521 . S
O1386 C1371 1.261 . S
O1387 La1361 2.628 . S
O1387 C1371 1.243 . S
O1388 La1361 2.554 . S
O1388 C1378 1.240 . S
O1389 La1360 2.482 . S
O1389 La1361 2.757 . S
O1389 C1378 1.289 . S
O1390 La1361 2.470 . S
O1390 C1379 1.258 . S
O1391 La1360 2.503 . S
O1391 C1379 1.256 . S
H1392 C1364 0.930 . S
H1393 C1365 0.930 . S
H1394 C1367 0.929 . S
H1395 C1368 0.929 . S
H1396 C1373 0.930 . S
H1397 C1374 0.930 . S
H1398 C1376 0.929 . S
H1399 C1377 0.929 . S
La1400 C1402 2.928 . S
La1400 O1420 2.521 . S
La1400 O1421 2.628 . S
La1400 O1422 2.554 . S
La1400 O1423 2.757 . S
La1400 O1424 2.470 . S
La1400 O1429 2.482 . S
La1400 O1431 2.503 . S
La1401 C1411 2.928 . S
La1401 O1423 2.482 . S
La1401 O1425 2.503 . S
La1401 O1426 2.521 . S
La1401 O1427 2.628 . S
La1401 O1428 2.554 . S
La1401 O1429 2.757 . S
La1401 O1430 2.470 . S
C1402 La1400 2.928 . S
C1402 C1403 1.503 . S
C1402 O1420 1.261 . S
C1402 O1421 1.243 . S
C1403 C1402 1.503 . S
C1403 C1404 1.394 . S
C1403 C1408 1.373 . S
C1404 C1403 1.394 . S
C1404 C1405 1.380 . S
C1404 H1432 0.930 . S
C1405 C1404 1.380 . S
C1405 C1406 1.376 . S
C1405 H1433 0.930 . S
C1406 C1405 1.376 . S
C1406 C1407 1.370 . S
C1407 C1406 1.370 . S
C1407 C1408 1.396 . S
C1407 H1434 0.929 . S
C1408 C1403 1.373 . S
C1408 C1407 1.396 . S
C1408 H1435 0.929 . S
C1409 O1422 1.240 . S
C1409 O1423 1.289 . S
C1410 O1424 1.258 . S
C1410 O1425 1.256 . S
C1411 La1401 2.928 . S
C1411 C1412 1.503 . S
C1411 O1426 1.261 . S
C1411 O1427 1.243 . S
C1412 C1411 1.503 . S
C1412 C1413 1.394 . S
C1412 C1417 1.373 . S
C1413 C1412 1.394 . S
C1413 C1414 1.380 . S
C1413 H1436 0.930 . S
C1414 C1413 1.380 . S
C1414 C1415 1.376 . S
C1414 H1437 0.930 . S
C1415 C1414 1.376 . S
C1415 C1416 1.370 . S
C1416 C1415 1.370 . S
C1416 C1417 1.396 . S
C1416 H1438 0.929 . S
C1417 C1412 1.373 . S
C1417 C1416 1.396 . S
C1417 H1439 0.929 . S
C1418 O1428 1.240 . S
C1418 O1429 1.289 . S
C1419 O1430 1.258 . S
C1419 O1431 1.256 . S
O1420 La1400 2.521 . S
O1420 C1402 1.261 . S
O1421 La1400 2.628 . S
O1421 C1402 1.243 . S
O1422 La1400 2.554 . S
O1422 C1409 1.240 . S
O1423 La1400 2.757 . S
O1423 La1401 2.482 . S
O1423 C1409 1.289 . S
O1424 La1400 2.470 . S
O1424 C1410 1.258 . S
O1425 La1401 2.503 . S
O1425 C1410 1.256 . S
O1426 La1401 2.521 . S
O1426 C1411 1.261 . S
O1427 La1401 2.628 . S
O1427 C1411 1.243 . S
O1428 La1401 2.554 . S
O1428 C1418 1.240 . S
O1429 La1400 2.482 . S
O1429 La1401 2.757 . S
O1429 C1418 1.289 . S
O1430 La1401 2.470 . S
O1430 C1419 1.258 . S
O1431 La1400 2.503 . S
O1431 C1419 1.256 . S
H1432 C1404 0.930 . S
H1433 C1405 0.930 . S
H1434 C1407 0.929 . S
H1435 C1408 0.929 . S
H1436 C1413 0.930 . S
H1437 C1414 0.930 . S
H1438 C1416 0.929 . S
H1439 C1417 0.929 . S
H1440 C1446 0.930 . S
H1441 C1450 0.930 . S
H1442 C1455 0.929 . S
H1443 C1453 0.929 . S
H1444 C1448 0.929 . S
H1445 C1454 0.929 . S
C1446 H1440 0.930 . S
C1446 C1447 1.367 . S
C1446 C1454 1.378 . S
C1447 C1446 1.367 . S
C1447 C1455 1.433 . S
C1448 H1444 0.929 . S
C1448 C1450 1.378 1_545 S
C1448 C1452 1.350 1_556 S
C1449 C1452 1.463 . S
C1449 C1454 1.350 . S
C1449 N1457 1.427 . S
C1450 H1441 0.930 . S
C1450 C1448 1.378 1_565 S
C1450 C1451 1.367 . S
C1451 C1450 1.367 . S
C1451 C1453 1.433 1_556 S
C1452 C1448 1.350 1_554 S
C1452 C1449 1.463 . S
C1452 N1456 1.427 1_545 S
C1453 H1443 0.929 . S
C1453 C1451 1.433 1_554 S
C1453 N1456 1.384 . S
C1454 H1445 0.929 . S
C1454 C1446 1.378 . S
C1454 C1449 1.350 . S
C1455 H1442 0.929 . S
C1455 C1447 1.433 . S
C1455 N1457 1.384 . S
N1456 C1452 1.427 1_565 S
N1456 C1453 1.384 . S
N1457 C1449 1.427 . S
N1457 C1455 1.384 . S
H1458 C1464 0.930 . S
H1459 C1468 0.930 . S
H1460 C1473 0.929 . S
H1461 C1471 0.929 1_556 S
H1462 C1466 0.929 . S
H1463 C1472 0.929 . S
C1464 H1458 0.930 . S
C1464 C1465 1.367 . S
C1464 C1472 1.378 1_455 S
C1465 C1464 1.367 . S
C1465 C1473 1.433 1_556 S
C1466 H1462 0.929 . S
C1466 C1468 1.378 . S
C1466 C1470 1.350 . S
C1467 C1470 1.463 . S
C1467 C1472 1.350 1_554 S
C1467 N1475 1.427 1_655 S
C1468 H1459 0.930 . S
C1468 C1466 1.378 . S
C1468 C1469 1.367 . S
C1469 C1468 1.367 . S
C1469 C1471 1.433 . S
C1470 C1466 1.350 . S
C1470 C1467 1.463 . S
C1470 N1474 1.427 1_554 S
C1471 H1461 0.929 1_554 S
C1471 C1469 1.433 . S
C1471 N1474 1.384 1_554 S
C1472 H1463 0.929 . S
C1472 C1464 1.378 1_655 S
C1472 C1467 1.350 1_556 S
C1473 H1460 0.929 . S
C1473 C1465 1.433 1_554 S
C1473 N1475 1.384 . S
N1474 C1470 1.427 1_556 S
N1474 C1471 1.384 1_556 S
N1475 C1467 1.427 1_455 S
N1475 C1473 1.384 . S
H1476 C1482 0.930 . S
H1477 C1486 0.930 . S
H1478 C1491 0.929 . S
H1479 C1489 0.929 . S
H1480 C1484 0.929 . S
H1481 C1490 0.929 . S
C1482 H1476 0.930 . S
C1482 C1483 1.367 . S
C1482 C1490 1.378 1_556 S
C1483 C1482 1.367 . S
C1483 C1491 1.433 . S
C1484 H1480 0.929 . S
C1484 C1486 1.378 . S
C1484 C1488 1.350 . S
C1485 C1488 1.463 . S
C1485 C1490 1.350 . S
C1485 N1493 1.427 1_554 S
C1486 H1477 0.930 . S
C1486 C1484 1.378 . S
C1486 C1487 1.367 . S
C1487 C1486 1.367 . S
C1487 C1489 1.433 . S
C1488 C1484 1.350 . S
C1488 C1485 1.463 . S
C1488 N1492 1.427 . S
C1489 H1479 0.929 . S
C1489 C1487 1.433 . S
C1489 N1492 1.384 . S
C1490 H1481 0.929 . S
C1490 C1482 1.378 1_554 S
C1490 C1485 1.350 . S
C1491 H1478 0.929 . S
C1491 C1483 1.433 . S
C1491 N1493 1.384 . S
N1492 C1488 1.427 . S
N1492 C1489 1.384 . S
N1493 C1485 1.427 1_556 S
N1493 C1491 1.384 . S
H1494 C1500 0.930 . S
H1495 C1504 0.930 . S
H1496 C1509 0.929 . S
H1497 C1507 0.929 . S
H1498 C1502 0.929 . S
H1499 C1508 0.929 . S
C1500 H1494 0.930 . S
C1500 C1501 1.367 . S
C1500 C1508 1.378 1_655 S
C1501 C1500 1.367 . S
C1501 C1509 1.433 . S
C1502 H1498 0.929 . S
C1502 C1504 1.378 . S
C1502 C1506 1.350 . S
C1503 C1506 1.463 . S
C1503 C1508 1.350 . S
C1503 N1511 1.427 1_455 S
C1504 H1495 0.930 . S
C1504 C1502 1.378 . S
C1504 C1505 1.367 . S
C1505 C1504 1.367 . S
C1505 C1507 1.433 . S
C1506 C1502 1.350 . S
C1506 C1503 1.463 . S
C1506 N1510 1.427 . S
C1507 H1497 0.929 . S
C1507 C1505 1.433 . S
C1507 N1510 1.384 . S
C1508 H1499 0.929 . S
C1508 C1500 1.378 1_455 S
C1508 C1503 1.350 . S
C1509 H1496 0.929 . S
C1509 C1501 1.433 . S
C1509 N1511 1.384 . S
N1510 C1506 1.427 . S
N1510 C1507 1.384 . S
N1511 C1503 1.427 1_655 S
N1511 C1509 1.384 . S
H1512 C1518 0.930 . S
H1513 C1522 0.930 . S
H1514 C1527 0.929 . S
H1515 C1525 0.929 . S
H1516 C1520 0.929 . S
H1517 C1526 0.929 . S
C1518 H1512 0.930 . S
C1518 C1519 1.367 . S
C1518 C1526 1.378 . S
C1519 C1518 1.367 . S
C1519 C1527 1.433 . S
C1520 H1516 0.929 . S
C1520 C1522 1.378 . S
C1520 C1524 1.350 . S
C1521 C1524 1.463 . S
C1521 C1526 1.350 . S
C1521 N1529 1.427 . S
C1522 H1513 0.930 . S
C1522 C1520 1.378 . S
C1522 C1523 1.367 . S
C1523 C1522 1.367 . S
C1523 C1525 1.433 . S
C1524 C1520 1.350 . S
C1524 C1521 1.463 . S
C1524 N1528 1.427 . S
C1525 H1515 0.929 . S
C1525 C1523 1.433 . S
C1525 N1528 1.384 . S
C1526 H1517 0.929 . S
C1526 C1518 1.378 . S
C1526 C1521 1.350 . S
C1527 H1514 0.929 . S
C1527 C1519 1.433 . S
C1527 N1529 1.384 . S
N1528 C1524 1.427 . S
N1528 C1525 1.384 . S
N1529 C1521 1.427 . S
N1529 C1527 1.384 . S
H1530 C1536 0.930 . S
H1531 C1540 0.930 . S
H1532 C1545 0.929 . S
H1533 C1543 0.929 . S
H1534 C1538 0.929 . S
H1535 C1544 0.929 . S
C1536 H1530 0.930 . S
C1536 C1537 1.367 . S
C1536 C1544 1.378 . S
C1537 C1536 1.367 . S
C1537 C1545 1.433 . S
C1538 H1534 0.929 . S
C1538 C1540 1.378 1_565 S
C1538 C1542 1.350 . S
C1539 C1542 1.463 . S
C1539 C1544 1.350 . S
C1539 N1547 1.427 . S
C1540 H1531 0.930 . S
C1540 C1538 1.378 1_545 S
C1540 C1541 1.367 . S
C1541 C1540 1.367 . S
C1541 C1543 1.433 . S
C1542 C1538 1.350 . S
C1542 C1539 1.463 . S
C1542 N1546 1.427 1_565 S
C1543 H1533 0.929 . S
C1543 C1541 1.433 . S
C1543 N1546 1.384 . S
C1544 H1535 0.929 . S
C1544 C1536 1.378 . S
C1544 C1539 1.350 . S
C1545 H1532 0.929 . S
C1545 C1537 1.433 . S
C1545 N1547 1.384 . S
N1546 C1542 1.427 1_545 S
N1546 C1543 1.384 . S
N1547 C1539 1.427 . S
N1547 C1545 1.384 . S
H1548 C1554 0.930 . S
H1549 C1558 0.930 . S
H1550 C1563 0.929 . S
H1551 C1561 0.929 . S
H1552 C1556 0.929 1_554 S
H1553 C1562 0.929 . S
C1554 H1548 0.930 . S
C1554 C1555 1.367 1_556 S
C1554 C1562 1.378 . S
C1555 C1554 1.367 1_554 S
C1555 C1563 1.433 . S
C1556 H1552 0.929 1_556 S
C1556 C1558 1.378 . S
C1556 C1560 1.350 . S
C1557 C1560 1.463 . S
C1557 C1562 1.350 1_565 S
C1557 N1565 1.427 1_556 S
C1558 H1549 0.930 . S
C1558 C1556 1.378 . S
C1558 C1559 1.367 . S
C1559 C1558 1.367 . S
C1559 C1561 1.433 . S
C1560 C1556 1.350 . S
C1560 C1557 1.463 . S
C1560 N1564 1.427 . S
C1561 H1551 0.929 . S
C1561 C1559 1.433 . S
C1561 N1564 1.384 . S
C1562 H1553 0.929 . S
C1562 C1554 1.378 . S
C1562 C1557 1.350 1_545 S
C1563 H1550 0.929 . S
C1563 C1555 1.433 . S
C1563 N1565 1.384 1_545 S
N1564 C1560 1.427 . S
N1564 C1561 1.384 . S
N1565 C1557 1.427 1_554 S
N1565 C1563 1.384 1_565 S
H1566 C1572 0.930 . S
H1567 C1576 0.930 . S
H1568 C1581 0.929 1_554 S
H1569 C1579 0.929 . S
H1570 C1574 0.929 . S
H1571 C1580 0.929 . S
C1572 H1566 0.930 . S
C1572 C1573 1.367 . S
C1572 C1580 1.378 . S
C1573 C1572 1.367 . S
C1573 C1581 1.433 . S
C1574 H1570 0.929 . S
C1574 C1576 1.378 1_455 S
C1574 C1578 1.350 1_554 S
C1575 C1578 1.463 . S
C1575 C1580 1.350 . S
C1575 N1583 1.427 1_556 S
C1576 H1567 0.930 . S
C1576 C1574 1.378 1_655 S
C1576 C1577 1.367 . S
C1577 C1576 1.367 . S
C1577 C1579 1.433 1_554 S
C1578 C1574 1.350 1_556 S
C1578 C1575 1.463 . S
C1578 N1582 1.427 1_455 S
C1579 H1569 0.929 . S
C1579 C1577 1.433 1_556 S
C1579 N1582 1.384 . S
C1580 H1571 0.929 . S
C1580 C1572 1.378 . S
C1580 C1575 1.350 . S
C1581 H1568 0.929 1_556 S
C1581 C1573 1.433 . S
C1581 N1583 1.384 1_556 S
N1582 C1578 1.427 1_655 S
N1582 C1579 1.384 . S
N1583 C1575 1.427 1_554 S
N1583 C1581 1.384 1_554 S
H1584 C1590 0.930 . S
H1585 C1594 0.930 . S
H1586 C1599 0.929 . S
H1587 C1597 0.929 . S
H1588 C1592 0.929 1_554 S
H1589 C1598 0.929 . S
C1590 H1584 0.930 . S
C1590 C1591 1.367 1_556 S
C1590 C1598 1.378 . S
C1591 C1590 1.367 1_554 S
C1591 C1599 1.433 . S
C1592 H1588 0.929 1_556 S
C1592 C1594 1.378 . S
C1592 C1596 1.350 . S
C1593 C1596 1.463 . S
C1593 C1598 1.350 . S
C1593 N1601 1.427 1_556 S
C1594 H1585 0.930 . S
C1594 C1592 1.378 . S
C1594 C1595 1.367 . S
C1595 C1594 1.367 . S
C1595 C1597 1.433 . S
C1596 C1592 1.350 . S
C1596 C1593 1.463 . S
C1596 N1600 1.427 . S
C1597 H1587 0.929 . S
C1597 C1595 1.433 . S
C1597 N1600 1.384 . S
C1598 H1589 0.929 . S
C1598 C1590 1.378 . S
C1598 C1593 1.350 . S
C1599 H1586 0.929 . S
C1599 C1591 1.433 . S
C1599 N1601 1.384 . S
N1600 C1596 1.427 . S
N1600 C1597 1.384 . S
N1601 C1593 1.427 1_554 S
N1601 C1599 1.384 . S
H1602 C1608 0.930 . S
H1603 C1612 0.930 . S
H1604 C1617 0.929 . S
H1605 C1615 0.929 . S
H1606 C1610 0.929 . S
H1607 C1616 0.929 . S
C1608 H1602 0.930 . S
C1608 C1609 1.367 . S
C1608 C1616 1.378 1_455 S
C1609 C1608 1.367 . S
C1609 C1617 1.433 . S
C1610 H1606 0.929 . S
C1610 C1612 1.378 . S
C1610 C1614 1.350 . S
C1611 C1614 1.463 . S
C1611 C1616 1.350 . S
C1611 N1619 1.427 1_655 S
C1612 H1603 0.930 . S
C1612 C1610 1.378 . S
C1612 C1613 1.367 . S
C1613 C1612 1.367 . S
C1613 C1615 1.433 . S
C1614 C1610 1.350 . S
C1614 C1611 1.463 . S
C1614 N1618 1.427 . S
C1615 H1605 0.929 . S
C1615 C1613 1.433 . S
C1615 N1618 1.384 . S
C1616 H1607 0.929 . S
C1616 C1608 1.378 1_655 S
C1616 C1611 1.350 . S
C1617 H1604 0.929 . S
C1617 C1609 1.433 . S
C1617 N1619 1.384 . S
N1618 C1614 1.427 . S
N1618 C1615 1.384 . S
N1619 C1611 1.427 1_455 S
N1619 C1617 1.384 . S
H1620 C1626 0.930 . S
H1621 C1630 0.930 . S
H1622 C1635 0.929 . S
H1623 C1633 0.929 . S
H1624 C1628 0.929 . S
H1625 C1634 0.929 . S
C1626 H1620 0.930 . S
C1626 C1627 1.367 . S
C1626 C1634 1.378 . S
C1627 C1626 1.367 . S
C1627 C1635 1.433 . S
C1628 H1624 0.929 . S
C1628 C1630 1.378 . S
C1628 C1632 1.350 . S
C1629 C1632 1.463 . S
C1629 C1634 1.350 . S
C1629 N1637 1.427 . S
C1630 H1621 0.930 . S
C1630 C1628 1.378 . S
C1630 C1631 1.367 . S
C1631 C1630 1.367 . S
C1631 C1633 1.433 . S
C1632 C1628 1.350 . S
C1632 C1629 1.463 . S
C1632 N1636 1.427 . S
C1633 H1623 0.929 . S
C1633 C1631 1.433 . S
C1633 N1636 1.384 . S
C1634 H1625 0.929 . S
C1634 C1626 1.378 . S
C1634 C1629 1.350 . S
C1635 H1622 0.929 . S
C1635 C1627 1.433 . S
C1635 N1637 1.384 . S
N1636 C1632 1.427 . S
N1636 C1633 1.384 . S
N1637 C1629 1.427 . S
N1637 C1635 1.384 . S
H1638 C1644 0.930 . S
H1639 C1648 0.930 . S
H1640 C1653 0.929 . S
H1641 C1651 0.929 . S
H1642 C1646 0.929 . S
H1643 C1652 0.929 . S
C1644 H1638 0.930 . S
C1644 C1645 1.367 . S
C1644 C1652 1.378 . S
C1645 C1644 1.367 . S
C1645 C1653 1.433 . S
C1646 H1642 0.929 . S
C1646 C1648 1.378 . S
C1646 C1650 1.350 1_565 S
C1647 C1650 1.463 . S
C1647 C1652 1.350 . S
C1647 N1655 1.427 . S
C1648 H1639 0.930 . S
C1648 C1646 1.378 . S
C1648 C1649 1.367 . S
C1649 C1648 1.367 . S
C1649 C1651 1.433 . S
C1650 C1646 1.350 1_545 S
C1650 C1647 1.463 . S
C1650 N1654 1.427 . S
C1651 H1641 0.929 . S
C1651 C1649 1.433 . S
C1651 N1654 1.384 1_565 S
C1652 H1643 0.929 . S
C1652 C1644 1.378 . S
C1652 C1647 1.350 . S
C1653 H1640 0.929 . S
C1653 C1645 1.433 . S
C1653 N1655 1.384 . S
N1654 C1650 1.427 . S
N1654 C1651 1.384 1_545 S
N1655 C1647 1.427 . S
N1655 C1653 1.384 . S
H1656 C1662 0.930 . S
H1657 C1666 0.930 . S
H1658 C1671 0.929 . S
H1659 C1669 0.929 . S
H1660 C1664 0.929 . S
H1661 C1670 0.929 . S
C1662 H1656 0.930 . S
C1662 C1663 1.367 . S
C1662 C1670 1.378 . S
C1663 C1662 1.367 . S
C1663 C1671 1.433 . S
C1664 H1660 0.929 . S
C1664 C1666 1.378 . S
C1664 C1668 1.350 . S
C1665 C1668 1.463 . S
C1665 C1670 1.350 . S
C1665 N1673 1.427 . S
C1666 H1657 0.930 . S
C1666 C1664 1.378 . S
C1666 C1667 1.367 . S
C1667 C1666 1.367 . S
C1667 C1669 1.433 . S
C1668 C1664 1.350 . S
C1668 C1665 1.463 . S
C1668 N1672 1.427 . S
C1669 H1659 0.929 . S
C1669 C1667 1.433 . S
C1669 N1672 1.384 . S
C1670 H1661 0.929 . S
C1670 C1662 1.378 . S
C1670 C1665 1.350 . S
C1671 H1658 0.929 . S
C1671 C1663 1.433 . S
C1671 N1673 1.384 . S
N1672 C1668 1.427 . S
N1672 C1669 1.384 . S
N1673 C1665 1.427 . S
N1673 C1671 1.384 . S
H1674 C1680 0.930 . S
H1675 C1684 0.930 . S
H1676 C1689 0.929 . S
H1677 C1687 0.929 . S
H1678 C1682 0.929 . S
H1679 C1688 0.929 . S
C1680 H1674 0.930 . S
C1680 C1681 1.367 . S
C1680 C1688 1.378 . S
C1681 C1680 1.367 . S
C1681 C1689 1.433 . S
C1682 H1678 0.929 . S
C1682 C1684 1.378 . S
C1682 C1686 1.350 . S
C1683 C1686 1.463 . S
C1683 C1688 1.350 . S
C1683 N1691 1.427 . S
C1684 H1675 0.930 . S
C1684 C1682 1.378 . S
C1684 C1685 1.367 . S
C1685 C1684 1.367 . S
C1685 C1687 1.433 . S
C1686 C1682 1.350 . S
C1686 C1683 1.463 . S
C1686 N1690 1.427 . S
C1687 H1677 0.929 . S
C1687 C1685 1.433 . S
C1687 N1690 1.384 . S
C1688 H1679 0.929 . S
C1688 C1680 1.378 . S
C1688 C1683 1.350 . S
C1689 H1676 0.929 . S
C1689 C1681 1.433 . S
C1689 N1691 1.384 . S
N1690 C1686 1.427 . S
N1690 C1687 1.384 . S
N1691 C1683 1.427 . S
N1691 C1689 1.384 . S
H1692 C1698 0.930 . S
H1693 C1702 0.930 . S
H1694 C1707 0.929 . S
H1695 C1705 0.929 . S
H1696 C1700 0.929 . S
H1697 C1706 0.929 . S
C1698 H1692 0.930 . S
C1698 C1699 1.367 . S
C1698 C1706 1.378 . S
C1699 C1698 1.367 . S
C1699 C1707 1.433 . S
C1700 H1696 0.929 . S
C1700 C1702 1.378 . S
C1700 C1704 1.350 . S
C1701 C1704 1.463 . S
C1701 C1706 1.350 . S
C1701 N1709 1.427 . S
C1702 H1693 0.930 . S
C1702 C1700 1.378 . S
C1702 C1703 1.367 . S
C1703 C1702 1.367 . S
C1703 C1705 1.433 . S
C1704 C1700 1.350 . S
C1704 C1701 1.463 . S
C1704 N1708 1.427 . S
C1705 H1695 0.929 . S
C1705 C1703 1.433 . S
C1705 N1708 1.384 . S
C1706 H1697 0.929 . S
C1706 C1698 1.378 . S
C1706 C1701 1.350 . S
C1707 H1694 0.929 . S
C1707 C1699 1.433 . S
C1707 N1709 1.384 . S
N1708 C1704 1.427 . S
N1708 C1705 1.384 . S
N1709 C1701 1.427 . S
N1709 C1707 1.384 . S
H1710 C1716 0.930 . S
H1711 C1720 0.930 . S
H1712 C1725 0.929 . S
H1713 C1723 0.929 . S
H1714 C1718 0.929 . S
H1715 C1724 0.929 . S
C1716 H1710 0.930 . S
C1716 C1717 1.367 . S
C1716 C1724 1.378 . S
C1717 C1716 1.367 . S
C1717 C1725 1.433 . S
C1718 H1714 0.929 . S
C1718 C1720 1.378 . S
C1718 C1722 1.350 . S
C1719 C1722 1.463 . S
C1719 C1724 1.350 . S
C1719 N1727 1.427 . S
C1720 H1711 0.930 . S
C1720 C1718 1.378 . S
C1720 C1721 1.367 . S
C1721 C1720 1.367 . S
C1721 C1723 1.433 . S
C1722 C1718 1.350 . S
C1722 C1719 1.463 . S
C1722 N1726 1.427 . S
C1723 H1713 0.929 . S
C1723 C1721 1.433 . S
C1723 N1726 1.384 . S
C1724 H1715 0.929 . S
C1724 C1716 1.378 . S
C1724 C1719 1.350 . S
C1725 H1712 0.929 . S
C1725 C1717 1.433 . S
C1725 N1727 1.384 . S
N1726 C1722 1.427 . S
N1726 C1723 1.384 . S
N1727 C1719 1.427 . S
N1727 C1725 1.384 . S
H1728 C1734 0.930 . S
H1729 C1738 0.930 . S
H1730 C1743 0.929 . S
H1731 C1741 0.929 . S
H1732 C1736 0.929 . S
H1733 C1742 0.929 . S
C1734 H1728 0.930 . S
C1734 C1735 1.367 . S
C1734 C1742 1.378 . S
C1735 C1734 1.367 . S
C1735 C1743 1.433 . S
C1736 H1732 0.929 . S
C1736 C1738 1.378 . S
C1736 C1740 1.350 . S
C1737 C1740 1.463 . S
C1737 C1742 1.350 . S
C1737 N1745 1.427 . S
C1738 H1729 0.930 . S
C1738 C1736 1.378 . S
C1738 C1739 1.367 . S
C1739 C1738 1.367 . S
C1739 C1741 1.433 . S
C1740 C1736 1.350 . S
C1740 C1737 1.463 . S
C1740 N1744 1.427 . S
C1741 H1731 0.929 . S
C1741 C1739 1.433 . S
C1741 N1744 1.384 . S
C1742 H1733 0.929 . S
C1742 C1734 1.378 . S
C1742 C1737 1.350 . S
C1743 H1730 0.929 . S
C1743 C1735 1.433 . S
C1743 N1745 1.384 . S
N1744 C1740 1.427 . S
N1744 C1741 1.384 . S
N1745 C1737 1.427 . S
N1745 C1743 1.384 . S
H1746 C1752 0.930 . S
H1747 C1756 0.930 . S
H1748 C1761 0.929 . S
H1749 C1759 0.929 . S
H1750 C1754 0.929 . S
H1751 C1760 0.929 . S
C1752 H1746 0.930 . S
C1752 C1753 1.367 . S
C1752 C1760 1.378 . S
C1753 C1752 1.367 . S
C1753 C1761 1.433 . S
C1754 H1750 0.929 . S
C1754 C1756 1.378 . S
C1754 C1758 1.350 . S
C1755 C1758 1.463 . S
C1755 C1760 1.350 . S
C1755 N1763 1.427 . S
C1756 H1747 0.930 . S
C1756 C1754 1.378 . S
C1756 C1757 1.367 . S
C1757 C1756 1.367 . S
C1757 C1759 1.433 . S
C1758 C1754 1.350 . S
C1758 C1755 1.463 . S
C1758 N1762 1.427 . S
C1759 H1749 0.929 . S
C1759 C1757 1.433 . S
C1759 N1762 1.384 . S
C1760 H1751 0.929 . S
C1760 C1752 1.378 . S
C1760 C1755 1.350 . S
C1761 H1748 0.929 . S
C1761 C1753 1.433 . S
C1761 N1763 1.384 . S
N1762 C1758 1.427 . S
N1762 C1759 1.384 . S
N1763 C1755 1.427 . S
N1763 C1761 1.384 . S
H1764 C1770 0.930 . S
H1765 C1774 0.930 . S
H1766 C1779 0.929 . S
H1767 C1777 0.929 . S
H1768 C1772 0.929 . S
H1769 C1778 0.929 . S
C1770 H1764 0.930 . S
C1770 C1771 1.367 . S
C1770 C1778 1.378 . S
C1771 C1770 1.367 . S
C1771 C1779 1.433 . S
C1772 H1768 0.929 . S
C1772 C1774 1.378 . S
C1772 C1776 1.350 . S
C1773 C1776 1.463 . S
C1773 C1778 1.350 . S
C1773 N1781 1.427 . S
C1774 H1765 0.930 . S
C1774 C1772 1.378 . S
C1774 C1775 1.367 . S
C1775 C1774 1.367 . S
C1775 C1777 1.433 . S
C1776 C1772 1.350 . S
C1776 C1773 1.463 . S
C1776 N1780 1.427 . S
C1777 H1767 0.929 . S
C1777 C1775 1.433 . S
C1777 N1780 1.384 . S
C1778 H1769 0.929 . S
C1778 C1770 1.378 . S
C1778 C1773 1.350 . S
C1779 H1766 0.929 . S
C1779 C1771 1.433 . S
C1779 N1781 1.384 . S
N1780 C1776 1.427 . S
N1780 C1777 1.384 . S
N1781 C1773 1.427 . S
N1781 C1779 1.384 . S
H1782 C1788 0.930 . S
H1783 C1792 0.930 . S
H1784 C1797 0.929 . S
H1785 C1795 0.929 . S
H1786 C1790 0.929 . S
H1787 C1796 0.929 . S
C1788 H1782 0.930 . S
C1788 C1789 1.367 . S
C1788 C1796 1.378 . S
C1789 C1788 1.367 . S
C1789 C1797 1.433 . S
C1790 H1786 0.929 . S
C1790 C1792 1.378 . S
C1790 C1794 1.350 . S
C1791 C1794 1.463 . S
C1791 C1796 1.350 . S
C1791 N1799 1.427 . S
C1792 H1783 0.930 . S
C1792 C1790 1.378 . S
C1792 C1793 1.367 . S
C1793 C1792 1.367 . S
C1793 C1795 1.433 . S
C1794 C1790 1.350 . S
C1794 C1791 1.463 . S
C1794 N1798 1.427 . S
C1795 H1785 0.929 . S
C1795 C1793 1.433 . S
C1795 N1798 1.384 . S
C1796 H1787 0.929 . S
C1796 C1788 1.378 . S
C1796 C1791 1.350 . S
C1797 H1784 0.929 . S
C1797 C1789 1.433 . S
C1797 N1799 1.384 . S
N1798 C1794 1.427 . S
N1798 C1795 1.384 . S
N1799 C1791 1.427 . S
N1799 C1797 1.384 . S
H1800 C1806 0.930 . S
H1801 C1810 0.930 . S
H1802 C1815 0.929 . S
H1803 C1813 0.929 . S
H1804 C1808 0.929 . S
H1805 C1814 0.929 . S
C1806 H1800 0.930 . S
C1806 C1807 1.367 . S
C1806 C1814 1.378 . S
C1807 C1806 1.367 . S
C1807 C1815 1.433 . S
C1808 H1804 0.929 . S
C1808 C1810 1.378 . S
C1808 C1812 1.350 . S
C1809 C1812 1.463 . S
C1809 C1814 1.350 . S
C1809 N1817 1.427 . S
C1810 H1801 0.930 . S
C1810 C1808 1.378 . S
C1810 C1811 1.367 . S
C1811 C1810 1.367 . S
C1811 C1813 1.433 . S
C1812 C1808 1.350 . S
C1812 C1809 1.463 . S
C1812 N1816 1.427 . S
C1813 H1803 0.929 . S
C1813 C1811 1.433 . S
C1813 N1816 1.384 . S
C1814 H1805 0.929 . S
C1814 C1806 1.378 . S
C1814 C1809 1.350 . S
C1815 H1802 0.929 . S
C1815 C1807 1.433 . S
C1815 N1817 1.384 . S
N1816 C1812 1.427 . S
N1816 C1813 1.384 . S
N1817 C1809 1.427 . S
N1817 C1815 1.384 . S
H1818 C1824 0.930 . S
H1819 C1828 0.930 . S
H1820 C1833 0.929 . S
H1821 C1831 0.929 . S
H1822 C1826 0.929 . S
H1823 C1832 0.929 . S
C1824 H1818 0.930 . S
C1824 C1825 1.367 . S
C1824 C1832 1.378 . S
C1825 C1824 1.367 . S
C1825 C1833 1.433 . S
C1826 H1822 0.929 . S
C1826 C1828 1.378 . S
C1826 C1830 1.350 . S
C1827 C1830 1.463 . S
C1827 C1832 1.350 . S
C1827 N1835 1.427 . S
C1828 H1819 0.930 . S
C1828 C1826 1.378 . S
C1828 C1829 1.367 . S
C1829 C1828 1.367 . S
C1829 C1831 1.433 . S
C1830 C1826 1.350 . S
C1830 C1827 1.463 . S
C1830 N1834 1.427 . S
C1831 H1821 0.929 . S
C1831 C1829 1.433 . S
C1831 N1834 1.384 . S
C1832 H1823 0.929 . S
C1832 C1824 1.378 . S
C1832 C1827 1.350 . S
C1833 H1820 0.929 . S
C1833 C1825 1.433 . S
C1833 N1835 1.384 . S
N1834 C1830 1.427 . S
N1834 C1831 1.384 . S
N1835 C1827 1.427 . S
N1835 C1833 1.384 . S
H1836 C1842 0.930 . S
H1837 C1846 0.930 . S
H1838 C1851 0.929 . S
H1839 C1849 0.929 . S
H1840 C1844 0.929 . S
H1841 C1850 0.929 . S
C1842 H1836 0.930 . S
C1842 C1843 1.367 . S
C1842 C1850 1.378 . S
C1843 C1842 1.367 . S
C1843 C1851 1.433 . S
C1844 H1840 0.929 . S
C1844 C1846 1.378 . S
C1844 C1848 1.350 . S
C1845 C1848 1.463 . S
C1845 C1850 1.350 . S
C1845 N1853 1.427 . S
C1846 H1837 0.930 . S
C1846 C1844 1.378 . S
C1846 C1847 1.367 . S
C1847 C1846 1.367 . S
C1847 C1849 1.433 . S
C1848 C1844 1.350 . S
C1848 C1845 1.463 . S
C1848 N1852 1.427 . S
C1849 H1839 0.929 . S
C1849 C1847 1.433 . S
C1849 N1852 1.384 . S
C1850 H1841 0.929 . S
C1850 C1842 1.378 . S
C1850 C1845 1.350 . S
C1851 H1838 0.929 . S
C1851 C1843 1.433 . S
C1851 N1853 1.384 . S
N1852 C1848 1.427 . S
N1852 C1849 1.384 . S
N1853 C1845 1.427 . S
N1853 C1851 1.384 . S
H1854 C1860 0.930 . S
H1855 C1864 0.930 . S
H1856 C1869 0.929 . S
H1857 C1867 0.929 . S
H1858 C1862 0.929 . S
H1859 C1868 0.929 . S
C1860 H1854 0.930 . S
C1860 C1861 1.367 . S
C1860 C1868 1.378 . S
C1861 C1860 1.367 . S
C1861 C1869 1.433 . S
C1862 H1858 0.929 . S
C1862 C1864 1.378 . S
C1862 C1866 1.350 . S
C1863 C1866 1.463 . S
C1863 C1868 1.350 . S
C1863 N1871 1.427 . S
C1864 H1855 0.930 . S
C1864 C1862 1.378 . S
C1864 C1865 1.367 . S
C1865 C1864 1.367 . S
C1865 C1867 1.433 . S
C1866 C1862 1.350 . S
C1866 C1863 1.463 . S
C1866 N1870 1.427 . S
C1867 H1857 0.929 . S
C1867 C1865 1.433 . S
C1867 N1870 1.384 . S
C1868 H1859 0.929 . S
C1868 C1860 1.378 . S
C1868 C1863 1.350 . S
C1869 H1856 0.929 . S
C1869 C1861 1.433 . S
C1869 N1871 1.384 . S
N1870 C1866 1.427 . S
N1870 C1867 1.384 . S
N1871 C1863 1.427 . S
N1871 C1869 1.384 . S
H1872 C1878 0.930 . S
H1873 C1882 0.930 . S
H1874 C1887 0.929 . S
H1875 C1885 0.929 . S
H1876 C1880 0.929 . S
H1877 C1886 0.929 . S
C1878 H1872 0.930 . S
C1878 C1879 1.367 . S
C1878 C1886 1.378 . S
C1879 C1878 1.367 . S
C1879 C1887 1.433 . S
C1880 H1876 0.929 . S
C1880 C1882 1.378 . S
C1880 C1884 1.350 . S
C1881 C1884 1.463 . S
C1881 C1886 1.350 . S
C1881 N1889 1.427 . S
C1882 H1873 0.930 . S
C1882 C1880 1.378 . S
C1882 C1883 1.367 . S
C1883 C1882 1.367 . S
C1883 C1885 1.433 . S
C1884 C1880 1.350 . S
C1884 C1881 1.463 . S
C1884 N1888 1.427 . S
C1885 H1875 0.929 . S
C1885 C1883 1.433 . S
C1885 N1888 1.384 . S
C1886 H1877 0.929 . S
C1886 C1878 1.378 . S
C1886 C1881 1.350 . S
C1887 H1874 0.929 . S
C1887 C1879 1.433 . S
C1887 N1889 1.384 . S
N1888 C1884 1.427 . S
N1888 C1885 1.384 . S
N1889 C1881 1.427 . S
N1889 C1887 1.384 . S
H1890 C1896 0.930 . S
H1891 C1900 0.930 . S
H1892 C1905 0.929 . S
H1893 C1903 0.929 . S
H1894 C1898 0.929 . S
H1895 C1904 0.929 . S
C1896 H1890 0.930 . S
C1896 C1897 1.367 . S
C1896 C1904 1.378 . S
C1897 C1896 1.367 . S
C1897 C1905 1.433 . S
C1898 H1894 0.929 . S
C1898 C1900 1.378 . S
C1898 C1902 1.350 . S
C1899 C1902 1.463 . S
C1899 C1904 1.350 . S
C1899 N1907 1.427 . S
C1900 H1891 0.930 . S
C1900 C1898 1.378 . S
C1900 C1901 1.367 . S
C1901 C1900 1.367 . S
C1901 C1903 1.433 . S
C1902 C1898 1.350 . S
C1902 C1899 1.463 . S
C1902 N1906 1.427 . S
C1903 H1893 0.929 . S
C1903 C1901 1.433 . S
C1903 N1906 1.384 . S
C1904 H1895 0.929 . S
C1904 C1896 1.378 . S
C1904 C1899 1.350 . S
C1905 H1892 0.929 . S
C1905 C1897 1.433 . S
C1905 N1907 1.384 . S
N1906 C1902 1.427 . S
N1906 C1903 1.384 . S
N1907 C1899 1.427 . S
N1907 C1905 1.384 . S
H1908 C1914 0.930 . S
H1909 C1918 0.930 . S
H1910 C1923 0.929 . S
H1911 C1921 0.929 . S
H1912 C1916 0.929 . S
H1913 C1922 0.929 . S
C1914 H1908 0.930 . S
C1914 C1915 1.367 . S
C1914 C1922 1.378 . S
C1915 C1914 1.367 . S
C1915 C1923 1.433 . S
C1916 H1912 0.929 . S
C1916 C1918 1.378 . S
C1916 C1920 1.350 . S
C1917 C1920 1.463 . S
C1917 C1922 1.350 . S
C1917 N1925 1.427 . S
C1918 H1909 0.930 . S
C1918 C1916 1.378 . S
C1918 C1919 1.367 . S
C1919 C1918 1.367 . S
C1919 C1921 1.433 . S
C1920 C1916 1.350 . S
C1920 C1917 1.463 . S
C1920 N1924 1.427 . S
C1921 H1911 0.929 . S
C1921 C1919 1.433 . S
C1921 N1924 1.384 . S
C1922 H1913 0.929 . S
C1922 C1914 1.378 . S
C1922 C1917 1.350 . S
C1923 H1910 0.929 . S
C1923 C1915 1.433 . S
C1923 N1925 1.384 . S
N1924 C1920 1.427 . S
N1924 C1921 1.384 . S
N1925 C1917 1.427 . S
N1925 C1923 1.384 . S
H1926 C1932 0.930 . S
H1927 C1936 0.930 . S
H1928 C1941 0.929 . S
H1929 C1939 0.929 . S
H1930 C1934 0.929 . S
H1931 C1940 0.929 . S
C1932 H1926 0.930 . S
C1932 C1933 1.367 . S
C1932 C1940 1.378 . S
C1933 C1932 1.367 . S
C1933 C1941 1.433 . S
C1934 H1930 0.929 . S
C1934 C1936 1.378 . S
C1934 C1938 1.350 . S
C1935 C1938 1.463 . S
C1935 C1940 1.350 . S
C1935 N1943 1.427 . S
C1936 H1927 0.930 . S
C1936 C1934 1.378 . S
C1936 C1937 1.367 . S
C1937 C1936 1.367 . S
C1937 C1939 1.433 . S
C1938 C1934 1.350 . S
C1938 C1935 1.463 . S
C1938 N1942 1.427 . S
C1939 H1929 0.929 . S
C1939 C1937 1.433 . S
C1939 N1942 1.384 . S
C1940 H1931 0.929 . S
C1940 C1932 1.378 . S
C1940 C1935 1.350 . S
C1941 H1928 0.929 . S
C1941 C1933 1.433 . S
C1941 N1943 1.384 . S
N1942 C1938 1.427 . S
N1942 C1939 1.384 . S
N1943 C1935 1.427 . S
N1943 C1941 1.384 . S
H1944 C1950 0.930 . S
H1945 C1954 0.930 . S
H1946 C1959 0.929 . S
H1947 C1957 0.929 . S
H1948 C1952 0.929 . S
H1949 C1958 0.929 . S
C1950 H1944 0.930 . S
C1950 C1951 1.367 . S
C1950 C1958 1.378 . S
C1951 C1950 1.367 . S
C1951 C1959 1.433 . S
C1952 H1948 0.929 . S
C1952 C1954 1.378 . S
C1952 C1956 1.350 . S
C1953 C1956 1.463 . S
C1953 C1958 1.350 . S
C1953 N1961 1.427 . S
C1954 H1945 0.930 . S
C1954 C1952 1.378 . S
C1954 C1955 1.367 . S
C1955 C1954 1.367 . S
C1955 C1957 1.433 . S
C1956 C1952 1.350 . S
C1956 C1953 1.463 . S
C1956 N1960 1.427 . S
C1957 H1947 0.929 . S
C1957 C1955 1.433 . S
C1957 N1960 1.384 . S
C1958 H1949 0.929 . S
C1958 C1950 1.378 . S
C1958 C1953 1.350 . S
C1959 H1946 0.929 . S
C1959 C1951 1.433 . S
C1959 N1961 1.384 . S
N1960 C1956 1.427 . S
N1960 C1957 1.384 . S
N1961 C1953 1.427 . S
N1961 C1959 1.384 . S
H1962 C1968 0.930 . S
H1963 C1972 0.930 . S
H1964 C1977 0.929 . S
H1965 C1975 0.929 . S
H1966 C1970 0.929 . S
H1967 C1976 0.929 . S
C1968 H1962 0.930 . S
C1968 C1969 1.367 . S
C1968 C1976 1.378 . S
C1969 C1968 1.367 . S
C1969 C1977 1.433 . S
C1970 H1966 0.929 . S
C1970 C1972 1.378 . S
C1970 C1974 1.350 . S
C1971 C1974 1.463 . S
C1971 C1976 1.350 . S
C1971 N1979 1.427 . S
C1972 H1963 0.930 . S
C1972 C1970 1.378 . S
C1972 C1973 1.367 . S
C1973 C1972 1.367 . S
C1973 C1975 1.433 . S
C1974 C1970 1.350 . S
C1974 C1971 1.463 . S
C1974 N1978 1.427 . S
C1975 H1965 0.929 . S
C1975 C1973 1.433 . S
C1975 N1978 1.384 . S
C1976 H1967 0.929 . S
C1976 C1968 1.378 . S
C1976 C1971 1.350 . S
C1977 H1964 0.929 . S
C1977 C1969 1.433 . S
C1977 N1979 1.384 . S
N1978 C1974 1.427 . S
N1978 C1975 1.384 . S
N1979 C1971 1.427 . S
N1979 C1977 1.384 . S
H1980 C1986 0.930 . S
H1981 C1990 0.930 . S
H1982 C1995 0.929 . S
H1983 C1993 0.929 . S
H1984 C1988 0.929 . S
H1985 C1994 0.929 . S
C1986 H1980 0.930 . S
C1986 C1987 1.367 . S
C1986 C1994 1.378 . S
C1987 C1986 1.367 . S
C1987 C1995 1.433 . S
C1988 H1984 0.929 . S
C1988 C1990 1.378 . S
C1988 C1992 1.350 . S
C1989 C1992 1.463 . S
C1989 C1994 1.350 . S
C1989 N1997 1.427 . S
C1990 H1981 0.930 . S
C1990 C1988 1.378 . S
C1990 C1991 1.367 . S
C1991 C1990 1.367 . S
C1991 C1993 1.433 . S
C1992 C1988 1.350 . S
C1992 C1989 1.463 . S
C1992 N1996 1.427 . S
C1993 H1983 0.929 . S
C1993 C1991 1.433 . S
C1993 N1996 1.384 . S
C1994 H1985 0.929 . S
C1994 C1986 1.378 . S
C1994 C1989 1.350 . S
C1995 H1982 0.929 . S
C1995 C1987 1.433 . S
C1995 N1997 1.384 . S
N1996 C1992 1.427 . S
N1996 C1993 1.384 . S
N1997 C1989 1.427 . S
N1997 C1995 1.384 . S
H1998 C2004 0.930 . S
H1999 C2008 0.930 . S
H2000 C2013 0.929 . S
H2001 C2011 0.929 . S
H2002 C2006 0.929 . S
H2003 C2012 0.929 . S
C2004 H1998 0.930 . S
C2004 C2005 1.367 . S
C2004 C2012 1.378 . S
C2005 C2004 1.367 . S
C2005 C2013 1.433 . S
C2006 H2002 0.929 . S
C2006 C2008 1.378 . S
C2006 C2010 1.350 . S
C2007 C2010 1.463 . S
C2007 C2012 1.350 . S
C2007 N2015 1.427 . S
C2008 H1999 0.930 . S
C2008 C2006 1.378 . S
C2008 C2009 1.367 . S
C2009 C2008 1.367 . S
C2009 C2011 1.433 . S
C2010 C2006 1.350 . S
C2010 C2007 1.463 . S
C2010 N2014 1.427 . S
C2011 H2001 0.929 . S
C2011 C2009 1.433 . S
C2011 N2014 1.384 . S
C2012 H2003 0.929 . S
C2012 C2004 1.378 . S
C2012 C2007 1.350 . S
C2013 H2000 0.929 . S
C2013 C2005 1.433 . S
C2013 N2015 1.384 . S
N2014 C2010 1.427 . S
N2014 C2011 1.384 . S
N2015 C2007 1.427 . S
N2015 C2013 1.384 . S
H2016 C2022 0.930 . S
H2017 C2026 0.930 . S
H2018 C2031 0.929 . S
H2019 C2029 0.929 . S
H2020 C2024 0.929 . S
H2021 C2030 0.929 . S
C2022 H2016 0.930 . S
C2022 C2023 1.367 . S
C2022 C2030 1.378 . S
C2023 C2022 1.367 . S
C2023 C2031 1.433 . S
C2024 H2020 0.929 . S
C2024 C2026 1.378 . S
C2024 C2028 1.350 . S
C2025 C2028 1.463 . S
C2025 C2030 1.350 . S
C2025 N2033 1.427 . S
C2026 H2017 0.930 . S
C2026 C2024 1.378 . S
C2026 C2027 1.367 . S
C2027 C2026 1.367 . S
C2027 C2029 1.433 . S
C2028 C2024 1.350 . S
C2028 C2025 1.463 . S
C2028 N2032 1.427 . S
C2029 H2019 0.929 . S
C2029 C2027 1.433 . S
C2029 N2032 1.384 . S
C2030 H2021 0.929 . S
C2030 C2022 1.378 . S
C2030 C2025 1.350 . S
C2031 H2018 0.929 . S
C2031 C2023 1.433 . S
C2031 N2033 1.384 . S
N2032 C2028 1.427 . S
N2032 C2029 1.384 . S
N2033 C2025 1.427 . S
N2033 C2031 1.384 . S
H2034 C2040 0.930 . S
H2035 C2044 0.930 . S
H2036 C2049 0.929 . S
H2037 C2047 0.929 . S
H2038 C2042 0.929 . S
H2039 C2048 0.929 . S
C2040 H2034 0.930 . S
C2040 C2041 1.367 . S
C2040 C2048 1.378 . S
C2041 C2040 1.367 . S
C2041 C2049 1.433 . S
C2042 H2038 0.929 . S
C2042 C2044 1.378 . S
C2042 C2046 1.350 . S
C2043 C2046 1.463 . S
C2043 C2048 1.350 . S
C2043 N2051 1.427 . S
C2044 H2035 0.930 . S
C2044 C2042 1.378 . S
C2044 C2045 1.367 . S
C2045 C2044 1.367 . S
C2045 C2047 1.433 . S
C2046 C2042 1.350 . S
C2046 C2043 1.463 . S
C2046 N2050 1.427 . S
C2047 H2037 0.929 . S
C2047 C2045 1.433 . S
C2047 N2050 1.384 . S
C2048 H2039 0.929 . S
C2048 C2040 1.378 . S
C2048 C2043 1.350 . S
C2049 H2036 0.929 . S
C2049 C2041 1.433 . S
C2049 N2051 1.384 . S
N2050 C2046 1.427 . S
N2050 C2047 1.384 . S
N2051 C2043 1.427 . S
N2051 C2049 1.384 . S
H2052 C2058 0.930 . S
H2053 C2062 0.930 . S
H2054 C2067 0.929 . S
H2055 C2065 0.929 . S
H2056 C2060 0.929 . S
H2057 C2066 0.929 . S
C2058 H2052 0.930 . S
C2058 C2059 1.367 . S
C2058 C2066 1.378 . S
C2059 C2058 1.367 . S
C2059 C2067 1.433 . S
C2060 H2056 0.929 . S
C2060 C2062 1.378 . S
C2060 C2064 1.350 . S
C2061 C2064 1.463 . S
C2061 C2066 1.350 . S
C2061 N2069 1.427 . S
C2062 H2053 0.930 . S
C2062 C2060 1.378 . S
C2062 C2063 1.367 . S
C2063 C2062 1.367 . S
C2063 C2065 1.433 . S
C2064 C2060 1.350 . S
C2064 C2061 1.463 . S
C2064 N2068 1.427 . S
C2065 H2055 0.929 . S
C2065 C2063 1.433 . S
C2065 N2068 1.384 . S
C2066 H2057 0.929 . S
C2066 C2058 1.378 . S
C2066 C2061 1.350 . S
C2067 H2054 0.929 . S
C2067 C2059 1.433 . S
C2067 N2069 1.384 . S
N2068 C2064 1.427 . S
N2068 C2065 1.384 . S
N2069 C2061 1.427 . S
N2069 C2067 1.384 . S
H2070 C2076 0.930 . S
H2071 C2080 0.930 . S
H2072 C2085 0.929 . S
H2073 C2083 0.929 . S
H2074 C2078 0.929 . S
H2075 C2084 0.929 . S
C2076 H2070 0.930 . S
C2076 C2077 1.367 . S
C2076 C2084 1.378 . S
C2077 C2076 1.367 . S
C2077 C2085 1.433 . S
C2078 H2074 0.929 . S
C2078 C2080 1.378 . S
C2078 C2082 1.350 . S
C2079 C2082 1.463 . S
C2079 C2084 1.350 . S
C2079 N2087 1.427 . S
C2080 H2071 0.930 . S
C2080 C2078 1.378 . S
C2080 C2081 1.367 . S
C2081 C2080 1.367 . S
C2081 C2083 1.433 . S
C2082 C2078 1.350 . S
C2082 C2079 1.463 . S
C2082 N2086 1.427 . S
C2083 H2073 0.929 . S
C2083 C2081 1.433 . S
C2083 N2086 1.384 . S
C2084 H2075 0.929 . S
C2084 C2076 1.378 . S
C2084 C2079 1.350 . S
C2085 H2072 0.929 . S
C2085 C2077 1.433 . S
C2085 N2087 1.384 . S
N2086 C2082 1.427 . S
N2086 C2083 1.384 . S
N2087 C2079 1.427 . S
N2087 C2085 1.384 . S
H2088 C2094 0.930 . S
H2089 C2098 0.930 . S
H2090 C2103 0.929 . S
H2091 C2101 0.929 . S
H2092 C2096 0.929 . S
H2093 C2102 0.929 . S
C2094 H2088 0.930 . S
C2094 C2095 1.367 . S
C2094 C2102 1.378 . S
C2095 C2094 1.367 . S
C2095 C2103 1.433 . S
C2096 H2092 0.929 . S
C2096 C2098 1.378 . S
C2096 C2100 1.350 . S
C2097 C2100 1.463 . S
C2097 C2102 1.350 . S
C2097 N2105 1.427 . S
C2098 H2089 0.930 . S
C2098 C2096 1.378 . S
C2098 C2099 1.367 . S
C2099 C2098 1.367 . S
C2099 C2101 1.433 . S
C2100 C2096 1.350 . S
C2100 C2097 1.463 . S
C2100 N2104 1.427 . S
C2101 H2091 0.929 . S
C2101 C2099 1.433 . S
C2101 N2104 1.384 . S
C2102 H2093 0.929 . S
C2102 C2094 1.378 . S
C2102 C2097 1.350 . S
C2103 H2090 0.929 . S
C2103 C2095 1.433 . S
C2103 N2105 1.384 . S
N2104 C2100 1.427 . S
N2104 C2101 1.384 . S
N2105 C2097 1.427 . S
N2105 C2103 1.384 . S
H2106 C2112 0.930 . S
H2107 C2116 0.930 . S
H2108 C2121 0.929 . S
H2109 C2119 0.929 . S
H2110 C2114 0.929 . S
H2111 C2120 0.929 . S
C2112 H2106 0.930 . S
C2112 C2113 1.367 . S
C2112 C2120 1.378 . S
C2113 C2112 1.367 . S
C2113 C2121 1.433 . S
C2114 H2110 0.929 . S
C2114 C2116 1.378 . S
C2114 C2118 1.350 . S
C2115 C2118 1.463 . S
C2115 C2120 1.350 . S
C2115 N2123 1.427 . S
C2116 H2107 0.930 . S
C2116 C2114 1.378 . S
C2116 C2117 1.367 . S
C2117 C2116 1.367 . S
C2117 C2119 1.433 . S
C2118 C2114 1.350 . S
C2118 C2115 1.463 . S
C2118 N2122 1.427 . S
C2119 H2109 0.929 . S
C2119 C2117 1.433 . S
C2119 N2122 1.384 . S
C2120 H2111 0.929 . S
C2120 C2112 1.378 . S
C2120 C2115 1.350 . S
C2121 H2108 0.929 . S
C2121 C2113 1.433 . S
C2121 N2123 1.384 . S
N2122 C2118 1.427 . S
N2122 C2119 1.384 . S
N2123 C2115 1.427 . S
N2123 C2121 1.384 . S
H2124 C2130 0.930 . S
H2125 C2134 0.930 . S
H2126 C2139 0.929 . S
H2127 C2137 0.929 . S
H2128 C2132 0.929 . S
H2129 C2138 0.929 . S
C2130 H2124 0.930 . S
C2130 C2131 1.367 . S
C2130 C2138 1.378 . S
C2131 C2130 1.367 . S
C2131 C2139 1.433 . S
C2132 H2128 0.929 . S
C2132 C2134 1.378 . S
C2132 C2136 1.350 . S
C2133 C2136 1.463 . S
C2133 C2138 1.350 . S
C2133 N2141 1.427 . S
C2134 H2125 0.930 . S
C2134 C2132 1.378 . S
C2134 C2135 1.367 . S
C2135 C2134 1.367 . S
C2135 C2137 1.433 . S
C2136 C2132 1.350 . S
C2136 C2133 1.463 . S
C2136 N2140 1.427 . S
C2137 H2127 0.929 . S
C2137 C2135 1.433 . S
C2137 N2140 1.384 . S
C2138 H2129 0.929 . S
C2138 C2130 1.378 . S
C2138 C2133 1.350 . S
C2139 H2126 0.929 . S
C2139 C2131 1.433 . S
C2139 N2141 1.384 . S
N2140 C2136 1.427 . S
N2140 C2137 1.384 . S
N2141 C2133 1.427 . S
N2141 C2139 1.384 . S
H2142 C2148 0.930 . S
H2143 C2152 0.930 . S
H2144 C2157 0.929 . S
H2145 C2155 0.929 . S
H2146 C2150 0.929 . S
H2147 C2156 0.929 . S
C2148 H2142 0.930 . S
C2148 C2149 1.367 . S
C2148 C2156 1.378 . S
C2149 C2148 1.367 . S
C2149 C2157 1.433 . S
C2150 H2146 0.929 . S
C2150 C2152 1.378 . S
C2150 C2154 1.350 . S
C2151 C2154 1.463 . S
C2151 C2156 1.350 . S
C2151 N2159 1.427 . S
C2152 H2143 0.930 . S
C2152 C2150 1.378 . S
C2152 C2153 1.367 . S
C2153 C2152 1.367 . S
C2153 C2155 1.433 . S
C2154 C2150 1.350 . S
C2154 C2151 1.463 . S
C2154 N2158 1.427 . S
C2155 H2145 0.929 . S
C2155 C2153 1.433 . S
C2155 N2158 1.384 . S
C2156 H2147 0.929 . S
C2156 C2148 1.378 . S
C2156 C2151 1.350 . S
C2157 H2144 0.929 . S
C2157 C2149 1.433 . S
C2157 N2159 1.384 . S
N2158 C2154 1.427 . S
N2158 C2155 1.384 . S
N2159 C2151 1.427 . S
N2159 C2157 1.384 . S
H2160 C2166 0.930 . S
H2161 C2170 0.930 . S
H2162 C2175 0.929 . S
H2163 C2173 0.929 . S
H2164 C2168 0.929 . S
H2165 C2174 0.929 . S
C2166 H2160 0.930 . S
C2166 C2167 1.367 . S
C2166 C2174 1.378 . S
C2167 C2166 1.367 . S
C2167 C2175 1.433 . S
C2168 H2164 0.929 . S
C2168 C2170 1.378 . S
C2168 C2172 1.350 . S
C2169 C2172 1.463 . S
C2169 C2174 1.350 . S
C2169 N2177 1.427 . S
C2170 H2161 0.930 . S
C2170 C2168 1.378 . S
C2170 C2171 1.367 . S
C2171 C2170 1.367 . S
C2171 C2173 1.433 . S
C2172 C2168 1.350 . S
C2172 C2169 1.463 . S
C2172 N2176 1.427 . S
C2173 H2163 0.929 . S
C2173 C2171 1.433 . S
C2173 N2176 1.384 . S
C2174 H2165 0.929 . S
C2174 C2166 1.378 . S
C2174 C2169 1.350 . S
C2175 H2162 0.929 . S
C2175 C2167 1.433 . S
C2175 N2177 1.384 . S
N2176 C2172 1.427 . S
N2176 C2173 1.384 . S
N2177 C2169 1.427 . S
N2177 C2175 1.384 . S
H2178 C2184 0.930 . S
H2179 C2188 0.930 . S
H2180 C2193 0.929 . S
H2181 C2191 0.929 . S
H2182 C2186 0.929 . S
H2183 C2192 0.929 . S
C2184 H2178 0.930 . S
C2184 C2185 1.367 . S
C2184 C2192 1.378 . S
C2185 C2184 1.367 . S
C2185 C2193 1.433 . S
C2186 H2182 0.929 . S
C2186 C2188 1.378 . S
C2186 C2190 1.350 . S
C2187 C2190 1.463 . S
C2187 C2192 1.350 . S
C2187 N2195 1.427 . S
C2188 H2179 0.930 . S
C2188 C2186 1.378 . S
C2188 C2189 1.367 . S
C2189 C2188 1.367 . S
C2189 C2191 1.433 . S
C2190 C2186 1.350 . S
C2190 C2187 1.463 . S
C2190 N2194 1.427 . S
C2191 H2181 0.929 . S
C2191 C2189 1.433 . S
C2191 N2194 1.384 . S
C2192 H2183 0.929 . S
C2192 C2184 1.378 . S
C2192 C2187 1.350 . S
C2193 H2180 0.929 . S
C2193 C2185 1.433 . S
C2193 N2195 1.384 . S
N2194 C2190 1.427 . S
N2194 C2191 1.384 . S
N2195 C2187 1.427 . S
N2195 C2193 1.384 . S
H2196 C2202 0.930 . S
H2197 C2206 0.930 . S
H2198 C2211 0.929 . S
H2199 C2209 0.929 . S
H2200 C2204 0.929 . S
H2201 C2210 0.929 . S
C2202 H2196 0.930 . S
C2202 C2203 1.367 . S
C2202 C2210 1.378 . S
C2203 C2202 1.367 . S
C2203 C2211 1.433 . S
C2204 H2200 0.929 . S
C2204 C2206 1.378 . S
C2204 C2208 1.350 . S
C2205 C2208 1.463 . S
C2205 C2210 1.350 . S
C2205 N2213 1.427 . S
C2206 H2197 0.930 . S
C2206 C2204 1.378 . S
C2206 C2207 1.367 . S
C2207 C2206 1.367 . S
C2207 C2209 1.433 . S
C2208 C2204 1.350 . S
C2208 C2205 1.463 . S
C2208 N2212 1.427 . S
C2209 H2199 0.929 . S
C2209 C2207 1.433 . S
C2209 N2212 1.384 . S
C2210 H2201 0.929 . S
C2210 C2202 1.378 . S
C2210 C2205 1.350 . S
C2211 H2198 0.929 . S
C2211 C2203 1.433 . S
C2211 N2213 1.384 . S
N2212 C2208 1.427 . S
N2212 C2209 1.384 . S
N2213 C2205 1.427 . S
N2213 C2211 1.384 . S
H2214 C2220 0.930 . S
H2215 C2224 0.930 . S
H2216 C2229 0.929 . S
H2217 C2227 0.929 . S
H2218 C2222 0.929 . S
H2219 C2228 0.929 . S
C2220 H2214 0.930 . S
C2220 C2221 1.367 . S
C2220 C2228 1.378 . S
C2221 C2220 1.367 . S
C2221 C2229 1.433 . S
C2222 H2218 0.929 . S
C2222 C2224 1.378 . S
C2222 C2226 1.350 . S
C2223 C2226 1.463 . S
C2223 C2228 1.350 . S
C2223 N2231 1.427 . S
C2224 H2215 0.930 . S
C2224 C2222 1.378 . S
C2224 C2225 1.367 . S
C2225 C2224 1.367 . S
C2225 C2227 1.433 . S
C2226 C2222 1.350 . S
C2226 C2223 1.463 . S
C2226 N2230 1.427 . S
C2227 H2217 0.929 . S
C2227 C2225 1.433 . S
C2227 N2230 1.384 . S
C2228 H2219 0.929 . S
C2228 C2220 1.378 . S
C2228 C2223 1.350 . S
C2229 H2216 0.929 . S
C2229 C2221 1.433 . S
C2229 N2231 1.384 . S
N2230 C2226 1.427 . S
N2230 C2227 1.384 . S
N2231 C2223 1.427 . S
N2231 C2229 1.384 . S
H2232 C2238 0.930 . S
H2233 C2242 0.930 . S
H2234 C2247 0.929 . S
H2235 C2245 0.929 . S
H2236 C2240 0.929 . S
H2237 C2246 0.929 . S
C2238 H2232 0.930 . S
C2238 C2239 1.367 . S
C2238 C2246 1.378 . S
C2239 C2238 1.367 . S
C2239 C2247 1.433 . S
C2240 H2236 0.929 . S
C2240 C2242 1.378 . S
C2240 C2244 1.350 . S
C2241 C2244 1.463 . S
C2241 C2246 1.350 . S
C2241 N2249 1.427 . S
C2242 H2233 0.930 . S
C2242 C2240 1.378 . S
C2242 C2243 1.367 . S
C2243 C2242 1.367 . S
C2243 C2245 1.433 . S
C2244 C2240 1.350 . S
C2244 C2241 1.463 . S
C2244 N2248 1.427 . S
C2245 H2235 0.929 . S
C2245 C2243 1.433 . S
C2245 N2248 1.384 . S
C2246 H2237 0.929 . S
C2246 C2238 1.378 . S
C2246 C2241 1.350 . S
C2247 H2234 0.929 . S
C2247 C2239 1.433 . S
C2247 N2249 1.384 . S
N2248 C2244 1.427 . S
N2248 C2245 1.384 . S
N2249 C2241 1.427 . S
N2249 C2247 1.384 . S
H2250 C2256 0.930 . S
H2251 C2260 0.930 . S
H2252 C2265 0.929 . S
H2253 C2263 0.929 . S
H2254 C2258 0.929 . S
H2255 C2264 0.929 . S
C2256 H2250 0.930 . S
C2256 C2257 1.367 . S
C2256 C2264 1.378 . S
C2257 C2256 1.367 . S
C2257 C2265 1.433 . S
C2258 H2254 0.929 . S
C2258 C2260 1.378 . S
C2258 C2262 1.350 . S
C2259 C2262 1.463 . S
C2259 C2264 1.350 . S
C2259 N2267 1.427 . S
C2260 H2251 0.930 . S
C2260 C2258 1.378 . S
C2260 C2261 1.367 . S
C2261 C2260 1.367 . S
C2261 C2263 1.433 . S
C2262 C2258 1.350 . S
C2262 C2259 1.463 . S
C2262 N2266 1.427 . S
C2263 H2253 0.929 . S
C2263 C2261 1.433 . S
C2263 N2266 1.384 . S
C2264 H2255 0.929 . S
C2264 C2256 1.378 . S
C2264 C2259 1.350 . S
C2265 H2252 0.929 . S
C2265 C2257 1.433 . S
C2265 N2267 1.384 . S
N2266 C2262 1.427 . S
N2266 C2263 1.384 . S
N2267 C2259 1.427 . S
N2267 C2265 1.384 . S
H2268 C2274 0.930 . S
H2269 C2278 0.930 . S
H2270 C2283 0.929 . S
H2271 C2281 0.929 . S
H2272 C2276 0.929 . S
H2273 C2282 0.929 . S
C2274 H2268 0.930 . S
C2274 C2275 1.367 . S
C2274 C2282 1.378 . S
C2275 C2274 1.367 . S
C2275 C2283 1.433 . S
C2276 H2272 0.929 . S
C2276 C2278 1.378 . S
C2276 C2280 1.350 . S
C2277 C2280 1.463 . S
C2277 C2282 1.350 . S
C2277 N2285 1.427 . S
C2278 H2269 0.930 . S
C2278 C2276 1.378 . S
C2278 C2279 1.367 . S
C2279 C2278 1.367 . S
C2279 C2281 1.433 . S
C2280 C2276 1.350 . S
C2280 C2277 1.463 . S
C2280 N2284 1.427 . S
C2281 H2271 0.929 . S
C2281 C2279 1.433 . S
C2281 N2284 1.384 . S
C2282 H2273 0.929 . S
C2282 C2274 1.378 . S
C2282 C2277 1.350 . S
C2283 H2270 0.929 . S
C2283 C2275 1.433 . S
C2283 N2285 1.384 . S
N2284 C2280 1.427 . S
N2284 C2281 1.384 . S
N2285 C2277 1.427 . S
N2285 C2283 1.384 . S
H2286 C2292 0.930 . S
H2287 C2296 0.930 . S
H2288 C2301 0.929 . S
H2289 C2299 0.929 . S
H2290 C2294 0.929 . S
H2291 C2300 0.929 . S
C2292 H2286 0.930 . S
C2292 C2293 1.367 . S
C2292 C2300 1.378 . S
C2293 C2292 1.367 . S
C2293 C2301 1.433 . S
C2294 H2290 0.929 . S
C2294 C2296 1.378 . S
C2294 C2298 1.350 . S
C2295 C2298 1.463 . S
C2295 C2300 1.350 . S
C2295 N2303 1.427 . S
C2296 H2287 0.930 . S
C2296 C2294 1.378 . S
C2296 C2297 1.367 . S
C2297 C2296 1.367 . S
C2297 C2299 1.433 . S
C2298 C2294 1.350 . S
C2298 C2295 1.463 . S
C2298 N2302 1.427 . S
C2299 H2289 0.929 . S
C2299 C2297 1.433 . S
C2299 N2302 1.384 . S
C2300 H2291 0.929 . S
C2300 C2292 1.378 . S
C2300 C2295 1.350 . S
C2301 H2288 0.929 . S
C2301 C2293 1.433 . S
C2301 N2303 1.384 . S
N2302 C2298 1.427 . S
N2302 C2299 1.384 . S
N2303 C2295 1.427 . S
N2303 C2301 1.384 . S
H2304 C2310 0.930 . S
H2305 C2314 0.930 . S
H2306 C2319 0.929 . S
H2307 C2317 0.929 . S
H2308 C2312 0.929 . S
H2309 C2318 0.929 . S
C2310 H2304 0.930 . S
C2310 C2311 1.367 . S
C2310 C2318 1.378 . S
C2311 C2310 1.367 . S
C2311 C2319 1.433 . S
C2312 H2308 0.929 . S
C2312 C2314 1.378 . S
C2312 C2316 1.350 . S
C2313 C2316 1.463 1_655 S
C2313 C2318 1.350 . S
C2313 N2321 1.427 . S
C2314 H2305 0.930 . S
C2314 C2312 1.378 . S
C2314 C2315 1.367 . S
C2315 C2314 1.367 . S
C2315 C2317 1.433 . S
C2316 C2312 1.350 . S
C2316 C2313 1.463 1_455 S
C2316 N2320 1.427 . S
C2317 H2307 0.929 . S
C2317 C2315 1.433 . S
C2317 N2320 1.384 . S
C2318 H2309 0.929 . S
C2318 C2310 1.378 . S
C2318 C2313 1.350 . S
C2319 H2306 0.929 . S
C2319 C2311 1.433 . S
C2319 N2321 1.384 . S
N2320 C2316 1.427 . S
N2320 C2317 1.384 . S
N2321 C2313 1.427 . S
N2321 C2319 1.384 . S
H2322 C2328 0.930 . S
H2323 C2332 0.930 . S
H2324 C2337 0.929 . S
H2325 C2335 0.929 . S
H2326 C2330 0.929 . S
H2327 C2336 0.929 . S
C2328 H2322 0.930 . S
C2328 C2329 1.367 . S
C2328 C2336 1.378 . S
C2329 C2328 1.367 . S
C2329 C2337 1.433 . S
C2330 H2326 0.929 . S
C2330 C2332 1.378 . S
C2330 C2334 1.350 . S
C2331 C2334 1.463 . S
C2331 C2336 1.350 . S
C2331 N2339 1.427 . S
C2332 H2323 0.930 . S
C2332 C2330 1.378 . S
C2332 C2333 1.367 . S
C2333 C2332 1.367 . S
C2333 C2335 1.433 . S
C2334 C2330 1.350 . S
C2334 C2331 1.463 . S
C2334 N2338 1.427 . S
C2335 H2325 0.929 . S
C2335 C2333 1.433 . S
C2335 N2338 1.384 . S
C2336 H2327 0.929 . S
C2336 C2328 1.378 . S
C2336 C2331 1.350 . S
C2337 H2324 0.929 . S
C2337 C2329 1.433 . S
C2337 N2339 1.384 . S
N2338 C2334 1.427 . S
N2338 C2335 1.384 . S
N2339 C2331 1.427 . S
N2339 C2337 1.384 . S
H2340 C2346 0.930 . S
H2341 C2350 0.930 . S
H2342 C2355 0.929 . S
H2343 C2353 0.929 . S
H2344 C2348 0.929 1_545 S
H2345 C2354 0.929 1_565 S
C2346 H2340 0.930 . S
C2346 C2347 1.367 . S
C2346 C2354 1.378 . S
C2347 C2346 1.367 . S
C2347 C2355 1.433 . S
C2348 H2344 0.929 1_565 S
C2348 C2350 1.378 . S
C2348 C2352 1.350 . S
C2349 C2352 1.463 1_545 S
C2349 C2354 1.350 . S
C2349 N2357 1.427 . S
C2350 H2341 0.930 . S
C2350 C2348 1.378 . S
C2350 C2351 1.367 . S
C2351 C2350 1.367 . S
C2351 C2353 1.433 . S
C2352 C2348 1.350 . S
C2352 C2349 1.463 1_565 S
C2352 N2356 1.427 . S
C2353 H2343 0.929 . S
C2353 C2351 1.433 . S
C2353 N2356 1.384 . S
C2354 H2345 0.929 1_545 S
C2354 C2346 1.378 . S
C2354 C2349 1.350 . S
C2355 H2342 0.929 . S
C2355 C2347 1.433 . S
C2355 N2357 1.384 . S
N2356 C2352 1.427 . S
N2356 C2353 1.384 . S
N2357 C2349 1.427 . S
N2357 C2355 1.384 . S
H2358 C2364 0.930 . S
H2359 C2368 0.930 . S
H2360 C2373 0.929 . S
H2361 C2371 0.929 . S
H2362 C2366 0.929 . S
H2363 C2372 0.929 . S
C2364 H2358 0.930 . S
C2364 C2365 1.367 1_556 S
C2364 C2372 1.378 . S
C2365 C2364 1.367 1_554 S
C2365 C2373 1.433 . S
C2366 H2362 0.929 . S
C2366 C2368 1.378 . S
C2366 C2370 1.350 1_554 S
C2367 C2370 1.463 1_564 S
C2367 C2372 1.350 1_554 S
C2367 N2375 1.427 . S
C2368 H2359 0.930 . S
C2368 C2366 1.378 . S
C2368 C2369 1.367 1_554 S
C2369 C2368 1.367 1_556 S
C2369 C2371 1.433 . S
C2370 C2366 1.350 1_556 S
C2370 C2367 1.463 1_546 S
C2370 N2374 1.427 . S
C2371 H2361 0.929 . S
C2371 C2369 1.433 . S
C2371 N2374 1.384 . S
C2372 H2363 0.929 . S
C2372 C2364 1.378 . S
C2372 C2367 1.350 1_556 S
C2373 H2360 0.929 . S
C2373 C2365 1.433 . S
C2373 N2375 1.384 . S
N2374 C2370 1.427 . S
N2374 C2371 1.384 . S
N2375 C2367 1.427 . S
N2375 C2373 1.384 . S
H2376 C2382 0.930 . S
H2377 C2386 0.930 . S
H2378 C2391 0.929 . S
H2379 C2389 0.929 . S
H2380 C2384 0.929 . S
H2381 C2390 0.929 . S
C2382 H2376 0.930 . S
C2382 C2383 1.367 1_554 S
C2382 C2390 1.378 . S
C2383 C2382 1.367 1_556 S
C2383 C2391 1.433 . S
C2384 H2380 0.929 . S
C2384 C2386 1.378 . S
C2384 C2388 1.350 1_556 S
C2385 C2388 1.463 1_656 S
C2385 C2390 1.350 1_556 S
C2385 N2393 1.427 . S
C2386 H2377 0.930 . S
C2386 C2384 1.378 . S
C2386 C2387 1.367 1_556 S
C2387 C2386 1.367 1_554 S
C2387 C2389 1.433 . S
C2388 C2384 1.350 1_554 S
C2388 C2385 1.463 1_454 S
C2388 N2392 1.427 . S
C2389 H2379 0.929 . S
C2389 C2387 1.433 . S
C2389 N2392 1.384 . S
C2390 H2381 0.929 . S
C2390 C2382 1.378 . S
C2390 C2385 1.350 1_554 S
C2391 H2378 0.929 . S
C2391 C2383 1.433 . S
C2391 N2393 1.384 . S
N2392 C2388 1.427 . S
N2392 C2389 1.384 . S
N2393 C2385 1.427 . S
N2393 C2391 1.384 . S
H2394 C2400 0.930 . S
H2395 C2404 0.930 . S
H2396 C2409 0.929 . S
H2397 C2407 0.929 . S
H2398 C2402 0.929 . S
H2399 C2408 0.929 . S
C2400 H2394 0.930 . S
C2400 C2401 1.367 1_556 S
C2400 C2408 1.378 . S
C2401 C2400 1.367 1_554 S
C2401 C2409 1.433 . S
C2402 H2398 0.929 . S
C2402 C2404 1.378 . S
C2402 C2406 1.350 1_554 S
C2403 C2406 1.463 1_554 S
C2403 C2408 1.350 1_554 S
C2403 N2411 1.427 . S
C2404 H2395 0.930 . S
C2404 C2402 1.378 . S
C2404 C2405 1.367 1_554 S
C2405 C2404 1.367 1_556 S
C2405 C2407 1.433 . S
C2406 C2402 1.350 1_556 S
C2406 C2403 1.463 1_556 S
C2406 N2410 1.427 . S
C2407 H2397 0.929 . S
C2407 C2405 1.433 . S
C2407 N2410 1.384 . S
C2408 H2399 0.929 . S
C2408 C2400 1.378 . S
C2408 C2403 1.350 1_556 S
C2409 H2396 0.929 . S
C2409 C2401 1.433 . S
C2409 N2411 1.384 . S
N2410 C2406 1.427 . S
N2410 C2407 1.384 . S
N2411 C2403 1.427 . S
N2411 C2409 1.384 . S
H2412 C2418 0.930 . S
H2413 C2422 0.930 . S
H2414 C2427 0.929 . S
H2415 C2425 0.929 . S
H2416 C2420 0.929 . S
H2417 C2426 0.929 . S
C2418 H2412 0.930 . S
C2418 C2419 1.367 . S
C2418 C2426 1.378 . S
C2419 C2418 1.367 . S
C2419 C2427 1.433 . S
C2420 H2416 0.929 . S
C2420 C2422 1.378 . S
C2420 C2424 1.350 . S
C2421 C2424 1.463 . S
C2421 C2426 1.350 . S
C2421 N2429 1.427 . S
C2422 H2413 0.930 . S
C2422 C2420 1.378 . S
C2422 C2423 1.367 . S
C2423 C2422 1.367 . S
C2423 C2425 1.433 . S
C2424 C2420 1.350 . S
C2424 C2421 1.463 . S
C2424 N2428 1.427 . S
C2425 H2415 0.929 . S
C2425 C2423 1.433 . S
C2425 N2428 1.384 . S
C2426 H2417 0.929 . S
C2426 C2418 1.378 . S
C2426 C2421 1.350 . S
C2427 H2414 0.929 . S
C2427 C2419 1.433 . S
C2427 N2429 1.384 . S
N2428 C2424 1.427 . S
N2428 C2425 1.384 . S
N2429 C2421 1.427 . S
N2429 C2427 1.384 . S
H2430 C2436 0.930 1_554 S
H2431 C2440 0.930 . S
H2432 C2445 0.929 . S
H2433 C2443 0.929 . S
H2434 C2438 0.929 . S
H2435 C2444 0.929 . S
C2436 H2430 0.930 1_556 S
C2436 C2437 1.367 . S
C2436 C2444 1.378 . S
C2437 C2436 1.367 . S
C2437 C2445 1.433 . S
C2438 H2434 0.929 . S
C2438 C2440 1.378 . S
C2438 C2442 1.350 . S
C2439 C2442 1.463 . S
C2439 C2444 1.350 . S
C2439 N2447 1.427 . S
C2440 H2431 0.930 . S
C2440 C2438 1.378 . S
C2440 C2441 1.367 . S
C2441 C2440 1.367 . S
C2441 C2443 1.433 . S
C2442 C2438 1.350 . S
C2442 C2439 1.463 . S
C2442 N2446 1.427 . S
C2443 H2433 0.929 . S
C2443 C2441 1.433 . S
C2443 N2446 1.384 . S
C2444 H2435 0.929 . S
C2444 C2436 1.378 . S
C2444 C2439 1.350 . S
C2445 H2432 0.929 . S
C2445 C2437 1.433 . S
C2445 N2447 1.384 . S
N2446 C2442 1.427 . S
N2446 C2443 1.384 . S
N2447 C2439 1.427 . S
N2447 C2445 1.384 . S
H2448 C2454 0.930 . S
H2449 C2458 0.930 . S
H2450 C2463 0.929 . S
H2451 C2461 0.910 1_554 S
H2452 C2456 0.929 . S
H2453 C2462 0.929 . S
C2454 H2448 0.930 . S
C2454 C2455 1.367 . S
C2454 C2462 1.378 . S
C2455 C2454 1.367 . S
C2455 C2463 1.433 . S
C2456 H2452 0.929 . S
C2456 C2458 1.378 . S
C2456 C2460 1.350 . S
C2457 C2460 1.463 . S
C2457 C2462 1.350 . S
C2457 N2465 1.427 . S
C2458 H2449 0.930 . S
C2458 C2456 1.378 . S
C2458 C2459 1.367 . S
C2459 C2458 1.367 . S
C2459 C2461 1.433 . S
C2460 C2456 1.350 . S
C2460 C2457 1.463 . S
C2460 N2464 1.427 . S
C2461 H2451 0.910 1_556 S
C2461 C2459 1.433 . S
C2461 N2464 1.384 . S
C2462 H2453 0.929 . S
C2462 C2454 1.378 . S
C2462 C2457 1.350 . S
C2463 H2450 0.929 . S
C2463 C2455 1.433 . S
C2463 N2465 1.384 . S
N2464 C2460 1.427 . S
N2464 C2461 1.384 . S
N2465 C2457 1.427 . S
N2465 C2463 1.384 . S
H2466 C2472 0.930 . S
H2467 C2476 0.930 . S
H2468 C2481 0.929 . S
H2469 C2479 0.929 . S
H2470 C2474 0.929 . S
H2471 C2480 0.929 . S
C2472 H2466 0.930 . S
C2472 C2473 1.367 . S
C2472 C2480 1.378 . S
C2473 C2472 1.367 . S
C2473 C2481 1.433 . S
C2474 H2470 0.929 . S
C2474 C2476 1.378 . S
C2474 C2478 1.350 . S
C2475 C2478 1.463 . S
C2475 C2480 1.350 . S
C2475 N2483 1.427 . S
C2476 H2467 0.930 . S
C2476 C2474 1.378 . S
C2476 C2477 1.367 . S
C2477 C2476 1.367 . S
C2477 C2479 1.433 . S
C2478 C2474 1.350 . S
C2478 C2475 1.463 . S
C2478 N2482 1.427 . S
C2479 H2469 0.929 . S
C2479 C2477 1.433 . S
C2479 N2482 1.384 . S
C2480 H2471 0.929 . S
C2480 C2472 1.378 . S
C2480 C2475 1.350 . S
C2481 H2468 0.929 . S
C2481 C2473 1.433 . S
C2481 N2483 1.384 . S
N2482 C2478 1.427 . S
N2482 C2479 1.384 . S
N2483 C2475 1.427 . S
N2483 C2481 1.384 . S
H2484 C2490 0.930 . S
H2485 C2494 0.930 . S
H2486 C2499 0.929 . S
H2487 C2497 0.929 . S
H2488 C2492 0.929 . S
H2489 C2498 0.929 . S
C2490 H2484 0.930 . S
C2490 C2491 1.367 . S
C2490 C2498 1.378 . S
C2491 C2490 1.367 . S
C2491 C2499 1.433 . S
C2492 H2488 0.929 . S
C2492 C2494 1.378 . S
C2492 C2496 1.350 . S
C2493 C2496 1.463 . S
C2493 C2498 1.350 . S
C2493 N2501 1.427 . S
C2494 H2485 0.930 . S
C2494 C2492 1.378 . S
C2494 C2495 1.367 . S
C2495 C2494 1.367 . S
C2495 C2497 1.433 . S
C2496 C2492 1.350 . S
C2496 C2493 1.463 . S
C2496 N2500 1.427 . S
C2497 H2487 0.929 . S
C2497 C2495 1.433 . S
C2497 N2500 1.384 . S
C2498 H2489 0.929 . S
C2498 C2490 1.378 . S
C2498 C2493 1.350 . S
C2499 H2486 0.929 . S
C2499 C2491 1.433 . S
C2499 N2501 1.384 . S
N2500 C2496 1.427 . S
N2500 C2497 1.384 . S
N2501 C2493 1.427 . S
N2501 C2499 1.384 . S
H2502 C2508 0.930 . S
H2503 C2512 0.930 . S
H2504 C2517 0.929 . S
H2505 C2515 0.929 . S
H2506 C2510 0.929 . S
H2507 C2516 0.929 . S
C2508 H2502 0.930 . S
C2508 C2509 1.367 . S
C2508 C2516 1.378 . S
C2509 C2508 1.367 . S
C2509 C2517 1.433 . S
C2510 H2506 0.929 . S
C2510 C2512 1.378 . S
C2510 C2514 1.350 . S
C2511 C2514 1.463 . S
C2511 C2516 1.350 . S
C2511 N2519 1.427 . S
C2512 H2503 0.930 . S
C2512 C2510 1.378 . S
C2512 C2513 1.367 . S
C2513 C2512 1.367 . S
C2513 C2515 1.433 . S
C2514 C2510 1.350 . S
C2514 C2511 1.463 . S
C2514 N2518 1.427 . S
C2515 H2505 0.929 . S
C2515 C2513 1.433 . S
C2515 N2518 1.384 . S
C2516 H2507 0.929 . S
C2516 C2508 1.378 . S
C2516 C2511 1.350 . S
C2517 H2504 0.929 . S
C2517 C2509 1.433 . S
C2517 N2519 1.384 . S
N2518 C2514 1.427 . S
N2518 C2515 1.384 . S
N2519 C2511 1.427 . S
N2519 C2517 1.384 . S
H2520 C2526 0.930 . S
H2521 C2530 0.930 . S
H2522 C2535 0.929 . S
H2523 C2533 0.929 1_556 S
H2524 C2528 0.929 . S
H2525 C2534 0.929 . S
C2526 H2520 0.930 . S
C2526 C2527 1.367 . S
C2526 C2534 1.378 . S
C2527 C2526 1.367 . S
C2527 C2535 1.433 . S
C2528 H2524 0.929 . S
C2528 C2530 1.378 . S
C2528 C2532 1.350 . S
C2529 C2532 1.463 . S
C2529 C2534 1.350 . S
C2529 N2537 1.427 . S
C2530 H2521 0.930 . S
C2530 C2528 1.378 . S
C2530 C2531 1.367 . S
C2531 C2530 1.367 . S
C2531 C2533 1.433 . S
C2532 C2528 1.350 . S
C2532 C2529 1.463 . S
C2532 N2536 1.427 . S
C2533 H2523 0.929 1_554 S
C2533 C2531 1.433 . S
C2533 N2536 1.384 . S
C2534 H2525 0.929 . S
C2534 C2526 1.378 . S
C2534 C2529 1.350 . S
C2535 H2522 0.929 . S
C2535 C2527 1.433 . S
C2535 N2537 1.384 . S
N2536 C2532 1.427 . S
N2536 C2533 1.384 . S
N2537 C2529 1.427 . S
N2537 C2535 1.384 . S
H2538 C2544 0.930 1_556 S
H2539 C2548 0.930 . S
H2540 C2553 0.929 . S
H2541 C2551 0.929 . S
H2542 C2546 0.929 . S
H2543 C2552 0.929 . S
C2544 H2538 0.930 1_554 S
C2544 C2545 1.367 . S
C2544 C2552 1.378 . S
C2545 C2544 1.367 . S
C2545 C2553 1.433 . S
C2546 H2542 0.929 . S
C2546 C2548 1.378 . S
C2546 C2550 1.350 . S
C2547 C2550 1.463 . S
C2547 C2552 1.350 . S
C2547 N2555 1.427 . S
C2548 H2539 0.930 . S
C2548 C2546 1.378 . S
C2548 C2549 1.367 . S
C2549 C2548 1.367 . S
C2549 C2551 1.433 . S
C2550 C2546 1.350 . S
C2550 C2547 1.463 . S
C2550 N2554 1.427 . S
C2551 H2541 0.929 . S
C2551 C2549 1.433 . S
C2551 N2554 1.384 . S
C2552 H2543 0.929 . S
C2552 C2544 1.378 . S
C2552 C2547 1.350 . S
C2553 H2540 0.929 . S
C2553 C2545 1.433 . S
C2553 N2555 1.384 . S
N2554 C2550 1.427 . S
N2554 C2551 1.384 . S
N2555 C2547 1.427 . S
N2555 C2553 1.384 . S
H2556 C2562 0.930 . S
H2557 C2566 0.930 . S
H2558 C2571 0.929 . S
H2559 C2569 0.929 . S
H2560 C2564 0.929 . S
H2561 C2570 0.929 . S
C2562 H2556 0.930 . S
C2562 C2563 1.367 . S
C2562 C2570 1.378 . S
C2563 C2562 1.367 . S
C2563 C2571 1.433 . S
C2564 H2560 0.929 . S
C2564 C2566 1.378 . S
C2564 C2568 1.350 . S
C2565 C2568 1.463 . S
C2565 C2570 1.350 . S
C2565 N2573 1.427 . S
C2566 H2557 0.930 . S
C2566 C2564 1.378 . S
C2566 C2567 1.367 . S
C2567 C2566 1.367 . S
C2567 C2569 1.433 . S
C2568 C2564 1.350 . S
C2568 C2565 1.463 . S
C2568 N2572 1.427 . S
C2569 H2559 0.929 . S
C2569 C2567 1.433 . S
C2569 N2572 1.384 . S
C2570 H2561 0.929 . S
C2570 C2562 1.378 . S
C2570 C2565 1.350 . S
C2571 H2558 0.929 . S
C2571 C2563 1.433 . S
C2571 N2573 1.384 . S
N2572 C2568 1.427 . S
N2572 C2569 1.384 . S
N2573 C2565 1.427 . S
N2573 C2571 1.384 . S
H2574 C2580 0.930 . S
H2575 C2584 0.930 . S
H2576 C2589 0.929 . S
H2577 C2587 0.929 . S
H2578 C2582 0.929 . S
H2579 C2588 0.929 . S
C2580 H2574 0.930 . S
C2580 C2581 1.367 . S
C2580 C2588 1.378 . S
C2581 C2580 1.367 . S
C2581 C2589 1.433 . S
C2582 H2578 0.929 . S
C2582 C2584 1.378 . S
C2582 C2586 1.350 . S
C2583 C2586 1.463 . S
C2583 C2588 1.350 . S
C2583 N2591 1.427 . S
C2584 H2575 0.930 . S
C2584 C2582 1.378 . S
C2584 C2585 1.367 . S
C2585 C2584 1.367 . S
C2585 C2587 1.433 . S
C2586 C2582 1.350 . S
C2586 C2583 1.463 . S
C2586 N2590 1.427 . S
C2587 H2577 0.929 . S
C2587 C2585 1.433 . S
C2587 N2590 1.384 . S
C2588 H2579 0.929 . S
C2588 C2580 1.378 . S
C2588 C2583 1.350 . S
C2589 H2576 0.929 . S
C2589 C2581 1.433 . S
C2589 N2591 1.384 . S
N2590 C2586 1.427 . S
N2590 C2587 1.384 . S
N2591 C2583 1.427 . S
N2591 C2589 1.384 . S
H2592 C2598 0.930 . S
H2593 C2602 0.930 . S
H2594 C2607 0.929 . S
H2595 C2605 0.929 . S
H2596 C2600 0.929 . S
H2597 C2606 0.929 . S
C2598 H2592 0.930 . S
C2598 C2599 1.367 . S
C2598 C2606 1.378 . S
C2599 C2598 1.367 . S
C2599 C2607 1.433 . S
C2600 H2596 0.929 . S
C2600 C2602 1.378 . S
C2600 C2604 1.350 . S
C2601 C2604 1.463 . S
C2601 C2606 1.350 . S
C2601 N2609 1.427 . S
C2602 H2593 0.930 . S
C2602 C2600 1.378 . S
C2602 C2603 1.367 . S
C2603 C2602 1.367 . S
C2603 C2605 1.433 . S
C2604 C2600 1.350 . S
C2604 C2601 1.463 . S
C2604 N2608 1.427 . S
C2605 H2595 0.929 . S
C2605 C2603 1.433 . S
C2605 N2608 1.384 . S
C2606 H2597 0.929 . S
C2606 C2598 1.378 . S
C2606 C2601 1.350 . S
C2607 H2594 0.929 . S
C2607 C2599 1.433 . S
C2607 N2609 1.384 . S
N2608 C2604 1.427 . S
N2608 C2605 1.384 . S
N2609 C2601 1.427 . S
N2609 C2607 1.384 . S
H2610 C2616 0.930 . S
H2611 C2620 0.930 . S
H2612 C2625 0.929 . S
H2613 C2623 0.929 . S
H2614 C2618 0.929 . S
H2615 C2624 0.929 . S
C2616 H2610 0.930 . S
C2616 C2617 1.367 . S
C2616 C2624 1.378 . S
C2617 C2616 1.367 . S
C2617 C2625 1.433 . S
C2618 H2614 0.929 . S
C2618 C2620 1.378 . S
C2618 C2622 1.350 . S
C2619 C2622 1.463 . S
C2619 C2624 1.350 . S
C2619 N2627 1.427 . S
C2620 H2611 0.930 . S
C2620 C2618 1.378 . S
C2620 C2621 1.367 . S
C2621 C2620 1.367 . S
C2621 C2623 1.433 . S
C2622 C2618 1.350 . S
C2622 C2619 1.463 . S
C2622 N2626 1.427 . S
C2623 H2613 0.929 . S
C2623 C2621 1.433 . S
C2623 N2626 1.384 . S
C2624 H2615 0.929 . S
C2624 C2616 1.378 . S
C2624 C2619 1.350 . S
C2625 H2612 0.929 . S
C2625 C2617 1.433 . S
C2625 N2627 1.384 . S
N2626 C2622 1.427 . S
N2626 C2623 1.384 . S
N2627 C2619 1.427 . S
N2627 C2625 1.384 . S
H2628 C2634 0.930 . S
H2629 C2638 0.930 . S
H2630 C2643 0.929 . S
H2631 C2641 0.929 . S
H2632 C2636 0.929 . S
H2633 C2642 0.929 . S
C2634 H2628 0.930 . S
C2634 C2635 1.367 . S
C2634 C2642 1.378 . S
C2635 C2634 1.367 . S
C2635 C2643 1.433 . S
C2636 H2632 0.929 . S
C2636 C2638 1.378 . S
C2636 C2640 1.350 . S
C2637 C2640 1.463 1_455 S
C2637 C2642 1.350 . S
C2637 N2645 1.427 . S
C2638 H2629 0.930 . S
C2638 C2636 1.378 . S
C2638 C2639 1.367 . S
C2639 C2638 1.367 . S
C2639 C2641 1.433 . S
C2640 C2636 1.350 . S
C2640 C2637 1.463 1_655 S
C2640 N2644 1.427 . S
C2641 H2631 0.929 . S
C2641 C2639 1.433 . S
C2641 N2644 1.384 . S
C2642 H2633 0.929 . S
C2642 C2634 1.378 . S
C2642 C2637 1.350 . S
C2643 H2630 0.929 . S
C2643 C2635 1.433 . S
C2643 N2645 1.384 . S
N2644 C2640 1.427 . S
N2644 C2641 1.384 . S
N2645 C2637 1.427 . S
N2645 C2643 1.384 . S
H2646 C2652 0.930 . S
H2647 C2656 0.930 . S
H2648 C2661 0.929 . S
H2649 C2659 0.929 . S
H2650 C2654 0.929 . S
H2651 C2660 0.929 . S
C2652 H2646 0.930 . S
C2652 C2653 1.367 . S
C2652 C2660 1.378 . S
C2653 C2652 1.367 . S
C2653 C2661 1.433 . S
C2654 H2650 0.929 . S
C2654 C2656 1.378 . S
C2654 C2658 1.350 . S
C2655 C2658 1.463 . S
C2655 C2660 1.350 . S
C2655 N2663 1.427 . S
C2656 H2647 0.930 . S
C2656 C2654 1.378 . S
C2656 C2657 1.367 . S
C2657 C2656 1.367 . S
C2657 C2659 1.433 . S
C2658 C2654 1.350 . S
C2658 C2655 1.463 . S
C2658 N2662 1.427 . S
C2659 H2649 0.929 . S
C2659 C2657 1.433 . S
C2659 N2662 1.384 . S
C2660 H2651 0.929 . S
C2660 C2652 1.378 . S
C2660 C2655 1.350 . S
C2661 H2648 0.929 . S
C2661 C2653 1.433 . S
C2661 N2663 1.384 . S
N2662 C2658 1.427 . S
N2662 C2659 1.384 . S
N2663 C2655 1.427 . S
N2663 C2661 1.384 . S
H2664 C2670 0.930 . S
H2665 C2674 0.930 . S
H2666 C2679 0.929 . S
H2667 C2677 0.929 . S
H2668 C2672 0.929 1_545 S
H2669 C2678 0.929 1_565 S
C2670 H2664 0.930 . S
C2670 C2671 1.367 . S
C2670 C2678 1.378 . S
C2671 C2670 1.367 . S
C2671 C2679 1.433 . S
C2672 H2668 0.929 1_565 S
C2672 C2674 1.378 . S
C2672 C2676 1.350 . S
C2673 C2676 1.463 1_545 S
C2673 C2678 1.350 . S
C2673 N2681 1.427 . S
C2674 H2665 0.930 . S
C2674 C2672 1.378 . S
C2674 C2675 1.367 . S
C2675 C2674 1.367 . S
C2675 C2677 1.433 . S
C2676 C2672 1.350 . S
C2676 C2673 1.463 1_565 S
C2676 N2680 1.427 . S
C2677 H2667 0.929 . S
C2677 C2675 1.433 . S
C2677 N2680 1.384 . S
C2678 H2669 0.929 1_545 S
C2678 C2670 1.378 . S
C2678 C2673 1.350 . S
C2679 H2666 0.929 . S
C2679 C2671 1.433 . S
C2679 N2681 1.384 . S
N2680 C2676 1.427 . S
N2680 C2677 1.384 . S
N2681 C2673 1.427 . S
N2681 C2679 1.384 . S
H2682 C2688 0.930 . S
H2683 C2692 0.930 . S
H2684 C2697 0.929 . S
H2685 C2695 0.929 . S
H2686 C2690 0.929 1_565 S
H2687 C2696 0.929 1_545 S
C2688 H2682 0.930 . S
C2688 C2689 1.367 . S
C2688 C2696 1.378 . S
C2689 C2688 1.367 . S
C2689 C2697 1.433 . S
C2690 H2686 0.929 1_545 S
C2690 C2692 1.378 . S
C2690 C2694 1.350 . S
C2691 C2694 1.463 1_565 S
C2691 C2696 1.350 . S
C2691 N2699 1.427 . S
C2692 H2683 0.930 . S
C2692 C2690 1.378 . S
C2692 C2693 1.367 . S
C2693 C2692 1.367 . S
C2693 C2695 1.433 . S
C2694 C2690 1.350 . S
C2694 C2691 1.463 1_545 S
C2694 N2698 1.427 . S
C2695 H2685 0.929 . S
C2695 C2693 1.433 . S
C2695 N2698 1.384 . S
C2696 H2687 0.929 1_565 S
C2696 C2688 1.378 . S
C2696 C2691 1.350 . S
C2697 H2684 0.929 . S
C2697 C2689 1.433 . S
C2697 N2699 1.384 . S
N2698 C2694 1.427 . S
N2698 C2695 1.384 . S
N2699 C2691 1.427 . S
N2699 C2697 1.384 . S
H2700 C2706 0.930 . S
H2701 C2710 0.930 . S
H2702 C2715 0.929 . S
H2703 C2713 0.929 . S
H2704 C2708 0.929 . S
H2705 C2714 0.929 . S
C2706 H2700 0.930 . S
C2706 C2707 1.367 . S
C2706 C2714 1.378 . S
C2707 C2706 1.367 . S
C2707 C2715 1.433 . S
C2708 H2704 0.929 . S
C2708 C2710 1.378 . S
C2708 C2712 1.350 . S
C2709 C2712 1.463 1_455 S
C2709 C2714 1.350 . S
C2709 N2717 1.427 . S
C2710 H2701 0.930 . S
C2710 C2708 1.378 . S
C2710 C2711 1.367 . S
C2711 C2710 1.367 . S
C2711 C2713 1.433 . S
C2712 C2708 1.350 . S
C2712 C2709 1.463 1_655 S
C2712 N2716 1.427 . S
C2713 H2703 0.929 . S
C2713 C2711 1.433 . S
C2713 N2716 1.384 . S
C2714 H2705 0.929 . S
C2714 C2706 1.378 . S
C2714 C2709 1.350 . S
C2715 H2702 0.929 . S
C2715 C2707 1.433 . S
C2715 N2717 1.384 . S
N2716 C2712 1.427 . S
N2716 C2713 1.384 . S
N2717 C2709 1.427 . S
N2717 C2715 1.384 . S
H2718 C2724 0.930 . S
H2719 C2728 0.930 . S
H2720 C2733 0.929 . S
H2721 C2731 0.929 . S
H2722 C2726 0.929 . S
H2723 C2732 0.929 . S
C2724 H2718 0.930 . S
C2724 C2725 1.367 . S
C2724 C2732 1.378 . S
C2725 C2724 1.367 . S
C2725 C2733 1.433 . S
C2726 H2722 0.929 . S
C2726 C2728 1.378 . S
C2726 C2730 1.350 . S
C2727 C2730 1.463 . S
C2727 C2732 1.350 . S
C2727 N2735 1.427 . S
C2728 H2719 0.930 . S
C2728 C2726 1.378 . S
C2728 C2729 1.367 . S
C2729 C2728 1.367 . S
C2729 C2731 1.433 . S
C2730 C2726 1.350 . S
C2730 C2727 1.463 . S
C2730 N2734 1.427 . S
C2731 H2721 0.929 . S
C2731 C2729 1.433 . S
C2731 N2734 1.384 . S
C2732 H2723 0.929 . S
C2732 C2724 1.378 . S
C2732 C2727 1.350 . S
C2733 H2720 0.929 . S
C2733 C2725 1.433 . S
C2733 N2735 1.384 . S
N2734 C2730 1.427 . S
N2734 C2731 1.384 . S
N2735 C2727 1.427 . S
N2735 C2733 1.384 . S
H2736 C2742 0.930 . S
H2737 C2746 0.930 . S
H2738 C2751 0.929 . S
H2739 C2749 0.929 . S
H2740 C2744 0.929 . S
H2741 C2750 0.929 . S
C2742 H2736 0.930 . S
C2742 C2743 1.367 . S
C2742 C2750 1.378 . S
C2743 C2742 1.367 . S
C2743 C2751 1.433 . S
C2744 H2740 0.929 . S
C2744 C2746 1.378 . S
C2744 C2748 1.350 . S
C2745 C2748 1.463 . S
C2745 C2750 1.350 . S
C2745 N2753 1.427 . S
C2746 H2737 0.930 . S
C2746 C2744 1.378 . S
C2746 C2747 1.367 . S
C2747 C2746 1.367 . S
C2747 C2749 1.433 . S
C2748 C2744 1.350 . S
C2748 C2745 1.463 . S
C2748 N2752 1.427 . S
C2749 H2739 0.929 . S
C2749 C2747 1.433 . S
C2749 N2752 1.384 . S
C2750 H2741 0.929 . S
C2750 C2742 1.378 . S
C2750 C2745 1.350 . S
C2751 H2738 0.929 . S
C2751 C2743 1.433 . S
C2751 N2753 1.384 . S
N2752 C2748 1.427 . S
N2752 C2749 1.384 . S
N2753 C2745 1.427 . S
N2753 C2751 1.384 . S
H2754 C2760 0.930 . S
H2755 C2764 0.930 . S
H2756 C2769 0.929 . S
H2757 C2767 0.929 . S
H2758 C2762 0.929 1_545 S
H2759 C2768 0.929 1_565 S
C2760 H2754 0.930 . S
C2760 C2761 1.367 . S
C2760 C2768 1.378 . S
C2761 C2760 1.367 . S
C2761 C2769 1.433 . S
C2762 H2758 0.929 1_565 S
C2762 C2764 1.378 . S
C2762 C2766 1.350 . S
C2763 C2766 1.463 1_545 S
C2763 C2768 1.350 . S
C2763 N2771 1.427 . S
C2764 H2755 0.930 . S
C2764 C2762 1.378 . S
C2764 C2765 1.367 . S
C2765 C2764 1.367 . S
C2765 C2767 1.433 . S
C2766 C2762 1.350 . S
C2766 C2763 1.463 1_565 S
C2766 N2770 1.427 . S
C2767 H2757 0.929 . S
C2767 C2765 1.433 . S
C2767 N2770 1.384 . S
C2768 H2759 0.929 1_545 S
C2768 C2760 1.378 . S
C2768 C2763 1.350 . S
C2769 H2756 0.929 . S
C2769 C2761 1.433 . S
C2769 N2771 1.384 . S
N2770 C2766 1.427 . S
N2770 C2767 1.384 . S
N2771 C2763 1.427 . S
N2771 C2769 1.384 . S
H2772 C2778 0.930 . S
H2773 C2782 0.930 . S
H2774 C2787 0.929 . S
H2775 C2785 0.929 . S
H2776 C2780 0.929 . S
H2777 C2786 0.929 . S
C2778 H2772 0.930 . S
C2778 C2779 1.367 . S
C2778 C2786 1.378 . S
C2779 C2778 1.367 . S
C2779 C2787 1.433 . S
C2780 H2776 0.929 . S
C2780 C2782 1.378 . S
C2780 C2784 1.350 . S
C2781 C2784 1.463 1_655 S
C2781 C2786 1.350 . S
C2781 N2789 1.427 . S
C2782 H2773 0.930 . S
C2782 C2780 1.378 . S
C2782 C2783 1.367 . S
C2783 C2782 1.367 . S
C2783 C2785 1.433 . S
C2784 C2780 1.350 . S
C2784 C2781 1.463 1_455 S
C2784 N2788 1.427 . S
C2785 H2775 0.929 . S
C2785 C2783 1.433 . S
C2785 N2788 1.384 . S
C2786 H2777 0.929 . S
C2786 C2778 1.378 . S
C2786 C2781 1.350 . S
C2787 H2774 0.929 . S
C2787 C2779 1.433 . S
C2787 N2789 1.384 . S
N2788 C2784 1.427 . S
N2788 C2785 1.384 . S
N2789 C2781 1.427 . S
N2789 C2787 1.384 . S
H2790 C2796 0.930 . S
H2791 C2800 0.930 . S
H2792 C2805 0.929 . S
H2793 C2803 0.929 . S
H2794 C2798 0.929 . S
H2795 C2804 0.929 . S
C2796 H2790 0.930 . S
C2796 C2797 1.367 . S
C2796 C2804 1.378 . S
C2797 C2796 1.367 . S
C2797 C2805 1.433 . S
C2798 H2794 0.929 . S
C2798 C2800 1.378 . S
C2798 C2802 1.350 . S
C2799 C2802 1.463 . S
C2799 C2804 1.350 . S
C2799 N2807 1.427 . S
C2800 H2791 0.930 . S
C2800 C2798 1.378 . S
C2800 C2801 1.367 . S
C2801 C2800 1.367 . S
C2801 C2803 1.433 . S
C2802 C2798 1.350 . S
C2802 C2799 1.463 . S
C2802 N2806 1.427 . S
C2803 H2793 0.929 . S
C2803 C2801 1.433 . S
C2803 N2806 1.384 . S
C2804 H2795 0.929 . S
C2804 C2796 1.378 . S
C2804 C2799 1.350 . S
C2805 H2792 0.929 . S
C2805 C2797 1.433 . S
C2805 N2807 1.384 . S
N2806 C2802 1.427 . S
N2806 C2803 1.384 . S
N2807 C2799 1.427 . S
N2807 C2805 1.384 . S
H2808 C2814 0.930 . S
H2809 C2818 0.930 . S
H2810 C2823 0.929 . S
H2811 C2821 0.929 . S
H2812 C2816 0.929 . S
H2813 C2822 0.929 . S
C2814 H2808 0.930 . S
C2814 C2815 1.367 . S
C2814 C2822 1.378 . S
C2815 C2814 1.367 . S
C2815 C2823 1.433 . S
C2816 H2812 0.929 . S
C2816 C2818 1.378 . S
C2816 C2820 1.350 . S
C2817 C2820 1.463 1_565 S
C2817 C2822 1.350 . S
C2817 N2825 1.427 . S
C2818 H2809 0.930 . S
C2818 C2816 1.378 . S
C2818 C2819 1.367 . S
C2819 C2818 1.367 . S
C2819 C2821 1.433 . S
C2820 C2816 1.350 . S
C2820 C2817 1.463 1_545 S
C2820 N2824 1.427 . S
C2821 H2811 0.929 . S
C2821 C2819 1.433 . S
C2821 N2824 1.384 . S
C2822 H2813 0.929 . S
C2822 C2814 1.378 . S
C2822 C2817 1.350 . S
C2823 H2810 0.929 . S
C2823 C2815 1.433 . S
C2823 N2825 1.384 . S
N2824 C2820 1.427 . S
N2824 C2821 1.384 . S
N2825 C2817 1.427 . S
N2825 C2823 1.384 . S
H2826 C2832 0.930 . S
H2827 C2836 0.930 . S
H2828 C2841 0.929 . S
H2829 C2839 0.929 . S
H2830 C2834 0.929 . S
H2831 C2840 0.929 . S
C2832 H2826 0.930 . S
C2832 C2833 1.367 . S
C2832 C2840 1.378 . S
C2833 C2832 1.367 . S
C2833 C2841 1.433 . S
C2834 H2830 0.929 . S
C2834 C2836 1.378 . S
C2834 C2838 1.350 . S
C2835 C2838 1.463 1_655 S
C2835 C2840 1.350 . S
C2835 N2843 1.427 . S
C2836 H2827 0.930 . S
C2836 C2834 1.378 . S
C2836 C2837 1.367 . S
C2837 C2836 1.367 . S
C2837 C2839 1.433 . S
C2838 C2834 1.350 . S
C2838 C2835 1.463 1_455 S
C2838 N2842 1.427 . S
C2839 H2829 0.929 . S
C2839 C2837 1.433 . S
C2839 N2842 1.384 . S
C2840 H2831 0.929 . S
C2840 C2832 1.378 . S
C2840 C2835 1.350 . S
C2841 H2828 0.929 . S
C2841 C2833 1.433 . S
C2841 N2843 1.384 . S
N2842 C2838 1.427 . S
N2842 C2839 1.384 . S
N2843 C2835 1.427 . S
N2843 C2841 1.384 . S
H2844 C2850 0.930 . S
H2845 C2854 0.930 . S
H2846 C2859 0.929 . S
H2847 C2857 0.929 . S
H2848 C2852 0.929 . S
H2849 C2858 0.929 . S
C2850 H2844 0.930 . S
C2850 C2851 1.367 . S
C2850 C2858 1.378 . S
C2851 C2850 1.367 . S
C2851 C2859 1.433 . S
C2852 H2848 0.929 . S
C2852 C2854 1.378 . S
C2852 C2856 1.350 . S
C2853 C2856 1.463 . S
C2853 C2858 1.350 . S
C2853 N2861 1.427 . S
C2854 H2845 0.930 . S
C2854 C2852 1.378 . S
C2854 C2855 1.367 . S
C2855 C2854 1.367 . S
C2855 C2857 1.433 . S
C2856 C2852 1.350 . S
C2856 C2853 1.463 . S
C2856 N2860 1.427 . S
C2857 H2847 0.929 . S
C2857 C2855 1.433 . S
C2857 N2860 1.384 . S
C2858 H2849 0.929 . S
C2858 C2850 1.378 . S
C2858 C2853 1.350 . S
C2859 H2846 0.929 . S
C2859 C2851 1.433 . S
C2859 N2861 1.384 . S
N2860 C2856 1.427 . S
N2860 C2857 1.384 . S
N2861 C2853 1.427 . S
N2861 C2859 1.384 . S
H2862 C2868 0.930 . S
H2863 C2872 0.930 . S
H2864 C2877 0.929 . S
H2865 C2875 0.929 . S
H2866 C2870 0.929 . S
H2867 C2876 0.929 . S
C2868 H2862 0.930 . S
C2868 C2869 1.367 . S
C2868 C2876 1.378 . S
C2869 C2868 1.367 . S
C2869 C2877 1.433 . S
C2870 H2866 0.929 . S
C2870 C2872 1.378 . S
C2870 C2874 1.350 . S
C2871 C2874 1.463 . S
C2871 C2876 1.350 . S
C2871 N2879 1.427 . S
C2872 H2863 0.930 . S
C2872 C2870 1.378 . S
C2872 C2873 1.367 . S
C2873 C2872 1.367 . S
C2873 C2875 1.433 . S
C2874 C2870 1.350 . S
C2874 C2871 1.463 . S
C2874 N2878 1.427 . S
C2875 H2865 0.929 . S
C2875 C2873 1.433 . S
C2875 N2878 1.384 . S
C2876 H2867 0.929 . S
C2876 C2868 1.378 . S
C2876 C2871 1.350 . S
C2877 H2864 0.929 . S
C2877 C2869 1.433 . S
C2877 N2879 1.384 . S
N2878 C2874 1.427 . S
N2878 C2875 1.384 . S
N2879 C2871 1.427 . S
N2879 C2877 1.384 . S
H2880 C2886 0.930 . S
H2881 C2890 0.930 . S
H2882 C2895 0.929 . S
H2883 C2893 0.929 . S
H2884 C2888 0.929 . S
H2885 C2894 0.929 . S
C2886 H2880 0.930 . S
C2886 C2887 1.367 . S
C2886 C2894 1.378 . S
C2887 C2886 1.367 . S
C2887 C2895 1.433 . S
C2888 H2884 0.929 . S
C2888 C2890 1.378 . S
C2888 C2892 1.350 . S
C2889 C2892 1.463 . S
C2889 C2894 1.350 . S
C2889 N2897 1.427 . S
C2890 H2881 0.930 . S
C2890 C2888 1.378 . S
C2890 C2891 1.367 . S
C2891 C2890 1.367 . S
C2891 C2893 1.433 . S
C2892 C2888 1.350 . S
C2892 C2889 1.463 . S
C2892 N2896 1.427 . S
C2893 H2883 0.929 . S
C2893 C2891 1.433 . S
C2893 N2896 1.384 . S
C2894 H2885 0.929 . S
C2894 C2886 1.378 . S
C2894 C2889 1.350 . S
C2895 H2882 0.929 . S
C2895 C2887 1.433 . S
C2895 N2897 1.384 . S
N2896 C2892 1.427 . S
N2896 C2893 1.384 . S
N2897 C2889 1.427 . S
N2897 C2895 1.384 . S
H2898 C2904 0.930 . S
H2899 C2908 0.930 1_556 S
H2900 C2913 0.929 . S
H2901 C2911 0.929 . S
H2902 C2906 0.929 . S
H2903 C2912 0.929 . S
C2904 H2898 0.930 . S
C2904 C2905 1.367 . S
C2904 C2912 1.378 . S
C2905 C2904 1.367 . S
C2905 C2913 1.433 . S
C2906 H2902 0.929 . S
C2906 C2908 1.378 . S
C2906 C2910 1.350 . S
C2907 C2910 1.463 . S
C2907 C2912 1.350 . S
C2907 N2915 1.427 . S
C2908 H2899 0.930 1_554 S
C2908 C2906 1.378 . S
C2908 C2909 1.367 . S
C2909 C2908 1.367 . S
C2909 C2911 1.433 . S
C2910 C2906 1.350 . S
C2910 C2907 1.463 . S
C2910 N2914 1.427 . S
C2911 H2901 0.929 . S
C2911 C2909 1.433 . S
C2911 N2914 1.384 . S
C2912 H2903 0.929 . S
C2912 C2904 1.378 . S
C2912 C2907 1.350 . S
C2913 H2900 0.929 . S
C2913 C2905 1.433 . S
C2913 N2915 1.384 . S
N2914 C2910 1.427 . S
N2914 C2911 1.384 . S
N2915 C2907 1.427 . S
N2915 C2913 1.384 . S
H2916 C2922 0.930 . S
H2917 C2926 0.930 . S
H2918 C2931 0.929 . S
H2919 C2929 0.929 1_556 S
H2920 C2924 0.929 . S
H2921 C2930 0.929 . S
C2922 H2916 0.930 . S
C2922 C2923 1.367 . S
C2922 C2930 1.378 . S
C2923 C2922 1.367 . S
C2923 C2931 1.433 . S
C2924 H2920 0.929 . S
C2924 C2926 1.378 . S
C2924 C2928 1.350 . S
C2925 C2928 1.463 . S
C2925 C2930 1.350 . S
C2925 N2933 1.427 . S
C2926 H2917 0.930 . S
C2926 C2924 1.378 . S
C2926 C2927 1.367 . S
C2927 C2926 1.367 . S
C2927 C2929 1.433 . S
C2928 C2924 1.350 . S
C2928 C2925 1.463 . S
C2928 N2932 1.427 . S
C2929 H2919 0.929 1_554 S
C2929 C2927 1.433 . S
C2929 N2932 1.384 . S
C2930 H2921 0.929 . S
C2930 C2922 1.378 . S
C2930 C2925 1.350 . S
C2931 H2918 0.929 . S
C2931 C2923 1.433 . S
C2931 N2933 1.384 . S
N2932 C2928 1.427 . S
N2932 C2929 1.384 . S
N2933 C2925 1.427 . S
N2933 C2931 1.384 . S
H2934 C2940 0.930 . S
H2935 C2944 0.930 . S
H2936 C2949 0.929 . S
H2937 C2947 0.929 . S
H2938 C2942 0.929 . S
H2939 C2948 0.929 . S
C2940 H2934 0.930 . S
C2940 C2941 1.367 . S
C2940 C2948 1.378 . S
C2941 C2940 1.367 . S
C2941 C2949 1.433 . S
C2942 H2938 0.929 . S
C2942 C2944 1.378 . S
C2942 C2946 1.350 . S
C2943 C2946 1.463 . S
C2943 C2948 1.350 . S
C2943 N2951 1.427 . S
C2944 H2935 0.930 . S
C2944 C2942 1.378 . S
C2944 C2945 1.367 . S
C2945 C2944 1.367 . S
C2945 C2947 1.433 . S
C2946 C2942 1.350 . S
C2946 C2943 1.463 . S
C2946 N2950 1.427 . S
C2947 H2937 0.929 . S
C2947 C2945 1.433 . S
C2947 N2950 1.384 . S
C2948 H2939 0.929 . S
C2948 C2940 1.378 . S
C2948 C2943 1.350 . S
C2949 H2936 0.929 . S
C2949 C2941 1.433 . S
C2949 N2951 1.384 . S
N2950 C2946 1.427 . S
N2950 C2947 1.384 . S
N2951 C2943 1.427 . S
N2951 C2949 1.384 . S
H2952 C2958 0.930 . S
H2953 C2962 0.930 . S
H2954 C2967 0.929 . S
H2955 C2965 0.929 1_554 S
H2956 C2960 0.929 . S
H2957 C2966 0.929 . S
C2958 H2952 0.930 . S
C2958 C2959 1.367 . S
C2958 C2966 1.378 . S
C2959 C2958 1.367 . S
C2959 C2967 1.433 . S
C2960 H2956 0.929 . S
C2960 C2962 1.378 . S
C2960 C2964 1.350 . S
C2961 C2964 1.463 . S
C2961 C2966 1.350 . S
C2961 N2969 1.427 . S
C2962 H2953 0.930 . S
C2962 C2960 1.378 . S
C2962 C2963 1.367 . S
C2963 C2962 1.367 . S
C2963 C2965 1.433 . S
C2964 C2960 1.350 . S
C2964 C2961 1.463 . S
C2964 N2968 1.427 . S
C2965 H2955 0.929 1_556 S
C2965 C2963 1.433 . S
C2965 N2968 1.384 . S
C2966 H2957 0.929 . S
C2966 C2958 1.378 . S
C2966 C2961 1.350 . S
C2967 H2954 0.929 . S
C2967 C2959 1.433 . S
C2967 N2969 1.384 . S
N2968 C2964 1.427 . S
N2968 C2965 1.384 . S
N2969 C2961 1.427 . S
N2969 C2967 1.384 . S
H2970 C2976 0.930 . S
H2971 C2980 0.930 . S
H2972 C2985 0.929 . S
H2973 C2983 0.929 . S
H2974 C2978 0.929 . S
H2975 C2984 0.929 . S
C2976 H2970 0.930 . S
C2976 C2977 1.367 . S
C2976 C2984 1.378 . S
C2977 C2976 1.367 . S
C2977 C2985 1.433 . S
C2978 H2974 0.929 . S
C2978 C2980 1.378 . S
C2978 C2982 1.350 . S
C2979 C2982 1.463 . S
C2979 C2984 1.350 . S
C2979 N2987 1.427 . S
C2980 H2971 0.930 . S
C2980 C2978 1.378 . S
C2980 C2981 1.367 . S
C2981 C2980 1.367 . S
C2981 C2983 1.433 . S
C2982 C2978 1.350 . S
C2982 C2979 1.463 . S
C2982 N2986 1.427 . S
C2983 H2973 0.929 . S
C2983 C2981 1.433 . S
C2983 N2986 1.384 . S
C2984 H2975 0.929 . S
C2984 C2976 1.378 . S
C2984 C2979 1.350 . S
C2985 H2972 0.929 . S
C2985 C2977 1.433 . S
C2985 N2987 1.384 . S
N2986 C2982 1.427 . S
N2986 C2983 1.384 . S
N2987 C2979 1.427 . S
N2987 C2985 1.384 . S
H2988 C2994 0.930 1_554 S
H2989 C2998 0.930 . S
H2990 C3003 0.929 . S
H2991 C3001 0.929 . S
H2992 C2996 0.929 . S
H2993 C3002 0.929 . S
C2994 H2988 0.930 1_556 S
C2994 C2995 1.367 . S
C2994 C3002 1.378 . S
C2995 C2994 1.367 . S
C2995 C3003 1.433 . S
C2996 H2992 0.929 . S
C2996 C2998 1.378 . S
C2996 C3000 1.350 . S
C2997 C3000 1.463 . S
C2997 C3002 1.350 . S
C2997 N3005 1.427 . S
C2998 H2989 0.930 . S
C2998 C2996 1.378 . S
C2998 C2999 1.367 . S
C2999 C2998 1.367 . S
C2999 C3001 1.433 . S
C3000 C2996 1.350 . S
C3000 C2997 1.463 . S
C3000 N3004 1.427 . S
C3001 H2991 0.929 . S
C3001 C2999 1.433 . S
C3001 N3004 1.384 . S
C3002 H2993 0.929 . S
C3002 C2994 1.378 . S
C3002 C2997 1.350 . S
C3003 H2990 0.929 . S
C3003 C2995 1.433 . S
C3003 N3005 1.384 . S
N3004 C3000 1.427 . S
N3004 C3001 1.384 . S
N3005 C2997 1.427 . S
N3005 C3003 1.384 . S
H3006 C3012 0.930 . S
H3007 C3016 0.930 . S
H3008 C3021 0.929 . S
H3009 C3019 0.929 . S
H3010 C3014 0.929 . S
H3011 C3020 0.929 . S
C3012 H3006 0.930 . S
C3012 C3013 1.367 . S
C3012 C3020 1.378 . S
C3013 C3012 1.367 . S
C3013 C3021 1.433 . S
C3014 H3010 0.929 . S
C3014 C3016 1.378 . S
C3014 C3018 1.350 . S
C3015 C3018 1.463 . S
C3015 C3020 1.350 . S
C3015 N3023 1.427 . S
C3016 H3007 0.930 . S
C3016 C3014 1.378 . S
C3016 C3017 1.367 . S
C3017 C3016 1.367 . S
C3017 C3019 1.433 . S
C3018 C3014 1.350 . S
C3018 C3015 1.463 . S
C3018 N3022 1.427 . S
C3019 H3009 0.929 . S
C3019 C3017 1.433 . S
C3019 N3022 1.384 . S
C3020 H3011 0.929 . S
C3020 C3012 1.378 . S
C3020 C3015 1.350 . S
C3021 H3008 0.929 . S
C3021 C3013 1.433 . S
C3021 N3023 1.384 . S
N3022 C3018 1.427 . S
N3022 C3019 1.384 . S
N3023 C3015 1.427 . S
N3023 C3021 1.384 . S
H3024 C3030 0.930 . S
H3025 C3034 0.930 . S
H3026 C3039 0.929 . S
H3027 C3037 0.929 . S
H3028 C3032 0.929 . S
H3029 C3038 0.929 . S
C3030 H3024 0.930 . S
C3030 C3031 1.367 . S
C3030 C3038 1.378 . S
C3031 C3030 1.367 . S
C3031 C3039 1.433 . S
C3032 H3028 0.929 . S
C3032 C3034 1.378 . S
C3032 C3036 1.350 . S
C3033 C3036 1.463 . S
C3033 C3038 1.350 . S
C3033 N3041 1.427 . S
C3034 H3025 0.930 . S
C3034 C3032 1.378 . S
C3034 C3035 1.367 . S
C3035 C3034 1.367 . S
C3035 C3037 1.433 . S
C3036 C3032 1.350 . S
C3036 C3033 1.463 . S
C3036 N3040 1.427 . S
C3037 H3027 0.929 . S
C3037 C3035 1.433 . S
C3037 N3040 1.384 . S
C3038 H3029 0.929 . S
C3038 C3030 1.378 . S
C3038 C3033 1.350 . S
C3039 H3026 0.929 . S
C3039 C3031 1.433 . S
C3039 N3041 1.384 . S
N3040 C3036 1.427 . S
N3040 C3037 1.384 . S
N3041 C3033 1.427 . S
N3041 C3039 1.384 . S
H3042 C3048 0.930 . S
H3043 C3052 0.930 . S
H3044 C3057 0.929 . S
H3045 C3055 0.929 . S
H3046 C3050 0.929 . S
H3047 C3056 0.929 . S
C3048 H3042 0.930 . S
C3048 C3049 1.367 . S
C3048 C3056 1.378 . S
C3049 C3048 1.367 . S
C3049 C3057 1.433 . S
C3050 H3046 0.929 . S
C3050 C3052 1.378 . S
C3050 C3054 1.350 . S
C3051 C3054 1.463 . S
C3051 C3056 1.350 . S
C3051 N3059 1.427 . S
C3052 H3043 0.930 . S
C3052 C3050 1.378 . S
C3052 C3053 1.367 . S
C3053 C3052 1.367 . S
C3053 C3055 1.433 . S
C3054 C3050 1.350 . S
C3054 C3051 1.463 . S
C3054 N3058 1.427 . S
C3055 H3045 0.929 . S
C3055 C3053 1.433 . S
C3055 N3058 1.384 . S
C3056 H3047 0.929 . S
C3056 C3048 1.378 . S
C3056 C3051 1.350 . S
C3057 H3044 0.929 . S
C3057 C3049 1.433 . S
C3057 N3059 1.384 . S
N3058 C3054 1.427 . S
N3058 C3055 1.384 . S
N3059 C3051 1.427 . S
N3059 C3057 1.384 . S
H3060 C3066 0.930 . S
H3061 C3070 0.930 . S
H3062 C3075 0.929 . S
H3063 C3073 0.929 . S
H3064 C3068 0.929 . S
H3065 C3074 0.929 . S
C3066 H3060 0.930 . S
C3066 C3067 1.367 . S
C3066 C3074 1.378 . S
C3067 C3066 1.367 . S
C3067 C3075 1.433 . S
C3068 H3064 0.929 . S
C3068 C3070 1.378 . S
C3068 C3072 1.350 . S
C3069 C3072 1.463 . S
C3069 C3074 1.350 . S
C3069 N3077 1.427 . S
C3070 H3061 0.930 . S
C3070 C3068 1.378 . S
C3070 C3071 1.367 . S
C3071 C3070 1.367 . S
C3071 C3073 1.433 . S
C3072 C3068 1.350 . S
C3072 C3069 1.463 . S
C3072 N3076 1.427 . S
C3073 H3063 0.929 . S
C3073 C3071 1.433 . S
C3073 N3076 1.384 . S
C3074 H3065 0.929 . S
C3074 C3066 1.378 . S
C3074 C3069 1.350 . S
C3075 H3062 0.929 . S
C3075 C3067 1.433 . S
C3075 N3077 1.384 . S
N3076 C3072 1.427 . S
N3076 C3073 1.384 . S
N3077 C3069 1.427 . S
N3077 C3075 1.384 . S
H3078 C3084 0.930 . S
H3079 C3088 0.930 . S
H3080 C3093 0.929 . S
H3081 C3091 0.934 . S
H3082 C3086 0.929 . S
H3083 C3092 0.929 . S
C3084 H3078 0.930 . S
C3084 C3085 1.367 . S
C3084 C3092 1.378 . S
C3085 C3084 1.367 . S
C3085 C3093 1.433 . S
C3086 H3082 0.929 . S
C3086 C3088 1.378 . S
C3086 C3090 1.350 . S
C3087 C3090 1.463 . S
C3087 C3092 1.350 . S
C3087 N3095 1.427 . S
C3088 H3079 0.930 . S
C3088 C3086 1.378 . S
C3088 C3089 1.367 . S
C3089 C3088 1.367 . S
C3089 C3091 1.428 1_565 S
C3090 C3086 1.350 . S
C3090 C3087 1.463 . S
C3090 N3094 1.427 . S
C3091 H3081 0.934 . S
C3091 C3089 1.428 1_545 S
C3091 N3094 1.384 1_545 S
C3092 H3083 0.929 . S
C3092 C3084 1.378 . S
C3092 C3087 1.350 . S
C3093 H3080 0.929 . S
C3093 C3085 1.433 . S
C3093 N3095 1.384 . S
N3094 C3090 1.427 . S
N3094 C3091 1.384 1_565 S
N3095 C3087 1.427 . S
N3095 C3093 1.384 . S
H3096 C3102 0.930 . S
H3097 C3106 0.930 . S
H3098 C3111 0.929 . S
H3099 C3109 0.929 . S
H3100 C3104 0.929 . S
H3101 C3110 0.929 . S
C3102 H3096 0.930 . S
C3102 C3103 1.367 . S
C3102 C3110 1.378 . S
C3103 C3102 1.367 . S
C3103 C3111 1.433 1_455 S
C3104 H3100 0.929 . S
C3104 C3106 1.378 . S
C3104 C3108 1.350 . S
C3105 C3108 1.463 . S
C3105 C3110 1.350 . S
C3105 N3113 1.427 . S
C3106 H3097 0.930 . S
C3106 C3104 1.378 . S
C3106 C3107 1.367 . S
C3107 C3106 1.367 . S
C3107 C3109 1.433 . S
C3108 C3104 1.350 . S
C3108 C3105 1.463 . S
C3108 N3112 1.427 . S
C3109 H3099 0.929 . S
C3109 C3107 1.433 . S
C3109 N3112 1.384 . S
C3110 H3101 0.929 . S
C3110 C3102 1.378 . S
C3110 C3105 1.350 . S
C3111 H3098 0.929 . S
C3111 C3103 1.433 1_655 S
C3111 N3113 1.384 1_655 S
N3112 C3108 1.427 . S
N3112 C3109 1.384 . S
N3113 C3105 1.427 . S
N3113 C3111 1.384 1_455 S
H3114 C3120 0.930 . S
H3115 C3124 0.930 . S
H3116 C3129 0.929 . S
H3117 C3127 0.929 . S
H3118 C3122 0.929 . S
H3119 C3128 0.929 . S
C3120 H3114 0.930 . S
C3120 C3121 1.367 . S
C3120 C3128 1.378 . S
C3121 C3120 1.367 . S
C3121 C3129 1.433 . S
C3122 H3118 0.929 . S
C3122 C3124 1.378 . S
C3122 C3126 1.350 . S
C3123 C3126 1.463 . S
C3123 C3128 1.350 . S
C3123 N3131 1.427 . S
C3124 H3115 0.930 . S
C3124 C3122 1.378 . S
C3124 C3125 1.367 . S
C3125 C3124 1.367 . S
C3125 C3127 1.433 . S
C3126 C3122 1.350 . S
C3126 C3123 1.463 . S
C3126 N3130 1.427 . S
C3127 H3117 0.929 . S
C3127 C3125 1.433 . S
C3127 N3130 1.384 . S
C3128 H3119 0.929 . S
C3128 C3120 1.378 . S
C3128 C3123 1.350 . S
C3129 H3116 0.929 . S
C3129 C3121 1.433 . S
C3129 N3131 1.384 . S
N3130 C3126 1.427 . S
N3130 C3127 1.384 . S
N3131 C3123 1.427 . S
N3131 C3129 1.384 . S
H3132 C3138 0.930 . S
H3133 C3142 0.930 . S
H3134 C3147 0.929 . S
H3135 C3145 0.929 . S
H3136 C3140 0.929 . S
H3137 C3146 0.929 . S
C3138 H3132 0.930 . S
C3138 C3139 1.367 . S
C3138 C3146 1.378 . S
C3139 C3138 1.367 . S
C3139 C3147 1.433 1_545 S
C3140 H3136 0.929 . S
C3140 C3142 1.378 . S
C3140 C3144 1.350 . S
C3141 C3144 1.463 . S
C3141 C3146 1.350 . S
C3141 N3149 1.427 . S
C3142 H3133 0.930 . S
C3142 C3140 1.378 . S
C3142 C3143 1.367 . S
C3143 C3142 1.367 . S
C3143 C3145 1.433 . S
C3144 C3140 1.350 . S
C3144 C3141 1.463 . S
C3144 N3148 1.427 . S
C3145 H3135 0.929 . S
C3145 C3143 1.433 . S
C3145 N3148 1.384 . S
C3146 H3137 0.929 . S
C3146 C3138 1.378 . S
C3146 C3141 1.350 . S
C3147 H3134 0.929 . S
C3147 C3139 1.433 1_565 S
C3147 N3149 1.384 1_565 S
N3148 C3144 1.427 . S
N3148 C3145 1.384 . S
N3149 C3141 1.427 . S
N3149 C3147 1.384 1_545 S
H3150 C3156 0.930 . S
H3151 C3160 0.930 . S
H3152 C3165 0.929 . S
H3153 C3163 0.929 . S
H3154 C3158 0.929 . S
H3155 C3164 0.929 . S
C3156 H3150 0.930 . S
C3156 C3157 1.367 1_455 S
C3156 C3164 1.378 1_455 S
C3157 C3156 1.367 1_655 S
C3157 C3165 1.433 . S
C3158 H3154 0.929 . S
C3158 C3160 1.378 . S
C3158 C3162 1.350 . S
C3159 C3162 1.463 . S
C3159 C3164 1.350 . S
C3159 N3167 1.427 . S
C3160 H3151 0.930 . S
C3160 C3158 1.378 . S
C3160 C3161 1.367 . S
C3161 C3160 1.367 . S
C3161 C3163 1.433 . S
C3162 C3158 1.350 . S
C3162 C3159 1.463 . S
C3162 N3166 1.427 . S
C3163 H3153 0.929 . S
C3163 C3161 1.433 . S
C3163 N3166 1.384 . S
C3164 H3155 0.929 . S
C3164 C3156 1.378 1_655 S
C3164 C3159 1.350 . S
C3165 H3152 0.929 . S
C3165 C3157 1.433 . S
C3165 N3167 1.384 . S
N3166 C3162 1.427 . S
N3166 C3163 1.384 . S
N3167 C3159 1.427 . S
N3167 C3165 1.384 . S
H3168 C3174 0.930 . S
H3169 C3178 0.930 . S
H3170 C3183 0.929 . S
H3171 C3181 0.929 . S
H3172 C3176 0.929 . S
H3173 C3182 0.929 . S
C3174 H3168 0.930 . S
C3174 C3175 1.367 . S
C3174 C3182 1.378 . S
C3175 C3174 1.367 . S
C3175 C3183 1.433 . S
C3176 H3172 0.929 . S
C3176 C3178 1.378 . S
C3176 C3180 1.350 . S
C3177 C3180 1.463 . S
C3177 C3182 1.350 . S
C3177 N3185 1.427 . S
C3178 H3169 0.930 . S
C3178 C3176 1.378 . S
C3178 C3179 1.367 . S
C3179 C3178 1.367 . S
C3179 C3181 1.433 . S
C3180 C3176 1.350 . S
C3180 C3177 1.463 . S
C3180 N3184 1.427 . S
C3181 H3171 0.929 . S
C3181 C3179 1.433 . S
C3181 N3184 1.384 . S
C3182 H3173 0.929 . S
C3182 C3174 1.378 . S
C3182 C3177 1.350 . S
C3183 H3170 0.929 . S
C3183 C3175 1.433 . S
C3183 N3185 1.384 . S
N3184 C3180 1.427 . S
N3184 C3181 1.384 . S
N3185 C3177 1.427 . S
N3185 C3183 1.384 . S
H3186 C3192 0.930 . S
H3187 C3196 0.930 . S
H3188 C3201 0.929 1_565 S
H3189 C3199 0.929 . S
H3190 C3194 0.929 . S
H3191 C3200 0.929 . S
C3192 H3186 0.930 . S
C3192 C3193 1.367 . S
C3192 C3200 1.378 . S
C3193 C3192 1.367 . S
C3193 C3201 1.433 . S
C3194 H3190 0.929 . S
C3194 C3196 1.378 . S
C3194 C3198 1.350 . S
C3195 C3198 1.463 . S
C3195 C3200 1.350 . S
C3195 N3203 1.427 . S
C3196 H3187 0.930 . S
C3196 C3194 1.378 . S
C3196 C3197 1.367 . S
C3197 C3196 1.367 . S
C3197 C3199 1.433 . S
C3198 C3194 1.350 . S
C3198 C3195 1.463 . S
C3198 N3202 1.427 . S
C3199 H3189 0.929 . S
C3199 C3197 1.433 . S
C3199 N3202 1.384 . S
C3200 H3191 0.929 . S
C3200 C3192 1.378 . S
C3200 C3195 1.350 . S
C3201 H3188 0.929 1_545 S
C3201 C3193 1.433 . S
C3201 N3203 1.384 . S
N3202 C3198 1.427 . S
N3202 C3199 1.384 . S
N3203 C3195 1.427 . S
N3203 C3201 1.384 . S
H3204 C3210 0.930 . S
H3205 C3214 0.930 . S
H3206 C3219 0.929 . S
H3207 C3217 0.929 . S
H3208 C3212 0.929 . S
H3209 C3218 0.929 . S
C3210 H3204 0.930 . S
C3210 C3211 1.367 . S
C3210 C3218 1.378 . S
C3211 C3210 1.367 . S
C3211 C3219 1.433 . S
C3212 H3208 0.929 . S
C3212 C3214 1.378 . S
C3212 C3216 1.350 . S
C3213 C3216 1.463 . S
C3213 C3218 1.350 . S
C3213 N3221 1.427 . S
C3214 H3205 0.930 . S
C3214 C3212 1.378 . S
C3214 C3215 1.367 . S
C3215 C3214 1.367 . S
C3215 C3217 1.433 . S
C3216 C3212 1.350 . S
C3216 C3213 1.463 . S
C3216 N3220 1.427 . S
C3217 H3207 0.929 . S
C3217 C3215 1.433 . S
C3217 N3220 1.384 . S
C3218 H3209 0.929 . S
C3218 C3210 1.378 . S
C3218 C3213 1.350 . S
C3219 H3206 0.929 . S
C3219 C3211 1.433 . S
C3219 N3221 1.384 . S
N3220 C3216 1.427 . S
N3220 C3217 1.384 . S
N3221 C3213 1.427 . S
N3221 C3219 1.384 . S
H3222 C3228 0.930 . S
H3223 C3232 0.930 . S
H3224 C3237 0.929 . S
H3225 C3235 0.929 . S
H3226 C3230 0.929 . S
H3227 C3236 0.929 . S
C3228 H3222 0.930 . S
C3228 C3229 1.367 . S
C3228 C3236 1.378 . S
C3229 C3228 1.367 . S
C3229 C3237 1.433 . S
C3230 H3226 0.929 . S
C3230 C3232 1.378 . S
C3230 C3234 1.350 . S
C3231 C3234 1.463 . S
C3231 C3236 1.350 . S
C3231 N3239 1.427 . S
C3232 H3223 0.930 . S
C3232 C3230 1.378 . S
C3232 C3233 1.367 . S
C3233 C3232 1.367 . S
C3233 C3235 1.433 . S
C3234 C3230 1.350 . S
C3234 C3231 1.463 . S
C3234 N3238 1.427 . S
C3235 H3225 0.929 . S
C3235 C3233 1.433 . S
C3235 N3238 1.384 . S
C3236 H3227 0.929 . S
C3236 C3228 1.378 . S
C3236 C3231 1.350 . S
C3237 H3224 0.929 . S
C3237 C3229 1.433 . S
C3237 N3239 1.384 . S
N3238 C3234 1.427 . S
N3238 C3235 1.384 . S
N3239 C3231 1.427 . S
N3239 C3237 1.384 . S
H3240 C3246 0.930 . S
H3241 C3250 0.930 . S
H3242 C3255 0.929 . S
H3243 C3253 0.929 . S
H3244 C3248 0.929 . S
H3245 C3254 0.929 . S
C3246 H3240 0.930 . S
C3246 C3247 1.367 . S
C3246 C3254 1.378 . S
C3247 C3246 1.367 . S
C3247 C3255 1.433 . S
C3248 H3244 0.929 . S
C3248 C3250 1.378 1_565 S
C3248 C3252 1.350 . S
C3249 C3252 1.463 . S
C3249 C3254 1.350 . S
C3249 N3257 1.427 . S
C3250 H3241 0.930 . S
C3250 C3248 1.378 1_545 S
C3250 C3251 1.367 1_545 S
C3251 C3250 1.367 1_565 S
C3251 C3253 1.433 . S
C3252 C3248 1.350 . S
C3252 C3249 1.463 . S
C3252 N3256 1.427 . S
C3253 H3243 0.929 . S
C3253 C3251 1.433 . S
C3253 N3256 1.384 . S
C3254 H3245 0.929 . S
C3254 C3246 1.378 . S
C3254 C3249 1.350 . S
C3255 H3242 0.929 . S
C3255 C3247 1.433 . S
C3255 N3257 1.384 . S
N3256 C3252 1.427 . S
N3256 C3253 1.384 . S
N3257 C3249 1.427 . S
N3257 C3255 1.384 . S
H3258 C3264 0.930 . S
H3259 C3268 0.930 1_655 S
H3260 C3273 0.929 . S
H3261 C3271 0.929 . S
H3262 C3266 0.929 . S
H3263 C3272 0.929 . S
C3264 H3258 0.930 . S
C3264 C3265 1.367 . S
C3264 C3272 1.378 . S
C3265 C3264 1.367 . S
C3265 C3273 1.433 . S
C3266 H3262 0.929 . S
C3266 C3268 1.378 . S
C3266 C3270 1.350 . S
C3267 C3270 1.463 . S
C3267 C3272 1.350 . S
C3267 N3275 1.427 . S
C3268 H3259 0.930 1_455 S
C3268 C3266 1.378 . S
C3268 C3269 1.367 . S
C3269 C3268 1.367 . S
C3269 C3271 1.433 . S
C3270 C3266 1.350 . S
C3270 C3267 1.463 . S
C3270 N3274 1.427 . S
C3271 H3261 0.929 . S
C3271 C3269 1.433 . S
C3271 N3274 1.384 . S
C3272 H3263 0.929 . S
C3272 C3264 1.378 . S
C3272 C3267 1.350 . S
C3273 H3260 0.929 . S
C3273 C3265 1.433 . S
C3273 N3275 1.384 . S
N3274 C3270 1.427 . S
N3274 C3271 1.384 . S
N3275 C3267 1.427 . S
N3275 C3273 1.384 . S
H3276 C3282 0.930 . S
H3277 C3286 0.930 . S
H3278 C3291 0.929 . S
H3279 C3289 0.929 . S
H3280 C3284 0.929 . S
H3281 C3290 0.929 . S
C3282 H3276 0.930 . S
C3282 C3283 1.367 . S
C3282 C3290 1.378 . S
C3283 C3282 1.367 . S
C3283 C3291 1.433 . S
C3284 H3280 0.929 . S
C3284 C3286 1.378 . S
C3284 C3288 1.350 . S
C3285 C3288 1.463 1_655 S
C3285 C3290 1.350 . S
C3285 N3293 1.427 . S
C3286 H3277 0.930 . S
C3286 C3284 1.378 . S
C3286 C3287 1.367 . S
C3287 C3286 1.367 . S
C3287 C3289 1.433 . S
C3288 C3284 1.350 . S
C3288 C3285 1.463 1_455 S
C3288 N3292 1.427 . S
C3289 H3279 0.929 . S
C3289 C3287 1.433 . S
C3289 N3292 1.384 . S
C3290 H3281 0.929 . S
C3290 C3282 1.378 . S
C3290 C3285 1.350 . S
C3291 H3278 0.929 . S
C3291 C3283 1.433 . S
C3291 N3293 1.384 . S
N3292 C3288 1.427 . S
N3292 C3289 1.384 . S
N3293 C3285 1.427 . S
N3293 C3291 1.384 . S
H3294 C3300 0.930 . S
H3295 C3304 0.930 . S
H3296 C3309 0.929 . S
H3297 C3307 0.929 . S
H3298 C3302 0.929 . S
H3299 C3308 0.929 . S
C3300 H3294 0.930 . S
C3300 C3301 1.367 . S
C3300 C3308 1.378 . S
C3301 C3300 1.367 . S
C3301 C3309 1.433 . S
C3302 H3298 0.929 . S
C3302 C3304 1.378 . S
C3302 C3306 1.350 . S
C3303 C3306 1.463 . S
C3303 C3308 1.350 . S
C3303 N3311 1.427 . S
C3304 H3295 0.930 . S
C3304 C3302 1.378 . S
C3304 C3305 1.367 . S
C3305 C3304 1.367 . S
C3305 C3307 1.433 . S
C3306 C3302 1.350 . S
C3306 C3303 1.463 . S
C3306 N3310 1.427 . S
C3307 H3297 0.929 . S
C3307 C3305 1.433 . S
C3307 N3310 1.384 . S
C3308 H3299 0.929 . S
C3308 C3300 1.378 . S
C3308 C3303 1.350 . S
C3309 H3296 0.929 . S
C3309 C3301 1.433 . S
C3309 N3311 1.384 . S
N3310 C3306 1.427 . S
N3310 C3307 1.384 . S
N3311 C3303 1.427 . S
N3311 C3309 1.384 . S
H3312 C3318 0.930 . S
H3313 C3322 0.930 . S
H3314 C3327 0.929 . S
H3315 C3325 0.929 . S
H3316 C3320 0.929 . S
H3317 C3326 0.929 . S
C3318 H3312 0.930 . S
C3318 C3319 1.367 . S
C3318 C3326 1.378 . S
C3319 C3318 1.367 . S
C3319 C3327 1.433 . S
C3320 H3316 0.929 . S
C3320 C3322 1.378 . S
C3320 C3324 1.350 . S
C3321 C3324 1.463 1_545 S
C3321 C3326 1.350 . S
C3321 N3329 1.427 . S
C3322 H3313 0.930 . S
C3322 C3320 1.378 . S
C3322 C3323 1.367 . S
C3323 C3322 1.367 . S
C3323 C3325 1.433 . S
C3324 C3320 1.350 . S
C3324 C3321 1.463 1_565 S
C3324 N3328 1.427 . S
C3325 H3315 0.929 . S
C3325 C3323 1.433 . S
C3325 N3328 1.384 . S
C3326 H3317 0.929 . S
C3326 C3318 1.378 . S
C3326 C3321 1.350 . S
C3327 H3314 0.929 . S
C3327 C3319 1.433 . S
C3327 N3329 1.384 . S
N3328 C3324 1.427 . S
N3328 C3325 1.384 . S
N3329 C3321 1.427 . S
N3329 C3327 1.384 . S
H3330 C3336 0.930 . S
H3331 C3340 0.930 . S
H3332 C3345 0.929 . S
H3333 C3343 0.929 . S
H3334 C3338 0.929 . S
H3335 C3344 0.929 . S
C3336 H3330 0.930 . S
C3336 C3337 1.367 . S
C3336 C3344 1.378 . S
C3337 C3336 1.367 . S
C3337 C3345 1.433 . S
C3338 H3334 0.929 . S
C3338 C3340 1.378 . S
C3338 C3342 1.350 . S
C3339 C3342 1.463 1_545 S
C3339 C3344 1.350 . S
C3339 N3347 1.427 . S
C3340 H3331 0.930 . S
C3340 C3338 1.378 . S
C3340 C3341 1.367 . S
C3341 C3340 1.367 . S
C3341 C3343 1.433 . S
C3342 C3338 1.350 . S
C3342 C3339 1.463 1_565 S
C3342 N3346 1.427 . S
C3343 H3333 0.929 . S
C3343 C3341 1.433 . S
C3343 N3346 1.384 . S
C3344 H3335 0.929 . S
C3344 C3336 1.378 . S
C3344 C3339 1.350 . S
C3345 H3332 0.929 . S
C3345 C3337 1.433 . S
C3345 N3347 1.384 . S
N3346 C3342 1.427 . S
N3346 C3343 1.384 . S
N3347 C3339 1.427 . S
N3347 C3345 1.384 . S
H3348 C3354 0.930 . S
H3349 C3358 0.930 . S
H3350 C3363 0.929 . S
H3351 C3361 0.929 . S
H3352 C3356 0.929 . S
H3353 C3362 0.929 . S
C3354 H3348 0.930 . S
C3354 C3355 1.367 . S
C3354 C3362 1.378 . S
C3355 C3354 1.367 . S
C3355 C3363 1.433 . S
C3356 H3352 0.929 . S
C3356 C3358 1.378 . S
C3356 C3360 1.350 . S
C3357 C3360 1.463 1_655 S
C3357 C3362 1.350 . S
C3357 N3365 1.427 . S
C3358 H3349 0.930 . S
C3358 C3356 1.378 . S
C3358 C3359 1.367 . S
C3359 C3358 1.367 . S
C3359 C3361 1.433 . S
C3360 C3356 1.350 . S
C3360 C3357 1.463 1_455 S
C3360 N3364 1.427 . S
C3361 H3351 0.929 . S
C3361 C3359 1.433 . S
C3361 N3364 1.384 . S
C3362 H3353 0.929 . S
C3362 C3354 1.378 . S
C3362 C3357 1.350 . S
C3363 H3350 0.929 . S
C3363 C3355 1.433 . S
C3363 N3365 1.384 . S
N3364 C3360 1.427 . S
N3364 C3361 1.384 . S
N3365 C3357 1.427 . S
N3365 C3363 1.384 . S
H3366 C3372 0.930 . S
H3367 C3376 0.930 . S
H3368 C3381 0.929 . S
H3369 C3379 0.929 . S
H3370 C3374 0.929 . S
H3371 C3380 0.929 . S
C3372 H3366 0.930 . S
C3372 C3373 1.367 . S
C3372 C3380 1.378 . S
C3373 C3372 1.367 . S
C3373 C3381 1.433 . S
C3374 H3370 0.929 . S
C3374 C3376 1.378 . S
C3374 C3378 1.350 . S
C3375 C3378 1.463 . S
C3375 C3380 1.350 . S
C3375 N3383 1.427 . S
C3376 H3367 0.930 . S
C3376 C3374 1.378 . S
C3376 C3377 1.367 . S
C3377 C3376 1.367 . S
C3377 C3379 1.433 . S
C3378 C3374 1.350 . S
C3378 C3375 1.463 . S
C3378 N3382 1.427 . S
C3379 H3369 0.929 . S
C3379 C3377 1.433 . S
C3379 N3382 1.384 . S
C3380 H3371 0.929 . S
C3380 C3372 1.378 . S
C3380 C3375 1.350 . S
C3381 H3368 0.929 . S
C3381 C3373 1.433 . S
C3381 N3383 1.384 . S
N3382 C3378 1.427 . S
N3382 C3379 1.384 . S
N3383 C3375 1.427 . S
N3383 C3381 1.384 . S
C1447 C6 1.988 . S
C1451 C290 1.990 . S
C1465 C330 1.988 . S
C1469 C46 1.989 . S
C1483 C250 1.983 . S
C1487 C86 1.984 . S
C1501 C450 1.989 . S
C1505 C126 1.989 . S
C1519 C166 1.983 . S
C1523 C370 1.987 . S
C1537 C206 1.988 . S
C1541 C410 1.987 . S
C1555 C59 1.982 . S
C1559 C255 1.983 . S
C1573 C295 1.989 . S
C1577 C99 1.989 . S
C1591 C19 1.986 . S
C1595 C335 1.982 . S
C1609 C219 1.988 . S
C1613 C375 1.989 . S
C1627 C415 1.988 . S
C1631 C139 1.987 . S
C1645 C455 1.981 . S
C1649 C179 1.984 . S
C1663 C486 1.989 . S
C1667 C770 1.988 . S
C1681 C810 1.982 . S
C1685 C526 1.982 . S
C1699 C730 1.988 . S
C1703 C566 1.984 . S
C1717 C606 1.984 . S
C1721 C930 1.983 . S
C1735 C850 1.987 . S
C1739 C646 1.988 . S
C1753 C686 1.985 . S
C1757 C890 1.989 . S
C1771 C735 1.982 . S
C1775 C539 1.985 . S
C1789 C579 1.990 . S
C1793 C775 1.988 . S
C1807 C815 1.983 . S
C1811 C499 1.982 . S
C1825 C699 1.989 . S
C1829 C855 1.985 . S
C1843 C619 1.987 . S
C1847 C895 1.988 . S
C1861 C935 1.982 . S
C1865 C659 1.986 . S
C1879 C966 1.986 . S
C1883 C1250 1.984 . S
C1897 C1006 1.981 . S
C1901 C1290 1.985 . S
C1915 C1210 1.990 . S
C1919 C1046 1.987 . S
C1933 C1410 1.982 . S
C1937 C1086 1.983 . S
C1951 C1126 1.983 . S
C1955 C1330 1.982 . S
C1969 C1370 1.983 . S
C1973 C1166 1.981 . S
C1987 C1019 1.982 . S
C1991 C1215 1.983 . S
C2005 C1255 1.985 . S
C2009 C1059 1.989 . S
C2023 C979 1.984 . S
C2027 C1295 1.986 . S
C2041 C1335 1.986 . S
C2045 C1179 1.989 . S
C2059 C1375 1.982 . S
C2063 C1099 1.986 . S
C2077 C1415 1.986 . S
C2081 C1139 1.984 . S
C2095 C10 2.233 . S
C2099 C739 2.233 . S
C2113 C50 2.240 . S
C2117 C779 2.240 . S
C2131 C819 2.233 . S
C2135 C90 2.233 . S
C2149 C1339 2.239 . S
C2153 C130 2.239 . S
C2167 C1379 2.241 . S
C2171 C170 2.241 . S
C2185 C1419 2.239 . S
C2189 C210 2.239 . S
C2203 C259 2.237 . S
C2207 C970 2.237 . S
C2221 C1010 2.235 . S
C2225 C299 2.235 . S
C2239 C339 2.240 . S
C2243 C1050 2.240 . S
C2257 C379 2.237 . S
C2261 C610 2.237 . S
C2275 C419 2.235 . S
C2279 C650 2.235 . S
C2293 C459 2.237 . S
C2297 C690 2.237 . S
C2311 C490 2.239 . S
C2315 C1219 2.239 . S
C2329 C1259 2.235 . S
C2333 C530 2.235 . S
C2347 C570 2.233 . S
C2351 C1299 2.233 . S
C2365 C1090 2.240 . S
C2369 C859 2.240 . S
C2383 C899 2.236 . S
C2387 C1130 2.236 . S
C2401 C1170 2.240 . S
C2405 C939 2.240 . S
C2419 C18 2.149 1_556 S
C2423 C658 2.158 . S
C2437 C58 2.144 1_556 S
C2441 C698 2.149 . S
C2455 C618 2.153 . S
C2459 C98 2.161 1_556 S
C2473 C138 2.161 . S
C2477 C1058 2.156 . S
C2491 C978 2.161 . S
C2495 C178 2.153 . S
C2509 C218 2.145 . S
C2513 C1018 2.154 . S
C2527 C1369 2.161 . S
C2531 C249 2.158 1_554 S
C2545 C289 2.151 1_554 S
C2549 C1409 2.144 . S
C2563 C1329 2.160 . S
C2567 C329 2.152 1_554 S
C2581 C369 2.145 . S
C2585 C809 2.154 . S
C2599 C409 2.147 . S
C2603 C729 2.146 . S
C2617 C449 2.161 . S
C2621 C769 2.153 . S
C2635 C1138 2.151 . S
C2639 C498 2.160 . S
C2653 C538 2.144 . S
C2657 C1178 2.151 . S
C2671 C578 2.148 . S
C2675 C1098 2.145 . S
C2689 C1289 2.145 . S
C2693 C849 2.148 . S
C2707 C1209 2.149 . S
C2711 C889 2.159 . S
C2725 C1249 2.152 . S
C2729 C929 2.160 . S
C2743 C129 2.637 . S
C2747 C9 2.636 . S
C2761 C49 2.630 . S
C2765 C169 2.631 . S
C2779 C89 2.637 . S
C2783 C209 2.638 . S
C2797 C378 2.630 . S
C2801 C258 2.632 . S
C2815 C298 2.637 . S
C2819 C418 2.638 . S
C2833 C458 2.634 . S
C2837 C338 2.637 . S
C2851 C609 2.631 . S
C2855 C489 2.633 . S
C2869 C529 2.630 . S
C2873 C649 2.632 . S
C2887 C569 2.637 . S
C2891 C689 2.638 . S
C2905 C738 2.631 . S
C2909 C858 2.629 1_554 S
C2923 C778 2.638 . S
C2927 C898 2.637 1_554 S
C2941 C818 2.634 . S
C2945 C938 2.631 1_554 S
C2959 C969 2.635 . S
C2963 C1089 2.637 1_556 S
C2977 C1129 2.635 1_556 S
C2981 C1009 2.632 . S
C2995 C1169 2.631 1_556 S
C2999 C1049 2.630 . S
C3013 C1218 2.632 . S
C3017 C1338 2.635 . S
C3031 C1378 2.637 . S
C3035 C1258 2.638 . S
C3049 C1298 2.638 . S
C3053 C1418 2.637 . S
C3067 C15 0.233 . S
C3071 C1175 0.241 . S
C3085 C1095 0.248 . S
C3089 C55 0.337 . S
C3103 C95 0.305 . S
C3107 C1135 0.220 . S
C3121 C535 0.236 . S
C3125 C135 0.276 . S
C3139 C175 0.301 . S
C3143 C575 0.221 . S
C3157 C215 0.288 . S
C3161 C495 0.259 . S
C3175 C926 0.223 . S
C3179 C246 0.254 . S
C3193 C286 0.329 . S
C3197 C846 0.259 . S
C3211 C886 0.232 . S
C3215 C326 0.284 . S
C3229 C366 0.220 . S
C3233 C1246 0.262 . S
C3247 C1286 0.257 . S
C3251 C406 0.265 . S
C3265 C1206 0.270 . S
C3269 C446 0.315 . S
C3283 C615 0.275 . S
C3287 C1015 0.226 . S
C3301 C655 0.250 . S
C3305 C1055 0.226 . S
C3319 C695 0.257 . S
C3323 C975 0.267 . S
C3337 C726 0.275 . S
C3341 C1406 0.226 . S
C3355 C766 0.221 . S
C3359 C1326 0.259 . S
C3373 C1366 0.258 . S
C3377 C806 0.221 . S
