# Generated by pormake.
# Topology ung, (4)-cn, num edge types: 1
# Building blocks:
#     Node 0, Type 0, BuildingBlock: KUFVIS_clean_sbu_0, # of connection points: 4
#     Node 1, Type 0, BuildingBlock: KUFVIS_clean_sbu_0, # of connection points: 4
#     Node 2, Type 0, BuildingBlock: KUFVIS_clean_sbu_0, # of connection points: 4
#     Node 3, Type 0, BuildingBlock: KUFVIS_clean_sbu_0, # of connection points: 4
#     Node 4, Type 0, BuildingBlock: KUFVIS_clean_sbu_0, # of connection points: 4
#     Node 5, Type 0, BuildingBlock: KUFVIS_clean_sbu_0, # of connection points: 4
#     Node 6, Type 0, BuildingBlock: KUFVIS_clean_sbu_0, # of connection points: 4
#     Node 7, Type 0, BuildingBlock: KUFVIS_clean_sbu_0, # of connection points: 4
#     Node 8, Type 0, BuildingBlock: KUFVIS_clean_sbu_0, # of connection points: 4
#     Node 9, Type 0, BuildingBlock: KUFVIS_clean_sbu_0, # of connection points: 4
#     Node 10, Type 0, BuildingBlock: KUFVIS_clean_sbu_0, # of connection points: 4
#     Node 11, Type 0, BuildingBlock: KUFVIS_clean_sbu_0, # of connection points: 4
#     Node 12, Type 0, BuildingBlock: KUFVIS_clean_sbu_0, # of connection points: 4
#     Node 13, Type 0, BuildingBlock: KUFVIS_clean_sbu_0, # of connection points: 4
#     Node 14, Type 0, BuildingBlock: KUFVIS_clean_sbu_0, # of connection points: 4
#     Node 15, Type 0, BuildingBlock: KUFVIS_clean_sbu_0, # of connection points: 4
#     Node 16, Type 0, BuildingBlock: KUFVIS_clean_sbu_0, # of connection points: 4
#     Node 17, Type 0, BuildingBlock: KUFVIS_clean_sbu_0, # of connection points: 4
#     Edge 18, Type (0, 0), BuildingBlock: UVAHIK_clean_linker_0, # of connection points: 2
#     Edge 19, Type (0, 0), BuildingBlock: UVAHIK_clean_linker_0, # of connection points: 2
#     Edge 20, Type (0, 0), BuildingBlock: UVAHIK_clean_linker_0, # of connection points: 2
#     Edge 21, Type (0, 0), BuildingBlock: UVAHIK_clean_linker_0, # of connection points: 2
#     Edge 22, Type (0, 0), BuildingBlock: UVAHIK_clean_linker_0, # of connection points: 2
#     Edge 23, Type (0, 0), BuildingBlock: UVAHIK_clean_linker_0, # of connection points: 2
#     Edge 24, Type (0, 0), BuildingBlock: UVAHIK_clean_linker_0, # of connection points: 2
#     Edge 25, Type (0, 0), BuildingBlock: UVAHIK_clean_linker_0, # of connection points: 2
#     Edge 26, Type (0, 0), BuildingBlock: UVAHIK_clean_linker_0, # of connection points: 2
#     Edge 27, Type (0, 0), BuildingBlock: UVAHIK_clean_linker_0, # of connection points: 2
#     Edge 28, Type (0, 0), BuildingBlock: UVAHIK_clean_linker_0, # of connection points: 2
#     Edge 29, Type (0, 0), BuildingBlock: UVAHIK_clean_linker_0, # of connection points: 2
#     Edge 30, Type (0, 0), BuildingBlock: UVAHIK_clean_linker_0, # of connection points: 2
#     Edge 31, Type (0, 0), BuildingBlock: UVAHIK_clean_linker_0, # of connection points: 2
#     Edge 32, Type (0, 0), BuildingBlock: UVAHIK_clean_linker_0, # of connection points: 2
#     Edge 33, Type (0, 0), BuildingBlock: UVAHIK_clean_linker_0, # of connection points: 2
#     Edge 34, Type (0, 0), BuildingBlock: UVAHIK_clean_linker_0, # of connection points: 2
#     Edge 35, Type (0, 0), BuildingBlock: UVAHIK_clean_linker_0, # of connection points: 2
#     Edge 36, Type (0, 0), BuildingBlock: UVAHIK_clean_linker_0, # of connection points: 2
#     Edge 37, Type (0, 0), BuildingBlock: UVAHIK_clean_linker_0, # of connection points: 2
#     Edge 38, Type (0, 0), BuildingBlock: UVAHIK_clean_linker_0, # of connection points: 2
#     Edge 39, Type (0, 0), BuildingBlock: UVAHIK_clean_linker_0, # of connection points: 2
#     Edge 40, Type (0, 0), BuildingBlock: UVAHIK_clean_linker_0, # of connection points: 2
#     Edge 41, Type (0, 0), BuildingBlock: UVAHIK_clean_linker_0, # of connection points: 2
#     Edge 42, Type (0, 0), BuildingBlock: UVAHIK_clean_linker_0, # of connection points: 2
#     Edge 43, Type (0, 0), BuildingBlock: UVAHIK_clean_linker_0, # of connection points: 2
#     Edge 44, Type (0, 0), BuildingBlock: UVAHIK_clean_linker_0, # of connection points: 2
#     Edge 45, Type (0, 0), BuildingBlock: UVAHIK_clean_linker_0, # of connection points: 2
#     Edge 46, Type (0, 0), BuildingBlock: UVAHIK_clean_linker_0, # of connection points: 2
#     Edge 47, Type (0, 0), BuildingBlock: UVAHIK_clean_linker_0, # of connection points: 2
#     Edge 48, Type (0, 0), BuildingBlock: UVAHIK_clean_linker_0, # of connection points: 2
#     Edge 49, Type (0, 0), BuildingBlock: UVAHIK_clean_linker_0, # of connection points: 2
#     Edge 50, Type (0, 0), BuildingBlock: UVAHIK_clean_linker_0, # of connection points: 2
#     Edge 51, Type (0, 0), BuildingBlock: UVAHIK_clean_linker_0, # of connection points: 2
#     Edge 52, Type (0, 0), BuildingBlock: UVAHIK_clean_linker_0, # of connection points: 2
#     Edge 53, Type (0, 0), BuildingBlock: UVAHIK_clean_linker_0, # of connection points: 2
# Relax obj value: 0.111
# Max RMSD: 0.231
# Mean RMSD: 0.222
data_MOF--net-ung--node1-KUFVIS_clean_sbu_0--edge1-UVAHIK_clean_linker_0
_symmetry_space_group_name_H-M    P1
_symmetry_Int_Tables_number       1
_symmetry_cell_setting            triclinic
loop_
_symmetry_equiv_pos_as_xyz
'x, y, z'
_cell_length_a     92.615709
_cell_length_b     94.400523
_cell_length_c     28.55976
_cell_angle_alpha  89.987251
_cell_angle_beta   89.415754
_cell_angle_gamma 120.70045
loop_
_atom_site_label
_atom_site_type_symbol
_atom_site_fract_x
_atom_site_fract_y
_atom_site_fract_z
_atom_type_partial_charge
Mn0 Mn 0.05675 0.62004 0.26025 0.0
Mn1 Mn 0.01469 0.59555 0.27281 0.0
C2 C 0.03918 0.62328 0.21069 0.0
C3 C 0.08161 0.64322 0.28284 0.0
C4 C 0.03672 0.58453 0.2255 0.0
O5 O 0.05408 0.60978 0.32428 0.0
O6 O 0.02593 0.59504 0.33127 0.0
C7 C 0.00958 0.61519 0.34477 0.0
N8 N 0.00597 0.6079 0.30195 0.0
C9 C 0.9863 0.61679 0.28667 0.0
C10 C 0.98972 0.6243 0.33074 0.0
C11 C 0.00145 0.62354 0.35985 0.0
C12 C 0.99482 0.60868 0.27351 0.0
H13 H 0.01861 0.61465 0.36721 0.0
C14 C 0.04068 0.60036 0.34733 0.0
O15 O 0.08164 0.63064 0.26452 0.0
O16 O 0.06722 0.64232 0.28778 0.0
N17 N 0.00191 0.59471 0.2195 0.0
C18 C 0.00024 0.58706 0.17774 0.0
C19 C 0.98904 0.58678 0.14446 0.0
C20 C 0.97953 0.59419 0.15465 0.0
C21 C 0.98123 0.60171 0.19819 0.0
C22 C 0.99251 0.60151 0.23008 0.0
H23 H 0.00747 0.5813 0.16972 0.0
O24 O 0.05479 0.62904 0.19901 0.0
O25 O 0.03444 0.61623 0.2516 0.0
O26 O 0.05057 0.59813 0.2296 0.0
O27 O 0.02266 0.58213 0.24119 0.0
C28 C 0.97228 0.60953 0.21104 0.0
C29 C 0.97489 0.61715 0.25513 0.0
H30 H 0.98349 0.63076 0.34249 0.0
H31 H 0.00421 0.62936 0.39382 0.0
H32 H 0.98777 0.58091 0.11098 0.0
H33 H 0.97102 0.59408 0.12874 0.0
H34 H 0.96349 0.6099 0.18707 0.0
H35 H 0.9681 0.62331 0.26436 0.0
Mn36 Mn 0.50599 0.47417 0.25163 0.0
Mn37 Mn 0.49601 0.50264 0.28242 0.0
C38 C 0.48379 0.46705 0.30212 0.0
C39 C 0.50322 0.45477 0.19681 0.0
C40 C 0.52602 0.50162 0.32 0.0
O41 O 0.51858 0.49263 0.20438 0.0
O42 O 0.50816 0.50906 0.22133 0.0
C43 C 0.4716 0.49728 0.20853 0.0
N44 N 0.47533 0.49786 0.25474 0.0
C45 C 0.44761 0.49161 0.2778 0.0
C46 C 0.4435 0.49104 0.23045 0.0
C47 C 0.45554 0.49386 0.19568 0.0
C48 C 0.46384 0.49515 0.28848 0.0
H49 H 0.48082 0.49939 0.18174 0.0
C50 C 0.51706 0.50508 0.19609 0.0
O51 O 0.51602 0.46151 0.22462 0.0
O52 O 0.49222 0.45929 0.20118 0.0
N53 N 0.48414 0.49785 0.34097 0.0
C54 C 0.48982 0.49796 0.38488 0.0
C55 C 0.47914 0.49488 0.42365 0.0
C56 C 0.46279 0.49184 0.41692 0.0
C57 C 0.45729 0.49196 0.37145 0.0
C58 C 0.46853 0.49522 0.33419 0.0
H59 H 0.50237 0.50031 0.39029 0.0
O60 O 0.49058 0.45797 0.2997 0.0
O61 O 0.48997 0.47972 0.27423 0.0
O62 O 0.52292 0.48798 0.30212 0.0
O63 O 0.51724 0.50834 0.31315 0.0
C64 C 0.44098 0.48865 0.36157 0.0
C65 C 0.43614 0.48846 0.31478 0.0
H66 H 0.43109 0.48832 0.22038 0.0
H67 H 0.45243 0.49336 0.15906 0.0
H68 H 0.48348 0.49481 0.45863 0.0
H69 H 0.45455 0.48932 0.44688 0.0
H70 H 0.43198 0.486 0.38966 0.0
H71 H 0.42349 0.48566 0.30759 0.0
Mn72 Mn 0.6475 0.06889 0.24773 0.0
Mn73 Mn 0.66113 0.10941 0.23581 0.0
C74 C 0.67066 0.08486 0.20184 0.0
C75 C 0.64658 0.04787 0.29234 0.0
C76 C 0.63108 0.08253 0.18448 0.0
O77 O 0.63544 0.07337 0.29905 0.0
O78 O 0.64688 0.10083 0.29375 0.0
C79 C 0.68323 0.12206 0.3182 0.0
N80 N 0.68107 0.12219 0.27115 0.0
C81 C 0.7099 0.14353 0.25939 0.0
C82 C 0.7124 0.14373 0.30779 0.0
C83 C 0.69902 0.13292 0.33729 0.0
C84 C 0.69385 0.13254 0.24243 0.0
H85 H 0.67298 0.11373 0.34095 0.0
C86 C 0.63727 0.08689 0.31373 0.0
O87 O 0.63462 0.04493 0.26345 0.0
O88 O 0.65907 0.06291 0.29459 0.0
N89 N 0.6751 0.11946 0.18176 0.0
C90 C 0.67092 0.11686 0.13566 0.0
C91 C 0.68311 0.12618 0.10134 0.0
C92 C 0.69939 0.13818 0.11476 0.0
C93 C 0.70335 0.14077 0.16243 0.0
C94 C 0.69066 0.13116 0.19508 0.0
H95 H 0.65843 0.10765 0.12512 0.0
O96 O 0.66239 0.06894 0.19765 0.0
O97 O 0.66544 0.09101 0.23426 0.0
O98 O 0.63229 0.07041 0.1991 0.0
O99 O 0.64086 0.09739 0.19731 0.0
C100 C 0.7195 0.15218 0.17879 0.0
C101 C 0.72277 0.15355 0.22723 0.0
H102 H 0.72459 0.15201 0.32262 0.0
H103 H 0.70088 0.13293 0.37464 0.0
H104 H 0.67997 0.12409 0.06462 0.0
H105 H 0.7088 0.14523 0.08817 0.0
H106 H 0.72957 0.15975 0.15436 0.0
H107 H 0.73531 0.16218 0.23932 0.0
Mn108 Mn 0.04437 0.47726 0.76427 0.0
Mn109 Mn 0.00349 0.46613 0.764 0.0
C110 C 0.02624 0.457 0.71426 0.0
C111 C 0.06574 0.47475 0.79767 0.0
C112 C 0.03119 0.49747 0.71818 0.0
O113 O 0.04146 0.48706 0.82399 0.0
O114 O 0.01355 0.47691 0.82472 0.0
C115 C 0.9908 0.44049 0.83808 0.0
N116 N 0.99029 0.44501 0.79313 0.0
C117 C 0.9682 0.41759 0.77433 0.0
C118 C 0.96841 0.41267 0.82052 0.0
C119 C 0.97978 0.42416 0.8525 0.0
C120 C 0.9794 0.43405 0.76206 0.0
H121 H -0.00041 0.44927 0.86268 0.0
C122 C 0.02807 0.48496 0.84349 0.0
O123 O 0.06901 0.48799 0.77479 0.0
O124 O 0.05014 0.46306 0.80073 0.0
N125 N 0.99218 0.45544 0.70761 0.0
C126 C 0.99414 0.46196 0.66382 0.0
C127 C 0.98402 0.45195 0.62736 0.0
C128 C 0.97193 0.43537 0.63633 0.0
C129 C 0.97 0.42899 0.68179 0.0
C130 C 0.98033 0.4396 0.71683 0.0
H131 H 0.00344 0.47468 0.65665 0.0
O132 O 0.04232 0.46461 0.70642 0.0
O133 O 0.02133 0.4612 0.75186 0.0
O134 O 0.04321 0.4949 0.72599 0.0
O135 O 0.01609 0.48779 0.73218 0.0
C136 C 0.95845 0.41243 0.69352 0.0
C137 C 0.95756 0.40673 0.73974 0.0
H138 H 0.96 0.40006 0.83171 0.0
H139 H 0.98007 0.42043 0.88814 0.0
H140 H 0.9856 0.45697 0.59236 0.0
H141 H 0.96429 0.42763 0.608 0.0
H142 H 0.95034 0.40392 0.66712 0.0
H143 H 0.94878 0.39392 0.74819 0.0
Mn144 Mn 0.63987 0.63105 0.75181 0.0
Mn145 Mn 0.60745 0.63749 0.74252 0.0
C146 C 0.64225 0.65446 0.78341 0.0
C147 C 0.66268 0.63208 0.71494 0.0
C148 C 0.60833 0.61349 0.81169 0.0
O149 O 0.62464 0.61427 0.70466 0.0
O150 O 0.60598 0.62231 0.69174 0.0
C151 C 0.61691 0.65586 0.6527 0.0
N152 N 0.61319 0.65507 0.69923 0.0
C153 C 0.61727 0.68237 0.69764 0.0
C154 C 0.62103 0.68342 0.64962 0.0
C155 C 0.62087 0.67012 0.62709 0.0
C156 C 0.61337 0.66782 0.7213 0.0
H157 H 0.61691 0.64569 0.63534 0.0
C158 C 0.6124 0.61339 0.68234 0.0
O159 O 0.65503 0.62185 0.74935 0.0
O160 O 0.65742 0.64192 0.70304 0.0
N161 N 0.60723 0.65197 0.78907 0.0
C162 C 0.60343 0.64903 0.83561 0.0
C163 C 0.60316 0.66118 0.86334 0.0
C164 C 0.60662 0.67614 0.84288 0.0
C165 C 0.61011 0.67874 0.79473 0.0
C166 C 0.61003 0.66611 0.76877 0.0
H167 H 0.60073 0.63755 0.85155 0.0
O168 O 0.6526 0.6497 0.79536 0.0
O169 O 0.63141 0.64584 0.75134 0.0
O170 O 0.62354 0.61741 0.80421 0.0
O171 O 0.60089 0.61954 0.7888 0.0
C172 C 0.61384 0.69342 0.77156 0.0
C173 C 0.61746 0.69525 0.72307 0.0
H174 H 0.62415 0.69443 0.62977 0.0
H175 H 0.62385 0.67087 0.59009 0.0
H176 H 0.60037 0.65905 0.90043 0.0
H177 H 0.60658 0.68556 0.86448 0.0
H178 H 0.6141 0.70344 0.79077 0.0
H179 H 0.62045 0.70666 0.70572 0.0
Mn180 Mn 0.49741 0.06045 0.7431 0.0
Mn181 Mn 0.49314 0.02271 0.74566 0.0
C182 C 0.47455 0.03927 0.78034 0.0
C183 C 0.49412 0.07958 0.70057 0.0
C184 C 0.51625 0.05053 0.81015 0.0
O185 O 0.51444 0.06219 0.69566 0.0
O186 O 0.50929 0.03622 0.69481 0.0
C187 C 0.47623 0.0109 0.65462 0.0
N188 N 0.47636 0.00893 0.70182 0.0
C189 C 0.4495 0.98383 0.70024 0.0
C190 C 0.44913 0.98552 0.65155 0.0
C191 C 0.46254 -0.00086 0.62867 0.0
C192 C 0.46349 0.99593 0.72422 0.0
H193 H 0.48647 0.0214 0.63696 0.0
C194 C 0.51703 0.05111 0.6797 0.0
O195 O 0.50523 0.08429 0.73346 0.0
O196 O 0.48487 0.06389 0.69339 0.0
N197 N 0.47799 0.00804 0.79264 0.0
C198 C 0.48019 0.00833 0.83983 0.0
C199 C 0.4678 0.99566 0.86797 0.0
C200 C 0.45342 0.9827 0.84728 0.0
C201 C 0.45164 0.98243 0.79854 0.0
C202 C 0.46446 0.99534 0.77225 0.0
H203 H 0.49122 0.01824 0.85596 0.0
O204 O 0.47875 0.05443 0.78823 0.0
O205 O 0.48337 0.03688 0.7489 0.0
O206 O 0.51251 0.06113 0.79613 0.0
O207 O 0.51013 0.03614 0.79258 0.0
C208 C 0.43754 0.97 0.77507 0.0
C209 C 0.43645 0.97073 0.72597 0.0
H210 H 0.43857 0.97649 0.63142 0.0
H211 H 0.4623 0.00057 0.59114 0.0
H212 H 0.4693 0.99591 0.90554 0.0
H213 H 0.44381 0.97304 0.86915 0.0
H214 H 0.42739 0.95992 0.7945 0.0
H215 H 0.42547 0.96118 0.70838 0.0
Mn216 Mn 0.71233 0.9506 0.58747 0.0
Mn217 Mn 0.67201 0.91944 0.59433 0.0
C218 C 0.69204 0.95286 0.54872 0.0
C219 C 0.7348 0.97385 0.61996 0.0
C220 C 0.69832 0.91865 0.53224 0.0
O221 O 0.71226 0.93675 0.6412 0.0
O222 O 0.6848 0.91763 0.64764 0.0
C223 C 0.66195 0.92942 0.68119 0.0
N224 N 0.65964 0.92564 0.63482 0.0
C225 C 0.63627 0.93007 0.63228 0.0
C226 C 0.63832 0.93388 0.6801 0.0
C227 C 0.65123 0.93357 0.70463 0.0
C228 C 0.64727 0.92591 0.61087 0.0
H229 H 0.67192 0.92929 0.70011 0.0
C230 C 0.70003 0.9244 0.66153 0.0
O231 O 0.73715 0.9647 0.59059 0.0
O232 O 0.71939 0.96959 0.62997 0.0
N233 N 0.65809 0.91961 0.5455 0.0
C234 C 0.65824 0.91627 0.49913 0.0
C235 C 0.64637 0.91648 0.46938 0.0
C236 C 0.63439 0.91996 0.48765 0.0
C237 C 0.63431 0.92309 0.53562 0.0
C238 C 0.64636 0.92258 0.56363 0.0
H239 H 0.66744 0.91362 0.48484 0.0
O240 O 0.70776 0.96215 0.53707 0.0
O241 O 0.68868 0.9429 0.58414 0.0
O242 O 0.71017 0.93318 0.54143 0.0
O243 O 0.68368 0.91212 0.55092 0.0
C244 C 0.62295 0.927 0.55657 0.0
C245 C 0.62394 0.9305 0.60485 0.0
H246 H 0.63014 0.93718 0.69824 0.0
H247 H 0.65295 0.93659 0.74148 0.0
H248 H 0.64651 0.91404 0.43241 0.0
H249 H 0.62537 0.92029 0.4645 0.0
H250 H 0.61352 0.92754 0.53576 0.0
H251 H 0.61526 0.93368 0.62044 0.0
Mn252 Mn 0.17825 0.80573 0.57995 0.0
Mn253 Mn 0.1694 0.83601 0.5875 0.0
C254 C 0.15854 0.80343 0.63409 0.0
C255 C 0.17334 0.78264 0.53787 0.0
C256 C 0.20123 0.83844 0.62477 0.0
O257 O 0.18895 0.81979 0.52178 0.0
O258 O 0.17726 0.83564 0.52296 0.0
C259 C 0.14042 0.82345 0.52394 0.0
N260 N 0.14715 0.82882 0.56704 0.0
C261 C 0.12155 0.82648 0.59616 0.0
C262 C 0.11436 0.821 0.552 0.0
C263 C 0.12382 0.81941 0.5158 0.0
C264 C 0.13811 0.83024 0.60224 0.0
H265 H 0.14769 0.82227 0.49602 0.0
C266 C 0.18573 0.83007 0.50272 0.0
O267 O 0.18711 0.79105 0.56143 0.0
O268 O 0.16245 0.78734 0.54043 0.0
N269 N 0.16149 0.83767 0.6483 0.0
C270 C 0.16998 0.84233 0.68944 0.0
C271 C 0.16208 0.84399 0.72956 0.0
C272 C 0.14565 0.84107 0.72685 0.0
C273 C 0.13725 0.83651 0.68401 0.0
C274 C 0.14574 0.83501 0.64522 0.0
H275 H 0.18266 0.84476 0.69173 0.0
O276 O 0.16492 0.79401 0.6375 0.0
O277 O 0.16334 0.81322 0.59807 0.0
O278 O 0.19702 0.82335 0.62014 0.0
O279 O 0.19241 0.84443 0.61032 0.0
C280 C 0.12073 0.83323 0.67837 0.0
C281 C 0.11286 0.82816 0.63452 0.0
H282 H 0.10156 0.81788 0.54559 0.0
H283 H 0.11834 0.81513 0.48169 0.0
H284 H 0.16867 0.84755 0.76248 0.0
H285 H 0.13958 0.84231 0.75791 0.0
H286 H 0.11387 0.83432 0.70773 0.0
H287 H 0.10005 0.8254 0.63085 0.0
Mn288 Mn 0.2998 0.38041 0.58117 0.0
Mn289 Mn 0.26139 0.34663 0.59479 0.0
C290 C 0.2962 0.35985 0.63085 0.0
C291 C 0.32488 0.39463 0.53967 0.0
C292 C 0.2719 0.37866 0.64413 0.0
O293 O 0.28709 0.38214 0.52695 0.0
O294 O 0.26161 0.35968 0.53944 0.0
C295 C 0.26271 0.32962 0.50926 0.0
N296 N 0.261 0.32981 0.55663 0.0
C297 C 0.25884 0.30342 0.56464 0.0
C298 C 0.26046 0.30288 0.5159 0.0
C299 C 0.26242 0.31604 0.48811 0.0
C300 C 0.25917 0.31724 0.58371 0.0
H301 H 0.26436 0.33977 0.48782 0.0
C302 C 0.27173 0.37284 0.5167 0.0
O303 O 0.31951 0.40239 0.56538 0.0
O304 O 0.3156 0.37871 0.53798 0.0
N305 N 0.25905 0.33279 0.64673 0.0
C306 C 0.25731 0.33509 0.69308 0.0
C307 C 0.25522 0.32303 0.7257 0.0
C308 C 0.25473 0.30866 0.71028 0.0
C309 C 0.25605 0.30636 0.66227 0.0
C310 C 0.25796 0.31874 0.63138 0.0
H311 H 0.25772 0.34614 0.70508 0.0
O312 O 0.30919 0.37455 0.63452 0.0
O313 O 0.28593 0.35742 0.59678 0.0
O314 O 0.28667 0.38668 0.62625 0.0
O315 O 0.26142 0.36349 0.63558 0.0
C316 C 0.25564 0.29231 0.64386 0.0
C317 C 0.25706 0.29085 0.59509 0.0
H318 H 0.2603 0.29246 0.49946 0.0
H319 H 0.26376 0.31575 0.45049 0.0
H320 H 0.25408 0.32484 0.76267 0.0
H321 H 0.25328 0.29946 0.73559 0.0
H322 H 0.25428 0.28257 0.6669 0.0
H323 H 0.2568 0.28003 0.58136 0.0
Mn324 Mn 0.73673 0.82166 0.08561 0.0
Mn325 Mn 0.77404 0.85685 0.09711 0.0
C326 C 0.75851 0.82056 0.11925 0.0
C327 C 0.71842 0.80055 0.03704 0.0
C328 C 0.74405 0.84692 0.16177 0.0
O329 O 0.73458 0.83802 0.04556 0.0
O330 O 0.76078 0.85993 0.0476 0.0
C331 C 0.78873 0.85691 0.00455 0.0
N332 N 0.78961 0.85714 0.05214 0.0
C333 C 0.81598 0.85792 0.04927 0.0
C334 C 0.81543 0.85782 0.00021 0.0
C335 C 0.80172 0.85728 0.97777 0.0
C336 C 0.80269 0.85757 0.07409 0.0
H337 H 0.77817 0.85641 0.98719 0.0
C338 C 0.7457 0.85244 0.03241 0.0
O339 O 0.71289 0.80471 0.0734 0.0
O340 O 0.73451 0.80844 0.02949 0.0
N341 N 0.78841 0.85597 0.14327 0.0
C342 C 0.78697 0.85584 0.19084 0.0
C343 C 0.79957 0.85617 0.21855 0.0
C344 C 0.81363 0.85686 0.19713 0.0
C345 C 0.81506 0.8574 0.14816 0.0
C346 C 0.80216 0.85716 0.12235 0.0
H347 H 0.7762 0.85533 0.20754 0.0
O348 O 0.74321 0.80835 0.124 0.0
O349 O 0.76075 0.83274 0.09251 0.0
O350 O 0.73438 0.83271 0.14434 0.0
O351 O 0.75874 0.85707 0.14549 0.0
C352 C 0.82866 0.85794 0.12391 0.0
C353 C 0.8291 0.85816 0.0745 0.0
H354 H 0.8254 0.85805 0.97943 0.0
H355 H 0.80116 0.85711 0.93993 0.0
H356 H 0.79841 0.85582 0.25633 0.0
H357 H 0.82324 0.85693 0.21862 0.0
H358 H 0.83878 0.85805 0.14292 0.0
H359 H 0.83954 0.85842 0.05626 0.0
Mn360 Mn 0.30109 0.96189 0.07737 0.0
Mn361 Mn 0.26643 0.96497 0.07483 0.0
C362 C 0.29949 0.98059 0.12477 0.0
C363 C 0.32647 0.96846 0.04273 0.0
C364 C 0.26804 0.93763 0.1258 0.0
O365 O 0.28927 0.94958 0.01937 0.0
O366 O 0.2675 0.9538 0.01642 0.0
C367 C 0.27639 0.98858 0.9959 0.0
N368 N 0.27161 0.98461 0.04154 0.0
C369 C 0.27341 0.01063 0.05495 0.0
C370 C 0.27823 0.01495 0.00798 0.0
C371 C 0.27974 0.00388 0.97836 0.0
C372 C 0.27013 0.99517 0.07036 0.0
H373 H 0.2777 0.98017 0.97313 0.0
C374 C 0.27634 0.94803 -0.00049 0.0
O375 O 0.31807 0.95517 0.06794 0.0
O376 O 0.32035 0.97808 0.03915 0.0
N377 N 0.26372 0.97552 0.12863 0.0
C378 C 0.25931 0.96962 0.17325 0.0
C379 C 0.25751 0.97931 0.20748 0.0
C380 C 0.26013 0.99489 0.19543 0.0
C381 C 0.26436 0.00057 0.14911 0.0
C382 C 0.26581 0.9903 0.11639 0.0
H383 H 0.25735 0.95769 0.18277 0.0
O384 O 0.31023 0.97599 0.13339 0.0
O385 O 0.29043 0.97454 0.08741 0.0
O386 O 0.28354 0.9429 0.11747 0.0
O387 O 0.26034 0.94474 0.11082 0.0
C388 C 0.26745 0.01612 0.13426 0.0
C389 C 0.27199 0.02115 0.08723 0.0
H390 H 0.28092 0.02678 0.99438 0.0
H391 H 0.28354 0.00717 0.94214 0.0
H392 H 0.2542 0.97482 0.24313 0.0
H393 H 0.25891 0.00239 0.22204 0.0
H394 H 0.26652 0.02436 0.15883 0.0
H395 H 0.27447 0.0332 0.07634 0.0
Mn396 Mn 0.17989 0.41937 0.09111 0.0
Mn397 Mn 0.18003 0.38428 0.11218 0.0
C398 C 0.15963 0.39971 0.13975 0.0
C399 C 0.17241 0.4336 0.04004 0.0
C400 C 0.20379 0.41705 0.15776 0.0
O401 O 0.19621 0.41968 0.04274 0.0
O402 O 0.19214 0.39423 0.05249 0.0
C403 C 0.1585 0.36428 0.03418 0.0
N404 N 0.16165 0.36636 0.08091 0.0
C405 C 0.13659 0.34054 0.09887 0.0
C406 C 0.13313 0.33806 0.0509 0.0
C407 C 0.14412 0.35 0.01843 0.0
C408 C 0.15112 0.355 0.11246 0.0
H409 H 0.16688 0.37348 0.00918 0.0
C410 C 0.19862 0.40805 0.03081 0.0
O411 O 0.18454 0.44149 0.06949 0.0
O412 O 0.16468 0.41766 0.0407 0.0
N413 N 0.1688 0.37316 0.16898 0.0
C414 C 0.17393 0.37744 0.214 0.0
C415 C 0.16429 0.36684 0.25081 0.0
C416 C 0.1496 0.35186 0.24096 0.0
C417 C 0.14482 0.34752 0.19432 0.0
C418 C 0.15502 0.3585 0.15907 0.0
H419 H 0.18525 0.38889 0.22183 0.0
O420 O 0.16227 0.41459 0.13928 0.0
O421 O 0.16827 0.39656 0.10978 0.0
O422 O 0.19726 0.42523 0.14267 0.0
O423 O 0.19891 0.40217 0.14642 0.0
C424 C 0.13023 0.33279 0.18143 0.0
C425 C 0.12609 0.32934 0.13375 0.0
H426 H 0.12203 0.32708 0.03862 0.0
H427 H 0.14149 0.34821 0.98138 0.0
H428 H 0.16814 0.37024 0.2867 0.0
H429 H 0.1421 0.3438 0.26947 0.0
H430 H 0.12203 0.32411 0.20793 0.0
H431 H 0.11475 0.31806 0.1243 0.0
Mn432 Mn 0.39112 0.28557 0.92579 0.0
Mn433 Mn 0.34988 0.2566 0.93067 0.0
C434 C 0.37248 0.28736 0.87685 0.0
C435 C 0.41377 0.30997 0.95262 0.0
C436 C 0.37611 0.25122 0.88346 0.0
O437 O 0.38877 0.27421 0.98802 0.0
O438 O 0.36089 0.25609 0.98953 0.0
C439 C 0.33956 0.27119 0.00618 0.0
N440 N 0.33789 0.26552 0.96156 0.0
C441 C 0.31603 0.27148 0.94611 0.0
C442 C 0.31743 0.27727 0.99201 0.0
C443 C 0.32927 0.27715 0.02214 0.0
C444 C 0.32658 0.26562 0.93224 0.0
H445 H 0.3487 0.27119 0.02937 0.0
C446 C 0.37549 0.26284 0.0079 0.0
O447 O 0.41597 0.29887 0.93251 0.0
O448 O 0.39846 0.3068 0.95752 0.0
N449 N 0.33761 0.25576 0.87615 0.0
C450 C 0.3383 0.25034 0.83241 0.0
C451 C 0.32745 0.24996 0.79776 0.0
C452 C 0.31596 0.25504 0.80848 0.0
C453 C 0.31533 0.26037 0.85389 0.0
C454 C 0.32633 0.26032 0.88711 0.0
H455 H 0.34711 0.24643 0.82394 0.0
O456 O 0.38838 0.29505 0.86627 0.0
O457 O 0.36805 0.27902 0.9158 0.0
O458 O 0.38861 0.26556 0.89101 0.0
O459 O 0.36115 0.24654 0.89724 0.0
C460 C 0.30443 0.26598 0.86727 0.0
C461 C 0.3048 0.27156 0.91332 0.0
H462 H 0.30958 0.28196 0.00438 0.0
H463 H 0.33049 0.28169 0.05753 0.0
H464 H 0.32801 0.24583 0.7628 0.0
H465 H 0.30774 0.2549 0.78153 0.0
H466 H 0.29587 0.26626 0.84225 0.0
H467 H 0.29651 0.27605 0.92302 0.0
Mn468 Mn 0.84614 0.14263 0.90174 0.0
Mn469 Mn 0.84169 0.17518 0.92464 0.0
C470 C 0.82509 0.13944 0.95223 0.0
C471 C 0.84023 0.12095 0.85191 0.0
C472 C 0.86977 0.17086 0.96258 0.0
O473 O 0.86013 0.15939 0.85115 0.0
O474 O 0.85201 0.17803 0.86158 0.0
C475 C 0.81682 0.17133 0.85396 0.0
N476 N 0.82151 0.17273 0.89954 0.0
C477 C 0.79651 0.17232 0.92559 0.0
C478 C 0.79145 0.17099 0.87889 0.0
C479 C 0.80163 0.17044 0.84295 0.0
C480 C 0.81184 0.17331 0.9344 0.0
H481 H 0.8246 0.17088 0.82628 0.0
C482 C 0.85965 0.17211 0.83843 0.0
O483 O 0.85321 0.12704 0.87906 0.0
O484 O 0.83088 0.12748 0.85374 0.0
N485 N 0.83163 0.17368 0.98474 0.0
C486 C 0.83751 0.17336 0.02802 0.0
C487 C 0.82828 0.17285 0.06796 0.0
C488 C 0.81318 0.17279 0.063 0.0
C489 C 0.80742 0.17321 0.0181 0.0
C490 C 0.81718 0.17376 0.97959 0.0
H491 H 0.84911 0.1734 0.03207 0.0
O492 O 0.82999 0.12878 0.95234 0.0
O493 O 0.83241 0.15138 0.92191 0.0
O494 O 0.8642 0.15602 0.95003 0.0
O495 O 0.86279 0.17913 0.95262 0.0
C496 C 0.79214 0.17263 0.01004 0.0
C497 C 0.78671 0.17222 0.96381 0.0
H498 H 0.77968 0.17015 0.87027 0.0
H499 H 0.79776 0.16931 0.80685 0.0
H500 H 0.83278 0.17247 0.10249 0.0
H501 H 0.80602 0.17224 0.09388 0.0
H502 H 0.78431 0.17217 0.03914 0.0
H503 H 0.77478 0.17146 0.95808 0.0
Mn504 Mn 0.9787 0.72608 0.90568 0.0
Mn505 Mn 0.99214 0.76669 0.89827 0.0
C506 C 0.00455 0.74371 0.87363 0.0
C507 C 0.97571 0.70414 0.94995 0.0
C508 C 0.96744 0.74138 0.83058 0.0
O509 O 0.96256 0.72847 0.94778 0.0
O510 O 0.97311 0.75582 0.94426 0.0
C511 C 0.00581 0.77571 0.99391 0.0
N512 N 0.00808 0.77779 0.94667 0.0
C513 C 0.03714 0.79867 0.95562 0.0
C514 C 0.03507 0.79683 0.00438 0.0
C515 C 0.01935 0.78527 0.02359 0.0
C516 C 0.02318 0.78881 0.92782 0.0
H517 H 0.99376 0.76678 0.00882 0.0
C518 C 0.96247 0.74139 0.95977 0.0
O519 O 0.96594 0.70167 0.91469 0.0
O520 O 0.98697 0.71922 0.95946 0.0
N521 N 0.01051 0.77906 0.85568 0.0
C522 C 0.01046 0.77925 0.80797 0.0
C523 C 0.02526 0.79011 0.78326 0.0
C524 C 0.03991 0.80078 0.80783 0.0
C525 C 0.03957 0.80063 0.85692 0.0
C526 C 0.02441 0.78964 0.87964 0.0
H527 H -0.00072 0.77102 0.78889 0.0
O528 O -0.00277 0.72801 0.86589 0.0
O529 O -0.00322 0.74864 0.90151 0.0
O530 O 0.9672 0.72885 0.84847 0.0
O531 O 0.97616 0.75601 0.84661 0.0
C532 C 0.05374 0.81079 0.8842 0.0
C533 C 0.05253 0.80978 0.93351 0.0
H534 H 0.0455 0.80416 0.02739 0.0
H535 H 0.01767 0.78373 0.06118 0.0
H536 H 0.0254 0.79017 0.74537 0.0
H537 H 0.05135 0.80901 0.78865 0.0
H538 H 0.06565 0.81934 0.8676 0.0
H539 H 0.06355 0.81757 0.9541 0.0
Mn540 Mn 0.39508 0.1495 0.42513 0.0
Mn541 Mn 0.35407 0.13771 0.4327 0.0
C542 C 0.37605 0.1291 0.37681 0.0
C543 C 0.41735 0.14731 0.45252 0.0
C544 C 0.38055 0.16944 0.38578 0.0
O545 O 0.39316 0.159 0.48699 0.0
O546 O 0.36515 0.14807 0.49264 0.0
C547 C 0.34297 0.11154 0.50473 0.0
N548 N 0.34159 0.11635 0.46088 0.0
C549 C 0.31926 0.08901 0.44237 0.0
C550 C 0.32036 0.08378 0.48746 0.0
C551 C 0.33229 0.09509 0.51873 0.0
C552 C 0.33016 0.10558 0.4305 0.0
H553 H 0.35219 0.12017 0.52878 0.0
C554 C 0.38 0.15639 0.50924 0.0
O555 O 0.41994 0.16068 0.43178 0.0
O556 O 0.40193 0.13539 0.45748 0.0
N557 N 0.34186 0.12735 0.37709 0.0
C558 C 0.34305 0.13415 0.3341 0.0
C559 C 0.33231 0.12435 0.29828 0.0
C560 C 0.32043 0.1077 0.30709 0.0
C561 C 0.31932 0.10102 0.35174 0.0
C562 C 0.33024 0.11142 0.38618 0.0
H563 H 0.35218 0.14693 0.32707 0.0
O564 O 0.39194 0.13697 0.36605 0.0
O565 O 0.37191 0.13324 0.41585 0.0
O566 O 0.39279 0.16698 0.38959 0.0
O567 O 0.36582 0.15967 0.40224 0.0
C568 C 0.30804 0.08436 0.36315 0.0
C569 C 0.30802 0.07836 0.40842 0.0
H570 H 0.31223 0.07108 0.49829 0.0
H571 H 0.33329 0.09112 0.55349 0.0
H572 H 0.33325 0.1296 0.2639 0.0
H573 H 0.3123 0.10014 0.27922 0.0
H574 H 0.29951 0.07601 0.33716 0.0
H575 H 0.29946 0.06548 0.41657 0.0
Mn576 Mn 0.977 0.29915 0.39589 0.0
Mn577 Mn 0.94064 0.29884 0.38391 0.0
C578 C 0.9721 0.31649 0.44059 0.0
C579 C 0.00424 0.30891 0.36926 0.0
C580 C 0.94372 0.27347 0.44116 0.0
O581 O 0.96753 0.2863 0.33651 0.0
O582 O 0.94417 0.28773 0.32932 0.0
C583 C 0.95099 0.32136 0.30217 0.0
N584 N 0.94515 0.31761 0.3471 0.0
C585 C 0.94438 0.34262 0.35394 0.0
C586 C 0.95027 0.34669 0.30762 0.0
C587 C 0.95361 0.33602 0.28165 0.0
C588 C 0.94196 0.32782 0.37245 0.0
H589 H 0.95369 0.31325 0.2822 0.0
C590 C 0.95429 0.28313 0.31494 0.0
O591 O 0.99618 0.29512 0.39256 0.0
O592 O 0.99637 0.31671 0.36125 0.0
N593 N 0.93534 0.30911 0.43358 0.0
C594 C 0.92958 0.3033 0.47767 0.0
C595 C 0.92567 0.31254 0.50826 0.0
C596 C 0.92751 0.32754 0.49304 0.0
C597 C 0.93301 0.33303 0.4471 0.0
C598 C 0.93657 0.32322 0.41806 0.0
H599 H 0.92817 0.2918 0.4896 0.0
O600 O 0.98356 0.3132 0.45237 0.0
O601 O 0.9643 0.3101 0.40158 0.0
O602 O 0.95944 0.27938 0.4343 0.0
O603 O 0.93549 0.27965 0.42342 0.0
C604 C 0.93526 0.34793 0.42912 0.0
C605 C 0.94097 0.35274 0.38261 0.0
H606 H 0.95236 0.35802 0.29172 0.0
H607 H 0.95824 0.33912 0.24596 0.0
H608 H 0.92133 0.30817 0.54357 0.0
H609 H 0.92465 0.33472 0.51689 0.0
H610 H 0.93272 0.35584 0.45086 0.0
H611 H 0.94275 0.36428 0.36927 0.0
Mn612 Mn 0.83088 0.72309 0.40455 0.0
Mn613 Mn 0.82531 0.68491 0.40498 0.0
C614 C 0.80939 0.70282 0.44846 0.0
C615 C 0.82684 0.74234 0.36536 0.0
C616 C 0.8526 0.7136 0.45929 0.0
O617 O 0.8453 0.72333 0.35073 0.0
O618 O 0.83776 0.69662 0.34682 0.0
C619 C 0.80228 0.67081 0.3249 0.0
N620 N 0.80558 0.67026 0.37101 0.0
C621 C 0.7786 0.64583 0.38367 0.0
C622 C 0.77496 0.64605 0.33623 0.0
C623 C 0.78684 0.65862 0.30675 0.0
C624 C 0.79423 0.65826 0.39971 0.0
H625 H 0.81135 0.6805 0.3022 0.0
C626 C 0.84561 0.71142 0.3309 0.0
O627 O 0.83926 0.74696 0.39404 0.0
O628 O 0.81669 0.72663 0.36051 0.0
N629 N 0.81337 0.6721 0.45902 0.0
C630 C 0.81858 0.67398 0.50423 0.0
C631 C 0.808 0.66261 0.53843 0.0
C632 C 0.79224 0.64936 0.52575 0.0
C633 C 0.78727 0.64752 0.47888 0.0
C634 C 0.79841 0.65915 0.44625 0.0
H635 H 0.83068 0.68414 0.51423 0.0
O636 O 0.81441 0.7182 0.45625 0.0
O637 O 0.8166 0.69979 0.41374 0.0
O638 O 0.84788 0.7239 0.45102 0.0
O639 O 0.84565 0.69914 0.44179 0.0
C640 C 0.77157 0.63476 0.46338 0.0
C641 C 0.76723 0.63393 0.41583 0.0
H642 H 0.76304 0.63672 0.32215 0.0
H643 H 0.78409 0.65893 0.27016 0.0
H644 H 0.81195 0.6641 0.57452 0.0
H645 H 0.78404 0.64072 0.55232 0.0
H646 H 0.76266 0.62564 0.48785 0.0
H647 H 0.75505 0.62418 0.40445 0.0
C648 C 0.04536 0.50232 0.9103 0.0
C649 C 0.02951 0.49253 0.88991 0.0
C650 C 0.0469 0.51025 0.95274 0.0
C651 C 0.02337 0.51108 0.05679 0.0
H652 H 0.05716 0.55757 0.05761 0.0
C653 C 0.02151 0.5575 0.18378 0.0
C654 C 0.03673 0.57126 0.19788 0.0
C655 C 0.02147 0.54616 0.15238 0.0
C656 C 0.0479 0.54454 0.05854 0.0
H657 H 0.00278 0.48291 0.89929 0.0
H658 H 0.00554 0.49692 0.97326 0.0
H659 H 0.05544 0.54088 0.99085 0.0
H660 H 0.06388 0.58313 0.19282 0.0
H661 H 0.06378 0.56313 0.13888 0.0
H662 H 0.01565 0.51484 0.12429 0.0
C663 C 0.01674 0.49834 0.9564 0.0
C664 C 0.04689 0.53497 0.02014 0.0
C665 C 0.01519 0.49043 0.91382 0.0
C666 C 0.05191 0.57282 0.18218 0.0
C667 C 0.05187 0.56139 0.15107 0.0
C668 C 0.02443 0.52064 0.09542 0.0
C669 C 0.03264 0.50855 0.97587 0.0
C670 C 0.03446 0.51821 0.01852 0.0
C671 C 0.03664 0.54822 0.1347 0.0
C672 C 0.03654 0.53755 0.09637 0.0
H673 H 0.05667 0.50413 0.89315 0.0
H674 H 0.05929 0.51788 0.96725 0.0
H675 H 0.0138 0.49813 0.05669 0.0
H676 H 0.00956 0.55585 0.19527 0.0
H677 H 0.00951 0.53624 0.14023 0.0
C678 C 0.60712 0.59798 0.88411 0.0
C679 C 0.59877 0.60143 0.84916 0.0
C680 C 0.59805 0.58695 0.92032 0.0
C681 C 0.55674 0.56756 0.98056 0.0
H682 H 0.57115 0.53882 0.03193 0.0
C683 C 0.53228 0.5098 0.11951 0.0
C684 C 0.52611 0.51559 0.15527 0.0
C685 C 0.54086 0.51981 0.08101 0.0
C686 C 0.56683 0.54662 0.01764 0.0
H687 H 0.57433 0.59567 0.824 0.0
H688 H 0.55851 0.57609 0.88629 0.0
H689 H 0.58632 0.55658 0.96554 0.0
H690 H 0.5243 0.53647 0.17904 0.0
H691 H 0.53964 0.55405 0.11271 0.0
H692 H 0.53692 0.55722 0.03152 0.0
C693 C 0.57209 0.58224 0.88654 0.0
C694 C 0.57568 0.55698 0.97999 0.0
C695 C 0.58115 0.5934 0.85068 0.0
C696 C 0.52875 0.53159 0.15185 0.0
C697 C 0.53748 0.54164 0.11366 0.0
C698 C 0.5478 0.5571 0.01785 0.0
C699 C 0.58043 0.579 0.92204 0.0
C700 C 0.5708 0.56765 0.96121 0.0
C701 C 0.54359 0.53586 0.07771 0.0
C702 C 0.55282 0.5466 0.03708 0.0
H703 H 0.6207 0.60406 0.88408 0.0
H704 H 0.6049 0.58494 0.94748 0.0
H705 H 0.55276 0.57577 0.9674 0.0
H706 H 0.53033 0.49748 0.12098 0.0
H707 H 0.54517 0.51489 0.05358 0.0
C708 C 0.60791 0.06367 0.13075 0.0
C709 C 0.61805 0.07944 0.14974 0.0
C710 C 0.59617 0.06102 0.0964 0.0
C711 C 0.58691 0.08308 0.00628 0.0
H712 H 0.54342 0.04284 0.00489 0.0
C713 C 0.53579 0.07051 0.86996 0.0
C714 C 0.52787 0.05473 0.84989 0.0
C715 C 0.54638 0.07412 0.90829 0.0
C716 C 0.55556 0.0541 0.00474 0.0
H717 H 0.62348 0.10472 0.14814 0.0
H718 H 0.60288 0.1 0.08882 0.0
H719 H 0.56247 0.04789 0.06943 0.0
H720 H 0.52498 0.03042 0.85442 0.0
H721 H 0.5434 0.03677 0.92071 0.0
H722 H 0.57999 0.08921 0.94135 0.0
C723 C 0.60421 0.08976 0.09994 0.0
C724 C 0.56647 0.05698 0.04161 0.0
C725 C 0.61596 0.09242 0.13417 0.0
C726 C 0.53083 0.0427 0.86889 0.0
C727 C 0.5413 0.04628 0.9072 0.0
C728 C 0.57596 0.08022 0.96945 0.0
C729 C 0.59429 0.07407 0.08037 0.0
C730 C 0.58234 0.0714 0.04251 0.0
C731 C 0.54913 0.06198 0.92742 0.0
C732 C 0.56027 0.0656 0.96802 0.0
H733 H 0.6092 0.0534 0.14178 0.0
H734 H 0.58886 0.04883 0.08158 0.0
H735 H 0.59914 0.09422 0.00565 0.0
H736 H 0.53378 0.08006 0.85626 0.0
H737 H 0.55222 0.08631 0.92339 0.0
C738 C 0.62013 0.0717 0.38384 0.0
C739 C 0.62757 0.08606 0.35607 0.0
C740 C 0.60998 0.0701 0.42202 0.0
C741 C 0.58253 0.08435 0.46551 0.0
H742 H 0.58272 0.06179 0.57891 0.0
C743 C 0.5375 0.07181 0.62224 0.0
C744 C 0.52996 0.05598 0.64252 0.0
C745 C 0.55027 0.0768 0.58876 0.0
C746 C 0.58246 0.06801 0.54732 0.0
H747 H 0.6306 0.11028 0.34761 0.0
H748 H 0.61267 0.10744 0.41495 0.0
H749 H 0.60465 0.0693 0.51972 0.0
H750 H 0.52976 0.03288 0.64275 0.0
H751 H 0.55205 0.04162 0.58396 0.0
H752 H 0.56018 0.08282 0.49292 0.0
C753 C 0.6147 0.0974 0.4066 0.0
C754 C 0.59503 0.07236 0.51355 0.0
C755 C 0.62501 0.09905 0.36829 0.0
C756 C 0.53532 0.04516 0.62796 0.0
C757 C 0.54816 0.0502 0.59457 0.0
C758 C 0.56997 0.08003 0.4994 0.0
C759 C 0.60697 0.08282 0.43351 0.0
C760 C 0.595 0.08026 0.47188 0.0
C761 C 0.55583 0.06611 0.57493 0.0
C762 C 0.56964 0.07154 0.5402 0.0
H763 H 0.62193 0.06148 0.37572 0.0
H764 H 0.60402 0.05863 0.44162 0.0
H765 H 0.58207 0.09024 0.43349 0.0
H766 H 0.53366 0.08046 0.63249 0.0
H767 H 0.55603 0.08915 0.57439 0.0
C768 C 0.05792 0.59795 0.41056 0.0
C769 C 0.04221 0.59462 0.39425 0.0
C770 C 0.0591 0.59112 0.4527 0.0
C771 C 0.03585 0.57001 0.56142 0.0
H772 H 0.06051 0.54706 0.55118 0.0
C773 C 0.02153 0.5145 0.67675 0.0
C774 C 0.03471 0.51205 0.6898 0.0
C775 C 0.02456 0.52751 0.64717 0.0
C776 C 0.05386 0.55368 0.55514 0.0
H777 H 0.01555 0.58226 0.4109 0.0
H778 H 0.01764 0.57027 0.48404 0.0
H779 H 0.06215 0.56505 0.4878 0.0
H780 H 0.06157 0.52188 0.68346 0.0
H781 H 0.06684 0.54469 0.63205 0.0
H782 H 0.02717 0.55824 0.62825 0.0
C783 C 0.02904 0.57822 0.46436 0.0
C784 C 0.0548 0.56399 0.51875 0.0
C785 C 0.02784 0.58498 0.42218 0.0
C786 C 0.05109 0.5233 0.67384 0.0
C787 C 0.05412 0.53635 0.64426 0.0
C788 C 0.03495 0.55973 0.5979 0.0
C789 C 0.04463 0.58091 0.47954 0.0
C790 C 0.04546 0.57193 0.52099 0.0
C791 C 0.04084 0.53844 0.62999 0.0
C792 C 0.0436 0.55111 0.5946 0.0
H793 H 0.06928 0.60542 0.39014 0.0
H794 H 0.07131 0.59356 0.46384 0.0
H795 H 0.02872 0.57619 0.56437 0.0
H796 H 0.00875 0.5061 0.68831 0.0
H797 H 0.014 0.52861 0.63632 0.0
C798 C 0.61299 0.59234 0.63027 0.0
C799 C 0.60548 0.60152 0.64332 0.0
C800 C 0.60656 0.58112 0.59354 0.0
C801 C 0.58039 0.57115 0.48875 0.0
H802 H 0.57594 0.52813 0.50035 0.0
C803 C 0.53911 0.50482 0.39744 0.0
C804 C 0.54025 0.51038 0.35132 0.0
C805 C 0.55011 0.51546 0.43127 0.0
C806 C 0.57714 0.5401 0.4966 0.0
H807 H 0.58526 0.60601 0.62788 0.0
H808 H 0.57393 0.58629 0.56408 0.0
H809 H 0.58813 0.54787 0.56426 0.0
H810 H 0.55423 0.53061 0.3029 0.0
H811 H 0.57398 0.54898 0.3613 0.0
H812 H 0.5688 0.56328 0.42223 0.0
C813 C 0.58495 0.58796 0.58197 0.0
C814 C 0.58422 0.55145 0.53301 0.0
C815 C 0.59139 0.5992 0.61871 0.0
C816 C 0.55328 0.52612 0.33839 0.0
C817 C 0.56441 0.53665 0.37191 0.0
C818 C 0.57332 0.55984 0.4525 0.0
C819 C 0.59249 0.57883 0.56895 0.0
C820 C 0.58571 0.56701 0.52967 0.0
C821 C 0.5624 0.53174 0.41917 0.0
C822 C 0.57146 0.54413 0.45612 0.0
H823 H 0.62393 0.59385 0.64825 0.0
H824 H 0.61276 0.57442 0.58396 0.0
H825 H 0.58158 0.58311 0.48483 0.0
H826 H 0.52889 0.49279 0.40809 0.0
H827 H 0.54814 0.51133 0.46738 0.0
C828 C 0.74919 0.86656 0.227 0.0
C829 C 0.73812 0.85199 0.20328 0.0
C830 C 0.74372 0.87148 0.266 0.0
C831 C 0.70613 0.86761 0.3212 0.0
H832 H 0.73537 0.8863 0.42801 0.0
C833 C 0.68884 0.89353 0.48245 0.0
C834 C 0.70176 0.90895 0.49796 0.0
C835 C 0.69222 0.8846 0.44954 0.0
C836 C 0.7271 0.88116 0.39837 0.0
H837 H 0.71259 0.83113 0.20221 0.0
H838 H 0.70305 0.83985 0.2705 0.0
H839 H 0.7432 0.87413 0.36469 0.0
H840 H 0.72839 0.92699 0.49113 0.0
H841 H 0.73417 0.91153 0.43376 0.0
H842 H 0.69023 0.87503 0.35442 0.0
C843 C 0.71595 0.84742 0.25861 0.0
C844 C 0.73157 0.8742 0.36217 0.0
C845 C 0.72145 0.84242 0.21964 0.0
C846 C 0.71812 0.91516 0.48009 0.0
C847 C 0.72148 0.90623 0.44743 0.0
C848 C 0.70165 0.87461 0.35746 0.0
C849 C 0.72706 0.862 0.28216 0.0
C850 C 0.72133 0.86769 0.32274 0.0
C851 C 0.70859 0.89087 0.43174 0.0
C852 C 0.71229 0.8818 0.39588 0.0
H853 H 0.76212 0.87424 0.21549 0.0
H854 H 0.7525 0.88291 0.28301 0.0
H855 H 0.69805 0.86278 0.29106 0.0
H856 H 0.67609 0.88838 0.49545 0.0
H857 H 0.68205 0.87275 0.43824 0.0
C858 C 0.18634 0.84472 0.42931 0.0
C859 C 0.19239 0.8362 0.45516 0.0
C860 C 0.19346 0.85167 0.38595 0.0
C861 C 0.23332 0.86963 0.32459 0.0
H862 H 0.20773 0.87144 0.22046 0.0
C863 C 0.26585 0.91339 0.16844 0.0
C864 C 0.25856 0.92268 0.15516 0.0
C865 C 0.25718 0.89974 0.19802 0.0
C866 C 0.21504 0.87105 0.24927 0.0
H867 H 0.21016 0.82766 0.45485 0.0
H868 H 0.22274 0.84003 0.37901 0.0
H869 H 0.19317 0.85241 0.28543 0.0
H870 H 0.23625 0.92463 0.16165 0.0
H871 H 0.22135 0.9011 0.21393 0.0
H872 H 0.25509 0.88882 0.28986 0.0
C873 C 0.2125 0.84131 0.39257 0.0
C874 C 0.20672 0.86013 0.28629 0.0
C875 C 0.20528 0.83422 0.43587 0.0
C876 C 0.24225 0.91775 0.1711 0.0
C877 C 0.23363 0.90416 0.2008 0.0
C878 C 0.24163 0.88061 0.28771 0.0
C879 C 0.20683 0.85033 0.36761 0.0
C880 C 0.21574 0.85967 0.32489 0.0
C881 C 0.24108 0.89513 0.21506 0.0
C882 C 0.23253 0.88177 0.25033 0.0
H883 H 0.17633 0.84634 0.44297 0.0
H884 H 0.18896 0.85872 0.36772 0.0
H885 H 0.24056 0.86966 0.35417 0.0
H886 H 0.27833 0.91674 0.15642 0.0
H887 H 0.26317 0.8929 0.20796 0.0
C888 C 0.24902 0.37664 0.48476 0.0
C889 C 0.26503 0.37862 0.47963 0.0
C890 C 0.24365 0.38437 0.45363 0.0
C891 C 0.26013 0.41758 0.36207 0.0
H892 H 0.21312 0.39639 0.32936 0.0
C893 C 0.23082 0.42327 0.19151 0.0
C894 C 0.21596 0.42373 0.19563 0.0
C895 C 0.23928 0.4232 0.23153 0.0
C896 C 0.22624 0.40261 0.33897 0.0
H897 H 0.28771 0.38955 0.43708 0.0
H898 H 0.27795 0.40209 0.38077 0.0
H899 H 0.22203 0.38338 0.38624 0.0
H900 H 0.19891 0.42575 0.24372 0.0
H901 H 0.21351 0.42517 0.3141 0.0
H902 H 0.26429 0.43613 0.31134 0.0
C903 C 0.26979 0.39527 0.40997 0.0
C904 C 0.23139 0.39516 0.37161 0.0
C905 C 0.27531 0.38788 0.44178 0.0
C906 C 0.21056 0.42574 0.23986 0.0
C907 C 0.21879 0.42526 0.28 0.0
C908 C 0.255 0.42483 0.32853 0.0
C909 C 0.25403 0.39394 0.41603 0.0
C910 C 0.24844 0.4024 0.38317 0.0
C911 C 0.23271 0.42315 0.27605 0.0
C912 C 0.23803 0.41731 0.3165 0.0
H913 H 0.24098 0.36981 0.51421 0.0
H914 H 0.23156 0.38323 0.46004 0.0
H915 H 0.2733 0.42377 0.37088 0.0
H916 H 0.23499 0.42146 0.15764 0.0
H917 H 0.2499 0.42142 0.22771 0.0
C918 C 0.21694 0.40091 0.98455 0.0
C919 C 0.20943 0.41052 0.9897 0.0
C920 C 0.22672 0.40274 0.94514 0.0
C921 C 0.23027 0.41275 0.82273 0.0
H922 H 0.27107 0.41089 0.8308 0.0
C923 C 0.27864 0.40202 0.6985 0.0
C924 C 0.26667 0.38724 0.67728 0.0
C925 C 0.2737 0.40942 0.73238 0.0
C926 C 0.25989 0.41176 0.82781 0.0
H927 H 0.20645 0.42977 0.95798 0.0
H928 H 0.22335 0.43265 0.88811 0.0
H929 H 0.25933 0.41604 0.90123 0.0
H930 H 0.24007 0.3691 0.67317 0.0
H931 H 0.23151 0.38201 0.73215 0.0
H932 H 0.23036 0.4076 0.74971 0.0
C933 C 0.22174 0.42386 0.91503 0.0
C934 C 0.25313 0.41457 0.86811 0.0
C935 C 0.21212 0.42221 0.95494 0.0
C936 C 0.24962 0.38041 0.68912 0.0
C937 C 0.24468 0.3879 0.72253 0.0
C938 C 0.23696 0.40979 0.78245 0.0
C939 C 0.22905 0.41407 0.90979 0.0
C940 C 0.23795 0.41451 0.86617 0.0
C941 C 0.2567 0.40229 0.74509 0.0
C942 C 0.2515 0.4087 0.785 0.0
H943 H 0.21519 0.39189 0.01088 0.0
H944 H 0.23201 0.39486 0.94159 0.0
H945 H 0.21852 0.41258 0.82039 0.0
H946 H 0.29188 0.40761 0.69006 0.0
H947 H 0.28318 0.42054 0.74927 0.0
C948 C 0.72396 0.85316 0.98301 0.0
C949 C 0.74078 0.86067 -0.0028 0.0
C950 C 0.71918 0.86049 0.949 0.0
C951 C 0.73214 0.89993 0.88972 0.0
H952 H 0.70166 0.87179 0.79366 0.0
C953 C 0.7203 0.92533 0.72043 0.0
C954 C 0.70383 0.91756 0.70314 0.0
C955 C 0.72421 0.91873 0.75853 0.0
C956 C 0.70997 0.87978 0.82061 0.0
H957 H 0.76575 0.88194 0.98692 0.0
H958 H 0.75737 0.8947 0.92695 0.0
H959 H 0.71001 0.85976 0.85547 0.0
H960 H 0.67848 0.89689 0.71323 0.0
H961 H 0.68535 0.88538 0.7801 0.0
H962 H 0.7322 0.91997 0.85446 0.0
C963 C 0.74788 0.88318 0.94271 0.0
C964 C 0.71479 0.8729 0.85598 0.0
C965 C 0.75269 0.87584 0.9769 0.0
C966 C 0.6913 0.90315 0.72547 0.0
C967 C 0.69524 0.89652 0.76363 0.0
C968 C 0.72732 0.90681 0.8543 0.0
C969 C 0.73109 0.8755 0.92818 0.0
C970 C 0.72596 0.8829 0.89085 0.0
C971 C 0.71177 0.90419 0.78032 0.0
C972 C 0.71624 0.89681 0.81926 0.0
H973 H 0.71439 0.84153 -0.00194 0.0
H974 H 0.7061 0.85441 0.93915 0.0
H975 H 0.74056 0.90791 0.91649 0.0
H976 H 0.7303 0.93647 0.70426 0.0
H977 H 0.7371 0.92481 0.77017 0.0
C978 C 0.28197 0.93408 0.93351 0.0
C979 C 0.2712 0.93855 0.95544 0.0
C980 C 0.27685 0.92406 0.89409 0.0
C981 C 0.24609 0.9088 0.79892 0.0
H982 H 0.25552 0.87321 0.79384 0.0
C983 C 0.21803 0.8441 0.6971 0.0
C984 C 0.21576 0.84946 0.65346 0.0
C985 C 0.22811 0.85562 0.73072 0.0
C986 C 0.25283 0.8831 0.79475 0.0
H987 H 0.24673 0.93631 0.95218 0.0
H988 H 0.23771 0.91864 0.88327 0.0
H989 H 0.26543 0.89219 0.85985 0.0
H990 H 0.22355 0.87069 0.60849 0.0
H991 H 0.24167 0.89073 0.66631 0.0
H992 H 0.23292 0.89941 0.73497 0.0
C993 C 0.2502 0.92305 0.89657 0.0
C994 C 0.2586 0.89405 0.83233 0.0
C995 C 0.25534 0.93313 0.93611 0.0
C996 C 0.22505 0.8663 0.64211 0.0
C997 C 0.23526 0.87775 0.67536 0.0
C998 C 0.24033 0.89789 0.76143 0.0
C999 C 0.26084 0.91824 0.87555 0.0
C1000 C 0.25517 0.90694 0.83497 0.0
C1001 C 0.23614 0.8726 0.72085 0.0
C1002 C 0.24354 0.88486 0.759 0.0
H1003 H 0.29437 0.93817 0.94708 0.0
H1004 H 0.28546 0.92085 0.87816 0.0
H1005 H 0.24339 0.91869 0.7997 0.0
H1006 H 0.21082 0.83118 0.7068 0.0
H1007 H 0.22851 0.85125 0.76548 0.0
C1008 C 0.36524 0.22439 0.84167 0.0
C1009 C 0.37891 0.23963 0.85537 0.0
C1010 C 0.36767 0.21406 0.81191 0.0
C1011 C 0.37653 0.19127 0.76163 0.0
H1012 H 0.40461 0.21302 0.65269 0.0
C1013 C 0.39797 0.17539 0.5728 0.0
C1014 C 0.38197 0.16376 0.55616 0.0
C1015 C 0.39963 0.18335 0.61536 0.0
C1016 C 0.397 0.20674 0.68332 0.0
H1017 H 0.40601 0.25556 0.85028 0.0
H1018 H 0.41021 0.23741 0.79861 0.0
H1019 H 0.40391 0.22948 0.71719 0.0
H1020 H 0.35526 0.15077 0.57248 0.0
H1021 H 0.3582 0.16474 0.64629 0.0
H1022 H 0.36912 0.16853 0.72664 0.0
C1023 C 0.39759 0.23361 0.81037 0.0
C1024 C 0.3966 0.21618 0.72034 0.0
C1025 C 0.39516 0.24398 0.8401 0.0
C1026 C 0.36777 0.15975 0.584 0.0
C1027 C 0.36945 0.16765 0.62659 0.0
C1028 C 0.3769 0.18183 0.72452 0.0
C1029 C 0.38383 0.21868 0.79525 0.0
C1030 C 0.38603 0.20857 0.75935 0.0
C1031 C 0.38537 0.17976 0.64227 0.0
C1032 C 0.38681 0.1895 0.68448 0.0
H1033 H 0.35254 0.22062 0.85271 0.0
H1034 H 0.35676 0.20275 0.80042 0.0
H1035 H 0.3685 0.18504 0.79162 0.0
H1036 H 0.40919 0.17871 0.55239 0.0
H1037 H 0.41207 0.19253 0.62684 0.0
C1038 C 0.86365 0.19079 0.77173 0.0
C1039 C 0.86827 0.18054 0.79452 0.0
C1040 C 0.87209 0.19935 0.73128 0.0
C1041 C 0.90069 0.20174 0.6361 0.0
H1042 H 0.90824 0.24596 0.62417 0.0
C1043 C 0.94294 0.25243 0.49682 0.0
C1044 C 0.9347 0.25962 0.47463 0.0
C1045 C 0.93499 0.24102 0.53322 0.0
C1046 C 0.90617 0.23361 0.62707 0.0
H1047 H 0.88514 0.17096 0.79234 0.0
H1048 H 0.9003 0.18639 0.72206 0.0
H1049 H 0.8946 0.2299 0.69435 0.0
H1050 H 0.9112 0.25954 0.47127 0.0
H1051 H 0.89763 0.23996 0.53506 0.0
H1052 H 0.91278 0.20589 0.56865 0.0
C1053 C 0.88993 0.18755 0.73512 0.0
C1054 C 0.89828 0.22436 0.66706 0.0
C1055 C 0.8813 0.17877 0.77544 0.0
C1056 C 0.91803 0.25443 0.48776 0.0
C1057 C 0.91022 0.24322 0.52432 0.0
C1058 C 0.90885 0.21115 0.59614 0.0
C1059 C 0.88555 0.19811 0.71298 0.0
C1060 C 0.89508 0.20818 0.67164 0.0
C1061 C 0.91879 0.23679 0.54812 0.0
C1062 C 0.9113 0.22701 0.59107 0.0
H1063 H 0.85348 0.19222 0.7851 0.0
H1064 H 0.86806 0.207 0.71438 0.0
H1065 H 0.89837 0.18929 0.63851 0.0
H1066 H 0.95573 0.25607 0.48736 0.0
H1067 H 0.94179 0.23616 0.55127 0.0
C1068 C 0.94294 0.72335 0.77996 0.0
C1069 C 0.95695 0.7389 0.78929 0.0
C1070 C 0.93266 0.72119 0.74193 0.0
C1071 C 0.9224 0.74498 0.6584 0.0
H1072 H 0.89953 0.70309 0.59428 0.0
C1073 C 0.87658 0.7113 0.48881 0.0
C1074 C 0.86634 0.71823 0.49253 0.0
C1075 C 0.88887 0.71479 0.52207 0.0
C1076 C 0.90602 0.71499 0.61114 0.0
H1077 H 0.97138 0.76429 0.7654 0.0
H1078 H 0.95407 0.76035 0.69786 0.0
H1079 H 0.91905 0.70729 0.65598 0.0
H1080 H 0.86091 0.73427 0.53364 0.0
H1081 H 0.88179 0.7398 0.59294 0.0
H1082 H 0.91001 0.75296 0.61198 0.0
C1083 C 0.95059 0.74992 0.72073 0.0
C1084 C 0.91702 0.71729 0.6473 0.0
C1085 C 0.96065 0.75216 0.7593 0.0
C1086 C 0.86877 0.7289 0.5297 0.0
C1087 C 0.88082 0.73212 0.56357 0.0
C1088 C 0.91165 0.74279 0.62162 0.0
C1089 C 0.93635 0.73445 0.71179 0.0
C1090 C 0.9252 0.73224 0.67184 0.0
C1091 C 0.89094 0.72499 0.56044 0.0
C1092 C 0.90314 0.72769 0.59787 0.0
H1093 H 0.93966 0.71292 0.80271 0.0
H1094 H 0.92163 0.70917 0.73686 0.0
H1095 H 0.92826 0.7566 0.67678 0.0
H1096 H 0.87506 0.70314 0.46016 0.0
H1097 H 0.89668 0.7094 0.51774 0.0
C1098 C 0.85676 0.70251 0.2638 0.0
C1099 C 0.85584 0.71506 0.28761 0.0
C1100 C 0.86705 0.70619 0.22418 0.0
C1101 C 0.90479 0.74022 0.16974 0.0
H1102 H 0.89113 0.7115 0.06182 0.0
C1103 C 0.94873 0.75315 0.01001 0.0
C1104 C 0.94935 0.73944 0.99353 0.0
C1105 C 0.93637 0.75109 0.0424 0.0
C1106 C 0.89513 0.7196 0.09181 0.0
H1107 H 0.86466 0.74128 0.28741 0.0
H1108 H 0.88253 0.7476 0.21835 0.0
H1109 H 0.87097 0.70596 0.12508 0.0
H1110 H 0.93733 0.71276 -0.00198 0.0
H1111 H 0.91609 0.70928 0.05461 0.0
H1112 H 0.92906 0.75363 0.13713 0.0
C1113 C 0.87544 0.73497 0.23072 0.0
C1114 C 0.88361 0.71642 0.12797 0.0
C1115 C 0.86514 0.7313 0.27022 0.0
C1116 C 0.93726 0.72364 0.00982 0.0
C1117 C 0.92495 0.72159 0.04203 0.0
C1118 C 0.91634 0.74339 0.13364 0.0
C1119 C 0.87664 0.72249 0.20762 0.0
C1120 C 0.88841 0.72655 0.16761 0.0
C1121 C 0.92439 0.73527 0.05879 0.0
C1122 C 0.9117 0.73294 0.0947 0.0
H1123 H 0.84974 0.68987 0.27612 0.0
H1124 H 0.86786 0.69634 0.2073 0.0
H1125 H 0.9089 0.74814 0.20014 0.0
H1126 H 0.95783 0.76549 -0.00186 0.0
H1127 H 0.93616 0.76185 0.05453 0.0
C1128 C 0.39476 0.18978 0.32088 0.0
C1129 C 0.38312 0.18376 0.35813 0.0
C1130 C 0.39566 0.20186 0.29077 0.0
C1131 C 0.36897 0.21808 0.25094 0.0
H1132 H 0.40868 0.24677 0.17673 0.0
C1133 C 0.39128 0.26592 0.08176 0.0
C1134 C 0.37696 0.25673 0.05421 0.0
C1135 C 0.39274 0.25976 0.12487 0.0
C1136 C 0.39752 0.23909 0.19763 0.0
H1137 H 0.36418 0.18646 0.3954 0.0
H1138 H 0.36628 0.20812 0.34433 0.0
H1139 H 0.41098 0.23229 0.24393 0.0
H1140 H 0.35297 0.23391 0.05032 0.0
H1141 H 0.35577 0.22296 0.12409 0.0
H1142 H 0.35559 0.2252 0.20555 0.0
C1143 C 0.37425 0.20307 0.337 0.0
C1144 C 0.39879 0.23056 0.23584 0.0
C1145 C 0.37311 0.19073 0.36649 0.0
C1146 C 0.3641 0.24137 0.07083 0.0
C1147 C 0.36566 0.23514 0.11347 0.0
C1148 C 0.36776 0.22682 0.21335 0.0
C1149 C 0.38514 0.20841 0.2978 0.0
C1150 C 0.38443 0.21951 0.26202 0.0
C1151 C 0.38001 0.24421 0.14104 0.0
C1152 C 0.38188 0.23697 0.18516 0.0
H1153 H 0.40257 0.18455 0.31345 0.0
H1154 H 0.40402 0.20541 0.26068 0.0
H1155 H 0.35757 0.20961 0.26983 0.0
H1156 H 0.40135 0.27787 0.07007 0.0
H1157 H 0.40386 0.26718 0.14544 0.0
C1158 C 0.93625 0.27007 0.2449 0.0
C1159 C 0.94991 0.27281 0.27248 0.0
C1160 C 0.93134 0.25931 0.20702 0.0
C1161 C 0.93225 0.2233 0.16399 0.0
H1162 H 0.91714 0.23332 0.04936 0.0
C1163 C 0.89848 0.19409 0.97472 0.0
C1164 C 0.88481 0.17927 0.99129 0.0
C1165 C 0.91068 0.20494 0.00558 0.0
C1166 C 0.92161 0.23038 0.08067 0.0
H1167 H 0.96938 0.26666 0.28106 0.0
H1168 H 0.96074 0.24789 0.21484 0.0
H1169 H 0.93028 0.25433 0.10896 0.0
H1170 H 0.8735 0.16349 0.05179 0.0
H1171 H 0.89464 0.18263 0.10642 0.0
H1172 H 0.92324 0.19918 0.13586 0.0
C1173 C 0.9538 0.254 0.22286 0.0
C1174 C 0.92893 0.24239 0.1151 0.0
C1175 C 0.95879 0.26485 0.26059 0.0
C1176 C 0.88415 0.17477 0.03835 0.0
C1177 C 0.89625 0.18576 0.06951 0.0
C1178 C 0.92487 0.21123 0.12947 0.0
C1179 C 0.93994 0.25102 0.19598 0.0
C1180 C 0.93397 0.23886 0.15753 0.0
C1181 C 0.90916 0.20132 0.05375 0.0
C1182 C 0.91918 0.21455 0.08779 0.0
H1183 H 0.92914 0.276 0.25299 0.0
H1184 H 0.92048 0.25711 0.18721 0.0
H1185 H 0.93596 0.22022 0.19651 0.0
H1186 H 0.89911 0.19776 0.93844 0.0
H1187 H 0.92068 0.21666 0.99222 0.0
C1188 C 0.09781 0.67307 0.30104 0.0
C1189 C 0.09713 0.65791 0.29864 0.0
C1190 C 0.11184 0.68685 0.31921 0.0
C1191 C 0.14289 0.69863 0.40703 0.0
H1192 H 0.16038 0.74178 0.35039 0.0
C1193 C 0.17877 0.76027 0.51093 0.0
C1194 C 0.17029 0.76902 0.50638 0.0
C1195 C 0.17506 0.7471 0.48081 0.0
C1196 C 0.15585 0.72981 0.36643 0.0
H1197 H 0.11062 0.64521 0.31264 0.0
H1198 H 0.13517 0.66943 0.34632 0.0
H1199 H 0.14387 0.71712 0.3035 0.0
H1200 H 0.15181 0.77125 0.46602 0.0
H1201 H 0.14559 0.74869 0.41391 0.0
H1202 H 0.15374 0.71138 0.47104 0.0
C1203 C 0.12489 0.6706 0.33322 0.0
C1204 C 0.14643 0.71574 0.33962 0.0
C1205 C 0.11092 0.65682 0.31393 0.0
C1206 C 0.15848 0.76469 0.4707 0.0
C1207 C 0.15504 0.75187 0.44041 0.0
C1208 C 0.15228 0.71277 0.43403 0.0
C1209 C 0.1254 0.6857 0.33618 0.0
C1210 C 0.13914 0.70005 0.36032 0.0
C1211 C 0.16319 0.74286 0.44516 0.0
C1212 C 0.15804 0.72845 0.4145 0.0
H1213 H 0.08736 0.67424 0.2894 0.0
H1214 H 0.11181 0.69828 0.32171 0.0
H1215 H 0.13734 0.68665 0.42379 0.0
H1216 H 0.18794 0.76339 0.53818 0.0
H1217 H 0.18142 0.74024 0.48531 0.0
C1218 C 0.46589 0.45661 0.37388 0.0
C1219 C 0.46767 0.46081 0.3263 0.0
C1220 C 0.45033 0.45047 0.3963 0.0
C1221 C 0.41843 0.44691 0.43919 0.0
H1222 H 0.37859 0.41325 0.37686 0.0
C1223 C 0.35128 0.42055 0.51596 0.0
C1224 C 0.34096 0.40334 0.51374 0.0
C1225 C 0.36667 0.42856 0.49188 0.0
C1226 C 0.38961 0.42261 0.39477 0.0
H1227 H 0.45476 0.46075 0.26355 0.0
H1228 H 0.42757 0.45021 0.30259 0.0
H1229 H 0.40581 0.42487 0.33792 0.0
H1230 H 0.3386 0.38101 0.48467 0.0
H1231 H 0.36538 0.3949 0.44332 0.0
H1232 H 0.4022 0.44419 0.49677 0.0
C1233 C 0.43811 0.45183 0.32295 0.0
C1234 C 0.40517 0.42939 0.37227 0.0
C1235 C 0.45365 0.45802 0.30072 0.0
C1236 C 0.34623 0.3943 0.48692 0.0
C1237 C 0.36155 0.40227 0.46295 0.0
C1238 C 0.40282 0.44009 0.46179 0.0
C1239 C 0.43631 0.44812 0.37105 0.0
C1240 C 0.41976 0.44146 0.39445 0.0
C1241 C 0.37193 0.41947 0.46514 0.0
C1242 C 0.38829 0.4277 0.44003 0.0
H1243 H 0.47657 0.45833 0.39376 0.0
H1244 H 0.44923 0.44739 0.4332 0.0
H1245 H 0.42945 0.45639 0.45678 0.0
H1246 H 0.34751 0.42782 0.53637 0.0
H1247 H 0.37438 0.44185 0.49388 0.0
C1248 C 0.67931 0.95688 0.47804 0.0
C1249 C 0.67967 0.95596 0.5269 0.0
C1250 C 0.66968 0.96252 0.45675 0.0
C1251 C 0.64594 0.9722 0.41664 0.0
H1252 H 0.65371 0.01279 0.47322 0.0
C1253 C 0.63264 0.01848 0.32009 0.0
C1254 C 0.64598 0.03487 0.32247 0.0
C1255 C 0.63233 0.00636 0.34911 0.0
C1256 C 0.65135 0.00143 0.45705 0.0
H1257 H 0.67071 0.96047 0.5922 0.0
H1258 H 0.65334 0.96986 0.55514 0.0
H1259 H 0.66048 0.99486 0.51643 0.0
H1260 H 0.66938 0.05145 0.35718 0.0
H1261 H 0.66896 0.03045 0.40694 0.0
H1262 H 0.63801 0.97955 0.35579 0.0
C1263 C 0.6604 0.96615 0.53309 0.0
C1264 C 0.655 0.991 0.48211 0.0
C1265 C 0.67014 0.96059 0.55434 0.0
C1266 C 0.6589 0.03894 0.3545 0.0
C1267 C 0.65857 0.02691 0.38343 0.0
C1268 C 0.64238 0.98273 0.3914 0.0
C1269 C 0.66043 0.96762 0.48403 0.0
C1270 C 0.653 0.97658 0.4615 0.0
C1271 C 0.6453 0.01049 0.38116 0.0
C1272 C 0.64574 0.99779 0.41069 0.0
H1273 H 0.68692 0.95373 0.45637 0.0
H1274 H 0.67034 0.96382 0.419 0.0
H1275 H 0.64393 0.96101 0.40013 0.0
H1276 H 0.62248 0.015 0.29579 0.0
H1277 H 0.62194 0.9938 0.34664 0.0
C1278 C 0.70132 0.1053 0.19821 0.0
C1279 C 0.68641 0.09442 0.17541 0.0
C1280 C 0.71658 0.11303 0.17356 0.0
C1281 C 0.7346 0.11653 0.05155 0.0
H1282 H 0.77501 0.12981 0.12159 0.0
C1283 C 0.79687 0.13624 0.95434 0.0
C1284 C 0.80982 0.13587 0.9779 0.0
C1285 C 0.78237 0.13315 0.97834 0.0
C1286 C 0.76385 0.12575 0.10104 0.0
H1287 H 0.67567 0.08181 0.11056 0.0
H1288 H 0.7021 0.0938 0.06861 0.0
H1289 H 0.74906 0.12061 0.16293 0.0
H1290 H 0.81714 0.12985 0.04304 0.0
H1291 H 0.79132 0.12293 0.08444 0.0
H1292 H 0.74874 0.11954 0.98987 0.0
C1293 C 0.70227 0.09782 0.10413 0.0
C1294 C 0.74882 0.12089 0.12513 0.0
C1295 C 0.687 0.09068 0.12833 0.0
C1296 C 0.8075 0.13085 0.02479 0.0
C1297 C 0.79271 0.12714 0.0486 0.0
C1298 C 0.74939 0.12052 0.02755 0.0
C1299 C 0.71738 0.10918 0.12622 0.0
C1300 C 0.73384 0.11593 0.10079 0.0
C1301 C 0.78001 0.12861 0.0261 0.0
C1302 C 0.76429 0.12503 0.0518 0.0
H1303 H 0.70121 0.10764 0.23529 0.0
H1304 H 0.72767 0.12184 0.19217 0.0
H1305 H 0.7237 0.11359 0.03092 0.0
H1306 H 0.79809 0.13923 0.91735 0.0
H1307 H 0.77331 0.1347 0.95903 0.0
C1308 C 0.97983 0.69306 0.02405 0.0
C1309 C 0.97495 0.69053 0.97702 0.0
C1310 C 0.98184 0.68138 0.04827 0.0
C1311 C -0.00316 0.65404 0.02732 0.0
H1312 H 0.98307 0.64016 0.15588 0.0
C1313 C 0.02616 0.62345 0.13509 0.0
C1314 C 0.02881 0.62757 0.18258 0.0
C1315 C 0.01648 0.62785 0.10835 0.0
C1316 C 0.98712 0.64398 0.12008 0.0
H1317 H 0.96763 0.67364 0.91877 0.0
H1318 H 0.97176 0.65331 0.961 0.0
H1319 H 0.97021 0.653 0.1123 0.0
H1320 H 0.0249 0.64061 0.23884 0.0
H1321 H 0.00867 0.64901 0.19206 0.0
H1322 H 0.01461 0.64625 0.03569 0.0
C1323 C 0.97372 0.66422 0.97913 0.0
C1324 C 0.97961 0.65118 0.09506 0.0
C1325 C 0.97131 0.67577 0.95515 0.0
C1326 C 0.02247 0.63686 0.20253 0.0
C1327 C 0.0131 0.64156 0.1757 0.0
C1328 C 0.00455 0.64708 0.05253 0.0
C1329 C 0.97935 0.66713 0.02558 0.0
C1330 C 0.98471 0.65663 0.04888 0.0
C1331 C 0.0098 0.63697 0.12834 0.0
C1332 C 0.00012 0.64238 0.09969 0.0
H1333 H 0.98266 0.70435 0.04163 0.0
H1334 H 0.98634 0.68398 0.08391 0.0
H1335 H 0.00114 0.65837 0.99191 0.0
H1336 H 0.03124 0.6165 0.11902 0.0
H1337 H 0.01413 0.62398 0.07218 0.0
C1338 C 0.426 0.33936 0.97444 0.0
C1339 C 0.42801 0.32569 0.96883 0.0
C1340 C 0.43921 0.35426 0.99049 0.0
C1341 C 0.47408 0.37136 0.06721 0.0
H1342 H 0.48494 0.4125 0.00686 0.0
C1343 C 0.50938 0.4336 0.1644 0.0
C1344 C 0.50074 0.44222 0.16192 0.0
C1345 C 0.50544 0.42056 0.13364 0.0
C1346 C 0.48216 0.40114 0.02404 0.0
H1347 H 0.44535 0.31682 0.97549 0.0
H1348 H 0.46845 0.34296 0.00553 0.0
H1349 H 0.46812 0.38656 0.96563 0.0
H1350 H 0.48192 0.44461 0.12395 0.0
H1351 H 0.47504 0.42208 0.07109 0.0
H1352 H 0.48696 0.38578 0.12708 0.0
C1353 C 0.45669 0.34209 0.99656 0.0
C1354 C 0.4726 0.38633 0.00036 0.0
C1355 C 0.44353 0.32721 0.97942 0.0
C1356 C 0.48874 0.43814 0.12694 0.0
C1357 C 0.48492 0.4253 0.0962 0.0
C1358 C 0.48352 0.3862 0.0912 0.0
C1359 C 0.45461 0.35573 0.00208 0.0
C1360 C 0.46789 0.37129 0.0225 0.0
C1361 C 0.49298 0.41615 0.09963 0.0
C1362 C 0.48696 0.40116 0.07061 0.0
H1363 H 0.4142 0.33855 0.96636 0.0
H1364 H 0.43724 0.36454 0.99507 0.0
H1365 H 0.47055 0.35988 0.085 0.0
H1366 H 0.51872 0.43652 0.19105 0.0
H1367 H 0.51189 0.41375 0.137 0.0
C1368 C 0.97443 0.34379 0.44773 0.0
C1369 C 0.97033 0.32864 0.46788 0.0
C1370 C 0.97581 0.35654 0.47585 0.0
C1371 C 0.98624 0.37039 0.5973 0.0
H1372 H 0.9777 0.40475 0.55813 0.0
C1373 C 0.006 0.42699 0.71138 0.0
C1374 C 0.01519 0.4421 0.68778 0.0
C1375 C -0.00316 0.41243 0.68628 0.0
C1376 C 0.98011 0.3952 0.56945 0.0
H1377 H 0.96439 0.31465 0.53233 0.0
H1378 H 0.96608 0.33659 0.58143 0.0
H1379 H 0.96746 0.37988 0.51059 0.0
H1380 H 0.02264 0.45407 0.62001 0.0
H1381 H 0.00663 0.42852 0.57562 0.0
H1382 H -0.00084 0.38572 0.65538 0.0
C1383 C 0.96842 0.33882 0.54417 0.0
C1384 C 0.97429 0.381 0.54228 0.0
C1385 C 0.96731 0.32622 0.51617 0.0
C1386 C 0.01528 0.44251 0.63874 0.0
C1387 C 0.00605 0.42795 0.61352 0.0
C1388 C 0.99193 0.38446 0.62446 0.0
C1389 C 0.97326 0.35432 0.52462 0.0
C1390 C 0.97756 0.36856 0.55554 0.0
C1391 C -0.00303 0.41273 0.63706 0.0
C1392 C 0.98919 0.39714 0.61046 0.0
H1393 H 0.97731 0.34601 0.41064 0.0
H1394 H 0.9798 0.36837 0.4597 0.0
H1395 H 0.98936 0.36129 0.60812 0.0
H1396 H 0.00622 0.4264 0.74924 0.0
H1397 H 0.98994 0.4009 0.70535 0.0
C1398 C 0.69131 0.63596 0.70825 0.0
C1399 C 0.67606 0.63198 0.68764 0.0
C1400 C 0.705 0.63881 0.68002 0.0
C1401 C 0.71983 0.65219 0.5589 0.0
H1402 H 0.75756 0.64814 0.59776 0.0
C1403 C 0.78 0.67954 0.44803 0.0
C1404 C 0.7945 0.69003 0.47315 0.0
C1405 C 0.76516 0.6686 0.47176 0.0
C1406 C 0.74704 0.64923 0.58646 0.0
H1407 H 0.66233 0.62634 0.62291 0.0
H1408 H 0.68579 0.6303 0.57378 0.0
H1409 H 0.73152 0.63489 0.6443 0.0
H1410 H 0.80506 0.69792 0.54202 0.0
H1411 H 0.77906 0.67869 0.58389 0.0
H1412 H 0.73536 0.66673 0.50171 0.0
C1413 C 0.68761 0.632 0.6112 0.0
C1414 C 0.73218 0.64173 0.61312 0.0
C1415 C 0.67414 0.6296 0.63923 0.0
C1416 C 0.79403 0.68959 0.52218 0.0
C1417 C 0.77924 0.67855 0.54597 0.0
C1418 C 0.73454 0.65949 0.53214 0.0
C1419 C 0.70344 0.63741 0.63094 0.0
C1420 C 0.71851 0.64342 0.60015 0.0
C1421 C 0.7646 0.66815 0.52096 0.0
C1422 C 0.74841 0.6584 0.54616 0.0
H1423 H 0.69296 0.6379 0.74567 0.0
H1424 H 0.71699 0.64307 0.69648 0.0
H1425 H 0.7098 0.65416 0.54826 0.0
H1426 H 0.78005 0.6801 0.41013 0.0
H1427 H 0.75402 0.66075 0.45169 0.0
C1428 C 0.42914 0.12969 0.47214 0.0
C1429 C 0.4312 0.14546 0.46987 0.0
C1430 C 0.44164 0.12745 0.49095 0.0
C1431 C 0.47164 0.14138 0.58069 0.0
H1432 H 0.48575 0.1138 0.51875 0.0
C1433 C 0.5005 0.10827 0.6812 0.0
C1434 C 0.49217 0.09134 0.67112 0.0
C1435 C 0.4981 0.11904 0.65295 0.0
C1436 C 0.48207 0.12164 0.53645 0.0
H1437 H 0.44793 0.17132 0.48495 0.0
H1438 H 0.46974 0.16723 0.52005 0.0
H1439 H 0.47212 0.12559 0.4737 0.0
H1440 H 0.47513 0.0725 0.62312 0.0
H1441 H 0.47091 0.09105 0.57462 0.0
H1442 H 0.48031 0.13629 0.64425 0.0
C1443 C 0.45853 0.15673 0.50622 0.0
C1444 C 0.47437 0.12844 0.51062 0.0
C1445 C 0.44613 0.15905 0.48617 0.0
C1446 C 0.48171 0.08546 0.63197 0.0
C1447 C 0.47944 0.09615 0.60375 0.0
C1448 C 0.47923 0.13442 0.60674 0.0
C1449 C 0.45632 0.14088 0.50877 0.0
C1450 C 0.46841 0.13773 0.53294 0.0
C1451 C 0.48753 0.11304 0.6139 0.0
C1452 C 0.48372 0.1238 0.58521 0.0
H1453 H 0.41777 0.11903 0.45966 0.0
H1454 H 0.43956 0.11509 0.4931 0.0
H1455 H 0.46705 0.14845 0.59862 0.0
H1456 H 0.50866 0.11314 0.71114 0.0
H1457 H 0.50445 0.132 0.66162 0.0
C1458 C 0.34768 0.96103 0.01631 0.0
C1459 C 0.34163 0.97199 0.0159 0.0
C1460 C 0.36129 0.96397 0.98761 0.0
C1461 C 0.39701 0.98061 0.94444 0.0
H1462 H 0.39905 -0.00183 0.82013 0.0
C1463 C 0.45828 0.02616 0.8525 0.0
C1464 C 0.45961 0.02605 0.80367 0.0
C1465 C 0.44336 0.01491 0.87515 0.0
C1466 C 0.39859 0.99293 0.85423 0.0
H1467 H 0.34529 0.99478 0.98611 0.0
H1468 H 0.36896 -8e-05 0.93674 0.0
H1469 H 0.3733 0.98702 0.86624 0.0
H1470 H 0.44648 0.01488 0.73958 0.0
H1471 H 0.42021 0.99493 0.7792 0.0
H1472 H 0.42252 0.98697 0.9328 0.0
C1473 C 0.36306 0.98892 0.95843 0.0
C1474 C 0.38389 0.98673 0.88087 0.0
C1475 C 0.3496 0.98605 0.98711 0.0
C1476 C 0.44579 0.01473 0.77748 0.0
C1477 C 0.43079 0.00347 0.80012 0.0
C1478 C 0.41175 0.9868 0.91771 0.0
C1479 C 0.36891 0.97782 0.95789 0.0
C1480 C 0.38321 0.98119 0.92692 0.0
C1481 C 0.42936 0.00361 0.84919 0.0
C1482 C 0.41289 0.99366 0.87312 0.0
H1483 H 0.34174 0.95007 0.03812 0.0
H1484 H 0.36563 0.95527 0.98794 0.0
H1485 H 0.39678 0.97634 0.9798 0.0
H1486 H 0.46873 0.03513 0.87307 0.0
H1487 H 0.44255 0.01566 0.91284 0.0
C1488 C 0.07457 0.45935 0.8492 0.0
C1489 C 0.07903 0.47291 0.81973 0.0
C1490 C 0.08689 0.45712 0.86946 0.0
C1491 C 0.1139 0.44905 0.88211 0.0
H1492 H 0.15454 0.48469 0.93589 0.0
C1493 C 0.16085 0.43499 0.96356 0.0
C1494 C 0.16706 0.44203 0.00738 0.0
C1495 C 0.15319 0.44114 0.93495 0.0
C1496 C 0.14323 0.47461 0.92111 0.0
H1497 H 0.09992 0.49497 0.78901 0.0
H1498 H 0.1216 0.49088 0.82391 0.0
H1499 H 0.13444 0.49058 0.89884 0.0
H1500 H 0.17111 0.46155 0.05488 0.0
H1501 H 0.15694 0.47192 0.00579 0.0
H1502 H 0.12199 0.43292 0.90608 0.0
C1503 C 0.10852 0.48209 0.83169 0.0
C1504 C 0.13181 0.47801 0.89946 0.0
C1505 C 0.09613 0.48438 0.81154 0.0
C1506 C 0.16641 0.45596 0.02109 0.0
C1507 C 0.15835 0.46191 0.99284 0.0
C1508 C 0.12518 0.44565 0.90387 0.0
C1509 C 0.104 0.4683 0.86042 0.0
C1510 C 0.11688 0.46519 0.88044 0.0
C1511 C 0.15112 0.45417 0.95016 0.0
C1512 C 0.13993 0.45833 0.92404 0.0
H1513 H 0.06152 0.45039 0.8567 0.0
H1514 H 0.08297 0.44659 0.89234 0.0
H1515 H 0.10268 0.43893 0.86705 0.0
H1516 H 0.16148 0.42439 0.95195 0.0
H1517 H 0.14829 0.43522 0.90165 0.0
C1518 C 0.64384 0.67157 0.85089 0.0
C1519 C 0.64455 0.66986 0.80235 0.0
C1520 C 0.6482 0.68682 0.86998 0.0
C1521 C 0.67823 0.72884 0.8529 0.0
H1522 H 0.65311 0.7376 0.94619 0.0
C1523 C 0.71114 0.78862 0.95732 0.0
C1524 C 0.707 0.78751 0.00505 0.0
C1525 C 0.70103 0.77582 0.92707 0.0
C1526 C 0.66037 0.73533 0.92052 0.0
H1527 H 0.65098 0.68254 0.7355 0.0
H1528 H 0.65922 0.70957 0.76918 0.0
H1529 H 0.63929 0.71169 0.90293 0.0
H1530 H 0.68894 0.77254 0.05873 0.0
H1531 H 0.67183 0.74962 0.0068 0.0
H1532 H 0.69964 0.75154 0.87246 0.0
C1533 C 0.65462 0.69896 0.79216 0.0
C1534 C 0.65237 0.72058 0.89548 0.0
C1535 C 0.64989 0.68359 0.77299 0.0
C1536 C 0.69234 0.77363 0.02194 0.0
C1537 C 0.68247 0.76057 0.99194 0.0
C1538 C 0.68632 0.74337 0.87854 0.0
C1539 C 0.65396 0.70069 0.84085 0.0
C1540 C 0.66135 0.71715 0.86207 0.0
C1541 C 0.68686 0.76135 0.94419 0.0
C1542 C 0.67761 0.74672 0.91338 0.0
H1543 H 0.64013 0.66114 0.87405 0.0
H1544 H 0.64792 0.68796 0.90768 0.0
H1545 H 0.68546 0.7263 0.82777 0.0
H1546 H 0.72226 0.79938 0.94338 0.0
H1547 H 0.70457 0.77718 0.89039 0.0
C1548 C 0.74637 0.99538 0.68183 0.0
C1549 C 0.74905 0.98828 0.642 0.0
C1550 C 0.75979 0.00897 0.70304 0.0
C1551 C 0.80026 0.04479 0.67764 0.0
H1552 H 0.80442 0.04756 0.81285 0.0
C1553 C 0.83976 0.0948 0.83317 0.0
C1554 C 0.83561 0.10673 0.8214 0.0
C1555 C 0.83304 0.08012 0.80783 0.0
C1556 C 0.80365 0.04688 0.77502 0.0
H1557 H 0.76785 0.98976 0.59308 0.0
H1558 H 0.79135 0.01392 0.62966 0.0
H1559 H 0.78449 0.02135 0.77662 0.0
H1560 H 0.82228 0.11331 0.77227 0.0
H1561 H 0.81087 0.08793 0.72761 0.0
H1562 H 0.81876 0.07055 0.67625 0.0
C1563 C 0.77885 0.0088 0.64459 0.0
C1564 C 0.79215 0.03195 0.75437 0.0
C1565 C 0.76543 0.99501 0.62377 0.0
C1566 C 0.82559 0.10426 0.78221 0.0
C1567 C 0.81917 0.08979 0.75643 0.0
C1568 C 0.81161 0.05979 0.69834 0.0
C1569 C 0.77613 0.01586 0.68447 0.0
C1570 C 0.79003 0.0309 0.70562 0.0
C1571 C 0.82241 0.07738 0.76979 0.0
C1572 C 0.81306 0.06106 0.74729 0.0
H1573 H 0.73389 0.99041 0.69676 0.0
H1574 H 0.75733 0.01433 0.7334 0.0
H1575 H 0.79881 0.0443 0.63998 0.0
H1576 H 0.84744 0.09643 0.86336 0.0
H1577 H 0.83572 0.07072 0.81873 0.0
C1578 C 0.12881 0.79537 0.64365 0.0
C1579 C 0.14438 0.8005 0.664 0.0
C1580 C 0.11507 0.79225 0.67153 0.0
C1581 C 0.09857 0.78213 0.79238 0.0
H1582 H 0.06605 0.79232 0.7427 0.0
C1583 C 0.02428 0.75414 0.80668 0.0
C1584 C 0.02144 0.75442 0.85477 0.0
C1585 C 0.04052 0.76298 0.78837 0.0
C1586 C 0.0751 0.78953 0.75716 0.0
H1587 H 0.1579 0.80557 0.72893 0.0
H1588 H 0.13389 0.80058 0.77827 0.0
H1589 H 0.09236 0.80156 0.70076 0.0
H1590 H 0.03306 0.76295 0.9223 0.0
H1591 H 0.06184 0.77847 0.89013 0.0
H1592 H 0.08079 0.76949 0.84794 0.0
C1593 C 0.13224 0.79895 0.74079 0.0
C1594 C 0.09017 0.79478 0.73313 0.0
C1595 C 0.14597 0.80188 0.71274 0.0
C1596 C 0.03506 0.76313 0.88481 0.0
C1597 C 0.05142 0.77183 0.86655 0.0
C1598 C 0.08346 0.77689 0.81652 0.0
C1599 C 0.11665 0.7942 0.7204 0.0
C1600 C 0.10184 0.79069 0.7496 0.0
C1601 C 0.05424 0.77185 0.81812 0.0
C1602 C 0.07139 0.78007 0.79816 0.0
H1603 H 0.12727 0.79375 0.6061 0.0
H1604 H 0.10315 0.78812 0.65473 0.0
H1605 H 0.10722 0.77866 0.80589 0.0
H1606 H 0.01391 0.74705 0.78328 0.0
H1607 H 0.04239 0.76247 0.75105 0.0
C1608 C 0.29691 0.34832 0.70766 0.0
C1609 C 0.29573 0.34666 0.65895 0.0
C1610 C 0.30072 0.33834 0.73436 0.0
C1611 C 0.30942 0.30375 0.72947 0.0
H1612 H 0.34301 0.33088 0.82065 0.0
C1613 C 0.35939 0.29028 0.80434 0.0
C1614 C 0.3614 0.29178 0.85299 0.0
C1615 C 0.34894 0.29485 0.78228 0.0
C1616 C 0.33351 0.32306 0.79577 0.0
H1617 H 0.29737 0.33337 0.59947 0.0
H1618 H 0.30478 0.31628 0.64581 0.0
H1619 H 0.32771 0.34164 0.78057 0.0
H1620 H 0.3553 0.30018 0.91657 0.0
H1621 H 0.33719 0.30834 0.87815 0.0
H1622 H 0.31604 0.28544 0.74384 0.0
C1623 C 0.30205 0.32474 0.66387 0.0
C1624 C 0.3246 0.32917 0.77295 0.0
C1625 C 0.29783 0.33451 0.63725 0.0
C1626 C 0.35351 0.29854 0.87909 0.0
C1627 C 0.34327 0.30329 0.85711 0.0
C1628 C 0.31852 0.29767 0.75214 0.0
C1629 C 0.30426 0.32706 0.71255 0.0
C1630 C 0.31247 0.31965 0.73936 0.0
C1631 C 0.34084 0.30144 0.80855 0.0
C1632 C 0.3307 0.30735 0.78529 0.0
H1633 H 0.2955 0.35779 0.72486 0.0
H1634 H 0.30185 0.34014 0.77189 0.0
H1635 H 0.3001 0.29605 0.70405 0.0
H1636 H 0.36569 0.28538 0.78363 0.0
H1637 H 0.34749 0.29359 0.74467 0.0
C1638 C 0.03018 0.30709 0.3562 0.0
C1639 C 0.02176 0.31592 0.353 0.0
C1640 C 0.04685 0.31419 0.34036 0.0
C1641 C 0.07778 0.33005 0.27258 0.0
H1642 H 0.10757 0.37636 0.29949 0.0
C1643 C 0.13212 0.37399 0.15065 0.0
C1644 C 0.14642 0.38732 0.17011 0.0
C1645 C 0.11868 0.36319 0.17948 0.0
C1646 C 0.09965 0.36334 0.29227 0.0
H1647 H 0.02415 0.33905 0.33086 0.0
H1648 H 0.05291 0.35127 0.30361 0.0
H1649 H 0.08078 0.36118 0.34024 0.0
H1650 H 0.15805 0.40027 0.23392 0.0
H1651 H 0.13483 0.38113 0.28482 0.0
H1652 H 0.09662 0.33236 0.22376 0.0
C1653 C 0.04681 0.33898 0.31863 0.0
C1654 C 0.0842 0.3547 0.31535 0.0
C1655 C 0.03026 0.3319 0.33393 0.0
C1656 C 0.14716 0.38984 0.21852 0.0
C1657 C 0.13386 0.37895 0.24746 0.0
C1658 C 0.09334 0.33872 0.24946 0.0
C1659 C 0.05532 0.33028 0.32183 0.0
C1660 C 0.07285 0.33817 0.30442 0.0
C1661 C 0.11931 0.36567 0.2282 0.0
C1662 C 0.10418 0.35562 0.25792 0.0
H1663 H 0.02389 0.29472 0.37068 0.0
H1664 H 0.05316 0.30723 0.34304 0.0
H1665 H 0.06924 0.31729 0.26357 0.0
H1666 H 0.13118 0.37219 0.11309 0.0
H1667 H 0.10754 0.35333 0.16334 0.0
C1668 C 0.81178 0.74846 0.30431 0.0
C1669 C 0.82458 0.75426 0.33763 0.0
C1670 C 0.8096 0.75945 0.27708 0.0
C1671 C 0.81647 0.80101 0.27646 0.0
H1672 H 0.80211 0.78973 0.14787 0.0
C1673 C 0.78453 0.81899 0.11485 0.0
C1674 C 0.77202 0.81943 0.14173 0.0
C1675 C 0.79583 0.81538 0.13611 0.0
C1676 C 0.80646 0.79335 0.18333 0.0
H1677 H 0.84522 0.77616 0.36846 0.0
H1678 H 0.84127 0.79551 0.32079 0.0
H1679 H 0.81317 0.77486 0.18933 0.0
H1680 H 0.76098 0.81603 0.21089 0.0
H1681 H 0.78054 0.80964 0.24815 0.0
H1682 H 0.80933 0.81924 0.27074 0.0
C1683 C 0.83296 0.7824 0.3159 0.0
C1684 C 0.8126 0.78467 0.20729 0.0
C1685 C 0.83521 0.77134 0.34313 0.0
C1686 C 0.77087 0.81617 0.18987 0.0
C1687 C 0.78215 0.81265 0.21115 0.0
C1688 C 0.81035 0.80973 0.25243 0.0
C1689 C 0.82015 0.77653 0.28246 0.0
C1690 C 0.81698 0.78793 0.25469 0.0
C1691 C 0.79458 0.81191 0.18443 0.0
C1692 C 0.80461 0.8055 0.20625 0.0
H1693 H 0.80337 0.73538 0.29917 0.0
H1694 H 0.79939 0.75453 0.25238 0.0
H1695 H 0.81979 0.80383 0.31293 0.0
H1696 H 0.78523 0.82095 0.07732 0.0
H1697 H 0.80526 0.81488 0.11459 0.0
C1698 C 0.29958 0.9933 0.20053 0.0
C1699 C 0.30048 0.99427 0.15159 0.0
C1700 C 0.30369 0.00725 0.22699 0.0
C1701 C 0.31474 0.05111 0.22108 0.0
H1702 H 0.34461 0.05576 0.3218 0.0
C1703 C 0.36287 0.1136 0.30374 0.0
C1704 C 0.3646 0.11381 0.35246 0.0
C1705 C 0.3525 0.09874 0.28083 0.0
C1706 C 0.33609 0.05458 0.29435 0.0
H1707 H 0.30654 0.01035 0.09146 0.0
H1708 H 0.31409 0.03494 0.13762 0.0
H1709 H 0.32996 0.03002 0.27955 0.0
H1710 H 0.35794 0.09889 0.41536 0.0
H1711 H 0.33972 0.07293 0.37566 0.0
H1712 H 0.32145 0.07605 0.23545 0.0
C1713 C 0.30959 0.02332 0.15571 0.0
C1714 C 0.32762 0.03978 0.27017 0.0
C1715 C 0.30529 0.00929 0.12925 0.0
C1716 C 0.35635 0.099 0.37785 0.0
C1717 C 0.34608 0.08417 0.35507 0.0
C1718 C 0.32329 0.06601 0.24536 0.0
C1719 C 0.30935 0.02256 0.20494 0.0
C1720 C 0.31696 0.03788 0.23298 0.0
C1721 C 0.34409 0.08386 0.3063 0.0
C1722 C 0.33418 0.06792 0.28195 0.0
H1723 H 0.29612 0.98184 0.21831 0.0
H1724 H 0.30312 0.00619 0.26481 0.0
H1725 H 0.30651 0.04997 0.19282 0.0
H1726 H 0.36948 0.12492 0.28355 0.0
H1727 H 0.35145 0.09883 0.24312 0.0
loop_
_geom_bond_atom_site_label_1
_geom_bond_atom_site_label_2
_geom_bond_distance
_geom_bond_site_symmetry_2
_ccdc_geom_bond_type
Mn0 O5 2.095 . S
Mn0 O15 2.162 . S
Mn0 O16 2.297 . S
Mn0 O24 2.385 . S
Mn0 O25 2.209 . S
Mn0 O26 2.094 . S
Mn1 O6 2.121 . S
Mn1 N8 2.257 . S
Mn1 N17 2.282 . S
Mn1 O25 2.215 . S
Mn1 O27 2.117 . S
C2 O24 1.234 . S
C2 O25 1.283 . S
C3 O15 1.281 . S
C3 O16 1.236 . S
C4 O26 1.240 . S
C4 O27 1.264 . S
O5 Mn0 2.095 . S
O5 C14 1.250 . S
O6 Mn1 2.121 . S
O6 C14 1.258 . S
C7 N8 1.326 . S
C7 C11 1.460 1_455 S
C7 H13 0.929 . S
N8 Mn1 2.257 . S
N8 C7 1.326 . S
N8 C12 1.315 1_455 S
C9 C10 1.258 . S
C9 C12 1.502 . S
C9 C29 1.449 . S
C10 C9 1.258 . S
C10 C11 1.477 . S
C10 H30 0.931 . S
C11 C7 1.460 1_655 S
C11 C10 1.477 . S
C11 H31 0.930 . S
C12 N8 1.315 1_655 S
C12 C9 1.502 . S
C12 C22 1.455 1_655 S
H13 C7 0.929 . S
C14 O5 1.250 . S
C14 O6 1.258 . S
O15 Mn0 2.162 . S
O15 C3 1.281 . S
O16 Mn0 2.297 . S
O16 C3 1.236 . S
N17 Mn1 2.282 . S
N17 C18 1.328 . S
N17 C22 1.318 . S
C18 N17 1.328 . S
C18 C19 1.457 . S
C18 H23 0.929 . S
C19 C18 1.457 . S
C19 C20 1.291 . S
C19 H32 0.931 . S
C20 C19 1.291 . S
C20 C21 1.373 1_455 S
C20 H33 0.920 1_455 S
C21 C20 1.373 1_655 S
C21 C22 1.396 1_655 S
C21 C28 1.403 . S
C22 C12 1.455 1_455 S
C22 N17 1.318 . S
C22 C21 1.396 1_455 S
H23 C18 0.929 . S
O24 Mn0 2.385 . S
O24 C2 1.234 . S
O25 Mn0 2.209 . S
O25 Mn1 2.215 . S
O25 C2 1.283 . S
O26 Mn0 2.094 . S
O26 C4 1.240 . S
O27 Mn1 2.117 . S
O27 C4 1.264 . S
C28 C21 1.403 . S
C28 C29 1.399 . S
C28 H34 0.929 . S
C29 C9 1.449 . S
C29 C28 1.399 . S
C29 H35 0.930 . S
H30 C10 0.931 . S
H31 C11 0.930 . S
H32 C19 0.931 . S
H33 C20 0.920 1_655 S
H34 C28 0.929 . S
H35 C29 0.930 . S
Mn36 O41 2.095 . S
Mn36 O51 2.162 . S
Mn36 O52 2.297 . S
Mn36 O60 2.385 . S
Mn36 O61 2.209 . S
Mn36 O62 2.094 . S
Mn37 O42 2.121 . S
Mn37 N44 2.257 . S
Mn37 N53 2.282 . S
Mn37 O61 2.215 . S
Mn37 O63 2.117 . S
C38 O60 1.234 . S
C38 O61 1.283 . S
C39 O51 1.281 . S
C39 O52 1.236 . S
C40 O62 1.240 . S
C40 O63 1.264 . S
O41 Mn36 2.095 . S
O41 C50 1.250 . S
O42 Mn37 2.121 . S
O42 C50 1.258 . S
C43 N44 1.326 . S
C43 C47 1.460 . S
C43 H49 0.929 . S
N44 Mn37 2.257 . S
N44 C43 1.326 . S
N44 C48 1.362 . S
C45 C46 1.258 . S
C45 C48 1.431 . S
C45 C65 1.449 . S
C46 C45 1.258 . S
C46 C47 1.477 . S
C46 H66 0.931 . S
C47 C43 1.460 . S
C47 C46 1.477 . S
C47 H67 0.930 . S
C48 N44 1.362 . S
C48 C45 1.431 . S
C48 C58 1.476 . S
H49 C43 0.929 . S
C50 O41 1.250 . S
C50 O42 1.258 . S
O51 Mn36 2.162 . S
O51 C39 1.281 . S
O52 Mn36 2.297 . S
O52 C39 1.236 . S
N53 Mn37 2.282 . S
N53 C54 1.328 . S
N53 C58 1.318 . S
C54 N53 1.328 . S
C54 C55 1.457 . S
C54 H59 0.929 . S
C55 C54 1.457 . S
C55 C56 1.291 . S
C55 H68 0.931 . S
C56 C55 1.291 . S
C56 C57 1.373 . S
C56 H69 0.929 . S
C57 C56 1.373 . S
C57 C58 1.396 . S
C57 C64 1.403 . S
C58 C48 1.476 . S
C58 N53 1.318 . S
C58 C57 1.396 . S
H59 C54 0.929 . S
O60 Mn36 2.385 . S
O60 C38 1.234 . S
O61 Mn36 2.209 . S
O61 Mn37 2.215 . S
O61 C38 1.283 . S
O62 Mn36 2.094 . S
O62 C40 1.240 . S
O63 Mn37 2.117 . S
O63 C40 1.264 . S
C64 C57 1.403 . S
C64 C65 1.399 . S
C64 H70 0.929 . S
C65 C45 1.449 . S
C65 C64 1.399 . S
C65 H71 0.930 . S
H66 C46 0.931 . S
H67 C47 0.930 . S
H68 C55 0.931 . S
H69 C56 0.929 . S
H70 C64 0.929 . S
H71 C65 0.930 . S
Mn72 O77 2.095 . S
Mn72 O87 2.162 . S
Mn72 O88 2.297 . S
Mn72 O96 2.385 . S
Mn72 O97 2.209 . S
Mn72 O98 2.094 . S
Mn73 O78 2.121 . S
Mn73 N80 2.257 . S
Mn73 N89 2.282 . S
Mn73 O97 2.215 . S
Mn73 O99 2.117 . S
C74 O96 1.234 . S
C74 O97 1.283 . S
C75 O87 1.281 . S
C75 O88 1.236 . S
C76 O98 1.240 . S
C76 O99 1.264 . S
O77 Mn72 2.095 . S
O77 C86 1.250 . S
O78 Mn73 2.121 . S
O78 C86 1.258 . S
C79 N80 1.326 . S
C79 C83 1.460 . S
C79 H85 0.929 . S
N80 Mn73 2.257 . S
N80 C79 1.326 . S
N80 C84 1.362 . S
C81 C82 1.258 . S
C81 C84 1.431 . S
C81 C101 1.449 . S
C82 C81 1.258 . S
C82 C83 1.477 . S
C82 H102 0.931 . S
C83 C79 1.460 . S
C83 C82 1.477 . S
C83 H103 0.930 . S
C84 N80 1.362 . S
C84 C81 1.431 . S
C84 C94 1.476 . S
H85 C79 0.929 . S
C86 O77 1.250 . S
C86 O78 1.258 . S
O87 Mn72 2.162 . S
O87 C75 1.281 . S
O88 Mn72 2.297 . S
O88 C75 1.236 . S
N89 Mn73 2.282 . S
N89 C90 1.328 . S
N89 C94 1.318 . S
C90 N89 1.328 . S
C90 C91 1.457 . S
C90 H95 0.929 . S
C91 C90 1.457 . S
C91 C92 1.291 . S
C91 H104 0.931 . S
C92 C91 1.291 . S
C92 C93 1.373 . S
C92 H105 0.929 . S
C93 C92 1.373 . S
C93 C94 1.396 . S
C93 C100 1.403 . S
C94 C84 1.476 . S
C94 N89 1.318 . S
C94 C93 1.396 . S
H95 C90 0.929 . S
O96 Mn72 2.385 . S
O96 C74 1.234 . S
O97 Mn72 2.209 . S
O97 Mn73 2.215 . S
O97 C74 1.283 . S
O98 Mn72 2.094 . S
O98 C76 1.240 . S
O99 Mn73 2.117 . S
O99 C76 1.264 . S
C100 C93 1.403 . S
C100 C101 1.399 . S
C100 H106 0.929 . S
C101 C81 1.449 . S
C101 C100 1.399 . S
C101 H107 0.930 . S
H102 C82 0.931 . S
H103 C83 0.930 . S
H104 C91 0.931 . S
H105 C92 0.929 . S
H106 C100 0.929 . S
H107 C101 0.930 . S
Mn108 O113 2.095 . S
Mn108 O123 2.162 . S
Mn108 O124 2.297 . S
Mn108 O132 2.385 . S
Mn108 O133 2.209 . S
Mn108 O134 2.094 . S
Mn109 O114 2.121 . S
Mn109 N116 2.257 . S
Mn109 N125 2.282 . S
Mn109 O133 2.215 . S
Mn109 O135 2.117 . S
C110 O132 1.234 . S
C110 O133 1.283 . S
C111 O123 1.281 . S
C111 O124 1.236 . S
C112 O134 1.240 . S
C112 O135 1.264 . S
O113 Mn108 2.095 . S
O113 C122 1.250 . S
O114 Mn109 2.121 . S
O114 C122 1.258 . S
C115 N116 1.327 1_655 S
C115 C119 1.458 . S
C115 H121 0.930 1_655 S
N116 Mn109 2.257 . S
N116 C115 1.327 1_455 S
N116 C120 1.362 1_455 S
C117 C118 1.258 . S
C117 C120 1.431 . S
C117 C137 1.449 . S
C118 C117 1.258 . S
C118 C119 1.477 . S
C118 H138 0.931 . S
C119 C115 1.458 . S
C119 C118 1.477 . S
C119 H139 0.930 . S
C120 N116 1.362 1_655 S
C120 C117 1.431 . S
C120 C130 1.476 1_655 S
H121 C115 0.930 1_455 S
C122 O113 1.250 . S
C122 O114 1.258 . S
O123 Mn108 2.162 . S
O123 C111 1.281 . S
O124 Mn108 2.297 . S
O124 C111 1.236 . S
N125 Mn109 2.282 . S
N125 C126 1.328 . S
N125 C130 1.318 . S
C126 N125 1.328 . S
C126 C127 1.457 . S
C126 H131 0.929 . S
C127 C126 1.457 . S
C127 C128 1.291 . S
C127 H140 0.931 . S
C128 C127 1.291 . S
C128 C129 1.373 1_455 S
C128 H141 0.929 1_455 S
C129 C128 1.373 1_655 S
C129 C130 1.396 1_655 S
C129 C136 1.403 . S
C130 C120 1.476 1_455 S
C130 N125 1.318 . S
C130 C129 1.396 1_455 S
H131 C126 0.929 . S
O132 Mn108 2.385 . S
O132 C110 1.234 . S
O133 Mn108 2.209 . S
O133 Mn109 2.215 . S
O133 C110 1.283 . S
O134 Mn108 2.094 . S
O134 C112 1.240 . S
O135 Mn109 2.117 . S
O135 C112 1.264 . S
C136 C129 1.403 . S
C136 C137 1.399 . S
C136 H142 0.929 . S
C137 C117 1.449 . S
C137 C136 1.399 . S
C137 H143 0.930 . S
H138 C118 0.931 . S
H139 C119 0.930 . S
H140 C127 0.931 . S
H141 C128 0.929 1_655 S
H142 C136 0.929 . S
H143 C137 0.930 . S
Mn144 O149 2.095 . S
Mn144 O159 2.162 . S
Mn144 O160 2.297 . S
Mn144 O168 2.385 . S
Mn144 O169 2.209 . S
Mn144 O170 2.094 . S
Mn145 O150 2.121 . S
Mn145 N152 2.257 . S
Mn145 N161 2.282 . S
Mn145 O169 2.215 . S
Mn145 O171 2.117 . S
C146 O168 1.234 . S
C146 O169 1.283 . S
C147 O159 1.281 . S
C147 O160 1.236 . S
C148 O170 1.240 . S
C148 O171 1.264 . S
O149 Mn144 2.095 . S
O149 C158 1.250 . S
O150 Mn145 2.121 . S
O150 C158 1.258 . S
C151 N152 1.326 . S
C151 C155 1.460 . S
C151 H157 0.929 . S
N152 Mn145 2.257 . S
N152 C151 1.326 . S
N152 C156 1.362 . S
C153 C154 1.258 . S
C153 C156 1.431 . S
C153 C173 1.449 . S
C154 C153 1.258 . S
C154 C155 1.477 . S
C154 H174 0.931 . S
C155 C151 1.460 . S
C155 C154 1.477 . S
C155 H175 0.930 . S
C156 N152 1.362 . S
C156 C153 1.431 . S
C156 C166 1.476 . S
H157 C151 0.929 . S
C158 O149 1.250 . S
C158 O150 1.258 . S
O159 Mn144 2.162 . S
O159 C147 1.281 . S
O160 Mn144 2.297 . S
O160 C147 1.236 . S
N161 Mn145 2.282 . S
N161 C162 1.328 . S
N161 C166 1.318 . S
C162 N161 1.328 . S
C162 C163 1.457 . S
C162 H167 0.929 . S
C163 C162 1.457 . S
C163 C164 1.291 . S
C163 H176 0.931 . S
C164 C163 1.291 . S
C164 C165 1.373 . S
C164 H177 0.929 . S
C165 C164 1.373 . S
C165 C166 1.396 . S
C165 C172 1.403 . S
C166 C156 1.476 . S
C166 N161 1.318 . S
C166 C165 1.396 . S
H167 C162 0.929 . S
O168 Mn144 2.385 . S
O168 C146 1.234 . S
O169 Mn144 2.209 . S
O169 Mn145 2.215 . S
O169 C146 1.283 . S
O170 Mn144 2.094 . S
O170 C148 1.240 . S
O171 Mn145 2.117 . S
O171 C148 1.264 . S
C172 C165 1.403 . S
C172 C173 1.399 . S
C172 H178 0.929 . S
C173 C153 1.449 . S
C173 C172 1.399 . S
C173 H179 0.930 . S
H174 C154 0.931 . S
H175 C155 0.930 . S
H176 C163 0.931 . S
H177 C164 0.929 . S
H178 C172 0.929 . S
H179 C173 0.930 . S
Mn180 O185 2.095 . S
Mn180 O195 2.162 . S
Mn180 O196 2.297 . S
Mn180 O204 2.385 . S
Mn180 O205 2.209 . S
Mn180 O206 2.094 . S
Mn181 O186 2.121 . S
Mn181 N188 2.257 . S
Mn181 N197 2.282 . S
Mn181 O205 2.215 . S
Mn181 O207 2.117 . S
C182 O204 1.234 . S
C182 O205 1.283 . S
C183 O195 1.281 . S
C183 O196 1.236 . S
C184 O206 1.240 . S
C184 O207 1.264 . S
O185 Mn180 2.095 . S
O185 C194 1.250 . S
O186 Mn181 2.121 . S
O186 C194 1.258 . S
C187 N188 1.326 . S
C187 C191 1.460 1_545 S
C187 H193 0.929 . S
N188 Mn181 2.257 . S
N188 C187 1.326 . S
N188 C192 1.349 1_545 S
C189 C190 1.258 . S
C189 C192 1.462 . S
C189 C209 1.449 . S
C190 C189 1.258 . S
C190 C191 1.477 . S
C190 H210 0.931 . S
C191 C187 1.460 1_565 S
C191 C190 1.477 . S
C191 H211 0.930 . S
C192 N188 1.349 1_565 S
C192 C189 1.462 . S
C192 C202 1.458 1_565 S
H193 C187 0.929 . S
C194 O185 1.250 . S
C194 O186 1.258 . S
O195 Mn180 2.162 . S
O195 C183 1.281 . S
O196 Mn180 2.297 . S
O196 C183 1.236 . S
N197 Mn181 2.282 . S
N197 C198 1.328 . S
N197 C202 1.318 . S
C198 N197 1.328 . S
C198 C199 1.457 . S
C198 H203 0.929 . S
C199 C198 1.457 . S
C199 C200 1.291 . S
C199 H212 0.931 . S
C200 C199 1.291 . S
C200 C201 1.373 1_545 S
C200 H213 0.926 1_545 S
C201 C200 1.373 1_565 S
C201 C202 1.396 1_565 S
C201 C208 1.403 . S
C202 C192 1.458 1_545 S
C202 N197 1.318 . S
C202 C201 1.396 1_545 S
H203 C198 0.929 . S
O204 Mn180 2.385 . S
O204 C182 1.234 . S
O205 Mn180 2.209 . S
O205 Mn181 2.215 . S
O205 C182 1.283 . S
O206 Mn180 2.094 . S
O206 C184 1.240 . S
O207 Mn181 2.117 . S
O207 C184 1.264 . S
C208 C201 1.403 . S
C208 C209 1.399 . S
C208 H214 0.929 . S
C209 C189 1.449 . S
C209 C208 1.399 . S
C209 H215 0.930 . S
H210 C190 0.931 . S
H211 C191 0.930 . S
H212 C199 0.931 . S
H213 C200 0.926 1_565 S
H214 C208 0.929 . S
H215 C209 0.930 . S
Mn216 O221 2.095 . S
Mn216 O231 2.162 . S
Mn216 O232 2.297 . S
Mn216 O240 2.385 . S
Mn216 O241 2.209 . S
Mn216 O242 2.094 . S
Mn217 O222 2.121 . S
Mn217 N224 2.257 . S
Mn217 N233 2.282 . S
Mn217 O241 2.215 . S
Mn217 O243 2.117 . S
C218 O240 1.234 . S
C218 O241 1.283 . S
C219 O231 1.281 . S
C219 O232 1.236 . S
C220 O242 1.240 . S
C220 O243 1.264 . S
O221 Mn216 2.095 . S
O221 C230 1.250 . S
O222 Mn217 2.121 . S
O222 C230 1.258 . S
C223 N224 1.326 . S
C223 C227 1.460 . S
C223 H229 0.929 . S
N224 Mn217 2.257 . S
N224 C223 1.326 . S
N224 C228 1.362 . S
C225 C226 1.258 . S
C225 C228 1.431 . S
C225 C245 1.449 . S
C226 C225 1.258 . S
C226 C227 1.477 . S
C226 H246 0.931 . S
C227 C223 1.460 . S
C227 C226 1.477 . S
C227 H247 0.930 . S
C228 N224 1.362 . S
C228 C225 1.431 . S
C228 C238 1.476 . S
H229 C223 0.929 . S
C230 O221 1.250 . S
C230 O222 1.258 . S
O231 Mn216 2.162 . S
O231 C219 1.281 . S
O232 Mn216 2.297 . S
O232 C219 1.236 . S
N233 Mn217 2.282 . S
N233 C234 1.328 . S
N233 C238 1.318 . S
C234 N233 1.328 . S
C234 C235 1.457 . S
C234 H239 0.929 . S
C235 C234 1.457 . S
C235 C236 1.291 . S
C235 H248 0.931 . S
C236 C235 1.291 . S
C236 C237 1.373 . S
C236 H249 0.929 . S
C237 C236 1.373 . S
C237 C238 1.396 . S
C237 C244 1.403 . S
C238 C228 1.476 . S
C238 N233 1.318 . S
C238 C237 1.396 . S
H239 C234 0.929 . S
O240 Mn216 2.385 . S
O240 C218 1.234 . S
O241 Mn216 2.209 . S
O241 Mn217 2.215 . S
O241 C218 1.283 . S
O242 Mn216 2.094 . S
O242 C220 1.240 . S
O243 Mn217 2.117 . S
O243 C220 1.264 . S
C244 C237 1.403 . S
C244 C245 1.399 . S
C244 H250 0.929 . S
C245 C225 1.449 . S
C245 C244 1.399 . S
C245 H251 0.930 . S
H246 C226 0.931 . S
H247 C227 0.930 . S
H248 C235 0.931 . S
H249 C236 0.929 . S
H250 C244 0.929 . S
H251 C245 0.930 . S
Mn252 O257 2.095 . S
Mn252 O267 2.162 . S
Mn252 O268 2.297 . S
Mn252 O276 2.385 . S
Mn252 O277 2.209 . S
Mn252 O278 2.094 . S
Mn253 O258 2.121 . S
Mn253 N260 2.257 . S
Mn253 N269 2.282 . S
Mn253 O277 2.215 . S
Mn253 O279 2.117 . S
C254 O276 1.234 . S
C254 O277 1.283 . S
C255 O267 1.281 . S
C255 O268 1.236 . S
C256 O278 1.240 . S
C256 O279 1.264 . S
O257 Mn252 2.095 . S
O257 C266 1.250 . S
O258 Mn253 2.121 . S
O258 C266 1.258 . S
C259 N260 1.326 . S
C259 C263 1.460 . S
C259 H265 0.929 . S
N260 Mn253 2.257 . S
N260 C259 1.326 . S
N260 C264 1.362 . S
C261 C262 1.258 . S
C261 C264 1.431 . S
C261 C281 1.449 . S
C262 C261 1.258 . S
C262 C263 1.477 . S
C262 H282 0.931 . S
C263 C259 1.460 . S
C263 C262 1.477 . S
C263 H283 0.930 . S
C264 N260 1.362 . S
C264 C261 1.431 . S
C264 C274 1.476 . S
H265 C259 0.929 . S
C266 O257 1.250 . S
C266 O258 1.258 . S
O267 Mn252 2.162 . S
O267 C255 1.281 . S
O268 Mn252 2.297 . S
O268 C255 1.236 . S
N269 Mn253 2.282 . S
N269 C270 1.328 . S
N269 C274 1.318 . S
C270 N269 1.328 . S
C270 C271 1.457 . S
C270 H275 0.929 . S
C271 C270 1.457 . S
C271 C272 1.291 . S
C271 H284 0.931 . S
C272 C271 1.291 . S
C272 C273 1.373 . S
C272 H285 0.929 . S
C273 C272 1.373 . S
C273 C274 1.396 . S
C273 C280 1.403 . S
C274 C264 1.476 . S
C274 N269 1.318 . S
C274 C273 1.396 . S
H275 C270 0.929 . S
O276 Mn252 2.385 . S
O276 C254 1.234 . S
O277 Mn252 2.209 . S
O277 Mn253 2.215 . S
O277 C254 1.283 . S
O278 Mn252 2.094 . S
O278 C256 1.240 . S
O279 Mn253 2.117 . S
O279 C256 1.264 . S
C280 C273 1.403 . S
C280 C281 1.399 . S
C280 H286 0.929 . S
C281 C261 1.449 . S
C281 C280 1.399 . S
C281 H287 0.930 . S
H282 C262 0.931 . S
H283 C263 0.930 . S
H284 C271 0.931 . S
H285 C272 0.929 . S
H286 C280 0.929 . S
H287 C281 0.930 . S
Mn288 O293 2.095 . S
Mn288 O303 2.162 . S
Mn288 O304 2.297 . S
Mn288 O312 2.385 . S
Mn288 O313 2.209 . S
Mn288 O314 2.094 . S
Mn289 O294 2.121 . S
Mn289 N296 2.257 . S
Mn289 N305 2.282 . S
Mn289 O313 2.215 . S
Mn289 O315 2.117 . S
C290 O312 1.234 . S
C290 O313 1.283 . S
C291 O303 1.281 . S
C291 O304 1.236 . S
C292 O314 1.240 . S
C292 O315 1.264 . S
O293 Mn288 2.095 . S
O293 C302 1.250 . S
O294 Mn289 2.121 . S
O294 C302 1.258 . S
C295 N296 1.326 . S
C295 C299 1.460 . S
C295 H301 0.929 . S
N296 Mn289 2.257 . S
N296 C295 1.326 . S
N296 C300 1.362 . S
C297 C298 1.258 . S
C297 C300 1.431 . S
C297 C317 1.449 . S
C298 C297 1.258 . S
C298 C299 1.477 . S
C298 H318 0.931 . S
C299 C295 1.460 . S
C299 C298 1.477 . S
C299 H319 0.930 . S
C300 N296 1.362 . S
C300 C297 1.431 . S
C300 C310 1.476 . S
H301 C295 0.929 . S
C302 O293 1.250 . S
C302 O294 1.258 . S
O303 Mn288 2.162 . S
O303 C291 1.281 . S
O304 Mn288 2.297 . S
O304 C291 1.236 . S
N305 Mn289 2.282 . S
N305 C306 1.328 . S
N305 C310 1.318 . S
C306 N305 1.328 . S
C306 C307 1.457 . S
C306 H311 0.929 . S
C307 C306 1.457 . S
C307 C308 1.291 . S
C307 H320 0.931 . S
C308 C307 1.291 . S
C308 C309 1.373 . S
C308 H321 0.929 . S
C309 C308 1.373 . S
C309 C310 1.396 . S
C309 C316 1.403 . S
C310 C300 1.476 . S
C310 N305 1.318 . S
C310 C309 1.396 . S
H311 C306 0.929 . S
O312 Mn288 2.385 . S
O312 C290 1.234 . S
O313 Mn288 2.209 . S
O313 Mn289 2.215 . S
O313 C290 1.283 . S
O314 Mn288 2.094 . S
O314 C292 1.240 . S
O315 Mn289 2.117 . S
O315 C292 1.264 . S
C316 C309 1.403 . S
C316 C317 1.399 . S
C316 H322 0.929 . S
C317 C297 1.449 . S
C317 C316 1.399 . S
C317 H323 0.930 . S
H318 C298 0.931 . S
H319 C299 0.930 . S
H320 C307 0.931 . S
H321 C308 0.929 . S
H322 C316 0.929 . S
H323 C317 0.930 . S
Mn324 O329 2.095 . S
Mn324 O339 2.162 . S
Mn324 O340 2.297 . S
Mn324 O348 2.385 . S
Mn324 O349 2.209 . S
Mn324 O350 2.094 . S
Mn325 O330 2.121 . S
Mn325 N332 2.257 . S
Mn325 N341 2.282 . S
Mn325 O349 2.215 . S
Mn325 O351 2.117 . S
C326 O348 1.234 . S
C326 O349 1.283 . S
C327 O339 1.281 . S
C327 O340 1.236 . S
C328 O350 1.240 . S
C328 O351 1.264 . S
O329 Mn324 2.095 . S
O329 C338 1.250 . S
O330 Mn325 2.121 . S
O330 C338 1.258 . S
C331 N332 1.326 . S
C331 C335 1.460 . S
C331 H337 0.929 . S
N332 Mn325 2.257 . S
N332 C331 1.326 . S
N332 C336 1.362 . S
C333 C334 1.258 . S
C333 C336 1.431 . S
C333 C353 1.449 . S
C334 C333 1.258 . S
C334 C335 1.477 . S
C334 H354 0.931 . S
C335 C331 1.460 . S
C335 C334 1.477 . S
C335 H355 0.930 1_554 S
C336 N332 1.362 . S
C336 C333 1.431 . S
C336 C346 1.476 . S
H337 C331 0.929 . S
C338 O329 1.250 . S
C338 O330 1.258 . S
O339 Mn324 2.162 . S
O339 C327 1.281 . S
O340 Mn324 2.297 . S
O340 C327 1.236 . S
N341 Mn325 2.282 . S
N341 C342 1.328 . S
N341 C346 1.318 . S
C342 N341 1.328 . S
C342 C343 1.457 . S
C342 H347 0.929 . S
C343 C342 1.457 . S
C343 C344 1.291 . S
C343 H356 0.931 . S
C344 C343 1.291 . S
C344 C345 1.373 . S
C344 H357 0.929 . S
C345 C344 1.373 . S
C345 C346 1.396 . S
C345 C352 1.403 . S
C346 C336 1.476 . S
C346 N341 1.318 . S
C346 C345 1.396 . S
H347 C342 0.929 . S
O348 Mn324 2.385 . S
O348 C326 1.234 . S
O349 Mn324 2.209 . S
O349 Mn325 2.215 . S
O349 C326 1.283 . S
O350 Mn324 2.094 . S
O350 C328 1.240 . S
O351 Mn325 2.117 . S
O351 C328 1.264 . S
C352 C345 1.403 . S
C352 C353 1.399 . S
C352 H358 0.929 . S
C353 C333 1.449 . S
C353 C352 1.399 . S
C353 H359 0.930 . S
H354 C334 0.931 . S
H355 C335 0.930 1_556 S
H356 C343 0.931 . S
H357 C344 0.929 . S
H358 C352 0.929 . S
H359 C353 0.930 . S
Mn360 O365 2.095 . S
Mn360 O375 2.162 . S
Mn360 O376 2.297 . S
Mn360 O384 2.385 . S
Mn360 O385 2.209 . S
Mn360 O386 2.094 . S
Mn361 O366 2.121 . S
Mn361 N368 2.257 . S
Mn361 N377 2.282 . S
Mn361 O385 2.215 . S
Mn361 O387 2.117 . S
C362 O384 1.234 . S
C362 O385 1.283 . S
C363 O375 1.281 . S
C363 O376 1.236 . S
C364 O386 1.240 . S
C364 O387 1.264 . S
O365 Mn360 2.095 . S
O365 C374 1.250 . S
O366 Mn361 2.121 . S
O366 C374 1.258 . S
C367 N368 1.326 . S
C367 C371 1.460 . S
C367 H373 0.929 . S
N368 Mn361 2.257 . S
N368 C367 1.326 . S
N368 C372 1.362 . S
C369 C370 1.252 1_565 S
C369 C372 1.431 . S
C369 C389 1.449 1_565 S
C370 C369 1.252 1_545 S
C370 C371 1.465 1_545 S
C370 H390 0.948 . S
C371 C367 1.460 . S
C371 C370 1.465 1_565 S
C371 H391 0.930 . S
C372 N368 1.362 . S
C372 C369 1.431 . S
C372 C382 1.476 . S
H373 C367 0.929 . S
C374 O365 1.250 . S
C374 O366 1.258 . S
O375 Mn360 2.162 . S
O375 C363 1.281 . S
O376 Mn360 2.297 . S
O376 C363 1.236 . S
N377 Mn361 2.282 . S
N377 C378 1.328 . S
N377 C382 1.318 . S
C378 N377 1.328 . S
C378 C379 1.457 . S
C378 H383 0.929 . S
C379 C378 1.457 . S
C379 C380 1.291 . S
C379 H392 0.931 . S
C380 C379 1.291 . S
C380 C381 1.373 . S
C380 H393 0.883 1_565 S
C381 C380 1.373 . S
C381 C382 1.396 . S
C381 C388 1.403 1_565 S
C382 C372 1.476 . S
C382 N377 1.318 . S
C382 C381 1.396 . S
H383 C378 0.929 . S
O384 Mn360 2.385 . S
O384 C362 1.234 . S
O385 Mn360 2.209 . S
O385 Mn361 2.215 . S
O385 C362 1.283 . S
O386 Mn360 2.094 . S
O386 C364 1.240 . S
O387 Mn361 2.117 . S
O387 C364 1.264 . S
C388 C381 1.403 1_545 S
C388 C389 1.399 . S
C388 H394 0.929 . S
C389 C369 1.449 1_545 S
C389 C388 1.399 . S
C389 H395 0.930 . S
H390 C370 0.948 . S
H391 C371 0.930 . S
H392 C379 0.931 . S
H393 C380 0.883 1_545 S
H394 C388 0.929 . S
H395 C389 0.930 . S
Mn396 O401 2.095 . S
Mn396 O411 2.162 . S
Mn396 O412 2.297 . S
Mn396 O420 2.385 . S
Mn396 O421 2.209 . S
Mn396 O422 2.094 . S
Mn397 O402 2.121 . S
Mn397 N404 2.257 . S
Mn397 N413 2.282 . S
Mn397 O421 2.215 . S
Mn397 O423 2.117 . S
C398 O420 1.234 . S
C398 O421 1.283 . S
C399 O411 1.281 . S
C399 O412 1.236 . S
C400 O422 1.240 . S
C400 O423 1.264 . S
O401 Mn396 2.095 . S
O401 C410 1.250 . S
O402 Mn397 2.121 . S
O402 C410 1.258 . S
C403 N404 1.326 . S
C403 C407 1.460 . S
C403 H409 0.929 . S
N404 Mn397 2.257 . S
N404 C403 1.326 . S
N404 C408 1.362 . S
C405 C406 1.258 . S
C405 C408 1.431 . S
C405 C425 1.449 . S
C406 C405 1.258 . S
C406 C407 1.477 . S
C406 H426 0.931 . S
C407 C403 1.460 . S
C407 C406 1.477 . S
C407 H427 0.930 . S
C408 N404 1.362 . S
C408 C405 1.431 . S
C408 C418 1.476 . S
H409 C403 0.929 . S
C410 O401 1.250 . S
C410 O402 1.258 . S
O411 Mn396 2.162 . S
O411 C399 1.281 . S
O412 Mn396 2.297 . S
O412 C399 1.236 . S
N413 Mn397 2.282 . S
N413 C414 1.328 . S
N413 C418 1.318 . S
C414 N413 1.328 . S
C414 C415 1.457 . S
C414 H419 0.929 . S
C415 C414 1.457 . S
C415 C416 1.291 . S
C415 H428 0.931 . S
C416 C415 1.291 . S
C416 C417 1.373 . S
C416 H429 0.929 . S
C417 C416 1.373 . S
C417 C418 1.396 . S
C417 C424 1.403 . S
C418 C408 1.476 . S
C418 N413 1.318 . S
C418 C417 1.396 . S
H419 C414 0.929 . S
O420 Mn396 2.385 . S
O420 C398 1.234 . S
O421 Mn396 2.209 . S
O421 Mn397 2.215 . S
O421 C398 1.283 . S
O422 Mn396 2.094 . S
O422 C400 1.240 . S
O423 Mn397 2.117 . S
O423 C400 1.264 . S
C424 C417 1.403 . S
C424 C425 1.399 . S
C424 H430 0.929 . S
C425 C405 1.449 . S
C425 C424 1.399 . S
C425 H431 0.930 . S
H426 C406 0.931 . S
H427 C407 0.930 . S
H428 C415 0.931 . S
H429 C416 0.929 . S
H430 C424 0.929 . S
H431 C425 0.930 . S
Mn432 O437 2.095 . S
Mn432 O447 2.162 . S
Mn432 O448 2.297 . S
Mn432 O456 2.385 . S
Mn432 O457 2.209 . S
Mn432 O458 2.094 . S
Mn433 O438 2.121 . S
Mn433 N440 2.257 . S
Mn433 N449 2.282 . S
Mn433 O457 2.215 . S
Mn433 O459 2.117 . S
C434 O456 1.234 . S
C434 O457 1.283 . S
C435 O447 1.281 . S
C435 O448 1.236 . S
C436 O458 1.240 . S
C436 O459 1.264 . S
O437 Mn432 2.095 . S
O437 C446 1.250 . S
O438 Mn433 2.121 . S
O438 C446 1.258 . S
C439 N440 1.326 . S
C439 C443 1.460 . S
C439 H445 0.929 . S
N440 Mn433 2.257 . S
N440 C439 1.326 . S
N440 C444 1.362 . S
C441 C442 1.258 . S
C441 C444 1.431 . S
C441 C461 1.449 . S
C442 C441 1.258 . S
C442 C443 1.477 . S
C442 H462 0.931 . S
C443 C439 1.460 . S
C443 C442 1.477 . S
C443 H463 0.930 . S
C444 N440 1.362 . S
C444 C441 1.431 . S
C444 C454 1.476 . S
H445 C439 0.929 . S
C446 O437 1.250 . S
C446 O438 1.258 . S
O447 Mn432 2.162 . S
O447 C435 1.281 . S
O448 Mn432 2.297 . S
O448 C435 1.236 . S
N449 Mn433 2.282 . S
N449 C450 1.328 . S
N449 C454 1.318 . S
C450 N449 1.328 . S
C450 C451 1.457 . S
C450 H455 0.929 . S
C451 C450 1.457 . S
C451 C452 1.291 . S
C451 H464 0.931 . S
C452 C451 1.291 . S
C452 C453 1.373 . S
C452 H465 0.929 . S
C453 C452 1.373 . S
C453 C454 1.396 . S
C453 C460 1.403 . S
C454 C444 1.476 . S
C454 N449 1.318 . S
C454 C453 1.396 . S
H455 C450 0.929 . S
O456 Mn432 2.385 . S
O456 C434 1.234 . S
O457 Mn432 2.209 . S
O457 Mn433 2.215 . S
O457 C434 1.283 . S
O458 Mn432 2.094 . S
O458 C436 1.240 . S
O459 Mn433 2.117 . S
O459 C436 1.264 . S
C460 C453 1.403 . S
C460 C461 1.399 . S
C460 H466 0.929 . S
C461 C441 1.449 . S
C461 C460 1.399 . S
C461 H467 0.930 . S
H462 C442 0.931 . S
H463 C443 0.930 . S
H464 C451 0.931 . S
H465 C452 0.929 . S
H466 C460 0.929 . S
H467 C461 0.930 . S
Mn468 O473 2.095 . S
Mn468 O483 2.162 . S
Mn468 O484 2.297 . S
Mn468 O492 2.385 . S
Mn468 O493 2.209 . S
Mn468 O494 2.092 1_556 S
Mn469 O474 2.121 . S
Mn469 N476 2.257 . S
Mn469 N485 2.282 1_556 S
Mn469 O493 2.215 . S
Mn469 O495 2.117 1_556 S
C470 O492 1.234 . S
C470 O493 1.283 . S
C471 O483 1.281 . S
C471 O484 1.236 . S
C472 O494 1.241 . S
C472 O495 1.264 . S
O473 Mn468 2.095 . S
O473 C482 1.250 . S
O474 Mn469 2.121 . S
O474 C482 1.258 . S
C475 N476 1.326 . S
C475 C479 1.460 . S
C475 H481 0.929 . S
N476 Mn469 2.257 . S
N476 C475 1.326 . S
N476 C480 1.362 . S
C477 C478 1.258 . S
C477 C480 1.431 . S
C477 C497 1.449 1_556 S
C478 C477 1.258 . S
C478 C479 1.477 . S
C478 H498 0.931 . S
C479 C475 1.460 . S
C479 C478 1.477 . S
C479 H499 0.930 . S
C480 N476 1.362 . S
C480 C477 1.431 . S
C480 C490 1.476 1_556 S
H481 C475 0.929 . S
C482 O473 1.250 . S
C482 O474 1.258 . S
O483 Mn468 2.162 . S
O483 C471 1.281 . S
O484 Mn468 2.297 . S
O484 C471 1.236 . S
N485 Mn469 2.282 1_554 S
N485 C486 1.328 . S
N485 C490 1.318 . S
C486 N485 1.328 . S
C486 C487 1.457 . S
C486 H491 0.929 . S
C487 C486 1.457 . S
C487 C488 1.291 . S
C487 H500 0.931 . S
C488 C487 1.291 . S
C488 C489 1.373 . S
C488 H501 0.929 . S
C489 C488 1.373 . S
C489 C490 1.396 . S
C489 C496 1.403 . S
C490 C480 1.476 1_554 S
C490 N485 1.318 . S
C490 C489 1.396 . S
H491 C486 0.929 . S
O492 Mn468 2.385 . S
O492 C470 1.234 . S
O493 Mn468 2.209 . S
O493 Mn469 2.215 . S
O493 C470 1.283 . S
O494 Mn468 2.092 1_554 S
O494 C472 1.241 . S
O495 Mn469 2.117 1_554 S
O495 C472 1.264 . S
C496 C489 1.403 . S
C496 C497 1.399 . S
C496 H502 0.929 . S
C497 C477 1.449 1_554 S
C497 C496 1.399 . S
C497 H503 0.930 . S
H498 C478 0.931 . S
H499 C479 0.930 . S
H500 C487 0.931 . S
H501 C488 0.929 . S
H502 C496 0.929 . S
H503 C497 0.930 . S
Mn504 O509 2.095 . S
Mn504 O519 2.162 . S
Mn504 O520 2.297 . S
Mn504 O528 2.385 . S
Mn504 O529 2.209 . S
Mn504 O530 2.094 . S
Mn505 O510 2.121 . S
Mn505 N512 2.257 . S
Mn505 N521 2.282 . S
Mn505 O529 2.215 . S
Mn505 O531 2.117 . S
C506 O528 1.223 . S
C506 O529 1.335 . S
C507 O519 1.281 . S
C507 O520 1.236 . S
C508 O530 1.240 . S
C508 O531 1.264 . S
O509 Mn504 2.095 . S
O509 C518 1.250 . S
O510 Mn505 2.121 . S
O510 C518 1.258 . S
C511 N512 1.326 . S
C511 C515 1.460 1_655 S
C511 H517 0.929 . S
N512 Mn505 2.257 . S
N512 C511 1.326 . S
N512 C516 1.362 1_655 S
C513 C514 1.258 . S
C513 C516 1.431 . S
C513 C533 1.449 . S
C514 C513 1.258 . S
C514 C515 1.477 . S
C514 H534 0.931 . S
C515 C511 1.460 1_455 S
C515 C514 1.477 . S
C515 H535 0.930 . S
C516 N512 1.362 1_455 S
C516 C513 1.431 . S
C516 C526 1.476 . S
H517 C511 0.929 . S
C518 O509 1.250 . S
C518 O510 1.258 . S
O519 Mn504 2.162 . S
O519 C507 1.281 . S
O520 Mn504 2.297 . S
O520 C507 1.236 . S
N521 Mn505 2.282 . S
N521 C522 1.328 . S
N521 C526 1.318 1_655 S
C522 N521 1.328 . S
C522 C523 1.465 . S
C522 H527 0.929 . S
C523 C522 1.465 . S
C523 C524 1.286 1_655 S
C523 H536 0.928 . S
C524 C523 1.286 1_455 S
C524 C525 1.373 . S
C524 H537 0.929 . S
C525 C524 1.373 . S
C525 C526 1.396 . S
C525 C532 1.403 . S
C526 C516 1.476 . S
C526 N521 1.318 1_455 S
C526 C525 1.396 . S
H527 C522 0.929 . S
O528 Mn504 2.385 . S
O528 C506 1.223 . S
O529 Mn504 2.209 . S
O529 Mn505 2.215 . S
O529 C506 1.335 . S
O530 Mn504 2.094 . S
O530 C508 1.240 . S
O531 Mn505 2.117 . S
O531 C508 1.264 . S
C532 C525 1.403 . S
C532 C533 1.399 . S
C532 H538 0.929 . S
C533 C513 1.449 . S
C533 C532 1.399 . S
C533 H539 0.930 . S
H534 C514 0.931 . S
H535 C515 0.930 . S
H536 C523 0.928 . S
H537 C524 0.929 . S
H538 C532 0.929 . S
H539 C533 0.930 . S
Mn540 O545 2.095 . S
Mn540 O555 2.162 . S
Mn540 O556 2.297 . S
Mn540 O564 2.385 . S
Mn540 O565 2.209 . S
Mn540 O566 2.094 . S
Mn541 O546 2.121 . S
Mn541 N548 2.257 . S
Mn541 N557 2.282 . S
Mn541 O565 2.215 . S
Mn541 O567 2.117 . S
C542 O564 1.234 . S
C542 O565 1.283 . S
C543 O555 1.281 . S
C543 O556 1.236 . S
C544 O566 1.240 . S
C544 O567 1.264 . S
O545 Mn540 2.095 . S
O545 C554 1.250 . S
O546 Mn541 2.121 . S
O546 C554 1.258 . S
C547 N548 1.326 . S
C547 C551 1.460 . S
C547 H553 0.929 . S
N548 Mn541 2.257 . S
N548 C547 1.326 . S
N548 C552 1.362 . S
C549 C550 1.258 . S
C549 C552 1.431 . S
C549 C569 1.449 . S
C550 C549 1.258 . S
C550 C551 1.477 . S
C550 H570 0.931 . S
C551 C547 1.460 . S
C551 C550 1.477 . S
C551 H571 0.930 . S
C552 N548 1.362 . S
C552 C549 1.431 . S
C552 C562 1.476 . S
H553 C547 0.929 . S
C554 O545 1.250 . S
C554 O546 1.258 . S
O555 Mn540 2.162 . S
O555 C543 1.281 . S
O556 Mn540 2.297 . S
O556 C543 1.236 . S
N557 Mn541 2.282 . S
N557 C558 1.328 . S
N557 C562 1.318 . S
C558 N557 1.328 . S
C558 C559 1.457 . S
C558 H563 0.929 . S
C559 C558 1.457 . S
C559 C560 1.291 . S
C559 H572 0.931 . S
C560 C559 1.291 . S
C560 C561 1.373 . S
C560 H573 0.929 . S
C561 C560 1.373 . S
C561 C562 1.396 . S
C561 C568 1.403 . S
C562 C552 1.476 . S
C562 N557 1.318 . S
C562 C561 1.396 . S
H563 C558 0.929 . S
O564 Mn540 2.385 . S
O564 C542 1.234 . S
O565 Mn540 2.209 . S
O565 Mn541 2.215 . S
O565 C542 1.283 . S
O566 Mn540 2.094 . S
O566 C544 1.240 . S
O567 Mn541 2.117 . S
O567 C544 1.264 . S
C568 C561 1.403 . S
C568 C569 1.399 . S
C568 H574 0.929 . S
C569 C549 1.449 . S
C569 C568 1.399 . S
C569 H575 0.930 . S
H570 C550 0.931 . S
H571 C551 0.930 . S
H572 C559 0.931 . S
H573 C560 0.929 . S
H574 C568 0.929 . S
H575 C569 0.930 . S
Mn576 O581 2.095 . S
Mn576 O591 2.200 . S
Mn576 O592 2.297 . S
Mn576 O600 2.385 . S
Mn576 O601 2.209 . S
Mn576 O602 2.094 . S
Mn577 O582 2.121 . S
Mn577 N584 2.257 . S
Mn577 N593 2.282 . S
Mn577 O601 2.215 . S
Mn577 O603 2.117 . S
C578 O600 1.234 . S
C578 O601 1.283 . S
C579 O591 1.285 1_455 S
C579 O592 1.236 1_455 S
C580 O602 1.240 . S
C580 O603 1.264 . S
O581 Mn576 2.095 . S
O581 C590 1.250 . S
O582 Mn577 2.121 . S
O582 C590 1.258 . S
C583 N584 1.326 . S
C583 C587 1.460 . S
C583 H589 0.929 . S
N584 Mn577 2.257 . S
N584 C583 1.326 . S
N584 C588 1.362 . S
C585 C586 1.258 . S
C585 C588 1.431 . S
C585 C605 1.449 . S
C586 C585 1.258 . S
C586 C587 1.477 . S
C586 H606 0.931 . S
C587 C583 1.460 . S
C587 C586 1.477 . S
C587 H607 0.930 . S
C588 N584 1.362 . S
C588 C585 1.431 . S
C588 C598 1.476 . S
H589 C583 0.929 . S
C590 O581 1.250 . S
C590 O582 1.258 . S
O591 Mn576 2.200 . S
O591 C579 1.285 1_655 S
O592 Mn576 2.297 . S
O592 C579 1.236 1_655 S
N593 Mn577 2.282 . S
N593 C594 1.328 . S
N593 C598 1.318 . S
C594 N593 1.328 . S
C594 C595 1.457 . S
C594 H599 0.929 . S
C595 C594 1.457 . S
C595 C596 1.291 . S
C595 H608 0.931 . S
C596 C595 1.291 . S
C596 C597 1.373 . S
C596 H609 0.929 . S
C597 C596 1.373 . S
C597 C598 1.396 . S
C597 C604 1.403 . S
C598 C588 1.476 . S
C598 N593 1.318 . S
C598 C597 1.396 . S
H599 C594 0.929 . S
O600 Mn576 2.385 . S
O600 C578 1.234 . S
O601 Mn576 2.209 . S
O601 Mn577 2.215 . S
O601 C578 1.283 . S
O602 Mn576 2.094 . S
O602 C580 1.240 . S
O603 Mn577 2.117 . S
O603 C580 1.264 . S
C604 C597 1.403 . S
C604 C605 1.399 . S
C604 H610 0.929 . S
C605 C585 1.449 . S
C605 C604 1.399 . S
C605 H611 0.930 . S
H606 C586 0.931 . S
H607 C587 0.930 . S
H608 C595 0.931 . S
H609 C596 0.929 . S
H610 C604 0.929 . S
H611 C605 0.930 . S
Mn612 O617 2.095 . S
Mn612 O627 2.162 . S
Mn612 O628 2.297 . S
Mn612 O636 2.385 . S
Mn612 O637 2.209 . S
Mn612 O638 2.094 . S
Mn613 O618 2.121 . S
Mn613 N620 2.257 . S
Mn613 N629 2.282 . S
Mn613 O637 2.215 . S
Mn613 O639 2.117 . S
C614 O636 1.234 . S
C614 O637 1.283 . S
C615 O627 1.281 . S
C615 O628 1.236 . S
C616 O638 1.240 . S
C616 O639 1.264 . S
O617 Mn612 2.095 . S
O617 C626 1.250 . S
O618 Mn613 2.121 . S
O618 C626 1.258 . S
C619 N620 1.326 . S
C619 C623 1.460 . S
C619 H625 0.929 . S
N620 Mn613 2.257 . S
N620 C619 1.326 . S
N620 C624 1.362 . S
C621 C622 1.258 . S
C621 C624 1.431 . S
C621 C641 1.449 . S
C622 C621 1.258 . S
C622 C623 1.477 . S
C622 H642 0.931 . S
C623 C619 1.460 . S
C623 C622 1.477 . S
C623 H643 0.930 . S
C624 N620 1.362 . S
C624 C621 1.431 . S
C624 C634 1.476 . S
H625 C619 0.929 . S
C626 O617 1.250 . S
C626 O618 1.258 . S
O627 Mn612 2.162 . S
O627 C615 1.281 . S
O628 Mn612 2.297 . S
O628 C615 1.236 . S
N629 Mn613 2.282 . S
N629 C630 1.328 . S
N629 C634 1.318 . S
C630 N629 1.328 . S
C630 C631 1.457 . S
C630 H635 0.929 . S
C631 C630 1.457 . S
C631 C632 1.291 . S
C631 H644 0.931 . S
C632 C631 1.291 . S
C632 C633 1.373 . S
C632 H645 0.929 . S
C633 C632 1.373 . S
C633 C634 1.396 . S
C633 C640 1.403 . S
C634 C624 1.476 . S
C634 N629 1.318 . S
C634 C633 1.396 . S
H635 C630 0.929 . S
O636 Mn612 2.385 . S
O636 C614 1.234 . S
O637 Mn612 2.209 . S
O637 Mn613 2.215 . S
O637 C614 1.283 . S
O638 Mn612 2.094 . S
O638 C616 1.240 . S
O639 Mn613 2.117 . S
O639 C616 1.264 . S
C640 C633 1.403 . S
C640 C641 1.399 . S
C640 H646 0.929 . S
C641 C621 1.449 . S
C641 C640 1.399 . S
C641 H647 0.930 . S
H642 C622 0.931 . S
H643 C623 0.930 . S
H644 C631 0.931 . S
H645 C632 0.929 . S
H646 C640 0.929 . S
H647 C641 0.930 . S
C648 C649 1.349 . S
C648 C650 1.327 . S
C648 H673 0.950 . S
C649 C648 1.349 . S
C649 C665 1.349 . S
C650 C648 1.327 . S
C650 C669 1.429 . S
C650 H674 0.950 . S
C651 C668 1.574 1_556 S
C651 C670 1.368 . S
C651 H675 0.949 1_556 S
H652 C656 0.949 . S
C653 C654 1.349 . S
C653 C655 1.327 . S
C653 H676 0.950 . S
C654 C653 1.349 . S
C654 C666 1.349 . S
C655 C653 1.327 . S
C655 C671 1.429 . S
C655 H677 0.950 . S
C656 H652 0.949 . S
C656 C664 1.574 . S
C656 C672 1.368 1_556 S
H657 C665 0.950 . S
H658 C663 0.950 . S
H659 C664 0.949 . S
H660 C666 0.950 . S
H661 C667 0.950 . S
H662 C668 0.949 . S
C663 H658 0.950 . S
C663 C665 1.327 . S
C663 C669 1.429 . S
C664 C656 1.574 . S
C664 H659 0.949 . S
C664 C670 1.368 . S
C665 C649 1.349 . S
C665 H657 0.950 . S
C665 C663 1.327 . S
C666 C654 1.349 . S
C666 H660 0.950 . S
C666 C667 1.327 . S
C667 H661 0.950 . S
C667 C666 1.327 . S
C667 C671 1.429 . S
C668 C651 1.574 1_554 S
C668 H662 0.949 . S
C668 C672 1.368 . S
C669 C650 1.429 . S
C669 C663 1.429 . S
C669 C670 1.523 . S
C670 C651 1.368 . S
C670 C664 1.368 . S
C670 C669 1.523 . S
C671 C655 1.429 . S
C671 C667 1.429 . S
C671 C672 1.523 . S
C672 C656 1.368 1_554 S
C672 C668 1.368 . S
C672 C671 1.523 . S
H673 C648 0.950 . S
H674 C650 0.950 . S
H675 C651 0.949 1_554 S
H676 C653 0.950 . S
H677 C655 0.950 . S
C678 C679 1.349 . S
C678 C680 1.327 . S
C678 H703 0.950 . S
C679 C678 1.349 . S
C679 C695 1.349 . S
C680 C678 1.327 . S
C680 C699 1.429 . S
C680 H704 0.950 . S
C681 C698 1.574 . S
C681 C700 1.368 . S
C681 H705 0.949 . S
H682 C686 0.949 . S
C683 C684 1.349 . S
C683 C685 1.327 . S
C683 H706 0.950 . S
C684 C683 1.349 . S
C684 C696 1.349 . S
C685 C683 1.327 . S
C685 C701 1.429 . S
C685 H707 0.950 . S
C686 H682 0.949 . S
C686 C694 1.574 . S
C686 C702 1.368 . S
H687 C695 0.950 . S
H688 C693 0.950 . S
H689 C694 0.949 . S
H690 C696 0.950 . S
H691 C697 0.950 . S
H692 C698 0.949 . S
C693 H688 0.950 . S
C693 C695 1.327 . S
C693 C699 1.429 . S
C694 C686 1.574 . S
C694 H689 0.949 . S
C694 C700 1.368 1_554 S
C695 C679 1.349 . S
C695 H687 0.950 . S
C695 C693 1.327 . S
C696 C684 1.349 . S
C696 H690 0.950 . S
C696 C697 1.327 . S
C697 H691 0.950 . S
C697 C696 1.327 . S
C697 C701 1.429 . S
C698 C681 1.574 . S
C698 H692 0.949 . S
C698 C702 1.368 1_556 S
C699 C680 1.429 . S
C699 C693 1.429 . S
C699 C700 1.523 . S
C700 C681 1.368 . S
C700 C694 1.368 1_556 S
C700 C699 1.523 . S
C701 C685 1.429 . S
C701 C697 1.429 . S
C701 C702 1.523 . S
C702 C686 1.368 . S
C702 C698 1.368 1_554 S
C702 C701 1.523 . S
H703 C678 0.950 . S
H704 C680 0.950 . S
H705 C681 0.949 . S
H706 C683 0.950 . S
H707 C685 0.950 . S
C708 C709 1.349 . S
C708 C710 1.327 . S
C708 H733 0.950 . S
C709 C708 1.349 . S
C709 C725 1.349 . S
C710 C708 1.327 . S
C710 C729 1.429 . S
C710 H734 0.950 . S
C711 C728 1.574 1_554 S
C711 C730 1.368 . S
C711 H735 0.949 . S
H712 C716 0.949 . S
C713 C714 1.349 . S
C713 C715 1.327 . S
C713 H736 0.950 . S
C714 C713 1.349 . S
C714 C726 1.349 . S
C715 C713 1.327 . S
C715 C731 1.429 . S
C715 H737 0.950 . S
C716 H712 0.949 . S
C716 C724 1.574 1_556 S
C716 C732 1.368 . S
H717 C725 0.950 . S
H718 C723 0.950 . S
H719 C724 0.949 . S
H720 C726 0.950 . S
H721 C727 0.950 . S
H722 C728 0.949 . S
C723 H718 0.950 . S
C723 C725 1.327 . S
C723 C729 1.429 . S
C724 C716 1.574 1_554 S
C724 H719 0.949 . S
C724 C730 1.368 . S
C725 C709 1.349 . S
C725 H717 0.950 . S
C725 C723 1.327 . S
C726 C714 1.349 . S
C726 H720 0.950 . S
C726 C727 1.327 . S
C727 H721 0.950 . S
C727 C726 1.327 . S
C727 C731 1.429 . S
C728 C711 1.574 1_556 S
C728 H722 0.949 . S
C728 C732 1.368 . S
C729 C710 1.429 . S
C729 C723 1.429 . S
C729 C730 1.523 . S
C730 C711 1.368 . S
C730 C724 1.368 . S
C730 C729 1.523 . S
C731 C715 1.429 . S
C731 C727 1.429 . S
C731 C732 1.523 . S
C732 C716 1.368 . S
C732 C728 1.368 . S
C732 C731 1.523 . S
H733 C708 0.950 . S
H734 C710 0.950 . S
H735 C711 0.949 . S
H736 C713 0.950 . S
H737 C715 0.950 . S
C738 C739 1.349 . S
C738 C740 1.327 . S
C738 H763 0.950 . S
C739 C738 1.349 . S
C739 C755 1.349 . S
C740 C738 1.327 . S
C740 C759 1.429 . S
C740 H764 0.950 . S
C741 C758 1.574 . S
C741 C760 1.368 . S
C741 H765 0.949 . S
H742 C746 0.949 . S
C743 C744 1.349 . S
C743 C745 1.327 . S
C743 H766 0.950 . S
C744 C743 1.349 . S
C744 C756 1.349 . S
C745 C743 1.327 . S
C745 C761 1.429 . S
C745 H767 0.950 . S
C746 H742 0.949 . S
C746 C754 1.574 . S
C746 C762 1.368 . S
H747 C755 0.950 . S
H748 C753 0.950 . S
H749 C754 0.949 . S
H750 C756 0.950 . S
H751 C757 0.950 . S
H752 C758 0.949 . S
C753 H748 0.950 . S
C753 C755 1.327 . S
C753 C759 1.429 . S
C754 C746 1.574 . S
C754 H749 0.949 . S
C754 C760 1.368 . S
C755 C739 1.349 . S
C755 H747 0.950 . S
C755 C753 1.327 . S
C756 C744 1.349 . S
C756 H750 0.950 . S
C756 C757 1.327 . S
C757 H751 0.950 . S
C757 C756 1.327 . S
C757 C761 1.429 . S
C758 C741 1.574 . S
C758 H752 0.949 . S
C758 C762 1.368 . S
C759 C740 1.429 . S
C759 C753 1.429 . S
C759 C760 1.523 . S
C760 C741 1.368 . S
C760 C754 1.368 . S
C760 C759 1.523 . S
C761 C745 1.429 . S
C761 C757 1.429 . S
C761 C762 1.523 . S
C762 C746 1.368 . S
C762 C758 1.368 . S
C762 C761 1.523 . S
H763 C738 0.950 . S
H764 C740 0.950 . S
H765 C741 0.949 . S
H766 C743 0.950 . S
H767 C745 0.950 . S
C768 C769 1.349 . S
C768 C770 1.327 . S
C768 H793 0.950 . S
C769 C768 1.349 . S
C769 C785 1.349 . S
C770 C768 1.327 . S
C770 C789 1.429 . S
C770 H794 0.950 . S
C771 C788 1.574 . S
C771 C790 1.368 . S
C771 H795 0.949 . S
H772 C776 0.949 . S
C773 C774 1.349 . S
C773 C775 1.327 . S
C773 H796 0.950 . S
C774 C773 1.349 . S
C774 C786 1.349 . S
C775 C773 1.327 . S
C775 C791 1.429 . S
C775 H797 0.950 . S
C776 H772 0.949 . S
C776 C784 1.574 . S
C776 C792 1.368 . S
H777 C785 0.950 . S
H778 C783 0.950 . S
H779 C784 0.949 . S
H780 C786 0.950 . S
H781 C787 0.950 . S
H782 C788 0.949 . S
C783 H778 0.950 . S
C783 C785 1.327 . S
C783 C789 1.429 . S
C784 C776 1.574 . S
C784 H779 0.949 . S
C784 C790 1.368 . S
C785 C769 1.349 . S
C785 H777 0.950 . S
C785 C783 1.327 . S
C786 C774 1.349 . S
C786 H780 0.950 . S
C786 C787 1.327 . S
C787 H781 0.950 . S
C787 C786 1.327 . S
C787 C791 1.429 . S
C788 C771 1.574 . S
C788 H782 0.949 . S
C788 C792 1.368 . S
C789 C770 1.429 . S
C789 C783 1.429 . S
C789 C790 1.523 . S
C790 C771 1.368 . S
C790 C784 1.368 . S
C790 C789 1.523 . S
C791 C775 1.429 . S
C791 C787 1.429 . S
C791 C792 1.523 . S
C792 C776 1.368 . S
C792 C788 1.368 . S
C792 C791 1.523 . S
H793 C768 0.950 . S
H794 C770 0.950 . S
H795 C771 0.949 . S
H796 C773 0.950 . S
H797 C775 0.950 . S
C798 C799 1.349 . S
C798 C800 1.327 . S
C798 H823 0.950 . S
C799 C798 1.349 . S
C799 C815 1.349 . S
C800 C798 1.327 . S
C800 C819 1.429 . S
C800 H824 0.950 . S
C801 C818 1.574 . S
C801 C820 1.368 . S
C801 H825 0.949 . S
H802 C806 0.949 . S
C803 C804 1.349 . S
C803 C805 1.327 . S
C803 H826 0.950 . S
C804 C803 1.349 . S
C804 C816 1.349 . S
C805 C803 1.327 . S
C805 C821 1.429 . S
C805 H827 0.950 . S
C806 H802 0.949 . S
C806 C814 1.574 . S
C806 C822 1.368 . S
H807 C815 0.950 . S
H808 C813 0.950 . S
H809 C814 0.949 . S
H810 C816 0.950 . S
H811 C817 0.950 . S
H812 C818 0.949 . S
C813 H808 0.950 . S
C813 C815 1.327 . S
C813 C819 1.429 . S
C814 C806 1.574 . S
C814 H809 0.949 . S
C814 C820 1.368 . S
C815 C799 1.349 . S
C815 H807 0.950 . S
C815 C813 1.327 . S
C816 C804 1.349 . S
C816 H810 0.950 . S
C816 C817 1.327 . S
C817 H811 0.950 . S
C817 C816 1.327 . S
C817 C821 1.429 . S
C818 C801 1.574 . S
C818 H812 0.949 . S
C818 C822 1.368 . S
C819 C800 1.429 . S
C819 C813 1.429 . S
C819 C820 1.523 . S
C820 C801 1.368 . S
C820 C814 1.368 . S
C820 C819 1.523 . S
C821 C805 1.429 . S
C821 C817 1.429 . S
C821 C822 1.523 . S
C822 C806 1.368 . S
C822 C818 1.368 . S
C822 C821 1.523 . S
H823 C798 0.950 . S
H824 C800 0.950 . S
H825 C801 0.949 . S
H826 C803 0.950 . S
H827 C805 0.950 . S
C828 C829 1.349 . S
C828 C830 1.327 . S
C828 H853 0.950 . S
C829 C828 1.349 . S
C829 C845 1.349 . S
C830 C828 1.327 . S
C830 C849 1.429 . S
C830 H854 0.950 . S
C831 C848 1.574 . S
C831 C850 1.368 . S
C831 H855 0.949 . S
H832 C836 0.949 . S
C833 C834 1.349 . S
C833 C835 1.327 . S
C833 H856 0.950 . S
C834 C833 1.349 . S
C834 C846 1.349 . S
C835 C833 1.327 . S
C835 C851 1.429 . S
C835 H857 0.950 . S
C836 H832 0.949 . S
C836 C844 1.574 . S
C836 C852 1.368 . S
H837 C845 0.950 . S
H838 C843 0.950 . S
H839 C844 0.949 . S
H840 C846 0.950 . S
H841 C847 0.950 . S
H842 C848 0.949 . S
C843 H838 0.950 . S
C843 C845 1.327 . S
C843 C849 1.429 . S
C844 C836 1.574 . S
C844 H839 0.949 . S
C844 C850 1.368 . S
C845 C829 1.349 . S
C845 H837 0.950 . S
C845 C843 1.327 . S
C846 C834 1.349 . S
C846 H840 0.950 . S
C846 C847 1.327 . S
C847 H841 0.950 . S
C847 C846 1.327 . S
C847 C851 1.429 . S
C848 C831 1.574 . S
C848 H842 0.949 . S
C848 C852 1.368 . S
C849 C830 1.429 . S
C849 C843 1.429 . S
C849 C850 1.523 . S
C850 C831 1.368 . S
C850 C844 1.368 . S
C850 C849 1.523 . S
C851 C835 1.429 . S
C851 C847 1.429 . S
C851 C852 1.523 . S
C852 C836 1.368 . S
C852 C848 1.368 . S
C852 C851 1.523 . S
H853 C828 0.950 . S
H854 C830 0.950 . S
H855 C831 0.949 . S
H856 C833 0.950 . S
H857 C835 0.950 . S
C858 C859 1.349 . S
C858 C860 1.327 . S
C858 H883 0.950 . S
C859 C858 1.349 . S
C859 C875 1.349 . S
C860 C858 1.327 . S
C860 C879 1.429 . S
C860 H884 0.950 . S
C861 C878 1.574 . S
C861 C880 1.368 . S
C861 H885 0.949 . S
H862 C866 0.949 . S
C863 C864 1.349 . S
C863 C865 1.327 . S
C863 H886 0.950 . S
C864 C863 1.349 . S
C864 C876 1.349 . S
C865 C863 1.327 . S
C865 C881 1.429 . S
C865 H887 0.950 . S
C866 H862 0.949 . S
C866 C874 1.574 . S
C866 C882 1.368 . S
H867 C875 0.950 . S
H868 C873 0.950 . S
H869 C874 0.949 . S
H870 C876 0.950 . S
H871 C877 0.950 . S
H872 C878 0.949 . S
C873 H868 0.950 . S
C873 C875 1.327 . S
C873 C879 1.429 . S
C874 C866 1.574 . S
C874 H869 0.949 . S
C874 C880 1.368 . S
C875 C859 1.349 . S
C875 H867 0.950 . S
C875 C873 1.327 . S
C876 C864 1.349 . S
C876 H870 0.950 . S
C876 C877 1.327 . S
C877 H871 0.950 . S
C877 C876 1.327 . S
C877 C881 1.429 . S
C878 C861 1.574 . S
C878 H872 0.949 . S
C878 C882 1.368 . S
C879 C860 1.429 . S
C879 C873 1.429 . S
C879 C880 1.523 . S
C880 C861 1.368 . S
C880 C874 1.368 . S
C880 C879 1.523 . S
C881 C865 1.429 . S
C881 C877 1.429 . S
C881 C882 1.523 . S
C882 C866 1.368 . S
C882 C878 1.368 . S
C882 C881 1.523 . S
H883 C858 0.950 . S
H884 C860 0.950 . S
H885 C861 0.949 . S
H886 C863 0.950 . S
H887 C865 0.950 . S
C888 C889 1.349 . S
C888 C890 1.327 . S
C888 H913 0.950 . S
C889 C888 1.349 . S
C889 C905 1.349 . S
C890 C888 1.327 . S
C890 C909 1.429 . S
C890 H914 0.950 . S
C891 C908 1.574 . S
C891 C910 1.368 . S
C891 H915 0.949 . S
H892 C896 0.949 . S
C893 C894 1.349 . S
C893 C895 1.327 . S
C893 H916 0.950 . S
C894 C893 1.349 . S
C894 C906 1.349 . S
C895 C893 1.327 . S
C895 C911 1.429 . S
C895 H917 0.950 . S
C896 H892 0.949 . S
C896 C904 1.574 . S
C896 C912 1.368 . S
H897 C905 0.950 . S
H898 C903 0.950 . S
H899 C904 0.949 . S
H900 C906 0.950 . S
H901 C907 0.950 . S
H902 C908 0.949 . S
C903 H898 0.950 . S
C903 C905 1.327 . S
C903 C909 1.429 . S
C904 C896 1.574 . S
C904 H899 0.949 . S
C904 C910 1.368 . S
C905 C889 1.349 . S
C905 H897 0.950 . S
C905 C903 1.327 . S
C906 C894 1.349 . S
C906 H900 0.950 . S
C906 C907 1.327 . S
C907 H901 0.950 . S
C907 C906 1.327 . S
C907 C911 1.429 . S
C908 C891 1.574 . S
C908 H902 0.949 . S
C908 C912 1.368 . S
C909 C890 1.429 . S
C909 C903 1.429 . S
C909 C910 1.523 . S
C910 C891 1.368 . S
C910 C904 1.368 . S
C910 C909 1.523 . S
C911 C895 1.429 . S
C911 C907 1.429 . S
C911 C912 1.523 . S
C912 C896 1.368 . S
C912 C908 1.368 . S
C912 C911 1.523 . S
H913 C888 0.950 . S
H914 C890 0.950 . S
H915 C891 0.949 . S
H916 C893 0.950 . S
H917 C895 0.950 . S
C918 C919 1.349 . S
C918 C920 1.327 . S
C918 H943 0.950 . S
C919 C918 1.349 . S
C919 C935 1.349 . S
C920 C918 1.327 . S
C920 C939 1.429 . S
C920 H944 0.950 . S
C921 C938 1.574 . S
C921 C940 1.368 . S
C921 H945 0.949 . S
H922 C926 0.949 . S
C923 C924 1.349 . S
C923 C925 1.327 . S
C923 H946 0.950 . S
C924 C923 1.349 . S
C924 C936 1.349 . S
C925 C923 1.327 . S
C925 C941 1.429 . S
C925 H947 0.950 . S
C926 H922 0.949 . S
C926 C934 1.574 . S
C926 C942 1.368 . S
H927 C935 0.950 1_554 S
H928 C933 0.950 . S
H929 C934 0.949 . S
H930 C936 0.950 . S
H931 C937 0.950 . S
H932 C938 0.949 . S
C933 H928 0.950 . S
C933 C935 1.327 . S
C933 C939 1.429 . S
C934 C926 1.574 . S
C934 H929 0.949 . S
C934 C940 1.368 . S
C935 C919 1.349 . S
C935 H927 0.950 1_556 S
C935 C933 1.327 . S
C936 C924 1.349 . S
C936 H930 0.950 . S
C936 C937 1.327 . S
C937 H931 0.950 . S
C937 C936 1.327 . S
C937 C941 1.429 . S
C938 C921 1.574 . S
C938 H932 0.949 . S
C938 C942 1.368 . S
C939 C920 1.429 . S
C939 C933 1.429 . S
C939 C940 1.523 . S
C940 C921 1.368 . S
C940 C934 1.368 . S
C940 C939 1.523 . S
C941 C925 1.429 . S
C941 C937 1.429 . S
C941 C942 1.523 . S
C942 C926 1.368 . S
C942 C938 1.368 . S
C942 C941 1.523 . S
H943 C918 0.950 . S
H944 C920 0.950 . S
H945 C921 0.949 . S
H946 C923 0.950 . S
H947 C925 0.950 . S
C948 C949 1.349 . S
C948 C950 1.327 . S
C948 H973 0.950 . S
C949 C948 1.349 . S
C949 C965 1.349 . S
C950 C948 1.327 . S
C950 C969 1.429 . S
C950 H974 0.950 . S
C951 C968 1.574 . S
C951 C970 1.368 . S
C951 H975 0.949 . S
H952 C956 0.949 . S
C953 C954 1.349 . S
C953 C955 1.327 . S
C953 H976 0.950 . S
C954 C953 1.349 . S
C954 C966 1.349 . S
C955 C953 1.327 . S
C955 C971 1.429 . S
C955 H977 0.950 . S
C956 H952 0.949 . S
C956 C964 1.574 . S
C956 C972 1.368 . S
H957 C965 0.950 . S
H958 C963 0.950 . S
H959 C964 0.949 . S
H960 C966 0.950 . S
H961 C967 0.950 . S
H962 C968 0.949 . S
C963 H958 0.950 . S
C963 C965 1.327 . S
C963 C969 1.429 . S
C964 C956 1.574 . S
C964 H959 0.949 . S
C964 C970 1.368 . S
C965 C949 1.349 . S
C965 H957 0.950 . S
C965 C963 1.327 . S
C966 C954 1.349 . S
C966 H960 0.950 . S
C966 C967 1.327 . S
C967 H961 0.950 . S
C967 C966 1.327 . S
C967 C971 1.429 . S
C968 C951 1.574 . S
C968 H962 0.949 . S
C968 C972 1.368 . S
C969 C950 1.429 . S
C969 C963 1.429 . S
C969 C970 1.523 . S
C970 C951 1.368 . S
C970 C964 1.368 . S
C970 C969 1.523 . S
C971 C955 1.429 . S
C971 C967 1.429 . S
C971 C972 1.523 . S
C972 C956 1.368 . S
C972 C968 1.368 . S
C972 C971 1.523 . S
H973 C948 0.950 . S
H974 C950 0.950 . S
H975 C951 0.949 . S
H976 C953 0.950 . S
H977 C955 0.950 . S
C978 C979 1.349 . S
C978 C980 1.327 . S
C978 H1003 0.950 . S
C979 C978 1.349 . S
C979 C995 1.351 . S
C980 C978 1.327 . S
C980 C999 1.429 . S
C980 H1004 0.950 . S
C981 C998 1.574 . S
C981 C1000 1.368 . S
C981 H1005 0.949 . S
H982 C986 0.949 . S
C983 C984 1.349 . S
C983 C985 1.327 . S
C983 H1006 0.950 . S
C984 C983 1.349 . S
C984 C996 1.349 . S
C985 C983 1.327 . S
C985 C1001 1.429 . S
C985 H1007 0.950 . S
C986 H982 0.949 . S
C986 C994 1.574 . S
C986 C1002 1.368 . S
H987 C995 0.941 1_554 S
H988 C993 0.950 . S
H989 C994 0.949 . S
H990 C996 0.950 . S
H991 C997 0.950 . S
H992 C998 0.949 . S
C993 H988 0.950 . S
C993 C995 1.334 . S
C993 C999 1.429 . S
C994 C986 1.574 . S
C994 H989 0.949 . S
C994 C1000 1.368 . S
C995 C979 1.351 . S
C995 H987 0.941 1_556 S
C995 C993 1.334 . S
C996 C984 1.349 . S
C996 H990 0.950 . S
C996 C997 1.327 . S
C997 H991 0.950 . S
C997 C996 1.327 . S
C997 C1001 1.429 . S
C998 C981 1.574 . S
C998 H992 0.949 . S
C998 C1002 1.368 . S
C999 C980 1.429 . S
C999 C993 1.429 . S
C999 C1000 1.523 . S
C1000 C981 1.368 . S
C1000 C994 1.368 . S
C1000 C999 1.523 . S
C1001 C985 1.429 . S
C1001 C997 1.429 . S
C1001 C1002 1.523 . S
C1002 C986 1.368 . S
C1002 C998 1.368 . S
C1002 C1001 1.523 . S
H1003 C978 0.950 . S
H1004 C980 0.950 . S
H1005 C981 0.949 . S
H1006 C983 0.950 . S
H1007 C985 0.950 . S
C1008 C1009 1.349 . S
C1008 C1010 1.327 . S
C1008 H1033 0.950 . S
C1009 C1008 1.349 . S
C1009 C1025 1.349 . S
C1010 C1008 1.327 . S
C1010 C1029 1.429 . S
C1010 H1034 0.950 . S
C1011 C1028 1.574 . S
C1011 C1030 1.368 . S
C1011 H1035 0.949 . S
H1012 C1016 0.949 . S
C1013 C1014 1.349 . S
C1013 C1015 1.327 . S
C1013 H1036 0.950 . S
C1014 C1013 1.349 . S
C1014 C1026 1.349 . S
C1015 C1013 1.327 . S
C1015 C1031 1.429 . S
C1015 H1037 0.950 . S
C1016 H1012 0.949 . S
C1016 C1024 1.574 . S
C1016 C1032 1.368 . S
H1017 C1025 0.950 . S
H1018 C1023 0.950 . S
H1019 C1024 0.949 . S
H1020 C1026 0.950 . S
H1021 C1027 0.950 . S
H1022 C1028 0.949 . S
C1023 H1018 0.950 . S
C1023 C1025 1.327 . S
C1023 C1029 1.429 . S
C1024 C1016 1.574 . S
C1024 H1019 0.949 . S
C1024 C1030 1.368 . S
C1025 C1009 1.349 . S
C1025 H1017 0.950 . S
C1025 C1023 1.327 . S
C1026 C1014 1.349 . S
C1026 H1020 0.950 . S
C1026 C1027 1.327 . S
C1027 H1021 0.950 . S
C1027 C1026 1.327 . S
C1027 C1031 1.429 . S
C1028 C1011 1.574 . S
C1028 H1022 0.949 . S
C1028 C1032 1.368 . S
C1029 C1010 1.429 . S
C1029 C1023 1.429 . S
C1029 C1030 1.523 . S
C1030 C1011 1.368 . S
C1030 C1024 1.368 . S
C1030 C1029 1.523 . S
C1031 C1015 1.429 . S
C1031 C1027 1.429 . S
C1031 C1032 1.523 . S
C1032 C1016 1.368 . S
C1032 C1028 1.368 . S
C1032 C1031 1.523 . S
H1033 C1008 0.950 . S
H1034 C1010 0.950 . S
H1035 C1011 0.949 . S
H1036 C1013 0.950 . S
H1037 C1015 0.950 . S
C1038 C1039 1.349 . S
C1038 C1040 1.327 . S
C1038 H1063 0.950 . S
C1039 C1038 1.349 . S
C1039 C1055 1.349 . S
C1040 C1038 1.327 . S
C1040 C1059 1.429 . S
C1040 H1064 0.950 . S
C1041 C1058 1.574 . S
C1041 C1060 1.368 . S
C1041 H1065 0.949 . S
H1042 C1046 0.949 . S
C1043 C1044 1.349 . S
C1043 C1045 1.327 . S
C1043 H1066 0.950 . S
C1044 C1043 1.349 . S
C1044 C1056 1.349 . S
C1045 C1043 1.327 . S
C1045 C1061 1.429 . S
C1045 H1067 0.950 . S
C1046 H1042 0.949 . S
C1046 C1054 1.574 . S
C1046 C1062 1.368 . S
H1047 C1055 0.950 . S
H1048 C1053 0.950 . S
H1049 C1054 0.949 . S
H1050 C1056 0.950 . S
H1051 C1057 0.950 . S
H1052 C1058 0.949 . S
C1053 H1048 0.950 . S
C1053 C1055 1.327 . S
C1053 C1059 1.429 . S
C1054 C1046 1.574 . S
C1054 H1049 0.949 . S
C1054 C1060 1.368 . S
C1055 C1039 1.349 . S
C1055 H1047 0.950 . S
C1055 C1053 1.327 . S
C1056 C1044 1.349 . S
C1056 H1050 0.950 . S
C1056 C1057 1.327 . S
C1057 H1051 0.950 . S
C1057 C1056 1.327 . S
C1057 C1061 1.429 . S
C1058 C1041 1.574 . S
C1058 H1052 0.949 . S
C1058 C1062 1.368 . S
C1059 C1040 1.429 . S
C1059 C1053 1.429 . S
C1059 C1060 1.523 . S
C1060 C1041 1.368 . S
C1060 C1054 1.368 . S
C1060 C1059 1.523 . S
C1061 C1045 1.429 . S
C1061 C1057 1.429 . S
C1061 C1062 1.523 . S
C1062 C1046 1.368 . S
C1062 C1058 1.368 . S
C1062 C1061 1.523 . S
H1063 C1038 0.950 . S
H1064 C1040 0.950 . S
H1065 C1041 0.949 . S
H1066 C1043 0.950 . S
H1067 C1045 0.950 . S
C1068 C1069 1.349 . S
C1068 C1070 1.327 . S
C1068 H1093 0.950 . S
C1069 C1068 1.349 . S
C1069 C1085 1.349 . S
C1070 C1068 1.327 . S
C1070 C1089 1.429 . S
C1070 H1094 0.950 . S
C1071 C1088 1.574 . S
C1071 C1090 1.368 . S
C1071 H1095 0.949 . S
H1072 C1076 0.949 . S
C1073 C1074 1.349 . S
C1073 C1075 1.327 . S
C1073 H1096 0.950 . S
C1074 C1073 1.349 . S
C1074 C1086 1.349 . S
C1075 C1073 1.327 . S
C1075 C1091 1.429 . S
C1075 H1097 0.950 . S
C1076 H1072 0.949 . S
C1076 C1084 1.574 . S
C1076 C1092 1.368 . S
H1077 C1085 0.950 . S
H1078 C1083 0.950 . S
H1079 C1084 0.949 . S
H1080 C1086 0.950 . S
H1081 C1087 0.950 . S
H1082 C1088 0.949 . S
C1083 H1078 0.950 . S
C1083 C1085 1.327 . S
C1083 C1089 1.429 . S
C1084 C1076 1.574 . S
C1084 H1079 0.949 . S
C1084 C1090 1.368 . S
C1085 C1069 1.349 . S
C1085 H1077 0.950 . S
C1085 C1083 1.327 . S
C1086 C1074 1.349 . S
C1086 H1080 0.950 . S
C1086 C1087 1.327 . S
C1087 H1081 0.950 . S
C1087 C1086 1.327 . S
C1087 C1091 1.429 . S
C1088 C1071 1.574 . S
C1088 H1082 0.949 . S
C1088 C1092 1.368 . S
C1089 C1070 1.429 . S
C1089 C1083 1.429 . S
C1089 C1090 1.523 . S
C1090 C1071 1.368 . S
C1090 C1084 1.368 . S
C1090 C1089 1.523 . S
C1091 C1075 1.429 . S
C1091 C1087 1.429 . S
C1091 C1092 1.523 . S
C1092 C1076 1.368 . S
C1092 C1088 1.368 . S
C1092 C1091 1.523 . S
H1093 C1068 0.950 . S
H1094 C1070 0.950 . S
H1095 C1071 0.949 . S
H1096 C1073 0.950 . S
H1097 C1075 0.950 . S
C1098 C1099 1.349 . S
C1098 C1100 1.327 . S
C1098 H1123 0.950 . S
C1099 C1098 1.349 . S
C1099 C1115 1.349 . S
C1100 C1098 1.327 . S
C1100 C1119 1.429 . S
C1100 H1124 0.950 . S
C1101 C1118 1.574 . S
C1101 C1120 1.368 . S
C1101 H1125 0.949 . S
H1102 C1106 0.949 . S
C1103 C1104 1.349 . S
C1103 C1105 1.327 . S
C1103 H1126 0.950 . S
C1104 C1103 1.349 . S
C1104 C1116 1.349 . S
C1105 C1103 1.327 . S
C1105 C1121 1.429 . S
C1105 H1127 0.950 . S
C1106 H1102 0.949 . S
C1106 C1114 1.574 . S
C1106 C1122 1.368 . S
H1107 C1115 0.950 . S
H1108 C1113 0.950 . S
H1109 C1114 0.949 . S
H1110 C1116 0.950 1_556 S
H1111 C1117 0.950 . S
H1112 C1118 0.949 . S
C1113 H1108 0.950 . S
C1113 C1115 1.327 . S
C1113 C1119 1.429 . S
C1114 C1106 1.574 . S
C1114 H1109 0.949 . S
C1114 C1120 1.368 . S
C1115 C1099 1.349 . S
C1115 H1107 0.950 . S
C1115 C1113 1.327 . S
C1116 C1104 1.349 . S
C1116 H1110 0.950 1_554 S
C1116 C1117 1.327 . S
C1117 H1111 0.950 . S
C1117 C1116 1.327 . S
C1117 C1121 1.429 . S
C1118 C1101 1.574 . S
C1118 H1112 0.949 . S
C1118 C1122 1.368 . S
C1119 C1100 1.429 . S
C1119 C1113 1.429 . S
C1119 C1120 1.523 . S
C1120 C1101 1.368 . S
C1120 C1114 1.368 . S
C1120 C1119 1.523 . S
C1121 C1105 1.429 . S
C1121 C1117 1.429 . S
C1121 C1122 1.523 . S
C1122 C1106 1.368 . S
C1122 C1118 1.368 . S
C1122 C1121 1.523 . S
H1123 C1098 0.950 . S
H1124 C1100 0.950 . S
H1125 C1101 0.949 . S
H1126 C1103 0.950 . S
H1127 C1105 0.950 . S
C1128 C1129 1.349 . S
C1128 C1130 1.327 . S
C1128 H1153 0.950 . S
C1129 C1128 1.349 . S
C1129 C1145 1.349 . S
C1130 C1128 1.327 . S
C1130 C1149 1.429 . S
C1130 H1154 0.950 . S
C1131 C1148 1.574 . S
C1131 C1150 1.368 . S
C1131 H1155 0.949 . S
H1132 C1136 0.949 . S
C1133 C1134 1.349 1_554 S
C1133 C1135 1.327 . S
C1133 H1156 0.950 . S
C1134 C1133 1.349 1_556 S
C1134 C1146 1.349 . S
C1135 C1133 1.327 . S
C1135 C1151 1.429 . S
C1135 H1157 0.950 . S
C1136 H1132 0.949 . S
C1136 C1144 1.574 . S
C1136 C1152 1.368 . S
H1137 C1145 0.950 . S
H1138 C1143 0.950 . S
H1139 C1144 0.949 . S
H1140 C1146 0.950 . S
H1141 C1147 0.950 . S
H1142 C1148 0.949 . S
C1143 H1138 0.950 . S
C1143 C1145 1.327 . S
C1143 C1149 1.429 . S
C1144 C1136 1.574 . S
C1144 H1139 0.949 . S
C1144 C1150 1.368 . S
C1145 C1129 1.349 . S
C1145 H1137 0.950 . S
C1145 C1143 1.327 . S
C1146 C1134 1.349 . S
C1146 H1140 0.950 . S
C1146 C1147 1.327 1_556 S
C1147 H1141 0.950 . S
C1147 C1146 1.327 1_554 S
C1147 C1151 1.429 . S
C1148 C1131 1.574 . S
C1148 H1142 0.949 . S
C1148 C1152 1.368 . S
C1149 C1130 1.429 . S
C1149 C1143 1.429 . S
C1149 C1150 1.523 . S
C1150 C1131 1.368 . S
C1150 C1144 1.368 . S
C1150 C1149 1.523 . S
C1151 C1135 1.429 . S
C1151 C1147 1.429 . S
C1151 C1152 1.523 . S
C1152 C1136 1.368 . S
C1152 C1148 1.368 . S
C1152 C1151 1.523 . S
H1153 C1128 0.950 . S
H1154 C1130 0.950 . S
H1155 C1131 0.949 . S
H1156 C1133 0.950 . S
H1157 C1135 0.950 . S
C1158 C1159 1.349 . S
C1158 C1160 1.327 . S
C1158 H1183 0.950 . S
C1159 C1158 1.349 . S
C1159 C1175 1.349 . S
C1160 C1158 1.327 . S
C1160 C1179 1.429 . S
C1160 H1184 0.950 . S
C1161 C1178 1.574 . S
C1161 C1180 1.368 . S
C1161 H1185 0.949 . S
H1162 C1166 0.949 . S
C1163 C1164 1.349 . S
C1163 C1165 1.327 . S
C1163 H1186 0.950 . S
C1164 C1163 1.349 . S
C1164 C1176 1.349 . S
C1165 C1163 1.327 . S
C1165 C1181 1.429 . S
C1165 H1187 0.950 . S
C1166 H1162 0.949 . S
C1166 C1174 1.574 . S
C1166 C1182 1.368 . S
H1167 C1175 0.950 . S
H1168 C1173 0.950 . S
H1169 C1174 0.949 . S
H1170 C1176 0.950 . S
H1171 C1177 0.950 . S
H1172 C1178 0.949 . S
C1173 H1168 0.950 . S
C1173 C1175 1.327 . S
C1173 C1179 1.429 . S
C1174 C1166 1.574 . S
C1174 H1169 0.949 . S
C1174 C1180 1.368 . S
C1175 C1159 1.349 . S
C1175 H1167 0.950 . S
C1175 C1173 1.327 . S
C1176 C1164 1.349 . S
C1176 H1170 0.950 . S
C1176 C1177 1.327 . S
C1177 H1171 0.950 . S
C1177 C1176 1.327 . S
C1177 C1181 1.429 . S
C1178 C1161 1.574 . S
C1178 H1172 0.949 . S
C1178 C1182 1.368 . S
C1179 C1160 1.429 . S
C1179 C1173 1.429 . S
C1179 C1180 1.523 . S
C1180 C1161 1.368 . S
C1180 C1174 1.368 . S
C1180 C1179 1.523 . S
C1181 C1165 1.429 . S
C1181 C1177 1.429 . S
C1181 C1182 1.523 . S
C1182 C1166 1.368 . S
C1182 C1178 1.368 . S
C1182 C1181 1.523 . S
H1183 C1158 0.950 . S
H1184 C1160 0.950 . S
H1185 C1161 0.949 . S
H1186 C1163 0.950 . S
H1187 C1165 0.950 . S
C1188 C1189 1.349 . S
C1188 C1190 1.327 . S
C1188 H1213 0.950 . S
C1189 C1188 1.349 . S
C1189 C1205 1.349 . S
C1190 C1188 1.327 . S
C1190 C1209 1.429 . S
C1190 H1214 0.950 . S
C1191 C1208 1.574 . S
C1191 C1210 1.368 . S
C1191 H1215 0.949 . S
H1192 C1196 0.949 . S
C1193 C1194 1.349 . S
C1193 C1195 1.327 . S
C1193 H1216 0.950 . S
C1194 C1193 1.349 . S
C1194 C1206 1.349 . S
C1195 C1193 1.327 . S
C1195 C1211 1.429 . S
C1195 H1217 0.950 . S
C1196 H1192 0.949 . S
C1196 C1204 1.574 . S
C1196 C1212 1.368 . S
H1197 C1205 0.950 . S
H1198 C1203 0.950 . S
H1199 C1204 0.949 . S
H1200 C1206 0.950 . S
H1201 C1207 0.950 . S
H1202 C1208 0.949 . S
C1203 H1198 0.950 . S
C1203 C1205 1.327 . S
C1203 C1209 1.429 . S
C1204 C1196 1.574 . S
C1204 H1199 0.949 . S
C1204 C1210 1.368 . S
C1205 C1189 1.349 . S
C1205 H1197 0.950 . S
C1205 C1203 1.327 . S
C1206 C1194 1.349 . S
C1206 H1200 0.950 . S
C1206 C1207 1.327 . S
C1207 H1201 0.950 . S
C1207 C1206 1.327 . S
C1207 C1211 1.429 . S
C1208 C1191 1.574 . S
C1208 H1202 0.949 . S
C1208 C1212 1.368 . S
C1209 C1190 1.429 . S
C1209 C1203 1.429 . S
C1209 C1210 1.523 . S
C1210 C1191 1.368 . S
C1210 C1204 1.368 . S
C1210 C1209 1.523 . S
C1211 C1195 1.429 . S
C1211 C1207 1.429 . S
C1211 C1212 1.523 . S
C1212 C1196 1.368 . S
C1212 C1208 1.368 . S
C1212 C1211 1.523 . S
H1213 C1188 0.950 . S
H1214 C1190 0.950 . S
H1215 C1191 0.949 . S
H1216 C1193 0.950 . S
H1217 C1195 0.950 . S
C1218 C1219 1.349 . S
C1218 C1220 1.327 . S
C1218 H1243 0.950 . S
C1219 C1218 1.349 . S
C1219 C1235 1.349 . S
C1220 C1218 1.327 . S
C1220 C1239 1.429 . S
C1220 H1244 0.950 . S
C1221 C1238 1.574 . S
C1221 C1240 1.368 . S
C1221 H1245 0.949 . S
H1222 C1226 0.949 . S
C1223 C1224 1.349 . S
C1223 C1225 1.327 . S
C1223 H1246 0.950 . S
C1224 C1223 1.349 . S
C1224 C1236 1.349 . S
C1225 C1223 1.327 . S
C1225 C1241 1.429 . S
C1225 H1247 0.950 . S
C1226 H1222 0.949 . S
C1226 C1234 1.574 . S
C1226 C1242 1.368 . S
H1227 C1235 0.950 . S
H1228 C1233 0.950 . S
H1229 C1234 0.949 . S
H1230 C1236 0.950 . S
H1231 C1237 0.950 . S
H1232 C1238 0.949 . S
C1233 H1228 0.950 . S
C1233 C1235 1.327 . S
C1233 C1239 1.429 . S
C1234 C1226 1.574 . S
C1234 H1229 0.949 . S
C1234 C1240 1.368 . S
C1235 C1219 1.349 . S
C1235 H1227 0.950 . S
C1235 C1233 1.327 . S
C1236 C1224 1.349 . S
C1236 H1230 0.950 . S
C1236 C1237 1.327 . S
C1237 H1231 0.950 . S
C1237 C1236 1.327 . S
C1237 C1241 1.429 . S
C1238 C1221 1.574 . S
C1238 H1232 0.949 . S
C1238 C1242 1.368 . S
C1239 C1220 1.429 . S
C1239 C1233 1.429 . S
C1239 C1240 1.523 . S
C1240 C1221 1.368 . S
C1240 C1234 1.368 . S
C1240 C1239 1.523 . S
C1241 C1225 1.429 . S
C1241 C1237 1.429 . S
C1241 C1242 1.523 . S
C1242 C1226 1.368 . S
C1242 C1238 1.368 . S
C1242 C1241 1.523 . S
H1243 C1218 0.950 . S
H1244 C1220 0.950 . S
H1245 C1221 0.949 . S
H1246 C1223 0.950 . S
H1247 C1225 0.950 . S
C1248 C1249 1.349 . S
C1248 C1250 1.327 . S
C1248 H1273 0.950 . S
C1249 C1248 1.349 . S
C1249 C1265 1.349 . S
C1250 C1248 1.327 . S
C1250 C1269 1.429 . S
C1250 H1274 0.912 1_565 S
C1251 C1268 1.574 . S
C1251 C1270 1.368 . S
C1251 H1275 0.949 . S
H1252 C1256 0.949 . S
C1253 C1254 1.349 . S
C1253 C1255 1.327 . S
C1253 H1276 0.950 . S
C1254 C1253 1.349 . S
C1254 C1266 1.349 . S
C1255 C1253 1.327 . S
C1255 C1271 1.429 . S
C1255 H1277 0.950 1_545 S
C1256 H1252 0.949 . S
C1256 C1264 1.574 . S
C1256 C1272 1.368 . S
H1257 C1265 0.950 . S
H1258 C1263 0.950 . S
H1259 C1264 0.949 . S
H1260 C1266 0.950 . S
H1261 C1267 0.950 . S
H1262 C1268 0.949 . S
C1263 H1258 0.950 . S
C1263 C1265 1.327 . S
C1263 C1269 1.429 . S
C1264 C1256 1.574 . S
C1264 H1259 0.949 . S
C1264 C1270 1.368 1_545 S
C1265 C1249 1.349 . S
C1265 H1257 0.950 . S
C1265 C1263 1.327 . S
C1266 C1254 1.349 . S
C1266 H1260 0.950 . S
C1266 C1267 1.327 . S
C1267 H1261 0.950 . S
C1267 C1266 1.327 . S
C1267 C1271 1.429 . S
C1268 C1251 1.574 . S
C1268 H1262 0.949 . S
C1268 C1272 1.368 1_565 S
C1269 C1250 1.429 . S
C1269 C1263 1.429 . S
C1269 C1270 1.523 . S
C1270 C1251 1.368 . S
C1270 C1264 1.368 1_565 S
C1270 C1269 1.523 . S
C1271 C1255 1.429 . S
C1271 C1267 1.429 . S
C1271 C1272 1.523 . S
C1272 C1256 1.368 . S
C1272 C1268 1.368 1_545 S
C1272 C1271 1.523 . S
H1273 C1248 0.950 . S
H1274 C1250 0.912 1_545 S
H1275 C1251 0.949 . S
H1276 C1253 0.950 . S
H1277 C1255 0.950 1_565 S
C1278 C1279 1.349 . S
C1278 C1280 1.327 . S
C1278 H1303 0.950 . S
C1279 C1278 1.349 . S
C1279 C1295 1.349 . S
C1280 C1278 1.327 . S
C1280 C1299 1.429 . S
C1280 H1304 0.950 . S
C1281 C1298 1.574 . S
C1281 C1300 1.368 . S
C1281 H1305 0.949 . S
H1282 C1286 0.949 . S
C1283 C1284 1.349 . S
C1283 C1285 1.327 . S
C1283 H1306 0.950 . S
C1284 C1283 1.349 . S
C1284 C1296 1.349 1_556 S
C1285 C1283 1.327 . S
C1285 C1301 1.429 1_556 S
C1285 H1307 0.950 . S
C1286 H1282 0.949 . S
C1286 C1294 1.574 . S
C1286 C1302 1.368 . S
H1287 C1295 0.950 . S
H1288 C1293 0.950 . S
H1289 C1294 0.949 . S
H1290 C1296 0.950 . S
H1291 C1297 0.950 . S
H1292 C1298 0.949 . S
C1293 H1288 0.950 . S
C1293 C1295 1.327 . S
C1293 C1299 1.429 . S
C1294 C1286 1.574 . S
C1294 H1289 0.949 . S
C1294 C1300 1.368 . S
C1295 C1279 1.349 . S
C1295 H1287 0.950 . S
C1295 C1293 1.327 . S
C1296 C1284 1.349 1_554 S
C1296 H1290 0.950 . S
C1296 C1297 1.327 . S
C1297 H1291 0.950 . S
C1297 C1296 1.327 . S
C1297 C1301 1.429 . S
C1298 C1281 1.574 . S
C1298 H1292 0.949 . S
C1298 C1302 1.368 . S
C1299 C1280 1.429 . S
C1299 C1293 1.429 . S
C1299 C1300 1.523 . S
C1300 C1281 1.368 . S
C1300 C1294 1.368 . S
C1300 C1299 1.523 . S
C1301 C1285 1.429 1_554 S
C1301 C1297 1.429 . S
C1301 C1302 1.523 . S
C1302 C1286 1.368 . S
C1302 C1298 1.368 . S
C1302 C1301 1.523 . S
H1303 C1278 0.950 . S
H1304 C1280 0.950 . S
H1305 C1281 0.949 . S
H1306 C1283 0.950 . S
H1307 C1285 0.950 . S
C1308 C1309 1.349 1_554 S
C1308 C1310 1.327 . S
C1308 H1333 0.950 . S
C1309 C1308 1.349 1_556 S
C1309 C1325 1.349 . S
C1310 C1308 1.327 . S
C1310 C1329 1.429 . S
C1310 H1334 0.950 . S
C1311 C1328 1.574 . S
C1311 C1330 1.368 . S
C1311 H1335 0.935 1_554 S
H1312 C1316 0.949 . S
C1313 C1314 1.349 . S
C1313 C1315 1.327 . S
C1313 H1336 0.950 . S
C1314 C1313 1.349 . S
C1314 C1326 1.349 . S
C1315 C1313 1.327 . S
C1315 C1331 1.429 . S
C1315 H1337 0.950 . S
C1316 H1312 0.949 . S
C1316 C1324 1.574 1_455 S
C1316 C1332 1.368 . S
H1317 C1325 0.950 . S
H1318 C1323 0.950 . S
H1319 C1324 0.949 . S
H1320 C1326 0.950 . S
H1321 C1327 0.950 . S
H1322 C1328 0.949 . S
C1323 H1318 0.950 . S
C1323 C1325 1.327 1_455 S
C1323 C1329 1.429 1_456 S
C1324 C1316 1.574 1_655 S
C1324 H1319 0.949 . S
C1324 C1330 1.368 1_655 S
C1325 C1309 1.349 . S
C1325 H1317 0.950 . S
C1325 C1323 1.327 1_655 S
C1326 C1314 1.349 . S
C1326 H1320 0.950 . S
C1326 C1327 1.327 . S
C1327 H1321 0.950 . S
C1327 C1326 1.327 . S
C1327 C1331 1.429 . S
C1328 C1311 1.574 . S
C1328 H1322 0.949 . S
C1328 C1332 1.368 . S
C1329 C1310 1.429 . S
C1329 C1323 1.429 1_654 S
C1329 C1330 1.523 1_655 S
C1330 C1311 1.368 . S
C1330 C1324 1.368 1_455 S
C1330 C1329 1.523 1_455 S
C1331 C1315 1.429 . S
C1331 C1327 1.429 . S
C1331 C1332 1.523 . S
C1332 C1316 1.368 . S
C1332 C1328 1.368 . S
C1332 C1331 1.523 . S
H1333 C1308 0.950 . S
H1334 C1310 0.950 . S
H1335 C1311 0.935 1_556 S
H1336 C1313 0.950 . S
H1337 C1315 0.950 . S
C1338 C1339 1.349 . S
C1338 C1340 1.327 . S
C1338 H1363 0.950 . S
C1339 C1338 1.349 . S
C1339 C1355 1.349 . S
C1340 C1338 1.327 . S
C1340 C1359 1.429 1_556 S
C1340 H1364 0.950 1_556 S
C1341 C1358 1.574 . S
C1341 C1360 1.368 . S
C1341 H1365 0.949 . S
H1342 C1346 0.949 . S
C1343 C1344 1.349 . S
C1343 C1345 1.327 . S
C1343 H1366 0.950 . S
C1344 C1343 1.349 . S
C1344 C1356 1.349 . S
C1345 C1343 1.327 . S
C1345 C1361 1.429 . S
C1345 H1367 0.950 . S
C1346 H1342 0.949 . S
C1346 C1354 1.574 . S
C1346 C1362 1.368 . S
H1347 C1355 0.950 . S
H1348 C1353 0.950 . S
H1349 C1354 0.949 . S
H1350 C1356 0.950 . S
H1351 C1357 0.950 . S
H1352 C1358 0.949 . S
C1353 H1348 0.950 . S
C1353 C1355 1.327 1_554 S
C1353 C1359 1.429 . S
C1354 C1346 1.574 . S
C1354 H1349 0.949 . S
C1354 C1360 1.368 . S
C1355 C1339 1.349 . S
C1355 H1347 0.950 . S
C1355 C1353 1.327 1_556 S
C1356 C1344 1.349 . S
C1356 H1350 0.950 . S
C1356 C1357 1.327 . S
C1357 H1351 0.950 . S
C1357 C1356 1.327 . S
C1357 C1361 1.429 . S
C1358 C1341 1.574 . S
C1358 H1352 0.949 . S
C1358 C1362 1.368 . S
C1359 C1340 1.429 1_554 S
C1359 C1353 1.429 . S
C1359 C1360 1.523 . S
C1360 C1341 1.368 . S
C1360 C1354 1.368 . S
C1360 C1359 1.523 . S
C1361 C1345 1.429 . S
C1361 C1357 1.429 . S
C1361 C1362 1.523 . S
C1362 C1346 1.368 . S
C1362 C1358 1.368 . S
C1362 C1361 1.523 . S
H1363 C1338 0.950 . S
H1364 C1340 0.950 1_554 S
H1365 C1341 0.949 . S
H1366 C1343 0.950 . S
H1367 C1345 0.950 . S
C1368 C1369 1.349 . S
C1368 C1370 1.327 . S
C1368 H1393 0.950 . S
C1369 C1368 1.349 . S
C1369 C1385 1.349 . S
C1370 C1368 1.327 . S
C1370 C1389 1.429 . S
C1370 H1394 0.947 . S
C1371 C1388 1.574 . S
C1371 C1390 1.368 . S
C1371 H1395 0.949 1_455 S
H1372 C1376 0.949 . S
C1373 C1374 1.349 . S
C1373 C1375 1.327 . S
C1373 H1396 0.950 . S
C1374 C1373 1.349 . S
C1374 C1386 1.349 . S
C1375 C1373 1.327 . S
C1375 C1391 1.429 . S
C1375 H1397 0.950 . S
C1376 H1372 0.949 . S
C1376 C1384 1.574 . S
C1376 C1392 1.368 . S
H1377 C1385 0.950 . S
H1378 C1383 0.950 . S
H1379 C1384 0.949 . S
H1380 C1386 0.950 . S
H1381 C1387 0.950 . S
H1382 C1388 0.949 . S
C1383 H1378 0.950 . S
C1383 C1385 1.327 . S
C1383 C1389 1.429 . S
C1384 C1376 1.574 . S
C1384 H1379 0.949 . S
C1384 C1390 1.368 . S
C1385 C1369 1.349 . S
C1385 H1377 0.950 . S
C1385 C1383 1.327 . S
C1386 C1374 1.349 . S
C1386 H1380 0.950 . S
C1386 C1387 1.327 . S
C1387 H1381 0.950 . S
C1387 C1386 1.327 . S
C1387 C1391 1.429 . S
C1388 C1371 1.574 . S
C1388 H1382 0.949 . S
C1388 C1392 1.368 . S
C1389 C1370 1.429 . S
C1389 C1383 1.429 . S
C1389 C1390 1.523 1_655 S
C1390 C1371 1.368 . S
C1390 C1384 1.368 . S
C1390 C1389 1.523 1_455 S
C1391 C1375 1.429 . S
C1391 C1387 1.429 . S
C1391 C1392 1.523 . S
C1392 C1376 1.368 . S
C1392 C1388 1.368 . S
C1392 C1391 1.523 . S
H1393 C1368 0.950 . S
H1394 C1370 0.947 . S
H1395 C1371 0.949 1_655 S
H1396 C1373 0.950 . S
H1397 C1375 0.950 . S
C1398 C1399 1.349 . S
C1398 C1400 1.327 . S
C1398 H1423 0.950 . S
C1399 C1398 1.349 . S
C1399 C1415 1.349 . S
C1400 C1398 1.327 . S
C1400 C1419 1.429 . S
C1400 H1424 0.950 . S
C1401 C1418 1.574 . S
C1401 C1420 1.368 . S
C1401 H1425 0.949 . S
H1402 C1406 0.949 . S
C1403 C1404 1.349 . S
C1403 C1405 1.327 . S
C1403 H1426 0.950 . S
C1404 C1403 1.349 . S
C1404 C1416 1.349 . S
C1405 C1403 1.327 . S
C1405 C1421 1.429 . S
C1405 H1427 0.950 . S
C1406 H1402 0.949 . S
C1406 C1414 1.574 . S
C1406 C1422 1.368 . S
H1407 C1415 0.950 . S
H1408 C1413 0.950 . S
H1409 C1414 0.949 . S
H1410 C1416 0.950 . S
H1411 C1417 0.950 . S
H1412 C1418 0.949 . S
C1413 H1408 0.950 . S
C1413 C1415 1.327 . S
C1413 C1419 1.429 . S
C1414 C1406 1.574 . S
C1414 H1409 0.949 . S
C1414 C1420 1.368 . S
C1415 C1399 1.349 . S
C1415 H1407 0.950 . S
C1415 C1413 1.327 . S
C1416 C1404 1.349 . S
C1416 H1410 0.950 . S
C1416 C1417 1.327 . S
C1417 H1411 0.950 . S
C1417 C1416 1.327 . S
C1417 C1421 1.429 . S
C1418 C1401 1.574 . S
C1418 H1412 0.949 . S
C1418 C1422 1.368 . S
C1419 C1400 1.429 . S
C1419 C1413 1.429 . S
C1419 C1420 1.523 . S
C1420 C1401 1.368 . S
C1420 C1414 1.368 . S
C1420 C1419 1.523 . S
C1421 C1405 1.429 . S
C1421 C1417 1.429 . S
C1421 C1422 1.523 . S
C1422 C1406 1.368 . S
C1422 C1418 1.368 . S
C1422 C1421 1.523 . S
H1423 C1398 0.950 . S
H1424 C1400 0.950 . S
H1425 C1401 0.949 . S
H1426 C1403 0.950 . S
H1427 C1405 0.950 . S
C1428 C1429 1.349 . S
C1428 C1430 1.327 . S
C1428 H1453 0.950 . S
C1429 C1428 1.349 . S
C1429 C1445 1.349 . S
C1430 C1428 1.327 . S
C1430 C1449 1.429 . S
C1430 H1454 0.950 . S
C1431 C1448 1.574 . S
C1431 C1450 1.368 . S
C1431 H1455 0.949 . S
H1432 C1436 0.949 . S
C1433 C1434 1.349 . S
C1433 C1435 1.327 . S
C1433 H1456 0.950 . S
C1434 C1433 1.349 . S
C1434 C1446 1.349 . S
C1435 C1433 1.327 . S
C1435 C1451 1.429 . S
C1435 H1457 0.950 . S
C1436 H1432 0.949 . S
C1436 C1444 1.574 . S
C1436 C1452 1.368 . S
H1437 C1445 0.950 . S
H1438 C1443 0.950 . S
H1439 C1444 0.949 . S
H1440 C1446 0.950 . S
H1441 C1447 0.950 . S
H1442 C1448 0.949 . S
C1443 H1438 0.950 . S
C1443 C1445 1.327 . S
C1443 C1449 1.429 . S
C1444 C1436 1.574 . S
C1444 H1439 0.949 . S
C1444 C1450 1.368 . S
C1445 C1429 1.349 . S
C1445 H1437 0.950 . S
C1445 C1443 1.327 . S
C1446 C1434 1.349 . S
C1446 H1440 0.950 . S
C1446 C1447 1.327 . S
C1447 H1441 0.950 . S
C1447 C1446 1.327 . S
C1447 C1451 1.429 . S
C1448 C1431 1.574 . S
C1448 H1442 0.949 . S
C1448 C1452 1.368 . S
C1449 C1430 1.429 . S
C1449 C1443 1.429 . S
C1449 C1450 1.523 . S
C1450 C1431 1.368 . S
C1450 C1444 1.368 . S
C1450 C1449 1.523 . S
C1451 C1435 1.429 . S
C1451 C1447 1.429 . S
C1451 C1452 1.523 . S
C1452 C1436 1.368 . S
C1452 C1448 1.368 . S
C1452 C1451 1.523 . S
H1453 C1428 0.950 . S
H1454 C1430 0.950 . S
H1455 C1431 0.949 . S
H1456 C1433 0.950 . S
H1457 C1435 0.950 . S
C1458 C1459 1.349 1_556 S
C1458 C1460 1.327 . S
C1458 H1483 0.950 . S
C1459 C1458 1.349 1_554 S
C1459 C1475 1.349 . S
C1460 C1458 1.327 . S
C1460 C1479 1.429 . S
C1460 H1484 0.950 . S
C1461 C1478 1.574 . S
C1461 C1480 1.365 1_545 S
C1461 H1485 0.949 . S
H1462 C1466 0.949 . S
C1463 C1464 1.349 . S
C1463 C1465 1.327 . S
C1463 H1486 0.950 . S
C1464 C1463 1.349 . S
C1464 C1476 1.349 . S
C1465 C1463 1.327 . S
C1465 C1481 1.429 . S
C1465 H1487 0.950 . S
C1466 H1462 0.949 . S
C1466 C1474 1.574 1_545 S
C1466 C1482 1.368 . S
H1467 C1475 0.950 . S
H1468 C1473 0.942 1_545 S
H1469 C1474 0.949 . S
H1470 C1476 0.950 . S
H1471 C1477 0.950 . S
H1472 C1478 0.949 . S
C1473 H1468 0.942 1_565 S
C1473 C1475 1.327 . S
C1473 C1479 1.429 1_554 S
C1474 C1466 1.574 1_565 S
C1474 H1469 0.949 . S
C1474 C1480 1.372 . S
C1475 C1459 1.349 . S
C1475 H1467 0.950 . S
C1475 C1473 1.327 . S
C1476 C1464 1.349 . S
C1476 H1470 0.950 . S
C1476 C1477 1.327 . S
C1477 H1471 0.950 . S
C1477 C1476 1.327 . S
C1477 C1481 1.429 . S
C1478 C1461 1.574 . S
C1478 H1472 0.949 . S
C1478 C1482 1.368 . S
C1479 C1460 1.429 . S
C1479 C1473 1.429 1_556 S
C1479 C1480 1.523 . S
C1480 C1461 1.365 1_565 S
C1480 C1474 1.372 . S
C1480 C1479 1.523 . S
C1481 C1465 1.429 . S
C1481 C1477 1.429 . S
C1481 C1482 1.523 . S
C1482 C1466 1.368 . S
C1482 C1478 1.368 . S
C1482 C1481 1.523 . S
H1483 C1458 0.950 . S
H1484 C1460 0.950 . S
H1485 C1461 0.949 . S
H1486 C1463 0.950 . S
H1487 C1465 0.950 . S
C1488 C1489 1.349 . S
C1488 C1490 1.327 . S
C1488 H1513 0.950 . S
C1489 C1488 1.349 . S
C1489 C1505 1.349 . S
C1490 C1488 1.327 . S
C1490 C1509 1.429 . S
C1490 H1514 0.950 . S
C1491 C1508 1.574 . S
C1491 C1510 1.368 . S
C1491 H1515 0.949 . S
H1492 C1496 0.949 1_554 S
C1493 C1494 1.349 1_556 S
C1493 C1495 1.327 . S
C1493 H1516 0.950 . S
C1494 C1493 1.349 1_554 S
C1494 C1506 1.349 . S
C1495 C1493 1.327 . S
C1495 C1511 1.429 . S
C1495 H1517 0.950 . S
C1496 H1492 0.949 1_556 S
C1496 C1504 1.574 . S
C1496 C1512 1.368 . S
H1497 C1505 0.950 . S
H1498 C1503 0.950 . S
H1499 C1504 0.949 . S
H1500 C1506 0.950 . S
H1501 C1507 0.950 . S
H1502 C1508 0.949 . S
C1503 H1498 0.950 . S
C1503 C1505 1.327 . S
C1503 C1509 1.429 . S
C1504 C1496 1.574 . S
C1504 H1499 0.949 . S
C1504 C1510 1.368 . S
C1505 C1489 1.349 . S
C1505 H1497 0.950 . S
C1505 C1503 1.327 . S
C1506 C1494 1.349 . S
C1506 H1500 0.950 . S
C1506 C1507 1.327 . S
C1507 H1501 0.950 . S
C1507 C1506 1.327 . S
C1507 C1511 1.429 1_554 S
C1508 C1491 1.574 . S
C1508 H1502 0.949 . S
C1508 C1512 1.368 . S
C1509 C1490 1.429 . S
C1509 C1503 1.429 . S
C1509 C1510 1.523 . S
C1510 C1491 1.368 . S
C1510 C1504 1.368 . S
C1510 C1509 1.523 . S
C1511 C1495 1.429 . S
C1511 C1507 1.429 1_556 S
C1511 C1512 1.523 . S
C1512 C1496 1.368 . S
C1512 C1508 1.368 . S
C1512 C1511 1.523 . S
H1513 C1488 0.950 . S
H1514 C1490 0.950 . S
H1515 C1491 0.949 . S
H1516 C1493 0.950 . S
H1517 C1495 0.950 . S
C1518 C1519 1.349 . S
C1518 C1520 1.327 . S
C1518 H1543 0.950 . S
C1519 C1518 1.349 . S
C1519 C1535 1.349 . S
C1520 C1518 1.327 . S
C1520 C1539 1.429 . S
C1520 H1544 0.950 . S
C1521 C1538 1.574 . S
C1521 C1540 1.368 . S
C1521 H1545 0.949 . S
H1522 C1526 0.949 . S
C1523 C1524 1.349 1_556 S
C1523 C1525 1.327 . S
C1523 H1546 0.950 . S
C1524 C1523 1.349 1_554 S
C1524 C1536 1.349 . S
C1525 C1523 1.327 . S
C1525 C1541 1.429 . S
C1525 H1547 0.950 . S
C1526 H1522 0.949 . S
C1526 C1534 1.574 . S
C1526 C1542 1.368 . S
H1527 C1535 0.950 . S
H1528 C1533 0.950 . S
H1529 C1534 0.949 . S
H1530 C1536 0.950 . S
H1531 C1537 0.950 . S
H1532 C1538 0.949 . S
C1533 H1528 0.950 . S
C1533 C1535 1.327 . S
C1533 C1539 1.429 . S
C1534 C1526 1.574 . S
C1534 H1529 0.949 . S
C1534 C1540 1.368 . S
C1535 C1519 1.349 . S
C1535 H1527 0.950 . S
C1535 C1533 1.327 . S
C1536 C1524 1.349 . S
C1536 H1530 0.950 . S
C1536 C1537 1.327 . S
C1537 H1531 0.950 . S
C1537 C1536 1.327 . S
C1537 C1541 1.429 1_554 S
C1538 C1521 1.574 . S
C1538 H1532 0.949 . S
C1538 C1542 1.368 . S
C1539 C1520 1.429 . S
C1539 C1533 1.429 . S
C1539 C1540 1.523 . S
C1540 C1521 1.368 . S
C1540 C1534 1.368 . S
C1540 C1539 1.523 . S
C1541 C1525 1.429 . S
C1541 C1537 1.429 1_556 S
C1541 C1542 1.523 . S
C1542 C1526 1.368 . S
C1542 C1538 1.368 . S
C1542 C1541 1.523 . S
H1543 C1518 0.950 . S
H1544 C1520 0.950 . S
H1545 C1521 0.949 . S
H1546 C1523 0.950 . S
H1547 C1525 0.950 . S
C1548 C1549 1.331 1_545 S
C1548 C1550 1.327 . S
C1548 H1573 0.949 . S
C1549 C1548 1.331 1_565 S
C1549 C1565 1.351 1_565 S
C1550 C1548 1.327 . S
C1550 C1569 1.429 . S
C1550 H1574 0.950 . S
C1551 C1568 1.574 . S
C1551 C1570 1.368 . S
C1551 H1575 0.949 . S
H1552 C1556 0.949 . S
C1553 C1554 1.349 . S
C1553 C1555 1.327 . S
C1553 H1576 0.950 . S
C1554 C1553 1.349 . S
C1554 C1566 1.349 . S
C1555 C1553 1.327 . S
C1555 C1571 1.429 . S
C1555 H1577 0.950 . S
C1556 H1552 0.949 . S
C1556 C1564 1.574 . S
C1556 C1572 1.368 . S
H1557 C1565 0.950 . S
H1558 C1563 0.950 . S
H1559 C1564 0.949 . S
H1560 C1566 0.950 . S
H1561 C1567 0.950 . S
H1562 C1568 0.949 . S
C1563 H1558 0.950 . S
C1563 C1565 1.327 . S
C1563 C1569 1.429 . S
C1564 C1556 1.574 . S
C1564 H1559 0.949 . S
C1564 C1570 1.368 . S
C1565 C1549 1.351 1_545 S
C1565 H1557 0.950 . S
C1565 C1563 1.327 . S
C1566 C1554 1.349 . S
C1566 H1560 0.950 . S
C1566 C1567 1.327 . S
C1567 H1561 0.950 . S
C1567 C1566 1.327 . S
C1567 C1571 1.429 . S
C1568 C1551 1.574 . S
C1568 H1562 0.949 . S
C1568 C1572 1.368 . S
C1569 C1550 1.429 . S
C1569 C1563 1.429 . S
C1569 C1570 1.523 . S
C1570 C1551 1.368 . S
C1570 C1564 1.368 . S
C1570 C1569 1.523 . S
C1571 C1555 1.429 . S
C1571 C1567 1.429 . S
C1571 C1572 1.523 . S
C1572 C1556 1.368 . S
C1572 C1568 1.368 . S
C1572 C1571 1.523 . S
H1573 C1548 0.949 . S
H1574 C1550 0.950 . S
H1575 C1551 0.949 . S
H1576 C1553 0.950 . S
H1577 C1555 0.950 . S
C1578 C1579 1.349 . S
C1578 C1580 1.327 . S
C1578 H1603 0.950 . S
C1579 C1578 1.349 . S
C1579 C1595 1.349 . S
C1580 C1578 1.327 . S
C1580 C1599 1.429 . S
C1580 H1604 0.950 . S
C1581 C1598 1.574 . S
C1581 C1600 1.368 . S
C1581 H1605 0.949 . S
H1582 C1586 0.949 . S
C1583 C1584 1.349 . S
C1583 C1585 1.327 . S
C1583 H1606 0.950 . S
C1584 C1583 1.349 . S
C1584 C1596 1.349 . S
C1585 C1583 1.327 . S
C1585 C1601 1.429 . S
C1585 H1607 0.950 . S
C1586 H1582 0.949 . S
C1586 C1594 1.574 . S
C1586 C1602 1.368 . S
H1587 C1595 0.950 . S
H1588 C1593 0.950 . S
H1589 C1594 0.949 . S
H1590 C1596 0.950 . S
H1591 C1597 0.950 . S
H1592 C1598 0.949 . S
C1593 H1588 0.950 . S
C1593 C1595 1.327 . S
C1593 C1599 1.429 . S
C1594 C1586 1.574 . S
C1594 H1589 0.949 . S
C1594 C1600 1.368 . S
C1595 C1579 1.349 . S
C1595 H1587 0.950 . S
C1595 C1593 1.327 . S
C1596 C1584 1.349 . S
C1596 H1590 0.950 . S
C1596 C1597 1.327 . S
C1597 H1591 0.950 . S
C1597 C1596 1.327 . S
C1597 C1601 1.429 . S
C1598 C1581 1.574 . S
C1598 H1592 0.949 . S
C1598 C1602 1.368 . S
C1599 C1580 1.429 . S
C1599 C1593 1.429 . S
C1599 C1600 1.523 . S
C1600 C1581 1.368 . S
C1600 C1594 1.368 . S
C1600 C1599 1.523 . S
C1601 C1585 1.429 . S
C1601 C1597 1.429 . S
C1601 C1602 1.523 . S
C1602 C1586 1.368 . S
C1602 C1598 1.368 . S
C1602 C1601 1.523 . S
H1603 C1578 0.950 . S
H1604 C1580 0.950 . S
H1605 C1581 0.949 . S
H1606 C1583 0.950 . S
H1607 C1585 0.950 . S
C1608 C1609 1.349 . S
C1608 C1610 1.327 . S
C1608 H1633 0.950 . S
C1609 C1608 1.349 . S
C1609 C1625 1.349 . S
C1610 C1608 1.327 . S
C1610 C1629 1.429 . S
C1610 H1634 0.950 . S
C1611 C1628 1.574 . S
C1611 C1630 1.368 . S
C1611 H1635 0.949 . S
H1612 C1616 0.949 . S
C1613 C1614 1.349 . S
C1613 C1615 1.327 . S
C1613 H1636 0.950 . S
C1614 C1613 1.349 . S
C1614 C1626 1.349 . S
C1615 C1613 1.327 . S
C1615 C1631 1.429 . S
C1615 H1637 0.950 . S
C1616 H1612 0.949 . S
C1616 C1624 1.574 . S
C1616 C1632 1.368 . S
H1617 C1625 0.950 . S
H1618 C1623 0.950 . S
H1619 C1624 0.949 . S
H1620 C1626 0.950 . S
H1621 C1627 0.950 . S
H1622 C1628 0.949 . S
C1623 H1618 0.950 . S
C1623 C1625 1.327 . S
C1623 C1629 1.429 . S
C1624 C1616 1.574 . S
C1624 H1619 0.949 . S
C1624 C1630 1.368 . S
C1625 C1609 1.349 . S
C1625 H1617 0.950 . S
C1625 C1623 1.327 . S
C1626 C1614 1.349 . S
C1626 H1620 0.950 . S
C1626 C1627 1.327 . S
C1627 H1621 0.950 . S
C1627 C1626 1.327 . S
C1627 C1631 1.429 . S
C1628 C1611 1.574 . S
C1628 H1622 0.949 . S
C1628 C1632 1.368 . S
C1629 C1610 1.429 . S
C1629 C1623 1.429 . S
C1629 C1630 1.523 . S
C1630 C1611 1.368 . S
C1630 C1624 1.368 . S
C1630 C1629 1.523 . S
C1631 C1615 1.429 . S
C1631 C1627 1.429 . S
C1631 C1632 1.523 . S
C1632 C1616 1.368 . S
C1632 C1628 1.368 . S
C1632 C1631 1.523 . S
H1633 C1608 0.950 . S
H1634 C1610 0.950 . S
H1635 C1611 0.949 . S
H1636 C1613 0.950 . S
H1637 C1615 0.950 . S
C1638 C1639 1.349 . S
C1638 C1640 1.327 . S
C1638 H1663 0.950 . S
C1639 C1638 1.349 . S
C1639 C1655 1.349 . S
C1640 C1638 1.327 . S
C1640 C1659 1.429 . S
C1640 H1664 0.950 . S
C1641 C1658 1.574 . S
C1641 C1660 1.368 . S
C1641 H1665 0.949 . S
H1642 C1646 0.949 . S
C1643 C1644 1.349 . S
C1643 C1645 1.327 . S
C1643 H1666 0.950 . S
C1644 C1643 1.349 . S
C1644 C1656 1.349 . S
C1645 C1643 1.327 . S
C1645 C1661 1.429 . S
C1645 H1667 0.950 . S
C1646 H1642 0.949 . S
C1646 C1654 1.574 . S
C1646 C1662 1.368 . S
H1647 C1655 0.950 . S
H1648 C1653 0.950 . S
H1649 C1654 0.949 . S
H1650 C1656 0.950 . S
H1651 C1657 0.950 . S
H1652 C1658 0.949 . S
C1653 H1648 0.950 . S
C1653 C1655 1.327 . S
C1653 C1659 1.429 . S
C1654 C1646 1.574 . S
C1654 H1649 0.949 . S
C1654 C1660 1.368 . S
C1655 C1639 1.349 . S
C1655 H1647 0.950 . S
C1655 C1653 1.327 . S
C1656 C1644 1.349 . S
C1656 H1650 0.950 . S
C1656 C1657 1.327 . S
C1657 H1651 0.950 . S
C1657 C1656 1.327 . S
C1657 C1661 1.429 . S
C1658 C1641 1.574 . S
C1658 H1652 0.949 . S
C1658 C1662 1.368 . S
C1659 C1640 1.429 . S
C1659 C1653 1.429 . S
C1659 C1660 1.523 . S
C1660 C1641 1.368 . S
C1660 C1654 1.368 . S
C1660 C1659 1.523 . S
C1661 C1645 1.429 . S
C1661 C1657 1.429 . S
C1661 C1662 1.523 . S
C1662 C1646 1.368 . S
C1662 C1658 1.368 . S
C1662 C1661 1.523 . S
H1663 C1638 0.950 . S
H1664 C1640 0.950 . S
H1665 C1641 0.949 . S
H1666 C1643 0.950 . S
H1667 C1645 0.950 . S
C1668 C1669 1.349 . S
C1668 C1670 1.327 . S
C1668 H1693 0.950 . S
C1669 C1668 1.349 . S
C1669 C1685 1.349 . S
C1670 C1668 1.327 . S
C1670 C1689 1.429 . S
C1670 H1694 0.950 . S
C1671 C1688 1.574 . S
C1671 C1690 1.368 . S
C1671 H1695 0.949 . S
H1672 C1676 0.949 . S
C1673 C1674 1.349 . S
C1673 C1675 1.327 . S
C1673 H1696 0.950 . S
C1674 C1673 1.349 . S
C1674 C1686 1.349 . S
C1675 C1673 1.327 . S
C1675 C1691 1.429 . S
C1675 H1697 0.950 . S
C1676 H1672 0.949 . S
C1676 C1684 1.574 . S
C1676 C1692 1.368 . S
H1677 C1685 0.950 . S
H1678 C1683 0.950 . S
H1679 C1684 0.949 . S
H1680 C1686 0.950 . S
H1681 C1687 0.950 . S
H1682 C1688 0.949 . S
C1683 H1678 0.950 . S
C1683 C1685 1.327 . S
C1683 C1689 1.429 . S
C1684 C1676 1.574 . S
C1684 H1679 0.949 . S
C1684 C1690 1.368 . S
C1685 C1669 1.349 . S
C1685 H1677 0.950 . S
C1685 C1683 1.327 . S
C1686 C1674 1.349 . S
C1686 H1680 0.950 . S
C1686 C1687 1.327 . S
C1687 H1681 0.950 . S
C1687 C1686 1.327 . S
C1687 C1691 1.429 . S
C1688 C1671 1.574 . S
C1688 H1682 0.949 . S
C1688 C1692 1.368 . S
C1689 C1670 1.429 . S
C1689 C1683 1.429 . S
C1689 C1690 1.523 . S
C1690 C1671 1.368 . S
C1690 C1684 1.368 . S
C1690 C1689 1.523 . S
C1691 C1675 1.429 . S
C1691 C1687 1.429 . S
C1691 C1692 1.523 . S
C1692 C1676 1.368 . S
C1692 C1688 1.368 . S
C1692 C1691 1.523 . S
H1693 C1668 0.950 . S
H1694 C1670 0.950 . S
H1695 C1671 0.949 . S
H1696 C1673 0.950 . S
H1697 C1675 0.950 . S
C1698 C1699 1.349 . S
C1698 C1700 1.327 1_565 S
C1698 H1723 0.950 . S
C1699 C1698 1.349 . S
C1699 C1715 1.349 1_565 S
C1700 C1698 1.327 1_545 S
C1700 C1719 1.429 . S
C1700 H1724 0.950 . S
C1701 C1718 1.574 . S
C1701 C1720 1.368 . S
C1701 H1725 0.949 . S
H1702 C1706 0.949 . S
C1703 C1704 1.349 . S
C1703 C1705 1.327 . S
C1703 H1726 0.950 . S
C1704 C1703 1.349 . S
C1704 C1716 1.349 . S
C1705 C1703 1.327 . S
C1705 C1721 1.429 . S
C1705 H1727 0.950 . S
C1706 H1702 0.949 . S
C1706 C1714 1.574 . S
C1706 C1722 1.368 . S
H1707 C1715 0.950 . S
H1708 C1713 0.950 . S
H1709 C1714 0.949 . S
H1710 C1716 0.950 . S
H1711 C1717 0.950 . S
H1712 C1718 0.949 . S
C1713 H1708 0.950 . S
C1713 C1715 1.327 . S
C1713 C1719 1.429 . S
C1714 C1706 1.574 . S
C1714 H1709 0.949 . S
C1714 C1720 1.368 . S
C1715 C1699 1.349 1_545 S
C1715 H1707 0.950 . S
C1715 C1713 1.327 . S
C1716 C1704 1.349 . S
C1716 H1710 0.950 . S
C1716 C1717 1.327 . S
C1717 H1711 0.950 . S
C1717 C1716 1.327 . S
C1717 C1721 1.429 . S
C1718 C1701 1.574 . S
C1718 H1712 0.949 . S
C1718 C1722 1.368 . S
C1719 C1700 1.429 . S
C1719 C1713 1.429 . S
C1719 C1720 1.523 . S
C1720 C1701 1.368 . S
C1720 C1714 1.368 . S
C1720 C1719 1.523 . S
C1721 C1705 1.429 . S
C1721 C1717 1.429 . S
C1721 C1722 1.523 . S
C1722 C1706 1.368 . S
C1722 C1718 1.368 . S
C1722 C1721 1.523 . S
H1723 C1698 0.950 . S
H1724 C1700 0.950 . S
H1725 C1701 0.949 . S
H1726 C1703 0.950 . S
H1727 C1705 0.950 . S
C649 C122 1.185 . S
C654 C4 1.171 . S
C679 C148 1.163 . S
C684 C50 1.176 . S
C709 C76 1.193 . S
C714 C184 1.188 . S
C739 C86 1.165 . S
C744 C194 1.164 . S
C769 C14 1.200 . S
C774 C112 1.193 . S
C799 C158 1.177 . S
C804 C40 1.161 . S
C829 C328 1.191 . S
C834 C220 1.195 . S
C859 C266 1.181 . S
C864 C364 1.172 . S
C889 C302 1.178 . S
C894 C400 1.162 . S
C919 C410 1.187 1_556 S
C924 C292 1.178 . S
C949 C338 1.173 1_556 S
C954 C230 1.174 . S
C979 C374 1.185 1_556 S
C984 C256 1.174 . S
C1009 C436 1.191 . S
C1014 C554 1.197 . S
C1039 C482 1.187 . S
C1044 C580 1.178 . S
C1069 C508 1.184 . S
C1074 C616 1.176 . S
C1099 C626 1.183 . S
C1104 C518 1.185 1_554 S
C1129 C544 1.176 . S
C1134 C446 1.186 . S
C1159 C590 1.189 . S
C1164 C472 1.178 . S
C1189 C3 1.174 . S
C1194 C255 1.173 . S
C1219 C38 1.103 . S
C1224 C291 1.130 . S
C1249 C218 1.115 . S
C1254 C75 1.141 . S
C1279 C74 1.102 . S
C1284 C470 1.097 . S
C1309 C507 1.140 . S
C1314 C2 1.111 . S
C1339 C435 1.164 . S
C1344 C39 1.160 . S
C1369 C578 1.095 . S
C1374 C110 1.090 . S
C1399 C147 1.138 . S
C1404 C614 1.117 . S
C1429 C543 1.175 . S
C1434 C183 1.170 . S
C1459 C363 1.154 . S
C1464 C182 1.128 . S
C1489 C111 1.168 . S
C1494 C399 1.165 . S
C1519 C146 1.107 . S
C1524 C327 1.130 . S
C1549 C219 1.178 . S
C1554 C471 1.163 . S
C1579 C254 1.087 . S
C1584 C506 1.051 1_455 S
C1609 C290 1.088 . S
C1614 C434 1.082 . S
C1639 C579 1.137 . S
C1644 C398 1.108 . S
C1669 C615 1.161 . S
C1674 C326 1.144 . S
C1699 C362 1.081 . S
C1704 C542 1.078 . S
