# Generated by pormake.
# Topology dft, (4)-cn, num edge types: 1
# Building blocks:
#     Node 0, Type 0, BuildingBlock: TATPOV_clean_sbu_0, # of connection points: 4
#     Node 1, Type 0, BuildingBlock: TATPOV_clean_sbu_0, # of connection points: 4
#     Node 2, Type 0, BuildingBlock: TATPOV_clean_sbu_0, # of connection points: 4
#     Node 3, Type 0, BuildingBlock: TATPOV_clean_sbu_0, # of connection points: 4
#     Node 4, Type 0, BuildingBlock: TATPOV_clean_sbu_0, # of connection points: 4
#     Node 5, Type 0, BuildingBlock: TATPOV_clean_sbu_0, # of connection points: 4
#     Node 6, Type 0, BuildingBlock: TATPOV_clean_sbu_0, # of connection points: 4
#     Node 7, Type 0, BuildingBlock: TATPOV_clean_sbu_0, # of connection points: 4
#     Edge 8, Type (0, 0), BuildingBlock: XUDNAN_clean_linker_2, # of connection points: 2
#     Edge 9, Type (0, 0), BuildingBlock: XUDNAN_clean_linker_2, # of connection points: 2
#     Edge 10, Type (0, 0), BuildingBlock: XUDNAN_clean_linker_2, # of connection points: 2
#     Edge 11, Type (0, 0), BuildingBlock: XUDNAN_clean_linker_2, # of connection points: 2
#     Edge 12, Type (0, 0), BuildingBlock: XUDNAN_clean_linker_2, # of connection points: 2
#     Edge 13, Type (0, 0), BuildingBlock: XUDNAN_clean_linker_2, # of connection points: 2
#     Edge 14, Type (0, 0), BuildingBlock: XUDNAN_clean_linker_2, # of connection points: 2
#     Edge 15, Type (0, 0), BuildingBlock: XUDNAN_clean_linker_2, # of connection points: 2
#     Edge 16, Type (0, 0), BuildingBlock: XUDNAN_clean_linker_2, # of connection points: 2
#     Edge 17, Type (0, 0), BuildingBlock: XUDNAN_clean_linker_2, # of connection points: 2
#     Edge 18, Type (0, 0), BuildingBlock: XUDNAN_clean_linker_2, # of connection points: 2
#     Edge 19, Type (0, 0), BuildingBlock: XUDNAN_clean_linker_2, # of connection points: 2
#     Edge 20, Type (0, 0), BuildingBlock: XUDNAN_clean_linker_2, # of connection points: 2
#     Edge 21, Type (0, 0), BuildingBlock: XUDNAN_clean_linker_2, # of connection points: 2
#     Edge 22, Type (0, 0), BuildingBlock: XUDNAN_clean_linker_2, # of connection points: 2
#     Edge 23, Type (0, 0), BuildingBlock: XUDNAN_clean_linker_2, # of connection points: 2
# Relax obj value: 0.143
# Max RMSD: 0.144
# Mean RMSD: 0.144
data_MOF--net-dft--node1-TATPOV_clean_sbu_0--edge1-XUDNAN_clean_linker_2
_symmetry_space_group_name_H-M    P1
_symmetry_Int_Tables_number       1
_symmetry_cell_setting            triclinic
loop_
_symmetry_equiv_pos_as_xyz
'x, y, z'
_cell_length_a     33.982135
_cell_length_b     33.844802
_cell_length_c     41.08957
_cell_angle_alpha  89.942988
_cell_angle_beta   89.968021
_cell_angle_gamma 90.073067
loop_
_atom_site_label
_atom_site_type_symbol
_atom_site_fract_x
_atom_site_fract_y
_atom_site_fract_z
_atom_type_partial_charge
Zn0 Zn 0.23532 0.99487 0.12777 0.0
Zn1 Zn 0.28824 0.99654 0.17553 0.0
O2 O 0.25352 0.94919 0.18892 0.0
O3 O 0.20482 0.95461 0.15375 0.0
O4 O 0.33007 0.00059 0.20984 0.0
O5 O 0.27809 0.97684 0.09729 0.0
O6 O 0.32254 0.98851 0.13504 0.0
C7 C 0.22006 0.93798 0.1783 0.0
C8 C 0.2378 0.06946 0.15886 0.0
O9 O 0.26066 0.05023 0.17761 0.0
O10 O 0.22403 0.0532 0.13358 0.0
C11 C 0.35039 0.03215 0.20973 0.0
O12 O 0.34058 0.06067 0.1896 0.0
C13 C 0.31371 0.97883 0.10611 0.0
Zn14 Zn 0.00665 0.21396 0.65513 0.0
Zn15 Zn 0.00363 0.28536 0.6821 0.0
O16 O 0.04711 0.25787 0.70912 0.0
O17 O 0.04811 0.1983 0.68745 0.0
O18 O 0.00106 0.34074 0.69952 0.0
O19 O 0.02407 0.23657 0.6129 0.0
O20 O 0.01615 0.29605 0.63348 0.0
C21 C 0.0611 0.22294 0.70798 0.0
C22 C 0.93044 0.23283 0.68087 0.0
O23 O 0.94817 0.26366 0.69089 0.0
O24 O 0.94848 0.2073 0.66404 0.0
C25 C 0.98668 0.35047 0.72692 0.0
O26 O 0.97348 0.32285 0.74661 0.0
C27 C 0.02458 0.27369 0.60954 0.0
Zn28 Zn 0.75667 0.97191 0.14435 0.0
Zn29 Zn 0.6924 0.98821 0.17982 0.0
O30 O 0.73 0.03196 0.19466 0.0
O31 O 0.78402 0.01719 0.16759 0.0
O32 O 0.64437 0.99605 0.20717 0.0
O33 O 0.72413 0.98016 0.10413 0.0
O34 O 0.67151 0.99487 0.13309 0.0
C35 C 0.76591 0.03879 0.18782 0.0
C36 C 0.73511 0.90743 0.1843 0.0
O37 O 0.70869 0.93183 0.19322 0.0
O38 O 0.75985 0.91722 0.16274 0.0
C39 C 0.62704 0.02912 0.2095 0.0
O40 O 0.64146 0.05988 0.194 0.0
C41 C 0.6882 0.98984 0.10568 0.0
Zn42 Zn 0.0025 0.78127 0.67327 0.0
Zn43 Zn 0.98819 0.70973 0.69283 0.0
O44 O 0.93893 0.73856 0.71054 0.0
O45 O 0.95636 0.79991 0.69951 0.0
O46 O 0.98149 0.65277 0.70544 0.0
O47 O -0.00282 0.76703 0.6267 0.0
O48 O 0.99115 0.7053 0.64259 0.0
C49 C 0.93255 0.77561 0.71223 0.0
C50 C 0.06396 0.7538 0.71254 0.0
O51 O 0.0399 0.72524 0.71653 0.0
O52 O 0.05587 0.78139 0.69293 0.0
C53 C 0.97185 0.64 0.73342 0.0
O54 O 0.96418 0.66527 0.75682 0.0
C55 C 0.99401 0.73077 0.61985 0.0
Zn56 Zn 0.23784 0.98459 0.87499 0.0
Zn57 Zn 0.29185 0.98569 0.82671 0.0
O58 O 0.25915 0.03575 0.81808 0.0
O59 O 0.21722 0.03731 0.85903 0.0
O60 O 0.33514 0.98628 0.79348 0.0
O61 O 0.28111 0.98224 0.90766 0.0
O62 O 0.32539 0.98489 0.86849 0.0
C63 C 0.23115 0.0526 0.83334 0.0
C64 C 0.23378 0.91687 0.83259 0.0
O65 O 0.26205 0.93408 0.8179 0.0
O66 O 0.21797 0.93257 0.85731 0.0
C67 C 0.33997 0.00961 0.76955 0.0
O68 O 0.31286 0.03604 0.76289 0.0
C69 C 0.31663 0.98283 0.89852 0.0
Zn70 Zn 0.03254 0.21337 0.32708 0.0
Zn71 Zn 0.01082 0.28297 0.30458 0.0
O72 O 0.96263 0.24917 0.29243 0.0
O73 O 0.98317 0.19019 0.30752 0.0
O74 O -0.00274 0.33765 0.28984 0.0
O75 O 0.03454 0.23328 0.37264 0.0
O76 O 0.01947 0.2922 0.35382 0.0
C77 C 0.95733 0.21196 0.29444 0.0
C78 C 0.08583 0.2425 0.27972 0.0
O79 O 0.06015 0.26973 0.27723 0.0
O80 O 0.08175 0.21543 0.30069 0.0
C81 C -0.00105 0.34976 0.26059 0.0
O82 O 0.00853 0.32493 0.23735 0.0
C83 C 0.02861 0.26968 0.37749 0.0
Zn84 Zn 0.74567 0.03658 0.8423 0.0
Zn85 Zn 0.68167 0.02224 0.80694 0.0
O86 O 0.7145 0.9726 0.79703 0.0
O87 O 0.7688 0.98638 0.82398 0.0
O88 O 0.63125 0.01392 0.78207 0.0
O89 O 0.71467 0.03426 0.88342 0.0
O90 O 0.66103 0.02443 0.85437 0.0
C91 C 0.74939 0.96352 0.80557 0.0
C92 C 0.7339 0.09611 0.79517 0.0
O93 O 0.70574 0.07312 0.78725 0.0
O94 O 0.75499 0.0882 0.81968 0.0
C95 C 0.62014 0.03275 0.75689 0.0
O96 O 0.64339 0.05958 0.74403 0.0
C97 C 0.6779 0.02904 0.88177 0.0
Zn98 Zn 0.96292 0.77589 0.3314 0.0
Zn99 Zn 0.97341 0.70446 0.31167 0.0
O100 O 0.01967 0.73405 0.28993 0.0
O101 O 0.00194 0.79577 0.2983 0.0
O102 O 0.97939 0.64851 0.29684 0.0
O103 O 0.98093 0.76153 0.37606 0.0
O104 O 0.97839 0.69911 0.36151 0.0
C105 C 0.02498 0.77093 0.28542 0.0
C106 C 0.89414 0.74583 0.30293 0.0
O107 O 0.91804 0.71874 0.29454 0.0
O108 O 0.90532 0.77344 0.32143 0.0
C109 C 0.98061 0.63842 0.26709 0.0
O110 O 0.97902 0.66575 0.2444 0.0
C111 C 0.98311 0.7253 0.3834 0.0
H112 H 0.32295 0.91624 0.06708 0.0
H113 H 0.3694 0.03208 0.08815 0.0
H114 H 0.40024 0.03456 0.03387 0.0
H115 H 0.40836 0.88809 0.00162 0.0
H116 H 0.37146 0.86184 0.97871 0.0
H117 H 0.37055 0.8607 0.0226 0.0
H118 H 0.29862 0.88543 0.0217 0.0
H119 H 0.29938 0.8869 0.9784 0.0
H120 H 0.28713 0.93099 0.00088 0.0
H121 H 0.39931 0.03716 0.97465 0.0
H122 H 0.36966 0.03756 0.91981 0.0
H123 H 0.32727 0.91875 0.93469 0.0
C124 C 0.342 0.94074 0.06074 0.0
C125 C 0.34423 0.97377 0.08131 0.0
C126 C 0.36814 0.0062 0.07268 0.0
C127 C 0.38577 0.00774 0.04185 0.0
C128 C 0.37992 0.97616 0.02047 0.0
C129 C 0.35985 0.94234 0.03011 0.0
C130 C 0.3502 0.91629 0.00128 0.0
C131 C 0.37674 0.87957 0.00104 0.0
C132 C 0.30626 0.90437 0.00054 0.0
C133 C 0.36113 0.94394 0.97377 0.0
C134 C 0.38047 0.97733 0.98511 0.0
C135 C 0.38594 0.0105 0.96523 0.0
C136 C 0.36906 0.01061 0.93405 0.0
C137 C 0.34697 0.97784 0.92339 0.0
C138 C 0.34522 0.94344 0.94248 0.0
H139 H 0.06953 0.24043 0.56304 0.0
H140 H 0.99573 0.34203 0.58222 0.0
H141 H -0.00241 0.35947 0.52359 0.0
H142 H 0.12779 0.28499 0.49318 0.0
H143 H 0.12831 0.23798 0.47261 0.0
H144 H 0.12886 0.23983 0.51646 0.0
H145 H 0.06717 0.19472 0.51801 0.0
H146 H 0.06598 0.1932 0.4744 0.0
H147 H 0.02335 0.20979 0.49663 0.0
H148 H -0.00278 0.35749 0.46155 0.0
H149 H 0.99614 0.33732 0.4035 0.0
H150 H 0.06951 0.23651 0.42684 0.0
C151 C 0.05492 0.26716 0.55507 0.0
C152 C 0.03253 0.28993 0.57693 0.0
C153 C 0.01345 0.3245 0.56576 0.0
C154 C 0.01433 0.33454 0.53253 0.0
C155 C 0.03506 0.31009 0.5112 0.0
C156 C 0.05565 0.27748 0.52228 0.0
C157 C 0.07161 0.253 0.49461 0.0
C158 C 0.11683 0.25404 0.49419 0.0
C159 C 0.05606 0.2102 0.49601 0.0
C160 C 0.05471 0.27533 0.46612 0.0
C161 C 0.03451 0.30873 0.47587 0.0
C162 C 0.01369 0.33189 0.45363 0.0
C163 C 0.01311 0.3202 0.42077 0.0
C164 C 0.03258 0.28527 0.41084 0.0
C165 C 0.05431 0.26333 0.43375 0.0
H166 H 0.6831 0.96487 0.91888 0.0
H167 H 0.62953 0.08041 0.91406 0.0
H168 H 0.61143 0.07548 0.97245 0.0
H169 H 0.61664 0.92102 0.98635 0.0
H170 H 0.6586 0.89595 0.00343 0.0
H171 H 0.65507 0.90301 0.96002 0.0
H172 H 0.7234 0.93708 0.96024 0.0
H173 H 0.72695 0.93074 0.00339 0.0
H174 H 0.73128 0.97948 0.986 0.0
H175 H 0.61348 0.06431 0.03318 0.0
H176 H 0.63725 0.04935 0.08896 0.0
H177 H 0.6923 0.94261 0.0533 0.0
C178 C 0.66555 0.98802 0.92984 0.0
C179 C 0.65663 0.02245 0.91225 0.0
C180 C 0.63541 0.05331 0.92723 0.0
C181 C 0.62513 0.05068 0.96033 0.0
C182 C 0.63621 0.01694 0.97771 0.0
C183 C 0.65554 0.98586 0.9627 0.0
C184 C 0.67084 0.95631 0.98718 0.0
C185 C 0.64896 0.91673 0.98406 0.0
C186 C 0.71574 0.95065 0.98401 0.0
C187 C 0.66002 0.97703 0.01841 0.0
C188 C 0.63874 0.01119 0.0127 0.0
C189 C 0.6292 0.03714 0.03795 0.0
C190 C 0.64278 0.0285 0.06951 0.0
C191 C 0.66644 0.99486 0.07507 0.0
C192 C 0.67393 0.96834 0.04949 0.0
H193 H 0.00827 0.77343 0.43168 0.0
H194 H 0.9711 0.65292 0.41286 0.0
H195 H 0.97445 0.63853 0.47203 0.0
H196 H 0.0751 0.75158 0.49955 0.0
H197 H 0.06135 0.7962 0.52058 0.0
H198 H 0.06043 0.79467 0.47677 0.0
H199 H 0.98734 0.8167 0.47744 0.0
H200 H 0.98788 0.81793 0.52116 0.0
H201 H 0.95192 0.78816 0.50021 0.0
H202 H 0.97601 0.64029 0.53464 0.0
H203 H 0.97699 0.65764 0.59333 0.0
H204 H 0.01234 0.77714 0.56823 0.0
C205 C 0.00141 0.74376 0.43982 0.0
C206 C 0.98933 0.71431 0.41776 0.0
C207 C 0.98063 0.67588 0.42943 0.0
C208 C 0.98241 0.66748 0.46295 0.0
C209 C 0.99336 0.69775 0.48416 0.0
C210 C 0.00308 0.73499 0.47284 0.0
C211 C 0.01159 0.76332 0.50021 0.0
C212 C 0.05468 0.77724 0.49921 0.0
C213 C 0.98297 0.79858 0.49972 0.0
C214 C 0.00406 0.73666 0.52892 0.0
C215 C 0.99399 0.69881 0.51947 0.0
C216 C 0.98428 0.66975 0.54225 0.0
C217 C 0.98482 0.67986 0.57547 0.0
C218 C 0.99457 0.71877 0.58532 0.0
C219 C 0.00462 0.74715 0.56159 0.0
H220 H 0.40651 0.08925 0.20433 0.0
H221 H 0.382 0.97688 0.25102 0.0
H222 H 0.45152 0.97204 0.26761 0.0
H223 H 0.48748 0.06178 0.16749 0.0
H224 H 0.51506 0.10706 0.17142 0.0
H225 H 0.46236 0.10834 0.17216 0.0
H226 H 0.46361 0.1435 0.22813 0.0
H227 H 0.51668 0.14278 0.22744 0.0
H228 H 0.49045 0.12179 0.26146 0.0
H229 H 0.52421 0.97104 0.267 0.0
H230 H 0.59362 0.97429 0.24986 0.0
H231 H 0.57176 0.08711 0.20316 0.0
C232 C 0.41537 0.06446 0.21929 0.0
C233 C 0.38888 0.03347 0.2264 0.0
C234 C 0.40177 0.00108 0.2454 0.0
C235 C 0.44121 0.99818 0.25508 0.0
C236 C 0.4672 0.02812 0.2459 0.0
C237 C 0.45466 0.06102 0.22882 0.0
C238 C 0.48912 0.08569 0.21716 0.0
C239 C 0.48844 0.09096 0.17988 0.0
C240 C 0.49001 0.12582 0.2346 0.0
C241 C 0.52299 0.05988 0.22797 0.0
C242 C 0.5098 0.02745 0.2454 0.0
C243 C 0.53502 0.99685 0.25424 0.0
C244 C 0.57437 -0.00116 0.2442 0.0
C245 C 0.58803 0.03104 0.22526 0.0
C246 C 0.56231 0.06255 0.21817 0.0
H247 H 0.00514 0.41403 0.68879 0.0
H248 H 0.95912 0.38273 0.78399 0.0
H249 H 0.95066 0.4537 0.79671 0.0
H250 H 0.05858 0.50098 0.71367 0.0
H251 H 0.04701 0.52773 0.67695 0.0
H252 H 0.05044 0.47465 0.67615 0.0
H253 H 0.97991 0.4705 0.65233 0.0
H254 H 0.9762 0.52354 0.65319 0.0
H255 H 0.93981 0.49376 0.6737 0.0
H256 H 0.94658 0.52889 0.79835 0.0
H257 H 0.94713 0.60112 0.78865 0.0
H258 H 0.99473 0.58132 0.69197 0.0
C259 C 0.99353 0.42196 0.71245 0.0
C260 C 0.98289 0.39279 0.73544 0.0
C261 C 0.96755 0.40457 0.766 0.0
C262 C 0.96263 0.44479 0.77344 0.0
C263 C 0.97314 0.47275 0.75003 0.0
C264 C 0.98829 0.46175 0.72017 0.0
C265 C -0.00336 0.49725 0.6989 0.0
C266 C 0.04079 0.50032 0.69097 0.0
C267 C 0.97164 0.49618 0.6677 0.0
C268 C 0.98366 0.53007 0.72136 0.0
C269 C 0.97033 0.51552 0.7508 0.0
C270 C 0.95697 0.54057 0.77537 0.0
C271 C 0.95738 0.58153 0.76964 0.0
C272 C 0.97086 0.5969 0.73954 0.0
C273 C 0.98406 0.57061 0.7152 0.0
H274 H 0.56746 0.97591 0.77473 0.0
H275 H 0.58003 0.07987 0.71375 0.0
H276 H 0.50875 0.07807 0.70197 0.0
H277 H 0.48551 0.92784 0.72658 0.0
H278 H 0.4625 0.91037 0.76342 0.0
H279 H 0.51531 0.91502 0.76129 0.0
H280 H 0.51437 0.95975 0.81247 0.0
H281 H 0.46182 0.95541 0.81468 0.0
H282 H 0.4843 0.00361 0.8125 0.0
H283 H 0.43493 0.07229 0.70545 0.0
H284 H 0.36614 0.06255 0.72342 0.0
H285 H 0.40268 0.96153 0.78102 0.0
C286 C 0.55548 0.9976 0.75808 0.0
C287 C 0.57927 0.02802 0.74517 0.0
C288 C 0.5624 0.05611 0.72377 0.0
C289 C 0.52193 0.05527 0.71687 0.0
C290 C 0.49897 0.02574 0.7311 0.0
C291 C 0.51534 0.99705 0.75089 0.0
C292 C 0.48407 0.97122 0.7662 0.0
C293 C 0.48703 0.92858 0.75361 0.0
C294 C 0.48628 0.97263 0.80366 0.0
C295 C 0.44743 0.9913 0.75356 0.0
C296 C 0.45647 0.02219 0.73282 0.0
C297 C 0.42745 0.04758 0.72101 0.0
C298 C 0.38844 0.04186 0.73139 0.0
C299 C 0.37899 0.01124 0.75358 0.0
C300 C 0.40879 0.98495 0.76376 0.0
H301 H 0.98391 0.40838 0.30435 0.0
H302 H 0.00239 0.38741 0.20125 0.0
H303 H -0.00234 0.45933 0.19091 0.0
H304 H 0.91458 0.48931 0.29591 0.0
H305 H 0.93429 0.51538 0.3305 0.0
H306 H 0.93662 0.46225 0.32902 0.0
H307 H 0.01219 0.46537 0.3374 0.0
H308 H 0.01015 0.51846 0.3387 0.0
H309 H 0.04184 0.4942 0.30978 0.0
H310 H 0.99352 0.53447 0.19267 0.0
H311 H 0.99004 0.60563 0.20634 0.0
H312 H 0.97565 0.57544 0.30838 0.0
C313 C 0.98652 0.41871 0.27949 0.0
C314 C 0.99343 0.39224 0.25358 0.0
C315 C -0.00304 0.40715 0.22147 0.0
C316 C 0.99433 0.44793 0.21538 0.0
C317 C 0.98813 0.47323 0.24165 0.0
C318 C 0.98414 0.45908 0.27304 0.0
C319 C 0.97908 0.49221 0.29728 0.0
C320 C 0.93874 0.48962 0.31416 0.0
C321 C 0.01283 0.49257 0.32225 0.0
C322 C 0.98131 0.52738 0.27473 0.0
C323 C 0.98627 0.516 0.24271 0.0
C324 C 0.98949 0.54368 0.21767 0.0
C325 C 0.98753 0.58399 0.22566 0.0
C326 C 0.98266 0.5961 0.25842 0.0
C327 C 0.9795 0.56724 0.2831 0.0
H328 H 0.15766 0.21112 0.29016 0.0
H329 H 0.08385 0.26156 0.21509 0.0
H330 H 0.12757 0.23363 0.17298 0.0
H331 H 0.25616 0.21503 0.24077 0.0
H332 H 0.27049 0.16859 0.25869 0.0
H333 H 0.24222 0.20361 0.28206 0.0
H334 H 0.19008 0.14941 0.29321 0.0
H335 H 0.21744 0.11462 0.26952 0.0
H336 H 0.16687 0.12485 0.25931 0.0
H337 H 0.16499 0.18413 0.14101 0.0
H338 H 0.19649 0.12276 0.12186 0.0
H339 H 0.24778 0.10553 0.21742 0.0
C340 C 0.15206 0.21801 0.26483 0.0
C341 C 0.11767 0.23839 0.2557 0.0
C342 C 0.11047 0.24645 0.22249 0.0
C343 C 0.13515 0.23061 0.19843 0.0
C344 C 0.16729 0.20779 0.20818 0.0
C345 C 0.1765 0.20255 0.24072 0.0
C346 C 0.2083 0.17177 0.24519 0.0
C347 C 0.24657 0.1909 0.25739 0.0
C348 C 0.19481 0.13821 0.26811 0.0
C349 C 0.21269 0.15759 0.21054 0.0
C350 C 0.18967 0.1794 0.18935 0.0
C351 C 0.18423 0.16779 0.15709 0.0
C352 C 0.20198 0.13268 0.14649 0.0
C353 C 0.22469 0.10949 0.16816 0.0
C354 C 0.23121 0.12304 0.20014 0.0
H355 H 0.89905 0.24089 0.74117 0.0
H356 H 0.87161 0.20381 0.64299 0.0
H357 H 0.80693 0.1791 0.66154 0.0
H358 H 0.86931 0.1574 0.77591 0.0
H359 H 0.84966 0.1782 0.81288 0.0
H360 H 0.88714 0.20421 0.79083 0.0
H361 H 0.84208 0.26579 0.78716 0.0
H362 H 0.80424 0.23977 0.80934 0.0
H363 H 0.7934 0.26114 0.77016 0.0
H364 H 0.75225 0.14738 0.69155 0.0
H365 H 0.71666 0.10498 0.73053 0.0
H366 H 0.78139 0.15843 0.81007 0.0
C367 C 0.87847 0.22928 0.72345 0.0
C368 C 0.88959 0.22492 0.69064 0.0
C369 C 0.8631 0.20783 0.66819 0.0
C370 C 0.82625 0.19402 0.67848 0.0
C371 C 0.81659 0.19718 0.71137 0.0
C372 C 0.84205 0.21433 0.73359 0.0
C373 C 0.8286 0.20691 0.7682 0.0
C374 C 0.86056 0.18538 0.78808 0.0
C375 C 0.81634 0.24572 0.78468 0.0
C376 C 0.79325 0.1807 0.76203 0.0
C377 C 0.78579 0.17682 0.72912 0.0
C378 C 0.75722 0.15084 0.7174 0.0
C379 C 0.73706 0.12687 0.73975 0.0
C380 C 0.74634 0.12844 0.77329 0.0
C381 C 0.77348 0.15693 0.78457 0.0
H382 H 0.87786 0.74466 0.2388 0.0
H383 H 0.82484 0.75916 0.33364 0.0
H384 H 0.76494 0.78612 0.3082 0.0
H385 H 0.85817 0.83149 0.21363 0.0
H386 H 0.84775 0.82167 0.17137 0.0
H387 H 0.87797 0.78823 0.19394 0.0
H388 H 0.83136 0.7302 0.17976 0.0
H389 H 0.80097 0.76359 0.15655 0.0
H390 H 0.77952 0.73406 0.18851 0.0
H391 H 0.7216 0.82849 0.27616 0.0
H392 H 0.70049 0.88385 0.2414 0.0
H393 H 0.78255 0.84624 0.16681 0.0
C394 C 0.85245 0.75112 0.25379 0.0
C395 C 0.85518 0.74908 0.2879 0.0
C396 C 0.82264 0.75981 0.30733 0.0
C397 C 0.78849 0.77503 0.29303 0.0
C398 C 0.78761 0.77967 0.2593 0.0
C399 C 0.81867 0.76758 0.23979 0.0
C400 C 0.81489 0.78415 0.20567 0.0
C401 C 0.85185 0.8078 0.19564 0.0
C402 C 0.80615 0.75102 0.18118 0.0
C403 C 0.77944 0.81064 0.21005 0.0
C404 C 0.76295 0.80619 0.24061 0.0
C405 C 0.73345 0.83142 0.25183 0.0
C406 C 0.72172 0.86295 0.23195 0.0
C407 C 0.74009 0.86941 0.2015 0.0
C408 C 0.76785 0.84179 0.18991 0.0
H409 H 0.13099 0.79313 0.69769 0.0
H410 H 0.07378 0.72761 0.77503 0.0
H411 H 0.12268 0.75315 0.81422 0.0
H412 H 0.23643 0.78837 0.73342 0.0
H413 H 0.24584 0.83784 0.7191 0.0
H414 H 0.2144 0.8053 0.69604 0.0
H415 H 0.15925 0.85797 0.69783 0.0
H416 H 0.18992 0.89024 0.72133 0.0
H417 H 0.14228 0.87593 0.73669 0.0
H418 H 0.16365 0.79981 0.84614 0.0
H419 H 0.19843 0.8583 0.86763 0.0
H420 H 0.2315 0.89204 0.76961 0.0
C421 C 0.13 0.78269 0.7226 0.0
C422 C 0.09883 0.75845 0.73345 0.0
C423 C 0.09782 0.74576 0.76622 0.0
C424 C 0.12545 0.76022 0.78863 0.0
C425 C 0.15429 0.78642 0.77757 0.0
C426 C 0.15746 0.79665 0.74507 0.0
C427 C 0.18719 0.82945 0.73999 0.0
C428 C 0.22311 0.81432 0.72102 0.0
C429 C 0.16851 0.86549 0.72299 0.0
C430 C 0.19779 0.83846 0.77492 0.0
C431 C 0.17912 0.81284 0.79622 0.0
C432 C 0.17959 0.81909 0.82974 0.0
C433 C 0.19909 0.85256 0.84171 0.0
C434 C 0.21795 0.87925 0.82021 0.0
C435 C 0.21825 0.87141 0.78655 0.0
H436 H 0.82709 0.9452 0.80877 0.0
H437 H 0.71521 0.90026 0.77384 0.0
H438 H 0.74922 0.84139 0.75152 0.0
H439 H 0.88087 0.92023 0.74029 0.0
H440 H 0.92515 0.90816 0.76227 0.0
H441 H 0.89104 0.94326 0.77893 0.0
H442 H 0.88604 0.90155 0.83179 0.0
H443 H 0.92009 0.86612 0.81516 0.0
H444 H 0.87242 0.85015 0.82929 0.0
H445 H 0.79748 0.78892 0.7302 0.0
H446 H 0.85504 0.75272 0.70765 0.0
H447 H 0.9335 0.83559 0.75495 0.0
C448 C 0.80945 0.92271 0.79699 0.0
C449 C 0.76843 0.92716 0.7933 0.0
C450 C 0.74669 0.89735 0.77706 0.0
C451 C 0.76573 0.86374 0.76449 0.0
C452 C 0.80643 0.86054 0.76835 0.0
C453 C 0.82791 0.8895 0.7841 0.0
C454 C 0.87155 0.88154 0.78254 0.0
C455 C 0.89341 0.91528 0.76495 0.0
C456 C 0.88851 0.87441 0.81673 0.0
C457 C 0.87158 0.84409 0.76269 0.0
C458 C 0.83384 0.83169 0.75528 0.0
C459 C 0.82709 0.79826 0.73611 0.0
C460 C 0.8598 0.77778 0.72355 0.0
C461 C 0.89838 0.79154 0.72974 0.0
C462 C 0.90417 0.8245 0.75004 0.0
H463 H 0.14082 0.93191 0.18345 0.0
H464 H 0.24927 0.87335 0.21085 0.0
H465 H 0.2106 0.81983 0.2372 0.0
H466 H 0.09147 0.91323 0.25781 0.0
H467 H 0.04388 0.90724 0.23907 0.0
H468 H 0.08032 0.93833 0.22021 0.0
H469 H 0.07423 0.89772 0.16695 0.0
H470 H 0.038 0.86623 0.18579 0.0
H471 H 0.08166 0.84501 0.16808 0.0
H472 H 0.15886 0.77245 0.26018 0.0
H473 H 0.09981 0.74105 0.28471 0.0
H474 H 0.02695 0.83461 0.24541 0.0
C475 C 0.15645 0.90759 0.1947 0.0
C476 C 0.19792 0.90633 0.19485 0.0
C477 C 0.21743 0.87465 0.21048 0.0
C478 C 0.19573 0.84408 0.22525 0.0
C479 C 0.1547 0.84614 0.22449 0.0
C480 C 0.13538 0.87752 0.21006 0.0
C481 C 0.09137 0.87484 0.21478 0.0
C482 C 0.07587 0.91051 0.23413 0.0
C483 C 0.07007 0.87069 0.18194 0.0
C484 C 0.08877 0.83716 0.23437 0.0
C485 C 0.12543 0.82044 0.23915 0.0
C486 C 0.13006 0.78536 0.25661 0.0
C487 C 0.09644 0.76762 0.27026 0.0
C488 C 0.05909 0.78559 0.26691 0.0
C489 C 0.05527 0.82038 0.24833 0.0
H490 H 0.11883 0.16955 0.69623 0.0
H491 H 0.07189 0.24604 0.77132 0.0
H492 H 0.11738 0.21586 0.81141 0.0
H493 H 0.12638 0.0855 0.74136 0.0
H494 H 0.17197 0.06833 0.72398 0.0
H495 H 0.14014 0.0998 0.70062 0.0
H496 H 0.19716 0.14974 0.69231 0.0
H497 H 0.22938 0.11821 0.71555 0.0
H498 H 0.22281 0.1691 0.72724 0.0
H499 H 0.15883 0.16881 0.84452 0.0
H500 H 0.19733 0.11317 0.86711 0.0
H501 H 0.22094 0.07118 0.76944 0.0
C502 C 0.11883 0.18061 0.72096 0.0
C503 C 0.09192 0.20998 0.73085 0.0
C504 C 0.09258 0.22374 0.76332 0.0
C505 C 0.11825 0.20674 0.78619 0.0
C506 C 0.14366 0.17688 0.77583 0.0
C507 C 0.14473 0.16459 0.74378 0.0
C508 C 0.17292 0.13048 0.7391 0.0
C509 C 0.15156 0.09388 0.72548 0.0
C510 C 0.20763 0.14262 0.71726 0.0
C511 C 0.1861 0.12403 0.77383 0.0
C512 C 0.16907 0.15118 0.79468 0.0
C513 C 0.17324 0.14817 0.82834 0.0
C514 C 0.19498 0.11643 0.84096 0.0
C515 C 0.21259 0.08843 0.81993 0.0
C516 C 0.20877 0.09288 0.78597 0.0
H517 H 0.95337 0.13883 0.26798 0.0
H518 H 0.88308 0.24312 0.28702 0.0
H519 H 0.82501 0.20997 0.26241 0.0
H520 H 0.91175 0.1185 0.18979 0.0
H521 H 0.91467 0.06566 0.19474 0.0
H522 H 0.9495 0.09719 0.21512 0.0
H523 H 0.93032 0.0659 0.27055 0.0
H524 H 0.89543 0.03426 0.25034 0.0
H525 H 0.87947 0.06583 0.28309 0.0
H526 H 0.77397 0.16287 0.23765 0.0
H527 H 0.73668 0.10938 0.21009 0.0
H528 H 0.84336 0.03968 0.20374 0.0
C529 C 0.92568 0.15463 0.26722 0.0
C530 C 0.92239 0.19326 0.27974 0.0
C531 C 0.88599 0.21337 0.27763 0.0
C532 C 0.85295 0.19475 0.26381 0.0
C533 C 0.85723 0.15644 0.25174 0.0
C534 C 0.89292 0.13694 0.25293 0.0
C535 C 0.89067 0.09678 0.23704 0.0
C536 C 0.91827 0.09442 0.20741 0.0
C537 C 0.89948 0.06375 0.26173 0.0
C538 C 0.84801 0.09641 0.22685 0.0
C539 C 0.82891 0.13075 0.23588 0.0
C540 C 0.78879 0.13609 0.23015 0.0
C541 C 0.76785 0.10562 0.2146 0.0
C542 C 0.78736 0.0708 0.20447 0.0
C543 C 0.82789 0.06633 0.21071 0.0
loop_
_geom_bond_atom_site_label_1
_geom_bond_atom_site_label_2
_geom_bond_distance
_geom_bond_site_symmetry_2
_ccdc_geom_bond_type
Zn0 O3 2.031 . S
Zn0 O5 2.049 1_565 S
Zn0 O10 2.067 1_565 S
Zn1 O2 1.962 . S
Zn1 O4 1.986 . S
Zn1 O6 1.996 . S
Zn1 O9 1.943 1_565 S
O2 Zn1 1.962 . S
O2 C7 1.254 . S
O3 Zn0 2.031 . S
O3 C7 1.269 . S
O4 Zn1 1.986 . S
O4 C11 1.262 . S
O5 Zn0 2.049 1_545 S
O5 C13 1.260 . S
O6 Zn1 1.996 . S
O6 C13 1.257 1_565 S
C7 O2 1.254 . S
C7 O3 1.269 . S
C8 O9 1.249 . S
C8 O10 1.270 . S
O9 Zn1 1.943 1_545 S
O9 C8 1.249 . S
O10 Zn0 2.067 1_545 S
O10 C8 1.270 . S
C11 O4 1.262 . S
C11 O12 1.232 . S
O12 C11 1.232 . S
C13 O5 1.260 . S
C13 O6 1.257 1_545 S
Zn14 O17 2.031 . S
Zn14 O19 2.049 1_455 S
Zn14 O24 2.067 1_455 S
Zn15 O16 1.962 . S
Zn15 O18 1.986 . S
Zn15 O20 1.996 . S
Zn15 O23 1.943 1_455 S
O16 Zn15 1.962 . S
O16 C21 1.254 . S
O17 Zn14 2.031 . S
O17 C21 1.269 . S
O18 Zn15 1.986 . S
O18 C25 1.262 . S
O19 Zn14 2.049 1_655 S
O19 C27 1.260 . S
O20 Zn15 1.996 . S
O20 C27 1.257 1_455 S
C21 O16 1.254 . S
C21 O17 1.269 . S
C22 O23 1.249 . S
C22 O24 1.270 . S
O23 Zn15 1.943 1_655 S
O23 C22 1.249 . S
O24 Zn14 2.067 1_655 S
O24 C22 1.270 . S
C25 O18 1.262 . S
C25 O26 1.232 . S
O26 C25 1.232 . S
C27 O19 1.260 . S
C27 O20 1.257 1_655 S
Zn28 O31 2.031 . S
Zn28 O33 2.049 1_545 S
Zn28 O38 2.067 1_545 S
Zn29 O30 1.962 . S
Zn29 O32 1.986 . S
Zn29 O34 1.996 . S
Zn29 O37 1.943 1_545 S
O30 Zn29 1.962 . S
O30 C35 1.254 . S
O31 Zn28 2.031 . S
O31 C35 1.269 . S
O32 Zn29 1.986 . S
O32 C39 1.262 . S
O33 Zn28 2.049 1_565 S
O33 C41 1.260 . S
O34 Zn29 1.996 . S
O34 C41 1.257 1_545 S
C35 O30 1.254 . S
C35 O31 1.269 . S
C36 O37 1.249 . S
C36 O38 1.270 . S
O37 Zn29 1.943 1_565 S
O37 C36 1.249 . S
O38 Zn28 2.067 1_565 S
O38 C36 1.270 . S
C39 O32 1.262 . S
C39 O40 1.232 . S
O40 C39 1.232 . S
C41 O33 1.260 . S
C41 O34 1.257 1_565 S
Zn42 O45 2.031 . S
Zn42 O47 2.049 1_655 S
Zn42 O52 2.067 1_655 S
Zn43 O44 1.962 . S
Zn43 O46 1.986 . S
Zn43 O48 1.996 . S
Zn43 O51 1.943 1_655 S
O44 Zn43 1.962 . S
O44 C49 1.254 . S
O45 Zn42 2.031 . S
O45 C49 1.269 . S
O46 Zn43 1.986 . S
O46 C53 1.262 . S
O47 Zn42 2.049 1_455 S
O47 C55 1.260 . S
O48 Zn43 1.996 . S
O48 C55 1.257 1_655 S
C49 O44 1.254 . S
C49 O45 1.269 . S
C50 O51 1.249 . S
C50 O52 1.270 . S
O51 Zn43 1.943 1_455 S
O51 C50 1.249 . S
O52 Zn42 2.067 1_455 S
O52 C50 1.270 . S
C53 O46 1.262 . S
C53 O54 1.232 . S
O54 C53 1.232 . S
C55 O47 1.260 . S
C55 O48 1.257 1_455 S
Zn56 O59 2.031 . S
Zn56 O61 2.049 1_545 S
Zn56 O66 2.067 1_545 S
Zn57 O58 1.962 . S
Zn57 O60 1.986 . S
Zn57 O62 1.996 . S
Zn57 O65 1.943 1_545 S
O58 Zn57 1.962 . S
O58 C63 1.254 . S
O59 Zn56 2.031 . S
O59 C63 1.269 . S
O60 Zn57 1.986 . S
O60 C67 1.262 . S
O61 Zn56 2.049 1_565 S
O61 C69 1.260 . S
O62 Zn57 1.996 . S
O62 C69 1.257 1_545 S
C63 O58 1.254 . S
C63 O59 1.269 . S
C64 O65 1.249 . S
C64 O66 1.270 . S
O65 Zn57 1.943 1_565 S
O65 C64 1.249 . S
O66 Zn56 2.067 1_565 S
O66 C64 1.270 . S
C67 O60 1.262 . S
C67 O68 1.232 . S
O68 C67 1.232 . S
C69 O61 1.260 . S
C69 O62 1.257 1_565 S
Zn70 O73 2.031 . S
Zn70 O75 2.049 1_655 S
Zn70 O80 2.067 1_655 S
Zn71 O72 1.962 . S
Zn71 O74 1.986 . S
Zn71 O76 1.996 . S
Zn71 O79 1.943 1_655 S
O72 Zn71 1.962 . S
O72 C77 1.254 . S
O73 Zn70 2.031 . S
O73 C77 1.269 . S
O74 Zn71 1.986 . S
O74 C81 1.262 . S
O75 Zn70 2.049 1_455 S
O75 C83 1.260 . S
O76 Zn71 1.996 . S
O76 C83 1.257 1_655 S
C77 O72 1.254 . S
C77 O73 1.269 . S
C78 O79 1.249 . S
C78 O80 1.270 . S
O79 Zn71 1.943 1_455 S
O79 C78 1.249 . S
O80 Zn70 2.067 1_455 S
O80 C78 1.270 . S
C81 O74 1.262 . S
C81 O82 1.232 . S
O82 C81 1.232 . S
C83 O75 1.260 . S
C83 O76 1.257 1_455 S
Zn84 O87 2.031 . S
Zn84 O89 2.049 1_565 S
Zn84 O94 2.067 1_565 S
Zn85 O86 1.962 . S
Zn85 O88 1.986 . S
Zn85 O90 1.996 . S
Zn85 O93 1.943 1_565 S
O86 Zn85 1.962 . S
O86 C91 1.254 . S
O87 Zn84 2.031 . S
O87 C91 1.269 . S
O88 Zn85 1.986 . S
O88 C95 1.262 . S
O89 Zn84 2.049 1_545 S
O89 C97 1.260 . S
O90 Zn85 1.996 . S
O90 C97 1.257 1_565 S
C91 O86 1.254 . S
C91 O87 1.269 . S
C92 O93 1.249 . S
C92 O94 1.270 . S
O93 Zn85 1.943 1_545 S
O93 C92 1.249 . S
O94 Zn84 2.067 1_545 S
O94 C92 1.270 . S
C95 O88 1.262 . S
C95 O96 1.232 . S
O96 C95 1.232 . S
C97 O89 1.260 . S
C97 O90 1.257 1_545 S
Zn98 O101 2.031 . S
Zn98 O103 2.049 1_455 S
Zn98 O108 2.067 1_455 S
Zn99 O100 1.962 . S
Zn99 O102 1.986 . S
Zn99 O104 1.996 . S
Zn99 O107 1.943 1_455 S
O100 Zn99 1.962 . S
O100 C105 1.254 . S
O101 Zn98 2.031 . S
O101 C105 1.269 . S
O102 Zn99 1.986 . S
O102 C109 1.262 . S
O103 Zn98 2.049 1_655 S
O103 C111 1.260 . S
O104 Zn99 1.996 . S
O104 C111 1.257 1_455 S
C105 O100 1.254 . S
C105 O101 1.269 . S
C106 O107 1.249 . S
C106 O108 1.270 . S
O107 Zn99 1.943 1_655 S
O107 C106 1.249 . S
O108 Zn98 2.067 1_655 S
O108 C106 1.270 . S
C109 O102 1.262 . S
C109 O110 1.232 . S
O110 C109 1.232 . S
C111 O103 1.260 . S
C111 O104 1.257 1_655 S
H112 C124 0.930 . S
H113 C126 0.930 . S
H114 C127 0.930 . S
H115 C131 0.957 1_556 S
H116 C131 0.959 1_556 S
H117 C131 0.961 . S
H118 C132 0.960 . S
H119 C132 0.961 1_556 S
H120 C132 0.960 . S
H121 C135 0.929 . S
H122 C136 0.931 . S
H123 C138 0.930 . S
C124 H112 0.930 . S
C124 C125 1.399 1_565 S
C124 C129 1.399 . S
C125 C124 1.399 1_545 S
C125 C126 1.376 . S
C126 H113 0.930 . S
C126 C125 1.376 . S
C126 C127 1.388 . S
C127 H114 0.930 . S
C127 C126 1.388 . S
C127 C128 1.390 . S
C128 C127 1.390 . S
C128 C129 1.394 1_545 S
C128 C134 1.465 1_554 S
C129 C124 1.399 . S
C129 C128 1.394 1_565 S
C129 C130 1.516 . S
C130 C129 1.516 . S
C130 C131 1.502 . S
C130 C132 1.561 . S
C130 C133 1.526 1_554 S
C131 H115 0.957 1_554 S
C131 H116 0.959 1_554 S
C131 H117 0.961 . S
C131 C130 1.502 . S
C132 H118 0.960 . S
C132 H119 0.961 1_554 S
C132 H120 0.960 . S
C132 C130 1.561 . S
C133 C130 1.526 1_556 S
C133 C134 1.396 1_565 S
C133 C138 1.390 . S
C134 C128 1.465 1_556 S
C134 C133 1.396 1_545 S
C134 C135 1.399 . S
C135 H121 0.929 . S
C135 C134 1.399 . S
C135 C136 1.385 . S
C136 H122 0.931 . S
C136 C135 1.385 . S
C136 C137 1.388 1_545 S
C137 C136 1.388 1_565 S
C137 C138 1.388 . S
C138 H123 0.930 . S
C138 C133 1.390 . S
C138 C137 1.388 . S
H139 C151 0.930 1_455 S
H140 C153 0.930 . S
H141 C154 0.930 . S
H142 C158 0.959 . S
H143 C158 0.959 . S
H144 C158 0.961 . S
H145 C159 0.960 . S
H146 C159 0.961 . S
H147 C159 0.959 . S
H148 C162 0.929 . S
H149 C163 0.931 . S
H150 C165 0.930 . S
C151 H139 0.930 1_655 S
C151 C152 1.399 . S
C151 C156 1.399 . S
C152 C151 1.399 . S
C152 C153 1.376 . S
C153 H140 0.930 . S
C153 C152 1.376 . S
C153 C154 1.388 . S
C154 H141 0.930 . S
C154 C153 1.388 . S
C154 C155 1.390 . S
C155 C154 1.390 . S
C155 C156 1.394 . S
C155 C161 1.465 . S
C156 C151 1.399 . S
C156 C155 1.394 . S
C156 C157 1.516 1_655 S
C157 C156 1.516 1_455 S
C157 C158 1.500 . S
C157 C159 1.563 1_455 S
C157 C160 1.525 . S
C158 H142 0.959 . S
C158 H143 0.959 . S
C158 H144 0.961 . S
C158 C157 1.500 . S
C159 H145 0.960 . S
C159 H146 0.961 . S
C159 H147 0.959 . S
C159 C157 1.563 1_655 S
C160 C157 1.525 . S
C160 C161 1.393 1_455 S
C160 C165 1.393 . S
C161 C155 1.465 . S
C161 C160 1.393 1_655 S
C161 C162 1.399 . S
C162 H148 0.929 . S
C162 C161 1.399 . S
C162 C163 1.388 . S
C163 H149 0.931 . S
C163 C162 1.388 . S
C163 C164 1.387 1_655 S
C164 C163 1.387 1_455 S
C164 C165 1.387 . S
C165 H150 0.930 . S
C165 C160 1.393 . S
C165 C164 1.387 . S
H166 C178 0.930 . S
H167 C180 0.930 . S
H168 C181 0.930 . S
H169 C185 0.959 1_554 S
H170 C185 0.959 1_554 S
H171 C185 0.961 . S
H172 C186 0.960 . S
H173 C186 0.961 1_554 S
H174 C186 0.961 . S
H175 C189 0.929 . S
H176 C190 0.931 . S
H177 C192 0.930 . S
C178 H166 0.930 . S
C178 C179 1.399 1_565 S
C178 C183 1.399 . S
C179 C178 1.399 1_545 S
C179 C180 1.376 . S
C180 H167 0.930 . S
C180 C179 1.376 . S
C180 C181 1.388 . S
C181 H168 0.930 . S
C181 C180 1.388 . S
C181 C182 1.390 . S
C182 C181 1.390 . S
C182 C183 1.394 1_545 S
C182 C188 1.465 1_556 S
C183 C178 1.399 . S
C183 C182 1.394 1_565 S
C183 C184 1.516 . S
C184 C183 1.516 . S
C184 C185 1.502 . S
C184 C186 1.561 . S
C184 C187 1.526 1_556 S
C185 H169 0.959 1_556 S
C185 H170 0.959 1_556 S
C185 H171 0.961 . S
C185 C184 1.502 . S
C186 H172 0.960 . S
C186 H173 0.961 1_556 S
C186 H174 0.961 . S
C186 C184 1.561 . S
C187 C184 1.526 1_554 S
C187 C188 1.396 1_565 S
C187 C192 1.390 . S
C188 C182 1.465 1_554 S
C188 C187 1.396 1_545 S
C188 C189 1.399 . S
C189 H175 0.929 . S
C189 C188 1.399 . S
C189 C190 1.385 . S
C190 H176 0.931 . S
C190 C189 1.385 . S
C190 C191 1.378 1_545 S
C191 C190 1.378 1_565 S
C191 C192 1.396 . S
C192 H177 0.930 . S
C192 C187 1.390 . S
C192 C191 1.396 . S
H193 C205 0.930 . S
H194 C207 0.930 . S
H195 C208 0.930 . S
H196 C212 0.959 . S
H197 C212 0.959 . S
H198 C212 0.961 . S
H199 C213 0.960 . S
H200 C213 0.961 . S
H201 C213 0.959 . S
H202 C216 0.929 . S
H203 C217 0.931 . S
H204 C219 0.930 . S
C205 H193 0.930 . S
C205 C206 1.399 1_455 S
C205 C210 1.399 . S
C206 C205 1.399 1_655 S
C206 C207 1.376 . S
C207 H194 0.930 . S
C207 C206 1.376 . S
C207 C208 1.388 . S
C208 H195 0.930 . S
C208 C207 1.388 . S
C208 C209 1.390 . S
C209 C208 1.390 . S
C209 C210 1.394 1_655 S
C209 C215 1.465 . S
C210 C205 1.399 . S
C210 C209 1.394 1_455 S
C210 C211 1.516 . S
C211 C210 1.516 . S
C211 C212 1.502 . S
C211 C213 1.561 1_455 S
C211 C214 1.526 . S
C212 H196 0.959 . S
C212 H197 0.959 . S
C212 H198 0.961 . S
C212 C211 1.502 . S
C213 H199 0.960 . S
C213 H200 0.961 . S
C213 H201 0.959 . S
C213 C211 1.561 1_655 S
C214 C211 1.526 . S
C214 C215 1.396 1_455 S
C214 C219 1.390 . S
C215 C209 1.465 . S
C215 C214 1.396 1_655 S
C215 C216 1.399 . S
C216 H202 0.929 . S
C216 C215 1.399 . S
C216 C217 1.385 . S
C217 H203 0.931 . S
C217 C216 1.385 . S
C217 C218 1.389 1_655 S
C218 C217 1.389 1_455 S
C218 C219 1.387 . S
C219 H204 0.930 . S
C219 C214 1.390 . S
C219 C218 1.387 . S
H220 C232 0.930 . S
H221 C234 0.930 . S
H222 C235 0.930 . S
H223 C239 0.959 . S
H224 C239 0.959 . S
H225 C239 0.961 . S
H226 C240 0.960 . S
H227 C240 0.961 . S
H228 C240 0.959 . S
H229 C243 0.929 . S
H230 C244 0.931 . S
H231 C246 0.930 . S
C232 H220 0.930 . S
C232 C233 1.399 1_545 S
C232 C237 1.399 . S
C233 C232 1.399 1_565 S
C233 C234 1.376 . S
C234 H221 0.930 . S
C234 C233 1.376 . S
C234 C235 1.388 . S
C235 H222 0.930 . S
C235 C234 1.388 . S
C235 C236 1.390 . S
C236 C235 1.390 . S
C236 C237 1.394 1_565 S
C236 C242 1.465 . S
C237 C232 1.399 . S
C237 C236 1.394 1_545 S
C237 C238 1.516 . S
C238 C237 1.516 . S
C238 C239 1.502 . S
C238 C240 1.561 1_545 S
C238 C241 1.526 . S
C239 H223 0.959 . S
C239 H224 0.959 . S
C239 H225 0.961 . S
C239 C238 1.502 . S
C240 H226 0.960 . S
C240 H227 0.961 . S
C240 H228 0.959 . S
C240 C238 1.561 1_565 S
C241 C238 1.526 . S
C241 C242 1.396 1_545 S
C241 C246 1.390 . S
C242 C236 1.465 . S
C242 C241 1.396 1_565 S
C242 C243 1.399 . S
C243 H229 0.929 . S
C243 C242 1.399 . S
C243 C244 1.385 . S
C244 H230 0.931 . S
C244 C243 1.385 . S
C244 C245 1.398 . S
C245 C244 1.398 . S
C245 C246 1.381 1_565 S
C246 H231 0.930 . S
C246 C241 1.390 . S
C246 C245 1.381 1_545 S
H247 C259 0.930 . S
H248 C261 0.930 . S
H249 C262 0.930 . S
H250 C266 0.959 . S
H251 C266 0.959 . S
H252 C266 0.961 . S
H253 C267 0.960 . S
H254 C267 0.961 . S
H255 C267 0.959 . S
H256 C270 0.929 . S
H257 C271 0.931 . S
H258 C273 0.930 . S
C259 H247 0.930 . S
C259 C260 1.399 1_455 S
C259 C264 1.399 . S
C260 C259 1.399 1_655 S
C260 C261 1.376 . S
C261 H248 0.930 . S
C261 C260 1.376 . S
C261 C262 1.388 . S
C262 H249 0.930 . S
C262 C261 1.388 . S
C262 C263 1.390 . S
C263 C262 1.390 . S
C263 C264 1.394 1_655 S
C263 C269 1.465 . S
C264 C259 1.399 . S
C264 C263 1.394 1_455 S
C264 C265 1.516 . S
C265 C264 1.516 . S
C265 C266 1.502 . S
C265 C267 1.561 1_455 S
C265 C268 1.526 . S
C266 H250 0.959 . S
C266 H251 0.959 . S
C266 H252 0.961 . S
C266 C265 1.502 . S
C267 H253 0.960 . S
C267 H254 0.961 . S
C267 H255 0.959 . S
C267 C265 1.561 1_655 S
C268 C265 1.526 . S
C268 C269 1.396 1_455 S
C268 C273 1.390 . S
C269 C263 1.465 . S
C269 C268 1.396 1_655 S
C269 C270 1.399 . S
C270 H256 0.929 . S
C270 C269 1.399 . S
C270 C271 1.385 . S
C271 H257 0.931 . S
C271 C270 1.385 . S
C271 C272 1.389 . S
C272 C271 1.389 . S
C272 C273 1.387 1_655 S
C273 H258 0.930 . S
C273 C268 1.390 . S
C273 C272 1.387 1_455 S
H274 C286 0.930 . S
H275 C288 0.930 . S
H276 C289 0.930 . S
H277 C293 0.959 . S
H278 C293 0.959 . S
H279 C293 0.961 . S
H280 C294 0.960 . S
H281 C294 0.961 . S
H282 C294 0.959 . S
H283 C297 0.929 . S
H284 C298 0.931 . S
H285 C300 0.929 1_565 S
C286 H274 0.930 . S
C286 C287 1.399 1_565 S
C286 C291 1.399 1_565 S
C287 C286 1.399 1_545 S
C287 C288 1.376 . S
C288 H275 0.930 . S
C288 C287 1.376 . S
C288 C289 1.388 . S
C289 H276 0.930 . S
C289 C288 1.388 . S
C289 C290 1.390 . S
C290 C289 1.390 . S
C290 C291 1.394 . S
C290 C296 1.465 . S
C291 C286 1.399 1_545 S
C291 C290 1.394 . S
C291 C292 1.516 . S
C292 C291 1.516 . S
C292 C293 1.502 1_545 S
C292 C294 1.561 . S
C292 C295 1.526 . S
C293 H277 0.959 . S
C293 H278 0.959 . S
C293 H279 0.961 . S
C293 C292 1.502 1_565 S
C294 H280 0.960 . S
C294 H281 0.961 . S
C294 H282 0.959 . S
C294 C292 1.561 . S
C295 C292 1.526 . S
C295 C296 1.396 . S
C295 C300 1.390 . S
C296 C290 1.465 . S
C296 C295 1.396 . S
C296 C297 1.399 . S
C297 H283 0.929 . S
C297 C296 1.399 . S
C297 C298 1.385 . S
C298 H284 0.931 . S
C298 C297 1.385 . S
C298 C299 1.389 . S
C299 C298 1.389 . S
C299 C300 1.387 . S
C300 H285 0.929 1_545 S
C300 C295 1.390 . S
C300 C299 1.387 . S
H301 C313 0.930 . S
H302 C315 0.930 . S
H303 C316 0.930 . S
H304 C320 0.959 . S
H305 C320 0.959 . S
H306 C320 0.961 . S
H307 C321 0.960 . S
H308 C321 0.961 . S
H309 C321 0.959 . S
H310 C324 0.929 . S
H311 C325 0.931 . S
H312 C327 0.930 . S
C313 H301 0.930 . S
C313 C314 1.399 1_655 S
C313 C318 1.399 . S
C314 C313 1.399 1_455 S
C314 C315 1.376 . S
C315 H302 0.930 . S
C315 C314 1.376 . S
C315 C316 1.388 . S
C316 H303 0.930 . S
C316 C315 1.388 . S
C316 C317 1.390 . S
C317 C316 1.390 . S
C317 C318 1.394 1_455 S
C317 C323 1.465 . S
C318 C313 1.399 . S
C318 C317 1.394 1_655 S
C318 C319 1.516 . S
C319 C318 1.516 . S
C319 C320 1.502 . S
C319 C321 1.561 1_655 S
C319 C322 1.526 . S
C320 H304 0.959 . S
C320 H305 0.959 . S
C320 H306 0.961 . S
C320 C319 1.502 . S
C321 H307 0.960 . S
C321 H308 0.961 . S
C321 H309 0.959 . S
C321 C319 1.561 1_455 S
C322 C319 1.526 . S
C322 C323 1.396 1_655 S
C322 C327 1.390 . S
C323 C317 1.465 . S
C323 C322 1.396 1_455 S
C323 C324 1.399 . S
C324 H310 0.929 . S
C324 C323 1.399 . S
C324 C325 1.385 . S
C325 H311 0.931 . S
C325 C324 1.385 . S
C325 C326 1.389 . S
C326 C325 1.389 . S
C326 C327 1.387 1_455 S
C327 H312 0.930 . S
C327 C322 1.390 . S
C327 C326 1.387 1_655 S
H328 C340 0.930 . S
H329 C342 0.930 . S
H330 C343 0.930 . S
H331 C347 0.959 . S
H332 C347 0.959 . S
H333 C347 0.961 . S
H334 C348 0.960 . S
H335 C348 0.961 . S
H336 C348 0.959 . S
H337 C351 0.929 . S
H338 C352 0.931 . S
H339 C354 0.930 . S
C340 H328 0.930 . S
C340 C341 1.399 . S
C340 C345 1.399 . S
C341 C340 1.399 . S
C341 C342 1.376 . S
C342 H329 0.930 . S
C342 C341 1.376 . S
C342 C343 1.388 . S
C343 H330 0.930 . S
C343 C342 1.388 . S
C343 C344 1.390 . S
C344 C343 1.390 . S
C344 C345 1.394 . S
C344 C350 1.465 . S
C345 C340 1.399 . S
C345 C344 1.394 . S
C345 C346 1.516 . S
C346 C345 1.516 . S
C346 C347 1.502 . S
C346 C348 1.561 . S
C346 C349 1.526 . S
C347 H331 0.959 . S
C347 H332 0.959 . S
C347 H333 0.961 . S
C347 C346 1.502 . S
C348 H334 0.960 . S
C348 H335 0.961 . S
C348 H336 0.959 . S
C348 C346 1.561 . S
C349 C346 1.526 . S
C349 C350 1.396 . S
C349 C354 1.390 . S
C350 C344 1.465 . S
C350 C349 1.396 . S
C350 C351 1.399 . S
C351 H337 0.929 . S
C351 C350 1.399 . S
C351 C352 1.385 . S
C352 H338 0.931 . S
C352 C351 1.385 . S
C352 C353 1.389 . S
C353 C352 1.389 . S
C353 C354 1.387 . S
C354 H339 0.930 . S
C354 C349 1.390 . S
C354 C353 1.387 . S
H355 C367 0.930 . S
H356 C369 0.930 . S
H357 C370 0.930 . S
H358 C374 0.959 . S
H359 C374 0.959 . S
H360 C374 0.961 . S
H361 C375 0.960 . S
H362 C375 0.961 . S
H363 C375 0.959 . S
H364 C378 0.929 . S
H365 C379 0.931 . S
H366 C381 0.930 . S
C367 H355 0.930 . S
C367 C368 1.399 . S
C367 C372 1.399 . S
C368 C367 1.399 . S
C368 C369 1.376 . S
C369 H356 0.930 . S
C369 C368 1.376 . S
C369 C370 1.388 . S
C370 H357 0.930 . S
C370 C369 1.388 . S
C370 C371 1.390 . S
C371 C370 1.390 . S
C371 C372 1.394 . S
C371 C377 1.465 . S
C372 C367 1.399 . S
C372 C371 1.394 . S
C372 C373 1.516 . S
C373 C372 1.516 . S
C373 C374 1.502 . S
C373 C375 1.561 . S
C373 C376 1.526 . S
C374 H358 0.959 . S
C374 H359 0.959 . S
C374 H360 0.961 . S
C374 C373 1.502 . S
C375 H361 0.960 . S
C375 H362 0.961 . S
C375 H363 0.959 . S
C375 C373 1.561 . S
C376 C373 1.526 . S
C376 C377 1.396 . S
C376 C381 1.390 . S
C377 C371 1.465 . S
C377 C376 1.396 . S
C377 C378 1.399 . S
C378 H364 0.929 . S
C378 C377 1.399 . S
C378 C379 1.385 . S
C379 H365 0.931 . S
C379 C378 1.385 . S
C379 C380 1.389 . S
C380 C379 1.389 . S
C380 C381 1.387 . S
C381 H366 0.930 . S
C381 C376 1.390 . S
C381 C380 1.387 . S
H382 C394 0.930 . S
H383 C396 0.930 . S
H384 C397 0.930 . S
H385 C401 0.959 . S
H386 C401 0.959 . S
H387 C401 0.961 . S
H388 C402 0.960 . S
H389 C402 0.961 . S
H390 C402 0.959 . S
H391 C405 0.929 . S
H392 C406 0.931 . S
H393 C408 0.930 . S
C394 H382 0.930 . S
C394 C395 1.399 . S
C394 C399 1.399 . S
C395 C394 1.399 . S
C395 C396 1.376 . S
C396 H383 0.930 . S
C396 C395 1.376 . S
C396 C397 1.388 . S
C397 H384 0.930 . S
C397 C396 1.388 . S
C397 C398 1.390 . S
C398 C397 1.390 . S
C398 C399 1.394 . S
C398 C404 1.465 . S
C399 C394 1.399 . S
C399 C398 1.394 . S
C399 C400 1.516 . S
C400 C399 1.516 . S
C400 C401 1.502 . S
C400 C402 1.561 . S
C400 C403 1.526 . S
C401 H385 0.959 . S
C401 H386 0.959 . S
C401 H387 0.961 . S
C401 C400 1.502 . S
C402 H388 0.960 . S
C402 H389 0.961 . S
C402 H390 0.959 . S
C402 C400 1.561 . S
C403 C400 1.526 . S
C403 C404 1.396 . S
C403 C408 1.390 . S
C404 C398 1.465 . S
C404 C403 1.396 . S
C404 C405 1.399 . S
C405 H391 0.929 . S
C405 C404 1.399 . S
C405 C406 1.385 . S
C406 H392 0.931 . S
C406 C405 1.385 . S
C406 C407 1.389 . S
C407 C406 1.389 . S
C407 C408 1.387 . S
C408 H393 0.930 . S
C408 C403 1.390 . S
C408 C407 1.387 . S
H409 C421 0.930 . S
H410 C423 0.930 . S
H411 C424 0.930 . S
H412 C428 0.959 . S
H413 C428 0.959 . S
H414 C428 0.961 . S
H415 C429 0.960 . S
H416 C429 0.961 . S
H417 C429 0.959 . S
H418 C432 0.929 . S
H419 C433 0.931 . S
H420 C435 0.930 . S
C421 H409 0.930 . S
C421 C422 1.399 . S
C421 C426 1.399 . S
C422 C421 1.399 . S
C422 C423 1.376 . S
C423 H410 0.930 . S
C423 C422 1.376 . S
C423 C424 1.388 . S
C424 H411 0.930 . S
C424 C423 1.388 . S
C424 C425 1.390 . S
C425 C424 1.390 . S
C425 C426 1.394 . S
C425 C431 1.465 . S
C426 C421 1.399 . S
C426 C425 1.394 . S
C426 C427 1.516 . S
C427 C426 1.516 . S
C427 C428 1.502 . S
C427 C429 1.561 . S
C427 C430 1.526 . S
C428 H412 0.959 . S
C428 H413 0.959 . S
C428 H414 0.961 . S
C428 C427 1.502 . S
C429 H415 0.960 . S
C429 H416 0.961 . S
C429 H417 0.959 . S
C429 C427 1.561 . S
C430 C427 1.526 . S
C430 C431 1.396 . S
C430 C435 1.390 . S
C431 C425 1.465 . S
C431 C430 1.396 . S
C431 C432 1.399 . S
C432 H418 0.929 . S
C432 C431 1.399 . S
C432 C433 1.385 . S
C433 H419 0.931 . S
C433 C432 1.385 . S
C433 C434 1.389 . S
C434 C433 1.389 . S
C434 C435 1.387 . S
C435 H420 0.930 . S
C435 C430 1.390 . S
C435 C434 1.387 . S
H436 C448 0.930 . S
H437 C450 0.930 . S
H438 C451 0.930 . S
H439 C455 0.959 . S
H440 C455 0.959 . S
H441 C455 0.961 . S
H442 C456 0.960 . S
H443 C456 0.961 . S
H444 C456 0.959 . S
H445 C459 0.929 . S
H446 C460 0.931 . S
H447 C462 0.930 . S
C448 H436 0.930 . S
C448 C449 1.399 . S
C448 C453 1.399 . S
C449 C448 1.399 . S
C449 C450 1.376 . S
C450 H437 0.930 . S
C450 C449 1.376 . S
C450 C451 1.388 . S
C451 H438 0.930 . S
C451 C450 1.388 . S
C451 C452 1.390 . S
C452 C451 1.390 . S
C452 C453 1.394 . S
C452 C458 1.465 . S
C453 C448 1.399 . S
C453 C452 1.394 . S
C453 C454 1.516 . S
C454 C453 1.516 . S
C454 C455 1.502 . S
C454 C456 1.561 . S
C454 C457 1.526 . S
C455 H439 0.959 . S
C455 H440 0.959 . S
C455 H441 0.961 . S
C455 C454 1.502 . S
C456 H442 0.960 . S
C456 H443 0.961 . S
C456 H444 0.959 . S
C456 C454 1.561 . S
C457 C454 1.526 . S
C457 C458 1.396 . S
C457 C462 1.390 . S
C458 C452 1.465 . S
C458 C457 1.396 . S
C458 C459 1.399 . S
C459 H445 0.929 . S
C459 C458 1.399 . S
C459 C460 1.385 . S
C460 H446 0.931 . S
C460 C459 1.385 . S
C460 C461 1.389 . S
C461 C460 1.389 . S
C461 C462 1.387 . S
C462 H447 0.930 . S
C462 C457 1.390 . S
C462 C461 1.387 . S
H463 C475 0.930 . S
H464 C477 0.930 . S
H465 C478 0.930 . S
H466 C482 0.959 . S
H467 C482 0.959 . S
H468 C482 0.961 . S
H469 C483 0.960 . S
H470 C483 0.961 . S
H471 C483 0.959 . S
H472 C486 0.929 . S
H473 C487 0.931 . S
H474 C489 0.930 . S
C475 H463 0.930 . S
C475 C476 1.399 . S
C475 C480 1.399 . S
C476 C475 1.399 . S
C476 C477 1.376 . S
C477 H464 0.930 . S
C477 C476 1.376 . S
C477 C478 1.388 . S
C478 H465 0.930 . S
C478 C477 1.388 . S
C478 C479 1.390 . S
C479 C478 1.390 . S
C479 C480 1.394 . S
C479 C485 1.465 . S
C480 C475 1.399 . S
C480 C479 1.394 . S
C480 C481 1.516 . S
C481 C480 1.516 . S
C481 C482 1.502 . S
C481 C483 1.561 . S
C481 C484 1.526 . S
C482 H466 0.959 . S
C482 H467 0.959 . S
C482 H468 0.961 . S
C482 C481 1.502 . S
C483 H469 0.960 . S
C483 H470 0.961 . S
C483 H471 0.959 . S
C483 C481 1.561 . S
C484 C481 1.526 . S
C484 C485 1.396 . S
C484 C489 1.390 . S
C485 C479 1.465 . S
C485 C484 1.396 . S
C485 C486 1.399 . S
C486 H472 0.929 . S
C486 C485 1.399 . S
C486 C487 1.385 . S
C487 H473 0.931 . S
C487 C486 1.385 . S
C487 C488 1.389 . S
C488 C487 1.389 . S
C488 C489 1.387 . S
C489 H474 0.930 . S
C489 C484 1.390 . S
C489 C488 1.387 . S
H490 C502 0.930 . S
H491 C504 0.930 . S
H492 C505 0.930 . S
H493 C509 0.959 . S
H494 C509 0.959 . S
H495 C509 0.961 . S
H496 C510 0.960 . S
H497 C510 0.961 . S
H498 C510 0.959 . S
H499 C513 0.929 . S
H500 C514 0.931 . S
H501 C516 0.930 . S
C502 H490 0.930 . S
C502 C503 1.399 . S
C502 C507 1.399 . S
C503 C502 1.399 . S
C503 C504 1.376 . S
C504 H491 0.930 . S
C504 C503 1.376 . S
C504 C505 1.388 . S
C505 H492 0.930 . S
C505 C504 1.388 . S
C505 C506 1.390 . S
C506 C505 1.390 . S
C506 C507 1.394 . S
C506 C512 1.465 . S
C507 C502 1.399 . S
C507 C506 1.394 . S
C507 C508 1.516 . S
C508 C507 1.516 . S
C508 C509 1.502 . S
C508 C510 1.561 . S
C508 C511 1.526 . S
C509 H493 0.959 . S
C509 H494 0.959 . S
C509 H495 0.961 . S
C509 C508 1.502 . S
C510 H496 0.960 . S
C510 H497 0.961 . S
C510 H498 0.959 . S
C510 C508 1.561 . S
C511 C508 1.526 . S
C511 C512 1.396 . S
C511 C516 1.390 . S
C512 C506 1.465 . S
C512 C511 1.396 . S
C512 C513 1.399 . S
C513 H499 0.929 . S
C513 C512 1.399 . S
C513 C514 1.385 . S
C514 H500 0.931 . S
C514 C513 1.385 . S
C514 C515 1.389 . S
C515 C514 1.389 . S
C515 C516 1.387 . S
C516 H501 0.930 . S
C516 C511 1.390 . S
C516 C515 1.387 . S
H517 C529 0.930 . S
H518 C531 0.930 . S
H519 C532 0.930 . S
H520 C536 0.959 . S
H521 C536 0.959 . S
H522 C536 0.961 . S
H523 C537 0.960 . S
H524 C537 0.961 . S
H525 C537 0.959 . S
H526 C540 0.929 . S
H527 C541 0.931 . S
H528 C543 0.930 . S
C529 H517 0.930 . S
C529 C530 1.399 . S
C529 C534 1.399 . S
C530 C529 1.399 . S
C530 C531 1.376 . S
C531 H518 0.930 . S
C531 C530 1.376 . S
C531 C532 1.388 . S
C532 H519 0.930 . S
C532 C531 1.388 . S
C532 C533 1.390 . S
C533 C532 1.390 . S
C533 C534 1.394 . S
C533 C539 1.465 . S
C534 C529 1.399 . S
C534 C533 1.394 . S
C534 C535 1.516 . S
C535 C534 1.516 . S
C535 C536 1.502 . S
C535 C537 1.561 . S
C535 C538 1.526 . S
C536 H520 0.959 . S
C536 H521 0.959 . S
C536 H522 0.961 . S
C536 C535 1.502 . S
C537 H523 0.960 . S
C537 H524 0.961 . S
C537 H525 0.959 . S
C537 C535 1.561 . S
C538 C535 1.526 . S
C538 C539 1.396 . S
C538 C543 1.390 . S
C539 C533 1.465 . S
C539 C538 1.396 . S
C539 C540 1.399 . S
C540 H526 0.929 . S
C540 C539 1.399 . S
C540 C541 1.385 . S
C541 H527 0.931 . S
C541 C540 1.385 . S
C541 C542 1.389 . S
C542 C541 1.389 . S
C542 C543 1.387 . S
C543 H528 0.930 . S
C543 C538 1.390 . S
C543 C542 1.387 . S
C125 C13 1.441 . S
C137 C69 1.425 . S
C152 C27 1.502 . S
C164 C83 1.495 . S
C179 C97 1.433 . S
C191 C41 1.419 . S
C206 C111 1.499 . S
C218 C55 1.487 . S
C233 C11 1.123 . S
C245 C39 1.132 1_565 S
C260 C25 1.156 1_655 S
C272 C53 1.145 . S
C287 C95 1.155 1_545 S
C299 C67 1.149 . S
C314 C81 1.156 1_455 S
C326 C109 1.145 . S
C341 C78 1.361 . S
C353 C8 1.305 . S
C368 C22 1.303 . S
C380 C92 1.356 . S
C395 C106 1.328 . S
C407 C36 1.385 . S
C422 C50 1.364 . S
C434 C64 1.306 . S
C449 C91 1.131 . S
C461 C49 1.066 . S
C476 C7 1.124 . S
C488 C105 1.086 . S
C503 C21 1.131 . S
C515 C63 1.059 . S
C530 C77 1.127 . S
C542 C35 1.080 . S
