# Generated by pormake.
# Topology wjf, (4)-cn, num edge types: 1
# Building blocks:
#     Node 0, Type 0, BuildingBlock: QUQFOY_clean_sbu_3, # of connection points: 4
#     Node 1, Type 0, BuildingBlock: QUQFOY_clean_sbu_3, # of connection points: 4
#     Node 2, Type 0, BuildingBlock: QUQFOY_clean_sbu_3, # of connection points: 4
#     Node 3, Type 0, BuildingBlock: QUQFOY_clean_sbu_3, # of connection points: 4
#     Node 4, Type 0, BuildingBlock: QUQFOY_clean_sbu_3, # of connection points: 4
#     Node 5, Type 0, BuildingBlock: QUQFOY_clean_sbu_3, # of connection points: 4
#     Node 6, Type 0, BuildingBlock: QUQFOY_clean_sbu_3, # of connection points: 4
#     Node 7, Type 0, BuildingBlock: QUQFOY_clean_sbu_3, # of connection points: 4
#     Node 8, Type 0, BuildingBlock: QUQFOY_clean_sbu_3, # of connection points: 4
#     Node 9, Type 0, BuildingBlock: QUQFOY_clean_sbu_3, # of connection points: 4
#     Node 10, Type 0, BuildingBlock: QUQFOY_clean_sbu_3, # of connection points: 4
#     Node 11, Type 0, BuildingBlock: QUQFOY_clean_sbu_3, # of connection points: 4
#     Edge 12, Type (0, 0), BuildingBlock: EZIPEK_clean_linker_0, # of connection points: 2
#     Edge 13, Type (0, 0), BuildingBlock: EZIPEK_clean_linker_0, # of connection points: 2
#     Edge 14, Type (0, 0), BuildingBlock: EZIPEK_clean_linker_0, # of connection points: 2
#     Edge 15, Type (0, 0), BuildingBlock: EZIPEK_clean_linker_0, # of connection points: 2
#     Edge 16, Type (0, 0), BuildingBlock: EZIPEK_clean_linker_0, # of connection points: 2
#     Edge 17, Type (0, 0), BuildingBlock: EZIPEK_clean_linker_0, # of connection points: 2
#     Edge 18, Type (0, 0), BuildingBlock: EZIPEK_clean_linker_0, # of connection points: 2
#     Edge 19, Type (0, 0), BuildingBlock: EZIPEK_clean_linker_0, # of connection points: 2
#     Edge 20, Type (0, 0), BuildingBlock: EZIPEK_clean_linker_0, # of connection points: 2
#     Edge 21, Type (0, 0), BuildingBlock: EZIPEK_clean_linker_0, # of connection points: 2
#     Edge 22, Type (0, 0), BuildingBlock: EZIPEK_clean_linker_0, # of connection points: 2
#     Edge 23, Type (0, 0), BuildingBlock: EZIPEK_clean_linker_0, # of connection points: 2
#     Edge 24, Type (0, 0), BuildingBlock: EZIPEK_clean_linker_0, # of connection points: 2
#     Edge 25, Type (0, 0), BuildingBlock: EZIPEK_clean_linker_0, # of connection points: 2
#     Edge 26, Type (0, 0), BuildingBlock: EZIPEK_clean_linker_0, # of connection points: 2
#     Edge 27, Type (0, 0), BuildingBlock: EZIPEK_clean_linker_0, # of connection points: 2
#     Edge 28, Type (0, 0), BuildingBlock: EZIPEK_clean_linker_0, # of connection points: 2
#     Edge 29, Type (0, 0), BuildingBlock: EZIPEK_clean_linker_0, # of connection points: 2
#     Edge 30, Type (0, 0), BuildingBlock: EZIPEK_clean_linker_0, # of connection points: 2
#     Edge 31, Type (0, 0), BuildingBlock: EZIPEK_clean_linker_0, # of connection points: 2
#     Edge 32, Type (0, 0), BuildingBlock: EZIPEK_clean_linker_0, # of connection points: 2
#     Edge 33, Type (0, 0), BuildingBlock: EZIPEK_clean_linker_0, # of connection points: 2
#     Edge 34, Type (0, 0), BuildingBlock: EZIPEK_clean_linker_0, # of connection points: 2
#     Edge 35, Type (0, 0), BuildingBlock: EZIPEK_clean_linker_0, # of connection points: 2
# Relax obj value: 0.102
# Max RMSD: 0.135
# Mean RMSD: 0.135
data_MOF--net-wjf--node1-QUQFOY_clean_sbu_3--edge1-EZIPEK_clean_linker_0
_symmetry_space_group_name_H-M    P1
_symmetry_Int_Tables_number       1
_symmetry_cell_setting            triclinic
loop_
_symmetry_equiv_pos_as_xyz
'x, y, z'
_cell_length_a     38.648153
_cell_length_b     38.635692
_cell_length_c     20.60369
_cell_angle_alpha  89.857507
_cell_angle_beta   90.416554
_cell_angle_gamma 120.23819
loop_
_atom_site_label
_atom_site_type_symbol
_atom_site_fract_x
_atom_site_fract_y
_atom_site_fract_z
_atom_type_partial_charge
C0 C 0.33823 0.32003 0.15103 0.0
O1 O 0.35169 0.30791 0.10585 0.0
Cd2 Cd 0.36791 0.33758 0.00107 0.0
O3 O 0.32445 0.34341 0.13995 0.0
Cd4 Cd 0.3112 0.37626 0.04665 0.0
C5 C 0.41155 0.43746 0.05073 0.0
O6 O 0.30894 0.3332 0.96126 0.0
O7 O 0.31927 0.39112 0.93168 0.0
O8 O 0.2397 0.34988 0.05517 0.0
C9 C 0.31491 0.35755 0.91571 0.0
O10 O 0.41417 0.40837 0.02716 0.0
C11 C 0.24259 0.3841 0.05161 0.0
O12 O 0.3779 0.43414 0.06465 0.0
O13 O 0.27743 0.41477 0.0559 0.0
C14 C 0.9495 0.27695 0.54763 0.0
O15 O 0.98303 0.29915 0.52076 0.0
Cd16 Cd 0.9951 0.33984 0.42688 0.0
O17 O 0.91819 0.27605 0.52542 0.0
Cd18 Cd 0.90052 0.30419 0.43158 0.0
C19 C 0.9596 0.40131 0.47403 0.0
O20 O 0.94442 0.3009 0.34989 0.0
O21 O 0.91649 0.33612 0.3283 0.0
O22 O 0.84396 0.24046 0.39932 0.0
C23 C 0.93661 0.32061 0.30891 0.0
O24 O 0.98864 0.39731 0.45509 0.0
C25 C 0.81898 0.25253 0.3959 0.0
O26 O 0.92395 0.37152 0.47639 0.0
O27 O 0.83059 0.28793 0.41536 0.0
C28 C 0.66064 0.98583 0.82247 0.0
O29 O 0.67846 0.02216 0.80458 0.0
Cd30 Cd 0.68314 0.04474 0.69552 0.0
O31 O 0.64309 0.95743 0.78134 0.0
Cd32 Cd 0.63297 0.95862 0.66167 0.0
C33 C 0.58586 0.01169 0.67035 0.0
O34 O 0.70281 0.00568 0.63059 0.0
O35 O 0.65689 0.99273 0.55873 0.0
O36 O 0.63045 0.89577 0.63599 0.0
C37 C 0.69348 0.00592 0.57176 0.0
O38 O 0.6201 0.04331 0.67117 0.0
C39 C 0.59767 0.88119 0.60449 0.0
O40 O 0.58255 0.97737 0.67263 0.0
O41 O 0.57987 0.90116 0.6035 0.0
C42 C 0.67941 0.67004 0.19374 0.0
O43 O 0.66005 0.68719 0.17727 0.0
Cd44 Cd 0.62941 0.68145 0.0735 0.0
O45 O 0.68515 0.64843 0.15376 0.0
Cd46 Cd 0.66549 0.62809 0.03999 0.0
C47 C 0.56645 0.58027 0.06805 0.0
O48 O 0.67583 0.69069 -0.01011 0.0
O49 O 0.64046 0.63486 0.93797 0.0
O50 O 0.73078 0.63814 0.01459 0.0
C51 C 0.65888 0.67277 0.93754 0.0
O52 O 0.57005 0.61488 0.06757 0.0
C53 C 0.71807 0.60348 -0.00902 0.0
O54 O 0.59694 0.57592 0.06489 0.0
O55 O 0.68061 0.57909 -0.00744 0.0
C56 C 0.01833 0.68583 0.58367 0.0
O57 O 0.98187 0.66251 0.56858 0.0
Cd58 Cd 0.95881 0.62779 0.46718 0.0
O59 O 0.04599 0.69138 0.54479 0.0
Cd60 Cd 0.05002 0.66332 0.44058 0.0
C61 C -0.00344 0.5654 0.4817 0.0
O62 O -0.00172 0.66963 0.37961 0.0
O63 O 0.02346 0.63626 0.33624 0.0
O64 O 0.10582 0.72901 0.41678 0.0
C65 C 0.0017 0.65195 0.33034 0.0
O66 O 0.96602 0.56929 0.47411 0.0
C67 C 0.1296 0.71716 0.39995 0.0
O68 O 0.03196 0.5955 0.4785 0.0
O69 O 0.11732 0.67995 0.40443 0.0
C70 C 0.33932 0.98937 0.83304 0.0
O71 O 0.32592 0.96009 0.79325 0.0
Cd72 Cd 0.33272 0.95512 0.67655 0.0
O73 O 0.35982 0.02581 0.81434 0.0
Cd74 Cd 0.38474 0.05953 0.70874 0.0
C75 C 0.43394 0.00582 0.67297 0.0
O76 O 0.3331 0.01277 0.64097 0.0
O77 O 0.34474 0.07178 0.62428 0.0
O78 O 0.40607 0.12661 0.7479 0.0
C79 C 0.32537 0.03539 0.60755 0.0
O80 O 0.40215 0.97206 0.66486 0.0
C81 C 0.43615 0.14371 0.71012 0.0
O82 O 0.43285 0.03718 0.68806 0.0
O83 O 0.44249 0.12078 0.67428 0.0
C84 C 0.69005 0.68689 0.46386 0.0
O85 O 0.70531 0.67856 0.51208 0.0
Cd86 Cd 0.67944 0.66684 0.62151 0.0
O87 O 0.66117 0.69356 0.47041 0.0
Cd88 Cd 0.61705 0.69772 0.55078 0.0
C89 C 0.5821 0.59744 0.57464 0.0
O90 O 0.66286 0.7169 0.63915 0.0
O91 O 0.607 0.71325 0.66149 0.0
O92 O 0.62396 0.7573 0.50083 0.0
C93 C 0.63935 0.71643 0.68208 0.0
O94 O 0.61512 0.60605 0.60231 0.0
C95 C 0.58684 0.74601 0.50353 0.0
O96 O 0.57555 0.62434 0.55147 0.0
O97 O 0.56355 0.71024 0.52216 0.0
C98 C 0.01695 0.70183 0.84596 0.0
O99 O 0.0426 0.70765 0.88972 0.0
Cd100 Cd 0.02943 0.66829 -0.0141 0.0
O101 O 0.98053 0.67413 0.85218 0.0
Cd102 Cd 0.93669 0.62279 0.93099 0.0
C103 C 0.98941 0.57419 0.9175 0.0
O104 O 0.9689 0.66035 0.02862 0.0
O105 O 0.92106 0.59957 0.04208 0.0
O106 O 0.88441 0.63899 0.92024 0.0
C107 C 0.94772 0.63203 0.06734 0.0
O108 O 0.01815 0.60388 0.94674 0.0
C109 C 0.85674 0.60324 0.9095 0.0
O110 O 0.95693 0.57368 0.90379 0.0
O111 O 0.86693 0.57707 0.90043 0.0
C112 C 0.33462 0.9762 0.11115 0.0
O113 O 0.35399 0.01096 0.13585 0.0
Cd114 Cd 0.36989 0.02368 0.24858 0.0
O115 O 0.32143 0.94496 0.14642 0.0
Cd116 Cd 0.32468 0.93325 0.26481 0.0
C117 C 0.42584 0.97941 0.26935 0.0
O118 O 0.30874 0.98314 0.30718 0.0
O119 O 0.33164 0.95708 0.37558 0.0
O120 O 0.25737 0.87485 0.26546 0.0
C121 C 0.31499 0.97766 0.36566 0.0
O122 O 0.42599 0.01241 0.26997 0.0
C123 C 0.26748 0.85241 0.29504 0.0
O124 O 0.39321 0.94627 0.26362 0.0
O125 O 0.30453 0.86634 0.30576 0.0
C126 C 0.36549 0.32351 0.42306 0.0
O127 O 0.34852 0.34119 0.44754 0.0
Cd128 Cd 0.35683 0.36795 0.5539 0.0
O129 O 0.38978 0.31703 0.45583 0.0
Cd130 Cd 0.4167 0.33107 0.5679 0.0
C131 C 0.45893 0.4317 0.55183 0.0
O132 O 0.35605 0.3188 0.62339 0.0
O133 O 0.41148 0.34786 0.67774 0.0
O134 O 0.40951 0.266 0.58731 0.0
C135 C 0.37384 0.33263 0.677 0.0
O136 O 0.4238 0.42658 0.55547 0.0
C137 C 0.44564 0.27937 0.60459 0.0
O138 O 0.46512 0.40227 0.5508 0.0
O139 O 0.46955 0.31683 0.59987 0.0
C140 C 0.95982 0.29106 0.80461 0.0
O141 O 0.92951 0.29102 0.82803 0.0
Cd142 Cd 0.92956 0.32773 0.92141 0.0
O143 O 0.99452 0.3151 0.82749 0.0
Cd144 Cd 0.02234 0.36313 0.91874 0.0
C145 C 0.98932 0.4265 0.88241 0.0
O146 O 0.97166 0.32092 -0.00119 0.0
O147 O 0.01603 0.38122 0.0268 0.0
O148 O 0.06995 0.34079 0.94029 0.0
C149 C 0.98753 0.34724 0.04295 0.0
O150 O 0.95542 0.39847 0.9012 0.0
C151 C 0.09965 0.37577 0.94867 0.0
O152 O 0.01884 0.42081 0.87588 0.0
O153 O 0.09431 0.40504 0.93718 0.0
C154 C 0.66266 0.98763 0.10036 0.0
O155 O 0.64864 0.9574 0.13805 0.0
Cd156 Cd 0.6404 0.95008 0.25571 0.0
O157 O 0.67649 0.02316 0.12203 0.0
Cd158 Cd 0.67966 0.04753 0.23318 0.0
C159 C 0.57735 0.98319 0.27048 0.0
O160 O 0.6979 0.00673 0.30059 0.0
O161 O 0.73934 0.0699 0.30025 0.0
O162 O 0.71434 0.11907 0.20963 0.0
C163 C 0.72856 0.03628 0.32571 0.0
O164 O 0.58049 0.95235 0.27941 0.0
C165 C 0.69925 0.12761 0.25766 0.0
O166 O 0.60737 0.01641 0.25372 0.0
O167 O 0.67278 0.09808 0.28969 0.0
C168 C 0.31336 0.29039 0.26095 0.0
C169 C 0.34583 0.3134 0.21884 0.0
C170 C 0.39266 0.33783 0.31071 0.0
C171 C 0.36018 0.31497 0.35297 0.0
N172 N 0.29195 0.2627 0.36896 0.0
N173 N 0.41754 0.35125 0.20107 0.0
C174 C 0.32118 0.28895 0.32813 0.0
C175 C 0.38587 0.33414 0.24282 0.0
N176 N 0.27513 0.27074 0.23683 0.0
N177 N 0.42928 0.36572 0.33525 0.0
H178 H 0.41466 0.35252 0.151 0.0
H179 H 0.44706 0.36194 0.21581 0.0
H180 H 0.436 0.36986 0.38467 0.0
H181 H 0.45232 0.38719 0.30685 0.0
H182 H 0.24972 0.25721 0.26579 0.0
H183 H 0.26874 0.26949 0.1873 0.0
H184 H 0.2637 0.24052 0.35339 0.0
H185 H 0.29726 0.26087 0.41825 0.0
C186 C 0.91281 0.23943 0.64865 0.0
C187 C 0.94836 0.25801 0.61153 0.0
C188 C 0.98861 0.2718 0.70999 0.0
C189 C 0.95491 0.26668 0.74521 0.0
N190 N 0.884 0.22199 0.75677 0.0
N191 N 0.01404 0.26597 0.60514 0.0
C192 C 0.9163 0.24265 0.71736 0.0
C193 C 0.98468 0.26588 0.64168 0.0
N194 N 0.8765 0.21891 0.61819 0.0
N195 N 0.02346 0.28156 0.74174 0.0
H196 H 0.00922 0.25739 0.55638 0.0
H197 H 0.04107 0.27041 0.62374 0.0
H198 H 0.0246 0.27895 0.79202 0.0
H199 H 0.0505 0.29044 0.71863 0.0
H200 H 0.84917 0.20833 0.64136 0.0
H201 H 0.8741 0.21144 0.56905 0.0
H202 H 0.85497 0.203 0.74011 0.0
H203 H 0.88734 0.22081 0.80691 0.0
C204 C 0.69575 0.98944 0.92628 0.0
C205 C 0.65927 0.97744 0.89277 0.0
C206 C 0.62376 0.96367 -0.00373 0.0
C207 C 0.6612 0.98116 0.02942 0.0
N208 N 0.73295 0.01059 0.02784 0.0
N209 N 0.58846 0.95403 0.89408 0.0
C210 C 0.69725 0.99378 -0.00506 0.0
C211 C 0.62305 0.96401 0.92724 0.0
N212 N 0.72866 0.99585 0.8921 0.0
N213 N 0.58892 0.94724 0.03076 0.0
H214 H 0.58632 0.95248 0.84361 0.0
H215 H 0.56228 0.94933 0.91607 0.0
H216 H 0.58811 0.94866 0.08118 0.0
H217 H 0.56066 0.92987 0.00997 0.0
H218 H 0.7554 0.00125 0.9135 0.0
H219 H 0.72802 0.9922 0.84184 0.0
H220 H 0.76075 0.02474 0.00533 0.0
H221 H 0.73493 0.01211 0.07839 0.0
C222 C 0.67511 0.63877 0.30234 0.0
C223 C 0.69266 0.67322 0.26194 0.0
C224 C 0.72012 0.71685 0.35701 0.0
C225 C 0.70084 0.68261 0.39717 0.0
N226 N 0.671 0.61115 0.40961 0.0
N227 N 0.74089 0.7432 0.24819 0.0
C228 C 0.68252 0.6436 0.37017 0.0
C229 C 0.71835 0.71175 0.28858 0.0
N230 N 0.64861 0.60196 0.27703 0.0
N231 N 0.73857 0.75411 0.38452 0.0
H232 H 0.74034 0.73987 0.19786 0.0
H233 H 0.76256 0.77147 0.26445 0.0
H234 H 0.742 0.75834 0.4347 0.0
H235 H 0.74914 0.78051 0.35813 0.0
H236 H 0.63089 0.57687 0.30539 0.0
H237 H 0.64182 0.59676 0.22774 0.0
H238 H 0.66092 0.58231 0.39219 0.0
H239 H 0.67511 0.61355 0.45978 0.0
C240 C 0.00244 0.72469 0.74114 0.0
C241 C 0.03013 0.72086 0.78128 0.0
C242 C 0.05881 0.70631 0.68839 0.0
C243 C 0.02818 0.70546 0.64827 0.0
N244 N 0.98278 0.73048 0.63135 0.0
N245 N 0.09782 0.73364 0.78668 0.0
C246 C 0.00394 0.7204 0.67297 0.0
C247 C 0.06309 0.72078 0.7526 0.0
N248 N 0.97398 0.73079 0.76883 0.0
N249 N 0.08144 0.69028 0.66854 0.0
H250 H 0.10246 0.74725 0.83206 0.0
H251 H 0.12351 0.73609 0.76599 0.0
H252 H 0.07816 0.67641 0.62395 0.0
H253 H 0.10106 0.68713 0.69969 0.0
H254 H 0.94984 0.72916 0.74332 0.0
H255 H 0.97448 0.73652 0.81846 0.0
H256 H 0.96662 0.74392 0.6463 0.0
H257 H 0.9849 0.72918 0.58103 0.0
C258 C 0.30725 0.98745 0.00811 0.0
C259 C 0.32988 0.97266 0.03975 0.0
C260 C 0.3519 0.96136 0.93461 0.0
C261 C 0.33337 0.98084 0.90349 0.0
N262 N 0.29326 0.01242 0.90894 0.0
N263 N 0.37543 0.94726 0.03503 0.0
C264 C 0.31084 0.99376 0.93981 0.0
C265 C 0.35206 0.95936 0.00348 0.0
N266 N 0.28154 0.99438 0.04354 0.0
N267 N 0.36993 0.94524 0.89852 0.0
H268 H 0.37535 0.94398 0.08519 0.0
H269 H 0.39675 0.94268 0.01228 0.0
H270 H 0.37378 0.94884 0.84855 0.0
H271 H 0.37908 0.92611 0.91741 0.0
H272 H 0.26134 0.00173 0.02329 0.0
H273 H 0.27797 0.98942 0.09349 0.0
H274 H 0.28058 0.02695 0.933 0.0
H275 H 0.29275 0.01491 0.85856 0.0
C276 C 0.1733 0.40127 0.9412 0.0
C277 C 0.1375 0.38189 0.97749 0.0
C278 C 0.17351 0.37266 0.0687 0.0
C279 C 0.20794 0.38754 0.02934 0.0
N280 N 0.24 0.41232 0.92547 0.0
N281 N 0.10255 0.34989 0.07628 0.0
C282 C 0.20793 0.40149 0.96525 0.0
C283 C 0.13734 0.36784 0.04153 0.0
N284 N 0.17416 0.41915 0.88336 0.0
N285 N 0.17596 0.36433 0.13257 0.0
H286 H 0.07639 0.34906 0.06084 0.0
H287 H 0.09893 0.33452 0.11954 0.0
H288 H 0.20227 0.36805 0.15358 0.0
H289 H 0.15328 0.35681 0.16612 0.0
H290 H 0.20051 0.43828 0.85891 0.0
H291 H 0.14882 0.41722 0.8616 0.0
H292 H 0.23964 0.41742 0.87591 0.0
H293 H 0.26629 0.41344 0.94041 0.0
C294 C 0.78449 0.22991 0.28865 0.0
C295 C 0.78177 0.22943 0.35751 0.0
C296 C 0.71219 0.17508 0.35045 0.0
C297 C 0.71879 0.16919 0.2848 0.0
N298 N 0.7505 0.2019 0.18573 0.0
N299 N 0.74233 0.20499 0.45444 0.0
C300 C 0.75164 0.20037 0.25185 0.0
C301 C 0.74504 0.20363 0.38856 0.0
N302 N 0.81922 0.25726 0.25909 0.0
N303 N 0.6744 0.15446 0.37505 0.0
H304 H 0.76564 0.22655 0.48297 0.0
H305 H 0.71789 0.18385 0.48087 0.0
H306 H 0.64965 0.13655 0.34558 0.0
H307 H 0.667 0.15899 0.42151 0.0
H308 H 0.82512 0.25633 0.21013 0.0
H309 H 0.84295 0.28055 0.28442 0.0
H310 H 0.77227 0.22505 0.15792 0.0
H311 H 0.72509 0.1817 0.15935 0.0
C312 C 0.6034 0.84918 0.50341 0.0
C313 C 0.58395 0.84539 0.56333 0.0
C314 C 0.54535 0.77301 0.54827 0.0
C315 C 0.57403 0.77648 0.50239 0.0
N316 N 0.62189 0.81632 0.42132 0.0
N317 N 0.53226 0.80428 0.63937 0.0
C318 C 0.59985 0.81425 0.47416 0.0
C319 C 0.55302 0.80748 0.5842 0.0
N320 N 0.62487 0.88596 0.475 0.0
N321 N 0.51097 0.7372 0.5565 0.0
H322 H 0.53657 0.82925 0.66555 0.0
H323 H 0.51237 0.77692 0.66068 0.0
H324 H 0.5035 0.71282 0.52611 0.0
H325 H 0.4879 0.73342 0.58689 0.0
H326 H 0.63768 0.89059 0.42925 0.0
H327 H 0.62711 0.91172 0.49538 0.0
H328 H 0.64475 0.84293 0.40207 0.0
H329 H 0.61704 0.79046 0.39722 0.0
C330 C 0.76627 0.61503 0.90217 0.0
C331 C 0.74604 0.59365 0.95885 0.0
C332 C 0.79265 0.5689 0.97208 0.0
C333 C 0.8145 0.59236 0.91769 0.0
N334 N 0.81687 0.62829 0.82102 0.0
N335 N 0.73188 0.54118 0.03573 0.0
C336 C 0.79939 0.61226 0.87929 0.0
C337 C 0.75631 0.56719 -0.01068 0.0
N338 N 0.75436 0.63879 0.87154 0.0
N339 N 0.80821 0.55115 0.01074 0.0
H340 H 0.70575 0.54017 0.05107 0.0
H341 H 0.7355 0.51821 0.05482 0.0
H342 H 0.83446 0.55104 0.00039 0.0
H343 H 0.79646 0.53854 0.05573 0.0
H344 H 0.77049 0.65888 0.83474 0.0
H345 H 0.72855 0.63929 0.88452 0.0
H346 H 0.80574 0.64069 0.78787 0.0
H347 H 0.84087 0.62595 0.80335 0.0
C348 C 0.17437 0.75003 0.30503 0.0
C349 C 0.16918 0.74593 0.37326 0.0
C350 C 0.23184 0.80895 0.39059 0.0
C351 C 0.23682 0.81353 0.32216 0.0
N352 N 0.21896 0.78478 0.21517 0.0
N353 N 0.19672 0.76483 0.48086 0.0
C354 C 0.20999 0.78277 0.27962 0.0
C355 C 0.19933 0.77323 0.41598 0.0
N356 N 0.14441 0.72377 0.26463 0.0
N357 N 0.25646 0.83971 0.43118 0.0
H358 H 0.17304 0.73879 0.50052 0.0
H359 H 0.2196 0.78148 0.51406 0.0
H360 H 0.28078 0.86645 0.41512 0.0
H361 H 0.2512 0.84004 0.4806 0.0
H362 H 0.14414 0.72785 0.21471 0.0
H363 H 0.11851 0.69871 0.28155 0.0
H364 H 0.20263 0.76162 0.18238 0.0
H365 H 0.24504 0.8084 0.19554 0.0
C366 C 0.44656 0.21164 0.73618 0.0
C367 C 0.45691 0.18785 0.69827 0.0
C368 C 0.47602 0.23529 0.60833 0.0
C369 C 0.45685 0.25335 0.64044 0.0
N370 N 0.42937 0.26399 0.73818 0.0
N371 N 0.50269 0.1904 0.61735 0.0
C372 C 0.44461 0.24373 0.70609 0.0
C373 C 0.47856 0.20394 0.64011 0.0
N374 N 0.44 0.20401 0.80102 0.0
N375 N 0.48977 0.24666 0.5466 0.0
H376 H 0.50812 0.17064 0.64414 0.0
H377 H 0.52115 0.20247 0.57716 0.0
H378 H 0.48939 0.27047 0.52324 0.0
H379 H 0.49983 0.23148 0.5177 0.0
H380 H 0.43462 0.22152 0.83307 0.0
H381 H 0.44442 0.18233 0.82374 0.0
H382 H 0.41558 0.25552 0.78323 0.0
H383 H 0.42946 0.28894 0.71854 0.0
C384 C 0.37248 0.37814 0.75962 0.0
C385 C 0.35393 0.33942 0.73189 0.0
C386 C 0.30382 0.31497 0.81762 0.0
C387 C 0.32729 0.35167 0.85129 0.0
N388 N 0.39042 0.41441 0.86006 0.0
N389 N 0.30364 0.2692 0.73738 0.0
C390 C 0.36331 0.38247 0.82386 0.0
C391 C 0.31973 0.30725 0.76119 0.0
N392 N 0.39851 0.41089 0.72439 0.0
N393 N 0.26623 0.28799 0.83864 0.0
H394 H 0.31457 0.26226 0.69633 0.0
H395 H 0.28144 0.24413 0.76136 0.0
H396 H 0.25333 0.29308 0.87911 0.0
H397 H 0.24651 0.26248 0.81235 0.0
H398 H 0.41038 0.44014 0.74136 0.0
H399 H 0.4042 0.4089 0.67561 0.0
H400 H 0.41853 0.43559 0.84263 0.0
H401 H 0.38737 0.41702 0.90963 0.0
C402 C 0.94825 0.2949 0.20427 0.0
C403 C 0.95158 0.32714 0.24196 0.0
C404 C 0.97106 0.36937 0.14585 0.0
C405 C 0.97359 0.33929 0.11052 0.0
N406 N 0.97486 0.27718 0.11291 0.0
N407 N 0.9781 0.39858 0.25167 0.0
C408 C 0.96515 0.30302 0.14149 0.0
C409 C 0.96661 0.36553 0.21375 0.0
N410 N 0.92752 0.25639 0.22652 0.0
N411 N 0.97119 0.40072 0.11473 0.0
H412 H 0.97843 0.39756 0.30224 0.0
H413 H 0.992 0.42757 0.23289 0.0
H414 H 0.97109 0.40307 0.06431 0.0
H415 H 0.9663 0.42157 0.13883 0.0
H416 H 0.92144 0.23183 0.19759 0.0
H417 H 0.9126 0.24852 0.27077 0.0
H418 H 0.9723 0.25221 0.13687 0.0
H419 H 0.98972 0.283 0.06874 0.0
C420 C 0.7436 0.0577 0.49761 0.0
C421 C 0.7226 0.01755 0.51904 0.0
C422 C 0.73212 0.99421 0.4146 0.0
C423 C 0.74452 0.03283 0.38976 0.0
N424 N 0.78485 0.10332 0.41281 0.0
N425 N 0.71181 0.9509 0.50964 0.0
C426 C 0.75837 0.0655 0.43332 0.0
C427 C 0.72235 0.98684 0.48142 0.0
N428 N 0.7472 0.08765 0.53711 0.0
N429 N 0.72775 0.96473 0.37326 0.0
H430 H 0.70475 0.94569 0.55885 0.0
H431 H 0.71269 0.92757 0.48607 0.0
H432 H 0.73721 0.9711 0.32511 0.0
H433 H 0.7152 0.93474 0.38614 0.0
H434 H 0.75833 0.11703 0.52148 0.0
H435 H 0.73762 0.08242 0.58524 0.0
H436 H 0.79737 0.1282 0.44338 0.0
H437 H 0.79778 0.1086 0.36688 0.0
C438 C 0.68276 0.73275 0.78188 0.0
C439 C 0.64456 0.71038 0.75156 0.0
C440 C 0.61602 0.67872 0.8552 0.0
C441 C 0.65489 0.69361 0.8807 0.0
N442 N 0.72652 0.73383 0.86766 0.0
N443 N 0.57634 0.654 0.75834 0.0
C444 C 0.68878 0.72089 0.84436 0.0
C445 C 0.61128 0.68149 0.78795 0.0
N446 N 0.71289 0.76554 0.75182 0.0
N447 N 0.58362 0.66101 0.89516 0.0
H448 H 0.57259 0.65066 0.70823 0.0
H449 H 0.55288 0.63063 0.78356 0.0
H450 H 0.58669 0.65958 0.94535 0.0
H451 H 0.55462 0.65212 0.87931 0.0
H452 H 0.74018 0.78476 0.77438 0.0
H453 H 0.7091 0.77587 0.70701 0.0
H454 H 0.75213 0.74996 0.83968 0.0
H455 H 0.73207 0.72628 0.91363 0.0
C456 C 0.95948 0.60751 0.24191 0.0
C457 C 0.97911 0.64624 0.26953 0.0
C458 C 0.9659 0.67235 0.17023 0.0
C459 C 0.9556 0.63583 0.13813 0.0
N460 N 0.95021 0.57035 0.14386 0.0
N461 N 0.00392 0.71724 0.25795 0.0
C462 C 0.95388 0.60351 0.17405 0.0
C463 C 0.98276 0.67923 0.2336 0.0
N464 N 0.94638 0.57459 0.28065 0.0
N465 N 0.9586 0.69991 0.14126 0.0
H466 H 0.01687 0.72378 0.30408 0.0
H467 H 0.01112 0.74256 0.23022 0.0
H468 H 0.94411 0.69492 0.09645 0.0
H469 H 0.96261 0.72545 0.16511 0.0
H470 H 0.92925 0.54539 0.26313 0.0
H471 H 0.94861 0.57686 0.33118 0.0
H472 H 0.95249 0.54806 0.1688 0.0
H473 H 0.94996 0.56713 0.09374 0.0
C474 C 0.27826 0.96547 0.46936 0.0
C475 C 0.30259 0.99303 0.42097 0.0
C476 C 0.31491 0.04839 0.4924 0.0
C477 C 0.30288 0.02148 0.5452 0.0
N478 N 0.26025 0.95457 0.58369 0.0
N479 N 0.34066 0.0615 0.38305 0.0
C480 C 0.27961 0.97984 0.53326 0.0
C481 C 0.31897 0.03479 0.43063 0.0
N482 N 0.25445 0.92593 0.45369 0.0
N483 N 0.32211 0.08642 0.50147 0.0
H484 H 0.34385 0.05284 0.33673 0.0
H485 H 0.35721 0.09233 0.39077 0.0
H486 H 0.31604 0.09548 0.54551 0.0
H487 H 0.32872 0.10673 0.46367 0.0
H488 H 0.2347 0.90416 0.48564 0.0
H489 H 0.25238 0.91546 0.40632 0.0
H490 H 0.24585 0.92349 0.58077 0.0
H491 H 0.25872 0.9655 0.62926 0.0
C492 C 0.46095 0.50573 0.01126 0.0
C493 C 0.44882 0.47617 0.06022 0.0
C494 C 0.51199 0.51741 0.11913 0.0
C495 C 0.52587 0.54456 0.06621 0.0
N496 N 0.51646 0.5614 0.95706 0.0
N497 N 0.46211 0.4521 0.15987 0.0
C498 C 0.50103 0.53807 0.01111 0.0
C499 C 0.47416 0.48154 0.11407 0.0
N500 N 0.4341 0.50299 0.96507 0.0
N501 N 0.53443 0.52658 0.17479 0.0
H502 H 0.43347 0.42689 0.15992 0.0
H503 H 0.48083 0.4517 0.19608 0.0
H504 H 0.56225 0.5526 0.17996 0.0
H505 H 0.52436 0.51012 0.2175 0.0
H506 H 0.44004 0.5257 0.93197 0.0
H507 H 0.40444 0.47962 0.96369 0.0
H508 H 0.50114 0.55545 0.91299 0.0
H509 H 0.54613 0.58453 0.95408 0.0
C510 C 0.9933 0.50606 0.53905 0.0
C511 C 0.99017 0.52435 0.48125 0.0
C512 C 0.96092 0.46037 0.42377 0.0
C513 C 0.96662 0.44245 0.47987 0.0
N514 N 0.99189 0.44816 0.58887 0.0
N515 N 0.98069 0.52179 0.36527 0.0
C516 C 0.984 0.46533 0.53706 0.0
C517 C 0.97671 0.50228 0.42265 0.0
N518 N 0.00423 0.52733 0.59575 0.0
N519 N 0.94 0.43727 0.37161 0.0
H520 H 0.99381 0.55284 0.36233 0.0
H521 H 0.97514 0.50794 0.32005 0.0
H522 H 0.92806 0.40637 0.37009 0.0
H523 H 0.93126 0.44812 0.33223 0.0
H524 H 0.00355 0.51483 0.64083 0.0
H525 H 0.01212 0.55742 0.59806 0.0
H526 H 0.00815 0.46405 0.62963 0.0
H527 H 0.98375 0.41798 0.5896 0.0
C528 C 0.53648 0.02705 0.61685 0.0
C529 C 0.54895 0.01413 0.67215 0.0
C530 C 0.48522 0.99382 0.72582 0.0
C531 C 0.47326 0.00817 0.67168 0.0
N532 N 0.48879 0.04364 0.56987 0.0
N533 N 0.53979 0.99366 0.78423 0.0
C534 C 0.49941 0.02658 0.61851 0.0
C535 C 0.52457 -0.00015 0.72807 0.0
N536 N 0.5592 0.03807 0.56191 0.0
N537 N 0.45886 0.9742 0.77498 0.0
H538 H 0.569 -0.00102 0.78806 0.0
H539 H 0.52512 0.98707 0.82862 0.0
H540 H 0.43046 0.97098 0.77695 0.0
H541 H 0.46401 0.95876 0.81172 0.0
H542 H 0.54984 0.04373 0.51773 0.0
H543 H 0.58668 0.03918 0.55924 0.0
H544 H 0.50822 0.06141 0.53349 0.0
H545 H 0.46106 0.04209 0.568 0.0
C546 C 0.53956 0.53709 0.50546 0.0
C547 C 0.55105 0.55476 0.5681 0.0
C548 C 0.50804 0.48949 0.61857 0.0
C549 C 0.49312 0.47295 0.55629 0.0
N550 N 0.49137 0.48075 0.4405 0.0
N551 N 0.54248 0.54951 0.68431 0.0
C552 C 0.50795 0.49668 0.49964 0.0
C553 C 0.53442 0.53139 0.62476 0.0
N554 N 0.55999 0.55836 0.4519 0.0
N555 N 0.49739 0.46502 0.67169 0.0
H556 H 0.56144 0.58022 0.69085 0.0
H557 H 0.52775 0.53481 0.72658 0.0
H558 H 0.47813 0.43411 0.66894 0.0
H559 H 0.51036 0.47466 0.7174 0.0
H560 H 0.55589 0.54579 0.40583 0.0
H561 H 0.58364 0.58788 0.45423 0.0
H562 H 0.49761 0.49772 0.39833 0.0
H563 H 0.4694 0.45074 0.43429 0.0
C564 C 0.00282 0.52076 0.95738 0.0
C565 C 0.99263 0.53809 0.90513 0.0
C566 C 0.98386 0.4834 0.83353 0.0
C567 C 0.9964 0.46779 0.88504 0.0
N568 N 0.02769 0.47723 -0.0096 0.0
N569 N 0.98131 0.54063 0.7903 0.0
C570 C 0.00939 0.48854 0.9449 0.0
C571 C 0.98541 0.52078 0.84208 0.0
N572 N 0.00335 0.53297 0.01986 0.0
N573 N 0.96997 0.46219 0.77706 0.0
H574 H 0.98336 0.5685 0.79462 0.0
H575 H 0.97937 0.53128 0.74242 0.0
H576 H 0.97049 0.43583 0.76854 0.0
H577 H 0.9562 0.46955 0.74028 0.0
H578 H 0.00608 0.51815 0.06016 0.0
H579 H -0.00338 0.55501 0.03234 0.0
H580 H 0.04141 0.49392 0.03207 0.0
H581 H 0.03278 0.45346 0.98361 0.0
C582 C 0.50929 0.95933 0.22309 0.0
C583 C 0.53758 0.97993 0.2734 0.0
C584 C 0.49093 0.9969 0.32477 0.0
C585 C 0.4643 0.97957 0.27126 0.0
N586 N 0.45163 0.95141 0.16336 0.0
N587 N 0.55805 0.02258 0.36794 0.0
C588 C 0.47426 0.96241 0.21895 0.0
C589 C 0.52924 7e-05 0.32296 0.0
N590 N 0.51604 0.9372 0.17861 0.0
N591 N 0.47895 0.00868 0.37852 0.0
H592 H 0.5855 0.02359 0.37082 0.0
H593 H 0.55577 0.0423 0.39957 0.0
H594 H 0.45089 0.00622 0.38209 0.0
H595 H 0.49531 0.01758 0.42171 0.0
H596 H 0.49432 0.91761 0.14596 0.0
H597 H 0.54237 0.93603 0.17703 0.0
H598 H 0.45982 0.94298 0.12081 0.0
H599 H 0.42658 0.95454 0.15734 0.0
loop_
_geom_bond_atom_site_label_1
_geom_bond_atom_site_label_2
_geom_bond_distance
_geom_bond_site_symmetry_2
_ccdc_geom_bond_type
C0 O1 1.306 . S
C0 O3 1.160 . S
O1 C0 1.306 . S
O1 Cd2 2.228 . S
Cd2 O1 2.228 . S
Cd2 O6 2.273 . S
Cd2 O10 2.277 . S
O3 C0 1.160 . S
O3 Cd4 2.203 . S
Cd4 O3 2.203 . S
Cd4 O6 2.411 . S
Cd4 O7 2.333 1_554 S
Cd4 O8 2.352 . S
Cd4 O12 2.277 . S
Cd4 O13 2.356 . S
C5 O10 1.209 . S
C5 O12 1.226 . S
O6 Cd2 2.273 . S
O6 Cd4 2.411 . S
O6 C9 1.320 1_554 S
O7 Cd4 2.333 1_556 S
O7 C9 1.214 . S
O8 Cd4 2.352 . S
O8 C11 1.258 . S
C9 O6 1.320 1_556 S
C9 O7 1.214 . S
O10 Cd2 2.277 . S
O10 C5 1.209 . S
C11 O8 1.258 . S
C11 O13 1.282 . S
O12 Cd4 2.277 . S
O12 C5 1.226 . S
O13 Cd4 2.356 . S
O13 C11 1.282 . S
C14 O15 1.306 1_655 S
C14 O17 1.160 . S
O15 C14 1.306 1_455 S
O15 Cd16 2.228 . S
Cd16 O15 2.228 . S
Cd16 O20 2.273 . S
Cd16 O24 2.277 . S
O17 C14 1.160 . S
O17 Cd18 2.203 . S
Cd18 O17 2.203 . S
Cd18 O20 2.411 1_655 S
Cd18 O21 2.333 . S
Cd18 O22 2.352 . S
Cd18 O26 2.277 . S
Cd18 O27 2.356 . S
C19 O24 1.209 1_655 S
C19 O26 1.226 . S
O20 Cd16 2.273 . S
O20 Cd18 2.411 1_455 S
O20 C23 1.320 1_455 S
O21 Cd18 2.333 . S
O21 C23 1.214 . S
O22 Cd18 2.352 . S
O22 C25 1.258 . S
C23 O20 1.320 1_655 S
C23 O21 1.214 . S
O24 Cd16 2.277 . S
O24 C19 1.209 1_455 S
C25 O22 1.258 . S
C25 O27 1.282 . S
O26 Cd18 2.277 . S
O26 C19 1.226 . S
O27 Cd18 2.356 . S
O27 C25 1.282 . S
C28 O29 1.306 1_565 S
C28 O31 1.160 . S
O29 C28 1.306 1_545 S
O29 Cd30 2.228 . S
Cd30 O29 2.228 . S
Cd30 O34 2.273 . S
Cd30 O38 2.277 . S
O31 C28 1.160 . S
O31 Cd32 2.203 . S
Cd32 O31 2.203 . S
Cd32 O34 2.411 1_565 S
Cd32 O35 2.333 . S
Cd32 O36 2.352 . S
Cd32 O40 2.277 . S
Cd32 O41 2.356 . S
C33 O38 1.209 1_565 S
C33 O40 1.226 . S
O34 Cd30 2.273 . S
O34 Cd32 2.411 1_545 S
O34 C37 1.320 1_545 S
O35 Cd32 2.333 . S
O35 C37 1.214 . S
O36 Cd32 2.352 . S
O36 C39 1.258 . S
C37 O34 1.320 1_565 S
C37 O35 1.214 . S
O38 Cd30 2.277 . S
O38 C33 1.209 1_545 S
C39 O36 1.258 . S
C39 O41 1.282 . S
O40 Cd32 2.277 . S
O40 C33 1.226 . S
O41 Cd32 2.356 . S
O41 C39 1.282 . S
C42 O43 1.306 . S
C42 O45 1.160 . S
O43 C42 1.306 . S
O43 Cd44 2.228 . S
Cd44 O43 2.228 . S
Cd44 O48 2.273 . S
Cd44 O52 2.277 . S
O45 C42 1.160 . S
O45 Cd46 2.203 . S
Cd46 O45 2.203 . S
Cd46 O48 2.411 . S
Cd46 O49 2.333 1_554 S
Cd46 O50 2.352 . S
Cd46 O54 2.277 . S
Cd46 O55 2.356 . S
C47 O52 1.209 . S
C47 O54 1.226 . S
O48 Cd44 2.273 . S
O48 Cd46 2.411 . S
O48 C51 1.320 1_554 S
O49 Cd46 2.333 1_556 S
O49 C51 1.214 . S
O50 Cd46 2.352 . S
O50 C53 1.258 . S
C51 O48 1.320 1_556 S
C51 O49 1.214 . S
O52 Cd44 2.277 . S
O52 C47 1.209 . S
C53 O50 1.258 . S
C53 O55 1.282 . S
O54 Cd46 2.277 . S
O54 C47 1.226 . S
O55 Cd46 2.356 . S
O55 C53 1.282 . S
C56 O57 1.306 1_455 S
C56 O59 1.160 . S
O57 C56 1.306 1_655 S
O57 Cd58 2.228 . S
Cd58 O57 2.228 . S
Cd58 O62 2.273 . S
Cd58 O66 2.277 . S
O59 C56 1.160 . S
O59 Cd60 2.203 . S
Cd60 O59 2.203 . S
Cd60 O62 2.411 1_455 S
Cd60 O63 2.333 . S
Cd60 O64 2.352 . S
Cd60 O68 2.277 . S
Cd60 O69 2.356 . S
C61 O66 1.209 1_455 S
C61 O68 1.226 . S
O62 Cd58 2.273 . S
O62 Cd60 2.411 1_655 S
O62 C65 1.320 1_655 S
O63 Cd60 2.333 . S
O63 C65 1.214 . S
O64 Cd60 2.352 . S
O64 C67 1.258 . S
C65 O62 1.320 1_455 S
C65 O63 1.214 . S
O66 Cd58 2.277 . S
O66 C61 1.209 1_655 S
C67 O64 1.258 . S
C67 O69 1.282 . S
O68 Cd60 2.277 . S
O68 C61 1.226 . S
O69 Cd60 2.356 . S
O69 C67 1.282 . S
C70 O71 1.306 1_545 S
C70 O73 1.160 . S
O71 C70 1.306 1_565 S
O71 Cd72 2.228 . S
Cd72 O71 2.228 . S
Cd72 O76 2.273 . S
Cd72 O80 2.277 . S
O73 C70 1.160 . S
O73 Cd74 2.203 . S
Cd74 O73 2.203 . S
Cd74 O76 2.411 1_545 S
Cd74 O77 2.333 . S
Cd74 O78 2.352 . S
Cd74 O82 2.277 . S
Cd74 O83 2.356 . S
C75 O80 1.209 1_545 S
C75 O82 1.226 . S
O76 Cd72 2.273 . S
O76 Cd74 2.411 1_565 S
O76 C79 1.320 1_565 S
O77 Cd74 2.333 . S
O77 C79 1.214 . S
O78 Cd74 2.352 . S
O78 C81 1.258 . S
C79 O76 1.320 1_545 S
C79 O77 1.214 . S
O80 Cd72 2.277 . S
O80 C75 1.209 1_565 S
C81 O78 1.258 . S
C81 O83 1.282 . S
O82 Cd74 2.277 . S
O82 C75 1.226 . S
O83 Cd74 2.356 . S
O83 C81 1.282 . S
C84 O85 1.306 . S
C84 O87 1.160 . S
O85 C84 1.306 . S
O85 Cd86 2.228 . S
Cd86 O85 2.228 . S
Cd86 O90 2.273 . S
Cd86 O94 2.277 . S
O87 C84 1.160 . S
O87 Cd88 2.203 . S
Cd88 O87 2.203 . S
Cd88 O90 2.411 . S
Cd88 O91 2.333 . S
Cd88 O92 2.352 . S
Cd88 O96 2.277 . S
Cd88 O97 2.356 . S
C89 O94 1.209 . S
C89 O96 1.226 . S
O90 Cd86 2.273 . S
O90 Cd88 2.411 . S
O90 C93 1.320 . S
O91 Cd88 2.333 . S
O91 C93 1.214 . S
O92 Cd88 2.352 . S
O92 C95 1.258 . S
C93 O90 1.320 . S
C93 O91 1.214 . S
O94 Cd86 2.277 . S
O94 C89 1.209 . S
C95 O92 1.258 . S
C95 O97 1.282 . S
O96 Cd88 2.277 . S
O96 C89 1.226 . S
O97 Cd88 2.356 . S
O97 C95 1.282 . S
C98 O99 1.306 1_655 S
C98 O101 1.160 . S
O99 C98 1.306 1_455 S
O99 Cd100 2.228 . S
Cd100 O99 2.228 . S
Cd100 O104 2.273 . S
Cd100 O108 2.277 . S
O101 C98 1.160 . S
O101 Cd102 2.203 . S
Cd102 O101 2.203 . S
Cd102 O104 2.411 1_655 S
Cd102 O105 2.333 1_556 S
Cd102 O106 2.352 . S
Cd102 O110 2.277 . S
Cd102 O111 2.356 . S
C103 O108 1.209 1_655 S
C103 O110 1.226 . S
O104 Cd100 2.273 . S
O104 Cd102 2.411 1_455 S
O104 C107 1.320 1_456 S
O105 Cd102 2.333 1_554 S
O105 C107 1.214 . S
O106 Cd102 2.352 . S
O106 C109 1.258 . S
C107 O104 1.320 1_654 S
C107 O105 1.214 . S
O108 Cd100 2.277 . S
O108 C103 1.209 1_455 S
C109 O106 1.258 . S
C109 O111 1.282 . S
O110 Cd102 2.277 . S
O110 C103 1.226 . S
O111 Cd102 2.356 . S
O111 C109 1.282 . S
C112 O113 1.306 1_565 S
C112 O115 1.160 . S
O113 C112 1.306 1_545 S
O113 Cd114 2.228 . S
Cd114 O113 2.228 . S
Cd114 O118 2.273 . S
Cd114 O122 2.277 . S
O115 C112 1.160 . S
O115 Cd116 2.203 . S
Cd116 O115 2.203 . S
Cd116 O118 2.411 1_565 S
Cd116 O119 2.333 . S
Cd116 O120 2.352 . S
Cd116 O124 2.277 . S
Cd116 O125 2.356 . S
C117 O122 1.209 1_565 S
C117 O124 1.226 . S
O118 Cd114 2.273 . S
O118 Cd116 2.411 1_545 S
O118 C121 1.320 1_545 S
O119 Cd116 2.333 . S
O119 C121 1.214 . S
O120 Cd116 2.352 . S
O120 C123 1.258 . S
C121 O118 1.320 1_565 S
C121 O119 1.214 . S
O122 Cd114 2.277 . S
O122 C117 1.209 1_545 S
C123 O120 1.258 . S
C123 O125 1.282 . S
O124 Cd116 2.277 . S
O124 C117 1.226 . S
O125 Cd116 2.356 . S
O125 C123 1.282 . S
C126 O127 1.306 . S
C126 O129 1.160 . S
O127 C126 1.306 . S
O127 Cd128 2.228 . S
Cd128 O127 2.228 . S
Cd128 O132 2.273 . S
Cd128 O136 2.277 . S
O129 C126 1.160 . S
O129 Cd130 2.203 . S
Cd130 O129 2.203 . S
Cd130 O132 2.411 . S
Cd130 O133 2.333 . S
Cd130 O134 2.352 . S
Cd130 O138 2.277 . S
Cd130 O139 2.356 . S
C131 O136 1.209 . S
C131 O138 1.226 . S
O132 Cd128 2.273 . S
O132 Cd130 2.411 . S
O132 C135 1.320 . S
O133 Cd130 2.333 . S
O133 C135 1.214 . S
O134 Cd130 2.352 . S
O134 C137 1.258 . S
C135 O132 1.320 . S
C135 O133 1.214 . S
O136 Cd128 2.277 . S
O136 C131 1.209 . S
C137 O134 1.258 . S
C137 O139 1.282 . S
O138 Cd130 2.277 . S
O138 C131 1.226 . S
O139 Cd130 2.356 . S
O139 C137 1.282 . S
C140 O141 1.306 1_455 S
C140 O143 1.160 . S
O141 C140 1.306 1_655 S
O141 Cd142 2.228 . S
Cd142 O141 2.228 . S
Cd142 O146 2.273 . S
Cd142 O150 2.277 . S
O143 C140 1.160 . S
O143 Cd144 2.203 . S
Cd144 O143 2.203 . S
Cd144 O146 2.411 1_455 S
Cd144 O147 2.333 1_556 S
Cd144 O148 2.352 . S
Cd144 O152 2.277 . S
Cd144 O153 2.356 . S
C145 O150 1.209 1_455 S
C145 O152 1.226 . S
O146 Cd142 2.273 . S
O146 Cd144 2.411 1_655 S
O146 C149 1.320 1_656 S
O147 Cd144 2.333 1_554 S
O147 C149 1.214 . S
O148 Cd144 2.352 . S
O148 C151 1.258 . S
C149 O146 1.320 1_454 S
C149 O147 1.214 . S
O150 Cd142 2.277 . S
O150 C145 1.209 1_655 S
C151 O148 1.258 . S
C151 O153 1.282 . S
O152 Cd144 2.277 . S
O152 C145 1.226 . S
O153 Cd144 2.356 . S
O153 C151 1.282 . S
C154 O155 1.306 1_545 S
C154 O157 1.160 . S
O155 C154 1.306 1_565 S
O155 Cd156 2.228 . S
Cd156 O155 2.228 . S
Cd156 O160 2.273 . S
Cd156 O164 2.277 . S
O157 C154 1.160 . S
O157 Cd158 2.203 . S
Cd158 O157 2.203 . S
Cd158 O160 2.411 1_545 S
Cd158 O161 2.333 . S
Cd158 O162 2.352 . S
Cd158 O166 2.277 . S
Cd158 O167 2.356 . S
C159 O164 1.209 1_545 S
C159 O166 1.226 . S
O160 Cd156 2.273 . S
O160 Cd158 2.411 1_565 S
O160 C163 1.320 1_565 S
O161 Cd158 2.333 . S
O161 C163 1.214 . S
O162 Cd158 2.352 . S
O162 C165 1.258 . S
C163 O160 1.320 1_545 S
C163 O161 1.214 . S
O164 Cd156 2.277 . S
O164 C159 1.209 1_565 S
C165 O162 1.258 . S
C165 O167 1.282 . S
O166 Cd158 2.277 . S
O166 C159 1.226 . S
O167 Cd158 2.356 . S
O167 C165 1.282 . S
C168 C169 1.363 . S
C168 C174 1.379 . S
C168 N176 1.356 . S
C169 C168 1.363 . S
C169 C175 1.363 . S
C170 C171 1.363 . S
C170 C175 1.379 . S
C170 N177 1.356 . S
C171 C170 1.363 . S
C171 C174 1.363 . S
N172 C174 1.356 . S
N172 H184 0.984 . S
N172 H185 0.985 . S
N173 C175 1.356 . S
N173 H178 0.984 . S
N173 H179 0.985 . S
C174 C168 1.379 . S
C174 C171 1.363 . S
C174 N172 1.356 . S
C175 C169 1.363 . S
C175 C170 1.379 . S
C175 N173 1.356 . S
N176 C168 1.356 . S
N176 H182 0.984 . S
N176 H183 0.984 . S
N177 C170 1.356 . S
N177 H180 0.984 . S
N177 H181 0.985 . S
H178 N173 0.984 . S
H179 N173 0.985 . S
H180 N177 0.984 . S
H181 N177 0.985 . S
H182 N176 0.984 . S
H183 N176 0.984 . S
H184 N172 0.984 . S
H185 N172 0.985 . S
C186 C187 1.363 . S
C186 C192 1.379 . S
C186 N194 1.356 . S
C187 C186 1.363 . S
C187 C193 1.363 1_655 S
C188 C189 1.363 . S
C188 C193 1.379 . S
C188 N195 1.356 . S
C189 C188 1.363 . S
C189 C192 1.363 1_455 S
N190 C192 1.356 . S
N190 H202 0.984 . S
N190 H203 0.985 . S
N191 C193 1.356 . S
N191 H196 0.984 . S
N191 H197 0.985 . S
C192 C186 1.379 . S
C192 C189 1.363 1_655 S
C192 N190 1.356 . S
C193 C187 1.363 1_455 S
C193 C188 1.379 . S
C193 N191 1.356 . S
N194 C186 1.356 . S
N194 H200 0.984 . S
N194 H201 0.984 . S
N195 C188 1.356 . S
N195 H198 0.984 . S
N195 H199 0.985 . S
H196 N191 0.984 . S
H197 N191 0.985 . S
H198 N195 0.984 . S
H199 N195 0.985 . S
H200 N194 0.984 . S
H201 N194 0.984 . S
H202 N190 0.984 . S
H203 N190 0.985 . S
C204 C205 1.363 1_545 S
C204 C210 1.379 1_556 S
C204 N212 1.356 . S
C205 C204 1.363 1_565 S
C205 C211 1.363 . S
C206 C207 1.363 1_565 S
C206 C211 1.379 1_554 S
C206 N213 1.356 . S
C207 C206 1.363 1_545 S
C207 C210 1.363 . S
N208 C210 1.356 . S
N208 H220 0.984 . S
N208 H221 0.985 . S
N209 C211 1.356 . S
N209 H214 0.984 . S
N209 H215 0.985 . S
C210 C204 1.379 1_554 S
C210 C207 1.363 . S
C210 N208 1.356 . S
C211 C205 1.363 . S
C211 C206 1.379 1_556 S
C211 N209 1.356 . S
N212 C204 1.356 . S
N212 H218 0.984 . S
N212 H219 0.984 . S
N213 C206 1.356 . S
N213 H216 0.984 . S
N213 H217 0.985 . S
H214 N209 0.984 . S
H215 N209 0.985 . S
H216 N213 0.984 . S
H217 N213 0.985 . S
H218 N212 0.984 . S
H219 N212 0.984 . S
H220 N208 0.984 . S
H221 N208 0.985 . S
C222 C223 1.363 . S
C222 C228 1.379 . S
C222 N230 1.356 . S
C223 C222 1.363 . S
C223 C229 1.363 . S
C224 C225 1.363 . S
C224 C229 1.379 . S
C224 N231 1.356 . S
C225 C224 1.363 . S
C225 C228 1.363 . S
N226 C228 1.356 . S
N226 H238 0.984 . S
N226 H239 0.985 . S
N227 C229 1.356 . S
N227 H232 0.984 . S
N227 H233 0.985 . S
C228 C222 1.379 . S
C228 C225 1.363 . S
C228 N226 1.356 . S
C229 C223 1.363 . S
C229 C224 1.379 . S
C229 N227 1.356 . S
N230 C222 1.356 . S
N230 H236 0.984 . S
N230 H237 0.984 . S
N231 C224 1.356 . S
N231 H234 0.984 . S
N231 H235 0.985 . S
H232 N227 0.984 . S
H233 N227 0.985 . S
H234 N231 0.984 . S
H235 N231 0.985 . S
H236 N230 0.984 . S
H237 N230 0.984 . S
H238 N226 0.984 . S
H239 N226 0.985 . S
C240 C241 1.363 . S
C240 C246 1.381 . S
C240 N248 1.356 . S
C241 C240 1.363 . S
C241 C247 1.349 1_655 S
C242 C243 1.363 . S
C242 C247 1.381 . S
C242 N249 1.356 . S
C243 C242 1.363 . S
C243 C246 1.349 1_455 S
N244 C246 1.365 . S
N244 H256 0.985 . S
N244 H257 0.984 1_655 S
N245 C247 1.365 . S
N245 H250 0.984 1_455 S
N245 H251 0.985 . S
C246 C240 1.381 . S
C246 C243 1.349 1_655 S
C246 N244 1.365 . S
C247 C241 1.349 1_455 S
C247 C242 1.381 . S
C247 N245 1.365 . S
N248 C240 1.356 . S
N248 H254 0.984 . S
N248 H255 0.984 . S
N249 C242 1.356 . S
N249 H252 0.984 . S
N249 H253 0.985 . S
H250 N245 0.984 1_655 S
H251 N245 0.985 . S
H252 N249 0.984 . S
H253 N249 0.985 . S
H254 N248 0.984 . S
H255 N248 0.984 . S
H256 N244 0.985 . S
H257 N244 0.984 1_455 S
C258 C259 1.363 1_545 S
C258 C264 1.379 1_554 S
C258 N266 1.356 . S
C259 C258 1.363 1_565 S
C259 C265 1.363 . S
C260 C261 1.363 1_565 S
C260 C265 1.379 1_556 S
C260 N267 1.356 . S
C261 C260 1.363 1_545 S
C261 C264 1.363 . S
N262 C264 1.356 . S
N262 H274 0.984 . S
N262 H275 0.985 . S
N263 C265 1.356 . S
N263 H268 0.984 . S
N263 H269 0.985 . S
C264 C258 1.379 1_556 S
C264 C261 1.363 . S
C264 N262 1.356 . S
C265 C259 1.363 . S
C265 C260 1.379 1_554 S
C265 N263 1.356 . S
N266 C258 1.356 . S
N266 H272 0.984 . S
N266 H273 0.984 . S
N267 C260 1.356 . S
N267 H270 0.984 . S
N267 H271 0.985 . S
H268 N263 0.984 . S
H269 N263 0.985 . S
H270 N267 0.984 . S
H271 N267 0.985 . S
H272 N266 0.984 . S
H273 N266 0.984 . S
H274 N262 0.984 . S
H275 N262 0.985 . S
C276 C277 1.363 . S
C276 C282 1.379 . S
C276 N284 1.356 . S
C277 C276 1.363 . S
C277 C283 1.363 1_556 S
C278 C279 1.363 . S
C278 C283 1.379 . S
C278 N285 1.356 . S
C279 C278 1.363 . S
C279 C282 1.363 1_554 S
N280 C282 1.356 . S
N280 H292 0.984 . S
N280 H293 0.985 1_556 S
N281 C283 1.356 . S
N281 H286 0.984 1_554 S
N281 H287 0.985 . S
C282 C276 1.379 . S
C282 C279 1.363 1_556 S
C282 N280 1.356 . S
C283 C277 1.363 1_554 S
C283 C278 1.379 . S
C283 N281 1.356 . S
N284 C276 1.356 . S
N284 H290 0.984 . S
N284 H291 0.984 . S
N285 C278 1.356 . S
N285 H288 0.984 . S
N285 H289 0.985 . S
H286 N281 0.984 1_556 S
H287 N281 0.985 . S
H288 N285 0.984 . S
H289 N285 0.985 . S
H290 N284 0.984 . S
H291 N284 0.984 . S
H292 N280 0.984 . S
H293 N280 0.985 1_554 S
C294 C295 1.363 . S
C294 C300 1.379 . S
C294 N302 1.356 . S
C295 C294 1.363 . S
C295 C301 1.363 . S
C296 C297 1.363 . S
C296 C301 1.379 . S
C296 N303 1.356 . S
C297 C296 1.363 . S
C297 C300 1.363 . S
N298 C300 1.356 . S
N298 H310 0.984 . S
N298 H311 0.985 . S
N299 C301 1.356 . S
N299 H304 0.984 . S
N299 H305 0.985 . S
C300 C294 1.379 . S
C300 C297 1.363 . S
C300 N298 1.356 . S
C301 C295 1.363 . S
C301 C296 1.379 . S
C301 N299 1.356 . S
N302 C294 1.356 . S
N302 H308 0.984 . S
N302 H309 0.984 . S
N303 C296 1.356 . S
N303 H306 0.984 . S
N303 H307 0.985 . S
H304 N299 0.984 . S
H305 N299 0.985 . S
H306 N303 0.984 . S
H307 N303 0.985 . S
H308 N302 0.984 . S
H309 N302 0.984 . S
H310 N298 0.984 . S
H311 N298 0.985 . S
C312 C313 1.363 . S
C312 C318 1.379 . S
C312 N320 1.356 . S
C313 C312 1.363 . S
C313 C319 1.363 . S
C314 C315 1.363 . S
C314 C319 1.379 . S
C314 N321 1.356 . S
C315 C314 1.363 . S
C315 C318 1.363 . S
N316 C318 1.356 . S
N316 H328 0.984 . S
N316 H329 0.985 . S
N317 C319 1.356 . S
N317 H322 0.984 . S
N317 H323 0.985 . S
C318 C312 1.379 . S
C318 C315 1.363 . S
C318 N316 1.356 . S
C319 C313 1.363 . S
C319 C314 1.379 . S
C319 N317 1.356 . S
N320 C312 1.356 . S
N320 H326 0.984 . S
N320 H327 0.984 . S
N321 C314 1.356 . S
N321 H324 0.984 . S
N321 H325 0.985 . S
H322 N317 0.984 . S
H323 N317 0.985 . S
H324 N321 0.984 . S
H325 N321 0.985 . S
H326 N320 0.984 . S
H327 N320 0.984 . S
H328 N316 0.984 . S
H329 N316 0.985 . S
C330 C331 1.363 1_556 S
C330 C336 1.379 . S
C330 N338 1.356 . S
C331 C330 1.363 1_554 S
C331 C337 1.363 . S
C332 C333 1.363 1_554 S
C332 C337 1.379 . S
C332 N339 1.356 . S
C333 C332 1.363 1_556 S
C333 C336 1.363 . S
N334 C336 1.356 . S
N334 H346 0.984 . S
N334 H347 0.985 . S
N335 C337 1.356 . S
N335 H340 0.984 . S
N335 H341 0.985 . S
C336 C330 1.379 . S
C336 C333 1.363 . S
C336 N334 1.356 . S
C337 C331 1.363 . S
C337 C332 1.379 . S
C337 N335 1.356 . S
N338 C330 1.356 . S
N338 H344 0.984 . S
N338 H345 0.984 1_556 S
N339 C332 1.356 . S
N339 H342 0.984 1_554 S
N339 H343 0.985 . S
H340 N335 0.984 . S
H341 N335 0.985 . S
H342 N339 0.984 1_556 S
H343 N339 0.985 . S
H344 N338 0.984 . S
H345 N338 0.984 1_554 S
H346 N334 0.984 . S
H347 N334 0.985 . S
C348 C349 1.363 . S
C348 C354 1.379 . S
C348 N356 1.356 . S
C349 C348 1.363 . S
C349 C355 1.363 . S
C350 C351 1.363 . S
C350 C355 1.379 . S
C350 N357 1.356 . S
C351 C350 1.363 . S
C351 C354 1.363 . S
N352 C354 1.356 . S
N352 H364 0.984 . S
N352 H365 0.985 . S
N353 C355 1.356 . S
N353 H358 0.984 . S
N353 H359 0.985 . S
C354 C348 1.379 . S
C354 C351 1.363 . S
C354 N352 1.356 . S
C355 C349 1.363 . S
C355 C350 1.379 . S
C355 N353 1.356 . S
N356 C348 1.356 . S
N356 H362 0.984 . S
N356 H363 0.984 . S
N357 C350 1.356 . S
N357 H360 0.984 . S
N357 H361 0.985 . S
H358 N353 0.984 . S
H359 N353 0.985 . S
H360 N357 0.984 . S
H361 N357 0.985 . S
H362 N356 0.984 . S
H363 N356 0.984 . S
H364 N352 0.984 . S
H365 N352 0.985 . S
C366 C367 1.363 . S
C366 C372 1.379 . S
C366 N374 1.356 . S
C367 C366 1.363 . S
C367 C373 1.363 . S
C368 C369 1.363 . S
C368 C373 1.379 . S
C368 N375 1.356 . S
C369 C368 1.363 . S
C369 C372 1.363 . S
N370 C372 1.356 . S
N370 H382 0.984 . S
N370 H383 0.985 . S
N371 C373 1.356 . S
N371 H376 0.984 . S
N371 H377 0.985 . S
C372 C366 1.379 . S
C372 C369 1.363 . S
C372 N370 1.356 . S
C373 C367 1.363 . S
C373 C368 1.379 . S
C373 N371 1.356 . S
N374 C366 1.356 . S
N374 H380 0.984 . S
N374 H381 0.984 . S
N375 C368 1.356 . S
N375 H378 0.984 . S
N375 H379 0.985 . S
H376 N371 0.984 . S
H377 N371 0.985 . S
H378 N375 0.984 . S
H379 N375 0.985 . S
H380 N374 0.984 . S
H381 N374 0.984 . S
H382 N370 0.984 . S
H383 N370 0.985 . S
C384 C385 1.363 . S
C384 C390 1.379 . S
C384 N392 1.356 . S
C385 C384 1.363 . S
C385 C391 1.363 . S
C386 C387 1.363 . S
C386 C391 1.379 . S
C386 N393 1.356 . S
C387 C386 1.363 . S
C387 C390 1.363 . S
N388 C390 1.356 . S
N388 H400 0.984 . S
N388 H401 0.985 . S
N389 C391 1.356 . S
N389 H394 0.984 . S
N389 H395 0.985 . S
C390 C384 1.379 . S
C390 C387 1.363 . S
C390 N388 1.356 . S
C391 C385 1.363 . S
C391 C386 1.379 . S
C391 N389 1.356 . S
N392 C384 1.356 . S
N392 H398 0.984 . S
N392 H399 0.984 . S
N393 C386 1.356 . S
N393 H396 0.984 . S
N393 H397 0.985 . S
H394 N389 0.984 . S
H395 N389 0.985 . S
H396 N393 0.984 . S
H397 N393 0.985 . S
H398 N392 0.984 . S
H399 N392 0.984 . S
H400 N388 0.984 . S
H401 N388 0.985 . S
C402 C403 1.363 . S
C402 C408 1.381 . S
C402 N410 1.356 . S
C403 C402 1.363 . S
C403 C409 1.353 1_455 S
C404 C405 1.363 . S
C404 C409 1.381 . S
C404 N411 1.356 . S
C405 C404 1.363 . S
C405 C408 1.353 1_655 S
N406 C408 1.369 1_655 S
N406 H418 0.973 1_655 S
N406 H419 0.990 . S
N407 C409 1.369 1_455 S
N407 H412 0.990 . S
N407 H413 0.973 1_455 S
C408 C402 1.381 . S
C408 C405 1.353 1_455 S
C408 N406 1.369 1_455 S
C409 C403 1.353 1_655 S
C409 C404 1.381 . S
C409 N407 1.369 1_655 S
N410 C402 1.356 . S
N410 H416 0.984 . S
N410 H417 0.984 . S
N411 C404 1.356 . S
N411 H414 0.984 . S
N411 H415 0.985 . S
H412 N407 0.990 . S
H413 N407 0.973 1_655 S
H414 N411 0.984 . S
H415 N411 0.985 . S
H416 N410 0.984 . S
H417 N410 0.984 . S
H418 N406 0.973 1_455 S
H419 N406 0.990 . S
C420 C421 1.363 . S
C420 C426 1.379 . S
C420 N428 1.356 . S
C421 C420 1.363 . S
C421 C427 1.363 1_545 S
C422 C423 1.363 . S
C422 C427 1.379 . S
C422 N429 1.356 . S
C423 C422 1.363 . S
C423 C426 1.363 1_565 S
N424 C426 1.356 . S
N424 H436 0.984 . S
N424 H437 0.985 . S
N425 C427 1.356 . S
N425 H430 0.984 . S
N425 H431 0.985 . S
C426 C420 1.379 . S
C426 C423 1.363 1_545 S
C426 N424 1.356 . S
C427 C421 1.363 1_565 S
C427 C422 1.379 . S
C427 N425 1.356 . S
N428 C420 1.356 . S
N428 H434 0.984 . S
N428 H435 0.984 . S
N429 C422 1.356 . S
N429 H432 0.984 . S
N429 H433 0.985 . S
H430 N425 0.984 . S
H431 N425 0.985 . S
H432 N429 0.984 . S
H433 N429 0.985 . S
H434 N428 0.984 . S
H435 N428 0.984 . S
H436 N424 0.984 . S
H437 N424 0.985 . S
C438 C439 1.363 . S
C438 C444 1.379 . S
C438 N446 1.356 . S
C439 C438 1.363 . S
C439 C445 1.363 . S
C440 C441 1.363 . S
C440 C445 1.379 . S
C440 N447 1.356 . S
C441 C440 1.363 . S
C441 C444 1.363 . S
N442 C444 1.356 . S
N442 H454 0.984 . S
N442 H455 0.985 . S
N443 C445 1.356 . S
N443 H448 0.984 . S
N443 H449 0.985 . S
C444 C438 1.379 . S
C444 C441 1.363 . S
C444 N442 1.356 . S
C445 C439 1.363 . S
C445 C440 1.379 . S
C445 N443 1.356 . S
N446 C438 1.356 . S
N446 H452 0.984 . S
N446 H453 0.984 . S
N447 C440 1.356 . S
N447 H450 0.984 . S
N447 H451 0.985 . S
H448 N443 0.984 . S
H449 N443 0.985 . S
H450 N447 0.984 . S
H451 N447 0.985 . S
H452 N446 0.984 . S
H453 N446 0.984 . S
H454 N442 0.984 . S
H455 N442 0.985 . S
C456 C457 1.363 . S
C456 C462 1.379 1_655 S
C456 N464 1.356 . S
C457 C456 1.363 . S
C457 C463 1.363 . S
C458 C459 1.363 . S
C458 C463 1.379 1_455 S
C458 N465 1.356 . S
C459 C458 1.363 . S
C459 C462 1.363 . S
N460 C462 1.356 . S
N460 H472 0.984 . S
N460 H473 0.985 . S
N461 C463 1.356 . S
N461 H466 0.984 . S
N461 H467 0.985 . S
C462 C456 1.379 1_455 S
C462 C459 1.363 . S
C462 N460 1.356 . S
C463 C457 1.363 . S
C463 C458 1.379 1_655 S
C463 N461 1.356 . S
N464 C456 1.356 . S
N464 H470 0.984 . S
N464 H471 0.984 . S
N465 C458 1.356 . S
N465 H468 0.984 . S
N465 H469 0.985 . S
H466 N461 0.984 . S
H467 N461 0.985 . S
H468 N465 0.984 . S
H469 N465 0.985 . S
H470 N464 0.984 . S
H471 N464 0.984 . S
H472 N460 0.984 . S
H473 N460 0.985 . S
C474 C475 1.363 1_565 S
C474 C480 1.379 . S
C474 N482 1.356 . S
C475 C474 1.363 1_545 S
C475 C481 1.363 . S
C476 C477 1.363 1_545 S
C476 C481 1.379 . S
C476 N483 1.356 . S
C477 C476 1.363 1_565 S
C477 C480 1.363 . S
N478 C480 1.356 . S
N478 H490 0.984 . S
N478 H491 0.985 . S
N479 C481 1.356 . S
N479 H484 0.984 . S
N479 H485 0.985 . S
C480 C474 1.379 . S
C480 C477 1.363 . S
C480 N478 1.356 . S
C481 C475 1.363 . S
C481 C476 1.379 . S
C481 N479 1.356 . S
N482 C474 1.356 . S
N482 H488 0.984 . S
N482 H489 0.984 . S
N483 C476 1.356 . S
N483 H486 0.984 . S
N483 H487 0.985 . S
H484 N479 0.984 . S
H485 N479 0.985 . S
H486 N483 0.984 . S
H487 N483 0.985 . S
H488 N482 0.984 . S
H489 N482 0.984 . S
H490 N478 0.984 . S
H491 N478 0.985 . S
C492 C493 1.363 . S
C492 C498 1.379 . S
C492 N500 1.356 1_554 S
C493 C492 1.363 . S
C493 C499 1.363 . S
C494 C495 1.363 . S
C494 C499 1.379 . S
C494 N501 1.356 . S
C495 C494 1.363 . S
C495 C498 1.363 . S
N496 C498 1.356 1_556 S
N496 H508 0.984 . S
N496 H509 0.985 . S
N497 C499 1.356 . S
N497 H502 0.984 . S
N497 H503 0.985 . S
C498 C492 1.379 . S
C498 C495 1.363 . S
C498 N496 1.356 1_554 S
C499 C493 1.363 . S
C499 C494 1.379 . S
C499 N497 1.356 . S
N500 C492 1.356 1_556 S
N500 H506 0.984 . S
N500 H507 0.984 . S
N501 C494 1.356 . S
N501 H504 0.984 . S
N501 H505 0.985 . S
H502 N497 0.984 . S
H503 N497 0.985 . S
H504 N501 0.984 . S
H505 N501 0.985 . S
H506 N500 0.984 . S
H507 N500 0.984 . S
H508 N496 0.984 . S
H509 N496 0.985 . S
C510 C511 1.363 . S
C510 C516 1.379 . S
C510 N518 1.356 . S
C511 C510 1.363 . S
C511 C517 1.363 1_455 S
C512 C513 1.363 . S
C512 C517 1.379 . S
C512 N519 1.356 . S
C513 C512 1.363 . S
C513 C516 1.363 1_655 S
N514 C516 1.356 . S
N514 H526 0.984 . S
N514 H527 0.985 . S
N515 C517 1.356 . S
N515 H520 0.984 . S
N515 H521 0.985 . S
C516 C510 1.379 . S
C516 C513 1.363 1_455 S
C516 N514 1.356 . S
C517 C511 1.363 1_655 S
C517 C512 1.379 . S
C517 N515 1.356 . S
N518 C510 1.356 . S
N518 H524 0.984 . S
N518 H525 0.984 . S
N519 C512 1.356 . S
N519 H522 0.984 . S
N519 H523 0.985 . S
H520 N515 0.984 . S
H521 N515 0.985 . S
H522 N519 0.984 . S
H523 N519 0.985 . S
H524 N518 0.984 . S
H525 N518 0.984 . S
H526 N514 0.984 . S
H527 N514 0.985 . S
C528 C529 1.363 1_545 S
C528 C534 1.379 . S
C528 N536 1.356 . S
C529 C528 1.363 1_565 S
C529 C535 1.363 . S
C530 C531 1.363 1_565 S
C530 C535 1.379 . S
C530 N537 1.356 . S
C531 C530 1.363 1_545 S
C531 C534 1.363 . S
N532 C534 1.356 . S
N532 H544 0.984 . S
N532 H545 0.985 . S
N533 C535 1.356 . S
N533 H538 0.984 . S
N533 H539 0.985 . S
C534 C528 1.379 . S
C534 C531 1.363 . S
C534 N532 1.356 . S
C535 C529 1.363 . S
C535 C530 1.379 . S
C535 N533 1.356 . S
N536 C528 1.356 . S
N536 H542 0.984 . S
N536 H543 0.984 . S
N537 C530 1.356 . S
N537 H540 0.984 . S
N537 H541 0.985 . S
H538 N533 0.984 . S
H539 N533 0.985 . S
H540 N537 0.984 . S
H541 N537 0.985 . S
H542 N536 0.984 . S
H543 N536 0.984 . S
H544 N532 0.984 . S
H545 N532 0.985 . S
C546 C547 1.363 . S
C546 C552 1.379 . S
C546 N554 1.356 . S
C547 C546 1.363 . S
C547 C553 1.363 . S
C548 C549 1.363 . S
C548 C553 1.379 . S
C548 N555 1.356 . S
C549 C548 1.363 . S
C549 C552 1.363 . S
N550 C552 1.356 . S
N550 H562 0.984 . S
N550 H563 0.985 . S
N551 C553 1.356 . S
N551 H556 0.984 . S
N551 H557 0.985 . S
C552 C546 1.379 . S
C552 C549 1.363 . S
C552 N550 1.356 . S
C553 C547 1.363 . S
C553 C548 1.379 . S
C553 N551 1.356 . S
N554 C546 1.356 . S
N554 H560 0.984 . S
N554 H561 0.984 . S
N555 C548 1.356 . S
N555 H558 0.984 . S
N555 H559 0.985 . S
H556 N551 0.984 . S
H557 N551 0.985 . S
H558 N555 0.984 . S
H559 N555 0.985 . S
H560 N554 0.984 . S
H561 N554 0.984 . S
H562 N550 0.984 . S
H563 N550 0.985 . S
C564 C565 1.363 1_455 S
C564 C570 1.379 . S
C564 N572 1.356 1_556 S
C565 C564 1.363 1_655 S
C565 C571 1.363 . S
C566 C567 1.363 1_655 S
C566 C571 1.379 . S
C566 N573 1.356 . S
C567 C566 1.363 1_455 S
C567 C570 1.363 . S
N568 C570 1.356 1_554 S
N568 H580 0.984 . S
N568 H581 0.985 . S
N569 C571 1.356 . S
N569 H574 0.984 . S
N569 H575 0.985 . S
C570 C564 1.379 . S
C570 C567 1.363 . S
C570 N568 1.356 1_556 S
C571 C565 1.363 . S
C571 C566 1.379 . S
C571 N569 1.356 . S
N572 C564 1.356 1_554 S
N572 H578 0.984 . S
N572 H579 0.984 . S
N573 C566 1.356 . S
N573 H576 0.984 . S
N573 H577 0.985 . S
H574 N569 0.984 . S
H575 N569 0.985 . S
H576 N573 0.984 . S
H577 N573 0.985 . S
H578 N572 0.984 . S
H579 N572 0.984 . S
H580 N568 0.984 . S
H581 N568 0.985 . S
C582 C583 1.363 . S
C582 C588 1.379 . S
C582 N590 1.356 . S
C583 C582 1.363 . S
C583 C589 1.363 1_545 S
C584 C585 1.363 . S
C584 C589 1.379 . S
C584 N591 1.356 . S
C585 C584 1.363 . S
C585 C588 1.363 1_565 S
N586 C588 1.356 . S
N586 H598 0.984 . S
N586 H599 0.985 . S
N587 C589 1.356 . S
N587 H592 0.984 . S
N587 H593 0.985 . S
C588 C582 1.379 . S
C588 C585 1.363 1_545 S
C588 N586 1.356 . S
C589 C583 1.363 1_565 S
C589 C584 1.379 . S
C589 N587 1.356 . S
N590 C582 1.356 . S
N590 H596 0.984 . S
N590 H597 0.984 . S
N591 C584 1.356 . S
N591 H594 0.984 . S
N591 H595 0.985 . S
H592 N587 0.984 . S
H593 N587 0.985 . S
H594 N591 0.984 . S
H595 N591 0.985 . S
H596 N590 0.984 . S
H597 N590 0.984 . S
H598 N586 0.984 . S
H599 N586 0.985 . S
C169 C0 1.539 . S
C171 C126 1.539 . S
C187 C14 1.539 . S
C189 C140 1.539 . S
C205 C28 1.539 . S
C207 C154 1.539 . S
C223 C42 1.539 . S
C225 C84 1.539 . S
C241 C98 1.539 . S
C243 C56 1.539 . S
C259 C112 1.539 . S
C261 C70 1.539 . S
C277 C151 1.549 . S
C279 C11 1.549 . S
C295 C25 1.549 . S
C297 C165 1.549 . S
C313 C39 1.549 . S
C315 C95 1.549 . S
C331 C53 1.549 . S
C333 C109 1.549 . S
C349 C67 1.549 . S
C351 C123 1.549 . S
C367 C81 1.549 . S
C369 C137 1.549 . S
C385 C135 1.001 . S
C387 C9 1.001 . S
C403 C23 1.001 1_455 S
C405 C149 1.001 1_655 S
C421 C37 1.001 1_545 S
C423 C163 1.001 1_565 S
C439 C93 1.001 . S
C441 C51 1.001 . S
C457 C65 1.001 1_655 S
C459 C107 1.001 1_455 S
C475 C121 1.001 1_545 S
C477 C79 1.001 1_565 S
C493 C5 1.508 . S
C495 C47 1.508 . S
C511 C61 1.508 . S
C513 C19 1.508 . S
C529 C33 1.508 . S
C531 C75 1.508 . S
C547 C89 1.508 . S
C549 C131 1.508 . S
C565 C103 1.508 . S
C567 C145 1.508 . S
C583 C159 1.508 . S
C585 C117 1.508 . S
