# Generated by pormake.
# Topology fcs, (5)-cn, num edge types: 1
# Building blocks:
#     Node 0, Type 0, BuildingBlock: XOMCOT_clean_sbu_1, # of connection points: 5
#     Node 1, Type 0, BuildingBlock: XOMCOT_clean_sbu_1, # of connection points: 5
#     Node 2, Type 0, BuildingBlock: XOMCOT_clean_sbu_1, # of connection points: 5
#     Node 3, Type 0, BuildingBlock: XOMCOT_clean_sbu_1, # of connection points: 5
#     Node 4, Type 0, BuildingBlock: XOMCOT_clean_sbu_1, # of connection points: 5
#     Node 5, Type 0, BuildingBlock: XOMCOT_clean_sbu_1, # of connection points: 5
#     Node 6, Type 0, BuildingBlock: XOMCOT_clean_sbu_1, # of connection points: 5
#     Node 7, Type 0, BuildingBlock: XOMCOT_clean_sbu_1, # of connection points: 5
#     Node 8, Type 0, BuildingBlock: XOMCOT_clean_sbu_1, # of connection points: 5
#     Node 9, Type 0, BuildingBlock: XOMCOT_clean_sbu_1, # of connection points: 5
#     Node 10, Type 0, BuildingBlock: XOMCOT_clean_sbu_1, # of connection points: 5
#     Node 11, Type 0, BuildingBlock: XOMCOT_clean_sbu_1, # of connection points: 5
#     Node 12, Type 0, BuildingBlock: XOMCOT_clean_sbu_1, # of connection points: 5
#     Node 13, Type 0, BuildingBlock: XOMCOT_clean_sbu_1, # of connection points: 5
#     Node 14, Type 0, BuildingBlock: XOMCOT_clean_sbu_1, # of connection points: 5
#     Node 15, Type 0, BuildingBlock: XOMCOT_clean_sbu_1, # of connection points: 5
#     Node 16, Type 0, BuildingBlock: XOMCOT_clean_sbu_1, # of connection points: 5
#     Node 17, Type 0, BuildingBlock: XOMCOT_clean_sbu_1, # of connection points: 5
#     Node 18, Type 0, BuildingBlock: XOMCOT_clean_sbu_1, # of connection points: 5
#     Node 19, Type 0, BuildingBlock: XOMCOT_clean_sbu_1, # of connection points: 5
#     Node 20, Type 0, BuildingBlock: XOMCOT_clean_sbu_1, # of connection points: 5
#     Node 21, Type 0, BuildingBlock: XOMCOT_clean_sbu_1, # of connection points: 5
#     Node 22, Type 0, BuildingBlock: XOMCOT_clean_sbu_1, # of connection points: 5
#     Node 23, Type 0, BuildingBlock: XOMCOT_clean_sbu_1, # of connection points: 5
#     Node 24, Type 0, BuildingBlock: XOMCOT_clean_sbu_1, # of connection points: 5
#     Node 25, Type 0, BuildingBlock: XOMCOT_clean_sbu_1, # of connection points: 5
#     Node 26, Type 0, BuildingBlock: XOMCOT_clean_sbu_1, # of connection points: 5
#     Node 27, Type 0, BuildingBlock: XOMCOT_clean_sbu_1, # of connection points: 5
#     Node 28, Type 0, BuildingBlock: XOMCOT_clean_sbu_1, # of connection points: 5
#     Node 29, Type 0, BuildingBlock: XOMCOT_clean_sbu_1, # of connection points: 5
#     Node 30, Type 0, BuildingBlock: XOMCOT_clean_sbu_1, # of connection points: 5
#     Node 31, Type 0, BuildingBlock: XOMCOT_clean_sbu_1, # of connection points: 5
#     Node 32, Type 0, BuildingBlock: XOMCOT_clean_sbu_1, # of connection points: 5
#     Node 33, Type 0, BuildingBlock: XOMCOT_clean_sbu_1, # of connection points: 5
#     Node 34, Type 0, BuildingBlock: XOMCOT_clean_sbu_1, # of connection points: 5
#     Node 35, Type 0, BuildingBlock: XOMCOT_clean_sbu_1, # of connection points: 5
#     Node 36, Type 0, BuildingBlock: XOMCOT_clean_sbu_1, # of connection points: 5
#     Node 37, Type 0, BuildingBlock: XOMCOT_clean_sbu_1, # of connection points: 5
#     Node 38, Type 0, BuildingBlock: XOMCOT_clean_sbu_1, # of connection points: 5
#     Node 39, Type 0, BuildingBlock: XOMCOT_clean_sbu_1, # of connection points: 5
#     Node 40, Type 0, BuildingBlock: XOMCOT_clean_sbu_1, # of connection points: 5
#     Node 41, Type 0, BuildingBlock: XOMCOT_clean_sbu_1, # of connection points: 5
#     Node 42, Type 0, BuildingBlock: XOMCOT_clean_sbu_1, # of connection points: 5
#     Node 43, Type 0, BuildingBlock: XOMCOT_clean_sbu_1, # of connection points: 5
#     Node 44, Type 0, BuildingBlock: XOMCOT_clean_sbu_1, # of connection points: 5
#     Node 45, Type 0, BuildingBlock: XOMCOT_clean_sbu_1, # of connection points: 5
#     Node 46, Type 0, BuildingBlock: XOMCOT_clean_sbu_1, # of connection points: 5
#     Node 47, Type 0, BuildingBlock: XOMCOT_clean_sbu_1, # of connection points: 5
#     Edge 48, Type (0, 0), BuildingBlock: EZIPEK_clean_linker_0, # of connection points: 2
#     Edge 49, Type (0, 0), BuildingBlock: EZIPEK_clean_linker_0, # of connection points: 2
#     Edge 50, Type (0, 0), BuildingBlock: EZIPEK_clean_linker_0, # of connection points: 2
#     Edge 51, Type (0, 0), BuildingBlock: EZIPEK_clean_linker_0, # of connection points: 2
#     Edge 52, Type (0, 0), BuildingBlock: EZIPEK_clean_linker_0, # of connection points: 2
#     Edge 53, Type (0, 0), BuildingBlock: EZIPEK_clean_linker_0, # of connection points: 2
#     Edge 54, Type (0, 0), BuildingBlock: EZIPEK_clean_linker_0, # of connection points: 2
#     Edge 55, Type (0, 0), BuildingBlock: EZIPEK_clean_linker_0, # of connection points: 2
#     Edge 56, Type (0, 0), BuildingBlock: EZIPEK_clean_linker_0, # of connection points: 2
#     Edge 57, Type (0, 0), BuildingBlock: EZIPEK_clean_linker_0, # of connection points: 2
#     Edge 58, Type (0, 0), BuildingBlock: EZIPEK_clean_linker_0, # of connection points: 2
#     Edge 59, Type (0, 0), BuildingBlock: EZIPEK_clean_linker_0, # of connection points: 2
#     Edge 60, Type (0, 0), BuildingBlock: EZIPEK_clean_linker_0, # of connection points: 2
#     Edge 61, Type (0, 0), BuildingBlock: EZIPEK_clean_linker_0, # of connection points: 2
#     Edge 62, Type (0, 0), BuildingBlock: EZIPEK_clean_linker_0, # of connection points: 2
#     Edge 63, Type (0, 0), BuildingBlock: EZIPEK_clean_linker_0, # of connection points: 2
#     Edge 64, Type (0, 0), BuildingBlock: EZIPEK_clean_linker_0, # of connection points: 2
#     Edge 65, Type (0, 0), BuildingBlock: EZIPEK_clean_linker_0, # of connection points: 2
#     Edge 66, Type (0, 0), BuildingBlock: EZIPEK_clean_linker_0, # of connection points: 2
#     Edge 67, Type (0, 0), BuildingBlock: EZIPEK_clean_linker_0, # of connection points: 2
#     Edge 68, Type (0, 0), BuildingBlock: EZIPEK_clean_linker_0, # of connection points: 2
#     Edge 69, Type (0, 0), BuildingBlock: EZIPEK_clean_linker_0, # of connection points: 2
#     Edge 70, Type (0, 0), BuildingBlock: EZIPEK_clean_linker_0, # of connection points: 2
#     Edge 71, Type (0, 0), BuildingBlock: EZIPEK_clean_linker_0, # of connection points: 2
#     Edge 72, Type (0, 0), BuildingBlock: EZIPEK_clean_linker_0, # of connection points: 2
#     Edge 73, Type (0, 0), BuildingBlock: EZIPEK_clean_linker_0, # of connection points: 2
#     Edge 74, Type (0, 0), BuildingBlock: EZIPEK_clean_linker_0, # of connection points: 2
#     Edge 75, Type (0, 0), BuildingBlock: EZIPEK_clean_linker_0, # of connection points: 2
#     Edge 76, Type (0, 0), BuildingBlock: EZIPEK_clean_linker_0, # of connection points: 2
#     Edge 77, Type (0, 0), BuildingBlock: EZIPEK_clean_linker_0, # of connection points: 2
#     Edge 78, Type (0, 0), BuildingBlock: EZIPEK_clean_linker_0, # of connection points: 2
#     Edge 79, Type (0, 0), BuildingBlock: EZIPEK_clean_linker_0, # of connection points: 2
#     Edge 80, Type (0, 0), BuildingBlock: EZIPEK_clean_linker_0, # of connection points: 2
#     Edge 81, Type (0, 0), BuildingBlock: EZIPEK_clean_linker_0, # of connection points: 2
#     Edge 82, Type (0, 0), BuildingBlock: EZIPEK_clean_linker_0, # of connection points: 2
#     Edge 83, Type (0, 0), BuildingBlock: EZIPEK_clean_linker_0, # of connection points: 2
#     Edge 84, Type (0, 0), BuildingBlock: EZIPEK_clean_linker_0, # of connection points: 2
#     Edge 85, Type (0, 0), BuildingBlock: EZIPEK_clean_linker_0, # of connection points: 2
#     Edge 86, Type (0, 0), BuildingBlock: EZIPEK_clean_linker_0, # of connection points: 2
#     Edge 87, Type (0, 0), BuildingBlock: EZIPEK_clean_linker_0, # of connection points: 2
#     Edge 88, Type (0, 0), BuildingBlock: EZIPEK_clean_linker_0, # of connection points: 2
#     Edge 89, Type (0, 0), BuildingBlock: EZIPEK_clean_linker_0, # of connection points: 2
#     Edge 90, Type (0, 0), BuildingBlock: EZIPEK_clean_linker_0, # of connection points: 2
#     Edge 91, Type (0, 0), BuildingBlock: EZIPEK_clean_linker_0, # of connection points: 2
#     Edge 92, Type (0, 0), BuildingBlock: EZIPEK_clean_linker_0, # of connection points: 2
#     Edge 93, Type (0, 0), BuildingBlock: EZIPEK_clean_linker_0, # of connection points: 2
#     Edge 94, Type (0, 0), BuildingBlock: EZIPEK_clean_linker_0, # of connection points: 2
#     Edge 95, Type (0, 0), BuildingBlock: EZIPEK_clean_linker_0, # of connection points: 2
#     Edge 96, Type (0, 0), BuildingBlock: EZIPEK_clean_linker_0, # of connection points: 2
#     Edge 97, Type (0, 0), BuildingBlock: EZIPEK_clean_linker_0, # of connection points: 2
#     Edge 98, Type (0, 0), BuildingBlock: EZIPEK_clean_linker_0, # of connection points: 2
#     Edge 99, Type (0, 0), BuildingBlock: EZIPEK_clean_linker_0, # of connection points: 2
#     Edge 100, Type (0, 0), BuildingBlock: EZIPEK_clean_linker_0, # of connection points: 2
#     Edge 101, Type (0, 0), BuildingBlock: EZIPEK_clean_linker_0, # of connection points: 2
#     Edge 102, Type (0, 0), BuildingBlock: EZIPEK_clean_linker_0, # of connection points: 2
#     Edge 103, Type (0, 0), BuildingBlock: EZIPEK_clean_linker_0, # of connection points: 2
#     Edge 104, Type (0, 0), BuildingBlock: EZIPEK_clean_linker_0, # of connection points: 2
#     Edge 105, Type (0, 0), BuildingBlock: EZIPEK_clean_linker_0, # of connection points: 2
#     Edge 106, Type (0, 0), BuildingBlock: EZIPEK_clean_linker_0, # of connection points: 2
#     Edge 107, Type (0, 0), BuildingBlock: EZIPEK_clean_linker_0, # of connection points: 2
#     Edge 108, Type (0, 0), BuildingBlock: EZIPEK_clean_linker_0, # of connection points: 2
#     Edge 109, Type (0, 0), BuildingBlock: EZIPEK_clean_linker_0, # of connection points: 2
#     Edge 110, Type (0, 0), BuildingBlock: EZIPEK_clean_linker_0, # of connection points: 2
#     Edge 111, Type (0, 0), BuildingBlock: EZIPEK_clean_linker_0, # of connection points: 2
#     Edge 112, Type (0, 0), BuildingBlock: EZIPEK_clean_linker_0, # of connection points: 2
#     Edge 113, Type (0, 0), BuildingBlock: EZIPEK_clean_linker_0, # of connection points: 2
#     Edge 114, Type (0, 0), BuildingBlock: EZIPEK_clean_linker_0, # of connection points: 2
#     Edge 115, Type (0, 0), BuildingBlock: EZIPEK_clean_linker_0, # of connection points: 2
#     Edge 116, Type (0, 0), BuildingBlock: EZIPEK_clean_linker_0, # of connection points: 2
#     Edge 117, Type (0, 0), BuildingBlock: EZIPEK_clean_linker_0, # of connection points: 2
#     Edge 118, Type (0, 0), BuildingBlock: EZIPEK_clean_linker_0, # of connection points: 2
#     Edge 119, Type (0, 0), BuildingBlock: EZIPEK_clean_linker_0, # of connection points: 2
#     Edge 120, Type (0, 0), BuildingBlock: EZIPEK_clean_linker_0, # of connection points: 2
#     Edge 121, Type (0, 0), BuildingBlock: EZIPEK_clean_linker_0, # of connection points: 2
#     Edge 122, Type (0, 0), BuildingBlock: EZIPEK_clean_linker_0, # of connection points: 2
#     Edge 123, Type (0, 0), BuildingBlock: EZIPEK_clean_linker_0, # of connection points: 2
#     Edge 124, Type (0, 0), BuildingBlock: EZIPEK_clean_linker_0, # of connection points: 2
#     Edge 125, Type (0, 0), BuildingBlock: EZIPEK_clean_linker_0, # of connection points: 2
#     Edge 126, Type (0, 0), BuildingBlock: EZIPEK_clean_linker_0, # of connection points: 2
#     Edge 127, Type (0, 0), BuildingBlock: EZIPEK_clean_linker_0, # of connection points: 2
#     Edge 128, Type (0, 0), BuildingBlock: EZIPEK_clean_linker_0, # of connection points: 2
#     Edge 129, Type (0, 0), BuildingBlock: EZIPEK_clean_linker_0, # of connection points: 2
#     Edge 130, Type (0, 0), BuildingBlock: EZIPEK_clean_linker_0, # of connection points: 2
#     Edge 131, Type (0, 0), BuildingBlock: EZIPEK_clean_linker_0, # of connection points: 2
#     Edge 132, Type (0, 0), BuildingBlock: EZIPEK_clean_linker_0, # of connection points: 2
#     Edge 133, Type (0, 0), BuildingBlock: EZIPEK_clean_linker_0, # of connection points: 2
#     Edge 134, Type (0, 0), BuildingBlock: EZIPEK_clean_linker_0, # of connection points: 2
#     Edge 135, Type (0, 0), BuildingBlock: EZIPEK_clean_linker_0, # of connection points: 2
#     Edge 136, Type (0, 0), BuildingBlock: EZIPEK_clean_linker_0, # of connection points: 2
#     Edge 137, Type (0, 0), BuildingBlock: EZIPEK_clean_linker_0, # of connection points: 2
#     Edge 138, Type (0, 0), BuildingBlock: EZIPEK_clean_linker_0, # of connection points: 2
#     Edge 139, Type (0, 0), BuildingBlock: EZIPEK_clean_linker_0, # of connection points: 2
#     Edge 140, Type (0, 0), BuildingBlock: EZIPEK_clean_linker_0, # of connection points: 2
#     Edge 141, Type (0, 0), BuildingBlock: EZIPEK_clean_linker_0, # of connection points: 2
#     Edge 142, Type (0, 0), BuildingBlock: EZIPEK_clean_linker_0, # of connection points: 2
#     Edge 143, Type (0, 0), BuildingBlock: EZIPEK_clean_linker_0, # of connection points: 2
#     Edge 144, Type (0, 0), BuildingBlock: EZIPEK_clean_linker_0, # of connection points: 2
#     Edge 145, Type (0, 0), BuildingBlock: EZIPEK_clean_linker_0, # of connection points: 2
#     Edge 146, Type (0, 0), BuildingBlock: EZIPEK_clean_linker_0, # of connection points: 2
#     Edge 147, Type (0, 0), BuildingBlock: EZIPEK_clean_linker_0, # of connection points: 2
#     Edge 148, Type (0, 0), BuildingBlock: EZIPEK_clean_linker_0, # of connection points: 2
#     Edge 149, Type (0, 0), BuildingBlock: EZIPEK_clean_linker_0, # of connection points: 2
#     Edge 150, Type (0, 0), BuildingBlock: EZIPEK_clean_linker_0, # of connection points: 2
#     Edge 151, Type (0, 0), BuildingBlock: EZIPEK_clean_linker_0, # of connection points: 2
#     Edge 152, Type (0, 0), BuildingBlock: EZIPEK_clean_linker_0, # of connection points: 2
#     Edge 153, Type (0, 0), BuildingBlock: EZIPEK_clean_linker_0, # of connection points: 2
#     Edge 154, Type (0, 0), BuildingBlock: EZIPEK_clean_linker_0, # of connection points: 2
#     Edge 155, Type (0, 0), BuildingBlock: EZIPEK_clean_linker_0, # of connection points: 2
#     Edge 156, Type (0, 0), BuildingBlock: EZIPEK_clean_linker_0, # of connection points: 2
#     Edge 157, Type (0, 0), BuildingBlock: EZIPEK_clean_linker_0, # of connection points: 2
#     Edge 158, Type (0, 0), BuildingBlock: EZIPEK_clean_linker_0, # of connection points: 2
#     Edge 159, Type (0, 0), BuildingBlock: EZIPEK_clean_linker_0, # of connection points: 2
#     Edge 160, Type (0, 0), BuildingBlock: EZIPEK_clean_linker_0, # of connection points: 2
#     Edge 161, Type (0, 0), BuildingBlock: EZIPEK_clean_linker_0, # of connection points: 2
#     Edge 162, Type (0, 0), BuildingBlock: EZIPEK_clean_linker_0, # of connection points: 2
#     Edge 163, Type (0, 0), BuildingBlock: EZIPEK_clean_linker_0, # of connection points: 2
#     Edge 164, Type (0, 0), BuildingBlock: EZIPEK_clean_linker_0, # of connection points: 2
#     Edge 165, Type (0, 0), BuildingBlock: EZIPEK_clean_linker_0, # of connection points: 2
#     Edge 166, Type (0, 0), BuildingBlock: EZIPEK_clean_linker_0, # of connection points: 2
#     Edge 167, Type (0, 0), BuildingBlock: EZIPEK_clean_linker_0, # of connection points: 2
# Relax obj value: 0.343
# Max RMSD: 0.231
# Mean RMSD: 0.231
data_MOF--net-fcs--node1-XOMCOT_clean_sbu_1--edge1-EZIPEK_clean_linker_0
_symmetry_space_group_name_H-M    P1
_symmetry_Int_Tables_number       1
_symmetry_cell_setting            triclinic
loop_
_symmetry_equiv_pos_as_xyz
'x, y, z'
_cell_length_a     43.613489
_cell_length_b     43.648089
_cell_length_c     43.60354
_cell_angle_alpha  89.984992
_cell_angle_beta   90.031689
_cell_angle_gamma 89.948759
loop_
_atom_site_label
_atom_site_type_symbol
_atom_site_fract_x
_atom_site_fract_y
_atom_site_fract_z
_atom_type_partial_charge
C0 C 0.08022 0.13609 0.26661 0.0
C1 C 0.10322 0.12231 0.24989 0.0
N2 N 0.0935 0.09431 0.24135 0.0
N3 N 0.05631 0.11666 0.26917 0.0
C4 C 0.06534 0.09131 0.25363 0.0
H5 H 0.0802 0.15954 0.27454 0.0
Co6 Co 0.01675 0.12685 0.2832 0.0
C7 C 0.98282 0.0674 0.26464 0.0
O8 O 0.9579 0.08061 0.25424 0.0
N9 N 0.97644 0.13783 0.29716 0.0
C10 C 0.92689 0.15154 0.29817 0.0
C11 C 0.95041 0.14038 0.28029 0.0
C12 C 0.96797 0.14862 0.3251 0.0
N13 N 0.93814 0.1568 0.32629 0.0
O14 O 0.02967 0.11763 0.32502 0.0
H15 H 0.94869 0.13593 0.25599 0.0
H16 H 0.98339 0.15186 0.34405 0.0
O17 O 0.00445 0.08356 0.27621 0.0
C18 C 0.04242 0.14152 0.33636 0.0
O19 O 0.0426 0.16672 0.31989 0.0
N20 N 0.00726 0.13962 0.2433 0.0
C21 C 0.02304 0.17065 0.18999 0.0
C22 C 0.02143 0.13855 0.19017 0.0
C23 C 0.013 0.12334 0.21718 0.0
C24 C 0.00571 0.1708 0.24245 0.0
C25 C 0.01302 0.1868 0.21582 0.0
H26 H 0.01514 0.09881 0.21797 0.0
H27 H 1.00226 0.18349 0.26348 0.0
H28 H 0.05085 0.07176 0.24908 0.0
H29 H 0.1244 0.1329 0.24249 0.0
H30 H 0.90365 0.15636 0.2909 0.0
H31 H 0.02913 0.12542 0.17056 0.0
H32 H 0.01401 0.2116 0.21641 0.0
C33 C 0.39965 0.67597 1.00113 0.0
C34 C 0.38955 0.65029 0.0164 0.0
N35 N 0.35954 0.65399 0.02234 0.0
N36 N 0.37606 0.69564 0.99705 0.0
C37 C 0.35178 0.68132 0.01009 0.0
H38 H 0.42316 0.68074 0.99501 0.0
Co39 Co 0.38151 0.73618 0.98292 0.0
C40 C 0.31759 0.75818 0.00543 0.0
O41 O 0.32808 0.77057 0.03077 0.0
N42 N 0.38802 0.7767 0.96832 0.0
C43 C 0.38669 0.82743 0.96158 0.0
C44 C 0.37636 0.80329 0.97919 0.0
C45 C 0.406 0.78552 0.94453 0.0
N46 N 0.40531 0.81609 0.93983 0.0
O47 O 0.37446 0.72214 0.94134 0.0
H48 H 0.3614 0.80526 0.99873 0.0
H49 H 0.41932 0.76999 0.93063 0.0
O50 O 0.3365 0.74519 0.98696 0.0
C51 C 0.39886 0.71109 0.92944 0.0
O52 O 0.42444 0.71199 0.94529 0.0
N53 N 0.39246 0.74789 0.02343 0.0
C54 C 0.42797 0.73467 0.07492 0.0
C55 C 0.39647 0.72877 0.07497 0.0
C56 C 0.37905 0.73554 0.04899 0.0
C57 C 0.42217 0.75777 0.02491 0.0
C58 C 0.44028 0.75182 0.05074 0.0
H59 H 0.35602 0.72675 0.0483 0.0
H60 H 0.43335 0.76648 0.0046 0.0
H61 H 0.32953 0.69169 0.01323 0.0
H62 H 0.40342 0.63119 0.02408 0.0
H63 H 0.38063 0.85134 0.96416 0.0
H64 H 0.38603 0.71627 0.0937 0.0
H65 H 0.46453 0.75719 0.05021 0.0
C66 C 0.92562 0.36065 0.26127 0.0
C67 C 0.89997 0.37289 0.24764 0.0
N68 N 0.9026 0.40354 0.24813 0.0
N69 N 0.94453 0.38347 0.27019 0.0
C70 C 0.92941 0.40946 0.26251 0.0
H71 H 0.93093 0.33652 0.26303 0.0
Co72 Co 0.98511 0.37648 0.28286 0.0
C73 C 0.01655 0.43609 0.26166 0.0
O74 O 0.03902 0.42137 0.24825 0.0
N75 N 0.02639 0.36772 0.29548 0.0
C76 C 0.0758 0.35352 0.29417 0.0
C77 C 0.05142 0.36429 0.2773 0.0
C78 C 0.03637 0.3579 0.3233 0.0
N79 N 0.06614 0.34936 0.32303 0.0
O80 O 0.97301 0.38532 0.32488 0.0
H81 H 0.05178 0.36729 0.25273 0.0
H82 H 0.02191 0.35514 0.3431 0.0
O83 O 0.99515 0.42109 0.27531 0.0
C84 C 0.96128 0.3609 0.33621 0.0
O85 O 0.9615 0.33592 0.3194 0.0
N86 N 0.99387 0.3635 0.24293 0.0
C87 C 0.97867 0.33195 0.18963 0.0
C88 C 0.98468 0.3636 0.18867 0.0
C89 C 0.99126 0.37925 0.216 0.0
C90 C 0.99261 0.33232 0.24317 0.0
C91 C 0.98435 0.31613 0.21698 0.0
H92 H 0.99121 0.40384 0.21573 0.0
H93 H 0.99397 0.32025 0.2648 0.0
H94 H 0.9382 0.43226 0.26625 0.0
H95 H 0.88159 0.3603 0.2367 0.0
H96 H 0.09836 0.34765 0.28565 0.0
H97 H 0.9807 0.37653 0.16784 0.0
H98 H 0.98003 0.29175 0.21874 0.0
C99 C 0.61519 0.83022 1.00163 0.0
C100 C 0.6298 0.85568 0.01327 0.0
N101 N 0.66014 0.85133 0.01032 0.0
N102 N 0.63635 0.80989 0.99169 0.0
C103 C 0.66354 0.82385 0.99668 0.0
H104 H 0.59076 0.82607 1.00199 0.0
Co105 Co 0.62832 0.76937 0.97986 0.0
C106 C 0.68834 0.73916 1.00335 0.0
O107 O 0.6747 0.71759 0.01916 0.0
N108 N 0.61924 0.72823 0.96796 0.0
C109 C 0.60741 0.67832 0.96924 0.0
C110 C 0.61782 0.70295 0.98599 0.0
C111 C 0.60856 0.71825 0.94052 0.0
N112 N 0.60145 0.68817 0.94072 0.0
O113 O 0.638 0.78039 0.9379 0.0
H114 H 0.62211 0.70253 0.01035 0.0
H115 H 0.60457 0.73278 0.92098 0.0
O116 O 0.67241 0.75877 0.98822 0.0
C117 C 0.61384 0.79292 0.92684 0.0
O118 O 0.58916 0.79397 0.94406 0.0
N119 N 0.61441 0.7616 0.01967 0.0
C120 C 0.58135 0.77978 0.07103 0.0
C121 C 0.61303 0.77427 0.07319 0.0
C122 C 0.6294 0.76589 0.04682 0.0
C123 C 0.58321 0.76246 0.01855 0.0
C124 C 0.56622 0.77194 0.04383 0.0
H125 H 0.65393 0.76593 0.04777 0.0
H126 H 0.57169 0.75976 0.99675 0.0
H127 H 0.68559 0.81368 0.99179 0.0
H128 H 0.61914 0.87497 0.02466 0.0
H129 H 0.60335 0.65532 0.97758 0.0
H130 H 0.62537 0.77971 0.09405 0.0
H131 H 0.54177 0.7756 0.04131 0.0
C132 C 0.08825 0.86676 0.24982 0.0
C133 C 0.11287 0.8816 0.26287 0.0
N134 N 0.10676 0.91176 0.26287 0.0
N135 N 0.06671 0.88753 0.24172 0.0
C136 C 0.07893 0.91489 0.24974 0.0
H137 H 0.08542 0.84221 0.24812 0.0
Co138 Co 0.0265 0.87758 0.22982 0.0
C139 C 0.99105 0.93444 0.24905 0.0
O140 O 0.96759 0.91849 0.25897 0.0
N141 N 0.98529 0.86661 0.21775 0.0
C142 C 0.93859 0.84521 0.2186 0.0
C143 C 0.96188 0.85738 0.23605 0.0
C144 C 0.97473 0.86058 0.18904 0.0
N145 N 0.9469 0.84696 0.18905 0.0
O146 O 0.0372 0.88554 0.18774 0.0
H147 H 0.96208 0.85769 0.26082 0.0
H148 H 0.98766 0.86455 0.16834 0.0
O149 O 0.01412 0.92076 0.23704 0.0
C150 C 0.05014 0.86113 0.17774 0.0
O151 O 0.053 0.83768 0.19641 0.0
N152 N 0.01926 0.86553 0.26993 0.0
C153 C 0.02832 0.83498 0.32623 0.0
C154 C 0.02835 0.86746 0.32412 0.0
C155 C 0.0237 0.8822 0.29588 0.0
C156 C 0.02003 0.83449 0.2709 0.0
C157 C 0.02502 0.81901 0.29822 0.0
H158 H 0.02687 0.90664 0.29441 0.0
H159 H 0.01941 0.82166 0.24968 0.0
H160 H 0.06715 0.93661 0.24776 0.0
H161 H 0.13305 0.87107 0.27279 0.0
H162 H 0.91814 0.83399 0.22704 0.0
H163 H 0.03449 0.88207 0.34299 0.0
H164 H 0.02867 0.79469 0.29611 0.0
C165 C 0.10973 0.67433 0.01856 0.0
C166 C 0.12152 0.64873 1.00419 0.0
N167 N 0.14858 0.65641 0.99151 0.0
N168 N 0.12949 0.69792 0.01531 0.0
C169 C 0.1529 0.68599 0.99888 0.0
H170 H 0.08751 0.67579 0.02938 0.0
Co171 Co 0.12443 0.73928 0.02674 0.0
C172 C 0.18364 0.76395 0.99844 0.0
O173 O 0.16929 0.78287 0.97999 0.0
N174 N 0.11972 0.78145 0.03825 0.0
C175 C 0.10741 0.83126 0.03717 0.0
C176 C 0.11627 0.80632 0.01991 0.0
C177 C 0.11429 0.79261 0.0667 0.0
N178 N 0.106 0.8224 0.0666 0.0
O179 O 0.13408 0.7281 0.06883 0.0
H180 H 0.11748 0.80606 0.99517 0.0
H181 H 0.11477 0.77905 0.08727 0.0
O182 O 0.16846 0.74712 0.01715 0.0
C183 C 0.10907 0.71883 0.08135 0.0
O184 O 0.08367 0.72052 0.06521 0.0
N185 N 0.10916 0.74743 0.98709 0.0
C186 C 0.06879 0.73251 0.93993 0.0
C187 C 0.10049 0.72889 0.93591 0.0
C188 C 0.1205 0.73691 0.95983 0.0
C189 C 0.07859 0.75365 0.98993 0.0
C190 C 0.05811 0.74703 0.96638 0.0
H191 H 0.14432 0.73116 0.9576 0.0
H192 H 0.0694 0.76042 0.01194 0.0
H193 H 0.1725 0.69881 0.99128 0.0
H194 H 0.11042 0.62667 1.00187 0.0
H195 H 0.10005 0.85333 0.02853 0.0
H196 H 0.1094 0.71745 0.91576 0.0
H197 H 0.03372 0.74983 0.97029 0.0
C198 C 0.92936 0.63763 0.24044 0.0
C199 C 0.90418 0.6231 0.25265 0.0
N200 N 0.91235 0.59433 0.26014 0.0
N201 N 0.95334 0.61809 0.24008 0.0
C202 C 0.94209 0.59175 0.25214 0.0
H203 H 0.9305 0.66155 0.2342 0.0
Co204 Co 0.99401 0.62849 0.2302 0.0
C205 C 0.02514 0.5696 0.25101 0.0
O206 O 0.04146 0.58401 0.27178 0.0
N207 N 0.03561 0.63896 0.21971 0.0
C208 C 0.08414 0.65576 0.22139 0.0
C209 C 0.06005 0.64398 0.23826 0.0
C210 C 0.04624 0.64678 0.19152 0.0
N211 N 0.07518 0.65758 0.19198 0.0
O212 O 0.9846 0.62199 0.18752 0.0
H213 H 0.06 0.6412 0.26289 0.0
H214 H 0.03293 0.64583 0.17077 0.0
O215 O 0.00603 0.58526 0.23521 0.0
C216 C 0.97319 0.64659 0.17615 0.0
O217 O 0.97077 0.67081 0.19386 0.0
N218 N 1.00011 0.63951 0.27149 0.0
C219 C 0.98114 0.67041 0.32411 0.0
C220 C 0.98138 0.63826 0.32333 0.0
C221 C 0.99106 0.62309 0.29664 0.0
C222 C 1.0024 0.67065 0.27311 0.0
C223 C 0.99342 0.68653 0.29933 0.0
H224 H 0.98782 0.59863 0.29515 0.0
H225 H 0.00788 0.6836 0.25269 0.0
H226 H 0.95572 0.57163 0.25701 0.0
H227 H 0.88216 0.63345 0.2576 0.0
H228 H 0.10566 0.66431 0.23032 0.0
H229 H 0.97159 0.62519 0.34203 0.0
H230 H 0.99302 0.71134 0.29897 0.0
C231 C 0.90182 0.82556 0.01542 0.0
C232 C 0.89054 0.85119 1.00073 0.0
N233 N 0.86208 0.84479 0.99067 0.0
N234 N 0.88036 0.80328 0.01513 0.0
C235 C 0.85631 0.81603 1.00017 0.0
H236 H 0.92477 0.82298 0.02438 0.0
Co237 Co 0.88579 0.76254 0.02859 0.0
C238 C 0.82289 0.73993 0.00611 0.0
O239 O 0.83521 0.72344 0.98414 0.0
N240 N 0.89174 0.72179 0.04308 0.0
C241 C 0.88539 0.6752 0.06267 0.0
C242 C 0.87133 0.69913 0.04782 0.0
C243 C 0.91786 0.71093 0.05593 0.0
N244 N 0.91529 0.68196 0.06717 0.0
O245 O 0.87978 0.77613 0.0704 0.0
H246 H 0.8471 0.7004 0.0434 0.0
H247 H 0.9377 0.72528 0.05885 0.0
O248 O 0.8407 0.75491 0.0241 0.0
C249 C 0.90531 0.78484 0.08195 0.0
O250 O 0.93037 0.78196 0.06553 0.0
N251 N 0.89636 0.75111 0.98758 0.0
C252 C 0.93084 0.76613 0.93579 0.0
C253 C 0.89922 0.77164 0.93647 0.0
C254 C 0.88219 0.76311 0.96223 0.0
C255 C 0.9263 0.74197 0.98533 0.0
C256 C 0.94373 0.74844 0.95923 0.0
H257 H 0.85853 0.76997 0.96286 0.0
H258 H 0.93836 0.7335 0.00509 0.0
H259 H 0.83558 0.80394 0.99423 0.0
H260 H 0.90291 0.8722 0.99617 0.0
H261 H 0.87329 0.65565 0.07182 0.0
H262 H 0.88821 0.78467 0.91839 0.0
H263 H 0.96804 0.74325 0.95919 0.0
C264 C 0.27488 0.08628 0.12971 0.0
C265 C 0.25974 0.11037 0.11595 0.0
N266 N 0.23605 0.09897 0.09984 0.0
N267 N 0.2612 0.05964 0.12181 0.0
C268 C 0.23748 0.0684 0.1037 0.0
H269 H 0.29419 0.08847 0.14501 0.0
Co270 Co 0.271 0.01888 0.13286 0.0
C271 C 0.27117 0.98673 0.07117 0.0
O272 O 0.28863 0.96395 0.08023 0.0
N273 N 0.28067 0.97723 0.14394 0.0
C274 C 0.278 0.93006 0.16409 0.0
C275 C 0.26138 0.95458 0.1529 0.0
C276 C 0.30889 0.96505 0.14903 0.0
N277 N 0.30791 0.93693 0.16187 0.0
O278 O 0.31423 0.02755 0.12593 0.0
H279 H 0.23668 0.95613 0.15323 0.0
H280 H 0.33016 0.97675 0.14458 0.0
O281 O 0.26363 0.00789 0.08989 0.0
C282 C 0.32605 0.03673 0.15129 0.0
O283 O 0.30842 0.03746 0.17572 0.0
N284 N 0.22998 0.01323 0.14371 0.0
C285 C 0.17193 0.02606 0.16649 0.0
C286 C 0.17524 0.0118 0.13775 0.0
C287 C 0.20488 0.00541 0.12662 0.0
C288 C 0.22676 0.02437 0.17264 0.0
C289 C 0.19799 0.03115 0.18439 0.0
H290 H 0.20763 0.99653 0.10365 0.0
H291 H 0.24694 0.03037 0.18573 0.0
H292 H 0.22133 0.05277 0.09335 0.0
H293 H 0.26487 0.13449 0.11863 0.0
H294 H 0.26882 0.90987 0.1752 0.0
H295 H 0.15542 0.0075 0.12344 0.0
H296 H 0.19623 0.04206 0.20665 0.0
C297 C 0.34133 0.48298 0.11945 0.0
C298 C 0.36657 0.49742 0.13169 0.0
N299 N 0.35974 0.50615 0.16049 0.0
N300 N 0.31852 0.48264 0.14036 0.0
C301 C 0.33052 0.49708 0.16503 0.0
H302 H 0.33919 0.47515 0.09605 0.0
Co303 Co 0.27741 0.4729 0.13197 0.0
C304 C 0.24525 0.48913 0.1918 0.0
O305 O 0.22375 0.50403 0.17689 0.0
N306 N 0.23537 0.46343 0.12229 0.0
C307 C 0.18762 0.46785 0.10381 0.0
C308 C 0.21284 0.48345 0.11449 0.0
C309 C 0.22257 0.43564 0.11661 0.0
N310 N 0.19401 0.43782 0.10473 0.0
O311 O 0.2868 0.43004 0.13719 0.0
H312 H 0.2147 0.50811 0.11517 0.0
H313 H 0.23408 0.41404 0.12014 0.0
O314 O 0.26725 0.47711 0.17647 0.0
C315 C 0.29623 0.41985 0.1113 0.0
O316 O 0.29503 0.43809 0.08738 0.0
N317 N 0.27159 0.51384 0.12205 0.0
C318 C 0.28899 0.56793 0.09285 0.0
C319 C 0.28159 0.56783 0.12437 0.0
C320 C 0.27375 0.54009 0.13889 0.0
C321 C 0.27575 0.51433 0.09115 0.0
C322 C 0.28524 0.54069 0.07633 0.0
H323 H 0.2721 0.53938 0.16359 0.0
H324 H 0.27487 0.49315 0.07837 0.0
H325 H 0.3174 0.50369 0.18479 0.0
H326 H 0.38795 0.50214 0.12 0.0
H327 H 0.16681 0.4778 0.0946 0.0
H328 H 0.28404 0.5884 0.13803 0.0
H329 H 0.29126 0.53922 0.05227 0.0
C330 C 0.75151 0.42902 0.14414 0.0
C331 C 0.76343 0.40339 0.13021 0.0
N332 N 0.76086 0.40685 0.09963 0.0
N333 N 0.74173 0.44884 0.1225 0.0
C334 C 0.74705 0.43427 0.09557 0.0
H335 H 0.75146 0.43369 0.16847 0.0
Co336 Co 0.72981 0.48948 0.13122 0.0
C337 C 0.75279 0.51344 0.06848 0.0
O338 O 0.77932 0.52307 0.07893 0.0
N339 N 0.71717 0.52997 0.1403 0.0
C340 C 0.71162 0.58081 0.14098 0.0
C341 C 0.72859 0.55669 0.12956 0.0
C342 C 0.69373 0.53858 0.15877 0.0
N343 N 0.68974 0.56923 0.15929 0.0
O344 O 0.68778 0.47785 0.12414 0.0
H345 H 0.74784 0.5587 0.11417 0.0
H346 H 0.67935 0.52279 0.17126 0.0
O347 O 0.7339 0.50093 0.08716 0.0
C348 C 0.67727 0.46474 0.14813 0.0
O349 O 0.69508 0.46234 0.17231 0.0
N350 N 0.77108 0.49877 0.14232 0.0
C351 C 0.82136 0.48045 0.17751 0.0
C352 C 0.82009 0.47389 0.14608 0.0
C353 C 0.79517 0.48407 0.12869 0.0
C354 C 0.77403 0.50882 0.1719 0.0
C355 C 0.79953 0.50066 0.18967 0.0
H356 H 0.79311 0.47572 0.10564 0.0
H357 H 0.75495 0.51968 0.18335 0.0
H358 H 0.74298 0.4442 0.07334 0.0
H359 H 0.77404 0.38404 0.14158 0.0
H360 H 0.71453 0.60485 0.13564 0.0
H361 H 0.83674 0.45871 0.13562 0.0
H362 H 0.80009 0.50675 0.21375 0.0
C363 C 0.67497 0.00504 0.11074 0.0
C364 C 0.65016 0.99215 0.12539 0.0
N365 N 0.65426 0.99539 0.15578 0.0
N366 N 0.69478 0.01608 0.13185 0.0
C367 C 0.68096 0.01059 0.15908 0.0
H368 H 0.67949 0.00405 0.08638 0.0
Co369 Co 0.73579 0.02739 0.12404 0.0
C370 C 0.76606 1.00234 0.18152 0.0
O371 O 0.78623 0.98697 0.16541 0.0
N372 N 0.77778 0.03871 0.11591 0.0
C373 C 0.82671 0.03665 0.10039 0.0
C374 C 0.80171 0.01984 0.10956 0.0
C375 C 0.78955 0.0671 0.11103 0.0
N376 N 0.81883 0.06634 0.10092 0.0
O377 O 0.72553 0.06959 0.13208 0.0
H378 H 0.80093 0.99511 0.10973 0.0
H379 H 0.77673 0.08812 0.11352 0.0
O380 O 0.74603 0.01908 0.16796 0.0
C381 C 0.71324 0.07906 0.10704 0.0
O382 O 0.70953 0.05942 0.08453 0.0
N383 N 0.74303 0.98753 0.11045 0.0
C384 C 0.73552 0.93444 0.07416 0.0
C385 C 0.73388 0.9335 0.1067 0.0
C386 C 0.73772 0.96013 0.12431 0.0
C387 C 0.74437 0.98932 0.07941 0.0
C388 C 0.74004 0.96371 0.06112 0.0
H389 H 0.73384 0.95899 0.1486 0.0
H390 H 0.74606 0.01156 0.06859 0.0
H391 H 0.69104 0.01577 0.18111 0.0
H392 H 0.63187 0.97917 0.11477 0.0
H393 H 0.84834 0.02773 0.09209 0.0
H394 H 0.72704 0.91322 0.11902 0.0
H395 H 0.73779 0.96847 0.03706 0.0
C396 C 0.25598 0.92423 0.3678 0.0
C397 C 0.2425 0.90045 0.3837 0.0
N398 N 0.24662 0.90551 0.41386 0.0
N399 N 0.2683 0.94429 0.3879 0.0
C400 C 0.26294 0.93165 0.41574 0.0
H401 H 0.25454 0.92798 0.34332 0.0
Co402 Co 0.28136 0.98463 0.37919 0.0
C403 C 0.25667 0.01506 0.43734 0.0
O404 O 0.24032 0.03533 0.4223 0.0
N405 N 0.29443 0.02593 0.37061 0.0
C406 C 0.29384 0.07504 0.35573 0.0
C407 C 0.27641 0.05083 0.36589 0.0
C408 C 0.32303 0.0363 0.36397 0.0
N409 N 0.32308 0.06568 0.35416 0.0
O410 O 0.323 0.97282 0.38782 0.0
H411 H 0.25173 0.05122 0.36776 0.0
H412 H 0.34353 0.02254 0.3654 0.0
O413 O 0.27324 0.9957 0.42276 0.0
C414 C 0.33207 0.95965 0.36311 0.0
O415 O 0.3124 0.95631 0.34053 0.0
N416 N 0.24193 0.99334 0.36482 0.0
C417 C 0.18956 0.98728 0.32709 0.0
C418 C 0.1878 0.98515 0.35955 0.0
C419 C 0.21407 0.98841 0.37789 0.0
C420 C 0.24442 0.99541 0.33384 0.0
C421 C 0.21912 0.99212 0.31485 0.0
H422 H 0.21227 0.98424 0.40203 0.0
H423 H 0.26693 0.99692 0.32353 0.0
H424 H 0.26891 0.9423 0.43729 0.0
H425 H 0.22852 0.88237 0.37407 0.0
H426 H 0.2855 0.09723 0.34839 0.0
H427 H 0.16706 0.97838 0.37117 0.0
H428 H 0.22431 0.9909 0.29082 0.0
C429 C 0.17134 0.46104 0.88556 0.0
C430 C 0.14485 0.47338 0.87356 0.0
N431 N 0.15223 0.49976 0.85953 0.0
N432 N 0.19546 0.47913 0.87832 0.0
C433 C 0.1827 0.50278 0.86293 0.0
H434 H 0.17241 0.44037 0.89901 0.0
Co435 Co 0.23767 0.47436 0.88667 0.0
C436 C 0.26839 0.49239 0.82575 0.0
O437 O 0.29463 0.4985 0.83917 0.0
N438 N 0.28064 0.4693 0.89582 0.0
C439 C 0.32669 0.47573 0.91776 0.0
C440 C 0.30058 0.49023 0.90725 0.0
C441 C 0.29599 0.44239 0.89902 0.0
N442 N 0.32338 0.44551 0.91308 0.0
O443 O 0.23356 0.4306 0.87922 0.0
H444 H 0.29587 0.51432 0.9102 0.0
H445 H 0.28671 0.42028 0.89314 0.0
O446 O 0.24565 0.48307 0.84197 0.0
C447 C 0.22739 0.41758 0.90488 0.0
O448 O 0.22725 0.43469 0.92968 0.0
N449 N 0.23883 0.51573 0.89861 0.0
C450 C 0.21897 0.5714 0.92242 0.0
C451 C 0.23507 0.5705 0.89453 0.0
C452 C 0.24546 0.54217 0.88316 0.0
C453 C 0.2259 0.51688 0.927 0.0
C454 C 0.21572 0.54443 0.93931 0.0
H455 H 0.25729 0.54151 0.86157 0.0
H456 H 0.22123 0.4958 0.93914 0.0
H457 H 0.19529 0.52209 0.85427 0.0
H458 H 0.12193 0.46409 0.87544 0.0
H459 H 0.34513 0.48618 0.93067 0.0
H460 H 0.23844 0.59118 0.88123 0.0
H461 H 0.20371 0.54441 0.96106 0.0
C462 C 0.75497 0.57586 0.3534 0.0
C463 C 0.76736 0.60253 0.36471 0.0
N464 N 0.76737 0.60076 0.39548 0.0
N465 N 0.74735 0.55726 0.37694 0.0
C466 C 0.75479 0.57337 0.40239 0.0
H467 H 0.7526 0.57 0.32943 0.0
Co468 Co 0.73376 0.51681 0.37209 0.0
C469 C 0.75316 0.48865 0.43487 0.0
O470 O 0.76276 0.46236 0.42399 0.0
N471 N 0.72004 0.47585 0.36565 0.0
C472 C 0.71892 0.42552 0.3557 0.0
C473 C 0.73687 0.44973 0.36512 0.0
C474 C 0.69218 0.46682 0.35521 0.0
N475 N 0.69089 0.43649 0.34934 0.0
O476 O 0.69259 0.53006 0.38249 0.0
H477 H 0.7612 0.44837 0.3695 0.0
H478 H 0.67347 0.48216 0.35033 0.0
O479 O 0.74253 0.5092 0.41667 0.0
C480 C 0.67993 0.54229 0.35902 0.0
O481 O 0.69496 0.54217 0.33293 0.0
N482 N 0.77307 0.50644 0.35819 0.0
C483 C 0.82699 0.52051 0.32745 0.0
C484 C 0.8276 0.51331 0.35887 0.0
C485 C 0.80005 0.50667 0.37403 0.0
C486 C 0.77306 0.50842 0.327 0.0
C487 C 0.79976 0.51587 0.31113 0.0
H488 H 0.80035 0.5043 0.39845 0.0
H489 H 0.75144 0.50832 0.31481 0.0
H490 H 0.75193 0.56508 0.42556 0.0
H491 H 0.7767 0.62129 0.35143 0.0
H492 H 0.72616 0.40201 0.35251 0.0
H493 H 0.84847 0.51607 0.37205 0.0
H494 H 0.79849 0.52079 0.2868 0.0
C495 C 0.83717 0.00499 0.89471 0.0
C496 C 0.86317 0.99296 0.8815 0.0
N497 N 0.8592 0.99283 0.85093 0.0
N498 N 0.81672 0.01218 0.87258 0.0
C499 C 0.83132 0.00536 0.84603 0.0
H500 H 0.83265 0.00638 0.91904 0.0
Co501 Co 0.77527 0.02125 0.88022 0.0
C502 C 0.74384 0.0042 0.8202 0.0
O503 O 0.72018 0.99277 0.83478 0.0
N504 N 0.73299 0.03042 0.88896 0.0
C505 C 0.6854 0.02676 0.90796 0.0
C506 C 0.71046 0.01072 0.89736 0.0
C507 C 0.72032 0.05837 0.89409 0.0
N508 N 0.69187 0.05675 0.90622 0.0
O509 O 0.78432 0.06435 0.87484 0.0
H510 H 0.71244 0.98605 0.89769 0.0
H511 H 0.73218 0.07978 0.89076 0.0
O512 O 0.76613 0.01585 0.83547 0.0
C513 C 0.79403 0.07472 0.90061 0.0
O514 O 0.79461 0.05615 0.9243 0.0
N515 N 0.7696 0.97988 0.89053 0.0
C516 C 0.78946 0.92548 0.91716 0.0
C517 C 0.78161 0.92636 0.88595 0.0
C518 C 0.77167 0.95409 0.87293 0.0
C519 C 0.77336 0.97811 0.9215 0.0
C520 C 0.7836 0.95123 0.93526 0.0
H521 H 0.76783 0.95501 0.84873 0.0
H522 H 0.77187 0.99874 0.93515 0.0
H523 H 0.82143 0.00815 0.82353 0.0
H524 H 0.88268 0.98328 0.89344 0.0
H525 H 0.66518 0.01714 0.91864 0.0
H526 H 0.78542 0.90659 0.87143 0.0
H527 H 0.78931 0.95134 0.95944 0.0
C528 C 0.07549 0.29089 0.07146 0.0
C529 C 0.06101 0.27697 0.09562 0.0
N530 N 0.07764 0.25239 0.10373 0.0
N531 N 0.10111 0.27504 0.06406 0.0
C532 C 0.10221 0.25209 0.08493 0.0
H533 H 0.06655 0.31008 0.05859 0.0
Co534 Co 0.12204 0.28144 0.02677 0.0
C535 C 0.06737 0.26289 0.98626 0.0
O536 O 0.08206 0.24033 0.97296 0.0
N537 N 0.14212 0.28857 0.98833 0.0
C538 C 0.16102 0.28344 0.94085 0.0
C539 C 0.14501 0.26929 0.96413 0.0
C540 C 0.15725 0.31409 0.97913 0.0
N541 N 0.16837 0.31173 0.95033 0.0
O542 O 0.11786 0.32523 0.03315 0.0
H543 H 0.13705 0.24591 0.96354 0.0
H544 H 0.16098 0.33389 0.99336 0.0
O545 O 0.08161 0.27876 0.00645 0.0
C546 C 0.1394 0.33254 0.05175 0.0
O547 O 0.15867 0.31101 0.06035 0.0
N548 N 0.13062 0.23926 0.02405 0.0
C549 C 0.15547 0.18293 0.04102 0.0
C550 C 0.12389 0.18565 0.03504 0.0
C551 C 0.11171 0.2144 0.02688 0.0
C552 C 0.16149 0.23611 0.02783 0.0
C553 C 0.17437 0.2082 0.03608 0.0
H554 H 0.08711 0.21723 0.02627 0.0
H555 H 0.17608 0.25611 0.02685 0.0
H556 H 0.11934 0.23422 0.08504 0.0
H557 H 0.03883 0.28303 0.10495 0.0
H558 H 0.16728 0.2736 0.91894 0.0
H559 H 0.10865 0.16652 0.03913 0.0
H560 H 0.19878 0.20689 0.04059 0.0
C561 C 0.14661 0.75654 0.43089 0.0
C562 C 0.13294 0.76989 0.40566 0.0
N563 N 0.10264 0.77131 0.41099 0.0
N564 N 0.12494 0.74958 0.4519 0.0
C565 C 0.09831 0.75884 0.43889 0.0
H566 H 0.17098 0.75358 0.4344 0.0
Co567 Co 0.13323 0.73619 0.49209 0.0
C568 C 0.07015 0.75898 0.51672 0.0
O569 O 0.08057 0.7846 0.52852 0.0
N570 N 0.14212 0.72232 0.53243 0.0
C571 C 0.14286 0.71621 0.58327 0.0
C572 C 0.13206 0.73392 0.55936 0.0
C573 C 0.15959 0.69797 0.54074 0.0
N574 N 0.16011 0.69362 0.5714 0.0
O575 O 0.12528 0.69451 0.47934 0.0
H576 H 0.1176 0.75383 0.56167 0.0
H577 H 0.17143 0.68325 0.52474 0.0
O578 O 0.08907 0.74078 0.50351 0.0
C579 C 0.14897 0.68293 0.46658 0.0
O580 O 0.174 0.69953 0.46478 0.0
N581 N 0.14484 0.77668 0.50231 0.0
C582 C 0.17767 0.83223 0.49453 0.0
C583 C 0.14606 0.82978 0.48763 0.0
C584 C 0.13028 0.80221 0.49164 0.0
C585 C 0.17504 0.77834 0.51 0.0
C586 C 0.19177 0.80536 0.506 0.0
H587 H 0.10729 0.80074 0.48268 0.0
H588 H 0.18735 0.75764 0.51589 0.0
H589 H 0.07641 0.75885 0.45033 0.0
H590 H 0.14439 0.77914 0.38568 0.0
H591 H 0.13786 0.71919 0.6074 0.0
H592 H 0.13356 0.84773 0.47618 0.0
H593 H 0.21615 0.80344 0.50932 0.0
C594 C 0.98809 0.61369 0.84008 0.0
C595 C 0.99488 0.62838 0.86704 0.0
N596 N 0.99346 0.65914 0.86282 0.0
N597 N 0.98337 0.63471 0.81816 0.0
C598 C 0.98688 0.66196 0.83247 0.0
H599 H 0.98853 0.58923 0.83619 0.0
Co600 Co 0.97813 0.62611 0.77638 0.0
C601 C 0.00773 0.68356 0.75096 0.0
O602 O 0.02886 0.668 0.7363 0.0
N603 N 0.97237 0.61721 0.73362 0.0
C604 C 0.97994 0.60217 0.68508 0.0
C605 C 0.99375 0.61277 0.71148 0.0
C606 C 0.94564 0.61004 0.71941 0.0
N607 N 0.94968 0.60034 0.69032 0.0
O608 O 0.93519 0.6348 0.78111 0.0
H609 H 0.0182 0.61509 0.71461 0.0
H610 H 0.92347 0.61103 0.73016 0.0
O611 O 0.98699 0.6696 0.76631 0.0
C612 C 0.92313 0.61054 0.79239 0.0
O613 O 0.94037 0.58601 0.79541 0.0
N614 N 0.01923 0.61301 0.77496 0.0
C615 C 0.06972 0.5803 0.79627 0.0
C616 C 0.06865 0.61216 0.79934 0.0
C617 C 0.04303 0.62813 0.78858 0.0
C618 C 0.02097 0.58212 0.7703 0.0
C619 C 0.04627 0.56535 0.78039 0.0
H620 H 0.04084 0.65177 0.79454 0.0
H621 H 1.0013 0.5699 0.76146 0.0
H622 H 0.98645 0.68308 0.81998 0.0
H623 H 1.00254 0.61681 0.88759 0.0
H624 H 0.99132 0.59477 0.66431 0.0
H625 H 0.08619 0.62418 0.81217 0.0
H626 H 0.04627 0.54062 0.77819 0.0
C627 C 0.87107 0.77789 0.41758 0.0
C628 C 0.88524 0.76503 0.39246 0.0
N629 N 0.91017 0.74957 0.40217 0.0
N630 N 0.88731 0.77127 0.44313 0.0
C631 C 0.91131 0.75453 0.43263 0.0
H632 H 0.84961 0.79021 0.41705 0.0
Co633 Co 0.87769 0.78085 0.4845 0.0
C634 C 0.93578 0.75467 0.51388 0.0
O635 O 0.92027 0.73617 0.53179 0.0
N636 N 0.86858 0.79092 0.5266 0.0
C637 C 0.85224 0.7886 0.57529 0.0
C638 C 0.86293 0.77195 0.55059 0.0
C639 C 0.86251 0.81911 0.53823 0.0
N640 N 0.85182 0.81827 0.56724 0.0
O641 O 0.88548 0.82369 0.47543 0.0
H642 H 0.86439 0.74726 0.54985 0.0
H643 H 0.86469 0.84018 0.52558 0.0
O644 O 0.92158 0.77299 0.49572 0.0
C645 C 0.85979 0.83433 0.46558 0.0
O646 O 0.83595 0.81591 0.46566 0.0
N647 N 0.86394 0.74001 0.49022 0.0
C648 C 0.82993 0.6893 0.47095 0.0
C649 C 0.86202 0.68929 0.46915 0.0
C650 C 0.87859 0.71441 0.47998 0.0
C651 C 0.8329 0.73927 0.49457 0.0
C652 C 0.81562 0.71354 0.48645 0.0
H653 H 0.90267 0.71444 0.47654 0.0
H654 H 0.82095 0.7598 0.50167 0.0
H655 H 0.92898 0.74497 0.44707 0.0
H656 H 0.87678 0.76532 0.36911 0.0
H657 H 0.84338 0.77946 0.59659 0.0
H658 H 0.87416 0.67095 0.45762 0.0
H659 H 0.7909 0.71419 0.48884 0.0
C660 C 0.50457 0.39561 0.33317 0.0
C661 C 0.4923 0.38122 0.35845 0.0
N662 N 0.49428 0.35087 0.35391 0.0
N663 N 0.51394 0.37435 0.31269 0.0
C664 C 0.50801 0.34722 0.32644 0.0
H665 H 0.50515 0.42007 0.32929 0.0
Co666 Co 0.52662 0.38307 0.27245 0.0
C667 C 0.50405 0.32489 0.23903 0.0
O668 O 0.49116 0.33983 0.21636 0.0
N669 N 0.53939 0.39323 0.23177 0.0
C670 C 0.53904 0.40847 0.1827 0.0
C671 C 0.52165 0.39729 0.20652 0.0
C672 C 0.56739 0.40313 0.22261 0.0
N673 N 0.56774 0.41221 0.19303 0.0
O674 O 0.5681 0.37198 0.28377 0.0
H675 H 0.49709 0.39433 0.20568 0.0
H676 H 0.58692 0.40543 0.23753 0.0
O677 O 0.51765 0.33957 0.26061 0.0
C678 C 0.58 0.39484 0.29772 0.0
O679 O 0.56378 0.4201 0.30013 0.0
N680 N 0.48719 0.39771 0.26426 0.0
C681 C 0.43438 0.42931 0.28013 0.0
C682 C 0.43293 0.39804 0.27282 0.0
C683 C 0.45996 0.38239 0.26551 0.0
C684 C 0.48793 0.42882 0.26675 0.0
C685 C 0.46178 0.44512 0.27503 0.0
H686 H 0.45911 0.35797 0.26374 0.0
H687 H 0.50975 0.44056 0.26615 0.0
H688 H 0.51247 0.32514 0.31618 0.0
H689 H 0.48129 0.3921 0.37785 0.0
H690 H 0.53103 0.41469 0.16003 0.0
H691 H 0.4119 0.38528 0.2762 0.0
H692 H 0.46365 0.46933 0.28016 0.0
C693 C 0.36209 0.74579 0.58114 0.0
C694 C 0.37503 0.75825 0.6071 0.0
N695 N 0.40552 0.76034 0.60277 0.0
N696 N 0.38421 0.74027 0.56027 0.0
C697 C 0.4106 0.74884 0.57442 0.0
H698 H 0.33786 0.74263 0.57701 0.0
Co699 Co 0.37632 0.7305 0.51884 0.0
C700 C 0.43529 0.75479 0.4901 0.0
O701 O 0.42043 0.77216 0.47056 0.0
N702 N 0.36823 0.7206 0.47666 0.0
C703 C 0.35293 0.7238 0.4277 0.0
C704 C 0.36309 0.73996 0.45284 0.0
C705 C 0.36205 0.69263 0.46463 0.0
N706 N 0.35191 0.69408 0.43543 0.0
O707 O 0.38344 0.68777 0.52847 0.0
H708 H 0.36469 0.76463 0.45387 0.0
H709 H 0.36409 0.67141 0.47703 0.0
O710 O 0.42052 0.73774 0.509 0.0
C711 C 0.35784 0.67701 0.53824 0.0
O712 O 0.3336 0.69489 0.53759 0.0
N713 N 0.36408 0.77125 0.51265 0.0
C714 C 0.33334 0.82341 0.53265 0.0
C715 C 0.3654 0.82189 0.5338 0.0
C716 C 0.38035 0.79556 0.52332 0.0
C717 C 0.3331 0.77361 0.50867 0.0
C718 C 0.31732 0.79992 0.51776 0.0
H719 H 0.4042 0.79285 0.52793 0.0
H720 H 0.32009 0.75374 0.50158 0.0
H721 H 0.43291 0.74866 0.5636 0.0
H722 H 0.36286 0.76635 0.62717 0.0
H723 H 0.34503 0.73327 0.40615 0.0
H724 H 0.3785 0.83963 0.54521 0.0
H725 H 0.29252 0.80037 0.51642 0.0
C726 C 0.99366 0.39675 0.68142 0.0
C727 C 0.00705 0.38416 0.65587 0.0
N728 N 0.00908 0.35367 0.65999 0.0
N729 N 0.9874 0.37439 0.70183 0.0
C730 C 0.9966 0.34821 0.68785 0.0
H731 H 0.99057 0.42095 0.6857 0.0
Co732 Co 0.97666 0.38262 0.74261 0.0
C733 C 0.99317 0.32353 0.77454 0.0
O734 O 0.01068 0.33824 0.79405 0.0
N735 N 0.96582 0.39172 0.7844 0.0
C736 C 0.96743 0.41058 0.83215 0.0
C737 C 0.98452 0.39931 0.80807 0.0
C738 C 0.93738 0.39755 0.79554 0.0
N739 N 0.93777 0.40979 0.82397 0.0
O740 O 0.93425 0.37684 0.73201 0.0
H741 H 0.00929 0.39891 0.80739 0.0
H742 H 0.91653 0.39454 0.78267 0.0
O743 O 0.98091 0.33899 0.75286 0.0
C744 C 0.92375 0.40223 0.72169 0.0
O745 O 0.9416 0.42645 0.72215 0.0
N746 N 0.01751 0.39265 0.74965 0.0
C747 C 0.07052 0.42127 0.72865 0.0
C748 C 0.07039 0.38956 0.73472 0.0
C749 C 0.04309 0.37539 0.74431 0.0
C750 C 0.01862 0.42375 0.74761 0.0
C751 C 0.04456 0.43843 0.73653 0.0
H752 H 0.04178 0.35071 0.74426 0.0
H753 H 0.99784 0.43694 0.75068 0.0
H754 H 0.99608 0.32583 0.69851 0.0
H755 H 0.01588 0.39655 0.63626 0.0
H756 H 0.97625 0.42112 0.85282 0.0
H757 H 0.09014 0.37559 0.7291 0.0
H758 H 0.0436 0.46287 0.73224 0.0
C759 C 1.00042 0.11397 0.68735 0.0
C760 C 0.98821 0.12843 0.66199 0.0
N761 N 0.99223 0.15875 0.66553 0.0
N762 N 0.01186 0.13515 0.70689 0.0
C763 C 0.00706 0.16221 0.69243 0.0
H764 H 0.99891 0.08977 0.69232 0.0
Co765 Co 0.02405 0.12816 0.74821 0.0
C766 C 0.9979 0.18965 0.77003 0.0
O767 O 0.97546 0.17677 0.78537 0.0
N768 N 0.03677 0.12113 0.78947 0.0
C769 C 0.04786 0.1238 0.83923 0.0
C770 C 0.0335 0.1381 0.81505 0.0
C771 C 0.05317 0.0966 0.79908 0.0
N772 N 0.0594 0.09667 0.8297 0.0
O773 O 0.0668 0.13476 0.73673 0.0
H774 H 0.02227 0.15997 0.81647 0.0
H775 H 0.06093 0.07936 0.78333 0.0
O776 O 0.018 0.17298 0.75647 0.0
C777 C 0.07519 0.11014 0.72313 0.0
O778 O 0.05412 0.08898 0.71922 0.0
N779 N 0.98289 0.11623 0.75781 0.0
C780 C 0.93228 0.07995 0.74252 0.0
C781 C 0.9328 0.11121 0.73525 0.0
C782 C 0.95813 0.12907 0.74355 0.0
C783 C 0.98064 0.08689 0.76872 0.0
C784 C 0.95512 0.0686 0.76204 0.0
H785 H 0.95964 0.15179 0.73442 0.0
H786 H 1.0001 0.07584 0.77915 0.0
H787 H 0.01237 0.18436 0.70215 0.0
H788 H 0.97554 0.11778 0.6435 0.0
H789 H 0.05068 0.13409 0.86152 0.0
H790 H 0.91512 0.12107 0.72085 0.0
H791 H 0.95517 0.04469 0.76874 0.0
C792 C 0.58159 0.64763 0.75807 0.0
C793 C 0.60849 0.63625 0.74631 0.0
N794 N 0.60727 0.60554 0.74773 0.0
N795 N 0.56336 0.62417 0.76673 0.0
C796 C 0.58007 0.59872 0.76083 0.0
H797 H 0.57517 0.67153 0.75904 0.0
Co798 Co 0.52268 0.62964 0.7794 0.0
C799 C 0.49314 0.56975 0.75654 0.0
O800 O 0.46993 0.58397 0.74384 0.0
N801 N 0.48139 0.63705 0.79244 0.0
C802 C 0.43176 0.65045 0.79256 0.0
C803 C 0.45579 0.63991 0.77499 0.0
C804 C 0.47217 0.64705 0.82043 0.0
N805 N 0.44228 0.65502 0.82108 0.0
O806 O 0.53501 0.61945 0.82083 0.0
H807 H 0.45484 0.63701 0.75042 0.0
H808 H 0.48729 0.65062 0.8396 0.0
O809 O 0.51402 0.58514 0.77051 0.0
C810 C 0.54752 0.64309 0.8328 0.0
O811 O 0.54773 0.66871 0.817 0.0
N812 N 0.51336 0.64338 0.73974 0.0
C813 C 0.5277 0.67543 0.68658 0.0
C814 C 0.52304 0.64361 0.68559 0.0
C815 C 0.51678 0.6278 0.71281 0.0
C816 C 0.51316 0.67461 0.73994 0.0
C817 C 0.52077 0.69114 0.71368 0.0
H818 H 0.51789 0.60327 0.71244 0.0
H819 H 0.51113 0.68662 0.76155 0.0
H820 H 0.57229 0.57564 0.76515 0.0
H821 H 0.62684 0.64936 0.73596 0.0
H822 H 0.4089 0.65606 0.78466 0.0
H823 H 0.52796 0.63082 0.66488 0.0
H824 H 0.52389 0.71571 0.71529 0.0
C825 C 0.89575 0.17598 0.51491 0.0
C826 C 0.88057 0.1519 0.52872 0.0
N827 N 0.85025 0.1566 0.52538 0.0
N828 N 0.87498 0.19575 0.5032 0.0
C829 C 0.84752 0.18272 0.50917 0.0
H830 H 0.9202 0.18006 0.51552 0.0
Co831 Co 0.88287 0.23576 0.48932 0.0
C832 C 0.82211 0.26222 0.51656 0.0
O833 O 0.835 0.27908 0.53785 0.0
N834 N 0.89126 0.27611 0.47497 0.0
C835 C 0.8962 0.32694 0.47107 0.0
C836 C 0.88577 0.30317 0.48908 0.0
C837 C 0.90577 0.28421 0.44867 0.0
N838 N 0.90876 0.31487 0.4457 0.0
O839 O 0.87241 0.22295 0.44823 0.0
H840 H 0.87566 0.30574 0.51143 0.0
H841 H 0.91445 0.26811 0.43203 0.0
O842 O 0.83866 0.24667 0.49777 0.0
C843 C 0.89581 0.20936 0.43691 0.0
O844 O 0.92082 0.20752 0.45362 0.0
N845 N 0.89738 0.24592 0.52887 0.0
C846 C 0.93154 0.23875 0.58376 0.0
C847 C 0.89957 0.23355 0.58247 0.0
C848 C 0.88323 0.23729 0.55523 0.0
C849 C 0.92802 0.25184 0.5292 0.0
C850 C 0.94544 0.24803 0.55592 0.0
H851 H 0.8601 0.22952 0.55467 0.0
H852 H 0.93976 0.25631 0.50782 0.0
H853 H 0.82566 0.19298 0.50361 0.0
H854 H 0.89082 0.13372 0.54215 0.0
H855 H 0.89471 0.35118 0.47613 0.0
H856 H 0.88703 0.22353 0.60125 0.0
H857 H 0.96985 0.2499 0.55309 0.0
C858 C 0.42576 0.8678 0.7555 0.0
C859 C 0.40182 0.88374 0.74246 0.0
N860 N 0.40707 0.91394 0.74602 0.0
N861 N 0.44631 0.88785 0.76697 0.0
C862 C 0.43372 0.91583 0.76175 0.0
H863 H 0.42907 0.84326 0.7548 0.0
Co864 Co 0.4864 0.8774 0.77963 0.0
C865 C 0.51352 0.93772 0.75447 0.0
O866 O 0.52287 0.92538 0.72868 0.0
N867 N 0.52673 0.86727 0.79281 0.0
C868 C 0.57774 0.86444 0.79655 0.0
C869 C 0.55353 0.87587 0.77978 0.0
C870 C 0.53543 0.85004 0.81721 0.0
N871 N 0.56623 0.84824 0.82004 0.0
O872 O 0.47457 0.88583 0.82158 0.0
H873 H 0.55561 0.88951 0.7593 0.0
H874 H 0.51966 0.83915 0.83286 0.0
O875 O 0.4993 0.92076 0.77378 0.0
C876 C 0.46116 0.86182 0.83176 0.0
O877 O 0.45894 0.83793 0.81356 0.0
N878 N 0.49559 0.8644 0.73887 0.0
C879 C 0.47972 0.8281 0.68855 0.0
C880 C 0.47329 0.85957 0.68871 0.0
C881 C 0.48206 0.87746 0.71379 0.0
C882 C 0.50515 0.83455 0.73735 0.0
C883 C 0.49826 0.81624 0.71194 0.0
H884 H 0.47382 0.90063 0.71479 0.0
H885 H 0.51479 0.82346 0.75729 0.0
H886 H 0.4446 0.93729 0.76765 0.0
H887 H 0.38251 0.87397 0.7303 0.0
H888 H 0.60189 0.8682 0.79226 0.0
H889 H 0.45932 0.86976 0.67085 0.0
H890 H 0.50415 0.79212 0.71231 0.0
C891 C 0.11298 0.33113 0.50271 0.0
C892 C 0.12661 0.35686 0.51479 0.0
N893 N 0.15716 0.35254 0.51479 0.0
N894 N 0.13477 0.3105 0.4952 0.0
C895 C 0.16162 0.32445 0.50249 0.0
H896 H 0.08861 0.32709 0.50081 0.0
Co897 Co 0.12602 0.26984 0.48312 0.0
C898 C 0.18511 0.24236 0.51077 0.0
O899 O 0.17119 0.2271 0.5326 0.0
N900 N 0.11657 0.22896 0.47044 0.0
C901 C 0.11001 0.17814 0.46872 0.0
C902 C 0.12119 0.20231 0.48566 0.0
C903 C 0.10161 0.22016 0.44458 0.0
N904 N 0.09768 0.1895 0.44293 0.0
O905 O 0.13603 0.28091 0.44142 0.0
H906 H 0.13086 0.20026 0.50824 0.0
H907 H 0.09312 0.23578 0.42739 0.0
O908 O 0.16966 0.25829 0.49138 0.0
C909 C 0.11246 0.29419 0.43005 0.0
O910 O 0.08748 0.29596 0.44676 0.0
N911 N 0.11215 0.26162 0.52328 0.0
C912 C 0.07736 0.28052 0.57348 0.0
C913 C 0.10927 0.2842 0.57338 0.0
C914 C 0.1263 0.27402 0.54825 0.0
C915 C 0.08162 0.25485 0.52448 0.0
C916 C 0.06388 0.26352 0.54972 0.0
H917 H 0.14992 0.28036 0.54688 0.0
H918 H 0.07007 0.24621 0.50432 0.0
H919 H 0.18391 0.31376 0.50045 0.0
H920 H 0.11498 0.37678 0.52394 0.0
H921 H 0.11058 0.15413 0.47493 0.0
H922 H 0.1206 0.29712 0.59131 0.0
H923 H 0.03931 0.26009 0.54894 0.0
C924 C 0.59313 0.38146 0.71147 0.0
C925 C 0.61815 0.39757 0.72193 0.0
N926 N 0.60802 0.42007 0.74045 0.0
N927 N 0.56728 0.39433 0.72254 0.0
C928 C 0.57722 0.41782 0.74019 0.0
H929 H 0.59399 0.3609 0.69772 0.0
Co930 Co 0.52721 0.3799 0.7179 0.0
C931 C 0.49225 0.43663 0.7417 0.0
O932 O 0.47656 0.42159 0.76244 0.0
N933 N 0.4862 0.36493 0.71366 0.0
C934 C 0.43891 0.34727 0.72343 0.0
C935 C 0.46454 0.36115 0.73567 0.0
C936 C 0.47312 0.35233 0.68853 0.0
N937 N 0.4445 0.34202 0.69367 0.0
O938 O 0.52989 0.38871 0.67377 0.0
H939 H 0.46759 0.36628 0.75969 0.0
H940 H 0.48468 0.34869 0.66721 0.0
O941 O 0.51192 0.4219 0.72566 0.0
C942 C 0.54038 0.36559 0.65895 0.0
O943 O 0.54451 0.33976 0.67386 0.0
N944 N 0.52785 0.36768 0.75908 0.0
C945 C 0.54457 0.33771 0.81298 0.0
C946 C 0.53725 0.36907 0.81338 0.0
C947 C 0.52966 0.38394 0.78582 0.0
C948 C 0.53312 0.33692 0.75892 0.0
C949 C 0.54158 0.32152 0.78552 0.0
H950 H 0.52711 0.40849 0.78595 0.0
H951 H 0.53241 0.32455 0.73744 0.0
H952 H 0.56241 0.43219 0.75389 0.0
H953 H 0.642 0.39176 0.71823 0.0
H954 H 0.41855 0.34009 0.73566 0.0
H955 H 0.53934 0.3822 0.83435 0.0
H956 H 0.54689 0.29728 0.78442 0.0
C957 C 0.65739 0.17701 0.52872 0.0
C958 C 0.67144 0.15392 0.51258 0.0
N959 N 0.6659 0.15858 0.48273 0.0
N960 N 0.64272 0.19641 0.50929 0.0
C961 C 0.64834 0.18396 0.48126 0.0
H962 H 0.65973 0.18007 0.55316 0.0
Co963 Co 0.62841 0.23681 0.51959 0.0
C964 C 0.68974 0.2628 0.53293 0.0
O965 O 0.68066 0.27123 0.56037 0.0
N966 N 0.61567 0.2772 0.52987 0.0
C967 C 0.61101 0.32818 0.52955 0.0
C968 C 0.62354 0.30315 0.51486 0.0
C969 C 0.59824 0.28723 0.55364 0.0
N970 N 0.59532 0.31805 0.55405 0.0
O971 O 0.63272 0.22693 0.5627 0.0
H972 H 0.63798 0.30396 0.49475 0.0
H973 H 0.58809 0.27252 0.57075 0.0
O974 O 0.67091 0.24982 0.51478 0.0
C975 C 0.60729 0.21466 0.57086 0.0
O976 O 0.58465 0.21427 0.55097 0.0
N977 N 0.61934 0.24453 0.47847 0.0
C978 C 0.5975 0.23433 0.41957 0.0
C979 C 0.62683 0.24709 0.42396 0.0
C980 C 0.63752 0.25213 0.45406 0.0
C981 C 0.58973 0.23583 0.47418 0.0
C982 C 0.5784 0.23043 0.44498 0.0
H983 H 0.661 0.25919 0.45767 0.0
H984 H 0.57562 0.23044 0.4938 0.0
H985 H 0.64132 0.19375 0.4598 0.0
H986 H 0.68618 0.1362 0.52182 0.0
H987 H 0.6138 0.352 0.52323 0.0
H988 H 0.64199 0.25075 0.40465 0.0
H989 H 0.55553 0.22106 0.44243 0.0
C990 C 0.42462 0.14715 0.74504 0.0
C991 C 0.39984 0.13561 0.7608 0.0
N992 N 0.40434 0.10538 0.76493 0.0
N993 N 0.44458 0.12426 0.73909 0.0
C994 C 0.43119 0.09893 0.75101 0.0
H995 H 0.42884 0.17106 0.74014 0.0
Co996 Co 0.48459 0.13029 0.72423 0.0
C997 C 0.50971 0.07143 0.7544 0.0
O998 O 0.52444 0.08574 0.77636 0.0
N999 N 0.52463 0.13713 0.7087 0.0
C1000 C 0.57531 0.13969 0.70171 0.0
C1001 C 0.55216 0.12806 0.7198 0.0
C1002 C 0.53185 0.1547 0.68412 0.0
N1003 N 0.56235 0.15643 0.67935 0.0
O1004 O 0.47076 0.11847 0.68373 0.0
H1005 H 0.5556 0.11426 0.73994 0.0
H1006 H 0.51518 0.16631 0.66994 0.0
O1007 O 0.49494 0.08656 0.73387 0.0
C1008 C 0.45749 0.14126 0.6709 0.0
O1009 O 0.45621 0.16742 0.68572 0.0
N1010 N 0.49613 0.14597 0.76315 0.0
C1011 C 0.4869 0.18517 0.81274 0.0
C1012 C 0.4798 0.154 0.8151 0.0
C1013 C 0.48455 0.13475 0.79002 0.0
C1014 C 0.5066 0.17549 0.76196 0.0
C1015 C 0.50285 0.19535 0.78684 0.0
H1016 H 0.47531 0.11194 0.79119 0.0
H1017 H 0.51454 0.18505 0.74054 0.0
H1018 H 0.44165 0.0765 0.75133 0.0
H1019 H 0.38104 0.14869 0.77036 0.0
H1020 H 0.59968 0.13581 0.70441 0.0
H1021 H 0.46805 0.14523 0.83514 0.0
H1022 H 0.50902 0.21927 0.78446 0.0
C1023 C 0.38705 0.33753 0.53546 0.0
C1024 C 0.37381 0.36414 0.52482 0.0
N1025 N 0.34932 0.35658 0.50767 0.0
N1026 N 0.37076 0.31315 0.52552 0.0
C1027 C 0.34783 0.32572 0.50864 0.0
H1028 H 0.40778 0.33628 0.54893 0.0
Co1029 Co 0.37999 0.27128 0.5323 0.0
C1030 C 0.31953 0.24664 0.50656 0.0
O1031 O 0.33243 0.23477 0.48211 0.0
N1032 N 0.38878 0.22862 0.53924 0.0
C1033 C 0.40248 0.17955 0.53275 0.0
C1034 C 0.39287 0.20602 0.51828 0.0
C1035 C 0.39455 0.21449 0.56634 0.0
N1036 N 0.40393 0.18526 0.56297 0.0
O1037 O 0.37301 0.27733 0.57555 0.0
H1038 H 0.39025 0.2087 0.49378 0.0
H1039 H 0.3921 0.22512 0.58846 0.0
O1040 O 0.3365 0.26042 0.52608 0.0
C1041 C 0.39883 0.2849 0.58741 0.0
O1042 O 0.42323 0.2847 0.56974 0.0
N1043 N 0.39266 0.26822 0.49111 0.0
C1044 C 0.42922 0.27723 0.43814 0.0
C1045 C 0.39692 0.28133 0.43771 0.0
C1046 C 0.37918 0.27678 0.4642 0.0
C1047 C 0.42367 0.26539 0.4925 0.0
C1048 C 0.44209 0.27014 0.46697 0.0
H1049 H 0.35513 0.2823 0.46322 0.0
H1050 H 0.43457 0.26141 0.51442 0.0
H1051 H 0.33055 0.31267 0.49665 0.0
H1052 H 0.38222 0.38721 0.52829 0.0
H1053 H 0.40915 0.15827 0.52189 0.0
H1054 H 0.38512 0.2903 0.41788 0.0
H1055 H 0.46629 0.27025 0.47148 0.0
C1056 C 0.78484 0.59252 0.63976 0.0
C1057 C 0.7747 0.61943 0.62682 0.0
N1058 N 0.76289 0.61289 0.59907 0.0
N1059 N 0.78018 0.56919 0.61998 0.0
C1060 C 0.767 0.58257 0.59527 0.0
H1061 H 0.79361 0.59009 0.66279 0.0
Co1062 Co 0.78803 0.52758 0.62822 0.0
C1063 C 0.75824 0.50509 0.56814 0.0
O1064 O 0.73241 0.49725 0.58142 0.0
N1065 N 0.79669 0.4859 0.63667 0.0
C1066 C 0.79511 0.43492 0.64136 0.0
C1067 C 0.78101 0.46034 0.62879 0.0
C1068 C 0.81992 0.47532 0.65423 0.0
N1069 N 0.81983 0.44459 0.65698 0.0
O1070 O 0.83096 0.53495 0.61854 0.0
H1071 H 0.75999 0.46006 0.6158 0.0
H1072 H 0.83609 0.4897 0.66607 0.0
O1073 O 0.77996 0.51639 0.58445 0.0
C1074 C 0.8449 0.54522 0.64224 0.0
O1075 O 0.82998 0.54655 0.66835 0.0
N1076 N 0.74674 0.52269 0.64213 0.0
C1077 C 0.6962 0.53736 0.67889 0.0
C1078 C 0.69716 0.54617 0.64802 0.0
C1079 C 0.72226 0.53809 0.6299 0.0
C1080 C 0.74485 0.51187 0.67155 0.0
C1081 C 0.71928 0.51798 0.68994 0.0
H1082 H 0.72275 0.54668 0.60683 0.0
H1083 H 0.7644 0.50097 0.68217 0.0
H1084 H 0.75789 0.57017 0.5759 0.0
H1085 H 0.77376 0.64163 0.63786 0.0
H1086 H 0.78758 0.41136 0.63967 0.0
H1087 H 0.67952 0.56081 0.63842 0.0
H1088 H 0.71913 0.51039 0.7136 0.0
C1089 C 0.83206 1.0017 0.61765 0.0
C1090 C 0.85646 0.0145 0.63303 0.0
N1091 N 0.85049 0.01357 0.6633 0.0
N1092 N 0.81068 0.99264 0.63806 0.0
C1093 C 0.82281 0.99989 0.66581 0.0
H1094 H 0.82926 1.00077 0.59303 0.0
Co1095 Co 0.77062 0.98072 0.62714 0.0
C1096 C 0.73726 0.99625 0.68635 0.0
O1097 O 0.71876 0.01555 0.67254 0.0
N1098 N 0.72956 0.96889 0.6161 0.0
C1099 C 0.68065 0.97067 0.60042 0.0
C1100 C 0.70503 0.98745 0.61127 0.0
C1101 C 0.71874 0.94064 0.60884 0.0
N1102 N 0.68947 0.9413 0.5987 0.0
O1103 O 0.78222 0.93824 0.63201 0.0
H1104 H 0.70483 0.01201 0.61428 0.0
H1105 H 0.73197 0.91982 0.61044 0.0
O1106 O 0.75817 0.98338 0.67035 0.0
C1107 C 0.79504 0.92912 0.60718 0.0
O1108 O 0.79755 0.94853 0.5843 0.0
N1109 N 0.76238 0.02161 0.6178 0.0
C1110 C 0.77052 0.07939 0.58985 0.0
C1111 C 0.77164 0.0756 0.6222 0.0
C1112 C 0.76725 0.0467 0.63564 0.0
C1113 C 0.76129 0.02439 0.58679 0.0
C1114 C 0.76526 0.05257 0.57255 0.0
H1115 H 0.77045 0.04411 0.66003 0.0
H1116 H 0.75983 1.00397 0.5728 0.0
H1117 H 0.81099 0.99711 0.68738 0.0
H1118 H 0.87654 0.02485 0.62277 0.0
H1119 H 0.65859 0.97946 0.59317 0.0
H1120 H 0.77817 0.09367 0.6376 0.0
H1121 H 0.76675 0.05214 0.54785 0.0
C1122 C 0.26417 0.93768 0.65248 0.0
C1123 C 0.27847 0.91242 0.64025 0.0
N1124 N 0.27518 0.91345 0.60961 0.0
N1125 N 0.25211 0.95488 0.62973 0.0
C1126 C 0.25881 0.93906 0.60383 0.0
H1127 H 0.26357 0.94372 0.67639 0.0
Co1128 Co 0.23507 0.99459 0.63505 0.0
C1129 C 0.25499 0.01706 0.57144 0.0
O1130 O 0.27743 0.03351 0.58291 0.0
N1131 N 0.21685 0.03438 0.64046 0.0
C1132 C 0.19148 0.07809 0.63141 0.0
C1133 C 0.21123 0.05655 0.61945 0.0
C1134 C 0.20051 0.04369 0.66525 0.0
N1135 N 0.18452 0.06995 0.66027 0.0
O1136 O 0.19448 0.97721 0.63062 0.0
H1137 H 0.21862 0.05636 0.59594 0.0
H1138 H 0.19874 0.03037 0.686 0.0
O1139 O 0.23795 1.00181 0.5899 0.0
C1140 C 0.18738 0.96255 0.65507 0.0
O1141 O 0.20738 0.9615 0.67755 0.0
N1142 N 0.27509 0.00973 0.64441 0.0
C1143 C 0.32517 0.99417 0.6811 0.0
C1144 C 0.32532 0.98763 0.64962 0.0
C1145 C 0.3004 0.9965 0.63141 0.0
C1146 C 0.27711 0.02081 0.67369 0.0
C1147 C 0.30239 0.01385 0.69229 0.0
H1148 H 0.29932 0.98769 0.6084 0.0
H1149 H 0.25742 0.03104 0.68454 0.0
H1150 H 0.2535 0.94676 0.58102 0.0
H1151 H 0.29082 0.89489 0.65277 0.0
H1152 H 0.18106 0.09691 0.61901 0.0
H1153 H 0.34304 0.97327 0.63979 0.0
H1154 H 0.30207 0.02031 0.71628 0.0
C1155 C 0.17502 0.51423 0.61561 0.0
C1156 C 0.14939 0.50002 0.62726 0.0
N1157 N 0.15495 0.49287 0.65676 0.0
N1158 N 0.19653 0.51664 0.63776 0.0
C1159 C 0.18337 0.50359 0.66272 0.0
H1160 H 0.17839 0.52064 0.59191 0.0
Co1161 Co 0.23727 0.52946 0.63031 0.0
C1162 C 0.262 0.50274 0.69134 0.0
O1163 O 0.27356 0.47832 0.6781 0.0
N1164 N 0.27793 0.54292 0.62214 0.0
C1165 C 0.32885 0.54716 0.61808 0.0
C1166 C 0.30505 0.53036 0.63048 0.0
C1167 C 0.28604 0.56712 0.60446 0.0
N1168 N 0.3167 0.57053 0.60205 0.0
O1169 O 0.22496 0.57147 0.63923 0.0
H1170 H 0.3076 0.50978 0.64391 0.0
H1171 H 0.26994 0.58166 0.59258 0.0
O1172 O 0.24843 0.52284 0.6746 0.0
C1173 C 0.21325 0.58379 0.61525 0.0
O1174 O 0.21254 0.56782 0.58974 0.0
N1175 N 0.24695 0.48894 0.61712 0.0
C1176 C 0.23237 0.43864 0.58027 0.0
C1177 C 0.22587 0.43839 0.61173 0.0
C1178 C 0.23375 0.46351 0.62985 0.0
C1179 C 0.25677 0.48786 0.58733 0.0
C1180 C 0.25051 0.46247 0.56872 0.0
H1181 H 0.22567 0.46366 0.65317 0.0
H1182 H 0.2662 0.50806 0.57659 0.0
H1183 H 0.19518 0.49938 0.68408 0.0
H1184 H 0.12907 0.49356 0.61456 0.0
H1185 H 0.35312 0.54246 0.62037 0.0
H1186 H 0.21259 0.42001 0.62179 0.0
H1187 H 0.25657 0.46314 0.54463 0.0
C1188 C 0.76184 0.43132 0.85835 0.0
C1189 C 0.7488 0.40521 0.87034 0.0
N1190 N 0.74239 0.41052 0.90002 0.0
N1191 N 0.76361 0.45294 0.88042 0.0
C1192 C 0.75184 0.43928 0.90569 0.0
H1193 H 0.76765 0.4349 0.83453 0.0
Co1194 Co 0.77472 0.49411 0.87481 0.0
C1195 C 0.74748 0.51895 0.93458 0.0
O1196 O 0.72858 0.53775 0.92063 0.0
N1197 N 0.78601 0.53608 0.86934 0.0
C1198 C 0.7845 0.58551 0.85578 0.0
C1199 C 0.76761 0.56096 0.86626 0.0
C1200 C 0.81414 0.54684 0.86205 0.0
N1201 N 0.81374 0.57636 0.85297 0.0
O1202 O 0.81682 0.48306 0.88379 0.0
H1203 H 0.74297 0.56084 0.86867 0.0
H1204 H 0.8346 0.5331 0.86164 0.0
O1205 O 0.76592 0.50221 0.91897 0.0
C1206 C 0.82819 0.47261 0.85871 0.0
O1207 O 0.81108 0.47338 0.83392 0.0
N1208 N 0.73484 0.50208 0.86025 0.0
C1209 C 0.68487 0.48895 0.82267 0.0
C1210 C 0.68262 0.48565 0.85459 0.0
C1211 C 0.70815 0.49202 0.87302 0.0
C1212 C 0.73616 0.50816 0.82953 0.0
C1213 C 0.71131 0.50209 0.81034 0.0
H1214 H 0.7076 0.48504 0.8965 0.0
H1215 H 0.75781 0.51441 0.8192 0.0
H1216 H 0.74852 0.45045 0.92751 0.0
H1217 H 0.74264 0.38469 0.85784 0.0
H1218 H 0.7756 0.60743 0.84829 0.0
H1219 H 0.66268 0.47485 0.86471 0.0
H1220 H 0.714 0.50439 0.78574 0.0
C1221 C 0.67363 0.96433 0.34938 0.0
C1222 C 0.64986 0.97792 0.33372 0.0
N1223 N 0.65799 0.00688 0.32773 0.0
N1224 N 0.69663 0.98477 0.35394 0.0
C1225 C 0.68608 0.0105 0.33987 0.0
H1226 H 0.67396 0.94055 0.35597 0.0
Co1227 Co 0.73659 0.97708 0.37071 0.0
C1228 C 0.77564 0.98883 0.31443 0.0
O1229 O 0.79701 1.00284 0.33024 0.0
N1230 N 0.77736 0.96907 0.38662 0.0
C1231 C 0.82294 0.97422 0.40995 0.0
C1232 C 0.79845 0.98947 0.39694 0.0
C1233 C 0.79039 0.94153 0.39324 0.0
N1234 N 0.81762 0.94404 0.40771 0.0
O1235 O 0.72869 0.93354 0.36731 0.0
H1236 H 0.79597 0.01408 0.39647 0.0
H1237 H 0.77972 0.91967 0.38922 0.0
O1238 O 0.75181 0.9796 0.32869 0.0
C1239 C 0.72042 0.92391 0.39387 0.0
O1240 O 0.72458 0.94198 0.41759 0.0
N1241 N 0.74084 0.01898 0.37933 0.0
C1242 C 0.72575 0.07579 0.40392 0.0
C1243 C 0.73931 0.07383 0.3747 0.0
C1244 C 0.74737 0.04486 0.36285 0.0
C1245 C 0.73011 0.02113 0.40856 0.0
C1246 C 0.72263 0.04919 0.42134 0.0
H1247 H 0.75523 0.04325 0.33945 0.0
H1248 H 0.72534 1.00052 0.42137 0.0
H1249 H 0.6985 0.03155 0.33747 0.0
H1250 H 0.62841 0.9674 0.32702 0.0
H1251 H 0.84205 0.98447 0.42203 0.0
H1252 H 0.74183 0.0941 0.36061 0.0
H1253 H 0.71244 0.04992 0.444 0.0
C1254 C 0.21632 0.0929 0.89071 0.0
C1255 C 0.2321 0.11699 0.90378 0.0
N1256 N 0.25832 0.10592 0.91556 0.0
N1257 N 0.23253 0.06669 0.89442 0.0
C1258 C 0.25816 0.07577 0.9094 0.0
H1259 H 0.19469 0.0949 0.87889 0.0
Co1260 Co 0.22464 0.02573 0.88211 0.0
C1261 C 0.24239 0.98934 0.94013 0.0
O1262 O 0.24377 0.96278 0.92608 0.0
N1263 N 0.21697 0.98389 0.8697 0.0
C1264 C 0.22164 0.93767 0.84766 0.0
C1265 C 0.23706 0.96317 0.85805 0.0
C1266 C 0.18943 0.96968 0.86637 0.0
N1267 N 0.19161 0.94198 0.85266 0.0
O1268 O 0.18154 0.03097 0.89223 0.0
H1269 H 0.26137 0.96659 0.85534 0.0
H1270 H 0.16767 0.9799 0.87219 0.0
O1271 O 0.2354 0.01353 0.92498 0.0
C1272 C 0.16833 0.04144 0.86805 0.0
O1273 O 0.18527 0.04616 0.84361 0.0
N1274 N 0.26488 0.02369 0.86733 0.0
C1275 C 0.3192 0.03894 0.83775 0.0
C1276 C 0.31977 0.02044 0.86419 0.0
C1277 C 0.29198 0.01283 0.87875 0.0
C1278 C 0.2642 0.03947 0.8404 0.0
C1279 C 0.29099 0.04751 0.82539 0.0
H1280 H 0.29226 0.9987 0.89899 0.0
H1281 H 0.24257 0.04744 0.83139 0.0
H1282 H 0.27689 0.06084 0.91522 0.0
H1283 H 0.22523 0.14083 0.90406 0.0
H1284 H 0.23141 0.91871 0.83499 0.0
H1285 H 0.34135 0.01282 0.87383 0.0
H1286 H 0.28971 0.06139 0.80481 0.0
C1287 C 0.33359 0.52015 0.39664 0.0
C1288 C 0.35902 0.50691 0.38342 0.0
N1289 N 0.35112 0.49743 0.35518 0.0
N1290 N 0.30995 0.51922 0.37665 0.0
C1291 C 0.32142 0.50477 0.35176 0.0
H1292 H 0.33217 0.52867 0.41985 0.0
Co1293 Co 0.26969 0.53162 0.38477 0.0
C1294 C 0.24157 0.50595 0.32452 0.0
O1295 O 0.22562 0.48434 0.33803 0.0
N1296 N 0.22902 0.5445 0.39394 0.0
C1297 C 0.17832 0.54672 0.40145 0.0
C1298 C 0.20222 0.5293 0.39022 0.0
C1299 C 0.22068 0.5707 0.40838 0.0
N1300 N 0.19017 0.57273 0.41275 0.0
O1301 O 0.281 0.57317 0.37362 0.0
H1302 H 0.19998 0.50646 0.38123 0.0
H1303 H 0.23653 0.58776 0.41651 0.0
O1304 O 0.25824 0.5238 0.34088 0.0
C1305 C 0.29382 0.58702 0.39604 0.0
O1306 O 0.29506 0.57327 0.42279 0.0
N1307 N 0.26133 0.4917 0.3993 0.0
C1308 C 0.27806 0.44118 0.43484 0.0
C1309 C 0.27881 0.43956 0.40271 0.0
C1310 C 0.27035 0.46518 0.38525 0.0
C1311 C 0.25742 0.49235 0.43038 0.0
C1312 C 0.26554 0.46727 0.44861 0.0
H1313 H 0.27478 0.46463 0.36095 0.0
H1314 H 0.25166 0.5137 0.44156 0.0
H1315 H 0.30796 0.49738 0.33246 0.0
H1316 H 0.38112 0.50321 0.39413 0.0
H1317 H 0.15426 0.54069 0.40163 0.0
H1318 H 0.28871 0.41981 0.39138 0.0
H1319 H 0.26496 0.46941 0.47336 0.0
C1320 C 0.64133 0.76827 0.58458 0.0
C1321 C 0.6279 0.75521 0.60997 0.0
N1322 N 0.5993 0.74663 0.60231 0.0
N1323 N 0.62119 0.7682 0.56106 0.0
C1324 C 0.59577 0.75468 0.57271 0.0
H1325 H 0.66487 0.77578 0.58302 0.0
Co1326 Co 0.63038 0.78006 0.52061 0.0
C1327 C 0.56948 0.75228 0.49615 0.0
O1328 O 0.58152 0.72616 0.48739 0.0
N1329 N 0.63973 0.79216 0.47998 0.0
C1330 C 0.64227 0.79531 0.42892 0.0
C1331 C 0.63024 0.77929 0.45339 0.0
C1332 C 0.65805 0.81548 0.47096 0.0
N1333 N 0.65978 0.81797 0.4402 0.0
O1334 O 0.62013 0.82194 0.53122 0.0
H1335 H 0.61541 0.75961 0.4517 0.0
H1336 H 0.66986 0.83069 0.48647 0.0
O1337 O 0.58696 0.77273 0.50793 0.0
C1338 C 0.6438 0.83448 0.54319 0.0
O1339 O 0.66948 0.8188 0.54431 0.0
N1340 N 0.64527 0.74012 0.51281 0.0
C1341 C 0.68408 0.69164 0.52819 0.0
C1342 C 0.65222 0.68865 0.53122 0.0
C1343 C 0.63322 0.7135 0.52418 0.0
C1344 C 0.67593 0.74175 0.50647 0.0
C1345 C 0.69576 0.71785 0.51408 0.0
H1346 H 0.60978 0.71234 0.53178 0.0
H1347 H 0.68603 0.76322 0.49947 0.0
H1348 H 0.57587 0.74846 0.5594 0.0
H1349 H 0.63888 0.75059 0.63176 0.0
H1350 H 0.63784 0.79127 0.40483 0.0
H1351 H 0.64252 0.66881 0.54257 0.0
H1352 H 0.72028 0.72116 0.51186 0.0
C1353 C 0.629 0.21461 0.9092 0.0
C1354 C 0.61516 0.22935 0.88484 0.0
N1355 N 0.59956 0.25345 0.89599 0.0
N1356 N 0.62184 0.22932 0.93554 0.0
C1357 C 0.60416 0.25307 0.92642 0.0
H1358 H 0.6443 0.19524 0.90741 0.0
Co1359 Co 0.63521 0.22278 0.97612 0.0
C1360 C 0.57865 0.23991 0.01425 0.0
O1361 O 0.59426 0.24247 0.03988 0.0
N1362 N 0.64906 0.21636 0.01763 0.0
C1363 C 0.67516 0.22103 0.06169 0.0
C1364 C 0.66462 0.23606 0.03603 0.0
C1365 C 0.65031 0.18953 0.03335 0.0
N1366 N 0.66673 0.19157 0.05957 0.0
O1367 O 0.62627 0.17939 0.97163 0.0
H1368 H 0.67049 0.25938 0.03051 0.0
H1369 H 0.64114 0.16813 0.02498 0.0
O1370 O 0.5925 0.23249 0.98942 0.0
C1371 C 0.65103 0.16658 0.9622 0.0
O1372 O 0.67577 0.18358 0.95978 0.0
N1373 N 0.64829 0.26348 0.97713 0.0
C1374 C 0.67546 0.31931 0.96354 0.0
C1375 C 0.65061 0.31798 0.984 0.0
C1376 C 0.63718 0.28947 0.9906 0.0
C1377 C 0.67374 0.26454 0.9591 0.0
C1378 C 0.68747 0.29217 0.95174 0.0
H1379 H 0.6185 0.28831 0.00667 0.0
H1380 H 0.68267 0.24365 0.94923 0.0
H1381 H 0.59614 0.27085 0.94144 0.0
H1382 H 0.61745 0.2237 0.86078 0.0
H1383 H 0.69069 0.2302 0.07875 0.0
H1384 H 0.64139 0.33869 0.9941 0.0
H1385 H 0.7069 0.29242 0.93626 0.0
C1386 C 0.49951 0.12175 0.32943 0.0
C1387 C 0.51634 0.13606 0.35199 0.0
N1388 N 0.52388 0.1642 0.34193 0.0
N1389 N 0.49601 0.14091 0.30538 0.0
C1390 C 0.51095 0.16673 0.31397 0.0
H1391 H 0.4922 0.09812 0.32982 0.0
Co1392 Co 0.4805 0.1299 0.26655 0.0
C1393 C 0.49792 0.19116 0.23603 0.0
O1394 O 0.52037 0.17963 0.21963 0.0
N1395 N 0.46481 0.11851 0.22729 0.0
C1396 C 0.46014 0.10914 0.17708 0.0
C1397 C 0.47796 0.12256 0.19948 0.0
C1398 C 0.43913 0.1022 0.22096 0.0
N1399 N 0.43549 0.09669 0.19067 0.0
O1400 O 0.43898 0.13645 0.28179 0.0
H1401 H 0.49988 0.13325 0.1956 0.0
H1402 H 0.42391 0.09314 0.23816 0.0
O1403 O 0.48248 0.17329 0.25338 0.0
C1404 C 0.429 0.11265 0.29575 0.0
O1405 O 0.44615 0.08792 0.29608 0.0
N1406 N 0.52088 0.11952 0.25443 0.0
C1407 C 0.57534 0.08846 0.26667 0.0
C1408 C 0.57451 0.12049 0.2674 0.0
C1409 C 0.54695 0.13572 0.26108 0.0
C1410 C 0.52253 0.08858 0.25021 0.0
C1411 C 0.54961 0.07261 0.25595 0.0
H1412 H 0.5461 0.15997 0.2654 0.0
H1413 H 0.50178 0.07558 0.2464 0.0
H1414 H 0.51466 0.18624 0.29921 0.0
H1415 H 0.5244 0.12581 0.37313 0.0
H1416 H 0.46515 0.10807 0.15278 0.0
H1417 H 0.59398 0.13336 0.27587 0.0
H1418 H 0.54923 0.04782 0.25567 0.0
C1419 C 0.37267 0.26306 0.9231 0.0
C1420 C 0.38616 0.2516 0.89707 0.0
N1421 N 0.41679 0.25237 0.90081 0.0
N1422 N 0.39462 0.27101 0.94337 0.0
C1423 C 0.42136 0.26483 0.92881 0.0
H1424 H 0.34834 0.26349 0.92783 0.0
Co1425 Co 0.38629 0.27998 0.9846 0.0
C1426 C 0.4454 0.25851 0.01419 0.0
O1427 O 0.43029 0.2381 0.03029 0.0
N1428 N 0.37754 0.28897 0.02679 0.0
C1429 C 0.36134 0.28482 0.07535 0.0
C1430 C 0.37249 0.2692 0.05027 0.0
C1431 C 0.37044 0.31661 0.03901 0.0
N1432 N 0.35982 0.31462 0.06799 0.0
O1433 O 0.39188 0.32319 0.97579 0.0
H1434 H 0.37455 0.24458 0.04891 0.0
H1435 H 0.37165 0.33797 0.0267 0.0
O1436 O 0.43027 0.27489 0.9951 0.0
C1437 C 0.36676 0.3334 0.96432 0.0
O1438 O 0.34354 0.31445 0.96153 0.0
N1439 N 0.37578 0.23868 0.99001 0.0
C1440 C 0.34524 0.18549 0.97255 0.0
C1441 C 0.37742 0.18654 0.97235 0.0
C1442 C 0.39236 0.21369 0.98099 0.0
C1443 C 0.34465 0.23694 0.99246 0.0
C1444 C 0.32896 0.2105 0.98412 0.0
H1445 H 0.41674 0.21551 0.97763 0.0
H1446 H 0.33161 0.25731 0.99793 0.0
H1447 H 0.4437 0.26721 0.93916 0.0
H1448 H 0.37439 0.24197 0.87743 0.0
H1449 H 0.35268 0.27483 0.09635 0.0
H1450 H 0.3906 0.16759 0.96321 0.0
H1451 H 0.30411 0.21048 0.98432 0.0
C1452 C 0.00441 0.88784 0.82986 0.0
C1453 C 0.99101 0.87298 0.85421 0.0
N1454 N 0.99537 0.84268 0.85062 0.0
N1455 N 0.01715 0.86705 0.8108 0.0
C1456 C 0.01178 0.83963 0.82451 0.0
H1457 H 1.00335 0.91214 0.82539 0.0
Co1458 Co 0.03222 0.87564 0.77091 0.0
C1459 C 0.01271 0.81628 0.74108 0.0
O1460 O 0.9909 0.8298 0.72536 0.0
N1461 N 0.0477 0.88313 0.73037 0.0
C1462 C 0.05156 0.89278 0.68006 0.0
C1463 C 0.03234 0.8834 0.70331 0.0
C1464 C 0.07663 0.89104 0.72232 0.0
N1465 N 0.07945 0.89758 0.69214 0.0
O1466 O 0.07372 0.86972 0.78595 0.0
H1467 H 0.00811 0.87912 0.70065 0.0
H1468 H 0.09526 0.89363 0.73838 0.0
O1469 O 0.02821 0.83228 0.76012 0.0
C1470 C 0.0811 0.89359 0.80148 0.0
O1471 O 0.06038 0.91506 0.80546 0.0
N1472 N 0.99199 0.88697 0.75883 0.0
C1473 C 0.94143 0.92264 0.77484 0.0
C1474 C 0.94146 0.89083 0.78008 0.0
C1475 C 0.96655 0.87313 0.77063 0.0
C1476 C 0.99059 0.91708 0.75024 0.0
C1477 C 0.96477 0.9349 0.75655 0.0
H1478 H 0.96753 0.84943 0.77735 0.0
H1479 H 0.01093 0.92863 0.74209 0.0
H1480 H 0.0182 0.81772 0.81488 0.0
H1481 H 0.97805 0.88347 0.87259 0.0
H1482 H 0.04506 0.8978 0.65663 0.0
H1483 H 0.92357 0.88017 0.79359 0.0
H1484 H 0.96516 0.95916 0.75124 0.0
C1485 C 0.8638 0.24238 0.08564 0.0
C1486 C 0.87694 0.25506 0.11134 0.0
N1487 N 0.90662 0.26086 0.10516 0.0
N1488 N 0.88517 0.23971 0.06344 0.0
C1489 C 0.91115 0.25094 0.07622 0.0
H1490 H 0.83976 0.23709 0.08277 0.0
Co1491 Co 0.877 0.22739 0.02291 0.0
C1492 C 0.9343 0.25824 0.99604 0.0
O1493 O 0.9188 0.28055 0.98314 0.0
N1494 N 0.86834 0.21412 0.98215 0.0
C1495 C 0.86261 0.21012 0.93132 0.0
C1496 C 0.87418 0.22776 0.9549 0.0
C1497 C 0.85277 0.18843 0.9743 0.0
N1498 N 0.84951 0.18516 0.94368 0.0
O1499 O 0.88849 0.18598 0.03428 0.0
H1500 H 0.88514 0.24963 0.95201 0.0
H1501 H 0.84287 0.17274 0.99059 0.0
O1502 O 0.92036 0.23707 0.01104 0.0
C1503 C 0.8653 0.17362 0.04733 0.0
O1504 O 0.8395 0.18908 0.04855 0.0
N1505 N 0.86143 0.26718 0.01441 0.0
C1506 C 0.82388 0.31734 0.02747 0.0
C1507 C 0.85524 0.31824 0.0341 0.0
C1508 C 0.87363 0.29299 0.02731 0.0
C1509 C 0.83149 0.26728 0.00503 0.0
C1510 C 0.81244 0.29249 0.01069 0.0
H1511 H 0.89678 0.29311 0.03571 0.0
H1512 H 0.82118 0.24659 0.99618 0.0
H1513 H 0.93257 0.25374 0.0641 0.0
H1514 H 0.86514 0.26167 0.13215 0.0
H1515 H 0.86341 0.21533 0.90706 0.0
H1516 H 0.86495 0.33726 0.04676 0.0
H1517 H 0.78829 0.2912 0.00498 0.0
C1518 C 0.48413 0.89451 0.16903 0.0
C1519 C 0.49716 0.88168 0.14329 0.0
N1520 N 0.50573 0.8529 0.15028 0.0
N1521 N 0.48431 0.8738 0.19203 0.0
C1522 C 0.49721 0.84847 0.1796 0.0
H1523 H 0.47728 0.91819 0.17141 0.0
Co1524 Co 0.47621 0.88226 0.23338 0.0
C1525 C 0.50301 0.82515 0.26287 0.0
O1526 O 0.52051 0.84138 0.28114 0.0
N1527 N 0.46794 0.89097 0.27588 0.0
C1528 C 0.47227 0.90763 0.32431 0.0
C1529 C 0.48796 0.89786 0.2987 0.0
C1530 C 0.44019 0.89567 0.28905 0.0
N1531 N 0.4422 0.90644 0.318 0.0
O1532 O 0.43304 0.87416 0.2258 0.0
H1533 H 0.51263 0.89785 0.2966 0.0
H1534 H 0.41859 0.89267 0.27745 0.0
O1535 O 0.4847 0.83854 0.24408 0.0
C1536 C 0.42106 0.89915 0.2158 0.0
O1537 O 0.43837 0.92374 0.21472 0.0
N1538 N 0.51705 0.8952 0.23749 0.0
C1539 C 0.5728 0.92715 0.22871 0.0
C1540 C 0.57041 0.89515 0.22387 0.0
C1541 C 0.54259 0.8798 0.22841 0.0
C1542 C 0.51805 0.92616 0.24062 0.0
C1543 C 0.54516 0.94239 0.23617 0.0
H1544 H 0.54096 0.85626 0.22164 0.0
H1545 H 0.497 0.93867 0.24465 0.0
H1546 H 0.50288 0.82796 0.19232 0.0
H1547 H 0.5022 0.89329 0.12194 0.0
H1548 H 0.48217 0.91719 0.34497 0.0
H1549 H 0.58873 0.88179 0.21408 0.0
H1550 H 0.54308 0.96698 0.23647 0.0
C1551 C 0.50584 0.61571 0.18222 0.0
C1552 C 0.49222 0.62963 0.15739 0.0
N1553 N 0.49452 0.6602 0.16088 0.0
N1554 N 0.51637 0.63738 0.2016 0.0
C1555 C 0.50998 0.66431 0.18741 0.0
H1556 H 0.50623 0.5914 0.1869 0.0
Co1557 Co 0.52958 0.62914 0.242 0.0
C1558 C 0.50421 0.69106 0.2653 0.0
O1559 O 0.47828 0.67939 0.27507 0.0
N1560 N 0.54346 0.62078 0.28221 0.0
C1561 C 0.55063 0.62084 0.33289 0.0
C1562 C 0.53306 0.63216 0.30912 0.0
C1563 C 0.56691 0.60213 0.29036 0.0
N1564 N 0.57185 0.602 0.3209 0.0
O1565 O 0.57123 0.63728 0.22923 0.0
H1566 H 0.51414 0.64791 0.31149 0.0
H1567 H 0.58061 0.5892 0.27429 0.0
O1568 O 0.52402 0.6731 0.25316 0.0
C1569 C 0.58179 0.61323 0.21621 0.0
O1570 O 0.56417 0.58889 0.21455 0.0
N1571 N 0.48892 0.61668 0.25246 0.0
C1572 C 0.43939 0.57957 0.23643 0.0
C1573 C 0.43945 0.61077 0.22902 0.0
C1574 C 0.46403 0.6291 0.23802 0.0
C1575 C 0.48715 0.58736 0.26347 0.0
C1576 C 0.46202 0.56864 0.25648 0.0
H1577 H 0.4651 0.65182 0.22887 0.0
H1578 H 0.5068 0.57677 0.27419 0.0
H1579 H 0.51451 0.68656 0.19713 0.0
H1580 H 0.48053 0.61823 0.13869 0.0
H1581 H 0.54861 0.62662 0.35694 0.0
H1582 H 0.42216 0.62032 0.21392 0.0
H1583 H 0.46236 0.54476 0.26326 0.0
C1584 C 0.07999 0.22473 0.15285 0.0
C1585 C 0.06724 0.22802 0.12332 0.0
C1586 C 0.02733 0.19027 0.13551 0.0
C1587 C 0.03981 0.18747 0.16545 0.0
N1588 N 0.08307 0.19457 0.19932 0.0
N1589 N 0.03398 0.20955 0.08354 0.0
C1590 C 0.06782 0.20237 0.17306 0.0
C1591 C 0.04259 0.20916 0.11367 0.0
N1592 N 0.10285 0.24405 0.16198 0.0
N1593 N 1.00038 0.17595 0.12845 0.0
H1594 H 0.04503 0.22313 0.06727 0.0
H1595 H 0.0178 0.19481 0.0741 0.0
H1596 H 0.98842 0.16239 0.14407 0.0
H1597 H 0.98884 0.17868 0.10775 0.0
H1598 H 0.11083 0.24534 0.18445 0.0
H1599 H 0.11244 0.26037 0.14735 0.0
H1600 H 0.10497 0.20243 0.20465 0.0
H1601 H 0.07513 0.17782 0.21438 0.0
C1602 C 0.48905 0.68185 0.10912 0.0
C1603 C 0.48139 0.68297 0.14057 0.0
C1604 C 0.44403 0.72375 0.1294 0.0
C1605 C 0.44818 0.71874 0.09754 0.0
N1606 N 0.47077 0.68773 0.05729 0.0
N1607 N 0.44879 0.70324 0.18057 0.0
C1608 C 0.46985 0.69655 0.08736 0.0
C1609 C 0.45835 0.70371 0.15082 0.0
N1610 N 0.51502 0.66689 0.10013 0.0
N1611 N 0.42681 0.74803 0.13922 0.0
H1612 H 0.45867 0.68937 0.1971 0.0
H1613 H 0.42951 0.71499 0.18836 0.0
H1614 H 0.41644 0.76343 0.12412 0.0
H1615 H 0.42559 0.75482 0.16209 0.0
H1616 H 0.52338 0.66766 0.07775 0.0
H1617 H 0.52993 0.65666 0.11584 0.0
H1618 H 0.48408 0.66946 0.04955 0.0
H1619 H 0.45593 0.69621 0.04062 0.0
C1620 C 0.93275 0.32607 0.15455 0.0
C1621 C 0.96231 0.31588 0.16411 0.0
C1622 C 0.95546 0.26907 0.13365 0.0
C1623 C 0.92677 0.28009 0.12304 0.0
N1624 N 0.89372 0.32356 0.11526 0.0
N1625 N 1.00335 0.27884 0.15921 0.0
C1626 C 0.91726 0.31007 0.13089 0.0
C1627 C 0.97424 0.28798 0.15219 0.0
N1628 N 0.91808 0.34931 0.16959 0.0
N1629 N 0.96533 0.24029 0.12699 0.0
H1630 H 0.01873 0.29269 0.17119 0.0
H1631 H 0.01238 0.258 0.15172 0.0
H1632 H 0.95258 0.22445 0.11442 0.0
H1633 H 0.95258 0.22445 0.11442 0.0
H1634 H 0.89534 0.35528 0.16525 0.0
H1635 H 0.92703 0.36027 0.18876 0.0
H1636 H 0.88765 0.34648 0.11818 0.0
H1637 H 0.88276 0.31289 0.0969 0.0
C1638 C 0.57305 0.82756 0.10309 0.0
C1639 C 0.56423 0.79714 0.0951 0.0
C1640 C 0.51599 0.80436 0.123 0.0
C1641 C 0.52597 0.8335 0.13283 0.0
N1642 N 0.56778 0.86874 0.13987 0.0
N1643 N 0.53067 0.75423 0.10447 0.0
C1644 C 0.55577 0.84378 0.12535 0.0
C1645 C 0.53673 0.78478 0.1073 0.0
N1646 N 0.59643 0.84196 0.08808 0.0
N1647 N 0.48621 0.79598 0.12723 0.0
H1648 H 0.54575 0.73903 0.09379 0.0
H1649 H 0.51239 0.74372 0.11563 0.0
H1650 H 0.47035 0.80983 0.13858 0.0
H1651 H 0.47682 0.77688 0.11653 0.0
H1652 H 0.60155 0.86507 0.09119 0.0
H1653 H 0.60855 0.83201 0.07015 0.0
H1654 H 0.59054 0.87554 0.13728 0.0
H1655 H 0.55599 0.88052 0.15701 0.0
C1656 C 0.04951 0.83256 0.38135 0.0
C1657 C 0.03717 0.81757 0.35533 0.0
C1658 C 0.06165 0.76981 0.3721 0.0
C1659 C 0.07982 0.78676 0.39285 0.0
N1660 N 0.09088 0.83444 0.41824 0.0
N1661 N 0.01468 0.76903 0.3425 0.0
C1662 C 0.07355 0.81819 0.39796 0.0
C1663 C 0.03813 0.78506 0.35548 0.0
N1664 N 0.03501 0.85758 0.3931 0.0
N1665 N 0.0675 0.73943 0.3677 0.0
H1666 H 0.99499 0.78009 0.33446 0.0
H1667 H 0.01366 0.74528 0.34203 0.0
H1668 H 0.08419 0.72767 0.38021 0.0
H1669 H 0.05738 0.72666 0.35024 0.0
H1670 H 0.04157 0.86804 0.41357 0.0
H1671 H 0.0137 0.86459 0.38471 0.0
H1672 H 0.08897 0.85813 0.42075 0.0
H1673 H 0.10872 0.82445 0.4306 0.0
C1674 C 0.00925 0.67398 0.91556 0.0
C1675 C 1.00388 0.68239 0.88474 0.0
C1676 C 0.03579 0.72825 0.89239 0.0
C1677 C 0.04646 0.71564 0.92044 0.0
N1678 N 0.04421 0.67515 0.95836 0.0
N1679 N 0.99535 0.72754 0.85435 0.0
C1680 C 0.03319 0.68828 0.9321 0.0
C1681 C 0.01255 0.71244 0.87559 0.0
N1682 N 0.98952 0.65438 0.92978 0.0
N1683 N 0.04769 0.75526 0.88198 0.0
H1684 H 0.97363 0.71961 0.84833 0.0
H1685 H 0.99978 0.74972 0.84686 0.0
H1686 H 0.0638 0.76784 0.8944 0.0
H1687 H 0.04298 0.76431 0.8604 0.0
H1688 H 0.99059 0.64939 0.95314 0.0
H1689 H 0.96973 0.64651 0.91883 0.0
H1690 H 0.03731 0.65357 0.96588 0.0
H1691 H 0.06217 0.68444 0.97109 0.0
C1692 C 0.96071 0.72664 0.38743 0.0
C1693 C 0.92818 0.72757 0.38493 0.0
C1694 C 0.93056 0.69025 0.34326 0.0
C1695 C 0.96271 0.68746 0.34726 0.0
N1696 N 0.00696 0.69674 0.37881 0.0
N1697 N 0.88278 0.70006 0.36917 0.0
C1698 C 0.9773 0.70344 0.37144 0.0
C1699 C 0.91321 0.70627 0.36547 0.0
N1700 N 0.97593 0.74886 0.40333 0.0
N1701 N 0.91656 0.6788 0.31773 0.0
H1702 H 0.87 0.7089 0.38734 0.0
H1703 H 0.87155 0.68296 0.3568 0.0
H1704 H 0.92858 0.66798 0.30015 0.0
H1705 H 0.89348 0.68272 0.31282 0.0
H1706 H 0.99975 0.75018 0.40439 0.0
H1707 H 0.96489 0.76786 0.41266 0.0
H1708 H 0.01799 0.70592 0.3979 0.0
H1709 H 0.01957 0.68008 0.36716 0.0
C1710 C 0.95897 0.79967 0.86015 0.0
C1711 C 0.98299 0.81913 0.87034 0.0
C1712 C 0.97335 0.80354 0.9233 0.0
C1713 C 0.95063 0.78243 0.91306 0.0
N1714 N 0.92695 0.75553 0.87101 0.0
N1715 N 0.01854 0.83289 0.90992 0.0
C1716 C 0.94511 0.77891 0.88119 0.0
C1717 C 0.99206 0.81861 0.9014 0.0
N1718 N 0.94838 0.80196 0.83084 0.0
N1719 N 0.97548 0.81134 0.95359 0.0
H1720 H 0.03267 0.84389 0.89405 0.0
H1721 H 0.0279 0.83094 0.93183 0.0
H1722 H 0.96063 0.80315 0.97038 0.0
H1723 H 0.98978 0.82873 0.96154 0.0
H1724 H 0.92868 0.79095 0.82305 0.0
H1725 H 0.95797 0.81676 0.8149 0.0
H1726 H 0.92406 0.75027 0.84789 0.0
H1727 H 0.91732 0.73937 0.88577 0.0
C1728 C 0.13426 0.06946 0.16949 0.0
C1729 C 0.14248 0.03913 0.1777 0.0
C1730 C 0.11333 0.04334 0.22529 0.0
C1731 C 0.10722 0.07455 0.21855 0.0
N1732 N 0.10122 0.11317 0.17957 0.0
N1733 N 0.12835 0.99381 0.20499 0.0
C1734 C 0.11425 0.08632 0.189 0.0
C1735 C 0.12804 0.02492 0.20286 0.0
N1736 N 0.14636 0.08236 0.14369 0.0
N1737 N 0.10706 0.03183 0.2537 0.0
H1738 H 0.13929 0.98023 0.18857 0.0
H1739 H 0.11487 0.9819 0.2207 0.0
H1740 H 0.09797 0.04509 0.27136 0.0
H1741 H 0.11319 0.00977 0.26043 0.0
H1742 H 0.14298 0.10512 0.13757 0.0
H1743 H 0.1604 0.07028 0.12859 0.0
H1744 H 0.10339 0.12201 0.15751 0.0
H1745 H 0.08544 0.12503 0.193 0.0
C1746 C 0.31576 0.6187 0.0276 0.0
C1747 C 0.3405 0.63455 0.04111 0.0
C1748 C 0.33036 0.6084 0.08987 0.0
C1749 C 0.30387 0.59466 0.07702 0.0
N1750 N 0.26712 0.5934 0.0357 0.0
N1751 N 0.36832 0.64899 0.08649 0.0
C1752 C 0.29519 0.60208 0.04651 0.0
C1753 C 0.34686 0.63084 0.07279 0.0
N1754 N 0.31306 0.61795 0.99648 0.0
N1755 N 0.34047 0.5979 0.11748 0.0
H1756 H 0.38093 0.66517 0.07432 0.0
H1757 H 0.37166 0.64988 0.11013 0.0
H1758 H 0.36107 0.60437 0.12775 0.0
H1759 H 0.36107 0.60437 0.12775 0.0
H1760 H 0.29881 0.60237 0.98536 0.0
H1761 H 0.32767 0.63008 0.98195 0.0
H1762 H 0.25944 0.59845 0.01368 0.0
H1763 H 0.25058 0.58339 0.04979 0.0
C1764 C 0.87472 0.46248 0.19124 0.0
C1765 C 0.84285 0.46293 0.19786 0.0
C1766 C 0.85212 0.4281 0.24128 0.0
C1767 C 0.88296 0.42475 0.23204 0.0
N1768 N 0.92122 0.4324 0.19307 0.0
N1769 N 0.80043 0.43955 0.22532 0.0
C1770 C 0.89371 0.44029 0.20564 0.0
C1771 C 0.83124 0.44409 0.22199 0.0
N1772 N 0.88704 0.4836 0.17171 0.0
N1773 N 0.84291 0.41623 0.26872 0.0
H1774 H 0.78408 0.44886 0.21065 0.0
H1775 H 0.79122 0.42372 0.24065 0.0
H1776 H 0.85792 0.4046 0.28331 0.0
H1777 H 0.82142 0.42061 0.27822 0.0
H1778 H 0.91059 0.48584 0.1683 0.0
H1779 H 0.87401 0.50094 0.16162 0.0
H1780 H 0.92886 0.44094 0.1721 0.0
H1781 H 0.9349 0.41504 0.20211 0.0
C1782 C 0.69831 0.8929 0.00791 0.0
C1783 C 0.68399 0.8691 0.02449 0.0
C1784 C 0.71863 0.87855 0.06758 0.0
C1785 C 0.72697 0.90691 0.05426 0.0
N1786 N 0.74303 0.9254 0.00487 0.0
N1787 N 0.68072 0.83831 0.07024 0.0
C1788 C 0.72218 0.9099 0.02215 0.0
C1789 C 0.69446 0.86137 0.05427 0.0
N1790 N 0.68886 0.89933 0.97878 0.0
N1791 N 0.73639 0.86625 0.09016 0.0
H1792 H 0.66319 0.82502 0.06094 0.0
H1793 H 0.68556 0.83383 0.09322 0.0
H1794 H 0.75679 0.87676 0.097 0.0
H1795 H 0.73303 0.84427 0.0989 0.0
H1796 H 0.69637 0.91839 0.96652 0.0
H1797 H 0.67202 0.88646 0.96769 0.0
H1798 H 0.74082 0.92891 0.9814 0.0
H1799 H 0.76411 0.93211 0.01408 0.0
C1800 C 0.1333 0.972 0.3189 0.0
C1801 C 0.16254 0.97876 0.3065 0.0
C1802 C 0.15047 0.94747 0.26159 0.0
C1803 C 0.12473 0.93546 0.27709 0.0
N1804 N 0.09098 0.9362 0.32077 0.0
N1805 N 0.1819 0.99247 0.25674 0.0
C1806 C 0.11557 0.94811 0.30562 0.0
C1807 C 0.16681 0.97212 0.27495 0.0
N1808 N 0.12117 0.99074 0.34076 0.0
N1809 N 0.15913 0.93562 0.23399 0.0
H1810 H 0.18825 0.01404 0.26498 0.0
H1811 H 0.18439 0.98958 0.23318 0.0
H1812 H 0.14668 0.91848 0.2229 0.0
H1813 H 0.17949 0.94189 0.22314 0.0
H1814 H 0.09877 0.98872 0.34881 0.0
H1815 H 0.13257 0.01059 0.34776 0.0
H1816 H 0.08503 0.94259 0.34301 0.0
H1817 H 0.07824 0.91803 0.312 0.0
C1818 C 0.21744 0.61855 0.95497 0.0
C1819 C 0.20277 0.59926 0.93355 0.0
C1820 C 0.154 0.62498 0.94443 0.0
C1821 C 0.16731 0.63844 0.97089 0.0
N1822 N 0.21215 0.64744 1.00208 0.0
N1823 N 0.15705 0.58478 0.90617 0.0
C1824 C 0.19934 0.63556 0.97609 0.0
C1825 C 0.17101 0.60287 0.92755 0.0
N1826 N 0.2486 0.62059 0.95498 0.0
N1827 N 0.12576 0.63442 0.93471 0.0
H1828 H 0.16913 0.56939 0.8924 0.0
H1829 H 0.1334 0.58424 0.90301 0.0
H1830 H 0.11377 0.65212 0.9454 0.0
H1831 H 0.11585 0.62732 0.91417 0.0
H1832 H 0.26039 0.63712 0.96749 0.0
H1833 H 0.2622 0.60804 0.93981 0.0
H1834 H 0.23528 0.64538 0.00757 0.0
H1835 H 0.19921 0.6572 0.01961 0.0
C1836 C 0.88519 0.58286 0.3083 0.0
C1837 C 0.89485 0.57343 0.27887 0.0
C1838 C 0.86709 0.52518 0.2859 0.0
C1839 C 0.85273 0.53737 0.31247 0.0
N1840 N 0.84449 0.58138 0.34549 0.0
N1841 N 0.89352 0.53632 0.23822 0.0
C1842 C 0.86094 0.56713 0.32296 0.0
C1843 C 0.88568 0.54458 0.26734 0.0
N1844 N 0.8998 0.60652 0.32248 0.0
N1845 N 0.86348 0.49499 0.27876 0.0
H1846 H 0.90696 0.55013 0.22408 0.0
H1847 H 0.88469 0.517 0.22739 0.0
H1848 H 0.85025 0.48014 0.29204 0.0
H1849 H 0.87624 0.48426 0.2617 0.0
H1850 H 0.89531 0.61305 0.34504 0.0
H1851 H 0.91905 0.61681 0.31283 0.0
H1852 H 0.84801 0.60418 0.35165 0.0
H1853 H 0.82525 0.57174 0.35572 0.0
C1854 C 0.81194 0.86782 0.97678 0.0
C1855 C 0.84329 0.86265 0.96999 0.0
C1856 C 0.83871 0.89587 0.92495 0.0
C1857 C 0.80689 0.89958 0.93101 0.0
N1858 N 0.76197 0.8795 0.95571 0.0
N1859 N 0.88295 0.86299 0.93141 0.0
C1860 C 0.79307 0.88233 0.95466 0.0
C1861 C 0.85568 0.87398 0.94213 0.0
N1862 N 0.80057 0.86076 0.00503 0.0
N1863 N 0.85309 0.91394 0.90385 0.0
H1864 H 0.89486 0.84532 0.94225 0.0
H1865 H 0.89172 0.86879 0.90994 0.0
H1866 H 0.84161 0.9303 0.89081 0.0
H1867 H 0.87683 0.91421 0.90106 0.0
H1868 H 0.77834 0.86641 0.01176 0.0
H1869 H 0.81437 0.85237 0.02267 0.0
H1870 H 0.75092 0.86485 0.97102 0.0
H1871 H 0.74776 0.8896 0.93928 0.0
C1872 C 0.19243 0.13509 0.10289 0.0
C1873 C 0.21188 0.11614 0.08501 0.0
C1874 C 0.18772 0.13532 0.03784 0.0
C1875 C 0.16938 0.15538 0.05567 0.0
N1876 N 0.14839 0.16913 0.10487 0.0
N1877 N 0.22351 0.0928 0.03639 0.0
C1878 C 0.16983 0.15351 0.08818 0.0
C1879 C 0.20787 0.11436 0.05276 0.0
N1880 N 0.19585 0.13556 0.13404 0.0
N1881 N 0.18698 0.13753 0.00657 0.0
H1882 H 0.24064 0.07912 0.0459 0.0
H1883 H 0.21815 0.08715 0.01383 0.0
H1884 H 0.17131 0.15151 0.99506 0.0
H1885 H 0.2025 0.12656 0.99213 0.0
H1886 H 0.18566 0.15172 0.14831 0.0
H1887 H 0.20936 0.11972 0.1458 0.0
H1888 H 0.1456 0.16693 0.12846 0.0
H1889 H 0.13131 0.18239 0.09474 0.0
C1890 C 0.19854 0.89846 0.44341 0.0
C1891 C 0.23001 0.89148 0.43878 0.0
C1892 C 0.22894 0.85989 0.48513 0.0
C1893 C 0.19648 0.85988 0.48405 0.0
N1894 N 0.15697 0.89795 0.48014 0.0
N1895 N 0.27633 0.86782 0.45723 0.0
C1896 C 0.18271 0.88472 0.46834 0.0
C1897 C 0.24569 0.87316 0.46051 0.0
N1898 N 0.18372 0.91808 0.42408 0.0
N1899 N 0.24338 0.85177 0.51157 0.0
H1900 H 0.28915 0.87752 0.43951 0.0
H1901 H 0.28828 0.85223 0.47087 0.0
H1902 H 0.23106 0.84681 0.5315 0.0
H1903 H 0.26688 0.85415 0.5146 0.0
H1904 H 0.16005 0.92137 0.42461 0.0
H1905 H 0.19492 0.92985 0.4066 0.0
H1906 H 0.14738 0.91804 0.47147 0.0
H1907 H 0.14783 0.89069 0.50106 0.0
C1908 C 0.10703 0.53401 0.86023 0.0
C1909 C 0.13203 0.52091 0.84418 0.0
C1910 C 0.11988 0.55247 0.79932 0.0
C1911 C 0.09245 0.56197 0.81368 0.0
N1912 N 0.05824 0.56035 0.85719 0.0
N1913 N 0.15918 0.51346 0.7967 0.0
C1914 C 0.08552 0.55233 0.84402 0.0
C1915 C 0.13784 0.52921 0.8133 0.0
N1916 N 0.10473 0.53015 0.89123 0.0
N1917 N 0.12897 0.56593 0.77258 0.0
H1918 H 0.17136 0.49488 0.80552 0.0
H1919 H 0.16207 0.5164 0.77321 0.0
H1920 H 0.11602 0.58275 0.76152 0.0
H1921 H 0.15045 0.56221 0.76285 0.0
H1922 H 0.08858 0.54141 0.90473 0.0
H1923 H 0.12117 0.51842 0.90404 0.0
H1924 H 0.05035 0.55105 0.87772 0.0
H1925 H 0.04253 0.57493 0.84664 0.0
C1926 C 0.80732 0.6138 0.43367 0.0
C1927 C 0.78137 0.62234 0.41619 0.0
C1928 C 0.7887 0.67545 0.43213 0.0
C1929 C 0.81166 0.66604 0.4535 0.0
N1930 N 0.83679 0.62387 0.47939 0.0
N1931 N 0.74341 0.66027 0.4038 0.0
C1932 C 0.81907 0.63442 0.45583 0.0
C1933 C 0.77067 0.65285 0.41723 0.0
N1934 N 0.82215 0.58699 0.42764 0.0
N1935 N 0.78569 0.70551 0.42389 0.0
H1936 H 0.72966 0.64397 0.39299 0.0
H1937 H 0.73326 0.68178 0.40619 0.0
H1938 H 0.80058 0.72263 0.43126 0.0
H1939 H 0.77086 0.71275 0.40658 0.0
H1940 H 0.8431 0.58132 0.43772 0.0
H1941 H 0.81512 0.57208 0.41036 0.0
H1942 H 0.84078 0.60058 0.48301 0.0
H1943 H 0.8444 0.63801 0.49711 0.0
C1944 C 0.37842 0.49073 0.30598 0.0
C1945 C 0.36912 0.47896 0.33471 0.0
C1946 C 0.4015 0.43408 0.32747 0.0
C1947 C 0.40943 0.44466 0.29761 0.0
N1948 N 0.39906 0.47926 0.25577 0.0
N1949 N 0.36349 0.43541 0.36775 0.0
C1950 C 0.39583 0.47184 0.28597 0.0
C1951 C 0.37803 0.44928 0.34383 0.0
N1952 N 0.37183 0.52035 0.29847 0.0
N1953 N 0.41756 0.41096 0.34119 0.0
H1954 H 0.34485 0.44561 0.37865 0.0
H1955 H 0.36743 0.41269 0.37402 0.0
H1956 H 0.43637 0.40038 0.33109 0.0
H1957 H 0.41426 0.4046 0.364 0.0
H1958 H 0.38083 0.53116 0.27918 0.0
H1959 H 0.35942 0.53481 0.31292 0.0
H1960 H 0.38687 0.49706 0.24553 0.0
H1961 H 0.41132 0.46559 0.24044 0.0
C1962 C 0.32051 0.87862 0.54427 0.0
C1963 C 0.31661 0.84704 0.55086 0.0
C1964 C 0.27968 0.86039 0.59106 0.0
C1965 C 0.28745 0.89163 0.58794 0.0
N1966 N 0.31954 0.93011 0.56459 0.0
N1967 N 0.29698 0.80825 0.58545 0.0
C1968 C 0.30887 0.90077 0.56517 0.0
C1969 C 0.2973 0.83794 0.57554 0.0
N1970 N 0.33466 0.88748 0.51779 0.0
N1971 N 0.25503 0.85222 0.6085 0.0
H1972 H 0.3108 0.79123 0.57605 0.0
H1973 H 0.28547 0.80128 0.60519 0.0
H1974 H 0.24106 0.86839 0.61926 0.0
H1975 H 0.24659 0.8299 0.60937 0.0
H1976 H 0.33539 0.91018 0.51043 0.0
H1977 H 0.34294 0.87183 0.50171 0.0
H1978 H 0.33736 0.93723 0.55039 0.0
H1979 H 0.31278 0.94649 0.58048 0.0
C1980 C 0.12842 0.44352 0.66625 0.0
C1981 C 0.13648 0.47336 0.67617 0.0
C1982 C 0.10841 0.46448 0.72398 0.0
C1983 C 0.0961 0.43688 0.71185 0.0
N1984 N 0.08982 0.404 0.66739 0.0
N1985 N 0.12953 0.51439 0.71219 0.0
C1986 C 0.10502 0.42719 0.68195 0.0
C1987 C 0.12537 0.4844 0.70455 0.0
N1988 N 0.14341 0.43056 0.64205 0.0
N1989 N 0.10398 0.47154 0.75416 0.0
H1990 H 0.14153 0.52972 0.69834 0.0
H1991 H 0.11813 0.52461 0.73047 0.0
H1992 H 0.09336 0.45657 0.7695 0.0
H1993 H 0.11315 0.4909 0.76451 0.0
H1994 H 0.14038 0.40776 0.6356 0.0
H1995 H 0.16123 0.4416 0.63062 0.0
H1996 H 0.09364 0.39837 0.64448 0.0
H1997 H 0.07114 0.39257 0.6768 0.0
C1998 C 0.87838 0.06485 0.72772 0.0
C1999 C 0.91036 0.059 0.72628 0.0
C2000 C 0.90007 0.01689 0.69028 0.0
C2001 C 0.86938 0.0268 0.6872 0.0
N2002 N 0.83041 0.0639 0.69995 0.0
N2003 N 0.95208 0.032 0.70109 0.0
C2004 C 0.85862 0.05156 0.70539 0.0
C2005 C 0.9214 0.03541 0.70648 0.0
N2006 N 0.86687 0.08303 0.75045 0.0
N2007 N 0.90879 0.98967 0.6776 0.0
H2008 H 0.96881 0.04604 0.71063 0.0
H2009 H 0.96076 0.01718 0.68449 0.0
H2010 H 0.89334 0.97551 0.66603 0.0
H2011 H 0.93022 0.9798 0.68147 0.0
H2012 H 0.84344 0.08591 0.75417 0.0
H2013 H 0.88073 0.09257 0.76748 0.0
H2014 H 0.82263 0.08385 0.71051 0.0
H2015 H 0.81617 0.05607 0.68254 0.0
C2016 C 0.5313 0.71831 0.64776 0.0
C2017 C 0.54432 0.69176 0.66149 0.0
C2018 C 0.58971 0.69797 0.62911 0.0
C2019 C 0.57931 0.72721 0.62003 0.0
N2020 N 0.54117 0.76688 0.62257 0.0
N2021 N 0.58969 0.66034 0.66936 0.0
C2022 C 0.55019 0.73779 0.62962 0.0
C2023 C 0.57451 0.68246 0.65316 0.0
N2024 N 0.50086 0.72455 0.65152 0.0
N2025 N 0.61382 0.68479 0.61422 0.0
H2026 H 0.58064 0.6497 0.68867 0.0
H2027 H 0.61271 0.65506 0.66567 0.0
H2028 H 0.62393 0.69509 0.59519 0.0
H2029 H 0.62099 0.66236 0.61831 0.0
H2030 H 0.48963 0.7419 0.63955 0.0
H2031 H 0.48628 0.71042 0.66415 0.0
H2032 H 0.52165 0.777 0.63183 0.0
H2033 H 0.55461 0.7817 0.60949 0.0
C2034 C 0.9351 0.2176 0.63841 0.0
C2035 C 0.95002 0.22861 0.61179 0.0
C2036 C 0.99591 0.19968 0.62664 0.0
C2037 C 0.97818 0.1829 0.64789 0.0
N2038 N 0.93028 0.176 0.67451 0.0
N2039 N 1.00007 0.24768 0.59979 0.0
C2040 C 0.94766 0.19212 0.65422 0.0
C2041 C 0.98226 0.2247 0.6108 0.0
N2042 N 0.91119 0.23371 0.65047 0.0
N2043 N 0.02559 0.19144 0.62124 0.0
H2044 H 0.99067 0.26891 0.59394 0.0
H2045 H 0.02384 0.24709 0.60122 0.0
H2046 H 0.03622 0.1735 0.63301 0.0
H2047 H 0.03868 0.201 0.60368 0.0
H2048 H 0.90109 0.22834 0.67145 0.0
H2049 H 0.90417 0.25451 0.64087 0.0
H2050 H 0.90699 0.18024 0.67788 0.0
H2051 H 0.93868 0.15683 0.68591 0.0
C2052 C 0.44472 0.80058 0.6138 0.0
C2053 C 0.42717 0.7749 0.62336 0.0
C2054 C 0.44394 0.78382 0.67621 0.0
C2055 C 0.46397 0.80756 0.66603 0.0
N2056 N 0.48911 0.83231 0.62346 0.0
N2057 N 0.41704 0.7373 0.66228 0.0
C2058 C 0.46631 0.81379 0.63422 0.0
C2059 C 0.42911 0.76496 0.65416 0.0
N2060 N 0.43898 0.81414 0.5863 0.0
N2061 N 0.43713 0.78049 0.70661 0.0
H2062 H 0.40686 0.72267 0.64632 0.0
H2063 H 0.42023 0.72762 0.68392 0.0
H2064 H 0.44537 0.79505 0.72362 0.0
H2065 H 0.42048 0.76531 0.71453 0.0
H2066 H 0.44925 0.83455 0.57939 0.0
H2067 H 0.42095 0.80722 0.57249 0.0
H2068 H 0.49328 0.83542 0.60012 0.0
H2069 H 0.50584 0.84171 0.63776 0.0
C2070 C 0.04924 0.31426 0.64923 0.0
C2071 C 0.02411 0.33248 0.63936 0.0
C2072 C 0.03525 0.31851 0.5862 0.0
C2073 C 0.05815 0.29752 0.5963 0.0
N2074 N 0.08077 0.26987 0.63864 0.0
N2075 N 0.98814 0.34466 0.59939 0.0
C2076 C 0.06322 0.29362 0.62824 0.0
C2077 C 0.0155 0.3322 0.6081 0.0
N2078 N 0.06118 0.31798 0.67789 0.0
N2079 N 0.03332 0.32687 0.55607 0.0
H2080 H 0.97268 0.35379 0.6152 0.0
H2081 H 0.9795 0.3427 0.57717 0.0
H2082 H 0.04864 0.3193 0.53942 0.0
H2083 H 0.01866 0.34411 0.54835 0.0
H2084 H 0.08127 0.30721 0.68509 0.0
H2085 H 0.05312 0.33443 0.69312 0.0
H2086 H 0.08284 0.26453 0.66185 0.0
H2087 H 0.09046 0.25363 0.624 0.0
C2088 C 0.60278 0.30132 0.86619 0.0
C2089 C 0.58487 0.27747 0.87882 0.0
C2090 C 0.53869 0.29831 0.85456 0.0
C2091 C 0.5569 0.3212 0.84028 0.0
N2092 N 0.60437 0.34949 0.83858 0.0
N2093 N 0.53558 0.2571 0.89198 0.0
C2094 C 0.58837 0.32438 0.84816 0.0
C2095 C 0.55265 0.27729 0.87526 0.0
N2096 N 0.63377 0.30125 0.87085 0.0
N2097 N 0.50827 0.29614 0.84741 0.0
H2098 H 0.54548 0.2407 0.90631 0.0
H2099 H 0.5118 0.25808 0.89352 0.0
H2100 H 0.49699 0.31232 0.83385 0.0
H2101 H 0.49447 0.27791 0.85405 0.0
H2102 H 0.64898 0.31574 0.85957 0.0
H2103 H 0.64461 0.28557 0.88532 0.0
H2104 H 0.62617 0.35502 0.84653 0.0
H2105 H 0.5949 0.36643 0.8247 0.0
C2106 C 0.5956 0.19126 0.38132 0.0
C2107 C 0.58664 0.22134 0.38988 0.0
C2108 C 0.53826 0.21536 0.36227 0.0
C2109 C 0.5462 0.18466 0.35532 0.0
N2110 N 0.58648 0.1477 0.34797 0.0
N2111 N 0.55659 0.26555 0.37753 0.0
C2112 C 0.57629 0.17397 0.36155 0.0
C2113 C 0.56037 0.23461 0.37637 0.0
N2114 N 0.62177 0.17874 0.39308 0.0
N2115 N 0.50901 0.22543 0.35761 0.0
H2116 H 0.5727 0.27971 0.38818 0.0
H2117 H 0.53961 0.2769 0.36513 0.0
H2118 H 0.49168 0.21113 0.34953 0.0
H2119 H 0.50139 0.24703 0.36431 0.0
H2120 H 0.6275 0.15571 0.3907 0.0
H2121 H 0.63747 0.19134 0.40587 0.0
H2122 H 0.60898 0.13985 0.34956 0.0
H2123 H 0.57315 0.13553 0.33234 0.0
C2124 C 0.45975 0.21616 0.88897 0.0
C2125 C 0.43898 0.23957 0.87973 0.0
C2126 C 0.45124 0.22903 0.82603 0.0
C2127 C 0.47356 0.20707 0.83536 0.0
N2128 N 0.50508 0.18678 0.87593 0.0
N2129 N 0.42295 0.27457 0.84033 0.0
C2130 C 0.47993 0.20315 0.86696 0.0
C2131 C 0.43748 0.24809 0.84848 0.0
N2132 N 0.45875 0.20452 0.91794 0.0
N2133 N 0.44128 0.23033 0.79634 0.0
H2134 H 0.41356 0.28942 0.85658 0.0
H2135 H 0.42341 0.28328 0.81807 0.0
H2136 H 0.44888 0.21557 0.7792 0.0
H2137 H 0.42292 0.24401 0.78945 0.0
H2138 H 0.47144 0.18547 0.9248 0.0
H2139 H 0.4428 0.21158 0.93407 0.0
H2140 H 0.51227 0.18548 0.8987 0.0
H2141 H 0.52047 0.17736 0.86022 0.0
C2142 C 0.43609 0.29354 0.38195 0.0
C2143 C 0.44924 0.28562 0.41062 0.0
C2144 C 0.4955 0.31419 0.39689 0.0
C2145 C 0.4797 0.32745 0.37195 0.0
N2146 N 0.43488 0.3296 0.33976 0.0
N2147 N 0.49891 0.26863 0.42779 0.0
C2148 C 0.45011 0.31672 0.36386 0.0
C2149 C 0.48133 0.29022 0.41362 0.0
N2150 N 0.41267 0.27633 0.3705 0.0
N2151 N 0.52396 0.32448 0.40466 0.0
H2152 H 0.48974 0.24742 0.43402 0.0
H2153 H 0.5227 0.27006 0.42935 0.0
H2154 H 0.53527 0.34142 0.39211 0.0
H2155 H 0.53526 0.31728 0.42448 0.0
H2156 H 0.40389 0.27912 0.34844 0.0
H2157 H 0.40491 0.25679 0.38194 0.0
H2158 H 0.41196 0.32497 0.33488 0.0
H2159 H 0.44473 0.34634 0.32587 0.0
C2160 C 0.62018 0.56995 0.70551 0.0
C2161 C 0.62848 0.58497 0.73303 0.0
C2162 C 0.68168 0.56897 0.72565 0.0
C2163 C 0.6727 0.5511 0.69975 0.0
N2164 N 0.63137 0.52822 0.67089 0.0
N2165 N 0.66538 0.59345 0.77289 0.0
C2166 C 0.64123 0.54947 0.69162 0.0
C2167 C 0.65868 0.58248 0.74437 0.0
N2168 N 0.59313 0.57685 0.69142 0.0
N2169 N 0.71188 0.57534 0.73106 0.0
H2170 H 0.64876 0.60359 0.78681 0.0
H2171 H 0.6864 0.58972 0.78365 0.0
H2172 H 0.72959 0.56839 0.71666 0.0
H2173 H 0.7191 0.59052 0.74802 0.0
H2174 H 0.58733 0.56861 0.66974 0.0
H2175 H 0.57791 0.5931 0.70008 0.0
H2176 H 0.60821 0.52458 0.6662 0.0
H2177 H 0.64608 0.51211 0.66106 0.0
C2178 C 0.8216 0.14647 0.57351 0.0
C2179 C 0.8257 0.14154 0.54155 0.0
C2180 C 0.77895 0.11075 0.54107 0.0
C2181 C 0.78028 0.10871 0.57349 0.0
N2182 N 0.78492 0.14445 0.61497 0.0
N2183 N 0.80721 0.11998 0.49429 0.0
C2184 C 0.79661 0.13218 0.58874 0.0
C2185 C 0.80366 0.12448 0.52501 0.0
N2186 N 0.84132 0.16488 0.58927 0.0
N2187 N 0.75289 0.10211 0.52614 0.0
H2188 H 0.82521 0.12969 0.48189 0.0
H2189 H 0.79374 0.10459 0.48195 0.0
H2190 H 0.73365 0.09453 0.53823 0.0
H2191 H 0.74945 0.10561 0.50273 0.0
H2192 H 0.84114 0.16662 0.61311 0.0
H2193 H 0.85875 0.17717 0.57858 0.0
H2194 H 0.79431 0.1635 0.62587 0.0
H2195 H 0.7631 0.13836 0.62275 0.0
C2196 C 0.37891 0.98086 0.69792 0.0
C2197 C 0.34683 0.97764 0.70216 0.0
C2198 C 0.35684 0.93938 0.74244 0.0
C2199 C 0.38806 0.9384 0.73395 0.0
N2200 N 0.42888 0.95716 0.70161 0.0
N2201 N 0.30493 0.95146 0.72784 0.0
C2202 C 0.39928 0.95916 0.71145 0.0
C2203 C 0.33565 0.95642 0.72444 0.0
N2204 N 0.38995 0.00505 0.68138 0.0
N2205 N 0.34765 0.92445 0.76838 0.0
H2206 H 0.28816 0.96393 0.71647 0.0
H2207 H 0.29602 0.93343 0.7407 0.0
H2208 H 0.36301 0.91251 0.78235 0.0
H2209 H 0.32581 0.92672 0.77777 0.0
H2210 H 0.41316 0.01048 0.68006 0.0
H2211 H 0.37562 0.0216 0.6717 0.0
H2212 H 0.43725 0.96911 0.68272 0.0
H2213 H 0.44458 0.9419 0.71087 0.0
C2214 C 0.21881 0.38425 0.56682 0.0
C2215 C 0.21702 0.41589 0.55964 0.0
C2216 C 0.18201 0.4033 0.51729 0.0
C2217 C 0.17954 0.37295 0.52827 0.0
N2218 N 0.19039 0.33705 0.56878 0.0
N2219 N 0.19058 0.456 0.53136 0.0
C2220 C 0.19679 0.36391 0.5543 0.0
C2221 C 0.19719 0.42567 0.53548 0.0
N2222 N 0.24154 0.37356 0.58553 0.0
N2223 N 0.16962 0.41076 0.48954 0.0
H2224 H 0.19863 0.47328 0.54569 0.0
H2225 H 0.17412 0.46367 0.51581 0.0
H2226 H 0.1587 0.39458 0.47571 0.0
H2227 H 0.17309 0.43195 0.47908 0.0
H2228 H 0.2451 0.35027 0.58947 0.0
H2229 H 0.25873 0.38775 0.59421 0.0
H2230 H 0.20022 0.33091 0.5897 0.0
H2231 H 0.17256 0.32294 0.56181 0.0
C2232 C 0.66669 0.43937 0.80034 0.0
C2233 C 0.66381 0.47174 0.80206 0.0
C2234 C 0.62521 0.47028 0.76108 0.0
C2235 C 0.62616 0.43779 0.76169 0.0
N2236 N 0.64186 0.39165 0.78766 0.0
N2237 N 0.63788 0.51805 0.78688 0.0
C2238 C 0.64518 0.42241 0.78303 0.0
C2239 C 0.64226 0.48727 0.78325 0.0
N2240 N 0.69075 0.42482 0.81419 0.0
N2241 N 0.60899 0.48477 0.73856 0.0
H2242 H 0.65041 0.53103 0.80258 0.0
H2243 H 0.62036 0.5302 0.77612 0.0
H2244 H 0.59701 0.47285 0.72164 0.0
H2245 H 0.60935 0.50836 0.7352 0.0
H2246 H 0.69575 0.40171 0.81092 0.0
H2247 H 0.70759 0.43642 0.82644 0.0
H2248 H 0.65369 0.37964 0.80457 0.0
H2249 H 0.62476 0.37877 0.77707 0.0
C2250 C 0.66312 0.12267 0.4391 0.0
C2251 C 0.68045 0.14288 0.45755 0.0
C2252 C 0.72804 0.12581 0.43266 0.0
C2253 C 0.71078 0.10403 0.41586 0.0
N2254 N 0.6621 0.08826 0.39536 0.0
N2255 N 0.72754 0.16954 0.46749 0.0
C2256 C 0.67827 0.10485 0.41644 0.0
C2257 C 0.71243 0.14646 0.45268 0.0
N2258 N 0.6325 0.11921 0.44464 0.0
N2259 N 0.75924 0.12594 0.43001 0.0
H2260 H 0.71622 0.18515 0.48165 0.0
H2261 H 0.7506 0.17468 0.46441 0.0
H2262 H 0.77086 0.11144 0.41497 0.0
H2263 H 0.77372 0.14006 0.44258 0.0
H2264 H 0.619 0.10249 0.43429 0.0
H2265 H 0.62087 0.13209 0.46108 0.0
H2266 H 0.63844 0.08987 0.39266 0.0
H2267 H 0.67286 0.07509 0.37851 0.0
C2268 C 0.36231 0.07714 0.83482 0.0
C2269 C 0.3473 0.05098 0.82267 0.0
C2270 C 0.37193 0.05953 0.77286 0.0
C2271 C 0.38705 0.0855 0.78495 0.0
N2272 N 0.4036 0.11385 0.82924 0.0
N2273 N 0.34433 0.01254 0.78343 0.0
C2274 C 0.38446 0.09262 0.8166 0.0
C2275 C 0.35444 0.04058 0.79276 0.0
N2276 N 0.35425 0.08819 0.86302 0.0
N2277 N 0.37258 0.05416 0.74204 0.0
H2278 H 0.33146 0.99818 0.79758 0.0
H2279 H 0.35161 1.00247 0.76313 0.0
H2280 H 0.38475 0.06792 0.72676 0.0
H2281 H 0.35887 0.03782 0.7314 0.0
H2282 H 0.36174 0.1092 0.87149 0.0
H2283 H 0.33851 0.07726 0.87729 0.0
H2284 H 0.40488 0.11814 0.8527 0.0
H2285 H 0.42038 0.12499 0.81646 0.0
C2286 C 0.29875 0.37895 0.4934 0.0
C2287 C 0.33094 0.37702 0.48907 0.0
C2288 C 0.32835 0.41943 0.45259 0.0
C2289 C 0.29582 0.41881 0.45376 0.0
N2290 N 0.24959 0.39538 0.47278 0.0
N2291 N 0.37491 0.39003 0.45834 0.0
C2292 C 0.2808 0.39768 0.4734 0.0
C2293 C 0.34532 0.3957 0.46682 0.0
N2294 N 0.28563 0.36408 0.51755 0.0
N2295 N 0.34321 0.44352 0.43926 0.0
H2296 H 0.3875 0.37165 0.46703 0.0
H2297 H 0.38555 0.40137 0.44019 0.0
H2298 H 0.33165 0.46224 0.42993 0.0
H2299 H 0.36692 0.44633 0.44035 0.0
H2300 H 0.26253 0.3659 0.52311 0.0
H2301 H 0.29862 0.3522 0.53373 0.0
H2302 H 0.23754 0.37826 0.48423 0.0
H2303 H 0.2359 0.40916 0.45879 0.0
C2304 C 0.7176 0.64647 0.59439 0.0
C2305 C 0.74332 0.63224 0.58074 0.0
C2306 C 0.72834 0.65386 0.53093 0.0
C2307 C 0.70502 0.67112 0.54575 0.0
N2308 N 0.68572 0.69136 0.59369 0.0
N2309 N 0.77643 0.62644 0.53701 0.0
C2310 C 0.70202 0.66965 0.57813 0.0
C2311 C 0.74963 0.63702 0.54918 0.0
N2312 N 0.70711 0.63702 0.62232 0.0
N2313 N 0.72978 0.65306 0.49965 0.0
H2314 H 0.7928 0.61491 0.55011 0.0
H2315 H 0.78357 0.63159 0.51483 0.0
H2316 H 0.71436 0.66491 0.48571 0.0
H2317 H 0.74459 0.6387 0.48761 0.0
H2318 H 0.68685 0.64538 0.63192 0.0
H2319 H 0.71636 0.61829 0.63393 0.0
H2320 H 0.68508 0.69232 0.61758 0.0
H2321 H 0.67604 0.71038 0.58294 0.0
C2322 C 0.67543 0.36514 0.92872 0.0
C2323 C 0.68928 0.34849 0.95303 0.0
C2324 C 0.73757 0.37611 0.94476 0.0
C2325 C 0.72389 0.39175 0.91982 0.0
N2326 N 0.67867 0.4053 0.89115 0.0
N2327 N 0.73056 0.34329 0.98927 0.0
C2328 C 0.69241 0.38778 0.91313 0.0
C2329 C 0.71945 0.35582 0.96278 0.0
N2330 N 0.64626 0.35936 0.91916 0.0
N2331 N 0.76828 0.37926 0.94989 0.0
H2332 H 0.71753 0.32854 1.00287 0.0
H2333 H 0.75134 0.34956 0.99915 0.0
H2334 H 0.78198 0.39406 0.93706 0.0
H2335 H 0.78054 0.36572 0.96525 0.0
H2336 H 0.63192 0.34291 0.92891 0.0
H2337 H 0.63192 0.34291 0.92891 0.0
H2338 H 0.65564 0.40274 0.8851 0.0
H2339 H 0.69008 0.4231 0.88006 0.0
C2340 C 0.61452 0.04258 0.32977 0.0
C2341 C 0.63945 0.03007 0.31336 0.0
C2342 C 0.62709 0.06261 0.26914 0.0
C2343 C 0.59941 0.07133 0.28379 0.0
N2344 N 0.56604 0.06942 0.32801 0.0
N2345 N 0.66907 0.02596 0.26712 0.0
C2346 C 0.59305 0.06145 0.31425 0.0
C2347 C 0.64594 0.0398 0.28305 0.0
N2348 N 0.61193 0.03681 0.36046 0.0
N2349 N 0.63505 0.07582 0.2419 0.0
H2350 H 0.68301 0.0091 0.27682 0.0
H2351 H 0.67301 0.02948 0.24383 0.0
H2352 H 0.62124 0.09204 0.23098 0.0
H2353 H 0.65613 0.07235 0.23126 0.0
H2354 H 0.59609 0.04763 0.37466 0.0
H2355 H 0.62762 0.02321 0.37235 0.0
H2356 H 0.55834 0.05996 0.34852 0.0
H2357 H 0.55036 0.08446 0.31811 0.0
C2358 C 0.28849 0.12037 0.96145 0.0
C2359 C 0.28288 0.12303 0.92953 0.0
C2360 C 0.32318 0.16178 0.92492 0.0
C2361 C 0.32778 0.16048 0.95721 0.0
N2362 N 0.31773 0.13719 0.00614 0.0
N2363 N 0.29956 0.13927 0.87976 0.0
C2364 C 0.31155 0.13894 0.97541 0.0
C2365 C 0.30171 0.14168 0.91094 0.0
N2366 N 0.27151 0.10009 0.97817 0.0
N2367 N 0.33817 0.18337 0.90787 0.0
H2368 H 0.28428 0.12433 0.86904 0.0
H2369 H 0.31459 0.14982 0.86454 0.0
H2370 H 0.35493 0.19769 0.91695 0.0
H2371 H 0.33301 0.18826 0.88509 0.0
H2372 H 0.27504 0.09535 1.00121 0.0
H2373 H 0.25373 0.08729 0.96866 0.0
H2374 H 0.30619 0.12327 0.02162 0.0
H2375 H 0.33526 0.14981 0.01643 0.0
C2376 C 0.88768 0.93658 0.79161 0.0
C2377 C 0.91953 0.94322 0.79166 0.0
C2378 C 0.9091 0.98752 0.82497 0.0
C2379 C 0.87868 0.97743 0.82904 0.0
N2380 N 0.84156 0.9372 0.82206 0.0
N2381 N 0.96113 0.97177 0.81557 0.0
C2382 C 0.86851 0.95062 0.81382 0.0
C2383 C 0.93051 0.96804 0.81006 0.0
N2384 N 0.87556 0.91731 0.77015 0.0
N2385 N 0.91758 0.01564 0.83567 0.0
H2386 H 0.97786 0.95666 0.80786 0.0
H2387 H 0.96963 0.9879 0.831 0.0
H2388 H 0.90214 0.03027 0.84664 0.0
H2389 H 0.93884 0.02543 0.83084 0.0
H2390 H 0.85202 0.91376 0.7679 0.0
H2391 H 0.8887 0.9077 0.75262 0.0
H2392 H 0.83464 0.91591 0.81371 0.0
H2393 H 0.82778 0.94586 0.83949 0.0
C2394 C 0.80766 0.37207 0.03512 0.0
C2395 C 0.80312 0.34058 0.04159 0.0
C2396 C 0.76318 0.3546 0.07857 0.0
C2397 C 0.77225 0.38563 0.07678 0.0
N2398 N 0.80621 0.42362 0.05498 0.0
N2399 N 0.77937 0.30199 0.0738 0.0
C2400 C 0.79499 0.39448 0.05513 0.0
C2401 C 0.78131 0.33174 0.0642 0.0
N2402 N 0.82414 0.38055 0.00988 0.0
N2403 N 0.73714 0.34707 0.09418 0.0
H2404 H 0.79336 0.28452 0.0655 0.0
H2405 H 0.76597 0.29522 0.09238 0.0
H2406 H 0.72311 0.36363 0.10426 0.0
H2407 H 0.72787 0.32506 0.09411 0.0
H2408 H 0.8257 0.40315 1.00233 0.0
H2409 H 0.83348 0.3646 0.99468 0.0
H2410 H 0.82519 0.43026 0.04209 0.0
H2411 H 0.79842 0.44056 0.06968 0.0
C2412 C 0.62767 0.93113 0.20716 0.0
C2413 C 0.60167 0.9452 0.22057 0.0
C2414 C 0.61801 0.99446 0.19934 0.0
C2415 C 0.63831 0.97885 0.17951 0.0
N2416 N 0.66534 0.9324 0.16649 0.0
N2417 N 0.59107 0.99178 0.2477 0.0
C2418 C 0.64424 0.94719 0.18417 0.0
C2419 C 0.60218 0.9776 0.22223 0.0
N2420 N 0.63922 0.90496 0.21972 0.0
N2421 N 0.61302 0.02506 0.1956 0.0
H2422 H 0.58379 0.97927 0.26679 0.0
H2423 H 0.59225 0.01528 0.25097 0.0
H2424 H 0.62475 0.038 0.17925 0.0
H2425 H 0.59581 0.03682 0.2073 0.0
H2426 H 0.6598 0.89502 0.21274 0.0
H2427 H 0.63019 0.89593 0.23999 0.0
H2428 H 0.66817 0.90869 0.16681 0.0
H2429 H 0.67876 0.94376 0.15035 0.0
C2430 C 0.36806 0.55011 0.19613 0.0
C2431 C 0.37911 0.52336 0.18124 0.0
C2432 C 0.4303 0.53382 0.20162 0.0
C2433 C 0.41834 0.55828 0.21969 0.0
N2434 N 0.37354 0.58385 0.23976 0.0
N2435 N 0.41888 0.48515 0.17787 0.0
C2436 C 0.38642 0.56447 0.21884 0.0
C2437 C 0.40969 0.51378 0.18646 0.0
N2438 N 0.34117 0.56325 0.18712 0.0
N2439 N 0.46113 0.53061 0.19708 0.0
H2440 H 0.40381 0.46912 0.16854 0.0
H2441 H 0.44032 0.47621 0.18359 0.0
H2442 H 0.47734 0.54594 0.20549 0.0
H2443 H 0.47031 0.51464 0.18185 0.0
H2444 H 0.33343 0.58417 0.19567 0.0
H2445 H 0.3289 0.55541 0.16826 0.0
H2446 H 0.34991 0.58701 0.24156 0.0
H2447 H 0.3862 0.59397 0.25736 0.0
C2448 C 0.98689 0.02032 0.23071 0.0
C2449 C 0.98672 0.03346 0.26066 0.0
C2450 C 0.98918 0.98163 0.28305 0.0
C2451 C 0.99098 0.96859 0.2531 0.0
N2452 N 0.99574 0.9758 0.19847 0.0
N2453 N 0.99189 0.02692 0.31532 0.0
C2454 C 0.99132 0.98807 0.227 0.0
C2455 C 0.98934 0.01417 0.28678 0.0
N2456 N 0.98196 0.03849 0.20562 0.0
N2457 N 0.98647 0.96294 0.30808 0.0
H2458 H 0.98972 0.05034 0.31947 0.0
H2459 H 0.99809 0.01459 0.3348 0.0
H2460 H 0.98759 0.93917 0.30691 0.0
H2461 H 0.98101 0.97078 0.32994 0.0
H2462 H 0.97772 0.03 0.18373 0.0
H2463 H 0.9799 0.06219 0.20674 0.0
H2464 H 1.00057 0.98886 0.17909 0.0
H2465 H 0.99653 0.95232 0.19424 0.0
C2466 C 0.2663 0.73749 0.98355 0.0
C2467 C 0.28358 0.76087 0.99871 0.0
C2468 C 0.23494 0.78573 0.01382 0.0
C2469 C 0.21798 0.76307 0.99804 0.0
N2470 N 0.21841 0.7244 0.95864 0.0
N2471 N 0.28274 0.81351 0.01615 0.0
C2472 C 0.23389 0.74098 0.9802 0.0
C2473 C 0.2674 0.78685 0.01036 0.0
N2474 N 0.28004 0.71154 0.97276 0.0
N2475 N 0.22017 0.80634 0.03221 0.0
H2476 H 0.30579 0.81653 0.01059 0.0
H2477 H 0.27173 0.83379 0.02231 0.0
H2478 H 0.19638 0.80672 0.03481 0.0
H2479 H 0.23179 0.82135 0.04672 0.0
H2480 H 0.2676 0.69233 0.96597 0.0
H2481 H 0.3035 0.70815 0.97163 0.0
H2482 H 0.22918 0.71001 0.94291 0.0
H2483 H 0.1953 0.72798 0.95399 0.0
C2484 C 0.04712 0.51773 0.26735 0.0
C2485 C 0.02542 0.53473 0.24974 0.0
C2486 C 0.99724 0.48661 0.23988 0.0
C2487 C 0.01701 0.4705 0.2602 0.0
N2488 N 0.05834 0.47183 0.29673 0.0
N2489 N 0.98987 0.53087 0.20732 0.0
C2490 C 0.04125 0.48645 0.27488 0.0
C2491 C 1.00294 0.51807 0.23281 0.0
N2492 N 0.07508 0.53027 0.27382 0.0
N2493 N 0.973 0.47179 0.22695 0.0
H2494 H 0.99809 0.55086 0.19725 0.0
H2495 H 0.97471 0.51941 0.19291 0.0
H2496 H 0.96975 0.44839 0.22934 0.0
H2497 H 0.95501 0.48303 0.21595 0.0
H2498 H 0.09282 0.51825 0.28437 0.0
H2499 H 0.08238 0.55087 0.2642 0.0
H2500 H 0.07406 0.48308 0.31075 0.0
H2501 H 0.05461 0.44904 0.30296 0.0
C2502 C 0.77177 0.71327 0.99953 0.0
C2503 C 0.78826 0.73951 0.00997 0.0
C2504 C 0.73821 0.76439 0.0201 0.0
C2505 C 0.72273 0.74061 1.00409 0.0
N2506 N 0.72593 0.69386 0.97496 0.0
N2507 N 0.78523 0.79093 0.03158 0.0
C2508 C 0.73992 0.71555 0.99271 0.0
C2509 C 0.771 0.76527 0.02076 0.0
N2510 N 0.78596 0.68537 0.99831 0.0
N2511 N 0.72167 0.78527 0.03647 0.0
H2512 H 0.8081 0.79214 0.03777 0.0
H2513 H 0.77387 0.81173 0.03441 0.0
H2514 H 0.69792 0.78578 0.03633 0.0
H2515 H 0.73134 0.80027 0.05233 0.0
H2516 H 0.77436 0.6651 0.99336 0.0
H2517 H 0.80812 0.68178 0.00653 0.0
H2518 H 0.73805 0.67675 0.96351 0.0
H2519 H 0.70269 0.69477 0.96928 0.0
C2520 C 0.23056 0.97212 0.9944 0.0
C2521 C 0.24824 0.99069 0.97421 0.0
C2522 C 0.27699 0.01051 0.01884 0.0
C2523 C 0.26204 0.9891 0.0382 0.0
N2524 N 0.226 0.94779 0.04437 0.0
N2525 N 0.29213 0.02357 0.96721 0.0
C2526 C 0.23925 0.96936 0.02592 0.0
C2527 C 0.27224 0.00914 0.98649 0.0
N2528 N 0.20463 0.95813 0.98372 0.0
N2529 N 0.2962 0.03194 0.03126 0.0
H2530 H 0.29063 0.02155 0.94362 0.0
H2531 H 0.31195 0.03474 0.97443 0.0
H2532 H 0.30159 0.03281 0.05454 0.0
H2533 H 0.30508 0.0503 0.01888 0.0
H2534 H 0.18904 0.94682 0.99779 0.0
H2535 H 0.19705 0.9603 0.96113 0.0
H2536 H 0.21201 0.93031 0.03615 0.0
H2537 H 0.23053 0.9462 0.06782 0.0
C2538 C 0.26949 0.50845 0.27314 0.0
C2539 C 0.24165 0.50682 0.28983 0.0
C2540 C 0.21574 0.49 0.24214 0.0
C2541 C 0.24449 0.48938 0.22658 0.0
N2542 N 0.29888 0.48238 0.23476 0.0
N2543 N 0.18665 0.50406 0.2878 0.0
C2544 C 0.2715 0.49414 0.24405 0.0
C2545 C 0.21424 0.49961 0.27359 0.0
N2546 N 0.29361 0.52523 0.28364 0.0
N2547 N 0.19036 0.47883 0.22753 0.0
H2548 H 0.18499 0.51324 0.30984 0.0
H2549 H 0.16549 0.50187 0.27704 0.0
H2550 H 0.19145 0.46884 0.20582 0.0
H2551 H 0.16902 0.4762 0.23781 0.0
H2552 H 0.31347 0.52834 0.27067 0.0
H2553 H 0.29196 0.53963 0.3026 0.0
H2554 H 0.31878 0.48426 0.24794 0.0
H2555 H 0.30043 0.46649 0.21702 0.0
C2556 C 0.72727 0.49742 0.98474 0.0
C2557 C 0.74733 0.51767 0.96893 0.0
C2558 C 0.76091 0.5412 0.01825 0.0
C2559 C 0.74587 0.51721 0.03456 0.0
N2560 N 0.71126 0.4736 0.03196 0.0
N2561 N 0.78515 0.55775 0.97105 0.0
C2562 C 0.72791 0.49575 0.01748 0.0
C2563 C 0.76474 0.53918 0.98585 0.0
N2564 N 0.70628 0.48075 0.9686 0.0
N2565 N 0.76955 0.56717 0.03346 0.0
H2566 H 0.78817 0.55743 0.94731 0.0
H2567 H 0.80084 0.57157 0.9826 0.0
H2568 H 0.76402 0.57101 0.05642 0.0
H2569 H 0.77824 0.58649 0.02246 0.0
H2570 H 0.6884 0.46854 0.97863 0.0
H2571 H 0.70503 0.48117 0.94489 0.0
H2572 H 0.70399 0.45364 0.02106 0.0
H2573 H 0.70395 0.47505 0.05454 0.0
C2574 C 0.79267 0.01312 0.23146 0.0
C2575 C 0.76748 0.99989 0.21574 0.0
C2576 C 0.75288 0.97262 0.26304 0.0
C2577 C 0.77632 0.98821 0.27959 0.0
N2578 N 0.8272 0.0097 0.27467 0.0
N2579 N 0.72162 0.96912 0.21733 0.0
C2580 C 0.7987 0.00489 0.26257 0.0
C2581 C 0.74697 0.98035 0.23181 0.0
N2582 N 0.81057 0.03424 0.21679 0.0
N2583 N 0.73882 0.94776 0.27594 0.0
H2584 H 0.71744 0.97266 0.19419 0.0
H2585 H 0.70357 0.95847 0.22875 0.0
H2586 H 0.74634 0.93794 0.2964 0.0
H2587 H 0.7232 0.93389 0.26441 0.0
H2588 H 0.82705 0.04741 0.22797 0.0
H2589 H 0.80688 0.0408 0.19406 0.0
H2590 H 0.84508 0.01984 0.26256 0.0
H2591 H 0.83479 0.9988 0.2945 0.0
C2592 C 0.23845 0.99201 0.48766 0.0
C2593 C 0.25531 0.01489 0.47169 0.0
C2594 C 0.26095 0.04318 0.52 0.0
C2595 C 0.24962 0.01771 0.53702 0.0
N2596 N 0.22285 0.96892 0.53542 0.0
N2597 N 0.28546 0.06104 0.4735 0.0
C2598 C 0.23691 0.99246 0.52043 0.0
C2599 C 0.26737 0.04009 0.48815 0.0
N2600 N 0.22208 0.97082 0.47149 0.0
N2601 N 0.26331 0.07123 0.53372 0.0
H2602 H 0.29072 0.05963 0.4502 0.0
H2603 H 0.2975 0.0781 0.4851 0.0
H2604 H 0.25527 0.07539 0.55585 0.0
H2605 H 0.26897 0.09114 0.52182 0.0
H2606 H 0.20598 0.95616 0.48122 0.0
H2607 H 0.22283 0.96938 0.44779 0.0
H2608 H 0.21991 0.94727 0.52578 0.0
H2609 H 0.21303 0.97106 0.55699 0.0
C2610 C 0.28781 0.48182 0.77214 0.0
C2611 C 0.26594 0.49629 0.79137 0.0
C2612 C 0.24212 0.51946 0.74511 0.0
C2613 C 0.26485 0.50545 0.72602 0.0
N2614 N 0.31646 0.48533 0.72493 0.0
N2615 N 0.22799 0.53614 0.7962 0.0
C2616 C 0.2898 0.49019 0.74064 0.0
C2617 C 0.24461 0.51707 0.77785 0.0
N2618 N 0.30639 0.45936 0.78363 0.0
N2619 N 0.218 0.53507 0.73262 0.0
H2620 H 0.22965 0.53562 0.81987 0.0
H2621 H 0.21504 0.55448 0.78806 0.0
H2622 H 0.21625 0.54145 0.70983 0.0
H2623 H 0.19887 0.54169 0.74517 0.0
H2624 H 0.3207 0.44612 0.76979 0.0
H2625 H 0.30515 0.45178 0.80629 0.0
H2626 H 0.33619 0.47657 0.73522 0.0
H2627 H 0.32018 0.49408 0.70297 0.0
C2628 C 0.77441 0.51659 0.48156 0.0
C2629 C 0.7548 0.49388 0.46889 0.0
C2630 C 0.74629 0.47391 0.52091 0.0
C2631 C 0.76136 0.49974 0.53402 0.0
N2632 N 0.7899 0.54676 0.52514 0.0
N2633 N 0.71828 0.45341 0.47756 0.0
C2634 C 0.7756 0.5213 0.51394 0.0
C2635 C 0.73966 0.47328 0.48892 0.0
N2636 N 0.79363 0.53259 0.46291 0.0
N2637 N 0.73992 0.44895 0.53871 0.0
H2638 H 0.71233 0.45258 0.45439 0.0
H2639 H 0.7043 0.44003 0.49156 0.0
H2640 H 0.74697 0.44726 0.5615 0.0
H2641 H 0.73142 0.42847 0.52985 0.0
H2642 H 0.81201 0.54537 0.47121 0.0
H2643 H 0.79291 0.53091 0.43923 0.0
H2644 H 0.7953 0.56559 0.51145 0.0
H2645 H 0.79616 0.54969 0.54786 0.0
C2646 C 0.76415 0.98271 0.76972 0.0
C2647 C 0.74398 1.00284 0.78571 0.0
C2648 C 0.71392 0.00909 0.73838 0.0
C2649 C 0.73674 0.99337 0.72113 0.0
N2650 N 0.77884 0.95732 0.72256 0.0
N2651 N 0.70203 0.03869 0.78378 0.0
C2652 C 0.76056 0.97792 0.73744 0.0
C2653 C 0.71964 0.01706 0.76952 0.0
N2654 N 0.78567 0.96667 0.78571 0.0
N2655 N 0.68547 0.0137 0.72611 0.0
H2656 H 0.70571 0.04547 0.80645 0.0
H2657 H 0.68595 0.05204 0.77218 0.0
H2658 H 0.67866 1.00367 0.7055 0.0
H2659 H 0.66724 0.02297 0.73847 0.0
H2660 H 0.79853 0.94866 0.7769 0.0
H2661 H 0.79023 0.97095 0.80856 0.0
H2662 H 0.80045 0.95064 0.73019 0.0
H2663 H 0.77152 0.94546 0.70317 0.0
C2664 C 0.9839 0.23833 0.97371 0.0
C2665 C 0.9685 0.25896 0.99358 0.0
C2666 C 0.01645 0.28809 0.99999 0.0
C2667 C 0.03276 0.26535 0.98335 0.0
N2668 N 0.02824 0.22943 0.9415 0.0
N2669 N 0.97101 0.30152 0.02877 0.0
C2670 C 0.01553 0.24317 0.96662 0.0
C2671 C 0.98503 0.28337 0.00746 0.0
N2672 N 0.96835 0.21399 0.96159 0.0
N2673 N 0.03001 0.31569 0.00579 0.0
H2674 H 0.94814 0.29889 0.03496 0.0
H2675 H 0.98282 0.31713 0.04245 0.0
H2676 H 0.05122 0.3217 0.99653 0.0
H2677 H 0.01855 0.3342 0.01559 0.0
H2678 H 0.97906 0.19608 0.95001 0.0
H2679 H 0.945 0.21038 0.9652 0.0
H2680 H 0.01633 0.21468 0.92702 0.0
H2681 H 0.04895 0.23667 0.93209 0.0
C2682 C 0.98716 0.73293 0.49697 0.0
C2683 C 0.97018 0.75399 0.51513 0.0
C2684 C 0.01814 0.76805 0.54097 0.0
C2685 C 0.03587 0.75278 0.51804 0.0
N2686 N 0.03491 0.71926 0.47312 0.0
N2687 N 0.97036 0.79346 0.55369 0.0
C2688 C 0.01982 0.7348 0.49572 0.0
C2689 C 0.98599 0.77224 0.53677 0.0
N2690 N 0.9724 0.70955 0.48241 0.0
N2691 N 0.03152 0.77649 0.56801 0.0
H2692 H 0.94671 0.79664 0.55188 0.0
H2693 H 0.98135 0.80946 0.56762 0.0
H2694 H 0.05391 0.77026 0.57374 0.0
H2695 H 0.0192 0.78554 0.58637 0.0
H2696 H 0.9837 0.69169 0.47126 0.0
H2697 H 0.94915 0.70564 0.48506 0.0
H2698 H 0.02379 0.71131 0.45351 0.0
H2699 H 0.05809 0.71414 0.47313 0.0
C2700 C 0.03407 0.76598 0.762 0.0
C2701 C 0.016 0.78178 0.73995 0.0
C2702 C 0.99335 0.73244 0.72402 0.0
C2703 C 0.00824 0.71769 0.74888 0.0
N2704 N 0.03901 0.72169 0.79467 0.0
N2705 N 0.99148 0.77676 0.6906 0.0
C2706 C 0.02752 0.73483 0.76873 0.0
C2707 C 0.99902 0.76415 0.71829 0.0
N2708 N 0.05963 0.77947 0.7741 0.0
N2709 N 0.97328 0.71624 0.70622 0.0
H2710 H 0.99987 0.79798 0.68355 0.0
H2711 H 0.98115 0.76464 0.67284 0.0
H2712 H 0.96898 0.69295 0.70952 0.0
H2713 H 0.95897 0.72632 0.68997 0.0
H2714 H 0.07483 0.76818 0.78867 0.0
H2715 H 0.06875 0.79976 0.76547 0.0
H2716 H 0.05065 0.7339 0.81156 0.0
H2717 H 0.03371 0.69946 0.80108 0.0
C2718 C 0.50435 0.24245 0.21035 0.0
C2719 C 0.49336 0.22561 0.23604 0.0
C2720 C 0.48472 0.27505 0.26247 0.0
C2721 C 0.50165 0.29059 0.23933 0.0
N2722 N 0.53102 0.28764 0.19259 0.0
N2723 N 0.46971 0.22774 0.28667 0.0
C2724 C 0.51241 0.27383 0.21366 0.0
C2725 C 0.48244 0.24237 0.26209 0.0
N2726 N 0.50526 0.22895 0.18209 0.0
N2727 N 0.46895 0.29155 0.28385 0.0
H2728 H 0.46093 0.2057 0.28621 0.0
H2729 H 0.46717 0.23812 0.30802 0.0
H2730 H 0.47024 0.31519 0.28534 0.0
H2731 H 0.45254 0.28219 0.29843 0.0
H2732 H 0.51068 0.24088 0.1621 0.0
H2733 H 0.49643 0.2071 0.17808 0.0
H2734 H 0.5419 0.27558 0.17505 0.0
H2735 H 0.53805 0.31041 0.19444 0.0
C2736 C 0.48522 0.77856 0.50772 0.0
C2737 C 0.46959 0.75587 0.49051 0.0
C2738 C 0.51922 0.73967 0.46977 0.0
C2739 C 0.53518 0.75685 0.49268 0.0
N2740 N 0.53021 0.79134 0.53672 0.0
N2741 N 0.47249 0.71293 0.45598 0.0
C2742 C 0.51741 0.77597 0.51262 0.0
C2743 C 0.48686 0.73566 0.47198 0.0
N2744 N 0.46989 0.80382 0.51791 0.0
N2745 N 0.53445 0.7291 0.44452 0.0
H2746 H 0.44874 0.70992 0.45627 0.0
H2747 H 0.48446 0.69576 0.44444 0.0
H2748 H 0.55713 0.735 0.43978 0.0
H2749 H 0.52341 0.71844 0.4262 0.0
H2750 H 0.48082 0.82229 0.52841 0.0
H2751 H 0.44741 0.80842 0.51155 0.0
H2752 H 0.51691 0.80162 0.55374 0.0
H2753 H 0.55342 0.79257 0.54145 0.0
C2754 C 0.97299 0.27225 0.75339 0.0
C2755 C 0.99104 0.28869 0.7753 0.0
C2756 C 0.01678 0.24039 0.78954 0.0
C2757 C 0.99877 0.22394 0.76823 0.0
N2758 N 0.95875 0.22356 0.73032 0.0
N2759 N 0.01736 0.2834 0.82401 0.0
C2760 C 0.97675 0.23981 0.75011 0.0
C2761 C 0.00951 0.27147 0.79614 0.0
N2762 N 0.951 0.2872 0.73682 0.0
N2763 N 0.04087 0.22635 0.80377 0.0
H2764 H 0.00737 0.30326 0.83272 0.0
H2765 H 0.02915 0.27095 0.84067 0.0
H2766 H 0.04735 0.2039 0.7988 0.0
H2767 H 0.05639 0.23813 0.8176 0.0
H2768 H 0.94169 0.27899 0.71646 0.0
H2769 H 0.94059 0.30725 0.74456 0.0
H2770 H 0.93973 0.23228 0.71889 0.0
H2771 H 0.96283 0.20065 0.72544 0.0
C2772 C 0.51281 0.48959 0.72581 0.0
C2773 C 0.49022 0.47137 0.74078 0.0
C2774 C 0.47018 0.51784 0.76609 0.0
C2775 C 0.49441 0.53548 0.75354 0.0
N2776 N 0.54029 0.53761 0.72295 0.0
N2777 N 0.43891 0.47241 0.76141 0.0
C2778 C 0.51625 0.5211 0.73402 0.0
C2779 C 0.46649 0.48664 0.75723 0.0
N2780 N 0.52832 0.47812 0.70108 0.0
N2781 N 0.45107 0.5307 0.78735 0.0
H2782 H 0.43358 0.45158 0.75099 0.0
H2783 H 0.41983 0.48318 0.77091 0.0
H2784 H 0.45326 0.55333 0.79473 0.0
H2785 H 0.43512 0.5181 0.79988 0.0
H2786 H 0.54379 0.49069 0.688 0.0
H2787 H 0.52202 0.45796 0.69005 0.0
H2788 H 0.5594 0.52778 0.71259 0.0
H2789 H 0.54213 0.56104 0.72614 0.0
C2790 C 0.74091 0.23759 0.53971 0.0
C2791 C 0.72322 0.26119 0.52607 0.0
C2792 C 0.7696 0.28058 0.50012 0.0
C2793 C 0.78781 0.2593 0.51681 0.0
N2794 N 0.7907 0.2188 0.55447 0.0
N2795 N 0.72009 0.30584 0.49391 0.0
C2796 C 0.77337 0.23799 0.5369 0.0
C2797 C 0.73736 0.28273 0.50616 0.0
N2798 N 0.72657 0.21421 0.55489 0.0
N2799 N 0.78321 0.29856 0.47838 0.0
H2800 H 0.69649 0.30758 0.49746 0.0
H2801 H 0.72917 0.32423 0.48178 0.0
H2802 H 0.80667 0.29756 0.47372 0.0
H2803 H 0.7712 0.31271 0.46338 0.0
H2804 H 0.73758 0.19408 0.56151 0.0
H2805 H 0.70302 0.21376 0.55881 0.0
H2806 H 0.78212 0.20622 0.57286 0.0
H2807 H 0.81411 0.21656 0.55167 0.0
C2808 C 0.53539 0.98934 0.73837 0.0
C2809 C 0.51647 0.97217 0.75876 0.0
C2810 C 0.49404 0.02068 0.77734 0.0
C2811 C 0.51026 0.03716 0.75436 0.0
N2812 N 0.54419 0.03684 0.71084 0.0
N2813 N 0.49014 0.97436 0.80755 0.0
C2814 C 0.53023 0.02135 0.73421 0.0
C2815 C 0.49901 0.98852 0.78104 0.0
N2816 N 0.56065 0.97579 0.72569 0.0
N2817 N 0.47323 0.0357 0.79531 0.0
H2818 H 0.49838 0.95301 0.81422 0.0
H2819 H 0.47909 0.98552 0.82551 0.0
H2820 H 0.46983 0.05928 0.79428 0.0
H2821 H 0.45749 0.02454 0.80937 0.0
H2822 H 0.57682 0.98756 0.71267 0.0
H2823 H 0.56807 0.95401 0.73216 0.0
H2824 H 0.5561 0.02597 0.69322 0.0
H2825 H 0.54169 0.06038 0.70753 0.0
C2826 C 0.26848 0.22108 0.49446 0.0
C2827 C 0.285 0.24441 0.51053 0.0
C2828 C 0.23549 0.2611 0.53219 0.0
C2829 C 0.21935 0.24302 0.51058 0.0
N2830 N 0.2212 0.20705 0.46877 0.0
N2831 N 0.28072 0.29044 0.54248 0.0
C2832 C 0.2361 0.22369 0.49069 0.0
C2833 C 0.26765 0.26547 0.52887 0.0
N2834 N 0.28302 0.19496 0.48512 0.0
N2835 N 0.22054 0.27348 0.55672 0.0
H2836 H 0.30371 0.29606 0.54173 0.0
H2837 H 0.26767 0.3077 0.55264 0.0
H2838 H 0.1973 0.27024 0.56071 0.0
H2839 H 0.23203 0.28374 0.57501 0.0
H2840 H 0.27146 0.17653 0.47527 0.0
H2841 H 0.30543 0.18965 0.49153 0.0
H2842 H 0.2328 0.19477 0.45185 0.0
H2843 H 0.19742 0.20752 0.46609 0.0
C2844 C 0.53184 0.26953 0.99512 0.0
C2845 C 0.54474 0.24656 0.01442 0.0
C2846 C 0.49494 0.24249 0.04023 0.0
C2847 C 0.48024 0.25945 0.01643 0.0
N2848 N 0.4873 0.29336 0.97268 0.0
N2849 N 0.53628 0.20799 0.05318 0.0
C2850 C 0.49936 0.27404 0.99413 0.0
C2851 C 0.5256 0.23212 0.03632 0.0
N2852 N 0.5507 0.28923 0.97989 0.0
N2853 N 0.48063 0.23834 0.06777 0.0
H2854 H 0.55825 0.19892 0.05047 0.0
H2855 H 0.52214 0.19509 0.0675 0.0
H2856 H 0.46024 0.24951 0.07338 0.0
H2857 H 0.49134 0.22799 0.08649 0.0
H2858 H 0.54308 0.3083 0.9677 0.0
H2859 H 0.57427 0.28879 0.9827 0.0
H2860 H 0.4987 0.29873 0.95236 0.0
H2861 H 0.46678 0.3051 0.97552 0.0
C2862 C 0.48973 0.74246 0.288 0.0
C2863 C 0.50887 0.72551 0.26751 0.0
C2864 C 0.52952 0.77514 0.24972 0.0
C2865 C 0.50505 0.79095 0.26427 0.0
N2866 N 0.46023 0.78874 0.29643 0.0
N2867 N 0.54869 0.72827 0.22806 0.0
C2868 C 0.48449 0.77426 0.28292 0.0
C2869 C 0.52928 0.74247 0.24811 0.0
N2870 N 0.47858 0.72887 0.31391 0.0
N2871 N 0.55421 0.79109 0.23902 0.0
H2872 H 0.55476 0.70535 0.22877 0.0
H2873 H 0.55902 0.73992 0.20991 0.0
H2874 H 0.55665 0.81451 0.24223 0.0
H2875 H 0.57409 0.78064 0.23084 0.0
H2876 H 0.4664 0.74081 0.33065 0.0
H2877 H 0.48549 0.70708 0.32092 0.0
H2878 H 0.44293 0.77689 0.30789 0.0
H2879 H 0.45619 0.8122 0.29412 0.0
C2880 C 0.09008 0.14945 0.36665 0.0
C2881 C 0.05837 0.14247 0.36664 0.0
C2882 C 0.05395 0.16183 0.41933 0.0
C2883 C 0.08477 0.17212 0.41786 0.0
N2884 N 0.13297 0.17506 0.39156 0.0
N2885 N 0.01289 0.13219 0.39562 0.0
C2886 C 0.1032 0.16534 0.392 0.0
C2887 C 0.04111 0.14555 0.39394 0.0
N2888 N 0.10756 0.13986 0.34252 0.0
N2889 N 0.03675 0.16897 0.4445 0.0
H2890 H 0.0046 0.11825 0.37805 0.0
H2891 H 0.9992 0.13214 0.41515 0.0
H2892 H 0.0458 0.18076 0.46323 0.0
H2893 H 0.01334 0.16477 0.44629 0.0
H2894 H 0.13117 0.14268 0.34094 0.0
H2895 H 0.09839 0.12619 0.32519 0.0
H2896 H 0.14725 0.17364 0.37252 0.0
H2897 H 0.14325 0.18579 0.4103 0.0
C2898 C 0.40298 0.66382 0.89745 0.0
C2899 C 0.39972 0.69614 0.89884 0.0
C2900 C 0.42147 0.70096 0.84724 0.0
C2901 C 0.42597 0.66879 0.84636 0.0
N2902 N 0.41608 0.61889 0.867 0.0
N2903 N 0.39717 0.74434 0.87253 0.0
C2904 C 0.415 0.64998 0.87039 0.0
C2905 C 0.40605 0.71434 0.87275 0.0
N2906 N 0.3953 0.64663 0.92248 0.0
N2907 N 0.43337 0.71875 0.8244 0.0
H2908 H 0.38468 0.75391 0.89054 0.0
H2909 H 0.39922 0.75869 0.85357 0.0
H2910 H 0.44494 0.70953 0.80562 0.0
H2911 H 0.4337 0.74258 0.82502 0.0
H2912 H 0.40024 0.62343 0.92482 0.0
H2913 H 0.38408 0.65607 0.94138 0.0
H2914 H 0.40647 0.60345 0.88242 0.0
H2915 H 0.42506 0.60849 0.84741 0.0
C2916 C 0.96261 0.35898 0.39394 0.0
C2917 C 0.94528 0.35935 0.36646 0.0
C2918 C 0.90153 0.33641 0.39381 0.0
C2919 C 0.92063 0.33144 0.41959 0.0
N2920 N 0.96902 0.3374 0.44506 0.0
N2921 N 0.89708 0.3527 0.34063 0.0
C2922 C 0.95101 0.34296 0.42005 0.0
C2923 C 0.91417 0.34963 0.36672 0.0
N2924 N 0.98985 0.37428 0.39508 0.0
N2925 N 0.87126 0.32855 0.39559 0.0
H2926 H 0.90496 0.36505 0.32175 0.0
H2927 H 0.87544 0.34322 0.33745 0.0
H2928 H 0.86174 0.31857 0.41513 0.0
H2929 H 0.85512 0.33325 0.37867 0.0
H2930 H 1.00303 0.37655 0.41484 0.0
H2931 H 0.99757 0.38761 0.37681 0.0
H2932 H 0.99234 0.34232 0.44598 0.0
H2933 H 0.96085 0.32596 0.46441 0.0
C2934 C 0.58891 0.85346 0.87162 0.0
C2935 C 0.58339 0.83536 0.84525 0.0
C2936 C 0.61015 0.79182 0.86919 0.0
C2937 C 0.6125 0.80892 0.8967 0.0
N2938 N 0.61344 0.85787 0.92154 0.0
N2939 N 0.58917 0.78838 0.81738 0.0
C2940 C 0.6048 0.84046 0.89699 0.0
C2941 C 0.59458 0.80489 0.84343 0.0
N2942 N 0.57773 0.8827 0.87267 0.0
N2943 N 0.62322 0.76343 0.86783 0.0
H2944 H 0.57804 0.7978 0.79839 0.0
H2945 H 0.59459 0.76534 0.81471 0.0
H2946 H 0.63661 0.75489 0.88572 0.0
H2947 H 0.62323 0.74948 0.84852 0.0
H2948 H 0.57797 0.89638 0.89219 0.0
H2949 H 0.56665 0.89293 0.85409 0.0
H2950 H 0.61051 0.88148 0.92297 0.0
H2951 H 0.62639 0.84878 0.93949 0.0
C2952 C 0.04683 0.83384 0.12718 0.0
C2953 C 0.06058 0.8571 0.14553 0.0
C2954 C 0.10333 0.86035 0.10888 0.0
C2955 C 0.08925 0.83738 0.09085 0.0
N2956 N 0.04381 0.80951 0.07734 0.0
N2957 N 0.09907 0.89632 0.15132 0.0
C2958 C 0.05961 0.82671 0.0982 0.0
C2959 C 0.08775 0.87192 0.1353 0.0
N2960 N 0.02266 0.81716 0.13809 0.0
N2961 N 0.13219 0.86986 0.10144 0.0
H2962 H 0.08872 0.90468 0.17119 0.0
H2963 H 0.11736 0.90967 0.14385 0.0
H2964 H 0.14358 0.86188 0.08196 0.0
H2965 H 0.1454 0.88423 0.11514 0.0
H2966 H 0.01386 0.79794 0.12701 0.0
H2967 H 0.01295 0.82067 0.15955 0.0
H2968 H 0.02087 0.80344 0.08003 0.0
H2969 H 0.05277 0.80393 0.05588 0.0
C2970 C 0.1107 0.66179 0.14766 0.0
C2971 C 0.08916 0.67538 0.16776 0.0
C2972 C 0.08508 0.72002 0.13398 0.0
C2973 C 0.1068 0.70667 0.11341 0.0
N2974 N 0.14407 0.66697 0.10325 0.0
N2975 N 0.06219 0.72014 0.1847 0.0
C2976 C 0.12116 0.67839 0.12132 0.0
C2977 C 0.07862 0.70549 0.16241 0.0
N2978 N 0.11989 0.63239 0.15315 0.0
N2979 N 0.0692 0.74576 0.12577 0.0
H2980 H 0.05659 0.70976 0.20549 0.0
H2981 H 0.05653 0.74331 0.18382 0.0
H2982 H 0.07317 0.75784 0.10565 0.0
H2983 H 0.05034 0.75399 0.13786 0.0
H2984 H 0.13296 0.61944 0.13798 0.0
H2985 H 0.11292 0.62033 0.17261 0.0
H2986 H 0.15726 0.64797 0.10906 0.0
H2987 H 0.15148 0.67771 0.08326 0.0
C2988 C 0.92922 0.63731 0.10092 0.0
C2989 C 0.93707 0.66546 0.08676 0.0
C2990 C 0.97687 0.67363 0.12514 0.0
C2991 C 0.96423 0.64953 0.14332 0.0
N2992 N 0.92831 0.60749 0.14772 0.0
N2993 N 0.98251 0.69337 0.07364 0.0
C2994 C 0.94092 0.63052 0.13068 0.0
C2995 C 0.96525 0.67882 0.09523 0.0
N2996 N 0.91337 0.61592 0.0846 0.0
N2997 N 0.99913 0.69246 0.13654 0.0
H2998 H 0.97627 0.69308 0.05051 0.0
H2999 H 0.00461 0.70144 0.07784 0.0
H3000 H 0.00908 0.68964 0.15802 0.0
H3001 H 0.00616 0.71232 0.12526 0.0
H3002 H 0.90903 0.59386 0.09262 0.0
H3003 H 0.90855 0.61909 0.06135 0.0
H3004 H 0.90882 0.5955 0.14087 0.0
H3005 H 0.9359 0.6017 0.16963 0.0
C3006 C 0.90062 0.82987 0.11777 0.0
C3007 C 0.90834 0.79859 0.11302 0.0
C3008 C 0.94019 0.799 0.15951 0.0
C3009 C 0.93295 0.83037 0.16399 0.0
N3010 N 0.90258 0.87437 0.15149 0.0
N3011 N 0.92918 0.7515 0.13254 0.0
C3012 C 0.91183 0.84534 0.14439 0.0
C3013 C 0.92614 0.78258 0.13504 0.0
N3014 N 0.88384 0.84507 0.0961 0.0
N3015 N 0.96137 0.78528 0.17811 0.0
H3016 H 0.91829 0.73903 0.11529 0.0
H3017 H 0.93987 0.73776 0.14887 0.0
H3018 H 0.97161 0.79654 0.19654 0.0
H3019 H 0.97042 0.76357 0.17418 0.0
H3020 H 0.88038 0.86866 0.0961 0.0
H3021 H 0.87408 0.83402 0.07729 0.0
H3022 H 0.88518 0.88598 0.13998 0.0
H3023 H 0.91116 0.88618 0.17045 0.0
C3024 C 0.40545 0.04892 0.18601 0.0
C3025 C 0.41109 0.0793 0.17635 0.0
C3026 C 0.3677 0.07535 0.14045 0.0
C3027 C 0.3584 0.04763 0.15476 0.0
N3028 N 0.36794 0.00911 0.19364 0.0
N3029 N 0.39529 0.12315 0.14674 0.0
C3030 C 0.3773 0.03458 0.17807 0.0
C3031 C 0.39188 0.09287 0.15382 0.0
N3032 N 0.42733 0.03361 0.20237 0.0
N3033 N 0.35318 0.08534 0.11457 0.0
H3034 H 0.41175 0.13704 0.15706 0.0
H3035 H 0.37994 0.13518 0.13294 0.0
H3036 H 0.33565 0.07308 0.10399 0.0
H3037 H 0.3607 0.10407 0.10181 0.0
H3038 H 0.42578 0.0104 0.20777 0.0
H3039 H 0.44856 0.04333 0.20757 0.0
H3040 H 0.37893 1.00101 0.21325 0.0
H3041 H 0.34796 0.9973 0.18835 0.0
C3042 C 0.3377 0.38048 0.1197 0.0
C3043 C 0.30887 0.3885 0.10659 0.0
C3044 C 0.31124 0.34278 0.07372 0.0
C3045 C 0.34175 0.33763 0.08337 0.0
N3046 N 0.38473 0.35055 0.11492 0.0
N3047 N 0.26883 0.37815 0.06954 0.0
C3048 C 0.35502 0.35595 0.10658 0.0
C3049 C 0.29564 0.36963 0.08344 0.0
N3050 N 0.34886 0.39678 0.14402 0.0
N3051 N 0.2972 0.32177 0.0552 0.0
H3052 H 0.25586 0.39689 0.07652 0.0
H3053 H 0.26028 0.3678 0.04979 0.0
H3054 H 0.3083 0.30218 0.04719 0.0
H3055 H 0.27394 0.32232 0.04985 0.0
H3056 H 0.36844 0.3907 0.15622 0.0
H3057 H 0.33737 0.41538 0.1536 0.0
H3058 H 0.39735 0.36472 0.12936 0.0
H3059 H 0.39738 0.33236 0.1059 0.0
C3060 C 0.59498 0.45724 0.17177 0.0
C3061 C 0.59328 0.42515 0.17654 0.0
C3062 C 0.64411 0.41854 0.15352 0.0
C3063 C 0.64629 0.45078 0.14982 0.0
N3064 N 0.62122 0.49973 0.14703 0.0
N3065 N 0.61241 0.3746 0.16677 0.0
C3066 C 0.62072 0.46978 0.15607 0.0
C3067 C 0.61672 0.40557 0.16563 0.0
N3068 N 0.57273 0.47574 0.18373 0.0
N3069 N 0.66869 0.40056 0.14616 0.0
H3070 H 0.59252 0.3648 0.17574 0.0
H3071 H 0.62732 0.3587 0.15709 0.0
H3072 H 0.68797 0.40928 0.13501 0.0
H3073 H 0.6704 0.37739 0.1515 0.0
H3074 H 0.57399 0.49955 0.1839 0.0
H3075 H 0.55383 0.46713 0.19556 0.0
H3076 H 0.6026 0.51452 0.14901 0.0
H3077 H 0.63943 0.50888 0.13456 0.0
C3078 C 0.67952 0.12537 0.11418 0.0
C3079 C 0.70577 0.1117 0.10053 0.0
C3080 C 0.70979 0.15518 0.06484 0.0
C3081 C 0.68112 0.16624 0.07532 0.0
N3082 N 0.63834 0.16298 0.10951 0.0
N3083 N 0.74443 0.11222 0.06062 0.0
C3084 C 0.66606 0.15181 0.10017 0.0
C3085 C 0.7208 0.12649 0.07556 0.0
N3086 N 0.66715 0.11263 0.13998 0.0
N3087 N 0.72626 0.17186 0.04406 0.0
H3088 H 0.75327 0.09108 0.06711 0.0
H3089 H 0.75396 0.1201 0.04021 0.0
H3090 H 0.71796 0.19167 0.03367 0.0
H3091 H 0.74902 0.1672 0.03852 0.0
H3092 H 0.64942 0.12253 0.1525 0.0
H3093 H 0.67613 0.093 0.15025 0.0
H3094 H 0.6243 0.1522 0.12548 0.0
H3095 H 0.62868 0.18268 0.09994 0.0
C3096 C 0.38063 0.96411 0.3326 0.0
C3097 C 0.36431 0.95018 0.35727 0.0
C3098 C 0.40221 0.90841 0.35841 0.0
C3099 C 0.4182 0.9226 0.33402 0.0
N3100 N 0.42838 0.96783 0.30444 0.0
N3101 N 0.36228 0.91208 0.39725 0.0
C3102 C 0.40933 0.95188 0.32348 0.0
C3103 C 0.37625 0.92346 0.37163 0.0
N3104 N 0.36796 0.98784 0.31646 0.0
N3105 N 0.41118 0.87995 0.36782 0.0
H3106 H 0.34285 0.92215 0.40689 0.0
H3107 H 0.37108 0.8941 0.41023 0.0
H3108 H 0.43039 0.869 0.35866 0.0
H3109 H 0.39894 0.86661 0.38334 0.0
H3110 H 0.37753 0.99685 0.29653 0.0
H3111 H 0.3465 0.99706 0.32119 0.0
H3112 H 0.4248 0.99065 0.2984 0.0
H3113 H 0.44934 0.95912 0.29693 0.0
C3114 C 0.23145 0.36745 0.93273 0.0
C3115 C 0.21811 0.38474 0.90841 0.0
C3116 C 0.17341 0.35053 0.90898 0.0
C3117 C 0.18626 0.33431 0.93405 0.0
N3118 N 0.23038 0.32141 0.96415 0.0
N3119 N 0.18152 0.38604 0.8669 0.0
C3120 C 0.21633 0.34089 0.94402 0.0
C3121 C 0.19086 0.37394 0.89422 0.0
N3122 N 0.25812 0.37719 0.94583 0.0
N3123 N 0.14385 0.34476 0.90048 0.0
H3124 H 0.19413 0.40251 0.85512 0.0
H3125 H 0.16314 0.37746 0.85432 0.0
H3126 H 0.13052 0.32797 0.91104 0.0
H3127 H 0.13181 0.35806 0.88471 0.0
H3128 H 0.26679 0.36838 0.96623 0.0
H3129 H 0.27095 0.39509 0.93676 0.0
H3130 H 0.25336 0.32307 0.9704 0.0
H3131 H 0.2196 0.30179 0.97255 0.0
C3132 C 0.59539 0.55808 0.34812 0.0
C3133 C 0.59757 0.58841 0.33665 0.0
C3134 C 0.65128 0.59103 0.35285 0.0
C3135 C 0.65042 0.55943 0.36017 0.0
N3136 N 0.62116 0.51451 0.37212 0.0
N3137 N 0.62663 0.63426 0.32787 0.0
C3138 C 0.62213 0.54347 0.36032 0.0
C3139 C 0.62517 0.60521 0.33943 0.0
N3140 N 0.56781 0.54336 0.34648 0.0
N3141 N 0.67714 0.6074 0.35941 0.0
H3142 H 0.60762 0.6454 0.31853 0.0
H3143 H 0.64682 0.64677 0.32589 0.0
H3144 H 0.69581 0.59747 0.37059 0.0
H3145 H 0.67906 0.63101 0.35678 0.0
H3146 H 0.564 0.52097 0.35359 0.0
H3147 H 0.54822 0.55396 0.33769 0.0
H3148 H 0.60182 0.50062 0.37241 0.0
H3149 H 0.63988 0.50492 0.38348 0.0
C3150 C 0.84999 0.14062 0.90792 0.0
C3151 C 0.83384 0.16047 0.92804 0.0
C3152 C 0.78957 0.12607 0.92665 0.0
C3153 C 0.80504 0.10673 0.90534 0.0
N3154 N 0.84776 0.09886 0.87113 0.0
N3155 N 0.78576 0.17666 0.9493 0.0
C3156 C 0.83437 0.11535 0.89415 0.0
C3157 C 0.80275 0.15463 0.93496 0.0
N3158 N 0.88077 0.14453 0.90377 0.0
N3159 N 0.76304 0.1166 0.94026 0.0
H3160 H 0.79479 0.19807 0.95494 0.0
H3161 H 0.76216 0.17494 0.95259 0.0
H3162 H 0.75261 0.09582 0.9352 0.0
H3163 H 0.75279 0.12819 0.95847 0.0
H3164 H 0.89457 0.12897 0.89207 0.0
H3165 H 0.89312 0.162 0.91438 0.0
H3166 H 0.86779 0.10565 0.86009 0.0
H3167 H 0.83743 0.07974 0.86122 0.0
C3168 C 0.16084 0.3923 0.11083 0.0
C3169 C 0.17589 0.41348 0.09148 0.0
C3170 C 0.15362 0.38806 0.04638 0.0
C3171 C 0.14361 0.36367 0.06526 0.0
N3172 N 0.13508 0.34321 0.11583 0.0
N3173 N 0.18936 0.43018 0.04063 0.0
C3174 C 0.14616 0.36622 0.09771 0.0
C3175 C 0.17273 0.41123 0.05915 0.0
N3176 N 0.16039 0.39753 0.14171 0.0
N3177 N 0.14462 0.38928 0.01645 0.0
H3178 H 0.20427 0.44674 0.04924 0.0
H3179 H 0.19053 0.4276 0.01691 0.0
H3180 H 0.12902 0.3737 0.00727 0.0
H3181 H 0.14951 0.40763 1.00199 0.0
H3182 H 0.14767 0.3846 0.1572 0.0
H3183 H 0.17116 0.41644 0.15161 0.0
H3184 H 0.1393 0.3415 0.13926 0.0
H3185 H 0.12211 0.32517 0.10701 0.0
C3186 C 0.15388 0.62584 0.47067 0.0
C3187 C 0.14932 0.6521 0.45209 0.0
C3188 C 0.16482 0.62287 0.40646 0.0
C3189 C 0.17376 0.59833 0.42573 0.0
N3190 N 0.17702 0.57527 0.47554 0.0
N3191 N 0.14649 0.67541 0.40226 0.0
C3192 C 0.16791 0.59931 0.45767 0.0
C3193 C 0.15323 0.65033 0.41981 0.0
N3194 N 0.14472 0.62647 0.50061 0.0
N3195 N 0.16777 0.61967 0.37543 0.0
H3196 H 0.13567 0.69471 0.41135 0.0
H3197 H 0.15147 0.67741 0.37904 0.0
H3198 H 0.17677 0.59992 0.36539 0.0
H3199 H 0.16012 0.63562 0.35945 0.0
H3200 H 0.14574 0.60772 0.51531 0.0
H3201 H 0.13332 0.64527 0.50997 0.0
H3202 H 0.17637 0.57535 0.49939 0.0
H3203 H 0.18679 0.55548 0.4663 0.0
C3204 C 0.87128 0.58587 0.79048 0.0
C3205 C 0.89086 0.60867 0.80319 0.0
C3206 C 0.85624 0.61356 0.84745 0.0
C3207 C 0.8372 0.59069 0.83467 0.0
N3208 N 0.82104 0.56213 0.79054 0.0
N3209 N 0.89882 0.64877 0.84053 0.0
C3210 C 0.8429 0.57935 0.80489 0.0
C3211 C 0.88206 0.62432 0.83046 0.0
N3212 N 0.88047 0.56911 0.76564 0.0
N3213 N 0.85038 0.62369 0.87648 0.0
H3214 H 0.9181 0.65687 0.82905 0.0
H3215 H 0.8923 0.66261 0.85884 0.0
H3216 H 0.8313 0.61636 0.88892 0.0
H3217 H 0.86504 0.63788 0.88883 0.0
H3218 H 0.86885 0.54982 0.75776 0.0
H3219 H 0.90097 0.57294 0.75412 0.0
H3220 H 0.82245 0.5555 0.76764 0.0
H3221 H 0.80003 0.55702 0.80073 0.0
C3222 C 0.82999 0.88375 0.46773 0.0
C3223 C 0.85479 0.86659 0.45491 0.0
C3224 C 0.85723 0.90338 0.41198 0.0
C3225 C 0.83253 0.91996 0.42493 0.0
N3226 N 0.80031 0.93079 0.46814 0.0
N3227 N 0.89527 0.86288 0.41733 0.0
C3228 C 0.82067 0.91171 0.45388 0.0
C3229 C 0.86974 0.87756 0.428 0.0
N3230 N 0.81406 0.87257 0.49227 0.0
N3231 N 0.86769 0.9117 0.38367 0.0
H3232 H 0.90442 0.84343 0.4277 0.0
H3233 H 0.90875 0.87105 0.39943 0.0
H3234 H 0.85918 0.93085 0.3721 0.0
H3235 H 0.88344 0.89907 0.37098 0.0
H3236 H 0.79319 0.88152 0.49959 0.0
H3237 H 0.82039 0.85301 0.50421 0.0
H3238 H 0.79344 0.92815 0.49086 0.0
H3239 H 0.79225 0.95093 0.45813 0.0
C3240 C 0.63955 0.41385 0.35675 0.0
C3241 C 0.66497 0.4197 0.33748 0.0
C3242 C 0.63764 0.39532 0.29455 0.0
C3243 C 0.6107 0.39434 0.31266 0.0
N3244 N 0.58736 0.3971 0.36266 0.0
N3245 N 0.68836 0.41736 0.2876 0.0
C3246 C 0.61226 0.40167 0.34427 0.0
C3247 C 0.66429 0.41029 0.30631 0.0
N3248 N 0.64055 0.42026 0.38727 0.0
N3249 N 0.63776 0.38163 0.26642 0.0
H3250 H 0.70789 0.42863 0.29551 0.0
H3251 H 0.68812 0.4141 0.26395 0.0
H3252 H 0.61909 0.36903 0.25846 0.0
H3253 H 0.65718 0.37974 0.25268 0.0
H3254 H 0.65989 0.42894 0.3984 0.0
H3255 H 0.65989 0.42894 0.3984 0.0
H3256 H 0.5873 0.40278 0.38592 0.0
H3257 H 0.56739 0.38662 0.35469 0.0
C3258 C 0.36519 0.63974 0.58163 0.0
C3259 C 0.35406 0.64574 0.55157 0.0
C3260 C 0.32604 0.59688 0.5529 0.0
C3261 C 0.33248 0.59388 0.58451 0.0
N3262 N 0.3555 0.61446 0.63026 0.0
N3263 N 0.31944 0.63162 0.51042 0.0
C3264 C 0.35181 0.61556 0.59919 0.0
C3265 C 0.33346 0.62461 0.53756 0.0
N3266 N 0.38769 0.65776 0.59384 0.0
N3267 N 0.31282 0.57304 0.53756 0.0
H3268 H 0.32323 0.65196 0.49863 0.0
H3269 H 0.30186 0.61848 0.50101 0.0
H3270 H 0.30783 0.55225 0.54827 0.0
H3271 H 0.30998 0.57274 0.51383 0.0
H3272 H 0.39863 0.65284 0.61451 0.0
H3273 H 0.39737 0.67613 0.58205 0.0
H3274 H 0.36652 0.63152 0.6428 0.0
H3275 H 0.34518 0.59786 0.64395 0.0
C3276 C 0.88637 0.39363 0.67883 0.0
C3277 C 0.89254 0.40567 0.70847 0.0
C3278 C 0.84395 0.43394 0.70662 0.0
C3279 C 0.84114 0.42698 0.67516 0.0
N3280 N 0.86068 0.40185 0.63012 0.0
N3281 N 0.87849 0.44071 0.7492 0.0
C3282 C 0.86225 0.40671 0.66101 0.0
C3283 C 0.87148 0.42648 0.72221 0.0
N3284 N 0.90421 0.37063 0.66726 0.0
N3285 N 0.82028 0.44816 0.72135 0.0
H3286 H 0.89871 0.43671 0.76114 0.0
H3287 H 0.86548 0.45852 0.75837 0.0
H3288 H 0.79977 0.45347 0.71019 0.0
H3289 H 0.81978 0.45164 0.74499 0.0
H3290 H 0.89916 0.35914 0.64695 0.0
H3291 H 0.92258 0.36117 0.67926 0.0
H3292 H 0.87747 0.3902 0.61777 0.0
H3293 H 0.8437 0.41148 0.61634 0.0
C3294 C 0.15615 0.11332 0.68567 0.0
C3295 C 0.15894 0.0817 0.67809 0.0
C3296 C 0.1146 0.07126 0.70979 0.0
C3297 C 0.10723 0.10279 0.71229 0.0
N3298 N 0.12137 0.15485 0.69891 0.0
N3299 N 0.13129 0.0343 0.67295 0.0
C3300 C 0.12823 0.12437 0.69943 0.0
C3301 C 0.13556 0.06161 0.68737 0.0
N3302 N 0.18008 0.13259 0.68009 0.0
N3303 N 0.1021 0.05022 0.72913 0.0
H3304 H 0.14452 0.0273 0.65431 0.0
H3305 H 0.11205 0.02079 0.67739 0.0
H3306 H 0.08876 0.05635 0.74791 0.0
H3307 H 0.10884 0.0274 0.72876 0.0
H3308 H 0.18042 0.1553 0.68742 0.0
H3309 H 0.20066 0.12487 0.67065 0.0
H3310 H 0.13449 0.17082 0.68696 0.0
H3311 H 0.10155 0.16398 0.70849 0.0
C3312 C 0.59517 0.65047 0.86346 0.0
C3313 C 0.56349 0.64302 0.86294 0.0
C3314 C 0.55792 0.66146 0.91567 0.0
C3315 C 0.58914 0.67055 0.91558 0.0
N3316 N 0.63923 0.66758 0.89315 0.0
N3317 N 0.51802 0.63103 0.89141 0.0
C3318 C 0.60836 0.66296 0.89059 0.0
C3319 C 0.54594 0.64502 0.89012 0.0
N3320 N 0.61225 0.64623 0.83756 0.0
N3321 N 0.53938 0.67009 0.93936 0.0
H3322 H 0.51 0.61738 0.8735 0.0
H3323 H 0.5047 0.62993 0.91119 0.0
H3324 H 0.54742 0.68258 0.95809 0.0
H3325 H 0.51572 0.66695 0.93937 0.0
H3326 H 0.63448 0.65438 0.83469 0.0
H3327 H 0.60362 0.63463 0.81852 0.0
H3328 H 0.65516 0.66057 0.87684 0.0
H3329 H 0.64919 0.67661 0.91295 0.0
C3330 C 0.90244 0.16261 0.40466 0.0
C3331 C 0.89623 0.19453 0.40618 0.0
C3332 C 0.9145 0.20088 0.35338 0.0
C3333 C 0.92193 0.16925 0.35233 0.0
N3334 N 0.91717 0.11877 0.37344 0.0
N3335 N 0.88733 0.24193 0.37957 0.0
C3336 C 0.91393 0.1497 0.37694 0.0
C3337 C 0.89916 0.21297 0.37961 0.0
N3338 N 0.89807 0.14495 0.43018 0.0
N3339 N 0.92367 0.21956 0.33001 0.0
H3340 H 0.875 0.25061 0.39811 0.0
H3341 H 0.88684 0.25602 0.36031 0.0
H3342 H 0.93524 0.21135 0.31077 0.0
H3343 H 0.9219 0.24334 0.33065 0.0
H3344 H 0.90546 0.12238 0.43221 0.0
H3345 H 0.8874 0.15341 0.44986 0.0
H3346 H 0.90961 0.10271 0.38936 0.0
H3347 H 0.92558 0.109 0.35329 0.0
C3348 C 0.41394 0.85356 0.86239 0.0
C3349 C 0.44582 0.85988 0.86223 0.0
C3350 C 0.44921 0.84322 0.91605 0.0
C3351 C 0.41854 0.8326 0.91437 0.0
N3352 N 0.37166 0.82634 0.8862 0.0
N3353 N 0.49375 0.86363 0.88919 0.0
C3354 C 0.40076 0.8378 0.88771 0.0
C3355 C 0.46339 0.85603 0.88938 0.0
N3356 N 0.39636 0.86305 0.83823 0.0
N3357 N 0.46452 0.84092 0.94328 0.0
H3358 H 0.50377 0.87533 0.87092 0.0
H3359 H 0.50904 0.8583 0.90671 0.0
H3360 H 0.45456 0.83114 0.9627 0.0
H3361 H 0.48619 0.85004 0.94725 0.0
H3362 H 0.37255 0.86147 0.83768 0.0
H3363 H 0.40555 0.87542 0.81994 0.0
H3364 H 0.35849 0.82623 0.86629 0.0
H3365 H 0.36135 0.81498 0.90453 0.0
C3366 C 0.10538 0.29079 0.3734 0.0
C3367 C 0.11187 0.30902 0.3994 0.0
C3368 C 0.09485 0.35491 0.37147 0.0
C3369 C 0.08332 0.33588 0.34789 0.0
N3370 N 0.07631 0.28575 0.32615 0.0
N3371 N 0.11629 0.35858 0.42285 0.0
C3372 C 0.08866 0.30382 0.34852 0.0
C3373 C 0.10803 0.34128 0.39809 0.0
N3374 N 0.11529 0.26114 0.37267 0.0
N3375 N 0.09321 0.38598 0.36807 0.0
H3376 H 0.12831 0.34927 0.44133 0.0
H3377 H 0.11107 0.38171 0.42537 0.0
H3378 H 0.08344 0.39623 0.34877 0.0
H3379 H 0.10314 0.40156 0.38314 0.0
H3380 H 0.11308 0.24689 0.35366 0.0
H3381 H 0.1288 0.25195 0.39017 0.0
H3382 H 0.07666 0.26191 0.32678 0.0
H3383 H 0.06363 0.29467 0.30793 0.0
C3384 C 0.58256 0.37108 0.62136 0.0
C3385 C 0.55092 0.36669 0.62641 0.0
C3386 C 0.54762 0.33699 0.57858 0.0
C3387 C 0.58013 0.33643 0.5771 0.0
N3388 N 0.62899 0.35208 0.59741 0.0
N3389 N 0.50179 0.35371 0.60608 0.0
C3390 C 0.59774 0.35378 0.59824 0.0
C3391 C 0.53291 0.3522 0.60364 0.0
N3392 N 0.59777 0.39219 0.63865 0.0
N3393 N 0.53119 0.32294 0.55592 0.0
H3394 H 0.49146 0.36857 0.62171 0.0
H3395 H 0.48642 0.34215 0.59201 0.0
H3396 H 0.54173 0.31245 0.53718 0.0
H3397 H 0.50739 0.32219 0.55499 0.0
H3398 H 0.62058 0.39827 0.63512 0.0
H3399 H 0.5861 0.4061 0.65425 0.0
H3400 H 0.64313 0.3617 0.61407 0.0
H3401 H 0.64079 0.33895 0.5813 0.0
C3402 C 0.59271 0.16697 0.59939 0.0
C3403 C 0.60269 0.19809 0.60045 0.0
C3404 C 0.58783 0.20084 0.65483 0.0
C3405 C 0.57758 0.17009 0.65338 0.0
N3406 N 0.57492 0.122 0.62705 0.0
N3407 N 0.61474 0.24304 0.63018 0.0
C3408 C 0.58162 0.15258 0.62647 0.0
C3409 C 0.60208 0.21445 0.62863 0.0
N3410 N 0.5928 0.15146 0.57213 0.0
N3411 N 0.58277 0.21717 0.68107 0.0
H3412 H 0.62499 0.25368 0.61142 0.0
H3413 H 0.61716 0.25545 0.65039 0.0
H3414 H 0.57292 0.20734 0.70053 0.0
H3415 H 0.58673 0.24056 0.68323 0.0
H3416 H 0.582 0.13049 0.56871 0.0
H3417 H 0.60258 0.16015 0.55218 0.0
H3418 H 0.58035 0.10682 0.60947 0.0
H3419 H 0.56566 0.11118 0.64625 0.0
C3420 C 0.4111 0.14246 0.63741 0.0
C3421 C 0.44345 0.1401 0.63988 0.0
C3422 C 0.44939 0.16261 0.58879 0.0
C3423 C 0.41709 0.16633 0.5868 0.0
N3424 N 0.36687 0.15399 0.60523 0.0
N3425 N 0.49231 0.1382 0.61477 0.0
C3426 C 0.39783 0.15411 0.60986 0.0
C3427 C 0.4622 0.14674 0.61431 0.0
N3428 N 0.39335 0.13469 0.66201 0.0
N3429 N 0.46789 0.17614 0.56748 0.0
H3430 H 0.50156 0.1257 0.63296 0.0
H3431 H 0.50698 0.14047 0.59607 0.0
H3432 H 0.45935 0.1885 0.5489 0.0
H3433 H 0.49166 0.17714 0.56946 0.0
H3434 H 0.36991 0.13895 0.6634 0.0
H3435 H 0.40258 0.12443 0.68158 0.0
H3436 H 0.35128 0.14354 0.61994 0.0
H3437 H 0.357 0.16255 0.58515 0.0
C3438 C 0.43598 0.29413 0.66567 0.0
C3439 C 0.42657 0.32425 0.67243 0.0
C3440 C 0.38916 0.32222 0.6304 0.0
C3441 C 0.40293 0.29455 0.61994 0.0
N3442 N 0.44092 0.25457 0.62743 0.0
N3443 N 0.39464 0.36773 0.66222 0.0
C3444 C 0.42638 0.2803 0.63784 0.0
C3445 C 0.40279 0.33829 0.65544 0.0
N3446 N 0.4546 0.27907 0.68587 0.0
N3447 N 0.36379 0.33364 0.61596 0.0
H3448 H 0.40399 0.37957 0.68079 0.0
H3449 H 0.38008 0.38094 0.64869 0.0
H3450 H 0.35349 0.32298 0.59727 0.0
H3451 H 0.3513 0.35227 0.62407 0.0
H3452 H 0.46008 0.25591 0.68402 0.0
H3453 H 0.46215 0.28915 0.70622 0.0
H3454 H 0.46059 0.24552 0.63751 0.0
H3455 H 0.43475 0.24322 0.60744 0.0
C3456 C 0.88157 0.58892 0.63834 0.0
C3457 C 0.87686 0.55699 0.642 0.0
C3458 C 0.92354 0.55308 0.67301 0.0
C3459 C 0.92704 0.58534 0.6714 0.0
N3460 N 0.91391 0.63341 0.64835 0.0
N3461 N 0.89808 0.50766 0.65309 0.0
C3462 C 0.90754 0.60307 0.65242 0.0
C3463 C 0.8996 0.53874 0.65612 0.0
N3464 N 0.86044 0.60559 0.62235 0.0
N3465 N 0.94218 0.53646 0.69192 0.0
H3466 H 0.88152 0.49736 0.63921 0.0
H3467 H 0.91476 0.49264 0.66122 0.0
H3468 H 0.96001 0.54635 0.7044 0.0
H3469 H 0.93886 0.51334 0.69675 0.0
H3470 H 0.86018 0.62939 0.62115 0.0
H3471 H 0.84282 0.59507 0.61006 0.0
H3472 H 0.90195 0.64773 0.63349 0.0
H3473 H 0.93261 0.64396 0.65891 0.0
C3474 C 0.83372 0.88718 0.61667 0.0
C3475 C 0.80615 0.89718 0.60234 0.0
C3476 C 0.80531 0.84998 0.57162 0.0
C3477 C 0.83509 0.84268 0.58211 0.0
N3478 N 0.87835 0.85356 0.61409 0.0
N3479 N 0.76749 0.88952 0.56316 0.0
C3480 C 0.84933 0.86086 0.60488 0.0
C3481 C 0.79223 0.87881 0.5792 0.0
N3482 N 0.8453 0.90324 0.64095 0.0
N3483 N 0.78964 0.82923 0.55419 0.0
H3484 H 0.75755 0.91083 0.56703 0.0
H3485 H 0.75822 0.87842 0.54417 0.0
H3486 H 0.79896 0.80814 0.5479 0.0
H3487 H 0.76661 0.83168 0.54834 0.0
H3488 H 0.86387 0.89589 0.65403 0.0
H3489 H 0.83496 0.92303 0.64947 0.0
H3490 H 0.89169 0.86736 0.62825 0.0
H3491 H 0.88973 0.8341 0.60606 0.0
C3492 C 0.13878 0.95835 0.68549 0.0
C3493 C 0.15681 0.94823 0.66029 0.0
C3494 C 0.12241 0.90377 0.65476 0.0
C3495 C 0.10378 0.91553 0.67866 0.0
N3496 N 0.0882 0.95921 0.70796 0.0
N3497 N 0.16369 0.91292 0.61826 0.0
C3498 C 0.11011 0.94452 0.69116 0.0
C3499 C 0.1477 0.92163 0.64373 0.0
N3500 N 0.14941 0.98021 0.70512 0.0
N3501 N 0.11674 0.87507 0.64378 0.0
H3502 H 0.18297 0.92468 0.61045 0.0
H3503 H 0.15673 0.89532 0.60374 0.0
H3504 H 0.09845 0.86184 0.65165 0.0
H3505 H 0.13108 0.86368 0.62848 0.0
H3506 H 0.13864 0.98529 0.72573 0.0
H3507 H 0.16965 0.99224 0.70191 0.0
H3508 H 0.0907 0.98154 0.7158 0.0
H3509 H 0.06628 0.95022 0.71123 0.0
C3510 C 0.15418 0.64203 0.59403 0.0
C3511 C 0.1729 0.66775 0.58768 0.0
C3512 C 0.21748 0.64108 0.60979 0.0
C3513 C 0.19896 0.6148 0.61465 0.0
N3514 N 0.14881 0.59307 0.62009 0.0
N3515 N 0.22047 0.69454 0.59361 0.0
C3516 C 0.16692 0.61633 0.60961 0.0
C3517 C 0.20403 0.66815 0.59705 0.0
N3518 N 0.12456 0.64174 0.58385 0.0
N3519 N 0.24801 0.63963 0.61658 0.0
H3520 H 0.21098 0.71425 0.5839 0.0
H3521 H 0.24272 0.69758 0.60163 0.0
H3522 H 0.25743 0.62115 0.62849 0.0
H3523 H 0.2639 0.65633 0.61058 0.0
H3524 H 0.11047 0.62253 0.58467 0.0
H3525 H 0.11461 0.66036 0.5726 0.0
H3526 H 0.12496 0.59339 0.61931 0.0
H3527 H 0.15783 0.57472 0.63253 0.0
C3528 C 0.89399 0.41512 0.8599 0.0
C3529 C 0.91336 0.42784 0.83723 0.0
C3530 C 0.87973 0.47254 0.83273 0.0
C3531 C 0.85996 0.4601 0.85566 0.0
N3532 N 0.8507 0.42171 0.89448 0.0
N3533 N 0.92948 0.47157 0.80799 0.0
C3534 C 0.86812 0.43224 0.87066 0.0
C3535 C 0.90779 0.4576 0.82577 0.0
N3536 N 0.89978 0.38609 0.87004 0.0
N3537 N 0.87104 0.49773 0.81621 0.0
H3538 H 0.94987 0.46087 0.80161 0.0
H3539 H 0.92854 0.49459 0.80178 0.0
H3540 H 0.85111 0.51005 0.82041 0.0
H3541 H 0.88244 0.5052 0.79662 0.0
H3542 H 0.88512 0.37371 0.88419 0.0
H3543 H 0.91894 0.37369 0.86282 0.0
H3544 H 0.85674 0.40306 0.90807 0.0
H3545 H 0.83103 0.43284 0.90217 0.0
C3546 C 0.67275 0.89829 0.41324 0.0
C3547 C 0.70197 0.89558 0.39874 0.0
C3548 C 0.70173 0.8402 0.40899 0.0
C3549 C 0.67286 0.84325 0.42348 0.0
N3550 N 0.62726 0.87259 0.43227 0.0
N3551 N 0.74074 0.8631 0.37643 0.0
C3552 C 0.65723 0.87154 0.42322 0.0
C3553 C 0.71525 0.86617 0.39433 0.0
N3554 N 0.66022 0.92654 0.41857 0.0
N3555 N 0.71668 0.81275 0.41049 0.0
H3556 H 0.75078 0.88154 0.36511 0.0
H3557 H 0.75023 0.84204 0.37046 0.0
H3558 H 0.70692 0.79348 0.42076 0.0
H3559 H 0.73922 0.8095 0.40336 0.0
H3560 H 0.64137 0.9301 0.43279 0.0
H3561 H 0.66948 0.94686 0.41019 0.0
H3562 H 0.61334 0.89181 0.4297 0.0
H3563 H 0.61548 0.85326 0.43993 0.0
C3564 C 0.12015 0.06992 0.88463 0.0
C3565 C 0.13475 0.04793 0.86546 0.0
C3566 C 0.08895 0.04767 0.83245 0.0
C3567 C 0.07886 0.07494 0.84655 0.0
N3568 N 0.07197 0.09427 0.8977 0.0
N3569 N 0.13133 0.01412 0.82156 0.0
C3570 C 0.0906 0.0813 0.87625 0.0
C3571 C 0.11835 0.03587 0.83985 0.0
N3572 N 0.13487 0.08124 0.90981 0.0
N3573 N 0.06918 0.03148 0.81443 0.0
H3574 H 0.15193 1.00338 0.82687 0.0
H3575 H 0.12238 0.00831 0.8002 0.0
H3576 H 0.04623 0.03796 0.81218 0.0
H3577 H 0.07425 0.00994 0.80544 0.0
H3578 H 0.12681 0.10007 0.92211 0.0
H3579 H 0.15586 0.07284 0.91752 0.0
H3580 H 0.07846 0.09756 0.92046 0.0
H3581 H 0.04847 0.09665 0.89383 0.0
C3582 C 0.2902 0.64339 0.40225 0.0
C3583 C 0.30798 0.61783 0.39352 0.0
C3584 C 0.35503 0.64678 0.40447 0.0
C3585 C 0.33706 0.66974 0.41871 0.0
N3586 N 0.2875 0.68959 0.43292 0.0
N3587 N 0.35697 0.59578 0.38187 0.0
C3588 C 0.30456 0.66826 0.41763 0.0
C3589 C 0.34041 0.61995 0.39286 0.0
N3590 N 0.25964 0.64372 0.39561 0.0
N3591 N 0.38598 0.65088 0.40232 0.0
H3592 H 0.34641 0.57735 0.37089 0.0
H3593 H 0.38068 0.59385 0.38357 0.0
H3594 H 0.39683 0.67037 0.41094 0.0
H3595 H 0.40062 0.63618 0.39056 0.0
H3596 H 0.24541 0.66248 0.39958 0.0
H3597 H 0.24952 0.62633 0.38268 0.0
H3598 H 0.26384 0.68798 0.43567 0.0
H3599 H 0.29729 0.70773 0.44498 0.0
C3600 C 0.67196 0.91423 0.55201 0.0
C3601 C 0.67269 0.91663 0.58444 0.0
C3602 C 0.64339 0.86886 0.58889 0.0
C3603 C 0.64406 0.86578 0.55652 0.0
N3604 N 0.6497 0.88942 0.50731 0.0
N3605 N 0.65456 0.90035 0.63369 0.0
C3606 C 0.65528 0.88992 0.53809 0.0
C3607 C 0.65677 0.89522 0.60288 0.0
N3608 N 0.68847 0.93439 0.53469 0.0
N3609 N 0.63075 0.84596 0.60606 0.0
H3610 H 0.66462 0.91934 0.64418 0.0
H3611 H 0.64148 0.88706 0.64853 0.0
H3612 H 0.6187 0.82792 0.596 0.0
H3613 H 0.63231 0.84458 0.62982 0.0
H3614 H 0.69151 0.93215 0.51112 0.0
H3615 H 0.70106 0.95228 0.54431 0.0
H3616 H 0.65546 0.90716 0.49244 0.0
H3617 H 0.63611 0.87242 0.4974 0.0
C3618 C 0.6395 0.12313 0.9258 0.0
C3619 C 0.65373 0.13364 0.95319 0.0
C3620 C 0.68678 0.08788 0.95314 0.0
C3621 C 0.67672 0.08085 0.92314 0.0
N3622 N 0.64354 0.09065 0.88048 0.0
N3623 N 0.69126 0.12585 0.99311 0.0
C3624 C 0.65272 0.09793 0.90951 0.0
C3625 C 0.67711 0.11562 0.96715 0.0
N3626 N 0.61365 0.13734 0.91531 0.0
N3627 N 0.70572 0.06794 0.96819 0.0
H3628 H 0.68392 0.1452 0.00487 0.0
H3629 H 0.71119 0.11621 1.00202 0.0
H3630 H 0.71401 0.04792 0.95814 0.0
H3631 H 0.71132 0.06993 0.99132 0.0
H3632 H 0.60092 0.12961 0.89666 0.0
H3633 H 0.60323 0.15531 0.92708 0.0
H3634 H 0.62842 0.1039 0.86761 0.0
H3635 H 0.65261 0.07195 0.86861 0.0
C3636 C 0.39809 0.10755 0.34386 0.0
C3637 C 0.3987 0.11104 0.31147 0.0
C3638 C 0.34855 0.08613 0.30762 0.0
C3639 C 0.34815 0.08197 0.33991 0.0
N3640 N 0.36891 0.09367 0.38943 0.0
N3641 N 0.37046 0.11342 0.26432 0.0
C3642 C 0.37186 0.09434 0.35827 0.0
C3643 C 0.3725 0.10354 0.29393 0.0
N3644 N 0.42298 0.11645 0.3606 0.0
N3645 N 0.32694 0.07199 0.28993 0.0
H3646 H 0.38697 0.12781 0.25475 0.0
H3647 H 0.35104 0.11049 0.25072 0.0
H3648 H 0.30964 0.05836 0.29918 0.0
H3649 H 0.32778 0.07152 0.26606 0.0
H3650 H 0.42606 0.11141 0.38372 0.0
H3651 H 0.4409 0.12886 0.35082 0.0
H3652 H 0.384 0.10438 0.40448 0.0
H3653 H 0.34992 0.0839 0.40023 0.0
C3654 C 0.37521 0.37751 0.92788 0.0
C3655 C 0.36173 0.36602 0.95527 0.0
C3656 C 0.3296 0.41233 0.95857 0.0
C3657 C 0.33941 0.42115 0.92891 0.0
N3658 N 0.37119 0.41315 0.88493 0.0
N3659 N 0.32361 0.3713 0.99528 0.0
C3660 C 0.36249 0.40421 0.91364 0.0
C3661 C 0.33859 0.38336 0.97051 0.0
N3662 N 0.39955 0.36246 0.91514 0.0
N3663 N 0.31083 0.43133 0.97494 0.0
H3664 H 0.32821 0.34969 1.0041 0.0
H3665 H 0.3047 0.38146 0.0057 0.0
H3666 H 0.30217 0.45177 0.96617 0.0
H3667 H 0.30571 0.42811 0.99804 0.0
H3668 H 0.41202 0.37075 0.89658 0.0
H3669 H 0.40879 0.34252 0.92455 0.0
H3670 H 0.38553 0.4004 0.87076 0.0
H3671 H 0.36267 0.43304 0.8747 0.0
C3672 C 0.15258 0.90044 0.85127 0.0
C3673 C 0.16692 0.92604 0.83737 0.0
C3674 C 0.12754 0.92705 0.79755 0.0
C3675 C 0.11316 0.90095 0.81076 0.0
N3676 N 0.11427 0.85989 0.84761 0.0
N3677 N 0.17354 0.95753 0.79268 0.0
C3678 C 0.12667 0.88645 0.83666 0.0
C3679 C 0.1562 0.93719 0.80894 0.0
N3680 N 0.16323 0.89037 0.87894 0.0
N3681 N 0.11294 0.94366 0.77537 0.0
H3682 H 0.19433 0.96613 0.80071 0.0
H3683 H 0.16848 0.96389 0.77021 0.0
H3684 H 0.09209 0.93744 0.76567 0.0
H3685 H 0.12018 0.96533 0.76876 0.0
H3686 H 0.15242 0.87368 0.89208 0.0
H3687 H 0.1824 0.90008 0.88946 0.0
H3688 H 0.1241 0.84687 0.86502 0.0
H3689 H 0.09504 0.84971 0.83769 0.0
C3690 C 0.85002 0.1133 0.1068 0.0
C3691 C 0.83593 0.09131 0.08756 0.0
C3692 C 0.85643 0.11773 0.04232 0.0
C3693 C 0.86541 0.1425 0.06109 0.0
N3694 N 0.87367 0.16361 0.11121 0.0
N3695 N 0.82325 0.07358 0.03682 0.0
C3696 C 0.86348 0.13995 0.09347 0.0
C3697 C 0.83883 0.09353 0.05521 0.0
N3698 N 0.8505 0.10842 0.13773 0.0
N3699 N 0.86483 0.11753 0.01219 0.0
H3700 H 0.80938 0.05619 0.04552 0.0
H3701 H 0.8219 0.07591 0.01309 0.0
H3702 H 0.8791 0.13443 1.00311 0.0
H3703 H 0.86075 0.09921 0.99746 0.0
H3704 H 0.86237 0.12218 0.15318 0.0
H3705 H 0.84048 0.08915 0.14773 0.0
H3706 H 0.86995 0.16526 0.13473 0.0
H3707 H 0.88566 0.18207 0.10187 0.0
C3708 C 0.35122 0.89996 0.16334 0.0
C3709 C 0.33296 0.92238 0.17806 0.0
C3710 C 0.36958 0.92487 0.2206 0.0
C3711 C 0.38832 0.90239 0.206 0.0
N3712 N 0.39449 0.86474 0.16598 0.0
N3713 N 0.3202 0.9503 0.22372 0.0
C3714 C 0.3781 0.88841 0.17832 0.0
C3715 C 0.34063 0.93267 0.20781 0.0
N3716 N 0.34337 0.89083 0.13444 0.0
N3717 N 0.38015 0.94022 0.24577 0.0
H3718 H 0.29931 0.9574 0.2145 0.0
H3719 H 0.32271 0.95577 0.24683 0.0
H3720 H 0.40095 0.93536 0.2563 0.0
H3721 H 0.3694 0.95943 0.25494 0.0
H3722 H 0.35702 0.87695 0.12067 0.0
H3723 H 0.32347 0.89859 0.12362 0.0
H3724 H 0.38715 0.85189 0.14728 0.0
H3725 H 0.41461 0.85638 0.17581 0.0
C3726 C 0.63776 0.59128 0.1551 0.0
C3727 C 0.66438 0.58563 0.17281 0.0
C3728 C 0.63926 0.60751 0.2183 0.0
C3729 C 0.61215 0.6118 0.20078 0.0
N3730 N 0.58805 0.61622 0.15146 0.0
N3731 N 0.69318 0.59255 0.21909 0.0
C3732 C 0.61233 0.60645 0.16873 0.0
C3733 C 0.66599 0.59528 0.20379 0.0
N3734 N 0.6364 0.58079 0.12561 0.0
N3735 N 0.63893 0.61409 0.24891 0.0
H3736 H 0.71266 0.58317 0.20885 0.0
H3737 H 0.69706 0.60096 0.24107 0.0
H3738 H 0.62052 0.62527 0.25926 0.0
H3739 H 0.65645 0.6084 0.26407 0.0
H3740 H 0.61654 0.58099 0.11237 0.0
H3741 H 0.65484 0.56992 0.11495 0.0
H3742 H 0.58746 0.61532 0.12762 0.0
H3743 H 0.56963 0.62811 0.16105 0.0
loop_
_geom_bond_atom_site_label_1
_geom_bond_atom_site_label_2
_geom_bond_distance
_geom_bond_site_symmetry_2
_ccdc_geom_bond_type
C0 C1 1.351 . S
C0 N3 1.368 . S
C0 H5 0.931 . S
C1 C0 1.351 . S
C1 N2 1.373 . S
C1 H29 0.930 . S
N2 C1 1.373 . S
N2 C4 1.340 . S
N3 C0 1.368 . S
N3 C4 1.321 . S
N3 Co6 2.135 . S
C4 N2 1.340 . S
C4 N3 1.321 . S
C4 H28 0.930 . S
H5 C0 0.931 . S
Co6 N3 2.135 . S
Co6 N9 2.121 1_455 S
Co6 O14 2.055 . S
Co6 O17 2.039 . S
Co6 N20 2.140 . S
C7 O8 1.227 . S
C7 O17 1.265 . S
O8 C7 1.227 . S
N9 Co6 2.121 1_655 S
N9 C11 1.375 . S
N9 C12 1.313 . S
C10 C11 1.338 . S
C10 N13 1.377 . S
C10 H30 0.930 . S
C11 N9 1.375 . S
C11 C10 1.338 . S
C11 H15 0.931 . S
C12 N9 1.313 . S
C12 N13 1.344 . S
C12 H16 0.930 . S
N13 C10 1.377 . S
N13 C12 1.344 . S
O14 Co6 2.055 . S
O14 C18 1.253 . S
H15 C11 0.931 . S
H16 C12 0.930 . S
O17 Co6 2.039 . S
O17 C7 1.265 . S
C18 O14 1.253 . S
C18 O19 1.227 . S
O19 C18 1.227 . S
N20 Co6 2.140 . S
N20 C23 1.346 . S
N20 C24 1.345 . S
C21 C22 1.387 . S
C21 C25 1.391 . S
C22 C21 1.387 . S
C22 C23 1.369 . S
C22 H31 0.929 . S
C23 N20 1.346 . S
C23 C22 1.369 . S
C23 H26 0.928 . S
C24 N20 1.345 . S
C24 C25 1.371 . S
C24 H27 0.931 . S
C25 C21 1.391 . S
C25 C24 1.371 . S
C25 H32 0.930 1_455 S
H26 C23 0.928 . S
H27 C24 0.931 . S
H28 C4 0.930 . S
H29 C1 0.930 . S
H30 C10 0.930 . S
H31 C22 0.929 . S
H32 C25 0.930 1_655 S
C33 C34 1.351 . S
C33 N36 1.368 . S
C33 H38 0.931 . S
C34 C33 1.351 . S
C34 N35 1.373 1_556 S
C34 H62 0.930 1_556 S
N35 C34 1.373 1_554 S
N35 C37 1.340 1_554 S
N36 C33 1.368 . S
N36 C37 1.321 . S
N36 Co39 2.135 . S
C37 N35 1.340 1_556 S
C37 N36 1.321 . S
C37 H61 0.930 1_556 S
H38 C33 0.931 . S
Co39 N36 2.135 . S
Co39 N42 2.121 . S
Co39 O47 2.055 . S
Co39 O50 2.039 . S
Co39 N53 2.140 1_556 S
C40 O41 1.227 1_556 S
C40 O50 1.265 . S
O41 C40 1.227 1_554 S
N42 Co39 2.121 . S
N42 C44 1.375 . S
N42 C45 1.313 . S
C43 C44 1.338 . S
C43 N46 1.377 . S
C43 H63 0.930 . S
C44 N42 1.375 . S
C44 C43 1.338 . S
C44 H48 0.931 . S
C45 N42 1.313 . S
C45 N46 1.344 . S
C45 H49 0.930 . S
N46 C43 1.377 . S
N46 C45 1.344 . S
O47 Co39 2.055 . S
O47 C51 1.253 . S
H48 C44 0.931 . S
H49 C45 0.930 . S
O50 Co39 2.039 . S
O50 C40 1.265 . S
C51 O47 1.253 . S
C51 O52 1.227 . S
O52 C51 1.227 . S
N53 Co39 2.140 1_554 S
N53 C56 1.346 . S
N53 C57 1.345 . S
C54 C55 1.387 . S
C54 C58 1.391 . S
C55 C54 1.387 . S
C55 C56 1.369 . S
C55 H64 0.929 . S
C56 N53 1.346 . S
C56 C55 1.369 . S
C56 H59 0.928 . S
C57 N53 1.345 . S
C57 C58 1.371 . S
C57 H60 0.931 1_554 S
C58 C54 1.391 . S
C58 C57 1.371 . S
C58 H65 0.930 . S
H59 C56 0.928 . S
H60 C57 0.931 1_556 S
H61 C37 0.930 1_554 S
H62 C34 0.930 1_554 S
H63 C43 0.930 . S
H64 C55 0.929 . S
H65 C58 0.930 . S
C66 C67 1.351 . S
C66 N69 1.368 . S
C66 H71 0.931 . S
C67 C66 1.351 . S
C67 N68 1.373 . S
C67 H95 0.930 . S
N68 C67 1.373 . S
N68 C70 1.340 . S
N69 C66 1.368 . S
N69 C70 1.321 . S
N69 Co72 2.135 . S
C70 N68 1.340 . S
C70 N69 1.321 . S
C70 H94 0.930 . S
H71 C66 0.931 . S
Co72 N69 2.135 . S
Co72 N75 2.121 1_655 S
Co72 O80 2.055 . S
Co72 O83 2.039 . S
Co72 N86 2.140 . S
C73 O74 1.227 . S
C73 O83 1.265 . S
O74 C73 1.227 . S
N75 Co72 2.121 1_455 S
N75 C77 1.375 . S
N75 C78 1.313 . S
C76 C77 1.338 . S
C76 N79 1.377 . S
C76 H96 0.930 . S
C77 N75 1.375 . S
C77 C76 1.338 . S
C77 H81 0.931 . S
C78 N75 1.313 . S
C78 N79 1.344 . S
C78 H82 0.930 . S
N79 C76 1.377 . S
N79 C78 1.344 . S
O80 Co72 2.055 . S
O80 C84 1.253 . S
H81 C77 0.931 . S
H82 C78 0.930 . S
O83 Co72 2.039 . S
O83 C73 1.265 . S
C84 O80 1.253 . S
C84 O85 1.227 . S
O85 C84 1.227 . S
N86 Co72 2.140 . S
N86 C89 1.346 . S
N86 C90 1.345 . S
C87 C88 1.387 . S
C87 C91 1.391 . S
C88 C87 1.387 . S
C88 C89 1.369 . S
C88 H97 0.929 . S
C89 N86 1.346 . S
C89 C88 1.369 . S
C89 H92 0.928 . S
C90 N86 1.345 . S
C90 C91 1.371 . S
C90 H93 0.931 . S
C91 C87 1.391 . S
C91 C90 1.371 . S
C91 H98 0.930 1_655 S
H92 C89 0.928 . S
H93 C90 0.931 . S
H94 C70 0.930 . S
H95 C67 0.930 . S
H96 C76 0.930 . S
H97 C88 0.929 . S
H98 C91 0.930 1_455 S
C99 C100 1.351 . S
C99 N102 1.368 . S
C99 H104 0.931 . S
C100 C99 1.351 . S
C100 N101 1.373 1_556 S
C100 H128 0.930 1_556 S
N101 C100 1.373 1_554 S
N101 C103 1.340 1_554 S
N102 C99 1.368 . S
N102 C103 1.321 . S
N102 Co105 2.135 . S
C103 N101 1.340 1_556 S
C103 N102 1.321 . S
C103 H127 0.930 1_556 S
H104 C99 0.931 . S
Co105 N102 2.135 . S
Co105 N108 2.121 . S
Co105 O113 2.055 . S
Co105 O116 2.039 . S
Co105 N119 2.140 1_556 S
C106 O107 1.227 1_556 S
C106 O116 1.265 . S
O107 C106 1.227 1_554 S
N108 Co105 2.121 . S
N108 C110 1.375 . S
N108 C111 1.313 . S
C109 C110 1.338 . S
C109 N112 1.377 . S
C109 H129 0.930 . S
C110 N108 1.375 . S
C110 C109 1.338 . S
C110 H114 0.931 . S
C111 N108 1.313 . S
C111 N112 1.344 . S
C111 H115 0.930 . S
N112 C109 1.377 . S
N112 C111 1.344 . S
O113 Co105 2.055 . S
O113 C117 1.253 . S
H114 C110 0.931 . S
H115 C111 0.930 . S
O116 Co105 2.039 . S
O116 C106 1.265 . S
C117 O113 1.253 . S
C117 O118 1.227 . S
O118 C117 1.227 . S
N119 Co105 2.140 1_554 S
N119 C122 1.346 . S
N119 C123 1.345 . S
C120 C121 1.387 . S
C120 C124 1.391 . S
C121 C120 1.387 . S
C121 C122 1.369 . S
C121 H130 0.929 . S
C122 N119 1.346 . S
C122 C121 1.369 . S
C122 H125 0.928 . S
C123 N119 1.345 . S
C123 C124 1.371 . S
C123 H126 0.931 1_554 S
C124 C120 1.391 . S
C124 C123 1.371 . S
C124 H131 0.930 . S
H125 C122 0.928 . S
H126 C123 0.931 1_556 S
H127 C103 0.930 1_554 S
H128 C100 0.930 1_554 S
H129 C109 0.930 . S
H130 C121 0.929 . S
H131 C124 0.930 . S
C132 C133 1.351 . S
C132 N135 1.368 . S
C132 H137 0.931 . S
C133 C132 1.351 . S
C133 N134 1.373 . S
C133 H161 0.930 . S
N134 C133 1.373 . S
N134 C136 1.340 . S
N135 C132 1.368 . S
N135 C136 1.321 . S
N135 Co138 2.135 . S
C136 N134 1.340 . S
C136 N135 1.321 . S
C136 H160 0.930 . S
H137 C132 0.931 . S
Co138 N135 2.135 . S
Co138 N141 2.121 1_455 S
Co138 O146 2.055 . S
Co138 O149 2.039 . S
Co138 N152 2.140 . S
C139 O140 1.227 . S
C139 O149 1.265 . S
O140 C139 1.227 . S
N141 Co138 2.121 1_655 S
N141 C143 1.375 . S
N141 C144 1.313 . S
C142 C143 1.338 . S
C142 N145 1.377 . S
C142 H162 0.930 . S
C143 N141 1.375 . S
C143 C142 1.338 . S
C143 H147 0.931 . S
C144 N141 1.313 . S
C144 N145 1.344 . S
C144 H148 0.930 . S
N145 C142 1.377 . S
N145 C144 1.344 . S
O146 Co138 2.055 . S
O146 C150 1.253 . S
H147 C143 0.931 . S
H148 C144 0.930 . S
O149 Co138 2.039 . S
O149 C139 1.265 . S
C150 O146 1.253 . S
C150 O151 1.227 . S
O151 C150 1.227 . S
N152 Co138 2.140 . S
N152 C155 1.346 . S
N152 C156 1.345 . S
C153 C154 1.387 . S
C153 C157 1.391 . S
C154 C153 1.387 . S
C154 C155 1.369 . S
C154 H163 0.929 . S
C155 N152 1.346 . S
C155 C154 1.369 . S
C155 H158 0.928 . S
C156 N152 1.345 . S
C156 C157 1.371 . S
C156 H159 0.931 . S
C157 C153 1.391 . S
C157 C156 1.371 . S
C157 H164 0.930 1_455 S
H158 C155 0.928 . S
H159 C156 0.931 . S
H160 C136 0.930 . S
H161 C133 0.930 . S
H162 C142 0.930 . S
H163 C154 0.929 . S
H164 C157 0.930 1_655 S
C165 C166 1.351 . S
C165 N168 1.368 . S
C165 H170 0.931 . S
C166 C165 1.351 . S
C166 N167 1.373 1_554 S
C166 H194 0.925 1_554 S
N167 C166 1.373 1_556 S
N167 C169 1.340 1_556 S
N168 C165 1.368 . S
N168 C169 1.321 . S
N168 Co171 2.135 . S
C169 N167 1.340 1_554 S
C169 N168 1.321 . S
C169 H193 0.930 1_554 S
H170 C165 0.931 . S
Co171 N168 2.135 . S
Co171 N174 2.121 . S
Co171 O179 2.055 . S
Co171 O182 2.039 . S
Co171 N185 2.140 1_554 S
C172 O173 1.227 1_554 S
C172 O182 1.265 . S
O173 C172 1.227 1_556 S
N174 Co171 2.121 . S
N174 C176 1.375 . S
N174 C177 1.313 . S
C175 C176 1.338 . S
C175 N178 1.377 . S
C175 H195 0.930 . S
C176 N174 1.375 . S
C176 C175 1.338 . S
C176 H180 0.931 . S
C177 N174 1.313 . S
C177 N178 1.344 . S
C177 H181 0.930 . S
N178 C175 1.377 . S
N178 C177 1.344 . S
O179 Co171 2.055 . S
O179 C183 1.253 . S
H180 C176 0.931 . S
H181 C177 0.930 . S
O182 Co171 2.039 . S
O182 C172 1.265 . S
C183 O179 1.253 . S
C183 O184 1.227 . S
O184 C183 1.227 . S
N185 Co171 2.140 1_556 S
N185 C188 1.346 . S
N185 C189 1.345 . S
C186 C187 1.387 . S
C186 C190 1.391 . S
C187 C186 1.387 . S
C187 C188 1.369 . S
C187 H196 0.929 . S
C188 N185 1.346 . S
C188 C187 1.369 . S
C188 H191 0.928 . S
C189 N185 1.345 . S
C189 C190 1.371 . S
C189 H192 0.931 1_556 S
C190 C186 1.391 . S
C190 C189 1.371 . S
C190 H197 0.930 . S
H191 C188 0.928 . S
H192 C189 0.931 1_554 S
H193 C169 0.930 1_556 S
H194 C166 0.925 1_556 S
H195 C175 0.930 . S
H196 C187 0.929 . S
H197 C190 0.930 . S
C198 C199 1.351 . S
C198 N201 1.368 . S
C198 H203 0.931 . S
C199 C198 1.351 . S
C199 N200 1.373 . S
C199 H227 0.930 . S
N200 C199 1.373 . S
N200 C202 1.340 . S
N201 C198 1.368 . S
N201 C202 1.321 . S
N201 Co204 2.135 . S
C202 N200 1.340 . S
C202 N201 1.321 . S
C202 H226 0.930 . S
H203 C198 0.931 . S
Co204 N201 2.135 . S
Co204 N207 2.121 1_655 S
Co204 O212 2.055 . S
Co204 O215 2.039 . S
Co204 N218 2.140 . S
C205 O206 1.227 . S
C205 O215 1.265 . S
O206 C205 1.227 . S
N207 Co204 2.121 1_455 S
N207 C209 1.375 . S
N207 C210 1.313 . S
C208 C209 1.338 . S
C208 N211 1.377 . S
C208 H228 0.930 . S
C209 N207 1.375 . S
C209 C208 1.338 . S
C209 H213 0.931 . S
C210 N207 1.313 . S
C210 N211 1.344 . S
C210 H214 0.930 . S
N211 C208 1.377 . S
N211 C210 1.344 . S
O212 Co204 2.055 . S
O212 C216 1.253 . S
H213 C209 0.931 . S
H214 C210 0.930 . S
O215 Co204 2.039 . S
O215 C205 1.265 . S
C216 O212 1.253 . S
C216 O217 1.227 . S
O217 C216 1.227 . S
N218 Co204 2.140 . S
N218 C221 1.346 . S
N218 C222 1.345 . S
C219 C220 1.387 . S
C219 C223 1.391 . S
C220 C219 1.387 . S
C220 C221 1.369 . S
C220 H229 0.929 . S
C221 N218 1.346 . S
C221 C220 1.369 . S
C221 H224 0.928 . S
C222 N218 1.345 . S
C222 C223 1.371 . S
C222 H225 0.931 . S
C223 C219 1.391 . S
C223 C222 1.371 . S
C223 H230 0.930 1_655 S
H224 C221 0.928 . S
H225 C222 0.931 . S
H226 C202 0.930 . S
H227 C199 0.930 . S
H228 C208 0.930 . S
H229 C220 0.929 . S
H230 C223 0.930 1_455 S
C231 C232 1.351 . S
C231 N234 1.368 . S
C231 H236 0.931 . S
C232 C231 1.351 . S
C232 N233 1.373 1_554 S
C232 H260 0.925 1_554 S
N233 C232 1.373 1_556 S
N233 C235 1.340 1_556 S
N234 C231 1.368 . S
N234 C235 1.321 . S
N234 Co237 2.135 . S
C235 N233 1.340 1_554 S
C235 N234 1.321 . S
C235 H259 0.930 1_554 S
H236 C231 0.931 . S
Co237 N234 2.135 . S
Co237 N240 2.121 . S
Co237 O245 2.055 . S
Co237 O248 2.039 . S
Co237 N251 2.140 1_554 S
C238 O239 1.227 1_554 S
C238 O248 1.265 . S
O239 C238 1.227 1_556 S
N240 Co237 2.121 . S
N240 C242 1.375 . S
N240 C243 1.313 . S
C241 C242 1.338 . S
C241 N244 1.377 . S
C241 H261 0.930 . S
C242 N240 1.375 . S
C242 C241 1.338 . S
C242 H246 0.931 . S
C243 N240 1.313 . S
C243 N244 1.344 . S
C243 H247 0.930 . S
N244 C241 1.377 . S
N244 C243 1.344 . S
O245 Co237 2.055 . S
O245 C249 1.253 . S
H246 C242 0.931 . S
H247 C243 0.930 . S
O248 Co237 2.039 . S
O248 C238 1.265 . S
C249 O245 1.253 . S
C249 O250 1.227 . S
O250 C249 1.227 . S
N251 Co237 2.140 1_556 S
N251 C254 1.346 . S
N251 C255 1.345 . S
C252 C253 1.387 . S
C252 C256 1.391 . S
C253 C252 1.387 . S
C253 C254 1.369 . S
C253 H262 0.929 . S
C254 N251 1.346 . S
C254 C253 1.369 . S
C254 H257 0.928 . S
C255 N251 1.345 . S
C255 C256 1.371 . S
C255 H258 0.931 1_556 S
C256 C252 1.391 . S
C256 C255 1.371 . S
C256 H263 0.930 . S
H257 C254 0.928 . S
H258 C255 0.931 1_554 S
H259 C235 0.930 1_556 S
H260 C232 0.925 1_556 S
H261 C241 0.930 . S
H262 C253 0.929 . S
H263 C256 0.930 . S
C264 C265 1.351 . S
C264 N267 1.368 . S
C264 H269 0.931 . S
C265 C264 1.351 . S
C265 N266 1.373 . S
C265 H293 0.930 . S
N266 C265 1.373 . S
N266 C268 1.340 . S
N267 C264 1.368 . S
N267 C268 1.321 . S
N267 Co270 2.135 . S
C268 N266 1.340 . S
C268 N267 1.321 . S
C268 H292 0.930 . S
H269 C264 0.931 . S
Co270 N267 2.135 . S
Co270 N273 2.121 1_545 S
Co270 O278 2.055 . S
Co270 O281 2.039 . S
Co270 N284 2.140 . S
C271 O272 1.227 . S
C271 O281 1.265 . S
O272 C271 1.227 . S
N273 Co270 2.121 1_565 S
N273 C275 1.375 . S
N273 C276 1.313 . S
C274 C275 1.338 . S
C274 N277 1.377 . S
C274 H294 0.930 . S
C275 N273 1.375 . S
C275 C274 1.338 . S
C275 H279 0.931 . S
C276 N273 1.313 . S
C276 N277 1.344 . S
C276 H280 0.930 . S
N277 C274 1.377 . S
N277 C276 1.344 . S
O278 Co270 2.055 . S
O278 C282 1.253 . S
H279 C275 0.931 . S
H280 C276 0.930 . S
O281 Co270 2.039 . S
O281 C271 1.265 . S
C282 O278 1.253 . S
C282 O283 1.227 . S
O283 C282 1.227 . S
N284 Co270 2.140 . S
N284 C287 1.346 . S
N284 C288 1.345 . S
C285 C286 1.387 . S
C285 C289 1.391 . S
C286 C285 1.387 . S
C286 C287 1.369 . S
C286 H295 0.929 . S
C287 N284 1.346 . S
C287 C286 1.369 . S
C287 H290 0.928 . S
C288 N284 1.345 . S
C288 C289 1.371 . S
C288 H291 0.931 . S
C289 C285 1.391 . S
C289 C288 1.371 . S
C289 H296 0.930 1_545 S
H290 C287 0.928 . S
H291 C288 0.931 . S
H292 C268 0.930 . S
H293 C265 0.930 . S
H294 C274 0.930 . S
H295 C286 0.929 . S
H296 C289 0.930 1_565 S
C297 C298 1.351 . S
C297 N300 1.368 . S
C297 H302 0.931 . S
C298 C297 1.351 . S
C298 N299 1.373 . S
C298 H326 0.930 . S
N299 C298 1.373 . S
N299 C301 1.340 . S
N300 C297 1.368 . S
N300 C301 1.321 . S
N300 Co303 2.135 . S
C301 N299 1.340 . S
C301 N300 1.321 . S
C301 H325 0.930 . S
H302 C297 0.931 . S
Co303 N300 2.135 . S
Co303 N306 2.121 . S
Co303 O311 2.055 . S
Co303 O314 2.039 . S
Co303 N317 2.140 . S
C304 O305 1.227 . S
C304 O314 1.265 . S
O305 C304 1.227 . S
N306 Co303 2.121 . S
N306 C308 1.375 . S
N306 C309 1.313 . S
C307 C308 1.338 . S
C307 N310 1.377 . S
C307 H327 0.930 . S
C308 N306 1.375 . S
C308 C307 1.338 . S
C308 H312 0.931 . S
C309 N306 1.313 . S
C309 N310 1.344 . S
C309 H313 0.930 . S
N310 C307 1.377 . S
N310 C309 1.344 . S
O311 Co303 2.055 . S
O311 C315 1.253 . S
H312 C308 0.931 . S
H313 C309 0.930 . S
O314 Co303 2.039 . S
O314 C304 1.265 . S
C315 O311 1.253 . S
C315 O316 1.227 . S
O316 C315 1.227 . S
N317 Co303 2.140 . S
N317 C320 1.346 . S
N317 C321 1.345 . S
C318 C319 1.387 . S
C318 C322 1.391 . S
C319 C318 1.387 . S
C319 C320 1.369 . S
C319 H328 0.929 . S
C320 N317 1.346 . S
C320 C319 1.369 . S
C320 H323 0.928 . S
C321 N317 1.345 . S
C321 C322 1.371 . S
C321 H324 0.931 . S
C322 C318 1.391 . S
C322 C321 1.371 . S
C322 H329 0.930 . S
H323 C320 0.928 . S
H324 C321 0.931 . S
H325 C301 0.930 . S
H326 C298 0.930 . S
H327 C307 0.930 . S
H328 C319 0.929 . S
H329 C322 0.930 . S
C330 C331 1.351 . S
C330 N333 1.368 . S
C330 H335 0.931 . S
C331 C330 1.351 . S
C331 N332 1.373 . S
C331 H359 0.930 . S
N332 C331 1.373 . S
N332 C334 1.340 . S
N333 C330 1.368 . S
N333 C334 1.321 . S
N333 Co336 2.135 . S
C334 N332 1.340 . S
C334 N333 1.321 . S
C334 H358 0.930 . S
H335 C330 0.931 . S
Co336 N333 2.135 . S
Co336 N339 2.121 . S
Co336 O344 2.055 . S
Co336 O347 2.039 . S
Co336 N350 2.140 . S
C337 O338 1.227 . S
C337 O347 1.265 . S
O338 C337 1.227 . S
N339 Co336 2.121 . S
N339 C341 1.375 . S
N339 C342 1.313 . S
C340 C341 1.338 . S
C340 N343 1.377 . S
C340 H360 0.930 . S
C341 N339 1.375 . S
C341 C340 1.338 . S
C341 H345 0.931 . S
C342 N339 1.313 . S
C342 N343 1.344 . S
C342 H346 0.930 . S
N343 C340 1.377 . S
N343 C342 1.344 . S
O344 Co336 2.055 . S
O344 C348 1.253 . S
H345 C341 0.931 . S
H346 C342 0.930 . S
O347 Co336 2.039 . S
O347 C337 1.265 . S
C348 O344 1.253 . S
C348 O349 1.227 . S
O349 C348 1.227 . S
N350 Co336 2.140 . S
N350 C353 1.346 . S
N350 C354 1.345 . S
C351 C352 1.387 . S
C351 C355 1.391 . S
C352 C351 1.387 . S
C352 C353 1.369 . S
C352 H361 0.929 . S
C353 N350 1.346 . S
C353 C352 1.369 . S
C353 H356 0.928 . S
C354 N350 1.345 . S
C354 C355 1.371 . S
C354 H357 0.931 . S
C355 C351 1.391 . S
C355 C354 1.371 . S
C355 H362 0.930 . S
H356 C353 0.928 . S
H357 C354 0.931 . S
H358 C334 0.930 . S
H359 C331 0.930 . S
H360 C340 0.930 . S
H361 C352 0.929 . S
H362 C355 0.930 . S
C363 C364 1.351 . S
C363 N366 1.368 . S
C363 H368 0.931 . S
C364 C363 1.351 . S
C364 N365 1.373 1_545 S
C364 H392 0.925 1_545 S
N365 C364 1.373 1_565 S
N365 C367 1.340 1_565 S
N366 C363 1.368 . S
N366 C367 1.321 . S
N366 Co369 2.135 . S
C367 N365 1.340 1_545 S
C367 N366 1.321 . S
C367 H391 0.930 1_545 S
H368 C363 0.931 . S
Co369 N366 2.135 . S
Co369 N372 2.121 . S
Co369 O377 2.055 . S
Co369 O380 2.039 . S
Co369 N383 2.140 1_545 S
C370 O371 1.227 1_545 S
C370 O380 1.265 . S
O371 C370 1.227 1_565 S
N372 Co369 2.121 . S
N372 C374 1.375 . S
N372 C375 1.313 . S
C373 C374 1.338 . S
C373 N376 1.377 . S
C373 H393 0.930 . S
C374 N372 1.375 . S
C374 C373 1.338 . S
C374 H378 0.931 . S
C375 N372 1.313 . S
C375 N376 1.344 . S
C375 H379 0.930 . S
N376 C373 1.377 . S
N376 C375 1.344 . S
O377 Co369 2.055 . S
O377 C381 1.253 . S
H378 C374 0.931 . S
H379 C375 0.930 . S
O380 Co369 2.039 . S
O380 C370 1.265 . S
C381 O377 1.253 . S
C381 O382 1.227 . S
O382 C381 1.227 . S
N383 Co369 2.140 1_565 S
N383 C386 1.346 . S
N383 C387 1.345 . S
C384 C385 1.387 . S
C384 C388 1.391 . S
C385 C384 1.387 . S
C385 C386 1.369 . S
C385 H394 0.929 . S
C386 N383 1.346 . S
C386 C385 1.369 . S
C386 H389 0.928 . S
C387 N383 1.345 . S
C387 C388 1.371 . S
C387 H390 0.931 1_565 S
C388 C384 1.391 . S
C388 C387 1.371 . S
C388 H395 0.930 . S
H389 C386 0.928 . S
H390 C387 0.931 1_545 S
H391 C367 0.930 1_565 S
H392 C364 0.925 1_565 S
H393 C373 0.930 . S
H394 C385 0.929 . S
H395 C388 0.930 . S
C396 C397 1.351 . S
C396 N399 1.368 . S
C396 H401 0.931 . S
C397 C396 1.351 . S
C397 N398 1.373 . S
C397 H425 0.930 . S
N398 C397 1.373 . S
N398 C400 1.340 . S
N399 C396 1.368 . S
N399 C400 1.321 . S
N399 Co402 2.135 . S
C400 N398 1.340 . S
C400 N399 1.321 . S
C400 H424 0.930 . S
H401 C396 0.931 . S
Co402 N399 2.135 . S
Co402 N405 2.121 1_565 S
Co402 O410 2.055 . S
Co402 O413 2.039 . S
Co402 N416 2.140 . S
C403 O404 1.227 . S
C403 O413 1.265 . S
O404 C403 1.227 . S
N405 Co402 2.121 1_545 S
N405 C407 1.375 . S
N405 C408 1.313 . S
C406 C407 1.338 . S
C406 N409 1.377 . S
C406 H426 0.930 . S
C407 N405 1.375 . S
C407 C406 1.338 . S
C407 H411 0.931 . S
C408 N405 1.313 . S
C408 N409 1.344 . S
C408 H412 0.930 . S
N409 C406 1.377 . S
N409 C408 1.344 . S
O410 Co402 2.055 . S
O410 C414 1.253 . S
H411 C407 0.931 . S
H412 C408 0.930 . S
O413 Co402 2.039 . S
O413 C403 1.265 . S
C414 O410 1.253 . S
C414 O415 1.227 . S
O415 C414 1.227 . S
N416 Co402 2.140 . S
N416 C419 1.346 . S
N416 C420 1.345 . S
C417 C418 1.387 . S
C417 C421 1.391 . S
C418 C417 1.387 . S
C418 C419 1.369 . S
C418 H427 0.929 . S
C419 N416 1.346 . S
C419 C418 1.369 . S
C419 H422 0.928 . S
C420 N416 1.345 . S
C420 C421 1.371 . S
C420 H423 0.931 . S
C421 C417 1.391 . S
C421 C420 1.371 . S
C421 H428 0.930 1_565 S
H422 C419 0.928 . S
H423 C420 0.931 . S
H424 C400 0.930 . S
H425 C397 0.930 . S
H426 C406 0.930 . S
H427 C418 0.929 . S
H428 C421 0.930 1_545 S
C429 C430 1.351 . S
C429 N432 1.368 . S
C429 H434 0.931 . S
C430 C429 1.351 . S
C430 N431 1.373 . S
C430 H458 0.930 . S
N431 C430 1.373 . S
N431 C433 1.340 . S
N432 C429 1.368 . S
N432 C433 1.321 . S
N432 Co435 2.135 . S
C433 N431 1.340 . S
C433 N432 1.321 . S
C433 H457 0.930 . S
H434 C429 0.931 . S
Co435 N432 2.135 . S
Co435 N438 2.121 . S
Co435 O443 2.055 . S
Co435 O446 2.039 . S
Co435 N449 2.140 . S
C436 O437 1.227 . S
C436 O446 1.265 . S
O437 C436 1.227 . S
N438 Co435 2.121 . S
N438 C440 1.375 . S
N438 C441 1.313 . S
C439 C440 1.338 . S
C439 N442 1.377 . S
C439 H459 0.930 . S
C440 N438 1.375 . S
C440 C439 1.338 . S
C440 H444 0.931 . S
C441 N438 1.313 . S
C441 N442 1.344 . S
C441 H445 0.930 . S
N442 C439 1.377 . S
N442 C441 1.344 . S
O443 Co435 2.055 . S
O443 C447 1.253 . S
H444 C440 0.931 . S
H445 C441 0.930 . S
O446 Co435 2.039 . S
O446 C436 1.265 . S
C447 O443 1.253 . S
C447 O448 1.227 . S
O448 C447 1.227 . S
N449 Co435 2.140 . S
N449 C452 1.346 . S
N449 C453 1.345 . S
C450 C451 1.387 . S
C450 C454 1.391 . S
C451 C450 1.387 . S
C451 C452 1.369 . S
C451 H460 0.929 . S
C452 N449 1.346 . S
C452 C451 1.369 . S
C452 H455 0.928 . S
C453 N449 1.345 . S
C453 C454 1.371 . S
C453 H456 0.931 . S
C454 C450 1.391 . S
C454 C453 1.371 . S
C454 H461 0.930 . S
H455 C452 0.928 . S
H456 C453 0.931 . S
H457 C433 0.930 . S
H458 C430 0.930 . S
H459 C439 0.930 . S
H460 C451 0.929 . S
H461 C454 0.930 . S
C462 C463 1.351 . S
C462 N465 1.368 . S
C462 H467 0.931 . S
C463 C462 1.351 . S
C463 N464 1.373 . S
C463 H491 0.930 . S
N464 C463 1.373 . S
N464 C466 1.340 . S
N465 C462 1.368 . S
N465 C466 1.321 . S
N465 Co468 2.135 . S
C466 N464 1.340 . S
C466 N465 1.321 . S
C466 H490 0.930 . S
H467 C462 0.931 . S
Co468 N465 2.135 . S
Co468 N471 2.121 . S
Co468 O476 2.055 . S
Co468 O479 2.039 . S
Co468 N482 2.140 . S
C469 O470 1.227 . S
C469 O479 1.265 . S
O470 C469 1.227 . S
N471 Co468 2.121 . S
N471 C473 1.375 . S
N471 C474 1.313 . S
C472 C473 1.338 . S
C472 N475 1.377 . S
C472 H492 0.930 . S
C473 N471 1.375 . S
C473 C472 1.338 . S
C473 H477 0.931 . S
C474 N471 1.313 . S
C474 N475 1.344 . S
C474 H478 0.930 . S
N475 C472 1.377 . S
N475 C474 1.344 . S
O476 Co468 2.055 . S
O476 C480 1.253 . S
H477 C473 0.931 . S
H478 C474 0.930 . S
O479 Co468 2.039 . S
O479 C469 1.265 . S
C480 O476 1.253 . S
C480 O481 1.227 . S
O481 C480 1.227 . S
N482 Co468 2.140 . S
N482 C485 1.346 . S
N482 C486 1.345 . S
C483 C484 1.387 . S
C483 C487 1.391 . S
C484 C483 1.387 . S
C484 C485 1.369 . S
C484 H493 0.929 . S
C485 N482 1.346 . S
C485 C484 1.369 . S
C485 H488 0.928 . S
C486 N482 1.345 . S
C486 C487 1.371 . S
C486 H489 0.931 . S
C487 C483 1.391 . S
C487 C486 1.371 . S
C487 H494 0.930 . S
H488 C485 0.928 . S
H489 C486 0.931 . S
H490 C466 0.930 . S
H491 C463 0.930 . S
H492 C472 0.930 . S
H493 C484 0.929 . S
H494 C487 0.930 . S
C495 C496 1.351 . S
C495 N498 1.368 . S
C495 H500 0.931 . S
C496 C495 1.351 . S
C496 N497 1.373 1_545 S
C496 H524 0.925 1_545 S
N497 C496 1.373 1_565 S
N497 C499 1.340 1_565 S
N498 C495 1.368 . S
N498 C499 1.321 . S
N498 Co501 2.135 . S
C499 N497 1.340 1_545 S
C499 N498 1.321 . S
C499 H523 0.930 1_545 S
H500 C495 0.931 . S
Co501 N498 2.135 . S
Co501 N504 2.121 . S
Co501 O509 2.055 . S
Co501 O512 2.039 . S
Co501 N515 2.140 1_545 S
C502 O503 1.227 1_545 S
C502 O512 1.265 . S
O503 C502 1.227 1_565 S
N504 Co501 2.121 . S
N504 C506 1.375 . S
N504 C507 1.313 . S
C505 C506 1.338 . S
C505 N508 1.377 . S
C505 H525 0.930 . S
C506 N504 1.375 . S
C506 C505 1.338 . S
C506 H510 0.931 . S
C507 N504 1.313 . S
C507 N508 1.344 . S
C507 H511 0.930 . S
N508 C505 1.377 . S
N508 C507 1.344 . S
O509 Co501 2.055 . S
O509 C513 1.253 . S
H510 C506 0.931 . S
H511 C507 0.930 . S
O512 Co501 2.039 . S
O512 C502 1.265 . S
C513 O509 1.253 . S
C513 O514 1.227 . S
O514 C513 1.227 . S
N515 Co501 2.140 1_565 S
N515 C518 1.346 . S
N515 C519 1.345 . S
C516 C517 1.387 . S
C516 C520 1.391 . S
C517 C516 1.387 . S
C517 C518 1.369 . S
C517 H526 0.929 . S
C518 N515 1.346 . S
C518 C517 1.369 . S
C518 H521 0.928 . S
C519 N515 1.345 . S
C519 C520 1.371 . S
C519 H522 0.931 1_565 S
C520 C516 1.391 . S
C520 C519 1.371 . S
C520 H527 0.930 . S
H521 C518 0.928 . S
H522 C519 0.931 1_545 S
H523 C499 0.930 1_565 S
H524 C496 0.925 1_565 S
H525 C505 0.930 . S
H526 C517 0.929 . S
H527 C520 0.930 . S
C528 C529 1.351 . S
C528 N531 1.368 . S
C528 H533 0.931 . S
C529 C528 1.351 . S
C529 N530 1.373 . S
C529 H557 0.930 . S
N530 C529 1.373 . S
N530 C532 1.340 . S
N531 C528 1.368 . S
N531 C532 1.321 . S
N531 Co534 2.135 . S
C532 N530 1.340 . S
C532 N531 1.321 . S
C532 H556 0.930 . S
H533 C528 0.931 . S
Co534 N531 2.135 . S
Co534 N537 2.121 1_554 S
Co534 O542 2.055 . S
Co534 O545 2.039 . S
Co534 N548 2.140 . S
C535 O536 1.227 . S
C535 O545 1.265 . S
O536 C535 1.227 . S
N537 Co534 2.121 1_556 S
N537 C539 1.375 . S
N537 C540 1.313 . S
C538 C539 1.338 . S
C538 N541 1.377 . S
C538 H558 0.930 . S
C539 N537 1.375 . S
C539 C538 1.338 . S
C539 H543 0.931 . S
C540 N537 1.313 . S
C540 N541 1.344 . S
C540 H544 0.930 . S
N541 C538 1.377 . S
N541 C540 1.344 . S
O542 Co534 2.055 . S
O542 C546 1.253 . S
H543 C539 0.931 . S
H544 C540 0.930 . S
O545 Co534 2.039 . S
O545 C535 1.265 . S
C546 O542 1.253 . S
C546 O547 1.227 . S
O547 C546 1.227 . S
N548 Co534 2.140 . S
N548 C551 1.346 . S
N548 C552 1.345 . S
C549 C550 1.387 . S
C549 C553 1.391 . S
C550 C549 1.387 . S
C550 C551 1.369 . S
C550 H559 0.929 . S
C551 N548 1.346 . S
C551 C550 1.369 . S
C551 H554 0.928 . S
C552 N548 1.345 . S
C552 C553 1.371 . S
C552 H555 0.931 . S
C553 C549 1.391 . S
C553 C552 1.371 . S
C553 H560 0.930 1_554 S
H554 C551 0.928 . S
H555 C552 0.931 . S
H556 C532 0.930 . S
H557 C529 0.930 . S
H558 C538 0.930 . S
H559 C550 0.929 . S
H560 C553 0.930 1_556 S
C561 C562 1.351 . S
C561 N564 1.368 . S
C561 H566 0.931 . S
C562 C561 1.351 . S
C562 N563 1.373 . S
C562 H590 0.930 . S
N563 C562 1.373 . S
N563 C565 1.340 . S
N564 C561 1.368 . S
N564 C565 1.321 . S
N564 Co567 2.135 . S
C565 N563 1.340 . S
C565 N564 1.321 . S
C565 H589 0.930 . S
H566 C561 0.931 . S
Co567 N564 2.135 . S
Co567 N570 2.121 . S
Co567 O575 2.055 . S
Co567 O578 2.039 . S
Co567 N581 2.140 . S
C568 O569 1.227 . S
C568 O578 1.265 . S
O569 C568 1.227 . S
N570 Co567 2.121 . S
N570 C572 1.375 . S
N570 C573 1.313 . S
C571 C572 1.338 . S
C571 N574 1.377 . S
C571 H591 0.930 . S
C572 N570 1.375 . S
C572 C571 1.338 . S
C572 H576 0.931 . S
C573 N570 1.313 . S
C573 N574 1.344 . S
C573 H577 0.930 . S
N574 C571 1.377 . S
N574 C573 1.344 . S
O575 Co567 2.055 . S
O575 C579 1.253 . S
H576 C572 0.931 . S
H577 C573 0.930 . S
O578 Co567 2.039 . S
O578 C568 1.265 . S
C579 O575 1.253 . S
C579 O580 1.227 . S
O580 C579 1.227 . S
N581 Co567 2.140 . S
N581 C584 1.346 . S
N581 C585 1.345 . S
C582 C583 1.387 . S
C582 C586 1.391 . S
C583 C582 1.387 . S
C583 C584 1.369 . S
C583 H592 0.929 . S
C584 N581 1.346 . S
C584 C583 1.369 . S
C584 H587 0.928 . S
C585 N581 1.345 . S
C585 C586 1.371 . S
C585 H588 0.931 . S
C586 C582 1.391 . S
C586 C585 1.371 . S
C586 H593 0.930 . S
H587 C584 0.928 . S
H588 C585 0.931 . S
H589 C565 0.930 . S
H590 C562 0.930 . S
H591 C571 0.930 . S
H592 C583 0.929 . S
H593 C586 0.930 . S
C594 C595 1.351 . S
C594 N597 1.368 . S
C594 H599 0.931 . S
C595 C594 1.351 . S
C595 N596 1.373 1_655 S
C595 H623 0.930 1_655 S
N596 C595 1.373 1_455 S
N596 C598 1.340 1_455 S
N597 C594 1.368 . S
N597 C598 1.321 . S
N597 Co600 2.135 . S
C598 N596 1.340 1_655 S
C598 N597 1.321 . S
C598 H622 0.930 1_655 S
H599 C594 0.931 . S
Co600 N597 2.135 . S
Co600 N603 2.121 . S
Co600 O608 2.055 . S
Co600 O611 2.039 . S
Co600 N614 2.140 1_655 S
C601 O602 1.227 1_655 S
C601 O611 1.265 . S
O602 C601 1.227 1_455 S
N603 Co600 2.121 . S
N603 C605 1.375 . S
N603 C606 1.313 . S
C604 C605 1.338 . S
C604 N607 1.377 . S
C604 H624 0.930 . S
C605 N603 1.375 . S
C605 C604 1.338 . S
C605 H609 0.931 . S
C606 N603 1.313 . S
C606 N607 1.344 . S
C606 H610 0.930 . S
N607 C604 1.377 . S
N607 C606 1.344 . S
O608 Co600 2.055 . S
O608 C612 1.253 . S
H609 C605 0.931 . S
H610 C606 0.930 . S
O611 Co600 2.039 . S
O611 C601 1.265 . S
C612 O608 1.253 . S
C612 O613 1.227 . S
O613 C612 1.227 . S
N614 Co600 2.140 1_455 S
N614 C617 1.346 . S
N614 C618 1.345 . S
C615 C616 1.387 . S
C615 C619 1.391 . S
C616 C615 1.387 . S
C616 C617 1.369 . S
C616 H625 0.929 . S
C617 N614 1.346 . S
C617 C616 1.369 . S
C617 H620 0.928 . S
C618 N614 1.345 . S
C618 C619 1.371 . S
C618 H621 0.931 1_455 S
C619 C615 1.391 . S
C619 C618 1.371 . S
C619 H626 0.930 . S
H620 C617 0.928 . S
H621 C618 0.931 1_655 S
H622 C598 0.930 1_455 S
H623 C595 0.930 1_455 S
H624 C604 0.930 . S
H625 C616 0.929 . S
H626 C619 0.930 . S
C627 C628 1.351 . S
C627 N630 1.368 . S
C627 H632 0.931 . S
C628 C627 1.351 . S
C628 N629 1.373 . S
C628 H656 0.930 . S
N629 C628 1.373 . S
N629 C631 1.340 . S
N630 C627 1.368 . S
N630 C631 1.321 . S
N630 Co633 2.135 . S
C631 N629 1.340 . S
C631 N630 1.321 . S
C631 H655 0.930 . S
H632 C627 0.931 . S
Co633 N630 2.135 . S
Co633 N636 2.121 . S
Co633 O641 2.055 . S
Co633 O644 2.039 . S
Co633 N647 2.140 . S
C634 O635 1.227 . S
C634 O644 1.265 . S
O635 C634 1.227 . S
N636 Co633 2.121 . S
N636 C638 1.375 . S
N636 C639 1.313 . S
C637 C638 1.338 . S
C637 N640 1.377 . S
C637 H657 0.930 . S
C638 N636 1.375 . S
C638 C637 1.338 . S
C638 H642 0.931 . S
C639 N636 1.313 . S
C639 N640 1.344 . S
C639 H643 0.930 . S
N640 C637 1.377 . S
N640 C639 1.344 . S
O641 Co633 2.055 . S
O641 C645 1.253 . S
H642 C638 0.931 . S
H643 C639 0.930 . S
O644 Co633 2.039 . S
O644 C634 1.265 . S
C645 O641 1.253 . S
C645 O646 1.227 . S
O646 C645 1.227 . S
N647 Co633 2.140 . S
N647 C650 1.346 . S
N647 C651 1.345 . S
C648 C649 1.387 . S
C648 C652 1.391 . S
C649 C648 1.387 . S
C649 C650 1.369 . S
C649 H658 0.929 . S
C650 N647 1.346 . S
C650 C649 1.369 . S
C650 H653 0.928 . S
C651 N647 1.345 . S
C651 C652 1.371 . S
C651 H654 0.931 . S
C652 C648 1.391 . S
C652 C651 1.371 . S
C652 H659 0.930 . S
H653 C650 0.928 . S
H654 C651 0.931 . S
H655 C631 0.930 . S
H656 C628 0.930 . S
H657 C637 0.930 . S
H658 C649 0.929 . S
H659 C652 0.930 . S
C660 C661 1.351 . S
C660 N663 1.368 . S
C660 H665 0.931 . S
C661 C660 1.351 . S
C661 N662 1.373 . S
C661 H689 0.930 . S
N662 C661 1.373 . S
N662 C664 1.340 . S
N663 C660 1.368 . S
N663 C664 1.321 . S
N663 Co666 2.135 . S
C664 N662 1.340 . S
C664 N663 1.321 . S
C664 H688 0.930 . S
H665 C660 0.931 . S
Co666 N663 2.135 . S
Co666 N669 2.121 . S
Co666 O674 2.055 . S
Co666 O677 2.039 . S
Co666 N680 2.140 . S
C667 O668 1.227 . S
C667 O677 1.265 . S
O668 C667 1.227 . S
N669 Co666 2.121 . S
N669 C671 1.375 . S
N669 C672 1.313 . S
C670 C671 1.338 . S
C670 N673 1.377 . S
C670 H690 0.930 . S
C671 N669 1.375 . S
C671 C670 1.338 . S
C671 H675 0.931 . S
C672 N669 1.313 . S
C672 N673 1.344 . S
C672 H676 0.930 . S
N673 C670 1.377 . S
N673 C672 1.344 . S
O674 Co666 2.055 . S
O674 C678 1.253 . S
H675 C671 0.931 . S
H676 C672 0.930 . S
O677 Co666 2.039 . S
O677 C667 1.265 . S
C678 O674 1.253 . S
C678 O679 1.227 . S
O679 C678 1.227 . S
N680 Co666 2.140 . S
N680 C683 1.346 . S
N680 C684 1.345 . S
C681 C682 1.387 . S
C681 C685 1.391 . S
C682 C681 1.387 . S
C682 C683 1.369 . S
C682 H691 0.929 . S
C683 N680 1.346 . S
C683 C682 1.369 . S
C683 H686 0.928 . S
C684 N680 1.345 . S
C684 C685 1.371 . S
C684 H687 0.931 . S
C685 C681 1.391 . S
C685 C684 1.371 . S
C685 H692 0.930 . S
H686 C683 0.928 . S
H687 C684 0.931 . S
H688 C664 0.930 . S
H689 C661 0.930 . S
H690 C670 0.930 . S
H691 C682 0.929 . S
H692 C685 0.930 . S
C693 C694 1.351 . S
C693 N696 1.368 . S
C693 H698 0.931 . S
C694 C693 1.351 . S
C694 N695 1.373 . S
C694 H722 0.930 . S
N695 C694 1.373 . S
N695 C697 1.340 . S
N696 C693 1.368 . S
N696 C697 1.321 . S
N696 Co699 2.135 . S
C697 N695 1.340 . S
C697 N696 1.321 . S
C697 H721 0.930 . S
H698 C693 0.931 . S
Co699 N696 2.135 . S
Co699 N702 2.121 . S
Co699 O707 2.055 . S
Co699 O710 2.039 . S
Co699 N713 2.140 . S
C700 O701 1.227 . S
C700 O710 1.265 . S
O701 C700 1.227 . S
N702 Co699 2.121 . S
N702 C704 1.375 . S
N702 C705 1.313 . S
C703 C704 1.338 . S
C703 N706 1.377 . S
C703 H723 0.930 . S
C704 N702 1.375 . S
C704 C703 1.338 . S
C704 H708 0.931 . S
C705 N702 1.313 . S
C705 N706 1.344 . S
C705 H709 0.930 . S
N706 C703 1.377 . S
N706 C705 1.344 . S
O707 Co699 2.055 . S
O707 C711 1.253 . S
H708 C704 0.931 . S
H709 C705 0.930 . S
O710 Co699 2.039 . S
O710 C700 1.265 . S
C711 O707 1.253 . S
C711 O712 1.227 . S
O712 C711 1.227 . S
N713 Co699 2.140 . S
N713 C716 1.346 . S
N713 C717 1.345 . S
C714 C715 1.387 . S
C714 C718 1.391 . S
C715 C714 1.387 . S
C715 C716 1.369 . S
C715 H724 0.929 . S
C716 N713 1.346 . S
C716 C715 1.369 . S
C716 H719 0.928 . S
C717 N713 1.345 . S
C717 C718 1.371 . S
C717 H720 0.931 . S
C718 C714 1.391 . S
C718 C717 1.371 . S
C718 H725 0.930 . S
H719 C716 0.928 . S
H720 C717 0.931 . S
H721 C697 0.930 . S
H722 C694 0.930 . S
H723 C703 0.930 . S
H724 C715 0.929 . S
H725 C718 0.930 . S
C726 C727 1.351 . S
C726 N729 1.368 . S
C726 H731 0.931 . S
C727 C726 1.351 . S
C727 N728 1.373 1_655 S
C727 H755 0.930 1_655 S
N728 C727 1.373 1_455 S
N728 C730 1.340 1_455 S
N729 C726 1.368 . S
N729 C730 1.321 . S
N729 Co732 2.135 . S
C730 N728 1.340 1_655 S
C730 N729 1.321 . S
C730 H754 0.930 1_655 S
H731 C726 0.931 . S
Co732 N729 2.135 . S
Co732 N735 2.121 . S
Co732 O740 2.055 . S
Co732 O743 2.039 . S
Co732 N746 2.140 1_655 S
C733 O734 1.227 1_655 S
C733 O743 1.265 . S
O734 C733 1.227 1_455 S
N735 Co732 2.121 . S
N735 C737 1.375 . S
N735 C738 1.313 . S
C736 C737 1.338 . S
C736 N739 1.377 . S
C736 H756 0.930 . S
C737 N735 1.375 . S
C737 C736 1.338 . S
C737 H741 0.931 . S
C738 N735 1.313 . S
C738 N739 1.344 . S
C738 H742 0.930 . S
N739 C736 1.377 . S
N739 C738 1.344 . S
O740 Co732 2.055 . S
O740 C744 1.253 . S
H741 C737 0.931 . S
H742 C738 0.930 . S
O743 Co732 2.039 . S
O743 C733 1.265 . S
C744 O740 1.253 . S
C744 O745 1.227 . S
O745 C744 1.227 . S
N746 Co732 2.140 1_455 S
N746 C749 1.346 . S
N746 C750 1.345 . S
C747 C748 1.387 . S
C747 C751 1.391 . S
C748 C747 1.387 . S
C748 C749 1.369 . S
C748 H757 0.929 . S
C749 N746 1.346 . S
C749 C748 1.369 . S
C749 H752 0.928 . S
C750 N746 1.345 . S
C750 C751 1.371 . S
C750 H753 0.931 1_455 S
C751 C747 1.391 . S
C751 C750 1.371 . S
C751 H758 0.930 . S
H752 C749 0.928 . S
H753 C750 0.931 1_655 S
H754 C730 0.930 1_455 S
H755 C727 0.930 1_455 S
H756 C736 0.930 . S
H757 C748 0.929 . S
H758 C751 0.930 . S
C759 C760 1.351 . S
C759 N762 1.368 . S
C759 H764 0.931 . S
C760 C759 1.351 . S
C760 N761 1.373 1_455 S
C760 H788 0.925 1_455 S
N761 C760 1.373 1_655 S
N761 C763 1.340 1_655 S
N762 C759 1.368 . S
N762 C763 1.321 . S
N762 Co765 2.135 . S
C763 N761 1.340 1_455 S
C763 N762 1.321 . S
C763 H787 0.930 1_455 S
H764 C759 0.931 . S
Co765 N762 2.135 . S
Co765 N768 2.121 . S
Co765 O773 2.055 . S
Co765 O776 2.039 . S
Co765 N779 2.140 1_455 S
C766 O767 1.227 1_455 S
C766 O776 1.265 . S
O767 C766 1.227 1_655 S
N768 Co765 2.121 . S
N768 C770 1.375 . S
N768 C771 1.313 . S
C769 C770 1.338 . S
C769 N772 1.377 . S
C769 H789 0.930 . S
C770 N768 1.375 . S
C770 C769 1.338 . S
C770 H774 0.931 . S
C771 N768 1.313 . S
C771 N772 1.344 . S
C771 H775 0.930 . S
N772 C769 1.377 . S
N772 C771 1.344 . S
O773 Co765 2.055 . S
O773 C777 1.253 . S
H774 C770 0.931 . S
H775 C771 0.930 . S
O776 Co765 2.039 . S
O776 C766 1.265 . S
C777 O773 1.253 . S
C777 O778 1.227 . S
O778 C777 1.227 . S
N779 Co765 2.140 1_655 S
N779 C782 1.346 . S
N779 C783 1.345 . S
C780 C781 1.387 . S
C780 C784 1.391 . S
C781 C780 1.387 . S
C781 C782 1.369 . S
C781 H790 0.929 . S
C782 N779 1.346 . S
C782 C781 1.369 . S
C782 H785 0.928 . S
C783 N779 1.345 . S
C783 C784 1.371 . S
C783 H786 0.931 1_655 S
C784 C780 1.391 . S
C784 C783 1.371 . S
C784 H791 0.930 . S
H785 C782 0.928 . S
H786 C783 0.931 1_455 S
H787 C763 0.930 1_655 S
H788 C760 0.925 1_655 S
H789 C769 0.930 . S
H790 C781 0.929 . S
H791 C784 0.930 . S
C792 C793 1.351 . S
C792 N795 1.368 . S
C792 H797 0.931 . S
C793 C792 1.351 . S
C793 N794 1.373 . S
C793 H821 0.930 . S
N794 C793 1.373 . S
N794 C796 1.340 . S
N795 C792 1.368 . S
N795 C796 1.321 . S
N795 Co798 2.135 . S
C796 N794 1.340 . S
C796 N795 1.321 . S
C796 H820 0.930 . S
H797 C792 0.931 . S
Co798 N795 2.135 . S
Co798 N801 2.121 . S
Co798 O806 2.055 . S
Co798 O809 2.039 . S
Co798 N812 2.140 . S
C799 O800 1.227 . S
C799 O809 1.265 . S
O800 C799 1.227 . S
N801 Co798 2.121 . S
N801 C803 1.375 . S
N801 C804 1.313 . S
C802 C803 1.338 . S
C802 N805 1.377 . S
C802 H822 0.930 . S
C803 N801 1.375 . S
C803 C802 1.338 . S
C803 H807 0.931 . S
C804 N801 1.313 . S
C804 N805 1.344 . S
C804 H808 0.930 . S
N805 C802 1.377 . S
N805 C804 1.344 . S
O806 Co798 2.055 . S
O806 C810 1.253 . S
H807 C803 0.931 . S
H808 C804 0.930 . S
O809 Co798 2.039 . S
O809 C799 1.265 . S
C810 O806 1.253 . S
C810 O811 1.227 . S
O811 C810 1.227 . S
N812 Co798 2.140 . S
N812 C815 1.346 . S
N812 C816 1.345 . S
C813 C814 1.387 . S
C813 C817 1.391 . S
C814 C813 1.387 . S
C814 C815 1.369 . S
C814 H823 0.929 . S
C815 N812 1.346 . S
C815 C814 1.369 . S
C815 H818 0.928 . S
C816 N812 1.345 . S
C816 C817 1.371 . S
C816 H819 0.931 . S
C817 C813 1.391 . S
C817 C816 1.371 . S
C817 H824 0.930 . S
H818 C815 0.928 . S
H819 C816 0.931 . S
H820 C796 0.930 . S
H821 C793 0.930 . S
H822 C802 0.930 . S
H823 C814 0.929 . S
H824 C817 0.930 . S
C825 C826 1.351 . S
C825 N828 1.368 . S
C825 H830 0.931 . S
C826 C825 1.351 . S
C826 N827 1.373 . S
C826 H854 0.930 . S
N827 C826 1.373 . S
N827 C829 1.340 . S
N828 C825 1.368 . S
N828 C829 1.321 . S
N828 Co831 2.135 . S
C829 N827 1.340 . S
C829 N828 1.321 . S
C829 H853 0.930 . S
H830 C825 0.931 . S
Co831 N828 2.135 . S
Co831 N834 2.121 . S
Co831 O839 2.055 . S
Co831 O842 2.039 . S
Co831 N845 2.140 . S
C832 O833 1.227 . S
C832 O842 1.265 . S
O833 C832 1.227 . S
N834 Co831 2.121 . S
N834 C836 1.375 . S
N834 C837 1.313 . S
C835 C836 1.338 . S
C835 N838 1.377 . S
C835 H855 0.930 . S
C836 N834 1.375 . S
C836 C835 1.338 . S
C836 H840 0.931 . S
C837 N834 1.313 . S
C837 N838 1.344 . S
C837 H841 0.930 . S
N838 C835 1.377 . S
N838 C837 1.344 . S
O839 Co831 2.055 . S
O839 C843 1.253 . S
H840 C836 0.931 . S
H841 C837 0.930 . S
O842 Co831 2.039 . S
O842 C832 1.265 . S
C843 O839 1.253 . S
C843 O844 1.227 . S
O844 C843 1.227 . S
N845 Co831 2.140 . S
N845 C848 1.346 . S
N845 C849 1.345 . S
C846 C847 1.387 . S
C846 C850 1.391 . S
C847 C846 1.387 . S
C847 C848 1.369 . S
C847 H856 0.929 . S
C848 N845 1.346 . S
C848 C847 1.369 . S
C848 H851 0.928 . S
C849 N845 1.345 . S
C849 C850 1.371 . S
C849 H852 0.931 . S
C850 C846 1.391 . S
C850 C849 1.371 . S
C850 H857 0.930 . S
H851 C848 0.928 . S
H852 C849 0.931 . S
H853 C829 0.930 . S
H854 C826 0.930 . S
H855 C835 0.930 . S
H856 C847 0.929 . S
H857 C850 0.930 . S
C858 C859 1.351 . S
C858 N861 1.368 . S
C858 H863 0.931 . S
C859 C858 1.351 . S
C859 N860 1.373 . S
C859 H887 0.930 . S
N860 C859 1.373 . S
N860 C862 1.340 . S
N861 C858 1.368 . S
N861 C862 1.321 . S
N861 Co864 2.135 . S
C862 N860 1.340 . S
C862 N861 1.321 . S
C862 H886 0.930 . S
H863 C858 0.931 . S
Co864 N861 2.135 . S
Co864 N867 2.121 . S
Co864 O872 2.055 . S
Co864 O875 2.039 . S
Co864 N878 2.140 . S
C865 O866 1.227 . S
C865 O875 1.265 . S
O866 C865 1.227 . S
N867 Co864 2.121 . S
N867 C869 1.375 . S
N867 C870 1.313 . S
C868 C869 1.338 . S
C868 N871 1.377 . S
C868 H888 0.930 . S
C869 N867 1.375 . S
C869 C868 1.338 . S
C869 H873 0.931 . S
C870 N867 1.313 . S
C870 N871 1.344 . S
C870 H874 0.930 . S
N871 C868 1.377 . S
N871 C870 1.344 . S
O872 Co864 2.055 . S
O872 C876 1.253 . S
H873 C869 0.931 . S
H874 C870 0.930 . S
O875 Co864 2.039 . S
O875 C865 1.265 . S
C876 O872 1.253 . S
C876 O877 1.227 . S
O877 C876 1.227 . S
N878 Co864 2.140 . S
N878 C881 1.346 . S
N878 C882 1.345 . S
C879 C880 1.387 . S
C879 C883 1.391 . S
C880 C879 1.387 . S
C880 C881 1.369 . S
C880 H889 0.929 . S
C881 N878 1.346 . S
C881 C880 1.369 . S
C881 H884 0.928 . S
C882 N878 1.345 . S
C882 C883 1.371 . S
C882 H885 0.931 . S
C883 C879 1.391 . S
C883 C882 1.371 . S
C883 H890 0.930 . S
H884 C881 0.928 . S
H885 C882 0.931 . S
H886 C862 0.930 . S
H887 C859 0.930 . S
H888 C868 0.930 . S
H889 C880 0.929 . S
H890 C883 0.930 . S
C891 C892 1.351 . S
C891 N894 1.368 . S
C891 H896 0.931 . S
C892 C891 1.351 . S
C892 N893 1.373 . S
C892 H920 0.930 . S
N893 C892 1.373 . S
N893 C895 1.340 . S
N894 C891 1.368 . S
N894 C895 1.321 . S
N894 Co897 2.135 . S
C895 N893 1.340 . S
C895 N894 1.321 . S
C895 H919 0.930 . S
H896 C891 0.931 . S
Co897 N894 2.135 . S
Co897 N900 2.121 . S
Co897 O905 2.055 . S
Co897 O908 2.039 . S
Co897 N911 2.140 . S
C898 O899 1.227 . S
C898 O908 1.265 . S
O899 C898 1.227 . S
N900 Co897 2.121 . S
N900 C902 1.375 . S
N900 C903 1.313 . S
C901 C902 1.338 . S
C901 N904 1.377 . S
C901 H921 0.930 . S
C902 N900 1.375 . S
C902 C901 1.338 . S
C902 H906 0.931 . S
C903 N900 1.313 . S
C903 N904 1.344 . S
C903 H907 0.930 . S
N904 C901 1.377 . S
N904 C903 1.344 . S
O905 Co897 2.055 . S
O905 C909 1.253 . S
H906 C902 0.931 . S
H907 C903 0.930 . S
O908 Co897 2.039 . S
O908 C898 1.265 . S
C909 O905 1.253 . S
C909 O910 1.227 . S
O910 C909 1.227 . S
N911 Co897 2.140 . S
N911 C914 1.346 . S
N911 C915 1.345 . S
C912 C913 1.387 . S
C912 C916 1.391 . S
C913 C912 1.387 . S
C913 C914 1.369 . S
C913 H922 0.929 . S
C914 N911 1.346 . S
C914 C913 1.369 . S
C914 H917 0.928 . S
C915 N911 1.345 . S
C915 C916 1.371 . S
C915 H918 0.931 . S
C916 C912 1.391 . S
C916 C915 1.371 . S
C916 H923 0.930 . S
H917 C914 0.928 . S
H918 C915 0.931 . S
H919 C895 0.930 . S
H920 C892 0.930 . S
H921 C901 0.930 . S
H922 C913 0.929 . S
H923 C916 0.930 . S
C924 C925 1.351 . S
C924 N927 1.368 . S
C924 H929 0.931 . S
C925 C924 1.351 . S
C925 N926 1.373 . S
C925 H953 0.930 . S
N926 C925 1.373 . S
N926 C928 1.340 . S
N927 C924 1.368 . S
N927 C928 1.321 . S
N927 Co930 2.135 . S
C928 N926 1.340 . S
C928 N927 1.321 . S
C928 H952 0.930 . S
H929 C924 0.931 . S
Co930 N927 2.135 . S
Co930 N933 2.121 . S
Co930 O938 2.055 . S
Co930 O941 2.039 . S
Co930 N944 2.140 . S
C931 O932 1.227 . S
C931 O941 1.265 . S
O932 C931 1.227 . S
N933 Co930 2.121 . S
N933 C935 1.375 . S
N933 C936 1.313 . S
C934 C935 1.338 . S
C934 N937 1.377 . S
C934 H954 0.930 . S
C935 N933 1.375 . S
C935 C934 1.338 . S
C935 H939 0.931 . S
C936 N933 1.313 . S
C936 N937 1.344 . S
C936 H940 0.930 . S
N937 C934 1.377 . S
N937 C936 1.344 . S
O938 Co930 2.055 . S
O938 C942 1.253 . S
H939 C935 0.931 . S
H940 C936 0.930 . S
O941 Co930 2.039 . S
O941 C931 1.265 . S
C942 O938 1.253 . S
C942 O943 1.227 . S
O943 C942 1.227 . S
N944 Co930 2.140 . S
N944 C947 1.346 . S
N944 C948 1.345 . S
C945 C946 1.387 . S
C945 C949 1.391 . S
C946 C945 1.387 . S
C946 C947 1.369 . S
C946 H955 0.929 . S
C947 N944 1.346 . S
C947 C946 1.369 . S
C947 H950 0.928 . S
C948 N944 1.345 . S
C948 C949 1.371 . S
C948 H951 0.931 . S
C949 C945 1.391 . S
C949 C948 1.371 . S
C949 H956 0.930 . S
H950 C947 0.928 . S
H951 C948 0.931 . S
H952 C928 0.930 . S
H953 C925 0.930 . S
H954 C934 0.930 . S
H955 C946 0.929 . S
H956 C949 0.930 . S
C957 C958 1.351 . S
C957 N960 1.368 . S
C957 H962 0.931 . S
C958 C957 1.351 . S
C958 N959 1.373 . S
C958 H986 0.930 . S
N959 C958 1.373 . S
N959 C961 1.340 . S
N960 C957 1.368 . S
N960 C961 1.321 . S
N960 Co963 2.135 . S
C961 N959 1.340 . S
C961 N960 1.321 . S
C961 H985 0.930 . S
H962 C957 0.931 . S
Co963 N960 2.135 . S
Co963 N966 2.121 . S
Co963 O971 2.055 . S
Co963 O974 2.039 . S
Co963 N977 2.140 . S
C964 O965 1.227 . S
C964 O974 1.265 . S
O965 C964 1.227 . S
N966 Co963 2.121 . S
N966 C968 1.375 . S
N966 C969 1.313 . S
C967 C968 1.338 . S
C967 N970 1.377 . S
C967 H987 0.930 . S
C968 N966 1.375 . S
C968 C967 1.338 . S
C968 H972 0.931 . S
C969 N966 1.313 . S
C969 N970 1.344 . S
C969 H973 0.930 . S
N970 C967 1.377 . S
N970 C969 1.344 . S
O971 Co963 2.055 . S
O971 C975 1.253 . S
H972 C968 0.931 . S
H973 C969 0.930 . S
O974 Co963 2.039 . S
O974 C964 1.265 . S
C975 O971 1.253 . S
C975 O976 1.227 . S
O976 C975 1.227 . S
N977 Co963 2.140 . S
N977 C980 1.346 . S
N977 C981 1.345 . S
C978 C979 1.387 . S
C978 C982 1.391 . S
C979 C978 1.387 . S
C979 C980 1.369 . S
C979 H988 0.929 . S
C980 N977 1.346 . S
C980 C979 1.369 . S
C980 H983 0.928 . S
C981 N977 1.345 . S
C981 C982 1.371 . S
C981 H984 0.931 . S
C982 C978 1.391 . S
C982 C981 1.371 . S
C982 H989 0.930 . S
H983 C980 0.928 . S
H984 C981 0.931 . S
H985 C961 0.930 . S
H986 C958 0.930 . S
H987 C967 0.930 . S
H988 C979 0.929 . S
H989 C982 0.930 . S
C990 C991 1.351 . S
C990 N993 1.368 . S
C990 H995 0.931 . S
C991 C990 1.351 . S
C991 N992 1.373 . S
C991 H1019 0.930 . S
N992 C991 1.373 . S
N992 C994 1.340 . S
N993 C990 1.368 . S
N993 C994 1.321 . S
N993 Co996 2.135 . S
C994 N992 1.340 . S
C994 N993 1.321 . S
C994 H1018 0.930 . S
H995 C990 0.931 . S
Co996 N993 2.135 . S
Co996 N999 2.121 . S
Co996 O1004 2.055 . S
Co996 O1007 2.039 . S
Co996 N1010 2.140 . S
C997 O998 1.227 . S
C997 O1007 1.265 . S
O998 C997 1.227 . S
N999 Co996 2.121 . S
N999 C1001 1.375 . S
N999 C1002 1.313 . S
C1000 C1001 1.338 . S
C1000 N1003 1.377 . S
C1000 H1020 0.930 . S
C1001 N999 1.375 . S
C1001 C1000 1.338 . S
C1001 H1005 0.931 . S
C1002 N999 1.313 . S
C1002 N1003 1.344 . S
C1002 H1006 0.930 . S
N1003 C1000 1.377 . S
N1003 C1002 1.344 . S
O1004 Co996 2.055 . S
O1004 C1008 1.253 . S
H1005 C1001 0.931 . S
H1006 C1002 0.930 . S
O1007 Co996 2.039 . S
O1007 C997 1.265 . S
C1008 O1004 1.253 . S
C1008 O1009 1.227 . S
O1009 C1008 1.227 . S
N1010 Co996 2.140 . S
N1010 C1013 1.346 . S
N1010 C1014 1.345 . S
C1011 C1012 1.387 . S
C1011 C1015 1.391 . S
C1012 C1011 1.387 . S
C1012 C1013 1.369 . S
C1012 H1021 0.929 . S
C1013 N1010 1.346 . S
C1013 C1012 1.369 . S
C1013 H1016 0.928 . S
C1014 N1010 1.345 . S
C1014 C1015 1.371 . S
C1014 H1017 0.931 . S
C1015 C1011 1.391 . S
C1015 C1014 1.371 . S
C1015 H1022 0.930 . S
H1016 C1013 0.928 . S
H1017 C1014 0.931 . S
H1018 C994 0.930 . S
H1019 C991 0.930 . S
H1020 C1000 0.930 . S
H1021 C1012 0.929 . S
H1022 C1015 0.930 . S
C1023 C1024 1.351 . S
C1023 N1026 1.368 . S
C1023 H1028 0.931 . S
C1024 C1023 1.351 . S
C1024 N1025 1.373 . S
C1024 H1052 0.930 . S
N1025 C1024 1.373 . S
N1025 C1027 1.340 . S
N1026 C1023 1.368 . S
N1026 C1027 1.321 . S
N1026 Co1029 2.135 . S
C1027 N1025 1.340 . S
C1027 N1026 1.321 . S
C1027 H1051 0.930 . S
H1028 C1023 0.931 . S
Co1029 N1026 2.135 . S
Co1029 N1032 2.121 . S
Co1029 O1037 2.055 . S
Co1029 O1040 2.039 . S
Co1029 N1043 2.140 . S
C1030 O1031 1.227 . S
C1030 O1040 1.265 . S
O1031 C1030 1.227 . S
N1032 Co1029 2.121 . S
N1032 C1034 1.375 . S
N1032 C1035 1.313 . S
C1033 C1034 1.338 . S
C1033 N1036 1.377 . S
C1033 H1053 0.930 . S
C1034 N1032 1.375 . S
C1034 C1033 1.338 . S
C1034 H1038 0.931 . S
C1035 N1032 1.313 . S
C1035 N1036 1.344 . S
C1035 H1039 0.930 . S
N1036 C1033 1.377 . S
N1036 C1035 1.344 . S
O1037 Co1029 2.055 . S
O1037 C1041 1.253 . S
H1038 C1034 0.931 . S
H1039 C1035 0.930 . S
O1040 Co1029 2.039 . S
O1040 C1030 1.265 . S
C1041 O1037 1.253 . S
C1041 O1042 1.227 . S
O1042 C1041 1.227 . S
N1043 Co1029 2.140 . S
N1043 C1046 1.346 . S
N1043 C1047 1.345 . S
C1044 C1045 1.387 . S
C1044 C1048 1.391 . S
C1045 C1044 1.387 . S
C1045 C1046 1.369 . S
C1045 H1054 0.929 . S
C1046 N1043 1.346 . S
C1046 C1045 1.369 . S
C1046 H1049 0.928 . S
C1047 N1043 1.345 . S
C1047 C1048 1.371 . S
C1047 H1050 0.931 . S
C1048 C1044 1.391 . S
C1048 C1047 1.371 . S
C1048 H1055 0.930 . S
H1049 C1046 0.928 . S
H1050 C1047 0.931 . S
H1051 C1027 0.930 . S
H1052 C1024 0.930 . S
H1053 C1033 0.930 . S
H1054 C1045 0.929 . S
H1055 C1048 0.930 . S
C1056 C1057 1.351 . S
C1056 N1059 1.368 . S
C1056 H1061 0.931 . S
C1057 C1056 1.351 . S
C1057 N1058 1.373 . S
C1057 H1085 0.930 . S
N1058 C1057 1.373 . S
N1058 C1060 1.340 . S
N1059 C1056 1.368 . S
N1059 C1060 1.321 . S
N1059 Co1062 2.135 . S
C1060 N1058 1.340 . S
C1060 N1059 1.321 . S
C1060 H1084 0.930 . S
H1061 C1056 0.931 . S
Co1062 N1059 2.135 . S
Co1062 N1065 2.121 . S
Co1062 O1070 2.055 . S
Co1062 O1073 2.039 . S
Co1062 N1076 2.140 . S
C1063 O1064 1.227 . S
C1063 O1073 1.265 . S
O1064 C1063 1.227 . S
N1065 Co1062 2.121 . S
N1065 C1067 1.375 . S
N1065 C1068 1.313 . S
C1066 C1067 1.338 . S
C1066 N1069 1.377 . S
C1066 H1086 0.930 . S
C1067 N1065 1.375 . S
C1067 C1066 1.338 . S
C1067 H1071 0.931 . S
C1068 N1065 1.313 . S
C1068 N1069 1.344 . S
C1068 H1072 0.930 . S
N1069 C1066 1.377 . S
N1069 C1068 1.344 . S
O1070 Co1062 2.055 . S
O1070 C1074 1.253 . S
H1071 C1067 0.931 . S
H1072 C1068 0.930 . S
O1073 Co1062 2.039 . S
O1073 C1063 1.265 . S
C1074 O1070 1.253 . S
C1074 O1075 1.227 . S
O1075 C1074 1.227 . S
N1076 Co1062 2.140 . S
N1076 C1079 1.346 . S
N1076 C1080 1.345 . S
C1077 C1078 1.387 . S
C1077 C1081 1.391 . S
C1078 C1077 1.387 . S
C1078 C1079 1.369 . S
C1078 H1087 0.929 . S
C1079 N1076 1.346 . S
C1079 C1078 1.369 . S
C1079 H1082 0.928 . S
C1080 N1076 1.345 . S
C1080 C1081 1.371 . S
C1080 H1083 0.931 . S
C1081 C1077 1.391 . S
C1081 C1080 1.371 . S
C1081 H1088 0.930 . S
H1082 C1079 0.928 . S
H1083 C1080 0.931 . S
H1084 C1060 0.930 . S
H1085 C1057 0.930 . S
H1086 C1066 0.930 . S
H1087 C1078 0.929 . S
H1088 C1081 0.930 . S
C1089 C1090 1.351 . S
C1089 N1092 1.368 . S
C1089 H1094 0.931 . S
C1090 C1089 1.351 . S
C1090 N1091 1.373 1_565 S
C1090 H1118 0.930 1_565 S
N1091 C1090 1.373 1_545 S
N1091 C1093 1.340 1_545 S
N1092 C1089 1.368 . S
N1092 C1093 1.321 . S
N1092 Co1095 2.135 . S
C1093 N1091 1.340 1_565 S
C1093 N1092 1.321 . S
C1093 H1117 0.930 1_565 S
H1094 C1089 0.931 . S
Co1095 N1092 2.135 . S
Co1095 N1098 2.121 . S
Co1095 O1103 2.055 . S
Co1095 O1106 2.039 . S
Co1095 N1109 2.140 1_565 S
C1096 O1097 1.227 1_565 S
C1096 O1106 1.265 . S
O1097 C1096 1.227 1_545 S
N1098 Co1095 2.121 . S
N1098 C1100 1.375 . S
N1098 C1101 1.313 . S
C1099 C1100 1.338 . S
C1099 N1102 1.377 . S
C1099 H1119 0.930 . S
C1100 N1098 1.375 . S
C1100 C1099 1.338 . S
C1100 H1104 0.931 . S
C1101 N1098 1.313 . S
C1101 N1102 1.344 . S
C1101 H1105 0.930 . S
N1102 C1099 1.377 . S
N1102 C1101 1.344 . S
O1103 Co1095 2.055 . S
O1103 C1107 1.253 . S
H1104 C1100 0.931 . S
H1105 C1101 0.930 . S
O1106 Co1095 2.039 . S
O1106 C1096 1.265 . S
C1107 O1103 1.253 . S
C1107 O1108 1.227 . S
O1108 C1107 1.227 . S
N1109 Co1095 2.140 1_545 S
N1109 C1112 1.346 . S
N1109 C1113 1.345 . S
C1110 C1111 1.387 . S
C1110 C1114 1.391 . S
C1111 C1110 1.387 . S
C1111 C1112 1.369 . S
C1111 H1120 0.929 . S
C1112 N1109 1.346 . S
C1112 C1111 1.369 . S
C1112 H1115 0.928 . S
C1113 N1109 1.345 . S
C1113 C1114 1.371 . S
C1113 H1116 0.931 1_545 S
C1114 C1110 1.391 . S
C1114 C1113 1.371 . S
C1114 H1121 0.930 . S
H1115 C1112 0.928 . S
H1116 C1113 0.931 1_565 S
H1117 C1093 0.930 1_545 S
H1118 C1090 0.930 1_545 S
H1119 C1099 0.930 . S
H1120 C1111 0.929 . S
H1121 C1114 0.930 . S
C1122 C1123 1.351 . S
C1122 N1125 1.368 . S
C1122 H1127 0.931 . S
C1123 C1122 1.351 . S
C1123 N1124 1.373 . S
C1123 H1151 0.930 . S
N1124 C1123 1.373 . S
N1124 C1126 1.340 . S
N1125 C1122 1.368 . S
N1125 C1126 1.321 . S
N1125 Co1128 2.135 . S
C1126 N1124 1.340 . S
C1126 N1125 1.321 . S
C1126 H1150 0.930 . S
H1127 C1122 0.931 . S
Co1128 N1125 2.135 . S
Co1128 N1131 2.121 1_565 S
Co1128 O1136 2.055 . S
Co1128 O1139 2.039 . S
Co1128 N1142 2.140 . S
C1129 O1130 1.227 . S
C1129 O1139 1.265 . S
O1130 C1129 1.227 . S
N1131 Co1128 2.121 1_545 S
N1131 C1133 1.375 . S
N1131 C1134 1.313 . S
C1132 C1133 1.338 . S
C1132 N1135 1.377 . S
C1132 H1152 0.930 . S
C1133 N1131 1.375 . S
C1133 C1132 1.338 . S
C1133 H1137 0.931 . S
C1134 N1131 1.313 . S
C1134 N1135 1.344 . S
C1134 H1138 0.930 . S
N1135 C1132 1.377 . S
N1135 C1134 1.344 . S
O1136 Co1128 2.055 . S
O1136 C1140 1.253 . S
H1137 C1133 0.931 . S
H1138 C1134 0.930 . S
O1139 Co1128 2.039 . S
O1139 C1129 1.265 . S
C1140 O1136 1.253 . S
C1140 O1141 1.227 . S
O1141 C1140 1.227 . S
N1142 Co1128 2.140 . S
N1142 C1145 1.346 . S
N1142 C1146 1.345 . S
C1143 C1144 1.387 . S
C1143 C1147 1.391 . S
C1144 C1143 1.387 . S
C1144 C1145 1.369 . S
C1144 H1153 0.929 . S
C1145 N1142 1.346 . S
C1145 C1144 1.369 . S
C1145 H1148 0.928 . S
C1146 N1142 1.345 . S
C1146 C1147 1.371 . S
C1146 H1149 0.931 . S
C1147 C1143 1.391 . S
C1147 C1146 1.371 . S
C1147 H1154 0.930 1_565 S
H1148 C1145 0.928 . S
H1149 C1146 0.931 . S
H1150 C1126 0.930 . S
H1151 C1123 0.930 . S
H1152 C1132 0.930 . S
H1153 C1144 0.929 . S
H1154 C1147 0.930 1_545 S
C1155 C1156 1.351 . S
C1155 N1158 1.368 . S
C1155 H1160 0.931 . S
C1156 C1155 1.351 . S
C1156 N1157 1.373 . S
C1156 H1184 0.930 . S
N1157 C1156 1.373 . S
N1157 C1159 1.340 . S
N1158 C1155 1.368 . S
N1158 C1159 1.321 . S
N1158 Co1161 2.135 . S
C1159 N1157 1.340 . S
C1159 N1158 1.321 . S
C1159 H1183 0.930 . S
H1160 C1155 0.931 . S
Co1161 N1158 2.135 . S
Co1161 N1164 2.121 . S
Co1161 O1169 2.055 . S
Co1161 O1172 2.039 . S
Co1161 N1175 2.140 . S
C1162 O1163 1.227 . S
C1162 O1172 1.265 . S
O1163 C1162 1.227 . S
N1164 Co1161 2.121 . S
N1164 C1166 1.375 . S
N1164 C1167 1.313 . S
C1165 C1166 1.338 . S
C1165 N1168 1.377 . S
C1165 H1185 0.930 . S
C1166 N1164 1.375 . S
C1166 C1165 1.338 . S
C1166 H1170 0.931 . S
C1167 N1164 1.313 . S
C1167 N1168 1.344 . S
C1167 H1171 0.930 . S
N1168 C1165 1.377 . S
N1168 C1167 1.344 . S
O1169 Co1161 2.055 . S
O1169 C1173 1.253 . S
H1170 C1166 0.931 . S
H1171 C1167 0.930 . S
O1172 Co1161 2.039 . S
O1172 C1162 1.265 . S
C1173 O1169 1.253 . S
C1173 O1174 1.227 . S
O1174 C1173 1.227 . S
N1175 Co1161 2.140 . S
N1175 C1178 1.346 . S
N1175 C1179 1.345 . S
C1176 C1177 1.387 . S
C1176 C1180 1.391 . S
C1177 C1176 1.387 . S
C1177 C1178 1.369 . S
C1177 H1186 0.929 . S
C1178 N1175 1.346 . S
C1178 C1177 1.369 . S
C1178 H1181 0.928 . S
C1179 N1175 1.345 . S
C1179 C1180 1.371 . S
C1179 H1182 0.931 . S
C1180 C1176 1.391 . S
C1180 C1179 1.371 . S
C1180 H1187 0.930 . S
H1181 C1178 0.928 . S
H1182 C1179 0.931 . S
H1183 C1159 0.930 . S
H1184 C1156 0.930 . S
H1185 C1165 0.930 . S
H1186 C1177 0.929 . S
H1187 C1180 0.930 . S
C1188 C1189 1.351 . S
C1188 N1191 1.368 . S
C1188 H1193 0.931 . S
C1189 C1188 1.351 . S
C1189 N1190 1.373 . S
C1189 H1217 0.930 . S
N1190 C1189 1.373 . S
N1190 C1192 1.340 . S
N1191 C1188 1.368 . S
N1191 C1192 1.321 . S
N1191 Co1194 2.135 . S
C1192 N1190 1.340 . S
C1192 N1191 1.321 . S
C1192 H1216 0.930 . S
H1193 C1188 0.931 . S
Co1194 N1191 2.135 . S
Co1194 N1197 2.121 . S
Co1194 O1202 2.055 . S
Co1194 O1205 2.039 . S
Co1194 N1208 2.140 . S
C1195 O1196 1.227 . S
C1195 O1205 1.265 . S
O1196 C1195 1.227 . S
N1197 Co1194 2.121 . S
N1197 C1199 1.375 . S
N1197 C1200 1.313 . S
C1198 C1199 1.338 . S
C1198 N1201 1.377 . S
C1198 H1218 0.930 . S
C1199 N1197 1.375 . S
C1199 C1198 1.338 . S
C1199 H1203 0.931 . S
C1200 N1197 1.313 . S
C1200 N1201 1.344 . S
C1200 H1204 0.930 . S
N1201 C1198 1.377 . S
N1201 C1200 1.344 . S
O1202 Co1194 2.055 . S
O1202 C1206 1.253 . S
H1203 C1199 0.931 . S
H1204 C1200 0.930 . S
O1205 Co1194 2.039 . S
O1205 C1195 1.265 . S
C1206 O1202 1.253 . S
C1206 O1207 1.227 . S
O1207 C1206 1.227 . S
N1208 Co1194 2.140 . S
N1208 C1211 1.346 . S
N1208 C1212 1.345 . S
C1209 C1210 1.387 . S
C1209 C1213 1.391 . S
C1210 C1209 1.387 . S
C1210 C1211 1.369 . S
C1210 H1219 0.929 . S
C1211 N1208 1.346 . S
C1211 C1210 1.369 . S
C1211 H1214 0.928 . S
C1212 N1208 1.345 . S
C1212 C1213 1.371 . S
C1212 H1215 0.931 . S
C1213 C1209 1.391 . S
C1213 C1212 1.371 . S
C1213 H1220 0.930 . S
H1214 C1211 0.928 . S
H1215 C1212 0.931 . S
H1216 C1192 0.930 . S
H1217 C1189 0.930 . S
H1218 C1198 0.930 . S
H1219 C1210 0.929 . S
H1220 C1213 0.930 . S
C1221 C1222 1.351 . S
C1221 N1224 1.368 . S
C1221 H1226 0.931 . S
C1222 C1221 1.351 . S
C1222 N1223 1.373 1_565 S
C1222 H1250 0.930 1_565 S
N1223 C1222 1.373 1_545 S
N1223 C1225 1.340 1_545 S
N1224 C1221 1.368 . S
N1224 C1225 1.321 . S
N1224 Co1227 2.135 . S
C1225 N1223 1.340 1_565 S
C1225 N1224 1.321 . S
C1225 H1249 0.930 1_565 S
H1226 C1221 0.931 . S
Co1227 N1224 2.135 . S
Co1227 N1230 2.121 . S
Co1227 O1235 2.055 . S
Co1227 O1238 2.039 . S
Co1227 N1241 2.140 1_565 S
C1228 O1229 1.227 1_565 S
C1228 O1238 1.265 . S
O1229 C1228 1.227 1_545 S
N1230 Co1227 2.121 . S
N1230 C1232 1.375 . S
N1230 C1233 1.313 . S
C1231 C1232 1.338 . S
C1231 N1234 1.377 . S
C1231 H1251 0.930 . S
C1232 N1230 1.375 . S
C1232 C1231 1.338 . S
C1232 H1236 0.931 . S
C1233 N1230 1.313 . S
C1233 N1234 1.344 . S
C1233 H1237 0.930 . S
N1234 C1231 1.377 . S
N1234 C1233 1.344 . S
O1235 Co1227 2.055 . S
O1235 C1239 1.253 . S
H1236 C1232 0.931 . S
H1237 C1233 0.930 . S
O1238 Co1227 2.039 . S
O1238 C1228 1.265 . S
C1239 O1235 1.253 . S
C1239 O1240 1.227 . S
O1240 C1239 1.227 . S
N1241 Co1227 2.140 1_545 S
N1241 C1244 1.346 . S
N1241 C1245 1.345 . S
C1242 C1243 1.387 . S
C1242 C1246 1.391 . S
C1243 C1242 1.387 . S
C1243 C1244 1.369 . S
C1243 H1252 0.929 . S
C1244 N1241 1.346 . S
C1244 C1243 1.369 . S
C1244 H1247 0.928 . S
C1245 N1241 1.345 . S
C1245 C1246 1.371 . S
C1245 H1248 0.931 1_545 S
C1246 C1242 1.391 . S
C1246 C1245 1.371 . S
C1246 H1253 0.930 . S
H1247 C1244 0.928 . S
H1248 C1245 0.931 1_565 S
H1249 C1225 0.930 1_545 S
H1250 C1222 0.930 1_545 S
H1251 C1231 0.930 . S
H1252 C1243 0.929 . S
H1253 C1246 0.930 . S
C1254 C1255 1.351 . S
C1254 N1257 1.368 . S
C1254 H1259 0.931 . S
C1255 C1254 1.351 . S
C1255 N1256 1.373 . S
C1255 H1283 0.930 . S
N1256 C1255 1.373 . S
N1256 C1258 1.340 . S
N1257 C1254 1.368 . S
N1257 C1258 1.321 . S
N1257 Co1260 2.135 . S
C1258 N1256 1.340 . S
C1258 N1257 1.321 . S
C1258 H1282 0.930 . S
H1259 C1254 0.931 . S
Co1260 N1257 2.135 . S
Co1260 N1263 2.121 1_545 S
Co1260 O1268 2.055 . S
Co1260 O1271 2.039 . S
Co1260 N1274 2.140 . S
C1261 O1262 1.227 . S
C1261 O1271 1.265 . S
O1262 C1261 1.227 . S
N1263 Co1260 2.121 1_565 S
N1263 C1265 1.375 . S
N1263 C1266 1.313 . S
C1264 C1265 1.338 . S
C1264 N1267 1.377 . S
C1264 H1284 0.930 . S
C1265 N1263 1.375 . S
C1265 C1264 1.338 . S
C1265 H1269 0.931 . S
C1266 N1263 1.313 . S
C1266 N1267 1.344 . S
C1266 H1270 0.930 . S
N1267 C1264 1.377 . S
N1267 C1266 1.344 . S
O1268 Co1260 2.055 . S
O1268 C1272 1.253 . S
H1269 C1265 0.931 . S
H1270 C1266 0.930 . S
O1271 Co1260 2.039 . S
O1271 C1261 1.265 . S
C1272 O1268 1.253 . S
C1272 O1273 1.227 . S
O1273 C1272 1.227 . S
N1274 Co1260 2.140 . S
N1274 C1277 1.346 . S
N1274 C1278 1.345 . S
C1275 C1276 1.387 . S
C1275 C1279 1.391 . S
C1276 C1275 1.387 . S
C1276 C1277 1.369 . S
C1276 H1285 0.929 . S
C1277 N1274 1.346 . S
C1277 C1276 1.369 . S
C1277 H1280 0.928 . S
C1278 N1274 1.345 . S
C1278 C1279 1.371 . S
C1278 H1281 0.931 . S
C1279 C1275 1.391 . S
C1279 C1278 1.371 . S
C1279 H1286 0.930 1_545 S
H1280 C1277 0.928 . S
H1281 C1278 0.931 . S
H1282 C1258 0.930 . S
H1283 C1255 0.930 . S
H1284 C1264 0.930 . S
H1285 C1276 0.929 . S
H1286 C1279 0.930 1_565 S
C1287 C1288 1.351 . S
C1287 N1290 1.368 . S
C1287 H1292 0.931 . S
C1288 C1287 1.351 . S
C1288 N1289 1.373 . S
C1288 H1316 0.930 . S
N1289 C1288 1.373 . S
N1289 C1291 1.340 . S
N1290 C1287 1.368 . S
N1290 C1291 1.321 . S
N1290 Co1293 2.135 . S
C1291 N1289 1.340 . S
C1291 N1290 1.321 . S
C1291 H1315 0.930 . S
H1292 C1287 0.931 . S
Co1293 N1290 2.135 . S
Co1293 N1296 2.121 . S
Co1293 O1301 2.055 . S
Co1293 O1304 2.039 . S
Co1293 N1307 2.140 . S
C1294 O1295 1.227 . S
C1294 O1304 1.265 . S
O1295 C1294 1.227 . S
N1296 Co1293 2.121 . S
N1296 C1298 1.375 . S
N1296 C1299 1.313 . S
C1297 C1298 1.338 . S
C1297 N1300 1.377 . S
C1297 H1317 0.930 . S
C1298 N1296 1.375 . S
C1298 C1297 1.338 . S
C1298 H1302 0.931 . S
C1299 N1296 1.313 . S
C1299 N1300 1.344 . S
C1299 H1303 0.930 . S
N1300 C1297 1.377 . S
N1300 C1299 1.344 . S
O1301 Co1293 2.055 . S
O1301 C1305 1.253 . S
H1302 C1298 0.931 . S
H1303 C1299 0.930 . S
O1304 Co1293 2.039 . S
O1304 C1294 1.265 . S
C1305 O1301 1.253 . S
C1305 O1306 1.227 . S
O1306 C1305 1.227 . S
N1307 Co1293 2.140 . S
N1307 C1310 1.346 . S
N1307 C1311 1.345 . S
C1308 C1309 1.387 . S
C1308 C1312 1.391 . S
C1309 C1308 1.387 . S
C1309 C1310 1.369 . S
C1309 H1318 0.929 . S
C1310 N1307 1.346 . S
C1310 C1309 1.369 . S
C1310 H1313 0.928 . S
C1311 N1307 1.345 . S
C1311 C1312 1.371 . S
C1311 H1314 0.931 . S
C1312 C1308 1.391 . S
C1312 C1311 1.371 . S
C1312 H1319 0.930 . S
H1313 C1310 0.928 . S
H1314 C1311 0.931 . S
H1315 C1291 0.930 . S
H1316 C1288 0.930 . S
H1317 C1297 0.930 . S
H1318 C1309 0.929 . S
H1319 C1312 0.930 . S
C1320 C1321 1.351 . S
C1320 N1323 1.368 . S
C1320 H1325 0.931 . S
C1321 C1320 1.351 . S
C1321 N1322 1.373 . S
C1321 H1349 0.930 . S
N1322 C1321 1.373 . S
N1322 C1324 1.340 . S
N1323 C1320 1.368 . S
N1323 C1324 1.321 . S
N1323 Co1326 2.135 . S
C1324 N1322 1.340 . S
C1324 N1323 1.321 . S
C1324 H1348 0.930 . S
H1325 C1320 0.931 . S
Co1326 N1323 2.135 . S
Co1326 N1329 2.121 . S
Co1326 O1334 2.055 . S
Co1326 O1337 2.039 . S
Co1326 N1340 2.140 . S
C1327 O1328 1.227 . S
C1327 O1337 1.265 . S
O1328 C1327 1.227 . S
N1329 Co1326 2.121 . S
N1329 C1331 1.375 . S
N1329 C1332 1.313 . S
C1330 C1331 1.338 . S
C1330 N1333 1.377 . S
C1330 H1350 0.930 . S
C1331 N1329 1.375 . S
C1331 C1330 1.338 . S
C1331 H1335 0.931 . S
C1332 N1329 1.313 . S
C1332 N1333 1.344 . S
C1332 H1336 0.930 . S
N1333 C1330 1.377 . S
N1333 C1332 1.344 . S
O1334 Co1326 2.055 . S
O1334 C1338 1.253 . S
H1335 C1331 0.931 . S
H1336 C1332 0.930 . S
O1337 Co1326 2.039 . S
O1337 C1327 1.265 . S
C1338 O1334 1.253 . S
C1338 O1339 1.227 . S
O1339 C1338 1.227 . S
N1340 Co1326 2.140 . S
N1340 C1343 1.346 . S
N1340 C1344 1.345 . S
C1341 C1342 1.387 . S
C1341 C1345 1.391 . S
C1342 C1341 1.387 . S
C1342 C1343 1.369 . S
C1342 H1351 0.929 . S
C1343 N1340 1.346 . S
C1343 C1342 1.369 . S
C1343 H1346 0.928 . S
C1344 N1340 1.345 . S
C1344 C1345 1.371 . S
C1344 H1347 0.931 . S
C1345 C1341 1.391 . S
C1345 C1344 1.371 . S
C1345 H1352 0.930 . S
H1346 C1343 0.928 . S
H1347 C1344 0.931 . S
H1348 C1324 0.930 . S
H1349 C1321 0.930 . S
H1350 C1330 0.930 . S
H1351 C1342 0.929 . S
H1352 C1345 0.930 . S
C1353 C1354 1.351 . S
C1353 N1356 1.368 . S
C1353 H1358 0.931 . S
C1354 C1353 1.351 . S
C1354 N1355 1.373 . S
C1354 H1382 0.930 . S
N1355 C1354 1.373 . S
N1355 C1357 1.340 . S
N1356 C1353 1.368 . S
N1356 C1357 1.321 . S
N1356 Co1359 2.135 . S
C1357 N1355 1.340 . S
C1357 N1356 1.321 . S
C1357 H1381 0.930 . S
H1358 C1353 0.931 . S
Co1359 N1356 2.135 . S
Co1359 N1362 2.121 1_556 S
Co1359 O1367 2.055 . S
Co1359 O1370 2.039 . S
Co1359 N1373 2.140 . S
C1360 O1361 1.227 . S
C1360 O1370 1.265 . S
O1361 C1360 1.227 . S
N1362 Co1359 2.121 1_554 S
N1362 C1364 1.375 . S
N1362 C1365 1.313 . S
C1363 C1364 1.338 . S
C1363 N1366 1.377 . S
C1363 H1383 0.930 . S
C1364 N1362 1.375 . S
C1364 C1363 1.338 . S
C1364 H1368 0.931 . S
C1365 N1362 1.313 . S
C1365 N1366 1.344 . S
C1365 H1369 0.930 . S
N1366 C1363 1.377 . S
N1366 C1365 1.344 . S
O1367 Co1359 2.055 . S
O1367 C1371 1.253 . S
H1368 C1364 0.931 . S
H1369 C1365 0.930 . S
O1370 Co1359 2.039 . S
O1370 C1360 1.265 . S
C1371 O1367 1.253 . S
C1371 O1372 1.227 . S
O1372 C1371 1.227 . S
N1373 Co1359 2.140 . S
N1373 C1376 1.346 . S
N1373 C1377 1.345 . S
C1374 C1375 1.387 . S
C1374 C1378 1.391 . S
C1375 C1374 1.387 . S
C1375 C1376 1.369 . S
C1375 H1384 0.929 . S
C1376 N1373 1.346 . S
C1376 C1375 1.369 . S
C1376 H1379 0.928 . S
C1377 N1373 1.345 . S
C1377 C1378 1.371 . S
C1377 H1380 0.931 . S
C1378 C1374 1.391 . S
C1378 C1377 1.371 . S
C1378 H1385 0.930 1_556 S
H1379 C1376 0.928 . S
H1380 C1377 0.931 . S
H1381 C1357 0.930 . S
H1382 C1354 0.930 . S
H1383 C1363 0.930 . S
H1384 C1375 0.929 . S
H1385 C1378 0.930 1_554 S
C1386 C1387 1.351 . S
C1386 N1389 1.368 . S
C1386 H1391 0.931 . S
C1387 C1386 1.351 . S
C1387 N1388 1.373 . S
C1387 H1415 0.930 . S
N1388 C1387 1.373 . S
N1388 C1390 1.340 . S
N1389 C1386 1.368 . S
N1389 C1390 1.321 . S
N1389 Co1392 2.135 . S
C1390 N1388 1.340 . S
C1390 N1389 1.321 . S
C1390 H1414 0.930 . S
H1391 C1386 0.931 . S
Co1392 N1389 2.135 . S
Co1392 N1395 2.121 . S
Co1392 O1400 2.055 . S
Co1392 O1403 2.039 . S
Co1392 N1406 2.140 . S
C1393 O1394 1.227 . S
C1393 O1403 1.265 . S
O1394 C1393 1.227 . S
N1395 Co1392 2.121 . S
N1395 C1397 1.375 . S
N1395 C1398 1.313 . S
C1396 C1397 1.338 . S
C1396 N1399 1.377 . S
C1396 H1416 0.930 . S
C1397 N1395 1.375 . S
C1397 C1396 1.338 . S
C1397 H1401 0.931 . S
C1398 N1395 1.313 . S
C1398 N1399 1.344 . S
C1398 H1402 0.930 . S
N1399 C1396 1.377 . S
N1399 C1398 1.344 . S
O1400 Co1392 2.055 . S
O1400 C1404 1.253 . S
H1401 C1397 0.931 . S
H1402 C1398 0.930 . S
O1403 Co1392 2.039 . S
O1403 C1393 1.265 . S
C1404 O1400 1.253 . S
C1404 O1405 1.227 . S
O1405 C1404 1.227 . S
N1406 Co1392 2.140 . S
N1406 C1409 1.346 . S
N1406 C1410 1.345 . S
C1407 C1408 1.387 . S
C1407 C1411 1.391 . S
C1408 C1407 1.387 . S
C1408 C1409 1.369 . S
C1408 H1417 0.929 . S
C1409 N1406 1.346 . S
C1409 C1408 1.369 . S
C1409 H1412 0.928 . S
C1410 N1406 1.345 . S
C1410 C1411 1.371 . S
C1410 H1413 0.931 . S
C1411 C1407 1.391 . S
C1411 C1410 1.371 . S
C1411 H1418 0.930 . S
H1412 C1409 0.928 . S
H1413 C1410 0.931 . S
H1414 C1390 0.930 . S
H1415 C1387 0.930 . S
H1416 C1396 0.930 . S
H1417 C1408 0.929 . S
H1418 C1411 0.930 . S
C1419 C1420 1.351 . S
C1419 N1422 1.368 . S
C1419 H1424 0.931 . S
C1420 C1419 1.351 . S
C1420 N1421 1.373 . S
C1420 H1448 0.930 . S
N1421 C1420 1.373 . S
N1421 C1423 1.340 . S
N1422 C1419 1.368 . S
N1422 C1423 1.321 . S
N1422 Co1425 2.135 . S
C1423 N1421 1.340 . S
C1423 N1422 1.321 . S
C1423 H1447 0.930 . S
H1424 C1419 0.931 . S
Co1425 N1422 2.135 . S
Co1425 N1428 2.121 1_556 S
Co1425 O1433 2.055 . S
Co1425 O1436 2.039 . S
Co1425 N1439 2.140 . S
C1426 O1427 1.227 . S
C1426 O1436 1.265 . S
O1427 C1426 1.227 . S
N1428 Co1425 2.121 1_554 S
N1428 C1430 1.375 . S
N1428 C1431 1.313 . S
C1429 C1430 1.338 . S
C1429 N1432 1.377 . S
C1429 H1449 0.930 . S
C1430 N1428 1.375 . S
C1430 C1429 1.338 . S
C1430 H1434 0.931 . S
C1431 N1428 1.313 . S
C1431 N1432 1.344 . S
C1431 H1435 0.930 . S
N1432 C1429 1.377 . S
N1432 C1431 1.344 . S
O1433 Co1425 2.055 . S
O1433 C1437 1.253 . S
H1434 C1430 0.931 . S
H1435 C1431 0.930 . S
O1436 Co1425 2.039 . S
O1436 C1426 1.265 . S
C1437 O1433 1.253 . S
C1437 O1438 1.227 . S
O1438 C1437 1.227 . S
N1439 Co1425 2.140 . S
N1439 C1442 1.346 . S
N1439 C1443 1.345 . S
C1440 C1441 1.387 . S
C1440 C1444 1.391 . S
C1441 C1440 1.387 . S
C1441 C1442 1.369 . S
C1441 H1450 0.929 . S
C1442 N1439 1.346 . S
C1442 C1441 1.369 . S
C1442 H1445 0.928 . S
C1443 N1439 1.345 . S
C1443 C1444 1.371 . S
C1443 H1446 0.931 . S
C1444 C1440 1.391 . S
C1444 C1443 1.371 . S
C1444 H1451 0.930 1_556 S
H1445 C1442 0.928 . S
H1446 C1443 0.931 . S
H1447 C1423 0.930 . S
H1448 C1420 0.930 . S
H1449 C1429 0.930 . S
H1450 C1441 0.929 . S
H1451 C1444 0.930 1_554 S
C1452 C1453 1.351 . S
C1452 N1455 1.368 . S
C1452 H1457 0.931 . S
C1453 C1452 1.351 . S
C1453 N1454 1.373 1_455 S
C1453 H1481 0.925 1_455 S
N1454 C1453 1.373 1_655 S
N1454 C1456 1.340 1_655 S
N1455 C1452 1.368 . S
N1455 C1456 1.321 . S
N1455 Co1458 2.135 . S
C1456 N1454 1.340 1_455 S
C1456 N1455 1.321 . S
C1456 H1480 0.930 1_455 S
H1457 C1452 0.931 . S
Co1458 N1455 2.135 . S
Co1458 N1461 2.121 . S
Co1458 O1466 2.055 . S
Co1458 O1469 2.039 . S
Co1458 N1472 2.140 1_455 S
C1459 O1460 1.227 1_455 S
C1459 O1469 1.265 . S
O1460 C1459 1.227 1_655 S
N1461 Co1458 2.121 . S
N1461 C1463 1.375 . S
N1461 C1464 1.313 . S
C1462 C1463 1.338 . S
C1462 N1465 1.377 . S
C1462 H1482 0.930 . S
C1463 N1461 1.375 . S
C1463 C1462 1.338 . S
C1463 H1467 0.931 . S
C1464 N1461 1.313 . S
C1464 N1465 1.344 . S
C1464 H1468 0.930 . S
N1465 C1462 1.377 . S
N1465 C1464 1.344 . S
O1466 Co1458 2.055 . S
O1466 C1470 1.253 . S
H1467 C1463 0.931 . S
H1468 C1464 0.930 . S
O1469 Co1458 2.039 . S
O1469 C1459 1.265 . S
C1470 O1466 1.253 . S
C1470 O1471 1.227 . S
O1471 C1470 1.227 . S
N1472 Co1458 2.140 1_655 S
N1472 C1475 1.346 . S
N1472 C1476 1.345 . S
C1473 C1474 1.387 . S
C1473 C1477 1.391 . S
C1474 C1473 1.387 . S
C1474 C1475 1.369 . S
C1474 H1483 0.929 . S
C1475 N1472 1.346 . S
C1475 C1474 1.369 . S
C1475 H1478 0.928 . S
C1476 N1472 1.345 . S
C1476 C1477 1.371 . S
C1476 H1479 0.931 1_655 S
C1477 C1473 1.391 . S
C1477 C1476 1.371 . S
C1477 H1484 0.930 . S
H1478 C1475 0.928 . S
H1479 C1476 0.931 1_455 S
H1480 C1456 0.930 1_655 S
H1481 C1453 0.925 1_655 S
H1482 C1462 0.930 . S
H1483 C1474 0.929 . S
H1484 C1477 0.930 . S
C1485 C1486 1.351 . S
C1485 N1488 1.368 . S
C1485 H1490 0.931 . S
C1486 C1485 1.351 . S
C1486 N1487 1.373 . S
C1486 H1514 0.930 . S
N1487 C1486 1.373 . S
N1487 C1489 1.340 . S
N1488 C1485 1.368 . S
N1488 C1489 1.321 . S
N1488 Co1491 2.135 . S
C1489 N1487 1.340 . S
C1489 N1488 1.321 . S
C1489 H1513 0.930 . S
H1490 C1485 0.931 . S
Co1491 N1488 2.135 . S
Co1491 N1494 2.121 1_554 S
Co1491 O1499 2.055 . S
Co1491 O1502 2.039 . S
Co1491 N1505 2.140 . S
C1492 O1493 1.227 . S
C1492 O1502 1.265 . S
O1493 C1492 1.227 . S
N1494 Co1491 2.121 1_556 S
N1494 C1496 1.375 . S
N1494 C1497 1.313 . S
C1495 C1496 1.338 . S
C1495 N1498 1.377 . S
C1495 H1515 0.930 . S
C1496 N1494 1.375 . S
C1496 C1495 1.338 . S
C1496 H1500 0.931 . S
C1497 N1494 1.313 . S
C1497 N1498 1.344 . S
C1497 H1501 0.930 . S
N1498 C1495 1.377 . S
N1498 C1497 1.344 . S
O1499 Co1491 2.055 . S
O1499 C1503 1.253 . S
H1500 C1496 0.931 . S
H1501 C1497 0.930 . S
O1502 Co1491 2.039 . S
O1502 C1492 1.265 . S
C1503 O1499 1.253 . S
C1503 O1504 1.227 . S
O1504 C1503 1.227 . S
N1505 Co1491 2.140 . S
N1505 C1508 1.346 . S
N1505 C1509 1.345 . S
C1506 C1507 1.387 . S
C1506 C1510 1.391 . S
C1507 C1506 1.387 . S
C1507 C1508 1.369 . S
C1507 H1516 0.929 . S
C1508 N1505 1.346 . S
C1508 C1507 1.369 . S
C1508 H1511 0.928 . S
C1509 N1505 1.345 . S
C1509 C1510 1.371 . S
C1509 H1512 0.931 . S
C1510 C1506 1.391 . S
C1510 C1509 1.371 . S
C1510 H1517 0.930 1_554 S
H1511 C1508 0.928 . S
H1512 C1509 0.931 . S
H1513 C1489 0.930 . S
H1514 C1486 0.930 . S
H1515 C1495 0.930 . S
H1516 C1507 0.929 . S
H1517 C1510 0.930 1_556 S
C1518 C1519 1.351 . S
C1518 N1521 1.368 . S
C1518 H1523 0.931 . S
C1519 C1518 1.351 . S
C1519 N1520 1.373 . S
C1519 H1547 0.930 . S
N1520 C1519 1.373 . S
N1520 C1522 1.340 . S
N1521 C1518 1.368 . S
N1521 C1522 1.321 . S
N1521 Co1524 2.135 . S
C1522 N1520 1.340 . S
C1522 N1521 1.321 . S
C1522 H1546 0.930 . S
H1523 C1518 0.931 . S
Co1524 N1521 2.135 . S
Co1524 N1527 2.121 . S
Co1524 O1532 2.055 . S
Co1524 O1535 2.039 . S
Co1524 N1538 2.140 . S
C1525 O1526 1.227 . S
C1525 O1535 1.265 . S
O1526 C1525 1.227 . S
N1527 Co1524 2.121 . S
N1527 C1529 1.375 . S
N1527 C1530 1.313 . S
C1528 C1529 1.338 . S
C1528 N1531 1.377 . S
C1528 H1548 0.930 . S
C1529 N1527 1.375 . S
C1529 C1528 1.338 . S
C1529 H1533 0.931 . S
C1530 N1527 1.313 . S
C1530 N1531 1.344 . S
C1530 H1534 0.930 . S
N1531 C1528 1.377 . S
N1531 C1530 1.344 . S
O1532 Co1524 2.055 . S
O1532 C1536 1.253 . S
H1533 C1529 0.931 . S
H1534 C1530 0.930 . S
O1535 Co1524 2.039 . S
O1535 C1525 1.265 . S
C1536 O1532 1.253 . S
C1536 O1537 1.227 . S
O1537 C1536 1.227 . S
N1538 Co1524 2.140 . S
N1538 C1541 1.346 . S
N1538 C1542 1.345 . S
C1539 C1540 1.387 . S
C1539 C1543 1.391 . S
C1540 C1539 1.387 . S
C1540 C1541 1.369 . S
C1540 H1549 0.929 . S
C1541 N1538 1.346 . S
C1541 C1540 1.369 . S
C1541 H1544 0.928 . S
C1542 N1538 1.345 . S
C1542 C1543 1.371 . S
C1542 H1545 0.931 . S
C1543 C1539 1.391 . S
C1543 C1542 1.371 . S
C1543 H1550 0.930 . S
H1544 C1541 0.928 . S
H1545 C1542 0.931 . S
H1546 C1522 0.930 . S
H1547 C1519 0.930 . S
H1548 C1528 0.930 . S
H1549 C1540 0.929 . S
H1550 C1543 0.930 . S
C1551 C1552 1.351 . S
C1551 N1554 1.368 . S
C1551 H1556 0.931 . S
C1552 C1551 1.351 . S
C1552 N1553 1.373 . S
C1552 H1580 0.930 . S
N1553 C1552 1.373 . S
N1553 C1555 1.340 . S
N1554 C1551 1.368 . S
N1554 C1555 1.321 . S
N1554 Co1557 2.135 . S
C1555 N1553 1.340 . S
C1555 N1554 1.321 . S
C1555 H1579 0.930 . S
H1556 C1551 0.931 . S
Co1557 N1554 2.135 . S
Co1557 N1560 2.121 . S
Co1557 O1565 2.055 . S
Co1557 O1568 2.039 . S
Co1557 N1571 2.140 . S
C1558 O1559 1.227 . S
C1558 O1568 1.265 . S
O1559 C1558 1.227 . S
N1560 Co1557 2.121 . S
N1560 C1562 1.375 . S
N1560 C1563 1.313 . S
C1561 C1562 1.338 . S
C1561 N1564 1.377 . S
C1561 H1581 0.930 . S
C1562 N1560 1.375 . S
C1562 C1561 1.338 . S
C1562 H1566 0.931 . S
C1563 N1560 1.313 . S
C1563 N1564 1.344 . S
C1563 H1567 0.930 . S
N1564 C1561 1.377 . S
N1564 C1563 1.344 . S
O1565 Co1557 2.055 . S
O1565 C1569 1.253 . S
H1566 C1562 0.931 . S
H1567 C1563 0.930 . S
O1568 Co1557 2.039 . S
O1568 C1558 1.265 . S
C1569 O1565 1.253 . S
C1569 O1570 1.227 . S
O1570 C1569 1.227 . S
N1571 Co1557 2.140 . S
N1571 C1574 1.346 . S
N1571 C1575 1.345 . S
C1572 C1573 1.387 . S
C1572 C1576 1.391 . S
C1573 C1572 1.387 . S
C1573 C1574 1.369 . S
C1573 H1582 0.929 . S
C1574 N1571 1.346 . S
C1574 C1573 1.369 . S
C1574 H1577 0.928 . S
C1575 N1571 1.345 . S
C1575 C1576 1.371 . S
C1575 H1578 0.931 . S
C1576 C1572 1.391 . S
C1576 C1575 1.371 . S
C1576 H1583 0.930 . S
H1577 C1574 0.928 . S
H1578 C1575 0.931 . S
H1579 C1555 0.930 . S
H1580 C1552 0.930 . S
H1581 C1561 0.930 . S
H1582 C1573 0.929 . S
H1583 C1576 0.930 . S
C1584 C1585 1.363 . S
C1584 C1590 1.379 . S
C1584 N1592 1.356 . S
C1585 C1584 1.363 . S
C1585 C1591 1.363 . S
C1586 C1587 1.363 . S
C1586 C1591 1.379 . S
C1586 N1593 1.356 1_455 S
C1587 C1586 1.363 . S
C1587 C1590 1.363 . S
N1588 C1590 1.356 . S
N1588 H1600 0.984 . S
N1588 H1601 0.985 . S
N1589 C1591 1.356 . S
N1589 H1594 0.984 . S
N1589 H1595 0.985 . S
C1590 C1584 1.379 . S
C1590 C1587 1.363 . S
C1590 N1588 1.356 . S
C1591 C1585 1.363 . S
C1591 C1586 1.379 . S
C1591 N1589 1.356 . S
N1592 C1584 1.356 . S
N1592 H1598 0.984 . S
N1592 H1599 0.984 . S
N1593 C1586 1.356 1_655 S
N1593 H1596 0.984 . S
N1593 H1597 0.985 . S
H1594 N1589 0.984 . S
H1595 N1589 0.985 . S
H1596 N1593 0.984 . S
H1597 N1593 0.985 . S
H1598 N1592 0.984 . S
H1599 N1592 0.984 . S
H1600 N1588 0.984 . S
H1601 N1588 0.985 . S
C1602 C1603 1.363 . S
C1602 C1608 1.379 . S
C1602 N1610 1.356 . S
C1603 C1602 1.363 . S
C1603 C1609 1.363 . S
C1604 C1605 1.363 . S
C1604 C1609 1.379 . S
C1604 N1611 1.356 . S
C1605 C1604 1.363 . S
C1605 C1608 1.363 . S
N1606 C1608 1.356 . S
N1606 H1618 0.984 . S
N1606 H1619 0.985 . S
N1607 C1609 1.356 . S
N1607 H1612 0.984 . S
N1607 H1613 0.985 . S
C1608 C1602 1.379 . S
C1608 C1605 1.363 . S
C1608 N1606 1.356 . S
C1609 C1603 1.363 . S
C1609 C1604 1.379 . S
C1609 N1607 1.356 . S
N1610 C1602 1.356 . S
N1610 H1616 0.984 . S
N1610 H1617 0.984 . S
N1611 C1604 1.356 . S
N1611 H1614 0.984 . S
N1611 H1615 0.985 . S
H1612 N1607 0.984 . S
H1613 N1607 0.985 . S
H1614 N1611 0.984 . S
H1615 N1611 0.985 . S
H1616 N1610 0.984 . S
H1617 N1610 0.984 . S
H1618 N1606 0.984 . S
H1619 N1606 0.985 . S
C1620 C1621 1.363 . S
C1620 C1626 1.379 . S
C1620 N1628 1.356 . S
C1621 C1620 1.363 . S
C1621 C1627 1.363 . S
C1622 C1623 1.363 . S
C1622 C1627 1.379 . S
C1622 N1629 1.356 . S
C1623 C1622 1.363 . S
C1623 C1626 1.363 . S
N1624 C1626 1.356 . S
N1624 H1636 0.984 . S
N1624 H1637 0.985 . S
N1625 C1627 1.356 1_455 S
N1625 H1630 0.984 . S
N1625 H1631 0.985 . S
C1626 C1620 1.379 . S
C1626 C1623 1.363 . S
C1626 N1624 1.356 . S
C1627 C1621 1.363 . S
C1627 C1622 1.379 . S
C1627 N1625 1.356 1_655 S
N1628 C1620 1.356 . S
N1628 H1634 0.984 . S
N1628 H1635 0.984 . S
N1629 C1622 1.356 . S
N1629 H1632 0.984 . S
N1629 H1633 0.985 . S
H1630 N1625 0.984 . S
H1631 N1625 0.985 . S
H1632 N1629 0.984 . S
H1633 N1629 0.985 . S
H1634 N1628 0.984 . S
H1635 N1628 0.984 . S
H1636 N1624 0.984 . S
H1637 N1624 0.985 . S
C1638 C1639 1.363 . S
C1638 C1644 1.379 . S
C1638 N1646 1.356 . S
C1639 C1638 1.363 . S
C1639 C1645 1.363 . S
C1640 C1641 1.363 . S
C1640 C1645 1.379 . S
C1640 N1647 1.356 . S
C1641 C1640 1.363 . S
C1641 C1644 1.363 . S
N1642 C1644 1.356 . S
N1642 H1654 0.984 . S
N1642 H1655 0.985 . S
N1643 C1645 1.356 . S
N1643 H1648 0.984 . S
N1643 H1649 0.985 . S
C1644 C1638 1.379 . S
C1644 C1641 1.363 . S
C1644 N1642 1.356 . S
C1645 C1639 1.363 . S
C1645 C1640 1.379 . S
C1645 N1643 1.356 . S
N1646 C1638 1.356 . S
N1646 H1652 0.984 . S
N1646 H1653 0.984 . S
N1647 C1640 1.356 . S
N1647 H1650 0.984 . S
N1647 H1651 0.985 . S
H1648 N1643 0.984 . S
H1649 N1643 0.985 . S
H1650 N1647 0.984 . S
H1651 N1647 0.985 . S
H1652 N1646 0.984 . S
H1653 N1646 0.984 . S
H1654 N1642 0.984 . S
H1655 N1642 0.985 . S
C1656 C1657 1.363 . S
C1656 C1662 1.379 . S
C1656 N1664 1.356 . S
C1657 C1656 1.363 . S
C1657 C1663 1.363 . S
C1658 C1659 1.363 . S
C1658 C1663 1.379 . S
C1658 N1665 1.356 . S
C1659 C1658 1.363 . S
C1659 C1662 1.363 . S
N1660 C1662 1.356 . S
N1660 H1672 0.984 . S
N1660 H1673 0.985 . S
N1661 C1663 1.356 1_655 S
N1661 H1666 0.984 . S
N1661 H1667 0.985 . S
C1662 C1656 1.379 . S
C1662 C1659 1.363 . S
C1662 N1660 1.356 . S
C1663 C1657 1.363 . S
C1663 C1658 1.379 . S
C1663 N1661 1.356 1_455 S
N1664 C1656 1.356 . S
N1664 H1670 0.984 . S
N1664 H1671 0.984 . S
N1665 C1658 1.356 . S
N1665 H1668 0.984 . S
N1665 H1669 0.985 . S
H1666 N1661 0.984 . S
H1667 N1661 0.985 . S
H1668 N1665 0.984 . S
H1669 N1665 0.985 . S
H1670 N1664 0.984 . S
H1671 N1664 0.984 . S
H1672 N1660 0.984 . S
H1673 N1660 0.985 . S
C1674 C1675 1.363 . S
C1674 C1680 1.379 . S
C1674 N1682 1.356 . S
C1675 C1674 1.363 . S
C1675 C1681 1.363 . S
C1676 C1677 1.363 . S
C1676 C1681 1.379 . S
C1676 N1683 1.356 . S
C1677 C1676 1.363 . S
C1677 C1680 1.363 . S
N1678 C1680 1.356 . S
N1678 H1690 0.984 . S
N1678 H1691 0.985 . S
N1679 C1681 1.356 . S
N1679 H1684 0.984 . S
N1679 H1685 0.985 . S
C1680 C1674 1.379 . S
C1680 C1677 1.363 . S
C1680 N1678 1.356 . S
C1681 C1675 1.363 . S
C1681 C1676 1.379 . S
C1681 N1679 1.356 . S
N1682 C1674 1.356 . S
N1682 H1688 0.984 . S
N1682 H1689 0.984 . S
N1683 C1676 1.356 . S
N1683 H1686 0.984 . S
N1683 H1687 0.985 . S
H1684 N1679 0.984 . S
H1685 N1679 0.985 . S
H1686 N1683 0.984 . S
H1687 N1683 0.985 . S
H1688 N1682 0.984 . S
H1689 N1682 0.984 . S
H1690 N1678 0.984 . S
H1691 N1678 0.985 . S
C1692 C1693 1.363 . S
C1692 C1698 1.379 . S
C1692 N1700 1.356 . S
C1693 C1692 1.363 . S
C1693 C1699 1.363 . S
C1694 C1695 1.363 . S
C1694 C1699 1.379 . S
C1694 N1701 1.356 . S
C1695 C1694 1.363 . S
C1695 C1698 1.363 . S
N1696 C1698 1.356 1_455 S
N1696 H1708 0.984 . S
N1696 H1709 0.985 . S
N1697 C1699 1.356 . S
N1697 H1702 0.984 . S
N1697 H1703 0.985 . S
C1698 C1692 1.379 . S
C1698 C1695 1.363 . S
C1698 N1696 1.356 1_655 S
C1699 C1693 1.363 . S
C1699 C1694 1.379 . S
C1699 N1697 1.356 . S
N1700 C1692 1.356 . S
N1700 H1706 0.984 . S
N1700 H1707 0.984 . S
N1701 C1694 1.356 . S
N1701 H1704 0.984 . S
N1701 H1705 0.985 . S
H1702 N1697 0.984 . S
H1703 N1697 0.985 . S
H1704 N1701 0.984 . S
H1705 N1701 0.985 . S
H1706 N1700 0.984 . S
H1707 N1700 0.984 . S
H1708 N1696 0.984 . S
H1709 N1696 0.985 . S
C1710 C1711 1.363 . S
C1710 C1716 1.379 . S
C1710 N1718 1.356 . S
C1711 C1710 1.363 . S
C1711 C1717 1.363 . S
C1712 C1713 1.363 . S
C1712 C1717 1.379 . S
C1712 N1719 1.356 . S
C1713 C1712 1.363 . S
C1713 C1716 1.363 . S
N1714 C1716 1.356 . S
N1714 H1726 0.984 . S
N1714 H1727 0.985 . S
N1715 C1717 1.356 1_455 S
N1715 H1720 0.984 . S
N1715 H1721 0.985 . S
C1716 C1710 1.379 . S
C1716 C1713 1.363 . S
C1716 N1714 1.356 . S
C1717 C1711 1.363 . S
C1717 C1712 1.379 . S
C1717 N1715 1.356 1_655 S
N1718 C1710 1.356 . S
N1718 H1724 0.984 . S
N1718 H1725 0.984 . S
N1719 C1712 1.356 . S
N1719 H1722 0.984 . S
N1719 H1723 0.985 . S
H1720 N1715 0.984 . S
H1721 N1715 0.985 . S
H1722 N1719 0.984 . S
H1723 N1719 0.985 . S
H1724 N1718 0.984 . S
H1725 N1718 0.984 . S
H1726 N1714 0.984 . S
H1727 N1714 0.985 . S
C1728 C1729 1.363 . S
C1728 C1734 1.379 . S
C1728 N1736 1.356 . S
C1729 C1728 1.363 . S
C1729 C1735 1.363 . S
C1730 C1731 1.363 . S
C1730 C1735 1.379 . S
C1730 N1737 1.356 . S
C1731 C1730 1.363 . S
C1731 C1734 1.363 . S
N1732 C1734 1.356 . S
N1732 H1744 0.984 . S
N1732 H1745 0.985 . S
N1733 C1735 1.356 1_565 S
N1733 H1738 0.984 . S
N1733 H1739 0.985 . S
C1734 C1728 1.379 . S
C1734 C1731 1.363 . S
C1734 N1732 1.356 . S
C1735 C1729 1.363 . S
C1735 C1730 1.379 . S
C1735 N1733 1.356 1_545 S
N1736 C1728 1.356 . S
N1736 H1742 0.984 . S
N1736 H1743 0.984 . S
N1737 C1730 1.356 . S
N1737 H1740 0.984 . S
N1737 H1741 0.985 . S
H1738 N1733 0.984 . S
H1739 N1733 0.985 . S
H1740 N1737 0.984 . S
H1741 N1737 0.985 . S
H1742 N1736 0.984 . S
H1743 N1736 0.984 . S
H1744 N1732 0.984 . S
H1745 N1732 0.985 . S
C1746 C1747 1.363 . S
C1746 C1752 1.379 . S
C1746 N1754 1.356 1_554 S
C1747 C1746 1.363 . S
C1747 C1753 1.363 . S
C1748 C1749 1.363 . S
C1748 C1753 1.379 . S
C1748 N1755 1.356 . S
C1749 C1748 1.363 . S
C1749 C1752 1.363 . S
N1750 C1752 1.356 . S
N1750 H1762 0.984 . S
N1750 H1763 0.985 . S
N1751 C1753 1.356 . S
N1751 H1756 0.984 . S
N1751 H1757 0.985 . S
C1752 C1746 1.379 . S
C1752 C1749 1.363 . S
C1752 N1750 1.356 . S
C1753 C1747 1.363 . S
C1753 C1748 1.379 . S
C1753 N1751 1.356 . S
N1754 C1746 1.356 1_556 S
N1754 H1760 0.984 . S
N1754 H1761 0.984 . S
N1755 C1748 1.356 . S
N1755 H1758 0.984 . S
N1755 H1759 0.985 . S
H1756 N1751 0.984 . S
H1757 N1751 0.985 . S
H1758 N1755 0.984 . S
H1759 N1755 0.985 . S
H1760 N1754 0.984 . S
H1761 N1754 0.984 . S
H1762 N1750 0.984 . S
H1763 N1750 0.985 . S
C1764 C1765 1.363 . S
C1764 C1770 1.379 . S
C1764 N1772 1.356 . S
C1765 C1764 1.363 . S
C1765 C1771 1.363 . S
C1766 C1767 1.363 . S
C1766 C1771 1.379 . S
C1766 N1773 1.356 . S
C1767 C1766 1.363 . S
C1767 C1770 1.363 . S
N1768 C1770 1.356 . S
N1768 H1780 0.984 . S
N1768 H1781 0.985 . S
N1769 C1771 1.356 . S
N1769 H1774 0.984 . S
N1769 H1775 0.985 . S
C1770 C1764 1.379 . S
C1770 C1767 1.363 . S
C1770 N1768 1.356 . S
C1771 C1765 1.363 . S
C1771 C1766 1.379 . S
C1771 N1769 1.356 . S
N1772 C1764 1.356 . S
N1772 H1778 0.984 . S
N1772 H1779 0.984 . S
N1773 C1766 1.356 . S
N1773 H1776 0.984 . S
N1773 H1777 0.985 . S
H1774 N1769 0.984 . S
H1775 N1769 0.985 . S
H1776 N1773 0.984 . S
H1777 N1773 0.985 . S
H1778 N1772 0.984 . S
H1779 N1772 0.984 . S
H1780 N1768 0.984 . S
H1781 N1768 0.985 . S
C1782 C1783 1.363 . S
C1782 C1788 1.379 . S
C1782 N1790 1.356 1_554 S
C1783 C1782 1.363 . S
C1783 C1789 1.363 . S
C1784 C1785 1.363 . S
C1784 C1789 1.379 . S
C1784 N1791 1.356 . S
C1785 C1784 1.363 . S
C1785 C1788 1.363 . S
N1786 C1788 1.356 . S
N1786 H1798 0.984 . S
N1786 H1799 0.985 . S
N1787 C1789 1.356 . S
N1787 H1792 0.984 . S
N1787 H1793 0.985 . S
C1788 C1782 1.379 . S
C1788 C1785 1.363 . S
C1788 N1786 1.356 . S
C1789 C1783 1.363 . S
C1789 C1784 1.379 . S
C1789 N1787 1.356 . S
N1790 C1782 1.356 1_556 S
N1790 H1796 0.984 . S
N1790 H1797 0.984 . S
N1791 C1784 1.356 . S
N1791 H1794 0.984 . S
N1791 H1795 0.985 . S
H1792 N1787 0.984 . S
H1793 N1787 0.985 . S
H1794 N1791 0.984 . S
H1795 N1791 0.985 . S
H1796 N1790 0.984 . S
H1797 N1790 0.984 . S
H1798 N1786 0.984 . S
H1799 N1786 0.985 . S
C1800 C1801 1.363 . S
C1800 C1806 1.379 . S
C1800 N1808 1.356 . S
C1801 C1800 1.363 . S
C1801 C1807 1.363 . S
C1802 C1803 1.363 . S
C1802 C1807 1.379 . S
C1802 N1809 1.356 . S
C1803 C1802 1.363 . S
C1803 C1806 1.363 . S
N1804 C1806 1.356 . S
N1804 H1816 0.984 . S
N1804 H1817 0.985 . S
N1805 C1807 1.356 . S
N1805 H1810 0.984 1_565 S
N1805 H1811 0.990 . S
C1806 C1800 1.379 . S
C1806 C1803 1.363 . S
C1806 N1804 1.356 . S
C1807 C1801 1.363 . S
C1807 C1802 1.379 . S
C1807 N1805 1.356 . S
N1808 C1800 1.356 . S
N1808 H1814 0.984 . S
N1808 H1815 0.984 . S
N1809 C1802 1.356 . S
N1809 H1812 0.984 . S
N1809 H1813 0.985 . S
H1810 N1805 0.984 1_545 S
H1811 N1805 0.990 . S
H1812 N1809 0.984 . S
H1813 N1809 0.985 . S
H1814 N1808 0.984 . S
H1815 N1808 0.984 . S
H1816 N1804 0.984 . S
H1817 N1804 0.985 . S
C1818 C1819 1.363 . S
C1818 C1824 1.379 . S
C1818 N1826 1.356 . S
C1819 C1818 1.363 . S
C1819 C1825 1.363 . S
C1820 C1821 1.363 . S
C1820 C1825 1.379 . S
C1820 N1827 1.356 . S
C1821 C1820 1.363 . S
C1821 C1824 1.363 . S
N1822 C1824 1.356 . S
N1822 H1834 0.984 . S
N1822 H1835 0.985 . S
N1823 C1825 1.356 . S
N1823 H1828 0.984 . S
N1823 H1829 0.985 . S
C1824 C1818 1.379 . S
C1824 C1821 1.363 . S
C1824 N1822 1.356 . S
C1825 C1819 1.363 . S
C1825 C1820 1.379 . S
C1825 N1823 1.356 . S
N1826 C1818 1.356 . S
N1826 H1832 0.984 . S
N1826 H1833 0.984 . S
N1827 C1820 1.356 . S
N1827 H1830 0.984 . S
N1827 H1831 0.985 . S
H1828 N1823 0.984 . S
H1829 N1823 0.985 . S
H1830 N1827 0.984 . S
H1831 N1827 0.985 . S
H1832 N1826 0.984 . S
H1833 N1826 0.984 . S
H1834 N1822 0.984 . S
H1835 N1822 0.985 . S
C1836 C1837 1.363 . S
C1836 C1842 1.379 . S
C1836 N1844 1.356 . S
C1837 C1836 1.363 . S
C1837 C1843 1.363 . S
C1838 C1839 1.363 . S
C1838 C1843 1.379 . S
C1838 N1845 1.356 . S
C1839 C1838 1.363 . S
C1839 C1842 1.363 . S
N1840 C1842 1.356 . S
N1840 H1852 0.984 . S
N1840 H1853 0.985 . S
N1841 C1843 1.356 . S
N1841 H1846 0.984 . S
N1841 H1847 0.985 . S
C1842 C1836 1.379 . S
C1842 C1839 1.363 . S
C1842 N1840 1.356 . S
C1843 C1837 1.363 . S
C1843 C1838 1.379 . S
C1843 N1841 1.356 . S
N1844 C1836 1.356 . S
N1844 H1850 0.984 . S
N1844 H1851 0.984 . S
N1845 C1838 1.356 . S
N1845 H1848 0.984 . S
N1845 H1849 0.985 . S
H1846 N1841 0.984 . S
H1847 N1841 0.985 . S
H1848 N1845 0.984 . S
H1849 N1845 0.985 . S
H1850 N1844 0.984 . S
H1851 N1844 0.984 . S
H1852 N1840 0.984 . S
H1853 N1840 0.985 . S
C1854 C1855 1.363 . S
C1854 C1860 1.379 . S
C1854 N1862 1.356 . S
C1855 C1854 1.363 . S
C1855 C1861 1.363 . S
C1856 C1857 1.363 . S
C1856 C1861 1.379 . S
C1856 N1863 1.356 . S
C1857 C1856 1.363 . S
C1857 C1860 1.363 . S
N1858 C1860 1.356 . S
N1858 H1870 0.984 . S
N1858 H1871 0.985 . S
N1859 C1861 1.356 . S
N1859 H1864 0.984 . S
N1859 H1865 0.985 . S
C1860 C1854 1.379 . S
C1860 C1857 1.363 . S
C1860 N1858 1.356 . S
C1861 C1855 1.363 . S
C1861 C1856 1.379 . S
C1861 N1859 1.356 . S
N1862 C1854 1.356 . S
N1862 H1868 0.984 . S
N1862 H1869 0.984 . S
N1863 C1856 1.356 . S
N1863 H1866 0.984 . S
N1863 H1867 0.985 . S
H1864 N1859 0.984 . S
H1865 N1859 0.985 . S
H1866 N1863 0.984 . S
H1867 N1863 0.985 . S
H1868 N1862 0.984 . S
H1869 N1862 0.984 . S
H1870 N1858 0.984 . S
H1871 N1858 0.985 . S
C1872 C1873 1.363 . S
C1872 C1878 1.379 . S
C1872 N1880 1.356 . S
C1873 C1872 1.363 . S
C1873 C1879 1.363 . S
C1874 C1875 1.363 . S
C1874 C1879 1.379 . S
C1874 N1881 1.356 1_554 S
C1875 C1874 1.363 . S
C1875 C1878 1.363 . S
N1876 C1878 1.356 . S
N1876 H1888 0.984 . S
N1876 H1889 0.985 . S
N1877 C1879 1.356 . S
N1877 H1882 0.984 . S
N1877 H1883 0.985 . S
C1878 C1872 1.379 . S
C1878 C1875 1.363 . S
C1878 N1876 1.356 . S
C1879 C1873 1.363 . S
C1879 C1874 1.379 . S
C1879 N1877 1.356 . S
N1880 C1872 1.356 . S
N1880 H1886 0.984 . S
N1880 H1887 0.984 . S
N1881 C1874 1.356 1_556 S
N1881 H1884 0.984 . S
N1881 H1885 0.985 . S
H1882 N1877 0.984 . S
H1883 N1877 0.985 . S
H1884 N1881 0.984 . S
H1885 N1881 0.985 . S
H1886 N1880 0.984 . S
H1887 N1880 0.984 . S
H1888 N1876 0.984 . S
H1889 N1876 0.985 . S
C1890 C1891 1.363 . S
C1890 C1896 1.379 . S
C1890 N1898 1.356 . S
C1891 C1890 1.363 . S
C1891 C1897 1.363 . S
C1892 C1893 1.363 . S
C1892 C1897 1.379 . S
C1892 N1899 1.356 . S
C1893 C1892 1.363 . S
C1893 C1896 1.363 . S
N1894 C1896 1.356 . S
N1894 H1906 0.984 . S
N1894 H1907 0.985 . S
N1895 C1897 1.356 . S
N1895 H1900 0.984 . S
N1895 H1901 0.985 . S
C1896 C1890 1.379 . S
C1896 C1893 1.363 . S
C1896 N1894 1.356 . S
C1897 C1891 1.363 . S
C1897 C1892 1.379 . S
C1897 N1895 1.356 . S
N1898 C1890 1.356 . S
N1898 H1904 0.984 . S
N1898 H1905 0.984 . S
N1899 C1892 1.356 . S
N1899 H1902 0.984 . S
N1899 H1903 0.985 . S
H1900 N1895 0.984 . S
H1901 N1895 0.985 . S
H1902 N1899 0.984 . S
H1903 N1899 0.985 . S
H1904 N1898 0.984 . S
H1905 N1898 0.984 . S
H1906 N1894 0.984 . S
H1907 N1894 0.985 . S
C1908 C1909 1.363 . S
C1908 C1914 1.379 . S
C1908 N1916 1.356 . S
C1909 C1908 1.363 . S
C1909 C1915 1.363 . S
C1910 C1911 1.363 . S
C1910 C1915 1.379 . S
C1910 N1917 1.356 . S
C1911 C1910 1.363 . S
C1911 C1914 1.363 . S
N1912 C1914 1.356 . S
N1912 H1924 0.984 . S
N1912 H1925 0.985 . S
N1913 C1915 1.356 . S
N1913 H1918 0.984 . S
N1913 H1919 0.985 . S
C1914 C1908 1.379 . S
C1914 C1911 1.363 . S
C1914 N1912 1.356 . S
C1915 C1909 1.363 . S
C1915 C1910 1.379 . S
C1915 N1913 1.356 . S
N1916 C1908 1.356 . S
N1916 H1922 0.984 . S
N1916 H1923 0.984 . S
N1917 C1910 1.356 . S
N1917 H1920 0.984 . S
N1917 H1921 0.985 . S
H1918 N1913 0.984 . S
H1919 N1913 0.985 . S
H1920 N1917 0.984 . S
H1921 N1917 0.985 . S
H1922 N1916 0.984 . S
H1923 N1916 0.984 . S
H1924 N1912 0.984 . S
H1925 N1912 0.985 . S
C1926 C1927 1.363 . S
C1926 C1932 1.379 . S
C1926 N1934 1.356 . S
C1927 C1926 1.363 . S
C1927 C1933 1.363 . S
C1928 C1929 1.363 . S
C1928 C1933 1.379 . S
C1928 N1935 1.356 . S
C1929 C1928 1.363 . S
C1929 C1932 1.363 . S
N1930 C1932 1.356 . S
N1930 H1942 0.984 . S
N1930 H1943 0.985 . S
N1931 C1933 1.356 . S
N1931 H1936 0.984 . S
N1931 H1937 0.985 . S
C1932 C1926 1.379 . S
C1932 C1929 1.363 . S
C1932 N1930 1.356 . S
C1933 C1927 1.363 . S
C1933 C1928 1.379 . S
C1933 N1931 1.356 . S
N1934 C1926 1.356 . S
N1934 H1940 0.984 . S
N1934 H1941 0.984 . S
N1935 C1928 1.356 . S
N1935 H1938 0.984 . S
N1935 H1939 0.985 . S
H1936 N1931 0.984 . S
H1937 N1931 0.985 . S
H1938 N1935 0.984 . S
H1939 N1935 0.985 . S
H1940 N1934 0.984 . S
H1941 N1934 0.984 . S
H1942 N1930 0.984 . S
H1943 N1930 0.985 . S
C1944 C1945 1.363 . S
C1944 C1950 1.379 . S
C1944 N1952 1.356 . S
C1945 C1944 1.363 . S
C1945 C1951 1.363 . S
C1946 C1947 1.363 . S
C1946 C1951 1.379 . S
C1946 N1953 1.356 . S
C1947 C1946 1.363 . S
C1947 C1950 1.363 . S
N1948 C1950 1.356 . S
N1948 H1960 0.984 . S
N1948 H1961 0.985 . S
N1949 C1951 1.356 . S
N1949 H1954 0.984 . S
N1949 H1955 0.985 . S
C1950 C1944 1.379 . S
C1950 C1947 1.363 . S
C1950 N1948 1.356 . S
C1951 C1945 1.363 . S
C1951 C1946 1.379 . S
C1951 N1949 1.356 . S
N1952 C1944 1.356 . S
N1952 H1958 0.984 . S
N1952 H1959 0.984 . S
N1953 C1946 1.356 . S
N1953 H1956 0.984 . S
N1953 H1957 0.985 . S
H1954 N1949 0.984 . S
H1955 N1949 0.985 . S
H1956 N1953 0.984 . S
H1957 N1953 0.985 . S
H1958 N1952 0.984 . S
H1959 N1952 0.984 . S
H1960 N1948 0.984 . S
H1961 N1948 0.985 . S
C1962 C1963 1.363 . S
C1962 C1968 1.379 . S
C1962 N1970 1.356 . S
C1963 C1962 1.363 . S
C1963 C1969 1.363 . S
C1964 C1965 1.363 . S
C1964 C1969 1.379 . S
C1964 N1971 1.356 . S
C1965 C1964 1.363 . S
C1965 C1968 1.363 . S
N1966 C1968 1.356 . S
N1966 H1978 0.984 . S
N1966 H1979 0.985 . S
N1967 C1969 1.356 . S
N1967 H1972 0.984 . S
N1967 H1973 0.985 . S
C1968 C1962 1.379 . S
C1968 C1965 1.363 . S
C1968 N1966 1.356 . S
C1969 C1963 1.363 . S
C1969 C1964 1.379 . S
C1969 N1967 1.356 . S
N1970 C1962 1.356 . S
N1970 H1976 0.984 . S
N1970 H1977 0.984 . S
N1971 C1964 1.356 . S
N1971 H1974 0.984 . S
N1971 H1975 0.985 . S
H1972 N1967 0.984 . S
H1973 N1967 0.985 . S
H1974 N1971 0.984 . S
H1975 N1971 0.985 . S
H1976 N1970 0.984 . S
H1977 N1970 0.984 . S
H1978 N1966 0.984 . S
H1979 N1966 0.985 . S
C1980 C1981 1.363 . S
C1980 C1986 1.379 . S
C1980 N1988 1.356 . S
C1981 C1980 1.363 . S
C1981 C1987 1.363 . S
C1982 C1983 1.363 . S
C1982 C1987 1.379 . S
C1982 N1989 1.356 . S
C1983 C1982 1.363 . S
C1983 C1986 1.363 . S
N1984 C1986 1.356 . S
N1984 H1996 0.984 . S
N1984 H1997 0.985 . S
N1985 C1987 1.356 . S
N1985 H1990 0.984 . S
N1985 H1991 0.985 . S
C1986 C1980 1.379 . S
C1986 C1983 1.363 . S
C1986 N1984 1.356 . S
C1987 C1981 1.363 . S
C1987 C1982 1.379 . S
C1987 N1985 1.356 . S
N1988 C1980 1.356 . S
N1988 H1994 0.984 . S
N1988 H1995 0.984 . S
N1989 C1982 1.356 . S
N1989 H1992 0.984 . S
N1989 H1993 0.985 . S
H1990 N1985 0.984 . S
H1991 N1985 0.985 . S
H1992 N1989 0.984 . S
H1993 N1989 0.985 . S
H1994 N1988 0.984 . S
H1995 N1988 0.984 . S
H1996 N1984 0.984 . S
H1997 N1984 0.985 . S
C1998 C1999 1.363 . S
C1998 C2004 1.379 . S
C1998 N2006 1.356 . S
C1999 C1998 1.363 . S
C1999 C2005 1.363 . S
C2000 C2001 1.363 . S
C2000 C2005 1.379 . S
C2000 N2007 1.356 1_545 S
C2001 C2000 1.363 . S
C2001 C2004 1.363 . S
N2002 C2004 1.356 . S
N2002 H2014 0.984 . S
N2002 H2015 0.985 . S
N2003 C2005 1.356 . S
N2003 H2008 0.984 . S
N2003 H2009 0.985 . S
C2004 C1998 1.379 . S
C2004 C2001 1.363 . S
C2004 N2002 1.356 . S
C2005 C1999 1.363 . S
C2005 C2000 1.379 . S
C2005 N2003 1.356 . S
N2006 C1998 1.356 . S
N2006 H2012 0.984 . S
N2006 H2013 0.984 . S
N2007 C2000 1.356 1_565 S
N2007 H2010 0.984 . S
N2007 H2011 0.985 . S
H2008 N2003 0.984 . S
H2009 N2003 0.985 . S
H2010 N2007 0.984 . S
H2011 N2007 0.985 . S
H2012 N2006 0.984 . S
H2013 N2006 0.984 . S
H2014 N2002 0.984 . S
H2015 N2002 0.985 . S
C2016 C2017 1.363 . S
C2016 C2022 1.379 . S
C2016 N2024 1.356 . S
C2017 C2016 1.363 . S
C2017 C2023 1.363 . S
C2018 C2019 1.363 . S
C2018 C2023 1.379 . S
C2018 N2025 1.356 . S
C2019 C2018 1.363 . S
C2019 C2022 1.363 . S
N2020 C2022 1.356 . S
N2020 H2032 0.984 . S
N2020 H2033 0.985 . S
N2021 C2023 1.356 . S
N2021 H2026 0.984 . S
N2021 H2027 0.985 . S
C2022 C2016 1.379 . S
C2022 C2019 1.363 . S
C2022 N2020 1.356 . S
C2023 C2017 1.363 . S
C2023 C2018 1.379 . S
C2023 N2021 1.356 . S
N2024 C2016 1.356 . S
N2024 H2030 0.984 . S
N2024 H2031 0.984 . S
N2025 C2018 1.356 . S
N2025 H2028 0.984 . S
N2025 H2029 0.985 . S
H2026 N2021 0.984 . S
H2027 N2021 0.985 . S
H2028 N2025 0.984 . S
H2029 N2025 0.985 . S
H2030 N2024 0.984 . S
H2031 N2024 0.984 . S
H2032 N2020 0.984 . S
H2033 N2020 0.985 . S
C2034 C2035 1.363 . S
C2034 C2040 1.379 . S
C2034 N2042 1.356 . S
C2035 C2034 1.363 . S
C2035 C2041 1.363 . S
C2036 C2037 1.363 . S
C2036 C2041 1.379 . S
C2036 N2043 1.356 1_655 S
C2037 C2036 1.363 . S
C2037 C2040 1.363 . S
N2038 C2040 1.356 . S
N2038 H2050 0.984 . S
N2038 H2051 0.985 . S
N2039 C2041 1.356 . S
N2039 H2044 0.984 . S
N2039 H2045 0.985 . S
C2040 C2034 1.379 . S
C2040 C2037 1.363 . S
C2040 N2038 1.356 . S
C2041 C2035 1.363 . S
C2041 C2036 1.379 . S
C2041 N2039 1.356 . S
N2042 C2034 1.356 . S
N2042 H2048 0.984 . S
N2042 H2049 0.984 . S
N2043 C2036 1.356 1_455 S
N2043 H2046 0.984 . S
N2043 H2047 0.985 . S
H2044 N2039 0.984 . S
H2045 N2039 0.985 . S
H2046 N2043 0.984 . S
H2047 N2043 0.985 . S
H2048 N2042 0.984 . S
H2049 N2042 0.984 . S
H2050 N2038 0.984 . S
H2051 N2038 0.985 . S
C2052 C2053 1.363 . S
C2052 C2058 1.379 . S
C2052 N2060 1.356 . S
C2053 C2052 1.363 . S
C2053 C2059 1.363 . S
C2054 C2055 1.363 . S
C2054 C2059 1.379 . S
C2054 N2061 1.356 . S
C2055 C2054 1.363 . S
C2055 C2058 1.363 . S
N2056 C2058 1.356 . S
N2056 H2068 0.984 . S
N2056 H2069 0.985 . S
N2057 C2059 1.356 . S
N2057 H2062 0.984 . S
N2057 H2063 0.985 . S
C2058 C2052 1.379 . S
C2058 C2055 1.363 . S
C2058 N2056 1.356 . S
C2059 C2053 1.363 . S
C2059 C2054 1.379 . S
C2059 N2057 1.356 . S
N2060 C2052 1.356 . S
N2060 H2066 0.984 . S
N2060 H2067 0.984 . S
N2061 C2054 1.356 . S
N2061 H2064 0.984 . S
N2061 H2065 0.985 . S
H2062 N2057 0.984 . S
H2063 N2057 0.985 . S
H2064 N2061 0.984 . S
H2065 N2061 0.985 . S
H2066 N2060 0.984 . S
H2067 N2060 0.984 . S
H2068 N2056 0.984 . S
H2069 N2056 0.985 . S
C2070 C2071 1.363 . S
C2070 C2076 1.379 . S
C2070 N2078 1.356 . S
C2071 C2070 1.363 . S
C2071 C2077 1.363 . S
C2072 C2073 1.363 . S
C2072 C2077 1.379 . S
C2072 N2079 1.356 . S
C2073 C2072 1.363 . S
C2073 C2076 1.363 . S
N2074 C2076 1.356 . S
N2074 H2086 0.984 . S
N2074 H2087 0.985 . S
N2075 C2077 1.356 1_655 S
N2075 H2080 0.984 . S
N2075 H2081 0.985 . S
C2076 C2070 1.379 . S
C2076 C2073 1.363 . S
C2076 N2074 1.356 . S
C2077 C2071 1.363 . S
C2077 C2072 1.379 . S
C2077 N2075 1.356 1_455 S
N2078 C2070 1.356 . S
N2078 H2084 0.984 . S
N2078 H2085 0.984 . S
N2079 C2072 1.356 . S
N2079 H2082 0.984 . S
N2079 H2083 0.985 . S
H2080 N2075 0.984 . S
H2081 N2075 0.985 . S
H2082 N2079 0.984 . S
H2083 N2079 0.985 . S
H2084 N2078 0.984 . S
H2085 N2078 0.984 . S
H2086 N2074 0.984 . S
H2087 N2074 0.985 . S
C2088 C2089 1.363 . S
C2088 C2094 1.379 . S
C2088 N2096 1.356 . S
C2089 C2088 1.363 . S
C2089 C2095 1.363 . S
C2090 C2091 1.363 . S
C2090 C2095 1.379 . S
C2090 N2097 1.356 . S
C2091 C2090 1.363 . S
C2091 C2094 1.363 . S
N2092 C2094 1.356 . S
N2092 H2104 0.984 . S
N2092 H2105 0.985 . S
N2093 C2095 1.356 . S
N2093 H2098 0.984 . S
N2093 H2099 0.985 . S
C2094 C2088 1.379 . S
C2094 C2091 1.363 . S
C2094 N2092 1.356 . S
C2095 C2089 1.363 . S
C2095 C2090 1.379 . S
C2095 N2093 1.356 . S
N2096 C2088 1.356 . S
N2096 H2102 0.984 . S
N2096 H2103 0.984 . S
N2097 C2090 1.356 . S
N2097 H2100 0.984 . S
N2097 H2101 0.985 . S
H2098 N2093 0.984 . S
H2099 N2093 0.985 . S
H2100 N2097 0.984 . S
H2101 N2097 0.985 . S
H2102 N2096 0.984 . S
H2103 N2096 0.984 . S
H2104 N2092 0.984 . S
H2105 N2092 0.985 . S
C2106 C2107 1.363 . S
C2106 C2112 1.379 . S
C2106 N2114 1.356 . S
C2107 C2106 1.363 . S
C2107 C2113 1.363 . S
C2108 C2109 1.363 . S
C2108 C2113 1.379 . S
C2108 N2115 1.356 . S
C2109 C2108 1.363 . S
C2109 C2112 1.363 . S
N2110 C2112 1.356 . S
N2110 H2122 0.984 . S
N2110 H2123 0.985 . S
N2111 C2113 1.356 . S
N2111 H2116 0.984 . S
N2111 H2117 0.985 . S
C2112 C2106 1.379 . S
C2112 C2109 1.363 . S
C2112 N2110 1.356 . S
C2113 C2107 1.363 . S
C2113 C2108 1.379 . S
C2113 N2111 1.356 . S
N2114 C2106 1.356 . S
N2114 H2120 0.984 . S
N2114 H2121 0.984 . S
N2115 C2108 1.356 . S
N2115 H2118 0.984 . S
N2115 H2119 0.985 . S
H2116 N2111 0.984 . S
H2117 N2111 0.985 . S
H2118 N2115 0.984 . S
H2119 N2115 0.985 . S
H2120 N2114 0.984 . S
H2121 N2114 0.984 . S
H2122 N2110 0.984 . S
H2123 N2110 0.985 . S
C2124 C2125 1.363 . S
C2124 C2130 1.379 . S
C2124 N2132 1.356 . S
C2125 C2124 1.363 . S
C2125 C2131 1.363 . S
C2126 C2127 1.363 . S
C2126 C2131 1.379 . S
C2126 N2133 1.356 . S
C2127 C2126 1.363 . S
C2127 C2130 1.363 . S
N2128 C2130 1.356 . S
N2128 H2140 0.984 . S
N2128 H2141 0.985 . S
N2129 C2131 1.356 . S
N2129 H2134 0.984 . S
N2129 H2135 0.985 . S
C2130 C2124 1.379 . S
C2130 C2127 1.363 . S
C2130 N2128 1.356 . S
C2131 C2125 1.363 . S
C2131 C2126 1.379 . S
C2131 N2129 1.356 . S
N2132 C2124 1.356 . S
N2132 H2138 0.984 . S
N2132 H2139 0.984 . S
N2133 C2126 1.356 . S
N2133 H2136 0.984 . S
N2133 H2137 0.985 . S
H2134 N2129 0.984 . S
H2135 N2129 0.985 . S
H2136 N2133 0.984 . S
H2137 N2133 0.985 . S
H2138 N2132 0.984 . S
H2139 N2132 0.984 . S
H2140 N2128 0.984 . S
H2141 N2128 0.985 . S
C2142 C2143 1.363 . S
C2142 C2148 1.379 . S
C2142 N2150 1.356 . S
C2143 C2142 1.363 . S
C2143 C2149 1.363 . S
C2144 C2145 1.363 . S
C2144 C2149 1.379 . S
C2144 N2151 1.356 . S
C2145 C2144 1.363 . S
C2145 C2148 1.363 . S
N2146 C2148 1.356 . S
N2146 H2158 0.984 . S
N2146 H2159 0.985 . S
N2147 C2149 1.356 . S
N2147 H2152 0.984 . S
N2147 H2153 0.985 . S
C2148 C2142 1.379 . S
C2148 C2145 1.363 . S
C2148 N2146 1.356 . S
C2149 C2143 1.363 . S
C2149 C2144 1.379 . S
C2149 N2147 1.356 . S
N2150 C2142 1.356 . S
N2150 H2156 0.984 . S
N2150 H2157 0.984 . S
N2151 C2144 1.356 . S
N2151 H2154 0.984 . S
N2151 H2155 0.985 . S
H2152 N2147 0.984 . S
H2153 N2147 0.985 . S
H2154 N2151 0.984 . S
H2155 N2151 0.985 . S
H2156 N2150 0.984 . S
H2157 N2150 0.984 . S
H2158 N2146 0.984 . S
H2159 N2146 0.985 . S
C2160 C2161 1.363 . S
C2160 C2166 1.379 . S
C2160 N2168 1.356 . S
C2161 C2160 1.363 . S
C2161 C2167 1.363 . S
C2162 C2163 1.363 . S
C2162 C2167 1.379 . S
C2162 N2169 1.356 . S
C2163 C2162 1.363 . S
C2163 C2166 1.363 . S
N2164 C2166 1.356 . S
N2164 H2176 0.984 . S
N2164 H2177 0.985 . S
N2165 C2167 1.356 . S
N2165 H2170 0.984 . S
N2165 H2171 0.985 . S
C2166 C2160 1.379 . S
C2166 C2163 1.363 . S
C2166 N2164 1.356 . S
C2167 C2161 1.363 . S
C2167 C2162 1.379 . S
C2167 N2165 1.356 . S
N2168 C2160 1.356 . S
N2168 H2174 0.984 . S
N2168 H2175 0.984 . S
N2169 C2162 1.356 . S
N2169 H2172 0.984 . S
N2169 H2173 0.985 . S
H2170 N2165 0.984 . S
H2171 N2165 0.985 . S
H2172 N2169 0.984 . S
H2173 N2169 0.985 . S
H2174 N2168 0.984 . S
H2175 N2168 0.984 . S
H2176 N2164 0.984 . S
H2177 N2164 0.985 . S
C2178 C2179 1.363 . S
C2178 C2184 1.379 . S
C2178 N2186 1.356 . S
C2179 C2178 1.363 . S
C2179 C2185 1.363 . S
C2180 C2181 1.363 . S
C2180 C2185 1.379 . S
C2180 N2187 1.356 . S
C2181 C2180 1.363 . S
C2181 C2184 1.363 . S
N2182 C2184 1.356 . S
N2182 H2194 0.984 . S
N2182 H2195 0.985 . S
N2183 C2185 1.356 . S
N2183 H2188 0.984 . S
N2183 H2189 0.985 . S
C2184 C2178 1.379 . S
C2184 C2181 1.363 . S
C2184 N2182 1.356 . S
C2185 C2179 1.363 . S
C2185 C2180 1.379 . S
C2185 N2183 1.356 . S
N2186 C2178 1.356 . S
N2186 H2192 0.984 . S
N2186 H2193 0.984 . S
N2187 C2180 1.356 . S
N2187 H2190 0.984 . S
N2187 H2191 0.985 . S
H2188 N2183 0.984 . S
H2189 N2183 0.985 . S
H2190 N2187 0.984 . S
H2191 N2187 0.985 . S
H2192 N2186 0.984 . S
H2193 N2186 0.984 . S
H2194 N2182 0.984 . S
H2195 N2182 0.985 . S
C2196 C2197 1.363 . S
C2196 C2202 1.379 . S
C2196 N2204 1.379 . S
C2197 C2196 1.363 . S
C2197 C2203 1.363 . S
C2198 C2199 1.363 . S
C2198 C2203 1.379 . S
C2198 N2205 1.356 . S
C2199 C2198 1.363 . S
C2199 C2202 1.363 . S
N2200 C2202 1.356 . S
N2200 H2212 0.984 . S
N2200 H2213 0.985 . S
N2201 C2203 1.356 . S
N2201 H2206 0.984 . S
N2201 H2207 0.985 . S
C2202 C2196 1.379 . S
C2202 C2199 1.363 . S
C2202 N2200 1.356 . S
C2203 C2197 1.363 . S
C2203 C2198 1.379 . S
C2203 N2201 1.356 . S
N2204 C2196 1.379 . S
N2204 H2210 0.979 1_565 S
N2204 H2211 0.969 1_565 S
N2205 C2198 1.356 . S
N2205 H2208 0.984 . S
N2205 H2209 0.985 . S
H2206 N2201 0.984 . S
H2207 N2201 0.985 . S
H2208 N2205 0.984 . S
H2209 N2205 0.985 . S
H2210 N2204 0.979 1_545 S
H2211 N2204 0.969 1_545 S
H2212 N2200 0.984 . S
H2213 N2200 0.985 . S
C2214 C2215 1.363 . S
C2214 C2220 1.379 . S
C2214 N2222 1.356 . S
C2215 C2214 1.363 . S
C2215 C2221 1.363 . S
C2216 C2217 1.363 . S
C2216 C2221 1.379 . S
C2216 N2223 1.356 . S
C2217 C2216 1.363 . S
C2217 C2220 1.363 . S
N2218 C2220 1.356 . S
N2218 H2230 0.984 . S
N2218 H2231 0.985 . S
N2219 C2221 1.356 . S
N2219 H2224 0.984 . S
N2219 H2225 0.985 . S
C2220 C2214 1.379 . S
C2220 C2217 1.363 . S
C2220 N2218 1.356 . S
C2221 C2215 1.363 . S
C2221 C2216 1.379 . S
C2221 N2219 1.356 . S
N2222 C2214 1.356 . S
N2222 H2228 0.984 . S
N2222 H2229 0.984 . S
N2223 C2216 1.356 . S
N2223 H2226 0.984 . S
N2223 H2227 0.985 . S
H2224 N2219 0.984 . S
H2225 N2219 0.985 . S
H2226 N2223 0.984 . S
H2227 N2223 0.985 . S
H2228 N2222 0.984 . S
H2229 N2222 0.984 . S
H2230 N2218 0.984 . S
H2231 N2218 0.985 . S
C2232 C2233 1.363 . S
C2232 C2238 1.379 . S
C2232 N2240 1.356 . S
C2233 C2232 1.363 . S
C2233 C2239 1.363 . S
C2234 C2235 1.363 . S
C2234 C2239 1.379 . S
C2234 N2241 1.356 . S
C2235 C2234 1.363 . S
C2235 C2238 1.363 . S
N2236 C2238 1.356 . S
N2236 H2248 0.984 . S
N2236 H2249 0.985 . S
N2237 C2239 1.356 . S
N2237 H2242 0.984 . S
N2237 H2243 0.985 . S
C2238 C2232 1.379 . S
C2238 C2235 1.363 . S
C2238 N2236 1.356 . S
C2239 C2233 1.363 . S
C2239 C2234 1.379 . S
C2239 N2237 1.356 . S
N2240 C2232 1.356 . S
N2240 H2246 0.984 . S
N2240 H2247 0.984 . S
N2241 C2234 1.356 . S
N2241 H2244 0.984 . S
N2241 H2245 0.985 . S
H2242 N2237 0.984 . S
H2243 N2237 0.985 . S
H2244 N2241 0.984 . S
H2245 N2241 0.985 . S
H2246 N2240 0.984 . S
H2247 N2240 0.984 . S
H2248 N2236 0.984 . S
H2249 N2236 0.985 . S
C2250 C2251 1.363 . S
C2250 C2256 1.379 . S
C2250 N2258 1.356 . S
C2251 C2250 1.363 . S
C2251 C2257 1.363 . S
C2252 C2253 1.363 . S
C2252 C2257 1.379 . S
C2252 N2259 1.356 . S
C2253 C2252 1.363 . S
C2253 C2256 1.363 . S
N2254 C2256 1.356 . S
N2254 H2266 0.984 . S
N2254 H2267 0.985 . S
N2255 C2257 1.356 . S
N2255 H2260 0.984 . S
N2255 H2261 0.985 . S
C2256 C2250 1.379 . S
C2256 C2253 1.363 . S
C2256 N2254 1.356 . S
C2257 C2251 1.363 . S
C2257 C2252 1.379 . S
C2257 N2255 1.356 . S
N2258 C2250 1.356 . S
N2258 H2264 0.984 . S
N2258 H2265 0.984 . S
N2259 C2252 1.356 . S
N2259 H2262 0.984 . S
N2259 H2263 0.985 . S
H2260 N2255 0.984 . S
H2261 N2255 0.985 . S
H2262 N2259 0.984 . S
H2263 N2259 0.985 . S
H2264 N2258 0.984 . S
H2265 N2258 0.984 . S
H2266 N2254 0.984 . S
H2267 N2254 0.985 . S
C2268 C2269 1.363 . S
C2268 C2274 1.379 . S
C2268 N2276 1.356 . S
C2269 C2268 1.363 . S
C2269 C2275 1.363 . S
C2270 C2271 1.363 . S
C2270 C2275 1.379 . S
C2270 N2277 1.356 . S
C2271 C2270 1.363 . S
C2271 C2274 1.363 . S
N2272 C2274 1.356 . S
N2272 H2284 0.984 . S
N2272 H2285 0.985 . S
N2273 C2275 1.356 1_565 S
N2273 H2278 0.984 . S
N2273 H2279 0.985 . S
C2274 C2268 1.379 . S
C2274 C2271 1.363 . S
C2274 N2272 1.356 . S
C2275 C2269 1.363 . S
C2275 C2270 1.379 . S
C2275 N2273 1.356 1_545 S
N2276 C2268 1.356 . S
N2276 H2282 0.984 . S
N2276 H2283 0.984 . S
N2277 C2270 1.356 . S
N2277 H2280 0.984 . S
N2277 H2281 0.985 . S
H2278 N2273 0.984 . S
H2279 N2273 0.985 . S
H2280 N2277 0.984 . S
H2281 N2277 0.985 . S
H2282 N2276 0.984 . S
H2283 N2276 0.984 . S
H2284 N2272 0.984 . S
H2285 N2272 0.985 . S
C2286 C2287 1.363 . S
C2286 C2292 1.379 . S
C2286 N2294 1.356 . S
C2287 C2286 1.363 . S
C2287 C2293 1.363 . S
C2288 C2289 1.363 . S
C2288 C2293 1.379 . S
C2288 N2295 1.356 . S
C2289 C2288 1.363 . S
C2289 C2292 1.363 . S
N2290 C2292 1.356 . S
N2290 H2302 0.984 . S
N2290 H2303 0.985 . S
N2291 C2293 1.356 . S
N2291 H2296 0.984 . S
N2291 H2297 0.985 . S
C2292 C2286 1.379 . S
C2292 C2289 1.363 . S
C2292 N2290 1.356 . S
C2293 C2287 1.363 . S
C2293 C2288 1.379 . S
C2293 N2291 1.356 . S
N2294 C2286 1.356 . S
N2294 H2300 0.984 . S
N2294 H2301 0.984 . S
N2295 C2288 1.356 . S
N2295 H2298 0.984 . S
N2295 H2299 0.985 . S
H2296 N2291 0.984 . S
H2297 N2291 0.985 . S
H2298 N2295 0.984 . S
H2299 N2295 0.985 . S
H2300 N2294 0.984 . S
H2301 N2294 0.984 . S
H2302 N2290 0.984 . S
H2303 N2290 0.985 . S
C2304 C2305 1.363 . S
C2304 C2310 1.379 . S
C2304 N2312 1.356 . S
C2305 C2304 1.363 . S
C2305 C2311 1.363 . S
C2306 C2307 1.363 . S
C2306 C2311 1.379 . S
C2306 N2313 1.356 . S
C2307 C2306 1.363 . S
C2307 C2310 1.363 . S
N2308 C2310 1.356 . S
N2308 H2320 0.984 . S
N2308 H2321 0.985 . S
N2309 C2311 1.356 . S
N2309 H2314 0.984 . S
N2309 H2315 0.985 . S
C2310 C2304 1.379 . S
C2310 C2307 1.363 . S
C2310 N2308 1.356 . S
C2311 C2305 1.363 . S
C2311 C2306 1.379 . S
C2311 N2309 1.356 . S
N2312 C2304 1.356 . S
N2312 H2318 0.984 . S
N2312 H2319 0.984 . S
N2313 C2306 1.356 . S
N2313 H2316 0.984 . S
N2313 H2317 0.985 . S
H2314 N2309 0.984 . S
H2315 N2309 0.985 . S
H2316 N2313 0.984 . S
H2317 N2313 0.985 . S
H2318 N2312 0.984 . S
H2319 N2312 0.984 . S
H2320 N2308 0.984 . S
H2321 N2308 0.985 . S
C2322 C2323 1.363 . S
C2322 C2328 1.379 . S
C2322 N2330 1.356 . S
C2323 C2322 1.363 . S
C2323 C2329 1.363 . S
C2324 C2325 1.363 . S
C2324 C2329 1.379 . S
C2324 N2331 1.356 . S
C2325 C2324 1.363 . S
C2325 C2328 1.363 . S
N2326 C2328 1.356 . S
N2326 H2338 0.984 . S
N2326 H2339 0.985 . S
N2327 C2329 1.356 1_554 S
N2327 H2332 0.984 . S
N2327 H2333 0.985 . S
C2328 C2322 1.379 . S
C2328 C2325 1.363 . S
C2328 N2326 1.356 . S
C2329 C2323 1.363 . S
C2329 C2324 1.379 . S
C2329 N2327 1.356 1_556 S
N2330 C2322 1.356 . S
N2330 H2336 0.984 . S
N2330 H2337 0.984 . S
N2331 C2324 1.356 . S
N2331 H2334 0.984 . S
N2331 H2335 0.985 . S
H2332 N2327 0.984 . S
H2333 N2327 0.985 . S
H2334 N2331 0.984 . S
H2335 N2331 0.985 . S
H2336 N2330 0.984 . S
H2337 N2330 0.984 . S
H2338 N2326 0.984 . S
H2339 N2326 0.985 . S
C2340 C2341 1.363 . S
C2340 C2346 1.379 . S
C2340 N2348 1.356 . S
C2341 C2340 1.363 . S
C2341 C2347 1.363 . S
C2342 C2343 1.363 . S
C2342 C2347 1.379 . S
C2342 N2349 1.356 . S
C2343 C2342 1.363 . S
C2343 C2346 1.363 . S
N2344 C2346 1.356 . S
N2344 H2356 0.984 . S
N2344 H2357 0.985 . S
N2345 C2347 1.356 . S
N2345 H2350 0.984 . S
N2345 H2351 0.985 . S
C2346 C2340 1.379 . S
C2346 C2343 1.363 . S
C2346 N2344 1.356 . S
C2347 C2341 1.363 . S
C2347 C2342 1.379 . S
C2347 N2345 1.356 . S
N2348 C2340 1.356 . S
N2348 H2354 0.984 . S
N2348 H2355 0.984 . S
N2349 C2342 1.356 . S
N2349 H2352 0.984 . S
N2349 H2353 0.985 . S
H2350 N2345 0.984 . S
H2351 N2345 0.985 . S
H2352 N2349 0.984 . S
H2353 N2349 0.985 . S
H2354 N2348 0.984 . S
H2355 N2348 0.984 . S
H2356 N2344 0.984 . S
H2357 N2344 0.985 . S
C2358 C2359 1.363 . S
C2358 C2364 1.379 . S
C2358 N2366 1.356 . S
C2359 C2358 1.363 . S
C2359 C2365 1.363 . S
C2360 C2361 1.363 . S
C2360 C2365 1.379 . S
C2360 N2367 1.356 . S
C2361 C2360 1.363 . S
C2361 C2364 1.363 . S
N2362 C2364 1.356 1_554 S
N2362 H2374 0.984 . S
N2362 H2375 0.985 . S
N2363 C2365 1.356 . S
N2363 H2368 0.984 . S
N2363 H2369 0.985 . S
C2364 C2358 1.379 . S
C2364 C2361 1.363 . S
C2364 N2362 1.356 1_556 S
C2365 C2359 1.363 . S
C2365 C2360 1.379 . S
C2365 N2363 1.356 . S
N2366 C2358 1.356 . S
N2366 H2372 0.984 . S
N2366 H2373 0.984 . S
N2367 C2360 1.356 . S
N2367 H2370 0.984 . S
N2367 H2371 0.985 . S
H2368 N2363 0.984 . S
H2369 N2363 0.985 . S
H2370 N2367 0.984 . S
H2371 N2367 0.985 . S
H2372 N2366 0.984 . S
H2373 N2366 0.984 . S
H2374 N2362 0.984 . S
H2375 N2362 0.985 . S
C2376 C2377 1.363 . S
C2376 C2382 1.379 . S
C2376 N2384 1.356 . S
C2377 C2376 1.363 . S
C2377 C2383 1.363 . S
C2378 C2379 1.363 . S
C2378 C2383 1.379 . S
C2378 N2385 1.356 1_565 S
C2379 C2378 1.363 . S
C2379 C2382 1.363 . S
N2380 C2382 1.356 . S
N2380 H2392 0.984 . S
N2380 H2393 0.985 . S
N2381 C2383 1.356 . S
N2381 H2386 0.984 . S
N2381 H2387 0.985 . S
C2382 C2376 1.379 . S
C2382 C2379 1.363 . S
C2382 N2380 1.356 . S
C2383 C2377 1.363 . S
C2383 C2378 1.379 . S
C2383 N2381 1.356 . S
N2384 C2376 1.356 . S
N2384 H2390 0.984 . S
N2384 H2391 0.984 . S
N2385 C2378 1.356 1_545 S
N2385 H2388 0.984 . S
N2385 H2389 0.985 . S
H2386 N2381 0.984 . S
H2387 N2381 0.985 . S
H2388 N2385 0.984 . S
H2389 N2385 0.985 . S
H2390 N2384 0.984 . S
H2391 N2384 0.984 . S
H2392 N2380 0.984 . S
H2393 N2380 0.985 . S
C2394 C2395 1.363 . S
C2394 C2400 1.379 . S
C2394 N2402 1.356 . S
C2395 C2394 1.363 . S
C2395 C2401 1.363 . S
C2396 C2397 1.363 . S
C2396 C2401 1.379 . S
C2396 N2403 1.356 . S
C2397 C2396 1.363 . S
C2397 C2400 1.363 . S
N2398 C2400 1.356 . S
N2398 H2410 0.984 . S
N2398 H2411 0.985 . S
N2399 C2401 1.356 . S
N2399 H2404 0.984 1_554 S
N2399 H2405 0.985 . S
C2400 C2394 1.379 . S
C2400 C2397 1.363 . S
C2400 N2398 1.356 . S
C2401 C2395 1.363 . S
C2401 C2396 1.379 . S
C2401 N2399 1.356 . S
N2402 C2394 1.356 . S
N2402 H2408 0.984 . S
N2402 H2409 0.984 . S
N2403 C2396 1.356 . S
N2403 H2406 0.984 . S
N2403 H2407 0.985 . S
H2404 N2399 0.984 1_556 S
H2405 N2399 0.985 . S
H2406 N2403 0.984 . S
H2407 N2403 0.985 . S
H2408 N2402 0.984 . S
H2409 N2402 0.984 . S
H2410 N2398 0.984 . S
H2411 N2398 0.985 . S
C2412 C2413 1.363 . S
C2412 C2418 1.379 . S
C2412 N2420 1.356 . S
C2413 C2412 1.363 . S
C2413 C2419 1.363 . S
C2414 C2415 1.363 . S
C2414 C2419 1.379 . S
C2414 N2421 1.356 1_565 S
C2415 C2414 1.363 . S
C2415 C2418 1.363 . S
N2416 C2418 1.356 . S
N2416 H2428 0.984 . S
N2416 H2429 0.985 . S
N2417 C2419 1.356 . S
N2417 H2422 0.984 . S
N2417 H2423 0.985 . S
C2418 C2412 1.379 . S
C2418 C2415 1.363 . S
C2418 N2416 1.356 . S
C2419 C2413 1.363 . S
C2419 C2414 1.379 . S
C2419 N2417 1.356 . S
N2420 C2412 1.356 . S
N2420 H2426 0.984 . S
N2420 H2427 0.984 . S
N2421 C2414 1.356 1_545 S
N2421 H2424 0.984 . S
N2421 H2425 0.985 . S
H2422 N2417 0.984 . S
H2423 N2417 0.985 . S
H2424 N2421 0.984 . S
H2425 N2421 0.985 . S
H2426 N2420 0.984 . S
H2427 N2420 0.984 . S
H2428 N2416 0.984 . S
H2429 N2416 0.985 . S
C2430 C2431 1.363 . S
C2430 C2436 1.379 . S
C2430 N2438 1.356 . S
C2431 C2430 1.363 . S
C2431 C2437 1.363 . S
C2432 C2433 1.363 . S
C2432 C2437 1.379 . S
C2432 N2439 1.356 . S
C2433 C2432 1.363 . S
C2433 C2436 1.363 . S
N2434 C2436 1.356 . S
N2434 H2446 0.984 . S
N2434 H2447 0.985 . S
N2435 C2437 1.356 . S
N2435 H2440 0.984 . S
N2435 H2441 0.985 . S
C2436 C2430 1.379 . S
C2436 C2433 1.363 . S
C2436 N2434 1.356 . S
C2437 C2431 1.363 . S
C2437 C2432 1.379 . S
C2437 N2435 1.356 . S
N2438 C2430 1.356 . S
N2438 H2444 0.984 . S
N2438 H2445 0.984 . S
N2439 C2432 1.356 . S
N2439 H2442 0.984 . S
N2439 H2443 0.985 . S
H2440 N2435 0.984 . S
H2441 N2435 0.985 . S
H2442 N2439 0.984 . S
H2443 N2439 0.985 . S
H2444 N2438 0.984 . S
H2445 N2438 0.984 . S
H2446 N2434 0.984 . S
H2447 N2434 0.985 . S
C2448 C2449 1.363 . S
C2448 C2454 1.379 1_545 S
C2448 N2456 1.356 . S
C2449 C2448 1.363 . S
C2449 C2455 1.363 1_455 S
C2450 C2451 1.363 1_655 S
C2450 C2455 1.379 1_565 S
C2450 N2457 1.356 . S
C2451 C2450 1.363 1_455 S
C2451 C2454 1.363 . S
N2452 C2454 1.356 . S
N2452 H2464 0.984 . S
N2452 H2465 0.985 . S
N2453 C2455 1.356 . S
N2453 H2458 0.984 . S
N2453 H2459 0.985 . S
C2454 C2448 1.379 1_565 S
C2454 C2451 1.363 . S
C2454 N2452 1.356 . S
C2455 C2449 1.363 1_655 S
C2455 C2450 1.379 1_545 S
C2455 N2453 1.356 . S
N2456 C2448 1.356 . S
N2456 H2462 0.984 . S
N2456 H2463 0.984 . S
N2457 C2450 1.356 . S
N2457 H2460 0.984 . S
N2457 H2461 0.985 . S
H2458 N2453 0.984 . S
H2459 N2453 0.985 . S
H2460 N2457 0.984 . S
H2461 N2457 0.985 . S
H2462 N2456 0.984 . S
H2463 N2456 0.984 . S
H2464 N2452 0.984 . S
H2465 N2452 0.985 . S
C2466 C2467 1.363 . S
C2466 C2472 1.379 . S
C2466 N2474 1.356 . S
C2467 C2466 1.363 . S
C2467 C2473 1.363 1_556 S
C2468 C2469 1.363 . S
C2468 C2473 1.379 . S
C2468 N2475 1.356 . S
C2469 C2468 1.363 . S
C2469 C2472 1.363 1_554 S
N2470 C2472 1.356 . S
N2470 H2482 0.984 . S
N2470 H2483 0.968 1_556 S
N2471 C2473 1.356 . S
N2471 H2476 0.973 1_554 S
N2471 H2477 0.985 . S
C2472 C2466 1.379 . S
C2472 C2469 1.363 1_556 S
C2472 N2470 1.356 . S
C2473 C2467 1.363 1_554 S
C2473 C2468 1.379 . S
C2473 N2471 1.356 . S
N2474 C2466 1.356 . S
N2474 H2480 0.984 . S
N2474 H2481 0.984 . S
N2475 C2468 1.356 . S
N2475 H2478 0.984 . S
N2475 H2479 0.985 . S
H2476 N2471 0.973 1_556 S
H2477 N2471 0.985 . S
H2478 N2475 0.984 . S
H2479 N2475 0.985 . S
H2480 N2474 0.984 . S
H2481 N2474 0.984 . S
H2482 N2470 0.984 . S
H2483 N2470 0.968 1_554 S
C2484 C2485 1.363 1_455 S
C2484 C2490 1.379 . S
C2484 N2492 1.356 . S
C2485 C2484 1.363 1_655 S
C2485 C2491 1.363 . S
C2486 C2487 1.363 . S
C2486 C2491 1.379 . S
C2486 N2493 1.356 . S
C2487 C2486 1.363 . S
C2487 C2490 1.363 1_655 S
N2488 C2490 1.356 . S
N2488 H2500 0.984 . S
N2488 H2501 0.985 . S
N2489 C2491 1.356 . S
N2489 H2494 0.984 . S
N2489 H2495 0.985 . S
C2490 C2484 1.379 . S
C2490 C2487 1.363 1_455 S
C2490 N2488 1.356 . S
C2491 C2485 1.363 . S
C2491 C2486 1.379 . S
C2491 N2489 1.356 . S
N2492 C2484 1.356 . S
N2492 H2498 0.984 . S
N2492 H2499 0.984 . S
N2493 C2486 1.356 . S
N2493 H2496 0.984 . S
N2493 H2497 0.985 . S
H2494 N2489 0.984 . S
H2495 N2489 0.985 . S
H2496 N2493 0.984 . S
H2497 N2493 0.985 . S
H2498 N2492 0.984 . S
H2499 N2492 0.984 . S
H2500 N2488 0.984 . S
H2501 N2488 0.985 . S
C2502 C2503 1.363 1_556 S
C2502 C2508 1.379 . S
C2502 N2510 1.356 . S
C2503 C2502 1.363 1_554 S
C2503 C2509 1.363 . S
C2504 C2505 1.363 1_554 S
C2504 C2509 1.379 . S
C2504 N2511 1.356 . S
C2505 C2504 1.363 1_556 S
C2505 C2508 1.363 . S
N2506 C2508 1.356 . S
N2506 H2518 0.984 . S
N2506 H2519 0.985 . S
N2507 C2509 1.356 . S
N2507 H2512 0.984 . S
N2507 H2513 0.985 . S
C2508 C2502 1.379 . S
C2508 C2505 1.363 . S
C2508 N2506 1.356 . S
C2509 C2503 1.363 . S
C2509 C2504 1.379 . S
C2509 N2507 1.356 . S
N2510 C2502 1.356 . S
N2510 H2516 0.984 . S
N2510 H2517 0.968 1_556 S
N2511 C2504 1.356 . S
N2511 H2514 0.973 1_554 S
N2511 H2515 0.985 . S
H2512 N2507 0.984 . S
H2513 N2507 0.985 . S
H2514 N2511 0.973 1_556 S
H2515 N2511 0.985 . S
H2516 N2510 0.984 . S
H2517 N2510 0.968 1_554 S
H2518 N2506 0.984 . S
H2519 N2506 0.985 . S
C2520 C2521 1.363 1_565 S
C2520 C2526 1.379 1_556 S
C2520 N2528 1.356 . S
C2521 C2520 1.363 1_545 S
C2521 C2527 1.363 . S
C2522 C2523 1.363 . S
C2522 C2527 1.379 1_554 S
C2522 N2529 1.356 . S
C2523 C2522 1.363 . S
C2523 C2526 1.363 1_545 S
N2524 C2526 1.356 . S
N2524 H2536 0.984 . S
N2524 H2537 0.985 . S
N2525 C2527 1.356 . S
N2525 H2530 0.984 . S
N2525 H2531 0.985 . S
C2526 C2520 1.379 1_554 S
C2526 C2523 1.363 1_565 S
C2526 N2524 1.356 . S
C2527 C2521 1.363 . S
C2527 C2522 1.379 1_556 S
C2527 N2525 1.356 . S
N2528 C2520 1.356 . S
N2528 H2534 0.984 . S
N2528 H2535 0.984 . S
N2529 C2522 1.356 . S
N2529 H2532 0.984 . S
N2529 H2533 0.985 . S
H2530 N2525 0.984 . S
H2531 N2525 0.985 . S
H2532 N2529 0.984 . S
H2533 N2529 0.985 . S
H2534 N2528 0.984 . S
H2535 N2528 0.984 . S
H2536 N2524 0.984 . S
H2537 N2524 0.985 . S
C2538 C2539 1.363 . S
C2538 C2544 1.379 . S
C2538 N2546 1.356 . S
C2539 C2538 1.363 . S
C2539 C2545 1.363 . S
C2540 C2541 1.363 . S
C2540 C2545 1.379 . S
C2540 N2547 1.356 . S
C2541 C2540 1.363 . S
C2541 C2544 1.363 . S
N2542 C2544 1.356 . S
N2542 H2554 0.984 . S
N2542 H2555 0.985 . S
N2543 C2545 1.356 . S
N2543 H2548 0.984 . S
N2543 H2549 0.985 . S
C2544 C2538 1.379 . S
C2544 C2541 1.363 . S
C2544 N2542 1.356 . S
C2545 C2539 1.363 . S
C2545 C2540 1.379 . S
C2545 N2543 1.356 . S
N2546 C2538 1.356 . S
N2546 H2552 0.984 . S
N2546 H2553 0.984 . S
N2547 C2540 1.356 . S
N2547 H2550 0.984 . S
N2547 H2551 0.985 . S
H2548 N2543 0.984 . S
H2549 N2543 0.985 . S
H2550 N2547 0.984 . S
H2551 N2547 0.985 . S
H2552 N2546 0.984 . S
H2553 N2546 0.984 . S
H2554 N2542 0.984 . S
H2555 N2542 0.985 . S
C2556 C2557 1.363 . S
C2556 C2562 1.379 1_556 S
C2556 N2564 1.356 . S
C2557 C2556 1.363 . S
C2557 C2563 1.363 . S
C2558 C2559 1.363 . S
C2558 C2563 1.379 1_554 S
C2558 N2565 1.356 . S
C2559 C2558 1.363 . S
C2559 C2562 1.363 . S
N2560 C2562 1.356 . S
N2560 H2572 0.984 . S
N2560 H2573 0.985 . S
N2561 C2563 1.356 . S
N2561 H2566 0.984 . S
N2561 H2567 0.985 . S
C2562 C2556 1.379 1_554 S
C2562 C2559 1.363 . S
C2562 N2560 1.356 . S
C2563 C2557 1.363 . S
C2563 C2558 1.379 1_556 S
C2563 N2561 1.356 . S
N2564 C2556 1.356 . S
N2564 H2570 0.984 . S
N2564 H2571 0.984 . S
N2565 C2558 1.356 . S
N2565 H2568 0.984 . S
N2565 H2569 0.985 . S
H2566 N2561 0.984 . S
H2567 N2561 0.985 . S
H2568 N2565 0.984 . S
H2569 N2565 0.985 . S
H2570 N2564 0.984 . S
H2571 N2564 0.984 . S
H2572 N2560 0.984 . S
H2573 N2560 0.985 . S
C2574 C2575 1.363 . S
C2574 C2580 1.379 . S
C2574 N2582 1.356 . S
C2575 C2574 1.363 . S
C2575 C2581 1.363 1_545 S
C2576 C2577 1.363 . S
C2576 C2581 1.379 . S
C2576 N2583 1.356 . S
C2577 C2576 1.363 . S
C2577 C2580 1.363 1_565 S
N2578 C2580 1.356 . S
N2578 H2590 0.984 . S
N2578 H2591 0.985 . S
N2579 C2581 1.356 . S
N2579 H2584 0.984 . S
N2579 H2585 0.985 . S
C2580 C2574 1.379 . S
C2580 C2577 1.363 1_545 S
C2580 N2578 1.356 . S
C2581 C2575 1.363 1_565 S
C2581 C2576 1.379 . S
C2581 N2579 1.356 . S
N2582 C2574 1.356 . S
N2582 H2588 0.984 . S
N2582 H2589 0.984 . S
N2583 C2576 1.356 . S
N2583 H2586 0.984 . S
N2583 H2587 0.985 . S
H2584 N2579 0.984 . S
H2585 N2579 0.985 . S
H2586 N2583 0.984 . S
H2587 N2583 0.985 . S
H2588 N2582 0.984 . S
H2589 N2582 0.984 . S
H2590 N2578 0.984 . S
H2591 N2578 0.985 . S
C2592 C2593 1.363 . S
C2592 C2598 1.379 . S
C2592 N2600 1.356 . S
C2593 C2592 1.363 . S
C2593 C2599 1.363 1_565 S
C2594 C2595 1.363 1_545 S
C2594 C2599 1.379 . S
C2594 N2601 1.356 . S
C2595 C2594 1.363 1_565 S
C2595 C2598 1.363 . S
N2596 C2598 1.356 . S
N2596 H2608 0.984 . S
N2596 H2609 0.985 . S
N2597 C2599 1.356 . S
N2597 H2602 0.984 . S
N2597 H2603 0.985 . S
C2598 C2592 1.379 . S
C2598 C2595 1.363 . S
C2598 N2596 1.356 . S
C2599 C2593 1.363 1_545 S
C2599 C2594 1.379 . S
C2599 N2597 1.356 . S
N2600 C2592 1.356 . S
N2600 H2606 0.984 . S
N2600 H2607 0.984 . S
N2601 C2594 1.356 . S
N2601 H2604 0.984 . S
N2601 H2605 0.985 . S
H2602 N2597 0.984 . S
H2603 N2597 0.985 . S
H2604 N2601 0.984 . S
H2605 N2601 0.985 . S
H2606 N2600 0.984 . S
H2607 N2600 0.984 . S
H2608 N2596 0.984 . S
H2609 N2596 0.985 . S
C2610 C2611 1.363 . S
C2610 C2616 1.379 . S
C2610 N2618 1.356 . S
C2611 C2610 1.363 . S
C2611 C2617 1.363 . S
C2612 C2613 1.363 . S
C2612 C2617 1.379 . S
C2612 N2619 1.356 . S
C2613 C2612 1.363 . S
C2613 C2616 1.363 . S
N2614 C2616 1.356 . S
N2614 H2626 0.984 . S
N2614 H2627 0.985 . S
N2615 C2617 1.356 . S
N2615 H2620 0.984 . S
N2615 H2621 0.985 . S
C2616 C2610 1.379 . S
C2616 C2613 1.363 . S
C2616 N2614 1.356 . S
C2617 C2611 1.363 . S
C2617 C2612 1.379 . S
C2617 N2615 1.356 . S
N2618 C2610 1.356 . S
N2618 H2624 0.984 . S
N2618 H2625 0.984 . S
N2619 C2612 1.356 . S
N2619 H2622 0.984 . S
N2619 H2623 0.985 . S
H2620 N2615 0.984 . S
H2621 N2615 0.985 . S
H2622 N2619 0.984 . S
H2623 N2619 0.985 . S
H2624 N2618 0.984 . S
H2625 N2618 0.984 . S
H2626 N2614 0.984 . S
H2627 N2614 0.985 . S
C2628 C2629 1.363 . S
C2628 C2634 1.379 . S
C2628 N2636 1.356 . S
C2629 C2628 1.363 . S
C2629 C2635 1.363 . S
C2630 C2631 1.363 . S
C2630 C2635 1.379 . S
C2630 N2637 1.356 . S
C2631 C2630 1.363 . S
C2631 C2634 1.363 . S
N2632 C2634 1.356 . S
N2632 H2644 0.984 . S
N2632 H2645 0.985 . S
N2633 C2635 1.356 . S
N2633 H2638 0.984 . S
N2633 H2639 0.985 . S
C2634 C2628 1.379 . S
C2634 C2631 1.363 . S
C2634 N2632 1.356 . S
C2635 C2629 1.363 . S
C2635 C2630 1.379 . S
C2635 N2633 1.356 . S
N2636 C2628 1.356 . S
N2636 H2642 0.984 . S
N2636 H2643 0.984 . S
N2637 C2630 1.356 . S
N2637 H2640 0.984 . S
N2637 H2641 0.985 . S
H2638 N2633 0.984 . S
H2639 N2633 0.985 . S
H2640 N2637 0.984 . S
H2641 N2637 0.985 . S
H2642 N2636 0.984 . S
H2643 N2636 0.984 . S
H2644 N2632 0.984 . S
H2645 N2632 0.985 . S
C2646 C2647 1.363 1_565 S
C2646 C2652 1.379 . S
C2646 N2654 1.356 . S
C2647 C2646 1.363 1_545 S
C2647 C2653 1.363 . S
C2648 C2649 1.363 1_545 S
C2648 C2653 1.379 . S
C2648 N2655 1.356 . S
C2649 C2648 1.363 1_565 S
C2649 C2652 1.363 . S
N2650 C2652 1.356 . S
N2650 H2662 0.984 . S
N2650 H2663 0.985 . S
N2651 C2653 1.356 . S
N2651 H2656 0.984 . S
N2651 H2657 0.985 . S
C2652 C2646 1.379 . S
C2652 C2649 1.363 . S
C2652 N2650 1.356 . S
C2653 C2647 1.363 . S
C2653 C2648 1.379 . S
C2653 N2651 1.356 . S
N2654 C2646 1.356 . S
N2654 H2660 0.984 . S
N2654 H2661 0.984 . S
N2655 C2648 1.356 . S
N2655 H2658 0.984 . S
N2655 H2659 0.985 . S
H2656 N2651 0.984 . S
H2657 N2651 0.985 . S
H2658 N2655 0.984 . S
H2659 N2655 0.985 . S
H2660 N2654 0.984 . S
H2661 N2654 0.984 . S
H2662 N2650 0.984 . S
H2663 N2650 0.985 . S
C2664 C2665 1.363 1_556 S
C2664 C2670 1.379 1_655 S
C2664 N2672 1.356 . S
C2665 C2664 1.363 1_554 S
C2665 C2671 1.363 . S
C2666 C2667 1.363 . S
C2666 C2671 1.379 1_455 S
C2666 N2673 1.356 . S
C2667 C2666 1.363 . S
C2667 C2670 1.363 1_554 S
N2668 C2670 1.356 . S
N2668 H2680 0.984 . S
N2668 H2681 0.985 . S
N2669 C2671 1.356 . S
N2669 H2674 0.984 . S
N2669 H2675 0.985 . S
C2670 C2664 1.379 1_455 S
C2670 C2667 1.363 1_556 S
C2670 N2668 1.356 . S
C2671 C2665 1.363 . S
C2671 C2666 1.379 1_655 S
C2671 N2669 1.356 . S
N2672 C2664 1.356 . S
N2672 H2678 0.984 . S
N2672 H2679 0.984 . S
N2673 C2666 1.356 . S
N2673 H2676 0.984 . S
N2673 H2677 0.985 . S
H2674 N2669 0.984 . S
H2675 N2669 0.985 . S
H2676 N2673 0.984 . S
H2677 N2673 0.985 . S
H2678 N2672 0.984 . S
H2679 N2672 0.984 . S
H2680 N2668 0.984 . S
H2681 N2668 0.985 . S
C2682 C2683 1.363 . S
C2682 C2688 1.379 1_655 S
C2682 N2690 1.356 . S
C2683 C2682 1.363 . S
C2683 C2689 1.363 . S
C2684 C2685 1.363 . S
C2684 C2689 1.379 1_455 S
C2684 N2691 1.356 . S
C2685 C2684 1.363 . S
C2685 C2688 1.363 . S
N2686 C2688 1.356 . S
N2686 H2698 0.984 . S
N2686 H2699 0.985 . S
N2687 C2689 1.356 . S
N2687 H2692 0.984 . S
N2687 H2693 0.985 . S
C2688 C2682 1.379 1_455 S
C2688 C2685 1.363 . S
C2688 N2686 1.356 . S
C2689 C2683 1.363 . S
C2689 C2684 1.379 1_655 S
C2689 N2687 1.356 . S
N2690 C2682 1.356 . S
N2690 H2696 0.984 . S
N2690 H2697 0.984 . S
N2691 C2684 1.356 . S
N2691 H2694 0.984 . S
N2691 H2695 0.985 . S
H2692 N2687 0.984 . S
H2693 N2687 0.985 . S
H2694 N2691 0.984 . S
H2695 N2691 0.985 . S
H2696 N2690 0.984 . S
H2697 N2690 0.984 . S
H2698 N2686 0.984 . S
H2699 N2686 0.985 . S
C2700 C2701 1.363 . S
C2700 C2706 1.379 . S
C2700 N2708 1.356 . S
C2701 C2700 1.363 . S
C2701 C2707 1.363 1_455 S
C2702 C2703 1.363 . S
C2702 C2707 1.379 . S
C2702 N2709 1.356 . S
C2703 C2702 1.363 . S
C2703 C2706 1.363 1_655 S
N2704 C2706 1.356 . S
N2704 H2716 0.984 . S
N2704 H2717 0.973 1_455 S
N2705 C2707 1.356 . S
N2705 H2710 0.968 1_655 S
N2705 H2711 0.985 . S
C2706 C2700 1.379 . S
C2706 C2703 1.363 1_455 S
C2706 N2704 1.356 . S
C2707 C2701 1.363 1_655 S
C2707 C2702 1.379 . S
C2707 N2705 1.356 . S
N2708 C2700 1.356 . S
N2708 H2714 0.984 . S
N2708 H2715 0.984 . S
N2709 C2702 1.356 . S
N2709 H2712 0.984 . S
N2709 H2713 0.985 . S
H2710 N2705 0.968 1_455 S
H2711 N2705 0.985 . S
H2712 N2709 0.984 . S
H2713 N2709 0.985 . S
H2714 N2708 0.984 . S
H2715 N2708 0.984 . S
H2716 N2704 0.984 . S
H2717 N2704 0.973 1_655 S
C2718 C2719 1.363 . S
C2718 C2724 1.379 . S
C2718 N2726 1.356 . S
C2719 C2718 1.363 . S
C2719 C2725 1.363 . S
C2720 C2721 1.363 . S
C2720 C2725 1.379 . S
C2720 N2727 1.356 . S
C2721 C2720 1.363 . S
C2721 C2724 1.363 . S
N2722 C2724 1.356 . S
N2722 H2734 0.984 . S
N2722 H2735 0.985 . S
N2723 C2725 1.356 . S
N2723 H2728 0.984 . S
N2723 H2729 0.985 . S
C2724 C2718 1.379 . S
C2724 C2721 1.363 . S
C2724 N2722 1.356 . S
C2725 C2719 1.363 . S
C2725 C2720 1.379 . S
C2725 N2723 1.356 . S
N2726 C2718 1.356 . S
N2726 H2732 0.984 . S
N2726 H2733 0.984 . S
N2727 C2720 1.356 . S
N2727 H2730 0.984 . S
N2727 H2731 0.985 . S
H2728 N2723 0.984 . S
H2729 N2723 0.985 . S
H2730 N2727 0.984 . S
H2731 N2727 0.985 . S
H2732 N2726 0.984 . S
H2733 N2726 0.984 . S
H2734 N2722 0.984 . S
H2735 N2722 0.985 . S
C2736 C2737 1.363 . S
C2736 C2742 1.379 . S
C2736 N2744 1.356 . S
C2737 C2736 1.363 . S
C2737 C2743 1.363 . S
C2738 C2739 1.363 . S
C2738 C2743 1.379 . S
C2738 N2745 1.356 . S
C2739 C2738 1.363 . S
C2739 C2742 1.363 . S
N2740 C2742 1.356 . S
N2740 H2752 0.984 . S
N2740 H2753 0.985 . S
N2741 C2743 1.356 . S
N2741 H2746 0.984 . S
N2741 H2747 0.985 . S
C2742 C2736 1.379 . S
C2742 C2739 1.363 . S
C2742 N2740 1.356 . S
C2743 C2737 1.363 . S
C2743 C2738 1.379 . S
C2743 N2741 1.356 . S
N2744 C2736 1.356 . S
N2744 H2750 0.984 . S
N2744 H2751 0.984 . S
N2745 C2738 1.356 . S
N2745 H2748 0.984 . S
N2745 H2749 0.985 . S
H2746 N2741 0.984 . S
H2747 N2741 0.985 . S
H2748 N2745 0.984 . S
H2749 N2745 0.985 . S
H2750 N2744 0.984 . S
H2751 N2744 0.984 . S
H2752 N2740 0.984 . S
H2753 N2740 0.985 . S
C2754 C2755 1.363 . S
C2754 C2760 1.379 . S
C2754 N2762 1.356 . S
C2755 C2754 1.363 . S
C2755 C2761 1.363 1_655 S
C2756 C2757 1.363 . S
C2756 C2761 1.379 . S
C2756 N2763 1.356 . S
C2757 C2756 1.363 . S
C2757 C2760 1.363 1_455 S
N2758 C2760 1.356 . S
N2758 H2770 0.984 . S
N2758 H2771 0.968 1_655 S
N2759 C2761 1.356 . S
N2759 H2764 0.973 1_455 S
N2759 H2765 0.985 . S
C2760 C2754 1.379 . S
C2760 C2757 1.363 1_655 S
C2760 N2758 1.356 . S
C2761 C2755 1.363 1_455 S
C2761 C2756 1.379 . S
C2761 N2759 1.356 . S
N2762 C2754 1.356 . S
N2762 H2768 0.984 . S
N2762 H2769 0.984 . S
N2763 C2756 1.356 . S
N2763 H2766 0.984 . S
N2763 H2767 0.985 . S
H2764 N2759 0.973 1_655 S
H2765 N2759 0.985 . S
H2766 N2763 0.984 . S
H2767 N2763 0.985 . S
H2768 N2762 0.984 . S
H2769 N2762 0.984 . S
H2770 N2758 0.984 . S
H2771 N2758 0.968 1_455 S
C2772 C2773 1.363 . S
C2772 C2778 1.379 . S
C2772 N2780 1.356 . S
C2773 C2772 1.363 . S
C2773 C2779 1.363 . S
C2774 C2775 1.363 . S
C2774 C2779 1.379 . S
C2774 N2781 1.356 . S
C2775 C2774 1.363 . S
C2775 C2778 1.363 . S
N2776 C2778 1.356 . S
N2776 H2788 0.984 . S
N2776 H2789 0.985 . S
N2777 C2779 1.356 . S
N2777 H2782 0.984 . S
N2777 H2783 0.985 . S
C2778 C2772 1.379 . S
C2778 C2775 1.363 . S
C2778 N2776 1.356 . S
C2779 C2773 1.363 . S
C2779 C2774 1.379 . S
C2779 N2777 1.356 . S
N2780 C2772 1.356 . S
N2780 H2786 0.984 . S
N2780 H2787 0.984 . S
N2781 C2774 1.356 . S
N2781 H2784 0.984 . S
N2781 H2785 0.985 . S
H2782 N2777 0.984 . S
H2783 N2777 0.985 . S
H2784 N2781 0.984 . S
H2785 N2781 0.985 . S
H2786 N2780 0.984 . S
H2787 N2780 0.984 . S
H2788 N2776 0.984 . S
H2789 N2776 0.985 . S
C2790 C2791 1.363 . S
C2790 C2796 1.379 . S
C2790 N2798 1.356 . S
C2791 C2790 1.363 . S
C2791 C2797 1.363 . S
C2792 C2793 1.363 . S
C2792 C2797 1.379 . S
C2792 N2799 1.356 . S
C2793 C2792 1.363 . S
C2793 C2796 1.363 . S
N2794 C2796 1.356 . S
N2794 H2806 0.984 . S
N2794 H2807 0.985 . S
N2795 C2797 1.356 . S
N2795 H2800 0.984 . S
N2795 H2801 0.985 . S
C2796 C2790 1.379 . S
C2796 C2793 1.363 . S
C2796 N2794 1.356 . S
C2797 C2791 1.363 . S
C2797 C2792 1.379 . S
C2797 N2795 1.356 . S
N2798 C2790 1.356 . S
N2798 H2804 0.984 . S
N2798 H2805 0.984 . S
N2799 C2792 1.356 . S
N2799 H2802 0.984 . S
N2799 H2803 0.985 . S
H2800 N2795 0.984 . S
H2801 N2795 0.985 . S
H2802 N2799 0.984 . S
H2803 N2799 0.985 . S
H2804 N2798 0.984 . S
H2805 N2798 0.984 . S
H2806 N2794 0.984 . S
H2807 N2794 0.985 . S
C2808 C2809 1.363 . S
C2808 C2814 1.379 1_565 S
C2808 N2816 1.356 . S
C2809 C2808 1.363 . S
C2809 C2815 1.363 . S
C2810 C2811 1.363 . S
C2810 C2815 1.379 1_545 S
C2810 N2817 1.356 . S
C2811 C2810 1.363 . S
C2811 C2814 1.363 . S
N2812 C2814 1.356 . S
N2812 H2824 0.984 . S
N2812 H2825 0.985 . S
N2813 C2815 1.356 . S
N2813 H2818 0.984 . S
N2813 H2819 0.985 . S
C2814 C2808 1.379 1_545 S
C2814 C2811 1.363 . S
C2814 N2812 1.356 . S
C2815 C2809 1.363 . S
C2815 C2810 1.379 1_565 S
C2815 N2813 1.356 . S
N2816 C2808 1.356 . S
N2816 H2822 0.984 . S
N2816 H2823 0.984 . S
N2817 C2810 1.356 . S
N2817 H2820 0.984 . S
N2817 H2821 0.985 . S
H2818 N2813 0.984 . S
H2819 N2813 0.985 . S
H2820 N2817 0.984 . S
H2821 N2817 0.985 . S
H2822 N2816 0.984 . S
H2823 N2816 0.984 . S
H2824 N2812 0.984 . S
H2825 N2812 0.985 . S
C2826 C2827 1.363 . S
C2826 C2832 1.379 . S
C2826 N2834 1.356 . S
C2827 C2826 1.363 . S
C2827 C2833 1.363 . S
C2828 C2829 1.363 . S
C2828 C2833 1.379 . S
C2828 N2835 1.356 . S
C2829 C2828 1.363 . S
C2829 C2832 1.363 . S
N2830 C2832 1.356 . S
N2830 H2842 0.984 . S
N2830 H2843 0.985 . S
N2831 C2833 1.356 . S
N2831 H2836 0.984 . S
N2831 H2837 0.985 . S
C2832 C2826 1.379 . S
C2832 C2829 1.363 . S
C2832 N2830 1.356 . S
C2833 C2827 1.363 . S
C2833 C2828 1.379 . S
C2833 N2831 1.356 . S
N2834 C2826 1.356 . S
N2834 H2840 0.984 . S
N2834 H2841 0.984 . S
N2835 C2828 1.356 . S
N2835 H2838 0.984 . S
N2835 H2839 0.985 . S
H2836 N2831 0.984 . S
H2837 N2831 0.985 . S
H2838 N2835 0.984 . S
H2839 N2835 0.985 . S
H2840 N2834 0.984 . S
H2841 N2834 0.984 . S
H2842 N2830 0.984 . S
H2843 N2830 0.985 . S
C2844 C2845 1.363 . S
C2844 C2850 1.379 . S
C2844 N2852 1.356 . S
C2845 C2844 1.363 . S
C2845 C2851 1.363 1_556 S
C2846 C2847 1.363 1_554 S
C2846 C2851 1.379 . S
C2846 N2853 1.356 . S
C2847 C2846 1.363 1_556 S
C2847 C2850 1.363 . S
N2848 C2850 1.356 . S
N2848 H2860 0.984 . S
N2848 H2861 0.985 . S
N2849 C2851 1.356 . S
N2849 H2854 0.984 . S
N2849 H2855 0.985 . S
C2850 C2844 1.379 . S
C2850 C2847 1.363 . S
C2850 N2848 1.356 . S
C2851 C2845 1.363 1_554 S
C2851 C2846 1.379 . S
C2851 N2849 1.356 . S
N2852 C2844 1.356 . S
N2852 H2858 0.984 . S
N2852 H2859 0.984 . S
N2853 C2846 1.356 . S
N2853 H2856 0.984 . S
N2853 H2857 0.985 . S
H2854 N2849 0.984 . S
H2855 N2849 0.985 . S
H2856 N2853 0.984 . S
H2857 N2853 0.985 . S
H2858 N2852 0.984 . S
H2859 N2852 0.984 . S
H2860 N2848 0.984 . S
H2861 N2848 0.985 . S
C2862 C2863 1.363 . S
C2862 C2868 1.379 . S
C2862 N2870 1.356 . S
C2863 C2862 1.363 . S
C2863 C2869 1.363 . S
C2864 C2865 1.363 . S
C2864 C2869 1.379 . S
C2864 N2871 1.356 . S
C2865 C2864 1.363 . S
C2865 C2868 1.363 . S
N2866 C2868 1.356 . S
N2866 H2878 0.984 . S
N2866 H2879 0.985 . S
N2867 C2869 1.356 . S
N2867 H2872 0.984 . S
N2867 H2873 0.985 . S
C2868 C2862 1.379 . S
C2868 C2865 1.363 . S
C2868 N2866 1.356 . S
C2869 C2863 1.363 . S
C2869 C2864 1.379 . S
C2869 N2867 1.356 . S
N2870 C2862 1.356 . S
N2870 H2876 0.984 . S
N2870 H2877 0.984 . S
N2871 C2864 1.356 . S
N2871 H2874 0.984 . S
N2871 H2875 0.985 . S
H2872 N2867 0.984 . S
H2873 N2867 0.985 . S
H2874 N2871 0.984 . S
H2875 N2871 0.985 . S
H2876 N2870 0.984 . S
H2877 N2870 0.984 . S
H2878 N2866 0.984 . S
H2879 N2866 0.985 . S
C2880 C2881 1.363 . S
C2880 C2886 1.379 . S
C2880 N2888 1.356 . S
C2881 C2880 1.363 . S
C2881 C2887 1.363 . S
C2882 C2883 1.363 . S
C2882 C2887 1.379 . S
C2882 N2889 1.356 . S
C2883 C2882 1.363 . S
C2883 C2886 1.363 . S
N2884 C2886 1.356 . S
N2884 H2896 0.984 . S
N2884 H2897 0.985 . S
N2885 C2887 1.356 . S
N2885 H2890 0.984 . S
N2885 H2891 0.985 . S
C2886 C2880 1.379 . S
C2886 C2883 1.363 . S
C2886 N2884 1.356 . S
C2887 C2881 1.363 . S
C2887 C2882 1.379 . S
C2887 N2885 1.356 . S
N2888 C2880 1.356 . S
N2888 H2894 0.984 . S
N2888 H2895 0.984 . S
N2889 C2882 1.356 . S
N2889 H2892 0.984 . S
N2889 H2893 0.985 . S
H2890 N2885 0.984 . S
H2891 N2885 0.985 . S
H2892 N2889 0.984 . S
H2893 N2889 0.985 . S
H2894 N2888 0.984 . S
H2895 N2888 0.984 . S
H2896 N2884 0.984 . S
H2897 N2884 0.985 . S
C2898 C2899 1.363 . S
C2898 C2904 1.379 . S
C2898 N2906 1.356 . S
C2899 C2898 1.363 . S
C2899 C2905 1.363 . S
C2900 C2901 1.363 . S
C2900 C2905 1.379 . S
C2900 N2907 1.356 . S
C2901 C2900 1.363 . S
C2901 C2904 1.363 . S
N2902 C2904 1.356 . S
N2902 H2914 0.984 . S
N2902 H2915 0.985 . S
N2903 C2905 1.356 . S
N2903 H2908 0.984 . S
N2903 H2909 0.985 . S
C2904 C2898 1.379 . S
C2904 C2901 1.363 . S
C2904 N2902 1.356 . S
C2905 C2899 1.363 . S
C2905 C2900 1.379 . S
C2905 N2903 1.356 . S
N2906 C2898 1.356 . S
N2906 H2912 0.984 . S
N2906 H2913 0.984 . S
N2907 C2900 1.356 . S
N2907 H2910 0.984 . S
N2907 H2911 0.985 . S
H2908 N2903 0.984 . S
H2909 N2903 0.985 . S
H2910 N2907 0.984 . S
H2911 N2907 0.985 . S
H2912 N2906 0.984 . S
H2913 N2906 0.984 . S
H2914 N2902 0.984 . S
H2915 N2902 0.985 . S
C2916 C2917 1.363 . S
C2916 C2922 1.379 . S
C2916 N2924 1.356 . S
C2917 C2916 1.363 . S
C2917 C2923 1.363 . S
C2918 C2919 1.363 . S
C2918 C2923 1.379 . S
C2918 N2925 1.356 . S
C2919 C2918 1.363 . S
C2919 C2922 1.363 . S
N2920 C2922 1.356 . S
N2920 H2932 0.984 . S
N2920 H2933 0.985 . S
N2921 C2923 1.356 . S
N2921 H2926 0.984 . S
N2921 H2927 0.985 . S
C2922 C2916 1.379 . S
C2922 C2919 1.363 . S
C2922 N2920 1.356 . S
C2923 C2917 1.363 . S
C2923 C2918 1.379 . S
C2923 N2921 1.356 . S
N2924 C2916 1.356 . S
N2924 H2930 0.984 . S
N2924 H2931 0.984 . S
N2925 C2918 1.356 . S
N2925 H2928 0.984 . S
N2925 H2929 0.985 . S
H2926 N2921 0.984 . S
H2927 N2921 0.985 . S
H2928 N2925 0.984 . S
H2929 N2925 0.985 . S
H2930 N2924 0.984 . S
H2931 N2924 0.984 . S
H2932 N2920 0.984 . S
H2933 N2920 0.985 . S
C2934 C2935 1.363 . S
C2934 C2940 1.379 . S
C2934 N2942 1.356 . S
C2935 C2934 1.363 . S
C2935 C2941 1.363 . S
C2936 C2937 1.363 . S
C2936 C2941 1.379 . S
C2936 N2943 1.356 . S
C2937 C2936 1.363 . S
C2937 C2940 1.363 . S
N2938 C2940 1.356 . S
N2938 H2950 0.984 . S
N2938 H2951 0.985 . S
N2939 C2941 1.356 . S
N2939 H2944 0.984 . S
N2939 H2945 0.985 . S
C2940 C2934 1.379 . S
C2940 C2937 1.363 . S
C2940 N2938 1.356 . S
C2941 C2935 1.363 . S
C2941 C2936 1.379 . S
C2941 N2939 1.356 . S
N2942 C2934 1.356 . S
N2942 H2948 0.984 . S
N2942 H2949 0.984 . S
N2943 C2936 1.356 . S
N2943 H2946 0.984 . S
N2943 H2947 0.985 . S
H2944 N2939 0.984 . S
H2945 N2939 0.985 . S
H2946 N2943 0.984 . S
H2947 N2943 0.985 . S
H2948 N2942 0.984 . S
H2949 N2942 0.984 . S
H2950 N2938 0.984 . S
H2951 N2938 0.985 . S
C2952 C2953 1.363 . S
C2952 C2958 1.379 . S
C2952 N2960 1.356 . S
C2953 C2952 1.363 . S
C2953 C2959 1.363 . S
C2954 C2955 1.363 . S
C2954 C2959 1.379 . S
C2954 N2961 1.356 . S
C2955 C2954 1.363 . S
C2955 C2958 1.363 . S
N2956 C2958 1.356 . S
N2956 H2968 0.984 . S
N2956 H2969 0.985 . S
N2957 C2959 1.356 . S
N2957 H2962 0.984 . S
N2957 H2963 0.985 . S
C2958 C2952 1.379 . S
C2958 C2955 1.363 . S
C2958 N2956 1.356 . S
C2959 C2953 1.363 . S
C2959 C2954 1.379 . S
C2959 N2957 1.356 . S
N2960 C2952 1.356 . S
N2960 H2966 0.984 . S
N2960 H2967 0.984 . S
N2961 C2954 1.356 . S
N2961 H2964 0.984 . S
N2961 H2965 0.985 . S
H2962 N2957 0.984 . S
H2963 N2957 0.985 . S
H2964 N2961 0.984 . S
H2965 N2961 0.985 . S
H2966 N2960 0.984 . S
H2967 N2960 0.984 . S
H2968 N2956 0.984 . S
H2969 N2956 0.985 . S
C2970 C2971 1.363 . S
C2970 C2976 1.379 . S
C2970 N2978 1.356 . S
C2971 C2970 1.363 . S
C2971 C2977 1.363 . S
C2972 C2973 1.363 . S
C2972 C2977 1.379 . S
C2972 N2979 1.356 . S
C2973 C2972 1.363 . S
C2973 C2976 1.363 . S
N2974 C2976 1.356 . S
N2974 H2986 0.984 . S
N2974 H2987 0.985 . S
N2975 C2977 1.356 . S
N2975 H2980 0.984 . S
N2975 H2981 0.985 . S
C2976 C2970 1.379 . S
C2976 C2973 1.363 . S
C2976 N2974 1.356 . S
C2977 C2971 1.363 . S
C2977 C2972 1.379 . S
C2977 N2975 1.356 . S
N2978 C2970 1.356 . S
N2978 H2984 0.984 . S
N2978 H2985 0.984 . S
N2979 C2972 1.356 . S
N2979 H2982 0.984 . S
N2979 H2983 0.985 . S
H2980 N2975 0.984 . S
H2981 N2975 0.985 . S
H2982 N2979 0.984 . S
H2983 N2979 0.985 . S
H2984 N2978 0.984 . S
H2985 N2978 0.984 . S
H2986 N2974 0.984 . S
H2987 N2974 0.985 . S
C2988 C2989 1.363 . S
C2988 C2994 1.379 . S
C2988 N2996 1.356 . S
C2989 C2988 1.363 . S
C2989 C2995 1.363 . S
C2990 C2991 1.363 . S
C2990 C2995 1.379 . S
C2990 N2997 1.356 . S
C2991 C2990 1.363 . S
C2991 C2994 1.363 . S
N2992 C2994 1.356 . S
N2992 H3004 0.984 . S
N2992 H3005 0.985 . S
N2993 C2995 1.356 . S
N2993 H2998 0.984 . S
N2993 H2999 0.985 . S
C2994 C2988 1.379 . S
C2994 C2991 1.363 . S
C2994 N2992 1.356 . S
C2995 C2989 1.363 . S
C2995 C2990 1.379 . S
C2995 N2993 1.356 . S
N2996 C2988 1.356 . S
N2996 H3002 0.984 . S
N2996 H3003 0.984 . S
N2997 C2990 1.356 . S
N2997 H3000 0.984 . S
N2997 H3001 0.985 . S
H2998 N2993 0.984 . S
H2999 N2993 0.985 . S
H3000 N2997 0.984 . S
H3001 N2997 0.985 . S
H3002 N2996 0.984 . S
H3003 N2996 0.984 . S
H3004 N2992 0.984 . S
H3005 N2992 0.985 . S
C3006 C3007 1.363 . S
C3006 C3012 1.379 . S
C3006 N3014 1.356 . S
C3007 C3006 1.363 . S
C3007 C3013 1.363 . S
C3008 C3009 1.363 . S
C3008 C3013 1.379 . S
C3008 N3015 1.356 . S
C3009 C3008 1.363 . S
C3009 C3012 1.363 . S
N3010 C3012 1.356 . S
N3010 H3022 0.984 . S
N3010 H3023 0.985 . S
N3011 C3013 1.356 . S
N3011 H3016 0.984 . S
N3011 H3017 0.985 . S
C3012 C3006 1.379 . S
C3012 C3009 1.363 . S
C3012 N3010 1.356 . S
C3013 C3007 1.363 . S
C3013 C3008 1.379 . S
C3013 N3011 1.356 . S
N3014 C3006 1.356 . S
N3014 H3020 0.984 . S
N3014 H3021 0.984 . S
N3015 C3008 1.356 . S
N3015 H3018 0.984 . S
N3015 H3019 0.985 . S
H3016 N3011 0.984 . S
H3017 N3011 0.985 . S
H3018 N3015 0.984 . S
H3019 N3015 0.985 . S
H3020 N3014 0.984 . S
H3021 N3014 0.984 . S
H3022 N3010 0.984 . S
H3023 N3010 0.985 . S
C3024 C3025 1.363 . S
C3024 C3030 1.379 . S
C3024 N3032 1.356 . S
C3025 C3024 1.363 . S
C3025 C3031 1.363 . S
C3026 C3027 1.363 . S
C3026 C3031 1.379 . S
C3026 N3033 1.356 . S
C3027 C3026 1.363 . S
C3027 C3030 1.363 . S
N3028 C3030 1.356 . S
N3028 H3040 0.984 . S
N3028 H3041 0.985 . S
N3029 C3031 1.356 . S
N3029 H3034 0.984 . S
N3029 H3035 0.985 . S
C3030 C3024 1.379 . S
C3030 C3027 1.363 . S
C3030 N3028 1.356 . S
C3031 C3025 1.363 . S
C3031 C3026 1.379 . S
C3031 N3029 1.356 . S
N3032 C3024 1.356 . S
N3032 H3038 0.984 . S
N3032 H3039 0.984 . S
N3033 C3026 1.356 . S
N3033 H3036 0.984 . S
N3033 H3037 0.985 . S
H3034 N3029 0.984 . S
H3035 N3029 0.985 . S
H3036 N3033 0.984 . S
H3037 N3033 0.985 . S
H3038 N3032 0.984 . S
H3039 N3032 0.984 . S
H3040 N3028 0.984 . S
H3041 N3028 0.985 . S
C3042 C3043 1.363 . S
C3042 C3048 1.379 . S
C3042 N3050 1.356 . S
C3043 C3042 1.363 . S
C3043 C3049 1.363 . S
C3044 C3045 1.363 . S
C3044 C3049 1.379 . S
C3044 N3051 1.356 . S
C3045 C3044 1.363 . S
C3045 C3048 1.363 . S
N3046 C3048 1.356 . S
N3046 H3058 0.984 . S
N3046 H3059 0.985 . S
N3047 C3049 1.356 . S
N3047 H3052 0.984 . S
N3047 H3053 0.985 . S
C3048 C3042 1.379 . S
C3048 C3045 1.363 . S
C3048 N3046 1.356 . S
C3049 C3043 1.363 . S
C3049 C3044 1.379 . S
C3049 N3047 1.356 . S
N3050 C3042 1.356 . S
N3050 H3056 0.984 . S
N3050 H3057 0.984 . S
N3051 C3044 1.356 . S
N3051 H3054 0.984 . S
N3051 H3055 0.985 . S
H3052 N3047 0.984 . S
H3053 N3047 0.985 . S
H3054 N3051 0.984 . S
H3055 N3051 0.985 . S
H3056 N3050 0.984 . S
H3057 N3050 0.984 . S
H3058 N3046 0.984 . S
H3059 N3046 0.985 . S
C3060 C3061 1.363 . S
C3060 C3066 1.379 . S
C3060 N3068 1.356 . S
C3061 C3060 1.363 . S
C3061 C3067 1.363 . S
C3062 C3063 1.363 . S
C3062 C3067 1.379 . S
C3062 N3069 1.356 . S
C3063 C3062 1.363 . S
C3063 C3066 1.363 . S
N3064 C3066 1.356 . S
N3064 H3076 0.984 . S
N3064 H3077 0.985 . S
N3065 C3067 1.356 . S
N3065 H3070 0.984 . S
N3065 H3071 0.985 . S
C3066 C3060 1.379 . S
C3066 C3063 1.363 . S
C3066 N3064 1.356 . S
C3067 C3061 1.363 . S
C3067 C3062 1.379 . S
C3067 N3065 1.356 . S
N3068 C3060 1.356 . S
N3068 H3074 0.984 . S
N3068 H3075 0.984 . S
N3069 C3062 1.356 . S
N3069 H3072 0.984 . S
N3069 H3073 0.985 . S
H3070 N3065 0.984 . S
H3071 N3065 0.985 . S
H3072 N3069 0.984 . S
H3073 N3069 0.985 . S
H3074 N3068 0.984 . S
H3075 N3068 0.984 . S
H3076 N3064 0.984 . S
H3077 N3064 0.985 . S
C3078 C3079 1.363 . S
C3078 C3084 1.379 . S
C3078 N3086 1.356 . S
C3079 C3078 1.363 . S
C3079 C3085 1.363 . S
C3080 C3081 1.363 . S
C3080 C3085 1.379 . S
C3080 N3087 1.356 . S
C3081 C3080 1.363 . S
C3081 C3084 1.363 . S
N3082 C3084 1.356 . S
N3082 H3094 0.984 . S
N3082 H3095 0.985 . S
N3083 C3085 1.356 . S
N3083 H3088 0.984 . S
N3083 H3089 0.985 . S
C3084 C3078 1.379 . S
C3084 C3081 1.363 . S
C3084 N3082 1.356 . S
C3085 C3079 1.363 . S
C3085 C3080 1.379 . S
C3085 N3083 1.356 . S
N3086 C3078 1.356 . S
N3086 H3092 0.984 . S
N3086 H3093 0.984 . S
N3087 C3080 1.356 . S
N3087 H3090 0.984 . S
N3087 H3091 0.985 . S
H3088 N3083 0.984 . S
H3089 N3083 0.985 . S
H3090 N3087 0.984 . S
H3091 N3087 0.985 . S
H3092 N3086 0.984 . S
H3093 N3086 0.984 . S
H3094 N3082 0.984 . S
H3095 N3082 0.985 . S
C3096 C3097 1.363 . S
C3096 C3102 1.379 . S
C3096 N3104 1.356 . S
C3097 C3096 1.363 . S
C3097 C3103 1.363 . S
C3098 C3099 1.363 . S
C3098 C3103 1.379 . S
C3098 N3105 1.356 . S
C3099 C3098 1.363 . S
C3099 C3102 1.363 . S
N3100 C3102 1.356 . S
N3100 H3112 0.984 . S
N3100 H3113 0.985 . S
N3101 C3103 1.356 . S
N3101 H3106 0.984 . S
N3101 H3107 0.985 . S
C3102 C3096 1.379 . S
C3102 C3099 1.363 . S
C3102 N3100 1.356 . S
C3103 C3097 1.363 . S
C3103 C3098 1.379 . S
C3103 N3101 1.356 . S
N3104 C3096 1.356 . S
N3104 H3110 0.984 . S
N3104 H3111 0.984 . S
N3105 C3098 1.356 . S
N3105 H3108 0.984 . S
N3105 H3109 0.985 . S
H3106 N3101 0.984 . S
H3107 N3101 0.985 . S
H3108 N3105 0.984 . S
H3109 N3105 0.985 . S
H3110 N3104 0.984 . S
H3111 N3104 0.984 . S
H3112 N3100 0.984 . S
H3113 N3100 0.985 . S
C3114 C3115 1.363 . S
C3114 C3120 1.379 . S
C3114 N3122 1.356 . S
C3115 C3114 1.363 . S
C3115 C3121 1.363 . S
C3116 C3117 1.363 . S
C3116 C3121 1.379 . S
C3116 N3123 1.356 . S
C3117 C3116 1.363 . S
C3117 C3120 1.363 . S
N3118 C3120 1.356 . S
N3118 H3130 0.984 . S
N3118 H3131 0.985 . S
N3119 C3121 1.356 . S
N3119 H3124 0.984 . S
N3119 H3125 0.985 . S
C3120 C3114 1.379 . S
C3120 C3117 1.363 . S
C3120 N3118 1.356 . S
C3121 C3115 1.363 . S
C3121 C3116 1.379 . S
C3121 N3119 1.356 . S
N3122 C3114 1.356 . S
N3122 H3128 0.984 . S
N3122 H3129 0.984 . S
N3123 C3116 1.356 . S
N3123 H3126 0.984 . S
N3123 H3127 0.985 . S
H3124 N3119 0.984 . S
H3125 N3119 0.985 . S
H3126 N3123 0.984 . S
H3127 N3123 0.985 . S
H3128 N3122 0.984 . S
H3129 N3122 0.984 . S
H3130 N3118 0.984 . S
H3131 N3118 0.985 . S
C3132 C3133 1.363 . S
C3132 C3138 1.379 . S
C3132 N3140 1.356 . S
C3133 C3132 1.363 . S
C3133 C3139 1.363 . S
C3134 C3135 1.363 . S
C3134 C3139 1.379 . S
C3134 N3141 1.356 . S
C3135 C3134 1.363 . S
C3135 C3138 1.363 . S
N3136 C3138 1.356 . S
N3136 H3148 0.984 . S
N3136 H3149 0.985 . S
N3137 C3139 1.356 . S
N3137 H3142 0.984 . S
N3137 H3143 0.985 . S
C3138 C3132 1.379 . S
C3138 C3135 1.363 . S
C3138 N3136 1.356 . S
C3139 C3133 1.363 . S
C3139 C3134 1.379 . S
C3139 N3137 1.356 . S
N3140 C3132 1.356 . S
N3140 H3146 0.984 . S
N3140 H3147 0.984 . S
N3141 C3134 1.356 . S
N3141 H3144 0.984 . S
N3141 H3145 0.985 . S
H3142 N3137 0.984 . S
H3143 N3137 0.985 . S
H3144 N3141 0.984 . S
H3145 N3141 0.985 . S
H3146 N3140 0.984 . S
H3147 N3140 0.984 . S
H3148 N3136 0.984 . S
H3149 N3136 0.985 . S
C3150 C3151 1.363 . S
C3150 C3156 1.379 . S
C3150 N3158 1.356 . S
C3151 C3150 1.363 . S
C3151 C3157 1.363 . S
C3152 C3153 1.363 . S
C3152 C3157 1.379 . S
C3152 N3159 1.356 . S
C3153 C3152 1.363 . S
C3153 C3156 1.363 . S
N3154 C3156 1.356 . S
N3154 H3166 0.984 . S
N3154 H3167 0.985 . S
N3155 C3157 1.356 . S
N3155 H3160 0.984 . S
N3155 H3161 0.985 . S
C3156 C3150 1.379 . S
C3156 C3153 1.363 . S
C3156 N3154 1.356 . S
C3157 C3151 1.363 . S
C3157 C3152 1.379 . S
C3157 N3155 1.356 . S
N3158 C3150 1.356 . S
N3158 H3164 0.984 . S
N3158 H3165 0.984 . S
N3159 C3152 1.356 . S
N3159 H3162 0.984 . S
N3159 H3163 0.985 . S
H3160 N3155 0.984 . S
H3161 N3155 0.985 . S
H3162 N3159 0.984 . S
H3163 N3159 0.985 . S
H3164 N3158 0.984 . S
H3165 N3158 0.984 . S
H3166 N3154 0.984 . S
H3167 N3154 0.985 . S
C3168 C3169 1.363 . S
C3168 C3174 1.379 . S
C3168 N3176 1.356 . S
C3169 C3168 1.363 . S
C3169 C3175 1.363 . S
C3170 C3171 1.363 . S
C3170 C3175 1.379 . S
C3170 N3177 1.356 . S
C3171 C3170 1.363 . S
C3171 C3174 1.363 . S
N3172 C3174 1.356 . S
N3172 H3184 0.984 . S
N3172 H3185 0.985 . S
N3173 C3175 1.356 . S
N3173 H3178 0.984 . S
N3173 H3179 0.985 . S
C3174 C3168 1.379 . S
C3174 C3171 1.363 . S
C3174 N3172 1.356 . S
C3175 C3169 1.363 . S
C3175 C3170 1.379 . S
C3175 N3173 1.356 . S
N3176 C3168 1.356 . S
N3176 H3182 0.984 . S
N3176 H3183 0.984 . S
N3177 C3170 1.356 . S
N3177 H3180 0.984 . S
N3177 H3181 0.985 . S
H3178 N3173 0.984 . S
H3179 N3173 0.985 . S
H3180 N3177 0.984 . S
H3181 N3177 0.985 . S
H3182 N3176 0.984 . S
H3183 N3176 0.984 . S
H3184 N3172 0.984 . S
H3185 N3172 0.985 . S
C3186 C3187 1.363 . S
C3186 C3192 1.379 . S
C3186 N3194 1.356 . S
C3187 C3186 1.363 . S
C3187 C3193 1.363 . S
C3188 C3189 1.363 . S
C3188 C3193 1.379 . S
C3188 N3195 1.356 . S
C3189 C3188 1.363 . S
C3189 C3192 1.363 . S
N3190 C3192 1.356 . S
N3190 H3202 0.984 . S
N3190 H3203 0.985 . S
N3191 C3193 1.356 . S
N3191 H3196 0.984 . S
N3191 H3197 0.985 . S
C3192 C3186 1.379 . S
C3192 C3189 1.363 . S
C3192 N3190 1.356 . S
C3193 C3187 1.363 . S
C3193 C3188 1.379 . S
C3193 N3191 1.356 . S
N3194 C3186 1.356 . S
N3194 H3200 0.984 . S
N3194 H3201 0.984 . S
N3195 C3188 1.356 . S
N3195 H3198 0.984 . S
N3195 H3199 0.985 . S
H3196 N3191 0.984 . S
H3197 N3191 0.985 . S
H3198 N3195 0.984 . S
H3199 N3195 0.985 . S
H3200 N3194 0.984 . S
H3201 N3194 0.984 . S
H3202 N3190 0.984 . S
H3203 N3190 0.985 . S
C3204 C3205 1.363 . S
C3204 C3210 1.379 . S
C3204 N3212 1.356 . S
C3205 C3204 1.363 . S
C3205 C3211 1.363 . S
C3206 C3207 1.363 . S
C3206 C3211 1.379 . S
C3206 N3213 1.356 . S
C3207 C3206 1.363 . S
C3207 C3210 1.363 . S
N3208 C3210 1.356 . S
N3208 H3220 0.984 . S
N3208 H3221 0.985 . S
N3209 C3211 1.356 . S
N3209 H3214 0.984 . S
N3209 H3215 0.985 . S
C3210 C3204 1.379 . S
C3210 C3207 1.363 . S
C3210 N3208 1.356 . S
C3211 C3205 1.363 . S
C3211 C3206 1.379 . S
C3211 N3209 1.356 . S
N3212 C3204 1.356 . S
N3212 H3218 0.984 . S
N3212 H3219 0.984 . S
N3213 C3206 1.356 . S
N3213 H3216 0.984 . S
N3213 H3217 0.985 . S
H3214 N3209 0.984 . S
H3215 N3209 0.985 . S
H3216 N3213 0.984 . S
H3217 N3213 0.985 . S
H3218 N3212 0.984 . S
H3219 N3212 0.984 . S
H3220 N3208 0.984 . S
H3221 N3208 0.985 . S
C3222 C3223 1.363 . S
C3222 C3228 1.379 . S
C3222 N3230 1.356 . S
C3223 C3222 1.363 . S
C3223 C3229 1.363 . S
C3224 C3225 1.363 . S
C3224 C3229 1.379 . S
C3224 N3231 1.356 . S
C3225 C3224 1.363 . S
C3225 C3228 1.363 . S
N3226 C3228 1.356 . S
N3226 H3238 0.984 . S
N3226 H3239 0.985 . S
N3227 C3229 1.356 . S
N3227 H3232 0.984 . S
N3227 H3233 0.985 . S
C3228 C3222 1.379 . S
C3228 C3225 1.363 . S
C3228 N3226 1.356 . S
C3229 C3223 1.363 . S
C3229 C3224 1.379 . S
C3229 N3227 1.356 . S
N3230 C3222 1.356 . S
N3230 H3236 0.984 . S
N3230 H3237 0.984 . S
N3231 C3224 1.356 . S
N3231 H3234 0.984 . S
N3231 H3235 0.985 . S
H3232 N3227 0.984 . S
H3233 N3227 0.985 . S
H3234 N3231 0.984 . S
H3235 N3231 0.985 . S
H3236 N3230 0.984 . S
H3237 N3230 0.984 . S
H3238 N3226 0.984 . S
H3239 N3226 0.985 . S
C3240 C3241 1.363 . S
C3240 C3246 1.379 . S
C3240 N3248 1.356 . S
C3241 C3240 1.363 . S
C3241 C3247 1.363 . S
C3242 C3243 1.363 . S
C3242 C3247 1.379 . S
C3242 N3249 1.356 . S
C3243 C3242 1.363 . S
C3243 C3246 1.363 . S
N3244 C3246 1.356 . S
N3244 H3256 0.984 . S
N3244 H3257 0.985 . S
N3245 C3247 1.356 . S
N3245 H3250 0.984 . S
N3245 H3251 0.985 . S
C3246 C3240 1.379 . S
C3246 C3243 1.363 . S
C3246 N3244 1.356 . S
C3247 C3241 1.363 . S
C3247 C3242 1.379 . S
C3247 N3245 1.356 . S
N3248 C3240 1.356 . S
N3248 H3254 0.984 . S
N3248 H3255 0.984 . S
N3249 C3242 1.356 . S
N3249 H3252 0.984 . S
N3249 H3253 0.985 . S
H3250 N3245 0.984 . S
H3251 N3245 0.985 . S
H3252 N3249 0.984 . S
H3253 N3249 0.985 . S
H3254 N3248 0.984 . S
H3255 N3248 0.984 . S
H3256 N3244 0.984 . S
H3257 N3244 0.985 . S
C3258 C3259 1.363 . S
C3258 C3264 1.379 . S
C3258 N3266 1.356 . S
C3259 C3258 1.363 . S
C3259 C3265 1.363 . S
C3260 C3261 1.363 . S
C3260 C3265 1.379 . S
C3260 N3267 1.356 . S
C3261 C3260 1.363 . S
C3261 C3264 1.363 . S
N3262 C3264 1.356 . S
N3262 H3274 0.984 . S
N3262 H3275 0.985 . S
N3263 C3265 1.356 . S
N3263 H3268 0.984 . S
N3263 H3269 0.985 . S
C3264 C3258 1.379 . S
C3264 C3261 1.363 . S
C3264 N3262 1.356 . S
C3265 C3259 1.363 . S
C3265 C3260 1.379 . S
C3265 N3263 1.356 . S
N3266 C3258 1.356 . S
N3266 H3272 0.984 . S
N3266 H3273 0.984 . S
N3267 C3260 1.356 . S
N3267 H3270 0.984 . S
N3267 H3271 0.985 . S
H3268 N3263 0.984 . S
H3269 N3263 0.985 . S
H3270 N3267 0.984 . S
H3271 N3267 0.985 . S
H3272 N3266 0.984 . S
H3273 N3266 0.984 . S
H3274 N3262 0.984 . S
H3275 N3262 0.985 . S
C3276 C3277 1.363 . S
C3276 C3282 1.379 . S
C3276 N3284 1.356 . S
C3277 C3276 1.363 . S
C3277 C3283 1.363 . S
C3278 C3279 1.363 . S
C3278 C3283 1.379 . S
C3278 N3285 1.356 . S
C3279 C3278 1.363 . S
C3279 C3282 1.363 . S
N3280 C3282 1.356 . S
N3280 H3292 0.984 . S
N3280 H3293 0.985 . S
N3281 C3283 1.356 . S
N3281 H3286 0.984 . S
N3281 H3287 0.985 . S
C3282 C3276 1.379 . S
C3282 C3279 1.363 . S
C3282 N3280 1.356 . S
C3283 C3277 1.363 . S
C3283 C3278 1.379 . S
C3283 N3281 1.356 . S
N3284 C3276 1.356 . S
N3284 H3290 0.984 . S
N3284 H3291 0.984 . S
N3285 C3278 1.356 . S
N3285 H3288 0.984 . S
N3285 H3289 0.985 . S
H3286 N3281 0.984 . S
H3287 N3281 0.985 . S
H3288 N3285 0.984 . S
H3289 N3285 0.985 . S
H3290 N3284 0.984 . S
H3291 N3284 0.984 . S
H3292 N3280 0.984 . S
H3293 N3280 0.985 . S
C3294 C3295 1.363 . S
C3294 C3300 1.379 . S
C3294 N3302 1.356 . S
C3295 C3294 1.363 . S
C3295 C3301 1.363 . S
C3296 C3297 1.363 . S
C3296 C3301 1.379 . S
C3296 N3303 1.356 . S
C3297 C3296 1.363 . S
C3297 C3300 1.363 . S
N3298 C3300 1.356 . S
N3298 H3310 0.984 . S
N3298 H3311 0.985 . S
N3299 C3301 1.356 . S
N3299 H3304 0.984 . S
N3299 H3305 0.985 . S
C3300 C3294 1.379 . S
C3300 C3297 1.363 . S
C3300 N3298 1.356 . S
C3301 C3295 1.363 . S
C3301 C3296 1.379 . S
C3301 N3299 1.356 . S
N3302 C3294 1.356 . S
N3302 H3308 0.984 . S
N3302 H3309 0.984 . S
N3303 C3296 1.356 . S
N3303 H3306 0.984 . S
N3303 H3307 0.985 . S
H3304 N3299 0.984 . S
H3305 N3299 0.985 . S
H3306 N3303 0.984 . S
H3307 N3303 0.985 . S
H3308 N3302 0.984 . S
H3309 N3302 0.984 . S
H3310 N3298 0.984 . S
H3311 N3298 0.985 . S
C3312 C3313 1.363 . S
C3312 C3318 1.379 . S
C3312 N3320 1.356 . S
C3313 C3312 1.363 . S
C3313 C3319 1.363 . S
C3314 C3315 1.363 . S
C3314 C3319 1.379 . S
C3314 N3321 1.356 . S
C3315 C3314 1.363 . S
C3315 C3318 1.363 . S
N3316 C3318 1.356 . S
N3316 H3328 0.984 . S
N3316 H3329 0.985 . S
N3317 C3319 1.356 . S
N3317 H3322 0.984 . S
N3317 H3323 0.985 . S
C3318 C3312 1.379 . S
C3318 C3315 1.363 . S
C3318 N3316 1.356 . S
C3319 C3313 1.363 . S
C3319 C3314 1.379 . S
C3319 N3317 1.356 . S
N3320 C3312 1.356 . S
N3320 H3326 0.984 . S
N3320 H3327 0.984 . S
N3321 C3314 1.356 . S
N3321 H3324 0.984 . S
N3321 H3325 0.985 . S
H3322 N3317 0.984 . S
H3323 N3317 0.985 . S
H3324 N3321 0.984 . S
H3325 N3321 0.985 . S
H3326 N3320 0.984 . S
H3327 N3320 0.984 . S
H3328 N3316 0.984 . S
H3329 N3316 0.985 . S
C3330 C3331 1.363 . S
C3330 C3336 1.379 . S
C3330 N3338 1.356 . S
C3331 C3330 1.363 . S
C3331 C3337 1.363 . S
C3332 C3333 1.363 . S
C3332 C3337 1.379 . S
C3332 N3339 1.356 . S
C3333 C3332 1.363 . S
C3333 C3336 1.363 . S
N3334 C3336 1.356 . S
N3334 H3346 0.984 . S
N3334 H3347 0.985 . S
N3335 C3337 1.356 . S
N3335 H3340 0.984 . S
N3335 H3341 0.985 . S
C3336 C3330 1.379 . S
C3336 C3333 1.363 . S
C3336 N3334 1.356 . S
C3337 C3331 1.363 . S
C3337 C3332 1.379 . S
C3337 N3335 1.356 . S
N3338 C3330 1.356 . S
N3338 H3344 0.984 . S
N3338 H3345 0.984 . S
N3339 C3332 1.356 . S
N3339 H3342 0.984 . S
N3339 H3343 0.985 . S
H3340 N3335 0.984 . S
H3341 N3335 0.985 . S
H3342 N3339 0.984 . S
H3343 N3339 0.985 . S
H3344 N3338 0.984 . S
H3345 N3338 0.984 . S
H3346 N3334 0.984 . S
H3347 N3334 0.985 . S
C3348 C3349 1.363 . S
C3348 C3354 1.379 . S
C3348 N3356 1.356 . S
C3349 C3348 1.363 . S
C3349 C3355 1.363 . S
C3350 C3351 1.363 . S
C3350 C3355 1.379 . S
C3350 N3357 1.356 . S
C3351 C3350 1.363 . S
C3351 C3354 1.363 . S
N3352 C3354 1.356 . S
N3352 H3364 0.984 . S
N3352 H3365 0.985 . S
N3353 C3355 1.356 . S
N3353 H3358 0.984 . S
N3353 H3359 0.985 . S
C3354 C3348 1.379 . S
C3354 C3351 1.363 . S
C3354 N3352 1.356 . S
C3355 C3349 1.363 . S
C3355 C3350 1.379 . S
C3355 N3353 1.356 . S
N3356 C3348 1.356 . S
N3356 H3362 0.984 . S
N3356 H3363 0.984 . S
N3357 C3350 1.356 . S
N3357 H3360 0.984 . S
N3357 H3361 0.985 . S
H3358 N3353 0.984 . S
H3359 N3353 0.985 . S
H3360 N3357 0.984 . S
H3361 N3357 0.985 . S
H3362 N3356 0.984 . S
H3363 N3356 0.984 . S
H3364 N3352 0.984 . S
H3365 N3352 0.985 . S
C3366 C3367 1.363 . S
C3366 C3372 1.379 . S
C3366 N3374 1.356 . S
C3367 C3366 1.363 . S
C3367 C3373 1.363 . S
C3368 C3369 1.363 . S
C3368 C3373 1.379 . S
C3368 N3375 1.356 . S
C3369 C3368 1.363 . S
C3369 C3372 1.363 . S
N3370 C3372 1.356 . S
N3370 H3382 0.984 . S
N3370 H3383 0.985 . S
N3371 C3373 1.356 . S
N3371 H3376 0.984 . S
N3371 H3377 0.985 . S
C3372 C3366 1.379 . S
C3372 C3369 1.363 . S
C3372 N3370 1.356 . S
C3373 C3367 1.363 . S
C3373 C3368 1.379 . S
C3373 N3371 1.356 . S
N3374 C3366 1.356 . S
N3374 H3380 0.984 . S
N3374 H3381 0.984 . S
N3375 C3368 1.356 . S
N3375 H3378 0.984 . S
N3375 H3379 0.985 . S
H3376 N3371 0.984 . S
H3377 N3371 0.985 . S
H3378 N3375 0.984 . S
H3379 N3375 0.985 . S
H3380 N3374 0.984 . S
H3381 N3374 0.984 . S
H3382 N3370 0.984 . S
H3383 N3370 0.985 . S
C3384 C3385 1.363 . S
C3384 C3390 1.379 . S
C3384 N3392 1.356 . S
C3385 C3384 1.363 . S
C3385 C3391 1.363 . S
C3386 C3387 1.363 . S
C3386 C3391 1.379 . S
C3386 N3393 1.356 . S
C3387 C3386 1.363 . S
C3387 C3390 1.363 . S
N3388 C3390 1.356 . S
N3388 H3400 0.984 . S
N3388 H3401 0.985 . S
N3389 C3391 1.356 . S
N3389 H3394 0.984 . S
N3389 H3395 0.985 . S
C3390 C3384 1.379 . S
C3390 C3387 1.363 . S
C3390 N3388 1.356 . S
C3391 C3385 1.363 . S
C3391 C3386 1.379 . S
C3391 N3389 1.356 . S
N3392 C3384 1.356 . S
N3392 H3398 0.984 . S
N3392 H3399 0.984 . S
N3393 C3386 1.356 . S
N3393 H3396 0.984 . S
N3393 H3397 0.985 . S
H3394 N3389 0.984 . S
H3395 N3389 0.985 . S
H3396 N3393 0.984 . S
H3397 N3393 0.985 . S
H3398 N3392 0.984 . S
H3399 N3392 0.984 . S
H3400 N3388 0.984 . S
H3401 N3388 0.985 . S
C3402 C3403 1.363 . S
C3402 C3408 1.379 . S
C3402 N3410 1.356 . S
C3403 C3402 1.363 . S
C3403 C3409 1.363 . S
C3404 C3405 1.363 . S
C3404 C3409 1.379 . S
C3404 N3411 1.356 . S
C3405 C3404 1.363 . S
C3405 C3408 1.363 . S
N3406 C3408 1.356 . S
N3406 H3418 0.984 . S
N3406 H3419 0.985 . S
N3407 C3409 1.356 . S
N3407 H3412 0.984 . S
N3407 H3413 0.985 . S
C3408 C3402 1.379 . S
C3408 C3405 1.363 . S
C3408 N3406 1.356 . S
C3409 C3403 1.363 . S
C3409 C3404 1.379 . S
C3409 N3407 1.356 . S
N3410 C3402 1.356 . S
N3410 H3416 0.984 . S
N3410 H3417 0.984 . S
N3411 C3404 1.356 . S
N3411 H3414 0.984 . S
N3411 H3415 0.985 . S
H3412 N3407 0.984 . S
H3413 N3407 0.985 . S
H3414 N3411 0.984 . S
H3415 N3411 0.985 . S
H3416 N3410 0.984 . S
H3417 N3410 0.984 . S
H3418 N3406 0.984 . S
H3419 N3406 0.985 . S
C3420 C3421 1.363 . S
C3420 C3426 1.379 . S
C3420 N3428 1.356 . S
C3421 C3420 1.363 . S
C3421 C3427 1.363 . S
C3422 C3423 1.363 . S
C3422 C3427 1.379 . S
C3422 N3429 1.356 . S
C3423 C3422 1.363 . S
C3423 C3426 1.363 . S
N3424 C3426 1.356 . S
N3424 H3436 0.984 . S
N3424 H3437 0.985 . S
N3425 C3427 1.356 . S
N3425 H3430 0.984 . S
N3425 H3431 0.985 . S
C3426 C3420 1.379 . S
C3426 C3423 1.363 . S
C3426 N3424 1.356 . S
C3427 C3421 1.363 . S
C3427 C3422 1.379 . S
C3427 N3425 1.356 . S
N3428 C3420 1.356 . S
N3428 H3434 0.984 . S
N3428 H3435 0.984 . S
N3429 C3422 1.356 . S
N3429 H3432 0.984 . S
N3429 H3433 0.985 . S
H3430 N3425 0.984 . S
H3431 N3425 0.985 . S
H3432 N3429 0.984 . S
H3433 N3429 0.985 . S
H3434 N3428 0.984 . S
H3435 N3428 0.984 . S
H3436 N3424 0.984 . S
H3437 N3424 0.985 . S
C3438 C3439 1.363 . S
C3438 C3444 1.379 . S
C3438 N3446 1.356 . S
C3439 C3438 1.363 . S
C3439 C3445 1.363 . S
C3440 C3441 1.363 . S
C3440 C3445 1.379 . S
C3440 N3447 1.356 . S
C3441 C3440 1.363 . S
C3441 C3444 1.363 . S
N3442 C3444 1.356 . S
N3442 H3454 0.984 . S
N3442 H3455 0.985 . S
N3443 C3445 1.356 . S
N3443 H3448 0.984 . S
N3443 H3449 0.985 . S
C3444 C3438 1.379 . S
C3444 C3441 1.363 . S
C3444 N3442 1.356 . S
C3445 C3439 1.363 . S
C3445 C3440 1.379 . S
C3445 N3443 1.356 . S
N3446 C3438 1.356 . S
N3446 H3452 0.984 . S
N3446 H3453 0.984 . S
N3447 C3440 1.356 . S
N3447 H3450 0.984 . S
N3447 H3451 0.985 . S
H3448 N3443 0.984 . S
H3449 N3443 0.985 . S
H3450 N3447 0.984 . S
H3451 N3447 0.985 . S
H3452 N3446 0.984 . S
H3453 N3446 0.984 . S
H3454 N3442 0.984 . S
H3455 N3442 0.985 . S
C3456 C3457 1.363 . S
C3456 C3462 1.379 . S
C3456 N3464 1.356 . S
C3457 C3456 1.363 . S
C3457 C3463 1.363 . S
C3458 C3459 1.363 . S
C3458 C3463 1.379 . S
C3458 N3465 1.356 . S
C3459 C3458 1.363 . S
C3459 C3462 1.363 . S
N3460 C3462 1.356 . S
N3460 H3472 0.984 . S
N3460 H3473 0.985 . S
N3461 C3463 1.356 . S
N3461 H3466 0.984 . S
N3461 H3467 0.985 . S
C3462 C3456 1.379 . S
C3462 C3459 1.363 . S
C3462 N3460 1.356 . S
C3463 C3457 1.363 . S
C3463 C3458 1.379 . S
C3463 N3461 1.356 . S
N3464 C3456 1.356 . S
N3464 H3470 0.984 . S
N3464 H3471 0.984 . S
N3465 C3458 1.356 . S
N3465 H3468 0.984 . S
N3465 H3469 0.985 . S
H3466 N3461 0.984 . S
H3467 N3461 0.985 . S
H3468 N3465 0.984 . S
H3469 N3465 0.985 . S
H3470 N3464 0.984 . S
H3471 N3464 0.984 . S
H3472 N3460 0.984 . S
H3473 N3460 0.985 . S
C3474 C3475 1.363 . S
C3474 C3480 1.379 . S
C3474 N3482 1.356 . S
C3475 C3474 1.363 . S
C3475 C3481 1.363 . S
C3476 C3477 1.363 . S
C3476 C3481 1.379 . S
C3476 N3483 1.356 . S
C3477 C3476 1.363 . S
C3477 C3480 1.363 . S
N3478 C3480 1.356 . S
N3478 H3490 0.984 . S
N3478 H3491 0.985 . S
N3479 C3481 1.356 . S
N3479 H3484 0.984 . S
N3479 H3485 0.985 . S
C3480 C3474 1.379 . S
C3480 C3477 1.363 . S
C3480 N3478 1.356 . S
C3481 C3475 1.363 . S
C3481 C3476 1.379 . S
C3481 N3479 1.356 . S
N3482 C3474 1.356 . S
N3482 H3488 0.984 . S
N3482 H3489 0.984 . S
N3483 C3476 1.356 . S
N3483 H3486 0.984 . S
N3483 H3487 0.985 . S
H3484 N3479 0.984 . S
H3485 N3479 0.985 . S
H3486 N3483 0.984 . S
H3487 N3483 0.985 . S
H3488 N3482 0.984 . S
H3489 N3482 0.984 . S
H3490 N3478 0.984 . S
H3491 N3478 0.985 . S
C3492 C3493 1.363 . S
C3492 C3498 1.379 . S
C3492 N3500 1.356 . S
C3493 C3492 1.363 . S
C3493 C3499 1.363 . S
C3494 C3495 1.363 . S
C3494 C3499 1.379 . S
C3494 N3501 1.356 . S
C3495 C3494 1.363 . S
C3495 C3498 1.363 . S
N3496 C3498 1.356 . S
N3496 H3508 0.984 . S
N3496 H3509 0.985 . S
N3497 C3499 1.356 . S
N3497 H3502 0.984 . S
N3497 H3503 0.985 . S
C3498 C3492 1.379 . S
C3498 C3495 1.363 . S
C3498 N3496 1.356 . S
C3499 C3493 1.363 . S
C3499 C3494 1.379 . S
C3499 N3497 1.356 . S
N3500 C3492 1.356 . S
N3500 H3506 0.984 . S
N3500 H3507 0.984 . S
N3501 C3494 1.356 . S
N3501 H3504 0.984 . S
N3501 H3505 0.985 . S
H3502 N3497 0.984 . S
H3503 N3497 0.985 . S
H3504 N3501 0.984 . S
H3505 N3501 0.985 . S
H3506 N3500 0.984 . S
H3507 N3500 0.984 . S
H3508 N3496 0.984 . S
H3509 N3496 0.985 . S
C3510 C3511 1.363 . S
C3510 C3516 1.379 . S
C3510 N3518 1.356 . S
C3511 C3510 1.363 . S
C3511 C3517 1.363 . S
C3512 C3513 1.363 . S
C3512 C3517 1.379 . S
C3512 N3519 1.356 . S
C3513 C3512 1.363 . S
C3513 C3516 1.363 . S
N3514 C3516 1.356 . S
N3514 H3526 0.984 . S
N3514 H3527 0.985 . S
N3515 C3517 1.356 . S
N3515 H3520 0.984 . S
N3515 H3521 0.985 . S
C3516 C3510 1.379 . S
C3516 C3513 1.363 . S
C3516 N3514 1.356 . S
C3517 C3511 1.363 . S
C3517 C3512 1.379 . S
C3517 N3515 1.356 . S
N3518 C3510 1.356 . S
N3518 H3524 0.984 . S
N3518 H3525 0.984 . S
N3519 C3512 1.356 . S
N3519 H3522 0.984 . S
N3519 H3523 0.985 . S
H3520 N3515 0.984 . S
H3521 N3515 0.985 . S
H3522 N3519 0.984 . S
H3523 N3519 0.985 . S
H3524 N3518 0.984 . S
H3525 N3518 0.984 . S
H3526 N3514 0.984 . S
H3527 N3514 0.985 . S
C3528 C3529 1.363 . S
C3528 C3534 1.379 . S
C3528 N3536 1.356 . S
C3529 C3528 1.363 . S
C3529 C3535 1.363 . S
C3530 C3531 1.363 . S
C3530 C3535 1.379 . S
C3530 N3537 1.356 . S
C3531 C3530 1.363 . S
C3531 C3534 1.363 . S
N3532 C3534 1.356 . S
N3532 H3544 0.984 . S
N3532 H3545 0.985 . S
N3533 C3535 1.356 . S
N3533 H3538 0.984 . S
N3533 H3539 0.985 . S
C3534 C3528 1.379 . S
C3534 C3531 1.363 . S
C3534 N3532 1.356 . S
C3535 C3529 1.363 . S
C3535 C3530 1.379 . S
C3535 N3533 1.356 . S
N3536 C3528 1.356 . S
N3536 H3542 0.984 . S
N3536 H3543 0.984 . S
N3537 C3530 1.356 . S
N3537 H3540 0.984 . S
N3537 H3541 0.985 . S
H3538 N3533 0.984 . S
H3539 N3533 0.985 . S
H3540 N3537 0.984 . S
H3541 N3537 0.985 . S
H3542 N3536 0.984 . S
H3543 N3536 0.984 . S
H3544 N3532 0.984 . S
H3545 N3532 0.985 . S
C3546 C3547 1.363 . S
C3546 C3552 1.379 . S
C3546 N3554 1.356 . S
C3547 C3546 1.363 . S
C3547 C3553 1.363 . S
C3548 C3549 1.363 . S
C3548 C3553 1.379 . S
C3548 N3555 1.356 . S
C3549 C3548 1.363 . S
C3549 C3552 1.363 . S
N3550 C3552 1.356 . S
N3550 H3562 0.984 . S
N3550 H3563 0.985 . S
N3551 C3553 1.356 . S
N3551 H3556 0.984 . S
N3551 H3557 0.985 . S
C3552 C3546 1.379 . S
C3552 C3549 1.363 . S
C3552 N3550 1.356 . S
C3553 C3547 1.363 . S
C3553 C3548 1.379 . S
C3553 N3551 1.356 . S
N3554 C3546 1.356 . S
N3554 H3560 0.984 . S
N3554 H3561 0.984 . S
N3555 C3548 1.356 . S
N3555 H3558 0.984 . S
N3555 H3559 0.985 . S
H3556 N3551 0.984 . S
H3557 N3551 0.985 . S
H3558 N3555 0.984 . S
H3559 N3555 0.985 . S
H3560 N3554 0.984 . S
H3561 N3554 0.984 . S
H3562 N3550 0.984 . S
H3563 N3550 0.985 . S
C3564 C3565 1.363 . S
C3564 C3570 1.379 . S
C3564 N3572 1.356 . S
C3565 C3564 1.363 . S
C3565 C3571 1.363 . S
C3566 C3567 1.363 . S
C3566 C3571 1.379 . S
C3566 N3573 1.356 . S
C3567 C3566 1.363 . S
C3567 C3570 1.363 . S
N3568 C3570 1.356 . S
N3568 H3580 0.984 . S
N3568 H3581 0.985 . S
N3569 C3571 1.356 . S
N3569 H3574 0.984 . S
N3569 H3575 0.985 . S
C3570 C3564 1.379 . S
C3570 C3567 1.363 . S
C3570 N3568 1.356 . S
C3571 C3565 1.363 . S
C3571 C3566 1.379 . S
C3571 N3569 1.356 . S
N3572 C3564 1.356 . S
N3572 H3578 0.984 . S
N3572 H3579 0.984 . S
N3573 C3566 1.356 . S
N3573 H3576 0.984 . S
N3573 H3577 0.985 . S
H3574 N3569 0.984 . S
H3575 N3569 0.985 . S
H3576 N3573 0.984 . S
H3577 N3573 0.985 . S
H3578 N3572 0.984 . S
H3579 N3572 0.984 . S
H3580 N3568 0.984 . S
H3581 N3568 0.985 . S
C3582 C3583 1.363 . S
C3582 C3588 1.379 . S
C3582 N3590 1.356 . S
C3583 C3582 1.363 . S
C3583 C3589 1.363 . S
C3584 C3585 1.363 . S
C3584 C3589 1.379 . S
C3584 N3591 1.356 . S
C3585 C3584 1.363 . S
C3585 C3588 1.363 . S
N3586 C3588 1.356 . S
N3586 H3598 0.984 . S
N3586 H3599 0.985 . S
N3587 C3589 1.356 . S
N3587 H3592 0.984 . S
N3587 H3593 0.985 . S
C3588 C3582 1.379 . S
C3588 C3585 1.363 . S
C3588 N3586 1.356 . S
C3589 C3583 1.363 . S
C3589 C3584 1.379 . S
C3589 N3587 1.356 . S
N3590 C3582 1.356 . S
N3590 H3596 0.984 . S
N3590 H3597 0.984 . S
N3591 C3584 1.356 . S
N3591 H3594 0.984 . S
N3591 H3595 0.985 . S
H3592 N3587 0.984 . S
H3593 N3587 0.985 . S
H3594 N3591 0.984 . S
H3595 N3591 0.985 . S
H3596 N3590 0.984 . S
H3597 N3590 0.984 . S
H3598 N3586 0.984 . S
H3599 N3586 0.985 . S
C3600 C3601 1.363 . S
C3600 C3606 1.379 . S
C3600 N3608 1.356 . S
C3601 C3600 1.363 . S
C3601 C3607 1.363 . S
C3602 C3603 1.363 . S
C3602 C3607 1.379 . S
C3602 N3609 1.356 . S
C3603 C3602 1.363 . S
C3603 C3606 1.363 . S
N3604 C3606 1.356 . S
N3604 H3616 0.984 . S
N3604 H3617 0.985 . S
N3605 C3607 1.356 . S
N3605 H3610 0.984 . S
N3605 H3611 0.985 . S
C3606 C3600 1.379 . S
C3606 C3603 1.363 . S
C3606 N3604 1.356 . S
C3607 C3601 1.363 . S
C3607 C3602 1.379 . S
C3607 N3605 1.356 . S
N3608 C3600 1.356 . S
N3608 H3614 0.984 . S
N3608 H3615 0.984 . S
N3609 C3602 1.356 . S
N3609 H3612 0.984 . S
N3609 H3613 0.985 . S
H3610 N3605 0.984 . S
H3611 N3605 0.985 . S
H3612 N3609 0.984 . S
H3613 N3609 0.985 . S
H3614 N3608 0.984 . S
H3615 N3608 0.984 . S
H3616 N3604 0.984 . S
H3617 N3604 0.985 . S
C3618 C3619 1.363 . S
C3618 C3624 1.379 . S
C3618 N3626 1.356 . S
C3619 C3618 1.363 . S
C3619 C3625 1.363 . S
C3620 C3621 1.363 . S
C3620 C3625 1.379 . S
C3620 N3627 1.356 . S
C3621 C3620 1.363 . S
C3621 C3624 1.363 . S
N3622 C3624 1.356 . S
N3622 H3634 0.984 . S
N3622 H3635 0.985 . S
N3623 C3625 1.356 . S
N3623 H3628 0.984 . S
N3623 H3629 0.985 . S
C3624 C3618 1.379 . S
C3624 C3621 1.363 . S
C3624 N3622 1.356 . S
C3625 C3619 1.363 . S
C3625 C3620 1.379 . S
C3625 N3623 1.356 . S
N3626 C3618 1.356 . S
N3626 H3632 0.984 . S
N3626 H3633 0.984 . S
N3627 C3620 1.356 . S
N3627 H3630 0.984 . S
N3627 H3631 0.985 . S
H3628 N3623 0.984 . S
H3629 N3623 0.985 . S
H3630 N3627 0.984 . S
H3631 N3627 0.985 . S
H3632 N3626 0.984 . S
H3633 N3626 0.984 . S
H3634 N3622 0.984 . S
H3635 N3622 0.985 . S
C3636 C3637 1.363 . S
C3636 C3642 1.379 . S
C3636 N3644 1.356 . S
C3637 C3636 1.363 . S
C3637 C3643 1.363 . S
C3638 C3639 1.363 . S
C3638 C3643 1.379 . S
C3638 N3645 1.356 . S
C3639 C3638 1.363 . S
C3639 C3642 1.363 . S
N3640 C3642 1.356 . S
N3640 H3652 0.984 . S
N3640 H3653 0.985 . S
N3641 C3643 1.356 . S
N3641 H3646 0.984 . S
N3641 H3647 0.985 . S
C3642 C3636 1.379 . S
C3642 C3639 1.363 . S
C3642 N3640 1.356 . S
C3643 C3637 1.363 . S
C3643 C3638 1.379 . S
C3643 N3641 1.356 . S
N3644 C3636 1.356 . S
N3644 H3650 0.984 . S
N3644 H3651 0.984 . S
N3645 C3638 1.356 . S
N3645 H3648 0.984 . S
N3645 H3649 0.985 . S
H3646 N3641 0.984 . S
H3647 N3641 0.985 . S
H3648 N3645 0.984 . S
H3649 N3645 0.985 . S
H3650 N3644 0.984 . S
H3651 N3644 0.984 . S
H3652 N3640 0.984 . S
H3653 N3640 0.985 . S
C3654 C3655 1.363 . S
C3654 C3660 1.379 . S
C3654 N3662 1.356 . S
C3655 C3654 1.363 . S
C3655 C3661 1.363 . S
C3656 C3657 1.363 . S
C3656 C3661 1.379 . S
C3656 N3663 1.356 . S
C3657 C3656 1.363 . S
C3657 C3660 1.363 . S
N3658 C3660 1.356 . S
N3658 H3670 0.984 . S
N3658 H3671 0.985 . S
N3659 C3661 1.356 . S
N3659 H3664 0.984 . S
N3659 H3665 0.985 . S
C3660 C3654 1.379 . S
C3660 C3657 1.363 . S
C3660 N3658 1.356 . S
C3661 C3655 1.363 . S
C3661 C3656 1.379 . S
C3661 N3659 1.356 . S
N3662 C3654 1.356 . S
N3662 H3668 0.984 . S
N3662 H3669 0.984 . S
N3663 C3656 1.356 . S
N3663 H3666 0.984 . S
N3663 H3667 0.985 . S
H3664 N3659 0.984 . S
H3665 N3659 0.985 . S
H3666 N3663 0.984 . S
H3667 N3663 0.985 . S
H3668 N3662 0.984 . S
H3669 N3662 0.984 . S
H3670 N3658 0.984 . S
H3671 N3658 0.985 . S
C3672 C3673 1.363 . S
C3672 C3678 1.379 . S
C3672 N3680 1.356 . S
C3673 C3672 1.363 . S
C3673 C3679 1.363 . S
C3674 C3675 1.363 . S
C3674 C3679 1.379 . S
C3674 N3681 1.356 . S
C3675 C3674 1.363 . S
C3675 C3678 1.363 . S
N3676 C3678 1.356 . S
N3676 H3688 0.984 . S
N3676 H3689 0.985 . S
N3677 C3679 1.356 . S
N3677 H3682 0.984 . S
N3677 H3683 0.985 . S
C3678 C3672 1.379 . S
C3678 C3675 1.363 . S
C3678 N3676 1.356 . S
C3679 C3673 1.363 . S
C3679 C3674 1.379 . S
C3679 N3677 1.356 . S
N3680 C3672 1.356 . S
N3680 H3686 0.984 . S
N3680 H3687 0.984 . S
N3681 C3674 1.356 . S
N3681 H3684 0.984 . S
N3681 H3685 0.985 . S
H3682 N3677 0.984 . S
H3683 N3677 0.985 . S
H3684 N3681 0.984 . S
H3685 N3681 0.985 . S
H3686 N3680 0.984 . S
H3687 N3680 0.984 . S
H3688 N3676 0.984 . S
H3689 N3676 0.985 . S
C3690 C3691 1.363 . S
C3690 C3696 1.379 . S
C3690 N3698 1.356 . S
C3691 C3690 1.363 . S
C3691 C3697 1.363 . S
C3692 C3693 1.363 . S
C3692 C3697 1.379 . S
C3692 N3699 1.356 . S
C3693 C3692 1.363 . S
C3693 C3696 1.363 . S
N3694 C3696 1.356 . S
N3694 H3706 0.984 . S
N3694 H3707 0.985 . S
N3695 C3697 1.356 . S
N3695 H3700 0.984 . S
N3695 H3701 0.985 . S
C3696 C3690 1.379 . S
C3696 C3693 1.363 . S
C3696 N3694 1.356 . S
C3697 C3691 1.363 . S
C3697 C3692 1.379 . S
C3697 N3695 1.356 . S
N3698 C3690 1.356 . S
N3698 H3704 0.984 . S
N3698 H3705 0.984 . S
N3699 C3692 1.356 . S
N3699 H3702 0.984 . S
N3699 H3703 0.985 . S
H3700 N3695 0.984 . S
H3701 N3695 0.985 . S
H3702 N3699 0.984 . S
H3703 N3699 0.985 . S
H3704 N3698 0.984 . S
H3705 N3698 0.984 . S
H3706 N3694 0.984 . S
H3707 N3694 0.985 . S
C3708 C3709 1.363 . S
C3708 C3714 1.379 . S
C3708 N3716 1.356 . S
C3709 C3708 1.363 . S
C3709 C3715 1.363 . S
C3710 C3711 1.363 . S
C3710 C3715 1.379 . S
C3710 N3717 1.356 . S
C3711 C3710 1.363 . S
C3711 C3714 1.363 . S
N3712 C3714 1.356 . S
N3712 H3724 0.984 . S
N3712 H3725 0.985 . S
N3713 C3715 1.356 . S
N3713 H3718 0.984 . S
N3713 H3719 0.985 . S
C3714 C3708 1.379 . S
C3714 C3711 1.363 . S
C3714 N3712 1.356 . S
C3715 C3709 1.363 . S
C3715 C3710 1.379 . S
C3715 N3713 1.356 . S
N3716 C3708 1.356 . S
N3716 H3722 0.984 . S
N3716 H3723 0.984 . S
N3717 C3710 1.356 . S
N3717 H3720 0.984 . S
N3717 H3721 0.985 . S
H3718 N3713 0.984 . S
H3719 N3713 0.985 . S
H3720 N3717 0.984 . S
H3721 N3717 0.985 . S
H3722 N3716 0.984 . S
H3723 N3716 0.984 . S
H3724 N3712 0.984 . S
H3725 N3712 0.985 . S
C3726 C3727 1.363 . S
C3726 C3732 1.379 . S
C3726 N3734 1.356 . S
C3727 C3726 1.363 . S
C3727 C3733 1.363 . S
C3728 C3729 1.363 . S
C3728 C3733 1.379 . S
C3728 N3735 1.356 . S
C3729 C3728 1.363 . S
C3729 C3732 1.363 . S
N3730 C3732 1.356 . S
N3730 H3742 0.984 . S
N3730 H3743 0.985 . S
N3731 C3733 1.356 . S
N3731 H3736 0.984 . S
N3731 H3737 0.985 . S
C3732 C3726 1.379 . S
C3732 C3729 1.363 . S
C3732 N3730 1.356 . S
C3733 C3727 1.363 . S
C3733 C3728 1.379 . S
C3733 N3731 1.356 . S
N3734 C3726 1.356 . S
N3734 H3740 0.984 . S
N3734 H3741 0.984 . S
N3735 C3728 1.356 . S
N3735 H3738 0.984 . S
N3735 H3739 0.985 . S
H3736 N3731 0.984 . S
H3737 N3731 0.985 . S
H3738 N3735 0.984 . S
H3739 N3735 0.985 . S
H3740 N3734 0.984 . S
H3741 N3734 0.984 . S
H3742 N3730 0.984 . S
H3743 N3730 0.985 . S
C1585 N530 1.426 . S
C1587 C21 1.308 . S
C1603 N1553 1.426 . S
C1605 C54 1.308 . S
C1621 C87 1.308 . S
C1623 N1487 1.426 . S
C1639 C120 1.308 . S
C1641 N1520 1.426 . S
C1657 C153 1.308 . S
C1659 N563 1.426 . S
C1675 N596 1.426 . S
C1677 C186 1.308 . S
C1693 N629 1.426 . S
C1695 C219 1.308 . S
C1711 N1454 1.426 . S
C1713 C252 1.308 . S
C1729 C285 1.308 . S
C1731 N2 1.426 . S
C1747 N35 1.426 . S
C1749 C318 1.308 . S
C1765 C351 1.308 . S
C1767 N68 1.426 . S
C1783 N101 1.426 . S
C1785 C384 1.308 . S
C1801 C417 1.308 . S
C1803 N134 1.426 . S
C1819 C450 1.308 . S
C1821 N167 1.426 . S
C1837 N200 1.426 . S
C1839 C483 1.308 . S
C1855 N233 1.426 . S
C1857 C516 1.308 . S
C1873 N266 1.426 . S
C1875 C549 1.308 . S
C1891 N398 1.426 . S
C1893 C582 1.308 . S
C1909 N431 1.426 . S
C1911 C615 1.308 . S
C1927 N464 1.426 . S
C1929 C648 1.308 . S
C1945 N1289 1.426 . S
C1947 C681 1.308 . S
C1963 C714 1.308 . S
C1965 N1124 1.426 . S
C1981 N1157 1.426 . S
C1983 C747 1.308 . S
C1999 C780 1.308 . S
C2001 N1091 1.426 . S
C2017 C813 1.308 . S
C2019 N1322 1.426 . S
C2035 C846 1.308 . S
C2037 N761 1.426 . S
C2053 N695 1.426 . S
C2055 C879 1.308 . S
C2071 N728 1.426 . S
C2073 C912 1.308 . S
C2089 N1355 1.426 . S
C2091 C945 1.308 . S
C2107 C978 1.308 . S
C2109 N1388 1.426 . S
C2125 N1421 1.426 . S
C2127 C1011 1.308 . S
C2143 C1044 1.308 . S
C2145 N662 1.426 . S
C2161 N794 1.426 . S
C2163 C1077 1.308 . S
C2179 N827 1.426 . S
C2181 C1110 1.308 . S
C2197 C1143 1.308 . S
C2199 N860 1.426 . S
C2215 C1176 1.308 . S
C2217 N893 1.426 . S
C2233 C1209 1.308 . S
C2235 N926 1.426 . S
C2251 N959 1.426 . S
C2253 C1242 1.308 . S
C2269 C1275 1.308 . S
C2271 N992 1.426 . S
C2287 N1025 1.426 . S
C2289 C1308 1.308 . S
C2305 N1058 1.426 . S
C2307 C1341 1.308 . S
C2323 C1374 1.308 . S
C2325 N1190 1.426 . S
C2341 N1223 1.426 . S
C2343 C1407 1.308 . S
C2359 N1256 1.426 . S
C2361 C1440 1.308 . S
C2377 C1473 1.308 . S
C2379 N497 1.426 . S
C2395 C1506 1.308 . S
C2397 N332 1.426 . S
C2413 C1539 1.308 . S
C2415 N365 1.426 . S
C2431 N299 1.426 . S
C2433 C1572 1.308 . S
C2449 C7 0.896 . S
C2451 C139 0.896 . S
C2467 C40 0.896 . S
C2469 C172 0.896 . S
C2485 C205 0.896 . S
C2487 C73 0.896 . S
C2503 C238 0.896 . S
C2505 C106 0.896 . S
C2521 C1261 0.896 . S
C2523 C271 0.896 . S
C2539 C1294 0.896 . S
C2541 C304 0.896 . S
C2557 C1195 0.896 . S
C2559 C337 0.896 . S
C2575 C370 0.896 . S
C2577 C1228 0.896 . S
C2593 C403 0.896 . S
C2595 C1129 0.896 . S
C2611 C436 0.896 . S
C2613 C1162 0.896 . S
C2629 C469 0.896 . S
C2631 C1063 0.896 . S
C2647 C502 0.896 . S
C2649 C1096 0.896 . S
C2665 C1492 0.896 . S
C2667 C535 0.896 . S
C2683 C634 0.896 . S
C2685 C568 0.896 . S
C2701 C1459 0.896 . S
C2703 C601 0.896 . S
C2719 C1393 0.896 . S
C2721 C667 0.896 . S
C2737 C700 0.896 . S
C2739 C1327 0.896 . S
C2755 C733 0.896 . S
C2757 C766 0.896 . S
C2773 C931 0.896 . S
C2775 C799 0.896 . S
C2791 C964 0.896 . S
C2793 C832 0.896 . S
C2809 C865 0.896 . S
C2811 C997 0.896 . S
C2827 C1030 0.896 . S
C2829 C898 0.896 . S
C2845 C1360 0.896 . S
C2847 C1426 0.896 . S
C2863 C1558 0.896 . S
C2865 C1525 0.896 . S
C2881 C18 1.475 . S
C2883 N904 1.463 . S
C2899 C51 1.475 . S
C2901 N805 1.463 . S
C2917 C84 1.475 . S
C2919 N838 1.463 . S
C2935 N871 1.463 . S
C2937 C117 1.475 . S
C2953 C150 1.475 . S
C2955 N178 1.463 . S
C2971 N211 1.463 . S
C2973 C183 1.475 . S
C2989 N244 1.463 . S
C2991 C216 1.475 . S
C3007 C249 1.475 . S
C3009 N145 1.463 . S
C3025 N1399 1.463 . S
C3027 C282 1.475 . S
C3043 C315 1.475 . S
C3045 N1432 1.463 . S
C3061 N673 1.463 . S
C3063 C348 1.475 . S
C3079 C381 1.475 . S
C3081 N1366 1.463 . S
C3097 C414 1.475 . S
C3099 N1531 1.463 . S
C3115 C447 1.475 . S
C3117 N541 1.463 . S
C3133 N1564 1.463 . S
C3135 C480 1.475 . S
C3151 N1498 1.463 . S
C3153 C513 1.475 . S
C3169 N310 1.463 . S
C3171 C546 1.475 . S
C3187 C579 1.475 . S
C3189 N1300 1.463 . S
C3205 C612 1.475 . S
C3207 N1201 1.463 . S
C3223 C645 1.475 . S
C3225 N1234 1.463 . S
C3241 N475 1.463 . S
C3243 C678 1.475 . S
C3259 C711 1.475 . S
C3261 N1168 1.463 . S
C3277 C744 1.475 . S
C3279 N1069 1.463 . S
C3295 N1135 1.463 . S
C3297 C777 1.475 . S
C3313 C810 1.475 . S
C3315 N112 1.463 . S
C3331 C843 1.475 . S
C3333 N13 1.463 . S
C3349 C876 1.475 . S
C3351 N46 1.463 . S
C3367 C909 1.475 . S
C3369 N79 1.463 . S
C3385 C942 1.475 . S
C3387 N970 1.463 . S
C3403 C975 1.475 . S
C3405 N1003 1.463 . S
C3421 C1008 1.475 . S
C3423 N1036 1.463 . S
C3439 N937 1.463 . S
C3441 C1041 1.475 . S
C3457 C1074 1.475 . S
C3459 N607 1.463 . S
C3475 C1107 1.475 . S
C3477 N640 1.463 . S
C3493 C1140 1.475 . S
C3495 N1465 1.463 . S
C3511 N574 1.463 . S
C3513 C1173 1.475 . S
C3529 N739 1.463 . S
C3531 C1206 1.475 . S
C3547 C1239 1.475 . S
C3549 N1333 1.463 . S
C3565 C1272 1.475 . S
C3567 N772 1.463 . S
C3583 C1305 1.475 . S
C3585 N706 1.463 . S
C3601 N1102 1.463 . S
C3603 C1338 1.475 . S
C3619 C1371 1.475 . S
C3621 N508 1.463 . S
C3637 C1404 1.475 . S
C3639 N409 1.463 . S
C3655 C1437 1.475 . S
C3657 N442 1.463 . S
C3673 N1267 1.463 . S
C3675 C1470 1.475 . S
C3691 N376 1.463 . S
C3693 C1503 1.475 . S
C3709 N277 1.463 . S
C3711 C1536 1.475 . S
C3727 N343 1.463 . S
C3729 C1569 1.475 . S
