# Generated by pormake.
# Topology irl, (4)-cn, num edge types: 1
# Building blocks:
#     Node 0, Type 0, BuildingBlock: GALJAG_clean_sbu_0, # of connection points: 4
#     Node 1, Type 0, BuildingBlock: GALJAG_clean_sbu_0, # of connection points: 4
#     Node 2, Type 0, BuildingBlock: GALJAG_clean_sbu_0, # of connection points: 4
#     Node 3, Type 0, BuildingBlock: GALJAG_clean_sbu_0, # of connection points: 4
#     Node 4, Type 0, BuildingBlock: GALJAG_clean_sbu_0, # of connection points: 4
#     Node 5, Type 0, BuildingBlock: GALJAG_clean_sbu_0, # of connection points: 4
#     Node 6, Type 0, BuildingBlock: GALJAG_clean_sbu_0, # of connection points: 4
#     Node 7, Type 0, BuildingBlock: GALJAG_clean_sbu_0, # of connection points: 4
#     Edge 8, Type (0, 0), BuildingBlock: UVAHIK_clean_linker_0, # of connection points: 2
#     Edge 9, Type (0, 0), BuildingBlock: UVAHIK_clean_linker_0, # of connection points: 2
#     Edge 10, Type (0, 0), BuildingBlock: UVAHIK_clean_linker_0, # of connection points: 2
#     Edge 11, Type (0, 0), BuildingBlock: UVAHIK_clean_linker_0, # of connection points: 2
#     Edge 12, Type (0, 0), BuildingBlock: UVAHIK_clean_linker_0, # of connection points: 2
#     Edge 13, Type (0, 0), BuildingBlock: UVAHIK_clean_linker_0, # of connection points: 2
#     Edge 14, Type (0, 0), BuildingBlock: UVAHIK_clean_linker_0, # of connection points: 2
#     Edge 15, Type (0, 0), BuildingBlock: UVAHIK_clean_linker_0, # of connection points: 2
#     Edge 16, Type (0, 0), BuildingBlock: UVAHIK_clean_linker_0, # of connection points: 2
#     Edge 17, Type (0, 0), BuildingBlock: UVAHIK_clean_linker_0, # of connection points: 2
#     Edge 18, Type (0, 0), BuildingBlock: UVAHIK_clean_linker_0, # of connection points: 2
#     Edge 19, Type (0, 0), BuildingBlock: UVAHIK_clean_linker_0, # of connection points: 2
#     Edge 20, Type (0, 0), BuildingBlock: UVAHIK_clean_linker_0, # of connection points: 2
#     Edge 21, Type (0, 0), BuildingBlock: UVAHIK_clean_linker_0, # of connection points: 2
#     Edge 22, Type (0, 0), BuildingBlock: UVAHIK_clean_linker_0, # of connection points: 2
#     Edge 23, Type (0, 0), BuildingBlock: UVAHIK_clean_linker_0, # of connection points: 2
# Relax obj value: 0.098
# Max RMSD: 0.151
# Mean RMSD: 0.151
data_MOF--net-irl--node1-GALJAG_clean_sbu_0--edge1-UVAHIK_clean_linker_0
_symmetry_space_group_name_H-M    P1
_symmetry_Int_Tables_number       1
_symmetry_cell_setting            triclinic
loop_
_symmetry_equiv_pos_as_xyz
'x, y, z'
_cell_length_a     38.646157
_cell_length_b     61.659172
_cell_length_c     37.470244
_cell_angle_alpha  90.072972
_cell_angle_beta   89.970451
_cell_angle_gamma 89.987578
loop_
_atom_site_label
_atom_site_type_symbol
_atom_site_fract_x
_atom_site_fract_y
_atom_site_fract_z
_atom_type_partial_charge
In0 In 0.04838 0.15153 0.0342 0.0
O1 O 0.01421 0.16499 0.07889 0.0
O2 O 0.06154 0.14909 0.0924 0.0
C3 C 0.02369 0.16519 0.97151 0.0
C4 C 0.10334 0.17765 0.03114 0.0
C5 C 0.03769 0.10852 0.02972 0.0
O6 O 0.00534 0.16624 -0.0005 0.0
O7 O 0.05318 0.15679 0.97537 0.0
O8 O 0.06781 0.11657 0.0295 0.0
O9 O 0.01346 0.12216 0.03204 0.0
C10 C 0.03504 0.15912 0.10314 0.0
O11 O 0.10617 0.15732 0.02671 0.0
O12 O 0.0731 0.1844 0.03761 0.0
In13 In 0.95329 0.83724 0.00425 0.0
O14 O 0.89455 0.83303 0.00415 0.0
O15 O 0.92671 0.80517 -0.00312 0.0
C16 C 0.9652 0.87973 0.01347 0.0
C17 C 0.97539 0.82293 0.06771 0.0
C18 C 0.97017 0.83256 0.93535 0.0
O19 O 0.93485 0.87199 0.01282 0.0
O20 O 0.98919 0.86598 0.00978 0.0
O21 O 0.98487 0.82135 0.9593 0.0
O22 O 0.94854 0.84626 0.94662 0.0
C23 C 0.89643 0.81273 -0.00092 0.0
O24 O -0.00514 0.82233 0.04048 0.0
O25 O 0.94568 0.83079 0.06254 0.0
In26 In 0.03346 0.84101 0.50672 0.0
O27 O 0.00352 0.82663 0.45948 0.0
O28 O 0.05569 0.83657 0.45148 0.0
C29 C -0.00473 0.83109 0.56437 0.0
C30 C 0.0916 0.82091 0.5278 0.0
C31 C 0.02155 0.88376 0.50088 0.0
O32 O -0.0035 0.81868 0.53753 0.0
O33 O 0.0122 0.84844 0.56142 0.0
O34 O 0.05045 0.87627 0.51089 0.0
O35 O -0.00095 0.86963 0.4932 0.0
C36 C 0.02878 0.82835 0.43818 0.0
O37 O 0.09079 0.84115 0.52239 0.0
O38 O 0.06331 0.81122 0.52277 0.0
In39 In 0.93246 0.15408 0.53586 0.0
O40 O 0.97529 0.1673 0.49971 0.0
O41 O 0.92726 0.15753 0.47649 0.0
C42 C 0.94923 0.16258 0.60371 0.0
C43 C 0.87807 0.18081 0.53591 0.0
C44 C 0.94221 0.11098 0.53182 0.0
O45 O 0.9681 0.16881 0.57803 0.0
O46 O 0.92294 0.15169 0.5949 0.0
O47 O 0.91244 0.11936 0.52882 0.0
O48 O 0.96643 0.12433 0.53708 0.0
C49 C 0.9571 0.16532 0.47177 0.0
O50 O 0.87424 0.16038 0.536 0.0
O51 O 0.90903 0.18736 0.53556 0.0
In52 In 0.54124 0.65479 0.03573 0.0
O53 O 0.59849 0.65608 0.02015 0.0
O54 O 0.56917 0.68534 0.01986 0.0
C55 C 0.53221 0.61205 0.04562 0.0
C56 C 0.53446 0.66901 0.10325 0.0
C57 C 0.50424 0.66177 0.97618 0.0
O58 O 0.56117 0.62004 0.03692 0.0
O59 O 0.50809 0.62568 0.0497 0.0
O60 O 0.50246 0.67449 0.00262 0.0
O61 O 0.52361 0.64554 0.98042 0.0
C62 C 0.59806 0.67634 0.01487 0.0
O63 O 0.50957 0.66978 0.08135 0.0
O64 O 0.562 0.66097 0.09103 0.0
In65 In 0.45174 0.34136 0.01711 0.0
O66 O 0.48874 0.32393 0.05548 0.0
O67 O 0.43824 0.33235 0.07356 0.0
C68 C 0.47999 0.33764 0.95205 0.0
C69 C 0.39214 0.32095 0.00261 0.0
C70 C 0.46388 0.38334 0.03154 0.0
O71 O 0.48613 0.32392 0.9763 0.0
O72 O 0.46058 0.35314 0.96105 0.0
O73 O 0.43381 0.37625 0.02503 0.0
O74 O 0.48753 0.36919 0.03106 0.0
C75 C 0.46694 0.3237 0.08069 0.0
O76 O 0.39278 0.34061 0.01233 0.0
O77 O 0.42137 0.31202 -0.00017 0.0
In78 In 0.5347 0.35044 0.5114 0.0
O79 O 0.59327 0.34778 0.51898 0.0
O80 O 0.56179 0.32 0.52885 0.0
C81 C 0.52542 0.39277 0.49766 0.0
C82 C 0.52223 0.33272 0.44731 0.0
C83 C 0.50617 0.34703 0.57635 0.0
O84 O 0.5549 0.38484 0.50446 0.0
O85 O 0.50088 0.37922 0.49713 0.0
O86 O 0.49806 0.33411 0.55143 0.0
O87 O 0.52717 0.36177 0.5678 0.0
C88 C 0.5918 0.32801 0.52799 0.0
O89 O 0.49865 0.33408 0.4707 0.0
O90 O 0.55101 0.34062 0.45627 0.0
In91 In 0.45015 0.66371 0.53349 0.0
O92 O 0.39146 0.66802 0.53507 0.0
O93 O 0.42379 0.69564 0.54359 0.0
C94 C 0.46055 0.62156 0.51911 0.0
C95 C 0.47297 0.67979 0.47138 0.0
C96 C 0.46873 0.6658 0.60233 0.0
O97 O 0.43045 0.6296 0.52117 0.0
O98 O 0.48497 0.63482 0.52423 0.0
O99 O 0.48228 0.67816 0.57925 0.0
O100 O 0.44724 0.65227 0.59024 0.0
C101 C 0.39346 0.68817 0.54143 0.0
O102 O 0.49243 0.67901 0.49857 0.0
O103 O 0.44276 0.67258 0.47598 0.0
C104 C 0.00671 0.91067 0.01733 0.0
C105 C 0.97239 0.90315 0.01711 0.0
C106 C 0.01379 0.93283 0.01946 0.0
C107 C 0.97466 0.98626 0.00235 0.0
H108 H 0.05018 0.00744 0.06096 0.0
C109 C -0.00332 0.07731 0.02819 0.0
C110 C 0.0309 0.08498 0.02782 0.0
C111 C 0.98983 0.05511 0.02684 0.0
C112 C 0.02927 0.00175 0.04414 0.0
H113 H 0.91855 0.91291 0.01944 0.0
H114 H 0.93091 0.95171 0.02349 0.0
H115 H 0.03714 0.96874 0.05974 0.0
H116 H 0.08484 0.07544 0.02561 0.0
H117 H 0.07287 0.03651 0.02295 0.0
H118 H 0.9668 0.01925 0.98672 0.0
C119 C 0.95235 0.94045 0.02157 0.0
C120 C 0.02176 0.97959 0.04348 0.0
C121 C 0.94526 0.91824 0.01948 0.0
C122 C 0.0582 0.06998 0.02599 0.0
C123 C 0.05134 0.04771 0.02468 0.0
C124 C 0.98217 0.00842 0.00301 0.0
C125 C 0.98671 0.94799 0.02139 0.0
C126 C -0.00564 0.97159 0.02259 0.0
C127 C 0.01705 0.04004 0.0251 0.0
C128 C 0.00953 0.01642 0.02394 0.0
H129 H 0.02818 0.89943 0.01545 0.0
H130 H 0.04051 0.9381 0.01882 0.0
H131 H 0.95378 0.98059 0.98549 0.0
H132 H 0.97507 0.08846 0.02971 0.0
H133 H 0.96316 0.04974 0.02772 0.0
C134 C 0.03911 0.9224 0.51034 0.0
C135 C 0.01375 0.90721 0.50058 0.0
C136 C 0.03094 0.94444 0.51257 0.0
C137 C 0.96607 0.98541 0.48493 0.0
H138 H 0.00265 0.01753 0.56555 0.0
C139 C 0.92226 0.07291 0.51987 0.0
C140 C 0.94883 0.08746 0.52887 0.0
C141 C 0.92927 0.05073 0.5163 0.0
C142 C 0.99245 0.00883 0.54273 0.0
H143 H 0.96015 0.9032 0.48479 0.0
H144 H 0.94578 0.94161 0.48905 0.0
H145 H 0.01732 0.97937 0.55835 0.0
H146 H 0.00348 0.09023 0.54132 0.0
H147 H 0.01564 0.05172 0.53507 0.0
H148 H 0.94108 0.01497 0.46947 0.0
C149 C 0.97209 0.93657 0.49459 0.0
C150 C 0.00095 0.98697 0.53853 0.0
C151 C 0.98028 0.91454 0.49229 0.0
C152 C 0.98241 0.07942 0.53446 0.0
C153 C 0.98936 0.05733 0.53107 0.0
C154 C 0.95749 0.0073 0.48919 0.0
C155 C -0.00279 0.95175 0.50518 0.0
C156 C 0.98804 0.97502 0.50948 0.0
C157 C 0.96293 0.04272 0.5219 0.0
C158 C 0.97078 0.01927 0.51802 0.0
H159 H 0.06517 0.91724 0.51676 0.0
H160 H 0.05105 0.95576 0.52021 0.0
H161 H 0.95598 0.97673 0.46205 0.0
H162 H 0.89614 0.07866 0.51538 0.0
H163 H 0.90832 0.03983 0.5095 0.0
C164 C 0.55416 0.57386 0.04639 0.0
C165 C 0.52642 0.58848 0.04902 0.0
C166 C 0.5483 0.55151 0.04781 0.0
C167 C 0.48245 0.51028 0.0732 0.0
H168 H 0.53396 0.4738 0.00763 0.0
C169 C 0.44427 0.42175 0.03967 0.0
C170 C 0.47127 0.40654 0.03764 0.0
C171 C 0.45157 0.44383 0.04379 0.0
C172 C 0.51965 0.48374 0.02638 0.0
H173 H 0.47085 0.59122 0.05561 0.0
H174 H 0.46048 0.5523 0.05728 0.0
H175 H 0.54588 0.51255 0.00992 0.0
H176 H 0.527 0.40242 0.03893 0.0
H177 H 0.53969 0.44094 0.04598 0.0
H178 H 0.45566 0.4814 0.08893 0.0
C179 C 0.48687 0.55801 0.05484 0.0
C180 C 0.52653 0.50596 0.02779 0.0
C181 C 0.49278 0.58034 0.05366 0.0
C182 C 0.50564 0.41377 0.04034 0.0
C183 C 0.51293 0.43583 0.04419 0.0
C184 C 0.47539 0.48807 0.07158 0.0
C185 C 0.51452 0.5433 0.05164 0.0
C186 C 0.50796 0.51953 0.05114 0.0
C187 C 0.48599 0.4511 0.04568 0.0
C188 C 0.49387 0.47459 0.04809 0.0
H189 H 0.5804 0.57968 0.04297 0.0
H190 H 0.57026 0.54066 0.04586 0.0
H191 H 0.46803 0.52018 0.0919 0.0
H192 H 0.41753 0.41663 0.03765 0.0
H193 H 0.43029 0.45526 0.04457 0.0
C194 C 0.54742 0.43089 0.49498 0.0
C195 C 0.51959 0.41629 0.49326 0.0
C196 C 0.54152 0.45324 0.49392 0.0
C197 C 0.47575 0.49499 0.47156 0.0
H198 H 0.52724 0.52974 0.53957 0.0
C199 C 0.43958 0.58366 0.50781 0.0
C200 C 0.46707 0.59832 0.51225 0.0
C201 C 0.44615 0.56154 0.50276 0.0
C202 C 0.51294 0.52033 0.5201 0.0
H203 H 0.46388 0.41358 0.48803 0.0
H204 H 0.45353 0.45256 0.48664 0.0
H205 H 0.53885 0.49107 0.53487 0.0
H206 H 0.52296 0.60143 0.51402 0.0
H207 H 0.53437 0.56299 0.50502 0.0
H208 H 0.4495 0.52435 0.45725 0.0
C209 C 0.47995 0.44679 0.48838 0.0
C210 C 0.51965 0.49815 0.51735 0.0
C211 C 0.48586 0.42445 0.48935 0.0
C212 C 0.5012 0.59052 0.51089 0.0
C213 C 0.50775 0.56847 0.50592 0.0
C214 C 0.46897 0.51722 0.47439 0.0
C215 C 0.50766 0.46146 0.49122 0.0
C216 C 0.50114 0.4852 0.49308 0.0
C217 C 0.48033 0.55369 0.50216 0.0
C218 C 0.4875 0.53012 0.49871 0.0
H219 H 0.57372 0.42507 0.49782 0.0
H220 H 0.56349 0.46409 0.49555 0.0
H221 H 0.46129 0.48552 0.45233 0.0
H222 H 0.41301 0.58922 0.50873 0.0
H223 H 0.42446 0.55053 0.50023 0.0
C224 C -0.00216 0.17118 0.15423 0.0
C225 C 0.02994 0.16408 0.14124 0.0
C226 C 0.99338 0.17523 0.19069 0.0
C227 C 0.03202 0.16118 0.27795 0.0
H228 H 0.9696 0.20561 0.31297 0.0
C229 C 0.00484 0.17239 0.42806 0.0
C230 C 0.96937 0.17114 0.43587 0.0
C231 C 0.01585 0.17559 0.39287 0.0
C232 C 0.98728 0.19323 0.3035 0.0
H233 H 0.08294 0.15651 0.15567 0.0
H234 H 0.07551 0.16414 0.2188 0.0
H235 H 0.98189 0.20322 0.24912 0.0
H236 H 0.91764 0.17351 0.41381 0.0
H237 H 0.93682 0.17934 0.35272 0.0
H238 H 0.03706 0.15107 0.33229 0.0
C239 C 0.05343 0.16598 0.20128 0.0
C240 C 0.99411 0.19174 0.26697 0.0
C241 C 0.05772 0.16168 0.16504 0.0
C242 C 0.94516 0.17426 0.40844 0.0
C243 C 0.95612 0.17778 0.37353 0.0
C244 C 0.02547 0.16282 0.31445 0.0
C245 C 0.0211 0.17249 0.21468 0.0
C246 C 0.016 0.17539 0.25369 0.0
C247 C 0.99152 0.17798 0.36526 0.0
C248 C 0.00246 0.17855 0.32747 0.0
H249 H 0.97603 0.17317 0.13639 0.0
H250 H 0.96799 0.17994 0.20014 0.0
H251 H 0.04858 0.14816 0.26869 0.0
H252 H 0.02397 0.17004 0.44881 0.0
H253 H 0.04332 0.17575 0.3871 0.0
C254 C 0.05764 0.82171 0.37971 0.0
C255 C 0.0273 0.8217 0.40039 0.0
C256 C 0.05642 0.81664 0.34346 0.0
C257 C 0.00063 0.79282 0.27285 0.0
H258 H 0.05157 0.83184 0.21097 0.0
C259 C 0.96067 0.81213 0.12963 0.0
C260 C 0.9861 0.8158 0.10356 0.0
C261 C 0.96997 0.80775 0.16477 0.0
C262 C 0.0378 0.82047 0.22782 0.0
H263 H 0.97207 0.81577 0.3997 0.0
H264 H 0.96969 0.80739 0.33601 0.0
H265 H 0.05928 0.83415 0.27527 0.0
H266 H 0.04123 0.81682 0.09328 0.0
H267 H 0.05771 0.80939 0.15537 0.0
H268 H 0.97801 0.77985 0.22521 0.0
C269 C -0.00544 0.81096 0.34795 0.0
C270 C 0.04215 0.82181 0.26473 0.0
C271 C -0.00417 0.81591 0.38436 0.0
C272 C 0.02115 0.81407 0.11293 0.0
C273 C 0.03053 0.80991 0.14839 0.0
C274 C -0.00381 0.79154 0.2359 0.0
C275 C 0.0248 0.81158 0.32698 0.0
C276 C 0.02299 0.80836 0.28773 0.0
C277 C 0.00495 0.80711 0.17475 0.0
C278 C 0.01407 0.80574 0.21309 0.0
H279 H 0.08237 0.82588 0.39146 0.0
H280 H 0.08026 0.8169 0.32824 0.0
H281 H 0.98602 0.78193 0.28978 0.0
H282 H 0.93342 0.81324 0.1231 0.0
H283 H 0.94966 0.80595 0.18448 0.0
C284 C 0.98278 0.80361 0.61141 0.0
C285 C 0.97972 0.82493 0.59865 0.0
C286 C 0.97594 0.79904 0.64732 0.0
C287 C 0.9356 0.82042 0.72921 0.0
H288 H 0.01766 0.79979 0.77826 0.0
C289 C 0.9617 0.84425 0.87275 0.0
C290 C 0.97442 0.82875 0.89677 0.0
C291 C 0.96024 0.83978 0.8364 0.0
C292 C -0.00573 0.80513 0.76501 0.0
H293 H 0.96482 0.85778 0.61208 0.0
H294 H 0.95163 0.8497 0.67425 0.0
H295 H 0.01448 0.79762 0.71315 0.0
H296 H -0.00309 0.79669 0.90158 0.0
H297 H -0.00563 0.78877 0.83738 0.0
H298 H 0.91571 0.82854 0.78071 0.0
C299 C 0.95959 0.83656 0.65688 0.0
C300 C 0.9924 0.80383 0.72778 0.0
C301 C 0.96717 0.8412 0.62136 0.0
C302 C 0.98717 0.80897 0.88353 0.0
C303 C 0.98556 0.80442 0.84689 0.0
C304 C 0.93734 0.82157 0.76632 0.0
C305 C 0.96515 0.81564 0.67052 0.0
C306 C 0.9636 0.81225 0.70954 0.0
C307 C 0.9712 0.8196 0.82311 0.0
C308 C 0.96729 0.81481 0.78451 0.0
H309 H 0.99286 0.79087 0.59438 0.0
H310 H 0.98037 0.78279 0.6573 0.0
H311 H 0.91298 0.8268 0.71575 0.0
H312 H 0.95198 0.85972 0.88216 0.0
H313 H 0.95008 0.8521 0.81868 0.0
C314 C 0.97871 0.17031 0.92425 0.0
C315 C 0.01264 0.17323 0.9365 0.0
C316 C 0.97062 0.17458 0.8885 0.0
C317 C 0.01569 0.17626 0.80186 0.0
H318 H 0.92592 0.19353 0.76567 0.0
C319 C 0.98677 0.17888 0.65119 0.0
C320 C 0.9563 0.16805 0.64129 0.0
C321 C 0.99315 0.1837 0.68706 0.0
C322 C 0.95114 0.18873 0.77548 0.0
H323 H 0.06384 0.18482 0.92275 0.0
H324 H 0.04947 0.19326 0.86117 0.0
H325 H 0.93735 0.19538 0.82981 0.0
H326 H 0.9082 0.1543 0.66085 0.0
H327 H 0.91946 0.16257 0.72325 0.0
H328 H 0.02931 0.16927 0.7478 0.0
C329 C 0.0294 0.18678 0.8783 0.0
C330 C 0.95764 0.18972 0.81216 0.0
C331 C 0.0376 0.18209 0.91359 0.0
C332 C 0.93202 0.16257 0.6677 0.0
C333 C 0.93827 0.1675 0.70342 0.0
C334 C 0.00927 0.17543 0.76531 0.0
C335 C -0.00372 0.18217 0.86485 0.0
C336 C 0.98986 0.18318 0.82581 0.0
C337 C 0.96902 0.17793 0.71352 0.0
C338 C 0.97677 0.18128 0.7518 0.0
H339 H 0.95913 0.16345 0.94158 0.0
H340 H 0.94488 0.17075 0.87901 0.0
H341 H 0.04055 0.17061 0.81139 0.0
H342 H 0.00579 0.18342 0.63132 0.0
H343 H 0.017 0.19186 0.69415 0.0
C344 C 0.56182 0.67701 0.16196 0.0
C345 C 0.53197 0.67645 0.14059 0.0
C346 C 0.55971 0.68276 0.19789 0.0
C347 C 0.5025 0.70777 0.26603 0.0
H348 H 0.55161 0.66955 0.3307 0.0
C349 C 0.45966 0.69139 0.40949 0.0
C350 C 0.48449 0.68719 0.43593 0.0
C351 C 0.4697 0.69544 0.37444 0.0
C352 C 0.53836 0.68072 0.3131 0.0
H353 H 0.47666 0.68213 0.13967 0.0
H354 H 0.47274 0.69178 0.20285 0.0
H355 H 0.56059 0.6661 0.26676 0.0
H356 H 0.5394 0.68509 0.44701 0.0
H357 H 0.55716 0.69208 0.38521 0.0
H358 H 0.47924 0.72177 0.31256 0.0
C359 C 0.4979 0.68808 0.19167 0.0
C360 C 0.54343 0.67871 0.27637 0.0
C361 C 0.50006 0.68241 0.15557 0.0
C362 C 0.51975 0.68826 0.42708 0.0
C363 C 0.52986 0.69214 0.39176 0.0
C364 C 0.49739 0.70976 0.30281 0.0
C365 C 0.52765 0.68798 0.21335 0.0
C366 C 0.52494 0.69186 0.25237 0.0
C367 C 0.50484 0.69525 0.36494 0.0
C368 C 0.51462 0.69587 0.32667 0.0
H369 H 0.58687 0.67273 0.15105 0.0
H370 H 0.58317 0.68288 0.21368 0.0
H371 H 0.48837 0.71841 0.24826 0.0
H372 H 0.43227 0.6908 0.41561 0.0
H373 H 0.44976 0.69752 0.35442 0.0
C374 C 0.48415 0.32083 0.39675 0.0
C375 C 0.51723 0.32313 0.41167 0.0
C376 C 0.48048 0.31416 0.36122 0.0
C377 C 0.52996 0.31583 0.27772 0.0
H378 H 0.4529 0.28274 0.24008 0.0
C379 C 0.50825 0.30974 0.12685 0.0
C380 C 0.47445 0.31529 0.11666 0.0
C381 C 0.51548 0.30449 0.16239 0.0
C382 C 0.47464 0.29194 0.25025 0.0
H383 H 0.57218 0.31864 0.40243 0.0
H384 H 0.56577 0.30657 0.34103 0.0
H385 H 0.46132 0.28516 0.30464 0.0
H386 H 0.42136 0.31829 0.13488 0.0
H387 H 0.43397 0.30946 0.19659 0.0
H388 H 0.54261 0.32335 0.2237 0.0
C389 C 0.54271 0.31051 0.35615 0.0
C390 C 0.47938 0.29338 0.28717 0.0
C391 C 0.54636 0.31738 0.39136 0.0
C392 C 0.44774 0.31424 0.14203 0.0
C393 C 0.45491 0.30895 0.17738 0.0
C394 C 0.52524 0.31439 0.24094 0.0
C395 C 0.50985 0.30952 0.34028 0.0
C396 C 0.50668 0.30574 0.3013 0.0
C397 C 0.48899 0.30463 0.18821 0.0
C398 C 0.49706 0.30289 0.22678 0.0
H399 H 0.4613 0.32514 0.41195 0.0
H400 H 0.4548 0.3137 0.34969 0.0
H401 H 0.55093 0.32579 0.28766 0.0
H402 H 0.52927 0.31029 0.10775 0.0
H403 H 0.54195 0.30097 0.16991 0.0
C404 C 0.49519 0.31449 0.89949 0.0
C405 C 0.49158 0.33514 0.91493 0.0
C406 C 0.50012 0.31243 0.86261 0.0
C407 C 0.52755 0.3422 0.78274 0.0
H408 H 0.45682 0.30993 0.73185 0.0
C409 C 0.4997 0.36109 0.63786 0.0
C410 C 0.49665 0.34368 0.61396 0.0
C411 C 0.49878 0.35751 0.6745 0.0
C412 C 0.47705 0.31873 0.74567 0.0
H413 H 0.49215 0.36972 0.90483 0.0
H414 H 0.50185 0.36616 0.84087 0.0
H415 H 0.46068 0.30721 0.797 0.0
H416 H 0.48803 0.30908 0.60931 0.0
H417 H 0.4866 0.30272 0.67391 0.0
H418 H 0.5437 0.35404 0.73191 0.0
C419 C 0.50055 0.35159 0.85695 0.0
C420 C 0.47934 0.3171 0.78286 0.0
C421 C 0.49493 0.35363 0.89349 0.0
C422 C 0.49021 0.32278 0.62728 0.0
C423 C 0.48956 0.31915 0.66418 0.0
C424 C 0.52541 0.34373 0.74574 0.0
C425 C 0.50233 0.331 0.84103 0.0
C426 C 0.50395 0.32937 0.80172 0.0
C427 C 0.49521 0.3364 0.68808 0.0
C428 C 0.4994 0.33262 0.72691 0.0
H429 H 0.49233 0.30001 0.91555 0.0
H430 H 0.5015 0.29639 0.85085 0.0
H431 H 0.54703 0.35159 0.79667 0.0
H432 H 0.50439 0.37739 0.62823 0.0
H433 H 0.50208 0.37124 0.69224 0.0
C434 C 0.48021 0.64924 0.91845 0.0
C435 C 0.48877 0.66648 0.94123 0.0
C436 C 0.47196 0.65315 0.88285 0.0
C437 C 0.49633 0.6883 0.81143 0.0
H438 H 0.42254 0.65932 0.7601 0.0
C439 C 0.48551 0.68766 0.6561 0.0
C440 C 0.47425 0.66802 0.64106 0.0
C441 C 0.48515 0.69053 0.69322 0.0
C442 C 0.44345 0.66741 0.77399 0.0
H443 H 0.49434 0.70135 0.94538 0.0
H444 H 0.48074 0.70819 0.88231 0.0
H445 H 0.42219 0.65953 0.82515 0.0
H446 H 0.45585 0.6356 0.65275 0.0
H447 H 0.45646 0.64023 0.71706 0.0
H448 H 0.5187 0.69514 0.76034 0.0
C449 C 0.47994 0.69172 0.89232 0.0
C450 C 0.443 0.66769 0.81119 0.0
C451 C 0.48741 0.68783 0.92832 0.0
C452 C 0.46436 0.65099 0.66364 0.0
C453 C 0.46431 0.65375 0.7005 0.0
C454 C 0.49701 0.68782 0.7741 0.0
C455 C 0.47288 0.67434 0.86918 0.0
C456 C 0.46989 0.67763 0.83024 0.0
C457 C 0.47372 0.67373 0.71576 0.0
C458 C 0.47112 0.67676 0.75502 0.0
H459 H 0.48125 0.63264 0.92784 0.0
H460 H 0.4669 0.63945 0.86548 0.0
H461 H 0.51755 0.6959 0.82559 0.0
H462 H 0.49303 0.7011 0.6392 0.0
H463 H 0.49261 0.70611 0.70413 0.0
C464 C 0.36157 0.28681 0.98669 0.0
C465 C 0.35992 0.30853 -0.00214 0.0
C466 C 0.33191 0.27399 0.9863 0.0
C467 C 0.24816 0.26965 0.03095 0.0
H468 H 0.23136 0.22486 0.96025 0.0
C469 C 0.1275 0.215 0.03406 0.0
C470 C 0.13255 0.19281 0.02732 0.0
C471 C 0.15433 0.22975 0.02886 0.0
C472 C 0.23593 0.23719 0.98033 0.0
H473 H 0.32576 0.33426 0.01562 0.0
H474 H 0.27356 0.31182 0.01461 0.0
H475 H 0.27861 0.25059 0.95139 0.0
H476 H 0.16961 0.16857 0.01011 0.0
H477 H 0.21684 0.19444 0.00123 0.0
H478 H 0.20573 0.25614 0.06005 0.0
C479 C 0.29798 0.30465 0.00667 0.0
C480 C 0.26286 0.25195 0.97521 0.0
C481 C 0.32775 0.31752 0.00703 0.0
C482 C 0.16506 0.18558 0.01557 0.0
C483 C 0.19194 0.2004 0.01022 0.0
C484 C 0.2212 0.25494 0.03601 0.0
C485 C 0.29993 0.28262 -0.00295 0.0
C486 C 0.26947 0.2682 0.00066 0.0
C487 C 0.18676 0.22263 0.01671 0.0
C488 C 0.21502 0.23844 0.01092 0.0
H489 H 0.38604 0.27945 0.97939 0.0
H490 H 0.33437 0.25704 0.97911 0.0
H491 H 0.25298 0.28172 0.05138 0.0
H492 H 0.10266 0.22106 0.04304 0.0
H493 H 0.14947 0.2468 0.03373 0.0
C494 C 0.66163 0.67911 0.00262 0.0
C495 C 0.6291 0.68904 0.00571 0.0
C496 C 0.69122 0.69169 -0.0031 0.0
C497 C 0.72049 0.7468 0.97021 0.0
H498 H 0.8 0.73306 0.02905 0.0
C499 C 0.83222 0.80707 -0.00262 0.0
C500 C 0.86587 0.79854 -0.00373 0.0
C501 C 0.80359 0.79326 -0.0048 0.0
C502 C 0.77815 0.73696 0.01214 0.0
H503 H 0.60172 0.71976 0.00404 0.0
H504 H 0.65314 0.74163 -0.00525 0.0
H505 H 0.74987 0.70917 0.02965 0.0
H506 H 0.89607 0.76898 0.99152 0.0
H507 H 0.84624 0.745 0.98777 0.0
H508 H 0.74864 0.77493 0.95345 0.0
C509 C 0.65596 0.72417 -0.00381 0.0
C510 C 0.74948 0.72322 0.01235 0.0
C511 C 0.62649 0.71163 0.0018 0.0
C512 C 0.87042 0.77603 0.99261 0.0
C513 C 0.84191 0.76227 0.99061 0.0
C514 C 0.74912 0.76061 0.97015 0.0
C515 C 0.68874 0.7144 -0.00577 0.0
C516 C 0.7202 0.72808 0.99164 0.0
C517 C 0.80822 0.77071 0.99208 0.0
C518 C 0.77812 0.75589 0.99131 0.0
H519 H 0.66433 0.6617 0.00536 0.0
H520 H 0.71608 0.68366 -0.005 0.0
H521 H 0.6985 0.75083 0.95357 0.0
H522 H 0.82801 0.82436 0.00015 0.0
H523 H 0.77785 0.80017 -0.00329 0.0
C524 C 0.15529 0.81959 0.54026 0.0
C525 C 0.12331 0.80896 0.5373 0.0
C526 C 0.18551 0.80767 0.54639 0.0
C527 C 0.21731 0.75327 0.57428 0.0
H528 H 0.2962 0.76779 0.51499 0.0
C529 C 0.32932 0.69375 0.54471 0.0
C530 C 0.36295 0.70231 0.54545 0.0
C531 C 0.30068 0.70749 0.5478 0.0
C532 C 0.27454 0.76369 0.53205 0.0
H533 H 0.09757 0.77772 0.53963 0.0
H534 H 0.15003 0.75701 0.5496 0.0
H535 H 0.24534 0.7911 0.51447 0.0
H536 H 0.39312 0.73186 0.5505 0.0
H537 H 0.34321 0.75575 0.55572 0.0
H538 H 0.24631 0.72545 0.59094 0.0
C539 C 0.15197 0.7745 0.54776 0.0
C540 C 0.24545 0.7771 0.53189 0.0
C541 C 0.12188 0.78637 0.54174 0.0
C542 C 0.36747 0.72478 0.54971 0.0
C543 C 0.33893 0.73849 0.55256 0.0
C544 C 0.24634 0.73978 0.57425 0.0
C545 C 0.1842 0.78494 0.54964 0.0
C546 C 0.21633 0.77189 0.55264 0.0
C547 C 0.30527 0.73001 0.55142 0.0
C548 C 0.27507 0.74475 0.55283 0.0
H549 H 0.15708 0.83701 0.53709 0.0
H550 H 0.20993 0.81621 0.54817 0.0
H551 H 0.1955 0.74899 0.591 0.0
H552 H 0.32512 0.67649 0.54149 0.0
H553 H 0.27496 0.70056 0.54651 0.0
C554 C 0.61853 0.29262 0.54369 0.0
C555 C 0.62263 0.31458 0.53478 0.0
C556 C 0.64724 0.27914 0.54712 0.0
C557 C 0.73707 0.27419 0.51675 0.0
H558 H 0.74045 0.2278 0.58654 0.0
C559 C 0.85545 0.21853 0.53333 0.0
C560 C 0.84894 0.19621 0.53661 0.0
C561 C 0.82835 0.23341 0.53458 0.0
C562 C 0.73967 0.24058 0.56675 0.0
H563 H 0.65997 0.33992 0.52377 0.0
H564 H 0.7105 0.31633 0.5303 0.0
H565 H 0.69307 0.25397 0.58833 0.0
H566 H 0.80908 0.17188 0.54379 0.0
H567 H 0.76141 0.19804 0.54598 0.0
H568 H 0.78366 0.26078 0.49519 0.0
C569 C 0.68494 0.30949 0.53405 0.0
C570 C 0.71262 0.25558 0.56779 0.0
C571 C 0.6561 0.32302 0.53054 0.0
C572 C 0.81478 0.18901 0.54116 0.0
C573 C 0.7876 0.20396 0.54264 0.0
C574 C 0.76419 0.25927 0.51584 0.0
C575 C 0.68075 0.28732 0.54184 0.0
C576 C 0.71085 0.27243 0.54258 0.0
C577 C 0.79418 0.2263 0.53932 0.0
C578 C 0.76559 0.24223 0.54064 0.0
H579 H 0.59302 0.28564 0.54712 0.0
H580 H 0.64303 0.2621 0.55266 0.0
H581 H 0.73613 0.28673 0.49656 0.0
H582 H 0.88155 0.22457 0.52986 0.0
H583 H 0.83421 0.25054 0.53233 0.0
loop_
_geom_bond_atom_site_label_1
_geom_bond_atom_site_label_2
_geom_bond_distance
_geom_bond_site_symmetry_2
_ccdc_geom_bond_type
In0 O1 2.294 . S
In0 O2 2.326 . S
In0 O6 2.277 1_554 S
In0 O7 2.326 1_554 S
In0 O8 2.266 . S
In0 O9 2.326 . S
In0 O11 2.294 . S
In0 O12 2.326 . S
O1 In0 2.294 . S
O1 C10 1.240 . S
O2 In0 2.326 . S
O2 C10 1.252 . S
C3 O6 1.260 . S
C3 O7 1.260 . S
C4 O11 1.240 . S
C4 O12 1.252 . S
C5 O8 1.252 . S
C5 O9 1.260 . S
O6 In0 2.277 1_556 S
O6 C3 1.260 . S
O7 In0 2.326 1_556 S
O7 C3 1.260 . S
O8 In0 2.266 . S
O8 C5 1.252 . S
O9 In0 2.326 . S
O9 C5 1.260 . S
C10 O1 1.240 . S
C10 O2 1.252 . S
O11 In0 2.294 . S
O11 C4 1.240 . S
O12 In0 2.326 . S
O12 C4 1.252 . S
In13 O14 2.294 . S
In13 O15 2.326 . S
In13 O19 2.266 . S
In13 O20 2.326 . S
In13 O21 2.277 1_554 S
In13 O22 2.326 1_554 S
In13 O24 2.294 . S
In13 O25 2.326 . S
O14 In13 2.294 . S
O14 C23 1.240 . S
O15 In13 2.326 . S
O15 C23 1.252 . S
C16 O19 1.252 . S
C16 O20 1.260 . S
C17 O24 1.240 . S
C17 O25 1.252 . S
C18 O21 1.260 . S
C18 O22 1.260 . S
O19 In13 2.266 . S
O19 C16 1.252 . S
O20 In13 2.326 . S
O20 C16 1.260 . S
O21 In13 2.277 1_556 S
O21 C18 1.260 . S
O22 In13 2.326 1_556 S
O22 C18 1.260 . S
C23 O14 1.240 . S
C23 O15 1.252 . S
O24 In13 2.294 . S
O24 C17 1.240 . S
O25 In13 2.326 . S
O25 C17 1.252 . S
In26 O27 2.294 . S
In26 O28 2.326 . S
In26 O32 2.277 . S
In26 O33 2.326 . S
In26 O34 2.266 . S
In26 O35 2.326 . S
In26 O37 2.294 . S
In26 O38 2.326 . S
O27 In26 2.294 . S
O27 C36 1.240 . S
O28 In26 2.326 . S
O28 C36 1.252 . S
C29 O32 1.260 . S
C29 O33 1.260 . S
C30 O37 1.240 . S
C30 O38 1.252 . S
C31 O34 1.252 . S
C31 O35 1.260 . S
O32 In26 2.277 . S
O32 C29 1.260 . S
O33 In26 2.326 . S
O33 C29 1.260 . S
O34 In26 2.266 . S
O34 C31 1.252 . S
O35 In26 2.326 . S
O35 C31 1.260 . S
C36 O27 1.240 . S
C36 O28 1.252 . S
O37 In26 2.294 . S
O37 C30 1.240 . S
O38 In26 2.326 . S
O38 C30 1.252 . S
In39 O40 2.294 . S
In39 O41 2.326 . S
In39 O45 2.277 . S
In39 O46 2.326 . S
In39 O47 2.266 . S
In39 O48 2.326 . S
In39 O50 2.294 . S
In39 O51 2.326 . S
O40 In39 2.294 . S
O40 C49 1.240 . S
O41 In39 2.326 . S
O41 C49 1.252 . S
C42 O45 1.260 . S
C42 O46 1.260 . S
C43 O50 1.240 . S
C43 O51 1.252 . S
C44 O47 1.252 . S
C44 O48 1.260 . S
O45 In39 2.277 . S
O45 C42 1.260 . S
O46 In39 2.326 . S
O46 C42 1.260 . S
O47 In39 2.266 . S
O47 C44 1.252 . S
O48 In39 2.326 . S
O48 C44 1.260 . S
C49 O40 1.240 . S
C49 O41 1.252 . S
O50 In39 2.294 . S
O50 C43 1.240 . S
O51 In39 2.326 . S
O51 C43 1.252 . S
In52 O53 2.294 . S
In52 O54 2.326 . S
In52 O58 2.266 . S
In52 O59 2.326 . S
In52 O60 2.266 1_554 S
In52 O61 2.326 1_554 S
In52 O63 2.294 . S
In52 O64 2.326 . S
O53 In52 2.294 . S
O53 C62 1.240 . S
O54 In52 2.326 . S
O54 C62 1.252 . S
C55 O58 1.252 . S
C55 O59 1.260 . S
C56 O63 1.240 . S
C56 O64 1.252 . S
C57 O60 1.252 . S
C57 O61 1.260 . S
O58 In52 2.266 . S
O58 C55 1.252 . S
O59 In52 2.326 . S
O59 C55 1.260 . S
O60 In52 2.266 1_556 S
O60 C57 1.252 . S
O61 In52 2.326 1_556 S
O61 C57 1.260 . S
C62 O53 1.240 . S
C62 O54 1.252 . S
O63 In52 2.294 . S
O63 C56 1.240 . S
O64 In52 2.326 . S
O64 C56 1.252 . S
In65 O66 2.294 . S
In65 O67 2.326 . S
In65 O71 2.266 1_554 S
In65 O72 2.326 1_554 S
In65 O73 2.266 . S
In65 O74 2.326 . S
In65 O76 2.294 . S
In65 O77 2.326 . S
O66 In65 2.294 . S
O66 C75 1.240 . S
O67 In65 2.326 . S
O67 C75 1.252 . S
C68 O71 1.252 . S
C68 O72 1.260 . S
C69 O76 1.240 . S
C69 O77 1.252 . S
C70 O73 1.252 . S
C70 O74 1.260 . S
O71 In65 2.266 1_556 S
O71 C68 1.252 . S
O72 In65 2.326 1_556 S
O72 C68 1.260 . S
O73 In65 2.266 . S
O73 C70 1.252 . S
O74 In65 2.326 . S
O74 C70 1.260 . S
C75 O66 1.240 . S
C75 O67 1.252 . S
O76 In65 2.294 . S
O76 C69 1.240 . S
O77 In65 2.326 . S
O77 C69 1.252 . S
In78 O79 2.294 . S
In78 O80 2.326 . S
In78 O84 2.266 . S
In78 O85 2.326 . S
In78 O86 2.266 . S
In78 O87 2.326 . S
In78 O89 2.294 . S
In78 O90 2.326 . S
O79 In78 2.294 . S
O79 C88 1.240 . S
O80 In78 2.326 . S
O80 C88 1.252 . S
C81 O84 1.252 . S
C81 O85 1.260 . S
C82 O89 1.240 . S
C82 O90 1.252 . S
C83 O86 1.252 . S
C83 O87 1.260 . S
O84 In78 2.266 . S
O84 C81 1.252 . S
O85 In78 2.326 . S
O85 C81 1.260 . S
O86 In78 2.266 . S
O86 C83 1.252 . S
O87 In78 2.326 . S
O87 C83 1.260 . S
C88 O79 1.240 . S
C88 O80 1.252 . S
O89 In78 2.294 . S
O89 C82 1.240 . S
O90 In78 2.326 . S
O90 C82 1.252 . S
In91 O92 2.294 . S
In91 O93 2.326 . S
In91 O97 2.266 . S
In91 O98 2.326 . S
In91 O99 2.266 . S
In91 O100 2.326 . S
In91 O102 2.294 . S
In91 O103 2.326 . S
O92 In91 2.294 . S
O92 C101 1.240 . S
O93 In91 2.326 . S
O93 C101 1.252 . S
C94 O97 1.252 . S
C94 O98 1.260 . S
C95 O102 1.240 . S
C95 O103 1.252 . S
C96 O99 1.252 . S
C96 O100 1.260 . S
O97 In91 2.266 . S
O97 C94 1.252 . S
O98 In91 2.326 . S
O98 C94 1.260 . S
O99 In91 2.266 . S
O99 C96 1.252 . S
O100 In91 2.326 . S
O100 C96 1.260 . S
C101 O92 1.240 . S
C101 O93 1.252 . S
O102 In91 2.294 . S
O102 C95 1.240 . S
O103 In91 2.326 . S
O103 C95 1.252 . S
C104 C105 1.349 . S
C104 C106 1.324 1_655 S
C104 H129 0.950 1_655 S
C105 C104 1.349 . S
C105 C121 1.349 1_554 S
C106 C104 1.324 1_455 S
C106 C125 1.422 1_455 S
C106 H130 0.960 . S
C107 C124 1.574 1_565 S
C107 C126 1.368 1_556 S
C107 H131 0.949 . S
H108 C112 0.949 . S
C109 C110 1.349 1_556 S
C109 C111 1.324 1_455 S
C109 H132 0.950 1_455 S
C110 C109 1.349 1_554 S
C110 C122 1.349 . S
C111 C109 1.324 1_655 S
C111 C127 1.422 1_656 S
C111 H133 0.960 . S
C112 H108 0.949 . S
C112 C120 1.574 1_545 S
C112 C128 1.368 . S
H113 C121 0.950 . S
H114 C119 0.950 . S
H115 C120 0.949 . S
H116 C122 0.950 . S
H117 C123 0.950 . S
H118 C124 0.949 . S
C119 H114 0.950 . S
C119 C121 1.327 . S
C119 C125 1.429 1_556 S
C120 C112 1.574 1_565 S
C120 H115 0.949 . S
C120 C126 1.368 1_455 S
C121 C105 1.349 1_556 S
C121 H113 0.950 . S
C121 C119 1.327 . S
C122 C110 1.349 . S
C122 H116 0.950 . S
C122 C123 1.327 . S
C123 H117 0.950 . S
C123 C122 1.327 . S
C123 C127 1.429 . S
C124 C107 1.574 1_545 S
C124 H118 0.949 . S
C124 C128 1.368 1_656 S
C125 C106 1.422 1_655 S
C125 C119 1.429 1_554 S
C125 C126 1.523 . S
C126 C107 1.368 1_554 S
C126 C120 1.368 1_655 S
C126 C125 1.523 . S
C127 C111 1.422 1_454 S
C127 C123 1.429 . S
C127 C128 1.523 . S
C128 C112 1.368 . S
C128 C124 1.368 1_454 S
C128 C127 1.523 . S
H129 C104 0.950 1_455 S
H130 C106 0.960 . S
H131 C107 0.949 . S
H132 C109 0.950 1_655 S
H133 C111 0.960 . S
C134 C135 1.349 . S
C134 C136 1.327 . S
C134 H159 0.950 . S
C135 C134 1.349 . S
C135 C151 1.349 . S
C136 C134 1.327 . S
C136 C155 1.429 . S
C136 H160 0.950 . S
C137 C154 1.574 1_565 S
C137 C156 1.368 1_655 S
C137 H161 0.949 . S
H138 C142 0.949 . S
C139 C140 1.349 . S
C139 C141 1.327 . S
C139 H162 0.950 . S
C140 C139 1.349 . S
C140 C152 1.349 . S
C141 C139 1.327 . S
C141 C157 1.429 . S
C141 H163 0.950 . S
C142 H138 0.949 . S
C142 C150 1.574 1_545 S
C142 C158 1.368 1_455 S
H143 C151 0.950 1_655 S
H144 C149 0.960 . S
H145 C150 0.949 . S
H146 C152 0.950 1_455 S
H147 C153 0.960 . S
H148 C154 0.949 . S
C149 H144 0.960 . S
C149 C151 1.324 1_655 S
C149 C155 1.422 1_655 S
C150 C142 1.574 1_565 S
C150 H145 0.949 . S
C150 C156 1.368 . S
C151 C135 1.349 . S
C151 H143 0.950 1_455 S
C151 C149 1.324 1_455 S
C152 C140 1.349 . S
C152 H146 0.950 1_655 S
C152 C153 1.324 1_655 S
C153 H147 0.960 . S
C153 C152 1.324 1_455 S
C153 C157 1.422 1_455 S
C154 C137 1.574 1_545 S
C154 H148 0.949 . S
C154 C158 1.368 . S
C155 C136 1.429 . S
C155 C149 1.422 1_455 S
C155 C156 1.523 . S
C156 C137 1.368 1_455 S
C156 C150 1.368 . S
C156 C155 1.523 . S
C157 C141 1.429 . S
C157 C153 1.422 1_655 S
C157 C158 1.523 . S
C158 C142 1.368 1_655 S
C158 C154 1.368 . S
C158 C157 1.523 . S
H159 C134 0.950 . S
H160 C136 0.950 . S
H161 C137 0.949 . S
H162 C139 0.950 . S
H163 C141 0.950 . S
C164 C165 1.349 1_556 S
C164 C166 1.327 . S
C164 H189 0.950 . S
C165 C164 1.349 1_554 S
C165 C181 1.349 . S
C166 C164 1.327 . S
C166 C185 1.429 1_556 S
C166 H190 0.950 . S
C167 C184 1.574 . S
C167 C186 1.368 . S
C167 H191 0.949 . S
H168 C172 0.949 . S
C169 C170 1.349 . S
C169 C171 1.327 . S
C169 H192 0.950 . S
C170 C169 1.349 . S
C170 C182 1.349 1_554 S
C171 C169 1.327 . S
C171 C187 1.429 . S
C171 H193 0.950 . S
C172 H168 0.949 . S
C172 C180 1.574 . S
C172 C188 1.368 1_556 S
H173 C181 0.950 . S
H174 C179 0.950 . S
H175 C180 0.949 . S
H176 C182 0.950 . S
H177 C183 0.950 . S
H178 C184 0.949 . S
C179 H174 0.950 . S
C179 C181 1.327 . S
C179 C185 1.429 . S
C180 C172 1.574 . S
C180 H175 0.949 . S
C180 C186 1.368 1_556 S
C181 C165 1.349 . S
C181 H173 0.950 . S
C181 C179 1.327 . S
C182 C170 1.349 1_556 S
C182 H176 0.950 . S
C182 C183 1.327 . S
C183 H177 0.950 . S
C183 C182 1.327 . S
C183 C187 1.429 1_556 S
C184 C167 1.574 . S
C184 H178 0.949 . S
C184 C188 1.368 . S
C185 C166 1.429 1_554 S
C185 C179 1.429 . S
C185 C186 1.523 . S
C186 C167 1.368 . S
C186 C180 1.368 1_554 S
C186 C185 1.523 . S
C187 C171 1.429 . S
C187 C183 1.429 1_554 S
C187 C188 1.523 . S
C188 C172 1.368 1_554 S
C188 C184 1.368 . S
C188 C187 1.523 . S
H189 C164 0.950 . S
H190 C166 0.950 . S
H191 C167 0.949 . S
H192 C169 0.950 . S
H193 C171 0.950 . S
C194 C195 1.349 . S
C194 C196 1.327 . S
C194 H219 0.950 . S
C195 C194 1.349 . S
C195 C211 1.349 . S
C196 C194 1.327 . S
C196 C215 1.429 . S
C196 H220 0.950 . S
C197 C214 1.574 . S
C197 C216 1.368 . S
C197 H221 0.949 . S
H198 C202 0.949 . S
C199 C200 1.349 . S
C199 C201 1.327 . S
C199 H222 0.950 . S
C200 C199 1.349 . S
C200 C212 1.349 . S
C201 C199 1.327 . S
C201 C217 1.429 . S
C201 H223 0.950 . S
C202 H198 0.949 . S
C202 C210 1.574 . S
C202 C218 1.368 . S
H203 C211 0.950 . S
H204 C209 0.950 . S
H205 C210 0.949 . S
H206 C212 0.950 . S
H207 C213 0.950 . S
H208 C214 0.949 . S
C209 H204 0.950 . S
C209 C211 1.327 . S
C209 C215 1.429 . S
C210 C202 1.574 . S
C210 H205 0.949 . S
C210 C216 1.368 . S
C211 C195 1.349 . S
C211 H203 0.950 . S
C211 C209 1.327 . S
C212 C200 1.349 . S
C212 H206 0.950 . S
C212 C213 1.327 . S
C213 H207 0.950 . S
C213 C212 1.327 . S
C213 C217 1.429 . S
C214 C197 1.574 . S
C214 H208 0.949 . S
C214 C218 1.368 . S
C215 C196 1.429 . S
C215 C209 1.429 . S
C215 C216 1.523 . S
C216 C197 1.368 . S
C216 C210 1.368 . S
C216 C215 1.523 . S
C217 C201 1.429 . S
C217 C213 1.429 . S
C217 C218 1.523 . S
C218 C202 1.368 . S
C218 C214 1.368 . S
C218 C217 1.523 . S
H219 C194 0.950 . S
H220 C196 0.950 . S
H221 C197 0.949 . S
H222 C199 0.950 . S
H223 C201 0.950 . S
C224 C225 1.349 1_655 S
C224 C226 1.327 . S
C224 H249 0.950 . S
C225 C224 1.349 1_455 S
C225 C241 1.349 . S
C226 C224 1.327 . S
C226 C245 1.429 1_655 S
C226 H250 0.950 . S
C227 C244 1.574 . S
C227 C246 1.368 . S
C227 H251 0.949 . S
H228 C232 0.949 . S
C229 C230 1.349 1_455 S
C229 C231 1.327 . S
C229 H252 0.950 . S
C230 C229 1.349 1_655 S
C230 C242 1.349 . S
C231 C229 1.327 . S
C231 C247 1.429 1_455 S
C231 H253 0.950 . S
C232 H228 0.949 . S
C232 C240 1.574 . S
C232 C248 1.368 . S
H233 C241 0.950 . S
H234 C239 0.950 . S
H235 C240 0.949 . S
H236 C242 0.950 . S
H237 C243 0.950 . S
H238 C244 0.949 . S
C239 H234 0.950 . S
C239 C241 1.327 . S
C239 C245 1.429 . S
C240 C232 1.574 . S
C240 H235 0.949 . S
C240 C246 1.368 1_655 S
C241 C225 1.349 . S
C241 H233 0.950 . S
C241 C239 1.327 . S
C242 C230 1.349 . S
C242 H236 0.950 . S
C242 C243 1.327 . S
C243 H237 0.950 . S
C243 C242 1.327 . S
C243 C247 1.429 . S
C244 C227 1.574 . S
C244 H238 0.949 . S
C244 C248 1.368 1_455 S
C245 C226 1.429 1_455 S
C245 C239 1.429 . S
C245 C246 1.523 . S
C246 C227 1.368 . S
C246 C240 1.368 1_455 S
C246 C245 1.523 . S
C247 C231 1.429 1_655 S
C247 C243 1.429 . S
C247 C248 1.523 . S
C248 C232 1.368 . S
C248 C244 1.368 1_655 S
C248 C247 1.523 . S
H249 C224 0.950 . S
H250 C226 0.950 . S
H251 C227 0.949 . S
H252 C229 0.950 . S
H253 C231 0.950 . S
C254 C255 1.349 . S
C254 C256 1.327 . S
C254 H279 0.950 . S
C255 C254 1.349 . S
C255 C271 1.349 1_455 S
C256 C254 1.327 . S
C256 C275 1.429 . S
C256 H280 0.950 . S
C257 C274 1.574 . S
C257 C276 1.368 1_655 S
C257 H281 0.949 . S
H258 C262 0.949 . S
C259 C260 1.349 . S
C259 C261 1.327 . S
C259 H282 0.950 . S
C260 C259 1.349 . S
C260 C272 1.349 1_655 S
C261 C259 1.327 . S
C261 C277 1.429 . S
C261 H283 0.950 . S
C262 H258 0.949 . S
C262 C270 1.574 . S
C262 C278 1.368 1_455 S
H263 C271 0.950 . S
H264 C269 0.950 . S
H265 C270 0.949 . S
H266 C272 0.950 . S
H267 C273 0.950 . S
H268 C274 0.949 . S
C269 H264 0.950 . S
C269 C271 1.327 . S
C269 C275 1.429 1_655 S
C270 C262 1.574 . S
C270 H265 0.949 . S
C270 C276 1.368 . S
C271 C255 1.349 1_655 S
C271 H263 0.950 . S
C271 C269 1.327 . S
C272 C260 1.349 1_455 S
C272 H266 0.950 . S
C272 C273 1.327 . S
C273 H267 0.950 . S
C273 C272 1.327 . S
C273 C277 1.429 1_455 S
C274 C257 1.574 . S
C274 H268 0.949 . S
C274 C278 1.368 . S
C275 C256 1.429 . S
C275 C269 1.429 1_455 S
C275 C276 1.523 . S
C276 C257 1.368 1_455 S
C276 C270 1.368 . S
C276 C275 1.523 . S
C277 C261 1.429 . S
C277 C273 1.429 1_655 S
C277 C278 1.523 . S
C278 C262 1.368 1_655 S
C278 C274 1.368 . S
C278 C277 1.523 . S
H279 C254 0.950 . S
H280 C256 0.950 . S
H281 C257 0.949 . S
H282 C259 0.950 . S
H283 C261 0.950 . S
C284 C285 1.349 . S
C284 C286 1.327 . S
C284 H309 0.950 . S
C285 C284 1.349 . S
C285 C301 1.349 1_455 S
C286 C284 1.327 . S
C286 C305 1.429 . S
C286 H310 0.950 . S
C287 C304 1.574 . S
C287 C306 1.368 1_655 S
C287 H311 0.949 . S
H288 C292 0.949 . S
C289 C290 1.349 . S
C289 C291 1.327 . S
C289 H312 0.950 . S
C290 C289 1.349 . S
C290 C302 1.349 1_655 S
C291 C289 1.327 . S
C291 C307 1.429 . S
C291 H313 0.950 . S
C292 H288 0.949 . S
C292 C300 1.574 . S
C292 C308 1.368 1_455 S
H293 C301 0.950 . S
H294 C299 0.950 . S
H295 C300 0.949 . S
H296 C302 0.950 . S
H297 C303 0.950 . S
H298 C304 0.949 . S
C299 H294 0.950 . S
C299 C301 1.327 . S
C299 C305 1.429 1_655 S
C300 C292 1.574 . S
C300 H295 0.949 . S
C300 C306 1.368 . S
C301 C285 1.349 1_655 S
C301 H293 0.950 . S
C301 C299 1.327 . S
C302 C290 1.349 1_455 S
C302 H296 0.950 . S
C302 C303 1.327 . S
C303 H297 0.950 . S
C303 C302 1.327 . S
C303 C307 1.429 1_455 S
C304 C287 1.574 . S
C304 H298 0.949 . S
C304 C308 1.368 . S
C305 C286 1.429 . S
C305 C299 1.429 1_455 S
C305 C306 1.523 . S
C306 C287 1.368 1_455 S
C306 C300 1.368 . S
C306 C305 1.523 . S
C307 C291 1.429 . S
C307 C303 1.429 1_655 S
C307 C308 1.523 . S
C308 C292 1.368 1_655 S
C308 C304 1.368 . S
C308 C307 1.523 . S
H309 C284 0.950 . S
H310 C286 0.950 . S
H311 C287 0.949 . S
H312 C289 0.950 . S
H313 C291 0.950 . S
C314 C315 1.349 1_655 S
C314 C316 1.327 . S
C314 H339 0.950 . S
C315 C314 1.349 1_455 S
C315 C331 1.349 . S
C316 C314 1.327 . S
C316 C335 1.429 1_655 S
C316 H340 0.950 . S
C317 C334 1.574 . S
C317 C336 1.368 . S
C317 H341 0.949 . S
H318 C322 0.949 . S
C319 C320 1.349 1_455 S
C319 C321 1.327 . S
C319 H342 0.950 . S
C320 C319 1.349 1_655 S
C320 C332 1.349 . S
C321 C319 1.327 . S
C321 C337 1.429 1_455 S
C321 H343 0.950 . S
C322 H318 0.949 . S
C322 C330 1.574 . S
C322 C338 1.368 . S
H323 C331 0.950 . S
H324 C329 0.950 . S
H325 C330 0.949 . S
H326 C332 0.950 . S
H327 C333 0.950 . S
H328 C334 0.949 . S
C329 H324 0.950 . S
C329 C331 1.327 . S
C329 C335 1.429 . S
C330 C322 1.574 . S
C330 H325 0.949 . S
C330 C336 1.368 1_655 S
C331 C315 1.349 . S
C331 H323 0.950 . S
C331 C329 1.327 . S
C332 C320 1.349 . S
C332 H326 0.950 . S
C332 C333 1.327 . S
C333 H327 0.950 . S
C333 C332 1.327 . S
C333 C337 1.429 . S
C334 C317 1.574 . S
C334 H328 0.949 . S
C334 C338 1.368 1_455 S
C335 C316 1.429 1_455 S
C335 C329 1.429 . S
C335 C336 1.523 . S
C336 C317 1.368 . S
C336 C330 1.368 1_455 S
C336 C335 1.523 . S
C337 C321 1.429 1_655 S
C337 C333 1.429 . S
C337 C338 1.523 . S
C338 C322 1.368 . S
C338 C334 1.368 1_655 S
C338 C337 1.523 . S
H339 C314 0.950 . S
H340 C316 0.950 . S
H341 C317 0.949 . S
H342 C319 0.950 . S
H343 C321 0.950 . S
C344 C345 1.349 . S
C344 C346 1.327 . S
C344 H369 0.950 . S
C345 C344 1.349 . S
C345 C361 1.349 . S
C346 C344 1.327 . S
C346 C365 1.429 . S
C346 H370 0.950 . S
C347 C364 1.574 . S
C347 C366 1.368 . S
C347 H371 0.949 . S
H348 C352 0.949 . S
C349 C350 1.349 . S
C349 C351 1.327 . S
C349 H372 0.950 . S
C350 C349 1.349 . S
C350 C362 1.349 . S
C351 C349 1.327 . S
C351 C367 1.429 . S
C351 H373 0.950 . S
C352 H348 0.949 . S
C352 C360 1.574 . S
C352 C368 1.368 . S
H353 C361 0.950 . S
H354 C359 0.950 . S
H355 C360 0.949 . S
H356 C362 0.950 . S
H357 C363 0.950 . S
H358 C364 0.949 . S
C359 H354 0.950 . S
C359 C361 1.327 . S
C359 C365 1.429 . S
C360 C352 1.574 . S
C360 H355 0.949 . S
C360 C366 1.368 . S
C361 C345 1.349 . S
C361 H353 0.950 . S
C361 C359 1.327 . S
C362 C350 1.349 . S
C362 H356 0.950 . S
C362 C363 1.327 . S
C363 H357 0.950 . S
C363 C362 1.327 . S
C363 C367 1.429 . S
C364 C347 1.574 . S
C364 H358 0.949 . S
C364 C368 1.368 . S
C365 C346 1.429 . S
C365 C359 1.429 . S
C365 C366 1.523 . S
C366 C347 1.368 . S
C366 C360 1.368 . S
C366 C365 1.523 . S
C367 C351 1.429 . S
C367 C363 1.429 . S
C367 C368 1.523 . S
C368 C352 1.368 . S
C368 C364 1.368 . S
C368 C367 1.523 . S
H369 C344 0.950 . S
H370 C346 0.950 . S
H371 C347 0.949 . S
H372 C349 0.950 . S
H373 C351 0.950 . S
C374 C375 1.349 . S
C374 C376 1.327 . S
C374 H399 0.950 . S
C375 C374 1.349 . S
C375 C391 1.349 . S
C376 C374 1.327 . S
C376 C395 1.429 . S
C376 H400 0.950 . S
C377 C394 1.574 . S
C377 C396 1.368 . S
C377 H401 0.949 . S
H378 C382 0.949 . S
C379 C380 1.349 . S
C379 C381 1.327 . S
C379 H402 0.950 . S
C380 C379 1.349 . S
C380 C392 1.349 . S
C381 C379 1.327 . S
C381 C397 1.429 . S
C381 H403 0.950 . S
C382 H378 0.949 . S
C382 C390 1.574 . S
C382 C398 1.368 . S
H383 C391 0.950 . S
H384 C389 0.950 . S
H385 C390 0.949 . S
H386 C392 0.950 . S
H387 C393 0.950 . S
H388 C394 0.949 . S
C389 H384 0.950 . S
C389 C391 1.327 . S
C389 C395 1.429 . S
C390 C382 1.574 . S
C390 H385 0.949 . S
C390 C396 1.368 . S
C391 C375 1.349 . S
C391 H383 0.950 . S
C391 C389 1.327 . S
C392 C380 1.349 . S
C392 H386 0.950 . S
C392 C393 1.327 . S
C393 H387 0.950 . S
C393 C392 1.327 . S
C393 C397 1.429 . S
C394 C377 1.574 . S
C394 H388 0.949 . S
C394 C398 1.368 . S
C395 C376 1.429 . S
C395 C389 1.429 . S
C395 C396 1.523 . S
C396 C377 1.368 . S
C396 C390 1.368 . S
C396 C395 1.523 . S
C397 C381 1.429 . S
C397 C393 1.429 . S
C397 C398 1.523 . S
C398 C382 1.368 . S
C398 C394 1.368 . S
C398 C397 1.523 . S
H399 C374 0.950 . S
H400 C376 0.950 . S
H401 C377 0.949 . S
H402 C379 0.950 . S
H403 C381 0.950 . S
C404 C405 1.349 . S
C404 C406 1.327 . S
C404 H429 0.950 . S
C405 C404 1.349 . S
C405 C421 1.349 . S
C406 C404 1.327 . S
C406 C425 1.429 . S
C406 H430 0.950 . S
C407 C424 1.574 . S
C407 C426 1.368 . S
C407 H431 0.949 . S
H408 C412 0.949 . S
C409 C410 1.349 . S
C409 C411 1.327 . S
C409 H432 0.950 . S
C410 C409 1.349 . S
C410 C422 1.349 . S
C411 C409 1.327 . S
C411 C427 1.429 . S
C411 H433 0.950 . S
C412 H408 0.949 . S
C412 C420 1.574 . S
C412 C428 1.368 . S
H413 C421 0.950 . S
H414 C419 0.950 . S
H415 C420 0.949 . S
H416 C422 0.950 . S
H417 C423 0.950 . S
H418 C424 0.949 . S
C419 H414 0.950 . S
C419 C421 1.327 . S
C419 C425 1.429 . S
C420 C412 1.574 . S
C420 H415 0.949 . S
C420 C426 1.368 . S
C421 C405 1.349 . S
C421 H413 0.950 . S
C421 C419 1.327 . S
C422 C410 1.349 . S
C422 H416 0.950 . S
C422 C423 1.327 . S
C423 H417 0.950 . S
C423 C422 1.327 . S
C423 C427 1.429 . S
C424 C407 1.574 . S
C424 H418 0.949 . S
C424 C428 1.368 . S
C425 C406 1.429 . S
C425 C419 1.429 . S
C425 C426 1.523 . S
C426 C407 1.368 . S
C426 C420 1.368 . S
C426 C425 1.523 . S
C427 C411 1.429 . S
C427 C423 1.429 . S
C427 C428 1.523 . S
C428 C412 1.368 . S
C428 C424 1.368 . S
C428 C427 1.523 . S
H429 C404 0.950 . S
H430 C406 0.950 . S
H431 C407 0.949 . S
H432 C409 0.950 . S
H433 C411 0.950 . S
C434 C435 1.349 . S
C434 C436 1.327 . S
C434 H459 0.950 . S
C435 C434 1.349 . S
C435 C451 1.349 . S
C436 C434 1.327 . S
C436 C455 1.429 . S
C436 H460 0.950 . S
C437 C454 1.574 . S
C437 C456 1.368 . S
C437 H461 0.949 . S
H438 C442 0.949 . S
C439 C440 1.349 . S
C439 C441 1.327 . S
C439 H462 0.950 . S
C440 C439 1.349 . S
C440 C452 1.349 . S
C441 C439 1.327 . S
C441 C457 1.429 . S
C441 H463 0.950 . S
C442 H438 0.949 . S
C442 C450 1.574 . S
C442 C458 1.368 . S
H443 C451 0.950 . S
H444 C449 0.950 . S
H445 C450 0.949 . S
H446 C452 0.950 . S
H447 C453 0.950 . S
H448 C454 0.949 . S
C449 H444 0.950 . S
C449 C451 1.327 . S
C449 C455 1.429 . S
C450 C442 1.574 . S
C450 H445 0.949 . S
C450 C456 1.368 . S
C451 C435 1.349 . S
C451 H443 0.950 . S
C451 C449 1.327 . S
C452 C440 1.349 . S
C452 H446 0.950 . S
C452 C453 1.327 . S
C453 H447 0.950 . S
C453 C452 1.327 . S
C453 C457 1.429 . S
C454 C437 1.574 . S
C454 H448 0.949 . S
C454 C458 1.368 . S
C455 C436 1.429 . S
C455 C449 1.429 . S
C455 C456 1.523 . S
C456 C437 1.368 . S
C456 C450 1.368 . S
C456 C455 1.523 . S
C457 C441 1.429 . S
C457 C453 1.429 . S
C457 C458 1.523 . S
C458 C442 1.368 . S
C458 C454 1.368 . S
C458 C457 1.523 . S
H459 C434 0.950 . S
H460 C436 0.950 . S
H461 C437 0.949 . S
H462 C439 0.950 . S
H463 C441 0.950 . S
C464 C465 1.349 . S
C464 C466 1.327 . S
C464 H489 0.950 1_554 S
C465 C464 1.349 . S
C465 C481 1.349 . S
C466 C464 1.327 . S
C466 C485 1.429 . S
C466 H490 0.950 1_554 S
C467 C484 1.574 . S
C467 C486 1.368 . S
C467 H491 0.949 . S
H468 C472 0.949 1_556 S
C469 C470 1.349 . S
C469 C471 1.327 . S
C469 H492 0.950 . S
C470 C469 1.349 . S
C470 C482 1.349 . S
C471 C469 1.327 . S
C471 C487 1.429 . S
C471 H493 0.950 . S
C472 H468 0.949 1_554 S
C472 C480 1.574 . S
C472 C488 1.368 . S
H473 C481 0.950 . S
H474 C479 0.950 . S
H475 C480 0.949 1_556 S
H476 C482 0.950 1_556 S
H477 C483 0.950 1_556 S
H478 C484 0.949 . S
C479 H474 0.950 . S
C479 C481 1.327 . S
C479 C485 1.429 . S
C480 C472 1.574 . S
C480 H475 0.949 1_554 S
C480 C486 1.368 . S
C481 C465 1.349 . S
C481 H473 0.950 . S
C481 C479 1.327 . S
C482 C470 1.349 . S
C482 H476 0.950 1_554 S
C482 C483 1.327 . S
C483 H477 0.950 1_554 S
C483 C482 1.327 . S
C483 C487 1.429 . S
C484 C467 1.574 . S
C484 H478 0.949 . S
C484 C488 1.368 . S
C485 C466 1.429 . S
C485 C479 1.429 . S
C485 C486 1.523 . S
C486 C467 1.368 . S
C486 C480 1.368 . S
C486 C485 1.523 . S
C487 C471 1.429 . S
C487 C483 1.429 . S
C487 C488 1.523 . S
C488 C472 1.368 . S
C488 C484 1.368 . S
C488 C487 1.523 . S
H489 C464 0.950 1_556 S
H490 C466 0.950 1_556 S
H491 C467 0.949 . S
H492 C469 0.950 . S
H493 C471 0.950 . S
C494 C495 1.349 . S
C494 C496 1.327 . S
C494 H519 0.950 . S
C495 C494 1.349 . S
C495 C511 1.349 . S
C496 C494 1.327 . S
C496 C515 1.429 . S
C496 H520 0.950 . S
C497 C514 1.574 . S
C497 C516 1.368 . S
C497 H521 0.949 1_554 S
H498 C502 0.949 . S
C499 C500 1.349 . S
C499 C501 1.327 . S
C499 H522 0.950 1_554 S
C500 C499 1.349 . S
C500 C512 1.349 . S
C501 C499 1.327 . S
C501 C517 1.429 . S
C501 H523 0.950 1_554 S
C502 H498 0.949 . S
C502 C510 1.574 . S
C502 C518 1.368 . S
H503 C511 0.950 1_556 S
H504 C509 0.950 1_556 S
H505 C510 0.949 . S
H506 C512 0.950 . S
H507 C513 0.950 . S
H508 C514 0.949 1_556 S
C509 H504 0.950 1_554 S
C509 C511 1.327 . S
C509 C515 1.429 . S
C510 C502 1.574 . S
C510 H505 0.949 . S
C510 C516 1.368 . S
C511 C495 1.349 . S
C511 H503 0.950 1_554 S
C511 C509 1.327 . S
C512 C500 1.349 . S
C512 H506 0.950 . S
C512 C513 1.327 . S
C513 H507 0.950 . S
C513 C512 1.327 . S
C513 C517 1.429 . S
C514 C497 1.574 . S
C514 H508 0.949 1_554 S
C514 C518 1.368 . S
C515 C496 1.429 . S
C515 C509 1.429 . S
C515 C516 1.523 . S
C516 C497 1.368 . S
C516 C510 1.368 . S
C516 C515 1.523 . S
C517 C501 1.429 . S
C517 C513 1.429 . S
C517 C518 1.523 . S
C518 C502 1.368 . S
C518 C514 1.368 . S
C518 C517 1.523 . S
H519 C494 0.950 . S
H520 C496 0.950 . S
H521 C497 0.949 1_556 S
H522 C499 0.950 1_556 S
H523 C501 0.950 1_556 S
C524 C525 1.349 . S
C524 C526 1.327 . S
C524 H549 0.950 . S
C525 C524 1.349 . S
C525 C541 1.349 . S
C526 C524 1.327 . S
C526 C545 1.429 . S
C526 H550 0.950 . S
C527 C544 1.574 . S
C527 C546 1.368 . S
C527 H551 0.949 . S
H528 C532 0.949 . S
C529 C530 1.349 . S
C529 C531 1.327 . S
C529 H552 0.950 . S
C530 C529 1.349 . S
C530 C542 1.349 . S
C531 C529 1.327 . S
C531 C547 1.429 . S
C531 H553 0.950 . S
C532 H528 0.949 . S
C532 C540 1.574 . S
C532 C548 1.368 . S
H533 C541 0.950 . S
H534 C539 0.950 . S
H535 C540 0.949 . S
H536 C542 0.950 . S
H537 C543 0.950 . S
H538 C544 0.949 . S
C539 H534 0.950 . S
C539 C541 1.327 . S
C539 C545 1.429 . S
C540 C532 1.574 . S
C540 H535 0.949 . S
C540 C546 1.368 . S
C541 C525 1.349 . S
C541 H533 0.950 . S
C541 C539 1.327 . S
C542 C530 1.349 . S
C542 H536 0.950 . S
C542 C543 1.327 . S
C543 H537 0.950 . S
C543 C542 1.327 . S
C543 C547 1.429 . S
C544 C527 1.574 . S
C544 H538 0.949 . S
C544 C548 1.368 . S
C545 C526 1.429 . S
C545 C539 1.429 . S
C545 C546 1.523 . S
C546 C527 1.368 . S
C546 C540 1.368 . S
C546 C545 1.523 . S
C547 C531 1.429 . S
C547 C543 1.429 . S
C547 C548 1.523 . S
C548 C532 1.368 . S
C548 C544 1.368 . S
C548 C547 1.523 . S
H549 C524 0.950 . S
H550 C526 0.950 . S
H551 C527 0.949 . S
H552 C529 0.950 . S
H553 C531 0.950 . S
C554 C555 1.349 . S
C554 C556 1.327 . S
C554 H579 0.950 . S
C555 C554 1.349 . S
C555 C571 1.349 . S
C556 C554 1.327 . S
C556 C575 1.429 . S
C556 H580 0.950 . S
C557 C574 1.574 . S
C557 C576 1.368 . S
C557 H581 0.949 . S
H558 C562 0.949 . S
C559 C560 1.349 . S
C559 C561 1.327 . S
C559 H582 0.950 . S
C560 C559 1.349 . S
C560 C572 1.349 . S
C561 C559 1.327 . S
C561 C577 1.429 . S
C561 H583 0.950 . S
C562 H558 0.949 . S
C562 C570 1.574 . S
C562 C578 1.368 . S
H563 C571 0.950 . S
H564 C569 0.950 . S
H565 C570 0.949 . S
H566 C572 0.950 . S
H567 C573 0.950 . S
H568 C574 0.949 . S
C569 H564 0.950 . S
C569 C571 1.327 . S
C569 C575 1.429 . S
C570 C562 1.574 . S
C570 H565 0.949 . S
C570 C576 1.368 . S
C571 C555 1.349 . S
C571 H563 0.950 . S
C571 C569 1.327 . S
C572 C560 1.349 . S
C572 H566 0.950 . S
C572 C573 1.327 . S
C573 H567 0.950 . S
C573 C572 1.327 . S
C573 C577 1.429 . S
C574 C557 1.574 . S
C574 H568 0.949 . S
C574 C578 1.368 . S
C575 C556 1.429 . S
C575 C569 1.429 . S
C575 C576 1.523 . S
C576 C557 1.368 . S
C576 C570 1.368 . S
C576 C575 1.523 . S
C577 C561 1.429 . S
C577 C573 1.429 . S
C577 C578 1.523 . S
C578 C562 1.368 . S
C578 C574 1.368 . S
C578 C577 1.523 . S
H579 C554 0.950 . S
H580 C556 0.950 . S
H581 C557 0.949 . S
H582 C559 0.950 . S
H583 C561 0.950 . S
C105 C16 1.519 . S
C110 C5 1.519 . S
C135 C31 1.519 . S
C140 C44 1.519 . S
C165 C55 1.519 . S
C170 C70 1.519 . S
C195 C81 1.519 . S
C200 C94 1.519 . S
C225 C10 1.274 . S
C230 C49 1.274 . S
C255 C36 1.274 . S
C260 C17 1.274 . S
C285 C29 1.239 . S
C290 C18 1.239 . S
C315 C3 1.239 . S
C320 C42 1.239 . S
C345 C56 1.274 . S
C350 C95 1.274 . S
C375 C82 1.274 . S
C380 C75 1.274 . S
C405 C68 1.239 . S
C410 C83 1.239 . S
C435 C57 1.239 . S
C440 C96 1.239 . S
C465 C69 1.523 . S
C470 C4 1.523 . S
C495 C62 1.523 . S
C500 C23 1.523 . S
C525 C30 1.523 . S
C530 C101 1.523 . S
C555 C88 1.523 . S
C560 C43 1.523 . S
