# Generated by pormake.
# Topology cha, (4)-cn, num edge types: 1
# Building blocks:
#     Node 0, Type 0, BuildingBlock: AZAVOO_clean_sbu_0, # of connection points: 4
#     Node 1, Type 0, BuildingBlock: AZAVOO_clean_sbu_0, # of connection points: 4
#     Node 2, Type 0, BuildingBlock: AZAVOO_clean_sbu_0, # of connection points: 4
#     Node 3, Type 0, BuildingBlock: AZAVOO_clean_sbu_0, # of connection points: 4
#     Node 4, Type 0, BuildingBlock: AZAVOO_clean_sbu_0, # of connection points: 4
#     Node 5, Type 0, BuildingBlock: AZAVOO_clean_sbu_0, # of connection points: 4
#     Node 6, Type 0, BuildingBlock: AZAVOO_clean_sbu_0, # of connection points: 4
#     Node 7, Type 0, BuildingBlock: AZAVOO_clean_sbu_0, # of connection points: 4
#     Node 8, Type 0, BuildingBlock: AZAVOO_clean_sbu_0, # of connection points: 4
#     Node 9, Type 0, BuildingBlock: AZAVOO_clean_sbu_0, # of connection points: 4
#     Node 10, Type 0, BuildingBlock: AZAVOO_clean_sbu_0, # of connection points: 4
#     Node 11, Type 0, BuildingBlock: AZAVOO_clean_sbu_0, # of connection points: 4
#     Node 12, Type 0, BuildingBlock: AZAVOO_clean_sbu_0, # of connection points: 4
#     Node 13, Type 0, BuildingBlock: AZAVOO_clean_sbu_0, # of connection points: 4
#     Node 14, Type 0, BuildingBlock: AZAVOO_clean_sbu_0, # of connection points: 4
#     Node 15, Type 0, BuildingBlock: AZAVOO_clean_sbu_0, # of connection points: 4
#     Node 16, Type 0, BuildingBlock: AZAVOO_clean_sbu_0, # of connection points: 4
#     Node 17, Type 0, BuildingBlock: AZAVOO_clean_sbu_0, # of connection points: 4
#     Node 18, Type 0, BuildingBlock: AZAVOO_clean_sbu_0, # of connection points: 4
#     Node 19, Type 0, BuildingBlock: AZAVOO_clean_sbu_0, # of connection points: 4
#     Node 20, Type 0, BuildingBlock: AZAVOO_clean_sbu_0, # of connection points: 4
#     Node 21, Type 0, BuildingBlock: AZAVOO_clean_sbu_0, # of connection points: 4
#     Node 22, Type 0, BuildingBlock: AZAVOO_clean_sbu_0, # of connection points: 4
#     Node 23, Type 0, BuildingBlock: AZAVOO_clean_sbu_0, # of connection points: 4
#     Node 24, Type 0, BuildingBlock: AZAVOO_clean_sbu_0, # of connection points: 4
#     Node 25, Type 0, BuildingBlock: AZAVOO_clean_sbu_0, # of connection points: 4
#     Node 26, Type 0, BuildingBlock: AZAVOO_clean_sbu_0, # of connection points: 4
#     Node 27, Type 0, BuildingBlock: AZAVOO_clean_sbu_0, # of connection points: 4
#     Node 28, Type 0, BuildingBlock: AZAVOO_clean_sbu_0, # of connection points: 4
#     Node 29, Type 0, BuildingBlock: AZAVOO_clean_sbu_0, # of connection points: 4
#     Node 30, Type 0, BuildingBlock: AZAVOO_clean_sbu_0, # of connection points: 4
#     Node 31, Type 0, BuildingBlock: AZAVOO_clean_sbu_0, # of connection points: 4
#     Node 32, Type 0, BuildingBlock: AZAVOO_clean_sbu_0, # of connection points: 4
#     Node 33, Type 0, BuildingBlock: AZAVOO_clean_sbu_0, # of connection points: 4
#     Node 34, Type 0, BuildingBlock: AZAVOO_clean_sbu_0, # of connection points: 4
#     Node 35, Type 0, BuildingBlock: AZAVOO_clean_sbu_0, # of connection points: 4
#     Edge 36, Type (0, 0), BuildingBlock: XIVTED_clean_linker_0, # of connection points: 2
#     Edge 37, Type (0, 0), BuildingBlock: XIVTED_clean_linker_0, # of connection points: 2
#     Edge 38, Type (0, 0), BuildingBlock: XIVTED_clean_linker_0, # of connection points: 2
#     Edge 39, Type (0, 0), BuildingBlock: XIVTED_clean_linker_0, # of connection points: 2
#     Edge 40, Type (0, 0), BuildingBlock: XIVTED_clean_linker_0, # of connection points: 2
#     Edge 41, Type (0, 0), BuildingBlock: XIVTED_clean_linker_0, # of connection points: 2
#     Edge 42, Type (0, 0), BuildingBlock: XIVTED_clean_linker_0, # of connection points: 2
#     Edge 43, Type (0, 0), BuildingBlock: XIVTED_clean_linker_0, # of connection points: 2
#     Edge 44, Type (0, 0), BuildingBlock: XIVTED_clean_linker_0, # of connection points: 2
#     Edge 45, Type (0, 0), BuildingBlock: XIVTED_clean_linker_0, # of connection points: 2
#     Edge 46, Type (0, 0), BuildingBlock: XIVTED_clean_linker_0, # of connection points: 2
#     Edge 47, Type (0, 0), BuildingBlock: XIVTED_clean_linker_0, # of connection points: 2
#     Edge 48, Type (0, 0), BuildingBlock: XIVTED_clean_linker_0, # of connection points: 2
#     Edge 49, Type (0, 0), BuildingBlock: XIVTED_clean_linker_0, # of connection points: 2
#     Edge 50, Type (0, 0), BuildingBlock: XIVTED_clean_linker_0, # of connection points: 2
#     Edge 51, Type (0, 0), BuildingBlock: XIVTED_clean_linker_0, # of connection points: 2
#     Edge 52, Type (0, 0), BuildingBlock: XIVTED_clean_linker_0, # of connection points: 2
#     Edge 53, Type (0, 0), BuildingBlock: XIVTED_clean_linker_0, # of connection points: 2
#     Edge 54, Type (0, 0), BuildingBlock: XIVTED_clean_linker_0, # of connection points: 2
#     Edge 55, Type (0, 0), BuildingBlock: XIVTED_clean_linker_0, # of connection points: 2
#     Edge 56, Type (0, 0), BuildingBlock: XIVTED_clean_linker_0, # of connection points: 2
#     Edge 57, Type (0, 0), BuildingBlock: XIVTED_clean_linker_0, # of connection points: 2
#     Edge 58, Type (0, 0), BuildingBlock: XIVTED_clean_linker_0, # of connection points: 2
#     Edge 59, Type (0, 0), BuildingBlock: XIVTED_clean_linker_0, # of connection points: 2
#     Edge 60, Type (0, 0), BuildingBlock: XIVTED_clean_linker_0, # of connection points: 2
#     Edge 61, Type (0, 0), BuildingBlock: XIVTED_clean_linker_0, # of connection points: 2
#     Edge 62, Type (0, 0), BuildingBlock: XIVTED_clean_linker_0, # of connection points: 2
#     Edge 63, Type (0, 0), BuildingBlock: XIVTED_clean_linker_0, # of connection points: 2
#     Edge 64, Type (0, 0), BuildingBlock: XIVTED_clean_linker_0, # of connection points: 2
#     Edge 65, Type (0, 0), BuildingBlock: XIVTED_clean_linker_0, # of connection points: 2
#     Edge 66, Type (0, 0), BuildingBlock: XIVTED_clean_linker_0, # of connection points: 2
#     Edge 67, Type (0, 0), BuildingBlock: XIVTED_clean_linker_0, # of connection points: 2
#     Edge 68, Type (0, 0), BuildingBlock: XIVTED_clean_linker_0, # of connection points: 2
#     Edge 69, Type (0, 0), BuildingBlock: XIVTED_clean_linker_0, # of connection points: 2
#     Edge 70, Type (0, 0), BuildingBlock: XIVTED_clean_linker_0, # of connection points: 2
#     Edge 71, Type (0, 0), BuildingBlock: XIVTED_clean_linker_0, # of connection points: 2
#     Edge 72, Type (0, 0), BuildingBlock: XIVTED_clean_linker_0, # of connection points: 2
#     Edge 73, Type (0, 0), BuildingBlock: XIVTED_clean_linker_0, # of connection points: 2
#     Edge 74, Type (0, 0), BuildingBlock: XIVTED_clean_linker_0, # of connection points: 2
#     Edge 75, Type (0, 0), BuildingBlock: XIVTED_clean_linker_0, # of connection points: 2
#     Edge 76, Type (0, 0), BuildingBlock: XIVTED_clean_linker_0, # of connection points: 2
#     Edge 77, Type (0, 0), BuildingBlock: XIVTED_clean_linker_0, # of connection points: 2
#     Edge 78, Type (0, 0), BuildingBlock: XIVTED_clean_linker_0, # of connection points: 2
#     Edge 79, Type (0, 0), BuildingBlock: XIVTED_clean_linker_0, # of connection points: 2
#     Edge 80, Type (0, 0), BuildingBlock: XIVTED_clean_linker_0, # of connection points: 2
#     Edge 81, Type (0, 0), BuildingBlock: XIVTED_clean_linker_0, # of connection points: 2
#     Edge 82, Type (0, 0), BuildingBlock: XIVTED_clean_linker_0, # of connection points: 2
#     Edge 83, Type (0, 0), BuildingBlock: XIVTED_clean_linker_0, # of connection points: 2
#     Edge 84, Type (0, 0), BuildingBlock: XIVTED_clean_linker_0, # of connection points: 2
#     Edge 85, Type (0, 0), BuildingBlock: XIVTED_clean_linker_0, # of connection points: 2
#     Edge 86, Type (0, 0), BuildingBlock: XIVTED_clean_linker_0, # of connection points: 2
#     Edge 87, Type (0, 0), BuildingBlock: XIVTED_clean_linker_0, # of connection points: 2
#     Edge 88, Type (0, 0), BuildingBlock: XIVTED_clean_linker_0, # of connection points: 2
#     Edge 89, Type (0, 0), BuildingBlock: XIVTED_clean_linker_0, # of connection points: 2
#     Edge 90, Type (0, 0), BuildingBlock: XIVTED_clean_linker_0, # of connection points: 2
#     Edge 91, Type (0, 0), BuildingBlock: XIVTED_clean_linker_0, # of connection points: 2
#     Edge 92, Type (0, 0), BuildingBlock: XIVTED_clean_linker_0, # of connection points: 2
#     Edge 93, Type (0, 0), BuildingBlock: XIVTED_clean_linker_0, # of connection points: 2
#     Edge 94, Type (0, 0), BuildingBlock: XIVTED_clean_linker_0, # of connection points: 2
#     Edge 95, Type (0, 0), BuildingBlock: XIVTED_clean_linker_0, # of connection points: 2
#     Edge 96, Type (0, 0), BuildingBlock: XIVTED_clean_linker_0, # of connection points: 2
#     Edge 97, Type (0, 0), BuildingBlock: XIVTED_clean_linker_0, # of connection points: 2
#     Edge 98, Type (0, 0), BuildingBlock: XIVTED_clean_linker_0, # of connection points: 2
#     Edge 99, Type (0, 0), BuildingBlock: XIVTED_clean_linker_0, # of connection points: 2
#     Edge 100, Type (0, 0), BuildingBlock: XIVTED_clean_linker_0, # of connection points: 2
#     Edge 101, Type (0, 0), BuildingBlock: XIVTED_clean_linker_0, # of connection points: 2
#     Edge 102, Type (0, 0), BuildingBlock: XIVTED_clean_linker_0, # of connection points: 2
#     Edge 103, Type (0, 0), BuildingBlock: XIVTED_clean_linker_0, # of connection points: 2
#     Edge 104, Type (0, 0), BuildingBlock: XIVTED_clean_linker_0, # of connection points: 2
#     Edge 105, Type (0, 0), BuildingBlock: XIVTED_clean_linker_0, # of connection points: 2
#     Edge 106, Type (0, 0), BuildingBlock: XIVTED_clean_linker_0, # of connection points: 2
#     Edge 107, Type (0, 0), BuildingBlock: XIVTED_clean_linker_0, # of connection points: 2
# Relax obj value: 0.173
# Max RMSD: 0.156
# Mean RMSD: 0.156
data_MOF--net-cha--node1-AZAVOO_clean_sbu_0--edge1-XIVTED_clean_linker_0
_symmetry_space_group_name_H-M    P1
_symmetry_Int_Tables_number       1
_symmetry_cell_setting            triclinic
loop_
_symmetry_equiv_pos_as_xyz
'x, y, z'
_cell_length_a     65.09543
_cell_length_b     64.997716
_cell_length_c     72.004665
_cell_angle_alpha  89.891172
_cell_angle_beta   89.974071
_cell_angle_gamma 120.05764
loop_
_atom_site_label
_atom_site_type_symbol
_atom_site_fract_x
_atom_site_fract_y
_atom_site_fract_z
_atom_type_partial_charge
Mg0 Mg 0.0165 0.22528 0.08792 0.0
O1 O 0.98032 0.19095 0.0836 0.0
O2 O 0.98681 0.16905 0.06304 0.0
Mg3 Mg 0.0258 0.18761 0.05519 0.0
C4 C 0.97294 0.17231 0.07359 0.0
C5 C 0.00662 0.25749 0.11131 0.0
O6 O 0.01936 0.27059 0.09724 0.0
O7 O 0.02906 0.20529 0.10662 0.0
O8 O 0.03444 0.18342 0.08533 0.0
O9 O 0.00962 0.24256 0.06381 0.0
O10 O 0.02741 0.22129 0.06156 0.0
C11 C 0.03488 0.18991 0.10213 0.0
C12 C 0.01869 0.23289 0.05346 0.0
O13 O 0.00189 0.23604 0.1123 0.0
Mg14 Mg 0.79871 0.80399 0.10356 0.0
O15 O 0.83837 0.81537 0.106 0.0
O16 O 0.85814 0.84773 0.08822 0.0
Mg17 Mg 0.83221 0.85698 0.07471 0.0
C18 C 0.85773 0.83215 0.09927 0.0
C19 C 0.76897 0.77077 0.13464 0.0
O20 O 0.75713 0.78149 0.13001 0.0
O21 O 0.8035 0.83411 0.12283 0.0
O22 O 0.82337 0.86503 0.10359 0.0
O23 O 0.79549 0.78252 0.07842 0.0
O24 O 0.80396 0.81998 0.07771 0.0
C25 C 0.81377 0.85636 0.1193 0.0
C26 C 0.80078 0.80145 0.06889 0.0
O27 O 0.78896 0.77749 0.12706 0.0
Mg28 Mg 0.28995 0.0099 0.08602 0.0
O29 O 0.26938 0.02964 0.08205 0.0
O30 O 0.24037 0.0091 0.06161 0.0
Mg31 Mg 0.2425 0.97638 0.05263 0.0
C32 C 0.25159 0.02677 0.07253 0.0
C33 C 0.33175 0.04149 0.10942 0.0
O34 O 0.3401 0.03522 0.09524 0.0
O35 O 0.25973 0.98283 0.10424 0.0
O36 O 0.2327 0.96185 0.08247 0.0
O37 O 0.31323 0.0302 0.06235 0.0
O38 O 0.28031 0.99552 0.05941 0.0
C39 C 0.23963 0.96553 0.09936 0.0
C40 C 0.29772 0.01385 0.05166 0.0
O41 O 0.30949 0.03317 0.11061 0.0
Mg42 Mg 0.29892 0.04005 0.88007 0.0
O43 O 0.25914 0.01693 0.88655 0.0
O44 O 0.25052 0.03638 0.90794 0.0
Mg45 Mg 0.28405 0.07143 0.91486 0.0
C46 C 0.24436 0.01853 0.89728 0.0
C47 C 0.3162 0.01902 0.85244 0.0
O48 O 0.33484 0.03654 0.86053 0.0
O49 O 0.29077 0.06429 0.86229 0.0
O50 O 0.28404 0.0838 0.88494 0.0
O51 O 0.30694 0.02255 0.90313 0.0
O52 O 0.30498 0.0553 0.90646 0.0
C53 C 0.28618 0.08022 0.8678 0.0
C54 C 0.30681 0.0383 0.91399 0.0
O55 O 0.29588 0.01623 0.85612 0.0
Mg56 Mg -0.00011 0.23718 0.88067 0.0
O57 O 0.02904 0.22693 0.87781 0.0
O58 O 0.01716 0.19417 0.89498 0.0
Mg59 Mg 0.98205 0.18385 0.90891 0.0
C60 C 0.03208 0.21023 0.8841 0.0
C61 C 0.01667 0.28323 0.86015 0.0
O62 O 0.0065 0.28511 0.87532 0.0
O63 O 0.97496 0.20688 0.86124 0.0
O64 O 0.96489 0.17598 0.88026 0.0
O65 O 0.01778 0.2589 0.90579 0.0
O66 O 0.99038 0.22092 0.90677 0.0
C67 C 0.96351 0.18459 0.86467 0.0
C68 C 0.00547 0.23977 0.91548 0.0
O69 O 0.01645 0.26386 0.85714 0.0
Mg70 Mg 0.80981 0.81364 0.89617 0.0
O71 O 0.80843 0.84797 0.90124 0.0
O72 O 0.83627 0.86908 0.92232 0.0
Mg73 Mg 0.85682 0.85022 0.92905 0.0
C74 C 0.81934 0.86618 0.91168 0.0
C75 C 0.76741 0.78196 0.87381 0.0
O76 O 0.76875 0.76893 0.8872 0.0
O77 O 0.84211 0.83358 0.87723 0.0
O78 O 0.86924 0.85527 0.8987 0.0
O79 O 0.78627 0.79716 0.92064 0.0
O80 O 0.82548 0.81631 0.922 0.0
C81 C 0.86323 0.84911 0.88184 0.0
C82 C 0.80539 0.8055 0.93048 0.0
O83 O 0.78357 0.80363 0.87256 0.0
Mg84 Mg 0.02906 0.83591 0.8939 0.0
O85 O 0.06526 0.87079 0.89523 0.0
O86 O 0.05996 0.89414 0.9151 0.0
Mg87 Mg 0.02235 0.87523 0.92646 0.0
C88 C 0.07305 0.8904 0.90402 0.0
C89 C 0.02249 0.80459 0.86165 0.0
O90 O 0.00105 0.79799 0.86781 0.0
O91 O 0.01331 0.85349 0.87601 0.0
O92 O 0.00818 0.87551 0.89729 0.0
O93 O 0.03903 0.82056 0.91734 0.0
O94 O 0.02099 0.84146 0.92074 0.0
C95 C 0.00616 0.86778 0.88069 0.0
C96 C 0.03055 0.83028 0.92827 0.0
O97 O 0.04 0.82266 0.86889 0.0
Mg98 Mg 0.23914 0.22917 0.88334 0.0
O99 O 0.20057 0.21989 0.8776 0.0
O100 O 0.17745 0.18445 0.89084 0.0
Mg101 Mg 0.20007 0.17193 0.90565 0.0
C102 C 0.18009 0.2023 0.88147 0.0
C103 C 0.27431 0.27538 0.86541 0.0
O104 O 0.28595 0.27249 0.87913 0.0
O105 O 0.2372 0.20209 0.86217 0.0
O106 O 0.21495 0.16823 0.87777 0.0
O107 O 0.23937 0.24727 0.90947 0.0
O108 O 0.2285 0.2092 0.90777 0.0
C109 C 0.22729 0.1795 0.86359 0.0
C110 C 0.23114 0.22688 0.91764 0.0
O111 O 0.2531 0.25914 0.86228 0.0
Mg112 Mg 0.76188 0.03164 0.89382 0.0
O113 O 0.77302 0.00348 0.89997 0.0
O114 O 0.80269 0.02035 0.92053 0.0
Mg115 Mg 0.81139 0.05809 0.92668 0.0
C116 C 0.78848 0.00273 0.91051 0.0
C117 C 0.72079 0.01348 0.86847 0.0
O118 O 0.7208 0.03038 0.87848 0.0
O119 O 0.79411 0.05182 0.87484 0.0
O120 O 0.82292 0.06722 0.89621 0.0
O121 O 0.73683 0.01869 0.91767 0.0
O122 O 0.77454 0.04666 0.91985 0.0
C123 C 0.81593 0.06425 0.87935 0.0
C124 C 0.75468 0.03262 0.92796 0.0
O125 O 0.73793 0.00955 0.87034 0.0
Mg126 Mg 0.75354 0.00354 0.0984 0.0
O127 O 0.79225 0.03127 0.09065 0.0
O128 O 0.80364 0.01514 0.0684 0.0
Mg129 Mg 0.77411 0.97729 0.06337 0.0
C130 C 0.80766 0.03247 0.07901 0.0
C131 C 0.76085 0.04724 0.12063 0.0
O132 O 0.76632 0.05624 0.1038 0.0
O133 O 0.76665 0.98298 0.11579 0.0
O134 O 0.77909 0.96824 0.09319 0.0
O135 O 0.74048 0.01724 0.07573 0.0
O136 O 0.74874 0.98843 0.07196 0.0
C137 C 0.77605 0.97093 0.11032 0.0
C138 C 0.74316 0.00311 0.06465 0.0
O139 O 0.75532 0.02573 0.12322 0.0
Mg140 Mg 0.04545 0.81303 0.09989 0.0
O141 O 0.01699 0.8234 0.10599 0.0
O142 O 0.02954 0.8586 0.09228 0.0
Mg143 Mg 0.0641 0.87003 0.07687 0.0
C144 C 0.01437 0.84112 0.102 0.0
C145 C 0.04051 0.77268 0.12509 0.0
O146 O 0.06114 0.77969 0.1171 0.0
O147 O 0.0719 0.84035 0.12031 0.0
O148 O 0.08366 0.87385 0.10418 0.0
O149 O 0.02651 0.79454 0.0741 0.0
O150 O 0.05434 0.83244 0.07521 0.0
C151 C 0.08503 0.86282 0.1184 0.0
C152 C 0.03874 0.81475 0.06568 0.0
O153 O 0.02961 0.78389 0.12166 0.0
Mg154 Mg 0.21062 0.20207 0.08987 0.0
O155 O 0.2109 0.16698 0.08634 0.0
O156 O 0.1806 0.14365 0.06777 0.0
Mg157 Mg 0.16101 0.16305 0.05963 0.0
C158 C 0.19848 0.14748 0.07759 0.0
C159 C 0.25506 0.23477 0.11026 0.0
O160 O 0.25353 0.24716 0.09644 0.0
O161 O 0.1793 0.18486 0.10999 0.0
O162 O 0.1502 0.16281 0.09001 0.0
O163 O 0.23305 0.21695 0.06477 0.0
O164 O 0.19384 0.19705 0.06409 0.0
C165 C 0.15747 0.17047 0.10642 0.0
C166 C 0.21368 0.20776 0.05519 0.0
O167 O 0.23822 0.21359 0.11274 0.0
Mg168 Mg 0.68194 0.55108 0.42453 0.0
O169 O 0.64569 0.5178 0.41817 0.0
O170 O 0.65297 0.49622 0.39789 0.0
Mg171 Mg 0.69242 0.51415 0.39196 0.0
C172 C 0.63862 0.49958 0.40774 0.0
C173 C 0.64963 0.56567 0.44538 0.0
O174 O 0.64069 0.56255 0.42858 0.0
O175 O 0.69223 0.52954 0.44345 0.0
O176 O 0.69896 0.50841 0.42236 0.0
O177 O 0.67781 0.57014 0.40047 0.0
O178 O 0.69501 0.5483 0.39872 0.0
C179 C 0.6982 0.51421 0.43919 0.0
C180 C 0.6875 0.56084 0.39039 0.0
O181 O 0.6661 0.56103 0.44849 0.0
Mg182 Mg 0.44946 0.13744 0.44034 0.0
O183 O 0.48931 0.14856 0.44035 0.0
O184 O 0.50735 0.17984 0.42129 0.0
Mg185 Mg 0.48065 0.18894 0.40944 0.0
C186 C 0.50797 0.16479 0.43233 0.0
C187 C 0.44631 0.09558 0.46264 0.0
O188 O 0.45551 0.09381 0.44689 0.0
O189 O 0.45637 0.16877 0.45909 0.0
O190 O 0.47455 0.19848 0.43859 0.0
O191 O 0.44322 0.11435 0.4155 0.0
O192 O 0.45272 0.15199 0.41393 0.0
C193 C 0.46644 0.1908 0.45483 0.0
C194 C 0.44858 0.1329 0.40545 0.0
O195 O 0.44262 0.11285 0.46489 0.0
Mg196 Mg 0.93444 0.34522 0.43765 0.0
O197 O 0.92767 0.3756 0.42872 0.0
O198 O 0.89941 0.36032 0.4069 0.0
Mg199 Mg 0.88635 0.32098 0.40361 0.0
C200 C 0.91428 0.37772 0.41678 0.0
C201 C 0.9744 0.36249 0.4643 0.0
O202 O 0.97298 0.34372 0.45619 0.0
O203 O 0.90133 0.32939 0.45594 0.0
O204 O 0.87339 0.31571 0.43389 0.0
O205 O 0.96035 0.3544 0.41477 0.0
O206 O 0.92198 0.32896 0.41179 0.0
C207 C 0.87964 0.31914 0.45094 0.0
C208 C 0.94261 0.34115 0.40413 0.0
O209 O 0.95853 0.36785 0.46081 0.0
Mg210 Mg 0.9716 0.37966 0.23439 0.0
O211 O 0.93132 0.35521 0.23796 0.0
O212 O 0.91921 0.37303 0.25819 0.0
Mg213 Mg 0.95123 0.4078 0.26797 0.0
C214 C 0.91496 0.3558 0.24735 0.0
C215 C 0.96365 0.33707 0.21013 0.0
O216 O 0.95483 0.32622 0.22602 0.0
O217 O 0.96485 0.40488 0.21666 0.0
O218 O 0.95525 0.42301 0.23856 0.0
O219 O 0.97804 0.3609 0.25764 0.0
O220 O 0.97309 0.39189 0.26136 0.0
C221 C 0.95957 0.42045 0.2217 0.0
C222 C 0.97498 0.3748 0.26869 0.0
O223 O 0.97148 0.35928 0.20889 0.0
Mg224 Mg 0.67308 0.5682 0.21799 0.0
O225 O 0.70365 0.56065 0.21257 0.0
O226 O 0.69414 0.527 0.22779 0.0
Mg227 Mg 0.65957 0.5141 0.24359 0.0
C228 C 0.70801 0.54424 0.21726 0.0
C229 C 0.68195 0.61268 0.19834 0.0
O230 O 0.66774 0.61019 0.2122 0.0
O231 O 0.64824 0.53833 0.19833 0.0
O232 O 0.63989 0.50664 0.21589 0.0
O233 O 0.69133 0.58932 0.24308 0.0
O234 O 0.66606 0.55064 0.24346 0.0
C235 C 0.63727 0.51588 0.20106 0.0
C236 C 0.68068 0.56959 0.25232 0.0
O237 O 0.68704 0.59645 0.19553 0.0
Mg238 Mg 0.48754 0.14872 0.23491 0.0
O239 O 0.48679 0.18374 0.23789 0.0
O240 O 0.51297 0.20513 0.25996 0.0
Mg241 Mg 0.53038 0.18467 0.27079 0.0
C242 C 0.49744 0.20243 0.24791 0.0
C243 C 0.44572 0.13772 0.20893 0.0
O244 O 0.43799 0.14165 0.22463 0.0
O245 O 0.52256 0.168 0.21913 0.0
O246 O 0.54747 0.18872 0.2421 0.0
O247 O 0.45999 0.13132 0.25692 0.0
O248 O 0.49863 0.15167 0.2623 0.0
C249 C 0.54335 0.18249 0.22508 0.0
C250 C 0.47729 0.14036 0.2687 0.0
O251 O 0.46631 0.1401 0.20837 0.0
Mg252 Mg 0.70861 0.16106 0.24102 0.0
O253 O 0.74286 0.19772 0.24347 0.0
O254 O 0.7344 0.21912 0.26308 0.0
Mg255 Mg 0.69624 0.19744 0.27295 0.0
C256 C 0.74882 0.21693 0.25238 0.0
C257 C 0.72104 0.13011 0.21864 0.0
O258 O 0.71017 0.11777 0.23356 0.0
O259 O 0.69172 0.17687 0.22218 0.0
O260 O 0.68428 0.19768 0.24314 0.0
O261 O 0.71902 0.1472 0.26554 0.0
O262 O 0.69811 0.16539 0.26731 0.0
C263 C 0.68362 0.19051 0.22653 0.0
C264 C 0.70872 0.15581 0.27565 0.0
O265 O 0.72362 0.1507 0.21665 0.0
Mg266 Mg 0.92062 0.57918 0.21927 0.0
O267 O 0.88192 0.56778 0.21143 0.0
O268 O 0.85925 0.5335 0.22646 0.0
Mg269 Mg 0.88195 0.52398 0.2444 0.0
C270 C 0.86162 0.54999 0.21547 0.0
C271 C 0.95747 0.61822 0.1945 0.0
O272 O 0.97024 0.61215 0.20482 0.0
O273 O 0.92074 0.55042 0.20104 0.0
O274 O 0.89841 0.51814 0.21833 0.0
O275 O 0.91881 0.59961 0.24331 0.0
O276 O 0.90913 0.56183 0.24471 0.0
C277 C 0.91123 0.52812 0.20404 0.0
C278 C 0.91056 0.58014 0.25284 0.0
O279 O 0.93503 0.60667 0.1962 0.0
Mg280 Mg 0.42979 0.35697 0.21471 0.0
O281 O 0.44629 0.33399 0.22234 0.0
O282 O 0.47294 0.35306 0.24471 0.0
Mg283 Mg 0.47437 0.38827 0.25072 0.0
C284 C 0.46181 0.3353 0.23387 0.0
C285 C 0.39684 0.31172 0.19268 0.0
O286 O 0.39562 0.30293 0.20936 0.0
O287 O 0.46297 0.38183 0.19787 0.0
O288 O 0.48831 0.40081 0.22115 0.0
O289 O 0.40329 0.3394 0.23736 0.0
O290 O 0.43778 0.37237 0.241 0.0
C291 C 0.48331 0.39749 0.20387 0.0
C292 C 0.4187 0.35546 0.2483 0.0
O293 O 0.41118 0.33369 0.18983 0.0
Mg294 Mg 0.4147 0.34038 0.42071 0.0
O295 O 0.45412 0.36601 0.41402 0.0
O296 O 0.46553 0.34878 0.39272 0.0
Mg297 Mg 0.43482 0.31131 0.38787 0.0
C298 C 0.4698 0.36636 0.40313 0.0
C299 C 0.40143 0.37138 0.44229 0.0
O300 O 0.3858 0.36236 0.42881 0.0
O301 O 0.42525 0.31922 0.43983 0.0
O302 O 0.43823 0.30332 0.41851 0.0
O303 O 0.40499 0.35476 0.39647 0.0
O304 O 0.41004 0.32361 0.39498 0.0
C305 C 0.43449 0.30664 0.43537 0.0
C306 C 0.40651 0.33905 0.38651 0.0
O307 O 0.41677 0.36487 0.4439 0.0
Mg308 Mg 0.7025 0.15333 0.4493 0.0
O309 O 0.67041 0.15938 0.44707 0.0
O310 O 0.68241 0.19159 0.42925 0.0
Mg311 Mg 0.72047 0.20589 0.42003 0.0
C312 C 0.66654 0.17464 0.43897 0.0
C313 C 0.66444 0.10756 0.46821 0.0
O314 O 0.65473 0.10636 0.45196 0.0
O315 O 0.72162 0.18425 0.46981 0.0
O316 O 0.73256 0.21468 0.45013 0.0
O317 O 0.69155 0.1316 0.42331 0.0
O318 O 0.71584 0.17038 0.42393 0.0
C319 C 0.7321 0.20654 0.46637 0.0
C320 C 0.70429 0.15126 0.41434 0.0
O321 O 0.68411 0.12595 0.47214 0.0
Mg322 Mg 0.88171 0.55986 0.42404 0.0
O323 O 0.88978 0.52941 0.4195 0.0
O324 O 0.86238 0.50441 0.39951 0.0
Mg325 Mg 0.8367 0.5172 0.39237 0.0
C326 C 0.88064 0.51057 0.40961 0.0
C327 C 0.91867 0.59767 0.44698 0.0
O328 O 0.9105 0.60773 0.4356 0.0
O329 O 0.85118 0.53664 0.44357 0.0
O330 O 0.82459 0.51229 0.42285 0.0
O331 O 0.90359 0.57933 0.39964 0.0
O332 O 0.86518 0.55351 0.39807 0.0
C333 C 0.83063 0.5194 0.43955 0.0
C334 C 0.88476 0.56762 0.38962 0.0
O335 O 0.90879 0.57515 0.44707 0.0
Mg336 Mg 0.33294 0.85876 0.76526 0.0
O337 O 0.29599 0.82561 0.76066 0.0
O338 O 0.30194 0.80298 0.7405 0.0
Mg339 Mg 0.34072 0.82068 0.73208 0.0
C340 C 0.28827 0.80679 0.75083 0.0
C341 C 0.33705 0.89 0.79655 0.0
O342 O 0.3588 0.89648 0.79125 0.0
O343 O 0.34465 0.83791 0.78363 0.0
O344 O 0.3508 0.81698 0.76196 0.0
O345 O 0.3275 0.8775 0.74174 0.0
O346 O 0.34384 0.85496 0.73887 0.0
C347 C 0.35125 0.82319 0.77886 0.0
C348 C 0.33644 0.86794 0.73112 0.0
O349 O 0.32002 0.87139 0.78946 0.0
Mg350 Mg 0.11846 0.47568 0.76119 0.0
O351 O 0.15714 0.48522 0.76688 0.0
O352 O 0.18015 0.52072 0.7537 0.0
Mg353 Mg 0.15738 0.53321 0.73904 0.0
C354 C 0.1776 0.50281 0.76295 0.0
C355 C 0.10646 0.42797 0.78009 0.0
O356 O 0.11748 0.42699 0.76512 0.0
O357 O 0.11993 0.50274 0.78214 0.0
O358 O 0.14178 0.53669 0.76659 0.0
O359 O 0.11844 0.45775 0.73484 0.0
O360 O 0.12927 0.49578 0.73685 0.0
C361 C 0.1293 0.52526 0.78066 0.0
C362 C 0.12686 0.47828 0.72688 0.0
O363 O 0.10469 0.44632 0.78291 0.0
Mg364 Mg 0.59734 0.66271 0.7606 0.0
O365 O 0.58515 0.69006 0.75553 0.0
O366 O 0.55632 0.67446 0.73423 0.0
Mg367 Mg 0.54915 0.63748 0.72654 0.0
C368 C 0.56993 0.69133 0.7451 0.0
C369 C 0.63384 0.70539 0.78331 0.0
O370 O 0.6352 0.71539 0.76713 0.0
O371 O 0.56445 0.64056 0.77848 0.0
O372 O 0.5365 0.62564 0.75643 0.0
O373 O 0.62332 0.6783 0.73743 0.0
O374 O 0.58612 0.64959 0.73384 0.0
C375 C 0.54293 0.62772 0.77339 0.0
C376 C 0.60605 0.66493 0.72643 0.0
O377 O 0.61884 0.68346 0.78551 0.0
Mg378 Mg 0.61652 0.70239 0.55634 0.0
O379 O 0.5767 0.67656 0.56222 0.0
O380 O 0.56539 0.69382 0.58362 0.0
Mg381 Mg 0.59655 0.7303 0.59055 0.0
C382 C 0.56093 0.67642 0.57292 0.0
C383 C 0.63227 0.67543 0.53234 0.0
O384 O 0.64836 0.68519 0.54544 0.0
O385 O 0.60717 0.72556 0.53836 0.0
O386 O 0.59564 0.74173 0.56054 0.0
O387 O 0.62622 0.6863 0.57953 0.0
O388 O 0.62 0.71652 0.58302 0.0
C389 C 0.59943 0.7392 0.54353 0.0
C390 C 0.62385 0.70071 0.59047 0.0
O391 O 0.61545 0.67999 0.53183 0.0
Mg392 Mg 0.34119 0.90222 0.56021 0.0
O393 O 0.36937 0.89152 0.55472 0.0
O394 O 0.35561 0.85522 0.5667 0.0
Mg395 Mg 0.3198 0.84312 0.58035 0.0
C396 C 0.37159 0.87344 0.55813 0.0
C397 C 0.36421 0.95308 0.54536 0.0
O398 O 0.35707 0.95506 0.56199 0.0
O399 O 0.31633 0.87705 0.53797 0.0
O400 O 0.30279 0.84204 0.55227 0.0
O401 O 0.35813 0.91803 0.58728 0.0
O402 O 0.32973 0.88064 0.5838 0.0
C403 C 0.30284 0.85449 0.53851 0.0
C404 C 0.34477 0.89721 0.59449 0.0
O405 O 0.35979 0.93273 0.5398 0.0
Mg406 Mg 0.15668 0.50963 0.55565 0.0
O407 O 0.15466 0.54387 0.55961 0.0
O408 O 0.18326 0.56602 0.57991 0.0
Mg409 Mg 0.20292 0.54705 0.58879 0.0
C410 C 0.16619 0.56275 0.56931 0.0
C411 C 0.12735 0.47777 0.52529 0.0
O412 O 0.14009 0.46885 0.53183 0.0
O413 O 0.18952 0.52916 0.53737 0.0
O414 O 0.2167 0.55006 0.55897 0.0
O415 O 0.13202 0.49209 0.57914 0.0
O416 O 0.17099 0.51326 0.58216 0.0
C417 C 0.21089 0.54364 0.54212 0.0
C418 C 0.15042 0.50117 0.58985 0.0
O419 O 0.13144 0.49783 0.5313 0.0
Mg420 Mg 0.35192 0.48731 0.55565 0.0
O421 O 0.387 0.52131 0.5626 0.0
O422 O 0.3797 0.53994 0.58547 0.0
Mg423 Mg 0.34016 0.51925 0.59198 0.0
C424 C 0.39395 0.53845 0.57411 0.0
C425 C 0.38691 0.47889 0.53255 0.0
O426 O 0.39652 0.48216 0.54911 0.0
O427 O 0.3395 0.50904 0.53916 0.0
O428 O 0.33304 0.5278 0.5625 0.0
O429 O 0.35872 0.46798 0.57813 0.0
O430 O 0.33838 0.48658 0.58198 0.0
C431 C 0.3334 0.52366 0.54519 0.0
C432 C 0.3476 0.47489 0.58909 0.0
O433 O 0.36886 0.4813 0.53039 0.0
Mg434 Mg 0.5869 0.91083 0.55945 0.0
O435 O 0.54706 0.89859 0.55633 0.0
O436 O 0.527 0.86412 0.57166 0.0
Mg437 Mg 0.55283 0.85434 0.58438 0.0
C438 C 0.52757 0.88072 0.5618 0.0
C439 C 0.61386 0.9596 0.54273 0.0
O440 O 0.62487 0.96066 0.5583 0.0
O441 O 0.58387 0.88335 0.538 0.0
O442 O 0.56352 0.85029 0.55502 0.0
O443 O 0.58841 0.92948 0.58576 0.0
O444 O 0.58004 0.89213 0.5845 0.0
C445 C 0.57378 0.86081 0.53996 0.0
C446 C 0.58218 0.90968 0.59429 0.0
O447 O 0.59638 0.93974 0.53784 0.0
Mg448 Mg 0.09145 0.71389 0.55532 0.0
O449 O 0.10848 0.69102 0.56096 0.0
O450 O 0.13481 0.70868 0.58381 0.0
Mg451 Mg 0.13439 0.74231 0.59268 0.0
C452 C 0.12424 0.69191 0.57202 0.0
C453 C 0.06585 0.70266 0.51846 0.0
O454 O 0.07037 0.72438 0.52193 0.0
O455 O 0.125 0.74052 0.53992 0.0
O456 O 0.14923 0.75867 0.56394 0.0
O457 O 0.06406 0.69328 0.57657 0.0
O458 O 0.0979 0.72609 0.58262 0.0
C459 C 0.14477 0.7565 0.54655 0.0
C460 C 0.07869 0.70801 0.58868 0.0
O461 O 0.07436 0.69332 0.52921 0.0
Mg462 Mg 0.0588 0.66561 0.75845 0.0
O463 O 0.09909 0.68802 0.75398 0.0
O464 O 0.10842 0.66945 0.7323 0.0
Mg465 Mg 0.07472 0.63582 0.72305 0.0
C466 C 0.11432 0.68654 0.74372 0.0
C467 C 0.04059 0.685 0.78694 0.0
O468 O 0.02225 0.66933 0.77732 0.0
O469 O 0.06482 0.63935 0.77539 0.0
O470 O 0.072 0.62059 0.75241 0.0
O471 O 0.05336 0.68572 0.73597 0.0
O472 O 0.0544 0.65266 0.73138 0.0
C473 C 0.06896 0.62324 0.76959 0.0
C474 C 0.05383 0.67068 0.72451 0.0
O475 O 0.06079 0.68729 0.78359 0.0
Mg476 Mg 0.35284 0.46103 0.76158 0.0
O477 O 0.32585 0.47409 0.76357 0.0
O478 O 0.34011 0.50693 0.74615 0.0
Mg479 Mg 0.3753 0.51489 0.73328 0.0
C480 C 0.32427 0.49148 0.75689 0.0
C481 C 0.34698 0.42822 0.79399 0.0
O482 O 0.36985 0.43868 0.79052 0.0
O483 O 0.37839 0.49032 0.78135 0.0
O484 O 0.39124 0.52182 0.76246 0.0
O485 O 0.33485 0.44051 0.73594 0.0
O486 O 0.36499 0.47741 0.73602 0.0
C487 C 0.39124 0.51258 0.77813 0.0
C488 C 0.34944 0.45944 0.72679 0.0
O489 O 0.33441 0.43465 0.78493 0.0
Mg490 Mg 0.54568 0.87816 0.76486 0.0
O491 O 0.54948 0.84529 0.75835 0.0
O492 O 0.52217 0.82495 0.73663 0.0
Mg493 Mg 0.50071 0.84277 0.73011 0.0
C494 C 0.53912 0.82772 0.74717 0.0
C495 C 0.57273 0.90643 0.79796 0.0
O496 O 0.559 0.91501 0.79319 0.0
O497 O 0.5127 0.85536 0.78246 0.0
O498 O 0.4866 0.83511 0.76001 0.0
O499 O 0.5706 0.89867 0.74202 0.0
O500 O 0.5318 0.87619 0.73843 0.0
C501 C 0.49189 0.83996 0.77714 0.0
C502 C 0.55242 0.88931 0.73108 0.0
O503 O 0.57037 0.88826 0.7895 0.0
H504 H 0.06669 0.21543 0.12944 0.0
H505 H 0.11528 0.12992 0.11234 0.0
H506 H 0.02829 0.14541 0.10552 0.0
H507 H 0.15741 0.20227 0.13107 0.0
H508 H 0.07974 0.12918 0.12398 0.0
H509 H 0.09467 0.20499 0.1433 0.0
C510 C 0.06357 0.19752 0.12779 0.0
C511 C 0.04565 0.18143 0.11593 0.0
C512 C 0.09681 0.14502 0.12613 0.0
C513 C 0.0776 0.16953 0.13139 0.0
C514 C 0.11713 0.14535 0.1196 0.0
C515 C 0.13913 0.16642 0.12026 0.0
C516 C 0.0985 0.16617 0.13271 0.0
C517 C 0.14065 0.1858 0.13 0.0
C518 C 0.07962 0.1916 0.1356 0.0
C519 C 0.0423 0.15849 0.11423 0.0
N520 N 0.12045 0.18554 0.13525 0.0
N521 N 0.05844 0.15338 0.12152 0.0
H522 H 0.74805 0.93399 0.13335 0.0
H523 H 0.8481 0.90051 0.12946 0.0
H524 H 0.82066 0.98005 0.11675 0.0
H525 H 0.77385 0.8498 0.13696 0.0
H526 H 0.84075 0.93233 0.13874 0.0
H527 H 0.75953 0.90673 0.14741 0.0
C528 C 0.76657 0.93879 0.13339 0.0
C529 C 0.78348 0.95903 0.12382 0.0
C530 C 0.82613 0.91417 0.13895 0.0
C531 C 0.79663 0.92806 0.13947 0.0
C532 C 0.83039 0.896 0.13381 0.0
C533 C 0.81145 0.87267 0.13211 0.0
C534 C 0.80266 0.90901 0.14179 0.0
C535 C 0.78887 0.86766 0.13796 0.0
C536 C 0.7731 0.92322 0.1413 0.0
C537 C 0.80716 0.96446 0.12395 0.0
N538 N 0.7849 0.88584 0.14196 0.0
N539 N 0.81298 0.94888 0.13138 0.0
H540 H 0.11324 0.84668 0.13239 0.0
H541 H 0.22059 0.97907 0.12708 0.0
H542 H 0.10609 0.90906 0.12967 0.0
H543 H 0.21867 0.91766 0.10274 0.0
H544 H 0.18334 0.95269 0.14355 0.0
H545 H 0.15577 0.87216 0.13814 0.0
C546 C 0.12036 0.86563 0.13398 0.0
C547 C 0.10632 0.87589 0.13008 0.0
C548 C 0.19163 0.945 0.1352 0.0
C549 C 0.15476 0.90497 0.13646 0.0
C550 C 0.21286 0.95999 0.12589 0.0
C551 C 0.22241 0.95037 0.11351 0.0
C552 C 0.18024 0.92036 0.13217 0.0
C553 C 0.21165 0.92563 0.11212 0.0
C554 C 0.14468 0.88016 0.13708 0.0
C555 C 0.11648 0.90054 0.13224 0.0
N556 N 0.19094 0.91144 0.12116 0.0
N557 N 0.14025 0.91435 0.13486 0.0
H558 H 0.31394 0.1268 0.85913 0.0
H559 H 0.20061 0.13327 0.85275 0.0
H560 H 0.24606 0.06525 0.84761 0.0
H561 H 0.26993 0.19519 0.84624 0.0
H562 H 0.21658 0.10837 0.84244 0.0
H563 H 0.29962 0.1522 0.84639 0.0
C564 C 0.29631 0.11864 0.85316 0.0
C565 C 0.2811 0.09404 0.85435 0.0
C566 C 0.22822 0.12746 0.84265 0.0
C567 C 0.2641 0.12287 0.84068 0.0
C568 C 0.21903 0.1417 0.84848 0.0
C569 C 0.23411 0.16623 0.85078 0.0
C570 C 0.25278 0.1378 0.83968 0.0
C571 C 0.25776 0.17629 0.8449 0.0
C572 C 0.28804 0.13311 0.84597 0.0
C573 C 0.25829 0.08421 0.8468 0.0
N574 N 0.26658 0.16195 0.84021 0.0
N575 N 0.25023 0.09872 0.84072 0.0
H576 H 0.95655 0.14204 0.85283 0.0
H577 H 0.82035 0.09902 0.85563 0.0
H578 H 0.92752 0.18863 0.84911 0.0
H579 H 0.85341 0.05858 0.87172 0.0
H580 H 0.85727 0.12776 0.83985 0.0
H581 H 0.91776 0.10843 0.84491 0.0
C582 C 0.9422 0.1453 0.8495 0.0
C583 C 0.945 0.16795 0.85194 0.0
C584 C 0.85614 0.11213 0.84624 0.0
C585 C 0.90038 0.12954 0.84387 0.0
C586 C 0.83508 0.09571 0.85514 0.0
C587 C 0.83414 0.07669 0.86506 0.0
C588 C 0.87616 0.1093 0.84737 0.0
C589 C 0.85365 0.0732 0.86429 0.0
C590 C 0.91998 0.12609 0.84517 0.0
C591 C 0.92594 0.17133 0.84749 0.0
N592 N 0.87398 0.08955 0.85585 0.0
N593 N 0.90413 0.15215 0.84427 0.0
H594 H 0.89906 0.89449 0.87719 0.0
H595 H 0.97663 0.83851 0.85352 0.0
H596 H 0.87197 0.82348 0.85631 0.0
H597 H 0.0009 0.90679 0.87908 0.0
H598 H 0.94197 0.83952 0.84161 0.0
H599 H 0.938 0.90563 0.86447 0.0
C600 C 0.90116 0.8815 0.86927 0.0
C601 C 0.88257 0.85793 0.86814 0.0
C602 C 0.95529 0.85468 0.84927 0.0
C603 C 0.92726 0.87011 0.85443 0.0
C604 C 0.97518 0.85417 0.85599 0.0
C605 C 0.99117 0.87224 0.86784 0.0
C606 C 0.9515 0.87333 0.85455 0.0
C607 C 0.98855 0.89216 0.87045 0.0
C608 C 0.92343 0.88779 0.8621 0.0
C609 C 0.88604 0.84178 0.85765 0.0
N610 N 0.96877 0.89192 0.86425 0.0
N611 N 0.90824 0.84794 0.85173 0.0
H612 H 0.69449 0.4707 0.44218 0.0
H613 H 0.8256 0.54336 0.46881 0.0
H614 H 0.72751 0.5399 0.46763 0.0
H615 H 0.79166 0.4751 0.44175 0.0
H616 H 0.78734 0.53417 0.48199 0.0
H617 H 0.72474 0.46379 0.45588 0.0
C618 C 0.70765 0.48409 0.45125 0.0
C619 C 0.70908 0.5062 0.45327 0.0
C620 C 0.78837 0.5208 0.47375 0.0
C621 C 0.74443 0.499 0.46817 0.0
C622 C 0.8103 0.52599 0.46631 0.0
C623 C 0.81151 0.51034 0.45355 0.0
C624 C 0.76772 0.49998 0.46817 0.0
C625 C 0.79125 0.48801 0.451 0.0
C626 C 0.72504 0.48023 0.45903 0.0
C627 C 0.72615 0.52279 0.46541 0.0
N628 N 0.77003 0.48374 0.4578 0.0
N629 N 0.74376 0.51923 0.47186 0.0
H630 H 0.40592 0.27313 0.46077 0.0
H631 H 0.50222 0.23446 0.46446 0.0
H632 H 0.47834 0.31371 0.44194 0.0
H633 H 0.42732 0.18665 0.47206 0.0
H634 H 0.49636 0.26797 0.47104 0.0
H635 H 0.41612 0.24673 0.47799 0.0
C636 C 0.42414 0.27696 0.46088 0.0
C637 C 0.44131 0.29527 0.44982 0.0
C638 C 0.48127 0.25012 0.47195 0.0
C639 C 0.45305 0.2654 0.46921 0.0
C640 C 0.48469 0.23098 0.46841 0.0
C641 C 0.46513 0.20792 0.46736 0.0
C642 C 0.45806 0.24611 0.47383 0.0
C643 C 0.4428 0.20427 0.47257 0.0
C644 C 0.42995 0.26191 0.47062 0.0
C645 C 0.46461 0.29954 0.45019 0.0
N646 N 0.43968 0.22329 0.47494 0.0
N647 N 0.46973 0.28452 0.4595 0.0
H648 H 0.87329 0.28903 0.47972 0.0
H649 H 0.73837 0.25007 0.47467 0.0
H650 H 0.84242 0.32663 0.45324 0.0
H651 H 0.76502 0.20292 0.4873 0.0
H652 H 0.77704 0.28395 0.48242 0.0
H653 H 0.83564 0.26425 0.49624 0.0
C654 C 0.85888 0.29266 0.47798 0.0
C655 C 0.86063 0.3095 0.46494 0.0
C656 C 0.77424 0.26617 0.48421 0.0
C657 C 0.81785 0.28148 0.48361 0.0
C658 C 0.75206 0.24681 0.47999 0.0
C659 C 0.7488 0.2238 0.47985 0.0
C660 C 0.7933 0.26239 0.48782 0.0
C661 C 0.767 0.22048 0.48695 0.0
C662 C 0.83742 0.2785 0.48734 0.0
C663 C 0.84153 0.31352 0.46301 0.0
N664 N 0.78885 0.23967 0.48999 0.0
N665 N 0.82083 0.29938 0.47203 0.0
H666 H 0.92372 0.40736 0.19695 0.0
H667 H 0.95542 0.54191 0.19054 0.0
H668 H 0.9885 0.46768 0.21619 0.0
H669 H 0.88459 0.48159 0.1941 0.0
H670 H 0.97062 0.51481 0.18477 0.0
H671 H 0.91323 0.43457 0.18143 0.0
C672 C 0.93616 0.42631 0.1972 0.0
C673 C 0.95692 0.43547 0.20781 0.0
C674 C 0.95165 0.5076 0.1861 0.0
C675 C 0.94506 0.46647 0.19044 0.0
C676 C 0.94294 0.52306 0.18922 0.0
C677 C 0.9188 0.51386 0.19319 0.0
C678 C 0.93602 0.48293 0.18685 0.0
C679 C 0.9034 0.4893 0.19142 0.0
C680 C 0.93015 0.44179 0.18846 0.0
C681 C 0.97233 0.46008 0.2081 0.0
N682 N 0.91233 0.4746 0.18876 0.0
N683 N 0.96595 0.4748 0.19975 0.0
H684 H 0.60589 0.52493 0.18265 0.0
H685 H 0.5144 0.38713 0.1873 0.0
H686 H 0.62363 0.47015 0.19208 0.0
H687 H 0.49642 0.4422 0.19264 0.0
H688 H 0.55361 0.41663 0.17541 0.0
H689 H 0.56622 0.49447 0.17255 0.0
C690 C 0.60179 0.50662 0.18183 0.0
C691 C 0.61779 0.49991 0.1886 0.0
C692 C 0.5408 0.42214 0.17854 0.0
C693 C 0.57253 0.46508 0.17739 0.0
C694 C 0.51841 0.40528 0.18517 0.0
C695 C 0.50237 0.41241 0.19087 0.0
C696 C 0.54719 0.44626 0.17799 0.0
C697 C 0.50842 0.43614 0.18828 0.0
C698 C 0.57907 0.48921 0.17622 0.0
C699 C 0.61157 0.47595 0.18731 0.0
N700 N 0.53056 0.45236 0.18233 0.0
N701 N 0.58925 0.45933 0.18222 0.0
H702 H 0.5832 0.2259 0.22313 0.0
H703 H 0.65169 0.16023 0.20106 0.0
H704 H 0.55076 0.15541 0.20001 0.0
H705 H 0.68281 0.23159 0.22226 0.0
H706 H 0.6182 0.16349 0.1892 0.0
H707 H 0.62159 0.23374 0.21139 0.0
C708 C 0.58412 0.21233 0.21506 0.0
C709 C 0.56402 0.18983 0.21288 0.0
C710 C 0.63276 0.17878 0.19584 0.0
C711 C 0.60798 0.19816 0.20017 0.0
C712 C 0.65199 0.17697 0.20247 0.0
C713 C 0.66958 0.19544 0.2131 0.0
C714 C 0.63126 0.19912 0.20005 0.0
C715 C 0.66921 0.21673 0.21452 0.0
C716 C 0.60605 0.21674 0.20839 0.0
C717 C 0.56599 0.17292 0.20215 0.0
N718 N 0.65004 0.2178 0.2085 0.0
N719 N 0.58778 0.17714 0.19671 0.0
H720 H 0.37955 0.84982 0.80758 0.0
H721 H 0.45532 0.79445 0.77888 0.0
H722 H 0.35398 0.7827 0.77975 0.0
H723 H 0.48289 0.86286 0.80494 0.0
H724 H 0.41632 0.78232 0.79194 0.0
H725 H 0.41326 0.84695 0.81929 0.0
C726 C 0.38044 0.83395 0.80461 0.0
C727 C 0.3645 0.81688 0.79211 0.0
C728 C 0.43098 0.79976 0.79534 0.0
C729 C 0.40319 0.81375 0.80506 0.0
C730 C 0.45329 0.80662 0.78793 0.0
C731 C 0.47207 0.82986 0.79047 0.0
C732 C 0.42731 0.81664 0.80466 0.0
C733 C 0.46868 0.84487 0.80246 0.0
C734 C 0.39983 0.8324 0.81119 0.0
C735 C 0.36636 0.79662 0.78888 0.0
N736 N 0.44646 0.8383 0.8086 0.0
N737 N 0.38575 0.79591 0.79488 0.0
H738 H 0.08569 0.50769 0.7967 0.0
H739 H 0.10444 0.63801 0.79491 0.0
H740 H 0.15347 0.57192 0.79113 0.0
H741 H 0.04386 0.57526 0.7732 0.0
H742 H 0.11854 0.61282 0.80898 0.0
H743 H 0.06757 0.53172 0.80439 0.0
C744 C 0.097 0.52676 0.79799 0.0
C745 C 0.12101 0.53792 0.7928 0.0
C746 C 0.10168 0.60455 0.80177 0.0
C747 C 0.10037 0.56535 0.80144 0.0
C748 C 0.09359 0.61885 0.79386 0.0
C749 C 0.07307 0.60855 0.78289 0.0
C750 C 0.08897 0.57989 0.79876 0.0
C751 C 0.05981 0.58376 0.78156 0.0
C752 C 0.08658 0.54046 0.80222 0.0
C753 C 0.13478 0.5627 0.79467 0.0
N754 N 0.06813 0.57024 0.78921 0.0
N755 N 0.12417 0.57566 0.79844 0.0
H756 H 0.42173 0.50326 0.79747 0.0
H757 H 0.51168 0.63947 0.78745 0.0
H758 H 0.40354 0.55763 0.78778 0.0
H759 H 0.53104 0.58514 0.78904 0.0
H760 H 0.47311 0.61148 0.801 0.0
H761 H 0.46117 0.53388 0.8079 0.0
C762 C 0.42566 0.52151 0.79839 0.0
C763 C 0.4097 0.52812 0.79139 0.0
C764 C 0.48603 0.60582 0.79899 0.0
C765 C 0.45469 0.56313 0.80281 0.0
C766 C 0.50807 0.62186 0.79138 0.0
C767 C 0.5243 0.61441 0.78714 0.0
C768 C 0.48 0.58201 0.80175 0.0
C769 C 0.51884 0.59141 0.79219 0.0
C770 C 0.44825 0.53903 0.80416 0.0
C771 C 0.41562 0.55196 0.79277 0.0
N772 N 0.49687 0.57578 0.79883 0.0
N773 N 0.43784 0.56869 0.79792 0.0
H774 H 0.63225 0.77776 0.52421 0.0
H775 H 0.53903 0.82009 0.5248 0.0
H776 H 0.55707 0.73373 0.53331 0.0
H777 H 0.61474 0.8671 0.5245 0.0
H778 H 0.54482 0.78798 0.51353 0.0
H779 H 0.62544 0.8087 0.51099 0.0
C780 C 0.61422 0.77424 0.52262 0.0
C781 C 0.59516 0.7534 0.52989 0.0
C782 C 0.5602 0.80549 0.5153 0.0
C783 C 0.58726 0.78861 0.5153 0.0
C784 C 0.55685 0.82387 0.52155 0.0
C785 C 0.57647 0.84605 0.52584 0.0
C786 C 0.58335 0.80918 0.51397 0.0
C787 C 0.59919 0.85013 0.52145 0.0
C788 C 0.61034 0.79192 0.51522 0.0
C789 C 0.57218 0.74969 0.52787 0.0
N790 N 0.60209 0.8316 0.51633 0.0
N791 N 0.56889 0.76729 0.52104 0.0
H792 H 0.16602 0.74316 0.52046 0.0
H793 H 0.27763 0.8733 0.52306 0.0
H794 H 0.16838 0.80463 0.54512 0.0
H795 H 0.28113 0.80885 0.52569 0.0
H796 H 0.23573 0.84981 0.51451 0.0
H797 H 0.20549 0.76907 0.50685 0.0
C798 C 0.17445 0.76222 0.52232 0.0
C799 C 0.16425 0.77192 0.53398 0.0
C800 C 0.24596 0.84095 0.5162 0.0
C801 C 0.2089 0.80139 0.51854 0.0
C802 C 0.26995 0.85436 0.52092 0.0
C803 C 0.28262 0.84287 0.52559 0.0
C804 C 0.23486 0.81604 0.51601 0.0
C805 C 0.27176 0.81828 0.52259 0.0
C806 C 0.19691 0.77693 0.51463 0.0
C807 C 0.17587 0.7966 0.53626 0.0
N808 N 0.24828 0.80556 0.51842 0.0
N809 N 0.19774 0.8105 0.52879 0.0
H810 H 0.30392 0.50248 0.5156 0.0
H811 H 0.25341 0.58475 0.53975 0.0
H812 H 0.33958 0.56815 0.54618 0.0
H813 H 0.21308 0.51527 0.5152 0.0
H814 H 0.28983 0.58723 0.52831 0.0
H815 H 0.27706 0.5149 0.50254 0.0
C816 C 0.30671 0.51994 0.51895 0.0
C817 C 0.32342 0.53406 0.53238 0.0
C818 C 0.273 0.57172 0.52487 0.0
C819 C 0.29277 0.54819 0.51778 0.0
C820 C 0.25219 0.57038 0.53133 0.0
C821 C 0.23037 0.54945 0.52894 0.0
C822 C 0.27194 0.55163 0.51661 0.0
C823 C 0.22967 0.53153 0.51767 0.0
C824 C 0.29131 0.52698 0.51157 0.0
C825 C 0.32643 0.55651 0.53622 0.0
N826 N 0.25028 0.53263 0.51248 0.0
N827 N 0.31091 0.56268 0.52927 0.0
H828 H 0.98139 0.23653 0.14316 0.0
H829 H 0.98115 0.35417 0.17551 0.0
H830 H 0.01211 0.30188 0.11163 0.0
H831 H 0.95319 0.29065 0.20913 0.0
H832 H 0.98941 0.33377 0.1508 0.0
H833 H 0.96813 0.25471 0.16655 0.0
C834 C 0.9853 0.25465 0.14114 0.0
C835 C -0.00199 0.26776 0.12548 0.0
C836 C 0.98136 0.32422 0.16354 0.0
C837 C 0.98285 0.28858 0.15207 0.0
C838 C 0.97659 0.33586 0.17765 0.0
C839 C 0.96666 0.32417 0.19448 0.0
C840 C 0.97623 0.30071 0.16625 0.0
C841 C 0.96099 0.30039 0.19642 0.0
C842 C 0.97771 0.26501 0.15446 0.0
C843 C 0.0025 0.29114 0.12352 0.0
N844 N 0.96601 0.28948 0.18252 0.0
N845 N -0.00501 0.3008 0.13667 0.0
H846 H 0.72798 0.75323 0.15478 0.0
H847 H 0.71945 0.62807 0.1742 0.0
H848 H 0.78315 0.73794 0.13971 0.0
H849 H 0.67253 0.64913 0.19921 0.0
H850 H 0.74154 0.66727 0.15958 0.0
H851 H 0.70648 0.71453 0.17009 0.0
C852 C 0.73569 0.74183 0.15485 0.0
C853 C 0.75736 0.74881 0.14591 0.0
C854 C 0.72638 0.66328 0.16825 0.0
C855 C 0.73266 0.70433 0.16316 0.0
C856 C 0.71365 0.64084 0.17647 0.0
C857 C 0.69413 0.63533 0.18796 0.0
C858 C 0.71942 0.68023 0.17143 0.0
C859 C 0.6875 0.65263 0.1905 0.0
C860 C 0.72337 0.71971 0.16355 0.0
C861 C 0.76652 0.73331 0.14646 0.0
N862 N 0.70012 0.67429 0.18231 0.0
N863 N 0.75402 0.71171 0.15479 0.0
H864 H 0.32105 0.05755 0.14123 0.0
H865 H 0.45643 0.12887 0.17425 0.0
H866 H 0.37999 0.06327 0.10944 0.0
H867 H 0.39842 0.12353 0.2071 0.0
H868 H 0.42876 0.10797 0.14908 0.0
H869 H 0.34912 0.08432 0.1645 0.0
C870 C 0.33987 0.06447 0.13912 0.0
C871 C 0.34818 0.05801 0.12347 0.0
C872 C 0.42207 0.1115 0.16174 0.0
C873 C 0.38031 0.08863 0.14991 0.0
C874 C 0.43789 0.12348 0.17611 0.0
C875 C 0.42968 0.12771 0.19287 0.0
C876 C 0.39781 0.10354 0.16416 0.0
C877 C 0.40549 0.1205 0.19444 0.0
C878 C 0.35587 0.07977 0.15237 0.0
C879 C 0.37274 0.06761 0.12137 0.0
N880 N 0.39034 0.10854 0.18033 0.0
N881 N 0.3879 0.08233 0.13446 0.0
H882 H 0.35719 0.02047 0.84238 0.0
H883 H 0.29428 0.88728 0.80394 0.0
H884 H 0.28102 0.97535 0.84021 0.0
H885 H 0.36973 0.93149 0.81268 0.0
H886 H 0.28845 0.9188 0.81698 0.0
H887 H 0.36162 0.98814 0.82997 0.0
C888 C 0.34135 0.00381 0.83911 0.0
C889 C 0.3187 0.00059 0.84242 0.0
C890 C 0.30624 0.92147 0.81616 0.0
C891 C 0.32365 0.96324 0.82839 0.0
C892 C 0.30957 0.90344 0.80885 0.0
C893 C 0.33256 0.90682 0.80711 0.0
C894 C 0.32605 0.943 0.82167 0.0
C895 C 0.35171 0.92813 0.81363 0.0
C896 C 0.3439 0.98526 0.83213 0.0
C897 C 0.29883 0.9786 0.83785 0.0
N898 N 0.34803 0.94545 0.82048 0.0
N899 N 0.30177 0.96068 0.83114 0.0
H900 H 0.08129 0.42365 0.81174 0.0
H901 H 0.04256 0.28708 0.82885 0.0
H902 H 0.10398 0.38479 0.77681 0.0
H903 H 0.02035 0.32677 0.86326 0.0
H904 H 0.06526 0.32252 0.80954 0.0
H905 H 0.05942 0.38831 0.83105 0.0
C906 C 0.08178 0.40772 0.80818 0.0
C907 C 0.09445 0.40718 0.79259 0.0
C908 C 0.05537 0.32343 0.82131 0.0
C909 C 0.06927 0.36652 0.81461 0.0
C910 C 0.04236 0.30319 0.83229 0.0
C911 C 0.02954 0.30396 0.84769 0.0
C912 C 0.05555 0.34456 0.82577 0.0
C913 C 0.02997 0.32533 0.85153 0.0
C914 C 0.06923 0.3875 0.81919 0.0
C915 C 0.09444 0.38601 0.78868 0.0
N916 N 0.04277 0.34476 0.84068 0.0
N917 N 0.08198 0.3665 0.79958 0.0
H918 H 0.67012 0.75164 0.78237 0.0
H919 H 0.72874 0.73752 0.87531 0.0
H920 H 0.63812 0.68912 0.8173 0.0
H921 H 0.75922 0.80266 0.8435 0.0
H922 H 0.69481 0.7202 0.85451 0.0
H923 H 0.70193 0.77154 0.80514 0.0
C924 C 0.66964 0.74217 0.79491 0.0
C925 C 0.65156 0.71859 0.79786 0.0
C926 C 0.70886 0.73831 0.85207 0.0
C927 C 0.68796 0.74118 0.82385 0.0
C928 C 0.72832 0.74821 0.86392 0.0
C929 C 0.74692 0.77155 0.86108 0.0
C930 C 0.70795 0.75176 0.83715 0.0
C931 C 0.74529 0.78456 0.84614 0.0
C932 C 0.68784 0.75353 0.80787 0.0
C933 C 0.65179 0.70725 0.81438 0.0
N934 N 0.72616 0.77444 0.83466 0.0
N935 N 0.66981 0.71859 0.82667 0.0
H936 H 0.0646 0.80799 0.85092 0.0
H937 H -0.00031 0.68353 0.79738 0.0
H938 H 0.98871 0.76507 0.8439 0.0
H939 H 0.07576 0.72504 0.80394 0.0
H940 H -0.0043 0.71349 0.81464 0.0
H941 H 0.06952 0.77869 0.83309 0.0
C942 C 0.04901 0.79257 0.84545 0.0
C943 C 0.02619 0.78891 0.84898 0.0
C944 C 0.01329 0.71606 0.81239 0.0
C945 C 0.03168 0.75525 0.82882 0.0
C946 C 0.01557 0.69888 0.80259 0.0
C947 C 0.0381 0.70181 0.79917 0.0
C948 C 0.03367 0.73643 0.81882 0.0
C949 C 0.05804 0.72206 0.80629 0.0
C950 C 0.05182 0.77579 0.83538 0.0
C951 C 0.00662 0.76858 0.84161 0.0
N952 N 0.05537 0.73868 0.81572 0.0
N953 N 0.00982 0.7525 0.83197 0.0
H954 H 0.29948 0.39697 0.79892 0.0
H955 H 0.32026 0.31161 0.86687 0.0
H956 H 0.36872 0.4112 0.81672 0.0
H957 H 0.25319 0.29082 0.84035 0.0
H958 H 0.33769 0.34973 0.85072 0.0
H959 H 0.28149 0.35987 0.81668 0.0
C960 C 0.31089 0.39243 0.80672 0.0
C961 C 0.33566 0.40715 0.80626 0.0
C962 C 0.31918 0.33682 0.84839 0.0
C963 C 0.3152 0.36468 0.82648 0.0
C964 C 0.3092 0.31502 0.85759 0.0
C965 C 0.28524 0.29797 0.85492 0.0
C966 C 0.30506 0.34171 0.83652 0.0
C967 C 0.27177 0.3034 0.84275 0.0
C968 C 0.30061 0.37118 0.81675 0.0
C969 C 0.34956 0.40034 0.8166 0.0
N970 N 0.28186 0.32485 0.83403 0.0
N971 N 0.33914 0.37957 0.82624 0.0
H972 H 0.71133 0.9727 0.84993 0.0
H973 H 0.58212 0.9454 0.81844 0.0
H974 H 0.68205 0.01797 0.86182 0.0
H975 H 0.61005 0.89925 0.80547 0.0
H976 H 0.61827 0.97121 0.83555 0.0
H977 H 0.67448 0.94518 0.83384 0.0
C978 C 0.69726 0.97695 0.84903 0.0
C979 C 0.69975 -0.00235 0.85725 0.0
C980 C 0.61649 0.95537 0.82907 0.0
C981 C 0.65757 0.96618 0.83911 0.0
C982 C 0.59577 0.94055 0.81936 0.0
C983 C 0.5931 0.9202 0.81043 0.0
C984 C 0.63479 0.94991 0.82983 0.0
C985 C 0.61138 0.91479 0.81214 0.0
C986 C 0.67619 0.96118 0.83995 0.0
C987 C 0.68092 0.00221 0.85573 0.0
N988 N 0.63155 0.92967 0.82154 0.0
N989 N 0.66065 0.9866 0.8469 0.0
H990 H 0.74972 0.03393 0.15695 0.0
H991 H 0.74146 0.14877 0.18475 0.0
H992 H 0.76714 0.09218 0.11924 0.0
H993 H 0.72055 0.08802 0.22052 0.0
H994 H 0.75436 0.13021 0.1614 0.0
H995 H 0.74274 0.0556 0.18139 0.0
C996 C 0.75225 0.05137 0.15384 0.0
C997 C 0.7588 0.06116 0.13597 0.0
C998 C 0.74704 0.12103 0.17441 0.0
C999 C 0.75068 0.08604 0.16389 0.0
C1000 C 0.73967 0.1316 0.18772 0.0
C1001 C 0.72975 0.11984 0.20454 0.0
C1002 C 0.74449 0.0986 0.178 0.0
C1003 C 0.72792 0.09767 0.20769 0.0
C1004 C 0.74822 0.06373 0.1678 0.0
C1005 C 0.76196 0.08389 0.13279 0.0
N1006 N 0.73514 0.08776 0.19454 0.0
N1007 N 0.75769 0.0955 0.14659 0.0
H1008 H 0.05984 0.74609 0.13705 0.0
H1009 H 0.93705 0.64074 0.17661 0.0
H1010 H -0.00523 0.74852 0.13798 0.0
H1011 H 0.00471 0.64539 0.1863 0.0
H1012 H 0.95741 0.67858 0.15991 0.0
H1013 H 0.03956 0.7079 0.15327 0.0
C1014 C 0.04133 0.73867 0.14076 0.0
C1015 C 0.02898 0.75052 0.13615 0.0
C1016 C 0.96779 0.67128 0.16566 0.0
C1017 C 0.0056 0.70669 0.1545 0.0
C1018 C 0.95616 0.6496 0.17508 0.0
C1019 C 0.96921 0.63992 0.18291 0.0
C1020 C 0.99262 0.6833 0.16393 0.0
C1021 C -0.00605 0.65224 0.18055 0.0
C1022 C 0.02976 0.71685 0.14999 0.0
C1023 C 0.005 0.74005 0.1413 0.0
N1024 N 0.00485 0.6733 0.17129 0.0
N1025 N -0.00594 0.71866 0.1501 0.0
H1026 H 0.29507 0.27785 0.10593 0.0
H1027 H 0.3602 0.26578 0.19562 0.0
H1028 H 0.26476 0.21499 0.14045 0.0
H1029 H 0.39136 0.32573 0.15806 0.0
H1030 H 0.32638 0.24546 0.17462 0.0
H1031 H 0.3312 0.29461 0.12428 0.0
C1032 C 0.29597 0.26756 0.11742 0.0
C1033 C 0.27677 0.24502 0.12173 0.0
C1034 C 0.34075 0.26295 0.17089 0.0
C1035 C 0.31833 0.26417 0.14283 0.0
C1036 C 0.36012 0.27454 0.18283 0.0
C1037 C 0.37851 0.29763 0.17871 0.0
C1038 C 0.33974 0.27459 0.15477 0.0
C1039 C 0.3775 0.30804 0.1619 0.0
C1040 C 0.31671 0.27712 0.12785 0.0
C1041 C 0.27909 0.23248 0.1367 0.0
N1042 N 0.35831 0.29655 0.15066 0.0
N1043 N 0.29949 0.24228 0.14679 0.0
H1044 H 0.60351 0.65311 0.50232 0.0
H1045 H 0.66708 0.57753 0.48065 0.0
H1046 H 0.66251 0.65798 0.5334 0.0
H1047 H 0.61844 0.58229 0.4425 0.0
H1048 H 0.66096 0.60264 0.50239 0.0
H1049 H 0.60494 0.62358 0.482 0.0
C1050 C 0.61676 0.64801 0.50485 0.0
C1051 C 0.633 0.65811 0.51951 0.0
C1052 C 0.6515 0.59809 0.48931 0.0
C1053 C 0.63452 0.62426 0.49657 0.0
C1054 C 0.6549 0.58364 0.47691 0.0
C1055 C 0.64346 0.57802 0.45963 0.0
C1056 C 0.63655 0.607 0.48443 0.0
C1057 C 0.62776 0.58633 0.45562 0.0
C1058 C 0.61753 0.63115 0.49329 0.0
C1059 C 0.64972 0.6508 0.52221 0.0
N1060 N 0.62489 0.60059 0.46788 0.0
N1061 N 0.65002 0.63432 0.51088 0.0
H1062 H 0.42653 0.09333 0.49673 0.0
H1063 H 0.38529 0.95615 0.51173 0.0
H1064 H 0.44556 0.05326 0.45979 0.0
H1065 H 0.37415 -0.00148 0.55225 0.0
H1066 H 0.40771 0.99168 0.49261 0.0
H1067 H 0.40806 0.0591 0.51765 0.0
C1068 C 0.42702 0.07742 0.4931 0.0
C1069 C 0.43746 0.0761 0.47642 0.0
C1070 C 0.40043 0.99322 0.50571 0.0
C1071 C 0.41613 0.03679 0.50019 0.0
C1072 C 0.38753 0.97292 0.5166 0.0
C1073 C 0.37773 0.97435 0.53357 0.0
C1074 C 0.40343 0.01509 0.51178 0.0
C1075 C 0.38134 -0.00343 0.53924 0.0
C1076 C 0.41644 0.05786 0.50503 0.0
C1077 C 0.43764 0.05505 0.47246 0.0
N1078 N 0.39381 0.01604 0.52833 0.0
N1079 N 0.42695 0.03616 0.48418 0.0
H1080 H 0.01084 0.35555 0.47428 0.0
H1081 H 0.09176 0.48654 0.51508 0.0
H1082 H 0.98761 0.40711 0.47739 0.0
H1083 H 0.11387 0.43422 0.51064 0.0
H1084 H 0.05392 0.45844 0.50058 0.0
H1085 H 0.0486 0.38441 0.48796 0.0
C1086 C 0.0136 0.3729 0.478 0.0
C1087 C -0.00394 0.37894 0.47464 0.0
C1088 C 0.06714 0.4532 0.50269 0.0
C1089 C 0.03948 0.41227 0.49014 0.0
C1090 C 0.0888 0.46929 0.51083 0.0
C1091 C 0.10596 0.46266 0.51416 0.0
C1092 C 0.06265 0.43038 0.49787 0.0
C1093 C 0.10113 0.44006 0.50844 0.0
C1094 C 0.03525 0.38944 0.48573 0.0
C1095 C 0.00064 0.40169 0.47977 0.0
N1096 N 0.0799 0.42471 0.50068 0.0
N1097 N 0.02199 0.4176 0.4872 0.0
H1098 H 0.42028 0.46496 0.53385 0.0
H1099 H 0.37431 0.39227 0.4394 0.0
H1100 H 0.36936 0.46809 0.49726 0.0
H1101 H 0.4292 0.3922 0.47302 0.0
H1102 H 0.37442 0.42218 0.45966 0.0
H1103 H 0.42663 0.44122 0.51069 0.0
C1104 C 0.4107 0.46098 0.52084 0.0
C1105 C 0.39399 0.46821 0.51759 0.0
C1106 C 0.38654 0.41574 0.46261 0.0
C1107 C 0.40099 0.4409 0.49118 0.0
C1108 C 0.3864 0.39853 0.45108 0.0
C1109 C 0.40162 0.38956 0.45462 0.0
C1110 C 0.40189 0.42399 0.47793 0.0
C1111 C 0.41706 0.39854 0.46986 0.0
C1112 C 0.41428 0.44735 0.50766 0.0
C1113 C 0.3822 0.46265 0.50045 0.0
N1114 N 0.41669 0.41518 0.48106 0.0
N1115 N 0.38574 0.44911 0.48799 0.0
H1116 H 0.64998 0.00436 0.55021 0.0
H1117 H 0.62475 0.06419 0.46257 0.0
H1118 H 0.59356 0.96496 0.51097 0.0
H1119 H 0.68175 0.10262 0.50158 0.0
H1120 H 0.61142 0.02815 0.48108 0.0
H1121 H 0.66068 0.04077 0.53318 0.0
C1122 C 0.63986 0.00333 0.53796 0.0
C1123 C 0.62088 0.98153 0.53198 0.0
C1124 C 0.62675 0.04451 0.48565 0.0
C1125 C 0.633 0.02333 0.51242 0.0
C1126 C 0.63433 0.06513 0.47513 0.0
C1127 C 0.65452 0.08644 0.48046 0.0
C1128 C 0.63946 0.04518 0.5016 0.0
C1129 C 0.66617 0.08658 0.49688 0.0
C1130 C 0.64595 0.02419 0.52827 0.0
C1131 C 0.60838 0.98136 0.51604 0.0
N1132 N 0.65856 0.06623 0.5068 0.0
N1133 N 0.61468 0.00196 0.5068 0.0
H1134 H 0.94412 0.58338 0.4685 0.0
H1135 H 0.04313 0.71657 0.49394 0.0
H1136 H 0.94336 0.64598 0.44928 0.0
H1137 H 0.04561 0.65471 0.51273 0.0
H1138 H 0.00789 0.69082 0.47577 0.0
H1139 H 0.98197 0.60902 0.48404 0.0
C1140 C 0.95183 0.60249 0.46765 0.0
C1141 C 0.94056 0.61256 0.45762 0.0
C1142 C 0.01624 0.68287 0.48374 0.0
C1143 C 0.98388 0.64193 0.47513 0.0
C1144 C 0.03646 0.69759 0.49405 0.0
C1145 C 0.04719 0.68776 0.50501 0.0
C1146 C 0.0066 0.65811 0.48447 0.0
C1147 C 0.03782 0.66305 0.50454 0.0
C1148 C 0.97349 0.61711 0.47641 0.0
C1149 C 0.9514 0.63742 0.45688 0.0
N1150 N 0.0179 0.64903 0.4946 0.0
N1151 N 0.97243 0.65122 0.4655 0.0
H1152 H 0.01308 0.1991 0.0282 0.0
H1153 H 0.03034 0.27774 0.93861 0.0
H1154 H 0.02171 0.26918 0.03242 0.0
H1155 H 0.98798 0.20115 0.93869 0.0
H1156 H 0.03449 0.27672 0.97243 0.0
H1157 H 0.01124 0.2014 -0.00555 0.0
C1158 C 0.0149 0.21509 0.02203 0.0
C1159 C 0.01774 0.23405 0.03308 0.0
C1160 C 0.02439 0.26019 0.96492 0.0
C1161 C 0.01561 0.23679 -0.00547 0.0
C1162 C 0.0221 0.26072 0.94566 0.0
C1163 C 0.00892 0.23946 0.93574 0.0
C1164 C 0.01379 0.23824 0.9742 0.0
C1165 C -0.00153 0.21794 0.94563 0.0
C1166 C 0.01364 0.21631 0.00278 0.0
C1167 C 0.01944 0.25416 0.02433 0.0
N1168 N 0.00125 0.21787 0.96429 0.0
N1169 N 0.01851 0.2551 0.0055 0.0
H1170 H 0.77174 0.80531 0.95312 0.0
H1171 H 0.8136 0.77553 0.04663 0.0
H1172 H 0.83672 0.80279 0.95393 0.0
H1173 H 0.79165 0.8281 0.04502 0.0
H1174 H 0.81505 0.77617 0.01242 0.0
H1175 H 0.77108 0.80419 0.98723 0.0
C1176 C 0.78574 0.80434 0.9605 0.0
C1177 C 0.80436 0.80423 0.95085 0.0
C1178 C 0.80999 0.78755 0.01968 0.0
C1179 C 0.80341 0.80244 0.98947 0.0
C1180 C 0.80911 0.78716 0.03907 0.0
C1181 C 0.80261 0.80187 0.04853 0.0
C1182 C 0.80356 0.80213 0.00987 0.0
C1183 C 0.79693 0.81664 0.03818 0.0
C1184 C 0.78539 0.80381 0.97986 0.0
C1185 C 0.82216 0.80306 0.96098 0.0
N1186 N 0.79724 0.81619 0.01936 0.0
N1187 N 0.82115 0.80198 0.97982 0.0
H1188 H 0.316 0.07168 0.9407 0.0
H1189 H 0.27478 0.98007 0.02499 0.0
H1190 H 0.29566 -0.00202 0.93346 0.0
H1191 H 0.32319 0.05517 0.03218 0.0
H1192 H 0.2771 0.98612 0.99128 0.0
H1193 H 0.31373 0.0658 0.97445 0.0
C1194 C 0.31106 0.05428 0.94622 0.0
C1195 C 0.30607 0.0353 0.93432 0.0
C1196 C 0.28723 0.00123 0.00028 0.0
C1197 C 0.30318 0.02842 0.97272 0.0
C1198 C 0.28585 -0.00218 0.01947 0.0
C1199 C 0.29888 0.01714 0.03135 0.0
C1200 C 0.3014 0.02419 0.99297 0.0
C1201 C 0.31298 0.03977 0.02349 0.0
C1202 C 0.30985 0.05097 0.96543 0.0
C1203 C 0.2998 0.01313 0.94216 0.0
N1204 N 0.31377 0.04271 0.00477 0.0
N1205 N 0.29837 0.01025 0.96089 0.0
H1206 H 0.03646 0.79762 0.94756 0.0
H1207 H 0.04836 0.85505 0.04644 0.0
H1208 H 0.02689 0.85814 0.95521 0.0
H1209 H 0.02185 0.77997 0.03951 0.0
H1210 H 0.04564 0.8589 0.01288 0.0
H1211 H 0.0368 0.79335 0.9813 0.0
C1212 C 0.03457 0.8101 0.95633 0.0
C1213 C 0.03166 0.82829 0.94858 0.0
C1214 C 0.04028 0.84158 0.01876 0.0
C1215 C 0.03214 0.82354 0.98705 0.0
C1216 C 0.04192 0.83938 0.03789 0.0
C1217 C 0.03542 0.81718 0.04574 0.0
C1218 C 0.0326 0.82154 0.00743 0.0
C1219 C 0.02696 0.7974 0.03399 0.0
C1220 C 0.03459 0.80752 0.97554 0.0
C1221 C 0.02911 0.84385 0.96058 0.0
N1222 N 0.02607 0.80009 0.01536 0.0
N1223 N 0.02959 0.84124 0.97927 0.0
H1224 H 0.18014 0.17888 0.02973 0.0
H1225 H 0.24746 0.26202 0.94349 0.0
H1226 H 0.24926 0.24169 0.03432 0.0
H1227 H 0.20325 0.18603 0.93749 0.0
H1228 H 0.24188 0.2574 0.97715 0.0
H1229 H 0.18252 0.18367 -0.00413 0.0
C1230 C 0.19574 0.19369 0.02365 0.0
C1231 C 0.21458 0.20986 0.03481 0.0
C1232 C 0.23331 0.24179 0.9684 0.0
C1233 C 0.21716 0.21563 -0.00366 0.0
C1234 C 0.23634 0.24439 0.94922 0.0
C1235 C 0.22592 0.22434 0.9377 0.0
C1236 C 0.21941 0.21903 0.97605 0.0
C1237 C 0.21176 0.20192 0.94587 0.0
C1238 C 0.1971 0.19635 0.00437 0.0
C1239 C 0.23444 0.2287 0.02619 0.0
N1240 N 0.20886 0.19985 0.9646 0.0
N1241 N 0.23515 0.23118 0.00745 0.0
H1242 H 0.7184 0.02737 0.95001 0.0
H1243 H 0.75701 0.98314 0.03726 0.0
H1244 H 0.78632 0.03094 0.95178 0.0
H1245 H 0.7281 0.02948 0.0454 0.0
H1246 H 0.76017 0.99171 0.00411 0.0
H1247 H 0.71441 0.02012 0.98377 0.0
C1248 C 0.73251 0.0268 0.95755 0.0
C1249 C 0.75286 0.03004 0.94826 0.0
C1250 C 0.75314 -5e-05 0.01323 0.0
C1251 C 0.74803 0.02101 0.9863 0.0
C1252 C 0.75135 0.99512 0.03219 0.0
C1253 C 0.74283 0.00606 0.04429 0.0
C1254 C 0.74565 0.0152 0.00622 0.0
C1255 C 0.73507 0.0209 0.03662 0.0
C1256 C 0.73023 0.02271 0.97669 0.0
C1257 C 0.77059 0.02898 0.9585 0.0
N1258 N 0.73656 0.02498 0.018 0.0
N1259 N 0.76762 0.0242 0.97698 0.0
H1260 H 0.67644 0.53239 0.27322 0.0
H1261 H 0.67879 0.59083 0.36962 0.0
H1262 H 0.69376 0.60558 0.27707 0.0
H1263 H 0.69902 0.53717 0.36459 0.0
H1264 H 0.67963 0.59427 0.33573 0.0
H1265 H 0.68015 0.53132 0.30695 0.0
C1266 C 0.68106 0.54823 0.28114 0.0
C1267 C 0.68468 0.56906 0.27239 0.0
C1268 C 0.68396 0.58181 0.34213 0.0
C1269 C 0.68865 0.56787 0.31088 0.0
C1270 C 0.68336 0.57973 0.36143 0.0
C1271 C 0.68856 0.56345 0.36998 0.0
C1272 C 0.68935 0.5672 0.33133 0.0
C1273 C 0.69458 0.5497 0.35867 0.0
C1274 C 0.68331 0.54765 0.30036 0.0
C1275 C 0.69091 0.58919 0.28332 0.0
N1276 N 0.69455 0.55168 0.33989 0.0
N1277 N 0.6924 0.58802 0.30207 0.0
H1278 H 0.44117 0.09554 0.38315 0.0
H1279 H 0.50004 0.17522 0.29439 0.0
H1280 H 0.46184 0.16986 0.38122 0.0
H1281 H 0.44369 0.10258 0.28835 0.0
H1282 H 0.49222 0.17257 0.32777 0.0
H1283 H 0.44722 0.09658 0.34938 0.0
C1284 C 0.44707 0.11207 0.3757 0.0
C1285 C 0.45147 0.13279 0.38511 0.0
C1286 C 0.48162 0.15721 0.31912 0.0
C1287 C 0.45863 0.13406 0.34681 0.0
C1288 C 0.48621 0.15864 0.30014 0.0
C1289 C 0.4726 0.13902 0.28874 0.0
C1290 C 0.46363 0.13585 0.32675 0.0
C1291 C 0.45449 0.11809 0.2968 0.0
C1292 C 0.45042 0.11259 0.35649 0.0
C1293 C 0.45884 0.15363 0.37473 0.0
N1294 N 0.45064 0.11693 0.31543 0.0
N1295 N 0.46245 0.1538 0.35618 0.0
H1296 H 0.9109 0.33676 0.37715 0.0
H1297 H -0.00395 0.35706 0.29128 0.0
H1298 H 0.98215 0.34981 0.38492 0.0
H1299 H 0.9433 0.37863 0.29117 0.0
H1300 H 0.98753 0.34654 0.32434 0.0
H1301 H 0.91855 0.34361 0.34389 0.0
C1302 C 0.92797 0.34058 0.37186 0.0
C1303 C 0.94588 0.34263 0.38381 0.0
C1304 C 0.97796 0.3537 0.31702 0.0
C1305 C 0.9548 0.35064 0.3458 0.0
C1306 C 0.98279 0.35969 0.29824 0.0
C1307 C 0.9707 0.36919 0.28863 0.0
C1308 C 0.96046 0.35665 0.32598 0.0
C1309 C 0.9535 0.37203 0.29816 0.0
C1310 C 0.93242 0.34475 0.35289 0.0
C1311 C 0.96789 0.34814 0.37614 0.0
N1312 N 0.94877 0.36564 0.31629 0.0
N1313 N 0.97175 0.35191 0.35758 0.0
H1314 H 0.7265 0.19039 0.39185 0.0
H1315 H 0.70644 0.12041 0.29741 0.0
H1316 H 0.68512 0.11375 0.39007 0.0
H1317 H 0.71302 0.18973 0.30007 0.0
H1318 H 0.70541 0.11867 0.33155 0.0
H1319 H 0.72822 0.19138 0.35811 0.0
C1320 C 0.71756 0.17375 0.38442 0.0
C1321 C 0.70524 0.15197 0.39385 0.0
C1322 C 0.70704 0.1342 0.32458 0.0
C1323 C 0.70783 0.15302 0.35515 0.0
C1324 C 0.7078 0.13528 0.3052 0.0
C1325 C 0.70952 0.15513 0.29602 0.0
C1326 C 0.70861 0.15337 0.33469 0.0
C1327 C 0.71118 0.17393 0.30663 0.0
C1328 C 0.71866 0.17436 0.36513 0.0
C1329 C 0.69457 0.13096 0.38335 0.0
N1330 N 0.71081 0.17265 0.32544 0.0
N1331 N 0.6962 0.13199 0.3645 0.0
H1332 H 0.85269 0.53786 0.36366 0.0
H1333 H 0.92521 0.61723 0.27682 0.0
H1334 H 0.91996 0.60279 0.36909 0.0
H1335 H 0.88051 0.54103 0.27357 0.0
H1336 H 0.91696 0.61507 0.31018 0.0
H1337 H 0.85665 0.54169 0.32988 0.0
C1338 C 0.86823 0.55294 0.3578 0.0
C1339 C 0.88617 0.56986 0.36922 0.0
C1340 C 0.90886 0.59888 0.30207 0.0
C1341 C 0.89052 0.57455 0.33068 0.0
C1342 C 0.91343 0.60009 0.28306 0.0
C1343 C 0.90371 0.57923 0.27246 0.0
C1344 C 0.89415 0.57671 0.31041 0.0
C1345 C 0.88862 0.55749 0.28124 0.0
C1346 C 0.87046 0.55509 0.33853 0.0
C1347 C 0.90584 0.58917 0.36079 0.0
N1348 N 0.88428 0.55678 0.29974 0.0
N1349 N 0.90748 0.59103 0.34201 0.0
H1350 H 0.39902 0.30444 0.36139 0.0
H1351 H 0.44008 0.39046 0.27413 0.0
H1352 H 0.41535 0.37736 0.36525 0.0
H1353 H 0.39112 0.31523 0.26859 0.0
H1354 H 0.43622 0.38615 0.30794 0.0
H1355 H 0.40093 0.30809 0.3274 0.0
C1356 C 0.40298 0.32117 0.35508 0.0
C1357 C 0.40699 0.34062 0.36609 0.0
C1358 C 0.42625 0.37063 0.2993 0.0
C1359 C 0.4095 0.34496 0.32748 0.0
C1360 C 0.42849 0.37305 0.28005 0.0
C1361 C 0.41583 0.35318 0.26862 0.0
C1362 C 0.41164 0.3481 0.30713 0.0
C1363 C 0.40104 0.33102 0.27696 0.0
C1364 C 0.40396 0.3232 0.33574 0.0
C1365 C 0.41201 0.3619 0.35726 0.0
N1366 N 0.3995 0.32901 0.29577 0.0
N1367 N 0.41335 0.36358 0.33846 0.0
H1368 H 0.33511 0.90376 0.71265 0.0
H1369 H 0.33198 0.85487 0.61184 0.0
H1370 H 0.3422 0.84197 0.70365 0.0
H1371 H 0.36044 0.92961 0.62248 0.0
H1372 H 0.33114 0.84781 0.64525 0.0
H1373 H 0.33931 0.9115 0.67923 0.0
C1374 C 0.33742 0.89174 0.70364 0.0
C1375 C 0.33825 0.87214 0.71092 0.0
C1376 C 0.33774 0.86576 0.64022 0.0
C1377 C 0.34297 0.88087 0.67279 0.0
C1378 C 0.33814 0.8698 0.62117 0.0
C1379 C 0.34618 0.89284 0.6144 0.0
C1380 C 0.34493 0.88483 0.65254 0.0
C1381 C 0.35417 0.91158 0.62715 0.0
C1382 C 0.34 0.89629 0.68462 0.0
C1383 C 0.34148 0.85727 0.69864 0.0
N1384 N 0.35305 0.90712 0.64566 0.0
N1385 N 0.34352 0.86182 0.6801 0.0
H1386 H 0.1592 0.51879 0.70872 0.0
H1387 H 0.11182 0.46764 0.60865 0.0
H1388 H 0.10797 0.4448 0.69976 0.0
H1389 H 0.1828 0.52634 0.61717 0.0
H1390 H 0.10752 0.46119 0.64223 0.0
H1391 H 0.16602 0.52406 0.67523 0.0
C1392 C 0.14943 0.50365 0.69973 0.0
C1393 C 0.13286 0.48137 0.70699 0.0
C1394 C 0.12405 0.47543 0.6367 0.0
C1395 C 0.14038 0.48734 0.66876 0.0
C1396 C 0.12647 0.47925 0.61758 0.0
C1397 C 0.14768 0.49764 0.61012 0.0
C1398 C 0.14281 0.49038 0.64843 0.0
C1399 C 0.16615 0.512 0.62231 0.0
C1400 C 0.15343 0.50665 0.68065 0.0
C1401 C 0.12093 0.46227 0.6947 0.0
N1402 N 0.16322 0.50821 0.64093 0.0
N1403 N 0.12469 0.46575 0.67612 0.0
H1404 H 0.57279 0.66292 0.70219 0.0
H1405 H 0.64901 0.68569 0.61088 0.0
H1406 H 0.6452 0.67801 0.70501 0.0
H1407 H 0.59583 0.70639 0.6159 0.0
H1408 H 0.64532 0.67701 0.64432 0.0
H1409 H 0.57795 0.67241 0.66912 0.0
C1410 C 0.58963 0.6678 0.69581 0.0
C1411 C 0.60849 0.66935 0.70628 0.0
C1412 C 0.63467 0.68369 0.63807 0.0
C1413 C 0.6146 0.68049 0.66852 0.0
C1414 C 0.63672 0.68859 0.61906 0.0
C1415 C 0.62292 0.69707 0.6107 0.0
C1416 C 0.61822 0.68668 0.6486 0.0
C1417 C 0.60716 0.7004 0.62182 0.0
C1418 C 0.59267 0.67353 0.67698 0.0
C1419 C 0.63021 0.67654 0.69735 0.0
N1420 N 0.60505 0.69495 0.64019 0.0
N1421 N 0.63266 0.68168 0.67889 0.0
H1422 H 0.3863 0.48556 0.70364 0.0
H1423 H 0.31342 0.47012 0.61335 0.0
H1424 H 0.31085 0.43632 0.70385 0.0
H1425 H 0.38005 0.47098 0.61051 0.0
H1426 H 0.31283 0.46451 0.64715 0.0
H1427 H 0.38532 0.48766 0.66972 0.0
C1428 C 0.36951 0.47528 0.69652 0.0
C1429 C 0.3486 0.46075 0.70645 0.0
C1430 C 0.32745 0.4658 0.63904 0.0
C1431 C 0.34738 0.46339 0.66791 0.0
C1432 C 0.3279 0.46912 0.61987 0.0
C1433 C 0.34683 0.471 0.60925 0.0
C1434 C 0.34643 0.4651 0.64758 0.0
C1435 C 0.36511 0.4695 0.61826 0.0
C1436 C 0.36903 0.47638 0.67723 0.0
C1437 C 0.32734 0.44765 0.69661 0.0
N1438 N 0.36465 0.46698 0.63701 0.0
N1439 N 0.32718 0.44951 0.67779 0.0
H1440 H 0.52666 0.8574 0.70388 0.0
H1441 H 0.59183 0.94491 0.61936 0.0
H1442 H 0.58581 0.9281 0.71234 0.0
H1443 H 0.56118 0.86884 0.6152 0.0
H1444 H 0.584 0.94046 0.65286 0.0
H1445 H 0.5331 0.8628 0.67037 0.0
C1446 C 0.54078 0.87417 0.69869 0.0
C1447 C 0.55562 0.8924 0.71085 0.0
C1448 C 0.57895 0.9248 0.64451 0.0
C1449 C 0.5631 0.89866 0.67263 0.0
C1450 C 0.5833 0.92727 0.62542 0.0
C1451 C 0.57701 0.90718 0.6144 0.0
C1452 C 0.56786 0.90205 0.65251 0.0
C1453 C 0.56616 0.88479 0.62303 0.0
C1454 C 0.54458 0.87715 0.67959 0.0
C1455 C 0.57403 0.9136 0.70337 0.0
N1456 N 0.56179 0.88281 0.64156 0.0
N1457 N 0.57719 0.91624 0.68468 0.0
H1458 H 0.04576 0.63952 0.69619 0.0
H1459 H 0.09944 0.73882 0.61756 0.0
H1460 H 0.06812 0.71306 0.70712 0.0
H1461 H 0.04886 0.66549 0.60533 0.0
H1462 H 0.09285 0.7296 0.6508 0.0
H1463 H 0.05139 0.64857 0.66286 0.0
C1464 C 0.05183 0.65754 0.69157 0.0
C1465 C 0.05643 0.67556 0.70438 0.0
C1466 C 0.08316 0.71558 0.6408 0.0
C1467 C 0.06316 0.68604 0.66649 0.0
C1468 C 0.08696 0.7208 0.62188 0.0
C1469 C 0.07461 0.7029 0.60872 0.0
C1470 C 0.06725 0.69223 0.64656 0.0
C1471 C 0.05862 0.67985 0.61504 0.0
C1472 C 0.05495 0.66266 0.67259 0.0
C1473 C 0.06422 0.69861 0.69768 0.0
N1474 N 0.05551 0.67512 0.63353 0.0
N1475 N 0.06753 0.70324 0.67919 0.0
H1476 H 0.84219 0.04299 0.05321 0.0
H1477 H 0.93774 0.16737 0.09779 0.0
H1478 H 0.82671 0.07215 0.10156 0.0
H1479 H 0.9503 0.13416 0.05062 0.0
H1480 H 0.89646 0.13445 0.09882 0.0
H1481 H 0.88123 0.07805 0.05146 0.0
C1482 C 0.84698 0.05678 0.0635 0.0
C1483 C 0.83112 0.05445 0.07766 0.0
C1484 C 0.90831 0.13451 0.08824 0.0
C1485 C 0.87624 0.095 0.07572 0.0
C1486 C 0.93184 0.15329 0.08761 0.0
C1487 C 0.94761 0.15348 0.07419 0.0
C1488 C 0.90058 0.11593 0.0753 0.0
C1489 C 0.93896 0.13477 0.06135 0.0
C1490 C 0.86937 0.07691 0.06247 0.0
C1491 C 0.83839 0.07315 0.09045 0.0
N1492 N 0.91615 0.11682 0.06227 0.0
N1493 N 0.86051 0.09262 0.08924 0.0
H1494 H 0.00628 0.87841 0.10244 0.0
H1495 H 0.86551 0.79738 0.11388 0.0
H1496 H 0.97157 0.80286 0.11277 0.0
H1497 H 0.90215 0.87039 0.09526 0.0
H1498 H 0.90409 0.79998 0.1188 0.0
H1499 H 0.96829 0.87673 0.10563 0.0
C1500 C 0.99069 0.86147 0.10559 0.0
C1501 C 0.99209 0.84068 0.10706 0.0
C1502 C 0.9036 0.81544 0.1138 0.0
C1503 C 0.94827 0.83858 0.11051 0.0
C1504 C 0.88162 0.814 0.11102 0.0
C1505 C 0.88059 0.83362 0.10393 0.0
C1506 C 0.92461 0.83671 0.10961 0.0
C1507 C 0.90202 0.8547 0.10049 0.0
C1508 C 0.96894 0.86051 0.10737 0.0
C1509 C 0.97129 0.81931 0.11142 0.0
N1510 N 0.92306 0.85563 0.10329 0.0
N1511 N 0.95013 0.81874 0.11275 0.0
H1512 H 0.27174 0.06795 0.09299 0.0
H1513 H 0.17605 0.10376 0.06106 0.0
H1514 H 0.2133 0.02599 0.05596 0.0
H1515 H 0.2367 0.14884 0.0952 0.0
H1516 H 0.18851 0.07421 0.0606 0.0
H1517 H 0.25837 0.09692 0.0953 0.0
C1518 C 0.25609 0.06478 0.08536 0.0
C1519 C 0.24367 0.04447 0.07421 0.0
C1520 C 0.19909 0.09052 0.06823 0.0
C1521 C 0.22828 0.07761 0.07686 0.0
C1522 C 0.19197 0.10746 0.06854 0.0
C1523 C 0.20539 0.12895 0.07813 0.0
C1524 C 0.21984 0.09499 0.07758 0.0
C1525 C 0.22581 0.13258 0.08759 0.0
C1526 C 0.24848 0.08136 0.08669 0.0
C1527 C 0.22351 0.04137 0.06468 0.0
N1528 N 0.23246 0.1158 0.08703 0.0
N1529 N 0.21648 0.05774 0.06622 0.0
H1530 H 0.22367 0.97625 0.87799 0.0
H1531 H 0.09459 0.9346 0.91947 0.0
H1532 H 0.20751 0.01679 0.91681 0.0
H1533 H 0.10887 0.88984 0.88378 0.0
H1534 H 0.13588 0.96541 0.91715 0.0
H1535 H 0.18184 0.94491 0.87865 0.0
C1536 C 0.21139 0.9786 0.88664 0.0
C1537 C 0.2192 -0.00076 0.89739 0.0
C1538 C 0.13008 0.9489 0.90978 0.0
C1539 C 0.17137 0.96348 0.89814 0.0
C1540 C 0.10639 0.9312 0.91108 0.0
C1541 C 0.09814 0.90945 0.90186 0.0
C1542 C 0.14589 0.94499 0.89918 0.0
C1543 C 0.11441 0.9063 0.89115 0.0
C1544 C 0.18752 0.96069 0.887 0.0
C1545 C 0.20243 0.00125 0.90831 0.0
N1546 N 0.13757 0.92388 0.89014 0.0
N1547 N 0.1794 0.98365 0.90838 0.0
H1548 H 0.13487 0.16511 0.8793 0.0
H1549 H 0.07509 0.24641 0.87127 0.0
H1550 H 0.17594 0.24127 0.87233 0.0
H1551 H 0.03819 0.17186 0.88563 0.0
H1552 H 0.11147 0.24448 0.86627 0.0
H1553 H 0.09866 0.16688 0.87578 0.0
C1554 C 0.13629 0.18223 0.87684 0.0
C1555 C 0.15848 0.20311 0.87639 0.0
C1556 C 0.09531 0.22854 0.87034 0.0
C1557 C 0.11688 0.20533 0.87258 0.0
C1558 C 0.07456 0.22961 0.87314 0.0
C1559 C 0.05367 0.20934 0.87911 0.0
C1560 C 0.09498 0.207 0.87336 0.0
C1561 C 0.05396 0.18804 0.88131 0.0
C1562 C 0.11556 0.18323 0.87486 0.0
C1563 C 0.15918 0.22474 0.87288 0.0
N1564 N 0.07426 0.18748 0.87853 0.0
N1565 N 0.13863 0.22534 0.87137 0.0
H1566 H 0.78778 0.87039 0.88854 0.0
H1567 H 0.81362 0.99262 0.93542 0.0
H1568 H 0.83528 0.90447 0.93464 0.0
H1569 H 0.76825 0.9634 0.88749 0.0
H1570 H 0.8192 0.95851 0.93604 0.0
H1571 H 0.77813 0.90241 0.88853 0.0
C1572 C 0.79611 0.8845 0.89868 0.0
C1573 C 0.81248 0.88476 0.91155 0.0
C1574 C 0.80797 0.95941 0.92536 0.0
C1575 C 0.80148 0.92129 0.91161 0.0
C1576 C 0.80477 0.97899 0.92498 0.0
C1577 C 0.79059 0.98107 0.91126 0.0
C1578 C 0.79704 0.94159 0.91189 0.0
C1579 C 0.77939 0.96258 0.89828 0.0
C1580 C 0.7906 0.90276 0.89865 0.0
C1581 C 0.82269 0.9035 0.92436 0.0
N1582 N 0.78297 0.94363 0.89883 0.0
N1583 N 0.81704 0.92093 0.92403 0.0
H1584 H 0.50639 0.37507 0.37981 0.0
H1585 H 0.6016 0.49632 0.42878 0.0
H1586 H 0.48848 0.40575 0.42582 0.0
H1587 H 0.61726 0.46157 0.38445 0.0
H1588 H 0.55969 0.46508 0.4271 0.0
H1589 H 0.54665 0.40853 0.38039 0.0
C1590 C 0.51088 0.38888 0.39004 0.0
C1591 C 0.49398 0.38744 0.40287 0.0
C1592 C 0.57236 0.46442 0.41774 0.0
C1593 C 0.5404 0.42604 0.40365 0.0
C1594 C 0.59626 0.48223 0.41868 0.0
C1595 C 0.61306 0.48152 0.40683 0.0
C1596 C 0.56527 0.44589 0.40482 0.0
C1597 C 0.60509 0.46285 0.39398 0.0
C1598 C 0.53396 0.40805 0.39036 0.0
C1599 C 0.50093 0.40607 0.41569 0.0
N1600 N 0.58187 0.44584 0.39337 0.0
N1601 N 0.52367 0.42456 0.41582 0.0
H1602 H 0.6247 0.13807 0.45353 0.0
H1603 H 0.55149 0.20122 0.42263 0.0
H1604 H 0.65452 0.20714 0.42754 0.0
H1605 H 0.51772 0.13228 0.44915 0.0
H1606 H 0.58958 0.20359 0.42603 0.0
H1607 H 0.58567 0.1355 0.45376 0.0
C1608 C 0.62311 0.15272 0.44799 0.0
C1609 C 0.64294 0.17279 0.44039 0.0
C1610 C 0.57394 0.18791 0.4312 0.0
C1611 C 0.59851 0.16993 0.44061 0.0
C1612 C 0.55205 0.18652 0.42922 0.0
C1613 C 0.53125 0.16643 0.43549 0.0
C1614 C 0.57529 0.16903 0.43943 0.0
C1615 C 0.5333 0.14809 0.44409 0.0
C1616 C 0.60085 0.15121 0.44811 0.0
C1617 C 0.63982 0.19122 0.43341 0.0
N1618 N 0.55496 0.14975 0.44571 0.0
N1619 N 0.61812 0.18928 0.43366 0.0
H1620 H 0.90077 0.39295 0.38653 0.0
H1621 H 0.90927 0.50694 0.43616 0.0
H1622 H 0.92951 0.4148 0.44164 0.0
H1623 H 0.87539 0.4782 0.38351 0.0
H1624 H 0.92233 0.47738 0.43707 0.0
H1625 H 0.89734 0.42832 0.38373 0.0
C1626 C 0.90649 0.40531 0.39804 0.0
C1627 C 0.91509 0.40073 0.41446 0.0
C1628 C 0.91223 0.47776 0.42527 0.0
C1629 C 0.91095 0.44139 0.41142 0.0
C1630 C 0.90484 0.49464 0.42472 0.0
C1631 C 0.89094 0.49481 0.40986 0.0
C1632 C 0.90582 0.4612 0.41078 0.0
C1633 C 0.88573 0.47851 0.39539 0.0
C1634 C 0.90454 0.42557 0.39643 0.0
C1635 C 0.92265 0.41762 0.42878 0.0
N1636 N 0.89305 0.46237 0.39628 0.0
N1637 N 0.9201 0.43711 0.42704 0.0
H1638 H 0.76628 0.26104 0.26745 0.0
H1639 H 0.89847 0.31338 0.22874 0.0
H1640 H 0.78694 0.22011 0.23294 0.0
H1641 H 0.87521 0.35182 0.26365 0.0
H1642 H 0.85784 0.2795 0.22878 0.0
H1643 H 0.80613 0.29476 0.26494 0.0
C1644 C 0.77919 0.25908 0.2593 0.0
C1645 C 0.77316 0.23756 0.25045 0.0
C1646 C 0.86168 0.29541 0.23636 0.0
C1647 C 0.81925 0.27649 0.24752 0.0
C1648 C 0.88485 0.31478 0.23632 0.0
C1649 C 0.89034 0.3355 0.24628 0.0
C1650 C 0.84391 0.2968 0.2464 0.0
C1651 C 0.87194 0.33625 0.25584 0.0
C1652 C 0.80204 0.27846 0.25786 0.0
C1653 C 0.79077 0.23631 0.24003 0.0
N1654 N 0.84965 0.31721 0.25569 0.0
N1655 N 0.81308 0.25552 0.2389 0.0
H1656 H 0.81855 0.51065 0.21004 0.0
H1657 H 0.7497 0.58333 0.20568 0.0
H1658 H 0.85467 0.58715 0.20621 0.0
H1659 H 0.71706 0.50776 0.21505 0.0
H1660 H 0.78766 0.58495 0.19972 0.0
H1661 H 0.78087 0.50918 0.20517 0.0
C1662 C 0.81856 0.52716 0.2079 0.0
C1663 C 0.83972 0.54907 0.20881 0.0
C1664 C 0.77208 0.568 0.20283 0.0
C1665 C 0.79645 0.54758 0.20359 0.0
C1666 C 0.75042 0.56705 0.20619 0.0
C1667 C 0.73028 0.54543 0.21115 0.0
C1668 C 0.77345 0.54714 0.20433 0.0
C1669 C 0.7322 0.52488 0.21159 0.0
C1670 C 0.79701 0.52633 0.20516 0.0
C1671 C 0.83872 0.56988 0.20568 0.0
N1672 N 0.75338 0.52629 0.20837 0.0
N1673 N 0.81734 0.56867 0.20354 0.0
H1674 H 0.44125 0.29335 0.2142 0.0
H1675 H 0.51688 0.24461 0.26655 0.0
H1676 H 0.49385 0.33191 0.25636 0.0
H1677 H 0.46552 0.20468 0.22396 0.0
H1678 H 0.50822 0.27659 0.26267 0.0
H1679 H 0.44959 0.26068 0.21717 0.0
C1680 C 0.45458 0.29501 0.22404 0.0
C1681 C 0.46685 0.31547 0.23505 0.0
C1682 C 0.49881 0.26087 0.25414 0.0
C1683 C 0.4764 0.27812 0.23853 0.0
C1684 C 0.50374 0.24251 0.25635 0.0
C1685 C 0.49193 0.22182 0.24556 0.0
C1686 C 0.48189 0.2587 0.24103 0.0
C1687 C 0.47508 0.22027 0.23258 0.0
C1688 C 0.4593 0.27633 0.22573 0.0
C1689 C 0.4839 0.31656 0.24757 0.0
N1690 N 0.47055 0.23848 0.23068 0.0
N1691 N 0.48811 0.29818 0.24896 0.0
H1692 H 0.26635 0.76462 0.73225 0.0
H1693 H 0.1348 0.72662 0.76566 0.0
H1694 H 0.2515 0.80796 0.76911 0.0
H1695 H 0.15198 0.68827 0.72545 0.0
H1696 H 0.17713 0.75607 0.76819 0.0
H1697 H 0.22431 0.73584 0.73096 0.0
C1698 C 0.25427 0.76812 0.74014 0.0
C1699 C 0.2626 0.78888 0.75077 0.0
C1700 C 0.17156 0.7412 0.75882 0.0
C1701 C 0.21399 0.7557 0.74928 0.0
C1702 C 0.14741 0.72438 0.75734 0.0
C1703 C 0.13974 0.70488 0.7453 0.0
C1704 C 0.18815 0.73845 0.74822 0.0
C1705 C 0.15694 0.70295 0.7349 0.0
C1706 C 0.23015 0.75161 0.73936 0.0
C1707 C 0.24592 0.79224 0.76072 0.0
N1708 N 0.18025 0.71946 0.73663 0.0
N1709 N 0.22236 0.77581 0.75971 0.0
H1710 H 0.31979 0.53071 0.75255 0.0
H1711 H 0.18101 0.464 0.77406 0.0
H1712 H 0.28113 0.45788 0.77149 0.0
H1713 H 0.22364 0.53881 0.76133 0.0
H1714 H 0.21737 0.46158 0.77587 0.0
H1715 H 0.28479 0.53414 0.75792 0.0
C1716 C 0.30393 0.51541 0.7579 0.0
C1717 C 0.30337 0.49389 0.76139 0.0
C1718 C 0.21873 0.47857 0.77293 0.0
C1719 C 0.26292 0.49769 0.76755 0.0
C1720 C 0.19799 0.47999 0.77198 0.0
C1721 C 0.19922 0.50158 0.76729 0.0
C1722 C 0.24078 0.49886 0.76915 0.0
C1723 C 0.22173 0.5217 0.76472 0.0
C1724 C 0.28391 0.51742 0.76105 0.0
C1725 C 0.28234 0.47479 0.76855 0.0
N1726 N 0.24152 0.51978 0.7655 0.0
N1727 N 0.26283 0.47705 0.7712 0.0
H1728 H 0.59098 0.72957 0.76903 0.0
H1729 H 0.52692 0.79355 0.72089 0.0
H1730 H 0.54404 0.70255 0.72176 0.0
H1731 H 0.56793 0.82026 0.77121 0.0
H1732 H 0.53642 0.76202 0.72006 0.0
H1733 H 0.58579 0.76451 0.76926 0.0
C1734 C 0.57967 0.73099 0.75869 0.0
C1735 C 0.5678 0.71298 0.74543 0.0
C1736 C 0.54343 0.77473 0.73131 0.0
C1737 C 0.56193 0.75283 0.74559 0.0
C1738 C 0.53798 0.79283 0.73182 0.0
C1739 C 0.54642 0.80951 0.74627 0.0
C1740 C 0.55739 0.77304 0.7454 0.0
C1741 C 0.56097 0.80773 0.75985 0.0
C1742 C 0.57672 0.75091 0.75885 0.0
C1743 C 0.55342 0.7158 0.73235 0.0
N1744 N 0.56589 0.78967 0.75916 0.0
N1745 N 0.55091 0.73526 0.7328 0.0
H1746 H 0.524 0.66897 0.59537 0.0
H1747 H 0.4303 0.54344 0.5514 0.0
H1748 H 0.54228 0.63602 0.55126 0.0
H1749 H 0.41517 0.57739 0.59667 0.0
H1750 H 0.47141 0.57642 0.5511 0.0
H1751 H 0.48411 0.63493 0.59588 0.0
C1752 C 0.51966 0.65458 0.58575 0.0
C1753 C 0.53662 0.65548 0.57321 0.0
C1754 C 0.45906 0.57656 0.56111 0.0
C1755 C 0.49059 0.61613 0.57376 0.0
C1756 C 0.43559 0.55774 0.56131 0.0
C1757 C 0.41916 0.55764 0.57404 0.0
C1758 C 0.46612 0.59538 0.57371 0.0
C1759 C 0.42709 0.57665 0.58655 0.0
C1760 C 0.49679 0.63505 0.58608 0.0
C1761 C 0.52981 0.63613 0.56116 0.0
N1762 N 0.44991 0.59471 0.58602 0.0
N1763 N 0.50728 0.61725 0.5617 0.0
H1764 H 0.41413 0.912 0.54739 0.0
H1765 H 0.48362 0.84134 0.56298 0.0
H1766 H 0.38072 0.83678 0.55889 0.0
H1767 H 0.51926 0.91625 0.5499 0.0
H1768 H 0.44564 0.83904 0.55804 0.0
H1769 H 0.45241 0.91358 0.5446 0.0
C1770 C 0.41475 0.89576 0.54904 0.0
C1771 C 0.39419 0.87427 0.55363 0.0
C1772 C 0.46171 0.856 0.5561 0.0
C1773 C 0.43791 0.87602 0.55058 0.0
C1774 C 0.48347 0.85734 0.55898 0.0
C1775 C 0.50468 0.8791 0.55709 0.0
C1776 C 0.46097 0.87661 0.55147 0.0
C1777 C 0.50332 0.89914 0.55159 0.0
C1778 C 0.43663 0.8967 0.54751 0.0
C1779 C 0.3961 0.85381 0.55559 0.0
N1780 N 0.48179 0.89748 0.54919 0.0
N1781 N 0.41755 0.85525 0.55422 0.0
H1782 H 0.15826 0.6887 0.59201 0.0
H1783 H 0.13079 0.56388 0.54896 0.0
H1784 H 0.10456 0.65177 0.55023 0.0
H1785 H 0.18668 0.60465 0.58832 0.0
H1786 H 0.12039 0.59532 0.54906 0.0
H1787 H 0.16833 0.65741 0.59075 0.0
C1788 C 0.14855 0.67401 0.58255 0.0
C1789 C 0.1305 0.67292 0.57122 0.0
C1790 C 0.13494 0.59732 0.55762 0.0
C1791 C 0.14201 0.63682 0.5697 0.0
C1792 C 0.14089 0.57939 0.55758 0.0
C1793 C 0.15962 0.58154 0.56867 0.0
C1794 C 0.14779 0.61747 0.56886 0.0
C1795 C 0.17208 0.60208 0.57955 0.0
C1796 C 0.15435 0.65611 0.58182 0.0
C1797 C 0.11861 0.65339 0.55922 0.0
N1798 N 0.16591 0.61914 0.57938 0.0
N1799 N 0.12455 0.63608 0.5588 0.0
loop_
_geom_bond_atom_site_label_1
_geom_bond_atom_site_label_2
_geom_bond_distance
_geom_bond_site_symmetry_2
_ccdc_geom_bond_type
Mg0 O1 2.028 . S
Mg0 O7 1.986 . S
Mg0 O9 2.114 . S
Mg0 O10 2.251 . S
Mg0 O13 2.010 . S
O1 Mg0 2.028 . S
O1 C4 1.250 1_455 S
O2 Mg3 2.028 . S
O2 C4 1.248 1_455 S
Mg3 O2 2.028 . S
Mg3 O8 2.032 . S
Mg3 O10 2.079 . S
C4 O1 1.250 1_655 S
C4 O2 1.248 1_655 S
C5 O6 1.264 . S
C5 O13 1.249 . S
O6 C5 1.264 . S
O7 Mg0 1.986 . S
O7 C11 1.246 . S
O8 Mg3 2.032 . S
O8 C11 1.259 . S
O9 Mg0 2.114 . S
O9 C12 1.252 . S
O10 Mg0 2.251 . S
O10 Mg3 2.079 . S
O10 C12 1.273 . S
C11 O7 1.246 . S
C11 O8 1.259 . S
C12 O9 1.252 . S
C12 O10 1.273 . S
O13 Mg0 2.010 . S
O13 C5 1.249 . S
Mg14 O15 2.028 . S
Mg14 O21 1.986 . S
Mg14 O23 2.114 . S
Mg14 O24 2.251 . S
Mg14 O27 2.010 . S
O15 Mg14 2.028 . S
O15 C18 1.250 . S
O16 Mg17 2.028 . S
O16 C18 1.248 . S
Mg17 O16 2.028 . S
Mg17 O22 2.032 . S
Mg17 O24 2.079 . S
C18 O15 1.250 . S
C18 O16 1.248 . S
C19 O20 1.264 . S
C19 O27 1.249 . S
O20 C19 1.264 . S
O21 Mg14 1.986 . S
O21 C25 1.246 . S
O22 Mg17 2.032 . S
O22 C25 1.259 . S
O23 Mg14 2.114 . S
O23 C26 1.252 . S
O24 Mg14 2.251 . S
O24 Mg17 2.079 . S
O24 C26 1.273 . S
C25 O21 1.246 . S
C25 O22 1.259 . S
C26 O23 1.252 . S
C26 O24 1.273 . S
O27 Mg14 2.010 . S
O27 C19 1.249 . S
Mg28 O29 2.028 . S
Mg28 O35 1.986 1_545 S
Mg28 O37 2.114 . S
Mg28 O38 2.251 . S
Mg28 O41 2.010 . S
O29 Mg28 2.028 . S
O29 C32 1.250 . S
O30 Mg31 2.028 . S
O30 C32 1.248 . S
Mg31 O30 2.028 . S
Mg31 O36 2.032 1_545 S
Mg31 O38 2.079 . S
C32 O29 1.250 . S
C32 O30 1.248 . S
C33 O34 1.264 . S
C33 O41 1.249 . S
O34 C33 1.264 . S
O35 Mg28 1.986 1_565 S
O35 C39 1.246 . S
O36 Mg31 2.032 1_565 S
O36 C39 1.259 . S
O37 Mg28 2.114 . S
O37 C40 1.252 . S
O38 Mg28 2.251 . S
O38 Mg31 2.079 . S
O38 C40 1.273 . S
C39 O35 1.246 . S
C39 O36 1.259 . S
C40 O37 1.252 . S
C40 O38 1.273 . S
O41 Mg28 2.010 . S
O41 C33 1.249 . S
Mg42 O43 2.028 . S
Mg42 O49 1.986 . S
Mg42 O51 2.114 . S
Mg42 O52 2.251 . S
Mg42 O55 2.010 . S
O43 Mg42 2.028 . S
O43 C46 1.250 1_545 S
O44 Mg45 2.028 . S
O44 C46 1.248 1_545 S
Mg45 O44 2.028 . S
Mg45 O50 2.032 . S
Mg45 O52 2.079 . S
C46 O43 1.250 1_565 S
C46 O44 1.248 1_565 S
C47 O48 1.264 . S
C47 O55 1.249 . S
O48 C47 1.264 . S
O49 Mg42 1.986 . S
O49 C53 1.246 . S
O50 Mg45 2.032 . S
O50 C53 1.259 . S
O51 Mg42 2.114 . S
O51 C54 1.252 . S
O52 Mg42 2.251 . S
O52 Mg45 2.079 . S
O52 C54 1.273 . S
C53 O49 1.246 . S
C53 O50 1.259 . S
C54 O51 1.252 . S
C54 O52 1.273 . S
O55 Mg42 2.010 . S
O55 C47 1.249 . S
Mg56 O57 2.028 . S
Mg56 O63 1.986 1_455 S
Mg56 O65 2.114 . S
Mg56 O66 2.251 . S
Mg56 O69 2.010 . S
O57 Mg56 2.028 . S
O57 C60 1.250 . S
O58 Mg59 2.028 . S
O58 C60 1.248 . S
Mg59 O58 2.028 . S
Mg59 O64 2.032 1_455 S
Mg59 O66 2.079 . S
C60 O57 1.250 . S
C60 O58 1.248 . S
C61 O62 1.264 . S
C61 O69 1.249 . S
O62 C61 1.264 . S
O63 Mg56 1.986 1_655 S
O63 C67 1.246 . S
O64 Mg59 2.032 1_655 S
O64 C67 1.259 . S
O65 Mg56 2.114 . S
O65 C68 1.252 . S
O66 Mg56 2.251 . S
O66 Mg59 2.079 . S
O66 C68 1.273 . S
C67 O63 1.246 . S
C67 O64 1.259 . S
C68 O65 1.252 . S
C68 O66 1.273 . S
O69 Mg56 2.010 . S
O69 C61 1.249 . S
Mg70 O71 2.028 . S
Mg70 O77 1.986 . S
Mg70 O79 2.114 . S
Mg70 O80 2.251 . S
Mg70 O83 2.010 . S
O71 Mg70 2.028 . S
O71 C74 1.250 . S
O72 Mg73 2.028 . S
O72 C74 1.248 . S
Mg73 O72 2.028 . S
Mg73 O78 2.032 . S
Mg73 O80 2.079 . S
C74 O71 1.250 . S
C74 O72 1.248 . S
C75 O76 1.264 . S
C75 O83 1.249 . S
O76 C75 1.264 . S
O77 Mg70 1.986 . S
O77 C81 1.246 . S
O78 Mg73 2.032 . S
O78 C81 1.259 . S
O79 Mg70 2.114 . S
O79 C82 1.252 . S
O80 Mg70 2.251 . S
O80 Mg73 2.079 . S
O80 C82 1.273 . S
C81 O77 1.246 . S
C81 O78 1.259 . S
C82 O79 1.252 . S
C82 O80 1.273 . S
O83 Mg70 2.010 . S
O83 C75 1.249 . S
Mg84 O85 2.028 . S
Mg84 O91 1.986 1_455 S
Mg84 O93 2.114 . S
Mg84 O94 2.251 . S
Mg84 O97 2.010 . S
O85 Mg84 2.028 . S
O85 C88 1.250 . S
O86 Mg87 2.028 . S
O86 C88 1.248 . S
Mg87 O86 2.028 . S
Mg87 O92 2.032 1_455 S
Mg87 O94 2.079 . S
C88 O85 1.250 . S
C88 O86 1.248 . S
C89 O90 1.264 . S
C89 O97 1.249 . S
O90 C89 1.264 . S
O91 Mg84 1.986 1_655 S
O91 C95 1.246 . S
O92 Mg87 2.032 1_655 S
O92 C95 1.259 . S
O93 Mg84 2.114 . S
O93 C96 1.252 . S
O94 Mg84 2.251 . S
O94 Mg87 2.079 . S
O94 C96 1.273 . S
C95 O91 1.246 . S
C95 O92 1.259 . S
C96 O93 1.252 . S
C96 O94 1.273 . S
O97 Mg84 2.010 . S
O97 C89 1.249 . S
Mg98 O99 2.028 . S
Mg98 O105 1.986 . S
Mg98 O107 2.114 . S
Mg98 O108 2.251 . S
Mg98 O111 2.010 . S
O99 Mg98 2.028 . S
O99 C102 1.250 . S
O100 Mg101 2.028 . S
O100 C102 1.248 . S
Mg101 O100 2.028 . S
Mg101 O106 2.032 . S
Mg101 O108 2.079 . S
C102 O99 1.250 . S
C102 O100 1.248 . S
C103 O104 1.264 . S
C103 O111 1.249 . S
O104 C103 1.264 . S
O105 Mg98 1.986 . S
O105 C109 1.246 . S
O106 Mg101 2.032 . S
O106 C109 1.259 . S
O107 Mg98 2.114 . S
O107 C110 1.252 . S
O108 Mg98 2.251 . S
O108 Mg101 2.079 . S
O108 C110 1.273 . S
C109 O105 1.246 . S
C109 O106 1.259 . S
C110 O107 1.252 . S
C110 O108 1.273 . S
O111 Mg98 2.010 . S
O111 C103 1.249 . S
Mg112 O113 2.028 . S
Mg112 O119 1.986 . S
Mg112 O121 2.114 . S
Mg112 O122 2.251 . S
Mg112 O125 2.010 . S
O113 Mg112 2.028 . S
O113 C116 1.250 1_545 S
O114 Mg115 2.028 . S
O114 C116 1.248 1_545 S
Mg115 O114 2.028 . S
Mg115 O120 2.032 . S
Mg115 O122 2.079 . S
C116 O113 1.250 1_565 S
C116 O114 1.248 1_565 S
C117 O118 1.264 . S
C117 O125 1.249 . S
O118 C117 1.264 . S
O119 Mg112 1.986 . S
O119 C123 1.246 . S
O120 Mg115 2.032 . S
O120 C123 1.259 . S
O121 Mg112 2.114 . S
O121 C124 1.252 . S
O122 Mg112 2.251 . S
O122 Mg115 2.079 . S
O122 C124 1.273 . S
C123 O119 1.246 . S
C123 O120 1.259 . S
C124 O121 1.252 . S
C124 O122 1.273 . S
O125 Mg112 2.010 . S
O125 C117 1.249 . S
Mg126 O127 2.028 . S
Mg126 O133 1.986 1_545 S
Mg126 O135 2.114 . S
Mg126 O136 2.251 . S
Mg126 O139 2.010 . S
O127 Mg126 2.028 . S
O127 C130 1.250 . S
O128 Mg129 2.028 . S
O128 C130 1.248 . S
Mg129 O128 2.028 . S
Mg129 O134 2.032 1_545 S
Mg129 O136 2.079 . S
C130 O127 1.250 . S
C130 O128 1.248 . S
C131 O132 1.264 . S
C131 O139 1.249 . S
O132 C131 1.264 . S
O133 Mg126 1.986 1_565 S
O133 C137 1.246 . S
O134 Mg129 2.032 1_565 S
O134 C137 1.259 . S
O135 Mg126 2.114 . S
O135 C138 1.252 . S
O136 Mg126 2.251 . S
O136 Mg129 2.079 . S
O136 C138 1.273 . S
C137 O133 1.246 . S
C137 O134 1.259 . S
C138 O135 1.252 . S
C138 O136 1.273 . S
O139 Mg126 2.010 . S
O139 C131 1.249 . S
Mg140 O141 2.028 . S
Mg140 O147 1.986 . S
Mg140 O149 2.114 . S
Mg140 O150 2.251 . S
Mg140 O153 2.010 . S
O141 Mg140 2.028 . S
O141 C144 1.250 1_455 S
O142 Mg143 2.028 . S
O142 C144 1.248 1_455 S
Mg143 O142 2.028 . S
Mg143 O148 2.032 . S
Mg143 O150 2.079 . S
C144 O141 1.250 1_655 S
C144 O142 1.248 1_655 S
C145 O146 1.264 . S
C145 O153 1.249 . S
O146 C145 1.264 . S
O147 Mg140 1.986 . S
O147 C151 1.246 . S
O148 Mg143 2.032 . S
O148 C151 1.259 . S
O149 Mg140 2.114 . S
O149 C152 1.252 . S
O150 Mg140 2.251 . S
O150 Mg143 2.079 . S
O150 C152 1.273 . S
C151 O147 1.246 . S
C151 O148 1.259 . S
C152 O149 1.252 . S
C152 O150 1.273 . S
O153 Mg140 2.010 . S
O153 C145 1.249 . S
Mg154 O155 2.028 . S
Mg154 O161 1.986 . S
Mg154 O163 2.114 . S
Mg154 O164 2.251 . S
Mg154 O167 2.010 . S
O155 Mg154 2.028 . S
O155 C158 1.250 . S
O156 Mg157 2.028 . S
O156 C158 1.248 . S
Mg157 O156 2.028 . S
Mg157 O162 2.032 . S
Mg157 O164 2.079 . S
C158 O155 1.250 . S
C158 O156 1.248 . S
C159 O160 1.264 . S
C159 O167 1.249 . S
O160 C159 1.264 . S
O161 Mg154 1.986 . S
O161 C165 1.246 . S
O162 Mg157 2.032 . S
O162 C165 1.259 . S
O163 Mg154 2.114 . S
O163 C166 1.252 . S
O164 Mg154 2.251 . S
O164 Mg157 2.079 . S
O164 C166 1.273 . S
C165 O161 1.246 . S
C165 O162 1.259 . S
C166 O163 1.252 . S
C166 O164 1.273 . S
O167 Mg154 2.010 . S
O167 C159 1.249 . S
Mg168 O169 2.028 . S
Mg168 O175 1.986 . S
Mg168 O177 2.114 . S
Mg168 O178 2.251 . S
Mg168 O181 2.010 . S
O169 Mg168 2.028 . S
O169 C172 1.250 . S
O170 Mg171 2.028 . S
O170 C172 1.248 . S
Mg171 O170 2.028 . S
Mg171 O176 2.032 . S
Mg171 O178 2.079 . S
C172 O169 1.250 . S
C172 O170 1.248 . S
C173 O174 1.264 . S
C173 O181 1.249 . S
O174 C173 1.264 . S
O175 Mg168 1.986 . S
O175 C179 1.246 . S
O176 Mg171 2.032 . S
O176 C179 1.259 . S
O177 Mg168 2.114 . S
O177 C180 1.252 . S
O178 Mg168 2.251 . S
O178 Mg171 2.079 . S
O178 C180 1.273 . S
C179 O175 1.246 . S
C179 O176 1.259 . S
C180 O177 1.252 . S
C180 O178 1.273 . S
O181 Mg168 2.010 . S
O181 C173 1.249 . S
Mg182 O183 2.028 . S
Mg182 O189 1.986 . S
Mg182 O191 2.114 . S
Mg182 O192 2.251 . S
Mg182 O195 2.010 . S
O183 Mg182 2.028 . S
O183 C186 1.250 . S
O184 Mg185 2.028 . S
O184 C186 1.248 . S
Mg185 O184 2.028 . S
Mg185 O190 2.032 . S
Mg185 O192 2.079 . S
C186 O183 1.250 . S
C186 O184 1.248 . S
C187 O188 1.264 . S
C187 O195 1.249 . S
O188 C187 1.264 . S
O189 Mg182 1.986 . S
O189 C193 1.246 . S
O190 Mg185 2.032 . S
O190 C193 1.259 . S
O191 Mg182 2.114 . S
O191 C194 1.252 . S
O192 Mg182 2.251 . S
O192 Mg185 2.079 . S
O192 C194 1.273 . S
C193 O189 1.246 . S
C193 O190 1.259 . S
C194 O191 1.252 . S
C194 O192 1.273 . S
O195 Mg182 2.010 . S
O195 C187 1.249 . S
Mg196 O197 2.028 . S
Mg196 O203 1.986 . S
Mg196 O205 2.114 . S
Mg196 O206 2.251 . S
Mg196 O209 2.010 . S
O197 Mg196 2.028 . S
O197 C200 1.250 . S
O198 Mg199 2.028 . S
O198 C200 1.248 . S
Mg199 O198 2.028 . S
Mg199 O204 2.032 . S
Mg199 O206 2.079 . S
C200 O197 1.250 . S
C200 O198 1.248 . S
C201 O202 1.264 . S
C201 O209 1.249 . S
O202 C201 1.264 . S
O203 Mg196 1.986 . S
O203 C207 1.246 . S
O204 Mg199 2.032 . S
O204 C207 1.259 . S
O205 Mg196 2.114 . S
O205 C208 1.252 . S
O206 Mg196 2.251 . S
O206 Mg199 2.079 . S
O206 C208 1.273 . S
C207 O203 1.246 . S
C207 O204 1.259 . S
C208 O205 1.252 . S
C208 O206 1.273 . S
O209 Mg196 2.010 . S
O209 C201 1.249 . S
Mg210 O211 2.028 . S
Mg210 O217 1.986 . S
Mg210 O219 2.114 . S
Mg210 O220 2.251 . S
Mg210 O223 2.010 . S
O211 Mg210 2.028 . S
O211 C214 1.250 . S
O212 Mg213 2.028 . S
O212 C214 1.248 . S
Mg213 O212 2.028 . S
Mg213 O218 2.032 . S
Mg213 O220 2.079 . S
C214 O211 1.250 . S
C214 O212 1.248 . S
C215 O216 1.264 . S
C215 O223 1.249 . S
O216 C215 1.264 . S
O217 Mg210 1.986 . S
O217 C221 1.246 . S
O218 Mg213 2.032 . S
O218 C221 1.259 . S
O219 Mg210 2.114 . S
O219 C222 1.252 . S
O220 Mg210 2.251 . S
O220 Mg213 2.079 . S
O220 C222 1.273 . S
C221 O217 1.246 . S
C221 O218 1.259 . S
C222 O219 1.252 . S
C222 O220 1.273 . S
O223 Mg210 2.010 . S
O223 C215 1.249 . S
Mg224 O225 2.028 . S
Mg224 O231 1.986 . S
Mg224 O233 2.114 . S
Mg224 O234 2.251 . S
Mg224 O237 2.010 . S
O225 Mg224 2.028 . S
O225 C228 1.250 . S
O226 Mg227 2.028 . S
O226 C228 1.248 . S
Mg227 O226 2.028 . S
Mg227 O232 2.032 . S
Mg227 O234 2.079 . S
C228 O225 1.250 . S
C228 O226 1.248 . S
C229 O230 1.264 . S
C229 O237 1.249 . S
O230 C229 1.264 . S
O231 Mg224 1.986 . S
O231 C235 1.246 . S
O232 Mg227 2.032 . S
O232 C235 1.259 . S
O233 Mg224 2.114 . S
O233 C236 1.252 . S
O234 Mg224 2.251 . S
O234 Mg227 2.079 . S
O234 C236 1.273 . S
C235 O231 1.246 . S
C235 O232 1.259 . S
C236 O233 1.252 . S
C236 O234 1.273 . S
O237 Mg224 2.010 . S
O237 C229 1.249 . S
Mg238 O239 2.028 . S
Mg238 O245 1.986 . S
Mg238 O247 2.114 . S
Mg238 O248 2.251 . S
Mg238 O251 2.010 . S
O239 Mg238 2.028 . S
O239 C242 1.250 . S
O240 Mg241 2.028 . S
O240 C242 1.248 . S
Mg241 O240 2.028 . S
Mg241 O246 2.032 . S
Mg241 O248 2.079 . S
C242 O239 1.250 . S
C242 O240 1.248 . S
C243 O244 1.264 . S
C243 O251 1.249 . S
O244 C243 1.264 . S
O245 Mg238 1.986 . S
O245 C249 1.246 . S
O246 Mg241 2.032 . S
O246 C249 1.259 . S
O247 Mg238 2.114 . S
O247 C250 1.252 . S
O248 Mg238 2.251 . S
O248 Mg241 2.079 . S
O248 C250 1.273 . S
C249 O245 1.246 . S
C249 O246 1.259 . S
C250 O247 1.252 . S
C250 O248 1.273 . S
O251 Mg238 2.010 . S
O251 C243 1.249 . S
Mg252 O253 2.028 . S
Mg252 O259 1.986 . S
Mg252 O261 2.114 . S
Mg252 O262 2.251 . S
Mg252 O265 2.010 . S
O253 Mg252 2.028 . S
O253 C256 1.250 . S
O254 Mg255 2.028 . S
O254 C256 1.248 . S
Mg255 O254 2.028 . S
Mg255 O260 2.032 . S
Mg255 O262 2.079 . S
C256 O253 1.250 . S
C256 O254 1.248 . S
C257 O258 1.264 . S
C257 O265 1.249 . S
O258 C257 1.264 . S
O259 Mg252 1.986 . S
O259 C263 1.246 . S
O260 Mg255 2.032 . S
O260 C263 1.259 . S
O261 Mg252 2.114 . S
O261 C264 1.252 . S
O262 Mg252 2.251 . S
O262 Mg255 2.079 . S
O262 C264 1.273 . S
C263 O259 1.246 . S
C263 O260 1.259 . S
C264 O261 1.252 . S
C264 O262 1.273 . S
O265 Mg252 2.010 . S
O265 C257 1.249 . S
Mg266 O267 2.028 . S
Mg266 O273 1.986 . S
Mg266 O275 2.114 . S
Mg266 O276 2.251 . S
Mg266 O279 2.010 . S
O267 Mg266 2.028 . S
O267 C270 1.250 . S
O268 Mg269 2.028 . S
O268 C270 1.248 . S
Mg269 O268 2.028 . S
Mg269 O274 2.032 . S
Mg269 O276 2.079 . S
C270 O267 1.250 . S
C270 O268 1.248 . S
C271 O272 1.264 . S
C271 O279 1.249 . S
O272 C271 1.264 . S
O273 Mg266 1.986 . S
O273 C277 1.246 . S
O274 Mg269 2.032 . S
O274 C277 1.259 . S
O275 Mg266 2.114 . S
O275 C278 1.252 . S
O276 Mg266 2.251 . S
O276 Mg269 2.079 . S
O276 C278 1.273 . S
C277 O273 1.246 . S
C277 O274 1.259 . S
C278 O275 1.252 . S
C278 O276 1.273 . S
O279 Mg266 2.010 . S
O279 C271 1.249 . S
Mg280 O281 2.028 . S
Mg280 O287 1.986 . S
Mg280 O289 2.114 . S
Mg280 O290 2.251 . S
Mg280 O293 2.010 . S
O281 Mg280 2.028 . S
O281 C284 1.250 . S
O282 Mg283 2.028 . S
O282 C284 1.248 . S
Mg283 O282 2.028 . S
Mg283 O288 2.032 . S
Mg283 O290 2.079 . S
C284 O281 1.250 . S
C284 O282 1.248 . S
C285 O286 1.264 . S
C285 O293 1.249 . S
O286 C285 1.264 . S
O287 Mg280 1.986 . S
O287 C291 1.246 . S
O288 Mg283 2.032 . S
O288 C291 1.259 . S
O289 Mg280 2.114 . S
O289 C292 1.252 . S
O290 Mg280 2.251 . S
O290 Mg283 2.079 . S
O290 C292 1.273 . S
C291 O287 1.246 . S
C291 O288 1.259 . S
C292 O289 1.252 . S
C292 O290 1.273 . S
O293 Mg280 2.010 . S
O293 C285 1.249 . S
Mg294 O295 2.028 . S
Mg294 O301 1.986 . S
Mg294 O303 2.114 . S
Mg294 O304 2.251 . S
Mg294 O307 2.010 . S
O295 Mg294 2.028 . S
O295 C298 1.250 . S
O296 Mg297 2.028 . S
O296 C298 1.248 . S
Mg297 O296 2.028 . S
Mg297 O302 2.032 . S
Mg297 O304 2.079 . S
C298 O295 1.250 . S
C298 O296 1.248 . S
C299 O300 1.264 . S
C299 O307 1.249 . S
O300 C299 1.264 . S
O301 Mg294 1.986 . S
O301 C305 1.246 . S
O302 Mg297 2.032 . S
O302 C305 1.259 . S
O303 Mg294 2.114 . S
O303 C306 1.252 . S
O304 Mg294 2.251 . S
O304 Mg297 2.079 . S
O304 C306 1.273 . S
C305 O301 1.246 . S
C305 O302 1.259 . S
C306 O303 1.252 . S
C306 O304 1.273 . S
O307 Mg294 2.010 . S
O307 C299 1.249 . S
Mg308 O309 2.028 . S
Mg308 O315 1.986 . S
Mg308 O317 2.114 . S
Mg308 O318 2.251 . S
Mg308 O321 2.010 . S
O309 Mg308 2.028 . S
O309 C312 1.250 . S
O310 Mg311 2.028 . S
O310 C312 1.248 . S
Mg311 O310 2.028 . S
Mg311 O316 2.032 . S
Mg311 O318 2.079 . S
C312 O309 1.250 . S
C312 O310 1.248 . S
C313 O314 1.264 . S
C313 O321 1.249 . S
O314 C313 1.264 . S
O315 Mg308 1.986 . S
O315 C319 1.246 . S
O316 Mg311 2.032 . S
O316 C319 1.259 . S
O317 Mg308 2.114 . S
O317 C320 1.252 . S
O318 Mg308 2.251 . S
O318 Mg311 2.079 . S
O318 C320 1.273 . S
C319 O315 1.246 . S
C319 O316 1.259 . S
C320 O317 1.252 . S
C320 O318 1.273 . S
O321 Mg308 2.010 . S
O321 C313 1.249 . S
Mg322 O323 2.028 . S
Mg322 O329 1.986 . S
Mg322 O331 2.114 . S
Mg322 O332 2.251 . S
Mg322 O335 2.010 . S
O323 Mg322 2.028 . S
O323 C326 1.250 . S
O324 Mg325 2.028 . S
O324 C326 1.248 . S
Mg325 O324 2.028 . S
Mg325 O330 2.032 . S
Mg325 O332 2.079 . S
C326 O323 1.250 . S
C326 O324 1.248 . S
C327 O328 1.264 . S
C327 O335 1.249 . S
O328 C327 1.264 . S
O329 Mg322 1.986 . S
O329 C333 1.246 . S
O330 Mg325 2.032 . S
O330 C333 1.259 . S
O331 Mg322 2.114 . S
O331 C334 1.252 . S
O332 Mg322 2.251 . S
O332 Mg325 2.079 . S
O332 C334 1.273 . S
C333 O329 1.246 . S
C333 O330 1.259 . S
C334 O331 1.252 . S
C334 O332 1.273 . S
O335 Mg322 2.010 . S
O335 C327 1.249 . S
Mg336 O337 2.028 . S
Mg336 O343 1.986 . S
Mg336 O345 2.114 . S
Mg336 O346 2.251 . S
Mg336 O349 2.010 . S
O337 Mg336 2.028 . S
O337 C340 1.250 . S
O338 Mg339 2.028 . S
O338 C340 1.248 . S
Mg339 O338 2.028 . S
Mg339 O344 2.032 . S
Mg339 O346 2.079 . S
C340 O337 1.250 . S
C340 O338 1.248 . S
C341 O342 1.264 . S
C341 O349 1.249 . S
O342 C341 1.264 . S
O343 Mg336 1.986 . S
O343 C347 1.246 . S
O344 Mg339 2.032 . S
O344 C347 1.259 . S
O345 Mg336 2.114 . S
O345 C348 1.252 . S
O346 Mg336 2.251 . S
O346 Mg339 2.079 . S
O346 C348 1.273 . S
C347 O343 1.246 . S
C347 O344 1.259 . S
C348 O345 1.252 . S
C348 O346 1.273 . S
O349 Mg336 2.010 . S
O349 C341 1.249 . S
Mg350 O351 2.028 . S
Mg350 O357 1.986 . S
Mg350 O359 2.114 . S
Mg350 O360 2.251 . S
Mg350 O363 2.010 . S
O351 Mg350 2.028 . S
O351 C354 1.250 . S
O352 Mg353 2.028 . S
O352 C354 1.248 . S
Mg353 O352 2.028 . S
Mg353 O358 2.032 . S
Mg353 O360 2.079 . S
C354 O351 1.250 . S
C354 O352 1.248 . S
C355 O356 1.264 . S
C355 O363 1.249 . S
O356 C355 1.264 . S
O357 Mg350 1.986 . S
O357 C361 1.246 . S
O358 Mg353 2.032 . S
O358 C361 1.259 . S
O359 Mg350 2.114 . S
O359 C362 1.252 . S
O360 Mg350 2.251 . S
O360 Mg353 2.079 . S
O360 C362 1.273 . S
C361 O357 1.246 . S
C361 O358 1.259 . S
C362 O359 1.252 . S
C362 O360 1.273 . S
O363 Mg350 2.010 . S
O363 C355 1.249 . S
Mg364 O365 2.028 . S
Mg364 O371 1.986 . S
Mg364 O373 2.114 . S
Mg364 O374 2.251 . S
Mg364 O377 2.010 . S
O365 Mg364 2.028 . S
O365 C368 1.250 . S
O366 Mg367 2.028 . S
O366 C368 1.248 . S
Mg367 O366 2.028 . S
Mg367 O372 2.032 . S
Mg367 O374 2.079 . S
C368 O365 1.250 . S
C368 O366 1.248 . S
C369 O370 1.264 . S
C369 O377 1.249 . S
O370 C369 1.264 . S
O371 Mg364 1.986 . S
O371 C375 1.246 . S
O372 Mg367 2.032 . S
O372 C375 1.259 . S
O373 Mg364 2.114 . S
O373 C376 1.252 . S
O374 Mg364 2.251 . S
O374 Mg367 2.079 . S
O374 C376 1.273 . S
C375 O371 1.246 . S
C375 O372 1.259 . S
C376 O373 1.252 . S
C376 O374 1.273 . S
O377 Mg364 2.010 . S
O377 C369 1.249 . S
Mg378 O379 2.028 . S
Mg378 O385 1.986 . S
Mg378 O387 2.114 . S
Mg378 O388 2.251 . S
Mg378 O391 2.010 . S
O379 Mg378 2.028 . S
O379 C382 1.250 . S
O380 Mg381 2.028 . S
O380 C382 1.248 . S
Mg381 O380 2.028 . S
Mg381 O386 2.032 . S
Mg381 O388 2.079 . S
C382 O379 1.250 . S
C382 O380 1.248 . S
C383 O384 1.264 . S
C383 O391 1.249 . S
O384 C383 1.264 . S
O385 Mg378 1.986 . S
O385 C389 1.246 . S
O386 Mg381 2.032 . S
O386 C389 1.259 . S
O387 Mg378 2.114 . S
O387 C390 1.252 . S
O388 Mg378 2.251 . S
O388 Mg381 2.079 . S
O388 C390 1.273 . S
C389 O385 1.246 . S
C389 O386 1.259 . S
C390 O387 1.252 . S
C390 O388 1.273 . S
O391 Mg378 2.010 . S
O391 C383 1.249 . S
Mg392 O393 2.028 . S
Mg392 O399 1.986 . S
Mg392 O401 2.114 . S
Mg392 O402 2.251 . S
Mg392 O405 2.010 . S
O393 Mg392 2.028 . S
O393 C396 1.250 . S
O394 Mg395 2.028 . S
O394 C396 1.248 . S
Mg395 O394 2.028 . S
Mg395 O400 2.032 . S
Mg395 O402 2.079 . S
C396 O393 1.250 . S
C396 O394 1.248 . S
C397 O398 1.264 . S
C397 O405 1.249 . S
O398 C397 1.264 . S
O399 Mg392 1.986 . S
O399 C403 1.246 . S
O400 Mg395 2.032 . S
O400 C403 1.259 . S
O401 Mg392 2.114 . S
O401 C404 1.252 . S
O402 Mg392 2.251 . S
O402 Mg395 2.079 . S
O402 C404 1.273 . S
C403 O399 1.246 . S
C403 O400 1.259 . S
C404 O401 1.252 . S
C404 O402 1.273 . S
O405 Mg392 2.010 . S
O405 C397 1.249 . S
Mg406 O407 2.028 . S
Mg406 O413 1.986 . S
Mg406 O415 2.114 . S
Mg406 O416 2.251 . S
Mg406 O419 2.010 . S
O407 Mg406 2.028 . S
O407 C410 1.250 . S
O408 Mg409 2.028 . S
O408 C410 1.248 . S
Mg409 O408 2.028 . S
Mg409 O414 2.032 . S
Mg409 O416 2.079 . S
C410 O407 1.250 . S
C410 O408 1.248 . S
C411 O412 1.264 . S
C411 O419 1.249 . S
O412 C411 1.264 . S
O413 Mg406 1.986 . S
O413 C417 1.246 . S
O414 Mg409 2.032 . S
O414 C417 1.259 . S
O415 Mg406 2.114 . S
O415 C418 1.252 . S
O416 Mg406 2.251 . S
O416 Mg409 2.079 . S
O416 C418 1.273 . S
C417 O413 1.246 . S
C417 O414 1.259 . S
C418 O415 1.252 . S
C418 O416 1.273 . S
O419 Mg406 2.010 . S
O419 C411 1.249 . S
Mg420 O421 2.028 . S
Mg420 O427 1.986 . S
Mg420 O429 2.114 . S
Mg420 O430 2.251 . S
Mg420 O433 2.010 . S
O421 Mg420 2.028 . S
O421 C424 1.250 . S
O422 Mg423 2.028 . S
O422 C424 1.248 . S
Mg423 O422 2.028 . S
Mg423 O428 2.032 . S
Mg423 O430 2.079 . S
C424 O421 1.250 . S
C424 O422 1.248 . S
C425 O426 1.264 . S
C425 O433 1.249 . S
O426 C425 1.264 . S
O427 Mg420 1.986 . S
O427 C431 1.246 . S
O428 Mg423 2.032 . S
O428 C431 1.259 . S
O429 Mg420 2.114 . S
O429 C432 1.252 . S
O430 Mg420 2.251 . S
O430 Mg423 2.079 . S
O430 C432 1.273 . S
C431 O427 1.246 . S
C431 O428 1.259 . S
C432 O429 1.252 . S
C432 O430 1.273 . S
O433 Mg420 2.010 . S
O433 C425 1.249 . S
Mg434 O435 2.028 . S
Mg434 O441 1.986 . S
Mg434 O443 2.114 . S
Mg434 O444 2.251 . S
Mg434 O447 2.010 . S
O435 Mg434 2.028 . S
O435 C438 1.250 . S
O436 Mg437 2.028 . S
O436 C438 1.248 . S
Mg437 O436 2.028 . S
Mg437 O442 2.032 . S
Mg437 O444 2.079 . S
C438 O435 1.250 . S
C438 O436 1.248 . S
C439 O440 1.264 . S
C439 O447 1.249 . S
O440 C439 1.264 . S
O441 Mg434 1.986 . S
O441 C445 1.246 . S
O442 Mg437 2.032 . S
O442 C445 1.259 . S
O443 Mg434 2.114 . S
O443 C446 1.252 . S
O444 Mg434 2.251 . S
O444 Mg437 2.079 . S
O444 C446 1.273 . S
C445 O441 1.246 . S
C445 O442 1.259 . S
C446 O443 1.252 . S
C446 O444 1.273 . S
O447 Mg434 2.010 . S
O447 C439 1.249 . S
Mg448 O449 2.028 . S
Mg448 O455 1.986 . S
Mg448 O457 2.114 . S
Mg448 O458 2.251 . S
Mg448 O461 2.010 . S
O449 Mg448 2.028 . S
O449 C452 1.250 . S
O450 Mg451 2.028 . S
O450 C452 1.248 . S
Mg451 O450 2.028 . S
Mg451 O456 2.032 . S
Mg451 O458 2.079 . S
C452 O449 1.250 . S
C452 O450 1.248 . S
C453 O454 1.264 . S
C453 O461 1.249 . S
O454 C453 1.264 . S
O455 Mg448 1.986 . S
O455 C459 1.246 . S
O456 Mg451 2.032 . S
O456 C459 1.259 . S
O457 Mg448 2.114 . S
O457 C460 1.252 . S
O458 Mg448 2.251 . S
O458 Mg451 2.079 . S
O458 C460 1.273 . S
C459 O455 1.246 . S
C459 O456 1.259 . S
C460 O457 1.252 . S
C460 O458 1.273 . S
O461 Mg448 2.010 . S
O461 C453 1.249 . S
Mg462 O463 2.028 . S
Mg462 O469 1.986 . S
Mg462 O471 2.114 . S
Mg462 O472 2.251 . S
Mg462 O475 2.010 . S
O463 Mg462 2.028 . S
O463 C466 1.250 . S
O464 Mg465 2.028 . S
O464 C466 1.248 . S
Mg465 O464 2.028 . S
Mg465 O470 2.032 . S
Mg465 O472 2.079 . S
C466 O463 1.250 . S
C466 O464 1.248 . S
C467 O468 1.264 . S
C467 O475 1.249 . S
O468 C467 1.264 . S
O469 Mg462 1.986 . S
O469 C473 1.246 . S
O470 Mg465 2.032 . S
O470 C473 1.259 . S
O471 Mg462 2.114 . S
O471 C474 1.252 . S
O472 Mg462 2.251 . S
O472 Mg465 2.079 . S
O472 C474 1.273 . S
C473 O469 1.246 . S
C473 O470 1.259 . S
C474 O471 1.252 . S
C474 O472 1.273 . S
O475 Mg462 2.010 . S
O475 C467 1.249 . S
Mg476 O477 2.028 . S
Mg476 O483 1.986 . S
Mg476 O485 2.114 . S
Mg476 O486 2.251 . S
Mg476 O489 2.010 . S
O477 Mg476 2.028 . S
O477 C480 1.250 . S
O478 Mg479 2.028 . S
O478 C480 1.248 . S
Mg479 O478 2.028 . S
Mg479 O484 2.032 . S
Mg479 O486 2.079 . S
C480 O477 1.250 . S
C480 O478 1.248 . S
C481 O482 1.264 . S
C481 O489 1.249 . S
O482 C481 1.264 . S
O483 Mg476 1.986 . S
O483 C487 1.246 . S
O484 Mg479 2.032 . S
O484 C487 1.259 . S
O485 Mg476 2.114 . S
O485 C488 1.252 . S
O486 Mg476 2.251 . S
O486 Mg479 2.079 . S
O486 C488 1.273 . S
C487 O483 1.246 . S
C487 O484 1.259 . S
C488 O485 1.252 . S
C488 O486 1.273 . S
O489 Mg476 2.010 . S
O489 C481 1.249 . S
Mg490 O491 2.028 . S
Mg490 O497 1.986 . S
Mg490 O499 2.114 . S
Mg490 O500 2.251 . S
Mg490 O503 2.010 . S
O491 Mg490 2.028 . S
O491 C494 1.250 . S
O492 Mg493 2.028 . S
O492 C494 1.248 . S
Mg493 O492 2.028 . S
Mg493 O498 2.032 . S
Mg493 O500 2.079 . S
C494 O491 1.250 . S
C494 O492 1.248 . S
C495 O496 1.264 . S
C495 O503 1.249 . S
O496 C495 1.264 . S
O497 Mg490 1.986 . S
O497 C501 1.246 . S
O498 Mg493 2.032 . S
O498 C501 1.259 . S
O499 Mg490 2.114 . S
O499 C502 1.252 . S
O500 Mg490 2.251 . S
O500 Mg493 2.079 . S
O500 C502 1.273 . S
C501 O497 1.246 . S
C501 O498 1.259 . S
C502 O499 1.252 . S
C502 O500 1.273 . S
O503 Mg490 2.010 . S
O503 C495 1.249 . S
H504 C510 0.930 . S
H505 C514 0.930 . S
H506 C519 0.929 . S
H507 C517 0.929 . S
H508 C512 0.929 . S
H509 C518 0.929 . S
C510 H504 0.930 . S
C510 C511 1.367 . S
C510 C518 1.378 . S
C511 C510 1.367 . S
C511 C519 1.433 . S
C512 H508 0.929 . S
C512 C514 1.378 . S
C512 C516 1.350 . S
C513 C516 1.463 . S
C513 C518 1.350 . S
C513 N521 1.427 . S
C514 H505 0.930 . S
C514 C512 1.378 . S
C514 C515 1.367 . S
C515 C514 1.367 . S
C515 C517 1.433 . S
C516 C512 1.350 . S
C516 C513 1.463 . S
C516 N520 1.427 . S
C517 H507 0.929 . S
C517 C515 1.433 . S
C517 N520 1.384 . S
C518 H509 0.929 . S
C518 C510 1.378 . S
C518 C513 1.350 . S
C519 H506 0.929 . S
C519 C511 1.433 . S
C519 N521 1.384 . S
N520 C516 1.427 . S
N520 C517 1.384 . S
N521 C513 1.427 . S
N521 C519 1.384 . S
H522 C528 0.930 . S
H523 C532 0.930 . S
H524 C537 0.929 . S
H525 C535 0.929 . S
H526 C530 0.929 . S
H527 C536 0.929 . S
C528 H522 0.930 . S
C528 C529 1.367 . S
C528 C536 1.378 . S
C529 C528 1.367 . S
C529 C537 1.433 . S
C530 H526 0.929 . S
C530 C532 1.378 . S
C530 C534 1.350 . S
C531 C534 1.463 . S
C531 C536 1.350 . S
C531 N539 1.427 . S
C532 H523 0.930 . S
C532 C530 1.378 . S
C532 C533 1.367 . S
C533 C532 1.367 . S
C533 C535 1.433 . S
C534 C530 1.350 . S
C534 C531 1.463 . S
C534 N538 1.427 . S
C535 H525 0.929 . S
C535 C533 1.433 . S
C535 N538 1.384 . S
C536 H527 0.929 . S
C536 C528 1.378 . S
C536 C531 1.350 . S
C537 H524 0.929 . S
C537 C529 1.433 . S
C537 N539 1.384 . S
N538 C534 1.427 . S
N538 C535 1.384 . S
N539 C531 1.427 . S
N539 C537 1.384 . S
H540 C546 0.930 . S
H541 C550 0.930 . S
H542 C555 0.929 . S
H543 C553 0.929 . S
H544 C548 0.929 . S
H545 C554 0.929 . S
C546 H540 0.930 . S
C546 C547 1.367 . S
C546 C554 1.378 . S
C547 C546 1.367 . S
C547 C555 1.433 . S
C548 H544 0.929 . S
C548 C550 1.378 . S
C548 C552 1.350 . S
C549 C552 1.463 . S
C549 C554 1.350 . S
C549 N557 1.427 . S
C550 H541 0.930 . S
C550 C548 1.378 . S
C550 C551 1.367 . S
C551 C550 1.367 . S
C551 C553 1.433 . S
C552 C548 1.350 . S
C552 C549 1.463 . S
C552 N556 1.427 . S
C553 H543 0.929 . S
C553 C551 1.433 . S
C553 N556 1.384 . S
C554 H545 0.929 . S
C554 C546 1.378 . S
C554 C549 1.350 . S
C555 H542 0.929 . S
C555 C547 1.433 . S
C555 N557 1.384 . S
N556 C552 1.427 . S
N556 C553 1.384 . S
N557 C549 1.427 . S
N557 C555 1.384 . S
H558 C564 0.930 . S
H559 C568 0.930 . S
H560 C573 0.929 . S
H561 C571 0.929 . S
H562 C566 0.929 . S
H563 C572 0.929 . S
C564 H558 0.930 . S
C564 C565 1.367 . S
C564 C572 1.378 . S
C565 C564 1.367 . S
C565 C573 1.433 . S
C566 H562 0.929 . S
C566 C568 1.378 . S
C566 C570 1.350 . S
C567 C570 1.463 . S
C567 C572 1.350 . S
C567 N575 1.427 . S
C568 H559 0.930 . S
C568 C566 1.378 . S
C568 C569 1.367 . S
C569 C568 1.367 . S
C569 C571 1.433 . S
C570 C566 1.350 . S
C570 C567 1.463 . S
C570 N574 1.427 . S
C571 H561 0.929 . S
C571 C569 1.433 . S
C571 N574 1.384 . S
C572 H563 0.929 . S
C572 C564 1.378 . S
C572 C567 1.350 . S
C573 H560 0.929 . S
C573 C565 1.433 . S
C573 N575 1.384 . S
N574 C570 1.427 . S
N574 C571 1.384 . S
N575 C567 1.427 . S
N575 C573 1.384 . S
H576 C582 0.930 . S
H577 C586 0.930 . S
H578 C591 0.929 . S
H579 C589 0.929 . S
H580 C584 0.929 . S
H581 C590 0.929 . S
C582 H576 0.930 . S
C582 C583 1.367 . S
C582 C590 1.378 . S
C583 C582 1.367 . S
C583 C591 1.433 . S
C584 H580 0.929 . S
C584 C586 1.378 . S
C584 C588 1.350 . S
C585 C588 1.463 . S
C585 C590 1.350 . S
C585 N593 1.427 . S
C586 H577 0.930 . S
C586 C584 1.378 . S
C586 C587 1.367 . S
C587 C586 1.367 . S
C587 C589 1.433 . S
C588 C584 1.350 . S
C588 C585 1.463 . S
C588 N592 1.427 . S
C589 H579 0.929 . S
C589 C587 1.433 . S
C589 N592 1.384 . S
C590 H581 0.929 . S
C590 C582 1.378 . S
C590 C585 1.350 . S
C591 H578 0.929 . S
C591 C583 1.433 . S
C591 N593 1.384 . S
N592 C588 1.427 . S
N592 C589 1.384 . S
N593 C585 1.427 . S
N593 C591 1.384 . S
H594 C600 0.930 . S
H595 C604 0.930 . S
H596 C609 0.929 . S
H597 C607 0.929 . S
H598 C602 0.929 . S
H599 C608 0.929 . S
C600 H594 0.930 . S
C600 C601 1.367 . S
C600 C608 1.378 . S
C601 C600 1.367 . S
C601 C609 1.433 . S
C602 H598 0.929 . S
C602 C604 1.378 . S
C602 C606 1.350 . S
C603 C606 1.463 . S
C603 C608 1.350 . S
C603 N611 1.427 . S
C604 H595 0.930 . S
C604 C602 1.378 . S
C604 C605 1.367 . S
C605 C604 1.367 . S
C605 C607 1.433 . S
C606 C602 1.350 . S
C606 C603 1.463 . S
C606 N610 1.427 . S
C607 H597 0.929 . S
C607 C605 1.433 . S
C607 N610 1.384 . S
C608 H599 0.929 . S
C608 C600 1.378 . S
C608 C603 1.350 . S
C609 H596 0.929 . S
C609 C601 1.433 . S
C609 N611 1.384 . S
N610 C606 1.427 . S
N610 C607 1.384 . S
N611 C603 1.427 . S
N611 C609 1.384 . S
H612 C618 0.930 . S
H613 C622 0.930 . S
H614 C627 0.929 . S
H615 C625 0.929 . S
H616 C620 0.929 . S
H617 C626 0.929 . S
C618 H612 0.930 . S
C618 C619 1.367 . S
C618 C626 1.378 . S
C619 C618 1.367 . S
C619 C627 1.433 . S
C620 H616 0.929 . S
C620 C622 1.378 . S
C620 C624 1.350 . S
C621 C624 1.463 . S
C621 C626 1.350 . S
C621 N629 1.427 . S
C622 H613 0.930 . S
C622 C620 1.378 . S
C622 C623 1.367 . S
C623 C622 1.367 . S
C623 C625 1.433 . S
C624 C620 1.350 . S
C624 C621 1.463 . S
C624 N628 1.427 . S
C625 H615 0.929 . S
C625 C623 1.433 . S
C625 N628 1.384 . S
C626 H617 0.929 . S
C626 C618 1.378 . S
C626 C621 1.350 . S
C627 H614 0.929 . S
C627 C619 1.433 . S
C627 N629 1.384 . S
N628 C624 1.427 . S
N628 C625 1.384 . S
N629 C621 1.427 . S
N629 C627 1.384 . S
H630 C636 0.930 . S
H631 C640 0.930 . S
H632 C645 0.929 . S
H633 C643 0.929 . S
H634 C638 0.929 . S
H635 C644 0.929 . S
C636 H630 0.930 . S
C636 C637 1.367 . S
C636 C644 1.378 . S
C637 C636 1.367 . S
C637 C645 1.433 . S
C638 H634 0.929 . S
C638 C640 1.378 . S
C638 C642 1.350 . S
C639 C642 1.463 . S
C639 C644 1.350 . S
C639 N647 1.427 . S
C640 H631 0.930 . S
C640 C638 1.378 . S
C640 C641 1.367 . S
C641 C640 1.367 . S
C641 C643 1.433 . S
C642 C638 1.350 . S
C642 C639 1.463 . S
C642 N646 1.427 . S
C643 H633 0.929 . S
C643 C641 1.433 . S
C643 N646 1.384 . S
C644 H635 0.929 . S
C644 C636 1.378 . S
C644 C639 1.350 . S
C645 H632 0.929 . S
C645 C637 1.433 . S
C645 N647 1.384 . S
N646 C642 1.427 . S
N646 C643 1.384 . S
N647 C639 1.427 . S
N647 C645 1.384 . S
H648 C654 0.930 . S
H649 C658 0.930 . S
H650 C663 0.929 . S
H651 C661 0.929 . S
H652 C656 0.929 . S
H653 C662 0.929 . S
C654 H648 0.930 . S
C654 C655 1.367 . S
C654 C662 1.378 . S
C655 C654 1.367 . S
C655 C663 1.433 . S
C656 H652 0.929 . S
C656 C658 1.378 . S
C656 C660 1.350 . S
C657 C660 1.463 . S
C657 C662 1.350 . S
C657 N665 1.427 . S
C658 H649 0.930 . S
C658 C656 1.378 . S
C658 C659 1.367 . S
C659 C658 1.367 . S
C659 C661 1.433 . S
C660 C656 1.350 . S
C660 C657 1.463 . S
C660 N664 1.427 . S
C661 H651 0.929 . S
C661 C659 1.433 . S
C661 N664 1.384 . S
C662 H653 0.929 . S
C662 C654 1.378 . S
C662 C657 1.350 . S
C663 H650 0.929 . S
C663 C655 1.433 . S
C663 N665 1.384 . S
N664 C660 1.427 . S
N664 C661 1.384 . S
N665 C657 1.427 . S
N665 C663 1.384 . S
H666 C672 0.930 . S
H667 C676 0.930 . S
H668 C681 0.929 . S
H669 C679 0.929 . S
H670 C674 0.929 . S
H671 C680 0.929 . S
C672 H666 0.930 . S
C672 C673 1.367 . S
C672 C680 1.378 . S
C673 C672 1.367 . S
C673 C681 1.433 . S
C674 H670 0.929 . S
C674 C676 1.378 . S
C674 C678 1.350 . S
C675 C678 1.463 . S
C675 C680 1.350 . S
C675 N683 1.427 . S
C676 H667 0.930 . S
C676 C674 1.378 . S
C676 C677 1.367 . S
C677 C676 1.367 . S
C677 C679 1.433 . S
C678 C674 1.350 . S
C678 C675 1.463 . S
C678 N682 1.427 . S
C679 H669 0.929 . S
C679 C677 1.433 . S
C679 N682 1.384 . S
C680 H671 0.929 . S
C680 C672 1.378 . S
C680 C675 1.350 . S
C681 H668 0.929 . S
C681 C673 1.433 . S
C681 N683 1.384 . S
N682 C678 1.427 . S
N682 C679 1.384 . S
N683 C675 1.427 . S
N683 C681 1.384 . S
H684 C690 0.930 . S
H685 C694 0.930 . S
H686 C699 0.929 . S
H687 C697 0.929 . S
H688 C692 0.929 . S
H689 C698 0.929 . S
C690 H684 0.930 . S
C690 C691 1.367 . S
C690 C698 1.378 . S
C691 C690 1.367 . S
C691 C699 1.433 . S
C692 H688 0.929 . S
C692 C694 1.378 . S
C692 C696 1.350 . S
C693 C696 1.463 . S
C693 C698 1.350 . S
C693 N701 1.427 . S
C694 H685 0.930 . S
C694 C692 1.378 . S
C694 C695 1.367 . S
C695 C694 1.367 . S
C695 C697 1.433 . S
C696 C692 1.350 . S
C696 C693 1.463 . S
C696 N700 1.427 . S
C697 H687 0.929 . S
C697 C695 1.433 . S
C697 N700 1.384 . S
C698 H689 0.929 . S
C698 C690 1.378 . S
C698 C693 1.350 . S
C699 H686 0.929 . S
C699 C691 1.433 . S
C699 N701 1.384 . S
N700 C696 1.427 . S
N700 C697 1.384 . S
N701 C693 1.427 . S
N701 C699 1.384 . S
H702 C708 0.930 . S
H703 C712 0.930 . S
H704 C717 0.929 . S
H705 C715 0.929 . S
H706 C710 0.929 . S
H707 C716 0.929 . S
C708 H702 0.930 . S
C708 C709 1.367 . S
C708 C716 1.378 . S
C709 C708 1.367 . S
C709 C717 1.433 . S
C710 H706 0.929 . S
C710 C712 1.378 . S
C710 C714 1.350 . S
C711 C714 1.463 . S
C711 C716 1.350 . S
C711 N719 1.427 . S
C712 H703 0.930 . S
C712 C710 1.378 . S
C712 C713 1.367 . S
C713 C712 1.367 . S
C713 C715 1.433 . S
C714 C710 1.350 . S
C714 C711 1.463 . S
C714 N718 1.427 . S
C715 H705 0.929 . S
C715 C713 1.433 . S
C715 N718 1.384 . S
C716 H707 0.929 . S
C716 C708 1.378 . S
C716 C711 1.350 . S
C717 H704 0.929 . S
C717 C709 1.433 . S
C717 N719 1.384 . S
N718 C714 1.427 . S
N718 C715 1.384 . S
N719 C711 1.427 . S
N719 C717 1.384 . S
H720 C726 0.930 . S
H721 C730 0.930 . S
H722 C735 0.929 . S
H723 C733 0.929 . S
H724 C728 0.929 . S
H725 C734 0.929 . S
C726 H720 0.930 . S
C726 C727 1.367 . S
C726 C734 1.378 . S
C727 C726 1.367 . S
C727 C735 1.433 . S
C728 H724 0.929 . S
C728 C730 1.378 . S
C728 C732 1.350 . S
C729 C732 1.463 . S
C729 C734 1.350 . S
C729 N737 1.427 . S
C730 H721 0.930 . S
C730 C728 1.378 . S
C730 C731 1.367 . S
C731 C730 1.367 . S
C731 C733 1.433 . S
C732 C728 1.350 . S
C732 C729 1.463 . S
C732 N736 1.427 . S
C733 H723 0.929 . S
C733 C731 1.433 . S
C733 N736 1.384 . S
C734 H725 0.929 . S
C734 C726 1.378 . S
C734 C729 1.350 . S
C735 H722 0.929 . S
C735 C727 1.433 . S
C735 N737 1.384 . S
N736 C732 1.427 . S
N736 C733 1.384 . S
N737 C729 1.427 . S
N737 C735 1.384 . S
H738 C744 0.930 . S
H739 C748 0.930 . S
H740 C753 0.929 . S
H741 C751 0.929 . S
H742 C746 0.929 . S
H743 C752 0.929 . S
C744 H738 0.930 . S
C744 C745 1.367 . S
C744 C752 1.378 . S
C745 C744 1.367 . S
C745 C753 1.433 . S
C746 H742 0.929 . S
C746 C748 1.378 . S
C746 C750 1.350 . S
C747 C750 1.463 . S
C747 C752 1.350 . S
C747 N755 1.427 . S
C748 H739 0.930 . S
C748 C746 1.378 . S
C748 C749 1.367 . S
C749 C748 1.367 . S
C749 C751 1.433 . S
C750 C746 1.350 . S
C750 C747 1.463 . S
C750 N754 1.427 . S
C751 H741 0.929 . S
C751 C749 1.433 . S
C751 N754 1.384 . S
C752 H743 0.929 . S
C752 C744 1.378 . S
C752 C747 1.350 . S
C753 H740 0.929 . S
C753 C745 1.433 . S
C753 N755 1.384 . S
N754 C750 1.427 . S
N754 C751 1.384 . S
N755 C747 1.427 . S
N755 C753 1.384 . S
H756 C762 0.930 . S
H757 C766 0.930 . S
H758 C771 0.929 . S
H759 C769 0.929 . S
H760 C764 0.929 . S
H761 C770 0.929 . S
C762 H756 0.930 . S
C762 C763 1.367 . S
C762 C770 1.378 . S
C763 C762 1.367 . S
C763 C771 1.433 . S
C764 H760 0.929 . S
C764 C766 1.378 . S
C764 C768 1.350 . S
C765 C768 1.463 . S
C765 C770 1.350 . S
C765 N773 1.427 . S
C766 H757 0.930 . S
C766 C764 1.378 . S
C766 C767 1.367 . S
C767 C766 1.367 . S
C767 C769 1.433 . S
C768 C764 1.350 . S
C768 C765 1.463 . S
C768 N772 1.427 . S
C769 H759 0.929 . S
C769 C767 1.433 . S
C769 N772 1.384 . S
C770 H761 0.929 . S
C770 C762 1.378 . S
C770 C765 1.350 . S
C771 H758 0.929 . S
C771 C763 1.433 . S
C771 N773 1.384 . S
N772 C768 1.427 . S
N772 C769 1.384 . S
N773 C765 1.427 . S
N773 C771 1.384 . S
H774 C780 0.930 . S
H775 C784 0.930 . S
H776 C789 0.929 . S
H777 C787 0.929 . S
H778 C782 0.929 . S
H779 C788 0.929 . S
C780 H774 0.930 . S
C780 C781 1.367 . S
C780 C788 1.378 . S
C781 C780 1.367 . S
C781 C789 1.433 . S
C782 H778 0.929 . S
C782 C784 1.378 . S
C782 C786 1.350 . S
C783 C786 1.463 . S
C783 C788 1.350 . S
C783 N791 1.427 . S
C784 H775 0.930 . S
C784 C782 1.378 . S
C784 C785 1.367 . S
C785 C784 1.367 . S
C785 C787 1.433 . S
C786 C782 1.350 . S
C786 C783 1.463 . S
C786 N790 1.427 . S
C787 H777 0.929 . S
C787 C785 1.433 . S
C787 N790 1.384 . S
C788 H779 0.929 . S
C788 C780 1.378 . S
C788 C783 1.350 . S
C789 H776 0.929 . S
C789 C781 1.433 . S
C789 N791 1.384 . S
N790 C786 1.427 . S
N790 C787 1.384 . S
N791 C783 1.427 . S
N791 C789 1.384 . S
H792 C798 0.930 . S
H793 C802 0.930 . S
H794 C807 0.929 . S
H795 C805 0.929 . S
H796 C800 0.929 . S
H797 C806 0.929 . S
C798 H792 0.930 . S
C798 C799 1.367 . S
C798 C806 1.378 . S
C799 C798 1.367 . S
C799 C807 1.433 . S
C800 H796 0.929 . S
C800 C802 1.378 . S
C800 C804 1.350 . S
C801 C804 1.463 . S
C801 C806 1.350 . S
C801 N809 1.427 . S
C802 H793 0.930 . S
C802 C800 1.378 . S
C802 C803 1.367 . S
C803 C802 1.367 . S
C803 C805 1.433 . S
C804 C800 1.350 . S
C804 C801 1.463 . S
C804 N808 1.427 . S
C805 H795 0.929 . S
C805 C803 1.433 . S
C805 N808 1.384 . S
C806 H797 0.929 . S
C806 C798 1.378 . S
C806 C801 1.350 . S
C807 H794 0.929 . S
C807 C799 1.433 . S
C807 N809 1.384 . S
N808 C804 1.427 . S
N808 C805 1.384 . S
N809 C801 1.427 . S
N809 C807 1.384 . S
H810 C816 0.930 . S
H811 C820 0.930 . S
H812 C825 0.929 . S
H813 C823 0.929 . S
H814 C818 0.929 . S
H815 C824 0.929 . S
C816 H810 0.930 . S
C816 C817 1.367 . S
C816 C824 1.378 . S
C817 C816 1.367 . S
C817 C825 1.433 . S
C818 H814 0.929 . S
C818 C820 1.378 . S
C818 C822 1.350 . S
C819 C822 1.463 . S
C819 C824 1.350 . S
C819 N827 1.427 . S
C820 H811 0.930 . S
C820 C818 1.378 . S
C820 C821 1.367 . S
C821 C820 1.367 . S
C821 C823 1.433 . S
C822 C818 1.350 . S
C822 C819 1.463 . S
C822 N826 1.427 . S
C823 H813 0.929 . S
C823 C821 1.433 . S
C823 N826 1.384 . S
C824 H815 0.929 . S
C824 C816 1.378 . S
C824 C819 1.350 . S
C825 H812 0.929 . S
C825 C817 1.433 . S
C825 N827 1.384 . S
N826 C822 1.427 . S
N826 C823 1.384 . S
N827 C819 1.427 . S
N827 C825 1.384 . S
H828 C834 0.930 . S
H829 C838 0.930 . S
H830 C843 0.929 . S
H831 C841 0.929 . S
H832 C836 0.929 . S
H833 C842 0.929 . S
C834 H828 0.930 . S
C834 C835 1.367 . S
C834 C842 1.378 . S
C835 C834 1.367 . S
C835 C843 1.433 1_455 S
C836 H832 0.929 . S
C836 C838 1.378 . S
C836 C840 1.350 . S
C837 C840 1.463 . S
C837 C842 1.350 1_655 S
C837 N845 1.427 . S
C838 H829 0.930 . S
C838 C836 1.378 . S
C838 C839 1.367 . S
C839 C838 1.367 . S
C839 C841 1.433 . S
C840 C836 1.350 . S
C840 C837 1.463 . S
C840 N844 1.427 . S
C841 H831 0.929 . S
C841 C839 1.433 . S
C841 N844 1.384 . S
C842 H833 0.929 . S
C842 C834 1.378 . S
C842 C837 1.350 1_455 S
C843 H830 0.929 . S
C843 C835 1.433 1_655 S
C843 N845 1.384 . S
N844 C840 1.427 . S
N844 C841 1.384 . S
N845 C837 1.427 . S
N845 C843 1.384 . S
H846 C852 0.930 . S
H847 C856 0.930 . S
H848 C861 0.929 . S
H849 C859 0.929 . S
H850 C854 0.929 . S
H851 C860 0.929 . S
C852 H846 0.930 . S
C852 C853 1.367 . S
C852 C860 1.378 . S
C853 C852 1.367 . S
C853 C861 1.433 . S
C854 H850 0.929 . S
C854 C856 1.378 . S
C854 C858 1.350 . S
C855 C858 1.463 . S
C855 C860 1.350 . S
C855 N863 1.427 . S
C856 H847 0.930 . S
C856 C854 1.378 . S
C856 C857 1.367 . S
C857 C856 1.367 . S
C857 C859 1.433 . S
C858 C854 1.350 . S
C858 C855 1.463 . S
C858 N862 1.427 . S
C859 H849 0.929 . S
C859 C857 1.433 . S
C859 N862 1.384 . S
C860 H851 0.929 . S
C860 C852 1.378 . S
C860 C855 1.350 . S
C861 H848 0.929 . S
C861 C853 1.433 . S
C861 N863 1.384 . S
N862 C858 1.427 . S
N862 C859 1.384 . S
N863 C855 1.427 . S
N863 C861 1.384 . S
H864 C870 0.930 . S
H865 C874 0.930 . S
H866 C879 0.929 . S
H867 C877 0.929 . S
H868 C872 0.929 . S
H869 C878 0.929 . S
C870 H864 0.930 . S
C870 C871 1.367 . S
C870 C878 1.378 . S
C871 C870 1.367 . S
C871 C879 1.433 . S
C872 H868 0.929 . S
C872 C874 1.378 . S
C872 C876 1.350 . S
C873 C876 1.463 . S
C873 C878 1.350 . S
C873 N881 1.427 . S
C874 H865 0.930 . S
C874 C872 1.378 . S
C874 C875 1.367 . S
C875 C874 1.367 . S
C875 C877 1.433 . S
C876 C872 1.350 . S
C876 C873 1.463 . S
C876 N880 1.427 . S
C877 H867 0.929 . S
C877 C875 1.433 . S
C877 N880 1.384 . S
C878 H869 0.929 . S
C878 C870 1.378 . S
C878 C873 1.350 . S
C879 H866 0.929 . S
C879 C871 1.433 . S
C879 N881 1.384 . S
N880 C876 1.427 . S
N880 C877 1.384 . S
N881 C873 1.427 . S
N881 C879 1.384 . S
H882 C888 0.930 . S
H883 C892 0.930 . S
H884 C897 0.929 . S
H885 C895 0.929 . S
H886 C890 0.929 . S
H887 C896 0.929 . S
C888 H882 0.930 . S
C888 C889 1.367 . S
C888 C896 1.378 . S
C889 C888 1.367 . S
C889 C897 1.433 1_545 S
C890 H886 0.929 . S
C890 C892 1.378 . S
C890 C894 1.350 . S
C891 C894 1.463 . S
C891 C896 1.350 1_565 S
C891 N899 1.427 . S
C892 H883 0.930 . S
C892 C890 1.378 . S
C892 C893 1.367 . S
C893 C892 1.367 . S
C893 C895 1.433 . S
C894 C890 1.350 . S
C894 C891 1.463 . S
C894 N898 1.427 . S
C895 H885 0.929 . S
C895 C893 1.433 . S
C895 N898 1.384 . S
C896 H887 0.929 . S
C896 C888 1.378 . S
C896 C891 1.350 1_545 S
C897 H884 0.929 . S
C897 C889 1.433 1_565 S
C897 N899 1.384 . S
N898 C894 1.427 . S
N898 C895 1.384 . S
N899 C891 1.427 . S
N899 C897 1.384 . S
H900 C906 0.930 . S
H901 C910 0.930 . S
H902 C915 0.929 . S
H903 C913 0.929 . S
H904 C908 0.929 . S
H905 C914 0.929 . S
C906 H900 0.930 . S
C906 C907 1.367 . S
C906 C914 1.378 . S
C907 C906 1.367 . S
C907 C915 1.433 . S
C908 H904 0.929 . S
C908 C910 1.378 . S
C908 C912 1.350 . S
C909 C912 1.463 . S
C909 C914 1.350 . S
C909 N917 1.427 . S
C910 H901 0.930 . S
C910 C908 1.378 . S
C910 C911 1.367 . S
C911 C910 1.367 . S
C911 C913 1.433 . S
C912 C908 1.350 . S
C912 C909 1.463 . S
C912 N916 1.427 . S
C913 H903 0.929 . S
C913 C911 1.433 . S
C913 N916 1.384 . S
C914 H905 0.929 . S
C914 C906 1.378 . S
C914 C909 1.350 . S
C915 H902 0.929 . S
C915 C907 1.433 . S
C915 N917 1.384 . S
N916 C912 1.427 . S
N916 C913 1.384 . S
N917 C909 1.427 . S
N917 C915 1.384 . S
H918 C924 0.930 . S
H919 C928 0.930 . S
H920 C933 0.929 . S
H921 C931 0.929 . S
H922 C926 0.929 . S
H923 C932 0.929 . S
C924 H918 0.930 . S
C924 C925 1.367 . S
C924 C932 1.378 . S
C925 C924 1.367 . S
C925 C933 1.433 . S
C926 H922 0.929 . S
C926 C928 1.378 . S
C926 C930 1.350 . S
C927 C930 1.463 . S
C927 C932 1.350 . S
C927 N935 1.427 . S
C928 H919 0.930 . S
C928 C926 1.378 . S
C928 C929 1.367 . S
C929 C928 1.367 . S
C929 C931 1.433 . S
C930 C926 1.350 . S
C930 C927 1.463 . S
C930 N934 1.427 . S
C931 H921 0.929 . S
C931 C929 1.433 . S
C931 N934 1.384 . S
C932 H923 0.929 . S
C932 C924 1.378 . S
C932 C927 1.350 . S
C933 H920 0.929 . S
C933 C925 1.433 . S
C933 N935 1.384 . S
N934 C930 1.427 . S
N934 C931 1.384 . S
N935 C927 1.427 . S
N935 C933 1.384 . S
H936 C942 0.930 . S
H937 C946 0.930 . S
H938 C951 0.929 . S
H939 C949 0.929 . S
H940 C944 0.929 . S
H941 C950 0.929 . S
C942 H936 0.930 . S
C942 C943 1.367 . S
C942 C950 1.378 . S
C943 C942 1.367 . S
C943 C951 1.433 . S
C944 H940 0.929 . S
C944 C946 1.378 . S
C944 C948 1.350 . S
C945 C948 1.463 . S
C945 C950 1.350 . S
C945 N953 1.427 . S
C946 H937 0.930 . S
C946 C944 1.378 . S
C946 C947 1.367 . S
C947 C946 1.367 . S
C947 C949 1.433 . S
C948 C944 1.350 . S
C948 C945 1.463 . S
C948 N952 1.427 . S
C949 H939 0.929 . S
C949 C947 1.433 . S
C949 N952 1.384 . S
C950 H941 0.929 . S
C950 C942 1.378 . S
C950 C945 1.350 . S
C951 H938 0.929 . S
C951 C943 1.433 . S
C951 N953 1.384 . S
N952 C948 1.427 . S
N952 C949 1.384 . S
N953 C945 1.427 . S
N953 C951 1.384 . S
H954 C960 0.930 . S
H955 C964 0.930 . S
H956 C969 0.929 . S
H957 C967 0.929 . S
H958 C962 0.929 . S
H959 C968 0.929 . S
C960 H954 0.930 . S
C960 C961 1.367 . S
C960 C968 1.378 . S
C961 C960 1.367 . S
C961 C969 1.433 . S
C962 H958 0.929 . S
C962 C964 1.378 . S
C962 C966 1.350 . S
C963 C966 1.463 . S
C963 C968 1.350 . S
C963 N971 1.427 . S
C964 H955 0.930 . S
C964 C962 1.378 . S
C964 C965 1.367 . S
C965 C964 1.367 . S
C965 C967 1.433 . S
C966 C962 1.350 . S
C966 C963 1.463 . S
C966 N970 1.427 . S
C967 H957 0.929 . S
C967 C965 1.433 . S
C967 N970 1.384 . S
C968 H959 0.929 . S
C968 C960 1.378 . S
C968 C963 1.350 . S
C969 H956 0.929 . S
C969 C961 1.433 . S
C969 N971 1.384 . S
N970 C966 1.427 . S
N970 C967 1.384 . S
N971 C963 1.427 . S
N971 C969 1.384 . S
H972 C978 0.930 . S
H973 C982 0.930 . S
H974 C987 0.929 . S
H975 C985 0.929 . S
H976 C980 0.929 1_545 S
H977 C986 0.929 . S
C978 H972 0.930 . S
C978 C979 1.367 1_565 S
C978 C986 1.378 . S
C979 C978 1.367 1_545 S
C979 C987 1.433 . S
C980 H976 0.929 1_565 S
C980 C982 1.378 . S
C980 C984 1.350 . S
C981 C984 1.463 . S
C981 C986 1.350 . S
C981 N989 1.427 1_565 S
C982 H973 0.930 . S
C982 C980 1.378 . S
C982 C983 1.367 . S
C983 C982 1.367 . S
C983 C985 1.433 . S
C984 C980 1.350 . S
C984 C981 1.463 . S
C984 N988 1.427 . S
C985 H975 0.929 . S
C985 C983 1.433 . S
C985 N988 1.384 . S
C986 H977 0.929 . S
C986 C978 1.378 . S
C986 C981 1.350 . S
C987 H974 0.929 . S
C987 C979 1.433 . S
C987 N989 1.384 . S
N988 C984 1.427 . S
N988 C985 1.384 . S
N989 C981 1.427 1_545 S
N989 C987 1.384 . S
H990 C996 0.930 . S
H991 C1000 0.930 . S
H992 C1005 0.929 . S
H993 C1003 0.929 . S
H994 C998 0.929 . S
H995 C1004 0.929 . S
C996 H990 0.930 . S
C996 C997 1.367 . S
C996 C1004 1.378 . S
C997 C996 1.367 . S
C997 C1005 1.433 . S
C998 H994 0.929 . S
C998 C1000 1.378 . S
C998 C1002 1.350 . S
C999 C1002 1.463 . S
C999 C1004 1.350 . S
C999 N1007 1.427 . S
C1000 H991 0.930 . S
C1000 C998 1.378 . S
C1000 C1001 1.367 . S
C1001 C1000 1.367 . S
C1001 C1003 1.433 . S
C1002 C998 1.350 . S
C1002 C999 1.463 . S
C1002 N1006 1.427 . S
C1003 H993 0.929 . S
C1003 C1001 1.433 . S
C1003 N1006 1.384 . S
C1004 H995 0.929 . S
C1004 C996 1.378 . S
C1004 C999 1.350 . S
C1005 H992 0.929 . S
C1005 C997 1.433 . S
C1005 N1007 1.384 . S
N1006 C1002 1.427 . S
N1006 C1003 1.384 . S
N1007 C999 1.427 . S
N1007 C1005 1.384 . S
H1008 C1014 0.930 . S
H1009 C1018 0.930 . S
H1010 C1023 0.929 . S
H1011 C1021 0.929 . S
H1012 C1016 0.929 . S
H1013 C1022 0.929 . S
C1014 H1008 0.930 . S
C1014 C1015 1.367 . S
C1014 C1022 1.378 . S
C1015 C1014 1.367 . S
C1015 C1023 1.433 1_455 S
C1016 H1012 0.929 . S
C1016 C1018 1.378 . S
C1016 C1020 1.350 . S
C1017 C1020 1.463 . S
C1017 C1022 1.350 1_655 S
C1017 N1025 1.427 . S
C1018 H1009 0.930 . S
C1018 C1016 1.378 . S
C1018 C1019 1.367 . S
C1019 C1018 1.367 . S
C1019 C1021 1.433 . S
C1020 C1016 1.350 . S
C1020 C1017 1.463 . S
C1020 N1024 1.427 . S
C1021 H1011 0.929 . S
C1021 C1019 1.433 . S
C1021 N1024 1.384 . S
C1022 H1013 0.929 . S
C1022 C1014 1.378 . S
C1022 C1017 1.350 1_455 S
C1023 H1010 0.929 . S
C1023 C1015 1.433 1_655 S
C1023 N1025 1.384 . S
N1024 C1020 1.427 . S
N1024 C1021 1.384 . S
N1025 C1017 1.427 . S
N1025 C1023 1.384 . S
H1026 C1032 0.930 . S
H1027 C1036 0.930 . S
H1028 C1041 0.929 . S
H1029 C1039 0.929 . S
H1030 C1034 0.929 . S
H1031 C1040 0.929 . S
C1032 H1026 0.930 . S
C1032 C1033 1.367 . S
C1032 C1040 1.378 . S
C1033 C1032 1.367 . S
C1033 C1041 1.433 . S
C1034 H1030 0.929 . S
C1034 C1036 1.378 . S
C1034 C1038 1.350 . S
C1035 C1038 1.463 . S
C1035 C1040 1.350 . S
C1035 N1043 1.427 . S
C1036 H1027 0.930 . S
C1036 C1034 1.378 . S
C1036 C1037 1.367 . S
C1037 C1036 1.367 . S
C1037 C1039 1.433 . S
C1038 C1034 1.350 . S
C1038 C1035 1.463 . S
C1038 N1042 1.427 . S
C1039 H1029 0.929 . S
C1039 C1037 1.433 . S
C1039 N1042 1.384 . S
C1040 H1031 0.929 . S
C1040 C1032 1.378 . S
C1040 C1035 1.350 . S
C1041 H1028 0.929 . S
C1041 C1033 1.433 . S
C1041 N1043 1.384 . S
N1042 C1038 1.427 . S
N1042 C1039 1.384 . S
N1043 C1035 1.427 . S
N1043 C1041 1.384 . S
H1044 C1050 0.930 . S
H1045 C1054 0.930 . S
H1046 C1059 0.929 . S
H1047 C1057 0.929 . S
H1048 C1052 0.929 . S
H1049 C1058 0.929 . S
C1050 H1044 0.930 . S
C1050 C1051 1.367 . S
C1050 C1058 1.378 . S
C1051 C1050 1.367 . S
C1051 C1059 1.433 . S
C1052 H1048 0.929 . S
C1052 C1054 1.378 . S
C1052 C1056 1.350 . S
C1053 C1056 1.463 . S
C1053 C1058 1.350 . S
C1053 N1061 1.427 . S
C1054 H1045 0.930 . S
C1054 C1052 1.378 . S
C1054 C1055 1.367 . S
C1055 C1054 1.367 . S
C1055 C1057 1.433 . S
C1056 C1052 1.350 . S
C1056 C1053 1.463 . S
C1056 N1060 1.427 . S
C1057 H1047 0.929 . S
C1057 C1055 1.433 . S
C1057 N1060 1.384 . S
C1058 H1049 0.929 . S
C1058 C1050 1.378 . S
C1058 C1053 1.350 . S
C1059 H1046 0.929 . S
C1059 C1051 1.433 . S
C1059 N1061 1.384 . S
N1060 C1056 1.427 . S
N1060 C1057 1.384 . S
N1061 C1053 1.427 . S
N1061 C1059 1.384 . S
H1062 C1068 0.930 . S
H1063 C1072 0.930 . S
H1064 C1077 0.929 . S
H1065 C1075 0.929 . S
H1066 C1070 0.929 . S
H1067 C1076 0.929 . S
C1068 H1062 0.930 . S
C1068 C1069 1.367 . S
C1068 C1076 1.378 . S
C1069 C1068 1.367 . S
C1069 C1077 1.433 . S
C1070 H1066 0.929 . S
C1070 C1072 1.378 . S
C1070 C1074 1.350 1_565 S
C1071 C1074 1.463 . S
C1071 C1076 1.350 . S
C1071 N1079 1.427 . S
C1072 H1063 0.930 . S
C1072 C1070 1.378 . S
C1072 C1073 1.367 . S
C1073 C1072 1.367 . S
C1073 C1075 1.433 . S
C1074 C1070 1.350 1_545 S
C1074 C1071 1.463 . S
C1074 N1078 1.427 . S
C1075 H1065 0.929 . S
C1075 C1073 1.433 . S
C1075 N1078 1.384 1_565 S
C1076 H1067 0.929 . S
C1076 C1068 1.378 . S
C1076 C1071 1.350 . S
C1077 H1064 0.929 . S
C1077 C1069 1.433 . S
C1077 N1079 1.384 . S
N1078 C1074 1.427 . S
N1078 C1075 1.384 1_545 S
N1079 C1071 1.427 . S
N1079 C1077 1.384 . S
H1080 C1086 0.930 . S
H1081 C1090 0.930 . S
H1082 C1095 0.929 . S
H1083 C1093 0.929 . S
H1084 C1088 0.929 . S
H1085 C1094 0.926 . S
C1086 H1080 0.930 . S
C1086 C1087 1.367 . S
C1086 C1094 1.381 1_655 S
C1087 C1086 1.367 . S
C1087 C1095 1.433 . S
C1088 H1084 0.929 . S
C1088 C1090 1.378 . S
C1088 C1092 1.350 . S
C1089 C1092 1.463 . S
C1089 C1094 1.349 . S
C1089 N1097 1.427 . S
C1090 H1081 0.930 . S
C1090 C1088 1.378 . S
C1090 C1091 1.367 . S
C1091 C1090 1.367 . S
C1091 C1093 1.433 . S
C1092 C1088 1.350 . S
C1092 C1089 1.463 . S
C1092 N1096 1.427 . S
C1093 H1083 0.929 . S
C1093 C1091 1.433 . S
C1093 N1096 1.384 . S
C1094 H1085 0.926 . S
C1094 C1086 1.381 1_455 S
C1094 C1089 1.349 . S
C1095 H1082 0.929 . S
C1095 C1087 1.433 . S
C1095 N1097 1.384 1_655 S
N1096 C1092 1.427 . S
N1096 C1093 1.384 . S
N1097 C1089 1.427 . S
N1097 C1095 1.384 1_455 S
H1098 C1104 0.930 . S
H1099 C1108 0.930 . S
H1100 C1113 0.929 . S
H1101 C1111 0.929 . S
H1102 C1106 0.929 . S
H1103 C1112 0.929 . S
C1104 H1098 0.930 . S
C1104 C1105 1.367 . S
C1104 C1112 1.378 . S
C1105 C1104 1.367 . S
C1105 C1113 1.433 . S
C1106 H1102 0.929 . S
C1106 C1108 1.378 . S
C1106 C1110 1.350 . S
C1107 C1110 1.463 . S
C1107 C1112 1.350 . S
C1107 N1115 1.427 . S
C1108 H1099 0.930 . S
C1108 C1106 1.378 . S
C1108 C1109 1.367 . S
C1109 C1108 1.367 . S
C1109 C1111 1.433 . S
C1110 C1106 1.350 . S
C1110 C1107 1.463 . S
C1110 N1114 1.427 . S
C1111 H1101 0.929 . S
C1111 C1109 1.433 . S
C1111 N1114 1.384 . S
C1112 H1103 0.929 . S
C1112 C1104 1.378 . S
C1112 C1107 1.350 . S
C1113 H1100 0.929 . S
C1113 C1105 1.433 . S
C1113 N1115 1.384 . S
N1114 C1110 1.427 . S
N1114 C1111 1.384 . S
N1115 C1107 1.427 . S
N1115 C1113 1.384 . S
H1116 C1122 0.930 . S
H1117 C1126 0.930 . S
H1118 C1131 0.929 . S
H1119 C1129 0.929 . S
H1120 C1124 0.929 . S
H1121 C1130 0.929 . S
C1122 H1116 0.930 . S
C1122 C1123 1.367 . S
C1122 C1130 1.378 1_565 S
C1123 C1122 1.367 . S
C1123 C1131 1.433 . S
C1124 H1120 0.929 . S
C1124 C1126 1.378 . S
C1124 C1128 1.350 . S
C1125 C1128 1.463 . S
C1125 C1130 1.350 . S
C1125 N1133 1.427 1_545 S
C1126 H1117 0.930 . S
C1126 C1124 1.378 . S
C1126 C1127 1.367 . S
C1127 C1126 1.367 . S
C1127 C1129 1.433 . S
C1128 C1124 1.350 . S
C1128 C1125 1.463 . S
C1128 N1132 1.427 . S
C1129 H1119 0.929 . S
C1129 C1127 1.433 . S
C1129 N1132 1.384 . S
C1130 H1121 0.929 . S
C1130 C1122 1.378 1_545 S
C1130 C1125 1.350 . S
C1131 H1118 0.929 . S
C1131 C1123 1.433 . S
C1131 N1133 1.384 . S
N1132 C1128 1.427 . S
N1132 C1129 1.384 . S
N1133 C1125 1.427 1_565 S
N1133 C1131 1.384 . S
H1134 C1140 0.930 . S
H1135 C1144 0.930 . S
H1136 C1149 0.929 . S
H1137 C1147 0.929 . S
H1138 C1142 0.929 . S
H1139 C1148 0.929 . S
C1140 H1134 0.930 . S
C1140 C1141 1.367 . S
C1140 C1148 1.378 1_655 S
C1141 C1140 1.367 . S
C1141 C1149 1.433 . S
C1142 H1138 0.929 . S
C1142 C1144 1.378 . S
C1142 C1146 1.350 . S
C1143 C1146 1.463 . S
C1143 C1148 1.350 . S
C1143 N1151 1.427 . S
C1144 H1135 0.930 . S
C1144 C1142 1.378 . S
C1144 C1145 1.367 . S
C1145 C1144 1.367 . S
C1145 C1147 1.433 . S
C1146 C1142 1.350 . S
C1146 C1143 1.463 . S
C1146 N1150 1.427 . S
C1147 H1137 0.929 . S
C1147 C1145 1.433 . S
C1147 N1150 1.384 . S
C1148 H1139 0.929 . S
C1148 C1140 1.378 1_455 S
C1148 C1143 1.350 . S
C1149 H1136 0.929 . S
C1149 C1141 1.433 . S
C1149 N1151 1.384 1_655 S
N1150 C1146 1.427 . S
N1150 C1147 1.384 . S
N1151 C1143 1.427 . S
N1151 C1149 1.384 1_455 S
H1152 C1158 0.930 . S
H1153 C1162 0.930 . S
H1154 C1167 0.929 . S
H1155 C1165 0.929 . S
H1156 C1160 0.929 . S
H1157 C1166 0.929 . S
C1158 H1152 0.930 . S
C1158 C1159 1.367 . S
C1158 C1166 1.378 . S
C1159 C1158 1.367 . S
C1159 C1167 1.433 . S
C1160 H1156 0.929 . S
C1160 C1162 1.378 . S
C1160 C1164 1.350 . S
C1161 C1164 1.463 1_554 S
C1161 C1166 1.350 . S
C1161 N1169 1.427 . S
C1162 H1153 0.930 . S
C1162 C1160 1.378 . S
C1162 C1163 1.367 . S
C1163 C1162 1.367 . S
C1163 C1165 1.433 . S
C1164 C1160 1.350 . S
C1164 C1161 1.463 1_556 S
C1164 N1168 1.427 . S
C1165 H1155 0.929 . S
C1165 C1163 1.433 . S
C1165 N1168 1.384 . S
C1166 H1157 0.929 . S
C1166 C1158 1.378 . S
C1166 C1161 1.350 . S
C1167 H1154 0.929 . S
C1167 C1159 1.433 . S
C1167 N1169 1.384 . S
N1168 C1164 1.427 . S
N1168 C1165 1.384 . S
N1169 C1161 1.427 . S
N1169 C1167 1.384 . S
H1170 C1176 0.930 . S
H1171 C1180 0.930 . S
H1172 C1185 0.929 . S
H1173 C1183 0.929 . S
H1174 C1178 0.929 . S
H1175 C1184 0.929 . S
C1176 H1170 0.930 . S
C1176 C1177 1.367 . S
C1176 C1184 1.378 . S
C1177 C1176 1.367 . S
C1177 C1185 1.433 . S
C1178 H1174 0.929 . S
C1178 C1180 1.378 . S
C1178 C1182 1.350 . S
C1179 C1182 1.463 1_556 S
C1179 C1184 1.350 . S
C1179 N1187 1.427 . S
C1180 H1171 0.930 . S
C1180 C1178 1.378 . S
C1180 C1181 1.367 . S
C1181 C1180 1.367 . S
C1181 C1183 1.433 . S
C1182 C1178 1.350 . S
C1182 C1179 1.463 1_554 S
C1182 N1186 1.427 . S
C1183 H1173 0.929 . S
C1183 C1181 1.433 . S
C1183 N1186 1.384 . S
C1184 H1175 0.929 . S
C1184 C1176 1.378 . S
C1184 C1179 1.350 . S
C1185 H1172 0.929 . S
C1185 C1177 1.433 . S
C1185 N1187 1.384 . S
N1186 C1182 1.427 . S
N1186 C1183 1.384 . S
N1187 C1179 1.427 . S
N1187 C1185 1.384 . S
H1188 C1194 0.930 . S
H1189 C1198 0.930 1_565 S
H1190 C1203 0.929 1_565 S
H1191 C1201 0.929 . S
H1192 C1196 0.929 1_565 S
H1193 C1202 0.929 . S
C1194 H1188 0.930 . S
C1194 C1195 1.367 . S
C1194 C1202 1.378 . S
C1195 C1194 1.367 . S
C1195 C1203 1.433 . S
C1196 H1192 0.929 1_545 S
C1196 C1198 1.378 . S
C1196 C1200 1.350 . S
C1197 C1200 1.463 1_556 S
C1197 C1202 1.350 . S
C1197 N1205 1.427 . S
C1198 H1189 0.930 1_545 S
C1198 C1196 1.378 . S
C1198 C1199 1.367 . S
C1199 C1198 1.367 . S
C1199 C1201 1.433 . S
C1200 C1196 1.350 . S
C1200 C1197 1.463 1_554 S
C1200 N1204 1.427 . S
C1201 H1191 0.929 . S
C1201 C1199 1.433 . S
C1201 N1204 1.384 . S
C1202 H1193 0.929 . S
C1202 C1194 1.378 . S
C1202 C1197 1.350 . S
C1203 H1190 0.929 1_545 S
C1203 C1195 1.433 . S
C1203 N1205 1.384 . S
N1204 C1200 1.427 . S
N1204 C1201 1.384 . S
N1205 C1197 1.427 . S
N1205 C1203 1.384 . S
H1206 C1212 0.930 . S
H1207 C1216 0.930 . S
H1208 C1221 0.929 . S
H1209 C1219 0.929 . S
H1210 C1214 0.929 . S
H1211 C1220 0.929 . S
C1212 H1206 0.930 . S
C1212 C1213 1.367 . S
C1212 C1220 1.378 . S
C1213 C1212 1.367 . S
C1213 C1221 1.433 . S
C1214 H1210 0.929 . S
C1214 C1216 1.378 . S
C1214 C1218 1.350 . S
C1215 C1218 1.463 1_556 S
C1215 C1220 1.350 . S
C1215 N1223 1.427 . S
C1216 H1207 0.930 . S
C1216 C1214 1.378 . S
C1216 C1217 1.367 . S
C1217 C1216 1.367 . S
C1217 C1219 1.433 . S
C1218 C1214 1.350 . S
C1218 C1215 1.463 1_554 S
C1218 N1222 1.427 . S
C1219 H1209 0.929 . S
C1219 C1217 1.433 . S
C1219 N1222 1.384 . S
C1220 H1211 0.929 . S
C1220 C1212 1.378 . S
C1220 C1215 1.350 . S
C1221 H1208 0.929 . S
C1221 C1213 1.433 . S
C1221 N1223 1.384 . S
N1222 C1218 1.427 . S
N1222 C1219 1.384 . S
N1223 C1215 1.427 . S
N1223 C1221 1.384 . S
H1224 C1230 0.930 . S
H1225 C1234 0.930 . S
H1226 C1239 0.929 . S
H1227 C1237 0.929 . S
H1228 C1232 0.929 . S
H1229 C1238 0.929 . S
C1230 H1224 0.930 . S
C1230 C1231 1.367 . S
C1230 C1238 1.378 . S
C1231 C1230 1.367 . S
C1231 C1239 1.433 . S
C1232 H1228 0.929 . S
C1232 C1234 1.378 . S
C1232 C1236 1.350 . S
C1233 C1236 1.463 1_554 S
C1233 C1238 1.350 . S
C1233 N1241 1.427 . S
C1234 H1225 0.930 . S
C1234 C1232 1.378 . S
C1234 C1235 1.367 . S
C1235 C1234 1.367 . S
C1235 C1237 1.433 . S
C1236 C1232 1.350 . S
C1236 C1233 1.463 1_556 S
C1236 N1240 1.427 . S
C1237 H1227 0.929 . S
C1237 C1235 1.433 . S
C1237 N1240 1.384 . S
C1238 H1229 0.929 . S
C1238 C1230 1.378 . S
C1238 C1233 1.350 . S
C1239 H1226 0.929 . S
C1239 C1231 1.433 . S
C1239 N1241 1.384 . S
N1240 C1236 1.427 . S
N1240 C1237 1.384 . S
N1241 C1233 1.427 . S
N1241 C1239 1.384 . S
H1242 C1248 0.930 . S
H1243 C1252 0.959 . S
H1244 C1257 0.929 . S
H1245 C1255 0.929 . S
H1246 C1250 0.977 . S
H1247 C1256 0.929 . S
C1248 H1242 0.930 . S
C1248 C1249 1.367 . S
C1248 C1256 1.378 . S
C1249 C1248 1.367 . S
C1249 C1257 1.433 . S
C1250 H1246 0.977 . S
C1250 C1252 1.378 . S
C1250 C1254 1.350 . S
C1251 C1254 1.463 1_556 S
C1251 C1256 1.350 . S
C1251 N1259 1.427 . S
C1252 H1243 0.959 . S
C1252 C1250 1.378 . S
C1252 C1253 1.367 . S
C1253 C1252 1.367 . S
C1253 C1255 1.433 . S
C1254 C1250 1.350 . S
C1254 C1251 1.463 1_554 S
C1254 N1258 1.427 . S
C1255 H1245 0.929 . S
C1255 C1253 1.433 . S
C1255 N1258 1.384 . S
C1256 H1247 0.929 . S
C1256 C1248 1.378 . S
C1256 C1251 1.350 . S
C1257 H1244 0.929 . S
C1257 C1249 1.433 . S
C1257 N1259 1.384 . S
N1258 C1254 1.427 . S
N1258 C1255 1.384 . S
N1259 C1251 1.427 . S
N1259 C1257 1.384 . S
H1260 C1266 0.930 . S
H1261 C1270 0.930 . S
H1262 C1275 0.929 . S
H1263 C1273 0.929 . S
H1264 C1268 0.929 . S
H1265 C1274 0.929 . S
C1266 H1260 0.930 . S
C1266 C1267 1.367 . S
C1266 C1274 1.378 . S
C1267 C1266 1.367 . S
C1267 C1275 1.433 . S
C1268 H1264 0.929 . S
C1268 C1270 1.378 . S
C1268 C1272 1.350 . S
C1269 C1272 1.463 . S
C1269 C1274 1.350 . S
C1269 N1277 1.427 . S
C1270 H1261 0.930 . S
C1270 C1268 1.378 . S
C1270 C1271 1.367 . S
C1271 C1270 1.367 . S
C1271 C1273 1.433 . S
C1272 C1268 1.350 . S
C1272 C1269 1.463 . S
C1272 N1276 1.427 . S
C1273 H1263 0.929 . S
C1273 C1271 1.433 . S
C1273 N1276 1.384 . S
C1274 H1265 0.929 . S
C1274 C1266 1.378 . S
C1274 C1269 1.350 . S
C1275 H1262 0.929 . S
C1275 C1267 1.433 . S
C1275 N1277 1.384 . S
N1276 C1272 1.427 . S
N1276 C1273 1.384 . S
N1277 C1269 1.427 . S
N1277 C1275 1.384 . S
H1278 C1284 0.930 . S
H1279 C1288 0.930 . S
H1280 C1293 0.929 . S
H1281 C1291 0.929 . S
H1282 C1286 0.929 . S
H1283 C1292 0.929 . S
C1284 H1278 0.930 . S
C1284 C1285 1.367 . S
C1284 C1292 1.378 . S
C1285 C1284 1.367 . S
C1285 C1293 1.433 . S
C1286 H1282 0.929 . S
C1286 C1288 1.378 . S
C1286 C1290 1.350 . S
C1287 C1290 1.463 . S
C1287 C1292 1.350 . S
C1287 N1295 1.427 . S
C1288 H1279 0.930 . S
C1288 C1286 1.378 . S
C1288 C1289 1.367 . S
C1289 C1288 1.367 . S
C1289 C1291 1.433 . S
C1290 C1286 1.350 . S
C1290 C1287 1.463 . S
C1290 N1294 1.427 . S
C1291 H1281 0.929 . S
C1291 C1289 1.433 . S
C1291 N1294 1.384 . S
C1292 H1283 0.929 . S
C1292 C1284 1.378 . S
C1292 C1287 1.350 . S
C1293 H1280 0.929 . S
C1293 C1285 1.433 . S
C1293 N1295 1.384 . S
N1294 C1290 1.427 . S
N1294 C1291 1.384 . S
N1295 C1287 1.427 . S
N1295 C1293 1.384 . S
H1296 C1302 0.930 . S
H1297 C1306 0.930 . S
H1298 C1311 0.929 . S
H1299 C1309 0.929 . S
H1300 C1304 0.929 . S
H1301 C1310 0.929 . S
C1302 H1296 0.930 . S
C1302 C1303 1.367 . S
C1302 C1310 1.378 . S
C1303 C1302 1.367 . S
C1303 C1311 1.433 . S
C1304 H1300 0.929 . S
C1304 C1306 1.378 . S
C1304 C1308 1.350 . S
C1305 C1308 1.463 . S
C1305 C1310 1.350 . S
C1305 N1313 1.427 . S
C1306 H1297 0.930 . S
C1306 C1304 1.378 . S
C1306 C1307 1.367 . S
C1307 C1306 1.367 . S
C1307 C1309 1.433 . S
C1308 C1304 1.350 . S
C1308 C1305 1.463 . S
C1308 N1312 1.427 . S
C1309 H1299 0.929 . S
C1309 C1307 1.433 . S
C1309 N1312 1.384 . S
C1310 H1301 0.929 . S
C1310 C1302 1.378 . S
C1310 C1305 1.350 . S
C1311 H1298 0.929 . S
C1311 C1303 1.433 . S
C1311 N1313 1.384 . S
N1312 C1308 1.427 . S
N1312 C1309 1.384 . S
N1313 C1305 1.427 . S
N1313 C1311 1.384 . S
H1314 C1320 0.930 . S
H1315 C1324 0.930 . S
H1316 C1329 0.929 . S
H1317 C1327 0.929 . S
H1318 C1322 0.929 . S
H1319 C1328 0.929 . S
C1320 H1314 0.930 . S
C1320 C1321 1.367 . S
C1320 C1328 1.378 . S
C1321 C1320 1.367 . S
C1321 C1329 1.433 . S
C1322 H1318 0.929 . S
C1322 C1324 1.378 . S
C1322 C1326 1.350 . S
C1323 C1326 1.463 . S
C1323 C1328 1.350 . S
C1323 N1331 1.427 . S
C1324 H1315 0.930 . S
C1324 C1322 1.378 . S
C1324 C1325 1.367 . S
C1325 C1324 1.367 . S
C1325 C1327 1.433 . S
C1326 C1322 1.350 . S
C1326 C1323 1.463 . S
C1326 N1330 1.427 . S
C1327 H1317 0.929 . S
C1327 C1325 1.433 . S
C1327 N1330 1.384 . S
C1328 H1319 0.929 . S
C1328 C1320 1.378 . S
C1328 C1323 1.350 . S
C1329 H1316 0.929 . S
C1329 C1321 1.433 . S
C1329 N1331 1.384 . S
N1330 C1326 1.427 . S
N1330 C1327 1.384 . S
N1331 C1323 1.427 . S
N1331 C1329 1.384 . S
H1332 C1338 0.930 . S
H1333 C1342 0.930 . S
H1334 C1347 0.929 . S
H1335 C1345 0.929 . S
H1336 C1340 0.929 . S
H1337 C1346 0.929 . S
C1338 H1332 0.930 . S
C1338 C1339 1.367 . S
C1338 C1346 1.378 . S
C1339 C1338 1.367 . S
C1339 C1347 1.433 . S
C1340 H1336 0.929 . S
C1340 C1342 1.378 . S
C1340 C1344 1.350 . S
C1341 C1344 1.463 . S
C1341 C1346 1.350 . S
C1341 N1349 1.427 . S
C1342 H1333 0.930 . S
C1342 C1340 1.378 . S
C1342 C1343 1.367 . S
C1343 C1342 1.367 . S
C1343 C1345 1.433 . S
C1344 C1340 1.350 . S
C1344 C1341 1.463 . S
C1344 N1348 1.427 . S
C1345 H1335 0.929 . S
C1345 C1343 1.433 . S
C1345 N1348 1.384 . S
C1346 H1337 0.929 . S
C1346 C1338 1.378 . S
C1346 C1341 1.350 . S
C1347 H1334 0.929 . S
C1347 C1339 1.433 . S
C1347 N1349 1.384 . S
N1348 C1344 1.427 . S
N1348 C1345 1.384 . S
N1349 C1341 1.427 . S
N1349 C1347 1.384 . S
H1350 C1356 0.930 . S
H1351 C1360 0.930 . S
H1352 C1365 0.929 . S
H1353 C1363 0.929 . S
H1354 C1358 0.929 . S
H1355 C1364 0.929 . S
C1356 H1350 0.930 . S
C1356 C1357 1.367 . S
C1356 C1364 1.378 . S
C1357 C1356 1.367 . S
C1357 C1365 1.433 . S
C1358 H1354 0.929 . S
C1358 C1360 1.378 . S
C1358 C1362 1.350 . S
C1359 C1362 1.463 . S
C1359 C1364 1.350 . S
C1359 N1367 1.427 . S
C1360 H1351 0.930 . S
C1360 C1358 1.378 . S
C1360 C1361 1.367 . S
C1361 C1360 1.367 . S
C1361 C1363 1.433 . S
C1362 C1358 1.350 . S
C1362 C1359 1.463 . S
C1362 N1366 1.427 . S
C1363 H1353 0.929 . S
C1363 C1361 1.433 . S
C1363 N1366 1.384 . S
C1364 H1355 0.929 . S
C1364 C1356 1.378 . S
C1364 C1359 1.350 . S
C1365 H1352 0.929 . S
C1365 C1357 1.433 . S
C1365 N1367 1.384 . S
N1366 C1362 1.427 . S
N1366 C1363 1.384 . S
N1367 C1359 1.427 . S
N1367 C1365 1.384 . S
H1368 C1374 0.930 . S
H1369 C1378 0.930 . S
H1370 C1383 0.929 . S
H1371 C1381 0.929 . S
H1372 C1376 0.929 . S
H1373 C1382 0.929 . S
C1374 H1368 0.930 . S
C1374 C1375 1.367 . S
C1374 C1382 1.378 . S
C1375 C1374 1.367 . S
C1375 C1383 1.433 . S
C1376 H1372 0.929 . S
C1376 C1378 1.378 . S
C1376 C1380 1.350 . S
C1377 C1380 1.463 . S
C1377 C1382 1.350 . S
C1377 N1385 1.427 . S
C1378 H1369 0.930 . S
C1378 C1376 1.378 . S
C1378 C1379 1.367 . S
C1379 C1378 1.367 . S
C1379 C1381 1.433 . S
C1380 C1376 1.350 . S
C1380 C1377 1.463 . S
C1380 N1384 1.427 . S
C1381 H1371 0.929 . S
C1381 C1379 1.433 . S
C1381 N1384 1.384 . S
C1382 H1373 0.929 . S
C1382 C1374 1.378 . S
C1382 C1377 1.350 . S
C1383 H1370 0.929 . S
C1383 C1375 1.433 . S
C1383 N1385 1.384 . S
N1384 C1380 1.427 . S
N1384 C1381 1.384 . S
N1385 C1377 1.427 . S
N1385 C1383 1.384 . S
H1386 C1392 0.930 . S
H1387 C1396 0.930 . S
H1388 C1401 0.929 . S
H1389 C1399 0.929 . S
H1390 C1394 0.929 . S
H1391 C1400 0.929 . S
C1392 H1386 0.930 . S
C1392 C1393 1.367 . S
C1392 C1400 1.378 . S
C1393 C1392 1.367 . S
C1393 C1401 1.433 . S
C1394 H1390 0.929 . S
C1394 C1396 1.378 . S
C1394 C1398 1.350 . S
C1395 C1398 1.463 . S
C1395 C1400 1.350 . S
C1395 N1403 1.427 . S
C1396 H1387 0.930 . S
C1396 C1394 1.378 . S
C1396 C1397 1.367 . S
C1397 C1396 1.367 . S
C1397 C1399 1.433 . S
C1398 C1394 1.350 . S
C1398 C1395 1.463 . S
C1398 N1402 1.427 . S
C1399 H1389 0.929 . S
C1399 C1397 1.433 . S
C1399 N1402 1.384 . S
C1400 H1391 0.929 . S
C1400 C1392 1.378 . S
C1400 C1395 1.350 . S
C1401 H1388 0.929 . S
C1401 C1393 1.433 . S
C1401 N1403 1.384 . S
N1402 C1398 1.427 . S
N1402 C1399 1.384 . S
N1403 C1395 1.427 . S
N1403 C1401 1.384 . S
H1404 C1410 0.930 . S
H1405 C1414 0.930 . S
H1406 C1419 0.929 . S
H1407 C1417 0.929 . S
H1408 C1412 0.929 . S
H1409 C1418 0.929 . S
C1410 H1404 0.930 . S
C1410 C1411 1.367 . S
C1410 C1418 1.378 . S
C1411 C1410 1.367 . S
C1411 C1419 1.433 . S
C1412 H1408 0.929 . S
C1412 C1414 1.378 . S
C1412 C1416 1.350 . S
C1413 C1416 1.463 . S
C1413 C1418 1.350 . S
C1413 N1421 1.427 . S
C1414 H1405 0.930 . S
C1414 C1412 1.378 . S
C1414 C1415 1.367 . S
C1415 C1414 1.367 . S
C1415 C1417 1.433 . S
C1416 C1412 1.350 . S
C1416 C1413 1.463 . S
C1416 N1420 1.427 . S
C1417 H1407 0.929 . S
C1417 C1415 1.433 . S
C1417 N1420 1.384 . S
C1418 H1409 0.929 . S
C1418 C1410 1.378 . S
C1418 C1413 1.350 . S
C1419 H1406 0.929 . S
C1419 C1411 1.433 . S
C1419 N1421 1.384 . S
N1420 C1416 1.427 . S
N1420 C1417 1.384 . S
N1421 C1413 1.427 . S
N1421 C1419 1.384 . S
H1422 C1428 0.930 . S
H1423 C1432 0.930 . S
H1424 C1437 0.929 . S
H1425 C1435 0.929 . S
H1426 C1430 0.929 . S
H1427 C1436 0.929 . S
C1428 H1422 0.930 . S
C1428 C1429 1.367 . S
C1428 C1436 1.378 . S
C1429 C1428 1.367 . S
C1429 C1437 1.433 . S
C1430 H1426 0.929 . S
C1430 C1432 1.378 . S
C1430 C1434 1.350 . S
C1431 C1434 1.463 . S
C1431 C1436 1.350 . S
C1431 N1439 1.427 . S
C1432 H1423 0.930 . S
C1432 C1430 1.378 . S
C1432 C1433 1.367 . S
C1433 C1432 1.367 . S
C1433 C1435 1.433 . S
C1434 C1430 1.350 . S
C1434 C1431 1.463 . S
C1434 N1438 1.427 . S
C1435 H1425 0.929 . S
C1435 C1433 1.433 . S
C1435 N1438 1.384 . S
C1436 H1427 0.929 . S
C1436 C1428 1.378 . S
C1436 C1431 1.350 . S
C1437 H1424 0.929 . S
C1437 C1429 1.433 . S
C1437 N1439 1.384 . S
N1438 C1434 1.427 . S
N1438 C1435 1.384 . S
N1439 C1431 1.427 . S
N1439 C1437 1.384 . S
H1440 C1446 0.930 . S
H1441 C1450 0.930 . S
H1442 C1455 0.929 . S
H1443 C1453 0.929 . S
H1444 C1448 0.929 . S
H1445 C1454 0.929 . S
C1446 H1440 0.930 . S
C1446 C1447 1.367 . S
C1446 C1454 1.378 . S
C1447 C1446 1.367 . S
C1447 C1455 1.433 . S
C1448 H1444 0.929 . S
C1448 C1450 1.378 . S
C1448 C1452 1.350 . S
C1449 C1452 1.463 . S
C1449 C1454 1.350 . S
C1449 N1457 1.427 . S
C1450 H1441 0.930 . S
C1450 C1448 1.378 . S
C1450 C1451 1.367 . S
C1451 C1450 1.367 . S
C1451 C1453 1.433 . S
C1452 C1448 1.350 . S
C1452 C1449 1.463 . S
C1452 N1456 1.427 . S
C1453 H1443 0.929 . S
C1453 C1451 1.433 . S
C1453 N1456 1.384 . S
C1454 H1445 0.929 . S
C1454 C1446 1.378 . S
C1454 C1449 1.350 . S
C1455 H1442 0.929 . S
C1455 C1447 1.433 . S
C1455 N1457 1.384 . S
N1456 C1452 1.427 . S
N1456 C1453 1.384 . S
N1457 C1449 1.427 . S
N1457 C1455 1.384 . S
H1458 C1464 0.930 . S
H1459 C1468 0.930 . S
H1460 C1473 0.929 . S
H1461 C1471 0.929 . S
H1462 C1466 0.929 . S
H1463 C1472 0.929 . S
C1464 H1458 0.930 . S
C1464 C1465 1.367 . S
C1464 C1472 1.378 . S
C1465 C1464 1.367 . S
C1465 C1473 1.433 . S
C1466 H1462 0.929 . S
C1466 C1468 1.378 . S
C1466 C1470 1.350 . S
C1467 C1470 1.463 . S
C1467 C1472 1.350 . S
C1467 N1475 1.427 . S
C1468 H1459 0.930 . S
C1468 C1466 1.378 . S
C1468 C1469 1.367 . S
C1469 C1468 1.367 . S
C1469 C1471 1.433 . S
C1470 C1466 1.350 . S
C1470 C1467 1.463 . S
C1470 N1474 1.427 . S
C1471 H1461 0.929 . S
C1471 C1469 1.433 . S
C1471 N1474 1.384 . S
C1472 H1463 0.929 . S
C1472 C1464 1.378 . S
C1472 C1467 1.350 . S
C1473 H1460 0.929 . S
C1473 C1465 1.433 . S
C1473 N1475 1.384 . S
N1474 C1470 1.427 . S
N1474 C1471 1.384 . S
N1475 C1467 1.427 . S
N1475 C1473 1.384 . S
H1476 C1482 0.930 . S
H1477 C1486 0.930 . S
H1478 C1491 0.929 . S
H1479 C1489 0.929 . S
H1480 C1484 0.929 . S
H1481 C1490 0.929 . S
C1482 H1476 0.930 . S
C1482 C1483 1.367 . S
C1482 C1490 1.378 . S
C1483 C1482 1.367 . S
C1483 C1491 1.433 . S
C1484 H1480 0.929 . S
C1484 C1486 1.378 . S
C1484 C1488 1.350 . S
C1485 C1488 1.463 . S
C1485 C1490 1.350 . S
C1485 N1493 1.427 . S
C1486 H1477 0.930 . S
C1486 C1484 1.378 . S
C1486 C1487 1.367 . S
C1487 C1486 1.367 . S
C1487 C1489 1.433 . S
C1488 C1484 1.350 . S
C1488 C1485 1.463 . S
C1488 N1492 1.427 . S
C1489 H1479 0.929 . S
C1489 C1487 1.433 . S
C1489 N1492 1.384 . S
C1490 H1481 0.929 . S
C1490 C1482 1.378 . S
C1490 C1485 1.350 . S
C1491 H1478 0.929 . S
C1491 C1483 1.433 . S
C1491 N1493 1.384 . S
N1492 C1488 1.427 . S
N1492 C1489 1.384 . S
N1493 C1485 1.427 . S
N1493 C1491 1.384 . S
H1494 C1500 0.930 . S
H1495 C1504 0.930 . S
H1496 C1509 0.929 . S
H1497 C1507 0.929 . S
H1498 C1502 0.929 . S
H1499 C1508 0.929 . S
C1500 H1494 0.930 . S
C1500 C1501 1.367 . S
C1500 C1508 1.378 . S
C1501 C1500 1.367 . S
C1501 C1509 1.433 . S
C1502 H1498 0.929 . S
C1502 C1504 1.378 . S
C1502 C1506 1.350 . S
C1503 C1506 1.463 . S
C1503 C1508 1.350 . S
C1503 N1511 1.427 . S
C1504 H1495 0.930 . S
C1504 C1502 1.378 . S
C1504 C1505 1.367 . S
C1505 C1504 1.367 . S
C1505 C1507 1.433 . S
C1506 C1502 1.350 . S
C1506 C1503 1.463 . S
C1506 N1510 1.427 . S
C1507 H1497 0.929 . S
C1507 C1505 1.433 . S
C1507 N1510 1.384 . S
C1508 H1499 0.929 . S
C1508 C1500 1.378 . S
C1508 C1503 1.350 . S
C1509 H1496 0.929 . S
C1509 C1501 1.433 . S
C1509 N1511 1.384 . S
N1510 C1506 1.427 . S
N1510 C1507 1.384 . S
N1511 C1503 1.427 . S
N1511 C1509 1.384 . S
H1512 C1518 0.930 . S
H1513 C1522 0.930 . S
H1514 C1527 0.929 . S
H1515 C1525 0.929 . S
H1516 C1520 0.929 . S
H1517 C1526 0.929 . S
C1518 H1512 0.930 . S
C1518 C1519 1.367 . S
C1518 C1526 1.378 . S
C1519 C1518 1.367 . S
C1519 C1527 1.433 . S
C1520 H1516 0.929 . S
C1520 C1522 1.378 . S
C1520 C1524 1.350 . S
C1521 C1524 1.463 . S
C1521 C1526 1.350 . S
C1521 N1529 1.427 . S
C1522 H1513 0.930 . S
C1522 C1520 1.378 . S
C1522 C1523 1.367 . S
C1523 C1522 1.367 . S
C1523 C1525 1.433 . S
C1524 C1520 1.350 . S
C1524 C1521 1.463 . S
C1524 N1528 1.427 . S
C1525 H1515 0.929 . S
C1525 C1523 1.433 . S
C1525 N1528 1.384 . S
C1526 H1517 0.929 . S
C1526 C1518 1.378 . S
C1526 C1521 1.350 . S
C1527 H1514 0.929 . S
C1527 C1519 1.433 . S
C1527 N1529 1.384 . S
N1528 C1524 1.427 . S
N1528 C1525 1.384 . S
N1529 C1521 1.427 . S
N1529 C1527 1.384 . S
H1530 C1536 0.930 . S
H1531 C1540 0.930 . S
H1532 C1545 0.929 . S
H1533 C1543 0.929 . S
H1534 C1538 0.929 . S
H1535 C1544 0.929 . S
C1536 H1530 0.930 . S
C1536 C1537 1.367 . S
C1536 C1544 1.378 . S
C1537 C1536 1.367 . S
C1537 C1545 1.433 . S
C1538 H1534 0.929 . S
C1538 C1540 1.378 . S
C1538 C1542 1.350 . S
C1539 C1542 1.463 . S
C1539 C1544 1.350 . S
C1539 N1547 1.427 . S
C1540 H1531 0.930 . S
C1540 C1538 1.378 . S
C1540 C1541 1.367 . S
C1541 C1540 1.367 . S
C1541 C1543 1.433 . S
C1542 C1538 1.350 . S
C1542 C1539 1.463 . S
C1542 N1546 1.427 . S
C1543 H1533 0.929 . S
C1543 C1541 1.433 . S
C1543 N1546 1.384 . S
C1544 H1535 0.929 . S
C1544 C1536 1.378 . S
C1544 C1539 1.350 . S
C1545 H1532 0.929 . S
C1545 C1537 1.433 . S
C1545 N1547 1.384 . S
N1546 C1542 1.427 . S
N1546 C1543 1.384 . S
N1547 C1539 1.427 . S
N1547 C1545 1.384 . S
H1548 C1554 0.930 . S
H1549 C1558 0.930 . S
H1550 C1563 0.929 . S
H1551 C1561 0.929 . S
H1552 C1556 0.929 . S
H1553 C1562 0.929 . S
C1554 H1548 0.930 . S
C1554 C1555 1.367 . S
C1554 C1562 1.378 . S
C1555 C1554 1.367 . S
C1555 C1563 1.433 . S
C1556 H1552 0.929 . S
C1556 C1558 1.378 . S
C1556 C1560 1.350 . S
C1557 C1560 1.463 . S
C1557 C1562 1.350 . S
C1557 N1565 1.427 . S
C1558 H1549 0.930 . S
C1558 C1556 1.378 . S
C1558 C1559 1.367 . S
C1559 C1558 1.367 . S
C1559 C1561 1.433 . S
C1560 C1556 1.350 . S
C1560 C1557 1.463 . S
C1560 N1564 1.427 . S
C1561 H1551 0.929 . S
C1561 C1559 1.433 . S
C1561 N1564 1.384 . S
C1562 H1553 0.929 . S
C1562 C1554 1.378 . S
C1562 C1557 1.350 . S
C1563 H1550 0.929 . S
C1563 C1555 1.433 . S
C1563 N1565 1.384 . S
N1564 C1560 1.427 . S
N1564 C1561 1.384 . S
N1565 C1557 1.427 . S
N1565 C1563 1.384 . S
H1566 C1572 0.930 . S
H1567 C1576 0.930 . S
H1568 C1581 0.929 . S
H1569 C1579 0.929 . S
H1570 C1574 0.929 . S
H1571 C1580 0.929 . S
C1572 H1566 0.930 . S
C1572 C1573 1.367 . S
C1572 C1580 1.378 . S
C1573 C1572 1.367 . S
C1573 C1581 1.433 . S
C1574 H1570 0.929 . S
C1574 C1576 1.378 . S
C1574 C1578 1.350 . S
C1575 C1578 1.463 . S
C1575 C1580 1.350 . S
C1575 N1583 1.427 . S
C1576 H1567 0.930 . S
C1576 C1574 1.378 . S
C1576 C1577 1.367 . S
C1577 C1576 1.367 . S
C1577 C1579 1.433 . S
C1578 C1574 1.350 . S
C1578 C1575 1.463 . S
C1578 N1582 1.427 . S
C1579 H1569 0.929 . S
C1579 C1577 1.433 . S
C1579 N1582 1.384 . S
C1580 H1571 0.929 . S
C1580 C1572 1.378 . S
C1580 C1575 1.350 . S
C1581 H1568 0.929 . S
C1581 C1573 1.433 . S
C1581 N1583 1.384 . S
N1582 C1578 1.427 . S
N1582 C1579 1.384 . S
N1583 C1575 1.427 . S
N1583 C1581 1.384 . S
H1584 C1590 0.930 . S
H1585 C1594 0.930 . S
H1586 C1599 0.929 . S
H1587 C1597 0.929 . S
H1588 C1592 0.929 . S
H1589 C1598 0.929 . S
C1590 H1584 0.930 . S
C1590 C1591 1.367 . S
C1590 C1598 1.378 . S
C1591 C1590 1.367 . S
C1591 C1599 1.433 . S
C1592 H1588 0.929 . S
C1592 C1594 1.378 . S
C1592 C1596 1.350 . S
C1593 C1596 1.463 . S
C1593 C1598 1.350 . S
C1593 N1601 1.427 . S
C1594 H1585 0.930 . S
C1594 C1592 1.378 . S
C1594 C1595 1.367 . S
C1595 C1594 1.367 . S
C1595 C1597 1.433 . S
C1596 C1592 1.350 . S
C1596 C1593 1.463 . S
C1596 N1600 1.427 . S
C1597 H1587 0.929 . S
C1597 C1595 1.433 . S
C1597 N1600 1.384 . S
C1598 H1589 0.929 . S
C1598 C1590 1.378 . S
C1598 C1593 1.350 . S
C1599 H1586 0.929 . S
C1599 C1591 1.433 . S
C1599 N1601 1.384 . S
N1600 C1596 1.427 . S
N1600 C1597 1.384 . S
N1601 C1593 1.427 . S
N1601 C1599 1.384 . S
H1602 C1608 0.930 . S
H1603 C1612 0.930 . S
H1604 C1617 0.929 . S
H1605 C1615 0.929 . S
H1606 C1610 0.929 . S
H1607 C1616 0.929 . S
C1608 H1602 0.930 . S
C1608 C1609 1.367 . S
C1608 C1616 1.378 . S
C1609 C1608 1.367 . S
C1609 C1617 1.433 . S
C1610 H1606 0.929 . S
C1610 C1612 1.378 . S
C1610 C1614 1.350 . S
C1611 C1614 1.463 . S
C1611 C1616 1.350 . S
C1611 N1619 1.427 . S
C1612 H1603 0.930 . S
C1612 C1610 1.378 . S
C1612 C1613 1.367 . S
C1613 C1612 1.367 . S
C1613 C1615 1.433 . S
C1614 C1610 1.350 . S
C1614 C1611 1.463 . S
C1614 N1618 1.427 . S
C1615 H1605 0.929 . S
C1615 C1613 1.433 . S
C1615 N1618 1.384 . S
C1616 H1607 0.929 . S
C1616 C1608 1.378 . S
C1616 C1611 1.350 . S
C1617 H1604 0.929 . S
C1617 C1609 1.433 . S
C1617 N1619 1.384 . S
N1618 C1614 1.427 . S
N1618 C1615 1.384 . S
N1619 C1611 1.427 . S
N1619 C1617 1.384 . S
H1620 C1626 0.930 . S
H1621 C1630 0.930 . S
H1622 C1635 0.929 . S
H1623 C1633 0.929 . S
H1624 C1628 0.929 . S
H1625 C1634 0.929 . S
C1626 H1620 0.930 . S
C1626 C1627 1.367 . S
C1626 C1634 1.378 . S
C1627 C1626 1.367 . S
C1627 C1635 1.433 . S
C1628 H1624 0.929 . S
C1628 C1630 1.378 . S
C1628 C1632 1.350 . S
C1629 C1632 1.463 . S
C1629 C1634 1.350 . S
C1629 N1637 1.427 . S
C1630 H1621 0.930 . S
C1630 C1628 1.378 . S
C1630 C1631 1.367 . S
C1631 C1630 1.367 . S
C1631 C1633 1.433 . S
C1632 C1628 1.350 . S
C1632 C1629 1.463 . S
C1632 N1636 1.427 . S
C1633 H1623 0.929 . S
C1633 C1631 1.433 . S
C1633 N1636 1.384 . S
C1634 H1625 0.929 . S
C1634 C1626 1.378 . S
C1634 C1629 1.350 . S
C1635 H1622 0.929 . S
C1635 C1627 1.433 . S
C1635 N1637 1.384 . S
N1636 C1632 1.427 . S
N1636 C1633 1.384 . S
N1637 C1629 1.427 . S
N1637 C1635 1.384 . S
H1638 C1644 0.930 . S
H1639 C1648 0.930 . S
H1640 C1653 0.929 . S
H1641 C1651 0.929 . S
H1642 C1646 0.929 . S
H1643 C1652 0.929 . S
C1644 H1638 0.930 . S
C1644 C1645 1.367 . S
C1644 C1652 1.378 . S
C1645 C1644 1.367 . S
C1645 C1653 1.433 . S
C1646 H1642 0.929 . S
C1646 C1648 1.378 . S
C1646 C1650 1.350 . S
C1647 C1650 1.463 . S
C1647 C1652 1.350 . S
C1647 N1655 1.427 . S
C1648 H1639 0.930 . S
C1648 C1646 1.378 . S
C1648 C1649 1.367 . S
C1649 C1648 1.367 . S
C1649 C1651 1.433 . S
C1650 C1646 1.350 . S
C1650 C1647 1.463 . S
C1650 N1654 1.427 . S
C1651 H1641 0.929 . S
C1651 C1649 1.433 . S
C1651 N1654 1.384 . S
C1652 H1643 0.929 . S
C1652 C1644 1.378 . S
C1652 C1647 1.350 . S
C1653 H1640 0.929 . S
C1653 C1645 1.433 . S
C1653 N1655 1.384 . S
N1654 C1650 1.427 . S
N1654 C1651 1.384 . S
N1655 C1647 1.427 . S
N1655 C1653 1.384 . S
H1656 C1662 0.930 . S
H1657 C1666 0.930 . S
H1658 C1671 0.929 . S
H1659 C1669 0.929 . S
H1660 C1664 0.929 . S
H1661 C1670 0.929 . S
C1662 H1656 0.930 . S
C1662 C1663 1.367 . S
C1662 C1670 1.378 . S
C1663 C1662 1.367 . S
C1663 C1671 1.433 . S
C1664 H1660 0.929 . S
C1664 C1666 1.378 . S
C1664 C1668 1.350 . S
C1665 C1668 1.463 . S
C1665 C1670 1.350 . S
C1665 N1673 1.427 . S
C1666 H1657 0.930 . S
C1666 C1664 1.378 . S
C1666 C1667 1.367 . S
C1667 C1666 1.367 . S
C1667 C1669 1.433 . S
C1668 C1664 1.350 . S
C1668 C1665 1.463 . S
C1668 N1672 1.427 . S
C1669 H1659 0.929 . S
C1669 C1667 1.433 . S
C1669 N1672 1.384 . S
C1670 H1661 0.929 . S
C1670 C1662 1.378 . S
C1670 C1665 1.350 . S
C1671 H1658 0.929 . S
C1671 C1663 1.433 . S
C1671 N1673 1.384 . S
N1672 C1668 1.427 . S
N1672 C1669 1.384 . S
N1673 C1665 1.427 . S
N1673 C1671 1.384 . S
H1674 C1680 0.930 . S
H1675 C1684 0.930 . S
H1676 C1689 0.929 . S
H1677 C1687 0.929 . S
H1678 C1682 0.929 . S
H1679 C1688 0.929 . S
C1680 H1674 0.930 . S
C1680 C1681 1.367 . S
C1680 C1688 1.378 . S
C1681 C1680 1.367 . S
C1681 C1689 1.433 . S
C1682 H1678 0.929 . S
C1682 C1684 1.378 . S
C1682 C1686 1.350 . S
C1683 C1686 1.463 . S
C1683 C1688 1.350 . S
C1683 N1691 1.427 . S
C1684 H1675 0.930 . S
C1684 C1682 1.378 . S
C1684 C1685 1.367 . S
C1685 C1684 1.367 . S
C1685 C1687 1.433 . S
C1686 C1682 1.350 . S
C1686 C1683 1.463 . S
C1686 N1690 1.427 . S
C1687 H1677 0.929 . S
C1687 C1685 1.433 . S
C1687 N1690 1.384 . S
C1688 H1679 0.929 . S
C1688 C1680 1.378 . S
C1688 C1683 1.350 . S
C1689 H1676 0.929 . S
C1689 C1681 1.433 . S
C1689 N1691 1.384 . S
N1690 C1686 1.427 . S
N1690 C1687 1.384 . S
N1691 C1683 1.427 . S
N1691 C1689 1.384 . S
H1692 C1698 0.930 . S
H1693 C1702 0.930 . S
H1694 C1707 0.929 . S
H1695 C1705 0.929 . S
H1696 C1700 0.929 . S
H1697 C1706 0.929 . S
C1698 H1692 0.930 . S
C1698 C1699 1.367 . S
C1698 C1706 1.378 . S
C1699 C1698 1.367 . S
C1699 C1707 1.433 . S
C1700 H1696 0.929 . S
C1700 C1702 1.378 . S
C1700 C1704 1.350 . S
C1701 C1704 1.463 . S
C1701 C1706 1.350 . S
C1701 N1709 1.427 . S
C1702 H1693 0.930 . S
C1702 C1700 1.378 . S
C1702 C1703 1.367 . S
C1703 C1702 1.367 . S
C1703 C1705 1.433 . S
C1704 C1700 1.350 . S
C1704 C1701 1.463 . S
C1704 N1708 1.427 . S
C1705 H1695 0.929 . S
C1705 C1703 1.433 . S
C1705 N1708 1.384 . S
C1706 H1697 0.929 . S
C1706 C1698 1.378 . S
C1706 C1701 1.350 . S
C1707 H1694 0.929 . S
C1707 C1699 1.433 . S
C1707 N1709 1.384 . S
N1708 C1704 1.427 . S
N1708 C1705 1.384 . S
N1709 C1701 1.427 . S
N1709 C1707 1.384 . S
H1710 C1716 0.930 . S
H1711 C1720 0.930 . S
H1712 C1725 0.929 . S
H1713 C1723 0.929 . S
H1714 C1718 0.929 . S
H1715 C1724 0.929 . S
C1716 H1710 0.930 . S
C1716 C1717 1.367 . S
C1716 C1724 1.378 . S
C1717 C1716 1.367 . S
C1717 C1725 1.433 . S
C1718 H1714 0.929 . S
C1718 C1720 1.378 . S
C1718 C1722 1.350 . S
C1719 C1722 1.463 . S
C1719 C1724 1.350 . S
C1719 N1727 1.427 . S
C1720 H1711 0.930 . S
C1720 C1718 1.378 . S
C1720 C1721 1.367 . S
C1721 C1720 1.367 . S
C1721 C1723 1.433 . S
C1722 C1718 1.350 . S
C1722 C1719 1.463 . S
C1722 N1726 1.427 . S
C1723 H1713 0.929 . S
C1723 C1721 1.433 . S
C1723 N1726 1.384 . S
C1724 H1715 0.929 . S
C1724 C1716 1.378 . S
C1724 C1719 1.350 . S
C1725 H1712 0.929 . S
C1725 C1717 1.433 . S
C1725 N1727 1.384 . S
N1726 C1722 1.427 . S
N1726 C1723 1.384 . S
N1727 C1719 1.427 . S
N1727 C1725 1.384 . S
H1728 C1734 0.930 . S
H1729 C1738 0.930 . S
H1730 C1743 0.929 . S
H1731 C1741 0.929 . S
H1732 C1736 0.929 . S
H1733 C1742 0.929 . S
C1734 H1728 0.930 . S
C1734 C1735 1.367 . S
C1734 C1742 1.378 . S
C1735 C1734 1.367 . S
C1735 C1743 1.433 . S
C1736 H1732 0.929 . S
C1736 C1738 1.378 . S
C1736 C1740 1.350 . S
C1737 C1740 1.463 . S
C1737 C1742 1.350 . S
C1737 N1745 1.427 . S
C1738 H1729 0.930 . S
C1738 C1736 1.378 . S
C1738 C1739 1.367 . S
C1739 C1738 1.367 . S
C1739 C1741 1.433 . S
C1740 C1736 1.350 . S
C1740 C1737 1.463 . S
C1740 N1744 1.427 . S
C1741 H1731 0.929 . S
C1741 C1739 1.433 . S
C1741 N1744 1.384 . S
C1742 H1733 0.929 . S
C1742 C1734 1.378 . S
C1742 C1737 1.350 . S
C1743 H1730 0.929 . S
C1743 C1735 1.433 . S
C1743 N1745 1.384 . S
N1744 C1740 1.427 . S
N1744 C1741 1.384 . S
N1745 C1737 1.427 . S
N1745 C1743 1.384 . S
H1746 C1752 0.930 . S
H1747 C1756 0.930 . S
H1748 C1761 0.929 . S
H1749 C1759 0.929 . S
H1750 C1754 0.929 . S
H1751 C1760 0.929 . S
C1752 H1746 0.930 . S
C1752 C1753 1.367 . S
C1752 C1760 1.378 . S
C1753 C1752 1.367 . S
C1753 C1761 1.433 . S
C1754 H1750 0.929 . S
C1754 C1756 1.378 . S
C1754 C1758 1.350 . S
C1755 C1758 1.463 . S
C1755 C1760 1.350 . S
C1755 N1763 1.427 . S
C1756 H1747 0.930 . S
C1756 C1754 1.378 . S
C1756 C1757 1.367 . S
C1757 C1756 1.367 . S
C1757 C1759 1.433 . S
C1758 C1754 1.350 . S
C1758 C1755 1.463 . S
C1758 N1762 1.427 . S
C1759 H1749 0.929 . S
C1759 C1757 1.433 . S
C1759 N1762 1.384 . S
C1760 H1751 0.929 . S
C1760 C1752 1.378 . S
C1760 C1755 1.350 . S
C1761 H1748 0.929 . S
C1761 C1753 1.433 . S
C1761 N1763 1.384 . S
N1762 C1758 1.427 . S
N1762 C1759 1.384 . S
N1763 C1755 1.427 . S
N1763 C1761 1.384 . S
H1764 C1770 0.930 . S
H1765 C1774 0.930 . S
H1766 C1779 0.929 . S
H1767 C1777 0.929 . S
H1768 C1772 0.929 . S
H1769 C1778 0.929 . S
C1770 H1764 0.930 . S
C1770 C1771 1.367 . S
C1770 C1778 1.378 . S
C1771 C1770 1.367 . S
C1771 C1779 1.433 . S
C1772 H1768 0.929 . S
C1772 C1774 1.378 . S
C1772 C1776 1.350 . S
C1773 C1776 1.463 . S
C1773 C1778 1.350 . S
C1773 N1781 1.427 . S
C1774 H1765 0.930 . S
C1774 C1772 1.378 . S
C1774 C1775 1.367 . S
C1775 C1774 1.367 . S
C1775 C1777 1.433 . S
C1776 C1772 1.350 . S
C1776 C1773 1.463 . S
C1776 N1780 1.427 . S
C1777 H1767 0.929 . S
C1777 C1775 1.433 . S
C1777 N1780 1.384 . S
C1778 H1769 0.929 . S
C1778 C1770 1.378 . S
C1778 C1773 1.350 . S
C1779 H1766 0.929 . S
C1779 C1771 1.433 . S
C1779 N1781 1.384 . S
N1780 C1776 1.427 . S
N1780 C1777 1.384 . S
N1781 C1773 1.427 . S
N1781 C1779 1.384 . S
H1782 C1788 0.930 . S
H1783 C1792 0.930 . S
H1784 C1797 0.929 . S
H1785 C1795 0.929 . S
H1786 C1790 0.929 . S
H1787 C1796 0.929 . S
C1788 H1782 0.930 . S
C1788 C1789 1.367 . S
C1788 C1796 1.378 . S
C1789 C1788 1.367 . S
C1789 C1797 1.433 . S
C1790 H1786 0.929 . S
C1790 C1792 1.378 . S
C1790 C1794 1.350 . S
C1791 C1794 1.463 . S
C1791 C1796 1.350 . S
C1791 N1799 1.427 . S
C1792 H1783 0.930 . S
C1792 C1790 1.378 . S
C1792 C1793 1.367 . S
C1793 C1792 1.367 . S
C1793 C1795 1.433 . S
C1794 C1790 1.350 . S
C1794 C1791 1.463 . S
C1794 N1798 1.427 . S
C1795 H1785 0.929 . S
C1795 C1793 1.433 . S
C1795 N1798 1.384 . S
C1796 H1787 0.929 . S
C1796 C1788 1.378 . S
C1796 C1791 1.350 . S
C1797 H1784 0.929 . S
C1797 C1789 1.433 . S
C1797 N1799 1.384 . S
N1798 C1794 1.427 . S
N1798 C1795 1.384 . S
N1799 C1791 1.427 . S
N1799 C1797 1.384 . S
C511 C11 0.982 . S
C515 C165 0.963 . S
C529 C137 0.984 . S
C533 C25 0.961 . S
C547 C151 0.984 . S
C551 C39 0.961 . S
C565 C53 0.967 . S
C569 C109 0.979 . S
C583 C67 0.975 . S
C587 C123 0.971 . S
C601 C81 0.971 . S
C605 C95 0.975 . S
C619 C179 0.974 . S
C623 C333 0.972 . S
C637 C305 0.976 . S
C641 C193 0.970 . S
C655 C207 0.982 . S
C659 C319 0.963 . S
C673 C221 0.975 . S
C677 C277 0.970 . S
C691 C235 0.966 . S
C695 C291 0.979 . S
C709 C249 0.961 . S
C713 C263 0.984 . S
C727 C347 0.966 . S
C731 C501 0.980 . S
C745 C361 0.970 . S
C749 C473 0.975 . S
C763 C487 0.963 . S
C767 C375 0.983 . S
C781 C389 0.966 . S
C785 C445 0.979 . S
C799 C459 0.984 . S
C803 C403 0.962 . S
C817 C431 0.973 . S
C821 C417 0.972 . S
C835 C5 1.069 . S
C839 C215 1.081 . S
C853 C19 1.055 . S
C857 C229 1.085 . S
C871 C33 1.073 . S
C875 C243 1.077 . S
C889 C47 1.054 . S
C893 C341 1.083 . S
C907 C355 1.064 . S
C911 C61 1.084 . S
C925 C369 1.061 . S
C929 C75 1.070 . S
C943 C89 1.083 . S
C947 C467 1.054 . S
C961 C481 1.085 . S
C965 C103 1.055 . S
C979 C117 1.086 . S
C983 C495 1.057 . S
C997 C131 1.071 . S
C1001 C257 1.079 . S
C1015 C145 1.054 . S
C1019 C271 1.081 . S
C1033 C159 1.073 . S
C1037 C285 1.059 . S
C1051 C383 1.081 . S
C1055 C173 1.068 . S
C1069 C187 1.065 . S
C1073 C397 1.083 . S
C1087 C201 1.058 . S
C1091 C411 1.086 . S
C1105 C425 1.074 . S
C1109 C299 1.057 . S
C1123 C439 1.074 . S
C1127 C313 1.058 . S
C1141 C327 1.083 . S
C1145 C453 1.054 . S
C1159 C12 1.418 . S
C1163 C68 1.423 . S
C1177 C82 1.419 . S
C1181 C26 1.421 . S
C1195 C54 1.420 . S
C1199 C40 1.422 . S
C1213 C96 1.423 . S
C1217 C152 1.418 . S
C1231 C166 1.418 . S
C1235 C110 1.423 . S
C1249 C124 1.423 . S
C1253 C138 1.419 . S
C1267 C236 1.418 . S
C1271 C180 1.423 . S
C1285 C194 1.423 . S
C1289 C250 1.418 . S
C1303 C208 1.420 . S
C1307 C222 1.422 . S
C1321 C320 1.419 . S
C1325 C264 1.422 . S
C1339 C334 1.419 . S
C1343 C278 1.423 . S
C1357 C306 1.421 . S
C1361 C292 1.421 . S
C1375 C348 1.422 . S
C1379 C404 1.420 . S
C1393 C362 1.418 . S
C1397 C418 1.423 . S
C1411 C376 1.419 . S
C1415 C390 1.422 . S
C1429 C488 1.420 . S
C1433 C432 1.422 . S
C1447 C502 1.418 . S
C1451 C446 1.423 . S
C1465 C474 1.422 . S
C1469 C460 1.420 . S
C1483 C130 1.524 . S
C1487 C4 1.535 . S
C1501 C144 1.527 . S
C1505 C18 1.532 . S
C1519 C32 1.534 . S
C1523 C158 1.525 . S
C1537 C46 1.536 . S
C1541 C88 1.524 . S
C1555 C102 1.532 . S
C1559 C60 1.527 . S
C1573 C74 1.536 . S
C1577 C116 1.524 . S
C1591 C298 1.525 . S
C1595 C172 1.535 . S
C1609 C312 1.536 . S
C1613 C186 1.524 . S
C1627 C200 1.524 . S
C1631 C326 1.536 . S
C1645 C256 1.529 . S
C1649 C214 1.531 . S
C1663 C270 1.530 . S
C1667 C228 1.529 . S
C1681 C284 1.527 . S
C1685 C242 1.533 . S
C1699 C340 1.533 . S
C1703 C466 1.527 . S
C1717 C480 1.526 . S
C1721 C354 1.534 . S
C1735 C368 1.536 . S
C1739 C494 1.524 . S
C1753 C382 1.525 . S
C1757 C424 1.535 . S
C1771 C396 1.535 . S
C1775 C438 1.525 . S
C1789 C452 1.527 . S
C1793 C410 1.532 . S
