# Generated by pormake.
# Topology uki, (4)-cn, num edge types: 1
# Building blocks:
#     Node 0, Type 0, BuildingBlock: ICAMEG_clean_sbu_1, # of connection points: 4
#     Node 1, Type 0, BuildingBlock: ICAMEG_clean_sbu_1, # of connection points: 4
#     Node 2, Type 0, BuildingBlock: ICAMEG_clean_sbu_1, # of connection points: 4
#     Node 3, Type 0, BuildingBlock: ICAMEG_clean_sbu_1, # of connection points: 4
#     Node 4, Type 0, BuildingBlock: ICAMEG_clean_sbu_1, # of connection points: 4
#     Node 5, Type 0, BuildingBlock: ICAMEG_clean_sbu_1, # of connection points: 4
#     Node 6, Type 0, BuildingBlock: ICAMEG_clean_sbu_1, # of connection points: 4
#     Node 7, Type 0, BuildingBlock: ICAMEG_clean_sbu_1, # of connection points: 4
#     Node 8, Type 0, BuildingBlock: ICAMEG_clean_sbu_1, # of connection points: 4
#     Node 9, Type 0, BuildingBlock: ICAMEG_clean_sbu_1, # of connection points: 4
#     Node 10, Type 0, BuildingBlock: ICAMEG_clean_sbu_1, # of connection points: 4
#     Node 11, Type 0, BuildingBlock: ICAMEG_clean_sbu_1, # of connection points: 4
#     Node 12, Type 0, BuildingBlock: ICAMEG_clean_sbu_1, # of connection points: 4
#     Node 13, Type 0, BuildingBlock: ICAMEG_clean_sbu_1, # of connection points: 4
#     Node 14, Type 0, BuildingBlock: ICAMEG_clean_sbu_1, # of connection points: 4
#     Node 15, Type 0, BuildingBlock: ICAMEG_clean_sbu_1, # of connection points: 4
#     Edge 16, Type (0, 0), BuildingBlock: ZUJKAS_clean_linker_0, # of connection points: 2
#     Edge 17, Type (0, 0), BuildingBlock: ZUJKAS_clean_linker_0, # of connection points: 2
#     Edge 18, Type (0, 0), BuildingBlock: ZUJKAS_clean_linker_0, # of connection points: 2
#     Edge 19, Type (0, 0), BuildingBlock: ZUJKAS_clean_linker_0, # of connection points: 2
#     Edge 20, Type (0, 0), BuildingBlock: ZUJKAS_clean_linker_0, # of connection points: 2
#     Edge 21, Type (0, 0), BuildingBlock: ZUJKAS_clean_linker_0, # of connection points: 2
#     Edge 22, Type (0, 0), BuildingBlock: ZUJKAS_clean_linker_0, # of connection points: 2
#     Edge 23, Type (0, 0), BuildingBlock: ZUJKAS_clean_linker_0, # of connection points: 2
#     Edge 24, Type (0, 0), BuildingBlock: ZUJKAS_clean_linker_0, # of connection points: 2
#     Edge 25, Type (0, 0), BuildingBlock: ZUJKAS_clean_linker_0, # of connection points: 2
#     Edge 26, Type (0, 0), BuildingBlock: ZUJKAS_clean_linker_0, # of connection points: 2
#     Edge 27, Type (0, 0), BuildingBlock: ZUJKAS_clean_linker_0, # of connection points: 2
#     Edge 28, Type (0, 0), BuildingBlock: ZUJKAS_clean_linker_0, # of connection points: 2
#     Edge 29, Type (0, 0), BuildingBlock: ZUJKAS_clean_linker_0, # of connection points: 2
#     Edge 30, Type (0, 0), BuildingBlock: ZUJKAS_clean_linker_0, # of connection points: 2
#     Edge 31, Type (0, 0), BuildingBlock: ZUJKAS_clean_linker_0, # of connection points: 2
#     Edge 32, Type (0, 0), BuildingBlock: ZUJKAS_clean_linker_0, # of connection points: 2
#     Edge 33, Type (0, 0), BuildingBlock: ZUJKAS_clean_linker_0, # of connection points: 2
#     Edge 34, Type (0, 0), BuildingBlock: ZUJKAS_clean_linker_0, # of connection points: 2
#     Edge 35, Type (0, 0), BuildingBlock: ZUJKAS_clean_linker_0, # of connection points: 2
#     Edge 36, Type (0, 0), BuildingBlock: ZUJKAS_clean_linker_0, # of connection points: 2
#     Edge 37, Type (0, 0), BuildingBlock: ZUJKAS_clean_linker_0, # of connection points: 2
#     Edge 38, Type (0, 0), BuildingBlock: ZUJKAS_clean_linker_0, # of connection points: 2
#     Edge 39, Type (0, 0), BuildingBlock: ZUJKAS_clean_linker_0, # of connection points: 2
#     Edge 40, Type (0, 0), BuildingBlock: ZUJKAS_clean_linker_0, # of connection points: 2
#     Edge 41, Type (0, 0), BuildingBlock: ZUJKAS_clean_linker_0, # of connection points: 2
#     Edge 42, Type (0, 0), BuildingBlock: ZUJKAS_clean_linker_0, # of connection points: 2
#     Edge 43, Type (0, 0), BuildingBlock: ZUJKAS_clean_linker_0, # of connection points: 2
#     Edge 44, Type (0, 0), BuildingBlock: ZUJKAS_clean_linker_0, # of connection points: 2
#     Edge 45, Type (0, 0), BuildingBlock: ZUJKAS_clean_linker_0, # of connection points: 2
#     Edge 46, Type (0, 0), BuildingBlock: ZUJKAS_clean_linker_0, # of connection points: 2
#     Edge 47, Type (0, 0), BuildingBlock: ZUJKAS_clean_linker_0, # of connection points: 2
# Relax obj value: 0.016
# Max RMSD: 0.107
# Mean RMSD: 0.107
data_MOF--net-uki--node1-ICAMEG_clean_sbu_1--edge1-ZUJKAS_clean_linker_0
_symmetry_space_group_name_H-M    P1
_symmetry_Int_Tables_number       1
_symmetry_cell_setting            triclinic
loop_
_symmetry_equiv_pos_as_xyz
'x, y, z'
_cell_length_a     42.617194
_cell_length_b     42.613366
_cell_length_c     99.776253
_cell_angle_alpha  89.995334
_cell_angle_beta   89.995825
_cell_angle_gamma 89.999107
loop_
_atom_site_label
_atom_site_type_symbol
_atom_site_fract_x
_atom_site_fract_y
_atom_site_fract_z
_atom_type_partial_charge
Co0 Co 0.09973 0.2064 0.27988 0.0
Co1 Co 0.08096 0.25312 0.30709 0.0
O2 O 0.09497 0.21371 0.29909 0.0
C3 C 0.05523 0.15832 0.2891 0.0
O4 O 0.04137 0.18065 0.29595 0.0
C5 C 0.14283 0.24042 0.31888 0.0
O6 O 0.15204 0.23248 0.30681 0.0
O7 O 0.10985 0.27789 0.29557 0.0
O8 O 0.12006 0.24821 0.27747 0.0
H9 H 0.0434 0.36487 0.30658 0.0
H10 H 0.12308 0.15889 0.29917 0.0
O11 O 0.07921 0.16446 0.28195 0.0
H12 H 0.21605 0.19221 0.27342 0.0
H13 H 0.12361 0.1404 0.23931 0.0
H14 H 0.0908 0.2448 0.25539 0.0
H15 H 0.16391 0.21449 0.26845 0.0
H16 H 0.11811 0.15085 0.26352 0.0
O17 O 0.11481 0.24965 0.32092 0.0
H18 H 0.06064 0.31489 0.29651 0.0
H19 H 0.07253 0.27513 0.33522 0.0
H20 H 0.09624 0.23545 0.2311 0.0
H21 H 0.17473 0.13581 0.3044 0.0
H22 H 0.11276 0.18293 0.22292 0.0
H23 H 0.22168 0.15256 0.29151 0.0
O24 O 0.05805 0.22538 0.27608 0.0
H25 H 0.05221 0.1647 0.33806 0.0
H26 H 0.01308 0.25801 0.31407 0.0
H27 H 0.97653 0.22671 0.32781 0.0
H28 H 0.99605 0.17968 0.33992 0.0
H29 H 0.0879 0.19654 0.32414 0.0
H30 H 0.05566 0.32477 0.34572 0.0
H31 H 0.04083 0.37003 0.33136 0.0
O32 O 0.04716 0.2574 0.29337 0.0
C33 C 0.12262 0.27359 0.28416 0.0
C34 C 0.04969 0.34528 0.31294 0.0
C35 C 0.05662 0.32279 0.33491 0.0
N36 N 0.0673 0.29206 0.31527 0.0
C37 C 0.05937 0.3169 0.3073 0.0
C38 C 0.0662 0.29477 0.32891 0.0
C39 C 0.04829 0.34817 0.32685 0.0
C40 C 0.14334 0.16603 0.29342 0.0
N41 N 0.14046 0.18789 0.28348 0.0
C42 C 0.17255 0.15299 0.29647 0.0
C43 C 0.1989 0.16244 0.28924 0.0
C44 C 0.19575 0.1847 0.2791 0.0
C45 C 0.16619 0.19728 0.27635 0.0
C46 C 0.11646 0.1634 0.24275 0.0
C47 C 0.0982 0.22194 0.25191 0.0
C48 C 0.11326 0.16944 0.25644 0.0
N49 N 0.1044 0.19848 0.26085 0.0
C50 C 0.10114 0.21676 0.23814 0.0
C51 C 0.11038 0.18728 0.23356 0.0
C52 C 0.04065 0.24543 0.28198 0.0
C53 C 0.04344 0.1852 0.33287 0.0
C54 C 0.02175 0.23756 0.31931 0.0
C55 C 0.00095 0.21996 0.32709 0.0
C56 C 0.01193 0.19359 0.33389 0.0
N57 N 0.05263 0.22919 0.31836 0.0
C58 C 0.06358 0.20339 0.32502 0.0
Co59 Co 0.20488 0.89944 0.71854 0.0
Co60 Co 0.25377 0.91759 0.69195 0.0
O61 O 0.21399 0.90303 0.69941 0.0
C62 C 0.15656 0.9419 0.70786 0.0
O63 O 0.17923 0.95602 0.70132 0.0
C64 C 0.24433 0.85463 0.68062 0.0
O65 O 0.23474 0.8459 0.69254 0.0
O66 O 0.27803 0.89009 0.70423 0.0
O67 O 0.24695 0.88041 0.72196 0.0
H68 H 0.36439 0.95807 0.69408 0.0
H69 H 0.15997 0.87346 0.69872 0.0
O70 O 0.16262 0.91861 0.71543 0.0
H71 H 0.19316 0.78325 0.72625 0.0
H72 H 0.13547 0.87646 0.75816 0.0
H73 H 0.2405 0.91103 0.74358 0.0
H74 H 0.21352 0.83631 0.73093 0.0
H75 H 0.14821 0.88067 0.73411 0.0
O76 O 0.2528 0.88284 0.67848 0.0
H77 H 0.3139 0.94005 0.70342 0.0
H78 H 0.27836 0.92512 0.66416 0.0
H79 H 0.22886 0.90691 0.76774 0.0
H80 H 0.13883 0.82084 0.69376 0.0
H81 H 0.17601 0.88952 0.77516 0.0
H82 H 0.15552 0.77527 0.70755 0.0
O83 O 0.22237 0.94191 0.72217 0.0
H84 H 0.16786 0.94194 0.65908 0.0
H85 H 0.25749 0.98518 0.6843 0.0
H86 H 0.22658 0.02 0.66961 0.0
H87 H 0.1814 0.99839 0.65688 0.0
H88 H 0.19927 0.908 0.67396 0.0
H89 H 0.32855 0.94275 0.6544 0.0
H90 H 0.37195 0.9595 0.6694 0.0
O91 O 0.2558 0.95226 0.70532 0.0
C92 C 0.27298 0.87799 0.71572 0.0
C93 C 0.34562 0.95094 0.68744 0.0
C94 C 0.32552 0.9423 0.66517 0.0
N95 N 0.29314 0.93183 0.68434 0.0
C96 C 0.31695 0.94081 0.69266 0.0
C97 C 0.29718 0.93229 0.67075 0.0
C98 C 0.34985 0.9517 0.67359 0.0
C99 C 0.16708 0.8538 0.70486 0.0
N100 N 0.18783 0.85798 0.71514 0.0
C101 C 0.15514 0.82404 0.70196 0.0
C102 C 0.16456 0.79847 0.70969 0.0
C103 C 0.18569 0.80293 0.72017 0.0
C104 C 0.19719 0.83302 0.72276 0.0
C105 C 0.1586 0.88401 0.75505 0.0
C106 C 0.21752 0.90326 0.74674 0.0
C107 C 0.16593 0.88649 0.74145 0.0
N108 N 0.19515 0.89584 0.73746 0.0
C109 C 0.21103 0.90106 0.76043 0.0
C110 C 0.18136 0.89133 0.76459 0.0
C111 C 0.24266 0.95929 0.7164 0.0
C112 C 0.18755 0.9516 0.66454 0.0
C113 C 0.23785 0.97561 0.6788 0.0
C114 C 0.22047 0.99543 0.67048 0.0
C115 C 0.19513 0.98329 0.66333 0.0
N116 N 0.23028 0.94455 0.67993 0.0
C117 C 0.2055 0.93247 0.67293 0.0
Co118 Co 0.89737 0.79279 0.27975 0.0
Co119 Co 0.91731 0.74608 0.30683 0.0
O120 O 0.90268 0.78539 0.29894 0.0
C121 C 0.94189 0.84097 0.28884 0.0
O122 O 0.95597 0.81861 0.29559 0.0
C123 C 0.85544 0.75765 0.31885 0.0
O124 O 0.84603 0.76626 0.30689 0.0
O125 O 0.88854 0.72111 0.29536 0.0
O126 O 0.87715 0.7509 0.2774 0.0
H127 H 0.95623 0.63481 0.30594 0.0
H128 H 0.87436 0.84013 0.2992 0.0
O129 O 0.91778 0.83481 0.28176 0.0
H130 H 0.78082 0.80647 0.27391 0.0
H131 H 0.87209 0.85898 0.23938 0.0
H132 H 0.90573 0.75459 0.25517 0.0
H133 H 0.83291 0.78445 0.26866 0.0
H134 H 0.87832 0.84838 0.26355 0.0
O135 O 0.88363 0.7488 0.32076 0.0
H136 H 0.93817 0.68469 0.29604 0.0
H137 H 0.92659 0.72385 0.33487 0.0
H138 H 0.89955 0.76408 0.23092 0.0
H139 H 0.82275 0.86293 0.30472 0.0
H140 H 0.88262 0.8166 0.22289 0.0
H141 H 0.77551 0.84602 0.29206 0.0
O142 O 0.93902 0.774 0.27568 0.0
H143 H 0.94539 0.8345 0.33789 0.0
H144 H 0.98538 0.74204 0.31356 0.0
H145 H 0.02175 0.77369 0.32724 0.0
H146 H 0.00179 0.82029 0.33953 0.0
H147 H 0.90989 0.80231 0.32403 0.0
H148 H 0.94428 0.6743 0.3452 0.0
H149 H 0.95937 0.6294 0.3307 0.0
O150 O 0.95089 0.74238 0.29299 0.0
C151 C 0.8752 0.72541 0.28406 0.0
C152 C 0.94983 0.65425 0.31237 0.0
C153 C 0.94309 0.6764 0.3344 0.0
N154 N 0.93163 0.70722 0.31487 0.0
C155 C 0.93969 0.68257 0.30682 0.0
C156 C 0.93304 0.70437 0.3285 0.0
C157 C 0.95156 0.65121 0.32626 0.0
C158 C 0.85397 0.83291 0.29355 0.0
N159 N 0.85667 0.81111 0.28358 0.0
C160 C 0.82478 0.8458 0.29676 0.0
C161 C 0.79828 0.83625 0.28967 0.0
C162 C 0.80124 0.81405 0.27949 0.0
C163 C 0.83079 0.80162 0.27658 0.0
C164 C 0.87942 0.83598 0.24276 0.0
C165 C 0.89815 0.77744 0.25175 0.0
C166 C 0.88304 0.82986 0.25643 0.0
N167 N 0.89212 0.80082 0.26076 0.0
C168 C 0.89479 0.78271 0.23801 0.0
C169 C 0.88532 0.81219 0.23351 0.0
C170 C 0.95684 0.75421 0.28153 0.0
C171 C 0.95435 0.81419 0.33262 0.0
C172 C 0.97653 0.76229 0.31888 0.0
C173 C 0.99722 0.7801 0.32662 0.0
C174 C 0.986 0.80623 0.33352 0.0
N175 N 0.94551 0.77024 0.31806 0.0
C176 C 0.93433 0.7958 0.32481 0.0
Co177 Co 0.79248 0.09736 0.71798 0.0
Co178 Co 0.74299 0.07841 0.69167 0.0
O179 O 0.78307 0.09276 0.69892 0.0
C180 C 0.83931 0.05252 0.70775 0.0
O181 O 0.81632 0.03896 0.7012 0.0
C182 C 0.75296 0.14119 0.68019 0.0
O183 O 0.76307 0.14984 0.69204 0.0
O184 O 0.71905 0.10603 0.70407 0.0
O185 O 0.75126 0.1184 0.72114 0.0
H186 H 0.63245 0.03788 0.69431 0.0
H187 H 0.83782 0.12007 0.69762 0.0
O188 O 0.83393 0.07632 0.71512 0.0
H189 H 0.80956 0.21336 0.72426 0.0
H190 H 0.86303 0.12012 0.75726 0.0
H191 H 0.75653 0.08911 0.74317 0.0
H192 H 0.78718 0.16153 0.72971 0.0
H193 H 0.84998 0.11484 0.73328 0.0
O194 O 0.74384 0.11313 0.67816 0.0
H195 H 0.68321 0.05574 0.70342 0.0
H196 H 0.71759 0.07121 0.66401 0.0
H197 H 0.76848 0.09436 0.76726 0.0
H198 H 0.86099 0.17139 0.69189 0.0
H199 H 0.82207 0.10996 0.77444 0.0
H200 H 0.84678 0.21851 0.70522 0.0
O201 O 0.77335 0.05583 0.72221 0.0
H202 H 0.82806 0.05351 0.65847 0.0
H203 H 0.7387 0.01086 0.68406 0.0
H204 H 0.76904 0.97584 0.66924 0.0
H205 H 0.81409 0.99714 0.65632 0.0
H206 H 0.7972 0.08764 0.67347 0.0
H207 H 0.6671 0.05376 0.65448 0.0
H208 H 0.62415 0.03682 0.66968 0.0
O209 O 0.74123 0.04385 0.70508 0.0
C210 C 0.72484 0.11976 0.71515 0.0
C211 C 0.65101 0.04511 0.68759 0.0
C212 C 0.67045 0.05407 0.66523 0.0
N213 N 0.70339 0.06428 0.68425 0.0
C214 C 0.67983 0.05516 0.69268 0.0
C215 C 0.69896 0.06399 0.67069 0.0
C216 C 0.64636 0.04456 0.67376 0.0
C217 C 0.83176 0.14041 0.70355 0.0
N218 N 0.81121 0.1378 0.71401 0.0
C219 C 0.84486 0.16943 0.70022 0.0
C220 C 0.83683 0.19587 0.70769 0.0
C221 C 0.81593 0.193 0.71837 0.0
C222 C 0.80325 0.16362 0.72139 0.0
C223 C 0.83958 0.11337 0.75426 0.0
C224 C 0.77984 0.09612 0.74622 0.0
C225 C 0.83207 0.11028 0.7407 0.0
N226 N 0.80246 0.10192 0.73684 0.0
C227 C 0.7865 0.09895 0.75987 0.0
C228 C 0.81658 0.10768 0.76389 0.0
C229 C 0.75362 0.03782 0.71643 0.0
C230 C 0.80842 0.04397 0.66402 0.0
C231 C 0.75827 0.0203 0.67847 0.0
C232 C 0.77534 0.00037 0.67008 0.0
C233 C 0.8006 0.01234 0.66283 0.0
N234 N 0.76608 0.0513 0.67957 0.0
C235 C 0.79078 0.06322 0.67248 0.0
Co236 Co 0.10058 0.29175 0.96856 0.0
Co237 Co 0.07893 0.24494 0.94182 0.0
O238 O 0.09453 0.28404 0.94947 0.0
C239 C 0.05672 0.34082 0.95977 0.0
O240 O 0.04097 0.31838 0.95379 0.0
C241 C 0.14067 0.25444 0.92944 0.0
O242 O 0.15089 0.26074 0.94155 0.0
O243 O 0.10782 0.21957 0.95313 0.0
O244 O 0.11949 0.24931 0.97106 0.0
H245 H 0.03838 0.13427 0.94317 0.0
H246 H 0.12467 0.33754 0.94866 0.0
O247 O 0.08155 0.33437 0.96633 0.0
H248 H 0.21766 0.30168 0.97377 0.0
H249 H 0.129 0.35836 0.0084 0.0
H250 H 0.09163 0.25462 0.9934 0.0
H251 H 0.16498 0.28175 0.97945 0.0
H252 H 0.1218 0.3472 0.98433 0.0
O253 O 0.11195 0.24737 0.92759 0.0
H254 H 0.05764 0.18392 0.95286 0.0
H255 H 0.06805 0.22269 0.91389 0.0
H256 H 0.09874 0.26468 0.01756 0.0
H257 H 0.17689 0.35826 0.94271 0.0
H258 H 0.11756 0.31688 0.02519 0.0
H259 H 0.22386 0.34022 0.95528 0.0
O260 O 0.05845 0.27431 0.97291 0.0
H261 H 0.05047 0.33351 0.91088 0.0
H262 H 0.01051 0.24176 0.9357 0.0
H263 H 0.97389 0.27375 0.92229 0.0
H264 H 0.99384 0.31999 0.90976 0.0
H265 H 0.08623 0.30101 0.92449 0.0
H266 H 0.04914 0.17336 0.90377 0.0
H267 H 0.03404 0.12877 0.91845 0.0
O268 O 0.046 0.24182 0.95596 0.0
C269 C 0.12109 0.22372 0.96445 0.0
C270 C 0.04479 0.15357 0.93667 0.0
C271 C 0.05087 0.17549 0.91455 0.0
N272 N 0.06369 0.20624 0.93395 0.0
C273 C 0.05562 0.18176 0.9421 0.0
C274 C 0.06161 0.20334 0.92034 0.0
C275 C 0.04239 0.15049 0.9228 0.0
C276 C 0.14495 0.32984 0.95427 0.0
N277 N 0.14176 0.30859 0.96443 0.0
C278 C 0.17448 0.34154 0.95082 0.0
C279 C 0.20083 0.33137 0.95786 0.0
C280 C 0.19737 0.30973 0.96823 0.0
C281 C 0.16749 0.29849 0.97138 0.0
C282 C 0.12086 0.33551 0.0052 0.0
C283 C 0.10002 0.27732 0.99665 0.0
C284 C 0.11668 0.32908 0.99159 0.0
N285 N 0.10655 0.30021 0.98747 0.0
C286 C 0.10391 0.28291 0.01034 0.0
C287 C 0.11444 0.31222 0.01462 0.0
C288 C 0.04036 0.25435 0.96733 0.0
C289 C 0.04151 0.31337 0.91627 0.0
C290 C 0.01936 0.26186 0.93029 0.0
C291 C 0.99852 0.27986 0.92269 0.0
C292 C 0.00973 0.30579 0.91566 0.0
N293 N 0.0505 0.26942 0.93082 0.0
C294 C 0.06167 0.2948 0.92394 0.0
Co295 Co 0.29165 0.89847 0.03039 0.0
Co296 Co 0.24608 0.91971 0.05759 0.0
O297 O 0.28474 0.904 0.04957 0.0
C298 C 0.34114 0.94166 0.03926 0.0
O299 O 0.31916 0.95645 0.04596 0.0
C300 C 0.2552 0.85751 0.06966 0.0
O301 O 0.25999 0.8472 0.05743 0.0
O302 O 0.22005 0.89124 0.04634 0.0
O303 O 0.24909 0.87965 0.02818 0.0
H304 H 0.13559 0.96084 0.05734 0.0
H305 H 0.33824 0.87392 0.04982 0.0
O306 O 0.33434 0.91755 0.03229 0.0
H307 H 0.30138 0.78152 0.02457 0.0
H308 H 0.35639 0.87102 0.98986 0.0
H309 H 0.25336 0.90798 0.00591 0.0
H310 H 0.28115 0.83433 0.0193 0.0
H311 H 0.34634 0.87763 0.01405 0.0
O312 O 0.24907 0.88639 0.07167 0.0
H313 H 0.18469 0.94156 0.04715 0.0
H314 H 0.22516 0.93005 0.08574 0.0
H315 H 0.26229 0.90146 0.98164 0.0
H316 H 0.35926 0.82156 0.05535 0.0
H317 H 0.31413 0.88285 0.97348 0.0
H318 H 0.34074 0.7749 0.04271 0.0
O319 O 0.27409 0.94067 0.02636 0.0
H320 H 0.33606 0.94692 0.08799 0.0
H321 H 0.24362 0.98803 0.064 0.0
H322 H 0.2764 0.02415 0.0773 0.0
H323 H 0.32299 0.00362 0.08942 0.0
H324 H 0.30278 0.91167 0.07448 0.0
H325 H 0.17641 0.94899 0.09635 0.0
H326 H 0.13124 0.96466 0.08211 0.0
O327 O 0.24246 0.95301 0.04361 0.0
C328 C 0.22373 0.87813 0.03495 0.0
C329 C 0.15515 0.95419 0.06365 0.0
C330 C 0.17804 0.9475 0.08555 0.0
N331 N 0.20783 0.93497 0.06584 0.0
C332 C 0.18304 0.94335 0.05794 0.0
C333 C 0.20556 0.93674 0.07948 0.0
C334 C 0.15271 0.95629 0.07755 0.0
C335 C 0.3303 0.85376 0.04418 0.0
N336 N 0.30864 0.8572 0.0342 0.0
C337 C 0.34219 0.82416 0.0474 0.0
C338 C 0.33175 0.79798 0.04032 0.0
C339 C 0.30966 0.80168 0.03014 0.0
C340 C 0.29825 0.83163 0.02721 0.0
C341 C 0.33368 0.87907 0.9933 0.0
C342 C 0.2759 0.89968 0.00243 0.0
C343 C 0.32788 0.88292 0.00698 0.0
N344 N 0.29921 0.89293 0.01138 0.0
C345 C 0.28086 0.89612 0.98868 0.0
C346 C 0.30996 0.88571 0.98411 0.0
C347 C 0.25447 0.95876 0.03215 0.0
C348 C 0.31576 0.95612 0.08279 0.0
C349 C 0.26388 0.97893 0.06923 0.0
C350 C 0.28232 -0.00052 0.07677 0.0
C351 C 0.30844 0.98794 0.08357 0.0
N352 N 0.2712 0.94774 0.06852 0.0
C353 C 0.29675 0.93625 0.07518 0.0
Co354 Co 0.89857 0.7063 0.96879 0.0
Co355 Co 0.91914 0.75377 0.94209 0.0
O356 O 0.90466 0.71416 0.94971 0.0
C357 C 0.94378 0.65825 0.96014 0.0
O358 O 0.9593 0.681 0.95424 0.0
C359 C 0.85813 0.74145 0.92953 0.0
O360 O 0.8482 0.73348 0.9415 0.0
O361 O 0.88943 0.77822 0.95334 0.0
O362 O 0.87851 0.74824 0.97127 0.0
H363 H 0.95648 0.86554 0.94359 0.0
H364 H 0.87598 0.65963 0.94896 0.0
O365 O 0.91871 0.66421 0.96661 0.0
H366 H 0.78177 0.69306 0.97385 0.0
H367 H 0.87154 0.639 0.00861 0.0
H368 H 0.90632 0.74368 0.99365 0.0
H369 H 0.83378 0.71467 0.97953 0.0
H370 H 0.87868 0.65032 0.98455 0.0
O371 O 0.88629 0.75059 0.9278 0.0
H372 H 0.93862 0.81529 0.95321 0.0
H373 H 0.92956 0.77649 0.91419 0.0
H374 H 0.89925 0.73345 0.0178 0.0
H375 H 0.82447 0.63722 0.94302 0.0
H376 H 0.88174 0.68079 0.02541 0.0
H377 H 0.77688 0.65403 0.95548 0.0
O378 O 0.94015 0.72489 0.97321 0.0
H379 H 0.95036 0.66609 0.91117 0.0
H380 H 0.98747 0.75897 0.93603 0.0
H381 H 0.02509 0.72807 0.92265 0.0
H382 H 0.00657 0.68127 0.9101 0.0
H383 H 0.91359 0.69753 0.92475 0.0
H384 H 0.9471 0.82642 0.90414 0.0
H385 H 0.96081 0.87133 0.91889 0.0
O386 O 0.95187 0.75773 0.95628 0.0
C387 C 0.87626 0.77375 0.96465 0.0
C388 C 0.95068 0.84611 0.93706 0.0
C389 C 0.94537 0.82416 0.91492 0.0
N390 N 0.93334 0.79293 0.93427 0.0
C391 C 0.94065 0.81757 0.94245 0.0
C392 C 0.93541 0.79598 0.92066 0.0
C393 C 0.95307 0.84935 0.9232 0.0
C394 C 0.85544 0.66679 0.95452 0.0
N395 N 0.85791 0.68832 0.96462 0.0
C396 C 0.82631 0.65413 0.95108 0.0
C397 C 0.79961 0.66361 0.95805 0.0
C398 C 0.80233 0.68554 0.96835 0.0
C399 C 0.83184 0.69774 0.97151 0.0
C400 C 0.87912 0.66206 0.00542 0.0
C401 C 0.89849 0.72077 0.99688 0.0
C402 C 0.88325 0.66859 0.99181 0.0
N403 N 0.89265 0.69771 0.98771 0.0
C404 C 0.89462 0.71509 0.01057 0.0
C405 C 0.88483 0.68552 0.01484 0.0
C406 C 0.95774 0.74535 0.96765 0.0
C407 C 0.95869 0.68649 0.91656 0.0
C408 C 0.97925 0.73862 0.9306 0.0
C409 C 0.00065 0.72124 0.92303 0.0
C410 C 0.99024 0.695 0.91598 0.0
N411 N 0.94834 0.73015 0.9311 0.0
C412 C 0.93795 0.70445 0.92422 0.0
Co413 Co 0.70644 0.10038 0.0297 0.0
Co414 Co 0.75288 0.08074 0.0569 0.0
O415 O 0.7136 0.09516 0.04891 0.0
C416 C 0.65845 0.05548 0.03866 0.0
O417 O 0.68079 0.04164 0.04551 0.0
C418 C 0.7408 0.14256 0.06893 0.0
O419 O 0.73212 0.15197 0.05697 0.0
O420 O 0.77784 0.10964 0.04547 0.0
O421 O 0.74823 0.12091 0.02746 0.0
H422 H 0.86436 0.04241 0.05626 0.0
H423 H 0.65865 0.12309 0.04901 0.0
O424 O 0.66453 0.07966 0.0316 0.0
H425 H 0.69203 0.21683 0.02378 0.0
H426 H 0.64067 0.12511 0.98915 0.0
H427 H 0.74505 0.09224 0.00522 0.0
H428 H 0.7145 0.16489 0.0186 0.0
H429 H 0.65096 0.11901 0.01335 0.0
O430 O 0.74986 0.11442 0.07081 0.0
H431 H 0.81449 0.06015 0.04625 0.0
H432 H 0.77484 0.07163 0.085 0.0
H433 H 0.73587 0.0983 0.98095 0.0
H434 H 0.63539 0.17454 0.05444 0.0
H435 H 0.68336 0.11484 0.97277 0.0
H436 H 0.65216 0.22189 0.04181 0.0
O437 O 0.72553 0.05883 0.0257 0.0
H438 H 0.66421 0.05231 0.08778 0.0
H439 H 0.75721 0.01271 0.06371 0.0
H440 H 0.72558 0.97623 0.07734 0.0
H441 H 0.6787 0.99599 0.0895 0.0
H442 H 0.69639 0.08793 0.07396 0.0
H443 H 0.82437 0.05425 0.09543 0.0
H444 H 0.86952 0.03938 0.08102 0.0
O445 O 0.75688 0.04711 0.04311 0.0
C446 C 0.77362 0.12301 0.03418 0.0
C447 C 0.84482 0.04872 0.06264 0.0
C448 C 0.82238 0.0554 0.08463 0.0
N449 N 0.79172 0.06663 0.06503 0.0
C450 C 0.8165 0.05868 0.05703 0.0
C451 C 0.79442 0.06527 0.07867 0.0
C452 C 0.84771 0.04705 0.07654 0.0
C453 C 0.66581 0.14353 0.04337 0.0
N454 N 0.68779 0.14096 0.03346 0.0
C455 C 0.65267 0.17262 0.04653 0.0
C456 C 0.66213 0.19919 0.03946 0.0
C457 C 0.68451 0.19637 0.02935 0.0
C458 C 0.6972 0.16691 0.02648 0.0
C459 C 0.66367 0.11796 0.99259 0.0
C460 C 0.72221 0.09966 0.00174 0.0
C461 C 0.66962 0.11441 0.00627 0.0
N462 N 0.69865 0.10554 0.01068 0.0
C463 C 0.71712 0.10295 0.98799 0.0
C464 C 0.68764 0.1122 0.98341 0.0
C465 C 0.74522 0.04106 0.03162 0.0
C466 C 0.68464 0.04344 0.08256 0.0
C467 C 0.73684 0.02148 0.06896 0.0
C468 C 0.71904 0.00072 0.07668 0.0
C469 C 0.69276 0.01183 0.08351 0.0
N470 N 0.72873 0.05245 0.0681 0.0
C471 C 0.70303 0.06353 0.07477 0.0
Co472 Co 0.59766 0.70515 0.78046 0.0
Co473 Co 0.58063 0.75272 0.80761 0.0
O474 O 0.59413 0.71308 0.79968 0.0
C475 C 0.55365 0.65749 0.79051 0.0
O476 O 0.54008 0.6802 0.79724 0.0
C477 C 0.64321 0.74051 0.81884 0.0
O478 O 0.65176 0.73192 0.80676 0.0
O479 O 0.60886 0.77705 0.79565 0.0
O480 O 0.61793 0.74687 0.77757 0.0
H481 H 0.54322 0.86451 0.80684 0.0
H482 H 0.62214 0.65823 0.79978 0.0
O483 O 0.57722 0.66328 0.78305 0.0
H484 H 0.7135 0.69049 0.77275 0.0
H485 H 0.61884 0.6377 0.74005 0.0
H486 H 0.58735 0.74274 0.75585 0.0
H487 H 0.66111 0.71272 0.76826 0.0
H488 H 0.61485 0.64899 0.76425 0.0
O489 O 0.61527 0.74973 0.82109 0.0
H490 H 0.55979 0.81418 0.79689 0.0
H491 H 0.57382 0.77564 0.83569 0.0
H492 H 0.59128 0.73256 0.73156 0.0
H493 H 0.67405 0.63522 0.80455 0.0
H494 H 0.60713 0.6797 0.72353 0.0
H495 H 0.72021 0.65143 0.79101 0.0
O496 O 0.55577 0.72411 0.777 0.0
H497 H 0.55367 0.66525 0.83935 0.0
H498 H 0.51319 0.75792 0.81531 0.0
H499 H 0.47744 0.72703 0.8296 0.0
H500 H 0.49766 0.68033 0.84174 0.0
H501 H 0.58855 0.69667 0.82488 0.0
H502 H 0.55764 0.82564 0.84607 0.0
H503 H 0.54207 0.87047 0.8316 0.0
O504 O 0.54605 0.75661 0.79425 0.0
C505 C 0.62096 0.77241 0.78413 0.0
C506 C 0.54984 0.84512 0.81325 0.0
C507 C 0.55797 0.82331 0.83527 0.0
N508 N 0.56748 0.79194 0.8157 0.0
C509 C 0.55915 0.81654 0.80767 0.0
C510 C 0.56717 0.79509 0.82933 0.0
C511 C 0.54923 0.84845 0.82714 0.0
C512 C 0.64204 0.66514 0.79375 0.0
N513 N 0.63856 0.68667 0.78371 0.0
C514 C 0.67141 0.65214 0.79654 0.0
C515 C 0.6973 0.66129 0.78895 0.0
C516 C 0.69356 0.68322 0.77871 0.0
C517 C 0.66385 0.69578 0.77623 0.0
C518 C 0.61198 0.66084 0.74343 0.0
C519 C 0.59446 0.71975 0.75242 0.0
C520 C 0.60962 0.66735 0.75711 0.0
N521 N 0.60113 0.69657 0.76144 0.0
C522 C 0.59655 0.71409 0.73866 0.0
C523 C 0.60541 0.68442 0.73416 0.0
C524 C 0.53881 0.74439 0.783 0.0
C525 C 0.54461 0.68561 0.83415 0.0
C526 C 0.52215 0.73761 0.82056 0.0
C527 C 0.50181 0.72025 0.82865 0.0
C528 C 0.51317 0.69405 0.83546 0.0
N529 N 0.55296 0.72918 0.81932 0.0
C530 C 0.56429 0.70357 0.82599 0.0
Co531 Co 0.70527 0.39854 0.21928 0.0
Co532 Co 0.75277 0.41804 0.1924 0.0
O533 O 0.71323 0.40361 0.20012 0.0
C534 C 0.65764 0.44329 0.20989 0.0
O535 O 0.68033 0.45724 0.2033 0.0
C536 C 0.74123 0.35611 0.1804 0.0
O537 O 0.73232 0.34679 0.19234 0.0
O538 O 0.77734 0.38932 0.20405 0.0
O539 O 0.74705 0.37821 0.22189 0.0
H540 H 0.86413 0.45661 0.19376 0.0
H541 H 0.65839 0.37549 0.19964 0.0
O542 O 0.66338 0.41911 0.21699 0.0
H543 H 0.69103 0.2821 0.22528 0.0
H544 H 0.63783 0.37397 0.25934 0.0
H545 H 0.74279 0.40704 0.24404 0.0
H546 H 0.71309 0.33418 0.23054 0.0
H547 H 0.64915 0.3799 0.23522 0.0
O548 O 0.7503 0.38424 0.17851 0.0
H549 H 0.81393 0.43883 0.20345 0.0
H550 H 0.7758 0.42695 0.16445 0.0
H551 H 0.73258 0.40116 0.26825 0.0
H552 H 0.63554 0.3239 0.19412 0.0
H553 H 0.67977 0.38451 0.27604 0.0
H554 H 0.65195 0.27674 0.20696 0.0
O555 O 0.72409 0.44017 0.22335 0.0
H556 H 0.66524 0.44612 0.16088 0.0
H557 H 0.75726 0.48602 0.18553 0.0
H558 H 0.72609 0.52236 0.17163 0.0
H559 H 0.67971 0.50244 0.15919 0.0
H560 H 0.69694 0.41064 0.17496 0.0
H561 H 0.82568 0.44436 0.15433 0.0
H562 H 0.87024 0.45946 0.16903 0.0
O563 O 0.7562 0.45177 0.20618 0.0
C564 C 0.77272 0.37614 0.21536 0.0
C565 C 0.84485 0.45021 0.18725 0.0
C566 C 0.82329 0.44329 0.16512 0.0
N567 N 0.79189 0.43215 0.18452 0.0
C568 C 0.81634 0.44022 0.19268 0.0
C569 C 0.79512 0.4334 0.1709 0.0
C570 C 0.84827 0.45176 0.17337 0.0
C571 C 0.66538 0.35513 0.20537 0.0
N572 N 0.68692 0.35787 0.21544 0.0
C573 C 0.65248 0.32596 0.20216 0.0
C574 C 0.66173 0.2995 0.20935 0.0
C575 C 0.68368 0.30248 0.21963 0.0
C576 C 0.69613 0.33202 0.22254 0.0
C577 C 0.66096 0.38117 0.25607 0.0
C578 C 0.71982 0.39958 0.24736 0.0
C579 C 0.66748 0.38462 0.24243 0.0
N580 N 0.69668 0.39355 0.23824 0.0
C581 C 0.71415 0.39639 0.26107 0.0
C582 C 0.6845 0.38708 0.26544 0.0
C583 C 0.74405 0.45788 0.21757 0.0
C584 C 0.68546 0.45506 0.16622 0.0
C585 C 0.7371 0.47718 0.18015 0.0
C586 C 0.71957 0.49786 0.17228 0.0
C587 C 0.69356 0.48667 0.16529 0.0
N588 N 0.72901 0.44621 0.18099 0.0
C589 C 0.70357 0.43505 0.17416 0.0
Co590 Co 0.40083 0.29117 0.7804 0.0
Co591 Co 0.4183 0.24293 0.80721 0.0
O592 O 0.40441 0.28271 0.79956 0.0
C593 C 0.44309 0.33996 0.79074 0.0
O594 O 0.45759 0.31741 0.79721 0.0
C595 C 0.35609 0.25392 0.81898 0.0
O596 O 0.34659 0.26052 0.80678 0.0
O597 O 0.38925 0.21898 0.7955 0.0
O598 O 0.38218 0.24878 0.77715 0.0
H599 H 0.45423 0.13068 0.80588 0.0
H600 H 0.37413 0.33622 0.79997 0.0
O601 O 0.41957 0.33369 0.78333 0.0
H602 H 0.28463 0.3014 0.77241 0.0
H603 H 0.3777 0.35918 0.74036 0.0
H604 H 0.41312 0.25492 0.75559 0.0
H605 H 0.33797 0.28159 0.76789 0.0
H606 H 0.38169 0.34717 0.76449 0.0
O607 O 0.38455 0.2462 0.82108 0.0
H608 H 0.43745 0.18123 0.79619 0.0
H609 H 0.42705 0.21988 0.83516 0.0
H610 H 0.40922 0.26582 0.73136 0.0
H611 H 0.32121 0.35681 0.80477 0.0
H612 H 0.3914 0.31828 0.72361 0.0
H613 H 0.27599 0.33929 0.79096 0.0
O614 O 0.44349 0.27403 0.77702 0.0
H615 H 0.44778 0.32965 0.83893 0.0
H616 H 0.48623 0.23737 0.81402 0.0
H617 H 0.52306 0.26781 0.82797 0.0
H618 H 0.50388 0.31431 0.84055 0.0
H619 H 0.4118 0.29869 0.82478 0.0
H620 H 0.44347 0.16968 0.8453 0.0
H621 H 0.45733 0.12469 0.83061 0.0
O622 O 0.45207 0.23886 0.79343 0.0
C623 C 0.37823 0.22345 0.78377 0.0
C624 C 0.44839 0.15016 0.81239 0.0
C625 C 0.44231 0.17203 0.83451 0.0
N626 N 0.43164 0.20356 0.8151 0.0
C627 C 0.43899 0.17886 0.80695 0.0
C628 C 0.43299 0.20038 0.82872 0.0
C629 C 0.45009 0.1468 0.82626 0.0
C630 C 0.35462 0.32875 0.79383 0.0
N631 N 0.35916 0.30786 0.78362 0.0
C632 C 0.32469 0.34038 0.79663 0.0
C633 C 0.29932 0.3305 0.78889 0.0
C634 C 0.30415 0.30923 0.77849 0.0
C635 C 0.3344 0.29805 0.77599 0.0
C636 C 0.38543 0.33621 0.74361 0.0
C637 C 0.40515 0.27773 0.75228 0.0
C638 C 0.38779 0.3293 0.75725 0.0
N639 N 0.39738 0.3003 0.76143 0.0
C640 C 0.40308 0.2838 0.73856 0.0
C641 C 0.39311 0.31325 0.73422 0.0
C642 C 0.45989 0.25264 0.78258 0.0
C643 C 0.4564 0.30937 0.83353 0.0
C644 C 0.47771 0.2576 0.81945 0.0
C645 C 0.49867 0.27471 0.82735 0.0
C646 C 0.48788 0.30078 0.83442 0.0
N647 N 0.44686 0.26617 0.81864 0.0
C648 C 0.4361 0.29167 0.82555 0.0
Co649 Co 0.29198 0.60076 0.21961 0.0
Co650 Co 0.2464 0.58041 0.1923 0.0
O651 O 0.28496 0.59606 0.2004 0.0
C652 C 0.3413 0.55806 0.21025 0.0
O653 O 0.31906 0.54342 0.20366 0.0
C654 C 0.25499 0.64314 0.1806 0.0
O655 O 0.25983 0.65318 0.19286 0.0
O656 O 0.22033 0.6083 0.20378 0.0
O657 O 0.24935 0.61939 0.22201 0.0
H658 H 0.13615 0.53864 0.19237 0.0
H659 H 0.33835 0.6263 0.20031 0.0
O660 O 0.33472 0.58187 0.21745 0.0
H661 H 0.30146 0.71745 0.22636 0.0
H662 H 0.35705 0.62657 0.26023 0.0
H663 H 0.25389 0.59023 0.24408 0.0
H664 H 0.28139 0.66436 0.23123 0.0
H665 H 0.3468 0.62092 0.23601 0.0
O666 O 0.24909 0.61427 0.17846 0.0
H667 H 0.18519 0.55783 0.20264 0.0
H668 H 0.22539 0.57103 0.1641 0.0
H669 H 0.26303 0.59578 0.26838 0.0
H670 H 0.35922 0.67894 0.19518 0.0
H671 H 0.31492 0.61407 0.2766 0.0
H672 H 0.34068 0.72498 0.20823 0.0
O673 O 0.27457 0.55833 0.22337 0.0
H674 H 0.3365 0.55496 0.16169 0.0
H675 H 0.24429 0.51236 0.18537 0.0
H676 H 0.27728 0.47697 0.1718 0.0
H677 H 0.32377 0.49825 0.15984 0.0
H678 H 0.303 0.58947 0.17544 0.0
H679 H 0.1767 0.55221 0.15341 0.0
H680 H 0.1317 0.53574 0.16758 0.0
O681 O 0.24306 0.54653 0.20602 0.0
C682 C 0.22398 0.62106 0.21525 0.0
C683 C 0.15564 0.54564 0.18609 0.0
C684 C 0.17838 0.5533 0.16422 0.0
N685 N 0.2082 0.56526 0.18398 0.0
C686 C 0.18349 0.55643 0.19185 0.0
C687 C 0.20586 0.56399 0.17033 0.0
C688 C 0.15314 0.54405 0.17218 0.0
C689 C 0.33041 0.64617 0.20612 0.0
N690 N 0.30882 0.64224 0.2161 0.0
C691 C 0.34221 0.67594 0.20313 0.0
C692 C 0.33176 0.70177 0.21045 0.0
C693 C 0.30974 0.69757 0.22062 0.0
C694 C 0.29843 0.66746 0.22331 0.0
C695 C 0.33432 0.61864 0.25678 0.0
C696 C 0.27646 0.5984 0.24758 0.0
C697 C 0.3284 0.61535 0.24308 0.0
N698 N 0.2997 0.60551 0.23865 0.0
C699 C 0.28153 0.60141 0.26135 0.0
C700 C 0.31067 0.61163 0.26595 0.0
C701 C 0.25508 0.54037 0.21743 0.0
C702 C 0.31625 0.54543 0.16681 0.0
C703 C 0.26449 0.52179 0.1802 0.0
C704 C 0.28305 0.50165 0.17252 0.0
C705 C 0.30912 0.5136 0.1658 0.0
N706 N 0.27163 0.55298 0.18114 0.0
C707 C 0.29712 0.56489 0.17457 0.0
Co708 Co 0.59856 0.79279 0.46908 0.0
Co709 Co 0.58012 0.74403 0.4425 0.0
O710 O 0.59376 0.78415 0.44997 0.0
C711 C 0.55437 0.84054 0.45925 0.0
O712 O 0.54007 0.81775 0.45286 0.0
C713 C 0.64133 0.7567 0.43013 0.0
O714 O 0.65083 0.76566 0.44203 0.0
O715 O 0.60997 0.72062 0.45403 0.0
O716 O 0.61866 0.75095 0.47208 0.0
H717 H 0.54553 0.63142 0.44451 0.0
H718 H 0.62235 0.83878 0.44922 0.0
O719 O 0.57841 0.83475 0.46642 0.0
H720 H 0.71496 0.80655 0.47545 0.0
H721 H 0.62284 0.86153 0.50877 0.0
H722 H 0.58929 0.75626 0.49406 0.0
H723 H 0.66265 0.78499 0.48065 0.0
H724 H 0.61728 0.84937 0.48471 0.0
O725 O 0.6133 0.7472 0.42837 0.0
H726 H 0.56213 0.68233 0.45389 0.0
H727 H 0.57047 0.72033 0.41471 0.0
H728 H 0.5948 0.76731 0.51822 0.0
H729 H 0.67418 0.86112 0.44375 0.0
H730 H 0.61168 0.82027 0.52571 0.0
H731 H 0.72096 0.84491 0.45688 0.0
O732 O 0.55668 0.77445 0.47308 0.0
H733 H 0.54832 0.82991 0.41079 0.0
H734 H 0.51199 0.73757 0.43624 0.0
H735 H 0.47423 0.76737 0.42249 0.0
H736 H 0.49234 0.8139 0.40964 0.0
H737 H 0.58524 0.79956 0.42474 0.0
H738 H 0.55419 0.66975 0.40488 0.0
H739 H 0.54146 0.6249 0.41983 0.0
O740 O 0.54703 0.73984 0.45656 0.0
C741 C 0.62214 0.72548 0.46551 0.0
C742 C 0.55087 0.65082 0.43789 0.0
C743 C 0.55577 0.67233 0.41565 0.0
N744 N 0.56689 0.70435 0.43486 0.0
C745 C 0.56017 0.67974 0.44315 0.0
C746 C 0.56501 0.70089 0.42127 0.0
C747 C 0.54863 0.64717 0.42404 0.0
C748 C 0.64253 0.83188 0.45507 0.0
N749 N 0.63945 0.81072 0.46528 0.0
C750 C 0.67185 0.8445 0.45189 0.0
C751 C 0.6981 0.83535 0.45925 0.0
C752 C 0.69475 0.8138 0.46966 0.0
C753 C 0.66508 0.80163 0.47254 0.0
C754 C 0.61553 0.83834 0.50563 0.0
C755 C 0.59684 0.77929 0.49724 0.0
C756 C 0.61228 0.83134 0.49203 0.0
N757 N 0.60322 0.80206 0.488 0.0
C758 C 0.59983 0.78544 0.51093 0.0
C759 C 0.60927 0.81518 0.51513 0.0
C760 C 0.54001 0.75314 0.46762 0.0
C761 C 0.54016 0.80961 0.4163 0.0
C762 C 0.52005 0.7578 0.43068 0.0
C763 C 0.49857 0.77455 0.4229 0.0
C764 C 0.50875 0.80065 0.41568 0.0
N765 N 0.55083 0.76673 0.43123 0.0
C766 C 0.561 0.79226 0.42417 0.0
Co767 Co 0.7919 0.39977 0.53168 0.0
Co768 Co 0.74408 0.42092 0.55823 0.0
O769 O 0.78343 0.40527 0.55076 0.0
C770 C 0.84028 0.44404 0.54096 0.0
O771 O 0.81771 0.4592 0.54713 0.0
C772 C 0.7528 0.35823 0.56994 0.0
O773 O 0.76191 0.34901 0.55802 0.0
O774 O 0.71881 0.39365 0.54618 0.0
O775 O 0.74992 0.38005 0.5289 0.0
H776 H 0.63464 0.46456 0.55624 0.0
H777 H 0.83736 0.37621 0.55181 0.0
O778 O 0.83411 0.41949 0.53417 0.0
H779 H 0.80492 0.28309 0.52596 0.0
H780 H 0.86018 0.37353 0.49206 0.0
H781 H 0.75528 0.40842 0.50669 0.0
H782 H 0.78398 0.33545 0.52038 0.0
H783 H 0.84823 0.38 0.5161 0.0
O784 O 0.7446 0.38659 0.57193 0.0
H785 H 0.68447 0.44499 0.54684 0.0
H786 H 0.72009 0.42959 0.58604 0.0
H787 H 0.76613 0.40201 0.48255 0.0
H788 H 0.8591 0.32435 0.55766 0.0
H789 H 0.81891 0.38445 0.47511 0.0
H790 H 0.84278 0.27731 0.54472 0.0
O791 O 0.77385 0.44177 0.52735 0.0
H792 H 0.83121 0.44452 0.59062 0.0
H793 H 0.74195 0.48877 0.56548 0.0
H794 H 0.77383 0.52341 0.57986 0.0
H795 H 0.81881 0.50129 0.59256 0.0
H796 H 0.79884 0.41077 0.57604 0.0
H797 H 0.67055 0.44876 0.59588 0.0
H798 H 0.62745 0.46652 0.58093 0.0
O799 O 0.7427 0.45505 0.54463 0.0
C800 C 0.72371 0.37961 0.53508 0.0
C801 C 0.65328 0.45697 0.56286 0.0
C802 C 0.67342 0.44806 0.5851 0.0
N803 N 0.70522 0.43636 0.56588 0.0
C804 C 0.68157 0.44595 0.55759 0.0
C805 C 0.70139 0.43716 0.57948 0.0
C806 C 0.64925 0.45803 0.57671 0.0
C807 C 0.83038 0.3559 0.54605 0.0
N808 N 0.80947 0.35886 0.53575 0.0
C809 C 0.84268 0.32658 0.54944 0.0
C810 C 0.83347 0.30019 0.54219 0.0
C811 C 0.8122 0.30341 0.53167 0.0
C812 C 0.80035 0.3331 0.52858 0.0
C813 C 0.83707 0.38113 0.49518 0.0
C814 C 0.77824 0.40057 0.50352 0.0
C815 C 0.83019 0.3849 0.50877 0.0
N816 N 0.80101 0.39433 0.51278 0.0
C817 C 0.78427 0.39708 0.48984 0.0
C818 C 0.8139 0.38725 0.48567 0.0
C819 C 0.75479 0.46044 0.53317 0.0
C820 C 0.81161 0.45441 0.58517 0.0
C821 C 0.7615 0.47898 0.57097 0.0
C822 C 0.77944 0.4987 0.57911 0.0
C823 C 0.80467 0.48627 0.58624 0.0
N824 N 0.76843 0.44775 0.56999 0.0
C825 C 0.79312 0.43539 0.57694 0.0
Co826 Co 0.39992 0.2059 0.4696 0.0
Co827 Co 0.41599 0.25409 0.44262 0.0
O828 O 0.40368 0.21389 0.4504 0.0
C829 C 0.44387 0.15811 0.45967 0.0
O830 O 0.45796 0.1809 0.45318 0.0
C831 C 0.35537 0.2388 0.43025 0.0
O832 O 0.34587 0.23054 0.44225 0.0
O833 O 0.38512 0.27678 0.45388 0.0
O834 O 0.37986 0.24784 0.47259 0.0
H835 H 0.4462 0.36802 0.44371 0.0
H836 H 0.37515 0.15907 0.45033 0.0
O837 O 0.42004 0.16391 0.46697 0.0
H838 H 0.28396 0.1921 0.47728 0.0
H839 H 0.37808 0.13839 0.50994 0.0
H840 H 0.41085 0.24314 0.49426 0.0
H841 H 0.33648 0.21404 0.48177 0.0
H842 H 0.38212 0.14982 0.48575 0.0
O843 O 0.38315 0.24898 0.42845 0.0
H844 H 0.43145 0.31694 0.4535 0.0
H845 H 0.42508 0.27685 0.41464 0.0
H846 H 0.40688 0.23282 0.51854 0.0
H847 H 0.3231 0.13632 0.44559 0.0
H848 H 0.39038 0.18011 0.52651 0.0
H849 H 0.27703 0.15293 0.45909 0.0
O850 O 0.4419 0.22448 0.47301 0.0
H851 H 0.4513 0.1681 0.41165 0.0
H852 H 0.48391 0.26282 0.4364 0.0
H853 H 0.52289 0.23387 0.42294 0.0
H854 H 0.50664 0.18615 0.41044 0.0
H855 H 0.41314 0.19763 0.42531 0.0
H856 H 0.43952 0.32756 0.40441 0.0
H857 H 0.45032 0.37355 0.41899 0.0
O858 O 0.44884 0.26023 0.45669 0.0
C859 C 0.37449 0.27248 0.46568 0.0
C860 C 0.44169 0.34812 0.43726 0.0
C861 C 0.4379 0.32542 0.41519 0.0
N862 N 0.4278 0.29388 0.43466 0.0
C863 C 0.43345 0.31912 0.44275 0.0
C864 C 0.42971 0.29678 0.42104 0.0
C865 C 0.44396 0.35121 0.42338 0.0
C866 C 0.35528 0.16614 0.45635 0.0
N867 N 0.35888 0.18774 0.46635 0.0
C868 C 0.32584 0.15329 0.45357 0.0
C869 C 0.29999 0.16266 0.46114 0.0
C870 C 0.30386 0.18467 0.47134 0.0
C871 C 0.33364 0.19706 0.47381 0.0
C872 C 0.38521 0.16147 0.50659 0.0
C873 C 0.40344 0.22022 0.49766 0.0
C874 C 0.38758 0.16806 0.49291 0.0
N875 N 0.39641 0.19721 0.48862 0.0
C876 C 0.40133 0.21448 0.51141 0.0
C877 C 0.39211 0.18489 0.51588 0.0
C878 C 0.45721 0.24676 0.46754 0.0
C879 C 0.45863 0.18892 0.41701 0.0
C880 C 0.47667 0.24205 0.431 0.0
C881 C 0.49883 0.22579 0.42338 0.0
C882 C 0.4897 0.19903 0.41636 0.0
N883 N 0.44624 0.232 0.43158 0.0
C884 C 0.4371 0.20581 0.42471 0.0
Co885 Co 0.20669 0.60008 0.53171 0.0
Co886 Co 0.25479 0.57661 0.55781 0.0
O887 O 0.21545 0.59308 0.55067 0.0
C888 C 0.15824 0.55533 0.54058 0.0
O889 O 0.18078 0.53955 0.54648 0.0
C890 C 0.247 0.63884 0.57002 0.0
O891 O 0.23778 0.64857 0.55819 0.0
O892 O 0.28018 0.60413 0.54587 0.0
O893 O 0.24859 0.62004 0.52912 0.0
H894 H 0.36355 0.53159 0.55491 0.0
H895 H 0.16169 0.62208 0.55235 0.0
O896 O 0.16451 0.58024 0.53405 0.0
H897 H 0.19348 0.71713 0.52765 0.0
H898 H 0.13785 0.62935 0.49267 0.0
H899 H 0.24297 0.59344 0.50652 0.0
H900 H 0.21427 0.66522 0.52125 0.0
H901 H 0.15013 0.62102 0.51657 0.0
O902 O 0.25505 0.61035 0.57179 0.0
H903 H 0.31372 0.55219 0.54592 0.0
H904 H 0.27945 0.56647 0.58543 0.0
H905 H 0.23178 0.60171 0.48252 0.0
H906 H 0.14009 0.67347 0.55901 0.0
H907 H 0.17888 0.61979 0.47546 0.0
H908 H 0.1561 0.72147 0.54666 0.0
O909 O 0.22469 0.55845 0.52675 0.0
H910 H 0.16796 0.55275 0.59032 0.0
H911 H 0.25642 0.50851 0.56467 0.0
H912 H 0.22441 0.47368 0.57892 0.0
H913 H 0.17982 0.4958 0.59188 0.0
H914 H 0.20044 0.58667 0.57586 0.0
H915 H 0.32901 0.54626 0.59485 0.0
H916 H 0.37144 0.52854 0.57955 0.0
O917 O 0.25526 0.54303 0.54392 0.0
C918 C 0.27503 0.61947 0.53511 0.0
C919 C 0.34521 0.53915 0.56169 0.0
C920 C 0.32584 0.54743 0.5841 0.0
N921 N 0.29364 0.56031 0.56514 0.0
C922 C 0.31691 0.55075 0.55665 0.0
C923 C 0.29786 0.55892 0.57871 0.0
C924 C 0.34963 0.53748 0.57551 0.0
C925 C 0.16852 0.64282 0.54684 0.0
N926 N 0.18919 0.64065 0.53641 0.0
C927 C 0.15631 0.67187 0.55069 0.0
C928 C 0.16534 0.6988 0.54377 0.0
C929 C 0.18634 0.69639 0.53311 0.0
C930 C 0.19811 0.66695 0.52956 0.0
C931 C 0.161 0.62153 0.49562 0.0
C932 C 0.21996 0.60151 0.50353 0.0
C933 C 0.16807 0.6167 0.50913 0.0
N934 N 0.19731 0.60699 0.51293 0.0
C935 C 0.21373 0.60606 0.48992 0.0
C936 C 0.18404 0.61617 0.48597 0.0
C937 C 0.24321 0.53888 0.53235 0.0
C938 C 0.18737 0.54285 0.58475 0.0
C939 C 0.23702 0.51828 0.57025 0.0
C940 C 0.21901 0.49846 0.57833 0.0
C941 C 0.19401 0.51089 0.5856 0.0
N942 N 0.23037 0.5496 0.56948 0.0
C943 C 0.20592 0.56196 0.57659 0.0
H944 H 0.13129 0.33271 0.29433 0.0
H945 H 0.15745 0.37703 0.28354 0.0
H946 H 0.18019 0.31881 0.24957 0.0
H947 H 0.15433 0.27418 0.26026 0.0
H948 H 0.23041 0.35895 0.25881 0.0
H949 H 0.11791 0.42235 0.25076 0.0
H950 H 0.12542 0.41024 0.26772 0.0
H951 H 0.1195 0.38116 0.25494 0.0
C952 C 0.14204 0.32917 0.28461 0.0
C953 C 0.14046 0.29987 0.27813 0.0
C954 C 0.15688 0.35459 0.27845 0.0
C955 C 0.17033 0.35121 0.26571 0.0
C956 C 0.16983 0.32183 0.25941 0.0
H957 H 0.21412 0.49579 0.20827 0.0
H958 H 0.19571 0.44907 0.22 0.0
C959 C 0.15496 0.29638 0.26553 0.0
C960 C 0.18388 0.37861 0.25871 0.0
H961 H 0.16441 0.44911 0.24481 0.0
C962 C 0.21607 0.37872 0.25575 0.0
C963 C 0.16492 0.40408 0.25461 0.0
C964 C 0.12996 0.40451 0.25704 0.0
C965 C 0.22991 0.40392 0.24888 0.0
C966 C 0.21103 0.42965 0.245 0.0
C967 C 0.17881 0.42938 0.24788 0.0
C968 C 0.22397 0.45692 0.23769 0.0
C969 C 0.26443 0.40259 0.24558 0.0
C970 C 0.24602 0.47676 0.24377 0.0
C971 C 0.25666 0.50357 0.23709 0.0
C972 C 0.24528 0.51106 0.22424 0.0
C973 C 0.22345 0.49081 0.21814 0.0
C974 C 0.21285 0.46407 0.22482 0.0
H975 H 0.27395 0.37842 0.24654 0.0
H976 H 0.26884 0.41113 0.23524 0.0
H977 H 0.27748 0.41798 0.25261 0.0
H978 H 0.25446 0.47191 0.25379 0.0
H979 H 0.27336 0.51869 0.24213 0.0
H980 H 0.49586 0.78673 0.79246 0.0
H981 H 0.44885 0.80595 0.78119 0.0
H982 H 0.46827 0.74597 0.74739 0.0
H983 H 0.51528 0.72623 0.7586 0.0
H984 H 0.44754 0.83684 0.75653 0.0
H985 H 0.37517 0.72845 0.7555 0.0
H986 H 0.40879 0.73291 0.76635 0.0
H987 H 0.41415 0.72402 0.7489 0.0
C988 C 0.49006 0.77731 0.78268 0.0
C989 C 0.50941 0.75486 0.77645 0.0
C990 C 0.46316 0.78837 0.77626 0.0
C991 C 0.45493 0.77712 0.76354 0.0
C992 C 0.47392 0.75451 0.75732 0.0
H993 H 0.33283 0.8694 0.7064 0.0
H994 H 0.3765 0.84385 0.71787 0.0
C995 C 0.50087 0.74339 0.76373 0.0
C996 C 0.42748 0.79046 0.75647 0.0
H997 H 0.35637 0.77187 0.74286 0.0
C998 C 0.42756 0.82267 0.75356 0.0
C999 C 0.4014 0.77191 0.75274 0.0
C1000 C 0.39959 0.73745 0.75612 0.0
C1001 C 0.40236 0.83682 0.74686 0.0
C1002 C 0.37665 0.81813 0.74281 0.0
C1003 C 0.37631 0.786 0.74588 0.0
C1004 C 0.34969 0.83179 0.73554 0.0
C1005 C 0.40324 0.87173 0.74433 0.0
C1006 C 0.31996 0.8326 0.74154 0.0
C1007 C 0.29485 0.84713 0.73502 0.0
C1008 C 0.29904 0.86094 0.72232 0.0
C1009 C 0.32873 0.85918 0.71618 0.0
C1010 C 0.35379 0.84469 0.72273 0.0
H1011 H 0.42094 0.88368 0.75072 0.0
H1012 H 0.4095 0.87605 0.73369 0.0
H1013 H 0.37992 0.88249 0.74622 0.0
H1014 H 0.31638 0.82264 0.75141 0.0
H1015 H 0.27232 0.84793 0.74003 0.0
H1016 H 0.78682 0.50143 0.20898 0.0
H1017 H 0.80563 0.54756 0.22103 0.0
H1018 H 0.74374 0.52622 0.25397 0.0
H1019 H 0.72447 0.47998 0.242 0.0
H1020 H 0.74493 0.59131 0.24588 0.0
H1021 H 0.86377 0.5415 0.25433 0.0
H1022 H 0.85086 0.54098 0.23719 0.0
H1023 H 0.83063 0.51769 0.24947 0.0
C1024 C 0.77703 0.50651 0.21876 0.0
C1025 C 0.75425 0.48681 0.22455 0.0
C1026 C 0.78792 0.53285 0.22564 0.0
C1027 C 0.77636 0.53995 0.23844 0.0
C1028 C 0.75301 0.52097 0.24411 0.0
H1029 H 0.8664 0.66669 0.29458 0.0
H1030 H 0.83974 0.62223 0.28418 0.0
C1031 C 0.74209 0.49455 0.23725 0.0
C1032 C 0.78915 0.56688 0.246 0.0
H1033 H 0.8566 0.59515 0.25987 0.0
C1034 C 0.76929 0.59218 0.249 0.0
C1035 C 0.82081 0.56762 0.25019 0.0
C1036 C 0.84276 0.5404 0.24776 0.0
C1037 C 0.78055 0.61867 0.25585 0.0
C1038 C 0.81252 0.61986 0.25962 0.0
C1039 C 0.83214 0.59422 0.25688 0.0
C1040 C 0.82636 0.64758 0.26629 0.0
C1041 C 0.75815 0.64501 0.25908 0.0
C1042 C 0.82757 0.67658 0.25966 0.0
C1043 C 0.84279 0.70211 0.26557 0.0
C1044 C 0.85726 0.69902 0.27818 0.0
C1045 C 0.85552 0.66998 0.28487 0.0
C1046 C 0.8403 0.64451 0.27895 0.0
H1047 H 0.73332 0.63711 0.25869 0.0
H1048 H 0.76297 0.65485 0.26918 0.0
H1049 H 0.76117 0.66409 0.25162 0.0
H1050 H 0.81748 0.67925 0.24977 0.0
H1051 H 0.84375 0.72405 0.26009 0.0
H1052 H 0.49142 0.19744 0.78575 0.0
H1053 H 0.53886 0.18037 0.77426 0.0
H1054 H 0.54338 0.26896 0.75338 0.0
H1055 H 0.4949 0.28567 0.76442 0.0
H1056 H 0.554 0.22378 0.73667 0.0
H1057 H 0.62784 0.2022 0.78113 0.0
H1058 H 0.59237 0.17978 0.78216 0.0
H1059 H 0.59057 0.22207 0.78225 0.0
C1060 C 0.50261 0.21342 0.7788 0.0
C1061 C 0.48944 0.24295 0.77603 0.0
C1062 C 0.52994 0.20371 0.77231 0.0
C1063 C 0.5452 0.22365 0.76319 0.0
C1064 C 0.53216 0.25324 0.76044 0.0
H1065 H 0.73002 0.16685 0.73367 0.0
H1066 H 0.68755 0.19584 0.74451 0.0
C1067 C 0.50445 0.26275 0.76675 0.0
C1068 C 0.57373 0.21286 0.75601 0.0
H1069 H 0.64442 0.17695 0.76071 0.0
C1070 C 0.57397 0.21395 0.74194 0.0
C1071 C 0.60016 0.20066 0.76285 0.0
C1072 C 0.60288 0.20145 0.77793 0.0
C1073 C 0.59928 0.20201 0.73453 0.0
C1074 C 0.62451 0.18747 0.74136 0.0
C1075 C 0.62487 0.18758 0.75543 0.0
C1076 C 0.6503 0.17119 0.73416 0.0
C1077 C 0.59871 0.20543 0.71947 0.0
C1078 C 0.64357 0.14758 0.72477 0.0
C1079 C 0.66781 0.13141 0.71837 0.0
C1080 C 0.6993 0.13791 0.72151 0.0
C1081 C 0.70602 0.16128 0.73103 0.0
C1082 C 0.68176 0.17787 0.73724 0.0
H1083 H 0.58469 0.22619 0.71639 0.0
H1084 H 0.62274 0.20786 0.7153 0.0
H1085 H 0.58752 0.18439 0.715 0.0
H1086 H 0.61954 0.14118 0.72256 0.0
H1087 H 0.66182 0.11323 0.71123 0.0
H1088 H 0.21233 0.00298 0.04069 0.0
H1089 H 0.19297 0.04842 0.02832 0.0
H1090 H 0.25349 0.02528 0.99514 0.0
H1091 H 0.27329 0.97973 0.00743 0.0
H1092 H 0.25246 0.09074 0.00244 0.0
H1093 H 0.13333 0.04033 0.9956 0.0
H1094 H 0.147 0.0409 0.01264 0.0
H1095 H 0.16672 0.01687 0.00047 0.0
C1096 C 0.22173 0.00754 0.03079 0.0
C1097 C 0.24425 0.9875 0.02503 0.0
C1098 C 0.21051 0.03348 0.02372 0.0
C1099 C 0.22148 0.03984 0.01076 0.0
C1100 C 0.24465 0.02059 0.00512 0.0
H1101 H 0.12851 0.1644 0.95432 0.0
H1102 H 0.15534 0.12005 0.96478 0.0
C1103 C 0.25589 0.99457 0.01217 0.0
C1104 C 0.20828 0.06629 0.00301 0.0
H1105 H 0.14008 0.09373 0.98948 0.0
C1106 C 0.22795 0.0914 0.99954 0.0
C1107 C 0.17641 0.06675 0.99909 0.0
C1108 C 0.15463 0.03967 0.00201 0.0
C1109 C 0.21629 0.11749 0.99253 0.0
C1110 C 0.18413 0.11848 0.98906 0.0
C1111 C 0.1647 0.09297 0.99224 0.0
C1112 C 0.16988 0.14597 0.98236 0.0
C1113 C 0.2385 0.14365 0.98881 0.0
C1114 C 0.16918 0.1752 0.9888 0.0
C1115 C 0.15387 0.20063 0.98287 0.0
C1116 C 0.1388 0.19723 0.97039 0.0
C1117 C 0.1399 0.16793 0.9639 0.0
C1118 C 0.1552 0.14252 0.96986 0.0
H1119 H 0.26333 0.13571 0.98896 0.0
H1120 H 0.23303 0.15308 0.9787 0.0
H1121 H 0.23603 0.16304 0.99616 0.0
H1122 H 0.17982 0.17816 0.99857 0.0
H1123 H 0.1534 0.22277 0.98819 0.0
H1124 H 0.22178 0.84653 0.01106 0.0
H1125 H 0.17655 0.82109 0.00072 0.0
H1126 H 0.11981 0.84455 0.03507 0.0
H1127 H 0.16479 0.87043 0.0455 0.0
H1128 H 0.13734 0.77142 0.00995 0.0
H1129 H 0.07246 0.88348 0.00297 0.0
H1130 H 0.11375 0.88222 0.00697 0.0
H1131 H 0.08502 0.8755 0.01982 0.0
C1132 C 0.19977 0.8462 0.01649 0.0
C1133 C 0.19691 0.86079 0.02909 0.0
C1134 C 0.17397 0.83157 0.01056 0.0
C1135 C 0.14482 0.83135 0.01706 0.0
C1136 C 0.14205 0.84494 0.02981 0.0
H1137 H 0.97862 0.72652 0.99241 0.0
H1138 H 0.02441 0.74595 0.00463 0.0
C1139 C 0.16783 0.8596 0.03577 0.0
C1140 C 0.11716 0.81773 0.01027 0.0
H1141 H 0.04618 0.83693 0.99675 0.0
C1142 C 0.11733 0.78565 0.00709 0.0
C1143 C 0.09135 0.83654 0.00643 0.0
C1144 C 0.09058 0.8714 0.0091 0.0
C1145 C 0.0922 0.77182 0.00016 0.0
C1146 C 0.06622 0.79057 0.99649 0.0
C1147 C 0.0661 0.82263 -0.00033 0.0
C1148 C 0.03927 0.77771 0.98894 0.0
C1149 C 0.09397 0.73749 0.99654 0.0
C1150 C 0.03233 0.7894 0.97615 0.0
C1151 C 0.00617 0.77851 0.96916 0.0
C1152 C 0.98629 0.75576 0.97486 0.0
C1153 C 0.99348 0.74391 0.98767 0.0
C1154 C 0.01972 0.75487 0.99466 0.0
H1155 H 0.11823 0.72817 0.99746 0.0
H1156 H 0.07863 0.7239 0.0034 0.0
H1157 H 0.08561 0.73354 0.98614 0.0
H1158 H 0.04713 0.80714 0.9716 0.0
H1159 H 0.0014 0.78824 0.95934 0.0
H1160 H 0.86787 0.83297 0.95454 0.0
H1161 H 0.84218 0.87742 0.96542 0.0
H1162 H 0.81907 0.81908 0.99932 0.0
H1163 H 0.84442 0.7743 0.98853 0.0
H1164 H 0.76936 0.85969 0.99042 0.0
H1165 H 0.88245 0.92224 0.99805 0.0
H1166 H 0.87454 0.91047 0.98109 0.0
H1167 H 0.88047 0.88113 0.99376 0.0
C1168 C 0.85712 0.82942 0.96426 0.0
C1169 C 0.85847 0.80005 0.9707 0.0
C1170 C 0.84256 0.85492 0.97048 0.0
C1171 C 0.8292 0.85157 0.98324 0.0
C1172 C 0.8294 0.8221 0.98948 0.0
H1173 H 0.78707 0.9971 0.04062 0.0
H1174 H 0.80552 0.95036 0.0289 0.0
C1175 C 0.84396 0.79656 0.98329 0.0
C1176 C 0.81602 0.87905 0.9903 0.0
H1177 H 0.83624 0.94953 0.00403 0.0
C1178 C 0.7839 0.87938 0.9934 0.0
C1179 C 0.83523 0.90442 0.99431 0.0
C1180 C 0.87015 0.90459 0.99176 0.0
C1181 C 0.77038 0.90472 0.0003 0.0
C1182 C 0.78949 0.93038 0.00405 0.0
C1183 C 0.82165 0.92987 0.00106 0.0
C1184 C 0.77683 0.95786 0.01131 0.0
C1185 C 0.73593 0.90359 0.00375 0.0
C1186 C 0.75461 0.97757 0.00526 0.0
C1187 C 0.74395 0.00437 0.01192 0.0
C1188 C 0.75547 0.01201 0.02474 0.0
C1189 C 0.77761 0.99199 0.03078 0.0
C1190 C 0.78823 0.96524 0.0241 0.0
H1191 H 0.72632 0.87942 0.00296 0.0
H1192 H 0.73178 0.91244 0.01407 0.0
H1193 H 0.72276 0.91881 0.99669 0.0
H1194 H 0.74596 0.97255 0.99528 0.0
H1195 H 0.72702 0.01931 0.00693 0.0
H1196 H 0.83186 0.13282 0.04501 0.0
H1197 H 0.87626 0.16001 0.0348 0.0
H1198 H 0.82005 0.18093 -0.0 0.0
H1199 H 0.77531 0.15414 0.01014 0.0
H1200 H 0.90444 0.14315 0.01087 0.0
H1201 H 0.86082 0.26572 0.00863 0.0
H1202 H 0.84297 0.23613 0.01912 0.0
H1203 H 0.83447 0.23741 0.00148 0.0
C1204 C 0.82873 0.14352 0.03525 0.0
C1205 C 0.79994 0.14124 0.0284 0.0
C1206 C 0.85416 0.15905 0.02944 0.0
C1207 C 0.8513 0.17279 0.01673 0.0
C1208 C 0.82254 0.17104 0.00994 0.0
H1209 H 0.99648 0.21146 0.95923 0.0
H1210 H 0.95067 0.19311 0.9716 0.0
C1211 C 0.79705 0.15551 0.01573 0.0
C1212 C 0.87907 0.18684 0.01015 0.0
H1213 H 0.90694 0.25421 0.99594 0.0
C1214 C 0.90509 0.16749 0.00769 0.0
C1215 C 0.87991 0.21866 0.00614 0.0
C1216 C 0.85318 0.24081 0.00907 0.0
C1217 C 0.93165 0.17891 0.00101 0.0
C1218 C 0.93199 0.21037 0.99652 0.0
C1219 C 0.90638 0.23 0.99929 0.0
C1220 C 0.9587 0.22301 0.98877 0.0
C1221 C 0.9592 0.15725 0.99881 0.0
C1222 C 0.97782 0.24655 0.99421 0.0
C1223 C 0.00411 0.25719 0.98716 0.0
C1224 C 0.01154 0.24457 0.97451 0.0
C1225 C 0.99164 0.22162 0.96896 0.0
C1226 C 0.96547 0.211 0.97603 0.0
H1227 H 0.9583 0.13651 0.00555 0.0
H1228 H 0.95889 0.14869 0.98831 0.0
H1229 H 0.98171 0.16978 0.00048 0.0
H1230 H 0.97281 0.25617 0.00403 0.0
H1231 H 0.01883 0.27495 0.99173 0.0
H1232 H 0.63077 0.83151 0.7941 0.0
H1233 H 0.65699 0.8754 0.78306 0.0
H1234 H 0.67731 0.81676 0.74894 0.0
H1235 H 0.65132 0.77251 0.75988 0.0
H1236 H 0.72866 0.85643 0.75792 0.0
H1237 H 0.61663 0.92104 0.75046 0.0
H1238 H 0.62445 0.90873 0.76737 0.0
H1239 H 0.6179 0.87981 0.75458 0.0
C1240 C 0.64097 0.82777 0.78429 0.0
C1241 C 0.63869 0.79846 0.77785 0.0
C1242 C 0.65587 0.85295 0.77799 0.0
C1243 C 0.66868 0.84935 0.76514 0.0
C1244 C 0.66745 0.81996 0.75885 0.0
H1245 H 0.71228 0.99336 0.70751 0.0
H1246 H 0.69395 0.94682 0.71936 0.0
C1247 C 0.65251 0.79473 0.76513 0.0
C1248 C 0.68233 0.87656 0.75804 0.0
H1249 H 0.66326 0.94737 0.74433 0.0
C1250 C 0.71445 0.87636 0.75494 0.0
C1251 C 0.66354 0.90226 0.75406 0.0
C1252 C 0.62866 0.90304 0.75666 0.0
C1253 C 0.72839 0.9015 0.74805 0.0
C1254 C 0.70968 0.92745 0.74429 0.0
C1255 C 0.67753 0.92748 0.74731 0.0
C1256 C 0.72268 0.9546 0.73691 0.0
C1257 C 0.76281 0.89987 0.74461 0.0
C1258 C 0.745 0.97436 0.74288 0.0
C1259 C 0.7556 0.00111 0.73614 0.0
C1260 C 0.74392 0.0086 0.72333 0.0
C1261 C 0.72185 0.9884 0.71735 0.0
C1262 C 0.71129 0.96175 0.7241 0.0
H1263 H 0.77219 0.87564 0.74557 0.0
H1264 H 0.76702 0.90828 0.73423 0.0
H1265 H 0.77614 0.91526 0.75154 0.0
H1266 H 0.75366 0.96949 0.75287 0.0
H1267 H 0.77249 0.01617 0.74107 0.0
H1268 H 0.01791 0.22637 0.25759 0.0
H1269 H 0.9714 0.24584 0.24591 0.0
H1270 H 0.95096 0.30724 0.27912 0.0
H1271 H 0.99744 0.28824 0.29088 0.0
H1272 H 0.90675 0.24671 0.25418 0.0
H1273 H 0.95575 0.36605 0.24609 0.0
H1274 H 0.97982 0.33298 0.2508 0.0
H1275 H 0.95645 0.35277 0.26318 0.0
C1276 C 0.00351 0.24394 0.26246 0.0
C1277 C 0.01161 0.25588 0.27515 0.0
C1278 C 0.97691 0.25497 0.25576 0.0
C1279 C 0.95808 0.27824 0.26159 0.0
C1280 C 0.96554 0.28962 0.27438 0.0
H1281 H 0.77348 0.34497 0.23942 0.0
H1282 H 0.81811 0.31908 0.25007 0.0
C1283 C 0.99208 0.27861 0.2811 0.0
C1284 C 0.93091 0.29108 0.25419 0.0
H1285 H 0.90226 0.35854 0.24044 0.0
C1286 C 0.90573 0.27112 0.25113 0.0
C1287 C 0.92996 0.32282 0.25009 0.0
C1288 C 0.95703 0.3449 0.25258 0.0
C1289 C 0.8792 0.2823 0.24428 0.0
C1290 C 0.87785 0.31429 0.24055 0.0
C1291 C 0.90332 0.33406 0.2434 0.0
C1292 C 0.85024 0.32794 0.23372 0.0
C1293 C 0.85303 0.25978 0.24096 0.0
C1294 C 0.85362 0.34171 0.22104 0.0
C1295 C 0.82824 0.35668 0.21493 0.0
C1296 C 0.79899 0.35835 0.22144 0.0
C1297 C 0.79559 0.34405 0.23408 0.0
C1298 C 0.82103 0.32907 0.24017 0.0
H1299 H 0.86097 0.23497 0.24145 0.0
H1300 H 0.83371 0.26284 0.24831 0.0
H1301 H 0.84348 0.26446 0.2308 0.0
H1302 H 0.87606 0.3412 0.21593 0.0
H1303 H 0.83179 0.36744 0.20521 0.0
H1304 H 0.22047 0.98418 0.73996 0.0
H1305 H 0.23963 0.03091 0.75165 0.0
H1306 H 0.30619 0.0475 0.71989 0.0
H1307 H 0.28739 0.00104 0.70812 0.0
H1308 H 0.33154 0.04582 0.74678 0.0
H1309 H 0.22921 0.12602 0.74152 0.0
H1310 H 0.22104 0.08683 0.74728 0.0
H1311 H 0.2354 0.09282 0.73057 0.0
C1312 C 0.23894 0.99794 0.73537 0.0
C1313 C 0.2524 0.98876 0.72309 0.0
C1314 C 0.24975 0.0247 0.74205 0.0
C1315 C 0.27413 0.04267 0.73656 0.0
C1316 C 0.28725 0.03392 0.72424 0.0
H1317 H 0.35299 0.22188 0.7585 0.0
H1318 H 0.32644 0.17792 0.74762 0.0
C1319 C 0.27642 0.00733 0.71753 0.0
C1320 C 0.28743 0.06953 0.744 0.0
H1321 H 0.27146 0.14373 0.75493 0.0
C1322 C 0.31843 0.06723 0.7486 0.0
C1323 C 0.27024 0.09739 0.74623 0.0
C1324 C 0.23718 0.10122 0.74108 0.0
C1325 C 0.33281 0.09214 0.7554 0.0
C1326 C 0.31551 0.1199 0.7578 0.0
C1327 C 0.28451 0.12227 0.75315 0.0
C1328 C 0.32969 0.14705 0.76477 0.0
C1329 C 0.36661 0.0888 0.75971 0.0
C1330 C 0.33969 0.14438 0.77811 0.0
C1331 C 0.35501 0.16937 0.78436 0.0
C1332 C 0.36041 0.1976 0.7774 0.0
C1333 C 0.34937 0.20049 0.76416 0.0
C1334 C 0.33411 0.17543 0.75792 0.0
H1335 H 0.37853 0.06917 0.75444 0.0
H1336 H 0.37986 0.11078 0.75777 0.0
H1337 H 0.36749 0.08396 0.77063 0.0
H1338 H 0.33599 0.12281 0.78363 0.0
H1339 H 0.36294 0.16637 0.7946 0.0
H1340 H 0.97855 0.77299 0.2569 0.0
H1341 H 0.02435 0.75303 0.24483 0.0
H1342 H 0.04604 0.69196 0.27801 0.0
H1343 H 0.00036 0.71148 0.29016 0.0
H1344 H 0.08956 0.75169 0.25266 0.0
H1345 H 0.03907 0.63283 0.24505 0.0
H1346 H 0.0155 0.66624 0.24981 0.0
H1347 H 0.03888 0.64625 0.26213 0.0
C1348 C 0.9931 0.75541 0.26169 0.0
C1349 C 0.98558 0.7437 0.27449 0.0
C1350 C 0.01927 0.74408 0.25476 0.0
C1351 C 0.03821 0.72075 0.26047 0.0
C1352 C 0.03135 0.70963 0.27337 0.0
H1353 H 0.22192 0.65244 0.23921 0.0
H1354 H 0.17688 0.67862 0.24936 0.0
C1355 C 0.00527 0.72095 0.28031 0.0
C1356 C 0.06493 0.70758 0.25289 0.0
H1357 H 0.09277 0.63948 0.23941 0.0
C1358 C 0.09027 0.72721 0.24969 0.0
C1359 C 0.06547 0.67577 0.24888 0.0
C1360 C 0.03818 0.65404 0.25152 0.0
C1361 C 0.11665 0.71557 0.24288 0.0
C1362 C 0.11769 0.68345 0.23934 0.0
C1363 C 0.09196 0.66406 0.24223 0.0
C1364 C 0.14543 0.66922 0.23282 0.0
C1365 C 0.14307 0.73773 0.23947 0.0
C1366 C 0.14252 0.6549 0.22023 0.0
C1367 C 0.16817 0.63974 0.2144 0.0
C1368 C 0.19719 0.63843 0.22112 0.0
C1369 C 0.20002 0.65308 0.23371 0.0
C1370 C 0.17435 0.66825 0.23951 0.0
H1371 H 0.13525 0.7626 0.23965 0.0
H1372 H 0.16212 0.735 0.24696 0.0
H1373 H 0.15291 0.73242 0.22941 0.0
H1374 H 0.1203 0.65524 0.21496 0.0
H1375 H 0.16507 0.62867 0.20472 0.0
H1376 H 0.77334 0.48114 0.50831 0.0
H1377 H 0.75505 0.52797 0.49644 0.0
H1378 H 0.69704 0.55263 0.53024 0.0
H1379 H 0.71485 0.50603 0.54216 0.0
H1380 H 0.66549 0.55134 0.50529 0.0
H1381 H 0.77506 0.62209 0.50328 0.0
H1382 H 0.77834 0.58214 0.49764 0.0
H1383 H 0.7697 0.59005 0.51492 0.0
C1384 C 0.75696 0.49669 0.51329 0.0
C1385 C 0.74556 0.48973 0.5262 0.0
C1386 C 0.74667 0.52351 0.50651 0.0
C1387 C 0.72495 0.54383 0.51253 0.0
C1388 C 0.71392 0.53724 0.52546 0.0
H1389 H 0.65271 0.72569 0.48971 0.0
H1390 H 0.6793 0.68164 0.50058 0.0
C1391 C 0.72417 0.51055 0.53225 0.0
C1392 C 0.71204 0.57094 0.5051 0.0
H1393 H 0.7312 0.64173 0.4913 0.0
C1394 C 0.67983 0.5711 0.50222 0.0
C1395 C 0.73086 0.59671 0.50122 0.0
C1396 C 0.76538 0.59804 0.50449 0.0
C1397 C 0.66587 0.59636 0.49549 0.0
C1398 C 0.68474 0.62192 0.49141 0.0
C1399 C 0.71693 0.62191 0.49437 0.0
C1400 C 0.67107 0.64911 0.48433 0.0
C1401 C 0.63093 0.59579 0.493 0.0
C1402 C 0.65832 0.64547 0.47148 0.0
C1403 C 0.64309 0.6705 0.46522 0.0
C1404 C 0.64039 0.69971 0.47172 0.0
C1405 C 0.65422 0.70353 0.48443 0.0
C1406 C 0.66949 0.67844 0.49066 0.0
H1407 H 0.61892 0.57775 0.4992 0.0
H1408 H 0.62034 0.61904 0.49519 0.0
H1409 H 0.6265 0.5903 0.4823 0.0
H1410 H 0.65966 0.62306 0.46638 0.0
H1411 H 0.6329 0.6667 0.45541 0.0
H1412 H 0.72634 0.33243 0.51651 0.0
H1413 H 0.68237 0.30637 0.50543 0.0
H1414 H 0.61736 0.36357 0.52786 0.0
H1415 H 0.66113 0.38863 0.53943 0.0
H1416 H 0.59667 0.30589 0.52657 0.0
H1417 H 0.63226 0.34267 0.47551 0.0
H1418 H 0.66177 0.31967 0.48372 0.0
H1419 H 0.65117 0.35752 0.49037 0.0
C1420 C 0.70268 0.33936 0.51912 0.0
C1421 C 0.69723 0.36273 0.52879 0.0
C1422 C 0.67756 0.32462 0.5127 0.0
C1423 C 0.64656 0.33357 0.51555 0.0
C1424 C 0.64107 0.35637 0.52543 0.0
H1425 H 0.48551 0.30381 0.46473 0.0
H1426 H 0.53138 0.32353 0.47668 0.0
C1427 C 0.66614 0.37069 0.53205 0.0
C1428 C 0.61975 0.31937 0.50825 0.0
H1429 H 0.59006 0.30655 0.47695 0.0
C1430 C 0.59518 0.3061 0.51571 0.0
C1431 C 0.61758 0.32008 0.49409 0.0
C1432 C 0.64194 0.33604 0.48546 0.0
C1433 C 0.56847 0.29363 0.50945 0.0
C1434 C 0.56683 0.29332 0.49527 0.0
C1435 C 0.59146 0.30648 0.4878 0.0
C1436 C 0.5392 0.28081 0.48796 0.0
C1437 C 0.54188 0.28199 0.51813 0.0
C1438 C 0.52855 0.25004 0.49015 0.0
C1439 C 0.5019 0.23891 0.48351 0.0
C1440 C 0.48593 0.25807 0.47429 0.0
C1441 C 0.49729 0.28846 0.47176 0.0
C1442 C 0.52354 0.29976 0.47859 0.0
H1443 H 0.54278 0.29242 0.52833 0.0
H1444 H 0.51873 0.28759 0.51361 0.0
H1445 H 0.54374 0.25615 0.51923 0.0
H1446 H 0.54081 0.23461 0.49699 0.0
H1447 H 0.49396 0.21522 0.48553 0.0
H1448 H 0.23345 0.52548 0.50579 0.0
H1449 H 0.25033 0.47858 0.49355 0.0
H1450 H 0.28872 0.43992 0.52994 0.0
H1451 H 0.27237 0.48662 0.54226 0.0
H1452 H 0.31909 0.4562 0.4943 0.0
H1453 H 0.23055 0.3693 0.51173 0.0
H1454 H 0.22283 0.41102 0.51137 0.0
H1455 H 0.24757 0.39481 0.52416 0.0
C1456 C 0.24518 0.50688 0.51124 0.0
C1457 C 0.25156 0.50985 0.52502 0.0
C1458 C 0.2548 0.48015 0.50422 0.0
C1459 C 0.27045 0.45583 0.5109 0.0
C1460 C 0.27632 0.45838 0.52467 0.0
H1461 H 0.35848 0.27967 0.49209 0.0
H1462 H 0.33162 0.32425 0.50238 0.0
C1463 C 0.26705 0.48517 0.53167 0.0
C1464 C 0.28262 0.4286 0.5034 0.0
H1465 H 0.2736 0.34964 0.4993 0.0
C1466 C 0.30903 0.43292 0.49525 0.0
C1467 C 0.26953 0.39837 0.50485 0.0
C1468 C 0.24092 0.39288 0.51343 0.0
C1469 C 0.32337 0.40749 0.48876 0.0
C1470 C 0.31026 0.37711 0.49016 0.0
C1471 C 0.28352 0.37294 0.4982 0.0
C1472 C 0.32465 0.34926 0.48373 0.0
C1473 C 0.35313 0.41327 0.48092 0.0
C1474 C 0.32886 0.34814 0.4698 0.0
C1475 C 0.34456 0.32291 0.4639 0.0
C1476 C 0.35584 0.29801 0.47181 0.0
C1477 C 0.35022 0.29849 0.48571 0.0
C1478 C 0.33484 0.32394 0.49161 0.0
H1479 H 0.36457 0.43564 0.48389 0.0
H1480 H 0.37018 0.39385 0.48236 0.0
H1481 H 0.34741 0.41482 0.47009 0.0
H1482 H 0.32039 0.367 0.46349 0.0
H1483 H 0.34809 0.32309 0.45315 0.0
H1484 H 0.50756 0.69862 0.46389 0.0
H1485 H 0.46101 0.68076 0.47582 0.0
H1486 H 0.4597 0.76671 0.49867 0.0
H1487 H 0.50728 0.78423 0.48716 0.0
H1488 H 0.44962 0.71897 0.51451 0.0
H1489 H 0.37203 0.70588 0.47056 0.0
H1490 H 0.40696 0.683 0.46853 0.0
H1491 H 0.40961 0.72517 0.46952 0.0
C1492 C 0.49729 0.71387 0.47139 0.0
C1493 C 0.51106 0.74292 0.47453 0.0
C1494 C 0.47048 0.7037 0.47814 0.0
C1495 C 0.45636 0.7227 0.48792 0.0
C1496 C 0.47006 0.75174 0.4911 0.0
H1497 H 0.27155 0.66956 0.51807 0.0
H1498 H 0.31492 0.69796 0.50765 0.0
C1499 C 0.49724 0.76172 0.4845 0.0
C1500 C 0.42813 0.71156 0.49522 0.0
H1501 H 0.35592 0.67882 0.49056 0.0
C1502 C 0.42895 0.71056 0.50928 0.0
C1503 C 0.40086 0.7012 0.48843 0.0
C1504 C 0.39716 0.7042 0.47344 0.0
C1505 C 0.40375 0.69843 0.51671 0.0
C1506 C 0.3775 0.68589 0.50987 0.0
C1507 C 0.37622 0.68796 0.49583 0.0
C1508 C 0.35133 0.66999 0.51696 0.0
C1509 C 0.4055 0.69957 0.53181 0.0
C1510 C 0.35726 0.64478 0.52568 0.0
C1511 C 0.3325 0.62889 0.53185 0.0
C1512 C 0.30126 0.63735 0.52914 0.0
C1513 C 0.29534 0.66243 0.52035 0.0
C1514 C 0.32013 0.67869 0.51438 0.0
H1515 H 0.42078 0.7191 0.53526 0.0
H1516 H 0.38191 0.70256 0.53636 0.0
H1517 H 0.41585 0.67736 0.53557 0.0
H1518 H 0.38103 0.6369 0.5275 0.0
H1519 H 0.33782 0.6094 0.53844 0.0
H1520 H 0.3075 0.1972 0.42692 0.0
H1521 H 0.27253 0.19242 0.40755 0.0
H1522 H 0.31858 0.27142 0.38889 0.0
H1523 H 0.35479 0.27486 0.4078 0.0
H1524 H 0.23077 0.22822 0.39793 0.0
H1525 H 0.31949 0.21353 0.3582 0.0
H1526 H 0.32965 0.21221 0.37572 0.0
H1527 H 0.32648 0.24931 0.3671 0.0
C1528 C 0.31026 0.21332 0.4186 0.0
C1529 C 0.33393 0.23622 0.41875 0.0
C1530 C 0.29031 0.21059 0.40755 0.0
C1531 C 0.29335 0.23108 0.39658 0.0
C1532 C 0.3165 0.25453 0.39695 0.0
H1533 H 0.14343 0.27564 0.34159 0.0
H1534 H 0.17994 0.27173 0.36039 0.0
C1535 C 0.33698 0.2567 0.40782 0.0
C1536 C 0.27139 0.22891 0.38505 0.0
H1537 H 0.2682 0.22996 0.35089 0.0
C1538 C 0.23901 0.22816 0.38765 0.0
C1539 C 0.282 0.22806 0.3716 0.0
C1540 C 0.31631 0.22544 0.36801 0.0
C1541 C 0.21699 0.22761 0.37721 0.0
C1542 C 0.22758 0.22947 0.36377 0.0
C1543 C 0.25997 0.22915 0.36117 0.0
C1544 C 0.2056 0.23212 0.35228 0.0
C1545 C 0.1827 0.22448 0.38076 0.0
C1546 C 0.2088 0.21227 0.34111 0.0
C1547 C 0.18869 0.2153 0.33013 0.0
C1548 C 0.16469 0.23786 0.33024 0.0
C1549 C 0.16152 0.25777 0.34136 0.0
C1550 C 0.18217 0.25531 0.35216 0.0
H1551 H 0.17961 0.21196 0.39044 0.0
H1552 H 0.17231 0.2482 0.38192 0.0
H1553 H 0.16949 0.21159 0.37291 0.0
H1554 H 0.22679 0.19432 0.3409 0.0
H1555 H 0.19153 0.1996 0.32167 0.0
H1556 H 0.2091 0.68929 0.57394 0.0
H1557 H 0.20908 0.72522 0.59303 0.0
H1558 H 0.28691 0.67469 0.61042 0.0
H1559 H 0.28555 0.63748 0.59175 0.0
H1560 H 0.24813 0.68796 0.62898 0.0
H1561 H 0.26562 0.79663 0.59971 0.0
H1562 H 0.23056 0.77688 0.59454 0.0
H1563 H 0.26819 0.75831 0.59217 0.0
C1564 C 0.22625 0.68599 0.58183 0.0
C1565 C 0.24748 0.66084 0.58137 0.0
C1566 C 0.22642 0.70668 0.59268 0.0
C1567 C 0.24857 0.70326 0.60301 0.0
C1568 C 0.2697 0.67795 0.60255 0.0
H1569 H 0.28471 0.85398 0.65957 0.0
H1570 H 0.28707 0.81582 0.64131 0.0
C1571 C 0.26896 0.65675 0.59189 0.0
C1572 C 0.24918 0.72546 0.61448 0.0
H1573 H 0.24942 0.80328 0.62247 0.0
C1574 C 0.24874 0.71319 0.62755 0.0
C1575 C 0.25057 0.75839 0.61266 0.0
C1576 C 0.25413 0.77327 0.59901 0.0
C1577 C 0.24927 0.73286 0.63882 0.0
C1578 C 0.24865 0.76581 0.63698 0.0
C1579 C 0.24946 0.77805 0.62392 0.0
C1580 C 0.24775 0.78814 0.64841 0.0
C1581 C 0.25139 0.71795 0.65252 0.0
C1582 C 0.22484 0.78545 0.65848 0.0
C1583 C 0.22409 0.80672 0.66913 0.0
C1584 C 0.2455 0.83172 0.66961 0.0
C1585 C 0.26791 0.8349 0.65939 0.0
C1586 C 0.26922 0.81313 0.64896 0.0
H1587 H 0.2624 0.69435 0.652 0.0
H1588 H 0.26521 0.73264 0.65956 0.0
H1589 H 0.2274 0.71491 0.65664 0.0
H1590 H 0.20728 0.76713 0.65804 0.0
H1591 H 0.20629 0.80409 0.67681 0.0
H1592 H 0.64135 0.71845 0.40834 0.0
H1593 H 0.67856 0.71852 0.38969 0.0
H1594 H 0.72621 0.79811 0.40711 0.0
H1595 H 0.69026 0.79669 0.42622 0.0
H1596 H 0.69043 0.75774 0.37116 0.0
H1597 H 0.79961 0.74405 0.40053 0.0
H1598 H 0.76136 0.74027 0.40804 0.0
H1599 H 0.77853 0.77849 0.4055 0.0
C1600 C 0.65996 0.73578 0.40821 0.0
C1601 C 0.66324 0.75735 0.41874 0.0
C1602 C 0.68117 0.73585 0.39755 0.0
C1603 C 0.70569 0.75788 0.39711 0.0
C1604 C 0.70829 0.78013 0.40745 0.0
H1605 H 0.80566 0.79675 0.32249 0.0
H1606 H 0.76943 0.7978 0.34151 0.0
C1607 C 0.68759 0.7795 0.4183 0.0
C1608 C 0.72794 0.75791 0.38565 0.0
H1609 H 0.80575 0.75863 0.37762 0.0
C1610 C 0.71566 0.75767 0.37259 0.0
C1611 C 0.76089 0.7573 0.38747 0.0
C1612 C 0.77585 0.75469 0.40114 0.0
C1613 C 0.73531 0.75689 0.36131 0.0
C1614 C 0.76825 0.758 0.36313 0.0
C1615 C 0.78052 0.75817 0.37619 0.0
C1616 C 0.79053 0.75808 0.35168 0.0
C1617 C 0.72041 0.75383 0.34765 0.0
C1618 C 0.8154 0.73645 0.35134 0.0
C1619 C 0.83676 0.73661 0.34074 0.0
C1620 C 0.83327 0.75799 0.33015 0.0
C1621 C 0.80851 0.7797 0.33046 0.0
C1622 C 0.78766 0.78012 0.34127 0.0
H1623 H 0.6968 0.74286 0.34829 0.0
H1624 H 0.71738 0.77753 0.34322 0.0
H1625 H 0.73511 0.73952 0.34079 0.0
H1626 H 0.81822 0.71928 0.35926 0.0
H1627 H 0.85568 0.71961 0.3407 0.0
H1628 H 0.79197 0.19095 0.67634 0.0
H1629 H 0.79189 0.22774 0.65752 0.0
H1630 H 0.71159 0.18024 0.64063 0.0
H1631 H 0.71297 0.14222 0.65898 0.0
H1632 H 0.74982 0.19243 0.62183 0.0
H1633 H 0.73761 0.30123 0.65152 0.0
H1634 H 0.77228 0.28016 0.6562 0.0
H1635 H 0.73419 0.26289 0.659 0.0
C1636 C 0.77424 0.18853 0.66862 0.0
C1637 C 0.75236 0.16394 0.6691 0.0
C1638 C 0.77403 0.2097 0.65793 0.0
C1639 C 0.75122 0.20733 0.6478 0.0
C1640 C 0.72935 0.18268 0.64833 0.0
H1641 H 0.71431 0.35886 0.59167 0.0
H1642 H 0.71298 0.32114 0.61014 0.0
C1643 C 0.7301 0.16101 0.65881 0.0
C1644 C 0.75074 0.22975 0.63641 0.0
H1645 H 0.75197 0.30766 0.62854 0.0
C1646 C 0.74998 0.21764 0.62331 0.0
C1647 C 0.75041 0.26268 0.6383 0.0
C1648 C 0.74831 0.27748 0.65202 0.0
C1649 C 0.74915 0.23744 0.61209 0.0
C1650 C 0.75071 0.27034 0.61397 0.0
C1651 C 0.75119 0.28246 0.62706 0.0
C1652 C 0.75124 0.29272 0.60256 0.0
C1653 C 0.74565 0.22273 0.5984 0.0
C1654 C 0.77331 0.28952 0.59218 0.0
C1655 C 0.77346 0.31053 0.58143 0.0
C1656 C 0.75231 0.33576 0.58113 0.0
C1657 C 0.73087 0.33955 0.59169 0.0
C1658 C 0.73014 0.31805 0.60224 0.0
H1659 H 0.73419 0.19936 0.59903 0.0
H1660 H 0.73159 0.23779 0.59159 0.0
H1661 H 0.76924 0.21923 0.59394 0.0
H1662 H 0.79061 0.27093 0.59242 0.0
H1663 H 0.79057 0.30744 0.5735 0.0
H1664 H 0.12932 0.23596 0.90366 0.0
H1665 H 0.16586 0.23688 0.88475 0.0
H1666 H 0.23756 0.27617 0.9102 0.0
H1667 H 0.20124 0.27542 0.9292 0.0
H1668 H 0.22818 0.30662 0.88397 0.0
H1669 H 0.24391 0.17714 0.88124 0.0
H1670 H 0.20406 0.19101 0.88169 0.0
H1671 H 0.22897 0.19662 0.89599 0.0
C1672 C 0.15286 0.24482 0.90525 0.0
C1673 C 0.16248 0.25543 0.91795 0.0
C1674 C 0.17368 0.24523 0.89445 0.0
C1675 C 0.2044 0.25629 0.89616 0.0
C1676 C 0.21394 0.26743 0.90874 0.0
H1677 H 0.3661 0.2353 0.84481 0.0
H1678 H 0.32902 0.23706 0.86349 0.0
C1679 C 0.19319 0.26688 0.91957 0.0
C1680 C 0.22664 0.25617 0.88482 0.0
H1681 H 0.26771 0.20737 0.86415 0.0
C1682 C 0.23687 0.28497 0.87961 0.0
C1683 C 0.23801 0.22783 0.8793 0.0
C1684 C 0.22844 0.19632 0.88487 0.0
C1685 C 0.25803 0.28617 0.86885 0.0
C1686 C 0.26899 0.25782 0.86318 0.0
C1687 C 0.25902 0.22903 0.8685 0.0
C1688 C 0.29135 0.25749 0.85188 0.0
C1689 C 0.26891 0.31766 0.86374 0.0
C1690 C 0.28225 0.26825 0.83918 0.0
C1691 C 0.30332 0.26718 0.82846 0.0
C1692 C 0.33381 0.25532 0.8303 0.0
C1693 C 0.34281 0.24463 0.84307 0.0
C1694 C 0.32169 0.24557 0.85375 0.0
H1695 H 0.26315 0.33693 0.87082 0.0
H1696 H 0.29464 0.31752 0.86198 0.0
H1697 H 0.25721 0.32271 0.85404 0.0
H1698 H 0.25876 0.27717 0.83754 0.0
H1699 H 0.29569 0.27562 0.81875 0.0
H1700 H 0.26079 0.70702 0.18154 0.0
H1701 H 0.26124 0.74359 0.16263 0.0
H1702 H 0.25345 0.66593 0.13511 0.0
H1703 H 0.25222 0.62929 0.15391 0.0
H1704 H 0.3019 0.74852 0.14146 0.0
H1705 H 0.18184 0.72192 0.12323 0.0
H1706 H 0.19586 0.70914 0.1394 0.0
H1707 H 0.20639 0.68785 0.12449 0.0
C1708 C 0.25906 0.69773 0.17146 0.0
C1709 C 0.25613 0.66529 0.16922 0.0
C1710 C 0.25936 0.71865 0.16068 0.0
C1711 C 0.25676 0.7075 0.14749 0.0
C1712 C 0.25465 0.67508 0.14522 0.0
H1713 H 0.26202 0.79375 0.06893 0.0
H1714 H 0.26356 0.75757 0.08798 0.0
C1715 C 0.25412 0.65417 0.15598 0.0
C1716 C 0.25668 0.72973 0.1361 0.0
H1717 H 0.21382 0.75328 0.10899 0.0
C1718 C 0.28258 0.74971 0.1344 0.0
C1719 C 0.23137 0.73124 0.12693 0.0
C1720 C 0.20215 0.71162 0.12865 0.0
C1721 C 0.28408 0.77078 0.12362 0.0
C1722 C 0.25899 0.77194 0.11439 0.0
C1723 C 0.23308 0.75208 0.11608 0.0
C1724 C 0.25896 0.79394 0.10297 0.0
C1725 C 0.31265 0.79135 0.12202 0.0
C1726 C 0.25568 0.82625 0.10517 0.0
C1727 C 0.25458 0.84696 0.09433 0.0
C1728 C 0.25679 0.83564 0.08112 0.0
C1729 C 0.26027 0.80321 0.07898 0.0
C1730 C 0.26115 0.78251 0.08983 0.0
H1731 H 0.33234 0.78361 0.12852 0.0
H1732 H 0.32069 0.7914 0.11143 0.0
H1733 H 0.3065 0.81583 0.12476 0.0
H1734 H 0.25359 0.83539 0.11526 0.0
H1735 H 0.2519 0.87181 0.09632 0.0
H1736 H 0.80972 0.70066 0.92615 0.0
H1737 H 0.7748 0.69631 0.90678 0.0
H1738 H 0.82219 0.77444 0.88805 0.0
H1739 H 0.85842 0.77738 0.907 0.0
H1740 H 0.7337 0.7327 0.89729 0.0
H1741 H 0.82172 0.71671 0.85732 0.0
H1742 H 0.83209 0.71535 0.87482 0.0
H1743 H 0.82906 0.75246 0.8662 0.0
C1744 C 0.81279 0.71668 0.91782 0.0
C1745 C 0.83681 0.73921 0.91798 0.0
C1746 C 0.79287 0.7142 0.90676 0.0
C1747 C 0.79623 0.73459 0.89578 0.0
C1748 C 0.81981 0.75764 0.89612 0.0
H1749 H 0.64494 0.77746 0.84101 0.0
H1750 H 0.68233 0.77499 0.85953 0.0
C1751 C 0.8403 0.75954 0.90701 0.0
C1752 C 0.77412 0.73273 0.88429 0.0
H1753 H 0.77033 0.7328 0.85013 0.0
C1754 C 0.74178 0.73231 0.88698 0.0
C1755 C 0.7845 0.73152 0.87082 0.0
C1756 C 0.81874 0.72866 0.86714 0.0
C1757 C 0.71958 0.73152 0.87662 0.0
C1758 C 0.72995 0.73284 0.86315 0.0
C1759 C 0.76229 0.73238 0.86045 0.0
C1760 C 0.70774 0.7349 0.85171 0.0
C1761 C 0.68534 0.72862 0.88031 0.0
C1762 C 0.71054 0.71433 0.84076 0.0
C1763 C 0.68989 0.7165 0.82993 0.0
C1764 C 0.66576 0.73892 0.82998 0.0
C1765 C 0.66309 0.75965 0.84084 0.0
C1766 C 0.68426 0.75804 0.85149 0.0
H1767 H 0.68237 0.71664 0.89012 0.0
H1768 H 0.67499 0.75241 0.88126 0.0
H1769 H 0.672 0.71533 0.87262 0.0
H1770 H 0.72857 0.6964 0.84064 0.0
H1771 H 0.69236 0.70021 0.82165 0.0
H1772 H 0.70135 0.19204 0.07266 0.0
H1773 H 0.70003 0.22806 0.09176 0.0
H1774 H 0.77893 0.17967 0.10938 0.0
H1775 H 0.77888 0.14243 0.09076 0.0
H1776 H 0.73949 0.19164 0.12778 0.0
H1777 H 0.75444 0.30103 0.09864 0.0
H1778 H 0.7199 0.28023 0.09358 0.0
H1779 H 0.75802 0.26282 0.09107 0.0
C1780 C 0.71842 0.18924 0.08062 0.0
C1781 C 0.74032 0.16465 0.08025 0.0
C1782 C 0.71784 0.20997 0.09147 0.0
C1783 C 0.7399 0.20715 0.10187 0.0
C1784 C 0.76173 0.18245 0.10148 0.0
H1785 H 0.77943 0.35604 0.1586 0.0
H1786 H 0.77934 0.3188 0.13997 0.0
C1787 C 0.76174 0.16121 0.09083 0.0
C1788 C 0.73986 0.2293 0.11336 0.0
H1789 H 0.73986 0.30704 0.12155 0.0
C1790 C 0.73984 0.21689 0.12641 0.0
C1791 C 0.74079 0.26227 0.11161 0.0
C1792 C 0.74364 0.27734 0.09797 0.0
C1793 C 0.74073 0.2364 0.13772 0.0
C1794 C 0.74001 0.26937 0.13597 0.0
C1795 C 0.74004 0.28179 0.12292 0.0
C1796 C 0.74016 0.29152 0.14746 0.0
C1797 C 0.74351 0.22131 0.15136 0.0
C1798 C 0.71806 0.28881 0.15786 0.0
C1799 C 0.71872 0.30952 0.16871 0.0
C1800 C 0.74074 0.33399 0.16909 0.0
C1801 C 0.76221 0.33733 0.15852 0.0
C1802 C 0.76211 0.3161 0.14787 0.0
H1803 H 0.75418 0.19757 0.15069 0.0
H1804 H 0.75797 0.23575 0.15826 0.0
H1805 H 0.71976 0.21854 0.15576 0.0
H1806 H 0.70015 0.27081 0.15756 0.0
H1807 H 0.7016 0.3068 0.17666 0.0
H1808 H 0.9285 0.88923 0.27186 0.0
H1809 H 0.94846 0.9429 0.2728 0.0
H1810 H 0.00067 0.92024 0.30857 0.0
H1811 H 0.98167 0.86612 0.30742 0.0
H1812 H 0.94155 0.9873 0.29123 0.0
H1813 H 0.06802 0.95926 0.28594 0.0
H1814 H 0.03769 0.93045 0.28322 0.0
H1815 H 0.04997 0.94015 0.29998 0.0
C1816 C 0.94437 0.89563 0.27989 0.0
C1817 C 0.95377 0.87343 0.2895 0.0
C1818 C 0.95572 0.92631 0.28042 0.0
C1819 C 0.97648 0.93545 0.29062 0.0
C1820 C 0.98538 0.91349 0.3004 0.0
H1821 H 0.01569 0.133 0.30774 0.0
H1822 H 0.99653 0.07892 0.30881 0.0
C1823 C 0.97438 0.88263 0.29977 0.0
C1824 C 0.98831 0.96813 0.29105 0.0
H1825 H 0.05524 0.01208 0.29105 0.0
C1826 C 0.96641 0.99275 0.29117 0.0
C1827 C 0.02076 0.97517 0.29081 0.0
C1828 C 0.04547 0.94989 0.28984 0.0
C1829 C 0.97602 0.02422 0.29098 0.0
C1830 C 0.00847 0.03125 0.29112 0.0
C1831 C 0.03037 0.00664 0.29106 0.0
C1832 C 0.02031 0.06394 0.29072 0.0
C1833 C 0.95129 0.04952 0.29019 0.0
C1834 C 0.04089 0.07319 0.28047 0.0
C1835 C 0.05233 0.10384 0.27999 0.0
C1836 C 0.0432 0.1259 0.2897 0.0
C1837 C 0.02276 0.1166 0.30002 0.0
C1838 C 0.01167 0.08576 0.3006 0.0
H1839 H 0.92865 0.04022 0.28636 0.0
H1840 H 0.94704 0.05909 0.30037 0.0
H1841 H 0.95893 0.06907 0.2836 0.0
H1842 H 0.04794 0.05671 0.27277 0.0
H1843 H 0.06805 0.11032 0.27192 0.0
H1844 H 0.88938 0.06574 0.72376 0.0
H1845 H 0.94305 0.04655 0.72151 0.0
H1846 H 0.91659 0.99429 0.68623 0.0
H1847 H 0.86242 0.01263 0.68868 0.0
H1848 H 0.95213 0.95967 0.70226 0.0
H1849 H 0.00903 0.07515 0.69567 0.0
H1850 H 0.98658 0.0739 0.71085 0.0
H1851 H 0.96702 0.07021 0.69491 0.0
C1852 C 0.89499 0.05025 0.71549 0.0
C1853 C 0.87172 0.04076 0.70637 0.0
C1854 C 0.92575 0.0395 0.71415 0.0
C1855 C 0.93402 0.01961 0.70351 0.0
C1856 C 0.91077 0.00984 0.69446 0.0
H1857 H 0.13262 0.98043 0.68849 0.0
H1858 H 0.07816 0.99773 0.68597 0.0
C1859 C 0.87984 0.02028 0.69588 0.0
C1860 C 0.9667 0.00809 0.7022 0.0
H1861 H 0.04296 0.03246 0.70184 0.0
C1862 C 0.97199 0.97559 0.702 0.0
C1863 C 0.9926 0.02884 0.70156 0.0
C1864 C 0.98851 0.06395 0.7006 0.0
C1865 C 0.00251 0.96326 0.70176 0.0
C1866 C 0.02842 0.98403 0.70215 0.0
C1867 C 0.02311 0.01652 0.70176 0.0
C1868 C 0.06117 0.97263 0.70339 0.0
C1869 C 0.00659 0.92812 0.70101 0.0
C1870 C 0.06978 0.95309 0.7141 0.0
C1871 C 0.10073 0.94291 0.71548 0.0
C1872 C 0.12384 0.95265 0.70633 0.0
C1873 C 0.11533 0.97262 0.69572 0.0
C1874 C 0.08424 0.98247 0.69425 0.0
H1875 H 0.986 0.91676 0.6962 0.0
H1876 H 0.02799 0.92166 0.6953 0.0
H1877 H 0.00866 0.91852 0.71131 0.0
H1878 H 0.05263 0.946 0.72151 0.0
H1879 H 0.10663 0.92779 0.72384 0.0
H1880 H 0.08488 0.39308 0.97011 0.0
H1881 H 0.06579 0.4471 0.96934 0.0
H1882 H 0.98435 0.41691 0.94716 0.0
H1883 H 0.00352 0.36279 0.94765 0.0
H1884 H 0.01164 0.47119 0.93689 0.0
H1885 H 0.99295 0.48055 0.9918 0.0
H1886 H 0.03203 0.46907 0.9872 0.0
H1887 H -0.00041 0.44351 0.9835 0.0
C1888 C 0.0629 0.39788 0.96506 0.0
C1889 C 0.04555 0.3736 0.95905 0.0
C1890 C 0.05197 0.42875 0.96469 0.0
C1891 C 0.0234 0.43585 0.9584 0.0
C1892 C 0.00638 0.41182 0.95213 0.0
H1893 H 0.91527 0.60547 0.96972 0.0
H1894 H 0.93429 0.55151 0.96851 0.0
C1895 C 0.01733 0.38093 0.95245 0.0
C1896 C 0.01121 0.46835 0.95844 0.0
H1897 H 0.98808 0.52756 0.97922 0.0
C1898 C 0.00639 0.48354 0.94613 0.0
C1899 C 0.00401 0.48417 0.97051 0.0
C1900 C 0.0071 0.46844 0.984 0.0
C1901 C 0.99493 0.5144 0.94558 0.0
C1902 C 0.98871 0.53055 0.95767 0.0
C1903 C 0.99316 0.51519 0.96996 0.0
C1904 C 0.97694 0.56323 0.95786 0.0
C1905 C 0.98905 0.52918 0.93206 0.0
C1906 C 0.99472 0.58772 0.95232 0.0
C1907 C 0.98385 0.61864 0.95294 0.0
C1908 C 0.95518 0.62557 0.95925 0.0
C1909 C 0.93749 0.60095 0.96481 0.0
C1910 C 0.9483 0.57009 0.96413 0.0
H1911 H 0.98697 0.51123 0.92404 0.0
H1912 H 0.96731 0.54354 0.93218 0.0
H1913 H 0.00902 0.54478 0.9295 0.0
H1914 H 0.01722 0.583 0.94769 0.0
H1915 H 0.99808 0.63709 0.9486 0.0
H1916 H 0.36721 0.98145 0.05758 0.0
H1917 H 0.42144 0.00016 0.05834 0.0
H1918 H 0.44278 0.94677 0.02274 0.0
H1919 H 0.38895 0.92707 0.0222 0.0
H1920 H 0.48801 0.94065 0.04082 0.0
H1921 H 0.45936 0.06684 0.03507 0.0
H1922 H 0.44078 0.04928 0.04935 0.0
H1923 H 0.43054 0.03635 0.03274 0.0
C1924 C 0.38346 0.97379 0.04989 0.0
C1925 C 0.37382 0.953 0.03977 0.0
C1926 C 0.41438 0.98464 0.0503 0.0
C1927 C 0.43599 0.9754 0.04043 0.0
C1928 C 0.42646 0.95432 0.03042 0.0
H1929 H 0.61055 0.06807 0.02138 0.0
H1930 H 0.55708 0.0475 0.02209 0.0
C1931 C 0.3957 0.94311 0.03011 0.0
C1932 C 0.46865 0.98734 0.04058 0.0
H1933 H 0.51232 0.05445 0.04021 0.0
C1934 C 0.49336 0.96554 0.04065 0.0
C1935 C 0.47556 0.01981 0.04017 0.0
C1936 C 0.45018 0.04442 0.03919 0.0
C1937 C 0.52479 0.97528 0.04033 0.0
C1938 C 0.5317 0.00777 0.04038 0.0
C1939 C 0.50699 0.02956 0.0403 0.0
C1940 C 0.56433 0.01976 0.04001 0.0
C1941 C 0.55017 0.95064 0.03955 0.0
C1942 C 0.58613 0.01123 0.04992 0.0
C1943 C 0.61687 0.02258 0.04942 0.0
C1944 C 0.62612 0.0432 0.03916 0.0
C1945 C 0.60409 0.05221 0.02941 0.0
C1946 C 0.57354 0.0405 0.02981 0.0
H1947 H 0.54095 0.92799 0.03569 0.0
H1948 H 0.56972 0.95836 0.03297 0.0
H1949 H 0.5597 0.94636 0.04973 0.0
H1950 H 0.57932 0.99598 0.0581 0.0
H1951 H 0.63323 0.01557 0.05717 0.0
H1952 H 0.48228 0.3642 0.80977 0.0
H1953 H 0.49973 0.41867 0.81202 0.0
H1954 H 0.44664 0.4437 0.77678 0.0
H1955 H 0.42827 0.38967 0.77475 0.0
H1956 H 0.53388 0.45354 0.79577 0.0
H1957 H 0.41846 0.51073 0.80214 0.0
H1958 H 0.42337 0.46874 0.8031 0.0
H1959 H 0.4197 0.48788 0.78707 0.0
C1960 C 0.47419 0.38138 0.80255 0.0
C1961 C 0.4538 0.37273 0.79212 0.0
C1962 C 0.48414 0.41248 0.80386 0.0
C1963 C 0.47399 0.43541 0.79473 0.0
C1964 C 0.454 0.42666 0.78419 0.0
H1965 H 0.56671 0.60785 0.7742 0.0
H1966 H 0.54765 0.55406 0.77627 0.0
C1967 C 0.44372 0.3957 0.78298 0.0
C1968 C 0.48547 0.46816 0.7958 0.0
H1969 H 0.46123 0.54449 0.7959 0.0
C1970 C 0.51799 0.47342 0.79596 0.0
C1971 C 0.46476 0.4941 0.79632 0.0
C1972 C 0.42965 0.49008 0.7973 0.0
C1973 C 0.53035 0.50392 0.7961 0.0
C1974 C 0.50963 0.52985 0.79564 0.0
C1975 C 0.47713 0.5246 0.79602 0.0
C1976 C 0.52113 0.56256 0.79443 0.0
C1977 C 0.5655 0.50795 0.79684 0.0
C1978 C 0.51158 0.58555 0.80365 0.0
C1979 C 0.52193 0.61652 0.80233 0.0
C1980 C 0.54212 0.62497 0.79179 0.0
C1981 C 0.55144 0.60197 0.78251 0.0
C1982 C 0.54077 0.57115 0.78374 0.0
H1983 H 0.57687 0.48732 0.80162 0.0
H1984 H 0.57508 0.51011 0.78654 0.0
H1985 H 0.57198 0.52931 0.80258 0.0
H1986 H 0.49626 0.57948 0.81192 0.0
H1987 H 0.51442 0.63373 0.80965 0.0
H1988 H 0.60843 0.42995 0.22639 0.0
H1989 H 0.5549 0.45004 0.22493 0.0
H1990 H 0.5798 0.50312 0.18967 0.0
H1991 H 0.6338 0.48394 0.19134 0.0
H1992 H 0.54593 0.53773 0.20631 0.0
H1993 H 0.48699 0.42318 0.19969 0.0
H1994 H 0.51023 0.42395 0.21466 0.0
H1995 H 0.529 0.42756 0.19855 0.0
C1996 C 0.60248 0.4458 0.21829 0.0
C1997 C 0.62525 0.4553 0.20895 0.0
C1998 C 0.57181 0.45709 0.21741 0.0
C1999 C 0.56316 0.47751 0.20701 0.0
C2000 C 0.58593 0.48722 0.19773 0.0
H2001 H 0.36616 0.5192 0.19131 0.0
H2002 H 0.42051 0.50131 0.18948 0.0
C2003 C 0.61675 0.47627 0.1987 0.0
C2004 C 0.5306 0.48954 0.20612 0.0
H2005 H 0.45397 0.46639 0.20581 0.0
C2006 C 0.52581 0.52214 0.20607 0.0
C2007 C 0.50438 0.46921 0.20553 0.0
C2008 C 0.5079 0.43405 0.20446 0.0
C2009 C 0.4955 0.53495 0.20587 0.0
C2010 C 0.46927 0.51459 0.20617 0.0
C2011 C 0.47407 0.48201 0.20578 0.0
C2012 C 0.43663 0.52646 0.20703 0.0
C2013 C 0.49197 0.57016 0.20517 0.0
C2014 C 0.42757 0.54633 0.21757 0.0
C2015 C 0.39664 0.5569 0.21854 0.0
C2016 C 0.37406 0.5472 0.20916 0.0
C2017 C 0.38304 0.52697 0.19872 0.0
C2018 C 0.41408 0.51677 0.19765 0.0
H2019 H 0.51294 0.58132 0.20058 0.0
H2020 H 0.47095 0.577 0.19929 0.0
H2021 H 0.4895 0.57964 0.21548 0.0
H2022 H 0.44431 0.55335 0.22516 0.0
H2023 H 0.39032 0.57224 0.22677 0.0
H2024 H 0.48317 0.13436 0.44055 0.0
H2025 H 0.5009 0.08 0.43816 0.0
H2026 H 0.4488 0.05441 0.4736 0.0
H2027 H 0.43014 0.1083 0.47577 0.0
H2028 H 0.53546 0.04468 0.45401 0.0
H2029 H 0.41971 0.9879 0.44822 0.0
H2030 H 0.42467 0.0299 0.44737 0.0
H2031 H 0.42145 0.01048 0.46336 0.0
C2032 C 0.4754 0.11708 0.44779 0.0
C2033 C 0.45514 0.12552 0.45831 0.0
C2034 C 0.4855 0.08604 0.4464 0.0
C2035 C 0.47564 0.06297 0.45553 0.0
C2036 C 0.45591 0.07155 0.46618 0.0
H2037 H 0.56862 0.89032 0.47527 0.0
H2038 H 0.54985 0.9442 0.47324 0.0
C2039 C 0.44547 0.10244 0.46748 0.0
C2040 C 0.48702 0.03021 0.45429 0.0
H2041 H 0.46254 0.95396 0.45422 0.0
C2042 C 0.5195 0.02485 0.4539 0.0
C2043 C 0.46622 0.00433 0.45383 0.0
C2044 C 0.43109 0.00845 0.45306 0.0
C2045 C 0.53177 0.99432 0.45361 0.0
C2046 C 0.51099 0.96843 0.45418 0.0
C2047 C 0.47849 0.97379 0.45401 0.0
C2048 C 0.52242 0.93567 0.45533 0.0
C2049 C 0.56687 0.9902 0.45261 0.0
C2050 C 0.51227 0.91262 0.44626 0.0
C2051 C 0.52244 0.88158 0.44757 0.0
C2052 C 0.54306 0.87313 0.45796 0.0
C2053 C 0.55301 0.8962 0.46708 0.0
C2054 C 0.54251 0.92708 0.46586 0.0
H2055 H 0.57807 0.01077 0.44771 0.0
H2056 H 0.57688 0.98814 0.46284 0.0
H2057 H 0.57308 0.96878 0.44686 0.0
H2058 H 0.49659 0.91868 0.43811 0.0
H2059 H 0.51444 0.86432 0.44037 0.0
H2060 H 0.86185 0.49721 0.55329 0.0
H2061 H 0.91585 0.51678 0.55383 0.0
H2062 H 0.94655 0.43604 0.5313 0.0
H2063 H 0.89272 0.41657 0.53049 0.0
H2064 H 0.97039 0.48963 0.56394 0.0
H2065 H 0.97951 0.50954 0.50913 0.0
H2066 H 0.94253 0.50253 0.51742 0.0
H2067 H 0.96818 0.47028 0.51351 0.0
C2068 C 0.88008 0.48364 0.54843 0.0
C2069 C 0.87295 0.45551 0.54172 0.0
C2070 C 0.9109 0.49483 0.54877 0.0
C2071 C 0.93504 0.47812 0.54241 0.0
C2072 C 0.92813 0.44963 0.53602 0.0
H2073 H 0.1363 0.5013 0.5521 0.0
H2074 H 0.0819 0.48306 0.55308 0.0
C2075 C 0.89735 0.43849 0.53562 0.0
C2076 C 0.96748 0.49046 0.5424 0.0
H2077 H 0.02676 0.51354 0.52165 0.0
C2078 C 0.98273 0.49499 0.55471 0.0
C2079 C 0.98328 0.49783 0.53034 0.0
C2080 C 0.96747 0.49511 0.51685 0.0
C2081 C 0.01368 0.5062 0.55528 0.0
C2082 C 0.02985 0.51246 0.54319 0.0
C2083 C 0.01438 0.50841 0.5309 0.0
C2084 C 0.0627 0.52374 0.543 0.0
C2085 C 0.02856 0.51171 0.5688 0.0
C2086 C 0.06998 0.55231 0.53676 0.0
C2087 C 0.10101 0.56261 0.53604 0.0
C2088 C 0.12539 0.54446 0.54153 0.0
C2089 C 0.11804 0.51587 0.54782 0.0
C2090 C 0.08695 0.50552 0.54848 0.0
H2091 H 0.01064 0.51397 0.57683 0.0
H2092 H 0.04385 0.49148 0.57132 0.0
H2093 H 0.04325 0.53323 0.56872 0.0
H2094 H 0.05161 0.56666 0.53242 0.0
H2095 H 0.10584 0.58478 0.53114 0.0
loop_
_geom_bond_atom_site_label_1
_geom_bond_atom_site_label_2
_geom_bond_distance
_geom_bond_site_symmetry_2
_ccdc_geom_bond_type
Co0 O2 2.143 . S
Co0 O8 2.074 . S
Co0 O11 2.093 . S
Co0 O24 2.097 . S
Co0 N41 2.151 . S
Co0 N49 2.214 . S
Co1 O2 2.160 . S
Co1 O7 2.058 . S
Co1 O17 2.057 . S
Co1 O32 2.037 . S
Co1 N36 2.145 . S
Co1 N57 2.257 . S
O2 Co0 2.143 . S
O2 Co1 2.160 . S
C3 O4 1.278 . S
C3 O11 1.224 . S
O4 C3 1.278 . S
C5 O6 1.245 . S
C5 O17 1.232 . S
O6 C5 1.245 . S
O7 Co1 2.058 . S
O7 C33 1.269 . S
O8 Co0 2.074 . S
O8 C33 1.257 . S
H9 C34 0.930 . S
H10 C40 0.930 . S
O11 Co0 2.093 . S
O11 C3 1.224 . S
H12 C44 0.929 . S
H13 C46 0.930 . S
H14 C47 0.930 . S
H15 C45 0.929 . S
H16 C48 0.928 . S
O17 Co1 2.057 . S
O17 C5 1.232 . S
H18 C37 0.929 . S
H19 C38 0.929 . S
H20 C50 0.931 . S
H21 C42 0.929 . S
H22 C51 0.930 . S
H23 C43 0.931 . S
O24 Co0 2.097 . S
O24 C52 1.214 . S
H25 C53 0.929 . S
H26 C54 0.929 . S
H27 C55 0.930 . S
H28 C56 0.929 1_655 S
H29 C58 0.930 . S
H30 C35 0.930 . S
H31 C39 0.930 . S
O32 Co1 2.037 . S
O32 C52 1.234 . S
C33 O7 1.269 . S
C33 O8 1.257 . S
C34 H9 0.930 . S
C34 C37 1.388 . S
C34 C39 1.418 . S
C35 H30 0.930 . S
C35 C38 1.404 . S
C35 C39 1.353 . S
N36 Co1 2.145 . S
N36 C37 1.397 . S
N36 C38 1.334 . S
C37 H18 0.929 . S
C37 C34 1.388 . S
C37 N36 1.397 . S
C38 H19 0.929 . S
C38 C35 1.404 . S
C38 N36 1.334 . S
C39 H31 0.930 . S
C39 C34 1.418 . S
C39 C35 1.353 . S
C40 H10 0.930 . S
C40 N41 1.330 . S
C40 C42 1.446 . S
N41 Co0 2.151 . S
N41 C40 1.330 . S
N41 C45 1.418 . S
C42 H21 0.929 . S
C42 C40 1.446 . S
C42 C43 1.332 . S
C43 H23 0.931 . S
C43 C42 1.332 . S
C43 C44 1.267 . S
C44 H12 0.929 . S
C44 C43 1.267 . S
C44 C45 1.251 . S
C45 H15 0.929 . S
C45 N41 1.418 . S
C45 C44 1.251 . S
C46 H13 0.930 . S
C46 C48 1.406 . S
C46 C51 1.261 . S
C47 H14 0.930 . S
C47 N49 1.325 . S
C47 C50 1.357 . S
C48 H16 0.928 . S
C48 C46 1.406 . S
C48 N49 1.261 . S
N49 Co0 2.214 . S
N49 C47 1.325 . S
N49 C48 1.261 . S
C50 H20 0.931 . S
C50 C47 1.357 . S
C50 C51 1.312 . S
C51 H22 0.930 . S
C51 C46 1.261 . S
C51 C50 1.312 . S
C52 O24 1.214 . S
C52 O32 1.234 . S
C53 H25 0.929 . S
C53 C56 1.391 . S
C53 C58 1.391 . S
C54 H26 0.929 . S
C54 C55 1.390 1_455 S
C54 N57 1.391 . S
C55 H27 0.930 . S
C55 C54 1.390 1_655 S
C55 C56 1.392 1_655 S
C56 H28 0.929 1_455 S
C56 C53 1.391 . S
C56 C55 1.392 1_455 S
N57 Co1 2.257 . S
N57 C54 1.391 . S
N57 C58 1.388 . S
C58 H29 0.930 . S
C58 C53 1.391 . S
C58 N57 1.388 . S
Co59 O61 2.143 . S
Co59 O67 2.074 . S
Co59 O70 2.093 . S
Co59 O83 2.097 . S
Co59 N100 2.151 . S
Co59 N108 2.214 . S
Co60 O61 2.160 . S
Co60 O66 2.058 . S
Co60 O76 2.057 . S
Co60 O91 2.037 . S
Co60 N95 2.145 . S
Co60 N116 2.257 . S
O61 Co59 2.143 . S
O61 Co60 2.160 . S
C62 O63 1.278 . S
C62 O70 1.224 . S
O63 C62 1.278 . S
C64 O65 1.245 . S
C64 O76 1.232 . S
O65 C64 1.245 . S
O66 Co60 2.058 . S
O66 C92 1.269 . S
O67 Co59 2.074 . S
O67 C92 1.257 . S
H68 C93 0.930 . S
H69 C99 0.930 . S
O70 Co59 2.093 . S
O70 C62 1.224 . S
H71 C103 0.929 . S
H72 C105 0.930 . S
H73 C106 0.930 . S
H74 C104 0.929 . S
H75 C107 0.928 . S
O76 Co60 2.057 . S
O76 C64 1.232 . S
H77 C96 0.929 . S
H78 C97 0.929 . S
H79 C109 0.931 . S
H80 C101 0.929 . S
H81 C110 0.930 . S
H82 C102 0.931 . S
O83 Co59 2.097 . S
O83 C111 1.214 . S
H84 C112 0.929 . S
H85 C113 0.929 . S
H86 C114 0.930 . S
H87 C115 0.929 1_545 S
H88 C117 0.930 . S
H89 C94 0.930 . S
H90 C98 0.930 . S
O91 Co60 2.037 . S
O91 C111 1.234 . S
C92 O66 1.269 . S
C92 O67 1.257 . S
C93 H68 0.930 . S
C93 C96 1.388 . S
C93 C98 1.418 . S
C94 H89 0.930 . S
C94 C97 1.404 . S
C94 C98 1.353 . S
N95 Co60 2.145 . S
N95 C96 1.397 . S
N95 C97 1.334 . S
C96 H77 0.929 . S
C96 C93 1.388 . S
C96 N95 1.397 . S
C97 H78 0.929 . S
C97 C94 1.404 . S
C97 N95 1.334 . S
C98 H90 0.930 . S
C98 C93 1.418 . S
C98 C94 1.353 . S
C99 H69 0.930 . S
C99 N100 1.330 . S
C99 C101 1.446 . S
N100 Co59 2.151 . S
N100 C99 1.330 . S
N100 C104 1.418 . S
C101 H80 0.929 . S
C101 C99 1.446 . S
C101 C102 1.332 . S
C102 H82 0.931 . S
C102 C101 1.332 . S
C102 C103 1.267 . S
C103 H71 0.929 . S
C103 C102 1.267 . S
C103 C104 1.251 . S
C104 H74 0.929 . S
C104 N100 1.418 . S
C104 C103 1.251 . S
C105 H72 0.930 . S
C105 C107 1.406 . S
C105 C110 1.261 . S
C106 H73 0.930 . S
C106 N108 1.325 . S
C106 C109 1.357 . S
C107 H75 0.928 . S
C107 C105 1.406 . S
C107 N108 1.261 . S
N108 Co59 2.214 . S
N108 C106 1.325 . S
N108 C107 1.261 . S
C109 H79 0.931 . S
C109 C106 1.357 . S
C109 C110 1.312 . S
C110 H81 0.930 . S
C110 C105 1.261 . S
C110 C109 1.312 . S
C111 O83 1.214 . S
C111 O91 1.234 . S
C112 H84 0.929 . S
C112 C115 1.391 . S
C112 C117 1.391 . S
C113 H85 0.929 . S
C113 C114 1.390 1_565 S
C113 N116 1.391 . S
C114 H86 0.930 . S
C114 C113 1.390 1_545 S
C114 C115 1.392 1_545 S
C115 H87 0.929 1_565 S
C115 C112 1.391 . S
C115 C114 1.392 1_565 S
N116 Co60 2.257 . S
N116 C113 1.391 . S
N116 C117 1.388 . S
C117 H88 0.930 . S
C117 C112 1.391 . S
C117 N116 1.388 . S
Co118 O120 2.143 . S
Co118 O126 2.074 . S
Co118 O129 2.093 . S
Co118 O142 2.097 . S
Co118 N159 2.151 . S
Co118 N167 2.214 . S
Co119 O120 2.160 . S
Co119 O125 2.058 . S
Co119 O135 2.057 . S
Co119 O150 2.037 . S
Co119 N154 2.145 . S
Co119 N175 2.257 . S
O120 Co118 2.143 . S
O120 Co119 2.160 . S
C121 O122 1.278 . S
C121 O129 1.224 . S
O122 C121 1.278 . S
C123 O124 1.245 . S
C123 O135 1.232 . S
O124 C123 1.245 . S
O125 Co119 2.058 . S
O125 C151 1.269 . S
O126 Co118 2.074 . S
O126 C151 1.257 . S
H127 C152 0.930 . S
H128 C158 0.930 . S
O129 Co118 2.093 . S
O129 C121 1.224 . S
H130 C162 0.929 . S
H131 C164 0.930 . S
H132 C165 0.930 . S
H133 C163 0.929 . S
H134 C166 0.928 . S
O135 Co119 2.057 . S
O135 C123 1.232 . S
H136 C155 0.929 . S
H137 C156 0.929 . S
H138 C168 0.931 . S
H139 C160 0.929 . S
H140 C169 0.930 . S
H141 C161 0.931 . S
O142 Co118 2.097 . S
O142 C170 1.214 . S
H143 C171 0.929 . S
H144 C172 0.929 . S
H145 C173 0.930 . S
H146 C174 0.929 1_455 S
H147 C176 0.930 . S
H148 C153 0.930 . S
H149 C157 0.930 . S
O150 Co119 2.037 . S
O150 C170 1.234 . S
C151 O125 1.269 . S
C151 O126 1.257 . S
C152 H127 0.930 . S
C152 C155 1.388 . S
C152 C157 1.418 . S
C153 H148 0.930 . S
C153 C156 1.404 . S
C153 C157 1.353 . S
N154 Co119 2.145 . S
N154 C155 1.397 . S
N154 C156 1.334 . S
C155 H136 0.929 . S
C155 C152 1.388 . S
C155 N154 1.397 . S
C156 H137 0.929 . S
C156 C153 1.404 . S
C156 N154 1.334 . S
C157 H149 0.930 . S
C157 C152 1.418 . S
C157 C153 1.353 . S
C158 H128 0.930 . S
C158 N159 1.330 . S
C158 C160 1.446 . S
N159 Co118 2.151 . S
N159 C158 1.330 . S
N159 C163 1.418 . S
C160 H139 0.929 . S
C160 C158 1.446 . S
C160 C161 1.332 . S
C161 H141 0.931 . S
C161 C160 1.332 . S
C161 C162 1.267 . S
C162 H130 0.929 . S
C162 C161 1.267 . S
C162 C163 1.251 . S
C163 H133 0.929 . S
C163 N159 1.418 . S
C163 C162 1.251 . S
C164 H131 0.930 . S
C164 C166 1.406 . S
C164 C169 1.261 . S
C165 H132 0.930 . S
C165 N167 1.325 . S
C165 C168 1.357 . S
C166 H134 0.928 . S
C166 C164 1.406 . S
C166 N167 1.261 . S
N167 Co118 2.214 . S
N167 C165 1.325 . S
N167 C166 1.261 . S
C168 H138 0.931 . S
C168 C165 1.357 . S
C168 C169 1.312 . S
C169 H140 0.930 . S
C169 C164 1.261 . S
C169 C168 1.312 . S
C170 O142 1.214 . S
C170 O150 1.234 . S
C171 H143 0.929 . S
C171 C174 1.391 . S
C171 C176 1.391 . S
C172 H144 0.929 . S
C172 C173 1.390 1_655 S
C172 N175 1.391 . S
C173 H145 0.930 . S
C173 C172 1.390 1_455 S
C173 C174 1.392 1_455 S
C174 H146 0.929 1_655 S
C174 C171 1.391 . S
C174 C173 1.392 1_655 S
N175 Co119 2.257 . S
N175 C172 1.391 . S
N175 C176 1.388 . S
C176 H147 0.930 . S
C176 C171 1.391 . S
C176 N175 1.388 . S
Co177 O179 2.143 . S
Co177 O185 2.074 . S
Co177 O188 2.093 . S
Co177 O201 2.097 . S
Co177 N218 2.151 . S
Co177 N226 2.214 . S
Co178 O179 2.160 . S
Co178 O184 2.058 . S
Co178 O194 2.057 . S
Co178 O209 2.037 . S
Co178 N213 2.145 . S
Co178 N234 2.257 . S
O179 Co177 2.143 . S
O179 Co178 2.160 . S
C180 O181 1.278 . S
C180 O188 1.224 . S
O181 C180 1.278 . S
C182 O183 1.245 . S
C182 O194 1.232 . S
O183 C182 1.245 . S
O184 Co178 2.058 . S
O184 C210 1.269 . S
O185 Co177 2.074 . S
O185 C210 1.257 . S
H186 C211 0.930 . S
H187 C217 0.930 . S
O188 Co177 2.093 . S
O188 C180 1.224 . S
H189 C221 0.929 . S
H190 C223 0.930 . S
H191 C224 0.930 . S
H192 C222 0.929 . S
H193 C225 0.928 . S
O194 Co178 2.057 . S
O194 C182 1.232 . S
H195 C214 0.929 . S
H196 C215 0.929 . S
H197 C227 0.931 . S
H198 C219 0.929 . S
H199 C228 0.930 . S
H200 C220 0.931 . S
O201 Co177 2.097 . S
O201 C229 1.214 . S
H202 C230 0.929 . S
H203 C231 0.929 . S
H204 C232 0.930 . S
H205 C233 0.929 1_565 S
H206 C235 0.930 . S
H207 C212 0.930 . S
H208 C216 0.930 . S
O209 Co178 2.037 . S
O209 C229 1.234 . S
C210 O184 1.269 . S
C210 O185 1.257 . S
C211 H186 0.930 . S
C211 C214 1.388 . S
C211 C216 1.418 . S
C212 H207 0.930 . S
C212 C215 1.404 . S
C212 C216 1.353 . S
N213 Co178 2.145 . S
N213 C214 1.397 . S
N213 C215 1.334 . S
C214 H195 0.929 . S
C214 C211 1.388 . S
C214 N213 1.397 . S
C215 H196 0.929 . S
C215 C212 1.404 . S
C215 N213 1.334 . S
C216 H208 0.930 . S
C216 C211 1.418 . S
C216 C212 1.353 . S
C217 H187 0.930 . S
C217 N218 1.330 . S
C217 C219 1.446 . S
N218 Co177 2.151 . S
N218 C217 1.330 . S
N218 C222 1.418 . S
C219 H198 0.929 . S
C219 C217 1.446 . S
C219 C220 1.332 . S
C220 H200 0.931 . S
C220 C219 1.332 . S
C220 C221 1.267 . S
C221 H189 0.929 . S
C221 C220 1.267 . S
C221 C222 1.251 . S
C222 H192 0.929 . S
C222 N218 1.418 . S
C222 C221 1.251 . S
C223 H190 0.930 . S
C223 C225 1.406 . S
C223 C228 1.261 . S
C224 H191 0.930 . S
C224 N226 1.325 . S
C224 C227 1.357 . S
C225 H193 0.928 . S
C225 C223 1.406 . S
C225 N226 1.261 . S
N226 Co177 2.214 . S
N226 C224 1.325 . S
N226 C225 1.261 . S
C227 H197 0.931 . S
C227 C224 1.357 . S
C227 C228 1.312 . S
C228 H199 0.930 . S
C228 C223 1.261 . S
C228 C227 1.312 . S
C229 O201 1.214 . S
C229 O209 1.234 . S
C230 H202 0.929 . S
C230 C233 1.391 . S
C230 C235 1.391 . S
C231 H203 0.929 . S
C231 C232 1.390 1_545 S
C231 N234 1.391 . S
C232 H204 0.930 . S
C232 C231 1.390 1_565 S
C232 C233 1.392 1_565 S
C233 H205 0.929 1_545 S
C233 C230 1.391 . S
C233 C232 1.392 1_545 S
N234 Co178 2.257 . S
N234 C231 1.391 . S
N234 C235 1.388 . S
C235 H206 0.930 . S
C235 C230 1.391 . S
C235 N234 1.388 . S
Co236 O238 2.143 . S
Co236 O244 2.074 . S
Co236 O247 2.093 . S
Co236 O260 2.097 . S
Co236 N277 2.151 . S
Co236 N285 2.214 . S
Co237 O238 2.160 . S
Co237 O243 2.058 . S
Co237 O253 2.057 . S
Co237 O268 2.037 . S
Co237 N272 2.145 . S
Co237 N293 2.257 . S
O238 Co236 2.143 . S
O238 Co237 2.160 . S
C239 O240 1.278 . S
C239 O247 1.224 . S
O240 C239 1.278 . S
C241 O242 1.245 . S
C241 O253 1.232 . S
O242 C241 1.245 . S
O243 Co237 2.058 . S
O243 C269 1.269 . S
O244 Co236 2.074 . S
O244 C269 1.257 . S
H245 C270 0.930 . S
H246 C276 0.930 . S
O247 Co236 2.093 . S
O247 C239 1.224 . S
H248 C280 0.993 . S
H249 C282 0.930 . S
H250 C283 0.930 1_556 S
H251 C281 0.929 . S
H252 C284 0.915 1_556 S
O253 Co237 2.057 . S
O253 C241 1.232 . S
H254 C273 0.929 . S
H255 C274 0.929 . S
H256 C286 0.931 . S
H257 C278 0.929 . S
H258 C287 0.930 . S
H259 C279 0.931 . S
O260 Co236 2.097 . S
O260 C288 1.214 . S
H261 C289 0.929 . S
H262 C290 0.929 . S
H263 C291 0.930 . S
H264 C292 0.929 1_655 S
H265 C294 0.930 . S
H266 C271 0.930 . S
H267 C275 0.930 . S
O268 Co237 2.037 . S
O268 C288 1.234 . S
C269 O243 1.269 . S
C269 O244 1.257 . S
C270 H245 0.930 . S
C270 C273 1.388 . S
C270 C275 1.418 . S
C271 H266 0.930 . S
C271 C274 1.404 . S
C271 C275 1.353 . S
N272 Co237 2.145 . S
N272 C273 1.397 . S
N272 C274 1.334 . S
C273 H254 0.929 . S
C273 C270 1.388 . S
C273 N272 1.397 . S
C274 H255 0.929 . S
C274 C271 1.404 . S
C274 N272 1.334 . S
C275 H267 0.930 . S
C275 C270 1.418 . S
C275 C271 1.353 . S
C276 H246 0.930 . S
C276 N277 1.330 . S
C276 C278 1.446 . S
N277 Co236 2.151 . S
N277 C276 1.330 . S
N277 C281 1.418 . S
C278 H257 0.929 . S
C278 C276 1.446 . S
C278 C279 1.332 . S
C279 H259 0.931 . S
C279 C278 1.332 . S
C279 C280 1.267 . S
C280 H248 0.993 . S
C280 C279 1.267 . S
C280 C281 1.251 . S
C281 H251 0.929 . S
C281 N277 1.418 . S
C281 C280 1.251 . S
C282 H249 0.930 . S
C282 C284 1.406 . S
C282 C287 1.261 . S
C283 H250 0.930 1_554 S
C283 N285 1.325 1_554 S
C283 C286 1.357 . S
C284 H252 0.915 1_554 S
C284 C282 1.406 . S
C284 N285 1.261 1_554 S
N285 Co236 2.214 . S
N285 C283 1.325 1_556 S
N285 C284 1.261 1_556 S
C286 H256 0.931 . S
C286 C283 1.357 . S
C286 C287 1.312 . S
C287 H258 0.930 . S
C287 C282 1.261 . S
C287 C286 1.312 . S
C288 O260 1.214 . S
C288 O268 1.234 . S
C289 H261 0.929 . S
C289 C292 1.391 . S
C289 C294 1.391 . S
C290 H262 0.929 . S
C290 C291 1.390 1_455 S
C290 N293 1.391 . S
C291 H263 0.930 . S
C291 C290 1.390 1_655 S
C291 C292 1.392 1_655 S
C292 H264 0.929 1_455 S
C292 C289 1.391 . S
C292 C291 1.392 1_455 S
N293 Co237 2.257 . S
N293 C290 1.391 . S
N293 C294 1.388 . S
C294 H265 0.930 . S
C294 C289 1.391 . S
C294 N293 1.388 . S
Co295 O297 2.143 . S
Co295 O303 2.074 . S
Co295 O306 2.093 . S
Co295 O319 2.097 . S
Co295 N336 2.151 . S
Co295 N344 2.214 . S
Co296 O297 2.160 . S
Co296 O302 2.058 . S
Co296 O312 2.057 . S
Co296 O327 2.037 . S
Co296 N331 2.145 . S
Co296 N352 2.257 . S
O297 Co295 2.143 . S
O297 Co296 2.160 . S
C298 O299 1.278 . S
C298 O306 1.224 . S
O299 C298 1.278 . S
C300 O301 1.245 . S
C300 O312 1.232 . S
O301 C300 1.245 . S
O302 Co296 2.058 . S
O302 C328 1.269 . S
O303 Co295 2.074 . S
O303 C328 1.257 . S
H304 C329 0.930 . S
H305 C335 0.930 . S
O306 Co295 2.093 . S
O306 C298 1.224 . S
H307 C339 0.993 . S
H308 C341 0.930 . S
H309 C342 0.930 1_554 S
H310 C340 0.929 . S
H311 C343 0.915 1_554 S
O312 Co296 2.057 . S
O312 C300 1.232 . S
H313 C332 0.929 . S
H314 C333 0.929 . S
H315 C345 0.931 . S
H316 C337 0.929 . S
H317 C346 0.930 . S
H318 C338 0.931 . S
O319 Co295 2.097 . S
O319 C347 1.214 . S
H320 C348 0.929 . S
H321 C349 0.929 . S
H322 C350 0.930 . S
H323 C351 0.929 1_545 S
H324 C353 0.930 . S
H325 C330 0.930 . S
H326 C334 0.930 . S
O327 Co296 2.037 . S
O327 C347 1.234 . S
C328 O302 1.269 . S
C328 O303 1.257 . S
C329 H304 0.930 . S
C329 C332 1.388 . S
C329 C334 1.418 . S
C330 H325 0.930 . S
C330 C333 1.404 . S
C330 C334 1.353 . S
N331 Co296 2.145 . S
N331 C332 1.397 . S
N331 C333 1.334 . S
C332 H313 0.929 . S
C332 C329 1.388 . S
C332 N331 1.397 . S
C333 H314 0.929 . S
C333 C330 1.404 . S
C333 N331 1.334 . S
C334 H326 0.930 . S
C334 C329 1.418 . S
C334 C330 1.353 . S
C335 H305 0.930 . S
C335 N336 1.330 . S
C335 C337 1.446 . S
N336 Co295 2.151 . S
N336 C335 1.330 . S
N336 C340 1.418 . S
C337 H316 0.929 . S
C337 C335 1.446 . S
C337 C338 1.332 . S
C338 H318 0.931 . S
C338 C337 1.332 . S
C338 C339 1.267 . S
C339 H307 0.993 . S
C339 C338 1.267 . S
C339 C340 1.251 . S
C340 H310 0.929 . S
C340 N336 1.418 . S
C340 C339 1.251 . S
C341 H308 0.930 . S
C341 C343 1.406 . S
C341 C346 1.261 . S
C342 H309 0.930 1_556 S
C342 N344 1.325 1_556 S
C342 C345 1.357 . S
C343 H311 0.915 1_556 S
C343 C341 1.406 . S
C343 N344 1.261 1_556 S
N344 Co295 2.214 . S
N344 C342 1.325 1_554 S
N344 C343 1.261 1_554 S
C345 H315 0.931 . S
C345 C342 1.357 . S
C345 C346 1.312 . S
C346 H317 0.930 . S
C346 C341 1.261 . S
C346 C345 1.312 . S
C347 O319 1.214 . S
C347 O327 1.234 . S
C348 H320 0.929 . S
C348 C351 1.391 . S
C348 C353 1.391 . S
C349 H321 0.929 . S
C349 C350 1.390 1_565 S
C349 N352 1.391 . S
C350 H322 0.930 . S
C350 C349 1.390 1_545 S
C350 C351 1.392 1_545 S
C351 H323 0.929 1_565 S
C351 C348 1.391 . S
C351 C350 1.392 1_565 S
N352 Co296 2.257 . S
N352 C349 1.391 . S
N352 C353 1.388 . S
C353 H324 0.930 . S
C353 C348 1.391 . S
C353 N352 1.388 . S
Co354 O356 2.143 . S
Co354 O362 2.074 . S
Co354 O365 2.093 . S
Co354 O378 2.097 . S
Co354 N395 2.151 . S
Co354 N403 2.214 . S
Co355 O356 2.160 . S
Co355 O361 2.058 . S
Co355 O371 2.057 . S
Co355 O386 2.037 . S
Co355 N390 2.145 . S
Co355 N411 2.257 . S
O356 Co354 2.143 . S
O356 Co355 2.160 . S
C357 O358 1.278 . S
C357 O365 1.224 . S
O358 C357 1.278 . S
C359 O360 1.245 . S
C359 O371 1.232 . S
O360 C359 1.245 . S
O361 Co355 2.058 . S
O361 C387 1.269 . S
O362 Co354 2.074 . S
O362 C387 1.257 . S
H363 C388 0.930 . S
H364 C394 0.930 . S
O365 Co354 2.093 . S
O365 C357 1.224 . S
H366 C398 0.993 . S
H367 C400 0.930 . S
H368 C401 0.930 1_556 S
H369 C399 0.929 . S
H370 C402 0.915 1_556 S
O371 Co355 2.057 . S
O371 C359 1.232 . S
H372 C391 0.929 . S
H373 C392 0.929 . S
H374 C404 0.931 . S
H375 C396 0.929 . S
H376 C405 0.930 . S
H377 C397 0.931 . S
O378 Co354 2.097 . S
O378 C406 1.214 . S
H379 C407 0.929 . S
H380 C408 0.929 . S
H381 C409 0.930 . S
H382 C410 0.929 1_455 S
H383 C412 0.930 . S
H384 C389 0.930 . S
H385 C393 0.930 . S
O386 Co355 2.037 . S
O386 C406 1.234 . S
C387 O361 1.269 . S
C387 O362 1.257 . S
C388 H363 0.930 . S
C388 C391 1.388 . S
C388 C393 1.418 . S
C389 H384 0.930 . S
C389 C392 1.404 . S
C389 C393 1.353 . S
N390 Co355 2.145 . S
N390 C391 1.397 . S
N390 C392 1.334 . S
C391 H372 0.929 . S
C391 C388 1.388 . S
C391 N390 1.397 . S
C392 H373 0.929 . S
C392 C389 1.404 . S
C392 N390 1.334 . S
C393 H385 0.930 . S
C393 C388 1.418 . S
C393 C389 1.353 . S
C394 H364 0.930 . S
C394 N395 1.330 . S
C394 C396 1.446 . S
N395 Co354 2.151 . S
N395 C394 1.330 . S
N395 C399 1.418 . S
C396 H375 0.929 . S
C396 C394 1.446 . S
C396 C397 1.332 . S
C397 H377 0.931 . S
C397 C396 1.332 . S
C397 C398 1.267 . S
C398 H366 0.993 . S
C398 C397 1.267 . S
C398 C399 1.251 . S
C399 H369 0.929 . S
C399 N395 1.418 . S
C399 C398 1.251 . S
C400 H367 0.930 . S
C400 C402 1.406 . S
C400 C405 1.261 . S
C401 H368 0.930 1_554 S
C401 N403 1.325 1_554 S
C401 C404 1.357 . S
C402 H370 0.915 1_554 S
C402 C400 1.406 . S
C402 N403 1.261 1_554 S
N403 Co354 2.214 . S
N403 C401 1.325 1_556 S
N403 C402 1.261 1_556 S
C404 H374 0.931 . S
C404 C401 1.357 . S
C404 C405 1.312 . S
C405 H376 0.930 . S
C405 C400 1.261 . S
C405 C404 1.312 . S
C406 O378 1.214 . S
C406 O386 1.234 . S
C407 H379 0.929 . S
C407 C410 1.391 . S
C407 C412 1.391 . S
C408 H380 0.929 . S
C408 C409 1.390 1_655 S
C408 N411 1.391 . S
C409 H381 0.930 . S
C409 C408 1.390 1_455 S
C409 C410 1.392 1_455 S
C410 H382 0.929 1_655 S
C410 C407 1.391 . S
C410 C409 1.392 1_655 S
N411 Co355 2.257 . S
N411 C408 1.391 . S
N411 C412 1.388 . S
C412 H383 0.930 . S
C412 C407 1.391 . S
C412 N411 1.388 . S
Co413 O415 2.143 . S
Co413 O421 2.074 . S
Co413 O424 2.093 . S
Co413 O437 2.097 . S
Co413 N454 2.151 . S
Co413 N462 2.214 . S
Co414 O415 2.160 . S
Co414 O420 2.058 . S
Co414 O430 2.057 . S
Co414 O445 2.037 . S
Co414 N449 2.145 . S
Co414 N470 2.257 . S
O415 Co413 2.143 . S
O415 Co414 2.160 . S
C416 O417 1.278 . S
C416 O424 1.224 . S
O417 C416 1.278 . S
C418 O419 1.245 . S
C418 O430 1.232 . S
O419 C418 1.245 . S
O420 Co414 2.058 . S
O420 C446 1.269 . S
O421 Co413 2.074 . S
O421 C446 1.257 . S
H422 C447 0.930 . S
H423 C453 0.930 . S
O424 Co413 2.093 . S
O424 C416 1.224 . S
H425 C457 0.993 . S
H426 C459 0.930 . S
H427 C460 0.930 1_554 S
H428 C458 0.929 . S
H429 C461 0.915 1_554 S
O430 Co414 2.057 . S
O430 C418 1.232 . S
H431 C450 0.929 . S
H432 C451 0.929 . S
H433 C463 0.931 . S
H434 C455 0.929 . S
H435 C464 0.930 . S
H436 C456 0.931 . S
O437 Co413 2.097 . S
O437 C465 1.214 . S
H438 C466 0.929 . S
H439 C467 0.929 . S
H440 C468 0.930 . S
H441 C469 0.929 1_565 S
H442 C471 0.930 . S
H443 C448 0.930 . S
H444 C452 0.930 . S
O445 Co414 2.037 . S
O445 C465 1.234 . S
C446 O420 1.269 . S
C446 O421 1.257 . S
C447 H422 0.930 . S
C447 C450 1.388 . S
C447 C452 1.418 . S
C448 H443 0.930 . S
C448 C451 1.404 . S
C448 C452 1.353 . S
N449 Co414 2.145 . S
N449 C450 1.397 . S
N449 C451 1.334 . S
C450 H431 0.929 . S
C450 C447 1.388 . S
C450 N449 1.397 . S
C451 H432 0.929 . S
C451 C448 1.404 . S
C451 N449 1.334 . S
C452 H444 0.930 . S
C452 C447 1.418 . S
C452 C448 1.353 . S
C453 H423 0.930 . S
C453 N454 1.330 . S
C453 C455 1.446 . S
N454 Co413 2.151 . S
N454 C453 1.330 . S
N454 C458 1.418 . S
C455 H434 0.929 . S
C455 C453 1.446 . S
C455 C456 1.332 . S
C456 H436 0.931 . S
C456 C455 1.332 . S
C456 C457 1.267 . S
C457 H425 0.993 . S
C457 C456 1.267 . S
C457 C458 1.251 . S
C458 H428 0.929 . S
C458 N454 1.418 . S
C458 C457 1.251 . S
C459 H426 0.930 . S
C459 C461 1.406 . S
C459 C464 1.261 . S
C460 H427 0.930 1_556 S
C460 N462 1.325 1_556 S
C460 C463 1.357 . S
C461 H429 0.915 1_556 S
C461 C459 1.406 . S
C461 N462 1.261 1_556 S
N462 Co413 2.214 . S
N462 C460 1.325 1_554 S
N462 C461 1.261 1_554 S
C463 H433 0.931 . S
C463 C460 1.357 . S
C463 C464 1.312 . S
C464 H435 0.930 . S
C464 C459 1.261 . S
C464 C463 1.312 . S
C465 O437 1.214 . S
C465 O445 1.234 . S
C466 H438 0.929 . S
C466 C469 1.391 . S
C466 C471 1.391 . S
C467 H439 0.929 . S
C467 C468 1.390 1_545 S
C467 N470 1.391 . S
C468 H440 0.930 . S
C468 C467 1.390 1_565 S
C468 C469 1.392 1_565 S
C469 H441 0.929 1_545 S
C469 C466 1.391 . S
C469 C468 1.392 1_545 S
N470 Co414 2.257 . S
N470 C467 1.391 . S
N470 C471 1.388 . S
C471 H442 0.930 . S
C471 C466 1.391 . S
C471 N470 1.388 . S
Co472 O474 2.143 . S
Co472 O480 2.074 . S
Co472 O483 2.093 . S
Co472 O496 2.097 . S
Co472 N513 2.151 . S
Co472 N521 2.214 . S
Co473 O474 2.160 . S
Co473 O479 2.058 . S
Co473 O489 2.057 . S
Co473 O504 2.037 . S
Co473 N508 2.145 . S
Co473 N529 2.257 . S
O474 Co472 2.143 . S
O474 Co473 2.160 . S
C475 O476 1.278 . S
C475 O483 1.224 . S
O476 C475 1.278 . S
C477 O478 1.245 . S
C477 O489 1.232 . S
O478 C477 1.245 . S
O479 Co473 2.058 . S
O479 C505 1.269 . S
O480 Co472 2.074 . S
O480 C505 1.257 . S
H481 C506 0.930 . S
H482 C512 0.930 . S
O483 Co472 2.093 . S
O483 C475 1.224 . S
H484 C516 0.929 . S
H485 C518 0.930 . S
H486 C519 0.930 . S
H487 C517 0.929 . S
H488 C520 0.928 . S
O489 Co473 2.057 . S
O489 C477 1.232 . S
H490 C509 0.929 . S
H491 C510 0.929 . S
H492 C522 0.931 . S
H493 C514 0.929 . S
H494 C523 0.930 . S
H495 C515 0.931 . S
O496 Co472 2.097 . S
O496 C524 1.214 . S
H497 C525 0.929 . S
H498 C526 0.929 . S
H499 C527 0.930 . S
H500 C528 0.929 . S
H501 C530 0.930 . S
H502 C507 0.930 . S
H503 C511 0.930 . S
O504 Co473 2.037 . S
O504 C524 1.234 . S
C505 O479 1.269 . S
C505 O480 1.257 . S
C506 H481 0.930 . S
C506 C509 1.388 . S
C506 C511 1.418 . S
C507 H502 0.930 . S
C507 C510 1.404 . S
C507 C511 1.353 . S
N508 Co473 2.145 . S
N508 C509 1.397 . S
N508 C510 1.334 . S
C509 H490 0.929 . S
C509 C506 1.388 . S
C509 N508 1.397 . S
C510 H491 0.929 . S
C510 C507 1.404 . S
C510 N508 1.334 . S
C511 H503 0.930 . S
C511 C506 1.418 . S
C511 C507 1.353 . S
C512 H482 0.930 . S
C512 N513 1.330 . S
C512 C514 1.446 . S
N513 Co472 2.151 . S
N513 C512 1.330 . S
N513 C517 1.418 . S
C514 H493 0.929 . S
C514 C512 1.446 . S
C514 C515 1.332 . S
C515 H495 0.931 . S
C515 C514 1.332 . S
C515 C516 1.267 . S
C516 H484 0.929 . S
C516 C515 1.267 . S
C516 C517 1.251 . S
C517 H487 0.929 . S
C517 N513 1.418 . S
C517 C516 1.251 . S
C518 H485 0.930 . S
C518 C520 1.406 . S
C518 C523 1.261 . S
C519 H486 0.930 . S
C519 N521 1.325 . S
C519 C522 1.357 . S
C520 H488 0.928 . S
C520 C518 1.406 . S
C520 N521 1.261 . S
N521 Co472 2.214 . S
N521 C519 1.325 . S
N521 C520 1.261 . S
C522 H492 0.931 . S
C522 C519 1.357 . S
C522 C523 1.312 . S
C523 H494 0.930 . S
C523 C518 1.261 . S
C523 C522 1.312 . S
C524 O496 1.214 . S
C524 O504 1.234 . S
C525 H497 0.929 . S
C525 C528 1.391 . S
C525 C530 1.391 . S
C526 H498 0.929 . S
C526 C527 1.390 . S
C526 N529 1.391 . S
C527 H499 0.930 . S
C527 C526 1.390 . S
C527 C528 1.392 . S
C528 H500 0.929 . S
C528 C525 1.391 . S
C528 C527 1.392 . S
N529 Co473 2.257 . S
N529 C526 1.391 . S
N529 C530 1.388 . S
C530 H501 0.930 . S
C530 C525 1.391 . S
C530 N529 1.388 . S
Co531 O533 2.143 . S
Co531 O539 2.074 . S
Co531 O542 2.093 . S
Co531 O555 2.097 . S
Co531 N572 2.151 . S
Co531 N580 2.214 . S
Co532 O533 2.160 . S
Co532 O538 2.058 . S
Co532 O548 2.057 . S
Co532 O563 2.037 . S
Co532 N567 2.145 . S
Co532 N588 2.257 . S
O533 Co531 2.143 . S
O533 Co532 2.160 . S
C534 O535 1.278 . S
C534 O542 1.224 . S
O535 C534 1.278 . S
C536 O537 1.245 . S
C536 O548 1.232 . S
O537 C536 1.245 . S
O538 Co532 2.058 . S
O538 C564 1.269 . S
O539 Co531 2.074 . S
O539 C564 1.257 . S
H540 C565 0.930 . S
H541 C571 0.930 . S
O542 Co531 2.093 . S
O542 C534 1.224 . S
H543 C575 0.929 . S
H544 C577 0.930 . S
H545 C578 0.930 . S
H546 C576 0.929 . S
H547 C579 0.928 . S
O548 Co532 2.057 . S
O548 C536 1.232 . S
H549 C568 0.929 . S
H550 C569 0.929 . S
H551 C581 0.931 . S
H552 C573 0.929 . S
H553 C582 0.930 . S
H554 C574 0.931 . S
O555 Co531 2.097 . S
O555 C583 1.214 . S
H556 C584 0.929 . S
H557 C585 0.929 . S
H558 C586 0.930 . S
H559 C587 0.929 . S
H560 C589 0.930 . S
H561 C566 0.930 . S
H562 C570 0.930 . S
O563 Co532 2.037 . S
O563 C583 1.234 . S
C564 O538 1.269 . S
C564 O539 1.257 . S
C565 H540 0.930 . S
C565 C568 1.388 . S
C565 C570 1.418 . S
C566 H561 0.930 . S
C566 C569 1.404 . S
C566 C570 1.353 . S
N567 Co532 2.145 . S
N567 C568 1.397 . S
N567 C569 1.334 . S
C568 H549 0.929 . S
C568 C565 1.388 . S
C568 N567 1.397 . S
C569 H550 0.929 . S
C569 C566 1.404 . S
C569 N567 1.334 . S
C570 H562 0.930 . S
C570 C565 1.418 . S
C570 C566 1.353 . S
C571 H541 0.930 . S
C571 N572 1.330 . S
C571 C573 1.446 . S
N572 Co531 2.151 . S
N572 C571 1.330 . S
N572 C576 1.418 . S
C573 H552 0.929 . S
C573 C571 1.446 . S
C573 C574 1.332 . S
C574 H554 0.931 . S
C574 C573 1.332 . S
C574 C575 1.267 . S
C575 H543 0.929 . S
C575 C574 1.267 . S
C575 C576 1.251 . S
C576 H546 0.929 . S
C576 N572 1.418 . S
C576 C575 1.251 . S
C577 H544 0.930 . S
C577 C579 1.406 . S
C577 C582 1.261 . S
C578 H545 0.930 . S
C578 N580 1.325 . S
C578 C581 1.357 . S
C579 H547 0.928 . S
C579 C577 1.406 . S
C579 N580 1.261 . S
N580 Co531 2.214 . S
N580 C578 1.325 . S
N580 C579 1.261 . S
C581 H551 0.931 . S
C581 C578 1.357 . S
C581 C582 1.312 . S
C582 H553 0.930 . S
C582 C577 1.261 . S
C582 C581 1.312 . S
C583 O555 1.214 . S
C583 O563 1.234 . S
C584 H556 0.929 . S
C584 C587 1.391 . S
C584 C589 1.391 . S
C585 H557 0.929 . S
C585 C586 1.390 . S
C585 N588 1.391 . S
C586 H558 0.930 . S
C586 C585 1.390 . S
C586 C587 1.392 . S
C587 H559 0.929 . S
C587 C584 1.391 . S
C587 C586 1.392 . S
N588 Co532 2.257 . S
N588 C585 1.391 . S
N588 C589 1.388 . S
C589 H560 0.930 . S
C589 C584 1.391 . S
C589 N588 1.388 . S
Co590 O592 2.143 . S
Co590 O598 2.074 . S
Co590 O601 2.093 . S
Co590 O614 2.097 . S
Co590 N631 2.151 . S
Co590 N639 2.214 . S
Co591 O592 2.160 . S
Co591 O597 2.058 . S
Co591 O607 2.057 . S
Co591 O622 2.037 . S
Co591 N626 2.145 . S
Co591 N647 2.257 . S
O592 Co590 2.143 . S
O592 Co591 2.160 . S
C593 O594 1.278 . S
C593 O601 1.224 . S
O594 C593 1.278 . S
C595 O596 1.245 . S
C595 O607 1.232 . S
O596 C595 1.245 . S
O597 Co591 2.058 . S
O597 C623 1.269 . S
O598 Co590 2.074 . S
O598 C623 1.257 . S
H599 C624 0.930 . S
H600 C630 0.930 . S
O601 Co590 2.093 . S
O601 C593 1.224 . S
H602 C634 0.929 . S
H603 C636 0.930 . S
H604 C637 0.930 . S
H605 C635 0.929 . S
H606 C638 0.928 . S
O607 Co591 2.057 . S
O607 C595 1.232 . S
H608 C627 0.929 . S
H609 C628 0.929 . S
H610 C640 0.931 . S
H611 C632 0.929 . S
H612 C641 0.930 . S
H613 C633 0.931 . S
O614 Co590 2.097 . S
O614 C642 1.214 . S
H615 C643 0.929 . S
H616 C644 0.929 . S
H617 C645 0.930 . S
H618 C646 0.929 . S
H619 C648 0.930 . S
H620 C625 0.930 . S
H621 C629 0.930 . S
O622 Co591 2.037 . S
O622 C642 1.234 . S
C623 O597 1.269 . S
C623 O598 1.257 . S
C624 H599 0.930 . S
C624 C627 1.388 . S
C624 C629 1.418 . S
C625 H620 0.930 . S
C625 C628 1.404 . S
C625 C629 1.353 . S
N626 Co591 2.145 . S
N626 C627 1.397 . S
N626 C628 1.334 . S
C627 H608 0.929 . S
C627 C624 1.388 . S
C627 N626 1.397 . S
C628 H609 0.929 . S
C628 C625 1.404 . S
C628 N626 1.334 . S
C629 H621 0.930 . S
C629 C624 1.418 . S
C629 C625 1.353 . S
C630 H600 0.930 . S
C630 N631 1.330 . S
C630 C632 1.446 . S
N631 Co590 2.151 . S
N631 C630 1.330 . S
N631 C635 1.418 . S
C632 H611 0.929 . S
C632 C630 1.446 . S
C632 C633 1.332 . S
C633 H613 0.931 . S
C633 C632 1.332 . S
C633 C634 1.267 . S
C634 H602 0.929 . S
C634 C633 1.267 . S
C634 C635 1.251 . S
C635 H605 0.929 . S
C635 N631 1.418 . S
C635 C634 1.251 . S
C636 H603 0.930 . S
C636 C638 1.406 . S
C636 C641 1.261 . S
C637 H604 0.930 . S
C637 N639 1.325 . S
C637 C640 1.357 . S
C638 H606 0.928 . S
C638 C636 1.406 . S
C638 N639 1.261 . S
N639 Co590 2.214 . S
N639 C637 1.325 . S
N639 C638 1.261 . S
C640 H610 0.931 . S
C640 C637 1.357 . S
C640 C641 1.312 . S
C641 H612 0.930 . S
C641 C636 1.261 . S
C641 C640 1.312 . S
C642 O614 1.214 . S
C642 O622 1.234 . S
C643 H615 0.929 . S
C643 C646 1.391 . S
C643 C648 1.391 . S
C644 H616 0.929 . S
C644 C645 1.390 . S
C644 N647 1.391 . S
C645 H617 0.930 . S
C645 C644 1.390 . S
C645 C646 1.392 . S
C646 H618 0.929 . S
C646 C643 1.391 . S
C646 C645 1.392 . S
N647 Co591 2.257 . S
N647 C644 1.391 . S
N647 C648 1.388 . S
C648 H619 0.930 . S
C648 C643 1.391 . S
C648 N647 1.388 . S
Co649 O651 2.143 . S
Co649 O657 2.074 . S
Co649 O660 2.093 . S
Co649 O673 2.097 . S
Co649 N690 2.151 . S
Co649 N698 2.214 . S
Co650 O651 2.160 . S
Co650 O656 2.058 . S
Co650 O666 2.057 . S
Co650 O681 2.037 . S
Co650 N685 2.145 . S
Co650 N706 2.257 . S
O651 Co649 2.143 . S
O651 Co650 2.160 . S
C652 O653 1.278 . S
C652 O660 1.224 . S
O653 C652 1.278 . S
C654 O655 1.245 . S
C654 O666 1.232 . S
O655 C654 1.245 . S
O656 Co650 2.058 . S
O656 C682 1.269 . S
O657 Co649 2.074 . S
O657 C682 1.257 . S
H658 C683 0.930 . S
H659 C689 0.930 . S
O660 Co649 2.093 . S
O660 C652 1.224 . S
H661 C693 0.929 . S
H662 C695 0.930 . S
H663 C696 0.930 . S
H664 C694 0.929 . S
H665 C697 0.928 . S
O666 Co650 2.057 . S
O666 C654 1.232 . S
H667 C686 0.929 . S
H668 C687 0.929 . S
H669 C699 0.931 . S
H670 C691 0.929 . S
H671 C700 0.930 . S
H672 C692 0.931 . S
O673 Co649 2.097 . S
O673 C701 1.214 . S
H674 C702 0.929 . S
H675 C703 0.929 . S
H676 C704 0.930 . S
H677 C705 0.929 . S
H678 C707 0.930 . S
H679 C684 0.930 . S
H680 C688 0.930 . S
O681 Co650 2.037 . S
O681 C701 1.234 . S
C682 O656 1.269 . S
C682 O657 1.257 . S
C683 H658 0.930 . S
C683 C686 1.388 . S
C683 C688 1.418 . S
C684 H679 0.930 . S
C684 C687 1.404 . S
C684 C688 1.353 . S
N685 Co650 2.145 . S
N685 C686 1.397 . S
N685 C687 1.334 . S
C686 H667 0.929 . S
C686 C683 1.388 . S
C686 N685 1.397 . S
C687 H668 0.929 . S
C687 C684 1.404 . S
C687 N685 1.334 . S
C688 H680 0.930 . S
C688 C683 1.418 . S
C688 C684 1.353 . S
C689 H659 0.930 . S
C689 N690 1.330 . S
C689 C691 1.446 . S
N690 Co649 2.151 . S
N690 C689 1.330 . S
N690 C694 1.418 . S
C691 H670 0.929 . S
C691 C689 1.446 . S
C691 C692 1.332 . S
C692 H672 0.931 . S
C692 C691 1.332 . S
C692 C693 1.267 . S
C693 H661 0.929 . S
C693 C692 1.267 . S
C693 C694 1.251 . S
C694 H664 0.929 . S
C694 N690 1.418 . S
C694 C693 1.251 . S
C695 H662 0.930 . S
C695 C697 1.406 . S
C695 C700 1.261 . S
C696 H663 0.930 . S
C696 N698 1.325 . S
C696 C699 1.357 . S
C697 H665 0.928 . S
C697 C695 1.406 . S
C697 N698 1.261 . S
N698 Co649 2.214 . S
N698 C696 1.325 . S
N698 C697 1.261 . S
C699 H669 0.931 . S
C699 C696 1.357 . S
C699 C700 1.312 . S
C700 H671 0.930 . S
C700 C695 1.261 . S
C700 C699 1.312 . S
C701 O673 1.214 . S
C701 O681 1.234 . S
C702 H674 0.929 . S
C702 C705 1.391 . S
C702 C707 1.391 . S
C703 H675 0.929 . S
C703 C704 1.390 . S
C703 N706 1.391 . S
C704 H676 0.930 . S
C704 C703 1.390 . S
C704 C705 1.392 . S
C705 H677 0.929 . S
C705 C702 1.391 . S
C705 C704 1.392 . S
N706 Co650 2.257 . S
N706 C703 1.391 . S
N706 C707 1.388 . S
C707 H678 0.930 . S
C707 C702 1.391 . S
C707 N706 1.388 . S
Co708 O710 2.143 . S
Co708 O716 2.074 . S
Co708 O719 2.093 . S
Co708 O732 2.097 . S
Co708 N749 2.151 . S
Co708 N757 2.214 . S
Co709 O710 2.160 . S
Co709 O715 2.058 . S
Co709 O725 2.057 . S
Co709 O740 2.037 . S
Co709 N744 2.145 . S
Co709 N765 2.257 . S
O710 Co708 2.143 . S
O710 Co709 2.160 . S
C711 O712 1.278 . S
C711 O719 1.224 . S
O712 C711 1.278 . S
C713 O714 1.245 . S
C713 O725 1.232 . S
O714 C713 1.245 . S
O715 Co709 2.058 . S
O715 C741 1.269 . S
O716 Co708 2.074 . S
O716 C741 1.257 . S
H717 C742 0.930 . S
H718 C748 0.930 . S
O719 Co708 2.093 . S
O719 C711 1.224 . S
H720 C752 0.929 . S
H721 C754 0.930 . S
H722 C755 0.930 . S
H723 C753 0.929 . S
H724 C756 0.928 . S
O725 Co709 2.057 . S
O725 C713 1.232 . S
H726 C745 0.929 . S
H727 C746 0.929 . S
H728 C758 0.931 . S
H729 C750 0.929 . S
H730 C759 0.930 . S
H731 C751 0.931 . S
O732 Co708 2.097 . S
O732 C760 1.214 . S
H733 C761 0.929 . S
H734 C762 0.929 . S
H735 C763 0.930 . S
H736 C764 0.929 . S
H737 C766 0.930 . S
H738 C743 0.930 . S
H739 C747 0.930 . S
O740 Co709 2.037 . S
O740 C760 1.234 . S
C741 O715 1.269 . S
C741 O716 1.257 . S
C742 H717 0.930 . S
C742 C745 1.388 . S
C742 C747 1.418 . S
C743 H738 0.930 . S
C743 C746 1.404 . S
C743 C747 1.353 . S
N744 Co709 2.145 . S
N744 C745 1.397 . S
N744 C746 1.334 . S
C745 H726 0.929 . S
C745 C742 1.388 . S
C745 N744 1.397 . S
C746 H727 0.929 . S
C746 C743 1.404 . S
C746 N744 1.334 . S
C747 H739 0.930 . S
C747 C742 1.418 . S
C747 C743 1.353 . S
C748 H718 0.930 . S
C748 N749 1.330 . S
C748 C750 1.446 . S
N749 Co708 2.151 . S
N749 C748 1.330 . S
N749 C753 1.418 . S
C750 H729 0.929 . S
C750 C748 1.446 . S
C750 C751 1.332 . S
C751 H731 0.931 . S
C751 C750 1.332 . S
C751 C752 1.267 . S
C752 H720 0.929 . S
C752 C751 1.267 . S
C752 C753 1.251 . S
C753 H723 0.929 . S
C753 N749 1.418 . S
C753 C752 1.251 . S
C754 H721 0.930 . S
C754 C756 1.406 . S
C754 C759 1.261 . S
C755 H722 0.930 . S
C755 N757 1.325 . S
C755 C758 1.357 . S
C756 H724 0.928 . S
C756 C754 1.406 . S
C756 N757 1.261 . S
N757 Co708 2.214 . S
N757 C755 1.325 . S
N757 C756 1.261 . S
C758 H728 0.931 . S
C758 C755 1.357 . S
C758 C759 1.312 . S
C759 H730 0.930 . S
C759 C754 1.261 . S
C759 C758 1.312 . S
C760 O732 1.214 . S
C760 O740 1.234 . S
C761 H733 0.929 . S
C761 C764 1.391 . S
C761 C766 1.391 . S
C762 H734 0.929 . S
C762 C763 1.390 . S
C762 N765 1.391 . S
C763 H735 0.930 . S
C763 C762 1.390 . S
C763 C764 1.392 . S
C764 H736 0.929 . S
C764 C761 1.391 . S
C764 C763 1.392 . S
N765 Co709 2.257 . S
N765 C762 1.391 . S
N765 C766 1.388 . S
C766 H737 0.930 . S
C766 C761 1.391 . S
C766 N765 1.388 . S
Co767 O769 2.143 . S
Co767 O775 2.074 . S
Co767 O778 2.093 . S
Co767 O791 2.097 . S
Co767 N808 2.151 . S
Co767 N816 2.214 . S
Co768 O769 2.160 . S
Co768 O774 2.058 . S
Co768 O784 2.057 . S
Co768 O799 2.037 . S
Co768 N803 2.145 . S
Co768 N824 2.257 . S
O769 Co767 2.143 . S
O769 Co768 2.160 . S
C770 O771 1.278 . S
C770 O778 1.224 . S
O771 C770 1.278 . S
C772 O773 1.245 . S
C772 O784 1.232 . S
O773 C772 1.245 . S
O774 Co768 2.058 . S
O774 C800 1.269 . S
O775 Co767 2.074 . S
O775 C800 1.257 . S
H776 C801 0.930 . S
H777 C807 0.930 . S
O778 Co767 2.093 . S
O778 C770 1.224 . S
H779 C811 0.929 . S
H780 C813 0.930 . S
H781 C814 0.930 . S
H782 C812 0.929 . S
H783 C815 0.928 . S
O784 Co768 2.057 . S
O784 C772 1.232 . S
H785 C804 0.929 . S
H786 C805 0.929 . S
H787 C817 0.931 . S
H788 C809 0.929 . S
H789 C818 0.930 . S
H790 C810 0.931 . S
O791 Co767 2.097 . S
O791 C819 1.214 . S
H792 C820 0.929 . S
H793 C821 0.929 . S
H794 C822 0.930 . S
H795 C823 0.929 . S
H796 C825 0.930 . S
H797 C802 0.930 . S
H798 C806 0.930 . S
O799 Co768 2.037 . S
O799 C819 1.234 . S
C800 O774 1.269 . S
C800 O775 1.257 . S
C801 H776 0.930 . S
C801 C804 1.388 . S
C801 C806 1.418 . S
C802 H797 0.930 . S
C802 C805 1.404 . S
C802 C806 1.353 . S
N803 Co768 2.145 . S
N803 C804 1.397 . S
N803 C805 1.334 . S
C804 H785 0.929 . S
C804 C801 1.388 . S
C804 N803 1.397 . S
C805 H786 0.929 . S
C805 C802 1.404 . S
C805 N803 1.334 . S
C806 H798 0.930 . S
C806 C801 1.418 . S
C806 C802 1.353 . S
C807 H777 0.930 . S
C807 N808 1.330 . S
C807 C809 1.446 . S
N808 Co767 2.151 . S
N808 C807 1.330 . S
N808 C812 1.418 . S
C809 H788 0.929 . S
C809 C807 1.446 . S
C809 C810 1.332 . S
C810 H790 0.931 . S
C810 C809 1.332 . S
C810 C811 1.267 . S
C811 H779 0.929 . S
C811 C810 1.267 . S
C811 C812 1.251 . S
C812 H782 0.929 . S
C812 N808 1.418 . S
C812 C811 1.251 . S
C813 H780 0.930 . S
C813 C815 1.406 . S
C813 C818 1.261 . S
C814 H781 0.930 . S
C814 N816 1.325 . S
C814 C817 1.357 . S
C815 H783 0.928 . S
C815 C813 1.406 . S
C815 N816 1.261 . S
N816 Co767 2.214 . S
N816 C814 1.325 . S
N816 C815 1.261 . S
C817 H787 0.931 . S
C817 C814 1.357 . S
C817 C818 1.312 . S
C818 H789 0.930 . S
C818 C813 1.261 . S
C818 C817 1.312 . S
C819 O791 1.214 . S
C819 O799 1.234 . S
C820 H792 0.929 . S
C820 C823 1.391 . S
C820 C825 1.391 . S
C821 H793 0.929 . S
C821 C822 1.390 . S
C821 N824 1.391 . S
C822 H794 0.930 . S
C822 C821 1.390 . S
C822 C823 1.392 . S
C823 H795 0.929 . S
C823 C820 1.391 . S
C823 C822 1.392 . S
N824 Co768 2.257 . S
N824 C821 1.391 . S
N824 C825 1.388 . S
C825 H796 0.930 . S
C825 C820 1.391 . S
C825 N824 1.388 . S
Co826 O828 2.143 . S
Co826 O834 2.074 . S
Co826 O837 2.093 . S
Co826 O850 2.097 . S
Co826 N867 2.151 . S
Co826 N875 2.214 . S
Co827 O828 2.160 . S
Co827 O833 2.058 . S
Co827 O843 2.057 . S
Co827 O858 2.037 . S
Co827 N862 2.145 . S
Co827 N883 2.257 . S
O828 Co826 2.143 . S
O828 Co827 2.160 . S
C829 O830 1.278 . S
C829 O837 1.224 . S
O830 C829 1.278 . S
C831 O832 1.245 . S
C831 O843 1.232 . S
O832 C831 1.245 . S
O833 Co827 2.058 . S
O833 C859 1.269 . S
O834 Co826 2.074 . S
O834 C859 1.257 . S
H835 C860 0.930 . S
H836 C866 0.930 . S
O837 Co826 2.093 . S
O837 C829 1.224 . S
H838 C870 0.929 . S
H839 C872 0.930 . S
H840 C873 0.930 . S
H841 C871 0.929 . S
H842 C874 0.928 . S
O843 Co827 2.057 . S
O843 C831 1.232 . S
H844 C863 0.929 . S
H845 C864 0.929 . S
H846 C876 0.931 . S
H847 C868 0.929 . S
H848 C877 0.930 . S
H849 C869 0.931 . S
O850 Co826 2.097 . S
O850 C878 1.214 . S
H851 C879 0.929 . S
H852 C880 0.929 . S
H853 C881 0.930 . S
H854 C882 0.929 . S
H855 C884 0.930 . S
H856 C861 0.930 . S
H857 C865 0.930 . S
O858 Co827 2.037 . S
O858 C878 1.234 . S
C859 O833 1.269 . S
C859 O834 1.257 . S
C860 H835 0.930 . S
C860 C863 1.388 . S
C860 C865 1.418 . S
C861 H856 0.930 . S
C861 C864 1.404 . S
C861 C865 1.353 . S
N862 Co827 2.145 . S
N862 C863 1.397 . S
N862 C864 1.334 . S
C863 H844 0.929 . S
C863 C860 1.388 . S
C863 N862 1.397 . S
C864 H845 0.929 . S
C864 C861 1.404 . S
C864 N862 1.334 . S
C865 H857 0.930 . S
C865 C860 1.418 . S
C865 C861 1.353 . S
C866 H836 0.930 . S
C866 N867 1.330 . S
C866 C868 1.446 . S
N867 Co826 2.151 . S
N867 C866 1.330 . S
N867 C871 1.418 . S
C868 H847 0.929 . S
C868 C866 1.446 . S
C868 C869 1.332 . S
C869 H849 0.931 . S
C869 C868 1.332 . S
C869 C870 1.267 . S
C870 H838 0.929 . S
C870 C869 1.267 . S
C870 C871 1.251 . S
C871 H841 0.929 . S
C871 N867 1.418 . S
C871 C870 1.251 . S
C872 H839 0.930 . S
C872 C874 1.406 . S
C872 C877 1.261 . S
C873 H840 0.930 . S
C873 N875 1.325 . S
C873 C876 1.357 . S
C874 H842 0.928 . S
C874 C872 1.406 . S
C874 N875 1.261 . S
N875 Co826 2.214 . S
N875 C873 1.325 . S
N875 C874 1.261 . S
C876 H846 0.931 . S
C876 C873 1.357 . S
C876 C877 1.312 . S
C877 H848 0.930 . S
C877 C872 1.261 . S
C877 C876 1.312 . S
C878 O850 1.214 . S
C878 O858 1.234 . S
C879 H851 0.929 . S
C879 C882 1.391 . S
C879 C884 1.391 . S
C880 H852 0.929 . S
C880 C881 1.390 . S
C880 N883 1.391 . S
C881 H853 0.930 . S
C881 C880 1.390 . S
C881 C882 1.392 . S
C882 H854 0.929 . S
C882 C879 1.391 . S
C882 C881 1.392 . S
N883 Co827 2.257 . S
N883 C880 1.391 . S
N883 C884 1.388 . S
C884 H855 0.930 . S
C884 C879 1.391 . S
C884 N883 1.388 . S
Co885 O887 2.143 . S
Co885 O893 2.074 . S
Co885 O896 2.093 . S
Co885 O909 2.097 . S
Co885 N926 2.151 . S
Co885 N934 2.214 . S
Co886 O887 2.160 . S
Co886 O892 2.058 . S
Co886 O902 2.057 . S
Co886 O917 2.037 . S
Co886 N921 2.145 . S
Co886 N942 2.257 . S
O887 Co885 2.143 . S
O887 Co886 2.160 . S
C888 O889 1.278 . S
C888 O896 1.224 . S
O889 C888 1.278 . S
C890 O891 1.245 . S
C890 O902 1.232 . S
O891 C890 1.245 . S
O892 Co886 2.058 . S
O892 C918 1.269 . S
O893 Co885 2.074 . S
O893 C918 1.257 . S
H894 C919 0.930 . S
H895 C925 0.930 . S
O896 Co885 2.093 . S
O896 C888 1.224 . S
H897 C929 0.929 . S
H898 C931 0.930 . S
H899 C932 0.930 . S
H900 C930 0.929 . S
H901 C933 0.928 . S
O902 Co886 2.057 . S
O902 C890 1.232 . S
H903 C922 0.929 . S
H904 C923 0.929 . S
H905 C935 0.931 . S
H906 C927 0.929 . S
H907 C936 0.930 . S
H908 C928 0.931 . S
O909 Co885 2.097 . S
O909 C937 1.214 . S
H910 C938 0.929 . S
H911 C939 0.929 . S
H912 C940 0.930 . S
H913 C941 0.929 . S
H914 C943 0.930 . S
H915 C920 0.930 . S
H916 C924 0.930 . S
O917 Co886 2.037 . S
O917 C937 1.234 . S
C918 O892 1.269 . S
C918 O893 1.257 . S
C919 H894 0.930 . S
C919 C922 1.388 . S
C919 C924 1.418 . S
C920 H915 0.930 . S
C920 C923 1.404 . S
C920 C924 1.353 . S
N921 Co886 2.145 . S
N921 C922 1.397 . S
N921 C923 1.334 . S
C922 H903 0.929 . S
C922 C919 1.388 . S
C922 N921 1.397 . S
C923 H904 0.929 . S
C923 C920 1.404 . S
C923 N921 1.334 . S
C924 H916 0.930 . S
C924 C919 1.418 . S
C924 C920 1.353 . S
C925 H895 0.930 . S
C925 N926 1.330 . S
C925 C927 1.446 . S
N926 Co885 2.151 . S
N926 C925 1.330 . S
N926 C930 1.418 . S
C927 H906 0.929 . S
C927 C925 1.446 . S
C927 C928 1.332 . S
C928 H908 0.931 . S
C928 C927 1.332 . S
C928 C929 1.267 . S
C929 H897 0.929 . S
C929 C928 1.267 . S
C929 C930 1.251 . S
C930 H900 0.929 . S
C930 N926 1.418 . S
C930 C929 1.251 . S
C931 H898 0.930 . S
C931 C933 1.406 . S
C931 C936 1.261 . S
C932 H899 0.930 . S
C932 N934 1.325 . S
C932 C935 1.357 . S
C933 H901 0.928 . S
C933 C931 1.406 . S
C933 N934 1.261 . S
N934 Co885 2.214 . S
N934 C932 1.325 . S
N934 C933 1.261 . S
C935 H905 0.931 . S
C935 C932 1.357 . S
C935 C936 1.312 . S
C936 H907 0.930 . S
C936 C931 1.261 . S
C936 C935 1.312 . S
C937 O909 1.214 . S
C937 O917 1.234 . S
C938 H910 0.929 . S
C938 C941 1.391 . S
C938 C943 1.391 . S
C939 H911 0.929 . S
C939 C940 1.390 . S
C939 N942 1.391 . S
C940 H912 0.930 . S
C940 C939 1.390 . S
C940 C941 1.392 . S
C941 H913 0.929 . S
C941 C938 1.391 . S
C941 C940 1.392 . S
N942 Co886 2.257 . S
N942 C939 1.391 . S
N942 C943 1.388 . S
C943 H914 0.930 . S
C943 C938 1.391 . S
C943 N942 1.388 . S
H944 C952 0.929 . S
H945 C954 0.930 . S
H946 C956 0.930 . S
H947 C959 0.929 . S
H948 C962 0.930 . S
H949 C964 0.960 . S
H950 C964 0.960 . S
H951 C964 0.960 . S
C952 H944 0.929 . S
C952 C953 1.377 . S
C952 C954 1.384 . S
C953 C952 1.377 . S
C953 C959 1.390 . S
C954 H945 0.930 . S
C954 C952 1.384 . S
C954 C955 1.372 . S
C955 C954 1.372 . S
C955 C956 1.400 . S
C955 C960 1.490 . S
C956 H946 0.930 . S
C956 C955 1.400 . S
C956 C959 1.386 . S
H957 C973 0.930 . S
H958 C974 0.931 . S
C959 H947 0.929 . S
C959 C953 1.390 . S
C959 C956 1.386 . S
C960 C955 1.490 . S
C960 C962 1.395 . S
C960 C963 1.403 . S
H961 C967 0.930 . S
C962 H948 0.930 . S
C962 C960 1.395 . S
C962 C965 1.403 . S
C963 C960 1.403 . S
C963 C964 1.524 . S
C963 C967 1.400 . S
C964 H949 0.960 . S
C964 H950 0.960 . S
C964 H951 0.960 . S
C964 C963 1.524 . S
C965 C962 1.403 . S
C965 C966 1.392 . S
C965 C969 1.495 . S
C966 C965 1.392 . S
C966 C967 1.385 . S
C966 C968 1.478 . S
C967 H961 0.930 . S
C967 C963 1.400 . S
C967 C966 1.385 . S
C968 C966 1.478 . S
C968 C970 1.381 . S
C968 C974 1.383 . S
C969 C965 1.495 . S
C969 H975 0.959 . S
C969 H976 0.961 . S
C969 H977 0.960 . S
C970 C968 1.381 . S
C970 C971 1.394 . S
C970 H978 0.930 . S
C971 C970 1.394 . S
C971 C972 1.383 . S
C971 H979 0.929 . S
C972 C971 1.383 . S
C972 C973 1.377 . S
C973 H957 0.930 . S
C973 C972 1.377 . S
C973 C974 1.379 . S
C974 H958 0.931 . S
C974 C968 1.383 . S
C974 C973 1.379 . S
H975 C969 0.959 . S
H976 C969 0.961 . S
H977 C969 0.960 . S
H978 C970 0.930 . S
H979 C971 0.929 . S
H980 C988 0.929 . S
H981 C990 0.930 . S
H982 C992 0.930 . S
H983 C995 0.929 . S
H984 C998 0.930 . S
H985 C1000 0.960 . S
H986 C1000 0.960 . S
H987 C1000 0.960 . S
C988 H980 0.929 . S
C988 C989 1.377 . S
C988 C990 1.384 . S
C989 C988 1.377 . S
C989 C995 1.390 . S
C990 H981 0.930 . S
C990 C988 1.384 . S
C990 C991 1.372 . S
C991 C990 1.372 . S
C991 C992 1.400 . S
C991 C996 1.490 . S
C992 H982 0.930 . S
C992 C991 1.400 . S
C992 C995 1.386 . S
H993 C1009 0.930 . S
H994 C1010 0.931 . S
C995 H983 0.929 . S
C995 C989 1.390 . S
C995 C992 1.386 . S
C996 C991 1.490 . S
C996 C998 1.395 . S
C996 C999 1.403 . S
H997 C1003 0.930 . S
C998 H984 0.930 . S
C998 C996 1.395 . S
C998 C1001 1.403 . S
C999 C996 1.403 . S
C999 C1000 1.524 . S
C999 C1003 1.400 . S
C1000 H985 0.960 . S
C1000 H986 0.960 . S
C1000 H987 0.960 . S
C1000 C999 1.524 . S
C1001 C998 1.403 . S
C1001 C1002 1.392 . S
C1001 C1005 1.495 . S
C1002 C1001 1.392 . S
C1002 C1003 1.385 . S
C1002 C1004 1.478 . S
C1003 H997 0.930 . S
C1003 C999 1.400 . S
C1003 C1002 1.385 . S
C1004 C1002 1.478 . S
C1004 C1006 1.381 . S
C1004 C1010 1.383 . S
C1005 C1001 1.495 . S
C1005 H1011 0.959 . S
C1005 H1012 0.961 . S
C1005 H1013 0.960 . S
C1006 C1004 1.381 . S
C1006 C1007 1.394 . S
C1006 H1014 0.930 . S
C1007 C1006 1.394 . S
C1007 C1008 1.383 . S
C1007 H1015 0.929 . S
C1008 C1007 1.383 . S
C1008 C1009 1.377 . S
C1009 H993 0.930 . S
C1009 C1008 1.377 . S
C1009 C1010 1.379 . S
C1010 H994 0.931 . S
C1010 C1004 1.383 . S
C1010 C1009 1.379 . S
H1011 C1005 0.959 . S
H1012 C1005 0.961 . S
H1013 C1005 0.960 . S
H1014 C1006 0.930 . S
H1015 C1007 0.929 . S
H1016 C1024 0.929 . S
H1017 C1026 0.930 . S
H1018 C1028 0.930 . S
H1019 C1031 0.929 . S
H1020 C1034 0.930 . S
H1021 C1036 0.960 . S
H1022 C1036 0.960 . S
H1023 C1036 0.960 . S
C1024 H1016 0.929 . S
C1024 C1025 1.377 . S
C1024 C1026 1.384 . S
C1025 C1024 1.377 . S
C1025 C1031 1.390 . S
C1026 H1017 0.930 . S
C1026 C1024 1.384 . S
C1026 C1027 1.372 . S
C1027 C1026 1.372 . S
C1027 C1028 1.400 . S
C1027 C1032 1.490 . S
C1028 H1018 0.930 . S
C1028 C1027 1.400 . S
C1028 C1031 1.386 . S
H1029 C1045 0.930 . S
H1030 C1046 0.931 . S
C1031 H1019 0.929 . S
C1031 C1025 1.390 . S
C1031 C1028 1.386 . S
C1032 C1027 1.490 . S
C1032 C1034 1.395 . S
C1032 C1035 1.403 . S
H1033 C1039 0.930 . S
C1034 H1020 0.930 . S
C1034 C1032 1.395 . S
C1034 C1037 1.403 . S
C1035 C1032 1.403 . S
C1035 C1036 1.524 . S
C1035 C1039 1.400 . S
C1036 H1021 0.960 . S
C1036 H1022 0.960 . S
C1036 H1023 0.960 . S
C1036 C1035 1.524 . S
C1037 C1034 1.403 . S
C1037 C1038 1.392 . S
C1037 C1041 1.495 . S
C1038 C1037 1.392 . S
C1038 C1039 1.385 . S
C1038 C1040 1.478 . S
C1039 H1033 0.930 . S
C1039 C1035 1.400 . S
C1039 C1038 1.385 . S
C1040 C1038 1.478 . S
C1040 C1042 1.381 . S
C1040 C1046 1.383 . S
C1041 C1037 1.495 . S
C1041 H1047 0.959 . S
C1041 H1048 0.961 . S
C1041 H1049 0.960 . S
C1042 C1040 1.381 . S
C1042 C1043 1.394 . S
C1042 H1050 0.930 . S
C1043 C1042 1.394 . S
C1043 C1044 1.383 . S
C1043 H1051 0.929 . S
C1044 C1043 1.383 . S
C1044 C1045 1.377 . S
C1045 H1029 0.930 . S
C1045 C1044 1.377 . S
C1045 C1046 1.379 . S
C1046 H1030 0.931 . S
C1046 C1040 1.383 . S
C1046 C1045 1.379 . S
H1047 C1041 0.959 . S
H1048 C1041 0.961 . S
H1049 C1041 0.960 . S
H1050 C1042 0.930 . S
H1051 C1043 0.929 . S
H1052 C1060 0.929 . S
H1053 C1062 0.930 . S
H1054 C1064 0.930 . S
H1055 C1067 0.929 . S
H1056 C1070 0.930 . S
H1057 C1072 0.960 . S
H1058 C1072 0.960 . S
H1059 C1072 0.960 . S
C1060 H1052 0.929 . S
C1060 C1061 1.377 . S
C1060 C1062 1.384 . S
C1061 C1060 1.377 . S
C1061 C1067 1.390 . S
C1062 H1053 0.930 . S
C1062 C1060 1.384 . S
C1062 C1063 1.372 . S
C1063 C1062 1.372 . S
C1063 C1064 1.400 . S
C1063 C1068 1.490 . S
C1064 H1054 0.930 . S
C1064 C1063 1.400 . S
C1064 C1067 1.386 . S
H1065 C1081 0.930 . S
H1066 C1082 0.931 . S
C1067 H1055 0.929 . S
C1067 C1061 1.390 . S
C1067 C1064 1.386 . S
C1068 C1063 1.490 . S
C1068 C1070 1.395 . S
C1068 C1071 1.403 . S
H1069 C1075 0.930 . S
C1070 H1056 0.930 . S
C1070 C1068 1.395 . S
C1070 C1073 1.403 . S
C1071 C1068 1.403 . S
C1071 C1072 1.524 . S
C1071 C1075 1.400 . S
C1072 H1057 0.960 . S
C1072 H1058 0.960 . S
C1072 H1059 0.960 . S
C1072 C1071 1.524 . S
C1073 C1070 1.403 . S
C1073 C1074 1.392 . S
C1073 C1077 1.495 . S
C1074 C1073 1.392 . S
C1074 C1075 1.385 . S
C1074 C1076 1.478 . S
C1075 H1069 0.930 . S
C1075 C1071 1.400 . S
C1075 C1074 1.385 . S
C1076 C1074 1.478 . S
C1076 C1078 1.381 . S
C1076 C1082 1.383 . S
C1077 C1073 1.495 . S
C1077 H1083 0.959 . S
C1077 H1084 0.961 . S
C1077 H1085 0.960 . S
C1078 C1076 1.381 . S
C1078 C1079 1.394 . S
C1078 H1086 0.930 . S
C1079 C1078 1.394 . S
C1079 C1080 1.383 . S
C1079 H1087 0.929 . S
C1080 C1079 1.383 . S
C1080 C1081 1.377 . S
C1081 H1065 0.930 . S
C1081 C1080 1.377 . S
C1081 C1082 1.379 . S
C1082 H1066 0.931 . S
C1082 C1076 1.383 . S
C1082 C1081 1.379 . S
H1083 C1077 0.959 . S
H1084 C1077 0.961 . S
H1085 C1077 0.960 . S
H1086 C1078 0.930 . S
H1087 C1079 0.929 . S
H1088 C1096 0.929 . S
H1089 C1098 0.930 . S
H1090 C1100 0.933 1_556 S
H1091 C1103 0.929 . S
H1092 C1106 0.930 . S
H1093 C1108 0.960 1_556 S
H1094 C1108 0.960 . S
H1095 C1108 0.960 1_556 S
C1096 H1088 0.929 . S
C1096 C1097 1.377 1_545 S
C1096 C1098 1.384 . S
C1097 C1096 1.377 1_565 S
C1097 C1103 1.390 . S
C1098 H1089 0.930 . S
C1098 C1096 1.384 . S
C1098 C1099 1.372 . S
C1099 C1098 1.372 . S
C1099 C1100 1.400 . S
C1099 C1104 1.490 . S
C1100 H1090 0.933 1_554 S
C1100 C1099 1.400 . S
C1100 C1103 1.386 1_545 S
H1101 C1117 0.930 . S
H1102 C1118 0.931 . S
C1103 H1091 0.929 . S
C1103 C1097 1.390 . S
C1103 C1100 1.386 1_565 S
C1104 C1099 1.490 . S
C1104 C1106 1.395 . S
C1104 C1107 1.403 . S
H1105 C1111 0.930 . S
C1106 H1092 0.930 . S
C1106 C1104 1.395 . S
C1106 C1109 1.403 . S
C1107 C1104 1.403 . S
C1107 C1108 1.524 . S
C1107 C1111 1.400 1_554 S
C1108 H1093 0.960 1_554 S
C1108 H1094 0.960 . S
C1108 H1095 0.960 1_554 S
C1108 C1107 1.524 . S
C1109 C1106 1.403 . S
C1109 C1110 1.392 1_554 S
C1109 C1113 1.495 . S
C1110 C1109 1.392 1_556 S
C1110 C1111 1.385 . S
C1110 C1112 1.478 . S
C1111 H1105 0.930 . S
C1111 C1107 1.400 1_556 S
C1111 C1110 1.385 . S
C1112 C1110 1.478 . S
C1112 C1114 1.381 . S
C1112 C1118 1.383 . S
C1113 C1109 1.495 . S
C1113 H1119 0.959 . S
C1113 H1120 0.961 1_554 S
C1113 H1121 0.960 . S
C1114 C1112 1.381 . S
C1114 C1115 1.394 . S
C1114 H1122 0.930 1_556 S
C1115 C1114 1.394 . S
C1115 C1116 1.383 . S
C1115 H1123 0.929 . S
C1116 C1115 1.383 . S
C1116 C1117 1.377 . S
C1117 H1101 0.930 . S
C1117 C1116 1.377 . S
C1117 C1118 1.379 . S
C1118 H1102 0.931 . S
C1118 C1112 1.383 . S
C1118 C1117 1.379 . S
H1119 C1113 0.959 . S
H1120 C1113 0.961 1_556 S
H1121 C1113 0.960 . S
H1122 C1114 0.930 1_554 S
H1123 C1115 0.929 . S
H1124 C1132 0.929 . S
H1125 C1134 0.930 1_556 S
H1126 C1136 0.930 . S
H1127 C1139 0.929 . S
H1128 C1142 0.930 . S
H1129 C1144 0.960 . S
H1130 C1144 0.960 . S
H1131 C1144 0.960 . S
C1132 H1124 0.929 . S
C1132 C1133 1.377 . S
C1132 C1134 1.384 . S
C1133 C1132 1.377 . S
C1133 C1139 1.390 . S
C1134 H1125 0.930 1_554 S
C1134 C1132 1.384 . S
C1134 C1135 1.372 . S
C1135 C1134 1.372 . S
C1135 C1136 1.400 . S
C1135 C1140 1.490 . S
C1136 H1126 0.930 . S
C1136 C1135 1.400 . S
C1136 C1139 1.386 . S
H1137 C1153 0.930 1_655 S
H1138 C1154 0.931 . S
C1139 H1127 0.929 . S
C1139 C1133 1.390 . S
C1139 C1136 1.386 . S
C1140 C1135 1.490 . S
C1140 C1142 1.395 1_554 S
C1140 C1143 1.403 . S
H1141 C1147 0.930 . S
C1142 H1128 0.930 . S
C1142 C1140 1.395 1_556 S
C1142 C1145 1.403 . S
C1143 C1140 1.403 . S
C1143 C1144 1.524 . S
C1143 C1147 1.400 . S
C1144 H1129 0.960 . S
C1144 H1130 0.960 . S
C1144 H1131 0.960 . S
C1144 C1143 1.524 . S
C1145 C1142 1.403 . S
C1145 C1146 1.392 . S
C1145 C1149 1.495 . S
C1146 C1145 1.392 . S
C1146 C1147 1.385 1_556 S
C1146 C1148 1.478 . S
C1147 H1141 0.930 . S
C1147 C1143 1.400 . S
C1147 C1146 1.385 1_554 S
C1148 C1146 1.478 . S
C1148 C1150 1.381 . S
C1148 C1154 1.383 . S
C1149 C1145 1.495 . S
C1149 H1155 0.959 . S
C1149 H1156 0.961 . S
C1149 H1157 0.960 . S
C1150 C1148 1.381 . S
C1150 C1151 1.394 . S
C1150 H1158 0.930 . S
C1151 C1150 1.394 . S
C1151 C1152 1.383 1_455 S
C1151 H1159 0.929 1_455 S
C1152 C1151 1.383 1_655 S
C1152 C1153 1.377 1_655 S
C1153 H1137 0.930 1_455 S
C1153 C1152 1.377 1_455 S
C1153 C1154 1.379 . S
C1154 H1138 0.931 . S
C1154 C1148 1.383 . S
C1154 C1153 1.379 . S
H1155 C1149 0.959 . S
H1156 C1149 0.961 . S
H1157 C1149 0.960 . S
H1158 C1150 0.930 . S
H1159 C1151 0.929 1_655 S
H1160 C1168 0.929 . S
H1161 C1170 0.930 . S
H1162 C1172 0.930 1_554 S
H1163 C1175 0.929 . S
H1164 C1178 0.940 . S
H1165 C1180 0.960 . S
H1166 C1180 0.960 . S
H1167 C1180 0.960 . S
C1168 H1160 0.929 . S
C1168 C1169 1.377 . S
C1168 C1170 1.384 . S
C1169 C1168 1.377 . S
C1169 C1175 1.390 . S
C1170 H1161 0.930 . S
C1170 C1168 1.384 . S
C1170 C1171 1.372 . S
C1171 C1170 1.372 . S
C1171 C1172 1.400 . S
C1171 C1176 1.490 . S
C1172 H1162 0.930 1_556 S
C1172 C1171 1.400 . S
C1172 C1175 1.386 . S
H1173 C1189 0.929 . S
H1174 C1190 0.931 . S
C1175 H1163 0.929 . S
C1175 C1169 1.390 . S
C1175 C1172 1.386 . S
C1176 C1171 1.490 . S
C1176 C1178 1.395 1_556 S
C1176 C1179 1.403 . S
H1177 C1183 0.930 . S
C1178 H1164 0.940 . S
C1178 C1176 1.395 1_554 S
C1178 C1181 1.403 . S
C1179 C1176 1.403 . S
C1179 C1180 1.524 . S
C1179 C1183 1.400 1_556 S
C1180 H1165 0.960 . S
C1180 H1166 0.960 . S
C1180 H1167 0.960 . S
C1180 C1179 1.524 . S
C1181 C1178 1.403 . S
C1181 C1182 1.392 . S
C1181 C1185 1.495 . S
C1182 C1181 1.392 . S
C1182 C1183 1.385 . S
C1182 C1184 1.478 . S
C1183 H1177 0.930 . S
C1183 C1179 1.400 1_554 S
C1183 C1182 1.385 . S
C1184 C1182 1.478 . S
C1184 C1186 1.381 . S
C1184 C1190 1.383 . S
C1185 C1181 1.495 . S
C1185 H1191 0.959 . S
C1185 H1192 0.961 . S
C1185 H1193 0.960 . S
C1186 C1184 1.381 . S
C1186 C1187 1.394 . S
C1186 H1194 0.930 . S
C1187 C1186 1.394 . S
C1187 C1188 1.383 1_565 S
C1187 H1195 0.929 1_565 S
C1188 C1187 1.383 1_545 S
C1188 C1189 1.377 1_545 S
C1189 H1173 0.929 . S
C1189 C1188 1.377 1_565 S
C1189 C1190 1.379 . S
C1190 H1174 0.931 . S
C1190 C1184 1.383 . S
C1190 C1189 1.379 . S
H1191 C1185 0.959 . S
H1192 C1185 0.961 . S
H1193 C1185 0.960 . S
H1194 C1186 0.930 . S
H1195 C1187 0.929 1_545 S
H1196 C1204 0.929 . S
H1197 C1206 0.930 . S
H1198 C1208 0.930 1_556 S
H1199 C1211 0.929 . S
H1200 C1214 0.930 . S
H1201 C1216 0.960 . S
H1202 C1216 0.960 . S
H1203 C1216 0.960 . S
C1204 H1196 0.929 . S
C1204 C1205 1.377 . S
C1204 C1206 1.384 . S
C1205 C1204 1.377 . S
C1205 C1211 1.390 . S
C1206 H1197 0.930 . S
C1206 C1204 1.384 . S
C1206 C1207 1.372 . S
C1207 C1206 1.372 . S
C1207 C1208 1.400 . S
C1207 C1212 1.490 . S
C1208 H1198 0.930 1_554 S
C1208 C1207 1.400 . S
C1208 C1211 1.386 . S
H1209 C1225 0.945 . S
H1210 C1226 0.931 . S
C1211 H1199 0.929 . S
C1211 C1205 1.390 . S
C1211 C1208 1.386 . S
C1212 C1207 1.490 . S
C1212 C1214 1.395 . S
C1212 C1215 1.403 1_554 S
H1213 C1219 0.930 . S
C1214 H1200 0.930 . S
C1214 C1212 1.395 . S
C1214 C1217 1.403 . S
C1215 C1212 1.403 1_556 S
C1215 C1216 1.524 . S
C1215 C1219 1.400 . S
C1216 H1201 0.960 . S
C1216 H1202 0.960 . S
C1216 H1203 0.960 . S
C1216 C1215 1.524 . S
C1217 C1214 1.403 . S
C1217 C1218 1.392 1_554 S
C1217 C1221 1.495 . S
C1218 C1217 1.392 1_556 S
C1218 C1219 1.385 . S
C1218 C1220 1.478 . S
C1219 H1213 0.930 . S
C1219 C1215 1.400 . S
C1219 C1218 1.385 . S
C1220 C1218 1.478 . S
C1220 C1222 1.381 . S
C1220 C1226 1.383 . S
C1221 C1217 1.495 . S
C1221 H1227 0.959 . S
C1221 H1228 0.961 . S
C1221 H1229 0.960 . S
C1222 C1220 1.381 . S
C1222 C1223 1.394 . S
C1222 H1230 0.930 . S
C1223 C1222 1.394 . S
C1223 C1224 1.383 1_655 S
C1223 H1231 0.929 1_655 S
C1224 C1223 1.383 1_455 S
C1224 C1225 1.389 . S
C1225 H1209 0.945 . S
C1225 C1224 1.389 . S
C1225 C1226 1.353 1_455 S
C1226 H1210 0.931 . S
C1226 C1220 1.383 . S
C1226 C1225 1.353 1_655 S
H1227 C1221 0.959 . S
H1228 C1221 0.961 . S
H1229 C1221 0.960 . S
H1230 C1222 0.930 . S
H1231 C1223 0.929 1_455 S
H1232 C1240 0.929 . S
H1233 C1242 0.930 . S
H1234 C1244 0.930 . S
H1235 C1247 0.929 . S
H1236 C1250 0.930 . S
H1237 C1252 0.960 . S
H1238 C1252 0.960 . S
H1239 C1252 0.960 . S
C1240 H1232 0.929 . S
C1240 C1241 1.377 . S
C1240 C1242 1.384 . S
C1241 C1240 1.377 . S
C1241 C1247 1.390 . S
C1242 H1233 0.930 . S
C1242 C1240 1.384 . S
C1242 C1243 1.372 . S
C1243 C1242 1.372 . S
C1243 C1244 1.400 . S
C1243 C1248 1.490 . S
C1244 H1234 0.930 . S
C1244 C1243 1.400 . S
C1244 C1247 1.386 . S
H1245 C1261 0.925 1_545 S
H1246 C1262 0.931 . S
C1247 H1235 0.929 . S
C1247 C1241 1.390 . S
C1247 C1244 1.386 . S
C1248 C1243 1.490 . S
C1248 C1250 1.395 . S
C1248 C1251 1.403 . S
H1249 C1255 0.930 . S
C1250 H1236 0.930 . S
C1250 C1248 1.395 . S
C1250 C1253 1.403 . S
C1251 C1248 1.403 . S
C1251 C1252 1.524 . S
C1251 C1255 1.400 . S
C1252 H1237 0.960 . S
C1252 H1238 0.960 . S
C1252 H1239 0.960 . S
C1252 C1251 1.524 . S
C1253 C1250 1.403 . S
C1253 C1254 1.392 . S
C1253 C1257 1.495 . S
C1254 C1253 1.392 . S
C1254 C1255 1.385 . S
C1254 C1256 1.478 . S
C1255 H1249 0.930 . S
C1255 C1251 1.400 . S
C1255 C1254 1.385 . S
C1256 C1254 1.478 . S
C1256 C1258 1.381 . S
C1256 C1262 1.383 . S
C1257 C1253 1.495 . S
C1257 H1263 0.959 . S
C1257 H1264 0.961 . S
C1257 H1265 0.960 . S
C1258 C1256 1.381 . S
C1258 C1259 1.394 . S
C1258 H1266 0.930 . S
C1259 C1258 1.394 . S
C1259 C1260 1.383 1_565 S
C1259 H1267 0.929 . S
C1260 C1259 1.383 1_545 S
C1260 C1261 1.374 1_545 S
C1261 H1245 0.925 1_565 S
C1261 C1260 1.374 1_565 S
C1261 C1262 1.387 . S
C1262 H1246 0.931 . S
C1262 C1256 1.383 . S
C1262 C1261 1.387 . S
H1263 C1257 0.959 . S
H1264 C1257 0.961 . S
H1265 C1257 0.960 . S
H1266 C1258 0.930 . S
H1267 C1259 0.929 . S
H1268 C1276 0.929 . S
H1269 C1278 0.930 . S
H1270 C1280 0.930 . S
H1271 C1283 0.929 . S
H1272 C1286 0.930 . S
H1273 C1288 0.960 . S
H1274 C1288 0.960 . S
H1275 C1288 0.960 . S
C1276 H1268 0.929 . S
C1276 C1277 1.377 . S
C1276 C1278 1.384 1_455 S
C1277 C1276 1.377 . S
C1277 C1283 1.390 1_455 S
C1278 H1269 0.930 . S
C1278 C1276 1.384 1_655 S
C1278 C1279 1.372 . S
C1279 C1278 1.372 . S
C1279 C1280 1.400 . S
C1279 C1284 1.490 . S
C1280 H1270 0.930 . S
C1280 C1279 1.400 . S
C1280 C1283 1.386 . S
H1281 C1297 0.930 . S
H1282 C1298 0.931 . S
C1283 H1271 0.929 . S
C1283 C1277 1.390 1_655 S
C1283 C1280 1.386 . S
C1284 C1279 1.490 . S
C1284 C1286 1.395 . S
C1284 C1287 1.403 . S
H1285 C1291 0.930 . S
C1286 H1272 0.930 . S
C1286 C1284 1.395 . S
C1286 C1289 1.403 . S
C1287 C1284 1.403 . S
C1287 C1288 1.524 . S
C1287 C1291 1.400 . S
C1288 H1273 0.960 . S
C1288 H1274 0.960 . S
C1288 H1275 0.960 . S
C1288 C1287 1.524 . S
C1289 C1286 1.403 . S
C1289 C1290 1.392 . S
C1289 C1293 1.495 . S
C1290 C1289 1.392 . S
C1290 C1291 1.385 . S
C1290 C1292 1.478 . S
C1291 H1285 0.930 . S
C1291 C1287 1.400 . S
C1291 C1290 1.385 . S
C1292 C1290 1.478 . S
C1292 C1294 1.381 . S
C1292 C1298 1.383 . S
C1293 C1289 1.495 . S
C1293 H1299 0.959 . S
C1293 H1300 0.961 . S
C1293 H1301 0.960 . S
C1294 C1292 1.381 . S
C1294 C1295 1.394 . S
C1294 H1302 0.930 . S
C1295 C1294 1.394 . S
C1295 C1296 1.383 . S
C1295 H1303 0.929 . S
C1296 C1295 1.383 . S
C1296 C1297 1.377 . S
C1297 H1281 0.930 . S
C1297 C1296 1.377 . S
C1297 C1298 1.379 . S
C1298 H1282 0.931 . S
C1298 C1292 1.383 . S
C1298 C1297 1.379 . S
H1299 C1293 0.959 . S
H1300 C1293 0.961 . S
H1301 C1293 0.960 . S
H1302 C1294 0.930 . S
H1303 C1295 0.929 . S
H1304 C1312 0.929 1_565 S
H1305 C1314 0.930 . S
H1306 C1316 0.930 . S
H1307 C1319 0.929 1_565 S
H1308 C1322 0.930 . S
H1309 C1324 0.960 . S
H1310 C1324 0.960 . S
H1311 C1324 0.960 . S
C1312 H1304 0.929 1_545 S
C1312 C1313 1.377 1_545 S
C1312 C1314 1.384 . S
C1313 C1312 1.377 1_565 S
C1313 C1319 1.390 1_565 S
C1314 H1305 0.930 . S
C1314 C1312 1.384 . S
C1314 C1315 1.372 . S
C1315 C1314 1.372 . S
C1315 C1316 1.400 . S
C1315 C1320 1.490 . S
C1316 H1306 0.930 . S
C1316 C1315 1.400 . S
C1316 C1319 1.386 . S
H1317 C1333 0.930 . S
H1318 C1334 0.931 . S
C1319 H1307 0.929 1_545 S
C1319 C1313 1.390 1_545 S
C1319 C1316 1.386 . S
C1320 C1315 1.490 . S
C1320 C1322 1.395 . S
C1320 C1323 1.403 . S
H1321 C1327 0.930 . S
C1322 H1308 0.930 . S
C1322 C1320 1.395 . S
C1322 C1325 1.403 . S
C1323 C1320 1.403 . S
C1323 C1324 1.524 . S
C1323 C1327 1.400 . S
C1324 H1309 0.960 . S
C1324 H1310 0.960 . S
C1324 H1311 0.960 . S
C1324 C1323 1.524 . S
C1325 C1322 1.403 . S
C1325 C1326 1.392 . S
C1325 C1329 1.495 . S
C1326 C1325 1.392 . S
C1326 C1327 1.385 . S
C1326 C1328 1.478 . S
C1327 H1321 0.930 . S
C1327 C1323 1.400 . S
C1327 C1326 1.385 . S
C1328 C1326 1.478 . S
C1328 C1330 1.381 . S
C1328 C1334 1.383 . S
C1329 C1325 1.495 . S
C1329 H1335 0.959 . S
C1329 H1336 0.961 . S
C1329 H1337 0.960 . S
C1330 C1328 1.381 . S
C1330 C1331 1.394 . S
C1330 H1338 0.930 . S
C1331 C1330 1.394 . S
C1331 C1332 1.383 . S
C1331 H1339 0.929 . S
C1332 C1331 1.383 . S
C1332 C1333 1.377 . S
C1333 H1317 0.930 . S
C1333 C1332 1.377 . S
C1333 C1334 1.379 . S
C1334 H1318 0.931 . S
C1334 C1328 1.383 . S
C1334 C1333 1.379 . S
H1335 C1329 0.959 . S
H1336 C1329 0.961 . S
H1337 C1329 0.960 . S
H1338 C1330 0.930 . S
H1339 C1331 0.929 . S
H1340 C1348 0.929 . S
H1341 C1350 0.930 . S
H1342 C1352 0.930 . S
H1343 C1355 0.929 . S
H1344 C1358 0.930 . S
H1345 C1360 0.960 . S
H1346 C1360 0.960 . S
H1347 C1360 0.960 . S
C1348 H1340 0.929 . S
C1348 C1349 1.377 1_455 S
C1348 C1350 1.384 . S
C1349 C1348 1.377 1_655 S
C1349 C1355 1.390 . S
C1350 H1341 0.930 . S
C1350 C1348 1.384 . S
C1350 C1351 1.372 . S
C1351 C1350 1.372 . S
C1351 C1352 1.400 . S
C1351 C1356 1.490 . S
C1352 H1342 0.930 . S
C1352 C1351 1.400 . S
C1352 C1355 1.386 1_455 S
H1353 C1369 0.930 . S
H1354 C1370 0.931 . S
C1355 H1343 0.929 . S
C1355 C1349 1.390 . S
C1355 C1352 1.386 1_655 S
C1356 C1351 1.490 . S
C1356 C1358 1.395 . S
C1356 C1359 1.403 . S
H1357 C1363 0.930 . S
C1358 H1344 0.930 . S
C1358 C1356 1.395 . S
C1358 C1361 1.403 . S
C1359 C1356 1.403 . S
C1359 C1360 1.524 . S
C1359 C1363 1.400 . S
C1360 H1345 0.960 . S
C1360 H1346 0.960 . S
C1360 H1347 0.960 . S
C1360 C1359 1.524 . S
C1361 C1358 1.403 . S
C1361 C1362 1.392 . S
C1361 C1365 1.495 . S
C1362 C1361 1.392 . S
C1362 C1363 1.385 . S
C1362 C1364 1.478 . S
C1363 H1357 0.930 . S
C1363 C1359 1.400 . S
C1363 C1362 1.385 . S
C1364 C1362 1.478 . S
C1364 C1366 1.381 . S
C1364 C1370 1.383 . S
C1365 C1361 1.495 . S
C1365 H1371 0.959 . S
C1365 H1372 0.961 . S
C1365 H1373 0.960 . S
C1366 C1364 1.381 . S
C1366 C1367 1.394 . S
C1366 H1374 0.930 . S
C1367 C1366 1.394 . S
C1367 C1368 1.383 . S
C1367 H1375 0.929 . S
C1368 C1367 1.383 . S
C1368 C1369 1.377 . S
C1369 H1353 0.930 . S
C1369 C1368 1.377 . S
C1369 C1370 1.379 . S
C1370 H1354 0.931 . S
C1370 C1364 1.383 . S
C1370 C1369 1.379 . S
H1371 C1365 0.959 . S
H1372 C1365 0.961 . S
H1373 C1365 0.960 . S
H1374 C1366 0.930 . S
H1375 C1367 0.929 . S
H1376 C1384 0.929 . S
H1377 C1386 0.930 . S
H1378 C1388 0.930 . S
H1379 C1391 0.929 . S
H1380 C1394 0.930 . S
H1381 C1396 0.960 . S
H1382 C1396 0.960 . S
H1383 C1396 0.960 . S
C1384 H1376 0.929 . S
C1384 C1385 1.377 . S
C1384 C1386 1.384 . S
C1385 C1384 1.377 . S
C1385 C1391 1.390 . S
C1386 H1377 0.930 . S
C1386 C1384 1.384 . S
C1386 C1387 1.372 . S
C1387 C1386 1.372 . S
C1387 C1388 1.400 . S
C1387 C1392 1.490 . S
C1388 H1378 0.930 . S
C1388 C1387 1.400 . S
C1388 C1391 1.386 . S
H1389 C1405 0.930 . S
H1390 C1406 0.931 . S
C1391 H1379 0.929 . S
C1391 C1385 1.390 . S
C1391 C1388 1.386 . S
C1392 C1387 1.490 . S
C1392 C1394 1.395 . S
C1392 C1395 1.403 . S
H1393 C1399 0.930 . S
C1394 H1380 0.930 . S
C1394 C1392 1.395 . S
C1394 C1397 1.403 . S
C1395 C1392 1.403 . S
C1395 C1396 1.524 . S
C1395 C1399 1.400 . S
C1396 H1381 0.960 . S
C1396 H1382 0.960 . S
C1396 H1383 0.960 . S
C1396 C1395 1.524 . S
C1397 C1394 1.403 . S
C1397 C1398 1.392 . S
C1397 C1401 1.495 . S
C1398 C1397 1.392 . S
C1398 C1399 1.385 . S
C1398 C1400 1.478 . S
C1399 H1393 0.930 . S
C1399 C1395 1.400 . S
C1399 C1398 1.385 . S
C1400 C1398 1.478 . S
C1400 C1402 1.381 . S
C1400 C1406 1.383 . S
C1401 C1397 1.495 . S
C1401 H1407 0.959 . S
C1401 H1408 0.961 . S
C1401 H1409 0.960 . S
C1402 C1400 1.381 . S
C1402 C1403 1.394 . S
C1402 H1410 0.930 . S
C1403 C1402 1.394 . S
C1403 C1404 1.383 . S
C1403 H1411 0.929 . S
C1404 C1403 1.383 . S
C1404 C1405 1.377 . S
C1405 H1389 0.930 . S
C1405 C1404 1.377 . S
C1405 C1406 1.379 . S
C1406 H1390 0.931 . S
C1406 C1400 1.383 . S
C1406 C1405 1.379 . S
H1407 C1401 0.959 . S
H1408 C1401 0.961 . S
H1409 C1401 0.960 . S
H1410 C1402 0.930 . S
H1411 C1403 0.929 . S
H1412 C1420 0.929 . S
H1413 C1422 0.930 . S
H1414 C1424 0.930 . S
H1415 C1427 0.929 . S
H1416 C1430 0.930 . S
H1417 C1432 0.960 . S
H1418 C1432 0.960 . S
H1419 C1432 0.960 . S
C1420 H1412 0.929 . S
C1420 C1421 1.377 . S
C1420 C1422 1.384 . S
C1421 C1420 1.377 . S
C1421 C1427 1.390 . S
C1422 H1413 0.930 . S
C1422 C1420 1.384 . S
C1422 C1423 1.372 . S
C1423 C1422 1.372 . S
C1423 C1424 1.400 . S
C1423 C1428 1.490 . S
C1424 H1414 0.930 . S
C1424 C1423 1.400 . S
C1424 C1427 1.386 . S
H1425 C1441 0.930 . S
H1426 C1442 0.931 . S
C1427 H1415 0.929 . S
C1427 C1421 1.390 . S
C1427 C1424 1.386 . S
C1428 C1423 1.490 . S
C1428 C1430 1.395 . S
C1428 C1431 1.403 . S
H1429 C1435 0.930 . S
C1430 H1416 0.930 . S
C1430 C1428 1.395 . S
C1430 C1433 1.403 . S
C1431 C1428 1.403 . S
C1431 C1432 1.524 . S
C1431 C1435 1.400 . S
C1432 H1417 0.960 . S
C1432 H1418 0.960 . S
C1432 H1419 0.960 . S
C1432 C1431 1.524 . S
C1433 C1430 1.403 . S
C1433 C1434 1.392 . S
C1433 C1437 1.495 . S
C1434 C1433 1.392 . S
C1434 C1435 1.385 . S
C1434 C1436 1.478 . S
C1435 H1429 0.930 . S
C1435 C1431 1.400 . S
C1435 C1434 1.385 . S
C1436 C1434 1.478 . S
C1436 C1438 1.381 . S
C1436 C1442 1.383 . S
C1437 C1433 1.495 . S
C1437 H1443 0.959 . S
C1437 H1444 0.961 . S
C1437 H1445 0.960 . S
C1438 C1436 1.381 . S
C1438 C1439 1.394 . S
C1438 H1446 0.930 . S
C1439 C1438 1.394 . S
C1439 C1440 1.383 . S
C1439 H1447 0.929 . S
C1440 C1439 1.383 . S
C1440 C1441 1.377 . S
C1441 H1425 0.930 . S
C1441 C1440 1.377 . S
C1441 C1442 1.379 . S
C1442 H1426 0.931 . S
C1442 C1436 1.383 . S
C1442 C1441 1.379 . S
H1443 C1437 0.959 . S
H1444 C1437 0.961 . S
H1445 C1437 0.960 . S
H1446 C1438 0.930 . S
H1447 C1439 0.929 . S
H1448 C1456 0.929 . S
H1449 C1458 0.930 . S
H1450 C1460 0.930 . S
H1451 C1463 0.929 . S
H1452 C1466 0.930 . S
H1453 C1468 0.960 . S
H1454 C1468 0.960 . S
H1455 C1468 0.960 . S
C1456 H1448 0.929 . S
C1456 C1457 1.377 . S
C1456 C1458 1.384 . S
C1457 C1456 1.377 . S
C1457 C1463 1.390 . S
C1458 H1449 0.930 . S
C1458 C1456 1.384 . S
C1458 C1459 1.372 . S
C1459 C1458 1.372 . S
C1459 C1460 1.400 . S
C1459 C1464 1.490 . S
C1460 H1450 0.930 . S
C1460 C1459 1.400 . S
C1460 C1463 1.386 . S
H1461 C1477 0.930 . S
H1462 C1478 0.931 . S
C1463 H1451 0.929 . S
C1463 C1457 1.390 . S
C1463 C1460 1.386 . S
C1464 C1459 1.490 . S
C1464 C1466 1.395 . S
C1464 C1467 1.403 . S
H1465 C1471 0.930 . S
C1466 H1452 0.930 . S
C1466 C1464 1.395 . S
C1466 C1469 1.403 . S
C1467 C1464 1.403 . S
C1467 C1468 1.524 . S
C1467 C1471 1.400 . S
C1468 H1453 0.960 . S
C1468 H1454 0.960 . S
C1468 H1455 0.960 . S
C1468 C1467 1.524 . S
C1469 C1466 1.403 . S
C1469 C1470 1.392 . S
C1469 C1473 1.495 . S
C1470 C1469 1.392 . S
C1470 C1471 1.385 . S
C1470 C1472 1.478 . S
C1471 H1465 0.930 . S
C1471 C1467 1.400 . S
C1471 C1470 1.385 . S
C1472 C1470 1.478 . S
C1472 C1474 1.381 . S
C1472 C1478 1.383 . S
C1473 C1469 1.495 . S
C1473 H1479 0.959 . S
C1473 H1480 0.961 . S
C1473 H1481 0.960 . S
C1474 C1472 1.381 . S
C1474 C1475 1.394 . S
C1474 H1482 0.930 . S
C1475 C1474 1.394 . S
C1475 C1476 1.383 . S
C1475 H1483 0.929 . S
C1476 C1475 1.383 . S
C1476 C1477 1.377 . S
C1477 H1461 0.930 . S
C1477 C1476 1.377 . S
C1477 C1478 1.379 . S
C1478 H1462 0.931 . S
C1478 C1472 1.383 . S
C1478 C1477 1.379 . S
H1479 C1473 0.959 . S
H1480 C1473 0.961 . S
H1481 C1473 0.960 . S
H1482 C1474 0.930 . S
H1483 C1475 0.929 . S
H1484 C1492 0.929 . S
H1485 C1494 0.930 . S
H1486 C1496 0.930 . S
H1487 C1499 0.929 . S
H1488 C1502 0.930 . S
H1489 C1504 0.960 . S
H1490 C1504 0.960 . S
H1491 C1504 0.960 . S
C1492 H1484 0.929 . S
C1492 C1493 1.377 . S
C1492 C1494 1.384 . S
C1493 C1492 1.377 . S
C1493 C1499 1.390 . S
C1494 H1485 0.930 . S
C1494 C1492 1.384 . S
C1494 C1495 1.372 . S
C1495 C1494 1.372 . S
C1495 C1496 1.400 . S
C1495 C1500 1.490 . S
C1496 H1486 0.930 . S
C1496 C1495 1.400 . S
C1496 C1499 1.386 . S
H1497 C1513 0.930 . S
H1498 C1514 0.931 . S
C1499 H1487 0.929 . S
C1499 C1493 1.390 . S
C1499 C1496 1.386 . S
C1500 C1495 1.490 . S
C1500 C1502 1.395 . S
C1500 C1503 1.403 . S
H1501 C1507 0.930 . S
C1502 H1488 0.930 . S
C1502 C1500 1.395 . S
C1502 C1505 1.403 . S
C1503 C1500 1.403 . S
C1503 C1504 1.524 . S
C1503 C1507 1.400 . S
C1504 H1489 0.960 . S
C1504 H1490 0.960 . S
C1504 H1491 0.960 . S
C1504 C1503 1.524 . S
C1505 C1502 1.403 . S
C1505 C1506 1.392 . S
C1505 C1509 1.495 . S
C1506 C1505 1.392 . S
C1506 C1507 1.385 . S
C1506 C1508 1.478 . S
C1507 H1501 0.930 . S
C1507 C1503 1.400 . S
C1507 C1506 1.385 . S
C1508 C1506 1.478 . S
C1508 C1510 1.381 . S
C1508 C1514 1.383 . S
C1509 C1505 1.495 . S
C1509 H1515 0.959 . S
C1509 H1516 0.961 . S
C1509 H1517 0.960 . S
C1510 C1508 1.381 . S
C1510 C1511 1.394 . S
C1510 H1518 0.930 . S
C1511 C1510 1.394 . S
C1511 C1512 1.383 . S
C1511 H1519 0.929 . S
C1512 C1511 1.383 . S
C1512 C1513 1.377 . S
C1513 H1497 0.930 . S
C1513 C1512 1.377 . S
C1513 C1514 1.379 . S
C1514 H1498 0.931 . S
C1514 C1508 1.383 . S
C1514 C1513 1.379 . S
H1515 C1509 0.959 . S
H1516 C1509 0.961 . S
H1517 C1509 0.960 . S
H1518 C1510 0.930 . S
H1519 C1511 0.929 . S
H1520 C1528 0.929 . S
H1521 C1530 0.930 . S
H1522 C1532 0.930 . S
H1523 C1535 0.929 . S
H1524 C1538 0.930 . S
H1525 C1540 0.960 . S
H1526 C1540 0.960 . S
H1527 C1540 0.960 . S
C1528 H1520 0.929 . S
C1528 C1529 1.377 . S
C1528 C1530 1.384 . S
C1529 C1528 1.377 . S
C1529 C1535 1.390 . S
C1530 H1521 0.930 . S
C1530 C1528 1.384 . S
C1530 C1531 1.372 . S
C1531 C1530 1.372 . S
C1531 C1532 1.400 . S
C1531 C1536 1.490 . S
C1532 H1522 0.930 . S
C1532 C1531 1.400 . S
C1532 C1535 1.386 . S
H1533 C1549 0.930 . S
H1534 C1550 0.931 . S
C1535 H1523 0.929 . S
C1535 C1529 1.390 . S
C1535 C1532 1.386 . S
C1536 C1531 1.490 . S
C1536 C1538 1.395 . S
C1536 C1539 1.403 . S
H1537 C1543 0.930 . S
C1538 H1524 0.930 . S
C1538 C1536 1.395 . S
C1538 C1541 1.403 . S
C1539 C1536 1.403 . S
C1539 C1540 1.524 . S
C1539 C1543 1.400 . S
C1540 H1525 0.960 . S
C1540 H1526 0.960 . S
C1540 H1527 0.960 . S
C1540 C1539 1.524 . S
C1541 C1538 1.403 . S
C1541 C1542 1.392 . S
C1541 C1545 1.495 . S
C1542 C1541 1.392 . S
C1542 C1543 1.385 . S
C1542 C1544 1.478 . S
C1543 H1537 0.930 . S
C1543 C1539 1.400 . S
C1543 C1542 1.385 . S
C1544 C1542 1.478 . S
C1544 C1546 1.381 . S
C1544 C1550 1.383 . S
C1545 C1541 1.495 . S
C1545 H1551 0.959 . S
C1545 H1552 0.961 . S
C1545 H1553 0.960 . S
C1546 C1544 1.381 . S
C1546 C1547 1.394 . S
C1546 H1554 0.930 . S
C1547 C1546 1.394 . S
C1547 C1548 1.383 . S
C1547 H1555 0.929 . S
C1548 C1547 1.383 . S
C1548 C1549 1.377 . S
C1549 H1533 0.930 . S
C1549 C1548 1.377 . S
C1549 C1550 1.379 . S
C1550 H1534 0.931 . S
C1550 C1544 1.383 . S
C1550 C1549 1.379 . S
H1551 C1545 0.959 . S
H1552 C1545 0.961 . S
H1553 C1545 0.960 . S
H1554 C1546 0.930 . S
H1555 C1547 0.929 . S
H1556 C1564 0.929 . S
H1557 C1566 0.930 . S
H1558 C1568 0.930 . S
H1559 C1571 0.929 . S
H1560 C1574 0.930 . S
H1561 C1576 0.960 . S
H1562 C1576 0.960 . S
H1563 C1576 0.960 . S
C1564 H1556 0.929 . S
C1564 C1565 1.377 . S
C1564 C1566 1.384 . S
C1565 C1564 1.377 . S
C1565 C1571 1.390 . S
C1566 H1557 0.930 . S
C1566 C1564 1.384 . S
C1566 C1567 1.372 . S
C1567 C1566 1.372 . S
C1567 C1568 1.400 . S
C1567 C1572 1.490 . S
C1568 H1558 0.930 . S
C1568 C1567 1.400 . S
C1568 C1571 1.386 . S
H1569 C1585 0.930 . S
H1570 C1586 0.931 . S
C1571 H1559 0.929 . S
C1571 C1565 1.390 . S
C1571 C1568 1.386 . S
C1572 C1567 1.490 . S
C1572 C1574 1.395 . S
C1572 C1575 1.403 . S
H1573 C1579 0.930 . S
C1574 H1560 0.930 . S
C1574 C1572 1.395 . S
C1574 C1577 1.403 . S
C1575 C1572 1.403 . S
C1575 C1576 1.524 . S
C1575 C1579 1.400 . S
C1576 H1561 0.960 . S
C1576 H1562 0.960 . S
C1576 H1563 0.960 . S
C1576 C1575 1.524 . S
C1577 C1574 1.403 . S
C1577 C1578 1.392 . S
C1577 C1581 1.495 . S
C1578 C1577 1.392 . S
C1578 C1579 1.385 . S
C1578 C1580 1.478 . S
C1579 H1573 0.930 . S
C1579 C1575 1.400 . S
C1579 C1578 1.385 . S
C1580 C1578 1.478 . S
C1580 C1582 1.381 . S
C1580 C1586 1.383 . S
C1581 C1577 1.495 . S
C1581 H1587 0.959 . S
C1581 H1588 0.961 . S
C1581 H1589 0.960 . S
C1582 C1580 1.381 . S
C1582 C1583 1.394 . S
C1582 H1590 0.930 . S
C1583 C1582 1.394 . S
C1583 C1584 1.383 . S
C1583 H1591 0.929 . S
C1584 C1583 1.383 . S
C1584 C1585 1.377 . S
C1585 H1569 0.930 . S
C1585 C1584 1.377 . S
C1585 C1586 1.379 . S
C1586 H1570 0.931 . S
C1586 C1580 1.383 . S
C1586 C1585 1.379 . S
H1587 C1581 0.959 . S
H1588 C1581 0.961 . S
H1589 C1581 0.960 . S
H1590 C1582 0.930 . S
H1591 C1583 0.929 . S
H1592 C1600 0.929 . S
H1593 C1602 0.930 . S
H1594 C1604 0.930 . S
H1595 C1607 0.929 . S
H1596 C1610 0.930 . S
H1597 C1612 0.960 . S
H1598 C1612 0.960 . S
H1599 C1612 0.960 . S
C1600 H1592 0.929 . S
C1600 C1601 1.377 . S
C1600 C1602 1.384 . S
C1601 C1600 1.377 . S
C1601 C1607 1.390 . S
C1602 H1593 0.930 . S
C1602 C1600 1.384 . S
C1602 C1603 1.372 . S
C1603 C1602 1.372 . S
C1603 C1604 1.400 . S
C1603 C1608 1.490 . S
C1604 H1594 0.930 . S
C1604 C1603 1.400 . S
C1604 C1607 1.386 . S
H1605 C1621 0.930 . S
H1606 C1622 0.931 . S
C1607 H1595 0.929 . S
C1607 C1601 1.390 . S
C1607 C1604 1.386 . S
C1608 C1603 1.490 . S
C1608 C1610 1.395 . S
C1608 C1611 1.403 . S
H1609 C1615 0.930 . S
C1610 H1596 0.930 . S
C1610 C1608 1.395 . S
C1610 C1613 1.403 . S
C1611 C1608 1.403 . S
C1611 C1612 1.524 . S
C1611 C1615 1.400 . S
C1612 H1597 0.960 . S
C1612 H1598 0.960 . S
C1612 H1599 0.960 . S
C1612 C1611 1.524 . S
C1613 C1610 1.403 . S
C1613 C1614 1.392 . S
C1613 C1617 1.495 . S
C1614 C1613 1.392 . S
C1614 C1615 1.385 . S
C1614 C1616 1.478 . S
C1615 H1609 0.930 . S
C1615 C1611 1.400 . S
C1615 C1614 1.385 . S
C1616 C1614 1.478 . S
C1616 C1618 1.381 . S
C1616 C1622 1.383 . S
C1617 C1613 1.495 . S
C1617 H1623 0.959 . S
C1617 H1624 0.961 . S
C1617 H1625 0.960 . S
C1618 C1616 1.381 . S
C1618 C1619 1.394 . S
C1618 H1626 0.930 . S
C1619 C1618 1.394 . S
C1619 C1620 1.383 . S
C1619 H1627 0.929 . S
C1620 C1619 1.383 . S
C1620 C1621 1.377 . S
C1621 H1605 0.930 . S
C1621 C1620 1.377 . S
C1621 C1622 1.379 . S
C1622 H1606 0.931 . S
C1622 C1616 1.383 . S
C1622 C1621 1.379 . S
H1623 C1617 0.959 . S
H1624 C1617 0.961 . S
H1625 C1617 0.960 . S
H1626 C1618 0.930 . S
H1627 C1619 0.929 . S
H1628 C1636 0.929 . S
H1629 C1638 0.930 . S
H1630 C1640 0.930 . S
H1631 C1643 0.929 . S
H1632 C1646 0.930 . S
H1633 C1648 0.960 . S
H1634 C1648 0.960 . S
H1635 C1648 0.960 . S
C1636 H1628 0.929 . S
C1636 C1637 1.377 . S
C1636 C1638 1.384 . S
C1637 C1636 1.377 . S
C1637 C1643 1.390 . S
C1638 H1629 0.930 . S
C1638 C1636 1.384 . S
C1638 C1639 1.372 . S
C1639 C1638 1.372 . S
C1639 C1640 1.400 . S
C1639 C1644 1.490 . S
C1640 H1630 0.930 . S
C1640 C1639 1.400 . S
C1640 C1643 1.386 . S
H1641 C1657 0.930 . S
H1642 C1658 0.931 . S
C1643 H1631 0.929 . S
C1643 C1637 1.390 . S
C1643 C1640 1.386 . S
C1644 C1639 1.490 . S
C1644 C1646 1.395 . S
C1644 C1647 1.403 . S
H1645 C1651 0.930 . S
C1646 H1632 0.930 . S
C1646 C1644 1.395 . S
C1646 C1649 1.403 . S
C1647 C1644 1.403 . S
C1647 C1648 1.524 . S
C1647 C1651 1.400 . S
C1648 H1633 0.960 . S
C1648 H1634 0.960 . S
C1648 H1635 0.960 . S
C1648 C1647 1.524 . S
C1649 C1646 1.403 . S
C1649 C1650 1.392 . S
C1649 C1653 1.495 . S
C1650 C1649 1.392 . S
C1650 C1651 1.385 . S
C1650 C1652 1.478 . S
C1651 H1645 0.930 . S
C1651 C1647 1.400 . S
C1651 C1650 1.385 . S
C1652 C1650 1.478 . S
C1652 C1654 1.381 . S
C1652 C1658 1.383 . S
C1653 C1649 1.495 . S
C1653 H1659 0.959 . S
C1653 H1660 0.961 . S
C1653 H1661 0.960 . S
C1654 C1652 1.381 . S
C1654 C1655 1.394 . S
C1654 H1662 0.930 . S
C1655 C1654 1.394 . S
C1655 C1656 1.383 . S
C1655 H1663 0.929 . S
C1656 C1655 1.383 . S
C1656 C1657 1.377 . S
C1657 H1641 0.930 . S
C1657 C1656 1.377 . S
C1657 C1658 1.379 . S
C1658 H1642 0.931 . S
C1658 C1652 1.383 . S
C1658 C1657 1.379 . S
H1659 C1653 0.959 . S
H1660 C1653 0.961 . S
H1661 C1653 0.960 . S
H1662 C1654 0.930 . S
H1663 C1655 0.929 . S
H1664 C1672 0.929 . S
H1665 C1674 0.930 . S
H1666 C1676 0.930 . S
H1667 C1679 0.929 . S
H1668 C1682 0.930 . S
H1669 C1684 0.960 . S
H1670 C1684 0.960 . S
H1671 C1684 0.960 . S
C1672 H1664 0.929 . S
C1672 C1673 1.377 . S
C1672 C1674 1.384 . S
C1673 C1672 1.377 . S
C1673 C1679 1.390 . S
C1674 H1665 0.930 . S
C1674 C1672 1.384 . S
C1674 C1675 1.372 . S
C1675 C1674 1.372 . S
C1675 C1676 1.400 . S
C1675 C1680 1.490 . S
C1676 H1666 0.930 . S
C1676 C1675 1.400 . S
C1676 C1679 1.386 . S
H1677 C1693 0.930 . S
H1678 C1694 0.931 . S
C1679 H1667 0.929 . S
C1679 C1673 1.390 . S
C1679 C1676 1.386 . S
C1680 C1675 1.490 . S
C1680 C1682 1.395 . S
C1680 C1683 1.403 . S
H1681 C1687 0.930 . S
C1682 H1668 0.930 . S
C1682 C1680 1.395 . S
C1682 C1685 1.403 . S
C1683 C1680 1.403 . S
C1683 C1684 1.524 . S
C1683 C1687 1.400 . S
C1684 H1669 0.960 . S
C1684 H1670 0.960 . S
C1684 H1671 0.960 . S
C1684 C1683 1.524 . S
C1685 C1682 1.403 . S
C1685 C1686 1.392 . S
C1685 C1689 1.495 . S
C1686 C1685 1.392 . S
C1686 C1687 1.385 . S
C1686 C1688 1.478 . S
C1687 H1681 0.930 . S
C1687 C1683 1.400 . S
C1687 C1686 1.385 . S
C1688 C1686 1.478 . S
C1688 C1690 1.381 . S
C1688 C1694 1.383 . S
C1689 C1685 1.495 . S
C1689 H1695 0.959 . S
C1689 H1696 0.961 . S
C1689 H1697 0.960 . S
C1690 C1688 1.381 . S
C1690 C1691 1.394 . S
C1690 H1698 0.930 . S
C1691 C1690 1.394 . S
C1691 C1692 1.383 . S
C1691 H1699 0.929 . S
C1692 C1691 1.383 . S
C1692 C1693 1.377 . S
C1693 H1677 0.930 . S
C1693 C1692 1.377 . S
C1693 C1694 1.379 . S
C1694 H1678 0.931 . S
C1694 C1688 1.383 . S
C1694 C1693 1.379 . S
H1695 C1689 0.959 . S
H1696 C1689 0.961 . S
H1697 C1689 0.960 . S
H1698 C1690 0.930 . S
H1699 C1691 0.929 . S
H1700 C1708 0.929 . S
H1701 C1710 0.930 . S
H1702 C1712 0.930 . S
H1703 C1715 0.929 . S
H1704 C1718 0.930 . S
H1705 C1720 0.960 . S
H1706 C1720 0.960 . S
H1707 C1720 0.960 . S
C1708 H1700 0.929 . S
C1708 C1709 1.377 . S
C1708 C1710 1.384 . S
C1709 C1708 1.377 . S
C1709 C1715 1.390 . S
C1710 H1701 0.930 . S
C1710 C1708 1.384 . S
C1710 C1711 1.372 . S
C1711 C1710 1.372 . S
C1711 C1712 1.400 . S
C1711 C1716 1.490 . S
C1712 H1702 0.930 . S
C1712 C1711 1.400 . S
C1712 C1715 1.386 . S
H1713 C1729 0.930 . S
H1714 C1730 0.931 . S
C1715 H1703 0.929 . S
C1715 C1709 1.390 . S
C1715 C1712 1.386 . S
C1716 C1711 1.490 . S
C1716 C1718 1.395 . S
C1716 C1719 1.403 . S
H1717 C1723 0.930 . S
C1718 H1704 0.930 . S
C1718 C1716 1.395 . S
C1718 C1721 1.403 . S
C1719 C1716 1.403 . S
C1719 C1720 1.524 . S
C1719 C1723 1.400 . S
C1720 H1705 0.960 . S
C1720 H1706 0.960 . S
C1720 H1707 0.960 . S
C1720 C1719 1.524 . S
C1721 C1718 1.403 . S
C1721 C1722 1.392 . S
C1721 C1725 1.495 . S
C1722 C1721 1.392 . S
C1722 C1723 1.385 . S
C1722 C1724 1.478 . S
C1723 H1717 0.930 . S
C1723 C1719 1.400 . S
C1723 C1722 1.385 . S
C1724 C1722 1.478 . S
C1724 C1726 1.381 . S
C1724 C1730 1.383 . S
C1725 C1721 1.495 . S
C1725 H1731 0.959 . S
C1725 H1732 0.961 . S
C1725 H1733 0.960 . S
C1726 C1724 1.381 . S
C1726 C1727 1.394 . S
C1726 H1734 0.930 . S
C1727 C1726 1.394 . S
C1727 C1728 1.383 . S
C1727 H1735 0.929 . S
C1728 C1727 1.383 . S
C1728 C1729 1.377 . S
C1729 H1713 0.930 . S
C1729 C1728 1.377 . S
C1729 C1730 1.379 . S
C1730 H1714 0.931 . S
C1730 C1724 1.383 . S
C1730 C1729 1.379 . S
H1731 C1725 0.959 . S
H1732 C1725 0.961 . S
H1733 C1725 0.960 . S
H1734 C1726 0.930 . S
H1735 C1727 0.929 . S
H1736 C1744 0.929 . S
H1737 C1746 0.930 . S
H1738 C1748 0.930 . S
H1739 C1751 0.929 . S
H1740 C1754 0.930 . S
H1741 C1756 0.960 . S
H1742 C1756 0.960 . S
H1743 C1756 0.960 . S
C1744 H1736 0.929 . S
C1744 C1745 1.377 . S
C1744 C1746 1.384 . S
C1745 C1744 1.377 . S
C1745 C1751 1.390 . S
C1746 H1737 0.930 . S
C1746 C1744 1.384 . S
C1746 C1747 1.372 . S
C1747 C1746 1.372 . S
C1747 C1748 1.400 . S
C1747 C1752 1.490 . S
C1748 H1738 0.930 . S
C1748 C1747 1.400 . S
C1748 C1751 1.386 . S
H1749 C1765 0.930 . S
H1750 C1766 0.931 . S
C1751 H1739 0.929 . S
C1751 C1745 1.390 . S
C1751 C1748 1.386 . S
C1752 C1747 1.490 . S
C1752 C1754 1.395 . S
C1752 C1755 1.403 . S
H1753 C1759 0.930 . S
C1754 H1740 0.930 . S
C1754 C1752 1.395 . S
C1754 C1757 1.403 . S
C1755 C1752 1.403 . S
C1755 C1756 1.524 . S
C1755 C1759 1.400 . S
C1756 H1741 0.960 . S
C1756 H1742 0.960 . S
C1756 H1743 0.960 . S
C1756 C1755 1.524 . S
C1757 C1754 1.403 . S
C1757 C1758 1.392 . S
C1757 C1761 1.495 . S
C1758 C1757 1.392 . S
C1758 C1759 1.385 . S
C1758 C1760 1.478 . S
C1759 H1753 0.930 . S
C1759 C1755 1.400 . S
C1759 C1758 1.385 . S
C1760 C1758 1.478 . S
C1760 C1762 1.381 . S
C1760 C1766 1.383 . S
C1761 C1757 1.495 . S
C1761 H1767 0.959 . S
C1761 H1768 0.961 . S
C1761 H1769 0.960 . S
C1762 C1760 1.381 . S
C1762 C1763 1.394 . S
C1762 H1770 0.930 . S
C1763 C1762 1.394 . S
C1763 C1764 1.383 . S
C1763 H1771 0.929 . S
C1764 C1763 1.383 . S
C1764 C1765 1.377 . S
C1765 H1749 0.930 . S
C1765 C1764 1.377 . S
C1765 C1766 1.379 . S
C1766 H1750 0.931 . S
C1766 C1760 1.383 . S
C1766 C1765 1.379 . S
H1767 C1761 0.959 . S
H1768 C1761 0.961 . S
H1769 C1761 0.960 . S
H1770 C1762 0.930 . S
H1771 C1763 0.929 . S
H1772 C1780 0.929 . S
H1773 C1782 0.930 . S
H1774 C1784 0.930 . S
H1775 C1787 0.929 . S
H1776 C1790 0.930 . S
H1777 C1792 0.960 . S
H1778 C1792 0.960 . S
H1779 C1792 0.960 . S
C1780 H1772 0.929 . S
C1780 C1781 1.377 . S
C1780 C1782 1.384 . S
C1781 C1780 1.377 . S
C1781 C1787 1.390 . S
C1782 H1773 0.930 . S
C1782 C1780 1.384 . S
C1782 C1783 1.372 . S
C1783 C1782 1.372 . S
C1783 C1784 1.400 . S
C1783 C1788 1.490 . S
C1784 H1774 0.930 . S
C1784 C1783 1.400 . S
C1784 C1787 1.386 . S
H1785 C1801 0.930 . S
H1786 C1802 0.931 . S
C1787 H1775 0.929 . S
C1787 C1781 1.390 . S
C1787 C1784 1.386 . S
C1788 C1783 1.490 . S
C1788 C1790 1.395 . S
C1788 C1791 1.403 . S
H1789 C1795 0.930 . S
C1790 H1776 0.930 . S
C1790 C1788 1.395 . S
C1790 C1793 1.403 . S
C1791 C1788 1.403 . S
C1791 C1792 1.524 . S
C1791 C1795 1.400 . S
C1792 H1777 0.960 . S
C1792 H1778 0.960 . S
C1792 H1779 0.960 . S
C1792 C1791 1.524 . S
C1793 C1790 1.403 . S
C1793 C1794 1.392 . S
C1793 C1797 1.495 . S
C1794 C1793 1.392 . S
C1794 C1795 1.385 . S
C1794 C1796 1.478 . S
C1795 H1789 0.930 . S
C1795 C1791 1.400 . S
C1795 C1794 1.385 . S
C1796 C1794 1.478 . S
C1796 C1798 1.381 . S
C1796 C1802 1.383 . S
C1797 C1793 1.495 . S
C1797 H1803 0.959 . S
C1797 H1804 0.961 . S
C1797 H1805 0.960 . S
C1798 C1796 1.381 . S
C1798 C1799 1.394 . S
C1798 H1806 0.930 . S
C1799 C1798 1.394 . S
C1799 C1800 1.383 . S
C1799 H1807 0.929 . S
C1800 C1799 1.383 . S
C1800 C1801 1.377 . S
C1801 H1785 0.930 . S
C1801 C1800 1.377 . S
C1801 C1802 1.379 . S
C1802 H1786 0.931 . S
C1802 C1796 1.383 . S
C1802 C1801 1.379 . S
H1803 C1797 0.959 . S
H1804 C1797 0.961 . S
H1805 C1797 0.960 . S
H1806 C1798 0.930 . S
H1807 C1799 0.929 . S
H1808 C1816 0.929 . S
H1809 C1818 0.930 . S
H1810 C1820 0.930 . S
H1811 C1823 0.929 . S
H1812 C1826 0.930 . S
H1813 C1828 0.960 . S
H1814 C1828 0.960 . S
H1815 C1828 0.960 . S
C1816 H1808 0.929 . S
C1816 C1817 1.377 . S
C1816 C1818 1.384 . S
C1817 C1816 1.377 . S
C1817 C1823 1.390 . S
C1818 H1809 0.930 . S
C1818 C1816 1.384 . S
C1818 C1819 1.372 . S
C1819 C1818 1.372 . S
C1819 C1820 1.400 . S
C1819 C1824 1.490 . S
C1820 H1810 0.930 . S
C1820 C1819 1.400 . S
C1820 C1823 1.386 . S
H1821 C1837 0.930 . S
H1822 C1838 0.931 . S
C1823 H1811 0.929 . S
C1823 C1817 1.390 . S
C1823 C1820 1.386 . S
C1824 C1819 1.490 . S
C1824 C1826 1.395 . S
C1824 C1827 1.403 1_655 S
H1825 C1831 0.930 . S
C1826 H1812 0.930 . S
C1826 C1824 1.395 . S
C1826 C1829 1.403 1_565 S
C1827 C1824 1.403 1_455 S
C1827 C1828 1.524 . S
C1827 C1831 1.400 1_565 S
C1828 H1813 0.960 . S
C1828 H1814 0.960 . S
C1828 H1815 0.960 . S
C1828 C1827 1.524 . S
C1829 C1826 1.403 1_545 S
C1829 C1830 1.392 1_655 S
C1829 C1833 1.495 . S
C1830 C1829 1.392 1_455 S
C1830 C1831 1.385 . S
C1830 C1832 1.478 . S
C1831 H1825 0.930 . S
C1831 C1827 1.400 1_545 S
C1831 C1830 1.385 . S
C1832 C1830 1.478 . S
C1832 C1834 1.381 . S
C1832 C1838 1.383 . S
C1833 C1829 1.495 . S
C1833 H1839 0.959 . S
C1833 H1840 0.961 . S
C1833 H1841 0.960 . S
C1834 C1832 1.381 . S
C1834 C1835 1.394 . S
C1834 H1842 0.930 . S
C1835 C1834 1.394 . S
C1835 C1836 1.383 . S
C1835 H1843 0.929 . S
C1836 C1835 1.383 . S
C1836 C1837 1.377 . S
C1837 H1821 0.930 . S
C1837 C1836 1.377 . S
C1837 C1838 1.379 . S
C1838 H1822 0.931 . S
C1838 C1832 1.383 . S
C1838 C1837 1.379 . S
H1839 C1833 0.959 . S
H1840 C1833 0.961 . S
H1841 C1833 0.960 . S
H1842 C1834 0.930 . S
H1843 C1835 0.929 . S
H1844 C1852 0.929 . S
H1845 C1854 0.930 . S
H1846 C1856 0.930 . S
H1847 C1859 0.929 . S
H1848 C1862 0.930 . S
H1849 C1864 0.960 1_455 S
H1850 C1864 0.960 . S
H1851 C1864 0.960 . S
C1852 H1844 0.929 . S
C1852 C1853 1.377 . S
C1852 C1854 1.384 . S
C1853 C1852 1.377 . S
C1853 C1859 1.390 . S
C1854 H1845 0.930 . S
C1854 C1852 1.384 . S
C1854 C1855 1.372 . S
C1855 C1854 1.372 . S
C1855 C1856 1.400 . S
C1855 C1860 1.490 . S
C1856 H1846 0.930 . S
C1856 C1855 1.400 . S
C1856 C1859 1.386 . S
H1857 C1873 0.930 . S
H1858 C1874 0.931 . S
C1859 H1847 0.929 . S
C1859 C1853 1.390 . S
C1859 C1856 1.386 . S
C1860 C1855 1.490 . S
C1860 C1862 1.395 1_545 S
C1860 C1863 1.403 . S
H1861 C1867 0.930 . S
C1862 H1848 0.930 . S
C1862 C1860 1.395 1_565 S
C1862 C1865 1.394 1_655 S
C1863 C1860 1.403 . S
C1863 C1864 1.524 . S
C1863 C1867 1.400 1_655 S
C1864 H1849 0.960 1_655 S
C1864 H1850 0.960 . S
C1864 H1851 0.960 . S
C1864 C1863 1.524 . S
C1865 C1862 1.394 1_455 S
C1865 C1866 1.401 . S
C1865 C1869 1.495 . S
C1866 C1865 1.401 . S
C1866 C1867 1.385 1_565 S
C1866 C1868 1.478 . S
C1867 H1861 0.930 . S
C1867 C1863 1.400 1_455 S
C1867 C1866 1.385 1_545 S
C1868 C1866 1.478 . S
C1868 C1870 1.381 . S
C1868 C1874 1.383 . S
C1869 C1865 1.495 . S
C1869 H1875 0.940 1_455 S
C1869 H1876 0.969 . S
C1869 H1877 0.971 . S
C1870 C1868 1.381 . S
C1870 C1871 1.394 . S
C1870 H1878 0.930 . S
C1871 C1870 1.394 . S
C1871 C1872 1.383 . S
C1871 H1879 0.929 . S
C1872 C1871 1.383 . S
C1872 C1873 1.377 . S
C1873 H1857 0.930 . S
C1873 C1872 1.377 . S
C1873 C1874 1.379 . S
C1874 H1858 0.931 . S
C1874 C1868 1.383 . S
C1874 C1873 1.379 . S
H1875 C1869 0.940 1_655 S
H1876 C1869 0.969 . S
H1877 C1869 0.971 . S
H1878 C1870 0.930 . S
H1879 C1871 0.929 . S
H1880 C1888 0.929 . S
H1881 C1890 0.930 . S
H1882 C1892 0.930 1_655 S
H1883 C1895 0.929 . S
H1884 C1898 0.930 . S
H1885 C1900 0.960 . S
H1886 C1900 0.960 . S
H1887 C1900 0.960 . S
C1888 H1880 0.929 . S
C1888 C1889 1.377 . S
C1888 C1890 1.384 . S
C1889 C1888 1.377 . S
C1889 C1895 1.390 . S
C1890 H1881 0.930 . S
C1890 C1888 1.384 . S
C1890 C1891 1.372 . S
C1891 C1890 1.372 . S
C1891 C1892 1.400 . S
C1891 C1896 1.490 . S
C1892 H1882 0.930 1_455 S
C1892 C1891 1.400 . S
C1892 C1895 1.386 . S
H1893 C1909 0.930 . S
H1894 C1910 0.931 . S
C1895 H1883 0.929 . S
C1895 C1889 1.390 . S
C1895 C1892 1.386 . S
C1896 C1891 1.490 . S
C1896 C1898 1.395 . S
C1896 C1899 1.403 1_455 S
H1897 C1903 0.930 . S
C1898 H1884 0.930 . S
C1898 C1896 1.395 . S
C1898 C1901 1.403 . S
C1899 C1896 1.403 1_655 S
C1899 C1900 1.524 . S
C1899 C1903 1.400 . S
C1900 H1885 0.960 . S
C1900 H1886 0.960 . S
C1900 H1887 0.960 . S
C1900 C1899 1.524 . S
C1901 C1898 1.403 . S
C1901 C1902 1.392 1_455 S
C1901 C1905 1.495 . S
C1902 C1901 1.392 1_655 S
C1902 C1903 1.385 . S
C1902 C1904 1.478 . S
C1903 H1897 0.930 . S
C1903 C1899 1.400 . S
C1903 C1902 1.385 . S
C1904 C1902 1.478 . S
C1904 C1906 1.381 . S
C1904 C1910 1.383 . S
C1905 C1901 1.495 . S
C1905 H1911 0.959 . S
C1905 H1912 0.961 . S
C1905 H1913 0.960 . S
C1906 C1904 1.381 . S
C1906 C1907 1.394 . S
C1906 H1914 0.930 1_655 S
C1907 C1906 1.394 . S
C1907 C1908 1.383 . S
C1907 H1915 0.929 . S
C1908 C1907 1.383 . S
C1908 C1909 1.377 . S
C1909 H1893 0.930 . S
C1909 C1908 1.377 . S
C1909 C1910 1.379 . S
C1910 H1894 0.931 . S
C1910 C1904 1.383 . S
C1910 C1909 1.379 . S
H1911 C1905 0.959 . S
H1912 C1905 0.961 . S
H1913 C1905 0.960 . S
H1914 C1906 0.930 1_455 S
H1915 C1907 0.929 . S
H1916 C1924 0.929 . S
H1917 C1926 0.930 . S
H1918 C1928 0.930 . S
H1919 C1931 0.929 . S
H1920 C1934 0.930 . S
H1921 C1936 0.960 . S
H1922 C1936 0.960 . S
H1923 C1936 0.960 . S
C1924 H1916 0.929 . S
C1924 C1925 1.377 . S
C1924 C1926 1.384 . S
C1925 C1924 1.377 . S
C1925 C1931 1.390 . S
C1926 H1917 0.930 . S
C1926 C1924 1.384 . S
C1926 C1927 1.372 . S
C1927 C1926 1.372 . S
C1927 C1928 1.400 . S
C1927 C1932 1.490 . S
C1928 H1918 0.930 . S
C1928 C1927 1.400 . S
C1928 C1931 1.386 . S
H1929 C1945 0.930 . S
H1930 C1946 0.931 . S
C1931 H1919 0.929 . S
C1931 C1925 1.390 . S
C1931 C1928 1.386 . S
C1932 C1927 1.490 . S
C1932 C1934 1.395 . S
C1932 C1935 1.403 1_565 S
H1933 C1939 0.930 . S
C1934 H1920 0.930 . S
C1934 C1932 1.395 . S
C1934 C1937 1.403 . S
C1935 C1932 1.403 1_545 S
C1935 C1936 1.524 . S
C1935 C1939 1.400 . S
C1936 H1921 0.960 . S
C1936 H1922 0.960 . S
C1936 H1923 0.960 . S
C1936 C1935 1.524 . S
C1937 C1934 1.403 . S
C1937 C1938 1.392 1_565 S
C1937 C1941 1.495 . S
C1938 C1937 1.392 1_545 S
C1938 C1939 1.385 . S
C1938 C1940 1.478 . S
C1939 H1933 0.930 . S
C1939 C1935 1.400 . S
C1939 C1938 1.385 . S
C1940 C1938 1.478 . S
C1940 C1942 1.381 . S
C1940 C1946 1.383 . S
C1941 C1937 1.495 . S
C1941 H1947 0.959 . S
C1941 H1948 0.961 . S
C1941 H1949 0.960 . S
C1942 C1940 1.381 . S
C1942 C1943 1.394 . S
C1942 H1950 0.938 . S
C1943 C1942 1.394 . S
C1943 C1944 1.383 . S
C1943 H1951 0.929 . S
C1944 C1943 1.383 . S
C1944 C1945 1.377 . S
C1945 H1929 0.930 . S
C1945 C1944 1.377 . S
C1945 C1946 1.379 . S
C1946 H1930 0.931 . S
C1946 C1940 1.383 . S
C1946 C1945 1.379 . S
H1947 C1941 0.959 . S
H1948 C1941 0.961 . S
H1949 C1941 0.960 . S
H1950 C1942 0.938 . S
H1951 C1943 0.929 . S
H1952 C1960 0.929 . S
H1953 C1962 0.930 . S
H1954 C1964 0.930 . S
H1955 C1967 0.929 . S
H1956 C1970 0.930 . S
H1957 C1972 0.960 . S
H1958 C1972 0.960 . S
H1959 C1972 0.960 . S
C1960 H1952 0.929 . S
C1960 C1961 1.377 . S
C1960 C1962 1.384 . S
C1961 C1960 1.377 . S
C1961 C1967 1.390 . S
C1962 H1953 0.930 . S
C1962 C1960 1.384 . S
C1962 C1963 1.372 . S
C1963 C1962 1.372 . S
C1963 C1964 1.400 . S
C1963 C1968 1.490 . S
C1964 H1954 0.930 . S
C1964 C1963 1.400 . S
C1964 C1967 1.386 . S
H1965 C1981 0.930 . S
H1966 C1982 0.931 . S
C1967 H1955 0.929 . S
C1967 C1961 1.390 . S
C1967 C1964 1.386 . S
C1968 C1963 1.490 . S
C1968 C1970 1.395 . S
C1968 C1971 1.403 . S
H1969 C1975 0.930 . S
C1970 H1956 0.930 . S
C1970 C1968 1.395 . S
C1970 C1973 1.403 . S
C1971 C1968 1.403 . S
C1971 C1972 1.524 . S
C1971 C1975 1.400 . S
C1972 H1957 0.960 . S
C1972 H1958 0.960 . S
C1972 H1959 0.960 . S
C1972 C1971 1.524 . S
C1973 C1970 1.403 . S
C1973 C1974 1.392 . S
C1973 C1977 1.495 . S
C1974 C1973 1.392 . S
C1974 C1975 1.385 . S
C1974 C1976 1.478 . S
C1975 H1969 0.930 . S
C1975 C1971 1.400 . S
C1975 C1974 1.385 . S
C1976 C1974 1.478 . S
C1976 C1978 1.381 . S
C1976 C1982 1.383 . S
C1977 C1973 1.495 . S
C1977 H1983 0.959 . S
C1977 H1984 0.961 . S
C1977 H1985 0.960 . S
C1978 C1976 1.381 . S
C1978 C1979 1.394 . S
C1978 H1986 0.930 . S
C1979 C1978 1.394 . S
C1979 C1980 1.383 . S
C1979 H1987 0.929 . S
C1980 C1979 1.383 . S
C1980 C1981 1.377 . S
C1981 H1965 0.930 . S
C1981 C1980 1.377 . S
C1981 C1982 1.379 . S
C1982 H1966 0.931 . S
C1982 C1976 1.383 . S
C1982 C1981 1.379 . S
H1983 C1977 0.959 . S
H1984 C1977 0.961 . S
H1985 C1977 0.960 . S
H1986 C1978 0.930 . S
H1987 C1979 0.929 . S
H1988 C1996 0.929 . S
H1989 C1998 0.930 . S
H1990 C2000 0.930 . S
H1991 C2003 0.929 . S
H1992 C2006 0.930 . S
H1993 C2008 0.960 . S
H1994 C2008 0.960 . S
H1995 C2008 0.960 . S
C1996 H1988 0.929 . S
C1996 C1997 1.377 . S
C1996 C1998 1.384 . S
C1997 C1996 1.377 . S
C1997 C2003 1.390 . S
C1998 H1989 0.930 . S
C1998 C1996 1.384 . S
C1998 C1999 1.372 . S
C1999 C1998 1.372 . S
C1999 C2000 1.400 . S
C1999 C2004 1.490 . S
C2000 H1990 0.930 . S
C2000 C1999 1.400 . S
C2000 C2003 1.386 . S
H2001 C2017 0.930 . S
H2002 C2018 0.931 . S
C2003 H1991 0.929 . S
C2003 C1997 1.390 . S
C2003 C2000 1.386 . S
C2004 C1999 1.490 . S
C2004 C2006 1.395 . S
C2004 C2007 1.403 . S
H2005 C2011 0.930 . S
C2006 H1992 0.930 . S
C2006 C2004 1.395 . S
C2006 C2009 1.403 . S
C2007 C2004 1.403 . S
C2007 C2008 1.524 . S
C2007 C2011 1.400 . S
C2008 H1993 0.960 . S
C2008 H1994 0.960 . S
C2008 H1995 0.960 . S
C2008 C2007 1.524 . S
C2009 C2006 1.403 . S
C2009 C2010 1.392 . S
C2009 C2013 1.495 . S
C2010 C2009 1.392 . S
C2010 C2011 1.385 . S
C2010 C2012 1.478 . S
C2011 H2005 0.930 . S
C2011 C2007 1.400 . S
C2011 C2010 1.385 . S
C2012 C2010 1.478 . S
C2012 C2014 1.381 . S
C2012 C2018 1.383 . S
C2013 C2009 1.495 . S
C2013 H2019 0.959 . S
C2013 H2020 0.961 . S
C2013 H2021 0.960 . S
C2014 C2012 1.381 . S
C2014 C2015 1.394 . S
C2014 H2022 0.930 . S
C2015 C2014 1.394 . S
C2015 C2016 1.383 . S
C2015 H2023 0.929 . S
C2016 C2015 1.383 . S
C2016 C2017 1.377 . S
C2017 H2001 0.930 . S
C2017 C2016 1.377 . S
C2017 C2018 1.379 . S
C2018 H2002 0.931 . S
C2018 C2012 1.383 . S
C2018 C2017 1.379 . S
H2019 C2013 0.959 . S
H2020 C2013 0.961 . S
H2021 C2013 0.960 . S
H2022 C2014 0.930 . S
H2023 C2015 0.929 . S
H2024 C2032 0.929 . S
H2025 C2034 0.930 . S
H2026 C2036 0.930 . S
H2027 C2039 0.929 . S
H2028 C2042 0.930 . S
H2029 C2044 0.960 1_565 S
H2030 C2044 0.960 . S
H2031 C2044 0.960 . S
C2032 H2024 0.929 . S
C2032 C2033 1.377 . S
C2032 C2034 1.384 . S
C2033 C2032 1.377 . S
C2033 C2039 1.390 . S
C2034 H2025 0.930 . S
C2034 C2032 1.384 . S
C2034 C2035 1.372 . S
C2035 C2034 1.372 . S
C2035 C2036 1.400 . S
C2035 C2040 1.490 . S
C2036 H2026 0.930 . S
C2036 C2035 1.400 . S
C2036 C2039 1.386 . S
H2037 C2053 0.930 . S
H2038 C2054 0.931 . S
C2039 H2027 0.929 . S
C2039 C2033 1.390 . S
C2039 C2036 1.386 . S
C2040 C2035 1.490 . S
C2040 C2042 1.395 . S
C2040 C2043 1.403 . S
H2041 C2047 0.930 . S
C2042 H2028 0.930 . S
C2042 C2040 1.395 . S
C2042 C2045 1.403 1_545 S
C2043 C2040 1.403 . S
C2043 C2044 1.524 . S
C2043 C2047 1.400 1_545 S
C2044 H2029 0.960 1_545 S
C2044 H2030 0.960 . S
C2044 H2031 0.960 . S
C2044 C2043 1.524 . S
C2045 C2042 1.403 1_565 S
C2045 C2046 1.392 . S
C2045 C2049 1.495 . S
C2046 C2045 1.392 . S
C2046 C2047 1.385 . S
C2046 C2048 1.478 . S
C2047 H2041 0.930 . S
C2047 C2043 1.400 1_565 S
C2047 C2046 1.385 . S
C2048 C2046 1.478 . S
C2048 C2050 1.381 . S
C2048 C2054 1.383 . S
C2049 C2045 1.495 . S
C2049 H2055 0.959 1_565 S
C2049 H2056 0.961 . S
C2049 H2057 0.960 . S
C2050 C2048 1.381 . S
C2050 C2051 1.394 . S
C2050 H2058 0.930 . S
C2051 C2050 1.394 . S
C2051 C2052 1.383 . S
C2051 H2059 0.929 . S
C2052 C2051 1.383 . S
C2052 C2053 1.377 . S
C2053 H2037 0.930 . S
C2053 C2052 1.377 . S
C2053 C2054 1.379 . S
C2054 H2038 0.931 . S
C2054 C2048 1.383 . S
C2054 C2053 1.379 . S
H2055 C2049 0.959 1_545 S
H2056 C2049 0.961 . S
H2057 C2049 0.960 . S
H2058 C2050 0.930 . S
H2059 C2051 0.929 . S
H2060 C2068 0.929 . S
H2061 C2070 0.930 . S
H2062 C2072 0.930 . S
H2063 C2075 0.929 . S
H2064 C2078 0.930 . S
H2065 C2080 0.960 1_455 S
H2066 C2080 0.960 . S
H2067 C2080 0.960 . S
C2068 H2060 0.929 . S
C2068 C2069 1.377 . S
C2068 C2070 1.384 . S
C2069 C2068 1.377 . S
C2069 C2075 1.390 . S
C2070 H2061 0.930 . S
C2070 C2068 1.384 . S
C2070 C2071 1.372 . S
C2071 C2070 1.372 . S
C2071 C2072 1.400 . S
C2071 C2076 1.490 . S
C2072 H2062 0.930 . S
C2072 C2071 1.400 . S
C2072 C2075 1.386 . S
H2073 C2089 0.930 . S
H2074 C2090 0.931 . S
C2075 H2063 0.929 . S
C2075 C2069 1.390 . S
C2075 C2072 1.386 . S
C2076 C2071 1.490 . S
C2076 C2078 1.395 . S
C2076 C2079 1.403 . S
H2077 C2083 0.930 . S
C2078 H2064 0.930 . S
C2078 C2076 1.395 . S
C2078 C2081 1.403 1_655 S
C2079 C2076 1.403 . S
C2079 C2080 1.524 . S
C2079 C2083 1.400 1_655 S
C2080 H2065 0.960 1_655 S
C2080 H2066 0.960 . S
C2080 H2067 0.960 . S
C2080 C2079 1.524 . S
C2081 C2078 1.403 1_455 S
C2081 C2082 1.392 . S
C2081 C2085 1.495 . S
C2082 C2081 1.392 . S
C2082 C2083 1.385 . S
C2082 C2084 1.478 . S
C2083 H2077 0.930 . S
C2083 C2079 1.400 1_455 S
C2083 C2082 1.385 . S
C2084 C2082 1.478 . S
C2084 C2086 1.381 . S
C2084 C2090 1.383 . S
C2085 C2081 1.495 . S
C2085 H2091 0.959 1_455 S
C2085 H2092 0.961 . S
C2085 H2093 0.960 . S
C2086 C2084 1.381 . S
C2086 C2087 1.394 . S
C2086 H2094 0.930 . S
C2087 C2086 1.394 . S
C2087 C2088 1.383 . S
C2087 H2095 0.929 . S
C2088 C2087 1.383 . S
C2088 C2089 1.377 . S
C2089 H2073 0.930 . S
C2089 C2088 1.377 . S
C2089 C2090 1.379 . S
C2090 H2074 0.931 . S
C2090 C2084 1.383 . S
C2090 C2089 1.379 . S
H2091 C2085 0.959 1_655 S
H2092 C2085 0.961 . S
H2093 C2085 0.960 . S
H2094 C2086 0.930 . S
H2095 C2087 0.929 . S
C953 C33 1.249 . S
C972 C701 1.250 . S
C989 C524 1.257 . S
C1008 C92 1.240 . S
C1025 C583 1.259 . S
C1044 C151 1.262 . S
C1061 C642 1.259 . S
C1080 C210 1.240 . S
C1097 C347 1.259 . S
C1116 C269 1.263 . S
C1133 C328 1.249 . S
C1152 C406 1.258 . S
C1169 C387 1.250 . S
C1188 C465 1.252 . S
C1205 C446 1.254 . S
C1224 C288 1.250 . S
C1241 C505 1.251 . S
C1260 C229 1.256 . S
C1277 C52 1.258 . S
C1296 C564 1.253 . S
C1313 C111 1.257 . S
C1332 C623 1.239 . S
C1349 C170 1.256 . S
C1368 C682 1.261 . S
C1385 C819 1.256 . S
C1404 C741 1.235 . S
C1421 C800 1.253 . S
C1440 C878 1.248 . S
C1457 C937 1.257 . S
C1476 C859 1.239 . S
C1493 C760 1.259 . S
C1512 C918 1.239 . S
C1529 C831 1.512 . S
C1548 C5 1.517 . S
C1565 C890 1.508 . S
C1584 C64 1.501 . S
C1601 C713 1.509 . S
C1620 C123 1.497 . S
C1637 C182 1.510 . S
C1656 C772 1.497 . S
C1673 C241 1.512 . S
C1692 C595 1.512 . S
C1709 C654 1.510 . S
C1728 C300 1.517 . S
C1745 C359 1.512 . S
C1764 C477 1.517 . S
C1781 C418 1.509 . S
C1800 C536 1.500 . S
C1817 C121 1.320 . S
C1836 C3 1.301 . S
C1853 C180 1.325 . S
C1872 C62 1.339 . S
C1889 C239 1.324 . S
C1908 C357 1.309 . S
C1925 C298 1.323 . S
C1944 C416 1.301 . S
C1961 C593 1.326 . S
C1980 C475 1.340 . S
C1997 C534 1.326 . S
C2016 C652 1.337 . S
C2033 C829 1.324 . S
C2052 C711 1.336 . S
C2069 C770 1.321 . S
C2088 C888 1.334 . S
