# Generated by pormake.
# Topology umb, (4)-cn, num edge types: 1
# Building blocks:
#     Node 0, Type 0, BuildingBlock: MUDLON_clean_sbu_0, # of connection points: 4
#     Node 1, Type 0, BuildingBlock: MUDLON_clean_sbu_0, # of connection points: 4
#     Node 2, Type 0, BuildingBlock: MUDLON_clean_sbu_0, # of connection points: 4
#     Node 3, Type 0, BuildingBlock: MUDLON_clean_sbu_0, # of connection points: 4
#     Node 4, Type 0, BuildingBlock: MUDLON_clean_sbu_0, # of connection points: 4
#     Node 5, Type 0, BuildingBlock: MUDLON_clean_sbu_0, # of connection points: 4
#     Node 6, Type 0, BuildingBlock: MUDLON_clean_sbu_0, # of connection points: 4
#     Node 7, Type 0, BuildingBlock: MUDLON_clean_sbu_0, # of connection points: 4
#     Node 8, Type 0, BuildingBlock: MUDLON_clean_sbu_0, # of connection points: 4
#     Node 9, Type 0, BuildingBlock: MUDLON_clean_sbu_0, # of connection points: 4
#     Node 10, Type 0, BuildingBlock: MUDLON_clean_sbu_0, # of connection points: 4
#     Node 11, Type 0, BuildingBlock: MUDLON_clean_sbu_0, # of connection points: 4
#     Edge 12, Type (0, 0), BuildingBlock: TEMPAE_clean_linker_10, # of connection points: 2
#     Edge 13, Type (0, 0), BuildingBlock: TEMPAE_clean_linker_10, # of connection points: 2
#     Edge 14, Type (0, 0), BuildingBlock: TEMPAE_clean_linker_10, # of connection points: 2
#     Edge 15, Type (0, 0), BuildingBlock: TEMPAE_clean_linker_10, # of connection points: 2
#     Edge 16, Type (0, 0), BuildingBlock: TEMPAE_clean_linker_10, # of connection points: 2
#     Edge 17, Type (0, 0), BuildingBlock: TEMPAE_clean_linker_10, # of connection points: 2
#     Edge 18, Type (0, 0), BuildingBlock: TEMPAE_clean_linker_10, # of connection points: 2
#     Edge 19, Type (0, 0), BuildingBlock: TEMPAE_clean_linker_10, # of connection points: 2
#     Edge 20, Type (0, 0), BuildingBlock: TEMPAE_clean_linker_10, # of connection points: 2
#     Edge 21, Type (0, 0), BuildingBlock: TEMPAE_clean_linker_10, # of connection points: 2
#     Edge 22, Type (0, 0), BuildingBlock: TEMPAE_clean_linker_10, # of connection points: 2
#     Edge 23, Type (0, 0), BuildingBlock: TEMPAE_clean_linker_10, # of connection points: 2
#     Edge 24, Type (0, 0), BuildingBlock: TEMPAE_clean_linker_10, # of connection points: 2
#     Edge 25, Type (0, 0), BuildingBlock: TEMPAE_clean_linker_10, # of connection points: 2
#     Edge 26, Type (0, 0), BuildingBlock: TEMPAE_clean_linker_10, # of connection points: 2
#     Edge 27, Type (0, 0), BuildingBlock: TEMPAE_clean_linker_10, # of connection points: 2
#     Edge 28, Type (0, 0), BuildingBlock: TEMPAE_clean_linker_10, # of connection points: 2
#     Edge 29, Type (0, 0), BuildingBlock: TEMPAE_clean_linker_10, # of connection points: 2
#     Edge 30, Type (0, 0), BuildingBlock: TEMPAE_clean_linker_10, # of connection points: 2
#     Edge 31, Type (0, 0), BuildingBlock: TEMPAE_clean_linker_10, # of connection points: 2
#     Edge 32, Type (0, 0), BuildingBlock: TEMPAE_clean_linker_10, # of connection points: 2
#     Edge 33, Type (0, 0), BuildingBlock: TEMPAE_clean_linker_10, # of connection points: 2
#     Edge 34, Type (0, 0), BuildingBlock: TEMPAE_clean_linker_10, # of connection points: 2
#     Edge 35, Type (0, 0), BuildingBlock: TEMPAE_clean_linker_10, # of connection points: 2
# Relax obj value: 0.249
# Max RMSD: 0.216
# Mean RMSD: 0.216
data_MOF--net-umb--node1-MUDLON_clean_sbu_0--edge1-TEMPAE_clean_linker_10
_symmetry_space_group_name_H-M    P1
_symmetry_Int_Tables_number       1
_symmetry_cell_setting            triclinic
loop_
_symmetry_equiv_pos_as_xyz
'x, y, z'
_cell_length_a     49.035929
_cell_length_b     49.221234
_cell_length_c     40.481342
_cell_angle_alpha  89.94204
_cell_angle_beta   90.340559
_cell_angle_gamma 119.85623
loop_
_atom_site_label
_atom_site_type_symbol
_atom_site_fract_x
_atom_site_fract_y
_atom_site_fract_z
_atom_type_partial_charge
Mg0 Mg 0.50159 0.14692 0.37676 0.0
C1 C 0.5674 0.1859 0.3503 0.0
O2 O 0.55193 0.18145 0.32238 0.0
C3 C 0.50298 0.09178 0.34602 0.0
O4 O 0.52914 0.11465 0.33385 0.0
C5 C 0.48013 0.15756 0.31036 0.0
O6 O 0.47652 0.12955 0.30567 0.0
O7 O 0.48773 0.16968 0.33909 0.0
O8 O 0.55228 0.17295 0.37643 0.0
O9 O 0.49013 0.15047 0.42806 0.0
C10 C 0.50731 0.17581 0.44384 0.0
O11 O 0.52869 0.20018 0.42756 0.0
O12 O 0.48624 0.0984 0.36456 0.0
Mg13 Mg 0.40257 0.54547 0.67309 0.0
C14 C 0.38308 0.55975 0.73771 0.0
O15 O 0.38252 0.58106 0.7186 0.0
C16 C 0.36859 0.52503 0.60699 0.0
O17 O 0.3952 0.52646 0.59897 0.0
C18 C 0.43313 0.50548 0.68118 0.0
O19 O 0.40839 0.48861 0.69965 0.0
O20 O 0.43515 0.52875 0.66551 0.0
O21 O 0.3881 0.53911 0.72466 0.0
O22 O 0.43131 0.59557 0.67082 0.0
C23 C 0.42471 0.61221 0.6522 0.0
O24 O 0.40201 0.59831 0.63026 0.0
O25 O 0.36451 0.53026 0.63683 0.0
Mg26 Mg 0.7952 0.41343 0.99223 0.0
C27 C 0.76407 0.45185 0.97088 0.0
O28 O 0.75108 0.43079 0.94737 0.0
C29 C 0.85804 0.45453 0.95994 0.0
O30 O 0.84465 0.47122 0.95267 0.0
C31 C 0.75661 0.37116 0.93568 0.0
O32 O 0.77675 0.39587 0.9189 0.0
O33 O 0.75914 0.37139 0.96701 0.0
O34 O 0.78461 0.45116 0.98953 0.0
O35 O 0.79629 0.408 0.04565 0.0
C36 C 0.81438 0.43354 0.06072 0.0
O37 O 0.83074 0.45899 0.04307 0.0
O38 O 0.84215 0.42859 0.97481 0.0
Mg39 Mg 0.42541 0.80219 0.34396 0.0
C40 C 0.36012 0.7939 0.3452 0.0
O41 O 0.37368 0.81738 0.36616 0.0
C42 C 0.44056 0.86501 0.31684 0.0
O43 O 0.41834 0.84687 0.29588 0.0
C44 C 0.42424 0.75254 0.30023 0.0
O45 O 0.39533 0.73856 0.31151 0.0
O46 O 0.44361 0.77988 0.31086 0.0
O47 O 0.37687 0.78461 0.33058 0.0
O48 O 0.42396 0.79157 0.39665 0.0
C49 C 0.39884 0.76923 0.40876 0.0
O50 O 0.37611 0.75058 0.38856 0.0
O51 O 0.44943 0.85252 0.33875 0.0
Mg52 Mg 0.65449 0.44188 0.70518 0.0
C53 C 0.65283 0.40932 0.76833 0.0
O54 O 0.64532 0.38698 0.74644 0.0
C55 C 0.6833 0.45327 0.63968 0.0
O56 O 0.65467 0.4481 0.63408 0.0
C57 C 0.61823 0.47442 0.72054 0.0
O58 O 0.61929 0.46427 0.75028 0.0
O59 O 0.63369 0.47101 0.69746 0.0
O60 O 0.66162 0.43695 0.75802 0.0
O61 O 0.61499 0.39695 0.69283 0.0
C62 C 0.61418 0.37546 0.67484 0.0
O63 O 0.6398 0.38009 0.65978 0.0
O64 O 0.6917 0.45296 0.66944 0.0
Mg65 Mg 0.15435 0.58805 1.01251 0.0
C66 C 0.18173 0.54968 0.985 0.0
O67 O 0.18989 0.56999 0.96076 0.0
C68 C 0.09282 0.55512 0.97563 0.0
O69 O 0.11044 0.55013 0.95497 0.0
C70 C 0.17475 0.63619 0.95683 0.0
O71 O 0.14438 0.62585 0.95537 0.0
O72 O 0.18536 0.62551 0.97903 0.0
O73 O 0.16396 0.54999 1.00747 0.0
O74 O 0.16452 0.59952 0.06485 0.0
C75 C 0.18896 0.59991 0.07631 0.0
O76 O 0.20797 0.59719 0.05554 0.0
O77 O 0.10522 0.57087 1.00177 0.0
Mg78 Mg 0.82897 0.44183 0.38018 0.0
C79 C 0.83902 0.44312 0.30937 0.0
O80 O 0.85014 0.42589 0.32185 0.0
C81 C 0.80583 0.44341 0.44562 0.0
O82 O 0.81076 0.4195 0.44553 0.0
C83 C 0.89902 0.4725 0.3849 0.0
O84 O 0.89628 0.49421 0.36877 0.0
O85 O 0.8743 0.44757 0.39319 0.0
O86 O 0.82883 0.45608 0.32918 0.0
O87 O 0.79485 0.39274 0.37817 0.0
C88 C 0.76697 0.38762 0.37449 0.0
O89 O 0.76227 0.41167 0.37306 0.0
O90 O 0.81259 0.46023 0.41972 0.0
Mg91 Mg 0.36083 0.79859 0.71891 0.0
C92 C 0.39902 0.77255 0.75141 0.0
O93 O 0.37552 0.76062 0.77233 0.0
C94 C 0.40447 0.86648 0.71431 0.0
O95 O 0.41861 0.85501 0.69632 0.0
C96 C 0.32073 0.7793 0.77987 0.0
O97 O 0.34193 0.80818 0.78766 0.0
O98 O 0.32189 0.76884 0.75147 0.0
O99 O 0.39959 0.79086 0.72902 0.0
O100 O 0.35235 0.7886 0.66604 0.0
C101 C 0.35886 0.76867 0.65381 0.0
O102 O 0.3666 0.75263 0.67396 0.0
O103 O 0.3782 0.84771 0.72736 0.0
Mg104 Mg 0.54511 0.34942 0.0654 0.0
C105 C 0.59925 0.40877 0.09795 0.0
O106 O 0.57808 0.41691 0.10439 0.0
C107 C 0.53322 0.40045 0.0484 0.0
O108 O 0.55986 0.4085 1.03333 0.0
C109 C 0.54065 0.30149 0.11422 0.0
O110 O 0.57113 0.31758 0.10922 0.0
O111 O 0.52288 0.30842 0.09751 0.0
O112 O 0.59074 0.38187 0.08579 0.0
O113 O 0.555 0.34367 1.01382 0.0
C114 C 0.58291 0.35107 1.00552 0.0
O115 O 0.60404 0.35756 1.02882 0.0
O116 O 0.51959 0.37467 0.06402 0.0
Mg117 Mg 0.18168 0.53525 0.38522 0.0
C118 C 0.2088 0.56575 0.31965 0.0
O119 O 0.22549 0.58937 0.33968 0.0
C120 C 0.23587 0.54264 0.42614 0.0
O121 O 0.24594 0.57136 0.4157 0.0
C122 C 0.11912 0.5131 0.41687 0.0
O123 O 0.13746 0.53369 0.43905 0.0
O124 O 0.1316 0.50723 0.39251 0.0
O125 O 0.19032 0.53894 0.33197 0.0
O126 O 0.1944 0.58212 0.40014 0.0
C127 C 0.1807 0.59619 0.38838 0.0
O128 O 0.1558 0.58058 0.36941 0.0
O129 O 0.20922 0.52098 0.41594 0.0
Mg130 Mg 0.52058 0.1628 0.7633 0.0
C131 C 0.46623 0.17398 0.77546 0.0
O132 O 0.43833 0.16789 0.78544 0.0
C133 C 0.49083 0.09836 0.74091 0.0
O134 O 0.47587 0.11039 0.72505 0.0
C135 C 0.56273 0.20147 0.82081 0.0
O136 O 0.53545 0.18914 0.8358 0.0
O137 O 0.56354 0.19442 0.7907 0.0
O138 O 0.47755 0.15709 0.78528 0.0
O139 O 0.52131 0.17682 0.71195 0.0
C140 C 0.53638 0.17112 0.69018 0.0
O141 O 0.55404 0.15933 0.69952 0.0
O142 O 0.51307 0.11581 0.76052 0.0
Mg143 Mg 0.43197 0.59606 0.05288 0.0
C144 C 0.36788 0.57113 0.08117 0.0
O145 O 0.38144 0.6 0.09243 0.0
C146 C 0.45564 0.55337 0.07712 0.0
O147 O 0.43583 0.54837 0.10118 0.0
C148 C 0.4576 0.63604 0.11466 0.0
O149 O 0.46207 0.61269 0.1227 0.0
O150 O 0.44747 0.63657 0.08576 0.0
O151 O 0.38487 0.56171 0.06748 0.0
O152 O 0.42764 0.60445 1.00019 0.0
C153 C 0.4021 0.5852 0.98554 0.0
O154 O 0.37948 0.56296 1.00287 0.0
O155 O 0.45988 0.57335 0.05494 0.0
C156 C 0.52534 0.20483 0.49764 0.0
C157 C 0.50696 0.17655 0.48056 0.0
C158 C 0.52866 0.20543 0.5322 0.0
C159 C 0.51349 0.17704 0.55016 0.0
C160 C 0.49382 0.1486 0.53325 0.0
C161 C 0.49068 0.14871 0.4987 0.0
C162 C 0.54939 0.23629 0.54937 0.0
C163 C 0.47706 0.11786 0.55153 0.0
C164 C 0.55084 0.17188 0.63085 0.0
C165 C 0.53147 0.17445 0.65451 0.0
C166 C 0.54538 0.173 0.59691 0.0
C167 C 0.51987 0.17675 0.58624 0.0
C168 C 0.50037 0.17963 0.61 0.0
C169 C 0.50643 0.17849 0.64383 0.0
C170 C 0.56666 0.16967 0.57242 0.0
C171 C 0.47315 0.18399 0.59977 0.0
H172 H 0.53787 0.2265 0.48392 0.0
H173 H 0.47642 0.12674 0.4858 0.0
H174 H 0.53659 0.23951 0.57013 0.0
H175 H 0.57033 0.23636 0.56001 0.0
H176 H 0.5575 0.25653 0.53232 0.0
H177 H 0.46119 0.0981 0.53512 0.0
H178 H 0.49459 0.11252 0.56267 0.0
H179 H 0.46301 0.1195 0.57202 0.0
H180 H 0.57021 0.16872 0.63885 0.0
H181 H 0.49122 0.1803 0.66192 0.0
H182 H 0.57762 0.19041 0.55597 0.0
H183 H 0.55268 0.14882 0.55656 0.0
H184 H 0.58563 0.1672 0.5847 0.0
H185 H 0.45917 0.16741 0.57975 0.0
H186 H 0.48235 0.20807 0.59006 0.0
H187 H 0.45727 0.18059 0.62074 0.0
C188 C 0.38895 0.54387 0.79509 0.0
C189 C 0.38255 0.56277 0.77418 0.0
C190 C 0.3917 0.54876 0.82944 0.0
C191 C 0.38776 0.57301 0.84331 0.0
C192 C 0.38039 0.59157 0.82243 0.0
C193 C 0.37807 0.58636 0.78815 0.0
C194 C 0.39936 0.52829 0.85088 0.0
C195 C 0.37581 0.61756 0.83605 0.0
C196 C 0.36871 0.56566 0.93478 0.0
C197 C 0.39834 0.5852 0.94912 0.0
C198 C 0.36479 0.56224 0.90041 0.0
C199 C 0.39117 0.57865 0.87969 0.0
C200 C 0.42094 0.59941 0.89388 0.0
C201 C 0.42419 0.60249 0.92848 0.0
C202 C 0.33252 0.54043 0.88633 0.0
C203 C 0.44953 0.61762 0.87254 0.0
H204 H 0.39258 0.52568 0.78457 0.0
H205 H 0.37321 0.60121 0.77225 0.0
H206 H 0.42183 0.54296 0.86429 0.0
H207 H 0.3808 0.51626 0.86972 0.0
H208 H 0.40147 0.5103 0.83634 0.0
H209 H 0.3638 0.62515 0.818 0.0
H210 H 0.36183 0.61022 0.8591 0.0
H211 H 0.39909 0.63803 0.84211 0.0
H212 H 0.34851 0.55241 0.95049 0.0
H213 H 0.44713 0.61764 0.93933 0.0
H214 H 0.33267 0.52062 0.87343 0.0
H215 H 0.32605 0.55292 0.8678 0.0
H216 H 0.31412 0.53079 0.90569 0.0
H217 H 0.4546 0.60116 0.85876 0.0
H218 H 0.4707 0.63374 0.88723 0.0
H219 H 0.44496 0.63152 0.85401 0.0
C220 C 0.85187 0.43403 0.25235 0.0
C221 C 0.83608 0.44453 0.27297 0.0
C222 C 0.84775 0.4326 0.21796 0.0
C223 C 0.8271 0.44166 0.20363 0.0
C224 C 0.81136 0.4527 0.22421 0.0
C225 C 0.81615 0.45416 0.25866 0.0
C226 C 0.86533 0.4211 0.19695 0.0
C227 C 0.78908 0.46248 0.20986 0.0
C228 C 0.83949 0.46323 0.11263 0.0
C229 C 0.81692 0.43535 0.09734 0.0
C230 C 0.84258 0.46579 0.14714 0.0
C231 C 0.8225 0.4399 0.16705 0.0
C232 C 0.79929 0.41182 0.15186 0.0
C233 C 0.79685 0.40983 0.11717 0.0
C234 C 0.86781 0.49604 0.16227 0.0
C235 C 0.77729 0.38375 0.17226 0.0
H236 H 0.86742 0.42666 0.26315 0.0
H237 H 0.80369 0.46207 0.27443 0.0
H238 H 0.84842 0.39987 0.18302 0.0
H239 H 0.87994 0.4392 0.17856 0.0
H240 H 0.88086 0.41534 0.21189 0.0
H241 H 0.77881 0.47071 0.22912 0.0
H242 H 0.80154 0.48155 0.19164 0.0
H243 H 0.76967 0.44248 0.19647 0.0
H244 H 0.85511 0.48314 0.09758 0.0
H245 H 0.77919 0.38829 0.1056 0.0
H246 H 0.88494 0.49175 0.17602 0.0
H247 H 0.85728 0.5051 0.18026 0.0
H248 H 0.88074 0.51439 0.14342 0.0
H249 H 0.79095 0.37511 0.18629 0.0
H250 H 0.75946 0.36427 0.15682 0.0
H251 H 0.76495 0.3905 0.19056 0.0
C252 C 0.36358 0.74533 0.45751 0.0
C253 C 0.39332 0.7668 0.44501 0.0
C254 C 0.35684 0.74452 0.49129 0.0
C255 C 0.38045 0.76557 0.5133 0.0
C256 C 0.41076 0.78678 0.50103 0.0
C257 C 0.41681 0.78722 0.46704 0.0
C258 C 0.32418 0.72167 0.50332 0.0
C259 C 0.43672 0.80929 0.52378 0.0
C260 C 0.35679 0.78542 0.59548 0.0
C261 C 0.36182 0.7663 0.61752 0.0
C262 C 0.36233 0.78511 0.56143 0.0
C263 C 0.37341 0.76542 0.54916 0.0
C264 C 0.37793 0.74565 0.57119 0.0
C265 C 0.37188 0.74619 0.60497 0.0
C266 C 0.35682 0.80624 0.53866 0.0
C267 C 0.38967 0.72428 0.55918 0.0
H268 H 0.34522 0.7295 0.44076 0.0
H269 H 0.43985 0.80389 0.45768 0.0
H270 H 0.32533 0.70793 0.52448 0.0
H271 H 0.3126 0.73473 0.51215 0.0
H272 H 0.30928 0.70512 0.48368 0.0
H273 H 0.45922 0.82369 0.51056 0.0
H274 H 0.42974 0.82519 0.53566 0.0
H275 H 0.44067 0.79619 0.54379 0.0
H276 H 0.34902 0.80104 0.60488 0.0
H277 H 0.37564 0.7312 0.62167 0.0
H278 H 0.34017 0.79221 0.51866 0.0
H279 H 0.37923 0.82328 0.52677 0.0
H280 H 0.34723 0.8194 0.55187 0.0
H281 H 0.37329 0.70784 0.54031 0.0
H282 H 0.39209 0.71044 0.57951 0.0
H283 H 0.41289 0.73829 0.54721 0.0
C284 C 0.62275 0.36211 0.96132 0.0
C285 C 0.59287 0.3568 0.97034 0.0
C286 C 0.63394 0.3707 0.9289 0.0
C287 C 0.61486 0.37411 0.90473 0.0
C288 C 0.58448 0.36831 0.91355 0.0
C289 C 0.57381 0.35961 0.94614 0.0
C290 C 0.66617 0.37604 0.92053 0.0
C291 C 0.56347 0.37194 0.88866 0.0
C292 C 0.65266 0.42394 0.82803 0.0
C293 C 0.6459 0.40098 0.80387 0.0
C294 C 0.6432 0.4156 0.86105 0.0
C295 C 0.62646 0.38353 0.87015 0.0
C296 C 0.62005 0.36035 0.84593 0.0
C297 C 0.63003 0.36932 0.81329 0.0
C298 C 0.65095 0.44113 0.88614 0.0
C299 C 0.60238 0.32597 0.85439 0.0
H300 H 0.63769 0.36001 0.97978 0.0
H301 H 0.55083 0.35585 0.95287 0.0
H302 H 0.6637 0.35803 0.90255 0.0
H303 H 0.68046 0.39919 0.90861 0.0
H304 H 0.67907 0.37473 0.94258 0.0
H305 H 0.54045 0.36642 0.8993 0.0
H306 H 0.57529 0.39634 0.87925 0.0
H307 H 0.55916 0.35629 0.86718 0.0
H308 H 0.66492 0.44843 0.82105 0.0
H309 H 0.6246 0.35129 0.79492 0.0
H310 H 0.66839 0.44172 0.90412 0.0
H311 H 0.62964 0.43635 0.90018 0.0
H312 H 0.66092 0.4646 0.87452 0.0
H313 H 0.61585 0.32127 0.8733 0.0
H314 H 0.59865 0.31074 0.83263 0.0
H315 H 0.57919 0.3195 0.86517 0.0
C316 C 0.222 0.60235 0.27178 0.0
C317 C 0.20831 0.57151 0.28366 0.0
C318 C 0.21956 0.60852 0.23833 0.0
C319 C 0.2034 0.58326 0.21601 0.0
C320 C 0.19013 0.55208 0.22766 0.0
C321 C 0.19256 0.54657 0.26138 0.0
C322 C 0.23378 0.64207 0.22698 0.0
C323 C 0.17314 0.52452 0.20453 0.0
C324 C 0.17092 0.59578 0.13514 0.0
C325 C 0.19381 0.59881 0.11248 0.0
C326 C 0.17402 0.59131 0.16901 0.0
C327 C 0.20045 0.58948 0.18044 0.0
C328 C 0.22398 0.59334 0.1578 0.0
C329 C 0.22052 0.59831 0.12426 0.0
C330 C 0.14869 0.58788 0.19248 0.0
C331 C 0.25247 0.59144 0.16884 0.0
H332 H 0.23401 0.62182 0.28879 0.0
H333 H 0.18192 0.5227 0.27032 0.0
H334 H 0.25105 0.64686 0.20708 0.0
H335 H 0.21515 0.64613 0.21652 0.0
H336 H 0.24579 0.65907 0.24734 0.0
H337 H 0.16487 0.50176 0.21726 0.0
H338 H 0.15253 0.5247 0.19333 0.0
H339 H 0.18889 0.52633 0.18404 0.0
H340 H 0.15022 0.59621 0.12635 0.0
H341 H 0.23858 0.60122 0.10711 0.0
H342 H 0.1592 0.6051 0.21294 0.0
H343 H 0.13716 0.56419 0.20368 0.0
H344 H 0.13042 0.59136 0.18 0.0
H345 H 0.26555 0.60926 0.1882 0.0
H346 H 0.26873 0.59512 0.14815 0.0
H347 H 0.24492 0.56814 0.1799 0.0
C348 C 0.70947 0.35038 0.37199 0.0
C349 C 0.74022 0.35548 0.37118 0.0
C350 C 0.68362 0.32029 0.36815 0.0
C351 C 0.68864 0.29466 0.36314 0.0
C352 C 0.71961 0.29955 0.3624 0.0
C353 C 0.74513 0.32999 0.36658 0.0
C354 C 0.65088 0.31596 0.36937 0.0
C355 C 0.72572 0.27272 0.3569 0.0
C356 C 0.6162 0.21804 0.38339 0.0
C357 C 0.60107 0.20971 0.35251 0.0
C358 C 0.64605 0.24453 0.38689 0.0
C359 C 0.6611 0.26291 0.35879 0.0
C360 C 0.64718 0.25306 0.32715 0.0
C361 C 0.61722 0.22654 0.32438 0.0
C362 C 0.6602 0.25426 0.42104 0.0
C363 C 0.66274 0.27189 0.29656 0.0
H364 H 0.70553 0.36996 0.37569 0.0
H365 H 0.7689 0.33387 0.36581 0.0
H366 H 0.63837 0.30584 0.34572 0.0
H367 H 0.63718 0.29926 0.38927 0.0
H368 H 0.65109 0.33832 0.37387 0.0
H369 H 0.75121 0.28042 0.3574 0.0
H370 H 0.71376 0.25458 0.37615 0.0
H371 H 0.7158 0.26148 0.33269 0.0
H372 H 0.60401 0.20494 0.40522 0.0
H373 H 0.60583 0.21999 0.30037 0.0
H374 H 0.65841 0.27482 0.42923 0.0
H375 H 0.6855 0.26136 0.4209 0.0
H376 H 0.64799 0.2352 0.43938 0.0
H377 H 0.66114 0.2936 0.29663 0.0
H378 H 0.65141 0.25863 0.27357 0.0
H379 H 0.68804 0.279 0.2962 0.0
C380 C 0.44358 0.77073 0.7244 0.0
C381 C 0.41838 0.75761 0.74662 0.0
C382 C 0.45517 0.75242 0.71055 0.0
C383 C 0.44076 0.72033 0.71881 0.0
C384 C 0.41847 0.70829 0.74466 0.0
C385 C 0.40771 0.72727 0.75854 0.0
C386 C 0.48031 0.76655 0.6845 0.0
C387 C 0.40305 0.67429 0.75478 0.0
C388 C 0.41827 0.65914 0.65254 0.0
C389 C 0.43544 0.64478 0.6624 0.0
C390 C 0.42157 0.68543 0.66937 0.0
C391 C 0.44317 0.69805 0.69609 0.0
C392 C 0.46333 0.68601 0.70341 0.0
C393 C 0.45903 0.65923 0.68662 0.0
C394 C 0.3998 0.6978 0.6605 0.0
C395 C 0.48762 0.69958 0.73066 0.0
H396 H 0.45253 0.79452 0.71576 0.0
H397 H 0.38865 0.71718 0.77618 0.0
H398 H 0.496 0.75633 0.68552 0.0
H399 H 0.46909 0.76153 0.65969 0.0
H400 H 0.49472 0.79238 0.68739 0.0
H401 H 0.38866 0.66952 0.77739 0.0
H402 H 0.38751 0.65932 0.73449 0.0
H403 H 0.421 0.66729 0.75936 0.0
H404 H 0.4003 0.64834 0.63357 0.0
H405 H 0.47284 0.64854 0.69395 0.0
H406 H 0.41357 0.72335 0.6558 0.0
H407 H 0.3838 0.6941 0.68144 0.0
H408 H 0.38524 0.68611 0.63829 0.0
H409 H 0.49705 0.72515 0.73354 0.0
H410 H 0.50746 0.6953 0.72591 0.0
H411 H 0.47669 0.68809 0.75436 0.0
C412 C 0.65488 0.42343 0.09237 0.0
C413 C 0.6323 0.43285 0.09294 0.0
C414 C 0.68235 0.44007 0.07399 0.0
C415 C 0.68737 0.46705 0.05625 0.0
C416 C 0.66729 0.47956 0.06156 0.0
C417 C 0.63965 0.46211 0.07985 0.0
C418 C 0.70356 0.42615 0.07 0.0
C419 C 0.67285 0.50939 0.04516 0.0
C420 C 0.7607 0.48911 1.01006 0.0
C421 C 0.74759 0.46788 0.98363 0.0
C422 C 0.74132 0.49392 1.0318 0.0
C423 C 0.70841 0.47649 1.02717 0.0
C424 C 0.69594 0.45999 0.99713 0.0
C425 C 0.71589 0.45615 0.9754 0.0
C426 C 0.75574 0.51412 0.06196 0.0
C427 C 0.66097 0.44222 0.99036 0.0
H428 H 0.64938 0.4011 0.10317 0.0
H429 H 0.62243 0.4698 0.08069 0.0
H430 H 0.70155 0.41726 0.04439 0.0
H431 H 0.72844 0.4442 0.07435 0.0
H432 H 0.69747 0.40644 0.08731 0.0
H433 H 0.666 0.52279 0.06194 0.0
H434 H 0.69777 0.5245 0.03791 0.0
H435 H 0.65785 0.50355 1.02271 0.0
H436 H 0.78553 0.49938 1.0158 0.0
H437 H 0.70578 0.44066 0.95435 0.0
H438 H 0.75796 0.4999 0.08196 0.0
H439 H 0.741 0.52379 0.07112 0.0
H440 H 0.77969 0.53376 0.05651 0.0
H441 H 0.64952 0.42174 1.00713 0.0
H442 H 0.65546 0.43361 0.9645 0.0
H443 H 0.65053 0.45727 0.99513 0.0
C444 C 0.3071 0.77693 0.36927 0.0
C445 C 0.32565 0.77293 0.34564 0.0
C446 C 0.27671 0.75245 0.37641 0.0
C447 C 0.26516 0.7234 0.35995 0.0
C448 C 0.28227 0.72073 0.3333 0.0
C449 C 0.31219 0.74571 0.32622 0.0
C450 C 0.25841 0.75679 0.4037 0.0
C451 C 0.27078 0.69023 0.31485 0.0
C452 C 0.2267 0.64687 0.40529 0.0
C453 C 0.19782 0.63081 0.3886 0.0
C454 C 0.24794 0.67826 0.39827 0.0
C455 C 0.23965 0.69424 0.3747 0.0
C456 C 0.20889 0.67942 0.36121 0.0
C457 C 0.18832 0.64762 0.36804 0.0
C458 C 0.28046 0.69316 0.41348 0.0
C459 C 0.19856 0.69614 0.33735 0.0
H460 H 0.31704 0.7982 0.38392 0.0
H461 H 0.32608 0.74276 0.30733 0.0
H462 H 0.2327 0.74268 0.39912 0.0
H463 H 0.26366 0.74902 0.42745 0.0
H464 H 0.26511 0.78181 0.40639 0.0
H465 H 0.28556 0.69287 0.29306 0.0
H466 H 0.27114 0.67254 0.33161 0.0
H467 H 0.24619 0.68097 0.30636 0.0
H468 H 0.23389 0.63424 0.42187 0.0
H469 H 0.16573 0.63555 0.35554 0.0
H470 H 0.2861 0.71543 0.42589 0.0
H471 H 0.29823 0.69874 0.3939 0.0
H472 H 0.28281 0.67764 0.43182 0.0
H473 H 0.21017 0.72159 0.34286 0.0
H474 H 0.17265 0.68613 0.33802 0.0
H475 H 0.20495 0.69326 0.31187 0.0
C476 C 0.56068 0.3394 0.69623 0.0
C477 C 0.58642 0.34377 0.67728 0.0
C478 C 0.53766 0.3095 0.70612 0.0
C479 C 0.54012 0.28325 0.69627 0.0
C480 C 0.564 0.28716 0.67402 0.0
C481 C 0.58703 0.31753 0.66479 0.0
C482 C 0.51274 0.30648 0.73002 0.0
C483 C 0.56623 0.25947 0.66153 0.0
C484 C 0.51557 0.22268 0.76358 0.0
C485 C 0.48492 0.20091 0.75401 0.0
C486 C 0.5342 0.24888 0.74415 0.0
C487 C 0.5217 0.25337 0.71433 0.0
C488 C 0.49082 0.23108 0.70418 0.0
C489 C 0.47254 0.20511 0.72445 0.0
C490 C 0.56692 0.27224 0.75616 0.0
C491 C 0.47706 0.23497 0.67231 0.0
H492 H 0.55961 0.35954 0.7054 0.0
H493 H 0.60646 0.32074 0.64945 0.0
H494 H 0.4893 0.2869 0.72283 0.0
H495 H 0.51831 0.30126 0.75504 0.0
H496 H 0.51136 0.3283 0.73151 0.0
H497 H 0.54525 0.24454 0.64613 0.0
H498 H 0.58752 0.26664 0.64633 0.0
H499 H 0.56649 0.24501 0.68245 0.0
H500 H 0.52462 0.21965 0.78686 0.0
H501 H 0.44876 0.188 0.71713 0.0
H502 H 0.56853 0.29522 0.76081 0.0
H503 H 0.58445 0.27583 0.73697 0.0
H504 H 0.57339 0.26457 0.7793 0.0
H505 H 0.47481 0.25628 0.67356 0.0
H506 H 0.45352 0.21452 0.6669 0.0
H507 H 0.49301 0.23822 0.65149 0.0
C508 C 0.19368 0.51522 1.02023 0.0
C509 C 0.20084 0.53479 0.99255 0.0
C510 C 0.21669 0.51014 1.03501 0.0
C511 C 0.24743 0.52535 1.02197 0.0
C512 C 0.25324 0.54095 0.99119 0.0
C513 C 0.2297 0.54533 0.97667 0.0
C514 C 0.20909 0.49168 0.06669 0.0
C515 C 0.28549 0.55657 0.9758 0.0
C516 C 0.31653 0.56962 0.07937 0.0
C517 C 0.33372 0.55433 0.07406 0.0
C518 C 0.28733 0.55909 0.06403 0.0
C519 C 0.27455 0.53202 0.04372 0.0
C520 C 0.29003 0.51435 0.0415 0.0
C521 C 0.31966 0.52587 0.05653 0.0
C522 C 0.27156 0.57862 0.06728 0.0
C523 C 0.27675 0.48468 1.02129 0.0
H524 H 0.17103 0.50613 1.0321 0.0
H525 H 0.23517 0.5598 0.95479 0.0
H526 H 0.22207 0.4786 0.06841 0.0
H527 H 0.21626 0.50799 0.08803 0.0
H528 H 0.18348 0.4749 0.0687 0.0
H529 H 0.28511 0.56406 0.94998 0.0
H530 H 0.30166 0.57757 0.99055 0.0
H531 H 0.29522 0.54051 0.97584 0.0
H532 H 0.32695 0.59132 0.09332 0.0
H533 H 0.33258 0.51356 0.05274 0.0
H534 H 0.24706 0.56385 0.0759 0.0
H535 H 0.27055 0.58831 0.04283 0.0
H536 H 0.28416 0.59845 0.08481 0.0
H537 H 0.25069 0.47238 1.02011 0.0
H538 H 0.28421 0.46846 1.03162 0.0
H539 H 0.28589 0.49056 0.99574 0.0
C540 C 0.46702 0.03421 0.3537 0.0
C541 C 0.49376 0.05879 0.33898 0.0
C542 C 0.45884 0.0029 0.3483 0.0
C543 C 0.47781 -0.00398 0.32761 0.0
C544 C 0.50448 0.02066 0.31217 0.0
C545 C 0.51216 0.05177 0.31807 0.0
C546 C 0.4302 0.9772 0.36521 0.0
C547 C 0.52518 0.0142 0.28986 0.0
C548 C 0.4737 0.91796 0.34216 0.0
C549 C 0.45239 0.89916 0.31754 0.0
C550 C 0.48273 0.94972 0.34522 0.0
C551 C 0.47023 0.96303 0.32305 0.0
C552 C 0.44957 0.9445 0.29744 0.0
C553 C 0.44087 0.91275 0.295 0.0
C554 C 0.5049 0.96878 0.37281 0.0
C555 C 0.43594 0.95798 0.27322 0.0
H556 H 0.45266 0.03943 0.36985 0.0
H557 H 0.53281 0.0706 0.30649 0.0
H558 H 0.41379 0.96035 0.34663 0.0
H559 H 0.43733 0.964 0.38204 0.0
H560 H 0.41744 0.98643 0.37977 0.0
H561 H 0.54433 0.03591 0.27868 0.0
H562 H 0.53588 0.00256 0.30409 0.0
H563 H 0.51091 -0.00205 0.26972 0.0
H564 H 0.48278 0.90769 0.35965 0.0
H565 H 0.42445 0.89842 0.27585 0.0
H566 H 0.49272 0.97667 0.39006 0.0
H567 H 0.52537 -0.00992 0.3627 0.0
H568 H 0.51364 0.9553 0.38702 0.0
H569 H 0.42076 0.9651 0.28648 0.0
H570 H 0.42171 0.94097 0.25355 0.0
H571 H 0.45504 0.97928 0.26144 0.0
C572 C 0.49066 0.52571 0.6752 0.0
C573 C 0.46066 0.50086 0.6829 0.0
C574 C 0.51759 0.52313 0.68017 0.0
C575 C 0.51437 0.49476 0.69239 0.0
C576 C 0.48406 0.46917 0.69902 0.0
C577 C 0.45755 0.47265 0.69455 0.0
C578 C 0.54954 0.5511 0.6734 0.0
C579 C 0.47969 0.43829 0.71135 0.0
C580 C 0.58149 0.47834 0.68056 0.0
C581 C 0.59432 0.48335 0.71254 0.0
C582 C 0.55558 0.48219 0.67357 0.0
C583 C 0.54275 0.49206 0.69897 0.0
C584 C 0.55655 0.49857 0.73091 0.0
C585 C 0.58195 0.49372 0.73743 0.0
C586 C 0.54113 0.47444 0.63939 0.0
C587 C 0.54401 0.50994 0.75838 0.0
H588 H 0.49327 0.5477 0.66647 0.0
H589 H 0.43441 0.45338 0.70043 0.0
H590 H 0.56359 0.5586 0.69658 0.0
H591 H 0.56254 0.54475 0.65557 0.0
H592 H 0.54794 0.57127 0.66333 0.0
H593 H 0.45448 0.42014 0.71335 0.0
H594 H 0.4914 0.42957 0.69448 0.0
H595 H 0.49087 0.44155 0.73602 0.0
H596 H 0.59072 0.46993 0.66131 0.0
H597 H 0.59187 0.49765 0.76214 0.0
H598 H 0.53999 0.49469 0.62895 0.0
H599 H 0.51665 0.4546 0.64082 0.0
H600 H 0.55452 0.46795 0.62215 0.0
H601 H 0.54276 0.53082 0.75022 0.0
H602 H 0.55879 0.51609 0.78106 0.0
H603 H 0.51977 0.49148 0.76466 0.0
C604 C 0.91056 0.49745 0.94125 0.0
C605 C 0.89228 0.46776 0.95542 0.0
C606 C 0.9435 0.51194 0.94081 0.0
C607 C 0.95844 0.49641 0.95503 0.0
C608 C 0.94006 0.46582 0.96789 0.0
C609 C 0.90721 0.45183 0.96783 0.0
C610 C 0.96234 0.54445 0.92656 0.0
C611 C 0.95512 0.44849 0.98328 0.0
C612 C 0.0449 0.52451 0.94027 0.0
C613 C 0.0587 0.5415 0.96933 0.0
C614 C 0.01233 0.51029 0.93483 0.0
C615 C -0.00682 0.51302 0.95909 0.0
C616 C 0.00705 0.53065 0.98814 0.0
C617 C 0.03963 0.54473 0.99287 0.0
C618 C -0.00165 0.49183 0.90346 0.0
C619 C -0.01263 0.53404 1.01465 0.0
H620 H 0.89922 0.50985 0.93142 0.0
H621 H 0.8933 0.42882 0.9787 0.0
H622 H 0.97504 0.56144 0.94673 0.0
H623 H 0.98028 0.54554 0.90919 0.0
H624 H 0.94725 0.55191 0.91334 0.0
H625 H 0.93756 0.42399 0.98981 0.0
H626 H 0.97251 0.4481 0.96617 0.0
H627 H 0.968 0.46084 1.00607 0.0
H628 H 0.05949 0.52201 0.92189 0.0
H629 H 0.05008 0.55786 1.01536 0.0
H630 H 0.98398 0.50035 0.89066 0.0
H631 H 0.98245 0.46681 0.90952 0.0
H632 H 0.01664 0.49347 0.88621 0.0
H633 H 0.97336 0.54401 1.00398 0.0
H634 H 0.0019 0.54932 1.03532 0.0
H635 H 0.97054 0.51066 1.02478 0.0
C636 C 0.07149 0.51122 0.44134 0.0
C637 C 0.08486 0.50141 0.41686 0.0
C638 C 0.04016 0.5044 0.43881 0.0
C639 C 0.02184 0.48742 0.41113 0.0
C640 C 0.03464 0.47594 0.38734 0.0
C641 C 0.06598 0.48302 0.39052 0.0
C642 C 0.0272 0.51679 0.46483 0.0
C643 C 0.01578 0.45765 0.35754 0.0
C644 C 0.93335 0.45395 0.41078 0.0
C645 C 0.93042 0.47665 0.39254 0.0
C646 C 0.96299 0.45731 0.41748 0.0
C647 C -0.00972 0.48392 0.40554 0.0
C648 C -0.01251 0.50705 0.38743 0.0
C649 C 0.9576 0.50316 0.3812 0.0
C650 C 0.96511 0.43226 0.43701 0.0
C651 C 0.01609 0.53575 0.37423 0.0
H652 H 0.08584 0.5253 0.46187 0.0
H653 H 0.07605 0.47519 0.37158 0.0
H654 H 0.02356 0.53548 0.45404 0.0
H655 H 0.00401 0.49794 0.47349 0.0
H656 H 0.04324 0.52665 0.48647 0.0
H657 H 0.02818 0.44807 0.34289 0.0
H658 H -0.00733 0.43797 0.36524 0.0
H659 H 0.01113 0.4731 0.34132 0.0
H660 H 0.91245 0.43343 0.41973 0.0
H661 H 0.95555 0.5208 0.36711 0.0
H662 H 0.98057 0.44279 0.45891 0.0
H663 H 0.97585 0.42145 0.42165 0.0
H664 H 0.94173 0.41353 0.44549 0.0
H665 H 0.03249 0.54883 0.39478 0.0
H666 H 0.00991 0.5518 0.36108 0.0
H667 H 0.02886 0.52863 0.3569 0.0
C668 C 0.49262 0.05018 0.7574 0.0
C669 C 0.48088 0.06488 0.73666 0.0
C670 C 0.48181 0.01797 0.75447 0.0
C671 C 0.45894 0.00024 0.73013 0.0
C672 C 0.44761 0.01513 0.70864 0.0
C673 C 0.45866 0.04724 0.71223 0.0
C674 C 0.49435 0.00279 0.77783 0.0
C675 C 0.4234 -0.00297 0.68219 0.0
C676 C 0.44655 0.92132 0.70236 0.0
C677 C 0.41898 0.90067 0.71923 0.0
C678 C 0.46023 0.95384 0.70621 0.0
C679 C 0.44607 0.96592 0.72754 0.0
C680 C 0.4186 0.9452 0.74514 0.0
C681 C 0.40533 0.9128 0.7407 0.0
C682 C 0.48944 0.97526 0.68692 0.0
C683 C 0.40293 0.95729 0.7682 0.0
H684 H 0.5098 0.06371 0.77633 0.0
H685 H 0.44965 0.05848 0.69595 0.0
H686 H 0.47488 0.98496 0.79301 0.0
H687 H 0.50426 -0.00954 0.76367 0.0
H688 H 0.51287 0.02005 0.79462 0.0
H689 H 0.41788 0.01236 0.66673 0.0
H690 H 0.43194 0.98478 0.66587 0.0
H691 H 0.40135 0.97886 0.69375 0.0
H692 H 0.45727 0.91212 0.68577 0.0
H693 H 0.38414 0.89697 0.75397 0.0
H694 H 0.50833 -0.00834 0.70389 0.0
H695 H 0.48432 -0.01036 0.66957 0.0
H696 H 0.49835 0.96212 0.67253 0.0
H697 H 0.4201 0.97324 0.78685 0.0
H698 H 0.38262 0.93807 0.78128 0.0
H699 H 0.3945 0.97103 0.75406 0.0
C700 C 0.47503 0.51924 0.10088 0.0
C701 C 0.46949 0.53299 0.07327 0.0
C702 C 0.4865 0.49836 0.09716 0.0
C703 C 0.49147 0.49038 0.06503 0.0
C704 C 0.4859 0.50426 0.03708 0.0
C705 C 0.47543 0.52579 0.04157 0.0
C706 C 0.49311 0.48473 0.12756 0.0
C707 C 0.49016 0.49572 1.00241 0.0
C708 C 0.54416 0.45533 0.05238 0.0
C709 C 0.52223 0.42322 0.05156 0.0
C710 C 0.53452 0.47745 0.05737 0.0
C711 C 0.50209 0.46717 0.06054 0.0
C712 C 0.47979 0.43476 0.05905 0.0
C713 C 0.49021 0.41307 0.05513 0.0
C714 C 0.55905 0.51173 0.05976 0.0
C715 C 0.44495 0.42301 0.06138 0.0
H716 H 0.47053 0.52491 0.12539 0.0
H717 H 0.47076 0.53612 1.02015 0.0
H718 H 0.47726 0.45898 0.128 0.0
H719 H 0.51759 0.48909 0.12697 0.0
H720 H 0.4898 0.49478 0.15074 0.0
H721 H 0.48451 0.50843 0.98332 0.0
H722 H 0.51475 0.50109 0.99886 0.0
H723 H 0.47476 0.47017 0.9984 0.0
H724 H 0.56901 0.46315 0.0501 0.0
H725 H 0.4733 0.38821 0.05443 0.0
H726 H 0.5567 0.5215 0.08357 0.0
H727 H 0.55541 0.52502 0.03975 0.0
H728 H 0.58337 0.51569 0.05797 0.0
H729 H 0.43948 0.42969 0.08556 0.0
H730 H 0.43067 0.39716 0.05862 0.0
H731 H 0.43773 0.4341 0.04192 0.0
C732 C 0.47617 0.16402 0.24944 0.0
C733 C 0.48164 0.17685 0.28139 0.0
C734 C 0.48238 0.18293 0.22132 0.0
C735 C 0.49428 0.21551 0.22515 0.0
C736 C 0.49814 0.22832 0.25732 0.0
C737 C 0.49179 0.20886 0.28504 0.0
C738 C 0.47785 0.16829 0.18752 0.0
C739 C 0.51058 0.2629 0.2625 0.0
C740 C 0.54787 0.26998 0.15838 0.0
C741 C 0.52789 0.27788 0.14113 0.0
C742 C 0.53708 0.2495 0.18545 0.0
C743 C 0.50548 0.23656 0.19575 0.0
C744 C 0.48497 0.24396 0.17815 0.0
C745 C 0.49639 0.26448 0.151 0.0
C746 C 0.55971 0.24208 0.20335 0.0
C747 C 0.45114 0.23066 0.18838 0.0
H748 H 0.46819 0.13932 0.24627 0.0
H749 H 0.49605 0.21903 0.30957 0.0
H750 H 0.46428 0.17548 0.17127 0.0
H751 H 0.50111 0.17663 0.17588 0.0
H752 H 0.46545 0.14229 0.18861 0.0
H753 H 0.50915 0.26865 0.28874 0.0
H754 H 0.53554 0.27621 0.25475 0.0
H755 H 0.49728 0.27102 0.24704 0.0
H756 H 0.57221 0.28011 0.15096 0.0
H757 H 0.48078 0.27051 0.13794 0.0
H758 H 0.55034 0.21639 0.20355 0.0
H759 H 0.56231 0.24988 0.22945 0.0
H760 H 0.58335 0.25356 0.19184 0.0
H761 H 0.43911 0.2047 0.1888 0.0
H762 H 0.43797 0.23794 0.17156 0.0
H763 H 0.45018 0.23853 0.2138 0.0
C764 C 0.28282 0.56141 0.46327 0.0
C765 C 0.25435 0.53654 0.45136 0.0
C766 C 0.29992 0.55688 0.48847 0.0
C767 C 0.28846 0.52667 0.50218 0.0
C768 C 0.26001 0.5013 0.48996 0.0
C769 C 0.24326 0.50653 0.46472 0.0
C770 C 0.33012 0.58461 0.50074 0.0
C771 C 0.24709 0.46874 0.50384 0.0
C772 C 0.35019 0.51559 0.54799 0.0
C773 C 0.34561 0.52149 0.58082 0.0
C774 C 0.33081 0.51572 0.52232 0.0
C775 C 0.30631 0.52206 0.52956 0.0
C776 C 0.3007 0.52669 0.56282 0.0
C777 C 0.32034 0.52628 0.58804 0.0
C778 C 0.33747 0.51043 0.48726 0.0
C779 C 0.27485 0.53356 0.57163 0.0
H780 H 0.29165 0.58469 0.4532 0.0
H781 H 0.22128 0.48718 0.45574 0.0
H782 H 0.32815 0.58842 0.52743 0.0
H783 H 0.34989 0.57991 0.49797 0.0
H784 H 0.336 0.60651 0.48726 0.0
H785 H 0.22521 0.45134 0.49099 0.0
H786 H 0.26485 0.46114 0.50176 0.0
H787 H 0.24195 0.46876 0.53049 0.0
H788 H 0.3695 0.51167 0.54213 0.0
H789 H 0.31654 0.53084 0.61329 0.0
H790 H 0.34625 0.53246 0.473 0.0
H791 H 0.31558 0.49248 0.47497 0.0
H792 H 0.35529 0.5028 0.48606 0.0
H793 H 0.28044 0.5567 0.56146 0.0
H794 H 0.27177 0.53393 0.59876 0.0
H795 H 0.25222 0.5158 0.56044 0.0
C796 C 0.71468 0.31459 0.93209 0.0
C797 C 0.72972 0.34474 0.91848 0.0
C798 C 0.68878 0.28964 0.9161 0.0
C799 C 0.67656 0.2953 0.88665 0.0
C800 C 0.69189 0.32581 0.87276 0.0
C801 C 0.71858 0.3499 0.88852 0.0
C802 C 0.67461 0.25736 0.93107 0.0
C803 C 0.68047 0.33388 0.84149 0.0
C804 C 0.62157 0.23254 0.82579 0.0
C805 C 0.59189 0.22445 0.83834 0.0
C806 C 0.64927 0.25452 0.84207 0.0
C807 C 0.64735 0.26973 0.87097 0.0
C808 C 0.61735 0.26128 0.88402 0.0
C809 C 0.5901 0.23856 0.86772 0.0
C810 C 0.68058 0.26142 0.8282 0.0
C811 C 0.61345 0.27572 0.9153 0.0
H812 H 0.72343 0.31038 0.95506 0.0
H813 H 0.73005 0.37317 0.87784 0.0
H814 H 0.65528 0.25368 0.94785 0.0
H815 H 0.66489 0.23876 0.91187 0.0
H816 H 0.69227 0.25473 0.94594 0.0
H817 H 0.6824 0.35726 0.84384 0.0
H818 H 0.69586 0.33543 0.82074 0.0
H819 H 0.65586 0.31654 0.83489 0.0
H820 H 0.6232 0.22146 0.80333 0.0
H821 H 0.56728 0.23231 0.87779 0.0
H822 H 0.6971 0.26372 0.84832 0.0
H823 H 0.69115 0.28389 0.81455 0.0
H824 H 0.67811 0.24285 0.81084 0.0
H825 H 0.61125 0.26052 0.93653 0.0
H826 H 0.59155 0.27716 0.91434 0.0
H827 H 0.63355 0.29951 0.92015 0.0
C828 C 0.44852 0.67934 0.13434 0.0
C829 C 0.45942 0.6583 0.14059 0.0
C830 C 0.44595 0.69722 0.15997 0.0
C831 C 0.45448 0.69403 0.19266 0.0
C832 C 0.46706 0.6741 0.19878 0.0
C833 C 0.46937 0.65651 0.17272 0.0
C834 C 0.43256 0.7183 0.15233 0.0
C835 C 0.47656 0.67007 0.23318 0.0
C836 C 0.4625 0.75319 0.25846 0.0
C837 C 0.43298 0.73738 0.27377 0.0
C838 C 0.46997 0.73941 0.23212 0.0
C839 C 0.44744 0.70911 0.22084 0.0
C840 C 0.41781 0.69293 0.23651 0.0
C841 C 0.41098 0.70721 0.26269 0.0
C842 C 0.50182 0.7574 0.2161 0.0
C843 C 0.39311 0.66053 0.2254 0.0
H844 H 0.44081 0.68097 0.10964 0.0
H845 H 0.478 0.64049 0.17786 0.0
H846 H 0.40905 0.70863 0.16381 0.0
H847 H 0.44776 0.74195 0.16299 0.0
H848 H 0.43006 0.72064 0.12534 0.0
H849 H 0.48882 0.65622 0.23332 0.0
H850 H 0.49221 0.69322 0.24468 0.0
H851 H 0.45532 0.65789 0.24885 0.0
H852 H 0.47963 0.77653 0.26676 0.0
H853 H 0.38812 0.69473 0.27429 0.0
H854 H 0.49896 0.76137 0.18963 0.0
H855 H 0.51405 0.74357 0.21714 0.0
H856 H 0.51696 0.78044 0.22815 0.0
H857 H 0.38687 0.66112 0.19913 0.0
H858 H 0.37134 0.65099 0.24035 0.0
H859 H 0.40252 0.64423 0.22719 0.0
C860 C 0.73596 0.46679 0.61608 0.0
C861 C 0.70395 0.45675 0.61142 0.0
C862 C 0.75496 0.46846 0.58933 0.0
C863 C 0.74148 0.45929 0.55735 0.0
C864 C 0.70937 0.44987 0.55245 0.0
C865 C 0.69112 0.44897 0.57943 0.0
C866 C 0.78923 0.47915 0.59545 0.0
C867 C 0.69386 0.43934 0.51895 0.0
C868 C 0.79069 0.47691 0.47925 0.0
C869 C 0.79069 0.44867 0.47466 0.0
C870 C 0.77572 0.48123 0.50672 0.0
C871 C 0.75988 0.45651 0.52965 0.0
C872 C 0.76001 0.42807 0.52513 0.0
C873 C 0.77561 0.42463 0.49794 0.0
C874 C 0.77652 0.51207 0.51102 0.0
C875 C 0.74291 0.40086 0.54854 0.0
H876 H 0.7461 0.47308 0.64066 0.0
H877 H 0.66641 0.44115 0.57554 0.0
H878 H 0.7934 0.45914 0.59212 0.0
H879 H 0.80411 0.49737 0.57727 0.0
H880 H 0.79692 0.48874 0.62076 0.0
H881 H 0.66915 0.43442 0.51886 0.0
H882 H 0.70718 0.45748 0.5001 0.0
H883 H 0.69398 0.41774 0.51137 0.0
H884 H 0.80245 0.49563 0.46146 0.0
H885 H 0.77531 0.40264 0.49455 0.0
H886 H 0.78525 0.52161 0.53611 0.0
H887 H 0.7524 0.50847 0.50867 0.0
H888 H 0.79173 0.52971 0.49247 0.0
H889 H 0.75171 0.40817 0.57413 0.0
H890 H 0.74574 0.38052 0.54186 0.0
H891 H 0.71745 0.39316 0.54846 0.0
C892 C 0.22761 0.6659 0.92984 0.0
C893 C 0.19602 0.65837 0.93148 0.0
C894 C 0.24752 0.68563 0.90496 0.0
C895 C 0.23567 0.69833 0.88121 0.0
C896 C 0.20393 0.69114 0.88297 0.0
C897 C 0.18449 0.67121 0.90799 0.0
C898 C 0.28119 0.69264 0.9039 0.0
C899 C 0.19044 0.70437 0.85827 0.0
C900 C 0.29505 0.77122 0.8351 0.0
C901 C 0.29761 0.75868 0.8049 0.0
C902 C 0.27469 0.75193 0.85991 0.0
C903 C 0.25652 0.71921 0.85458 0.0
C904 C 0.25866 0.70642 0.824 0.0
C905 C 0.27908 0.72631 0.79949 0.0
C906 C 0.27293 0.76654 0.89204 0.0
C907 C 0.23978 0.67164 0.81739 0.0
H908 H 0.23673 0.65601 0.94775 0.0
H909 H 0.16015 0.66558 0.90903 0.0
H910 H 0.28581 0.68482 0.87992 0.0
H911 H 0.29742 0.71827 0.90576 0.0
H912 H 0.28679 0.68093 0.92416 0.0
H913 H 0.16542 0.69687 0.86329 0.0
H914 H 0.20424 0.73034 0.8587 0.0
H915 H 0.19216 0.69676 0.83296 0.0
H916 H 0.30919 0.7962 0.83952 0.0
H917 H 0.28097 0.71637 0.77632 0.0
H918 H 0.2806 0.75712 0.91277 0.0
H919 H 0.24827 0.76039 0.89695 0.0
H920 H 0.28785 0.79247 0.89193 0.0
H921 H 0.24625 0.65891 0.83561 0.0
H922 H 0.24365 0.66544 0.79214 0.0
H923 H 0.21434 0.66324 0.82044 0.0
loop_
_geom_bond_atom_site_label_1
_geom_bond_atom_site_label_2
_geom_bond_distance
_geom_bond_site_symmetry_2
_ccdc_geom_bond_type
Mg0 O7 2.141 . S
Mg0 O8 2.048 . S
Mg0 O9 2.048 . S
Mg0 O12 2.141 . S
C1 O2 1.313 . S
C1 O8 1.195 . S
O2 C1 1.313 . S
C3 O4 1.245 . S
C3 O12 1.289 . S
O4 C3 1.245 . S
C5 O6 1.245 . S
C5 O7 1.289 . S
O6 C5 1.245 . S
O7 Mg0 2.141 . S
O7 C5 1.289 . S
O8 Mg0 2.048 . S
O8 C1 1.195 . S
O9 Mg0 2.048 . S
O9 C10 1.195 . S
C10 O9 1.195 . S
C10 O11 1.313 . S
O11 C10 1.313 . S
O12 Mg0 2.141 . S
O12 C3 1.289 . S
Mg13 O20 2.141 . S
Mg13 O21 2.048 . S
Mg13 O22 2.048 . S
Mg13 O25 2.141 . S
C14 O15 1.313 . S
C14 O21 1.195 . S
O15 C14 1.313 . S
C16 O17 1.245 . S
C16 O25 1.289 . S
O17 C16 1.245 . S
C18 O19 1.245 . S
C18 O20 1.289 . S
O19 C18 1.245 . S
O20 Mg13 2.141 . S
O20 C18 1.289 . S
O21 Mg13 2.048 . S
O21 C14 1.195 . S
O22 Mg13 2.048 . S
O22 C23 1.195 . S
C23 O22 1.195 . S
C23 O24 1.313 . S
O24 C23 1.313 . S
O25 Mg13 2.141 . S
O25 C16 1.289 . S
Mg26 O33 2.141 1_554 S
Mg26 O34 2.048 . S
Mg26 O35 2.048 . S
Mg26 O38 2.141 1_554 S
C27 O28 1.313 . S
C27 O34 1.195 . S
O28 C27 1.313 . S
C29 O30 1.245 . S
C29 O38 1.289 . S
O30 C29 1.245 . S
C31 O32 1.245 . S
C31 O33 1.289 . S
O32 C31 1.245 . S
O33 Mg26 2.141 1_556 S
O33 C31 1.289 . S
O34 Mg26 2.048 . S
O34 C27 1.195 . S
O35 Mg26 2.048 . S
O35 C36 1.195 . S
C36 O35 1.195 . S
C36 O37 1.313 . S
O37 C36 1.313 . S
O38 Mg26 2.141 1_556 S
O38 C29 1.289 . S
Mg39 O46 2.141 . S
Mg39 O47 2.048 . S
Mg39 O48 2.048 . S
Mg39 O51 2.141 . S
C40 O41 1.313 . S
C40 O47 1.195 . S
O41 C40 1.313 . S
C42 O43 1.245 . S
C42 O51 1.289 . S
O43 C42 1.245 . S
C44 O45 1.245 . S
C44 O46 1.289 . S
O45 C44 1.245 . S
O46 Mg39 2.141 . S
O46 C44 1.289 . S
O47 Mg39 2.048 . S
O47 C40 1.195 . S
O48 Mg39 2.048 . S
O48 C49 1.195 . S
C49 O48 1.195 . S
C49 O50 1.313 . S
O50 C49 1.313 . S
O51 Mg39 2.141 . S
O51 C42 1.289 . S
Mg52 O59 2.141 . S
Mg52 O60 2.048 . S
Mg52 O61 2.048 . S
Mg52 O64 2.141 . S
C53 O54 1.313 . S
C53 O60 1.195 . S
O54 C53 1.313 . S
C55 O56 1.245 . S
C55 O64 1.289 . S
O56 C55 1.245 . S
C57 O58 1.245 . S
C57 O59 1.289 . S
O58 C57 1.245 . S
O59 Mg52 2.141 . S
O59 C57 1.289 . S
O60 Mg52 2.048 . S
O60 C53 1.195 . S
O61 Mg52 2.048 . S
O61 C62 1.195 . S
C62 O61 1.195 . S
C62 O63 1.313 . S
O63 C62 1.313 . S
O64 Mg52 2.141 . S
O64 C55 1.289 . S
Mg65 O72 2.141 1_554 S
Mg65 O73 2.048 . S
Mg65 O74 2.048 . S
Mg65 O77 2.141 1_554 S
C66 O67 1.313 . S
C66 O73 1.195 . S
O67 C66 1.313 . S
C68 O69 1.245 . S
C68 O77 1.289 . S
O69 C68 1.245 . S
C70 O71 1.245 . S
C70 O72 1.289 . S
O71 C70 1.245 . S
O72 Mg65 2.141 1_556 S
O72 C70 1.289 . S
O73 Mg65 2.048 . S
O73 C66 1.195 . S
O74 Mg65 2.048 . S
O74 C75 1.195 . S
C75 O74 1.195 . S
C75 O76 1.313 . S
O76 C75 1.313 . S
O77 Mg65 2.141 1_556 S
O77 C68 1.289 . S
Mg78 O85 2.141 . S
Mg78 O86 2.048 . S
Mg78 O87 2.048 . S
Mg78 O90 2.141 . S
C79 O80 1.313 . S
C79 O86 1.195 . S
O80 C79 1.313 . S
C81 O82 1.245 . S
C81 O90 1.289 . S
O82 C81 1.245 . S
C83 O84 1.245 . S
C83 O85 1.289 . S
O84 C83 1.245 . S
O85 Mg78 2.141 . S
O85 C83 1.289 . S
O86 Mg78 2.048 . S
O86 C79 1.195 . S
O87 Mg78 2.048 . S
O87 C88 1.195 . S
C88 O87 1.195 . S
C88 O89 1.313 . S
O89 C88 1.313 . S
O90 Mg78 2.141 . S
O90 C81 1.289 . S
Mg91 O98 2.141 . S
Mg91 O99 2.048 . S
Mg91 O100 2.048 . S
Mg91 O103 2.141 . S
C92 O93 1.313 . S
C92 O99 1.195 . S
O93 C92 1.313 . S
C94 O95 1.245 . S
C94 O103 1.289 . S
O95 C94 1.245 . S
C96 O97 1.245 . S
C96 O98 1.289 . S
O97 C96 1.245 . S
O98 Mg91 2.141 . S
O98 C96 1.289 . S
O99 Mg91 2.048 . S
O99 C92 1.195 . S
O100 Mg91 2.048 . S
O100 C101 1.195 . S
C101 O100 1.195 . S
C101 O102 1.313 . S
O102 C101 1.313 . S
O103 Mg91 2.141 . S
O103 C94 1.289 . S
Mg104 O111 2.141 1_556 S
Mg104 O112 2.048 . S
Mg104 O113 2.048 . S
Mg104 O116 2.141 1_556 S
C105 O106 1.313 . S
C105 O112 1.195 . S
O106 C105 1.313 . S
C107 O108 1.245 . S
C107 O116 1.289 . S
O108 C107 1.245 . S
C109 O110 1.245 . S
C109 O111 1.289 . S
O110 C109 1.245 . S
O111 Mg104 2.141 1_554 S
O111 C109 1.289 . S
O112 Mg104 2.048 . S
O112 C105 1.195 . S
O113 Mg104 2.048 . S
O113 C114 1.195 . S
C114 O113 1.195 . S
C114 O115 1.313 . S
O115 C114 1.313 . S
O116 Mg104 2.141 1_554 S
O116 C107 1.289 . S
Mg117 O124 2.141 . S
Mg117 O125 2.048 . S
Mg117 O126 2.048 . S
Mg117 O129 2.141 . S
C118 O119 1.313 . S
C118 O125 1.195 . S
O119 C118 1.313 . S
C120 O121 1.245 . S
C120 O129 1.289 . S
O121 C120 1.245 . S
C122 O123 1.245 . S
C122 O124 1.289 . S
O123 C122 1.245 . S
O124 Mg117 2.141 . S
O124 C122 1.289 . S
O125 Mg117 2.048 . S
O125 C118 1.195 . S
O126 Mg117 2.048 . S
O126 C127 1.195 . S
C127 O126 1.195 . S
C127 O128 1.313 . S
O128 C127 1.313 . S
O129 Mg117 2.141 . S
O129 C120 1.289 . S
Mg130 O137 2.141 . S
Mg130 O138 2.048 . S
Mg130 O139 2.048 . S
Mg130 O142 2.141 . S
C131 O132 1.313 . S
C131 O138 1.195 . S
O132 C131 1.313 . S
C133 O134 1.245 . S
C133 O142 1.289 . S
O134 C133 1.245 . S
C135 O136 1.245 . S
C135 O137 1.289 . S
O136 C135 1.245 . S
O137 Mg130 2.141 . S
O137 C135 1.289 . S
O138 Mg130 2.048 . S
O138 C131 1.195 . S
O139 Mg130 2.048 . S
O139 C140 1.195 . S
C140 O139 1.195 . S
C140 O141 1.313 . S
O141 C140 1.313 . S
O142 Mg130 2.141 . S
O142 C133 1.289 . S
Mg143 O150 2.141 1_556 S
Mg143 O151 2.048 . S
Mg143 O152 2.048 . S
Mg143 O155 2.141 1_556 S
C144 O145 1.313 . S
C144 O151 1.195 . S
O145 C144 1.313 . S
C146 O147 1.245 . S
C146 O155 1.289 . S
O147 C146 1.245 . S
C148 O149 1.245 . S
C148 O150 1.289 . S
O149 C148 1.245 . S
O150 Mg143 2.141 1_554 S
O150 C148 1.289 . S
O151 Mg143 2.048 . S
O151 C144 1.195 . S
O152 Mg143 2.048 . S
O152 C153 1.195 . S
C153 O152 1.195 . S
C153 O154 1.313 . S
O154 C153 1.313 . S
O155 Mg143 2.141 1_554 S
O155 C146 1.289 . S
C156 C157 1.391 . S
C156 C158 1.394 . S
C156 H172 0.931 . S
C157 C156 1.391 . S
C157 C161 1.376 . S
C158 C156 1.394 . S
C158 C159 1.369 . S
C158 C162 1.531 . S
C159 C158 1.369 . S
C159 C160 1.410 . S
C159 C167 1.503 . S
C160 C159 1.410 . S
C160 C161 1.392 . S
C160 C163 1.511 . S
C161 C157 1.376 . S
C161 C160 1.392 . S
C161 H173 0.929 . S
C162 C158 1.531 . S
C162 H174 0.960 . S
C162 H175 0.962 . S
C162 H176 0.960 . S
C163 C160 1.511 . S
C163 H177 0.961 . S
C163 H178 0.961 . S
C163 H179 0.961 . S
C164 C165 1.370 . S
C164 C166 1.363 . S
C164 H180 0.931 . S
C165 C164 1.370 . S
C165 C169 1.408 . S
C166 C164 1.363 . S
C166 C167 1.370 . S
C166 C170 1.524 . S
C167 C159 1.503 . S
C167 C166 1.370 . S
C167 C168 1.403 . S
C168 C167 1.403 . S
C168 C169 1.404 . S
C168 C171 1.539 . S
C169 C165 1.408 . S
C169 C168 1.404 . S
C169 H181 0.930 . S
C170 C166 1.524 . S
C170 H182 0.956 . S
C170 H183 0.961 . S
C170 H184 0.961 . S
C171 C168 1.539 . S
C171 H185 0.958 . S
C171 H186 0.961 . S
C171 H187 0.960 . S
H172 C156 0.931 . S
H173 C161 0.929 . S
H174 C162 0.960 . S
H175 C162 0.962 . S
H176 C162 0.960 . S
H177 C163 0.961 . S
H178 C163 0.961 . S
H179 C163 0.961 . S
H180 C164 0.931 . S
H181 C169 0.930 . S
H182 C170 0.956 . S
H183 C170 0.961 . S
H184 C170 0.961 . S
H185 C171 0.958 . S
H186 C171 0.961 . S
H187 C171 0.960 . S
C188 C189 1.391 . S
C188 C190 1.394 . S
C188 H204 0.931 . S
C189 C188 1.391 . S
C189 C193 1.376 . S
C190 C188 1.394 . S
C190 C191 1.369 . S
C190 C194 1.531 . S
C191 C190 1.369 . S
C191 C192 1.410 . S
C191 C199 1.503 . S
C192 C191 1.410 . S
C192 C193 1.392 . S
C192 C195 1.511 . S
C193 C189 1.376 . S
C193 C192 1.392 . S
C193 H205 0.929 . S
C194 C190 1.531 . S
C194 H206 0.960 . S
C194 H207 0.962 . S
C194 H208 0.960 . S
C195 C192 1.511 . S
C195 H209 0.961 . S
C195 H210 0.961 . S
C195 H211 0.961 . S
C196 C197 1.370 . S
C196 C198 1.363 . S
C196 H212 0.931 . S
C197 C196 1.370 . S
C197 C201 1.408 . S
C198 C196 1.363 . S
C198 C199 1.370 . S
C198 C202 1.524 . S
C199 C191 1.503 . S
C199 C198 1.370 . S
C199 C200 1.403 . S
C200 C199 1.403 . S
C200 C201 1.404 . S
C200 C203 1.539 . S
C201 C197 1.408 . S
C201 C200 1.404 . S
C201 H213 0.930 . S
C202 C198 1.524 . S
C202 H214 0.956 . S
C202 H215 0.961 . S
C202 H216 0.961 . S
C203 C200 1.539 . S
C203 H217 0.958 . S
C203 H218 0.961 . S
C203 H219 0.960 . S
H204 C188 0.931 . S
H205 C193 0.929 . S
H206 C194 0.960 . S
H207 C194 0.962 . S
H208 C194 0.960 . S
H209 C195 0.961 . S
H210 C195 0.961 . S
H211 C195 0.961 . S
H212 C196 0.931 . S
H213 C201 0.930 . S
H214 C202 0.956 . S
H215 C202 0.961 . S
H216 C202 0.961 . S
H217 C203 0.958 . S
H218 C203 0.961 . S
H219 C203 0.960 . S
C220 C221 1.391 . S
C220 C222 1.394 . S
C220 H236 0.931 . S
C221 C220 1.391 . S
C221 C225 1.376 . S
C222 C220 1.394 . S
C222 C223 1.369 . S
C222 C226 1.531 . S
C223 C222 1.369 . S
C223 C224 1.410 . S
C223 C231 1.503 . S
C224 C223 1.410 . S
C224 C225 1.392 . S
C224 C227 1.511 . S
C225 C221 1.376 . S
C225 C224 1.392 . S
C225 H237 0.929 . S
C226 C222 1.531 . S
C226 H238 0.960 . S
C226 H239 0.962 . S
C226 H240 0.960 . S
C227 C224 1.511 . S
C227 H241 0.961 . S
C227 H242 0.961 . S
C227 H243 0.961 . S
C228 C229 1.370 . S
C228 C230 1.363 . S
C228 H244 0.931 . S
C229 C228 1.370 . S
C229 C233 1.408 . S
C230 C228 1.363 . S
C230 C231 1.370 . S
C230 C234 1.524 . S
C231 C223 1.503 . S
C231 C230 1.370 . S
C231 C232 1.403 . S
C232 C231 1.403 . S
C232 C233 1.404 . S
C232 C235 1.539 . S
C233 C229 1.408 . S
C233 C232 1.404 . S
C233 H245 0.930 . S
C234 C230 1.524 . S
C234 H246 0.956 . S
C234 H247 0.961 . S
C234 H248 0.961 . S
C235 C232 1.539 . S
C235 H249 0.958 . S
C235 H250 0.961 . S
C235 H251 0.960 . S
H236 C220 0.931 . S
H237 C225 0.929 . S
H238 C226 0.960 . S
H239 C226 0.962 . S
H240 C226 0.960 . S
H241 C227 0.961 . S
H242 C227 0.961 . S
H243 C227 0.961 . S
H244 C228 0.931 . S
H245 C233 0.930 . S
H246 C234 0.956 . S
H247 C234 0.961 . S
H248 C234 0.961 . S
H249 C235 0.958 . S
H250 C235 0.961 . S
H251 C235 0.960 . S
C252 C253 1.391 . S
C252 C254 1.394 . S
C252 H268 0.931 . S
C253 C252 1.391 . S
C253 C257 1.376 . S
C254 C252 1.394 . S
C254 C255 1.369 . S
C254 C258 1.531 . S
C255 C254 1.369 . S
C255 C256 1.410 . S
C255 C263 1.503 . S
C256 C255 1.410 . S
C256 C257 1.392 . S
C256 C259 1.511 . S
C257 C253 1.376 . S
C257 C256 1.392 . S
C257 H269 0.929 . S
C258 C254 1.531 . S
C258 H270 0.960 . S
C258 H271 0.962 . S
C258 H272 0.960 . S
C259 C256 1.511 . S
C259 H273 0.961 . S
C259 H274 0.961 . S
C259 H275 0.961 . S
C260 C261 1.370 . S
C260 C262 1.363 . S
C260 H276 0.931 . S
C261 C260 1.370 . S
C261 C265 1.408 . S
C262 C260 1.363 . S
C262 C263 1.370 . S
C262 C266 1.524 . S
C263 C255 1.503 . S
C263 C262 1.370 . S
C263 C264 1.403 . S
C264 C263 1.403 . S
C264 C265 1.404 . S
C264 C267 1.539 . S
C265 C261 1.408 . S
C265 C264 1.404 . S
C265 H277 0.930 . S
C266 C262 1.524 . S
C266 H278 0.956 . S
C266 H279 0.961 . S
C266 H280 0.961 . S
C267 C264 1.539 . S
C267 H281 0.958 . S
C267 H282 0.961 . S
C267 H283 0.960 . S
H268 C252 0.931 . S
H269 C257 0.929 . S
H270 C258 0.960 . S
H271 C258 0.962 . S
H272 C258 0.960 . S
H273 C259 0.961 . S
H274 C259 0.961 . S
H275 C259 0.961 . S
H276 C260 0.931 . S
H277 C265 0.930 . S
H278 C266 0.956 . S
H279 C266 0.961 . S
H280 C266 0.961 . S
H281 C267 0.958 . S
H282 C267 0.961 . S
H283 C267 0.960 . S
C284 C285 1.391 . S
C284 C286 1.394 . S
C284 H300 0.931 . S
C285 C284 1.391 . S
C285 C289 1.376 . S
C286 C284 1.394 . S
C286 C287 1.369 . S
C286 C290 1.531 . S
C287 C286 1.369 . S
C287 C288 1.410 . S
C287 C295 1.503 . S
C288 C287 1.410 . S
C288 C289 1.392 . S
C288 C291 1.511 . S
C289 C285 1.376 . S
C289 C288 1.392 . S
C289 H301 0.929 . S
C290 C286 1.531 . S
C290 H302 0.960 . S
C290 H303 0.962 . S
C290 H304 0.960 . S
C291 C288 1.511 . S
C291 H305 0.961 . S
C291 H306 0.961 . S
C291 H307 0.961 . S
C292 C293 1.370 . S
C292 C294 1.363 . S
C292 H308 0.931 . S
C293 C292 1.370 . S
C293 C297 1.408 . S
C294 C292 1.363 . S
C294 C295 1.370 . S
C294 C298 1.524 . S
C295 C287 1.503 . S
C295 C294 1.370 . S
C295 C296 1.403 . S
C296 C295 1.403 . S
C296 C297 1.404 . S
C296 C299 1.539 . S
C297 C293 1.408 . S
C297 C296 1.404 . S
C297 H309 0.930 . S
C298 C294 1.524 . S
C298 H310 0.956 . S
C298 H311 0.961 . S
C298 H312 0.961 . S
C299 C296 1.539 . S
C299 H313 0.958 . S
C299 H314 0.961 . S
C299 H315 0.960 . S
H300 C284 0.931 . S
H301 C289 0.929 . S
H302 C290 0.960 . S
H303 C290 0.962 . S
H304 C290 0.960 . S
H305 C291 0.961 . S
H306 C291 0.961 . S
H307 C291 0.961 . S
H308 C292 0.931 . S
H309 C297 0.930 . S
H310 C298 0.956 . S
H311 C298 0.961 . S
H312 C298 0.961 . S
H313 C299 0.958 . S
H314 C299 0.961 . S
H315 C299 0.960 . S
C316 C317 1.391 . S
C316 C318 1.394 . S
C316 H332 0.931 . S
C317 C316 1.391 . S
C317 C321 1.376 . S
C318 C316 1.394 . S
C318 C319 1.369 . S
C318 C322 1.531 . S
C319 C318 1.369 . S
C319 C320 1.410 . S
C319 C327 1.503 . S
C320 C319 1.410 . S
C320 C321 1.392 . S
C320 C323 1.511 . S
C321 C317 1.376 . S
C321 C320 1.392 . S
C321 H333 0.929 . S
C322 C318 1.531 . S
C322 H334 0.960 . S
C322 H335 0.962 . S
C322 H336 0.960 . S
C323 C320 1.511 . S
C323 H337 0.961 . S
C323 H338 0.961 . S
C323 H339 0.961 . S
C324 C325 1.370 . S
C324 C326 1.363 . S
C324 H340 0.931 . S
C325 C324 1.370 . S
C325 C329 1.408 . S
C326 C324 1.363 . S
C326 C327 1.370 . S
C326 C330 1.524 . S
C327 C319 1.503 . S
C327 C326 1.370 . S
C327 C328 1.403 . S
C328 C327 1.403 . S
C328 C329 1.404 . S
C328 C331 1.539 . S
C329 C325 1.408 . S
C329 C328 1.404 . S
C329 H341 0.930 . S
C330 C326 1.524 . S
C330 H342 0.956 . S
C330 H343 0.961 . S
C330 H344 0.961 . S
C331 C328 1.539 . S
C331 H345 0.958 . S
C331 H346 0.961 . S
C331 H347 0.960 . S
H332 C316 0.931 . S
H333 C321 0.929 . S
H334 C322 0.960 . S
H335 C322 0.962 . S
H336 C322 0.960 . S
H337 C323 0.961 . S
H338 C323 0.961 . S
H339 C323 0.961 . S
H340 C324 0.931 . S
H341 C329 0.930 . S
H342 C330 0.956 . S
H343 C330 0.961 . S
H344 C330 0.961 . S
H345 C331 0.958 . S
H346 C331 0.961 . S
H347 C331 0.960 . S
C348 C349 1.391 . S
C348 C350 1.394 . S
C348 H364 0.931 . S
C349 C348 1.391 . S
C349 C353 1.376 . S
C350 C348 1.394 . S
C350 C351 1.369 . S
C350 C354 1.531 . S
C351 C350 1.369 . S
C351 C352 1.410 . S
C351 C359 1.503 . S
C352 C351 1.410 . S
C352 C353 1.392 . S
C352 C355 1.511 . S
C353 C349 1.376 . S
C353 C352 1.392 . S
C353 H365 0.929 . S
C354 C350 1.531 . S
C354 H366 0.960 . S
C354 H367 0.962 . S
C354 H368 0.960 . S
C355 C352 1.511 . S
C355 H369 0.961 . S
C355 H370 0.961 . S
C355 H371 0.961 . S
C356 C357 1.370 . S
C356 C358 1.363 . S
C356 H372 0.931 . S
C357 C356 1.370 . S
C357 C361 1.408 . S
C358 C356 1.363 . S
C358 C359 1.370 . S
C358 C362 1.524 . S
C359 C351 1.503 . S
C359 C358 1.370 . S
C359 C360 1.403 . S
C360 C359 1.403 . S
C360 C361 1.404 . S
C360 C363 1.539 . S
C361 C357 1.408 . S
C361 C360 1.404 . S
C361 H373 0.930 . S
C362 C358 1.524 . S
C362 H374 0.956 . S
C362 H375 0.961 . S
C362 H376 0.961 . S
C363 C360 1.539 . S
C363 H377 0.958 . S
C363 H378 0.961 . S
C363 H379 0.960 . S
H364 C348 0.931 . S
H365 C353 0.929 . S
H366 C354 0.960 . S
H367 C354 0.962 . S
H368 C354 0.960 . S
H369 C355 0.961 . S
H370 C355 0.961 . S
H371 C355 0.961 . S
H372 C356 0.931 . S
H373 C361 0.930 . S
H374 C362 0.956 . S
H375 C362 0.961 . S
H376 C362 0.961 . S
H377 C363 0.958 . S
H378 C363 0.961 . S
H379 C363 0.960 . S
C380 C381 1.391 . S
C380 C382 1.394 . S
C380 H396 0.931 . S
C381 C380 1.391 . S
C381 C385 1.376 . S
C382 C380 1.394 . S
C382 C383 1.369 . S
C382 C386 1.531 . S
C383 C382 1.369 . S
C383 C384 1.410 . S
C383 C391 1.503 . S
C384 C383 1.410 . S
C384 C385 1.392 . S
C384 C387 1.511 . S
C385 C381 1.376 . S
C385 C384 1.392 . S
C385 H397 0.929 . S
C386 C382 1.531 . S
C386 H398 0.960 . S
C386 H399 0.962 . S
C386 H400 0.960 . S
C387 C384 1.511 . S
C387 H401 0.961 . S
C387 H402 0.961 . S
C387 H403 0.961 . S
C388 C389 1.370 . S
C388 C390 1.363 . S
C388 H404 0.931 . S
C389 C388 1.370 . S
C389 C393 1.408 . S
C390 C388 1.363 . S
C390 C391 1.370 . S
C390 C394 1.524 . S
C391 C383 1.503 . S
C391 C390 1.370 . S
C391 C392 1.403 . S
C392 C391 1.403 . S
C392 C393 1.404 . S
C392 C395 1.539 . S
C393 C389 1.408 . S
C393 C392 1.404 . S
C393 H405 0.930 . S
C394 C390 1.524 . S
C394 H406 0.956 . S
C394 H407 0.961 . S
C394 H408 0.961 . S
C395 C392 1.539 . S
C395 H409 0.958 . S
C395 H410 0.961 . S
C395 H411 0.960 . S
H396 C380 0.931 . S
H397 C385 0.929 . S
H398 C386 0.960 . S
H399 C386 0.962 . S
H400 C386 0.960 . S
H401 C387 0.961 . S
H402 C387 0.961 . S
H403 C387 0.961 . S
H404 C388 0.931 . S
H405 C393 0.930 . S
H406 C394 0.956 . S
H407 C394 0.961 . S
H408 C394 0.961 . S
H409 C395 0.958 . S
H410 C395 0.961 . S
H411 C395 0.960 . S
C412 C413 1.391 . S
C412 C414 1.394 . S
C412 H428 0.937 . S
C413 C412 1.391 . S
C413 C417 1.376 . S
C414 C412 1.394 . S
C414 C415 1.369 . S
C414 C418 1.531 1_556 S
C415 C414 1.369 . S
C415 C416 1.410 . S
C415 C423 1.503 . S
C416 C415 1.410 . S
C416 C417 1.392 . S
C416 C419 1.511 . S
C417 C413 1.376 . S
C417 C416 1.392 . S
C417 H429 0.929 . S
C418 C414 1.531 1_554 S
C418 H430 0.960 1_554 S
C418 H431 0.962 . S
C418 H432 0.960 1_554 S
C419 C416 1.511 . S
C419 H433 0.961 . S
C419 H434 0.961 . S
C419 H435 0.961 . S
C420 C421 1.370 . S
C420 C422 1.363 . S
C420 H436 0.931 . S
C421 C420 1.370 . S
C421 C425 1.408 1_554 S
C422 C420 1.363 . S
C422 C423 1.370 1_554 S
C422 C426 1.524 . S
C423 C415 1.503 . S
C423 C422 1.370 1_556 S
C423 C424 1.403 . S
C424 C423 1.403 . S
C424 C425 1.404 . S
C424 C427 1.539 . S
C425 C421 1.408 1_556 S
C425 C424 1.404 . S
C425 H437 0.930 . S
C426 C422 1.524 . S
C426 H438 0.956 . S
C426 H439 0.961 . S
C426 H440 0.961 . S
C427 C424 1.539 . S
C427 H441 0.958 . S
C427 H442 0.961 . S
C427 H443 0.960 . S
H428 C412 0.937 . S
H429 C417 0.929 . S
H430 C418 0.960 1_556 S
H431 C418 0.962 . S
H432 C418 0.960 1_556 S
H433 C419 0.961 . S
H434 C419 0.961 . S
H435 C419 0.961 . S
H436 C420 0.931 . S
H437 C425 0.930 . S
H438 C426 0.956 . S
H439 C426 0.961 . S
H440 C426 0.961 . S
H441 C427 0.958 . S
H442 C427 0.961 . S
H443 C427 0.960 . S
C444 C445 1.391 . S
C444 C446 1.394 . S
C444 H460 0.931 . S
C445 C444 1.391 . S
C445 C449 1.376 . S
C446 C444 1.394 . S
C446 C447 1.369 . S
C446 C450 1.531 . S
C447 C446 1.369 . S
C447 C448 1.410 . S
C447 C455 1.503 . S
C448 C447 1.410 . S
C448 C449 1.392 . S
C448 C451 1.511 . S
C449 C445 1.376 . S
C449 C448 1.392 . S
C449 H461 0.929 . S
C450 C446 1.531 . S
C450 H462 0.960 . S
C450 H463 0.962 . S
C450 H464 0.960 . S
C451 C448 1.511 . S
C451 H465 0.961 . S
C451 H466 0.961 . S
C451 H467 0.961 . S
C452 C453 1.370 . S
C452 C454 1.363 . S
C452 H468 0.931 . S
C453 C452 1.370 . S
C453 C457 1.408 . S
C454 C452 1.363 . S
C454 C455 1.370 . S
C454 C458 1.524 . S
C455 C447 1.503 . S
C455 C454 1.370 . S
C455 C456 1.403 . S
C456 C455 1.403 . S
C456 C457 1.404 . S
C456 C459 1.539 . S
C457 C453 1.408 . S
C457 C456 1.404 . S
C457 H469 0.930 . S
C458 C454 1.524 . S
C458 H470 0.956 . S
C458 H471 0.961 . S
C458 H472 0.961 . S
C459 C456 1.539 . S
C459 H473 0.958 . S
C459 H474 0.961 . S
C459 H475 0.960 . S
H460 C444 0.931 . S
H461 C449 0.929 . S
H462 C450 0.960 . S
H463 C450 0.962 . S
H464 C450 0.960 . S
H465 C451 0.961 . S
H466 C451 0.961 . S
H467 C451 0.961 . S
H468 C452 0.931 . S
H469 C457 0.930 . S
H470 C458 0.956 . S
H471 C458 0.961 . S
H472 C458 0.961 . S
H473 C459 0.958 . S
H474 C459 0.961 . S
H475 C459 0.960 . S
C476 C477 1.391 . S
C476 C478 1.394 . S
C476 H492 0.931 . S
C477 C476 1.391 . S
C477 C481 1.376 . S
C478 C476 1.394 . S
C478 C479 1.369 . S
C478 C482 1.531 . S
C479 C478 1.369 . S
C479 C480 1.410 . S
C479 C487 1.503 . S
C480 C479 1.410 . S
C480 C481 1.392 . S
C480 C483 1.511 . S
C481 C477 1.376 . S
C481 C480 1.392 . S
C481 H493 0.929 . S
C482 C478 1.531 . S
C482 H494 0.960 . S
C482 H495 0.962 . S
C482 H496 0.960 . S
C483 C480 1.511 . S
C483 H497 0.961 . S
C483 H498 0.961 . S
C483 H499 0.961 . S
C484 C485 1.370 . S
C484 C486 1.363 . S
C484 H500 0.931 . S
C485 C484 1.370 . S
C485 C489 1.408 . S
C486 C484 1.363 . S
C486 C487 1.370 . S
C486 C490 1.524 . S
C487 C479 1.503 . S
C487 C486 1.370 . S
C487 C488 1.403 . S
C488 C487 1.403 . S
C488 C489 1.404 . S
C488 C491 1.539 . S
C489 C485 1.408 . S
C489 C488 1.404 . S
C489 H501 0.930 . S
C490 C486 1.524 . S
C490 H502 0.956 . S
C490 H503 0.961 . S
C490 H504 0.961 . S
C491 C488 1.539 . S
C491 H505 0.958 . S
C491 H506 0.961 . S
C491 H507 0.960 . S
H492 C476 0.931 . S
H493 C481 0.929 . S
H494 C482 0.960 . S
H495 C482 0.962 . S
H496 C482 0.960 . S
H497 C483 0.961 . S
H498 C483 0.961 . S
H499 C483 0.961 . S
H500 C484 0.931 . S
H501 C489 0.930 . S
H502 C490 0.956 . S
H503 C490 0.961 . S
H504 C490 0.961 . S
H505 C491 0.958 . S
H506 C491 0.961 . S
H507 C491 0.960 . S
C508 C509 1.391 . S
C508 C510 1.394 . S
C508 H524 0.931 . S
C509 C508 1.391 . S
C509 C513 1.376 1_554 S
C510 C508 1.394 . S
C510 C511 1.369 . S
C510 C514 1.531 . S
C511 C510 1.369 . S
C511 C512 1.410 1_554 S
C511 C519 1.504 . S
C512 C511 1.410 1_556 S
C512 C513 1.392 . S
C512 C515 1.511 . S
C513 C509 1.376 1_556 S
C513 C512 1.392 . S
C513 H525 0.929 . S
C514 C510 1.531 . S
C514 H526 0.960 . S
C514 H527 0.962 . S
C514 H528 0.960 . S
C515 C512 1.511 . S
C515 H529 0.961 . S
C515 H530 0.961 . S
C515 H531 0.961 . S
C516 C517 1.370 . S
C516 C518 1.363 . S
C516 H532 0.931 . S
C517 C516 1.370 . S
C517 C521 1.408 1_556 S
C518 C516 1.363 . S
C518 C519 1.367 1_556 S
C518 C522 1.524 . S
C519 C511 1.504 . S
C519 C518 1.367 1_554 S
C519 C520 1.405 . S
C520 C519 1.405 . S
C520 C521 1.404 . S
C520 C523 1.539 . S
C521 C517 1.408 1_554 S
C521 C520 1.404 . S
C521 H533 0.930 . S
C522 C518 1.524 . S
C522 H534 0.956 . S
C522 H535 0.961 . S
C522 H536 0.961 . S
C523 C520 1.539 . S
C523 H537 0.958 . S
C523 H538 0.961 . S
C523 H539 0.960 . S
H524 C508 0.931 . S
H525 C513 0.929 . S
H526 C514 0.960 . S
H527 C514 0.962 . S
H528 C514 0.960 . S
H529 C515 0.961 . S
H530 C515 0.961 . S
H531 C515 0.961 . S
H532 C516 0.931 . S
H533 C521 0.930 . S
H534 C522 0.956 . S
H535 C522 0.961 . S
H536 C522 0.961 . S
H537 C523 0.958 . S
H538 C523 0.961 . S
H539 C523 0.960 . S
C540 C541 1.391 . S
C540 C542 1.394 . S
C540 H556 0.931 . S
C541 C540 1.391 . S
C541 C545 1.376 . S
C542 C540 1.394 . S
C542 C543 1.369 . S
C542 C546 1.531 1_545 S
C543 C542 1.369 . S
C543 C544 1.410 . S
C543 C551 1.503 1_545 S
C544 C543 1.410 . S
C544 C545 1.392 . S
C544 C547 1.511 . S
C545 C541 1.376 . S
C545 C544 1.392 . S
C545 H557 0.929 . S
C546 C542 1.531 1_565 S
C546 H558 0.960 . S
C546 H559 0.962 . S
C546 H560 0.960 . S
C547 C544 1.511 . S
C547 H561 0.961 . S
C547 H562 0.961 . S
C547 H563 0.961 . S
C548 C549 1.370 . S
C548 C550 1.363 . S
C548 H564 0.931 . S
C549 C548 1.370 . S
C549 C553 1.408 . S
C550 C548 1.363 . S
C550 C551 1.370 . S
C550 C554 1.524 1_565 S
C551 C543 1.503 1_565 S
C551 C550 1.370 . S
C551 C552 1.403 . S
C552 C551 1.403 . S
C552 C553 1.404 . S
C552 C555 1.539 . S
C553 C549 1.408 . S
C553 C552 1.404 . S
C553 H565 0.930 . S
C554 C550 1.524 1_545 S
C554 H566 0.956 . S
C554 H567 0.961 . S
C554 H568 0.961 . S
C555 C552 1.539 . S
C555 H569 0.958 . S
C555 H570 0.961 . S
C555 H571 0.960 . S
H556 C540 0.931 . S
H557 C545 0.929 . S
H558 C546 0.960 . S
H559 C546 0.962 . S
H560 C546 0.960 . S
H561 C547 0.961 . S
H562 C547 0.961 . S
H563 C547 0.961 . S
H564 C548 0.931 . S
H565 C553 0.930 . S
H566 C554 0.956 . S
H567 C554 0.961 . S
H568 C554 0.961 . S
H569 C555 0.958 . S
H570 C555 0.961 . S
H571 C555 0.960 . S
C572 C573 1.391 . S
C572 C574 1.394 . S
C572 H588 0.931 . S
C573 C572 1.391 . S
C573 C577 1.376 . S
C574 C572 1.394 . S
C574 C575 1.369 . S
C574 C578 1.531 . S
C575 C574 1.369 . S
C575 C576 1.410 . S
C575 C583 1.503 . S
C576 C575 1.410 . S
C576 C577 1.392 . S
C576 C579 1.511 . S
C577 C573 1.376 . S
C577 C576 1.392 . S
C577 H589 0.929 . S
C578 C574 1.531 . S
C578 H590 0.960 . S
C578 H591 0.962 . S
C578 H592 0.960 . S
C579 C576 1.511 . S
C579 H593 0.961 . S
C579 H594 0.961 . S
C579 H595 0.961 . S
C580 C581 1.370 . S
C580 C582 1.363 . S
C580 H596 0.931 . S
C581 C580 1.370 . S
C581 C585 1.408 . S
C582 C580 1.363 . S
C582 C583 1.370 . S
C582 C586 1.524 . S
C583 C575 1.503 . S
C583 C582 1.370 . S
C583 C584 1.403 . S
C584 C583 1.403 . S
C584 C585 1.404 . S
C584 C587 1.539 . S
C585 C581 1.408 . S
C585 C584 1.404 . S
C585 H597 0.930 . S
C586 C582 1.524 . S
C586 H598 0.956 . S
C586 H599 0.961 . S
C586 H600 0.961 . S
C587 C584 1.539 . S
C587 H601 0.958 . S
C587 H602 0.961 . S
C587 H603 0.960 . S
H588 C572 0.931 . S
H589 C577 0.929 . S
H590 C578 0.960 . S
H591 C578 0.962 . S
H592 C578 0.960 . S
H593 C579 0.961 . S
H594 C579 0.961 . S
H595 C579 0.961 . S
H596 C580 0.931 . S
H597 C585 0.930 . S
H598 C586 0.956 . S
H599 C586 0.961 . S
H600 C586 0.961 . S
H601 C587 0.958 . S
H602 C587 0.961 . S
H603 C587 0.960 . S
C604 C605 1.391 . S
C604 C606 1.394 . S
C604 H620 0.931 . S
C605 C604 1.391 . S
C605 C609 1.376 1_556 S
C606 C604 1.394 . S
C606 C607 1.369 . S
C606 C610 1.531 1_655 S
C607 C606 1.369 . S
C607 C608 1.410 1_556 S
C607 C615 1.503 1_655 S
C608 C607 1.410 1_554 S
C608 C609 1.392 . S
C608 C611 1.511 . S
C609 C605 1.376 1_554 S
C609 C608 1.392 . S
C609 H621 0.929 . S
C610 C606 1.531 1_455 S
C610 H622 0.960 . S
C610 H623 0.962 . S
C610 H624 0.960 . S
C611 C608 1.511 . S
C611 H625 0.961 . S
C611 H626 0.961 . S
C611 H627 0.961 . S
C612 C613 1.370 1_554 S
C612 C614 1.363 . S
C612 H628 0.931 . S
C613 C612 1.370 1_556 S
C613 C617 1.408 . S
C614 C612 1.363 . S
C614 C615 1.370 1_554 S
C614 C618 1.524 . S
C615 C607 1.503 1_455 S
C615 C614 1.370 1_556 S
C615 C616 1.403 . S
C616 C615 1.403 . S
C616 C617 1.404 . S
C616 C619 1.539 1_455 S
C617 C613 1.408 . S
C617 C616 1.404 . S
C617 H629 0.930 . S
C618 C614 1.524 . S
C618 H630 0.956 . S
C618 H631 0.961 . S
C618 H632 0.961 . S
C619 C616 1.539 1_655 S
C619 H633 0.958 . S
C619 H634 0.961 . S
C619 H635 0.960 . S
H620 C604 0.931 . S
H621 C609 0.929 . S
H622 C610 0.960 . S
H623 C610 0.962 . S
H624 C610 0.960 . S
H625 C611 0.961 . S
H626 C611 0.961 . S
H627 C611 0.961 . S
H628 C612 0.931 . S
H629 C617 0.930 . S
H630 C618 0.956 . S
H631 C618 0.961 . S
H632 C618 0.961 . S
H633 C619 0.958 . S
H634 C619 0.961 . S
H635 C619 0.960 . S
C636 C637 1.391 . S
C636 C638 1.394 . S
C636 H652 0.931 . S
C637 C636 1.391 . S
C637 C641 1.376 . S
C638 C636 1.394 . S
C638 C639 1.369 . S
C638 C642 1.531 1_455 S
C639 C638 1.369 . S
C639 C640 1.410 . S
C639 C647 1.503 1_455 S
C640 C639 1.410 . S
C640 C641 1.392 . S
C640 C643 1.511 . S
C641 C637 1.376 . S
C641 C640 1.392 . S
C641 H653 0.929 . S
C642 C638 1.531 1_655 S
C642 H654 0.960 . S
C642 H655 0.962 . S
C642 H656 0.960 1_655 S
C643 C640 1.511 . S
C643 H657 0.961 . S
C643 H658 0.961 . S
C643 H659 0.961 . S
C644 C645 1.370 . S
C644 C646 1.363 . S
C644 H660 0.931 . S
C645 C644 1.370 . S
C645 C649 1.408 . S
C646 C644 1.363 . S
C646 C647 1.370 . S
C646 C650 1.524 . S
C647 C639 1.503 1_655 S
C647 C646 1.370 . S
C647 C648 1.403 . S
C648 C647 1.403 . S
C648 C649 1.404 . S
C648 C651 1.539 1_655 S
C649 C645 1.408 . S
C649 C648 1.404 . S
C649 H661 0.930 . S
C650 C646 1.524 . S
C650 H662 0.956 . S
C650 H663 0.961 . S
C650 H664 0.961 . S
C651 C648 1.539 1_455 S
C651 H665 0.958 . S
C651 H666 0.961 . S
C651 H667 0.960 . S
H652 C636 0.931 . S
H653 C641 0.929 . S
H654 C642 0.960 . S
H655 C642 0.962 . S
H656 C642 0.960 1_455 S
H657 C643 0.961 . S
H658 C643 0.961 . S
H659 C643 0.961 . S
H660 C644 0.931 . S
H661 C649 0.930 . S
H662 C650 0.956 . S
H663 C650 0.961 . S
H664 C650 0.961 . S
H665 C651 0.958 . S
H666 C651 0.961 . S
H667 C651 0.960 . S
C668 C669 1.391 . S
C668 C670 1.394 . S
C668 H684 0.931 . S
C669 C668 1.391 . S
C669 C673 1.376 . S
C670 C668 1.394 . S
C670 C671 1.369 . S
C670 C674 1.531 1_545 S
C671 C670 1.369 . S
C671 C672 1.410 . S
C671 C679 1.503 1_545 S
C672 C671 1.410 . S
C672 C673 1.392 . S
C672 C675 1.511 . S
C673 C669 1.376 . S
C673 C672 1.392 . S
C673 H685 0.929 . S
C674 C670 1.531 1_565 S
C674 H686 0.960 . S
C674 H687 0.962 . S
C674 H688 0.960 . S
C675 C672 1.511 . S
C675 H689 0.961 . S
C675 H690 0.961 . S
C675 H691 0.961 . S
C676 C677 1.370 . S
C676 C678 1.363 . S
C676 H692 0.931 . S
C677 C676 1.370 . S
C677 C681 1.408 . S
C678 C676 1.363 . S
C678 C679 1.370 . S
C678 C682 1.524 . S
C679 C671 1.503 1_565 S
C679 C678 1.370 . S
C679 C680 1.403 . S
C680 C679 1.403 . S
C680 C681 1.404 . S
C680 C683 1.539 1_565 S
C681 C677 1.408 . S
C681 C680 1.404 . S
C681 H693 0.930 . S
C682 C678 1.524 . S
C682 H694 0.956 . S
C682 H695 0.961 . S
C682 H696 0.961 . S
C683 C680 1.539 1_545 S
C683 H697 0.958 . S
C683 H698 0.961 . S
C683 H699 0.960 . S
H684 C668 0.931 . S
H685 C673 0.929 . S
H686 C674 0.960 . S
H687 C674 0.962 . S
H688 C674 0.960 . S
H689 C675 0.961 . S
H690 C675 0.961 . S
H691 C675 0.961 . S
H692 C676 0.931 . S
H693 C681 0.930 . S
H694 C682 0.956 . S
H695 C682 0.961 . S
H696 C682 0.961 . S
H697 C683 0.958 . S
H698 C683 0.961 . S
H699 C683 0.960 . S
C700 C701 1.391 . S
C700 C702 1.394 . S
C700 H716 0.931 . S
C701 C700 1.391 . S
C701 C705 1.376 1_554 S
C702 C700 1.394 . S
C702 C703 1.369 . S
C702 C706 1.531 . S
C703 C702 1.369 . S
C703 C704 1.410 1_554 S
C703 C711 1.503 . S
C704 C703 1.410 1_556 S
C704 C705 1.392 . S
C704 C707 1.511 . S
C705 C701 1.376 1_556 S
C705 C704 1.392 . S
C705 H717 0.929 . S
C706 C702 1.531 . S
C706 H718 0.960 . S
C706 H719 0.962 . S
C706 H720 0.960 . S
C707 C704 1.511 . S
C707 H721 0.961 . S
C707 H722 0.961 . S
C707 H723 0.961 . S
C708 C709 1.370 . S
C708 C710 1.363 . S
C708 H724 0.931 . S
C709 C708 1.370 . S
C709 C713 1.408 1_554 S
C710 C708 1.363 . S
C710 C711 1.370 . S
C710 C714 1.524 . S
C711 C703 1.503 . S
C711 C710 1.370 . S
C711 C712 1.403 1_554 S
C712 C711 1.403 1_556 S
C712 C713 1.404 . S
C712 C715 1.539 . S
C713 C709 1.408 1_556 S
C713 C712 1.404 . S
C713 H725 0.930 . S
C714 C710 1.524 . S
C714 H726 0.956 . S
C714 H727 0.961 . S
C714 H728 0.961 . S
C715 C712 1.539 . S
C715 H729 0.958 . S
C715 H730 0.961 . S
C715 H731 0.960 . S
H716 C700 0.931 . S
H717 C705 0.929 . S
H718 C706 0.960 . S
H719 C706 0.962 . S
H720 C706 0.960 . S
H721 C707 0.961 . S
H722 C707 0.961 . S
H723 C707 0.961 . S
H724 C708 0.931 . S
H725 C713 0.930 . S
H726 C714 0.956 . S
H727 C714 0.961 . S
H728 C714 0.961 . S
H729 C715 0.958 . S
H730 C715 0.961 . S
H731 C715 0.960 . S
C732 C733 1.391 . S
C732 C734 1.394 . S
C732 H748 0.931 . S
C733 C732 1.391 . S
C733 C737 1.376 . S
C734 C732 1.394 . S
C734 C735 1.369 . S
C734 C738 1.531 . S
C735 C734 1.369 . S
C735 C736 1.410 . S
C735 C743 1.503 . S
C736 C735 1.410 . S
C736 C737 1.392 . S
C736 C739 1.511 . S
C737 C733 1.376 . S
C737 C736 1.392 . S
C737 H749 0.929 . S
C738 C734 1.531 . S
C738 H750 0.960 . S
C738 H751 0.962 . S
C738 H752 0.960 . S
C739 C736 1.511 . S
C739 H753 0.961 . S
C739 H754 0.961 . S
C739 H755 0.961 . S
C740 C741 1.370 . S
C740 C742 1.363 . S
C740 H756 0.931 . S
C741 C740 1.370 . S
C741 C745 1.408 . S
C742 C740 1.363 . S
C742 C743 1.370 . S
C742 C746 1.524 . S
C743 C735 1.503 . S
C743 C742 1.370 . S
C743 C744 1.403 . S
C744 C743 1.403 . S
C744 C745 1.404 . S
C744 C747 1.539 . S
C745 C741 1.408 . S
C745 C744 1.404 . S
C745 H757 0.930 . S
C746 C742 1.524 . S
C746 H758 0.956 . S
C746 H759 0.961 . S
C746 H760 0.961 . S
C747 C744 1.539 . S
C747 H761 0.958 . S
C747 H762 0.961 . S
C747 H763 0.960 . S
H748 C732 0.931 . S
H749 C737 0.929 . S
H750 C738 0.960 . S
H751 C738 0.962 . S
H752 C738 0.960 . S
H753 C739 0.961 . S
H754 C739 0.961 . S
H755 C739 0.961 . S
H756 C740 0.931 . S
H757 C745 0.930 . S
H758 C746 0.956 . S
H759 C746 0.961 . S
H760 C746 0.961 . S
H761 C747 0.958 . S
H762 C747 0.961 . S
H763 C747 0.960 . S
C764 C765 1.391 . S
C764 C766 1.394 . S
C764 H780 0.931 . S
C765 C764 1.391 . S
C765 C769 1.376 . S
C766 C764 1.394 . S
C766 C767 1.369 . S
C766 C770 1.531 . S
C767 C766 1.369 . S
C767 C768 1.410 . S
C767 C775 1.503 . S
C768 C767 1.410 . S
C768 C769 1.392 . S
C768 C771 1.511 . S
C769 C765 1.376 . S
C769 C768 1.392 . S
C769 H781 0.929 . S
C770 C766 1.531 . S
C770 H782 0.960 . S
C770 H783 0.962 . S
C770 H784 0.960 . S
C771 C768 1.511 . S
C771 H785 0.961 . S
C771 H786 0.961 . S
C771 H787 0.961 . S
C772 C773 1.370 . S
C772 C774 1.363 . S
C772 H788 0.931 . S
C773 C772 1.370 . S
C773 C777 1.408 . S
C774 C772 1.363 . S
C774 C775 1.370 . S
C774 C778 1.524 . S
C775 C767 1.503 . S
C775 C774 1.370 . S
C775 C776 1.403 . S
C776 C775 1.403 . S
C776 C777 1.404 . S
C776 C779 1.539 . S
C777 C773 1.408 . S
C777 C776 1.404 . S
C777 H789 0.930 . S
C778 C774 1.524 . S
C778 H790 0.956 . S
C778 H791 0.961 . S
C778 H792 0.961 . S
C779 C776 1.539 . S
C779 H793 0.958 . S
C779 H794 0.961 . S
C779 H795 0.960 . S
H780 C764 0.931 . S
H781 C769 0.929 . S
H782 C770 0.960 . S
H783 C770 0.962 . S
H784 C770 0.960 . S
H785 C771 0.961 . S
H786 C771 0.961 . S
H787 C771 0.961 . S
H788 C772 0.931 . S
H789 C777 0.930 . S
H790 C778 0.956 . S
H791 C778 0.961 . S
H792 C778 0.961 . S
H793 C779 0.958 . S
H794 C779 0.961 . S
H795 C779 0.960 . S
C796 C797 1.391 . S
C796 C798 1.394 . S
C796 H812 0.931 . S
C797 C796 1.391 . S
C797 C801 1.376 . S
C798 C796 1.394 . S
C798 C799 1.369 . S
C798 C802 1.531 . S
C799 C798 1.369 . S
C799 C800 1.410 . S
C799 C807 1.503 . S
C800 C799 1.410 . S
C800 C801 1.392 . S
C800 C803 1.511 . S
C801 C797 1.376 . S
C801 C800 1.392 . S
C801 H813 0.929 . S
C802 C798 1.531 . S
C802 H814 0.960 . S
C802 H815 0.962 . S
C802 H816 0.960 . S
C803 C800 1.511 . S
C803 H817 0.961 . S
C803 H818 0.961 . S
C803 H819 0.961 . S
C804 C805 1.370 . S
C804 C806 1.363 . S
C804 H820 0.931 . S
C805 C804 1.370 . S
C805 C809 1.408 . S
C806 C804 1.363 . S
C806 C807 1.370 . S
C806 C810 1.524 . S
C807 C799 1.503 . S
C807 C806 1.370 . S
C807 C808 1.403 . S
C808 C807 1.403 . S
C808 C809 1.404 . S
C808 C811 1.539 . S
C809 C805 1.408 . S
C809 C808 1.404 . S
C809 H821 0.930 . S
C810 C806 1.524 . S
C810 H822 0.956 . S
C810 H823 0.961 . S
C810 H824 0.961 . S
C811 C808 1.539 . S
C811 H825 0.958 . S
C811 H826 0.961 . S
C811 H827 0.960 . S
H812 C796 0.931 . S
H813 C801 0.929 . S
H814 C802 0.960 . S
H815 C802 0.962 . S
H816 C802 0.960 . S
H817 C803 0.961 . S
H818 C803 0.961 . S
H819 C803 0.961 . S
H820 C804 0.931 . S
H821 C809 0.930 . S
H822 C810 0.956 . S
H823 C810 0.961 . S
H824 C810 0.961 . S
H825 C811 0.958 . S
H826 C811 0.961 . S
H827 C811 0.960 . S
C828 C829 1.391 . S
C828 C830 1.394 . S
C828 H844 0.931 . S
C829 C828 1.391 . S
C829 C833 1.376 . S
C830 C828 1.394 . S
C830 C831 1.369 . S
C830 C834 1.531 . S
C831 C830 1.369 . S
C831 C832 1.410 . S
C831 C839 1.503 . S
C832 C831 1.410 . S
C832 C833 1.392 . S
C832 C835 1.511 . S
C833 C829 1.376 . S
C833 C832 1.392 . S
C833 H845 0.929 . S
C834 C830 1.531 . S
C834 H846 0.960 . S
C834 H847 0.962 . S
C834 H848 0.960 . S
C835 C832 1.511 . S
C835 H849 0.961 . S
C835 H850 0.961 . S
C835 H851 0.961 . S
C836 C837 1.370 . S
C836 C838 1.363 . S
C836 H852 0.931 . S
C837 C836 1.370 . S
C837 C841 1.408 . S
C838 C836 1.363 . S
C838 C839 1.370 . S
C838 C842 1.524 . S
C839 C831 1.503 . S
C839 C838 1.370 . S
C839 C840 1.403 . S
C840 C839 1.403 . S
C840 C841 1.404 . S
C840 C843 1.539 . S
C841 C837 1.408 . S
C841 C840 1.404 . S
C841 H853 0.930 . S
C842 C838 1.524 . S
C842 H854 0.956 . S
C842 H855 0.961 . S
C842 H856 0.961 . S
C843 C840 1.539 . S
C843 H857 0.958 . S
C843 H858 0.961 . S
C843 H859 0.960 . S
H844 C828 0.931 . S
H845 C833 0.929 . S
H846 C834 0.960 . S
H847 C834 0.962 . S
H848 C834 0.960 . S
H849 C835 0.961 . S
H850 C835 0.961 . S
H851 C835 0.961 . S
H852 C836 0.931 . S
H853 C841 0.930 . S
H854 C842 0.956 . S
H855 C842 0.961 . S
H856 C842 0.961 . S
H857 C843 0.958 . S
H858 C843 0.961 . S
H859 C843 0.960 . S
C860 C861 1.391 . S
C860 C862 1.394 . S
C860 H876 0.931 . S
C861 C860 1.391 . S
C861 C865 1.376 . S
C862 C860 1.394 . S
C862 C863 1.369 . S
C862 C866 1.531 . S
C863 C862 1.369 . S
C863 C864 1.410 . S
C863 C871 1.503 . S
C864 C863 1.410 . S
C864 C865 1.392 . S
C864 C867 1.511 . S
C865 C861 1.376 . S
C865 C864 1.392 . S
C865 H877 0.929 . S
C866 C862 1.531 . S
C866 H878 0.960 . S
C866 H879 0.962 . S
C866 H880 0.960 . S
C867 C864 1.511 . S
C867 H881 0.961 . S
C867 H882 0.961 . S
C867 H883 0.961 . S
C868 C869 1.370 . S
C868 C870 1.363 . S
C868 H884 0.931 . S
C869 C868 1.370 . S
C869 C873 1.408 . S
C870 C868 1.363 . S
C870 C871 1.370 . S
C870 C874 1.524 . S
C871 C863 1.503 . S
C871 C870 1.370 . S
C871 C872 1.403 . S
C872 C871 1.403 . S
C872 C873 1.404 . S
C872 C875 1.539 . S
C873 C869 1.408 . S
C873 C872 1.404 . S
C873 H885 0.930 . S
C874 C870 1.524 . S
C874 H886 0.956 . S
C874 H887 0.961 . S
C874 H888 0.961 . S
C875 C872 1.539 . S
C875 H889 0.958 . S
C875 H890 0.961 . S
C875 H891 0.960 . S
H876 C860 0.931 . S
H877 C865 0.929 . S
H878 C866 0.960 . S
H879 C866 0.962 . S
H880 C866 0.960 . S
H881 C867 0.961 . S
H882 C867 0.961 . S
H883 C867 0.961 . S
H884 C868 0.931 . S
H885 C873 0.930 . S
H886 C874 0.956 . S
H887 C874 0.961 . S
H888 C874 0.961 . S
H889 C875 0.958 . S
H890 C875 0.961 . S
H891 C875 0.960 . S
C892 C893 1.391 . S
C892 C894 1.394 . S
C892 H908 0.931 . S
C893 C892 1.391 . S
C893 C897 1.376 . S
C894 C892 1.394 . S
C894 C895 1.369 . S
C894 C898 1.531 . S
C895 C894 1.369 . S
C895 C896 1.410 . S
C895 C903 1.503 . S
C896 C895 1.410 . S
C896 C897 1.392 . S
C896 C899 1.511 . S
C897 C893 1.376 . S
C897 C896 1.392 . S
C897 H909 0.929 . S
C898 C894 1.531 . S
C898 H910 0.960 . S
C898 H911 0.962 . S
C898 H912 0.960 . S
C899 C896 1.511 . S
C899 H913 0.961 . S
C899 H914 0.961 . S
C899 H915 0.961 . S
C900 C901 1.370 . S
C900 C902 1.363 . S
C900 H916 0.931 . S
C901 C900 1.370 . S
C901 C905 1.408 . S
C902 C900 1.363 . S
C902 C903 1.370 . S
C902 C906 1.524 . S
C903 C895 1.503 . S
C903 C902 1.370 . S
C903 C904 1.403 . S
C904 C903 1.403 . S
C904 C905 1.404 . S
C904 C907 1.539 . S
C905 C901 1.408 . S
C905 C904 1.404 . S
C905 H917 0.930 . S
C906 C902 1.524 . S
C906 H918 0.956 . S
C906 H919 0.961 . S
C906 H920 0.961 . S
C907 C904 1.539 . S
C907 H921 0.958 . S
C907 H922 0.961 . S
C907 H923 0.960 . S
H908 C892 0.931 . S
H909 C897 0.929 . S
H910 C898 0.960 . S
H911 C898 0.962 . S
H912 C898 0.960 . S
H913 C899 0.961 . S
H914 C899 0.961 . S
H915 C899 0.961 . S
H916 C900 0.931 . S
H917 C905 0.930 . S
H918 C906 0.956 . S
H919 C906 0.961 . S
H920 C906 0.961 . S
H921 C907 0.958 . S
H922 C907 0.961 . S
H923 C907 0.960 . S
C157 C10 1.629 . S
C165 C140 1.640 . S
C189 C14 1.650 . S
C197 C153 1.641 . S
C221 C79 1.657 . S
C229 C36 1.648 . S
C253 C49 1.654 . S
C261 C101 1.637 . S
C285 C114 1.652 . S
C293 C53 1.663 . S
C317 C118 1.667 . S
C325 C75 1.646 . S
C349 C88 0.977 . S
C357 C1 0.940 . S
C381 C92 0.938 . S
C389 C23 0.991 . S
C413 C105 0.981 . S
C421 C27 0.955 . S
C445 C40 0.968 . S
C453 C127 0.997 . S
C477 C62 0.972 . S
C485 C131 0.956 . S
C509 C66 0.911 . S
C517 C144 0.936 . S
C541 C3 2.228 . S
C549 C42 2.216 . S
C573 C18 2.374 . S
C581 C57 2.398 . S
C605 C29 2.193 . S
C613 C68 2.231 . S
C637 C122 2.375 . S
C645 C83 2.403 . S
C669 C133 2.196 . S
C677 C94 2.230 . S
C701 C146 2.185 . S
C709 C107 2.232 . S
C733 C5 1.812 . S
C741 C109 1.802 . S
C765 C120 1.778 . S
C773 C16 1.789 . S
C797 C31 1.778 . S
C805 C135 1.796 . S
C829 C148 1.780 . S
C837 C44 1.789 . S
C861 C55 1.802 . S
C869 C81 1.779 . S
C893 C70 1.781 . S
C901 C96 1.790 . S
