# Generated by pormake.
# Topology reo, (8)-cn, num edge types: 1
# Building blocks:
#     Node 0, Type 0, BuildingBlock: LIZSOE_clean_sbu_0, # of connection points: 8
#     Node 1, Type 0, BuildingBlock: LIZSOE_clean_sbu_0, # of connection points: 8
#     Node 2, Type 0, BuildingBlock: LIZSOE_clean_sbu_0, # of connection points: 8
#     Edge 3, Type (0, 0), BuildingBlock: FUNLAD_clean_linker_0, # of connection points: 2
#     Edge 4, Type (0, 0), BuildingBlock: FUNLAD_clean_linker_0, # of connection points: 2
#     Edge 5, Type (0, 0), BuildingBlock: FUNLAD_clean_linker_0, # of connection points: 2
#     Edge 6, Type (0, 0), BuildingBlock: FUNLAD_clean_linker_0, # of connection points: 2
#     Edge 7, Type (0, 0), BuildingBlock: FUNLAD_clean_linker_0, # of connection points: 2
#     Edge 8, Type (0, 0), BuildingBlock: FUNLAD_clean_linker_0, # of connection points: 2
#     Edge 9, Type (0, 0), BuildingBlock: FUNLAD_clean_linker_0, # of connection points: 2
#     Edge 10, Type (0, 0), BuildingBlock: FUNLAD_clean_linker_0, # of connection points: 2
#     Edge 11, Type (0, 0), BuildingBlock: FUNLAD_clean_linker_0, # of connection points: 2
#     Edge 12, Type (0, 0), BuildingBlock: FUNLAD_clean_linker_0, # of connection points: 2
#     Edge 13, Type (0, 0), BuildingBlock: FUNLAD_clean_linker_0, # of connection points: 2
#     Edge 14, Type (0, 0), BuildingBlock: FUNLAD_clean_linker_0, # of connection points: 2
# Relax obj value: 0.281
# Max RMSD: 0.271
# Mean RMSD: 0.235
data_MOF--net-reo--node1-LIZSOE_clean_sbu_0--edge1-FUNLAD_clean_linker_0
_symmetry_space_group_name_H-M    P1
_symmetry_Int_Tables_number       1
_symmetry_cell_setting            triclinic
loop_
_symmetry_equiv_pos_as_xyz
'x, y, z'
_cell_length_a     31.739056
_cell_length_b     26.980367
_cell_length_c     22.310618
_cell_angle_alpha  92.740978
_cell_angle_beta   101.07221
_cell_angle_gamma 112.15011
loop_
_atom_site_label
_atom_site_type_symbol
_atom_site_fract_x
_atom_site_fract_y
_atom_site_fract_z
_atom_type_partial_charge
Co0 Co 0.10055 0.03721 0.48675 0.0
N1 N 0.15442 0.07197 0.45894 0.0
C2 C 0.18144 0.12523 0.46847 0.0
N3 N 0.22304 0.08492 0.43445 0.0
C4 C 0.18074 0.04829 0.43866 0.0
C5 C 0.22322 0.13328 0.45304 0.0
Co6 Co 0.94555 0.02427 0.65463 0.0
N7 N 0.88995 0.99323 0.68197 0.0
N8 N 0.82298 0.97852 0.71242 0.0
C9 C 0.84256 0.94663 0.73963 0.0
C10 C 0.88359 0.95603 0.72149 0.0
C11 C 0.85205 1.0062 0.6773 0.0
Co12 Co 0.02152 0.03008 0.56801 0.0
C13 C 0.98312 0.09982 0.63669 0.0
H14 H 0.90851 0.9389 0.73913 0.0
O15 O 0.0485 0.99896 0.50755 0.0
O16 O 0.95814 0.99824 0.50946 0.0
O17 O 0.03281 0.09886 0.52912 0.0
O18 O 0.08427 0.06226 0.62713 0.0
O19 O 0.13388 0.06889 0.56624 0.0
O20 O 0.91183 1.00108 0.57222 0.0
O21 O 0.99762 0.06038 0.63223 0.0
O22 O 0.95481 0.95917 0.65762 0.0
O23 O 0.08308 0.09638 0.47322 0.0
O24 O 0.06426 1.00338 0.4138 0.0
O25 O 0.00932 0.96082 0.6065 0.0
O26 O 0.94275 0.08844 0.65005 0.0
C27 C 0.05752 0.11834 0.4903 0.0
C28 C 0.84335 0.04688 0.63864 0.0
H29 H 0.85683 0.04713 0.59636 0.0
H30 H 0.80544 0.03804 0.62538 0.0
H31 H 0.86136 0.08765 0.66572 0.0
C32 C 0.91785 0.99146 0.51885 0.0
C33 C 0.12565 0.07626 0.61862 0.0
H34 H 0.17313 0.15589 0.4903 0.0
H35 H 0.1395 0.96907 0.45719 0.0
H36 H 0.19724 0.97799 0.4472 0.0
H37 H 0.1517 0.97211 0.38169 0.0
C38 C 0.16662 0.98834 0.43116 0.0
C39 C 0.03615 0.97947 0.44874 0.0
C40 C 0.98067 0.93781 0.63987 0.0
H41 H 0.25245 0.17168 0.45785 0.0
H42 H 0.82957 0.9209 0.77339 0.0
Co43 Co 0.51457 0.13299 0.11167 0.0
N44 N 0.52269 0.20364 0.10793 0.0
C45 C 0.55467 0.24742 0.09237 0.0
N46 N 0.49596 0.26975 0.10422 0.0
C47 C 0.48784 0.21847 0.11541 0.0
C48 C 0.53837 0.28837 0.0905 0.0
Co49 Co 0.50097 0.8886 1.02759 0.0
N50 N 0.49638 0.81975 1.0414 0.0
N51 N 0.50711 0.74221 1.03388 0.0
C52 C 0.50323 0.75323 0.09164 0.0
C53 C 0.49623 0.80039 0.09599 0.0
C54 C 0.50171 0.78268 1.00397 0.0
Co55 Co 0.50915 0.01328 0.06711 0.0
C56 C 0.54325 0.94823 0.9881 0.0
H57 H 0.49551 0.82175 0.1378 0.0
O58 O 0.50564 0.06994 0.12209 0.0
O59 O 0.55369 1.0005 0.1358 0.0
O60 O 0.56368 0.06597 1.0414 0.0
O61 O 0.46555 0.0278 0.99929 0.0
O62 O 0.48309 0.11557 1.02785 0.0
O63 O 0.54596 0.91709 0.10379 0.0
O64 O 0.5099 0.95452 1.01013 0.0
O65 O 0.45251 0.88008 0.06791 0.0
O66 O 0.57275 0.14514 0.09037 0.0
O67 O 0.54079 0.14136 0.19374 0.0
O68 O 0.45443 0.96198 0.09363 0.0
O69 O 0.5474 0.90226 0.98927 0.0
C70 C 0.58681 0.11635 0.05887 0.0
C71 C 0.50606 0.78908 0.93874 0.0
H72 H 0.54354 0.80481 0.93723 0.0
H73 H 0.48809 0.74961 0.90907 0.0
H74 H 0.49045 0.81725 0.9201 0.0
C75 C 0.56507 0.95997 0.14233 0.0
C76 C 0.46146 0.07247 0.98951 0.0
H77 H 0.58673 0.24896 0.08099 0.0
H78 H 0.41836 0.15764 0.09346 0.0
H79 H 0.43149 0.20381 0.16241 0.0
H80 H 0.45456 0.15176 0.16256 0.0
C81 C 0.44565 0.18105 0.13499 0.0
C82 C 0.51929 0.08898 0.18027 0.0
C83 C 0.43678 0.91096 0.09213 0.0
H84 H 0.5555 0.32802 0.07766 0.0
H85 H 0.50985 0.73167 0.12967 0.0
Co86 Co 0.10319 0.49848 0.07787 0.0
N87 N 0.16222 0.50617 0.11905 0.0
C88 C 0.18549 0.53041 0.17678 0.0
N89 N 0.23023 0.496 0.14107 0.0
C90 C 0.19019 0.48518 0.09864 0.0
C91 C 0.22724 0.52401 0.19049 0.0
Co92 Co 0.90449 0.5334 1.03458 0.0
N93 N 0.84792 0.53107 0.98911 0.0
N94 N 0.7863 0.55272 0.95566 0.0
C95 C 0.77054 0.49935 0.95894 0.0
C96 C 0.80816 0.48632 0.9797 0.0
C97 C 0.83356 0.57095 0.97288 0.0
Co98 Co 0.0049 0.51711 0.05788 0.0
C99 C 0.95648 0.58734 0.10279 0.0
H100 H 0.80622 0.44742 0.99223 0.0
O101 O 0.0503 0.48978 1.03279 0.0
O102 O 1.0027 0.55483 0.98155 0.0
O103 O 0.05341 0.58613 0.10276 0.0
O104 O 0.00846 0.48005 0.13466 0.0
O105 O 0.07919 0.47597 0.14776 0.0
O106 O 0.93531 0.56557 0.97278 0.0
O107 O 0.95755 0.54083 0.08407 0.0
O108 O 0.89178 0.46524 0.99438 0.0
O109 O 0.11818 0.57131 0.10708 0.0
O110 O 0.11884 0.51731 1.00605 0.0
O111 O 0.95593 0.44779 1.01233 0.0
O112 O 0.92106 0.59777 0.0768 0.0
C113 C 0.09739 0.60167 0.11737 0.0
C114 C 0.86614 0.62862 0.97423 0.0
H115 H 0.89836 0.63086 0.96035 0.0
H116 H 0.84905 0.64962 0.94275 0.0
H117 H 0.87631 0.65025 1.02158 0.0
C118 C 0.97264 0.57255 0.95481 0.0
C119 C 0.04122 0.46778 0.16502 0.0
H120 H 0.17245 0.55037 0.2074 0.0
H121 H 0.13764 0.4302 1.02299 0.0
H122 H 0.1915 0.41942 1.04095 0.0
H123 H 0.18957 0.47602 1.00282 0.0
C124 C 0.17626 0.45034 1.03795 0.0
C125 C 0.07332 0.49668 0.98896 0.0
C126 C 0.91285 0.43433 0.98805 0.0
H127 H 0.25326 0.5384 0.23351 0.0
H128 H 0.73417 0.47261 0.95266 0.0
C129 C 0.07303 0.44139 0.26414 0.0
C130 C 0.03406 0.43737 0.21868 0.0
C131 C 0.06873 0.40536 0.30787 0.0
C132 C 0.02539 0.36323 0.30654 0.0
C133 C 0.98577 0.36175 0.26399 0.0
C134 C 0.99 0.39844 0.2205 0.0
C135 C 0.02109 0.31913 0.34661 0.0
C136 C 0.05701 0.30428 0.36711 0.0
C137 C 0.05497 0.25703 0.40087 0.0
C138 C 0.0912 0.23904 0.4022 0.0
C139 C 0.09183 0.19487 0.4317 0.0
C140 C 0.05667 0.16731 0.46224 0.0
H141 H 0.99108 0.24268 0.43213 0.0
C142 C 0.02038 0.18544 0.46187 0.0
C143 C 0.01944 0.22986 0.43144 0.0
H144 H 0.99214 0.16445 0.48362 0.0
H145 H 0.10739 0.47144 0.26463 0.0
H146 H 0.09985 0.41005 0.34164 0.0
H147 H 0.95177 0.33044 0.26231 0.0
H148 H 0.9593 0.39411 0.18598 0.0
H149 H 0.98683 0.29561 0.35438 0.0
H150 H 0.08991 0.32567 0.35443 0.0
H151 H 0.11911 0.25878 0.37926 0.0
H152 H 0.11999 0.1821 0.42971 0.0
C153 C 0.83212 0.96451 0.47866 0.0
C154 C 0.87665 0.97666 0.46648 0.0
C155 C 0.79396 0.95883 0.43173 0.0
C156 C 0.79907 0.96461 0.37104 0.0
C157 C 0.8427 0.9732 0.35782 0.0
C158 C 0.88131 0.97964 0.40518 0.0
C159 C 0.75899 0.96074 0.3211 0.0
C160 C 0.72618 0.97872 0.33098 0.0
C161 C 0.68484 0.97351 0.28245 0.0
C162 C 0.66463 1.01161 0.2854 0.0
C163 C 0.62533 1.00722 0.24059 0.0
C164 C 0.60483 0.96385 0.19264 0.0
H165 H 0.67761 0.89876 0.23233 0.0
C166 C 0.62441 0.92494 0.19091 0.0
C167 C 0.66394 0.92979 0.23504 0.0
H168 H 0.60965 0.89086 0.15478 0.0
H169 H 0.82676 0.96056 0.52498 0.0
H170 H 0.76045 0.94999 0.4432 0.0
H171 H 0.8473 0.9768 0.31112 0.0
H172 H 0.91499 0.98877 0.3941 0.0
H173 H 0.75765 0.94482 0.27481 0.0
H174 H 0.73044 0.99973 0.37593 0.0
H175 H 0.67971 0.04532 0.32201 0.0
H176 H 0.61118 0.03783 0.2434 0.0
C177 C 0.03569 0.8873 0.4488 0.0
C178 C 0.01182 0.92034 0.4286 0.0
C179 C 0.02621 0.83788 0.41396 0.0
C180 C 0.99159 0.81941 0.35885 0.0
C181 C 0.96501 0.85017 0.34144 0.0
C182 C 0.97576 0.90064 0.37501 0.0
C183 C 0.98288 0.76867 0.31865 0.0
C184 C 0.01749 0.75731 0.30186 0.0
C185 C 0.00828 0.70984 0.25586 0.0
C186 C 0.03039 0.7172 0.20606 0.0
C187 C 0.0179 0.67463 0.15843 0.0
C188 C 0.98508 0.62281 0.16111 0.0
H189 H 0.95976 0.65031 0.29815 0.0
C190 C 0.966 0.61455 0.21365 0.0
C191 C 0.97696 0.65757 0.26004 0.0
H192 H 0.93906 0.57583 0.21601 0.0
H193 H 0.0647 0.90196 0.48872 0.0
H194 H 0.04681 0.81482 0.4293 0.0
H195 H 0.93783 0.8368 0.29948 0.0
H196 H 0.95785 0.92575 0.35693 0.0
H197 H 0.94682 0.7426 0.29751 0.0
H198 H 0.05332 0.78649 0.31744 0.0
H199 H 0.05479 0.75695 0.20158 0.0
H200 H 0.031 0.68332 0.11714 0.0
C201 C 0.50258 0.07751 0.28589 0.0
C202 C 0.4887 0.06184 0.22169 0.0
C203 C 0.46921 0.06454 0.32229 0.0
C204 C 0.42151 0.03529 0.29494 0.0
C205 C 0.40828 0.01723 0.2318 0.0
C206 C 0.44112 0.03125 0.19559 0.0
C207 C 0.38363 0.02691 0.32835 0.0
C208 C 0.38353 0.06638 0.36758 0.0
C209 C 0.34097 0.06553 0.38757 0.0
C210 C 0.34656 0.10155 0.43887 0.0
C211 C 0.3078 0.10665 0.45509 0.0
C212 C 0.26237 0.07601 0.42026 0.0
H213 H 0.28912 1.00727 0.31199 0.0
C214 C 0.25648 0.03937 0.36945 0.0
C215 C 0.29526 0.03413 0.35318 0.0
H216 H 0.22206 0.01641 0.34076 0.0
H217 H 0.53869 0.10263 0.30724 0.0
H218 H 0.48046 0.0789 0.37116 0.0
H219 H 0.3717 0.99621 0.20942 0.0
H220 H 0.42815 0.02281 0.14624 0.0
H221 H 0.3523 0.99031 0.313 0.0
H222 H 0.41513 0.10289 0.38235 0.0
H223 H 0.38116 0.12668 0.46587 0.0
H224 H 0.31337 0.13515 0.49459 0.0
C225 C 0.01663 0.87128 0.67463 0.0
C226 C 0.97776 0.88556 0.66205 0.0
C227 C 0.01432 0.82533 0.70387 0.0
C228 C 0.97284 0.79257 0.72064 0.0
C229 C 0.9337 0.80589 0.70511 0.0
C230 C 0.93612 0.85153 0.6766 0.0
C231 C 0.96776 0.74487 0.7551 0.0
C232 C 1.00244 0.72968 0.78135 0.0
C233 C 0.99497 0.68434 0.82035 0.0
C234 C 0.03329 0.68233 0.86274 0.0
C235 C 0.02683 0.64364 0.90404 0.0
C236 C 0.98178 0.60618 0.90401 0.0
H237 H 0.91996 0.64164 0.7841 0.0
C238 C 0.94391 0.60607 0.85927 0.0
C239 C 0.95039 0.64399 0.81761 0.0
H240 H 0.90878 0.57729 0.85748 0.0
H241 H 0.0493 0.8967 0.6641 0.0
H242 H 0.04518 0.81635 0.71385 0.0
H243 H 0.90102 0.78151 0.71645 0.0
H244 H 0.90526 0.86069 0.66688 0.0
H245 H 0.933 0.72293 0.76212 0.0
H246 H 0.03797 0.75307 0.77798 0.0
H247 H 0.06818 0.71213 0.86563 0.0
H248 H 0.05672 0.64502 0.93815 0.0
C249 C 0.41981 0.1221 0.92789 0.0
C250 C 0.42472 0.0732 0.93771 0.0
C251 C 0.38014 0.12248 0.88844 0.0
C252 C 0.34447 0.07391 0.85703 0.0
C253 C 0.35042 0.02532 0.86444 0.0
C254 C 0.39017 0.0249 0.90417 0.0
C255 C 0.29959 0.0719 0.81932 0.0
C256 C 0.2938 0.11497 0.79682 0.0
C257 C 0.24912 0.11069 0.75703 0.0
C258 C 0.25043 0.14033 0.70703 0.0
C259 C 0.20938 0.13206 0.66408 0.0
C260 C 0.16614 0.09511 0.67139 0.0
H261 H 0.20348 0.05421 0.80595 0.0
C262 C 0.16427 0.06897 0.72431 0.0
C263 C 0.20556 0.07641 0.7667 0.0
H264 H 0.13137 0.03997 0.73065 0.0
H265 H 0.44558 0.16016 0.95309 0.0
H266 H 0.37691 0.1608 0.88531 0.0
H267 H 0.32357 0.98728 0.84077 0.0
H268 H 0.39261 0.98649 0.91086 0.0
H269 H 0.27048 0.03276 0.80788 0.0
H270 H 0.3234 0.15326 0.80246 0.0
H271 H 0.28351 0.16754 0.69914 0.0
H272 H 0.21165 0.1526 0.62351 0.0
C273 C 0.07821 0.46301 0.88397 0.0
C274 C 0.05401 0.45623 0.93188 0.0
C275 C 0.0706 0.41896 0.84064 0.0
C276 C 0.03875 0.3667 0.84438 0.0
C277 C 0.01245 0.36075 0.88966 0.0
C278 C 0.0197 0.40471 0.93242 0.0
C279 C 0.03519 0.31679 0.80689 0.0
C280 C 0.04602 0.31483 0.7512 0.0
C281 C 0.03948 0.26265 0.71597 0.0
C282 C 0.01423 0.2483 0.65435 0.0
C283 C 1.0011 0.19608 0.62389 0.0
C284 C 0.01477 0.15768 0.65314 0.0
H285 H 0.07619 0.23585 0.79104 0.0
C286 C 0.04438 0.17416 0.71246 0.0
C287 C 0.05601 0.22572 0.74389 0.0
H288 H 0.05417 0.14517 0.7373 0.0
H289 H 0.1055 0.50173 0.88259 0.0
H290 H 0.09195 0.42542 0.80702 0.0
H291 H 0.98762 0.32119 0.89398 0.0
H292 H 1.00125 0.39691 0.96922 0.0
H293 H 0.02138 0.27895 0.82563 0.0
H294 H 0.05563 0.35085 0.72845 0.0
H295 H 1.0012 0.27591 0.63148 0.0
H296 H 0.97645 0.18413 0.5797 0.0
C297 C 0.56396 0.99361 0.89817 0.0
C298 C 0.57669 0.9893 0.96089 0.0
C299 C 0.59815 1.01167 0.86368 0.0
C300 C 0.64554 0.02575 0.89167 0.0
C301 C 0.6584 0.02631 0.95557 0.0
C302 C 0.62424 1.00765 0.98974 0.0
C303 C 0.68165 0.03446 0.8551 0.0
C304 C 0.67318 1.00242 0.80215 0.0
C305 C 0.71093 0.99917 0.77362 0.0
C306 C 0.70504 0.94897 0.74429 0.0
C307 C 0.7414 0.94266 0.72242 0.0
C308 C 0.78388 0.98676 0.72777 0.0
H309 H 0.75852 0.08331 0.79867 0.0
C310 C 0.78922 0.03763 0.75441 0.0
C311 C 0.75311 0.04384 0.77735 0.0
H312 H 0.82203 0.072 0.75975 0.0
H313 H 0.52744 0.97814 0.87461 0.0
H314 H 0.58731 1.01173 0.81461 0.0
H315 H 0.69467 0.03734 0.97831 0.0
H316 H 0.63476 1.00332 1.03772 0.0
H317 H 0.71735 0.06105 0.87723 0.0
H318 H 0.63816 0.97196 0.78391 0.0
H319 H 0.67291 0.91393 0.74062 0.0
H320 H 0.73683 0.90309 0.70241 0.0
C321 C 0.27809 0.44512 0.17703 0.0
C322 C 0.26745 0.47909 0.13657 0.0
C323 C 0.31302 0.42677 0.17116 0.0
C324 C 0.33851 0.44306 0.12543 0.0
C325 C 0.3289 0.47863 0.08642 0.0
C326 C 0.29311 0.49588 0.09135 0.0
C327 C 0.37501 0.42304 0.11777 0.0
C328 C 0.36789 0.3708 0.11963 0.0
C329 C 0.40251 0.34822 0.11051 0.0
C330 C 0.38622 0.29546 0.08045 0.0
C331 C 0.41721 0.27084 0.07571 0.0
C332 C 0.46502 0.29763 0.10315 0.0
H333 H 0.46429 0.41716 0.15865 0.0
C334 C 0.48178 0.3513 0.1311 0.0
C335 C 0.45077 0.37653 0.1347 0.0
H336 H 0.51855 0.37291 0.15209 0.0
H337 H 0.25864 0.43203 0.21228 0.0
H338 H 0.3203 0.40012 0.20259 0.0
H339 H 0.34828 0.49197 0.05113 0.0
H340 H 0.28545 0.52246 0.06013 0.0
H341 H 0.40657 0.45063 0.10616 0.0
H342 H 0.33411 0.34254 0.12479 0.0
H343 H 0.34928 0.27305 0.06083 0.0
H344 H 0.40362 0.23044 0.0513 0.0
C345 C 0.15939 0.66937 0.19894 0.0
C346 C 0.12584 0.65769 0.14369 0.0
C347 C 0.19352 0.72147 0.2171 0.0
C348 C 0.19546 0.76181 0.17862 0.0
C349 C 0.15853 0.75128 0.12718 0.0
C350 C 0.12393 0.69935 0.10964 0.0
C351 C 0.23892 0.81021 0.18283 0.0
C352 C 0.28112 0.8082 0.20207 0.0
C353 C 0.32294 0.84 0.17923 0.0
C354 C 0.35836 0.82023 0.18322 0.0
C355 C 0.39519 0.84318 0.15456 0.0
C356 C 0.39775 0.88695 0.12201 0.0
H357 H 0.30059 0.90251 0.14472 0.0
C358 C 0.36333 0.908 0.11932 0.0
C359 C 0.32636 0.88505 0.14803 0.0
H360 H 0.36451 0.94161 0.09405 0.0
H361 H 0.16057 0.63766 0.22638 0.0
H362 H 0.22005 0.72887 0.25885 0.0
H363 H 0.15881 0.78178 0.09719 0.0
H364 H 0.09804 0.69082 0.06684 0.0
H365 H 0.23558 0.8419 0.15671 0.0
H366 H 0.28353 0.77493 0.22595 0.0
H367 H 0.35675 0.78558 0.2068 0.0
H368 H 0.42166 0.82663 0.15785 0.0
C369 C 0.63503 0.13432 0.98071 0.0
C370 C 0.63172 0.14192 1.04193 0.0
C371 C 0.67824 0.15637 0.96491 0.0
C372 C 0.71885 0.18652 1.01038 0.0
C373 C 0.71517 0.19376 0.07171 0.0
C374 C 0.67191 0.17209 0.08728 0.0
C375 C 0.76521 0.21409 0.99602 0.0
C376 C 0.77111 0.22822 0.94015 0.0
C377 C 0.81342 0.27461 0.93525 0.0
C378 C 0.80723 0.31581 0.9035 0.0
C379 C 0.84218 0.36768 0.91589 0.0
C380 C 0.88406 0.37854 0.95919 0.0
H381 H 0.86364 0.25196 0.99538 0.0
C382 C 0.89303 0.33552 0.98344 0.0
C383 C 0.85771 0.28367 0.97169 0.0
H384 H 0.92529 0.34281 1.01644 0.0
H385 H 0.60413 0.11127 0.94512 0.0
H386 H 0.67948 0.14906 0.91734 0.0
H387 H 0.74578 0.21708 0.10765 0.0
H388 H 0.66995 0.1781 0.13488 0.0
H389 H 0.79481 0.23118 1.03533 0.0
H390 H 0.74141 0.21541 0.90113 0.0
H391 H 0.77357 0.30952 0.87454 0.0
H392 H 0.83487 0.40016 0.89574 0.0
C393 C 0.71375 0.56469 0.91142 0.0
C394 C 0.75755 0.58341 0.95293 0.0
C395 C 0.68279 0.58991 0.9148 0.0
C396 C 0.69538 0.63442 0.95981 0.0
C397 C 0.73972 0.65413 0.99966 0.0
C398 C 0.77007 0.62838 0.99706 0.0
C399 C 0.6632 0.6605 0.96903 0.0
C400 C 0.6165 0.63409 0.95875 0.0
C401 C 0.58698 0.6596 0.98004 0.0
C402 C 0.54102 0.64631 0.94666 0.0
C403 C 0.51375 0.67199 0.96527 0.0
C404 C 0.53202 0.71074 1.01784 0.0
H405 H 0.63851 0.70581 0.06302 0.0
C406 C 0.57695 0.72181 0.05289 0.0
C407 C 0.60408 0.69639 1.03447 0.0
H408 H 0.59156 0.75146 0.09373 0.0
H409 H 0.70315 0.52972 0.87744 0.0
H410 H 0.64914 0.57432 0.88261 0.0
H411 H 0.75009 0.68808 1.03508 0.0
H412 H 0.8023 0.64216 1.03181 0.0
H413 H 0.67928 0.70223 0.99067 0.0
H414 H 0.59957 0.59272 0.93614 0.0
H415 H 0.52671 0.61716 0.90538 0.0
H416 H 0.47878 0.6623 0.93832 0.0
loop_
_geom_bond_atom_site_label_1
_geom_bond_atom_site_label_2
_geom_bond_distance
_geom_bond_site_symmetry_2
_ccdc_geom_bond_type
Co0 N1 2.034 . S
Co0 O15 2.262 1_545 S
Co0 O19 1.958 . S
Co0 O23 1.950 . S
Co0 O24 2.057 1_545 S
N1 Co0 2.034 . S
N1 C2 1.366 . S
N1 C4 1.332 . S
C2 N1 1.366 . S
C2 C5 1.377 . S
C2 H34 0.931 . S
N3 C4 1.346 . S
N3 C5 1.337 . S
C4 N1 1.332 . S
C4 N3 1.346 . S
C4 C38 1.361 . S
C5 C2 1.377 . S
C5 N3 1.337 . S
C5 H41 0.930 . S
Co6 N7 2.034 . S
Co6 O20 1.950 . S
Co6 O21 2.262 1_565 S
Co6 O22 1.958 . S
Co6 O26 2.057 1_565 S
N7 Co6 2.034 . S
N7 C10 1.366 . S
N7 C11 1.332 . S
N8 C9 1.337 . S
N8 C11 1.346 . S
C9 N8 1.337 . S
C9 C10 1.377 . S
C9 H42 0.930 . S
C10 N7 1.366 . S
C10 C9 1.377 . S
C10 H14 0.931 . S
C11 N7 1.332 . S
C11 N8 1.346 . S
C11 C28 1.361 1_565 S
Co12 O15 2.097 1_545 S
Co12 O16 2.065 1_445 S
Co12 O17 2.065 . S
Co12 O18 2.042 . S
Co12 O21 2.097 1_455 S
Co12 O25 2.042 1_445 S
C13 O21 1.253 . S
C13 O26 1.263 . S
H14 C10 0.931 . S
O15 Co0 2.262 1_565 S
O15 Co12 2.097 1_565 S
O15 C39 1.253 . S
O16 Co12 2.065 1_665 S
O16 C32 1.221 . S
O17 Co12 2.065 . S
O17 C27 1.221 . S
O18 Co12 2.042 . S
O18 C33 1.237 . S
O19 Co0 1.958 . S
O19 C33 1.278 . S
O20 Co6 1.950 . S
O20 C32 1.277 . S
O21 Co6 2.262 1_545 S
O21 Co12 2.097 1_655 S
O21 C13 1.253 . S
O22 Co6 1.958 . S
O22 C40 1.278 . S
O23 Co0 1.950 . S
O23 C27 1.277 . S
O24 Co0 2.057 1_565 S
O24 C39 1.263 . S
O25 Co12 2.042 1_665 S
O25 C40 1.237 . S
O26 Co6 2.057 1_545 S
O26 C13 1.263 . S
C27 O17 1.221 . S
C27 O23 1.277 . S
C28 C11 1.361 1_545 S
C28 H29 0.960 . S
C28 H30 0.961 . S
C28 H31 0.961 . S
H29 C28 0.960 . S
H30 C28 0.961 . S
H31 C28 0.961 . S
C32 O16 1.221 . S
C32 O20 1.277 . S
C33 O18 1.237 . S
C33 O19 1.278 . S
H34 C2 0.931 . S
H35 C38 0.961 . S
H36 C38 0.961 . S
H37 C38 0.960 . S
C38 C4 1.361 . S
C38 H35 0.961 . S
C38 H36 0.961 . S
C38 H37 0.960 . S
C39 O15 1.253 . S
C39 O24 1.263 . S
C40 O22 1.278 . S
C40 O25 1.237 . S
H41 C5 0.930 . S
H42 C9 0.930 . S
Co43 N44 2.034 1_554 S
Co43 O58 2.262 . S
Co43 O62 1.958 1_554 S
Co43 O66 1.950 . S
Co43 O67 2.057 . S
N44 Co43 2.034 1_556 S
N44 C45 1.366 . S
N44 C47 1.332 1_556 S
C45 N44 1.366 . S
C45 C48 1.377 . S
C45 H77 0.931 . S
N46 C47 1.346 . S
N46 C48 1.337 1_554 S
C47 N44 1.332 1_554 S
C47 N46 1.346 . S
C47 C81 1.361 . S
C48 C45 1.377 . S
C48 N46 1.337 1_556 S
C48 H84 0.930 . S
Co49 N50 2.034 . S
Co49 O63 1.950 . S
Co49 O64 2.262 1_554 S
Co49 O65 1.958 1_554 S
Co49 O69 2.057 1_554 S
N50 Co49 2.034 . S
N50 C53 1.366 . S
N50 C54 1.332 . S
N51 C52 1.337 . S
N51 C54 1.346 . S
C52 N51 1.337 . S
C52 C53 1.377 . S
C52 H85 0.930 . S
C53 N50 1.366 . S
C53 C52 1.377 . S
C53 H57 0.931 . S
C54 N50 1.332 . S
C54 N51 1.346 . S
C54 C71 1.361 . S
Co55 O58 2.097 . S
Co55 O59 2.065 . S
Co55 O60 2.065 . S
Co55 O61 2.042 1_554 S
Co55 O64 2.097 1_544 S
Co55 O68 2.042 1_545 S
C56 O64 1.253 . S
C56 O69 1.263 . S
H57 C53 0.931 . S
O58 Co43 2.262 . S
O58 Co55 2.097 . S
O58 C82 1.253 . S
O59 Co55 2.065 . S
O59 C75 1.221 1_545 S
O60 Co55 2.065 . S
O60 C70 1.221 . S
O61 Co55 2.042 1_556 S
O61 C76 1.237 . S
O62 Co43 1.958 1_556 S
O62 C76 1.278 . S
O63 Co49 1.950 . S
O63 C75 1.277 . S
O64 Co49 2.262 1_556 S
O64 Co55 2.097 1_566 S
O64 C56 1.253 . S
O65 Co49 1.958 1_556 S
O65 C83 1.278 1_556 S
O66 Co43 1.950 . S
O66 C70 1.277 . S
O67 Co43 2.057 . S
O67 C82 1.263 . S
O68 Co55 2.042 1_565 S
O68 C83 1.237 . S
O69 Co49 2.057 1_556 S
O69 C56 1.263 . S
C70 O60 1.221 . S
C70 O66 1.277 . S
C71 C54 1.361 . S
C71 H72 0.960 . S
C71 H73 0.961 . S
C71 H74 0.961 . S
H72 C71 0.960 . S
H73 C71 0.961 . S
H74 C71 0.961 . S
C75 O59 1.221 1_565 S
C75 O63 1.277 . S
C76 O61 1.237 . S
C76 O62 1.278 . S
H77 C45 0.931 . S
H78 C81 0.961 . S
H79 C81 0.961 . S
H80 C81 0.960 . S
C81 C47 1.361 . S
C81 H78 0.961 . S
C81 H79 0.961 . S
C81 H80 0.960 . S
C82 O58 1.253 . S
C82 O67 1.263 . S
C83 O65 1.278 1_554 S
C83 O68 1.237 . S
H84 C48 0.930 . S
H85 C52 0.930 . S
Co86 N87 2.034 . S
Co86 O101 2.262 1_554 S
Co86 O105 1.958 . S
Co86 O109 1.950 . S
Co86 O110 2.057 1_554 S
N87 Co86 2.034 . S
N87 C88 1.366 . S
N87 C90 1.332 . S
C88 N87 1.366 . S
C88 C91 1.377 . S
C88 H120 0.931 . S
N89 C90 1.346 . S
N89 C91 1.337 . S
C90 N87 1.332 . S
C90 N89 1.346 . S
C90 C124 1.361 1_554 S
C91 C88 1.377 . S
C91 N89 1.337 . S
C91 H127 0.930 . S
Co92 N93 2.034 1_554 S
Co92 O106 1.950 1_554 S
Co92 O107 2.262 . S
Co92 O108 1.958 . S
Co92 O112 2.057 . S
N93 Co92 2.034 1_556 S
N93 C96 1.366 . S
N93 C97 1.332 . S
N94 C95 1.337 . S
N94 C97 1.346 . S
C95 N94 1.337 . S
C95 C96 1.377 . S
C95 H128 0.930 . S
C96 N93 1.366 . S
C96 C95 1.377 . S
C96 H100 0.931 . S
C97 N93 1.332 . S
C97 N94 1.346 . S
C97 C114 1.361 . S
Co98 O101 2.097 1_554 S
Co98 O102 2.065 1_454 S
Co98 O103 2.065 . S
Co98 O104 2.042 . S
Co98 O107 2.097 1_455 S
Co98 O111 2.042 1_454 S
C99 O107 1.253 . S
C99 O112 1.263 . S
H100 C96 0.931 . S
O101 Co86 2.262 1_556 S
O101 Co98 2.097 1_556 S
O101 C125 1.253 . S
O102 Co98 2.065 1_656 S
O102 C118 1.221 . S
O103 Co98 2.065 . S
O103 C113 1.221 . S
O104 Co98 2.042 . S
O104 C119 1.237 . S
O105 Co86 1.958 . S
O105 C119 1.278 . S
O106 Co92 1.950 1_556 S
O106 C118 1.277 . S
O107 Co92 2.262 . S
O107 Co98 2.097 1_655 S
O107 C99 1.253 . S
O108 Co92 1.958 . S
O108 C126 1.278 . S
O109 Co86 1.950 . S
O109 C113 1.277 . S
O110 Co86 2.057 1_556 S
O110 C125 1.263 . S
O111 Co98 2.042 1_656 S
O111 C126 1.235 1_556 S
O112 Co92 2.057 . S
O112 C99 1.263 . S
C113 O103 1.221 . S
C113 O109 1.277 . S
C114 C97 1.361 . S
C114 H115 0.960 . S
C114 H116 0.961 . S
C114 H117 0.961 1_556 S
H115 C114 0.960 . S
H116 C114 0.961 . S
H117 C114 0.961 1_554 S
C118 O102 1.221 . S
C118 O106 1.277 . S
C119 O104 1.237 . S
C119 O105 1.278 . S
H120 C88 0.931 . S
H121 C124 0.961 . S
H122 C124 0.961 . S
H123 C124 0.960 . S
C124 C90 1.361 1_556 S
C124 H121 0.961 . S
C124 H122 0.961 . S
C124 H123 0.960 . S
C125 O101 1.253 . S
C125 O110 1.263 . S
C126 O108 1.278 . S
C126 O111 1.235 1_554 S
H127 C91 0.930 . S
H128 C95 0.930 . S
C129 C130 1.386 . S
C129 C131 1.383 . S
C129 H145 0.951 . S
C130 C129 1.386 . S
C130 C134 1.383 . S
C131 C129 1.383 . S
C131 C132 1.402 . S
C131 H146 0.951 . S
C132 C131 1.402 . S
C132 C133 1.375 . S
C132 C135 1.481 . S
C133 C132 1.375 . S
C133 C134 1.367 . S
C133 H147 0.951 . S
C134 C130 1.383 . S
C134 C133 1.367 . S
C134 H148 0.950 . S
C135 C132 1.481 . S
C135 C136 1.297 . S
C135 H149 0.950 . S
C136 C135 1.297 . S
C136 C137 1.479 . S
C136 H150 0.950 . S
C137 C136 1.479 . S
C137 C138 1.375 . S
C137 C143 1.404 . S
C138 C137 1.375 . S
C138 C139 1.369 . S
C138 H151 0.950 . S
C139 C138 1.369 . S
C139 C140 1.392 . S
C139 H152 0.951 . S
C140 C139 1.392 . S
C140 C142 1.384 . S
H141 C143 0.949 . S
C142 C140 1.384 . S
C142 C143 1.385 . S
C142 H144 0.950 . S
C143 C137 1.404 . S
C143 H141 0.949 . S
C143 C142 1.385 . S
H144 C142 0.950 . S
H145 C129 0.951 . S
H146 C131 0.951 . S
H147 C133 0.951 . S
H148 C134 0.950 . S
H149 C135 0.950 . S
H150 C136 0.950 . S
H151 C138 0.950 . S
H152 C139 0.951 . S
C153 C154 1.386 . S
C153 C155 1.383 . S
C153 H169 0.951 . S
C154 C153 1.386 . S
C154 C158 1.383 1_565 S
C155 C153 1.383 . S
C155 C156 1.402 1_565 S
C155 H170 0.951 . S
C156 C155 1.402 1_545 S
C156 C157 1.375 . S
C156 C159 1.481 . S
C157 C156 1.375 . S
C157 C158 1.367 . S
C157 H171 0.951 . S
C158 C154 1.383 1_545 S
C158 C157 1.367 . S
C158 H172 0.950 . S
C159 C156 1.481 . S
C159 C160 1.297 1_545 S
C159 H173 0.950 . S
C160 C159 1.297 1_565 S
C160 C161 1.479 . S
C160 H174 0.950 . S
C161 C160 1.479 . S
C161 C162 1.375 . S
C161 C167 1.404 1_565 S
C162 C161 1.375 . S
C162 C163 1.369 . S
C162 H175 0.950 . S
C163 C162 1.369 . S
C163 C164 1.392 1_565 S
C163 H176 0.951 . S
C164 C163 1.392 1_545 S
C164 C166 1.384 . S
H165 C167 0.949 . S
C166 C164 1.384 . S
C166 C167 1.385 . S
C166 H168 0.950 . S
C167 C161 1.404 1_545 S
C167 H165 0.949 . S
C167 C166 1.385 . S
H168 C166 0.950 . S
H169 C153 0.951 . S
H170 C155 0.951 . S
H171 C157 0.951 . S
H172 C158 0.950 . S
H173 C159 0.950 . S
H174 C160 0.950 . S
H175 C162 0.950 . S
H176 C163 0.951 . S
C177 C178 1.386 1_455 S
C177 C179 1.383 . S
C177 H193 0.951 . S
C178 C177 1.386 1_655 S
C178 C182 1.383 . S
C179 C177 1.383 . S
C179 C180 1.402 1_455 S
C179 H194 0.951 . S
C180 C179 1.402 1_655 S
C180 C181 1.375 . S
C180 C183 1.481 . S
C181 C180 1.375 . S
C181 C182 1.367 . S
C181 H195 0.951 . S
C182 C178 1.383 . S
C182 C181 1.367 . S
C182 H196 0.950 . S
C183 C180 1.481 . S
C183 C184 1.297 1_655 S
C183 H197 0.950 . S
C184 C183 1.297 1_455 S
C184 C185 1.479 . S
C184 H198 0.950 . S
C185 C184 1.479 . S
C185 C186 1.375 . S
C185 C191 1.404 1_455 S
C186 C185 1.375 . S
C186 C187 1.369 . S
C186 H199 0.950 . S
C187 C186 1.369 . S
C187 C188 1.392 . S
C187 H200 0.951 . S
C188 C187 1.392 . S
C188 C190 1.384 1_455 S
H189 C191 0.949 . S
C190 C188 1.384 1_655 S
C190 C191 1.385 . S
C190 H192 0.950 . S
C191 C185 1.404 1_655 S
C191 H189 0.949 . S
C191 C190 1.385 . S
H192 C190 0.950 . S
H193 C177 0.951 . S
H194 C179 0.951 . S
H195 C181 0.951 . S
H196 C182 0.950 . S
H197 C183 0.950 . S
H198 C184 0.950 . S
H199 C186 0.950 . S
H200 C187 0.951 . S
C201 C202 1.386 . S
C201 C203 1.383 . S
C201 H217 0.951 . S
C202 C201 1.386 . S
C202 C206 1.383 . S
C203 C201 1.383 . S
C203 C204 1.402 . S
C203 H218 0.951 . S
C204 C203 1.402 . S
C204 C205 1.375 . S
C204 C207 1.481 . S
C205 C204 1.375 . S
C205 C206 1.367 . S
C205 H219 0.951 . S
C206 C202 1.383 . S
C206 C205 1.367 . S
C206 H220 0.950 . S
C207 C204 1.481 . S
C207 C208 1.297 . S
C207 H221 0.950 . S
C208 C207 1.297 . S
C208 C209 1.479 . S
C208 H222 0.950 . S
C209 C208 1.479 . S
C209 C210 1.375 . S
C209 C215 1.404 . S
C210 C209 1.375 . S
C210 C211 1.369 . S
C210 H223 0.950 . S
C211 C210 1.369 . S
C211 C212 1.392 . S
C211 H224 0.951 . S
C212 C211 1.392 . S
C212 C214 1.384 . S
H213 C215 0.949 . S
C214 C212 1.384 . S
C214 C215 1.385 . S
C214 H216 0.950 . S
C215 C209 1.404 . S
C215 H213 0.949 . S
C215 C214 1.385 . S
H216 C214 0.950 . S
H217 C201 0.951 . S
H218 C203 0.951 . S
H219 C205 0.951 . S
H220 C206 0.950 . S
H221 C207 0.950 . S
H222 C208 0.950 . S
H223 C210 0.950 . S
H224 C211 0.951 . S
C225 C226 1.386 1_455 S
C225 C227 1.383 . S
C225 H241 0.951 . S
C226 C225 1.386 1_655 S
C226 C230 1.383 . S
C227 C225 1.383 . S
C227 C228 1.402 1_455 S
C227 H242 0.951 . S
C228 C227 1.402 1_655 S
C228 C229 1.375 . S
C228 C231 1.481 . S
C229 C228 1.375 . S
C229 C230 1.367 . S
C229 H243 0.951 . S
C230 C226 1.383 . S
C230 C229 1.367 . S
C230 H244 0.950 . S
C231 C228 1.481 . S
C231 C232 1.297 . S
C231 H245 0.950 . S
C232 C231 1.297 . S
C232 C233 1.479 . S
C232 H246 0.950 1_655 S
C233 C232 1.479 . S
C233 C234 1.375 1_655 S
C233 C239 1.404 . S
C234 C233 1.375 1_455 S
C234 C235 1.369 . S
C234 H247 0.950 . S
C235 C234 1.369 . S
C235 C236 1.392 1_455 S
C235 H248 0.951 . S
C236 C235 1.392 1_655 S
C236 C238 1.384 . S
H237 C239 0.949 . S
C238 C236 1.384 . S
C238 C239 1.385 . S
C238 H240 0.950 . S
C239 C233 1.404 . S
C239 H237 0.949 . S
C239 C238 1.385 . S
H240 C238 0.950 . S
H241 C225 0.951 . S
H242 C227 0.951 . S
H243 C229 0.951 . S
H244 C230 0.950 . S
H245 C231 0.950 . S
H246 C232 0.950 1_455 S
H247 C234 0.950 . S
H248 C235 0.951 . S
C249 C250 1.386 . S
C249 C251 1.383 . S
C249 H265 0.951 . S
C250 C249 1.386 . S
C250 C254 1.383 1_545 S
C251 C249 1.383 . S
C251 C252 1.402 . S
C251 H266 0.951 . S
C252 C251 1.402 . S
C252 C253 1.375 1_545 S
C252 C255 1.481 1_545 S
C253 C252 1.375 1_565 S
C253 C254 1.367 . S
C253 H267 0.951 . S
C254 C250 1.383 1_565 S
C254 C253 1.367 . S
C254 H268 0.950 . S
C255 C252 1.481 1_565 S
C255 C256 1.297 1_565 S
C255 H269 0.950 . S
C256 C255 1.297 1_545 S
C256 C257 1.479 . S
C256 H270 0.950 . S
C257 C256 1.479 . S
C257 C258 1.375 . S
C257 C263 1.404 1_545 S
C258 C257 1.375 . S
C258 C259 1.369 . S
C258 H271 0.950 . S
C259 C258 1.369 . S
C259 C260 1.392 . S
C259 H272 0.951 . S
C260 C259 1.392 . S
C260 C262 1.384 1_545 S
H261 C263 0.949 . S
C262 C260 1.384 1_565 S
C262 C263 1.385 . S
C262 H264 0.950 . S
C263 C257 1.404 1_565 S
C263 H261 0.949 . S
C263 C262 1.385 . S
H264 C262 0.950 . S
H265 C249 0.951 . S
H266 C251 0.951 . S
H267 C253 0.951 . S
H268 C254 0.950 . S
H269 C255 0.950 . S
H270 C256 0.950 . S
H271 C258 0.950 . S
H272 C259 0.951 . S
C273 C274 1.386 1_655 S
C273 C275 1.383 1_655 S
C273 H289 0.951 . S
C274 C273 1.386 1_455 S
C274 C278 1.383 . S
C275 C273 1.383 1_455 S
C275 C276 1.402 . S
C275 H290 0.951 1_455 S
C276 C275 1.402 . S
C276 C277 1.375 . S
C276 C279 1.481 . S
C277 C276 1.375 . S
C277 C278 1.367 . S
C277 H291 0.951 . S
C278 C274 1.383 . S
C278 C277 1.367 . S
C278 H292 0.950 . S
C279 C276 1.481 . S
C279 C280 1.297 . S
C279 H293 0.950 . S
C280 C279 1.297 . S
C280 C281 1.479 . S
C280 H294 0.950 . S
C281 C280 1.479 . S
C281 C282 1.375 . S
C281 C287 1.404 . S
C282 C281 1.375 . S
C282 C283 1.369 1_455 S
C282 H295 0.950 1_455 S
C283 C282 1.369 1_655 S
C283 C284 1.392 1_655 S
C283 H296 0.951 . S
C284 C283 1.392 1_455 S
C284 C286 1.384 . S
H285 C287 0.949 . S
C286 C284 1.384 . S
C286 C287 1.385 . S
C286 H288 0.950 . S
C287 C281 1.404 . S
C287 H285 0.949 . S
C287 C286 1.385 . S
H288 C286 0.950 . S
H289 C273 0.951 . S
H290 C275 0.951 1_655 S
H291 C277 0.951 . S
H292 C278 0.950 . S
H293 C279 0.950 . S
H294 C280 0.950 . S
H295 C282 0.950 1_655 S
H296 C283 0.951 . S
C297 C298 1.386 . S
C297 C299 1.383 . S
C297 H313 0.951 . S
C298 C297 1.386 . S
C298 C302 1.383 1_565 S
C299 C297 1.383 . S
C299 C300 1.402 . S
C299 H314 0.951 . S
C300 C299 1.402 . S
C300 C301 1.375 1_565 S
C300 C303 1.481 1_565 S
C301 C300 1.375 1_545 S
C301 C302 1.367 . S
C301 H315 0.951 . S
C302 C298 1.383 1_545 S
C302 C301 1.367 . S
C302 H316 0.950 . S
C303 C300 1.481 1_545 S
C303 C304 1.297 1_545 S
C303 H317 0.950 . S
C304 C303 1.297 1_565 S
C304 C305 1.479 . S
C304 H318 0.950 . S
C305 C304 1.479 . S
C305 C306 1.375 . S
C305 C311 1.404 1_565 S
C306 C305 1.375 . S
C306 C307 1.369 . S
C306 H319 0.950 . S
C307 C306 1.369 . S
C307 C308 1.392 . S
C307 H320 0.951 . S
C308 C307 1.392 . S
C308 C310 1.384 1_565 S
H309 C311 0.949 . S
C310 C308 1.384 1_545 S
C310 C311 1.385 . S
C310 H312 0.950 . S
C311 C305 1.404 1_545 S
C311 H309 0.949 . S
C311 C310 1.385 . S
H312 C310 0.950 . S
H313 C297 0.951 . S
H314 C299 0.951 . S
H315 C301 0.951 . S
H316 C302 0.950 . S
H317 C303 0.950 . S
H318 C304 0.950 . S
H319 C306 0.950 . S
H320 C307 0.951 . S
C321 C322 1.386 . S
C321 C323 1.383 . S
C321 H337 0.951 . S
C322 C321 1.386 . S
C322 C326 1.383 1_554 S
C323 C321 1.383 . S
C323 C324 1.402 . S
C323 H338 0.951 . S
C324 C323 1.402 . S
C324 C325 1.375 1_554 S
C324 C327 1.481 1_554 S
C325 C324 1.375 1_556 S
C325 C326 1.367 . S
C325 H339 0.951 . S
C326 C322 1.383 1_556 S
C326 C325 1.367 . S
C326 H340 0.950 . S
C327 C324 1.481 1_556 S
C327 C328 1.297 1_556 S
C327 H341 0.950 . S
C328 C327 1.297 1_554 S
C328 C329 1.479 . S
C328 H342 0.950 . S
C329 C328 1.479 . S
C329 C330 1.375 . S
C329 C335 1.404 1_554 S
C330 C329 1.375 . S
C330 C331 1.369 . S
C330 H343 0.950 . S
C331 C330 1.369 . S
C331 C332 1.392 . S
C331 H344 0.951 . S
C332 C331 1.392 . S
C332 C334 1.384 1_554 S
H333 C335 0.949 . S
C334 C332 1.384 1_556 S
C334 C335 1.385 . S
C334 H336 0.950 . S
C335 C329 1.404 1_556 S
C335 H333 0.949 . S
C335 C334 1.385 . S
H336 C334 0.950 . S
H337 C321 0.951 . S
H338 C323 0.951 . S
H339 C325 0.951 . S
H340 C326 0.950 . S
H341 C327 0.950 . S
H342 C328 0.950 . S
H343 C330 0.950 . S
H344 C331 0.951 . S
C345 C346 1.386 . S
C345 C347 1.383 . S
C345 H361 0.951 . S
C346 C345 1.386 . S
C346 C350 1.383 1_554 S
C347 C345 1.383 . S
C347 C348 1.402 . S
C347 H362 0.951 . S
C348 C347 1.402 . S
C348 C349 1.375 1_554 S
C348 C351 1.481 1_554 S
C349 C348 1.375 1_556 S
C349 C350 1.367 . S
C349 H363 0.951 . S
C350 C346 1.383 1_556 S
C350 C349 1.367 . S
C350 H364 0.950 . S
C351 C348 1.481 1_556 S
C351 C352 1.297 1_556 S
C351 H365 0.950 . S
C352 C351 1.297 1_554 S
C352 C353 1.479 . S
C352 H366 0.950 . S
C353 C352 1.479 . S
C353 C354 1.375 . S
C353 C359 1.404 1_554 S
C354 C353 1.375 . S
C354 C355 1.369 . S
C354 H367 0.950 . S
C355 C354 1.369 . S
C355 C356 1.392 . S
C355 H368 0.951 . S
C356 C355 1.392 . S
C356 C358 1.384 1_554 S
H357 C359 0.949 . S
C358 C356 1.384 1_556 S
C358 C359 1.385 . S
C358 H360 0.950 . S
C359 C353 1.404 1_556 S
C359 H357 0.949 . S
C359 C358 1.385 . S
H360 C358 0.950 . S
H361 C345 0.951 . S
H362 C347 0.951 . S
H363 C349 0.951 . S
H364 C350 0.950 . S
H365 C351 0.950 . S
H366 C352 0.950 . S
H367 C354 0.950 . S
H368 C355 0.951 . S
C369 C370 1.386 1_556 S
C369 C371 1.383 . S
C369 H385 0.951 . S
C370 C369 1.386 1_554 S
C370 C374 1.383 . S
C371 C369 1.383 . S
C371 C372 1.402 1_556 S
C371 H386 0.951 . S
C372 C371 1.402 1_554 S
C372 C373 1.375 . S
C372 C375 1.481 . S
C373 C372 1.375 . S
C373 C374 1.367 . S
C373 H387 0.951 . S
C374 C370 1.383 . S
C374 C373 1.367 . S
C374 H388 0.950 . S
C375 C372 1.481 . S
C375 C376 1.297 . S
C375 H389 0.950 . S
C376 C375 1.297 . S
C376 C377 1.479 . S
C376 H390 0.950 1_554 S
C377 C376 1.479 . S
C377 C378 1.375 1_554 S
C377 C383 1.404 . S
C378 C377 1.375 1_556 S
C378 C379 1.369 . S
C378 H391 0.950 . S
C379 C378 1.369 . S
C379 C380 1.383 1_556 S
C379 H392 0.951 . S
C380 C379 1.383 1_554 S
C380 C382 1.402 . S
H381 C383 0.949 . S
C382 C380 1.402 . S
C382 C383 1.385 . S
C382 H384 0.950 . S
C383 C377 1.404 . S
C383 H381 0.949 . S
C383 C382 1.385 . S
H384 C382 0.950 . S
H385 C369 0.951 . S
H386 C371 0.951 . S
H387 C373 0.951 . S
H388 C374 0.950 . S
H389 C375 0.950 . S
H390 C376 0.950 1_556 S
H391 C378 0.950 . S
H392 C379 0.951 . S
C393 C394 1.386 . S
C393 C395 1.383 . S
C393 H409 0.951 . S
C394 C393 1.386 . S
C394 C398 1.383 1_556 S
C395 C393 1.383 . S
C395 C396 1.402 1_556 S
C395 H410 0.951 . S
C396 C395 1.402 1_554 S
C396 C397 1.375 . S
C396 C399 1.481 . S
C397 C396 1.375 . S
C397 C398 1.367 . S
C397 H411 0.951 . S
C398 C394 1.383 1_554 S
C398 C397 1.367 . S
C398 H412 0.950 . S
C399 C396 1.481 . S
C399 C400 1.297 . S
C399 H413 0.950 . S
C400 C399 1.297 . S
C400 C401 1.479 . S
C400 H414 0.950 . S
C401 C400 1.479 . S
C401 C402 1.379 . S
C401 C407 1.404 . S
C402 C401 1.379 . S
C402 C403 1.371 1_554 S
C402 H415 0.944 1_554 S
C403 C402 1.371 1_556 S
C403 C404 1.392 1_556 S
C403 H416 0.951 . S
C404 C403 1.392 1_554 S
C404 C406 1.384 . S
H405 C407 0.949 . S
C406 C404 1.384 . S
C406 C407 1.385 . S
C406 H408 0.950 . S
C407 C401 1.404 . S
C407 H405 0.949 . S
C407 C406 1.385 . S
H408 C406 0.950 . S
H409 C393 0.951 . S
H410 C395 0.951 . S
H411 C397 0.951 . S
H412 C398 0.950 . S
H413 C399 0.950 . S
H414 C400 0.950 . S
H415 C402 0.944 1_556 S
H416 C403 0.951 . S
C130 C119 1.681 . S
C140 C27 1.727 . S
C154 C32 1.293 . S
C164 C75 1.292 1_545 S
C178 C39 1.772 1_655 S
C188 C99 1.702 1_455 S
C202 C82 1.045 . S
C212 N3 1.234 . S
C226 C40 1.726 . S
C236 C118 1.644 . S
C250 C76 1.084 . S
C260 C33 1.018 . S
C274 C125 1.733 . S
C284 C13 1.867 1_455 S
C298 C56 1.139 . S
C308 N8 1.205 . S
C322 N89 0.756 . S
C332 N46 0.614 . S
C346 C113 0.462 . S
C356 C83 0.457 . S
C370 C70 0.530 . S
C380 C126 0.406 . S
C394 N94 0.663 . S
C404 N51 0.588 . S
