# Generated by pormake.
# Topology dft, (4)-cn, num edge types: 1
# Building blocks:
#     Node 0, Type 0, BuildingBlock: QUQFOY_clean_sbu_1, # of connection points: 4
#     Node 1, Type 0, BuildingBlock: QUQFOY_clean_sbu_1, # of connection points: 4
#     Node 2, Type 0, BuildingBlock: QUQFOY_clean_sbu_1, # of connection points: 4
#     Node 3, Type 0, BuildingBlock: QUQFOY_clean_sbu_1, # of connection points: 4
#     Node 4, Type 0, BuildingBlock: QUQFOY_clean_sbu_1, # of connection points: 4
#     Node 5, Type 0, BuildingBlock: QUQFOY_clean_sbu_1, # of connection points: 4
#     Node 6, Type 0, BuildingBlock: QUQFOY_clean_sbu_1, # of connection points: 4
#     Node 7, Type 0, BuildingBlock: QUQFOY_clean_sbu_1, # of connection points: 4
#     Edge 8, Type (0, 0), BuildingBlock: UVAHIK_clean_linker_0, # of connection points: 2
#     Edge 9, Type (0, 0), BuildingBlock: UVAHIK_clean_linker_0, # of connection points: 2
#     Edge 10, Type (0, 0), BuildingBlock: UVAHIK_clean_linker_0, # of connection points: 2
#     Edge 11, Type (0, 0), BuildingBlock: UVAHIK_clean_linker_0, # of connection points: 2
#     Edge 12, Type (0, 0), BuildingBlock: UVAHIK_clean_linker_0, # of connection points: 2
#     Edge 13, Type (0, 0), BuildingBlock: UVAHIK_clean_linker_0, # of connection points: 2
#     Edge 14, Type (0, 0), BuildingBlock: UVAHIK_clean_linker_0, # of connection points: 2
#     Edge 15, Type (0, 0), BuildingBlock: UVAHIK_clean_linker_0, # of connection points: 2
#     Edge 16, Type (0, 0), BuildingBlock: UVAHIK_clean_linker_0, # of connection points: 2
#     Edge 17, Type (0, 0), BuildingBlock: UVAHIK_clean_linker_0, # of connection points: 2
#     Edge 18, Type (0, 0), BuildingBlock: UVAHIK_clean_linker_0, # of connection points: 2
#     Edge 19, Type (0, 0), BuildingBlock: UVAHIK_clean_linker_0, # of connection points: 2
#     Edge 20, Type (0, 0), BuildingBlock: UVAHIK_clean_linker_0, # of connection points: 2
#     Edge 21, Type (0, 0), BuildingBlock: UVAHIK_clean_linker_0, # of connection points: 2
#     Edge 22, Type (0, 0), BuildingBlock: UVAHIK_clean_linker_0, # of connection points: 2
#     Edge 23, Type (0, 0), BuildingBlock: UVAHIK_clean_linker_0, # of connection points: 2
# Relax obj value: 0.205
# Max RMSD: 0.222
# Mean RMSD: 0.222
data_MOF--net-dft--node1-QUQFOY_clean_sbu_1--edge1-UVAHIK_clean_linker_0
_symmetry_space_group_name_H-M    P1
_symmetry_Int_Tables_number       1
_symmetry_cell_setting            triclinic
loop_
_symmetry_equiv_pos_as_xyz
'x, y, z'
_cell_length_a     46.884261
_cell_length_b     46.890622
_cell_length_c     51.457159
_cell_angle_alpha  89.994119
_cell_angle_beta   89.994217
_cell_angle_gamma 90.000191
loop_
_atom_site_label
_atom_site_type_symbol
_atom_site_fract_x
_atom_site_fract_y
_atom_site_fract_z
_atom_type_partial_charge
O0 O 0.35825 0.06964 0.14818 0.0
Cd1 Cd 0.35697 0.07341 0.18802 0.0
Cd2 Cd 0.31539 0.03188 0.18455 0.0
O3 O 0.33085 0.03143 0.14693 0.0
O4 O 0.39404 0.09014 0.19887 0.0
O5 O 0.38049 0.04633 0.20928 0.0
C6 C 0.39968 0.06613 0.20999 0.0
C7 C 0.30163 0.98742 0.20093 0.0
C8 C 0.34687 0.04937 0.13554 0.0
C9 C 0.29883 0.09046 0.20511 0.0
O10 O 0.29088 0.06592 0.19744 0.0
O11 O 0.32496 0.09752 0.20408 0.0
O12 O 0.28736 1.0001 0.18298 0.0
O13 O 0.32414 0.99996 0.2098 0.0
O14 O 0.01433 0.35574 0.65339 0.0
Cd15 Cd 0.0137 0.35417 0.69334 0.0
Cd16 Cd 0.05534 0.3131 0.68701 0.0
O17 O 0.05323 0.32964 0.6498 0.0
O18 O 0.99721 0.39096 0.70521 0.0
O19 O 0.04197 0.37822 0.71271 0.0
C20 C 0.02199 0.39713 0.71457 0.0
C21 C 0.10096 0.29915 0.70024 0.0
C22 C 0.03412 0.34522 0.63957 0.0
C23 C 0.99847 0.29557 0.71057 0.0
O24 O 0.02235 0.2879 0.70112 0.0
O25 O 0.99132 0.3217 0.71065 0.0
O26 O 0.0872 0.28554 0.68255 0.0
O27 O 0.08886 0.321 0.71079 0.0
O28 O 0.73257 0.01802 0.15281 0.0
Cd29 Cd 0.73649 0.01722 0.19261 0.0
Cd30 Cd 0.77707 0.05917 0.18395 0.0
O31 O 0.75822 0.05702 0.14768 0.0
O32 O 0.7014 0.99831 0.2057 0.0
O33 O 0.71156 0.04369 0.21327 0.0
C34 C 0.69408 0.0225 0.21558 0.0
C35 C 0.79136 0.10471 0.19708 0.0
C36 C 0.74211 0.03779 0.13838 0.0
C37 C 0.79648 0.00246 0.20629 0.0
O38 O 0.80344 0.02632 0.19638 0.0
O39 O 0.77042 0.99532 0.20802 0.0
O40 O 0.80398 0.0914 0.1785 0.0
O41 O 0.77023 0.09223 0.20847 0.0
O42 O 0.06538 0.73349 0.64626 0.0
Cd43 Cd 0.06888 0.73563 0.68608 0.0
Cd44 Cd 0.02676 0.77697 0.68114 0.0
O45 O 0.02682 0.76032 0.64395 0.0
O46 O 0.08833 0.69993 0.69698 0.0
O47 O 0.04365 0.71011 0.70746 0.0
C48 C 0.06486 0.6925 0.70816 0.0
C49 C 0.98209 0.79032 0.69729 0.0
C50 C 0.0451 0.74421 0.63315 0.0
C51 C 0.08473 0.79476 0.70193 0.0
O52 O 0.06033 0.80235 0.69363 0.0
O53 O 0.09192 0.76865 0.70176 0.0
O54 O 0.99502 0.76823 0.70656 0.0
O55 O 0.99446 0.80435 0.679 0.0
O56 O 0.35362 0.01729 0.84362 0.0
Cd57 Cd 0.3516 0.0161 0.80367 0.0
Cd58 Cd 0.31053 0.05777 0.81048 0.0
O59 O 0.32708 0.05587 0.84767 0.0
O60 O 0.38735 0.99731 0.79198 0.0
O61 O 0.37719 0.04252 0.78361 0.0
C62 C 0.39484 0.02141 0.78199 0.0
C63 C 0.29759 0.10313 0.79572 0.0
C64 C 0.34301 0.03688 0.85764 0.0
C65 C 0.29247 0.00098 0.78743 0.0
O66 O 0.28494 0.02488 0.7969 0.0
O67 O 0.3186 0.99387 0.78698 0.0
O68 O 0.28344 0.09022 0.81363 0.0
O69 O 0.31959 0.09036 0.78609 0.0
O70 O 0.06983 0.35599 0.34919 0.0
Cd71 Cd 0.0739 0.35432 0.30937 0.0
Cd72 Cd 0.03268 0.31253 0.31295 0.0
O73 O 0.03189 0.32824 0.35046 0.0
O74 O 0.0906 0.39132 0.29834 0.0
O75 O 0.0469 0.37756 0.28776 0.0
C76 C 0.06666 0.39679 0.28701 0.0
C77 C 0.98835 0.29879 0.29628 0.0
C78 C 0.04958 0.34454 0.36181 0.0
C79 C 0.09143 0.29614 0.29276 0.0
O80 O 0.0669 0.28806 0.30035 0.0
O81 O 0.0983 0.32232 0.29367 0.0
O82 O 0.00088 0.28452 0.31433 0.0
O83 O 0.00099 0.32126 0.28746 0.0
O84 O 0.72854 0.06919 0.84835 0.0
Cd85 Cd 0.73155 0.07236 0.80858 0.0
Cd86 Cd 0.77232 0.03006 0.81381 0.0
O87 O 0.75442 0.03002 0.85054 0.0
O88 O 0.69517 0.08944 0.79636 0.0
O89 O 0.70843 0.04524 0.78703 0.0
C90 C 0.68951 0.06525 0.78556 0.0
C91 C 0.78707 0.9852 0.79919 0.0
C92 C 0.73854 0.04848 0.86134 0.0
C93 C 0.79073 0.08834 0.79377 0.0
O94 O 0.79797 0.06379 0.80199 0.0
O95 O 0.76466 0.09571 0.7935 0.0
O96 O 0.79995 0.99819 0.81781 0.0
O97 O 0.76553 0.99769 0.78848 0.0
O98 O 0.01864 0.7318 0.34113 0.0
Cd99 Cd 0.0186 0.7344 0.30122 0.0
Cd100 Cd 0.06067 0.77538 0.30957 0.0
O101 O 0.0576 0.75756 0.34622 0.0
O102 O 0.99961 0.69906 0.28879 0.0
O103 O 0.04518 0.70863 0.28154 0.0
C104 C 0.02387 0.69129 0.27934 0.0
C105 C 0.10652 0.78975 0.29734 0.0
C106 C 0.03814 0.74177 0.35562 0.0
C107 C 0.00449 0.794 0.28551 0.0
O108 O 0.02814 0.80124 0.29568 0.0
O109 O 0.99728 0.76791 0.28445 0.0
O110 O 0.09251 0.8027 0.3153 0.0
O111 O 0.09459 0.76823 0.28608 0.0
C112 C 0.35829 0.0709 0.09226 0.0
C113 C 0.35157 0.04682 0.10726 0.0
C114 C 0.36073 0.06872 0.06525 0.0
C115 C 0.34013 0.02092 0.01053 0.0
H116 H 0.38952 0.07116 0.97104 0.0
C117 C 0.35563 0.01216 0.89921 0.0
C118 C 0.34855 0.03735 0.88589 0.0
C119 C 0.35895 0.01236 0.92621 0.0
C120 C 0.3757 0.05699 0.98191 0.0
H121 H 0.34354 0.00133 0.10602 0.0
H122 H 0.34919 0.99716 0.0592 0.0
H123 H 0.39065 0.0726 0.01847 0.0
H124 H 0.34051 0.08266 0.89018 0.0
H125 H 0.34713 0.08307 0.93732 0.0
H126 H 0.32576 0.00496 0.97377 0.0
C127 C 0.35141 0.01802 0.06797 0.0
C128 C 0.37614 0.05792 0.00906 0.0
C129 C 0.34837 0.02034 0.09488 0.0
C130 C 0.34582 0.0629 0.89995 0.0
C131 C 0.34976 0.0632 0.92686 0.0
C132 C 0.34015 0.01961 0.98342 0.0
C133 C 0.35708 0.04227 0.05269 0.0
C134 C 0.35804 0.04017 0.02377 0.0
C135 C 0.35592 0.03786 0.94024 0.0
C136 C 0.35764 0.03788 0.9689 0.0
H137 H 0.36071 0.09163 0.10129 0.0
H138 H 0.36464 0.08799 0.05423 0.0
H139 H 0.32541 0.00733 0.02099 0.0
H140 H 0.35778 0.99215 0.88887 0.0
H141 H 0.36375 0.99258 0.93618 0.0
C142 C 0.00963 0.35703 0.59768 0.0
C143 C 0.03477 0.35043 0.61127 0.0
C144 C 0.01005 0.35995 0.57063 0.0
C145 C 0.05518 0.37615 0.51504 0.0
H146 H 0.00637 0.32474 0.47631 0.0
C147 C 0.07057 0.35673 0.40513 0.0
C148 C 0.04671 0.3496 0.39001 0.0
C149 C 0.06806 0.35962 0.43208 0.0
C150 C 0.01972 0.33975 0.48666 0.0
H151 H 0.08022 0.34288 0.60743 0.0
H152 H 0.08102 0.34878 0.56023 0.0
H153 H 0.00341 0.32599 0.52349 0.0
H154 H 0.00126 0.34129 0.39094 0.0
H155 H 0.9965 0.34771 0.43762 0.0
H156 H 0.07116 0.39047 0.4784 0.0
C157 C 0.06101 0.35135 0.5705 0.0
C158 C 0.01807 0.3403 0.51374 0.0
C159 C 0.06049 0.34782 0.59744 0.0
C160 C 0.02011 0.34642 0.40218 0.0
C161 C 0.01746 0.34991 0.42902 0.0
C162 C 0.05646 0.37604 0.4879 0.0
C163 C 0.03573 0.35699 0.55685 0.0
C164 C 0.03604 0.35821 0.52816 0.0
C165 C 0.04149 0.35602 0.44445 0.0
C166 C 0.03901 0.35754 0.47332 0.0
H167 H 0.98949 0.35908 0.60783 0.0
H168 H 0.99031 0.36435 0.56045 0.0
H169 H 0.06913 0.39027 0.52582 0.0
H170 H 0.09139 0.35914 0.39626 0.0
H171 H 0.08717 0.36385 0.44323 0.0
C172 C 0.73405 0.01941 0.90177 0.0
C173 C 0.7325 0.04605 0.88941 0.0
C174 C 0.73014 0.01717 0.92858 0.0
C175 C 0.70642 0.05807 0.98726 0.0
H176 H 0.75482 0.00356 0.0229 0.0
C177 C 0.73775 0.06346 0.09599 0.0
C178 C 0.7353 0.03808 0.11035 0.0
C179 C 0.73301 0.06349 0.0692 0.0
C180 C 0.74093 0.01863 0.01316 0.0
H181 H 0.72519 0.0912 0.89526 0.0
H182 H 0.71974 0.08764 0.94221 0.0
H183 H 0.75521 0.00552 0.9757 0.0
H184 H 0.72547 0.99295 0.10805 0.0
H185 H 0.71801 0.99292 0.06094 0.0
H186 H 0.69356 0.07212 0.02518 0.0
C187 C 0.72305 0.06823 0.93123 0.0
C188 C 0.74099 0.01971 0.98606 0.0
C189 C 0.72636 0.07036 0.90429 0.0
C190 C 0.72747 0.01283 0.09748 0.0
C191 C 0.72328 0.01277 0.07058 0.0
C192 C 0.7068 0.05732 0.01442 0.0
C193 C 0.72524 0.04163 0.9438 0.0
C194 C 0.72387 0.03957 0.97269 0.0
C195 C 0.72625 0.03806 0.05622 0.0
C196 C 0.72417 0.03769 0.02756 0.0
H197 H 0.73838 1.00023 0.8907 0.0
H198 H 0.73122 0.99622 0.93736 0.0
H199 H 0.69253 0.07326 0.97773 0.0
H200 H 0.74362 0.08327 0.10541 0.0
H201 H 0.73561 0.08321 0.05848 0.0
C202 C 0.01227 0.72902 0.39659 0.0
C203 C 0.03787 0.73588 0.38381 0.0
C204 C 0.01173 0.72577 0.42359 0.0
C205 C 0.05499 0.70989 0.48062 0.0
H206 H 0.00434 0.76107 0.51763 0.0
C207 C 0.06723 0.73141 0.59046 0.0
C208 C 0.04292 0.7385 0.60501 0.0
C209 C 0.06538 0.72788 0.56353 0.0
C210 C 0.01819 0.74611 0.50775 0.0
H211 H 0.08315 0.74344 0.38907 0.0
H212 H 0.08226 0.737 0.43621 0.0
H213 H 0.00292 0.75934 0.47041 0.0
H214 H 0.99737 0.74606 0.60308 0.0
H215 H 0.99379 0.73856 0.55643 0.0
H216 H 0.06999 0.69616 0.51779 0.0
C217 C 0.06264 0.73447 0.42532 0.0
C218 C 0.01742 0.74528 0.48065 0.0
C219 C 0.06309 0.73831 0.39842 0.0
C220 C 0.01655 0.74098 0.59229 0.0
C221 C 0.01457 0.73686 0.56548 0.0
C222 C 0.0554 0.71028 0.50778 0.0
C223 C 0.03688 0.72868 0.43817 0.0
C224 C 0.03609 0.7275 0.46686 0.0
C225 C 0.03904 0.7308 0.55062 0.0
C226 C 0.03731 0.72875 0.52174 0.0
H227 H 0.99251 0.72709 0.38583 0.0
H228 H 0.99164 0.72125 0.43314 0.0
H229 H 0.06947 0.69586 0.47033 0.0
H230 H 0.08787 0.72953 0.59975 0.0
H231 H 0.08481 0.72372 0.55283 0.0
C232 C 0.44825 0.08323 0.22263 0.0
C233 C 0.42817 0.061 0.22148 0.0
C234 C 0.47634 0.07783 0.23017 0.0
C235 C 0.52814 0.0199 0.22843 0.0
H236 H 0.57618 0.0734 0.26568 0.0
C237 C 0.64864 0.00214 0.23279 0.0
C238 C 0.66535 0.02616 0.22694 0.0
C239 C 0.61989 0.00517 0.23931 0.0
C240 C 0.56306 0.05828 0.25519 0.0
H241 H 0.42141 0.01597 0.22883 0.0
H242 H 0.47058 0.00653 0.24205 0.0
H243 H 0.5246 0.0809 0.2643 0.0
H244 H 0.66553 0.07233 0.22491 0.0
H245 H 0.61516 0.07765 0.23561 0.0
H246 H 0.56638 0.99795 0.21826 0.0
C247 C 0.4646 0.02809 0.23683 0.0
C248 C 0.53352 0.06254 0.25445 0.0
C249 C 0.43641 0.03353 0.22937 0.0
C250 C 0.65319 0.05341 0.22934 0.0
C251 C 0.6243 0.05644 0.23559 0.0
C252 C 0.55759 0.01571 0.22906 0.0
C253 C 0.48504 0.05006 0.23667 0.0
C254 C 0.5158 0.04369 0.24062 0.0
C255 C 0.60707 0.03228 0.23981 0.0
C256 C 0.57552 0.03513 0.24201 0.0
H257 H 0.44257 0.10469 0.21678 0.0
H258 H 0.49158 0.09518 0.22959 0.0
H259 H 0.5152 0.00525 0.21721 0.0
H260 H 0.65751 0.98086 0.23144 0.0
H261 H 0.60745 0.98615 0.24308 0.0
C262 C 0.00542 0.4459 0.72712 0.0
C263 C 0.02771 0.42599 0.72499 0.0
C264 C 0.01116 0.47437 0.73314 0.0
C265 C 0.06823 0.52631 0.7246 0.0
H266 H 0.01807 0.57611 0.76375 0.0
C267 C 0.0864 0.64695 0.72387 0.0
C268 C 0.06201 0.6637 0.7196 0.0
C269 C 0.08383 0.61836 0.73108 0.0
C270 C 0.03223 0.5625 0.75268 0.0
H271 H 0.07333 0.41994 0.72918 0.0
H272 H 0.08337 0.46973 0.73978 0.0
H273 H 0.01074 0.52451 0.76512 0.0
H274 H 0.01581 0.6641 0.72089 0.0
H275 H 0.01124 0.61395 0.7328 0.0
H276 H 0.08899 0.56403 0.71121 0.0
C277 C 0.06147 0.46334 0.73646 0.0
C278 C 0.02808 0.53295 0.75353 0.0
C279 C 0.0557 0.43479 0.73053 0.0
C280 C 0.035 0.65171 0.72407 0.0
C281 C 0.03241 0.62297 0.73102 0.0
C282 C 0.0723 0.55577 0.72366 0.0
C283 C 0.03934 0.4836 0.7371 0.0
C284 C 0.04574 0.51457 0.73912 0.0
C285 C 0.0568 0.60573 0.73387 0.0
C286 C 0.05407 0.57431 0.73732 0.0
H287 H 0.98358 0.43979 0.72309 0.0
H288 H 0.99365 0.48943 0.73326 0.0
H289 H 0.08189 0.51284 0.71288 0.0
H290 H 0.10754 0.65569 0.72092 0.0
H291 H 0.10308 0.60593 0.73373 0.0
C292 C 0.65275 0.03249 0.76651 0.0
C293 C 0.66113 0.0601 0.77387 0.0
C294 C 0.6245 0.02699 0.75931 0.0
C295 C 0.55532 0.06116 0.74194 0.0
H296 H 0.5231 0.99744 0.77988 0.0
C297 C 0.43582 0.05223 0.7682 0.0
C298 C 0.42377 0.02498 0.77101 0.0
C299 C 0.46471 0.05526 0.7619 0.0
C300 C 0.53169 0.01495 0.76861 0.0
H301 H 0.64695 0.10395 0.77771 0.0
H302 H 0.59782 0.09435 0.76536 0.0
H303 H 0.57428 0.00476 0.78006 0.0
H304 H 0.43183 0.97962 0.76734 0.0
H305 H 0.48186 0.9849 0.75564 0.0
H306 H 0.51246 0.07174 0.7311 0.0
C307 C 0.61299 0.07693 0.76502 0.0
C308 C 0.56115 0.01915 0.76874 0.0
C309 C 0.64116 0.0824 0.77229 0.0
C310 C 0.44061 0.00091 0.76566 0.0
C311 C 0.46935 0.00394 0.7591 0.0
C312 C 0.52576 0.05688 0.74172 0.0
C313 C 0.60412 0.04902 0.75922 0.0
C314 C 0.57328 0.04262 0.75587 0.0
C315 C 0.48203 0.03109 0.75805 0.0
C316 C 0.51354 0.03403 0.75551 0.0
H317 H 0.66766 0.01487 0.76739 0.0
H318 H 0.6184 0.00533 0.75459 0.0
H319 H 0.56407 0.07927 0.73159 0.0
H320 H 0.42337 0.07118 0.77224 0.0
H321 H 0.47375 0.0765 0.76146 0.0
C322 C 0.03408 0.43334 0.26731 0.0
C323 C 0.06156 0.42515 0.27526 0.0
C324 C 0.02867 0.46146 0.25964 0.0
C325 C 0.06321 0.53021 0.24157 0.0
H326 H 0.99877 0.56343 0.27775 0.0
C327 C 0.05459 0.65001 0.26619 0.0
C328 C 0.02739 0.66232 0.26845 0.0
C329 C 0.05748 0.62105 0.26015 0.0
C330 C 0.01649 0.55454 0.26695 0.0
H331 H 0.10527 0.43953 0.2798 0.0
H332 H 0.09581 0.48843 0.26662 0.0
H333 H 0.00591 0.51223 0.27897 0.0
H334 H 0.98205 0.65465 0.26402 0.0
H335 H 0.9871 0.60446 0.25279 0.0
H336 H 0.07419 0.57278 0.23018 0.0
C337 C 0.07844 0.47321 0.26616 0.0
C338 C 0.02059 0.52507 0.26768 0.0
C339 C 0.08381 0.44518 0.27392 0.0
C340 C 0.00329 0.64566 0.26277 0.0
C341 C 0.00618 0.61684 0.25648 0.0
C342 C 0.05904 0.55976 0.24074 0.0
C343 C 0.05066 0.48188 0.25963 0.0
C344 C 0.04433 0.51261 0.25551 0.0
C345 C 0.03324 0.60391 0.25603 0.0
C346 C 0.03596 0.57235 0.25392 0.0
H347 H 0.01651 0.41836 0.26799 0.0
H348 H 0.00711 0.46742 0.25439 0.0
H349 H 0.08152 0.52119 0.23172 0.0
H350 H 0.07356 0.6623 0.27049 0.0
H351 H 0.07865 0.61181 0.26018 0.0
C352 C 0.14048 0.28299 0.27747 0.0
C353 C 0.1123 0.27485 0.28318 0.0
C354 C 0.16036 0.26286 0.26895 0.0
C355 C 0.17431 0.18512 0.26773 0.0
H356 H 0.22935 0.2057 0.21468 0.0
C357 C 0.24883 0.10298 0.2183 0.0
C358 C 0.27744 0.11116 0.2148 0.0
C359 C 0.22856 0.12271 0.22688 0.0
C360 C 0.21428 0.19973 0.22968 0.0
H361 H 0.08287 0.23916 0.28405 0.0
H362 H 0.11741 0.20416 0.26872 0.0
H363 H 0.19394 0.24053 0.22866 0.0
H364 H 0.30716 0.14651 0.21778 0.0
H365 H 0.27175 0.18087 0.23271 0.0
H366 H 0.19458 0.14419 0.2685 0.0
C367 C 0.12429 0.22603 0.27131 0.0
C368 C 0.194 0.21969 0.23773 0.0
C369 C 0.10442 0.24614 0.27996 0.0
C370 C 0.28532 0.13947 0.22023 0.0
C371 C 0.26501 0.15923 0.22863 0.0
C372 C 0.19451 0.1651 0.25957 0.0
C373 C 0.15253 0.23412 0.26579 0.0
C374 C 0.17382 0.21268 0.25692 0.0
C375 C 0.2364 0.15109 0.23198 0.0
C376 C 0.21478 0.17223 0.24053 0.0
H377 H 0.14733 0.3049 0.27985 0.0
H378 H 0.18202 0.26979 0.26526 0.0
H379 H 0.1594 0.17914 0.28284 0.0
H380 H 0.24203 0.08134 0.21431 0.0
H381 H 0.20662 0.11587 0.22908 0.0
C382 C 0.98684 0.24519 0.72334 0.0
C383 C 0.97845 0.27385 0.72085 0.0
C384 C 0.96759 0.22462 0.73227 0.0
C385 C 0.89849 0.21664 0.76698 0.0
H386 H 0.89763 0.1422 0.73413 0.0
C387 C 0.8057 0.1374 0.78008 0.0
C388 C 0.81287 0.10881 0.78512 0.0
C389 C 0.82666 0.157 0.7728 0.0
C390 C 0.89782 0.16281 0.74366 0.0
H391 H 0.94321 0.30334 0.72589 0.0
H392 H 0.90957 0.2675 0.74087 0.0
H393 H 0.93296 0.1775 0.72076 0.0
H394 H 0.8477 0.07833 0.78604 0.0
H395 H 0.88427 0.11263 0.77309 0.0
H396 H 0.86294 0.20207 0.78948 0.0
C397 C 0.93118 0.26093 0.73645 0.0
C398 C 0.9181 0.18302 0.73607 0.0
C399 C 0.95046 0.2815 0.7277 0.0
C400 C 0.84145 0.1002 0.78234 0.0
C401 C 0.86238 0.11978 0.77482 0.0
C402 C 0.8781 0.19652 0.77441 0.0
C403 C 0.93944 0.2322 0.73878 0.0
C404 C 0.91858 0.21027 0.74752 0.0
C405 C 0.85523 0.14844 0.77018 0.0
C406 C 0.87743 0.16945 0.76272 0.0
H407 H 0.0083 0.2386 0.71837 0.0
H408 H 0.97482 0.2028 0.7342 0.0
H409 H 0.89857 0.23718 0.77661 0.0
H410 H 0.78391 0.14477 0.78202 0.0
H411 H 0.82045 0.17887 0.76903 0.0
C412 C 0.95665 0.80889 0.26872 0.0
C413 C 0.98474 0.81612 0.27558 0.0
C414 C 0.93755 0.82981 0.26034 0.0
C415 C 0.92534 0.9079 0.26163 0.0
H416 H 0.86897 0.88964 0.20906 0.0
C417 C 0.84756 0.99094 0.21667 0.0
C418 C 0.81889 0.9823 0.21492 0.0
C419 C 0.86876 0.97147 0.22384 0.0
C420 C 0.8845 0.89498 0.22386 0.0
H421 H 0.01498 0.85099 0.27847 0.0
H422 H 0.98184 0.88742 0.2632 0.0
H423 H 0.90473 0.85428 0.22093 0.0
H424 H 0.79003 0.94646 0.21959 0.0
H425 H 0.82703 0.91256 0.23187 0.0
H426 H 0.90511 0.94883 0.26419 0.0
C427 C 0.97437 0.86565 0.26487 0.0
C428 C 0.90495 0.8747 0.23075 0.0
C429 C 0.99344 0.84473 0.27347 0.0
C430 C 0.81188 0.95386 0.22074 0.0
C431 C 0.83308 0.93436 0.22761 0.0
C432 C 0.90502 0.9283 0.25453 0.0
C433 C 0.94612 0.85848 0.25835 0.0
C434 C 0.92541 0.88074 0.24997 0.0
C435 C 0.86174 0.94291 0.22909 0.0
C436 C 0.88417 0.92189 0.23583 0.0
H437 H 0.94916 0.78711 0.27027 0.0
H438 H 0.91586 0.82352 0.25596 0.0
H439 H 0.94051 0.91319 0.27675 0.0
H440 H 0.85368 0.01271 0.21236 0.0
H441 H 0.89072 0.97859 0.22475 0.0
C442 C 0.09673 0.84505 0.7147 0.0
C443 C 0.10517 0.81651 0.71141 0.0
C444 C 0.11624 0.86556 0.7233 0.0
C445 C 0.18635 0.87287 0.75625 0.0
H446 H 0.18541 0.94866 0.72605 0.0
C447 C 0.27817 0.95273 0.77108 0.0
C448 C 0.2706 0.98083 0.77766 0.0
C449 C 0.25744 0.93326 0.76301 0.0
C450 C 0.18575 0.92765 0.73481 0.0
H451 H 0.14083 0.78719 0.71447 0.0
H452 H 0.17488 0.82293 0.72886 0.0
H453 H 0.15016 0.91347 0.71222 0.0
H454 H 0.23533 0.01067 0.78032 0.0
H455 H 0.19915 0.97662 0.76599 0.0
H456 H 0.22228 0.88695 0.77848 0.0
C457 C 0.15305 0.82945 0.72536 0.0
C458 C 0.16551 0.9075 0.72696 0.0
C459 C 0.13353 0.80894 0.71695 0.0
C460 C 0.24188 0.98917 0.77545 0.0
C461 C 0.22117 0.96973 0.76714 0.0
C462 C 0.20669 0.89293 0.76393 0.0
C463 C 0.14468 0.85802 0.72867 0.0
C464 C 0.16565 0.8798 0.7375 0.0
C465 C 0.22871 0.94149 0.76111 0.0
C466 C 0.2067 0.92048 0.75321 0.0
H467 H 0.075 0.85158 0.71073 0.0
H468 H 0.10893 0.88727 0.72598 0.0
H469 H 0.18676 0.85197 0.76519 0.0
H470 H 0.30008 0.94557 0.77251 0.0
H471 H 0.26393 0.91174 0.75816 0.0
C472 C 0.79711 0.94996 0.76381 0.0
C473 C 0.79772 0.95733 0.79021 0.0
C474 C 0.8114 0.92554 0.75506 0.0
C475 C 0.87078 0.87836 0.77591 0.0
H476 H 0.85219 0.83809 0.71235 0.0
C477 C 0.94627 0.79373 0.73336 0.0
C478 C 0.95463 0.80047 0.70788 0.0
C479 C 0.92236 0.80689 0.74441 0.0
C480 C 0.85748 0.84902 0.73026 0.0
H481 H 0.81142 0.94396 0.8285 0.0
H482 H 0.83482 0.90065 0.81364 0.0
H483 H 0.81812 0.87216 0.7305 0.0
H484 H 0.94351 0.8246 0.67338 0.0
H485 H 0.90166 0.84715 0.69251 0.0
H486 H 0.91018 0.85538 0.7755 0.0
C487 C 0.82466 0.91422 0.79935 0.0
C488 C 0.8381 0.86872 0.74057 0.0
C489 C 0.81104 0.93893 0.80795 0.0
C490 C 0.93767 0.81914 0.69314 0.0
C491 C 0.91357 0.83189 0.704 0.0
C492 C 0.88987 0.8584 0.76583 0.0
C493 C 0.82606 0.90775 0.77268 0.0
C494 C 0.8448 0.88419 0.76321 0.0
C495 C 0.90616 0.82657 0.72998 0.0
C496 C 0.88375 0.84405 0.74259 0.0
H497 H 0.78705 0.96391 0.74975 0.0
H498 H 0.81214 0.92152 0.73436 0.0
H499 H 0.87717 0.89016 0.79302 0.0
H500 H 0.95896 0.77942 0.74516 0.0
H501 H 0.917 0.80236 0.76447 0.0
C502 C 0.27305 0.94293 0.19645 0.0
C503 C 0.29144 0.95994 0.21142 0.0
C504 C 0.26042 0.91865 0.20709 0.0
C505 C 0.24424 0.86199 0.2329 0.0
H506 H 0.20079 0.88082 0.29458 0.0
C507 C 0.14331 0.79989 0.26335 0.0
C508 C 0.13476 0.8005 0.28946 0.0
C509 C 0.16788 0.8145 0.25545 0.0
C510 C 0.21325 0.87466 0.27779 0.0
H511 H 0.31203 0.96431 0.2489 0.0
H512 H 0.28918 0.92206 0.26787 0.0
H513 H 0.23548 0.91451 0.27796 0.0
H514 H 0.14624 0.8145 0.32816 0.0
H515 H 0.18987 0.83843 0.31481 0.0
H516 H 0.22192 0.82217 0.23256 0.0
C517 C 0.28485 0.92747 0.24778 0.0
C518 C 0.23314 0.89416 0.26823 0.0
C519 C 0.29795 0.95154 0.23694 0.0
C520 C 0.1522 0.81409 0.30781 0.0
C521 C 0.17708 0.82803 0.30008 0.0
C522 C 0.22465 0.8422 0.24272 0.0
C523 C 0.26556 0.91113 0.23307 0.0
C524 C 0.24828 0.88835 0.24533 0.0
C525 C 0.18469 0.82947 0.27365 0.0
C526 C 0.2083 0.84859 0.26493 0.0
H527 H 0.26778 0.94881 0.17666 0.0
H528 H 0.24544 0.90662 0.1954 0.0
H529 H 0.2558 0.85695 0.21526 0.0
H530 H 0.1301 0.78965 0.24882 0.0
H531 H 0.17274 0.81526 0.2349 0.0
C532 C 0.14732 0.27599 0.69023 0.0
C533 C 0.12927 0.28894 0.70847 0.0
C534 C 0.17237 0.26252 0.69817 0.0
C535 C 0.21919 0.24835 0.75604 0.0
H536 H 0.2321 0.17697 0.71981 0.0
C537 C 0.26914 0.14763 0.80113 0.0
C538 C 0.28761 0.13099 0.78588 0.0
C539 C 0.2564 0.17206 0.79088 0.0
C540 C 0.2292 0.19708 0.72983 0.0
H541 H 0.12363 0.29914 0.74914 0.0
H542 H 0.1666 0.27424 0.76341 0.0
H543 H 0.19698 0.2102 0.70329 0.0
H544 H 0.30837 0.12758 0.74839 0.0
H545 H 0.28542 0.17012 0.73016 0.0
H546 H 0.25026 0.23375 0.78366 0.0
C547 C 0.16208 0.2752 0.7428 0.0
C548 C 0.20905 0.21632 0.72032 0.0
C549 C 0.13733 0.28938 0.73471 0.0
C550 C 0.29422 0.14002 0.76057 0.0
C551 C 0.28105 0.16426 0.75013 0.0
C552 C 0.23907 0.2288 0.7658 0.0
C553 C 0.17953 0.26085 0.72469 0.0
C554 C 0.20335 0.24204 0.7335 0.0
C555 C 0.26153 0.18012 0.76504 0.0
C556 C 0.24389 0.20278 0.75299 0.0
H557 H 0.14172 0.27574 0.66979 0.0
H558 H 0.18566 0.25264 0.6835 0.0
H559 H 0.21587 0.26811 0.76647 0.0
H560 H 0.26379 0.14126 0.82078 0.0
H561 H 0.24126 0.18371 0.80273 0.0
C562 C 0.94393 0.27002 0.30039 0.0
C563 C 0.96092 0.28865 0.28564 0.0
C564 C 0.91967 0.25751 0.28959 0.0
C565 C 0.86311 0.24142 0.26369 0.0
H566 H 0.88185 0.19945 0.20114 0.0
C567 C 0.80163 0.14069 0.23175 0.0
C568 C 0.80203 0.1328 0.20547 0.0
C569 C 0.8161 0.16519 0.24002 0.0
C570 C 0.87572 0.2115 0.21819 0.0
H571 H 0.96525 0.3098 0.24841 0.0
H572 H 0.92303 0.28719 0.22919 0.0
H573 H 0.91544 0.23395 0.21823 0.0
H574 H 0.81555 0.14537 0.1669 0.0
H575 H 0.83929 0.18883 0.18095 0.0
H576 H 0.82344 0.21883 0.26383 0.0
C577 C 0.92846 0.28256 0.24921 0.0
C578 C 0.89515 0.23129 0.22802 0.0
C579 C 0.95251 0.29552 0.2602 0.0
C580 C 0.81531 0.1508 0.18736 0.0
C581 C 0.82913 0.1756 0.19549 0.0
C582 C 0.84339 0.22191 0.25362 0.0
C583 C 0.91214 0.26302 0.26368 0.0
C584 C 0.88939 0.24588 0.25121 0.0
C585 C 0.83075 0.18256 0.22206 0.0
C586 C 0.84976 0.2061 0.23109 0.0
H587 H 0.94981 0.26448 0.32012 0.0
H588 H 0.90768 0.24233 0.30111 0.0
H589 H 0.85809 0.25256 0.28155 0.0
H590 H 0.79162 0.12705 0.2461 0.0
H591 H 0.81702 0.16956 0.26066 0.0
loop_
_geom_bond_atom_site_label_1
_geom_bond_atom_site_label_2
_geom_bond_distance
_geom_bond_site_symmetry_2
_ccdc_geom_bond_type
O0 Cd1 2.223 . S
O0 C8 1.315 . S
Cd1 O0 2.223 . S
Cd1 O4 2.297 . S
Cd1 O5 2.439 . S
Cd1 O11 2.240 . S
Cd2 O3 2.240 . S
Cd2 O10 2.223 . S
Cd2 O12 2.297 1_545 S
Cd2 O13 2.439 1_545 S
O3 Cd2 2.240 . S
O3 C8 1.279 . S
O4 Cd1 2.297 . S
O4 C6 1.247 . S
O5 Cd1 2.439 . S
O5 C6 1.208 . S
C6 O4 1.247 . S
C6 O5 1.208 . S
C7 O12 1.247 . S
C7 O13 1.208 . S
C8 O0 1.315 . S
C8 O3 1.279 . S
C9 O10 1.315 . S
C9 O11 1.279 . S
O10 Cd2 2.223 . S
O10 C9 1.315 . S
O11 Cd1 2.240 . S
O11 C9 1.279 . S
O12 Cd2 2.297 1_565 S
O12 C7 1.247 . S
O13 Cd2 2.439 1_565 S
O13 C7 1.208 . S
O14 Cd15 2.223 . S
O14 C22 1.315 . S
Cd15 O14 2.223 . S
Cd15 O18 2.297 . S
Cd15 O19 2.439 . S
Cd15 O25 2.240 . S
Cd16 O17 2.240 . S
Cd16 O24 2.223 . S
Cd16 O26 2.297 . S
Cd16 O27 2.439 . S
O17 Cd16 2.240 . S
O17 C22 1.279 . S
O18 Cd15 2.297 . S
O18 C20 1.247 . S
O19 Cd15 2.439 . S
O19 C20 1.208 . S
C20 O18 1.247 . S
C20 O19 1.208 . S
C21 O26 1.247 . S
C21 O27 1.208 . S
C22 O14 1.315 . S
C22 O17 1.279 . S
C23 O24 1.315 . S
C23 O25 1.279 . S
O24 Cd16 2.223 . S
O24 C23 1.315 . S
O25 Cd15 2.240 . S
O25 C23 1.279 . S
O26 Cd16 2.297 . S
O26 C21 1.247 . S
O27 Cd16 2.439 . S
O27 C21 1.208 . S
O28 Cd29 2.223 . S
O28 C36 1.315 . S
Cd29 O28 2.223 . S
Cd29 O32 2.297 . S
Cd29 O33 2.439 . S
Cd29 O39 2.240 . S
Cd30 O31 2.240 . S
Cd30 O38 2.223 . S
Cd30 O40 2.297 . S
Cd30 O41 2.439 . S
O31 Cd30 2.240 . S
O31 C36 1.279 . S
O32 Cd29 2.297 . S
O32 C34 1.247 . S
O33 Cd29 2.439 . S
O33 C34 1.208 . S
C34 O32 1.247 . S
C34 O33 1.208 . S
C35 O40 1.247 . S
C35 O41 1.208 . S
C36 O28 1.315 . S
C36 O31 1.279 . S
C37 O38 1.315 . S
C37 O39 1.279 . S
O38 Cd30 2.223 . S
O38 C37 1.315 . S
O39 Cd29 2.240 . S
O39 C37 1.279 . S
O40 Cd30 2.297 . S
O40 C35 1.247 . S
O41 Cd30 2.439 . S
O41 C35 1.208 . S
O42 Cd43 2.223 . S
O42 C50 1.315 . S
Cd43 O42 2.223 . S
Cd43 O46 2.297 . S
Cd43 O47 2.439 . S
Cd43 O53 2.240 . S
Cd44 O45 2.240 . S
Cd44 O52 2.223 . S
Cd44 O54 2.297 1_455 S
Cd44 O55 2.439 1_455 S
O45 Cd44 2.240 . S
O45 C50 1.279 . S
O46 Cd43 2.297 . S
O46 C48 1.247 . S
O47 Cd43 2.439 . S
O47 C48 1.208 . S
C48 O46 1.247 . S
C48 O47 1.208 . S
C49 O54 1.247 . S
C49 O55 1.208 . S
C50 O42 1.315 . S
C50 O45 1.279 . S
C51 O52 1.315 . S
C51 O53 1.279 . S
O52 Cd44 2.223 . S
O52 C51 1.315 . S
O53 Cd43 2.240 . S
O53 C51 1.279 . S
O54 Cd44 2.297 1_655 S
O54 C49 1.247 . S
O55 Cd44 2.439 1_655 S
O55 C49 1.208 . S
O56 Cd57 2.223 . S
O56 C64 1.315 . S
Cd57 O56 2.223 . S
Cd57 O60 2.297 . S
Cd57 O61 2.439 . S
Cd57 O67 2.240 . S
Cd58 O59 2.240 . S
Cd58 O66 2.223 . S
Cd58 O68 2.297 . S
Cd58 O69 2.439 . S
O59 Cd58 2.240 . S
O59 C64 1.279 . S
O60 Cd57 2.297 . S
O60 C62 1.247 . S
O61 Cd57 2.439 . S
O61 C62 1.208 . S
C62 O60 1.247 . S
C62 O61 1.208 . S
C63 O68 1.247 . S
C63 O69 1.208 . S
C64 O56 1.315 . S
C64 O59 1.279 . S
C65 O66 1.315 . S
C65 O67 1.279 . S
O66 Cd58 2.223 . S
O66 C65 1.315 . S
O67 Cd57 2.240 . S
O67 C65 1.279 . S
O68 Cd58 2.297 . S
O68 C63 1.247 . S
O69 Cd58 2.439 . S
O69 C63 1.208 . S
O70 Cd71 2.223 . S
O70 C78 1.315 . S
Cd71 O70 2.223 . S
Cd71 O74 2.297 . S
Cd71 O75 2.439 . S
Cd71 O81 2.240 . S
Cd72 O73 2.240 . S
Cd72 O80 2.223 . S
Cd72 O82 2.297 1_455 S
Cd72 O83 2.439 1_455 S
O73 Cd72 2.240 . S
O73 C78 1.279 . S
O74 Cd71 2.297 . S
O74 C76 1.247 . S
O75 Cd71 2.439 . S
O75 C76 1.208 . S
C76 O74 1.247 . S
C76 O75 1.208 . S
C77 O82 1.247 . S
C77 O83 1.208 . S
C78 O70 1.315 . S
C78 O73 1.279 . S
C79 O80 1.315 . S
C79 O81 1.279 . S
O80 Cd72 2.223 . S
O80 C79 1.315 . S
O81 Cd71 2.240 . S
O81 C79 1.279 . S
O82 Cd72 2.297 1_655 S
O82 C77 1.247 . S
O83 Cd72 2.439 1_655 S
O83 C77 1.208 . S
O84 Cd85 2.223 . S
O84 C92 1.315 . S
Cd85 O84 2.223 . S
Cd85 O88 2.297 . S
Cd85 O89 2.439 . S
Cd85 O95 2.240 . S
Cd86 O87 2.240 . S
Cd86 O94 2.223 . S
Cd86 O96 2.297 1_545 S
Cd86 O97 2.439 1_545 S
O87 Cd86 2.240 . S
O87 C92 1.279 . S
O88 Cd85 2.297 . S
O88 C90 1.247 . S
O89 Cd85 2.439 . S
O89 C90 1.208 . S
C90 O88 1.247 . S
C90 O89 1.208 . S
C91 O96 1.247 . S
C91 O97 1.208 . S
C92 O84 1.315 . S
C92 O87 1.279 . S
C93 O94 1.315 . S
C93 O95 1.279 . S
O94 Cd86 2.223 . S
O94 C93 1.315 . S
O95 Cd85 2.240 . S
O95 C93 1.279 . S
O96 Cd86 2.297 1_565 S
O96 C91 1.247 . S
O97 Cd86 2.439 1_565 S
O97 C91 1.208 . S
O98 Cd99 2.223 . S
O98 C106 1.315 . S
Cd99 O98 2.223 . S
Cd99 O102 2.297 . S
Cd99 O103 2.439 . S
Cd99 O109 2.240 . S
Cd100 O101 2.240 . S
Cd100 O108 2.223 . S
Cd100 O110 2.297 . S
Cd100 O111 2.439 . S
O101 Cd100 2.240 . S
O101 C106 1.279 . S
O102 Cd99 2.297 . S
O102 C104 1.247 . S
O103 Cd99 2.439 . S
O103 C104 1.208 . S
C104 O102 1.247 . S
C104 O103 1.208 . S
C105 O110 1.247 . S
C105 O111 1.208 . S
C106 O98 1.315 . S
C106 O101 1.279 . S
C107 O108 1.315 . S
C107 O109 1.279 . S
O108 Cd100 2.223 . S
O108 C107 1.315 . S
O109 Cd99 2.240 . S
O109 C107 1.279 . S
O110 Cd100 2.297 . S
O110 C105 1.247 . S
O111 Cd100 2.439 . S
O111 C105 1.208 . S
C112 C113 1.349 . S
C112 C114 1.327 . S
C112 H137 0.950 . S
C113 C112 1.349 . S
C113 C129 1.349 . S
C114 C112 1.327 . S
C114 C133 1.429 . S
C114 H138 0.950 . S
C115 C132 1.574 1_554 S
C115 C134 1.368 . S
C115 H139 0.949 . S
H116 C120 0.949 . S
C117 C118 1.349 . S
C117 C119 1.327 . S
C117 H140 0.961 . S
C118 C117 1.349 . S
C118 C130 1.349 . S
C119 C117 1.327 . S
C119 C135 1.429 . S
C119 H141 0.950 . S
C120 H116 0.949 . S
C120 C128 1.574 1_556 S
C120 C136 1.368 . S
H121 C129 0.950 . S
H122 C127 0.950 . S
H123 C128 0.949 . S
H124 C130 0.950 . S
H125 C131 0.950 . S
H126 C132 0.949 . S
C127 H122 0.950 . S
C127 C129 1.327 . S
C127 C133 1.429 . S
C128 C120 1.574 1_554 S
C128 H123 0.949 . S
C128 C134 1.368 . S
C129 C113 1.349 . S
C129 H121 0.950 . S
C129 C127 1.327 . S
C130 C118 1.349 . S
C130 H124 0.950 . S
C130 C131 1.327 . S
C131 H125 0.950 . S
C131 C130 1.327 . S
C131 C135 1.429 . S
C132 C115 1.574 1_556 S
C132 H126 0.949 . S
C132 C136 1.368 . S
C133 C114 1.429 . S
C133 C127 1.429 . S
C133 C134 1.523 . S
C134 C115 1.368 . S
C134 C128 1.368 . S
C134 C133 1.523 . S
C135 C119 1.429 . S
C135 C131 1.429 . S
C135 C136 1.523 . S
C136 C120 1.368 . S
C136 C132 1.368 . S
C136 C135 1.523 . S
H137 C112 0.950 . S
H138 C114 0.950 . S
H139 C115 0.949 . S
H140 C117 0.961 . S
H141 C119 0.950 . S
C142 C143 1.349 . S
C142 C144 1.327 . S
C142 H167 0.950 . S
C143 C142 1.349 . S
C143 C159 1.349 . S
C144 C142 1.327 . S
C144 C163 1.429 . S
C144 H168 0.950 . S
C145 C162 1.574 . S
C145 C164 1.368 . S
C145 H169 0.949 . S
H146 C150 0.949 . S
C147 C148 1.349 . S
C147 C149 1.327 . S
C147 H170 0.950 . S
C148 C147 1.349 . S
C148 C160 1.349 . S
C149 C147 1.327 . S
C149 C165 1.429 . S
C149 H171 0.950 . S
C150 H146 0.949 . S
C150 C158 1.574 . S
C150 C166 1.368 . S
H151 C159 0.950 . S
H152 C157 0.950 . S
H153 C158 0.949 . S
H154 C160 0.950 . S
H155 C161 0.950 . S
H156 C162 0.949 . S
C157 H152 0.950 . S
C157 C159 1.327 . S
C157 C163 1.429 . S
C158 C150 1.574 . S
C158 H153 0.949 . S
C158 C164 1.368 . S
C159 C143 1.349 . S
C159 H151 0.950 . S
C159 C157 1.327 . S
C160 C148 1.349 . S
C160 H154 0.950 . S
C160 C161 1.327 . S
C161 H155 0.950 . S
C161 C160 1.327 . S
C161 C165 1.429 . S
C162 C145 1.574 . S
C162 H156 0.949 . S
C162 C166 1.368 . S
C163 C144 1.429 . S
C163 C157 1.429 . S
C163 C164 1.523 . S
C164 C145 1.368 . S
C164 C158 1.368 . S
C164 C163 1.523 . S
C165 C149 1.429 . S
C165 C161 1.429 . S
C165 C166 1.523 . S
C166 C150 1.368 . S
C166 C162 1.368 . S
C166 C165 1.523 . S
H167 C142 0.950 . S
H168 C144 0.950 . S
H169 C145 0.949 . S
H170 C147 0.950 . S
H171 C149 0.950 . S
C172 C173 1.349 . S
C172 C174 1.327 . S
C172 H197 0.950 . S
C173 C172 1.349 . S
C173 C189 1.349 . S
C174 C172 1.327 . S
C174 C193 1.429 . S
C174 H198 0.950 . S
C175 C192 1.574 1_556 S
C175 C194 1.368 . S
C175 H199 0.949 . S
H176 C180 0.949 . S
C177 C178 1.349 . S
C177 C179 1.327 . S
C177 H200 0.950 . S
C178 C177 1.349 . S
C178 C190 1.349 . S
C179 C177 1.327 . S
C179 C195 1.429 . S
C179 H201 0.950 . S
C180 H176 0.949 . S
C180 C188 1.574 1_554 S
C180 C196 1.368 . S
H181 C189 0.950 . S
H182 C187 0.950 . S
H183 C188 0.949 . S
H184 C190 0.944 1_565 S
H185 C191 0.950 . S
H186 C192 0.949 . S
C187 H182 0.950 . S
C187 C189 1.327 . S
C187 C193 1.429 . S
C188 C180 1.574 1_556 S
C188 H183 0.949 . S
C188 C194 1.368 . S
C189 C173 1.349 . S
C189 H181 0.950 . S
C189 C187 1.327 . S
C190 C178 1.349 . S
C190 H184 0.944 1_545 S
C190 C191 1.327 . S
C191 H185 0.950 . S
C191 C190 1.327 . S
C191 C195 1.429 . S
C192 C175 1.574 1_554 S
C192 H186 0.949 . S
C192 C196 1.368 . S
C193 C174 1.429 . S
C193 C187 1.429 . S
C193 C194 1.523 . S
C194 C175 1.368 . S
C194 C188 1.368 . S
C194 C193 1.523 . S
C195 C179 1.429 . S
C195 C191 1.429 . S
C195 C196 1.523 . S
C196 C180 1.368 . S
C196 C192 1.368 . S
C196 C195 1.523 . S
H197 C172 0.950 . S
H198 C174 0.950 . S
H199 C175 0.949 . S
H200 C177 0.950 . S
H201 C179 0.950 . S
C202 C203 1.349 . S
C202 C204 1.327 . S
C202 H227 0.950 . S
C203 C202 1.349 . S
C203 C219 1.349 . S
C204 C202 1.327 . S
C204 C223 1.429 . S
C204 H228 0.950 . S
C205 C222 1.574 . S
C205 C224 1.368 . S
C205 H229 0.949 . S
H206 C210 0.949 . S
C207 C208 1.349 . S
C207 C209 1.327 . S
C207 H230 0.950 . S
C208 C207 1.349 . S
C208 C220 1.349 . S
C209 C207 1.327 . S
C209 C225 1.429 . S
C209 H231 0.950 . S
C210 H206 0.949 . S
C210 C218 1.574 . S
C210 C226 1.368 . S
H211 C219 0.950 . S
H212 C217 0.950 . S
H213 C218 0.949 . S
H214 C220 0.950 . S
H215 C221 0.950 . S
H216 C222 0.949 . S
C217 H212 0.950 . S
C217 C219 1.327 . S
C217 C223 1.429 . S
C218 C210 1.574 . S
C218 H213 0.949 . S
C218 C224 1.368 . S
C219 C203 1.349 . S
C219 H211 0.950 . S
C219 C217 1.327 . S
C220 C208 1.349 . S
C220 H214 0.950 . S
C220 C221 1.327 . S
C221 H215 0.950 . S
C221 C220 1.327 . S
C221 C225 1.429 . S
C222 C205 1.574 . S
C222 H216 0.949 . S
C222 C226 1.368 . S
C223 C204 1.429 . S
C223 C217 1.429 . S
C223 C224 1.523 . S
C224 C205 1.368 . S
C224 C218 1.368 . S
C224 C223 1.523 . S
C225 C209 1.429 . S
C225 C221 1.429 . S
C225 C226 1.523 . S
C226 C210 1.368 . S
C226 C222 1.368 . S
C226 C225 1.523 . S
H227 C202 0.950 . S
H228 C204 0.950 . S
H229 C205 0.949 . S
H230 C207 0.950 . S
H231 C209 0.950 . S
C232 C233 1.349 . S
C232 C234 1.327 . S
C232 H257 0.950 . S
C233 C232 1.349 . S
C233 C249 1.349 . S
C234 C232 1.327 . S
C234 C253 1.429 . S
C234 H258 0.950 . S
C235 C252 1.574 . S
C235 C254 1.368 . S
C235 H259 0.949 . S
H236 C240 0.949 . S
C237 C238 1.349 . S
C237 C239 1.327 . S
C237 H260 0.950 . S
C238 C237 1.349 . S
C238 C250 1.349 . S
C239 C237 1.327 . S
C239 C255 1.429 . S
C239 H261 0.950 . S
C240 H236 0.949 . S
C240 C248 1.574 . S
C240 C256 1.368 . S
H241 C249 0.950 . S
H242 C247 0.950 . S
H243 C248 0.949 . S
H244 C250 0.950 . S
H245 C251 0.950 . S
H246 C252 0.949 . S
C247 H242 0.950 . S
C247 C249 1.327 . S
C247 C253 1.429 . S
C248 C240 1.574 . S
C248 H243 0.949 . S
C248 C254 1.368 . S
C249 C233 1.349 . S
C249 H241 0.950 . S
C249 C247 1.327 . S
C250 C238 1.349 . S
C250 H244 0.950 . S
C250 C251 1.327 . S
C251 H245 0.950 . S
C251 C250 1.327 . S
C251 C255 1.429 . S
C252 C235 1.574 . S
C252 H246 0.949 . S
C252 C256 1.368 . S
C253 C234 1.429 . S
C253 C247 1.429 . S
C253 C254 1.523 . S
C254 C235 1.368 . S
C254 C248 1.368 . S
C254 C253 1.523 . S
C255 C239 1.429 . S
C255 C251 1.429 . S
C255 C256 1.523 . S
C256 C240 1.368 . S
C256 C252 1.368 . S
C256 C255 1.523 . S
H257 C232 0.950 . S
H258 C234 0.950 . S
H259 C235 0.949 . S
H260 C237 0.950 . S
H261 C239 0.950 . S
C262 C263 1.349 . S
C262 C264 1.327 . S
C262 H287 0.950 . S
C263 C262 1.349 . S
C263 C279 1.349 . S
C264 C262 1.327 . S
C264 C283 1.429 . S
C264 H288 0.950 . S
C265 C282 1.574 . S
C265 C284 1.368 . S
C265 H289 0.949 . S
H266 C270 0.949 . S
C267 C268 1.349 . S
C267 C269 1.327 . S
C267 H290 0.950 . S
C268 C267 1.349 . S
C268 C280 1.349 . S
C269 C267 1.327 . S
C269 C285 1.429 . S
C269 H291 0.950 . S
C270 H266 0.949 . S
C270 C278 1.574 . S
C270 C286 1.368 . S
H271 C279 0.950 . S
H272 C277 0.950 . S
H273 C278 0.949 . S
H274 C280 0.950 . S
H275 C281 0.950 . S
H276 C282 0.949 . S
C277 H272 0.950 . S
C277 C279 1.327 . S
C277 C283 1.429 . S
C278 C270 1.574 . S
C278 H273 0.949 . S
C278 C284 1.368 . S
C279 C263 1.349 . S
C279 H271 0.950 . S
C279 C277 1.327 . S
C280 C268 1.349 . S
C280 H274 0.950 . S
C280 C281 1.327 . S
C281 H275 0.950 . S
C281 C280 1.327 . S
C281 C285 1.429 . S
C282 C265 1.574 . S
C282 H276 0.949 . S
C282 C286 1.368 . S
C283 C264 1.429 . S
C283 C277 1.429 . S
C283 C284 1.523 . S
C284 C265 1.368 . S
C284 C278 1.368 . S
C284 C283 1.523 . S
C285 C269 1.429 . S
C285 C281 1.429 . S
C285 C286 1.523 . S
C286 C270 1.368 . S
C286 C282 1.368 . S
C286 C285 1.523 . S
H287 C262 0.950 . S
H288 C264 0.950 . S
H289 C265 0.949 . S
H290 C267 0.950 . S
H291 C269 0.950 . S
C292 C293 1.349 . S
C292 C294 1.327 . S
C292 H317 0.950 . S
C293 C292 1.349 . S
C293 C309 1.349 . S
C294 C292 1.327 . S
C294 C313 1.429 . S
C294 H318 0.950 . S
C295 C312 1.574 . S
C295 C314 1.368 . S
C295 H319 0.949 . S
H296 C300 0.949 . S
C297 C298 1.349 . S
C297 C299 1.327 . S
C297 H320 0.950 . S
C298 C297 1.349 . S
C298 C310 1.349 . S
C299 C297 1.327 . S
C299 C315 1.429 . S
C299 H321 0.950 . S
C300 H296 0.949 . S
C300 C308 1.574 . S
C300 C316 1.368 . S
H301 C309 0.950 . S
H302 C307 0.950 . S
H303 C308 0.949 . S
H304 C310 0.950 . S
H305 C311 0.950 . S
H306 C312 0.949 . S
C307 H302 0.950 . S
C307 C309 1.327 . S
C307 C313 1.429 . S
C308 C300 1.574 . S
C308 H303 0.949 . S
C308 C314 1.368 . S
C309 C293 1.349 . S
C309 H301 0.950 . S
C309 C307 1.327 . S
C310 C298 1.349 . S
C310 H304 0.950 . S
C310 C311 1.327 . S
C311 H305 0.950 . S
C311 C310 1.327 . S
C311 C315 1.429 . S
C312 C295 1.574 . S
C312 H306 0.949 . S
C312 C316 1.368 . S
C313 C294 1.429 . S
C313 C307 1.429 . S
C313 C314 1.523 . S
C314 C295 1.368 . S
C314 C308 1.368 . S
C314 C313 1.523 . S
C315 C299 1.429 . S
C315 C311 1.429 . S
C315 C316 1.523 . S
C316 C300 1.368 . S
C316 C312 1.368 . S
C316 C315 1.523 . S
H317 C292 0.950 . S
H318 C294 0.950 . S
H319 C295 0.949 . S
H320 C297 0.950 . S
H321 C299 0.950 . S
C322 C323 1.349 . S
C322 C324 1.327 . S
C322 H347 0.950 . S
C323 C322 1.349 . S
C323 C339 1.349 . S
C324 C322 1.327 . S
C324 C343 1.429 . S
C324 H348 0.950 . S
C325 C342 1.574 . S
C325 C344 1.368 . S
C325 H349 0.949 . S
H326 C330 0.949 . S
C327 C328 1.349 . S
C327 C329 1.327 . S
C327 H350 0.950 . S
C328 C327 1.349 . S
C328 C340 1.349 . S
C329 C327 1.327 . S
C329 C345 1.429 . S
C329 H351 0.950 . S
C330 H326 0.949 . S
C330 C338 1.574 . S
C330 C346 1.368 . S
H331 C339 0.950 . S
H332 C337 0.950 . S
H333 C338 0.949 . S
H334 C340 0.950 . S
H335 C341 0.950 . S
H336 C342 0.949 . S
C337 H332 0.950 . S
C337 C339 1.327 . S
C337 C343 1.429 . S
C338 C330 1.574 . S
C338 H333 0.949 . S
C338 C344 1.368 . S
C339 C323 1.349 . S
C339 H331 0.950 . S
C339 C337 1.327 . S
C340 C328 1.349 . S
C340 H334 0.950 . S
C340 C341 1.327 . S
C341 H335 0.950 . S
C341 C340 1.327 . S
C341 C345 1.429 . S
C342 C325 1.574 . S
C342 H336 0.949 . S
C342 C346 1.368 . S
C343 C324 1.429 . S
C343 C337 1.429 . S
C343 C344 1.523 . S
C344 C325 1.368 . S
C344 C338 1.368 . S
C344 C343 1.523 . S
C345 C329 1.429 . S
C345 C341 1.429 . S
C345 C346 1.523 . S
C346 C330 1.368 . S
C346 C342 1.368 . S
C346 C345 1.523 . S
H347 C322 0.950 . S
H348 C324 0.950 . S
H349 C325 0.949 . S
H350 C327 0.950 . S
H351 C329 0.950 . S
C352 C353 1.349 . S
C352 C354 1.327 . S
C352 H377 0.950 . S
C353 C352 1.349 . S
C353 C369 1.349 . S
C354 C352 1.327 . S
C354 C373 1.429 . S
C354 H378 0.950 . S
C355 C372 1.574 . S
C355 C374 1.368 . S
C355 H379 0.949 . S
H356 C360 0.949 . S
C357 C358 1.349 . S
C357 C359 1.327 . S
C357 H380 0.950 . S
C358 C357 1.349 . S
C358 C370 1.349 . S
C359 C357 1.327 . S
C359 C375 1.429 . S
C359 H381 0.950 . S
C360 H356 0.949 . S
C360 C368 1.574 . S
C360 C376 1.368 . S
H361 C369 0.950 . S
H362 C367 0.950 . S
H363 C368 0.949 . S
H364 C370 0.950 . S
H365 C371 0.950 . S
H366 C372 0.949 . S
C367 H362 0.950 . S
C367 C369 1.327 . S
C367 C373 1.429 . S
C368 C360 1.574 . S
C368 H363 0.949 . S
C368 C374 1.368 . S
C369 C353 1.349 . S
C369 H361 0.950 . S
C369 C367 1.327 . S
C370 C358 1.349 . S
C370 H364 0.950 . S
C370 C371 1.327 . S
C371 H365 0.950 . S
C371 C370 1.327 . S
C371 C375 1.429 . S
C372 C355 1.574 . S
C372 H366 0.949 . S
C372 C376 1.368 . S
C373 C354 1.429 . S
C373 C367 1.429 . S
C373 C374 1.523 . S
C374 C355 1.368 . S
C374 C368 1.368 . S
C374 C373 1.523 . S
C375 C359 1.429 . S
C375 C371 1.429 . S
C375 C376 1.523 . S
C376 C360 1.368 . S
C376 C372 1.368 . S
C376 C375 1.523 . S
H377 C352 0.950 . S
H378 C354 0.950 . S
H379 C355 0.949 . S
H380 C357 0.950 . S
H381 C359 0.950 . S
C382 C383 1.349 . S
C382 C384 1.327 . S
C382 H407 0.950 1_655 S
C383 C382 1.349 . S
C383 C399 1.349 . S
C384 C382 1.327 . S
C384 C403 1.429 . S
C384 H408 0.950 . S
C385 C402 1.574 . S
C385 C404 1.368 . S
C385 H409 0.949 . S
H386 C390 0.949 . S
C387 C388 1.349 . S
C387 C389 1.327 . S
C387 H410 0.950 . S
C388 C387 1.349 . S
C388 C400 1.349 . S
C389 C387 1.327 . S
C389 C405 1.429 . S
C389 H411 0.950 . S
C390 H386 0.949 . S
C390 C398 1.574 . S
C390 C406 1.368 . S
H391 C399 0.950 . S
H392 C397 0.950 . S
H393 C398 0.949 . S
H394 C400 0.950 . S
H395 C401 0.950 . S
H396 C402 0.949 . S
C397 H392 0.950 . S
C397 C399 1.327 . S
C397 C403 1.429 . S
C398 C390 1.574 . S
C398 H393 0.949 . S
C398 C404 1.368 . S
C399 C383 1.349 . S
C399 H391 0.950 . S
C399 C397 1.327 . S
C400 C388 1.349 . S
C400 H394 0.950 . S
C400 C401 1.327 . S
C401 H395 0.950 . S
C401 C400 1.327 . S
C401 C405 1.429 . S
C402 C385 1.574 . S
C402 H396 0.949 . S
C402 C406 1.368 . S
C403 C384 1.429 . S
C403 C397 1.429 . S
C403 C404 1.523 . S
C404 C385 1.368 . S
C404 C398 1.368 . S
C404 C403 1.523 . S
C405 C389 1.429 . S
C405 C401 1.429 . S
C405 C406 1.523 . S
C406 C390 1.368 . S
C406 C402 1.368 . S
C406 C405 1.523 . S
H407 C382 0.950 1_455 S
H408 C384 0.950 . S
H409 C385 0.949 . S
H410 C387 0.950 . S
H411 C389 0.950 . S
C412 C413 1.349 . S
C412 C414 1.327 . S
C412 H437 0.950 . S
C413 C412 1.349 . S
C413 C429 1.349 . S
C414 C412 1.327 . S
C414 C433 1.429 . S
C414 H438 0.950 . S
C415 C432 1.574 . S
C415 C434 1.368 . S
C415 H439 0.949 . S
H416 C420 0.949 . S
C417 C418 1.349 . S
C417 C419 1.327 . S
C417 H440 0.950 1_565 S
C418 C417 1.349 . S
C418 C430 1.349 . S
C419 C417 1.327 . S
C419 C435 1.429 . S
C419 H441 0.950 . S
C420 H416 0.949 . S
C420 C428 1.574 . S
C420 C436 1.368 . S
H421 C429 0.950 1_455 S
H422 C427 0.950 . S
H423 C428 0.949 . S
H424 C430 0.950 . S
H425 C431 0.950 . S
H426 C432 0.949 . S
C427 H422 0.950 . S
C427 C429 1.327 . S
C427 C433 1.429 . S
C428 C420 1.574 . S
C428 H423 0.949 . S
C428 C434 1.368 . S
C429 C413 1.349 . S
C429 H421 0.950 1_655 S
C429 C427 1.327 . S
C430 C418 1.349 . S
C430 H424 0.950 . S
C430 C431 1.327 . S
C431 H425 0.950 . S
C431 C430 1.327 . S
C431 C435 1.429 . S
C432 C415 1.574 . S
C432 H426 0.949 . S
C432 C436 1.368 . S
C433 C414 1.429 . S
C433 C427 1.429 . S
C433 C434 1.523 . S
C434 C415 1.368 . S
C434 C428 1.368 . S
C434 C433 1.523 . S
C435 C419 1.429 . S
C435 C431 1.429 . S
C435 C436 1.523 . S
C436 C420 1.368 . S
C436 C432 1.368 . S
C436 C435 1.523 . S
H437 C412 0.950 . S
H438 C414 0.950 . S
H439 C415 0.949 . S
H440 C417 0.950 1_545 S
H441 C419 0.950 . S
C442 C443 1.349 . S
C442 C444 1.327 . S
C442 H467 0.950 . S
C443 C442 1.349 . S
C443 C459 1.349 . S
C444 C442 1.327 . S
C444 C463 1.429 . S
C444 H468 0.950 . S
C445 C462 1.574 . S
C445 C464 1.368 . S
C445 H469 0.949 . S
H446 C450 0.949 . S
C447 C448 1.349 . S
C447 C449 1.327 . S
C447 H470 0.950 . S
C448 C447 1.349 . S
C448 C460 1.349 . S
C449 C447 1.327 . S
C449 C465 1.429 . S
C449 H471 0.950 . S
C450 H446 0.949 . S
C450 C458 1.574 . S
C450 C466 1.368 . S
H451 C459 0.950 . S
H452 C457 0.950 . S
H453 C458 0.949 . S
H454 C460 0.950 1_545 S
H455 C461 0.950 . S
H456 C462 0.949 . S
C457 H452 0.950 . S
C457 C459 1.327 . S
C457 C463 1.429 . S
C458 C450 1.574 . S
C458 H453 0.949 . S
C458 C464 1.368 . S
C459 C443 1.349 . S
C459 H451 0.950 . S
C459 C457 1.327 . S
C460 C448 1.349 . S
C460 H454 0.950 1_565 S
C460 C461 1.327 . S
C461 H455 0.950 . S
C461 C460 1.327 . S
C461 C465 1.429 . S
C462 C445 1.574 . S
C462 H456 0.949 . S
C462 C466 1.368 . S
C463 C444 1.429 . S
C463 C457 1.429 . S
C463 C464 1.523 . S
C464 C445 1.368 . S
C464 C458 1.368 . S
C464 C463 1.523 . S
C465 C449 1.429 . S
C465 C461 1.429 . S
C465 C466 1.523 . S
C466 C450 1.368 . S
C466 C462 1.368 . S
C466 C465 1.523 . S
H467 C442 0.950 . S
H468 C444 0.950 . S
H469 C445 0.949 . S
H470 C447 0.950 . S
H471 C449 0.950 . S
C472 C473 1.349 . S
C472 C474 1.327 . S
C472 H497 0.950 . S
C473 C472 1.349 . S
C473 C489 1.349 . S
C474 C472 1.327 . S
C474 C493 1.429 . S
C474 H498 0.950 . S
C475 C492 1.574 . S
C475 C494 1.368 . S
C475 H499 0.949 . S
H476 C480 0.949 . S
C477 C478 1.349 . S
C477 C479 1.327 . S
C477 H500 0.950 . S
C478 C477 1.349 . S
C478 C490 1.349 . S
C479 C477 1.327 . S
C479 C495 1.429 . S
C479 H501 0.950 . S
C480 H476 0.949 . S
C480 C488 1.574 . S
C480 C496 1.368 . S
H481 C489 0.950 . S
H482 C487 0.950 . S
H483 C488 0.949 . S
H484 C490 0.950 . S
H485 C491 0.950 . S
H486 C492 0.949 . S
C487 H482 0.950 . S
C487 C489 1.327 . S
C487 C493 1.429 . S
C488 C480 1.574 . S
C488 H483 0.949 . S
C488 C494 1.368 . S
C489 C473 1.349 . S
C489 H481 0.950 . S
C489 C487 1.327 . S
C490 C478 1.349 . S
C490 H484 0.950 . S
C490 C491 1.327 . S
C491 H485 0.950 . S
C491 C490 1.327 . S
C491 C495 1.429 . S
C492 C475 1.574 . S
C492 H486 0.949 . S
C492 C496 1.368 . S
C493 C474 1.429 . S
C493 C487 1.429 . S
C493 C494 1.523 . S
C494 C475 1.368 . S
C494 C488 1.368 . S
C494 C493 1.523 . S
C495 C479 1.429 . S
C495 C491 1.429 . S
C495 C496 1.523 . S
C496 C480 1.368 . S
C496 C492 1.368 . S
C496 C495 1.523 . S
H497 C472 0.950 . S
H498 C474 0.950 . S
H499 C475 0.949 . S
H500 C477 0.950 . S
H501 C479 0.950 . S
C502 C503 1.349 . S
C502 C504 1.327 . S
C502 H527 0.950 . S
C503 C502 1.349 . S
C503 C519 1.349 . S
C504 C502 1.327 . S
C504 C523 1.429 . S
C504 H528 0.950 . S
C505 C522 1.574 . S
C505 C524 1.368 . S
C505 H529 0.949 . S
H506 C510 0.949 . S
C507 C508 1.349 . S
C507 C509 1.327 . S
C507 H530 0.950 . S
C508 C507 1.349 . S
C508 C520 1.349 . S
C509 C507 1.327 . S
C509 C525 1.429 . S
C509 H531 0.950 . S
C510 H506 0.949 . S
C510 C518 1.574 . S
C510 C526 1.368 . S
H511 C519 0.950 . S
H512 C517 0.950 . S
H513 C518 0.949 . S
H514 C520 0.950 . S
H515 C521 0.950 . S
H516 C522 0.949 . S
C517 H512 0.950 . S
C517 C519 1.327 . S
C517 C523 1.429 . S
C518 C510 1.574 . S
C518 H513 0.949 . S
C518 C524 1.368 . S
C519 C503 1.349 . S
C519 H511 0.950 . S
C519 C517 1.327 . S
C520 C508 1.349 . S
C520 H514 0.950 . S
C520 C521 1.327 . S
C521 H515 0.950 . S
C521 C520 1.327 . S
C521 C525 1.429 . S
C522 C505 1.574 . S
C522 H516 0.949 . S
C522 C526 1.368 . S
C523 C504 1.429 . S
C523 C517 1.429 . S
C523 C524 1.523 . S
C524 C505 1.368 . S
C524 C518 1.368 . S
C524 C523 1.523 . S
C525 C509 1.429 . S
C525 C521 1.429 . S
C525 C526 1.523 . S
C526 C510 1.368 . S
C526 C522 1.368 . S
C526 C525 1.523 . S
H527 C502 0.950 . S
H528 C504 0.950 . S
H529 C505 0.949 . S
H530 C507 0.950 . S
H531 C509 0.950 . S
C532 C533 1.349 . S
C532 C534 1.327 . S
C532 H557 0.950 . S
C533 C532 1.349 . S
C533 C549 1.349 . S
C534 C532 1.327 . S
C534 C553 1.429 . S
C534 H558 0.950 . S
C535 C552 1.574 . S
C535 C554 1.368 . S
C535 H559 0.949 . S
H536 C540 0.949 . S
C537 C538 1.349 . S
C537 C539 1.327 . S
C537 H560 0.950 . S
C538 C537 1.349 . S
C538 C550 1.349 . S
C539 C537 1.327 . S
C539 C555 1.429 . S
C539 H561 0.950 . S
C540 H536 0.949 . S
C540 C548 1.574 . S
C540 C556 1.368 . S
H541 C549 0.950 . S
H542 C547 0.950 . S
H543 C548 0.949 . S
H544 C550 0.950 . S
H545 C551 0.950 . S
H546 C552 0.949 . S
C547 H542 0.950 . S
C547 C549 1.327 . S
C547 C553 1.429 . S
C548 C540 1.574 . S
C548 H543 0.949 . S
C548 C554 1.368 . S
C549 C533 1.349 . S
C549 H541 0.950 . S
C549 C547 1.327 . S
C550 C538 1.349 . S
C550 H544 0.950 . S
C550 C551 1.327 . S
C551 H545 0.950 . S
C551 C550 1.327 . S
C551 C555 1.429 . S
C552 C535 1.574 . S
C552 H546 0.949 . S
C552 C556 1.368 . S
C553 C534 1.429 . S
C553 C547 1.429 . S
C553 C554 1.523 . S
C554 C535 1.368 . S
C554 C548 1.368 . S
C554 C553 1.523 . S
C555 C539 1.429 . S
C555 C551 1.429 . S
C555 C556 1.523 . S
C556 C540 1.368 . S
C556 C552 1.368 . S
C556 C555 1.523 . S
H557 C532 0.950 . S
H558 C534 0.950 . S
H559 C535 0.949 . S
H560 C537 0.950 . S
H561 C539 0.950 . S
C562 C563 1.349 . S
C562 C564 1.327 . S
C562 H587 0.950 . S
C563 C562 1.349 . S
C563 C579 1.349 . S
C564 C562 1.327 . S
C564 C583 1.429 . S
C564 H588 0.950 . S
C565 C582 1.574 . S
C565 C584 1.368 . S
C565 H589 0.949 . S
H566 C570 0.949 . S
C567 C568 1.349 . S
C567 C569 1.327 . S
C567 H590 0.950 . S
C568 C567 1.349 . S
C568 C580 1.349 . S
C569 C567 1.327 . S
C569 C585 1.429 . S
C569 H591 0.950 . S
C570 H566 0.949 . S
C570 C578 1.574 . S
C570 C586 1.368 . S
H571 C579 0.950 . S
H572 C577 0.950 . S
H573 C578 0.949 . S
H574 C580 0.950 . S
H575 C581 0.950 . S
H576 C582 0.949 . S
C577 H572 0.950 . S
C577 C579 1.327 . S
C577 C583 1.429 . S
C578 C570 1.574 . S
C578 H573 0.949 . S
C578 C584 1.368 . S
C579 C563 1.349 . S
C579 H571 0.950 . S
C579 C577 1.327 . S
C580 C568 1.349 . S
C580 H574 0.950 . S
C580 C581 1.327 . S
C581 H575 0.950 . S
C581 C580 1.327 . S
C581 C585 1.429 . S
C582 C565 1.574 . S
C582 H576 0.949 . S
C582 C586 1.368 . S
C583 C564 1.429 . S
C583 C577 1.429 . S
C583 C584 1.523 . S
C584 C565 1.368 . S
C584 C578 1.368 . S
C584 C583 1.523 . S
C585 C569 1.429 . S
C585 C581 1.429 . S
C585 C586 1.523 . S
C586 C570 1.368 . S
C586 C582 1.368 . S
C586 C585 1.523 . S
H587 C562 0.950 . S
H588 C564 0.950 . S
H589 C565 0.949 . S
H590 C567 0.950 . S
H591 C569 0.950 . S
C113 C8 1.689 . S
C118 C64 1.689 . S
C143 C22 1.689 . S
C148 C78 1.689 . S
C173 C92 1.689 . S
C178 C36 1.689 . S
C203 C106 1.689 . S
C208 C50 1.689 . S
C233 C6 1.241 . S
C238 C34 1.241 . S
C263 C20 1.240 . S
C268 C48 1.240 . S
C293 C90 1.240 . S
C298 C62 1.240 . S
C323 C76 1.241 . S
C328 C104 1.241 . S
C353 C79 2.165 . S
C358 C9 2.165 . S
C383 C23 2.165 1_655 S
C388 C93 2.165 . S
C413 C107 2.165 1_655 S
C418 C37 2.165 1_565 S
C443 C51 2.165 . S
C448 C65 2.165 1_565 S
C473 C91 0.737 . S
C478 C49 0.737 . S
C503 C7 0.737 . S
C508 C105 0.737 . S
C533 C21 0.737 . S
C538 C63 0.737 . S
C563 C77 0.737 . S
C568 C35 0.737 . S
