# Generated by pormake.
# Topology smn, (6)-cn, num edge types: 1
# Building blocks:
#     Node 0, Type 0, BuildingBlock: UKALOJ_clean_sbu_0, # of connection points: 6
#     Node 1, Type 0, BuildingBlock: UKALOJ_clean_sbu_0, # of connection points: 6
#     Node 2, Type 0, BuildingBlock: UKALOJ_clean_sbu_0, # of connection points: 6
#     Node 3, Type 0, BuildingBlock: UKALOJ_clean_sbu_0, # of connection points: 6
#     Node 4, Type 0, BuildingBlock: UKALOJ_clean_sbu_0, # of connection points: 6
#     Node 5, Type 0, BuildingBlock: UKALOJ_clean_sbu_0, # of connection points: 6
#     Node 6, Type 0, BuildingBlock: UKALOJ_clean_sbu_0, # of connection points: 6
#     Node 7, Type 0, BuildingBlock: UKALOJ_clean_sbu_0, # of connection points: 6
#     Node 8, Type 0, BuildingBlock: UKALOJ_clean_sbu_0, # of connection points: 6
#     Node 9, Type 0, BuildingBlock: UKALOJ_clean_sbu_0, # of connection points: 6
#     Node 10, Type 0, BuildingBlock: UKALOJ_clean_sbu_0, # of connection points: 6
#     Node 11, Type 0, BuildingBlock: UKALOJ_clean_sbu_0, # of connection points: 6
#     Node 12, Type 0, BuildingBlock: UKALOJ_clean_sbu_0, # of connection points: 6
#     Node 13, Type 0, BuildingBlock: UKALOJ_clean_sbu_0, # of connection points: 6
#     Node 14, Type 0, BuildingBlock: UKALOJ_clean_sbu_0, # of connection points: 6
#     Node 15, Type 0, BuildingBlock: UKALOJ_clean_sbu_0, # of connection points: 6
#     Node 16, Type 0, BuildingBlock: UKALOJ_clean_sbu_0, # of connection points: 6
#     Node 17, Type 0, BuildingBlock: UKALOJ_clean_sbu_0, # of connection points: 6
#     Edge 18, Type (0, 0), BuildingBlock: AJUNOK_clean_linker_0, # of connection points: 2
#     Edge 19, Type (0, 0), BuildingBlock: AJUNOK_clean_linker_0, # of connection points: 2
#     Edge 20, Type (0, 0), BuildingBlock: AJUNOK_clean_linker_0, # of connection points: 2
#     Edge 21, Type (0, 0), BuildingBlock: AJUNOK_clean_linker_0, # of connection points: 2
#     Edge 22, Type (0, 0), BuildingBlock: AJUNOK_clean_linker_0, # of connection points: 2
#     Edge 23, Type (0, 0), BuildingBlock: AJUNOK_clean_linker_0, # of connection points: 2
#     Edge 24, Type (0, 0), BuildingBlock: AJUNOK_clean_linker_0, # of connection points: 2
#     Edge 25, Type (0, 0), BuildingBlock: AJUNOK_clean_linker_0, # of connection points: 2
#     Edge 26, Type (0, 0), BuildingBlock: AJUNOK_clean_linker_0, # of connection points: 2
#     Edge 27, Type (0, 0), BuildingBlock: AJUNOK_clean_linker_0, # of connection points: 2
#     Edge 28, Type (0, 0), BuildingBlock: AJUNOK_clean_linker_0, # of connection points: 2
#     Edge 29, Type (0, 0), BuildingBlock: AJUNOK_clean_linker_0, # of connection points: 2
#     Edge 30, Type (0, 0), BuildingBlock: AJUNOK_clean_linker_0, # of connection points: 2
#     Edge 31, Type (0, 0), BuildingBlock: AJUNOK_clean_linker_0, # of connection points: 2
#     Edge 32, Type (0, 0), BuildingBlock: AJUNOK_clean_linker_0, # of connection points: 2
#     Edge 33, Type (0, 0), BuildingBlock: AJUNOK_clean_linker_0, # of connection points: 2
#     Edge 34, Type (0, 0), BuildingBlock: AJUNOK_clean_linker_0, # of connection points: 2
#     Edge 35, Type (0, 0), BuildingBlock: AJUNOK_clean_linker_0, # of connection points: 2
#     Edge 36, Type (0, 0), BuildingBlock: AJUNOK_clean_linker_0, # of connection points: 2
#     Edge 37, Type (0, 0), BuildingBlock: AJUNOK_clean_linker_0, # of connection points: 2
#     Edge 38, Type (0, 0), BuildingBlock: AJUNOK_clean_linker_0, # of connection points: 2
#     Edge 39, Type (0, 0), BuildingBlock: AJUNOK_clean_linker_0, # of connection points: 2
#     Edge 40, Type (0, 0), BuildingBlock: AJUNOK_clean_linker_0, # of connection points: 2
#     Edge 41, Type (0, 0), BuildingBlock: AJUNOK_clean_linker_0, # of connection points: 2
#     Edge 42, Type (0, 0), BuildingBlock: AJUNOK_clean_linker_0, # of connection points: 2
#     Edge 43, Type (0, 0), BuildingBlock: AJUNOK_clean_linker_0, # of connection points: 2
#     Edge 44, Type (0, 0), BuildingBlock: AJUNOK_clean_linker_0, # of connection points: 2
#     Edge 45, Type (0, 0), BuildingBlock: AJUNOK_clean_linker_0, # of connection points: 2
#     Edge 46, Type (0, 0), BuildingBlock: AJUNOK_clean_linker_0, # of connection points: 2
#     Edge 47, Type (0, 0), BuildingBlock: AJUNOK_clean_linker_0, # of connection points: 2
#     Edge 48, Type (0, 0), BuildingBlock: AJUNOK_clean_linker_0, # of connection points: 2
#     Edge 49, Type (0, 0), BuildingBlock: AJUNOK_clean_linker_0, # of connection points: 2
#     Edge 50, Type (0, 0), BuildingBlock: AJUNOK_clean_linker_0, # of connection points: 2
#     Edge 51, Type (0, 0), BuildingBlock: AJUNOK_clean_linker_0, # of connection points: 2
#     Edge 52, Type (0, 0), BuildingBlock: AJUNOK_clean_linker_0, # of connection points: 2
#     Edge 53, Type (0, 0), BuildingBlock: AJUNOK_clean_linker_0, # of connection points: 2
#     Edge 54, Type (0, 0), BuildingBlock: AJUNOK_clean_linker_0, # of connection points: 2
#     Edge 55, Type (0, 0), BuildingBlock: AJUNOK_clean_linker_0, # of connection points: 2
#     Edge 56, Type (0, 0), BuildingBlock: AJUNOK_clean_linker_0, # of connection points: 2
#     Edge 57, Type (0, 0), BuildingBlock: AJUNOK_clean_linker_0, # of connection points: 2
#     Edge 58, Type (0, 0), BuildingBlock: AJUNOK_clean_linker_0, # of connection points: 2
#     Edge 59, Type (0, 0), BuildingBlock: AJUNOK_clean_linker_0, # of connection points: 2
#     Edge 60, Type (0, 0), BuildingBlock: AJUNOK_clean_linker_0, # of connection points: 2
#     Edge 61, Type (0, 0), BuildingBlock: AJUNOK_clean_linker_0, # of connection points: 2
#     Edge 62, Type (0, 0), BuildingBlock: AJUNOK_clean_linker_0, # of connection points: 2
#     Edge 63, Type (0, 0), BuildingBlock: AJUNOK_clean_linker_0, # of connection points: 2
#     Edge 64, Type (0, 0), BuildingBlock: AJUNOK_clean_linker_0, # of connection points: 2
#     Edge 65, Type (0, 0), BuildingBlock: AJUNOK_clean_linker_0, # of connection points: 2
#     Edge 66, Type (0, 0), BuildingBlock: AJUNOK_clean_linker_0, # of connection points: 2
#     Edge 67, Type (0, 0), BuildingBlock: AJUNOK_clean_linker_0, # of connection points: 2
#     Edge 68, Type (0, 0), BuildingBlock: AJUNOK_clean_linker_0, # of connection points: 2
#     Edge 69, Type (0, 0), BuildingBlock: AJUNOK_clean_linker_0, # of connection points: 2
#     Edge 70, Type (0, 0), BuildingBlock: AJUNOK_clean_linker_0, # of connection points: 2
#     Edge 71, Type (0, 0), BuildingBlock: AJUNOK_clean_linker_0, # of connection points: 2
# Relax obj value: 0.236
# Max RMSD: 0.266
# Mean RMSD: 0.266
data_MOF--net-smn--node1-UKALOJ_clean_sbu_0--edge1-AJUNOK_clean_linker_0
_symmetry_space_group_name_H-M    P1
_symmetry_Int_Tables_number       1
_symmetry_cell_setting            triclinic
loop_
_symmetry_equiv_pos_as_xyz
'x, y, z'
_cell_length_a     48.948595
_cell_length_b     48.921472
_cell_length_c     15.760236
_cell_angle_alpha  90.004146
_cell_angle_beta   89.959057
_cell_angle_gamma 119.93483
loop_
_atom_site_label
_atom_site_type_symbol
_atom_site_fract_x
_atom_site_fract_y
_atom_site_fract_z
_atom_type_partial_charge
Zn0 Zn 0.01326 0.23315 0.70509 0.0
O1 O 0.98378 0.25044 0.75883 0.0
C2 C 0.98599 0.18406 0.83712 0.0
Zn3 Zn 0.04322 0.24818 0.82147 0.0
C4 C 0.99111 0.26297 0.83275 0.0
O5 O 0.01547 0.26579 0.8695 0.0
C6 C 0.0672 0.22007 0.69622 0.0
O7 O 0.07443 0.29364 0.76159 0.0
O8 O 0.04294 0.27701 0.65048 0.0
N9 N 0.0683 0.25903 0.93345 0.0
C10 C 0.09676 0.26205 0.94963 0.0
C11 C 0.07088 0.24877 0.065 0.0
N12 N 0.05253 0.25137 1.00578 0.0
N13 N 0.09869 0.25452 0.03171 0.0
C14 C 0.9613 0.19075 0.576 0.0
C15 C 0.98946 0.20227 0.4647 0.0
N16 N 0.98895 0.21715 0.59289 0.0
N17 N 1.00617 0.22438 0.5231 0.0
N18 N 0.96125 0.18028 0.49592 0.0
H19 H 0.93568 0.19652 0.67871 0.0
H20 H 0.91129 0.16807 0.59923 0.0
H21 H 0.93306 0.15862 0.67457 0.0
C22 C 0.93367 0.17772 0.63537 0.0
C23 C 0.12298 0.27459 0.88595 0.0
H24 H 0.11534 0.27838 0.82317 0.0
H25 H 0.14203 0.29795 0.90771 0.0
H26 H 0.1328 0.25868 0.88053 0.0
O27 O 0.07104 0.22991 0.77201 0.0
O28 O 0.04386 0.21761 0.65482 0.0
C29 C 0.06753 0.29834 0.68667 0.0
O30 O 0.98321 0.18969 0.76032 0.0
O31 O 1.01016 0.20367 0.87848 0.0
Zn32 Zn 0.81696 0.79997 0.69409 0.0
O33 O 0.80066 0.75288 0.74653 0.0
C34 C 0.86836 0.82184 0.81849 0.0
Zn35 Zn 0.80354 0.81421 0.81471 0.0
C36 C 0.79043 0.74795 0.82315 0.0
O37 O 0.78896 0.76967 0.86342 0.0
C38 C 0.82611 0.86544 0.68896 0.0
O39 O 0.75636 0.79817 0.76379 0.0
O40 O 0.77258 0.78594 0.64665 0.0
N41 N 0.79632 0.82944 0.93012 0.0
C42 C 0.79385 0.85506 0.94918 0.0
C43 C 0.81323 0.84487 0.05717 0.0
N44 N 0.80806 0.82304 0.99788 0.0
N45 N 0.8051 0.86581 0.02835 0.0
C46 C 0.85679 0.79017 0.5573 0.0
C47 C 0.84594 0.80968 0.45082 0.0
N48 N 0.83104 0.79214 0.57778 0.0
N49 N 0.82418 0.80389 0.51086 0.0
N50 N 0.86728 0.80191 0.47837 0.0
H51 H 0.85018 0.75621 0.65328 0.0
H52 H 0.8781 0.76112 0.57082 0.0
H53 H 0.8887 0.79079 0.65131 0.0
C54 C 0.86912 0.77351 0.61121 0.0
C55 C 0.77748 0.86717 0.89312 0.0
H56 H 0.76017 0.84794 0.85196 0.0
H57 H 0.7651 0.8766 0.93191 0.0
H58 H 0.79482 0.88633 0.85181 0.0
O59 O 0.81728 0.85868 0.76516 0.0
O60 O 0.83088 0.84637 0.64556 0.0
C61 C 0.75126 0.78791 0.68727 0.0
O62 O 0.8613 0.81313 0.74226 0.0
O63 O 0.84996 0.82756 0.86214 0.0
Zn64 Zn 0.23563 1.00669 0.81801 0.0
O65 O 0.2509 0.97576 0.76236 0.0
C66 C 0.18486 0.982 0.6898 0.0
Zn67 Zn 0.25104 0.0369 0.70193 0.0
C68 C 0.26286 0.98274 0.68785 0.0
O69 O 0.26618 0.00733 0.65118 0.0
C70 C 0.22672 0.06334 0.82928 0.0
O71 O 0.29721 0.06709 0.75864 0.0
O72 O 0.2802 0.03509 0.86873 0.0
N73 N 0.26022 0.06061 0.58842 0.0
C74 C 0.26414 0.08938 0.57137 0.0
C75 C 0.24269 0.06057 0.46288 0.0
N76 N 0.24732 0.04297 0.52032 0.0
N77 N 0.25236 0.08968 0.49368 0.0
C78 C 0.1958 0.95333 0.94738 0.0
C79 C 0.20596 0.9802 0.06072 0.0
N80 N 0.22066 0.98213 0.93087 0.0
N81 N 0.22729 0.99851 1.00212 0.0
N82 N 0.18527 0.95177 0.02796 0.0
H83 H 0.19408 0.93404 0.82236 0.0
H84 H 0.18801 0.90829 0.90861 0.0
H85 H 0.15689 0.91586 0.88102 0.0
C86 C 0.18282 0.92661 0.8854 0.0
C87 C 0.28519 0.1181 0.62273 0.0
H88 H 0.30608 0.11679 0.64435 0.0
H89 H 0.29311 0.13997 0.58513 0.0
H90 H 0.27287 0.11912 0.68011 0.0
O91 O 0.23606 0.06665 0.75301 0.0
O92 O 0.22268 0.03922 0.87031 0.0
C93 C 0.30183 0.05971 0.83317 0.0
O94 O 0.19048 0.97815 0.76596 0.0
O95 O 0.20557 1.00577 0.64948 0.0
Zn96 Zn 0.03894 0.81728 0.30536 0.0
O97 O 0.07137 0.80337 0.25168 0.0
C98 C 0.06419 0.86379 0.17212 0.0
Zn99 Zn 1.00801 0.79821 0.1946 0.0
C100 C 0.06101 0.7849 0.18756 0.0
O101 O 0.03441 0.77775 0.1559 0.0
C102 C 0.98279 0.82694 0.31122 0.0
O103 O 0.97592 0.75483 0.26047 0.0
O104 O 0.01263 0.77248 0.35945 0.0
N105 N 0.98372 0.78604 0.08224 0.0
C106 C 0.95502 0.78207 0.06437 0.0
C107 C 0.98204 0.79742 0.95061 0.0
N108 N 1.0003 0.7952 0.011 0.0
N109 N 0.95357 0.78949 0.98272 0.0
C110 C 0.09106 0.86116 0.43048 0.0
C111 C 0.06439 0.8497 0.54497 0.0
N112 N 0.06324 0.83473 0.41586 0.0
N113 N 0.04687 0.82759 0.48729 0.0
N114 N 0.092 0.87153 0.5107 0.0
H115 H 0.11713 0.8552 0.32915 0.0
H116 H 0.14099 0.88612 0.40421 0.0
H117 H 0.11731 0.89186 0.32694 0.0
C118 C 0.11825 0.87433 0.36945 0.0
C119 C 0.92735 0.76777 0.12337 0.0
H120 H 0.93451 0.76882 0.19038 0.0
H121 H 0.91233 0.74253 0.10632 0.0
H122 H 0.91269 0.77893 0.11461 0.0
O123 O 0.9808 0.81847 0.2345 0.0
O124 O 1.00531 0.82889 0.35567 0.0
C125 C 0.98653 0.75076 0.33062 0.0
O126 O 0.06558 0.8619 0.25169 0.0
O127 O 0.0424 0.84076 0.13191 0.0
Zn128 Zn 0.2344 0.24478 0.31401 0.0
O129 O 0.24829 0.29055 0.2578 0.0
C130 C 0.18468 0.22043 0.18719 0.0
Zn131 Zn 0.25108 0.23115 0.19897 0.0
C132 C 0.26192 0.29643 0.18528 0.0
O133 O 0.2668 0.27599 0.14975 0.0
C134 C 0.22698 0.17988 0.32559 0.0
O135 O 0.29713 0.24653 0.25552 0.0
O136 O 0.27982 0.26299 0.36221 0.0
N137 N 0.26018 0.21686 0.08535 0.0
C138 C 0.26417 0.19202 0.0689 0.0
C139 C 0.24158 0.19839 0.96138 0.0
N140 N 0.24659 0.22101 0.01783 0.0
N141 N 0.25168 0.1793 0.9923 0.0
C142 C 0.19201 0.25378 0.44387 0.0
C143 C 0.20357 0.23717 0.55499 0.0
N144 N 0.2186 0.25282 0.42717 0.0
N145 N 0.22587 0.24284 0.49684 0.0
N146 N 0.18133 0.24309 0.52379 0.0
H147 H 0.19731 0.28397 0.33823 0.0
H148 H 0.17012 0.28179 0.41912 0.0
H149 H 0.15924 0.24935 0.34664 0.0
C150 C 0.17889 0.2681 0.38372 0.0
C151 C 0.28628 0.18532 0.11862 0.0
H152 H 0.30776 0.20791 0.13475 0.0
H153 H 0.29318 0.17031 0.0821 0.0
H154 H 0.27543 0.17372 0.1792 0.0
O155 O 0.23552 0.18566 0.24865 0.0
O156 O 0.22312 0.19999 0.36677 0.0
C157 C 0.30186 0.26043 0.32735 0.0
O158 O 0.18899 0.2273 0.26506 0.0
O159 O 0.20601 0.21874 0.14581 0.0
Zn160 Zn 0.80492 0.00928 0.31972 0.0
O161 O 0.75825 0.97865 0.26395 0.0
C162 C 0.82899 0.98125 0.19551 0.0
Zn163 Zn 0.81999 0.03813 0.20195 0.0
C164 C 0.75352 0.98557 0.18892 0.0
O165 O 0.77527 0.00972 0.15207 0.0
C166 C 0.87135 0.06456 0.32775 0.0
O167 O 0.80529 0.07008 0.2561 0.0
O168 O 0.78998 0.03921 0.36852 0.0
N169 N 0.83499 0.06132 0.0883 0.0
C170 C 0.85769 0.09101 0.06961 0.0
C171 C 0.85274 0.06252 0.96205 0.0
N172 N 0.83165 0.04385 0.02063 0.0
N173 N 0.86945 0.09223 0.99129 0.0
C174 C 0.78911 0.95676 0.45368 0.0
C175 C 0.81224 0.98576 0.5607 0.0
N176 N 0.79565 0.98626 0.43402 0.0
N177 N 0.80952 1.00404 0.50139 0.0
N178 N 0.79971 0.956 0.53222 0.0
H179 H 0.74722 0.9144 0.42134 0.0
H180 H 0.7824 0.91325 0.40137 0.0
H181 H 0.77062 0.93525 0.33109 0.0
C182 C 0.77174 0.92854 0.3975 0.0
C183 C 0.86834 0.11885 0.12726 0.0
H184 H 0.86088 0.11171 0.19366 0.0
H185 H 0.8575 0.13283 0.10538 0.0
H186 H 0.89421 0.13444 0.12299 0.0
O187 O 0.86528 0.06711 0.25113 0.0
O188 O 0.85085 0.0414 0.37069 0.0
C189 C 0.79364 0.06378 0.33112 0.0
O190 O 0.81998 0.97891 0.27176 0.0
O191 O 0.83254 1.00472 0.15219 0.0
Zn192 Zn 0.67841 0.56407 0.0298 0.0
O193 O 0.64703 0.57892 0.08693 0.0
C194 C 0.65424 0.51413 0.1612 0.0
Zn195 Zn 0.70863 0.58009 0.14504 0.0
C196 C 0.65443 0.59145 0.16078 0.0
O197 O 0.67969 0.59586 0.19539 0.0
C198 C 0.73468 0.55445 0.01936 0.0
O199 O 0.73861 0.62572 0.08487 0.0
O200 O 0.70609 0.60845 0.97608 0.0
N201 N 0.73325 0.5913 0.25636 0.0
C202 C 0.76241 0.59652 0.27384 0.0
C203 C 0.73561 0.58014 0.38775 0.0
N204 N 0.7168 0.58154 0.32772 0.0
N205 N 0.76432 0.58932 0.35534 0.0
C206 C 0.62442 0.52348 0.90241 0.0
C207 C 0.65069 0.53414 0.78777 0.0
N208 N 0.65326 0.54833 0.91831 0.0
N209 N 0.66927 0.55526 0.84634 0.0
N210 N 0.62247 0.5133 0.8213 0.0
H211 H 0.6058 0.5211 0.02882 0.0
H212 H 0.5796 0.51544 0.94426 0.0
H213 H 0.58733 0.48418 0.96904 0.0
C214 C 0.59805 0.51014 0.96558 0.0
C215 C 0.78974 0.61072 0.21379 0.0
H216 H 0.78265 0.61334 0.14898 0.0
H217 H 0.80723 0.63447 0.23759 0.0
H218 H 0.80173 0.59664 0.21357 0.0
O219 O 0.73776 0.56388 0.0954 0.0
O220 O 0.71114 0.5512 0.97695 0.0
C221 C 0.73103 0.63001 0.01034 0.0
O222 O 0.65073 0.51915 0.08419 0.0
O223 O 0.67769 0.5353 0.20157 0.0
Zn224 Zn 0.48602 0.13465 0.0287 0.0
O225 O 0.47152 0.08794 0.08169 0.0
C226 C 0.53807 0.16007 0.15258 0.0
Zn227 Zn 0.47107 0.14754 0.14899 0.0
C228 C 0.46086 0.08239 0.15781 0.0
O229 O 0.4584 0.10346 0.19835 0.0
C230 C 0.49135 0.19843 0.02232 0.0
O231 O 0.42366 0.12961 0.09872 0.0
O232 O 0.44101 0.11849 0.98176 0.0
N233 N 0.46317 0.16183 0.26496 0.0
C234 C 0.4604 0.18716 0.28546 0.0
C235 C 0.47963 0.1764 0.39282 0.0
N236 N 0.47479 0.15506 0.33234 0.0
N237 N 0.47136 0.19737 0.36516 0.0
C238 C 0.52355 0.12045 0.89225 0.0
C239 C 0.5163 0.14262 0.78518 0.0
N240 N 0.50042 0.12663 0.91314 0.0
N241 N 0.49566 0.1399 0.84572 0.0
N242 N 0.53416 0.13067 0.81291 0.0
H243 H 0.52632 0.10148 0.01416 0.0
H244 H 0.53122 0.0824 0.92294 0.0
H245 H 0.56274 0.12028 0.95196 0.0
C246 C 0.53669 0.10554 0.9498 0.0
C247 C 0.44383 0.19934 0.23048 0.0
H248 H 0.4265 0.18016 0.18917 0.0
H249 H 0.43142 0.20853 0.27006 0.0
H250 H 0.46102 0.21868 0.18937 0.0
O251 O 0.48266 0.19138 0.09859 0.0
O252 O 0.49761 0.18034 0.9791 0.0
C253 C 0.41907 0.11947 0.02212 0.0
O254 O 0.53159 0.15083 0.07641 0.0
O255 O 0.51791 0.16335 0.19541 0.0
Zn256 Zn 0.91561 0.37182 0.02475 0.0
O257 O 0.96259 0.40219 0.07814 0.0
C258 C 0.89264 0.40041 0.15035 0.0
Zn259 Zn 0.90153 0.34405 0.14511 0.0
C260 C 0.96744 0.39695 0.15487 0.0
O261 O 0.94578 0.37392 0.19555 0.0
C262 C 0.85047 0.31553 0.01791 0.0
O263 O 0.91822 0.31356 0.0933 0.0
O264 O 0.93008 0.34187 0.97596 0.0
N265 N 0.88579 0.32066 0.25893 0.0
C266 C 0.85967 0.29265 0.27503 0.0
C267 C 0.86926 0.32099 0.38571 0.0
N268 N 0.89177 0.33804 0.32822 0.0
N269 N 0.8483 0.29263 0.35345 0.0
C270 C 0.9259 0.42273 0.89125 0.0
C271 C 0.90803 0.39361 0.78196 0.0
N272 N 0.9239 0.39483 0.91008 0.0
N273 N 0.91312 0.37699 0.84153 0.0
N274 N 0.91526 0.42236 0.81136 0.0
H275 H 0.95856 0.44916 0.9906 0.0
H276 H 0.95399 0.47295 0.91004 0.0
H277 H 0.92366 0.45248 0.98829 0.0
C278 C 0.94149 0.45101 0.94819 0.0
C279 C 0.84837 0.26418 0.21921 0.0
H280 H 0.86843 0.26554 0.18288 0.0
H281 H 0.83722 0.2423 0.25791 0.0
H282 H 0.83068 0.26287 0.17322 0.0
O283 O 0.85738 0.31348 0.09392 0.0
O284 O 0.86937 0.33947 0.97463 0.0
C285 C 0.92854 0.3188 0.01682 0.0
O286 O 0.90192 0.40259 0.07456 0.0
O287 O 0.8875 0.37645 0.19374 0.0
Zn288 Zn 0.70846 0.14883 0.64838 0.0
O289 O 0.74022 0.1343 0.59124 0.0
C290 C 0.73441 0.20053 0.52323 0.0
Zn291 Zn 0.67956 0.13368 0.53024 0.0
C292 C 0.73409 0.12292 0.51581 0.0
O293 O 0.70974 0.11972 0.47813 0.0
C294 C 0.65113 0.15596 0.65848 0.0
O295 O 0.64968 0.08657 0.58287 0.0
O296 O 0.67981 0.10354 0.69671 0.0
N297 N 0.65583 0.12563 0.41715 0.0
C298 C 0.62826 0.12472 0.40126 0.0
C299 C 0.65634 0.14189 0.28956 0.0
N300 N 0.67305 0.13607 0.34727 0.0
N301 N 0.62838 0.1357 0.32229 0.0
C302 C 0.7608 0.18735 0.7822 0.0
C303 C 0.73181 0.17916 0.89086 0.0
N304 N 0.73181 0.16337 0.76265 0.0
N305 N 0.71408 0.15806 0.83107 0.0
N306 N 0.76121 0.1979 0.86157 0.0
H307 H 0.78245 0.19018 0.66009 0.0
H308 H 0.80688 0.19629 0.7513 0.0
H309 H 0.79927 0.2269 0.72112 0.0
C310 C 0.78868 0.20092 0.72408 0.0
C311 C 0.59989 0.10877 0.45802 0.0
H312 H 0.60101 0.09047 0.49697 0.0
H313 H 0.57795 0.0978 0.41966 0.0
H314 H 0.59892 0.12598 0.50169 0.0
O315 O 0.64888 0.14694 0.5825 0.0
O316 O 0.67511 0.16092 0.70134 0.0
C317 C 0.65611 0.08178 0.65835 0.0
O318 O 0.73741 0.19438 0.59957 0.0
O319 O 0.71092 0.18012 0.48118 0.0
Zn320 Zn 0.91571 0.56542 0.52249 0.0
O321 O 0.96168 0.57872 0.57609 0.0
C322 C 0.89041 0.51311 0.64354 0.0
Zn323 Zn 0.902 0.58034 0.64102 0.0
C324 C 0.96792 0.59195 0.64904 0.0
O325 O 0.94734 0.59587 0.68768 0.0
C326 C 0.85135 0.55905 0.51586 0.0
O327 O 0.9174 0.62719 0.59018 0.0
O328 O 0.93362 0.61149 0.4794 0.0
N329 N 0.88713 0.58741 0.75717 0.0
C330 C 0.86157 0.58995 0.77634 0.0
C331 C 0.87051 0.56873 0.88227 0.0
N332 N 0.89279 0.57457 0.82379 0.0
N333 N 0.84999 0.57751 0.85409 0.0
C334 C 0.93017 0.52863 0.38577 0.0
C335 C 0.90653 0.5348 0.28039 0.0
N336 N 0.92401 0.55177 0.40658 0.0
N337 N 0.90982 0.55586 0.34022 0.0
N338 N 0.91901 0.51733 0.30753 0.0
H339 H 0.97237 0.52899 0.41973 0.0
H340 H 0.93766 0.49163 0.43332 0.0
H341 H 0.94734 0.52359 0.50837 0.0
C342 C 0.94745 0.51735 0.44097 0.0
C343 C 0.85036 0.6075 0.72208 0.0
H344 H 0.86979 0.62469 0.6811 0.0
H345 H 0.84161 0.62018 0.7622 0.0
H346 H 0.83087 0.59074 0.68086 0.0
O347 O 0.85741 0.56633 0.59323 0.0
O348 O 0.87064 0.55488 0.47171 0.0
C349 C 0.93087 0.63287 0.51754 0.0
O350 O 0.8983 0.51915 0.5664 0.0
O351 O 0.88864 0.53388 0.68782 0.0
Zn352 Zn 0.46707 0.33854 0.6518 0.0
O353 O 0.42333 0.3071 0.58786 0.0
C354 C 0.49452 0.31206 0.53455 0.0
Zn355 Zn 0.48625 0.36915 0.53969 0.0
C356 C 0.41926 0.31713 0.51672 0.0
O357 O 0.44104 0.3429 0.48612 0.0
C358 C 0.53319 0.3938 0.67232 0.0
O359 O 0.47329 0.40234 0.59268 0.0
O360 O 0.44798 0.36632 0.69113 0.0
N361 N 0.50412 0.3932 0.42869 0.0
C362 C 0.53055 0.42112 0.41472 0.0
C363 C 0.52088 0.39382 0.30191 0.0
N364 N 0.49808 0.37645 0.35823 0.0
N365 N 0.54208 0.42174 0.33605 0.0
C366 C 0.44994 0.28555 0.78378 0.0
C367 C 0.46907 0.31366 0.89455 0.0
N368 N 0.45511 0.31467 0.7651 0.0
N369 N 0.46649 0.33188 0.83472 0.0
N370 N 0.45891 0.28449 0.86407 0.0
H371 H 0.43541 0.26481 0.65851 0.0
H372 H 0.40975 0.24294 0.74421 0.0
H373 H 0.44586 0.24287 0.73297 0.0
C374 C 0.43483 0.25772 0.72544 0.0
C375 C 0.54234 0.44871 0.47409 0.0
H376 H 0.52235 0.44779 0.5097 0.0
H377 H 0.55482 0.47125 0.43847 0.0
H378 H 0.55882 0.44807 0.52106 0.0
O379 O 0.53108 0.39552 0.59291 0.0
O380 O 0.51013 0.37211 0.71264 0.0
C381 C 0.45549 0.39289 0.65825 0.0
O382 O 0.48592 0.3101 0.61118 0.0
O383 O 0.49712 0.3349 0.49024 0.0
Zn384 Zn 0.34478 0.89804 0.36144 0.0
O385 O 0.31502 0.91273 0.42576 0.0
C386 C 0.32093 0.84862 0.49273 0.0
Zn387 Zn 0.37662 0.9135 0.47329 0.0
C388 C 0.32388 0.92653 0.49768 0.0
O389 O 0.34979 0.93131 0.52933 0.0
C390 C 0.39977 0.88805 0.33998 0.0
O391 O 0.40728 0.95855 0.41294 0.0
O392 O 0.37242 0.94316 0.30928 0.0
N393 N 0.40285 0.92222 0.58183 0.0
C394 C 0.42953 0.92103 0.59497 0.0
C395 C 0.40385 0.90846 0.71113 0.0
N396 N 0.38717 0.91465 0.6544 0.0
N397 N 0.43027 0.91148 0.67539 0.0
C398 C 0.28839 0.85704 0.24221 0.0
C399 C 0.31151 0.86895 0.12254 0.0
N400 N 0.31705 0.8828 0.25395 0.0
N401 N 0.33105 0.89048 0.17898 0.0
N402 N 0.28469 0.84707 0.16049 0.0
H403 H 0.27208 0.85505 0.37142 0.0
H404 H 0.24288 0.84386 0.29234 0.0
H405 H 0.25672 0.81706 0.3178 0.0
C406 C 0.26392 0.84231 0.31047 0.0
C407 C 0.45654 0.93397 0.53338 0.0
H408 H 0.45618 0.95245 0.49333 0.0
H409 H 0.47933 0.94405 0.56771 0.0
H410 H 0.45462 0.91515 0.49056 0.0
O411 O 0.40318 0.89565 0.41748 0.0
O412 O 0.37635 0.88601 0.29981 0.0
C413 C 0.39856 0.96378 0.34106 0.0
O414 O 0.31735 0.85246 0.41493 0.0
O415 O 0.34507 0.86979 0.53043 0.0
Zn416 Zn 0.13629 0.48241 0.47448 0.0
O417 O 0.09113 0.46792 0.41228 0.0
C418 C 0.16078 0.5302 0.33958 0.0
Zn419 Zn 0.15019 0.46479 0.36181 0.0
C420 C 0.08513 0.45305 0.34169 0.0
O421 O 0.10537 0.44696 0.31006 0.0
C422 C 0.20115 0.49193 0.49246 0.0
O423 O 0.13603 0.42049 0.42467 0.0
O424 O 0.11834 0.43721 0.52952 0.0
N425 N 0.16522 0.45349 0.25215 0.0
C426 C 0.1896 0.44857 0.23777 0.0
C427 C 0.18056 0.46513 0.12216 0.0
N428 N 0.1593 0.46316 0.1796 0.0
N429 N 0.2002 0.45642 0.15691 0.0
C430 C 0.12413 0.52571 0.59564 0.0
C431 C 0.13328 0.51156 0.71479 0.0
N432 N 0.12534 0.49902 0.58251 0.0
N433 N 0.13046 0.49004 0.65708 0.0
N434 N 0.13024 0.53487 0.67827 0.0
H435 H 0.11005 0.52864 0.46704 0.0
H436 H 0.09426 0.54217 0.54545 0.0
H437 H 0.13546 0.56644 0.51865 0.0
C438 C 0.11595 0.54184 0.52749 0.0
C439 C 0.20259 0.43579 0.30276 0.0
H440 H 0.19334 0.43551 0.36688 0.0
H441 H 0.19463 0.41082 0.2874 0.0
H442 H 0.22872 0.44908 0.30158 0.0
O443 O 0.19581 0.48322 0.41544 0.0
O444 O 0.18036 0.4949 0.53304 0.0
C445 C 0.12262 0.41578 0.49713 0.0
O446 O 0.15495 0.52746 0.41829 0.0
O447 O 0.16172 0.50798 0.30103 0.0
Zn448 Zn 0.58288 0.70309 0.36721 0.0
O449 O 0.629 0.73347 0.4252 0.0
C450 C 0.55909 0.73009 0.4949 0.0
Zn451 Zn 0.56835 0.6735 0.48434 0.0
C452 C 0.63404 0.72623 0.49949 0.0
O453 O 0.6126 0.70172 0.53577 0.0
C454 C 0.5185 0.64643 0.35423 0.0
O455 O 0.58374 0.64246 0.42817 0.0
O456 O 0.59871 0.67409 0.31701 0.0
N457 N 0.55237 0.64985 0.59814 0.0
C458 C 0.52526 0.62286 0.61493 0.0
C459 C 0.53653 0.65181 0.7248 0.0
N460 N 0.5594 0.66758 0.6671 0.0
N461 N 0.51426 0.62394 0.69305 0.0
C462 C 0.59636 0.75683 0.23875 0.0
C463 C 0.57992 0.73013 0.12468 0.0
N464 N 0.59256 0.728 0.25499 0.0
N465 N 0.58277 0.71169 0.18344 0.0
N466 N 0.58816 0.75852 0.15802 0.0
H467 H 0.61854 0.77918 0.35632 0.0
H468 H 0.62131 0.80589 0.27339 0.0
H469 H 0.58454 0.78266 0.32673 0.0
C470 C 0.60583 0.78257 0.30294 0.0
C471 C 0.51284 0.59391 0.56107 0.0
H472 H 0.53225 0.59444 0.52332 0.0
H473 H 0.50169 0.57239 0.60123 0.0
H474 H 0.49481 0.59284 0.51698 0.0
O475 O 0.52416 0.64425 0.43154 0.0
O476 O 0.53774 0.67074 0.31262 0.0
C477 C 0.59565 0.64952 0.35334 0.0
O478 O 0.56739 0.73255 0.41812 0.0
O479 O 0.55545 0.70638 0.53691 0.0
Zn480 Zn 0.37719 0.48047 0.9826 0.0
O481 O 0.40876 0.4687 0.91427 0.0
C482 C 0.40016 0.5331 0.8622 0.0
Zn483 Zn 0.34506 0.46666 0.8729 0.0
C484 C 0.39827 0.45407 0.84396 0.0
O485 O 0.37188 0.4492 0.81593 0.0
C486 C 0.32035 0.48847 0.00942 0.0
O487 O 0.31461 0.42031 0.93007 0.0
O488 O 0.35166 0.4346 0.0271 0.0
N489 N 0.31937 0.45902 0.76354 0.0
C490 C 0.29209 0.45904 0.75022 0.0
C491 C 0.31827 0.47343 0.63493 0.0
N492 N 0.33539 0.46776 0.69152 0.0
N493 N 0.29121 0.46889 0.67024 0.0
C494 C 0.43192 0.51966 0.10611 0.0
C495 C 0.40684 0.50824 0.22317 0.0
N496 N 0.4033 0.49427 0.09182 0.0
N497 N 0.38794 0.48704 0.16505 0.0
N498 N 0.43444 0.52914 0.18742 0.0
H499 H 0.45085 0.52397 0.97916 0.0
H500 H 0.47583 0.52557 0.06435 0.0
H501 H 0.47148 0.55902 0.04617 0.0
C502 C 0.45872 0.53291 0.04426 0.0
C503 C 0.26502 0.44528 0.8116 0.0
H504 H 0.26588 0.42693 0.85108 0.0
H505 H 0.24223 0.43483 0.77715 0.0
H506 H 0.26641 0.46373 0.85497 0.0
O507 O 0.31764 0.48336 0.93047 0.0
O508 O 0.3435 0.48926 0.04794 0.0
C509 C 0.32514 0.41408 0.99753 0.0
O510 O 0.40331 0.52705 0.93843 0.0
O511 O 0.37716 0.51219 0.81981 0.0
Zn512 Zn 0.58507 0.89847 0.8673 0.0
O513 O 0.63164 0.91557 0.92384 0.0
C514 C 0.56201 0.84917 1.00031 0.0
Zn515 Zn 0.56981 0.91378 0.98279 0.0
C516 C 0.63636 0.92813 0.99771 0.0
O517 O 0.61477 0.93122 0.03315 0.0
C518 C 0.5187 0.88667 0.85462 0.0
O519 O 0.58428 0.95913 0.92103 0.0
O520 O 0.60006 0.94242 0.81197 0.0
N521 N 0.55505 0.92469 0.09415 0.0
C522 C 0.52992 0.92828 0.11007 0.0
C523 C 0.54088 0.91302 0.22481 0.0
N524 N 0.56215 0.91584 0.16625 0.0
N525 N 0.51976 0.92 0.19115 0.0
C526 C 0.59586 0.85597 0.7395 0.0
C527 C 0.58162 0.86848 0.62502 0.0
N528 N 0.59412 0.88217 0.75611 0.0
N529 N 0.58565 0.89002 0.68435 0.0
N530 N 0.58766 0.84676 0.65834 0.0
H531 H 0.61756 0.85391 0.85634 0.0
H532 H 0.61744 0.82846 0.77307 0.0
H533 H 0.58156 0.81804 0.82795 0.0
C534 C 0.60368 0.83823 0.80331 0.0
C535 C 0.51636 0.94114 0.04716 0.0
H536 H 0.52711 0.9441 0.98363 0.0
H537 H 0.52167 0.96492 0.06828 0.0
H538 H 0.49039 0.92596 0.04474 0.0
O539 O 0.5243 0.896 0.93098 0.0
O540 O 0.53944 0.88359 0.81425 0.0
C541 C 0.59647 0.96385 0.84669 0.0
O542 O 0.57053 0.85467 0.92357 0.0
O543 O 0.55792 0.86921 0.04119 0.0
Zn544 Zn 0.15122 0.70711 0.86949 0.0
O545 O 0.13751 0.73703 0.93777 0.0
C546 C 0.19682 0.7277 0.00946 0.0
Zn547 Zn 0.13326 0.67302 0.97368 0.0
C548 C 0.11886 0.72454 1.00085 0.0
O549 O 0.11104 0.69663 0.02368 0.0
C550 C 0.1618 0.65278 0.84296 0.0
O551 O 0.09143 0.64327 0.89797 0.0
O552 O 0.10725 0.6835 0.8104 0.0
N553 N 0.11902 0.64273 0.07653 0.0
C554 C 0.11986 0.61579 0.08844 0.0
C555 C 0.12236 0.63563 0.21017 0.0
N556 N 0.11994 0.6546 0.15254 0.0
N557 N 0.12317 0.61133 0.17209 0.0
C558 C 0.20058 0.74958 0.73736 0.0
C559 C 0.17806 0.76934 0.66455 0.0
N560 N 0.17124 0.7381 0.76955 0.0
N561 N 0.15718 0.75026 0.72376 0.0
N562 N 0.20535 0.7691 0.67202 0.0
H563 H 0.2403 0.76015 0.81587 0.0
H564 H 0.24047 0.74299 0.71572 0.0
H565 H 0.21467 0.71868 0.79896 0.0
C566 C 0.22512 0.74209 0.76875 0.0
C567 C 0.11676 0.59382 0.01787 0.0
H568 H 0.11126 0.60116 0.95682 0.0
H569 H 0.09652 0.57005 0.03026 0.0
H570 H 0.1385 0.59215 0.0129 0.0
O571 O 0.15627 0.64986 0.92186 0.0
O572 O 0.16147 0.67525 0.80398 0.0
C573 C 0.08649 0.65578 0.83265 0.0
O574 O 0.19497 0.73135 0.93078 0.0
O575 O 0.1739 0.70462 0.04652 0.0
C576 C 0.09691 0.22401 0.56314 0.0
C577 C 0.09353 0.21923 0.65137 0.0
C578 C 0.12504 0.231 0.52155 0.0
C579 C 0.1517 0.23483 0.56651 0.0
H580 H 0.07805 0.22347 0.52586 0.0
H581 H 0.12516 0.23314 0.45375 0.0
S582 S 0.15189 0.21672 0.79624 0.0
N583 N 0.11646 0.21186 0.77955 0.0
N584 N 0.17026 0.22774 0.70412 0.0
C585 C 0.14754 0.22762 0.65431 0.0
C586 C 0.1184 0.2193 0.69588 0.0
C587 C 0.83696 0.9377 0.56889 0.0
C588 C 0.80597 0.93265 0.56747 0.0
C589 C 0.84377 0.9157 0.60676 0.0
C590 C 0.81978 0.88847 0.64575 0.0
H591 H 0.85596 0.95886 0.54071 0.0
H592 H 0.86782 0.92029 0.60712 0.0
S593 S 0.73476 0.86405 0.65479 0.0
N594 N 0.75127 0.89818 0.60422 0.0
N595 N 0.76373 0.85714 0.67706 0.0
C596 C 0.78869 0.88312 0.64316 0.0
C597 C 0.78183 0.90516 0.60358 0.0
C598 C 0.14097 0.92615 0.68465 0.0
C599 C 0.15803 0.95563 0.64431 0.0
C600 C 0.12013 0.89899 0.63998 0.0
C601 C 0.11469 0.90008 0.55303 0.0
H602 H 0.14434 0.92366 0.75098 0.0
H603 H 0.10832 0.87675 0.67375 0.0
S604 S 0.14733 0.97266 0.42125 0.0
N605 N 0.16491 0.98503 0.514 0.0
N606 N 0.12348 0.93428 0.43156 0.0
C607 C 0.12942 0.92982 0.51294 0.0
C608 C 0.15151 0.95751 0.55821 0.0
C609 C 0.23425 0.11774 0.82617 0.0
C610 C 0.22762 0.09069 0.87338 0.0
C611 C 0.24291 0.14655 0.86564 0.0
C612 C 0.24444 0.14951 0.95444 0.0
H613 H 0.23347 0.11694 0.75776 0.0
H614 H 0.24862 0.16682 0.82612 0.0
S615 S 0.22114 0.08385 0.10802 0.0
N616 N 0.21872 0.0676 0.01449 0.0
N617 N 0.23227 0.12114 0.08862 0.0
C618 C 0.23491 0.12195 1.00284 0.0
C619 C 0.22697 0.09268 0.96241 0.0
C620 C 0.92465 0.11044 0.95134 0.0
C621 C 0.89905 0.11597 0.95711 0.0
C622 C 0.95348 0.13289 0.91485 0.0
C623 C 0.95717 0.1612 0.88219 0.0
H624 H 0.92216 0.08851 0.97484 0.0
H625 H 0.97256 0.12778 0.91029 0.0
S626 S 0.89751 0.18695 0.88432 0.0
N627 N 0.87952 0.15182 0.92973 0.0
N628 N 0.93324 0.19386 0.86004 0.0
C629 C 0.93183 0.16704 0.88897 0.0
C630 C 0.90283 0.14445 0.92681 0.0
C631 C 0.89176 0.78748 0.83962 0.0
C632 C 0.89156 0.81542 0.86093 0.0
C633 C 0.9118 0.77892 0.88027 0.0
C634 C 0.9319 0.79761 0.94505 0.0
H635 H 0.8756 0.77148 0.79271 0.0
H636 H 0.91146 0.75745 0.86156 0.0
S637 S 0.94083 0.87281 0.02577 0.0
N638 N 0.91323 0.86152 0.95214 0.0
N639 N 0.95122 0.84543 0.02859 0.0
C640 C 0.93191 0.82542 0.96797 0.0
C641 C 0.91149 0.83422 0.92633 0.0
C642 C 0.92413 0.81711 0.4824 0.0
C643 C 0.89678 0.81016 0.43597 0.0
C644 C 0.95257 0.82467 0.4418 0.0
C645 C 0.95536 0.82675 0.35287 0.0
H646 H 0.92408 0.81708 0.55069 0.0
H647 H 0.97221 0.82794 0.48071 0.0
S648 S 0.89361 0.81952 0.20289 0.0
N649 N 0.87604 0.81085 0.29627 0.0
N650 N 0.93008 0.82743 0.22082 0.0
C651 C 0.92929 0.82322 0.30614 0.0
C652 C 0.89999 0.81448 0.34731 0.0
C653 C 0.24531 0.11424 0.36544 0.0
C654 C 0.24536 0.11221 0.4544 0.0
C655 C 0.23675 0.13427 0.32447 0.0
C656 C 0.22855 0.15382 0.37032 0.0
H657 H 0.25207 0.10023 0.32701 0.0
H658 H 0.23725 0.13483 0.25609 0.0
S659 S 0.21845 0.15264 0.60414 0.0
N660 N 0.23072 0.12724 0.58663 0.0
N661 N 0.21701 0.16672 0.5101 0.0
C662 C 0.22663 0.15067 0.45933 0.0
C663 C 0.23462 0.12959 0.50117 0.0
C664 C 0.89843 0.09485 0.4593 0.0
C665 C 0.89817 0.09198 0.37045 0.0
C666 C 0.91916 0.12334 0.50004 0.0
C667 C 0.93984 0.1507 0.45374 0.0
H668 H 0.88184 0.07521 0.49792 0.0
H669 H 0.91881 0.12335 0.56828 0.0
S670 S 0.95273 0.15369 0.22032 0.0
N671 N 0.92431 0.11723 0.23852 0.0
N672 N 0.96137 0.1713 0.3136 0.0
C673 C 0.94108 0.1474 0.36494 0.0
C674 C 0.92074 0.11806 0.32385 0.0
C675 C 0.82663 0.95092 0.06461 0.0
C676 C 0.82842 0.95365 0.15358 0.0
C677 C 0.81937 0.92251 0.02404 0.0
C678 C 0.81251 0.89515 0.07058 0.0
H679 H 0.82999 0.97062 0.0257 0.0
H680 H 0.81954 0.92245 0.9557 0.0
S681 S 0.82003 0.89157 0.30448 0.0
N682 N 0.82808 0.92807 0.28618 0.0
N683 N 0.81214 0.87419 0.21088 0.0
C684 C 0.81614 0.89822 0.15947 0.0
C685 C 0.82453 0.92745 0.20057 0.0
C686 C 0.13986 0.89737 0.0478 0.0
C687 C 0.15457 0.93002 0.0636 0.0
C688 C 0.10934 0.87657 0.07747 0.0
C689 C 0.09281 0.88728 0.12755 0.0
H690 H 0.15209 0.88744 0.0143 0.0
H691 H 0.09925 0.8516 0.06484 0.0
S692 S 0.12062 0.96967 0.19253 0.0
N693 N 0.14955 0.97181 0.13366 0.0
N694 N 0.09338 0.93197 0.19524 0.0
C695 C 0.10731 0.91947 0.14642 0.0
C696 C 0.13791 0.94095 0.11353 0.0
C697 C 0.15191 0.25957 0.04694 0.0
C698 C 0.11992 0.24536 0.07067 0.0
C699 C 0.17182 0.2493 0.08022 0.0
C700 C 0.16115 0.22538 0.14184 0.0
H701 H 0.16238 0.27954 1.00479 0.0
H702 H 0.19636 0.26152 0.06105 0.0
S703 S 0.081 0.18211 0.23366 0.0
N704 N 0.07905 0.20601 0.16303 0.0
N705 N 0.11762 0.18904 0.23008 0.0
C706 C 0.12986 0.21171 0.16918 0.0
C707 C 0.10909 0.22123 0.13301 0.0
C708 C 0.79382 0.56515 0.84837 0.0
C709 C 0.82039 0.56984 0.89535 0.0
C710 C 0.76537 0.55812 0.88823 0.0
C711 C 0.76172 0.55425 0.97668 0.0
H712 H 0.79444 0.56656 0.78023 0.0
H713 H 0.74644 0.5567 0.84942 0.0
S714 S 0.82071 0.55544 0.12684 0.0
N715 N 0.83917 0.56534 0.03475 0.0
N716 N 0.78499 0.54951 0.10802 0.0
C717 C 0.78684 0.55558 0.02346 0.0
C718 C 0.81619 0.56386 0.98336 0.0
C719 C 0.50624 0.24732 0.93606 0.0
C720 C 0.48347 0.22037 0.97893 0.0
C721 C 0.49796 0.26818 0.89764 0.0
C722 C 0.46665 0.26222 0.89964 0.0
H723 H 0.53051 0.25261 0.93377 0.0
H724 H 0.51605 0.28919 0.86653 0.0
S725 S 0.39799 0.19347 0.9958 0.0
N726 N 0.42802 0.18801 0.01615 0.0
N727 N 0.41284 0.22696 0.94254 0.0
C728 C 0.44366 0.23491 0.93928 0.0
C729 C 0.45201 0.21402 0.97928 0.0
C730 C 0.79993 0.28209 0.93744 0.0
C731 C 0.82767 0.28601 0.97484 0.0
C732 C 0.77816 0.25306 0.90018 0.0
C733 C 0.78391 0.22755 0.89799 0.0
H734 H 0.79479 0.3012 0.93844 0.0
H735 H 0.75668 0.25042 0.87286 0.0
S736 S 0.85367 0.22651 0.98272 0.0
N737 N 0.85997 0.26219 1.00484 0.0
N738 N 0.81936 0.20832 0.93335 0.0
C739 C 0.81178 0.23151 0.9331 0.0
C740 C 0.83361 0.26063 0.97191 0.0
C741 C 0.88146 0.46229 0.26694 0.0
C742 C 0.91263 0.48781 0.27123 0.0
C743 C 0.87468 0.43346 0.22932 0.0
C744 C 0.89888 0.42975 0.19351 0.0
H745 H 0.86233 0.46478 0.29293 0.0
H746 H 0.8505 0.41433 0.22677 0.0
S747 S 0.98428 0.48924 0.19163 0.0
N748 N 0.96763 0.50721 0.23981 0.0
N749 N 0.95522 0.45368 0.16738 0.0
C750 C 0.93009 0.4551 0.19858 0.0
C751 C 0.93692 0.48402 0.23791 0.0
C752 C 0.57144 0.44813 0.2068 0.0
C753 C 0.57114 0.44431 0.29514 0.0
C754 C 0.59912 0.46876 0.1636 0.0
C755 C 0.62771 0.4874 0.20671 0.0
H756 H 0.5499 0.43515 0.17062 0.0
H757 H 0.59775 0.47067 0.09589 0.0
S758 S 0.64149 0.48122 0.43554 0.0
N759 N 0.60355 0.45617 0.422 0.0
N760 N 0.65502 0.49743 0.34181 0.0
C761 C 0.62832 0.48248 0.29451 0.0
C762 C 0.60018 0.46049 0.33846 0.0
C763 C 0.60108 0.13831 0.19432 0.0
C764 C 0.60667 0.14347 0.28173 0.0
C765 C 0.58085 0.14625 0.15208 0.0
C766 C 0.56478 0.15923 0.19541 0.0
H767 H 0.61214 0.12755 0.15846 0.0
H768 H 0.57703 0.14108 0.08527 0.0
S769 S 0.57677 0.18403 0.42121 0.0
N770 N 0.59932 0.16815 0.40708 0.0
N771 N 0.55933 0.18086 0.32916 0.0
C772 C 0.57171 0.16641 0.28198 0.0
C773 C 0.59302 0.15898 0.32477 0.0
C774 C 0.58881 0.16808 0.76875 0.0
C775 C 0.56355 0.13686 0.77609 0.0
C776 C 0.61777 0.17459 0.73253 0.0
C777 C 0.62193 0.15002 0.70164 0.0
H778 H 0.58606 0.18746 0.79145 0.0
H779 H 0.63665 0.19883 0.72727 0.0
S780 S 0.56308 0.06447 0.70695 0.0
N781 N 0.54472 0.0815 0.75098 0.0
N782 N 0.59859 0.09342 0.68176 0.0
C783 C 0.59681 0.1188 0.70921 0.0
C784 C 0.56771 0.11226 0.7468 0.0
C785 C 0.89985 0.46398 0.81513 0.0
C786 C 0.90745 0.44396 0.76885 0.0
C787 C 0.8923 0.48487 0.77433 0.0
C788 C 0.8909 0.486 0.68529 0.0
H789 H 0.89934 0.46359 0.88343 0.0
H790 H 0.88841 0.50088 0.81319 0.0
S791 S 0.90108 0.4333 0.5347 0.0
N792 N 0.90885 0.42388 0.62856 0.0
N793 N 0.89227 0.46126 0.55272 0.0
C794 C 0.8954 0.46403 0.63844 0.0
C795 C 0.90414 0.4435 0.67983 0.0
C796 C 0.56787 0.46839 0.80151 0.0
C797 C 0.60042 0.48291 0.78476 0.0
C798 C 0.54675 0.43826 0.7702 0.0
C799 C 0.55702 0.42201 0.71746 0.0
H800 H 0.55828 0.4805 0.83704 0.0
H801 H 0.52187 0.42825 0.78385 0.0
S802 S 0.63908 0.4492 0.65088 0.0
N803 N 0.64171 0.47782 0.71207 0.0
N804 N 0.60125 0.42243 0.64746 0.0
C805 C 0.58913 0.43626 0.69804 0.0
C806 C 0.61094 0.46644 0.73261 0.0
C807 C 0.48585 0.25402 0.36249 0.0
C808 C 0.47868 0.22648 0.40835 0.0
C809 C 0.49294 0.28223 0.4037 0.0
C810 C 0.49423 0.28459 0.49279 0.0
H811 H 0.48638 0.25426 0.29415 0.0
H812 H 0.49657 0.30209 0.36508 0.0
S813 S 0.48531 0.22196 0.64228 0.0
N814 N 0.47778 0.20493 0.54819 0.0
N815 N 0.49338 0.25853 0.62492 0.0
C816 C 0.49016 0.25823 0.53926 0.0
C817 C 0.48196 0.22917 0.49739 0.0
C818 C 0.81837 0.26548 0.48169 0.0
C819 C 0.81898 0.27035 0.3938 0.0
C820 C 0.79032 0.24477 0.52371 0.0
C821 C 0.76162 0.22744 0.47976 0.0
H822 H 0.83994 0.27754 0.51818 0.0
H823 H 0.79151 0.24167 0.59101 0.0
S824 S 0.74908 0.23694 0.2519 0.0
N825 N 0.78721 0.2608 0.26679 0.0
N826 N 0.73488 0.21993 0.34449 0.0
C827 C 0.76147 0.23357 0.39252 0.0
C828 C 0.79003 0.25537 0.34988 0.0
C829 C 0.82795 0.59327 0.49423 0.0
C830 C 0.828 0.5652 0.47393 0.0
C831 C 0.80736 0.60129 0.45449 0.0
C832 C 0.78661 0.58187 0.39176 0.0
H833 H 0.84455 0.60967 0.53974 0.0
H834 H 0.80772 0.62284 0.47239 0.0
S835 S 0.77748 0.50629 0.31378 0.0
N836 N 0.80578 0.51834 0.38559 0.0
N837 N 0.7668 0.53345 0.3106 0.0
C838 C 0.78659 0.55401 0.36959 0.0
C839 C 0.80754 0.54576 0.41033 0.0
C840 C 0.4444 0.91996 0.24383 0.0
C841 C 0.42788 0.89267 0.29374 0.0
C842 C 0.47462 0.92928 0.21238 0.0
C843 C 0.48914 0.91111 0.22716 0.0
H844 H 0.43455 0.93517 0.23272 0.0
H845 H 0.48686 0.95136 0.17848 0.0
S846 S 0.45532 0.83749 0.35564 0.0
N847 N 0.42831 0.84828 0.36003 0.0
N848 N 0.48408 0.86412 0.29606 0.0
C849 C 0.47255 0.88354 0.27705 0.0
C850 C 0.44217 0.87468 0.31119 0.0
C851 C 0.13336 0.54143 0.22434 0.0
C852 C 0.15553 0.55292 0.29069 0.0
C853 C 0.12244 0.5602 0.18693 0.0
C854 C 0.13413 0.59174 0.2118 0.0
H855 H 0.12281 0.51701 0.20461 0.0
H856 H 0.1037 0.54913 0.14129 0.0
S857 S 0.19298 0.63306 0.38307 0.0
N858 N 0.18827 0.59721 0.38177 0.0
N859 N 0.16984 0.63357 0.30762 0.0
C860 C 0.15681 0.60361 0.27766 0.0
C861 C 0.16709 0.58404 0.31765 0.0
C862 C 0.47486 0.56009 0.29289 0.0
C863 C 0.45658 0.55902 0.22369 0.0
C864 C 0.4947 0.58864 0.33364 0.0
C865 C 0.49608 0.61707 0.30923 0.0
H866 H 0.47397 0.53869 0.31495 0.0
H867 H 0.50984 0.58849 0.38313 0.0
S868 S 0.45326 0.62662 0.12851 0.0
N869 N 0.44148 0.58852 0.1294 0.0
N870 N 0.47857 0.64242 0.20767 0.0
C871 C 0.47837 0.6164 0.23852 0.0
C872 C 0.45843 0.58725 0.19589 0.0
C873 C 0.54881 0.79324 0.60847 0.0
C874 C 0.58036 0.81731 0.6198 0.0
C875 C 0.5415 0.76443 0.56941 0.0
C876 C 0.56564 0.75926 0.53993 0.0
H877 H 0.52982 0.79684 0.63 0.0
H878 H 0.51705 0.74644 0.56115 0.0
S879 S 0.65176 0.81522 0.5551 0.0
N880 N 0.63544 0.83421 0.59929 0.0
N881 N 0.62218 0.78065 0.52585 0.0
C882 C 0.59715 0.7833 0.55157 0.0
C883 C 0.60443 0.81224 0.59152 0.0
C884 C 0.26733 0.80018 0.5015 0.0
C885 C 0.29336 0.8252 0.54283 0.0
C886 C 0.23833 0.78214 0.5434 0.0
C887 C 0.23448 0.78846 0.62803 0.0
H888 H 0.26916 0.79497 0.43571 0.0
H889 H 0.2188 0.76316 0.50972 0.0
S890 S 0.29464 0.85013 0.76658 0.0
N891 N 0.31297 0.8544 0.67538 0.0
N892 N 0.25853 0.82036 0.75272 0.0
C893 C 0.26029 0.81258 0.67092 0.0
C894 C 0.28976 0.83089 0.62884 0.0
C895 C 0.24484 0.47943 0.49632 0.0
C896 C 0.22752 0.4913 0.53813 0.0
C897 C 0.26475 0.47158 0.5405 0.0
C898 C 0.26925 0.47618 0.62852 0.0
H899 H 0.24245 0.47528 0.42893 0.0
H900 H 0.27665 0.46155 0.50528 0.0
S901 S 0.23645 0.51502 0.76463 0.0
N902 N 0.21983 0.51173 0.67121 0.0
N903 N 0.25983 0.49998 0.75272 0.0
C904 C 0.25455 0.49099 0.67017 0.0
C905 C 0.23324 0.49796 0.62537 0.0
C906 C 0.24982 0.49432 0.08471 0.0
C907 C 0.2307 0.46453 0.12273 0.0
C908 C 0.27967 0.50289 0.05101 0.0
C909 C 0.29182 0.48235 0.05681 0.0
H910 H 0.24148 0.51103 0.08046 0.0
H911 H 0.29311 0.52545 0.01947 0.0
S912 S 0.24992 0.40062 0.14073 0.0
N913 N 0.22481 0.41342 0.15431 0.0
N914 N 0.2818 0.43045 0.09887 0.0
C915 C 0.27295 0.45263 0.09451 0.0
C916 C 0.24219 0.44347 0.12559 0.0
C917 C 0.55022 0.77473 0.11038 0.0
C918 C 0.58157 0.78152 0.1216 0.0
C919 C 0.54348 0.79694 0.07334 0.0
C920 C 0.568 0.82634 0.046 0.0
H921 H 0.53092 0.75209 0.13022 0.0
H922 H 0.51916 0.7909 0.06452 0.0
S923 S 0.65381 0.85501 0.06144 0.0
N924 N 0.63693 0.81929 0.10316 0.0
N925 N 0.62466 0.8609 0.03323 0.0
C926 C 0.59933 0.83321 0.05761 0.0
C927 C 0.60606 0.81082 0.09555 0.0
C928 C 0.23073 0.80036 0.14642 0.0
C929 C 0.26306 0.81616 0.12592 0.0
C930 C 0.20996 0.77019 0.11432 0.0
C931 C 0.22043 0.75503 0.05809 0.0
H932 H 0.2209 0.81164 0.18448 0.0
H933 H 0.1851 0.75952 0.12935 0.0
S934 S 0.30206 0.78576 0.98157 0.0
N935 N 0.30436 0.81344 0.04605 0.0
N936 N 0.26464 0.7578 0.98164 0.0
C937 C 0.25238 0.77041 0.03611 0.0
C938 C 0.27379 0.80071 0.07063 0.0
C939 C 0.13511 0.61286 0.73013 0.0
C940 C 0.15786 0.62512 0.79489 0.0
C941 C 0.12575 0.58337 0.6934 0.0
C942 C 0.13958 0.56526 0.71733 0.0
H943 H 0.12297 0.6253 0.71108 0.0
H944 H 0.10656 0.57455 0.64902 0.0
S945 S 0.20089 0.58756 0.88464 0.0
N946 N 0.19353 0.61703 0.88365 0.0
N947 N 0.17803 0.56271 0.81084 0.0
C948 C 0.16288 0.57775 0.78174 0.0
C949 C 0.17158 0.60737 0.82104 0.0
C950 C 0.45537 0.57856 0.86411 0.0
C951 C 0.427 0.56046 0.81932 0.0
C952 C 0.4836 0.59887 0.82226 0.0
C953 C 0.48458 0.60287 0.73389 0.0
H954 H 0.45612 0.57628 0.93197 0.0
H955 H 0.50502 0.61117 0.85928 0.0
S956 S 0.41495 0.56926 0.59084 0.0
N957 N 0.40057 0.5524 0.68345 0.0
N958 N 0.45302 0.59322 0.60626 0.0
C959 C 0.4557 0.58793 0.68952 0.0
C960 C 0.42706 0.56623 0.73188 0.0
C961 C 0.45591 0.90786 0.80554 0.0
C962 C 0.45157 0.90337 0.71748 0.0
C963 C 0.4753 0.89946 0.85006 0.0
C964 C 0.49236 0.88723 0.8087 0.0
H965 H 0.44434 0.91829 0.84055 0.0
H966 H 0.47761 0.90359 0.91733 0.0
S967 S 0.48344 0.86339 0.58242 0.0
N968 N 0.46053 0.879 0.59373 0.0
N969 N 0.49981 0.86642 0.67606 0.0
C970 C 0.4867 0.88058 0.72149 0.0
C971 C 0.46581 0.88802 0.67625 0.0
C972 C 0.0956 0.35739 0.68115 0.0
C973 C 0.08654 0.32853 0.64086 0.0
C974 C 0.10789 0.38553 0.63416 0.0
C975 C 0.1121 0.38597 0.54534 0.0
H976 H 0.09159 0.35801 0.74857 0.0
H977 H 0.11356 0.40706 0.66766 0.0
S978 S 0.09512 0.31682 0.41175 0.0
N979 N 0.08459 0.30219 0.50838 0.0
N980 N 0.10839 0.35506 0.4206 0.0
C981 C 0.10482 0.35745 0.50531 0.0
C982 C 0.09182 0.32876 0.55291 0.0
C983 C 0.69238 0.75697 0.68294 0.0
C984 C 0.72098 0.77752 0.64311 0.0
C985 C 0.66436 0.74137 0.6359 0.0
C986 C 0.66378 0.74597 0.54737 0.0
H987 H 0.69193 0.75145 0.74968 0.0
H988 H 0.64306 0.72485 0.66918 0.0
S989 S 0.732 0.80176 0.41664 0.0
N990 N 0.7468 0.80464 0.51251 0.0
N991 N 0.69403 0.77571 0.42451 0.0
C992 C 0.69192 0.76836 0.50828 0.0
C993 C 0.72052 0.78398 0.55605 0.0
C994 C 0.29337 0.95415 0.68216 0.0
C995 C 0.27369 0.96342 0.64216 0.0
C996 C 0.30876 0.94142 0.63493 0.0
C997 C 0.30464 0.93701 0.54623 0.0
H998 H 0.29825 0.95833 0.74941 0.0
H999 H 0.32459 0.93562 0.66809 0.0
S1000 S 0.25225 0.954 0.41387 0.0
N1001 N 0.24876 0.96504 0.51041 0.0
N1002 N 0.27704 0.94046 0.4222 0.0
C1003 C 0.2834 0.94435 0.50666 0.0
C1004 C 0.26815 0.95777 0.55449 0.0
C1005 C 0.33205 0.07405 0.96968 0.0
C1006 C 0.33163 0.07891 0.88124 0.0
C1007 C 0.36011 0.08891 0.01676 0.0
C1008 C 0.38892 0.10891 0.97702 0.0
H1009 H 0.31056 0.0579 1.00286 0.0
H1010 H 0.35946 0.08336 0.08354 0.0
S1011 S 0.40058 0.1334 0.75066 0.0
N1012 N 0.36239 0.10817 0.75847 0.0
N1013 N 0.4152 0.13576 0.84653 0.0
C1014 C 0.3887 0.11556 0.88998 0.0
C1015 C 0.36006 0.1007 0.8422 0.0
C1016 C 0.97596 0.27897 0.96795 0.0
C1017 C 0.97151 0.27346 0.87955 0.0
C1018 C 0.96013 0.29145 0.01401 0.0
C1019 C 0.93953 0.29925 0.97326 0.0
H1020 H 0.99245 0.27434 1.00193 0.0
H1021 H 0.96544 0.29667 0.08077 0.0
S1022 S 0.91589 0.28539 0.74652 0.0
N1023 N 0.942 0.27355 0.75572 0.0
N1024 N 0.91274 0.29758 0.84183 0.0
C1025 C 0.93335 0.29215 0.88624 0.0
C1026 C 0.94916 0.27906 0.83951 0.0
C1027 C 0.77986 0.71716 0.9577 0.0
C1028 C 0.77956 0.71749 0.86799 0.0
C1029 C 0.76575 0.68881 1.00381 0.0
C1030 C 0.75031 0.65964 0.96201 0.0
H1031 H 0.79036 0.73909 0.99295 0.0
H1032 H 0.76556 0.6898 0.07247 0.0
S1033 S 0.7461 0.64719 0.72855 0.0
N1034 N 0.76518 0.68594 0.73959 0.0
N1035 N 0.73828 0.6326 0.82572 0.0
C1036 C 0.75136 0.65955 0.87242 0.0
C1037 C 0.76613 0.68846 0.82552 0.0
C1038 C 0.92729 0.67867 0.45669 0.0
C1039 C 0.94519 0.66422 0.47667 0.0
C1040 C 0.94013 0.70623 0.40628 0.0
C1041 C 0.97131 0.72021 0.37585 0.0
H1042 H 0.90306 0.66814 0.47795 0.0
H1043 H 0.92587 0.71691 0.39228 0.0
S1044 S 0.02761 0.69147 0.41088 0.0
N1045 N 0.99528 0.66573 0.46104 0.0
N1046 N 0.01956 0.71769 0.36979 0.0
C1047 C 0.98932 0.70607 0.39644 0.0
C1048 C 0.97621 0.67801 0.44591 0.0
C1049 C 0.34955 0.25892 0.38253 0.0
C1050 C 0.33273 0.27508 0.37128 0.0
C1051 C 0.37706 0.27186 0.43297 0.0
C1052 C 0.38863 0.30145 0.47236 0.0
H1053 H 0.34103 0.23593 0.35394 0.0
H1054 H 0.38964 0.259 0.43986 0.0
S1055 S 0.354 0.35354 0.46005 0.0
N1056 N 0.33011 0.32239 0.40284 0.0
N1057 N 0.38179 0.34669 0.49511 0.0
C1058 C 0.37227 0.31786 0.46037 0.0
C1059 C 0.34431 0.30467 0.41052 0.0
C1060 C 0.76702 0.09635 0.33465 0.0
C1061 C 0.78361 0.0839 0.37681 0.0
C1062 C 0.75231 0.11015 0.38038 0.0
C1063 C 0.754 0.11251 0.46994 0.0
H1064 H 0.76387 0.09384 0.26651 0.0
H1065 H 0.73865 0.1182 0.34516 0.0
S1066 S 0.79857 0.08744 0.60883 0.0
N1067 N 0.80363 0.07756 0.5123 0.0
N1068 N 0.77642 0.10391 0.59763 0.0
C1069 C 0.77243 0.10216 0.51211 0.0
C1070 C 0.78705 0.08771 0.4657 0.0
C1071 C 0.69539 0.95449 1.00501 0.0
C1072 C 0.66605 0.93848 0.04568 0.0
C1073 C 0.72349 0.96852 0.05222 0.0
C1074 C 0.72341 0.96661 0.14184 0.0
H1075 H 0.69664 0.95757 0.93677 0.0
H1076 H 0.74552 0.9817 0.01805 0.0
S1077 S 0.6526 0.92307 0.27722 0.0
N1078 N 0.63849 0.91865 0.17992 0.0
N1079 N 0.69132 0.9445 0.26802 0.0
C1080 C 0.69426 0.94875 0.18261 0.0
C1081 C 0.66561 0.9349 0.1347 0.0
C1082 C 0.0612 0.73818 0.12824 0.0
C1083 C 0.0783 0.77042 0.14881 0.0
C1084 C 0.07469 0.72388 0.08028 0.0
C1085 C 0.1056 0.74137 0.04865 0.0
H1086 H 0.03692 0.72388 0.14865 0.0
H1087 H 0.06048 0.69892 0.06647 0.0
S1088 S 0.16082 0.82646 0.08656 0.0
N1089 N 0.12823 0.81935 0.13667 0.0
N1090 N 0.15346 0.7926 0.04369 0.0
C1091 C 0.1232 0.77364 0.06924 0.0
C1092 C 0.10961 0.78812 0.12024 0.0
C1093 C 0.26932 0.32781 0.05356 0.0
C1094 C 0.27381 0.32707 0.1418 0.0
C1095 C 0.28492 0.35613 0.00717 0.0
C1096 C 0.30647 0.3845 0.047 0.0
H1097 H 0.25417 0.30613 0.01976 0.0
H1098 H 0.2811 0.35555 0.93935 0.0
S1099 S 0.32527 0.3952 0.27782 0.0
N1100 N 0.29976 0.35719 0.26777 0.0
N1101 N 0.33009 0.4102 0.1815 0.0
C1102 C 0.31054 0.38404 0.13585 0.0
C1103 C 0.2939 0.35542 0.18307 0.0
C1104 C 0.02641 0.42431 0.159 0.0
C1105 C 0.99786 0.41659 0.19894 0.0
C1106 C 0.0546 0.43704 0.20562 0.0
C1107 C 0.05541 0.443 0.29368 0.0
H1108 H 0.02671 0.41883 0.09252 0.0
H1109 H 0.07585 0.44151 0.17254 0.0
S1110 S 0.9874 0.43104 0.42484 0.0
N1111 N 0.97234 0.41852 0.32947 0.0
N1112 N 0.0254 0.4431 0.41642 0.0
C1113 C 0.02732 0.43744 0.33286 0.0
C1114 C 0.99854 0.42401 0.28568 0.0
C1115 C 0.6213 0.61737 0.1685 0.0
C1116 C 0.63459 0.60121 0.20878 0.0
C1117 C 0.60762 0.63175 0.21617 0.0
C1118 C 0.60621 0.6301 0.30584 0.0
H1119 H 0.62303 0.62043 0.10026 0.0
H1120 H 0.59884 0.64508 0.18234 0.0
S1121 S 0.63383 0.58663 0.44046 0.0
N1122 N 0.64285 0.58167 0.34279 0.0
N1123 N 0.61667 0.60824 0.43176 0.0
C1124 C 0.61744 0.6121 0.34626 0.0
C1125 C 0.63179 0.59785 0.29788 0.0
C1126 C 0.43613 0.02214 0.33525 0.0
C1127 C 0.41827 0.99335 0.29277 0.0
C1128 C 0.45127 0.05071 0.29015 0.0
C1129 C 0.44974 0.05157 0.20075 0.0
H1130 H 0.4371 0.02278 0.40394 0.0
H1131 H 0.46348 0.07247 0.32596 0.0
S1132 S 0.40954 0.98221 0.05901 0.0
N1133 N 0.40232 0.9671 0.15561 0.0
N1134 N 0.43132 0.02079 0.07134 0.0
C1135 C 0.43382 0.02279 0.15725 0.0
C1136 C 0.4179 0.9937 0.20316 0.0
C1137 C 0.61114 0.99426 0.71005 0.0
C1138 C 0.60739 0.9939 0.79916 0.0
C1139 C 0.62513 0.02257 0.66349 0.0
C1140 C 0.63644 0.05169 0.70444 0.0
H1141 H 0.60393 0.97248 0.67596 0.0
H1142 H 0.62856 0.02173 0.59583 0.0
S1143 S 0.62908 0.06383 0.93423 0.0
N1144 N 0.61348 0.02526 0.92465 0.0
N1145 N 0.64025 0.07842 0.83782 0.0
C1146 C 0.63135 0.05161 0.79264 0.0
C1147 C 0.61666 0.02275 0.8398 0.0
C1148 C 0.03925 0.60583 0.77852 0.0
C1149 C 0.05686 0.63906 0.78239 0.0
C1150 C 0.01122 0.59022 0.73045 0.0
C1151 C 0.99997 0.6074 0.68524 0.0
H1152 H 0.04708 0.59184 0.81301 0.0
H1153 H 0.99775 0.56468 0.73106 0.0
S1154 S 0.03631 0.69431 0.67633 0.0
N1155 N 0.06037 0.6883 0.73663 0.0
N1156 N 1.00784 0.65892 0.64871 0.0
C1157 C 0.01733 0.6404 0.6884 0.0
C1158 C 0.04577 0.65626 0.7362 0.0
C1159 C 0.40958 0.39542 0.71426 0.0
C1160 C 0.44205 0.41117 0.69679 0.0
C1161 C 0.39602 0.40975 0.76178 0.0
C1162 C 0.41447 0.44012 0.79627 0.0
H1163 H 0.39452 0.37153 0.69175 0.0
H1164 H 0.37083 0.39658 0.77317 0.0
S1165 S 0.50063 0.49183 0.76759 0.0
N1166 N 0.49234 0.45932 0.71505 0.0
N1167 N 0.46689 0.48597 0.80771 0.0
C1168 C 0.44701 0.45635 0.77906 0.0
C1169 C 0.46077 0.44198 0.72831 0.0
loop_
_geom_bond_atom_site_label_1
_geom_bond_atom_site_label_2
_geom_bond_distance
_geom_bond_site_symmetry_2
_ccdc_geom_bond_type
Zn0 O1 2.055 . S
Zn0 O8 2.046 1_655 S
Zn0 N16 2.036 . S
Zn0 O28 2.053 1_655 S
Zn0 O30 2.066 . S
O1 Zn0 2.055 . S
O1 C4 1.259 . S
C2 O30 1.256 . S
C2 O31 1.244 1_655 S
Zn3 O5 2.046 . S
Zn3 O7 2.055 . S
Zn3 N9 2.036 . S
Zn3 O27 2.066 . S
Zn3 O31 2.053 . S
C4 O1 1.259 . S
C4 O5 1.254 1_655 S
O5 Zn3 2.046 . S
O5 C4 1.254 1_455 S
C6 O27 1.256 . S
C6 O28 1.244 . S
O7 Zn3 2.055 . S
O7 C29 1.259 . S
O8 Zn0 2.046 1_455 S
O8 C29 1.254 . S
N9 Zn3 2.036 . S
N9 C10 1.298 . S
N9 N12 1.398 . S
C10 N9 1.298 . S
C10 N13 1.367 . S
C10 C23 1.481 . S
C11 N12 1.299 1_554 S
C11 N13 1.379 1_554 S
N12 N9 1.398 . S
N12 C11 1.299 1_556 S
N13 C10 1.367 . S
N13 C11 1.379 1_556 S
C14 N16 1.298 . S
C14 N18 1.367 . S
C14 C22 1.481 . S
C15 N17 1.299 . S
C15 N18 1.379 . S
N16 Zn0 2.036 . S
N16 C14 1.298 . S
N16 N17 1.398 . S
N17 C15 1.299 . S
N17 N16 1.398 . S
N18 C14 1.367 . S
N18 C15 1.379 . S
H19 C22 0.980 . S
H20 C22 0.981 . S
H21 C22 0.981 . S
C22 C14 1.481 . S
C22 H19 0.980 . S
C22 H20 0.981 . S
C22 H21 0.981 . S
C23 C10 1.481 . S
C23 H24 0.980 . S
C23 H25 0.981 . S
C23 H26 0.981 . S
H24 C23 0.980 . S
H25 C23 0.981 . S
H26 C23 0.981 . S
O27 Zn3 2.066 . S
O27 C6 1.256 . S
O28 Zn0 2.053 1_455 S
O28 C6 1.244 . S
C29 O7 1.259 . S
C29 O8 1.254 . S
O30 Zn0 2.066 . S
O30 C2 1.256 . S
O31 C2 1.244 1_455 S
O31 Zn3 2.053 . S
Zn32 O33 2.055 . S
Zn32 O40 2.046 . S
Zn32 N48 2.036 . S
Zn32 O60 2.053 . S
Zn32 O62 2.066 . S
O33 Zn32 2.055 . S
O33 C36 1.259 . S
C34 O62 1.256 . S
C34 O63 1.244 . S
Zn35 O37 2.046 . S
Zn35 O39 2.055 . S
Zn35 N41 2.036 . S
Zn35 O59 2.066 . S
Zn35 O63 2.053 . S
C36 O33 1.259 . S
C36 O37 1.254 . S
O37 Zn35 2.046 . S
O37 C36 1.254 . S
C38 O59 1.256 . S
C38 O60 1.244 . S
O39 Zn35 2.055 . S
O39 C61 1.259 . S
O40 Zn32 2.046 . S
O40 C61 1.254 . S
N41 Zn35 2.036 . S
N41 C42 1.298 . S
N41 N44 1.398 . S
C42 N41 1.298 . S
C42 N45 1.367 . S
C42 C55 1.481 . S
C43 N44 1.299 1_554 S
C43 N45 1.379 1_554 S
N44 N41 1.398 . S
N44 C43 1.299 1_556 S
N45 C42 1.367 . S
N45 C43 1.379 1_556 S
C46 N48 1.298 . S
C46 N50 1.367 . S
C46 C54 1.481 . S
C47 N49 1.299 . S
C47 N50 1.379 . S
N48 Zn32 2.036 . S
N48 C46 1.298 . S
N48 N49 1.398 . S
N49 C47 1.299 . S
N49 N48 1.398 . S
N50 C46 1.367 . S
N50 C47 1.379 . S
H51 C54 0.980 . S
H52 C54 0.981 . S
H53 C54 0.981 . S
C54 C46 1.481 . S
C54 H51 0.980 . S
C54 H52 0.981 . S
C54 H53 0.981 . S
C55 C42 1.481 . S
C55 H56 0.980 . S
C55 H57 0.981 . S
C55 H58 0.981 . S
H56 C55 0.980 . S
H57 C55 0.981 . S
H58 C55 0.981 . S
O59 Zn35 2.066 . S
O59 C38 1.256 . S
O60 Zn32 2.053 . S
O60 C38 1.244 . S
C61 O39 1.259 . S
C61 O40 1.254 . S
O62 Zn32 2.066 . S
O62 C34 1.256 . S
O63 C34 1.244 . S
O63 Zn35 2.053 . S
Zn64 O65 2.055 . S
Zn64 O72 2.046 1_565 S
Zn64 N80 2.036 . S
Zn64 O92 2.053 1_565 S
Zn64 O94 2.066 . S
O65 Zn64 2.055 . S
O65 C68 1.259 . S
C66 O94 1.256 . S
C66 O95 1.244 1_565 S
Zn67 O69 2.046 . S
Zn67 O71 2.055 . S
Zn67 N73 2.036 . S
Zn67 O91 2.066 . S
Zn67 O95 2.053 . S
C68 O65 1.259 . S
C68 O69 1.254 1_565 S
O69 Zn67 2.046 . S
O69 C68 1.254 1_545 S
C70 O91 1.256 . S
C70 O92 1.244 . S
O71 Zn67 2.055 . S
O71 C93 1.259 . S
O72 Zn64 2.046 1_545 S
O72 C93 1.254 . S
N73 Zn67 2.036 . S
N73 C74 1.298 . S
N73 N76 1.398 . S
C74 N73 1.298 . S
C74 N77 1.367 . S
C74 C87 1.481 . S
C75 N76 1.299 . S
C75 N77 1.379 . S
N76 N73 1.398 . S
N76 C75 1.299 . S
N77 C74 1.367 . S
N77 C75 1.379 . S
C78 N80 1.298 . S
C78 N82 1.367 . S
C78 C86 1.481 . S
C79 N81 1.299 1_554 S
C79 N82 1.379 1_554 S
N80 Zn64 2.036 . S
N80 C78 1.298 . S
N80 N81 1.398 . S
N81 C79 1.299 1_556 S
N81 N80 1.398 . S
N82 C78 1.367 . S
N82 C79 1.379 1_556 S
H83 C86 0.980 . S
H84 C86 0.981 . S
H85 C86 0.981 . S
C86 C78 1.481 . S
C86 H83 0.980 . S
C86 H84 0.981 . S
C86 H85 0.981 . S
C87 C74 1.481 . S
C87 H88 0.980 . S
C87 H89 0.981 . S
C87 H90 0.981 . S
H88 C87 0.980 . S
H89 C87 0.981 . S
H90 C87 0.981 . S
O91 Zn67 2.066 . S
O91 C70 1.256 . S
O92 Zn64 2.053 1_545 S
O92 C70 1.244 . S
C93 O71 1.259 . S
C93 O72 1.254 . S
O94 Zn64 2.066 . S
O94 C66 1.256 . S
O95 C66 1.244 1_545 S
O95 Zn67 2.053 . S
Zn96 O97 2.055 . S
Zn96 O104 2.046 . S
Zn96 N112 2.036 . S
Zn96 O124 2.053 . S
Zn96 O126 2.066 . S
O97 Zn96 2.055 . S
O97 C100 1.259 . S
C98 O126 1.256 . S
C98 O127 1.244 . S
Zn99 O101 2.046 1_655 S
Zn99 O103 2.055 . S
Zn99 N105 2.036 . S
Zn99 O123 2.066 . S
Zn99 O127 2.053 1_655 S
C100 O97 1.259 . S
C100 O101 1.254 . S
O101 Zn99 2.046 1_455 S
O101 C100 1.254 . S
C102 O123 1.256 . S
C102 O124 1.244 1_655 S
O103 Zn99 2.055 . S
O103 C125 1.259 . S
O104 Zn96 2.046 . S
O104 C125 1.254 1_455 S
N105 Zn99 2.036 . S
N105 C106 1.298 . S
N105 N108 1.398 . S
C106 N105 1.298 . S
C106 N109 1.367 . S
C106 C119 1.481 . S
C107 N108 1.299 1_556 S
C107 N109 1.379 1_556 S
N108 N105 1.398 . S
N108 C107 1.299 1_554 S
N109 C106 1.367 . S
N109 C107 1.379 1_554 S
C110 N112 1.298 . S
C110 N114 1.367 . S
C110 C118 1.481 . S
C111 N113 1.299 . S
C111 N114 1.379 . S
N112 Zn96 2.036 . S
N112 C110 1.298 . S
N112 N113 1.398 . S
N113 C111 1.299 . S
N113 N112 1.398 . S
N114 C110 1.367 . S
N114 C111 1.379 . S
H115 C118 0.980 . S
H116 C118 0.981 . S
H117 C118 0.981 . S
C118 C110 1.481 . S
C118 H115 0.980 . S
C118 H116 0.981 . S
C118 H117 0.981 . S
C119 C106 1.481 . S
C119 H120 0.980 . S
C119 H121 0.981 . S
C119 H122 0.981 . S
H120 C119 0.980 . S
H121 C119 0.981 . S
H122 C119 0.981 . S
O123 Zn99 2.066 . S
O123 C102 1.256 . S
O124 Zn96 2.053 . S
O124 C102 1.244 1_455 S
C125 O103 1.259 . S
C125 O104 1.254 1_655 S
O126 Zn96 2.066 . S
O126 C98 1.256 . S
O127 C98 1.244 . S
O127 Zn99 2.053 1_455 S
Zn128 O129 2.055 . S
Zn128 O136 2.046 . S
Zn128 N144 2.036 . S
Zn128 O156 2.053 . S
Zn128 O158 2.066 . S
O129 Zn128 2.055 . S
O129 C132 1.259 . S
C130 O158 1.256 . S
C130 O159 1.244 . S
Zn131 O133 2.046 . S
Zn131 O135 2.055 . S
Zn131 N137 2.036 . S
Zn131 O155 2.066 . S
Zn131 O159 2.053 . S
C132 O129 1.259 . S
C132 O133 1.254 . S
O133 Zn131 2.046 . S
O133 C132 1.254 . S
C134 O155 1.256 . S
C134 O156 1.244 . S
O135 Zn131 2.055 . S
O135 C157 1.259 . S
O136 Zn128 2.046 . S
O136 C157 1.254 . S
N137 Zn131 2.036 . S
N137 C138 1.298 . S
N137 N140 1.398 . S
C138 N137 1.298 . S
C138 N141 1.367 . S
C138 C151 1.481 . S
C139 N140 1.299 1_556 S
C139 N141 1.379 1_556 S
N140 N137 1.398 . S
N140 C139 1.299 1_554 S
N141 C138 1.367 . S
N141 C139 1.379 1_554 S
C142 N144 1.298 . S
C142 N146 1.367 . S
C142 C150 1.481 . S
C143 N145 1.299 . S
C143 N146 1.379 . S
N144 Zn128 2.036 . S
N144 C142 1.298 . S
N144 N145 1.398 . S
N145 C143 1.299 . S
N145 N144 1.398 . S
N146 C142 1.367 . S
N146 C143 1.379 . S
H147 C150 0.980 . S
H148 C150 0.981 . S
H149 C150 0.981 . S
C150 C142 1.481 . S
C150 H147 0.980 . S
C150 H148 0.981 . S
C150 H149 0.981 . S
C151 C138 1.481 . S
C151 H152 0.980 . S
C151 H153 0.981 . S
C151 H154 0.981 . S
H152 C151 0.980 . S
H153 C151 0.981 . S
H154 C151 0.981 . S
O155 Zn131 2.066 . S
O155 C134 1.256 . S
O156 Zn128 2.053 . S
O156 C134 1.244 . S
C157 O135 1.259 . S
C157 O136 1.254 . S
O158 Zn128 2.066 . S
O158 C130 1.256 . S
O159 C130 1.244 . S
O159 Zn131 2.053 . S
Zn160 O161 2.055 . S
Zn160 O168 2.046 1_565 S
Zn160 N176 2.036 . S
Zn160 O188 2.053 1_565 S
Zn160 O190 2.066 . S
O161 Zn160 2.055 . S
O161 C164 1.259 . S
C162 O190 1.256 . S
C162 O191 1.244 1_565 S
Zn163 O165 2.046 . S
Zn163 O167 2.055 . S
Zn163 N169 2.036 . S
Zn163 O187 2.066 . S
Zn163 O191 2.053 . S
C164 O161 1.259 . S
C164 O165 1.254 1_565 S
O165 Zn163 2.046 . S
O165 C164 1.254 1_545 S
C166 O187 1.256 . S
C166 O188 1.244 . S
O167 Zn163 2.055 . S
O167 C189 1.259 . S
O168 Zn160 2.046 1_545 S
O168 C189 1.254 . S
N169 Zn163 2.036 . S
N169 C170 1.298 . S
N169 N172 1.398 . S
C170 N169 1.298 . S
C170 N173 1.367 . S
C170 C183 1.481 . S
C171 N172 1.299 1_556 S
C171 N173 1.379 1_556 S
N172 N169 1.398 . S
N172 C171 1.299 1_554 S
N173 C170 1.367 . S
N173 C171 1.379 1_554 S
C174 N176 1.298 . S
C174 N178 1.367 . S
C174 C182 1.481 . S
C175 N177 1.299 . S
C175 N178 1.379 . S
N176 Zn160 2.036 . S
N176 C174 1.298 . S
N176 N177 1.398 . S
N177 C175 1.299 . S
N177 N176 1.398 . S
N178 C174 1.367 . S
N178 C175 1.379 . S
H179 C182 0.980 . S
H180 C182 0.981 . S
H181 C182 0.981 . S
C182 C174 1.481 . S
C182 H179 0.980 . S
C182 H180 0.981 . S
C182 H181 0.981 . S
C183 C170 1.481 . S
C183 H184 0.980 . S
C183 H185 0.981 . S
C183 H186 0.981 . S
H184 C183 0.980 . S
H185 C183 0.981 . S
H186 C183 0.981 . S
O187 Zn163 2.066 . S
O187 C166 1.256 . S
O188 Zn160 2.053 1_545 S
O188 C166 1.244 . S
C189 O167 1.259 . S
C189 O168 1.254 . S
O190 Zn160 2.066 . S
O190 C162 1.256 . S
O191 C162 1.244 1_545 S
O191 Zn163 2.053 . S
Zn192 O193 2.055 . S
Zn192 O200 2.046 1_554 S
Zn192 N208 2.036 1_554 S
Zn192 O220 2.053 1_554 S
Zn192 O222 2.066 . S
O193 Zn192 2.055 . S
O193 C196 1.259 . S
C194 O222 1.256 . S
C194 O223 1.244 . S
Zn195 O197 2.046 . S
Zn195 O199 2.055 . S
Zn195 N201 2.036 . S
Zn195 O219 2.066 . S
Zn195 O223 2.053 . S
C196 O193 1.259 . S
C196 O197 1.254 . S
O197 Zn195 2.046 . S
O197 C196 1.254 . S
C198 O219 1.256 . S
C198 O220 1.244 1_554 S
O199 Zn195 2.055 . S
O199 C221 1.259 1_554 S
O200 Zn192 2.046 1_556 S
O200 C221 1.254 . S
N201 Zn195 2.036 . S
N201 C202 1.298 . S
N201 N204 1.398 . S
C202 N201 1.298 . S
C202 N205 1.367 . S
C202 C215 1.481 . S
C203 N204 1.299 . S
C203 N205 1.379 . S
N204 N201 1.398 . S
N204 C203 1.299 . S
N205 C202 1.367 . S
N205 C203 1.379 . S
C206 N208 1.298 . S
C206 N210 1.367 . S
C206 C214 1.481 . S
C207 N209 1.299 . S
C207 N210 1.379 . S
N208 Zn192 2.036 1_556 S
N208 C206 1.298 . S
N208 N209 1.398 . S
N209 C207 1.299 . S
N209 N208 1.398 . S
N210 C206 1.367 . S
N210 C207 1.379 . S
H211 C214 0.980 1_554 S
H212 C214 0.981 . S
H213 C214 0.981 1_554 S
C214 C206 1.481 . S
C214 H211 0.980 1_556 S
C214 H212 0.981 . S
C214 H213 0.981 1_556 S
C215 C202 1.481 . S
C215 H216 0.980 . S
C215 H217 0.981 . S
C215 H218 0.981 . S
H216 C215 0.980 . S
H217 C215 0.981 . S
H218 C215 0.981 . S
O219 Zn195 2.066 . S
O219 C198 1.256 . S
O220 Zn192 2.053 1_556 S
O220 C198 1.244 1_556 S
C221 O199 1.259 1_556 S
C221 O200 1.254 . S
O222 Zn192 2.066 . S
O222 C194 1.256 . S
O223 C194 1.244 . S
O223 Zn195 2.053 . S
Zn224 O225 2.055 . S
Zn224 O232 2.046 1_554 S
Zn224 N240 2.036 1_554 S
Zn224 O252 2.053 1_554 S
Zn224 O254 2.066 . S
O225 Zn224 2.055 . S
O225 C228 1.259 . S
C226 O254 1.256 . S
C226 O255 1.244 . S
Zn227 O229 2.046 . S
Zn227 O231 2.055 . S
Zn227 N233 2.036 . S
Zn227 O251 2.066 . S
Zn227 O255 2.053 . S
C228 O225 1.259 . S
C228 O229 1.254 . S
O229 Zn227 2.046 . S
O229 C228 1.254 . S
C230 O251 1.256 . S
C230 O252 1.244 1_554 S
O231 Zn227 2.055 . S
O231 C253 1.259 1_554 S
O232 Zn224 2.046 1_556 S
O232 C253 1.254 . S
N233 Zn227 2.036 . S
N233 C234 1.298 . S
N233 N236 1.398 . S
C234 N233 1.298 . S
C234 N237 1.367 . S
C234 C247 1.481 . S
C235 N236 1.299 . S
C235 N237 1.379 . S
N236 N233 1.398 . S
N236 C235 1.299 . S
N237 C234 1.367 . S
N237 C235 1.379 . S
C238 N240 1.298 . S
C238 N242 1.367 . S
C238 C246 1.481 . S
C239 N241 1.299 . S
C239 N242 1.379 . S
N240 Zn224 2.036 1_556 S
N240 C238 1.298 . S
N240 N241 1.398 . S
N241 C239 1.299 . S
N241 N240 1.398 . S
N242 C238 1.367 . S
N242 C239 1.379 . S
H243 C246 0.980 1_554 S
H244 C246 0.981 . S
H245 C246 0.981 1_554 S
C246 C238 1.481 . S
C246 H243 0.980 1_556 S
C246 H244 0.981 . S
C246 H245 0.981 1_556 S
C247 C234 1.481 . S
C247 H248 0.980 . S
C247 H249 0.981 . S
C247 H250 0.981 . S
H248 C247 0.980 . S
H249 C247 0.981 . S
H250 C247 0.981 . S
O251 Zn227 2.066 . S
O251 C230 1.256 . S
O252 Zn224 2.053 1_556 S
O252 C230 1.244 1_556 S
C253 O231 1.259 1_556 S
C253 O232 1.254 . S
O254 Zn224 2.066 . S
O254 C226 1.256 . S
O255 C226 1.244 . S
O255 Zn227 2.053 . S
Zn256 O257 2.055 . S
Zn256 O264 2.046 1_554 S
Zn256 N272 2.036 1_554 S
Zn256 O284 2.053 1_554 S
Zn256 O286 2.066 . S
O257 Zn256 2.055 . S
O257 C260 1.259 . S
C258 O286 1.256 . S
C258 O287 1.244 . S
Zn259 O261 2.046 . S
Zn259 O263 2.055 . S
Zn259 N265 2.036 . S
Zn259 O283 2.066 . S
Zn259 O287 2.053 . S
C260 O257 1.259 . S
C260 O261 1.254 . S
O261 Zn259 2.046 . S
O261 C260 1.254 . S
C262 O283 1.256 . S
C262 O284 1.244 1_554 S
O263 Zn259 2.055 . S
O263 C285 1.259 1_554 S
O264 Zn256 2.046 1_556 S
O264 C285 1.254 . S
N265 Zn259 2.036 . S
N265 C266 1.298 . S
N265 N268 1.398 . S
C266 N265 1.298 . S
C266 N269 1.367 . S
C266 C279 1.481 . S
C267 N268 1.299 . S
C267 N269 1.379 . S
N268 N265 1.398 . S
N268 C267 1.299 . S
N269 C266 1.367 . S
N269 C267 1.379 . S
C270 N272 1.298 . S
C270 N274 1.367 . S
C270 C278 1.481 . S
C271 N273 1.299 . S
C271 N274 1.379 . S
N272 Zn256 2.036 1_556 S
N272 C270 1.298 . S
N272 N273 1.398 . S
N273 C271 1.299 . S
N273 N272 1.398 . S
N274 C270 1.367 . S
N274 C271 1.379 . S
H275 C278 0.980 1_554 S
H276 C278 0.981 . S
H277 C278 0.981 1_554 S
C278 C270 1.481 . S
C278 H275 0.980 1_556 S
C278 H276 0.981 . S
C278 H277 0.981 1_556 S
C279 C266 1.481 . S
C279 H280 0.980 . S
C279 H281 0.981 . S
C279 H282 0.981 . S
H280 C279 0.980 . S
H281 C279 0.981 . S
H282 C279 0.981 . S
O283 Zn259 2.066 . S
O283 C262 1.256 . S
O284 Zn256 2.053 1_556 S
O284 C262 1.244 1_556 S
C285 O263 1.259 1_556 S
C285 O264 1.254 . S
O286 Zn256 2.066 . S
O286 C258 1.256 . S
O287 C258 1.244 . S
O287 Zn259 2.053 . S
Zn288 O289 2.055 . S
Zn288 O296 2.046 . S
Zn288 N304 2.036 . S
Zn288 O316 2.053 . S
Zn288 O318 2.066 . S
O289 Zn288 2.055 . S
O289 C292 1.259 . S
C290 O318 1.256 . S
C290 O319 1.244 . S
Zn291 O293 2.046 . S
Zn291 O295 2.055 . S
Zn291 N297 2.036 . S
Zn291 O315 2.066 . S
Zn291 O319 2.053 . S
C292 O289 1.259 . S
C292 O293 1.254 . S
O293 Zn291 2.046 . S
O293 C292 1.254 . S
C294 O315 1.256 . S
C294 O316 1.244 . S
O295 Zn291 2.055 . S
O295 C317 1.259 . S
O296 Zn288 2.046 . S
O296 C317 1.254 . S
N297 Zn291 2.036 . S
N297 C298 1.298 . S
N297 N300 1.398 . S
C298 N297 1.298 . S
C298 N301 1.367 . S
C298 C311 1.481 . S
C299 N300 1.299 . S
C299 N301 1.379 . S
N300 N297 1.398 . S
N300 C299 1.299 . S
N301 C298 1.367 . S
N301 C299 1.379 . S
C302 N304 1.298 . S
C302 N306 1.367 . S
C302 C310 1.481 . S
C303 N305 1.299 . S
C303 N306 1.379 . S
N304 Zn288 2.036 . S
N304 C302 1.298 . S
N304 N305 1.398 . S
N305 C303 1.299 . S
N305 N304 1.398 . S
N306 C302 1.367 . S
N306 C303 1.379 . S
H307 C310 0.980 . S
H308 C310 0.981 . S
H309 C310 0.981 . S
C310 C302 1.481 . S
C310 H307 0.980 . S
C310 H308 0.981 . S
C310 H309 0.981 . S
C311 C298 1.481 . S
C311 H312 0.980 . S
C311 H313 0.981 . S
C311 H314 0.981 . S
H312 C311 0.980 . S
H313 C311 0.981 . S
H314 C311 0.981 . S
O315 Zn291 2.066 . S
O315 C294 1.256 . S
O316 Zn288 2.053 . S
O316 C294 1.244 . S
C317 O295 1.259 . S
C317 O296 1.254 . S
O318 Zn288 2.066 . S
O318 C290 1.256 . S
O319 C290 1.244 . S
O319 Zn291 2.053 . S
Zn320 O321 2.055 . S
Zn320 O328 2.046 . S
Zn320 N336 2.036 . S
Zn320 O348 2.053 . S
Zn320 O350 2.066 . S
O321 Zn320 2.055 . S
O321 C324 1.259 . S
C322 O350 1.256 . S
C322 O351 1.244 . S
Zn323 O325 2.046 . S
Zn323 O327 2.055 . S
Zn323 N329 2.036 . S
Zn323 O347 2.066 . S
Zn323 O351 2.053 . S
C324 O321 1.259 . S
C324 O325 1.254 . S
O325 Zn323 2.046 . S
O325 C324 1.254 . S
C326 O347 1.256 . S
C326 O348 1.244 . S
O327 Zn323 2.055 . S
O327 C349 1.259 . S
O328 Zn320 2.046 . S
O328 C349 1.254 . S
N329 Zn323 2.036 . S
N329 C330 1.298 . S
N329 N332 1.398 . S
C330 N329 1.298 . S
C330 N333 1.367 . S
C330 C343 1.481 . S
C331 N332 1.299 . S
C331 N333 1.379 . S
N332 N329 1.398 . S
N332 C331 1.299 . S
N333 C330 1.367 . S
N333 C331 1.379 . S
C334 N336 1.298 . S
C334 N338 1.367 . S
C334 C342 1.481 . S
C335 N337 1.299 . S
C335 N338 1.379 . S
N336 Zn320 2.036 . S
N336 C334 1.298 . S
N336 N337 1.398 . S
N337 C335 1.299 . S
N337 N336 1.398 . S
N338 C334 1.367 . S
N338 C335 1.379 . S
H339 C342 0.980 . S
H340 C342 0.981 . S
H341 C342 0.981 . S
C342 C334 1.481 . S
C342 H339 0.980 . S
C342 H340 0.981 . S
C342 H341 0.981 . S
C343 C330 1.481 . S
C343 H344 0.980 . S
C343 H345 0.981 . S
C343 H346 0.981 . S
H344 C343 0.980 . S
H345 C343 0.981 . S
H346 C343 0.981 . S
O347 Zn323 2.066 . S
O347 C326 1.256 . S
O348 Zn320 2.053 . S
O348 C326 1.244 . S
C349 O327 1.259 . S
C349 O328 1.254 . S
O350 Zn320 2.066 . S
O350 C322 1.256 . S
O351 C322 1.244 . S
O351 Zn323 2.053 . S
Zn352 O353 2.055 . S
Zn352 O360 2.046 . S
Zn352 N368 2.036 . S
Zn352 O380 2.053 . S
Zn352 O382 2.066 . S
O353 Zn352 2.055 . S
O353 C356 1.259 . S
C354 O382 1.256 . S
C354 O383 1.244 . S
Zn355 O357 2.046 . S
Zn355 O359 2.055 . S
Zn355 N361 2.036 . S
Zn355 O379 2.066 . S
Zn355 O383 2.053 . S
C356 O353 1.259 . S
C356 O357 1.254 . S
O357 Zn355 2.046 . S
O357 C356 1.254 . S
C358 O379 1.256 . S
C358 O380 1.244 . S
O359 Zn355 2.055 . S
O359 C381 1.259 . S
O360 Zn352 2.046 . S
O360 C381 1.254 . S
N361 Zn355 2.036 . S
N361 C362 1.298 . S
N361 N364 1.398 . S
C362 N361 1.298 . S
C362 N365 1.367 . S
C362 C375 1.481 . S
C363 N364 1.299 . S
C363 N365 1.379 . S
N364 N361 1.398 . S
N364 C363 1.299 . S
N365 C362 1.367 . S
N365 C363 1.379 . S
C366 N368 1.298 . S
C366 N370 1.367 . S
C366 C374 1.481 . S
C367 N369 1.299 . S
C367 N370 1.379 . S
N368 Zn352 2.036 . S
N368 C366 1.298 . S
N368 N369 1.398 . S
N369 C367 1.299 . S
N369 N368 1.398 . S
N370 C366 1.367 . S
N370 C367 1.379 . S
H371 C374 0.980 . S
H372 C374 0.981 . S
H373 C374 0.981 . S
C374 C366 1.481 . S
C374 H371 0.980 . S
C374 H372 0.981 . S
C374 H373 0.981 . S
C375 C362 1.481 . S
C375 H376 0.980 . S
C375 H377 0.981 . S
C375 H378 0.981 . S
H376 C375 0.980 . S
H377 C375 0.981 . S
H378 C375 0.981 . S
O379 Zn355 2.066 . S
O379 C358 1.256 . S
O380 Zn352 2.053 . S
O380 C358 1.244 . S
C381 O359 1.259 . S
C381 O360 1.254 . S
O382 Zn352 2.066 . S
O382 C354 1.256 . S
O383 C354 1.244 . S
O383 Zn355 2.053 . S
Zn384 O385 2.055 . S
Zn384 O392 2.046 . S
Zn384 N400 2.036 . S
Zn384 O412 2.053 . S
Zn384 O414 2.066 . S
O385 Zn384 2.055 . S
O385 C388 1.259 . S
C386 O414 1.256 . S
C386 O415 1.244 . S
Zn387 O389 2.046 . S
Zn387 O391 2.055 . S
Zn387 N393 2.036 . S
Zn387 O411 2.066 . S
Zn387 O415 2.053 . S
C388 O385 1.259 . S
C388 O389 1.254 . S
O389 Zn387 2.046 . S
O389 C388 1.254 . S
C390 O411 1.256 . S
C390 O412 1.244 . S
O391 Zn387 2.055 . S
O391 C413 1.259 . S
O392 Zn384 2.046 . S
O392 C413 1.254 . S
N393 Zn387 2.036 . S
N393 C394 1.298 . S
N393 N396 1.398 . S
C394 N393 1.298 . S
C394 N397 1.367 . S
C394 C407 1.481 . S
C395 N396 1.299 . S
C395 N397 1.379 . S
N396 N393 1.398 . S
N396 C395 1.299 . S
N397 C394 1.367 . S
N397 C395 1.379 . S
C398 N400 1.298 . S
C398 N402 1.367 . S
C398 C406 1.481 . S
C399 N401 1.299 . S
C399 N402 1.379 . S
N400 Zn384 2.036 . S
N400 C398 1.298 . S
N400 N401 1.398 . S
N401 C399 1.299 . S
N401 N400 1.398 . S
N402 C398 1.367 . S
N402 C399 1.379 . S
H403 C406 0.980 . S
H404 C406 0.981 . S
H405 C406 0.981 . S
C406 C398 1.481 . S
C406 H403 0.980 . S
C406 H404 0.981 . S
C406 H405 0.981 . S
C407 C394 1.481 . S
C407 H408 0.980 . S
C407 H409 0.981 . S
C407 H410 0.981 . S
H408 C407 0.980 . S
H409 C407 0.981 . S
H410 C407 0.981 . S
O411 Zn387 2.066 . S
O411 C390 1.256 . S
O412 Zn384 2.053 . S
O412 C390 1.244 . S
C413 O391 1.259 . S
C413 O392 1.254 . S
O414 Zn384 2.066 . S
O414 C386 1.256 . S
O415 C386 1.244 . S
O415 Zn387 2.053 . S
Zn416 O417 2.055 . S
Zn416 O424 2.046 . S
Zn416 N432 2.036 . S
Zn416 O444 2.053 . S
Zn416 O446 2.066 . S
O417 Zn416 2.055 . S
O417 C420 1.259 . S
C418 O446 1.256 . S
C418 O447 1.244 . S
Zn419 O421 2.046 . S
Zn419 O423 2.055 . S
Zn419 N425 2.036 . S
Zn419 O443 2.066 . S
Zn419 O447 2.053 . S
C420 O417 1.259 . S
C420 O421 1.254 . S
O421 Zn419 2.046 . S
O421 C420 1.254 . S
C422 O443 1.256 . S
C422 O444 1.244 . S
O423 Zn419 2.055 . S
O423 C445 1.259 . S
O424 Zn416 2.046 . S
O424 C445 1.254 . S
N425 Zn419 2.036 . S
N425 C426 1.298 . S
N425 N428 1.398 . S
C426 N425 1.298 . S
C426 N429 1.367 . S
C426 C439 1.481 . S
C427 N428 1.299 . S
C427 N429 1.379 . S
N428 N425 1.398 . S
N428 C427 1.299 . S
N429 C426 1.367 . S
N429 C427 1.379 . S
C430 N432 1.298 . S
C430 N434 1.367 . S
C430 C438 1.481 . S
C431 N433 1.299 . S
C431 N434 1.379 . S
N432 Zn416 2.036 . S
N432 C430 1.298 . S
N432 N433 1.398 . S
N433 C431 1.299 . S
N433 N432 1.398 . S
N434 C430 1.367 . S
N434 C431 1.379 . S
H435 C438 0.980 . S
H436 C438 0.981 . S
H437 C438 0.981 . S
C438 C430 1.481 . S
C438 H435 0.980 . S
C438 H436 0.981 . S
C438 H437 0.981 . S
C439 C426 1.481 . S
C439 H440 0.980 . S
C439 H441 0.981 . S
C439 H442 0.981 . S
H440 C439 0.980 . S
H441 C439 0.981 . S
H442 C439 0.981 . S
O443 Zn419 2.066 . S
O443 C422 1.256 . S
O444 Zn416 2.053 . S
O444 C422 1.244 . S
C445 O423 1.259 . S
C445 O424 1.254 . S
O446 Zn416 2.066 . S
O446 C418 1.256 . S
O447 C418 1.244 . S
O447 Zn419 2.053 . S
Zn448 O449 2.055 . S
Zn448 O456 2.046 . S
Zn448 N464 2.036 . S
Zn448 O476 2.053 . S
Zn448 O478 2.066 . S
O449 Zn448 2.055 . S
O449 C452 1.259 . S
C450 O478 1.256 . S
C450 O479 1.244 . S
Zn451 O453 2.046 . S
Zn451 O455 2.055 . S
Zn451 N457 2.036 . S
Zn451 O475 2.066 . S
Zn451 O479 2.053 . S
C452 O449 1.259 . S
C452 O453 1.254 . S
O453 Zn451 2.046 . S
O453 C452 1.254 . S
C454 O475 1.256 . S
C454 O476 1.244 . S
O455 Zn451 2.055 . S
O455 C477 1.259 . S
O456 Zn448 2.046 . S
O456 C477 1.254 . S
N457 Zn451 2.036 . S
N457 C458 1.298 . S
N457 N460 1.398 . S
C458 N457 1.298 . S
C458 N461 1.367 . S
C458 C471 1.481 . S
C459 N460 1.299 . S
C459 N461 1.379 . S
N460 N457 1.398 . S
N460 C459 1.299 . S
N461 C458 1.367 . S
N461 C459 1.379 . S
C462 N464 1.298 . S
C462 N466 1.367 . S
C462 C470 1.481 . S
C463 N465 1.299 . S
C463 N466 1.379 . S
N464 Zn448 2.036 . S
N464 C462 1.298 . S
N464 N465 1.398 . S
N465 C463 1.299 . S
N465 N464 1.398 . S
N466 C462 1.367 . S
N466 C463 1.379 . S
H467 C470 0.980 . S
H468 C470 0.981 . S
H469 C470 0.981 . S
C470 C462 1.481 . S
C470 H467 0.980 . S
C470 H468 0.981 . S
C470 H469 0.981 . S
C471 C458 1.481 . S
C471 H472 0.980 . S
C471 H473 0.981 . S
C471 H474 0.981 . S
H472 C471 0.980 . S
H473 C471 0.981 . S
H474 C471 0.981 . S
O475 Zn451 2.066 . S
O475 C454 1.256 . S
O476 Zn448 2.053 . S
O476 C454 1.244 . S
C477 O455 1.259 . S
C477 O456 1.254 . S
O478 Zn448 2.066 . S
O478 C450 1.256 . S
O479 C450 1.244 . S
O479 Zn451 2.053 . S
Zn480 O481 2.055 . S
Zn480 O488 2.046 1_556 S
Zn480 N496 2.036 1_556 S
Zn480 O508 2.053 1_556 S
Zn480 O510 2.066 . S
O481 Zn480 2.055 . S
O481 C484 1.259 . S
C482 O510 1.256 . S
C482 O511 1.244 . S
Zn483 O485 2.046 . S
Zn483 O487 2.055 . S
Zn483 N489 2.036 . S
Zn483 O507 2.066 . S
Zn483 O511 2.053 . S
C484 O481 1.259 . S
C484 O485 1.254 . S
O485 Zn483 2.046 . S
O485 C484 1.254 . S
C486 O507 1.256 . S
C486 O508 1.244 1_556 S
O487 Zn483 2.055 . S
O487 C509 1.259 1_556 S
O488 Zn480 2.046 1_554 S
O488 C509 1.254 . S
N489 Zn483 2.036 . S
N489 C490 1.298 . S
N489 N492 1.398 . S
C490 N489 1.298 . S
C490 N493 1.367 . S
C490 C503 1.481 . S
C491 N492 1.299 . S
C491 N493 1.379 . S
N492 N489 1.398 . S
N492 C491 1.299 . S
N493 C490 1.367 . S
N493 C491 1.379 . S
C494 N496 1.298 . S
C494 N498 1.367 . S
C494 C502 1.481 . S
C495 N497 1.299 . S
C495 N498 1.379 . S
N496 Zn480 2.036 1_554 S
N496 C494 1.298 . S
N496 N497 1.398 . S
N497 C495 1.299 . S
N497 N496 1.398 . S
N498 C494 1.367 . S
N498 C495 1.379 . S
H499 C502 0.980 1_556 S
H500 C502 0.981 . S
H501 C502 0.981 1_556 S
C502 C494 1.481 . S
C502 H499 0.980 1_554 S
C502 H500 0.981 . S
C502 H501 0.981 1_554 S
C503 C490 1.481 . S
C503 H504 0.980 . S
C503 H505 0.981 . S
C503 H506 0.981 . S
H504 C503 0.980 . S
H505 C503 0.981 . S
H506 C503 0.981 . S
O507 Zn483 2.066 . S
O507 C486 1.256 . S
O508 Zn480 2.053 1_554 S
O508 C486 1.244 1_554 S
C509 O487 1.259 1_554 S
C509 O488 1.254 . S
O510 Zn480 2.066 . S
O510 C482 1.256 . S
O511 C482 1.244 . S
O511 Zn483 2.053 . S
Zn512 O513 2.055 . S
Zn512 O520 2.046 . S
Zn512 N528 2.036 . S
Zn512 O540 2.053 . S
Zn512 O542 2.066 . S
O513 Zn512 2.055 . S
O513 C516 1.259 1_556 S
C514 O542 1.256 . S
C514 O543 1.244 1_556 S
Zn515 O517 2.046 1_556 S
Zn515 O519 2.055 . S
Zn515 N521 2.036 1_556 S
Zn515 O539 2.066 . S
Zn515 O543 2.053 1_556 S
C516 O513 1.259 1_554 S
C516 O517 1.254 . S
O517 Zn515 2.046 1_554 S
O517 C516 1.254 . S
C518 O539 1.256 . S
C518 O540 1.244 . S
O519 Zn515 2.055 . S
O519 C541 1.259 . S
O520 Zn512 2.046 . S
O520 C541 1.254 . S
N521 Zn515 2.036 1_554 S
N521 C522 1.298 . S
N521 N524 1.398 . S
C522 N521 1.298 . S
C522 N525 1.367 . S
C522 C535 1.481 . S
C523 N524 1.299 . S
C523 N525 1.379 . S
N524 N521 1.398 . S
N524 C523 1.299 . S
N525 C522 1.367 . S
N525 C523 1.379 . S
C526 N528 1.298 . S
C526 N530 1.367 . S
C526 C534 1.481 . S
C527 N529 1.299 . S
C527 N530 1.379 . S
N528 Zn512 2.036 . S
N528 C526 1.298 . S
N528 N529 1.398 . S
N529 C527 1.299 . S
N529 N528 1.398 . S
N530 C526 1.367 . S
N530 C527 1.379 . S
H531 C534 0.980 . S
H532 C534 0.981 . S
H533 C534 0.981 . S
C534 C526 1.481 . S
C534 H531 0.980 . S
C534 H532 0.981 . S
C534 H533 0.981 . S
C535 C522 1.481 . S
C535 H536 0.980 1_554 S
C535 H537 0.981 . S
C535 H538 0.981 1_554 S
H536 C535 0.980 1_556 S
H537 C535 0.981 . S
H538 C535 0.981 1_556 S
O539 Zn515 2.066 . S
O539 C518 1.256 . S
O540 Zn512 2.053 . S
O540 C518 1.244 . S
C541 O519 1.259 . S
C541 O520 1.254 . S
O542 Zn512 2.066 . S
O542 C514 1.256 . S
O543 C514 1.244 1_554 S
O543 Zn515 2.053 1_554 S
Zn544 O545 2.055 . S
Zn544 O552 2.046 . S
Zn544 N560 2.036 . S
Zn544 O572 2.053 . S
Zn544 O574 2.066 . S
O545 Zn544 2.055 . S
O545 C548 1.259 1_556 S
C546 O574 1.256 . S
C546 O575 1.244 1_556 S
Zn547 O549 2.046 1_556 S
Zn547 O551 2.055 . S
Zn547 N553 2.036 1_556 S
Zn547 O571 2.066 . S
Zn547 O575 2.053 1_556 S
C548 O545 1.259 1_554 S
C548 O549 1.254 . S
O549 Zn547 2.046 1_554 S
O549 C548 1.254 . S
C550 O571 1.256 . S
C550 O572 1.244 . S
O551 Zn547 2.055 . S
O551 C573 1.259 . S
O552 Zn544 2.046 . S
O552 C573 1.254 . S
N553 Zn547 2.036 1_554 S
N553 C554 1.298 . S
N553 N556 1.398 . S
C554 N553 1.298 . S
C554 N557 1.367 . S
C554 C567 1.481 . S
C555 N556 1.299 . S
C555 N557 1.379 . S
N556 N553 1.398 . S
N556 C555 1.299 . S
N557 C554 1.367 . S
N557 C555 1.379 . S
C558 N560 1.298 . S
C558 N562 1.367 . S
C558 C566 1.481 . S
C559 N561 1.299 . S
C559 N562 1.379 . S
N560 Zn544 2.036 . S
N560 C558 1.298 . S
N560 N561 1.398 . S
N561 C559 1.299 . S
N561 N560 1.398 . S
N562 C558 1.367 . S
N562 C559 1.379 . S
H563 C566 0.980 . S
H564 C566 0.981 . S
H565 C566 0.981 . S
C566 C558 1.481 . S
C566 H563 0.980 . S
C566 H564 0.981 . S
C566 H565 0.981 . S
C567 C554 1.481 . S
C567 H568 0.980 1_554 S
C567 H569 0.981 . S
C567 H570 0.981 1_554 S
H568 C567 0.980 1_556 S
H569 C567 0.981 . S
H570 C567 0.981 1_556 S
O571 Zn547 2.066 . S
O571 C550 1.256 . S
O572 Zn544 2.053 . S
O572 C550 1.244 . S
C573 O551 1.259 . S
C573 O552 1.254 . S
O574 Zn544 2.066 . S
O574 C546 1.256 . S
O575 C546 1.244 1_554 S
O575 Zn547 2.053 1_554 S
C576 C577 1.369 . S
C576 C578 1.419 . S
C576 H580 0.930 . S
C577 C576 1.369 . S
C577 C586 1.429 . S
C578 C576 1.419 . S
C578 C579 1.363 . S
C578 H581 0.929 . S
C579 C578 1.363 . S
C579 C585 1.428 . S
H580 C576 0.930 . S
H581 C578 0.929 . S
S582 N583 1.613 . S
S582 N584 1.610 . S
N583 S582 1.613 . S
N583 C586 1.350 . S
N584 S582 1.610 . S
N584 C585 1.351 . S
C585 C579 1.428 . S
C585 N584 1.351 . S
C585 C586 1.434 . S
C586 C577 1.429 . S
C586 N583 1.350 . S
C586 C585 1.434 . S
C587 C588 1.369 . S
C587 C589 1.419 . S
C587 H591 0.930 . S
C588 C587 1.369 . S
C588 C597 1.429 . S
C589 C587 1.419 . S
C589 C590 1.363 . S
C589 H592 0.929 . S
C590 C589 1.363 . S
C590 C596 1.428 . S
H591 C587 0.930 . S
H592 C589 0.929 . S
S593 N594 1.613 . S
S593 N595 1.610 . S
N594 S593 1.613 . S
N594 C597 1.350 . S
N595 S593 1.610 . S
N595 C596 1.351 . S
C596 C590 1.428 . S
C596 N595 1.351 . S
C596 C597 1.434 . S
C597 C588 1.429 . S
C597 N594 1.350 . S
C597 C596 1.434 . S
C598 C599 1.369 . S
C598 C600 1.419 . S
C598 H602 0.930 . S
C599 C598 1.369 . S
C599 C608 1.429 . S
C600 C598 1.419 . S
C600 C601 1.363 . S
C600 H603 0.929 . S
C601 C600 1.363 . S
C601 C607 1.428 . S
H602 C598 0.930 . S
H603 C600 0.929 . S
S604 N605 1.613 . S
S604 N606 1.610 . S
N605 S604 1.613 . S
N605 C608 1.350 . S
N606 S604 1.610 . S
N606 C607 1.351 . S
C607 C601 1.428 . S
C607 N606 1.351 . S
C607 C608 1.434 . S
C608 C599 1.429 . S
C608 N605 1.350 . S
C608 C607 1.434 . S
C609 C610 1.369 . S
C609 C611 1.419 . S
C609 H613 0.930 . S
C610 C609 1.369 . S
C610 C619 1.429 . S
C611 C609 1.419 . S
C611 C612 1.363 . S
C611 H614 0.929 . S
C612 C611 1.363 . S
C612 C618 1.428 1_556 S
H613 C609 0.930 . S
H614 C611 0.929 . S
S615 N616 1.613 . S
S615 N617 1.610 . S
N616 S615 1.613 . S
N616 C619 1.350 1_554 S
N617 S615 1.610 . S
N617 C618 1.351 . S
C618 C612 1.428 1_554 S
C618 N617 1.351 . S
C618 C619 1.434 1_554 S
C619 C610 1.429 . S
C619 N616 1.350 1_556 S
C619 C618 1.434 1_556 S
C620 C621 1.369 . S
C620 C622 1.419 . S
C620 H624 0.930 . S
C621 C620 1.369 . S
C621 C630 1.429 . S
C622 C620 1.419 . S
C622 C623 1.363 . S
C622 H625 0.929 . S
C623 C622 1.363 . S
C623 C629 1.428 . S
H624 C620 0.930 . S
H625 C622 0.929 . S
S626 N627 1.613 . S
S626 N628 1.610 . S
N627 S626 1.613 . S
N627 C630 1.350 . S
N628 S626 1.610 . S
N628 C629 1.351 . S
C629 C623 1.428 . S
C629 N628 1.351 . S
C629 C630 1.434 . S
C630 C621 1.429 . S
C630 N627 1.350 . S
C630 C629 1.434 . S
C631 C632 1.369 . S
C631 C633 1.419 . S
C631 H635 0.930 . S
C632 C631 1.369 . S
C632 C641 1.429 . S
C633 C631 1.419 . S
C633 C634 1.363 . S
C633 H636 0.929 . S
C634 C633 1.363 . S
C634 C640 1.428 . S
H635 C631 0.930 . S
H636 C633 0.929 . S
S637 N638 1.613 . S
S637 N639 1.610 . S
N638 S637 1.613 . S
N638 C641 1.350 . S
N639 S637 1.610 . S
N639 C640 1.351 . S
C640 C634 1.428 . S
C640 N639 1.351 . S
C640 C641 1.434 . S
C641 C632 1.429 . S
C641 N638 1.350 . S
C641 C640 1.434 . S
C642 C643 1.369 . S
C642 C644 1.419 . S
C642 H646 0.930 . S
C643 C642 1.369 . S
C643 C652 1.429 . S
C644 C642 1.419 . S
C644 C645 1.363 . S
C644 H647 0.929 . S
C645 C644 1.363 . S
C645 C651 1.428 . S
H646 C642 0.930 . S
H647 C644 0.929 . S
S648 N649 1.613 . S
S648 N650 1.610 . S
N649 S648 1.613 . S
N649 C652 1.350 . S
N650 S648 1.610 . S
N650 C651 1.351 . S
C651 C645 1.428 . S
C651 N650 1.351 . S
C651 C652 1.434 . S
C652 C643 1.429 . S
C652 N649 1.350 . S
C652 C651 1.434 . S
C653 C654 1.369 . S
C653 C655 1.419 . S
C653 H657 0.930 . S
C654 C653 1.369 . S
C654 C663 1.429 . S
C655 C653 1.419 . S
C655 C656 1.363 . S
C655 H658 0.929 . S
C656 C655 1.363 . S
C656 C662 1.428 . S
H657 C653 0.930 . S
H658 C655 0.929 . S
S659 N660 1.613 . S
S659 N661 1.610 . S
N660 S659 1.613 . S
N660 C663 1.350 . S
N661 S659 1.610 . S
N661 C662 1.351 . S
C662 C656 1.428 . S
C662 N661 1.351 . S
C662 C663 1.434 . S
C663 C654 1.429 . S
C663 N660 1.350 . S
C663 C662 1.434 . S
C664 C665 1.369 . S
C664 C666 1.419 . S
C664 H668 0.930 . S
C665 C664 1.369 . S
C665 C674 1.429 . S
C666 C664 1.419 . S
C666 C667 1.363 . S
C666 H669 0.929 . S
C667 C666 1.363 . S
C667 C673 1.428 . S
H668 C664 0.930 . S
H669 C666 0.929 . S
S670 N671 1.613 . S
S670 N672 1.610 . S
N671 S670 1.613 . S
N671 C674 1.350 . S
N672 S670 1.610 . S
N672 C673 1.351 . S
C673 C667 1.428 . S
C673 N672 1.351 . S
C673 C674 1.434 . S
C674 C665 1.429 . S
C674 N671 1.350 . S
C674 C673 1.434 . S
C675 C676 1.369 . S
C675 C677 1.419 1_554 S
C675 H679 0.927 1_554 S
C676 C675 1.369 . S
C676 C685 1.429 . S
C677 C675 1.419 1_556 S
C677 C678 1.363 1_556 S
C677 H680 0.929 . S
C678 C677 1.363 1_554 S
C678 C684 1.428 . S
H679 C675 0.927 1_556 S
H680 C677 0.929 . S
S681 N682 1.613 . S
S681 N683 1.610 . S
N682 S681 1.613 . S
N682 C685 1.350 . S
N683 S681 1.610 . S
N683 C684 1.351 . S
C684 C678 1.428 . S
C684 N683 1.351 . S
C684 C685 1.434 . S
C685 C676 1.429 . S
C685 N682 1.350 . S
C685 C684 1.434 . S
C686 C687 1.369 . S
C686 C688 1.419 . S
C686 H690 0.930 . S
C687 C686 1.369 . S
C687 C696 1.429 . S
C688 C686 1.419 . S
C688 C689 1.363 . S
C688 H691 0.929 . S
C689 C688 1.363 . S
C689 C695 1.428 . S
H690 C686 0.930 . S
H691 C688 0.929 . S
S692 N693 1.613 . S
S692 N694 1.610 . S
N693 S692 1.613 . S
N693 C696 1.350 . S
N694 S692 1.610 . S
N694 C695 1.351 . S
C695 C689 1.428 . S
C695 N694 1.351 . S
C695 C696 1.434 . S
C696 C687 1.429 . S
C696 N693 1.350 . S
C696 C695 1.434 . S
C697 C698 1.369 . S
C697 C699 1.419 . S
C697 H701 0.930 1_554 S
C698 C697 1.369 . S
C698 C707 1.429 . S
C699 C697 1.419 . S
C699 C700 1.363 . S
C699 H702 0.929 . S
C700 C699 1.363 . S
C700 C706 1.428 . S
H701 C697 0.930 1_556 S
H702 C699 0.929 . S
S703 N704 1.613 . S
S703 N705 1.610 . S
N704 S703 1.613 . S
N704 C707 1.350 . S
N705 S703 1.610 . S
N705 C706 1.351 . S
C706 C700 1.428 . S
C706 N705 1.351 . S
C706 C707 1.434 . S
C707 C698 1.429 . S
C707 N704 1.350 . S
C707 C706 1.434 . S
C708 C709 1.369 . S
C708 C710 1.419 . S
C708 H712 0.930 . S
C709 C708 1.369 . S
C709 C718 1.429 . S
C710 C708 1.419 . S
C710 C711 1.363 . S
C710 H713 0.929 . S
C711 C710 1.363 . S
C711 C717 1.428 . S
H712 C708 0.930 . S
H713 C710 0.929 . S
S714 N715 1.613 1_554 S
S714 N716 1.610 . S
N715 S714 1.613 1_556 S
N715 C718 1.350 . S
N716 S714 1.610 . S
N716 C717 1.351 1_554 S
C717 C711 1.428 . S
C717 N716 1.351 1_556 S
C717 C718 1.434 . S
C718 C709 1.429 . S
C718 N715 1.350 . S
C718 C717 1.434 . S
C719 C720 1.369 . S
C719 C721 1.419 . S
C719 H723 0.930 . S
C720 C719 1.369 . S
C720 C729 1.429 . S
C721 C719 1.419 . S
C721 C722 1.363 . S
C721 H724 0.929 . S
C722 C721 1.363 . S
C722 C728 1.428 . S
H723 C719 0.930 . S
H724 C721 0.929 . S
S725 N726 1.613 . S
S725 N727 1.610 1_554 S
N726 S725 1.613 . S
N726 C729 1.350 1_554 S
N727 S725 1.610 1_556 S
N727 C728 1.351 . S
C728 C722 1.428 . S
C728 N727 1.351 . S
C728 C729 1.434 . S
C729 C720 1.429 . S
C729 N726 1.350 1_556 S
C729 C728 1.434 . S
C730 C731 1.369 . S
C730 C732 1.419 . S
C730 H734 0.930 . S
C731 C730 1.369 . S
C731 C740 1.429 . S
C732 C730 1.419 . S
C732 C733 1.363 . S
C732 H735 0.929 . S
C733 C732 1.363 . S
C733 C739 1.428 . S
H734 C730 0.930 . S
H735 C732 0.929 . S
S736 N737 1.613 . S
S736 N738 1.610 . S
N737 S736 1.613 . S
N737 C740 1.350 . S
N738 S736 1.610 . S
N738 C739 1.351 . S
C739 C733 1.428 . S
C739 N738 1.351 . S
C739 C740 1.434 . S
C740 C731 1.429 . S
C740 N737 1.350 . S
C740 C739 1.434 . S
C741 C742 1.369 . S
C741 C743 1.419 . S
C741 H745 0.930 . S
C742 C741 1.369 . S
C742 C751 1.429 . S
C743 C741 1.419 . S
C743 C744 1.363 . S
C743 H746 0.929 . S
C744 C743 1.363 . S
C744 C750 1.428 . S
H745 C741 0.930 . S
H746 C743 0.929 . S
S747 N748 1.613 . S
S747 N749 1.610 . S
N748 S747 1.613 . S
N748 C751 1.350 . S
N749 S747 1.610 . S
N749 C750 1.351 . S
C750 C744 1.428 . S
C750 N749 1.351 . S
C750 C751 1.434 . S
C751 C742 1.429 . S
C751 N748 1.350 . S
C751 C750 1.434 . S
C752 C753 1.369 . S
C752 C754 1.419 . S
C752 H756 0.930 . S
C753 C752 1.369 . S
C753 C762 1.429 . S
C754 C752 1.419 . S
C754 C755 1.363 . S
C754 H757 0.929 . S
C755 C754 1.363 . S
C755 C761 1.428 . S
H756 C752 0.930 . S
H757 C754 0.929 . S
S758 N759 1.613 . S
S758 N760 1.610 . S
N759 S758 1.613 . S
N759 C762 1.350 . S
N760 S758 1.610 . S
N760 C761 1.351 . S
C761 C755 1.428 . S
C761 N760 1.351 . S
C761 C762 1.434 . S
C762 C753 1.429 . S
C762 N759 1.350 . S
C762 C761 1.434 . S
C763 C764 1.369 . S
C763 C765 1.419 . S
C763 H767 0.930 . S
C764 C763 1.369 . S
C764 C773 1.429 . S
C765 C763 1.419 . S
C765 C766 1.363 . S
C765 H768 0.929 . S
C766 C765 1.363 . S
C766 C772 1.428 . S
H767 C763 0.930 . S
H768 C765 0.929 . S
S769 N770 1.613 . S
S769 N771 1.610 . S
N770 S769 1.613 . S
N770 C773 1.350 . S
N771 S769 1.610 . S
N771 C772 1.351 . S
C772 C766 1.428 . S
C772 N771 1.351 . S
C772 C773 1.434 . S
C773 C764 1.429 . S
C773 N770 1.350 . S
C773 C772 1.434 . S
C774 C775 1.369 . S
C774 C776 1.419 . S
C774 H778 0.930 . S
C775 C774 1.369 . S
C775 C784 1.429 . S
C776 C774 1.419 . S
C776 C777 1.363 . S
C776 H779 0.929 . S
C777 C776 1.363 . S
C777 C783 1.428 . S
H778 C774 0.930 . S
H779 C776 0.929 . S
S780 N781 1.613 . S
S780 N782 1.610 . S
N781 S780 1.613 . S
N781 C784 1.350 . S
N782 S780 1.610 . S
N782 C783 1.351 . S
C783 C777 1.428 . S
C783 N782 1.351 . S
C783 C784 1.434 . S
C784 C775 1.429 . S
C784 N781 1.350 . S
C784 C783 1.434 . S
C785 C786 1.369 . S
C785 C787 1.419 . S
C785 H789 0.930 . S
C786 C785 1.369 . S
C786 C795 1.429 . S
C787 C785 1.419 . S
C787 C788 1.363 . S
C787 H790 0.929 . S
C788 C787 1.363 . S
C788 C794 1.428 . S
H789 C785 0.930 . S
H790 C787 0.929 . S
S791 N792 1.613 . S
S791 N793 1.610 . S
N792 S791 1.613 . S
N792 C795 1.350 . S
N793 S791 1.610 . S
N793 C794 1.351 . S
C794 C788 1.428 . S
C794 N793 1.351 . S
C794 C795 1.434 . S
C795 C786 1.429 . S
C795 N792 1.350 . S
C795 C794 1.434 . S
C796 C797 1.369 . S
C796 C798 1.419 . S
C796 H800 0.930 . S
C797 C796 1.369 . S
C797 C806 1.429 . S
C798 C796 1.419 . S
C798 C799 1.363 . S
C798 H801 0.929 . S
C799 C798 1.363 . S
C799 C805 1.428 . S
H800 C796 0.930 . S
H801 C798 0.929 . S
S802 N803 1.613 . S
S802 N804 1.610 . S
N803 S802 1.613 . S
N803 C806 1.350 . S
N804 S802 1.610 . S
N804 C805 1.351 . S
C805 C799 1.428 . S
C805 N804 1.351 . S
C805 C806 1.434 . S
C806 C797 1.429 . S
C806 N803 1.350 . S
C806 C805 1.434 . S
C807 C808 1.369 . S
C807 C809 1.419 . S
C807 H811 0.930 . S
C808 C807 1.369 . S
C808 C817 1.429 . S
C809 C807 1.419 . S
C809 C810 1.363 . S
C809 H812 0.929 . S
C810 C809 1.363 . S
C810 C816 1.428 . S
H811 C807 0.930 . S
H812 C809 0.929 . S
S813 N814 1.613 . S
S813 N815 1.610 . S
N814 S813 1.613 . S
N814 C817 1.350 . S
N815 S813 1.610 . S
N815 C816 1.351 . S
C816 C810 1.428 . S
C816 N815 1.351 . S
C816 C817 1.434 . S
C817 C808 1.429 . S
C817 N814 1.350 . S
C817 C816 1.434 . S
C818 C819 1.369 . S
C818 C820 1.419 . S
C818 H822 0.930 . S
C819 C818 1.369 . S
C819 C828 1.429 . S
C820 C818 1.419 . S
C820 C821 1.363 . S
C820 H823 0.929 . S
C821 C820 1.363 . S
C821 C827 1.428 . S
H822 C818 0.930 . S
H823 C820 0.929 . S
S824 N825 1.613 . S
S824 N826 1.610 . S
N825 S824 1.613 . S
N825 C828 1.350 . S
N826 S824 1.610 . S
N826 C827 1.351 . S
C827 C821 1.428 . S
C827 N826 1.351 . S
C827 C828 1.434 . S
C828 C819 1.429 . S
C828 N825 1.350 . S
C828 C827 1.434 . S
C829 C830 1.369 . S
C829 C831 1.419 . S
C829 H833 0.930 . S
C830 C829 1.369 . S
C830 C839 1.429 . S
C831 C829 1.419 . S
C831 C832 1.363 . S
C831 H834 0.929 . S
C832 C831 1.363 . S
C832 C838 1.428 . S
H833 C829 0.930 . S
H834 C831 0.929 . S
S835 N836 1.613 . S
S835 N837 1.610 . S
N836 S835 1.613 . S
N836 C839 1.350 . S
N837 S835 1.610 . S
N837 C838 1.351 . S
C838 C832 1.428 . S
C838 N837 1.351 . S
C838 C839 1.434 . S
C839 C830 1.429 . S
C839 N836 1.350 . S
C839 C838 1.434 . S
C840 C841 1.369 . S
C840 C842 1.419 . S
C840 H844 0.930 . S
C841 C840 1.369 . S
C841 C850 1.429 . S
C842 C840 1.419 . S
C842 C843 1.363 . S
C842 H845 0.929 . S
C843 C842 1.363 . S
C843 C849 1.428 . S
H844 C840 0.930 . S
H845 C842 0.929 . S
S846 N847 1.613 . S
S846 N848 1.610 . S
N847 S846 1.613 . S
N847 C850 1.350 . S
N848 S846 1.610 . S
N848 C849 1.351 . S
C849 C843 1.428 . S
C849 N848 1.351 . S
C849 C850 1.434 . S
C850 C841 1.429 . S
C850 N847 1.350 . S
C850 C849 1.434 . S
C851 C852 1.369 . S
C851 C853 1.419 . S
C851 H855 0.930 . S
C852 C851 1.369 . S
C852 C861 1.429 . S
C853 C851 1.419 . S
C853 C854 1.363 . S
C853 H856 0.929 . S
C854 C853 1.363 . S
C854 C860 1.428 . S
H855 C851 0.930 . S
H856 C853 0.929 . S
S857 N858 1.613 . S
S857 N859 1.610 . S
N858 S857 1.613 . S
N858 C861 1.350 . S
N859 S857 1.610 . S
N859 C860 1.351 . S
C860 C854 1.428 . S
C860 N859 1.351 . S
C860 C861 1.434 . S
C861 C852 1.429 . S
C861 N858 1.350 . S
C861 C860 1.434 . S
C862 C863 1.369 . S
C862 C864 1.419 . S
C862 H866 0.930 . S
C863 C862 1.369 . S
C863 C872 1.429 . S
C864 C862 1.419 . S
C864 C865 1.363 . S
C864 H867 0.929 . S
C865 C864 1.363 . S
C865 C871 1.428 . S
H866 C862 0.930 . S
H867 C864 0.929 . S
S868 N869 1.613 . S
S868 N870 1.610 . S
N869 S868 1.613 . S
N869 C872 1.350 . S
N870 S868 1.610 . S
N870 C871 1.351 . S
C871 C865 1.428 . S
C871 N870 1.351 . S
C871 C872 1.434 . S
C872 C863 1.429 . S
C872 N869 1.350 . S
C872 C871 1.434 . S
C873 C874 1.369 . S
C873 C875 1.419 . S
C873 H877 0.930 . S
C874 C873 1.369 . S
C874 C883 1.429 . S
C875 C873 1.419 . S
C875 C876 1.363 . S
C875 H878 0.929 . S
C876 C875 1.363 . S
C876 C882 1.428 . S
H877 C873 0.930 . S
H878 C875 0.929 . S
S879 N880 1.613 . S
S879 N881 1.610 . S
N880 S879 1.613 . S
N880 C883 1.350 . S
N881 S879 1.610 . S
N881 C882 1.351 . S
C882 C876 1.428 . S
C882 N881 1.351 . S
C882 C883 1.434 . S
C883 C874 1.429 . S
C883 N880 1.350 . S
C883 C882 1.434 . S
C884 C885 1.369 . S
C884 C886 1.419 . S
C884 H888 0.930 . S
C885 C884 1.369 . S
C885 C894 1.429 . S
C886 C884 1.419 . S
C886 C887 1.363 . S
C886 H889 0.929 . S
C887 C886 1.363 . S
C887 C893 1.428 . S
H888 C884 0.930 . S
H889 C886 0.929 . S
S890 N891 1.613 . S
S890 N892 1.610 . S
N891 S890 1.613 . S
N891 C894 1.350 . S
N892 S890 1.610 . S
N892 C893 1.351 . S
C893 C887 1.428 . S
C893 N892 1.351 . S
C893 C894 1.434 . S
C894 C885 1.429 . S
C894 N891 1.350 . S
C894 C893 1.434 . S
C895 C896 1.369 . S
C895 C897 1.419 . S
C895 H899 0.930 . S
C896 C895 1.369 . S
C896 C905 1.429 . S
C897 C895 1.419 . S
C897 C898 1.363 . S
C897 H900 0.929 . S
C898 C897 1.363 . S
C898 C904 1.428 . S
H899 C895 0.930 . S
H900 C897 0.929 . S
S901 N902 1.613 . S
S901 N903 1.610 . S
N902 S901 1.613 . S
N902 C905 1.350 . S
N903 S901 1.610 . S
N903 C904 1.351 . S
C904 C898 1.428 . S
C904 N903 1.351 . S
C904 C905 1.434 . S
C905 C896 1.429 . S
C905 N902 1.350 . S
C905 C904 1.434 . S
C906 C907 1.369 . S
C906 C908 1.419 . S
C906 H910 0.930 . S
C907 C906 1.369 . S
C907 C916 1.429 . S
C908 C906 1.419 . S
C908 C909 1.363 . S
C908 H911 0.929 1_554 S
C909 C908 1.363 . S
C909 C915 1.428 . S
H910 C906 0.930 . S
H911 C908 0.929 1_556 S
S912 N913 1.613 . S
S912 N914 1.610 . S
N913 S912 1.613 . S
N913 C916 1.350 . S
N914 S912 1.610 . S
N914 C915 1.351 . S
C915 C909 1.428 . S
C915 N914 1.351 . S
C915 C916 1.434 . S
C916 C907 1.429 . S
C916 N913 1.350 . S
C916 C915 1.434 . S
C917 C918 1.369 . S
C917 C919 1.419 . S
C917 H921 0.930 . S
C918 C917 1.369 . S
C918 C927 1.429 . S
C919 C917 1.419 . S
C919 C920 1.363 . S
C919 H922 0.929 . S
C920 C919 1.363 . S
C920 C926 1.428 . S
H921 C917 0.930 . S
H922 C919 0.929 . S
S923 N924 1.613 . S
S923 N925 1.610 . S
N924 S923 1.613 . S
N924 C927 1.350 . S
N925 S923 1.610 . S
N925 C926 1.351 . S
C926 C920 1.428 . S
C926 N925 1.351 . S
C926 C927 1.434 . S
C927 C918 1.429 . S
C927 N924 1.350 . S
C927 C926 1.434 . S
C928 C929 1.369 . S
C928 C930 1.419 . S
C928 H932 0.930 . S
C929 C928 1.369 . S
C929 C938 1.429 . S
C930 C928 1.419 . S
C930 C931 1.363 . S
C930 H933 0.929 . S
C931 C930 1.363 . S
C931 C937 1.428 . S
H932 C928 0.930 . S
H933 C930 0.929 . S
S934 N935 1.613 . S
S934 N936 1.610 . S
N935 S934 1.613 . S
N935 C938 1.350 1_556 S
N936 S934 1.610 . S
N936 C937 1.351 1_556 S
C937 C931 1.428 . S
C937 N936 1.351 1_554 S
C937 C938 1.434 . S
C938 C929 1.429 . S
C938 N935 1.350 1_554 S
C938 C937 1.434 . S
C939 C940 1.369 . S
C939 C941 1.419 . S
C939 H943 0.930 . S
C940 C939 1.369 . S
C940 C949 1.429 . S
C941 C939 1.419 . S
C941 C942 1.363 . S
C941 H944 0.929 . S
C942 C941 1.363 . S
C942 C948 1.428 . S
H943 C939 0.930 . S
H944 C941 0.929 . S
S945 N946 1.613 . S
S945 N947 1.610 . S
N946 S945 1.613 . S
N946 C949 1.350 . S
N947 S945 1.610 . S
N947 C948 1.351 . S
C948 C942 1.428 . S
C948 N947 1.351 . S
C948 C949 1.434 . S
C949 C940 1.429 . S
C949 N946 1.350 . S
C949 C948 1.434 . S
C950 C951 1.369 . S
C950 C952 1.419 . S
C950 H954 0.930 . S
C951 C950 1.369 . S
C951 C960 1.429 . S
C952 C950 1.419 . S
C952 C953 1.363 . S
C952 H955 0.929 . S
C953 C952 1.363 . S
C953 C959 1.428 . S
H954 C950 0.930 . S
H955 C952 0.929 . S
S956 N957 1.613 . S
S956 N958 1.610 . S
N957 S956 1.613 . S
N957 C960 1.350 . S
N958 S956 1.610 . S
N958 C959 1.351 . S
C959 C953 1.428 . S
C959 N958 1.351 . S
C959 C960 1.434 . S
C960 C951 1.429 . S
C960 N957 1.350 . S
C960 C959 1.434 . S
C961 C962 1.369 . S
C961 C963 1.419 . S
C961 H965 0.930 . S
C962 C961 1.369 . S
C962 C971 1.429 . S
C963 C961 1.419 . S
C963 C964 1.363 . S
C963 H966 0.929 . S
C964 C963 1.363 . S
C964 C970 1.428 . S
H965 C961 0.930 . S
H966 C963 0.929 . S
S967 N968 1.613 . S
S967 N969 1.610 . S
N968 S967 1.613 . S
N968 C971 1.350 . S
N969 S967 1.610 . S
N969 C970 1.351 . S
C970 C964 1.428 . S
C970 N969 1.351 . S
C970 C971 1.434 . S
C971 C962 1.429 . S
C971 N968 1.350 . S
C971 C970 1.434 . S
C972 C973 1.369 . S
C972 C974 1.419 . S
C972 H976 0.930 . S
C973 C972 1.369 . S
C973 C982 1.429 . S
C974 C972 1.419 . S
C974 C975 1.363 . S
C974 H977 0.929 . S
C975 C974 1.363 . S
C975 C981 1.428 . S
H976 C972 0.930 . S
H977 C974 0.929 . S
S978 N979 1.613 . S
S978 N980 1.610 . S
N979 S978 1.613 . S
N979 C982 1.350 . S
N980 S978 1.610 . S
N980 C981 1.351 . S
C981 C975 1.428 . S
C981 N980 1.351 . S
C981 C982 1.434 . S
C982 C973 1.429 . S
C982 N979 1.350 . S
C982 C981 1.434 . S
C983 C984 1.369 . S
C983 C985 1.419 . S
C983 H987 0.930 . S
C984 C983 1.369 . S
C984 C993 1.429 . S
C985 C983 1.419 . S
C985 C986 1.363 . S
C985 H988 0.929 . S
C986 C985 1.363 . S
C986 C992 1.428 . S
H987 C983 0.930 . S
H988 C985 0.929 . S
S989 N990 1.613 . S
S989 N991 1.610 . S
N990 S989 1.613 . S
N990 C993 1.350 . S
N991 S989 1.610 . S
N991 C992 1.351 . S
C992 C986 1.428 . S
C992 N991 1.351 . S
C992 C993 1.434 . S
C993 C984 1.429 . S
C993 N990 1.350 . S
C993 C992 1.434 . S
C994 C995 1.369 . S
C994 C996 1.419 . S
C994 H998 0.930 1_565 S
C995 C994 1.369 . S
C995 C1004 1.429 . S
C996 C994 1.419 . S
C996 C997 1.363 . S
C996 H999 0.929 . S
C997 C996 1.363 . S
C997 C1003 1.428 . S
H998 C994 0.930 1_545 S
H999 C996 0.929 . S
S1000 N1001 1.613 . S
S1000 N1002 1.610 . S
N1001 S1000 1.613 . S
N1001 C1004 1.350 . S
N1002 S1000 1.610 . S
N1002 C1003 1.351 . S
C1003 C997 1.428 . S
C1003 N1002 1.351 . S
C1003 C1004 1.434 . S
C1004 C995 1.429 . S
C1004 N1001 1.350 . S
C1004 C1003 1.434 . S
C1005 C1006 1.369 . S
C1005 C1007 1.419 . S
C1005 H1009 0.930 . S
C1006 C1005 1.369 . S
C1006 C1015 1.429 . S
C1007 C1005 1.419 . S
C1007 C1008 1.363 . S
C1007 H1010 0.929 . S
C1008 C1007 1.363 . S
C1008 C1014 1.428 . S
H1009 C1005 0.930 . S
H1010 C1007 0.929 . S
S1011 N1012 1.613 . S
S1011 N1013 1.610 . S
N1012 S1011 1.613 . S
N1012 C1015 1.350 . S
N1013 S1011 1.610 . S
N1013 C1014 1.351 . S
C1014 C1008 1.428 . S
C1014 N1013 1.351 . S
C1014 C1015 1.434 . S
C1015 C1006 1.429 . S
C1015 N1012 1.350 . S
C1015 C1014 1.434 . S
C1016 C1017 1.369 . S
C1016 C1018 1.419 . S
C1016 H1020 0.930 . S
C1017 C1016 1.369 . S
C1017 C1026 1.429 . S
C1018 C1016 1.419 . S
C1018 C1019 1.363 . S
C1018 H1021 0.929 1_556 S
C1019 C1018 1.363 . S
C1019 C1025 1.428 . S
H1020 C1016 0.930 . S
H1021 C1018 0.929 1_554 S
S1022 N1023 1.613 . S
S1022 N1024 1.610 . S
N1023 S1022 1.613 . S
N1023 C1026 1.350 . S
N1024 S1022 1.610 . S
N1024 C1025 1.351 . S
C1025 C1019 1.428 . S
C1025 N1024 1.351 . S
C1025 C1026 1.434 . S
C1026 C1017 1.429 . S
C1026 N1023 1.350 . S
C1026 C1025 1.434 . S
C1027 C1028 1.369 . S
C1027 C1029 1.419 . S
C1027 H1031 0.930 . S
C1028 C1027 1.369 . S
C1028 C1037 1.429 . S
C1029 C1027 1.419 . S
C1029 C1030 1.363 . S
C1029 H1032 0.929 1_556 S
C1030 C1029 1.363 . S
C1030 C1036 1.428 . S
H1031 C1027 0.930 . S
H1032 C1029 0.929 1_554 S
S1033 N1034 1.613 . S
S1033 N1035 1.610 . S
N1034 S1033 1.613 . S
N1034 C1037 1.350 . S
N1035 S1033 1.610 . S
N1035 C1036 1.351 . S
C1036 C1030 1.428 . S
C1036 N1035 1.351 . S
C1036 C1037 1.434 . S
C1037 C1028 1.429 . S
C1037 N1034 1.350 . S
C1037 C1036 1.434 . S
C1038 C1039 1.369 . S
C1038 C1040 1.419 . S
C1038 H1042 0.930 . S
C1039 C1038 1.369 . S
C1039 C1048 1.429 . S
C1040 C1038 1.419 . S
C1040 C1041 1.363 . S
C1040 H1043 0.929 . S
C1041 C1040 1.363 . S
C1041 C1047 1.428 . S
H1042 C1038 0.930 . S
H1043 C1040 0.929 . S
S1044 N1045 1.613 1_455 S
S1044 N1046 1.610 . S
N1045 S1044 1.613 1_655 S
N1045 C1048 1.350 . S
N1046 S1044 1.610 . S
N1046 C1047 1.351 1_455 S
C1047 C1041 1.428 . S
C1047 N1046 1.351 1_655 S
C1047 C1048 1.434 . S
C1048 C1039 1.429 . S
C1048 N1045 1.350 . S
C1048 C1047 1.434 . S
C1049 C1050 1.369 . S
C1049 C1051 1.419 . S
C1049 H1053 0.930 . S
C1050 C1049 1.369 . S
C1050 C1059 1.429 . S
C1051 C1049 1.419 . S
C1051 C1052 1.363 . S
C1051 H1054 0.929 . S
C1052 C1051 1.363 . S
C1052 C1058 1.428 . S
H1053 C1049 0.930 . S
H1054 C1051 0.929 . S
S1055 N1056 1.613 . S
S1055 N1057 1.610 . S
N1056 S1055 1.613 . S
N1056 C1059 1.350 . S
N1057 S1055 1.610 . S
N1057 C1058 1.351 . S
C1058 C1052 1.428 . S
C1058 N1057 1.351 . S
C1058 C1059 1.434 . S
C1059 C1050 1.429 . S
C1059 N1056 1.350 . S
C1059 C1058 1.434 . S
C1060 C1061 1.369 . S
C1060 C1062 1.419 . S
C1060 H1064 0.930 . S
C1061 C1060 1.369 . S
C1061 C1070 1.429 . S
C1062 C1060 1.419 . S
C1062 C1063 1.363 . S
C1062 H1065 0.929 . S
C1063 C1062 1.363 . S
C1063 C1069 1.428 . S
H1064 C1060 0.930 . S
H1065 C1062 0.929 . S
S1066 N1067 1.613 . S
S1066 N1068 1.610 . S
N1067 S1066 1.613 . S
N1067 C1070 1.350 . S
N1068 S1066 1.610 . S
N1068 C1069 1.351 . S
C1069 C1063 1.428 . S
C1069 N1068 1.351 . S
C1069 C1070 1.434 . S
C1070 C1061 1.429 . S
C1070 N1067 1.350 . S
C1070 C1069 1.434 . S
C1071 C1072 1.369 . S
C1071 C1073 1.419 . S
C1071 H1075 0.930 1_554 S
C1072 C1071 1.369 . S
C1072 C1081 1.429 . S
C1073 C1071 1.419 . S
C1073 C1074 1.363 . S
C1073 H1076 0.929 . S
C1074 C1073 1.363 . S
C1074 C1080 1.428 . S
H1075 C1071 0.930 1_556 S
H1076 C1073 0.929 . S
S1077 N1078 1.613 . S
S1077 N1079 1.610 . S
N1078 S1077 1.613 . S
N1078 C1081 1.350 . S
N1079 S1077 1.610 . S
N1079 C1080 1.351 . S
C1080 C1074 1.428 . S
C1080 N1079 1.351 . S
C1080 C1081 1.434 . S
C1081 C1072 1.429 . S
C1081 N1078 1.350 . S
C1081 C1080 1.434 . S
C1082 C1083 1.369 . S
C1082 C1084 1.419 . S
C1082 H1086 0.930 . S
C1083 C1082 1.369 . S
C1083 C1092 1.429 . S
C1084 C1082 1.419 . S
C1084 C1085 1.363 . S
C1084 H1087 0.929 . S
C1085 C1084 1.363 . S
C1085 C1091 1.428 . S
H1086 C1082 0.930 . S
H1087 C1084 0.929 . S
S1088 N1089 1.613 . S
S1088 N1090 1.610 . S
N1089 S1088 1.613 . S
N1089 C1092 1.350 . S
N1090 S1088 1.610 . S
N1090 C1091 1.351 . S
C1091 C1085 1.428 . S
C1091 N1090 1.351 . S
C1091 C1092 1.434 . S
C1092 C1083 1.429 . S
C1092 N1089 1.350 . S
C1092 C1091 1.434 . S
C1093 C1094 1.369 . S
C1093 C1095 1.419 . S
C1093 H1097 0.930 . S
C1094 C1093 1.369 . S
C1094 C1103 1.429 . S
C1095 C1093 1.419 . S
C1095 C1096 1.363 . S
C1095 H1098 0.929 . S
C1096 C1095 1.363 . S
C1096 C1102 1.428 . S
H1097 C1093 0.930 . S
H1098 C1095 0.929 . S
S1099 N1100 1.613 . S
S1099 N1101 1.610 . S
N1100 S1099 1.613 . S
N1100 C1103 1.350 . S
N1101 S1099 1.610 . S
N1101 C1102 1.351 . S
C1102 C1096 1.428 . S
C1102 N1101 1.351 . S
C1102 C1103 1.434 . S
C1103 C1094 1.429 . S
C1103 N1100 1.350 . S
C1103 C1102 1.434 . S
C1104 C1105 1.369 1_455 S
C1104 C1106 1.419 . S
C1104 H1108 0.930 . S
C1105 C1104 1.369 1_655 S
C1105 C1114 1.429 . S
C1106 C1104 1.419 . S
C1106 C1107 1.363 . S
C1106 H1109 0.929 . S
C1107 C1106 1.363 . S
C1107 C1113 1.428 . S
H1108 C1104 0.930 . S
H1109 C1106 0.929 . S
S1110 N1111 1.613 . S
S1110 N1112 1.610 1_655 S
N1111 S1110 1.613 . S
N1111 C1114 1.350 . S
N1112 S1110 1.610 1_455 S
N1112 C1113 1.351 . S
C1113 C1107 1.428 . S
C1113 N1112 1.351 . S
C1113 C1114 1.434 1_455 S
C1114 C1105 1.429 . S
C1114 N1111 1.350 . S
C1114 C1113 1.434 1_655 S
C1115 C1116 1.369 . S
C1115 C1117 1.419 . S
C1115 H1119 0.930 . S
C1116 C1115 1.369 . S
C1116 C1125 1.429 . S
C1117 C1115 1.419 . S
C1117 C1118 1.363 . S
C1117 H1120 0.929 . S
C1118 C1117 1.363 . S
C1118 C1124 1.428 . S
H1119 C1115 0.930 . S
H1120 C1117 0.929 . S
S1121 N1122 1.613 . S
S1121 N1123 1.610 . S
N1122 S1121 1.613 . S
N1122 C1125 1.350 . S
N1123 S1121 1.610 . S
N1123 C1124 1.351 . S
C1124 C1118 1.428 . S
C1124 N1123 1.351 . S
C1124 C1125 1.434 . S
C1125 C1116 1.429 . S
C1125 N1122 1.350 . S
C1125 C1124 1.434 . S
C1126 C1127 1.369 1_545 S
C1126 C1128 1.419 . S
C1126 H1130 0.930 . S
C1127 C1126 1.369 1_565 S
C1127 C1136 1.429 . S
C1128 C1126 1.419 . S
C1128 C1129 1.363 . S
C1128 H1131 0.929 . S
C1129 C1128 1.363 . S
C1129 C1135 1.428 . S
H1130 C1126 0.930 . S
H1131 C1128 0.929 . S
S1132 N1133 1.613 . S
S1132 N1134 1.610 1_565 S
N1133 S1132 1.613 . S
N1133 C1136 1.350 . S
N1134 S1132 1.610 1_545 S
N1134 C1135 1.351 . S
C1135 C1129 1.428 . S
C1135 N1134 1.351 . S
C1135 C1136 1.434 1_545 S
C1136 C1127 1.429 . S
C1136 N1133 1.350 . S
C1136 C1135 1.434 1_565 S
C1137 C1138 1.369 . S
C1137 C1139 1.419 1_565 S
C1137 H1141 0.930 . S
C1138 C1137 1.369 . S
C1138 C1147 1.429 1_565 S
C1139 C1137 1.419 1_545 S
C1139 C1140 1.363 . S
C1139 H1142 0.929 . S
C1140 C1139 1.363 . S
C1140 C1146 1.428 . S
H1141 C1137 0.930 . S
H1142 C1139 0.929 . S
S1143 N1144 1.613 1_545 S
S1143 N1145 1.610 . S
N1144 S1143 1.613 1_565 S
N1144 C1147 1.350 1_565 S
N1145 S1143 1.610 . S
N1145 C1146 1.351 . S
C1146 C1140 1.428 . S
C1146 N1145 1.351 . S
C1146 C1147 1.434 . S
C1147 C1138 1.429 1_545 S
C1147 N1144 1.350 1_545 S
C1147 C1146 1.434 . S
C1148 C1149 1.369 . S
C1148 C1150 1.426 . S
C1148 H1152 0.930 . S
C1149 C1148 1.369 . S
C1149 C1158 1.429 . S
C1150 C1148 1.426 . S
C1150 C1151 1.356 1_455 S
C1150 H1153 0.930 1_455 S
C1151 C1150 1.356 1_655 S
C1151 C1157 1.429 1_655 S
H1152 C1148 0.930 . S
H1153 C1150 0.930 1_655 S
S1154 N1155 1.613 . S
S1154 N1156 1.610 1_455 S
N1155 S1154 1.613 . S
N1155 C1158 1.350 . S
N1156 S1154 1.610 1_655 S
N1156 C1157 1.343 1_655 S
C1157 C1151 1.429 1_455 S
C1157 N1156 1.343 1_455 S
C1157 C1158 1.442 . S
C1158 C1149 1.429 . S
C1158 N1155 1.350 . S
C1158 C1157 1.442 . S
C1159 C1160 1.369 . S
C1159 C1161 1.419 . S
C1159 H1163 0.930 . S
C1160 C1159 1.369 . S
C1160 C1169 1.429 . S
C1161 C1159 1.419 . S
C1161 C1162 1.363 . S
C1161 H1164 0.929 . S
C1162 C1161 1.363 . S
C1162 C1168 1.428 . S
H1163 C1159 0.930 . S
H1164 C1161 0.929 . S
S1165 N1166 1.613 . S
S1165 N1167 1.610 . S
N1166 S1165 1.613 . S
N1166 C1169 1.350 . S
N1167 S1165 1.610 . S
N1167 C1168 1.351 . S
C1168 C1162 1.428 . S
C1168 N1167 1.351 . S
C1168 C1169 1.434 . S
C1169 C1160 1.429 . S
C1169 N1166 1.350 . S
C1169 C1168 1.434 . S
C577 C6 1.886 . S
C579 N146 1.799 . S
C588 N178 1.801 . S
C590 C38 1.886 . S
C599 C66 1.888 . S
C601 N114 1.803 . S
C610 C70 1.891 . S
C612 N141 1.799 1_556 S
C621 N173 1.806 1_556 S
C623 C2 1.883 . S
C632 C34 1.891 . S
C634 N109 1.796 1_556 S
C643 N50 1.798 . S
C645 C102 1.887 . S
C654 N77 1.802 . S
C656 C134 1.888 . S
C665 C166 1.890 . S
C667 N18 1.797 . S
C676 C162 1.886 . S
C678 N45 1.800 1_554 S
C687 N82 1.795 1_554 S
C689 C98 1.891 . S
C698 N13 1.796 1_554 S
C700 C130 1.889 . S
C709 N333 1.796 . S
C711 C198 1.889 1_556 S
C720 C230 1.882 1_556 S
C722 N370 1.805 . S
C731 C262 1.886 1_556 S
C733 N306 1.804 . S
C742 N338 1.800 . S
C744 C258 1.885 . S
C753 N365 1.804 . S
C755 C194 1.887 . S
C764 N301 1.806 . S
C766 C226 1.885 . S
C775 N242 1.805 . S
C777 C294 1.884 . S
C786 N274 1.804 . S
C788 C322 1.885 . S
C797 N210 1.796 . S
C799 C358 1.889 . S
C808 N237 1.797 . S
C810 C354 1.888 . S
C819 N269 1.799 . S
C821 C290 1.890 . S
C830 C326 1.890 . S
C832 N205 1.800 . S
C841 C390 1.889 . S
C843 N525 1.797 . S
C852 C418 1.889 . S
C854 N557 1.797 . S
C863 N498 1.799 . S
C865 C454 1.890 . S
C874 N530 1.804 . S
C876 C450 1.884 . S
C885 C386 1.890 . S
C887 N562 1.801 . S
C896 C422 1.892 . S
C898 N493 1.798 . S
C907 N429 1.804 . S
C909 C486 1.887 1_554 S
C918 N466 1.805 . S
C920 C514 1.886 1_554 S
C929 N402 1.801 . S
C931 C546 1.886 1_554 S
C940 C550 1.892 . S
C942 N434 1.796 . S
C951 C482 1.885 . S
C953 N461 1.804 . S
C962 N397 1.800 . S
C964 C518 1.889 . S
C973 C29 1.299 . S
C975 C445 1.297 . S
C984 C61 1.298 . S
C986 C452 1.298 . S
C995 C68 1.298 . S
C997 C388 1.298 . S
C1006 C93 1.296 . S
C1008 C253 1.298 . S
C1017 C4 1.292 . S
C1019 C285 1.296 . S
C1028 C36 1.292 . S
C1030 C221 1.295 . S
C1039 C349 1.292 . S
C1041 C125 1.294 . S
C1050 C157 1.292 . S
C1052 C356 1.293 . S
C1061 C189 1.293 . S
C1063 C292 1.293 . S
C1072 C516 1.295 . S
C1074 C164 1.293 . S
C1083 C100 1.298 . S
C1085 C548 1.297 . S
C1094 C132 1.292 . S
C1096 C509 1.294 . S
C1105 C260 1.299 . S
C1107 C420 1.295 . S
C1116 C196 1.298 . S
C1118 C477 1.295 . S
C1127 C413 1.296 . S
C1129 C228 1.293 . S
C1138 C541 1.292 . S
C1140 C317 1.295 . S
C1149 C573 1.292 . S
C1151 C324 1.294 . S
C1160 C381 1.298 . S
C1162 C484 1.295 . S
