# Generated by pormake.
# Topology pcl, (4)-cn, num edge types: 1
# Building blocks:
#     Node 0, Type 0, BuildingBlock: TATPOV_clean_sbu_0, # of connection points: 4
#     Node 1, Type 0, BuildingBlock: TATPOV_clean_sbu_0, # of connection points: 4
#     Node 2, Type 0, BuildingBlock: TATPOV_clean_sbu_0, # of connection points: 4
#     Node 3, Type 0, BuildingBlock: TATPOV_clean_sbu_0, # of connection points: 4
#     Node 4, Type 0, BuildingBlock: TATPOV_clean_sbu_0, # of connection points: 4
#     Node 5, Type 0, BuildingBlock: TATPOV_clean_sbu_0, # of connection points: 4
#     Node 6, Type 0, BuildingBlock: TATPOV_clean_sbu_0, # of connection points: 4
#     Node 7, Type 0, BuildingBlock: TATPOV_clean_sbu_0, # of connection points: 4
#     Node 8, Type 0, BuildingBlock: TATPOV_clean_sbu_0, # of connection points: 4
#     Node 9, Type 0, BuildingBlock: TATPOV_clean_sbu_0, # of connection points: 4
#     Node 10, Type 0, BuildingBlock: TATPOV_clean_sbu_0, # of connection points: 4
#     Node 11, Type 0, BuildingBlock: TATPOV_clean_sbu_0, # of connection points: 4
#     Node 12, Type 0, BuildingBlock: TATPOV_clean_sbu_0, # of connection points: 4
#     Node 13, Type 0, BuildingBlock: TATPOV_clean_sbu_0, # of connection points: 4
#     Node 14, Type 0, BuildingBlock: TATPOV_clean_sbu_0, # of connection points: 4
#     Node 15, Type 0, BuildingBlock: TATPOV_clean_sbu_0, # of connection points: 4
#     Edge 16, Type (0, 0), BuildingBlock: CIFDUS_clean_linker_0, # of connection points: 2
#     Edge 17, Type (0, 0), BuildingBlock: CIFDUS_clean_linker_0, # of connection points: 2
#     Edge 18, Type (0, 0), BuildingBlock: CIFDUS_clean_linker_0, # of connection points: 2
#     Edge 19, Type (0, 0), BuildingBlock: CIFDUS_clean_linker_0, # of connection points: 2
#     Edge 20, Type (0, 0), BuildingBlock: CIFDUS_clean_linker_0, # of connection points: 2
#     Edge 21, Type (0, 0), BuildingBlock: CIFDUS_clean_linker_0, # of connection points: 2
#     Edge 22, Type (0, 0), BuildingBlock: CIFDUS_clean_linker_0, # of connection points: 2
#     Edge 23, Type (0, 0), BuildingBlock: CIFDUS_clean_linker_0, # of connection points: 2
#     Edge 24, Type (0, 0), BuildingBlock: CIFDUS_clean_linker_0, # of connection points: 2
#     Edge 25, Type (0, 0), BuildingBlock: CIFDUS_clean_linker_0, # of connection points: 2
#     Edge 26, Type (0, 0), BuildingBlock: CIFDUS_clean_linker_0, # of connection points: 2
#     Edge 27, Type (0, 0), BuildingBlock: CIFDUS_clean_linker_0, # of connection points: 2
#     Edge 28, Type (0, 0), BuildingBlock: CIFDUS_clean_linker_0, # of connection points: 2
#     Edge 29, Type (0, 0), BuildingBlock: CIFDUS_clean_linker_0, # of connection points: 2
#     Edge 30, Type (0, 0), BuildingBlock: CIFDUS_clean_linker_0, # of connection points: 2
#     Edge 31, Type (0, 0), BuildingBlock: CIFDUS_clean_linker_0, # of connection points: 2
#     Edge 32, Type (0, 0), BuildingBlock: CIFDUS_clean_linker_0, # of connection points: 2
#     Edge 33, Type (0, 0), BuildingBlock: CIFDUS_clean_linker_0, # of connection points: 2
#     Edge 34, Type (0, 0), BuildingBlock: CIFDUS_clean_linker_0, # of connection points: 2
#     Edge 35, Type (0, 0), BuildingBlock: CIFDUS_clean_linker_0, # of connection points: 2
#     Edge 36, Type (0, 0), BuildingBlock: CIFDUS_clean_linker_0, # of connection points: 2
#     Edge 37, Type (0, 0), BuildingBlock: CIFDUS_clean_linker_0, # of connection points: 2
#     Edge 38, Type (0, 0), BuildingBlock: CIFDUS_clean_linker_0, # of connection points: 2
#     Edge 39, Type (0, 0), BuildingBlock: CIFDUS_clean_linker_0, # of connection points: 2
#     Edge 40, Type (0, 0), BuildingBlock: CIFDUS_clean_linker_0, # of connection points: 2
#     Edge 41, Type (0, 0), BuildingBlock: CIFDUS_clean_linker_0, # of connection points: 2
#     Edge 42, Type (0, 0), BuildingBlock: CIFDUS_clean_linker_0, # of connection points: 2
#     Edge 43, Type (0, 0), BuildingBlock: CIFDUS_clean_linker_0, # of connection points: 2
#     Edge 44, Type (0, 0), BuildingBlock: CIFDUS_clean_linker_0, # of connection points: 2
#     Edge 45, Type (0, 0), BuildingBlock: CIFDUS_clean_linker_0, # of connection points: 2
#     Edge 46, Type (0, 0), BuildingBlock: CIFDUS_clean_linker_0, # of connection points: 2
#     Edge 47, Type (0, 0), BuildingBlock: CIFDUS_clean_linker_0, # of connection points: 2
# Relax obj value: 0.053
# Max RMSD: 0.066
# Mean RMSD: 0.056
data_MOF--net-pcl--node1-TATPOV_clean_sbu_0--edge1-CIFDUS_clean_linker_0
_symmetry_space_group_name_H-M    P1
_symmetry_Int_Tables_number       1
_symmetry_cell_setting            triclinic
loop_
_symmetry_equiv_pos_as_xyz
'x, y, z'
_cell_length_a     38.166247
_cell_length_b     42.988389
_cell_length_c     39.546799
_cell_angle_alpha  89.835314
_cell_angle_beta   89.901786
_cell_angle_gamma 90.027632
loop_
_atom_site_label
_atom_site_type_symbol
_atom_site_fract_x
_atom_site_fract_y
_atom_site_fract_z
_atom_type_partial_charge
Zn0 Zn 0.16577 0.40981 0.12549 0.0
Zn1 Zn 0.17613 0.3612 0.08823 0.0
O2 O 0.18696 0.39906 0.05662 0.0
O3 O 0.17513 0.4397 0.08833 0.0
O4 O 0.19004 0.32368 0.06033 0.0
O5 O 0.20463 0.39971 0.15666 0.0
O6 O 0.20861 0.35487 0.13026 0.0
C7 C 0.18477 0.42851 0.06031 0.0
C8 C 0.10371 0.37215 0.11848 0.0
O9 O 0.12273 0.3566 0.09801 0.0
O10 O 0.11673 0.39484 0.13451 0.0
C11 C 0.19054 0.32321 0.02818 0.0
O12 O 0.17926 0.3476 0.01135 0.0
C13 C 0.21826 0.3731 0.15384 0.0
Zn14 Zn 0.85332 0.58944 0.6201 0.0
Zn15 Zn 0.84675 0.63799 0.58168 0.0
O16 O 0.83372 0.60042 0.55087 0.0
O17 O 0.84329 0.55963 0.58328 0.0
O18 O 0.83819 0.67529 0.55142 0.0
O19 O 0.81388 0.60223 0.64954 0.0
O20 O 0.81338 0.64705 0.62251 0.0
C21 C 0.83431 0.57093 0.55508 0.0
C22 C 0.9176 0.62367 0.61417 0.0
O23 O 0.89996 0.6397 0.59299 0.0
O24 O 0.90294 0.60183 0.63046 0.0
C25 C 0.80683 0.68132 0.5427 0.0
O26 O 0.78157 0.66288 0.5532 0.0
C27 C 0.80187 0.62941 0.64601 0.0
Zn28 Zn 0.15492 0.59284 0.86997 0.0
Zn29 Zn 0.16996 0.63969 0.91115 0.0
O30 O 0.18198 0.59918 0.93731 0.0
O31 O 0.16822 0.56033 0.90378 0.0
O32 O 0.18474 0.6725 0.94494 0.0
O33 O 0.19104 0.60775 0.83731 0.0
O34 O 0.20041 0.6493 0.86858 0.0
C35 C 0.17982 0.57 0.93177 0.0
C36 C 0.09482 0.63132 0.88606 0.0
O37 O 0.11644 0.64586 0.90488 0.0
O38 O 0.10528 0.60877 0.86813 0.0
C39 C 0.19743 0.69893 0.93707 0.0
O40 O 0.19998 0.70674 0.90503 0.0
C41 C 0.20656 0.63333 0.84213 0.0
Zn42 Zn 0.85888 0.41305 0.36137 0.0
Zn43 Zn 0.85715 0.36525 0.40143 0.0
O44 O 0.83914 0.40283 0.42985 0.0
O45 O 0.84348 0.44331 0.39599 0.0
O46 O 0.84979 0.32871 0.43307 0.0
O47 O 0.82342 0.39508 0.33036 0.0
O48 O 0.82909 0.35137 0.3588 0.0
C49 C 0.83594 0.43205 0.42461 0.0
C50 C 0.92711 0.38512 0.37199 0.0
O51 O 0.91061 0.36775 0.39285 0.0
O52 O 0.91055 0.40506 0.35459 0.0
C53 C 0.81836 0.32203 0.44111 0.0
O54 O 0.79286 0.33927 0.42899 0.0
C55 C 0.81639 0.36654 0.33395 0.0
Zn56 Zn 0.82019 0.59203 0.86118 0.0
Zn57 Zn 0.81585 0.64015 0.89971 0.0
O58 O 0.79207 0.65112 0.85374 0.0
O59 O 0.78598 0.60696 0.8268 0.0
O60 O 0.80081 0.67579 0.93014 0.0
O61 O 0.80545 0.56062 0.89515 0.0
O62 O 0.80083 0.60132 0.92831 0.0
C63 C 0.78067 0.63591 0.82843 0.0
C64 C 0.887 0.62496 0.87365 0.0
O65 O 0.86947 0.64189 0.89402 0.0
O66 O 0.87169 0.60381 0.85689 0.0
C67 C 0.79015 0.70173 0.91842 0.0
O68 O 0.79206 0.70694 0.88573 0.0
C69 C 0.7984 0.57197 0.92377 0.0
Zn70 Zn 0.19839 0.41967 0.36607 0.0
Zn71 Zn 0.21055 0.37599 0.40937 0.0
O72 O 0.23193 0.36099 0.36364 0.0
O73 O 0.22999 0.40232 0.33096 0.0
O74 O 0.22544 0.34049 0.44022 0.0
O75 O 0.2159 0.45347 0.39536 0.0
O76 O 0.22864 0.41709 0.43263 0.0
C77 C 0.23917 0.37444 0.33573 0.0
C78 C 0.13541 0.38786 0.3882 0.0
O79 O 0.15649 0.37405 0.40819 0.0
O80 O 0.14706 0.40755 0.36706 0.0
C81 C 0.20866 0.31492 0.43882 0.0
O82 O 0.18121 0.31293 0.41895 0.0
C83 C 0.22822 0.44579 0.42381 0.0
Zn84 Zn 0.83886 0.41352 0.11589 0.0
Zn85 Zn 0.82124 0.36521 0.08009 0.0
O86 O 0.79707 0.35776 0.12664 0.0
O87 O 0.80477 0.40264 0.15217 0.0
O88 O 0.80227 0.3294 0.05276 0.0
O89 O 0.82441 0.44414 0.08073 0.0
O90 O 0.80624 0.40381 0.05149 0.0
C91 C 0.79143 0.37575 0.15161 0.0
C92 C 0.89756 0.3733 0.0997 0.0
O93 O 0.87502 0.35887 0.08187 0.0
O94 O 0.88828 0.39644 0.11736 0.0
C95 C 0.8149 0.30211 0.0547 0.0
O96 O 0.84209 0.29702 0.07428 0.0
C97 C 0.80971 0.43322 0.05474 0.0
Zn98 Zn 0.18705 0.59455 0.62768 0.0
Zn99 Zn 0.20188 0.63761 0.58523 0.0
O100 O 0.22161 0.65275 0.63176 0.0
O101 O 0.21772 0.61105 0.66377 0.0
O102 O 0.21826 0.67239 0.55391 0.0
O103 O 0.2047 0.56007 0.59951 0.0
O104 O 0.22109 0.59619 0.56328 0.0
C105 C 0.22757 0.63884 0.6597 0.0
C106 C 0.12557 0.62681 0.60394 0.0
O107 O 0.14759 0.64005 0.58431 0.0
O108 O 0.13616 0.60728 0.6257 0.0
C109 C 0.20302 0.69866 0.55586 0.0
O110 O 0.17674 0.70187 0.57708 0.0
C111 C 0.21937 0.5675 0.57201 0.0
Zn112 Zn 0.64868 0.91095 0.11436 0.0
Zn113 Zn 0.66043 0.86433 0.07388 0.0
O114 O 0.67652 0.90443 0.04838 0.0
O115 O 0.66442 0.94362 0.08198 0.0
O116 O 0.67755 0.83027 0.04277 0.0
O117 O 0.68229 0.89513 0.14876 0.0
O118 O 0.68483 0.85199 0.11909 0.0
C119 C 0.67604 0.93365 0.05412 0.0
C120 C 0.58583 0.87603 0.09583 0.0
O121 O 0.60637 0.86087 0.07644 0.0
O122 O 0.59795 0.89712 0.11489 0.0
C123 C 0.67706 0.83323 0.01078 0.0
O124 O 0.66232 0.85798 -0.00258 0.0
C125 C 0.69281 0.86745 0.14542 0.0
Zn126 Zn 0.36083 0.09413 0.62298 0.0
Zn127 Zn 0.34608 0.13489 0.57583 0.0
O128 O 0.33329 0.09254 0.55306 0.0
O129 O 0.34783 0.05895 0.59279 0.0
O130 O 0.33325 0.16868 0.54224 0.0
O131 O 0.32487 0.11113 0.6541 0.0
O132 O 0.31389 0.1474 0.61611 0.0
C133 C 0.33602 0.06444 0.56351 0.0
C134 C 0.42129 0.12878 0.60383 0.0
O135 O 0.39991 0.14076 0.58267 0.0
O136 O 0.41048 0.10879 0.62496 0.0
C137 C 0.30113 0.17315 0.53518 0.0
O138 O 0.27757 0.15397 0.54764 0.0
C139 C 0.30813 0.135 0.64486 0.0
Zn140 Zn 0.64716 0.09719 0.86678 0.0
Zn141 Zn 0.65732 0.14499 0.90715 0.0
O142 O 0.67291 0.10576 0.93422 0.0
O143 O 0.66447 0.06605 0.90028 0.0
O144 O 0.6721 0.18015 0.93776 0.0
O145 O 0.68049 0.11415 0.83242 0.0
O146 O 0.68403 0.15671 0.86303 0.0
C147 C 0.67421 0.07655 0.92856 0.0
C148 C 0.58319 0.13104 0.88449 0.0
O149 O 0.60344 0.14762 0.90271 0.0
O150 O 0.59582 0.10928 0.86663 0.0
C151 C 0.70385 0.17951 0.94751 0.0
O152 O 0.7238 0.1562 0.93801 0.0
C153 C 0.69196 0.14145 0.83655 0.0
Zn154 Zn 0.3346 0.91482 0.35567 0.0
Zn155 Zn 0.33218 0.87109 0.39972 0.0
O156 O 0.31758 0.91198 0.42544 0.0
O157 O 0.32086 0.9486 0.38658 0.0
O158 O 0.3231 0.83623 0.43339 0.0
O159 O 0.29832 0.89665 0.32609 0.0
O160 O 0.30266 0.85531 0.35856 0.0
C161 C 0.3148 0.9406 0.41676 0.0
C162 C 0.40215 0.88584 0.36728 0.0
O163 O 0.38553 0.87045 0.38983 0.0
O164 O 0.38586 0.9051 0.34877 0.0
C165 C 0.29184 0.83306 0.44414 0.0
O166 O 0.2681 0.85337 0.43453 0.0
C167 C 0.2902 0.86878 0.33247 0.0
Zn168 Zn 0.30618 0.09071 0.85408 0.0
Zn169 Zn 0.30361 0.13645 0.89516 0.0
O170 O 0.28252 0.15155 0.84946 0.0
O171 O 0.2747 0.10931 0.81951 0.0
O172 O 0.28998 0.17243 0.92531 0.0
O173 O 0.28758 0.05839 0.8849 0.0
O174 O 0.28482 0.09711 0.92097 0.0
C175 C 0.27119 0.13835 0.82283 0.0
C176 C 0.3747 0.11859 0.87087 0.0
O177 O 0.35742 0.13565 0.8913 0.0
O178 O 0.35868 0.09908 0.85246 0.0
C179 C 0.28646 0.17115 0.95726 0.0
O180 O 0.29452 0.14533 0.9733 0.0
C181 C 0.28041 0.06832 0.91411 0.0
Zn182 Zn 0.67238 0.91845 0.36519 0.0
Zn183 Zn 0.68613 0.86841 0.40039 0.0
O184 O 0.71062 0.85999 0.35409 0.0
O185 O 0.70492 0.90533 0.32867 0.0
O186 O 0.69889 0.83054 0.42823 0.0
O187 O 0.69016 0.94721 0.40043 0.0
O188 O 0.70449 0.90542 0.42952 0.0
C189 C 0.71698 0.87797 0.32912 0.0
C190 C 0.61039 0.88295 0.38101 0.0
O191 O 0.63199 0.86632 0.39771 0.0
O192 O 0.62136 0.90602 0.364 0.0
C193 C 0.73062 0.82398 0.435 0.0
O194 O 0.75558 0.84235 0.42368 0.0
C195 C 0.70375 0.93502 0.42639 0.0
Zn196 Zn 0.31729 0.92897 0.13152 0.0
Zn197 Zn 0.30635 0.88579 0.08726 0.0
O198 O 0.27768 0.87144 0.12956 0.0
O199 O 0.28019 0.91272 0.16215 0.0
O200 O 0.29271 0.85444 0.05133 0.0
O201 O 0.30576 0.96426 0.10119 0.0
O202 O 0.29235 0.92796 0.06436 0.0
C203 C 0.26841 0.88582 0.15624 0.0
C204 C 0.37968 0.89341 0.11584 0.0
O205 O 0.36004 0.88054 0.09384 0.0
O206 O 0.36706 0.91372 0.13556 0.0
C207 C 0.28253 0.82698 0.05841 0.0
O208 O 0.28244 0.81775 0.0901 0.0
C209 C 0.29417 0.9567 0.07247 0.0
Zn210 Zn 0.69449 0.08712 0.62363 0.0
Zn211 Zn 0.70044 0.13637 0.58797 0.0
O212 O 0.72628 0.1458 0.63346 0.0
O213 O 0.73037 0.09967 0.65709 0.0
O214 O 0.71132 0.17431 0.5594 0.0
O215 O 0.70774 0.05744 0.58778 0.0
O216 O 0.71623 0.09942 0.55698 0.0
C217 C 0.73756 0.12834 0.65722 0.0
C218 C 0.62883 0.12028 0.61487 0.0
O219 O 0.6468 0.13726 0.59483 0.0
O220 O 0.64354 0.09841 0.63106 0.0
C221 C 0.74298 0.18132 0.55268 0.0
O222 O 0.76817 0.16358 0.56457 0.0
C223 C 0.71691 0.06981 0.56016 0.0
H224 H 0.05791 0.34697 0.07245 0.0
H225 H 0.06409 0.38454 0.1734 0.0
H226 H 1.00054 0.38523 0.17745 0.0
H227 H 0.94362 0.38145 0.15023 0.0
H228 H 0.93534 0.34466 0.04931 0.0
H229 H 0.99911 0.33705 0.0474 0.0
C230 C 0.04527 0.35458 0.09557 0.0
C231 C 0.06572 0.36607 0.12242 0.0
C232 C 0.00835 0.35551 0.09756 0.0
C233 C 0.04898 0.37596 0.15221 0.0
C234 C 0.0126 0.37644 0.15456 0.0
C235 C 0.95571 0.37145 0.12791 0.0
C236 C 0.93495 0.36414 0.09974 0.0
C237 C 0.9921 0.36736 0.127 0.0
C238 C 0.95085 0.35062 0.07127 0.0
C239 C 0.98731 0.3464 0.07014 0.0
H240 H 0.96538 0.64856 0.56958 0.0
H241 H 0.95541 0.60918 0.66971 0.0
H242 H 0.01875 0.60892 0.67598 0.0
H243 H 0.07674 0.61512 0.65158 0.0
H244 H 0.08886 0.65346 0.55135 0.0
H245 H 0.02504 0.65912 0.54666 0.0
C246 C 0.97714 0.64049 0.59296 0.0
C247 C 0.95567 0.62862 0.61901 0.0
C248 C 0.01395 0.63984 0.59624 0.0
C249 C 0.97129 0.61811 0.64912 0.0
C250 C 0.00755 0.6179 0.65275 0.0
C251 C 0.06553 0.62487 0.6287 0.0
C252 C 0.0875 0.63338 0.60165 0.0
C253 C 0.02909 0.62786 0.62617 0.0
C254 C 0.0725 0.64654 0.57248 0.0
C255 C 0.03601 0.64971 0.56977 0.0
H256 H 0.93397 0.65468 0.91545 0.0
H257 H 0.92642 0.60372 0.82173 0.0
H258 H 0.98971 0.60413 0.81596 0.0
H259 H 0.04717 0.61464 0.83934 0.0
H260 H 0.05707 0.66429 0.93344 0.0
H261 H 0.99308 0.6692 0.9369 0.0
C262 C 0.94622 0.64405 0.8936 0.0
C263 C 0.92538 0.62881 0.86933 0.0
C264 C 0.98308 0.64399 0.89051 0.0
C265 C 0.94171 0.6152 0.84109 0.0
C266 C 0.97799 0.61545 0.83767 0.0
C267 C 0.03544 0.62682 0.86053 0.0
C268 C 0.05686 0.63874 0.88629 0.0
C269 C 0.99891 0.62907 0.86257 0.0
C270 C 0.04118 0.65485 0.91326 0.0
C271 C 0.00457 0.65748 0.91534 0.0
H272 H 0.08721 0.40484 0.34181 0.0
H273 H 0.09776 0.35626 0.43685 0.0
H274 H 0.03408 0.34888 0.43931 0.0
H275 H 0.9749 0.35924 0.41573 0.0
H276 H 0.96633 0.40841 0.32068 0.0
H277 H 0.02971 0.41224 0.31693 0.0
C278 C 0.07571 0.39256 0.36311 0.0
C279 C 0.09722 0.38147 0.3893 0.0
C280 C 0.03931 0.38848 0.36435 0.0
C281 C 0.08179 0.36519 0.41641 0.0
C282 C 0.04537 0.36099 0.41783 0.0
C283 C 0.98697 0.3704 0.39402 0.0
C284 C 0.96578 0.38375 0.36869 0.0
C285 C 0.02377 0.37292 0.39213 0.0
C286 C 0.98188 0.3982 0.34074 0.0
C287 C 0.01819 0.40045 0.33853 0.0
H288 H 0.42296 0.8662 0.06849 0.0
H289 H 0.42166 0.9042 0.16951 0.0
H290 H 0.48485 0.89912 0.17309 0.0
H291 H 0.54081 0.88886 0.1462 0.0
H292 H 0.54464 0.8517 0.04514 0.0
H293 H 0.4803 0.85098 0.04311 0.0
C294 C 0.43652 0.87291 0.09141 0.0
C295 C 0.41754 0.88602 0.11848 0.0
C296 C 0.47336 0.87028 0.09326 0.0
C297 C 0.43554 0.89451 0.14806 0.0
C298 C 0.47176 0.89159 0.15021 0.0
C299 C 0.52763 0.8803 0.12378 0.0
C300 C 0.54744 0.87076 0.09571 0.0
C301 C 0.49097 0.88033 0.1227 0.0
C302 C 0.52995 0.85923 0.0671 0.0
C303 C 0.49317 0.859 0.06588 0.0
H304 H 0.5822 0.14836 0.57155 0.0
H305 H 0.5898 0.1028 0.66874 0.0
H306 H 0.52653 0.10476 0.6752 0.0
H307 H 0.46909 0.11483 0.65158 0.0
H308 H 0.45917 0.15819 0.55356 0.0
H309 H 0.52319 0.16221 0.54937 0.0
C310 C 0.56995 0.13928 0.59429 0.0
C311 C 0.5907 0.12511 0.61944 0.0
C312 C 0.53315 0.13994 0.59765 0.0
C313 C 0.57447 0.11342 0.64877 0.0
C314 C 0.53824 0.11457 0.65256 0.0
C315 C 0.48079 0.12544 0.62935 0.0
C316 C 0.45934 0.13583 0.60275 0.0
C317 C 0.51733 0.12703 0.62684 0.0
C318 C 0.47506 0.14993 0.5744 0.0
C319 C 0.51168 0.15206 0.57192 0.0
H320 H 0.53613 0.10521 0.84217 0.0
H321 H 0.54337 0.16684 0.92778 0.0
H322 H 0.47921 0.1697 0.93061 0.0
H323 H 0.4208 0.15204 0.9103 0.0
H324 H 0.41603 0.0897 0.82485 0.0
H325 H 0.47936 0.08984 0.82064 0.0
C326 C 0.52382 0.11944 0.86144 0.0
C327 C 0.54462 0.13558 0.88488 0.0
C328 C 0.4872 0.1207 0.8631 0.0
C329 C 0.52803 0.15414 0.90939 0.0
C330 C 0.49132 0.15567 0.91111 0.0
C331 C 0.43365 0.13865 0.89067 0.0
C332 C 0.41346 0.12067 0.86815 0.0
C333 C 0.47057 0.13864 0.88836 0.0
C334 C 0.43066 0.10355 0.84279 0.0
C335 C 0.46702 0.10361 0.84025 0.0
H336 H 0.44966 0.85696 0.40928 0.0
H337 H 0.44154 0.90899 0.31595 0.0
H338 H 0.50488 0.91088 0.31128 0.0
H339 H 0.56247 0.90149 0.33526 0.0
H340 H 0.57273 0.84953 0.42813 0.0
H341 H 0.50883 0.84363 0.43119 0.0
C342 C 0.46179 0.86834 0.38773 0.0
C343 C 0.4407 0.88315 0.36326 0.0
C344 C 0.49865 0.86959 0.38518 0.0
C345 C 0.45694 0.89771 0.33543 0.0
C346 C 0.49327 0.89884 0.33266 0.0
C347 C 0.55081 0.88871 0.35614 0.0
C348 C 0.57229 0.87633 0.38165 0.0
C349 C 0.51433 0.8855 0.35772 0.0
C350 C 0.55676 0.85937 0.40819 0.0
C351 C 0.52022 0.8561 0.41 0.0
H352 H 0.21052 0.32448 0.19675 0.0
H353 H 0.27808 0.40156 0.1721 0.0
H354 H 0.30084 0.40202 0.22964 0.0
H355 H 0.28637 0.39201 0.2889 0.0
H356 H 0.21482 0.31827 0.31488 0.0
H357 H 0.20959 0.3041 0.2553 0.0
C358 C 0.23165 0.34013 0.20362 0.0
C359 C 0.24239 0.36323 0.18065 0.0
C360 C 0.24316 0.34134 0.23737 0.0
C361 C 0.26945 0.38369 0.18963 0.0
C362 C 0.28214 0.38419 0.22263 0.0
C363 C 0.27115 0.37179 0.28157 0.0
C364 C 0.25035 0.35668 0.30585 0.0
C365 C 0.26701 0.36486 0.24721 0.0
C366 C 0.23092 0.33034 0.29646 0.0
C367 C 0.22749 0.32257 0.26228 0.0
H368 H 0.80993 0.67975 0.6862 0.0
H369 H 0.74165 0.60228 0.66588 0.0
H370 H 0.71912 0.60408 0.72353 0.0
H371 H 0.73381 0.61626 0.78218 0.0
H372 H 0.80566 0.69084 0.80384 0.0
H373 H 0.81097 0.70246 0.74358 0.0
C374 C 0.78871 0.6645 0.69397 0.0
C375 C 0.77778 0.64059 0.67229 0.0
C376 C 0.77727 0.66463 0.72782 0.0
C377 C 0.75051 0.62072 0.68244 0.0
C378 C 0.73794 0.62151 0.71552 0.0
C379 C 0.74924 0.63603 0.77373 0.0
C380 C 0.77014 0.65202 0.7971 0.0
C381 C 0.75332 0.64163 0.73901 0.0
C382 C 0.78961 0.67794 0.78618 0.0
C383 C 0.79305 0.68431 0.75162 0.0
H384 H 0.19702 0.68281 0.80082 0.0
H385 H 0.26663 0.60646 0.82208 0.0
H386 H 0.28936 0.60851 0.76445 0.0
H387 H 0.27508 0.62065 0.70566 0.0
H388 H 0.20159 0.69362 0.68291 0.0
H389 H 0.19556 0.70525 0.74313 0.0
C390 C 0.21853 0.66788 0.79321 0.0
C391 C 0.23007 0.64437 0.81528 0.0
C392 C 0.23012 0.66816 0.75941 0.0
C393 C 0.25752 0.62473 0.80531 0.0
C394 C 0.2702 0.62567 0.77225 0.0
C395 C 0.25927 0.64021 0.71389 0.0
C396 C 0.23827 0.65584 0.69023 0.0
C397 C 0.25467 0.64561 0.74854 0.0
C398 C 0.21795 0.68124 0.70081 0.0
C399 C 0.21404 0.68751 0.73534 0.0
H400 H 0.80921 0.32511 0.18822 0.0
H401 H 0.73864 0.40322 0.18574 0.0
H402 H 0.73132 0.4003 0.24693 0.0
H403 H 0.75991 0.38673 0.30017 0.0
H404 H 0.83558 0.31256 0.30316 0.0
H405 H 0.82542 0.30188 0.24323 0.0
C406 C 0.79078 0.3403 0.20099 0.0
C407 C 0.77478 0.36459 0.18286 0.0
C408 C 0.78848 0.33966 0.23649 0.0
C409 C 0.75125 0.38445 0.19944 0.0
C410 C 0.74742 0.38301 0.23446 0.0
C411 C 0.77283 0.36724 0.28799 0.0
C412 C 0.79895 0.3509 0.30554 0.0
C413 C 0.76813 0.3624 0.25329 0.0
C414 C 0.81544 0.32552 0.28996 0.0
C415 C 0.81 0.31974 0.25554 0.0
H416 H 0.69851 0.82743 0.29266 0.0
H417 H 0.76982 0.90508 0.29465 0.0
H418 H 0.77661 0.90251 0.23342 0.0
H419 H 0.74788 0.88903 0.18019 0.0
H420 H 0.67292 0.81428 0.17746 0.0
H421 H 0.68232 0.80416 0.23773 0.0
C422 C 0.71699 0.84258 0.27977 0.0
C423 C 0.73331 0.86668 0.2978 0.0
C424 C 0.71922 0.84201 0.24426 0.0
C425 C 0.75694 0.88647 0.28105 0.0
C426 C 0.76045 0.88524 0.246 0.0
C427 C 0.73498 0.86955 0.19253 0.0
C428 C 0.70943 0.85272 0.17488 0.0
C429 C 0.73958 0.86476 0.2273 0.0
C430 C 0.69276 0.82748 0.19074 0.0
C431 C 0.6978 0.82201 0.22531 0.0
H432 H 0.22599 0.12357 0.77296 0.0
H433 H 0.30094 0.19303 0.80315 0.0
H434 H 0.31244 0.20588 0.74406 0.0
H435 H 0.31569 0.18409 0.68641 0.0
H436 H 0.24422 0.11146 0.65751 0.0
H437 H 0.21602 0.11363 0.71285 0.0
C438 C 0.24345 0.14264 0.76653 0.0
C439 C 0.26352 0.15655 0.79209 0.0
C440 C 0.25115 0.14877 0.7325 0.0
C441 C 0.28554 0.18166 0.7838 0.0
C442 C 0.29255 0.18868 0.74991 0.0
C443 C 0.29261 0.17015 0.6917 0.0
C444 C 0.28208 0.14747 0.66838 0.0
C445 C 0.27775 0.17047 0.72424 0.0
C446 C 0.25254 0.1291 0.6753 0.0
C447 C 0.23675 0.13007 0.70709 0.0
H448 H 0.7513 0.12081 0.80804 0.0
H449 H 0.6735 0.19294 0.80096 0.0
H450 H 0.6899 0.20267 0.74198 0.0
H451 H 0.71379 0.17942 0.68984 0.0
H452 H 0.78857 0.10466 0.69721 0.0
H453 H 0.78755 0.1082 0.7587 0.0
C454 C 0.73923 0.13967 0.79396 0.0
C455 C 0.71105 0.15588 0.80831 0.0
C456 C 0.74809 0.14436 0.75991 0.0
C457 C 0.69535 0.18026 0.7902 0.0
C458 C 0.70447 0.18554 0.75637 0.0
C459 C 0.73132 0.16516 0.70489 0.0
C460 C 0.7506 0.14131 0.68924 0.0
C461 C 0.72905 0.16618 0.74038 0.0
C462 C 0.77322 0.12293 0.70888 0.0
C463 C 0.77224 0.12464 0.74407 0.0
H464 H 0.28724 0.83271 0.18763 0.0
H465 H 0.21014 0.90576 0.18837 0.0
H466 H 0.20068 0.89811 0.24878 0.0
H467 H 0.23021 0.88452 0.30162 0.0
H468 H 0.31229 0.81597 0.30161 0.0
H469 H 0.3034 0.80697 0.24124 0.0
C470 C 0.26687 0.84554 0.20073 0.0
C471 C 0.24985 0.87013 0.18401 0.0
C472 C 0.26339 0.8424 0.23599 0.0
C473 C 0.22365 0.88686 0.201 0.0
C474 C 0.21864 0.88278 0.23566 0.0
C475 C 0.24464 0.86631 0.2887 0.0
C476 C 0.27237 0.85148 0.30551 0.0
C477 C 0.24069 0.86268 0.25371 0.0
C478 C 0.2909 0.82777 0.28898 0.0
C479 C 0.28621 0.82304 0.25427 0.0
H480 H 0.25713 0.22334 0.93041 0.0
H481 H 0.27958 0.17836 0.02568 0.0
H482 H 0.25125 0.22099 0.05595 0.0
H483 H 0.21992 0.27097 0.05538 0.0
H484 H 0.19704 0.3155 0.95992 0.0
H485 H 0.22547 0.27295 0.92981 0.0
C486 C 0.25603 0.22289 0.95782 0.0
C487 C 0.27063 0.19768 0.97571 0.0
C488 C 0.23938 0.24731 0.97506 0.0
C489 C 0.26865 0.19745 0.01122 0.0
C490 C 0.25237 0.22181 0.02857 0.0
C491 C 0.22099 0.27134 0.02798 0.0
C492 C 0.20629 0.29648 0.01 0.0
C493 C 0.23754 0.24681 0.01075 0.0
C494 C 0.20804 0.2965 0.97447 0.0
C495 C 0.2244 0.27219 0.95719 0.0
H496 H 0.74257 0.70126 0.52253 0.0
H497 H 0.85259 0.72379 0.51563 0.0
H498 H 0.83875 0.76975 0.48167 0.0
H499 H 0.79536 0.80375 0.45422 0.0
H500 H 0.68536 0.78109 0.46157 0.0
H501 H 0.69934 0.73502 0.49507 0.0
C502 C 0.76359 0.71616 0.51358 0.0
C503 C 0.79859 0.70901 0.52167 0.0
C504 C 0.75545 0.74259 0.49416 0.0
C505 C 0.82541 0.72868 0.50983 0.0
C506 C 0.81752 0.755 0.4904 0.0
C507 C 0.77441 0.78875 0.46312 0.0
C508 C 0.73933 0.79596 0.45534 0.0
C509 C 0.78262 0.76222 0.48246 0.0
C510 C 0.71258 0.77619 0.46714 0.0
C511 C 0.72055 0.74979 0.48632 0.0
H512 H 0.2515 0.77044 0.06622 0.0
H513 H 0.28264 0.83709 0.99003 0.0
H514 H 0.25863 0.80366 0.94592 0.0
H515 H 0.22863 0.75556 0.92895 0.0
H516 H 0.19714 0.68923 0.0054 0.0
H517 H 0.22128 0.72261 0.04935 0.0
C518 C 0.2532 0.77765 0.03997 0.0
C519 C 0.26897 0.80624 0.03151 0.0
C520 C 0.23909 0.75843 0.01473 0.0
C521 C 0.2707 0.81521 -0.00268 0.0
C522 C 0.25692 0.79612 0.97205 0.0
C523 C 0.22693 0.74841 0.95522 0.0
C524 C 0.21103 0.71988 0.96377 0.0
C525 C 0.24097 0.76771 0.98046 0.0
C526 C 0.20916 0.71105 -0.002 0.0
C527 C 0.22304 0.73011 0.02321 0.0
H528 H 0.80761 0.20235 0.53402 0.0
H529 H 0.69731 0.22261 0.52398 0.0
H530 H 0.71102 0.26793 0.48906 0.0
H531 H 0.75411 0.30157 0.461 0.0
H532 H 0.86444 0.28142 0.47072 0.0
H533 H 0.85085 0.23634 0.50619 0.0
C534 C 0.78653 0.21667 0.52424 0.0
C535 C 0.75145 0.20898 0.53165 0.0
C536 C 0.79459 0.24274 0.5041 0.0
C537 C 0.72453 0.22789 0.51871 0.0
C538 C 0.73234 0.25385 0.49871 0.0
C539 C 0.77525 0.28739 0.47089 0.0
C540 C 0.81027 0.29493 0.46313 0.0
C541 C 0.76725 0.26146 0.4912 0.0
C542 C 0.83726 0.2762 0.47623 0.0
C543 C 0.8295 0.25038 0.49653 0.0
H544 H 0.71473 0.78235 0.03047 0.0
H545 H 0.6818 0.83348 0.94191 0.0
H546 H 0.71496 0.79813 0.9059 0.0
H547 H 0.75333 0.75289 0.89938 0.0
H548 H 0.78582 0.7011 0.98758 0.0
H549 H 0.75308 0.73675 0.02387 0.0
C550 C 0.71464 0.78569 0.00328 0.0
C551 C 0.69569 0.81057 0.98898 0.0
C552 C 0.73393 0.76532 0.98264 0.0
C553 C 0.69603 0.81454 0.95367 0.0
C554 C 0.7151 0.79438 0.93302 0.0
C555 C 0.7535 0.74947 0.92656 0.0
C556 C 0.77216 0.72439 0.94071 0.0
C557 C 0.73426 0.76979 0.94723 0.0
C558 C 0.77177 0.72023 0.97599 0.0
C559 C 0.75296 0.74056 -0.00323 0.0
H560 H 0.23594 0.18643 0.51173 0.0
H561 H 0.34108 0.2232 0.516 0.0
H562 H 0.32158 0.27087 0.48793 0.0
H563 H 0.27436 0.30245 0.46252 0.0
H564 H 0.16991 0.26442 0.45658 0.0
H565 H 0.18938 0.21716 0.48522 0.0
C566 C 0.25467 0.2048 0.50643 0.0
C567 C 0.28992 0.20119 0.51605 0.0
C568 C 0.24332 0.23211 0.4902 0.0
C569 C 0.31381 0.22525 0.5088 0.0
C570 C 0.30264 0.25262 0.49288 0.0
C571 C 0.25585 0.2839 0.46775 0.0
C572 C 0.22067 0.28706 0.45764 0.0
C573 C 0.2674 0.2564 0.48364 0.0
C574 C 0.19711 0.26261 0.46412 0.0
C575 C 0.20823 0.23553 0.48046 0.0
H576 H 0.7509 0.30127 0.02432 0.0
H577 H 0.8422 0.24454 0.04294 0.0
H578 H 0.8156 0.20161 0.01191 0.0
H579 H 0.76686 0.18034 0.97905 0.0
H580 H 0.67472 0.23626 0.96157 0.0
H581 H 0.70115 0.27929 -0.00718 0.0
C582 C 0.76503 0.27954 0.0215 0.0
C583 C 0.79861 0.2762 0.03576 0.0
C584 C 0.74939 0.25478 0.00395 0.0
C585 C 0.81636 0.24776 0.03221 0.0
C586 C 0.80117 0.22319 0.01446 0.0
C587 C 0.75248 0.20191 0.9821 0.0
C588 C 0.71891 0.20511 0.96785 0.0
C589 C 0.76775 0.22646 0.00019 0.0
C590 C 0.70058 0.23315 0.97231 0.0
C591 C 0.71573 0.2578 0.99009 0.0
H592 H 0.26611 0.70694 0.52396 0.0
H593 H 0.16648 0.7514 0.54213 0.0
H594 H 0.18536 0.79677 0.5098 0.0
H595 H 0.22982 0.82398 0.47634 0.0
H596 H 0.33038 0.78094 0.4592 0.0
H597 H 0.31162 0.73512 0.49135 0.0
C598 C 0.2485 0.72651 0.52067 0.0
C599 C 0.21484 0.72565 0.53533 0.0
C600 C 0.25976 0.75291 0.50242 0.0
C601 C 0.19252 0.75139 0.53118 0.0
C602 C 0.20329 0.7774 0.51268 0.0
C603 C 0.24774 0.80463 0.47966 0.0
C604 C 0.28145 0.80593 0.46525 0.0
C605 C 0.23683 0.77845 0.49825 0.0
C606 C 0.30432 0.78065 0.47006 0.0
C607 C 0.29354 0.75436 0.48835 0.0
H608 H 0.18402 0.50704 0.92607 0.0
H609 H 0.19444 0.5818 -0.00187 0.0
H610 H 0.20063 0.54402 0.04389 0.0
H611 H 0.1971 0.49029 0.06398 0.0
H612 H 0.18573 0.41529 -0.00749 0.0
H613 H 0.18644 0.45277 0.94577 0.0
C614 C 0.188 0.51511 0.95173 0.0
C615 C 0.18823 0.54725 0.95871 0.0
C616 C 0.19123 0.49326 0.97798 0.0
C617 C 0.19392 0.55725 0.99204 0.0
C618 C 0.19737 0.53565 0.01826 0.0
C619 C 0.19514 0.48206 0.03815 0.0
C620 C 0.19083 0.4501 0.03172 0.0
C621 C 0.19513 0.50368 0.01159 0.0
C622 C 0.18895 0.43977 -0.00188 0.0
C623 C 0.18916 0.46121 0.97143 0.0
H624 H 0.82545 0.50852 0.55899 0.0
H625 H 0.82666 0.58488 0.48779 0.0
H626 H 0.82279 0.54807 0.44089 0.0
H627 H 0.8258 0.49442 0.42037 0.0
H628 H 0.827 0.41815 0.49173 0.0
H629 H 0.82266 0.45495 0.53851 0.0
C630 C 0.82453 0.51721 0.53323 0.0
C631 C 0.82693 0.54941 0.52686 0.0
C632 C 0.82289 0.49596 0.5065 0.0
C633 C 0.8251 0.56023 0.49337 0.0
C634 C 0.823 0.53919 0.46657 0.0
C635 C 0.82466 0.48574 0.44612 0.0
C636 C 0.82727 0.45355 0.45255 0.0
C637 C 0.82292 0.50701 0.47286 0.0
C638 C 0.82528 0.44277 0.48606 0.0
C639 C 0.82296 0.46381 0.51282 0.0
H640 H 0.80185 0.49575 0.05914 0.0
H641 H 0.79367 0.41934 0.989 0.0
H642 H 0.78483 0.45607 0.94246 0.0
H643 H 0.78653 0.5097 0.92109 0.0
H644 H 0.79613 0.58604 0.99122 0.0
H645 H 0.7967 0.54939 0.03852 0.0
C646 C 0.79775 0.48707 0.03372 0.0
C647 C 0.79903 0.45485 0.02745 0.0
C648 C 0.79308 0.50829 0.00711 0.0
C649 C 0.79303 0.444 -0.00551 0.0
C650 C 0.78811 0.46501 0.96785 0.0
C651 C 0.78822 0.51841 0.94675 0.0
C652 C 0.79186 0.55058 0.95254 0.0
C653 C 0.78916 0.49719 0.97376 0.0
C654 C 0.7935 0.56143 0.98598 0.0
C655 C 0.79403 0.54046 0.01305 0.0
H656 H 0.23597 0.44234 0.49243 0.0
H657 H 0.24146 0.50642 0.40839 0.0
H658 H 0.24402 0.55023 0.44716 0.0
H659 H 0.23571 0.57081 0.50463 0.0
H660 H 0.22897 0.50664 0.58853 0.0
H661 H 0.23638 0.46285 0.55037 0.0
C662 C 0.23861 0.46582 0.48263 0.0
C663 C 0.23788 0.47102 0.44756 0.0
C664 C 0.23935 0.49114 0.50511 0.0
C665 C 0.24142 0.50168 0.43531 0.0
C666 C 0.2428 0.52687 0.45747 0.0
C667 C 0.23666 0.54731 0.51463 0.0
C668 C 0.23109 0.5421 0.54931 0.0
C669 C 0.24036 0.52197 0.49241 0.0
C670 C 0.23258 0.5114 0.56184 0.0
C671 C 0.23679 0.48623 0.54002 0.0
H672 H 0.68677 0.01466 0.92244 0.0
H673 H 0.68204 0.08852 -0.00392 0.0
H674 H 0.68674 0.05041 0.04179 0.0
H675 H 0.68449 0.99606 0.06064 0.0
H676 H 0.68769 0.92217 0.98697 0.0
H677 H 0.6918 0.96049 0.94142 0.0
C678 C 0.68725 0.02251 0.94847 0.0
C679 C 0.68341 0.05437 0.95584 0.0
C680 C 0.68942 1.00047 0.9746 0.0
C681 C 0.68469 0.06414 0.98968 0.0
C682 C 0.68722 0.04235 0.01585 0.0
C683 C 0.6866 0.98827 0.03466 0.0
C684 C 0.68515 0.95627 0.0272 0.0
C685 C 0.68839 0.01042 0.00859 0.0
C686 C 0.68849 0.94662 -0.00657 0.0
C687 C 0.69067 0.96854 0.96734 0.0
H688 H 0.32284 0.93748 0.48521 0.0
H689 H 0.29381 1.00001 0.40444 0.0
H690 H 0.29519 0.04389 0.44325 0.0
H691 H 0.31111 0.06546 0.49865 0.0
H692 H 0.34114 1.00282 0.5791 0.0
H693 H 0.33275 0.95843 0.54208 0.0
C694 C 0.31604 0.96058 0.47629 0.0
C695 C 0.30865 0.96544 0.44193 0.0
C696 C 0.31761 0.98596 0.49861 0.0
C697 C 0.29998 0.99561 0.43076 0.0
C698 C 0.30088 0.02082 0.4529 0.0
C699 C 0.31546 0.04209 0.50817 0.0
C700 C 0.32726 0.03768 0.54147 0.0
C701 C 0.31079 0.01644 0.48664 0.0
C702 C 0.33242 0.00711 0.55346 0.0
C703 C 0.32761 0.98156 0.53231 0.0
H704 H 0.27223 0.95032 0.00714 0.0
H705 H 0.29566 0.01933 0.08297 0.0
H706 H 0.28829 0.06066 0.04145 0.0
H707 H 0.28234 0.07687 0.98227 0.0
H708 H 0.26045 0.00791 0.90605 0.0
H709 H 0.25934 0.96723 0.94909 0.0
C710 C 0.27527 0.9744 0.01469 0.0
C711 C 0.28509 0.98157 0.04799 0.0
C712 C 0.27136 0.99821 0.99055 0.0
C713 C 0.28855 0.013 0.05739 0.0
C714 C 0.28433 0.03676 0.03365 0.0
C715 C 0.27651 0.05307 0.97517 0.0
C716 C 0.272 0.04543 0.94095 0.0
C717 C 0.27675 0.02959 -5e-05 0.0
C718 C 0.26443 0.01442 0.93221 0.0
C719 C 0.26393 0.99106 0.95679 0.0
H720 H 0.72854 0.00761 0.56148 0.0
H721 H 0.72101 0.08584 0.49314 0.0
H722 H 0.7208 0.05037 0.44492 0.0
H723 H 0.71451 0.99732 0.42311 0.0
H724 H 0.71979 0.91913 0.49169 0.0
H725 H 0.72953 0.95456 0.539 0.0
C726 C 0.72739 0.01699 0.53601 0.0
C727 C 0.72414 0.04933 0.53094 0.0
C728 C 0.72651 0.99648 0.50854 0.0
C729 C 0.72331 0.06107 0.49778 0.0
C730 C 0.72296 0.04078 0.47021 0.0
C731 C 0.71824 0.98795 0.44834 0.0
C732 C 0.71575 0.95563 0.45397 0.0
C733 C 0.72322 0.00845 0.47543 0.0
C734 C 0.7213 0.94388 0.4867 0.0
C735 C 0.72673 0.96415 0.51377 0.0
loop_
_geom_bond_atom_site_label_1
_geom_bond_atom_site_label_2
_geom_bond_distance
_geom_bond_site_symmetry_2
_ccdc_geom_bond_type
Zn0 O3 2.031 . S
Zn0 O5 2.049 . S
Zn0 O10 2.067 . S
Zn1 O2 1.962 . S
Zn1 O4 1.986 . S
Zn1 O6 1.996 . S
Zn1 O9 1.943 . S
O2 Zn1 1.962 . S
O2 C7 1.254 . S
O3 Zn0 2.031 . S
O3 C7 1.269 . S
O4 Zn1 1.986 . S
O4 C11 1.262 . S
O5 Zn0 2.049 . S
O5 C13 1.260 . S
O6 Zn1 1.996 . S
O6 C13 1.257 . S
C7 O2 1.254 . S
C7 O3 1.269 . S
C8 O9 1.249 . S
C8 O10 1.270 . S
O9 Zn1 1.943 . S
O9 C8 1.249 . S
O10 Zn0 2.067 . S
O10 C8 1.270 . S
C11 O4 1.262 . S
C11 O12 1.232 . S
O12 C11 1.232 . S
C13 O5 1.260 . S
C13 O6 1.257 . S
Zn14 O17 2.031 . S
Zn14 O19 2.049 . S
Zn14 O24 2.067 . S
Zn15 O16 1.962 . S
Zn15 O18 1.986 . S
Zn15 O20 1.996 . S
Zn15 O23 1.943 . S
O16 Zn15 1.962 . S
O16 C21 1.254 . S
O17 Zn14 2.031 . S
O17 C21 1.269 . S
O18 Zn15 1.986 . S
O18 C25 1.262 . S
O19 Zn14 2.049 . S
O19 C27 1.260 . S
O20 Zn15 1.996 . S
O20 C27 1.257 . S
C21 O16 1.254 . S
C21 O17 1.269 . S
C22 O23 1.249 . S
C22 O24 1.270 . S
O23 Zn15 1.943 . S
O23 C22 1.249 . S
O24 Zn14 2.067 . S
O24 C22 1.270 . S
C25 O18 1.262 . S
C25 O26 1.232 . S
O26 C25 1.232 . S
C27 O19 1.260 . S
C27 O20 1.257 . S
Zn28 O31 2.031 . S
Zn28 O33 2.049 . S
Zn28 O38 2.067 . S
Zn29 O30 1.962 . S
Zn29 O32 1.986 . S
Zn29 O34 1.996 . S
Zn29 O37 1.943 . S
O30 Zn29 1.962 . S
O30 C35 1.254 . S
O31 Zn28 2.031 . S
O31 C35 1.269 . S
O32 Zn29 1.986 . S
O32 C39 1.262 . S
O33 Zn28 2.049 . S
O33 C41 1.260 . S
O34 Zn29 1.996 . S
O34 C41 1.257 . S
C35 O30 1.254 . S
C35 O31 1.269 . S
C36 O37 1.249 . S
C36 O38 1.270 . S
O37 Zn29 1.943 . S
O37 C36 1.249 . S
O38 Zn28 2.067 . S
O38 C36 1.270 . S
C39 O32 1.262 . S
C39 O40 1.232 . S
O40 C39 1.232 . S
C41 O33 1.260 . S
C41 O34 1.257 . S
Zn42 O45 2.031 . S
Zn42 O47 2.049 . S
Zn42 O52 2.067 . S
Zn43 O44 1.962 . S
Zn43 O46 1.986 . S
Zn43 O48 1.996 . S
Zn43 O51 1.943 . S
O44 Zn43 1.962 . S
O44 C49 1.254 . S
O45 Zn42 2.031 . S
O45 C49 1.269 . S
O46 Zn43 1.986 . S
O46 C53 1.262 . S
O47 Zn42 2.049 . S
O47 C55 1.260 . S
O48 Zn43 1.996 . S
O48 C55 1.257 . S
C49 O44 1.254 . S
C49 O45 1.269 . S
C50 O51 1.249 . S
C50 O52 1.270 . S
O51 Zn43 1.943 . S
O51 C50 1.249 . S
O52 Zn42 2.067 . S
O52 C50 1.270 . S
C53 O46 1.262 . S
C53 O54 1.232 . S
O54 C53 1.232 . S
C55 O47 1.260 . S
C55 O48 1.257 . S
Zn56 O59 2.031 . S
Zn56 O61 2.049 . S
Zn56 O66 2.067 . S
Zn57 O58 1.962 . S
Zn57 O60 1.986 . S
Zn57 O62 1.996 . S
Zn57 O65 1.943 . S
O58 Zn57 1.962 . S
O58 C63 1.254 . S
O59 Zn56 2.031 . S
O59 C63 1.269 . S
O60 Zn57 1.986 . S
O60 C67 1.262 . S
O61 Zn56 2.049 . S
O61 C69 1.260 . S
O62 Zn57 1.996 . S
O62 C69 1.257 . S
C63 O58 1.254 . S
C63 O59 1.269 . S
C64 O65 1.249 . S
C64 O66 1.270 . S
O65 Zn57 1.943 . S
O65 C64 1.249 . S
O66 Zn56 2.067 . S
O66 C64 1.270 . S
C67 O60 1.262 . S
C67 O68 1.232 . S
O68 C67 1.232 . S
C69 O61 1.260 . S
C69 O62 1.257 . S
Zn70 O73 2.031 . S
Zn70 O75 2.049 . S
Zn70 O80 2.067 . S
Zn71 O72 1.962 . S
Zn71 O74 1.986 . S
Zn71 O76 1.996 . S
Zn71 O79 1.943 . S
O72 Zn71 1.962 . S
O72 C77 1.254 . S
O73 Zn70 2.031 . S
O73 C77 1.269 . S
O74 Zn71 1.986 . S
O74 C81 1.262 . S
O75 Zn70 2.049 . S
O75 C83 1.260 . S
O76 Zn71 1.996 . S
O76 C83 1.257 . S
C77 O72 1.254 . S
C77 O73 1.269 . S
C78 O79 1.249 . S
C78 O80 1.270 . S
O79 Zn71 1.943 . S
O79 C78 1.249 . S
O80 Zn70 2.067 . S
O80 C78 1.270 . S
C81 O74 1.262 . S
C81 O82 1.232 . S
O82 C81 1.232 . S
C83 O75 1.260 . S
C83 O76 1.257 . S
Zn84 O87 2.031 . S
Zn84 O89 2.049 . S
Zn84 O94 2.067 . S
Zn85 O86 1.962 . S
Zn85 O88 1.986 . S
Zn85 O90 1.996 . S
Zn85 O93 1.943 . S
O86 Zn85 1.962 . S
O86 C91 1.254 . S
O87 Zn84 2.031 . S
O87 C91 1.269 . S
O88 Zn85 1.986 . S
O88 C95 1.262 . S
O89 Zn84 2.049 . S
O89 C97 1.260 . S
O90 Zn85 1.996 . S
O90 C97 1.257 . S
C91 O86 1.254 . S
C91 O87 1.269 . S
C92 O93 1.249 . S
C92 O94 1.270 . S
O93 Zn85 1.943 . S
O93 C92 1.249 . S
O94 Zn84 2.067 . S
O94 C92 1.270 . S
C95 O88 1.262 . S
C95 O96 1.232 . S
O96 C95 1.232 . S
C97 O89 1.260 . S
C97 O90 1.257 . S
Zn98 O101 2.031 . S
Zn98 O103 2.049 . S
Zn98 O108 2.067 . S
Zn99 O100 1.962 . S
Zn99 O102 1.986 . S
Zn99 O104 1.996 . S
Zn99 O107 1.943 . S
O100 Zn99 1.962 . S
O100 C105 1.254 . S
O101 Zn98 2.031 . S
O101 C105 1.269 . S
O102 Zn99 1.986 . S
O102 C109 1.262 . S
O103 Zn98 2.049 . S
O103 C111 1.260 . S
O104 Zn99 1.996 . S
O104 C111 1.257 . S
C105 O100 1.254 . S
C105 O101 1.269 . S
C106 O107 1.249 . S
C106 O108 1.270 . S
O107 Zn99 1.943 . S
O107 C106 1.249 . S
O108 Zn98 2.067 . S
O108 C106 1.270 . S
C109 O102 1.262 . S
C109 O110 1.232 . S
O110 C109 1.232 . S
C111 O103 1.260 . S
C111 O104 1.257 . S
Zn112 O115 2.031 . S
Zn112 O117 2.049 . S
Zn112 O122 2.067 . S
Zn113 O114 1.962 . S
Zn113 O116 1.986 . S
Zn113 O118 1.996 . S
Zn113 O121 1.943 . S
O114 Zn113 1.962 . S
O114 C119 1.254 . S
O115 Zn112 2.031 . S
O115 C119 1.269 . S
O116 Zn113 1.986 . S
O116 C123 1.262 . S
O117 Zn112 2.049 . S
O117 C125 1.260 . S
O118 Zn113 1.996 . S
O118 C125 1.257 . S
C119 O114 1.254 . S
C119 O115 1.269 . S
C120 O121 1.249 . S
C120 O122 1.270 . S
O121 Zn113 1.943 . S
O121 C120 1.249 . S
O122 Zn112 2.067 . S
O122 C120 1.270 . S
C123 O116 1.262 . S
C123 O124 1.232 . S
O124 C123 1.232 . S
C125 O117 1.260 . S
C125 O118 1.257 . S
Zn126 O129 2.031 . S
Zn126 O131 2.049 . S
Zn126 O136 2.067 . S
Zn127 O128 1.962 . S
Zn127 O130 1.986 . S
Zn127 O132 1.996 . S
Zn127 O135 1.943 . S
O128 Zn127 1.962 . S
O128 C133 1.254 . S
O129 Zn126 2.031 . S
O129 C133 1.269 . S
O130 Zn127 1.986 . S
O130 C137 1.262 . S
O131 Zn126 2.049 . S
O131 C139 1.260 . S
O132 Zn127 1.996 . S
O132 C139 1.257 . S
C133 O128 1.254 . S
C133 O129 1.269 . S
C134 O135 1.249 . S
C134 O136 1.270 . S
O135 Zn127 1.943 . S
O135 C134 1.249 . S
O136 Zn126 2.067 . S
O136 C134 1.270 . S
C137 O130 1.262 . S
C137 O138 1.232 . S
O138 C137 1.232 . S
C139 O131 1.260 . S
C139 O132 1.257 . S
Zn140 O143 2.031 . S
Zn140 O145 2.049 . S
Zn140 O150 2.067 . S
Zn141 O142 1.962 . S
Zn141 O144 1.986 . S
Zn141 O146 1.996 . S
Zn141 O149 1.943 . S
O142 Zn141 1.962 . S
O142 C147 1.254 . S
O143 Zn140 2.031 . S
O143 C147 1.269 . S
O144 Zn141 1.986 . S
O144 C151 1.262 . S
O145 Zn140 2.049 . S
O145 C153 1.260 . S
O146 Zn141 1.996 . S
O146 C153 1.257 . S
C147 O142 1.254 . S
C147 O143 1.269 . S
C148 O149 1.249 . S
C148 O150 1.270 . S
O149 Zn141 1.943 . S
O149 C148 1.249 . S
O150 Zn140 2.067 . S
O150 C148 1.270 . S
C151 O144 1.262 . S
C151 O152 1.232 . S
O152 C151 1.232 . S
C153 O145 1.260 . S
C153 O146 1.257 . S
Zn154 O157 2.031 . S
Zn154 O159 2.049 . S
Zn154 O164 2.067 . S
Zn155 O156 1.962 . S
Zn155 O158 1.986 . S
Zn155 O160 1.996 . S
Zn155 O163 1.943 . S
O156 Zn155 1.962 . S
O156 C161 1.254 . S
O157 Zn154 2.031 . S
O157 C161 1.269 . S
O158 Zn155 1.986 . S
O158 C165 1.262 . S
O159 Zn154 2.049 . S
O159 C167 1.260 . S
O160 Zn155 1.996 . S
O160 C167 1.257 . S
C161 O156 1.254 . S
C161 O157 1.269 . S
C162 O163 1.249 . S
C162 O164 1.270 . S
O163 Zn155 1.943 . S
O163 C162 1.249 . S
O164 Zn154 2.067 . S
O164 C162 1.270 . S
C165 O158 1.262 . S
C165 O166 1.232 . S
O166 C165 1.232 . S
C167 O159 1.260 . S
C167 O160 1.257 . S
Zn168 O171 2.031 . S
Zn168 O173 2.049 . S
Zn168 O178 2.067 . S
Zn169 O170 1.962 . S
Zn169 O172 1.986 . S
Zn169 O174 1.996 . S
Zn169 O177 1.943 . S
O170 Zn169 1.962 . S
O170 C175 1.254 . S
O171 Zn168 2.031 . S
O171 C175 1.269 . S
O172 Zn169 1.986 . S
O172 C179 1.262 . S
O173 Zn168 2.049 . S
O173 C181 1.260 . S
O174 Zn169 1.996 . S
O174 C181 1.257 . S
C175 O170 1.254 . S
C175 O171 1.269 . S
C176 O177 1.249 . S
C176 O178 1.270 . S
O177 Zn169 1.943 . S
O177 C176 1.249 . S
O178 Zn168 2.067 . S
O178 C176 1.270 . S
C179 O172 1.262 . S
C179 O180 1.232 . S
O180 C179 1.232 . S
C181 O173 1.260 . S
C181 O174 1.257 . S
Zn182 O185 2.031 . S
Zn182 O187 2.049 . S
Zn182 O192 2.067 . S
Zn183 O184 1.962 . S
Zn183 O186 1.986 . S
Zn183 O188 1.996 . S
Zn183 O191 1.943 . S
O184 Zn183 1.962 . S
O184 C189 1.254 . S
O185 Zn182 2.031 . S
O185 C189 1.269 . S
O186 Zn183 1.986 . S
O186 C193 1.262 . S
O187 Zn182 2.049 . S
O187 C195 1.260 . S
O188 Zn183 1.996 . S
O188 C195 1.257 . S
C189 O184 1.254 . S
C189 O185 1.269 . S
C190 O191 1.249 . S
C190 O192 1.270 . S
O191 Zn183 1.943 . S
O191 C190 1.249 . S
O192 Zn182 2.067 . S
O192 C190 1.270 . S
C193 O186 1.262 . S
C193 O194 1.232 . S
O194 C193 1.232 . S
C195 O187 1.260 . S
C195 O188 1.257 . S
Zn196 O199 2.031 . S
Zn196 O201 2.049 . S
Zn196 O206 2.067 . S
Zn197 O198 1.962 . S
Zn197 O200 1.986 . S
Zn197 O202 1.996 . S
Zn197 O205 1.943 . S
O198 Zn197 1.962 . S
O198 C203 1.254 . S
O199 Zn196 2.031 . S
O199 C203 1.269 . S
O200 Zn197 1.986 . S
O200 C207 1.262 . S
O201 Zn196 2.049 . S
O201 C209 1.260 . S
O202 Zn197 1.996 . S
O202 C209 1.257 . S
C203 O198 1.254 . S
C203 O199 1.269 . S
C204 O205 1.249 . S
C204 O206 1.270 . S
O205 Zn197 1.943 . S
O205 C204 1.249 . S
O206 Zn196 2.067 . S
O206 C204 1.270 . S
C207 O200 1.262 . S
C207 O208 1.232 . S
O208 C207 1.232 . S
C209 O201 1.260 . S
C209 O202 1.257 . S
Zn210 O213 2.031 . S
Zn210 O215 2.049 . S
Zn210 O220 2.067 . S
Zn211 O212 1.962 . S
Zn211 O214 1.986 . S
Zn211 O216 1.996 . S
Zn211 O219 1.943 . S
O212 Zn211 1.962 . S
O212 C217 1.254 . S
O213 Zn210 2.031 . S
O213 C217 1.269 . S
O214 Zn211 1.986 . S
O214 C221 1.262 . S
O215 Zn210 2.049 . S
O215 C223 1.260 . S
O216 Zn211 1.996 . S
O216 C223 1.257 . S
C217 O212 1.254 . S
C217 O213 1.269 . S
C218 O219 1.249 . S
C218 O220 1.270 . S
O219 Zn211 1.943 . S
O219 C218 1.249 . S
O220 Zn210 2.067 . S
O220 C218 1.270 . S
C221 O214 1.262 . S
C221 O222 1.232 . S
O222 C221 1.232 . S
C223 O215 1.260 . S
C223 O216 1.257 . S
H224 C230 0.930 . S
H225 C233 0.930 . S
H226 C234 0.930 1_655 S
H227 C235 0.930 . S
H228 C238 0.930 . S
H229 C239 0.930 . S
C230 H224 0.930 . S
C230 C231 1.355 . S
C230 C232 1.415 1_455 S
C231 C230 1.355 . S
C231 C233 1.419 . S
C232 C230 1.415 1_655 S
C232 C237 1.425 . S
C232 C239 1.409 . S
C233 H225 0.930 . S
C233 C231 1.419 . S
C233 C234 1.362 . S
C234 H226 0.930 1_455 S
C234 C233 1.362 . S
C234 C237 1.409 1_455 S
C235 H227 0.930 . S
C235 C236 1.355 . S
C235 C237 1.415 . S
C236 C235 1.355 . S
C236 C238 1.419 . S
C237 C232 1.425 . S
C237 C234 1.409 1_655 S
C237 C235 1.415 . S
C238 H228 0.930 . S
C238 C236 1.419 . S
C238 C239 1.362 . S
C239 H229 0.930 . S
C239 C232 1.409 . S
C239 C238 1.362 . S
H240 C246 0.930 . S
H241 C249 0.930 . S
H242 C250 0.930 1_455 S
H243 C251 0.930 . S
H244 C254 0.930 . S
H245 C255 0.930 . S
C246 H240 0.930 . S
C246 C247 1.355 . S
C246 C248 1.415 1_655 S
C247 C246 1.355 . S
C247 C249 1.419 . S
C248 C246 1.415 1_455 S
C248 C253 1.425 . S
C248 C255 1.409 . S
C249 H241 0.930 . S
C249 C247 1.419 . S
C249 C250 1.362 . S
C250 H242 0.930 1_655 S
C250 C249 1.362 . S
C250 C253 1.409 1_655 S
C251 H243 0.930 . S
C251 C252 1.355 . S
C251 C253 1.415 . S
C252 C251 1.355 . S
C252 C254 1.419 . S
C253 C248 1.425 . S
C253 C250 1.409 1_455 S
C253 C251 1.415 . S
C254 H244 0.930 . S
C254 C252 1.419 . S
C254 C255 1.362 . S
C255 H245 0.930 . S
C255 C248 1.409 . S
C255 C254 1.362 . S
H256 C262 0.930 . S
H257 C265 0.930 . S
H258 C266 0.930 . S
H259 C267 0.930 . S
H260 C270 0.930 . S
H261 C271 0.930 1_655 S
C262 H256 0.930 . S
C262 C263 1.355 . S
C262 C264 1.415 . S
C263 C262 1.355 . S
C263 C265 1.419 . S
C264 C262 1.415 . S
C264 C269 1.425 . S
C264 C271 1.409 1_655 S
C265 H257 0.930 . S
C265 C263 1.419 . S
C265 C266 1.362 . S
C266 H258 0.930 . S
C266 C265 1.362 . S
C266 C269 1.409 . S
C267 H259 0.930 . S
C267 C268 1.355 . S
C267 C269 1.415 1_455 S
C268 C267 1.355 . S
C268 C270 1.419 . S
C269 C264 1.425 . S
C269 C266 1.409 . S
C269 C267 1.415 1_655 S
C270 H260 0.930 . S
C270 C268 1.419 . S
C270 C271 1.362 . S
C271 H261 0.930 1_455 S
C271 C264 1.409 1_455 S
C271 C270 1.362 . S
H272 C278 0.930 . S
H273 C281 0.930 . S
H274 C282 0.930 . S
H275 C283 0.930 . S
H276 C286 0.930 . S
H277 C287 0.930 1_455 S
C278 H272 0.930 . S
C278 C279 1.355 . S
C278 C280 1.415 . S
C279 C278 1.355 . S
C279 C281 1.419 . S
C280 C278 1.415 . S
C280 C285 1.425 . S
C280 C287 1.409 1_455 S
C281 H273 0.930 . S
C281 C279 1.419 . S
C281 C282 1.362 . S
C282 H274 0.930 . S
C282 C281 1.362 . S
C282 C285 1.409 . S
C283 H275 0.930 . S
C283 C284 1.355 . S
C283 C285 1.415 1_655 S
C284 C283 1.355 . S
C284 C286 1.419 . S
C285 C280 1.425 . S
C285 C282 1.409 . S
C285 C283 1.415 1_455 S
C286 H276 0.930 . S
C286 C284 1.419 . S
C286 C287 1.362 . S
C287 H277 0.930 1_655 S
C287 C280 1.409 1_655 S
C287 C286 1.362 . S
H288 C294 0.930 . S
H289 C297 0.930 . S
H290 C298 0.930 . S
H291 C299 0.930 . S
H292 C302 0.930 . S
H293 C303 0.930 . S
C294 H288 0.930 . S
C294 C295 1.355 . S
C294 C296 1.415 . S
C295 C294 1.355 . S
C295 C297 1.419 . S
C296 C294 1.415 . S
C296 C301 1.425 . S
C296 C303 1.409 . S
C297 H289 0.930 . S
C297 C295 1.419 . S
C297 C298 1.362 . S
C298 H290 0.930 . S
C298 C297 1.362 . S
C298 C301 1.409 . S
C299 H291 0.930 . S
C299 C300 1.355 . S
C299 C301 1.415 . S
C300 C299 1.355 . S
C300 C302 1.419 . S
C301 C296 1.425 . S
C301 C298 1.409 . S
C301 C299 1.415 . S
C302 H292 0.930 . S
C302 C300 1.419 . S
C302 C303 1.362 . S
C303 H293 0.930 . S
C303 C296 1.409 . S
C303 C302 1.362 . S
H304 C310 0.930 . S
H305 C313 0.930 . S
H306 C314 0.930 . S
H307 C315 0.930 . S
H308 C318 0.930 . S
H309 C319 0.930 . S
C310 H304 0.930 . S
C310 C311 1.355 . S
C310 C312 1.415 . S
C311 C310 1.355 . S
C311 C313 1.419 . S
C312 C310 1.415 . S
C312 C317 1.425 . S
C312 C319 1.409 . S
C313 H305 0.930 . S
C313 C311 1.419 . S
C313 C314 1.362 . S
C314 H306 0.930 . S
C314 C313 1.362 . S
C314 C317 1.409 . S
C315 H307 0.930 . S
C315 C316 1.355 . S
C315 C317 1.415 . S
C316 C315 1.355 . S
C316 C318 1.419 . S
C317 C312 1.425 . S
C317 C314 1.409 . S
C317 C315 1.415 . S
C318 H308 0.930 . S
C318 C316 1.419 . S
C318 C319 1.362 . S
C319 H309 0.930 . S
C319 C312 1.409 . S
C319 C318 1.362 . S
H320 C326 0.930 . S
H321 C329 0.930 . S
H322 C330 0.930 . S
H323 C331 0.930 . S
H324 C334 0.930 . S
H325 C335 0.930 . S
C326 H320 0.930 . S
C326 C327 1.355 . S
C326 C328 1.415 . S
C327 C326 1.355 . S
C327 C329 1.419 . S
C328 C326 1.415 . S
C328 C333 1.425 . S
C328 C335 1.409 . S
C329 H321 0.930 . S
C329 C327 1.419 . S
C329 C330 1.362 . S
C330 H322 0.930 . S
C330 C329 1.362 . S
C330 C333 1.409 . S
C331 H323 0.930 . S
C331 C332 1.355 . S
C331 C333 1.415 . S
C332 C331 1.355 . S
C332 C334 1.419 . S
C333 C328 1.425 . S
C333 C330 1.409 . S
C333 C331 1.415 . S
C334 H324 0.930 . S
C334 C332 1.419 . S
C334 C335 1.362 . S
C335 H325 0.930 . S
C335 C328 1.409 . S
C335 C334 1.362 . S
H336 C342 0.930 . S
H337 C345 0.930 . S
H338 C346 0.930 . S
H339 C347 0.930 . S
H340 C350 0.930 . S
H341 C351 0.930 . S
C342 H336 0.930 . S
C342 C343 1.355 . S
C342 C344 1.415 . S
C343 C342 1.355 . S
C343 C345 1.419 . S
C344 C342 1.415 . S
C344 C349 1.425 . S
C344 C351 1.409 . S
C345 H337 0.930 . S
C345 C343 1.419 . S
C345 C346 1.362 . S
C346 H338 0.930 . S
C346 C345 1.362 . S
C346 C349 1.409 . S
C347 H339 0.930 . S
C347 C348 1.355 . S
C347 C349 1.415 . S
C348 C347 1.355 . S
C348 C350 1.419 . S
C349 C344 1.425 . S
C349 C346 1.409 . S
C349 C347 1.415 . S
C350 H340 0.930 . S
C350 C348 1.419 . S
C350 C351 1.362 . S
C351 H341 0.930 . S
C351 C344 1.409 . S
C351 C350 1.362 . S
H352 C358 0.930 . S
H353 C361 0.930 . S
H354 C362 0.930 . S
H355 C363 0.930 . S
H356 C366 0.930 . S
H357 C367 0.930 . S
C358 H352 0.930 . S
C358 C359 1.355 . S
C358 C360 1.415 . S
C359 C358 1.355 . S
C359 C361 1.419 . S
C360 C358 1.415 . S
C360 C365 1.425 . S
C360 C367 1.409 . S
C361 H353 0.930 . S
C361 C359 1.419 . S
C361 C362 1.362 . S
C362 H354 0.930 . S
C362 C361 1.362 . S
C362 C365 1.409 . S
C363 H355 0.930 . S
C363 C364 1.355 . S
C363 C365 1.415 . S
C364 C363 1.355 . S
C364 C366 1.419 . S
C365 C360 1.425 . S
C365 C362 1.409 . S
C365 C363 1.415 . S
C366 H356 0.930 . S
C366 C364 1.419 . S
C366 C367 1.362 . S
C367 H357 0.930 . S
C367 C360 1.409 . S
C367 C366 1.362 . S
H368 C374 0.930 . S
H369 C377 0.930 . S
H370 C378 0.930 . S
H371 C379 0.930 . S
H372 C382 0.930 . S
H373 C383 0.930 . S
C374 H368 0.930 . S
C374 C375 1.355 . S
C374 C376 1.415 . S
C375 C374 1.355 . S
C375 C377 1.419 . S
C376 C374 1.415 . S
C376 C381 1.425 . S
C376 C383 1.409 . S
C377 H369 0.930 . S
C377 C375 1.419 . S
C377 C378 1.362 . S
C378 H370 0.930 . S
C378 C377 1.362 . S
C378 C381 1.409 . S
C379 H371 0.930 . S
C379 C380 1.355 . S
C379 C381 1.415 . S
C380 C379 1.355 . S
C380 C382 1.419 . S
C381 C376 1.425 . S
C381 C378 1.409 . S
C381 C379 1.415 . S
C382 H372 0.930 . S
C382 C380 1.419 . S
C382 C383 1.362 . S
C383 H373 0.930 . S
C383 C376 1.409 . S
C383 C382 1.362 . S
H384 C390 0.930 . S
H385 C393 0.930 . S
H386 C394 0.930 . S
H387 C395 0.930 . S
H388 C398 0.930 . S
H389 C399 0.930 . S
C390 H384 0.930 . S
C390 C391 1.355 . S
C390 C392 1.415 . S
C391 C390 1.355 . S
C391 C393 1.419 . S
C392 C390 1.415 . S
C392 C397 1.425 . S
C392 C399 1.409 . S
C393 H385 0.930 . S
C393 C391 1.419 . S
C393 C394 1.362 . S
C394 H386 0.930 . S
C394 C393 1.362 . S
C394 C397 1.409 . S
C395 H387 0.930 . S
C395 C396 1.355 . S
C395 C397 1.415 . S
C396 C395 1.355 . S
C396 C398 1.419 . S
C397 C392 1.425 . S
C397 C394 1.409 . S
C397 C395 1.415 . S
C398 H388 0.930 . S
C398 C396 1.419 . S
C398 C399 1.362 . S
C399 H389 0.930 . S
C399 C392 1.409 . S
C399 C398 1.362 . S
H400 C406 0.930 . S
H401 C409 0.930 . S
H402 C410 0.930 . S
H403 C411 0.930 . S
H404 C414 0.930 . S
H405 C415 0.930 . S
C406 H400 0.930 . S
C406 C407 1.355 . S
C406 C408 1.415 . S
C407 C406 1.355 . S
C407 C409 1.419 . S
C408 C406 1.415 . S
C408 C413 1.425 . S
C408 C415 1.409 . S
C409 H401 0.930 . S
C409 C407 1.419 . S
C409 C410 1.362 . S
C410 H402 0.930 . S
C410 C409 1.362 . S
C410 C413 1.409 . S
C411 H403 0.930 . S
C411 C412 1.355 . S
C411 C413 1.415 . S
C412 C411 1.355 . S
C412 C414 1.419 . S
C413 C408 1.425 . S
C413 C410 1.409 . S
C413 C411 1.415 . S
C414 H404 0.930 . S
C414 C412 1.419 . S
C414 C415 1.362 . S
C415 H405 0.930 . S
C415 C408 1.409 . S
C415 C414 1.362 . S
H416 C422 0.930 . S
H417 C425 0.930 . S
H418 C426 0.930 . S
H419 C427 0.930 . S
H420 C430 0.930 . S
H421 C431 0.930 . S
C422 H416 0.930 . S
C422 C423 1.355 . S
C422 C424 1.415 . S
C423 C422 1.355 . S
C423 C425 1.419 . S
C424 C422 1.415 . S
C424 C429 1.425 . S
C424 C431 1.409 . S
C425 H417 0.930 . S
C425 C423 1.419 . S
C425 C426 1.362 . S
C426 H418 0.930 . S
C426 C425 1.362 . S
C426 C429 1.409 . S
C427 H419 0.930 . S
C427 C428 1.355 . S
C427 C429 1.415 . S
C428 C427 1.355 . S
C428 C430 1.419 . S
C429 C424 1.425 . S
C429 C426 1.409 . S
C429 C427 1.415 . S
C430 H420 0.930 . S
C430 C428 1.419 . S
C430 C431 1.362 . S
C431 H421 0.930 . S
C431 C424 1.409 . S
C431 C430 1.362 . S
H432 C438 0.930 . S
H433 C441 0.930 . S
H434 C442 0.930 . S
H435 C443 0.930 . S
H436 C446 0.930 . S
H437 C447 0.930 . S
C438 H432 0.930 . S
C438 C439 1.355 . S
C438 C440 1.415 . S
C439 C438 1.355 . S
C439 C441 1.419 . S
C440 C438 1.415 . S
C440 C445 1.425 . S
C440 C447 1.409 . S
C441 H433 0.930 . S
C441 C439 1.419 . S
C441 C442 1.362 . S
C442 H434 0.930 . S
C442 C441 1.362 . S
C442 C445 1.409 . S
C443 H435 0.930 . S
C443 C444 1.355 . S
C443 C445 1.415 . S
C444 C443 1.355 . S
C444 C446 1.419 . S
C445 C440 1.425 . S
C445 C442 1.409 . S
C445 C443 1.415 . S
C446 H436 0.930 . S
C446 C444 1.419 . S
C446 C447 1.362 . S
C447 H437 0.930 . S
C447 C440 1.409 . S
C447 C446 1.362 . S
H448 C454 0.930 . S
H449 C457 0.930 . S
H450 C458 0.930 . S
H451 C459 0.930 . S
H452 C462 0.930 . S
H453 C463 0.930 . S
C454 H448 0.930 . S
C454 C455 1.355 . S
C454 C456 1.415 . S
C455 C454 1.355 . S
C455 C457 1.419 . S
C456 C454 1.415 . S
C456 C461 1.425 . S
C456 C463 1.409 . S
C457 H449 0.930 . S
C457 C455 1.419 . S
C457 C458 1.362 . S
C458 H450 0.930 . S
C458 C457 1.362 . S
C458 C461 1.409 . S
C459 H451 0.930 . S
C459 C460 1.355 . S
C459 C461 1.415 . S
C460 C459 1.355 . S
C460 C462 1.419 . S
C461 C456 1.425 . S
C461 C458 1.409 . S
C461 C459 1.415 . S
C462 H452 0.930 . S
C462 C460 1.419 . S
C462 C463 1.362 . S
C463 H453 0.930 . S
C463 C456 1.409 . S
C463 C462 1.362 . S
H464 C470 0.930 . S
H465 C473 0.930 . S
H466 C474 0.930 . S
H467 C475 0.930 . S
H468 C478 0.930 . S
H469 C479 0.930 . S
C470 H464 0.930 . S
C470 C471 1.355 . S
C470 C472 1.415 . S
C471 C470 1.355 . S
C471 C473 1.419 . S
C472 C470 1.415 . S
C472 C477 1.425 . S
C472 C479 1.409 . S
C473 H465 0.930 . S
C473 C471 1.419 . S
C473 C474 1.362 . S
C474 H466 0.930 . S
C474 C473 1.362 . S
C474 C477 1.409 . S
C475 H467 0.930 . S
C475 C476 1.355 . S
C475 C477 1.415 . S
C476 C475 1.355 . S
C476 C478 1.419 . S
C477 C472 1.425 . S
C477 C474 1.409 . S
C477 C475 1.415 . S
C478 H468 0.930 . S
C478 C476 1.419 . S
C478 C479 1.362 . S
C479 H469 0.930 . S
C479 C472 1.409 . S
C479 C478 1.362 . S
H480 C486 0.930 . S
H481 C489 0.930 . S
H482 C490 0.930 . S
H483 C491 0.930 . S
H484 C494 0.930 . S
H485 C495 0.930 . S
C486 H480 0.930 . S
C486 C487 1.355 . S
C486 C488 1.415 . S
C487 C486 1.355 . S
C487 C489 1.419 . S
C488 C486 1.415 . S
C488 C493 1.425 1_556 S
C488 C495 1.409 . S
C489 H481 0.930 . S
C489 C487 1.419 . S
C489 C490 1.362 1_556 S
C490 H482 0.930 . S
C490 C489 1.362 1_554 S
C490 C493 1.409 . S
C491 H483 0.930 . S
C491 C492 1.355 . S
C491 C493 1.415 . S
C492 C491 1.355 . S
C492 C494 1.419 . S
C493 C488 1.425 1_554 S
C493 C490 1.409 . S
C493 C491 1.415 . S
C494 H484 0.930 . S
C494 C492 1.419 . S
C494 C495 1.362 1_554 S
C495 H485 0.930 . S
C495 C488 1.409 . S
C495 C494 1.362 1_556 S
H496 C502 0.930 . S
H497 C505 0.930 . S
H498 C506 0.930 . S
H499 C507 0.930 . S
H500 C510 0.930 . S
H501 C511 0.930 . S
C502 H496 0.930 . S
C502 C503 1.355 . S
C502 C504 1.415 . S
C503 C502 1.355 . S
C503 C505 1.419 . S
C504 C502 1.415 . S
C504 C509 1.425 . S
C504 C511 1.409 . S
C505 H497 0.930 . S
C505 C503 1.419 . S
C505 C506 1.362 . S
C506 H498 0.930 . S
C506 C505 1.362 . S
C506 C509 1.409 . S
C507 H499 0.930 . S
C507 C508 1.355 . S
C507 C509 1.415 . S
C508 C507 1.355 . S
C508 C510 1.419 . S
C509 C504 1.425 . S
C509 C506 1.409 . S
C509 C507 1.415 . S
C510 H500 0.930 . S
C510 C508 1.419 . S
C510 C511 1.362 . S
C511 H501 0.930 . S
C511 C504 1.409 . S
C511 C510 1.362 . S
H512 C518 0.930 . S
H513 C521 0.930 . S
H514 C522 0.930 . S
H515 C523 0.930 . S
H516 C526 0.930 . S
H517 C527 0.930 . S
C518 H512 0.930 . S
C518 C519 1.355 . S
C518 C520 1.415 . S
C519 C518 1.355 . S
C519 C521 1.419 . S
C520 C518 1.415 . S
C520 C525 1.425 1_554 S
C520 C527 1.409 . S
C521 H513 0.930 . S
C521 C519 1.419 . S
C521 C522 1.362 1_554 S
C522 H514 0.930 . S
C522 C521 1.362 1_556 S
C522 C525 1.409 . S
C523 H515 0.930 . S
C523 C524 1.355 . S
C523 C525 1.415 . S
C524 C523 1.355 . S
C524 C526 1.419 . S
C525 C520 1.425 1_556 S
C525 C522 1.409 . S
C525 C523 1.415 . S
C526 H516 0.930 . S
C526 C524 1.419 . S
C526 C527 1.362 1_556 S
C527 H517 0.930 . S
C527 C520 1.409 . S
C527 C526 1.362 1_554 S
H528 C534 0.930 . S
H529 C537 0.930 . S
H530 C538 0.930 . S
H531 C539 0.930 . S
H532 C542 0.930 . S
H533 C543 0.930 . S
C534 H528 0.930 . S
C534 C535 1.355 . S
C534 C536 1.415 . S
C535 C534 1.355 . S
C535 C537 1.419 . S
C536 C534 1.415 . S
C536 C541 1.425 . S
C536 C543 1.409 . S
C537 H529 0.930 . S
C537 C535 1.419 . S
C537 C538 1.362 . S
C538 H530 0.930 . S
C538 C537 1.362 . S
C538 C541 1.409 . S
C539 H531 0.930 . S
C539 C540 1.355 . S
C539 C541 1.415 . S
C540 C539 1.355 . S
C540 C542 1.419 . S
C541 C536 1.425 . S
C541 C538 1.409 . S
C541 C539 1.415 . S
C542 H532 0.930 . S
C542 C540 1.419 . S
C542 C543 1.362 . S
C543 H533 0.930 . S
C543 C536 1.409 . S
C543 C542 1.362 . S
H544 C550 0.930 . S
H545 C553 0.930 . S
H546 C554 0.930 . S
H547 C555 0.930 . S
H548 C558 0.930 . S
H549 C559 0.930 . S
C550 H544 0.930 . S
C550 C551 1.355 . S
C550 C552 1.415 . S
C551 C550 1.355 . S
C551 C553 1.419 . S
C552 C550 1.415 . S
C552 C557 1.425 1_554 S
C552 C559 1.409 . S
C553 H545 0.930 . S
C553 C551 1.419 . S
C553 C554 1.362 1_554 S
C554 H546 0.930 . S
C554 C553 1.362 1_556 S
C554 C557 1.409 . S
C555 H547 0.930 . S
C555 C556 1.355 . S
C555 C557 1.415 . S
C556 C555 1.355 . S
C556 C558 1.419 . S
C557 C552 1.425 1_556 S
C557 C554 1.409 . S
C557 C555 1.415 . S
C558 H548 0.930 . S
C558 C556 1.419 . S
C558 C559 1.362 1_556 S
C559 H549 0.930 . S
C559 C552 1.409 . S
C559 C558 1.362 1_554 S
H560 C566 0.930 . S
H561 C569 0.930 . S
H562 C570 0.930 . S
H563 C571 0.930 . S
H564 C574 0.930 . S
H565 C575 0.930 . S
C566 H560 0.930 . S
C566 C567 1.355 . S
C566 C568 1.415 . S
C567 C566 1.355 . S
C567 C569 1.419 . S
C568 C566 1.415 . S
C568 C573 1.425 . S
C568 C575 1.409 . S
C569 H561 0.930 . S
C569 C567 1.419 . S
C569 C570 1.362 . S
C570 H562 0.930 . S
C570 C569 1.362 . S
C570 C573 1.409 . S
C571 H563 0.930 . S
C571 C572 1.355 . S
C571 C573 1.415 . S
C572 C571 1.355 . S
C572 C574 1.419 . S
C573 C568 1.425 . S
C573 C570 1.409 . S
C573 C571 1.415 . S
C574 H564 0.930 . S
C574 C572 1.419 . S
C574 C575 1.362 . S
C575 H565 0.930 . S
C575 C568 1.409 . S
C575 C574 1.362 . S
H576 C582 0.930 1_556 S
H577 C585 0.930 . S
H578 C586 0.930 . S
H579 C587 0.930 1_554 S
H580 C590 0.930 . S
H581 C591 0.930 . S
C582 H576 0.930 1_554 S
C582 C583 1.355 . S
C582 C584 1.415 1_554 S
C583 C582 1.355 . S
C583 C585 1.419 . S
C584 C582 1.415 1_556 S
C584 C589 1.425 1_556 S
C584 C591 1.409 . S
C585 H577 0.930 . S
C585 C583 1.419 . S
C585 C586 1.362 . S
C586 H578 0.930 . S
C586 C585 1.362 . S
C586 C589 1.409 . S
C587 H579 0.930 1_556 S
C587 C588 1.355 . S
C587 C589 1.415 1_556 S
C588 C587 1.355 . S
C588 C590 1.419 . S
C589 C584 1.425 1_554 S
C589 C586 1.409 . S
C589 C587 1.415 1_554 S
C590 H580 0.930 . S
C590 C588 1.419 . S
C590 C591 1.362 . S
C591 H581 0.930 . S
C591 C584 1.409 . S
C591 C590 1.362 . S
H592 C598 0.930 . S
H593 C601 0.930 . S
H594 C602 0.930 . S
H595 C603 0.930 . S
H596 C606 0.930 . S
H597 C607 0.930 . S
C598 H592 0.930 . S
C598 C599 1.355 . S
C598 C600 1.415 . S
C599 C598 1.355 . S
C599 C601 1.419 . S
C600 C598 1.415 . S
C600 C605 1.425 . S
C600 C607 1.409 . S
C601 H593 0.930 . S
C601 C599 1.419 . S
C601 C602 1.362 . S
C602 H594 0.930 . S
C602 C601 1.362 . S
C602 C605 1.409 . S
C603 H595 0.930 . S
C603 C604 1.355 . S
C603 C605 1.415 . S
C604 C603 1.355 . S
C604 C606 1.419 . S
C605 C600 1.425 . S
C605 C602 1.409 . S
C605 C603 1.415 . S
C606 H596 0.930 . S
C606 C604 1.419 . S
C606 C607 1.362 . S
C607 H597 0.930 . S
C607 C600 1.409 . S
C607 C606 1.362 . S
H608 C614 0.930 . S
H609 C617 0.930 . S
H610 C618 0.930 . S
H611 C619 0.930 . S
H612 C622 0.930 . S
H613 C623 0.930 . S
C614 H608 0.930 . S
C614 C615 1.355 . S
C614 C616 1.415 . S
C615 C614 1.355 . S
C615 C617 1.419 . S
C616 C614 1.415 . S
C616 C621 1.425 1_556 S
C616 C623 1.409 . S
C617 H609 0.930 . S
C617 C615 1.419 . S
C617 C618 1.362 1_556 S
C618 H610 0.930 . S
C618 C617 1.362 1_554 S
C618 C621 1.409 . S
C619 H611 0.930 . S
C619 C620 1.355 . S
C619 C621 1.415 . S
C620 C619 1.355 . S
C620 C622 1.419 . S
C621 C616 1.425 1_554 S
C621 C618 1.409 . S
C621 C619 1.415 . S
C622 H612 0.930 . S
C622 C620 1.419 . S
C622 C623 1.362 1_554 S
C623 H613 0.930 . S
C623 C616 1.409 . S
C623 C622 1.362 1_556 S
H624 C630 0.930 . S
H625 C633 0.930 . S
H626 C634 0.930 . S
H627 C635 0.930 . S
H628 C638 0.930 . S
H629 C639 0.930 . S
C630 H624 0.930 . S
C630 C631 1.355 . S
C630 C632 1.415 . S
C631 C630 1.355 . S
C631 C633 1.419 . S
C632 C630 1.415 . S
C632 C637 1.425 . S
C632 C639 1.409 . S
C633 H625 0.930 . S
C633 C631 1.419 . S
C633 C634 1.362 . S
C634 H626 0.930 . S
C634 C633 1.362 . S
C634 C637 1.409 . S
C635 H627 0.930 . S
C635 C636 1.355 . S
C635 C637 1.415 . S
C636 C635 1.355 . S
C636 C638 1.419 . S
C637 C632 1.425 . S
C637 C634 1.409 . S
C637 C635 1.415 . S
C638 H628 0.930 . S
C638 C636 1.419 . S
C638 C639 1.362 . S
C639 H629 0.930 . S
C639 C632 1.409 . S
C639 C638 1.362 . S
H640 C646 0.930 . S
H641 C649 0.930 . S
H642 C650 0.930 . S
H643 C651 0.930 . S
H644 C654 0.930 . S
H645 C655 0.930 . S
C646 H640 0.930 . S
C646 C647 1.355 . S
C646 C648 1.415 . S
C647 C646 1.355 . S
C647 C649 1.419 . S
C648 C646 1.415 . S
C648 C653 1.425 1_554 S
C648 C655 1.409 . S
C649 H641 0.930 . S
C649 C647 1.419 . S
C649 C650 1.362 1_554 S
C650 H642 0.930 . S
C650 C649 1.362 1_556 S
C650 C653 1.409 . S
C651 H643 0.930 . S
C651 C652 1.355 . S
C651 C653 1.415 . S
C652 C651 1.355 . S
C652 C654 1.419 . S
C653 C648 1.425 1_556 S
C653 C650 1.409 . S
C653 C651 1.415 . S
C654 H644 0.930 . S
C654 C652 1.419 . S
C654 C655 1.362 1_556 S
C655 H645 0.930 . S
C655 C648 1.409 . S
C655 C654 1.362 1_554 S
H656 C662 0.930 . S
H657 C665 0.930 . S
H658 C666 0.930 . S
H659 C667 0.930 . S
H660 C670 0.930 . S
H661 C671 0.930 . S
C662 H656 0.930 . S
C662 C663 1.355 . S
C662 C664 1.415 . S
C663 C662 1.355 . S
C663 C665 1.419 . S
C664 C662 1.415 . S
C664 C669 1.425 . S
C664 C671 1.409 . S
C665 H657 0.930 . S
C665 C663 1.419 . S
C665 C666 1.362 . S
C666 H658 0.930 . S
C666 C665 1.362 . S
C666 C669 1.409 . S
C667 H659 0.930 . S
C667 C668 1.355 . S
C667 C669 1.415 . S
C668 C667 1.355 . S
C668 C670 1.419 . S
C669 C664 1.425 . S
C669 C666 1.409 . S
C669 C667 1.415 . S
C670 H660 0.930 . S
C670 C668 1.419 . S
C670 C671 1.362 . S
C671 H661 0.930 . S
C671 C664 1.409 . S
C671 C670 1.362 . S
H672 C678 0.930 . S
H673 C681 0.926 1_554 S
H674 C682 0.930 . S
H675 C683 0.930 . S
H676 C686 0.926 1_556 S
H677 C687 0.930 . S
C678 H672 0.930 . S
C678 C679 1.355 . S
C678 C680 1.395 1_545 S
C679 C678 1.355 . S
C679 C681 1.435 . S
C680 C678 1.395 1_565 S
C680 C685 1.424 1_566 S
C680 C687 1.430 . S
C681 H673 0.926 1_556 S
C681 C679 1.435 . S
C681 C682 1.351 1_556 S
C682 H674 0.930 . S
C682 C681 1.351 1_554 S
C682 C685 1.430 . S
C683 H675 0.930 . S
C683 C684 1.355 . S
C683 C685 1.395 1_565 S
C684 C683 1.355 . S
C684 C686 1.435 . S
C685 C680 1.424 1_544 S
C685 C682 1.430 . S
C685 C683 1.395 1_545 S
C686 H676 0.926 1_554 S
C686 C684 1.435 . S
C686 C687 1.351 1_554 S
C687 H677 0.930 . S
C687 C680 1.430 . S
C687 C686 1.351 1_556 S
H688 C694 0.930 . S
H689 C697 0.930 . S
H690 C698 0.930 . S
H691 C699 0.930 . S
H692 C702 0.930 . S
H693 C703 0.930 . S
C694 H688 0.930 . S
C694 C695 1.355 . S
C694 C696 1.415 . S
C695 C694 1.355 . S
C695 C697 1.419 . S
C696 C694 1.415 . S
C696 C701 1.425 1_565 S
C696 C703 1.409 1_565 S
C697 H689 0.930 . S
C697 C695 1.419 . S
C697 C698 1.362 . S
C698 H690 0.930 . S
C698 C697 1.362 . S
C698 C701 1.409 1_565 S
C699 H691 0.930 . S
C699 C700 1.355 . S
C699 C701 1.415 . S
C700 C699 1.355 . S
C700 C702 1.419 . S
C701 C696 1.425 1_545 S
C701 C698 1.409 1_545 S
C701 C699 1.415 . S
C702 H692 0.930 . S
C702 C700 1.419 . S
C702 C703 1.362 . S
C703 H693 0.930 . S
C703 C696 1.409 1_545 S
C703 C702 1.362 . S
H704 C710 0.930 1_556 S
H705 C713 0.930 . S
H706 C714 0.930 . S
H707 C715 0.930 1_554 S
H708 C718 0.930 . S
H709 C719 0.930 . S
C710 H704 0.930 1_554 S
C710 C711 1.355 . S
C710 C712 1.415 1_554 S
C711 C710 1.355 . S
C711 C713 1.419 . S
C712 C710 1.415 1_556 S
C712 C717 1.425 1_566 S
C712 C719 1.409 . S
C713 H705 0.930 . S
C713 C711 1.419 . S
C713 C714 1.362 1_565 S
C714 H706 0.930 . S
C714 C713 1.362 1_545 S
C714 C717 1.409 . S
C715 H707 0.930 1_556 S
C715 C716 1.355 . S
C715 C717 1.415 1_556 S
C716 C715 1.355 . S
C716 C718 1.419 . S
C717 C712 1.425 1_544 S
C717 C714 1.409 . S
C717 C715 1.415 1_554 S
C718 H708 0.930 . S
C718 C716 1.419 . S
C718 C719 1.362 1_545 S
C719 H709 0.930 . S
C719 C712 1.409 . S
C719 C718 1.362 1_565 S
H720 C726 0.930 . S
H721 C729 0.930 . S
H722 C730 0.930 . S
H723 C731 0.930 . S
H724 C734 0.930 . S
H725 C735 0.930 . S
C726 H720 0.930 . S
C726 C727 1.355 . S
C726 C728 1.415 1_545 S
C727 C726 1.355 . S
C727 C729 1.419 . S
C728 C726 1.415 1_565 S
C728 C733 1.425 1_565 S
C728 C735 1.409 . S
C729 H721 0.930 . S
C729 C727 1.419 . S
C729 C730 1.362 . S
C730 H722 0.930 . S
C730 C729 1.362 . S
C730 C733 1.409 . S
C731 H723 0.930 . S
C731 C732 1.355 . S
C731 C733 1.415 1_565 S
C732 C731 1.355 . S
C732 C734 1.419 . S
C733 C728 1.425 1_545 S
C733 C730 1.409 . S
C733 C731 1.415 1_545 S
C734 H724 0.930 . S
C734 C732 1.419 . S
C734 C735 1.362 . S
C735 H725 0.930 . S
C735 C728 1.409 . S
C735 C734 1.362 . S
C231 C8 1.399 . S
C236 C92 1.394 . S
C247 C22 1.384 . S
C252 C106 1.420 . S
C263 C64 1.432 . S
C268 C36 1.446 . S
C279 C78 1.452 . S
C284 C50 1.416 . S
C295 C204 1.422 . S
C300 C120 1.452 . S
C311 C218 1.436 . S
C316 C134 1.443 . S
C327 C148 1.433 . S
C332 C176 1.377 . S
C343 C162 1.403 . S
C348 C190 1.453 . S
C359 C13 1.303 . S
C364 C77 1.415 . S
C375 C27 1.347 . S
C380 C63 1.399 . S
C391 C41 1.297 . S
C396 C105 1.418 . S
C407 C91 1.410 . S
C412 C55 1.353 . S
C423 C189 1.438 . S
C428 C125 1.277 . S
C439 C175 1.393 . S
C444 C139 1.371 . S
C455 C153 1.304 . S
C460 C217 1.430 . S
C471 C203 1.433 . S
C476 C167 1.296 . S
C487 C179 1.373 . S
C492 C11 1.370 . S
C503 C25 1.380 . S
C508 C193 1.377 . S
C519 C207 1.387 . S
C524 C39 1.362 . S
C535 C221 1.387 . S
C540 C53 1.362 . S
C551 C123 1.367 . S
C556 C67 1.385 . S
C567 C137 1.387 . S
C572 C81 1.366 . S
C583 C95 1.379 . S
C588 C151 1.377 . S
C599 C109 1.372 . S
C604 C165 1.385 . S
C615 C35 1.512 . S
C620 C7 1.495 . S
C631 C21 1.483 . S
C636 C49 1.505 . S
C647 C97 1.318 . S
C652 C69 1.251 . S
C663 C83 1.227 . S
C668 C111 1.219 . S
C679 C147 1.492 . S
C684 C119 1.511 . S
C695 C161 1.506 . S
C700 C133 1.484 . S
C711 C209 1.208 . S
C716 C181 1.261 . S
C727 C223 1.296 . S
C732 C195 1.321 . S
