# Generated by pormake.
# Topology wkj, (6)-cn, num edge types: 1
# Building blocks:
#     Node 0, Type 0, BuildingBlock: BETFAJ_clean_sbu_0, # of connection points: 6
#     Node 1, Type 0, BuildingBlock: BETFAJ_clean_sbu_0, # of connection points: 6
#     Node 2, Type 0, BuildingBlock: BETFAJ_clean_sbu_0, # of connection points: 6
#     Node 3, Type 0, BuildingBlock: BETFAJ_clean_sbu_0, # of connection points: 6
#     Node 4, Type 0, BuildingBlock: BETFAJ_clean_sbu_0, # of connection points: 6
#     Node 5, Type 0, BuildingBlock: BETFAJ_clean_sbu_0, # of connection points: 6
#     Node 6, Type 0, BuildingBlock: BETFAJ_clean_sbu_0, # of connection points: 6
#     Node 7, Type 0, BuildingBlock: BETFAJ_clean_sbu_0, # of connection points: 6
#     Node 8, Type 0, BuildingBlock: BETFAJ_clean_sbu_0, # of connection points: 6
#     Node 9, Type 0, BuildingBlock: BETFAJ_clean_sbu_0, # of connection points: 6
#     Node 10, Type 0, BuildingBlock: BETFAJ_clean_sbu_0, # of connection points: 6
#     Node 11, Type 0, BuildingBlock: BETFAJ_clean_sbu_0, # of connection points: 6
#     Edge 12, Type (0, 0), BuildingBlock: TEMPAE_clean_linker_10, # of connection points: 2
#     Edge 13, Type (0, 0), BuildingBlock: TEMPAE_clean_linker_10, # of connection points: 2
#     Edge 14, Type (0, 0), BuildingBlock: TEMPAE_clean_linker_10, # of connection points: 2
#     Edge 15, Type (0, 0), BuildingBlock: TEMPAE_clean_linker_10, # of connection points: 2
#     Edge 16, Type (0, 0), BuildingBlock: TEMPAE_clean_linker_10, # of connection points: 2
#     Edge 17, Type (0, 0), BuildingBlock: TEMPAE_clean_linker_10, # of connection points: 2
#     Edge 18, Type (0, 0), BuildingBlock: TEMPAE_clean_linker_10, # of connection points: 2
#     Edge 19, Type (0, 0), BuildingBlock: TEMPAE_clean_linker_10, # of connection points: 2
#     Edge 20, Type (0, 0), BuildingBlock: TEMPAE_clean_linker_10, # of connection points: 2
#     Edge 21, Type (0, 0), BuildingBlock: TEMPAE_clean_linker_10, # of connection points: 2
#     Edge 22, Type (0, 0), BuildingBlock: TEMPAE_clean_linker_10, # of connection points: 2
#     Edge 23, Type (0, 0), BuildingBlock: TEMPAE_clean_linker_10, # of connection points: 2
#     Edge 24, Type (0, 0), BuildingBlock: TEMPAE_clean_linker_10, # of connection points: 2
#     Edge 25, Type (0, 0), BuildingBlock: TEMPAE_clean_linker_10, # of connection points: 2
#     Edge 26, Type (0, 0), BuildingBlock: TEMPAE_clean_linker_10, # of connection points: 2
#     Edge 27, Type (0, 0), BuildingBlock: TEMPAE_clean_linker_10, # of connection points: 2
#     Edge 28, Type (0, 0), BuildingBlock: TEMPAE_clean_linker_10, # of connection points: 2
#     Edge 29, Type (0, 0), BuildingBlock: TEMPAE_clean_linker_10, # of connection points: 2
#     Edge 30, Type (0, 0), BuildingBlock: TEMPAE_clean_linker_10, # of connection points: 2
#     Edge 31, Type (0, 0), BuildingBlock: TEMPAE_clean_linker_10, # of connection points: 2
#     Edge 32, Type (0, 0), BuildingBlock: TEMPAE_clean_linker_10, # of connection points: 2
#     Edge 33, Type (0, 0), BuildingBlock: TEMPAE_clean_linker_10, # of connection points: 2
#     Edge 34, Type (0, 0), BuildingBlock: TEMPAE_clean_linker_10, # of connection points: 2
#     Edge 35, Type (0, 0), BuildingBlock: TEMPAE_clean_linker_10, # of connection points: 2
#     Edge 36, Type (0, 0), BuildingBlock: TEMPAE_clean_linker_10, # of connection points: 2
#     Edge 37, Type (0, 0), BuildingBlock: TEMPAE_clean_linker_10, # of connection points: 2
#     Edge 38, Type (0, 0), BuildingBlock: TEMPAE_clean_linker_10, # of connection points: 2
#     Edge 39, Type (0, 0), BuildingBlock: TEMPAE_clean_linker_10, # of connection points: 2
#     Edge 40, Type (0, 0), BuildingBlock: TEMPAE_clean_linker_10, # of connection points: 2
#     Edge 41, Type (0, 0), BuildingBlock: TEMPAE_clean_linker_10, # of connection points: 2
#     Edge 42, Type (0, 0), BuildingBlock: TEMPAE_clean_linker_10, # of connection points: 2
#     Edge 43, Type (0, 0), BuildingBlock: TEMPAE_clean_linker_10, # of connection points: 2
#     Edge 44, Type (0, 0), BuildingBlock: TEMPAE_clean_linker_10, # of connection points: 2
#     Edge 45, Type (0, 0), BuildingBlock: TEMPAE_clean_linker_10, # of connection points: 2
#     Edge 46, Type (0, 0), BuildingBlock: TEMPAE_clean_linker_10, # of connection points: 2
#     Edge 47, Type (0, 0), BuildingBlock: TEMPAE_clean_linker_10, # of connection points: 2
# Relax obj value: 0.756
# Max RMSD: 0.174
# Mean RMSD: 0.174
data_MOF--net-wkj--node1-BETFAJ_clean_sbu_0--edge1-TEMPAE_clean_linker_10
_symmetry_space_group_name_H-M    P1
_symmetry_Int_Tables_number       1
_symmetry_cell_setting            triclinic
loop_
_symmetry_equiv_pos_as_xyz
'x, y, z'
_cell_length_a     49.556452
_cell_length_b     49.658933
_cell_length_c     30.534803
_cell_angle_alpha  90.089844
_cell_angle_beta   89.978653
_cell_angle_gamma 120.03112
loop_
_atom_site_label
_atom_site_type_symbol
_atom_site_fract_x
_atom_site_fract_y
_atom_site_fract_z
_atom_type_partial_charge
Sm0 Sm 0.47402 0.08056 0.3748 0.0
Sm1 Sm 0.53389 0.10903 0.34865 0.0
C2 C 0.41279 0.04822 0.38745 0.0
C3 C 0.38835 0.02116 0.41059 0.0
C4 C 0.39043 -0.00567 0.41743 0.0
C5 C 0.36761 0.9697 0.44193 0.0
C6 C 0.34263 0.97174 0.46034 0.0
C7 C 0.34004 -0.00186 0.45155 0.0
C8 C 0.36269 0.02258 0.42682 0.0
C9 C 0.49522 0.14216 0.34863 0.0
C10 C 0.52118 0.1055 0.46045 0.0
C11 C 0.59011 0.15709 0.33236 0.0
C12 C 0.60279 0.18498 0.30447 0.0
C13 C 0.58631 0.20093 0.29877 0.0
C14 C 0.59692 0.22567 0.26946 0.0
C15 C 0.62423 0.23493 0.24507 0.0
C16 C 0.64172 0.22015 0.25279 0.0
C17 C 0.63104 0.19533 0.28226 0.0
C18 C 0.52387 0.05454 0.38424 0.0
C19 C 0.48512 0.05713 0.27613 0.0
O20 O 0.42699 0.04283 0.35561 0.0
O21 O 0.43161 0.0721 0.41136 0.0
O22 O 0.49822 0.122 0.32733 0.0
O23 O 0.48247 0.13061 0.38584 0.0
O24 O 0.49228 0.08468 0.44816 0.0
O25 O 0.54122 0.12017 0.42747 0.0
O26 O 0.57234 0.1562 0.36455 0.0
O27 O 0.57915 0.13027 0.31248 0.0
O28 O 0.51041 0.06907 0.39645 0.0
O29 O 0.54089 0.06712 0.34972 0.0
O30 O 0.51306 0.08278 0.27987 0.0
O31 O 0.46701 0.04948 0.31131 0.0
H32 H 0.41004 -0.00726 0.40486 0.0
H33 H 0.37012 0.94956 0.44781 0.0
H34 H 0.3215 0.0008 0.46584 0.0
H35 H 0.3607 0.04311 0.42158 0.0
H36 H 0.56458 0.19355 0.31576 0.0
H37 H 0.58254 0.23607 0.26375 0.0
H38 H 0.66288 0.22682 0.2345 0.0
H39 H 0.64427 0.18355 0.28657 0.0
Sm40 Sm 0.35629 0.45408 0.70139 0.0
Sm41 Sm 0.40562 0.51268 0.68619 0.0
C42 C 0.3113 0.39933 0.72974 0.0
C43 C 0.29454 0.38867 0.77137 0.0
C44 C 0.30922 0.40376 0.81033 0.0
C45 C 0.29395 0.39343 0.85013 0.0
C46 C 0.26355 0.36765 0.852 0.0
C47 C 0.24839 0.35315 0.8127 0.0
C48 C 0.26381 0.36372 0.77254 0.0
C49 C 0.33546 0.48945 0.65807 0.0
C50 C 0.38606 0.50477 0.79009 0.0
C51 C 0.44027 0.57004 0.65585 0.0
C52 C 0.4327 0.59472 0.64884 0.0
C53 C 0.40152 0.58752 0.65099 0.0
C54 C 0.39279 0.60817 0.63433 0.0
C55 C 0.4152 0.63646 0.61537 0.0
C56 C 0.44695 0.64522 0.61879 0.0
C57 C 0.4556 0.62426 0.63487 0.0
C58 C 0.42511 0.47478 0.72446 0.0
C59 C 0.39387 0.46038 0.60637 0.0
O60 O 0.34083 0.40771 0.73064 0.0
O61 O 0.30603 0.41866 0.70778 0.0
O62 O 0.35385 0.49878 0.69095 0.0
O63 O 0.33148 0.46295 0.64464 0.0
O64 O 0.36682 0.47576 0.77563 0.0
O65 O 0.40213 0.52567 0.75962 0.0
O66 O 0.44128 0.56255 0.69641 0.0
O67 O 0.425 0.54572 0.63075 0.0
O68 O 0.40554 0.46691 0.69427 0.0
O69 O 0.4372 0.50413 0.73243 0.0
O70 O 0.4076 0.49045 0.61703 0.0
O71 O 0.37398 0.44029 0.63584 0.0
H72 H 0.33292 0.42294 0.81028 0.0
H73 H 0.30684 0.40465 0.87965 0.0
H74 H 0.22508 0.33315 0.81315 0.0
H75 H 0.25204 0.35203 0.74258 0.0
H76 H 0.38359 0.56486 0.66223 0.0
H77 H 0.36814 0.6004 0.63222 0.0
H78 H 0.46485 0.66713 0.60541 0.0
H79 H 0.47985 0.63032 0.63366 0.0
Sm80 Sm 0.88179 0.37788 1.03434 0.0
Sm81 Sm 0.87743 0.43031 1.01992 0.0
C82 C 0.8876 0.33026 1.06121 0.0
C83 C 0.90178 0.32319 1.09791 0.0
C84 C 0.91666 0.34519 0.13109 0.0
C85 C 0.93322 0.33997 0.16349 0.0
C86 C 0.93469 0.31236 0.16363 0.0
C87 C 0.91888 0.28995 0.1309 0.0
C88 C 0.90261 0.29543 1.09809 0.0
C89 C 0.82693 0.36065 0.98883 0.0
C90 C 0.86607 0.41158 1.12262 0.0
C91 C 0.86094 0.46974 0.98849 0.0
C92 C 0.83007 0.46607 0.98081 0.0
C93 C 0.80403 0.44267 1.00291 0.0
C94 C 0.77448 0.4295 0.98378 0.0
C95 C 0.77102 0.43884 0.94164 0.0
C96 C 0.79621 0.46607 0.92388 0.0
C97 C 0.82561 0.47944 0.94327 0.0
C98 C 0.932 0.44311 1.06184 0.0
C99 C 0.91575 0.41343 0.94076 0.0
O100 O 0.90728 0.3519 1.03502 0.0
O101 O 0.86344 0.33318 1.07022 0.0
O102 O 0.83651 0.37913 1.02158 0.0
O103 O 0.8484 0.35472 0.97707 0.0
O104 O 0.87874 0.39453 1.10909 0.0
O105 O 0.85775 0.42441 1.09138 0.0
O106 O 0.86938 0.47032 1.0291 0.0
O107 O 0.86676 0.45171 0.96395 0.0
O108 O 0.92006 0.42624 1.02914 0.0
O109 O 0.91658 0.457 1.07176 0.0
O110 O 0.9058 0.43265 0.95421 0.0
O111 O 0.90983 0.38967 0.96692 0.0
H112 H 0.9163 0.36682 0.13109 0.0
H113 H 0.94572 0.35807 0.18756 0.0
H114 H 0.9193 0.26836 0.13043 0.0
H115 H 0.8912 0.27831 1.07243 0.0
H116 H 0.80697 0.4321 1.03219 0.0
H117 H 0.75538 0.40927 0.9991 0.0
H118 H 0.79468 0.47442 0.89177 0.0
H119 H 0.84544 0.49759 0.92587 0.0
Sm120 Sm 0.51689 0.89508 0.3675 0.0
Sm121 Sm 0.45744 0.8854 0.35753 0.0
C122 C 0.57313 0.90599 0.39015 0.0
C123 C 0.59458 0.92196 0.4261 0.0
C124 C 0.58374 0.92904 0.46426 0.0
C125 C 0.60475 0.94796 0.49606 0.0
C126 C 0.63696 0.96011 0.49019 0.0
C127 C 0.64765 0.95211 0.45249 0.0
C128 C 0.6265 0.93311 0.42054 0.0
C129 C 0.48126 0.83884 0.3239 0.0
C130 C 0.47031 0.87548 0.45946 0.0
C131 C 0.39925 0.86386 0.33098 0.0
C132 C 0.37221 0.83234 0.3291 0.0
C133 C 0.37664 0.80673 0.33364 0.0
C134 C 0.35368 0.77736 0.31953 0.0
C135 C 0.32584 0.7732 0.30092 0.0
C136 C 0.3197 0.79801 0.30319 0.0
C137 C 0.34303 0.82759 0.31643 0.0
C138 C 0.4961 0.94022 0.40091 0.0
C139 C 0.5093 0.92824 0.27655 0.0
O140 O 0.56831 0.92406 0.36441 0.0
O141 O 0.54751 0.88043 0.4001 0.0
O142 O 0.47208 0.84763 0.35721 0.0
O143 O 0.5072 0.86185 0.31024 0.0
O144 O 0.49955 0.88949 0.44368 0.0
O145 O 0.44776 0.86632 0.42995 0.0
O146 O 0.40898 0.87556 0.36987 0.0
O147 O 0.42206 0.86857 0.3048 0.0
O148 O 0.50227 0.93031 0.36691 0.0
O149 O 0.46693 0.9227 0.41062 0.0
O150 O 0.47992 0.91527 0.29122 0.0
O151 O 0.52932 0.92453 0.30129 0.0
H152 H 0.5592 0.92109 0.46862 0.0
H153 H 0.5958 0.95434 0.52419 0.0
H154 H 0.67231 0.96103 0.44732 0.0
H155 H 0.6351 0.92796 0.39091 0.0
H156 H 0.39896 0.81002 0.34423 0.0
H157 H 0.35942 0.759 0.31856 0.0
H158 H 0.29814 0.79537 0.29032 0.0
H159 H 0.33907 0.84709 0.31355 0.0
Sm160 Sm 0.61367 0.52453 0.71003 0.0
Sm161 Sm 0.56269 0.46962 0.69553 0.0
C162 C 0.65998 0.58251 0.72134 0.0
C163 C 0.6803 0.59886 0.75846 0.0
C164 C 0.68146 0.58176 0.7941 0.0
C165 C 0.6971 0.59694 0.8322 0.0
C166 C 0.71181 0.62954 0.8354 0.0
C167 C 0.71248 0.64672 0.79835 0.0
C168 C 0.69669 0.63141 0.76011 0.0
C169 C 0.63316 0.48375 0.68214 0.0
C170 C 0.58793 0.47653 0.79884 0.0
C171 C 0.52562 0.40864 0.68636 0.0
C172 C 0.52536 0.38516 0.65651 0.0
C173 C 0.53242 0.36298 0.67311 0.0
C174 C 0.54036 0.34592 0.64475 0.0
C175 C 0.54091 0.35049 0.59935 0.0
C176 C 0.53088 0.37052 0.58284 0.0
C177 C 0.52325 0.38773 0.61111 0.0
C178 C 0.54751 0.50956 0.74109 0.0
C179 C 0.57036 0.51664 0.61628 0.0
O180 O 0.63067 0.57417 0.72647 0.0
O181 O 0.66361 0.56047 0.70437 0.0
O182 O 0.61147 0.48685 0.6641 0.0
O183 O 0.64184 0.4998 0.71796 0.0
O184 O 0.60616 0.50618 0.78579 0.0
O185 O 0.57025 0.45687 0.76789 0.0
O186 O 0.54958 0.42135 0.71257 0.0
O187 O 0.51896 0.42901 0.67019 0.0
O188 O 0.57008 0.50557 0.74737 0.0
O189 O 0.53153 0.49192 0.70855 0.0
O190 O 0.55503 0.48704 0.62776 0.0
O191 O 0.59337 0.53592 0.64341 0.0
H192 H 0.66889 0.55656 0.7933 0.0
H193 H 0.69549 0.58287 0.86023 0.0
H194 H 0.72372 0.67184 0.79979 0.0
H195 H 0.69611 0.64488 0.73263 0.0
H196 H 0.534 0.3605 0.70812 0.0
H197 H 0.54777 0.33053 0.65838 0.0
H198 H 0.53145 0.37503 0.54806 0.0
H199 H 0.51789 0.40458 0.59727 0.0
Sm200 Sm 0.08171 0.60527 1.03592 0.0
Sm201 Sm 0.11153 0.57353 1.01195 0.0
C202 C 0.05629 0.63749 1.06569 0.0
C203 C 0.03876 0.64207 1.10076 0.0
C204 C 0.05001 0.67213 1.11746 0.0
C205 C 0.03293 0.67785 0.14865 0.0
C206 C 0.00418 0.65356 0.16348 0.0
C207 C -0.00707 0.6234 0.14664 0.0
C208 C 0.01011 0.61766 1.11559 0.0
C209 C 0.13829 0.64359 0.99147 0.0
C210 C 0.10464 0.57696 1.12244 0.0
C211 C 0.15617 0.56064 0.99197 0.0
C212 C 0.18563 0.5766 0.96769 0.0
C213 C 0.20067 0.56034 0.95487 0.0
C214 C 0.22615 0.57414 0.92634 0.0
C215 C 0.23683 0.60436 0.91027 0.0
C216 C 0.2232 0.62142 0.92618 0.0
C217 C 0.19766 0.60753 0.95442 0.0
C218 C 0.05358 0.52964 1.03984 0.0
C219 C 0.06199 0.57633 0.93699 0.0
O220 O 0.04145 0.61274 1.04098 0.0
O221 O 0.0852 0.64519 1.07374 0.0
O222 O 0.13403 0.62532 1.02254 0.0
O223 O 0.1116 0.63995 0.98017 0.0
O224 O 0.08948 0.59182 1.10992 0.0
O225 O 0.11618 0.56756 1.08991 0.0
O226 O 0.15532 0.57379 1.02846 0.0
O227 O 0.13093 0.5512 0.96872 0.0
O228 O 0.06921 0.55679 1.05472 0.0
O229 O 0.06737 0.52601 1.00617 0.0
O230 O 0.08927 0.57687 0.94182 0.0
O231 O 0.05068 0.5817 0.97322 0.0
H232 H 0.07198 0.6913 1.10611 0.0
H233 H 0.04246 0.70119 0.16157 0.0
H234 H 0.97071 0.60426 0.15723 0.0
H235 H 0.00084 0.59429 1.10292 0.0
H236 H 0.19175 0.53648 0.96508 0.0
H237 H 0.23618 0.56047 0.91456 0.0
H238 H 0.23045 0.64451 0.91386 0.0
H239 H 0.18617 0.6203 0.9639 0.0
Sm240 Sm 0.89223 0.53088 0.54511 0.0
Sm241 Sm 0.88678 0.47557 0.55981 0.0
C242 C 0.90551 0.58962 0.5376 0.0
C243 C 0.90412 0.60931 0.50323 0.0
C244 C 0.9199 0.64167 0.50857 0.0
C245 C 0.92272 0.66081 0.47332 0.0
C246 C 0.9099 0.6477 0.43232 0.0
C247 C 0.89201 0.6151 0.42839 0.0
C248 C 0.88923 0.59607 0.46356 0.0
C249 C 0.83111 0.49056 0.56975 0.0
C250 C 0.87046 0.48362 0.45558 0.0
C251 C 0.86176 0.41488 0.57163 0.0
C252 C 0.83882 0.3942 0.60448 0.0
C253 C 0.80743 0.38662 0.60129 0.0
C254 C 0.78793 0.37566 0.63773 0.0
C255 C 0.79937 0.37176 0.67779 0.0
C256 C 0.82926 0.37501 0.67912 0.0
C257 C 0.84891 0.38629 0.64276 0.0
C258 C 0.94288 0.51525 0.51572 0.0
C259 C 0.92566 0.52203 0.63981 0.0
O260 O 0.92591 0.58067 0.53164 0.0
O261 O 0.87881 0.56719 0.55132 0.0
O262 O 0.85513 0.49318 0.58966 0.0
O263 O 0.83958 0.50658 0.53396 0.0
O264 O 0.88238 0.51331 0.46896 0.0
O265 O 0.86734 0.46355 0.48661 0.0
O266 O 0.85133 0.42716 0.54335 0.0
O267 O 0.88947 0.43511 0.58627 0.0
O268 O 0.9165 0.51144 0.50871 0.0
O269 O 0.94058 0.49728 0.54811 0.0
O270 O 0.90827 0.49223 0.63007 0.0
O271 O 0.92514 0.54179 0.61035 0.0
H272 H 0.93136 0.65213 0.53926 0.0
H273 H 0.93654 0.68581 0.4773 0.0
H274 H 0.88234 0.60416 0.39715 0.0
H275 H 0.87695 0.57106 0.45904 0.0
H276 H 0.79858 0.3917 0.5719 0.0
H277 H 0.765 0.37325 0.63553 0.0
H278 H 0.83838 0.37137 0.70939 0.0
H279 H 0.87274 0.3912 0.64584 0.0
Sm280 Sm 0.38965 0.9011 0.88291 0.0
Sm281 Sm 0.41153 0.86042 0.91038 0.0
C282 C 0.36781 0.93518 0.84795 0.0
C283 C 0.34262 0.92734 0.81647 0.0
C284 C 0.33416 0.90274 0.78698 0.0
C285 C 0.31259 0.89712 0.75399 0.0
C286 C 0.2987 0.91575 0.75016 0.0
C287 C 0.30521 0.93859 0.78235 0.0
C288 C 0.32723 0.94449 0.81511 0.0
C289 C 0.3422 0.84324 0.91448 0.0
C290 C 0.41149 0.87121 0.79981 0.0
C291 C 0.41295 0.81159 0.94299 0.0
C292 C 0.39516 0.78579 0.9733 0.0
C293 C 0.36483 0.7778 0.98581 0.0
C294 C 0.34871 0.75416 1.01632 0.0
C295 C 0.36278 0.73833 1.03497 0.0
C296 C 0.3926 0.74543 1.0207 0.0
C297 C 0.40864 0.76898 0.98998 0.0
C298 C 0.45987 0.91158 0.87577 0.0
C299 C 0.41493 0.91546 0.98375 0.0
O300 O 0.392 0.93438 0.83268 0.0
O301 O 0.35912 0.92204 0.88618 0.0
O302 O 0.36333 0.84752 0.88765 0.0
O303 O 0.34646 0.86996 0.92668 0.0
O304 O 0.40148 0.89048 0.81171 0.0
O305 O 0.41534 0.85481 0.83172 0.0
O306 O 0.39853 0.81091 0.90694 0.0
O307 O 0.42861 0.83948 0.95994 0.0
O308 O 0.43865 0.91197 0.89885 0.0
O309 O 0.45887 0.88505 0.87862 0.0
O310 O 0.41188 0.88698 0.97886 0.0
O311 O 0.41192 0.92867 0.94779 0.0
H312 H 0.34534 0.88876 0.78815 0.0
H313 H 0.30867 0.87962 0.7297 0.0
H314 H 0.29451 0.95298 0.78089 0.0
H315 H 0.33301 0.9631 0.83837 0.0
H316 H 0.35408 0.79054 0.97314 0.0
H317 H 0.32613 0.74978 1.02756 0.0
H318 H 0.40402 0.73375 1.03485 0.0
H319 H 0.43194 0.7747 0.98023 0.0
Sm320 Sm 0.4668 0.36778 0.21575 0.0
Sm321 Sm 0.52717 0.4139 0.23518 0.0
C322 C 0.41084 0.32606 0.1862 0.0
C323 C 0.38904 0.32357 0.15226 0.0
C324 C 0.39868 0.34578 1.11896 0.0
C325 C 0.3769 0.34544 1.08981 0.0
C326 C 0.34518 0.32251 1.09309 0.0
C327 C 0.33594 0.2996 1.12572 0.0
C328 C 0.35773 0.30029 0.15528 0.0
C329 C 0.49601 0.34122 0.26251 0.0
C330 C 0.51804 0.40049 0.12933 0.0
C331 C 0.58477 0.44584 0.26683 0.0
C332 C 0.60259 0.43536 0.29286 0.0
C333 C 0.59082 0.40339 0.29833 0.0
C334 C 0.60512 0.39271 0.32715 0.0
C335 C 0.63134 0.4139 0.35151 0.0
C336 C 0.64456 0.44598 0.34324 0.0
C337 C 0.63016 0.45665 0.31413 0.0
C338 C 0.49254 0.43635 0.19392 0.0
C339 C 0.472 0.40207 0.31174 0.0
O340 O 0.41541 0.34589 0.21729 0.0
O341 O 0.43659 0.32748 0.17307 0.0
O342 O 0.50877 0.3608 0.23153 0.0
O343 O 0.46944 0.33866 0.27149 0.0
O344 O 0.48809 0.38409 0.14198 0.0
O345 O 0.53909 0.41214 0.16098 0.0
O346 O 0.57824 0.43457 0.22731 0.0
O347 O 0.5607 0.44452 0.2863 0.0
O348 O 0.48461 0.41779 0.22498 0.0
O349 O 0.52173 0.44683 0.18543 0.0
O350 O 0.50247 0.41367 0.30385 0.0
O351 O 0.45244 0.38493 0.28 0.0
H352 H 0.42284 0.36399 1.11648 0.0
H353 H 0.38486 0.36383 1.06573 0.0
H354 H 0.31188 0.28125 1.12862 0.0
H355 H 0.35005 0.28298 0.18099 0.0
H356 H 0.5695 0.3867 0.28207 0.0
H357 H 0.59389 0.36792 0.33317 0.0
H358 H 0.66477 0.46283 0.36147 0.0
H359 H 0.63968 0.48143 0.30985 0.0
Sm360 Sm 0.0821 0.46093 0.55068 0.0
Sm361 Sm 0.09087 0.51886 0.56363 0.0
C362 C 0.07337 0.40579 0.52593 0.0
C363 C 0.07134 0.39032 0.48436 0.0
C364 C 0.06756 0.40279 0.44536 0.0
C365 C 0.0649 0.3878 0.40579 0.0
C366 C 0.06603 0.36003 0.40444 0.0
C367 C 0.07063 0.348 0.44357 0.0
C368 C 0.07338 0.36317 0.48335 0.0
C369 C 0.13731 0.49614 0.59647 0.0
C370 C 0.10199 0.51023 0.46049 0.0
C371 C 0.11412 0.57628 0.59402 0.0
C372 C 0.14658 0.60028 0.60206 0.0
C373 C 0.16999 0.59232 0.5997 0.0
C374 C 0.19928 0.61186 0.61784 0.0
C375 C 0.20561 0.63979 0.63847 0.0
C376 C 0.1834 0.64954 0.63518 0.0
C377 C 0.15385 0.62965 0.61767 0.0
C378 C 0.03519 0.48171 0.52097 0.0
C379 C 0.04893 0.46793 0.6435 0.0
O380 O 0.05063 0.4111 0.53446 0.0
O381 O 0.10059 0.42957 0.53483 0.0
O382 O 0.12916 0.5053 0.56256 0.0
O383 O 0.11403 0.47018 0.6099 0.0
O384 O 0.09129 0.48112 0.4754 0.0
O385 O 0.10795 0.53157 0.49075 0.0
O386 O 0.10621 0.56892 0.55321 0.0
O387 O 0.10402 0.55188 0.61915 0.0
O388 O 0.045 0.47316 0.55279 0.0
O389 O 0.053 0.5111 0.51403 0.0
O390 O 0.06186 0.49721 0.62963 0.0
O391 O 0.05258 0.44809 0.61788 0.0
H392 H 0.06589 0.4237 0.4456 0.0
H393 H 0.06047 0.39728 0.3765 0.0
H394 H 0.07146 0.32662 0.44348 0.0
H395 H 0.07656 0.35347 0.51336 0.0
H396 H 0.1648 0.56979 0.58722 0.0
H397 H 0.21557 0.60338 0.61973 0.0
H398 H 0.18782 0.67126 0.64983 0.0
H399 H 0.13612 0.63631 0.61911 0.0
Sm400 Sm 0.61143 0.09804 0.88925 0.0
Sm401 Sm 0.56201 0.10963 0.90424 0.0
C402 C 0.65714 0.08948 0.86143 0.0
C403 C 0.66861 0.08738 0.81826 0.0
C404 C 0.64791 0.07484 0.78299 0.0
C405 C 0.65921 0.07535 0.74117 0.0
C406 C 0.69146 0.08874 0.73373 0.0
C407 C 0.71215 0.10137 0.76919 0.0
C408 C 0.70075 0.10074 0.81124 0.0
C409 C 0.63191 0.15404 0.93359 0.0
C410 C 0.58234 0.11619 0.79957 0.0
C411 C 0.52933 0.13445 0.93554 0.0
C412 C 0.53776 0.16674 0.94441 0.0
C413 C 0.56925 0.18984 0.94478 0.0
C414 C 0.5784 0.21904 0.96247 0.0
C415 C 0.55606 0.22559 0.98021 0.0
C416 C 0.5242 0.20363 0.97433 0.0
C417 C 0.51512 0.17418 0.95703 0.0
C418 C 0.54137 0.05588 0.85884 0.0
C419 C 0.57466 0.06682 0.98247 0.0
O420 O 0.62979 0.06657 0.87296 0.0
O421 O 0.66076 0.11674 0.87053 0.0
O422 O 0.61406 0.14529 0.90029 0.0
O423 O 0.6358 0.13146 0.94671 0.0
O424 O 0.59883 0.10352 0.81455 0.0
O425 O 0.56896 0.12529 0.82947 0.0
O426 O 0.52889 0.12711 0.89451 0.0
O427 O 0.54339 0.1238 0.96024 0.0
O428 O 0.56031 0.06443 0.89042 0.0
O429 O 0.52853 0.07299 0.85587 0.0
O430 O 0.55794 0.07998 0.96976 0.0
O431 O 0.59709 0.06956 0.95574 0.0
H432 H 0.62303 0.06478 0.78766 0.0
H433 H 0.64252 0.0646 0.71481 0.0
H434 H 0.73705 0.11175 0.7644 0.0
H435 H 0.71701 0.111 0.83819 0.0
H436 H 0.58689 0.18437 0.93473 0.0
H437 H 0.60312 0.23504 0.96651 0.0
H438 H 0.50639 0.20815 0.98683 0.0
H439 H 0.49063 0.15668 0.95623 0.0
Sm440 Sm 0.49872 0.59756 0.21453 0.0
Sm441 Sm 0.43627 0.56607 0.24196 0.0
C442 C 0.55954 0.62366 0.20093 0.0
C443 C 0.58369 0.62523 0.17146 0.0
C444 C 0.58434 0.59844 0.15845 0.0
C445 C 0.60793 0.60095 0.13077 0.0
C446 C 0.63107 0.63024 1.11544 0.0
C447 C 0.63058 0.65698 0.1293 0.0
C448 C 0.60716 0.65447 0.15718 0.0
C449 C 0.47739 0.63812 0.23901 0.0
C450 C 0.4495 0.57122 1.12874 0.0
C451 C 0.38048 0.55946 0.25599 0.0
C452 C 0.36764 0.57415 0.28464 0.0
C453 C 0.33746 0.55662 0.30165 0.0
C454 C 0.32642 0.56986 0.33219 0.0
C455 C 0.34551 0.60082 0.3462 0.0
C456 C 0.37493 0.61885 0.32665 0.0
C457 C 0.38588 0.60559 0.29631 0.0
C458 C 0.44968 0.52288 0.21013 0.0
C459 C 0.48651 0.5685 0.31825 0.0
O460 O 0.5434 0.59826 0.22371 0.0
O461 O 0.54291 0.63557 0.18682 0.0
O462 O 0.47371 0.61477 0.26051 0.0
O463 O 0.49139 0.6397 0.20261 0.0
O464 O 0.479 0.58142 0.14122 0.0
O465 O 0.42926 0.56598 0.16174 0.0
O466 O 0.39974 0.5775 0.22579 0.0
O467 O 0.38989 0.54196 0.27502 0.0
O468 O 0.4608 0.55027 0.19673 0.0
O469 O 0.43076 0.51747 0.24282 0.0
O470 O 0.45792 0.56456 0.31246 0.0
O471 O 0.50529 0.5783 0.28352 0.0
H472 H 0.56659 0.5756 0.16936 0.0
H473 H 0.60785 0.57995 1.12095 0.0
H474 H 0.64768 0.67981 1.11748 0.0
H475 H 0.60715 0.67542 0.16718 0.0
H476 H 0.3229 0.5324 0.29261 0.0
H477 H 0.30363 0.55543 0.34662 0.0
H478 H 0.39053 0.64255 0.33719 0.0
H479 H 0.40915 0.61958 0.28333 0.0
C480 C 0.50998 0.19791 0.36281 0.0
C481 C 0.50184 0.17357 0.3327 0.0
C482 C 0.51415 0.22708 0.34976 0.0
C483 C 0.50883 0.2321 0.30561 0.0
C484 C 0.50159 0.20789 0.27474 0.0
C485 C 0.49867 0.17924 0.28846 0.0
C486 C 0.5233 0.2523 0.38374 0.0
C487 C 0.49479 0.2113 0.22762 0.0
C488 C 0.47592 0.28689 0.29058 0.0
C489 C 0.50101 0.31422 0.27295 0.0
C490 C 0.47815 0.2603 0.30005 0.0
C491 C 0.5066 0.26064 0.29346 0.0
C492 C 0.53239 0.28827 0.27642 0.0
C493 C 0.52914 0.31442 0.26552 0.0
C494 C 0.44968 0.23161 0.31717 0.0
C495 C 0.56345 0.29022 0.2698 0.0
H496 H 0.51297 0.19405 0.39697 0.0
H497 H 0.49236 0.1607 0.26484 0.0
H498 H 0.54245 0.27474 0.37118 0.0
H499 H 0.50318 0.25559 0.39085 0.0
H500 H 0.53098 0.24666 0.41487 0.0
H501 H 0.4969 0.19441 0.20605 0.0
H502 H 0.47061 0.20699 0.22511 0.0
H503 H 0.51062 0.23517 0.21551 0.0
H504 H 0.45388 0.28591 0.29645 0.0
H505 H 0.54868 0.33502 0.25169 0.0
H506 H 0.45418 0.22638 0.35079 0.0
H507 H 0.44447 0.21124 0.29631 0.0
H508 H 0.42875 0.23431 0.31804 0.0
H509 H 0.57049 0.28283 0.29994 0.0
H510 H 0.58205 0.31411 0.26115 0.0
H511 H 0.56148 0.27409 0.24321 0.0
C512 C 0.30868 0.52188 0.66988 0.0
C513 C 0.31167 0.49899 0.64669 0.0
C514 C 0.28353 0.52737 0.66164 0.0
C515 C 0.26028 0.50925 0.62997 0.0
C516 C 0.26413 0.48716 0.60532 0.0
C517 C 0.28957 0.48255 0.61368 0.0
C518 C 0.28128 0.55183 0.68807 0.0
C519 C 0.24039 0.46709 0.57131 0.0
C520 C 0.17467 0.48791 0.64266 0.0
C521 C 0.17019 0.50423 0.60837 0.0
C522 C 0.20394 0.49059 0.65122 0.0
C523 C 0.23028 0.51052 0.62541 0.0
C524 C 0.22649 0.52871 0.59251 0.0
C525 C 0.1966 0.5252 0.58415 0.0
C526 C 0.20622 0.47064 0.68665 0.0
C527 C 0.25383 0.55111 0.56503 0.0
H528 H 0.32546 0.53493 0.69532 0.0
H529 H 0.29148 0.46497 0.59508 0.0
H530 H 0.27427 0.56548 0.667 0.0
H531 H 0.26315 0.54039 0.71367 0.0
H532 H 0.30369 0.56802 0.70441 0.0
H533 H 0.24745 0.45221 0.55314 0.0
H534 H 0.21765 0.45182 0.58742 0.0
H535 H 0.23679 0.48181 0.54745 0.0
H536 H 0.15476 0.47183 0.66208 0.0
H537 H 0.19379 0.53815 0.55775 0.0
H538 H 0.2254 0.48522 0.70961 0.0
H539 H 0.21173 0.45357 0.67171 0.0
H540 H 0.18425 0.45772 0.70564 0.0
H541 H 0.27446 0.56524 0.58607 0.0
H542 H 0.24862 0.56699 0.54593 0.0
H543 H 0.26012 0.53792 0.54183 0.0
C544 C 0.78767 0.31745 0.94164 0.0
C545 C 0.79357 0.33666 0.97854 0.0
C546 C 0.75861 0.29027 0.93477 0.0
C547 C 0.734 0.28166 0.96517 0.0
C548 C 0.73898 0.30216 1.00087 0.0
C549 C 0.76863 0.32923 1.00731 0.0
C550 C 0.75475 0.27 0.89568 0.0
C551 C 0.7134 0.2948 1.03348 0.0
C552 C 0.65538 0.21286 0.92566 0.0
C553 C 0.65539 0.18726 0.94517 0.0
C554 C 0.67926 0.24383 0.93452 0.0
C555 C 0.70495 0.24965 0.96182 0.0
C556 C 0.70445 0.22384 0.98253 0.0
C557 C 0.67971 0.19336 0.97453 0.0
C558 C 0.67717 0.27005 0.91329 0.0
C559 C 0.73093 0.22823 1.01176 0.0
H560 H 0.80647 0.32294 0.91878 0.0
H561 H 0.77264 0.34365 1.03598 0.0
H562 H 0.75063 0.24701 0.90696 0.0
H563 H 0.73413 0.26593 0.87626 0.0
H564 H 0.77551 0.28049 0.87395 0.0
H565 H 0.71766 0.31578 1.05218 0.0
H566 H 0.69053 0.28484 1.01672 0.0
H567 H 0.71206 0.2772 1.05706 0.0
H568 H 0.63703 0.20877 0.90273 0.0
H569 H 0.68017 0.17402 0.99017 0.0
H570 H 0.69007 0.27598 0.88187 0.0
H571 H 0.68736 0.29102 0.93449 0.0
H572 H 0.6526 0.26322 0.90594 0.0
H573 H 0.75273 0.23779 0.99232 0.0
H574 H 0.72651 0.20612 1.02713 0.0
H575 H 0.73483 0.24523 1.03806 0.0
C576 C 0.47042 0.66951 0.2997 0.0
C577 C 0.47132 0.66337 0.25491 0.0
C578 C 0.46769 0.69527 0.31405 0.0
C579 C 0.46526 0.71536 0.28309 0.0
C580 C 0.4643 0.70801 0.23793 0.0
C581 C 0.46777 0.68262 0.22452 0.0
C582 C 0.46899 0.70189 0.36242 0.0
C583 C 0.46073 0.72775 0.20345 0.0
C584 C 0.44605 0.77933 0.31771 0.0
C585 C 0.47567 0.80628 0.31658 0.0
C586 C 0.44203 0.7495 0.30745 0.0
C587 C 0.46831 0.74623 0.29693 0.0
C588 C 0.4982 0.7733 0.29736 0.0
C589 C 0.5014 0.80258 0.3066 0.0
C590 C 0.40962 0.72156 0.30735 0.0
C591 C 0.52713 0.77152 0.28725 0.0
H592 H 0.47302 0.65484 0.32358 0.0
H593 H 0.46802 0.67799 0.18986 0.0
H594 H 0.49131 0.72326 0.37026 0.0
H595 H 0.44988 0.70621 0.37185 0.0
H596 H 0.46728 0.68245 0.38248 0.0
H597 H 0.45637 0.71693 0.17043 0.0
H598 H 0.44119 0.73168 0.21198 0.0
H599 H 0.48226 0.75085 0.20203 0.0
H600 H 0.42595 0.78161 0.32533 0.0
H601 H 0.52454 0.82288 0.30604 0.0
H602 H 0.40728 0.70584 0.33467 0.0
H603 H 0.40531 0.70819 0.27647 0.0
H604 H 0.39138 0.72817 0.3111 0.0
H605 H 0.52824 0.75408 0.30869 0.0
H606 H 0.54885 0.79423 0.29177 0.0
H607 H 0.52627 0.76387 0.25288 0.0
C608 C 0.65841 0.45155 0.66233 0.0
C609 C 0.65731 0.47921 0.65821 0.0
C610 C 0.68488 0.44957 0.64873 0.0
C611 C 0.71176 0.47618 0.63165 0.0
C612 C 0.71044 0.50401 0.62698 0.0
C613 C 0.68355 0.50514 0.64014 0.0
C614 C 0.68438 0.41917 0.65448 0.0
C615 C 0.73805 0.53316 0.60933 0.0
C616 C 0.79461 0.48551 0.63311 0.0
C617 C 0.79932 0.4812 0.58878 0.0
C618 C 0.76601 0.48277 0.6479 0.0
C619 C 0.74107 0.47527 0.61801 0.0
C620 C 0.74521 0.46903 0.57389 0.0
C621 C 0.77404 0.4724 0.55994 0.0
C622 C 0.76297 0.48928 0.69532 0.0
C623 C 0.71938 0.45967 0.54082 0.0
H624 H 0.6389 0.4316 0.67759 0.0
H625 H 0.68358 0.52695 0.63809 0.0
H626 H 0.69592 0.4146 0.62662 0.0
H627 H 0.69732 0.4203 0.68472 0.0
H628 H 0.66019 0.39932 0.65759 0.0
H629 H 0.73365 0.55298 0.60773 0.0
H630 H 0.7587 0.53988 0.63042 0.0
H631 H 0.74392 0.52878 0.57599 0.0
H632 H 0.81381 0.49265 0.65583 0.0
H633 H 0.77712 0.46894 0.52564 0.0
H634 H 0.74125 0.46995 0.70937 0.0
H635 H 0.76131 0.5107 0.69781 0.0
H636 H 0.78308 0.4924 0.71528 0.0
H637 H 0.69752 0.43963 0.55332 0.0
H638 H 0.72508 0.45319 0.50871 0.0
H639 H 0.71482 0.47915 0.53568 0.0
C640 C 0.30721 0.78453 0.90542 0.0
C641 C 0.31378 0.81255 0.92592 0.0
C642 C 0.27968 0.75603 0.91513 0.0
C643 C 0.2581 0.75509 0.94672 0.0
C644 C 0.26512 0.78326 0.96819 0.0
C645 C 0.29251 0.81139 0.95745 0.0
C646 C 0.27382 0.72694 0.89143 0.0
C647 C 0.24345 0.78378 1.00248 0.0
C648 C 0.17137 0.69107 0.94458 0.0
C649 C 0.16934 0.67101 0.97848 0.0
C650 C 0.20001 0.71777 0.93329 0.0
C651 C 0.22776 0.72519 0.9565 0.0
C652 C 0.22596 0.70461 0.99017 0.0
C653 C 0.19699 0.67798 1.00069 0.0
C654 C 0.20054 0.73829 0.89654 0.0
C655 C 0.25465 0.71092 1.01553 0.0
H656 H 0.32344 0.78489 0.8813 0.0
H657 H 0.29726 0.83269 0.97386 0.0
H658 H 0.27922 0.71258 0.91358 0.0
H659 H 0.24902 0.71272 0.88156 0.0
H660 H 0.28862 0.73245 0.8618 0.0
H661 H 0.25255 0.80718 1.01735 0.0
H662 H 0.22036 0.77651 0.98766 0.0
H663 H 0.23978 0.76693 1.02887 0.0
H664 H 0.15038 0.68601 0.92692 0.0
H665 H 0.19593 0.66273 1.02683 0.0
H666 H 0.21789 0.74081 0.87149 0.0
H667 H 0.20783 0.76189 0.90933 0.0
H668 H 0.17744 0.72892 0.88047 0.0
H669 H 0.27246 0.71165 0.99278 0.0
H670 H 0.24956 0.69293 1.04078 0.0
H671 H 0.26493 0.73397 1.03182 0.0
C672 C 0.55075 0.24121 1.0553 0.0
C673 C 0.56616 0.24985 1.01485 0.0
C674 C 0.56686 0.25451 1.09416 0.0
C675 C 0.59888 0.27744 1.09212 0.0
C676 C 0.612 0.29127 1.05134 0.0
C677 C 0.59552 0.27701 1.01276 0.0
C678 C 0.55105 0.23987 0.13699 0.0
C679 C 0.6448 0.31822 1.0477 0.0
C680 C 0.62555 0.28055 0.20722 0.0
C681 C 0.6303 0.25494 0.20606 0.0
C682 C 0.62065 0.29261 0.16831 0.0
C683 C 0.61917 0.27773 1.12816 0.0
C684 C 0.62899 0.25536 1.12647 0.0
C685 C 0.6346 0.24437 0.16555 0.0
C686 C 0.61423 0.31922 0.17059 0.0
C687 C 0.62916 0.23957 1.08416 0.0
H688 H 0.5277 0.2209 1.05751 0.0
H689 H 0.60705 0.28497 0.98138 0.0
H690 H 0.56078 0.22572 0.15035 0.0
H691 H 0.55515 0.25802 0.16139 0.0
H692 H 0.52548 0.22451 0.13306 0.0
H693 H 0.64521 0.33608 1.02544 0.0
H694 H 0.65463 0.32913 1.0799 0.0
H695 H 0.65995 0.31018 1.0328 0.0
H696 H 0.62346 0.28969 0.23852 0.0
H697 H 0.63873 0.22491 0.1643 0.0
H698 H 0.58888 0.31011 0.17448 0.0
H699 H 0.6219 0.33331 0.14017 0.0
H700 H 0.62625 0.33449 0.19911 0.0
H701 H 0.60483 0.22399 1.07305 0.0
H702 H 0.64068 0.22542 1.08788 0.0
H703 H 0.64145 0.25698 1.05815 0.0
C704 C 0.33038 0.59324 0.42444 0.0
C705 C 0.33854 0.61218 0.38723 0.0
C706 C 0.33648 0.6063 0.4664 0.0
C707 C 0.3507 0.63906 0.47096 0.0
C708 C 0.35267 0.65716 0.43405 0.0
C709 C 0.34712 0.64359 0.39221 0.0
C710 C 0.33247 0.58551 0.5049 0.0
C711 C 0.36415 0.69148 0.43781 0.0
C712 C 0.37665 0.65155 0.58775 0.0
C713 C 0.40481 0.65148 0.58253 0.0
C714 C 0.36033 0.6531 0.55108 0.0
C715 C 0.37217 0.65367 0.50869 0.0
C716 C 0.40305 0.65928 0.50413 0.0
C717 C 0.41907 0.65839 0.54123 0.0
C718 C 0.3291 0.65077 0.55793 0.0
C719 C 0.41758 0.6615 0.45973 0.0
H720 H 0.32313 0.56882 0.42096 0.0
H721 H 0.35218 0.65815 0.36347 0.0
H722 H 0.35566 0.59026 0.51658 0.0
H723 H 0.3208 0.5902 0.53233 0.0
H724 H 0.31843 0.56043 0.49635 0.0
H725 H 0.34957 0.69762 0.41714 0.0
H726 H 0.3636 0.69864 0.47212 0.0
H727 H 0.38834 0.70494 0.42516 0.0
H728 H 0.36604 0.64765 0.6199 0.0
H729 H 0.44106 0.65903 0.53667 0.0
H730 H 0.31193 0.62704 0.56934 0.0
H731 H 0.3202 0.65601 0.52766 0.0
H732 H 0.33097 0.66717 0.58411 0.0
H733 H 0.44222 0.66709 0.4622 0.0
H734 H 0.41699 0.67981 0.43986 0.0
H735 H 0.40426 0.6391 0.44191 0.0
C736 C 0.74331 0.38548 0.91076 0.0
C737 C 0.74754 0.41568 0.91078 0.0
C738 C 0.73933 0.36957 0.87129 0.0
C739 C 0.73876 0.38393 0.83173 0.0
C740 C 0.73493 0.4103 0.83306 0.0
C741 C 0.73913 0.42592 0.87306 0.0
C742 C 0.74252 0.34095 0.87132 0.0
C743 C 0.73241 0.42531 0.79155 0.0
C744 C 0.80072 0.39177 0.75254 0.0
C745 C 0.78324 0.37118 0.71895 0.0
C746 C 0.78631 0.39587 0.78914 0.0
C747 C 0.75334 0.37877 0.79257 0.0
C748 C 0.73545 0.35711 0.75954 0.0
C749 C 0.75064 0.35378 0.72275 0.0
C750 C 0.8066 0.41924 0.82359 0.0
C751 C 0.70037 0.33823 0.76205 0.0
H752 H 0.74843 0.3764 0.93988 0.0
H753 H 0.74059 0.44844 0.87328 0.0
H754 H 0.72783 0.32438 0.84545 0.0
H755 H 0.76714 0.34773 0.86462 0.0
H756 H 0.73612 0.32928 0.90362 0.0
H757 H 0.72252 0.44067 0.79799 0.0
H758 H 0.756 0.43969 0.77724 0.0
H759 H 0.7177 0.40747 0.76701 0.0
H760 H 0.82581 0.40593 0.74932 0.0
H761 H 0.73701 0.33795 0.69668 0.0
H762 H 0.80301 0.40764 0.85581 0.0
H763 H 0.80023 0.4376 0.82707 0.0
H764 H 0.83182 0.43066 0.81553 0.0
H765 H 0.69218 0.33166 0.79627 0.0
H766 H 0.69105 0.31675 0.74191 0.0
H767 H 0.69045 0.35233 0.74921 0.0
C768 C 0.36758 0.72912 1.11329 0.0
C769 C 0.34929 0.72002 1.07533 0.0
C770 C 0.35364 0.72198 0.15465 0.0
C771 C 0.32064 0.70486 0.15768 0.0
C772 C 0.30286 0.69003 1.11988 0.0
C773 C 0.31727 0.69864 1.07862 0.0
C774 C 0.37406 0.73671 0.19437 0.0
C775 C 0.26827 0.66778 1.12276 0.0
C776 C 0.30737 0.71872 0.27384 0.0
C777 C 0.3092 0.7477 0.26847 0.0
C778 C 0.30538 0.70062 0.23721 0.0
C779 C 0.30605 0.71234 0.19475 0.0
C780 C 0.30204 0.73855 0.18988 0.0
C781 C 0.30318 0.75558 0.22697 0.0
C782 C 0.30611 0.67096 0.24434 0.0
C783 C 0.30184 0.75192 0.1454 0.0
H784 H 0.39246 0.74507 1.11084 0.0
H785 H 0.30321 0.69048 1.04916 0.0
H786 H 0.36912 0.7543 0.20892 0.0
H787 H 0.36911 0.71879 0.21954 0.0
H788 H 0.39929 0.74834 0.18632 0.0
H789 H 0.26012 0.65112 1.09491 0.0
H790 H 0.26224 0.65466 0.15405 0.0
H791 H 0.25549 0.68077 1.12151 0.0
H792 H 0.31052 0.71161 0.3061 0.0
H793 H 0.3038 0.7775 0.22225 0.0
H794 H 0.32883 0.6764 0.25883 0.0
H795 H 0.30227 0.6575 0.21365 0.0
H796 H 0.28784 0.65615 0.26837 0.0
H797 H 0.32457 0.76009 0.12883 0.0
H798 H 0.29766 0.77188 0.14766 0.0
H799 H 0.28342 0.73401 1.12432 0.0
C800 C 0.63676 0.37346 0.39351 0.0
C801 C 0.63884 0.40272 0.39219 0.0
C802 C 0.6292 0.35647 0.43273 0.0
C803 C 0.62272 0.36883 0.47044 0.0
C804 C 0.6308 0.40061 0.47087 0.0
C805 C 0.63918 0.41728 0.43163 0.0
C806 C 0.62468 0.32412 0.43201 0.0
C807 C 0.62567 0.41568 0.51069 0.0
C808 C 0.54643 0.33165 0.52628 0.0
C809 C 0.55706 0.3396 0.5694 0.0
C810 C 0.56732 0.33618 0.49247 0.0
C811 C 0.5992 0.34782 0.50276 0.0
C812 C 0.60798 0.34822 0.54688 0.0
C813 C 0.58692 0.34487 0.5801 0.0
C814 C 0.55612 0.33335 0.44576 0.0
C815 C 0.64062 0.3562 0.5591 0.0
H816 H 0.63787 0.36256 0.36328 0.0
H817 H 0.64152 0.44018 0.43112 0.0
H818 H 0.62157 0.31404 0.46531 0.0
H819 H 0.6041 0.30868 0.41163 0.0
H820 H 0.64519 0.32465 0.4164 0.0
H821 H 0.63457 0.44092 0.50587 0.0
H822 H 0.60039 0.40429 0.51817 0.0
H823 H 0.63757 0.41303 0.53963 0.0
H824 H 0.5228 0.32587 0.51834 0.0
H825 H 0.59514 0.34989 0.61364 0.0
H826 H 0.56368 0.31956 0.4261 0.0
H827 H 0.56634 0.3568 0.43078 0.0
H828 H 0.53032 0.32196 0.44358 0.0
H829 H 0.6401 0.34229 0.58787 0.0
H830 H 0.65438 0.38104 0.5686 0.0
H831 H 0.65261 0.3519 0.53154 0.0
C832 C 0.24581 0.5953 0.83335 0.0
C833 C 0.25587 0.61512 0.86982 0.0
C834 C 0.25317 0.60743 0.79094 0.0
C835 C 0.27142 0.64007 0.78527 0.0
C836 C 0.28722 0.65904 0.82172 0.0
C837 C 0.27854 0.64653 0.86407 0.0
C838 C 0.23712 0.58579 0.75282 0.0
C839 C 0.31054 0.69308 0.81582 0.0
C840 C 0.25834 0.6527 0.6678 0.0
C841 C 0.23038 0.6532 0.67257 0.0
C842 C 0.27561 0.65337 0.70475 0.0
C843 C 0.26407 0.65378 0.74702 0.0
C844 C 0.23874 0.65935 0.75137 0.0
C845 C 0.22248 0.6593 0.71402 0.0
C846 C 0.30432 0.6507 0.69806 0.0
C847 C 0.22578 0.66089 0.79563 0.0
H848 H 0.22882 0.57087 0.83754 0.0
H849 H 0.2874 0.66173 0.89237 0.0
H850 H 0.21852 0.58981 0.7398 0.0
H851 H 0.25395 0.59036 0.72607 0.0
H852 H 0.22638 0.56092 0.76231 0.0
H853 H 0.32207 0.70441 0.84714 0.0
H854 H 0.32855 0.69572 0.79185 0.0
H855 H 0.29901 0.70542 0.80204 0.0
H856 H 0.2654 0.64926 0.63563 0.0
H857 H 0.20121 0.66014 0.71828 0.0
H858 H 0.2976 0.62746 0.68433 0.0
H859 H 0.31766 0.65427 0.7288 0.0
H860 H 0.31978 0.66815 0.67358 0.0
H861 H 0.20681 0.66656 0.79302 0.0
H862 H 0.2444 0.67884 0.81644 0.0
H863 H 0.21634 0.63819 0.81262 0.0
C864 C 0.42755 0.92369 1.06947 0.0
C865 C 0.42181 0.93378 1.02878 0.0
C866 C 0.43612 0.94237 1.10929 0.0
C867 C 0.43873 0.97273 1.11095 0.0
C868 C 0.4299 0.98132 1.07074 0.0
C869 C 0.42278 0.96284 1.03135 0.0
C870 C 0.44354 0.92927 0.14908 0.0
C871 C 0.42648 0.00979 1.06825 0.0
C872 C 0.44607 0.00639 0.23298 0.0
C873 C 0.47341 0.0362 0.2333 0.0
C874 C 0.4344 0.98659 0.19468 0.0
C875 C 0.45048 -0.00499 0.15328 0.0
C876 C 0.47771 0.02577 0.15313 0.0
C877 C 0.48824 0.04539 0.19185 0.0
C878 C 0.40351 0.95703 0.19951 0.0
C879 C 0.49588 0.03946 1.11154 0.0
H880 H 0.42652 0.90138 1.07013 0.0
H881 H 0.41744 0.97146 1.00194 0.0
H882 H 0.45986 0.94772 0.17178 0.0
H883 H 0.42159 0.91372 0.16672 0.0
H884 H 0.4539 0.9148 0.1395 0.0
H885 H 0.40403 0.00375 1.05222 0.0
H886 H 0.42709 0.02007 1.10073 0.0
H887 H 0.44521 0.02746 1.04717 0.0
H888 H 0.43303 -0.00175 0.26325 0.0
H889 H 0.5087 0.06831 0.18942 0.0
H890 H 0.40679 0.94022 0.21944 0.0
H891 H 0.39273 0.94621 0.1677 0.0
H892 H 0.38692 0.9618 0.2177 0.0
H893 H 0.49252 0.02151 1.08726 0.0
H894 H 0.52113 0.05438 1.11809 0.0
H895 H 0.48823 0.05494 1.0968 0.0
C896 C 0.4795 0.42826 0.38935 0.0
C897 C 0.45956 0.40916 0.35539 0.0
C898 C 0.46832 0.43516 0.42919 0.0
C899 C 0.43575 0.42347 0.43734 0.0
C900 C 0.41549 0.40374 0.40337 0.0
C901 C 0.42731 0.39717 0.36383 0.0
C902 C 0.4922 0.45632 0.4619 0.0
C903 C 0.38073 0.3891 0.40873 0.0
C904 C 0.40785 0.42401 0.56024 0.0
C905 C 0.40247 0.44953 0.56243 0.0
C906 C 0.41801 0.41533 0.52086 0.0
C907 C 0.42316 0.43185 0.48034 0.0
C908 C 0.41627 0.45669 0.48185 0.0
C909 C 0.40662 0.4652 0.5219 0.0
C910 C 0.42334 0.38804 0.52278 0.0
C911 C 0.42004 0.47537 0.44109 0.0
H912 H 0.50438 0.43826 0.38479 0.0
H913 H 0.41084 0.38234 0.33915 0.0
H914 H 0.49646 0.48009 0.45617 0.0
H915 H 0.484 0.44965 0.49604 0.0
H916 H 0.51468 0.45672 0.45796 0.0
H917 H 0.37352 0.37896 0.44197 0.0
H918 H 0.374 0.40717 0.40505 0.0
H919 H 0.36771 0.37059 0.38404 0.0
H920 H 0.40486 0.41101 0.59005 0.0
H921 H 0.40258 0.48471 0.5214 0.0
H922 H 0.44841 0.39615 0.51757 0.0
H923 H 0.41018 0.37132 0.49614 0.0
H924 H 0.41613 0.37571 0.55468 0.0
H925 H 0.42082 0.49764 0.44868 0.0
H926 H 0.40006 0.46169 0.41885 0.0
H927 H 0.44166 0.4806 0.42324 0.0
C928 C -0.00223 0.45055 0.68886 0.0
C929 C 0.02916 0.45742 0.687 0.0
C930 C 0.97944 0.44184 0.72863 0.0
C931 C -0.00789 0.44017 0.77041 0.0
C932 C 0.02376 0.44637 0.76822 0.0
C933 C 0.0414 0.45491 0.72778 0.0
C934 C 0.94601 0.43404 0.72411 0.0
C935 C 0.03981 0.4438 0.80858 0.0
C936 C 0.96155 0.44902 0.88817 0.0
C937 C 0.9353 0.41971 0.8975 0.0
C938 C 0.98043 0.45533 0.84937 0.0
C939 C 0.97296 0.43258 0.8153 0.0
C940 C 0.94679 0.40248 0.82537 0.0
C941 C 0.92892 0.39656 0.86537 0.0
C942 C 0.00893 0.48698 0.84636 0.0
C943 C 0.93738 0.37566 0.79425 0.0
H944 H 0.98706 0.45182 0.65857 0.0
H945 H 0.0653 0.45979 0.72838 0.0
H946 H 0.93291 0.41193 0.70556 0.0
H947 H 0.93411 0.43142 0.75581 0.0
H948 H 0.94482 0.45226 0.70459 0.0
H949 H 0.05446 0.43339 0.80026 0.0
H950 H 0.05564 0.46748 0.82158 0.0
H951 H 0.02319 0.42958 0.83466 0.0
H952 H 0.96811 0.46734 0.91223 0.0
H953 H 0.90937 0.37345 0.8711 0.0
H954 H 0.01743 0.49351 0.81237 0.0
H955 H 0.02776 0.48738 0.86648 0.0
H956 H 0.00386 0.50458 0.86036 0.0
H957 H 0.91917 0.37429 0.77173 0.0
H958 H 0.92723 0.35326 0.81226 0.0
H959 H 0.95734 0.37831 0.77441 0.0
C960 C 0.52697 0.9381 0.1937 0.0
C961 C 0.52037 0.9485 0.23344 0.0
C962 C 0.53804 0.95692 0.15437 0.0
C963 C 0.54284 0.98807 0.15205 0.0
C964 C 0.5381 -0.00084 0.19353 0.0
C965 C 0.52663 0.97959 0.23202 0.0
C966 C 0.54582 0.94293 1.11598 0.0
C967 C 0.54735 0.03271 0.19989 0.0
C968 C 0.58791 0.0557 1.06205 0.0
C969 C 0.56714 0.04724 1.02593 0.0
C970 C 0.58115 0.03712 1.10155 0.0
C971 C 0.55226 0.00827 1.10759 0.0
C972 C 0.5326 -0.00106 1.06923 0.0
C973 C 0.53968 0.01825 1.03079 0.0
C974 C 0.60657 0.04844 0.1355 0.0
C975 C 0.50392 0.96767 1.06634 0.0
H976 H 0.5237 0.91483 0.19314 0.0
H977 H 0.52342 0.9893 0.26207 0.0
H978 H 0.52388 0.92442 1.10112 0.0
H979 H 0.55985 0.96029 1.09059 0.0
H980 H 0.55902 0.9316 1.12733 0.0
H981 H 0.57146 0.04536 0.213 0.0
H982 H 0.54682 0.04406 0.16917 0.0
H983 H 0.5325 0.03517 0.2249 0.0
H984 H 0.61002 0.07718 1.05958 0.0
H985 H 0.52359 0.0099 1.0034 0.0
H986 H 0.60264 0.03045 0.16012 0.0
H987 H 0.60839 0.06912 0.15229 0.0
H988 H 0.62938 0.0561 1.11941 0.0
H989 H 0.48551 0.96965 1.04867 0.0
H990 H 0.49551 0.95718 1.09878 0.0
H991 H 0.50909 0.95201 1.04662 0.0
C992 C 0.57994 0.54964 0.5429 0.0
C993 C 0.55966 0.52762 0.57425 0.0
C994 C 0.56904 0.55768 0.50337 0.0
C995 C 0.53636 0.54402 0.49268 0.0
C996 C 0.51617 0.52327 0.52612 0.0
C997 C 0.52769 0.51505 0.56433 0.0
C998 C 0.59341 0.58161 0.47352 0.0
C999 C 0.48157 0.50927 0.52327 0.0
C1000 C 0.49225 0.57002 0.40523 0.0
C1001 C 0.49833 0.56177 0.36327 0.0
C1002 C 0.505 0.56579 0.44591 0.0
C1003 C 0.52359 0.55079 0.4477 0.0
C1004 C 0.52915 0.54186 0.40512 0.0
C1005 C 0.51755 0.54805 0.36492 0.0
C1006 C 0.49861 0.57859 0.4869 0.0
C1007 C 0.54739 0.52518 0.40038 0.0
H1008 H 0.60479 0.56044 0.54866 0.0
H1009 H 0.51097 0.49865 0.58749 0.0
H1010 H 0.60284 0.57011 0.45227 0.0
H1011 H 0.58398 0.59317 0.45248 0.0
H1012 H 0.61321 0.59969 0.49284 0.0
H1013 H 0.47427 0.5224 0.54501 0.0
H1014 H 0.47369 0.50965 0.48961 0.0
H1015 H 0.4699 0.48499 0.53541 0.0
H1016 H 0.47819 0.58111 0.40646 0.0
H1017 H 0.52324 0.54124 0.33408 0.0
H1018 H 0.51434 0.58103 0.51434 0.0
H1019 H 0.47408 0.56302 0.49707 0.0
H1020 H 0.50118 0.60175 0.48025 0.0
H1021 H 0.57046 0.54132 0.38579 0.0
H1022 H 0.53523 0.50528 0.37738 0.0
H1023 H 0.551 0.51626 0.43175 0.0
C1024 C 0.05378 0.56519 0.85073 0.0
C1025 C 0.04363 0.57044 0.89188 0.0
C1026 C 0.03594 0.55894 0.81031 0.0
C1027 C 0.00646 0.5581 0.80847 0.0
C1028 C -0.00307 0.56475 0.84954 0.0
C1029 C 0.0148 0.57022 0.88943 0.0
C1030 C 0.04873 0.55246 0.76938 0.0
C1031 C 0.96743 0.56645 0.85159 0.0
C1032 C 0.97124 0.56301 0.69163 0.0
C1033 C 0.94606 0.53246 0.6833 0.0
C1034 C -0.0096 0.57157 0.73098 0.0
C1035 C 0.98543 0.54956 0.76508 0.0
C1036 C 0.95935 0.51907 0.7572 0.0
C1037 C 0.94097 0.51107 0.7175 0.0
C1038 C 0.01618 0.60478 0.73597 0.0
C1039 C 0.95118 0.49367 0.79002 0.0
H1040 H 0.0757 0.56533 0.84998 0.0
H1041 H 0.00585 0.57452 0.91939 0.0
H1042 H 0.02987 0.5335 0.74986 0.0
H1043 H 0.05979 0.57368 0.7488 0.0
H1044 H 0.0666 0.5459 0.77704 0.0
H1045 H 0.96538 0.57675 0.88285 0.0
H1046 H 0.96659 0.58054 0.82397 0.0
H1047 H 0.9469 0.54276 0.8485 0.0
H1048 H 0.97642 0.58056 0.66691 0.0
H1049 H 0.92206 0.48739 0.7134 0.0
H1050 H 0.03883 0.60626 0.72894 0.0
H1051 H 0.01707 0.61308 0.77001 0.0
H1052 H 0.01334 0.62055 0.71308 0.0
H1053 H 0.96664 0.48409 0.78375 0.0
H1054 H 0.92664 0.4746 0.78658 0.0
H1055 H 0.95503 0.50229 0.82418 0.0
C1056 C 0.56888 0.05968 0.42734 0.0
C1057 C 0.53643 0.04454 0.42022 0.0
C1058 C 0.58068 0.05363 0.46563 0.0
C1059 C 0.56011 0.02846 0.49231 0.0
C1060 C 0.52913 0.02319 0.49345 0.0
C1061 C 0.51676 0.02843 0.45536 0.0
C1062 C 0.61455 0.07328 0.47738 0.0
C1063 C 0.5091 0.01177 0.53383 0.0
C1064 C 0.51437 0.95417 0.47892 0.0
C1065 C 0.5204 0.95826 0.43354 0.0
C1066 C 0.53845 0.97278 0.50851 0.0
C1067 C 0.564 0.0 0.49166 0.0
C1068 C 0.57434 -0.00522 0.45089 0.0
C1069 C 0.55156 0.97634 0.42002 0.0
C1070 C 0.5354 0.96617 0.55676 0.0
C1071 C 0.60819 0.01042 0.43861 0.0
H1072 H 0.58477 0.07724 0.40464 0.0
H1073 H 0.49227 0.02158 0.45413 0.0
H1074 H 0.62135 0.06247 0.50372 0.0
H1075 H 0.62954 0.07793 0.44812 0.0
H1076 H 0.61869 0.09615 0.48945 0.0
H1077 H 0.49556 0.02388 0.53759 0.0
H1078 H 0.49166 0.98671 0.53044 0.0
H1079 H 0.52337 0.01583 0.56373 0.0
H1080 H 0.49174 0.93691 0.49106 0.0
H1081 H 0.55814 0.97586 0.38629 0.0
H1082 H 0.51071 0.955 0.56748 0.0
H1083 H 0.55006 0.98758 0.57615 0.0
H1084 H 0.54386 0.94971 0.56354 0.0
H1085 H 0.61343 0.02875 0.4139 0.0
H1086 H 0.61333 -0.00666 0.42277 0.0
H1087 H 0.62349 0.02048 0.46768 0.0
C1088 C 0.4508 0.44635 0.75208 0.0
C1089 C 0.42686 0.45337 0.75611 0.0
C1090 C 0.46498 0.44372 0.79041 0.0
C1091 C 0.45978 0.45582 0.82966 0.0
C1092 C 0.42923 0.44974 0.83527 0.0
C1093 C 0.41285 0.44947 0.79758 0.0
C1094 C 0.48765 0.43202 0.78823 0.0
C1095 C 0.41771 0.45117 0.88015 0.0
C1096 C 0.53721 0.50444 0.82149 0.0
C1097 C 0.5318 0.51329 0.77985 0.0
C1098 C 0.5131 0.49184 0.85255 0.0
C1099 C 0.48445 0.4885 0.8405 0.0
C1100 C 0.48641 0.51145 0.81109 0.0
C1101 C 0.50777 0.52018 0.77631 0.0
C1102 C 0.51585 0.47682 0.89348 0.0
C1103 C 0.46788 0.52733 0.81877 0.0
H1104 H 0.45983 0.44531 0.72017 0.0
H1105 H 0.39164 0.44999 0.80143 0.0
H1106 H 0.49536 0.42947 0.82129 0.0
H1107 H 0.4764 0.40904 0.77158 0.0
H1108 H 0.50813 0.44773 0.76822 0.0
H1109 H 0.39185 0.4387 0.88102 0.0
H1110 H 0.42644 0.44082 0.90463 0.0
H1111 H 0.42686 0.47584 0.88947 0.0
H1112 H 0.55817 0.50389 0.82797 0.0
H1113 H 0.50586 0.53205 0.74777 0.0
H1114 H 0.5225 0.45925 0.88493 0.0
H1115 H 0.49374 0.46551 0.91242 0.0
H1116 H 0.53443 0.49482 0.91431 0.0
H1117 H 0.47288 0.54553 0.79388 0.0
H1118 H 0.47346 0.53822 0.85177 0.0
H1119 H 0.44281 0.51014 0.81882 0.0
C1120 C 0.94815 0.43905 0.13863 0.0
C1121 C 0.95037 0.43632 1.09301 0.0
C1122 C 0.96708 0.43277 0.16648 0.0
C1123 C -0.00709 0.43273 0.14737 0.0
C1124 C 0.98503 0.4162 1.10722 0.0
C1125 C 0.96648 0.42152 1.07788 0.0
C1126 C 0.96256 0.43027 0.21514 0.0
C1127 C -0.00266 0.39518 1.09441 0.0
C1128 C 0.05365 0.48594 1.07952 0.0
C1129 C 0.04094 0.50551 1.07371 0.0
C1130 C 0.04611 0.46705 1.11689 0.0
C1131 C 0.02216 0.46444 0.14476 0.0
C1132 C 0.01865 0.49117 0.14647 0.0
C1133 C 0.02527 0.50953 1.109 0.0
C1134 C 0.06359 0.45029 1.12691 0.0
C1135 C 0.00865 0.50085 0.1873 0.0
H1136 H 0.93209 0.44561 0.15213 0.0
H1137 H 0.96411 0.41357 1.04426 0.0
H1138 H 0.98415 0.43485 0.23252 0.0
H1139 H 0.95474 0.44637 0.22693 0.0
H1140 H 0.94411 0.4062 0.22303 0.0
H1141 H 0.01441 0.40592 1.06738 0.0
H1142 H 0.00816 0.39007 1.12264 0.0
H1143 H 0.978 0.37293 1.0815 0.0
H1144 H 0.07068 0.48663 1.05657 0.0
H1145 H 0.02016 0.52839 1.10862 0.0
H1146 H 0.06518 0.43812 1.09736 0.0
H1147 H 0.05295 0.43375 0.15455 0.0
H1148 H 0.08784 0.46774 0.1362 0.0
H1149 H 0.98373 0.4941 0.18502 0.0
H1150 H 0.02155 0.52652 0.19046 0.0
H1151 H 0.0129 0.4907 0.21705 0.0
C1152 C 0.98051 0.45303 0.49532 0.0
C1153 C 0.01163 0.46106 0.48902 0.0
C1154 C 0.96301 0.45231 0.45868 0.0
C1155 C 0.9796 0.46651 0.41964 0.0
C1156 C 0.00423 0.46134 0.41034 0.0
C1157 C 0.02126 0.45977 0.44596 0.0
C1158 C 0.92868 0.44058 0.46304 0.0
C1159 C 0.0166 0.4655 0.36454 0.0
C1160 C 0.94952 0.51326 0.43497 0.0
C1161 C 0.96297 0.51992 0.47735 0.0
C1162 C 0.96201 0.50299 0.40209 0.0
C1163 C 0.98733 0.4995 0.41308 0.0
C1164 C 0.0076 0.5208 0.44486 0.0
C1165 C -0.00596 0.52713 0.48105 0.0
C1166 C 0.94562 0.49085 0.35927 0.0
C1167 C 0.0421 0.53872 0.437 0.0
H1168 H 0.97095 0.4502 0.52802 0.0
H1169 H 0.04332 0.46144 0.43966 0.0
H1170 H 0.92429 0.45351 0.48894 0.0
H1171 H 0.91815 0.44204 0.43174 0.0
H1172 H 0.91684 0.4159 0.47363 0.0
H1173 H 0.02814 0.45152 0.35944 0.0
H1174 H -0.00249 0.45844 0.34026 0.0
H1175 H 0.03379 0.49041 0.35903 0.0
H1176 H 0.92812 0.51297 0.42859 0.0
H1177 H 0.00735 0.53789 0.51047 0.0
H1178 H 0.92242 0.47011 0.36499 0.0
H1179 H 0.95922 0.48444 0.33692 0.0
H1180 H 0.94232 0.50904 0.34342 0.0
H1181 H 0.05488 0.55461 0.46463 0.0
H1182 H 0.0468 0.55282 0.40681 0.0
H1183 H 0.05112 0.52275 0.43086 0.0
C1184 C 0.48872 0.92123 0.80572 0.0
C1185 C 0.47351 0.93035 0.83634 0.0
C1186 C 0.50064 0.9379 0.76685 0.0
C1187 C 0.50024 0.96578 0.76113 0.0
C1188 C 0.47674 0.96843 0.78451 0.0
C1189 C 0.46626 0.95305 0.82449 0.0
C1190 C 0.51535 0.92692 0.73356 0.0
C1191 C 0.46104 0.98544 0.76677 0.0
C1192 C 0.55546 0.01881 0.8257 0.0
C1193 C 0.54247 0.03797 0.82139 0.0
C1194 C 0.55262 -0.0009 0.79103 0.0
C1195 C 0.53146 -0.00521 0.7567 0.0
C1196 C 0.53027 0.02152 0.74535 0.0
C1197 C 0.53291 0.04173 0.77946 0.0
C1198 C 0.57005 0.98159 0.79302 0.0
C1199 C 0.52078 0.0251 0.70002 0.0
H1200 H 0.49126 0.90111 0.81174 0.0
H1201 H 0.45109 0.95754 0.84498 0.0
H1202 H 0.52753 0.94443 0.70743 0.0
H1203 H 0.53171 0.92086 0.74961 0.0
H1204 H 0.49674 0.90523 0.71841 0.0
H1205 H 0.43578 0.97248 0.77463 0.0
H1206 H 0.47064 0.00854 0.78257 0.0
H1207 H 0.46319 0.98787 0.73074 0.0
H1208 H 0.56733 0.01894 0.85558 0.0
H1209 H 0.52626 0.05914 0.77375 0.0
H1210 H 0.57362 0.97496 0.75973 0.0
H1211 H 0.557 0.96047 0.81346 0.0
H1212 H 0.59319 -0.00387 0.80866 0.0
H1213 H 0.54198 0.03728 0.67964 0.0
H1214 H 0.50892 0.03904 0.70035 0.0
H1215 H 0.50573 0.00218 0.68417 0.0
C1216 C 0.40957 0.48243 0.16182 0.0
C1217 C 0.44105 0.5003 0.17469 0.0
C1218 C 0.40193 0.46554 1.12233 0.0
C1219 C 0.42555 0.4629 1.10044 0.0
C1220 C 0.4557 0.48954 1.10405 0.0
C1221 C 0.46408 0.50558 0.1438 0.0
C1222 C 0.36906 0.44927 1.10533 0.0
C1223 C 0.47915 0.50041 1.06739 0.0
C1224 C 0.47445 0.43589 1.11661 0.0
C1225 C 0.46899 0.43346 0.16205 0.0
C1226 C 0.45026 0.43127 1.08779 0.0
C1227 C 0.42447 0.43214 1.1054 0.0
C1228 C 0.41512 0.41821 0.14727 0.0
C1229 C 0.43826 0.42173 0.17669 0.0
C1230 C 0.45324 0.42927 1.03922 0.0
C1231 C 0.3816 0.40124 0.16169 0.0
H1232 H 0.39138 0.48284 0.18101 0.0
H1233 H 0.488 0.52385 0.14912 0.0
H1234 H 0.36544 0.43179 1.07981 0.0
H1235 H 0.35215 0.4381 0.13249 0.0
H1236 H 0.3643 0.46686 1.09045 0.0
H1237 H 0.46754 0.49221 1.03515 0.0
H1238 H 0.49318 0.52617 1.06705 0.0
H1239 H 0.49599 0.49222 1.07265 0.0
H1240 H 0.4968 0.44089 1.10378 0.0
H1241 H 0.43212 0.41482 0.21056 0.0
H1242 H 0.47801 0.44194 1.02872 0.0
H1243 H 0.43967 0.43792 1.02109 0.0
H1244 H 0.44302 0.40434 1.03072 0.0
H1245 H 0.37715 0.41615 0.18419 0.0
H1246 H 0.37663 0.38008 0.18042 0.0
H1247 H 0.36552 0.39417 0.13327 0.0
C1248 C 0.26708 0.88793 0.68366 0.0
C1249 C 0.28328 0.91546 0.70826 0.0
C1250 C 0.26424 0.88912 0.63808 0.0
C1251 C 0.27779 0.91842 0.61731 0.0
C1252 C 0.28845 0.94566 0.64293 0.0
C1253 C 0.29121 0.94388 0.68825 0.0
C1254 C 0.2506 0.85937 0.61197 0.0
C1255 C 0.30164 0.97737 0.62214 0.0
C1256 C 0.33607 0.94036 0.52698 0.0
C1257 C 0.3224 0.94933 0.49422 0.0
C1258 C 0.32008 0.92672 0.56573 0.0
C1259 C 0.28963 0.92199 0.57186 0.0
C1260 C 0.27426 0.92725 0.53675 0.0
C1261 C 0.29094 0.94107 0.49824 0.0
C1262 C 0.33728 0.9208 0.60195 0.0
C1263 C 0.24132 0.92107 0.54087 0.0
H1264 H 0.25943 0.86566 0.69925 0.0
H1265 H 0.30316 0.96534 0.70679 0.0
H1266 H 0.23963 0.86122 0.5813 0.0
H1267 H 0.26945 0.85452 0.60294 0.0
H1268 H 0.23301 0.83937 0.63142 0.0
H1269 H 0.30454 -0.00463 0.64631 0.0
H1270 H 0.32481 0.98433 0.60778 0.0
H1271 H 0.28629 0.97684 0.59537 0.0
H1272 H 0.36031 0.94659 0.52426 0.0
H1273 H 0.27992 0.94711 0.47241 0.0
H1274 H 0.32265 0.89719 0.61575 0.0
H1275 H 0.34264 0.93782 0.62884 0.0
H1276 H 0.35954 0.92295 0.59043 0.0
H1277 H 0.22789 0.90325 0.56609 0.0
H1278 H 0.22894 0.91327 0.509 0.0
H1279 H 0.24183 0.94294 0.55008 0.0
C1280 C 0.29195 0.315 1.07762 0.0
C1281 C 0.32193 0.32297 1.06294 0.0
C1282 C 0.27042 0.31666 1.0495 0.0
C1283 C 0.27958 0.32765 1.0063 0.0
C1284 C 0.30974 0.33545 0.99126 0.0
C1285 C 0.33018 0.33238 1.01947 0.0
C1286 C 0.23845 0.30749 1.06687 0.0
C1287 C 0.32086 0.34768 0.9455 0.0
C1288 C 0.24069 0.32161 0.90115 0.0
C1289 C 0.25103 0.35331 0.89523 0.0
C1290 C 0.24407 0.31074 0.94194 0.0
C1291 C 0.25889 0.33238 0.97622 0.0
C1292 C 0.26271 0.36249 0.97291 0.0
C1293 C 0.2581 0.3725 0.93222 0.0
C1294 C 0.23707 0.2776 0.94587 0.0
C1295 C 0.2771 0.38588 1.00952 0.0
H1296 H 0.28539 0.30804 1.11134 0.0
H1297 H 0.35289 0.33769 1.00741 0.0
H1298 H 0.23946 0.32768 1.08403 0.0
H1299 H 0.22075 0.3 1.04045 0.0
H1300 H 0.2307 0.28835 1.09108 0.0
H1301 H 0.3455 0.35401 0.93994 0.0
H1302 H 0.30619 0.32984 0.92093 0.0
H1303 H 0.31886 0.36864 0.93947 0.0
H1304 H 0.23409 0.3062 0.87308 0.0
H1305 H 0.26455 0.39668 0.92806 0.0
H1306 H 0.2297 0.26879 0.97969 0.0
H1307 H 0.25842 0.27656 0.93821 0.0
H1308 H 0.21852 0.26214 0.92253 0.0
H1309 H 0.26756 0.37483 1.04165 0.0
H1310 H 0.27303 0.40577 1.00517 0.0
H1311 H 0.30265 0.39507 1.01004 0.0
C1312 C 0.97297 0.29568 0.18554 0.0
C1313 C 0.95381 0.30795 0.19698 0.0
C1314 C -0.00575 0.29554 0.21572 0.0
C1315 C -0.00306 0.30884 0.25759 0.0
C1316 C 0.97631 0.31952 0.27005 0.0
C1317 C 0.95467 0.31839 0.23981 0.0
C1318 C 0.01474 0.28267 0.20156 0.0
C1319 C 0.97821 0.33394 0.31448 0.0
C1320 C 0.03457 0.31061 0.36305 0.0
C1321 C 0.05786 0.34208 0.36309 0.0
C1322 C 0.01736 0.29683 0.32494 0.0
C1323 C 0.02316 0.31539 0.28723 0.0
C1324 C 0.05032 0.34506 0.28503 0.0
C1325 C 0.06772 0.35795 0.32316 0.0
C1326 C -0.00989 0.26411 0.32704 0.0
C1327 C 0.05805 0.3652 0.24478 0.0
H1328 H 0.97241 0.28745 0.15247 0.0
H1329 H 0.93915 0.32687 0.24925 0.0
H1330 H 0.03488 0.3007 0.18286 0.0
H1331 H 0.02372 0.27544 0.22979 0.0
H1332 H 0.00176 0.26237 0.17945 0.0
H1333 H 0.96059 0.34135 0.31852 0.0
H1334 H 0.97455 0.31707 0.34077 0.0
H1335 H 0.00167 0.35461 0.31925 0.0
H1336 H 0.02732 0.29781 0.39358 0.0
H1337 H 0.08669 0.38186 0.32283 0.0
H1338 H 0.98623 0.25225 0.29488 0.0
H1339 H 0.9687 0.26479 0.3356 0.0
H1340 H -0.0062 0.25027 0.35244 0.0
H1341 H 0.05566 0.35154 0.21484 0.0
H1342 H 0.08209 0.38549 0.24612 0.0
H1343 H 0.04148 0.37403 0.24205 0.0
C1344 C 0.68736 0.08915 0.65264 0.0
C1345 C 0.70245 0.08635 0.68968 0.0
C1346 C 0.68775 0.0751 0.61316 0.0
C1347 C 0.7044 0.05885 0.61092 0.0
C1348 C 0.72492 0.06191 0.64515 0.0
C1349 C 0.72331 0.07522 0.68484 0.0
C1350 C 0.66635 0.07336 0.57671 0.0
C1351 C 0.74501 0.04711 0.64217 0.0
C1352 C 0.65175 0.97867 0.56661 0.0
C1353 C 0.65897 0.98295 0.522 0.0
C1354 C 0.6678 0.00285 0.5964 0.0
C1355 C 0.69254 0.03171 0.5813 0.0
C1356 C 0.70222 0.03503 0.53713 0.0
C1357 C 0.68495 0.01066 0.50768 0.0
C1358 C 0.65649 -0.00188 0.64333 0.0
C1359 C 0.72932 0.06476 0.51997 0.0
H1360 H 0.67242 0.0992 0.65588 0.0
H1361 H 0.73581 0.07378 0.71303 0.0
H1362 H 0.67818 0.07757 0.54458 0.0
H1363 H 0.6455 0.0497 0.57586 0.0
H1364 H 0.65836 0.09048 0.58119 0.0
H1365 H 0.76537 0.0587 0.66455 0.0
H1366 H 0.73112 0.02228 0.65177 0.0
H1367 H 0.75341 0.04813 0.60816 0.0
H1368 H 0.63225 0.95689 0.57785 0.0
H1369 H 0.69075 0.01408 0.47314 0.0
H1370 H 0.64843 0.01473 0.65157 0.0
H1371 H 0.67575 0.0026 0.66602 0.0
H1372 H 0.63693 0.97418 0.6494 0.0
H1373 H 0.72044 0.07899 0.50443 0.0
H1374 H 0.74204 0.0596 0.49438 0.0
H1375 H 0.74595 0.07874 0.54626 0.0
C1376 C 0.64354 0.61204 1.04644 0.0
C1377 C 0.65378 0.63283 1.08177 0.0
C1378 C 0.66295 0.61677 1.0106 0.0
C1379 C 0.69341 0.64307 1.01 0.0
C1380 C 0.70474 0.66288 1.04692 0.0
C1381 C 0.68469 0.65758 1.08242 0.0
C1382 C 0.64995 0.59472 0.97207 0.0
C1383 C 0.73722 0.69072 1.04813 0.0
C1384 C 0.73187 0.63264 0.91154 0.0
C1385 C 0.71996 0.64408 0.87943 0.0
C1386 C 0.72752 0.6361 0.95613 0.0
C1387 C 0.71099 0.65131 0.96827 0.0
C1388 C 0.70408 0.6676 0.93635 0.0
C1389 C 0.70862 0.66374 0.89208 0.0
C1390 C 0.73674 0.61986 0.98956 0.0
C1391 C 0.68744 0.68508 0.94817 0.0
H1392 H 0.61965 0.59304 1.04548 0.0
H1393 H 0.69293 0.6734 1.1101 0.0
H1394 H 0.64809 0.60722 0.94316 0.0
H1395 H 0.66575 0.5858 0.96323 0.0
H1396 H 0.6265 0.57454 0.97895 0.0
H1397 H 0.74588 0.69674 1.08232 0.0
H1398 H 0.75388 0.68671 1.02887 0.0
H1399 H 0.73682 0.71106 1.03392 0.0
H1400 H 0.74171 0.61834 0.90186 0.0
H1401 H 0.6997 0.67306 0.86761 0.0
H1402 H 0.71638 0.59664 0.99674 0.0
H1403 H 0.74415 0.63319 1.02069 0.0
H1404 H 0.75593 0.61645 0.97725 0.0
H1405 H 0.66251 0.66819 0.95471 0.0
H1406 H 0.6887 0.70075 0.92133 0.0
H1407 H 0.69751 0.69911 0.97826 0.0
C1408 C 0.98429 0.68636 0.19751 0.0
C1409 C 0.98676 0.65939 0.19803 0.0
C1410 C 0.96966 0.69293 0.2319 0.0
C1411 C 0.95759 0.67215 0.26764 0.0
C1412 C 0.95911 0.64437 0.2675 0.0
C1413 C 0.97372 0.63842 0.23276 0.0
C1414 C 0.96834 0.72262 0.23045 0.0
C1415 C 0.94636 0.62133 0.30489 0.0
C1416 C 0.95285 0.68622 0.38573 0.0
C1417 C 0.92071 0.6666 0.39188 0.0
C1418 C 0.96546 0.69298 0.34351 0.0
C1419 C 0.94534 0.67968 0.30721 0.0
C1420 C 0.91275 0.66534 0.31314 0.0
C1421 C 0.90068 0.65888 0.35576 0.0
C1422 C 0.00043 0.70974 0.33833 0.0
C1423 C 0.89061 0.65251 0.27489 0.0
H1424 H -0.00598 0.70248 0.17037 0.0
H1425 H 0.97594 0.61778 0.2336 0.0
H1426 H 0.94752 0.72023 0.24763 0.0
H1427 H -0.01064 0.74143 0.24675 0.0
H1428 H 0.96819 0.72996 0.19614 0.0
H1429 H 0.94856 0.60044 0.29882 0.0
H1430 H 0.95903 0.63257 0.33557 0.0
H1431 H 0.92138 0.61355 0.31022 0.0
H1432 H 0.96857 0.69286 0.41346 0.0
H1433 H 0.87571 0.64469 0.36054 0.0
H1434 H 0.00781 0.72515 0.30927 0.0
H1435 H 0.00806 0.69239 0.33347 0.0
H1436 H 0.01247 0.72387 0.36775 0.0
H1437 H 0.90008 0.66797 0.24596 0.0
H1438 H 0.86743 0.64949 0.28326 0.0
H1439 H 0.88736 0.62942 0.26576 0.0
C1440 C 0.56123 0.13173 0.52559 0.0
C1441 C 0.53153 0.10877 0.50989 0.0
C1442 C 0.57046 0.13435 0.57112 0.0
C1443 C 0.55038 0.11294 0.60391 0.0
C1444 C 0.52051 0.0895 0.58788 0.0
C1445 C 0.51164 0.08804 0.54254 0.0
C1446 C 0.60228 0.16051 0.58363 0.0
C1447 C 0.49781 0.06439 0.61806 0.0
C1448 C 0.58686 0.1044 0.71631 0.0
C1449 C 0.57612 0.11724 0.749 0.0
C1450 C 0.57924 0.10313 0.67028 0.0
C1451 C 0.56009 0.11506 0.65403 0.0
C1452 C 0.55004 0.1289 0.68672 0.0
C1453 C 0.55763 0.12946 0.73255 0.0
C1454 C 0.59185 0.08864 0.63892 0.0
C1455 C 0.5312 0.14368 0.67313 0.0
H1456 H 0.57755 0.1482 0.50217 0.0
H1457 H 0.48875 0.06979 0.53244 0.0
H1458 H 0.60275 0.16862 0.61766 0.0
H1459 H 0.6193 0.15227 0.58117 0.0
H1460 H 0.61008 0.1806 0.56108 0.0
H1461 H 0.50422 0.04601 0.62025 0.0
H1462 H 0.49844 0.07329 0.65156 0.0
H1463 H 0.47355 0.05351 0.60549 0.0
H1464 H 0.60102 0.09461 0.7268 0.0
H1465 H 0.54877 0.13961 0.75584 0.0
H1466 H 0.61176 0.10727 0.62065 0.0
H1467 H 0.57383 0.07361 0.61468 0.0
H1468 H 0.60025 0.07455 0.65625 0.0
H1469 H 0.52781 0.15646 0.7005 0.0
H1470 H 0.50797 0.12552 0.66125 0.0
H1471 H 0.54295 0.16009 0.64566 0.0
C1472 C 0.37978 0.49224 0.87569 0.0
C1473 C 0.39197 0.51397 0.84064 0.0
C1474 C 0.38808 0.50055 0.92146 0.0
C1475 C 0.4088 0.53206 0.93547 0.0
C1476 C 0.42014 0.55419 0.9002 0.0
C1477 C 0.41222 0.54507 0.8548 0.0
C1478 C 0.37506 0.47491 0.95504 0.0
C1479 C 0.44105 0.58836 0.9094 0.0
C1480 C 0.40839 0.55248 1.06337 0.0
C1481 C 0.43872 0.56144 1.07929 0.0
C1482 C 0.39864 0.54353 1.01822 0.0
C1483 C 0.41873 0.54164 0.9857 0.0
C1484 C 0.44913 0.54991 1.00203 0.0
C1485 C 0.45864 0.5601 1.04682 0.0
C1486 C 0.36626 0.53643 1.00618 0.0
C1487 C 0.47208 0.54769 0.97202 0.0
H1488 H 0.36417 0.4681 0.86732 0.0
H1489 H 0.42244 0.56294 0.8299 0.0
H1490 H 0.39395 0.47693 0.97679 0.0
H1491 H 0.35784 0.47701 0.97577 0.0
H1492 H 0.36323 0.45146 0.93973 0.0
H1493 H 0.43433 0.60235 0.88848 0.0
H1494 H 0.4404 0.59458 0.94413 0.0
H1495 H 0.46536 0.59511 0.90067 0.0
H1496 H 0.3919 0.55287 1.08629 0.0
H1497 H 0.48217 0.5668 1.05659 0.0
H1498 H 0.34913 0.51331 1.01958 0.0
H1499 H 0.36269 0.53634 0.97032 0.0
H1500 H 0.36118 0.55373 1.02145 0.0
H1501 H 0.46038 0.52592 0.95239 0.0
H1502 H 0.49173 0.5483 0.99036 0.0
H1503 H 0.48188 0.56755 0.94895 0.0
C1504 C 0.84695 0.43438 0.18516 0.0
C1505 C 0.8639 0.41958 0.17221 0.0
C1506 C 0.84563 0.44365 0.22963 0.0
C1507 C 0.86294 0.43998 0.26455 0.0
C1508 C 0.88002 0.4248 0.25172 0.0
C1509 C 0.87981 0.4146 0.20713 0.0
C1510 C 0.82482 0.45713 0.2382 0.0
C1511 C 0.90039 0.42066 0.2845 0.0
C1512 C 0.87838 0.49397 0.37014 0.0
C1513 C 0.86602 0.4731 0.406 0.0
C1514 C 0.87769 0.48392 0.32534 0.0
C1515 C 0.8631 0.45154 0.31341 0.0
C1516 C 0.84845 0.43047 0.34931 0.0
C1517 C 0.85094 0.44122 0.39388 0.0
C1518 C 0.89362 0.50875 0.29098 0.0
C1519 C 0.82924 0.39586 0.34173 0.0
H1520 H 0.83404 0.43866 0.16015 0.0
H1521 H 0.89311 0.40333 0.19942 0.0
H1522 H 0.81984 0.45781 0.27346 0.0
H1523 H 0.83598 0.48108 0.22474 0.0
H1524 H 0.8023 0.44333 0.22069 0.0
H1525 H 0.92288 0.44275 0.28692 0.0
H1526 H 0.89017 0.41524 0.31767 0.0
H1527 H 0.90511 0.40191 0.27448 0.0
H1528 H 0.89005 0.51866 0.3772 0.0
H1529 H 0.84052 0.42405 0.41965 0.0
H1530 H 0.87633 0.51395 0.27613 0.0
H1531 H 0.90385 0.50123 0.26462 0.0
H1532 H 0.91236 0.53074 0.30546 0.0
H1533 H 0.80684 0.38628 0.35977 0.0
H1534 H 0.84174 0.38441 0.35532 0.0
H1535 H 0.82401 0.38951 0.30669 0.0
C1536 C 0.4853 0.88362 0.54376 0.0
C1537 C 0.46243 0.87295 0.51012 0.0
C1538 C 0.47804 0.88288 0.58993 0.0
C1539 C 0.44676 0.87124 0.60547 0.0
C1540 C 0.42359 0.8601 0.57163 0.0
C1541 C 0.43148 0.86115 0.52577 0.0
C1542 C 0.50451 0.89558 0.62224 0.0
C1543 C 0.38985 0.84694 0.58389 0.0
C1544 C 0.42397 0.84627 0.73103 0.0
C1545 C 0.4205 0.87047 0.75018 0.0
C1546 C 0.43201 0.84607 0.68532 0.0
C1547 C 0.43825 0.87114 0.65595 0.0
C1548 C 0.43559 0.89596 0.67555 0.0
C1549 C 0.42645 0.89505 0.72077 0.0
C1550 C 0.43358 0.81844 0.6682 0.0
C1551 C 0.44304 0.92427 0.64867 0.0
H1552 H 0.50939 0.89314 0.53396 0.0
H1553 H 0.41292 0.85277 0.50177 0.0
H1554 H 0.49892 0.87941 0.65019 0.0
H1555 H 0.52664 0.89972 0.60709 0.0
H1556 H 0.50805 0.91796 0.63536 0.0
H1557 H 0.37408 0.83739 0.55515 0.0
H1558 H 0.38296 0.82819 0.60851 0.0
H1559 H 0.38652 0.86536 0.59914 0.0
H1560 H 0.41983 0.82688 0.75172 0.0
H1561 H 0.42458 0.91442 0.73347 0.0
H1562 H 0.45745 0.826 0.65618 0.0
H1563 H 0.41749 0.80808 0.63997 0.0
H1564 H 0.42736 0.80026 0.69357 0.0
H1565 H 0.4671 0.93471 0.63557 0.0
H1566 H 0.44112 0.94222 0.66797 0.0
H1567 H 0.42701 0.9175 0.62022 0.0
C1568 C 0.58959 0.48607 0.88438 0.0
C1569 C 0.5821 0.46562 0.84813 0.0
C1570 C 0.57982 0.47544 0.92881 0.0
C1571 C 0.56302 0.44286 0.94007 0.0
C1572 C 0.55782 0.42235 0.90375 0.0
C1573 C 0.56617 0.43364 0.8595 0.0
C1574 C 0.58705 0.49999 0.96315 0.0
C1575 C 0.54393 0.38785 0.91046 0.0
C1576 C 0.56085 0.42712 1.06878 0.0
C1577 C 0.52883 0.40934 1.08018 0.0
C1578 C 0.57198 0.43697 1.02475 0.0
C1579 C 0.55111 0.43058 0.98852 0.0
C1580 C 0.51857 0.41191 0.99971 0.0
C1581 C 0.50818 0.40166 1.04412 0.0
C1582 C 0.60678 0.45369 1.01804 0.0
C1583 C 0.49391 0.40155 0.96466 0.0
H1584 H 0.60187 0.51083 0.87786 0.0
H1585 H 0.56027 0.41682 0.83334 0.0
H1586 H 0.57067 0.49104 0.99121 0.0
H1587 H 0.61112 0.50885 0.97534 0.0
H1588 H 0.58628 0.52017 0.94893 0.0
H1589 H 0.55787 0.37957 0.89238 0.0
H1590 H 0.54291 0.38126 0.94534 0.0
H1591 H 0.52013 0.3755 0.89623 0.0
H1592 H 0.57789 0.43342 1.09473 0.0
H1593 H 0.48342 0.38771 1.05055 0.0
H1594 H 0.61708 0.4777 1.03113 0.0
H1595 H 0.61357 0.45469 0.98322 0.0
H1596 H 0.61716 0.44202 1.03695 0.0
H1597 H 0.50155 0.41747 0.93625 0.0
H1598 H 0.47208 0.39942 0.97748 0.0
H1599 H 0.48801 0.37803 0.95323 0.0
C1600 C 0.09492 0.49769 0.3747 0.0
C1601 C 0.10471 0.51931 0.41 0.0
C1602 C 0.09491 0.50622 0.32908 0.0
C1603 C 0.10581 0.53782 0.31552 0.0
C1604 C 0.11681 0.5598 0.35107 0.0
C1605 C 0.11568 0.55047 0.39626 0.0
C1606 C 0.08206 0.4807 0.2952 0.0
C1607 C 0.13036 0.59405 0.34243 0.0
C1608 C 0.12555 0.55688 0.18735 0.0
C1609 C 0.1054 0.5675 0.17202 0.0
C1610 C 0.12646 0.54807 0.23241 0.0
C1611 C 0.1055 0.54767 0.26547 0.0
C1612 C 0.08458 0.55773 0.24978 0.0
C1613 C 0.08542 0.56805 0.20504 0.0
C1614 C 0.15107 0.53988 0.24375 0.0
C1615 C 0.06055 0.55753 0.28026 0.0
H1616 H 0.08625 0.47349 0.38272 0.0
H1617 H 0.12358 0.56827 0.42137 0.0
H1618 H 0.06571 0.48322 0.27301 0.0
H1619 H 0.10139 0.4823 0.27504 0.0
H1620 H 0.06979 0.45721 0.31025 0.0
H1621 H 0.15134 0.60779 0.36311 0.0
H1622 H 0.13697 0.60041 0.3077 0.0
H1623 H 0.11307 0.60096 0.35197 0.0
H1624 H 0.14157 0.55601 0.16401 0.0
H1625 H 0.06951 0.57601 0.19568 0.0
H1626 H 0.1449 0.51723 0.22844 0.0
H1627 H 0.15405 0.53846 0.27949 0.0
H1628 H 0.17383 0.55746 0.22968 0.0
H1629 H 0.05189 0.53799 0.30392 0.0
H1630 H 0.04035 0.55572 0.26194 0.0
H1631 H 0.07118 0.57963 0.29897 0.0
loop_
_geom_bond_atom_site_label_1
_geom_bond_atom_site_label_2
_geom_bond_distance
_geom_bond_site_symmetry_2
_ccdc_geom_bond_type
Sm0 C2 2.846 . S
Sm0 O20 2.543 . S
Sm0 O21 2.450 . S
Sm0 O22 2.681 . S
Sm0 O23 2.464 . S
Sm0 O24 2.396 . S
Sm0 O28 2.386 . S
Sm0 O31 2.408 . S
Sm1 C11 2.846 . S
Sm1 O22 2.386 . S
Sm1 O25 2.408 . S
Sm1 O26 2.543 . S
Sm1 O27 2.450 . S
Sm1 O28 2.681 . S
Sm1 O29 2.464 . S
Sm1 O30 2.396 . S
C2 Sm0 2.846 . S
C2 C3 1.506 . S
C2 O20 1.261 . S
C2 O21 1.242 . S
C3 C2 1.506 . S
C3 C4 1.358 . S
C3 C8 1.382 . S
C4 C3 1.358 . S
C4 C5 1.385 . S
C4 H32 0.930 . S
C5 C4 1.385 . S
C5 C6 1.395 . S
C5 H33 0.929 . S
C6 C5 1.395 . S
C6 C7 1.335 . S
C7 C6 1.335 . S
C7 C8 1.398 . S
C7 H34 0.930 . S
C8 C3 1.382 . S
C8 C7 1.398 . S
C8 H35 0.929 . S
C9 O22 1.271 . S
C9 O23 1.251 . S
C10 O24 1.252 . S
C10 O25 1.272 . S
C11 Sm1 2.846 . S
C11 C12 1.506 . S
C11 O26 1.261 . S
C11 O27 1.242 . S
C12 C11 1.506 . S
C12 C13 1.358 . S
C12 C17 1.382 . S
C13 C12 1.358 . S
C13 C14 1.385 . S
C13 H36 0.930 . S
C14 C13 1.385 . S
C14 C15 1.395 . S
C14 H37 0.929 . S
C15 C14 1.395 . S
C15 C16 1.335 . S
C16 C15 1.335 . S
C16 C17 1.398 . S
C16 H38 0.930 . S
C17 C12 1.382 . S
C17 C16 1.398 . S
C17 H39 0.929 . S
C18 O28 1.271 . S
C18 O29 1.251 . S
C19 O30 1.252 . S
C19 O31 1.272 . S
O20 Sm0 2.543 . S
O20 C2 1.261 . S
O21 Sm0 2.450 . S
O21 C2 1.242 . S
O22 Sm0 2.681 . S
O22 Sm1 2.386 . S
O22 C9 1.271 . S
O23 Sm0 2.464 . S
O23 C9 1.251 . S
O24 Sm0 2.396 . S
O24 C10 1.252 . S
O25 Sm1 2.408 . S
O25 C10 1.272 . S
O26 Sm1 2.543 . S
O26 C11 1.261 . S
O27 Sm1 2.450 . S
O27 C11 1.242 . S
O28 Sm0 2.386 . S
O28 Sm1 2.681 . S
O28 C18 1.271 . S
O29 Sm1 2.464 . S
O29 C18 1.251 . S
O30 Sm1 2.396 . S
O30 C19 1.252 . S
O31 Sm0 2.408 . S
O31 C19 1.272 . S
H32 C4 0.930 . S
H33 C5 0.929 . S
H34 C7 0.930 . S
H35 C8 0.929 . S
H36 C13 0.930 . S
H37 C14 0.929 . S
H38 C16 0.930 . S
H39 C17 0.929 . S
Sm40 C42 2.846 . S
Sm40 O60 2.543 . S
Sm40 O61 2.450 . S
Sm40 O62 2.681 . S
Sm40 O63 2.464 . S
Sm40 O64 2.396 . S
Sm40 O68 2.386 . S
Sm40 O71 2.408 . S
Sm41 C51 2.846 . S
Sm41 O62 2.386 . S
Sm41 O65 2.408 . S
Sm41 O66 2.543 . S
Sm41 O67 2.450 . S
Sm41 O68 2.681 . S
Sm41 O69 2.464 . S
Sm41 O70 2.396 . S
C42 Sm40 2.846 . S
C42 C43 1.506 . S
C42 O60 1.261 . S
C42 O61 1.242 . S
C43 C42 1.506 . S
C43 C44 1.358 . S
C43 C48 1.382 . S
C44 C43 1.358 . S
C44 C45 1.385 . S
C44 H72 0.930 . S
C45 C44 1.385 . S
C45 C46 1.395 . S
C45 H73 0.929 . S
C46 C45 1.395 . S
C46 C47 1.335 . S
C47 C46 1.335 . S
C47 C48 1.398 . S
C47 H74 0.930 . S
C48 C43 1.382 . S
C48 C47 1.398 . S
C48 H75 0.929 . S
C49 O62 1.271 . S
C49 O63 1.251 . S
C50 O64 1.252 . S
C50 O65 1.272 . S
C51 Sm41 2.846 . S
C51 C52 1.506 . S
C51 O66 1.261 . S
C51 O67 1.242 . S
C52 C51 1.506 . S
C52 C53 1.358 . S
C52 C57 1.382 . S
C53 C52 1.358 . S
C53 C54 1.385 . S
C53 H76 0.930 . S
C54 C53 1.385 . S
C54 C55 1.395 . S
C54 H77 0.929 . S
C55 C54 1.395 . S
C55 C56 1.335 . S
C56 C55 1.335 . S
C56 C57 1.398 . S
C56 H78 0.930 . S
C57 C52 1.382 . S
C57 C56 1.398 . S
C57 H79 0.929 . S
C58 O68 1.271 . S
C58 O69 1.251 . S
C59 O70 1.252 . S
C59 O71 1.272 . S
O60 Sm40 2.543 . S
O60 C42 1.261 . S
O61 Sm40 2.450 . S
O61 C42 1.242 . S
O62 Sm40 2.681 . S
O62 Sm41 2.386 . S
O62 C49 1.271 . S
O63 Sm40 2.464 . S
O63 C49 1.251 . S
O64 Sm40 2.396 . S
O64 C50 1.252 . S
O65 Sm41 2.408 . S
O65 C50 1.272 . S
O66 Sm41 2.543 . S
O66 C51 1.261 . S
O67 Sm41 2.450 . S
O67 C51 1.242 . S
O68 Sm40 2.386 . S
O68 Sm41 2.681 . S
O68 C58 1.271 . S
O69 Sm41 2.464 . S
O69 C58 1.251 . S
O70 Sm41 2.396 . S
O70 C59 1.252 . S
O71 Sm40 2.408 . S
O71 C59 1.272 . S
H72 C44 0.930 . S
H73 C45 0.929 . S
H74 C47 0.930 . S
H75 C48 0.929 . S
H76 C53 0.930 . S
H77 C54 0.929 . S
H78 C56 0.930 . S
H79 C57 0.929 . S
Sm80 C82 2.846 1_556 S
Sm80 O100 2.543 . S
Sm80 O101 2.450 . S
Sm80 O102 2.681 . S
Sm80 O103 2.464 . S
Sm80 O104 2.396 . S
Sm80 O108 2.386 . S
Sm80 O111 2.408 . S
Sm81 C91 2.846 . S
Sm81 O102 2.386 . S
Sm81 O105 2.408 . S
Sm81 O106 2.543 . S
Sm81 O107 2.450 . S
Sm81 O108 2.681 . S
Sm81 O109 2.464 . S
Sm81 O110 2.396 . S
C82 Sm80 2.846 1_554 S
C82 C83 1.506 . S
C82 O100 1.261 1_554 S
C82 O101 1.242 1_554 S
C83 C82 1.506 . S
C83 C84 1.358 . S
C83 C88 1.382 . S
C84 C83 1.358 . S
C84 C85 1.385 . S
C84 H112 0.930 . S
C85 C84 1.385 . S
C85 C86 1.395 . S
C85 H113 0.929 . S
C86 C85 1.395 . S
C86 C87 1.335 . S
C87 C86 1.335 . S
C87 C88 1.398 . S
C87 H114 0.930 . S
C88 C83 1.382 . S
C88 C87 1.398 . S
C88 H115 0.929 . S
C89 O102 1.271 . S
C89 O103 1.251 . S
C90 O104 1.252 . S
C90 O105 1.272 . S
C91 Sm81 2.846 . S
C91 C92 1.506 . S
C91 O106 1.261 . S
C91 O107 1.242 . S
C92 C91 1.506 . S
C92 C93 1.358 . S
C92 C97 1.382 . S
C93 C92 1.358 . S
C93 C94 1.385 . S
C93 H116 0.930 . S
C94 C93 1.385 . S
C94 C95 1.395 . S
C94 H117 0.929 . S
C95 C94 1.395 . S
C95 C96 1.335 . S
C96 C95 1.335 . S
C96 C97 1.398 . S
C96 H118 0.930 . S
C97 C92 1.382 . S
C97 C96 1.398 . S
C97 H119 0.929 . S
C98 O108 1.271 . S
C98 O109 1.251 . S
C99 O110 1.252 . S
C99 O111 1.272 . S
O100 Sm80 2.543 . S
O100 C82 1.261 1_556 S
O101 Sm80 2.450 . S
O101 C82 1.242 1_556 S
O102 Sm80 2.681 . S
O102 Sm81 2.386 . S
O102 C89 1.271 . S
O103 Sm80 2.464 . S
O103 C89 1.251 . S
O104 Sm80 2.396 . S
O104 C90 1.252 . S
O105 Sm81 2.408 . S
O105 C90 1.272 . S
O106 Sm81 2.543 . S
O106 C91 1.261 . S
O107 Sm81 2.450 . S
O107 C91 1.242 . S
O108 Sm80 2.386 . S
O108 Sm81 2.681 . S
O108 C98 1.271 . S
O109 Sm81 2.464 . S
O109 C98 1.251 . S
O110 Sm81 2.396 . S
O110 C99 1.252 . S
O111 Sm80 2.408 . S
O111 C99 1.272 . S
H112 C84 0.930 . S
H113 C85 0.929 . S
H114 C87 0.930 . S
H115 C88 0.929 . S
H116 C93 0.930 . S
H117 C94 0.929 . S
H118 C96 0.930 . S
H119 C97 0.929 . S
Sm120 C122 2.846 . S
Sm120 O140 2.543 . S
Sm120 O141 2.450 . S
Sm120 O142 2.681 . S
Sm120 O143 2.464 . S
Sm120 O144 2.396 . S
Sm120 O148 2.386 . S
Sm120 O151 2.408 . S
Sm121 C131 2.846 . S
Sm121 O142 2.386 . S
Sm121 O145 2.408 . S
Sm121 O146 2.543 . S
Sm121 O147 2.450 . S
Sm121 O148 2.681 . S
Sm121 O149 2.464 . S
Sm121 O150 2.396 . S
C122 Sm120 2.846 . S
C122 C123 1.506 . S
C122 O140 1.261 . S
C122 O141 1.242 . S
C123 C122 1.506 . S
C123 C124 1.358 . S
C123 C128 1.382 . S
C124 C123 1.358 . S
C124 C125 1.385 . S
C124 H152 0.930 . S
C125 C124 1.385 . S
C125 C126 1.395 . S
C125 H153 0.929 . S
C126 C125 1.395 . S
C126 C127 1.335 . S
C127 C126 1.335 . S
C127 C128 1.398 . S
C127 H154 0.930 . S
C128 C123 1.382 . S
C128 C127 1.398 . S
C128 H155 0.929 . S
C129 O142 1.271 . S
C129 O143 1.251 . S
C130 O144 1.252 . S
C130 O145 1.272 . S
C131 Sm121 2.846 . S
C131 C132 1.506 . S
C131 O146 1.261 . S
C131 O147 1.242 . S
C132 C131 1.506 . S
C132 C133 1.358 . S
C132 C137 1.382 . S
C133 C132 1.358 . S
C133 C134 1.385 . S
C133 H156 0.930 . S
C134 C133 1.385 . S
C134 C135 1.395 . S
C134 H157 0.929 . S
C135 C134 1.395 . S
C135 C136 1.335 . S
C136 C135 1.335 . S
C136 C137 1.398 . S
C136 H158 0.930 . S
C137 C132 1.382 . S
C137 C136 1.398 . S
C137 H159 0.929 . S
C138 O148 1.271 . S
C138 O149 1.251 . S
C139 O150 1.252 . S
C139 O151 1.272 . S
O140 Sm120 2.543 . S
O140 C122 1.261 . S
O141 Sm120 2.450 . S
O141 C122 1.242 . S
O142 Sm120 2.681 . S
O142 Sm121 2.386 . S
O142 C129 1.271 . S
O143 Sm120 2.464 . S
O143 C129 1.251 . S
O144 Sm120 2.396 . S
O144 C130 1.252 . S
O145 Sm121 2.408 . S
O145 C130 1.272 . S
O146 Sm121 2.543 . S
O146 C131 1.261 . S
O147 Sm121 2.450 . S
O147 C131 1.242 . S
O148 Sm120 2.386 . S
O148 Sm121 2.681 . S
O148 C138 1.271 . S
O149 Sm121 2.464 . S
O149 C138 1.251 . S
O150 Sm121 2.396 . S
O150 C139 1.252 . S
O151 Sm120 2.408 . S
O151 C139 1.272 . S
H152 C124 0.930 . S
H153 C125 0.929 . S
H154 C127 0.930 . S
H155 C128 0.929 . S
H156 C133 0.930 . S
H157 C134 0.929 . S
H158 C136 0.930 . S
H159 C137 0.929 . S
Sm160 C162 2.846 . S
Sm160 O180 2.543 . S
Sm160 O181 2.450 . S
Sm160 O182 2.681 . S
Sm160 O183 2.464 . S
Sm160 O184 2.396 . S
Sm160 O188 2.386 . S
Sm160 O191 2.408 . S
Sm161 C171 2.846 . S
Sm161 O182 2.386 . S
Sm161 O185 2.408 . S
Sm161 O186 2.543 . S
Sm161 O187 2.450 . S
Sm161 O188 2.681 . S
Sm161 O189 2.464 . S
Sm161 O190 2.396 . S
C162 Sm160 2.846 . S
C162 C163 1.506 . S
C162 O180 1.261 . S
C162 O181 1.242 . S
C163 C162 1.506 . S
C163 C164 1.358 . S
C163 C168 1.382 . S
C164 C163 1.358 . S
C164 C165 1.385 . S
C164 H192 0.930 . S
C165 C164 1.385 . S
C165 C166 1.395 . S
C165 H193 0.929 . S
C166 C165 1.395 . S
C166 C167 1.335 . S
C167 C166 1.335 . S
C167 C168 1.398 . S
C167 H194 0.930 . S
C168 C163 1.382 . S
C168 C167 1.398 . S
C168 H195 0.929 . S
C169 O182 1.271 . S
C169 O183 1.251 . S
C170 O184 1.252 . S
C170 O185 1.272 . S
C171 Sm161 2.846 . S
C171 C172 1.506 . S
C171 O186 1.261 . S
C171 O187 1.242 . S
C172 C171 1.506 . S
C172 C173 1.358 . S
C172 C177 1.382 . S
C173 C172 1.358 . S
C173 C174 1.385 . S
C173 H196 0.930 . S
C174 C173 1.385 . S
C174 C175 1.395 . S
C174 H197 0.929 . S
C175 C174 1.395 . S
C175 C176 1.335 . S
C176 C175 1.335 . S
C176 C177 1.398 . S
C176 H198 0.930 . S
C177 C172 1.382 . S
C177 C176 1.398 . S
C177 H199 0.929 . S
C178 O188 1.271 . S
C178 O189 1.251 . S
C179 O190 1.252 . S
C179 O191 1.272 . S
O180 Sm160 2.543 . S
O180 C162 1.261 . S
O181 Sm160 2.450 . S
O181 C162 1.242 . S
O182 Sm160 2.681 . S
O182 Sm161 2.386 . S
O182 C169 1.271 . S
O183 Sm160 2.464 . S
O183 C169 1.251 . S
O184 Sm160 2.396 . S
O184 C170 1.252 . S
O185 Sm161 2.408 . S
O185 C170 1.272 . S
O186 Sm161 2.543 . S
O186 C171 1.261 . S
O187 Sm161 2.450 . S
O187 C171 1.242 . S
O188 Sm160 2.386 . S
O188 Sm161 2.681 . S
O188 C178 1.271 . S
O189 Sm161 2.464 . S
O189 C178 1.251 . S
O190 Sm161 2.396 . S
O190 C179 1.252 . S
O191 Sm160 2.408 . S
O191 C179 1.272 . S
H192 C164 0.930 . S
H193 C165 0.929 . S
H194 C167 0.930 . S
H195 C168 0.929 . S
H196 C173 0.930 . S
H197 C174 0.929 . S
H198 C176 0.930 . S
H199 C177 0.929 . S
Sm200 C202 2.846 1_556 S
Sm200 O220 2.543 . S
Sm200 O221 2.450 . S
Sm200 O222 2.681 . S
Sm200 O223 2.464 . S
Sm200 O224 2.396 . S
Sm200 O228 2.386 . S
Sm200 O231 2.408 . S
Sm201 C211 2.846 . S
Sm201 O222 2.386 . S
Sm201 O225 2.408 . S
Sm201 O226 2.543 . S
Sm201 O227 2.450 . S
Sm201 O228 2.681 . S
Sm201 O229 2.464 . S
Sm201 O230 2.396 . S
C202 Sm200 2.846 1_554 S
C202 C203 1.506 . S
C202 O220 1.261 1_554 S
C202 O221 1.242 1_554 S
C203 C202 1.506 . S
C203 C204 1.358 . S
C203 C208 1.382 . S
C204 C203 1.358 . S
C204 C205 1.385 . S
C204 H232 0.930 . S
C205 C204 1.385 . S
C205 C206 1.395 . S
C205 H233 0.929 . S
C206 C205 1.395 . S
C206 C207 1.335 . S
C207 C206 1.335 . S
C207 C208 1.398 . S
C207 H234 0.930 . S
C208 C203 1.382 . S
C208 C207 1.398 . S
C208 H235 0.929 . S
C209 O222 1.271 . S
C209 O223 1.251 . S
C210 O224 1.252 . S
C210 O225 1.272 . S
C211 Sm201 2.846 . S
C211 C212 1.506 . S
C211 O226 1.261 . S
C211 O227 1.242 . S
C212 C211 1.506 . S
C212 C213 1.358 . S
C212 C217 1.382 . S
C213 C212 1.358 . S
C213 C214 1.385 . S
C213 H236 0.930 . S
C214 C213 1.385 . S
C214 C215 1.395 . S
C214 H237 0.929 . S
C215 C214 1.395 . S
C215 C216 1.335 . S
C216 C215 1.335 . S
C216 C217 1.398 . S
C216 H238 0.930 . S
C217 C212 1.382 . S
C217 C216 1.398 . S
C217 H239 0.929 . S
C218 O228 1.271 . S
C218 O229 1.251 . S
C219 O230 1.252 . S
C219 O231 1.272 . S
O220 Sm200 2.543 . S
O220 C202 1.261 1_556 S
O221 Sm200 2.450 . S
O221 C202 1.242 1_556 S
O222 Sm200 2.681 . S
O222 Sm201 2.386 . S
O222 C209 1.271 . S
O223 Sm200 2.464 . S
O223 C209 1.251 . S
O224 Sm200 2.396 . S
O224 C210 1.252 . S
O225 Sm201 2.408 . S
O225 C210 1.272 . S
O226 Sm201 2.543 . S
O226 C211 1.261 . S
O227 Sm201 2.450 . S
O227 C211 1.242 . S
O228 Sm200 2.386 . S
O228 Sm201 2.681 . S
O228 C218 1.271 . S
O229 Sm201 2.464 . S
O229 C218 1.251 . S
O230 Sm201 2.396 . S
O230 C219 1.252 . S
O231 Sm200 2.408 . S
O231 C219 1.272 . S
H232 C204 0.930 . S
H233 C205 0.929 . S
H234 C207 0.930 . S
H235 C208 0.929 . S
H236 C213 0.930 . S
H237 C214 0.929 . S
H238 C216 0.930 . S
H239 C217 0.929 . S
Sm240 C242 2.846 . S
Sm240 O260 2.543 . S
Sm240 O261 2.450 . S
Sm240 O262 2.681 . S
Sm240 O263 2.464 . S
Sm240 O264 2.396 . S
Sm240 O268 2.386 . S
Sm240 O271 2.408 . S
Sm241 C251 2.846 . S
Sm241 O262 2.386 . S
Sm241 O265 2.408 . S
Sm241 O266 2.543 . S
Sm241 O267 2.450 . S
Sm241 O268 2.681 . S
Sm241 O269 2.464 . S
Sm241 O270 2.396 . S
C242 Sm240 2.846 . S
C242 C243 1.506 . S
C242 O260 1.261 . S
C242 O261 1.242 . S
C243 C242 1.506 . S
C243 C244 1.358 . S
C243 C248 1.382 . S
C244 C243 1.358 . S
C244 C245 1.385 . S
C244 H272 0.930 . S
C245 C244 1.385 . S
C245 C246 1.395 . S
C245 H273 0.929 . S
C246 C245 1.395 . S
C246 C247 1.335 . S
C247 C246 1.335 . S
C247 C248 1.398 . S
C247 H274 0.930 . S
C248 C243 1.382 . S
C248 C247 1.398 . S
C248 H275 0.929 . S
C249 O262 1.271 . S
C249 O263 1.251 . S
C250 O264 1.252 . S
C250 O265 1.272 . S
C251 Sm241 2.846 . S
C251 C252 1.506 . S
C251 O266 1.261 . S
C251 O267 1.242 . S
C252 C251 1.506 . S
C252 C253 1.358 . S
C252 C257 1.382 . S
C253 C252 1.358 . S
C253 C254 1.385 . S
C253 H276 0.930 . S
C254 C253 1.385 . S
C254 C255 1.395 . S
C254 H277 0.929 . S
C255 C254 1.395 . S
C255 C256 1.335 . S
C256 C255 1.335 . S
C256 C257 1.398 . S
C256 H278 0.930 . S
C257 C252 1.382 . S
C257 C256 1.398 . S
C257 H279 0.929 . S
C258 O268 1.271 . S
C258 O269 1.251 . S
C259 O270 1.252 . S
C259 O271 1.272 . S
O260 Sm240 2.543 . S
O260 C242 1.261 . S
O261 Sm240 2.450 . S
O261 C242 1.242 . S
O262 Sm240 2.681 . S
O262 Sm241 2.386 . S
O262 C249 1.271 . S
O263 Sm240 2.464 . S
O263 C249 1.251 . S
O264 Sm240 2.396 . S
O264 C250 1.252 . S
O265 Sm241 2.408 . S
O265 C250 1.272 . S
O266 Sm241 2.543 . S
O266 C251 1.261 . S
O267 Sm241 2.450 . S
O267 C251 1.242 . S
O268 Sm240 2.386 . S
O268 Sm241 2.681 . S
O268 C258 1.271 . S
O269 Sm241 2.464 . S
O269 C258 1.251 . S
O270 Sm241 2.396 . S
O270 C259 1.252 . S
O271 Sm240 2.408 . S
O271 C259 1.272 . S
H272 C244 0.930 . S
H273 C245 0.929 . S
H274 C247 0.930 . S
H275 C248 0.929 . S
H276 C253 0.930 . S
H277 C254 0.929 . S
H278 C256 0.930 . S
H279 C257 0.929 . S
Sm280 C282 2.846 . S
Sm280 O300 2.543 . S
Sm280 O301 2.450 . S
Sm280 O302 2.681 . S
Sm280 O303 2.464 . S
Sm280 O304 2.396 . S
Sm280 O308 2.386 . S
Sm280 O311 2.408 . S
Sm281 C291 2.846 . S
Sm281 O302 2.386 . S
Sm281 O305 2.408 . S
Sm281 O306 2.543 . S
Sm281 O307 2.450 . S
Sm281 O308 2.681 . S
Sm281 O309 2.464 . S
Sm281 O310 2.396 . S
C282 Sm280 2.846 . S
C282 C283 1.506 . S
C282 O300 1.261 . S
C282 O301 1.242 . S
C283 C282 1.506 . S
C283 C284 1.358 . S
C283 C288 1.382 . S
C284 C283 1.358 . S
C284 C285 1.385 . S
C284 H312 0.930 . S
C285 C284 1.385 . S
C285 C286 1.395 . S
C285 H313 0.929 . S
C286 C285 1.395 . S
C286 C287 1.335 . S
C287 C286 1.335 . S
C287 C288 1.398 . S
C287 H314 0.930 . S
C288 C283 1.382 . S
C288 C287 1.398 . S
C288 H315 0.929 . S
C289 O302 1.271 . S
C289 O303 1.251 . S
C290 O304 1.252 . S
C290 O305 1.272 . S
C291 Sm281 2.846 . S
C291 C292 1.506 . S
C291 O306 1.261 . S
C291 O307 1.242 . S
C292 C291 1.506 . S
C292 C293 1.358 . S
C292 C297 1.382 . S
C293 C292 1.358 . S
C293 C294 1.385 . S
C293 H316 0.930 . S
C294 C293 1.385 . S
C294 C295 1.395 . S
C294 H317 0.929 . S
C295 C294 1.395 . S
C295 C296 1.335 . S
C296 C295 1.335 . S
C296 C297 1.398 . S
C296 H318 0.930 . S
C297 C292 1.382 . S
C297 C296 1.398 . S
C297 H319 0.929 . S
C298 O308 1.271 . S
C298 O309 1.251 . S
C299 O310 1.252 . S
C299 O311 1.272 . S
O300 Sm280 2.543 . S
O300 C282 1.261 . S
O301 Sm280 2.450 . S
O301 C282 1.242 . S
O302 Sm280 2.681 . S
O302 Sm281 2.386 . S
O302 C289 1.271 . S
O303 Sm280 2.464 . S
O303 C289 1.251 . S
O304 Sm280 2.396 . S
O304 C290 1.252 . S
O305 Sm281 2.408 . S
O305 C290 1.272 . S
O306 Sm281 2.543 . S
O306 C291 1.261 . S
O307 Sm281 2.450 . S
O307 C291 1.242 . S
O308 Sm280 2.386 . S
O308 Sm281 2.681 . S
O308 C298 1.271 . S
O309 Sm281 2.464 . S
O309 C298 1.251 . S
O310 Sm281 2.396 . S
O310 C299 1.252 . S
O311 Sm280 2.408 . S
O311 C299 1.272 . S
H312 C284 0.930 . S
H313 C285 0.929 . S
H314 C287 0.930 . S
H315 C288 0.929 . S
H316 C293 0.930 . S
H317 C294 0.929 . S
H318 C296 0.930 . S
H319 C297 0.929 . S
Sm320 C322 2.846 1_554 S
Sm320 O340 2.543 . S
Sm320 O341 2.450 . S
Sm320 O342 2.681 . S
Sm320 O343 2.464 . S
Sm320 O344 2.396 . S
Sm320 O348 2.386 . S
Sm320 O351 2.408 . S
Sm321 C331 2.846 . S
Sm321 O342 2.386 . S
Sm321 O345 2.408 . S
Sm321 O346 2.543 . S
Sm321 O347 2.450 . S
Sm321 O348 2.681 . S
Sm321 O349 2.464 . S
Sm321 O350 2.396 . S
C322 Sm320 2.846 1_556 S
C322 C323 1.506 . S
C322 O340 1.261 1_556 S
C322 O341 1.242 1_556 S
C323 C322 1.506 . S
C323 C324 1.358 . S
C323 C328 1.382 . S
C324 C323 1.358 . S
C324 C325 1.385 . S
C324 H352 0.930 . S
C325 C324 1.385 . S
C325 C326 1.395 . S
C325 H353 0.929 . S
C326 C325 1.395 . S
C326 C327 1.335 . S
C327 C326 1.335 . S
C327 C328 1.398 . S
C327 H354 0.930 . S
C328 C323 1.382 . S
C328 C327 1.398 . S
C328 H355 0.929 . S
C329 O342 1.271 . S
C329 O343 1.251 . S
C330 O344 1.252 . S
C330 O345 1.272 . S
C331 Sm321 2.846 . S
C331 C332 1.506 . S
C331 O346 1.261 . S
C331 O347 1.242 . S
C332 C331 1.506 . S
C332 C333 1.358 . S
C332 C337 1.382 . S
C333 C332 1.358 . S
C333 C334 1.385 . S
C333 H356 0.930 . S
C334 C333 1.385 . S
C334 C335 1.395 . S
C334 H357 0.929 . S
C335 C334 1.395 . S
C335 C336 1.335 . S
C336 C335 1.335 . S
C336 C337 1.398 . S
C336 H358 0.930 . S
C337 C332 1.382 . S
C337 C336 1.398 . S
C337 H359 0.929 . S
C338 O348 1.271 . S
C338 O349 1.251 . S
C339 O350 1.252 . S
C339 O351 1.272 . S
O340 Sm320 2.543 . S
O340 C322 1.261 1_554 S
O341 Sm320 2.450 . S
O341 C322 1.242 1_554 S
O342 Sm320 2.681 . S
O342 Sm321 2.386 . S
O342 C329 1.271 . S
O343 Sm320 2.464 . S
O343 C329 1.251 . S
O344 Sm320 2.396 . S
O344 C330 1.252 . S
O345 Sm321 2.408 . S
O345 C330 1.272 . S
O346 Sm321 2.543 . S
O346 C331 1.261 . S
O347 Sm321 2.450 . S
O347 C331 1.242 . S
O348 Sm320 2.386 . S
O348 Sm321 2.681 . S
O348 C338 1.271 . S
O349 Sm321 2.464 . S
O349 C338 1.251 . S
O350 Sm321 2.396 . S
O350 C339 1.252 . S
O351 Sm320 2.408 . S
O351 C339 1.272 . S
H352 C324 0.930 . S
H353 C325 0.929 . S
H354 C327 0.930 . S
H355 C328 0.929 . S
H356 C333 0.930 . S
H357 C334 0.929 . S
H358 C336 0.930 . S
H359 C337 0.929 . S
Sm360 C362 2.846 . S
Sm360 O380 2.543 . S
Sm360 O381 2.450 . S
Sm360 O382 2.681 . S
Sm360 O383 2.464 . S
Sm360 O384 2.396 . S
Sm360 O388 2.386 . S
Sm360 O391 2.408 . S
Sm361 C371 2.846 . S
Sm361 O382 2.386 . S
Sm361 O385 2.408 . S
Sm361 O386 2.543 . S
Sm361 O387 2.450 . S
Sm361 O388 2.681 . S
Sm361 O389 2.464 . S
Sm361 O390 2.396 . S
C362 Sm360 2.846 . S
C362 C363 1.506 . S
C362 O380 1.261 . S
C362 O381 1.242 . S
C363 C362 1.506 . S
C363 C364 1.358 . S
C363 C368 1.382 . S
C364 C363 1.358 . S
C364 C365 1.385 . S
C364 H392 0.930 . S
C365 C364 1.385 . S
C365 C366 1.395 . S
C365 H393 0.929 . S
C366 C365 1.395 . S
C366 C367 1.335 . S
C367 C366 1.335 . S
C367 C368 1.398 . S
C367 H394 0.930 . S
C368 C363 1.382 . S
C368 C367 1.398 . S
C368 H395 0.929 . S
C369 O382 1.271 . S
C369 O383 1.251 . S
C370 O384 1.252 . S
C370 O385 1.272 . S
C371 Sm361 2.846 . S
C371 C372 1.506 . S
C371 O386 1.261 . S
C371 O387 1.242 . S
C372 C371 1.506 . S
C372 C373 1.358 . S
C372 C377 1.382 . S
C373 C372 1.358 . S
C373 C374 1.385 . S
C373 H396 0.930 . S
C374 C373 1.385 . S
C374 C375 1.395 . S
C374 H397 0.929 . S
C375 C374 1.395 . S
C375 C376 1.335 . S
C376 C375 1.335 . S
C376 C377 1.398 . S
C376 H398 0.930 . S
C377 C372 1.382 . S
C377 C376 1.398 . S
C377 H399 0.929 . S
C378 O388 1.271 . S
C378 O389 1.251 . S
C379 O390 1.252 . S
C379 O391 1.272 . S
O380 Sm360 2.543 . S
O380 C362 1.261 . S
O381 Sm360 2.450 . S
O381 C362 1.242 . S
O382 Sm360 2.681 . S
O382 Sm361 2.386 . S
O382 C369 1.271 . S
O383 Sm360 2.464 . S
O383 C369 1.251 . S
O384 Sm360 2.396 . S
O384 C370 1.252 . S
O385 Sm361 2.408 . S
O385 C370 1.272 . S
O386 Sm361 2.543 . S
O386 C371 1.261 . S
O387 Sm361 2.450 . S
O387 C371 1.242 . S
O388 Sm360 2.386 . S
O388 Sm361 2.681 . S
O388 C378 1.271 . S
O389 Sm361 2.464 . S
O389 C378 1.251 . S
O390 Sm361 2.396 . S
O390 C379 1.252 . S
O391 Sm360 2.408 . S
O391 C379 1.272 . S
H392 C364 0.930 . S
H393 C365 0.929 . S
H394 C367 0.930 . S
H395 C368 0.929 . S
H396 C373 0.930 . S
H397 C374 0.929 . S
H398 C376 0.930 . S
H399 C377 0.929 . S
Sm400 C402 2.846 . S
Sm400 O420 2.543 . S
Sm400 O421 2.450 . S
Sm400 O422 2.681 . S
Sm400 O423 2.464 . S
Sm400 O424 2.396 . S
Sm400 O428 2.386 . S
Sm400 O431 2.408 . S
Sm401 C411 2.846 . S
Sm401 O422 2.386 . S
Sm401 O425 2.408 . S
Sm401 O426 2.543 . S
Sm401 O427 2.450 . S
Sm401 O428 2.681 . S
Sm401 O429 2.464 . S
Sm401 O430 2.396 . S
C402 Sm400 2.846 . S
C402 C403 1.506 . S
C402 O420 1.261 . S
C402 O421 1.242 . S
C403 C402 1.506 . S
C403 C404 1.358 . S
C403 C408 1.382 . S
C404 C403 1.358 . S
C404 C405 1.385 . S
C404 H432 0.930 . S
C405 C404 1.385 . S
C405 C406 1.395 . S
C405 H433 0.929 . S
C406 C405 1.395 . S
C406 C407 1.335 . S
C407 C406 1.335 . S
C407 C408 1.398 . S
C407 H434 0.930 . S
C408 C403 1.382 . S
C408 C407 1.398 . S
C408 H435 0.929 . S
C409 O422 1.271 . S
C409 O423 1.251 . S
C410 O424 1.252 . S
C410 O425 1.272 . S
C411 Sm401 2.846 . S
C411 C412 1.506 . S
C411 O426 1.261 . S
C411 O427 1.242 . S
C412 C411 1.506 . S
C412 C413 1.358 . S
C412 C417 1.382 . S
C413 C412 1.358 . S
C413 C414 1.385 . S
C413 H436 0.930 . S
C414 C413 1.385 . S
C414 C415 1.395 . S
C414 H437 0.929 . S
C415 C414 1.395 . S
C415 C416 1.335 . S
C416 C415 1.335 . S
C416 C417 1.398 . S
C416 H438 0.930 . S
C417 C412 1.382 . S
C417 C416 1.398 . S
C417 H439 0.929 . S
C418 O428 1.271 . S
C418 O429 1.251 . S
C419 O430 1.252 . S
C419 O431 1.272 . S
O420 Sm400 2.543 . S
O420 C402 1.261 . S
O421 Sm400 2.450 . S
O421 C402 1.242 . S
O422 Sm400 2.681 . S
O422 Sm401 2.386 . S
O422 C409 1.271 . S
O423 Sm400 2.464 . S
O423 C409 1.251 . S
O424 Sm400 2.396 . S
O424 C410 1.252 . S
O425 Sm401 2.408 . S
O425 C410 1.272 . S
O426 Sm401 2.543 . S
O426 C411 1.261 . S
O427 Sm401 2.450 . S
O427 C411 1.242 . S
O428 Sm400 2.386 . S
O428 Sm401 2.681 . S
O428 C418 1.271 . S
O429 Sm401 2.464 . S
O429 C418 1.251 . S
O430 Sm401 2.396 . S
O430 C419 1.252 . S
O431 Sm400 2.408 . S
O431 C419 1.272 . S
H432 C404 0.930 . S
H433 C405 0.929 . S
H434 C407 0.930 . S
H435 C408 0.929 . S
H436 C413 0.930 . S
H437 C414 0.929 . S
H438 C416 0.930 . S
H439 C417 0.929 . S
Sm440 C442 2.846 1_554 S
Sm440 O460 2.543 . S
Sm440 O461 2.450 . S
Sm440 O462 2.681 . S
Sm440 O463 2.464 . S
Sm440 O464 2.396 . S
Sm440 O468 2.386 . S
Sm440 O471 2.408 . S
Sm441 C451 2.846 . S
Sm441 O462 2.386 . S
Sm441 O465 2.408 . S
Sm441 O466 2.543 . S
Sm441 O467 2.450 . S
Sm441 O468 2.681 . S
Sm441 O469 2.464 . S
Sm441 O470 2.396 . S
C442 Sm440 2.846 1_556 S
C442 C443 1.506 . S
C442 O460 1.261 1_556 S
C442 O461 1.242 1_556 S
C443 C442 1.506 . S
C443 C444 1.358 . S
C443 C448 1.382 . S
C444 C443 1.358 . S
C444 C445 1.385 . S
C444 H472 0.930 . S
C445 C444 1.385 . S
C445 C446 1.395 . S
C445 H473 0.929 . S
C446 C445 1.395 . S
C446 C447 1.335 . S
C447 C446 1.335 . S
C447 C448 1.398 . S
C447 H474 0.930 . S
C448 C443 1.382 . S
C448 C447 1.398 . S
C448 H475 0.929 . S
C449 O462 1.271 . S
C449 O463 1.251 . S
C450 O464 1.252 . S
C450 O465 1.272 . S
C451 Sm441 2.846 . S
C451 C452 1.506 . S
C451 O466 1.261 . S
C451 O467 1.242 . S
C452 C451 1.506 . S
C452 C453 1.358 . S
C452 C457 1.382 . S
C453 C452 1.358 . S
C453 C454 1.385 . S
C453 H476 0.930 . S
C454 C453 1.385 . S
C454 C455 1.395 . S
C454 H477 0.929 . S
C455 C454 1.395 . S
C455 C456 1.335 . S
C456 C455 1.335 . S
C456 C457 1.398 . S
C456 H478 0.930 . S
C457 C452 1.382 . S
C457 C456 1.398 . S
C457 H479 0.929 . S
C458 O468 1.271 . S
C458 O469 1.251 . S
C459 O470 1.252 . S
C459 O471 1.272 . S
O460 Sm440 2.543 . S
O460 C442 1.261 1_554 S
O461 Sm440 2.450 . S
O461 C442 1.242 1_554 S
O462 Sm440 2.681 . S
O462 Sm441 2.386 . S
O462 C449 1.271 . S
O463 Sm440 2.464 . S
O463 C449 1.251 . S
O464 Sm440 2.396 . S
O464 C450 1.252 . S
O465 Sm441 2.408 . S
O465 C450 1.272 . S
O466 Sm441 2.543 . S
O466 C451 1.261 . S
O467 Sm441 2.450 . S
O467 C451 1.242 . S
O468 Sm440 2.386 . S
O468 Sm441 2.681 . S
O468 C458 1.271 . S
O469 Sm441 2.464 . S
O469 C458 1.251 . S
O470 Sm441 2.396 . S
O470 C459 1.252 . S
O471 Sm440 2.408 . S
O471 C459 1.272 . S
H472 C444 0.930 . S
H473 C445 0.929 . S
H474 C447 0.930 . S
H475 C448 0.929 . S
H476 C453 0.930 . S
H477 C454 0.929 . S
H478 C456 0.930 . S
H479 C457 0.929 . S
C480 C481 1.391 . S
C480 C482 1.394 . S
C480 H496 0.931 . S
C481 C480 1.391 . S
C481 C485 1.376 . S
C482 C480 1.394 . S
C482 C483 1.369 . S
C482 C486 1.531 . S
C483 C482 1.369 . S
C483 C484 1.410 . S
C483 C491 1.503 . S
C484 C483 1.410 . S
C484 C485 1.392 . S
C484 C487 1.511 . S
C485 C481 1.376 . S
C485 C484 1.392 . S
C485 H497 0.929 . S
C486 C482 1.531 . S
C486 H498 0.960 . S
C486 H499 0.962 . S
C486 H500 0.960 . S
C487 C484 1.511 . S
C487 H501 0.961 . S
C487 H502 0.961 . S
C487 H503 0.961 . S
C488 C489 1.370 . S
C488 C490 1.363 . S
C488 H504 0.931 . S
C489 C488 1.370 . S
C489 C493 1.408 . S
C490 C488 1.363 . S
C490 C491 1.370 . S
C490 C494 1.524 . S
C491 C483 1.503 . S
C491 C490 1.370 . S
C491 C492 1.403 . S
C492 C491 1.403 . S
C492 C493 1.404 . S
C492 C495 1.539 . S
C493 C489 1.408 . S
C493 C492 1.404 . S
C493 H505 0.930 . S
C494 C490 1.524 . S
C494 H506 0.956 . S
C494 H507 0.961 . S
C494 H508 0.961 . S
C495 C492 1.539 . S
C495 H509 0.958 . S
C495 H510 0.961 . S
C495 H511 0.960 . S
H496 C480 0.931 . S
H497 C485 0.929 . S
H498 C486 0.960 . S
H499 C486 0.962 . S
H500 C486 0.960 . S
H501 C487 0.961 . S
H502 C487 0.961 . S
H503 C487 0.961 . S
H504 C488 0.931 . S
H505 C493 0.930 . S
H506 C494 0.956 . S
H507 C494 0.961 . S
H508 C494 0.961 . S
H509 C495 0.958 . S
H510 C495 0.961 . S
H511 C495 0.960 . S
C512 C513 1.391 . S
C512 C514 1.394 . S
C512 H528 0.931 . S
C513 C512 1.391 . S
C513 C517 1.376 . S
C514 C512 1.394 . S
C514 C515 1.369 . S
C514 C518 1.531 . S
C515 C514 1.369 . S
C515 C516 1.410 . S
C515 C523 1.503 . S
C516 C515 1.410 . S
C516 C517 1.392 . S
C516 C519 1.511 . S
C517 C513 1.376 . S
C517 C516 1.392 . S
C517 H529 0.929 . S
C518 C514 1.531 . S
C518 H530 0.960 . S
C518 H531 0.962 . S
C518 H532 0.960 . S
C519 C516 1.511 . S
C519 H533 0.961 . S
C519 H534 0.961 . S
C519 H535 0.961 . S
C520 C521 1.370 . S
C520 C522 1.363 . S
C520 H536 0.931 . S
C521 C520 1.370 . S
C521 C525 1.408 . S
C522 C520 1.363 . S
C522 C523 1.370 . S
C522 C526 1.524 . S
C523 C515 1.503 . S
C523 C522 1.370 . S
C523 C524 1.403 . S
C524 C523 1.403 . S
C524 C525 1.404 . S
C524 C527 1.539 . S
C525 C521 1.408 . S
C525 C524 1.404 . S
C525 H537 0.930 . S
C526 C522 1.524 . S
C526 H538 0.956 . S
C526 H539 0.961 . S
C526 H540 0.961 . S
C527 C524 1.539 . S
C527 H541 0.958 . S
C527 H542 0.961 . S
C527 H543 0.960 . S
H528 C512 0.931 . S
H529 C517 0.929 . S
H530 C518 0.960 . S
H531 C518 0.962 . S
H532 C518 0.960 . S
H533 C519 0.961 . S
H534 C519 0.961 . S
H535 C519 0.961 . S
H536 C520 0.931 . S
H537 C525 0.930 . S
H538 C526 0.956 . S
H539 C526 0.961 . S
H540 C526 0.961 . S
H541 C527 0.958 . S
H542 C527 0.961 . S
H543 C527 0.960 . S
C544 C545 1.391 . S
C544 C546 1.394 . S
C544 H560 0.931 . S
C545 C544 1.391 . S
C545 C549 1.376 . S
C546 C544 1.394 . S
C546 C547 1.369 . S
C546 C550 1.531 . S
C547 C546 1.369 . S
C547 C548 1.410 . S
C547 C555 1.503 . S
C548 C547 1.410 . S
C548 C549 1.392 . S
C548 C551 1.511 . S
C549 C545 1.376 . S
C549 C548 1.392 . S
C549 H561 0.929 . S
C550 C546 1.531 . S
C550 H562 0.960 . S
C550 H563 0.962 . S
C550 H564 0.960 . S
C551 C548 1.511 . S
C551 H565 0.961 . S
C551 H566 0.961 . S
C551 H567 0.961 . S
C552 C553 1.370 . S
C552 C554 1.363 . S
C552 H568 0.931 . S
C553 C552 1.370 . S
C553 C557 1.408 . S
C554 C552 1.363 . S
C554 C555 1.370 . S
C554 C558 1.524 . S
C555 C547 1.503 . S
C555 C554 1.370 . S
C555 C556 1.403 . S
C556 C555 1.403 . S
C556 C557 1.404 . S
C556 C559 1.539 . S
C557 C553 1.408 . S
C557 C556 1.404 . S
C557 H569 0.930 . S
C558 C554 1.524 . S
C558 H570 0.956 . S
C558 H571 0.961 . S
C558 H572 0.961 . S
C559 C556 1.539 . S
C559 H573 0.958 . S
C559 H574 0.961 . S
C559 H575 0.960 . S
H560 C544 0.931 . S
H561 C549 0.929 . S
H562 C550 0.960 . S
H563 C550 0.962 . S
H564 C550 0.960 . S
H565 C551 0.961 . S
H566 C551 0.961 . S
H567 C551 0.961 . S
H568 C552 0.931 . S
H569 C557 0.930 . S
H570 C558 0.956 . S
H571 C558 0.961 . S
H572 C558 0.961 . S
H573 C559 0.958 . S
H574 C559 0.961 . S
H575 C559 0.960 . S
C576 C577 1.391 . S
C576 C578 1.394 . S
C576 H592 0.931 . S
C577 C576 1.391 . S
C577 C581 1.376 . S
C578 C576 1.394 . S
C578 C579 1.369 . S
C578 C582 1.531 . S
C579 C578 1.369 . S
C579 C580 1.410 . S
C579 C587 1.503 . S
C580 C579 1.410 . S
C580 C581 1.392 . S
C580 C583 1.511 . S
C581 C577 1.376 . S
C581 C580 1.392 . S
C581 H593 0.929 . S
C582 C578 1.531 . S
C582 H594 0.960 . S
C582 H595 0.962 . S
C582 H596 0.960 . S
C583 C580 1.511 . S
C583 H597 0.961 . S
C583 H598 0.961 . S
C583 H599 0.961 . S
C584 C585 1.370 . S
C584 C586 1.363 . S
C584 H600 0.931 . S
C585 C584 1.370 . S
C585 C589 1.408 . S
C586 C584 1.363 . S
C586 C587 1.370 . S
C586 C590 1.524 . S
C587 C579 1.503 . S
C587 C586 1.370 . S
C587 C588 1.403 . S
C588 C587 1.403 . S
C588 C589 1.404 . S
C588 C591 1.539 . S
C589 C585 1.408 . S
C589 C588 1.404 . S
C589 H601 0.930 . S
C590 C586 1.524 . S
C590 H602 0.956 . S
C590 H603 0.961 . S
C590 H604 0.961 . S
C591 C588 1.539 . S
C591 H605 0.958 . S
C591 H606 0.961 . S
C591 H607 0.960 . S
H592 C576 0.931 . S
H593 C581 0.929 . S
H594 C582 0.960 . S
H595 C582 0.962 . S
H596 C582 0.960 . S
H597 C583 0.961 . S
H598 C583 0.961 . S
H599 C583 0.961 . S
H600 C584 0.931 . S
H601 C589 0.930 . S
H602 C590 0.956 . S
H603 C590 0.961 . S
H604 C590 0.961 . S
H605 C591 0.958 . S
H606 C591 0.961 . S
H607 C591 0.960 . S
C608 C609 1.391 . S
C608 C610 1.394 . S
C608 H624 0.931 . S
C609 C608 1.391 . S
C609 C613 1.376 . S
C610 C608 1.394 . S
C610 C611 1.369 . S
C610 C614 1.531 . S
C611 C610 1.369 . S
C611 C612 1.410 . S
C611 C619 1.503 . S
C612 C611 1.410 . S
C612 C613 1.392 . S
C612 C615 1.511 . S
C613 C609 1.376 . S
C613 C612 1.392 . S
C613 H625 0.929 . S
C614 C610 1.531 . S
C614 H626 0.960 . S
C614 H627 0.962 . S
C614 H628 0.960 . S
C615 C612 1.511 . S
C615 H629 0.961 . S
C615 H630 0.961 . S
C615 H631 0.961 . S
C616 C617 1.370 . S
C616 C618 1.363 . S
C616 H632 0.931 . S
C617 C616 1.370 . S
C617 C621 1.408 . S
C618 C616 1.363 . S
C618 C619 1.370 . S
C618 C622 1.524 . S
C619 C611 1.503 . S
C619 C618 1.370 . S
C619 C620 1.403 . S
C620 C619 1.403 . S
C620 C621 1.404 . S
C620 C623 1.539 . S
C621 C617 1.408 . S
C621 C620 1.404 . S
C621 H633 0.930 . S
C622 C618 1.524 . S
C622 H634 0.956 . S
C622 H635 0.961 . S
C622 H636 0.961 . S
C623 C620 1.539 . S
C623 H637 0.958 . S
C623 H638 0.961 . S
C623 H639 0.960 . S
H624 C608 0.931 . S
H625 C613 0.929 . S
H626 C614 0.960 . S
H627 C614 0.962 . S
H628 C614 0.960 . S
H629 C615 0.961 . S
H630 C615 0.961 . S
H631 C615 0.961 . S
H632 C616 0.931 . S
H633 C621 0.930 . S
H634 C622 0.956 . S
H635 C622 0.961 . S
H636 C622 0.961 . S
H637 C623 0.958 . S
H638 C623 0.961 . S
H639 C623 0.960 . S
C640 C641 1.391 . S
C640 C642 1.394 . S
C640 H656 0.931 . S
C641 C640 1.391 . S
C641 C645 1.376 . S
C642 C640 1.394 . S
C642 C643 1.369 . S
C642 C646 1.531 . S
C643 C642 1.369 . S
C643 C644 1.410 . S
C643 C651 1.503 . S
C644 C643 1.410 . S
C644 C645 1.392 . S
C644 C647 1.511 . S
C645 C641 1.376 . S
C645 C644 1.392 . S
C645 H657 0.929 . S
C646 C642 1.531 . S
C646 H658 0.960 . S
C646 H659 0.962 . S
C646 H660 0.960 . S
C647 C644 1.511 . S
C647 H661 0.961 . S
C647 H662 0.961 . S
C647 H663 0.961 . S
C648 C649 1.370 . S
C648 C650 1.363 . S
C648 H664 0.931 . S
C649 C648 1.370 . S
C649 C653 1.408 . S
C650 C648 1.363 . S
C650 C651 1.370 . S
C650 C654 1.524 . S
C651 C643 1.503 . S
C651 C650 1.370 . S
C651 C652 1.403 . S
C652 C651 1.403 . S
C652 C653 1.404 . S
C652 C655 1.539 . S
C653 C649 1.408 . S
C653 C652 1.404 . S
C653 H665 0.930 . S
C654 C650 1.524 . S
C654 H666 0.956 . S
C654 H667 0.961 . S
C654 H668 0.961 . S
C655 C652 1.539 . S
C655 H669 0.958 . S
C655 H670 0.961 . S
C655 H671 0.960 . S
H656 C640 0.931 . S
H657 C645 0.929 . S
H658 C646 0.960 . S
H659 C646 0.962 . S
H660 C646 0.960 . S
H661 C647 0.961 . S
H662 C647 0.961 . S
H663 C647 0.961 . S
H664 C648 0.931 . S
H665 C653 0.930 . S
H666 C654 0.956 . S
H667 C654 0.961 . S
H668 C654 0.961 . S
H669 C655 0.958 . S
H670 C655 0.961 . S
H671 C655 0.960 . S
C672 C673 1.391 . S
C672 C674 1.394 . S
C672 H688 0.931 . S
C673 C672 1.391 . S
C673 C677 1.376 . S
C674 C672 1.394 . S
C674 C675 1.369 . S
C674 C678 1.531 . S
C675 C674 1.369 . S
C675 C676 1.410 . S
C675 C683 1.503 1_556 S
C676 C675 1.410 . S
C676 C677 1.392 . S
C676 C679 1.511 1_556 S
C677 C673 1.376 . S
C677 C676 1.392 . S
C677 H689 0.929 . S
C678 C674 1.531 . S
C678 H690 0.960 . S
C678 H691 0.962 . S
C678 H692 0.960 . S
C679 C676 1.511 1_554 S
C679 H693 0.961 . S
C679 H694 0.961 . S
C679 H695 0.961 . S
C680 C681 1.370 . S
C680 C682 1.363 . S
C680 H696 0.931 . S
C681 C680 1.370 . S
C681 C685 1.408 . S
C682 C680 1.363 . S
C682 C683 1.370 . S
C682 C686 1.524 1_554 S
C683 C675 1.503 1_554 S
C683 C682 1.370 . S
C683 C684 1.403 . S
C684 C683 1.403 . S
C684 C685 1.404 . S
C684 C687 1.539 . S
C685 C681 1.408 . S
C685 C684 1.404 . S
C685 H697 0.930 . S
C686 C682 1.524 1_556 S
C686 H698 0.956 . S
C686 H699 0.961 . S
C686 H700 0.961 . S
C687 C684 1.539 . S
C687 H701 0.958 . S
C687 H702 0.961 . S
C687 H703 0.960 . S
H688 C672 0.931 . S
H689 C677 0.929 . S
H690 C678 0.960 . S
H691 C678 0.962 . S
H692 C678 0.960 . S
H693 C679 0.961 . S
H694 C679 0.961 . S
H695 C679 0.961 . S
H696 C680 0.931 . S
H697 C685 0.930 . S
H698 C686 0.956 . S
H699 C686 0.961 . S
H700 C686 0.961 . S
H701 C687 0.958 . S
H702 C687 0.961 . S
H703 C687 0.960 . S
C704 C705 1.391 . S
C704 C706 1.394 . S
C704 H720 0.931 . S
C705 C704 1.391 . S
C705 C709 1.376 . S
C706 C704 1.394 . S
C706 C707 1.369 . S
C706 C710 1.531 . S
C707 C706 1.369 . S
C707 C708 1.410 . S
C707 C715 1.503 . S
C708 C707 1.410 . S
C708 C709 1.392 . S
C708 C711 1.511 . S
C709 C705 1.376 . S
C709 C708 1.392 . S
C709 H721 0.929 . S
C710 C706 1.531 . S
C710 H722 0.960 . S
C710 H723 0.962 . S
C710 H724 0.960 . S
C711 C708 1.511 . S
C711 H725 0.961 . S
C711 H726 0.961 . S
C711 H727 0.961 . S
C712 C713 1.370 . S
C712 C714 1.363 . S
C712 H728 0.931 . S
C713 C712 1.370 . S
C713 C717 1.408 . S
C714 C712 1.363 . S
C714 C715 1.370 . S
C714 C718 1.524 . S
C715 C707 1.503 . S
C715 C714 1.370 . S
C715 C716 1.403 . S
C716 C715 1.403 . S
C716 C717 1.404 . S
C716 C719 1.539 . S
C717 C713 1.408 . S
C717 C716 1.404 . S
C717 H729 0.930 . S
C718 C714 1.524 . S
C718 H730 0.956 . S
C718 H731 0.961 . S
C718 H732 0.961 . S
C719 C716 1.539 . S
C719 H733 0.958 . S
C719 H734 0.961 . S
C719 H735 0.960 . S
H720 C704 0.931 . S
H721 C709 0.929 . S
H722 C710 0.960 . S
H723 C710 0.962 . S
H724 C710 0.960 . S
H725 C711 0.961 . S
H726 C711 0.961 . S
H727 C711 0.961 . S
H728 C712 0.931 . S
H729 C717 0.930 . S
H730 C718 0.956 . S
H731 C718 0.961 . S
H732 C718 0.961 . S
H733 C719 0.958 . S
H734 C719 0.961 . S
H735 C719 0.960 . S
C736 C737 1.391 . S
C736 C738 1.394 . S
C736 H752 0.931 . S
C737 C736 1.391 . S
C737 C741 1.376 . S
C738 C736 1.394 . S
C738 C739 1.369 . S
C738 C742 1.531 . S
C739 C738 1.369 . S
C739 C740 1.410 . S
C739 C747 1.503 . S
C740 C739 1.410 . S
C740 C741 1.392 . S
C740 C743 1.511 . S
C741 C737 1.376 . S
C741 C740 1.392 . S
C741 H753 0.929 . S
C742 C738 1.531 . S
C742 H754 0.960 . S
C742 H755 0.962 . S
C742 H756 0.960 . S
C743 C740 1.511 . S
C743 H757 0.961 . S
C743 H758 0.961 . S
C743 H759 0.961 . S
C744 C745 1.370 . S
C744 C746 1.363 . S
C744 H760 0.931 . S
C745 C744 1.370 . S
C745 C749 1.408 . S
C746 C744 1.363 . S
C746 C747 1.370 . S
C746 C750 1.524 . S
C747 C739 1.503 . S
C747 C746 1.370 . S
C747 C748 1.403 . S
C748 C747 1.403 . S
C748 C749 1.404 . S
C748 C751 1.539 . S
C749 C745 1.408 . S
C749 C748 1.404 . S
C749 H761 0.930 . S
C750 C746 1.524 . S
C750 H762 0.956 . S
C750 H763 0.961 . S
C750 H764 0.961 . S
C751 C748 1.539 . S
C751 H765 0.958 . S
C751 H766 0.961 . S
C751 H767 0.960 . S
H752 C736 0.931 . S
H753 C741 0.929 . S
H754 C742 0.960 . S
H755 C742 0.962 . S
H756 C742 0.960 . S
H757 C743 0.961 . S
H758 C743 0.961 . S
H759 C743 0.961 . S
H760 C744 0.931 . S
H761 C749 0.930 . S
H762 C750 0.956 . S
H763 C750 0.961 . S
H764 C750 0.961 . S
H765 C751 0.958 . S
H766 C751 0.961 . S
H767 C751 0.960 . S
C768 C769 1.391 . S
C768 C770 1.394 . S
C768 H784 0.931 . S
C769 C768 1.391 . S
C769 C773 1.376 . S
C770 C768 1.394 . S
C770 C771 1.369 . S
C770 C774 1.531 . S
C771 C770 1.369 . S
C771 C772 1.410 . S
C771 C779 1.503 1_556 S
C772 C771 1.410 . S
C772 C773 1.392 . S
C772 C775 1.511 1_556 S
C773 C769 1.376 . S
C773 C772 1.392 . S
C773 H785 0.929 . S
C774 C770 1.531 . S
C774 H786 0.960 . S
C774 H787 0.962 . S
C774 H788 0.960 . S
C775 C772 1.511 1_554 S
C775 H789 0.961 . S
C775 H790 0.961 . S
C775 H791 0.961 . S
C776 C777 1.370 . S
C776 C778 1.363 . S
C776 H792 0.931 . S
C777 C776 1.370 . S
C777 C781 1.408 . S
C778 C776 1.363 . S
C778 C779 1.370 . S
C778 C782 1.524 1_554 S
C779 C771 1.503 1_554 S
C779 C778 1.370 . S
C779 C780 1.403 . S
C780 C779 1.403 . S
C780 C781 1.404 . S
C780 C783 1.539 . S
C781 C777 1.408 . S
C781 C780 1.404 . S
C781 H793 0.930 . S
C782 C778 1.524 1_556 S
C782 H794 0.956 . S
C782 H795 0.961 . S
C782 H796 0.961 . S
C783 C780 1.539 . S
C783 H797 0.958 . S
C783 H798 0.961 . S
C783 H799 0.960 . S
H784 C768 0.931 . S
H785 C773 0.929 . S
H786 C774 0.960 . S
H787 C774 0.962 . S
H788 C774 0.960 . S
H789 C775 0.961 . S
H790 C775 0.961 . S
H791 C775 0.961 . S
H792 C776 0.931 . S
H793 C781 0.930 . S
H794 C782 0.956 . S
H795 C782 0.961 . S
H796 C782 0.961 . S
H797 C783 0.958 . S
H798 C783 0.961 . S
H799 C783 0.960 . S
C800 C801 1.391 . S
C800 C802 1.394 . S
C800 H816 0.931 . S
C801 C800 1.391 . S
C801 C805 1.376 . S
C802 C800 1.394 . S
C802 C803 1.369 . S
C802 C806 1.531 . S
C803 C802 1.369 . S
C803 C804 1.410 . S
C803 C811 1.503 . S
C804 C803 1.410 . S
C804 C805 1.392 . S
C804 C807 1.511 . S
C805 C801 1.376 . S
C805 C804 1.392 . S
C805 H817 0.929 . S
C806 C802 1.531 . S
C806 H818 0.960 . S
C806 H819 0.962 . S
C806 H820 0.960 . S
C807 C804 1.511 . S
C807 H821 0.961 . S
C807 H822 0.961 . S
C807 H823 0.961 . S
C808 C809 1.370 . S
C808 C810 1.363 . S
C808 H824 0.931 . S
C809 C808 1.370 . S
C809 C813 1.408 . S
C810 C808 1.363 . S
C810 C811 1.370 . S
C810 C814 1.524 . S
C811 C803 1.503 . S
C811 C810 1.370 . S
C811 C812 1.403 . S
C812 C811 1.403 . S
C812 C813 1.404 . S
C812 C815 1.539 . S
C813 C809 1.408 . S
C813 C812 1.404 . S
C813 H825 0.930 . S
C814 C810 1.524 . S
C814 H826 0.956 . S
C814 H827 0.961 . S
C814 H828 0.961 . S
C815 C812 1.539 . S
C815 H829 0.958 . S
C815 H830 0.961 . S
C815 H831 0.960 . S
H816 C800 0.931 . S
H817 C805 0.929 . S
H818 C806 0.960 . S
H819 C806 0.962 . S
H820 C806 0.960 . S
H821 C807 0.961 . S
H822 C807 0.961 . S
H823 C807 0.961 . S
H824 C808 0.931 . S
H825 C813 0.930 . S
H826 C814 0.956 . S
H827 C814 0.961 . S
H828 C814 0.961 . S
H829 C815 0.958 . S
H830 C815 0.961 . S
H831 C815 0.960 . S
C832 C833 1.391 . S
C832 C834 1.394 . S
C832 H848 0.931 . S
C833 C832 1.391 . S
C833 C837 1.376 . S
C834 C832 1.394 . S
C834 C835 1.369 . S
C834 C838 1.531 . S
C835 C834 1.369 . S
C835 C836 1.410 . S
C835 C843 1.503 . S
C836 C835 1.410 . S
C836 C837 1.392 . S
C836 C839 1.511 . S
C837 C833 1.376 . S
C837 C836 1.392 . S
C837 H849 0.929 . S
C838 C834 1.531 . S
C838 H850 0.960 . S
C838 H851 0.962 . S
C838 H852 0.960 . S
C839 C836 1.511 . S
C839 H853 0.961 . S
C839 H854 0.961 . S
C839 H855 0.961 . S
C840 C841 1.370 . S
C840 C842 1.363 . S
C840 H856 0.931 . S
C841 C840 1.370 . S
C841 C845 1.408 . S
C842 C840 1.363 . S
C842 C843 1.370 . S
C842 C846 1.524 . S
C843 C835 1.503 . S
C843 C842 1.370 . S
C843 C844 1.403 . S
C844 C843 1.403 . S
C844 C845 1.404 . S
C844 C847 1.539 . S
C845 C841 1.408 . S
C845 C844 1.404 . S
C845 H857 0.930 . S
C846 C842 1.524 . S
C846 H858 0.956 . S
C846 H859 0.961 . S
C846 H860 0.961 . S
C847 C844 1.539 . S
C847 H861 0.958 . S
C847 H862 0.961 . S
C847 H863 0.960 . S
H848 C832 0.931 . S
H849 C837 0.929 . S
H850 C838 0.960 . S
H851 C838 0.962 . S
H852 C838 0.960 . S
H853 C839 0.961 . S
H854 C839 0.961 . S
H855 C839 0.961 . S
H856 C840 0.931 . S
H857 C845 0.930 . S
H858 C846 0.956 . S
H859 C846 0.961 . S
H860 C846 0.961 . S
H861 C847 0.958 . S
H862 C847 0.961 . S
H863 C847 0.960 . S
C864 C865 1.391 . S
C864 C866 1.394 . S
C864 H880 0.931 . S
C865 C864 1.391 . S
C865 C869 1.376 . S
C866 C864 1.394 . S
C866 C867 1.369 . S
C866 C870 1.531 . S
C867 C866 1.369 . S
C867 C868 1.410 1_565 S
C867 C875 1.503 1_566 S
C868 C867 1.410 1_545 S
C868 C869 1.392 1_545 S
C868 C871 1.511 . S
C869 C865 1.376 . S
C869 C868 1.392 1_565 S
C869 H881 0.929 . S
C870 C866 1.531 . S
C870 H882 0.960 1_556 S
C870 H883 0.962 1_556 S
C870 H884 0.960 . S
C871 C868 1.511 . S
C871 H885 0.961 . S
C871 H886 0.961 . S
C871 H887 0.961 . S
C872 C873 1.370 . S
C872 C874 1.363 1_545 S
C872 H888 0.931 . S
C873 C872 1.370 . S
C873 C877 1.408 . S
C874 C872 1.363 1_565 S
C874 C875 1.370 1_565 S
C874 C878 1.524 . S
C875 C867 1.503 1_544 S
C875 C874 1.370 1_545 S
C875 C876 1.403 . S
C876 C875 1.403 . S
C876 C877 1.404 . S
C876 C879 1.539 1_554 S
C877 C873 1.408 . S
C877 C876 1.404 . S
C877 H889 0.930 . S
C878 C874 1.524 . S
C878 H890 0.956 . S
C878 H891 0.961 . S
C878 H892 0.961 . S
C879 C876 1.539 1_556 S
C879 H893 0.958 . S
C879 H894 0.961 . S
C879 H895 0.960 . S
H880 C864 0.931 . S
H881 C869 0.929 . S
H882 C870 0.960 1_554 S
H883 C870 0.962 1_554 S
H884 C870 0.960 . S
H885 C871 0.961 . S
H886 C871 0.961 . S
H887 C871 0.961 . S
H888 C872 0.931 . S
H889 C877 0.930 . S
H890 C878 0.956 . S
H891 C878 0.961 . S
H892 C878 0.961 . S
H893 C879 0.958 . S
H894 C879 0.961 . S
H895 C879 0.960 . S
C896 C897 1.391 . S
C896 C898 1.394 . S
C896 H912 0.931 . S
C897 C896 1.391 . S
C897 C901 1.376 . S
C898 C896 1.394 . S
C898 C899 1.369 . S
C898 C902 1.531 . S
C899 C898 1.369 . S
C899 C900 1.410 . S
C899 C907 1.503 . S
C900 C899 1.410 . S
C900 C901 1.392 . S
C900 C903 1.511 . S
C901 C897 1.376 . S
C901 C900 1.392 . S
C901 H913 0.929 . S
C902 C898 1.531 . S
C902 H914 0.960 . S
C902 H915 0.962 . S
C902 H916 0.960 . S
C903 C900 1.511 . S
C903 H917 0.961 . S
C903 H918 0.961 . S
C903 H919 0.961 . S
C904 C905 1.370 . S
C904 C906 1.363 . S
C904 H920 0.931 . S
C905 C904 1.370 . S
C905 C909 1.408 . S
C906 C904 1.363 . S
C906 C907 1.370 . S
C906 C910 1.524 . S
C907 C899 1.503 . S
C907 C906 1.370 . S
C907 C908 1.403 . S
C908 C907 1.403 . S
C908 C909 1.404 . S
C908 C911 1.539 . S
C909 C905 1.408 . S
C909 C908 1.404 . S
C909 H921 0.930 . S
C910 C906 1.524 . S
C910 H922 0.956 . S
C910 H923 0.961 . S
C910 H924 0.961 . S
C911 C908 1.539 . S
C911 H925 0.958 . S
C911 H926 0.961 . S
C911 H927 0.960 . S
H912 C896 0.931 . S
H913 C901 0.929 . S
H914 C902 0.960 . S
H915 C902 0.962 . S
H916 C902 0.960 . S
H917 C903 0.961 . S
H918 C903 0.961 . S
H919 C903 0.961 . S
H920 C904 0.931 . S
H921 C909 0.930 . S
H922 C910 0.956 . S
H923 C910 0.961 . S
H924 C910 0.961 . S
H925 C911 0.958 . S
H926 C911 0.961 . S
H927 C911 0.960 . S
C928 C929 1.391 . S
C928 C930 1.394 1_455 S
C928 H944 0.931 1_455 S
C929 C928 1.391 . S
C929 C933 1.376 . S
C930 C928 1.394 1_655 S
C930 C931 1.369 1_655 S
C930 C934 1.531 . S
C931 C930 1.369 1_455 S
C931 C932 1.410 . S
C931 C939 1.503 1_455 S
C932 C931 1.410 . S
C932 C933 1.392 . S
C932 C935 1.511 . S
C933 C929 1.376 . S
C933 C932 1.392 . S
C933 H945 0.929 . S
C934 C930 1.531 . S
C934 H946 0.960 . S
C934 H947 0.962 . S
C934 H948 0.960 . S
C935 C932 1.511 . S
C935 H949 0.961 . S
C935 H950 0.961 . S
C935 H951 0.961 . S
C936 C937 1.370 . S
C936 C938 1.363 . S
C936 H952 0.931 . S
C937 C936 1.370 . S
C937 C941 1.408 . S
C938 C936 1.363 . S
C938 C939 1.370 . S
C938 C942 1.524 1_655 S
C939 C931 1.503 1_655 S
C939 C938 1.370 . S
C939 C940 1.403 . S
C940 C939 1.403 . S
C940 C941 1.404 . S
C940 C943 1.539 . S
C941 C937 1.408 . S
C941 C940 1.404 . S
C941 H953 0.930 . S
C942 C938 1.524 1_455 S
C942 H954 0.956 1_455 S
C942 H955 0.961 . S
C942 H956 0.961 . S
C943 C940 1.539 . S
C943 H957 0.958 . S
C943 H958 0.961 . S
C943 H959 0.960 . S
H944 C928 0.931 1_655 S
H945 C933 0.929 . S
H946 C934 0.960 . S
H947 C934 0.962 . S
H948 C934 0.960 . S
H949 C935 0.961 . S
H950 C935 0.961 . S
H951 C935 0.961 . S
H952 C936 0.931 . S
H953 C941 0.930 . S
H954 C942 0.956 1_655 S
H955 C942 0.961 . S
H956 C942 0.961 . S
H957 C943 0.958 . S
H958 C943 0.961 . S
H959 C943 0.960 . S
C960 C961 1.391 . S
C960 C962 1.394 . S
C960 H976 0.931 . S
C961 C960 1.391 . S
C961 C965 1.376 . S
C962 C960 1.394 . S
C962 C963 1.369 . S
C962 C966 1.531 1_554 S
C963 C962 1.369 . S
C963 C964 1.410 . S
C963 C971 1.503 1_564 S
C964 C963 1.410 . S
C964 C965 1.392 . S
C964 C967 1.511 1_565 S
C965 C961 1.376 . S
C965 C964 1.392 . S
C965 H977 0.929 . S
C966 C962 1.531 1_556 S
C966 H978 0.960 . S
C966 H979 0.962 . S
C966 H980 0.960 . S
C967 C964 1.511 1_545 S
C967 H981 0.961 . S
C967 H982 0.961 . S
C967 H983 0.961 . S
C968 C969 1.370 . S
C968 C970 1.363 . S
C968 H984 0.931 . S
C969 C968 1.370 . S
C969 C973 1.408 . S
C970 C968 1.363 . S
C970 C971 1.370 . S
C970 C974 1.524 1_556 S
C971 C963 1.503 1_546 S
C971 C970 1.370 . S
C971 C972 1.403 1_545 S
C972 C971 1.403 1_565 S
C972 C973 1.404 1_565 S
C972 C975 1.539 . S
C973 C969 1.408 . S
C973 C972 1.404 1_545 S
C973 H985 0.930 . S
C974 C970 1.524 1_554 S
C974 H986 0.956 . S
C974 H987 0.961 . S
C974 H988 0.961 . S
C975 C972 1.539 . S
C975 H989 0.958 . S
C975 H990 0.961 . S
C975 H991 0.960 . S
H976 C960 0.931 . S
H977 C965 0.929 . S
H978 C966 0.960 . S
H979 C966 0.962 . S
H980 C966 0.960 . S
H981 C967 0.961 . S
H982 C967 0.961 . S
H983 C967 0.961 . S
H984 C968 0.931 . S
H985 C973 0.930 . S
H986 C974 0.956 . S
H987 C974 0.961 . S
H988 C974 0.961 . S
H989 C975 0.958 . S
H990 C975 0.961 . S
H991 C975 0.960 . S
C992 C993 1.391 . S
C992 C994 1.394 . S
C992 H1008 0.931 . S
C993 C992 1.391 . S
C993 C997 1.376 . S
C994 C992 1.394 . S
C994 C995 1.369 . S
C994 C998 1.531 . S
C995 C994 1.369 . S
C995 C996 1.410 . S
C995 C1003 1.503 . S
C996 C995 1.410 . S
C996 C997 1.392 . S
C996 C999 1.511 . S
C997 C993 1.376 . S
C997 C996 1.392 . S
C997 H1009 0.929 . S
C998 C994 1.531 . S
C998 H1010 0.960 . S
C998 H1011 0.962 . S
C998 H1012 0.960 . S
C999 C996 1.511 . S
C999 H1013 0.961 . S
C999 H1014 0.961 . S
C999 H1015 0.961 . S
C1000 C1001 1.370 . S
C1000 C1002 1.363 . S
C1000 H1016 0.931 . S
C1001 C1000 1.370 . S
C1001 C1005 1.408 . S
C1002 C1000 1.363 . S
C1002 C1003 1.370 . S
C1002 C1006 1.524 . S
C1003 C995 1.503 . S
C1003 C1002 1.370 . S
C1003 C1004 1.403 . S
C1004 C1003 1.403 . S
C1004 C1005 1.404 . S
C1004 C1007 1.539 . S
C1005 C1001 1.408 . S
C1005 C1004 1.404 . S
C1005 H1017 0.930 . S
C1006 C1002 1.524 . S
C1006 H1018 0.956 . S
C1006 H1019 0.961 . S
C1006 H1020 0.961 . S
C1007 C1004 1.539 . S
C1007 H1021 0.958 . S
C1007 H1022 0.961 . S
C1007 H1023 0.960 . S
H1008 C992 0.931 . S
H1009 C997 0.929 . S
H1010 C998 0.960 . S
H1011 C998 0.962 . S
H1012 C998 0.960 . S
H1013 C999 0.961 . S
H1014 C999 0.961 . S
H1015 C999 0.961 . S
H1016 C1000 0.931 . S
H1017 C1005 0.930 . S
H1018 C1006 0.956 . S
H1019 C1006 0.961 . S
H1020 C1006 0.961 . S
H1021 C1007 0.958 . S
H1022 C1007 0.961 . S
H1023 C1007 0.960 . S
C1024 C1025 1.391 . S
C1024 C1026 1.394 . S
C1024 H1040 0.931 . S
C1025 C1024 1.391 . S
C1025 C1029 1.376 . S
C1026 C1024 1.394 . S
C1026 C1027 1.369 . S
C1026 C1030 1.531 . S
C1027 C1026 1.369 . S
C1027 C1028 1.390 1_455 S
C1027 C1035 1.503 1_455 S
C1028 C1027 1.390 1_655 S
C1028 C1029 1.374 1_655 S
C1028 C1031 1.549 . S
C1029 C1025 1.376 . S
C1029 C1028 1.374 1_455 S
C1029 H1041 0.929 . S
C1030 C1026 1.531 . S
C1030 H1042 0.960 . S
C1030 H1043 0.962 . S
C1030 H1044 0.960 . S
C1031 C1028 1.549 . S
C1031 H1045 0.961 . S
C1031 H1046 0.961 . S
C1031 H1047 0.961 . S
C1032 C1033 1.370 . S
C1032 C1034 1.363 1_655 S
C1032 H1048 0.931 1_655 S
C1033 C1032 1.370 . S
C1033 C1037 1.408 . S
C1034 C1032 1.363 1_455 S
C1034 C1035 1.370 1_455 S
C1034 C1038 1.524 . S
C1035 C1027 1.503 1_655 S
C1035 C1034 1.370 1_655 S
C1035 C1036 1.403 . S
C1036 C1035 1.403 . S
C1036 C1037 1.404 . S
C1036 C1039 1.539 . S
C1037 C1033 1.408 . S
C1037 C1036 1.404 . S
C1037 H1049 0.930 . S
C1038 C1034 1.524 . S
C1038 H1050 0.956 . S
C1038 H1051 0.961 . S
C1038 H1052 0.961 . S
C1039 C1036 1.539 . S
C1039 H1053 0.958 . S
C1039 H1054 0.961 . S
C1039 H1055 0.960 . S
H1040 C1024 0.931 . S
H1041 C1029 0.929 . S
H1042 C1030 0.960 . S
H1043 C1030 0.962 . S
H1044 C1030 0.960 . S
H1045 C1031 0.961 . S
H1046 C1031 0.961 . S
H1047 C1031 0.961 . S
H1048 C1032 0.931 1_455 S
H1049 C1037 0.930 . S
H1050 C1038 0.956 . S
H1051 C1038 0.961 . S
H1052 C1038 0.961 . S
H1053 C1039 0.958 . S
H1054 C1039 0.961 . S
H1055 C1039 0.960 . S
C1056 C1057 1.391 . S
C1056 C1058 1.393 . S
C1056 H1072 0.931 . S
C1057 C1056 1.391 . S
C1057 C1061 1.376 . S
C1058 C1056 1.393 . S
C1058 C1059 1.369 . S
C1058 C1062 1.531 1_545 S
C1059 C1058 1.369 . S
C1059 C1060 1.410 . S
C1059 C1067 1.503 1_545 S
C1060 C1059 1.410 . S
C1060 C1061 1.392 . S
C1060 C1063 1.511 . S
C1061 C1057 1.376 . S
C1061 C1060 1.392 . S
C1061 H1073 0.929 . S
C1062 C1058 1.531 1_565 S
C1062 H1074 0.960 . S
C1062 H1075 0.962 . S
C1062 H1076 0.960 . S
C1063 C1060 1.511 . S
C1063 H1077 0.961 . S
C1063 H1078 0.961 . S
C1063 H1079 0.961 . S
C1064 C1065 1.370 . S
C1064 C1066 1.363 . S
C1064 H1080 0.931 . S
C1065 C1064 1.370 . S
C1065 C1069 1.408 . S
C1066 C1064 1.363 . S
C1066 C1067 1.370 . S
C1066 C1070 1.524 . S
C1067 C1059 1.503 1_565 S
C1067 C1066 1.370 . S
C1067 C1068 1.403 . S
C1068 C1067 1.403 . S
C1068 C1069 1.404 . S
C1068 C1071 1.539 . S
C1069 C1065 1.408 . S
C1069 C1068 1.404 . S
C1069 H1081 0.930 . S
C1070 C1066 1.524 . S
C1070 H1082 0.956 . S
C1070 H1083 0.961 1_565 S
C1070 H1084 0.961 . S
C1071 C1068 1.539 . S
C1071 H1085 0.958 . S
C1071 H1086 0.961 . S
C1071 H1087 0.960 1_565 S
H1072 C1056 0.931 . S
H1073 C1061 0.929 . S
H1074 C1062 0.960 . S
H1075 C1062 0.962 . S
H1076 C1062 0.960 . S
H1077 C1063 0.961 . S
H1078 C1063 0.961 . S
H1079 C1063 0.961 . S
H1080 C1064 0.931 . S
H1081 C1069 0.930 . S
H1082 C1070 0.956 . S
H1083 C1070 0.961 1_545 S
H1084 C1070 0.961 . S
H1085 C1071 0.958 . S
H1086 C1071 0.961 . S
H1087 C1071 0.960 1_545 S
C1088 C1089 1.391 . S
C1088 C1090 1.394 . S
C1088 H1104 0.931 . S
C1089 C1088 1.391 . S
C1089 C1093 1.376 . S
C1090 C1088 1.394 . S
C1090 C1091 1.369 . S
C1090 C1094 1.531 . S
C1091 C1090 1.369 . S
C1091 C1092 1.410 . S
C1091 C1099 1.503 . S
C1092 C1091 1.410 . S
C1092 C1093 1.392 . S
C1092 C1095 1.511 . S
C1093 C1089 1.376 . S
C1093 C1092 1.392 . S
C1093 H1105 0.929 . S
C1094 C1090 1.531 . S
C1094 H1106 0.960 . S
C1094 H1107 0.962 . S
C1094 H1108 0.960 . S
C1095 C1092 1.511 . S
C1095 H1109 0.961 . S
C1095 H1110 0.961 . S
C1095 H1111 0.961 . S
C1096 C1097 1.370 . S
C1096 C1098 1.363 . S
C1096 H1112 0.931 . S
C1097 C1096 1.370 . S
C1097 C1101 1.408 . S
C1098 C1096 1.363 . S
C1098 C1099 1.370 . S
C1098 C1102 1.524 . S
C1099 C1091 1.503 . S
C1099 C1098 1.370 . S
C1099 C1100 1.403 . S
C1100 C1099 1.403 . S
C1100 C1101 1.404 . S
C1100 C1103 1.539 . S
C1101 C1097 1.408 . S
C1101 C1100 1.404 . S
C1101 H1113 0.930 . S
C1102 C1098 1.524 . S
C1102 H1114 0.956 . S
C1102 H1115 0.961 . S
C1102 H1116 0.961 . S
C1103 C1100 1.539 . S
C1103 H1117 0.958 . S
C1103 H1118 0.961 . S
C1103 H1119 0.960 . S
H1104 C1088 0.931 . S
H1105 C1093 0.929 . S
H1106 C1094 0.960 . S
H1107 C1094 0.962 . S
H1108 C1094 0.960 . S
H1109 C1095 0.961 . S
H1110 C1095 0.961 . S
H1111 C1095 0.961 . S
H1112 C1096 0.931 . S
H1113 C1101 0.930 . S
H1114 C1102 0.956 . S
H1115 C1102 0.961 . S
H1116 C1102 0.961 . S
H1117 C1103 0.958 . S
H1118 C1103 0.961 . S
H1119 C1103 0.960 . S
C1120 C1121 1.391 . S
C1120 C1122 1.394 . S
C1120 H1136 0.931 . S
C1121 C1120 1.391 . S
C1121 C1125 1.376 . S
C1122 C1120 1.394 . S
C1122 C1123 1.369 . S
C1122 C1126 1.531 . S
C1123 C1122 1.369 . S
C1123 C1124 1.410 . S
C1123 C1131 1.503 1_655 S
C1124 C1123 1.410 . S
C1124 C1125 1.392 . S
C1124 C1127 1.511 1_655 S
C1125 C1121 1.376 . S
C1125 C1124 1.392 . S
C1125 H1137 0.929 . S
C1126 C1122 1.531 . S
C1126 H1138 0.960 . S
C1126 H1139 0.962 . S
C1126 H1140 0.960 . S
C1127 C1124 1.511 1_455 S
C1127 H1141 0.961 . S
C1127 H1142 0.961 . S
C1127 H1143 0.961 . S
C1128 C1129 1.370 . S
C1128 C1130 1.363 . S
C1128 H1144 0.931 . S
C1129 C1128 1.370 . S
C1129 C1133 1.408 . S
C1130 C1128 1.363 . S
C1130 C1131 1.370 . S
C1130 C1134 1.524 1_455 S
C1131 C1123 1.503 1_455 S
C1131 C1130 1.370 . S
C1131 C1132 1.403 . S
C1132 C1131 1.403 . S
C1132 C1133 1.404 . S
C1132 C1135 1.539 . S
C1133 C1129 1.408 . S
C1133 C1132 1.404 . S
C1133 H1145 0.930 . S
C1134 C1130 1.524 1_655 S
C1134 H1146 0.956 . S
C1134 H1147 0.961 . S
C1134 H1148 0.961 . S
C1135 C1132 1.539 . S
C1135 H1149 0.958 . S
C1135 H1150 0.961 . S
C1135 H1151 0.960 . S
H1136 C1120 0.931 . S
H1137 C1125 0.929 . S
H1138 C1126 0.960 . S
H1139 C1126 0.962 . S
H1140 C1126 0.960 . S
H1141 C1127 0.961 . S
H1142 C1127 0.961 . S
H1143 C1127 0.961 . S
H1144 C1128 0.931 . S
H1145 C1133 0.930 . S
H1146 C1134 0.956 . S
H1147 C1134 0.961 . S
H1148 C1134 0.961 . S
H1149 C1135 0.958 . S
H1150 C1135 0.961 . S
H1151 C1135 0.960 . S
C1152 C1153 1.391 . S
C1152 C1154 1.394 . S
C1152 H1168 0.931 . S
C1153 C1152 1.391 . S
C1153 C1157 1.376 . S
C1154 C1152 1.394 . S
C1154 C1155 1.369 . S
C1154 C1158 1.531 . S
C1155 C1154 1.369 . S
C1155 C1156 1.410 . S
C1155 C1163 1.503 1_455 S
C1156 C1155 1.410 . S
C1156 C1157 1.392 . S
C1156 C1159 1.511 . S
C1157 C1153 1.376 . S
C1157 C1156 1.392 . S
C1157 H1169 0.929 . S
C1158 C1154 1.531 . S
C1158 H1170 0.960 . S
C1158 H1171 0.962 . S
C1158 H1172 0.960 . S
C1159 C1156 1.511 . S
C1159 H1173 0.961 . S
C1159 H1174 0.961 1_455 S
C1159 H1175 0.961 . S
C1160 C1161 1.370 . S
C1160 C1162 1.363 . S
C1160 H1176 0.931 . S
C1161 C1160 1.370 . S
C1161 C1165 1.408 . S
C1162 C1160 1.363 . S
C1162 C1163 1.370 . S
C1162 C1166 1.524 . S
C1163 C1155 1.503 1_655 S
C1163 C1162 1.370 . S
C1163 C1164 1.403 1_655 S
C1164 C1163 1.403 1_455 S
C1164 C1165 1.404 1_455 S
C1164 C1167 1.539 . S
C1165 C1161 1.408 . S
C1165 C1164 1.404 1_655 S
C1165 H1177 0.930 . S
C1166 C1162 1.524 . S
C1166 H1178 0.956 . S
C1166 H1179 0.961 . S
C1166 H1180 0.961 . S
C1167 C1164 1.539 . S
C1167 H1181 0.958 . S
C1167 H1182 0.961 . S
C1167 H1183 0.960 . S
H1168 C1152 0.931 . S
H1169 C1157 0.929 . S
H1170 C1158 0.960 . S
H1171 C1158 0.962 . S
H1172 C1158 0.960 . S
H1173 C1159 0.961 . S
H1174 C1159 0.961 1_655 S
H1175 C1159 0.961 . S
H1176 C1160 0.931 . S
H1177 C1165 0.930 . S
H1178 C1166 0.956 . S
H1179 C1166 0.961 . S
H1180 C1166 0.961 . S
H1181 C1167 0.958 . S
H1182 C1167 0.961 . S
H1183 C1167 0.960 . S
C1184 C1185 1.391 . S
C1184 C1186 1.394 . S
C1184 H1200 0.931 . S
C1185 C1184 1.391 . S
C1185 C1189 1.376 . S
C1186 C1184 1.394 . S
C1186 C1187 1.369 . S
C1186 C1190 1.531 . S
C1187 C1186 1.369 . S
C1187 C1188 1.410 . S
C1187 C1195 1.503 1_565 S
C1188 C1187 1.410 . S
C1188 C1189 1.392 . S
C1188 C1191 1.511 1_565 S
C1189 C1185 1.376 . S
C1189 C1188 1.392 . S
C1189 H1201 0.929 . S
C1190 C1186 1.531 . S
C1190 H1202 0.960 . S
C1190 H1203 0.962 . S
C1190 H1204 0.960 . S
C1191 C1188 1.511 1_545 S
C1191 H1205 0.961 . S
C1191 H1206 0.961 . S
C1191 H1207 0.961 . S
C1192 C1193 1.370 . S
C1192 C1194 1.363 . S
C1192 H1208 0.931 . S
C1193 C1192 1.370 . S
C1193 C1197 1.408 . S
C1194 C1192 1.363 . S
C1194 C1195 1.370 . S
C1194 C1198 1.524 1_545 S
C1195 C1187 1.503 1_545 S
C1195 C1194 1.370 . S
C1195 C1196 1.403 . S
C1196 C1195 1.403 . S
C1196 C1197 1.404 . S
C1196 C1199 1.539 . S
C1197 C1193 1.408 . S
C1197 C1196 1.404 . S
C1197 H1209 0.930 . S
C1198 C1194 1.524 1_565 S
C1198 H1210 0.956 . S
C1198 H1211 0.961 . S
C1198 H1212 0.961 . S
C1199 C1196 1.539 . S
C1199 H1213 0.958 . S
C1199 H1214 0.961 . S
C1199 H1215 0.960 . S
H1200 C1184 0.931 . S
H1201 C1189 0.929 . S
H1202 C1190 0.960 . S
H1203 C1190 0.962 . S
H1204 C1190 0.960 . S
H1205 C1191 0.961 . S
H1206 C1191 0.961 . S
H1207 C1191 0.961 . S
H1208 C1192 0.931 . S
H1209 C1197 0.930 . S
H1210 C1198 0.956 . S
H1211 C1198 0.961 . S
H1212 C1198 0.961 . S
H1213 C1199 0.958 . S
H1214 C1199 0.961 . S
H1215 C1199 0.960 . S
C1216 C1217 1.391 . S
C1216 C1218 1.394 . S
C1216 H1232 0.931 . S
C1217 C1216 1.391 . S
C1217 C1221 1.376 . S
C1218 C1216 1.394 . S
C1218 C1219 1.369 . S
C1218 C1222 1.531 . S
C1219 C1218 1.369 . S
C1219 C1220 1.410 . S
C1219 C1227 1.503 . S
C1220 C1219 1.410 . S
C1220 C1221 1.392 . S
C1220 C1223 1.511 . S
C1221 C1217 1.376 . S
C1221 C1220 1.392 . S
C1221 H1233 0.929 . S
C1222 C1218 1.531 . S
C1222 H1234 0.960 . S
C1222 H1235 0.962 . S
C1222 H1236 0.960 . S
C1223 C1220 1.511 . S
C1223 H1237 0.961 . S
C1223 H1238 0.961 . S
C1223 H1239 0.961 . S
C1224 C1225 1.370 . S
C1224 C1226 1.363 . S
C1224 H1240 0.931 . S
C1225 C1224 1.370 . S
C1225 C1229 1.408 . S
C1226 C1224 1.363 . S
C1226 C1227 1.370 . S
C1226 C1230 1.524 . S
C1227 C1219 1.503 . S
C1227 C1226 1.370 . S
C1227 C1228 1.403 . S
C1228 C1227 1.403 . S
C1228 C1229 1.404 . S
C1228 C1231 1.539 . S
C1229 C1225 1.408 . S
C1229 C1228 1.404 . S
C1229 H1241 0.930 . S
C1230 C1226 1.524 . S
C1230 H1242 0.956 . S
C1230 H1243 0.961 . S
C1230 H1244 0.949 1_554 S
C1231 C1228 1.539 . S
C1231 H1245 0.958 . S
C1231 H1246 0.961 . S
C1231 H1247 0.960 . S
H1232 C1216 0.931 . S
H1233 C1221 0.929 . S
H1234 C1222 0.960 . S
H1235 C1222 0.962 . S
H1236 C1222 0.960 . S
H1237 C1223 0.961 . S
H1238 C1223 0.961 . S
H1239 C1223 0.961 . S
H1240 C1224 0.931 . S
H1241 C1229 0.930 . S
H1242 C1230 0.956 . S
H1243 C1230 0.961 . S
H1244 C1230 0.949 1_556 S
H1245 C1231 0.958 . S
H1246 C1231 0.961 . S
H1247 C1231 0.960 . S
C1248 C1249 1.391 . S
C1248 C1250 1.394 . S
C1248 H1264 0.931 . S
C1249 C1248 1.391 . S
C1249 C1253 1.376 . S
C1250 C1248 1.394 . S
C1250 C1251 1.369 . S
C1250 C1254 1.531 . S
C1251 C1250 1.369 . S
C1251 C1252 1.410 . S
C1251 C1259 1.503 1_565 S
C1252 C1251 1.410 . S
C1252 C1253 1.392 . S
C1252 C1255 1.511 . S
C1253 C1249 1.376 . S
C1253 C1252 1.392 . S
C1253 H1265 0.929 . S
C1254 C1250 1.531 . S
C1254 H1266 0.960 . S
C1254 H1267 0.962 . S
C1254 H1268 0.960 . S
C1255 C1252 1.511 . S
C1255 H1269 0.961 . S
C1255 H1270 0.961 1_565 S
C1255 H1271 0.961 . S
C1256 C1257 1.370 . S
C1256 C1258 1.363 . S
C1256 H1272 0.931 . S
C1257 C1256 1.370 . S
C1257 C1261 1.408 . S
C1258 C1256 1.363 . S
C1258 C1259 1.370 . S
C1258 C1262 1.524 . S
C1259 C1251 1.503 1_545 S
C1259 C1258 1.370 . S
C1259 C1260 1.403 . S
C1260 C1259 1.403 . S
C1260 C1261 1.404 . S
C1260 C1263 1.539 1_545 S
C1261 C1257 1.408 . S
C1261 C1260 1.404 . S
C1261 H1273 0.930 . S
C1262 C1258 1.524 . S
C1262 H1274 0.956 . S
C1262 H1275 0.961 . S
C1262 H1276 0.961 . S
C1263 C1260 1.539 1_565 S
C1263 H1277 0.958 . S
C1263 H1278 0.961 . S
C1263 H1279 0.960 . S
H1264 C1248 0.931 . S
H1265 C1253 0.929 . S
H1266 C1254 0.960 . S
H1267 C1254 0.962 . S
H1268 C1254 0.960 . S
H1269 C1255 0.961 . S
H1270 C1255 0.961 1_545 S
H1271 C1255 0.961 . S
H1272 C1256 0.931 . S
H1273 C1261 0.930 . S
H1274 C1262 0.956 . S
H1275 C1262 0.961 . S
H1276 C1262 0.961 . S
H1277 C1263 0.958 . S
H1278 C1263 0.961 . S
H1279 C1263 0.960 . S
C1280 C1281 1.391 . S
C1280 C1282 1.394 . S
C1280 H1296 0.931 . S
C1281 C1280 1.391 . S
C1281 C1285 1.376 . S
C1282 C1280 1.394 . S
C1282 C1283 1.369 . S
C1282 C1286 1.531 . S
C1283 C1282 1.369 . S
C1283 C1284 1.410 . S
C1283 C1291 1.503 . S
C1284 C1283 1.410 . S
C1284 C1285 1.392 . S
C1284 C1287 1.511 . S
C1285 C1281 1.376 . S
C1285 C1284 1.392 . S
C1285 H1297 0.929 . S
C1286 C1282 1.531 . S
C1286 H1298 0.960 . S
C1286 H1299 0.962 . S
C1286 H1300 0.960 . S
C1287 C1284 1.511 . S
C1287 H1301 0.961 . S
C1287 H1302 0.961 . S
C1287 H1303 0.961 . S
C1288 C1289 1.370 . S
C1288 C1290 1.363 . S
C1288 H1304 0.931 . S
C1289 C1288 1.370 . S
C1289 C1293 1.408 . S
C1290 C1288 1.363 . S
C1290 C1291 1.370 . S
C1290 C1294 1.524 . S
C1291 C1283 1.503 . S
C1291 C1290 1.370 . S
C1291 C1292 1.403 . S
C1292 C1291 1.403 . S
C1292 C1293 1.404 . S
C1292 C1295 1.539 . S
C1293 C1289 1.408 . S
C1293 C1292 1.404 . S
C1293 H1305 0.930 . S
C1294 C1290 1.524 . S
C1294 H1306 0.956 . S
C1294 H1307 0.961 . S
C1294 H1308 0.961 . S
C1295 C1292 1.539 . S
C1295 H1309 0.958 . S
C1295 H1310 0.961 . S
C1295 H1311 0.960 . S
H1296 C1280 0.931 . S
H1297 C1285 0.929 . S
H1298 C1286 0.960 . S
H1299 C1286 0.962 . S
H1300 C1286 0.960 . S
H1301 C1287 0.961 . S
H1302 C1287 0.961 . S
H1303 C1287 0.961 . S
H1304 C1288 0.931 . S
H1305 C1293 0.930 . S
H1306 C1294 0.956 . S
H1307 C1294 0.961 . S
H1308 C1294 0.961 . S
H1309 C1295 0.958 . S
H1310 C1295 0.961 . S
H1311 C1295 0.960 . S
C1312 C1313 1.391 . S
C1312 C1314 1.394 . S
C1312 H1328 0.931 . S
C1313 C1312 1.391 . S
C1313 C1317 1.376 . S
C1314 C1312 1.394 . S
C1314 C1315 1.369 . S
C1314 C1318 1.531 1_655 S
C1315 C1314 1.369 . S
C1315 C1316 1.410 . S
C1315 C1323 1.503 1_655 S
C1316 C1315 1.410 . S
C1316 C1317 1.392 . S
C1316 C1319 1.511 . S
C1317 C1313 1.376 . S
C1317 C1316 1.392 . S
C1317 H1329 0.929 . S
C1318 C1314 1.531 1_455 S
C1318 H1330 0.960 . S
C1318 H1331 0.962 . S
C1318 H1332 0.960 . S
C1319 C1316 1.511 . S
C1319 H1333 0.961 . S
C1319 H1334 0.961 . S
C1319 H1335 0.961 . S
C1320 C1321 1.370 . S
C1320 C1322 1.363 . S
C1320 H1336 0.931 . S
C1321 C1320 1.370 . S
C1321 C1325 1.408 . S
C1322 C1320 1.363 . S
C1322 C1323 1.370 . S
C1322 C1326 1.524 . S
C1323 C1315 1.503 1_455 S
C1323 C1322 1.370 . S
C1323 C1324 1.403 . S
C1324 C1323 1.403 . S
C1324 C1325 1.404 . S
C1324 C1327 1.539 . S
C1325 C1321 1.408 . S
C1325 C1324 1.404 . S
C1325 H1337 0.930 . S
C1326 C1322 1.524 . S
C1326 H1338 0.956 . S
C1326 H1339 0.961 1_455 S
C1326 H1340 0.961 . S
C1327 C1324 1.539 . S
C1327 H1341 0.958 . S
C1327 H1342 0.961 . S
C1327 H1343 0.960 1_455 S
H1328 C1312 0.931 . S
H1329 C1317 0.929 . S
H1330 C1318 0.960 . S
H1331 C1318 0.962 . S
H1332 C1318 0.960 . S
H1333 C1319 0.961 . S
H1334 C1319 0.961 . S
H1335 C1319 0.961 . S
H1336 C1320 0.931 . S
H1337 C1325 0.930 . S
H1338 C1326 0.956 . S
H1339 C1326 0.961 1_655 S
H1340 C1326 0.961 . S
H1341 C1327 0.958 . S
H1342 C1327 0.961 . S
H1343 C1327 0.960 1_655 S
C1344 C1345 1.391 . S
C1344 C1346 1.394 . S
C1344 H1360 0.931 . S
C1345 C1344 1.391 . S
C1345 C1349 1.376 . S
C1346 C1344 1.394 . S
C1346 C1347 1.369 . S
C1346 C1350 1.531 . S
C1347 C1346 1.369 . S
C1347 C1348 1.410 . S
C1347 C1355 1.503 1_545 S
C1348 C1347 1.410 . S
C1348 C1349 1.392 . S
C1348 C1351 1.511 . S
C1349 C1345 1.376 . S
C1349 C1348 1.392 . S
C1349 H1361 0.929 . S
C1350 C1346 1.531 . S
C1350 H1362 0.960 . S
C1350 H1363 0.962 . S
C1350 H1364 0.960 . S
C1351 C1348 1.511 . S
C1351 H1365 0.961 . S
C1351 H1366 0.961 1_545 S
C1351 H1367 0.961 . S
C1352 C1353 1.370 . S
C1352 C1354 1.363 . S
C1352 H1368 0.931 . S
C1353 C1352 1.370 . S
C1353 C1357 1.408 . S
C1354 C1352 1.363 . S
C1354 C1355 1.370 . S
C1354 C1358 1.524 . S
C1355 C1347 1.503 1_565 S
C1355 C1354 1.370 . S
C1355 C1356 1.403 . S
C1356 C1355 1.403 . S
C1356 C1357 1.404 . S
C1356 C1359 1.539 1_565 S
C1357 C1353 1.408 . S
C1357 C1356 1.404 . S
C1357 H1369 0.930 . S
C1358 C1354 1.524 . S
C1358 H1370 0.956 . S
C1358 H1371 0.961 . S
C1358 H1372 0.961 . S
C1359 C1356 1.539 1_545 S
C1359 H1373 0.958 . S
C1359 H1374 0.961 . S
C1359 H1375 0.960 . S
H1360 C1344 0.931 . S
H1361 C1349 0.929 . S
H1362 C1350 0.960 . S
H1363 C1350 0.962 . S
H1364 C1350 0.960 . S
H1365 C1351 0.961 . S
H1366 C1351 0.961 1_565 S
H1367 C1351 0.961 . S
H1368 C1352 0.931 . S
H1369 C1357 0.930 . S
H1370 C1358 0.956 . S
H1371 C1358 0.961 . S
H1372 C1358 0.961 . S
H1373 C1359 0.958 . S
H1374 C1359 0.961 . S
H1375 C1359 0.960 . S
C1376 C1377 1.391 . S
C1376 C1378 1.394 . S
C1376 H1392 0.931 . S
C1377 C1376 1.391 . S
C1377 C1381 1.376 . S
C1378 C1376 1.394 . S
C1378 C1379 1.369 . S
C1378 C1382 1.531 . S
C1379 C1378 1.369 . S
C1379 C1380 1.410 . S
C1379 C1387 1.503 . S
C1380 C1379 1.410 . S
C1380 C1381 1.392 . S
C1380 C1383 1.511 . S
C1381 C1377 1.376 . S
C1381 C1380 1.392 . S
C1381 H1393 0.929 . S
C1382 C1378 1.531 . S
C1382 H1394 0.960 . S
C1382 H1395 0.962 . S
C1382 H1396 0.960 . S
C1383 C1380 1.511 . S
C1383 H1397 0.961 . S
C1383 H1398 0.961 . S
C1383 H1399 0.961 . S
C1384 C1385 1.370 . S
C1384 C1386 1.363 . S
C1384 H1400 0.931 . S
C1385 C1384 1.370 . S
C1385 C1389 1.408 . S
C1386 C1384 1.363 . S
C1386 C1387 1.370 . S
C1386 C1390 1.524 . S
C1387 C1379 1.503 . S
C1387 C1386 1.370 . S
C1387 C1388 1.403 . S
C1388 C1387 1.403 . S
C1388 C1389 1.404 . S
C1388 C1391 1.539 . S
C1389 C1385 1.408 . S
C1389 C1388 1.404 . S
C1389 H1401 0.930 . S
C1390 C1386 1.524 . S
C1390 H1402 0.956 . S
C1390 H1403 0.961 . S
C1390 H1404 0.961 . S
C1391 C1388 1.539 . S
C1391 H1405 0.958 . S
C1391 H1406 0.961 . S
C1391 H1407 0.960 . S
H1392 C1376 0.931 . S
H1393 C1381 0.929 . S
H1394 C1382 0.960 . S
H1395 C1382 0.962 . S
H1396 C1382 0.960 . S
H1397 C1383 0.961 . S
H1398 C1383 0.961 . S
H1399 C1383 0.961 . S
H1400 C1384 0.931 . S
H1401 C1389 0.930 . S
H1402 C1390 0.956 . S
H1403 C1390 0.961 . S
H1404 C1390 0.961 . S
H1405 C1391 0.958 . S
H1406 C1391 0.961 . S
H1407 C1391 0.960 . S
C1408 C1409 1.391 . S
C1408 C1410 1.394 . S
C1408 H1424 0.931 . S
C1409 C1408 1.391 . S
C1409 C1413 1.376 . S
C1410 C1408 1.394 . S
C1410 C1411 1.369 . S
C1410 C1414 1.531 . S
C1411 C1410 1.369 . S
C1411 C1412 1.410 . S
C1411 C1419 1.503 1_455 S
C1412 C1411 1.410 . S
C1412 C1413 1.392 . S
C1412 C1415 1.511 1_455 S
C1413 C1409 1.376 . S
C1413 C1412 1.392 . S
C1413 H1425 0.929 . S
C1414 C1410 1.531 . S
C1414 H1426 0.960 . S
C1414 H1427 0.962 . S
C1414 H1428 0.960 . S
C1415 C1412 1.511 1_655 S
C1415 H1429 0.961 . S
C1415 H1430 0.961 . S
C1415 H1431 0.961 . S
C1416 C1417 1.370 . S
C1416 C1418 1.363 . S
C1416 H1432 0.931 . S
C1417 C1416 1.370 . S
C1417 C1421 1.408 . S
C1418 C1416 1.363 . S
C1418 C1419 1.370 . S
C1418 C1422 1.524 . S
C1419 C1411 1.503 1_655 S
C1419 C1418 1.370 . S
C1419 C1420 1.403 . S
C1420 C1419 1.403 . S
C1420 C1421 1.404 . S
C1420 C1423 1.539 . S
C1421 C1417 1.408 . S
C1421 C1420 1.404 . S
C1421 H1433 0.930 . S
C1422 C1418 1.524 . S
C1422 H1434 0.956 1_655 S
C1422 H1435 0.961 . S
C1422 H1436 0.961 . S
C1423 C1420 1.539 . S
C1423 H1437 0.958 . S
C1423 H1438 0.961 . S
C1423 H1439 0.960 . S
H1424 C1408 0.931 . S
H1425 C1413 0.929 . S
H1426 C1414 0.960 . S
H1427 C1414 0.962 . S
H1428 C1414 0.960 . S
H1429 C1415 0.961 . S
H1430 C1415 0.961 . S
H1431 C1415 0.961 . S
H1432 C1416 0.931 . S
H1433 C1421 0.930 . S
H1434 C1422 0.956 1_455 S
H1435 C1422 0.961 . S
H1436 C1422 0.961 . S
H1437 C1423 0.958 . S
H1438 C1423 0.961 . S
H1439 C1423 0.960 . S
C1440 C1441 1.391 . S
C1440 C1442 1.394 . S
C1440 H1456 0.931 . S
C1441 C1440 1.391 . S
C1441 C1445 1.376 . S
C1442 C1440 1.394 . S
C1442 C1443 1.369 . S
C1442 C1446 1.531 . S
C1443 C1442 1.369 . S
C1443 C1444 1.410 . S
C1443 C1451 1.503 . S
C1444 C1443 1.410 . S
C1444 C1445 1.392 . S
C1444 C1447 1.511 . S
C1445 C1441 1.376 . S
C1445 C1444 1.392 . S
C1445 H1457 0.929 . S
C1446 C1442 1.531 . S
C1446 H1458 0.960 . S
C1446 H1459 0.962 . S
C1446 H1460 0.960 . S
C1447 C1444 1.511 . S
C1447 H1461 0.961 . S
C1447 H1462 0.961 . S
C1447 H1463 0.961 . S
C1448 C1449 1.370 . S
C1448 C1450 1.363 . S
C1448 H1464 0.931 . S
C1449 C1448 1.370 . S
C1449 C1453 1.408 . S
C1450 C1448 1.363 . S
C1450 C1451 1.370 . S
C1450 C1454 1.524 . S
C1451 C1443 1.503 . S
C1451 C1450 1.370 . S
C1451 C1452 1.403 . S
C1452 C1451 1.403 . S
C1452 C1453 1.404 . S
C1452 C1455 1.539 . S
C1453 C1449 1.408 . S
C1453 C1452 1.404 . S
C1453 H1465 0.930 . S
C1454 C1450 1.524 . S
C1454 H1466 0.956 . S
C1454 H1467 0.961 . S
C1454 H1468 0.961 . S
C1455 C1452 1.539 . S
C1455 H1469 0.958 . S
C1455 H1470 0.961 . S
C1455 H1471 0.960 . S
H1456 C1440 0.931 . S
H1457 C1445 0.929 . S
H1458 C1446 0.960 . S
H1459 C1446 0.962 . S
H1460 C1446 0.960 . S
H1461 C1447 0.961 . S
H1462 C1447 0.961 . S
H1463 C1447 0.961 . S
H1464 C1448 0.931 . S
H1465 C1453 0.930 . S
H1466 C1454 0.956 . S
H1467 C1454 0.961 . S
H1468 C1454 0.961 . S
H1469 C1455 0.958 . S
H1470 C1455 0.961 . S
H1471 C1455 0.960 . S
C1472 C1473 1.391 . S
C1472 C1474 1.394 . S
C1472 H1488 0.931 . S
C1473 C1472 1.391 . S
C1473 C1477 1.376 . S
C1474 C1472 1.394 . S
C1474 C1475 1.369 . S
C1474 C1478 1.531 . S
C1475 C1474 1.369 . S
C1475 C1476 1.410 . S
C1475 C1483 1.503 . S
C1476 C1475 1.410 . S
C1476 C1477 1.392 . S
C1476 C1479 1.511 . S
C1477 C1473 1.376 . S
C1477 C1476 1.392 . S
C1477 H1489 0.929 . S
C1478 C1474 1.531 . S
C1478 H1490 0.960 . S
C1478 H1491 0.962 . S
C1478 H1492 0.960 . S
C1479 C1476 1.511 . S
C1479 H1493 0.961 . S
C1479 H1494 0.961 . S
C1479 H1495 0.961 . S
C1480 C1481 1.370 . S
C1480 C1482 1.363 . S
C1480 H1496 0.931 . S
C1481 C1480 1.370 . S
C1481 C1485 1.408 . S
C1482 C1480 1.363 . S
C1482 C1483 1.370 . S
C1482 C1486 1.524 . S
C1483 C1475 1.503 . S
C1483 C1482 1.370 . S
C1483 C1484 1.403 . S
C1484 C1483 1.403 . S
C1484 C1485 1.404 . S
C1484 C1487 1.539 . S
C1485 C1481 1.408 . S
C1485 C1484 1.404 . S
C1485 H1497 0.930 . S
C1486 C1482 1.524 . S
C1486 H1498 0.956 . S
C1486 H1499 0.961 . S
C1486 H1500 0.961 . S
C1487 C1484 1.539 . S
C1487 H1501 0.958 . S
C1487 H1502 0.961 . S
C1487 H1503 0.960 . S
H1488 C1472 0.931 . S
H1489 C1477 0.929 . S
H1490 C1478 0.960 . S
H1491 C1478 0.962 . S
H1492 C1478 0.960 . S
H1493 C1479 0.961 . S
H1494 C1479 0.961 . S
H1495 C1479 0.961 . S
H1496 C1480 0.931 . S
H1497 C1485 0.930 . S
H1498 C1486 0.956 . S
H1499 C1486 0.961 . S
H1500 C1486 0.961 . S
H1501 C1487 0.958 . S
H1502 C1487 0.961 . S
H1503 C1487 0.960 . S
C1504 C1505 1.391 . S
C1504 C1506 1.394 . S
C1504 H1520 0.931 . S
C1505 C1504 1.391 . S
C1505 C1509 1.376 . S
C1506 C1504 1.394 . S
C1506 C1507 1.369 . S
C1506 C1510 1.531 . S
C1507 C1506 1.369 . S
C1507 C1508 1.410 . S
C1507 C1515 1.503 . S
C1508 C1507 1.410 . S
C1508 C1509 1.392 . S
C1508 C1511 1.511 . S
C1509 C1505 1.376 . S
C1509 C1508 1.392 . S
C1509 H1521 0.929 . S
C1510 C1506 1.531 . S
C1510 H1522 0.960 . S
C1510 H1523 0.962 . S
C1510 H1524 0.960 . S
C1511 C1508 1.511 . S
C1511 H1525 0.961 . S
C1511 H1526 0.961 . S
C1511 H1527 0.961 . S
C1512 C1513 1.370 . S
C1512 C1514 1.363 . S
C1512 H1528 0.931 . S
C1513 C1512 1.370 . S
C1513 C1517 1.408 . S
C1514 C1512 1.363 . S
C1514 C1515 1.370 . S
C1514 C1518 1.524 . S
C1515 C1507 1.503 . S
C1515 C1514 1.370 . S
C1515 C1516 1.403 . S
C1516 C1515 1.403 . S
C1516 C1517 1.404 . S
C1516 C1519 1.539 . S
C1517 C1513 1.408 . S
C1517 C1516 1.404 . S
C1517 H1529 0.930 . S
C1518 C1514 1.524 . S
C1518 H1530 0.956 . S
C1518 H1531 0.961 . S
C1518 H1532 0.961 . S
C1519 C1516 1.539 . S
C1519 H1533 0.958 . S
C1519 H1534 0.961 . S
C1519 H1535 0.960 . S
H1520 C1504 0.931 . S
H1521 C1509 0.929 . S
H1522 C1510 0.960 . S
H1523 C1510 0.962 . S
H1524 C1510 0.960 . S
H1525 C1511 0.961 . S
H1526 C1511 0.961 . S
H1527 C1511 0.961 . S
H1528 C1512 0.931 . S
H1529 C1517 0.930 . S
H1530 C1518 0.956 . S
H1531 C1518 0.961 . S
H1532 C1518 0.961 . S
H1533 C1519 0.958 . S
H1534 C1519 0.961 . S
H1535 C1519 0.960 . S
C1536 C1537 1.391 . S
C1536 C1538 1.394 . S
C1536 H1552 0.931 . S
C1537 C1536 1.391 . S
C1537 C1541 1.376 . S
C1538 C1536 1.394 . S
C1538 C1539 1.369 . S
C1538 C1542 1.531 . S
C1539 C1538 1.369 . S
C1539 C1540 1.410 . S
C1539 C1547 1.503 . S
C1540 C1539 1.410 . S
C1540 C1541 1.392 . S
C1540 C1543 1.511 . S
C1541 C1537 1.376 . S
C1541 C1540 1.392 . S
C1541 H1553 0.929 . S
C1542 C1538 1.531 . S
C1542 H1554 0.960 . S
C1542 H1555 0.962 . S
C1542 H1556 0.960 . S
C1543 C1540 1.511 . S
C1543 H1557 0.961 . S
C1543 H1558 0.961 . S
C1543 H1559 0.961 . S
C1544 C1545 1.370 . S
C1544 C1546 1.363 . S
C1544 H1560 0.931 . S
C1545 C1544 1.370 . S
C1545 C1549 1.408 . S
C1546 C1544 1.363 . S
C1546 C1547 1.370 . S
C1546 C1550 1.524 . S
C1547 C1539 1.503 . S
C1547 C1546 1.370 . S
C1547 C1548 1.403 . S
C1548 C1547 1.403 . S
C1548 C1549 1.404 . S
C1548 C1551 1.539 . S
C1549 C1545 1.408 . S
C1549 C1548 1.404 . S
C1549 H1561 0.930 . S
C1550 C1546 1.524 . S
C1550 H1562 0.956 . S
C1550 H1563 0.961 . S
C1550 H1564 0.961 . S
C1551 C1548 1.539 . S
C1551 H1565 0.958 . S
C1551 H1566 0.961 . S
C1551 H1567 0.960 . S
H1552 C1536 0.931 . S
H1553 C1541 0.929 . S
H1554 C1542 0.960 . S
H1555 C1542 0.962 . S
H1556 C1542 0.960 . S
H1557 C1543 0.961 . S
H1558 C1543 0.961 . S
H1559 C1543 0.961 . S
H1560 C1544 0.931 . S
H1561 C1549 0.930 . S
H1562 C1550 0.956 . S
H1563 C1550 0.961 . S
H1564 C1550 0.961 . S
H1565 C1551 0.958 . S
H1566 C1551 0.961 . S
H1567 C1551 0.960 . S
C1568 C1569 1.391 . S
C1568 C1570 1.394 . S
C1568 H1584 0.931 . S
C1569 C1568 1.391 . S
C1569 C1573 1.376 . S
C1570 C1568 1.394 . S
C1570 C1571 1.369 . S
C1570 C1574 1.531 . S
C1571 C1570 1.369 . S
C1571 C1572 1.410 . S
C1571 C1579 1.503 . S
C1572 C1571 1.410 . S
C1572 C1573 1.392 . S
C1572 C1575 1.511 . S
C1573 C1569 1.376 . S
C1573 C1572 1.392 . S
C1573 H1585 0.929 . S
C1574 C1570 1.531 . S
C1574 H1586 0.960 . S
C1574 H1587 0.962 . S
C1574 H1588 0.960 . S
C1575 C1572 1.511 . S
C1575 H1589 0.961 . S
C1575 H1590 0.961 . S
C1575 H1591 0.961 . S
C1576 C1577 1.370 . S
C1576 C1578 1.363 . S
C1576 H1592 0.931 . S
C1577 C1576 1.370 . S
C1577 C1581 1.408 . S
C1578 C1576 1.363 . S
C1578 C1579 1.370 . S
C1578 C1582 1.524 . S
C1579 C1571 1.503 . S
C1579 C1578 1.370 . S
C1579 C1580 1.403 . S
C1580 C1579 1.403 . S
C1580 C1581 1.404 . S
C1580 C1583 1.539 . S
C1581 C1577 1.408 . S
C1581 C1580 1.404 . S
C1581 H1593 0.930 . S
C1582 C1578 1.524 . S
C1582 H1594 0.956 . S
C1582 H1595 0.961 . S
C1582 H1596 0.961 . S
C1583 C1580 1.539 . S
C1583 H1597 0.958 . S
C1583 H1598 0.961 . S
C1583 H1599 0.960 . S
H1584 C1568 0.931 . S
H1585 C1573 0.929 . S
H1586 C1574 0.960 . S
H1587 C1574 0.962 . S
H1588 C1574 0.960 . S
H1589 C1575 0.961 . S
H1590 C1575 0.961 . S
H1591 C1575 0.961 . S
H1592 C1576 0.931 . S
H1593 C1581 0.930 . S
H1594 C1582 0.956 . S
H1595 C1582 0.961 . S
H1596 C1582 0.961 . S
H1597 C1583 0.958 . S
H1598 C1583 0.961 . S
H1599 C1583 0.960 . S
C1600 C1601 1.391 . S
C1600 C1602 1.394 . S
C1600 H1616 0.931 . S
C1601 C1600 1.391 . S
C1601 C1605 1.376 . S
C1602 C1600 1.394 . S
C1602 C1603 1.369 . S
C1602 C1606 1.531 . S
C1603 C1602 1.369 . S
C1603 C1604 1.410 . S
C1603 C1611 1.503 . S
C1604 C1603 1.410 . S
C1604 C1605 1.392 . S
C1604 C1607 1.511 . S
C1605 C1601 1.376 . S
C1605 C1604 1.392 . S
C1605 H1617 0.929 . S
C1606 C1602 1.531 . S
C1606 H1618 0.960 . S
C1606 H1619 0.962 . S
C1606 H1620 0.960 . S
C1607 C1604 1.511 . S
C1607 H1621 0.961 . S
C1607 H1622 0.961 . S
C1607 H1623 0.961 . S
C1608 C1609 1.370 . S
C1608 C1610 1.363 . S
C1608 H1624 0.931 . S
C1609 C1608 1.370 . S
C1609 C1613 1.408 . S
C1610 C1608 1.363 . S
C1610 C1611 1.370 . S
C1610 C1614 1.524 . S
C1611 C1603 1.503 . S
C1611 C1610 1.370 . S
C1611 C1612 1.403 . S
C1612 C1611 1.403 . S
C1612 C1613 1.404 . S
C1612 C1615 1.539 . S
C1613 C1609 1.408 . S
C1613 C1612 1.404 . S
C1613 H1625 0.930 . S
C1614 C1610 1.524 . S
C1614 H1626 0.956 . S
C1614 H1627 0.961 . S
C1614 H1628 0.961 . S
C1615 C1612 1.539 . S
C1615 H1629 0.958 . S
C1615 H1630 0.961 . S
C1615 H1631 0.960 . S
H1616 C1600 0.931 . S
H1617 C1605 0.929 . S
H1618 C1606 0.960 . S
H1619 C1606 0.962 . S
H1620 C1606 0.960 . S
H1621 C1607 0.961 . S
H1622 C1607 0.961 . S
H1623 C1607 0.961 . S
H1624 C1608 0.931 . S
H1625 C1613 0.930 . S
H1626 C1614 0.956 . S
H1627 C1614 0.961 . S
H1628 C1614 0.961 . S
H1629 C1615 0.958 . S
H1630 C1615 0.961 . S
H1631 C1615 0.960 . S
C481 C9 1.119 . S
C489 C329 1.096 . S
C513 C49 1.071 . S
C521 C369 1.103 . S
C545 C89 1.055 . S
C553 C409 1.083 . S
C577 C449 1.055 . S
C585 C129 1.084 . S
C609 C169 1.056 . S
C617 C249 1.083 . S
C641 C289 1.103 . S
C649 C209 1.102 . S
C673 C415 1.540 . S
C681 C15 1.517 . S
C705 C455 1.524 . S
C713 C55 1.521 . S
C737 C95 1.558 . S
C745 C255 1.536 . S
C769 C295 1.544 . S
C777 C135 1.517 . S
C801 C335 1.512 . S
C809 C175 1.529 . S
C833 C215 1.525 . S
C841 C375 1.521 . S
C865 C299 4.231 . S
C873 C19 4.249 . S
C897 C339 4.230 . S
C905 C59 4.248 . S
C929 C379 4.247 . S
C937 C99 4.251 . S
C961 C139 4.240 . S
C969 C419 4.243 . S
C993 C179 4.236 . S
C1001 C459 4.243 . S
C1025 C219 4.231 . S
C1033 C259 4.249 . S
C1057 C18 0.477 . S
C1065 C138 0.500 . S
C1089 C58 0.404 . S
C1097 C178 0.547 . S
C1121 C98 0.627 . S
C1129 C218 0.504 . S
C1153 C378 0.438 . S
C1161 C258 0.565 . S
C1185 C298 0.628 . S
C1193 C418 0.502 . S
C1217 C458 0.466 . S
C1225 C338 0.505 . S
C1249 C286 0.799 . S
C1257 C6 0.693 . S
C1281 C326 0.680 . S
C1289 C46 0.689 . S
C1313 C86 0.680 . S
C1321 C366 0.689 . S
C1345 C406 0.797 . S
C1353 C126 0.687 . S
C1377 C446 0.780 . S
C1385 C166 0.676 . S
C1409 C206 0.743 . S
C1417 C246 0.734 . S
C1441 C10 4.748 . S
C1449 C410 4.752 . S
C1473 C50 4.745 . S
C1481 C450 4.752 1_556 S
C1505 C90 4.748 1_554 S
C1513 C250 4.752 . S
C1537 C130 4.744 . S
C1545 C290 4.752 . S
C1569 C170 4.744 . S
C1577 C330 4.753 1_556 S
C1601 C370 4.745 . S
C1609 C210 4.752 1_554 S
