# Generated by pormake.
# Topology wkl, (6)-cn, num edge types: 1
# Building blocks:
#     Node 0, Type 0, BuildingBlock: IZENUY_clean_sbu_0, # of connection points: 6
#     Node 1, Type 0, BuildingBlock: IZENUY_clean_sbu_0, # of connection points: 6
#     Node 2, Type 0, BuildingBlock: IZENUY_clean_sbu_0, # of connection points: 6
#     Node 3, Type 0, BuildingBlock: IZENUY_clean_sbu_0, # of connection points: 6
#     Node 4, Type 0, BuildingBlock: IZENUY_clean_sbu_0, # of connection points: 6
#     Node 5, Type 0, BuildingBlock: IZENUY_clean_sbu_0, # of connection points: 6
#     Node 6, Type 0, BuildingBlock: IZENUY_clean_sbu_0, # of connection points: 6
#     Node 7, Type 0, BuildingBlock: IZENUY_clean_sbu_0, # of connection points: 6
#     Node 8, Type 0, BuildingBlock: IZENUY_clean_sbu_0, # of connection points: 6
#     Node 9, Type 0, BuildingBlock: IZENUY_clean_sbu_0, # of connection points: 6
#     Node 10, Type 0, BuildingBlock: IZENUY_clean_sbu_0, # of connection points: 6
#     Node 11, Type 0, BuildingBlock: IZENUY_clean_sbu_0, # of connection points: 6
#     Edge 12, Type (0, 0), BuildingBlock: MIFKUJ_clean_linker_0, # of connection points: 2
#     Edge 13, Type (0, 0), BuildingBlock: MIFKUJ_clean_linker_0, # of connection points: 2
#     Edge 14, Type (0, 0), BuildingBlock: MIFKUJ_clean_linker_0, # of connection points: 2
#     Edge 15, Type (0, 0), BuildingBlock: MIFKUJ_clean_linker_0, # of connection points: 2
#     Edge 16, Type (0, 0), BuildingBlock: MIFKUJ_clean_linker_0, # of connection points: 2
#     Edge 17, Type (0, 0), BuildingBlock: MIFKUJ_clean_linker_0, # of connection points: 2
#     Edge 18, Type (0, 0), BuildingBlock: MIFKUJ_clean_linker_0, # of connection points: 2
#     Edge 19, Type (0, 0), BuildingBlock: MIFKUJ_clean_linker_0, # of connection points: 2
#     Edge 20, Type (0, 0), BuildingBlock: MIFKUJ_clean_linker_0, # of connection points: 2
#     Edge 21, Type (0, 0), BuildingBlock: MIFKUJ_clean_linker_0, # of connection points: 2
#     Edge 22, Type (0, 0), BuildingBlock: MIFKUJ_clean_linker_0, # of connection points: 2
#     Edge 23, Type (0, 0), BuildingBlock: MIFKUJ_clean_linker_0, # of connection points: 2
#     Edge 24, Type (0, 0), BuildingBlock: MIFKUJ_clean_linker_0, # of connection points: 2
#     Edge 25, Type (0, 0), BuildingBlock: MIFKUJ_clean_linker_0, # of connection points: 2
#     Edge 26, Type (0, 0), BuildingBlock: MIFKUJ_clean_linker_0, # of connection points: 2
#     Edge 27, Type (0, 0), BuildingBlock: MIFKUJ_clean_linker_0, # of connection points: 2
#     Edge 28, Type (0, 0), BuildingBlock: MIFKUJ_clean_linker_0, # of connection points: 2
#     Edge 29, Type (0, 0), BuildingBlock: MIFKUJ_clean_linker_0, # of connection points: 2
#     Edge 30, Type (0, 0), BuildingBlock: MIFKUJ_clean_linker_0, # of connection points: 2
#     Edge 31, Type (0, 0), BuildingBlock: MIFKUJ_clean_linker_0, # of connection points: 2
#     Edge 32, Type (0, 0), BuildingBlock: MIFKUJ_clean_linker_0, # of connection points: 2
#     Edge 33, Type (0, 0), BuildingBlock: MIFKUJ_clean_linker_0, # of connection points: 2
#     Edge 34, Type (0, 0), BuildingBlock: MIFKUJ_clean_linker_0, # of connection points: 2
#     Edge 35, Type (0, 0), BuildingBlock: MIFKUJ_clean_linker_0, # of connection points: 2
#     Edge 36, Type (0, 0), BuildingBlock: MIFKUJ_clean_linker_0, # of connection points: 2
#     Edge 37, Type (0, 0), BuildingBlock: MIFKUJ_clean_linker_0, # of connection points: 2
#     Edge 38, Type (0, 0), BuildingBlock: MIFKUJ_clean_linker_0, # of connection points: 2
#     Edge 39, Type (0, 0), BuildingBlock: MIFKUJ_clean_linker_0, # of connection points: 2
#     Edge 40, Type (0, 0), BuildingBlock: MIFKUJ_clean_linker_0, # of connection points: 2
#     Edge 41, Type (0, 0), BuildingBlock: MIFKUJ_clean_linker_0, # of connection points: 2
#     Edge 42, Type (0, 0), BuildingBlock: MIFKUJ_clean_linker_0, # of connection points: 2
#     Edge 43, Type (0, 0), BuildingBlock: MIFKUJ_clean_linker_0, # of connection points: 2
#     Edge 44, Type (0, 0), BuildingBlock: MIFKUJ_clean_linker_0, # of connection points: 2
#     Edge 45, Type (0, 0), BuildingBlock: MIFKUJ_clean_linker_0, # of connection points: 2
#     Edge 46, Type (0, 0), BuildingBlock: MIFKUJ_clean_linker_0, # of connection points: 2
#     Edge 47, Type (0, 0), BuildingBlock: MIFKUJ_clean_linker_0, # of connection points: 2
# Relax obj value: 0.387
# Max RMSD: 0.287
# Mean RMSD: 0.287
data_MOF--net-wkl--node1-IZENUY_clean_sbu_0--edge1-MIFKUJ_clean_linker_0
_symmetry_space_group_name_H-M    P1
_symmetry_Int_Tables_number       1
_symmetry_cell_setting            triclinic
loop_
_symmetry_equiv_pos_as_xyz
'x, y, z'
_cell_length_a     91.537572
_cell_length_b     91.530136
_cell_length_c     19.450499
_cell_angle_alpha  90.0079
_cell_angle_beta   89.998422
_cell_angle_gamma 120.01592
loop_
_atom_site_label
_atom_site_type_symbol
_atom_site_fract_x
_atom_site_fract_y
_atom_site_fract_z
_atom_type_partial_charge
Fe0 Fe 0.46987 0.10921 0.10022 0.0
Fe1 Fe 0.48088 0.13973 0.0066 0.0
O2 O 0.46492 0.12268 0.05341 0.0
Fe3 Fe 0.44404 0.11908 0.05298 0.0
O4 O 0.44433 0.12169 0.14575 0.0
O5 O 0.45431 0.10479 0.16823 0.0
O6 O 0.48508 0.12652 0.15277 0.0
C7 C 0.49795 0.13911 0.12799 0.0
C8 C 0.43956 0.08619 0.04567 0.0
O9 O 0.49806 0.14333 0.06582 0.0
C10 C 0.45276 0.12704 0.91804 0.0
O11 O 0.48637 0.11124 0.04062 0.0
O12 O 0.48457 0.12559 0.9537 0.0
O13 O 0.43394 0.09598 0.06018 0.0
O14 O 0.45508 0.09118 0.05046 0.0
C15 C 0.46424 0.15464 0.06118 0.0
O16 O 0.4667 0.13918 0.93861 0.0
O17 O 0.44259 0.11624 0.96015 0.0
C18 C 0.48878 0.11546 0.9779 0.0
O19 O 0.47805 0.15477 0.05668 0.0
O20 O 0.45044 0.14153 0.04583 0.0
C21 C 0.4475 0.11318 0.18802 0.0
Fe22 Fe 0.32557 0.44943 0.202 0.0
Fe23 Fe 0.36094 0.47586 0.25069 0.0
O24 O 0.34258 0.47055 0.20255 0.0
Fe25 Fe 0.34113 0.48631 0.15526 0.0
O26 O 0.3227 0.48275 0.20297 0.0
O27 O 0.3091 0.45516 0.19252 0.0
O28 O 0.32286 0.44977 0.29471 0.0
C29 C 0.33448 0.45355 0.33816 0.0
C30 C 0.32683 0.45806 0.06636 0.0
O31 O 0.34974 0.46047 0.31913 0.0
C32 C 0.37379 0.49517 0.12896 0.0
O33 O 0.3389 0.43977 0.21149 0.0
O34 O 0.36469 0.46117 0.20272 0.0
O35 O 0.32836 0.47197 0.08598 0.0
O36 O 0.32732 0.44795 0.10931 0.0
C37 C 0.35796 0.50347 0.27765 0.0
O38 O 0.37551 0.49227 0.19113 0.0
O39 O 0.35952 0.49106 0.10438 0.0
C40 C 0.35442 0.44557 0.19912 0.0
O41 O 0.35844 0.49096 0.30195 0.0
O42 O 0.35384 0.50352 0.21555 0.0
C43 C 0.30923 0.46875 0.20623 0.0
Fe44 Fe 0.88363 0.35953 0.38983 0.0
Fe45 Fe 0.85364 0.34103 0.29209 0.0
O46 O 0.87001 0.34139 0.34178 0.0
Fe47 Fe 0.87273 0.32356 0.34295 0.0
O48 O 0.86914 0.32111 0.43502 0.0
O49 O 0.88643 0.34778 0.46036 0.0
O50 O 0.86623 0.35841 0.43847 0.0
C51 C 0.85413 0.35918 0.41149 0.0
C52 C 0.90634 0.351 0.34246 0.0
O53 O 0.85031 0.35514 0.34907 0.0
C54 C 0.86597 0.32466 0.20723 0.0
O55 O 0.88329 0.37445 0.32756 0.0
O56 O 0.8686 0.35858 0.24035 0.0
O57 O 0.8958 0.33563 0.35423 0.0
O58 O 0.90188 0.36195 0.34452 0.0
C59 C 0.83733 0.30955 0.3468 0.0
O60 O 0.85401 0.32698 0.22555 0.0
O61 O 0.87644 0.32512 0.25062 0.0
C62 C 0.87932 0.37275 0.26443 0.0
O63 O 0.83777 0.32348 0.34099 0.0
O64 O 0.85015 0.30823 0.33282 0.0
C65 C 0.87734 0.33253 0.47864 0.0
Fe66 Fe 0.55226 0.87808 0.5206 0.0
Fe67 Fe 0.52814 0.88997 0.5691 0.0
O68 O 0.53189 0.87579 0.52127 0.0
Fe69 Fe 0.51535 0.85939 0.47383 0.0
O70 O 0.51711 0.84348 0.52211 0.0
O71 O 0.54462 0.8554 0.51143 0.0
O72 O 0.55158 0.87489 0.61302 0.0
C73 C 0.5492 0.88383 0.65599 0.0
C74 C 0.54347 0.8711 0.38532 0.0
O75 O 0.54345 0.89322 0.63712 0.0
C76 C 0.50913 0.88497 0.44746 0.0
O77 O 0.56362 0.90121 0.52976 0.0
O78 O 0.54364 0.90767 0.5198 0.0
O79 O 0.52912 0.85941 0.40477 0.0
O80 O 0.55392 0.88136 0.42818 0.0
C81 C 0.49909 0.86078 0.59652 0.0
O82 O 0.51214 0.88929 0.51002 0.0
O83 O 0.51256 0.87433 0.42259 0.0
C84 C 0.55894 0.91175 0.51531 0.0
O85 O 0.51229 0.87306 0.62101 0.0
O86 O 0.49858 0.85651 0.53413 0.0
C87 C 0.53045 0.84273 0.52626 0.0
Fe88 Fe 0.65546 0.5153 0.6566 0.0
Fe89 Fe 0.67247 0.55202 0.70617 0.0
O90 O 0.65436 0.53155 0.70165 0.0
Fe91 Fe 0.63529 0.52752 0.74075 0.0
O92 O 0.63422 0.5107 0.79287 0.0
O93 O 0.64009 0.49796 0.71089 0.0
O94 O 0.67184 0.51687 0.71339 0.0
C95 C 0.68583 0.53022 0.721 0.0
C96 C 0.62472 0.51001 0.61358 0.0
O97 O 0.68758 0.54438 0.70394 0.0
C98 C 0.64604 0.55914 0.69059 0.0
O99 O 0.67082 0.5296 0.59329 0.0
O100 O 0.67267 0.55409 0.61288 0.0
O101 O 0.62165 0.51273 0.6743 0.0
O102 O 0.63919 0.51276 0.59696 0.0
C103 C 0.66056 0.54733 0.83823 0.0
O104 O 0.66084 0.56352 0.71004 0.0
O105 O 0.6347 0.54388 0.69119 0.0
C106 C 0.67295 0.54357 0.5715 0.0
O107 O 0.67298 0.55094 0.79933 0.0
O108 O 0.64576 0.5415 0.81436 0.0
C109 C 0.63418 0.49786 0.76975 0.0
Fe110 Fe 0.12058 0.6714 0.85128 0.0
Fe111 Fe 0.10896 0.63574 0.90459 0.0
O112 O 0.12332 0.65357 0.85634 0.0
Fe113 Fe 0.14029 0.65351 0.81342 0.0
O114 O 0.15564 0.67191 0.86008 0.0
O115 O 0.14318 0.68686 0.84458 0.0
O116 O 0.12287 0.6743 0.94403 0.0
C117 C 0.11381 0.66305 0.98702 0.0
C118 C 0.12871 0.66876 0.7182 0.0
O119 O 0.10461 0.6479 0.96807 0.0
C120 C 0.11543 0.62118 0.78883 0.0
O121 O 0.09735 0.6591 0.85657 0.0
O122 O 0.09164 0.63279 0.85063 0.0
O123 O 0.14022 0.66619 0.74066 0.0
O124 O 0.1183 0.66954 0.75843 0.0
C125 C 0.13845 0.63737 0.94089 0.0
O126 O 0.11067 0.62021 0.8505 0.0
O127 O 0.12609 0.63514 0.76331 0.0
C128 C 0.08724 0.64372 0.84249 0.0
O129 O 0.1255 0.63764 0.96118 0.0
O130 O 0.14326 0.64068 0.87881 0.0
C131 C 0.15606 0.68588 0.86066 0.0
Fe132 Fe 0.876 0.54981 0.82121 0.0
Fe133 Fe 0.88672 0.52438 0.77771 0.0
O134 O 0.87282 0.52907 0.82246 0.0
Fe135 Fe 0.85572 0.51304 0.86907 0.0
O136 O 0.8407 0.51537 0.81666 0.0
O137 O 0.85342 0.54295 0.82739 0.0
O138 O 0.87356 0.5492 0.72828 0.0
C139 C 0.88223 0.54599 0.6869 0.0
C140 C 0.8679 0.54124 0.95613 0.0
O141 O 0.89068 0.53934 0.70775 0.0
C142 C 0.88054 0.5062 0.90245 0.0
O143 O 0.89916 0.56044 0.81431 0.0
O144 O 0.90455 0.53979 0.82658 0.0
O145 O 0.85575 0.52736 0.93524 0.0
O146 O 0.87869 0.55148 0.91412 0.0
C147 C 0.85713 0.49572 0.75055 0.0
O148 O 0.88529 0.50868 0.84023 0.0
O149 O 0.86975 0.50981 0.92407 0.0
C150 C 0.90931 0.55527 0.82877 0.0
O151 O 0.86973 0.50852 0.72561 0.0
O152 O 0.85272 0.49571 0.81218 0.0
C153 C 0.84051 0.52901 0.8116 0.0
Fe154 Fe 0.3253 0.8745 0.00324 0.0
Fe155 Fe 0.36052 0.88524 0.9469 0.0
O156 O 0.34299 0.8716 0.99789 0.0
Fe157 Fe 0.34319 0.85504 0.04368 0.0
O158 O 0.32489 0.83943 0.99732 0.0
O159 O 0.30995 0.85192 0.01293 0.0
O160 O 0.32167 0.87141 0.91104 0.0
C161 C 0.33262 0.88 0.8663 0.0
C162 C 0.32829 0.86727 0.1372 0.0
O163 O 0.34805 0.88881 0.88224 0.0
C164 C 0.37539 0.88025 0.0654 0.0
O165 O 0.33757 0.89764 0.99404 0.0
O166 O 0.36389 0.90332 0.99638 0.0
O167 O 0.3303 0.85537 0.11529 0.0
O168 O 0.32787 0.87769 0.09578 0.0
C169 C 0.35935 0.8557 0.91777 0.0
O170 O 0.3762 0.88418 0.00255 0.0
O171 O 0.36152 0.86982 0.09255 0.0
C172 C 0.35314 0.90797 0.00328 0.0
O173 O 0.35825 0.86793 0.89409 0.0
O174 O 0.35628 0.85174 0.9807 0.0
C175 C 0.31097 0.83912 0.9954 0.0
Fe176 Fe 0.44803 0.32774 0.16665 0.0
Fe177 Fe 0.47384 0.363 0.11613 0.0
O178 O 0.46906 0.34476 0.16405 0.0
Fe179 Fe 0.48517 0.34338 0.20878 0.0
O180 O 0.48121 0.32485 0.16083 0.0
O181 O 0.45379 0.31128 0.17556 0.0
O182 O 0.44801 0.32483 0.07424 0.0
C183 C 0.45123 0.33631 0.03081 0.0
C184 C 0.45747 0.32928 0.30067 0.0
O185 O 0.4578 0.35157 0.04958 0.0
C186 C 0.49446 0.3762 0.23493 0.0
O187 O 0.43822 0.34097 0.15827 0.0
O188 O 0.45955 0.36675 0.16723 0.0
O189 O 0.47128 0.33072 0.27996 0.0
O190 O 0.4472 0.32991 0.25908 0.0
C191 C 0.50104 0.35965 0.08375 0.0
O192 O 0.49076 0.37772 0.17361 0.0
O193 O 0.49042 0.36193 0.25958 0.0
C194 C 0.44402 0.35638 0.1729 0.0
O195 O 0.48846 0.36042 0.06219 0.0
O196 O 0.50181 0.35584 0.14579 0.0
C197 C 0.46721 0.31139 0.15893 0.0
Fe198 Fe 0.11726 0.44566 0.31235 0.0
Fe199 Fe 0.10703 0.47171 0.27127 0.0
O200 O 0.12072 0.46655 0.31524 0.0
Fe201 Fe 0.13789 0.48226 0.36287 0.0
O202 O 0.15284 0.47986 0.30996 0.0
O203 O 0.13974 0.45222 0.31813 0.0
O204 O 0.11965 0.44653 0.21939 0.0
C205 C 0.11164 0.45063 0.17823 0.0
C206 C 0.12534 0.45365 0.44787 0.0
O207 O 0.1032 0.45725 0.1995 0.0
C208 C 0.11326 0.48944 0.3974 0.0
O209 O 0.0942 0.43535 0.30559 0.0
O210 O 0.08897 0.4561 0.31881 0.0
O211 O 0.13754 0.4676 0.42788 0.0
O212 O 0.11458 0.4436 0.4053 0.0
C213 C 0.13687 0.50035 0.246 0.0
O214 O 0.10858 0.48716 0.33514 0.0
O215 O 0.12391 0.48556 0.4186 0.0
C216 C 0.08423 0.44062 0.32143 0.0
O217 O 0.12412 0.48777 0.22072 0.0
O218 O 0.14139 0.49993 0.30711 0.0
C219 C 0.15272 0.46611 0.30271 0.0
Fe220 Fe 0.67191 0.12258 0.52873 0.0
Fe221 Fe 0.63597 0.11104 0.47939 0.0
O222 O 0.65387 0.12492 0.52812 0.0
Fe223 Fe 0.65386 0.14125 0.57643 0.0
O224 O 0.67145 0.15714 0.52728 0.0
O225 O 0.68695 0.14518 0.53979 0.0
O226 O 0.67465 0.12623 0.43669 0.0
C227 C 0.66341 0.11774 0.39279 0.0
C228 C 0.67017 0.12931 0.66379 0.0
O229 O 0.64815 0.10836 0.41033 0.0
C230 C 0.62207 0.11568 0.60278 0.0
O231 O 0.6602 0.09954 0.51726 0.0
O232 O 0.63371 0.09295 0.52582 0.0
O233 O 0.66779 0.14117 0.64431 0.0
O234 O 0.67002 0.11887 0.62096 0.0
C235 C 0.63572 0.14014 0.45612 0.0
O236 O 0.6207 0.11132 0.54014 0.0
O237 O 0.63622 0.12623 0.6277 0.0
C238 C 0.64488 0.08878 0.52861 0.0
O239 O 0.63695 0.12826 0.42943 0.0
O240 O 0.6397 0.14415 0.51837 0.0
C241 C 0.68554 0.15783 0.52374 0.0
Fe242 Fe 0.55027 0.67359 0.65992 0.0
Fe243 Fe 0.5251 0.63717 0.61655 0.0
O244 O 0.52962 0.65571 0.66164 0.0
Fe245 Fe 0.51353 0.6565 0.70903 0.0
O246 O 0.51554 0.6738 0.65714 0.0
O247 O 0.54308 0.68902 0.66738 0.0
O248 O 0.54944 0.67549 0.56723 0.0
C249 C 0.54573 0.66361 0.52526 0.0
C250 C 0.54187 0.67262 0.79529 0.0
O251 O 0.53944 0.64846 0.54519 0.0
C252 C 0.507 0.62486 0.74213 0.0
O253 O 0.56122 0.66149 0.65141 0.0
O254 O 0.54107 0.63517 0.66316 0.0
O255 O 0.52789 0.67075 0.77508 0.0
O256 O 0.55224 0.67255 0.75264 0.0
C257 C 0.49604 0.63759 0.59099 0.0
O258 O 0.50979 0.62267 0.68017 0.0
O259 O 0.51057 0.63927 0.76353 0.0
C260 C 0.55647 0.64622 0.66455 0.0
O261 O 0.50882 0.6378 0.56617 0.0
O262 O 0.4961 0.64216 0.65243 0.0
C263 C 0.52905 0.68771 0.65141 0.0
H264 H 0.42565 0.10141 0.85033 0.0
H265 H 0.42097 0.09823 0.72566 0.0
H266 H 0.46577 0.14647 0.69365 0.0
H267 H 0.4706 0.14976 0.81723 0.0
H268 H 0.41738 0.11763 0.61929 0.0
H269 H 0.48776 0.14264 0.57122 0.0
H270 H 0.51237 0.14324 0.62634 0.0
H271 H 0.47943 0.09702 0.73198 0.0
H272 H 0.45472 0.09638 0.67876 0.0
H273 H 0.43929 0.13415 0.25822 0.0
H274 H 0.43588 0.13514 0.38297 0.0
H275 H 0.4424 0.09192 0.40816 0.0
H276 H 0.44604 0.09099 0.28462 0.0
H277 H 0.46348 0.11699 0.48745 0.0
H278 H 0.40431 0.08923 0.43629 0.0
H279 H 0.37869 0.08561 0.37887 0.0
H280 H 0.38672 0.13204 0.46732 0.0
H281 H 0.41253 0.13606 0.52454 0.0
C282 C 0.43436 0.11145 0.81679 0.0
C283 C 0.44858 0.12577 0.84382 0.0
C284 C 0.43164 0.10963 0.74562 0.0
C285 C 0.44313 0.12204 0.70052 0.0
C286 C 0.45685 0.13667 0.72757 0.0
C287 C 0.45958 0.13851 0.79836 0.0
C288 C 0.44166 0.11927 0.62515 0.0
C289 C 0.42742 0.11748 0.59024 0.0
C290 C 0.45466 0.11888 0.58748 0.0
C291 C 0.46944 0.11955 0.62158 0.0
C292 C 0.48582 0.13269 0.60664 0.0
C293 C 0.49978 0.13307 0.63776 0.0
C294 C 0.49749 0.12027 0.68322 0.0
C295 C 0.48123 0.10709 0.69774 0.0
C296 C 0.46723 0.10675 0.66737 0.0
C297 C 0.43969 0.12469 0.29032 0.0
C298 C 0.4431 0.1126 0.2616 0.0
C299 C 0.43769 0.12524 0.36154 0.0
C300 C 0.43892 0.11362 0.40488 0.0
C301 C 0.4415 0.10107 0.37576 0.0
C302 C 0.44359 0.10057 0.30502 0.0
C303 C 0.4392 0.11537 0.48078 0.0
C304 C 0.45336 0.11713 0.516 0.0
C305 C 0.42598 0.11544 0.51833 0.0
C306 C 0.41045 0.11303 0.48416 0.0
C307 C 0.4007 0.09874 0.44304 0.0
C308 C 0.38612 0.0966 0.41062 0.0
C309 C 0.3811 0.10861 0.4193 0.0
C310 C 0.39063 0.12276 0.46058 0.0
C311 C 0.40522 0.12497 0.49307 0.0
H312 H 0.36982 0.10693 0.39416 0.0
H313 H 0.50833 0.12054 0.70679 0.0
H314 H 0.32938 0.47863 0.96033 0.0
H315 H 0.32608 0.47231 0.83816 0.0
H316 H 0.31426 0.42127 0.88065 0.0
H317 H 0.31811 0.42772 0.00403 0.0
H318 H 0.33501 0.43286 0.77792 0.0
H319 H 0.28337 0.43064 0.82693 0.0
H320 H 0.26472 0.4401 0.8767 0.0
H321 H 0.28789 0.48446 0.75012 0.0
H322 H 0.30689 0.47542 0.70036 0.0
H323 H 0.30333 0.43544 0.40041 0.0
H324 H 0.29747 0.43018 0.52389 0.0
H325 H 0.35087 0.45839 0.56636 0.0
H326 H 0.3568 0.4632 0.44428 0.0
H327 H 0.30283 0.45037 0.6267 0.0
H328 H 0.36177 0.44525 0.70384 0.0
H329 H 0.37893 0.4338 0.65593 0.0
H330 H 0.33717 0.39921 0.53101 0.0
H331 H 0.31966 0.41027 0.57885 0.0
C332 C 0.32592 0.46598 0.94407 0.0
C333 C 0.3239 0.45364 0.99226 0.0
C334 C 0.32393 0.46235 0.87391 0.0
C335 C 0.31957 0.4462 0.84995 0.0
C336 C 0.31752 0.4338 0.89784 0.0
C337 C 0.31969 0.43749 0.96836 0.0
C338 C 0.31805 0.44274 0.77466 0.0
C339 C 0.32783 0.43653 0.74492 0.0
C340 C 0.30828 0.44703 0.73146 0.0
C341 C 0.29662 0.45237 0.76007 0.0
C342 C 0.28455 0.44245 0.80988 0.0
C343 C 0.27391 0.44774 0.83812 0.0
C344 C 0.27514 0.46288 0.81665 0.0
C345 C 0.28696 0.47273 0.76669 0.0
C346 C 0.29764 0.46751 0.73835 0.0
C347 C 0.31381 0.44032 0.43611 0.0
C348 C 0.33054 0.4496 0.41222 0.0
C349 C 0.31045 0.43735 0.50669 0.0
C350 C 0.32373 0.44361 0.5546 0.0
C351 C 0.34039 0.45298 0.53062 0.0
C352 C 0.34376 0.45581 0.46047 0.0
C353 C 0.32042 0.44125 0.62994 0.0
C354 C 0.30973 0.44637 0.6597 0.0
C355 C 0.32903 0.43556 0.6732 0.0
C356 C 0.33941 0.42865 0.64483 0.0
C357 C 0.35619 0.43512 0.66653 0.0
C358 C 0.366 0.42872 0.63928 0.0
C359 C 0.35914 0.41579 0.59049 0.0
C360 C 0.34247 0.40924 0.56878 0.0
C361 C 0.3326 0.41559 0.59588 0.0
H362 H 0.36675 0.41084 0.56956 0.0
H363 H 0.26691 0.46697 0.83868 0.0
H364 H 0.85191 0.30574 0.54639 0.0
H365 H 0.8496 0.30037 0.67063 0.0
H366 H 0.89883 0.34403 0.70055 0.0
H367 H 0.90111 0.34968 0.57685 0.0
H368 H 0.89122 0.31288 0.77934 0.0
H369 H 0.86967 0.35143 0.73279 0.0
H370 H 0.8512 0.35945 0.67097 0.0
H371 H 0.80763 0.31308 0.7328 0.0
H372 H 0.82587 0.30487 0.79562 0.0
H373 H 0.89437 0.33537 0.13019 0.0
H374 H 0.89592 0.33281 0.00556 0.0
H375 H 0.84158 0.30245 0.99629 0.0
H376 H 0.84005 0.30601 0.12007 0.0
H377 H 0.85027 0.32377 0.90344 0.0
H378 H 0.87051 0.28674 0.96618 0.0
H379 H 0.88813 0.27742 0.02645 0.0
H380 H 0.93255 0.31741 0.93168 0.0
H381 H 0.91522 0.32711 0.87151 0.0
C382 C 0.86234 0.31403 0.57937 0.0
C383 C 0.87667 0.32816 0.55209 0.0
C384 C 0.86099 0.31097 0.65018 0.0
C385 C 0.87405 0.32183 0.69444 0.0
C386 C 0.88866 0.33549 0.66701 0.0
C387 C 0.8899 0.33874 0.59649 0.0
C388 C 0.87203 0.31975 0.76981 0.0
C389 C 0.88235 0.3153 0.80693 0.0
C390 C 0.8601 0.32245 0.80499 0.0
C391 C 0.84912 0.32747 0.76824 0.0
C392 C 0.85615 0.34292 0.7329 0.0
C393 C 0.84573 0.34751 0.69778 0.0
C394 C 0.82826 0.33673 0.69746 0.0
C395 C 0.82116 0.32141 0.73296 0.0
C396 C 0.83153 0.31681 0.76856 0.0
C397 C 0.88282 0.32791 0.10148 0.0
C398 C 0.86711 0.32089 0.13444 0.0
C399 C 0.88369 0.32636 0.03023 0.0
C400 C 0.86887 0.31726 0.99108 0.0
C401 C 0.85321 0.30961 0.02493 0.0
C402 C 0.85233 0.31157 0.09571 0.0
C403 C 0.86955 0.31688 0.91457 0.0
C404 C 0.859 0.321 0.87672 0.0
C405 C 0.88109 0.31355 0.87883 0.0
C406 C 0.89156 0.30773 0.91474 0.0
C407 C 0.88405 0.29362 0.95854 0.0
C408 C 0.89398 0.28826 0.99263 0.0
C409 C 0.91145 0.29684 0.98301 0.0
C410 C 0.91902 0.31078 0.93912 0.0
C411 C 0.90914 0.3162 0.90493 0.0
H412 H 0.91912 0.29267 0.00946 0.0
H413 H 0.82024 0.34026 0.66983 0.0
H414 H 0.56667 0.89913 0.31603 0.0
H415 H 0.57173 0.90211 0.19162 0.0
H416 H 0.53557 0.84936 0.16374 0.0
H417 H 0.53012 0.84632 0.28776 0.0
H418 H 0.57011 0.86568 0.08298 0.0
H419 H 0.51797 0.86786 0.12062 0.0
H420 H 0.50148 0.87828 0.18221 0.0
H421 H 0.53996 0.92944 0.1416 0.0
H422 H 0.55657 0.9192 0.0786 0.0
H423 H 0.54638 0.85735 0.73063 0.0
H424 H 0.54957 0.85623 0.85501 0.0
H425 H 0.56536 0.90919 0.86999 0.0
H426 H 0.56113 0.91 0.74632 0.0
H427 H 0.5437 0.89422 0.96094 0.0
H428 H 0.59268 0.89144 0.89745 0.0
H429 H 0.60915 0.88091 0.83601 0.0
H430 H 0.579 0.83207 0.92759 0.0
H431 H 0.5622 0.84223 0.9889 0.0
C432 C 0.56001 0.8881 0.28355 0.0
C433 C 0.54797 0.8725 0.31159 0.0
C434 C 0.56291 0.88983 0.21261 0.0
C435 C 0.55406 0.87593 0.16885 0.0
C436 C 0.54259 0.86019 0.19691 0.0
C437 C 0.53944 0.85851 0.26764 0.0
C438 C 0.55562 0.87816 0.09337 0.0
C439 C 0.56432 0.87184 0.05581 0.0
C440 C 0.54842 0.88655 0.05867 0.0
C441 C 0.53853 0.8928 0.09571 0.0
C442 C 0.52292 0.88133 0.12513 0.0
C443 C 0.51355 0.88721 0.16014 0.0
C444 C 0.51975 0.90454 0.16651 0.0
C445 C 0.53522 0.91603 0.13689 0.0
C446 C 0.54458 0.91019 0.10123 0.0
C447 C 0.5508 0.86879 0.76049 0.0
C448 C 0.55347 0.88374 0.72909 0.0
C449 C 0.55273 0.86819 0.83163 0.0
C450 C 0.5579 0.88268 0.87232 0.0
C451 C 0.56128 0.89781 0.84011 0.0
C452 C 0.55892 0.89829 0.76939 0.0
C453 C 0.55832 0.88177 0.94878 0.0
C454 C 0.54986 0.88829 0.98714 0.0
C455 C 0.56596 0.87371 0.9839 0.0
C456 C 0.5761 0.86757 0.94737 0.0
C457 C 0.58949 0.87842 0.90414 0.0
C458 C 0.5989 0.87252 0.86939 0.0
C459 C 0.5951 0.85582 0.87778 0.0
C460 C 0.58192 0.845 0.92111 0.0
C461 C 0.57246 0.85083 0.95595 0.0
H462 H 0.6024 0.85128 0.85081 0.0
H463 H 0.51256 0.90906 0.19428 0.0
H464 H 0.68509 0.57437 0.90925 0.0
H465 H 0.68866 0.57733 0.03443 0.0
H466 H 0.64589 0.52714 0.05989 0.0
H467 H 0.64151 0.52493 0.93585 0.0
H468 H 0.64372 0.54322 0.15401 0.0
H469 H 0.69093 0.53929 0.07273 0.0
H470 H 0.71639 0.54681 0.00404 0.0
H471 H 0.7417 0.59602 0.0964 0.0
H472 H 0.71629 0.58886 0.165 0.0
H473 H 0.66701 0.52103 0.46913 0.0
H474 H 0.66709 0.52539 0.34551 0.0
H475 H 0.68343 0.57789 0.37882 0.0
H476 H 0.68304 0.57361 0.50386 0.0
H477 H 0.69999 0.56393 0.26009 0.0
H478 H 0.64876 0.56236 0.35057 0.0
H479 H 0.6234 0.54882 0.42404 0.0
H480 H 0.60558 0.50226 0.31407 0.0
H481 H 0.63101 0.51544 0.24093 0.0
C482 C 0.67644 0.56408 0.942 0.0
C483 C 0.66302 0.54945 0.91327 0.0
C484 C 0.67855 0.56568 0.01354 0.0
C485 C 0.66777 0.55233 0.05739 0.0
C486 C 0.65437 0.53772 0.02798 0.0
C487 C 0.65189 0.5364 0.95691 0.0
C488 C 0.67029 0.55338 0.13365 0.0
C489 C 0.65608 0.54774 0.17659 0.0
C490 C 0.68636 0.55926 0.16445 0.0
C491 C 0.70165 0.56361 0.12333 0.0
C492 C 0.70189 0.55176 0.078 0.0
C493 C 0.71631 0.55595 0.03915 0.0
C494 C 0.73063 0.57191 0.04569 0.0
C495 C 0.73058 0.58368 0.09127 0.0
C496 C 0.71618 0.57957 0.13016 0.0
C497 C 0.6709 0.53361 0.45051 0.0
C498 C 0.67505 0.547 0.49656 0.0
C499 C 0.6709 0.53604 0.37973 0.0
C500 C 0.67525 0.55193 0.35331 0.0
C501 C 0.68009 0.56554 0.39854 0.0
C502 C 0.67984 0.56307 0.46981 0.0
C503 C 0.67351 0.55377 0.27866 0.0
C504 C 0.68778 0.55979 0.23655 0.0
C505 C 0.65745 0.54754 0.24839 0.0
C506 C 0.64185 0.53986 0.29062 0.0
C507 C 0.63949 0.54921 0.34237 0.0
C508 C 0.6251 0.5416 0.38395 0.0
C509 C 0.6129 0.52468 0.37384 0.0
C510 C 0.61503 0.51536 0.3219 0.0
C511 C 0.62943 0.5229 0.28034 0.0
H512 H 0.60179 0.51879 0.40618 0.0
H513 H 0.74179 0.57513 0.01558 0.0
H514 H 0.11888 0.68876 0.65091 0.0
H515 H 0.11726 0.69168 0.52613 0.0
H516 H 0.13359 0.65534 0.49367 0.0
H517 H 0.13626 0.65332 0.61737 0.0
H518 H 0.14744 0.67715 0.40354 0.0
H519 H 0.09119 0.64625 0.487 0.0
H520 H 0.06741 0.64128 0.56147 0.0
H521 H 0.06634 0.68344 0.47 0.0
H522 H 0.09064 0.68909 0.39676 0.0
H523 H 0.09112 0.64381 0.0854 0.0
H524 H 0.09363 0.64828 0.2093 0.0
H525 H 0.13939 0.69593 0.18031 0.0
H526 H 0.13703 0.69147 0.05555 0.0
H527 H 0.09489 0.67043 0.30007 0.0
H528 H 0.168 0.69772 0.30836 0.0
H529 H 0.19005 0.69606 0.24195 0.0
H530 H 0.15261 0.64956 0.15034 0.0
H531 H 0.13043 0.65058 0.21834 0.0
C532 C 0.12222 0.68153 0.61682 0.0
C533 C 0.12771 0.67085 0.64352 0.0
C534 C 0.12124 0.68314 0.54561 0.0
C535 C 0.1251 0.67357 0.50012 0.0
C536 C 0.13067 0.66298 0.52725 0.0
C537 C 0.13213 0.66177 0.59807 0.0
C538 C 0.12293 0.67407 0.42441 0.0
C539 C 0.13599 0.67584 0.38107 0.0
C540 C 0.10781 0.67186 0.39467 0.0
C541 C 0.09287 0.66822 0.437 0.0
C542 C 0.08596 0.65454 0.48305 0.0
C543 C 0.07239 0.6516 0.52511 0.0
C544 C 0.06533 0.66202 0.52044 0.0
C545 C 0.07184 0.6754 0.47365 0.0
C546 C 0.08556 0.67852 0.43201 0.0
C547 C 0.10159 0.65539 0.10516 0.0
C548 C 0.11397 0.66722 0.06064 0.0
C549 C 0.10295 0.65796 0.17609 0.0
C550 C 0.11678 0.67234 0.20413 0.0
C551 C 0.12868 0.68467 0.15971 0.0
C552 C 0.12728 0.68214 0.08846 0.0
C553 C 0.11943 0.67357 0.27968 0.0
C554 C 0.10645 0.67209 0.32279 0.0
C555 C 0.13424 0.67506 0.30933 0.0
C556 C 0.14749 0.67445 0.26739 0.0
C557 C 0.16447 0.68715 0.27403 0.0
C558 C 0.177 0.68628 0.2363 0.0
C559 C 0.17272 0.67281 0.19136 0.0
C560 C 0.1559 0.66007 0.1847 0.0
C561 C 0.14334 0.66077 0.22296 0.0
H562 H 0.18243 0.67218 0.16201 0.0
H563 H 0.0548 0.65971 0.55302 0.0
H564 H 0.89355 0.56824 0.02402 0.0
H565 H 0.89722 0.57235 0.14875 0.0
H566 H 0.84937 0.52708 0.1811 0.0
H567 H 0.84561 0.52281 0.05733 0.0
H568 H 0.87907 0.5759 0.25467 0.0
H569 H 0.8542 0.50532 0.31732 0.0
H570 H 0.85265 0.47988 0.26679 0.0
H571 H 0.89422 0.51075 0.1335 0.0
H572 H 0.89626 0.53642 0.18418 0.0
H573 H 0.86176 0.55458 0.61485 0.0
H574 H 0.86115 0.55789 0.48989 0.0
H575 H 0.90372 0.5502 0.46772 0.0
H576 H 0.9043 0.5467 0.59146 0.0
H577 H 0.87863 0.52947 0.38783 0.0
H578 H 0.90762 0.58856 0.43739 0.0
H579 H 0.91211 0.61461 0.49388 0.0
H580 H 0.86623 0.60796 0.405 0.0
H581 H 0.86134 0.58172 0.34871 0.0
C582 C 0.88369 0.5593 0.05768 0.0
C583 C 0.86935 0.54513 0.03062 0.0
C584 C 0.88581 0.56168 0.1289 0.0
C585 C 0.87369 0.54987 0.17408 0.0
C586 C 0.859 0.53619 0.14714 0.0
C587 C 0.85687 0.53381 0.07624 0.0
C588 C 0.87667 0.55129 0.24931 0.0
C589 C 0.87897 0.56576 0.2839 0.0
C590 C 0.87676 0.53813 0.28726 0.0
C591 C 0.87525 0.52281 0.2541 0.0
C592 C 0.863 0.5067 0.27713 0.0
C593 C 0.86205 0.49224 0.24859 0.0
C594 C 0.87333 0.49372 0.19705 0.0
C595 C 0.88548 0.50965 0.17341 0.0
C596 C 0.88652 0.52417 0.20195 0.0
C597 C 0.87116 0.55389 0.58338 0.0
C598 C 0.88297 0.55021 0.61304 0.0
C599 C 0.87083 0.55584 0.51204 0.0
C600 C 0.88238 0.55427 0.46951 0.0
C601 C 0.89463 0.55137 0.4995 0.0
C602 C 0.89493 0.54936 0.57037 0.0
C603 C 0.88082 0.55398 0.39356 0.0
C604 C 0.87871 0.53963 0.35875 0.0
C605 C 0.88112 0.56731 0.35567 0.0
C606 C 0.88403 0.58309 0.38937 0.0
C607 C 0.89841 0.59257 0.43036 0.0
C608 C 0.90105 0.60739 0.46225 0.0
C609 C 0.88944 0.61291 0.45318 0.0
C610 C 0.8752 0.60365 0.41205 0.0
C611 C 0.8725 0.58882 0.38008 0.0
H612 H 0.89151 0.62439 0.4779 0.0
H613 H 0.8727 0.4825 0.17589 0.0
H614 H 0.34833 0.90552 0.77476 0.0
H615 H 0.34367 0.90447 0.65112 0.0
H616 H 0.30179 0.85364 0.66986 0.0
H617 H 0.30613 0.85485 0.7948 0.0
H618 H 0.34831 0.88413 0.57344 0.0
H619 H 0.27672 0.84458 0.52237 0.0
H620 H 0.25 0.83927 0.57519 0.0
H621 H 0.27546 0.88824 0.66949 0.0
H622 H 0.30227 0.89396 0.61637 0.0
H623 H 0.33226 0.84932 0.24009 0.0
H624 H 0.33014 0.85224 0.3637 0.0
H625 H 0.3172 0.8909 0.32874 0.0
H626 H 0.31934 0.88812 0.20418 0.0
H627 H 0.29738 0.86768 0.43174 0.0
H628 H 0.35583 0.90161 0.3685 0.0
H629 H 0.38427 0.90955 0.32647 0.0
H630 H 0.38663 0.87484 0.46809 0.0
H631 H 0.35794 0.86608 0.50869 0.0
C632 C 0.33788 0.89425 0.75279 0.0
C633 C 0.3277 0.8802 0.79417 0.0
C634 C 0.33523 0.89366 0.68211 0.0
C635 C 0.32248 0.87895 0.65101 0.0
C636 C 0.31161 0.8652 0.6927 0.0
C637 C 0.31412 0.86588 0.76402 0.0
C638 C 0.32219 0.87744 0.57492 0.0
C639 C 0.33715 0.88052 0.54249 0.0
C640 C 0.30764 0.87277 0.53463 0.0
C641 C 0.29154 0.86962 0.56585 0.0
C642 C 0.2766 0.85425 0.55407 0.0
C643 C 0.26144 0.85117 0.58406 0.0
C644 C 0.26104 0.86339 0.62584 0.0
C645 C 0.2758 0.87876 0.63737 0.0
C646 C 0.29099 0.88192 0.60736 0.0
C647 C 0.32881 0.85836 0.25838 0.0
C648 C 0.32599 0.86851 0.21206 0.0
C649 C 0.32766 0.86003 0.3292 0.0
C650 C 0.32362 0.87185 0.35537 0.0
C651 C 0.32031 0.88169 0.30947 0.0
C652 C 0.3216 0.88012 0.23838 0.0
C653 C 0.32354 0.87433 0.43068 0.0
C654 C 0.30851 0.87129 0.46285 0.0
C655 C 0.33808 0.87908 0.47117 0.0
C656 C 0.35461 0.88307 0.44127 0.0
C657 C 0.36221 0.89533 0.38943 0.0
C658 C 0.37841 0.9 0.36592 0.0
C659 C 0.38723 0.89268 0.39461 0.0
C660 C 0.37974 0.8804 0.44558 0.0
C661 C 0.36348 0.87553 0.46862 0.0
H662 H 0.39997 0.89669 0.37823 0.0
H663 H 0.2493 0.86096 0.64918 0.0
H664 H 0.44779 0.30858 0.96315 0.0
H665 H 0.44523 0.30355 0.8387 0.0
H666 H 0.44384 0.34947 0.80762 0.0
H667 H 0.44668 0.35476 0.93162 0.0
H668 H 0.41945 0.31959 0.72552 0.0
H669 H 0.48012 0.35425 0.77653 0.0
H670 H 0.50604 0.36037 0.8387 0.0
H671 H 0.49856 0.31167 0.78355 0.0
H672 H 0.47273 0.30542 0.71971 0.0
H673 H 0.4418 0.34209 0.37799 0.0
H674 H 0.43733 0.33963 0.50222 0.0
H675 H 0.45817 0.30649 0.51275 0.0
H676 H 0.46383 0.31008 0.38915 0.0
H677 H 0.47068 0.32643 0.60868 0.0
H678 H 0.41339 0.29359 0.53739 0.0
H679 H 0.38749 0.28674 0.47333 0.0
H680 H 0.38626 0.32843 0.56861 0.0
H681 H 0.41229 0.33567 0.63259 0.0
C682 C 0.44664 0.31745 0.92991 0.0
C683 C 0.44748 0.33209 0.95711 0.0
C684 C 0.44524 0.31458 0.85891 0.0
C685 C 0.44439 0.32617 0.81418 0.0
C686 C 0.44442 0.34037 0.84142 0.0
C687 C 0.44611 0.34339 0.9122 0.0
C688 C 0.44472 0.3242 0.73873 0.0
C689 C 0.43061 0.32111 0.69953 0.0
C690 C 0.4591 0.32568 0.70547 0.0
C691 C 0.47447 0.32932 0.7441 0.0
C692 C 0.48397 0.34482 0.77808 0.0
C693 C 0.49865 0.34832 0.81351 0.0
C694 C 0.50387 0.33636 0.81579 0.0
C695 C 0.49449 0.32091 0.78198 0.0
C696 C 0.47988 0.31741 0.74585 0.0
C697 C 0.44522 0.33413 0.40692 0.0
C698 C 0.45313 0.32626 0.37426 0.0
C699 C 0.44254 0.33259 0.47796 0.0
C700 C 0.4471 0.32259 0.51737 0.0
C701 C 0.45455 0.31431 0.48396 0.0
C702 C 0.45774 0.3163 0.4133 0.0
C703 C 0.44532 0.32182 0.59378 0.0
C704 C 0.45926 0.3245 0.63371 0.0
C705 C 0.43059 0.31961 0.62752 0.0
C706 C 0.41487 0.31524 0.58944 0.0
C707 C 0.40766 0.30136 0.54438 0.0
C708 C 0.39295 0.2974 0.50812 0.0
C709 C 0.38525 0.30717 0.5168 0.0
C710 C 0.39224 0.32088 0.56192 0.0
C711 C 0.40696 0.32491 0.59828 0.0
H712 H 0.37387 0.30409 0.48865 0.0
H713 H 0.51522 0.33909 0.84345 0.0
H714 H 0.11014 0.42349 0.11143 0.0
H715 H 0.11019 0.41942 0.98666 0.0
H716 H 0.11552 0.46856 0.95375 0.0
H717 H 0.11412 0.47193 0.07732 0.0
H718 H 0.09608 0.45051 0.86469 0.0
H719 H 0.14935 0.45832 0.94068 0.0
H720 H 0.16874 0.45259 0.00833 0.0
H721 H 0.14627 0.40276 0.92238 0.0
H722 H 0.12661 0.40813 0.85484 0.0
H723 H 0.14336 0.47463 0.55273 0.0
H724 H 0.13928 0.46915 0.67578 0.0
H725 H 0.10015 0.41802 0.63593 0.0
H726 H 0.10386 0.42345 0.51149 0.0
H727 H 0.1337 0.43257 0.75681 0.0
H728 H 0.08049 0.42987 0.6745 0.0
H729 H 0.06783 0.44226 0.59914 0.0
H730 H 0.09776 0.49041 0.69656 0.0
H731 H 0.11088 0.47838 0.77125 0.0
C732 C 0.11126 0.43333 0.07717 0.0
C733 C 0.11208 0.44798 0.10366 0.0
C734 C 0.1114 0.43108 0.0059 0.0
C735 C 0.11308 0.44377 0.96015 0.0
C736 C 0.11404 0.45846 0.98731 0.0
C737 C 0.11333 0.46043 0.05808 0.0
C738 C 0.11389 0.442 0.8841 0.0
C739 C 0.10428 0.44648 0.8417 0.0
C740 C 0.12458 0.43681 0.85289 0.0
C741 C 0.13637 0.43355 0.89343 0.0
C742 C 0.14847 0.4461 0.93662 0.0
C743 C 0.15952 0.44293 0.97487 0.0
C744 C 0.1587 0.4273 0.96984 0.0
C745 C 0.14686 0.41484 0.92636 0.0
C746 C 0.13577 0.41794 0.88807 0.0
C747 C 0.13403 0.46211 0.56971 0.0
C748 C 0.1239 0.44947 0.52209 0.0
C749 C 0.13176 0.45902 0.64017 0.0
C750 C 0.11945 0.44322 0.6646 0.0
C751 C 0.10976 0.43029 0.61768 0.0
C752 C 0.11186 0.43343 0.54678 0.0
C753 C 0.11592 0.44099 0.73915 0.0
C754 C 0.12515 0.43602 0.78079 0.0
C755 C 0.10543 0.44635 0.76988 0.0
C756 C 0.09676 0.45326 0.72794 0.0
C757 C 0.08442 0.44312 0.67955 0.0
C758 C 0.07718 0.45008 0.63691 0.0
C759 C 0.08208 0.46715 0.6427 0.0
C760 C 0.09405 0.47722 0.69181 0.0
C761 C 0.10138 0.47034 0.73434 0.0
H762 H 0.07661 0.47256 0.60913 0.0
H763 H 0.16726 0.42487 0.99947 0.0
H764 H 0.66475 0.10136 0.73542 0.0
H765 H 0.66709 0.09905 0.86016 0.0
H766 H 0.68561 0.15236 0.8822 0.0
H767 H 0.68303 0.15473 0.75804 0.0
H768 H 0.70276 0.13865 0.96697 0.0
H769 H 0.64756 0.13112 0.91672 0.0
H770 H 0.62035 0.11861 0.85554 0.0
H771 H 0.60905 0.06911 0.91919 0.0
H772 H 0.63619 0.0814 0.98136 0.0
H773 H 0.6853 0.14531 0.31894 0.0
H774 H 0.6896 0.14698 0.1945 0.0
H775 H 0.65651 0.09304 0.17887 0.0
H776 H 0.65127 0.09163 0.30257 0.0
H777 H 0.64792 0.10652 0.08799 0.0
H778 H 0.70272 0.11552 0.1537 0.0
H779 H 0.72961 0.12943 0.21754 0.0
H780 H 0.74221 0.17693 0.12537 0.0
H781 H 0.71532 0.16335 0.06153 0.0
C782 C 0.66961 0.11263 0.76675 0.0
C783 C 0.67362 0.1282 0.73717 0.0
C784 C 0.67091 0.11129 0.83784 0.0
C785 C 0.67649 0.12554 0.88009 0.0
C786 C 0.68134 0.14125 0.85028 0.0
C787 C 0.67977 0.14255 0.77948 0.0
C788 C 0.6758 0.12382 0.95576 0.0
C789 C 0.69082 0.13166 0.99381 0.0
C790 C 0.66022 0.11461 0.99022 0.0
C791 C 0.64395 0.10714 0.9529 0.0
C792 C 0.63932 0.11756 0.91718 0.0
C793 C 0.6239 0.11051 0.88244 0.0
C794 C 0.61303 0.09306 0.88291 0.0
C795 C 0.6175 0.08262 0.91866 0.0
C796 C 0.63287 0.08963 0.95387 0.0
C797 C 0.67919 0.13381 0.28883 0.0
C798 C 0.66797 0.11835 0.31992 0.0
C799 C 0.68173 0.13473 0.21771 0.0
C800 C 0.67358 0.12009 0.17691 0.0
C801 C 0.66291 0.10453 0.20889 0.0
C802 C 0.65997 0.1037 0.27955 0.0
C803 C 0.67498 0.12107 0.10058 0.0
C804 C 0.66 0.11322 0.06191 0.0
C805 C 0.69064 0.13031 0.06586 0.0
C806 C 0.70697 0.13842 0.10308 0.0
C807 C 0.71121 0.12894 0.1472 0.0
C808 C 0.72645 0.13677 0.18337 0.0
C809 C 0.73761 0.15405 0.17553 0.0
C810 C 0.73358 0.16354 0.13126 0.0
C811 C 0.71835 0.15578 0.095 0.0
H812 H 0.74938 0.16009 0.20373 0.0
H813 H 0.60111 0.08763 0.85584 0.0
H814 H 0.52234 0.64848 0.42701 0.0
H815 H 0.52576 0.65264 0.30313 0.0
H816 H 0.57837 0.68969 0.33172 0.0
H817 H 0.57447 0.68638 0.45725 0.0
H818 H 0.5672 0.69945 0.23165 0.0
H819 H 0.56375 0.64696 0.28029 0.0
H820 H 0.55211 0.61864 0.33152 0.0
H821 H 0.50643 0.60126 0.21593 0.0
H822 H 0.51758 0.62954 0.16518 0.0
H823 H 0.57262 0.6845 0.85953 0.0
H824 H 0.57786 0.68565 0.98418 0.0
H825 H 0.52483 0.66558 0.02282 0.0
H826 H 0.51954 0.66472 0.89977 0.0
H827 H 0.54238 0.64807 0.08593 0.0
H828 H 0.54572 0.70282 0.0537 0.0
H829 H 0.5583 0.73122 0.00246 0.0
H830 H 0.60669 0.74371 0.08505 0.0
H831 H 0.59442 0.71527 0.13594 0.0
C832 C 0.53459 0.65759 0.40674 0.0
C833 C 0.54818 0.66701 0.4511 0.0
C834 C 0.53661 0.65986 0.3359 0.0
C835 C 0.55249 0.67102 0.30758 0.0
C836 C 0.56604 0.68086 0.35216 0.0
C837 C 0.56385 0.67897 0.42365 0.0
C838 C 0.55469 0.67224 0.23153 0.0
C839 C 0.56208 0.6882 0.20001 0.0
C840 C 0.54814 0.6576 0.18962 0.0
C841 C 0.54151 0.64043 0.21904 0.0
C842 C 0.5512 0.63712 0.26595 0.0
C843 C 0.54468 0.62108 0.29495 0.0
C844 C 0.52857 0.60817 0.27691 0.0
C845 C 0.51892 0.61127 0.22979 0.0
C846 C 0.52534 0.62731 0.20086 0.0
C847 C 0.56214 0.68053 0.89474 0.0
C848 C 0.54568 0.6746 0.8698 0.0
C849 C 0.56516 0.68121 0.96571 0.0
C850 C 0.55171 0.67569 0.01231 0.0
C851 C 0.53536 0.66991 0.98751 0.0
C852 C 0.53239 0.66952 0.91712 0.0
C853 C 0.55423 0.67511 0.08709 0.0
C854 C 0.5478 0.65926 0.11807 0.0
C855 C 0.5619 0.68979 0.12818 0.0
C856 C 0.56921 0.70686 0.09775 0.0
C857 C 0.55908 0.71156 0.06027 0.0
C858 C 0.56614 0.72768 0.03146 0.0
C859 C 0.5833 0.73924 0.04026 0.0
C860 C 0.59341 0.73473 0.07811 0.0
C861 C 0.58641 0.71862 0.10696 0.0
H862 H 0.58874 0.75172 0.01795 0.0
H863 H 0.52355 0.59576 0.29947 0.0
H864 H 0.44741 0.06214 0.01018 0.0
H865 H 0.4282 0.03208 0.99483 0.0
H866 H 0.38569 0.03911 0.03302 0.0
H867 H 0.40495 0.0694 0.0497 0.0
H868 H 0.38357 0.01298 0.1066 0.0
H869 H 0.39217 0.02968 0.87273 0.0
H870 H 0.4084 0.04468 0.76958 0.0
H871 H 0.43492 0.01707 0.77702 0.0
H872 H 0.41902 0.00207 0.88082 0.0
H873 H 0.33435 0.92361 0.01798 0.0
H874 H 0.34482 0.95409 0.01932 0.0
H875 H 0.39594 0.96382 0.00507 0.0
H876 H 0.38576 0.93367 0.00431 0.0
H877 H 0.38772 0.98139 0.90731 0.0
H878 H 0.38241 0.9689 0.15245 0.0
H879 H 0.36657 0.95435 0.25703 0.0
H880 H 0.33342 0.97429 0.22625 0.0
H881 H 0.34894 0.98877 0.12084 0.0
C882 C 0.43398 0.05737 0.01489 0.0
C883 C 0.42772 0.06817 0.03143 0.0
C884 C 0.42299 0.04018 0.00565 0.0
C885 C 0.40551 0.0334 0.01202 0.0
C886 C 0.39915 0.04413 0.02766 0.0
C887 C 0.41016 0.06141 0.03695 0.0
C888 C 0.39416 0.01496 0.00567 0.0
C889 C 0.38412 0.00607 0.06227 0.0
C890 C 0.39498 0.00599 0.94799 0.0
C891 C 0.40442 0.01478 0.88482 0.0
C892 C 0.40152 0.02686 0.8526 0.0
C893 C 0.41066 0.03536 0.79397 0.0
C894 C 0.42269 0.03184 0.7668 0.0
C895 C 0.42558 0.01977 0.7981 0.0
C896 C 0.41648 0.01124 0.85676 0.0
C897 C 0.34782 0.93226 0.01579 0.0
C898 C 0.35921 0.9262 0.01066 0.0
C899 C 0.35376 0.94963 0.01646 0.0
C900 C 0.37112 0.96112 0.01169 0.0
C901 C 0.38248 0.95511 0.00816 0.0
C902 C 0.37661 0.93785 0.0081 0.0
C903 C 0.37773 0.9795 0.00922 0.0
C904 C 0.38683 0.98834 0.95078 0.0
C905 C 0.37597 0.9884 0.06497 0.0
C906 C 0.36668 0.97971 0.12829 0.0
C907 C 0.37164 0.97004 0.1676 0.0
C908 C 0.36275 0.96183 0.2271 0.0
C909 C 0.34896 0.96334 0.24813 0.0
C910 C 0.34407 0.9731 0.2098 0.0
C911 C 0.35291 0.98131 0.15019 0.0
H912 H 0.34209 0.95699 0.29423 0.0
H913 H 0.42977 0.03845 0.72145 0.0
H914 H 0.40944 0.33864 0.17218 0.0
H915 H 0.39036 0.34994 0.1853 0.0
H916 H 0.43304 0.39972 0.21768 0.0
H917 H 0.45215 0.38858 0.20558 0.0
H918 H 0.407 0.39328 0.30369 0.0
H919 H 0.41523 0.38737 0.06002 0.0
H920 H 0.41413 0.37114 0.95695 0.0
H921 H 0.36069 0.33904 0.9832 0.0
H922 H 0.36154 0.35495 0.08707 0.0
H923 H 0.38742 0.45366 0.19566 0.0
H924 H 0.3985 0.43439 0.19721 0.0
H925 H 0.34794 0.39183 0.18801 0.0
H926 H 0.33658 0.41108 0.18707 0.0
H927 H 0.3727 0.38978 0.09996 0.0
H928 H 0.36385 0.39881 0.33283 0.0
H929 H 0.36498 0.41568 0.43345 0.0
H930 H 0.41912 0.44167 0.42879 0.0
H931 H 0.41833 0.42525 0.32683 0.0
C932 C 0.41475 0.35197 0.18283 0.0
C933 C 0.43233 0.36276 0.18692 0.0
C934 C 0.40384 0.35839 0.19019 0.0
C935 C 0.41033 0.37569 0.20156 0.0
C936 C 0.42779 0.38633 0.20882 0.0
C937 C 0.4387 0.37994 0.2015 0.0
C938 C 0.39918 0.38307 0.20184 0.0
C939 C 0.39951 0.39252 0.2592 0.0
C940 C 0.389 0.38164 0.14449 0.0
C941 C 0.38848 0.37221 0.08169 0.0
C942 C 0.40327 0.37678 0.04406 0.0
C943 C 0.40269 0.36765 0.98548 0.0
C944 C 0.38736 0.35404 0.96366 0.0
C945 C 0.37256 0.34956 1.00025 0.0
C946 C 0.37308 0.35863 0.05896 0.0
C947 C 0.3786 0.44022 0.19328 0.0
C948 C 0.36109 0.4339 0.19202 0.0
C949 C 0.38498 0.42924 0.19435 0.0
C950 C 0.374 0.41175 0.19372 0.0
C951 C 0.35656 0.40533 0.1889 0.0
C952 C 0.35012 0.41633 0.1885 0.0
C953 C 0.38099 0.40038 0.20088 0.0
C954 C 0.37988 0.39021 0.14505 0.0
C955 C 0.39042 0.40111 0.25968 0.0
C956 C 0.39102 0.41086 0.32177 0.0
C957 C 0.376 0.40821 0.35286 0.0
C958 C 0.37658 0.41769 0.41022 0.0
C959 C 0.39211 0.42973 0.43757 0.0
C960 C 0.4071 0.43233 0.40756 0.0
C961 C 0.40659 0.42294 0.34994 0.0
H962 H 0.39253 0.43705 0.48204 0.0
H963 H 0.38693 0.34698 0.9183 0.0
H964 H 0.06858 0.40606 0.32227 0.0
H965 H 0.03842 0.38605 0.33644 0.0
H966 H 0.0292 0.4275 0.36484 0.0
H967 H 0.0592 0.4475 0.35211 0.0
H968 H 0.01063 0.40238 0.45203 0.0
H969 H 0.0241 0.40816 0.20771 0.0
H970 H 0.03913 0.4064 0.10556 0.0
H971 H 0.01939 0.35354 0.1424 0.0
H972 H 0.00442 0.35506 0.24536 0.0
H973 H 0.93223 0.38336 0.33113 0.0
H974 H 0.96231 0.39335 0.3361 0.0
H975 H 0.95221 0.34207 0.34701 0.0
H976 H 0.92175 0.33178 0.34282 0.0
H977 H 0.98001 0.36569 0.25333 0.0
H978 H 0.9618 0.35978 0.4866 0.0
H979 H 0.94608 0.36256 0.58384 0.0
H980 H 0.97445 0.41652 0.56517 0.0
H981 H 0.99012 0.41406 0.46693 0.0
C982 C 0.06014 0.4109 0.33218 0.0
C983 C 0.06627 0.42839 0.33519 0.0
C984 C 0.04292 0.39945 0.34012 0.0
C985 C 0.03157 0.40531 0.35079 0.0
C986 C 0.03775 0.42271 0.3566 0.0
C987 C 0.05491 0.43414 0.34892 0.0
C988 C 0.01312 0.39358 0.35238 0.0
C989 C 0.00395 0.39431 0.40872 0.0
C990 C 0.00443 0.38269 0.29666 0.0
C991 C 0.01333 0.38176 0.23463 0.0
C992 C 0.02308 0.3962 0.19428 0.0
C993 C 0.03156 0.39524 0.13622 0.0
C994 C 0.03026 0.37988 0.11764 0.0
C995 C 0.02042 0.36544 0.15696 0.0
C996 C 0.01193 0.36633 0.21515 0.0
C997 C 0.9363 0.37412 0.334 0.0
C998 C 0.92455 0.35675 0.33738 0.0
C999 C 0.95352 0.37988 0.33694 0.0
C1000 C 0.95938 0.36843 0.34292 0.0
C1001 C 0.94783 0.35106 0.3428 0.0
C1002 C 0.93048 0.34523 0.34046 0.0
C1003 C 0.97763 0.37502 0.35179 0.0
C1004 C 0.98674 0.37334 0.29753 0.0
C1005 C 0.98628 0.38515 0.4092 0.0
C1006 C 0.97708 0.38672 0.46909 0.0
C1007 C 0.96461 0.37224 0.50289 0.0
C1008 C 0.95571 0.37375 0.55824 0.0
C1009 C 0.95925 0.3897 0.58062 0.0
C1010 C 0.97172 0.40417 0.54778 0.0
C1011 C 0.98063 0.40272 0.4923 0.0
H1012 H 0.95235 0.39085 0.62346 0.0
H1013 H 0.03684 0.37917 0.07267 0.0
H1014 H 0.59334 0.92722 0.52978 0.0
H1015 H 0.61363 0.95752 0.5226 0.0
H1016 H 0.57337 0.96689 0.46782 0.0
H1017 H 0.55316 0.93681 0.47382 0.0
H1018 H 0.60158 0.98688 0.39567 0.0
H1019 H 0.58617 0.96938 0.63393 0.0
H1020 H 0.58406 0.95261 0.73661 0.0
H1021 H 0.63779 0.97347 0.73584 0.0
H1022 H 0.64018 0.99017 0.63244 0.0
H1023 H 0.61278 0.06206 0.52556 0.0
H1024 H 0.60406 0.03226 0.5174 0.0
H1025 H 0.6559 0.04431 0.53273 0.0
H1026 H 0.66492 0.07445 0.54004 0.0
H1027 H 0.62917 0.01441 0.6156 0.0
H1028 H 0.64405 0.03664 0.38777 0.0
H1029 H 0.64462 0.05393 0.28948 0.0
H1030 H 0.59069 0.02436 0.27291 0.0
H1031 H 0.58975 0.00711 0.37208 0.0
C1032 C 0.58887 0.93572 0.51516 0.0
C1033 C 0.5716 0.92965 0.50338 0.0
C1034 C 0.60047 0.95301 0.51123 0.0
C1035 C 0.59495 0.96444 0.49555 0.0
C1036 C 0.57789 0.95829 0.48007 0.0
C1037 C 0.56633 0.94108 0.484 0.0
C1038 C 0.60643 0.98288 0.50037 0.0
C1039 C 0.60772 0.9929 0.44356 0.0
C1040 C 0.61474 0.99072 0.56249 0.0
C1041 C 0.61333 0.98084 0.62504 0.0
C1042 C 0.59752 0.97029 0.65541 0.0
C1043 C 0.59627 0.96081 0.71374 0.0
C1044 C 0.61078 0.96193 0.7426 0.0
C1045 C 0.62656 0.97258 0.71332 0.0
C1046 C 0.62787 0.98205 0.65486 0.0
C1047 C 0.62238 0.05845 0.52807 0.0
C1048 C 0.63958 0.07067 0.53273 0.0
C1049 C 0.61735 0.04141 0.52327 0.0
C1050 C 0.62938 0.03621 0.52367 0.0
C1051 C 0.64649 0.04819 0.53207 0.0
C1052 C 0.65158 0.06535 0.5361 0.0
C1053 C 0.6238 0.01827 0.51161 0.0
C1054 C 0.62355 0.00838 0.56702 0.0
C1055 C 0.61632 0.01053 0.44837 0.0
C1056 C 0.61683 0.02064 0.3877 0.0
C1057 C 0.6323 0.0339 0.36351 0.0
C1058 C 0.63269 0.04368 0.3076 0.0
C1059 C 0.6177 0.04025 0.27502 0.0
C1060 C 0.60229 0.027 0.2982 0.0
C1061 C 0.60182 0.0172 0.35424 0.0
H1062 H 0.61803 0.04785 0.23176 0.0
H1063 H 0.60979 0.95458 0.78775 0.0
H1064 H 0.66503 0.59341 0.70898 0.0
H1065 H 0.65571 0.61411 0.69519 0.0
H1066 H 0.60706 0.57464 0.6256 0.0
H1067 H 0.61627 0.55403 0.63815 0.0
H1068 H 0.61754 0.60331 0.5526 0.0
H1069 H 0.61415 0.58695 0.79416 0.0
H1070 H 0.6265 0.5845 0.90328 0.0
H1071 H 0.65995 0.63814 0.90631 0.0
H1072 H 0.64792 0.64086 0.79665 0.0
H1073 H 0.55116 0.61424 0.65444 0.0
H1074 H 0.57234 0.60556 0.65141 0.0
H1075 H 0.61169 0.65701 0.68419 0.0
H1076 H 0.5905 0.66599 0.68624 0.0
H1077 H 0.613 0.63005 0.76746 0.0
H1078 H 0.61123 0.64639 0.53723 0.0
H1079 H 0.59818 0.64821 0.4291 0.0
H1080 H 0.5741 0.59447 0.40468 0.0
H1081 H 0.58676 0.59228 0.51336 0.0
C1082 C 0.65244 0.5892 0.68981 0.0
C1083 C 0.6413 0.57204 0.67561 0.0
C1084 C 0.64714 0.60103 0.68211 0.0
C1085 C 0.63064 0.59585 0.66021 0.0
C1086 C 0.61984 0.5789 0.64263 0.0
C1087 C 0.6251 0.56711 0.6503 0.0
C1088 C 0.62393 0.60756 0.6601 0.0
C1089 C 0.61662 0.60924 0.59943 0.0
C1090 C 0.6232 0.61572 0.72081 0.0
C1091 C 0.6303 0.61408 0.7869 0.0
C1092 C 0.62422 0.5982 0.8179 0.0
C1093 C 0.63115 0.59676 0.87984 0.0
C1094 C 0.64404 0.61115 0.91159 0.0
C1095 C 0.64999 0.627 0.88157 0.0
C1096 C 0.64313 0.6285 0.81955 0.0
C1097 C 0.56428 0.62373 0.66171 0.0
C1098 C 0.56916 0.64083 0.67019 0.0
C1099 C 0.57636 0.61875 0.65962 0.0
C1100 C 0.59352 0.6307 0.66672 0.0
C1101 C 0.59847 0.64767 0.67822 0.0
C1102 C 0.58637 0.65274 0.67933 0.0
C1103 C 0.60606 0.62516 0.66067 0.0
C1104 C 0.61441 0.62461 0.72011 0.0
C1105 C 0.60771 0.61799 0.59888 0.0
C1106 C 0.5999 0.61917 0.53372 0.0
C1107 C 0.60302 0.63494 0.5092 0.0
C1108 C 0.59571 0.63604 0.44773 0.0
C1109 C 0.58533 0.62147 0.41005 0.0
C1110 C 0.58217 0.60575 0.43391 0.0
C1111 C 0.58942 0.60457 0.49542 0.0
H1112 H 0.57981 0.62236 0.36221 0.0
H1113 H 0.64939 0.61001 0.95954 0.0
H1114 H 0.06235 0.6117 0.81318 0.0
H1115 H 0.03243 0.60152 0.79933 0.0
H1116 H 0.04139 0.65229 0.82045 0.0
H1117 H 0.07158 0.66264 0.8362 0.0
H1118 H 0.01638 0.63175 0.90109 0.0
H1119 H 0.02591 0.63093 0.66026 0.0
H1120 H 0.03669 0.62571 0.55228 0.0
H1121 H 0.01302 0.57296 0.60033 0.0
H1122 H 0.00166 0.57776 0.70767 0.0
H1123 H 0.92543 0.58994 0.82587 0.0
H1124 H 0.956 0.60953 0.82271 0.0
H1125 H 0.96481 0.56767 0.84346 0.0
H1126 H 0.93457 0.54812 0.8475 0.0
H1127 H 0.9805 0.58931 0.72679 0.0
H1128 H 0.9726 0.59179 0.97363 0.0
H1129 H 0.96031 0.59767 0.07542 0.0
H1130 H 0.98102 0.64915 0.01076 0.0
H1131 H 0.99324 0.64349 0.90797 0.0
C1132 C 0.05806 0.62079 0.81409 0.0
C1133 C 0.06937 0.63798 0.82641 0.0
C1134 C 0.04091 0.61495 0.80543 0.0
C1135 C 0.03466 0.62616 0.80789 0.0
C1136 C 0.04596 0.64343 0.81808 0.0
C1137 C 0.0632 0.64931 0.82699 0.0
C1138 C 0.01617 0.61938 0.80628 0.0
C1139 C 0.00854 0.6228 0.86195 0.0
C1140 C 0.00589 0.60766 0.75557 0.0
C1141 C 0.01305 0.60474 0.69216 0.0
C1142 C 0.02311 0.61824 0.64802 0.0
C1143 C 0.02929 0.61535 0.58686 0.0
C1144 C 0.02572 0.59906 0.56984 0.0
C1145 C 0.01581 0.58558 0.61364 0.0
C1146 C 0.00939 0.58835 0.67437 0.0
C1147 C 0.93389 0.58494 0.83084 0.0
C1148 C 0.92755 0.56744 0.83611 0.0
C1149 C 0.95131 0.59614 0.82902 0.0
C1150 C 0.96255 0.58996 0.83221 0.0
C1151 C 0.95628 0.57262 0.8404 0.0
C1152 C 0.93896 0.56148 0.84283 0.0
C1153 C 0.98087 0.6012 0.82275 0.0
C1154 C 0.98839 0.59859 0.76487 0.0
C1155 C 0.99096 0.61379 0.87089 0.0
C1156 C 0.98363 0.61716 0.93266 0.0
C1157 C 0.97438 0.60431 0.98073 0.0
C1158 C 0.96747 0.60762 0.03869 0.0
C1159 C 0.96983 0.62376 0.04942 0.0
C1160 C 0.97916 0.63664 0.0023 0.0
C1161 C 0.98609 0.6334 0.9442 0.0
H1162 H 0.96447 0.62629 0.09434 0.0
H1163 H 0.03057 0.59688 0.52254 0.0
H1164 H 0.48294 0.09897 0.85601 0.0
H1165 H 0.50358 0.09547 0.78667 0.0
H1166 H 0.54163 0.12252 0.94058 0.0
H1167 H 0.52092 0.12526 0.01096 0.0
H1168 H 0.55132 0.1349 0.80621 0.0
H1169 H 0.52493 0.08108 0.92813 0.0
H1170 H 0.50033 0.05393 0.96213 0.0
H1171 H 0.48979 0.03944 0.74994 0.0
H1172 H 0.51422 0.06663 0.71478 0.0
H1173 H 0.6201 0.12567 0.73296 0.0
H1174 H 0.59502 0.12227 0.79131 0.0
H1175 H 0.56408 0.09285 0.62112 0.0
H1176 H 0.58914 0.096 0.56237 0.0
H1177 H 0.54848 0.0807 0.74847 0.0
H1178 H 0.57415 0.13198 0.62269 0.0
H1179 H 0.59692 0.15938 0.58028 0.0
H1180 H 0.60693 0.17882 0.78621 0.0
H1181 H 0.58429 0.1515 0.83007 0.0
C1182 C 0.49569 0.10393 0.87486 0.0
C1183 C 0.50048 0.11231 0.93823 0.0
C1184 C 0.50739 0.10194 0.83564 0.0
C1185 C 0.52406 0.10874 0.8588 0.0
C1186 C 0.52878 0.1171 0.92228 0.0
C1187 C 0.517 0.11864 0.96228 0.0
C1188 C 0.53694 0.10786 0.81613 0.0
C1189 C 0.5508 0.12307 0.79411 0.0
C1190 C 0.53578 0.09237 0.79773 0.0
C1191 C 0.52128 0.07594 0.81889 0.0
C1192 C 0.51728 0.07215 0.88879 0.0
C1193 C 0.50339 0.05675 0.90824 0.0
C1194 C 0.49347 0.04498 0.85821 0.0
C1195 C 0.49747 0.04857 0.78863 0.0
C1196 C 0.51135 0.06397 0.76893 0.0
C1197 C 0.60794 0.11818 0.70842 0.0
C1198 C 0.60666 0.11126 0.64269 0.0
C1199 C 0.59363 0.11633 0.74169 0.0
C1200 C 0.57779 0.1076 0.70979 0.0
C1201 C 0.57624 0.09971 0.64629 0.0
C1202 C 0.59058 0.10156 0.61284 0.0
C1203 C 0.56319 0.1078 0.74106 0.0
C1204 C 0.54897 0.09252 0.76028 0.0
C1205 C 0.5638 0.12324 0.75568 0.0
C1206 C 0.57761 0.13964 0.72976 0.0
C1207 C 0.58131 0.14204 0.65904 0.0
C1208 C 0.59416 0.15757 0.63469 0.0
C1209 C 0.60339 0.1708 0.6805 0.0
C1210 C 0.59977 0.16855 0.75078 0.0
C1211 C 0.58691 0.15306 0.77542 0.0
H1212 H 0.61332 0.18281 0.66148 0.0
H1213 H 0.48271 0.03307 0.87335 0.0
H1214 H 0.39803 0.48964 0.07453 0.0
H1215 H 0.42273 0.50967 0.00714 0.0
H1216 H 0.40828 0.5476 0.03491 0.0
H1217 H 0.38319 0.52726 0.09802 0.0
H1218 H 0.41637 0.54863 0.91196 0.0
H1219 H 0.44394 0.54805 0.12362 0.0
H1220 H 0.45196 0.53559 0.21865 0.0
H1221 H 0.47145 0.51426 0.0738 0.0
H1222 H 0.46382 0.52683 0.97792 0.0
H1223 H 0.49325 0.6245 0.86711 0.0
H1224 H 0.47275 0.59986 0.93155 0.0
H1225 H 0.47699 0.56707 0.78392 0.0
H1226 H 0.49737 0.59171 0.71762 0.0
H1227 H 0.47494 0.56122 0.95614 0.0
H1228 H 0.44755 0.56571 0.74406 0.0
H1229 H 0.44182 0.58262 0.66103 0.0
H1230 H 0.42266 0.60003 0.82387 0.0
H1231 H 0.42855 0.58344 0.90794 0.0
C1232 C 0.40023 0.50227 0.06568 0.0
C1233 C 0.38879 0.507 0.09014 0.0
C1234 C 0.41438 0.51376 0.02793 0.0
C1235 C 0.4175 0.53025 0.01623 0.0
C1236 C 0.40613 0.53495 0.04248 0.0
C1237 C 0.39182 0.52337 0.0785 0.0
C1238 C 0.43212 0.54254 0.97441 0.0
C1239 C 0.42914 0.55132 0.92208 0.0
C1240 C 0.44884 0.54601 0.98632 0.0
C1241 C 0.45314 0.5382 0.04367 0.0
C1242 C 0.44982 0.54059 0.11207 0.0
C1243 C 0.45432 0.53355 0.16605 0.0
C1244 C 0.46204 0.524 0.15225 0.0
C1245 C 0.46542 0.5216 0.08441 0.0
C1246 C 0.46109 0.52875 0.03025 0.0
C1247 C 0.49009 0.61209 0.84868 0.0
C1248 C 0.49677 0.61007 0.78658 0.0
C1249 C 0.47841 0.59804 0.88579 0.0
C1250 C 0.47339 0.58176 0.8621 0.0
C1251 C 0.48081 0.57961 0.8028 0.0
C1252 C 0.49237 0.59369 0.76497 0.0
C1253 C 0.45901 0.56722 0.8954 0.0
C1254 C 0.46206 0.55814 0.94579 0.0
C1255 C 0.44238 0.56372 0.8831 0.0
C1256 C 0.43863 0.57347 0.83228 0.0
C1257 C 0.44226 0.57327 0.76218 0.0
C1258 C 0.43896 0.58277 0.71493 0.0
C1259 C 0.43191 0.59242 0.73722 0.0
C1260 C 0.42813 0.59256 0.80671 0.0
C1261 C 0.43143 0.58311 0.85414 0.0
H1262 H 0.42931 0.59975 0.70074 0.0
H1263 H 0.46548 0.51853 0.19415 0.0
H1264 H 0.90881 0.50347 0.89302 0.0
H1265 H 0.91507 0.48433 0.9582 0.0
H1266 H 0.86877 0.46654 0.07209 0.0
H1267 H 0.86299 0.48627 0.01051 0.0
H1268 H 0.89258 0.46872 0.15439 0.0
H1269 H 0.87107 0.44612 0.92865 0.0
H1270 H 0.87114 0.44656 0.80191 0.0
H1271 H 0.91979 0.45029 0.79969 0.0
H1272 H 0.92013 0.45016 0.92662 0.0
H1273 H 0.86584 0.37541 0.14325 0.0
H1274 H 0.87239 0.40121 0.0824 0.0
H1275 H 0.91261 0.4303 0.22597 0.0
H1276 H 0.90567 0.40448 0.289 0.0
H1277 H 0.89719 0.42553 0.01689 0.0
H1278 H 0.91315 0.46836 0.25594 0.0
H1279 H 0.90894 0.46584 0.38168 0.0
H1280 H 0.86408 0.41766 0.35575 0.0
H1281 H 0.86772 0.42016 0.23009 0.0
C1282 C 0.90017 0.4957 0.93303 0.0
C1283 C 0.88538 0.49625 0.94653 0.0
C1284 C 0.90374 0.48477 0.97002 0.0
C1285 C 0.89232 0.47396 0.01968 0.0
C1286 C 0.87787 0.47496 0.03478 0.0
C1287 C 0.87452 0.48616 0.99917 0.0
C1288 C 0.89456 0.46063 0.05255 0.0
C1289 C 0.8938 0.45938 0.12447 0.0
C1290 C 0.89595 0.44837 0.01331 0.0
C1291 C 0.89572 0.44835 0.93706 0.0
C1292 C 0.88183 0.44716 0.90113 0.0
C1293 C 0.88179 0.44734 0.82927 0.0
C1294 C 0.89547 0.4485 0.79274 0.0
C1295 C 0.90922 0.44944 0.82804 0.0
C1296 C 0.90935 0.44932 0.89994 0.0
C1297 C 0.87624 0.38725 0.16144 0.0
C1298 C 0.88504 0.38796 0.22165 0.0
C1299 C 0.88002 0.40201 0.12637 0.0
C1300 C 0.89279 0.41772 0.15037 0.0
C1301 C 0.90247 0.41834 0.20744 0.0
C1302 C 0.89851 0.40359 0.24329 0.0
C1303 C 0.89478 0.43334 0.1188 0.0
C1304 C 0.8964 0.43508 0.04707 0.0
C1305 C 0.89356 0.44573 0.15812 0.0
C1306 C 0.89092 0.4443 0.23367 0.0
C1307 C 0.90235 0.45727 0.27714 0.0
C1308 C 0.90005 0.45586 0.3484 0.0
C1309 C 0.88634 0.44155 0.37677 0.0
C1310 C 0.87474 0.42873 0.33389 0.0
C1311 C 0.8769 0.43014 0.26259 0.0
H1312 H 0.8847 0.44045 0.43198 0.0
H1313 H 0.8954 0.44862 0.73709 0.0
H1314 H 0.50352 0.88179 0.30918 0.0
H1315 H 0.48317 0.88644 0.24475 0.0
H1316 H 0.4704 0.90343 0.4298 0.0
H1317 H 0.49078 0.89902 0.49455 0.0
H1318 H 0.44297 0.87478 0.35468 0.0
H1319 H 0.48944 0.93111 0.31959 0.0
H1320 H 0.51825 0.95217 0.28367 0.0
H1321 H 0.50724 0.93313 0.07714 0.0
H1322 H 0.47846 0.91168 0.11211 0.0
H1323 H 0.3805 0.88631 0.20265 0.0
H1324 H 0.40581 0.89242 0.26775 0.0
H1325 H 0.43037 0.89109 0.08067 0.0
H1326 H 0.40537 0.88568 0.01495 0.0
H1327 H 0.45278 0.91391 0.16092 0.0
H1328 H 0.40991 0.85668 0.18778 0.0
H1329 H 0.38171 0.83273 0.21414 0.0
H1330 H 0.3866 0.84928 0.42364 0.0
H1331 H 0.41466 0.8737 0.39807 0.0
C1332 C 0.49662 0.88683 0.33578 0.0
C1333 C 0.49869 0.88995 0.40686 0.0
C1334 C 0.4851 0.88954 0.29894 0.0
C1335 C 0.47545 0.89534 0.33263 0.0
C1336 C 0.47787 0.89904 0.40303 0.0
C1337 C 0.48953 0.89653 0.43979 0.0
C1338 C 0.46158 0.89576 0.29582 0.0
C1339 C 0.44505 0.88357 0.31329 0.0
C1340 C 0.4645 0.90672 0.23984 0.0
C1341 C 0.48181 0.91966 0.21869 0.0
C1342 C 0.4932 0.93128 0.26667 0.0
C1343 C 0.50953 0.94332 0.24643 0.0
C1344 C 0.51458 0.94398 0.17817 0.0
C1345 C 0.5033 0.93262 0.12996 0.0
C1346 C 0.48698 0.92051 0.15 0.0
C1347 C 0.39141 0.88758 0.17546 0.0
C1348 C 0.39104 0.88549 0.10396 0.0
C1349 C 0.40581 0.89103 0.21266 0.0
C1350 C 0.41983 0.89187 0.17942 0.0
C1351 C 0.41972 0.89051 0.10752 0.0
C1352 C 0.40545 0.88742 0.07003 0.0
C1353 C 0.43405 0.89296 0.22005 0.0
C1354 C 0.45064 0.90529 0.20301 0.0
C1355 C 0.43126 0.88171 0.27511 0.0
C1356 C 0.41432 0.86715 0.29076 0.0
C1357 C 0.4049 0.85535 0.2393 0.0
C1358 C 0.38893 0.8417 0.25409 0.0
C1359 C 0.38232 0.83956 0.32044 0.0
C1360 C 0.3917 0.85105 0.37216 0.0
C1361 C 0.40763 0.86481 0.35753 0.0
H1362 H 0.36998 0.82896 0.33185 0.0
H1363 H 0.52723 0.9533 0.16263 0.0
H1364 H 0.59175 0.50161 0.63069 0.0
H1365 H 0.56778 0.48262 0.55894 0.0
H1366 H 0.60162 0.47873 0.41548 0.0
H1367 H 0.62567 0.49803 0.48569 0.0
H1368 H 0.57536 0.4771 0.34915 0.0
H1369 H 0.58512 0.45248 0.54793 0.0
H1370 H 0.58876 0.44981 0.67169 0.0
H1371 H 0.53762 0.43759 0.70867 0.0
H1372 H 0.53398 0.44118 0.58522 0.0
H1373 H 0.51892 0.38007 0.32453 0.0
H1374 H 0.53984 0.40603 0.38099 0.0
H1375 H 0.51687 0.43276 0.29099 0.0
H1376 H 0.49619 0.40683 0.23249 0.0
H1377 H 0.53594 0.42465 0.47381 0.0
H1378 H 0.53739 0.46351 0.26109 0.0
H1379 H 0.54036 0.46872 0.13583 0.0
H1380 H 0.57561 0.45081 0.12532 0.0
H1381 H 0.57233 0.44493 0.25007 0.0
C1382 C 0.59413 0.49698 0.58318 0.0
C1383 C 0.61058 0.50096 0.56485 0.0
C1384 C 0.58041 0.48615 0.54222 0.0
C1385 C 0.5829 0.47898 0.48282 0.0
C1386 C 0.5994 0.48404 0.46142 0.0
C1387 C 0.61314 0.49498 0.50196 0.0
C1388 C 0.56846 0.46473 0.44761 0.0
C1389 C 0.5666 0.4657 0.37655 0.0
C1390 C 0.55727 0.44971 0.48316 0.0
C1391 C 0.55935 0.44734 0.55736 0.0
C1392 C 0.5747 0.44943 0.58248 0.0
C1393 C 0.57676 0.44774 0.65265 0.0
C1394 C 0.56338 0.44341 0.69806 0.0
C1395 C 0.54797 0.44095 0.67342 0.0
C1396 C 0.54594 0.44292 0.60339 0.0
C1397 C 0.51828 0.39147 0.31707 0.0
C1398 C 0.50602 0.3915 0.27392 0.0
C1399 C 0.53031 0.40632 0.34892 0.0
C1400 C 0.5302 0.42147 0.33894 0.0
C1401 C 0.51761 0.42141 0.29754 0.0
C1402 C 0.50567 0.40656 0.26493 0.0
C1403 C 0.54282 0.43697 0.37507 0.0
C1404 C 0.5444 0.4362 0.44662 0.0
C1405 C 0.55407 0.45197 0.33978 0.0
C1406 C 0.5543 0.45341 0.26418 0.0
C1407 C 0.54546 0.46032 0.23161 0.0
C1408 C 0.54724 0.46346 0.16086 0.0
C1409 C 0.55816 0.46009 0.12265 0.0
C1410 C 0.56712 0.45336 0.15494 0.0
C1411 C 0.56514 0.44992 0.22544 0.0
H1412 H 0.55966 0.46267 0.06801 0.0
H1413 H 0.56493 0.44191 0.75227 0.0
H1414 H 0.117 0.49369 0.53728 0.0
H1415 H 0.11221 0.51317 0.60757 0.0
H1416 H 0.09403 0.52711 0.42914 0.0
H1417 H 0.09863 0.50775 0.35865 0.0
H1418 H 0.12382 0.55375 0.50499 0.0
H1419 H 0.06659 0.50807 0.53608 0.0
H1420 H 0.0449 0.47935 0.57053 0.0
H1421 H 0.06438 0.48894 0.77652 0.0
H1422 H 0.08631 0.51767 0.74309 0.0
H1423 H 0.11203 0.61672 0.65016 0.0
H1424 H 0.10671 0.59163 0.58534 0.0
H1425 H 0.10399 0.56596 0.77534 0.0
H1426 H 0.10819 0.59062 0.84017 0.0
H1427 H 0.08353 0.54394 0.69369 0.0
H1428 H 0.14075 0.58733 0.67145 0.0
H1429 H 0.16515 0.61525 0.64474 0.0
H1430 H 0.15006 0.60937 0.43281 0.0
H1431 H 0.12541 0.58153 0.45859 0.0
C1432 C 0.11171 0.50069 0.5133 0.0
C1433 C 0.10837 0.49932 0.44226 0.0
C1434 C 0.10885 0.51167 0.55361 0.0
C1435 C 0.10268 0.52142 0.52337 0.0
C1436 C 0.09867 0.51955 0.45328 0.0
C1437 C 0.10134 0.50849 0.41315 0.0
C1438 C 0.10258 0.5352 0.56223 0.0
C1439 C 0.11489 0.55172 0.5456 0.0
C1440 C 0.09131 0.53228 0.61689 0.0
C1441 C 0.07818 0.51498 0.63691 0.0
C1442 C 0.06635 0.50401 0.58856 0.0
C1443 C 0.05396 0.48775 0.60799 0.0
C1444 C 0.05325 0.48233 0.6757 0.0
C1445 C 0.06491 0.49317 0.72414 0.0
C1446 C 0.07731 0.50945 0.705 0.0
C1447 C 0.11005 0.60561 0.67792 0.0
C1448 C 0.11068 0.60562 0.74999 0.0
C1449 C 0.10711 0.59131 0.64094 0.0
C1450 C 0.10545 0.57703 0.67529 0.0
C1451 C 0.10529 0.57679 0.7475 0.0
C1452 C 0.10774 0.59092 0.78455 0.0
C1453 C 0.10483 0.56278 0.63616 0.0
C1454 C 0.09248 0.54614 0.65289 0.0
C1455 C 0.11648 0.56553 0.58273 0.0
C1456 C 0.13112 0.58243 0.5672 0.0
C1457 C 0.14255 0.59206 0.61932 0.0
C1458 C 0.15644 0.60787 0.60432 0.0
C1459 C 0.15912 0.61411 0.53716 0.0
C1460 C 0.14793 0.60455 0.48488 0.0
C1461 C 0.13398 0.58877 0.49968 0.0
H1462 H 0.1699 0.62633 0.5256 0.0
H1463 H 0.04368 0.46972 0.69058 0.0
H1464 H 0.43727 0.15974 0.06517 0.0
H1465 H 0.43771 0.18636 0.08257 0.0
H1466 H 0.49178 0.21217 0.10688 0.0
H1467 H 0.4915 0.18557 0.09025 0.0
H1468 H 0.47685 0.22238 0.20143 0.0
H1469 H 0.47515 0.21452 0.95729 0.0
H1470 H 0.46416 0.19916 0.84815 0.0
H1471 H 0.4168 0.19702 0.88293 0.0
H1472 H 0.42743 0.21215 0.99288 0.0
H1473 H 0.49392 0.30599 0.14885 0.0
H1474 H 0.49297 0.27907 0.13243 0.0
H1475 H 0.43866 0.2535 0.12151 0.0
H1476 H 0.43943 0.28038 0.13801 0.0
H1477 H 0.45349 0.24315 0.02047 0.0
H1478 H 0.4556 0.25136 0.26493 0.0
H1479 H 0.46702 0.26707 0.37305 0.0
H1480 H 0.51417 0.26891 0.33618 0.0
H1481 H 0.50311 0.25344 0.22719 0.0
C1482 C 0.44927 0.17105 0.07453 0.0
C1483 C 0.46438 0.17056 0.07568 0.0
C1484 C 0.44948 0.18625 0.08422 0.0
C1485 C 0.4648 0.20124 0.09497 0.0
C1486 C 0.47984 0.20073 0.09836 0.0
C1487 C 0.47965 0.18553 0.08865 0.0
C1488 C 0.46516 0.2175 0.10154 0.0
C1489 C 0.47194 0.22703 0.16153 0.0
C1490 C 0.45844 0.22335 0.04992 0.0
C1491 C 0.45203 0.21431 0.98368 0.0
C1492 C 0.46234 0.21065 0.94196 0.0
C1493 C 0.45619 0.202 0.8799 0.0
C1494 C 0.43978 0.19707 0.85871 0.0
C1495 C 0.4295 0.20082 0.89947 0.0
C1496 C 0.43559 0.20944 0.96164 0.0
C1497 C 0.48176 0.29467 0.14262 0.0
C1498 C 0.46673 0.29529 0.14532 0.0
C1499 C 0.48126 0.27931 0.13346 0.0
C1500 C 0.46574 0.26434 0.12657 0.0
C1501 C 0.45074 0.26495 0.127 0.0
C1502 C 0.45122 0.2803 0.13669 0.0
C1503 C 0.46518 0.248 0.12027 0.0
C1504 C 0.45837 0.23847 0.06035 0.0
C1505 C 0.47193 0.24218 0.17181 0.0
C1506 C 0.47858 0.25139 0.23754 0.0
C1507 C 0.46845 0.25525 0.27957 0.0
C1508 C 0.47485 0.26409 0.34106 0.0
C1509 C 0.49132 0.26903 0.36138 0.0
C1510 C 0.50142 0.2651 0.32032 0.0
C1511 C 0.49509 0.25628 0.2587 0.0
H1512 H 0.49626 0.27587 0.40902 0.0
H1513 H 0.43503 0.19039 0.81064 0.0
H1514 H 0.15778 0.43919 0.29425 0.0
H1515 H 0.18427 0.43966 0.27298 0.0
H1516 H 0.20993 0.49375 0.24954 0.0
H1517 H 0.18341 0.49345 0.27047 0.0
H1518 H 0.2197 0.47765 0.15215 0.0
H1519 H 0.21283 0.47833 0.39748 0.0
H1520 H 0.19755 0.46805 0.50721 0.0
H1521 H 0.19501 0.42033 0.47783 0.0
H1522 H 0.21005 0.43025 0.36732 0.0
H1523 H 0.30366 0.49545 0.20617 0.0
H1524 H 0.27666 0.49456 0.21831 0.0
H1525 H 0.25135 0.44052 0.24327 0.0
H1526 H 0.2783 0.44124 0.23105 0.0
H1527 H 0.24125 0.45633 0.33824 0.0
H1528 H 0.2482 0.4552 0.09519 0.0
H1529 H 0.26306 0.46476 0.98428 0.0
H1530 H 0.26512 0.51241 0.00752 0.0
H1531 H 0.25049 0.50322 0.11916 0.0
C1532 C 0.16901 0.4512 0.28416 0.0
C1533 C 0.16853 0.46632 0.28496 0.0
C1534 C 0.18413 0.45143 0.27208 0.0
C1535 C 0.19904 0.46676 0.26067 0.0
C1536 C 0.19852 0.4818 0.25851 0.0
C1537 C 0.18339 0.48161 0.27078 0.0
C1538 C 0.21529 0.46712 0.25413 0.0
C1539 C 0.22455 0.47321 0.19308 0.0
C1540 C 0.22133 0.46092 0.30707 0.0
C1541 C 0.21242 0.45498 0.37381 0.0
C1542 C 0.2089 0.4656 0.41415 0.0
C1543 C 0.2003 0.45984 0.47653 0.0
C1544 C 0.19528 0.44353 0.49939 0.0
C1545 C 0.19889 0.43295 0.46 0.0
C1546 C 0.20746 0.43864 0.39752 0.0
C1547 C 0.29237 0.48337 0.21458 0.0
C1548 C 0.2931 0.46839 0.21731 0.0
C1549 C 0.27696 0.48289 0.22113 0.0
C1550 C 0.26205 0.46745 0.23086 0.0
C1551 C 0.26276 0.45254 0.23548 0.0
C1552 C 0.27815 0.45298 0.22834 0.0
C1553 C 0.2457 0.4669 0.23632 0.0
C1554 C 0.23642 0.46078 0.29724 0.0
C1555 C 0.23962 0.473 0.18313 0.0
C1556 C 0.2484 0.47858 0.11594 0.0
C1557 C 0.25196 0.46777 0.07698 0.0
C1558 C 0.26031 0.47311 0.01391 0.0
C1559 C 0.26507 0.4892 0.98896 0.0
C1560 C 0.26145 0.49996 0.02697 0.0
C1561 C 0.25311 0.49469 0.09013 0.0
H1562 H 0.27153 0.49331 0.94009 0.0
H1563 H 0.18862 0.43909 0.5477 0.0
H1564 H 0.68745 0.18542 0.4608 0.0
H1565 H 0.71305 0.2118 0.43075 0.0
H1566 H 0.74361 0.19299 0.51969 0.0
H1567 H 0.71818 0.16658 0.5494 0.0
H1568 H 0.75396 0.2263 0.55728 0.0
H1569 H 0.74052 0.19181 0.35773 0.0
H1570 H 0.72232 0.1733 0.26501 0.0
H1571 H 0.71632 0.21375 0.18554 0.0
H1572 H 0.73416 0.23241 0.27898 0.0
H1573 H 0.83307 0.28009 0.39869 0.0
H1574 H 0.80647 0.25474 0.42819 0.0
H1575 H 0.77884 0.27898 0.36192 0.0
H1576 H 0.80542 0.30454 0.3332 0.0
H1577 H 0.76671 0.24353 0.31258 0.0
H1578 H 0.78187 0.27811 0.5178 0.0
H1579 H 0.80194 0.29562 0.60808 0.0
H1580 H 0.80666 0.2534 0.67384 0.0
H1581 H 0.78684 0.2357 0.58308 0.0
C1582 C 0.69962 0.18695 0.47425 0.0
C1583 C 0.70083 0.17394 0.50725 0.0
C1584 C 0.7142 0.20198 0.45695 0.0
C1585 C 0.73014 0.20424 0.47293 0.0
C1586 C 0.73138 0.19144 0.50715 0.0
C1587 C 0.71685 0.17635 0.52368 0.0
C1588 C 0.7456 0.2198 0.45237 0.0
C1589 C 0.75681 0.23003 0.5038 0.0
C1590 C 0.74919 0.22459 0.38254 0.0
C1591 C 0.73851 0.21346 0.32597 0.0
C1592 C 0.73517 0.19672 0.32097 0.0
C1593 C 0.72495 0.1862 0.26819 0.0
C1594 C 0.71816 0.19234 0.21945 0.0
C1595 C 0.72158 0.20901 0.22342 0.0
C1596 C 0.73173 0.21956 0.27634 0.0
C1597 C 0.82133 0.28 0.39014 0.0
C1598 C 0.82128 0.29426 0.36378 0.0
C1599 C 0.8062 0.26555 0.40702 0.0
C1600 C 0.79081 0.2651 0.39707 0.0
C1601 C 0.79066 0.27917 0.36965 0.0
C1602 C 0.80582 0.29375 0.35376 0.0
C1603 C 0.77493 0.25004 0.41751 0.0
C1604 C 0.76372 0.23987 0.36605 0.0
C1605 C 0.77146 0.24514 0.48719 0.0
C1606 C 0.78297 0.25561 0.54323 0.0
C1607 C 0.78726 0.27258 0.55122 0.0
C1608 C 0.79859 0.28254 0.60251 0.0
C1609 C 0.80561 0.27564 0.64656 0.0
C1610 C 0.80123 0.25873 0.63963 0.0
C1611 C 0.78994 0.24872 0.58831 0.0
H1612 H 0.81441 0.28337 0.6861 0.0
H1613 H 0.71027 0.18418 0.17853 0.0
H1614 H 0.55642 0.83676 0.54866 0.0
H1615 H 0.55472 0.8096 0.56743 0.0
H1616 H 0.50042 0.7845 0.55435 0.0
H1617 H 0.50197 0.81169 0.5369 0.0
H1618 H 0.51022 0.77188 0.65707 0.0
H1619 H 0.52354 0.78398 0.41875 0.0
H1620 H 0.53939 0.80115 0.31873 0.0
H1621 H 0.58432 0.80262 0.39253 0.0
H1622 H 0.56879 0.78567 0.49359 0.0
H1623 H 0.50106 0.6902 0.62297 0.0
H1624 H 0.50001 0.71584 0.59814 0.0
H1625 H 0.5542 0.74544 0.61574 0.0
H1626 H 0.55543 0.71992 0.63976 0.0
H1627 H 0.54256 0.75467 0.50525 0.0
H1628 H 0.52921 0.74377 0.74695 0.0
H1629 H 0.51312 0.72654 0.84649 0.0
H1630 H 0.46771 0.7225 0.76412 0.0
H1631 H 0.48351 0.73952 0.66357 0.0
C1632 C 0.54411 0.82548 0.54986 0.0
C1633 C 0.52934 0.82636 0.54059 0.0
C1634 C 0.54316 0.80996 0.56036 0.0
C1635 C 0.52746 0.79503 0.56095 0.0
C1636 C 0.51267 0.79589 0.55367 0.0
C1637 C 0.51359 0.81143 0.54359 0.0
C1638 C 0.52655 0.77852 0.5688 0.0
C1639 C 0.51707 0.76799 0.62324 0.0
C1640 C 0.53567 0.77358 0.5251 0.0
C1641 C 0.54503 0.78366 0.46405 0.0
C1642 C 0.53683 0.78806 0.41391 0.0
C1643 C 0.54575 0.79774 0.35699 0.0
C1644 C 0.56286 0.803 0.34936 0.0
C1645 C 0.57107 0.79855 0.39855 0.0
C1646 C 0.56221 0.78889 0.45562 0.0
C1647 C 0.51277 0.70216 0.62138 0.0
C1648 C 0.52833 0.70304 0.6339 0.0
C1649 C 0.51213 0.71679 0.60738 0.0
C1650 C 0.52701 0.73252 0.60595 0.0
C1651 C 0.54257 0.73339 0.61676 0.0
C1652 C 0.54323 0.7188 0.63072 0.0
C1653 C 0.52645 0.74818 0.59409 0.0
C1654 C 0.53563 0.75853 0.53877 0.0
C1655 C 0.51699 0.75291 0.63678 0.0
C1656 C 0.50751 0.74276 0.69741 0.0
C1657 C 0.51577 0.73909 0.74981 0.0
C1658 C 0.50671 0.72939 0.80646 0.0
C1659 C 0.48939 0.72339 0.81153 0.0
C1660 C 0.48112 0.72713 0.76007 0.0
C1661 C 0.49012 0.73682 0.70327 0.0
H1662 H 0.48239 0.71588 0.85542 0.0
H1663 H 0.56975 0.8105 0.30526 0.0
H1664 H 0.835 0.55564 0.80272 0.0
H1665 H 0.80805 0.55466 0.78797 0.0
H1666 H 0.78266 0.50039 0.77259 0.0
H1667 H 0.80954 0.5012 0.78817 0.0
H1668 H 0.78505 0.54297 0.68532 0.0
H1669 H 0.74401 0.48432 0.85208 0.0
H1670 H 0.74714 0.46893 0.94991 0.0
H1671 H 0.79019 0.51459 0.02113 0.0
H1672 H 0.78718 0.53029 0.92436 0.0
H1673 H 0.6885 0.5018 0.73299 0.0
H1674 H 0.71434 0.50054 0.74946 0.0
H1675 H 0.74299 0.55477 0.76701 0.0
H1676 H 0.71736 0.55621 0.74955 0.0
H1677 H 0.73829 0.51082 0.85007 0.0
H1678 H 0.77981 0.56927 0.68127 0.0
H1679 H 0.77656 0.5847 0.58393 0.0
H1680 H 0.73247 0.53942 0.51674 0.0
H1681 H 0.73561 0.52367 0.61301 0.0
C1682 C 0.82371 0.54348 0.79592 0.0
C1683 C 0.8244 0.52848 0.79732 0.0
C1684 C 0.80833 0.54296 0.78733 0.0
C1685 C 0.79337 0.52745 0.7802 0.0
C1686 C 0.79405 0.51248 0.7792 0.0
C1687 C 0.80944 0.51298 0.78782 0.0
C1688 C 0.77704 0.527 0.77489 0.0
C1689 C 0.77488 0.53609 0.72173 0.0
C1690 C 0.76367 0.51767 0.82151 0.0
C1691 C 0.76547 0.50842 0.8805 0.0
C1692 C 0.75411 0.49108 0.88876 0.0
C1693 C 0.75587 0.4823 0.94402 0.0
C1694 C 0.76889 0.49077 0.99156 0.0
C1695 C 0.78015 0.50804 0.98412 0.0
C1696 C 0.77843 0.51687 0.92902 0.0
C1697 C 0.70028 0.51345 0.74099 0.0
C1698 C 0.70094 0.52914 0.73882 0.0
C1699 C 0.71501 0.51269 0.75051 0.0
C1700 C 0.73058 0.52758 0.75802 0.0
C1701 C 0.73112 0.54316 0.75979 0.0
C1702 C 0.71645 0.54395 0.74994 0.0
C1703 C 0.74639 0.52695 0.76098 0.0
C1704 C 0.74843 0.51764 0.81353 0.0
C1705 C 0.75967 0.53607 0.71375 0.0
C1706 C 0.75787 0.54534 0.65477 0.0
C1707 C 0.76948 0.56259 0.64552 0.0
C1708 C 0.76765 0.57139 0.59056 0.0
C1709 C 0.75429 0.56305 0.54431 0.0
C1710 C 0.74278 0.54587 0.55273 0.0
C1711 C 0.74457 0.53701 0.60752 0.0
H1712 H 0.75288 0.5699 0.50187 0.0
H1713 H 0.77024 0.48395 0.03425 0.0
H1714 H 0.18743 0.68934 0.87201 0.0
H1715 H 0.21424 0.71535 0.88915 0.0
H1716 H 0.18827 0.74376 0.89498 0.0
H1717 H 0.1614 0.71785 0.87624 0.0
H1718 H 0.21647 0.75979 0.81937 0.0
H1719 H 0.20128 0.73348 0.04142 0.0
H1720 H 0.19282 0.71031 0.12429 0.0
H1721 H 0.23871 0.70974 0.08506 0.0
H1722 H 0.24729 0.73272 1.00059 0.0
H1723 H 0.27904 0.83401 0.98314 0.0
H1724 H 0.25334 0.80774 0.9551 0.0
H1725 H 0.28197 0.78212 0.93934 0.0
H1726 H 0.30779 0.80833 0.96794 0.0
H1727 H 0.25318 0.76454 0.01589 0.0
H1728 H 0.26898 0.79223 0.79733 0.0
H1729 H 0.27757 0.81624 0.71831 0.0
H1730 H 0.23064 0.81491 0.75403 0.0
H1731 H 0.22188 0.79109 0.83436 0.0
C1732 C 0.18739 0.70111 0.87707 0.0
C1733 C 0.17227 0.70152 0.87301 0.0
C1734 C 0.20274 0.71596 0.88687 0.0
C1735 C 0.20321 0.73145 0.89393 0.0
C1736 C 0.18817 0.73193 0.88947 0.0
C1737 C 0.17282 0.7171 0.87912 0.0
C1738 C 0.21937 0.74713 0.90731 0.0
C1739 C 0.22442 0.7609 0.8627 0.0
C1740 C 0.2299 0.74843 0.96305 0.0
C1741 C 0.22484 0.7347 0.01418 0.0
C1742 C 0.20951 0.72832 0.05004 0.0
C1743 C 0.2047 0.71522 0.09739 0.0
C1744 C 0.21522 0.70853 0.10998 0.0
C1745 C 0.23057 0.71493 0.07521 0.0
C1746 C 0.23541 0.72799 0.02756 0.0
C1747 C 0.2799 0.82281 0.97372 0.0
C1748 C 0.29545 0.82325 0.97794 0.0
C1749 C 0.26522 0.80783 0.95736 0.0
C1750 C 0.26583 0.79307 0.94457 0.0
C1751 C 0.28129 0.79342 0.94896 0.0
C1752 C 0.29601 0.80841 0.96519 0.0
C1753 C 0.25023 0.77717 0.92816 0.0
C1754 C 0.24528 0.76338 0.97226 0.0
C1755 C 0.2398 0.77591 0.87215 0.0
C1756 C 0.24483 0.78994 0.82238 0.0
C1757 C 0.26052 0.79711 0.78868 0.0
C1758 C 0.26543 0.81069 0.74364 0.0
C1759 C 0.25468 0.81711 0.73129 0.0
C1760 C 0.23896 0.80992 0.76371 0.0
C1761 C 0.23402 0.79637 0.80898 0.0
H1762 H 0.25852 0.82765 0.69658 0.0
H1763 H 0.21152 0.69842 0.14678 0.0
H1764 H 0.52974 0.15633 0.07449 0.0
H1765 H 0.55592 0.16208 0.13086 0.0
H1766 H 0.52919 0.14289 0.32193 0.0
H1767 H 0.50277 0.13678 0.26563 0.0
H1768 H 0.56342 0.1724 0.3338 0.0
H1769 H 0.53257 0.11681 0.23494 0.0
H1770 H 0.51792 0.09584 0.14345 0.0
H1771 H 0.56323 0.11814 0.02253 0.0
H1772 H 0.57805 0.13957 0.11264 0.0
H1773 H 0.61152 0.14456 0.51504 0.0
H1774 H 0.59069 0.14939 0.45784 0.0
H1775 H 0.61492 0.15341 0.26265 0.0
H1776 H 0.63512 0.14719 0.31978 0.0
H1777 H 0.58361 0.13458 0.24724 0.0
H1778 H 0.61546 0.189 0.35427 0.0
H1779 H 0.62981 0.20821 0.45153 0.0
H1780 H 0.58288 0.18725 0.56118 0.0
H1781 H 0.56827 0.16782 0.46483 0.0
C1782 C 0.52946 0.15373 0.12895 0.0
C1783 C 0.51413 0.14592 0.16548 0.0
C1784 C 0.54444 0.157 0.16098 0.0
C1785 C 0.54441 0.15276 0.23025 0.0
C1786 C 0.52943 0.14626 0.26837 0.0
C1787 C 0.51436 0.14272 0.23609 0.0
C1788 C 0.55945 0.15317 0.2604 0.0
C1789 C 0.56789 0.16415 0.31515 0.0
C1790 C 0.56534 0.14256 0.23513 0.0
C1791 C 0.55635 0.12995 0.18012 0.0
C1792 C 0.53934 0.11742 0.18841 0.0
C1793 C 0.53102 0.10541 0.13692 0.0
C1794 C 0.53964 0.10565 0.07732 0.0
C1795 C 0.55658 0.11797 0.06882 0.0
C1796 C 0.56493 0.13008 0.11999 0.0
C1797 C 0.61265 0.14688 0.46012 0.0
C1798 C 0.62505 0.14575 0.42177 0.0
C1799 C 0.60077 0.14975 0.42744 0.0
C1800 C 0.60143 0.15226 0.35601 0.0
C1801 C 0.61418 0.15164 0.31786 0.0
C1802 C 0.62577 0.14818 0.35038 0.0
C1803 C 0.58792 0.15396 0.32082 0.0
C1804 C 0.57956 0.14321 0.26517 0.0
C1805 C 0.58215 0.1648 0.34544 0.0
C1806 C 0.59079 0.17693 0.40235 0.0
C1807 C 0.6082 0.18849 0.39912 0.0
C1808 C 0.61638 0.19941 0.45411 0.0
C1809 C 0.60726 0.19895 0.51249 0.0
C1810 C 0.58992 0.18763 0.51584 0.0
C1811 C 0.58168 0.17669 0.46098 0.0
H1812 H 0.61363 0.20736 0.55514 0.0
H1813 H 0.5332 0.09629 0.03775 0.0
H1814 H 0.36497 0.5348 0.23389 0.0
H1815 H 0.38499 0.56178 0.28664 0.0
H1816 H 0.38989 0.53553 0.46113 0.0
H1817 H 0.36989 0.50853 0.40943 0.0
H1818 H 0.39173 0.57905 0.42978 0.0
H1819 H 0.43039 0.54627 0.4522 0.0
H1820 H 0.43099 0.522 0.3997 0.0
H1821 H 0.41391 0.53136 0.20793 0.0
H1822 H 0.41339 0.55578 0.25908 0.0
H1823 H 0.46396 0.62416 0.64139 0.0
H1824 H 0.43773 0.60545 0.5812 0.0
H1825 H 0.46547 0.61236 0.3933 0.0
H1826 H 0.49181 0.63075 0.45347 0.0
H1827 H 0.44672 0.58071 0.41601 0.0
H1828 H 0.43655 0.62697 0.41487 0.0
H1829 H 0.43442 0.6507 0.46366 0.0
H1830 H 0.39509 0.61669 0.59965 0.0
H1831 H 0.39713 0.59277 0.55232 0.0
C1832 C 0.36984 0.53476 0.2846 0.0
C1833 C 0.36615 0.51949 0.31671 0.0
C1834 C 0.3812 0.55021 0.31478 0.0
C1835 C 0.38899 0.55055 0.3772 0.0
C1836 C 0.38398 0.53545 0.41273 0.0
C1837 C 0.37262 0.52002 0.38284 0.0
C1838 C 0.4046 0.56593 0.39826 0.0
C1839 C 0.40381 0.57956 0.42676 0.0
C1840 C 0.42032 0.56665 0.39214 0.0
C1841 C 0.42174 0.55274 0.35964 0.0
C1842 C 0.42691 0.54322 0.39868 0.0
C1843 C 0.42717 0.52941 0.36924 0.0
C1844 C 0.42234 0.52506 0.30072 0.0
C1845 C 0.4175 0.53466 0.26115 0.0
C1846 C 0.41723 0.54849 0.29033 0.0
C1847 C 0.46446 0.62204 0.58687 0.0
C1848 C 0.48 0.62884 0.5523 0.0
C1849 C 0.44942 0.61135 0.55246 0.0
C1850 C 0.4496 0.60748 0.48272 0.0
C1851 C 0.46502 0.61508 0.44721 0.0
C1852 C 0.48007 0.62562 0.48166 0.0
C1853 C 0.43407 0.59407 0.44919 0.0
C1854 C 0.43481 0.58058 0.41837 0.0
C1855 C 0.41843 0.59376 0.45197 0.0
C1856 C 0.41706 0.60808 0.48024 0.0
C1857 C 0.42751 0.62456 0.45546 0.0
C1858 C 0.42631 0.63804 0.48282 0.0
C1859 C 0.41464 0.63521 0.53478 0.0
C1860 C 0.40412 0.61887 0.55938 0.0
C1861 C 0.40527 0.60533 0.53221 0.0
H1862 H 0.41374 0.64566 0.55591 0.0
H1863 H 0.42246 0.51431 0.27814 0.0
H1864 H 0.85686 0.36719 0.54801 0.0
H1865 H 0.84988 0.38693 0.60329 0.0
H1866 H 0.82923 0.39254 0.41239 0.0
H1867 H 0.83599 0.37271 0.35692 0.0
H1868 H 0.85484 0.42253 0.46615 0.0
H1869 H 0.80327 0.37499 0.54516 0.0
H1870 H 0.78639 0.34726 0.6009 0.0
H1871 H 0.81316 0.36742 0.79013 0.0
H1872 H 0.83034 0.39524 0.73535 0.0
H1873 H 0.8483 0.489 0.61519 0.0
H1874 H 0.8402 0.46263 0.55373 0.0
H1875 H 0.84493 0.44042 0.74246 0.0
H1876 H 0.85156 0.46616 0.80428 0.0
H1877 H 0.82279 0.41705 0.679 0.0
H1878 H 0.8778 0.46104 0.60479 0.0
H1879 H 0.89893 0.48816 0.55362 0.0
H1880 H 0.87132 0.47467 0.36369 0.0
H1881 H 0.84989 0.44757 0.41407 0.0
C1882 C 0.85042 0.37228 0.51832 0.0
C1883 C 0.84708 0.36846 0.44805 0.0
C1884 C 0.84639 0.38351 0.55001 0.0
C1885 C 0.83901 0.39116 0.51188 0.0
C1886 C 0.83485 0.3867 0.44271 0.0
C1887 C 0.8387 0.37533 0.41118 0.0
C1888 C 0.83777 0.4054 0.54162 0.0
C1889 C 0.84759 0.42135 0.5119 0.0
C1890 C 0.82871 0.40381 0.60255 0.0
C1891 C 0.81813 0.38719 0.63604 0.0
C1892 C 0.8056 0.3735 0.59859 0.0
C1893 C 0.79597 0.35777 0.63004 0.0
C1894 C 0.79868 0.35559 0.69903 0.0
C1895 C 0.81104 0.36914 0.73675 0.0
C1896 C 0.8207 0.3849 0.70556 0.0
C1897 C 0.84726 0.47831 0.64338 0.0
C1898 C 0.85054 0.47953 0.7142 0.0
C1899 C 0.84283 0.4633 0.60826 0.0
C1900 C 0.84252 0.44961 0.64274 0.0
C1901 C 0.84515 0.45072 0.71421 0.0
C1902 C 0.84895 0.46546 0.74966 0.0
C1903 C 0.84045 0.43452 0.60474 0.0
C1904 C 0.82995 0.41835 0.63272 0.0
C1905 C 0.84947 0.43595 0.54336 0.0
C1906 C 0.8621 0.45242 0.51359 0.0
C1907 C 0.87614 0.46395 0.55237 0.0
C1908 C 0.88818 0.4793 0.52347 0.0
C1909 C 0.8864 0.48318 0.45558 0.0
C1910 C 0.8726 0.4717 0.41641 0.0
C1911 C 0.8605 0.45636 0.44513 0.0
H1912 H 0.89576 0.49504 0.43323 0.0
H1913 H 0.79125 0.34339 0.72322 0.0
H1914 H 0.37163 0.83552 0.96196 0.0
H1915 H 0.39246 0.83073 0.90352 0.0
H1916 H 0.38875 0.85613 0.72333 0.0
H1917 H 0.3681 0.86125 0.78167 0.0
H1918 H 0.39684 0.81704 0.78261 0.0
H1919 H 0.42819 0.88401 0.67354 0.0
H1920 H 0.42922 0.91112 0.694 0.0
H1921 H 0.41963 0.89941 0.9087 0.0
H1922 H 0.41861 0.87224 0.88965 0.0
H1923 H 0.467 0.83815 0.55377 0.0
H1924 H 0.44062 0.83162 0.61082 0.0
H1925 H 0.46864 0.86177 0.78506 0.0
H1926 H 0.49506 0.86842 0.72859 0.0
H1927 H 0.44794 0.87193 0.73065 0.0
H1928 H 0.44409 0.81993 0.8016 0.0
H1929 H 0.44363 0.79299 0.78522 0.0
H1930 H 0.39991 0.77501 0.65613 0.0
H1931 H 0.40025 0.80194 0.67094 0.0
C1932 C 0.37488 0.83971 0.90924 0.0
C1933 C 0.36848 0.84911 0.87702 0.0
C1934 C 0.38677 0.8369 0.87584 0.0
C1935 C 0.39239 0.84339 0.80973 0.0
C1936 C 0.38476 0.85126 0.77487 0.0
C1937 C 0.37295 0.85417 0.80831 0.0
C1938 C 0.40775 0.84405 0.78153 0.0
C1939 C 0.408 0.82901 0.77079 0.0
C1940 C 0.4224 0.85969 0.76746 0.0
C1941 C 0.42318 0.87605 0.77998 0.0
C1942 C 0.42634 0.88725 0.72514 0.0
C1943 C 0.42689 0.9026 0.73649 0.0
C1944 C 0.42441 0.90693 0.8026 0.0
C1945 C 0.42144 0.89596 0.85754 0.0
C1946 C 0.42085 0.88058 0.84648 0.0
C1947 C 0.46756 0.84308 0.60493 0.0
C1948 C 0.48318 0.85403 0.63614 0.0
C1949 C 0.45244 0.83929 0.63751 0.0
C1950 C 0.45269 0.84631 0.70193 0.0
C1951 C 0.4682 0.85631 0.73512 0.0
C1952 C 0.48329 0.86008 0.70274 0.0
C1953 C 0.4371 0.84492 0.73116 0.0
C1954 C 0.43679 0.85991 0.74204 0.0
C1955 C 0.42254 0.82924 0.74575 0.0
C1956 C 0.4223 0.81303 0.73685 0.0
C1957 C 0.43447 0.81029 0.76921 0.0
C1958 C 0.43421 0.79501 0.76032 0.0
C1959 C 0.42178 0.78231 0.71951 0.0
C1960 C 0.40955 0.78486 0.68765 0.0
C1961 C 0.40976 0.80013 0.69634 0.0
H1962 H 0.4216 0.77049 0.7127 0.0
H1963 H 0.42484 0.91882 0.81129 0.0
H1964 H 0.64146 0.47337 0.80848 0.0
H1965 H 0.62215 0.44633 0.86428 0.0
H1966 H 0.58228 0.45855 0.85411 0.0
H1967 H 0.60179 0.48576 0.80386 0.0
H1968 H 0.57941 0.44601 0.96556 0.0
H1969 H 0.58602 0.42712 0.7407 0.0
H1970 H 0.60227 0.42497 0.64367 0.0
H1971 H 0.62316 0.40281 0.7777 0.0
H1972 H 0.60719 0.40511 0.87543 0.0
H1973 H 0.50482 0.37217 0.95369 0.0
H1974 H 0.53134 0.3906 0.89559 0.0
H1975 H 0.55865 0.38229 0.05674 0.0
H1976 H 0.53208 0.36369 0.11581 0.0
H1977 H 0.57103 0.39092 0.88416 0.0
H1978 H 0.55781 0.40985 0.10941 0.0
H1979 H 0.53518 0.40922 0.18034 0.0
H1980 H 0.52078 0.42995 0.01297 0.0
H1981 H 0.54318 0.43043 0.9407 0.0
C1982 C 0.62857 0.47018 0.81896 0.0
C1983 C 0.62308 0.48161 0.80314 0.0
C1984 C 0.61749 0.45468 0.85005 0.0
C1985 C 0.6006 0.45018 0.863 0.0
C1986 C 0.59522 0.46165 0.84566 0.0
C1987 C 0.60636 0.47724 0.81688 0.0
C1988 C 0.58837 0.43381 0.89568 0.0
C1989 C 0.5778 0.43407 0.94755 0.0
C1990 C 0.58608 0.41801 0.8734 0.0
C1991 C 0.59569 0.41659 0.81522 0.0
C1992 C 0.59426 0.422 0.74932 0.0
C1993 C 0.60336 0.4207 0.69429 0.0
C1994 C 0.61382 0.41383 0.70459 0.0
C1995 C 0.61511 0.40818 0.76986 0.0
C1996 C 0.60603 0.40948 0.82505 0.0
C1997 C 0.51637 0.3737 0.97573 0.0
C1998 C 0.51636 0.3668 0.04032 0.0
C1999 C 0.53152 0.38412 0.94194 0.0
C2000 C 0.54688 0.38782 0.97219 0.0
C2001 C 0.54686 0.37943 0.03248 0.0
C2002 C 0.53166 0.36896 0.06649 0.0
C2003 C 0.56221 0.40348 0.95156 0.0
C2004 C 0.57322 0.40302 0.90278 0.0
C2005 C 0.56456 0.41915 0.97426 0.0
C2006 C 0.55209 0.42011 0.01975 0.0
C2007 C 0.54976 0.41421 0.08776 0.0
C2008 C 0.53692 0.41379 0.12806 0.0
C2009 C 0.52646 0.41943 0.10099 0.0
C2010 C 0.52886 0.42555 0.03375 0.0
C2011 C 0.54165 0.42593 0.9932 0.0
H2012 H 0.51658 0.41922 0.13208 0.0
H2013 H 0.62086 0.41282 0.66195 0.0
H2014 H 0.16495 0.53027 0.28123 0.0
H2015 H 0.17404 0.55813 0.23188 0.0
H2016 H 0.13404 0.5354 0.08189 0.0
H2017 H 0.12536 0.50763 0.1288 0.0
H2018 H 0.16011 0.56025 0.02502 0.0
H2019 H 0.13098 0.55199 0.2461 0.0
H2020 H 0.12827 0.54754 0.3717 0.0
H2021 H 0.17585 0.59284 0.40166 0.0
H2022 H 0.17898 0.5974 0.2762 0.0
H2023 H 0.12474 0.61883 0.05722 0.0
H2024 H 0.1332 0.60063 0.11429 0.0
H2025 H 0.17741 0.62019 0.9852 0.0
H2026 H 0.16846 0.6379 0.92502 0.0
H2027 H 0.15711 0.60095 0.18456 0.0
H2028 H 0.18507 0.58835 0.94661 0.0
H2029 H 0.18596 0.59177 0.82052 0.0
H2030 H 0.13656 0.58624 0.82363 0.0
H2031 H 0.13527 0.58256 0.94967 0.0
C2032 C 0.15832 0.53119 0.23681 0.0
C2033 C 0.14426 0.51674 0.2096 0.0
C2034 C 0.16348 0.54714 0.20892 0.0
C2035 C 0.15447 0.54893 0.15424 0.0
C2036 C 0.14116 0.53439 0.12428 0.0
C2037 C 0.13617 0.51847 0.15136 0.0
C2038 C 0.1578 0.56577 0.13081 0.0
C2039 C 0.15966 0.56924 0.06007 0.0
C2040 C 0.15737 0.57763 0.17643 0.0
C2041 C 0.15534 0.57488 0.25178 0.0
C2042 C 0.14092 0.56092 0.27948 0.0
C2043 C 0.13931 0.55838 0.35063 0.0
C2044 C 0.15196 0.56983 0.39454 0.0
C2045 C 0.16614 0.58392 0.36751 0.0
C2046 C 0.16784 0.58648 0.29644 0.0
C2047 C 0.13642 0.61952 0.04158 0.0
C2048 C 0.1457 0.62948 0.98534 0.0
C2049 C 0.14131 0.60912 0.07459 0.0
C2050 C 0.1557 0.60865 0.05279 0.0
C2051 C 0.16598 0.61995 0.00156 0.0
C2052 C 0.16089 0.63012 0.96741 0.0
C2053 C 0.15854 0.59498 0.07852 0.0
C2054 C 0.15798 0.59217 0.14969 0.0
C2055 C 0.15979 0.58352 0.03324 0.0
C2056 C 0.16018 0.5854 0.95749 0.0
C2057 C 0.17438 0.58782 0.92029 0.0
C2058 C 0.17495 0.5898 0.8489 0.0
C2059 C 0.16134 0.58928 0.81416 0.0
C2060 C 0.14709 0.58667 0.85067 0.0
C2061 C 0.14642 0.58463 0.92207 0.0
H2062 H 0.16186 0.59088 0.75894 0.0
H2063 H 0.15079 0.56784 0.44954 0.0
loop_
_geom_bond_atom_site_label_1
_geom_bond_atom_site_label_2
_geom_bond_distance
_geom_bond_site_symmetry_2
_ccdc_geom_bond_type
Fe0 O2 1.918 . S
Fe0 O5 1.997 . S
Fe0 O6 2.002 . S
Fe0 O11 1.976 1_554 S
Fe0 O14 1.996 . S
Fe1 O2 1.918 1_556 S
Fe1 O9 1.997 1_556 S
Fe1 O12 1.996 . S
Fe1 O16 1.976 . S
Fe1 O19 2.002 1_556 S
O2 Fe0 1.918 . S
O2 Fe1 1.918 1_554 S
O2 Fe3 1.918 . S
Fe3 O2 1.918 . S
Fe3 O4 2.002 . S
Fe3 O13 1.976 . S
Fe3 O17 1.996 1_554 S
Fe3 O20 1.997 . S
O4 Fe3 2.002 . S
O4 C21 1.295 . S
O5 Fe0 1.997 . S
O5 C21 1.235 . S
O6 Fe0 2.002 . S
O6 C7 1.295 . S
C7 O6 1.295 . S
C7 O9 1.235 . S
C8 O13 1.287 . S
C8 O14 1.255 . S
O9 Fe1 1.997 1_554 S
O9 C7 1.235 . S
C10 O16 1.287 . S
C10 O17 1.255 . S
O11 Fe0 1.976 1_556 S
O11 C18 1.287 . S
O12 Fe1 1.996 . S
O12 C18 1.255 . S
O13 Fe3 1.976 . S
O13 C8 1.287 . S
O14 Fe0 1.996 . S
O14 C8 1.255 . S
C15 O19 1.295 . S
C15 O20 1.235 . S
O16 Fe1 1.976 . S
O16 C10 1.287 . S
O17 Fe3 1.996 1_556 S
O17 C10 1.255 . S
C18 O11 1.287 . S
C18 O12 1.255 . S
O19 Fe1 2.002 1_554 S
O19 C15 1.295 . S
O20 Fe3 1.997 . S
O20 C15 1.235 . S
C21 O4 1.295 . S
C21 O5 1.235 . S
Fe22 O24 1.918 . S
Fe22 O27 1.997 . S
Fe22 O28 2.002 . S
Fe22 O33 1.976 . S
Fe22 O36 1.996 . S
Fe23 O24 1.918 . S
Fe23 O31 1.997 . S
Fe23 O34 1.996 . S
Fe23 O38 1.976 . S
Fe23 O41 2.002 . S
O24 Fe22 1.918 . S
O24 Fe23 1.918 . S
O24 Fe25 1.918 . S
Fe25 O24 1.918 . S
Fe25 O26 2.002 . S
Fe25 O35 1.976 . S
Fe25 O39 1.996 . S
Fe25 O42 1.997 . S
O26 Fe25 2.002 . S
O26 C43 1.295 . S
O27 Fe22 1.997 . S
O27 C43 1.235 . S
O28 Fe22 2.002 . S
O28 C29 1.295 . S
C29 O28 1.295 . S
C29 O31 1.235 . S
C30 O35 1.287 . S
C30 O36 1.255 . S
O31 Fe23 1.997 . S
O31 C29 1.235 . S
C32 O38 1.287 . S
C32 O39 1.255 . S
O33 Fe22 1.976 . S
O33 C40 1.287 . S
O34 Fe23 1.996 . S
O34 C40 1.255 . S
O35 Fe25 1.976 . S
O35 C30 1.287 . S
O36 Fe22 1.996 . S
O36 C30 1.255 . S
C37 O41 1.295 . S
C37 O42 1.235 . S
O38 Fe23 1.976 . S
O38 C32 1.287 . S
O39 Fe25 1.996 . S
O39 C32 1.255 . S
C40 O33 1.287 . S
C40 O34 1.255 . S
O41 Fe23 2.002 . S
O41 C37 1.295 . S
O42 Fe25 1.997 . S
O42 C37 1.235 . S
C43 O26 1.295 . S
C43 O27 1.235 . S
Fe44 O46 1.918 . S
Fe44 O49 1.997 . S
Fe44 O50 2.002 . S
Fe44 O55 1.976 . S
Fe44 O58 1.996 . S
Fe45 O46 1.918 . S
Fe45 O53 1.997 . S
Fe45 O56 1.996 . S
Fe45 O60 1.976 . S
Fe45 O63 2.002 . S
O46 Fe44 1.918 . S
O46 Fe45 1.918 . S
O46 Fe47 1.918 . S
Fe47 O46 1.918 . S
Fe47 O48 2.002 . S
Fe47 O57 1.976 . S
Fe47 O61 1.996 . S
Fe47 O64 1.997 . S
O48 Fe47 2.002 . S
O48 C65 1.295 . S
O49 Fe44 1.997 . S
O49 C65 1.235 . S
O50 Fe44 2.002 . S
O50 C51 1.295 . S
C51 O50 1.295 . S
C51 O53 1.235 . S
C52 O57 1.287 . S
C52 O58 1.255 . S
O53 Fe45 1.997 . S
O53 C51 1.235 . S
C54 O60 1.287 . S
C54 O61 1.255 . S
O55 Fe44 1.976 . S
O55 C62 1.287 . S
O56 Fe45 1.996 . S
O56 C62 1.255 . S
O57 Fe47 1.976 . S
O57 C52 1.287 . S
O58 Fe44 1.996 . S
O58 C52 1.255 . S
C59 O63 1.295 . S
C59 O64 1.235 . S
O60 Fe45 1.976 . S
O60 C54 1.287 . S
O61 Fe47 1.996 . S
O61 C54 1.255 . S
C62 O55 1.287 . S
C62 O56 1.255 . S
O63 Fe45 2.002 . S
O63 C59 1.295 . S
O64 Fe47 1.997 . S
O64 C59 1.235 . S
C65 O48 1.295 . S
C65 O49 1.235 . S
Fe66 O68 1.918 . S
Fe66 O71 1.997 . S
Fe66 O72 2.002 . S
Fe66 O77 1.976 . S
Fe66 O80 1.996 . S
Fe67 O68 1.918 . S
Fe67 O75 1.997 . S
Fe67 O78 1.996 . S
Fe67 O82 1.976 . S
Fe67 O85 2.002 . S
O68 Fe66 1.918 . S
O68 Fe67 1.918 . S
O68 Fe69 1.918 . S
Fe69 O68 1.918 . S
Fe69 O70 2.002 . S
Fe69 O79 1.976 . S
Fe69 O83 1.996 . S
Fe69 O86 1.997 . S
O70 Fe69 2.002 . S
O70 C87 1.295 . S
O71 Fe66 1.997 . S
O71 C87 1.235 . S
O72 Fe66 2.002 . S
O72 C73 1.295 . S
C73 O72 1.295 . S
C73 O75 1.235 . S
C74 O79 1.287 . S
C74 O80 1.255 . S
O75 Fe67 1.997 . S
O75 C73 1.235 . S
C76 O82 1.287 . S
C76 O83 1.255 . S
O77 Fe66 1.976 . S
O77 C84 1.287 . S
O78 Fe67 1.996 . S
O78 C84 1.255 . S
O79 Fe69 1.976 . S
O79 C74 1.287 . S
O80 Fe66 1.996 . S
O80 C74 1.255 . S
C81 O85 1.295 . S
C81 O86 1.235 . S
O82 Fe67 1.976 . S
O82 C76 1.287 . S
O83 Fe69 1.996 . S
O83 C76 1.255 . S
C84 O77 1.287 . S
C84 O78 1.255 . S
O85 Fe67 2.002 . S
O85 C81 1.295 . S
O86 Fe69 1.997 . S
O86 C81 1.235 . S
C87 O70 1.295 . S
C87 O71 1.235 . S
Fe88 O90 1.918 . S
Fe88 O93 1.997 . S
Fe88 O94 2.002 . S
Fe88 O99 1.976 . S
Fe88 O102 1.996 . S
Fe89 O90 1.918 . S
Fe89 O97 1.997 . S
Fe89 O100 1.996 . S
Fe89 O104 1.976 . S
Fe89 O107 2.002 . S
O90 Fe88 1.918 . S
O90 Fe89 1.918 . S
O90 Fe91 1.918 . S
Fe91 O90 1.918 . S
Fe91 O92 2.002 . S
Fe91 O101 1.976 . S
Fe91 O105 1.996 . S
Fe91 O108 1.997 . S
O92 Fe91 2.002 . S
O92 C109 1.295 . S
O93 Fe88 1.997 . S
O93 C109 1.235 . S
O94 Fe88 2.002 . S
O94 C95 1.295 . S
C95 O94 1.295 . S
C95 O97 1.235 . S
C96 O101 1.287 . S
C96 O102 1.255 . S
O97 Fe89 1.997 . S
O97 C95 1.235 . S
C98 O104 1.287 . S
C98 O105 1.255 . S
O99 Fe88 1.976 . S
O99 C106 1.287 . S
O100 Fe89 1.996 . S
O100 C106 1.255 . S
O101 Fe91 1.976 . S
O101 C96 1.287 . S
O102 Fe88 1.996 . S
O102 C96 1.255 . S
C103 O107 1.295 . S
C103 O108 1.235 . S
O104 Fe89 1.976 . S
O104 C98 1.287 . S
O105 Fe91 1.996 . S
O105 C98 1.255 . S
C106 O99 1.287 . S
C106 O100 1.255 . S
O107 Fe89 2.002 . S
O107 C103 1.295 . S
O108 Fe91 1.997 . S
O108 C103 1.235 . S
C109 O92 1.295 . S
C109 O93 1.235 . S
Fe110 O112 1.918 . S
Fe110 O115 1.997 . S
Fe110 O116 2.002 . S
Fe110 O121 1.976 . S
Fe110 O124 1.996 . S
Fe111 O112 1.918 . S
Fe111 O119 1.997 . S
Fe111 O122 1.996 . S
Fe111 O126 1.976 . S
Fe111 O129 2.002 . S
O112 Fe110 1.918 . S
O112 Fe111 1.918 . S
O112 Fe113 1.918 . S
Fe113 O112 1.918 . S
Fe113 O114 2.002 . S
Fe113 O123 1.976 . S
Fe113 O127 1.996 . S
Fe113 O130 1.997 . S
O114 Fe113 2.002 . S
O114 C131 1.295 . S
O115 Fe110 1.997 . S
O115 C131 1.235 . S
O116 Fe110 2.002 . S
O116 C117 1.292 1_556 S
C117 O116 1.292 1_554 S
C117 O119 1.234 1_554 S
C118 O123 1.287 . S
C118 O124 1.255 . S
O119 Fe111 1.997 . S
O119 C117 1.234 1_556 S
C120 O126 1.287 . S
C120 O127 1.255 . S
O121 Fe110 1.976 . S
O121 C128 1.287 . S
O122 Fe111 1.996 . S
O122 C128 1.255 . S
O123 Fe113 1.976 . S
O123 C118 1.287 . S
O124 Fe110 1.996 . S
O124 C118 1.255 . S
C125 O129 1.295 . S
C125 O130 1.235 . S
O126 Fe111 1.976 . S
O126 C120 1.287 . S
O127 Fe113 1.996 . S
O127 C120 1.255 . S
C128 O121 1.287 . S
C128 O122 1.255 . S
O129 Fe111 2.002 . S
O129 C125 1.295 . S
O130 Fe113 1.997 . S
O130 C125 1.235 . S
C131 O114 1.295 . S
C131 O115 1.235 . S
Fe132 O134 1.918 . S
Fe132 O137 1.997 . S
Fe132 O138 2.002 . S
Fe132 O143 1.976 . S
Fe132 O146 1.996 . S
Fe133 O134 1.918 . S
Fe133 O141 1.997 . S
Fe133 O144 1.996 . S
Fe133 O148 1.976 . S
Fe133 O151 2.002 . S
O134 Fe132 1.918 . S
O134 Fe133 1.918 . S
O134 Fe135 1.918 . S
Fe135 O134 1.918 . S
Fe135 O136 2.002 . S
Fe135 O145 1.976 . S
Fe135 O149 1.996 . S
Fe135 O152 1.997 . S
O136 Fe135 2.002 . S
O136 C153 1.295 . S
O137 Fe132 1.997 . S
O137 C153 1.235 . S
O138 Fe132 2.002 . S
O138 C139 1.295 . S
C139 O138 1.295 . S
C139 O141 1.235 . S
C140 O145 1.287 . S
C140 O146 1.255 . S
O141 Fe133 1.997 . S
O141 C139 1.235 . S
C142 O148 1.287 . S
C142 O149 1.255 . S
O143 Fe132 1.976 . S
O143 C150 1.287 . S
O144 Fe133 1.996 . S
O144 C150 1.255 . S
O145 Fe135 1.976 . S
O145 C140 1.287 . S
O146 Fe132 1.996 . S
O146 C140 1.255 . S
C147 O151 1.295 . S
C147 O152 1.235 . S
O148 Fe133 1.976 . S
O148 C142 1.287 . S
O149 Fe135 1.996 . S
O149 C142 1.255 . S
C150 O143 1.287 . S
C150 O144 1.255 . S
O151 Fe133 2.002 . S
O151 C147 1.295 . S
O152 Fe135 1.997 . S
O152 C147 1.235 . S
C153 O136 1.295 . S
C153 O137 1.235 . S
Fe154 O156 1.919 . S
Fe154 O159 1.994 1_554 S
Fe154 O160 1.990 1_554 S
Fe154 O165 1.978 . S
Fe154 O168 2.008 . S
Fe155 O156 1.918 1_556 S
Fe155 O163 1.997 . S
Fe155 O166 1.996 . S
Fe155 O170 1.976 1_556 S
Fe155 O173 2.002 . S
O156 Fe154 1.919 . S
O156 Fe155 1.918 1_554 S
O156 Fe157 1.918 . S
Fe157 O156 1.918 . S
Fe157 O158 2.002 . S
Fe157 O167 1.976 . S
Fe157 O171 1.996 . S
Fe157 O174 1.997 1_554 S
O158 Fe157 2.002 . S
O158 C175 1.295 1_554 S
O159 Fe154 1.994 1_556 S
O159 C175 1.235 . S
O160 Fe154 1.990 1_556 S
O160 C161 1.295 . S
C161 O160 1.295 . S
C161 O163 1.235 . S
C162 O167 1.287 . S
C162 O168 1.255 . S
O163 Fe155 1.997 . S
O163 C161 1.235 . S
C164 O170 1.287 . S
C164 O171 1.255 . S
O165 Fe154 1.978 . S
O165 C172 1.287 . S
O166 Fe155 1.996 . S
O166 C172 1.255 1_556 S
O167 Fe157 1.976 . S
O167 C162 1.287 . S
O168 Fe154 2.008 . S
O168 C162 1.255 . S
C169 O173 1.295 . S
C169 O174 1.235 . S
O170 Fe155 1.976 1_554 S
O170 C164 1.287 . S
O171 Fe157 1.996 . S
O171 C164 1.255 . S
C172 O165 1.287 . S
C172 O166 1.255 1_554 S
O173 Fe155 2.002 . S
O173 C169 1.295 . S
O174 Fe157 1.997 1_556 S
O174 C169 1.235 . S
C175 O158 1.295 1_556 S
C175 O159 1.235 . S
Fe176 O178 1.918 . S
Fe176 O181 1.997 . S
Fe176 O182 2.002 . S
Fe176 O187 1.976 . S
Fe176 O190 1.996 . S
Fe177 O178 1.918 . S
Fe177 O185 1.997 . S
Fe177 O188 1.996 . S
Fe177 O192 1.976 . S
Fe177 O195 2.002 . S
O178 Fe176 1.918 . S
O178 Fe177 1.918 . S
O178 Fe179 1.918 . S
Fe179 O178 1.918 . S
Fe179 O180 2.002 . S
Fe179 O189 1.976 . S
Fe179 O193 1.996 . S
Fe179 O196 1.997 . S
O180 Fe179 2.002 . S
O180 C197 1.295 . S
O181 Fe176 1.997 . S
O181 C197 1.235 . S
O182 Fe176 2.002 . S
O182 C183 1.295 . S
C183 O182 1.295 . S
C183 O185 1.235 . S
C184 O189 1.287 . S
C184 O190 1.255 . S
O185 Fe177 1.997 . S
O185 C183 1.235 . S
C186 O192 1.287 . S
C186 O193 1.255 . S
O187 Fe176 1.976 . S
O187 C194 1.287 . S
O188 Fe177 1.996 . S
O188 C194 1.255 . S
O189 Fe179 1.976 . S
O189 C184 1.287 . S
O190 Fe176 1.996 . S
O190 C184 1.255 . S
C191 O195 1.295 . S
C191 O196 1.235 . S
O192 Fe177 1.976 . S
O192 C186 1.287 . S
O193 Fe179 1.996 . S
O193 C186 1.255 . S
C194 O187 1.287 . S
C194 O188 1.255 . S
O195 Fe177 2.002 . S
O195 C191 1.295 . S
O196 Fe179 1.997 . S
O196 C191 1.235 . S
C197 O180 1.295 . S
C197 O181 1.235 . S
Fe198 O200 1.918 . S
Fe198 O203 1.997 . S
Fe198 O204 2.002 . S
Fe198 O209 1.976 . S
Fe198 O212 1.996 . S
Fe199 O200 1.918 . S
Fe199 O207 1.997 . S
Fe199 O210 1.996 . S
Fe199 O214 1.976 . S
Fe199 O217 2.002 . S
O200 Fe198 1.918 . S
O200 Fe199 1.918 . S
O200 Fe201 1.918 . S
Fe201 O200 1.918 . S
Fe201 O202 2.002 . S
Fe201 O211 1.976 . S
Fe201 O215 1.996 . S
Fe201 O218 1.997 . S
O202 Fe201 2.002 . S
O202 C219 1.295 . S
O203 Fe198 1.997 . S
O203 C219 1.235 . S
O204 Fe198 2.002 . S
O204 C205 1.295 . S
C205 O204 1.295 . S
C205 O207 1.235 . S
C206 O211 1.287 . S
C206 O212 1.255 . S
O207 Fe199 1.997 . S
O207 C205 1.235 . S
C208 O214 1.287 . S
C208 O215 1.255 . S
O209 Fe198 1.976 . S
O209 C216 1.287 . S
O210 Fe199 1.996 . S
O210 C216 1.255 . S
O211 Fe201 1.976 . S
O211 C206 1.287 . S
O212 Fe198 1.996 . S
O212 C206 1.255 . S
C213 O217 1.295 . S
C213 O218 1.235 . S
O214 Fe199 1.976 . S
O214 C208 1.287 . S
O215 Fe201 1.996 . S
O215 C208 1.255 . S
C216 O209 1.287 . S
C216 O210 1.255 . S
O217 Fe199 2.002 . S
O217 C213 1.295 . S
O218 Fe201 1.997 . S
O218 C213 1.235 . S
C219 O202 1.295 . S
C219 O203 1.235 . S
Fe220 O222 1.918 . S
Fe220 O225 1.997 . S
Fe220 O226 2.002 . S
Fe220 O231 1.976 . S
Fe220 O234 1.996 . S
Fe221 O222 1.918 . S
Fe221 O229 1.997 . S
Fe221 O232 1.996 . S
Fe221 O236 1.976 . S
Fe221 O239 2.002 . S
O222 Fe220 1.918 . S
O222 Fe221 1.918 . S
O222 Fe223 1.918 . S
Fe223 O222 1.918 . S
Fe223 O224 2.002 . S
Fe223 O233 1.976 . S
Fe223 O237 1.996 . S
Fe223 O240 1.997 . S
O224 Fe223 2.002 . S
O224 C241 1.295 . S
O225 Fe220 1.997 . S
O225 C241 1.235 . S
O226 Fe220 2.002 . S
O226 C227 1.295 . S
C227 O226 1.295 . S
C227 O229 1.235 . S
C228 O233 1.287 . S
C228 O234 1.255 . S
O229 Fe221 1.997 . S
O229 C227 1.235 . S
C230 O236 1.287 . S
C230 O237 1.255 . S
O231 Fe220 1.976 . S
O231 C238 1.287 . S
O232 Fe221 1.996 . S
O232 C238 1.255 . S
O233 Fe223 1.976 . S
O233 C228 1.287 . S
O234 Fe220 1.996 . S
O234 C228 1.255 . S
C235 O239 1.295 . S
C235 O240 1.235 . S
O236 Fe221 1.976 . S
O236 C230 1.287 . S
O237 Fe223 1.996 . S
O237 C230 1.255 . S
C238 O231 1.287 . S
C238 O232 1.255 . S
O239 Fe221 2.002 . S
O239 C235 1.295 . S
O240 Fe223 1.997 . S
O240 C235 1.235 . S
C241 O224 1.295 . S
C241 O225 1.235 . S
Fe242 O244 1.918 . S
Fe242 O247 1.997 . S
Fe242 O248 2.002 . S
Fe242 O253 1.976 . S
Fe242 O256 1.996 . S
Fe243 O244 1.918 . S
Fe243 O251 1.997 . S
Fe243 O254 1.996 . S
Fe243 O258 1.976 . S
Fe243 O261 2.002 . S
O244 Fe242 1.918 . S
O244 Fe243 1.918 . S
O244 Fe245 1.918 . S
Fe245 O244 1.918 . S
Fe245 O246 2.002 . S
Fe245 O255 1.976 . S
Fe245 O259 1.996 . S
Fe245 O262 1.997 . S
O246 Fe245 2.002 . S
O246 C263 1.295 . S
O247 Fe242 1.997 . S
O247 C263 1.235 . S
O248 Fe242 2.002 . S
O248 C249 1.295 . S
C249 O248 1.295 . S
C249 O251 1.235 . S
C250 O255 1.287 . S
C250 O256 1.255 . S
O251 Fe243 1.997 . S
O251 C249 1.235 . S
C252 O258 1.287 . S
C252 O259 1.255 . S
O253 Fe242 1.976 . S
O253 C260 1.287 . S
O254 Fe243 1.996 . S
O254 C260 1.255 . S
O255 Fe245 1.976 . S
O255 C250 1.287 . S
O256 Fe242 1.996 . S
O256 C250 1.255 . S
C257 O261 1.295 . S
C257 O262 1.235 . S
O258 Fe243 1.976 . S
O258 C252 1.287 . S
O259 Fe245 1.996 . S
O259 C252 1.255 . S
C260 O253 1.287 . S
C260 O254 1.255 . S
O261 Fe243 2.002 . S
O261 C257 1.295 . S
O262 Fe245 1.997 . S
O262 C257 1.235 . S
C263 O246 1.295 . S
C263 O247 1.235 . S
H264 C282 0.951 . S
H265 C284 0.951 . S
H266 C286 0.950 . S
H267 C287 0.950 . S
H268 C289 0.950 . S
H269 C292 0.950 . S
H270 C293 0.950 . S
H271 C295 0.950 . S
H272 C296 0.950 . S
H273 C297 0.951 . S
H274 C299 0.951 . S
H275 C301 0.950 . S
H276 C302 0.950 . S
H277 C304 0.950 . S
H278 C307 0.950 . S
H279 C308 0.950 . S
H280 C310 0.950 . S
H281 C311 0.950 . S
C282 H264 0.951 . S
C282 C283 1.366 . S
C282 C284 1.388 . S
C283 C282 1.366 . S
C283 C287 1.385 . S
C284 H265 0.951 . S
C284 C282 1.388 . S
C284 C285 1.366 . S
C285 C284 1.366 . S
C285 C286 1.414 . S
C285 C288 1.499 . S
C286 H266 0.950 . S
C286 C285 1.414 . S
C286 C287 1.374 . S
C287 H267 0.950 . S
C287 C283 1.385 . S
C287 C286 1.374 . S
C288 C285 1.499 . S
C288 C289 1.373 . S
C288 C290 1.389 . S
C289 H268 0.950 . S
C289 C288 1.373 . S
C289 C305 1.377 . S
C290 C288 1.389 . S
C290 C291 1.524 . S
C290 C304 1.377 . S
C291 C290 1.524 . S
C291 C292 1.397 . S
C291 C296 1.363 . S
C292 H269 0.950 . S
C292 C291 1.397 . S
C292 C293 1.334 . S
C293 H270 0.950 . S
C293 C292 1.334 . S
C293 C294 1.287 . S
C294 C293 1.287 . S
C294 C295 1.524 . S
C294 H313 0.913 . S
C295 H271 0.950 . S
C295 C294 1.524 . S
C295 C296 1.415 . S
C296 H272 0.950 . S
C296 C291 1.363 . S
C296 C295 1.415 . S
C297 H273 0.951 . S
C297 C298 1.366 . S
C297 C299 1.388 . S
C298 C297 1.366 . S
C298 C302 1.385 . S
C299 H274 0.951 . S
C299 C297 1.388 . S
C299 C300 1.366 . S
C300 C299 1.366 . S
C300 C301 1.414 . S
C300 C303 1.499 . S
C301 H275 0.950 . S
C301 C300 1.414 . S
C301 C302 1.374 . S
C302 H276 0.950 . S
C302 C298 1.385 . S
C302 C301 1.374 . S
C303 C300 1.499 . S
C303 C304 1.373 . S
C303 C305 1.389 . S
C304 H277 0.950 . S
C304 C290 1.377 . S
C304 C303 1.373 . S
C305 C289 1.377 . S
C305 C303 1.389 . S
C305 C306 1.524 . S
C306 C305 1.524 . S
C306 C307 1.397 . S
C306 C311 1.363 . S
C307 H278 0.950 . S
C307 C306 1.397 . S
C307 C308 1.334 . S
C308 H279 0.950 . S
C308 C307 1.334 . S
C308 C309 1.287 . S
C309 C308 1.287 . S
C309 C310 1.524 . S
C309 H312 0.999 . S
C310 H280 0.950 . S
C310 C309 1.524 . S
C310 C311 1.415 . S
C311 H281 0.950 . S
C311 C306 1.363 . S
C311 C310 1.415 . S
H312 C309 0.999 . S
H313 C294 0.913 . S
H314 C332 0.951 . S
H315 C334 0.951 . S
H316 C336 0.950 . S
H317 C337 0.950 . S
H318 C339 0.950 . S
H319 C342 0.950 . S
H320 C343 0.950 . S
H321 C345 0.950 . S
H322 C346 0.950 . S
H323 C347 0.951 . S
H324 C349 0.951 . S
H325 C351 0.950 . S
H326 C352 0.950 . S
H327 C354 0.950 . S
H328 C357 0.950 . S
H329 C358 0.950 . S
H330 C360 0.950 . S
H331 C361 0.950 . S
C332 H314 0.951 . S
C332 C333 1.366 . S
C332 C334 1.388 . S
C333 C332 1.366 . S
C333 C337 1.385 . S
C334 H315 0.951 . S
C334 C332 1.388 . S
C334 C335 1.366 . S
C335 C334 1.366 . S
C335 C336 1.414 . S
C335 C338 1.499 . S
C336 H316 0.950 . S
C336 C335 1.414 . S
C336 C337 1.374 . S
C337 H317 0.950 . S
C337 C333 1.385 . S
C337 C336 1.374 . S
C338 C335 1.499 . S
C338 C339 1.373 . S
C338 C340 1.389 . S
C339 H318 0.950 . S
C339 C338 1.373 . S
C339 C355 1.377 . S
C340 C338 1.389 . S
C340 C341 1.524 . S
C340 C354 1.377 . S
C341 C340 1.524 . S
C341 C342 1.397 . S
C341 C346 1.363 . S
C342 H319 0.950 . S
C342 C341 1.397 . S
C342 C343 1.334 . S
C343 H320 0.950 . S
C343 C342 1.334 . S
C343 C344 1.287 . S
C344 C343 1.287 . S
C344 C345 1.524 . S
C344 H363 0.913 . S
C345 H321 0.950 . S
C345 C344 1.524 . S
C345 C346 1.415 . S
C346 H322 0.950 . S
C346 C341 1.363 . S
C346 C345 1.415 . S
C347 H323 0.951 . S
C347 C348 1.366 . S
C347 C349 1.388 . S
C348 C347 1.366 . S
C348 C352 1.385 . S
C349 H324 0.951 . S
C349 C347 1.388 . S
C349 C350 1.366 . S
C350 C349 1.366 . S
C350 C351 1.414 . S
C350 C353 1.499 . S
C351 H325 0.950 . S
C351 C350 1.414 . S
C351 C352 1.374 . S
C352 H326 0.950 . S
C352 C348 1.385 . S
C352 C351 1.374 . S
C353 C350 1.499 . S
C353 C354 1.373 . S
C353 C355 1.389 . S
C354 H327 0.950 . S
C354 C340 1.377 . S
C354 C353 1.373 . S
C355 C339 1.377 . S
C355 C353 1.389 . S
C355 C356 1.524 . S
C356 C355 1.524 . S
C356 C357 1.397 . S
C356 C361 1.363 . S
C357 H328 0.950 . S
C357 C356 1.397 . S
C357 C358 1.334 . S
C358 H329 0.950 . S
C358 C357 1.334 . S
C358 C359 1.287 . S
C359 C358 1.287 . S
C359 C360 1.524 . S
C359 H362 0.999 . S
C360 H330 0.950 . S
C360 C359 1.524 . S
C360 C361 1.415 . S
C361 H331 0.950 . S
C361 C356 1.363 . S
C361 C360 1.415 . S
H362 C359 0.999 . S
H363 C344 0.913 . S
H364 C382 0.951 . S
H365 C384 0.951 . S
H366 C386 0.950 . S
H367 C387 0.950 . S
H368 C389 0.950 . S
H369 C392 0.950 . S
H370 C393 0.950 . S
H371 C395 0.950 . S
H372 C396 0.950 . S
H373 C397 0.951 . S
H374 C399 0.951 . S
H375 C401 0.950 . S
H376 C402 0.950 . S
H377 C404 0.950 . S
H378 C407 0.950 . S
H379 C408 0.950 . S
H380 C410 0.950 . S
H381 C411 0.950 . S
C382 H364 0.951 . S
C382 C383 1.366 . S
C382 C384 1.388 . S
C383 C382 1.366 . S
C383 C387 1.385 . S
C384 H365 0.951 . S
C384 C382 1.388 . S
C384 C385 1.366 . S
C385 C384 1.366 . S
C385 C386 1.414 . S
C385 C388 1.499 . S
C386 H366 0.950 . S
C386 C385 1.414 . S
C386 C387 1.374 . S
C387 H367 0.950 . S
C387 C383 1.385 . S
C387 C386 1.374 . S
C388 C385 1.499 . S
C388 C389 1.373 . S
C388 C390 1.389 . S
C389 H368 0.950 . S
C389 C388 1.373 . S
C389 C405 1.377 . S
C390 C388 1.389 . S
C390 C391 1.524 . S
C390 C404 1.377 . S
C391 C390 1.524 . S
C391 C392 1.397 . S
C391 C396 1.363 . S
C392 H369 0.950 . S
C392 C391 1.397 . S
C392 C393 1.334 . S
C393 H370 0.950 . S
C393 C392 1.334 . S
C393 C394 1.287 . S
C394 C393 1.287 . S
C394 C395 1.524 . S
C394 H413 0.913 . S
C395 H371 0.950 . S
C395 C394 1.524 . S
C395 C396 1.415 . S
C396 H372 0.950 . S
C396 C391 1.363 . S
C396 C395 1.415 . S
C397 H373 0.951 . S
C397 C398 1.366 . S
C397 C399 1.388 . S
C398 C397 1.366 . S
C398 C402 1.385 . S
C399 H374 0.951 . S
C399 C397 1.388 . S
C399 C400 1.366 . S
C400 C399 1.366 . S
C400 C401 1.414 . S
C400 C403 1.499 1_554 S
C401 H375 0.950 . S
C401 C400 1.414 . S
C401 C402 1.374 . S
C402 H376 0.950 . S
C402 C398 1.385 . S
C402 C401 1.374 . S
C403 C400 1.499 1_556 S
C403 C404 1.373 . S
C403 C405 1.389 . S
C404 H377 0.950 . S
C404 C390 1.377 . S
C404 C403 1.373 . S
C405 C389 1.377 . S
C405 C403 1.389 . S
C405 C406 1.524 . S
C406 C405 1.524 . S
C406 C407 1.397 . S
C406 C411 1.363 . S
C407 H378 0.950 . S
C407 C406 1.397 . S
C407 C408 1.334 1_556 S
C408 H379 0.950 . S
C408 C407 1.334 1_554 S
C408 C409 1.287 . S
C409 C408 1.287 . S
C409 C410 1.524 1_554 S
C409 H412 0.999 . S
C410 H380 0.950 . S
C410 C409 1.524 1_556 S
C410 C411 1.415 . S
C411 H381 0.950 . S
C411 C406 1.363 . S
C411 C410 1.415 . S
H412 C409 0.999 . S
H413 C394 0.913 . S
H414 C432 0.951 . S
H415 C434 0.951 . S
H416 C436 0.950 . S
H417 C437 0.950 . S
H418 C439 0.950 . S
H419 C442 0.950 . S
H420 C443 0.950 . S
H421 C445 0.950 . S
H422 C446 0.950 . S
H423 C447 0.951 . S
H424 C449 0.951 . S
H425 C451 0.950 . S
H426 C452 0.950 . S
H427 C454 0.950 . S
H428 C457 0.950 . S
H429 C458 0.950 . S
H430 C460 0.950 . S
H431 C461 0.950 . S
C432 H414 0.951 . S
C432 C433 1.366 . S
C432 C434 1.388 . S
C433 C432 1.366 . S
C433 C437 1.385 . S
C434 H415 0.951 . S
C434 C432 1.388 . S
C434 C435 1.366 . S
C435 C434 1.366 . S
C435 C436 1.414 . S
C435 C438 1.499 . S
C436 H416 0.950 . S
C436 C435 1.414 . S
C436 C437 1.374 . S
C437 H417 0.950 . S
C437 C433 1.385 . S
C437 C436 1.374 . S
C438 C435 1.499 . S
C438 C439 1.373 . S
C438 C440 1.389 . S
C439 H418 0.950 . S
C439 C438 1.373 . S
C439 C455 1.377 1_554 S
C440 C438 1.389 . S
C440 C441 1.524 . S
C440 C454 1.377 1_554 S
C441 C440 1.524 . S
C441 C442 1.397 . S
C441 C446 1.363 . S
C442 H419 0.950 . S
C442 C441 1.397 . S
C442 C443 1.334 . S
C443 H420 0.950 . S
C443 C442 1.334 . S
C443 C444 1.287 . S
C444 C443 1.287 . S
C444 C445 1.524 . S
C444 H463 0.913 . S
C445 H421 0.950 . S
C445 C444 1.524 . S
C445 C446 1.415 . S
C446 H422 0.950 . S
C446 C441 1.363 . S
C446 C445 1.415 . S
C447 H423 0.951 . S
C447 C448 1.366 . S
C447 C449 1.388 . S
C448 C447 1.366 . S
C448 C452 1.385 . S
C449 H424 0.951 . S
C449 C447 1.388 . S
C449 C450 1.366 . S
C450 C449 1.366 . S
C450 C451 1.414 . S
C450 C453 1.499 . S
C451 H425 0.950 . S
C451 C450 1.414 . S
C451 C452 1.374 . S
C452 H426 0.950 . S
C452 C448 1.385 . S
C452 C451 1.374 . S
C453 C450 1.499 . S
C453 C454 1.373 . S
C453 C455 1.389 . S
C454 H427 0.950 . S
C454 C440 1.377 1_556 S
C454 C453 1.373 . S
C455 C439 1.377 1_556 S
C455 C453 1.389 . S
C455 C456 1.524 . S
C456 C455 1.524 . S
C456 C457 1.397 . S
C456 C461 1.363 . S
C457 H428 0.950 . S
C457 C456 1.397 . S
C457 C458 1.334 . S
C458 H429 0.950 . S
C458 C457 1.334 . S
C458 C459 1.287 . S
C459 C458 1.287 . S
C459 C460 1.524 . S
C459 H462 0.999 . S
C460 H430 0.950 . S
C460 C459 1.524 . S
C460 C461 1.415 . S
C461 H431 0.950 . S
C461 C456 1.363 . S
C461 C460 1.415 . S
H462 C459 0.999 . S
H463 C444 0.913 . S
H464 C482 0.951 . S
H465 C484 0.951 . S
H466 C486 0.950 . S
H467 C487 0.950 . S
H468 C489 0.950 . S
H469 C492 0.950 . S
H470 C493 0.939 1_556 S
H471 C495 0.950 . S
H472 C496 0.950 . S
H473 C497 0.951 . S
H474 C499 0.951 . S
H475 C501 0.950 . S
H476 C502 0.950 . S
H477 C504 0.950 . S
H478 C507 0.950 . S
H479 C508 0.950 . S
H480 C510 0.950 . S
H481 C511 0.950 . S
C482 H464 0.951 . S
C482 C483 1.366 . S
C482 C484 1.388 1_556 S
C483 C482 1.366 . S
C483 C487 1.385 . S
C484 H465 0.951 . S
C484 C482 1.388 1_554 S
C484 C485 1.366 . S
C485 C484 1.366 . S
C485 C486 1.414 . S
C485 C488 1.499 . S
C486 H466 0.950 . S
C486 C485 1.414 . S
C486 C487 1.374 1_554 S
C487 H467 0.950 . S
C487 C483 1.385 . S
C487 C486 1.374 1_556 S
C488 C485 1.499 . S
C488 C489 1.373 . S
C488 C490 1.389 . S
C489 H468 0.950 . S
C489 C488 1.373 . S
C489 C505 1.377 . S
C490 C488 1.389 . S
C490 C491 1.524 . S
C490 C504 1.377 . S
C491 C490 1.524 . S
C491 C492 1.397 . S
C491 C496 1.363 . S
C492 H469 0.950 . S
C492 C491 1.397 . S
C492 C493 1.334 . S
C493 H470 0.939 1_554 S
C493 C492 1.334 . S
C493 C494 1.287 . S
C494 C493 1.287 . S
C494 C495 1.524 . S
C494 H513 0.913 . S
C495 H471 0.950 . S
C495 C494 1.524 . S
C495 C496 1.415 . S
C496 H472 0.950 . S
C496 C491 1.363 . S
C496 C495 1.415 . S
C497 H473 0.951 . S
C497 C498 1.366 . S
C497 C499 1.388 . S
C498 C497 1.366 . S
C498 C502 1.385 . S
C499 H474 0.951 . S
C499 C497 1.388 . S
C499 C500 1.366 . S
C500 C499 1.366 . S
C500 C501 1.414 . S
C500 C503 1.499 . S
C501 H475 0.950 . S
C501 C500 1.414 . S
C501 C502 1.374 . S
C502 H476 0.950 . S
C502 C498 1.385 . S
C502 C501 1.374 . S
C503 C500 1.499 . S
C503 C504 1.373 . S
C503 C505 1.389 . S
C504 H477 0.950 . S
C504 C490 1.377 . S
C504 C503 1.373 . S
C505 C489 1.377 . S
C505 C503 1.389 . S
C505 C506 1.524 . S
C506 C505 1.524 . S
C506 C507 1.397 . S
C506 C511 1.363 . S
C507 H478 0.950 . S
C507 C506 1.397 . S
C507 C508 1.334 . S
C508 H479 0.950 . S
C508 C507 1.334 . S
C508 C509 1.287 . S
C509 C508 1.287 . S
C509 C510 1.524 . S
C509 H512 0.999 . S
C510 H480 0.950 . S
C510 C509 1.524 . S
C510 C511 1.415 . S
C511 H481 0.950 . S
C511 C506 1.363 . S
C511 C510 1.415 . S
H512 C509 0.999 . S
H513 C494 0.913 . S
H514 C532 0.951 . S
H515 C534 0.951 . S
H516 C536 0.950 . S
H517 C537 0.950 . S
H518 C539 0.950 . S
H519 C542 0.950 . S
H520 C543 0.950 . S
H521 C545 0.950 . S
H522 C546 0.950 . S
H523 C547 0.951 . S
H524 C549 0.951 . S
H525 C551 0.950 . S
H526 C552 0.950 . S
H527 C554 0.950 . S
H528 C557 0.950 . S
H529 C558 0.950 . S
H530 C560 0.950 . S
H531 C561 0.950 . S
C532 H514 0.951 . S
C532 C533 1.366 . S
C532 C534 1.388 . S
C533 C532 1.366 . S
C533 C537 1.385 . S
C534 H515 0.951 . S
C534 C532 1.388 . S
C534 C535 1.366 . S
C535 C534 1.366 . S
C535 C536 1.414 . S
C535 C538 1.499 . S
C536 H516 0.950 . S
C536 C535 1.414 . S
C536 C537 1.374 . S
C537 H517 0.950 . S
C537 C533 1.385 . S
C537 C536 1.374 . S
C538 C535 1.499 . S
C538 C539 1.373 . S
C538 C540 1.389 . S
C539 H518 0.950 . S
C539 C538 1.373 . S
C539 C555 1.377 . S
C540 C538 1.389 . S
C540 C541 1.524 . S
C540 C554 1.377 . S
C541 C540 1.524 . S
C541 C542 1.397 . S
C541 C546 1.363 . S
C542 H519 0.950 . S
C542 C541 1.397 . S
C542 C543 1.334 . S
C543 H520 0.950 . S
C543 C542 1.334 . S
C543 C544 1.287 . S
C544 C543 1.287 . S
C544 C545 1.524 . S
C544 H563 0.913 . S
C545 H521 0.950 . S
C545 C544 1.524 . S
C545 C546 1.415 . S
C546 H522 0.950 . S
C546 C541 1.363 . S
C546 C545 1.415 . S
C547 H523 0.951 . S
C547 C548 1.366 . S
C547 C549 1.388 . S
C548 C547 1.366 . S
C548 C552 1.385 . S
C549 H524 0.951 . S
C549 C547 1.388 . S
C549 C550 1.366 . S
C550 C549 1.366 . S
C550 C551 1.414 . S
C550 C553 1.499 . S
C551 H525 0.950 . S
C551 C550 1.414 . S
C551 C552 1.374 . S
C552 H526 0.950 . S
C552 C548 1.385 . S
C552 C551 1.374 . S
C553 C550 1.499 . S
C553 C554 1.373 . S
C553 C555 1.389 . S
C554 H527 0.950 . S
C554 C540 1.377 . S
C554 C553 1.373 . S
C555 C539 1.377 . S
C555 C553 1.389 . S
C555 C556 1.524 . S
C556 C555 1.524 . S
C556 C557 1.397 . S
C556 C561 1.363 . S
C557 H528 0.950 . S
C557 C556 1.397 . S
C557 C558 1.334 . S
C558 H529 0.950 . S
C558 C557 1.334 . S
C558 C559 1.287 . S
C559 C558 1.287 . S
C559 C560 1.524 . S
C559 H562 0.999 . S
C560 H530 0.950 . S
C560 C559 1.524 . S
C560 C561 1.415 . S
C561 H531 0.950 . S
C561 C556 1.363 . S
C561 C560 1.415 . S
H562 C559 0.999 . S
H563 C544 0.913 . S
H564 C582 0.951 . S
H565 C584 0.951 . S
H566 C586 0.950 . S
H567 C587 0.950 . S
H568 C589 0.950 . S
H569 C592 0.950 . S
H570 C593 0.950 . S
H571 C595 0.950 . S
H572 C596 0.950 . S
H573 C597 0.951 . S
H574 C599 0.951 . S
H575 C601 0.950 . S
H576 C602 0.950 . S
H577 C604 0.950 . S
H578 C607 0.950 . S
H579 C608 0.950 . S
H580 C610 0.950 . S
H581 C611 0.950 . S
C582 H564 0.951 . S
C582 C583 1.366 . S
C582 C584 1.388 . S
C583 C582 1.366 . S
C583 C587 1.385 . S
C584 H565 0.951 . S
C584 C582 1.388 . S
C584 C585 1.366 . S
C585 C584 1.366 . S
C585 C586 1.414 . S
C585 C588 1.499 . S
C586 H566 0.950 . S
C586 C585 1.414 . S
C586 C587 1.374 . S
C587 H567 0.950 . S
C587 C583 1.385 . S
C587 C586 1.374 . S
C588 C585 1.499 . S
C588 C589 1.373 . S
C588 C590 1.389 . S
C589 H568 0.950 . S
C589 C588 1.373 . S
C589 C605 1.377 . S
C590 C588 1.389 . S
C590 C591 1.524 . S
C590 C604 1.377 . S
C591 C590 1.524 . S
C591 C592 1.397 . S
C591 C596 1.363 . S
C592 H569 0.950 . S
C592 C591 1.397 . S
C592 C593 1.334 . S
C593 H570 0.950 . S
C593 C592 1.334 . S
C593 C594 1.287 . S
C594 C593 1.287 . S
C594 C595 1.524 . S
C594 H613 0.913 . S
C595 H571 0.950 . S
C595 C594 1.524 . S
C595 C596 1.415 . S
C596 H572 0.950 . S
C596 C591 1.363 . S
C596 C595 1.415 . S
C597 H573 0.951 . S
C597 C598 1.366 . S
C597 C599 1.388 . S
C598 C597 1.366 . S
C598 C602 1.385 . S
C599 H574 0.951 . S
C599 C597 1.388 . S
C599 C600 1.366 . S
C600 C599 1.366 . S
C600 C601 1.414 . S
C600 C603 1.499 . S
C601 H575 0.950 . S
C601 C600 1.414 . S
C601 C602 1.374 . S
C602 H576 0.950 . S
C602 C598 1.385 . S
C602 C601 1.374 . S
C603 C600 1.499 . S
C603 C604 1.373 . S
C603 C605 1.389 . S
C604 H577 0.950 . S
C604 C590 1.377 . S
C604 C603 1.373 . S
C605 C589 1.377 . S
C605 C603 1.389 . S
C605 C606 1.524 . S
C606 C605 1.524 . S
C606 C607 1.397 . S
C606 C611 1.363 . S
C607 H578 0.950 . S
C607 C606 1.397 . S
C607 C608 1.334 . S
C608 H579 0.950 . S
C608 C607 1.334 . S
C608 C609 1.287 . S
C609 C608 1.287 . S
C609 C610 1.524 . S
C609 H612 0.999 . S
C610 H580 0.950 . S
C610 C609 1.524 . S
C610 C611 1.415 . S
C611 H581 0.950 . S
C611 C606 1.363 . S
C611 C610 1.415 . S
H612 C609 0.999 . S
H613 C594 0.913 . S
H614 C632 0.951 . S
H615 C634 0.951 . S
H616 C636 0.950 . S
H617 C637 0.950 . S
H618 C639 0.950 . S
H619 C642 0.950 . S
H620 C643 0.950 . S
H621 C645 0.950 . S
H622 C646 0.950 . S
H623 C647 0.951 . S
H624 C649 0.951 . S
H625 C651 0.950 . S
H626 C652 0.950 . S
H627 C654 0.950 . S
H628 C657 0.950 . S
H629 C658 0.950 . S
H630 C660 0.950 . S
H631 C661 0.950 . S
C632 H614 0.951 . S
C632 C633 1.366 . S
C632 C634 1.388 . S
C633 C632 1.366 . S
C633 C637 1.385 . S
C634 H615 0.951 . S
C634 C632 1.388 . S
C634 C635 1.366 . S
C635 C634 1.366 . S
C635 C636 1.414 . S
C635 C638 1.499 . S
C636 H616 0.950 . S
C636 C635 1.414 . S
C636 C637 1.374 . S
C637 H617 0.950 . S
C637 C633 1.385 . S
C637 C636 1.374 . S
C638 C635 1.499 . S
C638 C639 1.373 . S
C638 C640 1.389 . S
C639 H618 0.950 . S
C639 C638 1.373 . S
C639 C655 1.377 . S
C640 C638 1.389 . S
C640 C641 1.524 . S
C640 C654 1.377 . S
C641 C640 1.524 . S
C641 C642 1.397 . S
C641 C646 1.363 . S
C642 H619 0.950 . S
C642 C641 1.397 . S
C642 C643 1.334 . S
C643 H620 0.950 . S
C643 C642 1.334 . S
C643 C644 1.287 . S
C644 C643 1.287 . S
C644 C645 1.524 . S
C644 H663 0.913 . S
C645 H621 0.950 . S
C645 C644 1.524 . S
C645 C646 1.415 . S
C646 H622 0.950 . S
C646 C641 1.363 . S
C646 C645 1.415 . S
C647 H623 0.951 . S
C647 C648 1.366 . S
C647 C649 1.388 . S
C648 C647 1.366 . S
C648 C652 1.385 . S
C649 H624 0.951 . S
C649 C647 1.388 . S
C649 C650 1.366 . S
C650 C649 1.366 . S
C650 C651 1.414 . S
C650 C653 1.499 . S
C651 H625 0.950 . S
C651 C650 1.414 . S
C651 C652 1.374 . S
C652 H626 0.950 . S
C652 C648 1.385 . S
C652 C651 1.374 . S
C653 C650 1.499 . S
C653 C654 1.373 . S
C653 C655 1.389 . S
C654 H627 0.950 . S
C654 C640 1.377 . S
C654 C653 1.373 . S
C655 C639 1.377 . S
C655 C653 1.389 . S
C655 C656 1.524 . S
C656 C655 1.524 . S
C656 C657 1.397 . S
C656 C661 1.363 . S
C657 H628 0.950 . S
C657 C656 1.397 . S
C657 C658 1.334 . S
C658 H629 0.950 . S
C658 C657 1.334 . S
C658 C659 1.287 . S
C659 C658 1.287 . S
C659 C660 1.524 . S
C659 H662 0.999 . S
C660 H630 0.950 . S
C660 C659 1.524 . S
C660 C661 1.415 . S
C661 H631 0.950 . S
C661 C656 1.363 . S
C661 C660 1.415 . S
H662 C659 0.999 . S
H663 C644 0.913 . S
H664 C682 0.951 . S
H665 C684 0.951 . S
H666 C686 0.950 . S
H667 C687 0.950 . S
H668 C689 0.950 . S
H669 C692 0.950 . S
H670 C693 0.950 . S
H671 C695 0.950 . S
H672 C696 0.950 . S
H673 C697 0.951 . S
H674 C699 0.951 . S
H675 C701 0.950 . S
H676 C702 0.950 . S
H677 C704 0.950 . S
H678 C707 0.950 . S
H679 C708 0.950 . S
H680 C710 0.950 . S
H681 C711 0.950 . S
C682 H664 0.951 . S
C682 C683 1.366 . S
C682 C684 1.388 . S
C683 C682 1.366 . S
C683 C687 1.385 . S
C684 H665 0.951 . S
C684 C682 1.388 . S
C684 C685 1.366 . S
C685 C684 1.366 . S
C685 C686 1.414 . S
C685 C688 1.499 . S
C686 H666 0.950 . S
C686 C685 1.414 . S
C686 C687 1.374 . S
C687 H667 0.950 . S
C687 C683 1.385 . S
C687 C686 1.374 . S
C688 C685 1.499 . S
C688 C689 1.373 . S
C688 C690 1.389 . S
C689 H668 0.950 . S
C689 C688 1.373 . S
C689 C705 1.377 . S
C690 C688 1.389 . S
C690 C691 1.524 . S
C690 C704 1.377 . S
C691 C690 1.524 . S
C691 C692 1.397 . S
C691 C696 1.363 . S
C692 H669 0.950 . S
C692 C691 1.397 . S
C692 C693 1.334 . S
C693 H670 0.950 . S
C693 C692 1.334 . S
C693 C694 1.287 . S
C694 C693 1.287 . S
C694 C695 1.524 . S
C694 H713 0.913 . S
C695 H671 0.950 . S
C695 C694 1.524 . S
C695 C696 1.415 . S
C696 H672 0.950 . S
C696 C691 1.363 . S
C696 C695 1.415 . S
C697 H673 0.951 . S
C697 C698 1.366 . S
C697 C699 1.388 . S
C698 C697 1.366 . S
C698 C702 1.385 . S
C699 H674 0.951 . S
C699 C697 1.388 . S
C699 C700 1.366 . S
C700 C699 1.366 . S
C700 C701 1.414 . S
C700 C703 1.499 . S
C701 H675 0.950 . S
C701 C700 1.414 . S
C701 C702 1.374 . S
C702 H676 0.950 . S
C702 C698 1.385 . S
C702 C701 1.374 . S
C703 C700 1.499 . S
C703 C704 1.373 . S
C703 C705 1.389 . S
C704 H677 0.950 . S
C704 C690 1.377 . S
C704 C703 1.373 . S
C705 C689 1.377 . S
C705 C703 1.389 . S
C705 C706 1.524 . S
C706 C705 1.524 . S
C706 C707 1.397 . S
C706 C711 1.363 . S
C707 H678 0.950 . S
C707 C706 1.397 . S
C707 C708 1.334 . S
C708 H679 0.950 . S
C708 C707 1.334 . S
C708 C709 1.287 . S
C709 C708 1.287 . S
C709 C710 1.524 . S
C709 H712 0.999 . S
C710 H680 0.950 . S
C710 C709 1.524 . S
C710 C711 1.415 . S
C711 H681 0.950 . S
C711 C706 1.363 . S
C711 C710 1.415 . S
H712 C709 0.999 . S
H713 C694 0.913 . S
H714 C732 0.951 . S
H715 C734 0.951 1_556 S
H716 C736 0.950 1_556 S
H717 C737 0.950 . S
H718 C739 0.950 . S
H719 C742 0.950 . S
H720 C743 0.950 1_554 S
H721 C745 0.950 . S
H722 C746 0.950 . S
H723 C747 0.951 . S
H724 C749 0.951 . S
H725 C751 0.950 . S
H726 C752 0.950 . S
H727 C754 0.950 . S
H728 C757 0.950 . S
H729 C758 0.950 . S
H730 C760 0.950 . S
H731 C761 0.950 . S
C732 H714 0.951 . S
C732 C733 1.366 . S
C732 C734 1.388 . S
C733 C732 1.366 . S
C733 C737 1.385 . S
C734 H715 0.951 1_554 S
C734 C732 1.388 . S
C734 C735 1.366 1_554 S
C735 C734 1.366 1_556 S
C735 C736 1.414 1_556 S
C735 C738 1.499 . S
C736 H716 0.950 1_554 S
C736 C735 1.414 1_554 S
C736 C737 1.374 . S
C737 H717 0.950 . S
C737 C733 1.385 . S
C737 C736 1.374 . S
C738 C735 1.499 . S
C738 C739 1.373 . S
C738 C740 1.389 . S
C739 H718 0.950 . S
C739 C738 1.373 . S
C739 C755 1.377 . S
C740 C738 1.389 . S
C740 C741 1.524 . S
C740 C754 1.377 . S
C741 C740 1.524 . S
C741 C742 1.397 . S
C741 C746 1.363 . S
C742 H719 0.950 . S
C742 C741 1.397 . S
C742 C743 1.334 . S
C743 H720 0.950 1_556 S
C743 C742 1.334 . S
C743 C744 1.287 . S
C744 C743 1.287 . S
C744 C745 1.524 . S
C744 H763 0.913 1_556 S
C745 H721 0.950 . S
C745 C744 1.524 . S
C745 C746 1.415 . S
C746 H722 0.950 . S
C746 C741 1.363 . S
C746 C745 1.415 . S
C747 H723 0.951 . S
C747 C748 1.366 . S
C747 C749 1.388 . S
C748 C747 1.366 . S
C748 C752 1.385 . S
C749 H724 0.951 . S
C749 C747 1.388 . S
C749 C750 1.366 . S
C750 C749 1.366 . S
C750 C751 1.414 . S
C750 C753 1.499 . S
C751 H725 0.950 . S
C751 C750 1.414 . S
C751 C752 1.374 . S
C752 H726 0.950 . S
C752 C748 1.385 . S
C752 C751 1.374 . S
C753 C750 1.499 . S
C753 C754 1.373 . S
C753 C755 1.389 . S
C754 H727 0.950 . S
C754 C740 1.377 . S
C754 C753 1.373 . S
C755 C739 1.377 . S
C755 C753 1.389 . S
C755 C756 1.524 . S
C756 C755 1.524 . S
C756 C757 1.397 . S
C756 C761 1.363 . S
C757 H728 0.950 . S
C757 C756 1.397 . S
C757 C758 1.334 . S
C758 H729 0.950 . S
C758 C757 1.334 . S
C758 C759 1.287 . S
C759 C758 1.287 . S
C759 C760 1.524 . S
C759 H762 0.999 . S
C760 H730 0.950 . S
C760 C759 1.524 . S
C760 C761 1.415 . S
C761 H731 0.950 . S
C761 C756 1.363 . S
C761 C760 1.415 . S
H762 C759 0.999 . S
H763 C744 0.913 1_554 S
H764 C782 0.951 . S
H765 C784 0.951 . S
H766 C786 0.950 . S
H767 C787 0.950 . S
H768 C789 0.950 . S
H769 C792 0.950 . S
H770 C793 0.950 . S
H771 C795 0.950 . S
H772 C796 0.950 . S
H773 C797 0.951 . S
H774 C799 0.951 . S
H775 C801 0.950 . S
H776 C802 0.950 . S
H777 C804 0.950 . S
H778 C807 0.950 . S
H779 C808 0.950 . S
H780 C810 0.950 . S
H781 C811 0.950 . S
C782 H764 0.951 . S
C782 C783 1.366 . S
C782 C784 1.388 . S
C783 C782 1.366 . S
C783 C787 1.385 . S
C784 H765 0.951 . S
C784 C782 1.388 . S
C784 C785 1.366 . S
C785 C784 1.366 . S
C785 C786 1.414 . S
C785 C788 1.499 . S
C786 H766 0.950 . S
C786 C785 1.414 . S
C786 C787 1.374 . S
C787 H767 0.950 . S
C787 C783 1.385 . S
C787 C786 1.374 . S
C788 C785 1.499 . S
C788 C789 1.373 . S
C788 C790 1.389 . S
C789 H768 0.950 . S
C789 C788 1.373 . S
C789 C805 1.377 1_556 S
C790 C788 1.389 . S
C790 C791 1.524 . S
C790 C804 1.377 1_556 S
C791 C790 1.524 . S
C791 C792 1.397 . S
C791 C796 1.363 . S
C792 H769 0.950 . S
C792 C791 1.397 . S
C792 C793 1.334 . S
C793 H770 0.950 . S
C793 C792 1.334 . S
C793 C794 1.287 . S
C794 C793 1.287 . S
C794 C795 1.524 . S
C794 H813 0.913 . S
C795 H771 0.950 . S
C795 C794 1.524 . S
C795 C796 1.415 . S
C796 H772 0.950 . S
C796 C791 1.363 . S
C796 C795 1.415 . S
C797 H773 0.951 . S
C797 C798 1.366 . S
C797 C799 1.388 . S
C798 C797 1.366 . S
C798 C802 1.385 . S
C799 H774 0.951 . S
C799 C797 1.388 . S
C799 C800 1.366 . S
C800 C799 1.366 . S
C800 C801 1.414 . S
C800 C803 1.499 . S
C801 H775 0.950 . S
C801 C800 1.414 . S
C801 C802 1.374 . S
C802 H776 0.950 . S
C802 C798 1.385 . S
C802 C801 1.374 . S
C803 C800 1.499 . S
C803 C804 1.373 . S
C803 C805 1.389 . S
C804 H777 0.950 . S
C804 C790 1.377 1_554 S
C804 C803 1.373 . S
C805 C789 1.377 1_554 S
C805 C803 1.389 . S
C805 C806 1.524 . S
C806 C805 1.524 . S
C806 C807 1.397 . S
C806 C811 1.363 . S
C807 H778 0.950 . S
C807 C806 1.397 . S
C807 C808 1.334 . S
C808 H779 0.950 . S
C808 C807 1.334 . S
C808 C809 1.287 . S
C809 C808 1.287 . S
C809 C810 1.524 . S
C809 H812 0.999 . S
C810 H780 0.950 . S
C810 C809 1.524 . S
C810 C811 1.415 . S
C811 H781 0.950 . S
C811 C806 1.363 . S
C811 C810 1.415 . S
H812 C809 0.999 . S
H813 C794 0.913 . S
H814 C832 0.951 . S
H815 C834 0.951 . S
H816 C836 0.950 . S
H817 C837 0.950 . S
H818 C839 0.950 . S
H819 C842 0.950 . S
H820 C843 0.950 . S
H821 C845 0.950 . S
H822 C846 0.950 . S
H823 C847 0.951 . S
H824 C849 0.951 1_554 S
H825 C851 0.950 1_554 S
H826 C852 0.950 . S
H827 C854 0.950 . S
H828 C857 0.950 . S
H829 C858 0.950 . S
H830 C860 0.950 . S
H831 C861 0.950 . S
C832 H814 0.951 . S
C832 C833 1.366 . S
C832 C834 1.388 . S
C833 C832 1.366 . S
C833 C837 1.385 . S
C834 H815 0.951 . S
C834 C832 1.388 . S
C834 C835 1.366 . S
C835 C834 1.366 . S
C835 C836 1.414 . S
C835 C838 1.499 . S
C836 H816 0.950 . S
C836 C835 1.414 . S
C836 C837 1.374 . S
C837 H817 0.950 . S
C837 C833 1.385 . S
C837 C836 1.374 . S
C838 C835 1.499 . S
C838 C839 1.373 . S
C838 C840 1.389 . S
C839 H818 0.950 . S
C839 C838 1.373 . S
C839 C855 1.377 . S
C840 C838 1.389 . S
C840 C841 1.524 . S
C840 C854 1.377 . S
C841 C840 1.524 . S
C841 C842 1.397 . S
C841 C846 1.363 . S
C842 H819 0.950 . S
C842 C841 1.397 . S
C842 C843 1.334 . S
C843 H820 0.950 . S
C843 C842 1.334 . S
C843 C844 1.287 . S
C844 C843 1.287 . S
C844 C845 1.524 . S
C844 H863 0.913 . S
C845 H821 0.950 . S
C845 C844 1.524 . S
C845 C846 1.415 . S
C846 H822 0.950 . S
C846 C841 1.363 . S
C846 C845 1.415 . S
C847 H823 0.951 . S
C847 C848 1.366 . S
C847 C849 1.388 . S
C848 C847 1.366 . S
C848 C852 1.385 . S
C849 H824 0.951 1_556 S
C849 C847 1.388 . S
C849 C850 1.366 1_556 S
C850 C849 1.366 1_554 S
C850 C851 1.414 1_554 S
C850 C853 1.499 . S
C851 H825 0.950 1_556 S
C851 C850 1.414 1_556 S
C851 C852 1.374 . S
C852 H826 0.950 . S
C852 C848 1.385 . S
C852 C851 1.374 . S
C853 C850 1.499 . S
C853 C854 1.373 . S
C853 C855 1.389 . S
C854 H827 0.950 . S
C854 C840 1.377 . S
C854 C853 1.373 . S
C855 C839 1.377 . S
C855 C853 1.389 . S
C855 C856 1.524 . S
C856 C855 1.524 . S
C856 C857 1.397 . S
C856 C861 1.363 . S
C857 H828 0.950 . S
C857 C856 1.397 . S
C857 C858 1.334 . S
C858 H829 0.950 . S
C858 C857 1.334 . S
C858 C859 1.287 . S
C859 C858 1.287 . S
C859 C860 1.524 . S
C859 H862 0.999 . S
C860 H830 0.950 . S
C860 C859 1.524 . S
C860 C861 1.415 . S
C861 H831 0.950 . S
C861 C856 1.363 . S
C861 C860 1.415 . S
H862 C859 0.999 . S
H863 C844 0.913 . S
H864 C882 0.951 . S
H865 C884 0.951 . S
H866 C886 0.950 . S
H867 C887 0.950 . S
H868 C889 0.950 . S
H869 C892 0.950 . S
H870 C893 0.950 . S
H871 C895 0.950 . S
H872 C896 0.950 . S
H873 C897 0.951 . S
H874 C899 0.951 . S
H875 C901 0.950 . S
H876 C902 0.950 . S
H877 C904 0.950 . S
H878 C907 0.950 . S
H879 C908 0.950 . S
H880 C910 0.950 . S
H881 C911 0.950 . S
C882 H864 0.951 . S
C882 C883 1.366 1_556 S
C882 C884 1.388 . S
C883 C882 1.366 1_554 S
C883 C887 1.385 . S
C884 H865 0.951 . S
C884 C882 1.388 . S
C884 C885 1.366 1_556 S
C885 C884 1.366 1_554 S
C885 C886 1.414 . S
C885 C888 1.499 . S
C886 H866 0.950 . S
C886 C885 1.414 . S
C886 C887 1.374 . S
C887 H867 0.950 . S
C887 C883 1.385 . S
C887 C886 1.374 . S
C888 C885 1.499 . S
C888 C889 1.373 . S
C888 C890 1.389 1_554 S
C889 H868 0.950 . S
C889 C888 1.373 . S
C889 C905 1.377 1_545 S
C890 C888 1.389 1_556 S
C890 C891 1.524 . S
C890 C904 1.377 1_545 S
C891 C890 1.524 . S
C891 C892 1.397 . S
C891 C896 1.363 . S
C892 H869 0.950 . S
C892 C891 1.397 . S
C892 C893 1.334 . S
C893 H870 0.950 . S
C893 C892 1.334 . S
C893 C894 1.287 . S
C894 C893 1.287 . S
C894 C895 1.524 . S
C894 H913 0.913 . S
C895 H871 0.950 . S
C895 C894 1.524 . S
C895 C896 1.415 . S
C896 H872 0.950 . S
C896 C891 1.363 . S
C896 C895 1.415 . S
C897 H873 0.951 . S
C897 C898 1.366 . S
C897 C899 1.388 . S
C898 C897 1.366 . S
C898 C902 1.385 1_554 S
C899 H874 0.951 . S
C899 C897 1.388 . S
C899 C900 1.366 . S
C900 C899 1.366 . S
C900 C901 1.414 1_554 S
C900 C903 1.499 . S
C901 H875 0.950 . S
C901 C900 1.414 1_556 S
C901 C902 1.374 . S
C902 H876 0.950 . S
C902 C898 1.385 1_556 S
C902 C901 1.374 . S
C903 C900 1.499 . S
C903 C904 1.373 1_554 S
C903 C905 1.389 . S
C904 H877 0.950 . S
C904 C890 1.377 1_565 S
C904 C903 1.373 1_556 S
C905 C889 1.377 1_565 S
C905 C903 1.389 . S
C905 C906 1.524 . S
C906 C905 1.524 . S
C906 C907 1.397 . S
C906 C911 1.363 . S
C907 H878 0.950 . S
C907 C906 1.397 . S
C907 C908 1.334 . S
C908 H879 0.950 . S
C908 C907 1.334 . S
C908 C909 1.287 . S
C909 C908 1.287 . S
C909 C910 1.524 . S
C909 H912 0.999 . S
C910 H880 0.950 . S
C910 C909 1.524 . S
C910 C911 1.415 . S
C911 H881 0.950 . S
C911 C906 1.363 . S
C911 C910 1.415 . S
H912 C909 0.999 . S
H913 C894 0.913 . S
H914 C932 0.951 . S
H915 C934 0.951 . S
H916 C936 0.950 . S
H917 C937 0.950 . S
H918 C939 0.950 . S
H919 C942 0.950 . S
H920 C943 0.953 . S
H921 C945 0.950 . S
H922 C946 0.950 . S
H923 C947 0.951 . S
H924 C949 0.951 . S
H925 C951 0.950 . S
H926 C952 0.950 . S
H927 C954 0.950 . S
H928 C957 0.950 . S
H929 C958 0.950 . S
H930 C960 0.950 . S
H931 C961 0.950 . S
C932 H914 0.951 . S
C932 C933 1.366 . S
C932 C934 1.388 . S
C933 C932 1.366 . S
C933 C937 1.385 . S
C934 H915 0.951 . S
C934 C932 1.388 . S
C934 C935 1.366 . S
C935 C934 1.366 . S
C935 C936 1.414 . S
C935 C938 1.499 . S
C936 H916 0.950 . S
C936 C935 1.414 . S
C936 C937 1.374 . S
C937 H917 0.950 . S
C937 C933 1.385 . S
C937 C936 1.374 . S
C938 C935 1.499 . S
C938 C939 1.373 . S
C938 C940 1.389 . S
C939 H918 0.950 . S
C939 C938 1.373 . S
C939 C955 1.377 . S
C940 C938 1.389 . S
C940 C941 1.524 . S
C940 C954 1.377 . S
C941 C940 1.524 . S
C941 C942 1.397 . S
C941 C946 1.363 . S
C942 H919 0.950 . S
C942 C941 1.397 . S
C942 C943 1.334 . S
C943 H920 0.953 . S
C943 C942 1.334 . S
C943 C944 1.287 . S
C944 C943 1.287 . S
C944 C945 1.524 . S
C944 H963 0.913 . S
C945 H921 0.950 . S
C945 C944 1.524 . S
C945 C946 1.415 . S
C946 H922 0.950 . S
C946 C941 1.363 . S
C946 C945 1.415 . S
C947 H923 0.951 . S
C947 C948 1.366 . S
C947 C949 1.388 . S
C948 C947 1.366 . S
C948 C952 1.385 . S
C949 H924 0.951 . S
C949 C947 1.388 . S
C949 C950 1.366 . S
C950 C949 1.366 . S
C950 C951 1.414 . S
C950 C953 1.499 . S
C951 H925 0.950 . S
C951 C950 1.414 . S
C951 C952 1.374 . S
C952 H926 0.950 . S
C952 C948 1.385 . S
C952 C951 1.374 . S
C953 C950 1.499 . S
C953 C954 1.373 . S
C953 C955 1.389 . S
C954 H927 0.950 . S
C954 C940 1.377 . S
C954 C953 1.373 . S
C955 C939 1.377 . S
C955 C953 1.389 . S
C955 C956 1.524 . S
C956 C955 1.524 . S
C956 C957 1.397 . S
C956 C961 1.363 . S
C957 H928 0.950 . S
C957 C956 1.397 . S
C957 C958 1.334 . S
C958 H929 0.950 . S
C958 C957 1.334 . S
C958 C959 1.287 . S
C959 C958 1.287 . S
C959 C960 1.524 . S
C959 H962 0.999 . S
C960 H930 0.950 . S
C960 C959 1.524 . S
C960 C961 1.415 . S
C961 H931 0.950 . S
C961 C956 1.363 . S
C961 C960 1.415 . S
H962 C959 0.999 . S
H963 C944 0.913 . S
H964 C982 0.951 . S
H965 C984 0.951 . S
H966 C986 0.950 . S
H967 C987 0.950 . S
H968 C989 0.950 . S
H969 C992 0.950 . S
H970 C993 0.950 . S
H971 C995 0.950 . S
H972 C996 0.950 . S
H973 C997 0.951 . S
H974 C999 0.951 . S
H975 C1001 0.950 . S
H976 C1002 0.950 . S
H977 C1004 0.950 . S
H978 C1007 0.950 . S
H979 C1008 0.950 . S
H980 C1010 0.950 . S
H981 C1011 0.950 . S
C982 H964 0.951 . S
C982 C983 1.366 . S
C982 C984 1.388 . S
C983 C982 1.366 . S
C983 C987 1.385 . S
C984 H965 0.951 . S
C984 C982 1.388 . S
C984 C985 1.366 . S
C985 C984 1.366 . S
C985 C986 1.414 . S
C985 C988 1.499 . S
C986 H966 0.950 . S
C986 C985 1.414 . S
C986 C987 1.374 . S
C987 H967 0.950 . S
C987 C983 1.385 . S
C987 C986 1.374 . S
C988 C985 1.499 . S
C988 C989 1.373 . S
C988 C990 1.389 . S
C989 H968 0.950 . S
C989 C988 1.373 . S
C989 C1005 1.377 1_455 S
C990 C988 1.389 . S
C990 C991 1.524 . S
C990 C1004 1.377 1_455 S
C991 C990 1.524 . S
C991 C992 1.397 . S
C991 C996 1.363 . S
C992 H969 0.950 . S
C992 C991 1.397 . S
C992 C993 1.334 . S
C993 H970 0.950 . S
C993 C992 1.334 . S
C993 C994 1.287 . S
C994 C993 1.287 . S
C994 C995 1.524 . S
C994 H1013 0.913 . S
C995 H971 0.950 . S
C995 C994 1.524 . S
C995 C996 1.415 . S
C996 H972 0.950 . S
C996 C991 1.363 . S
C996 C995 1.415 . S
C997 H973 0.951 . S
C997 C998 1.366 . S
C997 C999 1.388 . S
C998 C997 1.366 . S
C998 C1002 1.385 . S
C999 H974 0.951 . S
C999 C997 1.388 . S
C999 C1000 1.366 . S
C1000 C999 1.366 . S
C1000 C1001 1.414 . S
C1000 C1003 1.499 . S
C1001 H975 0.950 . S
C1001 C1000 1.414 . S
C1001 C1002 1.374 . S
C1002 H976 0.950 . S
C1002 C998 1.385 . S
C1002 C1001 1.374 . S
C1003 C1000 1.499 . S
C1003 C1004 1.373 . S
C1003 C1005 1.389 . S
C1004 H977 0.950 . S
C1004 C990 1.377 1_655 S
C1004 C1003 1.373 . S
C1005 C989 1.377 1_655 S
C1005 C1003 1.389 . S
C1005 C1006 1.524 . S
C1006 C1005 1.524 . S
C1006 C1007 1.397 . S
C1006 C1011 1.363 . S
C1007 H978 0.950 . S
C1007 C1006 1.397 . S
C1007 C1008 1.334 . S
C1008 H979 0.950 . S
C1008 C1007 1.334 . S
C1008 C1009 1.287 . S
C1009 C1008 1.287 . S
C1009 C1010 1.524 . S
C1009 H1012 0.999 . S
C1010 H980 0.950 . S
C1010 C1009 1.524 . S
C1010 C1011 1.415 . S
C1011 H981 0.950 . S
C1011 C1006 1.363 . S
C1011 C1010 1.415 . S
H1012 C1009 0.999 . S
H1013 C994 0.913 . S
H1014 C1032 0.951 . S
H1015 C1034 0.951 . S
H1016 C1036 0.950 . S
H1017 C1037 0.950 . S
H1018 C1039 0.950 . S
H1019 C1042 0.950 . S
H1020 C1043 0.950 . S
H1021 C1045 0.950 . S
H1022 C1046 0.950 . S
H1023 C1047 0.951 . S
H1024 C1049 0.951 . S
H1025 C1051 0.950 . S
H1026 C1052 0.950 . S
H1027 C1054 0.950 . S
H1028 C1057 0.950 . S
H1029 C1058 0.950 . S
H1030 C1060 0.950 . S
H1031 C1061 0.950 . S
C1032 H1014 0.951 . S
C1032 C1033 1.366 . S
C1032 C1034 1.388 . S
C1033 C1032 1.366 . S
C1033 C1037 1.385 . S
C1034 H1015 0.951 . S
C1034 C1032 1.388 . S
C1034 C1035 1.366 . S
C1035 C1034 1.366 . S
C1035 C1036 1.414 . S
C1035 C1038 1.499 . S
C1036 H1016 0.950 . S
C1036 C1035 1.414 . S
C1036 C1037 1.374 . S
C1037 H1017 0.950 . S
C1037 C1033 1.385 . S
C1037 C1036 1.374 . S
C1038 C1035 1.499 . S
C1038 C1039 1.373 . S
C1038 C1040 1.389 . S
C1039 H1018 0.950 . S
C1039 C1038 1.373 . S
C1039 C1055 1.377 1_565 S
C1040 C1038 1.389 . S
C1040 C1041 1.524 . S
C1040 C1054 1.377 1_565 S
C1041 C1040 1.524 . S
C1041 C1042 1.397 . S
C1041 C1046 1.363 . S
C1042 H1019 0.950 . S
C1042 C1041 1.397 . S
C1042 C1043 1.334 . S
C1043 H1020 0.950 . S
C1043 C1042 1.334 . S
C1043 C1044 1.287 . S
C1044 C1043 1.287 . S
C1044 C1045 1.524 . S
C1044 H1063 0.913 . S
C1045 H1021 0.950 . S
C1045 C1044 1.524 . S
C1045 C1046 1.415 . S
C1046 H1022 0.950 . S
C1046 C1041 1.363 . S
C1046 C1045 1.415 . S
C1047 H1023 0.951 . S
C1047 C1048 1.366 . S
C1047 C1049 1.388 . S
C1048 C1047 1.366 . S
C1048 C1052 1.385 . S
C1049 H1024 0.951 . S
C1049 C1047 1.388 . S
C1049 C1050 1.366 . S
C1050 C1049 1.366 . S
C1050 C1051 1.414 . S
C1050 C1053 1.499 . S
C1051 H1025 0.950 . S
C1051 C1050 1.414 . S
C1051 C1052 1.374 . S
C1052 H1026 0.950 . S
C1052 C1048 1.385 . S
C1052 C1051 1.374 . S
C1053 C1050 1.499 . S
C1053 C1054 1.373 . S
C1053 C1055 1.389 . S
C1054 H1027 0.950 . S
C1054 C1040 1.377 1_545 S
C1054 C1053 1.373 . S
C1055 C1039 1.377 1_545 S
C1055 C1053 1.389 . S
C1055 C1056 1.524 . S
C1056 C1055 1.524 . S
C1056 C1057 1.397 . S
C1056 C1061 1.363 . S
C1057 H1028 0.950 . S
C1057 C1056 1.397 . S
C1057 C1058 1.334 . S
C1058 H1029 0.950 . S
C1058 C1057 1.334 . S
C1058 C1059 1.287 . S
C1059 C1058 1.287 . S
C1059 C1060 1.524 . S
C1059 H1062 0.999 . S
C1060 H1030 0.950 . S
C1060 C1059 1.524 . S
C1060 C1061 1.415 . S
C1061 H1031 0.950 . S
C1061 C1056 1.363 . S
C1061 C1060 1.415 . S
H1062 C1059 0.999 . S
H1063 C1044 0.913 . S
H1064 C1082 0.951 . S
H1065 C1084 0.951 . S
H1066 C1086 0.950 . S
H1067 C1087 0.950 . S
H1068 C1089 0.950 . S
H1069 C1092 0.950 . S
H1070 C1093 0.950 . S
H1071 C1095 0.950 . S
H1072 C1096 0.950 . S
H1073 C1097 0.951 . S
H1074 C1099 0.951 . S
H1075 C1101 0.950 . S
H1076 C1102 0.950 . S
H1077 C1104 0.950 . S
H1078 C1107 0.950 . S
H1079 C1108 0.950 . S
H1080 C1110 0.950 . S
H1081 C1111 0.950 . S
C1082 H1064 0.951 . S
C1082 C1083 1.366 . S
C1082 C1084 1.388 . S
C1083 C1082 1.366 . S
C1083 C1087 1.385 . S
C1084 H1065 0.951 . S
C1084 C1082 1.388 . S
C1084 C1085 1.366 . S
C1085 C1084 1.366 . S
C1085 C1086 1.414 . S
C1085 C1088 1.499 . S
C1086 H1066 0.950 . S
C1086 C1085 1.414 . S
C1086 C1087 1.374 . S
C1087 H1067 0.950 . S
C1087 C1083 1.385 . S
C1087 C1086 1.374 . S
C1088 C1085 1.499 . S
C1088 C1089 1.373 . S
C1088 C1090 1.389 . S
C1089 H1068 0.950 . S
C1089 C1088 1.373 . S
C1089 C1105 1.377 . S
C1090 C1088 1.389 . S
C1090 C1091 1.524 . S
C1090 C1104 1.377 . S
C1091 C1090 1.524 . S
C1091 C1092 1.397 . S
C1091 C1096 1.363 . S
C1092 H1069 0.950 . S
C1092 C1091 1.397 . S
C1092 C1093 1.334 . S
C1093 H1070 0.950 . S
C1093 C1092 1.334 . S
C1093 C1094 1.287 . S
C1094 C1093 1.287 . S
C1094 C1095 1.524 . S
C1094 H1113 0.913 . S
C1095 H1071 0.950 . S
C1095 C1094 1.524 . S
C1095 C1096 1.415 . S
C1096 H1072 0.950 . S
C1096 C1091 1.363 . S
C1096 C1095 1.415 . S
C1097 H1073 0.951 . S
C1097 C1098 1.366 . S
C1097 C1099 1.388 . S
C1098 C1097 1.366 . S
C1098 C1102 1.385 . S
C1099 H1074 0.951 . S
C1099 C1097 1.388 . S
C1099 C1100 1.366 . S
C1100 C1099 1.366 . S
C1100 C1101 1.414 . S
C1100 C1103 1.499 . S
C1101 H1075 0.950 . S
C1101 C1100 1.414 . S
C1101 C1102 1.374 . S
C1102 H1076 0.950 . S
C1102 C1098 1.385 . S
C1102 C1101 1.374 . S
C1103 C1100 1.499 . S
C1103 C1104 1.373 . S
C1103 C1105 1.389 . S
C1104 H1077 0.950 . S
C1104 C1090 1.377 . S
C1104 C1103 1.373 . S
C1105 C1089 1.377 . S
C1105 C1103 1.389 . S
C1105 C1106 1.524 . S
C1106 C1105 1.524 . S
C1106 C1107 1.397 . S
C1106 C1111 1.363 . S
C1107 H1078 0.950 . S
C1107 C1106 1.397 . S
C1107 C1108 1.334 . S
C1108 H1079 0.950 . S
C1108 C1107 1.334 . S
C1108 C1109 1.287 . S
C1109 C1108 1.287 . S
C1109 C1110 1.524 . S
C1109 H1112 0.999 . S
C1110 H1080 0.950 . S
C1110 C1109 1.524 . S
C1110 C1111 1.415 . S
C1111 H1081 0.950 . S
C1111 C1106 1.363 . S
C1111 C1110 1.415 . S
H1112 C1109 0.999 . S
H1113 C1094 0.913 . S
H1114 C1132 0.951 . S
H1115 C1134 0.951 . S
H1116 C1136 0.950 . S
H1117 C1137 0.950 . S
H1118 C1139 0.950 . S
H1119 C1142 0.950 . S
H1120 C1143 0.950 . S
H1121 C1145 0.950 . S
H1122 C1146 0.950 . S
H1123 C1147 0.951 . S
H1124 C1149 0.951 . S
H1125 C1151 0.950 . S
H1126 C1152 0.950 . S
H1127 C1154 0.950 . S
H1128 C1157 0.949 . S
H1129 C1158 0.950 . S
H1130 C1160 0.950 . S
H1131 C1161 0.950 . S
C1132 H1114 0.951 . S
C1132 C1133 1.366 . S
C1132 C1134 1.388 . S
C1133 C1132 1.366 . S
C1133 C1137 1.385 . S
C1134 H1115 0.951 . S
C1134 C1132 1.388 . S
C1134 C1135 1.366 . S
C1135 C1134 1.366 . S
C1135 C1136 1.414 . S
C1135 C1138 1.499 . S
C1136 H1116 0.950 . S
C1136 C1135 1.414 . S
C1136 C1137 1.374 . S
C1137 H1117 0.950 . S
C1137 C1133 1.385 . S
C1137 C1136 1.374 . S
C1138 C1135 1.499 . S
C1138 C1139 1.373 . S
C1138 C1140 1.389 . S
C1139 H1118 0.950 . S
C1139 C1138 1.373 . S
C1139 C1155 1.377 1_455 S
C1140 C1138 1.389 . S
C1140 C1141 1.524 . S
C1140 C1154 1.377 1_455 S
C1141 C1140 1.524 . S
C1141 C1142 1.397 . S
C1141 C1146 1.363 . S
C1142 H1119 0.950 . S
C1142 C1141 1.397 . S
C1142 C1143 1.334 . S
C1143 H1120 0.950 . S
C1143 C1142 1.334 . S
C1143 C1144 1.287 . S
C1144 C1143 1.287 . S
C1144 C1145 1.524 . S
C1144 H1163 0.913 . S
C1145 H1121 0.950 . S
C1145 C1144 1.524 . S
C1145 C1146 1.415 . S
C1146 H1122 0.950 . S
C1146 C1141 1.363 . S
C1146 C1145 1.415 . S
C1147 H1123 0.951 . S
C1147 C1148 1.366 . S
C1147 C1149 1.388 . S
C1148 C1147 1.366 . S
C1148 C1152 1.385 . S
C1149 H1124 0.951 . S
C1149 C1147 1.388 . S
C1149 C1150 1.366 . S
C1150 C1149 1.366 . S
C1150 C1151 1.414 . S
C1150 C1153 1.499 . S
C1151 H1125 0.950 . S
C1151 C1150 1.414 . S
C1151 C1152 1.374 . S
C1152 H1126 0.950 . S
C1152 C1148 1.385 . S
C1152 C1151 1.374 . S
C1153 C1150 1.499 . S
C1153 C1154 1.373 . S
C1153 C1155 1.389 . S
C1154 H1127 0.950 . S
C1154 C1140 1.377 1_655 S
C1154 C1153 1.373 . S
C1155 C1139 1.377 1_655 S
C1155 C1153 1.389 . S
C1155 C1156 1.524 . S
C1156 C1155 1.524 . S
C1156 C1157 1.396 . S
C1156 C1161 1.363 . S
C1157 H1128 0.949 . S
C1157 C1156 1.396 . S
C1157 C1158 1.335 1_556 S
C1158 H1129 0.950 . S
C1158 C1157 1.335 1_554 S
C1158 C1159 1.287 . S
C1159 C1158 1.287 . S
C1159 C1160 1.524 . S
C1159 H1162 0.999 . S
C1160 H1130 0.950 . S
C1160 C1159 1.524 . S
C1160 C1161 1.415 1_554 S
C1161 H1131 0.950 . S
C1161 C1156 1.363 . S
C1161 C1160 1.415 1_556 S
H1162 C1159 0.999 . S
H1163 C1144 0.913 . S
H1164 C1182 0.951 . S
H1165 C1184 0.951 . S
H1166 C1186 0.950 . S
H1167 C1187 0.950 . S
H1168 C1189 0.950 . S
H1169 C1192 0.950 . S
H1170 C1193 0.950 . S
H1171 C1195 0.950 . S
H1172 C1196 0.950 . S
H1173 C1197 0.951 . S
H1174 C1199 0.951 . S
H1175 C1201 0.950 . S
H1176 C1202 0.950 . S
H1177 C1204 0.950 . S
H1178 C1207 0.950 . S
H1179 C1208 0.950 . S
H1180 C1210 0.950 . S
H1181 C1211 0.950 . S
C1182 H1164 0.951 . S
C1182 C1183 1.366 . S
C1182 C1184 1.388 . S
C1183 C1182 1.366 . S
C1183 C1187 1.385 . S
C1184 H1165 0.951 . S
C1184 C1182 1.388 . S
C1184 C1185 1.366 . S
C1185 C1184 1.366 . S
C1185 C1186 1.414 . S
C1185 C1188 1.499 . S
C1186 H1166 0.950 . S
C1186 C1185 1.414 . S
C1186 C1187 1.374 . S
C1187 H1167 0.950 . S
C1187 C1183 1.385 . S
C1187 C1186 1.374 . S
C1188 C1185 1.499 . S
C1188 C1189 1.373 . S
C1188 C1190 1.389 . S
C1189 H1168 0.950 . S
C1189 C1188 1.373 . S
C1189 C1205 1.377 . S
C1190 C1188 1.389 . S
C1190 C1191 1.524 . S
C1190 C1204 1.377 . S
C1191 C1190 1.524 . S
C1191 C1192 1.397 . S
C1191 C1196 1.363 . S
C1192 H1169 0.950 . S
C1192 C1191 1.397 . S
C1192 C1193 1.334 . S
C1193 H1170 0.950 . S
C1193 C1192 1.334 . S
C1193 C1194 1.287 . S
C1194 C1193 1.287 . S
C1194 C1195 1.524 . S
C1194 H1213 0.913 . S
C1195 H1171 0.950 . S
C1195 C1194 1.524 . S
C1195 C1196 1.415 . S
C1196 H1172 0.950 . S
C1196 C1191 1.363 . S
C1196 C1195 1.415 . S
C1197 H1173 0.951 . S
C1197 C1198 1.366 . S
C1197 C1199 1.388 . S
C1198 C1197 1.366 . S
C1198 C1202 1.385 . S
C1199 H1174 0.951 . S
C1199 C1197 1.388 . S
C1199 C1200 1.366 . S
C1200 C1199 1.366 . S
C1200 C1201 1.414 . S
C1200 C1203 1.499 . S
C1201 H1175 0.950 . S
C1201 C1200 1.414 . S
C1201 C1202 1.374 . S
C1202 H1176 0.950 . S
C1202 C1198 1.385 . S
C1202 C1201 1.374 . S
C1203 C1200 1.499 . S
C1203 C1204 1.373 . S
C1203 C1205 1.389 . S
C1204 H1177 0.950 . S
C1204 C1190 1.377 . S
C1204 C1203 1.373 . S
C1205 C1189 1.377 . S
C1205 C1203 1.389 . S
C1205 C1206 1.524 . S
C1206 C1205 1.524 . S
C1206 C1207 1.397 . S
C1206 C1211 1.363 . S
C1207 H1178 0.950 . S
C1207 C1206 1.397 . S
C1207 C1208 1.334 . S
C1208 H1179 0.950 . S
C1208 C1207 1.334 . S
C1208 C1209 1.287 . S
C1209 C1208 1.287 . S
C1209 C1210 1.524 . S
C1209 H1212 0.999 . S
C1210 H1180 0.950 . S
C1210 C1209 1.524 . S
C1210 C1211 1.415 . S
C1211 H1181 0.950 . S
C1211 C1206 1.363 . S
C1211 C1210 1.415 . S
H1212 C1209 0.999 . S
H1213 C1194 0.913 . S
H1214 C1232 0.951 . S
H1215 C1234 0.951 . S
H1216 C1236 0.950 . S
H1217 C1237 0.950 . S
H1218 C1239 0.950 . S
H1219 C1242 0.950 . S
H1220 C1243 0.950 . S
H1221 C1245 0.950 . S
H1222 C1246 0.950 . S
H1223 C1247 0.951 . S
H1224 C1249 0.951 . S
H1225 C1251 0.950 . S
H1226 C1252 0.950 . S
H1227 C1254 0.950 . S
H1228 C1257 0.950 . S
H1229 C1258 0.950 . S
H1230 C1260 0.950 . S
H1231 C1261 0.950 . S
C1232 H1214 0.951 . S
C1232 C1233 1.366 . S
C1232 C1234 1.388 1_554 S
C1233 C1232 1.366 . S
C1233 C1237 1.385 . S
C1234 H1215 0.951 . S
C1234 C1232 1.388 1_556 S
C1234 C1235 1.366 1_556 S
C1235 C1234 1.366 1_554 S
C1235 C1236 1.414 . S
C1235 C1238 1.499 1_554 S
C1236 H1216 0.950 . S
C1236 C1235 1.414 . S
C1236 C1237 1.374 . S
C1237 H1217 0.950 . S
C1237 C1233 1.385 . S
C1237 C1236 1.374 . S
C1238 C1235 1.499 1_556 S
C1238 C1239 1.373 . S
C1238 C1240 1.389 . S
C1239 H1218 0.950 . S
C1239 C1238 1.373 . S
C1239 C1255 1.377 . S
C1240 C1238 1.389 . S
C1240 C1241 1.524 . S
C1240 C1254 1.377 . S
C1241 C1240 1.524 . S
C1241 C1242 1.397 1_556 S
C1241 C1246 1.363 . S
C1242 H1219 0.950 . S
C1242 C1241 1.397 1_554 S
C1242 C1243 1.334 . S
C1243 H1220 0.950 . S
C1243 C1242 1.334 . S
C1243 C1244 1.287 . S
C1244 C1243 1.287 . S
C1244 C1245 1.524 1_554 S
C1244 H1263 0.913 . S
C1245 H1221 0.950 . S
C1245 C1244 1.524 1_556 S
C1245 C1246 1.415 . S
C1246 H1222 0.950 . S
C1246 C1241 1.363 . S
C1246 C1245 1.415 . S
C1247 H1223 0.951 . S
C1247 C1248 1.366 . S
C1247 C1249 1.388 . S
C1248 C1247 1.366 . S
C1248 C1252 1.385 . S
C1249 H1224 0.951 . S
C1249 C1247 1.388 . S
C1249 C1250 1.366 . S
C1250 C1249 1.366 . S
C1250 C1251 1.414 . S
C1250 C1253 1.499 . S
C1251 H1225 0.950 . S
C1251 C1250 1.414 . S
C1251 C1252 1.374 . S
C1252 H1226 0.950 . S
C1252 C1248 1.385 . S
C1252 C1251 1.374 . S
C1253 C1250 1.499 . S
C1253 C1254 1.373 . S
C1253 C1255 1.389 . S
C1254 H1227 0.950 . S
C1254 C1240 1.377 . S
C1254 C1253 1.373 . S
C1255 C1239 1.377 . S
C1255 C1253 1.389 . S
C1255 C1256 1.524 . S
C1256 C1255 1.524 . S
C1256 C1257 1.397 . S
C1256 C1261 1.363 . S
C1257 H1228 0.950 . S
C1257 C1256 1.397 . S
C1257 C1258 1.334 . S
C1258 H1229 0.950 . S
C1258 C1257 1.334 . S
C1258 C1259 1.287 . S
C1259 C1258 1.287 . S
C1259 C1260 1.524 . S
C1259 H1262 0.999 . S
C1260 H1230 0.950 . S
C1260 C1259 1.524 . S
C1260 C1261 1.415 . S
C1261 H1231 0.950 . S
C1261 C1256 1.363 . S
C1261 C1260 1.415 . S
H1262 C1259 0.999 . S
H1263 C1244 0.913 . S
H1264 C1282 0.951 . S
H1265 C1284 0.951 . S
H1266 C1286 0.950 . S
H1267 C1287 0.950 1_554 S
H1268 C1289 0.950 . S
H1269 C1292 0.950 . S
H1270 C1293 0.950 . S
H1271 C1295 0.950 . S
H1272 C1296 0.950 . S
H1273 C1297 0.951 . S
H1274 C1299 0.951 . S
H1275 C1301 0.950 . S
H1276 C1302 0.950 . S
H1277 C1304 0.950 . S
H1278 C1307 0.950 . S
H1279 C1308 0.950 . S
H1280 C1310 0.950 . S
H1281 C1311 0.950 . S
C1282 H1264 0.951 . S
C1282 C1283 1.366 . S
C1282 C1284 1.388 . S
C1283 C1282 1.366 . S
C1283 C1287 1.385 . S
C1284 H1265 0.951 . S
C1284 C1282 1.388 . S
C1284 C1285 1.366 1_556 S
C1285 C1284 1.366 1_554 S
C1285 C1286 1.414 . S
C1285 C1288 1.499 . S
C1286 H1266 0.950 . S
C1286 C1285 1.414 . S
C1286 C1287 1.374 1_554 S
C1287 H1267 0.950 1_556 S
C1287 C1283 1.385 . S
C1287 C1286 1.374 1_556 S
C1288 C1285 1.499 . S
C1288 C1289 1.373 . S
C1288 C1290 1.389 . S
C1289 H1268 0.950 . S
C1289 C1288 1.373 . S
C1289 C1305 1.377 . S
C1290 C1288 1.389 . S
C1290 C1291 1.524 1_554 S
C1290 C1304 1.377 . S
C1291 C1290 1.524 1_556 S
C1291 C1292 1.397 . S
C1291 C1296 1.363 . S
C1292 H1269 0.950 . S
C1292 C1291 1.397 . S
C1292 C1293 1.334 . S
C1293 H1270 0.950 . S
C1293 C1292 1.334 . S
C1293 C1294 1.287 . S
C1294 C1293 1.287 . S
C1294 C1295 1.524 . S
C1294 H1313 0.913 . S
C1295 H1271 0.950 . S
C1295 C1294 1.524 . S
C1295 C1296 1.415 . S
C1296 H1272 0.950 . S
C1296 C1291 1.363 . S
C1296 C1295 1.415 . S
C1297 H1273 0.951 . S
C1297 C1298 1.366 . S
C1297 C1299 1.388 . S
C1298 C1297 1.366 . S
C1298 C1302 1.385 . S
C1299 H1274 0.951 . S
C1299 C1297 1.388 . S
C1299 C1300 1.366 . S
C1300 C1299 1.366 . S
C1300 C1301 1.414 . S
C1300 C1303 1.499 . S
C1301 H1275 0.950 . S
C1301 C1300 1.414 . S
C1301 C1302 1.374 . S
C1302 H1276 0.950 . S
C1302 C1298 1.385 . S
C1302 C1301 1.374 . S
C1303 C1300 1.499 . S
C1303 C1304 1.373 . S
C1303 C1305 1.389 . S
C1304 H1277 0.950 . S
C1304 C1290 1.377 . S
C1304 C1303 1.373 . S
C1305 C1289 1.377 . S
C1305 C1303 1.389 . S
C1305 C1306 1.524 . S
C1306 C1305 1.524 . S
C1306 C1307 1.397 . S
C1306 C1311 1.363 . S
C1307 H1278 0.950 . S
C1307 C1306 1.397 . S
C1307 C1308 1.334 . S
C1308 H1279 0.950 . S
C1308 C1307 1.334 . S
C1308 C1309 1.287 . S
C1309 C1308 1.287 . S
C1309 C1310 1.524 . S
C1309 H1312 0.999 . S
C1310 H1280 0.950 . S
C1310 C1309 1.524 . S
C1310 C1311 1.415 . S
C1311 H1281 0.950 . S
C1311 C1306 1.363 . S
C1311 C1310 1.415 . S
H1312 C1309 0.999 . S
H1313 C1294 0.913 . S
H1314 C1332 0.951 . S
H1315 C1334 0.951 . S
H1316 C1336 0.950 . S
H1317 C1337 0.950 . S
H1318 C1339 0.950 . S
H1319 C1342 0.950 . S
H1320 C1343 0.950 . S
H1321 C1345 0.950 . S
H1322 C1346 0.950 . S
H1323 C1347 0.951 . S
H1324 C1349 0.951 . S
H1325 C1351 0.950 . S
H1326 C1352 0.950 . S
H1327 C1354 0.950 . S
H1328 C1357 0.950 . S
H1329 C1358 0.950 . S
H1330 C1360 0.950 . S
H1331 C1361 0.950 . S
C1332 H1314 0.951 . S
C1332 C1333 1.366 . S
C1332 C1334 1.388 . S
C1333 C1332 1.366 . S
C1333 C1337 1.385 . S
C1334 H1315 0.951 . S
C1334 C1332 1.388 . S
C1334 C1335 1.366 . S
C1335 C1334 1.366 . S
C1335 C1336 1.414 . S
C1335 C1338 1.499 . S
C1336 H1316 0.950 . S
C1336 C1335 1.414 . S
C1336 C1337 1.374 . S
C1337 H1317 0.950 . S
C1337 C1333 1.385 . S
C1337 C1336 1.374 . S
C1338 C1335 1.499 . S
C1338 C1339 1.373 . S
C1338 C1340 1.389 . S
C1339 H1318 0.950 . S
C1339 C1338 1.373 . S
C1339 C1355 1.377 . S
C1340 C1338 1.389 . S
C1340 C1341 1.524 . S
C1340 C1354 1.377 . S
C1341 C1340 1.524 . S
C1341 C1342 1.397 . S
C1341 C1346 1.363 . S
C1342 H1319 0.950 . S
C1342 C1341 1.397 . S
C1342 C1343 1.334 . S
C1343 H1320 0.950 . S
C1343 C1342 1.334 . S
C1343 C1344 1.287 . S
C1344 C1343 1.287 . S
C1344 C1345 1.524 . S
C1344 H1363 0.913 . S
C1345 H1321 0.950 . S
C1345 C1344 1.524 . S
C1345 C1346 1.415 . S
C1346 H1322 0.950 . S
C1346 C1341 1.363 . S
C1346 C1345 1.415 . S
C1347 H1323 0.951 . S
C1347 C1348 1.366 . S
C1347 C1349 1.388 . S
C1348 C1347 1.366 . S
C1348 C1352 1.385 . S
C1349 H1324 0.951 . S
C1349 C1347 1.388 . S
C1349 C1350 1.366 . S
C1350 C1349 1.366 . S
C1350 C1351 1.414 . S
C1350 C1353 1.499 . S
C1351 H1325 0.950 . S
C1351 C1350 1.414 . S
C1351 C1352 1.374 . S
C1352 H1326 0.950 . S
C1352 C1348 1.385 . S
C1352 C1351 1.374 . S
C1353 C1350 1.499 . S
C1353 C1354 1.373 . S
C1353 C1355 1.389 . S
C1354 H1327 0.950 . S
C1354 C1340 1.377 . S
C1354 C1353 1.373 . S
C1355 C1339 1.377 . S
C1355 C1353 1.389 . S
C1355 C1356 1.524 . S
C1356 C1355 1.524 . S
C1356 C1357 1.397 . S
C1356 C1361 1.363 . S
C1357 H1328 0.950 . S
C1357 C1356 1.397 . S
C1357 C1358 1.334 . S
C1358 H1329 0.950 . S
C1358 C1357 1.334 . S
C1358 C1359 1.287 . S
C1359 C1358 1.287 . S
C1359 C1360 1.524 . S
C1359 H1362 0.999 . S
C1360 H1330 0.950 . S
C1360 C1359 1.524 . S
C1360 C1361 1.415 . S
C1361 H1331 0.950 . S
C1361 C1356 1.363 . S
C1361 C1360 1.415 . S
H1362 C1359 0.999 . S
H1363 C1344 0.913 . S
H1364 C1382 0.951 . S
H1365 C1384 0.951 . S
H1366 C1386 0.950 . S
H1367 C1387 0.950 . S
H1368 C1389 0.950 . S
H1369 C1392 0.950 . S
H1370 C1393 0.950 . S
H1371 C1395 0.950 . S
H1372 C1396 0.950 . S
H1373 C1397 0.951 . S
H1374 C1399 0.951 . S
H1375 C1401 0.950 . S
H1376 C1402 0.950 . S
H1377 C1404 0.950 . S
H1378 C1407 0.950 . S
H1379 C1408 0.950 . S
H1380 C1410 0.950 . S
H1381 C1411 0.950 . S
C1382 H1364 0.951 . S
C1382 C1383 1.366 . S
C1382 C1384 1.388 . S
C1383 C1382 1.366 . S
C1383 C1387 1.385 . S
C1384 H1365 0.951 . S
C1384 C1382 1.388 . S
C1384 C1385 1.366 . S
C1385 C1384 1.366 . S
C1385 C1386 1.414 . S
C1385 C1388 1.499 . S
C1386 H1366 0.950 . S
C1386 C1385 1.414 . S
C1386 C1387 1.374 . S
C1387 H1367 0.950 . S
C1387 C1383 1.385 . S
C1387 C1386 1.374 . S
C1388 C1385 1.499 . S
C1388 C1389 1.373 . S
C1388 C1390 1.389 . S
C1389 H1368 0.950 . S
C1389 C1388 1.373 . S
C1389 C1405 1.377 . S
C1390 C1388 1.389 . S
C1390 C1391 1.524 . S
C1390 C1404 1.377 . S
C1391 C1390 1.524 . S
C1391 C1392 1.397 . S
C1391 C1396 1.363 . S
C1392 H1369 0.950 . S
C1392 C1391 1.397 . S
C1392 C1393 1.334 . S
C1393 H1370 0.950 . S
C1393 C1392 1.334 . S
C1393 C1394 1.287 . S
C1394 C1393 1.287 . S
C1394 C1395 1.524 . S
C1394 H1413 0.913 . S
C1395 H1371 0.950 . S
C1395 C1394 1.524 . S
C1395 C1396 1.415 . S
C1396 H1372 0.950 . S
C1396 C1391 1.363 . S
C1396 C1395 1.415 . S
C1397 H1373 0.951 . S
C1397 C1398 1.366 . S
C1397 C1399 1.388 . S
C1398 C1397 1.366 . S
C1398 C1402 1.385 . S
C1399 H1374 0.951 . S
C1399 C1397 1.388 . S
C1399 C1400 1.366 . S
C1400 C1399 1.366 . S
C1400 C1401 1.414 . S
C1400 C1403 1.499 . S
C1401 H1375 0.950 . S
C1401 C1400 1.414 . S
C1401 C1402 1.374 . S
C1402 H1376 0.950 . S
C1402 C1398 1.385 . S
C1402 C1401 1.374 . S
C1403 C1400 1.499 . S
C1403 C1404 1.373 . S
C1403 C1405 1.389 . S
C1404 H1377 0.950 . S
C1404 C1390 1.377 . S
C1404 C1403 1.373 . S
C1405 C1389 1.377 . S
C1405 C1403 1.389 . S
C1405 C1406 1.524 . S
C1406 C1405 1.524 . S
C1406 C1407 1.397 . S
C1406 C1411 1.363 . S
C1407 H1378 0.950 . S
C1407 C1406 1.397 . S
C1407 C1408 1.334 . S
C1408 H1379 0.950 . S
C1408 C1407 1.334 . S
C1408 C1409 1.287 . S
C1409 C1408 1.287 . S
C1409 C1410 1.524 . S
C1409 H1412 0.999 . S
C1410 H1380 0.950 . S
C1410 C1409 1.524 . S
C1410 C1411 1.415 . S
C1411 H1381 0.950 . S
C1411 C1406 1.363 . S
C1411 C1410 1.415 . S
H1412 C1409 0.999 . S
H1413 C1394 0.913 . S
H1414 C1432 0.951 . S
H1415 C1434 0.951 . S
H1416 C1436 0.950 . S
H1417 C1437 0.950 . S
H1418 C1439 0.950 . S
H1419 C1442 0.950 . S
H1420 C1443 0.950 . S
H1421 C1445 0.950 . S
H1422 C1446 0.950 . S
H1423 C1447 0.951 . S
H1424 C1449 0.951 . S
H1425 C1451 0.950 . S
H1426 C1452 0.950 . S
H1427 C1454 0.950 . S
H1428 C1457 0.950 . S
H1429 C1458 0.950 . S
H1430 C1460 0.950 . S
H1431 C1461 0.950 . S
C1432 H1414 0.951 . S
C1432 C1433 1.366 . S
C1432 C1434 1.388 . S
C1433 C1432 1.366 . S
C1433 C1437 1.385 . S
C1434 H1415 0.951 . S
C1434 C1432 1.388 . S
C1434 C1435 1.366 . S
C1435 C1434 1.366 . S
C1435 C1436 1.414 . S
C1435 C1438 1.499 . S
C1436 H1416 0.950 . S
C1436 C1435 1.414 . S
C1436 C1437 1.374 . S
C1437 H1417 0.950 . S
C1437 C1433 1.385 . S
C1437 C1436 1.374 . S
C1438 C1435 1.499 . S
C1438 C1439 1.373 . S
C1438 C1440 1.389 . S
C1439 H1418 0.950 . S
C1439 C1438 1.373 . S
C1439 C1455 1.377 . S
C1440 C1438 1.389 . S
C1440 C1441 1.524 . S
C1440 C1454 1.377 . S
C1441 C1440 1.524 . S
C1441 C1442 1.397 . S
C1441 C1446 1.363 . S
C1442 H1419 0.950 . S
C1442 C1441 1.397 . S
C1442 C1443 1.334 . S
C1443 H1420 0.950 . S
C1443 C1442 1.334 . S
C1443 C1444 1.287 . S
C1444 C1443 1.287 . S
C1444 C1445 1.524 . S
C1444 H1463 0.913 . S
C1445 H1421 0.950 . S
C1445 C1444 1.524 . S
C1445 C1446 1.415 . S
C1446 H1422 0.950 . S
C1446 C1441 1.363 . S
C1446 C1445 1.415 . S
C1447 H1423 0.951 . S
C1447 C1448 1.366 . S
C1447 C1449 1.388 . S
C1448 C1447 1.366 . S
C1448 C1452 1.385 . S
C1449 H1424 0.951 . S
C1449 C1447 1.388 . S
C1449 C1450 1.366 . S
C1450 C1449 1.366 . S
C1450 C1451 1.414 . S
C1450 C1453 1.499 . S
C1451 H1425 0.950 . S
C1451 C1450 1.414 . S
C1451 C1452 1.374 . S
C1452 H1426 0.950 . S
C1452 C1448 1.385 . S
C1452 C1451 1.374 . S
C1453 C1450 1.499 . S
C1453 C1454 1.373 . S
C1453 C1455 1.389 . S
C1454 H1427 0.950 . S
C1454 C1440 1.377 . S
C1454 C1453 1.373 . S
C1455 C1439 1.377 . S
C1455 C1453 1.389 . S
C1455 C1456 1.524 . S
C1456 C1455 1.524 . S
C1456 C1457 1.397 . S
C1456 C1461 1.363 . S
C1457 H1428 0.950 . S
C1457 C1456 1.397 . S
C1457 C1458 1.334 . S
C1458 H1429 0.950 . S
C1458 C1457 1.334 . S
C1458 C1459 1.287 . S
C1459 C1458 1.287 . S
C1459 C1460 1.524 . S
C1459 H1462 0.999 . S
C1460 H1430 0.950 . S
C1460 C1459 1.524 . S
C1460 C1461 1.415 . S
C1461 H1431 0.950 . S
C1461 C1456 1.363 . S
C1461 C1460 1.415 . S
H1462 C1459 0.999 . S
H1463 C1444 0.913 . S
H1464 C1482 0.951 1_556 S
H1465 C1484 0.951 1_556 S
H1466 C1486 0.950 . S
H1467 C1487 0.950 . S
H1468 C1489 0.950 . S
H1469 C1492 0.950 . S
H1470 C1493 0.950 . S
H1471 C1495 0.950 . S
H1472 C1496 0.950 . S
H1473 C1497 0.951 . S
H1474 C1499 0.951 . S
H1475 C1501 0.950 . S
H1476 C1502 0.950 . S
H1477 C1504 0.950 . S
H1478 C1507 0.950 . S
H1479 C1508 0.950 . S
H1480 C1510 0.950 . S
H1481 C1511 0.950 . S
C1482 H1464 0.951 1_554 S
C1482 C1483 1.366 . S
C1482 C1484 1.388 . S
C1483 C1482 1.366 . S
C1483 C1487 1.385 . S
C1484 H1465 0.951 1_554 S
C1484 C1482 1.388 . S
C1484 C1485 1.366 . S
C1485 C1484 1.366 . S
C1485 C1486 1.414 . S
C1485 C1488 1.499 . S
C1486 H1466 0.950 . S
C1486 C1485 1.414 . S
C1486 C1487 1.374 . S
C1487 H1467 0.950 . S
C1487 C1483 1.385 . S
C1487 C1486 1.374 . S
C1488 C1485 1.499 . S
C1488 C1489 1.373 . S
C1488 C1490 1.389 . S
C1489 H1468 0.950 . S
C1489 C1488 1.373 . S
C1489 C1505 1.377 . S
C1490 C1488 1.389 . S
C1490 C1491 1.524 1_554 S
C1490 C1504 1.377 . S
C1491 C1490 1.524 1_556 S
C1491 C1492 1.397 . S
C1491 C1496 1.363 . S
C1492 H1469 0.950 . S
C1492 C1491 1.397 . S
C1492 C1493 1.334 . S
C1493 H1470 0.950 . S
C1493 C1492 1.334 . S
C1493 C1494 1.287 . S
C1494 C1493 1.287 . S
C1494 C1495 1.524 . S
C1494 H1513 0.913 . S
C1495 H1471 0.950 . S
C1495 C1494 1.524 . S
C1495 C1496 1.415 . S
C1496 H1472 0.950 . S
C1496 C1491 1.363 . S
C1496 C1495 1.415 . S
C1497 H1473 0.951 . S
C1497 C1498 1.366 . S
C1497 C1499 1.388 . S
C1498 C1497 1.366 . S
C1498 C1502 1.385 . S
C1499 H1474 0.951 . S
C1499 C1497 1.388 . S
C1499 C1500 1.366 . S
C1500 C1499 1.366 . S
C1500 C1501 1.414 . S
C1500 C1503 1.499 . S
C1501 H1475 0.950 . S
C1501 C1500 1.414 . S
C1501 C1502 1.374 . S
C1502 H1476 0.950 . S
C1502 C1498 1.385 . S
C1502 C1501 1.374 . S
C1503 C1500 1.499 . S
C1503 C1504 1.373 . S
C1503 C1505 1.389 . S
C1504 H1477 0.950 . S
C1504 C1490 1.377 . S
C1504 C1503 1.373 . S
C1505 C1489 1.377 . S
C1505 C1503 1.389 . S
C1505 C1506 1.524 . S
C1506 C1505 1.524 . S
C1506 C1507 1.397 . S
C1506 C1511 1.363 . S
C1507 H1478 0.950 . S
C1507 C1506 1.397 . S
C1507 C1508 1.334 . S
C1508 H1479 0.950 . S
C1508 C1507 1.334 . S
C1508 C1509 1.287 . S
C1509 C1508 1.287 . S
C1509 C1510 1.524 . S
C1509 H1512 0.999 . S
C1510 H1480 0.950 . S
C1510 C1509 1.524 . S
C1510 C1511 1.415 . S
C1511 H1481 0.950 . S
C1511 C1506 1.363 . S
C1511 C1510 1.415 . S
H1512 C1509 0.999 . S
H1513 C1494 0.913 . S
H1514 C1532 0.951 . S
H1515 C1534 0.951 . S
H1516 C1536 0.950 . S
H1517 C1537 0.950 . S
H1518 C1539 0.950 . S
H1519 C1542 0.950 . S
H1520 C1543 0.950 . S
H1521 C1545 0.950 . S
H1522 C1546 0.950 . S
H1523 C1547 0.951 . S
H1524 C1549 0.951 . S
H1525 C1551 0.950 . S
H1526 C1552 0.950 . S
H1527 C1554 0.950 . S
H1528 C1557 0.950 . S
H1529 C1558 0.950 . S
H1530 C1560 0.950 . S
H1531 C1561 0.950 . S
C1532 H1514 0.951 . S
C1532 C1533 1.366 . S
C1532 C1534 1.388 . S
C1533 C1532 1.366 . S
C1533 C1537 1.385 . S
C1534 H1515 0.951 . S
C1534 C1532 1.388 . S
C1534 C1535 1.366 . S
C1535 C1534 1.366 . S
C1535 C1536 1.414 . S
C1535 C1538 1.499 . S
C1536 H1516 0.950 . S
C1536 C1535 1.414 . S
C1536 C1537 1.374 . S
C1537 H1517 0.950 . S
C1537 C1533 1.385 . S
C1537 C1536 1.374 . S
C1538 C1535 1.499 . S
C1538 C1539 1.373 . S
C1538 C1540 1.389 . S
C1539 H1518 0.950 . S
C1539 C1538 1.373 . S
C1539 C1555 1.377 . S
C1540 C1538 1.389 . S
C1540 C1541 1.524 . S
C1540 C1554 1.377 . S
C1541 C1540 1.524 . S
C1541 C1542 1.397 . S
C1541 C1546 1.363 . S
C1542 H1519 0.950 . S
C1542 C1541 1.397 . S
C1542 C1543 1.334 . S
C1543 H1520 0.950 . S
C1543 C1542 1.334 . S
C1543 C1544 1.287 . S
C1544 C1543 1.287 . S
C1544 C1545 1.524 . S
C1544 H1563 0.913 . S
C1545 H1521 0.950 . S
C1545 C1544 1.524 . S
C1545 C1546 1.415 . S
C1546 H1522 0.950 . S
C1546 C1541 1.363 . S
C1546 C1545 1.415 . S
C1547 H1523 0.951 . S
C1547 C1548 1.366 . S
C1547 C1549 1.388 . S
C1548 C1547 1.366 . S
C1548 C1552 1.385 . S
C1549 H1524 0.951 . S
C1549 C1547 1.388 . S
C1549 C1550 1.366 . S
C1550 C1549 1.366 . S
C1550 C1551 1.414 . S
C1550 C1553 1.499 . S
C1551 H1525 0.950 . S
C1551 C1550 1.414 . S
C1551 C1552 1.374 . S
C1552 H1526 0.950 . S
C1552 C1548 1.385 . S
C1552 C1551 1.374 . S
C1553 C1550 1.499 . S
C1553 C1554 1.373 . S
C1553 C1555 1.389 . S
C1554 H1527 0.950 . S
C1554 C1540 1.377 . S
C1554 C1553 1.373 . S
C1555 C1539 1.377 . S
C1555 C1553 1.389 . S
C1555 C1556 1.524 . S
C1556 C1555 1.524 . S
C1556 C1557 1.397 . S
C1556 C1561 1.363 . S
C1557 H1528 0.950 . S
C1557 C1556 1.397 . S
C1557 C1558 1.334 . S
C1558 H1529 0.950 . S
C1558 C1557 1.334 . S
C1558 C1559 1.287 . S
C1559 C1558 1.287 . S
C1559 C1560 1.524 . S
C1559 H1562 0.999 1_554 S
C1560 H1530 0.950 . S
C1560 C1559 1.524 . S
C1560 C1561 1.415 . S
C1561 H1531 0.950 . S
C1561 C1556 1.363 . S
C1561 C1560 1.415 . S
H1562 C1559 0.999 1_556 S
H1563 C1544 0.913 . S
H1564 C1582 0.951 . S
H1565 C1584 0.951 . S
H1566 C1586 0.950 . S
H1567 C1587 0.950 . S
H1568 C1589 0.950 . S
H1569 C1592 0.950 . S
H1570 C1593 0.950 . S
H1571 C1595 0.950 . S
H1572 C1596 0.950 . S
H1573 C1597 0.951 . S
H1574 C1599 0.951 . S
H1575 C1601 0.950 . S
H1576 C1602 0.950 . S
H1577 C1604 0.950 . S
H1578 C1607 0.950 . S
H1579 C1608 0.950 . S
H1580 C1610 0.950 . S
H1581 C1611 0.950 . S
C1582 H1564 0.951 . S
C1582 C1583 1.366 . S
C1582 C1584 1.388 . S
C1583 C1582 1.366 . S
C1583 C1587 1.385 . S
C1584 H1565 0.951 . S
C1584 C1582 1.388 . S
C1584 C1585 1.366 . S
C1585 C1584 1.366 . S
C1585 C1586 1.414 . S
C1585 C1588 1.499 . S
C1586 H1566 0.950 . S
C1586 C1585 1.414 . S
C1586 C1587 1.374 . S
C1587 H1567 0.950 . S
C1587 C1583 1.385 . S
C1587 C1586 1.374 . S
C1588 C1585 1.499 . S
C1588 C1589 1.373 . S
C1588 C1590 1.389 . S
C1589 H1568 0.950 . S
C1589 C1588 1.373 . S
C1589 C1605 1.377 . S
C1590 C1588 1.389 . S
C1590 C1591 1.524 . S
C1590 C1604 1.377 . S
C1591 C1590 1.524 . S
C1591 C1592 1.397 . S
C1591 C1596 1.363 . S
C1592 H1569 0.950 . S
C1592 C1591 1.397 . S
C1592 C1593 1.334 . S
C1593 H1570 0.950 . S
C1593 C1592 1.334 . S
C1593 C1594 1.287 . S
C1594 C1593 1.287 . S
C1594 C1595 1.524 . S
C1594 H1613 0.913 . S
C1595 H1571 0.950 . S
C1595 C1594 1.524 . S
C1595 C1596 1.415 . S
C1596 H1572 0.950 . S
C1596 C1591 1.363 . S
C1596 C1595 1.415 . S
C1597 H1573 0.951 . S
C1597 C1598 1.366 . S
C1597 C1599 1.388 . S
C1598 C1597 1.366 . S
C1598 C1602 1.385 . S
C1599 H1574 0.951 . S
C1599 C1597 1.388 . S
C1599 C1600 1.366 . S
C1600 C1599 1.366 . S
C1600 C1601 1.414 . S
C1600 C1603 1.499 . S
C1601 H1575 0.950 . S
C1601 C1600 1.414 . S
C1601 C1602 1.374 . S
C1602 H1576 0.950 . S
C1602 C1598 1.385 . S
C1602 C1601 1.374 . S
C1603 C1600 1.499 . S
C1603 C1604 1.373 . S
C1603 C1605 1.389 . S
C1604 H1577 0.950 . S
C1604 C1590 1.377 . S
C1604 C1603 1.373 . S
C1605 C1589 1.377 . S
C1605 C1603 1.389 . S
C1605 C1606 1.524 . S
C1606 C1605 1.524 . S
C1606 C1607 1.397 . S
C1606 C1611 1.363 . S
C1607 H1578 0.950 . S
C1607 C1606 1.397 . S
C1607 C1608 1.334 . S
C1608 H1579 0.950 . S
C1608 C1607 1.334 . S
C1608 C1609 1.287 . S
C1609 C1608 1.287 . S
C1609 C1610 1.524 . S
C1609 H1612 0.999 . S
C1610 H1580 0.950 . S
C1610 C1609 1.524 . S
C1610 C1611 1.415 . S
C1611 H1581 0.950 . S
C1611 C1606 1.363 . S
C1611 C1610 1.415 . S
H1612 C1609 0.999 . S
H1613 C1594 0.913 . S
H1614 C1632 0.951 . S
H1615 C1634 0.951 . S
H1616 C1636 0.950 . S
H1617 C1637 0.950 . S
H1618 C1639 0.950 . S
H1619 C1642 0.950 . S
H1620 C1643 0.950 . S
H1621 C1645 0.950 . S
H1622 C1646 0.950 . S
H1623 C1647 0.951 . S
H1624 C1649 0.951 . S
H1625 C1651 0.950 . S
H1626 C1652 0.950 . S
H1627 C1654 0.950 . S
H1628 C1657 0.950 . S
H1629 C1658 0.950 . S
H1630 C1660 0.950 . S
H1631 C1661 0.950 . S
C1632 H1614 0.951 . S
C1632 C1633 1.366 . S
C1632 C1634 1.388 . S
C1633 C1632 1.366 . S
C1633 C1637 1.385 . S
C1634 H1615 0.951 . S
C1634 C1632 1.388 . S
C1634 C1635 1.366 . S
C1635 C1634 1.366 . S
C1635 C1636 1.414 . S
C1635 C1638 1.499 . S
C1636 H1616 0.950 . S
C1636 C1635 1.414 . S
C1636 C1637 1.374 . S
C1637 H1617 0.950 . S
C1637 C1633 1.385 . S
C1637 C1636 1.374 . S
C1638 C1635 1.499 . S
C1638 C1639 1.373 . S
C1638 C1640 1.389 . S
C1639 H1618 0.950 . S
C1639 C1638 1.373 . S
C1639 C1655 1.377 . S
C1640 C1638 1.389 . S
C1640 C1641 1.524 . S
C1640 C1654 1.377 . S
C1641 C1640 1.524 . S
C1641 C1642 1.397 . S
C1641 C1646 1.363 . S
C1642 H1619 0.950 . S
C1642 C1641 1.397 . S
C1642 C1643 1.334 . S
C1643 H1620 0.950 . S
C1643 C1642 1.334 . S
C1643 C1644 1.287 . S
C1644 C1643 1.287 . S
C1644 C1645 1.524 . S
C1644 H1663 0.913 . S
C1645 H1621 0.950 . S
C1645 C1644 1.524 . S
C1645 C1646 1.415 . S
C1646 H1622 0.950 . S
C1646 C1641 1.363 . S
C1646 C1645 1.415 . S
C1647 H1623 0.951 . S
C1647 C1648 1.366 . S
C1647 C1649 1.388 . S
C1648 C1647 1.366 . S
C1648 C1652 1.385 . S
C1649 H1624 0.951 . S
C1649 C1647 1.388 . S
C1649 C1650 1.366 . S
C1650 C1649 1.366 . S
C1650 C1651 1.414 . S
C1650 C1653 1.499 . S
C1651 H1625 0.950 . S
C1651 C1650 1.414 . S
C1651 C1652 1.374 . S
C1652 H1626 0.950 . S
C1652 C1648 1.385 . S
C1652 C1651 1.374 . S
C1653 C1650 1.499 . S
C1653 C1654 1.373 . S
C1653 C1655 1.389 . S
C1654 H1627 0.950 . S
C1654 C1640 1.377 . S
C1654 C1653 1.373 . S
C1655 C1639 1.377 . S
C1655 C1653 1.389 . S
C1655 C1656 1.524 . S
C1656 C1655 1.524 . S
C1656 C1657 1.397 . S
C1656 C1661 1.363 . S
C1657 H1628 0.950 . S
C1657 C1656 1.397 . S
C1657 C1658 1.334 . S
C1658 H1629 0.950 . S
C1658 C1657 1.334 . S
C1658 C1659 1.287 . S
C1659 C1658 1.287 . S
C1659 C1660 1.524 . S
C1659 H1662 0.999 . S
C1660 H1630 0.950 . S
C1660 C1659 1.524 . S
C1660 C1661 1.415 . S
C1661 H1631 0.950 . S
C1661 C1656 1.363 . S
C1661 C1660 1.415 . S
H1662 C1659 0.999 . S
H1663 C1644 0.913 . S
H1664 C1682 0.951 . S
H1665 C1684 0.951 . S
H1666 C1686 0.950 . S
H1667 C1687 0.950 . S
H1668 C1689 0.950 . S
H1669 C1692 0.950 . S
H1670 C1693 0.950 . S
H1671 C1695 0.950 . S
H1672 C1696 0.950 . S
H1673 C1697 0.951 . S
H1674 C1699 0.951 . S
H1675 C1701 0.950 . S
H1676 C1702 0.950 . S
H1677 C1704 0.950 . S
H1678 C1707 0.950 . S
H1679 C1708 0.950 . S
H1680 C1710 0.950 . S
H1681 C1711 0.950 . S
C1682 H1664 0.951 . S
C1682 C1683 1.366 . S
C1682 C1684 1.388 . S
C1683 C1682 1.366 . S
C1683 C1687 1.385 . S
C1684 H1665 0.951 . S
C1684 C1682 1.388 . S
C1684 C1685 1.366 . S
C1685 C1684 1.366 . S
C1685 C1686 1.414 . S
C1685 C1688 1.499 . S
C1686 H1666 0.950 . S
C1686 C1685 1.414 . S
C1686 C1687 1.374 . S
C1687 H1667 0.950 . S
C1687 C1683 1.385 . S
C1687 C1686 1.374 . S
C1688 C1685 1.499 . S
C1688 C1689 1.373 . S
C1688 C1690 1.389 . S
C1689 H1668 0.950 . S
C1689 C1688 1.373 . S
C1689 C1705 1.377 . S
C1690 C1688 1.389 . S
C1690 C1691 1.524 . S
C1690 C1704 1.377 . S
C1691 C1690 1.524 . S
C1691 C1692 1.397 . S
C1691 C1696 1.363 . S
C1692 H1669 0.950 . S
C1692 C1691 1.397 . S
C1692 C1693 1.334 . S
C1693 H1670 0.950 . S
C1693 C1692 1.334 . S
C1693 C1694 1.287 . S
C1694 C1693 1.287 . S
C1694 C1695 1.524 . S
C1694 H1713 0.913 . S
C1695 H1671 0.950 . S
C1695 C1694 1.524 . S
C1695 C1696 1.415 . S
C1696 H1672 0.950 . S
C1696 C1691 1.363 . S
C1696 C1695 1.415 . S
C1697 H1673 0.951 . S
C1697 C1698 1.366 . S
C1697 C1699 1.388 . S
C1698 C1697 1.366 . S
C1698 C1702 1.385 . S
C1699 H1674 0.951 . S
C1699 C1697 1.388 . S
C1699 C1700 1.366 . S
C1700 C1699 1.366 . S
C1700 C1701 1.414 . S
C1700 C1703 1.499 . S
C1701 H1675 0.950 . S
C1701 C1700 1.414 . S
C1701 C1702 1.374 . S
C1702 H1676 0.950 . S
C1702 C1698 1.385 . S
C1702 C1701 1.374 . S
C1703 C1700 1.499 . S
C1703 C1704 1.373 . S
C1703 C1705 1.389 . S
C1704 H1677 0.950 . S
C1704 C1690 1.377 . S
C1704 C1703 1.373 . S
C1705 C1689 1.377 . S
C1705 C1703 1.389 . S
C1705 C1706 1.524 . S
C1706 C1705 1.524 . S
C1706 C1707 1.397 . S
C1706 C1711 1.363 . S
C1707 H1678 0.950 . S
C1707 C1706 1.397 . S
C1707 C1708 1.334 . S
C1708 H1679 0.950 . S
C1708 C1707 1.334 . S
C1708 C1709 1.287 . S
C1709 C1708 1.287 . S
C1709 C1710 1.524 . S
C1709 H1712 0.999 . S
C1710 H1680 0.950 . S
C1710 C1709 1.524 . S
C1710 C1711 1.415 . S
C1711 H1681 0.950 . S
C1711 C1706 1.363 . S
C1711 C1710 1.415 . S
H1712 C1709 0.999 . S
H1713 C1694 0.913 . S
H1714 C1732 0.951 . S
H1715 C1734 0.951 . S
H1716 C1736 0.950 . S
H1717 C1737 0.950 . S
H1718 C1739 0.950 . S
H1719 C1742 0.950 . S
H1720 C1743 0.950 . S
H1721 C1745 0.950 . S
H1722 C1746 0.950 . S
H1723 C1747 0.951 1_554 S
H1724 C1749 0.951 1_554 S
H1725 C1751 0.950 . S
H1726 C1752 0.950 . S
H1727 C1754 0.950 . S
H1728 C1757 0.950 . S
H1729 C1758 0.950 . S
H1730 C1760 0.950 . S
H1731 C1761 0.950 . S
C1732 H1714 0.951 . S
C1732 C1733 1.366 . S
C1732 C1734 1.388 . S
C1733 C1732 1.366 . S
C1733 C1737 1.385 . S
C1734 H1715 0.951 . S
C1734 C1732 1.388 . S
C1734 C1735 1.366 . S
C1735 C1734 1.366 . S
C1735 C1736 1.414 . S
C1735 C1738 1.499 . S
C1736 H1716 0.950 . S
C1736 C1735 1.414 . S
C1736 C1737 1.374 . S
C1737 H1717 0.950 . S
C1737 C1733 1.385 . S
C1737 C1736 1.374 . S
C1738 C1735 1.499 . S
C1738 C1739 1.373 . S
C1738 C1740 1.389 . S
C1739 H1718 0.950 . S
C1739 C1738 1.373 . S
C1739 C1755 1.377 . S
C1740 C1738 1.389 . S
C1740 C1741 1.524 . S
C1740 C1754 1.377 . S
C1741 C1740 1.524 . S
C1741 C1742 1.397 1_556 S
C1741 C1746 1.363 . S
C1742 H1719 0.950 . S
C1742 C1741 1.397 1_554 S
C1742 C1743 1.334 . S
C1743 H1720 0.950 . S
C1743 C1742 1.334 . S
C1743 C1744 1.287 . S
C1744 C1743 1.287 . S
C1744 C1745 1.524 1_554 S
C1744 H1763 0.913 . S
C1745 H1721 0.950 . S
C1745 C1744 1.524 1_556 S
C1745 C1746 1.415 . S
C1746 H1722 0.950 . S
C1746 C1741 1.363 . S
C1746 C1745 1.415 . S
C1747 H1723 0.951 1_556 S
C1747 C1748 1.366 . S
C1747 C1749 1.388 . S
C1748 C1747 1.366 . S
C1748 C1752 1.385 . S
C1749 H1724 0.951 1_556 S
C1749 C1747 1.388 . S
C1749 C1750 1.366 . S
C1750 C1749 1.366 . S
C1750 C1751 1.414 . S
C1750 C1753 1.499 . S
C1751 H1725 0.950 . S
C1751 C1750 1.414 . S
C1751 C1752 1.374 . S
C1752 H1726 0.950 . S
C1752 C1748 1.385 . S
C1752 C1751 1.374 . S
C1753 C1750 1.499 . S
C1753 C1754 1.373 . S
C1753 C1755 1.389 . S
C1754 H1727 0.950 . S
C1754 C1740 1.377 . S
C1754 C1753 1.373 . S
C1755 C1739 1.377 . S
C1755 C1753 1.389 . S
C1755 C1756 1.524 . S
C1756 C1755 1.524 . S
C1756 C1757 1.397 . S
C1756 C1761 1.363 . S
C1757 H1728 0.950 . S
C1757 C1756 1.397 . S
C1757 C1758 1.334 . S
C1758 H1729 0.950 . S
C1758 C1757 1.334 . S
C1758 C1759 1.287 . S
C1759 C1758 1.287 . S
C1759 C1760 1.524 . S
C1759 H1762 0.999 . S
C1760 H1730 0.950 . S
C1760 C1759 1.524 . S
C1760 C1761 1.415 . S
C1761 H1731 0.950 . S
C1761 C1756 1.363 . S
C1761 C1760 1.415 . S
H1762 C1759 0.999 . S
H1763 C1744 0.913 . S
H1764 C1782 0.951 . S
H1765 C1784 0.951 . S
H1766 C1786 0.950 . S
H1767 C1787 0.950 . S
H1768 C1789 0.950 . S
H1769 C1792 0.950 . S
H1770 C1793 0.950 . S
H1771 C1795 0.950 1_556 S
H1772 C1796 0.950 . S
H1773 C1797 0.951 . S
H1774 C1799 0.951 . S
H1775 C1801 0.950 . S
H1776 C1802 0.950 . S
H1777 C1804 0.950 . S
H1778 C1807 0.950 . S
H1779 C1808 0.950 . S
H1780 C1810 0.950 . S
H1781 C1811 0.950 . S
C1782 H1764 0.951 . S
C1782 C1783 1.366 . S
C1782 C1784 1.388 . S
C1783 C1782 1.366 . S
C1783 C1787 1.385 . S
C1784 H1765 0.951 . S
C1784 C1782 1.388 . S
C1784 C1785 1.366 . S
C1785 C1784 1.366 . S
C1785 C1786 1.414 . S
C1785 C1788 1.499 . S
C1786 H1766 0.950 . S
C1786 C1785 1.414 . S
C1786 C1787 1.374 . S
C1787 H1767 0.950 . S
C1787 C1783 1.385 . S
C1787 C1786 1.374 . S
C1788 C1785 1.499 . S
C1788 C1789 1.373 . S
C1788 C1790 1.389 . S
C1789 H1768 0.950 . S
C1789 C1788 1.373 . S
C1789 C1805 1.377 . S
C1790 C1788 1.389 . S
C1790 C1791 1.524 . S
C1790 C1804 1.377 . S
C1791 C1790 1.524 . S
C1791 C1792 1.397 . S
C1791 C1796 1.363 . S
C1792 H1769 0.950 . S
C1792 C1791 1.397 . S
C1792 C1793 1.334 . S
C1793 H1770 0.950 . S
C1793 C1792 1.334 . S
C1793 C1794 1.287 . S
C1794 C1793 1.287 . S
C1794 C1795 1.524 . S
C1794 H1813 0.913 1_554 S
C1795 H1771 0.950 1_554 S
C1795 C1794 1.524 . S
C1795 C1796 1.415 . S
C1796 H1772 0.950 . S
C1796 C1791 1.363 . S
C1796 C1795 1.415 . S
C1797 H1773 0.951 . S
C1797 C1798 1.366 . S
C1797 C1799 1.388 . S
C1798 C1797 1.366 . S
C1798 C1802 1.385 . S
C1799 H1774 0.951 . S
C1799 C1797 1.388 . S
C1799 C1800 1.366 . S
C1800 C1799 1.366 . S
C1800 C1801 1.414 . S
C1800 C1803 1.499 . S
C1801 H1775 0.950 . S
C1801 C1800 1.414 . S
C1801 C1802 1.374 . S
C1802 H1776 0.950 . S
C1802 C1798 1.385 . S
C1802 C1801 1.374 . S
C1803 C1800 1.499 . S
C1803 C1804 1.373 . S
C1803 C1805 1.389 . S
C1804 H1777 0.950 . S
C1804 C1790 1.377 . S
C1804 C1803 1.373 . S
C1805 C1789 1.377 . S
C1805 C1803 1.389 . S
C1805 C1806 1.524 . S
C1806 C1805 1.524 . S
C1806 C1807 1.397 . S
C1806 C1811 1.363 . S
C1807 H1778 0.950 . S
C1807 C1806 1.397 . S
C1807 C1808 1.334 . S
C1808 H1779 0.950 . S
C1808 C1807 1.334 . S
C1808 C1809 1.287 . S
C1809 C1808 1.287 . S
C1809 C1810 1.524 . S
C1809 H1812 0.999 . S
C1810 H1780 0.950 . S
C1810 C1809 1.524 . S
C1810 C1811 1.415 . S
C1811 H1781 0.950 . S
C1811 C1806 1.363 . S
C1811 C1810 1.415 . S
H1812 C1809 0.999 . S
H1813 C1794 0.913 1_556 S
H1814 C1832 0.951 . S
H1815 C1834 0.951 . S
H1816 C1836 0.950 . S
H1817 C1837 0.950 . S
H1818 C1839 0.950 . S
H1819 C1842 0.950 . S
H1820 C1843 0.950 . S
H1821 C1845 0.950 . S
H1822 C1846 0.950 . S
H1823 C1847 0.951 . S
H1824 C1849 0.951 . S
H1825 C1851 0.950 . S
H1826 C1852 0.950 . S
H1827 C1854 0.950 . S
H1828 C1857 0.950 . S
H1829 C1858 0.950 . S
H1830 C1860 0.950 . S
H1831 C1861 0.950 . S
C1832 H1814 0.951 . S
C1832 C1833 1.366 . S
C1832 C1834 1.388 . S
C1833 C1832 1.366 . S
C1833 C1837 1.385 . S
C1834 H1815 0.951 . S
C1834 C1832 1.388 . S
C1834 C1835 1.366 . S
C1835 C1834 1.366 . S
C1835 C1836 1.414 . S
C1835 C1838 1.499 . S
C1836 H1816 0.950 . S
C1836 C1835 1.414 . S
C1836 C1837 1.374 . S
C1837 H1817 0.950 . S
C1837 C1833 1.385 . S
C1837 C1836 1.374 . S
C1838 C1835 1.499 . S
C1838 C1839 1.373 . S
C1838 C1840 1.389 . S
C1839 H1818 0.950 . S
C1839 C1838 1.373 . S
C1839 C1855 1.377 . S
C1840 C1838 1.389 . S
C1840 C1841 1.524 . S
C1840 C1854 1.377 . S
C1841 C1840 1.524 . S
C1841 C1842 1.397 . S
C1841 C1846 1.363 . S
C1842 H1819 0.950 . S
C1842 C1841 1.397 . S
C1842 C1843 1.334 . S
C1843 H1820 0.950 . S
C1843 C1842 1.334 . S
C1843 C1844 1.287 . S
C1844 C1843 1.287 . S
C1844 C1845 1.524 . S
C1844 H1863 0.913 . S
C1845 H1821 0.950 . S
C1845 C1844 1.524 . S
C1845 C1846 1.415 . S
C1846 H1822 0.950 . S
C1846 C1841 1.363 . S
C1846 C1845 1.415 . S
C1847 H1823 0.951 . S
C1847 C1848 1.366 . S
C1847 C1849 1.388 . S
C1848 C1847 1.366 . S
C1848 C1852 1.385 . S
C1849 H1824 0.951 . S
C1849 C1847 1.388 . S
C1849 C1850 1.366 . S
C1850 C1849 1.366 . S
C1850 C1851 1.414 . S
C1850 C1853 1.499 . S
C1851 H1825 0.950 . S
C1851 C1850 1.414 . S
C1851 C1852 1.374 . S
C1852 H1826 0.950 . S
C1852 C1848 1.385 . S
C1852 C1851 1.374 . S
C1853 C1850 1.499 . S
C1853 C1854 1.373 . S
C1853 C1855 1.389 . S
C1854 H1827 0.950 . S
C1854 C1840 1.377 . S
C1854 C1853 1.373 . S
C1855 C1839 1.377 . S
C1855 C1853 1.389 . S
C1855 C1856 1.524 . S
C1856 C1855 1.524 . S
C1856 C1857 1.397 . S
C1856 C1861 1.363 . S
C1857 H1828 0.950 . S
C1857 C1856 1.397 . S
C1857 C1858 1.334 . S
C1858 H1829 0.950 . S
C1858 C1857 1.334 . S
C1858 C1859 1.287 . S
C1859 C1858 1.287 . S
C1859 C1860 1.524 . S
C1859 H1862 0.999 . S
C1860 H1830 0.950 . S
C1860 C1859 1.524 . S
C1860 C1861 1.415 . S
C1861 H1831 0.950 . S
C1861 C1856 1.363 . S
C1861 C1860 1.415 . S
H1862 C1859 0.999 . S
H1863 C1844 0.913 . S
H1864 C1882 0.951 . S
H1865 C1884 0.951 . S
H1866 C1886 0.950 . S
H1867 C1887 0.950 . S
H1868 C1889 0.950 . S
H1869 C1892 0.950 . S
H1870 C1893 0.950 . S
H1871 C1895 0.950 . S
H1872 C1896 0.950 . S
H1873 C1897 0.951 . S
H1874 C1899 0.951 . S
H1875 C1901 0.950 . S
H1876 C1902 0.950 . S
H1877 C1904 0.950 . S
H1878 C1907 0.950 . S
H1879 C1908 0.950 . S
H1880 C1910 0.950 . S
H1881 C1911 0.950 . S
C1882 H1864 0.951 . S
C1882 C1883 1.366 . S
C1882 C1884 1.388 . S
C1883 C1882 1.366 . S
C1883 C1887 1.385 . S
C1884 H1865 0.951 . S
C1884 C1882 1.388 . S
C1884 C1885 1.366 . S
C1885 C1884 1.366 . S
C1885 C1886 1.414 . S
C1885 C1888 1.499 . S
C1886 H1866 0.950 . S
C1886 C1885 1.414 . S
C1886 C1887 1.374 . S
C1887 H1867 0.950 . S
C1887 C1883 1.385 . S
C1887 C1886 1.374 . S
C1888 C1885 1.499 . S
C1888 C1889 1.373 . S
C1888 C1890 1.389 . S
C1889 H1868 0.950 . S
C1889 C1888 1.373 . S
C1889 C1905 1.377 . S
C1890 C1888 1.389 . S
C1890 C1891 1.524 . S
C1890 C1904 1.377 . S
C1891 C1890 1.524 . S
C1891 C1892 1.397 . S
C1891 C1896 1.363 . S
C1892 H1869 0.950 . S
C1892 C1891 1.397 . S
C1892 C1893 1.334 . S
C1893 H1870 0.950 . S
C1893 C1892 1.334 . S
C1893 C1894 1.287 . S
C1894 C1893 1.287 . S
C1894 C1895 1.524 . S
C1894 H1913 0.913 . S
C1895 H1871 0.950 . S
C1895 C1894 1.524 . S
C1895 C1896 1.415 . S
C1896 H1872 0.950 . S
C1896 C1891 1.363 . S
C1896 C1895 1.415 . S
C1897 H1873 0.951 . S
C1897 C1898 1.366 . S
C1897 C1899 1.388 . S
C1898 C1897 1.366 . S
C1898 C1902 1.385 . S
C1899 H1874 0.951 . S
C1899 C1897 1.388 . S
C1899 C1900 1.366 . S
C1900 C1899 1.366 . S
C1900 C1901 1.414 . S
C1900 C1903 1.499 . S
C1901 H1875 0.950 . S
C1901 C1900 1.414 . S
C1901 C1902 1.374 . S
C1902 H1876 0.950 . S
C1902 C1898 1.385 . S
C1902 C1901 1.374 . S
C1903 C1900 1.499 . S
C1903 C1904 1.373 . S
C1903 C1905 1.389 . S
C1904 H1877 0.950 . S
C1904 C1890 1.377 . S
C1904 C1903 1.373 . S
C1905 C1889 1.377 . S
C1905 C1903 1.389 . S
C1905 C1906 1.524 . S
C1906 C1905 1.524 . S
C1906 C1907 1.397 . S
C1906 C1911 1.363 . S
C1907 H1878 0.950 . S
C1907 C1906 1.397 . S
C1907 C1908 1.334 . S
C1908 H1879 0.950 . S
C1908 C1907 1.334 . S
C1908 C1909 1.287 . S
C1909 C1908 1.287 . S
C1909 C1910 1.524 . S
C1909 H1912 0.999 . S
C1910 H1880 0.950 . S
C1910 C1909 1.524 . S
C1910 C1911 1.415 . S
C1911 H1881 0.950 . S
C1911 C1906 1.363 . S
C1911 C1910 1.415 . S
H1912 C1909 0.999 . S
H1913 C1894 0.913 . S
H1914 C1932 0.951 . S
H1915 C1934 0.951 . S
H1916 C1936 0.950 . S
H1917 C1937 0.950 . S
H1918 C1939 0.950 . S
H1919 C1942 0.950 . S
H1920 C1943 0.950 . S
H1921 C1945 0.950 . S
H1922 C1946 0.950 . S
H1923 C1947 0.951 . S
H1924 C1949 0.951 . S
H1925 C1951 0.950 . S
H1926 C1952 0.950 . S
H1927 C1954 0.950 . S
H1928 C1957 0.950 . S
H1929 C1958 0.950 . S
H1930 C1960 0.950 . S
H1931 C1961 0.950 . S
C1932 H1914 0.951 . S
C1932 C1933 1.366 . S
C1932 C1934 1.388 . S
C1933 C1932 1.366 . S
C1933 C1937 1.385 . S
C1934 H1915 0.951 . S
C1934 C1932 1.388 . S
C1934 C1935 1.366 . S
C1935 C1934 1.366 . S
C1935 C1936 1.414 . S
C1935 C1938 1.499 . S
C1936 H1916 0.950 . S
C1936 C1935 1.414 . S
C1936 C1937 1.374 . S
C1937 H1917 0.950 . S
C1937 C1933 1.385 . S
C1937 C1936 1.374 . S
C1938 C1935 1.499 . S
C1938 C1939 1.373 . S
C1938 C1940 1.389 . S
C1939 H1918 0.950 . S
C1939 C1938 1.373 . S
C1939 C1955 1.377 . S
C1940 C1938 1.389 . S
C1940 C1941 1.524 . S
C1940 C1954 1.377 . S
C1941 C1940 1.524 . S
C1941 C1942 1.397 . S
C1941 C1946 1.363 . S
C1942 H1919 0.950 . S
C1942 C1941 1.397 . S
C1942 C1943 1.334 . S
C1943 H1920 0.950 . S
C1943 C1942 1.334 . S
C1943 C1944 1.287 . S
C1944 C1943 1.287 . S
C1944 C1945 1.524 . S
C1944 H1963 0.913 . S
C1945 H1921 0.950 . S
C1945 C1944 1.524 . S
C1945 C1946 1.415 . S
C1946 H1922 0.950 . S
C1946 C1941 1.363 . S
C1946 C1945 1.415 . S
C1947 H1923 0.951 . S
C1947 C1948 1.366 . S
C1947 C1949 1.388 . S
C1948 C1947 1.366 . S
C1948 C1952 1.385 . S
C1949 H1924 0.951 . S
C1949 C1947 1.388 . S
C1949 C1950 1.366 . S
C1950 C1949 1.366 . S
C1950 C1951 1.414 . S
C1950 C1953 1.499 . S
C1951 H1925 0.950 . S
C1951 C1950 1.414 . S
C1951 C1952 1.374 . S
C1952 H1926 0.950 . S
C1952 C1948 1.385 . S
C1952 C1951 1.374 . S
C1953 C1950 1.499 . S
C1953 C1954 1.373 . S
C1953 C1955 1.389 . S
C1954 H1927 0.950 . S
C1954 C1940 1.377 . S
C1954 C1953 1.373 . S
C1955 C1939 1.377 . S
C1955 C1953 1.389 . S
C1955 C1956 1.524 . S
C1956 C1955 1.524 . S
C1956 C1957 1.397 . S
C1956 C1961 1.363 . S
C1957 H1928 0.950 . S
C1957 C1956 1.397 . S
C1957 C1958 1.334 . S
C1958 H1929 0.950 . S
C1958 C1957 1.334 . S
C1958 C1959 1.287 . S
C1959 C1958 1.287 . S
C1959 C1960 1.524 . S
C1959 H1962 0.999 . S
C1960 H1930 0.950 . S
C1960 C1959 1.524 . S
C1960 C1961 1.415 . S
C1961 H1931 0.950 . S
C1961 C1956 1.363 . S
C1961 C1960 1.415 . S
H1962 C1959 0.999 . S
H1963 C1944 0.913 . S
H1964 C1982 0.951 . S
H1965 C1984 0.951 . S
H1966 C1986 0.950 . S
H1967 C1987 0.950 . S
H1968 C1989 0.950 . S
H1969 C1992 0.950 . S
H1970 C1993 0.950 . S
H1971 C1995 0.950 . S
H1972 C1996 0.950 . S
H1973 C1997 0.951 . S
H1974 C1999 0.951 . S
H1975 C2001 0.950 . S
H1976 C2002 0.950 . S
H1977 C2004 0.950 . S
H1978 C2007 0.950 . S
H1979 C2008 0.950 . S
H1980 C2010 0.950 . S
H1981 C2011 0.950 . S
C1982 H1964 0.951 . S
C1982 C1983 1.366 . S
C1982 C1984 1.388 . S
C1983 C1982 1.366 . S
C1983 C1987 1.385 . S
C1984 H1965 0.951 . S
C1984 C1982 1.388 . S
C1984 C1985 1.366 . S
C1985 C1984 1.366 . S
C1985 C1986 1.414 . S
C1985 C1988 1.499 . S
C1986 H1966 0.950 . S
C1986 C1985 1.414 . S
C1986 C1987 1.374 . S
C1987 H1967 0.950 . S
C1987 C1983 1.385 . S
C1987 C1986 1.374 . S
C1988 C1985 1.499 . S
C1988 C1989 1.373 . S
C1988 C1990 1.389 . S
C1989 H1968 0.950 . S
C1989 C1988 1.373 . S
C1989 C2005 1.377 . S
C1990 C1988 1.389 . S
C1990 C1991 1.524 . S
C1990 C2004 1.377 . S
C1991 C1990 1.524 . S
C1991 C1992 1.397 . S
C1991 C1996 1.363 . S
C1992 H1969 0.950 . S
C1992 C1991 1.397 . S
C1992 C1993 1.334 . S
C1993 H1970 0.950 . S
C1993 C1992 1.334 . S
C1993 C1994 1.287 . S
C1994 C1993 1.287 . S
C1994 C1995 1.524 . S
C1994 H2013 0.913 . S
C1995 H1971 0.950 . S
C1995 C1994 1.524 . S
C1995 C1996 1.415 . S
C1996 H1972 0.950 . S
C1996 C1991 1.363 . S
C1996 C1995 1.415 . S
C1997 H1973 0.951 . S
C1997 C1998 1.366 . S
C1997 C1999 1.388 1_554 S
C1998 C1997 1.366 . S
C1998 C2002 1.385 . S
C1999 H1974 0.951 . S
C1999 C1997 1.388 1_556 S
C1999 C2000 1.366 . S
C2000 C1999 1.366 . S
C2000 C2001 1.414 1_556 S
C2000 C2003 1.499 . S
C2001 H1975 0.950 . S
C2001 C2000 1.414 1_554 S
C2001 C2002 1.374 . S
C2002 H1976 0.950 . S
C2002 C1998 1.385 . S
C2002 C2001 1.374 . S
C2003 C2000 1.499 . S
C2003 C2004 1.373 . S
C2003 C2005 1.389 . S
C2004 H1977 0.950 . S
C2004 C1990 1.377 . S
C2004 C2003 1.373 . S
C2005 C1989 1.377 . S
C2005 C2003 1.389 . S
C2005 C2006 1.524 1_556 S
C2006 C2005 1.524 1_554 S
C2006 C2007 1.397 . S
C2006 C2011 1.363 1_554 S
C2007 H1978 0.950 . S
C2007 C2006 1.397 . S
C2007 C2008 1.334 . S
C2008 H1979 0.950 . S
C2008 C2007 1.334 . S
C2008 C2009 1.287 . S
C2009 C2008 1.287 . S
C2009 C2010 1.524 . S
C2009 H2012 0.999 . S
C2010 H1980 0.950 . S
C2010 C2009 1.524 . S
C2010 C2011 1.415 1_554 S
C2011 H1981 0.950 . S
C2011 C2006 1.363 1_556 S
C2011 C2010 1.415 1_556 S
H2012 C2009 0.999 . S
H2013 C1994 0.913 . S
H2014 C2032 0.951 . S
H2015 C2034 0.951 . S
H2016 C2036 0.950 . S
H2017 C2037 0.950 . S
H2018 C2039 0.950 . S
H2019 C2042 0.950 . S
H2020 C2043 0.950 . S
H2021 C2045 0.950 . S
H2022 C2046 0.950 . S
H2023 C2047 0.951 . S
H2024 C2049 0.951 . S
H2025 C2051 0.950 . S
H2026 C2052 0.950 . S
H2027 C2054 0.950 . S
H2028 C2057 0.950 . S
H2029 C2058 0.950 . S
H2030 C2060 0.950 . S
H2031 C2061 0.950 . S
C2032 H2014 0.951 . S
C2032 C2033 1.366 . S
C2032 C2034 1.388 . S
C2033 C2032 1.366 . S
C2033 C2037 1.385 . S
C2034 H2015 0.951 . S
C2034 C2032 1.388 . S
C2034 C2035 1.366 . S
C2035 C2034 1.366 . S
C2035 C2036 1.414 . S
C2035 C2038 1.499 . S
C2036 H2016 0.950 . S
C2036 C2035 1.414 . S
C2036 C2037 1.374 . S
C2037 H2017 0.950 . S
C2037 C2033 1.385 . S
C2037 C2036 1.374 . S
C2038 C2035 1.499 . S
C2038 C2039 1.373 . S
C2038 C2040 1.389 . S
C2039 H2018 0.950 . S
C2039 C2038 1.373 . S
C2039 C2055 1.377 . S
C2040 C2038 1.389 . S
C2040 C2041 1.524 . S
C2040 C2054 1.377 . S
C2041 C2040 1.524 . S
C2041 C2042 1.397 . S
C2041 C2046 1.363 . S
C2042 H2019 0.950 . S
C2042 C2041 1.397 . S
C2042 C2043 1.334 . S
C2043 H2020 0.950 . S
C2043 C2042 1.334 . S
C2043 C2044 1.287 . S
C2044 C2043 1.287 . S
C2044 C2045 1.524 . S
C2044 H2063 0.913 . S
C2045 H2021 0.950 . S
C2045 C2044 1.524 . S
C2045 C2046 1.415 . S
C2046 H2022 0.950 . S
C2046 C2041 1.363 . S
C2046 C2045 1.415 . S
C2047 H2023 0.951 . S
C2047 C2048 1.366 . S
C2047 C2049 1.388 . S
C2048 C2047 1.366 . S
C2048 C2052 1.385 1_556 S
C2049 H2024 0.951 . S
C2049 C2047 1.388 . S
C2049 C2050 1.366 1_556 S
C2050 C2049 1.366 1_554 S
C2050 C2051 1.414 . S
C2050 C2053 1.499 . S
C2051 H2025 0.950 . S
C2051 C2050 1.414 . S
C2051 C2052 1.374 . S
C2052 H2026 0.950 . S
C2052 C2048 1.385 1_554 S
C2052 C2051 1.374 . S
C2053 C2050 1.499 . S
C2053 C2054 1.373 . S
C2053 C2055 1.389 . S
C2054 H2027 0.950 . S
C2054 C2040 1.377 . S
C2054 C2053 1.373 . S
C2055 C2039 1.377 . S
C2055 C2053 1.389 . S
C2055 C2056 1.524 1_554 S
C2056 C2055 1.524 1_556 S
C2056 C2057 1.397 . S
C2056 C2061 1.363 . S
C2057 H2028 0.950 . S
C2057 C2056 1.397 . S
C2057 C2058 1.334 . S
C2058 H2029 0.950 . S
C2058 C2057 1.334 . S
C2058 C2059 1.287 . S
C2059 C2058 1.287 . S
C2059 C2060 1.524 . S
C2059 H2062 0.999 . S
C2060 H2030 0.950 . S
C2060 C2059 1.524 . S
C2060 C2061 1.415 . S
C2061 H2031 0.950 . S
C2061 C2056 1.363 . S
C2061 C2060 1.415 . S
H2062 C2059 0.999 . S
H2063 C2044 0.913 . S
C283 C10 1.293 . S
C298 C21 1.315 . S
C333 C30 1.293 1_556 S
C348 C29 1.315 . S
C383 C65 1.315 . S
C398 C54 1.293 . S
C433 C74 1.294 . S
C448 C73 1.315 . S
C483 C103 1.315 . S
C498 C106 1.294 . S
C533 C118 1.293 . S
C548 C117 1.320 . S
C583 C140 1.293 1_554 S
C598 C139 1.315 . S
C633 C161 1.315 . S
C648 C162 1.294 . S
C683 C183 1.315 1_556 S
C698 C184 1.293 . S
C733 C205 1.315 . S
C748 C206 1.294 . S
C783 C228 1.294 . S
C798 C227 1.315 . S
C833 C249 1.315 . S
C848 C250 1.293 . S
C883 C8 1.389 . S
C898 C172 1.390 . S
C933 C194 1.389 . S
C948 C40 1.390 . S
C983 C216 1.389 . S
C998 C52 1.390 . S
C1033 C84 1.390 . S
C1048 C238 1.390 . S
C1083 C98 1.391 . S
C1098 C260 1.391 . S
C1133 C128 1.389 . S
C1148 C150 1.389 . S
C1183 C18 1.025 . S
C1198 C230 1.026 . S
C1233 C32 1.025 . S
C1248 C252 1.026 . S
C1283 C142 1.026 . S
C1298 C62 1.025 . S
C1333 C76 1.025 . S
C1348 C164 1.026 . S
C1383 C96 1.026 . S
C1398 C186 1.026 . S
C1433 C208 1.025 . S
C1448 C120 1.026 . S
C1483 C15 1.041 . S
C1498 C197 1.041 . S
C1533 C219 1.040 . S
C1548 C43 1.040 . S
C1583 C241 1.039 . S
C1598 C59 1.039 . S
C1633 C87 1.041 . S
C1648 C263 1.041 . S
C1683 C153 1.040 . S
C1698 C95 1.040 . S
C1733 C131 1.039 . S
C1748 C175 1.039 . S
C1783 C7 1.209 . S
C1798 C235 1.208 . S
C1833 C37 1.208 . S
C1848 C257 1.207 . S
C1883 C51 1.206 . S
C1898 C147 1.208 . S
C1933 C169 1.208 . S
C1948 C81 1.206 . S
C1983 C109 1.207 . S
C1998 C191 1.208 . S
C2033 C213 1.208 . S
C2048 C125 1.208 . S
