# Generated by pormake.
# Topology wjx, (5)-cn, num edge types: 1
# Building blocks:
#     Node 0, Type 0, BuildingBlock: XOMCOT_clean_sbu_1, # of connection points: 5
#     Node 1, Type 0, BuildingBlock: XOMCOT_clean_sbu_1, # of connection points: 5
#     Node 2, Type 0, BuildingBlock: XOMCOT_clean_sbu_1, # of connection points: 5
#     Node 3, Type 0, BuildingBlock: XOMCOT_clean_sbu_1, # of connection points: 5
#     Node 4, Type 0, BuildingBlock: XOMCOT_clean_sbu_1, # of connection points: 5
#     Node 5, Type 0, BuildingBlock: XOMCOT_clean_sbu_1, # of connection points: 5
#     Node 6, Type 0, BuildingBlock: XOMCOT_clean_sbu_1, # of connection points: 5
#     Node 7, Type 0, BuildingBlock: XOMCOT_clean_sbu_1, # of connection points: 5
#     Node 8, Type 0, BuildingBlock: XOMCOT_clean_sbu_1, # of connection points: 5
#     Node 9, Type 0, BuildingBlock: XOMCOT_clean_sbu_1, # of connection points: 5
#     Node 10, Type 0, BuildingBlock: XOMCOT_clean_sbu_1, # of connection points: 5
#     Node 11, Type 0, BuildingBlock: XOMCOT_clean_sbu_1, # of connection points: 5
#     Edge 12, Type (0, 0), BuildingBlock: UVAHIK_clean_linker_0, # of connection points: 2
#     Edge 13, Type (0, 0), BuildingBlock: UVAHIK_clean_linker_0, # of connection points: 2
#     Edge 14, Type (0, 0), BuildingBlock: UVAHIK_clean_linker_0, # of connection points: 2
#     Edge 15, Type (0, 0), BuildingBlock: UVAHIK_clean_linker_0, # of connection points: 2
#     Edge 16, Type (0, 0), BuildingBlock: UVAHIK_clean_linker_0, # of connection points: 2
#     Edge 17, Type (0, 0), BuildingBlock: UVAHIK_clean_linker_0, # of connection points: 2
#     Edge 18, Type (0, 0), BuildingBlock: UVAHIK_clean_linker_0, # of connection points: 2
#     Edge 19, Type (0, 0), BuildingBlock: UVAHIK_clean_linker_0, # of connection points: 2
#     Edge 20, Type (0, 0), BuildingBlock: UVAHIK_clean_linker_0, # of connection points: 2
#     Edge 21, Type (0, 0), BuildingBlock: UVAHIK_clean_linker_0, # of connection points: 2
#     Edge 22, Type (0, 0), BuildingBlock: UVAHIK_clean_linker_0, # of connection points: 2
#     Edge 23, Type (0, 0), BuildingBlock: UVAHIK_clean_linker_0, # of connection points: 2
#     Edge 24, Type (0, 0), BuildingBlock: UVAHIK_clean_linker_0, # of connection points: 2
#     Edge 25, Type (0, 0), BuildingBlock: UVAHIK_clean_linker_0, # of connection points: 2
#     Edge 26, Type (0, 0), BuildingBlock: UVAHIK_clean_linker_0, # of connection points: 2
#     Edge 27, Type (0, 0), BuildingBlock: UVAHIK_clean_linker_0, # of connection points: 2
#     Edge 28, Type (0, 0), BuildingBlock: UVAHIK_clean_linker_0, # of connection points: 2
#     Edge 29, Type (0, 0), BuildingBlock: UVAHIK_clean_linker_0, # of connection points: 2
#     Edge 30, Type (0, 0), BuildingBlock: UVAHIK_clean_linker_0, # of connection points: 2
#     Edge 31, Type (0, 0), BuildingBlock: UVAHIK_clean_linker_0, # of connection points: 2
#     Edge 32, Type (0, 0), BuildingBlock: UVAHIK_clean_linker_0, # of connection points: 2
#     Edge 33, Type (0, 0), BuildingBlock: UVAHIK_clean_linker_0, # of connection points: 2
#     Edge 34, Type (0, 0), BuildingBlock: UVAHIK_clean_linker_0, # of connection points: 2
#     Edge 35, Type (0, 0), BuildingBlock: UVAHIK_clean_linker_0, # of connection points: 2
#     Edge 36, Type (0, 0), BuildingBlock: UVAHIK_clean_linker_0, # of connection points: 2
#     Edge 37, Type (0, 0), BuildingBlock: UVAHIK_clean_linker_0, # of connection points: 2
#     Edge 38, Type (0, 0), BuildingBlock: UVAHIK_clean_linker_0, # of connection points: 2
#     Edge 39, Type (0, 0), BuildingBlock: UVAHIK_clean_linker_0, # of connection points: 2
#     Edge 40, Type (0, 0), BuildingBlock: UVAHIK_clean_linker_0, # of connection points: 2
#     Edge 41, Type (0, 0), BuildingBlock: UVAHIK_clean_linker_0, # of connection points: 2
# Relax obj value: 0.120
# Max RMSD: 0.108
# Mean RMSD: 0.108
data_MOF--net-wjx--node1-XOMCOT_clean_sbu_1--edge1-UVAHIK_clean_linker_0
_symmetry_space_group_name_H-M    P1
_symmetry_Int_Tables_number       1
_symmetry_cell_setting            triclinic
loop_
_symmetry_equiv_pos_as_xyz
'x, y, z'
_cell_length_a     92.483068
_cell_length_b     92.483841
_cell_length_c     22.003039
_cell_angle_alpha  89.984055
_cell_angle_beta   89.99028
_cell_angle_gamma 120.01579
loop_
_atom_site_label
_atom_site_type_symbol
_atom_site_fract_x
_atom_site_fract_y
_atom_site_fract_z
_atom_type_partial_charge
C0 C 0.13892 0.4564 0.09779 0.0
C1 C 0.14192 0.45708 0.1592 0.0
N2 N 0.13033 0.44257 0.18443 0.0
N3 N 0.12553 0.44153 0.08401 0.0
C4 C 0.1206 0.43332 0.13764 0.0
H5 H 0.14569 0.46635 0.0654 0.0
Co6 Co 0.116 0.43587 1.00672 0.0
C7 C 0.08657 0.40253 0.02594 0.0
O8 O 0.09125 0.39642 0.98107 0.0
N9 N 0.10659 0.4305 0.92888 0.0
C10 C 0.08875 0.42406 0.85232 0.0
C11 C 0.09084 0.42641 0.91399 0.0
C12 C 0.11392 0.4308 0.87535 0.0
N13 N 0.10328 0.42682 0.82787 0.0
O14 O 0.12515 0.42138 0.99638 0.0
H15 H 0.08152 0.4255 0.94593 0.0
H16 H 0.12684 0.43397 0.87129 0.0
O17 O 0.09553 0.41786 0.04066 0.0
C18 C 0.14074 0.42951 0.98491 0.0
O19 O 0.14803 0.44577 0.97792 0.0
N20 N 0.10822 0.45095 0.01679 0.0
C21 C 0.1025 0.47742 0.03751 0.0
C22 C 0.09541 0.46336 0.07558 0.0
C23 C 0.09838 0.4502 0.06437 0.0
C24 C 0.11493 0.46434 0.97854 0.0
C25 C 0.11205 0.47764 0.98762 0.0
H26 H 0.09349 0.43986 0.09586 0.0
H27 H 0.12309 0.46498 0.94212 0.0
H28 H 0.10988 0.42094 0.1425 0.0
H29 H 0.15144 0.46776 0.18365 0.0
H30 H 0.07753 0.42108 0.82726 0.0
H31 H 0.088 0.46275 0.11467 0.0
H32 H 0.11796 0.48838 0.95777 0.0
C33 C 0.70335 0.14187 0.4574 0.0
C34 C 0.70622 0.14275 0.519 0.0
N35 N 0.69588 0.12765 0.54353 0.0
N36 N 0.69136 0.12626 0.44287 0.0
C37 C 0.68701 0.11789 0.49625 0.0
H38 H 0.70932 0.15209 0.42549 0.0
Co39 Co 0.68218 0.11908 0.36595 0.0
C40 C 0.68368 0.08776 0.35553 0.0
O41 O 0.69192 0.09243 0.30404 0.0
N42 N 0.67268 0.11201 0.28636 0.0
C43 C 0.65518 0.10489 0.20755 0.0
C44 C 0.65708 0.10806 0.26871 0.0
C45 C 0.68003 0.11139 0.23363 0.0
N46 N 0.66964 0.10704 0.18531 0.0
O47 O 0.70441 0.12731 0.33471 0.0
H48 H 0.64763 0.10812 0.29717 0.0
H49 H 0.69288 0.11435 0.23004 0.0
O50 O 0.67967 0.09737 0.38306 0.0
C51 C 0.71075 0.1409 0.30454 0.0
O52 O 0.70133 0.14734 0.29071 0.0
N53 N 0.66101 0.1124 0.39859 0.0
C54 C 0.6299 0.10654 0.43875 0.0
C55 C 0.63288 0.09322 0.42964 0.0
C56 C 0.64858 0.0964 0.40973 0.0
C57 C 0.6585 0.1255 0.40887 0.0
C58 C 0.64306 0.12287 0.42898 0.0
H59 H 0.65041 0.08593 0.40116 0.0
H60 H 0.66848 0.13807 0.39968 0.0
H61 H 0.67732 0.10496 0.50035 0.0
H62 H 0.71479 0.15385 0.54401 0.0
H63 H 0.64424 0.10208 0.18096 0.0
H64 H 0.62311 0.08043 0.43715 0.0
H65 H 0.6413 0.13352 0.43468 0.0
C66 C 0.55535 0.6978 0.82137 0.0
C67 C 0.55487 0.70096 0.88211 0.0
N68 N 0.56761 0.70054 0.91031 0.0
N69 N 0.56834 0.69543 0.81065 0.0
C70 C 0.5758 0.69748 0.86551 0.0
H71 H 0.54641 0.69671 0.78737 0.0
Co72 Co 0.57237 0.68913 0.7343 0.0
C73 C 0.59154 0.67296 0.78451 0.0
O74 O 0.57879 0.65779 0.77966 0.0
N75 N 0.57657 0.68334 0.65564 0.0
C76 C 0.58189 0.67106 0.57855 0.0
C77 C 0.58034 0.67145 0.64043 0.0
C78 C 0.5758 0.6899 0.60132 0.0
N79 N 0.57899 0.68265 0.55366 0.0
O80 O 0.58852 0.71218 0.71892 0.0
H81 H 0.58144 0.66309 0.67139 0.0
H82 H 0.57242 0.69944 0.59639 0.0
O83 O 0.59034 0.68563 0.76806 0.0
C84 C 0.58132 0.71975 0.69728 0.0
O85 O 0.56513 0.71117 0.68784 0.0
N86 N 0.55486 0.66667 0.74867 0.0
C87 C 0.52603 0.63567 0.76784 0.0
C88 C 0.53716 0.64395 0.81547 0.0
C89 C 0.55135 0.65946 0.80518 0.0
C90 C 0.54371 0.65896 0.70246 0.0
C91 C 0.52947 0.64332 0.71064 0.0
H92 H 0.55967 0.66545 0.84287 0.0
H93 H 0.54545 0.66511 0.65914 0.0
H94 H 0.58634 0.69569 0.87305 0.0
H95 H 0.54556 0.70302 0.90377 0.0
H96 H 0.58491 0.66278 0.55395 0.0
H97 H 0.53493 0.63849 0.86047 0.0
H98 H 0.52088 0.63756 0.67312 0.0
C99 C 0.86093 0.55155 0.19865 0.0
C100 C 0.85826 0.55129 0.26021 0.0
N101 N 0.8719 0.56409 0.28589 0.0
N102 N 0.87613 0.56449 0.18522 0.0
C103 C 0.88251 0.57195 0.23923 0.0
H104 H 0.85262 0.54241 0.16609 0.0
Co105 Co 0.88582 0.56819 0.10847 0.0
C106 C 0.91517 0.6017 0.11813 0.0
O107 O 0.90983 0.60633 0.07074 0.0
N108 N 0.89552 0.57158 0.0307 0.0
C109 C 0.91367 0.57581 0.95692 0.0
C110 C 0.91101 0.57432 0.01859 0.0
C111 C 0.88898 0.57131 0.97542 0.0
N112 N 0.89979 0.57394 0.92962 0.0
O113 O 0.87683 0.58246 0.08933 0.0
H114 H 0.9198 0.57505 0.05258 0.0
H115 H 0.87655 0.5693 0.96866 0.0
O116 O 0.90648 0.58688 0.1388 0.0
C117 C 0.86213 0.57395 0.06766 0.0
O118 O 0.85592 0.55781 0.06007 0.0
N119 N 0.89302 0.55309 0.12686 0.0
C120 C 0.89724 0.52618 0.15807 0.0
C121 C 0.90624 0.54156 0.18833 0.0
C122 C 0.90389 0.55489 0.1722 0.0
C123 C 0.88456 0.53845 0.0959 0.0
C124 C 0.88658 0.52489 0.11036 0.0
H125 H 0.91022 0.56634 0.19799 0.0
H126 H 0.87577 0.53715 0.0609 0.0
H127 H 0.89489 0.58261 0.24454 0.0
H128 H 0.84746 0.54185 0.28439 0.0
H129 H 0.92487 0.57778 0.93406 0.0
H130 H 0.91444 0.54306 0.2259 0.0
H131 H 0.87958 0.51338 0.08505 0.0
C132 C 0.32065 0.86193 0.53676 0.0
C133 C 0.31866 0.85872 0.5981 0.0
N134 N 0.31487 0.86958 0.62438 0.0
N135 N 0.3181 0.87473 0.52409 0.0
C136 C 0.31458 0.87914 0.57833 0.0
H137 H 0.32414 0.85561 0.50353 0.0
Co138 Co 0.32054 0.8839 0.44675 0.0
C139 C 0.31493 0.91209 0.47028 0.0
O140 O 0.3029 0.90624 0.42968 0.0
N141 N 0.32322 0.89298 0.36876 0.0
C142 C 0.33309 0.9106 0.29093 0.0
C143 C 0.33382 0.90896 0.3527 0.0
C144 C 0.31634 0.88509 0.31586 0.0
N145 N 0.32209 0.89557 0.26758 0.0
O146 O 0.29664 0.87372 0.44047 0.0
H147 H 0.34196 0.91873 0.38376 0.0
H148 H 0.30747 0.87187 0.31281 0.0
O149 O 0.32261 0.90415 0.48156 0.0
C150 C 0.28991 0.85817 0.42879 0.0
O151 O 0.29964 0.85181 0.41981 0.0
N152 N 0.34359 0.89245 0.45215 0.0
C153 C 0.37625 0.89881 0.4652 0.0
C154 C 0.3703 0.90726 0.50122 0.0
C155 C 0.35382 0.90377 0.4944 0.0
C156 C 0.34933 0.88458 0.41535 0.0
C157 C 0.36563 0.88761 0.42095 0.0
H158 H 0.34911 0.90954 0.52518 0.0
H159 H 0.34094 0.87538 0.38309 0.0
H160 H 0.31197 0.88923 0.58405 0.0
H161 H 0.32046 0.84948 0.62169 0.0
H162 H 0.3406 0.92189 0.26505 0.0
H163 H 0.378 0.91578 0.53658 0.0
H164 H 0.36975 0.88091 0.39197 0.0
C165 C 0.45845 0.32465 0.88103 0.0
C166 C 0.45967 0.32128 0.94093 0.0
N167 N 0.44428 0.31047 0.96159 0.0
N168 N 0.44229 0.31629 0.86354 0.0
C169 C 0.43401 0.30728 0.91334 0.0
H170 H 0.46879 0.3328 0.85209 0.0
Co171 Co 0.43539 0.31703 0.7831 0.0
C172 C 0.40922 0.32138 0.85631 0.0
O173 O 0.41627 0.32375 0.90989 0.0
N174 N 0.42907 0.31772 0.70256 0.0
C175 C 0.42057 0.32533 0.62036 0.0
C176 C 0.42317 0.32752 0.6819 0.0
C177 C 0.43025 0.30989 0.65234 0.0
N178 N 0.42502 0.31425 0.60157 0.0
O179 O 0.42195 0.29308 0.78285 0.0
H180 H 0.42146 0.33622 0.70947 0.0
H181 H 0.43501 0.30132 0.65293 0.0
O182 O 0.41605 0.31902 0.80964 0.0
C183 C 0.43096 0.28627 0.77909 0.0
O184 O 0.44725 0.29594 0.77528 0.0
N185 N 0.44967 0.34038 0.78143 0.0
C186 C 0.47628 0.37323 0.78486 0.0
C187 C 0.46207 0.36827 0.82113 0.0
C188 C 0.44892 0.35174 0.81899 0.0
C189 C 0.46299 0.34521 0.74358 0.0
C190 C 0.47639 0.36156 0.74442 0.0
H191 H 0.43872 0.34804 0.85013 0.0
H192 H 0.46359 0.33606 0.71476 0.0
H193 H 0.42069 0.29862 0.91439 0.0
H194 H 0.471 0.3268 0.96778 0.0
H195 H 0.41636 0.33194 0.59126 0.0
H196 H 0.46154 0.3768 0.85356 0.0
H197 H 0.48701 0.36487 0.71511 0.0
C198 C 0.55343 0.86684 0.51695 0.0
C199 C 0.55264 0.86366 0.45569 0.0
N200 N 0.56689 0.87548 0.42968 0.0
N201 N 0.56812 0.88057 0.52988 0.0
C202 C 0.57609 0.88557 0.47582 0.0
H203 H 0.54372 0.85985 0.54994 0.0
Co204 Co 0.5739 0.88995 0.60723 0.0
C205 C 0.60663 0.91993 0.58799 0.0
O206 O 0.61283 0.91533 0.63282 0.0
N207 N 0.57929 0.89917 0.68538 0.0
C208 C 0.58512 0.91652 0.76318 0.0
C209 C 0.58287 0.9147 0.70139 0.0
C210 C 0.57919 0.8917 0.73834 0.0
N211 N 0.5828 0.90204 0.78659 0.0
O212 O 0.58902 0.88145 0.61563 0.0
H213 H 0.58344 0.92401 0.6702 0.0
H214 H 0.57636 0.87887 0.74144 0.0
O215 O 0.59136 0.91076 0.5729 0.0
C216 C 0.58134 0.86586 0.62731 0.0
O217 O 0.56507 0.85808 0.63467 0.0
N218 N 0.55818 0.89691 0.59961 0.0
C219 C 0.53074 0.90145 0.58569 0.0
C220 C 0.54516 0.91062 0.55029 0.0
C221 C 0.55875 0.90805 0.55756 0.0
C222 C 0.54448 0.88823 0.63541 0.0
C223 C 0.53065 0.89036 0.62941 0.0
H224 H 0.56937 0.9145 0.52766 0.0
H225 H 0.54412 0.87921 0.66758 0.0
H226 H 0.58832 0.89647 0.47026 0.0
H227 H 0.5421 0.85375 0.4319 0.0
H228 H 0.58768 0.9275 0.78901 0.0
H229 H 0.54564 0.91911 0.5154 0.0
H230 H 0.51984 0.88313 0.65803 0.0
C231 C 0.69 0.54878 0.86234 0.0
C232 C 0.69202 0.54769 0.80102 0.0
N233 N 0.6916 0.56047 0.77314 0.0
N234 N 0.6885 0.56227 0.8737 0.0
C235 C 0.68952 0.56917 0.81847 0.0
H236 H 0.68915 0.53995 0.89634 0.0
Co237 Co 0.68393 0.5674 0.95072 0.0
C238 C 0.68945 0.60126 0.93718 0.0
O239 O 0.69978 0.60583 0.98352 0.0
N240 N 0.67904 0.57209 0.0285 0.0
C241 C 0.66663 0.57784 0.1035 0.0
C242 C 0.66733 0.57625 0.04174 0.0
C243 C 0.68515 0.57103 0.08314 0.0
N244 N 0.6778 0.57449 0.12975 0.0
O245 O 0.70755 0.58132 0.96492 0.0
H246 H 0.65963 0.57785 1.0085 0.0
H247 H 0.69442 0.56729 0.08877 0.0
O248 O 0.68246 0.58622 0.91811 0.0
C249 C 0.7143 0.57287 0.98168 0.0
O250 O 0.70467 0.55681 0.9917 0.0
N251 N 0.66125 0.55269 0.9373 0.0
C252 C 0.6293 0.52606 0.91412 0.0
C253 C 0.63529 0.54129 0.88312 0.0
C254 C 0.65144 0.55449 0.89506 0.0
C255 C 0.65544 0.53822 0.96912 0.0
C256 C 0.6395 0.52478 0.9585 0.0
H257 H 0.65624 0.56581 0.86857 0.0
H258 H 0.66352 0.53694 1.00159 0.0
H259 H 0.68803 0.57992 0.81131 0.0
H260 H 0.69345 0.53805 0.77884 0.0
H261 H 0.65848 0.58122 0.12709 0.0
H262 H 0.62789 0.54273 0.84804 0.0
H263 H 0.63532 0.51335 0.98401 0.0
C264 C 0.13892 0.70596 0.18116 0.0
C265 C 0.13832 0.70868 0.12009 0.0
N266 N 0.12338 0.69692 0.09847 0.0
N267 N 0.12438 0.69262 0.1986 0.0
C268 C 0.11513 0.68736 0.14712 0.0
H269 H 0.1496 0.71288 0.21037 0.0
Co270 Co 0.12041 0.68322 0.27628 0.0
C271 C 0.08409 0.66911 0.30256 0.0
O272 O 0.08449 0.6584 0.3407 0.0
N273 N 0.11709 0.67393 0.35618 0.0
C274 C 0.11494 0.65796 0.43554 0.0
C275 C 0.11742 0.66008 0.37396 0.0
C276 C 0.1146 0.68008 0.40878 0.0
N277 N 0.11317 0.67054 0.45754 0.0
O278 O 0.12837 0.70512 0.31083 0.0
H279 H 0.11938 0.65186 0.34485 0.0
H280 H 0.11358 0.69122 0.41126 0.0
O281 O 0.09734 0.67932 0.27346 0.0
C282 C 0.14291 0.71109 0.33397 0.0
O283 O 0.14994 0.70176 0.33411 0.0
N284 N 0.11438 0.66242 0.24074 0.0
C285 C 0.11104 0.63274 0.19529 0.0
C286 C 0.09719 0.63506 0.1984 0.0
C287 C 0.09912 0.65006 0.22114 0.0
C288 C 0.12815 0.66082 0.23335 0.0
C289 C 0.12674 0.64599 0.21184 0.0
H290 H 0.08833 0.65158 0.22223 0.0
H291 H 0.14025 0.67095 0.24702 0.0
H292 H 0.10278 0.67649 0.14501 0.0
H293 H 0.14848 0.71805 0.09308 0.0
H294 H 0.11485 0.64809 0.4623 0.0
H295 H 0.08491 0.62521 0.18489 0.0
H296 H 0.1378 0.64482 0.20877 0.0
C297 C 0.43176 0.13531 0.52769 0.0
C298 C 0.42881 0.13475 0.46626 0.0
N299 N 0.42661 0.12018 0.44436 0.0
N300 N 0.43129 0.1211 0.54497 0.0
C301 C 0.42814 0.11211 0.49312 0.0
H302 H 0.43459 0.1457 0.55743 0.0
Co303 Co 0.43589 0.11657 0.62332 0.0
C304 C 0.40187 0.08622 0.63355 0.0
O305 O 0.39545 0.09393 0.66374 0.0
N306 N 0.44073 0.11228 0.70249 0.0
C307 C 0.4554 0.11223 0.78254 0.0
C308 C 0.45593 0.11546 0.72148 0.0
C309 C 0.43124 0.10749 0.75358 0.0
N310 N 0.4399 0.10731 0.80291 0.0
O311 O 0.4224 0.12516 0.65682 0.0
H312 H 0.46696 0.12042 0.69326 0.0
H313 H 0.41841 0.1047 0.75504 0.0
O314 O 0.41712 0.09413 0.61712 0.0
C315 C 0.43094 0.13921 0.68332 0.0
O316 O 0.44722 0.14572 0.68696 0.0
N317 N 0.45005 0.10947 0.59053 0.0
C318 C 0.47516 0.10306 0.55318 0.0
C319 C 0.46041 0.09044 0.57982 0.0
C320 C 0.44799 0.0939 0.59839 0.0
C321 C 0.46407 0.12177 0.56336 0.0
C322 C 0.47674 0.11882 0.54406 0.0
H323 H 0.43717 0.0843 0.62181 0.0
H324 H 0.4657 0.13414 0.55881 0.0
H325 H 0.42735 0.10004 0.49106 0.0
H326 H 0.42903 0.14466 0.43937 0.0
H327 H 0.46587 0.11422 0.81051 0.0
H328 H 0.45863 0.07808 0.58755 0.0
H329 H 0.488 0.12903 0.52476 0.0
C330 C 0.30965 0.45401 0.81237 0.0
C331 C 0.30675 0.45474 0.75149 0.0
N332 N 0.30671 0.44177 0.72322 0.0
N333 N 0.31143 0.44066 0.82303 0.0
C334 C 0.30926 0.43324 0.76806 0.0
H335 H 0.31097 0.46301 0.84649 0.0
Co336 Co 0.31726 0.43606 0.89936 0.0
C337 C 0.33237 0.41622 0.84582 0.0
O338 O 0.3477 0.42878 0.84755 0.0
N339 N 0.32256 0.43121 0.97758 0.0
C340 C 0.33416 0.42476 0.05385 0.0
C341 C 0.33378 0.42646 0.99197 0.0
C342 C 0.31638 0.43238 0.03214 0.0
N343 N 0.32324 0.42854 0.07937 0.0
O344 O 0.29406 0.42034 0.91354 0.0
H345 H 0.34165 0.42475 0.96025 0.0
H346 H 0.30743 0.43654 0.03751 0.0
O347 O 0.32017 0.41783 0.86512 0.0
C348 C 0.28681 0.42782 0.93555 0.0
O349 O 0.29579 0.44395 0.94583 0.0
N350 N 0.34001 0.45326 0.88642 0.0
C351 C 0.37156 0.48186 0.87042 0.0
C352 C 0.36312 0.47125 0.82149 0.0
C353 C 0.34738 0.45722 0.83022 0.0
C354 C 0.34781 0.46389 0.9339 0.0
C355 C 0.36366 0.47794 0.92732 0.0
H356 H 0.34128 0.44946 0.79133 0.0
H357 H 0.34163 0.46192 0.97724 0.0
H358 H 0.3106 0.42242 0.76045 0.0
H359 H 0.30516 0.46434 0.72979 0.0
H360 H 0.34198 0.42106 0.078 0.0
H361 H 0.36839 0.47395 0.77617 0.0
H362 H 0.36953 0.48575 0.9666 0.0
C363 C 0.86738 0.32395 0.21048 0.0
C364 C 0.8653 0.32446 0.1489 0.0
N365 N 0.87665 0.32174 0.12042 0.0
N366 N 0.88006 0.32108 0.22092 0.0
C367 C 0.88541 0.31965 0.16542 0.0
H368 H 0.86026 0.32575 0.24561 0.0
Co369 Co 0.8873 0.31975 0.29753 0.0
C370 C 0.92342 0.33264 0.28976 0.0
O371 O 0.92448 0.34067 0.34038 0.0
N372 N 0.89402 0.31767 0.37664 0.0
C373 C 0.90311 0.308 0.45142 0.0
C374 C 0.90082 0.30805 0.38986 0.0
C375 C 0.89184 0.3229 0.43153 0.0
N376 N 0.89739 0.3173 0.47753 0.0
O377 O 0.87728 0.29598 0.28707 0.0
H378 H 0.90366 0.30121 0.35666 0.0
H379 H 0.88598 0.33032 0.43848 0.0
O380 O 0.90905 0.32352 0.26511 0.0
C381 C 0.8641 0.28726 0.31839 0.0
O382 O 0.85925 0.29485 0.35688 0.0
N383 N 0.89558 0.34304 0.30593 0.0
C384 C 0.90056 0.3755 0.29862 0.0
C385 C 0.91032 0.37083 0.2643 0.0
C386 C 0.90733 0.3545 0.26725 0.0
C387 C 0.8859 0.34737 0.33941 0.0
C388 C 0.8884 0.3636 0.33747 0.0
H389 H 0.91365 0.35092 0.23457 0.0
H390 H 0.87523 0.33785 0.36375 0.0
H391 H 0.89541 0.31699 0.15831 0.0
H392 H 0.8563 0.32696 0.12708 0.0
H393 H 0.90793 0.30107 0.47533 0.0
H394 H 0.91964 0.37948 0.23278 0.0
H395 H 0.88006 0.36641 0.36277 0.0
C396 C 0.06598 0.3977 0.10817 0.0
C397 C 0.06979 0.39253 0.05346 0.0
C398 C 0.04972 0.38944 0.13112 0.0
C399 C 0.00797 0.35092 0.11723 0.0
H400 H 0.99351 0.37942 0.19282 0.0
C401 C 0.93956 0.33112 0.19931 0.0
C402 C 0.93917 0.33617 0.25934 0.0
C403 C 0.95493 0.33631 0.17012 0.0
C404 C 0.99737 0.3713 0.17177 0.0
H405 H 0.0596 0.37429 0.9808 0.0
H406 H 0.03108 0.36008 0.02013 0.0
H407 H 0.02147 0.39176 0.15048 0.0
H408 H 0.95462 0.34984 0.33663 0.0
H409 H 0.98101 0.35894 0.28575 0.0
H410 H 0.98349 0.33046 0.13838 0.0
C411 C 0.04071 0.37036 0.0459 0.0
C412 C 0.01347 0.37834 0.14796 0.0
C413 C 0.05707 0.37853 0.02326 0.0
C414 C 0.95437 0.34587 0.29014 0.0
C415 C 0.96956 0.35113 0.26104 0.0
C416 C 0.99171 0.34386 0.14062 0.0
C417 C 0.03675 0.37594 0.09952 0.0
C418 C 0.01916 0.36824 0.12159 0.0
C419 C 0.97004 0.34674 0.20044 0.0
C420 C 0.98642 0.35399 0.16924 0.0
H421 H 0.07553 0.40831 0.13295 0.0
H422 H 0.04729 0.39381 0.17347 0.0
H423 H 0.01192 0.34273 0.09741 0.0
H424 H 0.92807 0.32363 0.17439 0.0
H425 H 0.95501 0.33275 0.12329 0.0
C426 C 0.67424 0.05751 0.33977 0.0
C427 C 0.67777 0.07075 0.37945 0.0
C428 C 0.66747 0.04119 0.36184 0.0
C429 C 0.64632 0.0152 0.49971 0.0
H430 H 0.65402 0.98274 0.41611 0.0
C431 C 0.62932 0.94983 0.59461 0.0
C432 C 0.61651 0.93678 0.56101 0.0
C433 C 0.6376 0.96613 0.57168 0.0
C434 C 0.65181 0.99173 0.43974 0.0
H435 H 0.67761 0.07746 0.4736 0.0
H436 H 0.66685 0.04932 0.5128 0.0
H437 H 0.66761 0.01152 0.37953 0.0
H438 H 0.60271 0.93044 0.47626 0.0
H439 H 0.61774 0.95894 0.43519 0.0
H440 H 0.63108 0.99535 0.56136 0.0
C441 C 0.66852 0.05122 0.4642 0.0
C442 C 0.65945 0.00822 0.41861 0.0
C443 C 0.67487 0.06745 0.44187 0.0
C444 C 0.61254 0.94025 0.50312 0.0
C445 C 0.62112 0.9565 0.4796 0.0
C446 C 0.63903 0.99884 0.52157 0.0
C447 C 0.66444 0.03775 0.42446 0.0
C448 C 0.65673 0.02022 0.44798 0.0
C449 C 0.63351 0.96959 0.51417 0.0
C450 C 0.64162 0.98696 0.49153 0.0
H451 H 0.67616 0.05966 0.29128 0.0
H452 H 0.66424 0.03126 0.32931 0.0
H453 H 0.64349 0.02379 0.52298 0.0
H454 H 0.63255 0.94757 0.63955 0.0
H455 H 0.64711 0.97607 0.59905 0.0
C456 C 0.68431 0.62511 0.95218 0.0
C457 C 0.68373 0.61261 0.91431 0.0
C458 C 0.67729 0.63471 0.93352 0.0
C459 C 0.64683 0.63405 0.82042 0.0
H460 H 0.6615 0.67828 0.88508 0.0
C461 C 0.61572 0.67123 0.74657 0.0
C462 C 0.60789 0.67444 0.79512 0.0
C463 C 0.62805 0.66704 0.75756 0.0
C464 C 0.65735 0.66597 0.86657 0.0
H465 H 0.67612 0.60092 0.82594 0.0
H466 H 0.66477 0.61828 0.79164 0.0
H467 H 0.67741 0.66435 0.90796 0.0
H468 H 0.60721 0.67661 0.89278 0.0
H469 H 0.62934 0.66984 0.91217 0.0
H470 H 0.627 0.63592 0.77804 0.0
C471 C 0.66996 0.62027 0.83697 0.0
C472 C 0.66635 0.65787 0.88001 0.0
C473 C 0.67663 0.61039 0.85629 0.0
C474 C 0.6134 0.67458 0.85464 0.0
C475 C 0.62595 0.67062 0.86565 0.0
C476 C 0.6381 0.64229 0.80597 0.0
C477 C 0.6698 0.63232 0.87586 0.0
C478 C 0.66108 0.64165 0.85787 0.0
C479 C 0.63284 0.6661 0.81732 0.0
C480 C 0.64313 0.65823 0.82944 0.0
H481 H 0.68955 0.62701 0.99747 0.0
H482 H 0.67721 0.64356 0.96548 0.0
H483 H 0.642 0.62147 0.80359 0.0
H484 H 0.61141 0.67072 0.70041 0.0
H485 H 0.6332 0.66365 0.71956 0.0
C486 C 0.05369 0.65695 0.32358 0.0
C487 C 0.06761 0.66723 0.28723 0.0
C488 C 0.03771 0.6534 0.30679 0.0
C489 C 0.01313 0.65116 0.17172 0.0
H490 H 0.9793 0.64269 0.29286 0.0
C491 C 0.94391 0.62663 0.10792 0.0
C492 C 0.93231 0.61267 0.1416 0.0
C493 C 0.96058 0.63595 0.12665 0.0
C494 C 0.98861 0.64499 0.25851 0.0
H495 H 0.0757 0.6824 0.20564 0.0
H496 H 0.04763 0.67637 0.17649 0.0
H497 H 0.00845 0.65503 0.32353 0.0
H498 H 0.929 0.59801 0.22274 0.0
H499 H 0.95801 0.61436 0.25565 0.0
H500 H 0.99318 0.64093 0.10686 0.0
C501 C 0.04913 0.67086 0.21773 0.0
C502 C 0.00532 0.65204 0.27603 0.0
C503 C 0.06523 0.67444 0.23466 0.0
C504 C 0.93761 0.60865 0.19566 0.0
C505 C 0.95423 0.61808 0.21471 0.0
C506 C 0.99641 0.64423 0.15413 0.0
C507 C 0.03513 0.66007 0.25319 0.0
C508 C 0.01776 0.65481 0.23315 0.0
C509 C 0.96597 0.63166 0.17987 0.0
C510 C 0.98391 0.6407 0.19755 0.0
H511 H 0.05504 0.65122 0.36449 0.0
H512 H 0.02728 0.64485 0.33484 0.0
H513 H 0.02229 0.65292 0.13751 0.0
H514 H 0.94026 0.63006 0.06599 0.0
H515 H 0.96929 0.64643 0.09915 0.0
C516 C 0.37562 0.05829 0.64453 0.0
C517 C 0.39161 0.06816 0.61923 0.0
C518 C 0.36631 0.04113 0.63218 0.0
C519 C 0.37145 0.00589 0.57892 0.0
H520 H 0.3237 0.98373 0.55084 0.0
C521 C 0.31654 0.94002 0.4714 0.0
C522 C 0.32129 0.92901 0.49628 0.0
C523 C 0.32399 0.95659 0.4914 0.0
C524 C 0.33704 0.98974 0.55833 0.0
H525 H 0.41008 0.06775 0.55947 0.0
H526 H 0.39387 0.03807 0.53759 0.0
H527 H 0.33907 0.01358 0.57358 0.0
H528 H 0.33689 0.92654 0.56429 0.0
H529 H 0.34967 0.95529 0.59975 0.0
H530 H 0.36961 0.98228 0.56182 0.0
C531 C 0.38863 0.04345 0.5681 0.0
C532 C 0.34583 0.00683 0.57203 0.0
C533 C 0.39792 0.06053 0.58049 0.0
C534 C 0.33312 0.93475 0.54349 0.0
C535 C 0.34051 0.95128 0.56365 0.0
C536 C 0.36269 0.98885 0.56522 0.0
C537 C 0.37277 0.03347 0.59419 0.0
C538 C 0.36318 0.01515 0.58193 0.0
C539 C 0.33632 0.96253 0.53698 0.0
C540 C 0.34539 0.98055 0.55436 0.0
H541 H 0.37039 0.06376 0.67461 0.0
H542 H 0.35419 0.03382 0.65341 0.0
H543 H 0.38475 0.01181 0.58715 0.0
H544 H 0.3075 0.93603 0.43486 0.0
H545 H 0.32054 0.96491 0.46941 0.0
C546 C 0.33487 0.39618 0.77817 0.0
C547 C 0.33031 0.39964 0.83468 0.0
C548 C 0.338 0.38294 0.7719 0.0
C549 C 0.33857 0.34783 0.85771 0.0
H550 H 0.37771 0.36085 0.75764 0.0
C551 C 0.38819 0.3282 0.89929 0.0
C552 C 0.39504 0.3245 0.84855 0.0
C553 C 0.37647 0.3334 0.89177 0.0
C554 C 0.36661 0.35685 0.78502 0.0
H555 H 0.32477 0.39179 0.9284 0.0
H556 H 0.33088 0.36917 0.91872 0.0
H557 H 0.36372 0.37705 0.75378 0.0
H558 H 0.39376 0.32204 0.75036 0.0
H559 H 0.37375 0.33169 0.73725 0.0
H560 H 0.34246 0.32828 0.8919 0.0
C561 C 0.33148 0.37611 0.87827 0.0
C562 C 0.35845 0.36611 0.78263 0.0
C563 C 0.32793 0.38909 0.88403 0.0
C564 C 0.38911 0.32517 0.79035 0.0
C565 C 0.37758 0.33064 0.78279 0.0
C566 C 0.34696 0.33874 0.86085 0.0
C567 C 0.33728 0.37329 0.82268 0.0
C568 C 0.34446 0.36195 0.81971 0.0
C569 C 0.37144 0.33518 0.83335 0.0
C570 C 0.36122 0.34334 0.8252 0.0
H571 H 0.33693 0.40429 0.73966 0.0
H572 H 0.34187 0.38088 0.72785 0.0
H573 H 0.32769 0.34398 0.8861 0.0
H574 H 0.39232 0.32766 0.94487 0.0
H575 H 0.37201 0.33689 0.93158 0.0
C576 C 0.09358 0.41638 0.72384 0.0
C577 C 0.10665 0.42637 0.76398 0.0
C578 C 0.09643 0.41678 0.66136 0.0
C579 C 0.12947 0.42922 0.5446 0.0
H580 H 0.09665 0.43094 0.43985 0.0
C581 C 0.14143 0.44672 0.28937 0.0
C582 C 0.12798 0.43867 0.24858 0.0
C583 C 0.13897 0.44398 0.35199 0.0
C584 C 0.10582 0.4302 0.46823 0.0
H585 H 0.13312 0.44432 0.76964 0.0
H586 H 0.13813 0.44502 0.66033 0.0
H587 H 0.0923 0.42855 0.54923 0.0
H588 H 0.10141 0.42105 0.24223 0.0
H589 H 0.0972 0.416 0.35114 0.0
H590 H 0.14305 0.43099 0.46336 0.0
C591 C 0.12567 0.43677 0.67744 0.0
C592 C 0.10334 0.42885 0.53111 0.0
C593 C 0.1228 0.43637 0.74015 0.0
C594 C 0.11209 0.4274 0.27202 0.0
C595 C 0.10964 0.42466 0.33469 0.0
C596 C 0.13196 0.43054 0.48156 0.0
C597 C 0.11245 0.42717 0.63719 0.0
C598 C 0.11513 0.42837 0.57015 0.0
C599 C 0.123 0.4331 0.37558 0.0
C600 C 0.12017 0.43109 0.44256 0.0
H601 H 0.08107 0.40825 0.74067 0.0
H602 H 0.08604 0.40894 0.6319 0.0
H603 H 0.13871 0.42868 0.57328 0.0
H604 H 0.15388 0.45529 0.27298 0.0
H605 H 0.14954 0.4508 0.38202 0.0
C606 C 0.70713 0.13234 0.64832 0.0
C607 C 0.69391 0.12339 0.60738 0.0
C608 C 0.70496 0.12899 0.71069 0.0
C609 C 0.67188 0.11129 0.8272 0.0
H610 H 0.70665 0.11252 0.9294 0.0
C611 C 0.66065 0.09594 0.08172 0.0
C612 C 0.67338 0.10652 0.12193 0.0
C613 C 0.6636 0.09663 0.01925 0.0
C614 C 0.69687 0.11227 0.90155 0.0
H615 H 0.66808 0.10363 0.60032 0.0
H616 H 0.66436 0.09761 0.70884 0.0
H617 H 0.71085 0.11608 0.81953 0.0
H618 H 0.69941 0.12576 0.12809 0.0
H619 H 0.7046 0.12706 0.0187 0.0
H620 H 0.65798 0.10773 0.90888 0.0
C621 C 0.67638 0.10738 0.69271 0.0
C622 C 0.69927 0.1143 0.83856 0.0
C623 C 0.67857 0.1107 0.6303 0.0
C624 C 0.68938 0.11734 0.09839 0.0
C625 C 0.69234 0.11808 0.03565 0.0
C626 C 0.66949 0.10928 0.89002 0.0
C627 C 0.68948 0.11662 0.7338 0.0
C628 C 0.68681 0.11388 0.80061 0.0
C629 C 0.67937 0.10798 0.99519 0.0
C630 C 0.68195 0.10976 0.92809 0.0
H631 H 0.71918 0.14203 0.63224 0.0
H632 H 0.71528 0.13644 0.74097 0.0
H633 H 0.66215 0.11123 0.79962 0.0
H634 H 0.64828 0.08724 0.09857 0.0
H635 H 0.65343 0.08837 0.98968 0.0
C636 C 0.58157 0.70164 0.46897 0.0
C637 C 0.57887 0.68606 0.48947 0.0
C638 C 0.58176 0.70491 0.4066 0.0
C639 C 0.57139 0.70435 0.27377 0.0
H640 H 0.59149 0.68698 0.16221 0.0
C641 C 0.55753 0.69784 0.01655 0.0
C642 C 0.57048 0.70114 0.97528 0.0
C643 C 0.55997 0.69777 0.0792 0.0
C644 C 0.58599 0.69209 0.19267 0.0
H645 H 0.57372 0.66156 0.45967 0.0
H646 H 0.57411 0.66725 0.35189 0.0
H647 H 0.59332 0.68373 0.27145 0.0
H648 H 0.59635 0.70728 0.96879 0.0
H649 H 0.60055 0.70704 0.07832 0.0
H650 H 0.56406 0.7127 0.19493 0.0
C651 C 0.57644 0.67709 0.38383 0.0
C652 C 0.58686 0.69006 0.25537 0.0
C653 C 0.57621 0.67382 0.44593 0.0
C654 C 0.58601 0.7045 0.99884 0.0
C655 C 0.58843 0.70437 0.06175 0.0
C656 C 0.57047 0.70634 0.21104 0.0
C657 C 0.57929 0.69269 0.36322 0.0
C658 C 0.57937 0.69594 0.29673 0.0
C659 C 0.5754 0.70094 0.10273 0.0
C660 C 0.57756 0.70003 0.16961 0.0
H661 H 0.58383 0.71143 0.50099 0.0
H662 H 0.58411 0.71711 0.39233 0.0
H663 H 0.56541 0.70896 0.30419 0.0
H664 H 0.54528 0.69484 1.00073 0.0
H665 H 0.54954 0.69475 0.10919 0.0
C666 C 0.91072 0.58253 0.82503 0.0
C667 C 0.89709 0.57438 0.86506 0.0
C668 C 0.9082 0.58257 0.76242 0.0
C669 C 0.87672 0.57664 0.64679 0.0
H670 H 0.90454 0.56765 0.53935 0.0
C671 C 0.86171 0.56157 0.39164 0.0
C672 C 0.87505 0.56735 0.3502 0.0
C673 C 0.86466 0.56361 0.45422 0.0
C674 C 0.89683 0.57045 0.56852 0.0
H675 H 0.87003 0.55994 0.86979 0.0
H676 H 0.86567 0.56015 0.76067 0.0
H677 H 0.90911 0.56891 0.64866 0.0
H678 H 0.90208 0.58019 0.34279 0.0
H679 H 0.90721 0.58416 0.45158 0.0
H680 H 0.86444 0.57819 0.56664 0.0
C681 C 0.87832 0.56662 0.77801 0.0
C682 C 0.89943 0.57113 0.6313 0.0
C683 C 0.88084 0.56652 0.84071 0.0
C684 C 0.89146 0.57567 0.37304 0.0
C685 C 0.89442 0.57775 0.43566 0.0
C686 C 0.87417 0.57603 0.58393 0.0
C687 C 0.89198 0.57454 0.73809 0.0
C688 C 0.88936 0.57416 0.67122 0.0
C689 C 0.88105 0.57155 0.47714 0.0
C690 C 0.88413 0.57284 0.54397 0.0
H691 H 0.92339 0.58901 0.84198 0.0
H692 H 0.91898 0.58902 0.73302 0.0
H693 H 0.86891 0.57922 0.67626 0.0
H694 H 0.84892 0.55531 0.37581 0.0
H695 H 0.85404 0.55853 0.48468 0.0
C696 C 0.31311 0.87547 0.18176 0.0
C697 C 0.31836 0.89162 0.20388 0.0
C698 C 0.3107 0.87208 0.11936 0.0
C699 C 0.30527 0.88886 0.97232 0.0
H700 H 0.32238 0.86185 0.90304 0.0
C701 C 0.31637 0.88663 0.71383 0.0
C702 C 0.31279 0.8712 0.68867 0.0
C703 C 0.31544 0.88838 0.77672 0.0
C704 C 0.31732 0.86923 0.92166 0.0
H705 H 0.32442 0.91664 0.17756 0.0
H706 H 0.3206 0.91086 0.06926 0.0
H707 H 0.32338 0.86595 0.01257 0.0
H708 H 0.30461 0.84534 0.71002 0.0
H709 H 0.30301 0.84839 0.8193 0.0
H710 H 0.29949 0.89235 0.88106 0.0
C711 C 0.31823 0.90075 0.09997 0.0
C712 C 0.31787 0.87156 0.9846 0.0
C713 C 0.32063 0.90413 0.1622 0.0
C714 C 0.30779 0.85748 0.72783 0.0
C715 C 0.30687 0.85923 0.79058 0.0
C716 C 0.30476 0.88655 0.9093 0.0
C717 C 0.31343 0.88474 0.07757 0.0
C718 C 0.31196 0.8815 0.01078 0.0
C719 C 0.31089 0.87474 0.81595 0.0
C720 C 0.31087 0.87679 0.88314 0.0
H721 H 0.31131 0.86555 0.21236 0.0
H722 H 0.30678 0.85954 0.10383 0.0
H723 H 0.30037 0.89638 0.99091 0.0
H724 H 0.32044 0.89751 0.68524 0.0
H725 H 0.31879 0.90055 0.79475 0.0
C726 C 0.42539 0.30401 0.05002 0.0
C727 C 0.43996 0.30546 0.02421 0.0
C728 C 0.42266 0.30186 0.11295 0.0
C729 C 0.44655 0.3095 0.25678 0.0
H730 H 0.40257 0.28541 0.32974 0.0
C731 C 0.4375 0.30596 0.51815 0.0
C732 C 0.42514 0.30933 0.53928 0.0
C733 C 0.43855 0.30299 0.45617 0.0
C734 C 0.41495 0.29224 0.31007 0.0
H735 H 0.46244 0.30455 0.04352 0.0
H736 H 0.45753 0.30036 0.15258 0.0
H737 H 0.40556 0.2845 0.21975 0.0
H738 H 0.40364 0.31128 0.51233 0.0
H739 H 0.40548 0.30619 0.40479 0.0
H740 H 0.45592 0.31737 0.34693 0.0
C741 C 0.44845 0.30145 0.12486 0.0
C742 C 0.41666 0.29176 0.24688 0.0
C743 C 0.45123 0.30374 0.06221 0.0
C744 C 0.41344 0.30894 0.49745 0.0
C745 C 0.4144 0.30585 0.43579 0.0
C746 C 0.44484 0.30991 0.31988 0.0
C747 C 0.43437 0.30097 0.15149 0.0
C748 C 0.43248 0.30053 0.2192 0.0
C749 C 0.42714 0.30314 0.41404 0.0
C750 C 0.42901 0.30146 0.34736 0.0
H751 H 0.41657 0.30545 0.02206 0.0
H752 H 0.41174 0.30168 0.13159 0.0
H753 H 0.45892 0.3167 0.23736 0.0
H754 H 0.44673 0.30624 0.54909 0.0
H755 H 0.44842 0.30078 0.44109 0.0
C756 C 0.59239 0.91131 0.89186 0.0
C757 C 0.58315 0.89835 0.85026 0.0
C758 C 0.5919 0.90803 0.95407 0.0
C759 C 0.5654 0.87716 0.06975 0.0
H760 H 0.60432 0.90154 0.17253 0.0
C761 C 0.56318 0.86356 0.32638 0.0
C762 C 0.57069 0.87744 0.36547 0.0
C763 C 0.56577 0.86551 0.26362 0.0
C764 C 0.59331 0.89471 0.14451 0.0
H765 H 0.56644 0.87166 0.84191 0.0
H766 H 0.56583 0.86588 0.95039 0.0
H767 H 0.60697 0.90572 0.06265 0.0
H768 H 0.58715 0.90427 0.36884 0.0
H769 H 0.59171 0.90769 0.25929 0.0
H770 H 0.55171 0.86627 0.15153 0.0
C771 C 0.57328 0.87865 0.93481 0.0
C772 C 0.59482 0.8971 0.08148 0.0
C773 C 0.57378 0.88193 0.87244 0.0
C774 C 0.5813 0.89328 0.34027 0.0
C775 C 0.58391 0.89524 0.27736 0.0
C776 C 0.5639 0.87475 0.1327 0.0
C777 C 0.58218 0.8917 0.97652 0.0
C778 C 0.58084 0.88846 0.0433 0.0
C779 C 0.57597 0.8814 0.23817 0.0
C780 C 0.57781 0.88358 0.17095 0.0
H781 H 0.59996 0.92406 0.87645 0.0
H782 H 0.5988 0.91843 0.98473 0.0
H783 H 0.5543 0.8705 0.042 0.0
H784 H 0.55521 0.85113 0.34425 0.0
H785 H 0.55974 0.85454 0.23494 0.0
C786 C 0.69629 0.57917 0.68511 0.0
C787 C 0.69203 0.56335 0.70835 0.0
C788 C 0.69643 0.58177 0.6223 0.0
C789 C 0.68482 0.58018 0.49098 0.0
H790 H 0.70111 0.55879 0.38071 0.0
C791 C 0.66826 0.57171 0.23645 0.0
C792 C 0.68071 0.57418 0.19417 0.0
C793 C 0.67103 0.57165 0.29879 0.0
C794 C 0.69667 0.565 0.41083 0.0
H795 H 0.6843 0.5378 0.68279 0.0
H796 H 0.68468 0.54237 0.57423 0.0
H797 H 0.7039 0.55677 0.49023 0.0
H798 H 0.70594 0.57855 0.18498 0.0
H799 H 0.71074 0.57829 0.29412 0.0
H800 H 0.67755 0.58837 0.41162 0.0
C801 C 0.6882 0.55286 0.60445 0.0
C802 C 0.69811 0.5637 0.47363 0.0
C803 C 0.68799 0.55024 0.66702 0.0
C804 C 0.696 0.57644 0.21607 0.0
C805 C 0.69876 0.57632 0.27866 0.0
C806 C 0.68332 0.58142 0.4282 0.0
C807 C 0.69239 0.56863 0.58124 0.0
C808 C 0.692 0.57108 0.51449 0.0
C809 C 0.68632 0.57399 0.32076 0.0
C810 C 0.68901 0.57366 0.38736 0.0
H811 H 0.69966 0.58961 0.71531 0.0
H812 H 0.69986 0.59412 0.60586 0.0
H813 H 0.67988 0.58592 0.52112 0.0
H814 H 0.6562 0.56957 0.22151 0.0
H815 H 0.66104 0.56945 0.32983 0.0
C816 C 0.118 0.68947 0.54461 0.0
C817 C 0.11092 0.67326 0.52059 0.0
C818 C 0.11715 0.69192 0.60716 0.0
C819 C 0.1114 0.66985 0.75384 0.0
H820 H 0.10716 0.70637 0.82017 0.0
C821 C 0.10824 0.67789 0.01276 0.0
C822 C 0.11854 0.69413 0.03523 0.0
C823 C 0.10526 0.6751 0.95024 0.0
C824 C 0.10843 0.69615 0.80234 0.0
H825 H 0.09648 0.64694 0.54267 0.0
H826 H 0.09473 0.65113 0.65101 0.0
H827 H 0.10588 0.70213 0.71024 0.0
H828 H 0.13296 0.72023 0.00987 0.0
H829 H 0.12791 0.71539 0.90112 0.0
H830 H 0.11412 0.66395 0.84562 0.0
C831 C 0.10141 0.662 0.62219 0.0
C832 C 0.10774 0.69374 0.73927 0.0
C833 C 0.10236 0.65958 0.55998 0.0
C834 C 0.12514 0.70755 0.99399 0.0
C835 C 0.12211 0.70479 0.93162 0.0
C836 C 0.11204 0.67222 0.81675 0.0
C837 C 0.1091 0.67818 0.64694 0.0
C838 C 0.1093 0.6806 0.71414 0.0
C839 C 0.11242 0.68849 0.90877 0.0
C840 C 0.11067 0.68545 0.84187 0.0
H841 H 0.12478 0.70025 0.51546 0.0
H842 H 0.12334 0.70456 0.62455 0.0
H843 H 0.113 0.6598 0.7363 0.0
H844 H 0.10304 0.66726 0.04314 0.0
H845 H 0.09755 0.66241 0.93427 0.0
C846 C 0.43134 0.10557 0.35874 0.0
C847 C 0.42476 0.11533 0.38111 0.0
C848 C 0.43097 0.10232 0.29636 0.0
C849 C 0.41111 0.10289 0.14993 0.0
H850 H 0.45241 0.10947 0.07986 0.0
C851 C 0.42456 0.11037 0.88982 0.0
C852 C 0.43479 0.10455 0.8658 0.0
C853 C 0.42164 0.10974 0.95264 0.0
C854 C 0.44065 0.10727 0.09852 0.0
H855 H 0.41187 0.12858 0.35568 0.0
H856 H 0.41129 0.123 0.24714 0.0
H857 H 0.45026 0.11148 0.18922 0.0
H858 H 0.44902 0.0925 0.88798 0.0
H859 H 0.44357 0.09089 0.99679 0.0
H860 H 0.40152 0.09875 0.059 0.0
C861 C 0.41675 0.11785 0.27766 0.0
C862 C 0.43944 0.10845 0.16148 0.0
C863 C 0.41723 0.1212 0.33989 0.0
C864 C 0.4413 0.0973 0.90539 0.0
C865 C 0.43825 0.0965 0.96785 0.0
C866 C 0.41228 0.10161 0.08682 0.0
C867 C 0.42388 0.10863 0.25491 0.0
C868 C 0.4247 0.10639 0.18805 0.0
C869 C 0.42877 0.10312 0.9927 0.0
C870 C 0.42711 0.10386 0.06014 0.0
H871 H 0.43732 0.10095 0.3891 0.0
H872 H 0.43641 0.09501 0.28047 0.0
H873 H 0.39951 0.10108 0.16894 0.0
H874 H 0.41953 0.11617 0.86045 0.0
H875 H 0.41438 0.11508 0.96994 0.0
C876 C 0.30212 0.42322 0.6346 0.0
C877 C 0.30616 0.43895 0.65824 0.0
C878 C 0.30226 0.42079 0.5717 0.0
C879 C 0.31442 0.42259 0.44099 0.0
H880 H 0.29936 0.44473 0.3291 0.0
C881 C 0.33216 0.4308 0.18689 0.0
C882 C 0.3201 0.4289 0.14371 0.0
C883 C 0.32915 0.43092 0.24911 0.0
C884 C 0.30347 0.43831 0.35961 0.0
H885 H 0.31371 0.46449 0.63303 0.0
H886 H 0.31386 0.46023 0.52451 0.0
H887 H 0.29588 0.44647 0.43828 0.0
H888 H 0.29531 0.4256 0.13298 0.0
H889 H 0.29011 0.42591 0.24172 0.0
H890 H 0.32198 0.4144 0.36235 0.0
C891 C 0.31028 0.44966 0.55441 0.0
C892 C 0.30163 0.43946 0.42233 0.0
C893 C 0.31018 0.4521 0.61707 0.0
C894 C 0.30497 0.42727 0.16469 0.0
C895 C 0.30197 0.42742 0.22714 0.0
C896 C 0.3163 0.42148 0.37829 0.0
C897 C 0.30641 0.43402 0.53079 0.0
C898 C 0.30727 0.43179 0.4639 0.0
C899 C 0.31402 0.42918 0.27018 0.0
C900 C 0.31104 0.42951 0.33677 0.0
H901 H 0.29877 0.41274 0.66457 0.0
H902 H 0.29904 0.40852 0.55508 0.0
H903 H 0.31902 0.41662 0.47155 0.0
H904 H 0.34409 0.43245 0.17278 0.0
H905 H 0.33887 0.43267 0.28076 0.0
C906 C 0.88249 0.32027 0.5654 0.0
C907 C 0.89616 0.31946 0.54166 0.0
C908 C 0.88074 0.3212 0.6281 0.0
C909 C 0.90376 0.33261 0.77215 0.0
H910 H 0.86086 0.30145 0.84312 0.0
C911 C 0.89417 0.32381 0.03182 0.0
C912 C 0.87901 0.32142 0.05567 0.0
C913 C 0.89646 0.32374 0.96906 0.0
C914 C 0.87286 0.31041 0.82406 0.0
H915 H 0.91901 0.31961 0.56446 0.0
H916 H 0.91603 0.32135 0.67421 0.0
H917 H 0.86461 0.30184 0.73345 0.0
H918 H 0.8543 0.31684 0.03143 0.0
H919 H 0.85853 0.31738 0.92268 0.0
H920 H 0.91198 0.34139 0.86251 0.0
C921 C 0.90665 0.3212 0.64432 0.0
C922 C 0.87499 0.3106 0.76123 0.0
C923 C 0.90829 0.32007 0.58168 0.0
C924 C 0.86622 0.31893 0.01507 0.0
C925 C 0.86856 0.319 0.95242 0.0
C926 C 0.90159 0.33255 0.83502 0.0
C927 C 0.89273 0.32154 0.66815 0.0
C928 C 0.89046 0.32167 0.73469 0.0
C929 C 0.8837 0.32139 0.92858 0.0
C930 C 0.8861 0.32143 0.86176 0.0
H931 H 0.87288 0.31967 0.53565 0.0
H932 H 0.86996 0.32158 0.64532 0.0
H933 H 0.91578 0.34137 0.75272 0.0
H934 H 0.90438 0.32594 0.0614 0.0
H935 H 0.90821 0.32541 0.95233 0.0
C936 C 0.09743 0.50078 1.00789 0.0
C937 C 0.10126 0.49239 0.05275 0.0
C938 C 0.0974 0.51554 0.02191 0.0
C939 C 0.11705 0.55117 0.1238 0.0
H940 H 0.08031 0.55852 0.08554 0.0
C941 C 0.11612 0.609 0.21352 0.0
C942 C 0.10916 0.61644 0.17721 0.0
C943 C 0.11456 0.5937 0.1971 0.0
C944 C 0.09081 0.55682 0.09569 0.0
H945 H 0.10805 0.49283 0.14729 0.0
H946 H 0.10825 0.51872 0.17146 0.0
H947 H 0.07853 0.53205 0.05824 0.0
H948 H 0.09511 0.61377 0.09524 0.0
H949 H 0.09286 0.58727 0.06498 0.0
H950 H 0.12966 0.57594 0.15941 0.0
C951 C 0.10513 0.51381 0.12568 0.0
C952 C 0.08972 0.5416 0.08028 0.0
C953 C 0.10488 0.49893 0.11197 0.0
C954 C 0.10052 0.60824 0.12417 0.0
C955 C 0.09917 0.59301 0.1071 0.0
C956 C 0.11827 0.56644 0.13828 0.0
C957 C 0.10154 0.52233 0.08071 0.0
C958 C 0.10276 0.53858 0.09491 0.0
C959 C 0.10623 0.58555 0.14328 0.0
C960 C 0.10509 0.56943 0.12524 0.0
H961 H 0.09456 0.49598 0.96191 0.0
H962 H 0.09465 0.52192 0.98638 0.0
H963 H 0.12741 0.54926 0.13465 0.0
H964 H 0.1226 0.61492 0.25524 0.0
H965 H 0.11977 0.58821 0.22713 0.0
C966 C 0.59867 0.09069 0.42714 0.0
C967 C 0.61301 0.10351 0.45539 0.0
C968 C 0.58291 0.08869 0.43913 0.0
C969 C 0.55366 0.09511 0.44092 0.0
H970 H 0.54129 0.10158 0.60276 0.0
C971 C 0.49907 0.10728 0.48646 0.0
C972 C 0.48932 0.10029 0.53888 0.0
C973 C 0.51323 0.10589 0.47579 0.0
C974 C 0.54445 0.09954 0.55737 0.0
H975 H 0.62192 0.12385 0.52015 0.0
H976 H 0.5945 0.1205 0.54049 0.0
H977 H 0.56763 0.10207 0.58729 0.0
H978 H 0.48672 0.08607 0.62067 0.0
H979 H 0.5112 0.08335 0.60141 0.0
H980 H 0.53044 0.09253 0.41105 0.0
C981 C 0.5954 0.11193 0.50928 0.0
C982 C 0.55965 0.10002 0.54841 0.0
C983 C 0.61115 0.11397 0.49717 0.0
C984 C 0.49383 0.09146 0.57951 0.0
C985 C 0.508 0.09009 0.56888 0.0
C986 C 0.53847 0.09467 0.44987 0.0
C987 C 0.58111 0.09941 0.47983 0.0
C988 C 0.56451 0.09796 0.48999 0.0
C989 C 0.51801 0.09748 0.51733 0.0
C990 C 0.53374 0.09703 0.50813 0.0
H991 H 0.59967 0.08251 0.3943 0.0
H992 H 0.57213 0.07879 0.4162 0.0
H993 H 0.55708 0.09364 0.39522 0.0
H994 H 0.49587 0.11402 0.45394 0.0
H995 H 0.52072 0.11185 0.43587 0.0
C996 C 0.50584 0.60605 0.73819 0.0
C997 C 0.51059 0.61945 0.77849 0.0
C998 C 0.4913 0.59076 0.74861 0.0
C999 C 0.46017 0.56654 0.86961 0.0
H1000 H 0.43305 0.54079 0.73293 0.0
C1001 C 0.39233 0.51197 0.89359 0.0
C1002 C 0.38813 0.49721 0.8615 0.0
C1003 C 0.4077 0.52645 0.88427 0.0
C1004 C 0.44059 0.54778 0.77148 0.0
H1005 H 0.5037 0.62753 0.86043 0.0
H1006 H 0.47813 0.60112 0.87774 0.0
H1007 H 0.45888 0.56698 0.71467 0.0
H1008 H 0.39718 0.4862 0.79512 0.0
H1009 H 0.42378 0.51169 0.77765 0.0
H1010 H 0.44149 0.5475 0.92629 0.0
C1011 C 0.48583 0.60213 0.83911 0.0
C1012 C 0.45544 0.56278 0.7611 0.0
C1013 C 0.50046 0.61732 0.8291 0.0
C1014 C 0.39979 0.49737 0.81988 0.0
C1015 C 0.41508 0.51194 0.80998 0.0
C1016 C 0.44521 0.55166 0.87994 0.0
C1017 C 0.48106 0.5886 0.79917 0.0
C1018 C 0.46542 0.5724 0.81004 0.0
C1019 C 0.41917 0.52662 0.84207 0.0
C1020 C 0.43526 0.54217 0.83101 0.0
H1021 H 0.51351 0.60732 0.6991 0.0
H1022 H 0.48823 0.58058 0.71738 0.0
H1023 H 0.46766 0.57337 0.90845 0.0
H1024 H 0.3836 0.51249 0.92502 0.0
H1025 H 0.41047 0.53767 0.90907 0.0
C1026 C 0.90336 0.39816 0.22869 0.0
C1027 C 0.90171 0.39195 0.28818 0.0
C1028 C 0.90362 0.41315 0.21767 0.0
C1029 C 0.91057 0.45226 0.28854 0.0
H1030 H 0.88412 0.45265 0.15246 0.0
C1031 C 0.9135 0.51261 0.19487 0.0
C1032 C 0.89822 0.51127 0.17769 0.0
C1033 C 0.91425 0.49838 0.21172 0.0
C1034 C 0.89149 0.45274 0.19086 0.0
H1035 H 0.89928 0.39683 0.38289 0.0
H1036 H 0.89961 0.42309 0.36347 0.0
H1037 H 0.88479 0.4273 0.1761 0.0
H1038 H 0.87164 0.49401 0.16787 0.0
H1039 H 0.87301 0.46934 0.19654 0.0
H1040 H 0.91711 0.47776 0.30342 0.0
C1041 C 0.90084 0.41634 0.32548 0.0
C1042 C 0.89202 0.43825 0.20403 0.0
C1043 C 0.90051 0.40124 0.33655 0.0
C1044 C 0.8837 0.49546 0.1792 0.0
C1045 C 0.88446 0.4813 0.19584 0.0
C1046 C 0.91012 0.46684 0.2751 0.0
C1047 C 0.90219 0.42234 0.26577 0.0
C1048 C 0.90158 0.43782 0.25291 0.0
C1049 C 0.89976 0.48254 0.21164 0.0
C1050 C 0.90052 0.46722 0.22617 0.0
H1051 H 0.90403 0.39123 0.19018 0.0
H1052 H 0.90486 0.4175 0.17122 0.0
H1053 H 0.91814 0.45235 0.32626 0.0
H1054 H 0.92493 0.52458 0.19393 0.0
H1055 H 0.92625 0.49973 0.22324 0.0
C1056 C 0.51638 0.91806 0.56582 0.0
C1057 C 0.51547 0.90258 0.57479 0.0
C1058 C 0.50184 0.9189 0.55587 0.0
C1059 C 0.4557 0.89376 0.57466 0.0
H1060 H 0.45502 0.92454 0.45654 0.0
C1061 C 0.39449 0.88625 0.48011 0.0
C1062 C 0.39288 0.90056 0.47697 0.0
C1063 C 0.40986 0.88759 0.49356 0.0
C1064 C 0.45509 0.91601 0.49013 0.0
H1065 H 0.49867 0.87581 0.57803 0.0
H1066 H 0.47349 0.8772 0.55991 0.0
H1067 H 0.48117 0.92486 0.47724 0.0
H1068 H 0.40621 0.92754 0.48463 0.0
H1069 H 0.43327 0.9299 0.50775 0.0
H1070 H 0.42957 0.88464 0.58639 0.0
C1071 C 0.48531 0.88878 0.56238 0.0
C1072 C 0.47006 0.9162 0.50214 0.0
C1073 C 0.49977 0.88796 0.57268 0.0
C1074 C 0.40707 0.91629 0.48696 0.0
C1075 C 0.42255 0.91765 0.4998 0.0
C1076 C 0.44076 0.89348 0.5623 0.0
C1077 C 0.4861 0.90425 0.55429 0.0
C1078 C 0.4705 0.9049 0.54396 0.0
C1079 C 0.42405 0.90328 0.50383 0.0
C1080 C 0.44023 0.90444 0.51934 0.0
H1081 H 0.52829 0.92955 0.56749 0.0
H1082 H 0.50292 0.93103 0.55037 0.0
H1083 H 0.45562 0.88516 0.60828 0.0
H1084 H 0.38376 0.87393 0.4734 0.0
H1085 H 0.41065 0.87631 0.49574 0.0
C1086 C 0.61178 0.49548 0.89255 0.0
C1087 C 0.61299 0.51118 0.89821 0.0
C1088 C 0.59653 0.48128 0.87934 0.0
C1089 C 0.55411 0.46685 0.81814 0.0
H1090 H 0.54446 0.42582 0.89994 0.0
C1091 C 0.49038 0.40438 0.80154 0.0
C1092 C 0.49148 0.38988 0.79332 0.0
C1093 C 0.50474 0.41979 0.81318 0.0
C1094 C 0.54701 0.43714 0.87637 0.0
H1095 H 0.59913 0.52433 0.89318 0.0
H1096 H 0.57228 0.49938 0.87069 0.0
H1097 H 0.57013 0.45155 0.92317 0.0
H1098 H 0.50858 0.38024 0.79105 0.0
H1099 H 0.53349 0.40698 0.81078 0.0
H1100 H 0.53077 0.45225 0.77169 0.0
C1101 C 0.58323 0.49812 0.87598 0.0
C1102 C 0.56176 0.45191 0.88957 0.0
C1103 C 0.5986 0.51241 0.88896 0.0
C1104 C 0.50727 0.39117 0.79631 0.0
C1105 C 0.52155 0.40648 0.80838 0.0
C1106 C 0.53924 0.45202 0.80516 0.0
C1107 C 0.58199 0.48234 0.87168 0.0
C1108 C 0.56568 0.46691 0.85991 0.0
C1109 C 0.52045 0.42093 0.81762 0.0
C1110 C 0.53568 0.43696 0.83344 0.0
H1111 H 0.62271 0.49416 0.89789 0.0
H1112 H 0.59617 0.46945 0.87473 0.0
H1113 H 0.55676 0.47814 0.79416 0.0
H1114 H 0.4784 0.40381 0.79922 0.0
H1115 H 0.50349 0.4307 0.8203 0.0
C1116 C 0.26321 0.42548 0.99635 0.0
C1117 C 0.26876 0.41922 0.94932 0.0
C1118 C 0.24624 0.41964 1.00467 0.0
C1119 C 0.20777 0.40315 0.91731 0.0
H1120 H 0.18989 0.40366 0.07626 0.0
C1121 C 0.14698 0.40683 0.95607 0.0
C1122 C 0.15122 0.42166 0.9874 0.0
C1123 C 0.1583 0.40086 0.9538 0.0
C1124 C 0.19457 0.4032 0.03158 0.0
H1125 H 0.26091 0.40139 0.87554 0.0
H1126 H 0.2309 0.39114 0.88972 0.0
H1127 H 0.21562 0.40252 0.06843 0.0
H1128 H 0.17 0.44143 0.04312 0.0
H1129 H 0.18933 0.43078 0.04112 0.0
H1130 H 0.18697 0.40456 0.88081 0.0
C1131 C 0.23979 0.40059 0.92025 0.0
C1132 C 0.20935 0.40263 0.02702 0.0
C1133 C 0.25692 0.40634 0.91241 0.0
C1134 C 0.16648 0.42998 0.01856 0.0
C1135 C 0.17749 0.42383 0.01769 0.0
C1136 C 0.19285 0.40355 0.92192 0.0
C1137 C 0.2343 0.40745 0.96583 0.0
C1138 C 0.2166 0.40348 0.96994 0.0
C1139 C 0.17369 0.4094 0.98449 0.0
C1140 C 0.18657 0.40439 0.97917 0.0
H1141 H 0.27207 0.43539 0.0256 0.0
H1142 H 0.24258 0.42543 0.03962 0.0
H1143 H 0.21302 0.40389 0.87265 0.0
H1144 H 0.13531 0.40029 0.93137 0.0
H1145 H 0.15514 0.38974 0.92768 0.0
C1146 C 0.8496 0.26242 0.24976 0.0
C1147 C 0.85327 0.26913 0.3087 0.0
C1148 C 0.83661 0.246 0.24029 0.0
C1149 C 0.80916 0.2053 0.31159 0.0
H1150 H 0.77358 0.20493 0.21759 0.0
C1151 C 0.74035 0.15323 0.33849 0.0
C1152 C 0.72885 0.15075 0.29248 0.0
C1153 C 0.75719 0.16549 0.33209 0.0
C1154 C 0.78341 0.20447 0.2426 0.0
H1155 H 0.84714 0.26376 0.40407 0.0
H1156 H 0.82497 0.23492 0.38776 0.0
H1157 H 0.80079 0.22999 0.22053 0.0
H1158 H 0.72597 0.158 0.20186 0.0
H1159 H 0.75544 0.17841 0.18834 0.0
H1160 H 0.79197 0.17979 0.33348 0.0
C1161 C 0.83193 0.24234 0.34891 0.0
C1162 C 0.79906 0.21898 0.24441 0.0
C1163 C 0.84458 0.25884 0.35821 0.0
C1164 C 0.73463 0.15979 0.23816 0.0
C1165 C 0.75152 0.17167 0.23093 0.0
C1166 C 0.7936 0.19061 0.30865 0.0
C1167 C 0.82743 0.23594 0.28977 0.0
C1168 C 0.81195 0.21969 0.28014 0.0
C1169 C 0.76297 0.17528 0.27883 0.0
C1170 C 0.78029 0.1901 0.27549 0.0
H1171 H 0.856 0.27018 0.21082 0.0
H1172 H 0.83333 0.24134 0.19425 0.0
H1173 H 0.81895 0.20553 0.33937 0.0
H1174 H 0.73613 0.14655 0.38117 0.0
H1175 H 0.76537 0.16788 0.37051 0.0
C1176 C 0.60333 0.85947 0.66358 0.0
C1177 C 0.58973 0.85589 0.62567 0.0
C1178 C 0.60919 0.84811 0.66824 0.0
C1179 C 0.60821 0.81194 0.59191 0.0
H1180 H 0.60478 0.79361 0.75321 0.0
C1181 C 0.58473 0.74318 0.63274 0.0
C1182 C 0.59035 0.73772 0.68211 0.0
C1183 C 0.5908 0.76014 0.62299 0.0
C1184 C 0.60627 0.79881 0.70802 0.0
H1185 H 0.57208 0.83828 0.56105 0.0
H1186 H 0.58257 0.81885 0.5674 0.0
H1187 H 0.60454 0.81976 0.74074 0.0
H1188 H 0.60726 0.7457 0.75879 0.0
H1189 H 0.61789 0.77571 0.74217 0.0
H1190 H 0.60915 0.79069 0.55876 0.0
C1191 C 0.58871 0.83025 0.59385 0.0
C1192 C 0.60611 0.8138 0.7009 0.0
C1193 C 0.58265 0.84132 0.59036 0.0
C1194 C 0.60284 0.74963 0.72008 0.0
C1195 C 0.60879 0.76675 0.71083 0.0
C1196 C 0.60847 0.79706 0.59901 0.0
C1197 C 0.60178 0.83329 0.6338 0.0
C1198 C 0.60629 0.82009 0.64254 0.0
C1199 C 0.60256 0.77216 0.66279 0.0
C1200 C 0.60667 0.78988 0.65688 0.0
H1201 H 0.60883 0.87056 0.69176 0.0
H1202 H 0.61925 0.85072 0.69953 0.0
H1203 H 0.6086 0.81663 0.54644 0.0
H1204 H 0.57511 0.73424 0.60275 0.0
H1205 H 0.58551 0.76375 0.5861 0.0
C1206 C 0.8396 0.57348 1.00509 0.0
C1207 C 0.85195 0.58149 0.04969 0.0
C1208 C 0.82833 0.57887 0.99205 0.0
C1209 C 0.80711 0.5986 0.06372 0.0
H1210 H 0.78869 0.59343 0.9016 0.0
C1211 C 0.74349 0.59556 1.00824 0.0
C1212 C 0.73257 0.57997 0.98207 0.0
C1213 C 0.76065 0.60103 0.01296 0.0
C1214 C 0.79384 0.59519 0.947 0.0
H1215 H 0.86256 0.60186 0.11436 0.0
H1216 H 0.84249 0.6113 0.09196 0.0
H1217 H 0.81522 0.59418 0.91579 0.0
H1218 H 0.73093 0.55826 0.93798 0.0
H1219 H 0.76068 0.56799 0.94417 0.0
H1220 H 0.78522 0.59886 0.09484 0.0
C1221 C 0.84167 0.60082 0.067 0.0
C1222 C 0.80898 0.59554 0.95522 0.0
C1223 C 0.8532 0.59551 0.07955 0.0
C1224 C 0.73908 0.5703 0.95858 0.0
C1225 C 0.75612 0.57591 0.9618 0.0
C1226 C 0.79197 0.59839 0.05536 0.0
C1227 C 0.82896 0.59239 0.02358 0.0
C1228 C 0.81538 0.59639 0.01394 0.0
C1229 C 0.76707 0.59119 0.98975 0.0
C1230 C 0.78484 0.59591 0.99718 0.0
H1231 H 0.83836 0.56268 0.9811 0.0
H1232 H 0.81859 0.57189 0.95907 0.0
H1233 H 0.81165 0.59921 0.10955 0.0
H1234 H 0.7387 0.60316 0.02698 0.0
H1235 H 0.76885 0.61283 0.03493 0.0
C1236 C 0.26549 0.83072 0.45455 0.0
C1237 C 0.27165 0.8468 0.43045 0.0
C1238 C 0.24851 0.81903 0.45223 0.0
C1239 C 0.21209 0.80548 0.35963 0.0
H1240 H 0.18987 0.77636 0.49682 0.0
C1241 C 0.15121 0.74151 0.33041 0.0
C1242 C 0.15259 0.72841 0.3568 0.0
C1243 C 0.16265 0.75819 0.34558 0.0
C1244 C 0.19583 0.7844 0.45806 0.0
H1245 H 0.26489 0.86341 0.38563 0.0
H1246 H 0.23484 0.84251 0.37954 0.0
H1247 H 0.21626 0.80223 0.5121 0.0
H1248 H 0.16626 0.72235 0.42217 0.0
H1249 H 0.18592 0.75108 0.44891 0.0
H1250 H 0.19223 0.78706 0.30482 0.0
C1251 C 0.24329 0.83917 0.40118 0.0
C1252 C 0.2109 0.79925 0.46691 0.0
C1253 C 0.26039 0.85111 0.40488 0.0
C1254 C 0.16491 0.73219 0.40101 0.0
C1255 C 0.17613 0.74871 0.41665 0.0
C1256 C 0.19701 0.79051 0.35064 0.0
C1257 C 0.23723 0.82298 0.42467 0.0
C1258 C 0.21953 0.8096 0.41744 0.0
C1259 C 0.17545 0.76197 0.38815 0.0
C1260 C 0.18909 0.77945 0.3994 0.0
H1261 H 0.2739 0.82708 0.47465 0.0
H1262 H 0.24428 0.80661 0.47001 0.0
H1263 H 0.21852 0.81318 0.32062 0.0
H1264 H 0.14189 0.73893 0.29582 0.0
H1265 H 0.16175 0.76811 0.32299 0.0
C1266 C 0.40884 0.25691 0.75204 0.0
C1267 C 0.42388 0.26799 0.78135 0.0
C1268 C 0.40368 0.23982 0.74825 0.0
C1269 C 0.41041 0.207 0.81636 0.0
H1270 H 0.40531 0.18931 0.65314 0.0
C1271 C 0.43171 0.16113 0.75066 0.0
C1272 C 0.4234 0.14905 0.70548 0.0
C1273 C 0.42643 0.17237 0.76623 0.0
C1274 C 0.40626 0.19382 0.69921 0.0
H1275 H 0.44481 0.26989 0.83227 0.0
H1276 H 0.43567 0.24029 0.82714 0.0
H1277 H 0.40542 0.21551 0.66968 0.0
H1278 H 0.40257 0.13879 0.64269 0.0
H1279 H 0.39332 0.15869 0.66969 0.0
H1280 H 0.41198 0.18578 0.84577 0.0
C1281 C 0.42788 0.24465 0.80665 0.0
C1282 C 0.40633 0.20885 0.70864 0.0
C1283 C 0.43318 0.26163 0.80925 0.0
C1284 C 0.40916 0.14793 0.67796 0.0
C1285 C 0.40396 0.15939 0.69307 0.0
C1286 C 0.41025 0.19198 0.80702 0.0
C1287 C 0.41327 0.23357 0.77515 0.0
C1288 C 0.40914 0.21595 0.76699 0.0
C1289 C 0.41275 0.17194 0.73667 0.0
C1290 C 0.40895 0.18559 0.74801 0.0
H1291 H 0.40152 0.26156 0.72981 0.0
H1292 H 0.39237 0.23156 0.72362 0.0
H1293 H 0.41233 0.21205 0.86197 0.0
H1294 H 0.4427 0.16227 0.77277 0.0
H1295 H 0.43367 0.18197 0.79935 0.0
loop_
_geom_bond_atom_site_label_1
_geom_bond_atom_site_label_2
_geom_bond_distance
_geom_bond_site_symmetry_2
_ccdc_geom_bond_type
C0 C1 1.351 . S
C0 N3 1.368 . S
C0 H5 0.931 . S
C1 C0 1.351 . S
C1 N2 1.373 . S
C1 H29 0.930 . S
N2 C1 1.373 . S
N2 C4 1.340 . S
N3 C0 1.368 . S
N3 C4 1.321 . S
N3 Co6 2.135 . S
C4 N2 1.340 . S
C4 N3 1.321 . S
C4 H28 0.930 . S
H5 C0 0.931 . S
Co6 N3 2.135 . S
Co6 N9 2.121 . S
Co6 O14 2.055 . S
Co6 O17 2.039 . S
Co6 N20 2.140 . S
C7 O8 1.227 . S
C7 O17 1.265 . S
O8 C7 1.227 . S
N9 Co6 2.121 . S
N9 C11 1.375 . S
N9 C12 1.313 1_554 S
C10 C11 1.338 1_556 S
C10 N13 1.377 . S
C10 H30 0.930 . S
C11 N9 1.375 . S
C11 C10 1.338 1_554 S
C11 H15 0.931 . S
C12 N9 1.313 1_556 S
C12 N13 1.344 . S
C12 H16 0.930 . S
N13 C10 1.377 . S
N13 C12 1.344 . S
O14 Co6 2.055 . S
O14 C18 1.253 . S
H15 C11 0.931 . S
H16 C12 0.930 . S
O17 Co6 2.039 . S
O17 C7 1.265 . S
C18 O14 1.253 . S
C18 O19 1.227 . S
O19 C18 1.227 . S
N20 Co6 2.140 . S
N20 C23 1.346 . S
N20 C24 1.345 . S
C21 C22 1.387 . S
C21 C25 1.391 . S
C22 C21 1.387 . S
C22 C23 1.369 . S
C22 H31 0.929 . S
C23 N20 1.346 . S
C23 C22 1.369 . S
C23 H26 0.928 . S
C24 N20 1.345 . S
C24 C25 1.371 . S
C24 H27 0.931 . S
C25 C21 1.391 . S
C25 C24 1.371 . S
C25 H32 0.930 . S
H26 C23 0.928 . S
H27 C24 0.931 . S
H28 C4 0.930 . S
H29 C1 0.930 . S
H30 C10 0.930 . S
H31 C22 0.929 . S
H32 C25 0.930 . S
C33 C34 1.351 . S
C33 N36 1.368 . S
C33 H38 0.931 . S
C34 C33 1.351 . S
C34 N35 1.373 . S
C34 H62 0.930 . S
N35 C34 1.373 . S
N35 C37 1.340 . S
N36 C33 1.368 . S
N36 C37 1.321 . S
N36 Co39 2.135 . S
C37 N35 1.340 . S
C37 N36 1.321 . S
C37 H61 0.930 . S
H38 C33 0.931 . S
Co39 N36 2.135 . S
Co39 N42 2.121 . S
Co39 O47 2.055 . S
Co39 O50 2.039 . S
Co39 N53 2.140 . S
C40 O41 1.227 . S
C40 O50 1.265 . S
O41 C40 1.227 . S
N42 Co39 2.121 . S
N42 C44 1.375 . S
N42 C45 1.313 . S
C43 C44 1.338 . S
C43 N46 1.377 . S
C43 H63 0.930 . S
C44 N42 1.375 . S
C44 C43 1.338 . S
C44 H48 0.931 . S
C45 N42 1.313 . S
C45 N46 1.344 . S
C45 H49 0.930 . S
N46 C43 1.377 . S
N46 C45 1.344 . S
O47 Co39 2.055 . S
O47 C51 1.253 . S
H48 C44 0.931 . S
H49 C45 0.930 . S
O50 Co39 2.039 . S
O50 C40 1.265 . S
C51 O47 1.253 . S
C51 O52 1.227 . S
O52 C51 1.227 . S
N53 Co39 2.140 . S
N53 C56 1.346 . S
N53 C57 1.345 . S
C54 C55 1.387 . S
C54 C58 1.391 . S
C55 C54 1.387 . S
C55 C56 1.369 . S
C55 H64 0.929 . S
C56 N53 1.346 . S
C56 C55 1.369 . S
C56 H59 0.928 . S
C57 N53 1.345 . S
C57 C58 1.371 . S
C57 H60 0.931 . S
C58 C54 1.391 . S
C58 C57 1.371 . S
C58 H65 0.930 . S
H59 C56 0.928 . S
H60 C57 0.931 . S
H61 C37 0.930 . S
H62 C34 0.930 . S
H63 C43 0.930 . S
H64 C55 0.929 . S
H65 C58 0.930 . S
C66 C67 1.351 . S
C66 N69 1.368 . S
C66 H71 0.931 . S
C67 C66 1.351 . S
C67 N68 1.373 . S
C67 H95 0.930 . S
N68 C67 1.373 . S
N68 C70 1.340 . S
N69 C66 1.368 . S
N69 C70 1.321 . S
N69 Co72 2.135 . S
C70 N68 1.340 . S
C70 N69 1.321 . S
C70 H94 0.930 . S
H71 C66 0.931 . S
Co72 N69 2.135 . S
Co72 N75 2.121 . S
Co72 O80 2.055 . S
Co72 O83 2.039 . S
Co72 N86 2.140 . S
C73 O74 1.227 . S
C73 O83 1.265 . S
O74 C73 1.227 . S
N75 Co72 2.121 . S
N75 C77 1.375 . S
N75 C78 1.313 . S
C76 C77 1.338 . S
C76 N79 1.377 . S
C76 H96 0.930 . S
C77 N75 1.375 . S
C77 C76 1.338 . S
C77 H81 0.931 . S
C78 N75 1.313 . S
C78 N79 1.344 . S
C78 H82 0.930 . S
N79 C76 1.377 . S
N79 C78 1.344 . S
O80 Co72 2.055 . S
O80 C84 1.253 . S
H81 C77 0.931 . S
H82 C78 0.930 . S
O83 Co72 2.039 . S
O83 C73 1.265 . S
C84 O80 1.253 . S
C84 O85 1.227 . S
O85 C84 1.227 . S
N86 Co72 2.140 . S
N86 C89 1.346 . S
N86 C90 1.345 . S
C87 C88 1.387 . S
C87 C91 1.391 . S
C88 C87 1.387 . S
C88 C89 1.369 . S
C88 H97 0.929 . S
C89 N86 1.346 . S
C89 C88 1.369 . S
C89 H92 0.928 . S
C90 N86 1.345 . S
C90 C91 1.371 . S
C90 H93 0.931 . S
C91 C87 1.391 . S
C91 C90 1.371 . S
C91 H98 0.930 . S
H92 C89 0.928 . S
H93 C90 0.931 . S
H94 C70 0.930 . S
H95 C67 0.930 . S
H96 C76 0.930 . S
H97 C88 0.929 . S
H98 C91 0.930 . S
C99 C100 1.351 . S
C99 N102 1.368 . S
C99 H104 0.931 . S
C100 C99 1.351 . S
C100 N101 1.373 . S
C100 H128 0.930 . S
N101 C100 1.373 . S
N101 C103 1.340 . S
N102 C99 1.368 . S
N102 C103 1.321 . S
N102 Co105 2.135 . S
C103 N101 1.340 . S
C103 N102 1.321 . S
C103 H127 0.930 . S
H104 C99 0.931 . S
Co105 N102 2.135 . S
Co105 N108 2.121 . S
Co105 O113 2.055 . S
Co105 O116 2.039 . S
Co105 N119 2.140 . S
C106 O107 1.227 . S
C106 O116 1.265 . S
O107 C106 1.227 . S
N108 Co105 2.121 . S
N108 C110 1.375 . S
N108 C111 1.313 1_554 S
C109 C110 1.338 1_556 S
C109 N112 1.377 . S
C109 H129 0.930 . S
C110 N108 1.375 . S
C110 C109 1.338 1_554 S
C110 H114 0.931 . S
C111 N108 1.313 1_556 S
C111 N112 1.344 . S
C111 H115 0.930 . S
N112 C109 1.377 . S
N112 C111 1.344 . S
O113 Co105 2.055 . S
O113 C117 1.253 . S
H114 C110 0.931 . S
H115 C111 0.930 . S
O116 Co105 2.039 . S
O116 C106 1.265 . S
C117 O113 1.253 . S
C117 O118 1.227 . S
O118 C117 1.227 . S
N119 Co105 2.140 . S
N119 C122 1.346 . S
N119 C123 1.345 . S
C120 C121 1.387 . S
C120 C124 1.391 . S
C121 C120 1.387 . S
C121 C122 1.369 . S
C121 H130 0.929 . S
C122 N119 1.346 . S
C122 C121 1.369 . S
C122 H125 0.928 . S
C123 N119 1.345 . S
C123 C124 1.371 . S
C123 H126 0.931 . S
C124 C120 1.391 . S
C124 C123 1.371 . S
C124 H131 0.930 . S
H125 C122 0.928 . S
H126 C123 0.931 . S
H127 C103 0.930 . S
H128 C100 0.930 . S
H129 C109 0.930 . S
H130 C121 0.929 . S
H131 C124 0.930 . S
C132 C133 1.351 . S
C132 N135 1.368 . S
C132 H137 0.931 . S
C133 C132 1.351 . S
C133 N134 1.373 . S
C133 H161 0.930 . S
N134 C133 1.373 . S
N134 C136 1.340 . S
N135 C132 1.368 . S
N135 C136 1.321 . S
N135 Co138 2.135 . S
C136 N134 1.340 . S
C136 N135 1.321 . S
C136 H160 0.930 . S
H137 C132 0.931 . S
Co138 N135 2.135 . S
Co138 N141 2.121 . S
Co138 O146 2.055 . S
Co138 O149 2.039 . S
Co138 N152 2.140 . S
C139 O140 1.227 . S
C139 O149 1.265 . S
O140 C139 1.227 . S
N141 Co138 2.121 . S
N141 C143 1.375 . S
N141 C144 1.313 . S
C142 C143 1.338 . S
C142 N145 1.377 . S
C142 H162 0.930 . S
C143 N141 1.375 . S
C143 C142 1.338 . S
C143 H147 0.931 . S
C144 N141 1.313 . S
C144 N145 1.344 . S
C144 H148 0.930 . S
N145 C142 1.377 . S
N145 C144 1.344 . S
O146 Co138 2.055 . S
O146 C150 1.253 . S
H147 C143 0.931 . S
H148 C144 0.930 . S
O149 Co138 2.039 . S
O149 C139 1.265 . S
C150 O146 1.253 . S
C150 O151 1.227 . S
O151 C150 1.227 . S
N152 Co138 2.140 . S
N152 C155 1.346 . S
N152 C156 1.345 . S
C153 C154 1.387 . S
C153 C157 1.391 . S
C154 C153 1.387 . S
C154 C155 1.369 . S
C154 H163 0.929 . S
C155 N152 1.346 . S
C155 C154 1.369 . S
C155 H158 0.928 . S
C156 N152 1.345 . S
C156 C157 1.371 . S
C156 H159 0.931 . S
C157 C153 1.391 . S
C157 C156 1.371 . S
C157 H164 0.930 . S
H158 C155 0.928 . S
H159 C156 0.931 . S
H160 C136 0.930 . S
H161 C133 0.930 . S
H162 C142 0.930 . S
H163 C154 0.929 . S
H164 C157 0.930 . S
C165 C166 1.351 . S
C165 N168 1.368 . S
C165 H170 0.931 . S
C166 C165 1.351 . S
C166 N167 1.373 . S
C166 H194 0.930 . S
N167 C166 1.373 . S
N167 C169 1.340 . S
N168 C165 1.368 . S
N168 C169 1.321 . S
N168 Co171 2.135 . S
C169 N167 1.340 . S
C169 N168 1.321 . S
C169 H193 0.930 . S
H170 C165 0.931 . S
Co171 N168 2.135 . S
Co171 N174 2.121 . S
Co171 O179 2.055 . S
Co171 O182 2.039 . S
Co171 N185 2.140 . S
C172 O173 1.227 . S
C172 O182 1.265 . S
O173 C172 1.227 . S
N174 Co171 2.121 . S
N174 C176 1.375 . S
N174 C177 1.313 . S
C175 C176 1.338 . S
C175 N178 1.377 . S
C175 H195 0.930 . S
C176 N174 1.375 . S
C176 C175 1.338 . S
C176 H180 0.931 . S
C177 N174 1.313 . S
C177 N178 1.344 . S
C177 H181 0.930 . S
N178 C175 1.377 . S
N178 C177 1.344 . S
O179 Co171 2.055 . S
O179 C183 1.253 . S
H180 C176 0.931 . S
H181 C177 0.930 . S
O182 Co171 2.039 . S
O182 C172 1.265 . S
C183 O179 1.253 . S
C183 O184 1.227 . S
O184 C183 1.227 . S
N185 Co171 2.140 . S
N185 C188 1.346 . S
N185 C189 1.345 . S
C186 C187 1.387 . S
C186 C190 1.391 . S
C187 C186 1.387 . S
C187 C188 1.369 . S
C187 H196 0.929 . S
C188 N185 1.346 . S
C188 C187 1.369 . S
C188 H191 0.928 . S
C189 N185 1.345 . S
C189 C190 1.371 . S
C189 H192 0.931 . S
C190 C186 1.391 . S
C190 C189 1.371 . S
C190 H197 0.930 . S
H191 C188 0.928 . S
H192 C189 0.931 . S
H193 C169 0.930 . S
H194 C166 0.930 . S
H195 C175 0.930 . S
H196 C187 0.929 . S
H197 C190 0.930 . S
C198 C199 1.351 . S
C198 N201 1.368 . S
C198 H203 0.931 . S
C199 C198 1.351 . S
C199 N200 1.373 . S
C199 H227 0.930 . S
N200 C199 1.373 . S
N200 C202 1.340 . S
N201 C198 1.368 . S
N201 C202 1.321 . S
N201 Co204 2.135 . S
C202 N200 1.340 . S
C202 N201 1.321 . S
C202 H226 0.930 . S
H203 C198 0.931 . S
Co204 N201 2.135 . S
Co204 N207 2.121 . S
Co204 O212 2.055 . S
Co204 O215 2.039 . S
Co204 N218 2.140 . S
C205 O206 1.227 . S
C205 O215 1.265 . S
O206 C205 1.227 . S
N207 Co204 2.121 . S
N207 C209 1.375 . S
N207 C210 1.313 . S
C208 C209 1.338 . S
C208 N211 1.377 . S
C208 H228 0.930 . S
C209 N207 1.375 . S
C209 C208 1.338 . S
C209 H213 0.931 . S
C210 N207 1.313 . S
C210 N211 1.344 . S
C210 H214 0.930 . S
N211 C208 1.377 . S
N211 C210 1.344 . S
O212 Co204 2.055 . S
O212 C216 1.253 . S
H213 C209 0.931 . S
H214 C210 0.930 . S
O215 Co204 2.039 . S
O215 C205 1.265 . S
C216 O212 1.253 . S
C216 O217 1.227 . S
O217 C216 1.227 . S
N218 Co204 2.140 . S
N218 C221 1.346 . S
N218 C222 1.345 . S
C219 C220 1.387 . S
C219 C223 1.391 . S
C220 C219 1.387 . S
C220 C221 1.369 . S
C220 H229 0.929 . S
C221 N218 1.346 . S
C221 C220 1.369 . S
C221 H224 0.928 . S
C222 N218 1.345 . S
C222 C223 1.371 . S
C222 H225 0.931 . S
C223 C219 1.391 . S
C223 C222 1.371 . S
C223 H230 0.930 . S
H224 C221 0.928 . S
H225 C222 0.931 . S
H226 C202 0.930 . S
H227 C199 0.930 . S
H228 C208 0.930 . S
H229 C220 0.929 . S
H230 C223 0.930 . S
C231 C232 1.351 . S
C231 N234 1.368 . S
C231 H236 0.931 . S
C232 C231 1.351 . S
C232 N233 1.373 . S
C232 H260 0.930 . S
N233 C232 1.373 . S
N233 C235 1.340 . S
N234 C231 1.368 . S
N234 C235 1.321 . S
N234 Co237 2.135 . S
C235 N233 1.340 . S
C235 N234 1.321 . S
C235 H259 0.930 . S
H236 C231 0.931 . S
Co237 N234 2.135 . S
Co237 N240 2.121 . S
Co237 O245 2.055 . S
Co237 O248 2.039 . S
Co237 N251 2.140 . S
C238 O239 1.227 . S
C238 O248 1.265 . S
O239 C238 1.227 . S
N240 Co237 2.121 . S
N240 C242 1.375 . S
N240 C243 1.313 1_556 S
C241 C242 1.338 1_554 S
C241 N244 1.377 . S
C241 H261 0.930 . S
C242 N240 1.375 . S
C242 C241 1.338 1_556 S
C242 H246 0.931 . S
C243 N240 1.313 1_554 S
C243 N244 1.344 . S
C243 H247 0.930 . S
N244 C241 1.377 . S
N244 C243 1.344 . S
O245 Co237 2.055 . S
O245 C249 1.253 . S
H246 C242 0.931 . S
H247 C243 0.930 . S
O248 Co237 2.039 . S
O248 C238 1.265 . S
C249 O245 1.253 . S
C249 O250 1.227 . S
O250 C249 1.227 . S
N251 Co237 2.140 . S
N251 C254 1.346 . S
N251 C255 1.345 . S
C252 C253 1.387 . S
C252 C256 1.391 . S
C253 C252 1.387 . S
C253 C254 1.369 . S
C253 H262 0.929 . S
C254 N251 1.346 . S
C254 C253 1.369 . S
C254 H257 0.928 . S
C255 N251 1.345 . S
C255 C256 1.371 . S
C255 H258 0.931 . S
C256 C252 1.391 . S
C256 C255 1.371 . S
C256 H263 0.930 . S
H257 C254 0.928 . S
H258 C255 0.931 . S
H259 C235 0.930 . S
H260 C232 0.930 . S
H261 C241 0.930 . S
H262 C253 0.929 . S
H263 C256 0.930 . S
C264 C265 1.351 . S
C264 N267 1.368 . S
C264 H269 0.931 . S
C265 C264 1.351 . S
C265 N266 1.373 . S
C265 H293 0.930 . S
N266 C265 1.373 . S
N266 C268 1.340 . S
N267 C264 1.368 . S
N267 C268 1.321 . S
N267 Co270 2.135 . S
C268 N266 1.340 . S
C268 N267 1.321 . S
C268 H292 0.930 . S
H269 C264 0.931 . S
Co270 N267 2.135 . S
Co270 N273 2.121 . S
Co270 O278 2.055 . S
Co270 O281 2.039 . S
Co270 N284 2.140 . S
C271 O272 1.227 . S
C271 O281 1.265 . S
O272 C271 1.227 . S
N273 Co270 2.121 . S
N273 C275 1.375 . S
N273 C276 1.313 . S
C274 C275 1.338 . S
C274 N277 1.377 . S
C274 H294 0.930 . S
C275 N273 1.375 . S
C275 C274 1.338 . S
C275 H279 0.931 . S
C276 N273 1.313 . S
C276 N277 1.344 . S
C276 H280 0.930 . S
N277 C274 1.377 . S
N277 C276 1.344 . S
O278 Co270 2.055 . S
O278 C282 1.253 . S
H279 C275 0.931 . S
H280 C276 0.930 . S
O281 Co270 2.039 . S
O281 C271 1.265 . S
C282 O278 1.253 . S
C282 O283 1.227 . S
O283 C282 1.227 . S
N284 Co270 2.140 . S
N284 C287 1.346 . S
N284 C288 1.345 . S
C285 C286 1.387 . S
C285 C289 1.391 . S
C286 C285 1.387 . S
C286 C287 1.369 . S
C286 H295 0.929 . S
C287 N284 1.346 . S
C287 C286 1.369 . S
C287 H290 0.928 . S
C288 N284 1.345 . S
C288 C289 1.371 . S
C288 H291 0.931 . S
C289 C285 1.391 . S
C289 C288 1.371 . S
C289 H296 0.930 . S
H290 C287 0.928 . S
H291 C288 0.931 . S
H292 C268 0.930 . S
H293 C265 0.930 . S
H294 C274 0.930 . S
H295 C286 0.929 . S
H296 C289 0.930 . S
C297 C298 1.351 . S
C297 N300 1.368 . S
C297 H302 0.931 . S
C298 C297 1.351 . S
C298 N299 1.373 . S
C298 H326 0.930 . S
N299 C298 1.373 . S
N299 C301 1.340 . S
N300 C297 1.368 . S
N300 C301 1.321 . S
N300 Co303 2.135 . S
C301 N299 1.340 . S
C301 N300 1.321 . S
C301 H325 0.930 . S
H302 C297 0.931 . S
Co303 N300 2.135 . S
Co303 N306 2.121 . S
Co303 O311 2.055 . S
Co303 O314 2.039 . S
Co303 N317 2.140 . S
C304 O305 1.227 . S
C304 O314 1.265 . S
O305 C304 1.227 . S
N306 Co303 2.121 . S
N306 C308 1.375 . S
N306 C309 1.313 . S
C307 C308 1.338 . S
C307 N310 1.377 . S
C307 H327 0.930 . S
C308 N306 1.375 . S
C308 C307 1.338 . S
C308 H312 0.931 . S
C309 N306 1.313 . S
C309 N310 1.344 . S
C309 H313 0.930 . S
N310 C307 1.377 . S
N310 C309 1.344 . S
O311 Co303 2.055 . S
O311 C315 1.253 . S
H312 C308 0.931 . S
H313 C309 0.930 . S
O314 Co303 2.039 . S
O314 C304 1.265 . S
C315 O311 1.253 . S
C315 O316 1.227 . S
O316 C315 1.227 . S
N317 Co303 2.140 . S
N317 C320 1.346 . S
N317 C321 1.345 . S
C318 C319 1.387 . S
C318 C322 1.391 . S
C319 C318 1.387 . S
C319 C320 1.369 . S
C319 H328 0.929 . S
C320 N317 1.346 . S
C320 C319 1.369 . S
C320 H323 0.928 . S
C321 N317 1.345 . S
C321 C322 1.371 . S
C321 H324 0.931 . S
C322 C318 1.391 . S
C322 C321 1.371 . S
C322 H329 0.930 . S
H323 C320 0.928 . S
H324 C321 0.931 . S
H325 C301 0.930 . S
H326 C298 0.930 . S
H327 C307 0.930 . S
H328 C319 0.929 . S
H329 C322 0.930 . S
C330 C331 1.351 . S
C330 N333 1.368 . S
C330 H335 0.931 . S
C331 C330 1.351 . S
C331 N332 1.373 . S
C331 H359 0.930 . S
N332 C331 1.373 . S
N332 C334 1.340 . S
N333 C330 1.368 . S
N333 C334 1.321 . S
N333 Co336 2.135 . S
C334 N332 1.340 . S
C334 N333 1.321 . S
C334 H358 0.930 . S
H335 C330 0.931 . S
Co336 N333 2.135 . S
Co336 N339 2.121 . S
Co336 O344 2.055 . S
Co336 O347 2.039 . S
Co336 N350 2.140 . S
C337 O338 1.227 . S
C337 O347 1.265 . S
O338 C337 1.227 . S
N339 Co336 2.121 . S
N339 C341 1.375 . S
N339 C342 1.313 1_556 S
C340 C341 1.338 1_554 S
C340 N343 1.377 . S
C340 H360 0.930 . S
C341 N339 1.375 . S
C341 C340 1.338 1_556 S
C341 H345 0.931 . S
C342 N339 1.313 1_554 S
C342 N343 1.344 . S
C342 H346 0.930 . S
N343 C340 1.377 . S
N343 C342 1.344 . S
O344 Co336 2.055 . S
O344 C348 1.253 . S
H345 C341 0.931 . S
H346 C342 0.930 . S
O347 Co336 2.039 . S
O347 C337 1.265 . S
C348 O344 1.253 . S
C348 O349 1.227 . S
O349 C348 1.227 . S
N350 Co336 2.140 . S
N350 C353 1.346 . S
N350 C354 1.345 . S
C351 C352 1.387 . S
C351 C355 1.391 . S
C352 C351 1.387 . S
C352 C353 1.369 . S
C352 H361 0.929 . S
C353 N350 1.346 . S
C353 C352 1.369 . S
C353 H356 0.928 . S
C354 N350 1.345 . S
C354 C355 1.371 . S
C354 H357 0.931 . S
C355 C351 1.391 . S
C355 C354 1.371 . S
C355 H362 0.930 . S
H356 C353 0.928 . S
H357 C354 0.931 . S
H358 C334 0.930 . S
H359 C331 0.930 . S
H360 C340 0.930 . S
H361 C352 0.929 . S
H362 C355 0.930 . S
C363 C364 1.351 . S
C363 N366 1.368 . S
C363 H368 0.931 . S
C364 C363 1.351 . S
C364 N365 1.373 . S
C364 H392 0.930 . S
N365 C364 1.373 . S
N365 C367 1.340 . S
N366 C363 1.368 . S
N366 C367 1.321 . S
N366 Co369 2.135 . S
C367 N365 1.340 . S
C367 N366 1.321 . S
C367 H391 0.930 . S
H368 C363 0.931 . S
Co369 N366 2.135 . S
Co369 N372 2.121 . S
Co369 O377 2.055 . S
Co369 O380 2.039 . S
Co369 N383 2.140 . S
C370 O371 1.227 . S
C370 O380 1.265 . S
O371 C370 1.227 . S
N372 Co369 2.121 . S
N372 C374 1.375 . S
N372 C375 1.313 . S
C373 C374 1.338 . S
C373 N376 1.377 . S
C373 H393 0.930 . S
C374 N372 1.375 . S
C374 C373 1.338 . S
C374 H378 0.931 . S
C375 N372 1.313 . S
C375 N376 1.344 . S
C375 H379 0.930 . S
N376 C373 1.377 . S
N376 C375 1.344 . S
O377 Co369 2.055 . S
O377 C381 1.253 . S
H378 C374 0.931 . S
H379 C375 0.930 . S
O380 Co369 2.039 . S
O380 C370 1.265 . S
C381 O377 1.253 . S
C381 O382 1.227 . S
O382 C381 1.227 . S
N383 Co369 2.140 . S
N383 C386 1.346 . S
N383 C387 1.345 . S
C384 C385 1.387 . S
C384 C388 1.391 . S
C385 C384 1.387 . S
C385 C386 1.369 . S
C385 H394 0.929 . S
C386 N383 1.346 . S
C386 C385 1.369 . S
C386 H389 0.928 . S
C387 N383 1.345 . S
C387 C388 1.371 . S
C387 H390 0.931 . S
C388 C384 1.391 . S
C388 C387 1.371 . S
C388 H395 0.930 . S
H389 C386 0.928 . S
H390 C387 0.931 . S
H391 C367 0.930 . S
H392 C364 0.930 . S
H393 C373 0.930 . S
H394 C385 0.929 . S
H395 C388 0.930 . S
C396 C397 1.349 . S
C396 C398 1.327 . S
C396 H421 0.950 . S
C397 C396 1.349 . S
C397 C413 1.349 . S
C398 C396 1.327 . S
C398 C417 1.429 . S
C398 H422 0.950 . S
C399 C416 1.574 1_455 S
C399 C418 1.368 . S
C399 H423 0.949 . S
H400 C404 0.949 . S
C401 C402 1.349 . S
C401 C403 1.327 . S
C401 H424 0.950 . S
C402 C401 1.349 . S
C402 C414 1.349 . S
C403 C401 1.327 . S
C403 C419 1.429 . S
C403 H425 0.950 . S
C404 H400 0.949 . S
C404 C412 1.574 1_655 S
C404 C420 1.368 . S
H405 C413 0.950 . S
H406 C411 0.950 . S
H407 C412 0.949 . S
H408 C414 0.950 . S
H409 C415 0.950 . S
H410 C416 0.949 . S
C411 H406 0.950 . S
C411 C413 1.327 . S
C411 C417 1.429 . S
C412 C404 1.574 1_455 S
C412 H407 0.949 . S
C412 C418 1.368 . S
C413 C397 1.349 . S
C413 H405 0.950 . S
C413 C411 1.327 . S
C414 C402 1.349 . S
C414 H408 0.950 . S
C414 C415 1.327 . S
C415 H409 0.950 . S
C415 C414 1.327 . S
C415 C419 1.429 . S
C416 C399 1.574 1_655 S
C416 H410 0.949 . S
C416 C420 1.368 . S
C417 C398 1.429 . S
C417 C411 1.429 . S
C417 C418 1.523 . S
C418 C399 1.368 . S
C418 C412 1.368 . S
C418 C417 1.523 . S
C419 C403 1.429 . S
C419 C415 1.429 . S
C419 C420 1.523 . S
C420 C404 1.368 . S
C420 C416 1.368 . S
C420 C419 1.523 . S
H421 C396 0.950 . S
H422 C398 0.950 . S
H423 C399 0.949 . S
H424 C401 0.950 . S
H425 C403 0.950 . S
C426 C427 1.349 . S
C426 C428 1.327 . S
C426 H451 0.950 . S
C427 C426 1.349 . S
C427 C443 1.349 . S
C428 C426 1.327 . S
C428 C447 1.429 . S
C428 H452 0.950 . S
C429 C446 1.574 1_545 S
C429 C448 1.368 . S
C429 H453 0.949 . S
H430 C434 0.949 . S
C431 C432 1.349 . S
C431 C433 1.327 . S
C431 H454 0.950 . S
C432 C431 1.349 . S
C432 C444 1.349 . S
C433 C431 1.327 . S
C433 C449 1.429 . S
C433 H455 0.950 . S
C434 H430 0.949 . S
C434 C442 1.574 1_565 S
C434 C450 1.368 . S
H435 C443 0.950 . S
H436 C441 0.950 . S
H437 C442 0.949 . S
H438 C444 0.950 . S
H439 C445 0.950 . S
H440 C446 0.949 . S
C441 H436 0.950 . S
C441 C443 1.327 . S
C441 C447 1.429 . S
C442 C434 1.574 1_545 S
C442 H437 0.949 . S
C442 C448 1.368 . S
C443 C427 1.349 . S
C443 H435 0.950 . S
C443 C441 1.327 . S
C444 C432 1.349 . S
C444 H438 0.950 . S
C444 C445 1.327 . S
C445 H439 0.950 . S
C445 C444 1.327 . S
C445 C449 1.429 . S
C446 C429 1.574 1_565 S
C446 H440 0.949 . S
C446 C450 1.368 . S
C447 C428 1.429 . S
C447 C441 1.429 . S
C447 C448 1.523 . S
C448 C429 1.368 . S
C448 C442 1.368 . S
C448 C447 1.523 . S
C449 C433 1.429 . S
C449 C445 1.429 . S
C449 C450 1.523 . S
C450 C434 1.368 . S
C450 C446 1.368 . S
C450 C449 1.523 . S
H451 C426 0.950 . S
H452 C428 0.950 . S
H453 C429 0.949 . S
H454 C431 0.950 . S
H455 C433 0.950 . S
C456 C457 1.349 . S
C456 C458 1.327 . S
C456 H481 0.950 . S
C457 C456 1.349 . S
C457 C473 1.349 . S
C458 C456 1.327 . S
C458 C477 1.429 . S
C458 H482 0.950 . S
C459 C476 1.574 . S
C459 C478 1.368 . S
C459 H483 0.949 . S
H460 C464 0.949 . S
C461 C462 1.349 . S
C461 C463 1.327 . S
C461 H484 0.950 . S
C462 C461 1.349 . S
C462 C474 1.349 . S
C463 C461 1.327 . S
C463 C479 1.429 . S
C463 H485 0.950 . S
C464 H460 0.949 . S
C464 C472 1.574 . S
C464 C480 1.368 . S
H465 C473 0.950 . S
H466 C471 0.950 . S
H467 C472 0.949 . S
H468 C474 0.950 . S
H469 C475 0.950 . S
H470 C476 0.949 . S
C471 H466 0.950 . S
C471 C473 1.327 . S
C471 C477 1.429 . S
C472 C464 1.574 . S
C472 H467 0.949 . S
C472 C478 1.368 . S
C473 C457 1.349 . S
C473 H465 0.950 . S
C473 C471 1.327 . S
C474 C462 1.349 . S
C474 H468 0.950 . S
C474 C475 1.327 . S
C475 H469 0.950 . S
C475 C474 1.327 . S
C475 C479 1.429 . S
C476 C459 1.574 . S
C476 H470 0.949 . S
C476 C480 1.368 . S
C477 C458 1.429 . S
C477 C471 1.429 . S
C477 C478 1.523 . S
C478 C459 1.368 . S
C478 C472 1.368 . S
C478 C477 1.523 . S
C479 C463 1.429 . S
C479 C475 1.429 . S
C479 C480 1.523 . S
C480 C464 1.368 . S
C480 C476 1.368 . S
C480 C479 1.523 . S
H481 C456 0.950 . S
H482 C458 0.950 . S
H483 C459 0.949 . S
H484 C461 0.950 . S
H485 C463 0.950 . S
C486 C487 1.349 . S
C486 C488 1.327 . S
C486 H511 0.950 . S
C487 C486 1.349 . S
C487 C503 1.349 . S
C488 C486 1.327 . S
C488 C507 1.429 . S
C488 H512 0.950 . S
C489 C506 1.574 1_455 S
C489 C508 1.368 . S
C489 H513 0.949 . S
H490 C494 0.949 . S
C491 C492 1.349 . S
C491 C493 1.327 . S
C491 H514 0.950 . S
C492 C491 1.349 . S
C492 C504 1.349 . S
C493 C491 1.327 . S
C493 C509 1.429 . S
C493 H515 0.950 . S
C494 H490 0.949 . S
C494 C502 1.574 1_655 S
C494 C510 1.368 . S
H495 C503 0.950 . S
H496 C501 0.950 . S
H497 C502 0.949 . S
H498 C504 0.950 . S
H499 C505 0.950 . S
H500 C506 0.949 . S
C501 H496 0.950 . S
C501 C503 1.327 . S
C501 C507 1.429 . S
C502 C494 1.574 1_455 S
C502 H497 0.949 . S
C502 C508 1.368 . S
C503 C487 1.349 . S
C503 H495 0.950 . S
C503 C501 1.327 . S
C504 C492 1.349 . S
C504 H498 0.950 . S
C504 C505 1.327 . S
C505 H499 0.950 . S
C505 C504 1.327 . S
C505 C509 1.429 . S
C506 C489 1.574 1_655 S
C506 H500 0.949 . S
C506 C510 1.368 . S
C507 C488 1.429 . S
C507 C501 1.429 . S
C507 C508 1.523 . S
C508 C489 1.368 . S
C508 C502 1.368 . S
C508 C507 1.523 . S
C509 C493 1.429 . S
C509 C505 1.429 . S
C509 C510 1.523 . S
C510 C494 1.368 . S
C510 C506 1.368 . S
C510 C509 1.523 . S
H511 C486 0.950 . S
H512 C488 0.950 . S
H513 C489 0.949 . S
H514 C491 0.950 . S
H515 C493 0.950 . S
C516 C517 1.349 . S
C516 C518 1.327 . S
C516 H541 0.950 . S
C517 C516 1.349 . S
C517 C533 1.349 . S
C518 C516 1.327 . S
C518 C537 1.429 . S
C518 H542 0.950 . S
C519 C536 1.574 1_545 S
C519 C538 1.368 . S
C519 H543 0.949 . S
H520 C524 0.949 . S
C521 C522 1.349 . S
C521 C523 1.327 . S
C521 H544 0.950 . S
C522 C521 1.349 . S
C522 C534 1.349 . S
C523 C521 1.327 . S
C523 C539 1.429 . S
C523 H545 0.950 . S
C524 H520 0.949 . S
C524 C532 1.574 1_565 S
C524 C540 1.368 . S
H525 C533 0.950 . S
H526 C531 0.950 . S
H527 C532 0.949 . S
H528 C534 0.950 . S
H529 C535 0.950 . S
H530 C536 0.949 . S
C531 H526 0.950 . S
C531 C533 1.327 . S
C531 C537 1.429 . S
C532 C524 1.574 1_545 S
C532 H527 0.949 . S
C532 C538 1.368 . S
C533 C517 1.349 . S
C533 H525 0.950 . S
C533 C531 1.327 . S
C534 C522 1.349 . S
C534 H528 0.950 . S
C534 C535 1.327 . S
C535 H529 0.950 . S
C535 C534 1.327 . S
C535 C539 1.429 . S
C536 C519 1.574 1_565 S
C536 H530 0.949 . S
C536 C540 1.368 . S
C537 C518 1.429 . S
C537 C531 1.429 . S
C537 C538 1.523 . S
C538 C519 1.368 . S
C538 C532 1.368 . S
C538 C537 1.523 . S
C539 C523 1.429 . S
C539 C535 1.429 . S
C539 C540 1.523 . S
C540 C524 1.368 . S
C540 C536 1.368 . S
C540 C539 1.523 . S
H541 C516 0.950 . S
H542 C518 0.950 . S
H543 C519 0.949 . S
H544 C521 0.950 . S
H545 C523 0.950 . S
C546 C547 1.349 . S
C546 C548 1.327 . S
C546 H571 0.950 . S
C547 C546 1.349 . S
C547 C563 1.349 . S
C548 C546 1.327 . S
C548 C567 1.429 . S
C548 H572 0.950 . S
C549 C566 1.574 . S
C549 C568 1.368 . S
C549 H573 0.949 . S
H550 C554 0.949 . S
C551 C552 1.349 . S
C551 C553 1.327 . S
C551 H574 0.950 . S
C552 C551 1.349 . S
C552 C564 1.349 . S
C553 C551 1.327 . S
C553 C569 1.429 . S
C553 H575 0.950 . S
C554 H550 0.949 . S
C554 C562 1.574 . S
C554 C570 1.368 . S
H555 C563 0.950 . S
H556 C561 0.950 . S
H557 C562 0.949 . S
H558 C564 0.950 . S
H559 C565 0.950 . S
H560 C566 0.949 . S
C561 H556 0.950 . S
C561 C563 1.327 . S
C561 C567 1.429 . S
C562 C554 1.574 . S
C562 H557 0.949 . S
C562 C568 1.368 . S
C563 C547 1.349 . S
C563 H555 0.950 . S
C563 C561 1.327 . S
C564 C552 1.349 . S
C564 H558 0.950 . S
C564 C565 1.327 . S
C565 H559 0.950 . S
C565 C564 1.327 . S
C565 C569 1.429 . S
C566 C549 1.574 . S
C566 H560 0.949 . S
C566 C570 1.368 . S
C567 C548 1.429 . S
C567 C561 1.429 . S
C567 C568 1.523 . S
C568 C549 1.368 . S
C568 C562 1.368 . S
C568 C567 1.523 . S
C569 C553 1.429 . S
C569 C565 1.429 . S
C569 C570 1.523 . S
C570 C554 1.368 . S
C570 C566 1.368 . S
C570 C569 1.523 . S
H571 C546 0.950 . S
H572 C548 0.950 . S
H573 C549 0.949 . S
H574 C551 0.950 . S
H575 C553 0.950 . S
C576 C577 1.349 . S
C576 C578 1.327 . S
C576 H601 0.950 . S
C577 C576 1.349 . S
C577 C593 1.349 . S
C578 C576 1.327 . S
C578 C597 1.429 . S
C578 H602 0.950 . S
C579 C596 1.574 . S
C579 C598 1.368 . S
C579 H603 0.949 . S
H580 C584 0.949 . S
C581 C582 1.349 . S
C581 C583 1.327 . S
C581 H604 0.950 . S
C582 C581 1.349 . S
C582 C594 1.349 . S
C583 C581 1.327 . S
C583 C599 1.429 . S
C583 H605 0.950 . S
C584 H580 0.949 . S
C584 C592 1.574 . S
C584 C600 1.368 . S
H585 C593 0.950 . S
H586 C591 0.950 . S
H587 C592 0.949 . S
H588 C594 0.950 . S
H589 C595 0.950 . S
H590 C596 0.949 . S
C591 H586 0.950 . S
C591 C593 1.327 . S
C591 C597 1.429 . S
C592 C584 1.574 . S
C592 H587 0.949 . S
C592 C598 1.368 . S
C593 C577 1.349 . S
C593 H585 0.950 . S
C593 C591 1.327 . S
C594 C582 1.349 . S
C594 H588 0.950 . S
C594 C595 1.327 . S
C595 H589 0.950 . S
C595 C594 1.327 . S
C595 C599 1.429 . S
C596 C579 1.574 . S
C596 H590 0.949 . S
C596 C600 1.368 . S
C597 C578 1.429 . S
C597 C591 1.429 . S
C597 C598 1.523 . S
C598 C579 1.368 . S
C598 C592 1.368 . S
C598 C597 1.523 . S
C599 C583 1.429 . S
C599 C595 1.429 . S
C599 C600 1.523 . S
C600 C584 1.368 . S
C600 C596 1.368 . S
C600 C599 1.523 . S
H601 C576 0.950 . S
H602 C578 0.950 . S
H603 C579 0.949 . S
H604 C581 0.950 . S
H605 C583 0.950 . S
C606 C607 1.349 . S
C606 C608 1.327 . S
C606 H631 0.950 . S
C607 C606 1.349 . S
C607 C623 1.349 . S
C608 C606 1.327 . S
C608 C627 1.429 . S
C608 H632 0.950 . S
C609 C626 1.574 . S
C609 C628 1.368 . S
C609 H633 0.949 . S
H610 C614 0.949 1_554 S
C611 C612 1.349 . S
C611 C613 1.327 . S
C611 H634 0.950 . S
C612 C611 1.349 . S
C612 C624 1.349 . S
C613 C611 1.327 . S
C613 C629 1.429 . S
C613 H635 0.950 . S
C614 H610 0.949 1_556 S
C614 C622 1.574 . S
C614 C630 1.368 1_556 S
H615 C623 0.950 . S
H616 C621 0.950 . S
H617 C622 0.949 . S
H618 C624 0.950 . S
H619 C625 0.950 . S
H620 C626 0.949 1_554 S
C621 H616 0.950 . S
C621 C623 1.327 . S
C621 C627 1.429 . S
C622 C614 1.574 . S
C622 H617 0.949 . S
C622 C628 1.368 . S
C623 C607 1.349 . S
C623 H615 0.950 . S
C623 C621 1.327 . S
C624 C612 1.349 . S
C624 H618 0.950 . S
C624 C625 1.327 . S
C625 H619 0.950 . S
C625 C624 1.327 . S
C625 C629 1.429 . S
C626 C609 1.574 . S
C626 H620 0.949 1_556 S
C626 C630 1.368 1_556 S
C627 C608 1.429 . S
C627 C621 1.429 . S
C627 C628 1.523 . S
C628 C609 1.368 . S
C628 C622 1.368 . S
C628 C627 1.523 . S
C629 C613 1.429 . S
C629 C625 1.429 . S
C629 C630 1.523 . S
C630 C614 1.368 1_554 S
C630 C626 1.368 1_554 S
C630 C629 1.523 . S
H631 C606 0.950 . S
H632 C608 0.950 . S
H633 C609 0.949 . S
H634 C611 0.950 . S
H635 C613 0.950 . S
C636 C637 1.349 . S
C636 C638 1.327 . S
C636 H661 0.950 . S
C637 C636 1.349 . S
C637 C653 1.349 . S
C638 C636 1.327 . S
C638 C657 1.429 . S
C638 H662 0.950 . S
C639 C656 1.574 . S
C639 C658 1.368 . S
C639 H663 0.949 . S
H640 C644 0.949 . S
C641 C642 1.349 . S
C641 C643 1.327 . S
C641 H664 0.950 . S
C642 C641 1.349 . S
C642 C654 1.349 . S
C643 C641 1.327 . S
C643 C659 1.429 . S
C643 H665 0.950 . S
C644 H640 0.949 . S
C644 C652 1.574 . S
C644 C660 1.368 . S
H645 C653 0.950 . S
H646 C651 0.950 . S
H647 C652 0.949 . S
H648 C654 0.950 . S
H649 C655 0.950 . S
H650 C656 0.949 . S
C651 H646 0.950 . S
C651 C653 1.327 . S
C651 C657 1.429 . S
C652 C644 1.574 . S
C652 H647 0.949 . S
C652 C658 1.368 . S
C653 C637 1.349 . S
C653 H645 0.950 . S
C653 C651 1.327 . S
C654 C642 1.349 . S
C654 H648 0.950 . S
C654 C655 1.327 . S
C655 H649 0.950 . S
C655 C654 1.327 . S
C655 C659 1.429 . S
C656 C639 1.574 . S
C656 H650 0.949 . S
C656 C660 1.368 . S
C657 C638 1.429 . S
C657 C651 1.429 . S
C657 C658 1.523 . S
C658 C639 1.368 . S
C658 C652 1.368 . S
C658 C657 1.523 . S
C659 C643 1.429 . S
C659 C655 1.429 . S
C659 C660 1.523 . S
C660 C644 1.368 . S
C660 C656 1.368 . S
C660 C659 1.523 . S
H661 C636 0.950 . S
H662 C638 0.950 . S
H663 C639 0.949 . S
H664 C641 0.950 . S
H665 C643 0.950 . S
C666 C667 1.349 . S
C666 C668 1.327 . S
C666 H691 0.950 . S
C667 C666 1.349 . S
C667 C683 1.349 . S
C668 C666 1.327 . S
C668 C687 1.429 . S
C668 H692 0.950 . S
C669 C686 1.574 . S
C669 C688 1.368 . S
C669 H693 0.949 . S
H670 C674 0.949 . S
C671 C672 1.349 . S
C671 C673 1.327 . S
C671 H694 0.950 . S
C672 C671 1.349 . S
C672 C684 1.349 . S
C673 C671 1.327 . S
C673 C689 1.429 . S
C673 H695 0.950 . S
C674 H670 0.949 . S
C674 C682 1.574 . S
C674 C690 1.368 . S
H675 C683 0.950 . S
H676 C681 0.950 . S
H677 C682 0.949 . S
H678 C684 0.950 . S
H679 C685 0.950 . S
H680 C686 0.949 . S
C681 H676 0.950 . S
C681 C683 1.327 . S
C681 C687 1.429 . S
C682 C674 1.574 . S
C682 H677 0.949 . S
C682 C688 1.368 . S
C683 C667 1.349 . S
C683 H675 0.950 . S
C683 C681 1.327 . S
C684 C672 1.349 . S
C684 H678 0.950 . S
C684 C685 1.327 . S
C685 H679 0.950 . S
C685 C684 1.327 . S
C685 C689 1.429 . S
C686 C669 1.574 . S
C686 H680 0.949 . S
C686 C690 1.368 . S
C687 C668 1.429 . S
C687 C681 1.429 . S
C687 C688 1.523 . S
C688 C669 1.368 . S
C688 C682 1.368 . S
C688 C687 1.523 . S
C689 C673 1.429 . S
C689 C685 1.429 . S
C689 C690 1.523 . S
C690 C674 1.368 . S
C690 C686 1.368 . S
C690 C689 1.523 . S
H691 C666 0.950 . S
H692 C668 0.950 . S
H693 C669 0.949 . S
H694 C671 0.950 . S
H695 C673 0.950 . S
C696 C697 1.349 . S
C696 C698 1.327 . S
C696 H721 0.950 . S
C697 C696 1.349 . S
C697 C713 1.349 . S
C698 C696 1.327 . S
C698 C717 1.429 . S
C698 H722 0.950 . S
C699 C716 1.574 . S
C699 C718 1.368 1_556 S
C699 H723 0.949 1_556 S
H700 C704 0.949 . S
C701 C702 1.349 . S
C701 C703 1.327 . S
C701 H724 0.950 . S
C702 C701 1.349 . S
C702 C714 1.349 . S
C703 C701 1.327 . S
C703 C719 1.429 . S
C703 H725 0.950 . S
C704 H700 0.949 . S
C704 C712 1.574 . S
C704 C720 1.368 . S
H705 C713 0.950 . S
H706 C711 0.950 . S
H707 C712 0.949 1_554 S
H708 C714 0.950 . S
H709 C715 0.950 . S
H710 C716 0.949 . S
C711 H706 0.950 . S
C711 C713 1.327 . S
C711 C717 1.429 . S
C712 C704 1.574 . S
C712 H707 0.949 1_556 S
C712 C718 1.368 1_556 S
C713 C697 1.349 . S
C713 H705 0.950 . S
C713 C711 1.327 . S
C714 C702 1.349 . S
C714 H708 0.950 . S
C714 C715 1.327 . S
C715 H709 0.950 . S
C715 C714 1.327 . S
C715 C719 1.429 . S
C716 C699 1.574 . S
C716 H710 0.949 . S
C716 C720 1.368 . S
C717 C698 1.429 . S
C717 C711 1.429 . S
C717 C718 1.523 . S
C718 C699 1.368 1_554 S
C718 C712 1.368 1_554 S
C718 C717 1.523 . S
C719 C703 1.429 . S
C719 C715 1.429 . S
C719 C720 1.523 . S
C720 C704 1.368 . S
C720 C716 1.368 . S
C720 C719 1.523 . S
H721 C696 0.950 . S
H722 C698 0.950 . S
H723 C699 0.949 1_554 S
H724 C701 0.950 . S
H725 C703 0.950 . S
C726 C727 1.349 . S
C726 C728 1.327 . S
C726 H751 0.950 . S
C727 C726 1.349 . S
C727 C743 1.349 . S
C728 C726 1.327 . S
C728 C747 1.429 . S
C728 H752 0.950 . S
C729 C746 1.574 . S
C729 C748 1.368 . S
C729 H753 0.949 . S
H730 C734 0.949 . S
C731 C732 1.349 . S
C731 C733 1.327 . S
C731 H754 0.950 . S
C732 C731 1.349 . S
C732 C744 1.349 . S
C733 C731 1.327 . S
C733 C749 1.429 . S
C733 H755 0.950 . S
C734 H730 0.949 . S
C734 C742 1.574 . S
C734 C750 1.368 . S
H735 C743 0.950 . S
H736 C741 0.950 . S
H737 C742 0.949 . S
H738 C744 0.950 . S
H739 C745 0.950 . S
H740 C746 0.949 . S
C741 H736 0.950 . S
C741 C743 1.327 . S
C741 C747 1.429 . S
C742 C734 1.574 . S
C742 H737 0.949 . S
C742 C748 1.368 . S
C743 C727 1.349 . S
C743 H735 0.950 . S
C743 C741 1.327 . S
C744 C732 1.349 . S
C744 H738 0.950 . S
C744 C745 1.327 . S
C745 H739 0.950 . S
C745 C744 1.327 . S
C745 C749 1.429 . S
C746 C729 1.574 . S
C746 H740 0.949 . S
C746 C750 1.368 . S
C747 C728 1.429 . S
C747 C741 1.429 . S
C747 C748 1.523 . S
C748 C729 1.368 . S
C748 C742 1.368 . S
C748 C747 1.523 . S
C749 C733 1.429 . S
C749 C745 1.429 . S
C749 C750 1.523 . S
C750 C734 1.368 . S
C750 C746 1.368 . S
C750 C749 1.523 . S
H751 C726 0.950 . S
H752 C728 0.950 . S
H753 C729 0.949 . S
H754 C731 0.950 . S
H755 C733 0.950 . S
C756 C757 1.349 . S
C756 C758 1.327 . S
C756 H781 0.950 . S
C757 C756 1.349 . S
C757 C773 1.349 . S
C758 C756 1.327 . S
C758 C777 1.429 . S
C758 H782 0.950 . S
C759 C776 1.574 . S
C759 C778 1.368 1_554 S
C759 H783 0.949 1_554 S
H760 C764 0.949 . S
C761 C762 1.349 . S
C761 C763 1.327 . S
C761 H784 0.950 . S
C762 C761 1.349 . S
C762 C774 1.349 . S
C763 C761 1.327 . S
C763 C779 1.429 . S
C763 H785 0.950 . S
C764 H760 0.949 . S
C764 C772 1.574 . S
C764 C780 1.368 . S
H765 C773 0.950 . S
H766 C771 0.950 . S
H767 C772 0.949 1_556 S
H768 C774 0.950 . S
H769 C775 0.950 . S
H770 C776 0.949 . S
C771 H766 0.950 . S
C771 C773 1.327 . S
C771 C777 1.429 . S
C772 C764 1.574 . S
C772 H767 0.949 1_554 S
C772 C778 1.368 1_554 S
C773 C757 1.349 . S
C773 H765 0.950 . S
C773 C771 1.327 . S
C774 C762 1.349 . S
C774 H768 0.950 . S
C774 C775 1.327 . S
C775 H769 0.950 . S
C775 C774 1.327 . S
C775 C779 1.429 . S
C776 C759 1.574 . S
C776 H770 0.949 . S
C776 C780 1.368 . S
C777 C758 1.429 . S
C777 C771 1.429 . S
C777 C778 1.523 . S
C778 C759 1.368 1_556 S
C778 C772 1.368 1_556 S
C778 C777 1.523 . S
C779 C763 1.429 . S
C779 C775 1.429 . S
C779 C780 1.523 . S
C780 C764 1.368 . S
C780 C776 1.368 . S
C780 C779 1.523 . S
H781 C756 0.950 . S
H782 C758 0.950 . S
H783 C759 0.949 1_556 S
H784 C761 0.950 . S
H785 C763 0.950 . S
C786 C787 1.349 . S
C786 C788 1.327 . S
C786 H811 0.950 . S
C787 C786 1.349 . S
C787 C803 1.349 . S
C788 C786 1.327 . S
C788 C807 1.429 . S
C788 H812 0.950 . S
C789 C806 1.574 . S
C789 C808 1.368 . S
C789 H813 0.949 . S
H790 C794 0.949 . S
C791 C792 1.349 . S
C791 C793 1.327 . S
C791 H814 0.950 . S
C792 C791 1.349 . S
C792 C804 1.349 . S
C793 C791 1.327 . S
C793 C809 1.429 . S
C793 H815 0.950 . S
C794 H790 0.949 . S
C794 C802 1.574 . S
C794 C810 1.368 . S
H795 C803 0.950 . S
H796 C801 0.950 . S
H797 C802 0.949 . S
H798 C804 0.950 . S
H799 C805 0.950 . S
H800 C806 0.949 . S
C801 H796 0.950 . S
C801 C803 1.327 . S
C801 C807 1.429 . S
C802 C794 1.574 . S
C802 H797 0.949 . S
C802 C808 1.368 . S
C803 C787 1.349 . S
C803 H795 0.950 . S
C803 C801 1.327 . S
C804 C792 1.349 . S
C804 H798 0.950 . S
C804 C805 1.327 . S
C805 H799 0.950 . S
C805 C804 1.327 . S
C805 C809 1.429 . S
C806 C789 1.574 . S
C806 H800 0.949 . S
C806 C810 1.368 . S
C807 C788 1.429 . S
C807 C801 1.429 . S
C807 C808 1.523 . S
C808 C789 1.368 . S
C808 C802 1.368 . S
C808 C807 1.523 . S
C809 C793 1.429 . S
C809 C805 1.429 . S
C809 C810 1.523 . S
C810 C794 1.368 . S
C810 C806 1.368 . S
C810 C809 1.523 . S
H811 C786 0.950 . S
H812 C788 0.950 . S
H813 C789 0.949 . S
H814 C791 0.950 . S
H815 C793 0.950 . S
C816 C817 1.349 . S
C816 C818 1.327 . S
C816 H841 0.950 . S
C817 C816 1.349 . S
C817 C833 1.349 . S
C818 C816 1.327 . S
C818 C837 1.429 . S
C818 H842 0.950 . S
C819 C836 1.574 . S
C819 C838 1.368 . S
C819 H843 0.949 . S
H820 C824 0.949 . S
C821 C822 1.349 . S
C821 C823 1.327 . S
C821 H844 0.950 . S
C822 C821 1.349 . S
C822 C834 1.349 . S
C823 C821 1.327 . S
C823 C839 1.429 . S
C823 H845 0.950 . S
C824 H820 0.949 . S
C824 C832 1.574 . S
C824 C840 1.368 . S
H825 C833 0.950 . S
H826 C831 0.950 . S
H827 C832 0.949 . S
H828 C834 0.950 . S
H829 C835 0.950 . S
H830 C836 0.949 . S
C831 H826 0.950 . S
C831 C833 1.327 . S
C831 C837 1.429 . S
C832 C824 1.574 . S
C832 H827 0.949 . S
C832 C838 1.368 . S
C833 C817 1.349 . S
C833 H825 0.950 . S
C833 C831 1.327 . S
C834 C822 1.349 . S
C834 H828 0.950 . S
C834 C835 1.327 . S
C835 H829 0.950 . S
C835 C834 1.327 . S
C835 C839 1.429 . S
C836 C819 1.574 . S
C836 H830 0.949 . S
C836 C840 1.368 . S
C837 C818 1.429 . S
C837 C831 1.429 . S
C837 C838 1.523 . S
C838 C819 1.368 . S
C838 C832 1.368 . S
C838 C837 1.523 . S
C839 C823 1.429 . S
C839 C835 1.429 . S
C839 C840 1.523 . S
C840 C824 1.368 . S
C840 C836 1.368 . S
C840 C839 1.523 . S
H841 C816 0.950 . S
H842 C818 0.950 . S
H843 C819 0.949 . S
H844 C821 0.950 . S
H845 C823 0.950 . S
C846 C847 1.349 . S
C846 C848 1.327 . S
C846 H871 0.950 . S
C847 C846 1.349 . S
C847 C863 1.349 . S
C848 C846 1.327 . S
C848 C867 1.429 . S
C848 H872 0.950 . S
C849 C866 1.574 . S
C849 C868 1.368 . S
C849 H873 0.949 . S
H850 C854 0.949 1_556 S
C851 C852 1.349 . S
C851 C853 1.327 . S
C851 H874 0.950 . S
C852 C851 1.349 . S
C852 C864 1.349 . S
C853 C851 1.327 . S
C853 C869 1.429 . S
C853 H875 0.950 . S
C854 H850 0.949 1_554 S
C854 C862 1.574 . S
C854 C870 1.368 1_554 S
H855 C863 0.950 . S
H856 C861 0.950 . S
H857 C862 0.949 . S
H858 C864 0.950 . S
H859 C865 0.950 . S
H860 C866 0.949 1_556 S
C861 H856 0.950 . S
C861 C863 1.327 . S
C861 C867 1.429 . S
C862 C854 1.574 . S
C862 H857 0.949 . S
C862 C868 1.368 . S
C863 C847 1.349 . S
C863 H855 0.950 . S
C863 C861 1.327 . S
C864 C852 1.349 . S
C864 H858 0.950 . S
C864 C865 1.327 . S
C865 H859 0.950 . S
C865 C864 1.327 . S
C865 C869 1.429 . S
C866 C849 1.574 . S
C866 H860 0.949 1_554 S
C866 C870 1.368 1_554 S
C867 C848 1.429 . S
C867 C861 1.429 . S
C867 C868 1.523 . S
C868 C849 1.368 . S
C868 C862 1.368 . S
C868 C867 1.523 . S
C869 C853 1.429 . S
C869 C865 1.429 . S
C869 C870 1.523 . S
C870 C854 1.368 1_556 S
C870 C866 1.368 1_556 S
C870 C869 1.523 . S
H871 C846 0.950 . S
H872 C848 0.950 . S
H873 C849 0.949 . S
H874 C851 0.950 . S
H875 C853 0.950 . S
C876 C877 1.349 . S
C876 C878 1.327 . S
C876 H901 0.950 . S
C877 C876 1.349 . S
C877 C893 1.349 . S
C878 C876 1.327 . S
C878 C897 1.429 . S
C878 H902 0.950 . S
C879 C896 1.574 . S
C879 C898 1.368 . S
C879 H903 0.949 . S
H880 C884 0.949 . S
C881 C882 1.349 . S
C881 C883 1.327 . S
C881 H904 0.950 . S
C882 C881 1.349 . S
C882 C894 1.349 . S
C883 C881 1.327 . S
C883 C899 1.429 . S
C883 H905 0.950 . S
C884 H880 0.949 . S
C884 C892 1.574 . S
C884 C900 1.368 . S
H885 C893 0.950 . S
H886 C891 0.950 . S
H887 C892 0.949 . S
H888 C894 0.950 . S
H889 C895 0.950 . S
H890 C896 0.949 . S
C891 H886 0.950 . S
C891 C893 1.327 . S
C891 C897 1.429 . S
C892 C884 1.574 . S
C892 H887 0.949 . S
C892 C898 1.368 . S
C893 C877 1.349 . S
C893 H885 0.950 . S
C893 C891 1.327 . S
C894 C882 1.349 . S
C894 H888 0.950 . S
C894 C895 1.327 . S
C895 H889 0.950 . S
C895 C894 1.327 . S
C895 C899 1.429 . S
C896 C879 1.574 . S
C896 H890 0.949 . S
C896 C900 1.368 . S
C897 C878 1.429 . S
C897 C891 1.429 . S
C897 C898 1.523 . S
C898 C879 1.368 . S
C898 C892 1.368 . S
C898 C897 1.523 . S
C899 C883 1.429 . S
C899 C895 1.429 . S
C899 C900 1.523 . S
C900 C884 1.368 . S
C900 C896 1.368 . S
C900 C899 1.523 . S
H901 C876 0.950 . S
H902 C878 0.950 . S
H903 C879 0.949 . S
H904 C881 0.950 . S
H905 C883 0.950 . S
C906 C907 1.349 . S
C906 C908 1.327 . S
C906 H931 0.950 . S
C907 C906 1.349 . S
C907 C923 1.349 . S
C908 C906 1.327 . S
C908 C927 1.429 . S
C908 H932 0.950 . S
C909 C926 1.574 . S
C909 C928 1.368 . S
C909 H933 0.949 . S
H910 C914 0.949 . S
C911 C912 1.349 . S
C911 C913 1.327 . S
C911 H934 0.950 . S
C912 C911 1.349 . S
C912 C924 1.349 . S
C913 C911 1.327 . S
C913 C929 1.429 . S
C913 H935 0.950 . S
C914 H910 0.949 . S
C914 C922 1.574 . S
C914 C930 1.368 . S
H915 C923 0.950 . S
H916 C921 0.950 . S
H917 C922 0.949 . S
H918 C924 0.950 . S
H919 C925 0.950 . S
H920 C926 0.949 . S
C921 H916 0.950 . S
C921 C923 1.327 . S
C921 C927 1.429 . S
C922 C914 1.574 . S
C922 H917 0.949 . S
C922 C928 1.368 . S
C923 C907 1.349 . S
C923 H915 0.950 . S
C923 C921 1.327 . S
C924 C912 1.349 . S
C924 H918 0.950 . S
C924 C925 1.327 . S
C925 H919 0.950 . S
C925 C924 1.327 . S
C925 C929 1.429 . S
C926 C909 1.574 . S
C926 H920 0.949 . S
C926 C930 1.368 . S
C927 C908 1.429 . S
C927 C921 1.429 . S
C927 C928 1.523 . S
C928 C909 1.368 . S
C928 C922 1.368 . S
C928 C927 1.523 . S
C929 C913 1.429 . S
C929 C925 1.429 . S
C929 C930 1.523 . S
C930 C914 1.368 . S
C930 C926 1.368 . S
C930 C929 1.523 . S
H931 C906 0.950 . S
H932 C908 0.950 . S
H933 C909 0.949 . S
H934 C911 0.950 . S
H935 C913 0.950 . S
C936 C937 1.349 . S
C936 C938 1.327 . S
C936 H961 0.950 . S
C937 C936 1.349 . S
C937 C953 1.349 . S
C938 C936 1.327 . S
C938 C957 1.429 . S
C938 H962 0.950 . S
C939 C956 1.574 . S
C939 C958 1.368 . S
C939 H963 0.949 . S
H940 C944 0.949 . S
C941 C942 1.349 . S
C941 C943 1.327 . S
C941 H964 0.950 . S
C942 C941 1.349 . S
C942 C954 1.349 . S
C943 C941 1.327 . S
C943 C959 1.429 . S
C943 H965 0.950 . S
C944 H940 0.949 . S
C944 C952 1.574 . S
C944 C960 1.368 . S
H945 C953 0.950 . S
H946 C951 0.950 . S
H947 C952 0.949 . S
H948 C954 0.950 . S
H949 C955 0.950 . S
H950 C956 0.949 . S
C951 H946 0.950 . S
C951 C953 1.327 . S
C951 C957 1.429 . S
C952 C944 1.574 . S
C952 H947 0.949 . S
C952 C958 1.368 . S
C953 C937 1.349 . S
C953 H945 0.950 . S
C953 C951 1.327 . S
C954 C942 1.349 . S
C954 H948 0.950 . S
C954 C955 1.327 . S
C955 H949 0.950 . S
C955 C954 1.327 . S
C955 C959 1.429 . S
C956 C939 1.574 . S
C956 H950 0.949 . S
C956 C960 1.368 . S
C957 C938 1.429 . S
C957 C951 1.429 . S
C957 C958 1.523 . S
C958 C939 1.368 . S
C958 C952 1.368 . S
C958 C957 1.523 . S
C959 C943 1.429 . S
C959 C955 1.429 . S
C959 C960 1.523 . S
C960 C944 1.368 . S
C960 C956 1.368 . S
C960 C959 1.523 . S
H961 C936 0.950 . S
H962 C938 0.950 . S
H963 C939 0.949 . S
H964 C941 0.950 . S
H965 C943 0.950 . S
C966 C967 1.349 . S
C966 C968 1.327 . S
C966 H991 0.950 . S
C967 C966 1.349 . S
C967 C983 1.349 . S
C968 C966 1.327 . S
C968 C987 1.429 . S
C968 H992 0.950 . S
C969 C986 1.574 . S
C969 C988 1.368 . S
C969 H993 0.949 . S
H970 C974 0.949 . S
C971 C972 1.349 . S
C971 C973 1.327 . S
C971 H994 0.950 . S
C972 C971 1.349 . S
C972 C984 1.349 . S
C973 C971 1.327 . S
C973 C989 1.429 . S
C973 H995 0.950 . S
C974 H970 0.949 . S
C974 C982 1.574 . S
C974 C990 1.368 . S
H975 C983 0.950 . S
H976 C981 0.950 . S
H977 C982 0.949 . S
H978 C984 0.950 . S
H979 C985 0.950 . S
H980 C986 0.949 . S
C981 H976 0.950 . S
C981 C983 1.327 . S
C981 C987 1.429 . S
C982 C974 1.574 . S
C982 H977 0.949 . S
C982 C988 1.368 . S
C983 C967 1.349 . S
C983 H975 0.950 . S
C983 C981 1.327 . S
C984 C972 1.349 . S
C984 H978 0.950 . S
C984 C985 1.327 . S
C985 H979 0.950 . S
C985 C984 1.327 . S
C985 C989 1.429 . S
C986 C969 1.574 . S
C986 H980 0.949 . S
C986 C990 1.368 . S
C987 C968 1.429 . S
C987 C981 1.429 . S
C987 C988 1.523 . S
C988 C969 1.368 . S
C988 C982 1.368 . S
C988 C987 1.523 . S
C989 C973 1.429 . S
C989 C985 1.429 . S
C989 C990 1.523 . S
C990 C974 1.368 . S
C990 C986 1.368 . S
C990 C989 1.523 . S
H991 C966 0.950 . S
H992 C968 0.950 . S
H993 C969 0.949 . S
H994 C971 0.950 . S
H995 C973 0.950 . S
C996 C997 1.349 . S
C996 C998 1.327 . S
C996 H1021 0.950 . S
C997 C996 1.349 . S
C997 C1013 1.349 . S
C998 C996 1.327 . S
C998 C1017 1.429 . S
C998 H1022 0.950 . S
C999 C1016 1.574 . S
C999 C1018 1.368 . S
C999 H1023 0.949 . S
H1000 C1004 0.949 . S
C1001 C1002 1.349 . S
C1001 C1003 1.327 . S
C1001 H1024 0.950 . S
C1002 C1001 1.349 . S
C1002 C1014 1.349 . S
C1003 C1001 1.327 . S
C1003 C1019 1.429 . S
C1003 H1025 0.950 . S
C1004 H1000 0.949 . S
C1004 C1012 1.574 . S
C1004 C1020 1.368 . S
H1005 C1013 0.950 . S
H1006 C1011 0.950 . S
H1007 C1012 0.949 . S
H1008 C1014 0.950 . S
H1009 C1015 0.950 . S
H1010 C1016 0.949 . S
C1011 H1006 0.950 . S
C1011 C1013 1.327 . S
C1011 C1017 1.429 . S
C1012 C1004 1.574 . S
C1012 H1007 0.949 . S
C1012 C1018 1.368 . S
C1013 C997 1.349 . S
C1013 H1005 0.950 . S
C1013 C1011 1.327 . S
C1014 C1002 1.349 . S
C1014 H1008 0.950 . S
C1014 C1015 1.327 . S
C1015 H1009 0.950 . S
C1015 C1014 1.327 . S
C1015 C1019 1.429 . S
C1016 C999 1.574 . S
C1016 H1010 0.949 . S
C1016 C1020 1.368 . S
C1017 C998 1.429 . S
C1017 C1011 1.429 . S
C1017 C1018 1.523 . S
C1018 C999 1.368 . S
C1018 C1012 1.368 . S
C1018 C1017 1.523 . S
C1019 C1003 1.429 . S
C1019 C1015 1.429 . S
C1019 C1020 1.523 . S
C1020 C1004 1.368 . S
C1020 C1016 1.368 . S
C1020 C1019 1.523 . S
H1021 C996 0.950 . S
H1022 C998 0.950 . S
H1023 C999 0.949 . S
H1024 C1001 0.950 . S
H1025 C1003 0.950 . S
C1026 C1027 1.349 . S
C1026 C1028 1.327 . S
C1026 H1051 0.950 . S
C1027 C1026 1.349 . S
C1027 C1043 1.349 . S
C1028 C1026 1.327 . S
C1028 C1047 1.429 . S
C1028 H1052 0.950 . S
C1029 C1046 1.574 . S
C1029 C1048 1.368 . S
C1029 H1053 0.949 . S
H1030 C1034 0.949 . S
C1031 C1032 1.349 . S
C1031 C1033 1.327 . S
C1031 H1054 0.950 . S
C1032 C1031 1.349 . S
C1032 C1044 1.349 . S
C1033 C1031 1.327 . S
C1033 C1049 1.429 . S
C1033 H1055 0.950 . S
C1034 H1030 0.949 . S
C1034 C1042 1.574 . S
C1034 C1050 1.368 . S
H1035 C1043 0.950 . S
H1036 C1041 0.950 . S
H1037 C1042 0.949 . S
H1038 C1044 0.950 . S
H1039 C1045 0.950 . S
H1040 C1046 0.949 . S
C1041 H1036 0.950 . S
C1041 C1043 1.327 . S
C1041 C1047 1.429 . S
C1042 C1034 1.574 . S
C1042 H1037 0.949 . S
C1042 C1048 1.368 . S
C1043 C1027 1.349 . S
C1043 H1035 0.950 . S
C1043 C1041 1.327 . S
C1044 C1032 1.349 . S
C1044 H1038 0.950 . S
C1044 C1045 1.327 . S
C1045 H1039 0.950 . S
C1045 C1044 1.327 . S
C1045 C1049 1.429 . S
C1046 C1029 1.574 . S
C1046 H1040 0.949 . S
C1046 C1050 1.368 . S
C1047 C1028 1.429 . S
C1047 C1041 1.429 . S
C1047 C1048 1.523 . S
C1048 C1029 1.368 . S
C1048 C1042 1.368 . S
C1048 C1047 1.523 . S
C1049 C1033 1.429 . S
C1049 C1045 1.429 . S
C1049 C1050 1.523 . S
C1050 C1034 1.368 . S
C1050 C1046 1.368 . S
C1050 C1049 1.523 . S
H1051 C1026 0.950 . S
H1052 C1028 0.950 . S
H1053 C1029 0.949 . S
H1054 C1031 0.950 . S
H1055 C1033 0.950 . S
C1056 C1057 1.349 . S
C1056 C1058 1.327 . S
C1056 H1081 0.950 . S
C1057 C1056 1.349 . S
C1057 C1073 1.349 . S
C1058 C1056 1.327 . S
C1058 C1077 1.429 . S
C1058 H1082 0.950 . S
C1059 C1076 1.574 . S
C1059 C1078 1.368 . S
C1059 H1083 0.949 . S
H1060 C1064 0.949 . S
C1061 C1062 1.349 . S
C1061 C1063 1.327 . S
C1061 H1084 0.950 . S
C1062 C1061 1.349 . S
C1062 C1074 1.349 . S
C1063 C1061 1.327 . S
C1063 C1079 1.429 . S
C1063 H1085 0.950 . S
C1064 H1060 0.949 . S
C1064 C1072 1.574 . S
C1064 C1080 1.368 . S
H1065 C1073 0.950 . S
H1066 C1071 0.950 . S
H1067 C1072 0.949 . S
H1068 C1074 0.950 . S
H1069 C1075 0.950 . S
H1070 C1076 0.949 . S
C1071 H1066 0.950 . S
C1071 C1073 1.327 . S
C1071 C1077 1.429 . S
C1072 C1064 1.574 . S
C1072 H1067 0.949 . S
C1072 C1078 1.368 . S
C1073 C1057 1.349 . S
C1073 H1065 0.950 . S
C1073 C1071 1.327 . S
C1074 C1062 1.349 . S
C1074 H1068 0.950 . S
C1074 C1075 1.327 . S
C1075 H1069 0.950 . S
C1075 C1074 1.327 . S
C1075 C1079 1.429 . S
C1076 C1059 1.574 . S
C1076 H1070 0.949 . S
C1076 C1080 1.368 . S
C1077 C1058 1.429 . S
C1077 C1071 1.429 . S
C1077 C1078 1.523 . S
C1078 C1059 1.368 . S
C1078 C1072 1.368 . S
C1078 C1077 1.523 . S
C1079 C1063 1.429 . S
C1079 C1075 1.429 . S
C1079 C1080 1.523 . S
C1080 C1064 1.368 . S
C1080 C1076 1.368 . S
C1080 C1079 1.523 . S
H1081 C1056 0.950 . S
H1082 C1058 0.950 . S
H1083 C1059 0.949 . S
H1084 C1061 0.950 . S
H1085 C1063 0.950 . S
C1086 C1087 1.349 . S
C1086 C1088 1.327 . S
C1086 H1111 0.950 . S
C1087 C1086 1.349 . S
C1087 C1103 1.349 . S
C1088 C1086 1.327 . S
C1088 C1107 1.429 . S
C1088 H1112 0.950 . S
C1089 C1106 1.574 . S
C1089 C1108 1.368 . S
C1089 H1113 0.949 . S
H1090 C1094 0.949 . S
C1091 C1092 1.349 . S
C1091 C1093 1.327 . S
C1091 H1114 0.950 . S
C1092 C1091 1.349 . S
C1092 C1104 1.349 . S
C1093 C1091 1.327 . S
C1093 C1109 1.429 . S
C1093 H1115 0.950 . S
C1094 H1090 0.949 . S
C1094 C1102 1.574 . S
C1094 C1110 1.368 . S
H1095 C1103 0.950 . S
H1096 C1101 0.950 . S
H1097 C1102 0.949 . S
H1098 C1104 0.950 . S
H1099 C1105 0.950 . S
H1100 C1106 0.949 . S
C1101 H1096 0.950 . S
C1101 C1103 1.327 . S
C1101 C1107 1.429 . S
C1102 C1094 1.574 . S
C1102 H1097 0.949 . S
C1102 C1108 1.368 . S
C1103 C1087 1.349 . S
C1103 H1095 0.950 . S
C1103 C1101 1.327 . S
C1104 C1092 1.349 . S
C1104 H1098 0.950 . S
C1104 C1105 1.327 . S
C1105 H1099 0.950 . S
C1105 C1104 1.327 . S
C1105 C1109 1.429 . S
C1106 C1089 1.574 . S
C1106 H1100 0.949 . S
C1106 C1110 1.368 . S
C1107 C1088 1.429 . S
C1107 C1101 1.429 . S
C1107 C1108 1.523 . S
C1108 C1089 1.368 . S
C1108 C1102 1.368 . S
C1108 C1107 1.523 . S
C1109 C1093 1.429 . S
C1109 C1105 1.429 . S
C1109 C1110 1.523 . S
C1110 C1094 1.368 . S
C1110 C1106 1.368 . S
C1110 C1109 1.523 . S
H1111 C1086 0.950 . S
H1112 C1088 0.950 . S
H1113 C1089 0.949 . S
H1114 C1091 0.950 . S
H1115 C1093 0.950 . S
C1116 C1117 1.349 . S
C1116 C1118 1.327 . S
C1116 H1141 0.950 . S
C1117 C1116 1.349 . S
C1117 C1133 1.349 . S
C1118 C1116 1.327 . S
C1118 C1137 1.429 . S
C1118 H1142 0.950 1_556 S
C1119 C1136 1.574 . S
C1119 C1138 1.368 . S
C1119 H1143 0.949 . S
H1120 C1124 0.949 . S
C1121 C1122 1.349 . S
C1121 C1123 1.327 . S
C1121 H1144 0.950 . S
C1122 C1121 1.349 . S
C1122 C1134 1.349 . S
C1123 C1121 1.327 . S
C1123 C1139 1.429 . S
C1123 H1145 0.950 1_554 S
C1124 H1120 0.949 . S
C1124 C1132 1.574 . S
C1124 C1140 1.368 . S
H1125 C1133 0.950 . S
H1126 C1131 0.950 . S
H1127 C1132 0.949 . S
H1128 C1134 0.950 . S
H1129 C1135 0.950 . S
H1130 C1136 0.949 . S
C1131 H1126 0.950 . S
C1131 C1133 1.327 . S
C1131 C1137 1.429 . S
C1132 C1124 1.574 . S
C1132 H1127 0.949 . S
C1132 C1138 1.368 1_554 S
C1133 C1117 1.349 . S
C1133 H1125 0.950 . S
C1133 C1131 1.327 . S
C1134 C1122 1.349 . S
C1134 H1128 0.950 . S
C1134 C1135 1.327 . S
C1135 H1129 0.950 . S
C1135 C1134 1.327 . S
C1135 C1139 1.429 . S
C1136 C1119 1.574 . S
C1136 H1130 0.949 . S
C1136 C1140 1.368 1_556 S
C1137 C1118 1.429 . S
C1137 C1131 1.429 . S
C1137 C1138 1.523 . S
C1138 C1119 1.368 . S
C1138 C1132 1.368 1_556 S
C1138 C1137 1.523 . S
C1139 C1123 1.429 . S
C1139 C1135 1.429 . S
C1139 C1140 1.523 . S
C1140 C1124 1.368 . S
C1140 C1136 1.368 1_554 S
C1140 C1139 1.523 . S
H1141 C1116 0.950 . S
H1142 C1118 0.950 1_554 S
H1143 C1119 0.949 . S
H1144 C1121 0.950 . S
H1145 C1123 0.950 1_556 S
C1146 C1147 1.349 . S
C1146 C1148 1.327 . S
C1146 H1171 0.950 . S
C1147 C1146 1.349 . S
C1147 C1163 1.349 . S
C1148 C1146 1.327 . S
C1148 C1167 1.429 . S
C1148 H1172 0.950 . S
C1149 C1166 1.574 . S
C1149 C1168 1.368 . S
C1149 H1173 0.949 . S
H1150 C1154 0.949 . S
C1151 C1152 1.349 . S
C1151 C1153 1.327 . S
C1151 H1174 0.950 . S
C1152 C1151 1.349 . S
C1152 C1164 1.349 . S
C1153 C1151 1.327 . S
C1153 C1169 1.429 . S
C1153 H1175 0.950 . S
C1154 H1150 0.949 . S
C1154 C1162 1.574 . S
C1154 C1170 1.368 . S
H1155 C1163 0.950 . S
H1156 C1161 0.950 . S
H1157 C1162 0.949 . S
H1158 C1164 0.950 . S
H1159 C1165 0.950 . S
H1160 C1166 0.949 . S
C1161 H1156 0.950 . S
C1161 C1163 1.327 . S
C1161 C1167 1.429 . S
C1162 C1154 1.574 . S
C1162 H1157 0.949 . S
C1162 C1168 1.368 . S
C1163 C1147 1.349 . S
C1163 H1155 0.950 . S
C1163 C1161 1.327 . S
C1164 C1152 1.349 . S
C1164 H1158 0.950 . S
C1164 C1165 1.327 . S
C1165 H1159 0.950 . S
C1165 C1164 1.327 . S
C1165 C1169 1.429 . S
C1166 C1149 1.574 . S
C1166 H1160 0.949 . S
C1166 C1170 1.368 . S
C1167 C1148 1.429 . S
C1167 C1161 1.429 . S
C1167 C1168 1.523 . S
C1168 C1149 1.368 . S
C1168 C1162 1.368 . S
C1168 C1167 1.523 . S
C1169 C1153 1.429 . S
C1169 C1165 1.429 . S
C1169 C1170 1.523 . S
C1170 C1154 1.368 . S
C1170 C1166 1.368 . S
C1170 C1169 1.523 . S
H1171 C1146 0.950 . S
H1172 C1148 0.950 . S
H1173 C1149 0.949 . S
H1174 C1151 0.950 . S
H1175 C1153 0.950 . S
C1176 C1177 1.349 . S
C1176 C1178 1.327 . S
C1176 H1201 0.950 . S
C1177 C1176 1.349 . S
C1177 C1193 1.349 . S
C1178 C1176 1.327 . S
C1178 C1197 1.429 . S
C1178 H1202 0.950 . S
C1179 C1196 1.574 . S
C1179 C1198 1.368 . S
C1179 H1203 0.949 . S
H1180 C1184 0.949 . S
C1181 C1182 1.349 . S
C1181 C1183 1.327 . S
C1181 H1204 0.950 . S
C1182 C1181 1.349 . S
C1182 C1194 1.349 . S
C1183 C1181 1.327 . S
C1183 C1199 1.429 . S
C1183 H1205 0.950 . S
C1184 H1180 0.949 . S
C1184 C1192 1.574 . S
C1184 C1200 1.368 . S
H1185 C1193 0.950 . S
H1186 C1191 0.950 . S
H1187 C1192 0.949 . S
H1188 C1194 0.950 . S
H1189 C1195 0.950 . S
H1190 C1196 0.949 . S
C1191 H1186 0.950 . S
C1191 C1193 1.327 . S
C1191 C1197 1.429 . S
C1192 C1184 1.574 . S
C1192 H1187 0.949 . S
C1192 C1198 1.368 . S
C1193 C1177 1.349 . S
C1193 H1185 0.950 . S
C1193 C1191 1.327 . S
C1194 C1182 1.349 . S
C1194 H1188 0.950 . S
C1194 C1195 1.327 . S
C1195 H1189 0.950 . S
C1195 C1194 1.327 . S
C1195 C1199 1.429 . S
C1196 C1179 1.574 . S
C1196 H1190 0.949 . S
C1196 C1200 1.368 . S
C1197 C1178 1.429 . S
C1197 C1191 1.429 . S
C1197 C1198 1.523 . S
C1198 C1179 1.368 . S
C1198 C1192 1.368 . S
C1198 C1197 1.523 . S
C1199 C1183 1.429 . S
C1199 C1195 1.429 . S
C1199 C1200 1.523 . S
C1200 C1184 1.368 . S
C1200 C1196 1.368 . S
C1200 C1199 1.523 . S
H1201 C1176 0.950 . S
H1202 C1178 0.950 . S
H1203 C1179 0.949 . S
H1204 C1181 0.950 . S
H1205 C1183 0.950 . S
C1206 C1207 1.349 . S
C1206 C1208 1.327 . S
C1206 H1231 0.950 . S
C1207 C1206 1.349 . S
C1207 C1223 1.349 . S
C1208 C1206 1.327 . S
C1208 C1227 1.429 . S
C1208 H1232 0.950 1_554 S
C1209 C1226 1.574 . S
C1209 C1228 1.368 . S
C1209 H1233 0.949 . S
H1210 C1214 0.949 . S
C1211 C1212 1.349 . S
C1211 C1213 1.327 . S
C1211 H1234 0.950 . S
C1212 C1211 1.349 . S
C1212 C1224 1.349 . S
C1213 C1211 1.327 . S
C1213 C1229 1.429 . S
C1213 H1235 0.950 1_556 S
C1214 H1210 0.949 . S
C1214 C1222 1.574 . S
C1214 C1230 1.368 . S
H1215 C1223 0.950 . S
H1216 C1221 0.950 . S
H1217 C1222 0.949 . S
H1218 C1224 0.950 . S
H1219 C1225 0.950 . S
H1220 C1226 0.949 . S
C1221 H1216 0.950 . S
C1221 C1223 1.327 . S
C1221 C1227 1.429 . S
C1222 C1214 1.574 . S
C1222 H1217 0.949 . S
C1222 C1228 1.368 1_556 S
C1223 C1207 1.349 . S
C1223 H1215 0.950 . S
C1223 C1221 1.327 . S
C1224 C1212 1.349 . S
C1224 H1218 0.950 . S
C1224 C1225 1.327 . S
C1225 H1219 0.950 . S
C1225 C1224 1.327 . S
C1225 C1229 1.429 . S
C1226 C1209 1.574 . S
C1226 H1220 0.949 . S
C1226 C1230 1.368 1_554 S
C1227 C1208 1.429 . S
C1227 C1221 1.429 . S
C1227 C1228 1.523 . S
C1228 C1209 1.368 . S
C1228 C1222 1.368 1_554 S
C1228 C1227 1.523 . S
C1229 C1213 1.429 . S
C1229 C1225 1.429 . S
C1229 C1230 1.523 . S
C1230 C1214 1.368 . S
C1230 C1226 1.368 1_556 S
C1230 C1229 1.523 . S
H1231 C1206 0.950 . S
H1232 C1208 0.950 1_556 S
H1233 C1209 0.949 . S
H1234 C1211 0.950 . S
H1235 C1213 0.950 1_554 S
C1236 C1237 1.349 . S
C1236 C1238 1.327 . S
C1236 H1261 0.950 . S
C1237 C1236 1.349 . S
C1237 C1253 1.349 . S
C1238 C1236 1.327 . S
C1238 C1257 1.429 . S
C1238 H1262 0.950 . S
C1239 C1256 1.574 . S
C1239 C1258 1.368 . S
C1239 H1263 0.949 . S
H1240 C1244 0.949 . S
C1241 C1242 1.349 . S
C1241 C1243 1.327 . S
C1241 H1264 0.950 . S
C1242 C1241 1.349 . S
C1242 C1254 1.349 . S
C1243 C1241 1.327 . S
C1243 C1259 1.429 . S
C1243 H1265 0.950 . S
C1244 H1240 0.949 . S
C1244 C1252 1.574 . S
C1244 C1260 1.368 . S
H1245 C1253 0.950 . S
H1246 C1251 0.950 . S
H1247 C1252 0.949 . S
H1248 C1254 0.950 . S
H1249 C1255 0.950 . S
H1250 C1256 0.949 . S
C1251 H1246 0.950 . S
C1251 C1253 1.327 . S
C1251 C1257 1.429 . S
C1252 C1244 1.574 . S
C1252 H1247 0.949 . S
C1252 C1258 1.368 . S
C1253 C1237 1.349 . S
C1253 H1245 0.950 . S
C1253 C1251 1.327 . S
C1254 C1242 1.349 . S
C1254 H1248 0.950 . S
C1254 C1255 1.327 . S
C1255 H1249 0.950 . S
C1255 C1254 1.327 . S
C1255 C1259 1.429 . S
C1256 C1239 1.574 . S
C1256 H1250 0.949 . S
C1256 C1260 1.368 . S
C1257 C1238 1.429 . S
C1257 C1251 1.429 . S
C1257 C1258 1.523 . S
C1258 C1239 1.368 . S
C1258 C1252 1.368 . S
C1258 C1257 1.523 . S
C1259 C1243 1.429 . S
C1259 C1255 1.429 . S
C1259 C1260 1.523 . S
C1260 C1244 1.368 . S
C1260 C1256 1.368 . S
C1260 C1259 1.523 . S
H1261 C1236 0.950 . S
H1262 C1238 0.950 . S
H1263 C1239 0.949 . S
H1264 C1241 0.950 . S
H1265 C1243 0.950 . S
C1266 C1267 1.349 . S
C1266 C1268 1.327 . S
C1266 H1291 0.950 . S
C1267 C1266 1.349 . S
C1267 C1283 1.349 . S
C1268 C1266 1.327 . S
C1268 C1287 1.429 . S
C1268 H1292 0.950 . S
C1269 C1286 1.574 . S
C1269 C1288 1.368 . S
C1269 H1293 0.949 . S
H1270 C1274 0.949 . S
C1271 C1272 1.349 . S
C1271 C1273 1.327 . S
C1271 H1294 0.950 . S
C1272 C1271 1.349 . S
C1272 C1284 1.349 . S
C1273 C1271 1.327 . S
C1273 C1289 1.429 . S
C1273 H1295 0.950 . S
C1274 H1270 0.949 . S
C1274 C1282 1.574 . S
C1274 C1290 1.368 . S
H1275 C1283 0.950 . S
H1276 C1281 0.950 . S
H1277 C1282 0.949 . S
H1278 C1284 0.950 . S
H1279 C1285 0.950 . S
H1280 C1286 0.949 . S
C1281 H1276 0.950 . S
C1281 C1283 1.327 . S
C1281 C1287 1.429 . S
C1282 C1274 1.574 . S
C1282 H1277 0.949 . S
C1282 C1288 1.368 . S
C1283 C1267 1.349 . S
C1283 H1275 0.950 . S
C1283 C1281 1.327 . S
C1284 C1272 1.349 . S
C1284 H1278 0.950 . S
C1284 C1285 1.327 . S
C1285 H1279 0.950 . S
C1285 C1284 1.327 . S
C1285 C1289 1.429 . S
C1286 C1269 1.574 . S
C1286 H1280 0.949 . S
C1286 C1290 1.368 . S
C1287 C1268 1.429 . S
C1287 C1281 1.429 . S
C1287 C1288 1.523 . S
C1288 C1269 1.368 . S
C1288 C1282 1.368 . S
C1288 C1287 1.523 . S
C1289 C1273 1.429 . S
C1289 C1285 1.429 . S
C1289 C1290 1.523 . S
C1290 C1274 1.368 . S
C1290 C1286 1.368 . S
C1290 C1289 1.523 . S
H1291 C1266 0.950 . S
H1292 C1268 0.950 . S
H1293 C1269 0.949 . S
H1294 C1271 0.950 . S
H1295 C1273 0.950 . S
C397 C7 1.144 . S
C402 C370 1.144 . S
C427 C40 1.144 . S
C432 C205 1.144 . S
C457 C238 1.145 . S
C462 C73 1.145 . S
C487 C271 1.144 . S
C492 C106 1.144 . S
C517 C304 1.144 . S
C522 C139 1.144 . S
C547 C337 1.144 . S
C552 C172 1.144 . S
C577 N13 1.365 . S
C582 N2 1.363 . S
C607 N35 1.363 . S
C612 N46 1.365 . S
C637 N79 1.365 . S
C642 N68 1.363 1_554 S
C667 N112 1.365 . S
C672 N101 1.363 . S
C697 N145 1.365 . S
C702 N134 1.363 . S
C727 N167 1.363 1_554 S
C732 N178 1.365 . S
C757 N211 1.365 . S
C762 N200 1.363 . S
C787 N233 1.363 . S
C792 N244 1.365 . S
C817 N277 1.365 . S
C822 N266 1.363 1_556 S
C847 N299 1.363 . S
C852 N310 1.365 . S
C877 N332 1.363 . S
C882 N343 1.365 . S
C907 N376 1.365 . S
C912 N365 1.363 1_556 S
C937 C21 1.589 . S
C942 C285 1.589 . S
C967 C54 1.590 . S
C972 C318 1.590 . S
C997 C87 1.590 . S
C1002 C351 1.590 . S
C1027 C384 1.590 . S
C1032 C120 1.590 . S
C1057 C219 1.590 . S
C1062 C153 1.590 . S
C1087 C252 1.590 . S
C1092 C186 1.590 . S
C1117 C348 1.104 . S
C1122 C18 1.104 . S
C1147 C381 1.102 . S
C1152 C51 1.102 . S
C1177 C216 1.103 . S
C1182 C84 1.103 . S
C1207 C117 1.103 . S
C1212 C249 1.103 . S
C1237 C150 1.102 . S
C1242 C282 1.102 . S
C1267 C183 1.103 . S
C1272 C315 1.103 . S
