# Generated by pormake.
# Topology ukc, (4)-cn, num edge types: 1
# Building blocks:
#     Node 0, Type 0, BuildingBlock: AZAVOO_clean_sbu_0, # of connection points: 4
#     Node 1, Type 0, BuildingBlock: AZAVOO_clean_sbu_0, # of connection points: 4
#     Node 2, Type 0, BuildingBlock: AZAVOO_clean_sbu_0, # of connection points: 4
#     Node 3, Type 0, BuildingBlock: AZAVOO_clean_sbu_0, # of connection points: 4
#     Node 4, Type 0, BuildingBlock: AZAVOO_clean_sbu_0, # of connection points: 4
#     Node 5, Type 0, BuildingBlock: AZAVOO_clean_sbu_0, # of connection points: 4
#     Node 6, Type 0, BuildingBlock: AZAVOO_clean_sbu_0, # of connection points: 4
#     Node 7, Type 0, BuildingBlock: AZAVOO_clean_sbu_0, # of connection points: 4
#     Node 8, Type 0, BuildingBlock: AZAVOO_clean_sbu_0, # of connection points: 4
#     Node 9, Type 0, BuildingBlock: AZAVOO_clean_sbu_0, # of connection points: 4
#     Node 10, Type 0, BuildingBlock: AZAVOO_clean_sbu_0, # of connection points: 4
#     Node 11, Type 0, BuildingBlock: AZAVOO_clean_sbu_0, # of connection points: 4
#     Node 12, Type 0, BuildingBlock: AZAVOO_clean_sbu_0, # of connection points: 4
#     Node 13, Type 0, BuildingBlock: AZAVOO_clean_sbu_0, # of connection points: 4
#     Node 14, Type 0, BuildingBlock: AZAVOO_clean_sbu_0, # of connection points: 4
#     Node 15, Type 0, BuildingBlock: AZAVOO_clean_sbu_0, # of connection points: 4
#     Node 16, Type 0, BuildingBlock: AZAVOO_clean_sbu_0, # of connection points: 4
#     Node 17, Type 0, BuildingBlock: AZAVOO_clean_sbu_0, # of connection points: 4
#     Node 18, Type 0, BuildingBlock: AZAVOO_clean_sbu_0, # of connection points: 4
#     Node 19, Type 0, BuildingBlock: AZAVOO_clean_sbu_0, # of connection points: 4
#     Node 20, Type 0, BuildingBlock: AZAVOO_clean_sbu_0, # of connection points: 4
#     Node 21, Type 0, BuildingBlock: AZAVOO_clean_sbu_0, # of connection points: 4
#     Node 22, Type 0, BuildingBlock: AZAVOO_clean_sbu_0, # of connection points: 4
#     Node 23, Type 0, BuildingBlock: AZAVOO_clean_sbu_0, # of connection points: 4
#     Node 24, Type 0, BuildingBlock: AZAVOO_clean_sbu_0, # of connection points: 4
#     Node 25, Type 0, BuildingBlock: AZAVOO_clean_sbu_0, # of connection points: 4
#     Node 26, Type 0, BuildingBlock: AZAVOO_clean_sbu_0, # of connection points: 4
#     Node 27, Type 0, BuildingBlock: AZAVOO_clean_sbu_0, # of connection points: 4
#     Node 28, Type 0, BuildingBlock: AZAVOO_clean_sbu_0, # of connection points: 4
#     Node 29, Type 0, BuildingBlock: AZAVOO_clean_sbu_0, # of connection points: 4
#     Node 30, Type 0, BuildingBlock: AZAVOO_clean_sbu_0, # of connection points: 4
#     Node 31, Type 0, BuildingBlock: AZAVOO_clean_sbu_0, # of connection points: 4
#     Edge 32, Type (0, 0), BuildingBlock: AJUNOK_clean_linker_0, # of connection points: 2
#     Edge 33, Type (0, 0), BuildingBlock: AJUNOK_clean_linker_0, # of connection points: 2
#     Edge 34, Type (0, 0), BuildingBlock: AJUNOK_clean_linker_0, # of connection points: 2
#     Edge 35, Type (0, 0), BuildingBlock: AJUNOK_clean_linker_0, # of connection points: 2
#     Edge 36, Type (0, 0), BuildingBlock: AJUNOK_clean_linker_0, # of connection points: 2
#     Edge 37, Type (0, 0), BuildingBlock: AJUNOK_clean_linker_0, # of connection points: 2
#     Edge 38, Type (0, 0), BuildingBlock: AJUNOK_clean_linker_0, # of connection points: 2
#     Edge 39, Type (0, 0), BuildingBlock: AJUNOK_clean_linker_0, # of connection points: 2
#     Edge 40, Type (0, 0), BuildingBlock: AJUNOK_clean_linker_0, # of connection points: 2
#     Edge 41, Type (0, 0), BuildingBlock: AJUNOK_clean_linker_0, # of connection points: 2
#     Edge 42, Type (0, 0), BuildingBlock: AJUNOK_clean_linker_0, # of connection points: 2
#     Edge 43, Type (0, 0), BuildingBlock: AJUNOK_clean_linker_0, # of connection points: 2
#     Edge 44, Type (0, 0), BuildingBlock: AJUNOK_clean_linker_0, # of connection points: 2
#     Edge 45, Type (0, 0), BuildingBlock: AJUNOK_clean_linker_0, # of connection points: 2
#     Edge 46, Type (0, 0), BuildingBlock: AJUNOK_clean_linker_0, # of connection points: 2
#     Edge 47, Type (0, 0), BuildingBlock: AJUNOK_clean_linker_0, # of connection points: 2
#     Edge 48, Type (0, 0), BuildingBlock: AJUNOK_clean_linker_0, # of connection points: 2
#     Edge 49, Type (0, 0), BuildingBlock: AJUNOK_clean_linker_0, # of connection points: 2
#     Edge 50, Type (0, 0), BuildingBlock: AJUNOK_clean_linker_0, # of connection points: 2
#     Edge 51, Type (0, 0), BuildingBlock: AJUNOK_clean_linker_0, # of connection points: 2
#     Edge 52, Type (0, 0), BuildingBlock: AJUNOK_clean_linker_0, # of connection points: 2
#     Edge 53, Type (0, 0), BuildingBlock: AJUNOK_clean_linker_0, # of connection points: 2
#     Edge 54, Type (0, 0), BuildingBlock: AJUNOK_clean_linker_0, # of connection points: 2
#     Edge 55, Type (0, 0), BuildingBlock: AJUNOK_clean_linker_0, # of connection points: 2
#     Edge 56, Type (0, 0), BuildingBlock: AJUNOK_clean_linker_0, # of connection points: 2
#     Edge 57, Type (0, 0), BuildingBlock: AJUNOK_clean_linker_0, # of connection points: 2
#     Edge 58, Type (0, 0), BuildingBlock: AJUNOK_clean_linker_0, # of connection points: 2
#     Edge 59, Type (0, 0), BuildingBlock: AJUNOK_clean_linker_0, # of connection points: 2
#     Edge 60, Type (0, 0), BuildingBlock: AJUNOK_clean_linker_0, # of connection points: 2
#     Edge 61, Type (0, 0), BuildingBlock: AJUNOK_clean_linker_0, # of connection points: 2
#     Edge 62, Type (0, 0), BuildingBlock: AJUNOK_clean_linker_0, # of connection points: 2
#     Edge 63, Type (0, 0), BuildingBlock: AJUNOK_clean_linker_0, # of connection points: 2
#     Edge 64, Type (0, 0), BuildingBlock: AJUNOK_clean_linker_0, # of connection points: 2
#     Edge 65, Type (0, 0), BuildingBlock: AJUNOK_clean_linker_0, # of connection points: 2
#     Edge 66, Type (0, 0), BuildingBlock: AJUNOK_clean_linker_0, # of connection points: 2
#     Edge 67, Type (0, 0), BuildingBlock: AJUNOK_clean_linker_0, # of connection points: 2
#     Edge 68, Type (0, 0), BuildingBlock: AJUNOK_clean_linker_0, # of connection points: 2
#     Edge 69, Type (0, 0), BuildingBlock: AJUNOK_clean_linker_0, # of connection points: 2
#     Edge 70, Type (0, 0), BuildingBlock: AJUNOK_clean_linker_0, # of connection points: 2
#     Edge 71, Type (0, 0), BuildingBlock: AJUNOK_clean_linker_0, # of connection points: 2
#     Edge 72, Type (0, 0), BuildingBlock: AJUNOK_clean_linker_0, # of connection points: 2
#     Edge 73, Type (0, 0), BuildingBlock: AJUNOK_clean_linker_0, # of connection points: 2
#     Edge 74, Type (0, 0), BuildingBlock: AJUNOK_clean_linker_0, # of connection points: 2
#     Edge 75, Type (0, 0), BuildingBlock: AJUNOK_clean_linker_0, # of connection points: 2
#     Edge 76, Type (0, 0), BuildingBlock: AJUNOK_clean_linker_0, # of connection points: 2
#     Edge 77, Type (0, 0), BuildingBlock: AJUNOK_clean_linker_0, # of connection points: 2
#     Edge 78, Type (0, 0), BuildingBlock: AJUNOK_clean_linker_0, # of connection points: 2
#     Edge 79, Type (0, 0), BuildingBlock: AJUNOK_clean_linker_0, # of connection points: 2
#     Edge 80, Type (0, 0), BuildingBlock: AJUNOK_clean_linker_0, # of connection points: 2
#     Edge 81, Type (0, 0), BuildingBlock: AJUNOK_clean_linker_0, # of connection points: 2
#     Edge 82, Type (0, 0), BuildingBlock: AJUNOK_clean_linker_0, # of connection points: 2
#     Edge 83, Type (0, 0), BuildingBlock: AJUNOK_clean_linker_0, # of connection points: 2
#     Edge 84, Type (0, 0), BuildingBlock: AJUNOK_clean_linker_0, # of connection points: 2
#     Edge 85, Type (0, 0), BuildingBlock: AJUNOK_clean_linker_0, # of connection points: 2
#     Edge 86, Type (0, 0), BuildingBlock: AJUNOK_clean_linker_0, # of connection points: 2
#     Edge 87, Type (0, 0), BuildingBlock: AJUNOK_clean_linker_0, # of connection points: 2
#     Edge 88, Type (0, 0), BuildingBlock: AJUNOK_clean_linker_0, # of connection points: 2
#     Edge 89, Type (0, 0), BuildingBlock: AJUNOK_clean_linker_0, # of connection points: 2
#     Edge 90, Type (0, 0), BuildingBlock: AJUNOK_clean_linker_0, # of connection points: 2
#     Edge 91, Type (0, 0), BuildingBlock: AJUNOK_clean_linker_0, # of connection points: 2
#     Edge 92, Type (0, 0), BuildingBlock: AJUNOK_clean_linker_0, # of connection points: 2
#     Edge 93, Type (0, 0), BuildingBlock: AJUNOK_clean_linker_0, # of connection points: 2
#     Edge 94, Type (0, 0), BuildingBlock: AJUNOK_clean_linker_0, # of connection points: 2
#     Edge 95, Type (0, 0), BuildingBlock: AJUNOK_clean_linker_0, # of connection points: 2
# Relax obj value: 0.060
# Max RMSD: 0.100
# Mean RMSD: 0.100
data_MOF--net-ukc--node1-AZAVOO_clean_sbu_0--edge1-AJUNOK_clean_linker_0
_symmetry_space_group_name_H-M    P1
_symmetry_Int_Tables_number       1
_symmetry_cell_setting            triclinic
loop_
_symmetry_equiv_pos_as_xyz
'x, y, z'
_cell_length_a     33.975207
_cell_length_b     34.146971
_cell_length_c     66.044361
_cell_angle_alpha  89.969446
_cell_angle_beta   89.897339
_cell_angle_gamma 90.184896
loop_
_atom_site_label
_atom_site_type_symbol
_atom_site_fract_x
_atom_site_fract_y
_atom_site_fract_z
_atom_type_partial_charge
Mg0 Mg 0.10012 0.38004 0.01071 0.0
O1 O 0.06112 0.32708 0.00336 0.0
O2 O 0.08818 0.2743 0.01754 0.0
Mg3 Mg 0.14357 0.29282 0.03462 0.0
C4 C 0.06104 0.29044 0.00715 0.0
C5 C 0.04903 0.44695 -0.00604 0.0
O6 O 0.05328 0.45589 0.01317 0.0
O7 O 0.14843 0.3612 -0.01142 0.0
O8 O 0.17462 0.31069 0.00548 0.0
O9 O 0.06668 0.38918 0.03942 0.0
O10 O 0.11971 0.35231 0.03698 0.0
C11 C 0.17429 0.3343 -0.00949 0.0
C12 C 0.09161 0.36584 0.04794 0.0
O13 O 0.06646 0.41663 -0.01274 0.0
Mg14 Mg 0.86231 0.84293 0.26014 0.0
O15 O 0.91701 0.80907 0.24989 0.0
O16 O 0.96989 0.83809 0.26327 0.0
Mg17 Mg 0.94972 0.88955 0.28283 0.0
C18 C 0.9542 0.81135 0.25242 0.0
C19 C 0.79645 0.78939 0.24157 0.0
O20 O 0.78767 0.78773 0.26094 0.0
O21 O 0.8758 0.89528 0.23929 0.0
O22 O 0.9268 0.92261 0.25549 0.0
O23 O 0.85828 0.80549 0.28808 0.0
O24 O 0.89221 0.86056 0.2863 0.0
C25 C 0.90133 0.92263 0.24134 0.0
C26 C 0.8818 0.83035 0.29663 0.0
O27 O 0.82542 0.81065 0.23604 0.0
Mg28 Mg 0.39487 0.60621 0.50946 0.0
O29 O 0.43186 0.65992 0.50184 0.0
O30 O 0.4021 0.71256 0.51464 0.0
Mg31 Mg 0.34835 0.69211 0.53311 0.0
C32 C 0.43003 0.69678 0.50461 0.0
C33 C 0.44523 0.53898 0.49063 0.0
O34 O 0.43758 0.52451 0.50866 0.0
O35 O 0.34585 0.62326 0.48725 0.0
O36 O 0.31543 0.66969 0.50546 0.0
O37 O 0.42823 0.59845 0.53843 0.0
O38 O 0.37424 0.63364 0.53572 0.0
C39 C 0.31697 0.64649 0.49036 0.0
C40 C 0.40245 0.62113 0.54682 0.0
O41 O 0.43022 0.57177 0.48578 0.0
Mg42 Mg 0.63234 0.14025 0.75957 0.0
O43 O 0.57765 0.17562 0.75071 0.0
O44 O 0.52474 0.14642 0.76405 0.0
Mg45 Mg 0.54464 0.09312 0.78228 0.0
C46 C 0.54052 0.17376 0.75362 0.0
C47 C 0.69977 0.19287 0.74237 0.0
O48 O 0.70926 0.18993 0.76157 0.0
O49 O 0.61794 0.0896 0.73773 0.0
O50 O 0.56737 0.06212 0.75436 0.0
O51 O 0.6361 0.17408 0.78903 0.0
O52 O 0.60332 0.11903 0.78501 0.0
C53 C 0.59217 0.0624 0.73985 0.0
C54 C 0.61353 0.14719 0.79664 0.0
O55 O 0.66911 0.17495 0.73621 0.0
Mg56 Mg 0.09727 0.61443 0.42092 0.0
O57 O 0.06208 0.66723 0.43171 0.0
O58 O 0.09216 0.72103 0.42019 0.0
Mg59 Mg 0.1448 0.70291 0.40047 0.0
C60 C 0.06447 0.70439 0.43012 0.0
C61 C 0.04466 0.54615 0.4369 0.0
O62 O 0.0453 0.53937 0.41733 0.0
O63 O 0.14809 0.62685 0.44288 0.0
O64 O 0.17846 0.6761 0.42673 0.0
O65 O 0.06089 0.61214 0.3927 0.0
O66 O 0.11585 0.64618 0.39538 0.0
C67 C 0.17714 0.65044 0.44073 0.0
C68 C 0.08594 0.63622 0.38465 0.0
O69 O 0.06415 0.57524 0.44367 0.0
Mg70 Mg 0.63848 0.84407 0.67154 0.0
O71 O 0.58217 0.80971 0.67926 0.0
O72 O 0.53069 0.84056 0.66572 0.0
Mg73 Mg 0.55288 0.89472 0.64888 0.0
C74 C 0.54524 0.81249 0.676 0.0
C75 C 0.70402 0.78831 0.68978 0.0
O76 O 0.717 0.79185 0.67111 0.0
O77 O 0.62394 0.8931 0.6944 0.0
O78 O 0.57375 0.92182 0.67816 0.0
O79 O 0.64205 0.81261 0.64124 0.0
O80 O 0.61112 0.86816 0.64629 0.0
C81 C 0.59782 0.91994 0.6929 0.0
C82 C 0.6206 0.84069 0.6341 0.0
O83 O 0.67283 0.80659 0.69481 0.0
Mg84 Mg 0.39225 0.37701 0.92248 0.0
O85 O 0.42932 0.32355 0.93063 0.0
O86 O 0.40182 0.27061 0.91682 0.0
Mg87 Mg 0.34782 0.28975 0.89877 0.0
C88 C 0.42873 0.28674 0.92743 0.0
C89 C 0.44207 0.44515 0.94111 0.0
O90 O 0.43533 0.45875 0.92283 0.0
O91 O 0.34275 0.35937 0.94426 0.0
O92 O 0.31598 0.3089 0.92743 0.0
O93 O 0.42628 0.38502 0.89378 0.0
O94 O 0.37238 0.34913 0.8962 0.0
C95 C 0.31631 0.33287 0.94224 0.0
C96 C 0.40075 0.36218 0.88523 0.0
O97 O 0.42672 0.41252 0.9462 0.0
Mg98 Mg 0.86337 0.14225 0.17309 0.0
O99 O 0.91859 0.17731 0.18163 0.0
O100 O 0.97078 0.14715 0.16834 0.0
Mg101 Mg 0.94949 0.09359 0.15062 0.0
C102 C 0.95564 0.17496 0.17862 0.0
C103 C 0.79336 0.18867 0.19143 0.0
O104 O 0.77939 0.17812 0.17371 0.0
O105 O 0.87723 0.09236 0.19524 0.0
O106 O 0.92729 0.06332 0.17913 0.0
O107 O 0.85801 0.17676 0.14444 0.0
O108 O 0.89185 0.1219 0.14706 0.0
C109 C 0.9024 0.06476 0.19358 0.0
C110 C 0.88093 0.1511 0.13617 0.0
O111 O 0.82769 0.17734 0.19637 0.0
Mg112 Mg 0.89379 0.60387 0.92289 0.0
O113 O 0.92863 0.65798 0.93248 0.0
O114 O 0.89893 0.71059 0.91962 0.0
Mg115 Mg 0.84686 0.69016 0.90007 0.0
C116 C 0.92628 0.69496 0.9301 0.0
C117 C 0.94767 0.53856 0.94038 0.0
O118 O 0.94732 0.52984 0.92101 0.0
O119 O 0.84278 0.6179 0.94435 0.0
O120 O 0.81278 0.66577 0.92712 0.0
O121 O 0.9303 0.5994 0.89488 0.0
O122 O 0.87499 0.63282 0.89673 0.0
C123 C 0.81387 0.64127 0.94171 0.0
C124 C 0.90481 0.62194 0.8862 0.0
O125 O 0.92722 0.56747 0.94646 0.0
Mg126 Mg 0.13425 0.14018 0.66959 0.0
O127 O 0.08013 0.17564 0.67899 0.0
O128 O 0.02651 0.14696 0.66631 0.0
Mg129 Mg 0.04517 0.09237 0.64886 0.0
C130 C 0.04295 0.17441 0.67636 0.0
C131 C 0.19833 0.19906 0.68585 0.0
O132 O 0.20368 0.20228 0.66622 0.0
O133 O 0.12064 0.09105 0.69238 0.0
O134 O 0.06827 0.06368 0.67732 0.0
O135 O 0.13573 0.17317 0.6398 0.0
O136 O 0.1037 0.11796 0.64488 0.0
C137 C 0.09386 0.06464 0.69141 0.0
C138 C 0.11256 0.1461 0.63292 0.0
O139 O 0.17191 0.17553 0.69226 0.0
Mg140 Mg 0.60366 0.38186 0.4225 0.0
O141 O 0.56492 0.32922 0.43075 0.0
O142 O 0.5948 0.27471 0.42043 0.0
Mg143 Mg 0.6515 0.29178 0.40411 0.0
C144 C 0.56622 0.29204 0.42913 0.0
C145 C 0.55415 0.45331 0.43832 0.0
O146 O 0.56527 0.46688 0.4206 0.0
O147 O 0.64921 0.36772 0.44692 0.0
O148 O 0.67835 0.31531 0.43306 0.0
O149 O 0.5756 0.38509 0.39165 0.0
O150 O 0.62874 0.35104 0.39858 0.0
C151 C 0.67587 0.34132 0.44684 0.0
C152 C 0.60329 0.36193 0.38549 0.0
O153 O 0.56583 0.41951 0.44372 0.0
Mg154 Mg 0.3622 0.85024 0.17195 0.0
O155 O 0.41421 0.81094 0.18028 0.0
O156 O 0.46923 0.84057 0.16998 0.0
Mg157 Mg 0.45333 0.89666 0.15298 0.0
C158 C 0.4516 0.81201 0.1786 0.0
C159 C 0.30453 0.78415 0.18797 0.0
O160 O 0.30968 0.77212 0.16927 0.0
O161 O 0.37785 0.89604 0.19611 0.0
O162 O 0.42869 0.9264 0.18096 0.0
O163 O 0.35784 0.82185 0.14102 0.0
O164 O 0.39377 0.87378 0.14766 0.0
C165 C 0.4032 0.92377 0.19508 0.0
C166 C 0.38189 0.84867 0.13464 0.0
O167 O 0.3223 0.8151 0.19373 0.0
Mg168 Mg 0.89836 0.38425 0.51126 0.0
O169 O 0.93383 0.33091 0.50099 0.0
O170 O 0.90632 0.27769 0.51467 0.0
Mg171 Mg 0.85498 0.2961 0.53492 0.0
C172 C 0.93254 0.29391 0.50358 0.0
C173 C 0.95089 0.45041 0.49273 0.0
O174 O 0.95267 0.45854 0.51215 0.0
O175 O 0.84605 0.36884 0.49094 0.0
O176 O 0.82004 0.3182 0.50802 0.0
O177 O 0.93537 0.38979 0.53923 0.0
O178 O 0.88099 0.35462 0.53739 0.0
C179 C 0.81898 0.3432 0.49368 0.0
C180 C 0.91033 0.36651 0.54791 0.0
O181 O 0.92974 0.42158 0.48706 0.0
Mg182 Mg 0.35904 0.14123 0.2623 0.0
O183 O 0.41333 0.17788 0.2545 0.0
O184 O 0.46539 0.15015 0.26917 0.0
Mg185 Mg 0.44445 0.0972 0.28779 0.0
C186 C 0.4501 0.17707 0.25831 0.0
C187 C 0.29592 0.19457 0.24224 0.0
O188 O 0.287 0.19768 0.26154 0.0
O189 O 0.37752 0.0909 0.24156 0.0
O190 O 0.42469 0.06265 0.26007 0.0
O191 O 0.34988 0.1772 0.29033 0.0
O192 O 0.38575 0.12354 0.28916 0.0
C193 C 0.40169 0.06296 0.24483 0.0
C194 C 0.37287 0.1527 0.29942 0.0
O195 O 0.32443 0.17252 0.23719 0.0
Mg196 Mg 0.59408 0.60483 0.01183 0.0
O197 O 0.56144 0.66013 0.00222 0.0
O198 O 0.5942 0.71171 0.01449 0.0
Mg199 Mg 0.64584 0.68966 0.03374 0.0
C200 C 0.56574 0.69704 0.00436 0.0
C201 C 0.54699 0.53456 -0.0059 0.0
O202 O 0.55675 0.52163 0.01214 0.0
O203 O 0.64484 0.61694 -0.01037 0.0
O204 O 0.67751 0.66359 0.00665 0.0
O205 O 0.55824 0.60174 0.04039 0.0
O206 O 0.61428 0.63406 0.03769 0.0
C207 C 0.67474 0.63926 -0.0079 0.0
C208 C 0.58431 0.6245 0.04853 0.0
O209 O 0.55876 0.5685 -0.01121 0.0
Mg210 Mg 0.13875 0.85205 0.76333 0.0
O211 O 0.08635 0.81313 0.75423 0.0
O212 O 0.0314 0.84069 0.76586 0.0
Mg213 Mg 0.04717 0.89567 0.78353 0.0
C214 C 0.04898 0.81346 0.75626 0.0
C215 C 0.19778 0.78828 0.74514 0.0
O216 O 0.19571 0.77517 0.76381 0.0
O217 O 0.12264 0.89984 0.74022 0.0
O218 O 0.06948 0.92559 0.75522 0.0
O219 O 0.14302 0.82159 0.79391 0.0
O220 O 0.10719 0.87368 0.78811 0.0
C221 C 0.09515 0.92536 0.74113 0.0
C222 C 0.119 0.84787 0.80073 0.0
O223 O 0.1782 0.81876 0.74045 0.0
Mg224 Mg 0.59992 0.88506 0.51249 0.0
O225 O 0.56553 0.83087 0.50318 0.0
O226 O 0.59641 0.77807 0.51487 0.0
Mg227 Mg 0.65002 0.79877 0.53336 0.0
C228 C 0.56799 0.79388 0.50524 0.0
C229 C 0.5477 0.95217 0.49376 0.0
O230 O 0.55253 0.96629 0.5121 0.0
O231 O 0.64962 0.87261 0.48992 0.0
O232 O 0.68186 0.82485 0.50611 0.0
O233 O 0.56516 0.88795 0.5414 0.0
O234 O 0.6207 0.85529 0.53808 0.0
C235 C 0.67918 0.84982 0.49182 0.0
C236 C 0.59114 0.86472 0.54917 0.0
O237 O 0.56449 0.92015 0.48913 0.0
Mg238 Mg 0.35464 0.3497 0.76181 0.0
O239 O 0.40726 0.31102 0.75319 0.0
O240 O 0.46194 0.33863 0.76522 0.0
Mg241 Mg 0.44545 0.39365 0.78281 0.0
C242 C 0.44453 0.31132 0.75554 0.0
C243 C 0.2908 0.29069 0.74404 0.0
O244 O 0.28473 0.28486 0.76346 0.0
O245 O 0.37139 0.39797 0.73899 0.0
O246 O 0.42394 0.42401 0.7545 0.0
O247 O 0.34943 0.31919 0.79235 0.0
O248 O 0.38512 0.37171 0.7867 0.0
C249 C 0.39866 0.42384 0.74027 0.0
C250 C 0.37302 0.34587 0.79926 0.0
O251 O 0.31678 0.31563 0.73868 0.0
Mg252 Mg 0.8906 0.10089 0.01401 0.0
O253 O 0.92556 0.15618 0.00585 0.0
O254 O 0.89524 0.20798 0.01924 0.0
Mg255 Mg 0.84042 0.18656 0.03606 0.0
C256 C 0.92326 0.19298 0.00898 0.0
C257 C 0.94966 0.03838 -0.00325 0.0
O258 O 0.95005 0.02907 0.01605 0.0
O259 O 0.8421 0.11523 -0.00903 0.0
O260 O 0.8131 0.16579 0.00659 0.0
O261 O 0.92339 0.09769 0.04363 0.0
O262 O 0.86733 0.12875 0.03931 0.0
C263 C 0.8153 0.14144 -0.008 0.0
C264 C 0.89588 0.11964 0.05103 0.0
O265 O 0.92757 0.06628 -0.00904 0.0
Mg266 Mg 0.14044 0.64071 0.26347 0.0
O267 O 0.08828 0.67651 0.25189 0.0
O268 O 0.0332 0.64916 0.26377 0.0
Mg269 Mg 0.04904 0.59721 0.28407 0.0
C270 C 0.05087 0.67558 0.25349 0.0
C271 C 0.20101 0.70163 0.24503 0.0
O272 O 0.19853 0.71495 0.26364 0.0
O273 O 0.12732 0.58871 0.24232 0.0
O274 O 0.07538 0.56239 0.25823 0.0
O275 O 0.14119 0.67702 0.29231 0.0
O276 O 0.10758 0.62254 0.28837 0.0
C277 C 0.10205 0.56113 0.24466 0.0
C278 C 0.11691 0.65142 0.2997 0.0
O279 O 0.18085 0.67153 0.24023 0.0
Mg280 Mg 0.60292 0.10357 0.91804 0.0
O281 O 0.56593 0.1553 0.92924 0.0
O282 O 0.59379 0.2102 0.9175 0.0
Mg283 Mg 0.64737 0.19428 0.89829 0.0
C284 C 0.56699 0.19256 0.9276 0.0
C285 C 0.53422 0.06751 0.94535 0.0
O286 O 0.57089 0.0596 0.94091 0.0
O287 O 0.65312 0.11684 0.94022 0.0
O288 O 0.67934 0.17009 0.92568 0.0
O289 O 0.56662 0.10071 0.89001 0.0
O290 O 0.62045 0.13665 0.89281 0.0
C291 C 0.6794 0.14369 0.93933 0.0
C292 C 0.59071 0.12591 0.8821 0.0
O293 O 0.57006 0.06084 0.94063 0.0
Mg294 Mg 0.14267 0.34971 0.17002 0.0
O295 O 0.09018 0.3116 0.17922 0.0
O296 O 0.03507 0.34156 0.16973 0.0
Mg297 Mg 0.0518 0.39787 0.1529 0.0
C298 C 0.05277 0.31284 0.17805 0.0
C299 C 0.20514 0.28735 0.18437 0.0
O300 O 0.20745 0.28195 0.16472 0.0
O301 O 0.13005 0.39543 0.19448 0.0
O302 O 0.07819 0.42636 0.18089 0.0
O303 O 0.14398 0.3205 0.13947 0.0
O304 O 0.11044 0.37389 0.1463 0.0
C305 C 0.10481 0.42311 0.19436 0.0
C306 C 0.12028 0.3477 0.13338 0.0
O307 O 0.18165 0.31322 0.19114 0.0
Mg308 Mg 0.89293 0.88799 0.41704 0.0
O309 O 0.92827 0.83589 0.42838 0.0
O310 O 0.89838 0.78104 0.41847 0.0
Mg311 Mg 0.84436 0.79761 0.39943 0.0
C312 C 0.92635 0.79866 0.42766 0.0
C313 C 0.92795 0.96483 0.43651 0.0
O314 O 0.90317 0.98054 0.42362 0.0
O315 O 0.84387 0.87745 0.4405 0.0
O316 O 0.81324 0.82622 0.42608 0.0
O317 O 0.9265 0.88618 0.38756 0.0
O318 O 0.87089 0.85474 0.39313 0.0
C319 C 0.81523 0.85306 0.43946 0.0
C320 C 0.89951 0.86243 0.3811 0.0
O321 O 0.92943 0.92771 0.43793 0.0
Mg322 Mg 0.35484 0.63861 0.67008 0.0
O323 O 0.40785 0.67772 0.67812 0.0
O324 O 0.46203 0.64907 0.66616 0.0
Mg325 Mg 0.4453 0.59333 0.64934 0.0
C326 C 0.44511 0.67695 0.67558 0.0
C327 C 0.29745 0.70404 0.687 0.0
O328 O 0.30111 0.71555 0.66811 0.0
O329 O 0.37138 0.59146 0.69354 0.0
O330 O 0.42363 0.56472 0.67812 0.0
O331 O 0.34987 0.66753 0.6391 0.0
O332 O 0.38534 0.61544 0.64543 0.0
C333 C 0.39855 0.56559 0.69248 0.0
C334 C 0.37342 0.64061 0.63254 0.0
O335 O 0.316 0.67352 0.69263 0.0
Mg336 Mg 0.39287 0.10647 0.42179 0.0
O337 O 0.42888 0.1601 0.43073 0.0
O338 O 0.39725 0.21386 0.421 0.0
Mg339 Mg 0.34154 0.19501 0.40411 0.0
C340 C 0.42652 0.19724 0.42946 0.0
C341 C 0.44536 0.03691 0.43774 0.0
O342 O 0.43727 0.02373 0.41953 0.0
O343 O 0.34641 0.11761 0.44619 0.0
O344 O 0.31354 0.16737 0.43191 0.0
O345 O 0.42226 0.10586 0.39113 0.0
O346 O 0.36744 0.13732 0.39789 0.0
C347 C 0.31746 0.14138 0.44561 0.0
C348 C 0.394 0.12826 0.38495 0.0
O349 O 0.43114 0.0697 0.44316 0.0
Mg350 Mg 0.63649 0.63762 0.17011 0.0
O351 O 0.583 0.6742 0.17958 0.0
O352 O 0.52874 0.64523 0.16775 0.0
Mg353 Mg 0.54668 0.59029 0.15029 0.0
C354 C 0.54568 0.67282 0.17746 0.0
C355 C 0.70332 0.69397 0.18542 0.0
O356 O 0.71003 0.69398 0.16584 0.0
O357 O 0.62273 0.58918 0.19331 0.0
O358 O 0.56975 0.56155 0.17894 0.0
O359 O 0.63845 0.67003 0.14031 0.0
O360 O 0.60538 0.61542 0.1455 0.0
C361 C 0.59577 0.56289 0.19282 0.0
C362 C 0.61489 0.64329 0.13345 0.0
O363 O 0.67507 0.67311 0.19223 0.0
Mg364 Mg 0.10054 0.88179 0.92379 0.0
O365 O 0.06301 0.8289 0.93294 0.0
O366 O 0.09094 0.77545 0.92003 0.0
Mg367 Mg 0.14506 0.79365 0.90153 0.0
C368 C 0.06372 0.79193 0.93027 0.0
C369 C 0.04891 0.94911 0.94088 0.0
O370 O 0.05093 0.95773 0.92153 0.0
O371 O 0.15022 0.86613 0.94559 0.0
O372 O 0.17798 0.81556 0.92946 0.0
O373 O 0.06607 0.8878 0.89521 0.0
O374 O 0.12 0.85246 0.89779 0.0
C375 C 0.17754 0.84068 0.94377 0.0
C376 C 0.09146 0.86473 0.88679 0.0
O377 O 0.06741 0.91915 0.94722 0.0
Mg378 Mg 0.85732 0.34922 0.67009 0.0
O379 O 0.91037 0.3112 0.67855 0.0
O380 O 0.96506 0.34024 0.66724 0.0
Mg381 Mg 0.94819 0.39596 0.65048 0.0
C382 C 0.94771 0.31236 0.67653 0.0
C383 C 0.7904 0.29169 0.68642 0.0
O384 O 0.78051 0.29215 0.6672 0.0
O385 O 0.87232 0.39609 0.69397 0.0
O386 O 0.92542 0.42313 0.67929 0.0
O387 O 0.8544 0.3201 0.6392 0.0
O388 O 0.88845 0.37328 0.64587 0.0
C389 C 0.89979 0.42186 0.69338 0.0
C390 C 0.87787 0.34754 0.63294 0.0
O391 O 0.8195 0.31249 0.69217 0.0
Mg392 Mg 0.39631 0.88812 0.0118 0.0
O393 O 0.43333 0.83488 0.00279 0.0
O394 O 0.40492 0.78181 0.01613 0.0
Mg395 Mg 0.35115 0.80026 0.03453 0.0
C396 C 0.43211 0.79795 0.00566 0.0
C397 C 0.43021 0.96249 -0.00963 0.0
O398 O 0.40719 0.97847 0.00405 0.0
O399 O 0.34661 0.87189 -0.0101 0.0
O400 O 0.31947 0.82068 0.00607 0.0
O401 O 0.43084 0.89463 0.04029 0.0
O402 O 0.37673 0.85905 0.03782 0.0
C403 C 0.32001 0.84546 -0.00839 0.0
C404 C 0.40549 0.87136 0.04873 0.0
O405 O 0.43069 0.92536 -0.01123 0.0
Mg406 Mg 0.86354 0.63847 0.76277 0.0
O407 O 0.91673 0.6763 0.75352 0.0
O408 O 0.97133 0.64759 0.76479 0.0
Mg409 Mg 0.95436 0.59346 0.78295 0.0
C410 C 0.95413 0.67505 0.75523 0.0
C411 C 0.79325 0.68976 0.74617 0.0
O412 O 0.78267 0.68572 0.7652 0.0
O413 O 0.87826 0.58971 0.73985 0.0
O414 O 0.93033 0.56306 0.7553 0.0
O415 O 0.85974 0.66921 0.79322 0.0
O416 O 0.89464 0.61643 0.78753 0.0
C417 C 0.90474 0.56319 0.74123 0.0
C418 C 0.88311 0.64245 0.8001 0.0
O419 O 0.82489 0.67332 0.74027 0.0
Mg420 Mg 0.09553 0.10389 0.51284 0.0
O421 O 0.06254 0.15742 0.50092 0.0
O422 O 0.09277 0.21045 0.5133 0.0
Mg423 Mg 0.14262 0.19165 0.5345 0.0
C424 C 0.06588 0.19454 0.50255 0.0
C425 C 0.02891 0.06989 0.48317 0.0
O426 O 0.06474 0.06146 0.4889 0.0
O427 O 0.1487 0.11548 0.49225 0.0
O428 O 0.17785 0.16465 0.50894 0.0
O429 O 0.05655 0.10211 0.54029 0.0
O430 O 0.11192 0.13576 0.53838 0.0
C431 C 0.17768 0.13892 0.49497 0.0
C432 C 0.08117 0.12623 0.54859 0.0
O433 O 0.06392 0.06268 0.48911 0.0
Mg434 Mg 0.64117 0.34782 0.26264 0.0
O435 O 0.58606 0.31176 0.25524 0.0
O436 O 0.53429 0.34061 0.26973 0.0
Mg437 Mg 0.5559 0.39409 0.28741 0.0
C438 C 0.54923 0.31339 0.25896 0.0
C439 C 0.70819 0.29817 0.24342 0.0
O440 O 0.72313 0.30647 0.26125 0.0
O441 O 0.62399 0.39757 0.24094 0.0
O442 O 0.57482 0.42504 0.25849 0.0
O443 O 0.64932 0.31328 0.29108 0.0
O444 O 0.61458 0.36768 0.28921 0.0
C445 C 0.59813 0.42438 0.24334 0.0
C446 C 0.62683 0.33871 0.29985 0.0
O447 O 0.67503 0.31275 0.23866 0.0
C448 C 0.99405 0.48312 0.94734 0.0
C449 C 0.97277 0.51564 0.95456 0.0
C450 C 0.01866 0.46128 0.9601 0.0
C451 C 0.0232 0.47102 -0.01934 0.0
H452 H 0.99181 0.4743 0.93163 0.0
H453 H 0.03422 0.43654 0.95372 0.0
S454 S 0.97405 0.55354 0.00726 0.0
N455 N 0.95792 0.55643 -0.01624 0.0
N456 N 0.00405 0.51565 0.00769 0.0
C457 C 0.00207 0.5035 -0.01188 0.0
C458 C 0.97691 0.52569 -0.02489 0.0
C459 C 0.71793 0.72125 0.21997 0.0
C460 C 0.72776 0.71851 0.1993 0.0
C461 C 0.74013 0.74436 0.23335 0.0
C462 C 0.77324 0.76585 0.22672 0.0
H463 H 0.69274 0.70549 0.22594 0.0
H464 H 0.7311 0.74529 0.24907 0.0
S465 S 0.81211 0.76844 0.17413 0.0
N466 N 0.7734 0.73922 0.17287 0.0
N467 N 0.81495 0.78251 0.19798 0.0
C468 C 0.78349 0.7634 0.20609 0.0
C469 C 0.76085 0.73981 0.19243 0.0
C470 C 0.50846 0.45804 0.46815 0.0
C471 C 0.52681 0.47613 0.45143 0.0
C472 C 0.48194 0.47849 0.48052 0.0
C473 C 0.47247 0.51794 0.47673 0.0
H474 H 0.51437 0.42765 0.47169 0.0
H475 H 0.46866 0.46308 0.49315 0.0
S476 S 0.51389 0.5797 0.43552 0.0
N477 N 0.53453 0.53649 0.43218 0.0
N478 N 0.48469 0.57478 0.45537 0.0
C479 C 0.49075 0.53655 0.46014 0.0
C480 C 0.51789 0.51572 0.44755 0.0
C481 C 0.7327 0.24837 0.69503 0.0
C482 C 0.76806 0.26666 0.70105 0.0
C483 C 0.71105 0.22447 0.70836 0.0
C484 C 0.72379 0.21766 0.72834 0.0
H485 H 0.72138 0.25267 0.67987 0.0
H486 H 0.68394 0.21144 0.70295 0.0
S487 S 0.81538 0.25719 0.75148 0.0
N488 N 0.81535 0.27529 0.72831 0.0
N489 N 0.77495 0.2305 0.75327 0.0
C490 C 0.75934 0.23544 0.73451 0.0
C491 C 0.78135 0.25986 0.72093 0.0
C492 C 0.99499 0.50746 0.48472 0.0
C493 C 0.97413 0.4742 0.47797 0.0
C494 C 0.01773 0.53029 0.47142 0.0
C495 C 0.02072 0.52095 0.45072 0.0
H496 H 0.99382 0.51613 0.50048 0.0
H497 H 0.03299 0.5556 0.47747 0.0
S498 S 0.97251 0.43638 0.42526 0.0
N499 N 0.95839 0.43282 0.44911 0.0
N500 N 0.00101 0.47556 0.42413 0.0
C501 C 0.0001 0.48766 0.44373 0.0
C502 C 0.97688 0.46439 0.45731 0.0
C503 C 0.76253 0.74717 0.69915 0.0
C504 C 0.72573 0.76313 0.70453 0.0
C505 C 0.78385 0.72335 0.71256 0.0
C506 C 0.76941 0.7143 0.73202 0.0
H507 H 0.77529 0.75327 0.68444 0.0
H508 H 0.81211 0.71223 0.70764 0.0
S509 S 0.67367 0.7471 0.75336 0.0
N510 N 0.67525 0.76705 0.7306 0.0
N511 N 0.71509 0.72242 0.75573 0.0
C512 C 0.7324 0.72968 0.73754 0.0
C513 C 0.71068 0.75401 0.72386 0.0
C514 C 0.47798 0.50655 0.95098 0.0
C515 C 0.46853 0.46711 0.95507 0.0
C516 C 0.50357 0.52792 0.9635 0.0
C517 C 0.52097 0.51079 -0.01932 0.0
H518 H 0.46533 0.52126 0.93801 0.0
H519 H 0.50944 0.55826 0.95975 0.0
S520 S 0.50809 0.40756 -0.00258 0.0
N521 N 0.48004 0.41128 -0.02287 0.0
N522 N 0.52809 0.45123 0.00062 0.0
C523 C 0.5122 0.47117 -0.01518 0.0
C524 C 0.48602 0.44943 -0.02793 0.0
C525 C 0.78942 0.23521 0.2208 0.0
C526 C 0.77061 0.21564 0.20473 0.0
C527 C 0.76908 0.26202 0.23303 0.0
C528 C 0.72906 0.27052 0.22971 0.0
H529 H 0.82031 0.23018 0.22386 0.0
H530 H 0.78504 0.27637 0.24513 0.0
S531 S 0.66529 0.22522 0.19052 0.0
N532 N 0.70893 0.20537 0.18677 0.0
N533 N 0.67088 0.25575 0.20969 0.0
C534 C 0.70971 0.25083 0.21385 0.0
C535 C 0.73041 0.22342 0.20142 0.0
C536 C 0.23671 0.24335 0.7351 0.0
C537 C 0.26774 0.26801 0.72875 0.0
C538 C 0.2146 0.22129 0.72121 0.0
C539 C 0.22246 0.22276 0.70028 0.0
H540 H 0.22925 0.24102 0.75101 0.0
H541 H 0.19104 0.20296 0.72699 0.0
S542 S 0.30105 0.2821 0.67562 0.0
N543 N 0.30543 0.29214 0.69995 0.0
N544 N 0.26408 0.25083 0.67391 0.0
C545 C 0.25349 0.24724 0.69368 0.0
C546 C 0.27602 0.26977 0.70786 0.0
C547 C 0.2501 0.75408 0.23613 0.0
C548 C 0.22715 0.72171 0.23003 0.0
C549 C 0.27493 0.77387 0.2225 0.0
C550 C 0.27806 0.76225 0.20211 0.0
H551 H 0.24898 0.76441 0.25162 0.0
H552 H 0.29184 0.79854 0.22808 0.0
S553 S 0.22408 0.67942 0.17824 0.0
N554 N 0.20912 0.67906 0.20203 0.0
N555 N 0.25568 0.71608 0.17647 0.0
C556 C 0.25531 0.72986 0.19577 0.0
C557 C 0.22994 0.7097 0.20968 0.0
C558 C 0.24376 0.24332 0.23339 0.0
C559 C 0.27337 0.21736 0.22692 0.0
C560 C 0.22214 0.26575 0.21957 0.0
C561 C 0.22896 0.2632 0.19859 0.0
H562 H 0.23715 0.2466 0.24935 0.0
H563 H 0.19973 0.28517 0.22546 0.0
S564 S 0.30317 0.19966 0.17356 0.0
N565 N 0.30838 0.19043 0.19795 0.0
N566 N 0.26771 0.23244 0.17196 0.0
C567 C 0.25841 0.23726 0.19183 0.0
C568 C 0.2806 0.21444 0.20596 0.0
C569 C 0.24619 0.73554 0.73589 0.0
C570 C 0.22287 0.7676 0.7299 0.0
C571 C 0.2701 0.71533 0.72201 0.0
C572 C 0.27185 0.72618 0.70145 0.0
H573 H 0.24615 0.72584 0.7515 0.0
H574 H 0.28739 0.69097 0.72752 0.0
S575 S 0.21612 0.80774 0.67772 0.0
N576 N 0.20288 0.80898 0.70176 0.0
N577 N 0.24759 0.77122 0.67577 0.0
C578 C 0.24862 0.75819 0.69521 0.0
C579 C 0.22425 0.77878 0.70937 0.0
C580 C 0.50987 0.01159 0.48301 0.0
C581 C 0.5221 0.973 0.47899 0.0
C582 C 0.48512 0.03186 0.46965 0.0
C583 C 0.4714 0.01443 0.45166 0.0
H584 H 0.51956 0.02649 0.4966 0.0
H585 H 0.47687 0.06157 0.47347 0.0
S586 S 0.49333 0.91324 0.43438 0.0
N587 N 0.51767 0.9177 0.45587 0.0
N588 N 0.47123 0.95566 0.43081 0.0
C589 C 0.48322 0.97573 0.44747 0.0
C590 C 0.50851 0.95509 0.46109 0.0
C591 C 0.01944 0.96164 -0.02478 0.0
C592 C 0.02415 0.97298 0.95486 0.0
C593 C 0.99543 0.98297 -0.01145 0.0
C594 C 0.97492 0.01657 -0.01787 0.0
H595 H 0.03421 0.93587 -0.01904 0.0
H596 H 0.99279 0.97274 0.00402 0.0
S597 S 0.97814 0.05968 0.9305 0.0
N598 N 0.00683 0.02088 0.92906 0.0
N599 N 0.96179 0.06071 0.95403 0.0
C600 C 0.9796 0.02849 0.96185 0.0
C601 C 0.00415 0.00681 0.94827 0.0
C602 C 0.47412 0.0528 0.96515 0.0
C603 C 0.50937 0.03906 0.95665 0.0
C604 C 0.44866 0.02777 -0.02417 0.0
C605 C 0.45698 0.98764 -0.02192 0.0
H606 H 0.46627 0.08342 0.96369 0.0
H607 H 0.42212 0.04004 -0.01769 0.0
S608 S 0.54495 0.93624 0.95799 0.0
N609 N 0.55107 0.9822 0.95082 0.0
N610 N 0.50293 0.93507 -0.02943 0.0
C611 C 0.49187 0.97321 -0.03069 0.0
C612 C 0.51817 -0.00111 0.95868 0.0
C613 C 0.97065 0.05541 0.462 0.0
C614 C 0.00524 0.04165 0.47113 0.0
C615 C 0.946 0.03041 0.45086 0.0
C616 C 0.95454 0.99031 0.44869 0.0
H617 H 0.96254 0.08596 0.46345 0.0
H618 H 0.91978 0.04266 0.44407 0.0
S619 S 0.04145 0.93902 0.46995 0.0
N620 N 0.04686 0.98489 0.47736 0.0
N621 N 0.00031 0.93788 0.4567 0.0
C622 C 0.989 0.97595 0.45789 0.0
C623 C 0.01443 0.00158 0.46903 0.0
C624 C 0.99498 0.20181 0.002 0.0
C625 C 0.95711 0.21824 0.00331 0.0
C626 C 0.02865 0.22558 0.00164 0.0
C627 C 0.02575 0.26666 0.00222 0.0
H628 H -0.00108 0.17038 0.00279 0.0
H629 H 0.05721 0.21158 0.00203 0.0
S630 S 0.93312 0.32412 0.00139 0.0
N631 N 0.91844 0.27799 0.0021 0.0
N632 N 0.98168 0.32274 0.0011 0.0
C633 C 0.98797 0.28345 0.00135 0.0
C634 C 0.95365 0.25921 0.00201 0.0
C635 C 0.98622 0.70671 0.2456 0.0
C636 C 0.02751 0.70977 0.24657 0.0
C637 C 0.96244 0.74015 0.24522 0.0
C638 C 0.97908 0.77792 0.24607 0.0
H639 H 0.97198 0.67834 0.24662 0.0
H640 H 0.93084 0.73617 0.2461 0.0
S641 S 0.08551 0.80203 0.24353 0.0
N642 N 0.08402 0.75372 0.24431 0.0
N643 N 0.03919 0.8165 0.24394 0.0
C644 C 0.02024 0.7814 0.24457 0.0
C645 C 0.04451 0.74731 0.24469 0.0
C646 C 0.50261 0.70445 0.50061 0.0
C647 C 0.46479 0.72097 0.49928 0.0
C648 C 0.53637 0.72811 0.50084 0.0
C649 C 0.53367 0.76915 0.49945 0.0
H650 H 0.50612 0.67329 0.50308 0.0
H651 H 0.56456 0.7142 0.50335 0.0
S652 S 0.44186 0.82566 0.49055 0.0
N653 N 0.42686 0.77987 0.49305 0.0
N654 N 0.49021 0.8245 0.49289 0.0
C655 C 0.49625 0.78554 0.4957 0.0
C656 C 0.46183 0.76141 0.49582 0.0
C657 C 0.53294 0.24567 0.74839 0.0
C658 C 0.51596 0.20803 0.74821 0.0
C659 C 0.50945 0.27928 0.74912 0.0
C660 C 0.46807 0.27662 0.74943 0.0
H661 H 0.56453 0.24927 0.74964 0.0
H662 H 0.52393 0.30743 0.75067 0.0
S663 S 0.40945 0.18517 0.74415 0.0
N664 N 0.4556 0.17022 0.74484 0.0
N665 N 0.41131 0.23338 0.74585 0.0
C666 C 0.45083 0.23936 0.74685 0.0
C667 C 0.47482 0.20507 0.74637 0.0
C668 C 0.95825 0.73416 0.43472 0.0
C669 C 0.9607 0.77532 0.43458 0.0
C670 C 0.99218 0.71104 0.43557 0.0
C671 C 0.02991 0.7282 0.43606 0.0
H672 H 0.93015 0.71959 0.43274 0.0
H673 H 0.98879 0.67963 0.43401 0.0
S674 S 0.05202 0.83407 0.44154 0.0
N675 N 0.00367 0.83195 0.43934 0.0
N676 N 0.06738 0.78829 0.44049 0.0
C677 C 0.03255 0.76902 0.43842 0.0
C678 C -0.00206 0.79264 0.43783 0.0
C679 C 0.53512 0.74105 0.68209 0.0
C680 C 0.51928 0.77903 0.68134 0.0
C681 C 0.51064 0.70798 0.68186 0.0
C682 C 0.46938 0.71156 0.68113 0.0
H683 H 0.56664 0.73663 0.6813 0.0
H684 H 0.52432 0.6794 0.68108 0.0
S685 S 0.41329 0.8046 0.68376 0.0
N686 N 0.4599 0.81844 0.68329 0.0
N687 N 0.41379 0.75627 0.6831 0.0
C688 C 0.45316 0.74935 0.68268 0.0
C689 C 0.47815 0.78309 0.68268 0.0
C690 C 0.49461 0.19835 0.93259 0.0
C691 C 0.53222 0.21548 0.93396 0.0
C692 C 0.46069 0.22154 0.93224 0.0
C693 C 0.46308 0.26265 0.93352 0.0
H694 H 0.4914 0.16718 0.92998 0.0
H695 H 0.43265 0.20725 0.92961 0.0
S696 S 0.55409 0.32053 0.94286 0.0
N697 N 0.56952 0.27495 0.94049 0.0
N698 N 0.50579 0.31866 0.94028 0.0
C699 C 0.50017 0.27959 0.93753 0.0
C700 C 0.53476 0.25595 0.9376 0.0
C701 C 0.98798 0.28019 0.18481 0.0
C702 C 0.02928 0.27759 0.1836 0.0
C703 C 0.9643 0.24652 0.18514 0.0
C704 C 0.98095 0.20889 0.18401 0.0
H705 H 0.97364 0.30846 0.18433 0.0
H706 H 0.93266 0.25024 0.18472 0.0
S707 S 0.08756 0.18569 0.18501 0.0
N708 N 0.08591 0.23399 0.18467 0.0
N709 N 0.04127 0.17084 0.18501 0.0
C710 C 0.0222 0.20577 0.18485 0.0
C711 C 0.04639 0.24008 0.18475 0.0
C712 C -0.00181 0.7031 0.9363 0.0
C713 C 0.96027 0.7196 0.93618 0.0
C714 C 0.03189 0.72683 0.93618 0.0
C715 C 0.02901 0.76794 0.93624 0.0
H716 H 0.00204 0.67176 0.93476 0.0
H717 H 0.06032 0.71281 0.93472 0.0
S718 S 0.93659 0.82507 0.94128 0.0
N719 N 0.92181 0.77904 0.93988 0.0
N720 N 0.98512 0.82379 0.94008 0.0
C721 C 0.99137 0.78459 0.93869 0.0
C722 C 0.95699 0.76037 0.9385 0.0
C723 C 0.95401 0.24011 0.68093 0.0
C724 C 0.97116 0.27757 0.68217 0.0
C725 C 0.97735 0.20637 0.68082 0.0
C726 C 0.01867 0.20879 0.68215 0.0
H727 H 0.92266 0.23685 0.67843 0.0
H728 H 0.96299 0.1784 0.67839 0.0
S729 S 0.0768 0.29967 0.69069 0.0
N730 N 0.03096 0.31489 0.68833 0.0
N731 N 0.07495 0.25156 0.68842 0.0
C732 C 0.03567 0.24584 0.68579 0.0
C733 C 0.01188 0.28023 0.68567 0.0
C734 C 0.49344 0.28576 0.43319 0.0
C735 C 0.53095 0.26869 0.43461 0.0
C736 C 0.45932 0.26261 0.43323 0.0
C737 C 0.46139 0.22153 0.43487 0.0
H738 H 0.4904 0.31691 0.4305 0.0
H739 H 0.43135 0.27693 0.4307 0.0
S740 S 0.55225 0.16381 0.44409 0.0
N741 N 0.56793 0.20931 0.44131 0.0
N742 N 0.50393 0.16567 0.44173 0.0
C743 C 0.49851 0.20466 0.43866 0.0
C744 C 0.53328 0.22826 0.43839 0.0
C745 C 0.5165 0.77877 0.18328 0.0
C746 C 0.47509 0.77674 0.18387 0.0
C747 C 0.5395 0.74479 0.18311 0.0
C748 C 0.52197 0.70741 0.18333 0.0
H749 H 0.53133 0.80674 0.18169 0.0
H750 H 0.57103 0.74797 0.18122 0.0
S751 S 0.41556 0.68591 0.1897 0.0
N752 N 0.41803 0.73413 0.18838 0.0
N753 N 0.46138 0.67035 0.18778 0.0
C754 C 0.48098 0.70496 0.18608 0.0
C755 C 0.45751 0.7396 0.18647 0.0
C756 C 0.9616 0.22839 0.49618 0.0
C757 C 0.96583 0.26941 0.49648 0.0
C758 C 0.99452 0.20385 0.49563 0.0
C759 C 0.0329 0.21948 0.49568 0.0
H760 H 0.9328 0.21506 0.49789 0.0
H761 H 0.98975 0.17259 0.49715 0.0
S762 S 0.0597 0.32442 0.49075 0.0
N763 N 0.01119 0.32429 0.49239 0.0
N764 N 0.07308 0.27801 0.49177 0.0
C765 C 0.03738 0.26017 0.49333 0.0
C766 C 0.0038 0.28521 0.4936 0.0
C767 C 0.51609 0.20833 0.25318 0.0
C768 C 0.47479 0.21158 0.25303 0.0
C769 C 0.54027 0.24167 0.25322 0.0
C770 C 0.52403 0.27954 0.25348 0.0
H771 H 0.52985 0.17985 0.25442 0.0
H772 H 0.57176 0.23762 0.25462 0.0
S773 S 0.41813 0.30424 0.24939 0.0
N774 N 0.41901 0.25592 0.25007 0.0
N775 N 0.46457 0.31844 0.25058 0.0
C776 C 0.48304 0.28323 0.25149 0.0
C777 C 0.45839 0.24928 0.25111 0.0
C778 C 0.46146 0.73238 -0.00118 0.0
C779 C 0.46589 0.77335 -0.0007 0.0
C780 C 0.49422 0.70767 -0.00172 0.0
C781 C 0.53273 0.72298 -0.00149 0.0
H782 H 0.43253 0.71917 0.00016 0.0
H783 H 0.48917 0.6764 -0.00058 0.0
S784 S 0.56021 0.82796 -0.00534 0.0
N785 N 0.51168 0.82807 -0.00397 0.0
N786 N 0.57332 0.78145 -0.0046 0.0
C787 C 0.53751 0.76376 -0.00333 0.0
C788 C 0.50405 0.78901 -0.00307 0.0
C789 C 0.96063 0.74709 0.74997 0.0
C790 C 0.97786 0.70973 0.74931 0.0
C791 C 0.98396 0.78096 0.75041 0.0
C792 C 0.02537 0.7788 0.75002 0.0
H793 H 0.92912 0.75023 0.75187 0.0
H794 H 0.96938 0.80887 0.75241 0.0
S795 S 0.08414 0.68835 0.74273 0.0
N796 N 0.03816 0.67279 0.74428 0.0
N797 N 0.0821 0.73647 0.74487 0.0
C798 C 0.04265 0.74189 0.74676 0.0
C799 C 0.01885 0.70733 0.7465 0.0
C800 C 0.26363 0.36813 0.96107 0.0
C801 C 0.28166 0.33262 0.95567 0.0
C802 C 0.22746 0.36849 -0.02866 0.0
C803 C 0.20858 0.33335 -0.02315 0.0
H804 H 0.27702 0.39582 0.95687 0.0
H805 H 0.21481 0.39643 -0.02448 0.0
S806 S 0.24383 0.23272 -0.03367 0.0
N807 N 0.27789 0.26154 0.9564 0.0
N808 N 0.21051 0.26221 -0.02379 0.0
C809 C 0.22644 0.2977 -0.02838 0.0
C810 C 0.26285 0.29734 0.96091 0.0
C811 C 0.9361 0.01187 0.21257 0.0
C812 C 0.90083 0.03058 0.20721 0.0
C813 C 0.93582 0.97638 0.22313 0.0
C814 C 0.90025 0.95766 0.22828 0.0
H815 H 0.96421 0.02471 0.20845 0.0
H816 H 0.96374 0.96337 0.22724 0.0
S817 S 0.79979 0.99437 0.21767 0.0
N818 N 0.82931 0.02798 0.20789 0.0
N819 N 0.82879 0.96063 0.22751 0.0
C820 C 0.86471 0.9759 0.22296 0.0
C821 C 0.865 0.01259 0.21255 0.0
C822 C 0.24995 0.65122 0.44484 0.0
C823 C 0.21231 0.64652 0.4536 0.0
C824 C 0.28418 0.64949 0.45662 0.0
C825 C 0.28168 0.644 0.47759 0.0
H826 H 0.25297 0.65641 0.42872 0.0
H827 H 0.31254 0.65384 0.44942 0.0
S828 S 0.19069 0.6285 0.50776 0.0
N829 N 0.17489 0.63422 0.48431 0.0
N830 N 0.23914 0.63227 0.50665 0.0
C831 C 0.24438 0.6385 0.48649 0.0
C832 C 0.20965 0.63936 0.47443 0.0
C833 C 0.62958 0.01152 0.72052 0.0
C834 C 0.59334 0.02704 0.727 0.0
C835 C 0.63141 0.97499 0.71077 0.0
C836 C 0.59702 0.95315 0.70705 0.0
H837 H 0.65673 0.0273 0.72334 0.0
H838 H 0.65964 0.96449 0.70543 0.0
S839 S 0.49507 0.98063 0.72098 0.0
N840 N 0.52242 0.01745 0.72907 0.0
N841 N 0.526 0.94926 0.71064 0.0
C842 C 0.56078 0.96825 0.71354 0.0
C843 C 0.55889 0.0051 0.72351 0.0
C844 C 0.70704 0.64436 0.95833 0.0
C845 C 0.70935 0.63529 -0.02104 0.0
C846 C 0.7412 0.64613 0.94644 0.0
C847 C 0.77862 0.63818 0.95474 0.0
H848 H 0.67895 0.65155 0.95155 0.0
H849 H 0.73827 0.6539 0.93061 0.0
S850 S 0.79935 0.61072 0.00793 0.0
N851 N 0.75119 0.61707 0.00721 0.0
N852 N 0.81536 0.61923 -0.0153 0.0
C853 C 0.78093 0.62762 -0.02478 0.0
C854 C 0.74626 0.62655 -0.01261 0.0
C855 C 0.13012 0.97744 0.72141 0.0
C856 C 0.09473 0.95895 0.72711 0.0
C857 C 0.12982 0.01311 0.7108 0.0
C858 C 0.09413 0.03104 0.7054 0.0
H859 H 0.15816 0.96486 0.72563 0.0
H860 H 0.15763 0.02615 0.70634 0.0
S861 S 0.99358 0.99423 0.71666 0.0
N862 N 0.0232 0.96111 0.72652 0.0
N863 N 0.02266 0.02779 0.70656 0.0
C864 C 0.05865 0.01271 0.71098 0.0
C865 C 0.05894 0.97672 0.72181 0.0
C866 C 0.76243 0.30877 0.47787 0.0
C867 C 0.78289 0.34398 0.48136 0.0
C868 C 0.72641 0.30849 0.46771 0.0
C869 C 0.70904 0.34347 0.46106 0.0
H870 H 0.7746 0.28107 0.48282 0.0
H871 H 0.71239 0.28055 0.46467 0.0
S872 S 0.74956 0.44368 0.46735 0.0
N873 N 0.78259 0.41491 0.47801 0.0
N874 N 0.71436 0.41438 0.45902 0.0
C875 C 0.72853 0.37903 0.46495 0.0
C876 C 0.76569 0.37927 0.475 0.0
C877 C 0.41217 0.99116 0.24007 0.0
C878 C 0.40077 0.02764 0.23188 0.0
C879 C 0.41119 0.95685 0.22843 0.0
C880 C 0.39915 0.95807 0.2082 0.0
H881 H 0.42185 0.98898 0.25565 0.0
H882 H 0.42091 0.92954 0.23509 0.0
S883 S 0.3661 0.04523 0.17948 0.0
N884 N 0.37635 0.06223 0.20228 0.0
N885 N 0.37529 -0.00221 0.18033 0.0
C886 C 0.38732 0.99399 0.19985 0.0
C887 C 0.38785 0.0288 0.21172 0.0
C888 C 0.78504 0.85358 0.47388 0.0
C889 C 0.78099 0.85723 0.45287 0.0
C890 C 0.75167 0.85161 0.48636 0.0
C891 C 0.71337 0.85412 0.47824 0.0
H892 H 0.81396 0.85057 0.48058 0.0
H893 H 0.75587 0.84778 0.5025 0.0
S894 S 0.6877 0.86636 0.42418 0.0
N895 N 0.73629 0.86463 0.42443 0.0
N896 N 0.67362 0.86227 0.44804 0.0
C897 C 0.70914 0.85949 0.45734 0.0
C898 C 0.74301 0.86063 0.44461 0.0
C899 C 0.36319 0.51309 0.71166 0.0
C900 C 0.39871 0.53178 0.70636 0.0
C901 C 0.36323 0.47673 0.72162 0.0
C902 C 0.39878 0.45823 0.72677 0.0
H903 H 0.33525 0.52601 0.70752 0.0
H904 H 0.33531 0.46356 0.72578 0.0
S905 S 0.49957 0.49536 0.71643 0.0
N906 N 0.4702 0.52925 0.70708 0.0
N907 N 0.47026 0.46129 0.72588 0.0
C908 C 0.43439 0.47681 0.72164 0.0
C909 C 0.43435 0.51352 0.71146 0.0
C910 C 0.76527 0.10712 -0.02935 0.0
C911 C 0.78305 0.14219 -0.02288 0.0
C912 C 0.73062 0.10765 0.95908 0.0
C913 C 0.71313 0.14327 0.95336 0.0
H914 H 0.77747 0.07914 -0.0249 0.0
H915 H 0.71788 0.08006 0.95427 0.0
S916 S 0.7489 0.24304 0.96609 0.0
N917 N 0.78098 0.21334 -0.02321 0.0
N918 N 0.7164 0.21437 0.95486 0.0
C919 C 0.73103 0.17846 0.95952 0.0
C920 C 0.76588 0.1779 -0.02858 0.0
C921 C 0.12362 0.52517 0.21349 0.0
C922 C 0.10502 0.5248 0.23251 0.0
C923 C 0.12511 0.49122 0.2016 0.0
C924 C 0.10884 0.45575 0.20852 0.0
H925 H 0.13599 0.55205 0.20748 0.0
H926 H 0.13812 0.49294 0.18663 0.0
S927 S 0.0598 0.43791 0.25764 0.0
N928 N 0.07199 0.48475 0.25815 0.0
N929 N 0.07522 0.42132 0.23554 0.0
C930 C 0.09153 0.4544 0.22767 0.0
C931 C 0.08956 0.48888 0.23975 0.0
C932 C 0.25014 0.14734 0.49075 0.0
C933 C 0.21363 0.13552 0.48251 0.0
C934 C 0.28464 0.147 0.47913 0.0
C935 C 0.28355 0.13509 0.45889 0.0
H936 H 0.25204 0.15753 0.50626 0.0
H937 H 0.31185 0.15758 0.48572 0.0
S938 S 0.19667 0.09979 0.43029 0.0
N939 N 0.17932 0.10989 0.45307 0.0
N940 N 0.24421 0.1099 0.43111 0.0
C941 C 0.24778 0.12206 0.45062 0.0
C942 C 0.21275 0.12199 0.46248 0.0
C943 C 0.63231 0.47533 0.22244 0.0
C944 C 0.59708 0.45844 0.22958 0.0
C945 C 0.63201 0.51067 0.21154 0.0
C946 C 0.59643 0.52983 0.20717 0.0
H947 H 0.66032 0.46164 0.22569 0.0
H948 H 0.65965 0.5224 0.20597 0.0
S949 S 0.49632 0.49763 0.22241 0.0
N950 N 0.52583 0.46372 0.23164 0.0
N951 N 0.52527 0.52953 0.21086 0.0
C952 C 0.56111 0.51319 0.21421 0.0
C953 C 0.56143 0.47763 0.22548 0.0
C954 C 0.2348 0.80854 0.96036 0.0
C955 C 0.21263 0.84265 0.95693 0.0
C956 C 0.27035 0.80994 -0.02899 0.0
C957 C 0.28562 0.84564 -0.02189 0.0
H958 H 0.22454 0.78045 0.95482 0.0
H959 H 0.28599 0.78285 -0.02623 0.0
S960 S 0.23927 0.94328 -0.02673 0.0
N961 N 0.20848 0.9132 0.96173 0.0
N962 N 0.27588 0.91577 -0.01859 0.0
C963 C 0.26406 0.88001 -0.0253 0.0
C964 C 0.22735 0.87851 0.96425 0.0
C965 C 0.86588 0.4762 0.71158 0.0
C966 C 0.90038 0.45483 0.70768 0.0
C967 C 0.86753 0.51251 0.72156 0.0
C968 C 0.90369 0.5283 0.72805 0.0
H969 H 0.83769 0.46552 0.70624 0.0
H970 H 0.84029 0.5279 0.72454 0.0
S971 S 0.00222 0.48306 0.72165 0.0
N972 N 0.97141 0.45153 0.71124 0.0
N973 N 0.97469 0.51948 0.72989 0.0
C974 C 0.93827 0.50684 0.72434 0.0
C975 C 0.93654 0.47015 0.71424 0.0
C976 C 0.10718 0.32371 0.07778 0.0
C977 C 0.09102 0.3584 0.06993 0.0
C978 C 0.11464 0.31956 0.09853 0.0
C979 C 0.10649 0.35013 0.11214 0.0
H980 H 0.11529 0.29999 0.0678 0.0
H981 H 0.12829 0.29281 0.10379 0.0
S982 S 0.0618 0.44627 0.0991 0.0
N983 N 0.06466 0.42278 0.07735 0.0
N984 N 0.07961 0.41586 0.11617 0.0
C985 C 0.0884 0.38426 0.10453 0.0
C986 C 0.08033 0.38814 0.08346 0.0
C987 C 0.8641 0.83009 0.35262 0.0
C988 C 0.89926 0.84635 0.36028 0.0
C989 C 0.86002 0.8212 0.33205 0.0
C990 C 0.8909 0.82828 0.31841 0.0
H991 H 0.83852 0.82652 0.36226 0.0
H992 H 0.83149 0.81169 0.32659 0.0
S993 S 0.9922 0.85982 0.33159 0.0
N994 N 0.96779 0.862 0.35322 0.0
N995 N 0.96019 0.84442 0.31454 0.0
C996 C 0.92747 0.84038 0.32617 0.0
C997 C 0.93164 0.84964 0.34714 0.0
C998 C 0.37815 0.66801 0.5973 0.0
C999 C 0.38575 0.63748 0.61102 0.0
C1000 C 0.38597 0.66357 0.57654 0.0
C1001 C 0.40203 0.62864 0.56882 0.0
H1002 H 0.36504 0.69507 0.60251 0.0
H1003 H 0.37849 0.68732 0.56645 0.0
S1004 S 0.42776 0.53996 0.59817 0.0
N1005 N 0.41034 0.57086 0.61512 0.0
N1006 N 0.4263 0.5636 0.57641 0.0
C1007 C 0.41146 0.59867 0.58243 0.0
C1008 C 0.4029 0.60277 0.60345 0.0
C1009 C 0.58461 0.11161 0.82596 0.0
C1010 C 0.60121 0.14637 0.81814 0.0
C1011 C 0.57818 0.10672 0.84668 0.0
C1012 C 0.58836 0.13623 0.86045 0.0
H1013 H 0.57856 0.08684 0.81621 0.0
H1014 H 0.56779 0.07849 0.85202 0.0
S1015 S 0.62337 0.2362 0.8475 0.0
N1016 N 0.62139 0.21321 0.82552 0.0
N1017 N 0.6087 0.20406 0.86465 0.0
C1018 C 0.60147 0.17245 0.85278 0.0
C1019 C 0.60807 0.17751 0.83156 0.0
C1020 C 0.0831 0.61907 0.3287 0.0
C1021 C 0.10189 0.65264 0.32076 0.0
C1022 C 0.07455 0.6157 0.34931 0.0
C1023 C 0.08471 0.64562 0.36286 0.0
H1024 H 0.07709 0.59391 0.31922 0.0
H1025 H 0.06273 0.58818 0.35484 0.0
S1026 S 0.12447 0.74347 0.34921 0.0
N1027 N 0.12369 0.71921 0.32758 0.0
N1028 N 0.10703 0.71295 0.36647 0.0
C1029 C 0.09971 0.6809 0.35493 0.0
C1030 C 0.10848 0.6844 0.33383 0.0
C1031 C 0.59263 0.87886 0.60545 0.0
C1032 C 0.60759 0.84301 0.61273 0.0
C1033 C 0.5842 0.88442 0.58496 0.0
C1034 C 0.5907 0.85451 0.57086 0.0
H1035 H 0.58918 0.90374 0.61545 0.0
H1036 H 0.57504 0.91322 0.57996 0.0
S1037 S 0.6212 0.75272 0.58243 0.0
N1038 N 0.62295 0.77537 0.60452 0.0
N1039 N 0.60667 0.78587 0.56585 0.0
C1040 C 0.60263 0.8176 0.57803 0.0
C1041 C 0.61122 0.81184 0.599 0.0
C1042 C 0.37676 0.3172 0.83424 0.0
C1043 C 0.38506 0.34813 0.82083 0.0
C1044 C 0.3842 0.32088 0.85507 0.0
C1045 C 0.4006 0.35541 0.86316 0.0
H1046 H 0.36334 0.29043 0.82875 0.0
H1047 H 0.37613 0.29687 0.86493 0.0
S1048 S 0.42811 0.44491 0.8347 0.0
N1049 N 0.41065 0.4147 0.81742 0.0
N1050 N 0.42589 0.42055 0.85623 0.0
C1051 C 0.41071 0.38578 0.84985 0.0
C1052 C 0.40253 0.38244 0.82877 0.0
C1053 C 0.85727 0.15764 0.101 0.0
C1054 C 0.88881 0.15132 0.11424 0.0
C1055 C 0.86062 0.14882 0.08041 0.0
C1056 C 0.89574 0.13354 0.07225 0.0
H1057 H 0.82893 0.16693 0.10679 0.0
H1058 H 0.83466 0.15214 0.07109 0.0
S1059 S 0.98965 0.12059 0.09992 0.0
N1060 N 0.95818 0.1355 0.11736 0.0
N1061 N 0.96453 0.11838 0.07856 0.0
C1062 C 0.92854 0.13025 0.08505 0.0
C1063 C 0.92505 0.1393 0.10609 0.0
C1064 C 0.88337 0.66929 0.83551 0.0
C1065 C 0.89453 0.63985 0.82178 0.0
C1066 C 0.889 0.66455 0.85643 0.0
C1067 C 0.90656 0.63053 0.86432 0.0
H1068 H 0.86877 0.69548 0.83018 0.0
H1069 H 0.87848 0.6872 0.8665 0.0
S1070 S 0.9424 0.54525 0.83508 0.0
N1071 N 0.92449 0.57539 0.81793 0.0
N1072 N 0.93675 0.5679 0.85691 0.0
C1073 C 0.91992 0.60198 0.85076 0.0
C1074 C 0.9134 0.60624 0.82957 0.0
C1075 C 0.0714 0.10601 0.58404 0.0
C1076 C 0.0788 0.13625 0.57022 0.0
C1077 C 0.08061 0.11048 0.6045 0.0
C1078 C 0.09731 0.14549 0.61195 0.0
H1079 H 0.06152 0.07756 0.5788 0.0
H1080 H 0.07684 0.08522 0.61424 0.0
S1081 S 0.11226 0.23688 0.5826 0.0
N1082 N 0.09621 0.2048 0.56579 0.0
N1083 N 0.11411 0.21323 0.60441 0.0
C1084 C 0.10109 0.1773 0.5986 0.0
C1085 C 0.09162 0.17267 0.57768 0.0
C1086 C 0.57719 0.35829 0.35011 0.0
C1087 C 0.60724 0.34987 0.36403 0.0
C1088 C 0.58268 0.35214 0.32932 0.0
C1089 C 0.61829 0.33714 0.32172 0.0
H1090 H 0.54973 0.371 0.35521 0.0
H1091 H 0.55922 0.36016 0.31912 0.0
S1092 S 0.70558 0.30835 0.35166 0.0
N1093 N 0.67366 0.32431 0.36857 0.0
N1094 N 0.68315 0.31199 0.32962 0.0
C1095 C 0.64765 0.32642 0.33549 0.0
C1096 C 0.64238 0.33308 0.35662 0.0
C1097 C 0.38955 0.82808 0.07827 0.0
C1098 C 0.4065 0.86276 0.07064 0.0
C1099 C 0.38345 0.82279 0.09911 0.0
C1100 C 0.39371 0.85219 0.11306 0.0
H1101 H 0.37993 0.80525 0.06806 0.0
H1102 H 0.36932 0.79607 0.10423 0.0
S1103 S 0.43995 0.94826 0.1006 0.0
N1104 N 0.43505 0.92612 0.07857 0.0
N1105 N 0.42249 0.91717 0.11752 0.0
C1106 C 0.4121 0.88643 0.10558 0.0
C1107 C 0.41885 0.89143 0.08443 0.0
C1108 C 0.8864 0.31921 0.59815 0.0
C1109 C 0.89198 0.3504 0.61173 0.0
C1110 C 0.89555 0.32341 0.57753 0.0
C1111 C 0.91094 0.35875 0.56984 0.0
H1112 H 0.87362 0.29187 0.60332 0.0
H1113 H 0.88921 0.29926 0.56745 0.0
S1114 S 0.93239 0.44892 0.59894 0.0
N1115 N 0.91464 0.41788 0.61579 0.0
N1116 N 0.9331 0.42469 0.57735 0.0
C1117 C 0.91886 0.38928 0.58338 0.0
C1118 C 0.90892 0.38542 0.60425 0.0
C1119 C 0.41664 0.14079 0.32909 0.0
C1120 C 0.38094 0.15506 0.3213 0.0
C1121 C 0.42151 0.1342 0.34989 0.0
C1122 C 0.39071 0.14139 0.36361 0.0
H1123 H 0.4406 0.13343 0.31902 0.0
H1124 H 0.44904 0.1219 0.35511 0.0
S1125 S 0.29207 0.18146 0.35073 0.0
N1126 N 0.31538 0.17887 0.32885 0.0
N1127 N 0.32365 0.16559 0.36778 0.0
C1128 C 0.35555 0.15779 0.35604 0.0
C1129 C 0.35093 0.16497 0.33491 0.0
C1130 C 0.58331 0.60811 0.10468 0.0
C1131 C 0.60048 0.64275 0.11229 0.0
C1132 C 0.57487 0.60382 0.08409 0.0
C1133 C 0.58342 0.63391 0.07031 0.0
H1134 H 0.57835 0.5831 0.11445 0.0
H1135 H 0.56423 0.57572 0.07876 0.0
S1136 S 0.61909 0.73365 0.08304 0.0
N1137 N 0.61948 0.70996 0.10485 0.0
N1138 N 0.60285 0.70196 0.06608 0.0
C1139 C 0.59703 0.66994 0.0779 0.0
C1140 C 0.60577 0.67435 0.09893 0.0
C1141 C 0.11673 0.81978 0.8359 0.0
C1142 C 0.10659 0.84981 0.82231 0.0
C1143 C 0.10954 0.82358 0.85677 0.0
C1144 C 0.09141 0.85726 0.86475 0.0
H1145 H 0.1316 0.79377 0.83052 0.0
H1146 H 0.11928 0.80045 0.86674 0.0
S1147 S 0.05808 0.94398 0.83582 0.0
N1148 N 0.07715 0.91454 0.81866 0.0
N1149 N 0.06204 0.92036 0.85749 0.0
C1150 C 0.07922 0.8865 0.85127 0.0
C1151 C 0.08729 0.88315 0.83015 0.0
loop_
_geom_bond_atom_site_label_1
_geom_bond_atom_site_label_2
_geom_bond_distance
_geom_bond_site_symmetry_2
_ccdc_geom_bond_type
Mg0 O1 2.028 . S
Mg0 O7 1.986 . S
Mg0 O9 2.114 . S
Mg0 O10 2.251 . S
Mg0 O13 2.010 . S
O1 Mg0 2.028 . S
O1 C4 1.250 . S
O2 Mg3 2.028 . S
O2 C4 1.248 . S
Mg3 O2 2.028 . S
Mg3 O8 2.032 . S
Mg3 O10 2.079 . S
C4 O1 1.250 . S
C4 O2 1.248 . S
C5 O6 1.264 . S
C5 O13 1.249 . S
O6 C5 1.264 . S
O7 Mg0 1.986 . S
O7 C11 1.246 . S
O8 Mg3 2.032 . S
O8 C11 1.259 . S
O9 Mg0 2.114 . S
O9 C12 1.252 . S
O10 Mg0 2.251 . S
O10 Mg3 2.079 . S
O10 C12 1.273 . S
C11 O7 1.246 . S
C11 O8 1.259 . S
C12 O9 1.252 . S
C12 O10 1.273 . S
O13 Mg0 2.010 . S
O13 C5 1.249 . S
Mg14 O15 2.028 . S
Mg14 O21 1.986 . S
Mg14 O23 2.114 . S
Mg14 O24 2.251 . S
Mg14 O27 2.010 . S
O15 Mg14 2.028 . S
O15 C18 1.250 . S
O16 Mg17 2.028 . S
O16 C18 1.248 . S
Mg17 O16 2.028 . S
Mg17 O22 2.032 . S
Mg17 O24 2.079 . S
C18 O15 1.250 . S
C18 O16 1.248 . S
C19 O20 1.264 . S
C19 O27 1.249 . S
O20 C19 1.264 . S
O21 Mg14 1.986 . S
O21 C25 1.246 . S
O22 Mg17 2.032 . S
O22 C25 1.259 . S
O23 Mg14 2.114 . S
O23 C26 1.252 . S
O24 Mg14 2.251 . S
O24 Mg17 2.079 . S
O24 C26 1.273 . S
C25 O21 1.246 . S
C25 O22 1.259 . S
C26 O23 1.252 . S
C26 O24 1.273 . S
O27 Mg14 2.010 . S
O27 C19 1.249 . S
Mg28 O29 2.028 . S
Mg28 O35 1.986 . S
Mg28 O37 2.114 . S
Mg28 O38 2.251 . S
Mg28 O41 2.010 . S
O29 Mg28 2.028 . S
O29 C32 1.250 . S
O30 Mg31 2.028 . S
O30 C32 1.248 . S
Mg31 O30 2.028 . S
Mg31 O36 2.032 . S
Mg31 O38 2.079 . S
C32 O29 1.250 . S
C32 O30 1.248 . S
C33 O34 1.264 . S
C33 O41 1.249 . S
O34 C33 1.264 . S
O35 Mg28 1.986 . S
O35 C39 1.246 . S
O36 Mg31 2.032 . S
O36 C39 1.259 . S
O37 Mg28 2.114 . S
O37 C40 1.252 . S
O38 Mg28 2.251 . S
O38 Mg31 2.079 . S
O38 C40 1.273 . S
C39 O35 1.246 . S
C39 O36 1.259 . S
C40 O37 1.252 . S
C40 O38 1.273 . S
O41 Mg28 2.010 . S
O41 C33 1.249 . S
Mg42 O43 2.028 . S
Mg42 O49 1.986 . S
Mg42 O51 2.114 . S
Mg42 O52 2.251 . S
Mg42 O55 2.010 . S
O43 Mg42 2.028 . S
O43 C46 1.250 . S
O44 Mg45 2.028 . S
O44 C46 1.248 . S
Mg45 O44 2.028 . S
Mg45 O50 2.032 . S
Mg45 O52 2.079 . S
C46 O43 1.250 . S
C46 O44 1.248 . S
C47 O48 1.264 . S
C47 O55 1.249 . S
O48 C47 1.264 . S
O49 Mg42 1.986 . S
O49 C53 1.246 . S
O50 Mg45 2.032 . S
O50 C53 1.259 . S
O51 Mg42 2.114 . S
O51 C54 1.252 . S
O52 Mg42 2.251 . S
O52 Mg45 2.079 . S
O52 C54 1.273 . S
C53 O49 1.246 . S
C53 O50 1.259 . S
C54 O51 1.252 . S
C54 O52 1.273 . S
O55 Mg42 2.010 . S
O55 C47 1.249 . S
Mg56 O57 2.028 . S
Mg56 O63 1.986 . S
Mg56 O65 2.114 . S
Mg56 O66 2.251 . S
Mg56 O69 2.010 . S
O57 Mg56 2.028 . S
O57 C60 1.250 . S
O58 Mg59 2.028 . S
O58 C60 1.248 . S
Mg59 O58 2.028 . S
Mg59 O64 2.032 . S
Mg59 O66 2.079 . S
C60 O57 1.250 . S
C60 O58 1.248 . S
C61 O62 1.264 . S
C61 O69 1.249 . S
O62 C61 1.264 . S
O63 Mg56 1.986 . S
O63 C67 1.246 . S
O64 Mg59 2.032 . S
O64 C67 1.259 . S
O65 Mg56 2.114 . S
O65 C68 1.252 . S
O66 Mg56 2.251 . S
O66 Mg59 2.079 . S
O66 C68 1.273 . S
C67 O63 1.246 . S
C67 O64 1.259 . S
C68 O65 1.252 . S
C68 O66 1.273 . S
O69 Mg56 2.010 . S
O69 C61 1.249 . S
Mg70 O71 2.028 . S
Mg70 O77 1.986 . S
Mg70 O79 2.114 . S
Mg70 O80 2.251 . S
Mg70 O83 2.010 . S
O71 Mg70 2.028 . S
O71 C74 1.250 . S
O72 Mg73 2.028 . S
O72 C74 1.248 . S
Mg73 O72 2.028 . S
Mg73 O78 2.032 . S
Mg73 O80 2.079 . S
C74 O71 1.250 . S
C74 O72 1.248 . S
C75 O76 1.264 . S
C75 O83 1.249 . S
O76 C75 1.264 . S
O77 Mg70 1.986 . S
O77 C81 1.246 . S
O78 Mg73 2.032 . S
O78 C81 1.259 . S
O79 Mg70 2.114 . S
O79 C82 1.252 . S
O80 Mg70 2.251 . S
O80 Mg73 2.079 . S
O80 C82 1.273 . S
C81 O77 1.246 . S
C81 O78 1.259 . S
C82 O79 1.252 . S
C82 O80 1.273 . S
O83 Mg70 2.010 . S
O83 C75 1.249 . S
Mg84 O85 2.028 . S
Mg84 O91 1.986 . S
Mg84 O93 2.114 . S
Mg84 O94 2.251 . S
Mg84 O97 2.010 . S
O85 Mg84 2.028 . S
O85 C88 1.250 . S
O86 Mg87 2.028 . S
O86 C88 1.248 . S
Mg87 O86 2.028 . S
Mg87 O92 2.032 . S
Mg87 O94 2.079 . S
C88 O85 1.250 . S
C88 O86 1.248 . S
C89 O90 1.264 . S
C89 O97 1.249 . S
O90 C89 1.264 . S
O91 Mg84 1.986 . S
O91 C95 1.246 . S
O92 Mg87 2.032 . S
O92 C95 1.259 . S
O93 Mg84 2.114 . S
O93 C96 1.252 . S
O94 Mg84 2.251 . S
O94 Mg87 2.079 . S
O94 C96 1.273 . S
C95 O91 1.246 . S
C95 O92 1.259 . S
C96 O93 1.252 . S
C96 O94 1.273 . S
O97 Mg84 2.010 . S
O97 C89 1.249 . S
Mg98 O99 2.028 . S
Mg98 O105 1.986 . S
Mg98 O107 2.114 . S
Mg98 O108 2.251 . S
Mg98 O111 2.010 . S
O99 Mg98 2.028 . S
O99 C102 1.250 . S
O100 Mg101 2.028 . S
O100 C102 1.248 . S
Mg101 O100 2.028 . S
Mg101 O106 2.032 . S
Mg101 O108 2.079 . S
C102 O99 1.250 . S
C102 O100 1.248 . S
C103 O104 1.264 . S
C103 O111 1.249 . S
O104 C103 1.264 . S
O105 Mg98 1.986 . S
O105 C109 1.246 . S
O106 Mg101 2.032 . S
O106 C109 1.259 . S
O107 Mg98 2.114 . S
O107 C110 1.252 . S
O108 Mg98 2.251 . S
O108 Mg101 2.079 . S
O108 C110 1.273 . S
C109 O105 1.246 . S
C109 O106 1.259 . S
C110 O107 1.252 . S
C110 O108 1.273 . S
O111 Mg98 2.010 . S
O111 C103 1.249 . S
Mg112 O113 2.028 . S
Mg112 O119 1.986 . S
Mg112 O121 2.114 . S
Mg112 O122 2.251 . S
Mg112 O125 2.010 . S
O113 Mg112 2.028 . S
O113 C116 1.250 . S
O114 Mg115 2.028 . S
O114 C116 1.248 . S
Mg115 O114 2.028 . S
Mg115 O120 2.032 . S
Mg115 O122 2.079 . S
C116 O113 1.250 . S
C116 O114 1.248 . S
C117 O118 1.264 . S
C117 O125 1.249 . S
O118 C117 1.264 . S
O119 Mg112 1.986 . S
O119 C123 1.246 . S
O120 Mg115 2.032 . S
O120 C123 1.259 . S
O121 Mg112 2.114 . S
O121 C124 1.252 . S
O122 Mg112 2.251 . S
O122 Mg115 2.079 . S
O122 C124 1.273 . S
C123 O119 1.246 . S
C123 O120 1.259 . S
C124 O121 1.252 . S
C124 O122 1.273 . S
O125 Mg112 2.010 . S
O125 C117 1.249 . S
Mg126 O127 2.028 . S
Mg126 O133 1.986 . S
Mg126 O135 2.114 . S
Mg126 O136 2.251 . S
Mg126 O139 2.010 . S
O127 Mg126 2.028 . S
O127 C130 1.250 . S
O128 Mg129 2.028 . S
O128 C130 1.248 . S
Mg129 O128 2.028 . S
Mg129 O134 2.032 . S
Mg129 O136 2.079 . S
C130 O127 1.250 . S
C130 O128 1.248 . S
C131 O132 1.264 . S
C131 O139 1.249 . S
O132 C131 1.264 . S
O133 Mg126 1.986 . S
O133 C137 1.246 . S
O134 Mg129 2.032 . S
O134 C137 1.259 . S
O135 Mg126 2.114 . S
O135 C138 1.252 . S
O136 Mg126 2.251 . S
O136 Mg129 2.079 . S
O136 C138 1.273 . S
C137 O133 1.246 . S
C137 O134 1.259 . S
C138 O135 1.252 . S
C138 O136 1.273 . S
O139 Mg126 2.010 . S
O139 C131 1.249 . S
Mg140 O141 2.028 . S
Mg140 O147 1.986 . S
Mg140 O149 2.114 . S
Mg140 O150 2.251 . S
Mg140 O153 2.010 . S
O141 Mg140 2.028 . S
O141 C144 1.250 . S
O142 Mg143 2.028 . S
O142 C144 1.248 . S
Mg143 O142 2.028 . S
Mg143 O148 2.032 . S
Mg143 O150 2.079 . S
C144 O141 1.250 . S
C144 O142 1.248 . S
C145 O146 1.264 . S
C145 O153 1.249 . S
O146 C145 1.264 . S
O147 Mg140 1.986 . S
O147 C151 1.246 . S
O148 Mg143 2.032 . S
O148 C151 1.259 . S
O149 Mg140 2.114 . S
O149 C152 1.252 . S
O150 Mg140 2.251 . S
O150 Mg143 2.079 . S
O150 C152 1.273 . S
C151 O147 1.246 . S
C151 O148 1.259 . S
C152 O149 1.252 . S
C152 O150 1.273 . S
O153 Mg140 2.010 . S
O153 C145 1.249 . S
Mg154 O155 2.028 . S
Mg154 O161 1.986 . S
Mg154 O163 2.114 . S
Mg154 O164 2.251 . S
Mg154 O167 2.010 . S
O155 Mg154 2.028 . S
O155 C158 1.250 . S
O156 Mg157 2.028 . S
O156 C158 1.248 . S
Mg157 O156 2.028 . S
Mg157 O162 2.032 . S
Mg157 O164 2.079 . S
C158 O155 1.250 . S
C158 O156 1.248 . S
C159 O160 1.264 . S
C159 O167 1.249 . S
O160 C159 1.264 . S
O161 Mg154 1.986 . S
O161 C165 1.246 . S
O162 Mg157 2.032 . S
O162 C165 1.259 . S
O163 Mg154 2.114 . S
O163 C166 1.252 . S
O164 Mg154 2.251 . S
O164 Mg157 2.079 . S
O164 C166 1.273 . S
C165 O161 1.246 . S
C165 O162 1.259 . S
C166 O163 1.252 . S
C166 O164 1.273 . S
O167 Mg154 2.010 . S
O167 C159 1.249 . S
Mg168 O169 2.028 . S
Mg168 O175 1.986 . S
Mg168 O177 2.114 . S
Mg168 O178 2.251 . S
Mg168 O181 2.010 . S
O169 Mg168 2.028 . S
O169 C172 1.250 . S
O170 Mg171 2.028 . S
O170 C172 1.248 . S
Mg171 O170 2.028 . S
Mg171 O176 2.032 . S
Mg171 O178 2.079 . S
C172 O169 1.250 . S
C172 O170 1.248 . S
C173 O174 1.264 . S
C173 O181 1.249 . S
O174 C173 1.264 . S
O175 Mg168 1.986 . S
O175 C179 1.246 . S
O176 Mg171 2.032 . S
O176 C179 1.259 . S
O177 Mg168 2.114 . S
O177 C180 1.252 . S
O178 Mg168 2.251 . S
O178 Mg171 2.079 . S
O178 C180 1.273 . S
C179 O175 1.246 . S
C179 O176 1.259 . S
C180 O177 1.252 . S
C180 O178 1.273 . S
O181 Mg168 2.010 . S
O181 C173 1.249 . S
Mg182 O183 2.028 . S
Mg182 O189 1.986 . S
Mg182 O191 2.114 . S
Mg182 O192 2.251 . S
Mg182 O195 2.010 . S
O183 Mg182 2.028 . S
O183 C186 1.250 . S
O184 Mg185 2.028 . S
O184 C186 1.248 . S
Mg185 O184 2.028 . S
Mg185 O190 2.032 . S
Mg185 O192 2.079 . S
C186 O183 1.250 . S
C186 O184 1.248 . S
C187 O188 1.264 . S
C187 O195 1.249 . S
O188 C187 1.264 . S
O189 Mg182 1.986 . S
O189 C193 1.246 . S
O190 Mg185 2.032 . S
O190 C193 1.259 . S
O191 Mg182 2.114 . S
O191 C194 1.252 . S
O192 Mg182 2.251 . S
O192 Mg185 2.079 . S
O192 C194 1.273 . S
C193 O189 1.246 . S
C193 O190 1.259 . S
C194 O191 1.252 . S
C194 O192 1.273 . S
O195 Mg182 2.010 . S
O195 C187 1.249 . S
Mg196 O197 2.028 . S
Mg196 O203 1.986 . S
Mg196 O205 2.114 . S
Mg196 O206 2.251 . S
Mg196 O209 2.010 . S
O197 Mg196 2.028 . S
O197 C200 1.250 . S
O198 Mg199 2.028 . S
O198 C200 1.248 . S
Mg199 O198 2.028 . S
Mg199 O204 2.032 . S
Mg199 O206 2.079 . S
C200 O197 1.250 . S
C200 O198 1.248 . S
C201 O202 1.264 . S
C201 O209 1.249 . S
O202 C201 1.264 . S
O203 Mg196 1.986 . S
O203 C207 1.246 . S
O204 Mg199 2.032 . S
O204 C207 1.259 . S
O205 Mg196 2.114 . S
O205 C208 1.252 . S
O206 Mg196 2.251 . S
O206 Mg199 2.079 . S
O206 C208 1.273 . S
C207 O203 1.246 . S
C207 O204 1.259 . S
C208 O205 1.252 . S
C208 O206 1.273 . S
O209 Mg196 2.010 . S
O209 C201 1.249 . S
Mg210 O211 2.028 . S
Mg210 O217 1.986 . S
Mg210 O219 2.114 . S
Mg210 O220 2.251 . S
Mg210 O223 2.010 . S
O211 Mg210 2.028 . S
O211 C214 1.250 . S
O212 Mg213 2.028 . S
O212 C214 1.248 . S
Mg213 O212 2.028 . S
Mg213 O218 2.032 . S
Mg213 O220 2.079 . S
C214 O211 1.250 . S
C214 O212 1.248 . S
C215 O216 1.264 . S
C215 O223 1.249 . S
O216 C215 1.264 . S
O217 Mg210 1.986 . S
O217 C221 1.246 . S
O218 Mg213 2.032 . S
O218 C221 1.259 . S
O219 Mg210 2.114 . S
O219 C222 1.252 . S
O220 Mg210 2.251 . S
O220 Mg213 2.079 . S
O220 C222 1.273 . S
C221 O217 1.246 . S
C221 O218 1.259 . S
C222 O219 1.252 . S
C222 O220 1.273 . S
O223 Mg210 2.010 . S
O223 C215 1.249 . S
Mg224 O225 2.028 . S
Mg224 O231 1.986 . S
Mg224 O233 2.114 . S
Mg224 O234 2.251 . S
Mg224 O237 2.010 . S
O225 Mg224 2.028 . S
O225 C228 1.250 . S
O226 Mg227 2.028 . S
O226 C228 1.248 . S
Mg227 O226 2.028 . S
Mg227 O232 2.032 . S
Mg227 O234 2.079 . S
C228 O225 1.250 . S
C228 O226 1.248 . S
C229 O230 1.264 . S
C229 O237 1.249 . S
O230 C229 1.264 . S
O231 Mg224 1.986 . S
O231 C235 1.246 . S
O232 Mg227 2.032 . S
O232 C235 1.259 . S
O233 Mg224 2.114 . S
O233 C236 1.252 . S
O234 Mg224 2.251 . S
O234 Mg227 2.079 . S
O234 C236 1.273 . S
C235 O231 1.246 . S
C235 O232 1.259 . S
C236 O233 1.252 . S
C236 O234 1.273 . S
O237 Mg224 2.010 . S
O237 C229 1.249 . S
Mg238 O239 2.028 . S
Mg238 O245 1.986 . S
Mg238 O247 2.114 . S
Mg238 O248 2.251 . S
Mg238 O251 2.010 . S
O239 Mg238 2.028 . S
O239 C242 1.250 . S
O240 Mg241 2.028 . S
O240 C242 1.248 . S
Mg241 O240 2.028 . S
Mg241 O246 2.032 . S
Mg241 O248 2.079 . S
C242 O239 1.250 . S
C242 O240 1.248 . S
C243 O244 1.264 . S
C243 O251 1.249 . S
O244 C243 1.264 . S
O245 Mg238 1.986 . S
O245 C249 1.246 . S
O246 Mg241 2.032 . S
O246 C249 1.259 . S
O247 Mg238 2.114 . S
O247 C250 1.252 . S
O248 Mg238 2.251 . S
O248 Mg241 2.079 . S
O248 C250 1.273 . S
C249 O245 1.246 . S
C249 O246 1.259 . S
C250 O247 1.252 . S
C250 O248 1.273 . S
O251 Mg238 2.010 . S
O251 C243 1.249 . S
Mg252 O253 2.028 . S
Mg252 O259 1.986 . S
Mg252 O261 2.114 . S
Mg252 O262 2.251 . S
Mg252 O265 2.010 . S
O253 Mg252 2.028 . S
O253 C256 1.250 . S
O254 Mg255 2.028 . S
O254 C256 1.248 . S
Mg255 O254 2.028 . S
Mg255 O260 2.032 . S
Mg255 O262 2.079 . S
C256 O253 1.250 . S
C256 O254 1.248 . S
C257 O258 1.264 . S
C257 O265 1.249 . S
O258 C257 1.264 . S
O259 Mg252 1.986 . S
O259 C263 1.246 . S
O260 Mg255 2.032 . S
O260 C263 1.259 . S
O261 Mg252 2.114 . S
O261 C264 1.252 . S
O262 Mg252 2.251 . S
O262 Mg255 2.079 . S
O262 C264 1.273 . S
C263 O259 1.246 . S
C263 O260 1.259 . S
C264 O261 1.252 . S
C264 O262 1.273 . S
O265 Mg252 2.010 . S
O265 C257 1.249 . S
Mg266 O267 2.028 . S
Mg266 O273 1.986 . S
Mg266 O275 2.114 . S
Mg266 O276 2.251 . S
Mg266 O279 2.010 . S
O267 Mg266 2.028 . S
O267 C270 1.250 . S
O268 Mg269 2.028 . S
O268 C270 1.248 . S
Mg269 O268 2.028 . S
Mg269 O274 2.032 . S
Mg269 O276 2.079 . S
C270 O267 1.250 . S
C270 O268 1.248 . S
C271 O272 1.264 . S
C271 O279 1.249 . S
O272 C271 1.264 . S
O273 Mg266 1.986 . S
O273 C277 1.246 . S
O274 Mg269 2.032 . S
O274 C277 1.259 . S
O275 Mg266 2.114 . S
O275 C278 1.252 . S
O276 Mg266 2.251 . S
O276 Mg269 2.079 . S
O276 C278 1.273 . S
C277 O273 1.246 . S
C277 O274 1.259 . S
C278 O275 1.252 . S
C278 O276 1.273 . S
O279 Mg266 2.010 . S
O279 C271 1.249 . S
Mg280 O281 2.028 . S
Mg280 O287 1.986 . S
Mg280 O289 2.114 . S
Mg280 O290 2.251 . S
Mg280 O293 2.010 . S
O281 Mg280 2.028 . S
O281 C284 1.250 . S
O282 Mg283 2.028 . S
O282 C284 1.248 . S
Mg283 O282 2.028 . S
Mg283 O288 2.032 . S
Mg283 O290 2.079 . S
C284 O281 1.250 . S
C284 O282 1.248 . S
C285 O286 1.264 . S
C285 O293 1.249 . S
O286 C285 1.264 . S
O287 Mg280 1.986 . S
O287 C291 1.246 . S
O288 Mg283 2.032 . S
O288 C291 1.259 . S
O289 Mg280 2.114 . S
O289 C292 1.252 . S
O290 Mg280 2.251 . S
O290 Mg283 2.079 . S
O290 C292 1.273 . S
C291 O287 1.246 . S
C291 O288 1.259 . S
C292 O289 1.252 . S
C292 O290 1.273 . S
O293 Mg280 2.010 . S
O293 C285 1.249 . S
Mg294 O295 2.028 . S
Mg294 O301 1.986 . S
Mg294 O303 2.114 . S
Mg294 O304 2.251 . S
Mg294 O307 2.010 . S
O295 Mg294 2.028 . S
O295 C298 1.250 . S
O296 Mg297 2.028 . S
O296 C298 1.248 . S
Mg297 O296 2.028 . S
Mg297 O302 2.032 . S
Mg297 O304 2.079 . S
C298 O295 1.250 . S
C298 O296 1.248 . S
C299 O300 1.264 . S
C299 O307 1.249 . S
O300 C299 1.264 . S
O301 Mg294 1.986 . S
O301 C305 1.246 . S
O302 Mg297 2.032 . S
O302 C305 1.259 . S
O303 Mg294 2.114 . S
O303 C306 1.252 . S
O304 Mg294 2.251 . S
O304 Mg297 2.079 . S
O304 C306 1.273 . S
C305 O301 1.246 . S
C305 O302 1.259 . S
C306 O303 1.252 . S
C306 O304 1.273 . S
O307 Mg294 2.010 . S
O307 C299 1.249 . S
Mg308 O309 2.028 . S
Mg308 O315 1.986 . S
Mg308 O317 2.114 . S
Mg308 O318 2.251 . S
Mg308 O321 2.010 . S
O309 Mg308 2.028 . S
O309 C312 1.250 . S
O310 Mg311 2.028 . S
O310 C312 1.248 . S
Mg311 O310 2.028 . S
Mg311 O316 2.032 . S
Mg311 O318 2.079 . S
C312 O309 1.250 . S
C312 O310 1.248 . S
C313 O314 1.264 . S
C313 O321 1.249 . S
O314 C313 1.264 . S
O315 Mg308 1.986 . S
O315 C319 1.246 . S
O316 Mg311 2.032 . S
O316 C319 1.259 . S
O317 Mg308 2.114 . S
O317 C320 1.252 . S
O318 Mg308 2.251 . S
O318 Mg311 2.079 . S
O318 C320 1.273 . S
C319 O315 1.246 . S
C319 O316 1.259 . S
C320 O317 1.252 . S
C320 O318 1.273 . S
O321 Mg308 2.010 . S
O321 C313 1.249 . S
Mg322 O323 2.028 . S
Mg322 O329 1.986 . S
Mg322 O331 2.114 . S
Mg322 O332 2.251 . S
Mg322 O335 2.010 . S
O323 Mg322 2.028 . S
O323 C326 1.250 . S
O324 Mg325 2.028 . S
O324 C326 1.248 . S
Mg325 O324 2.028 . S
Mg325 O330 2.032 . S
Mg325 O332 2.079 . S
C326 O323 1.250 . S
C326 O324 1.248 . S
C327 O328 1.264 . S
C327 O335 1.249 . S
O328 C327 1.264 . S
O329 Mg322 1.986 . S
O329 C333 1.246 . S
O330 Mg325 2.032 . S
O330 C333 1.259 . S
O331 Mg322 2.114 . S
O331 C334 1.252 . S
O332 Mg322 2.251 . S
O332 Mg325 2.079 . S
O332 C334 1.273 . S
C333 O329 1.246 . S
C333 O330 1.259 . S
C334 O331 1.252 . S
C334 O332 1.273 . S
O335 Mg322 2.010 . S
O335 C327 1.249 . S
Mg336 O337 2.028 . S
Mg336 O343 1.986 . S
Mg336 O345 2.114 . S
Mg336 O346 2.251 . S
Mg336 O349 2.010 . S
O337 Mg336 2.028 . S
O337 C340 1.250 . S
O338 Mg339 2.028 . S
O338 C340 1.248 . S
Mg339 O338 2.028 . S
Mg339 O344 2.032 . S
Mg339 O346 2.079 . S
C340 O337 1.250 . S
C340 O338 1.248 . S
C341 O342 1.264 . S
C341 O349 1.249 . S
O342 C341 1.264 . S
O343 Mg336 1.986 . S
O343 C347 1.246 . S
O344 Mg339 2.032 . S
O344 C347 1.259 . S
O345 Mg336 2.114 . S
O345 C348 1.252 . S
O346 Mg336 2.251 . S
O346 Mg339 2.079 . S
O346 C348 1.273 . S
C347 O343 1.246 . S
C347 O344 1.259 . S
C348 O345 1.252 . S
C348 O346 1.273 . S
O349 Mg336 2.010 . S
O349 C341 1.249 . S
Mg350 O351 2.028 . S
Mg350 O357 1.986 . S
Mg350 O359 2.114 . S
Mg350 O360 2.251 . S
Mg350 O363 2.010 . S
O351 Mg350 2.028 . S
O351 C354 1.250 . S
O352 Mg353 2.028 . S
O352 C354 1.248 . S
Mg353 O352 2.028 . S
Mg353 O358 2.032 . S
Mg353 O360 2.079 . S
C354 O351 1.250 . S
C354 O352 1.248 . S
C355 O356 1.264 . S
C355 O363 1.249 . S
O356 C355 1.264 . S
O357 Mg350 1.986 . S
O357 C361 1.246 . S
O358 Mg353 2.032 . S
O358 C361 1.259 . S
O359 Mg350 2.114 . S
O359 C362 1.252 . S
O360 Mg350 2.251 . S
O360 Mg353 2.079 . S
O360 C362 1.273 . S
C361 O357 1.246 . S
C361 O358 1.259 . S
C362 O359 1.252 . S
C362 O360 1.273 . S
O363 Mg350 2.010 . S
O363 C355 1.249 . S
Mg364 O365 2.028 . S
Mg364 O371 1.986 . S
Mg364 O373 2.114 . S
Mg364 O374 2.251 . S
Mg364 O377 2.010 . S
O365 Mg364 2.028 . S
O365 C368 1.250 . S
O366 Mg367 2.028 . S
O366 C368 1.248 . S
Mg367 O366 2.028 . S
Mg367 O372 2.032 . S
Mg367 O374 2.079 . S
C368 O365 1.250 . S
C368 O366 1.248 . S
C369 O370 1.264 . S
C369 O377 1.249 . S
O370 C369 1.264 . S
O371 Mg364 1.986 . S
O371 C375 1.246 . S
O372 Mg367 2.032 . S
O372 C375 1.259 . S
O373 Mg364 2.114 . S
O373 C376 1.252 . S
O374 Mg364 2.251 . S
O374 Mg367 2.079 . S
O374 C376 1.273 . S
C375 O371 1.246 . S
C375 O372 1.259 . S
C376 O373 1.252 . S
C376 O374 1.273 . S
O377 Mg364 2.010 . S
O377 C369 1.249 . S
Mg378 O379 2.028 . S
Mg378 O385 1.986 . S
Mg378 O387 2.114 . S
Mg378 O388 2.251 . S
Mg378 O391 2.010 . S
O379 Mg378 2.028 . S
O379 C382 1.250 . S
O380 Mg381 2.028 . S
O380 C382 1.248 . S
Mg381 O380 2.028 . S
Mg381 O386 2.032 . S
Mg381 O388 2.079 . S
C382 O379 1.250 . S
C382 O380 1.248 . S
C383 O384 1.264 . S
C383 O391 1.249 . S
O384 C383 1.264 . S
O385 Mg378 1.986 . S
O385 C389 1.246 . S
O386 Mg381 2.032 . S
O386 C389 1.259 . S
O387 Mg378 2.114 . S
O387 C390 1.252 . S
O388 Mg378 2.251 . S
O388 Mg381 2.079 . S
O388 C390 1.273 . S
C389 O385 1.246 . S
C389 O386 1.259 . S
C390 O387 1.252 . S
C390 O388 1.273 . S
O391 Mg378 2.010 . S
O391 C383 1.249 . S
Mg392 O393 2.028 . S
Mg392 O399 1.986 . S
Mg392 O401 2.114 . S
Mg392 O402 2.251 . S
Mg392 O405 2.010 . S
O393 Mg392 2.028 . S
O393 C396 1.250 . S
O394 Mg395 2.028 . S
O394 C396 1.248 . S
Mg395 O394 2.028 . S
Mg395 O400 2.032 . S
Mg395 O402 2.079 . S
C396 O393 1.250 . S
C396 O394 1.248 . S
C397 O398 1.264 . S
C397 O405 1.249 . S
O398 C397 1.264 . S
O399 Mg392 1.986 . S
O399 C403 1.246 . S
O400 Mg395 2.032 . S
O400 C403 1.259 . S
O401 Mg392 2.114 . S
O401 C404 1.252 . S
O402 Mg392 2.251 . S
O402 Mg395 2.079 . S
O402 C404 1.273 . S
C403 O399 1.246 . S
C403 O400 1.259 . S
C404 O401 1.252 . S
C404 O402 1.273 . S
O405 Mg392 2.010 . S
O405 C397 1.249 . S
Mg406 O407 2.028 . S
Mg406 O413 1.986 . S
Mg406 O415 2.114 . S
Mg406 O416 2.251 . S
Mg406 O419 2.010 . S
O407 Mg406 2.028 . S
O407 C410 1.250 . S
O408 Mg409 2.028 . S
O408 C410 1.248 . S
Mg409 O408 2.028 . S
Mg409 O414 2.032 . S
Mg409 O416 2.079 . S
C410 O407 1.250 . S
C410 O408 1.248 . S
C411 O412 1.264 . S
C411 O419 1.249 . S
O412 C411 1.264 . S
O413 Mg406 1.986 . S
O413 C417 1.246 . S
O414 Mg409 2.032 . S
O414 C417 1.259 . S
O415 Mg406 2.114 . S
O415 C418 1.252 . S
O416 Mg406 2.251 . S
O416 Mg409 2.079 . S
O416 C418 1.273 . S
C417 O413 1.246 . S
C417 O414 1.259 . S
C418 O415 1.252 . S
C418 O416 1.273 . S
O419 Mg406 2.010 . S
O419 C411 1.249 . S
Mg420 O421 2.028 . S
Mg420 O427 1.986 . S
Mg420 O429 2.114 . S
Mg420 O430 2.251 . S
Mg420 O433 2.010 . S
O421 Mg420 2.028 . S
O421 C424 1.250 . S
O422 Mg423 2.028 . S
O422 C424 1.248 . S
Mg423 O422 2.028 . S
Mg423 O428 2.032 . S
Mg423 O430 2.079 . S
C424 O421 1.250 . S
C424 O422 1.248 . S
C425 O426 1.264 . S
C425 O433 1.249 . S
O426 C425 1.264 . S
O427 Mg420 1.986 . S
O427 C431 1.246 . S
O428 Mg423 2.032 . S
O428 C431 1.259 . S
O429 Mg420 2.114 . S
O429 C432 1.252 . S
O430 Mg420 2.251 . S
O430 Mg423 2.079 . S
O430 C432 1.273 . S
C431 O427 1.246 . S
C431 O428 1.259 . S
C432 O429 1.252 . S
C432 O430 1.273 . S
O433 Mg420 2.010 . S
O433 C425 1.249 . S
Mg434 O435 2.028 . S
Mg434 O441 1.986 . S
Mg434 O443 2.114 . S
Mg434 O444 2.251 . S
Mg434 O447 2.010 . S
O435 Mg434 2.028 . S
O435 C438 1.250 . S
O436 Mg437 2.028 . S
O436 C438 1.248 . S
Mg437 O436 2.028 . S
Mg437 O442 2.032 . S
Mg437 O444 2.079 . S
C438 O435 1.250 . S
C438 O436 1.248 . S
C439 O440 1.264 . S
C439 O447 1.249 . S
O440 C439 1.264 . S
O441 Mg434 1.986 . S
O441 C445 1.246 . S
O442 Mg437 2.032 . S
O442 C445 1.259 . S
O443 Mg434 2.114 . S
O443 C446 1.252 . S
O444 Mg434 2.251 . S
O444 Mg437 2.079 . S
O444 C446 1.273 . S
C445 O441 1.246 . S
C445 O442 1.259 . S
C446 O443 1.252 . S
C446 O444 1.273 . S
O447 Mg434 2.010 . S
O447 C439 1.249 . S
C448 C449 1.369 . S
C448 C450 1.419 1_655 S
C448 H452 0.930 . S
C449 C448 1.369 . S
C449 C458 1.429 1_556 S
C450 C448 1.419 1_455 S
C450 C451 1.363 1_556 S
C450 H453 0.929 . S
C451 C450 1.363 1_554 S
C451 C457 1.428 . S
H452 C448 0.930 . S
H453 C450 0.929 . S
S454 N455 1.613 . S
S454 N456 1.610 1_655 S
N455 S454 1.613 . S
N455 C458 1.350 . S
N456 S454 1.610 1_455 S
N456 C457 1.351 . S
C457 C451 1.428 . S
C457 N456 1.351 . S
C457 C458 1.434 1_455 S
C458 C449 1.429 1_554 S
C458 N455 1.350 . S
C458 C457 1.434 1_655 S
C459 C460 1.369 . S
C459 C461 1.419 . S
C459 H463 0.930 . S
C460 C459 1.369 . S
C460 C469 1.429 . S
C461 C459 1.419 . S
C461 C462 1.363 . S
C461 H464 0.929 . S
C462 C461 1.363 . S
C462 C468 1.428 . S
H463 C459 0.930 . S
H464 C461 0.929 . S
S465 N466 1.613 . S
S465 N467 1.610 . S
N466 S465 1.613 . S
N466 C469 1.350 . S
N467 S465 1.610 . S
N467 C468 1.351 . S
C468 C462 1.428 . S
C468 N467 1.351 . S
C468 C469 1.434 . S
C469 C460 1.429 . S
C469 N466 1.350 . S
C469 C468 1.434 . S
C470 C471 1.369 . S
C470 C472 1.419 . S
C470 H474 0.930 . S
C471 C470 1.369 . S
C471 C480 1.429 . S
C472 C470 1.419 . S
C472 C473 1.363 . S
C472 H475 0.929 . S
C473 C472 1.363 . S
C473 C479 1.428 . S
H474 C470 0.930 . S
H475 C472 0.929 . S
S476 N477 1.613 . S
S476 N478 1.610 . S
N477 S476 1.613 . S
N477 C480 1.350 . S
N478 S476 1.610 . S
N478 C479 1.351 . S
C479 C473 1.428 . S
C479 N478 1.351 . S
C479 C480 1.434 . S
C480 C471 1.429 . S
C480 N477 1.350 . S
C480 C479 1.434 . S
C481 C482 1.369 . S
C481 C483 1.419 . S
C481 H485 0.930 . S
C482 C481 1.369 . S
C482 C491 1.429 . S
C483 C481 1.419 . S
C483 C484 1.363 . S
C483 H486 0.929 . S
C484 C483 1.363 . S
C484 C490 1.428 . S
H485 C481 0.930 . S
H486 C483 0.929 . S
S487 N488 1.613 . S
S487 N489 1.610 . S
N488 S487 1.613 . S
N488 C491 1.350 . S
N489 S487 1.610 . S
N489 C490 1.351 . S
C490 C484 1.428 . S
C490 N489 1.351 . S
C490 C491 1.434 . S
C491 C482 1.429 . S
C491 N488 1.350 . S
C491 C490 1.434 . S
C492 C493 1.369 . S
C492 C494 1.419 1_655 S
C492 H496 0.930 . S
C493 C492 1.369 . S
C493 C502 1.429 . S
C494 C492 1.419 1_455 S
C494 C495 1.363 . S
C494 H497 0.929 . S
C495 C494 1.363 . S
C495 C501 1.428 . S
H496 C492 0.930 . S
H497 C494 0.929 . S
S498 N499 1.613 . S
S498 N500 1.610 1_655 S
N499 S498 1.613 . S
N499 C502 1.350 . S
N500 S498 1.610 1_455 S
N500 C501 1.351 . S
C501 C495 1.428 . S
C501 N500 1.351 . S
C501 C502 1.434 1_455 S
C502 C493 1.429 . S
C502 N499 1.350 . S
C502 C501 1.434 1_655 S
C503 C504 1.369 . S
C503 C505 1.419 . S
C503 H507 0.930 . S
C504 C503 1.369 . S
C504 C513 1.429 . S
C505 C503 1.419 . S
C505 C506 1.363 . S
C505 H508 0.929 . S
C506 C505 1.363 . S
C506 C512 1.428 . S
H507 C503 0.930 . S
H508 C505 0.929 . S
S509 N510 1.613 . S
S509 N511 1.610 . S
N510 S509 1.613 . S
N510 C513 1.350 . S
N511 S509 1.610 . S
N511 C512 1.351 . S
C512 C506 1.428 . S
C512 N511 1.351 . S
C512 C513 1.434 . S
C513 C504 1.429 . S
C513 N510 1.350 . S
C513 C512 1.434 . S
C514 C515 1.369 . S
C514 C516 1.419 1_556 S
C514 H518 0.930 . S
C515 C514 1.369 . S
C515 C524 1.429 . S
C516 C514 1.419 1_554 S
C516 C517 1.363 . S
C516 H519 0.929 . S
C517 C516 1.363 . S
C517 C523 1.428 . S
H518 C514 0.930 . S
H519 C516 0.929 . S
S520 N521 1.613 . S
S520 N522 1.610 1_556 S
N521 S520 1.613 . S
N521 C524 1.350 . S
N522 S520 1.610 1_554 S
N522 C523 1.351 . S
C523 C517 1.428 . S
C523 N522 1.351 . S
C523 C524 1.434 1_554 S
C524 C515 1.429 . S
C524 N521 1.350 . S
C524 C523 1.434 1_556 S
C525 C526 1.369 . S
C525 C527 1.419 . S
C525 H529 0.930 . S
C526 C525 1.369 . S
C526 C535 1.429 . S
C527 C525 1.419 . S
C527 C528 1.363 . S
C527 H530 0.929 . S
C528 C527 1.363 . S
C528 C534 1.428 . S
H529 C525 0.930 . S
H530 C527 0.929 . S
S531 N532 1.613 . S
S531 N533 1.610 . S
N532 S531 1.613 . S
N532 C535 1.350 . S
N533 S531 1.610 . S
N533 C534 1.351 . S
C534 C528 1.428 . S
C534 N533 1.351 . S
C534 C535 1.434 . S
C535 C526 1.429 . S
C535 N532 1.350 . S
C535 C534 1.434 . S
C536 C537 1.369 . S
C536 C538 1.419 . S
C536 H540 0.930 . S
C537 C536 1.369 . S
C537 C546 1.429 . S
C538 C536 1.419 . S
C538 C539 1.363 . S
C538 H541 0.929 . S
C539 C538 1.363 . S
C539 C545 1.428 . S
H540 C536 0.930 . S
H541 C538 0.929 . S
S542 N543 1.613 . S
S542 N544 1.610 . S
N543 S542 1.613 . S
N543 C546 1.350 . S
N544 S542 1.610 . S
N544 C545 1.351 . S
C545 C539 1.428 . S
C545 N544 1.351 . S
C545 C546 1.434 . S
C546 C537 1.429 . S
C546 N543 1.350 . S
C546 C545 1.434 . S
C547 C548 1.369 . S
C547 C549 1.419 . S
C547 H551 0.930 . S
C548 C547 1.369 . S
C548 C557 1.429 . S
C549 C547 1.419 . S
C549 C550 1.363 . S
C549 H552 0.929 . S
C550 C549 1.363 . S
C550 C556 1.428 . S
H551 C547 0.930 . S
H552 C549 0.929 . S
S553 N554 1.613 . S
S553 N555 1.610 . S
N554 S553 1.613 . S
N554 C557 1.350 . S
N555 S553 1.610 . S
N555 C556 1.351 . S
C556 C550 1.428 . S
C556 N555 1.351 . S
C556 C557 1.434 . S
C557 C548 1.429 . S
C557 N554 1.350 . S
C557 C556 1.434 . S
C558 C559 1.369 . S
C558 C560 1.419 . S
C558 H562 0.930 . S
C559 C558 1.369 . S
C559 C568 1.429 . S
C560 C558 1.419 . S
C560 C561 1.363 . S
C560 H563 0.929 . S
C561 C560 1.363 . S
C561 C567 1.428 . S
H562 C558 0.930 . S
H563 C560 0.929 . S
S564 N565 1.613 . S
S564 N566 1.610 . S
N565 S564 1.613 . S
N565 C568 1.350 . S
N566 S564 1.610 . S
N566 C567 1.351 . S
C567 C561 1.428 . S
C567 N566 1.351 . S
C567 C568 1.434 . S
C568 C559 1.429 . S
C568 N565 1.350 . S
C568 C567 1.434 . S
C569 C570 1.369 . S
C569 C571 1.419 . S
C569 H573 0.930 . S
C570 C569 1.369 . S
C570 C579 1.429 . S
C571 C569 1.419 . S
C571 C572 1.363 . S
C571 H574 0.929 . S
C572 C571 1.363 . S
C572 C578 1.428 . S
H573 C569 0.930 . S
H574 C571 0.929 . S
S575 N576 1.613 . S
S575 N577 1.610 . S
N576 S575 1.613 . S
N576 C579 1.350 . S
N577 S575 1.610 . S
N577 C578 1.351 . S
C578 C572 1.428 . S
C578 N577 1.351 . S
C578 C579 1.434 . S
C579 C570 1.429 . S
C579 N576 1.350 . S
C579 C578 1.434 . S
C580 C581 1.369 1_545 S
C580 C582 1.419 . S
C580 H584 0.930 . S
C581 C580 1.369 1_565 S
C581 C590 1.429 . S
C582 C580 1.419 . S
C582 C583 1.363 . S
C582 H585 0.929 . S
C583 C582 1.363 . S
C583 C589 1.428 1_545 S
H584 C580 0.930 . S
H585 C582 0.929 . S
S586 N587 1.613 . S
S586 N588 1.610 . S
N587 S586 1.613 . S
N587 C590 1.350 . S
N588 S586 1.610 . S
N588 C589 1.351 . S
C589 C583 1.428 1_565 S
C589 N588 1.351 . S
C589 C590 1.434 . S
C590 C581 1.429 . S
C590 N587 1.350 . S
C590 C589 1.434 . S
C591 C592 1.369 1_554 S
C591 C593 1.419 1_465 S
C591 H595 0.930 . S
C592 C591 1.369 1_556 S
C592 C601 1.429 . S
C593 C591 1.419 1_645 S
C593 C594 1.363 . S
C593 H596 0.929 . S
C594 C593 1.363 . S
C594 C600 1.428 1_554 S
H595 C591 0.930 . S
H596 C593 0.929 . S
S597 N598 1.613 1_645 S
S597 N599 1.610 . S
N598 S597 1.613 1_465 S
N598 C601 1.350 . S
N599 S597 1.610 . S
N599 C600 1.351 . S
C600 C594 1.428 1_556 S
C600 N599 1.351 . S
C600 C601 1.434 1_645 S
C601 C592 1.429 . S
C601 N598 1.350 . S
C601 C600 1.434 1_465 S
C602 C603 1.369 1_554 S
C602 C604 1.419 . S
C602 H606 0.930 . S
C603 C602 1.369 1_556 S
C603 C612 1.429 1_545 S
C604 C602 1.419 . S
C604 C605 1.363 1_545 S
C604 H607 0.929 . S
C605 C604 1.363 1_565 S
C605 C611 1.428 1_554 S
H606 C602 0.930 . S
H607 C604 0.929 . S
S608 N609 1.613 . S
S608 N610 1.610 . S
N609 S608 1.613 . S
N609 C612 1.350 . S
N610 S608 1.610 . S
N610 C611 1.351 . S
C611 C605 1.428 1_556 S
C611 N610 1.351 . S
C611 C612 1.434 . S
C612 C603 1.429 1_565 S
C612 N609 1.350 . S
C612 C611 1.434 . S
C613 C614 1.369 1_655 S
C613 C615 1.419 . S
C613 H617 0.930 . S
C614 C613 1.369 1_455 S
C614 C623 1.429 1_545 S
C615 C613 1.419 . S
C615 C616 1.363 1_545 S
C615 H618 0.929 . S
C616 C615 1.363 1_565 S
C616 C622 1.428 1_655 S
H617 C613 0.930 . S
H618 C615 0.929 . S
S619 N620 1.613 . S
S619 N621 1.610 . S
N620 S619 1.613 . S
N620 C623 1.350 . S
N621 S619 1.610 . S
N621 C622 1.351 . S
C622 C616 1.428 1_455 S
C622 N621 1.351 . S
C622 C623 1.434 . S
C623 C614 1.429 1_565 S
C623 N620 1.350 . S
C623 C622 1.434 . S
C624 C625 1.369 . S
C624 C626 1.419 1_655 S
C624 H628 0.930 1_554 S
C625 C624 1.369 . S
C625 C634 1.429 . S
C626 C624 1.419 1_455 S
C626 C627 1.363 . S
C626 H629 0.929 1_554 S
C627 C626 1.363 . S
C627 C633 1.428 . S
H628 C624 0.930 1_556 S
H629 C626 0.929 1_556 S
S630 N631 1.613 . S
S630 N632 1.610 1_655 S
N631 S630 1.613 . S
N631 C634 1.350 . S
N632 S630 1.610 1_455 S
N632 C633 1.351 . S
C633 C627 1.428 . S
C633 N632 1.351 . S
C633 C634 1.434 1_455 S
C634 C625 1.429 . S
C634 N631 1.350 . S
C634 C633 1.434 1_655 S
C635 C636 1.369 1_655 S
C635 C637 1.419 . S
C635 H639 0.930 . S
C636 C635 1.369 1_455 S
C636 C645 1.429 . S
C637 C635 1.419 . S
C637 C638 1.363 . S
C637 H640 0.929 . S
C638 C637 1.363 . S
C638 C644 1.428 1_655 S
H639 C635 0.930 . S
H640 C637 0.929 . S
S641 N642 1.613 . S
S641 N643 1.610 . S
N642 S641 1.613 . S
N642 C645 1.350 . S
N643 S641 1.610 . S
N643 C644 1.351 . S
C644 C638 1.428 1_455 S
C644 N643 1.351 . S
C644 C645 1.434 . S
C645 C636 1.429 . S
C645 N642 1.350 . S
C645 C644 1.434 . S
C646 C647 1.369 . S
C646 C648 1.419 . S
C646 H650 0.930 . S
C647 C646 1.369 . S
C647 C656 1.429 . S
C648 C646 1.419 . S
C648 C649 1.363 . S
C648 H651 0.929 . S
C649 C648 1.363 . S
C649 C655 1.428 . S
H650 C646 0.930 . S
H651 C648 0.929 . S
S652 N653 1.613 . S
S652 N654 1.610 . S
N653 S652 1.613 . S
N653 C656 1.350 . S
N654 S652 1.610 . S
N654 C655 1.351 . S
C655 C649 1.428 . S
C655 N654 1.351 . S
C655 C656 1.434 . S
C656 C647 1.429 . S
C656 N653 1.350 . S
C656 C655 1.434 . S
C657 C658 1.369 . S
C657 C659 1.419 . S
C657 H661 0.930 . S
C658 C657 1.369 . S
C658 C667 1.429 . S
C659 C657 1.419 . S
C659 C660 1.363 . S
C659 H662 0.929 . S
C660 C659 1.363 . S
C660 C666 1.428 . S
H661 C657 0.930 . S
H662 C659 0.929 . S
S663 N664 1.613 . S
S663 N665 1.610 . S
N664 S663 1.613 . S
N664 C667 1.350 . S
N665 S663 1.610 . S
N665 C666 1.351 . S
C666 C660 1.428 . S
C666 N665 1.351 . S
C666 C667 1.434 . S
C667 C658 1.429 . S
C667 N664 1.350 . S
C667 C666 1.434 . S
C668 C669 1.369 . S
C668 C670 1.419 . S
C668 H672 0.930 . S
C669 C668 1.369 . S
C669 C678 1.429 1_655 S
C670 C668 1.419 . S
C670 C671 1.363 1_655 S
C670 H673 0.929 . S
C671 C670 1.363 1_455 S
C671 C677 1.428 . S
H672 C668 0.930 . S
H673 C670 0.929 . S
S674 N675 1.613 . S
S674 N676 1.610 . S
N675 S674 1.613 . S
N675 C678 1.350 . S
N676 S674 1.610 . S
N676 C677 1.351 . S
C677 C671 1.428 . S
C677 N676 1.351 . S
C677 C678 1.434 . S
C678 C669 1.429 1_455 S
C678 N675 1.350 . S
C678 C677 1.434 . S
C679 C680 1.369 . S
C679 C681 1.419 . S
C679 H683 0.930 . S
C680 C679 1.369 . S
C680 C689 1.429 . S
C681 C679 1.419 . S
C681 C682 1.363 . S
C681 H684 0.929 . S
C682 C681 1.363 . S
C682 C688 1.428 . S
H683 C679 0.930 . S
H684 C681 0.929 . S
S685 N686 1.613 . S
S685 N687 1.610 . S
N686 S685 1.613 . S
N686 C689 1.350 . S
N687 S685 1.610 . S
N687 C688 1.351 . S
C688 C682 1.428 . S
C688 N687 1.351 . S
C688 C689 1.434 . S
C689 C680 1.429 . S
C689 N686 1.350 . S
C689 C688 1.434 . S
C690 C691 1.369 . S
C690 C692 1.419 . S
C690 H694 0.930 . S
C691 C690 1.369 . S
C691 C700 1.429 . S
C692 C690 1.419 . S
C692 C693 1.363 . S
C692 H695 0.929 . S
C693 C692 1.363 . S
C693 C699 1.428 . S
H694 C690 0.930 . S
H695 C692 0.929 . S
S696 N697 1.613 . S
S696 N698 1.610 . S
N697 S696 1.613 . S
N697 C700 1.350 . S
N698 S696 1.610 . S
N698 C699 1.351 . S
C699 C693 1.428 . S
C699 N698 1.351 . S
C699 C700 1.434 . S
C700 C691 1.429 . S
C700 N697 1.350 . S
C700 C699 1.434 . S
C701 C702 1.369 . S
C701 C703 1.419 1_455 S
C701 H705 0.930 . S
C702 C701 1.369 . S
C702 C711 1.429 . S
C703 C701 1.419 1_655 S
C703 C704 1.363 . S
C703 H706 0.929 . S
C704 C703 1.363 . S
C704 C710 1.428 . S
H705 C701 0.930 . S
H706 C703 0.929 . S
S707 N708 1.613 . S
S707 N709 1.610 1_455 S
N708 S707 1.613 . S
N708 C711 1.350 . S
N709 S707 1.610 1_655 S
N709 C710 1.351 . S
C710 C704 1.428 . S
C710 N709 1.351 . S
C710 C711 1.434 1_655 S
C711 C702 1.429 . S
C711 N708 1.350 . S
C711 C710 1.434 1_455 S
C712 C713 1.369 . S
C712 C714 1.419 1_655 S
C712 H716 0.930 . S
C713 C712 1.369 . S
C713 C722 1.429 . S
C714 C712 1.419 1_455 S
C714 C715 1.363 . S
C714 H717 0.929 . S
C715 C714 1.363 . S
C715 C721 1.428 . S
H716 C712 0.930 . S
H717 C714 0.929 . S
S718 N719 1.613 . S
S718 N720 1.610 1_655 S
N719 S718 1.613 . S
N719 C722 1.350 1_554 S
N720 S718 1.610 1_455 S
N720 C721 1.351 1_554 S
C721 C715 1.428 . S
C721 N720 1.351 1_556 S
C721 C722 1.434 1_455 S
C722 C713 1.429 . S
C722 N719 1.350 1_556 S
C722 C721 1.434 1_655 S
C723 C724 1.369 . S
C723 C725 1.419 . S
C723 H727 0.930 . S
C724 C723 1.369 . S
C724 C733 1.429 1_655 S
C725 C723 1.419 . S
C725 C726 1.363 1_655 S
C725 H728 0.929 . S
C726 C725 1.363 1_455 S
C726 C732 1.428 . S
H727 C723 0.930 . S
H728 C725 0.929 . S
S729 N730 1.613 . S
S729 N731 1.610 . S
N730 S729 1.613 . S
N730 C733 1.350 . S
N731 S729 1.610 . S
N731 C732 1.351 . S
C732 C726 1.428 . S
C732 N731 1.351 . S
C732 C733 1.434 . S
C733 C724 1.429 1_455 S
C733 N730 1.350 . S
C733 C732 1.434 . S
C734 C735 1.369 . S
C734 C736 1.419 . S
C734 H738 0.930 . S
C735 C734 1.369 . S
C735 C744 1.429 . S
C736 C734 1.419 . S
C736 C737 1.363 . S
C736 H739 0.929 . S
C737 C736 1.363 . S
C737 C743 1.428 . S
H738 C734 0.930 . S
H739 C736 0.929 . S
S740 N741 1.613 . S
S740 N742 1.610 . S
N741 S740 1.613 . S
N741 C744 1.350 . S
N742 S740 1.610 . S
N742 C743 1.351 . S
C743 C737 1.428 . S
C743 N742 1.351 . S
C743 C744 1.434 . S
C744 C735 1.429 . S
C744 N741 1.350 . S
C744 C743 1.434 . S
C745 C746 1.369 . S
C745 C747 1.419 . S
C745 H749 0.930 . S
C746 C745 1.369 . S
C746 C755 1.429 . S
C747 C745 1.419 . S
C747 C748 1.363 . S
C747 H750 0.929 . S
C748 C747 1.363 . S
C748 C754 1.428 . S
H749 C745 0.930 . S
H750 C747 0.929 . S
S751 N752 1.613 . S
S751 N753 1.610 . S
N752 S751 1.613 . S
N752 C755 1.350 . S
N753 S751 1.610 . S
N753 C754 1.351 . S
C754 C748 1.428 . S
C754 N753 1.351 . S
C754 C755 1.434 . S
C755 C746 1.429 . S
C755 N752 1.350 . S
C755 C754 1.434 . S
C756 C757 1.369 . S
C756 C758 1.419 . S
C756 H760 0.930 . S
C757 C756 1.369 . S
C757 C766 1.429 1_655 S
C758 C756 1.419 . S
C758 C759 1.363 1_655 S
C758 H761 0.929 . S
C759 C758 1.363 1_455 S
C759 C765 1.428 . S
H760 C756 0.930 . S
H761 C758 0.929 . S
S762 N763 1.613 . S
S762 N764 1.610 . S
N763 S762 1.613 . S
N763 C766 1.350 . S
N764 S762 1.610 . S
N764 C765 1.351 . S
C765 C759 1.428 . S
C765 N764 1.351 . S
C765 C766 1.434 . S
C766 C757 1.429 1_455 S
C766 N763 1.350 . S
C766 C765 1.434 . S
C767 C768 1.369 . S
C767 C769 1.419 . S
C767 H771 0.930 . S
C768 C767 1.369 . S
C768 C777 1.429 . S
C769 C767 1.419 . S
C769 C770 1.363 . S
C769 H772 0.929 . S
C770 C769 1.363 . S
C770 C776 1.428 . S
H771 C767 0.930 . S
H772 C769 0.929 . S
S773 N774 1.613 . S
S773 N775 1.610 . S
N774 S773 1.613 . S
N774 C777 1.350 . S
N775 S773 1.610 . S
N775 C776 1.351 . S
C776 C770 1.428 . S
C776 N775 1.351 . S
C776 C777 1.434 . S
C777 C768 1.429 . S
C777 N774 1.350 . S
C777 C776 1.434 . S
C778 C779 1.369 . S
C778 C780 1.419 . S
C778 H782 0.930 . S
C779 C778 1.369 . S
C779 C788 1.429 . S
C780 C778 1.419 . S
C780 C781 1.363 . S
C780 H783 0.929 . S
C781 C780 1.363 . S
C781 C787 1.428 . S
H782 C778 0.930 . S
H783 C780 0.929 . S
S784 N785 1.613 . S
S784 N786 1.610 . S
N785 S784 1.613 . S
N785 C788 1.350 1_556 S
N786 S784 1.610 . S
N786 C787 1.351 1_556 S
C787 C781 1.428 . S
C787 N786 1.351 1_554 S
C787 C788 1.434 . S
C788 C779 1.429 . S
C788 N785 1.350 1_554 S
C788 C787 1.434 . S
C789 C790 1.369 . S
C789 C791 1.419 . S
C789 H793 0.930 . S
C790 C789 1.369 . S
C790 C799 1.429 1_655 S
C791 C789 1.419 . S
C791 C792 1.363 1_655 S
C791 H794 0.929 . S
C792 C791 1.363 1_455 S
C792 C798 1.428 . S
H793 C789 0.930 . S
H794 C791 0.929 . S
S795 N796 1.613 . S
S795 N797 1.610 . S
N796 S795 1.613 . S
N796 C799 1.350 . S
N797 S795 1.610 . S
N797 C798 1.351 . S
C798 C792 1.428 . S
C798 N797 1.351 . S
C798 C799 1.434 . S
C799 C790 1.429 1_455 S
C799 N796 1.350 . S
C799 C798 1.434 . S
C800 C801 1.369 1_554 S
C800 C802 1.419 . S
C800 H804 0.930 . S
C801 C800 1.369 1_556 S
C801 C810 1.429 . S
C802 C800 1.419 . S
C802 C803 1.363 . S
C802 H805 0.929 . S
C803 C802 1.363 . S
C803 C809 1.428 1_554 S
H804 C800 0.930 . S
H805 C802 0.929 . S
S806 N807 1.613 . S
S806 N808 1.610 . S
N807 S806 1.613 . S
N807 C810 1.350 . S
N808 S806 1.610 . S
N808 C809 1.351 . S
C809 C803 1.428 1_556 S
C809 N808 1.351 . S
C809 C810 1.434 . S
C810 C801 1.429 . S
C810 N807 1.350 . S
C810 C809 1.434 . S
C811 C812 1.369 . S
C811 C813 1.419 1_545 S
C811 H815 0.930 . S
C812 C811 1.369 . S
C812 C821 1.429 . S
C813 C811 1.419 1_565 S
C813 C814 1.363 . S
C813 H816 0.929 . S
C814 C813 1.363 . S
C814 C820 1.428 . S
H815 C811 0.930 . S
H816 C813 0.929 . S
S817 N818 1.613 1_565 S
S817 N819 1.610 . S
N818 S817 1.613 1_545 S
N818 C821 1.350 . S
N819 S817 1.610 . S
N819 C820 1.351 . S
C820 C814 1.428 . S
C820 N819 1.351 . S
C820 C821 1.434 1_565 S
C821 C812 1.429 . S
C821 N818 1.350 . S
C821 C820 1.434 1_545 S
C822 C823 1.369 . S
C822 C824 1.419 . S
C822 H826 0.930 . S
C823 C822 1.369 . S
C823 C832 1.429 . S
C824 C822 1.419 . S
C824 C825 1.363 . S
C824 H827 0.929 . S
C825 C824 1.363 . S
C825 C831 1.428 . S
H826 C822 0.930 . S
H827 C824 0.929 . S
S828 N829 1.613 . S
S828 N830 1.610 . S
N829 S828 1.613 . S
N829 C832 1.350 . S
N830 S828 1.610 . S
N830 C831 1.351 . S
C831 C825 1.428 . S
C831 N830 1.351 . S
C831 C832 1.434 . S
C832 C823 1.429 . S
C832 N829 1.350 . S
C832 C831 1.434 . S
C833 C834 1.369 . S
C833 C835 1.419 1_545 S
C833 H837 0.930 . S
C834 C833 1.369 . S
C834 C843 1.429 . S
C835 C833 1.419 1_565 S
C835 C836 1.363 . S
C835 H838 0.929 . S
C836 C835 1.363 . S
C836 C842 1.428 . S
H837 C833 0.930 . S
H838 C835 0.929 . S
S839 N840 1.613 1_565 S
S839 N841 1.610 . S
N840 S839 1.613 1_545 S
N840 C843 1.350 . S
N841 S839 1.610 . S
N841 C842 1.351 . S
C842 C836 1.428 . S
C842 N841 1.351 . S
C842 C843 1.434 1_565 S
C843 C834 1.429 . S
C843 N840 1.350 . S
C843 C842 1.434 1_545 S
C844 C845 1.369 1_556 S
C844 C846 1.419 . S
C844 H848 0.930 . S
C845 C844 1.369 1_554 S
C845 C854 1.429 . S
C846 C844 1.419 . S
C846 C847 1.363 . S
C846 H849 0.929 . S
C847 C846 1.363 . S
C847 C853 1.428 1_556 S
H848 C844 0.930 . S
H849 C846 0.929 . S
S850 N851 1.613 . S
S850 N852 1.610 . S
N851 S850 1.613 . S
N851 C854 1.350 . S
N852 S850 1.610 . S
N852 C853 1.351 . S
C853 C847 1.428 1_554 S
C853 N852 1.351 . S
C853 C854 1.434 . S
C854 C845 1.429 . S
C854 N851 1.350 . S
C854 C853 1.434 . S
C855 C856 1.369 . S
C855 C857 1.419 1_565 S
C855 H859 0.930 . S
C856 C855 1.369 . S
C856 C865 1.429 . S
C857 C855 1.419 1_545 S
C857 C858 1.363 . S
C857 H860 0.929 . S
C858 C857 1.363 . S
C858 C864 1.428 . S
H859 C855 0.930 . S
H860 C857 0.929 . S
S861 N862 1.613 1_645 S
S861 N863 1.610 1_655 S
N862 S861 1.613 1_465 S
N862 C865 1.350 . S
N863 S861 1.610 1_455 S
N863 C864 1.351 . S
C864 C858 1.428 . S
C864 N863 1.351 . S
C864 C865 1.434 1_545 S
C865 C856 1.429 . S
C865 N862 1.350 . S
C865 C864 1.434 1_565 S
C866 C867 1.369 . S
C866 C868 1.419 . S
C866 H870 0.930 . S
C867 C866 1.369 . S
C867 C876 1.429 . S
C868 C866 1.419 . S
C868 C869 1.363 . S
C868 H871 0.929 . S
C869 C868 1.363 . S
C869 C875 1.428 . S
H870 C866 0.930 . S
H871 C868 0.929 . S
S872 N873 1.613 . S
S872 N874 1.610 . S
N873 S872 1.613 . S
N873 C876 1.350 . S
N874 S872 1.610 . S
N874 C875 1.351 . S
C875 C869 1.428 . S
C875 N874 1.351 . S
C875 C876 1.434 . S
C876 C867 1.429 . S
C876 N873 1.350 . S
C876 C875 1.434 . S
C877 C878 1.369 . S
C877 C879 1.419 1_545 S
C877 H881 0.930 . S
C878 C877 1.369 . S
C878 C887 1.429 . S
C879 C877 1.419 1_565 S
C879 C880 1.363 . S
C879 H882 0.929 . S
C880 C879 1.363 . S
C880 C886 1.428 . S
H881 C877 0.930 . S
H882 C879 0.929 . S
S883 N884 1.613 . S
S883 N885 1.610 1_545 S
N884 S883 1.613 . S
N884 C887 1.350 . S
N885 S883 1.610 1_565 S
N885 C886 1.351 . S
C886 C880 1.428 . S
C886 N885 1.351 . S
C886 C887 1.434 1_565 S
C887 C878 1.429 . S
C887 N884 1.350 . S
C887 C886 1.434 1_545 S
C888 C889 1.369 . S
C888 C890 1.419 . S
C888 H892 0.930 . S
C889 C888 1.369 . S
C889 C898 1.429 . S
C890 C888 1.419 . S
C890 C891 1.363 . S
C890 H893 0.929 . S
C891 C890 1.363 . S
C891 C897 1.428 . S
H892 C888 0.930 . S
H893 C890 0.929 . S
S894 N895 1.613 . S
S894 N896 1.610 . S
N895 S894 1.613 . S
N895 C898 1.350 . S
N896 S894 1.610 . S
N896 C897 1.351 . S
C897 C891 1.428 . S
C897 N896 1.351 . S
C897 C898 1.434 . S
C898 C889 1.429 . S
C898 N895 1.350 . S
C898 C897 1.434 . S
C899 C900 1.369 . S
C899 C901 1.419 . S
C899 H903 0.930 . S
C900 C899 1.369 . S
C900 C909 1.429 . S
C901 C899 1.419 . S
C901 C902 1.363 . S
C901 H904 0.929 . S
C902 C901 1.363 . S
C902 C908 1.428 . S
H903 C899 0.930 . S
H904 C901 0.929 . S
S905 N906 1.613 . S
S905 N907 1.610 . S
N906 S905 1.613 . S
N906 C909 1.350 . S
N907 S905 1.610 . S
N907 C908 1.351 . S
C908 C902 1.428 . S
C908 N907 1.351 . S
C908 C909 1.434 . S
C909 C900 1.429 . S
C909 N906 1.350 . S
C909 C908 1.434 . S
C910 C911 1.369 1_556 S
C910 C912 1.419 . S
C910 H914 0.930 . S
C911 C910 1.369 1_554 S
C911 C920 1.429 . S
C912 C910 1.419 . S
C912 C913 1.363 . S
C912 H915 0.929 . S
C913 C912 1.363 . S
C913 C919 1.428 1_556 S
H914 C910 0.930 . S
H915 C912 0.929 . S
S916 N917 1.613 . S
S916 N918 1.610 . S
N917 S916 1.613 . S
N917 C920 1.350 . S
N918 S916 1.610 . S
N918 C919 1.351 . S
C919 C913 1.428 1_554 S
C919 N918 1.351 . S
C919 C920 1.434 . S
C920 C911 1.429 . S
C920 N917 1.350 . S
C920 C919 1.434 . S
C921 C922 1.369 . S
C921 C923 1.419 . S
C921 H925 0.930 . S
C922 C921 1.369 . S
C922 C931 1.429 . S
C923 C921 1.419 . S
C923 C924 1.363 . S
C923 H926 0.929 . S
C924 C923 1.363 . S
C924 C930 1.428 . S
H925 C921 0.930 . S
H926 C923 0.929 . S
S927 N928 1.613 . S
S927 N929 1.610 . S
N928 S927 1.613 . S
N928 C931 1.350 . S
N929 S927 1.610 . S
N929 C930 1.351 . S
C930 C924 1.428 . S
C930 N929 1.351 . S
C930 C931 1.434 . S
C931 C922 1.429 . S
C931 N928 1.350 . S
C931 C930 1.434 . S
C932 C933 1.369 . S
C932 C934 1.419 . S
C932 H936 0.930 . S
C933 C932 1.369 . S
C933 C942 1.429 . S
C934 C932 1.419 . S
C934 C935 1.363 . S
C934 H937 0.929 . S
C935 C934 1.363 . S
C935 C941 1.428 . S
H936 C932 0.930 . S
H937 C934 0.929 . S
S938 N939 1.613 . S
S938 N940 1.610 . S
N939 S938 1.613 . S
N939 C942 1.350 . S
N940 S938 1.610 . S
N940 C941 1.351 . S
C941 C935 1.428 . S
C941 N940 1.351 . S
C941 C942 1.434 . S
C942 C933 1.429 . S
C942 N939 1.350 . S
C942 C941 1.434 . S
C943 C944 1.369 . S
C943 C945 1.419 . S
C943 H947 0.930 . S
C944 C943 1.369 . S
C944 C953 1.429 . S
C945 C943 1.419 . S
C945 C946 1.363 . S
C945 H948 0.929 . S
C946 C945 1.363 . S
C946 C952 1.428 . S
H947 C943 0.930 . S
H948 C945 0.929 . S
S949 N950 1.613 . S
S949 N951 1.610 . S
N950 S949 1.613 . S
N950 C953 1.350 . S
N951 S949 1.610 . S
N951 C952 1.351 . S
C952 C946 1.428 . S
C952 N951 1.351 . S
C952 C953 1.434 . S
C953 C944 1.429 . S
C953 N950 1.350 . S
C953 C952 1.434 . S
C954 C955 1.369 . S
C954 C956 1.419 . S
C954 H958 0.930 . S
C955 C954 1.369 . S
C955 C964 1.429 1_556 S
C956 C954 1.419 . S
C956 C957 1.363 1_556 S
C956 H959 0.929 . S
C957 C956 1.363 1_554 S
C957 C963 1.428 . S
H958 C954 0.930 . S
H959 C956 0.929 . S
S960 N961 1.613 . S
S960 N962 1.610 . S
N961 S960 1.613 . S
N961 C964 1.350 . S
N962 S960 1.610 . S
N962 C963 1.351 . S
C963 C957 1.428 . S
C963 N962 1.351 . S
C963 C964 1.434 . S
C964 C955 1.429 1_554 S
C964 N961 1.350 . S
C964 C963 1.434 . S
C965 C966 1.369 . S
C965 C967 1.419 . S
C965 H969 0.930 . S
C966 C965 1.369 . S
C966 C975 1.429 . S
C967 C965 1.419 . S
C967 C968 1.363 . S
C967 H970 0.929 . S
C968 C967 1.363 . S
C968 C974 1.428 . S
H969 C965 0.930 . S
H970 C967 0.929 . S
S971 N972 1.613 . S
S971 N973 1.610 . S
N972 S971 1.613 . S
N972 C975 1.350 . S
N973 S971 1.610 . S
N973 C974 1.351 . S
C974 C968 1.428 . S
C974 N973 1.351 . S
C974 C975 1.434 . S
C975 C966 1.429 . S
C975 N972 1.350 . S
C975 C974 1.434 . S
C976 C977 1.369 . S
C976 C978 1.419 . S
C976 H980 0.930 . S
C977 C976 1.369 . S
C977 C986 1.429 . S
C978 C976 1.419 . S
C978 C979 1.363 . S
C978 H981 0.929 . S
C979 C978 1.363 . S
C979 C985 1.428 . S
H980 C976 0.930 . S
H981 C978 0.929 . S
S982 N983 1.613 . S
S982 N984 1.610 . S
N983 S982 1.613 . S
N983 C986 1.350 . S
N984 S982 1.610 . S
N984 C985 1.351 . S
C985 C979 1.428 . S
C985 N984 1.351 . S
C985 C986 1.434 . S
C986 C977 1.429 . S
C986 N983 1.350 . S
C986 C985 1.434 . S
C987 C988 1.369 . S
C987 C989 1.419 . S
C987 H991 0.930 . S
C988 C987 1.369 . S
C988 C997 1.429 . S
C989 C987 1.419 . S
C989 C990 1.363 . S
C989 H992 0.929 . S
C990 C989 1.363 . S
C990 C996 1.428 . S
H991 C987 0.930 . S
H992 C989 0.929 . S
S993 N994 1.613 . S
S993 N995 1.610 . S
N994 S993 1.613 . S
N994 C997 1.350 . S
N995 S993 1.610 . S
N995 C996 1.351 . S
C996 C990 1.428 . S
C996 N995 1.351 . S
C996 C997 1.434 . S
C997 C988 1.429 . S
C997 N994 1.350 . S
C997 C996 1.434 . S
C998 C999 1.369 . S
C998 C1000 1.419 . S
C998 H1002 0.930 . S
C999 C998 1.369 . S
C999 C1008 1.429 . S
C1000 C998 1.419 . S
C1000 C1001 1.363 . S
C1000 H1003 0.929 . S
C1001 C1000 1.363 . S
C1001 C1007 1.428 . S
H1002 C998 0.930 . S
H1003 C1000 0.929 . S
S1004 N1005 1.613 . S
S1004 N1006 1.610 . S
N1005 S1004 1.613 . S
N1005 C1008 1.350 . S
N1006 S1004 1.610 . S
N1006 C1007 1.351 . S
C1007 C1001 1.428 . S
C1007 N1006 1.351 . S
C1007 C1008 1.434 . S
C1008 C999 1.429 . S
C1008 N1005 1.350 . S
C1008 C1007 1.434 . S
C1009 C1010 1.369 . S
C1009 C1011 1.419 . S
C1009 H1013 0.930 . S
C1010 C1009 1.369 . S
C1010 C1019 1.429 . S
C1011 C1009 1.419 . S
C1011 C1012 1.363 . S
C1011 H1014 0.929 . S
C1012 C1011 1.363 . S
C1012 C1018 1.428 . S
H1013 C1009 0.930 . S
H1014 C1011 0.929 . S
S1015 N1016 1.613 . S
S1015 N1017 1.610 . S
N1016 S1015 1.613 . S
N1016 C1019 1.350 . S
N1017 S1015 1.610 . S
N1017 C1018 1.351 . S
C1018 C1012 1.428 . S
C1018 N1017 1.351 . S
C1018 C1019 1.434 . S
C1019 C1010 1.429 . S
C1019 N1016 1.350 . S
C1019 C1018 1.434 . S
C1020 C1021 1.369 . S
C1020 C1022 1.419 . S
C1020 H1024 0.930 . S
C1021 C1020 1.369 . S
C1021 C1030 1.429 . S
C1022 C1020 1.419 . S
C1022 C1023 1.363 . S
C1022 H1025 0.929 . S
C1023 C1022 1.363 . S
C1023 C1029 1.428 . S
H1024 C1020 0.930 . S
H1025 C1022 0.929 . S
S1026 N1027 1.613 . S
S1026 N1028 1.610 . S
N1027 S1026 1.613 . S
N1027 C1030 1.350 . S
N1028 S1026 1.610 . S
N1028 C1029 1.351 . S
C1029 C1023 1.428 . S
C1029 N1028 1.351 . S
C1029 C1030 1.434 . S
C1030 C1021 1.429 . S
C1030 N1027 1.350 . S
C1030 C1029 1.434 . S
C1031 C1032 1.369 . S
C1031 C1033 1.419 . S
C1031 H1035 0.930 . S
C1032 C1031 1.369 . S
C1032 C1041 1.429 . S
C1033 C1031 1.419 . S
C1033 C1034 1.363 . S
C1033 H1036 0.929 . S
C1034 C1033 1.363 . S
C1034 C1040 1.428 . S
H1035 C1031 0.930 . S
H1036 C1033 0.929 . S
S1037 N1038 1.613 . S
S1037 N1039 1.610 . S
N1038 S1037 1.613 . S
N1038 C1041 1.350 . S
N1039 S1037 1.610 . S
N1039 C1040 1.351 . S
C1040 C1034 1.428 . S
C1040 N1039 1.351 . S
C1040 C1041 1.434 . S
C1041 C1032 1.429 . S
C1041 N1038 1.350 . S
C1041 C1040 1.434 . S
C1042 C1043 1.369 . S
C1042 C1044 1.419 . S
C1042 H1046 0.930 . S
C1043 C1042 1.369 . S
C1043 C1052 1.429 . S
C1044 C1042 1.419 . S
C1044 C1045 1.363 . S
C1044 H1047 0.929 . S
C1045 C1044 1.363 . S
C1045 C1051 1.428 . S
H1046 C1042 0.930 . S
H1047 C1044 0.929 . S
S1048 N1049 1.613 . S
S1048 N1050 1.610 . S
N1049 S1048 1.613 . S
N1049 C1052 1.350 . S
N1050 S1048 1.610 . S
N1050 C1051 1.351 . S
C1051 C1045 1.428 . S
C1051 N1050 1.351 . S
C1051 C1052 1.434 . S
C1052 C1043 1.429 . S
C1052 N1049 1.350 . S
C1052 C1051 1.434 . S
C1053 C1054 1.369 . S
C1053 C1055 1.419 . S
C1053 H1057 0.930 . S
C1054 C1053 1.369 . S
C1054 C1063 1.429 . S
C1055 C1053 1.419 . S
C1055 C1056 1.363 . S
C1055 H1058 0.929 . S
C1056 C1055 1.363 . S
C1056 C1062 1.428 . S
H1057 C1053 0.930 . S
H1058 C1055 0.929 . S
S1059 N1060 1.613 . S
S1059 N1061 1.610 . S
N1060 S1059 1.613 . S
N1060 C1063 1.350 . S
N1061 S1059 1.610 . S
N1061 C1062 1.351 . S
C1062 C1056 1.428 . S
C1062 N1061 1.351 . S
C1062 C1063 1.434 . S
C1063 C1054 1.429 . S
C1063 N1060 1.350 . S
C1063 C1062 1.434 . S
C1064 C1065 1.369 . S
C1064 C1066 1.419 . S
C1064 H1068 0.930 . S
C1065 C1064 1.369 . S
C1065 C1074 1.429 . S
C1066 C1064 1.419 . S
C1066 C1067 1.363 . S
C1066 H1069 0.929 . S
C1067 C1066 1.363 . S
C1067 C1073 1.428 . S
H1068 C1064 0.930 . S
H1069 C1066 0.929 . S
S1070 N1071 1.613 . S
S1070 N1072 1.610 . S
N1071 S1070 1.613 . S
N1071 C1074 1.350 . S
N1072 S1070 1.610 . S
N1072 C1073 1.351 . S
C1073 C1067 1.428 . S
C1073 N1072 1.351 . S
C1073 C1074 1.434 . S
C1074 C1065 1.429 . S
C1074 N1071 1.350 . S
C1074 C1073 1.434 . S
C1075 C1076 1.369 . S
C1075 C1077 1.419 . S
C1075 H1079 0.930 . S
C1076 C1075 1.369 . S
C1076 C1085 1.429 . S
C1077 C1075 1.419 . S
C1077 C1078 1.363 . S
C1077 H1080 0.929 . S
C1078 C1077 1.363 . S
C1078 C1084 1.428 . S
H1079 C1075 0.930 . S
H1080 C1077 0.929 . S
S1081 N1082 1.613 . S
S1081 N1083 1.610 . S
N1082 S1081 1.613 . S
N1082 C1085 1.350 . S
N1083 S1081 1.610 . S
N1083 C1084 1.351 . S
C1084 C1078 1.428 . S
C1084 N1083 1.351 . S
C1084 C1085 1.434 . S
C1085 C1076 1.429 . S
C1085 N1082 1.350 . S
C1085 C1084 1.434 . S
C1086 C1087 1.369 . S
C1086 C1088 1.419 . S
C1086 H1090 0.930 . S
C1087 C1086 1.369 . S
C1087 C1096 1.429 . S
C1088 C1086 1.419 . S
C1088 C1089 1.363 . S
C1088 H1091 0.929 . S
C1089 C1088 1.363 . S
C1089 C1095 1.428 . S
H1090 C1086 0.930 . S
H1091 C1088 0.929 . S
S1092 N1093 1.613 . S
S1092 N1094 1.610 . S
N1093 S1092 1.613 . S
N1093 C1096 1.350 . S
N1094 S1092 1.610 . S
N1094 C1095 1.351 . S
C1095 C1089 1.428 . S
C1095 N1094 1.351 . S
C1095 C1096 1.434 . S
C1096 C1087 1.429 . S
C1096 N1093 1.350 . S
C1096 C1095 1.434 . S
C1097 C1098 1.369 . S
C1097 C1099 1.419 . S
C1097 H1101 0.930 . S
C1098 C1097 1.369 . S
C1098 C1107 1.429 . S
C1099 C1097 1.419 . S
C1099 C1100 1.363 . S
C1099 H1102 0.929 . S
C1100 C1099 1.363 . S
C1100 C1106 1.428 . S
H1101 C1097 0.930 . S
H1102 C1099 0.929 . S
S1103 N1104 1.613 . S
S1103 N1105 1.610 . S
N1104 S1103 1.613 . S
N1104 C1107 1.350 . S
N1105 S1103 1.610 . S
N1105 C1106 1.351 . S
C1106 C1100 1.428 . S
C1106 N1105 1.351 . S
C1106 C1107 1.434 . S
C1107 C1098 1.429 . S
C1107 N1104 1.350 . S
C1107 C1106 1.434 . S
C1108 C1109 1.369 . S
C1108 C1110 1.419 . S
C1108 H1112 0.930 . S
C1109 C1108 1.369 . S
C1109 C1118 1.429 . S
C1110 C1108 1.419 . S
C1110 C1111 1.363 . S
C1110 H1113 0.929 . S
C1111 C1110 1.363 . S
C1111 C1117 1.428 . S
H1112 C1108 0.930 . S
H1113 C1110 0.929 . S
S1114 N1115 1.613 . S
S1114 N1116 1.610 . S
N1115 S1114 1.613 . S
N1115 C1118 1.350 . S
N1116 S1114 1.610 . S
N1116 C1117 1.351 . S
C1117 C1111 1.428 . S
C1117 N1116 1.351 . S
C1117 C1118 1.434 . S
C1118 C1109 1.429 . S
C1118 N1115 1.350 . S
C1118 C1117 1.434 . S
C1119 C1120 1.369 . S
C1119 C1121 1.419 . S
C1119 H1123 0.930 . S
C1120 C1119 1.369 . S
C1120 C1129 1.429 . S
C1121 C1119 1.419 . S
C1121 C1122 1.363 . S
C1121 H1124 0.929 . S
C1122 C1121 1.363 . S
C1122 C1128 1.428 . S
H1123 C1119 0.930 . S
H1124 C1121 0.929 . S
S1125 N1126 1.613 . S
S1125 N1127 1.610 . S
N1126 S1125 1.613 . S
N1126 C1129 1.350 . S
N1127 S1125 1.610 . S
N1127 C1128 1.351 . S
C1128 C1122 1.428 . S
C1128 N1127 1.351 . S
C1128 C1129 1.434 . S
C1129 C1120 1.429 . S
C1129 N1126 1.350 . S
C1129 C1128 1.434 . S
C1130 C1131 1.369 . S
C1130 C1132 1.419 . S
C1130 H1134 0.930 . S
C1131 C1130 1.369 . S
C1131 C1140 1.429 . S
C1132 C1130 1.419 . S
C1132 C1133 1.363 . S
C1132 H1135 0.929 . S
C1133 C1132 1.363 . S
C1133 C1139 1.428 . S
H1134 C1130 0.930 . S
H1135 C1132 0.929 . S
S1136 N1137 1.613 . S
S1136 N1138 1.610 . S
N1137 S1136 1.613 . S
N1137 C1140 1.350 . S
N1138 S1136 1.610 . S
N1138 C1139 1.351 . S
C1139 C1133 1.428 . S
C1139 N1138 1.351 . S
C1139 C1140 1.434 . S
C1140 C1131 1.429 . S
C1140 N1137 1.350 . S
C1140 C1139 1.434 . S
C1141 C1142 1.369 . S
C1141 C1143 1.419 . S
C1141 H1145 0.930 . S
C1142 C1141 1.369 . S
C1142 C1151 1.429 . S
C1143 C1141 1.419 . S
C1143 C1144 1.363 . S
C1143 H1146 0.929 . S
C1144 C1143 1.363 . S
C1144 C1150 1.428 . S
H1145 C1141 0.930 . S
H1146 C1143 0.929 . S
S1147 N1148 1.613 . S
S1147 N1149 1.610 . S
N1148 S1147 1.613 . S
N1148 C1151 1.350 . S
N1149 S1147 1.610 . S
N1149 C1150 1.351 . S
C1150 C1144 1.428 . S
C1150 N1149 1.351 . S
C1150 C1151 1.434 . S
C1151 C1142 1.429 . S
C1151 N1148 1.350 . S
C1151 C1150 1.434 . S
C449 C117 1.213 . S
C451 C5 1.201 . S
C460 C355 1.197 . S
C462 C19 1.212 . S
C471 C145 1.200 . S
C473 C33 1.210 . S
C482 C383 1.216 . S
C484 C47 1.198 . S
C493 C173 1.213 . S
C495 C61 1.200 . S
C504 C75 1.214 . S
C506 C411 1.199 . S
C515 C89 1.216 . S
C517 C201 1.198 . S
C526 C103 1.196 . S
C528 C439 1.213 . S
C537 C243 1.205 . S
C539 C131 1.206 . S
C548 C271 1.200 . S
C550 C159 1.210 . S
C559 C187 1.211 . S
C561 C299 1.202 . S
C570 C215 1.209 . S
C572 C327 1.204 . S
C581 C229 1.215 . S
C583 C341 1.198 . S
C592 C369 1.198 . S
C594 C257 1.211 . S
C603 C285 1.197 . S
C605 C397 1.213 . S
C614 C425 1.196 . S
C616 C313 1.213 . S
C625 C256 1.372 . S
C627 C4 1.374 . S
C636 C270 1.374 . S
C638 C18 1.373 . S
C647 C32 1.377 . S
C649 C228 1.379 . S
C658 C46 1.377 . S
C660 C242 1.379 . S
C669 C312 1.377 . S
C671 C60 1.374 . S
C680 C74 1.377 . S
C682 C326 1.378 . S
C691 C284 1.375 . S
C693 C88 1.377 . S
C702 C298 1.372 . S
C704 C102 1.373 . S
C713 C116 1.378 . S
C715 C368 1.379 . S
C724 C382 1.374 . S
C726 C130 1.377 . S
C735 C144 1.373 . S
C737 C340 1.377 . S
C746 C158 1.379 . S
C748 C354 1.379 . S
C757 C172 1.378 . S
C759 C424 1.375 . S
C768 C186 1.374 . S
C770 C438 1.373 . S
C779 C396 1.379 . S
C781 C200 1.379 . S
C790 C410 1.373 . S
C792 C214 1.376 . S
C801 C95 1.422 . S
C803 C11 1.426 . S
C812 C109 1.427 . S
C814 C25 1.427 . S
C823 C67 1.428 . S
C825 C39 1.423 . S
C834 C53 1.422 . S
C836 C81 1.428 . S
C845 C207 1.422 . S
C847 C123 1.428 . S
C856 C221 1.425 . S
C858 C137 1.424 . S
C867 C179 1.425 . S
C869 C151 1.428 . S
C878 C193 1.430 . S
C880 C165 1.424 . S
C889 C319 1.422 . S
C891 C235 1.428 . S
C900 C333 1.422 . S
C902 C249 1.428 . S
C911 C263 1.422 . S
C913 C291 1.428 . S
C922 C277 1.422 . S
C924 C305 1.428 . S
C933 C431 1.429 . S
C935 C347 1.424 . S
C944 C445 1.426 . S
C946 C361 1.423 . S
C955 C375 1.429 . S
C957 C403 1.425 . S
C966 C389 1.428 . S
C968 C417 1.423 . S
C977 C12 1.519 . S
C979 C306 1.518 . S
C988 C320 1.518 . S
C990 C26 1.518 . S
C999 C334 1.519 . S
C1001 C40 1.519 . S
C1010 C54 1.518 . S
C1012 C292 1.518 . S
C1021 C278 1.518 . S
C1023 C68 1.518 . S
C1032 C82 1.518 . S
C1034 C236 1.518 . S
C1043 C250 1.519 . S
C1045 C96 1.519 . S
C1054 C110 1.518 . S
C1056 C264 1.518 . S
C1065 C418 1.518 . S
C1067 C124 1.518 . S
C1076 C432 1.518 . S
C1078 C138 1.518 . S
C1087 C152 1.519 . S
C1089 C446 1.519 . S
C1098 C404 1.519 . S
C1100 C166 1.518 . S
C1109 C390 1.519 . S
C1111 C180 1.519 . S
C1120 C194 1.519 . S
C1122 C348 1.518 . S
C1131 C362 1.518 . S
C1133 C208 1.518 . S
C1142 C222 1.518 . S
C1144 C376 1.519 . S
