# Generated by pormake.
# Topology bmn, (3)-cn, num edge types: 1
# Building blocks:
#     Node 0, Type 0, BuildingBlock: OLANEW_clean_sbu_2, # of connection points: 3
#     Node 1, Type 0, BuildingBlock: OLANEW_clean_sbu_2, # of connection points: 3
#     Node 2, Type 0, BuildingBlock: OLANEW_clean_sbu_2, # of connection points: 3
#     Node 3, Type 0, BuildingBlock: OLANEW_clean_sbu_2, # of connection points: 3
#     Node 4, Type 0, BuildingBlock: OLANEW_clean_sbu_2, # of connection points: 3
#     Node 5, Type 0, BuildingBlock: OLANEW_clean_sbu_2, # of connection points: 3
#     Node 6, Type 0, BuildingBlock: OLANEW_clean_sbu_2, # of connection points: 3
#     Node 7, Type 0, BuildingBlock: OLANEW_clean_sbu_2, # of connection points: 3
#     Node 8, Type 0, BuildingBlock: OLANEW_clean_sbu_2, # of connection points: 3
#     Node 9, Type 0, BuildingBlock: OLANEW_clean_sbu_2, # of connection points: 3
#     Node 10, Type 0, BuildingBlock: OLANEW_clean_sbu_2, # of connection points: 3
#     Node 11, Type 0, BuildingBlock: OLANEW_clean_sbu_2, # of connection points: 3
#     Node 12, Type 0, BuildingBlock: OLANEW_clean_sbu_2, # of connection points: 3
#     Node 13, Type 0, BuildingBlock: OLANEW_clean_sbu_2, # of connection points: 3
#     Node 14, Type 0, BuildingBlock: OLANEW_clean_sbu_2, # of connection points: 3
#     Node 15, Type 0, BuildingBlock: OLANEW_clean_sbu_2, # of connection points: 3
#     Node 16, Type 0, BuildingBlock: OLANEW_clean_sbu_2, # of connection points: 3
#     Node 17, Type 0, BuildingBlock: OLANEW_clean_sbu_2, # of connection points: 3
#     Node 18, Type 0, BuildingBlock: OLANEW_clean_sbu_2, # of connection points: 3
#     Node 19, Type 0, BuildingBlock: OLANEW_clean_sbu_2, # of connection points: 3
#     Node 20, Type 0, BuildingBlock: OLANEW_clean_sbu_2, # of connection points: 3
#     Node 21, Type 0, BuildingBlock: OLANEW_clean_sbu_2, # of connection points: 3
#     Node 22, Type 0, BuildingBlock: OLANEW_clean_sbu_2, # of connection points: 3
#     Node 23, Type 0, BuildingBlock: OLANEW_clean_sbu_2, # of connection points: 3
#     Edge 24, Type (0, 0), BuildingBlock: AJUNOK_clean_linker_0, # of connection points: 2
#     Edge 25, Type (0, 0), BuildingBlock: AJUNOK_clean_linker_0, # of connection points: 2
#     Edge 26, Type (0, 0), BuildingBlock: AJUNOK_clean_linker_0, # of connection points: 2
#     Edge 27, Type (0, 0), BuildingBlock: AJUNOK_clean_linker_0, # of connection points: 2
#     Edge 28, Type (0, 0), BuildingBlock: AJUNOK_clean_linker_0, # of connection points: 2
#     Edge 29, Type (0, 0), BuildingBlock: AJUNOK_clean_linker_0, # of connection points: 2
#     Edge 30, Type (0, 0), BuildingBlock: AJUNOK_clean_linker_0, # of connection points: 2
#     Edge 31, Type (0, 0), BuildingBlock: AJUNOK_clean_linker_0, # of connection points: 2
#     Edge 32, Type (0, 0), BuildingBlock: AJUNOK_clean_linker_0, # of connection points: 2
#     Edge 33, Type (0, 0), BuildingBlock: AJUNOK_clean_linker_0, # of connection points: 2
#     Edge 34, Type (0, 0), BuildingBlock: AJUNOK_clean_linker_0, # of connection points: 2
#     Edge 35, Type (0, 0), BuildingBlock: AJUNOK_clean_linker_0, # of connection points: 2
#     Edge 36, Type (0, 0), BuildingBlock: AJUNOK_clean_linker_0, # of connection points: 2
#     Edge 37, Type (0, 0), BuildingBlock: AJUNOK_clean_linker_0, # of connection points: 2
#     Edge 38, Type (0, 0), BuildingBlock: AJUNOK_clean_linker_0, # of connection points: 2
#     Edge 39, Type (0, 0), BuildingBlock: AJUNOK_clean_linker_0, # of connection points: 2
#     Edge 40, Type (0, 0), BuildingBlock: AJUNOK_clean_linker_0, # of connection points: 2
#     Edge 41, Type (0, 0), BuildingBlock: AJUNOK_clean_linker_0, # of connection points: 2
#     Edge 42, Type (0, 0), BuildingBlock: AJUNOK_clean_linker_0, # of connection points: 2
#     Edge 43, Type (0, 0), BuildingBlock: AJUNOK_clean_linker_0, # of connection points: 2
#     Edge 44, Type (0, 0), BuildingBlock: AJUNOK_clean_linker_0, # of connection points: 2
#     Edge 45, Type (0, 0), BuildingBlock: AJUNOK_clean_linker_0, # of connection points: 2
#     Edge 46, Type (0, 0), BuildingBlock: AJUNOK_clean_linker_0, # of connection points: 2
#     Edge 47, Type (0, 0), BuildingBlock: AJUNOK_clean_linker_0, # of connection points: 2
#     Edge 48, Type (0, 0), BuildingBlock: AJUNOK_clean_linker_0, # of connection points: 2
#     Edge 49, Type (0, 0), BuildingBlock: AJUNOK_clean_linker_0, # of connection points: 2
#     Edge 50, Type (0, 0), BuildingBlock: AJUNOK_clean_linker_0, # of connection points: 2
#     Edge 51, Type (0, 0), BuildingBlock: AJUNOK_clean_linker_0, # of connection points: 2
#     Edge 52, Type (0, 0), BuildingBlock: AJUNOK_clean_linker_0, # of connection points: 2
#     Edge 53, Type (0, 0), BuildingBlock: AJUNOK_clean_linker_0, # of connection points: 2
#     Edge 54, Type (0, 0), BuildingBlock: AJUNOK_clean_linker_0, # of connection points: 2
#     Edge 55, Type (0, 0), BuildingBlock: AJUNOK_clean_linker_0, # of connection points: 2
#     Edge 56, Type (0, 0), BuildingBlock: AJUNOK_clean_linker_0, # of connection points: 2
#     Edge 57, Type (0, 0), BuildingBlock: AJUNOK_clean_linker_0, # of connection points: 2
#     Edge 58, Type (0, 0), BuildingBlock: AJUNOK_clean_linker_0, # of connection points: 2
#     Edge 59, Type (0, 0), BuildingBlock: AJUNOK_clean_linker_0, # of connection points: 2
# Relax obj value: 0.028
# Max RMSD: 0.069
# Mean RMSD: 0.034
data_MOF--net-bmn--node1-OLANEW_clean_sbu_2--edge1-AJUNOK_clean_linker_0
_symmetry_space_group_name_H-M    P1
_symmetry_Int_Tables_number       1
_symmetry_cell_setting            triclinic
loop_
_symmetry_equiv_pos_as_xyz
'x, y, z'
_cell_length_a     47.062219
_cell_length_b     46.967777
_cell_length_c     47.150897
_cell_angle_alpha  102.80013
_cell_angle_beta   96.818378
_cell_angle_gamma 96.97798
loop_
_atom_site_label
_atom_site_type_symbol
_atom_site_fract_x
_atom_site_fract_y
_atom_site_fract_z
_atom_type_partial_charge
O0 O 0.19265 0.54838 0.35045 0.0
Cd1 Cd 0.17699 0.57986 0.39243 0.0
O2 O 0.23019 0.57968 0.34737 0.0
Cd3 Cd 0.21844 0.61351 0.38194 0.0
O4 O 0.19088 0.64149 0.40567 0.0
C5 C 0.18218 0.66209 0.3951 0.0
O6 O 0.19174 0.66708 0.3713 0.0
C7 C 0.21456 0.55443 0.33824 0.0
C8 C 0.17577 0.55212 0.4389 0.0
O9 O 0.15368 0.54827 0.41897 0.0
O10 O 0.19838 0.56931 0.43689 0.0
O11 O 0.96375 0.93722 0.51213 0.0
Cd12 Cd 0.95619 0.89999 0.54046 0.0
O13 O 0.94853 0.97241 0.54302 0.0
Cd14 Cd 0.9276 0.94146 0.56552 0.0
O15 O 0.89345 0.91419 0.57965 0.0
C16 C 0.86747 0.91727 0.57157 0.0
O17 O 0.86292 0.93645 0.55567 0.0
C18 C 0.96031 0.9641 0.52028 0.0
C19 C 0.01129 0.89367 0.56546 0.0
O20 O 0.99656 0.9119 0.5793 0.0
O21 O 0.9994 0.87752 0.54025 0.0
O22 O 0.46129 0.61621 0.77694 0.0
Cd23 Cd 0.4621 0.58241 0.80968 0.0
O24 O 0.46651 0.65219 0.81654 0.0
Cd25 Cd 0.46671 0.69788 0.84022 0.0
O26 O 0.47052 0.74281 0.86711 0.0
C27 C 0.46545 0.76414 0.85573 0.0
O28 O 0.45734 0.75877 0.82718 0.0
C29 C 0.46356 0.64364 0.78867 0.0
C30 C 0.50424 0.54534 0.80308 0.0
O31 O 0.4789 0.53764 0.78792 0.0
O32 O 0.50977 0.57088 0.82101 0.0
O33 O 0.75574 0.34881 0.06099 0.0
Cd34 Cd 0.7984 0.37281 0.09702 0.0
O35 O 0.7301 0.36662 0.09451 0.0
Cd36 Cd 0.69247 0.37785 0.11542 0.0
O37 O 0.6614 0.38413 0.14631 0.0
C38 C 0.67049 0.385 0.17303 0.0
O39 O 0.69764 0.38216 0.18028 0.0
C40 C 0.73108 0.3513 0.06883 0.0
C41 C 0.84893 0.3772 0.07172 0.0
O42 O 0.84042 0.35437 0.08093 0.0
O43 O 0.83341 0.398 0.07446 0.0
O44 O 0.995 0.07368 0.45912 0.0
Cd45 Cd 0.01526 0.10675 0.43068 0.0
O46 O 0.02923 0.0471 0.4483 0.0
Cd47 Cd 0.05056 0.00878 0.45113 0.0
O48 O 0.05541 0.96298 0.44981 0.0
C49 C 0.06547 0.94782 0.42858 0.0
O50 O 0.07464 0.96084 0.40868 0.0
C51 C 0.00656 0.05078 0.46005 0.0
C52 C 0.04981 0.15879 0.46376 0.0
O53 O 0.02245 0.15762 0.45668 0.0
O54 O 0.06067 0.13509 0.45566 0.0
O55 O 0.46328 0.75137 0.71966 0.0
Cd56 Cd 0.45826 0.7875 0.68984 0.0
O57 O 0.42402 0.72105 0.69631 0.0
Cd58 Cd 0.40925 0.75014 0.6692 0.0
O59 O 0.38065 0.77362 0.64585 0.0
C60 C 0.35526 0.77407 0.65246 0.0
O61 O 0.34791 0.76082 0.67289 0.0
C62 C 0.44636 0.72714 0.71589 0.0
C63 C 0.50435 0.79046 0.65767 0.0
O64 O 0.50606 0.80715 0.6835 0.0
O65 O 0.48068 0.77272 0.64703 0.0
O66 O 0.60395 0.30199 0.98736 0.0
Cd67 Cd 0.56115 0.28424 0.94935 0.0
O68 O 0.63221 0.27643 0.9612 0.0
Cd69 Cd 0.59475 0.24659 0.93438 0.0
O70 O 0.55912 0.20991 0.92529 0.0
C71 C 0.55677 0.18778 0.90359 0.0
O72 O 0.57551 0.18774 0.88502 0.0
C73 C 0.62904 0.29589 0.98359 0.0
C74 C 0.56854 0.30572 0.89929 0.0
O75 O 0.55784 0.32058 0.92057 0.0
O76 O 0.5753 0.28065 0.90157 0.0
O77 O 0.25474 0.48214 0.21778 0.0
Cd78 Cd 0.26416 0.45151 0.17171 0.0
O79 O 0.21433 0.45322 0.21759 0.0
Cd80 Cd 0.21269 0.42941 0.17198 0.0
O81 O 0.19837 0.41882 0.12458 0.0
C82 C 0.17153 0.41021 0.11541 0.0
O83 O 0.15419 0.40665 0.13465 0.0
C84 C 0.23345 0.47526 0.23049 0.0
C85 C 0.31294 0.42502 0.18296 0.0
O86 O 0.31504 0.44981 0.17565 0.0
O87 O 0.2876 0.41249 0.18449 0.0
O88 O 0.25497 0.27595 0.54125 0.0
Cd89 Cd 0.2829 0.23547 0.54258 0.0
O90 O 0.27616 0.30185 0.58497 0.0
Cd91 Cd 0.30302 0.26892 0.59316 0.0
O92 O 0.32607 0.23787 0.61146 0.0
C93 C 0.32413 0.23716 0.63797 0.0
O94 O 0.30875 0.25514 0.65267 0.0
C95 C 0.25791 0.2991 0.56198 0.0
C96 C 0.32973 0.23776 0.5114 0.0
O97 O 0.30467 0.22388 0.49879 0.0
O98 O 0.3325 0.25074 0.53873 0.0
O99 O 0.36546 0.05757 0.6815 0.0
Cd100 Cd 0.39856 0.10274 0.70621 0.0
O101 O 0.33559 0.0652 0.71388 0.0
Cd102 Cd 0.36553 0.09976 0.74603 0.0
O103 O 0.38508 0.11911 0.79167 0.0
C104 C 0.40004 0.10369 0.80469 0.0
O105 O 0.40477 0.07815 0.78941 0.0
C106 C 0.3415 0.05034 0.68988 0.0
C107 C 0.3776 0.14964 0.68739 0.0
O108 O 0.39508 0.13504 0.67348 0.0
O109 O 0.37065 0.14244 0.7106 0.0
O110 O 0.37144 0.0618 0.05075 0.0
Cd111 Cd 0.3413 0.09805 0.07065 0.0
O112 O 0.38252 0.08998 0.02113 0.0
Cd113 Cd 0.40516 0.10123 0.98628 0.0
O114 O 0.41541 0.10186 0.94256 0.0
C115 C 0.41128 0.12363 0.93153 0.0
O116 O 0.40233 0.14642 0.94763 0.0
C117 C 0.38443 0.06634 0.02968 0.0
C118 C 0.36694 0.13606 0.12427 0.0
O119 O 0.3506 0.11182 0.12324 0.0
O120 O 0.37131 0.14217 0.09983 0.0
O121 O 0.48481 0.26316 0.38724 0.0
Cd122 Cd 0.47289 0.22464 0.4132 0.0
O123 O 0.4507 0.2402 0.35077 0.0
Cd124 Cd 0.42807 0.23131 0.30581 0.0
O125 O 0.40742 0.20792 0.26148 0.0
C126 C 0.41742 0.21274 0.23883 0.0
O127 O 0.44015 0.23309 0.24229 0.0
C128 C 0.47103 0.26157 0.36195 0.0
C129 C 0.42684 0.23276 0.44502 0.0
O130 O 0.45298 0.24374 0.45675 0.0
O131 O 0.4225 0.21831 0.41803 0.0
O132 O 0.53462 0.36899 0.31672 0.0
Cd133 Cd 0.55183 0.41225 0.29909 0.0
O134 O 0.49495 0.36323 0.28569 0.0
Cd135 Cd 0.45206 0.34779 0.25929 0.0
O136 O 0.41214 0.35673 0.23649 0.0
C137 C 0.415 0.37768 0.2235 0.0
O138 O 0.44124 0.39109 0.22376 0.0
C139 C 0.50945 0.35487 0.30609 0.0
C140 C 0.59086 0.40167 0.25915 0.0
O141 O 0.59955 0.40981 0.28693 0.0
O142 O 0.56356 0.39824 0.25028 0.0
O143 O 0.06181 0.43202 0.93484 0.0
Cd144 Cd 0.09155 0.39309 0.93706 0.0
O145 O 0.03661 0.41653 0.96618 0.0
Cd146 Cd 0.00314 0.41873 0.99469 0.0
O147 O 0.96483 0.4152 0.0163 0.0
C148 C 0.95436 0.38986 0.01896 0.0
O149 O 0.96724 0.36721 0.00892 0.0
C150 C 0.04097 0.43413 0.94963 0.0
C151 C 0.11923 0.3975 0.99394 0.0
O152 O 0.13165 0.40993 0.97609 0.0
O153 O 0.09365 0.38307 0.98483 0.0
O154 O 0.99245 0.69208 0.3969 0.0
Cd155 Cd 0.02657 0.72911 0.43408 0.0
O156 O 0.99758 0.7172 0.36323 0.0
Cd157 Cd 0.02117 0.75735 0.39371 0.0
O158 O 0.03451 0.80439 0.41385 0.0
C159 C 0.05158 0.81941 0.4018 0.0
O160 O 0.0618 0.80566 0.37866 0.0
C161 C 0.98717 0.69396 0.37034 0.0
C162 C 0.08163 0.71401 0.42912 0.0
O163 O 0.06619 0.70446 0.44666 0.0
O164 O 0.07137 0.73158 0.41471 0.0
O165 O 0.71854 0.75811 0.56105 0.0
Cd166 Cd 0.71882 0.80429 0.59716 0.0
O167 O 0.67313 0.75228 0.54026 0.0
Cd168 Cd 0.65957 0.78618 0.57349 0.0
O169 O 0.62635 0.79836 0.60075 0.0
C170 C 0.60098 0.78441 0.59069 0.0
O171 O 0.59693 0.76525 0.56507 0.0
C172 C 0.6979 0.74402 0.54113 0.0
C173 C 0.76726 0.8435 0.59346 0.0
O174 O 0.76892 0.82607 0.6108 0.0
O175 O 0.74249 0.84291 0.57854 0.0
O176 O 0.19694 0.4179 0.5706 0.0
Cd177 Cd 0.16669 0.45697 0.57516 0.0
O178 O 0.15844 0.38474 0.55216 0.0
Cd179 Cd 0.13502 0.33958 0.53774 0.0
O180 O 0.10959 0.29575 0.52009 0.0
C181 C 0.12067 0.27248 0.52068 0.0
O182 O 0.14783 0.27511 0.53261 0.0
C183 C 0.18568 0.39105 0.56018 0.0
C184 C 0.17095 0.48841 0.5317 0.0
O185 O 0.18844 0.49608 0.55601 0.0
O186 O 0.15146 0.46579 0.52799 0.0
O187 O 0.26494 0.92742 0.60573 0.0
Cd188 Cd 0.23785 0.87822 0.58443 0.0
O189 O 0.23343 0.94354 0.63395 0.0
Cd190 Cd 0.19754 0.90819 0.61284 0.0
O191 O 0.15164 0.89247 0.59562 0.0
C192 C 0.1335 0.90317 0.61128 0.0
O193 O 0.14339 0.92145 0.63694 0.0
C194 C 0.25817 0.94718 0.62582 0.0
C195 C 0.27316 0.83963 0.60202 0.0
O196 O 0.2752 0.84788 0.5781 0.0
O197 O 0.25352 0.84863 0.61691 0.0
O198 O 0.66475 0.43311 0.76275 0.0
Cd199 Cd 0.63361 0.42957 0.8003 0.0
O200 O 0.63451 0.40237 0.72664 0.0
Cd201 Cd 0.60704 0.38965 0.75739 0.0
O202 O 0.59018 0.37447 0.79364 0.0
C203 C 0.59578 0.34977 0.79774 0.0
O204 O 0.61053 0.3344 0.77955 0.0
C205 C 0.65806 0.42027 0.73558 0.0
C206 C 0.59148 0.46674 0.79939 0.0
O207 O 0.61625 0.4758 0.81549 0.0
O208 O 0.58669 0.44011 0.78382 0.0
O209 O 0.73509 0.42745 0.62901 0.0
Cd210 Cd 0.77435 0.43936 0.60194 0.0
O211 O 0.76353 0.45841 0.66567 0.0
Cd212 Cd 0.77887 0.48519 0.71039 0.0
O213 O 0.80376 0.50603 0.75367 0.0
C214 C 0.82946 0.51872 0.75491 0.0
O215 O 0.83943 0.51946 0.73016 0.0
C216 C 0.7399 0.44073 0.65609 0.0
C217 C 0.75884 0.46878 0.55865 0.0
O218 O 0.76052 0.44113 0.55176 0.0
O219 O 0.7643 0.48241 0.58587 0.0
O220 O 0.97807 0.54234 0.92191 0.0
Cd221 Cd 0.95002 0.58164 0.91577 0.0
O222 O 0.94948 0.53035 0.95219 0.0
Cd223 Cd 0.93586 0.50854 0.98593 0.0
O224 O 0.92083 0.50413 0.0271 0.0
C225 C 0.89881 0.51593 0.03362 0.0
O226 O 0.88566 0.52865 0.01473 0.0
C227 C 0.97097 0.52581 0.93872 0.0
C228 C 0.90907 0.56345 0.86495 0.0
O229 O 0.9347 0.57594 0.86434 0.0
O230 O 0.90281 0.55978 0.88974 0.0
O231 O 0.90838 0.57097 0.29142 0.0
Cd232 Cd 0.87352 0.53022 0.25984 0.0
O233 O 0.91291 0.59413 0.25615 0.0
Cd234 Cd 0.89185 0.55718 0.21995 0.0
O235 O 0.88954 0.53326 0.17413 0.0
C236 C 0.87526 0.54226 0.15414 0.0
O237 O 0.86057 0.56404 0.16203 0.0
C238 C 0.91828 0.59367 0.28309 0.0
C239 C 0.82072 0.53541 0.28046 0.0
O240 O 0.83806 0.51944 0.29 0.0
O241 O 0.82791 0.54795 0.26028 0.0
O242 O 0.7291 0.6215 0.46079 0.0
Cd243 Cd 0.72988 0.57162 0.43182 0.0
O244 O 0.69321 0.62977 0.43092 0.0
Cd245 Cd 0.69907 0.59206 0.39675 0.0
O246 O 0.72319 0.56586 0.3666 0.0
C247 C 0.72761 0.5735 0.34309 0.0
O248 O 0.71586 0.5958 0.33688 0.0
C249 C 0.71057 0.63779 0.45506 0.0
C250 C 0.73698 0.53508 0.47042 0.0
O251 O 0.7584 0.54467 0.45891 0.0
O252 O 0.71214 0.54205 0.46311 0.0
O253 O 0.46381 0.96385 0.98826 0.0
Cd254 Cd 0.50317 0.93844 0.97093 0.0
O255 O 0.4723 0.99179 0.95778 0.0
Cd256 Cd 0.47027 0.0318 0.94158 0.0
O257 O 0.48094 0.07473 0.93172 0.0
C258 C 0.49127 0.07658 0.90837 0.0
O259 O 0.49398 0.05212 0.88967 0.0
C260 C 0.45831 0.98552 0.97762 0.0
C261 C 0.48638 0.88277 0.93264 0.0
O262 O 0.49124 0.88582 0.96057 0.0
O263 O 0.48884 0.90621 0.9229 0.0
C264 C 0.24649 0.5222 0.26995 0.0
C265 C 0.23005 0.49386 0.25942 0.0
C266 C 0.24193 0.54127 0.29587 0.0
C267 C 0.22079 0.53278 0.31241 0.0
H268 H 0.26248 0.53015 0.25764 0.0
H269 H 0.25462 0.56314 0.30251 0.0
S270 S 0.17422 0.45957 0.29621 0.0
N271 N 0.19338 0.45734 0.26889 0.0
N272 N 0.18487 0.49303 0.31756 0.0
C273 C 0.20508 0.50399 0.30283 0.0
C274 C 0.20968 0.4846 0.27638 0.0
C275 C 0.98606 0.03733 0.50265 0.0
C276 C 0.9937 0.02854 0.47447 0.0
C277 C 0.97491 0.01637 0.51715 0.0
C278 C 0.97087 0.98586 0.5039 0.0
H279 H 0.98933 0.06053 0.51383 0.0
H280 H 0.96993 0.02415 0.53913 0.0
S281 S 0.98338 0.95203 0.42828 0.0
N282 N 0.99339 0.98782 0.4324 0.0
N283 N 0.97302 0.94831 0.45968 0.0
C284 C 0.97744 0.97696 0.47518 0.0
C285 C 0.98866 0.99833 0.46044 0.0
C286 C 0.43878 0.65802 0.7455 0.0
C287 C 0.46066 0.66487 0.77 0.0
C288 C 0.4345 0.67823 0.72815 0.0
C289 C 0.45218 0.706 0.73438 0.0
H290 H 0.42441 0.6371 0.74007 0.0
H291 H 0.41702 0.67199 0.70978 0.0
S292 S 0.51462 0.73309 0.79459 0.0
N293 N 0.50166 0.70013 0.79848 0.0
N294 N 0.49368 0.73839 0.76613 0.0
C295 C 0.47479 0.7127 0.75842 0.0
C296 C 0.479 0.69208 0.77617 0.0
C297 C 0.68008 0.32153 0.99679 0.0
C298 C 0.65439 0.31053 0.00571 0.0
C299 C 0.70464 0.33491 0.01749 0.0
C300 C 0.70451 0.33734 0.04779 0.0
H301 H 0.68111 0.32004 0.97368 0.0
H302 H 0.72386 0.34352 0.00967 0.0
S303 S 0.64388 0.30729 0.08162 0.0
N304 N 0.63075 0.30073 0.04633 0.0
N305 N 0.67752 0.32394 0.08502 0.0
C306 C 0.67924 0.32526 0.05679 0.0
C307 C 0.65401 0.31234 0.03578 0.0
C308 C 0.22535 0.36954 0.58353 0.0
C309 C 0.20402 0.36761 0.55941 0.0
C310 C 0.24271 0.34741 0.58396 0.0
C311 C 0.23967 0.32255 0.56012 0.0
H312 H 0.22829 0.38807 0.60252 0.0
H313 H 0.2585 0.34982 0.60335 0.0
S314 S 0.18894 0.30898 0.49014 0.0
N315 N 0.18227 0.3404 0.51006 0.0
N316 N 0.2146 0.29845 0.51077 0.0
C317 C 0.21887 0.32083 0.53541 0.0
C318 C 0.20112 0.34343 0.53508 0.0
C319 C 0.29323 0.0183 0.68092 0.0
C320 C 0.32047 0.02448 0.67223 0.0
C321 C 0.27317 0.99365 0.66549 0.0
C322 C 0.27946 0.97394 0.64069 0.0
H323 H 0.28727 0.03253 0.70004 0.0
H324 H 0.25272 0.98987 0.67342 0.0
S325 S 0.34733 0.98053 0.608 0.0
N326 N 0.35238 0.00917 0.63656 0.0
N327 N 0.31473 0.9628 0.60757 0.0
C328 C 0.30644 0.98006 0.63139 0.0
C329 C 0.3269 0.0053 0.64711 0.0
C330 C 0.42075 0.03231 0.03341 0.0
C331 C 0.40194 0.04467 0.01579 0.0
C332 C 0.43851 0.01264 0.02079 0.0
C333 C 0.43802 0.00471 0.99015 0.0
H334 H 0.42226 0.03843 0.05715 0.0
H335 H 0.45327 0.00419 0.03517 0.0
S336 S 0.38856 0.02651 0.93422 0.0
N337 N 0.38096 0.04441 0.96605 0.0
N338 N 0.41459 0.00772 0.94237 0.0
C339 C 0.41827 0.01576 0.97224 0.0
C340 C 0.40014 0.03569 0.98506 0.0
C341 C 0.50905 0.29167 0.34406 0.0
C342 C 0.47964 0.28371 0.34552 0.0
C343 C 0.51814 0.31399 0.33031 0.0
C344 C 0.49822 0.3296 0.31788 0.0
H345 H 0.5252 0.28061 0.35375 0.0
H346 H 0.54109 0.31936 0.3298 0.0
S347 S 0.41887 0.31889 0.31881 0.0
N348 N 0.43063 0.29355 0.33454 0.0
N349 N 0.44778 0.33672 0.31012 0.0
C350 C 0.46868 0.32199 0.31953 0.0
C351 C 0.45938 0.29874 0.33302 0.0
C352 C 0.0185 0.50785 0.94471 0.0
C353 C 0.98821 0.5024 0.94287 0.0
C354 C 0.03539 0.48566 0.9472 0.0
C355 C 0.02257 0.45721 0.9478 0.0
H356 H 0.02925 0.52946 0.94427 0.0
H357 H 0.05867 0.49083 0.94871 0.0
S358 S 0.94382 0.43052 0.93932 0.0
N359 N 0.94589 0.46587 0.9393 0.0
N360 N 0.97758 0.42396 0.94329 0.0
C361 C 0.99224 0.45124 0.9452 0.0
C362 C 0.97506 0.47392 0.94293 0.0
C363 C 0.95901 0.6427 0.35539 0.0
C364 C 0.96937 0.66894 0.34768 0.0
C365 C 0.94259 0.61859 0.33442 0.0
C366 C 0.9358 0.61962 0.30479 0.0
H367 H 0.96367 0.64062 0.37783 0.0
H368 H 0.93524 0.59896 0.3416 0.0
S369 S 0.95728 0.68336 0.27309 0.0
N370 N 0.9713 0.69458 0.30819 0.0
N371 N 0.94055 0.6494 0.2689 0.0
C372 C 0.94591 0.64579 0.29677 0.0
C373 C 0.96263 0.67037 0.31814 0.0
C374 C 0.68435 0.67991 0.47342 0.0
C375 C 0.70861 0.66548 0.47676 0.0
C376 C 0.68124 0.70532 0.49419 0.0
C377 C 0.70238 0.7176 0.51908 0.0
H378 H 0.66728 0.67128 0.45484 0.0
H379 H 0.66198 0.71535 0.49067 0.0
S380 S 0.77066 0.68895 0.53766 0.0
N381 N 0.75462 0.66583 0.50664 0.0
N382 N 0.74886 0.71363 0.54553 0.0
C383 C 0.72706 0.70372 0.52244 0.0
C384 C 0.73013 0.67768 0.50137 0.0
C385 C 0.72784 0.438 0.70588 0.0
C386 C 0.71854 0.43549 0.67583 0.0
C387 C 0.70807 0.43349 0.72502 0.0
C388 C 0.67822 0.42549 0.71477 0.0
H389 H 0.75063 0.44266 0.71466 0.0
H390 H 0.71636 0.43561 0.74796 0.0
S391 S 0.64256 0.41547 0.63795 0.0
N392 N 0.67734 0.42445 0.63668 0.0
N393 N 0.64023 0.41505 0.67253 0.0
C394 C 0.66859 0.42234 0.68468 0.0
C395 C 0.68872 0.42743 0.66524 0.0
C396 C 0.1238 0.71125 0.40149 0.0
C397 C 0.10943 0.70335 0.42378 0.0
C398 C 0.14801 0.69871 0.39327 0.0
C399 C 0.15895 0.67773 0.40701 0.0
H400 H 0.11575 0.72652 0.38948 0.0
H401 H 0.15761 0.70489 0.37532 0.0
S402 S 0.13128 0.65194 0.46904 0.0
N403 N 0.10945 0.67503 0.46123 0.0
N404 N 0.15495 0.65149 0.44583 0.0
C405 C 0.14576 0.6708 0.43044 0.0
C406 C 0.12103 0.68358 0.4388 0.0
C407 C 0.79011 0.88293 0.5717 0.0
C408 C 0.79322 0.86302 0.58978 0.0
C409 C 0.81418 0.90055 0.56639 0.0
C410 C 0.84251 0.89899 0.5788 0.0
H411 H 0.76888 0.8848 0.56123 0.0
H412 H 0.81044 0.91524 0.55204 0.0
S413 S 0.86261 0.85123 0.62873 0.0
N414 N 0.82699 0.84339 0.62089 0.0
N415 N 0.87222 0.87644 0.61082 0.0
C416 C 0.84598 0.87954 0.59736 0.0
C417 C 0.82138 0.86162 0.60288 0.0
C418 C 0.55355 0.53396 0.81855 0.0
C419 C 0.52632 0.52514 0.80071 0.0
C420 C 0.57446 0.51505 0.81776 0.0
C421 C 0.56906 0.48646 0.79911 0.0
H422 H 0.55878 0.5556 0.83355 0.0
H423 H 0.59494 0.52291 0.83214 0.0
S424 S 0.50155 0.45284 0.74716 0.0
N425 N 0.49535 0.48599 0.76321 0.0
N426 N 0.53458 0.45049 0.76174 0.0
C427 C 0.54206 0.47745 0.78082 0.0
C428 C 0.52074 0.49675 0.78161 0.0
C429 C 0.91151 0.40929 0.03857 0.0
C430 C 0.92773 0.38595 0.03261 0.0
C431 C 0.88613 0.40621 0.05116 0.0
C432 C 0.87591 0.37968 0.05839 0.0
H433 H 0.9183 0.43012 0.03328 0.0
H434 H 0.8745 0.42489 0.05527 0.0
S435 S 0.91044 0.31178 0.04739 0.0
N436 N 0.93176 0.33533 0.03505 0.0
N437 N 0.88411 0.32954 0.05864 0.0
C438 C 0.89194 0.35614 0.05261 0.0
C439 C 0.91779 0.35926 0.03972 0.0
C440 C 0.07664 0.89929 0.40164 0.0
C441 C 0.06416 0.91539 0.42453 0.0
C442 C 0.07336 0.8684 0.39526 0.0
C443 C 0.05732 0.8522 0.41142 0.0
H444 H 0.08856 0.91056 0.38799 0.0
H445 H 0.08284 0.85715 0.37691 0.0
S446 S 0.02188 0.88384 0.47506 0.0
N447 N 0.03645 0.91285 0.46459 0.0
N448 N 0.03021 0.8548 0.45259 0.0
C449 C 0.04567 0.86805 0.43518 0.0
C450 C 0.0491 0.8996 0.44174 0.0
C451 C 0.54932 0.77076 0.59642 0.0
C452 C 0.57658 0.788 0.6079 0.0
C453 C 0.52614 0.77215 0.61248 0.0
C454 C 0.52909 0.79087 0.64078 0.0
H455 H 0.54582 0.75564 0.57491 0.0
H456 H 0.5058 0.75806 0.60265 0.0
S457 S 0.59552 0.84178 0.68053 0.0
N458 N 0.60491 0.82528 0.64907 0.0
N459 N 0.56131 0.82793 0.67928 0.0
C460 C 0.55603 0.8088 0.65235 0.0
C461 C 0.57975 0.80736 0.63593 0.0
C462 C 0.58675 0.30053 0.85099 0.0
C463 C 0.57379 0.31722 0.87312 0.0
C464 C 0.59329 0.3111 0.82663 0.0
C465 C 0.58715 0.33885 0.82323 0.0
H466 H 0.59229 0.27915 0.85256 0.0
H467 H 0.60356 0.29739 0.81048 0.0
S468 S 0.55226 0.39097 0.87438 0.0
N469 N 0.55427 0.36272 0.88965 0.0
N470 N 0.56654 0.38259 0.84383 0.0
C471 C 0.57366 0.35562 0.8449 0.0
C472 C 0.56701 0.34482 0.86982 0.0
C473 C 0.13015 0.39382 0.07407 0.0
C474 C 0.15946 0.40594 0.08392 0.0
C475 C 0.11755 0.39084 0.04492 0.0
C476 C 0.13364 0.40005 0.02436 0.0
H477 H 0.11663 0.38672 0.08904 0.0
H478 H 0.09483 0.38163 0.03863 0.0
S479 S 0.21153 0.43231 0.03852 0.0
N480 N 0.20452 0.42648 0.07042 0.0
N481 N 0.18078 0.42103 0.01569 0.0
C482 C 0.1631 0.41181 0.03373 0.0
C483 C 0.17602 0.41468 0.06345 0.0
C484 C 0.36923 0.17726 0.6482 0.0
C485 C 0.36493 0.17321 0.67617 0.0
C486 C 0.35619 0.19812 0.63621 0.0
C487 C 0.3384 0.21595 0.65173 0.0
H488 H 0.38239 0.16387 0.63512 0.0
H489 H 0.35997 0.20006 0.61445 0.0
S490 S 0.32121 0.21503 0.72649 0.0
N491 N 0.34229 0.1895 0.71953 0.0
N492 N 0.3179 0.22872 0.69712 0.0
C493 C 0.33439 0.21257 0.68003 0.0
C494 C 0.3476 0.19122 0.6922 0.0
C495 C 0.4168 0.09048 0.85176 0.0
C496 C 0.40757 0.11165 0.83725 0.0
C497 C 0.41935 0.09522 0.88239 0.0
C498 C 0.41294 0.1214 0.89986 0.0
H499 H 0.42079 0.06939 0.83935 0.0
H500 H 0.42523 0.0776 0.89225 0.0
S501 S 0.39307 0.18609 0.87316 0.0
N502 N 0.39567 0.16141 0.84302 0.0
N503 N 0.4007 0.17044 0.90064 0.0
C504 C 0.40594 0.14374 0.88587 0.0
C505 C 0.4032 0.13884 0.85458 0.0
C506 C 0.37207 0.15049 0.17917 0.0
C507 C 0.38005 0.15636 0.15297 0.0
C508 C 0.38396 0.16906 0.20665 0.0
C509 C 0.40451 0.19426 0.20918 0.0
H510 H 0.35646 0.13134 0.17858 0.0
H511 H 0.37714 0.16332 0.22608 0.0
S512 S 0.43247 0.21996 0.14727 0.0
N513 N 0.40957 0.18957 0.13127 0.0
N514 N 0.432 0.22441 0.18292 0.0
C515 C 0.4126 0.20057 0.18315 0.0
C516 C 0.40035 0.18167 0.15508 0.0
C517 C 0.37426 0.22181 0.44909 0.0
C518 C 0.40241 0.23574 0.46224 0.0
C519 C 0.35096 0.22295 0.46505 0.0
C520 C 0.35474 0.23809 0.49487 0.0
H521 H 0.37014 0.20953 0.4263 0.0
H522 H 0.32985 0.21153 0.45388 0.0
S523 S 0.42386 0.27938 0.5395 0.0
N524 N 0.43257 0.266 0.5068 0.0
N525 N 0.38882 0.26815 0.53675 0.0
C526 C 0.38267 0.25262 0.50821 0.0
C527 C 0.40645 0.25145 0.49193 0.0
C528 C 0.60174 0.39151 0.20744 0.0
C529 C 0.61166 0.39694 0.2378 0.0
C530 C 0.62088 0.38772 0.18676 0.0
C531 C 0.65076 0.38902 0.19551 0.0
H532 H 0.57898 0.39039 0.19948 0.0
H533 H 0.61208 0.38368 0.16369 0.0
S534 S 0.6879 0.40237 0.2724 0.0
N535 N 0.65345 0.40321 0.27559 0.0
N536 N 0.68937 0.39601 0.23679 0.0
C537 C 0.66099 0.39422 0.22581 0.0
C538 C 0.64148 0.39821 0.2469 0.0
C539 C 0.07321 0.24068 0.49827 0.0
C540 C 0.10315 0.24295 0.50745 0.0
C541 C 0.05616 0.21336 0.4848 0.0
C542 C 0.0683 0.18707 0.47973 0.0
H543 H 0.06275 0.26022 0.50132 0.0
H544 H 0.03331 0.21301 0.47789 0.0
S545 S 0.14554 0.18062 0.50028 0.0
N546 N 0.14415 0.21627 0.51109 0.0
N547 N 0.11213 0.16495 0.48569 0.0
C548 C 0.09815 0.18889 0.48919 0.0
C549 C 0.11554 0.21677 0.50306 0.0
C550 C 0.05367 0.91051 0.60567 0.0
C551 C 0.04175 0.89287 0.57759 0.0
C552 C 0.08306 0.91281 0.61663 0.0
C553 C 0.10194 0.89769 0.59997 0.0
H554 H 0.04038 0.9233 0.61916 0.0
H555 H 0.09112 0.92727 0.63812 0.0
S556 S 0.08121 0.84664 0.52591 0.0
N557 N 0.05082 0.8584 0.534 0.0
N558 N 0.10612 0.86294 0.55449 0.0
C559 C 0.09012 0.87902 0.57227 0.0
C560 C 0.06005 0.87656 0.56113 0.0
C561 C 0.47985 0.82771 0.92385 0.0
C562 C 0.47936 0.85289 0.91237 0.0
C563 C 0.47502 0.79924 0.90538 0.0
C564 C 0.46936 0.79464 0.87458 0.0
H565 H 0.48444 0.8299 0.94736 0.0
H566 H 0.47597 0.7807 0.91545 0.0
S567 S 0.46467 0.8531 0.83323 0.0
N568 N 0.47199 0.87132 0.8681 0.0
N569 N 0.46285 0.81782 0.83339 0.0
C570 C 0.46823 0.81959 0.86274 0.0
C571 C 0.47325 0.84867 0.88161 0.0
C572 C 0.15086 0.49887 0.48414 0.0
C573 C 0.1729 0.5052 0.50857 0.0
C574 C 0.15191 0.51432 0.46197 0.0
C575 C 0.17516 0.53664 0.46313 0.0
H576 H 0.13248 0.48186 0.48209 0.0
H577 H 0.13438 0.50848 0.44364 0.0
S578 S 0.23849 0.56191 0.52241 0.0
N579 N 0.21873 0.53554 0.53266 0.0
N580 N 0.22078 0.56446 0.49092 0.0
C581 C 0.19739 0.54326 0.48743 0.0
C582 C 0.19624 0.5276 0.51015 0.0
C583 C 0.53874 0.13393 0.88245 0.0
C584 C 0.53624 0.1606 0.90198 0.0
C585 C 0.52291 0.10705 0.88363 0.0
C586 C 0.50402 0.10571 0.90447 0.0
H587 H 0.55399 0.13351 0.86692 0.0
H588 H 0.5266 0.08703 0.86894 0.0
S589 S 0.48582 0.1698 0.95716 0.0
N590 N 0.5104 0.18443 0.94017 0.0
N591 N 0.48109 0.13389 0.94269 0.0
C592 C 0.49978 0.13244 0.92273 0.0
C593 C 0.51575 0.15987 0.92141 0.0
C594 C 0.3367 0.38785 0.20414 0.0
C595 C 0.33907 0.41187 0.19078 0.0
C596 C 0.36124 0.37644 0.21389 0.0
C597 C 0.38921 0.38851 0.21065 0.0
H598 H 0.31577 0.37818 0.20781 0.0
H599 H 0.35823 0.35842 0.22467 0.0
S600 S 0.40704 0.44983 0.17455 0.0
N601 N 0.37153 0.44609 0.17303 0.0
N602 N 0.41758 0.42465 0.19121 0.0
C603 C 0.3918 0.41182 0.19629 0.0
C604 C 0.36679 0.42349 0.18642 0.0
C605 C 0.28871 0.80995 0.63744 0.0
C606 C 0.29368 0.82146 0.61304 0.0
C607 C 0.30853 0.79436 0.64965 0.0
C608 C 0.33435 0.78981 0.63816 0.0
H609 H 0.26944 0.8132 0.64747 0.0
H610 H 0.3037 0.78625 0.6686 0.0
S611 S 0.35736 0.81461 0.57376 0.0
N612 N 0.32608 0.82651 0.57726 0.0
N613 N 0.3634 0.79738 0.60032 0.0
C614 C 0.33943 0.80079 0.61346 0.0
C615 C 0.31909 0.81652 0.60086 0.0
C616 C 0.87712 0.5445 0.78402 0.0
C617 C 0.84857 0.53115 0.78356 0.0
C618 C 0.89625 0.55521 0.81043 0.0
C619 C 0.88773 0.55302 0.83758 0.0
H620 H 0.88501 0.54646 0.76377 0.0
H621 H 0.91807 0.56496 0.80941 0.0
S622 S 0.81488 0.52116 0.84878 0.0
N623 N 0.81236 0.51723 0.81287 0.0
N624 N 0.84834 0.53732 0.86249 0.0
C625 C 0.85905 0.54023 0.83757 0.0
C626 C 0.83949 0.52934 0.81061 0.0
C627 C 0.86527 0.54478 0.10155 0.0
C628 C 0.87852 0.53167 0.12271 0.0
C629 C 0.871 0.53849 0.07252 0.0
C630 C 0.89034 0.5189 0.06338 0.0
H631 H 0.85107 0.56089 0.10759 0.0
H632 H 0.86098 0.55004 0.05748 0.0
S633 S 0.92755 0.47538 0.10897 0.0
N634 N 0.90948 0.49562 0.13158 0.0
N635 N 0.92045 0.48406 0.07708 0.0
C636 C 0.90244 0.50427 0.08381 0.0
C637 C 0.89647 0.51056 0.11342 0.0
C638 C 0.77858 0.5628 0.28629 0.0
C639 C 0.79447 0.54142 0.29404 0.0
C640 C 0.75618 0.57202 0.30144 0.0
C641 C 0.74865 0.56027 0.325 0.0
H642 H 0.78414 0.5734 0.26908 0.0
H643 H 0.7454 0.5893 0.2952 0.0
S644 S 0.78096 0.50082 0.35156 0.0
N645 N 0.79921 0.50663 0.32504 0.0
N646 N 0.7571 0.52392 0.35348 0.0
C647 C 0.76321 0.53759 0.33187 0.0
C648 C 0.78609 0.5282 0.31642 0.0
C649 C 0.76411 0.4792 0.50976 0.0
C650 C 0.75175 0.48479 0.53579 0.0
C651 C 0.75925 0.49561 0.48861 0.0
C652 C 0.74108 0.51738 0.49238 0.0
H653 H 0.77831 0.46267 0.50612 0.0
H654 H 0.76968 0.49116 0.46914 0.0
S655 S 0.70268 0.53951 0.55616 0.0
N656 N 0.72044 0.51333 0.56407 0.0
N657 N 0.71025 0.54325 0.52372 0.0
C658 C 0.72797 0.52256 0.51793 0.0
C659 C 0.7336 0.50651 0.53982 0.0
loop_
_geom_bond_atom_site_label_1
_geom_bond_atom_site_label_2
_geom_bond_distance
_geom_bond_site_symmetry_2
_ccdc_geom_bond_type
O0 Cd1 2.300 . S
O0 C7 1.275 . S
Cd1 O0 2.300 . S
Cd1 O9 2.381 . S
Cd1 O10 2.378 . S
O2 Cd3 2.385 . S
O2 C7 1.255 . S
Cd3 O2 2.385 . S
Cd3 O4 2.317 . S
O4 Cd3 2.317 . S
O4 C5 1.232 . S
C5 O4 1.232 . S
C5 O6 1.218 . S
O6 C5 1.218 . S
C7 O0 1.275 . S
C7 O2 1.255 . S
C8 O9 1.258 . S
C8 O10 1.256 . S
O9 Cd1 2.381 . S
O9 C8 1.258 . S
O10 Cd1 2.378 . S
O10 C8 1.256 . S
O11 Cd12 2.300 . S
O11 C18 1.275 . S
Cd12 O11 2.300 . S
Cd12 O20 2.381 . S
Cd12 O21 2.378 . S
O13 Cd14 2.385 . S
O13 C18 1.255 1_655 S
Cd14 O13 2.385 . S
Cd14 O15 2.317 . S
O15 Cd14 2.317 . S
O15 C16 1.232 . S
C16 O15 1.232 . S
C16 O17 1.218 . S
O17 C16 1.218 . S
C18 O11 1.275 . S
C18 O13 1.255 1_455 S
C19 O20 1.258 . S
C19 O21 1.256 . S
O20 Cd12 2.381 . S
O20 C19 1.258 . S
O21 Cd12 2.378 . S
O21 C19 1.256 . S
O22 Cd23 2.300 . S
O22 C29 1.275 . S
Cd23 O22 2.300 . S
Cd23 O31 2.381 . S
Cd23 O32 2.378 . S
O24 Cd25 2.385 . S
O24 C29 1.255 . S
Cd25 O24 2.385 . S
Cd25 O26 2.317 . S
O26 Cd25 2.317 . S
O26 C27 1.232 . S
C27 O26 1.232 . S
C27 O28 1.218 . S
O28 C27 1.218 . S
C29 O22 1.275 . S
C29 O24 1.255 . S
C30 O31 1.258 . S
C30 O32 1.256 . S
O31 Cd23 2.381 . S
O31 C30 1.258 . S
O32 Cd23 2.378 . S
O32 C30 1.256 . S
O33 Cd34 2.300 . S
O33 C40 1.275 . S
Cd34 O33 2.300 . S
Cd34 O42 2.381 . S
Cd34 O43 2.378 . S
O35 Cd36 2.385 . S
O35 C40 1.255 . S
Cd36 O35 2.385 . S
Cd36 O37 2.317 . S
O37 Cd36 2.317 . S
O37 C38 1.232 . S
C38 O37 1.232 . S
C38 O39 1.218 . S
O39 C38 1.218 . S
C40 O33 1.275 . S
C40 O35 1.255 . S
C41 O42 1.258 . S
C41 O43 1.256 . S
O42 Cd34 2.381 . S
O42 C41 1.258 . S
O43 Cd34 2.378 . S
O43 C41 1.256 . S
O44 Cd45 2.300 1_655 S
O44 C51 1.275 1_545 S
Cd45 O44 2.300 1_455 S
Cd45 O53 2.381 . S
Cd45 O54 2.378 . S
O46 Cd47 2.385 . S
O46 C51 1.255 1_455 S
Cd47 O46 2.385 . S
Cd47 O48 2.317 . S
O48 Cd47 2.317 . S
O48 C49 1.232 . S
C49 O48 1.232 . S
C49 O50 1.218 . S
O50 C49 1.218 . S
C51 O44 1.275 1_565 S
C51 O46 1.255 1_655 S
C52 O53 1.258 . S
C52 O54 1.256 . S
O53 Cd45 2.381 . S
O53 C52 1.258 . S
O54 Cd45 2.378 . S
O54 C52 1.256 . S
O55 Cd56 2.300 . S
O55 C62 1.275 . S
Cd56 O55 2.300 . S
Cd56 O64 2.381 . S
Cd56 O65 2.378 . S
O57 Cd58 2.385 . S
O57 C62 1.255 . S
Cd58 O57 2.385 . S
Cd58 O59 2.317 . S
O59 Cd58 2.317 . S
O59 C60 1.232 . S
C60 O59 1.232 . S
C60 O61 1.218 . S
O61 C60 1.218 . S
C62 O55 1.275 . S
C62 O57 1.255 . S
C63 O64 1.258 . S
C63 O65 1.256 . S
O64 Cd56 2.381 . S
O64 C63 1.258 . S
O65 Cd56 2.378 . S
O65 C63 1.256 . S
O66 Cd67 2.300 . S
O66 C73 1.275 . S
Cd67 O66 2.300 . S
Cd67 O75 2.381 . S
Cd67 O76 2.378 . S
O68 Cd69 2.385 . S
O68 C73 1.255 . S
Cd69 O68 2.385 . S
Cd69 O70 2.317 . S
O70 Cd69 2.317 . S
O70 C71 1.232 . S
C71 O70 1.232 . S
C71 O72 1.218 . S
O72 C71 1.218 . S
C73 O66 1.275 . S
C73 O68 1.255 . S
C74 O75 1.258 . S
C74 O76 1.256 . S
O75 Cd67 2.381 . S
O75 C74 1.258 . S
O76 Cd67 2.378 . S
O76 C74 1.256 . S
O77 Cd78 2.300 . S
O77 C84 1.275 . S
Cd78 O77 2.300 . S
Cd78 O86 2.381 . S
Cd78 O87 2.378 . S
O79 Cd80 2.385 . S
O79 C84 1.255 . S
Cd80 O79 2.385 . S
Cd80 O81 2.317 . S
O81 Cd80 2.317 . S
O81 C82 1.232 . S
C82 O81 1.232 . S
C82 O83 1.218 . S
O83 C82 1.218 . S
C84 O77 1.275 . S
C84 O79 1.255 . S
C85 O86 1.258 . S
C85 O87 1.256 . S
O86 Cd78 2.381 . S
O86 C85 1.258 . S
O87 Cd78 2.378 . S
O87 C85 1.256 . S
O88 Cd89 2.300 . S
O88 C95 1.275 . S
Cd89 O88 2.300 . S
Cd89 O97 2.381 . S
Cd89 O98 2.378 . S
O90 Cd91 2.385 . S
O90 C95 1.255 . S
Cd91 O90 2.385 . S
Cd91 O92 2.317 . S
O92 Cd91 2.317 . S
O92 C93 1.232 . S
C93 O92 1.232 . S
C93 O94 1.218 . S
O94 C93 1.218 . S
C95 O88 1.275 . S
C95 O90 1.255 . S
C96 O97 1.258 . S
C96 O98 1.256 . S
O97 Cd89 2.381 . S
O97 C96 1.258 . S
O98 Cd89 2.378 . S
O98 C96 1.256 . S
O99 Cd100 2.300 . S
O99 C106 1.275 . S
Cd100 O99 2.300 . S
Cd100 O108 2.381 . S
Cd100 O109 2.378 . S
O101 Cd102 2.385 . S
O101 C106 1.255 . S
Cd102 O101 2.385 . S
Cd102 O103 2.317 . S
O103 Cd102 2.317 . S
O103 C104 1.232 . S
C104 O103 1.232 . S
C104 O105 1.218 . S
O105 C104 1.218 . S
C106 O99 1.275 . S
C106 O101 1.255 . S
C107 O108 1.258 . S
C107 O109 1.256 . S
O108 Cd100 2.381 . S
O108 C107 1.258 . S
O109 Cd100 2.378 . S
O109 C107 1.256 . S
O110 Cd111 2.300 . S
O110 C117 1.275 1_554 S
Cd111 O110 2.300 . S
Cd111 O119 2.381 . S
Cd111 O120 2.378 . S
O112 Cd113 2.385 . S
O112 C117 1.255 . S
Cd113 O112 2.385 . S
Cd113 O114 2.317 . S
O114 Cd113 2.317 . S
O114 C115 1.232 . S
C115 O114 1.232 . S
C115 O116 1.218 . S
O116 C115 1.218 . S
C117 O110 1.275 1_556 S
C117 O112 1.255 . S
C118 O119 1.258 . S
C118 O120 1.256 . S
O119 Cd111 2.381 . S
O119 C118 1.258 . S
O120 Cd111 2.378 . S
O120 C118 1.256 . S
O121 Cd122 2.300 . S
O121 C128 1.275 . S
Cd122 O121 2.300 . S
Cd122 O130 2.381 . S
Cd122 O131 2.378 . S
O123 Cd124 2.385 . S
O123 C128 1.255 . S
Cd124 O123 2.385 . S
Cd124 O125 2.317 . S
O125 Cd124 2.317 . S
O125 C126 1.232 . S
C126 O125 1.232 . S
C126 O127 1.218 . S
O127 C126 1.218 . S
C128 O121 1.275 . S
C128 O123 1.255 . S
C129 O130 1.258 . S
C129 O131 1.256 . S
O130 Cd122 2.381 . S
O130 C129 1.258 . S
O131 Cd122 2.378 . S
O131 C129 1.256 . S
O132 Cd133 2.300 . S
O132 C139 1.275 . S
Cd133 O132 2.300 . S
Cd133 O141 2.381 . S
Cd133 O142 2.378 . S
O134 Cd135 2.385 . S
O134 C139 1.255 . S
Cd135 O134 2.385 . S
Cd135 O136 2.317 . S
O136 Cd135 2.317 . S
O136 C137 1.232 . S
C137 O136 1.232 . S
C137 O138 1.218 . S
O138 C137 1.218 . S
C139 O132 1.275 . S
C139 O134 1.255 . S
C140 O141 1.258 . S
C140 O142 1.256 . S
O141 Cd133 2.381 . S
O141 C140 1.258 . S
O142 Cd133 2.378 . S
O142 C140 1.256 . S
O143 Cd144 2.300 . S
O143 C150 1.275 1_455 S
Cd144 O143 2.300 . S
Cd144 O152 2.381 . S
Cd144 O153 2.378 . S
O145 Cd146 2.385 . S
O145 C150 1.255 . S
Cd146 O145 2.385 . S
Cd146 O147 2.317 . S
O147 Cd146 2.317 . S
O147 C148 1.232 . S
C148 O147 1.232 . S
C148 O149 1.218 . S
O149 C148 1.218 . S
C150 O143 1.275 1_655 S
C150 O145 1.255 . S
C151 O152 1.258 . S
C151 O153 1.256 . S
O152 Cd144 2.381 . S
O152 C151 1.258 . S
O153 Cd144 2.378 . S
O153 C151 1.256 . S
O154 Cd155 2.300 . S
O154 C161 1.275 . S
Cd155 O154 2.300 . S
Cd155 O163 2.381 . S
Cd155 O164 2.378 . S
O156 Cd157 2.385 . S
O156 C161 1.255 . S
Cd157 O156 2.385 . S
Cd157 O158 2.317 . S
O158 Cd157 2.317 . S
O158 C159 1.232 . S
C159 O158 1.232 . S
C159 O160 1.218 . S
O160 C159 1.218 . S
C161 O154 1.275 . S
C161 O156 1.255 . S
C162 O163 1.258 . S
C162 O164 1.256 . S
O163 Cd155 2.381 . S
O163 C162 1.258 . S
O164 Cd155 2.378 . S
O164 C162 1.256 . S
O165 Cd166 2.300 . S
O165 C172 1.275 . S
Cd166 O165 2.300 . S
Cd166 O174 2.381 . S
Cd166 O175 2.378 . S
O167 Cd168 2.385 . S
O167 C172 1.255 . S
Cd168 O167 2.385 . S
Cd168 O169 2.317 . S
O169 Cd168 2.317 . S
O169 C170 1.232 . S
C170 O169 1.232 . S
C170 O171 1.218 . S
O171 C170 1.218 . S
C172 O165 1.275 . S
C172 O167 1.255 . S
C173 O174 1.258 . S
C173 O175 1.256 . S
O174 Cd166 2.381 . S
O174 C173 1.258 . S
O175 Cd166 2.378 . S
O175 C173 1.256 . S
O176 Cd177 2.300 . S
O176 C183 1.275 . S
Cd177 O176 2.300 . S
Cd177 O185 2.381 . S
Cd177 O186 2.378 . S
O178 Cd179 2.385 . S
O178 C183 1.255 . S
Cd179 O178 2.385 . S
Cd179 O180 2.317 . S
O180 Cd179 2.317 . S
O180 C181 1.232 . S
C181 O180 1.232 . S
C181 O182 1.218 . S
O182 C181 1.218 . S
C183 O176 1.275 . S
C183 O178 1.255 . S
C184 O185 1.258 . S
C184 O186 1.256 . S
O185 Cd177 2.381 . S
O185 C184 1.258 . S
O186 Cd177 2.378 . S
O186 C184 1.256 . S
O187 Cd188 2.300 . S
O187 C194 1.275 . S
Cd188 O187 2.300 . S
Cd188 O196 2.381 . S
Cd188 O197 2.378 . S
O189 Cd190 2.385 . S
O189 C194 1.255 . S
Cd190 O189 2.385 . S
Cd190 O191 2.317 . S
O191 Cd190 2.317 . S
O191 C192 1.232 . S
C192 O191 1.232 . S
C192 O193 1.218 . S
O193 C192 1.218 . S
C194 O187 1.275 . S
C194 O189 1.255 . S
C195 O196 1.258 . S
C195 O197 1.256 . S
O196 Cd188 2.381 . S
O196 C195 1.258 . S
O197 Cd188 2.378 . S
O197 C195 1.256 . S
O198 Cd199 2.300 . S
O198 C205 1.275 . S
Cd199 O198 2.300 . S
Cd199 O207 2.381 . S
Cd199 O208 2.378 . S
O200 Cd201 2.385 . S
O200 C205 1.255 . S
Cd201 O200 2.385 . S
Cd201 O202 2.317 . S
O202 Cd201 2.317 . S
O202 C203 1.232 . S
C203 O202 1.232 . S
C203 O204 1.218 . S
O204 C203 1.218 . S
C205 O198 1.275 . S
C205 O200 1.255 . S
C206 O207 1.258 . S
C206 O208 1.256 . S
O207 Cd199 2.381 . S
O207 C206 1.258 . S
O208 Cd199 2.378 . S
O208 C206 1.256 . S
O209 Cd210 2.300 . S
O209 C216 1.275 . S
Cd210 O209 2.300 . S
Cd210 O218 2.381 . S
Cd210 O219 2.378 . S
O211 Cd212 2.385 . S
O211 C216 1.255 . S
Cd212 O211 2.385 . S
Cd212 O213 2.317 . S
O213 Cd212 2.317 . S
O213 C214 1.232 . S
C214 O213 1.232 . S
C214 O215 1.218 . S
O215 C214 1.218 . S
C216 O209 1.275 . S
C216 O211 1.255 . S
C217 O218 1.258 . S
C217 O219 1.256 . S
O218 Cd210 2.381 . S
O218 C217 1.258 . S
O219 Cd210 2.378 . S
O219 C217 1.256 . S
O220 Cd221 2.300 . S
O220 C227 1.275 1_556 S
Cd221 O220 2.300 . S
Cd221 O229 2.381 . S
Cd221 O230 2.378 . S
O222 Cd223 2.385 . S
O222 C227 1.255 . S
Cd223 O222 2.385 . S
Cd223 O224 2.317 . S
O224 Cd223 2.317 . S
O224 C225 1.232 . S
C225 O224 1.232 . S
C225 O226 1.218 . S
O226 C225 1.218 . S
C227 O220 1.275 1_554 S
C227 O222 1.255 . S
C228 O229 1.258 . S
C228 O230 1.256 . S
O229 Cd221 2.381 . S
O229 C228 1.258 . S
O230 Cd221 2.378 . S
O230 C228 1.256 . S
O231 Cd232 2.300 . S
O231 C238 1.275 . S
Cd232 O231 2.300 . S
Cd232 O240 2.381 . S
Cd232 O241 2.378 . S
O233 Cd234 2.385 . S
O233 C238 1.255 . S
Cd234 O233 2.385 . S
Cd234 O235 2.317 . S
O235 Cd234 2.317 . S
O235 C236 1.232 . S
C236 O235 1.232 . S
C236 O237 1.218 . S
O237 C236 1.218 . S
C238 O231 1.275 . S
C238 O233 1.255 . S
C239 O240 1.258 . S
C239 O241 1.256 . S
O240 Cd232 2.381 . S
O240 C239 1.258 . S
O241 Cd232 2.378 . S
O241 C239 1.256 . S
O242 Cd243 2.300 . S
O242 C249 1.275 . S
Cd243 O242 2.300 . S
Cd243 O251 2.381 . S
Cd243 O252 2.378 . S
O244 Cd245 2.385 . S
O244 C249 1.255 . S
Cd245 O244 2.385 . S
Cd245 O246 2.317 . S
O246 Cd245 2.317 . S
O246 C247 1.232 . S
C247 O246 1.232 . S
C247 O248 1.218 . S
O248 C247 1.218 . S
C249 O242 1.275 . S
C249 O244 1.255 . S
C250 O251 1.258 . S
C250 O252 1.256 . S
O251 Cd243 2.381 . S
O251 C250 1.258 . S
O252 Cd243 2.378 . S
O252 C250 1.256 . S
O253 Cd254 2.300 . S
O253 C260 1.275 1_565 S
Cd254 O253 2.300 . S
Cd254 O262 2.381 . S
Cd254 O263 2.378 . S
O255 Cd256 2.385 . S
O255 C260 1.255 . S
Cd256 O255 2.385 . S
Cd256 O257 2.317 . S
O257 Cd256 2.317 . S
O257 C258 1.232 . S
C258 O257 1.232 . S
C258 O259 1.218 . S
O259 C258 1.218 . S
C260 O253 1.275 1_545 S
C260 O255 1.255 . S
C261 O262 1.258 . S
C261 O263 1.256 . S
O262 Cd254 2.381 . S
O262 C261 1.258 . S
O263 Cd254 2.378 . S
O263 C261 1.256 . S
C264 C265 1.369 . S
C264 C266 1.419 . S
C264 H268 0.930 . S
C265 C264 1.369 . S
C265 C274 1.429 . S
C266 C264 1.419 . S
C266 C267 1.363 . S
C266 H269 0.929 . S
C267 C266 1.363 . S
C267 C273 1.428 . S
H268 C264 0.930 . S
H269 C266 0.929 . S
S270 N271 1.613 . S
S270 N272 1.610 . S
N271 S270 1.613 . S
N271 C274 1.350 . S
N272 S270 1.610 . S
N272 C273 1.351 . S
C273 C267 1.428 . S
C273 N272 1.351 . S
C273 C274 1.434 . S
C274 C265 1.429 . S
C274 N271 1.350 . S
C274 C273 1.434 . S
C275 C276 1.369 . S
C275 C277 1.419 . S
C275 H279 0.930 . S
C276 C275 1.369 . S
C276 C285 1.429 1_655 S
C277 C275 1.419 . S
C277 C278 1.363 . S
C277 H280 0.929 . S
C278 C277 1.363 . S
C278 C284 1.428 1_655 S
H279 C275 0.930 . S
H280 C277 0.929 . S
S281 N282 1.613 . S
S281 N283 1.610 . S
N282 S281 1.613 . S
N282 C285 1.350 . S
N283 S281 1.610 . S
N283 C284 1.351 . S
C284 C278 1.428 1_455 S
C284 N283 1.351 . S
C284 C285 1.434 . S
C285 C276 1.429 1_455 S
C285 N282 1.350 . S
C285 C284 1.434 . S
C286 C287 1.369 . S
C286 C288 1.419 . S
C286 H290 0.930 . S
C287 C286 1.369 . S
C287 C296 1.429 . S
C288 C286 1.419 . S
C288 C289 1.363 . S
C288 H291 0.929 . S
C289 C288 1.363 . S
C289 C295 1.428 . S
H290 C286 0.930 . S
H291 C288 0.929 . S
S292 N293 1.613 . S
S292 N294 1.610 . S
N293 S292 1.613 . S
N293 C296 1.350 . S
N294 S292 1.610 . S
N294 C295 1.351 . S
C295 C289 1.428 . S
C295 N294 1.351 . S
C295 C296 1.434 . S
C296 C287 1.429 . S
C296 N293 1.350 . S
C296 C295 1.434 . S
C297 C298 1.369 . S
C297 C299 1.419 1_556 S
C297 H301 0.930 . S
C298 C297 1.369 . S
C298 C307 1.431 . S
C299 C297 1.419 1_554 S
C299 C300 1.363 . S
C299 H302 0.929 . S
C300 C299 1.363 . S
C300 C306 1.428 . S
H301 C297 0.930 . S
H302 C299 0.929 . S
S303 N304 1.613 1_554 S
S303 N305 1.610 . S
N304 S303 1.613 1_556 S
N304 C307 1.350 . S
N305 S303 1.610 . S
N305 C306 1.351 . S
C306 C300 1.428 . S
C306 N305 1.351 . S
C306 C307 1.431 1_554 S
C307 C298 1.431 . S
C307 N304 1.350 . S
C307 C306 1.431 1_556 S
C308 C309 1.369 . S
C308 C310 1.419 . S
C308 H312 0.930 . S
C309 C308 1.369 . S
C309 C318 1.429 . S
C310 C308 1.419 . S
C310 C311 1.363 . S
C310 H313 0.929 . S
C311 C310 1.363 . S
C311 C317 1.428 . S
H312 C308 0.930 . S
H313 C310 0.929 . S
S314 N315 1.613 . S
S314 N316 1.610 . S
N315 S314 1.613 . S
N315 C318 1.350 . S
N316 S314 1.610 . S
N316 C317 1.351 . S
C317 C311 1.428 . S
C317 N316 1.351 . S
C317 C318 1.434 . S
C318 C309 1.429 . S
C318 N315 1.350 . S
C318 C317 1.434 . S
C319 C320 1.369 . S
C319 C321 1.419 1_545 S
C319 H323 0.930 . S
C320 C319 1.369 . S
C320 C329 1.429 . S
C321 C319 1.419 1_565 S
C321 C322 1.363 . S
C321 H324 0.929 . S
C322 C321 1.363 . S
C322 C328 1.428 . S
H323 C319 0.930 . S
H324 C321 0.929 . S
S325 N326 1.618 . S
S325 N327 1.605 1_545 S
N326 S325 1.618 . S
N326 C329 1.350 . S
N327 S325 1.605 1_565 S
N327 C328 1.351 . S
C328 C322 1.428 . S
C328 N327 1.351 . S
C328 C329 1.434 1_565 S
C329 C320 1.429 . S
C329 N326 1.350 . S
C329 C328 1.434 1_545 S
C330 C331 1.369 . S
C330 C332 1.419 . S
C330 H334 0.930 1_556 S
C331 C330 1.369 . S
C331 C340 1.429 . S
C332 C330 1.419 . S
C332 C333 1.363 . S
C332 H335 0.929 1_556 S
C333 C332 1.363 . S
C333 C339 1.428 . S
H334 C330 0.930 1_554 S
H335 C332 0.929 1_554 S
S336 N337 1.613 1_565 S
S336 N338 1.610 1_565 S
N337 S336 1.613 1_545 S
N337 C340 1.350 . S
N338 S336 1.610 1_545 S
N338 C339 1.351 . S
C339 C333 1.428 . S
C339 N338 1.351 . S
C339 C340 1.434 . S
C340 C331 1.429 . S
C340 N337 1.350 . S
C340 C339 1.434 . S
C341 C342 1.369 . S
C341 C343 1.419 . S
C341 H345 0.930 . S
C342 C341 1.369 . S
C342 C351 1.429 . S
C343 C341 1.419 . S
C343 C344 1.363 . S
C343 H346 0.929 . S
C344 C343 1.363 . S
C344 C350 1.428 . S
H345 C341 0.930 . S
H346 C343 0.929 . S
S347 N348 1.613 . S
S347 N349 1.610 . S
N348 S347 1.613 . S
N348 C351 1.350 . S
N349 S347 1.610 . S
N349 C350 1.351 . S
C350 C344 1.428 . S
C350 N349 1.351 . S
C350 C351 1.434 . S
C351 C342 1.429 . S
C351 N348 1.350 . S
C351 C350 1.434 . S
C352 C353 1.369 . S
C352 C354 1.419 . S
C352 H356 0.930 . S
C353 C352 1.369 . S
C353 C362 1.429 . S
C354 C352 1.419 . S
C354 C355 1.363 . S
C354 H357 0.929 1_655 S
C355 C354 1.363 . S
C355 C361 1.428 . S
H356 C352 0.930 . S
H357 C354 0.929 1_455 S
S358 N359 1.613 . S
S358 N360 1.610 . S
N359 S358 1.613 . S
N359 C362 1.350 . S
N360 S358 1.610 . S
N360 C361 1.351 . S
C361 C355 1.428 . S
C361 N360 1.351 . S
C361 C362 1.434 . S
C362 C353 1.429 . S
C362 N359 1.350 . S
C362 C361 1.434 . S
C363 C364 1.369 . S
C363 C365 1.419 . S
C363 H367 0.930 . S
C364 C363 1.369 . S
C364 C373 1.429 . S
C365 C363 1.419 . S
C365 C366 1.363 . S
C365 H368 0.929 . S
C366 C365 1.363 . S
C366 C372 1.428 . S
H367 C363 0.930 . S
H368 C365 0.929 . S
S369 N370 1.613 . S
S369 N371 1.610 . S
N370 S369 1.613 . S
N370 C373 1.350 . S
N371 S369 1.610 . S
N371 C372 1.351 . S
C372 C366 1.428 . S
C372 N371 1.351 . S
C372 C373 1.434 . S
C373 C364 1.429 . S
C373 N370 1.350 . S
C373 C372 1.434 . S
C374 C375 1.369 . S
C374 C376 1.419 . S
C374 H378 0.930 . S
C375 C374 1.369 . S
C375 C384 1.429 . S
C376 C374 1.419 . S
C376 C377 1.363 . S
C376 H379 0.929 . S
C377 C376 1.363 . S
C377 C383 1.428 . S
H378 C374 0.930 . S
H379 C376 0.929 . S
S380 N381 1.613 . S
S380 N382 1.610 . S
N381 S380 1.613 . S
N381 C384 1.350 . S
N382 S380 1.610 . S
N382 C383 1.351 . S
C383 C377 1.428 . S
C383 N382 1.351 . S
C383 C384 1.434 . S
C384 C375 1.429 . S
C384 N381 1.350 . S
C384 C383 1.434 . S
C385 C386 1.369 . S
C385 C387 1.419 . S
C385 H389 0.930 . S
C386 C385 1.369 . S
C386 C395 1.429 . S
C387 C385 1.419 . S
C387 C388 1.363 . S
C387 H390 0.929 . S
C388 C387 1.363 . S
C388 C394 1.428 . S
H389 C385 0.930 . S
H390 C387 0.929 . S
S391 N392 1.613 . S
S391 N393 1.610 . S
N392 S391 1.613 . S
N392 C395 1.350 . S
N393 S391 1.610 . S
N393 C394 1.351 . S
C394 C388 1.428 . S
C394 N393 1.351 . S
C394 C395 1.434 . S
C395 C386 1.429 . S
C395 N392 1.350 . S
C395 C394 1.434 . S
C396 C397 1.369 . S
C396 C398 1.419 . S
C396 H400 0.930 . S
C397 C396 1.369 . S
C397 C406 1.429 . S
C398 C396 1.419 . S
C398 C399 1.363 . S
C398 H401 0.929 . S
C399 C398 1.363 . S
C399 C405 1.428 . S
H400 C396 0.930 . S
H401 C398 0.929 . S
S402 N403 1.613 . S
S402 N404 1.610 . S
N403 S402 1.613 . S
N403 C406 1.350 . S
N404 S402 1.610 . S
N404 C405 1.351 . S
C405 C399 1.428 . S
C405 N404 1.351 . S
C405 C406 1.434 . S
C406 C397 1.429 . S
C406 N403 1.350 . S
C406 C405 1.434 . S
C407 C408 1.369 . S
C407 C409 1.419 . S
C407 H411 0.930 . S
C408 C407 1.369 . S
C408 C417 1.429 . S
C409 C407 1.419 . S
C409 C410 1.363 . S
C409 H412 0.929 . S
C410 C409 1.363 . S
C410 C416 1.428 . S
H411 C407 0.930 . S
H412 C409 0.929 . S
S413 N414 1.613 . S
S413 N415 1.610 . S
N414 S413 1.613 . S
N414 C417 1.350 . S
N415 S413 1.610 . S
N415 C416 1.351 . S
C416 C410 1.428 . S
C416 N415 1.351 . S
C416 C417 1.434 . S
C417 C408 1.429 . S
C417 N414 1.350 . S
C417 C416 1.434 . S
C418 C419 1.369 . S
C418 C420 1.419 . S
C418 H422 0.930 . S
C419 C418 1.369 . S
C419 C428 1.429 . S
C420 C418 1.419 . S
C420 C421 1.363 . S
C420 H423 0.929 . S
C421 C420 1.363 . S
C421 C427 1.428 . S
H422 C418 0.930 . S
H423 C420 0.929 . S
S424 N425 1.613 . S
S424 N426 1.610 . S
N425 S424 1.613 . S
N425 C428 1.350 . S
N426 S424 1.610 . S
N426 C427 1.351 . S
C427 C421 1.428 . S
C427 N426 1.351 . S
C427 C428 1.434 . S
C428 C419 1.429 . S
C428 N425 1.350 . S
C428 C427 1.434 . S
C429 C430 1.369 . S
C429 C431 1.419 . S
C429 H433 0.930 . S
C430 C429 1.369 . S
C430 C439 1.429 . S
C431 C429 1.419 . S
C431 C432 1.363 . S
C431 H434 0.929 . S
C432 C431 1.363 . S
C432 C438 1.428 . S
H433 C429 0.930 . S
H434 C431 0.929 . S
S435 N436 1.613 . S
S435 N437 1.610 . S
N436 S435 1.613 . S
N436 C439 1.350 . S
N437 S435 1.610 . S
N437 C438 1.351 . S
C438 C432 1.428 . S
C438 N437 1.351 . S
C438 C439 1.434 . S
C439 C430 1.429 . S
C439 N436 1.350 . S
C439 C438 1.434 . S
C440 C441 1.369 . S
C440 C442 1.419 . S
C440 H444 0.930 1_455 S
C441 C440 1.369 . S
C441 C450 1.429 . S
C442 C440 1.419 . S
C442 C443 1.363 . S
C442 H445 0.929 . S
C443 C442 1.363 . S
C443 C449 1.428 . S
H444 C440 0.930 1_655 S
H445 C442 0.929 . S
S446 N447 1.613 . S
S446 N448 1.610 . S
N447 S446 1.613 . S
N447 C450 1.350 . S
N448 S446 1.610 . S
N448 C449 1.351 . S
C449 C443 1.428 . S
C449 N448 1.351 . S
C449 C450 1.434 . S
C450 C441 1.429 . S
C450 N447 1.350 . S
C450 C449 1.434 . S
C451 C452 1.369 . S
C451 C453 1.419 . S
C451 H455 0.930 . S
C452 C451 1.369 . S
C452 C461 1.429 . S
C453 C451 1.419 . S
C453 C454 1.363 . S
C453 H456 0.929 . S
C454 C453 1.363 . S
C454 C460 1.428 . S
H455 C451 0.930 . S
H456 C453 0.929 . S
S457 N458 1.613 . S
S457 N459 1.610 . S
N458 S457 1.613 . S
N458 C461 1.350 . S
N459 S457 1.610 . S
N459 C460 1.351 . S
C460 C454 1.428 . S
C460 N459 1.351 . S
C460 C461 1.434 . S
C461 C452 1.429 . S
C461 N458 1.350 . S
C461 C460 1.434 . S
C462 C463 1.369 . S
C462 C464 1.419 . S
C462 H466 0.930 . S
C463 C462 1.369 . S
C463 C472 1.429 . S
C464 C462 1.419 . S
C464 C465 1.363 . S
C464 H467 0.929 . S
C465 C464 1.363 . S
C465 C471 1.428 . S
H466 C462 0.930 . S
H467 C464 0.929 . S
S468 N469 1.613 . S
S468 N470 1.610 . S
N469 S468 1.613 . S
N469 C472 1.350 . S
N470 S468 1.610 . S
N470 C471 1.351 . S
C471 C465 1.428 . S
C471 N470 1.351 . S
C471 C472 1.434 . S
C472 C463 1.429 . S
C472 N469 1.350 . S
C472 C471 1.434 . S
C473 C474 1.369 . S
C473 C475 1.419 . S
C473 H477 0.930 . S
C474 C473 1.369 . S
C474 C483 1.429 . S
C475 C473 1.419 . S
C475 C476 1.363 . S
C475 H478 0.929 . S
C476 C475 1.363 . S
C476 C482 1.428 . S
H477 C473 0.930 . S
H478 C475 0.929 . S
S479 N480 1.613 . S
S479 N481 1.610 . S
N480 S479 1.613 . S
N480 C483 1.350 . S
N481 S479 1.610 . S
N481 C482 1.351 . S
C482 C476 1.428 . S
C482 N481 1.351 . S
C482 C483 1.434 . S
C483 C474 1.429 . S
C483 N480 1.350 . S
C483 C482 1.434 . S
C484 C485 1.369 . S
C484 C486 1.419 . S
C484 H488 0.930 . S
C485 C484 1.369 . S
C485 C494 1.429 . S
C486 C484 1.419 . S
C486 C487 1.363 . S
C486 H489 0.929 . S
C487 C486 1.363 . S
C487 C493 1.428 . S
H488 C484 0.930 . S
H489 C486 0.929 . S
S490 N491 1.613 . S
S490 N492 1.610 . S
N491 S490 1.613 . S
N491 C494 1.350 . S
N492 S490 1.610 . S
N492 C493 1.351 . S
C493 C487 1.428 . S
C493 N492 1.351 . S
C493 C494 1.434 . S
C494 C485 1.429 . S
C494 N491 1.350 . S
C494 C493 1.434 . S
C495 C496 1.369 . S
C495 C497 1.419 . S
C495 H499 0.930 . S
C496 C495 1.369 . S
C496 C505 1.429 . S
C497 C495 1.419 . S
C497 C498 1.363 . S
C497 H500 0.929 . S
C498 C497 1.363 . S
C498 C504 1.428 . S
H499 C495 0.930 . S
H500 C497 0.929 . S
S501 N502 1.613 . S
S501 N503 1.610 . S
N502 S501 1.613 . S
N502 C505 1.350 . S
N503 S501 1.610 . S
N503 C504 1.351 . S
C504 C498 1.428 . S
C504 N503 1.351 . S
C504 C505 1.434 . S
C505 C496 1.429 . S
C505 N502 1.350 . S
C505 C504 1.434 . S
C506 C507 1.369 . S
C506 C508 1.419 . S
C506 H510 0.930 . S
C507 C506 1.369 . S
C507 C516 1.429 . S
C508 C506 1.419 . S
C508 C509 1.363 . S
C508 H511 0.929 . S
C509 C508 1.363 . S
C509 C515 1.428 . S
H510 C506 0.930 . S
H511 C508 0.929 . S
S512 N513 1.613 . S
S512 N514 1.610 . S
N513 S512 1.613 . S
N513 C516 1.350 . S
N514 S512 1.610 . S
N514 C515 1.351 . S
C515 C509 1.428 . S
C515 N514 1.351 . S
C515 C516 1.434 . S
C516 C507 1.429 . S
C516 N513 1.350 . S
C516 C515 1.434 . S
C517 C518 1.369 . S
C517 C519 1.419 . S
C517 H521 0.930 . S
C518 C517 1.369 . S
C518 C527 1.429 . S
C519 C517 1.419 . S
C519 C520 1.363 . S
C519 H522 0.929 . S
C520 C519 1.363 . S
C520 C526 1.428 . S
H521 C517 0.930 . S
H522 C519 0.929 . S
S523 N524 1.613 . S
S523 N525 1.610 . S
N524 S523 1.613 . S
N524 C527 1.350 . S
N525 S523 1.610 . S
N525 C526 1.351 . S
C526 C520 1.428 . S
C526 N525 1.351 . S
C526 C527 1.434 . S
C527 C518 1.429 . S
C527 N524 1.350 . S
C527 C526 1.434 . S
C528 C529 1.369 . S
C528 C530 1.419 . S
C528 H532 0.930 . S
C529 C528 1.369 . S
C529 C538 1.429 . S
C530 C528 1.419 . S
C530 C531 1.363 . S
C530 H533 0.929 . S
C531 C530 1.363 . S
C531 C537 1.428 . S
H532 C528 0.930 . S
H533 C530 0.929 . S
S534 N535 1.613 . S
S534 N536 1.610 . S
N535 S534 1.613 . S
N535 C538 1.350 . S
N536 S534 1.610 . S
N536 C537 1.351 . S
C537 C531 1.428 . S
C537 N536 1.351 . S
C537 C538 1.434 . S
C538 C529 1.429 . S
C538 N535 1.350 . S
C538 C537 1.434 . S
C539 C540 1.369 . S
C539 C541 1.419 . S
C539 H543 0.930 . S
C540 C539 1.369 . S
C540 C549 1.429 . S
C541 C539 1.419 . S
C541 C542 1.363 . S
C541 H544 0.929 . S
C542 C541 1.363 . S
C542 C548 1.428 . S
H543 C539 0.930 . S
H544 C541 0.929 . S
S545 N546 1.613 . S
S545 N547 1.610 . S
N546 S545 1.613 . S
N546 C549 1.350 . S
N547 S545 1.610 . S
N547 C548 1.351 . S
C548 C542 1.428 . S
C548 N547 1.351 . S
C548 C549 1.434 . S
C549 C540 1.429 . S
C549 N546 1.350 . S
C549 C548 1.434 . S
C550 C551 1.369 . S
C550 C552 1.419 . S
C550 H554 0.930 . S
C551 C550 1.369 . S
C551 C560 1.429 . S
C552 C550 1.419 . S
C552 C553 1.363 . S
C552 H555 0.929 . S
C553 C552 1.363 . S
C553 C559 1.428 . S
H554 C550 0.930 . S
H555 C552 0.929 . S
S556 N557 1.613 . S
S556 N558 1.610 . S
N557 S556 1.613 . S
N557 C560 1.350 . S
N558 S556 1.610 . S
N558 C559 1.351 . S
C559 C553 1.428 . S
C559 N558 1.351 . S
C559 C560 1.434 . S
C560 C551 1.429 . S
C560 N557 1.350 . S
C560 C559 1.434 . S
C561 C562 1.369 . S
C561 C563 1.419 . S
C561 H565 0.930 . S
C562 C561 1.369 . S
C562 C571 1.429 . S
C563 C561 1.419 . S
C563 C564 1.363 . S
C563 H566 0.929 . S
C564 C563 1.363 . S
C564 C570 1.428 . S
H565 C561 0.930 . S
H566 C563 0.929 . S
S567 N568 1.613 . S
S567 N569 1.610 . S
N568 S567 1.613 . S
N568 C571 1.350 . S
N569 S567 1.610 . S
N569 C570 1.351 . S
C570 C564 1.428 . S
C570 N569 1.351 . S
C570 C571 1.434 . S
C571 C562 1.429 . S
C571 N568 1.350 . S
C571 C570 1.434 . S
C572 C573 1.369 . S
C572 C574 1.419 . S
C572 H576 0.930 . S
C573 C572 1.369 . S
C573 C582 1.429 . S
C574 C572 1.419 . S
C574 C575 1.363 . S
C574 H577 0.929 . S
C575 C574 1.363 . S
C575 C581 1.428 . S
H576 C572 0.930 . S
H577 C574 0.929 . S
S578 N579 1.613 . S
S578 N580 1.610 . S
N579 S578 1.613 . S
N579 C582 1.350 . S
N580 S578 1.610 . S
N580 C581 1.351 . S
C581 C575 1.428 . S
C581 N580 1.351 . S
C581 C582 1.434 . S
C582 C573 1.429 . S
C582 N579 1.350 . S
C582 C581 1.434 . S
C583 C584 1.369 . S
C583 C585 1.419 . S
C583 H587 0.930 . S
C584 C583 1.369 . S
C584 C593 1.429 . S
C585 C583 1.419 . S
C585 C586 1.363 . S
C585 H588 0.929 . S
C586 C585 1.363 . S
C586 C592 1.428 . S
H587 C583 0.930 . S
H588 C585 0.929 . S
S589 N590 1.613 . S
S589 N591 1.610 . S
N590 S589 1.613 . S
N590 C593 1.350 . S
N591 S589 1.610 . S
N591 C592 1.351 . S
C592 C586 1.428 . S
C592 N591 1.351 . S
C592 C593 1.434 . S
C593 C584 1.429 . S
C593 N590 1.350 . S
C593 C592 1.434 . S
C594 C595 1.369 . S
C594 C596 1.419 . S
C594 H598 0.930 . S
C595 C594 1.369 . S
C595 C604 1.429 . S
C596 C594 1.419 . S
C596 C597 1.363 . S
C596 H599 0.929 . S
C597 C596 1.363 . S
C597 C603 1.428 . S
H598 C594 0.930 . S
H599 C596 0.929 . S
S600 N601 1.613 . S
S600 N602 1.610 . S
N601 S600 1.613 . S
N601 C604 1.350 . S
N602 S600 1.610 . S
N602 C603 1.351 . S
C603 C597 1.428 . S
C603 N602 1.351 . S
C603 C604 1.434 . S
C604 C595 1.429 . S
C604 N601 1.350 . S
C604 C603 1.434 . S
C605 C606 1.369 . S
C605 C607 1.419 . S
C605 H609 0.930 . S
C606 C605 1.369 . S
C606 C615 1.429 . S
C607 C605 1.419 . S
C607 C608 1.363 . S
C607 H610 0.929 . S
C608 C607 1.363 . S
C608 C614 1.428 . S
H609 C605 0.930 . S
H610 C607 0.929 . S
S611 N612 1.613 . S
S611 N613 1.610 . S
N612 S611 1.613 . S
N612 C615 1.350 . S
N613 S611 1.610 . S
N613 C614 1.351 . S
C614 C608 1.428 . S
C614 N613 1.351 . S
C614 C615 1.434 . S
C615 C606 1.429 . S
C615 N612 1.350 . S
C615 C614 1.434 . S
C616 C617 1.369 . S
C616 C618 1.419 . S
C616 H620 0.930 . S
C617 C616 1.369 . S
C617 C626 1.429 . S
C618 C616 1.419 . S
C618 C619 1.363 . S
C618 H621 0.929 . S
C619 C618 1.363 . S
C619 C625 1.428 . S
H620 C616 0.930 . S
H621 C618 0.929 . S
S622 N623 1.613 . S
S622 N624 1.610 . S
N623 S622 1.613 . S
N623 C626 1.350 . S
N624 S622 1.610 . S
N624 C625 1.351 . S
C625 C619 1.428 . S
C625 N624 1.351 . S
C625 C626 1.434 . S
C626 C617 1.429 . S
C626 N623 1.350 . S
C626 C625 1.434 . S
C627 C628 1.369 . S
C627 C629 1.419 . S
C627 H631 0.930 . S
C628 C627 1.369 . S
C628 C637 1.429 . S
C629 C627 1.419 . S
C629 C630 1.363 . S
C629 H632 0.929 . S
C630 C629 1.363 . S
C630 C636 1.428 . S
H631 C627 0.930 . S
H632 C629 0.929 . S
S633 N634 1.613 . S
S633 N635 1.610 . S
N634 S633 1.613 . S
N634 C637 1.350 . S
N635 S633 1.610 . S
N635 C636 1.351 . S
C636 C630 1.428 . S
C636 N635 1.351 . S
C636 C637 1.434 . S
C637 C628 1.429 . S
C637 N634 1.350 . S
C637 C636 1.434 . S
C638 C639 1.369 . S
C638 C640 1.419 . S
C638 H642 0.930 . S
C639 C638 1.369 . S
C639 C648 1.429 . S
C640 C638 1.419 . S
C640 C641 1.363 . S
C640 H643 0.929 . S
C641 C640 1.363 . S
C641 C647 1.428 . S
H642 C638 0.930 . S
H643 C640 0.929 . S
S644 N645 1.613 . S
S644 N646 1.610 . S
N645 S644 1.613 . S
N645 C648 1.350 . S
N646 S644 1.610 . S
N646 C647 1.351 . S
C647 C641 1.428 . S
C647 N646 1.351 . S
C647 C648 1.434 . S
C648 C639 1.429 . S
C648 N645 1.350 . S
C648 C647 1.434 . S
C649 C650 1.369 . S
C649 C651 1.419 . S
C649 H653 0.930 . S
C650 C649 1.369 . S
C650 C659 1.429 . S
C651 C649 1.419 . S
C651 C652 1.363 . S
C651 H654 0.929 . S
C652 C651 1.363 . S
C652 C658 1.428 . S
H653 C649 0.930 . S
H654 C651 0.929 . S
S655 N656 1.613 . S
S655 N657 1.610 . S
N656 S655 1.613 . S
N656 C659 1.350 . S
N657 S655 1.610 . S
N657 C658 1.351 . S
C658 C652 1.428 . S
C658 N657 1.351 . S
C658 C659 1.434 . S
C659 C650 1.429 . S
C659 N656 1.350 . S
C659 C658 1.434 . S
C265 C84 1.517 . S
C267 C7 1.623 . S
C276 C51 1.332 . S
C278 C18 1.491 1_655 S
C287 C29 1.325 . S
C289 C62 1.464 . S
C298 C73 1.493 . S
C300 C40 1.365 . S
C309 C183 1.375 . S
C311 C95 1.519 . S
C320 C106 1.423 . S
C322 C194 1.425 . S
C331 C117 1.283 . S
C333 C260 1.272 . S
C342 C128 1.366 . S
C344 C139 1.352 . S
C353 C227 1.383 . S
C355 C150 1.390 . S
C364 C161 1.584 1_655 S
C366 C238 1.591 . S
C375 C249 1.538 . S
C377 C172 1.535 . S
C386 C216 1.418 . S
C388 C205 1.570 . S
C397 C162 1.756 . S
C399 C5 1.581 . S
C408 C173 1.683 . S
C410 C16 1.504 . S
C419 C30 1.505 . S
C421 C206 1.561 . S
C430 C148 1.251 . S
C432 C41 1.527 . S
C441 C49 1.314 . S
C443 C159 1.624 . S
C452 C170 1.485 . S
C454 C63 1.673 . S
C463 C74 1.482 . S
C465 C203 1.304 . S
C474 C82 1.320 . S
C476 C151 1.683 . S
C485 C107 1.541 . S
C487 C93 1.372 . S
C496 C104 1.265 . S
C498 C115 1.128 . S
C507 C118 1.548 . S
C509 C126 1.257 . S
C518 C129 1.506 . S
C520 C96 1.542 . S
C529 C140 1.673 . S
C531 C38 1.333 . S
C540 C181 1.455 . S
C542 C52 1.836 . S
C551 C19 1.535 . S
C553 C192 1.322 . S
C562 C261 1.617 . S
C564 C27 1.249 . S
C573 C184 1.708 . S
C575 C8 1.823 . S
C584 C71 1.308 . S
C586 C258 1.119 . S
C595 C85 1.714 . S
C597 C137 1.413 . S
C606 C195 1.660 . S
C608 C60 1.473 . S
C617 C214 1.419 . S
C619 C228 1.848 . S
C628 C236 1.505 . S
C630 C225 1.279 . S
C639 C239 1.747 . S
C641 C247 1.540 . S
C650 C217 1.780 . S
C652 C250 1.881 . S
