# Generated by pormake.
# Topology usf, (4)-cn, num edge types: 1
# Building blocks:
#     Node 0, Type 0, BuildingBlock: ESEHIV_clean_sbu_0, # of connection points: 4
#     Node 1, Type 0, BuildingBlock: ESEHIV_clean_sbu_0, # of connection points: 4
#     Node 2, Type 0, BuildingBlock: ESEHIV_clean_sbu_0, # of connection points: 4
#     Node 3, Type 0, BuildingBlock: ESEHIV_clean_sbu_0, # of connection points: 4
#     Node 4, Type 0, BuildingBlock: ESEHIV_clean_sbu_0, # of connection points: 4
#     Node 5, Type 0, BuildingBlock: ESEHIV_clean_sbu_0, # of connection points: 4
#     Node 6, Type 0, BuildingBlock: ESEHIV_clean_sbu_0, # of connection points: 4
#     Node 7, Type 0, BuildingBlock: ESEHIV_clean_sbu_0, # of connection points: 4
#     Node 8, Type 0, BuildingBlock: ESEHIV_clean_sbu_0, # of connection points: 4
#     Node 9, Type 0, BuildingBlock: ESEHIV_clean_sbu_0, # of connection points: 4
#     Node 10, Type 0, BuildingBlock: ESEHIV_clean_sbu_0, # of connection points: 4
#     Node 11, Type 0, BuildingBlock: ESEHIV_clean_sbu_0, # of connection points: 4
#     Node 12, Type 0, BuildingBlock: ESEHIV_clean_sbu_0, # of connection points: 4
#     Node 13, Type 0, BuildingBlock: ESEHIV_clean_sbu_0, # of connection points: 4
#     Node 14, Type 0, BuildingBlock: ESEHIV_clean_sbu_0, # of connection points: 4
#     Node 15, Type 0, BuildingBlock: ESEHIV_clean_sbu_0, # of connection points: 4
#     Node 16, Type 0, BuildingBlock: ESEHIV_clean_sbu_0, # of connection points: 4
#     Node 17, Type 0, BuildingBlock: ESEHIV_clean_sbu_0, # of connection points: 4
#     Edge 18, Type (0, 0), BuildingBlock: OJICUG_clean_linker_0, # of connection points: 2
#     Edge 19, Type (0, 0), BuildingBlock: OJICUG_clean_linker_0, # of connection points: 2
#     Edge 20, Type (0, 0), BuildingBlock: OJICUG_clean_linker_0, # of connection points: 2
#     Edge 21, Type (0, 0), BuildingBlock: OJICUG_clean_linker_0, # of connection points: 2
#     Edge 22, Type (0, 0), BuildingBlock: OJICUG_clean_linker_0, # of connection points: 2
#     Edge 23, Type (0, 0), BuildingBlock: OJICUG_clean_linker_0, # of connection points: 2
#     Edge 24, Type (0, 0), BuildingBlock: OJICUG_clean_linker_0, # of connection points: 2
#     Edge 25, Type (0, 0), BuildingBlock: OJICUG_clean_linker_0, # of connection points: 2
#     Edge 26, Type (0, 0), BuildingBlock: OJICUG_clean_linker_0, # of connection points: 2
#     Edge 27, Type (0, 0), BuildingBlock: OJICUG_clean_linker_0, # of connection points: 2
#     Edge 28, Type (0, 0), BuildingBlock: OJICUG_clean_linker_0, # of connection points: 2
#     Edge 29, Type (0, 0), BuildingBlock: OJICUG_clean_linker_0, # of connection points: 2
#     Edge 30, Type (0, 0), BuildingBlock: OJICUG_clean_linker_0, # of connection points: 2
#     Edge 31, Type (0, 0), BuildingBlock: OJICUG_clean_linker_0, # of connection points: 2
#     Edge 32, Type (0, 0), BuildingBlock: OJICUG_clean_linker_0, # of connection points: 2
#     Edge 33, Type (0, 0), BuildingBlock: OJICUG_clean_linker_0, # of connection points: 2
#     Edge 34, Type (0, 0), BuildingBlock: OJICUG_clean_linker_0, # of connection points: 2
#     Edge 35, Type (0, 0), BuildingBlock: OJICUG_clean_linker_0, # of connection points: 2
#     Edge 36, Type (0, 0), BuildingBlock: OJICUG_clean_linker_0, # of connection points: 2
#     Edge 37, Type (0, 0), BuildingBlock: OJICUG_clean_linker_0, # of connection points: 2
#     Edge 38, Type (0, 0), BuildingBlock: OJICUG_clean_linker_0, # of connection points: 2
#     Edge 39, Type (0, 0), BuildingBlock: OJICUG_clean_linker_0, # of connection points: 2
#     Edge 40, Type (0, 0), BuildingBlock: OJICUG_clean_linker_0, # of connection points: 2
#     Edge 41, Type (0, 0), BuildingBlock: OJICUG_clean_linker_0, # of connection points: 2
#     Edge 42, Type (0, 0), BuildingBlock: OJICUG_clean_linker_0, # of connection points: 2
#     Edge 43, Type (0, 0), BuildingBlock: OJICUG_clean_linker_0, # of connection points: 2
#     Edge 44, Type (0, 0), BuildingBlock: OJICUG_clean_linker_0, # of connection points: 2
#     Edge 45, Type (0, 0), BuildingBlock: OJICUG_clean_linker_0, # of connection points: 2
#     Edge 46, Type (0, 0), BuildingBlock: OJICUG_clean_linker_0, # of connection points: 2
#     Edge 47, Type (0, 0), BuildingBlock: OJICUG_clean_linker_0, # of connection points: 2
#     Edge 48, Type (0, 0), BuildingBlock: OJICUG_clean_linker_0, # of connection points: 2
#     Edge 49, Type (0, 0), BuildingBlock: OJICUG_clean_linker_0, # of connection points: 2
#     Edge 50, Type (0, 0), BuildingBlock: OJICUG_clean_linker_0, # of connection points: 2
#     Edge 51, Type (0, 0), BuildingBlock: OJICUG_clean_linker_0, # of connection points: 2
#     Edge 52, Type (0, 0), BuildingBlock: OJICUG_clean_linker_0, # of connection points: 2
#     Edge 53, Type (0, 0), BuildingBlock: OJICUG_clean_linker_0, # of connection points: 2
# Relax obj value: 0.033
# Max RMSD: 0.181
# Mean RMSD: 0.123
data_MOF--net-usf--node1-ESEHIV_clean_sbu_0--edge1-OJICUG_clean_linker_0
_symmetry_space_group_name_H-M    P1
_symmetry_Int_Tables_number       1
_symmetry_cell_setting            triclinic
loop_
_symmetry_equiv_pos_as_xyz
'x, y, z'
_cell_length_a     32.987755
_cell_length_b     35.974441
_cell_length_c     25.167397
_cell_angle_alpha  90.39267
_cell_angle_beta   90.426107
_cell_angle_gamma 117.00572
loop_
_atom_site_label
_atom_site_type_symbol
_atom_site_fract_x
_atom_site_fract_y
_atom_site_fract_z
_atom_type_partial_charge
Cu0 Cu 0.98497 0.52543 1.01807 0.0
N1 N 1.006 0.5686 0.96989 0.0
N2 N 1.01852 0.60133 0.89252 0.0
C3 C 0.99836 0.56433 0.91727 0.0
C4 C 0.03955 0.63004 0.93125 0.0
C5 C 0.03157 0.60966 0.97916 0.0
O6 O 0.99351 0.47899 0.98723 0.0
C7 C 0.90284 0.49943 0.07885 0.0
O8 O 0.91864 0.47838 0.10755 0.0
H9 H 0.97953 0.53443 0.8975 0.0
H10 H 0.04377 0.62365 1.01792 0.0
N11 N 1.02026 0.54386 0.07966 0.0
N12 N 0.03727 0.56214 0.16489 0.0
C13 C 1.00852 0.5573 0.12412 0.0
C14 C 0.05868 0.54138 0.09203 0.0
C15 C 0.06933 0.55272 0.14456 0.0
C16 C 0.03171 0.48723 0.96563 0.0
O17 O 0.06277 0.52633 0.96313 0.0
H18 H 0.9778 0.5608 0.12735 0.0
H19 H 0.07646 0.53008 0.06572 0.0
O20 O 0.92309 0.51605 0.03591 0.0
H21 H 0.05925 0.66327 0.9254 0.0
H22 H 0.09747 0.55231 0.16642 0.0
Cu23 Cu 0.53157 0.5204 1.02443 0.0
N24 N 0.48382 0.46627 0.03397 0.0
N25 N 0.45324 0.40096 0.06524 0.0
C26 C 0.49113 0.43338 0.04702 0.0
C27 C 0.4206 0.41373 0.06307 0.0
C28 C 0.43948 0.45393 0.04369 0.0
O29 O 0.56369 0.53104 0.09694 0.0
C30 C 0.52975 0.50501 0.91171 0.0
O31 O 0.4863 0.48479 0.92287 0.0
H32 H 0.5245 0.43454 0.04739 0.0
H33 H 0.42289 0.47377 0.04105 0.0
N34 N 0.51442 0.56331 1.01631 0.0
N35 N 0.52975 0.62876 0.99341 0.0
C36 C 0.54577 0.60374 1.01556 0.0
C37 C 0.47688 0.5625 0.99376 0.0
C38 C 0.48613 0.60278 0.97994 0.0
C39 C 0.53775 0.52464 0.13786 0.0
O40 O 0.49481 0.51483 0.1289 0.0
H41 H 0.5811 0.61379 0.02614 0.0
H42 H 0.44636 0.53441 0.98364 0.0
O43 O 0.55813 0.52129 0.95105 0.0
H44 H 0.38605 0.39595 0.07666 0.0
H45 H 0.46324 0.61173 0.9589 0.0
Cu46 Cu 0.55624 0.01764 0.03001 0.0
N47 N 0.57807 0.05155 0.97053 0.0
N48 N 0.59153 0.06849 0.8851 0.0
C49 C 0.57988 0.03789 0.92114 0.0
C50 C 0.59754 0.10286 0.91284 0.0
C51 C 0.58952 0.09237 0.96574 0.0
O52 O 0.50107 0.96655 1.00892 0.0
C53 C 0.64651 0.02486 0.04711 0.0
O54 O 0.65337 0.03408 0.99652 0.0
H55 H 0.57018 1.00555 0.91143 0.0
H56 H 0.59025 0.11264 0.99804 0.0
N57 N 0.53801 0.04365 0.082 0.0
N58 N 0.52564 0.05864 0.16465 0.0
C59 C 0.5418 0.03765 0.13398 0.0
C60 C 0.51864 0.06944 0.07922 0.0
C61 C 0.51118 0.079 0.13047 0.0
C62 C 0.47276 0.97171 0.97855 0.0
O63 O 0.48274 1.00961 0.96288 0.0
H64 H 0.5565 0.01827 0.14893 0.0
H65 H 0.51016 0.08017 0.04273 0.0
O66 O 0.60647 1.01189 0.0656 0.0
H67 H 0.60602 0.13306 0.89592 0.0
H68 H 0.49553 0.09859 0.14161 0.0
Cu69 Cu 0.4954 0.9967 0.52998 0.0
N70 N 0.51851 0.03392 0.47439 0.0
N71 N 0.52848 0.05762 0.39137 0.0
C72 C 0.51038 0.02371 0.42262 0.0
C73 C 0.54872 0.09052 0.42501 0.0
C74 C 0.54245 0.07574 0.47635 0.0
O75 O 0.48944 0.94351 0.50052 0.0
C76 C 0.41934 0.9949 0.5942 0.0
O77 O 0.42814 0.97403 0.63135 0.0
H78 H 0.49037 0.99202 0.40839 0.0
H79 H 0.55384 0.09415 0.51255 0.0
N80 N 0.53938 1.01442 0.58421 0.0
N81 N 0.57512 0.03563 0.66254 0.0
C82 C 0.53819 0.0295 0.633 0.0
C83 C 0.57877 1.0118 0.58255 0.0
C84 C 0.60076 0.02456 0.63093 0.0
C85 C 0.49647 0.91678 0.52697 0.0
O86 O 0.49869 0.91979 0.57907 0.0
H87 H 0.51018 0.03444 0.64733 0.0
H88 H 0.58999 1.00014 0.5489 0.0
O89 O 0.44087 1.00226 0.55047 0.0
H90 H 0.56693 0.12285 0.41343 0.0
H91 H 0.63269 0.02501 0.64229 0.0
Cu92 Cu 0.04752 0.5758 0.52904 0.0
N93 N 0.03634 0.60279 0.58546 0.0
N94 N 0.02884 0.61993 0.66852 0.0
C95 C 0.02133 0.58841 0.63426 0.0
C96 C 0.04909 0.65518 0.64016 0.0
C97 C 0.05342 0.6445 0.5889 0.0
O98 O 0.02483 0.51583 0.54543 0.0
C99 C 0.12853 0.61997 0.46648 0.0
O100 O 0.10931 0.59095 0.4298 0.0
H101 H 1.00908 0.55616 0.64559 0.0
H102 H 0.07124 0.6658 0.55733 0.0
N103 N 1.01472 0.5794 0.47074 0.0
N104 N 1.00238 0.5784 0.38337 0.0
C105 C 1.01153 0.55944 0.42454 0.0
C106 C 1.00487 0.61089 0.45921 0.0
C107 C 0.99704 0.61025 0.40528 0.0
C108 C 0.0356 0.49927 0.58432 0.0
O109 O 0.06983 0.52298 0.61563 0.0
H110 H 1.02087 0.53436 0.42078 0.0
H111 H 1.00814 0.63529 0.48677 0.0
O112 O 0.11183 0.61336 0.51311 0.0
H113 H 0.06271 0.68645 0.65601 0.0
H114 H 0.9929 0.63415 0.38346 0.0
Cu115 Cu 0.54922 0.49367 0.52423 0.0
N116 N 0.56158 0.52427 0.45778 0.0
N117 N 0.56804 0.53709 0.36849 0.0
C118 C 0.55205 0.50768 0.40741 0.0
C119 C 0.58796 0.57357 0.39588 0.0
C120 C 0.58402 0.56573 0.45 0.0
O121 O 0.48869 0.44525 0.51209 0.0
C122 C 0.6407 0.50543 0.52643 0.0
O123 O 0.64617 0.52826 0.48411 0.0
H124 H 0.53449 0.47444 0.39949 0.0
H125 H 0.59753 0.5889 0.48143 0.0
N126 N 0.54811 0.52048 0.59109 0.0
N127 N 0.55267 0.53017 0.68138 0.0
C128 C 0.54097 0.50225 0.63999 0.0
C129 C 0.56497 0.56149 0.60239 0.0
C130 C 0.56757 0.56744 0.65715 0.0
C131 C 0.45536 0.45426 0.51131 0.0
O132 O 0.46413 0.493 0.52214 0.0
H133 H 0.52984 0.4692 0.64506 0.0
H134 H 0.57678 0.58583 0.57305 0.0
O135 O 0.60027 0.48158 0.54175 0.0
H136 H 0.60383 0.60409 0.37814 0.0
H137 H 0.58026 0.59729 0.67746 0.0
Cu138 Cu 0.65988 0.82656 0.37486 0.0
N139 N 0.69168 0.86637 0.32456 0.0
N140 N 0.71963 0.89404 0.24612 0.0
C141 C 0.69129 0.85938 0.27211 0.0
C142 C 0.73872 0.92404 0.28381 0.0
C143 C 0.72125 0.90681 0.33234 0.0
O144 O 0.64756 0.77274 0.3416 0.0
C145 C 0.58027 0.82065 0.43337 0.0
O146 O 0.57946 0.78817 0.45779 0.0
H147 H 0.67142 0.82911 0.25363 0.0
H148 H 0.72985 0.92244 0.37066 0.0
N149 N 0.70039 0.83623 0.43123 0.0
N150 N 0.72888 0.84103 0.51315 0.0
C151 C 0.69156 0.83331 0.48341 0.0
C152 C 0.74479 0.84614 0.42751 0.0
C153 C 0.76253 0.84918 0.478 0.0
C154 C 0.65369 0.74479 0.36634 0.0
O155 O 0.65802 0.74752 0.41833 0.0
H156 H 0.65822 0.82488 0.49907 0.0
H157 H 0.76287 0.8506 0.39055 0.0
O158 O 0.60886 0.83763 0.39634 0.0
H159 H 0.76324 0.95607 0.27677 0.0
H160 H 0.79752 0.85717 0.48786 0.0
Cu161 Cu 0.21719 0.86667 0.38301 0.0
N162 N 0.17751 0.84741 0.32475 0.0
N163 N 0.14904 0.84072 0.24257 0.0
C164 C 0.18193 0.86541 0.27707 0.0
C165 C 0.12242 0.80613 0.26987 0.0
C166 C 0.13989 0.81053 0.32073 0.0
O167 O 0.27027 0.92025 0.36699 0.0
C168 C 0.22092 0.78812 0.38478 0.0
O169 O 0.22196 0.79112 0.33275 0.0
H170 H 0.2097 0.89522 0.26709 0.0
H171 H 0.1271 0.78779 0.35209 0.0
N172 N 0.18826 0.88178 0.4356 0.0
N173 N 0.17325 0.89593 0.51732 0.0
C174 C 0.18887 0.87395 0.4876 0.0
C175 C 0.17149 0.90952 0.43207 0.0
C176 C 0.16225 0.91843 0.48267 0.0
C177 C 0.29405 0.93268 0.325 0.0
O178 O 0.29091 0.90522 0.28844 0.0
H179 H 0.20375 0.855 0.50361 0.0
H180 H 0.16885 0.92411 0.39564 0.0
O181 O 0.22474 0.8194 0.41261 0.0
H182 H 0.09308 0.77926 0.25392 0.0
H183 H 0.15014 0.94083 0.4933 0.0
Cu184 Cu 0.19211 0.29405 0.37748 0.0
N185 N 0.19012 0.32388 0.31776 0.0
N186 N 0.16918 0.32866 0.23401 0.0
C187 C 0.18261 0.3075 0.26828 0.0
C188 C 0.16955 0.3605 0.26329 0.0
C189 C 0.18226 0.35735 0.31488 0.0
O190 O 0.16625 0.23691 0.34832 0.0
C191 C 0.26984 0.35269 0.43275 0.0
O192 O 0.24247 0.36998 0.43762 0.0
H193 H 0.18435 0.27898 0.25877 0.0
H194 H 0.1819 0.37592 0.34869 0.0
N195 N 0.15116 0.2962 0.42732 0.0
N196 N 0.11294 0.28966 0.50264 0.0
C197 C 0.15116 0.2917 0.48046 0.0
C198 C 0.11175 0.29716 0.41562 0.0
C199 C 0.08814 0.29315 0.46189 0.0
C200 C 0.12699 0.20885 0.36166 0.0
O201 O 0.11267 0.21017 0.40984 0.0
H202 H 0.17772 0.28821 0.50202 0.0
H203 H 0.10026 0.29914 0.37586 0.0
O204 O 0.25503 0.31801 0.40729 0.0
H205 H 0.15814 0.3827 0.24974 0.0
H206 H 0.05515 0.29255 0.46518 0.0
Cu207 Cu 0.11397 0.30577 0.86864 0.0
N208 N 0.07604 0.28096 0.80993 0.0
N209 N 0.06543 0.27041 0.72221 0.0
C210 C 0.09038 0.29658 0.76148 0.0
C211 C 0.03316 0.23702 0.74697 0.0
C212 C 0.04015 0.2434 0.80134 0.0
O213 O 0.1692 0.30096 0.8494 0.0
C214 C 0.07482 0.3557 0.89079 0.0
O215 O 0.04142 0.31767 0.88992 0.0
H216 H 0.12083 0.32553 0.75535 0.0
H217 H 0.02272 0.22092 0.83186 0.0
N218 N 0.09523 0.28006 0.93442 0.0
N219 N 0.09793 0.27725 1.02302 0.0
C220 C 0.11293 0.30142 0.97986 0.0
C221 C 0.06754 0.24073 0.94917 0.0
C222 C 0.06932 0.23887 1.00405 0.0
C223 C 0.16145 0.26301 0.84166 0.0
O224 O 0.12056 0.23331 0.85164 0.0
H225 H 0.13805 0.33388 0.98091 0.0
H226 H 0.04833 0.21508 0.92218 0.0
O227 O 0.11467 0.36043 0.87944 0.0
H228 H 1.00876 0.20872 0.72733 0.0
H229 H 0.0515 0.21139 0.028 0.0
Cu230 Cu 0.69876 0.87082 0.87657 0.0
N231 N 0.72609 0.85447 0.82334 0.0
N232 N 0.73938 0.84268 0.73974 0.0
C233 C 0.71882 0.85885 0.77189 0.0
C234 C 0.76106 0.8278 0.77259 0.0
C235 C 0.75263 0.83505 0.82444 0.0
O236 O 0.69327 0.91933 0.84767 0.0
C237 C 0.65199 0.79423 0.92417 0.0
O238 O 0.69467 0.80283 0.9329 0.0
H239 H 0.69852 0.8737 0.75861 0.0
H240 H 0.76428 0.8261 0.86014 0.0
N241 N 0.73558 0.88946 0.93708 0.0
N242 N 0.75112 0.90169 1.02354 0.0
C243 C 0.71924 0.89156 0.98499 0.0
C244 C 0.77966 0.89909 0.94514 0.0
C245 C 0.78945 0.9069 0.99875 0.0
C246 C 0.73212 0.95028 0.83922 0.0
O247 O 0.76871 0.94609 0.85075 0.0
H248 H 0.68403 0.88425 0.99149 0.0
H249 H 0.80252 0.89896 0.91464 0.0
O250 O 0.64362 0.82041 0.89792 0.0
H251 H 0.78046 0.81182 0.76022 0.0
H252 H 0.82143 0.91361 1.01826 0.0
Cu253 Cu 0.20259 0.8528 0.87666 0.0
N254 N 0.20671 0.88981 0.82329 0.0
N255 N 0.19934 0.90971 0.74148 0.0
C256 C 0.1835 0.87862 0.77709 0.0
C257 C 0.23337 0.94224 0.76687 0.0
C258 C 0.23796 0.92976 0.81741 0.0
O259 O 0.15934 0.79796 0.84672 0.0
C260 C 0.28437 0.85851 0.93162 0.0
O261 O 0.25837 0.83803 0.97125 0.0
H262 H 0.15703 0.84756 0.7689 0.0
H263 H 0.26405 0.94758 0.84648 0.0
N264 N 0.18014 0.86739 0.93691 0.0
N265 N 0.15934 0.87046 1.02036 0.0
C266 C 0.17142 0.84913 0.9848 0.0
C267 C 0.17281 0.9011 0.94221 0.0
C268 C 0.16013 0.90318 0.99371 0.0
C269 C 0.11769 0.77813 0.86052 0.0
O270 O 0.10461 0.78929 0.90434 0.0
H271 H 0.17535 0.82158 0.99386 0.0
H272 H 0.17755 0.92326 0.91114 0.0
O273 O 0.2661 0.86355 0.88911 0.0
H274 H 0.25558 0.97175 0.74897 0.0
H275 H 0.15281 0.92725 1.01043 0.0
Cu276 Cu 0.332 0.16759 0.70785 0.0
N277 N 0.35683 0.20464 0.65268 0.0
N278 N 0.35948 0.22394 0.56856 0.0
C279 C 0.33774 0.19413 0.60437 0.0
C280 C 0.39353 0.2552 0.59566 0.0
C281 C 0.39183 0.2431 0.64805 0.0
O282 O 0.32204 0.11228 0.68114 0.0
C283 C 0.29131 0.21319 0.74972 0.0
O284 O 0.3342 0.24113 0.74765 0.0
H285 H 0.30817 0.16475 0.59589 0.0
H286 H 0.41444 0.26101 0.68003 0.0
N287 N 0.36876 0.17738 0.76694 0.0
N288 N 0.37594 0.16995 0.85352 0.0
C289 C 0.35052 0.15394 0.80955 0.0
C290 C 0.40824 0.2091 0.78361 0.0
C291 C 0.41285 0.20444 0.83752 0.0
C292 C 0.35681 0.1127 0.65831 0.0
O293 O 0.39361 0.14843 0.65406 0.0
H294 H 0.31707 0.12741 0.80882 0.0
H295 H 0.43004 0.23534 0.75977 0.0
O296 O 0.28044 0.17604 0.73309 0.0
H297 H 0.4184 0.28406 0.57866 0.0
H298 H 0.439 0.22665 0.86361 0.0
Cu299 Cu 0.88712 0.21013 0.68297 0.0
N300 N 0.82879 0.16433 0.69169 0.0
N301 N 0.78002 0.10281 0.7265 0.0
C302 C 0.82398 0.1299 0.71758 0.0
C303 C 0.75575 0.12037 0.70385 0.0
C304 C 0.78591 0.15844 0.68266 0.0
O305 O 0.9162 0.2113 0.75627 0.0
C306 C 0.88231 0.19021 0.56956 0.0
O307 O 0.83921 0.17907 0.57849 0.0
H308 H 0.85272 0.12563 0.7314 0.0
H309 H 0.77702 0.1806 0.66357 0.0
N310 N 0.88857 0.263 0.67486 0.0
N311 N 0.91642 0.33021 0.65024 0.0
C312 C 0.92591 0.29802 0.66045 0.0
C313 C 0.85435 0.27361 0.67419 0.0
C314 C 0.87135 0.31483 0.65896 0.0
C315 C 0.89194 0.2073 0.79837 0.0
O316 O 0.85141 0.2051 0.79158 0.0
H317 H 0.95905 0.29926 0.6552 0.0
H318 H 0.81928 0.2527 0.68274 0.0
O319 O 0.91015 0.20234 0.61 0.0
H320 H 0.71905 0.10762 0.70469 0.0
H321 H 0.85187 0.33205 0.65426 0.0
Cu322 Cu 0.87514 0.66609 0.68523 0.0
N323 N 0.84693 0.68337 0.73687 0.0
N324 N 0.83126 0.69873 0.8179 0.0
C325 C 0.85436 0.68286 0.78937 0.0
C326 C 0.80839 0.70981 0.78172 0.0
C327 C 0.81808 0.70019 0.73164 0.0
O328 O 0.93057 0.67033 0.72118 0.0
C329 C 0.79143 0.58941 0.67199 0.0
O330 O 0.7803 0.59842 0.7186 0.0
H331 H 0.87719 0.67184 0.80614 0.0
H332 H 0.80535 0.70537 0.69413 0.0
N333 N 0.89028 0.70225 0.62776 0.0
N334 N 0.89963 0.72244 0.54312 0.0
C335 C 0.89315 0.69147 0.57714 0.0
C336 C 0.89531 0.7415 0.62589 0.0
C337 C 0.90092 0.75401 0.57355 0.0
C338 C 0.97071 0.69678 0.70804 0.0
O339 O 0.97646 0.71628 0.66271 0.0
H340 H 0.88835 0.66074 0.56528 0.0
H341 H 0.89358 0.75923 0.65991 0.0
O342 O 0.83168 0.61155 0.65494 0.0
H343 H 0.78602 0.72353 0.79072 0.0
H344 H 0.90482 0.78367 0.55893 0.0
Cu345 Cu 0.80583 0.66045 0.18792 0.0
N346 N 0.82395 0.69536 0.12941 0.0
N347 N 0.83345 0.71408 0.04421 0.0
C348 C 0.82204 0.68248 0.07878 0.0
C349 C 0.84291 0.74827 0.07444 0.0
C350 C 0.83703 0.73658 0.12713 0.0
O351 O 0.79951 0.60677 0.16029 0.0
C352 C 0.73341 0.65064 0.26015 0.0
O353 O 0.74581 0.62679 0.28825 0.0
H354 H 0.81078 0.65018 0.06747 0.0
H355 H 0.84098 0.75646 0.16123 0.0
N356 N 0.85241 0.68093 0.23932 0.0
N357 N 0.88803 0.70095 0.31801 0.0
C358 C 0.85058 0.69408 0.28909 0.0
C359 C 0.89286 0.68039 0.23629 0.0
C360 C 0.91479 0.69244 0.28489 0.0
C361 C 0.81124 0.58249 0.18557 0.0
O362 O 0.81877 0.58804 0.23704 0.0
H363 H 0.82144 0.69647 0.30479 0.0
H364 H 0.90454 0.66996 0.2019 0.0
O365 O 0.75192 0.66376 0.21533 0.0
H366 H 0.85315 0.7794 0.05962 0.0
H367 H 0.94723 0.69364 0.29547 0.0
Cu368 Cu 0.36293 0.17602 0.21321 0.0
N369 N 0.33224 0.1896 0.26497 0.0
N370 N 0.32212 0.20662 0.3471 0.0
C371 C 0.33465 0.18272 0.31685 0.0
C372 C 0.31139 0.22965 0.3131 0.0
C373 C 0.31777 0.21906 0.26216 0.0
O374 O 0.37563 0.1308 0.24037 0.0
C375 C 0.42919 0.24367 0.14972 0.0
O376 O 0.42801 0.21606 0.11467 0.0
H377 H 0.35001 0.16399 0.33229 0.0
H378 H 0.31626 0.2346 0.22611 0.0
N379 N 0.32653 0.15549 0.15337 0.0
N380 N 0.31599 0.14197 0.0666 0.0
C381 C 0.33973 0.14193 0.11031 0.0
C382 C 0.29156 0.16233 0.13742 0.0
C383 C 0.28487 0.15388 0.08374 0.0
C384 C 0.34015 0.09875 0.25598 0.0
O385 O 0.30062 0.0992 0.25285 0.0
H386 H 0.36941 0.1365 0.11025 0.0
H387 H 0.2753 0.17651 0.1616 0.0
O388 O 0.4115 0.23149 0.19524 0.0
H389 H 0.30245 0.25407 0.32436 0.0
H390 H 0.26245 0.16069 0.05845 0.0
Cu391 Cu 0.90614 0.16118 0.18282 0.0
N392 N 0.90447 0.18918 0.24878 0.0
N393 N 0.90863 0.20196 0.33859 0.0
C394 C 0.89646 0.17257 0.29879 0.0
C395 C 0.92474 0.2384 0.31216 0.0
C396 C 0.92235 0.23058 0.25781 0.0
O397 O 0.95018 0.14143 0.20456 0.0
C398 C 0.80842 0.11097 0.17726 0.0
O399 O 0.80677 0.13826 0.21099 0.0
H400 H 0.88435 0.13962 0.30595 0.0
H401 H 0.93505 0.25387 0.22711 0.0
N402 N 0.92387 0.1927 0.11672 0.0
N403 N 0.92973 0.20767 0.0277 0.0
C404 C 0.90816 0.17873 0.0662 0.0
C405 C 0.95632 0.23206 0.10953 0.0
C406 C 0.96004 0.24116 0.05573 0.0
C407 C 0.99279 0.16109 0.19591 0.0
O408 O 1.00741 0.18945 0.15871 0.0
H409 H 0.88187 0.14745 0.05778 0.0
H410 H 0.97672 0.25271 0.1412 0.0
O411 O 0.84707 0.11384 0.16444 0.0
H412 H 0.9381 0.26896 0.33074 0.0
H413 H 0.98339 0.2707 0.03886 0.0
C414 C 0.03908 0.55624 0.31322 0.0
C415 C 1.01014 0.57354 0.32804 0.0
H416 H 0.07031 0.53905 0.25056 0.0
C417 C 0.99136 0.58832 0.28811 0.0
H418 H 0.05516 0.54531 0.34251 0.0
C419 C 1.00116 0.58563 0.2347 0.0
C420 C 0.0298 0.56791 0.22003 0.0
H421 H 0.96902 0.60187 0.29812 0.0
H422 H 0.98627 0.59748 0.20502 0.0
C423 C 0.04868 0.55341 0.26006 0.0
C424 C 0.52768 0.49726 0.28598 0.0
C425 C 0.56412 0.5318 0.3102 0.0
H426 H 0.49158 0.46808 0.21384 0.0
C427 C 0.59543 0.56219 0.27566 0.0
H428 H 0.50262 0.47323 0.3103 0.0
C429 C 0.58957 0.55886 0.21946 0.0
C430 C 0.5518 0.5252 0.19567 0.0
H431 H 0.62427 0.58908 0.29212 0.0
H432 H 0.61332 0.58374 0.19497 0.0
C433 C 0.52144 0.49432 0.23016 0.0
C434 C 0.52753 0.09291 0.25109 0.0
C435 C 0.52408 0.05815 0.22185 0.0
H436 H 0.53177 0.12009 0.32834 0.0
C437 C 0.52089 0.02309 0.24938 0.0
H438 H 0.53019 0.1204 0.23096 0.0
C439 C 0.52219 0.02302 0.30468 0.0
C440 C 0.52656 0.05796 0.33414 0.0
H441 H 0.51743 0.99553 0.22815 0.0
H442 H 0.52063 0.99574 0.3243 0.0
C443 C 0.52896 0.09289 0.30677 0.0
C444 C 0.98681 0.58438 0.74804 0.0
C445 C 0.02477 0.61695 0.72513 0.0
H446 H 0.95439 0.55459 0.81978 0.0
C447 C 0.05983 0.64537 0.75805 0.0
H448 H 0.95937 0.56229 0.72322 0.0
C449 C 0.05738 0.64081 0.81309 0.0
C450 C 1.01969 0.60784 0.83616 0.0
H451 H 0.08981 0.67036 0.74111 0.0
H452 H 0.08555 0.66241 0.83739 0.0
C453 C 0.98414 0.57998 0.80311 0.0
C454 C 0.57959 0.55377 0.77584 0.0
C455 C 0.55085 0.52264 0.73907 0.0
H456 H 0.59706 0.57279 0.85814 0.0
C457 C 0.51896 0.4846 0.76063 0.0
H458 H 0.60504 0.58345 0.76151 0.0
C459 C 0.5144 0.47867 0.81621 0.0
C460 C 0.54212 0.51004 0.85308 0.0
H461 H 0.49602 0.45982 0.73452 0.0
H462 H 0.4879 0.44946 0.8305 0.0
C463 C 0.57552 0.5475 0.83172 0.0
C464 C 0.60684 0.03642 0.80594 0.0
C465 C 0.59138 0.06345 0.82836 0.0
H466 H 0.61391 1.00653 0.73532 0.0
C467 C 0.57289 0.08313 0.79494 0.0
H468 H 0.6214 0.02106 0.83092 0.0
C469 C 0.56825 0.07458 0.74031 0.0
C470 C 0.58276 0.04678 0.71805 0.0
H471 H 0.56039 0.10382 0.81136 0.0
H472 H 0.55292 0.08934 0.71548 0.0
C473 C 0.60288 0.0284 0.75128 0.0
C474 C 0.70032 0.84364 0.65633 0.0
C475 C 0.73656 0.84081 0.68255 0.0
H476 H 0.67021 0.84737 0.58308 0.0
C477 C 0.77007 0.83715 0.65197 0.0
H478 H 0.67323 0.84553 0.67823 0.0
C479 C 0.76762 0.83705 0.59639 0.0
C480 C 0.73169 0.84073 0.57035 0.0
H481 H 0.79849 0.83502 0.67087 0.0
H482 H 0.7938 0.83393 0.57402 0.0
C483 C 0.69814 0.84399 0.6012 0.0
C484 C 0.19528 0.94095 0.65548 0.0
C485 C 0.18857 0.90585 0.68549 0.0
H486 H 0.19504 0.96518 0.57787 0.0
C487 C 0.17354 0.86704 0.65939 0.0
H488 H 0.20659 0.97116 0.67452 0.0
C489 C 0.167 0.86369 0.60449 0.0
C490 C 0.17499 0.89891 0.57433 0.0
H491 H 0.1686 0.83941 0.68091 0.0
H492 H 0.15658 0.83363 0.58533 0.0
C493 C 0.18825 0.93746 0.60035 0.0
C494 C 0.05467 0.26366 0.57321 0.0
C495 C 0.10064 0.28397 0.55798 0.0
H496 H 1.00739 0.24323 0.63778 0.0
C497 C 0.1345 0.29896 0.59772 0.0
H498 H 0.0278 0.25118 0.54352 0.0
C499 C 0.12281 0.29435 0.65132 0.0
C500 C 0.07693 0.27443 0.66666 0.0
H501 H 0.17012 0.31489 0.58741 0.0
H502 H 0.14989 0.30609 0.68084 0.0
C503 C 0.04294 0.25872 0.62705 0.0
C504 C 0.69304 0.87172 0.15447 0.0
C505 C 0.72762 0.89748 0.18989 0.0
H506 H 0.67363 0.85243 0.07416 0.0
C507 C 0.77016 0.92551 0.16963 0.0
H508 H 0.65979 0.85018 0.16878 0.0
C509 C 0.77807 0.92705 0.11493 0.0
C510 C 0.74341 0.90095 0.07972 0.0
H511 H 0.79752 0.94552 0.19609 0.0
H512 H 0.81111 0.94867 0.10011 0.0
C513 C 0.70082 0.87341 0.10012 0.0
C514 C 0.13473 0.82166 0.09553 0.0
C515 C 0.15249 0.86258 0.07637 0.0
H516 H 0.11937 0.78256 0.16372 0.0
C517 C 0.16586 0.89589 0.11289 0.0
H518 H 0.12372 0.79539 0.06825 0.0
C519 C 0.16336 0.88857 0.16745 0.0
C520 C 0.14703 0.84778 0.18663 0.0
H521 H 0.17997 0.92777 0.09936 0.0
H522 H 0.17492 0.91489 0.1947 0.0
C523 C 0.1318 0.8143 0.15014 0.0
C524 C 0.12021 0.26205 0.11094 0.0
C525 C 0.11382 0.28962 0.0769 0.0
H526 H 0.14417 0.253 0.18586 0.0
C527 C 0.12613 0.33046 0.09508 0.0
H528 H 0.11184 0.23066 0.09775 0.0
C529 C 0.14439 0.34339 0.14628 0.0
C530 C 0.15126 0.31589 0.18047 0.0
H531 H 0.12158 0.35245 0.06962 0.0
H532 H 0.1536 0.3751 0.15861 0.0
C533 C 0.13914 0.27513 0.16167 0.0
C534 C 0.37673 0.15739 1.00065 0.0
C535 C 0.33035 0.14319 1.01255 0.0
H536 H 0.4276 0.17734 0.94028 0.0
C537 C 0.29906 0.13484 0.97076 0.0
H538 H 0.40201 0.16437 0.03167 0.0
C539 C 0.31394 0.14249 0.91853 0.0
C540 C 0.36053 0.1586 0.90691 0.0
H541 H 0.26321 0.12367 0.97862 0.0
H542 H 0.289 0.13752 0.8876 0.0
C543 C 0.39166 0.16528 0.94833 0.0
C544 C 0.94711 0.2324 0.87858 0.0
C545 C 0.90569 0.20361 0.85539 0.0
H546 H 0.98743 0.25639 0.94998 0.0
C547 C 0.87307 0.17492 0.89023 0.0
H548 H 0.97219 0.25584 0.85384 0.0
C549 C 0.88132 0.17516 0.94571 0.0
C550 C 0.92234 0.20481 0.96939 0.0
H551 H 0.84018 0.15265 0.87462 0.0
H552 H 0.85462 0.15297 0.97025 0.0
C553 C 0.95531 0.23305 0.93428 0.0
C554 C 0.82484 0.73837 0.95478 0.0
C555 C 0.83358 0.71099 0.98704 0.0
H556 H 0.81706 0.75589 0.87551 0.0
C557 C 0.84145 0.67966 0.96262 0.0
H558 H 0.81821 0.76258 0.97238 0.0
C559 C 0.84047 0.67565 0.90739 0.0
C560 C 0.83155 0.70284 0.875 0.0
H561 H 0.84872 0.65831 0.9862 0.0
H562 H 0.8462 0.65084 0.89013 0.0
C563 C 0.82364 0.73423 0.89931 0.0
C564 C 0.31936 0.17633 0.43426 0.0
C565 C 0.32819 0.21138 0.40352 0.0
H566 H 0.32377 0.15303 0.51026 0.0
C567 C 0.34728 0.25108 0.42772 0.0
H568 H 0.305 0.1455 0.41622 0.0
C569 C 0.35789 0.2556 0.48207 0.0
C570 C 0.34933 0.22035 0.51266 0.0
H571 H 0.35551 0.27855 0.40417 0.0
H572 H 0.3727 0.28643 0.5001 0.0
C573 C 0.32993 0.18074 0.48811 0.0
C574 C 0.87167 0.16121 0.42058 0.0
C575 C 0.90616 0.19677 0.39686 0.0
H576 H 0.83761 0.13137 0.49235 0.0
C577 C 0.93661 0.22837 0.432 0.0
H578 H 0.84731 0.13626 0.39575 0.0
C579 C 0.93167 0.22513 0.48819 0.0
C580 C 0.89573 0.19038 0.51162 0.0
H581 H 0.964 0.25623 0.41604 0.0
H582 H 0.95446 0.251 0.51306 0.0
C583 C 0.86624 0.15839 0.47649 0.0
C584 C 0.87968 0.73924 0.45465 0.0
C585 C 0.90016 0.72009 0.48598 0.0
H586 H 0.8597 0.748 0.37632 0.0
C587 C 0.91901 0.69664 0.46079 0.0
H588 H 0.86458 0.75721 0.47302 0.0
C589 C 0.91653 0.69164 0.40553 0.0
C590 C 0.89452 0.70947 0.37432 0.0
H591 H 0.93528 0.68181 0.48397 0.0
H592 H 0.93032 0.67249 0.38745 0.0
C593 C 0.87657 0.7337 0.39942 0.0
C594 C 1.0096 0.41195 0.944 0.0
C595 C 0.04264 0.45379 0.94528 0.0
H596 H 0.9938 0.34881 0.92568 0.0
C597 C 0.08687 0.46354 0.9275 0.0
H598 H 0.97533 0.40321 0.95727 0.0
C599 C 0.09781 0.43214 0.90943 0.0
C600 C 0.06468 0.39027 0.90836 0.0
H601 H 0.11334 0.4955 0.92798 0.0
H602 H 0.13213 0.44064 0.89654 0.0
C603 C 1.02041 0.38073 0.92569 0.0
C604 C 0.57424 0.731 0.91927 0.0
C605 C 0.61614 0.75441 0.94547 0.0
H606 H 0.51388 0.67228 0.91341 0.0
C607 C 0.62653 0.73727 0.99053 0.0
H608 H 0.56535 0.74324 0.8843 0.0
C609 C 0.59719 0.6971 1.00746 0.0
C610 C 0.55658 0.67233 0.97958 0.0
H611 H 0.65822 0.75465 1.01219 0.0
H612 H 0.60701 0.68506 0.04187 0.0
C613 C 0.54478 0.69027 0.93605 0.0
C614 C 0.35608 0.87752 0.98634 0.0
C615 C 0.33475 0.88215 0.93976 0.0
H616 H 0.41695 0.9016 0.03492 0.0
C617 C 0.36136 0.91306 0.90355 0.0
H618 H 0.33672 0.85401 1.01513 0.0
C619 C 0.4069 0.9404 0.91523 0.0
C620 C 0.42755 0.93731 0.963 0.0
H621 H 0.34641 0.91768 0.86729 0.0
H622 H 0.4256 0.96512 0.88752 0.0
C623 C 0.40214 0.90463 0.99765 0.0
C624 C 0.37224 1.01478 0.65698 0.0
C625 C 0.39225 0.01777 0.60678 0.0
H626 H 0.34358 0.04202 0.71252 0.0
C627 C 0.3915 0.04733 0.57091 0.0
H628 H 0.37202 0.99238 0.68565 0.0
C629 C 0.37553 0.07569 0.58651 0.0
C630 C 0.35883 0.0748 0.6379 0.0
H631 H 0.40625 0.05062 0.53185 0.0
H632 H 0.37894 0.10018 0.55936 0.0
C633 C 0.35551 0.04296 0.67233 0.0
C634 C 0.93178 0.39276 0.59614 0.0
C635 C 0.94716 0.37164 0.63159 0.0
H636 H 0.94751 0.44866 0.55251 0.0
C637 C 0.99278 0.39217 0.64919 0.0
H638 H 0.89707 0.3778 0.58129 0.0
C639 C 0.02169 0.4332 0.63323 0.0
C640 C 1.00613 0.45449 0.59817 0.0
H641 H 1.00572 0.37693 0.6766 0.0
H642 H 0.05621 0.44839 0.64874 0.0
C643 C 0.96091 0.43336 0.57926 0.0
C644 C 0.76175 0.56094 0.5802 0.0
C645 C 0.75478 0.56003 0.63537 0.0
H646 H 0.73121 0.54394 0.50256 0.0
C647 C 0.71059 0.53497 0.65432 0.0
H648 H 0.79516 0.57986 0.56398 0.0
C649 C 0.67386 0.51387 0.61896 0.0
C650 C 0.68029 0.51768 0.56367 0.0
H651 H 0.70385 0.53338 0.69652 0.0
H652 H 0.63998 0.49711 0.63501 0.0
C653 C 0.72496 0.54028 0.54486 0.0
C654 C 0.83371 0.55896 0.10082 0.0
C655 C 0.82614 0.55474 0.15597 0.0
H656 H 0.8635 0.54471 0.03304 0.0
C657 C 0.83862 0.52756 0.18363 0.0
H658 H 0.82472 0.57966 0.07811 0.0
C659 C 0.86054 0.5072 0.15763 0.0
C660 C 0.87106 0.51374 0.10328 0.0
H661 H 0.8333 0.52341 0.22603 0.0
H662 H 0.87151 0.48818 0.18101 0.0
C663 C 0.85608 0.5389 0.07489 0.0
C664 C 0.42021 0.30936 0.15643 0.0
C665 C 0.4404 0.28669 0.13184 0.0
H666 H 0.40781 0.363 0.15392 0.0
C667 C 0.46656 0.30338 0.08611 0.0
H668 H 0.3994 0.29734 0.19131 0.0
C669 C 0.47178 0.34138 0.0651 0.0
C670 C 0.44992 0.36299 0.08843 0.0
H671 H 0.48227 0.28663 0.06592 0.0
H672 H 0.49159 0.3532 0.0295 0.0
C673 C 0.42451 0.34675 0.13465 0.0
C674 C 0.7689 0.06743 0.09639 0.0
C675 C 0.76631 0.08196 0.14772 0.0
H676 H 0.73312 0.03801 1.02431 0.0
C677 C 0.72305 0.07239 0.16793 0.0
H678 H 0.8016 0.07431 0.07941 0.0
C679 C 0.68363 0.05079 0.13667 0.0
C680 C 0.68656 0.03901 0.08393 0.0
H681 H 0.71975 0.08296 0.20733 0.0
H682 H 0.65118 0.04573 0.15277 0.0
C683 C 0.72958 0.04663 0.06471 0.0
C684 C 0.52831 0.8959 0.44754 0.0
C685 C 0.51116 0.88795 0.49956 0.0
H686 H 0.56369 0.88126 0.38596 0.0
C687 C 0.51328 0.85506 0.5274 0.0
H688 H 0.52761 0.92114 0.42496 0.0
C689 C 0.53352 0.83185 0.50476 0.0
C690 C 0.55295 0.84129 0.45394 0.0
H691 H 0.50051 0.84803 0.5675 0.0
H692 H 0.53572 0.8077 0.52823 0.0
C693 C 0.54924 0.87312 0.42521 0.0
C694 C 0.17687 0.67075 0.39742 0.0
C695 C 0.16064 0.66334 0.44981 0.0
H696 H 0.20904 0.71545 0.33631 0.0
C697 C 0.17003 0.69818 0.4829 0.0
H698 H 0.17049 0.64492 0.37066 0.0
C699 C 0.19223 0.73902 0.46296 0.0
C700 C 0.2057 0.74612 0.40944 0.0
H701 H 0.158 0.69388 0.52339 0.0
H702 H 0.19663 0.76483 0.48878 0.0
C703 C 0.19905 0.71143 0.37759 0.0
C704 C 0.35209 0.36426 0.44351 0.0
C705 C 0.31699 0.37484 0.45619 0.0
H706 H 0.42353 0.38045 0.45126 0.0
C707 C 0.32767 0.40914 0.49052 0.0
H708 H 0.34522 0.33833 0.41689 0.0
C709 C 0.37199 0.43315 0.50974 0.0
C710 C 0.40762 0.42386 0.49573 0.0
H711 H 0.30182 0.41825 0.50191 0.0
H712 H 0.37849 0.45986 0.53494 0.0
C713 C 0.39696 0.38843 0.46324 0.0
C714 C 0.6958 0.66416 0.3395 0.0
C715 C 0.70573 0.66929 0.28498 0.0
H716 H 0.67105 0.68321 0.40752 0.0
C717 C 0.69313 0.69594 0.25613 0.0
H718 H 0.70477 0.64387 0.36312 0.0
C719 C 0.67348 0.71857 0.28174 0.0
C720 C 0.66608 0.71524 0.33692 0.0
H721 H 0.70012 0.70064 0.21407 0.0
H722 H 0.66617 0.74018 0.25869 0.0
C723 C 0.67635 0.68683 0.36506 0.0
C724 C 0.35216 0.03457 0.24798 0.0
C725 C 0.3411 0.06124 0.27903 0.0
H726 H 0.34611 0.97281 0.23806 0.0
C727 C 0.32058 0.04707 0.32846 0.0
H728 H 0.36715 0.04437 0.20923 0.0
C729 C 0.30886 1.00644 0.34526 0.0
C730 C 0.31632 0.97831 0.31246 0.0
H731 H 0.31113 0.06677 0.3529 0.0
H732 H 0.29107 0.99629 0.38248 0.0
C733 C 0.33971 0.99343 0.26442 0.0
C734 C 0.04585 0.1662 0.33117 0.0
C735 C 0.09259 0.18561 0.31925 0.0
H736 H 0.9775 0.14265 0.3015 0.0
C737 C 0.10512 0.18846 0.26554 0.0
H738 H 0.03464 0.16296 0.37198 0.0
C739 C 0.07207 0.17681 0.22492 0.0
C740 C 0.02578 0.16168 0.23704 0.0
H741 H 0.14065 0.20215 0.25481 0.0
H742 H 0.08291 0.1818 0.18397 0.0
C743 C 1.01285 0.15434 0.29058 0.0
C744 C 0.21291 0.19629 0.78288 0.0
C745 C 0.25768 0.22579 0.77242 0.0
H746 H 0.14801 0.18484 0.81315 0.0
C747 C 0.27087 0.26811 0.78513 0.0
H748 H 0.20158 0.16356 0.77385 0.0
C749 C 0.24008 0.28056 0.80769 0.0
C750 C 0.19538 0.25097 0.81849 0.0
H751 H 0.30515 0.29185 0.7776 0.0
H752 H 0.25133 0.31327 0.81672 0.0
C753 C 0.18227 0.20868 0.80572 0.0
C754 C 0.79167 0.06324 0.79969 0.0
C755 C 0.76396 0.06554 0.7585 0.0
H756 H 0.80257 0.02573 0.85774 0.0
C757 C 0.72173 0.03043 0.74842 0.0
H758 H 0.82363 0.08986 0.80991 0.0
C759 C 0.70913 0.99309 0.77677 0.0
C760 C 0.73865 0.99043 0.81557 0.0
H761 H 0.69952 0.03125 0.71708 0.0
H762 H 0.67768 0.96587 0.76642 0.0
C763 C 0.7793 0.02639 0.82757 0.0
C764 C 0.03793 0.7233 0.83856 0.0
C765 C 0.08218 0.75053 0.82167 0.0
H766 H 0.96837 0.6835 0.81607 0.0
C767 C 0.09002 0.75599 0.76683 0.0
H768 H 0.03063 0.71836 0.88054 0.0
C769 C 0.05397 0.73783 0.7302 0.0
C770 C 1.00947 0.71138 0.74689 0.0
H771 H 0.1235 0.77641 0.75213 0.0
H772 H 0.06089 0.74568 0.6887 0.0
C773 C 1.00217 0.70335 0.80156 0.0
loop_
_geom_bond_atom_site_label_1
_geom_bond_atom_site_label_2
_geom_bond_distance
_geom_bond_site_symmetry_2
_ccdc_geom_bond_type
Cu0 N1 1.999 1_554 S
Cu0 O6 1.974 1_554 S
Cu0 N11 1.985 . S
Cu0 O20 1.959 . S
N1 Cu0 1.999 1_556 S
N1 C3 1.263 . S
N1 C5 1.389 . S
N2 C3 1.358 . S
N2 C4 1.400 . S
C3 N1 1.263 . S
C3 N2 1.358 . S
C3 H9 0.930 . S
C4 N2 1.400 . S
C4 C5 1.351 . S
C4 H21 0.930 . S
C5 N1 1.389 . S
C5 C4 1.351 . S
C5 H10 0.930 . S
O6 Cu0 1.974 1_556 S
O6 C16 1.282 . S
C7 O8 1.261 . S
C7 O20 1.251 1_655 S
O8 C7 1.261 . S
H9 C3 0.930 . S
H10 C5 0.930 . S
N11 Cu0 1.985 . S
N11 C13 1.335 . S
N11 C14 1.390 . S
N12 C13 1.345 . S
N12 C15 1.336 . S
C13 N11 1.335 . S
C13 N12 1.345 . S
C13 H18 0.930 . S
C14 N11 1.390 . S
C14 C15 1.346 . S
C14 H19 0.930 . S
C15 N12 1.336 . S
C15 C14 1.346 . S
C15 H22 0.929 . S
C16 O6 1.282 . S
C16 O17 1.216 . S
O17 C16 1.216 . S
H18 C13 0.930 . S
H19 C14 0.930 . S
O20 Cu0 1.959 . S
O20 C7 1.251 1_455 S
H21 C4 0.930 . S
H22 C15 0.929 . S
Cu23 N24 1.999 . S
Cu23 O29 1.974 . S
Cu23 N34 1.985 . S
Cu23 O43 1.959 1_554 S
N24 Cu23 1.999 . S
N24 C26 1.263 . S
N24 C28 1.389 1_554 S
N25 C26 1.358 . S
N25 C27 1.400 . S
C26 N24 1.263 . S
C26 N25 1.358 . S
C26 H32 0.930 . S
C27 N25 1.400 . S
C27 C28 1.351 1_554 S
C27 H44 0.930 1_554 S
C28 N24 1.389 1_556 S
C28 C27 1.351 1_556 S
C28 H33 0.930 . S
O29 Cu23 1.974 . S
O29 C39 1.282 . S
C30 O31 1.261 . S
C30 O43 1.251 . S
O31 C30 1.261 . S
H32 C26 0.930 . S
H33 C28 0.930 . S
N34 Cu23 1.985 . S
N34 C36 1.335 1_554 S
N34 C37 1.390 . S
N35 C36 1.345 . S
N35 C38 1.336 1_556 S
C36 N34 1.335 1_556 S
C36 N35 1.345 . S
C36 H41 0.930 . S
C37 N34 1.390 . S
C37 C38 1.346 . S
C37 H42 0.930 . S
C38 N35 1.336 1_554 S
C38 C37 1.346 . S
C38 H45 0.929 . S
C39 O29 1.282 . S
C39 O40 1.216 . S
O40 C39 1.216 . S
H41 C36 0.930 . S
H42 C37 0.930 . S
O43 Cu23 1.959 1_556 S
O43 C30 1.251 . S
H44 C27 0.930 1_556 S
H45 C38 0.929 . S
Cu46 N47 1.999 1_554 S
Cu46 O52 1.974 1_554 S
Cu46 N57 1.985 . S
Cu46 O66 1.959 1_565 S
N47 Cu46 1.999 1_556 S
N47 C49 1.263 1_565 S
N47 C51 1.392 1_565 S
N48 C49 1.358 . S
N48 C50 1.400 . S
C49 N47 1.263 1_545 S
C49 N48 1.358 . S
C49 H55 0.930 . S
C50 N48 1.400 . S
C50 C51 1.351 . S
C50 H67 0.930 . S
C51 N47 1.392 1_545 S
C51 C50 1.351 . S
C51 H56 0.921 1_545 S
O52 Cu46 1.974 1_556 S
O52 C62 1.282 . S
C53 O54 1.261 . S
C53 O66 1.251 . S
O54 C53 1.261 . S
H55 C49 0.930 . S
H56 C51 0.921 1_565 S
N57 Cu46 1.985 . S
N57 C59 1.335 . S
N57 C60 1.390 . S
N58 C59 1.345 . S
N58 C61 1.336 . S
C59 N57 1.335 . S
C59 N58 1.345 . S
C59 H64 0.930 . S
C60 N57 1.390 . S
C60 C61 1.346 . S
C60 H65 0.930 . S
C61 N58 1.336 . S
C61 C60 1.346 . S
C61 H68 0.929 . S
C62 O52 1.282 . S
C62 O63 1.216 1_565 S
O63 C62 1.216 1_545 S
H64 C59 0.930 . S
H65 C60 0.930 . S
O66 Cu46 1.959 1_545 S
O66 C53 1.251 . S
H67 C50 0.930 . S
H68 C61 0.929 . S
Cu69 N70 1.999 . S
Cu69 O75 1.974 1_545 S
Cu69 N80 1.985 . S
Cu69 O89 1.959 . S
N70 Cu69 1.999 . S
N70 C72 1.263 . S
N70 C74 1.389 . S
N71 C72 1.358 . S
N71 C73 1.400 . S
C72 N70 1.263 . S
C72 N71 1.358 . S
C72 H78 0.930 1_545 S
C73 N71 1.400 . S
C73 C74 1.351 . S
C73 H90 0.930 . S
C74 N70 1.389 . S
C74 C73 1.351 . S
C74 H79 0.930 . S
O75 Cu69 1.974 1_565 S
O75 C85 1.282 . S
C76 O77 1.261 . S
C76 O89 1.251 . S
O77 C76 1.261 . S
H78 C72 0.930 1_565 S
H79 C74 0.930 . S
N80 Cu69 1.985 . S
N80 C82 1.335 . S
N80 C83 1.390 1_545 S
N81 C82 1.345 . S
N81 C84 1.336 1_545 S
C82 N80 1.335 . S
C82 N81 1.345 . S
C82 H87 0.930 . S
C83 N80 1.390 1_565 S
C83 C84 1.346 . S
C83 H88 0.930 . S
C84 N81 1.336 1_565 S
C84 C83 1.346 . S
C84 H91 0.929 . S
C85 O75 1.282 . S
C85 O86 1.216 . S
O86 C85 1.216 . S
H87 C82 0.930 . S
H88 C83 0.930 . S
O89 Cu69 1.959 . S
O89 C76 1.251 . S
H90 C73 0.930 . S
H91 C84 0.929 . S
Cu92 N93 1.999 . S
Cu92 O98 1.974 1_455 S
Cu92 N103 1.985 . S
Cu92 O112 1.959 . S
N93 Cu92 1.999 . S
N93 C95 1.263 . S
N93 C97 1.389 . S
N94 C95 1.358 . S
N94 C96 1.400 . S
C95 N93 1.263 . S
C95 N94 1.358 . S
C95 H101 0.930 . S
C96 N94 1.400 . S
C96 C97 1.351 . S
C96 H113 0.930 . S
C97 N93 1.389 . S
C97 C96 1.351 . S
C97 H102 0.938 . S
O98 Cu92 1.974 1_655 S
O98 C108 1.282 . S
C99 O100 1.261 . S
C99 O112 1.251 . S
O100 C99 1.261 . S
H101 C95 0.930 . S
H102 C97 0.938 . S
N103 Cu92 1.985 . S
N103 C105 1.335 . S
N103 C106 1.390 1_455 S
N104 C105 1.345 . S
N104 C107 1.332 . S
C105 N103 1.335 . S
C105 N104 1.345 . S
C105 H110 0.930 . S
C106 N103 1.390 1_655 S
C106 C107 1.346 1_655 S
C106 H111 0.930 . S
C107 N104 1.332 . S
C107 C106 1.346 1_455 S
C107 H114 0.943 1_455 S
C108 O98 1.282 . S
C108 O109 1.216 1_655 S
O109 C108 1.216 1_455 S
H110 C105 0.930 . S
H111 C106 0.930 . S
O112 Cu92 1.959 . S
O112 C99 1.251 . S
H113 C96 0.930 . S
H114 C107 0.943 1_655 S
Cu115 N116 1.999 . S
Cu115 O121 1.974 . S
Cu115 N126 1.985 . S
Cu115 O135 1.959 . S
N116 Cu115 1.999 . S
N116 C118 1.263 . S
N116 C120 1.389 . S
N117 C118 1.358 . S
N117 C119 1.400 . S
C118 N116 1.263 . S
C118 N117 1.358 . S
C118 H124 0.930 . S
C119 N117 1.400 . S
C119 C120 1.351 . S
C119 H136 0.930 . S
C120 N116 1.389 . S
C120 C119 1.351 . S
C120 H125 0.930 . S
O121 Cu115 1.974 . S
O121 C131 1.282 . S
C122 O123 1.261 . S
C122 O135 1.251 . S
O123 C122 1.261 . S
H124 C118 0.930 . S
H125 C120 0.930 . S
N126 Cu115 1.985 . S
N126 C128 1.335 . S
N126 C129 1.390 . S
N127 C128 1.345 . S
N127 C130 1.336 . S
C128 N126 1.335 . S
C128 N127 1.345 . S
C128 H133 0.930 . S
C129 N126 1.390 . S
C129 C130 1.346 . S
C129 H134 0.930 . S
C130 N127 1.336 . S
C130 C129 1.346 . S
C130 H137 0.929 . S
C131 O121 1.282 . S
C131 O132 1.216 . S
O132 C131 1.216 . S
H133 C128 0.930 . S
H134 C129 0.930 . S
O135 Cu115 1.959 . S
O135 C122 1.251 . S
H136 C119 0.930 . S
H137 C130 0.929 . S
Cu138 N139 1.999 . S
Cu138 O144 1.974 . S
Cu138 N149 1.985 . S
Cu138 O158 1.959 . S
N139 Cu138 1.999 . S
N139 C141 1.263 . S
N139 C143 1.389 . S
N140 C141 1.358 . S
N140 C142 1.400 . S
C141 N139 1.263 . S
C141 N140 1.358 . S
C141 H147 0.930 . S
C142 N140 1.400 . S
C142 C143 1.351 . S
C142 H159 0.930 . S
C143 N139 1.389 . S
C143 C142 1.351 . S
C143 H148 0.930 . S
O144 Cu138 1.974 . S
O144 C154 1.282 . S
C145 O146 1.261 . S
C145 O158 1.251 . S
O146 C145 1.261 . S
H147 C141 0.930 . S
H148 C143 0.930 . S
N149 Cu138 1.985 . S
N149 C151 1.335 . S
N149 C152 1.390 . S
N150 C151 1.345 . S
N150 C153 1.336 . S
C151 N149 1.335 . S
C151 N150 1.345 . S
C151 H156 0.930 . S
C152 N149 1.390 . S
C152 C153 1.346 . S
C152 H157 0.930 . S
C153 N150 1.336 . S
C153 C152 1.346 . S
C153 H160 0.929 . S
C154 O144 1.282 . S
C154 O155 1.216 . S
O155 C154 1.216 . S
H156 C151 0.930 . S
H157 C152 0.930 . S
O158 Cu138 1.959 . S
O158 C145 1.251 . S
H159 C142 0.930 . S
H160 C153 0.929 . S
Cu161 N162 1.999 . S
Cu161 O167 1.974 . S
Cu161 N172 1.985 . S
Cu161 O181 1.959 . S
N162 Cu161 1.999 . S
N162 C164 1.263 . S
N162 C166 1.389 . S
N163 C164 1.358 . S
N163 C165 1.400 . S
C164 N162 1.263 . S
C164 N163 1.358 . S
C164 H170 0.930 . S
C165 N163 1.400 . S
C165 C166 1.351 . S
C165 H182 0.930 . S
C166 N162 1.389 . S
C166 C165 1.351 . S
C166 H171 0.930 . S
O167 Cu161 1.974 . S
O167 C177 1.282 . S
C168 O169 1.261 . S
C168 O181 1.251 . S
O169 C168 1.261 . S
H170 C164 0.930 . S
H171 C166 0.930 . S
N172 Cu161 1.985 . S
N172 C174 1.335 . S
N172 C175 1.390 . S
N173 C174 1.345 . S
N173 C176 1.336 . S
C174 N172 1.335 . S
C174 N173 1.345 . S
C174 H179 0.930 . S
C175 N172 1.390 . S
C175 C176 1.346 . S
C175 H180 0.930 . S
C176 N173 1.336 . S
C176 C175 1.346 . S
C176 H183 0.929 . S
C177 O167 1.282 . S
C177 O178 1.216 . S
O178 C177 1.216 . S
H179 C174 0.930 . S
H180 C175 0.930 . S
O181 Cu161 1.959 . S
O181 C168 1.251 . S
H182 C165 0.930 . S
H183 C176 0.929 . S
Cu184 N185 1.999 . S
Cu184 O190 1.974 . S
Cu184 N195 1.985 . S
Cu184 O204 1.959 . S
N185 Cu184 1.999 . S
N185 C187 1.263 . S
N185 C189 1.389 . S
N186 C187 1.358 . S
N186 C188 1.400 . S
C187 N185 1.263 . S
C187 N186 1.358 . S
C187 H193 0.930 . S
C188 N186 1.400 . S
C188 C189 1.351 . S
C188 H205 0.930 . S
C189 N185 1.389 . S
C189 C188 1.351 . S
C189 H194 0.930 . S
O190 Cu184 1.974 . S
O190 C200 1.282 . S
C191 O192 1.261 . S
C191 O204 1.251 . S
O192 C191 1.261 . S
H193 C187 0.930 . S
H194 C189 0.930 . S
N195 Cu184 1.985 . S
N195 C197 1.335 . S
N195 C198 1.390 . S
N196 C197 1.345 . S
N196 C199 1.336 . S
C197 N195 1.335 . S
C197 N196 1.345 . S
C197 H202 0.930 . S
C198 N195 1.390 . S
C198 C199 1.346 . S
C198 H203 0.930 . S
C199 N196 1.336 . S
C199 C198 1.346 . S
C199 H206 0.929 . S
C200 O190 1.282 . S
C200 O201 1.216 . S
O201 C200 1.216 . S
H202 C197 0.930 . S
H203 C198 0.930 . S
O204 Cu184 1.959 . S
O204 C191 1.251 . S
H205 C188 0.930 . S
H206 C199 0.929 . S
Cu207 N208 1.999 . S
Cu207 O213 1.974 . S
Cu207 N218 1.985 . S
Cu207 O227 1.959 . S
N208 Cu207 1.999 . S
N208 C210 1.263 . S
N208 C212 1.389 . S
N209 C210 1.358 . S
N209 C211 1.400 . S
C210 N208 1.263 . S
C210 N209 1.358 . S
C210 H216 0.930 . S
C211 N209 1.400 . S
C211 C212 1.351 . S
C211 H228 0.930 . S
C212 N208 1.389 . S
C212 C211 1.351 . S
C212 H217 0.930 . S
O213 Cu207 1.974 . S
O213 C223 1.282 . S
C214 O215 1.261 . S
C214 O227 1.251 . S
O215 C214 1.261 . S
H216 C210 0.930 . S
H217 C212 0.930 . S
N218 Cu207 1.985 . S
N218 C220 1.335 . S
N218 C221 1.390 . S
N219 C220 1.345 . S
N219 C222 1.336 . S
C220 N218 1.335 . S
C220 N219 1.345 . S
C220 H225 0.930 . S
C221 N218 1.390 . S
C221 C222 1.346 . S
C221 H226 0.930 . S
C222 N219 1.336 . S
C222 C221 1.346 . S
C222 H229 0.929 1_556 S
C223 O213 1.282 . S
C223 O224 1.216 . S
O224 C223 1.216 . S
H225 C220 0.930 . S
H226 C221 0.930 . S
O227 Cu207 1.959 . S
O227 C214 1.251 . S
H228 C211 0.930 . S
H229 C222 0.929 1_554 S
Cu230 N231 1.999 . S
Cu230 O236 1.974 . S
Cu230 N241 1.985 . S
Cu230 O250 1.959 . S
N231 Cu230 1.999 . S
N231 C233 1.263 . S
N231 C235 1.389 . S
N232 C233 1.358 . S
N232 C234 1.400 . S
C233 N231 1.263 . S
C233 N232 1.358 . S
C233 H239 0.930 . S
C234 N232 1.400 . S
C234 C235 1.351 . S
C234 H251 0.930 . S
C235 N231 1.389 . S
C235 C234 1.351 . S
C235 H240 0.930 . S
O236 Cu230 1.974 . S
O236 C246 1.282 . S
C237 O238 1.261 . S
C237 O250 1.251 . S
O238 C237 1.261 . S
H239 C233 0.930 . S
H240 C235 0.930 . S
N241 Cu230 1.985 . S
N241 C243 1.335 . S
N241 C244 1.390 . S
N242 C243 1.345 . S
N242 C245 1.336 . S
C243 N241 1.335 . S
C243 N242 1.345 . S
C243 H248 0.930 . S
C244 N241 1.390 . S
C244 C245 1.346 . S
C244 H249 0.930 . S
C245 N242 1.336 . S
C245 C244 1.346 . S
C245 H252 0.929 1_556 S
C246 O236 1.282 . S
C246 O247 1.216 . S
O247 C246 1.216 . S
H248 C243 0.930 . S
H249 C244 0.930 . S
O250 Cu230 1.959 . S
O250 C237 1.251 . S
H251 C234 0.930 . S
H252 C245 0.929 1_554 S
Cu253 N254 1.999 . S
Cu253 O259 1.974 . S
Cu253 N264 1.985 . S
Cu253 O273 1.959 . S
N254 Cu253 1.999 . S
N254 C256 1.263 . S
N254 C258 1.389 . S
N255 C256 1.358 . S
N255 C257 1.400 . S
C256 N254 1.263 . S
C256 N255 1.358 . S
C256 H262 0.930 . S
C257 N255 1.400 . S
C257 C258 1.351 . S
C257 H274 0.930 . S
C258 N254 1.389 . S
C258 C257 1.351 . S
C258 H263 0.930 . S
O259 Cu253 1.974 . S
O259 C269 1.282 . S
C260 O261 1.261 . S
C260 O273 1.251 . S
O261 C260 1.261 . S
H262 C256 0.930 . S
H263 C258 0.930 . S
N264 Cu253 1.985 . S
N264 C266 1.335 . S
N264 C267 1.390 . S
N265 C266 1.355 . S
N265 C268 1.340 . S
C266 N264 1.335 . S
C266 N265 1.355 . S
C266 H271 0.930 . S
C267 N264 1.390 . S
C267 C268 1.346 . S
C267 H272 0.930 . S
C268 N265 1.340 . S
C268 C267 1.346 . S
C268 H275 0.929 1_556 S
C269 O259 1.282 . S
C269 O270 1.216 . S
O270 C269 1.216 . S
H271 C266 0.930 . S
H272 C267 0.930 . S
O273 Cu253 1.959 . S
O273 C260 1.251 . S
H274 C257 0.930 . S
H275 C268 0.929 1_554 S
Cu276 N277 1.999 . S
Cu276 O282 1.974 . S
Cu276 N287 1.985 . S
Cu276 O296 1.959 . S
N277 Cu276 1.999 . S
N277 C279 1.263 . S
N277 C281 1.389 . S
N278 C279 1.358 . S
N278 C280 1.400 . S
C279 N277 1.263 . S
C279 N278 1.358 . S
C279 H285 0.930 . S
C280 N278 1.400 . S
C280 C281 1.351 . S
C280 H297 0.930 . S
C281 N277 1.389 . S
C281 C280 1.351 . S
C281 H286 0.930 . S
O282 Cu276 1.974 . S
O282 C292 1.282 . S
C283 O284 1.261 . S
C283 O296 1.251 . S
O284 C283 1.261 . S
H285 C279 0.930 . S
H286 C281 0.930 . S
N287 Cu276 1.985 . S
N287 C289 1.335 . S
N287 C290 1.390 . S
N288 C289 1.345 . S
N288 C291 1.336 . S
C289 N287 1.335 . S
C289 N288 1.345 . S
C289 H294 0.930 . S
C290 N287 1.390 . S
C290 C291 1.346 . S
C290 H295 0.930 . S
C291 N288 1.336 . S
C291 C290 1.346 . S
C291 H298 0.929 . S
C292 O282 1.282 . S
C292 O293 1.216 . S
O293 C292 1.216 . S
H294 C289 0.930 . S
H295 C290 0.930 . S
O296 Cu276 1.959 . S
O296 C283 1.251 . S
H297 C280 0.930 . S
H298 C291 0.929 . S
Cu299 N300 1.999 . S
Cu299 O305 1.974 . S
Cu299 N310 1.985 . S
Cu299 O319 1.959 . S
N300 Cu299 1.999 . S
N300 C302 1.263 . S
N300 C304 1.389 . S
N301 C302 1.358 . S
N301 C303 1.400 . S
C302 N300 1.263 . S
C302 N301 1.358 . S
C302 H308 0.930 . S
C303 N301 1.400 . S
C303 C304 1.351 . S
C303 H320 0.930 . S
C304 N300 1.389 . S
C304 C303 1.351 . S
C304 H309 0.930 . S
O305 Cu299 1.974 . S
O305 C315 1.282 . S
C306 O307 1.261 . S
C306 O319 1.251 . S
O307 C306 1.261 . S
H308 C302 0.930 . S
H309 C304 0.930 . S
N310 Cu299 1.985 . S
N310 C312 1.335 . S
N310 C313 1.390 . S
N311 C312 1.345 . S
N311 C314 1.336 . S
C312 N310 1.335 . S
C312 N311 1.345 . S
C312 H317 0.930 . S
C313 N310 1.390 . S
C313 C314 1.346 . S
C313 H318 0.930 . S
C314 N311 1.336 . S
C314 C313 1.346 . S
C314 H321 0.929 . S
C315 O305 1.282 . S
C315 O316 1.216 . S
O316 C315 1.216 . S
H317 C312 0.930 . S
H318 C313 0.930 . S
O319 Cu299 1.959 . S
O319 C306 1.251 . S
H320 C303 0.930 . S
H321 C314 0.929 . S
Cu322 N323 1.999 . S
Cu322 O328 1.974 . S
Cu322 N333 1.985 . S
Cu322 O342 1.959 . S
N323 Cu322 1.999 . S
N323 C325 1.263 . S
N323 C327 1.389 . S
N324 C325 1.358 . S
N324 C326 1.400 . S
C325 N323 1.263 . S
C325 N324 1.358 . S
C325 H331 0.930 . S
C326 N324 1.400 . S
C326 C327 1.351 . S
C326 H343 0.930 . S
C327 N323 1.389 . S
C327 C326 1.351 . S
C327 H332 0.930 . S
O328 Cu322 1.974 . S
O328 C338 1.282 . S
C329 O330 1.261 . S
C329 O342 1.251 . S
O330 C329 1.261 . S
H331 C325 0.930 . S
H332 C327 0.930 . S
N333 Cu322 1.985 . S
N333 C335 1.335 . S
N333 C336 1.390 . S
N334 C335 1.345 . S
N334 C337 1.336 . S
C335 N333 1.335 . S
C335 N334 1.345 . S
C335 H340 0.930 . S
C336 N333 1.390 . S
C336 C337 1.346 . S
C336 H341 0.930 . S
C337 N334 1.336 . S
C337 C336 1.346 . S
C337 H344 0.929 . S
C338 O328 1.282 . S
C338 O339 1.216 . S
O339 C338 1.216 . S
H340 C335 0.930 . S
H341 C336 0.930 . S
O342 Cu322 1.959 . S
O342 C329 1.251 . S
H343 C326 0.930 . S
H344 C337 0.929 . S
Cu345 N346 1.999 . S
Cu345 O351 1.974 . S
Cu345 N356 1.985 . S
Cu345 O365 1.959 . S
N346 Cu345 1.999 . S
N346 C348 1.263 . S
N346 C350 1.389 . S
N347 C348 1.358 . S
N347 C349 1.400 . S
C348 N346 1.263 . S
C348 N347 1.358 . S
C348 H354 0.930 . S
C349 N347 1.400 . S
C349 C350 1.351 . S
C349 H366 0.930 . S
C350 N346 1.389 . S
C350 C349 1.351 . S
C350 H355 0.930 . S
O351 Cu345 1.974 . S
O351 C361 1.282 . S
C352 O353 1.261 . S
C352 O365 1.251 . S
O353 C352 1.261 . S
H354 C348 0.930 . S
H355 C350 0.930 . S
N356 Cu345 1.985 . S
N356 C358 1.335 . S
N356 C359 1.390 . S
N357 C358 1.345 . S
N357 C360 1.336 . S
C358 N356 1.335 . S
C358 N357 1.345 . S
C358 H363 0.930 . S
C359 N356 1.390 . S
C359 C360 1.346 . S
C359 H364 0.930 . S
C360 N357 1.336 . S
C360 C359 1.346 . S
C360 H367 0.929 . S
C361 O351 1.282 . S
C361 O362 1.216 . S
O362 C361 1.216 . S
H363 C358 0.930 . S
H364 C359 0.930 . S
O365 Cu345 1.959 . S
O365 C352 1.251 . S
H366 C349 0.930 . S
H367 C360 0.929 . S
Cu368 N369 1.999 . S
Cu368 O374 1.974 . S
Cu368 N379 1.985 . S
Cu368 O388 1.959 . S
N369 Cu368 1.999 . S
N369 C371 1.263 . S
N369 C373 1.389 . S
N370 C371 1.358 . S
N370 C372 1.400 . S
C371 N369 1.263 . S
C371 N370 1.358 . S
C371 H377 0.930 . S
C372 N370 1.400 . S
C372 C373 1.351 . S
C372 H389 0.930 . S
C373 N369 1.389 . S
C373 C372 1.351 . S
C373 H378 0.930 . S
O374 Cu368 1.974 . S
O374 C384 1.282 . S
C375 O376 1.261 . S
C375 O388 1.251 . S
O376 C375 1.261 . S
H377 C371 0.930 . S
H378 C373 0.930 . S
N379 Cu368 1.985 . S
N379 C381 1.335 . S
N379 C382 1.390 . S
N380 C381 1.345 . S
N380 C383 1.336 . S
C381 N379 1.335 . S
C381 N380 1.345 . S
C381 H386 0.930 . S
C382 N379 1.390 . S
C382 C383 1.346 . S
C382 H387 0.930 . S
C383 N380 1.336 . S
C383 C382 1.346 . S
C383 H390 0.929 . S
C384 O374 1.282 . S
C384 O385 1.216 . S
O385 C384 1.216 . S
H386 C381 0.930 . S
H387 C382 0.930 . S
O388 Cu368 1.959 . S
O388 C375 1.251 . S
H389 C372 0.930 . S
H390 C383 0.929 . S
Cu391 N392 1.999 . S
Cu391 O397 1.974 . S
Cu391 N402 1.985 . S
Cu391 O411 1.959 . S
N392 Cu391 1.999 . S
N392 C394 1.263 . S
N392 C396 1.389 . S
N393 C394 1.358 . S
N393 C395 1.400 . S
C394 N392 1.263 . S
C394 N393 1.358 . S
C394 H400 0.930 . S
C395 N393 1.400 . S
C395 C396 1.351 . S
C395 H412 0.930 . S
C396 N392 1.389 . S
C396 C395 1.351 . S
C396 H401 0.930 . S
O397 Cu391 1.974 . S
O397 C407 1.282 . S
C398 O399 1.261 . S
C398 O411 1.251 . S
O399 C398 1.261 . S
H400 C394 0.930 . S
H401 C396 0.930 . S
N402 Cu391 1.985 . S
N402 C404 1.335 . S
N402 C405 1.390 . S
N403 C404 1.345 . S
N403 C406 1.336 . S
C404 N402 1.335 . S
C404 N403 1.345 . S
C404 H409 0.930 . S
C405 N402 1.390 . S
C405 C406 1.346 . S
C405 H410 0.930 . S
C406 N403 1.336 . S
C406 C405 1.346 . S
C406 H413 0.929 . S
C407 O397 1.282 . S
C407 O408 1.216 . S
O408 C407 1.216 . S
H409 C404 0.930 . S
H410 C405 0.930 . S
O411 Cu391 1.959 . S
O411 C398 1.251 . S
H412 C395 0.930 . S
H413 C406 0.929 . S
C414 C415 1.387 . S
C414 H418 0.950 . S
C414 C423 1.390 . S
C415 C414 1.387 . S
C415 C417 1.387 1_455 S
H416 C423 0.950 . S
C417 C415 1.387 1_655 S
C417 C419 1.390 1_655 S
C417 H421 0.950 . S
H418 C414 0.950 . S
C419 C417 1.390 1_455 S
C419 C420 1.387 . S
C419 H422 0.950 . S
C420 C419 1.387 . S
C420 C423 1.387 . S
H421 C417 0.950 . S
H422 C419 0.950 . S
C423 C414 1.390 . S
C423 H416 0.950 . S
C423 C420 1.387 . S
C424 C425 1.387 . S
C424 H428 0.950 . S
C424 C433 1.390 . S
C425 C424 1.387 . S
C425 C427 1.387 . S
H426 C433 0.950 . S
C427 C425 1.387 . S
C427 C429 1.390 . S
C427 H431 0.950 . S
H428 C424 0.950 . S
C429 C427 1.390 . S
C429 C430 1.387 . S
C429 H432 0.950 . S
C430 C429 1.387 . S
C430 C433 1.387 . S
H431 C427 0.950 . S
H432 C429 0.950 . S
C433 C424 1.390 . S
C433 H426 0.950 . S
C433 C430 1.387 . S
C434 C435 1.373 1_545 S
C434 H438 0.950 1_545 S
C434 C443 1.390 . S
C435 C434 1.373 1_565 S
C435 C437 1.396 1_565 S
H436 C443 0.950 . S
C437 C435 1.396 1_545 S
C437 C439 1.390 . S
C437 H441 0.950 . S
H438 C434 0.950 1_565 S
C439 C437 1.390 . S
C439 C440 1.387 . S
C439 H442 0.950 . S
C440 C439 1.387 . S
C440 C443 1.387 . S
H441 C437 0.950 . S
H442 C439 0.950 . S
C443 C434 1.390 . S
C443 H436 0.950 . S
C443 C440 1.387 . S
C444 C445 1.387 . S
C444 H448 0.951 1_455 S
C444 C453 1.390 . S
C445 C444 1.387 . S
C445 C447 1.387 . S
H446 C453 0.950 . S
C447 C445 1.387 . S
C447 C449 1.390 . S
C447 H451 0.950 . S
H448 C444 0.951 1_655 S
C449 C447 1.390 . S
C449 C450 1.387 . S
C449 H452 0.950 . S
C450 C449 1.387 . S
C450 C453 1.387 . S
H451 C447 0.950 . S
H452 C449 0.950 . S
C453 C444 1.390 . S
C453 H446 0.950 . S
C453 C450 1.387 . S
C454 C455 1.387 . S
C454 H458 0.950 . S
C454 C463 1.390 . S
C455 C454 1.387 . S
C455 C457 1.387 . S
H456 C463 0.950 . S
C457 C455 1.387 . S
C457 C459 1.390 . S
C457 H461 0.950 . S
H458 C454 0.950 . S
C459 C457 1.390 . S
C459 C460 1.387 . S
C459 H462 0.950 . S
C460 C459 1.387 . S
C460 C463 1.387 . S
H461 C457 0.950 . S
H462 C459 0.950 . S
C463 C454 1.390 . S
C463 H456 0.950 . S
C463 C460 1.387 . S
C464 C465 1.387 1_565 S
C464 H468 0.950 . S
C464 C473 1.390 . S
C465 C464 1.387 1_545 S
C465 C467 1.387 . S
H466 C473 0.950 . S
C467 C465 1.387 . S
C467 C469 1.390 . S
C467 H471 0.950 . S
H468 C464 0.950 . S
C469 C467 1.390 . S
C469 C470 1.387 . S
C469 H472 0.950 . S
C470 C469 1.387 . S
C470 C473 1.387 1_545 S
H471 C467 0.950 . S
H472 C469 0.950 . S
C473 C464 1.390 . S
C473 H466 0.950 . S
C473 C470 1.387 1_565 S
C474 C475 1.387 . S
C474 H478 0.950 . S
C474 C483 1.390 . S
C475 C474 1.387 . S
C475 C477 1.387 . S
H476 C483 0.950 . S
C477 C475 1.387 . S
C477 C479 1.390 . S
C477 H481 0.950 . S
H478 C474 0.950 . S
C479 C477 1.390 . S
C479 C480 1.387 . S
C479 H482 0.950 . S
C480 C479 1.387 . S
C480 C483 1.387 . S
H481 C477 0.950 . S
H482 C479 0.950 . S
C483 C474 1.390 . S
C483 H476 0.950 . S
C483 C480 1.387 . S
C484 C485 1.387 . S
C484 H488 0.950 . S
C484 C493 1.390 . S
C485 C484 1.387 . S
C485 C487 1.387 . S
H486 C493 0.950 . S
C487 C485 1.387 . S
C487 C489 1.390 . S
C487 H491 0.950 . S
H488 C484 0.950 . S
C489 C487 1.390 . S
C489 C490 1.387 . S
C489 H492 0.950 . S
C490 C489 1.387 . S
C490 C493 1.387 . S
H491 C487 0.950 . S
H492 C489 0.950 . S
C493 C484 1.390 . S
C493 H486 0.950 . S
C493 C490 1.387 . S
C494 C495 1.387 . S
C494 H498 0.950 . S
C494 C503 1.390 . S
C495 C494 1.387 . S
C495 C497 1.387 . S
H496 C503 0.950 . S
C497 C495 1.387 . S
C497 C499 1.390 . S
C497 H501 0.950 . S
H498 C494 0.950 . S
C499 C497 1.390 . S
C499 C500 1.387 . S
C499 H502 0.950 . S
C500 C499 1.387 . S
C500 C503 1.387 . S
H501 C497 0.950 . S
H502 C499 0.950 . S
C503 C494 1.390 . S
C503 H496 0.950 . S
C503 C500 1.387 . S
C504 C505 1.387 . S
C504 H508 0.950 . S
C504 C513 1.390 . S
C505 C504 1.387 . S
C505 C507 1.387 . S
H506 C513 0.950 . S
C507 C505 1.387 . S
C507 C509 1.390 . S
C507 H511 0.950 . S
H508 C504 0.950 . S
C509 C507 1.390 . S
C509 C510 1.387 . S
C509 H512 0.950 . S
C510 C509 1.387 . S
C510 C513 1.387 . S
H511 C507 0.950 . S
H512 C509 0.950 . S
C513 C504 1.390 . S
C513 H506 0.950 . S
C513 C510 1.387 . S
C514 C515 1.387 . S
C514 H518 0.950 . S
C514 C523 1.390 . S
C515 C514 1.387 . S
C515 C517 1.387 . S
H516 C523 0.950 . S
C517 C515 1.387 . S
C517 C519 1.390 . S
C517 H521 0.950 . S
H518 C514 0.950 . S
C519 C517 1.390 . S
C519 C520 1.387 . S
C519 H522 0.950 . S
C520 C519 1.387 . S
C520 C523 1.387 . S
H521 C517 0.950 . S
H522 C519 0.950 . S
C523 C514 1.390 . S
C523 H516 0.950 . S
C523 C520 1.387 . S
C524 C525 1.387 . S
C524 H528 0.950 . S
C524 C533 1.390 . S
C525 C524 1.387 . S
C525 C527 1.387 . S
H526 C533 0.950 . S
C527 C525 1.387 . S
C527 C529 1.390 . S
C527 H531 0.950 . S
H528 C524 0.950 . S
C529 C527 1.390 . S
C529 C530 1.387 . S
C529 H532 0.950 . S
C530 C529 1.387 . S
C530 C533 1.387 . S
H531 C527 0.950 . S
H532 C529 0.950 . S
C533 C524 1.390 . S
C533 H526 0.950 . S
C533 C530 1.387 . S
C534 C535 1.387 . S
C534 H538 0.950 . S
C534 C543 1.390 . S
C535 C534 1.387 . S
C535 C537 1.387 . S
H536 C543 0.950 . S
C537 C535 1.387 . S
C537 C539 1.390 . S
C537 H541 0.950 . S
H538 C534 0.950 . S
C539 C537 1.390 . S
C539 C540 1.387 . S
C539 H542 0.950 . S
C540 C539 1.387 . S
C540 C543 1.387 . S
H541 C537 0.950 . S
H542 C539 0.950 . S
C543 C534 1.390 . S
C543 H536 0.950 . S
C543 C540 1.387 . S
C544 C545 1.387 . S
C544 H548 0.950 . S
C544 C553 1.390 . S
C545 C544 1.387 . S
C545 C547 1.387 . S
H546 C553 0.950 . S
C547 C545 1.387 . S
C547 C549 1.390 . S
C547 H551 0.950 . S
H548 C544 0.950 . S
C549 C547 1.390 . S
C549 C550 1.387 . S
C549 H552 0.950 . S
C550 C549 1.387 . S
C550 C553 1.387 . S
H551 C547 0.950 . S
H552 C549 0.950 . S
C553 C544 1.390 . S
C553 H546 0.950 . S
C553 C550 1.387 . S
C554 C555 1.387 . S
C554 H558 0.950 . S
C554 C563 1.390 . S
C555 C554 1.387 . S
C555 C557 1.387 . S
H556 C563 0.950 . S
C557 C555 1.387 . S
C557 C559 1.390 . S
C557 H561 0.950 . S
H558 C554 0.950 . S
C559 C557 1.390 . S
C559 C560 1.387 . S
C559 H562 0.950 . S
C560 C559 1.387 . S
C560 C563 1.387 . S
H561 C557 0.950 . S
H562 C559 0.950 . S
C563 C554 1.390 . S
C563 H556 0.950 . S
C563 C560 1.387 . S
C564 C565 1.387 . S
C564 H568 0.950 . S
C564 C573 1.390 . S
C565 C564 1.387 . S
C565 C567 1.387 . S
H566 C573 0.950 . S
C567 C565 1.387 . S
C567 C569 1.390 . S
C567 H571 0.950 . S
H568 C564 0.950 . S
C569 C567 1.390 . S
C569 C570 1.387 . S
C569 H572 0.950 . S
C570 C569 1.387 . S
C570 C573 1.387 . S
H571 C567 0.950 . S
H572 C569 0.950 . S
C573 C564 1.390 . S
C573 H566 0.950 . S
C573 C570 1.387 . S
C574 C575 1.387 . S
C574 H578 0.950 . S
C574 C583 1.390 . S
C575 C574 1.387 . S
C575 C577 1.387 . S
H576 C583 0.950 . S
C577 C575 1.387 . S
C577 C579 1.390 . S
C577 H581 0.950 . S
H578 C574 0.950 . S
C579 C577 1.390 . S
C579 C580 1.387 . S
C579 H582 0.950 . S
C580 C579 1.387 . S
C580 C583 1.387 . S
H581 C577 0.950 . S
H582 C579 0.950 . S
C583 C574 1.390 . S
C583 H576 0.950 . S
C583 C580 1.387 . S
C584 C585 1.387 . S
C584 H588 0.950 . S
C584 C593 1.390 . S
C585 C584 1.387 . S
C585 C587 1.387 . S
H586 C593 0.950 . S
C587 C585 1.387 . S
C587 C589 1.390 . S
C587 H591 0.950 . S
H588 C584 0.950 . S
C589 C587 1.390 . S
C589 C590 1.387 . S
C589 H592 0.950 . S
C590 C589 1.387 . S
C590 C593 1.387 . S
H591 C587 0.950 . S
H592 C589 0.950 . S
C593 C584 1.390 . S
C593 H586 0.950 . S
C593 C590 1.387 . S
C594 C595 1.387 . S
C594 H598 0.950 . S
C594 C603 1.390 . S
C595 C594 1.387 . S
C595 C597 1.387 . S
H596 C603 0.950 . S
C597 C595 1.387 . S
C597 C599 1.390 . S
C597 H601 0.950 . S
H598 C594 0.950 . S
C599 C597 1.390 . S
C599 C600 1.387 . S
C599 H602 0.950 . S
C600 C599 1.387 . S
C600 C603 1.387 . S
H601 C597 0.950 . S
H602 C599 0.950 . S
C603 C594 1.390 . S
C603 H596 0.950 . S
C603 C600 1.387 . S
C604 C605 1.387 . S
C604 H608 0.950 . S
C604 C613 1.390 . S
C605 C604 1.387 . S
C605 C607 1.387 . S
H606 C613 0.950 . S
C607 C605 1.387 . S
C607 C609 1.390 . S
C607 H611 0.950 . S
H608 C604 0.950 . S
C609 C607 1.390 . S
C609 C610 1.387 . S
C609 H612 0.950 . S
C610 C609 1.387 . S
C610 C613 1.387 . S
H611 C607 0.950 . S
H612 C609 0.950 . S
C613 C604 1.390 . S
C613 H606 0.950 . S
C613 C610 1.387 . S
C614 C615 1.387 . S
C614 H618 0.950 . S
C614 C623 1.390 . S
C615 C614 1.387 . S
C615 C617 1.387 . S
H616 C623 0.950 . S
C617 C615 1.387 . S
C617 C619 1.390 . S
C617 H621 0.950 . S
H618 C614 0.950 . S
C619 C617 1.390 . S
C619 C620 1.387 . S
C619 H622 0.950 . S
C620 C619 1.387 . S
C620 C623 1.387 . S
H621 C617 0.950 . S
H622 C619 0.950 . S
C623 C614 1.390 . S
C623 H616 0.950 . S
C623 C620 1.387 . S
C624 C625 1.387 . S
C624 H628 0.964 . S
C624 C633 1.390 . S
C625 C624 1.387 . S
C625 C627 1.387 . S
H626 C633 0.950 . S
C627 C625 1.387 . S
C627 C629 1.390 . S
C627 H631 0.950 . S
H628 C624 0.964 . S
C629 C627 1.390 . S
C629 C630 1.387 . S
C629 H632 0.950 . S
C630 C629 1.387 . S
C630 C633 1.387 . S
H631 C627 0.950 . S
H632 C629 0.950 . S
C633 C624 1.390 . S
C633 H626 0.950 . S
C633 C630 1.387 . S
C634 C635 1.387 . S
C634 H638 0.950 . S
C634 C643 1.390 . S
C635 C634 1.387 . S
C635 C637 1.387 . S
H636 C643 0.950 . S
C637 C635 1.387 . S
C637 C639 1.390 . S
C637 H641 0.950 . S
H638 C634 0.950 . S
C639 C637 1.390 . S
C639 C640 1.387 . S
C639 H642 0.950 1_655 S
C640 C639 1.387 . S
C640 C643 1.387 . S
H641 C637 0.950 . S
H642 C639 0.950 1_455 S
C643 C634 1.390 . S
C643 H636 0.950 . S
C643 C640 1.387 . S
C644 C645 1.387 . S
C644 H648 0.950 . S
C644 C653 1.390 . S
C645 C644 1.387 . S
C645 C647 1.387 . S
H646 C653 0.950 . S
C647 C645 1.387 . S
C647 C649 1.390 . S
C647 H651 0.950 . S
H648 C644 0.950 . S
C649 C647 1.390 . S
C649 C650 1.387 . S
C649 H652 0.950 . S
C650 C649 1.387 . S
C650 C653 1.387 . S
H651 C647 0.950 . S
H652 C649 0.950 . S
C653 C644 1.390 . S
C653 H646 0.950 . S
C653 C650 1.387 . S
C654 C655 1.387 . S
C654 H658 0.950 . S
C654 C663 1.390 . S
C655 C654 1.387 . S
C655 C657 1.387 . S
H656 C663 0.950 . S
C657 C655 1.387 . S
C657 C659 1.390 . S
C657 H661 0.950 . S
H658 C654 0.950 . S
C659 C657 1.390 . S
C659 C660 1.387 . S
C659 H662 0.950 . S
C660 C659 1.387 . S
C660 C663 1.387 . S
H661 C657 0.950 . S
H662 C659 0.950 . S
C663 C654 1.390 . S
C663 H656 0.950 . S
C663 C660 1.387 . S
C664 C665 1.387 . S
C664 H668 0.950 . S
C664 C673 1.390 . S
C665 C664 1.387 . S
C665 C667 1.387 . S
H666 C673 0.950 . S
C667 C665 1.387 . S
C667 C669 1.390 . S
C667 H671 0.950 . S
H668 C664 0.950 . S
C669 C667 1.390 . S
C669 C670 1.387 . S
C669 H672 0.950 . S
C670 C669 1.387 . S
C670 C673 1.387 . S
H671 C667 0.950 . S
H672 C669 0.950 . S
C673 C664 1.390 . S
C673 H666 0.950 . S
C673 C670 1.387 . S
C674 C675 1.387 . S
C674 H678 0.950 . S
C674 C683 1.390 . S
C675 C674 1.387 . S
C675 C677 1.387 . S
H676 C683 0.950 . S
C677 C675 1.387 . S
C677 C679 1.390 . S
C677 H681 0.950 . S
H678 C674 0.950 . S
C679 C677 1.390 . S
C679 C680 1.387 . S
C679 H682 0.950 . S
C680 C679 1.387 . S
C680 C683 1.387 . S
H681 C677 0.950 . S
H682 C679 0.950 . S
C683 C674 1.390 . S
C683 H676 0.950 . S
C683 C680 1.387 . S
C684 C685 1.387 . S
C684 H688 0.950 . S
C684 C693 1.390 . S
C685 C684 1.387 . S
C685 C687 1.387 . S
H686 C693 0.950 . S
C687 C685 1.387 . S
C687 C689 1.390 . S
C687 H691 0.950 . S
H688 C684 0.950 . S
C689 C687 1.390 . S
C689 C690 1.387 . S
C689 H692 0.950 . S
C690 C689 1.387 . S
C690 C693 1.387 . S
H691 C687 0.950 . S
H692 C689 0.950 . S
C693 C684 1.390 . S
C693 H686 0.950 . S
C693 C690 1.387 . S
C694 C695 1.387 . S
C694 H698 0.950 . S
C694 C703 1.390 . S
C695 C694 1.387 . S
C695 C697 1.387 . S
H696 C703 0.950 . S
C697 C695 1.387 . S
C697 C699 1.390 . S
C697 H701 0.950 . S
H698 C694 0.950 . S
C699 C697 1.390 . S
C699 C700 1.387 . S
C699 H702 0.950 . S
C700 C699 1.387 . S
C700 C703 1.387 . S
H701 C697 0.950 . S
H702 C699 0.950 . S
C703 C694 1.390 . S
C703 H696 0.950 . S
C703 C700 1.387 . S
C704 C705 1.387 . S
C704 H708 0.950 . S
C704 C713 1.390 . S
C705 C704 1.387 . S
C705 C707 1.387 . S
H706 C713 0.950 . S
C707 C705 1.387 . S
C707 C709 1.390 . S
C707 H711 0.950 . S
H708 C704 0.950 . S
C709 C707 1.390 . S
C709 C710 1.387 . S
C709 H712 0.950 . S
C710 C709 1.387 . S
C710 C713 1.387 . S
H711 C707 0.950 . S
H712 C709 0.950 . S
C713 C704 1.390 . S
C713 H706 0.950 . S
C713 C710 1.387 . S
C714 C715 1.387 . S
C714 H718 0.950 . S
C714 C723 1.390 . S
C715 C714 1.387 . S
C715 C717 1.387 . S
H716 C723 0.950 . S
C717 C715 1.387 . S
C717 C719 1.390 . S
C717 H721 0.950 . S
H718 C714 0.950 . S
C719 C717 1.390 . S
C719 C720 1.387 . S
C719 H722 0.950 . S
C720 C719 1.387 . S
C720 C723 1.387 . S
H721 C717 0.950 . S
H722 C719 0.950 . S
C723 C714 1.390 . S
C723 H716 0.950 . S
C723 C720 1.387 . S
C724 C725 1.387 . S
C724 H728 0.950 . S
C724 C733 1.390 1_545 S
C725 C724 1.387 . S
C725 C727 1.387 1_545 S
H726 C733 0.950 . S
C727 C725 1.387 1_565 S
C727 C729 1.390 . S
C727 H731 0.950 1_565 S
H728 C724 0.950 . S
C729 C727 1.390 . S
C729 C730 1.387 . S
C729 H732 0.950 . S
C730 C729 1.387 . S
C730 C733 1.387 . S
H731 C727 0.950 1_545 S
H732 C729 0.950 . S
C733 C724 1.390 1_565 S
C733 H726 0.950 . S
C733 C730 1.387 . S
C734 C735 1.387 . S
C734 H738 0.950 . S
C734 C743 1.390 1_455 S
C735 C734 1.387 . S
C735 C737 1.387 . S
H736 C743 0.950 . S
C737 C735 1.387 . S
C737 C739 1.390 1_455 S
C737 H741 0.950 . S
H738 C734 0.950 . S
C739 C737 1.390 1_655 S
C739 C740 1.387 . S
C739 H742 0.950 . S
C740 C739 1.387 . S
C740 C743 1.387 . S
H741 C737 0.950 . S
H742 C739 0.950 . S
C743 C734 1.390 1_655 S
C743 H736 0.950 . S
C743 C740 1.387 . S
C744 C745 1.387 . S
C744 H748 0.950 . S
C744 C753 1.390 . S
C745 C744 1.387 . S
C745 C747 1.387 . S
H746 C753 0.950 . S
C747 C745 1.387 . S
C747 C749 1.390 . S
C747 H751 0.950 . S
H748 C744 0.950 . S
C749 C747 1.390 . S
C749 C750 1.387 . S
C749 H752 0.950 . S
C750 C749 1.387 . S
C750 C753 1.387 . S
H751 C747 0.950 . S
H752 C749 0.950 . S
C753 C744 1.390 . S
C753 H746 0.950 . S
C753 C750 1.387 . S
C754 C755 1.387 . S
C754 H758 0.950 . S
C754 C763 1.390 1_545 S
C755 C754 1.387 . S
C755 C757 1.387 . S
H756 C763 0.950 . S
C757 C755 1.387 . S
C757 C759 1.390 1_545 S
C757 H761 0.950 . S
H758 C754 0.950 . S
C759 C757 1.390 1_565 S
C759 C760 1.387 . S
C759 H762 0.950 . S
C760 C759 1.387 . S
C760 C763 1.387 . S
H761 C757 0.950 . S
H762 C759 0.950 . S
C763 C754 1.390 1_565 S
C763 H756 0.950 . S
C763 C760 1.387 . S
C764 C765 1.387 . S
C764 H768 0.950 . S
C764 C773 1.390 1_455 S
C765 C764 1.387 . S
C765 C767 1.387 . S
H766 C773 0.950 . S
C767 C765 1.387 . S
C767 C769 1.390 1_455 S
C767 H771 0.950 . S
H768 C764 0.950 . S
C769 C767 1.390 1_655 S
C769 C770 1.387 . S
C769 H772 0.950 . S
C770 C769 1.387 . S
C770 C773 1.387 . S
H771 C767 0.950 . S
H772 C769 0.950 . S
C773 C764 1.390 1_655 S
C773 H766 0.950 . S
C773 C770 1.387 . S
C415 N104 1.262 . S
C420 N12 1.263 . S
C425 N117 1.929 . S
C430 C39 1.940 . S
C435 N58 1.231 . S
C440 N71 1.251 . S
C445 N94 1.229 . S
C450 N2 1.233 . S
C455 N127 1.883 . S
C460 C30 1.920 . S
C465 N48 1.195 . S
C470 N81 1.200 . S
C475 N232 1.259 . S
C480 N150 1.243 . S
C485 N255 1.268 . S
C490 N173 1.246 . S
C495 N196 1.235 . S
C500 N209 1.253 . S
C505 N140 1.184 . S
C510 N242 1.176 1_554 S
C515 N265 1.172 1_554 S
C520 N163 1.189 . S
C525 N219 1.198 1_554 S
C530 N186 1.195 . S
C535 N380 1.268 1_556 S
C540 N288 1.266 . S
C545 C315 1.943 . S
C550 N403 1.910 1_556 S
C555 N347 1.242 1_556 S
C560 N324 1.242 . S
C565 N370 1.212 . S
C570 N278 1.215 . S
C575 N393 1.910 . S
C580 C306 1.933 . S
C585 N334 1.169 . S
C590 N357 1.169 . S
C595 C16 1.495 . S
C600 C214 1.516 . S
C605 C237 1.570 . S
C610 N35 1.541 . S
C615 C260 1.523 . S
C620 C62 1.526 . S
C625 C76 1.585 . S
C630 C292 1.597 . S
C635 N311 1.503 . S
C640 C108 1.513 . S
C645 C329 1.568 . S
C650 C122 1.567 . S
C655 C361 1.554 . S
C660 C7 1.544 . S
C665 C375 1.594 . S
C670 N25 1.611 . S
C675 C398 1.526 . S
C680 C53 1.526 . S
C685 C85 1.519 . S
C690 C145 1.541 . S
C695 C99 1.544 . S
C700 C168 1.542 . S
C705 C191 1.548 . S
C710 C131 1.522 . S
C715 C352 1.548 . S
C720 C154 1.547 . S
C725 C384 1.535 . S
C730 C177 1.574 . S
C735 C200 1.530 . S
C740 C407 1.521 . S
C745 C283 1.570 . S
C750 C223 1.563 . S
C755 N301 1.490 . S
C760 C246 1.502 . S
C765 C269 1.538 . S
C770 C338 1.562 . S
