# Generated by pormake.
# Topology zni, (4)-cn, num edge types: 1
# Building blocks:
#     Node 0, Type 0, BuildingBlock: CEKHIL_clean_sbu_0, # of connection points: 4
#     Node 1, Type 0, BuildingBlock: CEKHIL_clean_sbu_0, # of connection points: 4
#     Node 2, Type 0, BuildingBlock: CEKHIL_clean_sbu_0, # of connection points: 4
#     Node 3, Type 0, BuildingBlock: CEKHIL_clean_sbu_0, # of connection points: 4
#     Node 4, Type 0, BuildingBlock: CEKHIL_clean_sbu_0, # of connection points: 4
#     Node 5, Type 0, BuildingBlock: CEKHIL_clean_sbu_0, # of connection points: 4
#     Node 6, Type 0, BuildingBlock: CEKHIL_clean_sbu_0, # of connection points: 4
#     Node 7, Type 0, BuildingBlock: CEKHIL_clean_sbu_0, # of connection points: 4
#     Node 8, Type 0, BuildingBlock: CEKHIL_clean_sbu_0, # of connection points: 4
#     Node 9, Type 0, BuildingBlock: CEKHIL_clean_sbu_0, # of connection points: 4
#     Node 10, Type 0, BuildingBlock: CEKHIL_clean_sbu_0, # of connection points: 4
#     Node 11, Type 0, BuildingBlock: CEKHIL_clean_sbu_0, # of connection points: 4
#     Node 12, Type 0, BuildingBlock: CEKHIL_clean_sbu_0, # of connection points: 4
#     Node 13, Type 0, BuildingBlock: CEKHIL_clean_sbu_0, # of connection points: 4
#     Node 14, Type 0, BuildingBlock: CEKHIL_clean_sbu_0, # of connection points: 4
#     Node 15, Type 0, BuildingBlock: CEKHIL_clean_sbu_0, # of connection points: 4
#     Node 16, Type 0, BuildingBlock: CEKHIL_clean_sbu_0, # of connection points: 4
#     Node 17, Type 0, BuildingBlock: CEKHIL_clean_sbu_0, # of connection points: 4
#     Node 18, Type 0, BuildingBlock: CEKHIL_clean_sbu_0, # of connection points: 4
#     Node 19, Type 0, BuildingBlock: CEKHIL_clean_sbu_0, # of connection points: 4
#     Node 20, Type 0, BuildingBlock: CEKHIL_clean_sbu_0, # of connection points: 4
#     Node 21, Type 0, BuildingBlock: CEKHIL_clean_sbu_0, # of connection points: 4
#     Node 22, Type 0, BuildingBlock: CEKHIL_clean_sbu_0, # of connection points: 4
#     Node 23, Type 0, BuildingBlock: CEKHIL_clean_sbu_0, # of connection points: 4
#     Node 24, Type 0, BuildingBlock: CEKHIL_clean_sbu_0, # of connection points: 4
#     Node 25, Type 0, BuildingBlock: CEKHIL_clean_sbu_0, # of connection points: 4
#     Node 26, Type 0, BuildingBlock: CEKHIL_clean_sbu_0, # of connection points: 4
#     Node 27, Type 0, BuildingBlock: CEKHIL_clean_sbu_0, # of connection points: 4
#     Node 28, Type 0, BuildingBlock: CEKHIL_clean_sbu_0, # of connection points: 4
#     Node 29, Type 0, BuildingBlock: CEKHIL_clean_sbu_0, # of connection points: 4
#     Node 30, Type 0, BuildingBlock: CEKHIL_clean_sbu_0, # of connection points: 4
#     Node 31, Type 0, BuildingBlock: CEKHIL_clean_sbu_0, # of connection points: 4
#     Edge 32, Type (0, 0), BuildingBlock: TEMPAE_clean_linker_10, # of connection points: 2
#     Edge 33, Type (0, 0), BuildingBlock: TEMPAE_clean_linker_10, # of connection points: 2
#     Edge 34, Type (0, 0), BuildingBlock: TEMPAE_clean_linker_10, # of connection points: 2
#     Edge 35, Type (0, 0), BuildingBlock: TEMPAE_clean_linker_10, # of connection points: 2
#     Edge 36, Type (0, 0), BuildingBlock: TEMPAE_clean_linker_10, # of connection points: 2
#     Edge 37, Type (0, 0), BuildingBlock: TEMPAE_clean_linker_10, # of connection points: 2
#     Edge 38, Type (0, 0), BuildingBlock: TEMPAE_clean_linker_10, # of connection points: 2
#     Edge 39, Type (0, 0), BuildingBlock: TEMPAE_clean_linker_10, # of connection points: 2
#     Edge 40, Type (0, 0), BuildingBlock: TEMPAE_clean_linker_10, # of connection points: 2
#     Edge 41, Type (0, 0), BuildingBlock: TEMPAE_clean_linker_10, # of connection points: 2
#     Edge 42, Type (0, 0), BuildingBlock: TEMPAE_clean_linker_10, # of connection points: 2
#     Edge 43, Type (0, 0), BuildingBlock: TEMPAE_clean_linker_10, # of connection points: 2
#     Edge 44, Type (0, 0), BuildingBlock: TEMPAE_clean_linker_10, # of connection points: 2
#     Edge 45, Type (0, 0), BuildingBlock: TEMPAE_clean_linker_10, # of connection points: 2
#     Edge 46, Type (0, 0), BuildingBlock: TEMPAE_clean_linker_10, # of connection points: 2
#     Edge 47, Type (0, 0), BuildingBlock: TEMPAE_clean_linker_10, # of connection points: 2
#     Edge 48, Type (0, 0), BuildingBlock: TEMPAE_clean_linker_10, # of connection points: 2
#     Edge 49, Type (0, 0), BuildingBlock: TEMPAE_clean_linker_10, # of connection points: 2
#     Edge 50, Type (0, 0), BuildingBlock: TEMPAE_clean_linker_10, # of connection points: 2
#     Edge 51, Type (0, 0), BuildingBlock: TEMPAE_clean_linker_10, # of connection points: 2
#     Edge 52, Type (0, 0), BuildingBlock: TEMPAE_clean_linker_10, # of connection points: 2
#     Edge 53, Type (0, 0), BuildingBlock: TEMPAE_clean_linker_10, # of connection points: 2
#     Edge 54, Type (0, 0), BuildingBlock: TEMPAE_clean_linker_10, # of connection points: 2
#     Edge 55, Type (0, 0), BuildingBlock: TEMPAE_clean_linker_10, # of connection points: 2
#     Edge 56, Type (0, 0), BuildingBlock: TEMPAE_clean_linker_10, # of connection points: 2
#     Edge 57, Type (0, 0), BuildingBlock: TEMPAE_clean_linker_10, # of connection points: 2
#     Edge 58, Type (0, 0), BuildingBlock: TEMPAE_clean_linker_10, # of connection points: 2
#     Edge 59, Type (0, 0), BuildingBlock: TEMPAE_clean_linker_10, # of connection points: 2
#     Edge 60, Type (0, 0), BuildingBlock: TEMPAE_clean_linker_10, # of connection points: 2
#     Edge 61, Type (0, 0), BuildingBlock: TEMPAE_clean_linker_10, # of connection points: 2
#     Edge 62, Type (0, 0), BuildingBlock: TEMPAE_clean_linker_10, # of connection points: 2
#     Edge 63, Type (0, 0), BuildingBlock: TEMPAE_clean_linker_10, # of connection points: 2
#     Edge 64, Type (0, 0), BuildingBlock: TEMPAE_clean_linker_10, # of connection points: 2
#     Edge 65, Type (0, 0), BuildingBlock: TEMPAE_clean_linker_10, # of connection points: 2
#     Edge 66, Type (0, 0), BuildingBlock: TEMPAE_clean_linker_10, # of connection points: 2
#     Edge 67, Type (0, 0), BuildingBlock: TEMPAE_clean_linker_10, # of connection points: 2
#     Edge 68, Type (0, 0), BuildingBlock: TEMPAE_clean_linker_10, # of connection points: 2
#     Edge 69, Type (0, 0), BuildingBlock: TEMPAE_clean_linker_10, # of connection points: 2
#     Edge 70, Type (0, 0), BuildingBlock: TEMPAE_clean_linker_10, # of connection points: 2
#     Edge 71, Type (0, 0), BuildingBlock: TEMPAE_clean_linker_10, # of connection points: 2
#     Edge 72, Type (0, 0), BuildingBlock: TEMPAE_clean_linker_10, # of connection points: 2
#     Edge 73, Type (0, 0), BuildingBlock: TEMPAE_clean_linker_10, # of connection points: 2
#     Edge 74, Type (0, 0), BuildingBlock: TEMPAE_clean_linker_10, # of connection points: 2
#     Edge 75, Type (0, 0), BuildingBlock: TEMPAE_clean_linker_10, # of connection points: 2
#     Edge 76, Type (0, 0), BuildingBlock: TEMPAE_clean_linker_10, # of connection points: 2
#     Edge 77, Type (0, 0), BuildingBlock: TEMPAE_clean_linker_10, # of connection points: 2
#     Edge 78, Type (0, 0), BuildingBlock: TEMPAE_clean_linker_10, # of connection points: 2
#     Edge 79, Type (0, 0), BuildingBlock: TEMPAE_clean_linker_10, # of connection points: 2
#     Edge 80, Type (0, 0), BuildingBlock: TEMPAE_clean_linker_10, # of connection points: 2
#     Edge 81, Type (0, 0), BuildingBlock: TEMPAE_clean_linker_10, # of connection points: 2
#     Edge 82, Type (0, 0), BuildingBlock: TEMPAE_clean_linker_10, # of connection points: 2
#     Edge 83, Type (0, 0), BuildingBlock: TEMPAE_clean_linker_10, # of connection points: 2
#     Edge 84, Type (0, 0), BuildingBlock: TEMPAE_clean_linker_10, # of connection points: 2
#     Edge 85, Type (0, 0), BuildingBlock: TEMPAE_clean_linker_10, # of connection points: 2
#     Edge 86, Type (0, 0), BuildingBlock: TEMPAE_clean_linker_10, # of connection points: 2
#     Edge 87, Type (0, 0), BuildingBlock: TEMPAE_clean_linker_10, # of connection points: 2
#     Edge 88, Type (0, 0), BuildingBlock: TEMPAE_clean_linker_10, # of connection points: 2
#     Edge 89, Type (0, 0), BuildingBlock: TEMPAE_clean_linker_10, # of connection points: 2
#     Edge 90, Type (0, 0), BuildingBlock: TEMPAE_clean_linker_10, # of connection points: 2
#     Edge 91, Type (0, 0), BuildingBlock: TEMPAE_clean_linker_10, # of connection points: 2
#     Edge 92, Type (0, 0), BuildingBlock: TEMPAE_clean_linker_10, # of connection points: 2
#     Edge 93, Type (0, 0), BuildingBlock: TEMPAE_clean_linker_10, # of connection points: 2
#     Edge 94, Type (0, 0), BuildingBlock: TEMPAE_clean_linker_10, # of connection points: 2
#     Edge 95, Type (0, 0), BuildingBlock: TEMPAE_clean_linker_10, # of connection points: 2
# Relax obj value: 0.226
# Max RMSD: 0.114
# Mean RMSD: 0.114
data_MOF--net-zni--node1-CEKHIL_clean_sbu_0--edge1-TEMPAE_clean_linker_10
_symmetry_space_group_name_H-M    P1
_symmetry_Int_Tables_number       1
_symmetry_cell_setting            triclinic
loop_
_symmetry_equiv_pos_as_xyz
'x, y, z'
_cell_length_a     58.392035
_cell_length_b     58.391142
_cell_length_c     29.752675
_cell_angle_alpha  90.005117
_cell_angle_beta   90.030826
_cell_angle_gamma 89.999791
loop_
_atom_site_label
_atom_site_type_symbol
_atom_site_fract_x
_atom_site_fract_y
_atom_site_fract_z
_atom_type_partial_charge
Co0 Co 0.07914 0.0851 0.43213 0.0
O1 O 0.07276 0.05296 0.42443 0.0
O2 O 0.08384 0.07679 0.37047 0.0
C3 C 0.10028 0.08253 0.49494 0.0
O4 O 0.08861 0.11843 0.42673 0.0
Co5 Co 0.06194 0.11272 0.51456 0.0
O6 O 0.08187 0.13751 0.49098 0.0
C7 C 0.02983 0.10198 0.44108 0.0
C8 C 0.07797 0.05622 0.38243 0.0
C9 C 0.09017 0.13642 0.45145 0.0
O10 O 0.04626 0.09299 0.41837 0.0
O11 O 0.03226 0.10954 0.48119 0.0
O12 O 0.10942 0.07812 0.45603 0.0
O13 O 0.07836 0.0856 0.49495 0.0
Co14 Co 0.16559 0.8341 0.68419 0.0
O15 O 0.19681 0.82759 0.66786 0.0
O16 O 0.17094 0.84408 0.6237 0.0
C17 C 0.17233 0.84954 0.75215 0.0
O18 O 0.13249 0.84426 0.68865 0.0
Co19 Co 0.14203 0.81021 0.76492 0.0
O20 O 0.11539 0.83018 0.75036 0.0
C21 C 0.15141 0.78423 0.68257 0.0
C22 C 0.1917 0.83658 0.62913 0.0
C23 C 0.11512 0.84246 0.71492 0.0
O24 O 0.15585 0.80302 0.66188 0.0
O25 O 0.14804 0.78305 0.725 0.0
O26 O 0.17497 0.86173 0.71596 0.0
O27 O 0.16834 0.82801 0.74572 0.0
Co28 Co 0.42206 0.90771 0.91726 0.0
O29 O 0.43051 0.93906 0.90602 0.0
O30 O 0.4175 0.91459 0.85485 0.0
C31 C 0.4012 0.91368 0.97952 0.0
O32 O 0.41096 0.87475 0.9155 0.0
Co33 Co 0.4371 0.88132 0.00264 0.0
O34 O 0.41281 0.85928 0.98454 0.0
C35 C 0.4701 0.88823 0.92852 0.0
C36 C 0.42478 0.93503 0.86452 0.0
C37 C 0.40621 0.8588 0.94377 0.0
O38 O 0.45434 0.89769 0.90477 0.0
O39 O 0.46703 0.88148 0.96906 0.0
O40 O 0.39231 0.91722 0.94007 0.0
O41 O 0.42287 0.90908 0.98007 0.0
Co42 Co 0.33772 0.17015 0.18102 0.0
O43 O 0.3061 0.17747 0.16962 0.0
O44 O 0.33056 0.16356 0.11947 0.0
C45 C 0.33291 0.1509 0.2456 0.0
O46 O 0.37086 0.15952 0.17986 0.0
Co47 Co 0.36388 0.18895 0.26391 0.0
O48 O 0.38873 0.16794 0.24471 0.0
C49 C 0.35543 0.21928 0.18644 0.0
C50 C 0.30997 0.1705 0.12882 0.0
C51 C 0.38831 0.15843 0.20618 0.0
O52 O 0.34694 0.20233 0.16441 0.0
O53 O 0.36183 0.21782 0.22751 0.0
O54 O 0.3291 0.14091 0.20728 0.0
O55 O 0.33674 0.1727 0.24374 0.0
Co56 Co 0.08357 0.90888 0.08964 0.0
O57 O 0.07854 0.94047 0.10495 0.0
O58 O 0.08749 0.91278 0.15332 0.0
C59 C 0.1061 0.91461 0.02953 0.0
O60 O 0.09084 0.87492 0.08685 0.0
Co61 Co 0.06731 0.88785 -0.00068 0.0
O62 O 0.08896 0.86279 0.01522 0.0
C63 C 0.03384 0.89575 0.07226 0.0
C64 C 0.08273 0.93417 0.14601 0.0
C65 C 0.09464 0.85991 0.05615 0.0
O66 O 0.0501 0.90216 0.09855 0.0
O67 O 0.03698 0.89053 0.03088 0.0
O68 O 0.1147 0.91563 0.06981 0.0
O69 O 0.08408 0.9127 0.02738 0.0
Co70 Co 0.32888 0.83731 0.31607 0.0
O71 O 0.29768 0.83111 0.33275 0.0
O72 O 0.32424 0.84592 0.37763 0.0
C73 C 0.32235 0.85456 0.24985 0.0
O74 O 0.36215 0.84685 0.31121 0.0
Co75 Co 0.35101 0.81466 0.23229 0.0
O76 O 0.37792 0.83428 0.24686 0.0
C77 C 0.34208 0.78711 0.31279 0.0
C78 C 0.30328 0.83897 0.37216 0.0
C79 C 0.37896 0.84563 0.28344 0.0
O80 O 0.3381 0.80551 0.33516 0.0
O81 O 0.34504 0.78679 0.27018 0.0
O82 O 0.32005 0.86593 0.28716 0.0
O83 O 0.32551 0.83277 0.25427 0.0
Co84 Co 0.42475 0.08381 0.57273 0.0
O85 O 0.43389 0.0529 0.58627 0.0
O86 O 0.41879 0.07749 0.6349 0.0
C87 C 0.40559 0.07694 0.50877 0.0
O88 O 0.41236 0.11631 0.57162 0.0
Co89 Co 0.44182 0.10931 0.48752 0.0
O90 O 0.41945 0.13325 0.50521 0.0
C91 C 0.47276 0.10403 0.56514 0.0
C92 C 0.42695 0.0572 0.62694 0.0
C93 C 0.41015 0.13309 0.54394 0.0
O94 O 0.45641 0.09506 0.5881 0.0
O95 O 0.47082 0.10955 0.52367 0.0
O96 O 0.39591 0.07319 0.54741 0.0
O97 O 0.42718 0.0818 0.51018 0.0
Co98 Co 0.16588 0.17026 0.82778 0.0
O99 O 0.19668 0.17768 0.84501 0.0
O100 O 0.17053 0.16206 0.88971 0.0
C101 C 0.17344 0.15293 0.76212 0.0
O102 O 0.13292 0.15967 0.82167 0.0
Co103 Co 0.14422 0.19257 0.74311 0.0
O104 O 0.11786 0.17202 0.75638 0.0
C105 C 0.15132 0.22012 0.82418 0.0
C106 C 0.19121 0.16984 0.88444 0.0
C107 C 0.11654 0.16055 0.79278 0.0
O108 O 0.15548 0.20174 0.8464 0.0
O109 O 0.14889 0.22058 0.78144 0.0
O110 O 0.17589 0.14186 0.79972 0.0
O111 O 0.16964 0.17465 0.76601 0.0
Co112 Co 0.92129 0.91307 0.57152 0.0
O113 O 0.93029 0.94435 0.58262 0.0
O114 O 0.91515 0.92073 0.63297 0.0
C115 C 0.90242 0.91889 0.50658 0.0
O116 O 0.90922 0.88051 0.57366 0.0
Co117 Co 0.93764 0.885 0.48927 0.0
O118 O 0.91257 0.8636 0.50619 0.0
C119 C 0.96884 0.89175 0.56666 0.0
C120 C 0.92324 0.94087 0.62354 0.0
C121 C 0.90491 0.86408 0.54622 0.0
O122 O 0.95285 0.90218 0.58816 0.0
O123 O 0.96657 0.88463 0.52615 0.0
O124 O 0.89254 0.92316 0.54481 0.0
O125 O 0.9239 0.9136 0.50875 0.0
Co126 Co 0.83623 0.16703 0.31809 0.0
O127 O 0.80526 0.17618 0.33144 0.0
O128 O 0.82954 0.16046 0.3799 0.0
C129 C 0.82964 0.14863 0.25302 0.0
O130 O 0.86869 0.15452 0.31733 0.0
Co131 Co 0.86239 0.18491 0.2344 0.0
O132 O 0.8862 0.16231 0.25183 0.0
C133 C 0.85655 0.21515 0.31293 0.0
C134 C 0.80935 0.16891 0.37199 0.0
C135 C 0.8857 0.15257 0.29014 0.0
O136 O 0.84754 0.19852 0.33508 0.0
O137 O 0.86223 0.21362 0.27148 0.0
O138 O 0.82566 0.13851 0.29114 0.0
O139 O 0.83463 0.17016 0.25556 0.0
Co140 Co 0.58115 0.08545 0.06533 0.0
O141 O 0.57222 0.05426 0.07747 0.0
O142 O 0.58673 0.07854 0.12737 0.0
C143 C 0.60086 0.07965 0.0015 0.0
O144 O 0.5932 0.11804 0.06626 0.0
Co145 Co 0.56452 0.11199 0.98103 0.0
O146 O 0.58637 0.13602 0.00084 0.0
C147 C 0.53302 0.10546 0.05734 0.0
C148 C 0.57877 0.05827 0.11854 0.0
C149 C 0.59539 0.13531 0.03982 0.0
O150 O 0.54925 0.09624 0.08029 0.0
O151 O 0.53524 0.11157 0.01625 0.0
O152 O 0.61029 0.07545 0.04023 0.0
O153 O 0.57921 0.08425 0.00256 0.0
Co154 Co 0.66804 0.83012 0.80934 0.0
O155 O 0.69956 0.82295 0.82309 0.0
O156 O 0.67424 0.83719 0.87114 0.0
C157 C 0.67351 0.8489 0.74414 0.0
O158 O 0.63486 0.84053 0.80862 0.0
Co159 Co 0.6429 0.81108 0.72516 0.0
O160 O 0.61747 0.8316 0.74356 0.0
C161 C 0.65 0.78116 0.80393 0.0
C162 C 0.69495 0.83011 0.8635 0.0
C163 C 0.61752 0.84122 0.78201 0.0
O164 O 0.65855 0.79802 0.8262 0.0
O165 O 0.64417 0.78256 0.76253 0.0
O166 O 0.67687 0.85924 0.78228 0.0
O167 O 0.66982 0.82712 0.74672 0.0
Co168 Co 0.92008 0.08779 0.91933 0.0
O169 O 0.93011 0.05725 0.90467 0.0
O170 O 0.91373 0.08163 0.85725 0.0
C171 C 0.90181 0.08003 0.984 0.0
O172 O 0.90653 0.11978 0.92138 0.0
Co173 Co 0.93709 0.11366 0.00412 0.0
O174 O 0.91395 0.13705 0.98736 0.0
C175 C 0.96763 0.10924 0.92576 0.0
C176 C 0.92268 0.06159 0.86431 0.0
C177 C 0.90411 0.13647 0.94915 0.0
O178 O 0.95125 0.10014 0.90301 0.0
O179 O 0.96588 0.11445 0.96741 0.0
O180 O 0.89187 0.07609 0.94565 0.0
O181 O 0.9232 0.08566 0.98181 0.0
Co182 Co 0.66646 0.17359 0.67563 0.0
O183 O 0.69729 0.18215 0.65962 0.0
O184 O 0.67166 0.16689 0.61335 0.0
C185 C 0.67404 0.15488 0.73995 0.0
O186 O 0.63387 0.16158 0.67916 0.0
Co187 Co 0.64239 0.19183 0.76141 0.0
O188 O 0.6179 0.16958 0.74608 0.0
C189 C 0.64663 0.22191 0.68226 0.0
C190 C 0.69221 0.17477 0.61957 0.0
C191 C 0.61746 0.15984 0.70778 0.0
O192 O 0.65527 0.20526 0.65959 0.0
O193 O 0.64168 0.22043 0.72408 0.0
O194 O 0.67716 0.14489 0.70139 0.0
O195 O 0.66943 0.17654 0.73811 0.0
Co196 Co 0.57623 0.91149 0.41494 0.0
O197 O 0.56867 0.94296 0.40197 0.0
O198 O 0.58179 0.91765 0.35259 0.0
C199 C 0.59648 0.91727 0.47827 0.0
O200 O 0.58661 0.87833 0.41477 0.0
Co201 Co 0.55953 0.88605 0.50027 0.0
O202 O 0.58357 0.86337 0.48408 0.0
C203 C 0.52771 0.89277 0.42396 0.0
C204 C 0.57488 0.93835 0.36095 0.0
C205 C 0.59069 0.86251 0.44369 0.0
O206 O 0.5439 0.90197 0.40091 0.0
O207 O 0.53016 0.88632 0.46485 0.0
O208 O 0.60589 0.92049 0.43918 0.0
O209 O 0.57469 0.91332 0.47775 0.0
Co210 Co 0.83513 0.8348 0.17309 0.0
O211 O 0.80423 0.82674 0.15648 0.0
O212 O 0.8305 0.8408 0.11024 0.0
C213 C 0.82748 0.85427 0.23659 0.0
O214 O 0.86801 0.84601 0.1771 0.0
Co215 Co 0.85794 0.81717 0.26103 0.0
O216 O 0.8836 0.83774 0.24435 0.0
C217 C 0.85334 0.78609 0.18342 0.0
C218 C 0.80978 0.83329 0.11613 0.0
C219 C 0.88446 0.84717 0.20578 0.0
O220 O 0.84563 0.80262 0.15911 0.0
O221 O 0.85771 0.78808 0.2254 0.0
O222 O 0.82501 0.86411 0.19766 0.0
O223 O 0.83156 0.83254 0.23541 0.0
Co224 Co 0.58032 0.58856 0.92372 0.0
O225 O 0.57173 0.55746 0.91063 0.0
O226 O 0.58699 0.58192 0.86196 0.0
C227 C 0.59893 0.58215 0.98841 0.0
O228 O 0.59234 0.62123 0.92468 0.0
Co229 Co 0.56188 0.61427 0.00741 0.0
O230 O 0.58424 0.63835 0.99048 0.0
C231 C 0.53178 0.60782 0.92889 0.0
C232 C 0.57908 0.56155 0.87017 0.0
C233 C 0.59406 0.63812 0.95225 0.0
O234 O 0.54866 0.59927 0.9068 0.0
O235 O 0.53313 0.61351 0.97037 0.0
O236 O 0.60899 0.57839 0.95016 0.0
O237 O 0.5773 0.58685 0.98625 0.0
Co238 Co 0.65992 0.32927 0.17598 0.0
O239 O 0.69216 0.32414 0.16715 0.0
O240 O 0.66701 0.33238 0.11331 0.0
C241 C 0.66299 0.35215 0.23625 0.0
O242 O 0.62604 0.33688 0.17171 0.0
Co243 Co 0.63406 0.31397 0.26175 0.0
O244 O 0.61044 0.33607 0.24067 0.0
C245 C 0.6444 0.28002 0.19091 0.0
C246 C 0.68797 0.32783 0.12487 0.0
C247 C 0.60965 0.34133 0.19917 0.0
O248 O 0.65331 0.29585 0.16655 0.0
O249 O 0.63664 0.2835 0.2306 0.0
O250 O 0.66599 0.36046 0.19612 0.0
O251 O 0.66057 0.33019 0.23865 0.0
Co252 Co 0.91938 0.41076 0.43191 0.0
O253 O 0.92701 0.44197 0.41815 0.0
O254 O 0.90976 0.41771 0.37166 0.0
C255 C 0.90391 0.41702 0.49991 0.0
O256 O 0.90814 0.37787 0.43436 0.0
Co257 Co 0.94269 0.38557 0.51148 0.0
O258 O 0.92172 0.35993 0.49571 0.0
C259 C 0.96885 0.39516 0.42951 0.0
C260 C 0.91789 0.4381 0.37904 0.0
C261 C 0.90945 0.36027 0.46024 0.0
O262 O 0.95017 0.40041 0.40919 0.0
O263 O 0.97001 0.39119 0.47175 0.0
O264 O 0.89198 0.42055 0.4637 0.0
O265 O 0.92533 0.41239 0.49365 0.0
Co266 Co 0.83263 0.66987 0.68284 0.0
O267 O 0.80101 0.67608 0.66975 0.0
O268 O 0.82627 0.66144 0.62184 0.0
C269 C 0.82801 0.65221 0.74906 0.0
O270 O 0.86598 0.66039 0.68422 0.0
Co271 Co 0.85672 0.69263 0.76438 0.0
O272 O 0.88318 0.67298 0.74718 0.0
C273 C 0.8463 0.72007 0.68449 0.0
C274 C 0.80546 0.66821 0.62983 0.0
C275 C 0.8834 0.66166 0.71051 0.0
O276 O 0.84134 0.70165 0.66302 0.0
O277 O 0.8505 0.72057 0.7267 0.0
O278 O 0.82461 0.64115 0.71175 0.0
O279 O 0.83095 0.67407 0.74508 0.0
Co280 Co 0.57859 0.41617 0.5714 0.0
O281 O 0.57011 0.44688 0.58739 0.0
O282 O 0.58712 0.42191 0.63275 0.0
C283 C 0.59488 0.42388 0.50476 0.0
O284 O 0.59055 0.38361 0.56683 0.0
Co285 Co 0.55699 0.3922 0.48847 0.0
O286 O 0.57842 0.36675 0.50315 0.0
C287 C 0.52941 0.39977 0.56942 0.0
C288 C 0.57857 0.44224 0.62677 0.0
C289 C 0.59015 0.36662 0.53932 0.0
O290 O 0.54769 0.40477 0.59137 0.0
O291 O 0.529 0.39674 0.52683 0.0
O292 O 0.60628 0.42704 0.5418 0.0
O293 O 0.57346 0.41895 0.50967 0.0
Co294 Co 0.83369 0.32958 0.82896 0.0
O295 O 0.80166 0.3263 0.8424 0.0
O296 O 0.82928 0.33215 0.89271 0.0
C297 C 0.82997 0.35356 0.77047 0.0
O298 O 0.868 0.33504 0.82832 0.0
Co299 Co 0.85501 0.3141 0.73845 0.0
O300 O 0.88057 0.33463 0.75693 0.0
C301 C 0.8456 0.27978 0.80912 0.0
C302 C 0.80769 0.32906 0.88409 0.0
C303 C 0.88332 0.33914 0.79845 0.0
O304 O 0.83861 0.29569 0.83562 0.0
O305 O 0.85183 0.28343 0.76846 0.0
O306 O 0.82894 0.36143 0.81133 0.0
O307 O 0.83067 0.33153 0.7667 0.0
Co308 Co 0.91585 0.58671 0.08664 0.0
O309 O 0.92243 0.55531 0.10037 0.0
O310 O 0.90803 0.58065 0.14832 0.0
C311 C 0.89767 0.5814 0.02113 0.0
O312 O 0.90613 0.62007 0.0838 0.0
Co313 Co 0.93825 0.6095 0.00313 0.0
O314 O 0.91786 0.63566 0.0185 0.0
C315 C 0.9661 0.60013 0.08292 0.0
C316 C 0.91501 0.55987 0.14053 0.0
C317 C 0.90685 0.63672 0.05547 0.0
O318 O 0.94779 0.59572 0.10519 0.0
O319 O 0.96636 0.60371 0.0405 0.0
O320 O 0.8869 0.57828 0.05885 0.0
O321 O 0.91956 0.58432 0.02449 0.0
Co322 Co 0.66528 0.66643 0.32252 0.0
O323 O 0.69607 0.67337 0.34036 0.0
O324 O 0.66918 0.65882 0.38484 0.0
C325 C 0.67291 0.64818 0.25801 0.0
O326 O 0.63221 0.65643 0.31587 0.0
Co327 Co 0.64467 0.6881 0.23623 0.0
O328 O 0.61789 0.66811 0.24951 0.0
C329 C 0.65134 0.71644 0.31639 0.0
C330 C 0.69009 0.66602 0.37988 0.0
C331 C 0.6161 0.65716 0.28643 0.0
O332 O 0.65535 0.69828 0.33941 0.0
O333 O 0.64913 0.71647 0.2736 0.0
O334 O 0.6749 0.63751 0.29616 0.0
O335 O 0.6696 0.67003 0.26075 0.0
Co336 Co 0.41497 0.41449 0.06214 0.0
O337 O 0.4236 0.44553 0.07531 0.0
O338 O 0.40734 0.42147 0.12348 0.0
C339 C 0.39756 0.42075 0.99591 0.0
O340 O 0.40313 0.38182 0.06063 0.0
Co341 Co 0.43565 0.3892 0.97977 0.0
O342 O 0.4145 0.36402 0.99738 0.0
C343 C 0.46409 0.39749 0.0593 0.0
C344 C 0.41576 0.44167 0.11548 0.0
C345 C 0.40331 0.36439 0.0342 0.0
O346 O 0.44615 0.40346 0.08135 0.0
O347 O 0.46409 0.39355 0.017 0.0
O348 O 0.38678 0.42468 0.03334 0.0
O349 O 0.4191 0.41609 -8e-05 0.0
Co350 Co 0.3342 0.66276 0.81402 0.0
O351 O 0.30304 0.66945 0.83003 0.0
O352 O 0.32899 0.65391 0.87532 0.0
C353 C 0.32744 0.64601 0.7474 0.0
O354 O 0.36736 0.65273 0.80958 0.0
Co355 Co 0.35694 0.68557 0.73105 0.0
O356 O 0.38365 0.6658 0.74611 0.0
C357 C 0.34814 0.71275 0.81209 0.0
C358 C 0.3082 0.66125 0.86937 0.0
C359 C 0.38438 0.65414 0.78233 0.0
O360 O 0.34385 0.69427 0.83397 0.0
O361 O 0.35122 0.71331 0.76953 0.0
O362 O 0.32495 0.63446 0.78443 0.0
O363 O 0.33113 0.66769 0.75227 0.0
Co364 Co 0.07786 0.59018 0.5759 0.0
O365 O 0.06906 0.55907 0.5885 0.0
O366 O 0.0833 0.58364 0.63816 0.0
C367 C 0.09756 0.58327 0.51254 0.0
O368 O 0.08953 0.62294 0.5762 0.0
Co369 Co 0.06231 0.61637 0.49057 0.0
O370 O 0.08683 0.63841 0.50727 0.0
C371 C 0.03019 0.6107 0.56677 0.0
C372 C 0.07559 0.56324 0.62948 0.0
C373 C 0.09395 0.63888 0.54771 0.0
O374 O 0.04601 0.60097 0.58999 0.0
O375 O 0.03291 0.61702 0.52586 0.0
O376 O 0.10705 0.57993 0.55152 0.0
O377 O 0.07602 0.58839 0.51323 0.0
Co378 Co 0.16354 0.32807 0.31273 0.0
O379 O 0.19496 0.32018 0.32535 0.0
O380 O 0.16962 0.33248 0.37547 0.0
C381 C 0.16965 0.34933 0.25092 0.0
O382 O 0.13037 0.33844 0.31354 0.0
Co383 Co 0.13807 0.31341 0.22585 0.0
O384 O 0.11485 0.33644 0.24456 0.0
C385 C 0.14449 0.28002 0.29969 0.0
C386 C 0.19031 0.32567 0.36674 0.0
C387 C 0.11417 0.34269 0.28553 0.0
O388 O 0.15387 0.29556 0.32414 0.0
O389 O 0.13806 0.2834 0.25904 0.0
O390 O 0.17267 0.35814 0.29061 0.0
O391 O 0.1655 0.32759 0.24998 0.0
Co392 Co 0.41687 0.59121 0.40645 0.0
O393 O 0.42487 0.55991 0.39375 0.0
O394 O 0.4113 0.58484 0.34408 0.0
C395 C 0.39696 0.58471 0.46972 0.0
O396 O 0.40599 0.62428 0.40656 0.0
Co397 Co 0.43301 0.61667 0.49234 0.0
O398 O 0.40846 0.63881 0.47634 0.0
C399 C 0.46508 0.61036 0.41623 0.0
C400 C 0.41845 0.56423 0.35278 0.0
C401 C 0.40148 0.63983 0.43585 0.0
O402 O 0.44907 0.60118 0.39262 0.0
O403 O 0.46242 0.61659 0.4572 0.0
O404 O 0.38737 0.5817 0.43072 0.0
O405 O 0.41862 0.58921 0.46903 0.0
Co406 Co 0.16631 0.66172 0.17422 0.0
O407 O 0.19772 0.6681 0.15951 0.0
O408 O 0.17174 0.65405 0.11241 0.0
C409 C 0.17241 0.64348 0.23959 0.0
O410 O 0.13292 0.65241 0.17684 0.0
Co411 Co 0.14301 0.68229 0.25895 0.0
O412 O 0.11803 0.66013 0.24487 0.0
C413 C 0.15154 0.71144 0.17979 0.0
C414 C 0.19266 0.66076 0.11946 0.0
C415 C 0.11671 0.65114 0.20591 0.0
O416 O 0.15728 0.69374 0.15676 0.0
O417 O 0.14738 0.71089 0.22204 0.0
O418 O 0.17484 0.63264 0.20172 0.0
O419 O 0.16905 0.66528 0.23635 0.0
Co420 Co 0.07845 0.4154 0.92331 0.0
O421 O 0.06975 0.44639 0.90964 0.0
O422 O 0.08475 0.42164 0.86118 0.0
C423 C 0.09732 0.42231 0.98777 0.0
O424 O 0.08994 0.38267 0.92469 0.0
Co425 Co 0.06054 0.39042 0.00851 0.0
O426 O 0.08416 0.36708 0.9929 0.0
C427 C 0.02995 0.39707 0.93081 0.0
C428 C 0.07672 0.44201 0.86904 0.0
C429 C 0.09267 0.36651 0.95348 0.0
O430 O 0.04691 0.40434 0.90735 0.0
O431 O 0.03125 0.39265 0.9729 0.0
O432 O 0.10731 0.42572 0.94931 0.0
O433 O 0.07572 0.41756 0.98577 0.0
Co434 Co 0.33432 0.32652 0.66819 0.0
O435 O 0.30307 0.31883 0.65378 0.0
O436 O 0.32925 0.33083 0.60506 0.0
C437 C 0.32752 0.34802 0.7294 0.0
O438 O 0.36754 0.33672 0.66947 0.0
Co439 Co 0.35815 0.31175 0.75681 0.0
O440 O 0.38142 0.33508 0.73985 0.0
C441 C 0.35274 0.27831 0.68279 0.0
C442 C 0.30838 0.3242 0.61265 0.0
C443 C 0.383 0.34123 0.69892 0.0
O444 O 0.3439 0.29388 0.65763 0.0
O445 O 0.35852 0.28171 0.72381 0.0
O446 O 0.3251 0.35672 0.68945 0.0
O447 O 0.33136 0.32623 0.73078 0.0
C448 C 0.07434 0.04232 0.30383 0.0
C449 C 0.0774 0.03743 0.34951 0.0
C450 C 0.07436 0.02478 0.27174 0.0
C451 C 0.07807 0.0019 0.28568 0.0
C452 C 0.08106 0.99685 0.33185 0.0
C453 C 0.08041 0.01471 0.36338 0.0
C454 C 0.07064 0.03075 0.22288 0.0
C455 C 0.08547 0.9727 0.34777 0.0
C456 C 0.06084 0.95517 0.2039 0.0
C457 C 0.08173 0.9506 0.18289 0.0
C458 C 0.05945 0.9715 0.23835 0.0
C459 C 0.07947 0.98343 0.25159 0.0
C460 C 0.10071 0.97847 0.23073 0.0
C461 C 0.10157 0.96203 0.19645 0.0
C462 C 0.03654 0.97634 0.25984 0.0
C463 C 0.1224 0.99084 0.24399 0.0
H464 H 0.07179 0.0599 0.29319 0.0
H465 H 0.0829 0.01098 0.39874 0.0
H466 H 0.08611 0.02628 0.20311 0.0
H467 H 0.05619 0.02062 0.20904 0.0
H468 H 0.06689 0.04923 0.21794 0.0
H469 H 0.08696 0.9716 0.38493 0.0
H470 H 0.07145 0.96122 0.33658 0.0
H471 H 0.10156 0.96618 0.33262 0.0
H472 H 0.04559 0.94612 0.19305 0.0
H473 H 0.11766 0.95829 0.1798 0.0
H474 H 0.03148 0.99433 0.25313 0.0
H475 H 0.03773 0.9743 0.29683 0.0
H476 H 0.02286 0.96482 0.24704 0.0
H477 H 0.1207 0.00936 0.23635 0.0
H478 H 0.13768 0.98412 0.22607 0.0
H479 H 0.12529 0.98924 0.28071 0.0
C480 C 0.20497 0.8528 0.5563 0.0
C481 C 0.20854 0.83781 0.5924 0.0
C482 C 0.22053 0.85381 0.52053 0.0
C483 C 0.23981 0.83914 0.52056 0.0
C484 C 0.24351 0.82399 0.55699 0.0
C485 C 0.22791 0.82367 0.59279 0.0
C486 C 0.21629 0.87051 0.48264 0.0
C487 C 0.26371 0.80783 0.55775 0.0
C488 C 0.26715 0.82568 0.40815 0.0
C489 C 0.28677 0.83945 0.40952 0.0
C490 C 0.25176 0.8253 0.44428 0.0
C491 C 0.25593 0.8394 0.48212 0.0
C492 C 0.27552 0.85365 0.4833 0.0
C493 C 0.29086 0.85332 0.4471 0.0
C494 C 0.23122 0.80961 0.44223 0.0
C495 C 0.28024 0.86924 0.52274 0.0
H496 H 0.19005 0.86385 0.55612 0.0
H497 H 0.23061 0.81198 0.62059 0.0
H498 H 0.23141 0.8818 0.47823 0.0
H499 H 0.21384 0.86106 0.45066 0.0
H500 H 0.20098 0.88137 0.48865 0.0
H501 H 0.26408 0.79709 0.58856 0.0
H502 H 0.26309 0.7964 0.52798 0.0
H503 H 0.27993 0.81766 0.55578 0.0
H504 H 0.26406 0.81482 0.37921 0.0
H505 H 0.30598 0.86408 0.44808 0.0
H506 H 0.21522 0.81974 0.44492 0.0
H507 H 0.23156 0.79757 0.47109 0.0
H508 H 0.23064 0.79951 0.4106 0.0
H509 H 0.26548 0.88088 0.52819 0.0
H510 H 0.2959 0.87975 0.5178 0.0
H511 H 0.28235 0.85894 0.5538 0.0
C512 C 0.44268 0.0209 0.65843 0.0
C513 C 0.42795 0.03971 0.66251 0.0
C514 C 0.44349 0.00399 0.69187 0.0
C515 C 0.42882 0.00576 0.72956 0.0
C516 C 0.41397 0.02479 0.73386 0.0
C517 C 0.41391 0.04169 0.70046 0.0
C518 C 0.45989 0.98416 0.68672 0.0
C519 C 0.39776 0.02702 0.77317 0.0
C520 C 0.413 0.95114 0.7907 0.0
C521 C 0.42624 0.95292 0.82981 0.0
C522 C 0.41367 0.96828 0.75779 0.0
C523 C 0.42835 0.98732 0.76377 0.0
C524 C 0.44213 0.98896 0.80279 0.0
C525 C 0.44069 0.97182 0.83571 0.0
C526 C 0.39837 0.9662 0.71703 0.0
C527 C 0.45835 0.00879 0.80975 0.0
H528 H 0.4537 0.01947 0.62925 0.0
H529 H 0.40243 0.0562 0.70353 0.0
H530 H 0.47085 0.98268 0.71706 0.0
H531 H 0.45017 0.96792 0.68359 0.0
H532 H 0.47108 0.98604 0.65676 0.0
H533 H 0.38744 0.04298 0.77164 0.0
H534 H 0.38591 0.01216 0.77387 0.0
H535 H 0.40748 0.02688 0.80521 0.0
H536 H 0.40171 0.93657 0.78626 0.0
H537 H 0.45108 0.97309 0.86582 0.0
H538 H 0.40885 0.96618 0.68595 0.0
H539 H 0.38674 0.9812 0.71514 0.0
H540 H 0.38784 0.95036 0.71765 0.0
H541 H 0.47019 0.01021 0.78074 0.0
H542 H 0.46863 0.00696 0.84097 0.0
H543 H 0.44857 0.02505 0.81162 0.0
C544 C 0.20537 0.15501 0.95791 0.0
C545 C 0.20774 0.17018 0.92176 0.0
C546 C 0.22142 0.15481 0.993 0.0
C547 C 0.23985 0.17055 0.99223 0.0
C548 C 0.24195 0.1863 0.95632 0.0
C549 C 0.226 0.18572 0.92117 0.0
C550 C 0.21895 0.13745 0.03031 0.0
C551 C 0.26112 0.20366 0.95489 0.0
C552 C 0.27172 0.18304 0.10062 0.0
C553 C 0.2918 0.17028 0.09448 0.0
C554 C 0.25456 0.18325 0.06761 0.0
C555 C 0.25747 0.17006 0.0281 0.0
C556 C 0.27753 0.15682 0.02219 0.0
C557 C 0.29457 0.15727 0.05531 0.0
C558 C 0.23353 0.19788 0.07462 0.0
C559 C 0.28104 0.14225 0.98079 0.0
H560 H 0.19127 0.14292 0.95824 0.0
H561 H 0.22768 0.19763 0.89341 0.0
H562 H 0.23425 0.12618 0.03115 0.0
H563 H 0.21799 0.14625 0.06329 0.0
H564 H 0.20347 0.1266 0.02619 0.0
H565 H 0.25955 0.21553 0.92587 0.0
H566 H 0.26127 0.21389 0.98632 0.0
H567 H 0.27785 0.19475 0.95263 0.0
H568 H 0.2696 0.19318 0.13085 0.0
H569 H 0.31002 0.14724 0.05066 0.0
H570 H 0.21789 0.18714 0.07304 0.0
H571 H 0.23222 0.21076 0.04732 0.0
H572 H 0.23382 0.20698 0.10741 0.0
H573 H 0.26644 0.13028 0.97657 0.0
H574 H 0.29714 0.13215 0.98236 0.0
H575 H 0.2816 0.15329 0.95047 0.0
C576 C 0.93866 0.9779 0.65279 0.0
C577 C 0.92418 0.95895 0.65802 0.0
C578 C 0.93976 0.995 0.68588 0.0
C579 C 0.92567 0.99324 0.72445 0.0
C580 C 0.91091 0.97421 0.72965 0.0
C581 C 0.91052 0.95717 0.69656 0.0
C582 C 0.95599 0.01487 0.67969 0.0
C583 C 0.89531 0.97199 0.76991 0.0
C584 C 0.93906 0.02581 0.83157 0.0
C585 C 0.92416 0.04452 0.82797 0.0
C586 C 0.94031 0.00934 0.79732 0.0
C587 C 0.92596 0.01147 0.75918 0.0
C588 C 0.91102 0.03044 0.75526 0.0
C589 C 0.91046 0.04687 0.78955 0.0
C590 C 0.95676 0.98954 0.80219 0.0
C591 C 0.89516 0.03305 0.71545 0.0
H592 H 0.94935 0.9792 0.62312 0.0
H593 H 0.89921 0.94259 0.70054 0.0
H594 H 0.94624 0.03115 0.6783 0.0
H595 H 0.9678 0.01602 0.70885 0.0
H596 H 0.96633 0.01329 0.6485 0.0
H597 H 0.88466 0.95623 0.76858 0.0
H598 H 0.90558 0.97166 0.80127 0.0
H599 H 0.88377 0.98706 0.77189 0.0
H600 H 0.94983 0.02409 0.86108 0.0
H601 H 0.89887 0.0613 0.78675 0.0
H602 H 0.96786 0.98831 0.77202 0.0
H603 H 0.94707 0.97325 0.80467 0.0
H604 H 0.96781 0.99123 0.83241 0.0
H605 H 0.90513 0.033 0.68373 0.0
H606 H 0.88498 0.0491 0.71701 0.0
H607 H 0.88319 0.01831 0.71403 0.0
C608 C 0.79416 0.15683 0.44648 0.0
C609 C 0.79198 0.17035 0.4078 0.0
C610 C 0.77782 0.15791 0.48089 0.0
C611 C 0.75914 0.17322 0.47686 0.0
C612 C 0.75702 0.18714 0.43812 0.0
C613 C 0.77337 0.18536 0.40376 0.0
C614 C 0.7804 0.14247 0.52131 0.0
C615 C 0.73753 0.20395 0.43308 0.0
C616 C 0.70582 0.16079 0.54521 0.0
C617 C 0.70909 0.17492 0.58275 0.0
C618 C 0.72198 0.16012 0.51042 0.0
C619 C 0.7416 0.17428 0.51288 0.0
C620 C 0.74475 0.18896 0.55027 0.0
C621 C 0.72854 0.18891 0.58509 0.0
C622 C 0.71826 0.14393 0.47149 0.0
C623 C 0.76527 0.20461 0.55357 0.0
H624 H 0.80849 0.14513 0.44958 0.0
H625 H 0.77177 0.19596 0.37401 0.0
H626 H 0.78164 0.15289 0.55238 0.0
H627 H 0.76505 0.13139 0.5247 0.0
H628 H 0.7958 0.13136 0.51904 0.0
H629 H 0.73879 0.21407 0.40156 0.0
H630 H 0.72095 0.19469 0.43314 0.0
H631 H 0.73733 0.21593 0.46203 0.0
H632 H 0.69085 0.14986 0.54344 0.0
H633 H 0.731 0.19997 0.61396 0.0
H634 H 0.73272 0.13163 0.46942 0.0
H635 H 0.71788 0.1536 0.43942 0.0
H636 H 0.70205 0.1341 0.47464 0.0
H637 H 0.78121 0.1943 0.5549 0.0
H638 H 0.76461 0.21576 0.58379 0.0
H639 H 0.76632 0.21561 0.52323 0.0
C640 C 0.588 0.95311 0.28692 0.0
C641 C 0.57435 0.95583 0.32526 0.0
C642 C 0.58819 0.96973 0.25297 0.0
C643 C 0.57397 0.98924 0.25706 0.0
C644 C 0.55976 0.99183 0.29527 0.0
C645 C 0.56033 0.97519 0.32928 0.0
C646 C 0.60395 0.96663 0.21319 0.0
C647 C 0.54402 0.01219 0.30025 0.0
C648 C 0.59088 0.04254 0.1925 0.0
C649 C 0.57725 0.04068 0.15391 0.0
C650 C 0.58995 0.02591 0.22638 0.0
C651 C 0.57461 0.00728 0.22195 0.0
C652 C 0.56046 0.00555 0.18343 0.0
C653 C 0.56215 0.02218 0.14952 0.0
C654 C 0.60566 0.02806 0.26652 0.0
C655 C 0.54356 0.98617 0.17807 0.0
H656 H 0.59894 0.93819 0.28389 0.0
H657 H 0.54962 0.97719 0.35877 0.0
H658 H 0.59391 0.96656 0.18154 0.0
H659 H 0.61611 0.98121 0.21126 0.0
H660 H 0.61394 0.95046 0.21515 0.0
H661 H 0.53319 0.01104 0.33086 0.0
H662 H 0.55424 0.02818 0.30204 0.0
H663 H 0.5327 0.01359 0.27041 0.0
H664 H 0.60265 0.05681 0.19585 0.0
H665 H 0.55144 0.02086 0.11986 0.0
H666 H 0.61687 0.01276 0.26877 0.0
H667 H 0.59547 0.02879 0.29793 0.0
H668 H 0.61663 0.04358 0.26475 0.0
H669 H 0.55281 0.96959 0.17664 0.0
H670 H 0.53302 0.98793 0.14717 0.0
H671 H 0.53197 0.98549 0.2076 0.0
C672 C 0.73124 0.8155 0.89764 0.0
C673 C 0.71233 0.83024 0.89948 0.0
C674 C 0.74742 0.81509 0.93258 0.0
C675 C 0.74487 0.83021 0.96949 0.0
C676 C 0.72598 0.84537 0.97105 0.0
C677 C 0.70978 0.84499 0.93628 0.0
C678 C 0.76709 0.79835 0.93027 0.0
C679 C 0.72294 0.8621 0.00932 0.0
C680 C 0.77394 0.81813 0.08121 0.0
C681 C 0.79336 0.83215 0.07845 0.0
C682 C 0.75831 0.81686 0.04544 0.0
C683 C 0.76197 0.83032 0.00651 0.0
C684 C 0.78156 0.84451 0.00361 0.0
C685 C 0.79716 0.84507 0.03946 0.0
C686 C 0.73783 0.80119 0.04937 0.0
C687 C 0.78581 0.85945 0.96302 0.0
H688 H 0.73312 0.80395 0.86935 0.0
H689 H 0.69523 0.85651 0.93761 0.0
H690 H 0.78361 0.80772 0.9303 0.0
H691 H 0.76697 0.78715 0.96041 0.0
H692 H 0.76632 0.7874 0.89977 0.0
H693 H 0.70763 0.87316 0.00485 0.0
H694 H 0.72122 0.85269 0.04153 0.0
H695 H 0.73829 0.87321 0.01218 0.0
H696 H 0.77108 0.80796 0.11116 0.0
H697 H 0.81214 0.85598 0.03729 0.0
H698 H 0.73724 0.78931 0.02028 0.0
H699 H 0.72182 0.81142 0.0487 0.0
H700 H 0.73813 0.79094 0.08082 0.0
H701 H 0.78665 0.8488 0.93221 0.0
H702 H 0.80197 0.8694 0.9659 0.0
H703 H 0.77138 0.87162 0.95866 0.0
C704 C 0.59272 0.45675 0.70047 0.0
C705 C 0.57826 0.45928 0.66322 0.0
C706 C 0.5929 0.47311 0.73495 0.0
C707 C 0.57793 0.49213 0.73236 0.0
C708 C 0.56298 0.49451 0.69521 0.0
C709 C 0.5635 0.47814 0.66079 0.0
C710 C 0.60934 0.47025 0.77375 0.0
C711 C 0.5465 0.51438 0.69177 0.0
C712 C 0.56479 0.5244 0.83987 0.0
C713 C 0.57871 0.54378 0.83509 0.0
C714 C 0.56423 0.50746 0.80648 0.0
C715 C 0.57826 0.50985 0.768 0.0
C716 C 0.59253 0.52928 0.76328 0.0
C717 C 0.59241 0.54615 0.79674 0.0
C718 C 0.5485 0.48713 0.81217 0.0
C719 C 0.60801 0.53219 0.72302 0.0
H720 H 0.60422 0.4422 0.70229 0.0
H721 H 0.55216 0.48001 0.63216 0.0
H722 H 0.62102 0.48522 0.77548 0.0
H723 H 0.59978 0.46961 0.80593 0.0
H724 H 0.61983 0.45445 0.77073 0.0
H725 H 0.53536 0.51319 0.66158 0.0
H726 H 0.53547 0.51505 0.7221 0.0
H727 H 0.55614 0.53073 0.69028 0.0
H728 H 0.55409 0.52261 0.86943 0.0
H729 H 0.60331 0.56107 0.79315 0.0
H730 H 0.5586 0.47104 0.81216 0.0
H731 H 0.5364 0.48618 0.78346 0.0
H732 H 0.53848 0.488 0.84386 0.0
H733 H 0.61967 0.51726 0.7201 0.0
H734 H 0.61852 0.54803 0.72509 0.0
H735 H 0.59764 0.53286 0.69181 0.0
C736 C 0.79339 0.31334 0.95608 0.0
C737 C 0.79074 0.32855 0.92018 0.0
C738 C 0.7769 0.31222 0.99025 0.0
C739 C 0.75799 0.3274 0.98913 0.0
C740 C 0.75565 0.3432 0.9533 0.0
C741 C 0.77185 0.34322 0.9186 0.0
C742 C 0.77948 0.29455 0.02696 0.0
C743 C 0.73616 0.36019 0.95183 0.0
C744 C 0.70303 0.31445 0.05167 0.0
C745 C 0.70623 0.32693 0.09127 0.0
C746 C 0.7202 0.31372 0.01882 0.0
C747 C 0.74047 0.32663 0.02511 0.0
C748 C 0.74365 0.33939 0.06513 0.0
C749 C 0.72661 0.33897 0.09829 0.0
C750 C 0.71661 0.2992 0.97739 0.0
C751 C 0.76466 0.35403 0.07225 0.0
H752 H 0.80803 0.30191 0.95671 0.0
H753 H 0.77008 0.35504 0.89071 0.0
H754 H 0.78094 0.30309 0.06012 0.0
H755 H 0.76402 0.2835 0.02812 0.0
H756 H 0.79476 0.28351 0.02196 0.0
H757 H 0.73766 0.37225 0.9231 0.0
H758 H 0.7196 0.35102 0.94901 0.0
H759 H 0.73569 0.37023 0.98349 0.0
H760 H 0.68724 0.305 0.04677 0.0
H761 H 0.72883 0.34872 0.12901 0.0
H762 H 0.73147 0.28764 0.97234 0.0
H763 H 0.71536 0.31032 0.94728 0.0
H764 H 0.7008 0.28867 0.97956 0.0
H765 H 0.78033 0.34334 0.07058 0.0
H766 H 0.76438 0.36305 0.10513 0.0
H767 H 0.76591 0.36698 0.04506 0.0
C768 C 0.93146 0.47512 0.34733 0.0
C769 C 0.9169 0.4561 0.3445 0.0
C770 C 0.93098 0.49225 0.31439 0.0
C771 C 0.91523 0.49048 0.2784 0.0
C772 C 0.90022 0.4715 0.27579 0.0
C773 C 0.90141 0.45436 0.3087 0.0
C774 C 0.94755 0.51204 0.31773 0.0
C775 C 0.88294 0.46929 0.23825 0.0
C776 C 0.90151 0.54496 0.21448 0.0
C777 C 0.91486 0.54218 0.17577 0.0
C778 C 0.90117 0.52806 0.24798 0.0
C779 C 0.91488 0.50824 0.24285 0.0
C780 C 0.92852 0.50545 0.20394 0.0
C781 C 0.92817 0.52238 0.17063 0.0
C782 C 0.88613 0.53137 0.28873 0.0
C783 C 0.94365 0.48471 0.19773 0.0
H784 H 0.94353 0.47641 0.37491 0.0
H785 H 0.89003 0.43973 0.30669 0.0
H786 H 0.95854 0.51258 0.28732 0.0
H787 H 0.93804 0.52846 0.31917 0.0
H788 H 0.95875 0.51081 0.34783 0.0
H789 H 0.87188 0.45393 0.24215 0.0
H790 H 0.87187 0.48472 0.23714 0.0
H791 H 0.89189 0.46816 0.20546 0.0
H792 H 0.8911 0.5602 0.21835 0.0
H793 H 0.93862 0.52027 0.14081 0.0
H794 H 0.89678 0.5318 0.31959 0.0
H795 H 0.87415 0.51672 0.29208 0.0
H796 H 0.876 0.54745 0.28696 0.0
H797 H 0.95598 0.48344 0.22602 0.0
H798 H 0.95343 0.48531 0.16572 0.0
H799 H 0.93314 0.4689 0.19804 0.0
C800 C 0.72553 0.68054 0.41633 0.0
C801 C 0.70633 0.66618 0.41763 0.0
C802 C 0.74113 0.68101 0.45204 0.0
C803 C 0.73766 0.66639 0.48933 0.0
C804 C 0.71834 0.65177 0.49074 0.0
C805 C 0.70272 0.65203 0.45497 0.0
C806 C 0.76132 0.69715 0.44986 0.0
C807 C 0.71439 0.63564 0.52964 0.0
C808 C 0.79056 0.65274 0.55768 0.0
C809 C 0.78773 0.6672 0.5948 0.0
C810 C 0.77403 0.65185 0.52362 0.0
C811 C 0.75453 0.66615 0.52646 0.0
C812 C 0.75155 0.68074 0.56398 0.0
C813 C 0.76812 0.68091 0.59805 0.0
C814 C 0.77752 0.63576 0.48446 0.0
C815 C 0.73114 0.69653 0.56761 0.0
H816 H 0.7282 0.69163 0.38759 0.0
H817 H 0.6879 0.64085 0.45584 0.0
H818 H 0.76149 0.70843 0.47989 0.0
H819 H 0.77753 0.68725 0.45011 0.0
H820 H 0.76101 0.70805 0.41927 0.0
H821 H 0.69853 0.62534 0.52548 0.0
H822 H 0.72915 0.62379 0.53299 0.0
H823 H 0.71315 0.64544 0.56149 0.0
H824 H 0.80566 0.64199 0.55537 0.0
H825 H 0.766 0.69218 0.6267 0.0
H826 H 0.77931 0.64572 0.45291 0.0
H827 H 0.76237 0.62447 0.48051 0.0
H828 H 0.79299 0.62487 0.48863 0.0
H829 H 0.73103 0.70862 0.53883 0.0
H830 H 0.73123 0.70658 0.59932 0.0
H831 H 0.71502 0.68653 0.56595 0.0
C832 C 0.43184 0.47787 0.14651 0.0
C833 C 0.41663 0.45943 0.15058 0.0
C834 C 0.43297 0.49486 0.17972 0.0
C835 C 0.41815 0.49358 0.21726 0.0
C836 C 0.40268 0.47503 0.22141 0.0
C837 C 0.40229 0.45801 0.18819 0.0
C838 C 0.45 0.51415 0.17468 0.0
C839 C 0.38633 0.47335 0.26059 0.0
C840 C 0.43231 0.52676 0.32326 0.0
C841 C 0.4188 0.54639 0.31782 0.0
C842 C 0.43255 0.50954 0.2904 0.0
C843 C 0.41855 0.51187 0.25182 0.0
C844 C 0.4048 0.53163 0.2463 0.0
C845 C 0.40529 0.5488 0.27919 0.0
C846 C 0.44779 0.48891 0.29691 0.0
C847 C 0.38934 0.53449 0.20596 0.0
H848 H 0.44309 0.47888 0.1176 0.0
H849 H 0.39045 0.44379 0.19124 0.0
H850 H 0.44085 0.53076 0.17236 0.0
H851 H 0.46123 0.51498 0.20473 0.0
H852 H 0.46091 0.51214 0.14436 0.0
H853 H 0.37527 0.4579 0.25864 0.0
H854 H 0.39602 0.47283 0.29264 0.0
H855 H 0.37521 0.48876 0.26164 0.0
H856 H 0.44288 0.52496 0.35302 0.0
H857 H 0.3947 0.56391 0.27509 0.0
H858 H 0.45954 0.48709 0.26783 0.0
H859 H 0.43725 0.47313 0.29846 0.0
H860 H 0.45817 0.49007 0.32812 0.0
H861 H 0.39963 0.53422 0.17463 0.0
H862 H 0.37947 0.55074 0.20708 0.0
H863 H 0.3771 0.51998 0.2041 0.0
C864 C 0.20655 0.64632 0.04564 0.0
C865 C 0.20985 0.66029 0.08335 0.0
C866 C 0.22273 0.64576 0.01089 0.0
C867 C 0.24235 0.65992 0.01363 0.0
C868 C 0.24571 0.67415 0.05158 0.0
C869 C 0.2295 0.67397 0.0863 0.0
C870 C 0.21885 0.63003 0.97131 0.0
C871 C 0.26623 0.6898 0.05519 0.0
C872 C 0.29443 0.64604 0.94274 0.0
C873 C 0.29128 0.66069 0.90598 0.0
C874 C 0.27844 0.64539 0.97785 0.0
C875 C 0.25921 0.66011 0.97644 0.0
C876 C 0.25607 0.67508 0.93954 0.0
C877 C 0.27205 0.675 0.90444 0.0
C878 C 0.28207 0.62888 0.01628 0.0
C879 C 0.23597 0.69133 0.93738 0.0
H880 H 0.19143 0.6356 0.0435 0.0
H881 H 0.23198 0.68489 0.11537 0.0
H882 H 0.21733 0.64023 0.93999 0.0
H883 H 0.23374 0.61842 0.96714 0.0
H884 H 0.20314 0.61949 0.97516 0.0
H885 H 0.26619 0.69993 0.0868 0.0
H886 H 0.28225 0.67963 0.05377 0.0
H887 H 0.2665 0.70181 0.02629 0.0
H888 H 0.30925 0.63487 0.94381 0.0
H889 H 0.2697 0.68647 0.87614 0.0
H890 H 0.26699 0.61743 0.01957 0.0
H891 H 0.28372 0.63845 0.04832 0.0
H892 H 0.29762 0.61817 0.01167 0.0
H893 H 0.21969 0.68155 0.93783 0.0
H894 H 0.23629 0.70219 0.90673 0.0
H895 H 0.23597 0.70265 0.96735 0.0
C896 C 0.08942 0.45741 0.79514 0.0
C897 C 0.07557 0.45942 0.83336 0.0
C898 C 0.08899 0.47418 0.76146 0.0
C899 C 0.07397 0.49307 0.76578 0.0
C900 C 0.05955 0.4949 0.80384 0.0
C901 C 0.06073 0.47815 0.83751 0.0
C902 C 0.10493 0.47192 0.72174 0.0
C903 C 0.04299 0.51459 0.80906 0.0
C904 C 0.08837 0.54762 0.70307 0.0
C905 C 0.07471 0.54551 0.66458 0.0
C906 C 0.08834 0.5306 0.73624 0.0
C907 C 0.0739 0.51131 0.73114 0.0
C908 C 0.05972 0.50931 0.69274 0.0
C909 C 0.0605 0.52636 0.65957 0.0
C910 C 0.10401 0.53309 0.77635 0.0
C911 C 0.04377 0.48918 0.68672 0.0
H912 H 0.10098 0.44297 0.79202 0.0
H913 H 0.04986 0.4796 0.8669 0.0
H914 H 0.09497 0.4717 0.69 0.0
H915 H 0.11655 0.48694 0.7203 0.0
H916 H 0.11549 0.45611 0.72339 0.0
H917 H 0.03213 0.51283 0.83951 0.0
H918 H 0.05256 0.53096 0.81131 0.0
H919 H 0.0317 0.51571 0.77913 0.0
H920 H 0.09948 0.56237 0.70685 0.0
H921 H 0.0498 0.52481 0.62992 0.0
H922 H 0.11585 0.51824 0.77812 0.0
H923 H 0.09384 0.53316 0.80782 0.0
H924 H 0.11434 0.54905 0.77499 0.0
H925 H 0.05378 0.47307 0.68495 0.0
H926 H 0.03322 0.49066 0.65577 0.0
H927 H 0.03217 0.48777 0.71612 0.0
C928 C 0.2267 0.30993 0.39813 0.0
C929 C 0.20773 0.32443 0.40246 0.0
C930 C 0.24321 0.30856 0.43233 0.0
C931 C 0.24091 0.3225 0.47101 0.0
C932 C 0.22184 0.33729 0.47532 0.0
C933 C 0.2053 0.33785 0.4412 0.0
C934 C 0.26307 0.29221 0.42713 0.0
C935 C 0.21908 0.35281 0.51559 0.0
C936 C 0.27238 0.3087 0.57927 0.0
C937 C 0.29142 0.32318 0.57608 0.0
C938 C 0.25612 0.30775 0.54459 0.0
C939 C 0.25871 0.32213 0.5066 0.0
C940 C 0.27792 0.33681 0.50333 0.0
C941 C 0.29423 0.33692 0.53789 0.0
C942 C 0.23612 0.29149 0.54867 0.0
C943 C 0.28098 0.35279 0.46386 0.0
H944 H 0.22846 0.29941 0.36831 0.0
H945 H 0.19069 0.34918 0.44444 0.0
H946 H 0.27941 0.30189 0.4263 0.0
H947 H 0.26386 0.28049 0.45645 0.0
H948 H 0.26177 0.2818 0.39599 0.0
H949 H 0.20337 0.36348 0.51351 0.0
H950 H 0.21832 0.34248 0.54683 0.0
H951 H 0.23414 0.36431 0.51845 0.0
H952 H 0.27034 0.29791 0.60866 0.0
H953 H 0.3089 0.34823 0.53555 0.0
H954 H 0.23516 0.28034 0.5185 0.0
H955 H 0.21988 0.3013 0.55036 0.0
H956 H 0.23737 0.28047 0.57901 0.0
H957 H 0.28146 0.34289 0.43206 0.0
H958 H 0.29692 0.36309 0.46642 0.0
H959 H 0.26617 0.36465 0.46172 0.0
C960 C 0.11742 0.15481 0.39781 0.0
C961 C 0.10112 0.15699 0.43213 0.0
C962 C 0.12681 0.17421 0.37698 0.0
C963 C 0.11927 0.19625 0.3901 0.0
C964 C 0.10319 0.19856 0.42543 0.0
C965 C 0.0945 0.17888 0.4464 0.0
C966 C 0.14434 0.1711 0.34019 0.0
C967 C 0.09444 0.22177 0.43981 0.0
C968 C 0.1518 0.25017 0.35834 0.0
C969 C 0.13946 0.25761 0.32059 0.0
C970 C 0.14595 0.22976 0.38046 0.0
C971 C 0.12701 0.21683 0.36503 0.0
C972 C 0.11477 0.22405 0.32647 0.0
C973 C 0.1213 0.24423 0.30444 0.0
C974 C 0.15974 0.22227 0.42081 0.0
C975 C 0.09423 0.21092 0.30941 0.0
H976 H 0.12277 0.1379 0.38703 0.0
H977 H 0.08182 0.18064 0.47277 0.0
H978 H 0.13702 0.17669 0.30758 0.0
H979 H 0.15958 0.18194 0.34686 0.0
H980 H 0.14996 0.153 0.33692 0.0
H981 H 0.08254 0.22067 0.46887 0.0
H982 H 0.10895 0.23309 0.44906 0.0
H983 H 0.08531 0.23002 0.41137 0.0
H984 H 0.16596 0.26039 0.37077 0.0
H985 H 0.11158 0.24998 0.27551 0.0
H986 H 0.16546 0.20428 0.41659 0.0
H987 H 0.1489 0.22291 0.45139 0.0
H988 H 0.17502 0.23325 0.42634 0.0
H989 H 0.09907 0.19295 0.30198 0.0
H990 H 0.08681 0.21864 0.27854 0.0
H991 H 0.08079 0.21044 0.33575 0.0
C992 C 0.00521 0.86954 0.57514 0.0
C993 C 0.99058 0.88689 0.59059 0.0
C994 C 0.02524 0.86386 0.59862 0.0
C995 C 0.03102 0.87605 0.63818 0.0
C996 C 0.01657 0.89385 0.65359 0.0
C997 C 0.99642 0.89895 0.6298 0.0
C998 C 0.04008 0.84457 0.58136 0.0
C999 C 0.02239 0.90747 0.69519 0.0
C1000 C 0.07231 0.84502 0.71567 0.0
C1001 C 0.09346 0.85354 0.70084 0.0
C1002 C 0.05169 0.85292 0.69694 0.0
C1003 C 0.05226 0.86998 0.66312 0.0
C1004 C 0.07345 0.87972 0.65022 0.0
C1005 C 0.0938 0.87127 0.669 0.0
C1006 C 0.02944 0.84201 0.71137 0.0
C1007 C 0.07474 0.89825 0.61491 0.0
H1008 H 0.00075 0.86 0.54513 0.0
H1009 H 0.98526 0.91245 0.64186 0.0
H1010 H 0.05753 0.85104 0.57387 0.0
H1011 H 0.04182 0.83115 0.60754 0.0
H1012 H 0.033 0.83658 0.55045 0.0
H1013 H 0.00963 0.92113 0.70213 0.0
H1014 H 0.02328 0.89594 0.72476 0.0
H1015 H 0.03951 0.91549 0.6914 0.0
H1016 H 0.0719 0.83129 0.74018 0.0
H1017 H 0.11007 0.87813 0.65775 0.0
H1018 H 0.02235 0.83179 0.68316 0.0
H1019 H 0.01661 0.85533 0.71986 0.0
H1020 H 0.03167 0.83056 0.74086 0.0
H1021 H 0.07018 0.89098 0.58164 0.0
H1022 H 0.09213 0.90587 0.61256 0.0
H1023 H 0.06227 0.91207 0.62234 0.0
C1024 C 0.37718 0.82762 0.95151 0.0
C1025 C 0.39477 0.83807 0.92697 0.0
C1026 C 0.36663 0.80756 0.93558 0.0
C1027 C 0.37461 0.79735 0.89531 0.0
C1028 C 0.39253 0.80786 0.87075 0.0
C1029 C 0.40207 0.82835 0.88646 0.0
C1030 C 0.34697 0.79734 0.96169 0.0
C1031 C 0.40207 0.79717 0.82846 0.0
C1032 C 0.36759 0.73382 0.87356 0.0
C1033 C 0.35215 0.73394 0.83758 0.0
C1034 C 0.37445 0.75435 0.89398 0.0
C1035 C 0.36491 0.77532 0.87907 0.0
C1036 C 0.34802 0.77527 0.84487 0.0
C1037 C 0.34223 0.75458 0.82373 0.0
C1038 C 0.39309 0.75371 0.92916 0.0
C1039 C 0.3368 0.79717 0.82928 0.0
H1040 H 0.37149 0.83534 0.98273 0.0
H1041 H 0.41585 0.83639 0.86782 0.0
H1042 H 0.33194 0.795 0.9393 0.0
H1043 H 0.35179 0.78017 0.97452 0.0
H1044 H 0.34185 0.80822 0.99064 0.0
H1045 H 0.4166 0.80712 0.81435 0.0
H1046 H 0.40806 0.7795 0.83562 0.0
H1047 H 0.3885 0.79594 0.8025 0.0
H1048 H 0.37538 0.71779 0.88384 0.0
H1049 H 0.33016 0.75454 0.79601 0.0
H1050 H 0.38777 0.76325 0.95961 0.0
H1051 H 0.40868 0.76221 0.91584 0.0
H1052 H 0.39763 0.73593 0.93907 0.0
H1053 H 0.33152 0.80772 0.85853 0.0
H1054 H 0.32153 0.79381 0.80796 0.0
H1055 H 0.3492 0.80739 0.80943 0.0
C1056 C 0.43083 0.15392 0.20513 0.0
C1057 C 0.40925 0.147 0.18958 0.0
C1058 C 0.45095 0.14527 0.18575 0.0
C1059 C 0.4494 0.12892 0.15071 0.0
C1060 C 0.42767 0.12086 0.13675 0.0
C1061 C 0.40783 0.13021 0.15599 0.0
C1062 C 0.47379 0.15459 0.20103 0.0
C1063 C 0.42535 0.10304 0.10027 0.0
C1064 C 0.49721 0.12841 0.06465 0.0
C1065 C 0.51107 0.11046 0.08014 0.0
C1066 C 0.47708 0.13448 0.0873 0.0
C1067 C 0.47035 0.12198 0.12585 0.0
C1068 C 0.48391 0.10342 0.14099 0.0
C1069 C 0.5043 0.09804 0.11825 0.0
C1070 C 0.46331 0.15467 0.07055 0.0
C1071 C 0.47697 0.08938 0.18135 0.0
H1072 H 0.43203 0.16696 0.23097 0.0
H1073 H 0.39116 0.1246 0.14424 0.0
H1074 H 0.4856 0.14039 0.20967 0.0
H1075 H 0.48178 0.16441 0.17321 0.0
H1076 H 0.47214 0.16605 0.23067 0.0
H1077 H 0.40752 0.09658 0.0972 0.0
H1078 H 0.43051 0.11052 0.06753 0.0
H1079 H 0.4369 0.08834 0.10703 0.0
H1080 H 0.50246 0.13822 0.03548 0.0
H1081 H 0.5149 0.08406 0.13019 0.0
H1082 H 0.46207 0.16785 0.09732 0.0
H1083 H 0.44561 0.14919 0.06231 0.0
H1084 H 0.47098 0.16266 0.0402 0.0
H1085 H 0.47684 0.10031 0.21184 0.0
H1086 H 0.48871 0.07471 0.18727 0.0
H1087 H 0.45933 0.0827 0.17676 0.0
C1088 C 0.13441 0.73287 0.11605 0.0
C1089 C 0.14734 0.73304 0.1557 0.0
C1090 C 0.12727 0.75342 0.09604 0.0
C1091 C 0.13396 0.77454 0.11537 0.0
C1092 C 0.14838 0.77472 0.15369 0.0
C1093 C 0.15448 0.75392 0.17404 0.0
C1094 C 0.11126 0.75246 0.05619 0.0
C1095 C 0.15654 0.79689 0.17432 0.0
C1096 C 0.12385 0.82907 0.04816 0.0
C1097 C 0.1045 0.83788 0.06982 0.0
C1098 C 0.13392 0.80853 0.06286 0.0
C1099 C 0.12377 0.79629 0.09886 0.0
C1100 C 0.10377 0.80492 0.11979 0.0
C1101 C 0.09465 0.82588 0.10557 0.0
C1102 C 0.15566 0.80027 0.04078 0.0
C1103 C 0.09194 0.79203 0.1572 0.0
H1104 H 0.12872 0.71666 0.10221 0.0
H1105 H 0.16463 0.75396 0.20458 0.0
H1106 H 0.09417 0.759 0.06627 0.0
H1107 H 0.11757 0.76359 0.02867 0.0
H1108 H 0.10919 0.73478 0.04302 0.0
H1109 H 0.17025 0.79406 0.19962 0.0
H1110 H 0.1631 0.80859 0.1479 0.0
H1111 H 0.14201 0.80563 0.1911 0.0
H1112 H 0.13148 0.83862 0.02072 0.0
H1113 H 0.07956 0.83276 0.12196 0.0
H1114 H 0.15332 0.78267 0.02752 0.0
H1115 H 0.16961 0.79951 0.06608 0.0
H1116 H 0.16114 0.8116 0.01277 0.0
H1117 H 0.08814 0.77424 0.14634 0.0
H1118 H 0.07568 0.80033 0.16765 0.0
H1119 H 0.10337 0.79094 0.1869 0.0
C1120 C 0.4908 0.87139 0.41771 0.0
C1121 C 0.50551 0.88845 0.40142 0.0
C1122 C 0.47036 0.86606 0.39531 0.0
C1123 C 0.46424 0.87837 0.3561 0.0
C1124 C 0.47874 0.89596 0.33998 0.0
C1125 C 0.49934 0.90065 0.3626 0.0
C1126 C 0.45549 0.84696 0.41325 0.0
C1127 C 0.47253 0.90976 0.29882 0.0
C1128 C 0.42172 0.84785 0.28053 0.0
C1129 C 0.40086 0.85645 0.29664 0.0
C1130 C 0.44263 0.85557 0.29821 0.0
C1131 C 0.44264 0.87257 0.33218 0.0
C1132 C 0.42171 0.88242 0.34629 0.0
C1133 C 0.40105 0.87409 0.32864 0.0
C1134 C 0.4646 0.8445 0.28257 0.0
C1135 C 0.42103 0.90094 0.38169 0.0
H1136 H 0.49554 0.86175 0.44742 0.0
H1137 H 0.51058 0.91395 0.34996 0.0
H1138 H 0.43824 0.85366 0.42169 0.0
H1139 H 0.45321 0.8336 0.3871 0.0
H1140 H 0.46287 0.83883 0.44375 0.0
H1141 H 0.48531 0.92334 0.29146 0.0
H1142 H 0.4712 0.89833 0.26916 0.0
H1143 H 0.45552 0.91789 0.3035 0.0
H1144 H 0.42168 0.83419 0.25585 0.0
H1145 H 0.38498 0.88102 0.3408 0.0
H1146 H 0.47199 0.8342 0.31037 0.0
H1147 H 0.47741 0.85773 0.27345 0.0
H1148 H 0.46188 0.8331 0.25316 0.0
H1149 H 0.42586 0.89359 0.41475 0.0
H1150 H 0.40376 0.90877 0.38479 0.0
H1151 H 0.43359 0.91461 0.37377 0.0
C1152 C 0.38103 0.15201 0.59293 0.0
C1153 C 0.39771 0.15369 0.5592 0.0
C1154 C 0.37086 0.1717 0.61115 0.0
C1155 C 0.378 0.19354 0.59602 0.0
C1156 C 0.39418 0.19529 0.56075 0.0
C1157 C 0.40364 0.17531 0.54237 0.0
C1158 C 0.35319 0.16914 0.64783 0.0
C1159 C 0.40252 0.21828 0.54423 0.0
C1160 C 0.34549 0.24791 0.62516 0.0
C1161 C 0.35787 0.2558 0.6625 0.0
C1162 C 0.3513 0.22721 0.604 0.0
C1163 C 0.3703 0.21451 0.61989 0.0
C1164 C 0.38267 0.22228 0.65789 0.0
C1165 C 0.37612 0.24268 0.67905 0.0
C1166 C 0.33737 0.21912 0.5643 0.0
C1167 C 0.40331 0.20944 0.67534 0.0
H1168 H 0.3762 0.13529 0.60563 0.0
H1169 H 0.41658 0.17669 0.51639 0.0
H1170 H 0.36054 0.1749 0.68031 0.0
H1171 H 0.33808 0.18008 0.64072 0.0
H1172 H 0.34739 0.15113 0.65165 0.0
H1173 H 0.41399 0.21671 0.51462 0.0
H1174 H 0.38782 0.22937 0.53503 0.0
H1175 H 0.41202 0.22707 0.57156 0.0
H1176 H 0.33127 0.25795 0.61245 0.0
H1177 H 0.38589 0.24881 0.70762 0.0
H1178 H 0.33163 0.20122 0.56971 0.0
H1179 H 0.3481 0.21924 0.53355 0.0
H1180 H 0.32209 0.23005 0.55831 0.0
H1181 H 0.39846 0.19166 0.68437 0.0
H1182 H 0.41099 0.21776 0.70535 0.0
H1183 H 0.41654 0.20836 0.64868 0.0
C1184 C 0.0942 0.13126 0.8355 0.0
C1185 C 0.09466 0.14919 0.80416 0.0
C1186 C 0.07337 0.12234 0.85113 0.0
C1187 C 0.05253 0.13193 0.83576 0.0
C1188 C 0.05286 0.14921 0.80239 0.0
C1189 C 0.07395 0.15749 0.78665 0.0
C1190 C 0.07372 0.10351 0.8859 0.0
C1191 C 0.03102 0.16008 0.78555 0.0
C1192 C 0.99583 0.10299 0.86334 0.0
C1193 C 0.98936 0.1147 0.90252 0.0
C1194 C 0.01648 0.1082 0.8413 0.0
C1195 C 0.03066 0.12584 0.85839 0.0
C1196 C 0.02405 0.13786 0.89762 0.0
C1197 C 0.00362 0.13199 0.91942 0.0
C1198 C 0.02321 0.09474 0.80005 0.0
C1199 C 0.0385 0.15706 0.9165 0.0
H1200 H 0.11017 0.12455 0.84868 0.0
H1201 H 0.07418 0.17137 0.76245 0.0
H1202 H 0.06838 0.11053 0.91893 0.0
H1203 H 0.06139 0.0898 0.87682 0.0
H1204 H 0.09101 0.0958 0.88968 0.0
H1205 H 0.03406 0.17152 0.75631 0.0
H1206 H 0.01844 0.14677 0.77573 0.0
H1207 H 0.02318 0.17033 0.81294 0.0
H1208 H 0.98492 0.08953 0.85025 0.0
H1209 H 0.99862 0.14128 0.9494 0.0
H1210 H 0.03999 0.08629 0.80568 0.0
H1211 H 0.02528 0.10643 0.77095 0.0
H1212 H 0.01037 0.08144 0.79126 0.0
H1213 H 0.05564 0.15046 0.92607 0.0
H1214 H 0.03058 0.16514 0.94652 0.0
H1215 H 0.04114 0.17045 0.89054 0.0
C1216 C 0.86517 0.74058 0.62184 0.0
C1217 C 0.85014 0.7411 0.65844 0.0
C1218 C 0.8719 0.76087 0.60043 0.0
C1219 C 0.86261 0.78203 0.61493 0.0
C1220 C 0.84608 0.78237 0.6498 0.0
C1221 C 0.84046 0.7619 0.67197 0.0
C1222 C 0.89021 0.7598 0.56464 0.0
C1223 C 0.8351 0.80445 0.66496 0.0
C1224 C 0.90048 0.83438 0.60468 0.0
C1225 C 0.89315 0.84375 0.56387 0.0
C1226 C 0.89065 0.81427 0.6215 0.0
C1227 C 0.8724 0.80382 0.59776 0.0
C1228 C 0.86438 0.81372 0.55719 0.0
C1229 C 0.87524 0.83337 0.54012 0.0
C1230 C 0.90029 0.80388 0.66401 0.0
C1231 C 0.84437 0.80358 0.53196 0.0
H1232 H 0.87277 0.72442 0.61179 0.0
H1233 H 0.8287 0.76216 0.70016 0.0
H1234 H 0.88465 0.76908 0.53403 0.0
H1235 H 0.90596 0.76835 0.57712 0.0
H1236 H 0.89457 0.74191 0.55523 0.0
H1237 H 0.81993 0.80135 0.68666 0.0
H1238 H 0.84767 0.81473 0.6843 0.0
H1239 H 0.82974 0.81482 0.63551 0.0
H1240 H 0.9145 0.84238 0.62271 0.0
H1241 H 0.86955 0.84083 0.50865 0.0
H1242 H 0.90597 0.78605 0.65744 0.0
H1243 H 0.88687 0.80313 0.69031 0.0
H1244 H 0.91506 0.81375 0.67742 0.0
H1245 H 0.84885 0.78626 0.51948 0.0
H1246 H 0.83916 0.81431 0.50287 0.0
H1247 H 0.8295 0.80161 0.55486 0.0
C1248 C 0.90445 0.12349 0.33957 0.0
C1249 C 0.90626 0.14017 0.30585 0.0
C1250 C 0.92407 0.11379 0.35906 0.0
C1251 C 0.94597 0.12143 0.34526 0.0
C1252 C 0.9479 0.13739 0.30962 0.0
C1253 C 0.92799 0.14637 0.28997 0.0
C1254 C 0.92133 0.09631 0.39604 0.0
C1255 C 0.97092 0.14623 0.29437 0.0
C1256 C 0.99305 0.12319 0.43277 0.0
C1257 C 0.00748 0.10541 0.41863 0.0
C1258 C 0.97286 0.12832 0.40943 0.0
C1259 C 0.96663 0.11501 0.37157 0.0
C1260 C 0.98062 0.09643 0.35815 0.0
C1261 C 0.00108 0.09202 0.38151 0.0
C1262 C 0.95862 0.14855 0.42439 0.0
C1263 C 0.97418 0.08149 0.31871 0.0
H1264 H 0.88766 0.1184 0.35151 0.0
H1265 H 0.92949 0.15928 0.26395 0.0
H1266 H 0.93324 0.08174 0.39088 0.0
H1267 H 0.92566 0.10425 0.42883 0.0
H1268 H 0.90355 0.0896 0.39793 0.0
H1269 H 0.96959 0.15701 0.26371 0.0
H1270 H 0.9787 0.15666 0.32159 0.0
H1271 H 0.98275 0.13181 0.2874 0.0
H1272 H 0.99798 0.13374 0.46116 0.0
H1273 H 0.01212 0.07816 0.37061 0.0
H1274 H 0.9409 0.14295 0.43211 0.0
H1275 H 0.95753 0.16131 0.39683 0.0
H1276 H 0.96582 0.15709 0.45462 0.0
H1277 H 0.95637 0.07517 0.32255 0.0
H1278 H 0.98581 0.06655 0.31506 0.0
H1279 H 0.97481 0.09166 0.28725 0.0
C1280 C 0.65502 0.25017 0.13427 0.0
C1281 C 0.64132 0.25715 0.1705 0.0
C1282 C 0.65065 0.22952 0.11166 0.0
C1283 C 0.63179 0.21589 0.12497 0.0
C1284 C 0.61828 0.22257 0.16224 0.0
C1285 C 0.62338 0.24299 0.18488 0.0
C1286 C 0.66579 0.22262 0.07285 0.0
C1287 C 0.5978 0.20868 0.17702 0.0
C1288 C 0.60118 0.17763 0.04152 0.0
C1289 C 0.60728 0.15582 0.05711 0.0
C1290 C 0.60978 0.19742 0.06223 0.0
C1291 C 0.62524 0.19528 0.09869 0.0
C1292 C 0.63266 0.17332 0.11252 0.0
C1293 C 0.62336 0.15382 0.09191 0.0
C1294 C 0.6012 0.22054 0.0469 0.0
C1295 C 0.64962 0.17039 0.15041 0.0
H1296 H 0.66901 0.261 0.12321 0.0
H1297 H 0.61261 0.24838 0.2126 0.0
H1298 H 0.67167 0.20467 0.0771 0.0
H1299 H 0.65592 0.2234 0.04103 0.0
H1300 H 0.68102 0.2339 0.06959 0.0
H1301 H 0.58934 0.21601 0.20721 0.0
H1302 H 0.58506 0.20788 0.14936 0.0
H1303 H 0.60304 0.19085 0.18468 0.0
H1304 H 0.5887 0.17927 0.01471 0.0
H1305 H 0.62835 0.13696 0.10367 0.0
H1306 H 0.61579 0.23216 0.0399 0.0
H1307 H 0.5909 0.22849 0.07407 0.0
H1308 H 0.59042 0.21934 0.01622 0.0
H1309 H 0.66448 0.18199 0.14572 0.0
H1310 H 0.65595 0.1525 0.15296 0.0
H1311 H 0.64138 0.17504 0.18273 0.0
C1312 C 0.57488 0.84475 0.78205 0.0
C1313 C 0.59619 0.85196 0.79855 0.0
C1314 C 0.55444 0.8524 0.80175 0.0
C1315 C 0.55537 0.86798 0.83818 0.0
C1316 C 0.57678 0.87635 0.85322 0.0
C1317 C 0.59697 0.86805 0.83353 0.0
C1318 C 0.53194 0.84285 0.78515 0.0
C1319 C 0.57842 0.8934 0.89124 0.0
C1320 C 0.49967 0.89732 0.87035 0.0
C1321 C 0.49257 0.88404 0.90711 0.0
C1322 C 0.5204 0.89272 0.84827 0.0
C1323 C 0.53406 0.87409 0.8627 0.0
C1324 C 0.52708 0.86078 0.90005 0.0
C1325 C 0.50653 0.86607 0.9221 0.0
C1326 C 0.52757 0.9076 0.80923 0.0
C1327 C 0.541 0.84054 0.916 0.0
H1328 H 0.57417 0.83224 0.75516 0.0
H1329 H 0.6134 0.87386 0.8461 0.0
H1330 H 0.52393 0.83239 0.81203 0.0
H1331 H 0.51989 0.85694 0.77707 0.0
H1332 H 0.53406 0.83196 0.75481 0.0
H1333 H 0.59609 0.90011 0.89555 0.0
H1334 H 0.56667 0.90802 0.88524 0.0
H1335 H 0.57307 0.88513 0.92312 0.0
H1336 H 0.489 0.91134 0.85883 0.0
H1337 H 0.50104 0.85564 0.95025 0.0
H1338 H 0.52814 0.89725 0.77799 0.0
H1339 H 0.54507 0.91441 0.81498 0.0
H1340 H 0.5157 0.92222 0.80391 0.0
H1341 H 0.54264 0.82782 0.88848 0.0
H1342 H 0.5332 0.83197 0.9456 0.0
H1343 H 0.55855 0.84614 0.92511 0.0
C1344 C 0.83781 0.2501 0.86796 0.0
C1345 C 0.84886 0.25658 0.82805 0.0
C1346 C 0.84328 0.22941 0.88948 0.0
C1347 C 0.86058 0.21523 0.87118 0.0
C1348 C 0.87108 0.22124 0.82995 0.0
C1349 C 0.86489 0.24171 0.80864 0.0
C1350 C 0.83123 0.2232 0.93266 0.0
C1351 C 0.88984 0.20673 0.80963 0.0
C1352 C 0.89776 0.17859 0.94665 0.0
C1353 C 0.89076 0.15653 0.93439 0.0
C1354 C 0.88742 0.19796 0.92758 0.0
C1355 C 0.86921 0.19511 0.89658 0.0
C1356 C 0.86101 0.17288 0.88661 0.0
C1357 C 0.87216 0.15379 0.90508 0.0
C1358 C 0.89697 0.22136 0.93841 0.0
C1359 C 0.84114 0.16922 0.85494 0.0
H1360 H 0.82524 0.26144 0.88294 0.0
H1361 H 0.87359 0.24664 0.77795 0.0
H1362 H 0.82551 0.20508 0.93178 0.0
H1363 H 0.84326 0.22499 0.9613 0.0
H1364 H 0.81614 0.23433 0.93907 0.0
H1365 H 0.89563 0.21336 0.77653 0.0
H1366 H 0.90478 0.20628 0.83271 0.0
H1367 H 0.88387 0.18885 0.80517 0.0
H1368 H 0.91222 0.18071 0.96915 0.0
H1369 H 0.86656 0.13669 0.89603 0.0
H1370 H 0.88309 0.233 0.94957 0.0
H1371 H 0.90465 0.22893 0.9077 0.0
H1372 H 0.9103 0.22071 0.96504 0.0
H1373 H 0.82688 0.18106 0.8632 0.0
H1374 H 0.83466 0.15134 0.85615 0.0
H1375 H 0.84659 0.173 0.82002 0.0
C1376 C 0.59776 0.13023 0.66127 0.0
C1377 C 0.59656 0.14746 0.69401 0.0
C1378 C 0.57779 0.12033 0.64369 0.0
C1379 C 0.55617 0.12829 0.65841 0.0
C1380 C 0.55488 0.14489 0.69302 0.0
C1381 C 0.57514 0.15409 0.7108 0.0
C1382 C 0.57985 0.10221 0.60771 0.0
C1383 C 0.53215 0.15409 0.70911 0.0
C1384 C 0.50823 0.12741 0.57266 0.0
C1385 C 0.49451 0.10939 0.58826 0.0
C1386 C 0.52828 0.1337 0.59535 0.0
C1387 C 0.53508 0.12132 0.63404 0.0
C1388 C 0.52162 0.10275 0.64941 0.0
C1389 C 0.50129 0.09717 0.62662 0.0
C1390 C 0.54194 0.1539 0.57836 0.0
C1391 C 0.52867 0.08884 0.68989 0.0
H1392 H 0.61432 0.12484 0.64867 0.0
H1393 H 0.57415 0.16745 0.73605 0.0
H1394 H 0.5682 0.08766 0.61493 0.0
H1395 H 0.57471 0.10951 0.57481 0.0
H1396 H 0.59763 0.09559 0.60471 0.0
H1397 H 0.53402 0.16533 0.73903 0.0
H1398 H 0.52401 0.16414 0.68176 0.0
H1399 H 0.52036 0.13986 0.71761 0.0
H1400 H 0.50295 0.13706 0.54331 0.0
H1401 H 0.49079 0.08313 0.63863 0.0
H1402 H 0.55956 0.14838 0.56957 0.0
H1403 H 0.54342 0.16704 0.60515 0.0
H1404 H 0.53405 0.16195 0.54827 0.0
H1405 H 0.54621 0.08197 0.685 0.0
H1406 H 0.51683 0.07432 0.69635 0.0
H1407 H 0.52914 0.09991 0.72017 0.0
C1408 C 0.65591 0.7586 0.32619 0.0
C1409 C 0.64661 0.73781 0.34079 0.0
C1410 C 0.64966 0.77929 0.34687 0.0
C1411 C 0.63295 0.77913 0.38139 0.0
C1412 C 0.624 0.75803 0.39696 0.0
C1413 C 0.63131 0.73756 0.37699 0.0
C1414 C 0.66024 0.80136 0.33056 0.0
C1415 C 0.60554 0.75715 0.43246 0.0
C1416 C 0.61992 0.83165 0.45262 0.0
C1417 C 0.60207 0.84157 0.42797 0.0
C1418 C 0.63076 0.81165 0.43718 0.0
C1419 C 0.62281 0.80099 0.39731 0.0
C1420 C 0.60453 0.81091 0.37279 0.0
C1421 C 0.5947 0.83135 0.38799 0.0
C1422 C 0.65075 0.80204 0.46324 0.0
C1423 C 0.59499 0.79971 0.33099 0.0
H1424 H 0.6679 0.75867 0.29837 0.0
H1425 H 0.62401 0.72141 0.38791 0.0
H1426 H 0.64745 0.81119 0.31088 0.0
H1427 H 0.66548 0.81217 0.35948 0.0
H1428 H 0.67542 0.79826 0.30889 0.0
H1429 H 0.60149 0.73933 0.44287 0.0
H1430 H 0.61077 0.76702 0.4626 0.0
H1431 H 0.58969 0.76519 0.41921 0.0
H1432 H 0.62565 0.83978 0.4834 0.0
H1433 H 0.58072 0.83903 0.36927 0.0
H1434 H 0.6658 0.80015 0.44077 0.0
H1435 H 0.64649 0.78473 0.4761 0.0
H1436 H 0.65559 0.81308 0.49214 0.0
H1437 H 0.60841 0.7987 0.30472 0.0
H1438 H 0.58009 0.80917 0.31702 0.0
H1439 H 0.58955 0.78192 0.33868 0.0
C1440 C 0.92699 0.84855 0.20352 0.0
C1441 C 0.90593 0.85832 0.19176 0.0
C1442 C 0.9475 0.85697 0.18547 0.0
C1443 C 0.94693 0.87607 0.15614 0.0
C1444 C 0.9258 0.8869 0.14647 0.0
C1445 C 0.90545 0.87761 0.16377 0.0
C1446 C 0.96962 0.84459 0.19573 0.0
C1447 C 0.9246 0.90776 0.11662 0.0
C1448 C 0.00487 0.90305 0.13271 0.0
C1449 C 0.01067 0.8928 0.09158 0.0
C1450 C 0.98368 0.89864 0.15325 0.0
C1451 C 0.96817 0.88327 0.13257 0.0
C1452 C 0.97364 0.87344 0.09042 0.0
C1453 C 0.99472 0.8785 0.07024 0.0
C1454 C 0.97818 0.9099 0.19763 0.0
C1455 C 0.95769 0.85674 0.06752 0.0
H1456 H 0.92733 0.83351 0.22488 0.0
H1457 H 0.88913 0.88528 0.15504 0.0
H1458 H 0.97663 0.83708 0.16435 0.0
H1459 H 0.98257 0.85675 0.20888 0.0
H1460 H 0.96726 0.83062 0.22065 0.0
H1461 H 0.90741 0.9159 0.11735 0.0
H1462 H 0.93757 0.92059 0.12708 0.0
H1463 H 0.92852 0.90284 0.08145 0.0
H1464 H 0.01702 0.91431 0.1492 0.0
H1465 H 0.99908 0.87046 0.03854 0.0
H1466 H 0.97802 0.89683 0.22467 0.0
H1467 H 0.96087 0.91773 0.19651 0.0
H1468 H 0.99084 0.92334 0.20667 0.0
H1469 H 0.95544 0.84135 0.08898 0.0
H1470 H 0.96418 0.85118 0.03416 0.0
H1471 H 0.94054 0.86456 0.06289 0.0
C1472 C 0.62727 0.74539 0.81257 0.0
C1473 C 0.64507 0.75951 0.82782 0.0
C1474 C 0.62111 0.72554 0.83598 0.0
C1475 C 0.6334 0.71931 0.87513 0.0
C1476 C 0.65182 0.73313 0.89013 0.0
C1477 C 0.65726 0.75329 0.86659 0.0
C1478 C 0.60105 0.71153 0.81934 0.0
C1479 C 0.66564 0.72667 0.93109 0.0
C1480 C 0.60002 0.68044 0.95308 0.0
C1481 C 0.60658 0.65876 0.93743 0.0
C1482 C 0.6095 0.70041 0.93464 0.0
C1483 C 0.62632 0.69859 0.90055 0.0
C1484 C 0.63419 0.67672 0.88701 0.0
C1485 C 0.62399 0.65704 0.90519 0.0
C1486 C 0.60033 0.72339 0.94941 0.0
C1487 C 0.65253 0.67409 0.85164 0.0
H1488 H 0.61761 0.75023 0.78292 0.0
H1489 H 0.6711 0.76411 0.87837 0.0
H1490 H 0.60667 0.69382 0.81165 0.0
H1491 H 0.58778 0.7104 0.84594 0.0
H1492 H 0.59311 0.71894 0.78867 0.0
H1493 H 0.68023 0.73853 0.93685 0.0
H1494 H 0.65454 0.72682 0.96132 0.0
H1495 H 0.6724 0.70901 0.92739 0.0
H1496 H 0.58653 0.68184 0.97795 0.0
H1497 H 0.62933 0.64028 0.89349 0.0
H1498 H 0.59046 0.73121 0.92145 0.0
H1499 H 0.61458 0.73522 0.95763 0.0
H1500 H 0.58893 0.72197 0.97916 0.0
H1501 H 0.64543 0.67871 0.81826 0.0
H1502 H 0.65914 0.65627 0.84988 0.0
H1503 H 0.66704 0.68585 0.85852 0.0
C1504 C 0.50598 0.40251 0.07179 0.0
C1505 C 0.48515 0.39264 0.08457 0.0
C1506 C 0.52642 0.39648 0.09366 0.0
C1507 C 0.52601 0.37941 0.12751 0.0
C1508 C 0.50487 0.36968 0.14091 0.0
C1509 C 0.4846 0.37678 0.1198 0.0
C1510 C 0.5485 0.40785 0.07964 0.0
C1511 C 0.50378 0.35084 0.17562 0.0
C1512 C 0.5798 0.34362 0.14001 0.0
C1513 C 0.58851 0.35146 0.18105 0.0
C1514 C 0.55934 0.35245 0.12253 0.0
C1515 C 0.54782 0.37017 0.14588 0.0
C1516 C 0.5569 0.37857 0.18688 0.0
C1517 C 0.57697 0.36876 0.20448 0.0
C1518 C 0.54985 0.34249 0.07951 0.0
C1519 C 0.54555 0.39799 0.21187 0.0
H1520 H 0.50625 0.41488 0.04461 0.0
H1521 H 0.46841 0.36903 0.1292 0.0
H1522 H 0.55823 0.41357 0.10966 0.0
H1523 H 0.55939 0.3954 0.06133 0.0
H1524 H 0.54548 0.42285 0.05744 0.0
H1525 H 0.48589 0.34578 0.18357 0.0
H1526 H 0.51308 0.33556 0.16302 0.0
H1527 H 0.51233 0.35631 0.20712 0.0
H1528 H 0.58869 0.33009 0.12216 0.0
H1529 H 0.58391 0.37492 0.23607 0.0
H1530 H 0.54889 0.35593 0.05326 0.0
H1531 H 0.53218 0.33612 0.0852 0.0
H1532 H 0.56046 0.32814 0.06653 0.0
H1533 H 0.54368 0.41302 0.18935 0.0
H1534 H 0.5554 0.40323 0.24213 0.0
H1535 H 0.52809 0.39287 0.22252 0.0
C1536 C 0.85026 0.24244 0.37697 0.0
C1537 C 0.86163 0.23681 0.3369 0.0
C1538 C 0.85558 0.26266 0.40043 0.0
C1539 C 0.87299 0.27728 0.38387 0.0
C1540 C 0.88445 0.27168 0.34342 0.0
C1541 C 0.87849 0.25166 0.32025 0.0
C1542 C 0.84269 0.26832 0.44296 0.0
C1543 C 0.90336 0.28663 0.32497 0.0
C1544 C 0.87948 0.33985 0.41539 0.0
C1545 C 0.89776 0.33897 0.44598 0.0
C1546 C 0.87019 0.31973 0.39708 0.0
C1547 C 0.87974 0.29828 0.40892 0.0
C1548 C 0.89746 0.29722 0.44135 0.0
C1549 C 0.90611 0.31758 0.45983 0.0
C1550 C 0.85093 0.32153 0.3634 0.0
C1551 C 0.90832 0.27471 0.45442 0.0
H1552 H 0.83712 0.2311 0.38989 0.0
H1553 H 0.88749 0.24734 0.28954 0.0
H1554 H 0.85467 0.26873 0.47188 0.0
H1555 H 0.83491 0.2856 0.44021 0.0
H1556 H 0.82893 0.25571 0.45023 0.0
H1557 H 0.91071 0.27974 0.2933 0.0
H1558 H 0.89676 0.30412 0.31835 0.0
H1559 H 0.91732 0.28821 0.35011 0.0
H1560 H 0.87277 0.35632 0.40494 0.0
H1561 H 0.92027 0.31676 0.48334 0.0
H1562 H 0.83717 0.30909 0.37149 0.0
H1563 H 0.85743 0.31726 0.32939 0.0
H1564 H 0.84343 0.33901 0.36235 0.0
H1565 H 0.895 0.26206 0.46386 0.0
H1566 H 0.92048 0.27659 0.48291 0.0
H1567 H 0.91775 0.26759 0.42521 0.0
C1568 C 0.90445 0.63311 0.66371 0.0
C1569 C 0.90496 0.65077 0.69567 0.0
C1570 C 0.92474 0.62443 0.64518 0.0
C1571 C 0.946 0.63391 0.65838 0.0
C1572 C 0.94669 0.65105 0.69202 0.0
C1573 C 0.92614 0.65915 0.71058 0.0
C1574 C 0.92334 0.60579 0.61009 0.0
C1575 C 0.96904 0.66174 0.70663 0.0
C1576 C 0.0017 0.604 0.62829 0.0
C1577 C 0.00814 0.61577 0.58913 0.0
C1578 C 0.98131 0.60943 0.65087 0.0
C1579 C 0.96728 0.62729 0.63432 0.0
C1580 C 0.97362 0.63914 0.59472 0.0
C1581 C 0.99387 0.63309 0.57239 0.0
C1582 C 0.97484 0.59615 0.69252 0.0
C1583 C 0.95923 0.6585 0.57633 0.0
H1584 H 0.88812 0.62638 0.65245 0.0
H1585 H 0.92664 0.67284 0.73518 0.0
H1586 H 0.92837 0.6128 0.57688 0.0
H1587 H 0.93544 0.59173 0.61821 0.0
H1588 H 0.90581 0.59854 0.60721 0.0
H1589 H 0.96681 0.67363 0.73544 0.0
H1590 H 0.98152 0.64829 0.71626 0.0
H1591 H 0.97658 0.67142 0.67814 0.0
H1592 H 0.0126 0.5905 0.64127 0.0
H1593 H 0.99882 0.64239 0.5424 0.0
H1594 H 0.95755 0.58856 0.68838 0.0
H1595 H 0.97406 0.60784 0.72187 0.0
H1596 H 0.9872 0.5822 0.70007 0.0
H1597 H 0.94173 0.65226 0.56852 0.0
H1598 H 0.96667 0.66609 0.54537 0.0
H1599 H 0.95752 0.67218 0.602 0.0
C1600 C 0.6521 0.24944 0.61835 0.0
C1601 C 0.64099 0.24347 0.6585 0.0
C1602 C 0.64625 0.26959 0.59515 0.0
C1603 C 0.62854 0.28376 0.61202 0.0
C1604 C 0.61727 0.27775 0.65246 0.0
C1605 C 0.6238 0.25784 0.67541 0.0
C1606 C 0.65897 0.27573 0.55267 0.0
C1607 C 0.59802 0.29218 0.67119 0.0
C1608 C 0.62072 0.34641 0.58278 0.0
C1609 C 0.60239 0.34545 0.55234 0.0
C1610 C 0.63051 0.32633 0.60015 0.0
C1611 C 0.6214 0.3048 0.58755 0.0
C1612 C 0.60366 0.30368 0.55514 0.0
C1613 C 0.59453 0.32404 0.53755 0.0
C1614 C 0.6498 0.32822 0.63377 0.0
C1615 C 0.59326 0.28108 0.54129 0.0
H1616 H 0.66548 0.23845 0.60524 0.0
H1617 H 0.61497 0.25323 0.70615 0.0
H1618 H 0.64691 0.27627 0.52388 0.0
H1619 H 0.66658 0.29306 0.55592 0.0
H1620 H 0.67283 0.26332 0.54487 0.0
H1621 H 0.59074 0.28489 0.70257 0.0
H1622 H 0.60428 0.30973 0.67844 0.0
H1623 H 0.5841 0.29371 0.64598 0.0
H1624 H 0.62707 0.36292 0.59389 0.0
H1625 H 0.58033 0.32318 0.51412 0.0
H1626 H 0.66375 0.31607 0.62529 0.0
H1627 H 0.64341 0.32363 0.6677 0.0
H1628 H 0.657 0.34581 0.63523 0.0
H1629 H 0.60682 0.26872 0.53171 0.0
H1630 H 0.58118 0.28297 0.51266 0.0
H1631 H 0.58382 0.27362 0.57016 0.0
C1632 C 0.9873 0.39715 0.92632 0.0
C1633 C 0.00848 0.39165 0.9072 0.0
C1634 C 0.9668 0.39056 0.90532 0.0
C1635 C 0.96765 0.37734 0.86541 0.0
C1636 C 0.98907 0.37206 0.84567 0.0
C1637 C 0.00924 0.37967 0.86644 0.0
C1638 C 0.94427 0.39718 0.92651 0.0
C1639 C 0.99075 0.35731 0.8041 0.0
C1640 C 0.91725 0.33746 0.84814 0.0
C1641 C 0.90533 0.34845 0.81358 0.0
C1642 C 0.93793 0.34639 0.86434 0.0
C1643 C 0.94631 0.3673 0.84669 0.0
C1644 C 0.93417 0.37854 0.81181 0.0
C1645 C 0.91393 0.36872 0.79507 0.0
C1646 C 0.95075 0.33345 0.90042 0.0
C1647 C 0.94218 0.4012 0.79316 0.0
H1648 H 0.98679 0.40656 0.95772 0.0
H1649 H 0.02571 0.37524 0.85197 0.0
H1650 H 0.93261 0.40457 0.90085 0.0
H1651 H 0.93578 0.38174 0.94042 0.0
H1652 H 0.9465 0.40981 0.9541 0.0
H1653 H 0.00862 0.3558 0.79168 0.0
H1654 H 0.98421 0.33989 0.81171 0.0
H1655 H 0.97995 0.3644 0.77679 0.0
H1656 H 0.91048 0.3217 0.86216 0.0
H1657 H 0.90438 0.37726 0.76867 0.0
H1658 H 0.95133 0.34375 0.93171 0.0
H1659 H 0.9687 0.33044 0.88971 0.0
H1660 H 0.94271 0.31667 0.90819 0.0
H1661 H 0.94264 0.41415 0.82046 0.0
H1662 H 0.93088 0.40759 0.76584 0.0
H1663 H 0.95985 0.39962 0.77989 0.0
C1664 C 0.87568 0.74984 0.18021 0.0
C1665 C 0.8587 0.76396 0.16169 0.0
C1666 C 0.88183 0.72918 0.15964 0.0
C1667 C 0.87038 0.72217 0.12004 0.0
C1668 C 0.85292 0.73612 0.1015 0.0
C1669 C 0.84746 0.75705 0.12228 0.0
C1670 C 0.90087 0.71504 0.18001 0.0
C1671 C 0.84002 0.7289 0.05986 0.0
C1672 C 0.90366 0.67928 0.05038 0.0
C1673 C 0.89547 0.65847 0.06755 0.0
C1674 C 0.89488 0.70024 0.06565 0.0
C1675 C 0.87716 0.70034 0.09811 0.0
C1676 C 0.86782 0.67936 0.11335 0.0
C1677 C 0.87728 0.65865 0.09828 0.0
C1678 C 0.90558 0.72224 0.04919 0.0
C1679 C 0.84855 0.67877 0.14715 0.0
H1680 H 0.88461 0.75521 0.21038 0.0
H1681 H 0.83425 0.76788 0.10799 0.0
H1682 H 0.89433 0.69786 0.18941 0.0
H1683 H 0.91471 0.71247 0.15497 0.0
H1684 H 0.90835 0.72317 0.21041 0.0
H1685 H 0.8264 0.74132 0.05057 0.0
H1686 H 0.85202 0.7272 0.03117 0.0
H1687 H 0.83207 0.71186 0.06524 0.0
H1688 H 0.91774 0.67924 0.02666 0.0
H1689 H 0.87068 0.64259 0.11115 0.0
H1690 H 0.91502 0.73052 0.0772 0.0
H1691 H 0.89218 0.73441 0.03792 0.0
H1692 H 0.91771 0.71932 0.02101 0.0
H1693 H 0.85501 0.6844 0.18043 0.0
H1694 H 0.84116 0.66134 0.15081 0.0
H1695 H 0.83472 0.69077 0.13715 0.0
C1696 C 0.59313 0.62882 0.33014 0.0
C1697 C 0.594 0.64627 0.29781 0.0
C1698 C 0.57211 0.62046 0.3459 0.0
C1699 C 0.5515 0.63013 0.32955 0.0
C1700 C 0.55225 0.6469 0.29522 0.0
C1701 C 0.57353 0.65463 0.27942 0.0
C1702 C 0.572 0.60216 0.38176 0.0
C1703 C 0.53065 0.65781 0.2773 0.0
C1704 C 0.49423 0.60235 0.35644 0.0
C1705 C 0.48743 0.61479 0.39453 0.0
C1706 C 0.51521 0.60689 0.33514 0.0
C1707 C 0.52943 0.62458 0.35184 0.0
C1708 C 0.5226 0.63723 0.39016 0.0
C1709 C 0.5018 0.63203 0.41127 0.0
C1710 C 0.52218 0.59276 0.29491 0.0
C1711 C 0.53713 0.65648 0.40859 0.0
H1712 H 0.60893 0.62207 0.34401 0.0
H1713 H 0.57409 0.66814 0.25446 0.0
H1714 H 0.56652 0.60974 0.41421 0.0
H1715 H 0.55957 0.58847 0.37316 0.0
H1716 H 0.58917 0.59432 0.38644 0.0
H1717 H 0.53401 0.66888 0.24766 0.0
H1718 H 0.518 0.64451 0.26769 0.0
H1719 H 0.52271 0.66844 0.30401 0.0
H1720 H 0.48323 0.58891 0.34349 0.0
H1721 H 0.49656 0.64186 0.4404 0.0
H1722 H 0.53896 0.58446 0.30134 0.0
H1723 H 0.52434 0.60397 0.26512 0.0
H1724 H 0.50941 0.57928 0.28673 0.0
H1725 H 0.55414 0.64982 0.41882 0.0
H1726 H 0.52911 0.66496 0.43808 0.0
H1727 H 0.54004 0.66955 0.38214 0.0
C1728 C 0.37423 0.34425 0.08156 0.0
C1729 C 0.39174 0.34321 0.04937 0.0
C1730 C 0.36532 0.32421 0.10089 0.0
C1731 C 0.37454 0.30271 0.08845 0.0
C1732 C 0.39139 0.3015 0.05433 0.0
C1733 C 0.39962 0.32177 0.03485 0.0
C1734 C 0.34692 0.32617 0.13629 0.0
C1735 C 0.40189 0.27892 0.04055 0.0
C1736 C 0.37615 0.25636 0.17758 0.0
C1737 C 0.35919 0.24119 0.16253 0.0
C1738 C 0.38115 0.27647 0.15385 0.0
C1739 C 0.36855 0.28183 0.11456 0.0
C1740 C 0.35092 0.26696 0.09987 0.0
C1741 C 0.34662 0.24665 0.12376 0.0
C1742 C 0.40035 0.29169 0.17025 0.0
C1743 C 0.33678 0.27241 0.05875 0.0
H1744 H 0.36787 0.36078 0.09252 0.0
H1745 H 0.41319 0.32084 0.01007 0.0
H1746 H 0.33308 0.31354 0.12999 0.0
H1747 H 0.35431 0.32229 0.16979 0.0
H1748 H 0.3393 0.3436 0.13743 0.0
H1749 H 0.41327 0.28068 0.01084 0.0
H1750 H 0.41209 0.27194 0.06889 0.0
H1751 H 0.38834 0.26624 0.03266 0.0
H1752 H 0.38607 0.25217 0.20728 0.0
H1753 H 0.33338 0.23505 0.11213 0.0
H1754 H 0.39377 0.30916 0.17714 0.0
H1755 H 0.41366 0.29325 0.1438 0.0
H1756 H 0.40853 0.28502 0.20132 0.0
H1757 H 0.32919 0.28976 0.06186 0.0
H1758 H 0.32277 0.25982 0.05343 0.0
H1759 H 0.34787 0.27252 0.0285 0.0
C1760 C 0.40631 0.62526 0.82691 0.0
C1761 C 0.40624 0.64336 0.79592 0.0
C1762 C 0.42689 0.617 0.84509 0.0
C1763 C 0.44783 0.62742 0.83267 0.0
C1764 C 0.44797 0.64492 0.7997 0.0
C1765 C 0.42716 0.65253 0.78137 0.0
C1766 C 0.42608 0.59793 0.87933 0.0
C1767 C 0.46992 0.65665 0.78596 0.0
C1768 C 0.49461 0.62859 0.92106 0.0
C1769 C 0.51001 0.61213 0.9048 0.0
C1770 C 0.47439 0.63371 0.89775 0.0
C1771 C 0.46918 0.62178 0.85759 0.0
C1772 C 0.4844 0.60481 0.84139 0.0
C1773 C 0.50477 0.60034 0.86497 0.0
C1774 C 0.45876 0.65216 0.91581 0.0
C1775 C 0.47916 0.59143 0.79921 0.0
H1776 H 0.3902 0.61792 0.83787 0.0
H1777 H 0.42722 0.66657 0.75753 0.0
H1778 H 0.4391 0.58469 0.87148 0.0
H1779 H 0.43014 0.60489 0.9131 0.0
H1780 H 0.40896 0.58965 0.8808 0.0
H1781 H 0.4674 0.66841 0.75703 0.0
H1782 H 0.47667 0.66671 0.81472 0.0
H1783 H 0.48314 0.64383 0.7769 0.0
H1784 H 0.49862 0.6379 0.95159 0.0
H1785 H 0.51654 0.58749 0.85238 0.0
H1786 H 0.44159 0.6449 0.92295 0.0
H1787 H 0.45649 0.66581 0.89024 0.0
H1788 H 0.46548 0.66007 0.94711 0.0
H1789 H 0.46231 0.58281 0.80248 0.0
H1790 H 0.4924 0.57827 0.79193 0.0
H1791 H 0.47799 0.60321 0.77007 0.0
C1792 C 0.09804 0.66942 0.60475 0.0
C1793 C 0.10532 0.65972 0.56421 0.0
C1794 C 0.10752 0.68993 0.62043 0.0
C1795 C 0.12537 0.70051 0.59581 0.0
C1796 C 0.13328 0.69039 0.55538 0.0
C1797 C 0.12277 0.67028 0.53949 0.0
C1798 C 0.09804 0.70052 0.66288 0.0
C1799 C 0.15286 0.7007 0.5292 0.0
C1800 C 0.13236 0.76385 0.6197 0.0
C1801 C 0.14768 0.76338 0.65586 0.0
C1802 C 0.12564 0.74352 0.5983 0.0
C1803 C 0.1352 0.72241 0.61245 0.0
C1804 C 0.15205 0.72216 0.64672 0.0
C1805 C 0.1577 0.74264 0.66881 0.0
C1806 C 0.10704 0.74448 0.56307 0.0
C1807 C 0.16329 0.70014 0.66155 0.0
H1808 H 0.08434 0.6613 0.62351 0.0
H1809 H 0.12842 0.6626 0.50821 0.0
H1810 H 0.11161 0.7015 0.68889 0.0
H1811 H 0.09221 0.71827 0.65605 0.0
H1812 H 0.08342 0.69063 0.6768 0.0
H1813 H 0.15771 0.69007 0.49973 0.0
H1814 H 0.14814 0.71804 0.51717 0.0
H1815 H 0.16803 0.70266 0.55134 0.0
H1816 H 0.1245 0.77996 0.61009 0.0
H1817 H 0.16969 0.74241 0.69665 0.0
H1818 H 0.09133 0.73617 0.57632 0.0
H1819 H 0.11224 0.73492 0.53255 0.0
H1820 H 0.10275 0.76234 0.5533 0.0
H1821 H 0.15094 0.6898 0.68128 0.0
H1822 H 0.17862 0.70333 0.68278 0.0
H1823 H 0.16846 0.68979 0.63196 0.0
C1824 C 0.08159 0.37038 0.28016 0.0
C1825 C 0.09293 0.35279 0.30315 0.0
C1826 C 0.06134 0.37993 0.29758 0.0
C1827 C 0.0519 0.37096 0.3378 0.0
C1828 C 0.0632 0.35288 0.3605 0.0
C1829 C 0.08381 0.34434 0.34333 0.0
C1830 C 0.05023 0.39974 0.27337 0.0
C1831 C 0.05336 0.34226 0.4026 0.0
C1832 C 0.01039 0.40143 0.41514 0.0
C1833 C 0.98957 0.39151 0.4024 0.0
C1834 C 0.03065 0.3963 0.39184 0.0
C1835 C 0.03012 0.38007 0.35645 0.0
C1836 C 0.00894 0.3705 0.34275 0.0
C1837 C 0.98881 0.37671 0.36543 0.0
C1838 C 0.05275 0.40751 0.40633 0.0
C1839 C 0.00771 0.35252 0.30635 0.0
H1840 H 0.08882 0.37693 0.24917 0.0
H1841 H 0.09253 0.33054 0.36074 0.0
H1842 H 0.03266 0.39501 0.26265 0.0
H1843 H 0.04864 0.41457 0.29651 0.0
H1844 H 0.06011 0.40514 0.24328 0.0
H1845 H 0.06368 0.32752 0.41472 0.0
H1846 H 0.05252 0.35522 0.42979 0.0
H1847 H 0.03561 0.33629 0.39618 0.0
H1848 H 0.01084 0.41303 0.4436 0.0
H1849 H 0.97264 0.36894 0.35595 0.0
H1850 H 0.06249 0.41358 0.3766 0.0
H1851 H 0.06361 0.39485 0.42415 0.0
H1852 H 0.04972 0.42225 0.42919 0.0
H1853 H 0.01668 0.35843 0.27564 0.0
H1854 H 0.98978 0.34808 0.29739 0.0
H1855 H 0.01652 0.33674 0.31799 0.0
C1856 C 0.39735 0.67156 0.38132 0.0
C1857 C 0.38988 0.66077 0.42063 0.0
C1858 C 0.38757 0.69222 0.36716 0.0
C1859 C 0.36922 0.70181 0.39199 0.0
C1860 C 0.36113 0.69056 0.43108 0.0
C1861 C 0.37193 0.67034 0.44554 0.0
C1862 C 0.39725 0.70405 0.32617 0.0
C1863 C 0.34104 0.69978 0.45736 0.0
C1864 C 0.36094 0.76553 0.37434 0.0
C1865 C 0.34595 0.76568 0.33763 0.0
C1866 C 0.36798 0.74481 0.39381 0.0
C1867 C 0.35909 0.7239 0.3771 0.0
C1868 C 0.34255 0.72417 0.34226 0.0
C1869 C 0.33657 0.74508 0.32217 0.0
C1870 C 0.38623 0.74525 0.42979 0.0
C1871 C 0.332 0.70232 0.32473 0.0
H1872 H 0.41142 0.66418 0.36244 0.0
H1873 H 0.36613 0.6618 0.47584 0.0
H1874 H 0.38392 0.70542 0.29975 0.0
H1875 H 0.40264 0.72172 0.33495 0.0
H1876 H 0.41221 0.69481 0.31192 0.0
H1877 H 0.33619 0.68839 0.48572 0.0
H1878 H 0.34518 0.71696 0.471 0.0
H1879 H 0.32603 0.70183 0.43481 0.0
H1880 H 0.36833 0.78152 0.3859 0.0
H1881 H 0.32484 0.74531 0.2939 0.0
H1882 H 0.40223 0.73763 0.41633 0.0
H1883 H 0.38096 0.73481 0.45912 0.0
H1884 H 0.39003 0.76292 0.44147 0.0
H1885 H 0.3448 0.69282 0.30448 0.0
H1886 H 0.31682 0.70571 0.30323 0.0
H1887 H 0.32679 0.69107 0.353 0.0
C1888 C 0.98888 0.62221 0.13798 0.0
C1889 C 0.98741 0.60383 0.10799 0.0
C1890 C 0.00984 0.62811 0.15785 0.0
C1891 C 0.02954 0.61476 0.14855 0.0
C1892 C 0.02769 0.5952 0.12058 0.0
C1893 C 0.00668 0.59025 0.09973 0.0
C1894 C 0.01121 0.64953 0.18617 0.0
C1895 C 0.04809 0.58007 0.11119 0.0
C1896 C 0.08665 0.64545 0.14828 0.0
C1897 C 0.09489 0.64084 0.19154 0.0
C1898 C 0.0654 0.63705 0.13406 0.0
C1899 C 0.05244 0.62297 0.16329 0.0
C1900 C 0.06104 0.61762 0.2066 0.0
C1901 C 0.08203 0.62705 0.22061 0.0
C1902 C 0.05657 0.64378 0.08816 0.0
C1903 C 0.0481 0.602 0.23802 0.0
H1904 H 0.97387 0.63273 0.14392 0.0
H1905 H 0.00534 0.57595 0.07662 0.0
H1906 H 0.01948 0.64582 0.21891 0.0
H1907 H 0.02195 0.66246 0.16875 0.0
H1908 H 0.99407 0.65713 0.19255 0.0
H1909 H 0.04302 0.56369 0.09498 0.0
H1910 H 0.06016 0.5891 0.08853 0.0
H1911 H 0.05742 0.5762 0.1428 0.0
H1912 H 0.09653 0.65633 0.12599 0.0
H1913 H 0.08856 0.6234 0.25397 0.0
H1914 H 0.03976 0.65248 0.09148 0.0
H1915 H 0.05389 0.6283 0.06723 0.0
H1916 H 0.06851 0.65542 0.07016 0.0
H1917 H 0.03172 0.61013 0.24804 0.0
H1918 H 0.05804 0.59801 0.2689 0.0
H1919 H 0.0438 0.58573 0.22068 0.0
C1920 C 0.15677 0.26202 0.83608 0.0
C1921 C 0.14685 0.2413 0.84944 0.0
C1922 C 0.15085 0.28261 0.85749 0.0
C1923 C 0.13385 0.28247 0.89145 0.0
C1924 C 0.1243 0.26141 0.90584 0.0
C1925 C 0.13128 0.24099 0.88517 0.0
C1926 C 0.16206 0.3046 0.84244 0.0
C1927 C 0.10553 0.26057 0.9407 0.0
C1928 C 0.12113 0.33491 0.96335 0.0
C1929 C 0.10382 0.34537 0.9381 0.0
C1930 C 0.13167 0.31471 0.94802 0.0
C1931 C 0.12392 0.30441 0.90761 0.0
C1932 C 0.10614 0.31486 0.88254 0.0
C1933 C 0.09664 0.33546 0.89768 0.0
C1934 C 0.15114 0.30452 0.97472 0.0
C1935 C 0.09682 0.30409 0.84012 0.0
H1936 H 0.16898 0.26212 0.80863 0.0
H1937 H 0.12353 0.22489 0.89515 0.0
H1938 H 0.1497 0.31487 0.82255 0.0
H1939 H 0.1672 0.31504 0.87194 0.0
H1940 H 0.17741 0.30137 0.82131 0.0
H1941 H 0.10114 0.24275 0.95052 0.0
H1942 H 0.11061 0.27018 0.97125 0.0
H1943 H 0.08991 0.2689 0.92709 0.0
H1944 H 0.12669 0.34278 0.9945 0.0
H1945 H 0.08306 0.34355 0.8785 0.0
H1946 H 0.16638 0.30235 0.95282 0.0
H1947 H 0.14633 0.28729 0.98715 0.0
H1948 H 0.15595 0.31534 0.00396 0.0
H1949 H 0.11046 0.30306 0.81431 0.0
H1950 H 0.0822 0.31388 0.82588 0.0
H1951 H 0.09102 0.28634 0.84713 0.0
C1952 C 0.41456 0.34431 0.64379 0.0
C1953 C 0.40431 0.35205 0.68347 0.0
C1954 C 0.43523 0.35371 0.62872 0.0
C1955 C 0.4454 0.37191 0.65307 0.0
C1956 C 0.43481 0.38015 0.69276 0.0
C1957 C 0.41454 0.36976 0.70803 0.0
C1958 C 0.44632 0.3439 0.58707 0.0
C1959 C 0.44471 0.40005 0.71866 0.0
C1960 C 0.50878 0.38007 0.63116 0.0
C1961 C 0.50831 0.39525 0.59478 0.0
C1962 C 0.48841 0.37294 0.65182 0.0
C1963 C 0.46723 0.38194 0.63669 0.0
C1964 C 0.46691 0.39857 0.60202 0.0
C1965 C 0.48746 0.40464 0.58071 0.0
C1966 C 0.48944 0.3546 0.68754 0.0
C1967 C 0.44478 0.40919 0.58611 0.0
H1968 H 0.40668 0.33044 0.62513 0.0
H1969 H 0.40641 0.37577 0.73857 0.0
H1970 H 0.4473 0.35719 0.56051 0.0
H1971 H 0.4641 0.33844 0.59473 0.0
H1972 H 0.43677 0.32897 0.57349 0.0
H1973 H 0.43395 0.40486 0.74797 0.0
H1974 H 0.46213 0.39574 0.73087 0.0
H1975 H 0.4464 0.41514 0.69622 0.0
H1976 H 0.52498 0.37272 0.64167 0.0
H1977 H 0.48724 0.41654 0.55274 0.0
H1978 H 0.48148 0.33867 0.67449 0.0
H1979 H 0.4796 0.35985 0.71767 0.0
H1980 H 0.5073 0.35068 0.69788 0.0
H1981 H 0.43477 0.39638 0.56681 0.0
H1982 H 0.44779 0.42429 0.56417 0.0
H1983 H 0.43417 0.41457 0.61521 0.0
C1984 C 0.10359 0.09503 0.57455 0.0
C1985 C 0.11433 0.08859 0.53442 0.0
C1986 C 0.11627 0.10373 0.61064 0.0
C1987 C 0.14033 0.10589 0.60655 0.0
C1988 C 0.15144 0.09835 0.56697 0.0
C1989 C 0.13827 0.0898 0.5312 0.0
C1990 C 0.10378 0.11154 0.65242 0.0
C1991 C 0.17708 0.1002 0.56168 0.0
C1992 C 0.16333 0.15302 0.68078 0.0
C1993 C 0.16942 0.14073 0.71941 0.0
C1994 C 0.15523 0.14169 0.64241 0.0
C1995 C 0.15335 0.11752 0.64276 0.0
C1996 C 0.16122 0.10493 0.68033 0.0
C1997 C 0.16916 0.11672 0.71835 0.0
C1998 C 0.14711 0.15572 0.60284 0.0
C1999 C 0.15975 0.07913 0.68167 0.0
H2000 H 0.08511 0.09398 0.57734 0.0
H2001 H 0.14666 0.08479 0.50024 0.0
H2002 H 0.11115 0.10318 0.68262 0.0
H2003 H 0.10593 0.1303 0.65669 0.0
H2004 H 0.08517 0.10765 0.65106 0.0
H2005 H 0.18332 0.09107 0.53129 0.0
H2006 H 0.182 0.1185 0.55891 0.0
H2007 H 0.18592 0.09313 0.59163 0.0
H2008 H 0.16377 0.17157 0.68123 0.0
H2009 H 0.17406 0.10711 0.74801 0.0
H2010 H 0.12816 0.15476 0.60057 0.0
H2011 H 0.15414 0.14879 0.57101 0.0
H2012 H 0.15212 0.17402 0.60578 0.0
H2013 H 0.14161 0.07391 0.68596 0.0
H2014 H 0.16988 0.0718 0.70984 0.0
H2015 H 0.16591 0.07161 0.64965 0.0
C2016 C 0.16134 0.84736 0.83295 0.0
C2017 C 0.16952 0.8603 0.79669 0.0
C2018 C 0.15486 0.85796 0.87322 0.0
C2019 C 0.15696 0.88202 0.87744 0.0
C2020 C 0.16711 0.89489 0.84242 0.0
C2021 C 0.17312 0.88388 0.8022 0.0
C2022 C 0.1442 0.84362 0.90995 0.0
C2023 C 0.17024 0.92047 0.8463 0.0
C2024 C 0.10989 0.90822 0.94746 0.0
C2025 C 0.12039 0.91003 0.98965 0.0
C2026 C 0.122 0.90007 0.91022 0.0
C2027 C 0.14529 0.89384 0.91517 0.0
C2028 C 0.15645 0.89708 0.95695 0.0
C2029 C 0.14379 0.90506 0.99392 0.0
C2030 C 0.10944 0.89687 0.86622 0.0
C2031 C 0.18135 0.89099 0.96331 0.0
H2032 H 0.15885 0.82908 0.82913 0.0
H2033 H 0.1798 0.89391 0.77449 0.0
H2034 H 0.15259 0.84718 0.94264 0.0
H2035 H 0.12582 0.84815 0.91349 0.0
H2036 H 0.14548 0.82498 0.90293 0.0
H2037 H 0.18187 0.92725 0.81992 0.0
H2038 H 0.15339 0.92906 0.8428 0.0
H2039 H 0.17723 0.92506 0.87979 0.0
H2040 H 0.09186 0.91224 0.9439 0.0
H2041 H 0.15199 0.90648 0.02649 0.0
H2042 H 0.10866 0.87836 0.85779 0.0
H2043 H 0.11874 0.90558 0.8386 0.0
H2044 H 0.09167 0.90365 0.86742 0.0
H2045 H 0.18307 0.87213 0.96635 0.0
H2046 H 0.18857 0.89891 0.99416 0.0
H2047 H 0.19169 0.89648 0.93395 0.0
C2048 C 0.39692 0.90361 0.06031 0.0
C2049 C 0.38678 0.9102 0.01965 0.0
C2050 C 0.38349 0.89709 0.0971 0.0
C2051 C 0.35933 0.89739 0.0932 0.0
C2052 C 0.34895 0.90534 0.05315 0.0
C2053 C 0.36284 0.91158 0.01665 0.0
C2054 C 0.39521 0.88874 0.13935 0.0
C2055 C 0.32325 0.90618 0.04806 0.0
C2056 C 0.33201 0.8532 0.16849 0.0
C2057 C 0.32722 0.86622 0.20692 0.0
C2058 C 0.34107 0.86347 0.12987 0.0
C2059 C 0.34529 0.88734 0.12972 0.0
C2060 C 0.3387 0.90084 0.16704 0.0
C2061 C 0.32976 0.89009 0.20537 0.0
C2062 C 0.34775 0.84849 0.09057 0.0
C2063 C 0.3426 0.9264 0.16776 0.0
H2064 H 0.41541 0.90271 0.06294 0.0
H2065 H 0.35492 0.91681 0.98534 0.0
H2066 H 0.38865 0.89812 0.16909 0.0
H2067 H 0.39136 0.87031 0.1445 0.0
H2068 H 0.4141 0.89089 0.1379 0.0
H2069 H 0.31795 0.9159 0.01769 0.0
H2070 H 0.31645 0.88849 0.04529 0.0
H2071 H 0.31524 0.91414 0.07805 0.0
H2072 H 0.32979 0.83478 0.16931 0.0
H2073 H 0.3259 0.90026 0.23489 0.0
H2074 H 0.3667 0.84778 0.08794 0.0
H2075 H 0.34117 0.85577 0.05865 0.0
H2076 H 0.34118 0.83072 0.0941 0.0
H2077 H 0.36113 0.92991 0.17242 0.0
H2078 H 0.33306 0.93483 0.19549 0.0
H2079 H 0.33736 0.93425 0.13539 0.0
C2080 C 0.36796 0.08307 0.47064 0.0
C2081 C 0.39191 0.08167 0.46816 0.0
C2082 C 0.35516 0.09169 0.43448 0.0
C2083 C 0.36667 0.09905 0.39522 0.0
C2084 C 0.39066 0.09618 0.39146 0.0
C2085 C 0.40299 0.08745 0.428 0.0
C2086 C 0.32957 0.09427 0.43944 0.0
C2087 C 0.40353 0.1037 0.34996 0.0
C2088 C 0.33746 0.11349 0.28522 0.0
C2089 C 0.33784 0.1375 0.28649 0.0
C2090 C 0.34555 0.10056 0.32164 0.0
C2091 C 0.35426 0.11198 0.35992 0.0
C2092 C 0.35332 0.13617 0.36247 0.0
C2093 C 0.34504 0.14865 0.32571 0.0
C2094 C 0.34603 0.07477 0.31802 0.0
C2095 C 0.36237 0.14897 0.40292 0.0
H2096 H 0.3593 0.07851 0.50158 0.0
H2097 H 0.42147 0.08617 0.42578 0.0
H2098 H 0.32529 0.11262 0.44424 0.0
H2099 H 0.32063 0.08839 0.40862 0.0
H2100 H 0.32287 0.08451 0.46867 0.0
H2101 H 0.42183 0.09851 0.35089 0.0
H2102 H 0.39554 0.09636 0.31936 0.0
H2103 H 0.40269 0.12263 0.3469 0.0
H2104 H 0.33174 0.10477 0.25507 0.0
H2105 H 0.34515 0.1672 0.32702 0.0
H2106 H 0.33964 0.06679 0.34943 0.0
H2107 H 0.36395 0.06895 0.31314 0.0
H2108 H 0.33558 0.06847 0.28936 0.0
H2109 H 0.3548 0.142 0.43426 0.0
H2110 H 0.35863 0.1676 0.4012 0.0
H2111 H 0.3812 0.14666 0.40522 0.0
C2112 C 0.83565 0.85596 0.31848 0.0
C2113 C 0.83201 0.86756 0.27787 0.0
C2114 C 0.84448 0.86735 0.35608 0.0
C2115 C 0.84965 0.89099 0.35304 0.0
C2116 C 0.84432 0.9032 0.31327 0.0
C2117 C 0.83558 0.89129 0.27598 0.0
C2118 C 0.84983 0.85371 0.39797 0.0
C2119 C 0.84927 0.92847 0.30904 0.0
C2120 C 0.86516 0.91788 0.465 0.0
C2121 C 0.88904 0.9153 0.465 0.0
C2122 C 0.85205 0.91139 0.4275 0.0
C2123 C 0.86314 0.90194 0.3895 0.0
C2124 C 0.88734 0.90058 0.38839 0.0
C2125 C 0.9 0.90739 0.42609 0.0
C2126 C 0.82631 0.91349 0.42954 0.0
C2127 C 0.89983 0.8906 0.34845 0.0
H2128 H 0.83267 0.83766 0.32027 0.0
H2129 H 0.83272 0.90038 0.2447 0.0
H2130 H 0.86867 0.85272 0.40262 0.0
H2131 H 0.84263 0.86227 0.42809 0.0
H2132 H 0.84294 0.83599 0.39628 0.0
H2133 H 0.84049 0.93615 0.27954 0.0
H2134 H 0.84389 0.93776 0.33981 0.0
H2135 H 0.86798 0.93107 0.30505 0.0
H2136 H 0.8566 0.92418 0.49486 0.0
H2137 H 0.91847 0.90559 0.42569 0.0
H2138 H 0.81865 0.89624 0.43375 0.0
H2139 H 0.81951 0.92076 0.39777 0.0
H2140 H 0.82065 0.92442 0.45801 0.0
H2141 H 0.89563 0.87213 0.34525 0.0
H2142 H 0.91871 0.89236 0.3515 0.0
H2143 H 0.89424 0.89912 0.31699 0.0
C2144 C 0.86442 0.08364 0.02437 0.0
C2145 C 0.88843 0.08383 0.02543 0.0
C2146 C 0.85163 0.09115 0.06151 0.0
C2147 C 0.8632 0.09906 0.10032 0.0
C2148 C 0.88739 0.09782 0.10258 0.0
C2149 C 0.8997 0.09015 0.06512 0.0
C2150 C 0.82585 0.09195 0.05811 0.0
C2151 C 0.90038 0.10599 0.1435 0.0
C2152 C 0.83983 0.14708 0.1719 0.0
C2153 C 0.8341 0.13548 0.21154 0.0
C2154 C 0.84805 0.13518 0.13436 0.0
C2155 C 0.85053 0.11109 0.13655 0.0
C2156 C 0.84323 0.09911 0.17533 0.0
C2157 C 0.83509 0.11148 0.21251 0.0
C2158 C 0.8555 0.14859 0.09345 0.0
C2159 C 0.84536 0.07341 0.17865 0.0
H2160 H 0.8556 0.07865 0.99383 0.0
H2161 H 0.91826 0.09009 0.06629 0.0
H2162 H 0.81784 0.08539 0.08937 0.0
H2163 H 0.82024 0.10997 0.0538 0.0
H2164 H 0.81939 0.08182 0.02915 0.0
H2165 H 0.91896 0.10205 0.1414 0.0
H2166 H 0.89832 0.12481 0.14702 0.0
H2167 H 0.89338 0.09799 0.17438 0.0
H2168 H 0.83885 0.16561 0.17081 0.0
H2169 H 0.83058 0.10241 0.24302 0.0
H2170 H 0.84787 0.14117 0.06257 0.0
H2171 H 0.8744 0.14754 0.08991 0.0
H2172 H 0.85057 0.16693 0.09557 0.0
H2173 H 0.83918 0.06508 0.14739 0.0
H2174 H 0.83562 0.06642 0.20763 0.0
H2175 H 0.86365 0.06872 0.18286 0.0
C2176 C 0.66983 0.11739 0.77963 0.0
C2177 C 0.66969 0.14141 0.78109 0.0
C2178 C 0.66171 0.10444 0.81602 0.0
C2179 C 0.6532 0.11583 0.8545 0.0
C2180 C 0.65451 0.14001 0.85734 0.0
C2181 C 0.66284 0.1525 0.82062 0.0
C2182 C 0.66089 0.07868 0.81205 0.0
C2183 C 0.64569 0.15279 0.89795 0.0
C2184 C 0.60391 0.09139 0.92134 0.0
C2185 C 0.61477 0.08502 0.96143 0.0
C2186 C 0.61645 0.1004 0.88535 0.0
C2187 C 0.64047 0.10296 0.88952 0.0
C2188 C 0.65174 0.09514 0.92874 0.0
C2189 C 0.63872 0.08626 0.96438 0.0
C2190 C 0.60381 0.10843 0.84391 0.0
C2191 C 0.67734 0.09735 0.93414 0.0
H2192 H 0.67528 0.1087 0.74927 0.0
H2193 H 0.66293 0.17105 0.82214 0.0
H2194 H 0.66702 0.07049 0.84348 0.0
H2195 H 0.64291 0.07314 0.80671 0.0
H2196 H 0.67138 0.07234 0.7835 0.0
H2197 H 0.64986 0.17134 0.89663 0.0
H2198 H 0.6268 0.15091 0.89999 0.0
H2199 H 0.65301 0.14549 0.92923 0.0
H2200 H 0.58542 0.09027 0.91873 0.0
H2201 H 0.64722 0.08127 0.99525 0.0
H2202 H 0.61166 0.10103 0.81324 0.0
H2203 H 0.60511 0.12734 0.84115 0.0
H2204 H 0.58539 0.10367 0.84462 0.0
H2205 H 0.6863 0.09143 0.90338 0.0
H2206 H 0.68381 0.08742 0.96337 0.0
H2207 H 0.68186 0.11563 0.93918 0.0
C2208 C 0.63442 0.91264 0.5164 0.0
C2209 C 0.61043 0.91265 0.51874 0.0
C2210 C 0.6477 0.90495 0.55276 0.0
C2211 C 0.63666 0.89694 0.59207 0.0
C2212 C 0.6125 0.89808 0.59545 0.0
C2213 C 0.59969 0.90605 0.55881 0.0
C2214 C 0.67343 0.90429 0.54821 0.0
C2215 C 0.60006 0.88968 0.63681 0.0
C2216 C 0.66208 0.84981 0.66351 0.0
C2217 C 0.66805 0.86174 0.70268 0.0
C2218 C 0.65296 0.86129 0.62622 0.0
C2219 C 0.64992 0.88532 0.62808 0.0
C2220 C 0.65743 0.89767 0.66629 0.0
C2221 C 0.66638 0.8857 0.70329 0.0
C2222 C 0.64526 0.84749 0.58597 0.0
C2223 C 0.65479 0.92334 0.66916 0.0
H2224 H 0.64283 0.91784 0.48558 0.0
H2225 H 0.58117 0.9062 0.56099 0.0
H2226 H 0.68175 0.91124 0.57885 0.0
H2227 H 0.67915 0.88627 0.54441 0.0
H2228 H 0.67948 0.91416 0.51859 0.0
H2229 H 0.58137 0.89317 0.63529 0.0
H2230 H 0.60261 0.87093 0.64044 0.0
H2231 H 0.60714 0.89792 0.66739 0.0
H2232 H 0.66357 0.83131 0.66263 0.0
H2233 H 0.67109 0.89504 0.73339 0.0
H2234 H 0.65255 0.85473 0.55463 0.0
H2235 H 0.62633 0.84836 0.58295 0.0
H2236 H 0.65036 0.82921 0.58844 0.0
H2237 H 0.66072 0.9316 0.63767 0.0
H2238 H 0.66448 0.93068 0.69789 0.0
H2239 H 0.63642 0.92769 0.67343 0.0
C2240 C 0.60117 0.5932 0.06907 0.0
C2241 C 0.61228 0.5862 0.0297 0.0
C2242 C 0.61371 0.60067 0.1064 0.0
C2243 C 0.63793 0.601 0.10424 0.0
C2244 C 0.64928 0.59253 0.0657 0.0
C2245 C 0.63628 0.58524 0.02873 0.0
C2246 C 0.601 0.60946 0.14715 0.0
C2247 C 0.67508 0.5924 0.06248 0.0
C2248 C 0.66331 0.64762 0.17658 0.0
C2249 C 0.66836 0.63556 0.21605 0.0
C2250 C 0.65461 0.63628 0.1388 0.0
C2251 C 0.65104 0.61232 0.14063 0.0
C2252 C 0.65777 0.59982 0.17914 0.0
C2253 C 0.66636 0.61163 0.21655 0.0
C2254 C 0.64778 0.65017 0.09811 0.0
C2255 C 0.65446 0.57422 0.18202 0.0
H2256 H 0.58262 0.59376 0.07011 0.0
H2257 H 0.64496 0.57968 -0.00156 0.0
H2258 H 0.60753 0.60111 0.1781 0.0
H2259 H 0.60395 0.62815 0.15077 0.0
H2260 H 0.58226 0.6064 0.14481 0.0
H2261 H 0.68122 0.58229 0.03325 0.0
H2262 H 0.68138 0.61023 0.05887 0.0
H2263 H 0.68277 0.58527 0.09357 0.0
H2264 H 0.66508 0.66609 0.17589 0.0
H2265 H 0.67041 0.6022 0.24691 0.0
H2266 H 0.62885 0.65009 0.09465 0.0
H2267 H 0.65498 0.64249 0.06709 0.0
H2268 H 0.65363 0.66824 0.10046 0.0
H2269 H 0.63597 0.57036 0.18603 0.0
H2270 H 0.66383 0.56667 0.21096 0.0
H2271 H 0.66031 0.56575 0.15069 0.0
C2272 C 0.59407 0.41395 0.42344 0.0
C2273 C 0.6066 0.42082 0.46128 0.0
C2274 C 0.60522 0.40665 0.38432 0.0
C2275 C 0.62946 0.40642 0.38309 0.0
C2276 C 0.64213 0.41532 0.41967 0.0
C2277 C 0.63052 0.42236 0.45854 0.0
C2278 C 0.59108 0.39737 0.34585 0.0
C2279 C 0.66797 0.41577 0.41915 0.0
C2280 C 0.65309 0.35669 0.31683 0.0
C2281 C 0.65768 0.36685 0.27516 0.0
C2282 C 0.64479 0.36966 0.35279 0.0
C2283 C 0.64122 0.39345 0.34704 0.0
C2284 C 0.64713 0.4041 0.30593 0.0
C2285 C 0.65522 0.39061 0.27023 0.0
C2286 C 0.6387 0.35763 0.39618 0.0
C2287 C 0.64387 0.42949 0.29891 0.0
H2288 H 0.57555 0.41306 0.42514 0.0
H2289 H 0.64028 0.42796 0.48754 0.0
H2290 H 0.597 0.40459 0.31341 0.0
H2291 H 0.59321 0.3785 0.34399 0.0
H2292 H 0.57257 0.40123 0.34986 0.0
H2293 H 0.67501 0.42698 0.44599 0.0
H2294 H 0.6746 0.39817 0.42447 0.0
H2295 H 0.67444 0.4218 0.38615 0.0
H2296 H 0.65517 0.33836 0.32095 0.0
H2297 H 0.65884 0.39855 0.23808 0.0
H2298 H 0.61996 0.35883 0.40202 0.0
H2299 H 0.64734 0.36604 0.42498 0.0
H2300 H 0.64359 0.33925 0.39585 0.0
H2301 H 0.62534 0.43329 0.29537 0.0
H2302 H 0.65279 0.43567 0.26825 0.0
H2303 H 0.65026 0.43927 0.32833 0.0
C2304 C 0.84401 0.39066 0.73849 0.0
C2305 C 0.83626 0.36817 0.73203 0.0
C2306 C 0.85386 0.40301 0.70288 0.0
C2307 C 0.85612 0.39244 0.66029 0.0
C2308 C 0.84709 0.37024 0.65313 0.0
C2309 C 0.83714 0.35846 0.68904 0.0
C2310 C 0.86294 0.42679 0.71164 0.0
C2311 C 0.84918 0.35831 0.60822 0.0
C2312 C 0.86982 0.42091 0.54971 0.0
C2313 C 0.89282 0.41464 0.54416 0.0
C2314 C 0.85804 0.41561 0.58941 0.0
C2315 C 0.86947 0.4034 0.62378 0.0
C2316 C 0.89313 0.39852 0.61965 0.0
C2317 C 0.90459 0.40438 0.57991 0.0
C2318 C 0.83301 0.42175 0.59332 0.0
C2319 C 0.90594 0.38565 0.65582 0.0
H2320 H 0.84338 0.39823 0.77174 0.0
H2321 H 0.83098 0.34115 0.68384 0.0
H2322 H 0.88171 0.42593 0.71704 0.0
H2323 H 0.85977 0.43824 0.68251 0.0
H2324 H 0.85506 0.43451 0.74206 0.0
H2325 H 0.8404 0.34143 0.6078 0.0
H2326 H 0.8418 0.36911 0.5812 0.0
H2327 H 0.86754 0.35557 0.60013 0.0
H2328 H 0.86077 0.42924 0.5224 0.0
H2329 H 0.92246 0.39979 0.57602 0.0
H2330 H 0.82922 0.42878 0.62717 0.0
H2331 H 0.82245 0.40612 0.5889 0.0
H2332 H 0.82774 0.43448 0.56756 0.0
H2333 H 0.90362 0.3942 0.68876 0.0
H2334 H 0.92457 0.38442 0.64864 0.0
H2335 H 0.89893 0.36805 0.65889 0.0
C2336 C 0.86123 0.58882 0.97988 0.0
C2337 C 0.88518 0.58699 0.9795 0.0
C2338 C 0.84939 0.59755 0.94264 0.0
C2339 C 0.86186 0.60455 0.90429 0.0
C2340 C 0.88591 0.60158 0.90283 0.0
C2341 C 0.89729 0.59279 0.94051 0.0
C2342 C 0.82372 0.60036 0.94522 0.0
C2343 C 0.89975 0.60872 0.8623 0.0
C2344 C 0.83376 0.61595 0.79182 0.0
C2345 C 0.8334 0.63996 0.79108 0.0
C2346 C 0.84205 0.60406 0.82937 0.0
C2347 C 0.85014 0.61654 0.86689 0.0
C2348 C 0.84866 0.64074 0.86727 0.0
C2349 C 0.84025 0.65218 0.8293 0.0
C2350 C 0.84324 0.57823 0.82796 0.0
C2351 C 0.857 0.65461 0.90691 0.0
H2352 H 0.85177 0.58429 0.00994 0.0
H2353 H 0.91579 0.59126 0.93997 0.0
H2354 H 0.8194 0.61885 0.94682 0.0
H2355 H 0.81543 0.5933 0.91465 0.0
H2356 H 0.81634 0.59177 0.97522 0.0
H2357 H 0.91807 0.6038 0.86532 0.0
H2358 H 0.89264 0.60084 0.83137 0.0
H2359 H 0.89875 0.62758 0.85809 0.0
H2360 H 0.82837 0.60641 0.7624 0.0
H2361 H 0.83985 0.67073 0.829 0.0
H2362 H 0.83593 0.57079 0.85911 0.0
H2363 H 0.8614 0.57275 0.82607 0.0
H2364 H 0.83396 0.57104 0.79857 0.0
H2365 H 0.84907 0.64831 0.93844 0.0
H2366 H 0.85309 0.67314 0.90324 0.0
H2367 H 0.87581 0.65257 0.91045 0.0
C2368 C 0.3344 0.38634 0.7647 0.0
C2369 C 0.33198 0.36254 0.76906 0.0
C2370 C 0.34259 0.39963 0.80063 0.0
C2371 C 0.34862 0.38875 0.84146 0.0
C2372 C 0.34483 0.36496 0.84683 0.0
C2373 C 0.33642 0.35219 0.81063 0.0
C2374 C 0.346 0.42502 0.79396 0.0
C2375 C 0.35102 0.3527 0.8899 0.0
C2376 C 0.39703 0.40926 0.91531 0.0
C2377 C 0.38511 0.41672 0.95345 0.0
C2378 C 0.38526 0.40152 0.87719 0.0
C2379 C 0.36101 0.40143 0.87721 0.0
C2380 C 0.34892 0.41068 0.91419 0.0
C2381 C 0.36115 0.41816 0.95206 0.0
C2382 C 0.39877 0.392 0.83814 0.0
C2383 C 0.32309 0.4113 0.915 0.0
H2384 H 0.33088 0.39445 0.73267 0.0
H2385 H 0.33435 0.33383 0.81432 0.0
H2386 H 0.34036 0.43472 0.82404 0.0
H2387 H 0.36448 0.42861 0.78897 0.0
H2388 H 0.33652 0.43146 0.76414 0.0
H2389 H 0.34561 0.33446 0.88962 0.0
H2390 H 0.36985 0.35336 0.89497 0.0
H2391 H 0.34295 0.36129 0.91911 0.0
H2392 H 0.41557 0.40842 0.91596 0.0
H2393 H 0.35185 0.42418 0.9813 0.0
H2394 H 0.3931 0.40005 0.80627 0.0
H2395 H 0.39562 0.37331 0.83516 0.0
H2396 H 0.41749 0.39482 0.84199 0.0
H2397 H 0.31624 0.41751 0.88241 0.0
H2398 H 0.31647 0.42244 0.94234 0.0
H2399 H 0.31639 0.39372 0.92031 0.0
C2400 C 0.33625 0.64752 0.66564 0.0
C2401 C 0.33097 0.63451 0.70381 0.0
C2402 C 0.34361 0.63695 0.62595 0.0
C2403 C 0.34559 0.6128 0.62449 0.0
C2404 C 0.3385 0.59949 0.66169 0.0
C2405 C 0.33131 0.61054 0.7011 0.0
C2406 C 0.35089 0.65174 0.58679 0.0
C2407 C 0.34001 0.57369 0.66102 0.0
C2408 C 0.35936 0.5888 0.50921 0.0
C2409 C 0.38335 0.58822 0.51088 0.0
C2410 C 0.34656 0.59556 0.54689 0.0
C2411 C 0.35813 0.602 0.58673 0.0
C2412 C 0.38227 0.60016 0.58927 0.0
C2413 C 0.39456 0.59318 0.55135 0.0
C2414 C 0.32082 0.59699 0.54325 0.0
C2415 C 0.39526 0.60684 0.63124 0.0
H2416 H 0.33571 0.66605 0.66738 0.0
H2417 H 0.327 0.60039 0.73041 0.0
H2418 H 0.36975 0.6507 0.58264 0.0
H2419 H 0.34301 0.64553 0.55514 0.0
H2420 H 0.34612 0.67 0.59161 0.0
H2421 H 0.33021 0.56581 0.68904 0.0
H2422 H 0.3335 0.56678 0.62871 0.0
H2423 H 0.3582 0.56842 0.6642 0.0
H2424 H 0.3506 0.58487 0.47802 0.0
H2425 H 0.4131 0.59253 0.55294 0.0
H2426 H 0.31558 0.6152 0.5408 0.0
H2427 H 0.31256 0.58973 0.57364 0.0
H2428 H 0.31428 0.58781 0.51315 0.0
H2429 H 0.39317 0.62547 0.63748 0.0
H2430 H 0.41385 0.60303 0.62861 0.0
H2431 H 0.38829 0.59768 0.66087 0.0
C2432 C 0.10048 0.59211 0.43102 0.0
C2433 C 0.1113 0.58608 0.47135 0.0
C2434 C 0.11327 0.5984 0.39324 0.0
C2435 C 0.13748 0.59845 0.39583 0.0
C2436 C 0.14853 0.5908 0.43541 0.0
C2437 C 0.13527 0.58477 0.47291 0.0
C2438 C 0.10084 0.60637 0.3515 0.0
C2439 C 0.17431 0.59025 0.43905 0.0
C2440 C 0.1657 0.60734 0.28268 0.0
C2441 C 0.16786 0.63125 0.28203 0.0
C2442 C 0.1573 0.59605 0.32091 0.0
C2443 C 0.15082 0.60907 0.35895 0.0
C2444 C 0.15456 0.63302 0.35954 0.0
C2445 C 0.16314 0.6438 0.32108 0.0
C2446 C 0.15395 0.57043 0.31945 0.0
C2447 C 0.14793 0.64752 0.39957 0.0
H2448 H 0.08195 0.59289 0.42948 0.0
H2449 H 0.14372 0.57993 0.50393 0.0
H2450 H 0.10416 0.62488 0.34606 0.0
H2451 H 0.10726 0.59711 0.32151 0.0
H2452 H 0.08203 0.60375 0.35385 0.0
H2453 H 0.18014 0.58032 0.46878 0.0
H2454 H 0.182 0.58268 0.40836 0.0
H2455 H 0.18091 0.608 0.44216 0.0
H2456 H 0.1695 0.59753 0.25266 0.0
H2457 H 0.16507 0.66227 0.32093 0.0
H2458 H 0.13549 0.56655 0.31492 0.0
H2459 H 0.15948 0.56243 0.35149 0.0
H2460 H 0.16357 0.56244 0.29132 0.0
H2461 H 0.12902 0.64754 0.40328 0.0
H2462 H 0.15382 0.66553 0.39618 0.0
H2463 H 0.15523 0.64028 0.43091 0.0
C2464 C 0.16014 0.3533 0.1699 0.0
C2465 C 0.16524 0.36374 0.21111 0.0
C2466 C 0.15181 0.36614 0.13371 0.0
C2467 C 0.14875 0.39005 0.13875 0.0
C2468 C 0.15556 0.40096 0.17908 0.0
C2469 C 0.16366 0.38762 0.215 0.0
C2470 C 0.14483 0.35384 0.09114 0.0
C2471 C 0.15298 0.42648 0.18531 0.0
C2472 C 0.13463 0.41926 0.02863 0.0
C2473 C 0.11063 0.4184 0.02926 0.0
C2474 C 0.14747 0.41165 0.06563 0.0
C2475 C 0.13596 0.40282 0.1037 0.0
C2476 C 0.11175 0.40349 0.10572 0.0
C2477 C 0.09938 0.41141 0.06852 0.0
C2478 C 0.17327 0.4117 0.06274 0.0
C2479 C 0.09883 0.39428 0.14585 0.0
H2480 H 0.16161 0.33487 0.16653 0.0
H2481 H 0.16775 0.39581 0.24671 0.0
H2482 H 0.12598 0.35494 0.08685 0.0
H2483 H 0.15278 0.36209 0.06143 0.0
H2484 H 0.14979 0.33547 0.09149 0.0
H2485 H 0.1629 0.43279 0.21468 0.0
H2486 H 0.15867 0.43583 0.15483 0.0
H2487 H 0.13466 0.43067 0.1908 0.0
H2488 H 0.14342 0.42489 -0.00148 0.0
H2489 H 0.08083 0.41101 0.06944 0.0
H2490 H 0.17944 0.39401 0.05646 0.0
H2491 H 0.18096 0.41756 0.09486 0.0
H2492 H 0.17954 0.42285 0.03511 0.0
H2493 H 0.10137 0.37548 0.14821 0.0
H2494 H 0.08015 0.39777 0.1437 0.0
H2495 H 0.10549 0.40195 0.17736 0.0
loop_
_geom_bond_atom_site_label_1
_geom_bond_atom_site_label_2
_geom_bond_distance
_geom_bond_site_symmetry_2
_ccdc_geom_bond_type
Co0 O1 2.216 . S
Co0 O2 2.091 . S
Co0 O4 2.004 . S
Co0 O10 2.021 . S
Co0 O12 2.137 . S
Co0 O13 2.244 . S
O1 Co0 2.216 . S
O1 C8 1.247 . S
O2 Co0 2.091 . S
O2 C8 1.261 . S
C3 O12 1.247 . S
C3 O13 1.272 . S
O4 Co0 2.004 . S
O4 C9 1.259 . S
Co5 O6 2.061 . S
Co5 O11 2.052 . S
Co5 O13 2.135 . S
O6 Co5 2.061 . S
O6 C9 1.235 . S
C7 O10 1.238 . S
C7 O11 1.241 . S
C8 O1 1.247 . S
C8 O2 1.261 . S
C9 O4 1.259 . S
C9 O6 1.235 . S
O10 Co0 2.021 . S
O10 C7 1.238 . S
O11 Co5 2.052 . S
O11 C7 1.241 . S
O12 Co0 2.137 . S
O12 C3 1.247 . S
O13 Co0 2.244 . S
O13 C3 1.272 . S
O13 Co5 2.135 . S
Co14 O15 2.216 . S
Co14 O16 2.091 . S
Co14 O18 2.004 . S
Co14 O24 2.021 . S
Co14 O26 2.137 . S
Co14 O27 2.244 . S
O15 Co14 2.216 . S
O15 C22 1.247 . S
O16 Co14 2.091 . S
O16 C22 1.261 . S
C17 O26 1.247 . S
C17 O27 1.272 . S
O18 Co14 2.004 . S
O18 C23 1.259 . S
Co19 O20 2.061 . S
Co19 O25 2.052 . S
Co19 O27 2.135 . S
O20 Co19 2.061 . S
O20 C23 1.235 . S
C21 O24 1.238 . S
C21 O25 1.241 . S
C22 O15 1.247 . S
C22 O16 1.261 . S
C23 O18 1.259 . S
C23 O20 1.235 . S
O24 Co14 2.021 . S
O24 C21 1.238 . S
O25 Co19 2.052 . S
O25 C21 1.241 . S
O26 Co14 2.137 . S
O26 C17 1.247 . S
O27 Co14 2.244 . S
O27 C17 1.272 . S
O27 Co19 2.135 . S
Co28 O29 2.216 . S
Co28 O30 2.091 . S
Co28 O32 2.004 . S
Co28 O38 2.021 . S
Co28 O40 2.137 . S
Co28 O41 2.244 . S
O29 Co28 2.216 . S
O29 C36 1.247 . S
O30 Co28 2.091 . S
O30 C36 1.261 . S
C31 O40 1.247 . S
C31 O41 1.272 . S
O32 Co28 2.004 . S
O32 C37 1.259 . S
Co33 O34 2.061 . S
Co33 O39 2.052 . S
Co33 O41 2.135 . S
O34 Co33 2.061 . S
O34 C37 1.235 . S
C35 O38 1.238 . S
C35 O39 1.241 . S
C36 O29 1.247 . S
C36 O30 1.261 . S
C37 O32 1.259 . S
C37 O34 1.235 . S
O38 Co28 2.021 . S
O38 C35 1.238 . S
O39 Co33 2.052 . S
O39 C35 1.241 . S
O40 Co28 2.137 . S
O40 C31 1.247 . S
O41 Co28 2.244 . S
O41 C31 1.272 . S
O41 Co33 2.135 . S
Co42 O43 2.216 . S
Co42 O44 2.091 . S
Co42 O46 2.004 . S
Co42 O52 2.021 . S
Co42 O54 2.137 . S
Co42 O55 2.244 . S
O43 Co42 2.216 . S
O43 C50 1.247 . S
O44 Co42 2.091 . S
O44 C50 1.261 . S
C45 O54 1.247 . S
C45 O55 1.272 . S
O46 Co42 2.004 . S
O46 C51 1.259 . S
Co47 O48 2.061 . S
Co47 O53 2.052 . S
Co47 O55 2.135 . S
O48 Co47 2.061 . S
O48 C51 1.235 . S
C49 O52 1.238 . S
C49 O53 1.241 . S
C50 O43 1.247 . S
C50 O44 1.261 . S
C51 O46 1.259 . S
C51 O48 1.235 . S
O52 Co42 2.021 . S
O52 C49 1.238 . S
O53 Co47 2.052 . S
O53 C49 1.241 . S
O54 Co42 2.137 . S
O54 C45 1.247 . S
O55 Co42 2.244 . S
O55 C45 1.272 . S
O55 Co47 2.135 . S
Co56 O57 2.216 . S
Co56 O58 2.091 . S
Co56 O60 2.004 . S
Co56 O66 2.021 . S
Co56 O68 2.137 . S
Co56 O69 2.244 . S
O57 Co56 2.216 . S
O57 C64 1.247 . S
O58 Co56 2.091 . S
O58 C64 1.261 . S
C59 O68 1.247 . S
C59 O69 1.272 . S
O60 Co56 2.004 . S
O60 C65 1.259 . S
Co61 O62 2.061 . S
Co61 O67 2.052 . S
Co61 O69 2.135 . S
O62 Co61 2.061 . S
O62 C65 1.235 . S
C63 O66 1.238 . S
C63 O67 1.241 . S
C64 O57 1.247 . S
C64 O58 1.261 . S
C65 O60 1.259 . S
C65 O62 1.235 . S
O66 Co56 2.021 . S
O66 C63 1.238 . S
O67 Co61 2.052 . S
O67 C63 1.241 . S
O68 Co56 2.137 . S
O68 C59 1.247 . S
O69 Co56 2.244 . S
O69 C59 1.272 . S
O69 Co61 2.135 . S
Co70 O71 2.216 . S
Co70 O72 2.091 . S
Co70 O74 2.004 . S
Co70 O80 2.021 . S
Co70 O82 2.137 . S
Co70 O83 2.244 . S
O71 Co70 2.216 . S
O71 C78 1.247 . S
O72 Co70 2.091 . S
O72 C78 1.261 . S
C73 O82 1.247 . S
C73 O83 1.272 . S
O74 Co70 2.004 . S
O74 C79 1.259 . S
Co75 O76 2.061 . S
Co75 O81 2.052 . S
Co75 O83 2.135 . S
O76 Co75 2.061 . S
O76 C79 1.235 . S
C77 O80 1.238 . S
C77 O81 1.241 . S
C78 O71 1.247 . S
C78 O72 1.261 . S
C79 O74 1.259 . S
C79 O76 1.235 . S
O80 Co70 2.021 . S
O80 C77 1.238 . S
O81 Co75 2.052 . S
O81 C77 1.241 . S
O82 Co70 2.137 . S
O82 C73 1.247 . S
O83 Co70 2.244 . S
O83 C73 1.272 . S
O83 Co75 2.135 . S
Co84 O85 2.216 . S
Co84 O86 2.091 . S
Co84 O88 2.004 . S
Co84 O94 2.021 . S
Co84 O96 2.137 . S
Co84 O97 2.244 . S
O85 Co84 2.216 . S
O85 C92 1.247 . S
O86 Co84 2.091 . S
O86 C92 1.261 . S
C87 O96 1.247 . S
C87 O97 1.272 . S
O88 Co84 2.004 . S
O88 C93 1.259 . S
Co89 O90 2.061 . S
Co89 O95 2.052 . S
Co89 O97 2.135 . S
O90 Co89 2.061 . S
O90 C93 1.235 . S
C91 O94 1.238 . S
C91 O95 1.241 . S
C92 O85 1.247 . S
C92 O86 1.261 . S
C93 O88 1.259 . S
C93 O90 1.235 . S
O94 Co84 2.021 . S
O94 C91 1.238 . S
O95 Co89 2.052 . S
O95 C91 1.241 . S
O96 Co84 2.137 . S
O96 C87 1.247 . S
O97 Co84 2.244 . S
O97 C87 1.272 . S
O97 Co89 2.135 . S
Co98 O99 2.216 . S
Co98 O100 2.091 . S
Co98 O102 2.004 . S
Co98 O108 2.021 . S
Co98 O110 2.137 . S
Co98 O111 2.244 . S
O99 Co98 2.216 . S
O99 C106 1.247 . S
O100 Co98 2.091 . S
O100 C106 1.261 . S
C101 O110 1.247 . S
C101 O111 1.272 . S
O102 Co98 2.004 . S
O102 C107 1.259 . S
Co103 O104 2.061 . S
Co103 O109 2.052 . S
Co103 O111 2.135 . S
O104 Co103 2.061 . S
O104 C107 1.235 . S
C105 O108 1.238 . S
C105 O109 1.241 . S
C106 O99 1.247 . S
C106 O100 1.261 . S
C107 O102 1.259 . S
C107 O104 1.235 . S
O108 Co98 2.021 . S
O108 C105 1.238 . S
O109 Co103 2.052 . S
O109 C105 1.241 . S
O110 Co98 2.137 . S
O110 C101 1.247 . S
O111 Co98 2.244 . S
O111 C101 1.272 . S
O111 Co103 2.135 . S
Co112 O113 2.216 . S
Co112 O114 2.091 . S
Co112 O116 2.004 . S
Co112 O122 2.021 . S
Co112 O124 2.137 . S
Co112 O125 2.244 . S
O113 Co112 2.216 . S
O113 C120 1.247 . S
O114 Co112 2.091 . S
O114 C120 1.261 . S
C115 O124 1.247 . S
C115 O125 1.272 . S
O116 Co112 2.004 . S
O116 C121 1.259 . S
Co117 O118 2.061 . S
Co117 O123 2.052 . S
Co117 O125 2.135 . S
O118 Co117 2.061 . S
O118 C121 1.235 . S
C119 O122 1.238 . S
C119 O123 1.241 . S
C120 O113 1.247 . S
C120 O114 1.261 . S
C121 O116 1.259 . S
C121 O118 1.235 . S
O122 Co112 2.021 . S
O122 C119 1.238 . S
O123 Co117 2.052 . S
O123 C119 1.241 . S
O124 Co112 2.137 . S
O124 C115 1.247 . S
O125 Co112 2.244 . S
O125 C115 1.272 . S
O125 Co117 2.135 . S
Co126 O127 2.216 . S
Co126 O128 2.091 . S
Co126 O130 2.004 . S
Co126 O136 2.021 . S
Co126 O138 2.137 . S
Co126 O139 2.244 . S
O127 Co126 2.216 . S
O127 C134 1.247 . S
O128 Co126 2.091 . S
O128 C134 1.261 . S
C129 O138 1.247 . S
C129 O139 1.272 . S
O130 Co126 2.004 . S
O130 C135 1.259 . S
Co131 O132 2.061 . S
Co131 O137 2.052 . S
Co131 O139 2.135 . S
O132 Co131 2.061 . S
O132 C135 1.235 . S
C133 O136 1.238 . S
C133 O137 1.241 . S
C134 O127 1.247 . S
C134 O128 1.261 . S
C135 O130 1.259 . S
C135 O132 1.235 . S
O136 Co126 2.021 . S
O136 C133 1.238 . S
O137 Co131 2.052 . S
O137 C133 1.241 . S
O138 Co126 2.137 . S
O138 C129 1.247 . S
O139 Co126 2.244 . S
O139 C129 1.272 . S
O139 Co131 2.135 . S
Co140 O141 2.216 . S
Co140 O142 2.091 . S
Co140 O144 2.004 . S
Co140 O150 2.021 . S
Co140 O152 2.137 . S
Co140 O153 2.244 . S
O141 Co140 2.216 . S
O141 C148 1.247 . S
O142 Co140 2.091 . S
O142 C148 1.261 . S
C143 O152 1.247 . S
C143 O153 1.272 . S
O144 Co140 2.004 . S
O144 C149 1.259 . S
Co145 O146 2.061 . S
Co145 O151 2.052 . S
Co145 O153 2.135 . S
O146 Co145 2.061 . S
O146 C149 1.235 . S
C147 O150 1.238 . S
C147 O151 1.241 . S
C148 O141 1.247 . S
C148 O142 1.261 . S
C149 O144 1.259 . S
C149 O146 1.235 . S
O150 Co140 2.021 . S
O150 C147 1.238 . S
O151 Co145 2.052 . S
O151 C147 1.241 . S
O152 Co140 2.137 . S
O152 C143 1.247 . S
O153 Co140 2.244 . S
O153 C143 1.272 . S
O153 Co145 2.135 . S
Co154 O155 2.216 . S
Co154 O156 2.091 . S
Co154 O158 2.004 . S
Co154 O164 2.021 . S
Co154 O166 2.137 . S
Co154 O167 2.244 . S
O155 Co154 2.216 . S
O155 C162 1.247 . S
O156 Co154 2.091 . S
O156 C162 1.261 . S
C157 O166 1.247 . S
C157 O167 1.272 . S
O158 Co154 2.004 . S
O158 C163 1.259 . S
Co159 O160 2.061 . S
Co159 O165 2.052 . S
Co159 O167 2.135 . S
O160 Co159 2.061 . S
O160 C163 1.235 . S
C161 O164 1.238 . S
C161 O165 1.241 . S
C162 O155 1.247 . S
C162 O156 1.261 . S
C163 O158 1.259 . S
C163 O160 1.235 . S
O164 Co154 2.021 . S
O164 C161 1.238 . S
O165 Co159 2.052 . S
O165 C161 1.241 . S
O166 Co154 2.137 . S
O166 C157 1.247 . S
O167 Co154 2.244 . S
O167 C157 1.272 . S
O167 Co159 2.135 . S
Co168 O169 2.216 . S
Co168 O170 2.091 . S
Co168 O172 2.004 . S
Co168 O178 2.021 . S
Co168 O180 2.137 . S
Co168 O181 2.244 . S
O169 Co168 2.216 . S
O169 C176 1.247 . S
O170 Co168 2.091 . S
O170 C176 1.261 . S
C171 O180 1.247 . S
C171 O181 1.272 . S
O172 Co168 2.004 . S
O172 C177 1.259 . S
Co173 O174 2.061 . S
Co173 O179 2.052 . S
Co173 O181 2.135 . S
O174 Co173 2.061 . S
O174 C177 1.235 . S
C175 O178 1.238 . S
C175 O179 1.241 . S
C176 O169 1.247 . S
C176 O170 1.261 . S
C177 O172 1.259 . S
C177 O174 1.235 . S
O178 Co168 2.021 . S
O178 C175 1.238 . S
O179 Co173 2.052 . S
O179 C175 1.241 . S
O180 Co168 2.137 . S
O180 C171 1.247 . S
O181 Co168 2.244 . S
O181 C171 1.272 . S
O181 Co173 2.135 . S
Co182 O183 2.216 . S
Co182 O184 2.091 . S
Co182 O186 2.004 . S
Co182 O192 2.021 . S
Co182 O194 2.137 . S
Co182 O195 2.244 . S
O183 Co182 2.216 . S
O183 C190 1.247 . S
O184 Co182 2.091 . S
O184 C190 1.261 . S
C185 O194 1.247 . S
C185 O195 1.272 . S
O186 Co182 2.004 . S
O186 C191 1.259 . S
Co187 O188 2.061 . S
Co187 O193 2.052 . S
Co187 O195 2.135 . S
O188 Co187 2.061 . S
O188 C191 1.235 . S
C189 O192 1.238 . S
C189 O193 1.241 . S
C190 O183 1.247 . S
C190 O184 1.261 . S
C191 O186 1.259 . S
C191 O188 1.235 . S
O192 Co182 2.021 . S
O192 C189 1.238 . S
O193 Co187 2.052 . S
O193 C189 1.241 . S
O194 Co182 2.137 . S
O194 C185 1.247 . S
O195 Co182 2.244 . S
O195 C185 1.272 . S
O195 Co187 2.135 . S
Co196 O197 2.216 . S
Co196 O198 2.091 . S
Co196 O200 2.004 . S
Co196 O206 2.021 . S
Co196 O208 2.137 . S
Co196 O209 2.244 . S
O197 Co196 2.216 . S
O197 C204 1.247 . S
O198 Co196 2.091 . S
O198 C204 1.261 . S
C199 O208 1.247 . S
C199 O209 1.272 . S
O200 Co196 2.004 . S
O200 C205 1.259 . S
Co201 O202 2.061 . S
Co201 O207 2.052 . S
Co201 O209 2.135 . S
O202 Co201 2.061 . S
O202 C205 1.235 . S
C203 O206 1.238 . S
C203 O207 1.241 . S
C204 O197 1.247 . S
C204 O198 1.261 . S
C205 O200 1.259 . S
C205 O202 1.235 . S
O206 Co196 2.021 . S
O206 C203 1.238 . S
O207 Co201 2.052 . S
O207 C203 1.241 . S
O208 Co196 2.137 . S
O208 C199 1.247 . S
O209 Co196 2.244 . S
O209 C199 1.272 . S
O209 Co201 2.135 . S
Co210 O211 2.216 . S
Co210 O212 2.091 . S
Co210 O214 2.004 . S
Co210 O220 2.021 . S
Co210 O222 2.137 . S
Co210 O223 2.244 . S
O211 Co210 2.216 . S
O211 C218 1.247 . S
O212 Co210 2.091 . S
O212 C218 1.261 . S
C213 O222 1.247 . S
C213 O223 1.272 . S
O214 Co210 2.004 . S
O214 C219 1.259 . S
Co215 O216 2.061 . S
Co215 O221 2.052 . S
Co215 O223 2.135 . S
O216 Co215 2.061 . S
O216 C219 1.235 . S
C217 O220 1.238 . S
C217 O221 1.241 . S
C218 O211 1.247 . S
C218 O212 1.261 . S
C219 O214 1.259 . S
C219 O216 1.235 . S
O220 Co210 2.021 . S
O220 C217 1.238 . S
O221 Co215 2.052 . S
O221 C217 1.241 . S
O222 Co210 2.137 . S
O222 C213 1.247 . S
O223 Co210 2.244 . S
O223 C213 1.272 . S
O223 Co215 2.135 . S
Co224 O225 2.216 . S
Co224 O226 2.091 . S
Co224 O228 2.004 . S
Co224 O234 2.021 . S
Co224 O236 2.137 . S
Co224 O237 2.244 . S
O225 Co224 2.216 . S
O225 C232 1.247 . S
O226 Co224 2.091 . S
O226 C232 1.261 . S
C227 O236 1.247 . S
C227 O237 1.272 . S
O228 Co224 2.004 . S
O228 C233 1.259 . S
Co229 O230 2.061 . S
Co229 O235 2.052 . S
Co229 O237 2.135 . S
O230 Co229 2.061 . S
O230 C233 1.235 . S
C231 O234 1.238 . S
C231 O235 1.241 . S
C232 O225 1.247 . S
C232 O226 1.261 . S
C233 O228 1.259 . S
C233 O230 1.235 . S
O234 Co224 2.021 . S
O234 C231 1.238 . S
O235 Co229 2.052 . S
O235 C231 1.241 . S
O236 Co224 2.137 . S
O236 C227 1.247 . S
O237 Co224 2.244 . S
O237 C227 1.272 . S
O237 Co229 2.135 . S
Co238 O239 2.216 . S
Co238 O240 2.091 . S
Co238 O242 2.004 . S
Co238 O248 2.021 . S
Co238 O250 2.137 . S
Co238 O251 2.244 . S
O239 Co238 2.216 . S
O239 C246 1.247 . S
O240 Co238 2.091 . S
O240 C246 1.261 . S
C241 O250 1.247 . S
C241 O251 1.272 . S
O242 Co238 2.004 . S
O242 C247 1.259 . S
Co243 O244 2.061 . S
Co243 O249 2.052 . S
Co243 O251 2.135 . S
O244 Co243 2.061 . S
O244 C247 1.235 . S
C245 O248 1.238 . S
C245 O249 1.241 . S
C246 O239 1.247 . S
C246 O240 1.261 . S
C247 O242 1.259 . S
C247 O244 1.235 . S
O248 Co238 2.021 . S
O248 C245 1.238 . S
O249 Co243 2.052 . S
O249 C245 1.241 . S
O250 Co238 2.137 . S
O250 C241 1.247 . S
O251 Co238 2.244 . S
O251 C241 1.272 . S
O251 Co243 2.135 . S
Co252 O253 2.216 . S
Co252 O254 2.091 . S
Co252 O256 2.004 . S
Co252 O262 2.021 . S
Co252 O264 2.137 . S
Co252 O265 2.244 . S
O253 Co252 2.216 . S
O253 C260 1.247 . S
O254 Co252 2.091 . S
O254 C260 1.261 . S
C255 O264 1.247 . S
C255 O265 1.272 . S
O256 Co252 2.004 . S
O256 C261 1.259 . S
Co257 O258 2.061 . S
Co257 O263 2.052 . S
Co257 O265 2.135 . S
O258 Co257 2.061 . S
O258 C261 1.235 . S
C259 O262 1.238 . S
C259 O263 1.241 . S
C260 O253 1.247 . S
C260 O254 1.261 . S
C261 O256 1.259 . S
C261 O258 1.235 . S
O262 Co252 2.021 . S
O262 C259 1.238 . S
O263 Co257 2.052 . S
O263 C259 1.241 . S
O264 Co252 2.137 . S
O264 C255 1.247 . S
O265 Co252 2.244 . S
O265 C255 1.272 . S
O265 Co257 2.135 . S
Co266 O267 2.216 . S
Co266 O268 2.091 . S
Co266 O270 2.004 . S
Co266 O276 2.021 . S
Co266 O278 2.137 . S
Co266 O279 2.244 . S
O267 Co266 2.216 . S
O267 C274 1.247 . S
O268 Co266 2.091 . S
O268 C274 1.261 . S
C269 O278 1.247 . S
C269 O279 1.272 . S
O270 Co266 2.004 . S
O270 C275 1.259 . S
Co271 O272 2.061 . S
Co271 O277 2.052 . S
Co271 O279 2.135 . S
O272 Co271 2.061 . S
O272 C275 1.235 . S
C273 O276 1.238 . S
C273 O277 1.241 . S
C274 O267 1.247 . S
C274 O268 1.261 . S
C275 O270 1.259 . S
C275 O272 1.235 . S
O276 Co266 2.021 . S
O276 C273 1.238 . S
O277 Co271 2.052 . S
O277 C273 1.241 . S
O278 Co266 2.137 . S
O278 C269 1.247 . S
O279 Co266 2.244 . S
O279 C269 1.272 . S
O279 Co271 2.135 . S
Co280 O281 2.216 . S
Co280 O282 2.091 . S
Co280 O284 2.004 . S
Co280 O290 2.021 . S
Co280 O292 2.137 . S
Co280 O293 2.244 . S
O281 Co280 2.216 . S
O281 C288 1.247 . S
O282 Co280 2.091 . S
O282 C288 1.261 . S
C283 O292 1.247 . S
C283 O293 1.272 . S
O284 Co280 2.004 . S
O284 C289 1.259 . S
Co285 O286 2.061 . S
Co285 O291 2.052 . S
Co285 O293 2.135 . S
O286 Co285 2.061 . S
O286 C289 1.235 . S
C287 O290 1.238 . S
C287 O291 1.241 . S
C288 O281 1.247 . S
C288 O282 1.261 . S
C289 O284 1.259 . S
C289 O286 1.235 . S
O290 Co280 2.021 . S
O290 C287 1.238 . S
O291 Co285 2.052 . S
O291 C287 1.241 . S
O292 Co280 2.137 . S
O292 C283 1.247 . S
O293 Co280 2.244 . S
O293 C283 1.272 . S
O293 Co285 2.135 . S
Co294 O295 2.216 . S
Co294 O296 2.091 . S
Co294 O298 2.004 . S
Co294 O304 2.021 . S
Co294 O306 2.137 . S
Co294 O307 2.244 . S
O295 Co294 2.216 . S
O295 C302 1.247 . S
O296 Co294 2.091 . S
O296 C302 1.261 . S
C297 O306 1.247 . S
C297 O307 1.272 . S
O298 Co294 2.004 . S
O298 C303 1.259 . S
Co299 O300 2.061 . S
Co299 O305 2.052 . S
Co299 O307 2.135 . S
O300 Co299 2.061 . S
O300 C303 1.235 . S
C301 O304 1.238 . S
C301 O305 1.241 . S
C302 O295 1.247 . S
C302 O296 1.261 . S
C303 O298 1.259 . S
C303 O300 1.235 . S
O304 Co294 2.021 . S
O304 C301 1.238 . S
O305 Co299 2.052 . S
O305 C301 1.241 . S
O306 Co294 2.137 . S
O306 C297 1.247 . S
O307 Co294 2.244 . S
O307 C297 1.272 . S
O307 Co299 2.135 . S
Co308 O309 2.216 . S
Co308 O310 2.091 . S
Co308 O312 2.004 . S
Co308 O318 2.021 . S
Co308 O320 2.137 . S
Co308 O321 2.244 . S
O309 Co308 2.216 . S
O309 C316 1.247 . S
O310 Co308 2.091 . S
O310 C316 1.261 . S
C311 O320 1.247 . S
C311 O321 1.272 . S
O312 Co308 2.004 . S
O312 C317 1.259 . S
Co313 O314 2.061 . S
Co313 O319 2.052 . S
Co313 O321 2.135 . S
O314 Co313 2.061 . S
O314 C317 1.235 . S
C315 O318 1.238 . S
C315 O319 1.241 . S
C316 O309 1.247 . S
C316 O310 1.261 . S
C317 O312 1.259 . S
C317 O314 1.235 . S
O318 Co308 2.021 . S
O318 C315 1.238 . S
O319 Co313 2.052 . S
O319 C315 1.241 . S
O320 Co308 2.137 . S
O320 C311 1.247 . S
O321 Co308 2.244 . S
O321 C311 1.272 . S
O321 Co313 2.135 . S
Co322 O323 2.216 . S
Co322 O324 2.091 . S
Co322 O326 2.004 . S
Co322 O332 2.021 . S
Co322 O334 2.137 . S
Co322 O335 2.244 . S
O323 Co322 2.216 . S
O323 C330 1.247 . S
O324 Co322 2.091 . S
O324 C330 1.261 . S
C325 O334 1.247 . S
C325 O335 1.272 . S
O326 Co322 2.004 . S
O326 C331 1.259 . S
Co327 O328 2.061 . S
Co327 O333 2.052 . S
Co327 O335 2.135 . S
O328 Co327 2.061 . S
O328 C331 1.235 . S
C329 O332 1.238 . S
C329 O333 1.241 . S
C330 O323 1.247 . S
C330 O324 1.261 . S
C331 O326 1.259 . S
C331 O328 1.235 . S
O332 Co322 2.021 . S
O332 C329 1.238 . S
O333 Co327 2.052 . S
O333 C329 1.241 . S
O334 Co322 2.137 . S
O334 C325 1.247 . S
O335 Co322 2.244 . S
O335 C325 1.272 . S
O335 Co327 2.135 . S
Co336 O337 2.216 . S
Co336 O338 2.091 . S
Co336 O340 2.004 . S
Co336 O346 2.021 . S
Co336 O348 2.137 . S
Co336 O349 2.244 . S
O337 Co336 2.216 . S
O337 C344 1.247 . S
O338 Co336 2.091 . S
O338 C344 1.261 . S
C339 O348 1.247 . S
C339 O349 1.272 . S
O340 Co336 2.004 . S
O340 C345 1.259 . S
Co341 O342 2.061 . S
Co341 O347 2.052 . S
Co341 O349 2.135 . S
O342 Co341 2.061 . S
O342 C345 1.235 . S
C343 O346 1.238 . S
C343 O347 1.241 . S
C344 O337 1.247 . S
C344 O338 1.261 . S
C345 O340 1.259 . S
C345 O342 1.235 . S
O346 Co336 2.021 . S
O346 C343 1.238 . S
O347 Co341 2.052 . S
O347 C343 1.241 . S
O348 Co336 2.137 . S
O348 C339 1.247 . S
O349 Co336 2.244 . S
O349 C339 1.272 . S
O349 Co341 2.135 . S
Co350 O351 2.216 . S
Co350 O352 2.091 . S
Co350 O354 2.004 . S
Co350 O360 2.021 . S
Co350 O362 2.137 . S
Co350 O363 2.244 . S
O351 Co350 2.216 . S
O351 C358 1.247 . S
O352 Co350 2.091 . S
O352 C358 1.261 . S
C353 O362 1.247 . S
C353 O363 1.272 . S
O354 Co350 2.004 . S
O354 C359 1.259 . S
Co355 O356 2.061 . S
Co355 O361 2.052 . S
Co355 O363 2.135 . S
O356 Co355 2.061 . S
O356 C359 1.235 . S
C357 O360 1.238 . S
C357 O361 1.241 . S
C358 O351 1.247 . S
C358 O352 1.261 . S
C359 O354 1.259 . S
C359 O356 1.235 . S
O360 Co350 2.021 . S
O360 C357 1.238 . S
O361 Co355 2.052 . S
O361 C357 1.241 . S
O362 Co350 2.137 . S
O362 C353 1.247 . S
O363 Co350 2.244 . S
O363 C353 1.272 . S
O363 Co355 2.135 . S
Co364 O365 2.216 . S
Co364 O366 2.091 . S
Co364 O368 2.004 . S
Co364 O374 2.021 . S
Co364 O376 2.137 . S
Co364 O377 2.244 . S
O365 Co364 2.216 . S
O365 C372 1.247 . S
O366 Co364 2.091 . S
O366 C372 1.261 . S
C367 O376 1.247 . S
C367 O377 1.272 . S
O368 Co364 2.004 . S
O368 C373 1.259 . S
Co369 O370 2.061 . S
Co369 O375 2.052 . S
Co369 O377 2.135 . S
O370 Co369 2.061 . S
O370 C373 1.235 . S
C371 O374 1.238 . S
C371 O375 1.241 . S
C372 O365 1.247 . S
C372 O366 1.261 . S
C373 O368 1.259 . S
C373 O370 1.235 . S
O374 Co364 2.021 . S
O374 C371 1.238 . S
O375 Co369 2.052 . S
O375 C371 1.241 . S
O376 Co364 2.137 . S
O376 C367 1.247 . S
O377 Co364 2.244 . S
O377 C367 1.272 . S
O377 Co369 2.135 . S
Co378 O379 2.216 . S
Co378 O380 2.091 . S
Co378 O382 2.004 . S
Co378 O388 2.021 . S
Co378 O390 2.137 . S
Co378 O391 2.244 . S
O379 Co378 2.216 . S
O379 C386 1.247 . S
O380 Co378 2.091 . S
O380 C386 1.261 . S
C381 O390 1.247 . S
C381 O391 1.272 . S
O382 Co378 2.004 . S
O382 C387 1.259 . S
Co383 O384 2.061 . S
Co383 O389 2.052 . S
Co383 O391 2.135 . S
O384 Co383 2.061 . S
O384 C387 1.235 . S
C385 O388 1.238 . S
C385 O389 1.241 . S
C386 O379 1.247 . S
C386 O380 1.261 . S
C387 O382 1.259 . S
C387 O384 1.235 . S
O388 Co378 2.021 . S
O388 C385 1.238 . S
O389 Co383 2.052 . S
O389 C385 1.241 . S
O390 Co378 2.137 . S
O390 C381 1.247 . S
O391 Co378 2.244 . S
O391 C381 1.272 . S
O391 Co383 2.135 . S
Co392 O393 2.216 . S
Co392 O394 2.091 . S
Co392 O396 2.004 . S
Co392 O402 2.021 . S
Co392 O404 2.137 . S
Co392 O405 2.244 . S
O393 Co392 2.216 . S
O393 C400 1.247 . S
O394 Co392 2.091 . S
O394 C400 1.261 . S
C395 O404 1.247 . S
C395 O405 1.272 . S
O396 Co392 2.004 . S
O396 C401 1.259 . S
Co397 O398 2.061 . S
Co397 O403 2.052 . S
Co397 O405 2.135 . S
O398 Co397 2.061 . S
O398 C401 1.235 . S
C399 O402 1.238 . S
C399 O403 1.241 . S
C400 O393 1.247 . S
C400 O394 1.261 . S
C401 O396 1.259 . S
C401 O398 1.235 . S
O402 Co392 2.021 . S
O402 C399 1.238 . S
O403 Co397 2.052 . S
O403 C399 1.241 . S
O404 Co392 2.137 . S
O404 C395 1.247 . S
O405 Co392 2.244 . S
O405 C395 1.272 . S
O405 Co397 2.135 . S
Co406 O407 2.216 . S
Co406 O408 2.091 . S
Co406 O410 2.004 . S
Co406 O416 2.021 . S
Co406 O418 2.137 . S
Co406 O419 2.244 . S
O407 Co406 2.216 . S
O407 C414 1.247 . S
O408 Co406 2.091 . S
O408 C414 1.261 . S
C409 O418 1.247 . S
C409 O419 1.272 . S
O410 Co406 2.004 . S
O410 C415 1.259 . S
Co411 O412 2.061 . S
Co411 O417 2.052 . S
Co411 O419 2.135 . S
O412 Co411 2.061 . S
O412 C415 1.235 . S
C413 O416 1.238 . S
C413 O417 1.241 . S
C414 O407 1.247 . S
C414 O408 1.261 . S
C415 O410 1.259 . S
C415 O412 1.235 . S
O416 Co406 2.021 . S
O416 C413 1.238 . S
O417 Co411 2.052 . S
O417 C413 1.241 . S
O418 Co406 2.137 . S
O418 C409 1.247 . S
O419 Co406 2.244 . S
O419 C409 1.272 . S
O419 Co411 2.135 . S
Co420 O421 2.216 . S
Co420 O422 2.091 . S
Co420 O424 2.004 . S
Co420 O430 2.021 . S
Co420 O432 2.137 . S
Co420 O433 2.244 . S
O421 Co420 2.216 . S
O421 C428 1.247 . S
O422 Co420 2.091 . S
O422 C428 1.261 . S
C423 O432 1.247 . S
C423 O433 1.272 . S
O424 Co420 2.004 . S
O424 C429 1.259 . S
Co425 O426 2.061 . S
Co425 O431 2.052 . S
Co425 O433 2.135 . S
O426 Co425 2.061 . S
O426 C429 1.235 . S
C427 O430 1.238 . S
C427 O431 1.241 . S
C428 O421 1.247 . S
C428 O422 1.261 . S
C429 O424 1.259 . S
C429 O426 1.235 . S
O430 Co420 2.021 . S
O430 C427 1.238 . S
O431 Co425 2.052 . S
O431 C427 1.241 . S
O432 Co420 2.137 . S
O432 C423 1.247 . S
O433 Co420 2.244 . S
O433 C423 1.272 . S
O433 Co425 2.135 . S
Co434 O435 2.216 . S
Co434 O436 2.091 . S
Co434 O438 2.004 . S
Co434 O444 2.021 . S
Co434 O446 2.137 . S
Co434 O447 2.244 . S
O435 Co434 2.216 . S
O435 C442 1.247 . S
O436 Co434 2.091 . S
O436 C442 1.261 . S
C437 O446 1.247 . S
C437 O447 1.272 . S
O438 Co434 2.004 . S
O438 C443 1.259 . S
Co439 O440 2.061 . S
Co439 O445 2.052 . S
Co439 O447 2.135 . S
O440 Co439 2.061 . S
O440 C443 1.235 . S
C441 O444 1.238 . S
C441 O445 1.241 . S
C442 O435 1.247 . S
C442 O436 1.261 . S
C443 O438 1.259 . S
C443 O440 1.235 . S
O444 Co434 2.021 . S
O444 C441 1.238 . S
O445 Co439 2.052 . S
O445 C441 1.241 . S
O446 Co434 2.137 . S
O446 C437 1.247 . S
O447 Co434 2.244 . S
O447 C437 1.272 . S
O447 Co439 2.135 . S
C448 C449 1.391 . S
C448 C450 1.394 . S
C448 H464 0.931 . S
C449 C448 1.391 . S
C449 C453 1.376 . S
C450 C448 1.394 . S
C450 C451 1.369 . S
C450 C454 1.531 . S
C451 C450 1.369 . S
C451 C452 1.410 . S
C451 C459 1.503 1_545 S
C452 C451 1.410 . S
C452 C453 1.392 . S
C452 C455 1.511 1_545 S
C453 C449 1.376 . S
C453 C452 1.392 . S
C453 H465 0.929 . S
C454 C450 1.531 . S
C454 H466 0.960 . S
C454 H467 0.962 . S
C454 H468 0.960 . S
C455 C452 1.511 1_565 S
C455 H469 0.961 . S
C455 H470 0.961 . S
C455 H471 0.961 . S
C456 C457 1.370 . S
C456 C458 1.363 . S
C456 H472 0.931 . S
C457 C456 1.370 . S
C457 C461 1.408 . S
C458 C456 1.363 . S
C458 C459 1.370 . S
C458 C462 1.524 . S
C459 C451 1.503 1_565 S
C459 C458 1.370 . S
C459 C460 1.403 . S
C460 C459 1.403 . S
C460 C461 1.404 . S
C460 C463 1.539 1_565 S
C461 C457 1.408 . S
C461 C460 1.404 . S
C461 H473 0.930 . S
C462 C458 1.524 . S
C462 H474 0.956 . S
C462 H475 0.961 . S
C462 H476 0.961 . S
C463 C460 1.539 1_545 S
C463 H477 0.958 . S
C463 H478 0.961 1_545 S
C463 H479 0.960 . S
H464 C448 0.931 . S
H465 C453 0.929 . S
H466 C454 0.960 . S
H467 C454 0.962 . S
H468 C454 0.960 . S
H469 C455 0.961 . S
H470 C455 0.961 . S
H471 C455 0.961 . S
H472 C456 0.931 . S
H473 C461 0.930 . S
H474 C462 0.956 . S
H475 C462 0.961 . S
H476 C462 0.961 . S
H477 C463 0.958 . S
H478 C463 0.961 1_565 S
H479 C463 0.960 . S
C480 C481 1.391 . S
C480 C482 1.394 . S
C480 H496 0.931 . S
C481 C480 1.391 . S
C481 C485 1.376 . S
C482 C480 1.394 . S
C482 C483 1.369 . S
C482 C486 1.531 . S
C483 C482 1.369 . S
C483 C484 1.410 . S
C483 C491 1.503 . S
C484 C483 1.410 . S
C484 C485 1.392 . S
C484 C487 1.511 . S
C485 C481 1.376 . S
C485 C484 1.392 . S
C485 H497 0.929 . S
C486 C482 1.531 . S
C486 H498 0.960 . S
C486 H499 0.962 . S
C486 H500 0.960 . S
C487 C484 1.511 . S
C487 H501 0.961 . S
C487 H502 0.961 . S
C487 H503 0.961 . S
C488 C489 1.370 . S
C488 C490 1.363 . S
C488 H504 0.931 . S
C489 C488 1.370 . S
C489 C493 1.408 . S
C490 C488 1.363 . S
C490 C491 1.370 . S
C490 C494 1.524 . S
C491 C483 1.503 . S
C491 C490 1.370 . S
C491 C492 1.403 . S
C492 C491 1.403 . S
C492 C493 1.404 . S
C492 C495 1.539 . S
C493 C489 1.408 . S
C493 C492 1.404 . S
C493 H505 0.930 . S
C494 C490 1.524 . S
C494 H506 0.956 . S
C494 H507 0.961 . S
C494 H508 0.961 . S
C495 C492 1.539 . S
C495 H509 0.958 . S
C495 H510 0.961 . S
C495 H511 0.960 . S
H496 C480 0.931 . S
H497 C485 0.929 . S
H498 C486 0.960 . S
H499 C486 0.962 . S
H500 C486 0.960 . S
H501 C487 0.961 . S
H502 C487 0.961 . S
H503 C487 0.961 . S
H504 C488 0.931 . S
H505 C493 0.930 . S
H506 C494 0.956 . S
H507 C494 0.961 . S
H508 C494 0.961 . S
H509 C495 0.958 . S
H510 C495 0.961 . S
H511 C495 0.960 . S
C512 C513 1.391 . S
C512 C514 1.394 . S
C512 H528 0.931 . S
C513 C512 1.391 . S
C513 C517 1.376 . S
C514 C512 1.394 . S
C514 C515 1.369 . S
C514 C518 1.531 1_545 S
C515 C514 1.369 . S
C515 C516 1.410 . S
C515 C523 1.503 1_545 S
C516 C515 1.410 . S
C516 C517 1.392 . S
C516 C519 1.511 . S
C517 C513 1.376 . S
C517 C516 1.392 . S
C517 H529 0.929 . S
C518 C514 1.531 1_565 S
C518 H530 0.960 . S
C518 H531 0.962 . S
C518 H532 0.960 . S
C519 C516 1.511 . S
C519 H533 0.961 . S
C519 H534 0.961 . S
C519 H535 0.961 . S
C520 C521 1.370 . S
C520 C522 1.363 . S
C520 H536 0.931 . S
C521 C520 1.370 . S
C521 C525 1.408 . S
C522 C520 1.363 . S
C522 C523 1.370 . S
C522 C526 1.524 1_565 S
C523 C515 1.503 1_565 S
C523 C522 1.370 . S
C523 C524 1.403 . S
C524 C523 1.403 . S
C524 C525 1.404 . S
C524 C527 1.539 . S
C525 C521 1.408 . S
C525 C524 1.404 . S
C525 H537 0.930 . S
C526 C522 1.524 1_545 S
C526 H538 0.956 1_545 S
C526 H539 0.961 . S
C526 H540 0.961 1_545 S
C527 C524 1.539 . S
C527 H541 0.958 . S
C527 H542 0.961 . S
C527 H543 0.960 . S
H528 C512 0.931 . S
H529 C517 0.929 . S
H530 C518 0.960 . S
H531 C518 0.962 . S
H532 C518 0.960 . S
H533 C519 0.961 . S
H534 C519 0.961 . S
H535 C519 0.961 . S
H536 C520 0.931 . S
H537 C525 0.930 . S
H538 C526 0.956 1_565 S
H539 C526 0.961 . S
H540 C526 0.961 1_565 S
H541 C527 0.958 . S
H542 C527 0.961 . S
H543 C527 0.960 . S
C544 C545 1.391 . S
C544 C546 1.394 . S
C544 H560 0.931 . S
C545 C544 1.391 . S
C545 C549 1.376 . S
C546 C544 1.394 . S
C546 C547 1.369 . S
C546 C550 1.531 . S
C547 C546 1.369 . S
C547 C548 1.410 . S
C547 C555 1.503 1_556 S
C548 C547 1.410 . S
C548 C549 1.392 . S
C548 C551 1.511 1_556 S
C549 C545 1.376 . S
C549 C548 1.392 . S
C549 H561 0.929 . S
C550 C546 1.531 . S
C550 H562 0.960 . S
C550 H563 0.962 . S
C550 H564 0.960 . S
C551 C548 1.511 1_554 S
C551 H565 0.961 . S
C551 H566 0.961 . S
C551 H567 0.952 1_554 S
C552 C553 1.370 . S
C552 C554 1.363 . S
C552 H568 0.931 . S
C553 C552 1.370 . S
C553 C557 1.408 . S
C554 C552 1.363 . S
C554 C555 1.370 . S
C554 C558 1.524 . S
C555 C547 1.503 1_554 S
C555 C554 1.370 . S
C555 C556 1.403 . S
C556 C555 1.403 . S
C556 C557 1.404 . S
C556 C559 1.539 1_554 S
C557 C553 1.408 . S
C557 C556 1.404 . S
C557 H569 0.930 . S
C558 C554 1.524 . S
C558 H570 0.956 . S
C558 H571 0.961 . S
C558 H572 0.961 . S
C559 C556 1.539 1_556 S
C559 H573 0.958 . S
C559 H574 0.961 . S
C559 H575 0.960 . S
H560 C544 0.931 . S
H561 C549 0.929 . S
H562 C550 0.960 . S
H563 C550 0.962 . S
H564 C550 0.960 . S
H565 C551 0.961 . S
H566 C551 0.961 . S
H567 C551 0.952 1_556 S
H568 C552 0.931 . S
H569 C557 0.930 . S
H570 C558 0.956 . S
H571 C558 0.961 . S
H572 C558 0.961 . S
H573 C559 0.958 . S
H574 C559 0.961 . S
H575 C559 0.960 . S
C576 C577 1.391 . S
C576 C578 1.394 . S
C576 H592 0.931 . S
C577 C576 1.391 . S
C577 C581 1.376 . S
C578 C576 1.394 . S
C578 C579 1.369 . S
C578 C582 1.531 1_565 S
C579 C578 1.369 . S
C579 C580 1.410 . S
C579 C587 1.503 1_565 S
C580 C579 1.410 . S
C580 C581 1.392 . S
C580 C583 1.511 . S
C581 C577 1.376 . S
C581 C580 1.392 . S
C581 H593 0.929 . S
C582 C578 1.531 1_545 S
C582 H594 0.960 . S
C582 H595 0.962 . S
C582 H596 0.960 . S
C583 C580 1.511 . S
C583 H597 0.961 . S
C583 H598 0.961 . S
C583 H599 0.961 . S
C584 C585 1.370 . S
C584 C586 1.363 . S
C584 H600 0.931 . S
C585 C584 1.370 . S
C585 C589 1.408 . S
C586 C584 1.363 . S
C586 C587 1.370 . S
C586 C590 1.524 1_545 S
C587 C579 1.503 1_545 S
C587 C586 1.370 . S
C587 C588 1.403 . S
C588 C587 1.403 . S
C588 C589 1.404 . S
C588 C591 1.539 . S
C589 C585 1.408 . S
C589 C588 1.404 . S
C589 H601 0.930 . S
C590 C586 1.524 1_565 S
C590 H602 0.956 . S
C590 H603 0.961 . S
C590 H604 0.961 . S
C591 C588 1.539 . S
C591 H605 0.958 . S
C591 H606 0.961 . S
C591 H607 0.960 . S
H592 C576 0.931 . S
H593 C581 0.929 . S
H594 C582 0.960 . S
H595 C582 0.962 . S
H596 C582 0.960 . S
H597 C583 0.961 . S
H598 C583 0.961 . S
H599 C583 0.961 . S
H600 C584 0.931 . S
H601 C589 0.930 . S
H602 C590 0.956 . S
H603 C590 0.961 . S
H604 C590 0.961 . S
H605 C591 0.958 . S
H606 C591 0.961 . S
H607 C591 0.960 . S
C608 C609 1.391 . S
C608 C610 1.394 . S
C608 H624 0.931 . S
C609 C608 1.391 . S
C609 C613 1.376 . S
C610 C608 1.394 . S
C610 C611 1.369 . S
C610 C614 1.531 . S
C611 C610 1.369 . S
C611 C612 1.410 . S
C611 C619 1.503 . S
C612 C611 1.410 . S
C612 C613 1.392 . S
C612 C615 1.511 . S
C613 C609 1.376 . S
C613 C612 1.392 . S
C613 H625 0.929 . S
C614 C610 1.531 . S
C614 H626 0.960 . S
C614 H627 0.962 . S
C614 H628 0.960 . S
C615 C612 1.511 . S
C615 H629 0.961 . S
C615 H630 0.961 . S
C615 H631 0.961 . S
C616 C617 1.370 . S
C616 C618 1.363 . S
C616 H632 0.931 . S
C617 C616 1.370 . S
C617 C621 1.408 . S
C618 C616 1.363 . S
C618 C619 1.370 . S
C618 C622 1.524 . S
C619 C611 1.503 . S
C619 C618 1.370 . S
C619 C620 1.403 . S
C620 C619 1.403 . S
C620 C621 1.404 . S
C620 C623 1.539 . S
C621 C617 1.408 . S
C621 C620 1.404 . S
C621 H633 0.930 . S
C622 C618 1.524 . S
C622 H634 0.956 . S
C622 H635 0.961 . S
C622 H636 0.961 . S
C623 C620 1.539 . S
C623 H637 0.958 . S
C623 H638 0.961 . S
C623 H639 0.960 . S
H624 C608 0.931 . S
H625 C613 0.929 . S
H626 C614 0.960 . S
H627 C614 0.962 . S
H628 C614 0.960 . S
H629 C615 0.961 . S
H630 C615 0.961 . S
H631 C615 0.961 . S
H632 C616 0.931 . S
H633 C621 0.930 . S
H634 C622 0.956 . S
H635 C622 0.961 . S
H636 C622 0.961 . S
H637 C623 0.958 . S
H638 C623 0.961 . S
H639 C623 0.960 . S
C640 C641 1.391 . S
C640 C642 1.394 . S
C640 H656 0.931 . S
C641 C640 1.391 . S
C641 C645 1.376 . S
C642 C640 1.394 . S
C642 C643 1.369 . S
C642 C646 1.531 . S
C643 C642 1.369 . S
C643 C644 1.410 . S
C643 C651 1.503 1_565 S
C644 C643 1.410 . S
C644 C645 1.392 . S
C644 C647 1.511 1_565 S
C645 C641 1.376 . S
C645 C644 1.392 . S
C645 H657 0.929 . S
C646 C642 1.531 . S
C646 H658 0.960 . S
C646 H659 0.962 . S
C646 H660 0.960 . S
C647 C644 1.511 1_545 S
C647 H661 0.961 . S
C647 H662 0.961 . S
C647 H663 0.968 . S
C648 C649 1.370 . S
C648 C650 1.363 . S
C648 H664 0.931 . S
C649 C648 1.370 . S
C649 C653 1.408 . S
C650 C648 1.363 . S
C650 C651 1.370 . S
C650 C654 1.524 . S
C651 C643 1.503 1_545 S
C651 C650 1.370 . S
C651 C652 1.403 . S
C652 C651 1.403 . S
C652 C653 1.404 . S
C652 C655 1.539 1_545 S
C653 C649 1.408 . S
C653 C652 1.404 . S
C653 H665 0.930 . S
C654 C650 1.524 . S
C654 H666 0.956 . S
C654 H667 0.961 . S
C654 H668 0.961 . S
C655 C652 1.539 1_565 S
C655 H669 0.958 . S
C655 H670 0.961 . S
C655 H671 0.960 . S
H656 C640 0.931 . S
H657 C645 0.929 . S
H658 C646 0.960 . S
H659 C646 0.962 . S
H660 C646 0.960 . S
H661 C647 0.961 . S
H662 C647 0.961 . S
H663 C647 0.968 . S
H664 C648 0.931 . S
H665 C653 0.930 . S
H666 C654 0.956 . S
H667 C654 0.961 . S
H668 C654 0.961 . S
H669 C655 0.958 . S
H670 C655 0.961 . S
H671 C655 0.960 . S
C672 C673 1.391 . S
C672 C674 1.394 . S
C672 H688 0.931 . S
C673 C672 1.391 . S
C673 C677 1.376 . S
C674 C672 1.394 . S
C674 C675 1.369 . S
C674 C678 1.531 1_556 S
C675 C674 1.369 . S
C675 C676 1.410 . S
C675 C683 1.503 1_556 S
C676 C675 1.410 . S
C676 C677 1.392 . S
C676 C679 1.511 . S
C677 C673 1.376 . S
C677 C676 1.392 . S
C677 H689 0.929 . S
C678 C674 1.531 1_554 S
C678 H690 0.960 . S
C678 H691 0.962 . S
C678 H692 0.960 . S
C679 C676 1.511 . S
C679 H693 0.961 . S
C679 H694 0.961 . S
C679 H695 0.961 . S
C680 C681 1.370 . S
C680 C682 1.363 . S
C680 H696 0.931 . S
C681 C680 1.370 . S
C681 C685 1.408 . S
C682 C680 1.363 . S
C682 C683 1.370 . S
C682 C686 1.524 . S
C683 C675 1.503 1_554 S
C683 C682 1.370 . S
C683 C684 1.403 . S
C684 C683 1.403 . S
C684 C685 1.404 . S
C684 C687 1.539 1_554 S
C685 C681 1.408 . S
C685 C684 1.404 . S
C685 H697 0.930 . S
C686 C682 1.524 . S
C686 H698 0.956 . S
C686 H699 0.961 . S
C686 H700 0.961 . S
C687 C684 1.539 1_556 S
C687 H701 0.958 . S
C687 H702 0.961 . S
C687 H703 0.960 . S
H688 C672 0.931 . S
H689 C677 0.929 . S
H690 C678 0.960 . S
H691 C678 0.962 . S
H692 C678 0.960 . S
H693 C679 0.961 . S
H694 C679 0.961 . S
H695 C679 0.961 . S
H696 C680 0.931 . S
H697 C685 0.930 . S
H698 C686 0.956 . S
H699 C686 0.961 . S
H700 C686 0.961 . S
H701 C687 0.958 . S
H702 C687 0.961 . S
H703 C687 0.960 . S
C704 C705 1.391 . S
C704 C706 1.394 . S
C704 H720 0.931 . S
C705 C704 1.391 . S
C705 C709 1.376 . S
C706 C704 1.394 . S
C706 C707 1.369 . S
C706 C710 1.531 . S
C707 C706 1.369 . S
C707 C708 1.410 . S
C707 C715 1.503 . S
C708 C707 1.410 . S
C708 C709 1.392 . S
C708 C711 1.511 . S
C709 C705 1.376 . S
C709 C708 1.392 . S
C709 H721 0.929 . S
C710 C706 1.531 . S
C710 H722 0.960 . S
C710 H723 0.962 . S
C710 H724 0.960 . S
C711 C708 1.511 . S
C711 H725 0.961 . S
C711 H726 0.961 . S
C711 H727 0.961 . S
C712 C713 1.370 . S
C712 C714 1.363 . S
C712 H728 0.931 . S
C713 C712 1.370 . S
C713 C717 1.408 . S
C714 C712 1.363 . S
C714 C715 1.370 . S
C714 C718 1.524 . S
C715 C707 1.503 . S
C715 C714 1.370 . S
C715 C716 1.403 . S
C716 C715 1.403 . S
C716 C717 1.404 . S
C716 C719 1.539 . S
C717 C713 1.408 . S
C717 C716 1.404 . S
C717 H729 0.930 . S
C718 C714 1.524 . S
C718 H730 0.956 . S
C718 H731 0.961 . S
C718 H732 0.961 . S
C719 C716 1.539 . S
C719 H733 0.958 . S
C719 H734 0.961 . S
C719 H735 0.960 . S
H720 C704 0.931 . S
H721 C709 0.929 . S
H722 C710 0.960 . S
H723 C710 0.962 . S
H724 C710 0.960 . S
H725 C711 0.961 . S
H726 C711 0.961 . S
H727 C711 0.961 . S
H728 C712 0.931 . S
H729 C717 0.930 . S
H730 C718 0.956 . S
H731 C718 0.961 . S
H732 C718 0.961 . S
H733 C719 0.958 . S
H734 C719 0.961 . S
H735 C719 0.960 . S
C736 C737 1.391 . S
C736 C738 1.394 . S
C736 H752 0.931 . S
C737 C736 1.391 . S
C737 C741 1.376 . S
C738 C736 1.394 . S
C738 C739 1.369 . S
C738 C742 1.531 1_556 S
C739 C738 1.369 . S
C739 C740 1.410 . S
C739 C747 1.503 1_556 S
C740 C739 1.410 . S
C740 C741 1.392 . S
C740 C743 1.511 . S
C741 C737 1.376 . S
C741 C740 1.392 . S
C741 H753 0.929 . S
C742 C738 1.531 1_554 S
C742 H754 0.960 . S
C742 H755 0.962 . S
C742 H756 0.960 . S
C743 C740 1.511 . S
C743 H757 0.961 . S
C743 H758 0.961 . S
C743 H759 0.961 . S
C744 C745 1.370 . S
C744 C746 1.363 . S
C744 H760 0.931 . S
C745 C744 1.370 . S
C745 C749 1.408 . S
C746 C744 1.363 . S
C746 C747 1.370 . S
C746 C750 1.524 1_554 S
C747 C739 1.503 1_554 S
C747 C746 1.370 . S
C747 C748 1.403 . S
C748 C747 1.403 . S
C748 C749 1.404 . S
C748 C751 1.539 . S
C749 C745 1.408 . S
C749 C748 1.404 . S
C749 H761 0.930 . S
C750 C746 1.524 1_556 S
C750 H762 0.956 . S
C750 H763 0.961 . S
C750 H764 0.961 . S
C751 C748 1.539 . S
C751 H765 0.958 . S
C751 H766 0.961 . S
C751 H767 0.960 . S
H752 C736 0.931 . S
H753 C741 0.929 . S
H754 C742 0.960 . S
H755 C742 0.962 . S
H756 C742 0.960 . S
H757 C743 0.961 . S
H758 C743 0.961 . S
H759 C743 0.961 . S
H760 C744 0.931 . S
H761 C749 0.930 . S
H762 C750 0.956 . S
H763 C750 0.961 . S
H764 C750 0.961 . S
H765 C751 0.958 . S
H766 C751 0.961 . S
H767 C751 0.960 . S
C768 C769 1.391 . S
C768 C770 1.394 . S
C768 H784 0.931 . S
C769 C768 1.391 . S
C769 C773 1.376 . S
C770 C768 1.394 . S
C770 C771 1.369 . S
C770 C774 1.531 . S
C771 C770 1.369 . S
C771 C772 1.410 . S
C771 C779 1.503 . S
C772 C771 1.410 . S
C772 C773 1.392 . S
C772 C775 1.511 . S
C773 C769 1.376 . S
C773 C772 1.392 . S
C773 H785 0.929 . S
C774 C770 1.531 . S
C774 H786 0.960 . S
C774 H787 0.962 . S
C774 H788 0.960 . S
C775 C772 1.511 . S
C775 H789 0.961 . S
C775 H790 0.961 . S
C775 H791 0.961 . S
C776 C777 1.370 . S
C776 C778 1.363 . S
C776 H792 0.931 . S
C777 C776 1.370 . S
C777 C781 1.408 . S
C778 C776 1.363 . S
C778 C779 1.370 . S
C778 C782 1.524 . S
C779 C771 1.503 . S
C779 C778 1.370 . S
C779 C780 1.403 . S
C780 C779 1.403 . S
C780 C781 1.404 . S
C780 C783 1.539 . S
C781 C777 1.408 . S
C781 C780 1.404 . S
C781 H793 0.930 . S
C782 C778 1.524 . S
C782 H794 0.956 . S
C782 H795 0.961 . S
C782 H796 0.961 . S
C783 C780 1.539 . S
C783 H797 0.958 . S
C783 H798 0.961 . S
C783 H799 0.960 . S
H784 C768 0.931 . S
H785 C773 0.929 . S
H786 C774 0.960 . S
H787 C774 0.962 . S
H788 C774 0.960 . S
H789 C775 0.961 . S
H790 C775 0.961 . S
H791 C775 0.961 . S
H792 C776 0.931 . S
H793 C781 0.930 . S
H794 C782 0.956 . S
H795 C782 0.961 . S
H796 C782 0.961 . S
H797 C783 0.958 . S
H798 C783 0.961 . S
H799 C783 0.960 . S
C800 C801 1.391 . S
C800 C802 1.394 . S
C800 H816 0.931 . S
C801 C800 1.391 . S
C801 C805 1.376 . S
C802 C800 1.394 . S
C802 C803 1.369 . S
C802 C806 1.531 . S
C803 C802 1.369 . S
C803 C804 1.410 . S
C803 C811 1.503 . S
C804 C803 1.410 . S
C804 C805 1.392 . S
C804 C807 1.511 . S
C805 C801 1.376 . S
C805 C804 1.392 . S
C805 H817 0.929 . S
C806 C802 1.531 . S
C806 H818 0.960 . S
C806 H819 0.962 . S
C806 H820 0.960 . S
C807 C804 1.511 . S
C807 H821 0.961 . S
C807 H822 0.961 . S
C807 H823 0.961 . S
C808 C809 1.370 . S
C808 C810 1.363 . S
C808 H824 0.931 . S
C809 C808 1.370 . S
C809 C813 1.408 . S
C810 C808 1.363 . S
C810 C811 1.370 . S
C810 C814 1.524 . S
C811 C803 1.503 . S
C811 C810 1.370 . S
C811 C812 1.403 . S
C812 C811 1.403 . S
C812 C813 1.404 . S
C812 C815 1.539 . S
C813 C809 1.408 . S
C813 C812 1.404 . S
C813 H825 0.930 . S
C814 C810 1.524 . S
C814 H826 0.956 . S
C814 H827 0.961 . S
C814 H828 0.961 . S
C815 C812 1.539 . S
C815 H829 0.958 . S
C815 H830 0.961 . S
C815 H831 0.960 . S
H816 C800 0.931 . S
H817 C805 0.929 . S
H818 C806 0.960 . S
H819 C806 0.962 . S
H820 C806 0.960 . S
H821 C807 0.961 . S
H822 C807 0.961 . S
H823 C807 0.961 . S
H824 C808 0.931 . S
H825 C813 0.930 . S
H826 C814 0.956 . S
H827 C814 0.961 . S
H828 C814 0.961 . S
H829 C815 0.958 . S
H830 C815 0.961 . S
H831 C815 0.960 . S
C832 C833 1.391 . S
C832 C834 1.394 . S
C832 H848 0.931 . S
C833 C832 1.391 . S
C833 C837 1.376 . S
C834 C832 1.394 . S
C834 C835 1.369 . S
C834 C838 1.531 . S
C835 C834 1.369 . S
C835 C836 1.410 . S
C835 C843 1.503 . S
C836 C835 1.410 . S
C836 C837 1.392 . S
C836 C839 1.511 . S
C837 C833 1.376 . S
C837 C836 1.392 . S
C837 H849 0.929 . S
C838 C834 1.531 . S
C838 H850 0.960 . S
C838 H851 0.962 . S
C838 H852 0.960 . S
C839 C836 1.511 . S
C839 H853 0.961 . S
C839 H854 0.961 . S
C839 H855 0.961 . S
C840 C841 1.370 . S
C840 C842 1.363 . S
C840 H856 0.931 . S
C841 C840 1.370 . S
C841 C845 1.408 . S
C842 C840 1.363 . S
C842 C843 1.370 . S
C842 C846 1.524 . S
C843 C835 1.503 . S
C843 C842 1.370 . S
C843 C844 1.403 . S
C844 C843 1.403 . S
C844 C845 1.404 . S
C844 C847 1.539 . S
C845 C841 1.408 . S
C845 C844 1.404 . S
C845 H857 0.930 . S
C846 C842 1.524 . S
C846 H858 0.956 . S
C846 H859 0.961 . S
C846 H860 0.961 . S
C847 C844 1.539 . S
C847 H861 0.958 . S
C847 H862 0.961 . S
C847 H863 0.960 . S
H848 C832 0.931 . S
H849 C837 0.929 . S
H850 C838 0.960 . S
H851 C838 0.962 . S
H852 C838 0.960 . S
H853 C839 0.961 . S
H854 C839 0.961 . S
H855 C839 0.961 . S
H856 C840 0.931 . S
H857 C845 0.930 . S
H858 C846 0.956 . S
H859 C846 0.961 . S
H860 C846 0.961 . S
H861 C847 0.958 . S
H862 C847 0.961 . S
H863 C847 0.960 . S
C864 C865 1.391 . S
C864 C866 1.394 . S
C864 H880 0.931 . S
C865 C864 1.391 . S
C865 C869 1.376 . S
C866 C864 1.394 . S
C866 C867 1.369 . S
C866 C870 1.531 1_554 S
C867 C866 1.369 . S
C867 C868 1.410 . S
C867 C875 1.503 1_554 S
C868 C867 1.410 . S
C868 C869 1.392 . S
C868 C871 1.511 . S
C869 C865 1.376 . S
C869 C868 1.392 . S
C869 H881 0.929 . S
C870 C866 1.531 1_556 S
C870 H882 0.960 . S
C870 H883 0.962 . S
C870 H884 0.960 . S
C871 C868 1.511 . S
C871 H885 0.961 . S
C871 H886 0.961 . S
C871 H887 0.961 . S
C872 C873 1.370 . S
C872 C874 1.363 . S
C872 H888 0.931 . S
C873 C872 1.370 . S
C873 C877 1.408 . S
C874 C872 1.363 . S
C874 C875 1.370 . S
C874 C878 1.524 . S
C875 C867 1.503 1_556 S
C875 C874 1.370 . S
C875 C876 1.403 . S
C876 C875 1.403 . S
C876 C877 1.404 . S
C876 C879 1.539 . S
C877 C873 1.408 . S
C877 C876 1.404 . S
C877 H889 0.930 . S
C878 C874 1.524 . S
C878 H890 0.956 . S
C878 H891 0.961 1_556 S
C878 H892 0.961 . S
C879 C876 1.539 . S
C879 H893 0.958 . S
C879 H894 0.961 . S
C879 H895 0.960 1_556 S
H880 C864 0.931 . S
H881 C869 0.929 . S
H882 C870 0.960 . S
H883 C870 0.962 . S
H884 C870 0.960 . S
H885 C871 0.961 . S
H886 C871 0.961 . S
H887 C871 0.961 . S
H888 C872 0.931 . S
H889 C877 0.930 . S
H890 C878 0.956 . S
H891 C878 0.961 1_554 S
H892 C878 0.961 . S
H893 C879 0.958 . S
H894 C879 0.961 . S
H895 C879 0.960 1_554 S
C896 C897 1.391 . S
C896 C898 1.394 . S
C896 H912 0.931 . S
C897 C896 1.391 . S
C897 C901 1.376 . S
C898 C896 1.394 . S
C898 C899 1.369 . S
C898 C902 1.531 . S
C899 C898 1.369 . S
C899 C900 1.410 . S
C899 C907 1.503 . S
C900 C899 1.410 . S
C900 C901 1.392 . S
C900 C903 1.511 . S
C901 C897 1.376 . S
C901 C900 1.392 . S
C901 H913 0.929 . S
C902 C898 1.531 . S
C902 H914 0.960 . S
C902 H915 0.962 . S
C902 H916 0.960 . S
C903 C900 1.511 . S
C903 H917 0.961 . S
C903 H918 0.961 . S
C903 H919 0.961 . S
C904 C905 1.370 . S
C904 C906 1.363 . S
C904 H920 0.931 . S
C905 C904 1.370 . S
C905 C909 1.408 . S
C906 C904 1.363 . S
C906 C907 1.370 . S
C906 C910 1.524 . S
C907 C899 1.503 . S
C907 C906 1.370 . S
C907 C908 1.403 . S
C908 C907 1.403 . S
C908 C909 1.404 . S
C908 C911 1.539 . S
C909 C905 1.408 . S
C909 C908 1.404 . S
C909 H921 0.930 . S
C910 C906 1.524 . S
C910 H922 0.956 . S
C910 H923 0.961 . S
C910 H924 0.961 . S
C911 C908 1.539 . S
C911 H925 0.958 . S
C911 H926 0.961 . S
C911 H927 0.960 . S
H912 C896 0.931 . S
H913 C901 0.929 . S
H914 C902 0.960 . S
H915 C902 0.962 . S
H916 C902 0.960 . S
H917 C903 0.961 . S
H918 C903 0.961 . S
H919 C903 0.961 . S
H920 C904 0.931 . S
H921 C909 0.930 . S
H922 C910 0.956 . S
H923 C910 0.961 . S
H924 C910 0.961 . S
H925 C911 0.958 . S
H926 C911 0.961 . S
H927 C911 0.960 . S
C928 C929 1.391 . S
C928 C930 1.394 . S
C928 H944 0.931 . S
C929 C928 1.391 . S
C929 C933 1.376 . S
C930 C928 1.394 . S
C930 C931 1.369 . S
C930 C934 1.531 . S
C931 C930 1.369 . S
C931 C932 1.410 . S
C931 C939 1.503 . S
C932 C931 1.410 . S
C932 C933 1.392 . S
C932 C935 1.511 . S
C933 C929 1.376 . S
C933 C932 1.392 . S
C933 H945 0.929 . S
C934 C930 1.531 . S
C934 H946 0.960 . S
C934 H947 0.962 . S
C934 H948 0.960 . S
C935 C932 1.511 . S
C935 H949 0.961 . S
C935 H950 0.961 . S
C935 H951 0.961 . S
C936 C937 1.370 . S
C936 C938 1.363 . S
C936 H952 0.931 . S
C937 C936 1.370 . S
C937 C941 1.408 . S
C938 C936 1.363 . S
C938 C939 1.370 . S
C938 C942 1.524 . S
C939 C931 1.503 . S
C939 C938 1.370 . S
C939 C940 1.403 . S
C940 C939 1.403 . S
C940 C941 1.404 . S
C940 C943 1.539 . S
C941 C937 1.408 . S
C941 C940 1.404 . S
C941 H953 0.930 . S
C942 C938 1.524 . S
C942 H954 0.956 . S
C942 H955 0.961 . S
C942 H956 0.961 . S
C943 C940 1.539 . S
C943 H957 0.958 . S
C943 H958 0.961 . S
C943 H959 0.960 . S
H944 C928 0.931 . S
H945 C933 0.929 . S
H946 C934 0.960 . S
H947 C934 0.962 . S
H948 C934 0.960 . S
H949 C935 0.961 . S
H950 C935 0.961 . S
H951 C935 0.961 . S
H952 C936 0.931 . S
H953 C941 0.930 . S
H954 C942 0.956 . S
H955 C942 0.961 . S
H956 C942 0.961 . S
H957 C943 0.958 . S
H958 C943 0.961 . S
H959 C943 0.960 . S
C960 C961 1.391 . S
C960 C962 1.394 . S
C960 H976 0.931 . S
C961 C960 1.391 . S
C961 C965 1.376 . S
C962 C960 1.394 . S
C962 C963 1.369 . S
C962 C966 1.531 . S
C963 C962 1.369 . S
C963 C964 1.410 . S
C963 C971 1.503 . S
C964 C963 1.410 . S
C964 C965 1.392 . S
C964 C967 1.511 . S
C965 C961 1.376 . S
C965 C964 1.392 . S
C965 H977 0.929 . S
C966 C962 1.531 . S
C966 H978 0.960 . S
C966 H979 0.962 . S
C966 H980 0.960 . S
C967 C964 1.511 . S
C967 H981 0.961 . S
C967 H982 0.961 . S
C967 H983 0.961 . S
C968 C969 1.370 . S
C968 C970 1.363 . S
C968 H984 0.931 . S
C969 C968 1.370 . S
C969 C973 1.408 . S
C970 C968 1.363 . S
C970 C971 1.370 . S
C970 C974 1.524 . S
C971 C963 1.503 . S
C971 C970 1.370 . S
C971 C972 1.403 . S
C972 C971 1.403 . S
C972 C973 1.404 . S
C972 C975 1.539 . S
C973 C969 1.408 . S
C973 C972 1.404 . S
C973 H985 0.930 . S
C974 C970 1.524 . S
C974 H986 0.956 . S
C974 H987 0.961 . S
C974 H988 0.961 . S
C975 C972 1.539 . S
C975 H989 0.958 . S
C975 H990 0.961 . S
C975 H991 0.960 . S
H976 C960 0.931 . S
H977 C965 0.929 . S
H978 C966 0.960 . S
H979 C966 0.962 . S
H980 C966 0.960 . S
H981 C967 0.961 . S
H982 C967 0.961 . S
H983 C967 0.961 . S
H984 C968 0.931 . S
H985 C973 0.930 . S
H986 C974 0.956 . S
H987 C974 0.961 . S
H988 C974 0.961 . S
H989 C975 0.958 . S
H990 C975 0.961 . S
H991 C975 0.960 . S
C992 C993 1.391 . S
C992 C994 1.394 . S
C992 H1008 0.931 . S
C993 C992 1.391 . S
C993 C997 1.376 . S
C994 C992 1.394 . S
C994 C995 1.366 1_655 S
C994 C998 1.531 . S
C995 C994 1.366 1_455 S
C995 C996 1.407 1_455 S
C995 C1003 1.509 . S
C996 C995 1.407 1_655 S
C996 C997 1.392 . S
C996 C999 1.511 1_655 S
C997 C993 1.376 . S
C997 C996 1.392 . S
C997 H1009 0.929 . S
C998 C994 1.531 . S
C998 H1010 0.960 1_655 S
C998 H1011 0.962 1_655 S
C998 H1012 0.960 . S
C999 C996 1.511 1_455 S
C999 H1013 0.961 1_455 S
C999 H1014 0.961 . S
C999 H1015 0.961 . S
C1000 C1001 1.370 . S
C1000 C1002 1.363 . S
C1000 H1016 0.931 . S
C1001 C1000 1.370 . S
C1001 C1005 1.408 . S
C1002 C1000 1.363 . S
C1002 C1003 1.370 . S
C1002 C1006 1.524 . S
C1003 C995 1.509 . S
C1003 C1002 1.370 . S
C1003 C1004 1.403 . S
C1004 C1003 1.403 . S
C1004 C1005 1.404 . S
C1004 C1007 1.539 . S
C1005 C1001 1.408 . S
C1005 C1004 1.404 . S
C1005 H1017 0.930 . S
C1006 C1002 1.524 . S
C1006 H1018 0.956 . S
C1006 H1019 0.961 . S
C1006 H1020 0.961 . S
C1007 C1004 1.539 . S
C1007 H1021 0.958 . S
C1007 H1022 0.961 . S
C1007 H1023 0.960 . S
H1008 C992 0.931 . S
H1009 C997 0.929 . S
H1010 C998 0.960 1_455 S
H1011 C998 0.962 1_455 S
H1012 C998 0.960 . S
H1013 C999 0.961 1_655 S
H1014 C999 0.961 . S
H1015 C999 0.961 . S
H1016 C1000 0.931 . S
H1017 C1005 0.930 . S
H1018 C1006 0.956 . S
H1019 C1006 0.961 . S
H1020 C1006 0.961 . S
H1021 C1007 0.958 . S
H1022 C1007 0.961 . S
H1023 C1007 0.960 . S
C1024 C1025 1.391 . S
C1024 C1026 1.394 . S
C1024 H1040 0.931 . S
C1025 C1024 1.391 . S
C1025 C1029 1.376 . S
C1026 C1024 1.394 . S
C1026 C1027 1.369 . S
C1026 C1030 1.531 . S
C1027 C1026 1.369 . S
C1027 C1028 1.410 . S
C1027 C1035 1.503 . S
C1028 C1027 1.410 . S
C1028 C1029 1.392 . S
C1028 C1031 1.511 . S
C1029 C1025 1.376 . S
C1029 C1028 1.392 . S
C1029 H1041 0.929 . S
C1030 C1026 1.531 . S
C1030 H1042 0.960 . S
C1030 H1043 0.962 . S
C1030 H1044 0.960 . S
C1031 C1028 1.511 . S
C1031 H1045 0.961 . S
C1031 H1046 0.961 . S
C1031 H1047 0.961 . S
C1032 C1033 1.370 . S
C1032 C1034 1.363 . S
C1032 H1048 0.931 . S
C1033 C1032 1.370 . S
C1033 C1037 1.408 . S
C1034 C1032 1.363 . S
C1034 C1035 1.370 . S
C1034 C1038 1.524 . S
C1035 C1027 1.503 . S
C1035 C1034 1.370 . S
C1035 C1036 1.403 . S
C1036 C1035 1.403 . S
C1036 C1037 1.404 . S
C1036 C1039 1.539 . S
C1037 C1033 1.408 . S
C1037 C1036 1.404 . S
C1037 H1049 0.930 . S
C1038 C1034 1.524 . S
C1038 H1050 0.956 . S
C1038 H1051 0.961 . S
C1038 H1052 0.961 . S
C1039 C1036 1.539 . S
C1039 H1053 0.958 . S
C1039 H1054 0.961 . S
C1039 H1055 0.960 . S
H1040 C1024 0.931 . S
H1041 C1029 0.929 . S
H1042 C1030 0.960 . S
H1043 C1030 0.962 . S
H1044 C1030 0.960 . S
H1045 C1031 0.961 . S
H1046 C1031 0.961 . S
H1047 C1031 0.961 . S
H1048 C1032 0.931 . S
H1049 C1037 0.930 . S
H1050 C1038 0.956 . S
H1051 C1038 0.961 . S
H1052 C1038 0.961 . S
H1053 C1039 0.958 . S
H1054 C1039 0.961 . S
H1055 C1039 0.960 . S
C1056 C1057 1.391 . S
C1056 C1058 1.394 . S
C1056 H1072 0.931 . S
C1057 C1056 1.391 . S
C1057 C1061 1.376 . S
C1058 C1056 1.394 . S
C1058 C1059 1.369 . S
C1058 C1062 1.531 . S
C1059 C1058 1.369 . S
C1059 C1060 1.410 . S
C1059 C1067 1.503 . S
C1060 C1059 1.410 . S
C1060 C1061 1.392 . S
C1060 C1063 1.511 . S
C1061 C1057 1.376 . S
C1061 C1060 1.392 . S
C1061 H1073 0.929 . S
C1062 C1058 1.531 . S
C1062 H1074 0.960 . S
C1062 H1075 0.962 . S
C1062 H1076 0.960 . S
C1063 C1060 1.511 . S
C1063 H1077 0.961 . S
C1063 H1078 0.961 . S
C1063 H1079 0.961 . S
C1064 C1065 1.370 . S
C1064 C1066 1.363 . S
C1064 H1080 0.931 . S
C1065 C1064 1.370 . S
C1065 C1069 1.408 . S
C1066 C1064 1.363 . S
C1066 C1067 1.370 . S
C1066 C1070 1.524 . S
C1067 C1059 1.503 . S
C1067 C1066 1.370 . S
C1067 C1068 1.403 . S
C1068 C1067 1.403 . S
C1068 C1069 1.404 . S
C1068 C1071 1.539 . S
C1069 C1065 1.408 . S
C1069 C1068 1.404 . S
C1069 H1081 0.930 . S
C1070 C1066 1.524 . S
C1070 H1082 0.956 . S
C1070 H1083 0.961 . S
C1070 H1084 0.961 . S
C1071 C1068 1.539 . S
C1071 H1085 0.958 . S
C1071 H1086 0.961 . S
C1071 H1087 0.960 . S
H1072 C1056 0.931 . S
H1073 C1061 0.929 . S
H1074 C1062 0.960 . S
H1075 C1062 0.962 . S
H1076 C1062 0.960 . S
H1077 C1063 0.961 . S
H1078 C1063 0.961 . S
H1079 C1063 0.961 . S
H1080 C1064 0.931 . S
H1081 C1069 0.930 . S
H1082 C1070 0.956 . S
H1083 C1070 0.961 . S
H1084 C1070 0.961 . S
H1085 C1071 0.958 . S
H1086 C1071 0.961 . S
H1087 C1071 0.960 . S
C1088 C1089 1.391 . S
C1088 C1090 1.394 . S
C1088 H1104 0.931 . S
C1089 C1088 1.391 . S
C1089 C1093 1.376 . S
C1090 C1088 1.394 . S
C1090 C1091 1.369 . S
C1090 C1094 1.531 . S
C1091 C1090 1.369 . S
C1091 C1092 1.410 . S
C1091 C1099 1.503 . S
C1092 C1091 1.410 . S
C1092 C1093 1.392 . S
C1092 C1095 1.511 . S
C1093 C1089 1.376 . S
C1093 C1092 1.392 . S
C1093 H1105 0.929 . S
C1094 C1090 1.531 . S
C1094 H1106 0.960 . S
C1094 H1107 0.962 . S
C1094 H1108 0.960 . S
C1095 C1092 1.511 . S
C1095 H1109 0.961 . S
C1095 H1110 0.961 . S
C1095 H1111 0.961 . S
C1096 C1097 1.370 . S
C1096 C1098 1.363 . S
C1096 H1112 0.931 . S
C1097 C1096 1.370 . S
C1097 C1101 1.408 . S
C1098 C1096 1.363 . S
C1098 C1099 1.370 . S
C1098 C1102 1.524 . S
C1099 C1091 1.503 . S
C1099 C1098 1.370 . S
C1099 C1100 1.403 . S
C1100 C1099 1.403 . S
C1100 C1101 1.404 . S
C1100 C1103 1.539 . S
C1101 C1097 1.408 . S
C1101 C1100 1.404 . S
C1101 H1113 0.930 . S
C1102 C1098 1.524 . S
C1102 H1114 0.956 . S
C1102 H1115 0.961 . S
C1102 H1116 0.961 . S
C1103 C1100 1.539 . S
C1103 H1117 0.958 . S
C1103 H1118 0.961 . S
C1103 H1119 0.960 . S
H1104 C1088 0.931 . S
H1105 C1093 0.929 . S
H1106 C1094 0.960 . S
H1107 C1094 0.962 . S
H1108 C1094 0.960 . S
H1109 C1095 0.961 . S
H1110 C1095 0.961 . S
H1111 C1095 0.961 . S
H1112 C1096 0.931 . S
H1113 C1101 0.930 . S
H1114 C1102 0.956 . S
H1115 C1102 0.961 . S
H1116 C1102 0.961 . S
H1117 C1103 0.958 . S
H1118 C1103 0.961 . S
H1119 C1103 0.960 . S
C1120 C1121 1.391 . S
C1120 C1122 1.394 . S
C1120 H1136 0.931 . S
C1121 C1120 1.391 . S
C1121 C1125 1.376 . S
C1122 C1120 1.394 . S
C1122 C1123 1.369 . S
C1122 C1126 1.531 . S
C1123 C1122 1.369 . S
C1123 C1124 1.410 . S
C1123 C1131 1.503 . S
C1124 C1123 1.410 . S
C1124 C1125 1.392 . S
C1124 C1127 1.511 . S
C1125 C1121 1.376 . S
C1125 C1124 1.392 . S
C1125 H1137 0.929 . S
C1126 C1122 1.531 . S
C1126 H1138 0.960 . S
C1126 H1139 0.962 . S
C1126 H1140 0.960 . S
C1127 C1124 1.511 . S
C1127 H1141 0.961 . S
C1127 H1142 0.961 . S
C1127 H1143 0.961 . S
C1128 C1129 1.370 . S
C1128 C1130 1.363 . S
C1128 H1144 0.931 . S
C1129 C1128 1.370 . S
C1129 C1133 1.408 . S
C1130 C1128 1.363 . S
C1130 C1131 1.370 . S
C1130 C1134 1.524 . S
C1131 C1123 1.503 . S
C1131 C1130 1.370 . S
C1131 C1132 1.403 . S
C1132 C1131 1.403 . S
C1132 C1133 1.404 . S
C1132 C1135 1.539 . S
C1133 C1129 1.408 . S
C1133 C1132 1.404 . S
C1133 H1145 0.930 . S
C1134 C1130 1.524 . S
C1134 H1146 0.956 . S
C1134 H1147 0.961 . S
C1134 H1148 0.961 . S
C1135 C1132 1.539 . S
C1135 H1149 0.958 . S
C1135 H1150 0.961 . S
C1135 H1151 0.960 . S
H1136 C1120 0.931 . S
H1137 C1125 0.929 . S
H1138 C1126 0.960 . S
H1139 C1126 0.962 . S
H1140 C1126 0.960 . S
H1141 C1127 0.961 . S
H1142 C1127 0.961 . S
H1143 C1127 0.961 . S
H1144 C1128 0.931 . S
H1145 C1133 0.930 . S
H1146 C1134 0.956 . S
H1147 C1134 0.961 . S
H1148 C1134 0.961 . S
H1149 C1135 0.958 . S
H1150 C1135 0.961 . S
H1151 C1135 0.960 . S
C1152 C1153 1.391 . S
C1152 C1154 1.394 . S
C1152 H1168 0.931 . S
C1153 C1152 1.391 . S
C1153 C1157 1.376 . S
C1154 C1152 1.394 . S
C1154 C1155 1.369 . S
C1154 C1158 1.531 . S
C1155 C1154 1.369 . S
C1155 C1156 1.410 . S
C1155 C1163 1.503 . S
C1156 C1155 1.410 . S
C1156 C1157 1.392 . S
C1156 C1159 1.511 . S
C1157 C1153 1.376 . S
C1157 C1156 1.392 . S
C1157 H1169 0.929 . S
C1158 C1154 1.531 . S
C1158 H1170 0.960 . S
C1158 H1171 0.962 . S
C1158 H1172 0.960 . S
C1159 C1156 1.511 . S
C1159 H1173 0.961 . S
C1159 H1174 0.961 . S
C1159 H1175 0.961 . S
C1160 C1161 1.370 . S
C1160 C1162 1.363 . S
C1160 H1176 0.931 . S
C1161 C1160 1.370 . S
C1161 C1165 1.408 . S
C1162 C1160 1.363 . S
C1162 C1163 1.370 . S
C1162 C1166 1.524 . S
C1163 C1155 1.503 . S
C1163 C1162 1.370 . S
C1163 C1164 1.403 . S
C1164 C1163 1.403 . S
C1164 C1165 1.404 . S
C1164 C1167 1.539 . S
C1165 C1161 1.408 . S
C1165 C1164 1.404 . S
C1165 H1177 0.930 . S
C1166 C1162 1.524 . S
C1166 H1178 0.956 . S
C1166 H1179 0.961 . S
C1166 H1180 0.961 . S
C1167 C1164 1.539 . S
C1167 H1181 0.958 . S
C1167 H1182 0.961 . S
C1167 H1183 0.960 . S
H1168 C1152 0.931 . S
H1169 C1157 0.929 . S
H1170 C1158 0.960 . S
H1171 C1158 0.962 . S
H1172 C1158 0.960 . S
H1173 C1159 0.961 . S
H1174 C1159 0.961 . S
H1175 C1159 0.961 . S
H1176 C1160 0.931 . S
H1177 C1165 0.930 . S
H1178 C1166 0.956 . S
H1179 C1166 0.961 . S
H1180 C1166 0.961 . S
H1181 C1167 0.958 . S
H1182 C1167 0.961 . S
H1183 C1167 0.960 . S
C1184 C1185 1.391 . S
C1184 C1186 1.394 . S
C1184 H1200 0.931 . S
C1185 C1184 1.391 . S
C1185 C1189 1.376 . S
C1186 C1184 1.394 . S
C1186 C1187 1.369 . S
C1186 C1190 1.531 . S
C1187 C1186 1.369 . S
C1187 C1188 1.410 . S
C1187 C1195 1.502 . S
C1188 C1187 1.410 . S
C1188 C1189 1.392 . S
C1188 C1191 1.511 . S
C1189 C1185 1.376 . S
C1189 C1188 1.392 . S
C1189 H1201 0.929 . S
C1190 C1186 1.531 . S
C1190 H1202 0.960 . S
C1190 H1203 0.962 . S
C1190 H1204 0.960 . S
C1191 C1188 1.511 . S
C1191 H1205 0.961 . S
C1191 H1206 0.961 . S
C1191 H1207 0.961 . S
C1192 C1193 1.370 . S
C1192 C1194 1.363 . S
C1192 H1208 0.931 . S
C1193 C1192 1.370 . S
C1193 C1197 1.408 . S
C1194 C1192 1.363 . S
C1194 C1195 1.371 1_655 S
C1194 C1198 1.524 1_655 S
C1195 C1187 1.502 . S
C1195 C1194 1.371 1_455 S
C1195 C1196 1.404 1_455 S
C1196 C1195 1.404 1_655 S
C1196 C1197 1.404 . S
C1196 C1199 1.539 . S
C1197 C1193 1.408 . S
C1197 C1196 1.404 . S
C1197 H1209 0.930 . S
C1198 C1194 1.524 1_455 S
C1198 H1210 0.956 . S
C1198 H1211 0.961 . S
C1198 H1212 0.961 1_455 S
C1199 C1196 1.539 . S
C1199 H1213 0.958 . S
C1199 H1214 0.961 . S
C1199 H1215 0.960 1_655 S
H1200 C1184 0.931 . S
H1201 C1189 0.929 . S
H1202 C1190 0.960 . S
H1203 C1190 0.962 . S
H1204 C1190 0.960 . S
H1205 C1191 0.961 . S
H1206 C1191 0.961 . S
H1207 C1191 0.961 . S
H1208 C1192 0.931 . S
H1209 C1197 0.930 . S
H1210 C1198 0.956 . S
H1211 C1198 0.961 . S
H1212 C1198 0.961 1_655 S
H1213 C1199 0.958 . S
H1214 C1199 0.961 . S
H1215 C1199 0.960 1_455 S
C1216 C1217 1.391 . S
C1216 C1218 1.394 . S
C1216 H1232 0.931 . S
C1217 C1216 1.391 . S
C1217 C1221 1.376 . S
C1218 C1216 1.394 . S
C1218 C1219 1.369 . S
C1218 C1222 1.531 . S
C1219 C1218 1.369 . S
C1219 C1220 1.410 . S
C1219 C1227 1.503 . S
C1220 C1219 1.410 . S
C1220 C1221 1.392 . S
C1220 C1223 1.511 . S
C1221 C1217 1.376 . S
C1221 C1220 1.392 . S
C1221 H1233 0.929 . S
C1222 C1218 1.531 . S
C1222 H1234 0.960 . S
C1222 H1235 0.962 . S
C1222 H1236 0.960 . S
C1223 C1220 1.511 . S
C1223 H1237 0.961 . S
C1223 H1238 0.961 . S
C1223 H1239 0.961 . S
C1224 C1225 1.370 . S
C1224 C1226 1.363 . S
C1224 H1240 0.931 . S
C1225 C1224 1.370 . S
C1225 C1229 1.408 . S
C1226 C1224 1.363 . S
C1226 C1227 1.370 . S
C1226 C1230 1.524 . S
C1227 C1219 1.503 . S
C1227 C1226 1.370 . S
C1227 C1228 1.403 . S
C1228 C1227 1.403 . S
C1228 C1229 1.404 . S
C1228 C1231 1.539 . S
C1229 C1225 1.408 . S
C1229 C1228 1.404 . S
C1229 H1241 0.930 . S
C1230 C1226 1.524 . S
C1230 H1242 0.956 . S
C1230 H1243 0.961 . S
C1230 H1244 0.961 . S
C1231 C1228 1.539 . S
C1231 H1245 0.958 . S
C1231 H1246 0.961 . S
C1231 H1247 0.960 . S
H1232 C1216 0.931 . S
H1233 C1221 0.929 . S
H1234 C1222 0.960 . S
H1235 C1222 0.962 . S
H1236 C1222 0.960 . S
H1237 C1223 0.961 . S
H1238 C1223 0.961 . S
H1239 C1223 0.961 . S
H1240 C1224 0.931 . S
H1241 C1229 0.930 . S
H1242 C1230 0.956 . S
H1243 C1230 0.961 . S
H1244 C1230 0.961 . S
H1245 C1231 0.958 . S
H1246 C1231 0.961 . S
H1247 C1231 0.960 . S
C1248 C1249 1.391 . S
C1248 C1250 1.394 . S
C1248 H1264 0.931 . S
C1249 C1248 1.391 . S
C1249 C1253 1.376 . S
C1250 C1248 1.394 . S
C1250 C1251 1.369 . S
C1250 C1254 1.531 . S
C1251 C1250 1.369 . S
C1251 C1252 1.410 . S
C1251 C1259 1.525 . S
C1252 C1251 1.410 . S
C1252 C1253 1.392 . S
C1252 C1255 1.511 . S
C1253 C1249 1.376 . S
C1253 C1252 1.392 . S
C1253 H1265 0.929 . S
C1254 C1250 1.531 . S
C1254 H1266 0.960 . S
C1254 H1267 0.962 . S
C1254 H1268 0.960 . S
C1255 C1252 1.511 . S
C1255 H1269 0.961 . S
C1255 H1270 0.961 . S
C1255 H1271 0.961 . S
C1256 C1257 1.370 . S
C1256 C1258 1.363 . S
C1256 H1272 0.931 . S
C1257 C1256 1.370 . S
C1257 C1261 1.408 . S
C1258 C1256 1.363 . S
C1258 C1259 1.360 1_455 S
C1258 C1262 1.524 1_455 S
C1259 C1251 1.525 . S
C1259 C1258 1.360 1_655 S
C1259 C1260 1.392 1_655 S
C1260 C1259 1.392 1_455 S
C1260 C1261 1.404 . S
C1260 C1263 1.539 1_455 S
C1261 C1257 1.408 . S
C1261 C1260 1.404 . S
C1261 H1273 0.930 . S
C1262 C1258 1.524 1_655 S
C1262 H1274 0.956 . S
C1262 H1275 0.961 . S
C1262 H1276 0.961 1_655 S
C1263 C1260 1.539 1_655 S
C1263 H1277 0.958 . S
C1263 H1278 0.961 1_655 S
C1263 H1279 0.960 . S
H1264 C1248 0.931 . S
H1265 C1253 0.929 . S
H1266 C1254 0.960 . S
H1267 C1254 0.962 . S
H1268 C1254 0.960 . S
H1269 C1255 0.961 . S
H1270 C1255 0.961 . S
H1271 C1255 0.961 . S
H1272 C1256 0.931 . S
H1273 C1261 0.930 . S
H1274 C1262 0.956 . S
H1275 C1262 0.961 . S
H1276 C1262 0.961 1_455 S
H1277 C1263 0.958 . S
H1278 C1263 0.961 1_455 S
H1279 C1263 0.960 . S
C1280 C1281 1.391 . S
C1280 C1282 1.394 . S
C1280 H1296 0.931 . S
C1281 C1280 1.391 . S
C1281 C1285 1.376 . S
C1282 C1280 1.394 . S
C1282 C1283 1.369 . S
C1282 C1286 1.531 . S
C1283 C1282 1.369 . S
C1283 C1284 1.410 . S
C1283 C1291 1.503 . S
C1284 C1283 1.410 . S
C1284 C1285 1.392 . S
C1284 C1287 1.511 . S
C1285 C1281 1.376 . S
C1285 C1284 1.392 . S
C1285 H1297 0.929 . S
C1286 C1282 1.531 . S
C1286 H1298 0.960 . S
C1286 H1299 0.962 . S
C1286 H1300 0.960 . S
C1287 C1284 1.511 . S
C1287 H1301 0.961 . S
C1287 H1302 0.961 . S
C1287 H1303 0.961 . S
C1288 C1289 1.370 . S
C1288 C1290 1.363 . S
C1288 H1304 0.931 . S
C1289 C1288 1.370 . S
C1289 C1293 1.408 . S
C1290 C1288 1.363 . S
C1290 C1291 1.370 . S
C1290 C1294 1.524 . S
C1291 C1283 1.503 . S
C1291 C1290 1.370 . S
C1291 C1292 1.403 . S
C1292 C1291 1.403 . S
C1292 C1293 1.404 . S
C1292 C1295 1.539 . S
C1293 C1289 1.408 . S
C1293 C1292 1.404 . S
C1293 H1305 0.930 . S
C1294 C1290 1.524 . S
C1294 H1306 0.956 . S
C1294 H1307 0.961 . S
C1294 H1308 0.961 . S
C1295 C1292 1.539 . S
C1295 H1309 0.958 . S
C1295 H1310 0.961 . S
C1295 H1311 0.960 . S
H1296 C1280 0.931 . S
H1297 C1285 0.929 . S
H1298 C1286 0.960 . S
H1299 C1286 0.962 . S
H1300 C1286 0.960 . S
H1301 C1287 0.961 . S
H1302 C1287 0.961 . S
H1303 C1287 0.961 . S
H1304 C1288 0.931 . S
H1305 C1293 0.930 . S
H1306 C1294 0.956 . S
H1307 C1294 0.961 . S
H1308 C1294 0.961 . S
H1309 C1295 0.958 . S
H1310 C1295 0.961 . S
H1311 C1295 0.960 . S
C1312 C1313 1.391 . S
C1312 C1314 1.394 . S
C1312 H1328 0.931 . S
C1313 C1312 1.391 . S
C1313 C1317 1.376 . S
C1314 C1312 1.394 . S
C1314 C1315 1.369 . S
C1314 C1318 1.531 . S
C1315 C1314 1.369 . S
C1315 C1316 1.410 . S
C1315 C1323 1.503 . S
C1316 C1315 1.410 . S
C1316 C1317 1.392 . S
C1316 C1319 1.511 . S
C1317 C1313 1.376 . S
C1317 C1316 1.392 . S
C1317 H1329 0.929 . S
C1318 C1314 1.531 . S
C1318 H1330 0.960 . S
C1318 H1331 0.962 . S
C1318 H1332 0.960 . S
C1319 C1316 1.511 . S
C1319 H1333 0.961 . S
C1319 H1334 0.961 . S
C1319 H1335 0.961 . S
C1320 C1321 1.370 . S
C1320 C1322 1.363 . S
C1320 H1336 0.931 . S
C1321 C1320 1.370 . S
C1321 C1325 1.408 . S
C1322 C1320 1.363 . S
C1322 C1323 1.370 . S
C1322 C1326 1.524 . S
C1323 C1315 1.503 . S
C1323 C1322 1.370 . S
C1323 C1324 1.403 . S
C1324 C1323 1.403 . S
C1324 C1325 1.404 . S
C1324 C1327 1.539 . S
C1325 C1321 1.408 . S
C1325 C1324 1.404 . S
C1325 H1337 0.930 . S
C1326 C1322 1.524 . S
C1326 H1338 0.956 . S
C1326 H1339 0.961 . S
C1326 H1340 0.961 . S
C1327 C1324 1.539 . S
C1327 H1341 0.958 . S
C1327 H1342 0.961 . S
C1327 H1343 0.960 . S
H1328 C1312 0.931 . S
H1329 C1317 0.929 . S
H1330 C1318 0.960 . S
H1331 C1318 0.962 . S
H1332 C1318 0.960 . S
H1333 C1319 0.961 . S
H1334 C1319 0.961 . S
H1335 C1319 0.961 . S
H1336 C1320 0.931 . S
H1337 C1325 0.930 . S
H1338 C1326 0.956 . S
H1339 C1326 0.961 . S
H1340 C1326 0.961 . S
H1341 C1327 0.958 . S
H1342 C1327 0.961 . S
H1343 C1327 0.960 . S
C1344 C1345 1.391 . S
C1344 C1346 1.394 . S
C1344 H1360 0.931 . S
C1345 C1344 1.391 . S
C1345 C1349 1.376 . S
C1346 C1344 1.394 . S
C1346 C1347 1.369 . S
C1346 C1350 1.531 . S
C1347 C1346 1.369 . S
C1347 C1348 1.410 . S
C1347 C1355 1.503 . S
C1348 C1347 1.410 . S
C1348 C1349 1.392 . S
C1348 C1351 1.511 . S
C1349 C1345 1.376 . S
C1349 C1348 1.392 . S
C1349 H1361 0.929 . S
C1350 C1346 1.531 . S
C1350 H1362 0.960 . S
C1350 H1363 0.962 . S
C1350 H1364 0.960 . S
C1351 C1348 1.511 . S
C1351 H1365 0.961 . S
C1351 H1366 0.961 . S
C1351 H1367 0.961 . S
C1352 C1353 1.370 . S
C1352 C1354 1.363 . S
C1352 H1368 0.931 . S
C1353 C1352 1.370 . S
C1353 C1357 1.408 . S
C1354 C1352 1.363 . S
C1354 C1355 1.370 . S
C1354 C1358 1.524 . S
C1355 C1347 1.503 . S
C1355 C1354 1.370 . S
C1355 C1356 1.403 . S
C1356 C1355 1.403 . S
C1356 C1357 1.404 . S
C1356 C1359 1.539 . S
C1357 C1353 1.408 . S
C1357 C1356 1.404 . S
C1357 H1369 0.930 . S
C1358 C1354 1.524 . S
C1358 H1370 0.956 . S
C1358 H1371 0.961 . S
C1358 H1372 0.961 . S
C1359 C1356 1.539 . S
C1359 H1373 0.958 . S
C1359 H1374 0.961 . S
C1359 H1375 0.960 . S
H1360 C1344 0.931 . S
H1361 C1349 0.929 . S
H1362 C1350 0.960 . S
H1363 C1350 0.962 . S
H1364 C1350 0.960 . S
H1365 C1351 0.961 . S
H1366 C1351 0.961 . S
H1367 C1351 0.961 . S
H1368 C1352 0.931 . S
H1369 C1357 0.930 . S
H1370 C1358 0.956 . S
H1371 C1358 0.961 . S
H1372 C1358 0.961 . S
H1373 C1359 0.958 . S
H1374 C1359 0.961 . S
H1375 C1359 0.960 . S
C1376 C1377 1.391 . S
C1376 C1378 1.394 . S
C1376 H1392 0.931 . S
C1377 C1376 1.391 . S
C1377 C1381 1.376 . S
C1378 C1376 1.394 . S
C1378 C1379 1.369 . S
C1378 C1382 1.531 . S
C1379 C1378 1.369 . S
C1379 C1380 1.410 . S
C1379 C1387 1.503 . S
C1380 C1379 1.410 . S
C1380 C1381 1.392 . S
C1380 C1383 1.511 . S
C1381 C1377 1.376 . S
C1381 C1380 1.392 . S
C1381 H1393 0.929 . S
C1382 C1378 1.531 . S
C1382 H1394 0.960 . S
C1382 H1395 0.962 . S
C1382 H1396 0.960 . S
C1383 C1380 1.511 . S
C1383 H1397 0.961 . S
C1383 H1398 0.961 . S
C1383 H1399 0.961 . S
C1384 C1385 1.370 . S
C1384 C1386 1.363 . S
C1384 H1400 0.931 . S
C1385 C1384 1.370 . S
C1385 C1389 1.408 . S
C1386 C1384 1.363 . S
C1386 C1387 1.370 . S
C1386 C1390 1.524 . S
C1387 C1379 1.503 . S
C1387 C1386 1.370 . S
C1387 C1388 1.403 . S
C1388 C1387 1.403 . S
C1388 C1389 1.404 . S
C1388 C1391 1.539 . S
C1389 C1385 1.408 . S
C1389 C1388 1.404 . S
C1389 H1401 0.930 . S
C1390 C1386 1.524 . S
C1390 H1402 0.956 . S
C1390 H1403 0.961 . S
C1390 H1404 0.961 . S
C1391 C1388 1.539 . S
C1391 H1405 0.958 . S
C1391 H1406 0.961 . S
C1391 H1407 0.960 . S
H1392 C1376 0.931 . S
H1393 C1381 0.929 . S
H1394 C1382 0.960 . S
H1395 C1382 0.962 . S
H1396 C1382 0.960 . S
H1397 C1383 0.961 . S
H1398 C1383 0.961 . S
H1399 C1383 0.961 . S
H1400 C1384 0.931 . S
H1401 C1389 0.930 . S
H1402 C1390 0.956 . S
H1403 C1390 0.961 . S
H1404 C1390 0.961 . S
H1405 C1391 0.958 . S
H1406 C1391 0.961 . S
H1407 C1391 0.960 . S
C1408 C1409 1.391 . S
C1408 C1410 1.394 . S
C1408 H1424 0.931 . S
C1409 C1408 1.391 . S
C1409 C1413 1.376 . S
C1410 C1408 1.394 . S
C1410 C1411 1.369 . S
C1410 C1414 1.531 . S
C1411 C1410 1.369 . S
C1411 C1412 1.410 . S
C1411 C1419 1.503 . S
C1412 C1411 1.410 . S
C1412 C1413 1.392 . S
C1412 C1415 1.511 . S
C1413 C1409 1.376 . S
C1413 C1412 1.392 . S
C1413 H1425 0.929 . S
C1414 C1410 1.531 . S
C1414 H1426 0.960 . S
C1414 H1427 0.962 . S
C1414 H1428 0.960 . S
C1415 C1412 1.511 . S
C1415 H1429 0.961 . S
C1415 H1430 0.961 . S
C1415 H1431 0.961 . S
C1416 C1417 1.370 . S
C1416 C1418 1.363 . S
C1416 H1432 0.931 . S
C1417 C1416 1.370 . S
C1417 C1421 1.408 . S
C1418 C1416 1.363 . S
C1418 C1419 1.370 . S
C1418 C1422 1.524 . S
C1419 C1411 1.503 . S
C1419 C1418 1.370 . S
C1419 C1420 1.403 . S
C1420 C1419 1.403 . S
C1420 C1421 1.404 . S
C1420 C1423 1.539 . S
C1421 C1417 1.408 . S
C1421 C1420 1.404 . S
C1421 H1433 0.930 . S
C1422 C1418 1.524 . S
C1422 H1434 0.956 . S
C1422 H1435 0.961 . S
C1422 H1436 0.961 . S
C1423 C1420 1.539 . S
C1423 H1437 0.958 . S
C1423 H1438 0.961 . S
C1423 H1439 0.960 . S
H1424 C1408 0.931 . S
H1425 C1413 0.929 . S
H1426 C1414 0.960 . S
H1427 C1414 0.962 . S
H1428 C1414 0.960 . S
H1429 C1415 0.961 . S
H1430 C1415 0.961 . S
H1431 C1415 0.961 . S
H1432 C1416 0.931 . S
H1433 C1421 0.930 . S
H1434 C1422 0.956 . S
H1435 C1422 0.961 . S
H1436 C1422 0.961 . S
H1437 C1423 0.958 . S
H1438 C1423 0.961 . S
H1439 C1423 0.960 . S
C1440 C1441 1.391 . S
C1440 C1442 1.394 . S
C1440 H1456 0.931 . S
C1441 C1440 1.391 . S
C1441 C1445 1.376 . S
C1442 C1440 1.394 . S
C1442 C1443 1.369 . S
C1442 C1446 1.531 . S
C1443 C1442 1.369 . S
C1443 C1444 1.410 . S
C1443 C1451 1.516 . S
C1444 C1443 1.410 . S
C1444 C1445 1.392 . S
C1444 C1447 1.511 . S
C1445 C1441 1.376 . S
C1445 C1444 1.392 . S
C1445 H1457 0.929 . S
C1446 C1442 1.531 . S
C1446 H1458 0.960 . S
C1446 H1459 0.962 . S
C1446 H1460 0.960 . S
C1447 C1444 1.511 . S
C1447 H1461 0.961 . S
C1447 H1462 0.961 . S
C1447 H1463 0.961 . S
C1448 C1449 1.370 . S
C1448 C1450 1.363 . S
C1448 H1464 0.931 . S
C1449 C1448 1.370 . S
C1449 C1453 1.408 . S
C1450 C1448 1.363 . S
C1450 C1451 1.364 1_455 S
C1450 C1454 1.524 1_455 S
C1451 C1443 1.516 . S
C1451 C1450 1.364 1_655 S
C1451 C1452 1.396 1_655 S
C1452 C1451 1.396 1_455 S
C1452 C1453 1.404 . S
C1452 C1455 1.545 . S
C1453 C1449 1.408 . S
C1453 C1452 1.404 . S
C1453 H1465 0.930 . S
C1454 C1450 1.524 1_655 S
C1454 H1466 0.956 . S
C1454 H1467 0.961 . S
C1454 H1468 0.961 1_655 S
C1455 C1452 1.545 . S
C1455 H1469 0.957 1_455 S
C1455 H1470 0.968 . S
C1455 H1471 0.948 1_455 S
H1456 C1440 0.931 . S
H1457 C1445 0.929 . S
H1458 C1446 0.960 . S
H1459 C1446 0.962 . S
H1460 C1446 0.960 . S
H1461 C1447 0.961 . S
H1462 C1447 0.961 . S
H1463 C1447 0.961 . S
H1464 C1448 0.931 . S
H1465 C1453 0.930 . S
H1466 C1454 0.956 . S
H1467 C1454 0.961 . S
H1468 C1454 0.961 1_455 S
H1469 C1455 0.957 1_655 S
H1470 C1455 0.968 . S
H1471 C1455 0.948 1_655 S
C1472 C1473 1.391 . S
C1472 C1474 1.394 . S
C1472 H1488 0.931 . S
C1473 C1472 1.391 . S
C1473 C1477 1.376 . S
C1474 C1472 1.394 . S
C1474 C1475 1.369 . S
C1474 C1478 1.531 . S
C1475 C1474 1.369 . S
C1475 C1476 1.410 . S
C1475 C1483 1.503 . S
C1476 C1475 1.410 . S
C1476 C1477 1.392 . S
C1476 C1479 1.511 . S
C1477 C1473 1.376 . S
C1477 C1476 1.392 . S
C1477 H1489 0.929 . S
C1478 C1474 1.531 . S
C1478 H1490 0.960 . S
C1478 H1491 0.962 . S
C1478 H1492 0.960 . S
C1479 C1476 1.511 . S
C1479 H1493 0.961 . S
C1479 H1494 0.961 . S
C1479 H1495 0.961 . S
C1480 C1481 1.370 . S
C1480 C1482 1.363 . S
C1480 H1496 0.931 . S
C1481 C1480 1.370 . S
C1481 C1485 1.408 . S
C1482 C1480 1.363 . S
C1482 C1483 1.370 . S
C1482 C1486 1.524 . S
C1483 C1475 1.503 . S
C1483 C1482 1.370 . S
C1483 C1484 1.403 . S
C1484 C1483 1.403 . S
C1484 C1485 1.404 . S
C1484 C1487 1.539 . S
C1485 C1481 1.408 . S
C1485 C1484 1.404 . S
C1485 H1497 0.930 . S
C1486 C1482 1.524 . S
C1486 H1498 0.956 . S
C1486 H1499 0.961 . S
C1486 H1500 0.961 . S
C1487 C1484 1.539 . S
C1487 H1501 0.958 . S
C1487 H1502 0.961 . S
C1487 H1503 0.960 . S
H1488 C1472 0.931 . S
H1489 C1477 0.929 . S
H1490 C1478 0.960 . S
H1491 C1478 0.962 . S
H1492 C1478 0.960 . S
H1493 C1479 0.961 . S
H1494 C1479 0.961 . S
H1495 C1479 0.961 . S
H1496 C1480 0.931 . S
H1497 C1485 0.930 . S
H1498 C1486 0.956 . S
H1499 C1486 0.961 . S
H1500 C1486 0.961 . S
H1501 C1487 0.958 . S
H1502 C1487 0.961 . S
H1503 C1487 0.960 . S
C1504 C1505 1.391 . S
C1504 C1506 1.394 . S
C1504 H1520 0.931 . S
C1505 C1504 1.391 . S
C1505 C1509 1.376 . S
C1506 C1504 1.394 . S
C1506 C1507 1.369 . S
C1506 C1510 1.531 . S
C1507 C1506 1.369 . S
C1507 C1508 1.410 . S
C1507 C1515 1.503 . S
C1508 C1507 1.410 . S
C1508 C1509 1.392 . S
C1508 C1511 1.511 . S
C1509 C1505 1.376 . S
C1509 C1508 1.392 . S
C1509 H1521 0.929 . S
C1510 C1506 1.531 . S
C1510 H1522 0.960 . S
C1510 H1523 0.962 . S
C1510 H1524 0.960 . S
C1511 C1508 1.511 . S
C1511 H1525 0.961 . S
C1511 H1526 0.961 . S
C1511 H1527 0.961 . S
C1512 C1513 1.370 . S
C1512 C1514 1.363 . S
C1512 H1528 0.931 . S
C1513 C1512 1.370 . S
C1513 C1517 1.408 . S
C1514 C1512 1.363 . S
C1514 C1515 1.370 . S
C1514 C1518 1.524 . S
C1515 C1507 1.503 . S
C1515 C1514 1.370 . S
C1515 C1516 1.403 . S
C1516 C1515 1.403 . S
C1516 C1517 1.404 . S
C1516 C1519 1.539 . S
C1517 C1513 1.408 . S
C1517 C1516 1.404 . S
C1517 H1529 0.930 . S
C1518 C1514 1.524 . S
C1518 H1530 0.956 . S
C1518 H1531 0.961 . S
C1518 H1532 0.961 . S
C1519 C1516 1.539 . S
C1519 H1533 0.958 . S
C1519 H1534 0.961 . S
C1519 H1535 0.960 . S
H1520 C1504 0.931 . S
H1521 C1509 0.929 . S
H1522 C1510 0.960 . S
H1523 C1510 0.962 . S
H1524 C1510 0.960 . S
H1525 C1511 0.961 . S
H1526 C1511 0.961 . S
H1527 C1511 0.961 . S
H1528 C1512 0.931 . S
H1529 C1517 0.930 . S
H1530 C1518 0.956 . S
H1531 C1518 0.961 . S
H1532 C1518 0.961 . S
H1533 C1519 0.958 . S
H1534 C1519 0.961 . S
H1535 C1519 0.960 . S
C1536 C1537 1.391 . S
C1536 C1538 1.394 . S
C1536 H1552 0.931 . S
C1537 C1536 1.391 . S
C1537 C1541 1.376 . S
C1538 C1536 1.394 . S
C1538 C1539 1.369 . S
C1538 C1542 1.531 . S
C1539 C1538 1.369 . S
C1539 C1540 1.410 . S
C1539 C1547 1.503 . S
C1540 C1539 1.410 . S
C1540 C1541 1.392 . S
C1540 C1543 1.511 . S
C1541 C1537 1.376 . S
C1541 C1540 1.392 . S
C1541 H1553 0.929 . S
C1542 C1538 1.531 . S
C1542 H1554 0.960 . S
C1542 H1555 0.962 . S
C1542 H1556 0.960 . S
C1543 C1540 1.511 . S
C1543 H1557 0.961 . S
C1543 H1558 0.961 . S
C1543 H1559 0.961 . S
C1544 C1545 1.370 . S
C1544 C1546 1.363 . S
C1544 H1560 0.931 . S
C1545 C1544 1.370 . S
C1545 C1549 1.408 . S
C1546 C1544 1.363 . S
C1546 C1547 1.370 . S
C1546 C1550 1.524 . S
C1547 C1539 1.503 . S
C1547 C1546 1.370 . S
C1547 C1548 1.403 . S
C1548 C1547 1.403 . S
C1548 C1549 1.404 . S
C1548 C1551 1.539 . S
C1549 C1545 1.408 . S
C1549 C1548 1.404 . S
C1549 H1561 0.930 . S
C1550 C1546 1.524 . S
C1550 H1562 0.956 . S
C1550 H1563 0.961 . S
C1550 H1564 0.961 . S
C1551 C1548 1.539 . S
C1551 H1565 0.958 . S
C1551 H1566 0.961 . S
C1551 H1567 0.960 . S
H1552 C1536 0.931 . S
H1553 C1541 0.929 . S
H1554 C1542 0.960 . S
H1555 C1542 0.962 . S
H1556 C1542 0.960 . S
H1557 C1543 0.961 . S
H1558 C1543 0.961 . S
H1559 C1543 0.961 . S
H1560 C1544 0.931 . S
H1561 C1549 0.930 . S
H1562 C1550 0.956 . S
H1563 C1550 0.961 . S
H1564 C1550 0.961 . S
H1565 C1551 0.958 . S
H1566 C1551 0.961 . S
H1567 C1551 0.960 . S
C1568 C1569 1.391 . S
C1568 C1570 1.394 . S
C1568 H1584 0.931 . S
C1569 C1568 1.391 . S
C1569 C1573 1.376 . S
C1570 C1568 1.394 . S
C1570 C1571 1.369 . S
C1570 C1574 1.531 . S
C1571 C1570 1.369 . S
C1571 C1572 1.410 . S
C1571 C1579 1.501 . S
C1572 C1571 1.410 . S
C1572 C1573 1.392 . S
C1572 C1575 1.511 . S
C1573 C1569 1.376 . S
C1573 C1572 1.392 . S
C1573 H1585 0.929 . S
C1574 C1570 1.531 . S
C1574 H1586 0.960 . S
C1574 H1587 0.962 . S
C1574 H1588 0.960 . S
C1575 C1572 1.511 . S
C1575 H1589 0.961 . S
C1575 H1590 0.961 . S
C1575 H1591 0.961 . S
C1576 C1577 1.370 . S
C1576 C1578 1.363 . S
C1576 H1592 0.931 . S
C1577 C1576 1.370 . S
C1577 C1581 1.408 . S
C1578 C1576 1.363 . S
C1578 C1579 1.372 1_455 S
C1578 C1582 1.524 1_455 S
C1579 C1571 1.501 . S
C1579 C1578 1.372 1_655 S
C1579 C1580 1.404 1_655 S
C1580 C1579 1.404 1_455 S
C1580 C1581 1.404 . S
C1580 C1583 1.539 . S
C1581 C1577 1.408 . S
C1581 C1580 1.404 . S
C1581 H1593 0.930 . S
C1582 C1578 1.524 1_655 S
C1582 H1594 0.956 . S
C1582 H1595 0.961 . S
C1582 H1596 0.961 1_655 S
C1583 C1580 1.539 . S
C1583 H1597 0.958 . S
C1583 H1598 0.961 . S
C1583 H1599 0.960 1_455 S
H1584 C1568 0.931 . S
H1585 C1573 0.929 . S
H1586 C1574 0.960 . S
H1587 C1574 0.962 . S
H1588 C1574 0.960 . S
H1589 C1575 0.961 . S
H1590 C1575 0.961 . S
H1591 C1575 0.961 . S
H1592 C1576 0.931 . S
H1593 C1581 0.930 . S
H1594 C1582 0.956 . S
H1595 C1582 0.961 . S
H1596 C1582 0.961 1_455 S
H1597 C1583 0.958 . S
H1598 C1583 0.961 . S
H1599 C1583 0.960 1_655 S
C1600 C1601 1.391 . S
C1600 C1602 1.394 . S
C1600 H1616 0.931 . S
C1601 C1600 1.391 . S
C1601 C1605 1.376 . S
C1602 C1600 1.394 . S
C1602 C1603 1.369 . S
C1602 C1606 1.531 . S
C1603 C1602 1.369 . S
C1603 C1604 1.410 . S
C1603 C1611 1.503 . S
C1604 C1603 1.410 . S
C1604 C1605 1.392 . S
C1604 C1607 1.511 . S
C1605 C1601 1.376 . S
C1605 C1604 1.392 . S
C1605 H1617 0.929 . S
C1606 C1602 1.531 . S
C1606 H1618 0.960 . S
C1606 H1619 0.962 . S
C1606 H1620 0.960 . S
C1607 C1604 1.511 . S
C1607 H1621 0.961 . S
C1607 H1622 0.961 . S
C1607 H1623 0.961 . S
C1608 C1609 1.370 . S
C1608 C1610 1.363 . S
C1608 H1624 0.931 . S
C1609 C1608 1.370 . S
C1609 C1613 1.408 . S
C1610 C1608 1.363 . S
C1610 C1611 1.370 . S
C1610 C1614 1.524 . S
C1611 C1603 1.503 . S
C1611 C1610 1.370 . S
C1611 C1612 1.403 . S
C1612 C1611 1.403 . S
C1612 C1613 1.404 . S
C1612 C1615 1.539 . S
C1613 C1609 1.408 . S
C1613 C1612 1.404 . S
C1613 H1625 0.930 . S
C1614 C1610 1.524 . S
C1614 H1626 0.956 . S
C1614 H1627 0.961 . S
C1614 H1628 0.961 . S
C1615 C1612 1.539 . S
C1615 H1629 0.958 . S
C1615 H1630 0.961 . S
C1615 H1631 0.960 . S
H1616 C1600 0.931 . S
H1617 C1605 0.929 . S
H1618 C1606 0.960 . S
H1619 C1606 0.962 . S
H1620 C1606 0.960 . S
H1621 C1607 0.961 . S
H1622 C1607 0.961 . S
H1623 C1607 0.961 . S
H1624 C1608 0.931 . S
H1625 C1613 0.930 . S
H1626 C1614 0.956 . S
H1627 C1614 0.961 . S
H1628 C1614 0.961 . S
H1629 C1615 0.958 . S
H1630 C1615 0.961 . S
H1631 C1615 0.960 . S
C1632 C1633 1.391 . S
C1632 C1634 1.394 . S
C1632 H1648 0.931 . S
C1633 C1632 1.391 . S
C1633 C1637 1.376 . S
C1634 C1632 1.394 . S
C1634 C1635 1.360 1_455 S
C1634 C1638 1.531 1_455 S
C1635 C1634 1.360 1_655 S
C1635 C1636 1.400 1_655 S
C1635 C1643 1.522 . S
C1636 C1635 1.400 1_455 S
C1636 C1637 1.392 . S
C1636 C1639 1.511 . S
C1637 C1633 1.376 . S
C1637 C1636 1.392 . S
C1637 H1649 0.929 . S
C1638 C1634 1.531 1_655 S
C1638 H1650 0.960 . S
C1638 H1651 0.962 . S
C1638 H1652 0.960 1_655 S
C1639 C1636 1.511 . S
C1639 H1653 0.961 . S
C1639 H1654 0.961 1_455 S
C1639 H1655 0.961 1_455 S
C1640 C1641 1.370 . S
C1640 C1642 1.363 . S
C1640 H1656 0.931 . S
C1641 C1640 1.370 . S
C1641 C1645 1.408 . S
C1642 C1640 1.363 . S
C1642 C1643 1.370 . S
C1642 C1646 1.524 . S
C1643 C1635 1.522 . S
C1643 C1642 1.370 . S
C1643 C1644 1.403 . S
C1644 C1643 1.403 . S
C1644 C1645 1.404 . S
C1644 C1647 1.539 . S
C1645 C1641 1.408 . S
C1645 C1644 1.404 . S
C1645 H1657 0.930 . S
C1646 C1642 1.524 . S
C1646 H1658 0.956 . S
C1646 H1659 0.961 . S
C1646 H1660 0.961 . S
C1647 C1644 1.539 . S
C1647 H1661 0.958 . S
C1647 H1662 0.961 . S
C1647 H1663 0.960 . S
H1648 C1632 0.931 . S
H1649 C1637 0.929 . S
H1650 C1638 0.960 . S
H1651 C1638 0.962 . S
H1652 C1638 0.960 1_455 S
H1653 C1639 0.961 . S
H1654 C1639 0.961 1_655 S
H1655 C1639 0.961 1_655 S
H1656 C1640 0.931 . S
H1657 C1645 0.930 . S
H1658 C1646 0.956 . S
H1659 C1646 0.961 . S
H1660 C1646 0.961 . S
H1661 C1647 0.958 . S
H1662 C1647 0.961 . S
H1663 C1647 0.960 . S
C1664 C1665 1.391 . S
C1664 C1666 1.394 . S
C1664 H1680 0.931 . S
C1665 C1664 1.391 . S
C1665 C1669 1.376 . S
C1666 C1664 1.394 . S
C1666 C1667 1.369 . S
C1666 C1670 1.531 . S
C1667 C1666 1.369 . S
C1667 C1668 1.410 . S
C1667 C1675 1.503 . S
C1668 C1667 1.410 . S
C1668 C1669 1.392 . S
C1668 C1671 1.511 . S
C1669 C1665 1.376 . S
C1669 C1668 1.392 . S
C1669 H1681 0.929 . S
C1670 C1666 1.531 . S
C1670 H1682 0.960 . S
C1670 H1683 0.962 . S
C1670 H1684 0.960 . S
C1671 C1668 1.511 . S
C1671 H1685 0.961 . S
C1671 H1686 0.961 . S
C1671 H1687 0.961 . S
C1672 C1673 1.370 . S
C1672 C1674 1.363 . S
C1672 H1688 0.931 . S
C1673 C1672 1.370 . S
C1673 C1677 1.408 . S
C1674 C1672 1.363 . S
C1674 C1675 1.370 . S
C1674 C1678 1.524 . S
C1675 C1667 1.503 . S
C1675 C1674 1.370 . S
C1675 C1676 1.403 . S
C1676 C1675 1.403 . S
C1676 C1677 1.404 . S
C1676 C1679 1.539 . S
C1677 C1673 1.408 . S
C1677 C1676 1.404 . S
C1677 H1689 0.930 . S
C1678 C1674 1.524 . S
C1678 H1690 0.956 . S
C1678 H1691 0.961 . S
C1678 H1692 0.961 . S
C1679 C1676 1.539 . S
C1679 H1693 0.958 . S
C1679 H1694 0.961 . S
C1679 H1695 0.960 . S
H1680 C1664 0.931 . S
H1681 C1669 0.929 . S
H1682 C1670 0.960 . S
H1683 C1670 0.962 . S
H1684 C1670 0.960 . S
H1685 C1671 0.961 . S
H1686 C1671 0.961 . S
H1687 C1671 0.961 . S
H1688 C1672 0.931 . S
H1689 C1677 0.930 . S
H1690 C1678 0.956 . S
H1691 C1678 0.961 . S
H1692 C1678 0.961 . S
H1693 C1679 0.958 . S
H1694 C1679 0.961 . S
H1695 C1679 0.960 . S
C1696 C1697 1.391 . S
C1696 C1698 1.394 . S
C1696 H1712 0.931 . S
C1697 C1696 1.391 . S
C1697 C1701 1.376 . S
C1698 C1696 1.394 . S
C1698 C1699 1.369 . S
C1698 C1702 1.531 . S
C1699 C1698 1.369 . S
C1699 C1700 1.410 . S
C1699 C1707 1.503 . S
C1700 C1699 1.410 . S
C1700 C1701 1.392 . S
C1700 C1703 1.511 . S
C1701 C1697 1.376 . S
C1701 C1700 1.392 . S
C1701 H1713 0.929 . S
C1702 C1698 1.531 . S
C1702 H1714 0.960 . S
C1702 H1715 0.962 . S
C1702 H1716 0.960 . S
C1703 C1700 1.511 . S
C1703 H1717 0.961 . S
C1703 H1718 0.961 . S
C1703 H1719 0.961 . S
C1704 C1705 1.370 . S
C1704 C1706 1.363 . S
C1704 H1720 0.931 . S
C1705 C1704 1.370 . S
C1705 C1709 1.408 . S
C1706 C1704 1.363 . S
C1706 C1707 1.370 . S
C1706 C1710 1.524 . S
C1707 C1699 1.503 . S
C1707 C1706 1.370 . S
C1707 C1708 1.403 . S
C1708 C1707 1.403 . S
C1708 C1709 1.404 . S
C1708 C1711 1.539 . S
C1709 C1705 1.408 . S
C1709 C1708 1.404 . S
C1709 H1721 0.930 . S
C1710 C1706 1.524 . S
C1710 H1722 0.956 . S
C1710 H1723 0.961 . S
C1710 H1724 0.961 . S
C1711 C1708 1.539 . S
C1711 H1725 0.958 . S
C1711 H1726 0.961 . S
C1711 H1727 0.960 . S
H1712 C1696 0.931 . S
H1713 C1701 0.929 . S
H1714 C1702 0.960 . S
H1715 C1702 0.962 . S
H1716 C1702 0.960 . S
H1717 C1703 0.961 . S
H1718 C1703 0.961 . S
H1719 C1703 0.961 . S
H1720 C1704 0.931 . S
H1721 C1709 0.930 . S
H1722 C1710 0.956 . S
H1723 C1710 0.961 . S
H1724 C1710 0.961 . S
H1725 C1711 0.958 . S
H1726 C1711 0.961 . S
H1727 C1711 0.960 . S
C1728 C1729 1.391 . S
C1728 C1730 1.394 . S
C1728 H1744 0.931 . S
C1729 C1728 1.391 . S
C1729 C1733 1.376 . S
C1730 C1728 1.394 . S
C1730 C1731 1.369 . S
C1730 C1734 1.531 . S
C1731 C1730 1.369 . S
C1731 C1732 1.410 . S
C1731 C1739 1.503 . S
C1732 C1731 1.410 . S
C1732 C1733 1.392 . S
C1732 C1735 1.511 . S
C1733 C1729 1.376 . S
C1733 C1732 1.392 . S
C1733 H1745 0.929 . S
C1734 C1730 1.531 . S
C1734 H1746 0.960 . S
C1734 H1747 0.962 . S
C1734 H1748 0.960 . S
C1735 C1732 1.511 . S
C1735 H1749 0.961 . S
C1735 H1750 0.961 . S
C1735 H1751 0.961 . S
C1736 C1737 1.370 . S
C1736 C1738 1.363 . S
C1736 H1752 0.931 . S
C1737 C1736 1.370 . S
C1737 C1741 1.408 . S
C1738 C1736 1.363 . S
C1738 C1739 1.370 . S
C1738 C1742 1.524 . S
C1739 C1731 1.503 . S
C1739 C1738 1.370 . S
C1739 C1740 1.403 . S
C1740 C1739 1.403 . S
C1740 C1741 1.404 . S
C1740 C1743 1.539 . S
C1741 C1737 1.408 . S
C1741 C1740 1.404 . S
C1741 H1753 0.930 . S
C1742 C1738 1.524 . S
C1742 H1754 0.956 . S
C1742 H1755 0.961 . S
C1742 H1756 0.961 . S
C1743 C1740 1.539 . S
C1743 H1757 0.958 . S
C1743 H1758 0.961 . S
C1743 H1759 0.960 . S
H1744 C1728 0.931 . S
H1745 C1733 0.929 . S
H1746 C1734 0.960 . S
H1747 C1734 0.962 . S
H1748 C1734 0.960 . S
H1749 C1735 0.961 . S
H1750 C1735 0.961 . S
H1751 C1735 0.961 . S
H1752 C1736 0.931 . S
H1753 C1741 0.930 . S
H1754 C1742 0.956 . S
H1755 C1742 0.961 . S
H1756 C1742 0.961 . S
H1757 C1743 0.958 . S
H1758 C1743 0.961 . S
H1759 C1743 0.960 . S
C1760 C1761 1.391 . S
C1760 C1762 1.394 . S
C1760 H1776 0.931 . S
C1761 C1760 1.391 . S
C1761 C1765 1.376 . S
C1762 C1760 1.394 . S
C1762 C1763 1.369 . S
C1762 C1766 1.531 . S
C1763 C1762 1.369 . S
C1763 C1764 1.410 . S
C1763 C1771 1.503 . S
C1764 C1763 1.410 . S
C1764 C1765 1.392 . S
C1764 C1767 1.511 . S
C1765 C1761 1.376 . S
C1765 C1764 1.392 . S
C1765 H1777 0.929 . S
C1766 C1762 1.531 . S
C1766 H1778 0.960 . S
C1766 H1779 0.962 . S
C1766 H1780 0.960 . S
C1767 C1764 1.511 . S
C1767 H1781 0.961 . S
C1767 H1782 0.961 . S
C1767 H1783 0.961 . S
C1768 C1769 1.370 . S
C1768 C1770 1.363 . S
C1768 H1784 0.931 . S
C1769 C1768 1.370 . S
C1769 C1773 1.408 . S
C1770 C1768 1.363 . S
C1770 C1771 1.370 . S
C1770 C1774 1.524 . S
C1771 C1763 1.503 . S
C1771 C1770 1.370 . S
C1771 C1772 1.403 . S
C1772 C1771 1.403 . S
C1772 C1773 1.404 . S
C1772 C1775 1.539 . S
C1773 C1769 1.408 . S
C1773 C1772 1.404 . S
C1773 H1785 0.930 . S
C1774 C1770 1.524 . S
C1774 H1786 0.956 . S
C1774 H1787 0.961 . S
C1774 H1788 0.961 . S
C1775 C1772 1.539 . S
C1775 H1789 0.958 . S
C1775 H1790 0.961 . S
C1775 H1791 0.960 . S
H1776 C1760 0.931 . S
H1777 C1765 0.929 . S
H1778 C1766 0.960 . S
H1779 C1766 0.962 . S
H1780 C1766 0.960 . S
H1781 C1767 0.961 . S
H1782 C1767 0.961 . S
H1783 C1767 0.961 . S
H1784 C1768 0.931 . S
H1785 C1773 0.930 . S
H1786 C1774 0.956 . S
H1787 C1774 0.961 . S
H1788 C1774 0.961 . S
H1789 C1775 0.958 . S
H1790 C1775 0.961 . S
H1791 C1775 0.960 . S
C1792 C1793 1.391 . S
C1792 C1794 1.394 . S
C1792 H1808 0.931 . S
C1793 C1792 1.391 . S
C1793 C1797 1.376 . S
C1794 C1792 1.394 . S
C1794 C1795 1.369 . S
C1794 C1798 1.531 . S
C1795 C1794 1.369 . S
C1795 C1796 1.410 . S
C1795 C1803 1.503 . S
C1796 C1795 1.410 . S
C1796 C1797 1.392 . S
C1796 C1799 1.511 . S
C1797 C1793 1.376 . S
C1797 C1796 1.392 . S
C1797 H1809 0.929 . S
C1798 C1794 1.531 . S
C1798 H1810 0.960 . S
C1798 H1811 0.962 . S
C1798 H1812 0.960 . S
C1799 C1796 1.511 . S
C1799 H1813 0.961 . S
C1799 H1814 0.961 . S
C1799 H1815 0.961 . S
C1800 C1801 1.370 . S
C1800 C1802 1.363 . S
C1800 H1816 0.931 . S
C1801 C1800 1.370 . S
C1801 C1805 1.408 . S
C1802 C1800 1.363 . S
C1802 C1803 1.370 . S
C1802 C1806 1.524 . S
C1803 C1795 1.503 . S
C1803 C1802 1.370 . S
C1803 C1804 1.403 . S
C1804 C1803 1.403 . S
C1804 C1805 1.404 . S
C1804 C1807 1.539 . S
C1805 C1801 1.408 . S
C1805 C1804 1.404 . S
C1805 H1817 0.930 . S
C1806 C1802 1.524 . S
C1806 H1818 0.956 . S
C1806 H1819 0.961 . S
C1806 H1820 0.961 . S
C1807 C1804 1.539 . S
C1807 H1821 0.958 . S
C1807 H1822 0.961 . S
C1807 H1823 0.960 . S
H1808 C1792 0.931 . S
H1809 C1797 0.929 . S
H1810 C1798 0.960 . S
H1811 C1798 0.962 . S
H1812 C1798 0.960 . S
H1813 C1799 0.961 . S
H1814 C1799 0.961 . S
H1815 C1799 0.961 . S
H1816 C1800 0.931 . S
H1817 C1805 0.930 . S
H1818 C1806 0.956 . S
H1819 C1806 0.961 . S
H1820 C1806 0.961 . S
H1821 C1807 0.958 . S
H1822 C1807 0.961 . S
H1823 C1807 0.960 . S
C1824 C1825 1.391 . S
C1824 C1826 1.394 . S
C1824 H1840 0.931 . S
C1825 C1824 1.391 . S
C1825 C1829 1.376 . S
C1826 C1824 1.394 . S
C1826 C1827 1.369 . S
C1826 C1830 1.531 . S
C1827 C1826 1.369 . S
C1827 C1828 1.410 . S
C1827 C1835 1.508 1_455 S
C1828 C1827 1.410 . S
C1828 C1829 1.392 . S
C1828 C1831 1.511 . S
C1829 C1825 1.376 . S
C1829 C1828 1.392 . S
C1829 H1841 0.929 . S
C1830 C1826 1.531 . S
C1830 H1842 0.960 . S
C1830 H1843 0.962 . S
C1830 H1844 0.960 . S
C1831 C1828 1.511 . S
C1831 H1845 0.961 . S
C1831 H1846 0.961 . S
C1831 H1847 0.961 . S
C1832 C1833 1.370 . S
C1832 C1834 1.363 . S
C1832 H1848 0.931 . S
C1833 C1832 1.370 . S
C1833 C1837 1.408 . S
C1834 C1832 1.363 . S
C1834 C1835 1.369 . S
C1834 C1838 1.524 1_655 S
C1835 C1827 1.508 1_655 S
C1835 C1834 1.369 . S
C1835 C1836 1.400 . S
C1836 C1835 1.400 . S
C1836 C1837 1.404 . S
C1836 C1839 1.539 . S
C1837 C1833 1.408 . S
C1837 C1836 1.404 . S
C1837 H1849 0.930 . S
C1838 C1834 1.524 1_455 S
C1838 H1850 0.956 . S
C1838 H1851 0.961 . S
C1838 H1852 0.961 1_455 S
C1839 C1836 1.539 . S
C1839 H1853 0.958 . S
C1839 H1854 0.961 . S
C1839 H1855 0.960 1_655 S
H1840 C1824 0.931 . S
H1841 C1829 0.929 . S
H1842 C1830 0.960 . S
H1843 C1830 0.962 . S
H1844 C1830 0.960 . S
H1845 C1831 0.961 . S
H1846 C1831 0.961 . S
H1847 C1831 0.961 . S
H1848 C1832 0.931 . S
H1849 C1837 0.930 . S
H1850 C1838 0.956 . S
H1851 C1838 0.961 . S
H1852 C1838 0.961 1_655 S
H1853 C1839 0.958 . S
H1854 C1839 0.961 . S
H1855 C1839 0.960 1_455 S
C1856 C1857 1.391 . S
C1856 C1858 1.394 . S
C1856 H1872 0.931 . S
C1857 C1856 1.391 . S
C1857 C1861 1.376 . S
C1858 C1856 1.394 . S
C1858 C1859 1.369 . S
C1858 C1862 1.531 . S
C1859 C1858 1.369 . S
C1859 C1860 1.410 . S
C1859 C1867 1.503 . S
C1860 C1859 1.410 . S
C1860 C1861 1.392 . S
C1860 C1863 1.511 . S
C1861 C1857 1.376 . S
C1861 C1860 1.392 . S
C1861 H1873 0.929 . S
C1862 C1858 1.531 . S
C1862 H1874 0.960 . S
C1862 H1875 0.962 . S
C1862 H1876 0.960 . S
C1863 C1860 1.511 . S
C1863 H1877 0.961 . S
C1863 H1878 0.961 . S
C1863 H1879 0.961 . S
C1864 C1865 1.370 . S
C1864 C1866 1.363 . S
C1864 H1880 0.931 . S
C1865 C1864 1.370 . S
C1865 C1869 1.408 . S
C1866 C1864 1.363 . S
C1866 C1867 1.370 . S
C1866 C1870 1.524 . S
C1867 C1859 1.503 . S
C1867 C1866 1.370 . S
C1867 C1868 1.403 . S
C1868 C1867 1.403 . S
C1868 C1869 1.404 . S
C1868 C1871 1.539 . S
C1869 C1865 1.408 . S
C1869 C1868 1.404 . S
C1869 H1881 0.930 . S
C1870 C1866 1.524 . S
C1870 H1882 0.956 . S
C1870 H1883 0.961 . S
C1870 H1884 0.961 . S
C1871 C1868 1.539 . S
C1871 H1885 0.958 . S
C1871 H1886 0.961 . S
C1871 H1887 0.960 . S
H1872 C1856 0.931 . S
H1873 C1861 0.929 . S
H1874 C1862 0.960 . S
H1875 C1862 0.962 . S
H1876 C1862 0.960 . S
H1877 C1863 0.961 . S
H1878 C1863 0.961 . S
H1879 C1863 0.961 . S
H1880 C1864 0.931 . S
H1881 C1869 0.930 . S
H1882 C1870 0.956 . S
H1883 C1870 0.961 . S
H1884 C1870 0.961 . S
H1885 C1871 0.958 . S
H1886 C1871 0.961 . S
H1887 C1871 0.960 . S
C1888 C1889 1.391 . S
C1888 C1890 1.394 . S
C1888 H1904 0.931 . S
C1889 C1888 1.391 . S
C1889 C1893 1.376 . S
C1890 C1888 1.394 . S
C1890 C1891 1.366 1_655 S
C1890 C1894 1.531 . S
C1891 C1890 1.366 1_455 S
C1891 C1892 1.408 1_455 S
C1891 C1899 1.507 . S
C1892 C1891 1.408 1_655 S
C1892 C1893 1.392 . S
C1892 C1895 1.511 1_655 S
C1893 C1889 1.376 . S
C1893 C1892 1.392 . S
C1893 H1905 0.929 . S
C1894 C1890 1.531 . S
C1894 H1906 0.960 1_655 S
C1894 H1907 0.962 1_655 S
C1894 H1908 0.960 . S
C1895 C1892 1.511 1_455 S
C1895 H1909 0.961 1_455 S
C1895 H1910 0.961 . S
C1895 H1911 0.961 . S
C1896 C1897 1.370 . S
C1896 C1898 1.363 . S
C1896 H1912 0.931 . S
C1897 C1896 1.370 . S
C1897 C1901 1.408 . S
C1898 C1896 1.363 . S
C1898 C1899 1.370 . S
C1898 C1902 1.524 . S
C1899 C1891 1.507 . S
C1899 C1898 1.370 . S
C1899 C1900 1.403 . S
C1900 C1899 1.403 . S
C1900 C1901 1.404 . S
C1900 C1903 1.539 . S
C1901 C1897 1.408 . S
C1901 C1900 1.404 . S
C1901 H1913 0.930 . S
C1902 C1898 1.524 . S
C1902 H1914 0.956 . S
C1902 H1915 0.961 . S
C1902 H1916 0.961 . S
C1903 C1900 1.539 . S
C1903 H1917 0.958 . S
C1903 H1918 0.961 . S
C1903 H1919 0.960 . S
H1904 C1888 0.931 . S
H1905 C1893 0.929 . S
H1906 C1894 0.960 1_455 S
H1907 C1894 0.962 1_455 S
H1908 C1894 0.960 . S
H1909 C1895 0.961 1_655 S
H1910 C1895 0.961 . S
H1911 C1895 0.961 . S
H1912 C1896 0.931 . S
H1913 C1901 0.930 . S
H1914 C1902 0.956 . S
H1915 C1902 0.961 . S
H1916 C1902 0.961 . S
H1917 C1903 0.958 . S
H1918 C1903 0.961 . S
H1919 C1903 0.960 . S
C1920 C1921 1.391 . S
C1920 C1922 1.394 . S
C1920 H1936 0.931 . S
C1921 C1920 1.391 . S
C1921 C1925 1.376 . S
C1922 C1920 1.394 . S
C1922 C1923 1.369 . S
C1922 C1926 1.531 . S
C1923 C1922 1.369 . S
C1923 C1924 1.410 . S
C1923 C1931 1.503 . S
C1924 C1923 1.410 . S
C1924 C1925 1.392 . S
C1924 C1927 1.511 . S
C1925 C1921 1.376 . S
C1925 C1924 1.392 . S
C1925 H1937 0.929 . S
C1926 C1922 1.531 . S
C1926 H1938 0.960 . S
C1926 H1939 0.962 . S
C1926 H1940 0.960 . S
C1927 C1924 1.511 . S
C1927 H1941 0.961 . S
C1927 H1942 0.961 . S
C1927 H1943 0.961 . S
C1928 C1929 1.370 . S
C1928 C1930 1.363 . S
C1928 H1944 0.931 . S
C1929 C1928 1.370 . S
C1929 C1933 1.408 . S
C1930 C1928 1.363 . S
C1930 C1931 1.370 . S
C1930 C1934 1.524 . S
C1931 C1923 1.503 . S
C1931 C1930 1.370 . S
C1931 C1932 1.403 . S
C1932 C1931 1.403 . S
C1932 C1933 1.404 . S
C1932 C1935 1.539 . S
C1933 C1929 1.408 . S
C1933 C1932 1.404 . S
C1933 H1945 0.930 . S
C1934 C1930 1.524 . S
C1934 H1946 0.956 . S
C1934 H1947 0.961 . S
C1934 H1948 0.961 . S
C1935 C1932 1.539 . S
C1935 H1949 0.958 . S
C1935 H1950 0.961 . S
C1935 H1951 0.960 . S
H1936 C1920 0.931 . S
H1937 C1925 0.929 . S
H1938 C1926 0.960 . S
H1939 C1926 0.962 . S
H1940 C1926 0.960 . S
H1941 C1927 0.961 . S
H1942 C1927 0.961 . S
H1943 C1927 0.961 . S
H1944 C1928 0.931 . S
H1945 C1933 0.930 . S
H1946 C1934 0.956 . S
H1947 C1934 0.961 . S
H1948 C1934 0.961 . S
H1949 C1935 0.958 . S
H1950 C1935 0.961 . S
H1951 C1935 0.960 . S
C1952 C1953 1.391 . S
C1952 C1954 1.394 . S
C1952 H1968 0.931 . S
C1953 C1952 1.391 . S
C1953 C1957 1.376 . S
C1954 C1952 1.394 . S
C1954 C1955 1.369 . S
C1954 C1958 1.531 . S
C1955 C1954 1.369 . S
C1955 C1956 1.410 . S
C1955 C1963 1.503 . S
C1956 C1955 1.410 . S
C1956 C1957 1.392 . S
C1956 C1959 1.511 . S
C1957 C1953 1.376 . S
C1957 C1956 1.392 . S
C1957 H1969 0.929 . S
C1958 C1954 1.531 . S
C1958 H1970 0.960 . S
C1958 H1971 0.962 . S
C1958 H1972 0.960 . S
C1959 C1956 1.511 . S
C1959 H1973 0.961 . S
C1959 H1974 0.961 . S
C1959 H1975 0.961 . S
C1960 C1961 1.370 . S
C1960 C1962 1.363 . S
C1960 H1976 0.931 . S
C1961 C1960 1.370 . S
C1961 C1965 1.408 . S
C1962 C1960 1.363 . S
C1962 C1963 1.370 . S
C1962 C1966 1.524 . S
C1963 C1955 1.503 . S
C1963 C1962 1.370 . S
C1963 C1964 1.403 . S
C1964 C1963 1.403 . S
C1964 C1965 1.404 . S
C1964 C1967 1.539 . S
C1965 C1961 1.408 . S
C1965 C1964 1.404 . S
C1965 H1977 0.930 . S
C1966 C1962 1.524 . S
C1966 H1978 0.956 . S
C1966 H1979 0.961 . S
C1966 H1980 0.961 . S
C1967 C1964 1.539 . S
C1967 H1981 0.958 . S
C1967 H1982 0.961 . S
C1967 H1983 0.960 . S
H1968 C1952 0.931 . S
H1969 C1957 0.929 . S
H1970 C1958 0.960 . S
H1971 C1958 0.962 . S
H1972 C1958 0.960 . S
H1973 C1959 0.961 . S
H1974 C1959 0.961 . S
H1975 C1959 0.961 . S
H1976 C1960 0.931 . S
H1977 C1965 0.930 . S
H1978 C1966 0.956 . S
H1979 C1966 0.961 . S
H1980 C1966 0.961 . S
H1981 C1967 0.958 . S
H1982 C1967 0.961 . S
H1983 C1967 0.960 . S
C1984 C1985 1.391 . S
C1984 C1986 1.394 . S
C1984 H2000 0.931 . S
C1985 C1984 1.391 . S
C1985 C1989 1.376 . S
C1986 C1984 1.394 . S
C1986 C1987 1.369 . S
C1986 C1990 1.531 . S
C1987 C1986 1.369 . S
C1987 C1988 1.410 . S
C1987 C1995 1.503 . S
C1988 C1987 1.410 . S
C1988 C1989 1.392 . S
C1988 C1991 1.511 . S
C1989 C1985 1.376 . S
C1989 C1988 1.392 . S
C1989 H2001 0.929 . S
C1990 C1986 1.531 . S
C1990 H2002 0.960 . S
C1990 H2003 0.962 . S
C1990 H2004 0.960 . S
C1991 C1988 1.511 . S
C1991 H2005 0.961 . S
C1991 H2006 0.961 . S
C1991 H2007 0.961 . S
C1992 C1993 1.370 . S
C1992 C1994 1.363 . S
C1992 H2008 0.931 . S
C1993 C1992 1.370 . S
C1993 C1997 1.408 . S
C1994 C1992 1.363 . S
C1994 C1995 1.370 . S
C1994 C1998 1.524 . S
C1995 C1987 1.503 . S
C1995 C1994 1.370 . S
C1995 C1996 1.403 . S
C1996 C1995 1.403 . S
C1996 C1997 1.404 . S
C1996 C1999 1.539 . S
C1997 C1993 1.408 . S
C1997 C1996 1.404 . S
C1997 H2009 0.930 . S
C1998 C1994 1.524 . S
C1998 H2010 0.956 . S
C1998 H2011 0.961 . S
C1998 H2012 0.961 . S
C1999 C1996 1.539 . S
C1999 H2013 0.958 . S
C1999 H2014 0.961 . S
C1999 H2015 0.960 . S
H2000 C1984 0.931 . S
H2001 C1989 0.929 . S
H2002 C1990 0.960 . S
H2003 C1990 0.962 . S
H2004 C1990 0.960 . S
H2005 C1991 0.961 . S
H2006 C1991 0.961 . S
H2007 C1991 0.961 . S
H2008 C1992 0.931 . S
H2009 C1997 0.930 . S
H2010 C1998 0.956 . S
H2011 C1998 0.961 . S
H2012 C1998 0.961 . S
H2013 C1999 0.958 . S
H2014 C1999 0.961 . S
H2015 C1999 0.960 . S
C2016 C2017 1.391 . S
C2016 C2018 1.394 . S
C2016 H2032 0.931 . S
C2017 C2016 1.391 . S
C2017 C2021 1.376 . S
C2018 C2016 1.394 . S
C2018 C2019 1.369 . S
C2018 C2022 1.531 . S
C2019 C2018 1.369 . S
C2019 C2020 1.410 . S
C2019 C2027 1.503 . S
C2020 C2019 1.410 . S
C2020 C2021 1.392 . S
C2020 C2023 1.511 . S
C2021 C2017 1.376 . S
C2021 C2020 1.392 . S
C2021 H2033 0.929 . S
C2022 C2018 1.531 . S
C2022 H2034 0.960 . S
C2022 H2035 0.962 . S
C2022 H2036 0.960 . S
C2023 C2020 1.511 . S
C2023 H2037 0.961 . S
C2023 H2038 0.961 . S
C2023 H2039 0.961 . S
C2024 C2025 1.370 . S
C2024 C2026 1.363 . S
C2024 H2040 0.931 . S
C2025 C2024 1.370 . S
C2025 C2029 1.408 . S
C2026 C2024 1.363 . S
C2026 C2027 1.370 . S
C2026 C2030 1.524 . S
C2027 C2019 1.503 . S
C2027 C2026 1.370 . S
C2027 C2028 1.403 . S
C2028 C2027 1.403 . S
C2028 C2029 1.404 . S
C2028 C2031 1.539 . S
C2029 C2025 1.408 . S
C2029 C2028 1.404 . S
C2029 H2041 0.930 . S
C2030 C2026 1.524 . S
C2030 H2042 0.956 . S
C2030 H2043 0.961 . S
C2030 H2044 0.961 . S
C2031 C2028 1.539 . S
C2031 H2045 0.958 . S
C2031 H2046 0.961 . S
C2031 H2047 0.960 . S
H2032 C2016 0.931 . S
H2033 C2021 0.929 . S
H2034 C2022 0.960 . S
H2035 C2022 0.962 . S
H2036 C2022 0.960 . S
H2037 C2023 0.961 . S
H2038 C2023 0.961 . S
H2039 C2023 0.961 . S
H2040 C2024 0.931 . S
H2041 C2029 0.930 . S
H2042 C2030 0.956 . S
H2043 C2030 0.961 . S
H2044 C2030 0.961 . S
H2045 C2031 0.958 . S
H2046 C2031 0.961 . S
H2047 C2031 0.960 . S
C2048 C2049 1.391 . S
C2048 C2050 1.394 . S
C2048 H2064 0.931 . S
C2049 C2048 1.391 . S
C2049 C2053 1.376 . S
C2050 C2048 1.394 . S
C2050 C2051 1.369 . S
C2050 C2054 1.531 . S
C2051 C2050 1.369 . S
C2051 C2052 1.410 . S
C2051 C2059 1.503 . S
C2052 C2051 1.410 . S
C2052 C2053 1.392 . S
C2052 C2055 1.511 . S
C2053 C2049 1.376 . S
C2053 C2052 1.392 . S
C2053 H2065 0.929 . S
C2054 C2050 1.531 . S
C2054 H2066 0.960 . S
C2054 H2067 0.962 . S
C2054 H2068 0.960 . S
C2055 C2052 1.511 . S
C2055 H2069 0.961 . S
C2055 H2070 0.961 . S
C2055 H2071 0.961 . S
C2056 C2057 1.370 . S
C2056 C2058 1.363 . S
C2056 H2072 0.931 . S
C2057 C2056 1.370 . S
C2057 C2061 1.408 . S
C2058 C2056 1.363 . S
C2058 C2059 1.370 . S
C2058 C2062 1.524 . S
C2059 C2051 1.503 . S
C2059 C2058 1.370 . S
C2059 C2060 1.403 . S
C2060 C2059 1.403 . S
C2060 C2061 1.404 . S
C2060 C2063 1.539 . S
C2061 C2057 1.408 . S
C2061 C2060 1.404 . S
C2061 H2073 0.930 . S
C2062 C2058 1.524 . S
C2062 H2074 0.956 . S
C2062 H2075 0.961 . S
C2062 H2076 0.961 . S
C2063 C2060 1.539 . S
C2063 H2077 0.958 . S
C2063 H2078 0.961 . S
C2063 H2079 0.960 . S
H2064 C2048 0.931 . S
H2065 C2053 0.929 . S
H2066 C2054 0.960 . S
H2067 C2054 0.962 . S
H2068 C2054 0.960 . S
H2069 C2055 0.961 . S
H2070 C2055 0.961 . S
H2071 C2055 0.961 . S
H2072 C2056 0.931 . S
H2073 C2061 0.930 . S
H2074 C2062 0.956 . S
H2075 C2062 0.961 . S
H2076 C2062 0.961 . S
H2077 C2063 0.958 . S
H2078 C2063 0.961 . S
H2079 C2063 0.960 . S
C2080 C2081 1.391 . S
C2080 C2082 1.394 . S
C2080 H2096 0.931 . S
C2081 C2080 1.391 . S
C2081 C2085 1.376 . S
C2082 C2080 1.394 . S
C2082 C2083 1.369 . S
C2082 C2086 1.531 . S
C2083 C2082 1.369 . S
C2083 C2084 1.410 . S
C2083 C2091 1.503 . S
C2084 C2083 1.410 . S
C2084 C2085 1.392 . S
C2084 C2087 1.511 . S
C2085 C2081 1.376 . S
C2085 C2084 1.392 . S
C2085 H2097 0.929 . S
C2086 C2082 1.531 . S
C2086 H2098 0.960 . S
C2086 H2099 0.962 . S
C2086 H2100 0.960 . S
C2087 C2084 1.511 . S
C2087 H2101 0.961 . S
C2087 H2102 0.961 . S
C2087 H2103 0.961 . S
C2088 C2089 1.370 . S
C2088 C2090 1.363 . S
C2088 H2104 0.931 . S
C2089 C2088 1.370 . S
C2089 C2093 1.408 . S
C2090 C2088 1.363 . S
C2090 C2091 1.370 . S
C2090 C2094 1.524 . S
C2091 C2083 1.503 . S
C2091 C2090 1.370 . S
C2091 C2092 1.403 . S
C2092 C2091 1.403 . S
C2092 C2093 1.404 . S
C2092 C2095 1.539 . S
C2093 C2089 1.408 . S
C2093 C2092 1.404 . S
C2093 H2105 0.930 . S
C2094 C2090 1.524 . S
C2094 H2106 0.956 . S
C2094 H2107 0.961 . S
C2094 H2108 0.961 . S
C2095 C2092 1.539 . S
C2095 H2109 0.958 . S
C2095 H2110 0.961 . S
C2095 H2111 0.960 . S
H2096 C2080 0.931 . S
H2097 C2085 0.929 . S
H2098 C2086 0.960 . S
H2099 C2086 0.962 . S
H2100 C2086 0.960 . S
H2101 C2087 0.961 . S
H2102 C2087 0.961 . S
H2103 C2087 0.961 . S
H2104 C2088 0.931 . S
H2105 C2093 0.930 . S
H2106 C2094 0.956 . S
H2107 C2094 0.961 . S
H2108 C2094 0.961 . S
H2109 C2095 0.958 . S
H2110 C2095 0.961 . S
H2111 C2095 0.960 . S
C2112 C2113 1.391 . S
C2112 C2114 1.394 . S
C2112 H2128 0.931 . S
C2113 C2112 1.391 . S
C2113 C2117 1.376 . S
C2114 C2112 1.394 . S
C2114 C2115 1.369 . S
C2114 C2118 1.531 . S
C2115 C2114 1.369 . S
C2115 C2116 1.410 . S
C2115 C2123 1.503 . S
C2116 C2115 1.410 . S
C2116 C2117 1.392 . S
C2116 C2119 1.511 . S
C2117 C2113 1.376 . S
C2117 C2116 1.392 . S
C2117 H2129 0.929 . S
C2118 C2114 1.531 . S
C2118 H2130 0.960 . S
C2118 H2131 0.962 . S
C2118 H2132 0.960 . S
C2119 C2116 1.511 . S
C2119 H2133 0.961 . S
C2119 H2134 0.961 . S
C2119 H2135 0.961 . S
C2120 C2121 1.370 . S
C2120 C2122 1.363 . S
C2120 H2136 0.931 . S
C2121 C2120 1.370 . S
C2121 C2125 1.408 . S
C2122 C2120 1.363 . S
C2122 C2123 1.370 . S
C2122 C2126 1.524 . S
C2123 C2115 1.503 . S
C2123 C2122 1.370 . S
C2123 C2124 1.403 . S
C2124 C2123 1.403 . S
C2124 C2125 1.404 . S
C2124 C2127 1.539 . S
C2125 C2121 1.408 . S
C2125 C2124 1.404 . S
C2125 H2137 0.930 . S
C2126 C2122 1.524 . S
C2126 H2138 0.956 . S
C2126 H2139 0.961 . S
C2126 H2140 0.961 . S
C2127 C2124 1.539 . S
C2127 H2141 0.958 . S
C2127 H2142 0.961 . S
C2127 H2143 0.960 . S
H2128 C2112 0.931 . S
H2129 C2117 0.929 . S
H2130 C2118 0.960 . S
H2131 C2118 0.962 . S
H2132 C2118 0.960 . S
H2133 C2119 0.961 . S
H2134 C2119 0.961 . S
H2135 C2119 0.961 . S
H2136 C2120 0.931 . S
H2137 C2125 0.930 . S
H2138 C2126 0.956 . S
H2139 C2126 0.961 . S
H2140 C2126 0.961 . S
H2141 C2127 0.958 . S
H2142 C2127 0.961 . S
H2143 C2127 0.960 . S
C2144 C2145 1.391 . S
C2144 C2146 1.394 . S
C2144 H2160 0.931 . S
C2145 C2144 1.391 . S
C2145 C2149 1.376 . S
C2146 C2144 1.394 . S
C2146 C2147 1.369 . S
C2146 C2150 1.531 . S
C2147 C2146 1.369 . S
C2147 C2148 1.410 . S
C2147 C2155 1.503 . S
C2148 C2147 1.410 . S
C2148 C2149 1.392 . S
C2148 C2151 1.511 . S
C2149 C2145 1.376 . S
C2149 C2148 1.392 . S
C2149 H2161 0.929 . S
C2150 C2146 1.531 . S
C2150 H2162 0.960 . S
C2150 H2163 0.962 . S
C2150 H2164 0.960 . S
C2151 C2148 1.511 . S
C2151 H2165 0.961 . S
C2151 H2166 0.961 . S
C2151 H2167 0.961 . S
C2152 C2153 1.370 . S
C2152 C2154 1.363 . S
C2152 H2168 0.931 . S
C2153 C2152 1.370 . S
C2153 C2157 1.408 . S
C2154 C2152 1.363 . S
C2154 C2155 1.370 . S
C2154 C2158 1.524 . S
C2155 C2147 1.503 . S
C2155 C2154 1.370 . S
C2155 C2156 1.403 . S
C2156 C2155 1.403 . S
C2156 C2157 1.404 . S
C2156 C2159 1.539 . S
C2157 C2153 1.408 . S
C2157 C2156 1.404 . S
C2157 H2169 0.930 . S
C2158 C2154 1.524 . S
C2158 H2170 0.956 . S
C2158 H2171 0.961 . S
C2158 H2172 0.961 . S
C2159 C2156 1.539 . S
C2159 H2173 0.958 . S
C2159 H2174 0.961 . S
C2159 H2175 0.960 . S
H2160 C2144 0.931 . S
H2161 C2149 0.929 . S
H2162 C2150 0.960 . S
H2163 C2150 0.962 . S
H2164 C2150 0.960 . S
H2165 C2151 0.961 . S
H2166 C2151 0.961 . S
H2167 C2151 0.961 . S
H2168 C2152 0.931 . S
H2169 C2157 0.930 . S
H2170 C2158 0.956 . S
H2171 C2158 0.961 . S
H2172 C2158 0.961 . S
H2173 C2159 0.958 . S
H2174 C2159 0.961 . S
H2175 C2159 0.960 . S
C2176 C2177 1.391 . S
C2176 C2178 1.394 . S
C2176 H2192 0.931 . S
C2177 C2176 1.391 . S
C2177 C2181 1.376 . S
C2178 C2176 1.394 . S
C2178 C2179 1.369 . S
C2178 C2182 1.531 . S
C2179 C2178 1.369 . S
C2179 C2180 1.410 . S
C2179 C2187 1.503 . S
C2180 C2179 1.410 . S
C2180 C2181 1.392 . S
C2180 C2183 1.511 . S
C2181 C2177 1.376 . S
C2181 C2180 1.392 . S
C2181 H2193 0.929 . S
C2182 C2178 1.531 . S
C2182 H2194 0.960 . S
C2182 H2195 0.962 . S
C2182 H2196 0.960 . S
C2183 C2180 1.511 . S
C2183 H2197 0.961 . S
C2183 H2198 0.961 . S
C2183 H2199 0.961 . S
C2184 C2185 1.370 . S
C2184 C2186 1.363 . S
C2184 H2200 0.931 . S
C2185 C2184 1.370 . S
C2185 C2189 1.408 . S
C2186 C2184 1.363 . S
C2186 C2187 1.370 . S
C2186 C2190 1.524 . S
C2187 C2179 1.503 . S
C2187 C2186 1.370 . S
C2187 C2188 1.403 . S
C2188 C2187 1.403 . S
C2188 C2189 1.404 . S
C2188 C2191 1.539 . S
C2189 C2185 1.408 . S
C2189 C2188 1.404 . S
C2189 H2201 0.930 . S
C2190 C2186 1.524 . S
C2190 H2202 0.956 . S
C2190 H2203 0.961 . S
C2190 H2204 0.961 . S
C2191 C2188 1.539 . S
C2191 H2205 0.958 . S
C2191 H2206 0.961 . S
C2191 H2207 0.960 . S
H2192 C2176 0.931 . S
H2193 C2181 0.929 . S
H2194 C2182 0.960 . S
H2195 C2182 0.962 . S
H2196 C2182 0.960 . S
H2197 C2183 0.961 . S
H2198 C2183 0.961 . S
H2199 C2183 0.961 . S
H2200 C2184 0.931 . S
H2201 C2189 0.930 . S
H2202 C2190 0.956 . S
H2203 C2190 0.961 . S
H2204 C2190 0.961 . S
H2205 C2191 0.958 . S
H2206 C2191 0.961 . S
H2207 C2191 0.960 . S
C2208 C2209 1.391 . S
C2208 C2210 1.394 . S
C2208 H2224 0.931 . S
C2209 C2208 1.391 . S
C2209 C2213 1.376 . S
C2210 C2208 1.394 . S
C2210 C2211 1.369 . S
C2210 C2214 1.531 . S
C2211 C2210 1.369 . S
C2211 C2212 1.410 . S
C2211 C2219 1.503 . S
C2212 C2211 1.410 . S
C2212 C2213 1.392 . S
C2212 C2215 1.511 . S
C2213 C2209 1.376 . S
C2213 C2212 1.392 . S
C2213 H2225 0.929 . S
C2214 C2210 1.531 . S
C2214 H2226 0.960 . S
C2214 H2227 0.962 . S
C2214 H2228 0.960 . S
C2215 C2212 1.511 . S
C2215 H2229 0.961 . S
C2215 H2230 0.961 . S
C2215 H2231 0.961 . S
C2216 C2217 1.370 . S
C2216 C2218 1.363 . S
C2216 H2232 0.931 . S
C2217 C2216 1.370 . S
C2217 C2221 1.408 . S
C2218 C2216 1.363 . S
C2218 C2219 1.370 . S
C2218 C2222 1.524 . S
C2219 C2211 1.503 . S
C2219 C2218 1.370 . S
C2219 C2220 1.403 . S
C2220 C2219 1.403 . S
C2220 C2221 1.404 . S
C2220 C2223 1.539 . S
C2221 C2217 1.408 . S
C2221 C2220 1.404 . S
C2221 H2233 0.930 . S
C2222 C2218 1.524 . S
C2222 H2234 0.956 . S
C2222 H2235 0.961 . S
C2222 H2236 0.961 . S
C2223 C2220 1.539 . S
C2223 H2237 0.958 . S
C2223 H2238 0.961 . S
C2223 H2239 0.960 . S
H2224 C2208 0.931 . S
H2225 C2213 0.929 . S
H2226 C2214 0.960 . S
H2227 C2214 0.962 . S
H2228 C2214 0.960 . S
H2229 C2215 0.961 . S
H2230 C2215 0.961 . S
H2231 C2215 0.961 . S
H2232 C2216 0.931 . S
H2233 C2221 0.930 . S
H2234 C2222 0.956 . S
H2235 C2222 0.961 . S
H2236 C2222 0.961 . S
H2237 C2223 0.958 . S
H2238 C2223 0.961 . S
H2239 C2223 0.960 . S
C2240 C2241 1.391 . S
C2240 C2242 1.394 . S
C2240 H2256 0.931 . S
C2241 C2240 1.391 . S
C2241 C2245 1.376 . S
C2242 C2240 1.394 . S
C2242 C2243 1.369 . S
C2242 C2246 1.531 . S
C2243 C2242 1.369 . S
C2243 C2244 1.410 . S
C2243 C2251 1.503 . S
C2244 C2243 1.410 . S
C2244 C2245 1.392 . S
C2244 C2247 1.511 . S
C2245 C2241 1.376 . S
C2245 C2244 1.392 . S
C2245 H2257 0.929 . S
C2246 C2242 1.531 . S
C2246 H2258 0.960 . S
C2246 H2259 0.962 . S
C2246 H2260 0.960 . S
C2247 C2244 1.511 . S
C2247 H2261 0.961 . S
C2247 H2262 0.961 . S
C2247 H2263 0.961 . S
C2248 C2249 1.370 . S
C2248 C2250 1.363 . S
C2248 H2264 0.931 . S
C2249 C2248 1.370 . S
C2249 C2253 1.408 . S
C2250 C2248 1.363 . S
C2250 C2251 1.370 . S
C2250 C2254 1.524 . S
C2251 C2243 1.503 . S
C2251 C2250 1.370 . S
C2251 C2252 1.403 . S
C2252 C2251 1.403 . S
C2252 C2253 1.404 . S
C2252 C2255 1.539 . S
C2253 C2249 1.408 . S
C2253 C2252 1.404 . S
C2253 H2265 0.930 . S
C2254 C2250 1.524 . S
C2254 H2266 0.956 . S
C2254 H2267 0.961 . S
C2254 H2268 0.961 . S
C2255 C2252 1.539 . S
C2255 H2269 0.958 . S
C2255 H2270 0.961 . S
C2255 H2271 0.960 . S
H2256 C2240 0.931 . S
H2257 C2245 0.929 . S
H2258 C2246 0.960 . S
H2259 C2246 0.962 . S
H2260 C2246 0.960 . S
H2261 C2247 0.961 . S
H2262 C2247 0.961 . S
H2263 C2247 0.961 . S
H2264 C2248 0.931 . S
H2265 C2253 0.930 . S
H2266 C2254 0.956 . S
H2267 C2254 0.961 . S
H2268 C2254 0.961 . S
H2269 C2255 0.958 . S
H2270 C2255 0.961 . S
H2271 C2255 0.960 . S
C2272 C2273 1.391 . S
C2272 C2274 1.394 . S
C2272 H2288 0.931 . S
C2273 C2272 1.391 . S
C2273 C2277 1.376 . S
C2274 C2272 1.394 . S
C2274 C2275 1.369 . S
C2274 C2278 1.531 . S
C2275 C2274 1.369 . S
C2275 C2276 1.410 . S
C2275 C2283 1.503 . S
C2276 C2275 1.410 . S
C2276 C2277 1.392 . S
C2276 C2279 1.511 . S
C2277 C2273 1.376 . S
C2277 C2276 1.392 . S
C2277 H2289 0.929 . S
C2278 C2274 1.531 . S
C2278 H2290 0.960 . S
C2278 H2291 0.962 . S
C2278 H2292 0.960 . S
C2279 C2276 1.511 . S
C2279 H2293 0.961 . S
C2279 H2294 0.961 . S
C2279 H2295 0.961 . S
C2280 C2281 1.370 . S
C2280 C2282 1.363 . S
C2280 H2296 0.931 . S
C2281 C2280 1.370 . S
C2281 C2285 1.408 . S
C2282 C2280 1.363 . S
C2282 C2283 1.370 . S
C2282 C2286 1.524 . S
C2283 C2275 1.503 . S
C2283 C2282 1.370 . S
C2283 C2284 1.403 . S
C2284 C2283 1.403 . S
C2284 C2285 1.404 . S
C2284 C2287 1.539 . S
C2285 C2281 1.408 . S
C2285 C2284 1.404 . S
C2285 H2297 0.930 . S
C2286 C2282 1.524 . S
C2286 H2298 0.956 . S
C2286 H2299 0.961 . S
C2286 H2300 0.961 . S
C2287 C2284 1.539 . S
C2287 H2301 0.958 . S
C2287 H2302 0.961 . S
C2287 H2303 0.960 . S
H2288 C2272 0.931 . S
H2289 C2277 0.929 . S
H2290 C2278 0.960 . S
H2291 C2278 0.962 . S
H2292 C2278 0.960 . S
H2293 C2279 0.961 . S
H2294 C2279 0.961 . S
H2295 C2279 0.961 . S
H2296 C2280 0.931 . S
H2297 C2285 0.930 . S
H2298 C2286 0.956 . S
H2299 C2286 0.961 . S
H2300 C2286 0.961 . S
H2301 C2287 0.958 . S
H2302 C2287 0.961 . S
H2303 C2287 0.960 . S
C2304 C2305 1.391 . S
C2304 C2306 1.394 . S
C2304 H2320 0.931 . S
C2305 C2304 1.391 . S
C2305 C2309 1.376 . S
C2306 C2304 1.394 . S
C2306 C2307 1.369 . S
C2306 C2310 1.531 . S
C2307 C2306 1.369 . S
C2307 C2308 1.410 . S
C2307 C2315 1.503 . S
C2308 C2307 1.410 . S
C2308 C2309 1.392 . S
C2308 C2311 1.511 . S
C2309 C2305 1.376 . S
C2309 C2308 1.392 . S
C2309 H2321 0.929 . S
C2310 C2306 1.531 . S
C2310 H2322 0.960 . S
C2310 H2323 0.962 . S
C2310 H2324 0.960 . S
C2311 C2308 1.511 . S
C2311 H2325 0.961 . S
C2311 H2326 0.961 . S
C2311 H2327 0.961 . S
C2312 C2313 1.370 . S
C2312 C2314 1.363 . S
C2312 H2328 0.931 . S
C2313 C2312 1.370 . S
C2313 C2317 1.408 . S
C2314 C2312 1.363 . S
C2314 C2315 1.370 . S
C2314 C2318 1.524 . S
C2315 C2307 1.503 . S
C2315 C2314 1.370 . S
C2315 C2316 1.403 . S
C2316 C2315 1.403 . S
C2316 C2317 1.404 . S
C2316 C2319 1.539 . S
C2317 C2313 1.408 . S
C2317 C2316 1.404 . S
C2317 H2329 0.930 . S
C2318 C2314 1.524 . S
C2318 H2330 0.956 . S
C2318 H2331 0.961 . S
C2318 H2332 0.961 . S
C2319 C2316 1.539 . S
C2319 H2333 0.958 . S
C2319 H2334 0.961 . S
C2319 H2335 0.960 . S
H2320 C2304 0.931 . S
H2321 C2309 0.929 . S
H2322 C2310 0.960 . S
H2323 C2310 0.962 . S
H2324 C2310 0.960 . S
H2325 C2311 0.961 . S
H2326 C2311 0.961 . S
H2327 C2311 0.961 . S
H2328 C2312 0.931 . S
H2329 C2317 0.930 . S
H2330 C2318 0.956 . S
H2331 C2318 0.961 . S
H2332 C2318 0.961 . S
H2333 C2319 0.958 . S
H2334 C2319 0.961 . S
H2335 C2319 0.960 . S
C2336 C2337 1.391 . S
C2336 C2338 1.394 . S
C2336 H2352 0.931 . S
C2337 C2336 1.391 . S
C2337 C2341 1.376 . S
C2338 C2336 1.394 . S
C2338 C2339 1.369 . S
C2338 C2342 1.531 . S
C2339 C2338 1.369 . S
C2339 C2340 1.410 . S
C2339 C2347 1.503 . S
C2340 C2339 1.410 . S
C2340 C2341 1.392 . S
C2340 C2343 1.511 . S
C2341 C2337 1.376 . S
C2341 C2340 1.392 . S
C2341 H2353 0.929 . S
C2342 C2338 1.531 . S
C2342 H2354 0.960 . S
C2342 H2355 0.962 . S
C2342 H2356 0.960 . S
C2343 C2340 1.511 . S
C2343 H2357 0.961 . S
C2343 H2358 0.961 . S
C2343 H2359 0.961 . S
C2344 C2345 1.370 . S
C2344 C2346 1.363 . S
C2344 H2360 0.931 . S
C2345 C2344 1.370 . S
C2345 C2349 1.408 . S
C2346 C2344 1.363 . S
C2346 C2347 1.370 . S
C2346 C2350 1.524 . S
C2347 C2339 1.503 . S
C2347 C2346 1.370 . S
C2347 C2348 1.403 . S
C2348 C2347 1.403 . S
C2348 C2349 1.404 . S
C2348 C2351 1.539 . S
C2349 C2345 1.408 . S
C2349 C2348 1.404 . S
C2349 H2361 0.930 . S
C2350 C2346 1.524 . S
C2350 H2362 0.956 . S
C2350 H2363 0.961 . S
C2350 H2364 0.961 . S
C2351 C2348 1.539 . S
C2351 H2365 0.958 . S
C2351 H2366 0.961 . S
C2351 H2367 0.960 . S
H2352 C2336 0.931 . S
H2353 C2341 0.929 . S
H2354 C2342 0.960 . S
H2355 C2342 0.962 . S
H2356 C2342 0.960 . S
H2357 C2343 0.961 . S
H2358 C2343 0.961 . S
H2359 C2343 0.961 . S
H2360 C2344 0.931 . S
H2361 C2349 0.930 . S
H2362 C2350 0.956 . S
H2363 C2350 0.961 . S
H2364 C2350 0.961 . S
H2365 C2351 0.958 . S
H2366 C2351 0.961 . S
H2367 C2351 0.960 . S
C2368 C2369 1.391 . S
C2368 C2370 1.394 . S
C2368 H2384 0.931 . S
C2369 C2368 1.391 . S
C2369 C2373 1.376 . S
C2370 C2368 1.394 . S
C2370 C2371 1.369 . S
C2370 C2374 1.531 . S
C2371 C2370 1.369 . S
C2371 C2372 1.410 . S
C2371 C2379 1.503 . S
C2372 C2371 1.410 . S
C2372 C2373 1.392 . S
C2372 C2375 1.511 . S
C2373 C2369 1.376 . S
C2373 C2372 1.392 . S
C2373 H2385 0.929 . S
C2374 C2370 1.531 . S
C2374 H2386 0.960 . S
C2374 H2387 0.962 . S
C2374 H2388 0.960 . S
C2375 C2372 1.511 . S
C2375 H2389 0.961 . S
C2375 H2390 0.961 . S
C2375 H2391 0.961 . S
C2376 C2377 1.370 . S
C2376 C2378 1.363 . S
C2376 H2392 0.931 . S
C2377 C2376 1.370 . S
C2377 C2381 1.408 . S
C2378 C2376 1.363 . S
C2378 C2379 1.370 . S
C2378 C2382 1.524 . S
C2379 C2371 1.503 . S
C2379 C2378 1.370 . S
C2379 C2380 1.403 . S
C2380 C2379 1.403 . S
C2380 C2381 1.404 . S
C2380 C2383 1.539 . S
C2381 C2377 1.408 . S
C2381 C2380 1.404 . S
C2381 H2393 0.930 . S
C2382 C2378 1.524 . S
C2382 H2394 0.956 . S
C2382 H2395 0.961 . S
C2382 H2396 0.961 . S
C2383 C2380 1.539 . S
C2383 H2397 0.958 . S
C2383 H2398 0.961 . S
C2383 H2399 0.960 . S
H2384 C2368 0.931 . S
H2385 C2373 0.929 . S
H2386 C2374 0.960 . S
H2387 C2374 0.962 . S
H2388 C2374 0.960 . S
H2389 C2375 0.961 . S
H2390 C2375 0.961 . S
H2391 C2375 0.961 . S
H2392 C2376 0.931 . S
H2393 C2381 0.930 . S
H2394 C2382 0.956 . S
H2395 C2382 0.961 . S
H2396 C2382 0.961 . S
H2397 C2383 0.958 . S
H2398 C2383 0.961 . S
H2399 C2383 0.960 . S
C2400 C2401 1.391 . S
C2400 C2402 1.394 . S
C2400 H2416 0.931 . S
C2401 C2400 1.391 . S
C2401 C2405 1.376 . S
C2402 C2400 1.394 . S
C2402 C2403 1.369 . S
C2402 C2406 1.531 . S
C2403 C2402 1.369 . S
C2403 C2404 1.410 . S
C2403 C2411 1.503 . S
C2404 C2403 1.410 . S
C2404 C2405 1.392 . S
C2404 C2407 1.511 . S
C2405 C2401 1.376 . S
C2405 C2404 1.392 . S
C2405 H2417 0.929 . S
C2406 C2402 1.531 . S
C2406 H2418 0.960 . S
C2406 H2419 0.962 . S
C2406 H2420 0.960 . S
C2407 C2404 1.511 . S
C2407 H2421 0.961 . S
C2407 H2422 0.961 . S
C2407 H2423 0.961 . S
C2408 C2409 1.370 . S
C2408 C2410 1.363 . S
C2408 H2424 0.931 . S
C2409 C2408 1.370 . S
C2409 C2413 1.408 . S
C2410 C2408 1.363 . S
C2410 C2411 1.370 . S
C2410 C2414 1.524 . S
C2411 C2403 1.503 . S
C2411 C2410 1.370 . S
C2411 C2412 1.403 . S
C2412 C2411 1.403 . S
C2412 C2413 1.404 . S
C2412 C2415 1.539 . S
C2413 C2409 1.408 . S
C2413 C2412 1.404 . S
C2413 H2425 0.930 . S
C2414 C2410 1.524 . S
C2414 H2426 0.956 . S
C2414 H2427 0.961 . S
C2414 H2428 0.961 . S
C2415 C2412 1.539 . S
C2415 H2429 0.958 . S
C2415 H2430 0.961 . S
C2415 H2431 0.960 . S
H2416 C2400 0.931 . S
H2417 C2405 0.929 . S
H2418 C2406 0.960 . S
H2419 C2406 0.962 . S
H2420 C2406 0.960 . S
H2421 C2407 0.961 . S
H2422 C2407 0.961 . S
H2423 C2407 0.961 . S
H2424 C2408 0.931 . S
H2425 C2413 0.930 . S
H2426 C2414 0.956 . S
H2427 C2414 0.961 . S
H2428 C2414 0.961 . S
H2429 C2415 0.958 . S
H2430 C2415 0.961 . S
H2431 C2415 0.960 . S
C2432 C2433 1.391 . S
C2432 C2434 1.394 . S
C2432 H2448 0.931 . S
C2433 C2432 1.391 . S
C2433 C2437 1.376 . S
C2434 C2432 1.394 . S
C2434 C2435 1.369 . S
C2434 C2438 1.531 . S
C2435 C2434 1.369 . S
C2435 C2436 1.410 . S
C2435 C2443 1.503 . S
C2436 C2435 1.410 . S
C2436 C2437 1.392 . S
C2436 C2439 1.511 . S
C2437 C2433 1.376 . S
C2437 C2436 1.392 . S
C2437 H2449 0.929 . S
C2438 C2434 1.531 . S
C2438 H2450 0.960 . S
C2438 H2451 0.962 . S
C2438 H2452 0.960 . S
C2439 C2436 1.511 . S
C2439 H2453 0.961 . S
C2439 H2454 0.961 . S
C2439 H2455 0.961 . S
C2440 C2441 1.370 . S
C2440 C2442 1.363 . S
C2440 H2456 0.931 . S
C2441 C2440 1.370 . S
C2441 C2445 1.408 . S
C2442 C2440 1.363 . S
C2442 C2443 1.370 . S
C2442 C2446 1.524 . S
C2443 C2435 1.503 . S
C2443 C2442 1.370 . S
C2443 C2444 1.403 . S
C2444 C2443 1.403 . S
C2444 C2445 1.404 . S
C2444 C2447 1.539 . S
C2445 C2441 1.408 . S
C2445 C2444 1.404 . S
C2445 H2457 0.930 . S
C2446 C2442 1.524 . S
C2446 H2458 0.956 . S
C2446 H2459 0.961 . S
C2446 H2460 0.961 . S
C2447 C2444 1.539 . S
C2447 H2461 0.958 . S
C2447 H2462 0.961 . S
C2447 H2463 0.960 . S
H2448 C2432 0.931 . S
H2449 C2437 0.929 . S
H2450 C2438 0.960 . S
H2451 C2438 0.962 . S
H2452 C2438 0.960 . S
H2453 C2439 0.961 . S
H2454 C2439 0.961 . S
H2455 C2439 0.961 . S
H2456 C2440 0.931 . S
H2457 C2445 0.930 . S
H2458 C2446 0.956 . S
H2459 C2446 0.961 . S
H2460 C2446 0.961 . S
H2461 C2447 0.958 . S
H2462 C2447 0.961 . S
H2463 C2447 0.960 . S
C2464 C2465 1.391 . S
C2464 C2466 1.394 . S
C2464 H2480 0.931 . S
C2465 C2464 1.391 . S
C2465 C2469 1.376 . S
C2466 C2464 1.394 . S
C2466 C2467 1.369 . S
C2466 C2470 1.531 . S
C2467 C2466 1.369 . S
C2467 C2468 1.410 . S
C2467 C2475 1.503 . S
C2468 C2467 1.410 . S
C2468 C2469 1.392 . S
C2468 C2471 1.511 . S
C2469 C2465 1.376 . S
C2469 C2468 1.392 . S
C2469 H2481 0.929 . S
C2470 C2466 1.531 . S
C2470 H2482 0.960 . S
C2470 H2483 0.962 . S
C2470 H2484 0.960 . S
C2471 C2468 1.511 . S
C2471 H2485 0.961 . S
C2471 H2486 0.961 . S
C2471 H2487 0.961 . S
C2472 C2473 1.370 . S
C2472 C2474 1.363 . S
C2472 H2488 0.931 . S
C2473 C2472 1.370 . S
C2473 C2477 1.408 . S
C2474 C2472 1.363 . S
C2474 C2475 1.370 . S
C2474 C2478 1.524 . S
C2475 C2467 1.503 . S
C2475 C2474 1.370 . S
C2475 C2476 1.403 . S
C2476 C2475 1.403 . S
C2476 C2477 1.404 . S
C2476 C2479 1.539 . S
C2477 C2473 1.408 . S
C2477 C2476 1.404 . S
C2477 H2489 0.930 . S
C2478 C2474 1.524 . S
C2478 H2490 0.956 . S
C2478 H2491 0.961 . S
C2478 H2492 0.961 . S
C2479 C2476 1.539 . S
C2479 H2493 0.958 . S
C2479 H2494 0.961 . S
C2479 H2495 0.960 . S
H2480 C2464 0.931 . S
H2481 C2469 0.929 . S
H2482 C2470 0.960 . S
H2483 C2470 0.962 . S
H2484 C2470 0.960 . S
H2485 C2471 0.961 . S
H2486 C2471 0.961 . S
H2487 C2471 0.961 . S
H2488 C2472 0.931 . S
H2489 C2477 0.930 . S
H2490 C2478 0.956 . S
H2491 C2478 0.961 . S
H2492 C2478 0.961 . S
H2493 C2479 0.958 . S
H2494 C2479 0.961 . S
H2495 C2479 0.960 . S
C449 C8 1.458 . S
C457 C64 1.469 . S
C481 C22 1.469 . S
C489 C78 1.465 . S
C513 C92 1.456 . S
C521 C36 1.458 . S
C545 C106 1.466 . S
C553 C50 1.456 . S
C577 C120 1.476 . S
C585 C176 1.460 . S
C609 C134 1.453 . S
C617 C190 1.457 . S
C641 C204 1.442 . S
C649 C148 1.464 . S
C673 C162 1.466 . S
C681 C218 1.455 . S
C705 C288 1.476 . S
C713 C232 1.458 . S
C737 C302 1.456 . S
C745 C246 1.469 . S
C769 C260 1.447 . S
C777 C316 1.470 . S
C801 C330 1.442 . S
C809 C274 1.467 . S
C833 C344 1.475 . S
C841 C400 1.458 . S
C865 C414 1.451 . S
C873 C358 1.458 . S
C897 C428 1.442 . S
C905 C372 1.463 . S
C929 C386 1.463 . S
C937 C442 1.469 . S
C961 C9 1.515 . S
C969 C385 1.479 . S
C993 C119 1.458 . S
C1001 C23 1.507 . S
C1025 C37 1.524 . S
C1033 C357 1.487 . S
C1057 C51 1.501 . S
C1065 C147 1.502 . S
C1089 C413 1.458 . S
C1097 C65 1.501 . S
C1121 C203 1.457 . S
C1129 C79 1.506 . S
C1153 C93 1.492 . S
C1161 C441 1.481 . S
C1185 C107 1.492 . S
C1193 C175 1.481 . S
C1217 C273 1.516 . S
C1225 C121 1.503 . S
C1249 C135 1.511 . S
C1257 C7 1.502 . S
C1281 C245 1.459 . S
C1289 C149 1.505 . S
C1313 C163 1.506 . S
C1321 C35 1.479 . S
C1345 C301 1.510 . S
C1353 C177 1.506 . S
C1377 C191 1.494 . S
C1385 C91 1.505 . S
C1409 C329 1.461 . S
C1417 C205 1.494 . S
C1441 C219 1.519 . S
C1449 C63 1.483 . S
C1473 C161 1.482 . S
C1481 C233 1.510 . S
C1505 C343 1.519 . S
C1513 C247 1.491 . S
C1537 C133 1.477 . S
C1545 C261 1.490 . S
C1569 C275 1.489 . S
C1577 C371 1.482 . S
C1601 C189 1.502 . S
C1609 C289 1.486 . S
C1633 C427 1.517 . S
C1641 C303 1.498 . S
C1665 C217 1.494 . S
C1673 C317 1.508 . S
C1697 C331 1.499 . S
C1705 C399 1.480 . S
C1729 C345 1.491 . S
C1737 C49 1.505 . S
C1761 C359 1.472 . S
C1769 C231 1.502 . S
C1793 C373 1.524 . S
C1801 C21 1.489 . S
C1825 C387 1.465 . S
C1833 C259 1.493 . S
C1857 C401 1.523 . S
C1865 C77 1.487 . S
C1889 C315 1.519 . S
C1897 C415 1.495 . S
C1921 C105 1.459 . S
C1929 C429 1.496 . S
C1953 C443 1.523 . S
C1961 C287 1.493 . S
C1985 C3 1.044 . S
C1993 C101 1.030 . S
C2017 C17 0.998 . S
C2025 C59 1.017 1_556 S
C2049 C31 1.017 1_554 S
C2057 C73 1.026 . S
C2081 C87 0.997 . S
C2089 C45 1.010 . S
C2113 C213 0.993 . S
C2121 C115 1.010 . S
C2145 C171 1.027 1_554 S
C2153 C129 1.026 . S
C2177 C185 1.018 . S
C2185 C143 1.023 1_556 S
C2209 C199 1.025 . S
C2217 C157 1.025 . S
C2241 C227 1.042 1_554 S
C2249 C325 1.031 . S
C2273 C283 1.041 . S
C2281 C241 1.031 . S
C2305 C297 0.994 . S
C2313 C255 1.013 . S
C2337 C311 0.993 1_556 S
C2345 C269 1.011 . S
C2369 C437 1.044 . S
C2377 C339 1.031 1_556 S
C2401 C353 0.994 . S
C2409 C395 1.011 . S
C2433 C367 1.021 . S
C2441 C409 1.020 . S
C2465 C381 0.993 . S
C2473 C423 1.010 1_554 S
