# Generated by pormake.
# Topology wne, (6)-cn, num edge types: 1
# Building blocks:
#     Node 0, Type 0, BuildingBlock: HISSIN_clean_sbu_0, # of connection points: 6
#     Node 1, Type 0, BuildingBlock: HISSIN_clean_sbu_0, # of connection points: 6
#     Node 2, Type 0, BuildingBlock: HISSIN_clean_sbu_0, # of connection points: 6
#     Node 3, Type 0, BuildingBlock: HISSIN_clean_sbu_0, # of connection points: 6
#     Node 4, Type 0, BuildingBlock: HISSIN_clean_sbu_0, # of connection points: 6
#     Node 5, Type 0, BuildingBlock: HISSIN_clean_sbu_0, # of connection points: 6
#     Node 6, Type 0, BuildingBlock: HISSIN_clean_sbu_0, # of connection points: 6
#     Node 7, Type 0, BuildingBlock: HISSIN_clean_sbu_0, # of connection points: 6
#     Node 8, Type 0, BuildingBlock: HISSIN_clean_sbu_0, # of connection points: 6
#     Node 9, Type 0, BuildingBlock: HISSIN_clean_sbu_0, # of connection points: 6
#     Node 10, Type 0, BuildingBlock: HISSIN_clean_sbu_0, # of connection points: 6
#     Node 11, Type 0, BuildingBlock: HISSIN_clean_sbu_0, # of connection points: 6
#     Node 12, Type 0, BuildingBlock: HISSIN_clean_sbu_0, # of connection points: 6
#     Node 13, Type 0, BuildingBlock: HISSIN_clean_sbu_0, # of connection points: 6
#     Node 14, Type 0, BuildingBlock: HISSIN_clean_sbu_0, # of connection points: 6
#     Node 15, Type 0, BuildingBlock: HISSIN_clean_sbu_0, # of connection points: 6
#     Node 16, Type 0, BuildingBlock: HISSIN_clean_sbu_0, # of connection points: 6
#     Node 17, Type 0, BuildingBlock: HISSIN_clean_sbu_0, # of connection points: 6
#     Node 18, Type 0, BuildingBlock: HISSIN_clean_sbu_0, # of connection points: 6
#     Node 19, Type 0, BuildingBlock: HISSIN_clean_sbu_0, # of connection points: 6
#     Node 20, Type 0, BuildingBlock: HISSIN_clean_sbu_0, # of connection points: 6
#     Node 21, Type 0, BuildingBlock: HISSIN_clean_sbu_0, # of connection points: 6
#     Node 22, Type 0, BuildingBlock: HISSIN_clean_sbu_0, # of connection points: 6
#     Node 23, Type 0, BuildingBlock: HISSIN_clean_sbu_0, # of connection points: 6
#     Node 24, Type 0, BuildingBlock: HISSIN_clean_sbu_0, # of connection points: 6
#     Node 25, Type 0, BuildingBlock: HISSIN_clean_sbu_0, # of connection points: 6
#     Node 26, Type 0, BuildingBlock: HISSIN_clean_sbu_0, # of connection points: 6
#     Node 27, Type 0, BuildingBlock: HISSIN_clean_sbu_0, # of connection points: 6
#     Node 28, Type 0, BuildingBlock: HISSIN_clean_sbu_0, # of connection points: 6
#     Node 29, Type 0, BuildingBlock: HISSIN_clean_sbu_0, # of connection points: 6
#     Node 30, Type 0, BuildingBlock: HISSIN_clean_sbu_0, # of connection points: 6
#     Node 31, Type 0, BuildingBlock: HISSIN_clean_sbu_0, # of connection points: 6
#     Node 32, Type 0, BuildingBlock: HISSIN_clean_sbu_0, # of connection points: 6
#     Node 33, Type 0, BuildingBlock: HISSIN_clean_sbu_0, # of connection points: 6
#     Node 34, Type 0, BuildingBlock: HISSIN_clean_sbu_0, # of connection points: 6
#     Node 35, Type 0, BuildingBlock: HISSIN_clean_sbu_0, # of connection points: 6
#     Edge 36, Type (0, 0), BuildingBlock: XIVTED_clean_linker_0, # of connection points: 2
#     Edge 37, Type (0, 0), BuildingBlock: XIVTED_clean_linker_0, # of connection points: 2
#     Edge 38, Type (0, 0), BuildingBlock: XIVTED_clean_linker_0, # of connection points: 2
#     Edge 39, Type (0, 0), BuildingBlock: XIVTED_clean_linker_0, # of connection points: 2
#     Edge 40, Type (0, 0), BuildingBlock: XIVTED_clean_linker_0, # of connection points: 2
#     Edge 41, Type (0, 0), BuildingBlock: XIVTED_clean_linker_0, # of connection points: 2
#     Edge 42, Type (0, 0), BuildingBlock: XIVTED_clean_linker_0, # of connection points: 2
#     Edge 43, Type (0, 0), BuildingBlock: XIVTED_clean_linker_0, # of connection points: 2
#     Edge 44, Type (0, 0), BuildingBlock: XIVTED_clean_linker_0, # of connection points: 2
#     Edge 45, Type (0, 0), BuildingBlock: XIVTED_clean_linker_0, # of connection points: 2
#     Edge 46, Type (0, 0), BuildingBlock: XIVTED_clean_linker_0, # of connection points: 2
#     Edge 47, Type (0, 0), BuildingBlock: XIVTED_clean_linker_0, # of connection points: 2
#     Edge 48, Type (0, 0), BuildingBlock: XIVTED_clean_linker_0, # of connection points: 2
#     Edge 49, Type (0, 0), BuildingBlock: XIVTED_clean_linker_0, # of connection points: 2
#     Edge 50, Type (0, 0), BuildingBlock: XIVTED_clean_linker_0, # of connection points: 2
#     Edge 51, Type (0, 0), BuildingBlock: XIVTED_clean_linker_0, # of connection points: 2
#     Edge 52, Type (0, 0), BuildingBlock: XIVTED_clean_linker_0, # of connection points: 2
#     Edge 53, Type (0, 0), BuildingBlock: XIVTED_clean_linker_0, # of connection points: 2
#     Edge 54, Type (0, 0), BuildingBlock: XIVTED_clean_linker_0, # of connection points: 2
#     Edge 55, Type (0, 0), BuildingBlock: XIVTED_clean_linker_0, # of connection points: 2
#     Edge 56, Type (0, 0), BuildingBlock: XIVTED_clean_linker_0, # of connection points: 2
#     Edge 57, Type (0, 0), BuildingBlock: XIVTED_clean_linker_0, # of connection points: 2
#     Edge 58, Type (0, 0), BuildingBlock: XIVTED_clean_linker_0, # of connection points: 2
#     Edge 59, Type (0, 0), BuildingBlock: XIVTED_clean_linker_0, # of connection points: 2
#     Edge 60, Type (0, 0), BuildingBlock: XIVTED_clean_linker_0, # of connection points: 2
#     Edge 61, Type (0, 0), BuildingBlock: XIVTED_clean_linker_0, # of connection points: 2
#     Edge 62, Type (0, 0), BuildingBlock: XIVTED_clean_linker_0, # of connection points: 2
#     Edge 63, Type (0, 0), BuildingBlock: XIVTED_clean_linker_0, # of connection points: 2
#     Edge 64, Type (0, 0), BuildingBlock: XIVTED_clean_linker_0, # of connection points: 2
#     Edge 65, Type (0, 0), BuildingBlock: XIVTED_clean_linker_0, # of connection points: 2
#     Edge 66, Type (0, 0), BuildingBlock: XIVTED_clean_linker_0, # of connection points: 2
#     Edge 67, Type (0, 0), BuildingBlock: XIVTED_clean_linker_0, # of connection points: 2
#     Edge 68, Type (0, 0), BuildingBlock: XIVTED_clean_linker_0, # of connection points: 2
#     Edge 69, Type (0, 0), BuildingBlock: XIVTED_clean_linker_0, # of connection points: 2
#     Edge 70, Type (0, 0), BuildingBlock: XIVTED_clean_linker_0, # of connection points: 2
#     Edge 71, Type (0, 0), BuildingBlock: XIVTED_clean_linker_0, # of connection points: 2
#     Edge 72, Type (0, 0), BuildingBlock: XIVTED_clean_linker_0, # of connection points: 2
#     Edge 73, Type (0, 0), BuildingBlock: XIVTED_clean_linker_0, # of connection points: 2
#     Edge 74, Type (0, 0), BuildingBlock: XIVTED_clean_linker_0, # of connection points: 2
#     Edge 75, Type (0, 0), BuildingBlock: XIVTED_clean_linker_0, # of connection points: 2
#     Edge 76, Type (0, 0), BuildingBlock: XIVTED_clean_linker_0, # of connection points: 2
#     Edge 77, Type (0, 0), BuildingBlock: XIVTED_clean_linker_0, # of connection points: 2
#     Edge 78, Type (0, 0), BuildingBlock: XIVTED_clean_linker_0, # of connection points: 2
#     Edge 79, Type (0, 0), BuildingBlock: XIVTED_clean_linker_0, # of connection points: 2
#     Edge 80, Type (0, 0), BuildingBlock: XIVTED_clean_linker_0, # of connection points: 2
#     Edge 81, Type (0, 0), BuildingBlock: XIVTED_clean_linker_0, # of connection points: 2
#     Edge 82, Type (0, 0), BuildingBlock: XIVTED_clean_linker_0, # of connection points: 2
#     Edge 83, Type (0, 0), BuildingBlock: XIVTED_clean_linker_0, # of connection points: 2
#     Edge 84, Type (0, 0), BuildingBlock: XIVTED_clean_linker_0, # of connection points: 2
#     Edge 85, Type (0, 0), BuildingBlock: XIVTED_clean_linker_0, # of connection points: 2
#     Edge 86, Type (0, 0), BuildingBlock: XIVTED_clean_linker_0, # of connection points: 2
#     Edge 87, Type (0, 0), BuildingBlock: XIVTED_clean_linker_0, # of connection points: 2
#     Edge 88, Type (0, 0), BuildingBlock: XIVTED_clean_linker_0, # of connection points: 2
#     Edge 89, Type (0, 0), BuildingBlock: XIVTED_clean_linker_0, # of connection points: 2
#     Edge 90, Type (0, 0), BuildingBlock: XIVTED_clean_linker_0, # of connection points: 2
#     Edge 91, Type (0, 0), BuildingBlock: XIVTED_clean_linker_0, # of connection points: 2
#     Edge 92, Type (0, 0), BuildingBlock: XIVTED_clean_linker_0, # of connection points: 2
#     Edge 93, Type (0, 0), BuildingBlock: XIVTED_clean_linker_0, # of connection points: 2
#     Edge 94, Type (0, 0), BuildingBlock: XIVTED_clean_linker_0, # of connection points: 2
#     Edge 95, Type (0, 0), BuildingBlock: XIVTED_clean_linker_0, # of connection points: 2
#     Edge 96, Type (0, 0), BuildingBlock: XIVTED_clean_linker_0, # of connection points: 2
#     Edge 97, Type (0, 0), BuildingBlock: XIVTED_clean_linker_0, # of connection points: 2
#     Edge 98, Type (0, 0), BuildingBlock: XIVTED_clean_linker_0, # of connection points: 2
#     Edge 99, Type (0, 0), BuildingBlock: XIVTED_clean_linker_0, # of connection points: 2
#     Edge 100, Type (0, 0), BuildingBlock: XIVTED_clean_linker_0, # of connection points: 2
#     Edge 101, Type (0, 0), BuildingBlock: XIVTED_clean_linker_0, # of connection points: 2
#     Edge 102, Type (0, 0), BuildingBlock: XIVTED_clean_linker_0, # of connection points: 2
#     Edge 103, Type (0, 0), BuildingBlock: XIVTED_clean_linker_0, # of connection points: 2
#     Edge 104, Type (0, 0), BuildingBlock: XIVTED_clean_linker_0, # of connection points: 2
#     Edge 105, Type (0, 0), BuildingBlock: XIVTED_clean_linker_0, # of connection points: 2
#     Edge 106, Type (0, 0), BuildingBlock: XIVTED_clean_linker_0, # of connection points: 2
#     Edge 107, Type (0, 0), BuildingBlock: XIVTED_clean_linker_0, # of connection points: 2
#     Edge 108, Type (0, 0), BuildingBlock: XIVTED_clean_linker_0, # of connection points: 2
#     Edge 109, Type (0, 0), BuildingBlock: XIVTED_clean_linker_0, # of connection points: 2
#     Edge 110, Type (0, 0), BuildingBlock: XIVTED_clean_linker_0, # of connection points: 2
#     Edge 111, Type (0, 0), BuildingBlock: XIVTED_clean_linker_0, # of connection points: 2
#     Edge 112, Type (0, 0), BuildingBlock: XIVTED_clean_linker_0, # of connection points: 2
#     Edge 113, Type (0, 0), BuildingBlock: XIVTED_clean_linker_0, # of connection points: 2
#     Edge 114, Type (0, 0), BuildingBlock: XIVTED_clean_linker_0, # of connection points: 2
#     Edge 115, Type (0, 0), BuildingBlock: XIVTED_clean_linker_0, # of connection points: 2
#     Edge 116, Type (0, 0), BuildingBlock: XIVTED_clean_linker_0, # of connection points: 2
#     Edge 117, Type (0, 0), BuildingBlock: XIVTED_clean_linker_0, # of connection points: 2
#     Edge 118, Type (0, 0), BuildingBlock: XIVTED_clean_linker_0, # of connection points: 2
#     Edge 119, Type (0, 0), BuildingBlock: XIVTED_clean_linker_0, # of connection points: 2
#     Edge 120, Type (0, 0), BuildingBlock: XIVTED_clean_linker_0, # of connection points: 2
#     Edge 121, Type (0, 0), BuildingBlock: XIVTED_clean_linker_0, # of connection points: 2
#     Edge 122, Type (0, 0), BuildingBlock: XIVTED_clean_linker_0, # of connection points: 2
#     Edge 123, Type (0, 0), BuildingBlock: XIVTED_clean_linker_0, # of connection points: 2
#     Edge 124, Type (0, 0), BuildingBlock: XIVTED_clean_linker_0, # of connection points: 2
#     Edge 125, Type (0, 0), BuildingBlock: XIVTED_clean_linker_0, # of connection points: 2
#     Edge 126, Type (0, 0), BuildingBlock: XIVTED_clean_linker_0, # of connection points: 2
#     Edge 127, Type (0, 0), BuildingBlock: XIVTED_clean_linker_0, # of connection points: 2
#     Edge 128, Type (0, 0), BuildingBlock: XIVTED_clean_linker_0, # of connection points: 2
#     Edge 129, Type (0, 0), BuildingBlock: XIVTED_clean_linker_0, # of connection points: 2
#     Edge 130, Type (0, 0), BuildingBlock: XIVTED_clean_linker_0, # of connection points: 2
#     Edge 131, Type (0, 0), BuildingBlock: XIVTED_clean_linker_0, # of connection points: 2
#     Edge 132, Type (0, 0), BuildingBlock: XIVTED_clean_linker_0, # of connection points: 2
#     Edge 133, Type (0, 0), BuildingBlock: XIVTED_clean_linker_0, # of connection points: 2
#     Edge 134, Type (0, 0), BuildingBlock: XIVTED_clean_linker_0, # of connection points: 2
#     Edge 135, Type (0, 0), BuildingBlock: XIVTED_clean_linker_0, # of connection points: 2
#     Edge 136, Type (0, 0), BuildingBlock: XIVTED_clean_linker_0, # of connection points: 2
#     Edge 137, Type (0, 0), BuildingBlock: XIVTED_clean_linker_0, # of connection points: 2
#     Edge 138, Type (0, 0), BuildingBlock: XIVTED_clean_linker_0, # of connection points: 2
#     Edge 139, Type (0, 0), BuildingBlock: XIVTED_clean_linker_0, # of connection points: 2
#     Edge 140, Type (0, 0), BuildingBlock: XIVTED_clean_linker_0, # of connection points: 2
#     Edge 141, Type (0, 0), BuildingBlock: XIVTED_clean_linker_0, # of connection points: 2
#     Edge 142, Type (0, 0), BuildingBlock: XIVTED_clean_linker_0, # of connection points: 2
#     Edge 143, Type (0, 0), BuildingBlock: XIVTED_clean_linker_0, # of connection points: 2
# Relax obj value: 0.400
# Max RMSD: 0.260
# Mean RMSD: 0.260
data_MOF--net-wne--node1-HISSIN_clean_sbu_0--edge1-XIVTED_clean_linker_0
_symmetry_space_group_name_H-M    P1
_symmetry_Int_Tables_number       1
_symmetry_cell_setting            triclinic
loop_
_symmetry_equiv_pos_as_xyz
'x, y, z'
_cell_length_a     87.082797
_cell_length_b     87.055056
_cell_length_c     33.45046
_cell_angle_alpha  89.922184
_cell_angle_beta   90.138248
_cell_angle_gamma 119.99635
loop_
_atom_site_label
_atom_site_type_symbol
_atom_site_fract_x
_atom_site_fract_y
_atom_site_fract_z
_atom_type_partial_charge
Eu0 Eu 0.28243 0.19197 0.10369 0.0
Eu1 Eu 0.30815 0.23445 0.1211 0.0
C2 C 0.31403 0.2185 0.04267 0.0
C3 C 0.26296 0.14067 0.07911 0.0
C4 C 0.26937 0.13799 0.04264 0.0
C5 C 0.25205 0.10935 0.09507 0.0
C6 C 0.26704 0.12124 0.03246 0.0
C7 C 0.2544 0.1261 0.10523 0.0
C8 C 0.25812 0.1065 0.05824 0.0
C9 C 0.26314 0.15768 0.08832 0.0
O10 O 0.2828 0.23256 0.09782 0.0
O11 O 0.26803 0.20436 0.07156 0.0
C12 C 0.26954 0.22008 0.07724 0.0
O13 O 0.26862 0.20043 0.15193 0.0
O14 O 0.33169 0.25987 0.10755 0.0
O15 O 0.31382 0.25824 0.15434 0.0
O16 O 0.29406 0.22241 0.17882 0.0
C17 C 0.27675 0.21256 0.18027 0.0
O18 O 0.30375 0.19354 0.1457 0.0
O19 O 0.3255 0.2226 0.13695 0.0
O20 O 0.31018 0.23036 0.05543 0.0
O21 O 0.26719 0.16426 0.12445 0.0
O22 O 0.26889 0.17011 0.0611 0.0
O23 O 0.3067 0.20293 0.06092 0.0
C24 C 0.32368 0.28196 0.10842 0.0
C25 C 0.30737 0.28167 0.11059 0.0
C26 C 0.33327 0.30454 0.05694 0.0
C27 C 0.30405 0.29268 0.08604 0.0
C28 C 0.33666 0.29367 0.08172 0.0
C29 C 0.31687 0.30401 0.05856 0.0
C30 C 0.32633 0.2686 0.12968 0.0
C31 C 0.32044 0.20629 0.14872 0.0
H32 H 0.27582 0.14875 1.02137 0.0
H33 H 0.24538 0.09859 0.11622 0.0
H34 H 0.27177 0.11974 1.00364 0.0
H35 H 0.2491 0.12754 0.13334 0.0
H36 H 0.29696 0.27263 0.13051 0.0
H37 H 0.34357 0.3135 0.03669 0.0
H38 H 0.29135 0.29209 0.08801 0.0
H39 H 0.34926 0.29407 0.07929 0.0
Eu40 Eu 0.86349 0.10198 0.10087 0.0
Eu41 Eu 0.82241 0.0868 0.12869 0.0
C42 C 0.83505 0.10821 0.04552 0.0
C43 C 0.91445 0.13177 0.07081 0.0
C44 C 0.92779 0.12948 0.05315 0.0
C45 C 0.93485 0.16391 0.06887 0.0
C46 C 0.94445 0.14409 0.04379 0.0
C47 C 0.91812 0.14918 0.07848 0.0
C48 C 0.9484 0.1616 0.05168 0.0
C49 C 0.89728 0.11564 0.08172 0.0
O50 O 0.82306 0.06231 0.1068 0.0
O51 O 0.8488 0.07501 0.07001 0.0
C52 C 0.83381 0.06092 0.0812 0.0
O53 O 0.85637 0.07934 0.14796 0.0
O54 O 0.79379 0.0707 0.12191 0.0
O55 O 0.80489 0.08551 0.17666 0.0
O56 O 0.83763 0.08532 0.18125 0.0
C57 C 0.84585 0.07628 0.17915 0.0
O58 O 0.86361 0.12283 0.14243 0.0
O59 O 0.83511 0.11672 0.13304 0.0
O60 O 0.82196 0.09542 0.06565 0.0
O61 O 0.89148 0.11404 0.11835 0.0
O62 O 0.88435 0.10928 0.0557 0.0
O63 O 0.85182 0.1142 0.0563 0.0
C64 C 0.78023 0.057 0.18223 0.0
C65 C 0.78486 0.04369 0.18343 0.0
C66 C 0.75399 0.03836 0.22098 0.0
C67 C 0.77374 0.0275 0.20213 0.0
C68 C 0.76511 0.0545 0.20227 0.0
C69 C 0.75782 0.02442 0.21981 0.0
C70 C 0.79077 0.07316 0.15888 0.0
C71 C 0.85155 0.12774 0.14401 0.0
H72 H 0.92538 0.11625 0.04678 0.0
H73 H 0.93728 0.17709 0.07572 0.0
H74 H 0.95422 0.1416 0.02998 0.0
H75 H 0.90814 0.1514 0.09219 0.0
H76 H 0.79671 0.04557 0.1685 0.0
H77 H 0.74172 0.03641 0.2337 0.0
H78 H 0.77711 1.0171 0.20094 0.0
H79 H 0.76147 0.06472 0.2019 0.0
Eu80 Eu 0.95434 0.77211 0.10232 0.0
Eu81 Eu 0.97031 0.7466 0.13075 0.0
C82 C 0.94795 0.73708 0.04854 0.0
C83 C 0.92313 0.79204 0.07426 0.0
C84 C 0.91452 0.78672 0.03689 0.0
C85 C 0.90256 0.80255 0.09179 0.0
C86 C 0.90023 0.78937 1.02709 0.0
C87 C 0.9168 0.79988 0.10158 0.0
C88 C 0.89411 0.79757 0.05414 0.0
C89 C 0.93985 0.79157 0.08336 0.0
O90 O 0.99424 0.77163 0.1067 0.0
O91 O 0.98119 0.78467 0.07081 0.0
C92 C 0.99538 0.78378 0.0813 0.0
O93 O 0.97706 0.78779 0.14904 0.0
O94 O 0.98271 0.73056 0.12071 0.0
O95 O 0.97736 0.73529 0.1811 0.0
O96 O 0.97111 0.76316 0.1828 0.0
C97 C 0.98013 0.78042 0.18045 0.0
O98 O 0.93386 0.75138 0.14451 0.0
O99 O 0.94057 0.72914 0.13883 0.0
O100 O 0.96115 0.7373 0.06807 0.0
O101 O 0.94283 0.78853 0.12005 0.0
O102 O 0.94583 0.78469 0.05724 0.0
O103 O 0.94187 0.7478 0.05911 0.0
C104 C 1.00436 0.73628 0.16859 0.0
C105 C 1.01679 0.75439 0.16402 0.0
C106 C 1.02833 0.73017 0.17808 0.0
C107 C 0.03492 0.76021 0.16423 0.0
C108 C 1.0102 0.72433 0.17723 0.0
C109 C 0.04081 0.74801 0.16967 0.0
C110 C 0.98572 0.72969 0.15858 0.0
C111 C 0.92934 0.73453 0.14815 0.0
H112 H 0.9191 0.7809 1.01467 0.0
H113 H 0.89823 0.80864 0.1139 0.0
H114 H 0.89437 0.78548 0.99763 0.0
H115 H 0.92316 0.80437 0.13043 0.0
H116 H 1.01245 0.76383 0.15774 0.0
H117 H 1.03248 0.72042 0.18184 0.0
H118 H 0.04425 0.774 0.15771 0.0
H119 H 1.00077 0.71032 0.18076 0.0
Eu120 Eu 0.20466 0.27287 0.4497 0.0
Eu121 Eu 0.2467 0.29816 0.42482 0.0
C122 C 0.23284 0.30702 0.50603 0.0
C123 C 0.15348 0.25357 0.47621 0.0
C124 C 0.15052 0.25913 0.51355 0.0
C125 C 0.12237 0.2434 0.45928 0.0
C126 C 0.13374 0.25678 0.52363 0.0
C127 C 0.13914 0.24578 0.44921 0.0
C128 C 0.11923 0.24864 0.49691 0.0
C129 C 0.1705 0.25374 0.46686 0.0
O130 O 0.24476 0.27268 0.4481 0.0
O131 O 0.21831 0.25989 0.48232 0.0
C132 C 0.23335 0.26054 0.47281 0.0
O133 O 0.21198 0.25737 0.40317 0.0
O134 O 0.27498 0.31377 0.43738 0.0
O135 O 0.26585 0.30975 0.37615 0.0
O136 O 0.23149 0.28227 0.37143 0.0
C137 C 0.223 0.26498 0.37281 0.0
O138 O 0.20598 0.29421 0.40781 0.0
O139 O 0.23497 0.31604 0.41618 0.0
O140 O 0.24594 0.30654 0.4879 0.0
O141 O 0.17675 0.2573 0.43043 0.0
O142 O 0.1832 0.25989 0.49351 0.0
O143 O 0.21621 0.29688 0.49361 0.0
C144 C 0.29145 0.30824 0.39079 0.0
C145 C 0.28558 0.29009 0.39534 0.0
C146 C 0.32147 0.31407 0.38249 0.0
C147 C 0.29776 0.2841 0.39575 0.0
C148 C 0.30932 0.32009 0.3828 0.0
C149 C 0.3159 0.29617 0.39083 0.0
C150 C 0.27943 0.31497 0.39988 0.0
C151 C 0.21857 0.311 0.4054 0.0
H152 H 0.16106 0.26493 0.53553 0.0
H153 H 0.11181 0.23735 0.43741 0.0
H154 H 0.13203 0.26085 0.55307 0.0
H155 H 0.14076 0.24111 0.4204 0.0
H156 H 0.27175 0.28074 0.40106 0.0
H157 H 0.33542 0.32371 0.37916 0.0
H158 H 0.29315 0.27027 0.40226 0.0
H159 H 0.31403 0.33412 0.37927 0.0
Eu160 Eu 0.78539 0.9429 0.44655 0.0
Eu161 Eu 0.75953 0.95931 0.4275 0.0
C162 C 0.75365 0.93792 0.50675 0.0
C163 C 0.80487 0.91128 0.47287 0.0
C164 C 0.79892 0.90262 0.50999 0.0
C165 C 0.81516 0.89038 0.45695 0.0
C166 C 0.80116 0.88817 0.5205 0.0
C167 C 0.8129 0.90481 0.44646 0.0
C168 C 0.80955 0.8819 0.49441 0.0
C169 C 0.80478 0.92812 0.46319 0.0
O170 O 0.78485 0.98299 0.45034 0.0
O171 O 0.79933 0.96965 0.47872 0.0
C172 C 0.79795 0.98388 0.47187 0.0
O173 O 0.7993 0.96516 0.39815 0.0
O174 O 0.73576 0.96087 0.44021 0.0
O175 O 0.75374 0.97724 0.39367 0.0
O176 O 0.77395 0.96153 0.37027 0.0
C177 C 0.79128 0.96914 0.36944 0.0
O178 O 0.76429 0.92282 0.40474 0.0
O179 O 0.7424 0.93001 0.41211 0.0
O180 O 0.7575 0.95357 0.49341 0.0
O181 O 0.80092 0.93062 0.42682 0.0
O182 O 0.79886 0.9348 0.48995 0.0
O183 O 0.76102 0.92962 0.48903 0.0
C184 C 0.74346 0.9909 0.43899 0.0
C185 C 0.75961 1.00708 0.43658 0.0
C186 C 0.7337 1.00357 0.49071 0.0
C187 C 0.76277 1.02131 0.4612 0.0
C188 C 0.73046 0.9894 0.46587 0.0
C189 C 0.74996 1.01958 0.48897 0.0
C190 C 0.74108 0.97495 0.41795 0.0
C191 C 0.74758 0.91874 0.40123 0.0
H192 H 0.79289 0.90728 0.53149 0.0
H193 H 0.82141 0.88593 0.43556 0.0
H194 H 0.79681 0.88229 0.54979 0.0
H195 H 0.81784 0.91121 0.41784 0.0
H196 H 0.77003 1.00864 0.41648 0.0
H197 H 0.7234 1.00203 0.51117 0.0
H198 H 0.77536 0.03355 0.45911 0.0
H199 H 0.71798 0.97707 0.46847 0.0
Eu200 Eu 0.11328 0.8521 0.44844 0.0
Eu201 Eu 0.09746 0.81062 0.42018 0.0
C202 C 0.11987 0.82367 0.50259 0.0
C203 C 0.14264 0.90332 0.47857 0.0
C204 C 0.13985 0.91617 0.49719 0.0
C205 C 0.17456 0.92469 0.47969 0.0
C206 C 0.15409 0.93306 0.5066 0.0
C207 C 0.1602 0.90773 0.47 0.0
C208 C 0.17173 0.93774 0.49782 0.0
C209 C 0.12684 0.8859 0.46748 0.0
O210 O 0.07347 0.81162 0.44393 0.0
O211 O 0.08651 0.83758 0.48007 0.0
C212 C 0.07234 0.82254 0.46946 0.0
O213 O 0.09068 0.84506 0.40144 0.0
O214 O 0.08467 0.78216 0.43049 0.0
O215 O 0.09094 0.79226 0.37011 0.0
O216 O 0.09633 0.82612 0.36783 0.0
C217 C 0.0875 0.83456 0.37014 0.0
O218 O 0.13414 0.85201 0.40733 0.0
O219 O 0.12717 0.82293 0.41229 0.0
O220 O 0.10692 0.81059 0.48272 0.0
O221 O 0.1254 0.88009 0.43089 0.0
O222 O 0.12055 0.87301 0.49357 0.0
O223 O 0.12573 0.84045 0.49222 0.0
C224 C 0.06356 0.76648 0.38146 0.0
C225 C 0.05131 0.77245 0.38474 0.0
C226 C 0.03937 0.73656 0.37155 0.0
C227 C 1.03313 0.76036 0.38371 0.0
C228 C 0.05754 0.74863 0.37321 0.0
C229 C 1.02701 0.74219 0.37878 0.0
C230 C 0.08212 0.77831 0.39255 0.0
C231 C 0.13853 0.8396 0.40349 0.0
H232 H 0.1265 0.91319 0.50423 0.0
H233 H 0.18786 0.9277 0.47214 0.0
H234 H 0.15122 0.94245 0.52113 0.0
H235 H 0.1628 0.89814 0.45552 0.0
H236 H 0.05578 0.78627 0.39075 0.0
H237 H 0.03505 0.7226 0.36821 0.0
H238 H 1.0239 0.76502 0.38932 0.0
H239 H 0.06684 0.74384 0.37066 0.0
Eu240 Eu 0.75887 0.81083 0.92046 0.0
Eu241 Eu 0.78435 0.85239 0.94825 0.0
C242 C 0.79277 0.83479 0.87055 0.0
C243 C 0.7484 0.76641 0.88283 0.0
C244 C 0.76651 0.77207 0.88721 0.0
C245 C 0.74226 0.73635 0.87293 0.0
C246 C 0.77232 0.75976 0.88677 0.0
C247 C 0.73642 0.74865 0.87405 0.0
C248 C 0.7601 0.74167 0.88124 0.0
C249 C 0.74183 0.77845 0.89316 0.0
O250 O 0.76347 0.85202 0.90615 0.0
O251 O 0.74137 0.82305 0.91238 0.0
C252 C 0.74664 0.83963 0.90277 0.0
O253 O 0.74986 0.81078 0.98337 0.0
O254 O 0.80048 0.88038 0.93043 0.0
O255 O 0.79705 0.87346 0.99324 0.0
O256 O 0.76027 0.84056 0.9919 0.0
C257 C 0.74972 0.82379 1.00285 0.0
O258 O 0.78393 0.81198 0.94441 0.0
O259 O 0.79713 0.83822 0.97963 0.0
O260 O 0.80006 0.84545 0.90166 0.0
O261 O 0.74301 0.7824 0.93101 0.0
O262 O 0.74721 0.79237 0.87047 0.0
O263 O 0.77551 0.82624 0.86812 0.0
C264 C 0.80386 0.90339 0.97652 0.0
C265 C 0.79921 0.90672 1.01459 0.0
C266 C 0.81323 0.93422 0.95861 0.0
C267 C 0.80163 0.92354 1.02454 0.0
C268 C 0.81079 0.91741 0.94867 0.0
C269 C 0.80894 0.93772 0.99693 0.0
C270 C 0.80365 0.88636 0.96712 0.0
C271 C 0.79618 0.82309 0.96945 0.0
H272 H 0.77596 0.78583 0.89357 0.0
H273 H 0.7325 0.72246 0.86911 0.0
H274 H 0.78611 0.76418 0.89323 0.0
H275 H 0.72242 0.74409 0.87063 0.0
H276 H 0.79411 0.89644 0.03721 0.0
H277 H 0.81861 0.94452 0.93608 0.0
H278 H 0.79831 0.92556 0.0545 0.0
H279 H 0.81475 0.91552 0.91926 0.0
Eu280 Eu 0.24632 0.95943 0.92319 0.0
Eu281 Eu 0.20438 0.94248 0.94856 0.0
C282 C 0.22237 0.96851 0.8711 0.0
C283 C 0.29159 0.99458 0.8932 0.0
C284 C 0.28578 1.00688 0.8982 0.0
C285 C 0.32193 1.01867 0.89139 0.0
C286 C 0.29806 0.02494 0.9019 0.0
C287 C 0.30965 1.00059 0.88839 0.0
C288 C 0.31628 0.03092 0.89987 0.0
C289 C 0.27913 0.97561 0.89863 0.0
O290 O 0.20556 0.92245 0.90653 0.0
O291 O 0.23469 0.92986 0.91368 0.0
C292 C 0.21823 0.9184 0.9034 0.0
O293 O 0.24569 0.95053 0.98654 0.0
O294 O 0.17645 0.93029 0.92967 0.0
O295 O 0.18301 0.93376 0.99271 0.0
O296 O 0.21615 0.92989 0.99169 0.0
C297 C 0.23279 0.93658 1.00419 0.0
O298 O 0.24436 0.9829 0.9469 0.0
O299 O 0.21799 0.96906 0.98135 0.0
O300 O 0.21154 0.96523 0.90179 0.0
O301 O 0.27452 0.97082 0.93557 0.0
O302 O 0.26557 0.96861 0.87451 0.0
O303 O 0.23092 0.95977 0.86978 0.0
C304 C 0.15314 0.91065 0.97534 0.0
C305 C 0.14992 0.90221 1.01289 0.0
C306 C 0.12206 0.88987 0.95786 0.0
C307 C 0.13302 0.8879 1.0228 0.0
C308 C 0.13894 0.90413 0.94796 0.0
C309 C 0.11866 0.8816 0.99569 0.0
C310 C 0.17026 0.92744 0.96616 0.0
C311 C 0.23298 0.98352 0.97181 0.0
H312 H 0.27181 1.00242 0.90148 0.0
H313 H 0.33592 0.02287 0.89025 0.0
H314 H 0.29338 0.0341 0.90837 0.0
H315 H 0.31433 0.99126 0.88463 0.0
H316 H 0.16034 0.90693 0.03517 0.0
H317 H 0.11162 0.8854 0.93569 0.0
H318 H 0.13111 0.88219 0.05239 0.0
H319 H 0.14075 0.91037 0.91897 0.0
Eu320 Eu 0.09671 0.29819 0.92232 0.0
Eu321 Eu 0.11231 0.27196 0.95006 0.0
C322 C 0.08665 0.26455 0.87195 0.0
C323 C 0.06186 0.30747 0.88548 0.0
C324 C 0.04979 0.28927 0.89016 0.0
C325 C 0.03738 0.31277 0.87567 0.0
C326 C 1.03157 0.28301 0.88981 0.0
C327 C 0.0556 0.31906 0.87663 0.0
C328 C 1.02523 0.29484 0.88417 0.0
C329 C 0.08058 0.31451 0.89556 0.0
O330 O 0.13384 0.29357 0.91119 0.0
O331 O 0.12613 0.3153 0.91045 0.0
C332 C 0.13778 0.3101 0.90441 0.0
O333 O 0.11184 0.31216 0.97773 0.0
O334 O 0.12457 0.25644 0.93092 0.0
O335 O 0.1192 0.25746 0.99379 0.0
O336 O 0.12333 0.29446 0.99771 0.0
C337 C 0.12157 0.3087 1.00213 0.0
O338 O 0.07314 0.27398 0.95091 0.0
O339 O 0.0855 0.2588 0.98055 0.0
O340 O 0.08958 0.25697 0.90314 0.0
O341 O 0.08357 0.31344 0.93341 0.0
O342 O 0.08932 0.30948 0.87258 0.0
O343 O 0.09577 0.2818 0.86987 0.0
C344 C 0.14153 0.24974 0.97803 0.0
C345 C 0.13888 0.23502 1.00072 0.0
C346 C 0.17311 0.25895 0.97443 0.0
C347 C 0.153 0.23214 1.00981 0.0
C348 C 0.15886 0.26177 0.96508 0.0
C349 C 0.17038 0.24395 0.99662 0.0
C350 C 0.12576 0.25142 0.96708 0.0
C351 C 0.07175 0.26086 0.97334 0.0
H352 H 0.05445 0.28011 0.89665 0.0
H353 H 1.0329 0.32226 0.87175 0.0
H354 H 1.0225 0.26916 0.8964 0.0
H355 H 0.06476 0.33313 0.87301 0.0
H356 H 0.1257 0.22551 1.01112 0.0
H357 H 0.1862 0.26833 0.96344 0.0
H358 H 0.15026 0.22063 1.02752 0.0
H359 H 0.16135 0.27322 0.94739 0.0
Eu360 Eu 0.82253 0.7472 0.63144 0.0
Eu361 Eu 0.86415 0.77259 0.60463 0.0
C362 C 0.84637 0.78084 0.68202 0.0
C363 C 0.77803 0.73683 0.66808 0.0
C364 C 0.78368 0.75492 0.6634 0.0
C365 C 0.74799 0.73072 0.67791 0.0
C366 C 0.77137 0.76074 0.66371 0.0
C367 C 0.76028 0.72488 0.67695 0.0
C368 C 0.7533 0.74854 0.66938 0.0
C369 C 0.79008 0.73024 0.65816 0.0
O370 O 0.86355 0.75159 0.64654 0.0
O371 O 0.83461 0.72953 0.63936 0.0
C372 C 0.85115 0.73475 0.64936 0.0
O373 O 0.82269 0.73855 0.5683 0.0
O374 O 0.8921 0.78868 0.62291 0.0
O375 O 0.88529 0.7854 0.56001 0.0
O376 O 0.85241 0.74848 0.56096 0.0
C377 C 0.83569 0.7382 0.54933 0.0
O378 O 0.82393 0.77242 0.6076 0.0
O379 O 0.85003 0.78507 0.57208 0.0
O380 O 0.85703 0.78827 0.65103 0.0
O381 O 0.79414 0.73134 0.6204 0.0
O382 O 0.80393 0.73565 0.68112 0.0
O383 O 0.83802 0.76356 0.68407 0.0
C384 C 0.91518 0.79223 0.57693 0.0
C385 C 0.91828 0.78697 0.53934 0.0
C386 C 0.94623 0.80233 0.59417 0.0
C387 C 0.9351 0.78946 0.52928 0.0
C388 C 0.92942 0.79982 0.60422 0.0
C389 C 0.9495 0.79743 0.55629 0.0
C390 C 0.89814 0.79195 0.5863 0.0
C391 C 0.83504 0.7844 0.58214 0.0
H392 H 0.79742 0.76436 0.65697 0.0
H393 H 0.73411 0.72098 0.68185 0.0
H394 H 0.77578 0.77451 0.65707 0.0
H395 H 0.75573 0.71088 0.68061 0.0
H396 H 0.90781 0.78134 0.51716 0.0
H397 H 0.95671 0.80823 0.61625 0.0
H398 H 0.93693 0.78565 0.49967 0.0
H399 H 0.92769 0.80425 0.63323 0.0
Eu400 Eu 0.30887 0.08562 0.62548 0.0
Eu401 Eu 0.28315 0.10168 0.60259 0.0
C402 C 0.27574 0.07526 0.67955 0.0
C403 C 0.31883 0.04995 0.6481 0.0
C404 C 0.31066 0.04049 0.68326 0.0
C405 C 0.31066 1.02211 0.61491 0.0
C406 C 0.30259 1.02199 0.68419 0.0
C407 C 0.3188 0.04052 0.61406 0.0
C408 C 0.30247 1.01262 0.64993 0.0
C409 C 0.32584 0.06929 0.64541 0.0
O410 O 0.30411 0.12173 0.64499 0.0
O411 O 0.32636 0.11525 0.63604 0.0
C412 C 0.321 0.1263 0.64735 0.0
O413 O 0.3148 0.09328 0.56083 0.0
O414 O 0.26723 0.11353 0.62202 0.0
O415 O 0.2699 0.10992 0.55887 0.0
O416 O 0.3074 0.11497 0.55949 0.0
C417 C 0.31652 0.1078 0.54479 0.0
O418 O 0.28345 0.06164 0.60361 0.0
O419 O 0.27008 0.07496 0.57024 0.0
O420 O 0.26811 0.07905 0.64973 0.0
O421 O 0.32642 0.07551 0.60964 0.0
O422 O 0.31991 0.07612 0.67161 0.0
O423 O 0.29305 0.08338 0.68032 0.0
C424 C 0.26336 0.13305 0.57658 0.0
C425 C 0.2695 0.14208 0.53992 0.0
C426 C 0.25268 0.15355 0.59333 0.0
C427 C 0.26716 0.15654 0.53006 0.0
C428 C 0.25504 0.13912 0.60318 0.0
C429 C 0.2585 0.16242 0.55636 0.0
C430 C 0.26361 0.11625 0.58563 0.0
C431 C 0.27102 0.06067 0.57948 0.0
H432 H 0.3104 0.04736 0.71 0.0
H433 H 0.31134 1.01536 0.58838 0.0
H434 H 0.29657 1.01503 0.71172 0.0
H435 H 0.325 0.04735 0.58652 0.0
H436 H 0.27574 0.13772 0.5183 0.0
H437 H 0.24622 0.1577 0.61485 0.0
H438 H 0.27168 0.16274 0.50112 0.0
H439 H 0.24995 0.13242 0.63146 0.0
Eu440 Eu 0.97066 0.23504 0.62901 0.0
Eu441 Eu 0.95461 0.19348 0.60194 0.0
C442 C 0.98025 0.21113 0.68011 0.0
C443 C 1.00489 0.28007 0.66309 0.0
C444 C 1.01736 0.27439 0.65959 0.0
C445 C 1.0288 0.31045 0.66727 0.0
C446 C 0.03545 0.28678 0.6578 0.0
C447 C 1.01071 0.29807 0.66849 0.0
C448 C 0.04128 0.30498 0.66005 0.0
C449 C 0.98613 0.26764 0.65505 0.0
O450 O 0.93409 0.19381 0.64367 0.0
O451 O 0.94095 0.22282 0.63772 0.0
C452 C 0.92965 0.2062 0.64716 0.0
O453 O 0.96157 0.23476 0.56597 0.0
O454 O 0.94327 0.16562 0.6204 0.0
O455 O 0.94625 0.17228 0.55741 0.0
O456 O 0.94187 0.20502 0.55873 0.0
C457 C 0.94808 0.22172 0.54731 0.0
O458 O 0.9946 0.23378 0.6056 0.0
O459 O 0.9813 0.20771 0.56986 0.0
O460 O 0.97717 0.20059 0.64895 0.0
O461 O 0.98241 0.26334 0.61755 0.0
O462 O 0.97845 0.25387 0.67847 0.0
O463 O 0.97152 0.21967 0.68193 0.0
C464 C 0.92381 0.14224 0.57497 0.0
C465 C 0.91404 0.13944 0.53941 0.0
C466 C 0.90454 0.11071 0.59074 0.0
C467 C 0.8998 0.1225 0.5296 0.0
C468 C 0.91873 0.12762 0.60055 0.0
C469 C 0.89492 0.10774 0.55484 0.0
C470 C 0.94039 0.15951 0.58383 0.0
C471 C 0.99559 0.2227 0.58028 0.0
H472 H 1.01305 0.26046 0.65576 0.0
H473 H 1.03285 0.32441 0.6686 0.0
H474 H 0.04478 0.28221 0.65237 0.0
H475 H 1.00124 0.30264 0.6711 0.0
H476 H 0.91764 0.15024 0.51859 0.0
H477 H 0.90117 0.09991 0.61145 0.0
H478 H 0.89298 0.12089 0.50148 0.0
H479 H 0.92602 0.12918 0.62795 0.0
Eu480 Eu 0.94978 0.52626 0.43775 0.0
Eu481 Eu 0.97538 0.56819 0.46306 0.0
C482 C 0.9839 0.55426 0.38149 0.0
C483 C 0.92933 0.47483 0.41179 0.0
C484 C 0.93569 0.4718 0.37563 0.0
C485 C 0.91733 0.44336 0.42811 0.0
C486 C 0.93282 0.45479 0.36581 0.0
C487 C 0.92025 0.46035 0.43793 0.0
C488 C 0.92335 0.44016 0.39162 0.0
C489 C 0.93009 0.49215 0.42066 0.0
O490 O 0.95002 0.56656 0.43978 0.0
O491 O 0.9372 0.54025 0.40493 0.0
C492 C 0.93792 0.5553 0.41473 0.0
O493 O 0.93447 0.53379 0.48422 0.0
O494 O 0.99144 0.59644 0.45062 0.0
O495 O 0.98696 0.58733 0.51184 0.0
O496 O 0.95938 0.55309 0.51636 0.0
C497 C 0.9421 0.5447 0.51477 0.0
O498 O 0.97111 0.52718 0.47914 0.0
O499 O 0.99304 0.55619 0.47155 0.0
O500 O 0.98349 0.56739 0.39977 0.0
O501 O 0.93365 0.49845 0.45706 0.0
O502 O 0.93667 0.50479 0.39391 0.0
O503 O 0.97373 0.53764 0.39381 0.0
C504 C 0.98601 0.61319 0.49666 0.0
C505 C 0.96788 0.60747 0.49231 0.0
C506 C 0.9922 0.64341 0.50349 0.0
C507 C 0.96208 0.61979 0.4913 0.0
C508 C 0.99803 0.6311 0.50381 0.0
C509 C 0.97431 0.63794 0.49537 0.0
C510 C 0.9925 0.60094 0.48809 0.0
C511 C 0.98792 0.5397 0.48179 0.0
H512 H 0.94253 0.48248 0.35435 0.0
H513 H 0.91026 0.43268 0.44927 0.0
H514 H 0.93755 0.45303 0.33725 0.0
H515 H 0.91496 0.46205 0.4658 0.0
H516 H 0.95839 0.59361 0.48721 0.0
H517 H 1.00197 0.65736 0.50618 0.0
H518 H 0.94825 0.61526 0.485 0.0
H519 H 1.01205 0.63571 0.50715 0.0
Eu520 Eu 0.53014 0.43564 0.4396 0.0
Eu521 Eu 0.4884 0.41911 0.46636 0.0
C522 C 0.50165 0.44201 0.38486 0.0
C523 C 0.58116 0.46728 0.41174 0.0
C524 C 0.584 0.47573 0.37429 0.0
C525 C 0.61231 0.48824 0.42815 0.0
C526 C 0.60075 0.49013 0.36389 0.0
C527 C 0.59558 0.47388 0.43854 0.0
C528 C 0.61533 0.49654 0.39041 0.0
C529 C 0.56417 0.45047 0.42144 0.0
O530 O 0.49002 0.39544 0.44252 0.0
O531 O 0.5162 0.40897 0.4073 0.0
C532 C 0.50122 0.39461 0.41732 0.0
O533 O 0.52309 0.41289 0.48626 0.0
O534 O 0.45996 0.40578 0.45551 0.0
O535 O 0.46986 0.41235 0.51605 0.0
O536 O 0.50407 0.41859 0.51904 0.0
C537 C 0.51243 0.40968 0.51721 0.0
O538 O 0.52932 0.456 0.48121 0.0
O539 O 0.50024 0.44876 0.47445 0.0
O540 O 0.48853 0.42883 0.40406 0.0
O541 O 0.55812 0.44781 0.45804 0.0
O542 O 0.55133 0.44397 0.39514 0.0
O543 O 0.51839 0.448 0.39583 0.0
C544 C 0.44435 0.38474 0.50471 0.0
C545 C 0.45028 0.3725 0.50068 0.0
C546 C 0.4146 0.36057 0.51645 0.0
C547 C 0.43823 0.35431 0.50225 0.0
C548 C 0.42663 0.37874 0.51427 0.0
C549 C 0.42015 0.3482 0.50847 0.0
C550 C 0.45602 0.4033 0.49341 0.0
C551 C 0.51676 0.46021 0.48425 0.0
H552 H 0.5734 0.47094 0.35247 0.0
H553 H 0.62293 0.49279 0.44988 0.0
H554 H 0.60237 0.49585 0.33438 0.0
H555 H 0.59404 0.46764 0.46743 0.0
H556 H 0.46401 0.37697 0.4937 0.0
H557 H 0.4007 0.35624 0.52078 0.0
H558 H 0.44283 0.34507 0.49603 0.0
H559 H 0.42186 0.38804 0.51746 0.0
Eu560 Eu 0.61968 0.10516 0.43321 0.0
Eu561 Eu 0.63528 0.07963 0.46151 0.0
C562 C 0.6135 0.07026 0.37881 0.0
C563 C 0.58855 0.12504 0.4045 0.0
C564 C 0.58052 0.12052 0.36641 0.0
C565 C 0.56732 0.13461 0.42278 0.0
C566 C 0.56619 0.1231 0.35663 0.0
C567 C 0.5816 0.132 0.43255 0.0
C568 C 0.55946 0.13043 0.38445 0.0
C569 C 0.6053 0.12467 0.41373 0.0
O570 O 0.65959 0.10476 0.439 0.0
O571 O 0.64652 0.11745 0.40197 0.0
C572 C 0.66073 0.11675 0.41311 0.0
O573 O 0.64235 0.12098 0.48 0.0
O574 O 0.65201 0.06774 0.45606 0.0
O575 O 0.63562 0.06252 0.50872 0.0
O576 O 0.63725 0.09655 0.51393 0.0
C577 C 0.64576 0.11382 0.51138 0.0
O578 O 0.59927 0.08471 0.47581 0.0
O579 O 0.60541 0.06242 0.46569 0.0
O580 O 0.62656 0.07032 0.39864 0.0
O581 O 0.60827 0.12172 0.45049 0.0
O582 O 0.61129 0.11772 0.3878 0.0
O583 O 0.60743 0.08099 0.38946 0.0
C584 C 0.66378 0.06586 0.51785 0.0
C585 C 0.67734 0.08359 0.52195 0.0
C586 C 0.68057 0.05649 0.55849 0.0
C587 C 0.69278 0.08768 0.54313 0.0
C588 C 0.66518 0.05245 0.53743 0.0
C589 C 0.69487 0.07407 0.56024 0.0
C590 C 0.64844 0.0612 0.49218 0.0
C591 C 0.59443 0.06776 0.47727 0.0
H592 H 0.58559 0.11541 0.34366 0.0
H593 H 0.56249 0.14 0.44544 0.0
H594 H 0.56079 0.11987 0.32666 0.0
H595 H 0.58751 0.13588 0.46199 0.0
H596 H 0.67628 0.09415 0.50744 0.0
H597 H 0.68169 0.04557 0.5707 0.0
H598 H 0.70343 0.10135 0.5443 0.0
H599 H 0.65471 0.03874 0.53489 0.0
Eu600 Eu 0.86921 0.6042 0.78344 0.0
Eu601 Eu 0.91148 0.63011 0.7651 0.0
C602 C 0.89584 0.63593 0.84395 0.0
C603 C 0.81804 0.58451 0.80875 0.0
C604 C 0.81534 0.59068 0.84553 0.0
C605 C 0.7868 0.57385 0.79256 0.0
C606 C 0.79861 0.58836 0.85575 0.0
C607 C 0.80352 0.57619 0.78236 0.0
C608 C 0.78393 0.57969 0.82968 0.0
C609 C 0.83503 0.5847 0.79941 0.0
O610 O 0.90977 0.6047 0.78742 0.0
O611 O 0.88198 0.59013 0.81553 0.0
C612 C 0.89758 0.59154 0.80872 0.0
O613 O 0.8776 0.59045 0.73488 0.0
O614 O 0.93679 0.65386 0.77838 0.0
O615 O 0.93529 0.63591 0.73184 0.0
O616 O 0.89928 0.61593 0.70752 0.0
C617 C 0.88955 0.5986 0.70626 0.0
O618 O 0.87028 0.62537 0.74171 0.0
O619 O 0.89936 0.64724 0.74937 0.0
O620 O 0.90763 0.63203 0.83092 0.0
O621 O 0.84146 0.58863 0.76316 0.0
O622 O 0.84757 0.59063 0.82642 0.0
O623 O 0.88021 0.62857 0.82596 0.0
C624 C 0.9591 0.64616 0.77771 0.0
C625 C 0.95888 0.62988 0.77613 0.0
C626 C 0.98183 0.65621 0.82902 0.0
C627 C 0.96998 0.62679 0.80093 0.0
C628 C 0.97085 0.65936 0.80402 0.0
C629 C 0.98136 0.63983 0.82805 0.0
C630 C 0.9456 0.64856 0.75634 0.0
C631 C 0.88294 0.64207 0.73823 0.0
H632 H 0.82605 0.59694 0.867 0.0
H633 H 0.77608 0.56738 0.77119 0.0
H634 H 0.79709 0.5929 0.88479 0.0
H635 H 0.80499 0.57107 0.75399 0.0
H636 H 0.94982 0.61931 0.75652 0.0
H637 H 0.99081 0.66668 0.84898 0.0
H638 H 0.96943 0.61409 0.79945 0.0
H639 H 0.97119 0.67195 0.806 0.0
Eu640 Eu 0.4497 0.27598 0.78385 0.0
Eu641 Eu 0.42432 0.29204 0.75509 0.0
C642 C 0.41476 0.26978 0.83733 0.0
C643 C 0.46949 0.24467 0.81223 0.0
C644 C 0.46461 0.23636 0.84996 0.0
C645 C 0.47954 0.22377 0.79422 0.0
C646 C 0.46725 0.22206 0.8597 0.0
C647 C 0.47687 0.23802 0.7845 0.0
C648 C 0.475 0.21563 0.83221 0.0
C649 C 0.46907 0.26142 0.80316 0.0
O650 O 0.44924 0.31591 0.77979 0.0
O651 O 0.46225 0.3028 0.81556 0.0
C652 C 0.46134 0.31699 0.80524 0.0
O653 O 0.46556 0.29874 0.73748 0.0
O654 O 0.40773 0.30385 0.76519 0.0
O655 O 0.41361 0.29979 0.70475 0.0
O656 O 0.44113 0.29325 0.70319 0.0
C657 C 0.45838 0.30204 0.706 0.0
O658 O 0.42915 0.2556 0.74114 0.0
O659 O 0.40691 0.26232 0.74638 0.0
O660 O 0.41519 0.28312 0.81796 0.0
O661 O 0.46615 0.26445 0.76642 0.0
O662 O 0.46212 0.26738 0.82916 0.0
O663 O 0.4253 0.26352 0.82666 0.0
C664 C 0.41406 0.32639 0.7194 0.0
C665 C 0.43215 0.33873 0.72472 0.0
C666 C 0.40796 0.35051 0.71329 0.0
C667 C 0.43795 0.35684 0.72667 0.0
C668 C 0.40212 0.33237 0.71211 0.0
C669 C 0.42576 0.36281 0.72248 0.0
C670 C 0.40747 0.30758 0.72756 0.0
C671 C 0.41233 0.25109 0.73716 0.0
H672 H 0.45917 0.24119 0.87249 0.0
H673 H 0.48526 0.21919 0.7718 0.0
H674 H 0.46372 0.21644 0.88941 0.0
H675 H 0.48103 0.24416 0.75535 0.0
H676 H 0.44158 0.3343 0.72992 0.0
H677 H 0.39823 0.35474 0.71047 0.0
H678 H 0.4517 0.36606 0.73382 0.0
H679 H 0.38812 0.32301 0.70805 0.0
Eu680 Eu 0.77933 0.18526 0.77794 0.0
Eu681 Eu 0.76356 0.14379 0.75082 0.0
C682 C 0.786 0.15705 0.83283 0.0
C683 C 0.81063 0.2363 0.80536 0.0
C684 C 0.81989 0.2391 0.84171 0.0
C685 C 0.83091 0.26757 0.78884 0.0
C686 C 0.83437 0.25591 0.85155 0.0
C687 C 0.81649 0.25079 0.77902 0.0
C688 C 0.84 0.27055 0.82555 0.0
C689 C 0.7938 0.21924 0.79633 0.0
O690 O 0.7395 0.14483 0.77421 0.0
O691 O 0.75256 0.17099 0.8097 0.0
C692 C 0.73837 0.15589 0.79939 0.0
O693 O 0.75658 0.17808 0.73118 0.0
O694 O 0.75048 0.11537 0.76166 0.0
O695 O 0.75766 0.12531 0.7013 0.0
O696 O 0.76216 0.15897 0.69809 0.0
C697 C 0.75332 0.1674 0.70016 0.0
O698 O 0.79984 0.18499 0.736 0.0
O699 O 0.79334 0.15618 0.7432 0.0
O700 O 0.77288 0.14391 0.81351 0.0
O701 O 0.79086 0.21318 0.75972 0.0
O702 O 0.78771 0.20641 0.82263 0.0
O703 O 0.79193 0.17377 0.82177 0.0
C704 C 0.73015 0.09954 0.7114 0.0
C705 C 0.71788 0.10554 0.71216 0.0
C706 C 0.70616 0.06957 0.70137 0.0
C707 C 0.69973 0.09348 0.70915 0.0
C708 C 0.72428 0.08163 0.70446 0.0
C709 C 0.6937 0.07529 0.70515 0.0
C710 C 0.74851 0.11142 0.72373 0.0
C711 C 0.80449 0.17275 0.73322 0.0
H712 H 0.81571 0.22841 0.86313 0.0
H713 H 0.83486 0.27825 0.76752 0.0
H714 H 0.84077 0.25752 0.88026 0.0
H715 H 0.80963 0.24926 0.75097 0.0
H716 H 0.72225 0.11938 0.71764 0.0
H717 H 0.70188 0.05558 0.69912 0.0
H718 H 0.69041 0.09819 0.71249 0.0
H719 H 0.73358 0.0768 0.70401 0.0
Eu720 Eu 0.42462 0.1453 0.25285 0.0
Eu721 Eu 0.45065 0.1863 0.28125 0.0
C722 C 0.45903 0.16864 0.20308 0.0
C723 C 0.41065 0.10296 0.19748 0.0
C724 C 0.42831 0.10677 0.19516 0.0
C725 C 0.40148 0.07692 0.15671 0.0
C726 C 0.43245 0.09529 0.17489 0.0
C727 C 0.39739 0.08839 0.17695 0.0
C728 C 0.41894 0.07983 0.1568 0.0
C729 C 0.4059 0.11377 0.22233 0.0
O730 O 0.43021 0.18665 0.239 0.0
O731 O 0.4077 0.15831 0.24886 0.0
C732 C 0.4132 0.17472 0.23765 0.0
O733 O 0.41553 0.14473 0.31585 0.0
O734 O 0.46725 0.21432 0.26416 0.0
O735 O 0.46355 0.20707 0.32676 0.0
O736 O 0.42661 0.17458 0.32527 0.0
C737 C 0.41572 0.1578 0.33585 0.0
O738 O 0.44953 0.14563 0.27532 0.0
O739 O 0.46285 0.17147 0.31198 0.0
O740 O 0.46626 0.17928 0.23432 0.0
O741 O 0.41209 0.11664 0.25879 0.0
O742 O 0.40761 0.12801 0.20534 0.0
O743 O 0.44176 0.16 0.20044 0.0
C744 C 0.4707 0.23716 0.31077 0.0
C745 C 0.46508 0.24 0.34813 0.0
C746 C 0.481 0.26834 0.29446 0.0
C747 C 0.46745 0.25676 0.35852 0.0
C748 C 0.4786 0.25159 0.28408 0.0
C749 C 0.47567 0.27135 0.33209 0.0
C750 C 0.47037 0.22011 0.301 0.0
C751 C 0.46177 0.15639 0.30088 0.0
H752 H 0.43878 0.11823 0.21038 0.0
H753 H 0.39066 0.06504 0.14365 0.0
H754 H 0.44601 0.09799 0.17516 0.0
H755 H 0.38374 0.08542 0.1781 0.0
H756 H 0.45919 0.22938 0.36986 0.0
H757 H 0.48711 0.27897 0.27282 0.0
H758 H 0.46332 0.25839 0.38795 0.0
H759 H 0.48331 0.25005 0.25526 0.0
Eu760 Eu 0.91141 0.29235 0.26097 0.0
Eu761 Eu 0.8693 0.27567 0.28208 0.0
C762 C 0.88846 0.30108 0.20398 0.0
C763 C 0.95903 0.3257 0.26428 0.0
C764 C 0.95748 0.34103 0.26142 0.0
C765 C 0.98413 0.3415 0.30882 0.0
C766 C 0.9691 0.35641 0.28235 0.0
C767 C 0.97262 0.32618 0.28768 0.0
C768 C 0.98231 0.35666 0.30686 0.0
C769 C 0.94528 0.30866 0.24745 0.0
O770 O 0.87036 0.25559 0.24027 0.0
O771 O 0.89955 0.26301 0.24693 0.0
C772 C 0.88308 0.25164 0.23635 0.0
O773 O 0.90863 0.28662 0.32693 0.0
O774 O 0.84143 0.26333 0.26272 0.0
O775 O 0.84788 0.26734 0.32582 0.0
O776 O 0.8809 0.2628 0.32446 0.0
C777 C 0.89682 0.27116 0.3412 0.0
O778 O 0.90963 0.316 0.28341 0.0
O779 O 0.88228 0.30261 0.31375 0.0
O780 O 0.87709 0.29775 0.23358 0.0
O781 O 0.93758 0.29568 0.27304 0.0
O782 O 0.93394 0.30939 0.22313 0.0
O783 O 0.89778 0.29306 0.20456 0.0
C784 C 0.81827 0.24383 0.30869 0.0
C785 C 0.81525 0.23567 0.34654 0.0
C786 C 0.78737 0.2224 0.29142 0.0
C787 C 0.79853 0.2212 0.35672 0.0
C788 C 0.80408 0.23685 0.28126 0.0
C789 C 0.78417 0.21441 0.32955 0.0
C790 C 0.83519 0.26071 0.29915 0.0
C791 C 0.8977 0.3169 0.30585 0.0
H792 H 0.94699 0.34103 0.24396 0.0
H793 H 0.99449 0.34147 0.32677 0.0
H794 H 0.96746 0.36792 0.28022 0.0
H795 H 0.974 0.31453 0.29053 0.0
H796 H 0.82567 0.24075 0.36883 0.0
H797 H 0.77691 0.21754 0.26923 0.0
H798 H 0.79674 0.21572 0.38654 0.0
H799 H 0.80576 0.24285 0.25203 0.0
Eu800 Eu 0.76354 0.63096 0.25491 0.0
Eu801 Eu 0.77958 0.60548 0.28262 0.0
C802 C 0.75352 0.59705 0.20501 0.0
C803 C 0.72946 0.64125 0.21711 0.0
C804 C 0.71705 0.62313 0.22149 0.0
C805 C 0.70547 0.64729 0.20709 0.0
C806 C 0.69892 0.61727 0.221 0.0
C807 C 0.72361 0.65318 0.20824 0.0
C808 C 0.693 0.62945 0.21546 0.0
C809 C 0.74807 0.64788 0.22757 0.0
O810 O 0.80001 0.62624 0.24046 0.0
O811 O 0.79325 0.64844 0.24629 0.0
C812 C 0.80449 0.64307 0.23683 0.0
O813 O 0.77321 0.64053 0.31727 0.0
O814 O 0.79116 0.58916 0.26451 0.0
O815 O 0.78787 0.59265 0.32739 0.0
O816 O 0.79219 0.62963 0.32605 0.0
C817 C 0.78631 0.64049 0.33673 0.0
O818 O 0.73967 0.60592 0.27927 0.0
O819 O 0.75297 0.59309 0.31491 0.0
O820 O 0.75678 0.58976 0.23629 0.0
O821 O 0.75087 0.64671 0.26544 0.0
O822 O 0.75664 0.64256 0.20491 0.0
O823 O 0.76231 0.61432 0.20258 0.0
C824 C 0.8108 0.58571 0.31039 0.0
C825 C 0.81962 0.59161 0.34737 0.0
C826 C 0.83146 0.57526 0.29358 0.0
C827 C 0.83407 0.58928 0.35736 0.0
C828 C 0.81705 0.57762 0.28361 0.0
C829 C 0.84013 0.58084 0.33086 0.0
C830 C 0.79401 0.58596 0.30116 0.0
C831 C 0.7387 0.59387 0.30472 0.0
H832 H 0.7214 0.61371 0.22792 0.0
H833 H 0.7013 0.65703 0.20326 0.0
H834 H 0.68959 0.60347 0.2275 0.0
H835 H 0.73303 0.66719 0.20482 0.0
H836 H 0.81511 0.59767 0.36915 0.0
H837 H 0.83575 0.56897 0.27192 0.0
H838 H 0.84011 0.59361 0.38654 0.0
H839 H 0.81051 0.5727 0.25508 0.0
Eu840 Eu 0.48881 0.08038 0.96386 0.0
Eu841 Eu 0.5303 0.10622 0.93674 0.0
C842 C 0.51233 0.11431 1.0146 0.0
C843 C 0.44444 0.06897 1.00353 0.0
C844 C 0.4503 0.08723 1.00391 0.0
C845 C 0.41445 0.06264 1.01475 0.0
C846 C 0.43816 0.09315 1.0084 0.0
C847 C 0.42658 0.05675 1.01031 0.0
C848 C 0.42004 0.08085 1.01273 0.0
C849 C 0.45641 0.06274 0.99049 0.0
O850 O 0.53009 0.08545 0.97879 0.0
O851 O 0.50133 0.06311 0.9712 0.0
C852 C 0.51788 0.06853 0.98134 0.0
O853 O 0.48892 0.07146 0.90099 0.0
O854 O 0.55831 0.12244 0.95455 0.0
O855 O 0.55129 0.11915 0.89178 0.0
O856 O 0.51872 0.08207 0.89302 0.0
C857 C 0.502 0.07135 0.88186 0.0
O858 O 0.48977 0.1055 0.94095 0.0
O859 O 0.51589 0.11878 0.90544 0.0
O860 O 0.52314 0.12172 0.98375 0.0
O861 O 0.46041 0.0652 0.95263 0.0
O862 O 0.47027 0.06725 1.01295 0.0
O863 O 0.50378 0.09703 1.01669 0.0
C864 C 0.58129 0.12602 0.90811 0.0
C865 C 0.58433 0.12085 0.87036 0.0
C866 C 0.61238 0.13603 0.92496 0.0
C867 C 0.60113 0.12332 0.86003 0.0
C868 C 0.59559 0.13353 0.93527 0.0
C869 C 0.61559 0.13119 0.88693 0.0
C870 C 0.56423 0.12572 0.91784 0.0
C871 C 0.50078 0.11779 0.9159 0.0
H872 H 0.4641 0.09684 0.99839 0.0
H873 H 0.40049 0.05284 1.01709 0.0
H874 H 0.44275 0.10721 1.00621 0.0
H875 H 0.42185 0.04263 1.00979 0.0
H876 H 0.57382 0.11528 0.84825 0.0
H877 H 0.62289 0.14185 0.94698 0.0
H878 H 0.6029 0.11956 0.8303 0.0
H879 H 0.59392 0.1379 0.96441 0.0
Eu880 Eu 0.97571 0.41812 0.96266 0.0
Eu881 Eu 0.94947 0.43386 0.93576 0.0
C882 C 0.94193 0.40763 1.0128 0.0
C883 C 0.98501 0.38309 0.99812 0.0
C884 C 0.96686 0.37097 0.99291 0.0
C885 C 0.99041 0.35865 1.00757 0.0
C886 C 0.96067 0.35276 0.99282 0.0
C887 C 0.99662 0.37686 1.00704 0.0
C888 C 0.97254 0.34647 0.99855 0.0
C889 C 0.99203 0.40184 0.98853 0.0
O890 O 0.97116 0.45523 0.97504 0.0
O891 O 0.99284 0.44746 0.97519 0.0
C892 C 0.98768 0.45911 0.98165 0.0
O893 O 0.98969 0.4335 0.9076 0.0
O894 O 0.93323 0.44525 0.95603 0.0
O895 O 0.93594 0.44208 0.89269 0.0
O896 O 0.97179 0.44479 0.88781 0.0
C897 C 0.98611 0.44317 0.88329 0.0
O898 O 0.95155 0.3948 0.9334 0.0
O899 O 0.93614 0.40711 0.90458 0.0
O900 O 0.93441 0.4108 0.98183 0.0
O901 O 0.99088 0.40497 0.95081 0.0
O902 O 0.98705 0.41051 1.01192 0.0
O903 O 0.95918 0.41673 1.01519 0.0
C904 C 0.92862 0.46457 0.91146 0.0
C905 C 0.93555 0.47453 0.87616 0.0
C906 C 0.91615 0.48358 0.92782 0.0
C907 C 0.93272 0.48873 0.86676 0.0
C908 C 0.91902 0.46944 0.93722 0.0
C909 C 0.92274 0.49338 0.89216 0.0
C910 C 0.92943 0.44801 0.91984 0.0
C911 C 0.93834 0.3934 0.91124 0.0
H912 H 0.95768 0.37561 0.98636 0.0
H913 H 0.99992 0.3542 1.01156 0.0
H914 H 0.94686 0.34367 0.98583 0.0
H915 H 1.01066 0.38605 1.01107 0.0
H916 H 0.94283 0.47111 0.85522 0.0
H917 H 0.90866 0.48678 0.94865 0.0
H918 H 0.93791 0.49569 0.83883 0.0
H919 H 0.91332 0.462 0.96443 0.0
Eu920 Eu 0.63696 0.56778 0.96464 0.0
Eu921 Eu 0.62002 0.52586 0.93854 0.0
C922 C 0.64605 0.54363 1.01593 0.0
C923 C 0.67165 0.6124 1.00021 0.0
C924 C 0.68402 0.60669 0.99517 0.0
C925 C 0.6957 0.64245 1.00952 0.0
C926 C 0.70216 0.61897 0.99502 0.0
C927 C 0.67756 0.63019 1.009 0.0
C928 C 0.70811 0.63707 1.00061 0.0
C929 C 0.65293 0.60037 0.9908 0.0
O930 O 0.59999 0.52709 0.98042 0.0
O931 O 0.60738 0.55619 0.97289 0.0
C932 C 0.59593 0.53977 0.9833 0.0
O933 O 0.62786 0.56739 0.90158 0.0
O934 O 0.60788 0.49794 0.95736 0.0
O935 O 0.61131 0.50448 0.89432 0.0
O936 O 0.60774 0.53769 0.89484 0.0
C937 C 0.6143 0.5544 0.88297 0.0
O938 O 0.66045 0.56585 0.94115 0.0
O939 O 0.64663 0.53959 0.90606 0.0
O940 O 0.64277 0.53287 0.9851 0.0
O941 O 0.64968 0.59616 0.95315 0.0
O942 O 0.64461 0.58663 1.01404 0.0
O943 O 0.63729 0.55214 1.01753 0.0
C944 C 0.58823 0.47463 0.91168 0.0
C945 C 0.57968 0.47144 0.87425 0.0
C946 C 0.56753 0.44355 0.92907 0.0
C947 C 0.56536 0.45455 0.86435 0.0
C948 C 0.58181 0.46042 0.93897 0.0
C949 C 0.55915 0.44018 0.89135 0.0
C950 C 0.60502 0.49174 0.92085 0.0
C951 C 0.66109 0.55454 0.91595 0.0
H952 H 0.67963 0.59291 0.98885 0.0
H953 H 0.6999 0.65635 1.01341 0.0
H954 H 0.71144 0.61451 0.9881 0.0
H955 H 0.66817 0.63478 1.01295 0.0
H956 H 0.58433 0.48188 0.85207 0.0
H957 H 0.56313 0.43309 0.95115 0.0
H958 H 0.55955 0.45265 0.83484 0.0
H959 H 0.58813 0.46222 0.96786 0.0
Eu960 Eu 0.61841 0.86093 0.76697 0.0
Eu961 Eu 0.6436 0.90278 0.79315 0.0
C962 C 0.65293 0.88931 0.71197 0.0
C963 C 0.59867 0.80969 0.74014 0.0
C964 C 0.6043 0.80656 0.70309 0.0
C965 C 0.58792 0.7785 0.75733 0.0
C966 C 0.60169 0.78965 0.69327 0.0
C967 C 0.59055 0.79539 0.76714 0.0
C968 C 0.59323 0.7752 0.71999 0.0
C969 C 0.5991 0.82685 0.74914 0.0
O970 O 0.61831 0.90107 0.76896 0.0
O971 O 0.60556 0.87471 0.73432 0.0
C972 C 0.6062 0.88974 0.74401 0.0
O973 O 0.60271 0.86808 0.81321 0.0
O974 O 0.65988 0.93104 0.78094 0.0
O975 O 0.65447 0.92193 0.84209 0.0
O976 O 0.62729 0.88768 0.84612 0.0
C977 C 0.61002 0.87898 0.84395 0.0
O978 O 0.63939 0.86176 0.80935 0.0
O979 O 0.6613 0.89084 0.80286 0.0
O980 O 0.65225 0.90229 0.73019 0.0
O981 O 0.60241 0.83303 0.78567 0.0
O982 O 0.60568 0.8396 0.72265 0.0
O983 O 0.64269 0.87262 0.72385 0.0
C984 C 0.65354 0.94767 0.82535 0.0
C985 C 0.63535 0.94159 0.82061 0.0
C986 C 0.65922 0.9778 0.82919 0.0
C987 C 0.62927 0.95366 0.81787 0.0
C988 C 0.66534 0.96574 0.83114 0.0
C989 C 0.64127 0.97191 0.82072 0.0
C990 C 0.66032 0.93553 0.81822 0.0
C991 C 0.65615 0.87431 0.81281 0.0
H992 H 0.61034 0.81706 0.68112 0.0
H993 H 0.58162 0.76798 0.77918 0.0
H994 H 0.60583 0.78781 0.66403 0.0
H995 H 0.58582 0.79715 0.79573 0.0
H996 H 0.62603 0.92761 0.81656 0.0
H997 H 0.6688 0.99184 0.83095 0.0
H998 H 0.6154 0.94882 0.81129 0.0
H999 H 0.67941 0.97063 0.8347 0.0
Eu1000 Eu 0.19694 0.76814 0.77046 0.0
Eu1001 Eu 0.15589 0.75288 0.79819 0.0
C1002 C 0.16844 0.7742 0.715 0.0
C1003 C 0.24803 0.7988 0.74283 0.0
C1004 C 0.25111 0.80784 0.70611 0.0
C1005 C 0.27927 0.81888 0.76 0.0
C1006 C 0.26804 0.82211 0.69643 0.0
C1007 C 0.26236 0.80466 0.76966 0.0
C1008 C 0.28252 0.82776 0.72298 0.0
C1009 C 0.23081 0.78217 0.75176 0.0
O1010 O 0.15655 0.72842 0.7762 0.0
O1011 O 0.18227 0.74124 0.73929 0.0
C1012 C 0.16731 0.72711 0.75045 0.0
O1013 O 0.18992 0.74556 0.81746 0.0
O1014 O 0.12727 0.73615 0.7927 0.0
O1015 O 0.13851 0.75282 0.84502 0.0
O1016 O 0.17083 0.75106 0.85095 0.0
C1017 C 0.17943 0.74238 0.84875 0.0
O1018 O 0.19703 0.78892 0.81219 0.0
O1019 O 0.16862 0.7828 0.80173 0.0
O1020 O 0.15538 0.76129 0.73495 0.0
O1021 O 0.22483 0.77931 0.78841 0.0
O1022 O 0.21795 0.77631 0.72555 0.0
O1023 O 0.18521 0.78033 0.726 0.0
C1024 C 0.11382 0.72463 0.8547 0.0
C1025 C 0.11796 0.71105 0.85877 0.0
C1026 C 0.08803 0.70813 0.89636 0.0
C1027 C 0.10676 0.69572 0.88041 0.0
C1028 C 0.09922 0.7234 0.87479 0.0
C1029 C 0.09126 0.69379 0.89809 0.0
C1030 C 0.12436 0.73987 0.8287 0.0
C1031 C 0.18496 0.79381 0.81326 0.0
H1032 H 0.24055 0.80363 0.68431 0.0
H1033 H 0.28983 0.82286 0.78169 0.0
H1034 H 0.26987 0.82833 0.66746 0.0
H1035 H 0.26061 0.79795 0.798 0.0
H1036 H 0.12945 0.71199 0.8439 0.0
H1037 H 0.07612 0.70711 0.90901 0.0
H1038 H 0.10973 0.68504 0.8815 0.0
H1039 H 0.09601 0.73389 0.87231 0.0
Eu1040 Eu 0.28747 0.4398 0.77243 0.0
Eu1041 Eu 0.30356 0.41429 0.7997 0.0
C1042 C 0.28114 0.40511 0.71768 0.0
C1043 C 0.25593 0.4592 0.7442 0.0
C1044 C 0.24692 0.45287 0.70753 0.0
C1045 C 0.23526 0.46976 0.76019 0.0
C1046 C 0.23239 0.45504 0.69728 0.0
C1047 C 0.24974 0.46756 0.77042 0.0
C1048 C 0.22641 0.46376 0.72319 0.0
C1049 C 0.2728 0.45911 0.75366 0.0
O1050 O 0.32752 0.43948 0.77627 0.0
O1051 O 0.31421 0.45232 0.74059 0.0
C1052 C 0.32849 0.45157 0.75093 0.0
O1053 O 0.3102 0.45546 0.81913 0.0
O1054 O 0.31628 0.39863 0.78881 0.0
O1055 O 0.30993 0.4021 0.84936 0.0
O1056 O 0.30476 0.43079 0.85229 0.0
C1057 C 0.31353 0.44807 0.85015 0.0
O1058 O 0.26711 0.41896 0.81452 0.0
O1059 O 0.27382 0.39679 0.80751 0.0
O1060 O 0.29444 0.40535 0.7368 0.0
O1061 O 0.27565 0.45594 0.79035 0.0
O1062 O 0.27911 0.45255 0.72754 0.0
O1063 O 0.27496 0.41565 0.7289 0.0
C1064 C 0.33703 0.40311 0.83808 0.0
C1065 C 0.34965 0.42126 0.83593 0.0
C1066 C 0.36057 0.39642 0.8477 0.0
C1067 C 0.36772 0.4269 0.83793 0.0
C1068 C 0.34253 0.3908 0.84553 0.0
C1069 C 0.37334 0.41443 0.8424 0.0
C1070 C 0.31861 0.39691 0.82669 0.0
C1071 C 0.2626 0.4021 0.81746 0.0
H1072 H 0.25136 0.44658 0.68618 0.0
H1073 H 0.23105 0.47627 0.78145 0.0
H1074 H 0.22622 0.45037 0.66834 0.0
H1075 H 0.2564 0.4728 0.7987 0.0
H1076 H 0.34556 0.43094 0.83015 0.0
H1077 H 0.36452 0.38648 0.85045 0.0
H1078 H 0.37729 0.44081 0.83346 0.0
H1079 H 0.33294 0.37676 0.84712 0.0
Eu1080 Eu 0.53662 0.93799 0.11199 0.0
Eu1081 Eu 0.57879 0.96389 0.09348 0.0
C1082 C 0.56321 0.96966 0.17271 0.0
C1083 C 0.48516 0.91747 0.1361 0.0
C1084 C 0.48239 0.92451 0.1715 0.0
C1085 C 0.45359 0.90502 0.12051 0.0
C1086 C 0.46544 0.92173 0.18135 0.0
C1087 C 0.47052 0.90783 0.11066 0.0
C1088 C 0.45064 0.9117 0.15632 0.0
C1089 C 0.50242 0.91816 0.12738 0.0
O1090 O 0.57705 0.9384 0.11549 0.0
O1091 O 0.54955 0.92434 0.14499 0.0
C1092 C 0.56501 0.92552 0.13766 0.0
O1093 O 0.54519 0.92427 0.06366 0.0
O1094 O 0.60444 0.98713 0.10722 0.0
O1095 O 0.60217 0.96986 0.05831 0.0
O1096 O 0.5662 0.94992 0.03601 0.0
C1097 C 0.55691 0.93257 0.03475 0.0
O1098 O 0.53772 0.95934 0.07083 0.0
O1099 O 0.56678 0.98122 0.07882 0.0
O1100 O 0.57508 0.96593 0.15934 0.0
O1101 O 0.50897 0.92211 0.09124 0.0
O1102 O 0.51485 0.92439 0.15467 0.0
O1103 O 0.54753 0.96226 0.15487 0.0
C1104 C 0.62629 0.97883 0.10279 0.0
C1105 C 0.62614 0.9627 0.09728 0.0
C1106 C 0.64879 0.98698 0.15408 0.0
C1107 C 0.63717 0.95875 0.12012 0.0
C1108 C 0.63791 0.99101 0.13102 0.0
C1109 C 0.64838 0.97073 0.14917 0.0
C1110 C 0.61285 0.98196 0.08343 0.0
C1111 C 0.55036 0.97607 0.06774 0.0
H1112 H 0.49323 0.93183 0.19219 0.0
H1113 H 0.44276 0.89749 0.09994 0.0
H1114 H 0.46386 0.92698 0.20938 0.0
H1115 H 0.47206 0.90205 0.08338 0.0
H1116 H 0.6172 0.95289 0.07607 0.0
H1117 H 0.65767 0.99667 0.1756 0.0
H1118 H 0.63669 0.9462 0.11559 0.0
H1119 H 0.63821 1.00346 0.136 0.0
Eu1120 Eu 0.11635 0.60888 0.11503 0.0
Eu1121 Eu 0.09104 0.6253 0.08811 0.0
C1122 C 0.08175 0.60263 0.1698 0.0
C1123 C 0.13596 0.57741 0.14281 0.0
C1124 C 0.13071 0.56898 0.18036 0.0
C1125 C 0.14608 0.5565 0.12554 0.0
C1126 C 0.13321 0.55462 0.19039 0.0
C1127 C 0.14355 0.57081 0.11552 0.0
C1128 C 0.14119 0.54826 0.16338 0.0
C1129 C 0.13568 0.5942 0.13347 0.0
O1130 O 0.11627 0.6491 0.11191 0.0
O1131 O 0.12887 0.63552 0.1474 0.0
C1132 C 0.12826 0.64989 0.13732 0.0
O1133 O 0.13203 0.63163 0.06852 0.0
O1134 O 0.07535 0.63797 0.09934 0.0
O1135 O 0.0792 0.63218 0.03858 0.0
O1136 O 0.10738 0.62633 0.03544 0.0
C1137 C 0.12465 0.63502 0.03755 0.0
O1138 O 0.09531 0.58853 0.07313 0.0
O1139 O 0.07338 0.59561 0.07979 0.0
O1140 O 0.08204 0.61599 0.15087 0.0
O1141 O 0.13242 0.59702 0.09684 0.0
O1142 O 0.12913 0.60046 0.15973 0.0
O1143 O 0.09224 0.59641 0.1585 0.0
C1144 C 0.08022 0.65923 0.05114 0.0
C1145 C 0.09842 0.6717 0.05323 0.0
C1146 C 0.07379 0.68306 0.04403 0.0
C1147 C 0.10421 0.68983 0.0525 0.0
C1148 C 0.06803 0.66496 0.0449 0.0
C1149 C 0.09186 0.69567 0.04952 0.0
C1150 C 0.0739 0.64068 0.06156 0.0
C1151 C 0.07852 0.58424 0.06996 0.0
H1152 H 0.12507 0.57377 0.20254 0.0
H1153 H 0.15198 0.55196 0.10346 0.0
H1154 H 0.1294 0.54892 0.21997 0.0
H1155 H 0.14798 0.57702 0.08654 0.0
H1156 H 0.10802 0.66744 0.05802 0.0
H1157 H 0.0639 0.68711 0.04226 0.0
H1158 H 0.11817 0.69924 0.05678 0.0
H1159 H 0.05395 0.65549 0.04333 0.0
Eu1160 Eu 0.44666 0.51995 0.11808 0.0
Eu1161 Eu 0.43112 0.47877 0.09053 0.0
C1162 C 0.45255 0.49141 0.17361 0.0
C1163 C 0.47636 0.57103 0.14789 0.0
C1164 C 0.47404 0.58511 0.16059 0.0
C1165 C 0.50846 0.59072 0.15488 0.0
C1166 C 0.48863 0.60177 0.17008 0.0
C1167 C 0.49376 0.57398 0.14518 0.0
C1168 C 0.50615 0.60498 0.16727 0.0
C1169 C 0.46031 0.55375 0.1373 0.0
O1170 O 0.40672 0.47964 0.11192 0.0
O1171 O 0.41976 0.50531 0.14909 0.0
C1172 C 0.40554 0.49045 0.13774 0.0
O1173 O 0.42417 0.51304 0.07077 0.0
O1174 O 0.41435 0.45017 0.0965 0.0
O1175 O 0.43088 0.46116 0.04396 0.0
O1176 O 0.42935 0.49363 0.03758 0.0
C1177 C 0.42085 0.50241 0.0396 0.0
O1178 O 0.46734 0.51987 0.07646 0.0
O1179 O 0.46099 0.49137 0.08682 0.0
O1180 O 0.43945 0.47839 0.15393 0.0
O1181 O 0.45855 0.54793 0.10064 0.0
O1182 O 0.45425 0.54084 0.16332 0.0
O1183 O 0.45886 0.50818 0.16239 0.0
C1184 C 0.40264 0.43649 0.03477 0.0
C1185 C 0.38914 0.44073 0.0305 0.0
C1186 C 0.38593 0.41051 0.99365 0.0
C1187 C 0.37376 0.42951 1.00902 0.0
C1188 C 0.40125 0.42172 1.01508 0.0
C1189 C 0.3717 0.41389 0.99166 0.0
C1190 C 0.41796 0.4471 0.06054 0.0
C1191 C 0.47207 0.50768 0.07525 0.0
H1192 H 0.46081 0.58324 0.16312 0.0
H1193 H 0.52165 0.59257 0.15196 0.0
H1194 H 0.48609 0.6121 0.18014 0.0
H1195 H 0.49599 0.5634 0.13538 0.0
H1196 H 0.39021 0.45234 0.04507 0.0
H1197 H 0.3848 0.3985 0.98127 0.0
H1198 H 0.36315 0.43258 1.00772 0.0
H1199 H 0.41167 0.41842 1.01773 0.0
Eu1200 Eu 0.09149 0.47698 0.58649 0.0
Eu1201 Eu 0.11728 0.51881 0.61495 0.0
C1202 C 0.12536 0.50098 0.53723 0.0
C1203 C 0.08219 0.43324 0.54614 0.0
C1204 C 0.1003 0.43898 0.55097 0.0
C1205 C 0.07653 0.40367 0.53159 0.0
C1206 C 0.10633 0.42687 0.54819 0.0
C1207 C 0.07049 0.41575 0.53474 0.0
C1208 C 0.09433 0.40892 0.54028 0.0
C1209 C 0.07528 0.44478 0.55833 0.0
O1210 O 0.09577 0.51851 0.57504 0.0
O1211 O 0.07413 0.48908 0.57568 0.0
C1212 C 0.07922 0.50585 0.56896 0.0
O1213 O 0.07751 0.47756 0.64234 0.0
O1214 O 0.13315 0.54673 0.59624 0.0
O1215 O 0.13052 0.54009 0.65917 0.0
O1216 O 0.09459 0.50687 0.66196 0.0
C1217 C 0.08062 0.49069 0.66654 0.0
O1218 O 0.1158 0.47783 0.61513 0.0
O1219 O 0.13053 0.50519 0.64577 0.0
O1220 O 0.13273 0.51147 0.56855 0.0
O1221 O 0.07686 0.44848 0.59642 0.0
O1222 O 0.0799 0.45874 0.53616 0.0
O1223 O 0.10812 0.49276 0.53462 0.0
C1224 C 0.13702 0.56989 0.64246 0.0
C1225 C 0.13226 0.57308 0.68053 0.0
C1226 C 0.14658 0.60081 0.62513 0.0
C1227 C 0.13473 0.58989 0.69078 0.0
C1228 C 0.14409 0.58402 0.6149 0.0
C1229 C 0.14218 0.60418 0.66346 0.0
C1230 C 0.13677 0.55287 0.63277 0.0
C1231 C 0.12871 0.48949 0.63816 0.0
H1232 H 0.10954 0.45254 0.5595 0.0
H1233 H 0.0669 0.38989 0.52586 0.0
H1234 H 0.1201 0.43128 0.55493 0.0
H1235 H 0.0565 0.41116 0.5308 0.0
H1236 H 0.12704 0.56271 0.70293 0.0
H1237 H 0.15207 0.61121 0.60282 0.0
H1238 H 0.13132 0.59181 0.72074 0.0
H1239 H 0.14813 0.58221 0.58549 0.0
Eu1240 Eu 0.5787 0.62623 0.58956 0.0
Eu1241 Eu 0.53694 0.60994 0.61611 0.0
C1242 C 0.55476 0.63562 0.53824 0.0
C1243 C 0.62327 0.66037 0.55283 0.0
C1244 C 0.61773 0.6729 0.55754 0.0
C1245 C 0.65336 0.68418 0.54282 0.0
C1246 C 0.63014 0.69101 0.55722 0.0
C1247 C 0.64098 0.66607 0.54382 0.0
C1248 C 0.64817 0.69677 0.55147 0.0
C1249 C 0.61117 0.64175 0.56292 0.0
O1250 O 0.53768 0.58945 0.57475 0.0
O1251 O 0.56671 0.59656 0.58167 0.0
C1252 C 0.55019 0.58516 0.57184 0.0
O1253 O 0.57842 0.6169 0.65232 0.0
O1254 O 0.50897 0.5978 0.59767 0.0
O1255 O 0.51577 0.60179 0.66055 0.0
O1256 O 0.54859 0.59757 0.66005 0.0
C1257 C 0.5653 0.60366 0.67135 0.0
O1258 O 0.57726 0.65005 0.61289 0.0
O1259 O 0.55099 0.63678 0.64782 0.0
O1260 O 0.54409 0.63255 0.56909 0.0
O1261 O 0.60709 0.63885 0.60069 0.0
O1262 O 0.59733 0.63331 0.53994 0.0
O1263 O 0.56305 0.62663 0.53671 0.0
C1264 C 0.48595 0.57842 0.64408 0.0
C1265 C 0.4831 0.57009 0.68169 0.0
C1266 C 0.45484 0.55731 0.62764 0.0
C1267 C 0.46637 0.55567 0.69214 0.0
C1268 C 0.47156 0.57169 0.6172 0.0
C1269 C 0.45182 0.54913 0.66552 0.0
C1270 C 0.50292 0.59523 0.63427 0.0
C1271 C 0.56607 0.65105 0.63779 0.0
H1272 H 0.60401 0.66867 0.56404 0.0
H1273 H 0.66722 0.68823 0.53882 0.0
H1274 H 0.62582 0.70043 0.56394 0.0
H1275 H 0.64544 0.65656 0.54012 0.0
H1276 H 0.49369 0.57497 0.70358 0.0
H1277 H 0.44424 0.55265 0.60584 0.0
H1278 H 0.46475 0.55005 0.72176 0.0
H1279 H 0.4731 0.57783 0.58819 0.0
Eu1280 Eu 0.42987 0.96429 0.59402 0.0
Eu1281 Eu 0.44641 0.93877 0.61512 0.0
C1282 C 0.42013 0.93194 0.53824 0.0
C1283 C 0.39408 0.9748 0.58179 0.0
C1284 C 0.38129 0.9598 0.56066 0.0
C1285 C 0.37054 0.97469 0.6205 0.0
C1286 C 0.36326 0.95234 0.56945 0.0
C1287 C 0.38847 0.98229 0.61133 0.0
C1288 C 0.3578 0.95954 0.59999 0.0
C1289 C 0.41319 0.98125 0.57733 0.0
O1290 O 0.46624 0.96007 0.57302 0.0
O1291 O 0.45928 0.982 0.58234 0.0
C1292 C 0.47044 0.97687 0.57062 0.0
O1293 O 0.43682 0.96868 0.65935 0.0
O1294 O 0.4586 0.9232 0.59516 0.0
O1295 O 0.45489 0.92555 0.6584 0.0
O1296 O 0.45967 0.9631 0.65802 0.0
C1297 C 0.45193 0.97141 0.6741 0.0
O1298 O 0.40615 0.93863 0.61501 0.0
O1299 O 0.41972 0.92535 0.64768 0.0
O1300 O 0.4238 0.92402 0.56766 0.0
O1301 O 0.42182 0.98346 0.61068 0.0
O1302 O 0.41769 0.97353 0.55017 0.0
O1303 O 0.42839 0.94927 0.53829 0.0
C1304 C 0.47823 0.91933 0.64051 0.0
C1305 C 0.48724 0.92546 0.67724 0.0
C1306 C 0.49884 0.90878 0.62375 0.0
C1307 C 0.50175 0.92319 0.68712 0.0
C1308 C 0.48437 0.91108 0.61388 0.0
C1309 C 0.50771 0.91459 0.66078 0.0
C1310 C 0.46136 0.91948 0.63145 0.0
C1311 C 0.40534 0.92615 0.63867 0.0
H1312 H 0.38519 0.95358 0.53794 0.0
H1313 H 0.3666 0.98081 0.64341 0.0
H1314 H 0.35363 0.94083 0.55288 0.0
H1315 H 0.39803 0.99377 0.62813 0.0
H1316 H 0.48284 0.93166 0.6989 0.0
H1317 H 0.50303 0.90237 0.60219 0.0
H1318 H 0.50793 0.92771 0.71611 0.0
H1319 H 0.47769 0.90599 0.58556 0.0
Eu1320 Eu 0.15591 0.4141 0.30144 0.0
Eu1321 Eu 0.19702 0.43988 0.27045 0.0
C1322 C 0.18018 0.44852 0.34886 0.0
C1323 C 0.11442 0.40385 0.35591 0.0
C1324 C 0.11915 0.4218 0.35381 0.0
C1325 C 0.08805 0.39747 0.39276 0.0
C1326 C 0.10794 0.42741 0.36963 0.0
C1327 C 0.09925 0.39189 0.3769 0.0
C1328 C 0.09182 0.4151 0.38759 0.0
C1329 C 0.12475 0.39743 0.33448 0.0
O1330 O 0.1974 0.41898 0.31137 0.0
O1331 O 0.16835 0.39685 0.3079 0.0
C1332 C 0.18506 0.40219 0.31583 0.0
O1333 O 0.15528 0.40056 0.2438 0.0
O1334 O 0.22504 0.45632 0.28777 0.0
O1335 O 0.21785 0.45268 0.22511 0.0
O1336 O 0.18471 0.41664 0.22463 0.0
C1337 C 0.16828 0.40311 0.21974 0.0
O1338 O 0.15609 0.43829 0.27417 0.0
O1339 O 0.18262 0.45251 0.24018 0.0
O1340 O 0.19011 0.45568 0.31675 0.0
O1341 O 0.1272 0.40135 0.29647 0.0
O1342 O 0.13917 0.40005 0.35242 0.0
O1343 O 0.17228 0.43132 0.35215 0.0
C1344 C 0.24783 0.45962 0.24131 0.0
C1345 C 0.25093 0.45474 0.2033 0.0
C1346 C 0.27872 0.46904 0.25866 0.0
C1347 C 0.26767 0.45706 0.19309 0.0
C1348 C 0.26199 0.4667 0.26885 0.0
C1349 C 0.28198 0.46448 0.2204 0.0
C1350 C 0.23085 0.45943 0.25098 0.0
C1351 C 0.16715 0.45085 0.24964 0.0
H1352 H 0.13106 0.43128 0.33824 0.0
H1353 H 0.0757 0.38754 0.40601 0.0
H1354 H 0.11132 0.44109 0.36559 0.0
H1355 H 0.09557 0.37805 0.37919 0.0
H1356 H 0.24054 0.44952 0.18092 0.0
H1357 H 0.28914 0.47452 0.28095 0.0
H1358 H 0.26951 0.45354 0.16318 0.0
H1359 H 0.26027 0.47085 0.29821 0.0
Eu1360 Eu 0.64292 0.75266 0.29751 0.0
Eu1361 Eu 0.61743 0.76876 0.27034 0.0
C1362 C 0.60911 0.74263 0.34791 0.0
C1363 C 0.65333 0.71855 0.33436 0.0
C1364 C 0.63519 0.70617 0.33006 0.0
C1365 C 0.65934 0.6945 0.34366 0.0
C1366 C 0.6293 0.68802 0.33026 0.0
C1367 C 0.66525 0.71266 0.34279 0.0
C1368 C 0.64147 0.68207 0.33544 0.0
C1369 C 0.65995 0.73719 0.32421 0.0
O1370 O 0.63832 0.78926 0.31219 0.0
O1371 O 0.66043 0.78241 0.30588 0.0
C1372 C 0.65516 0.79372 0.3154 0.0
O1373 O 0.65208 0.76205 0.23484 0.0
O1374 O 0.60105 0.78025 0.28874 0.0
O1375 O 0.60452 0.77706 0.22578 0.0
O1376 O 0.64149 0.7813 0.22668 0.0
C1377 C 0.65215 0.77524 0.21561 0.0
O1378 O 0.61781 0.72879 0.27337 0.0
O1379 O 0.60497 0.74216 0.23804 0.0
O1380 O 0.60181 0.74602 0.31681 0.0
O1381 O 0.65869 0.74006 0.28643 0.0
O1382 O 0.65468 0.74573 0.34715 0.0
O1383 O 0.62638 0.75124 0.35019 0.0
C1384 C 0.59714 0.79966 0.24309 0.0
C1385 C 0.60399 0.80925 0.20733 0.0
C1386 C 0.58514 0.81915 0.25863 0.0
C1387 C 0.60135 0.82351 0.1973 0.0
C1388 C 0.58781 0.80494 0.26865 0.0
C1389 C 0.59167 0.82859 0.22252 0.0
C1390 C 0.59774 0.78304 0.25214 0.0
C1391 C 0.60572 0.72787 0.2481 0.0
H1392 H 0.62577 0.71055 0.32395 0.0
H1393 H 0.66905 0.6903 0.34722 0.0
H1394 H 0.61549 0.67872 0.32386 0.0
H1395 H 0.67928 0.72205 0.34613 0.0
H1396 H 0.61104 0.80549 0.18652 0.0
H1397 H 0.57788 0.82269 0.27932 0.0
H1398 H 0.60646 0.83019 0.16904 0.0
H1399 H 0.58217 0.79778 0.2962 0.0
Eu1400 Eu 0.30329 0.89997 0.28845 0.0
Eu1401 Eu 0.28708 0.85773 0.26938 0.0
C1402 C 0.31327 0.87817 0.34651 0.0
C1403 C 0.33492 0.94761 0.27792 0.0
C1404 C 0.35056 0.94656 0.2779 0.0
C1405 C 0.3482 0.97137 0.22924 0.0
C1406 C 0.36483 0.95774 0.25354 0.0
C1407 C 0.33399 0.96028 0.25378 0.0
C1408 C 0.36366 0.97004 0.22846 0.0
C1409 C 0.31884 0.93404 0.29832 0.0
O1410 O 0.26678 0.85858 0.31066 0.0
O1411 O 0.27404 0.88773 0.30386 0.0
C1412 C 0.26277 0.87126 0.3145 0.0
O1413 O 0.29743 0.89629 0.22258 0.0
O1414 O 0.27506 0.82999 0.28925 0.0
O1415 O 0.27923 0.83614 0.22605 0.0
O1416 O 0.27364 0.86867 0.22673 0.0
C1417 C 0.28182 0.8844 0.20916 0.0
O1418 O 0.32701 0.89846 0.26572 0.0
O1419 O 0.31373 0.87079 0.23685 0.0
O1420 O 0.30947 0.86629 0.31769 0.0
O1421 O 0.30497 0.92536 0.27538 0.0
O1422 O 0.32094 0.92358 0.32286 0.0
O1423 O 0.30541 0.88765 0.34568 0.0
C1424 C 0.25713 0.80623 0.24325 0.0
C1425 C 0.25929 0.79161 0.23499 0.0
C1426 C 0.22525 0.7871 0.23123 0.0
C1427 C 0.24474 0.77499 0.22507 0.0
C1428 C 0.23991 0.80382 0.24126 0.0
C1429 C 0.2274 0.77233 0.22303 0.0
C1430 C 0.2732 0.82363 0.25306 0.0
C1431 C 0.32793 0.88638 0.24386 0.0
H1432 H 0.35163 0.93677 0.29583 0.0
H1433 H 0.34712 0.98106 0.21091 0.0
H1434 H 0.3766 0.9565 0.25363 0.0
H1435 H 0.32206 0.96125 0.25305 0.0
H1436 H 0.2724 0.79307 0.23598 0.0
H1437 H 0.21219 0.78572 0.23042 0.0
H1438 H 0.24722 0.76426 0.2183 0.0
H1439 H 0.2378 0.81484 0.24744 0.0
H1440 H 0.2795 0.09752 1.01422 0.0
H1441 H 0.21224 0.9918 1.02007 0.0
H1442 H 0.22911 0.0734 0.07503 0.0
H1443 H 0.26242 1.01638 0.95846 0.0
H1444 H 0.21838 1.02129 0.0418 0.0
H1445 H 0.27359 0.06798 0.99453 0.0
C1446 C 0.26714 0.0861 1.0234 0.0
C1447 C 0.25484 0.08826 0.0465 0.0
C1448 C 0.22808 1.02023 1.02362 0.0
C1449 C 0.248 0.05392 1.02404 0.0
C1450 C 0.22459 1.00332 1.01122 0.0
C1451 C 0.23679 1.00137 0.98725 0.0
C1452 C 0.24391 0.03551 1.0121 0.0
C1453 C 0.25254 1.01701 0.97681 0.0
C1454 C 0.26382 0.06912 1.01225 0.0
C1455 C 0.23921 0.07264 0.05779 0.0
N1456 N 0.25559 0.03327 0.98916 0.0
N1457 N 0.23626 0.05629 0.04646 0.0
H1458 H 0.06258 0.23014 1.01535 0.0
H1459 H 0.95754 0.19499 1.02211 0.0
H1460 H 0.03937 0.25953 0.96499 0.0
H1461 H 0.98115 0.164 0.05956 0.0
H1462 H 0.98722 0.2195 1.00515 0.0
H1463 H 1.03302 0.20682 0.03555 0.0
C1464 C 0.05133 0.23183 1.00874 0.0
C1465 C 0.05372 0.24703 0.98834 0.0
C1466 C 0.9859 0.20734 1.0171 0.0
C1467 C 1.01936 0.21996 1.01156 0.0
C1468 C 0.9689 0.19331 1.02708 0.0
C1469 C 0.96658 0.17715 0.0422 0.0
C1470 C 1.00091 0.20543 1.02251 0.0
C1471 C 0.98202 0.17594 0.04742 0.0
C1472 C 0.03435 0.21839 1.02023 0.0
C1473 C 0.03838 0.24818 0.98066 0.0
N1474 N 0.99835 0.18976 0.0377 0.0
N1475 N 1.02197 0.2349 0.99218 0.0
H1476 H 0.79909 0.79359 0.95302 0.0
H1477 H 0.89014 0.82625 0.07504 0.0
H1478 H 0.8253 0.84277 1.01876 0.0
H1479 H 0.86418 0.77763 1.00717 0.0
H1480 H 0.86636 0.83212 0.05641 0.0
H1481 H 0.82233 0.78733 0.97388 0.0
C1482 C 0.80965 0.8031 0.97202 0.0
C1483 C 0.81003 0.8188 0.98405 0.0
C1484 C 0.86583 0.82015 0.04561 0.0
C1485 C 0.8371 0.81159 1.0082 0.0
C1486 C 0.87942 0.81667 0.0565 0.0
C1487 C 0.87939 0.80131 0.04294 0.0
C1488 C 0.85185 0.80823 1.02083 0.0
C1489 C 0.86511 0.78974 1.01818 0.0
C1490 C 0.82302 0.79948 0.98391 0.0
C1491 C 0.82427 0.83049 1.00868 0.0
N1492 N 0.85203 0.79341 1.00809 0.0
N1493 N 0.83715 0.82667 1.01979 0.0
H1494 H 1.00431 0.20293 0.52991 0.0
H1495 H 0.11008 0.26911 0.5441 0.0
H1496 H 1.02842 0.25172 0.59721 0.0
H1497 H 0.08614 0.22038 0.47649 0.0
H1498 H 0.08045 0.26308 0.56319 0.0
H1499 H 0.03394 0.2093 0.50911 0.0
C1500 C 1.01576 0.21504 0.54021 0.0
C1501 C 1.01362 0.22677 0.56545 0.0
C1502 C 0.08165 0.2537 0.54411 0.0
C1503 C 0.04797 0.23416 0.54167 0.0
C1504 C 0.09868 0.25709 0.5333 0.0
C1505 C 0.10094 0.24529 0.50844 0.0
C1506 C 0.06647 0.23833 0.53024 0.0
C1507 C 0.08534 0.2301 0.49514 0.0
C1508 C 1.03277 0.21866 0.52833 0.0
C1509 C 1.0292 0.24221 0.57774 0.0
N1510 N 0.06894 0.22708 0.50619 0.0
N1511 N 0.04556 0.2454 0.56588 0.0
H1512 H 0.78861 0.85213 0.54077 0.0
H1513 H 0.85499 0.81274 0.53163 0.0
H1514 H 0.83805 0.87723 0.47606 0.0
H1515 H 0.80595 0.7882 0.59779 0.0
H1516 H 0.8487 0.83595 0.50971 0.0
H1517 H 0.79452 0.82853 0.56094 0.0
C1518 C 0.80076 0.85282 0.53083 0.0
C1519 C 0.8128 0.86695 0.50648 0.0
C1520 C 0.83927 0.82546 0.52893 0.0
C1521 C 0.81961 0.83947 0.52948 0.0
C1522 C 0.84285 0.81212 0.54145 0.0
C1523 C 0.83102 0.7983 0.56671 0.0
C1524 C 0.82372 0.82518 0.54162 0.0
C1525 C 0.81553 0.79845 0.57835 0.0
C1526 C 0.80407 0.83918 0.54225 0.0
C1527 C 0.82815 0.86664 0.49426 0.0
N1528 N 0.81239 0.81159 0.56585 0.0
N1529 N 0.83109 0.85326 0.50588 0.0
H1530 H 0.1727 0.96991 0.49154 0.0
H1531 H 0.27009 0.02864 0.58685 0.0
H1532 H 0.20558 0.94802 0.52612 0.0
H1533 H 0.23976 0.05121 0.53858 0.0
H1534 H 0.24669 0.99921 0.56571 0.0
H1535 H 0.19677 0.99947 0.50956 0.0
C1536 C 0.18493 0.97122 0.50307 0.0
C1537 C 0.18687 0.95616 0.50742 0.0
C1538 C 0.24514 1.01058 0.55954 0.0
C1539 C 0.21489 0.99049 0.52812 0.0
C1540 C 0.25857 0.0275 0.57165 0.0
C1541 C 0.25708 0.04267 0.56457 0.0
C1542 C 0.22984 1.00854 0.54033 0.0
C1543 C 0.24167 0.04007 0.54468 0.0
C1544 C 0.19878 0.98824 0.51316 0.0
C1545 C 0.20334 0.95907 0.52186 0.0
N1546 N 0.22872 0.02344 0.53353 0.0
N1547 N 0.21657 0.97576 0.53184 0.0
H1548 H 0.80526 0.02837 0.10151 0.0
H1549 H 0.83659 0.97054 0.9734 0.0
H1550 H 0.85254 0.05156 0.02919 0.0
H1551 H 0.7896 0.94736 0.04677 0.0
H1552 H 0.84221 1.00006 0.99217 0.0
H1553 H 0.79907 0.99883 0.08082 0.0
C1554 C 0.81434 0.02734 0.08108 0.0
C1555 C 0.82948 0.04272 0.06711 0.0
C1556 C 0.83064 0.98853 1.00416 0.0
C1557 C 0.82239 1.00848 0.04324 0.0
C1558 C 0.82731 0.97153 0.99319 0.0
C1559 C 0.81249 0.95611 1.00823 0.0
C1560 C 0.81913 0.99042 0.03053 0.0
C1561 C 0.80131 0.95864 0.03455 0.0
C1562 C 0.81077 1.01035 0.06932 0.0
C1563 C 0.84069 0.04024 0.04081 0.0
N1564 N 0.80483 0.97532 0.04471 0.0
N1565 N 0.83694 0.02357 0.02986 0.0
H1566 H 0.08591 0.8773 0.97414 0.0
H1567 H 1.02787 0.78693 0.09848 0.0
H1568 H 0.10881 0.85196 0.04365 0.0
H1569 H 1.00472 0.81259 0.03109 0.0
H1570 H 0.05733 0.81012 0.07741 0.0
H1571 H 0.05633 0.85355 0.99302 0.0
C1572 C 0.08484 0.86673 0.99309 0.0
C1573 C 0.10022 0.86687 1.00703 0.0
C1574 C 0.04584 0.8107 0.06707 0.0
C1575 C 0.06583 0.83935 0.02944 0.0
C1576 C 1.02888 0.79736 0.07907 0.0
C1577 C 1.01351 0.79759 0.06664 0.0
C1578 C 0.04774 0.82462 0.04226 0.0
C1579 C 1.01601 0.81167 0.04151 0.0
C1580 C 0.06781 0.85315 1.00414 0.0
C1581 C 0.09759 0.85276 0.03232 0.0
N1582 N 1.03267 0.82453 0.03029 0.0
N1583 N 0.08088 0.83969 0.04254 0.0
H1584 H 0.27016 0.25203 0.07539 0.0
H1585 H 0.16976 0.21187 0.99812 0.0
H1586 H 0.23653 0.19692 0.04458 0.0
H1587 H 0.20542 0.26779 1.01635 0.0
H1588 H 0.19375 0.20614 1.01556 0.0
H1589 H 0.24671 0.25793 0.05428 0.0
C1590 C 0.25789 0.24112 0.06404 0.0
C1591 C 0.25549 0.22388 0.06191 0.0
C1592 C 0.19638 0.21968 1.01569 0.0
C1593 C 0.22819 0.23067 0.03768 0.0
C1594 C 0.18259 0.22299 1.00594 0.0
C1595 C 0.18535 0.2404 1.00588 0.0
C1596 C 0.21324 0.23381 1.02584 0.0
C1597 C 0.20253 0.25418 1.01559 0.0
C1598 C 0.24444 0.24455 0.05193 0.0
C1599 C 0.23915 0.21042 0.04676 0.0
N1600 N 0.21569 0.25058 1.02533 0.0
N1601 N 0.22618 0.21407 0.03551 0.0
H1602 H 0.03982 0.79329 0.45219 0.0
H1603 H 0.9823 0.82581 0.57738 0.0
H1604 H 0.06318 0.84193 0.52006 0.0
H1605 H 0.95908 0.77747 0.50841 0.0
H1606 H 1.01179 0.83152 0.55818 0.0
H1607 H 1.0104 0.78705 0.47361 0.0
C1608 C 0.03886 0.80267 0.47178 0.0
C1609 C 0.05426 0.81821 0.48425 0.0
C1610 C 1.00026 0.81964 0.54726 0.0
C1611 C 1.02013 0.81106 0.50899 0.0
C1612 C 0.98329 0.81626 0.55848 0.0
C1613 C 0.96786 0.80104 0.54478 0.0
C1614 C 1.00211 0.80776 0.522 0.0
C1615 C 0.97036 0.78949 0.51955 0.0
C1616 C 1.02194 0.79908 0.48397 0.0
C1617 C 0.05185 0.82977 0.5096 0.0
N1618 N 0.98702 0.79307 0.50913 0.0
N1619 N 0.03523 0.82598 0.52099 0.0
H1620 H 0.27973 0.19279 0.51221 0.0
H1621 H 0.21273 0.23144 0.52103 0.0
H1622 H 0.22965 0.16655 0.57425 0.0
H1623 H 0.26272 0.25714 0.4586 0.0
H1624 H 0.21888 0.20801 0.54209 0.0
H1625 H 0.27383 0.21652 0.49323 0.0
C1626 C 0.26744 0.19189 0.5218 0.0
C1627 C 0.25522 0.1774 0.54503 0.0
C1628 C 0.22853 0.2188 0.52388 0.0
C1629 C 0.24839 0.205 0.52341 0.0
C1630 C 0.22504 0.23227 0.51187 0.0
C1631 C 0.23718 0.24646 0.48789 0.0
C1632 C 0.24431 0.21937 0.51193 0.0
C1633 C 0.25288 0.24659 0.47702 0.0
C1634 C 0.26412 0.20559 0.51107 0.0
C1635 C 0.23967 0.17742 0.55688 0.0
N1636 N 0.25594 0.23333 0.48898 0.0
N1637 N 0.23673 0.19088 0.54594 0.0
H1638 H 0.86339 0.09794 0.51483 0.0
H1639 H 0.82873 0.9929 0.51449 0.0
H1640 H 0.89252 0.07515 0.56863 0.0
H1641 H 0.79956 1.01615 0.46309 0.0
H1642 H 0.85195 0.02262 0.53539 0.0
H1643 H 0.83999 0.06813 0.49605 0.0
C1644 C 0.86499 0.08675 0.52263 0.0
C1645 C 0.88018 0.08935 0.54352 0.0
C1646 C 0.84044 1.02121 0.51965 0.0
C1647 C 0.85299 0.05471 0.52211 0.0
C1648 C 0.8271 1.00417 0.50773 0.0
C1649 C 0.81199 1.0018 0.48687 0.0
C1650 C 0.83883 0.03617 0.51071 0.0
C1651 C 0.81085 1.01712 0.47902 0.0
C1652 C 0.85148 0.06962 0.51203 0.0
C1653 C 0.88109 0.07402 0.55313 0.0
N1654 N 0.824 0.0335 0.49078 0.0
N1655 N 0.8678 0.05751 0.54233 0.0
H1656 H 0.89339 0.4077 0.40767 0.0
H1657 H 0.92815 0.34909 0.29523 0.0
H1658 H 0.9442 0.42994 0.34921 0.0
H1659 H 0.87654 0.32626 0.34997 0.0
H1660 H 0.93435 0.37847 0.31644 0.0
H1661 H 0.88728 0.37799 0.38883 0.0
C1662 C 0.90338 0.40644 0.39116 0.0
C1663 C 0.91943 0.42167 0.38028 0.0
C1664 C 0.92167 0.36708 0.32397 0.0
C1665 C 0.91228 0.38719 0.35797 0.0
C1666 C 0.91808 0.35016 0.31187 0.0
C1667 C 0.90172 0.33491 0.32068 0.0
C1668 C 0.90887 0.36908 0.34526 0.0
C1669 C 0.88933 0.33747 0.34241 0.0
C1670 C 0.89978 0.38935 0.38014 0.0
C1671 C 0.93156 0.41884 0.35807 0.0
N1672 N 0.89314 0.35413 0.35382 0.0
N1673 N 0.92775 0.40209 0.34782 0.0
H1674 H 0.7301 0.56553 0.35557 0.0
H1675 H 0.62434 0.52608 0.34292 0.0
H1676 H 0.70587 0.59011 0.28808 0.0
H1677 H 0.64844 0.50134 0.41035 0.0
H1678 H 0.65393 0.54963 0.32326 0.0
H1679 H 0.70052 0.54236 0.37693 0.0
C1680 C 0.71863 0.56618 0.34534 0.0
C1681 C 0.72072 0.58 0.31989 0.0
C1682 C 0.65277 0.53907 0.34243 0.0
C1683 C 0.68643 0.55315 0.34431 0.0
C1684 C 0.63577 0.52546 0.35357 0.0
C1685 C 0.63358 0.51144 0.37854 0.0
C1686 C 0.66798 0.53887 0.35609 0.0
C1687 C 0.6492 0.51184 0.39162 0.0
C1688 C 0.70166 0.55285 0.35755 0.0
C1689 C 0.70513 0.57987 0.30771 0.0
N1690 N 0.66557 0.52519 0.38026 0.0
N1691 N 0.6888 0.56674 0.31989 0.0
H1692 H 0.46536 0.1276 0.2807 0.0
H1693 H 0.55467 0.15826 0.40834 0.0
H1694 H 0.49003 0.17501 0.35282 0.0
H1695 H 0.53034 0.11129 0.33471 0.0
H1696 H 0.53091 0.16415 0.38981 0.0
H1697 H 0.48854 0.12115 0.30129 0.0
C1698 C 0.47556 0.13665 0.30107 0.0
C1699 C 0.47553 0.15191 0.31501 0.0
C1700 C 0.53072 0.15253 0.37771 0.0
C1701 C 0.50251 0.14452 0.33876 0.0
C1702 C 0.54431 0.14905 0.38854 0.0
C1703 C 0.54472 0.13415 0.37334 0.0
C1704 C 0.51721 0.14109 0.35135 0.0
C1705 C 0.5309 0.12305 0.34703 0.0
C1706 C 0.48889 0.13294 0.31277 0.0
C1707 C 0.48933 0.16307 0.34123 0.0
N1708 N 0.51782 0.12672 0.33702 0.0
N1709 N 0.50217 0.15918 0.35213 0.0
H1710 H 0.77503 0.60089 0.87467 0.0
H1711 H 0.66931 0.53408 0.86665 0.0
H1712 H 0.75082 0.55089 0.81193 0.0
H1713 H 0.69397 0.58375 0.93061 0.0
H1714 H 0.69878 0.54023 0.84497 0.0
H1715 H 0.74552 0.59498 0.89439 0.0
C1716 C 0.76359 0.58861 0.86508 0.0
C1717 C 0.76572 0.57642 0.84143 0.0
C1718 C 0.69775 0.54981 0.86365 0.0
C1719 C 0.73142 0.56959 0.8639 0.0
C1720 C 0.68085 0.54632 0.87603 0.0
C1721 C 0.67893 0.55837 0.90061 0.0
C1722 C 0.71304 0.56551 0.87583 0.0
C1723 C 0.69458 0.57399 0.91173 0.0
C1724 C 0.74664 0.58529 0.87624 0.0
C1725 C 0.75008 0.5609 0.82961 0.0
N1726 N 0.71082 0.57705 0.89939 0.0
N1727 N 0.73375 0.55796 0.84096 0.0
H1728 H 0.47166 0.12105 0.93421 0.0
H1729 H 0.50325 0.21127 0.80973 0.0
H1730 H 0.51998 0.14654 0.8655 0.0
H1731 H 0.45552 0.18611 0.88053 0.0
H1732 H 0.50917 0.18751 0.82822 0.0
H1733 H 0.46531 0.14427 0.9136 0.0
C1734 C 0.48094 0.13145 0.91458 0.0
C1735 C 0.49643 0.13163 0.90162 0.0
C1736 C 0.49738 0.18715 0.8397 0.0
C1737 C 0.48913 0.15867 0.87781 0.0
C1738 C 0.49388 0.20073 0.82889 0.0
C1739 C 0.47876 0.20091 0.84331 0.0
C1740 C 0.48573 0.1734 0.86526 0.0
C1741 C 0.46745 0.18686 0.86883 0.0
C1742 C 0.47728 0.14481 0.90286 0.0
C1743 C 0.50787 0.14567 0.87631 0.0
N1744 N 0.47114 0.17379 0.87883 0.0
N1745 N 0.50401 0.15854 0.86536 0.0
H1746 H 0.84334 0.30329 0.8089 0.0
H1747 H 0.93676 0.36116 0.92262 0.0
H1748 H 0.87086 0.28012 0.86871 0.0
H1749 H 0.90825 0.38397 0.86582 0.0
H1750 H 0.91344 0.33168 0.90148 0.0
H1751 H 0.86734 0.33276 0.82758 0.0
C1752 C 0.85445 0.30429 0.82566 0.0
C1753 C 0.85487 0.28889 0.83692 0.0
C1754 C 0.91229 0.34311 0.89347 0.0
C1755 C 0.88268 0.32312 0.85912 0.0
C1756 C 0.9257 0.36007 0.90547 0.0
C1757 C 0.92467 0.37533 0.89607 0.0
C1758 C 0.89755 0.34115 0.87171 0.0
C1759 C 0.9098 0.37277 0.87384 0.0
C1760 C 0.86818 0.32125 0.8366 0.0
C1761 C 0.86966 0.2914 0.85951 0.0
N1762 N 0.89692 0.35613 0.86257 0.0
N1763 N 0.88287 0.30805 0.86971 0.0
H1764 H 0.45502 0.28033 0.37891 0.0
H1765 H 0.52122 0.38614 0.36716 0.0
H1766 H 0.50405 0.30447 0.31267 0.0
H1767 H 0.47221 0.36174 0.43343 0.0
H1768 H 0.51496 0.35658 0.34589 0.0
H1769 H 0.46099 0.30991 0.39845 0.0
C1770 C 0.46709 0.29177 0.36851 0.0
C1771 C 0.47899 0.28959 0.34391 0.0
C1772 C 0.50554 0.35768 0.36498 0.0
C1773 C 0.48588 0.32398 0.3662 0.0
C1774 C 0.5091 0.37464 0.37713 0.0
C1775 C 0.49726 0.37667 0.40222 0.0
C1776 C 0.49 0.34242 0.37791 0.0
C1777 C 0.4818 0.36105 0.4141 0.0
C1778 C 0.47044 0.30876 0.37957 0.0
C1779 C 0.49426 0.30522 0.33111 0.0
N1780 N 0.47867 0.34473 0.40198 0.0
N1781 N 0.49724 0.32159 0.34239 0.0
H1782 H 0.66942 0.14456 0.36067 0.0
H1783 H 0.77519 0.18533 0.37856 0.0
H1784 H 0.69357 0.12115 0.43255 0.0
H1785 H 0.75106 0.20903 0.3075 0.0
H1786 H 0.7456 0.16169 0.39786 0.0
H1787 H 0.69903 0.1678 0.33987 0.0
C1788 C 0.68089 0.14419 0.372 0.0
C1789 C 0.67877 0.13067 0.39847 0.0
C1790 C 0.74675 0.17204 0.37798 0.0
C1791 C 0.71309 0.1576 0.37468 0.0
C1792 C 0.76376 0.1857 0.36703 0.0
C1793 C 0.76594 0.19945 0.34116 0.0
C1794 C 0.73155 0.17193 0.36318 0.0
C1795 C 0.75031 0.19874 0.32696 0.0
C1796 C 0.69788 0.15755 0.3601 0.0
C1797 C 0.69435 0.13114 0.41204 0.0
N1798 N 0.73394 0.18535 0.33815 0.0
N1799 N 0.71071 0.14431 0.40012 0.0
H1800 H 0.87026 0.60185 0.37607 0.0
H1801 H 0.90905 0.53499 0.36562 0.0
H1802 H 0.84442 0.55215 0.31216 0.0
H1803 H 0.93449 0.58461 0.42979 0.0
H1804 H 0.88572 0.54126 0.34452 0.0
H1805 H 0.89394 0.59589 0.39516 0.0
C1806 C 0.86944 0.58963 0.36609 0.0
C1807 C 0.85508 0.57754 0.3423 0.0
C1808 C 0.89644 0.55081 0.36311 0.0
C1809 C 0.88262 0.57065 0.36404 0.0
C1810 C 0.90985 0.54725 0.37515 0.0
C1811 C 0.92394 0.55925 0.39963 0.0
C1812 C 0.89695 0.56652 0.37554 0.0
C1813 C 0.92402 0.57489 0.41097 0.0
C1814 C 0.88311 0.58628 0.37688 0.0
C1815 C 0.85519 0.56208 0.32997 0.0
N1816 N 0.91082 0.57802 0.39897 0.0
N1817 N 0.86862 0.55911 0.34099 0.0
H1818 H 0.70573 0.12683 0.78166 0.0
H1819 H 0.64852 0.15936 0.90832 0.0
H1820 H 0.72928 0.17526 0.85026 0.0
H1821 H 0.62504 0.11136 0.83817 0.0
H1822 H 0.67795 0.16497 0.88885 0.0
H1823 H 0.67634 0.12071 0.80314 0.0
C1824 C 0.70482 0.13619 0.80143 0.0
C1825 C 0.72027 0.15164 0.8141 0.0
C1826 C 0.66638 0.15319 0.87772 0.0
C1827 C 0.68616 0.14461 0.83891 0.0
C1828 C 0.64943 0.14986 0.8891 0.0
C1829 C 0.63393 0.13476 0.87517 0.0
C1830 C 0.66815 0.14138 0.85206 0.0
C1831 C 0.63636 0.12328 0.84952 0.0
C1832 C 0.68791 0.13266 0.81365 0.0
C1833 C 0.71792 0.16317 0.83964 0.0
N1834 N 0.653 0.1268 0.83896 0.0
N1835 N 0.70131 0.15945 0.85106 0.0
H1836 H 0.92848 0.59044 0.80076 0.0
H1837 H 0.89233 0.49527 0.90604 0.0
H1838 H 0.87583 0.56027 0.84996 0.0
H1839 H 0.9442 0.5252 0.85287 0.0
H1840 H 0.88633 0.51903 0.8879 0.0
H1841 H 0.93456 0.56711 0.82151 0.0
C1842 C 0.91815 0.57896 0.81609 0.0
C1843 C 0.90154 0.5775 0.82347 0.0
C1844 C 0.89904 0.52043 0.88023 0.0
C1845 C 0.90855 0.55032 0.84748 0.0
C1846 C 0.90257 0.50685 0.89085 0.0
C1847 C 0.91889 0.50803 0.88123 0.0
C1848 C 0.91188 0.53553 0.85974 0.0
C1849 C 0.93135 0.5234 0.86069 0.0
C1850 C 0.92167 0.56555 0.82792 0.0
C1851 C 0.88883 0.56214 0.84355 0.0
N1852 N 0.92761 0.53643 0.8508 0.0
N1853 N 0.89258 0.54921 0.85471 0.0
H1854 H 0.55505 0.40745 0.91221 0.0
H1855 H 0.46427 0.34945 0.78904 0.0
H1856 H 0.52933 0.43036 0.84409 0.0
H1857 H 0.49029 0.32628 0.85499 0.0
H1858 H 0.48746 0.3789 0.81028 0.0
H1859 H 0.53127 0.37786 0.89329 0.0
C1860 C 0.54438 0.40638 0.89355 0.0
C1861 C 0.54441 0.42175 0.88 0.0
C1862 C 0.48812 0.36741 0.82027 0.0
C1863 C 0.51688 0.38738 0.85756 0.0
C1864 C 0.47478 0.35046 0.80816 0.0
C1865 C 0.47513 0.33509 0.82012 0.0
C1866 C 0.50214 0.3693 0.84472 0.0
C1867 C 0.4893 0.33757 0.84494 0.0
C1868 C 0.53079 0.38934 0.88249 0.0
C1869 C 0.5302 0.41913 0.8551 0.0
N1870 N 0.50215 0.35423 0.85627 0.0
N1871 N 0.51712 0.40242 0.84484 0.0
H1872 H 0.61365 0.76558 0.67415 0.0
H1873 H 0.54611 0.66004 0.68691 0.0
H1874 H 0.56447 0.74236 0.7397 0.0
H1875 H 0.59544 0.68367 0.62192 0.0
H1876 H 0.55273 0.68981 0.70754 0.0
H1877 H 0.60726 0.73578 0.65542 0.0
C1878 C 0.60146 0.7543 0.68457 0.0
C1879 C 0.58964 0.75681 0.70873 0.0
C1880 C 0.56214 0.68849 0.68886 0.0
C1881 C 0.58224 0.72215 0.68736 0.0
C1882 C 0.55838 0.67141 0.67708 0.0
C1883 C 0.57019 0.6691 0.65254 0.0
C1884 C 0.57787 0.70358 0.67609 0.0
C1885 C 0.58585 0.68457 0.64082 0.0
C1886 C 0.59786 0.73718 0.67397 0.0
C1887 C 0.5742 0.74135 0.72159 0.0
N1888 N 0.58917 0.70099 0.65256 0.0
N1889 N 0.57097 0.72485 0.71074 0.0
H1890 H 0.31512 0.83102 0.74124 0.0
H1891 H 0.37297 0.92368 0.62537 0.0
H1892 H 0.29238 0.85837 0.67894 0.0
H1893 H 0.39628 0.89622 0.6849 0.0
H1894 H 0.34364 0.90029 0.64627 0.0
H1895 H 0.34473 0.85487 0.72276 0.0
C1896 C 0.31624 0.84206 0.72395 0.0
C1897 C 0.30093 0.84248 0.71188 0.0
C1898 C 0.35513 0.89935 0.65492 0.0
C1899 C 0.33527 0.87006 0.68999 0.0
C1900 C 0.37201 0.91279 0.643 0.0
C1901 C 0.38737 0.9121 0.65328 0.0
C1902 C 0.3533 0.88487 0.67746 0.0
C1903 C 0.38497 0.89747 0.67621 0.0
C1904 C 0.33327 0.85568 0.71315 0.0
C1905 C 0.30357 0.85715 0.68873 0.0
N1906 N 0.36835 0.88451 0.6874 0.0
N1907 N 0.32027 0.87025 0.67869 0.0
H1908 H 0.15794 0.50986 0.68602 0.0
H1909 H 0.19607 0.44239 0.67862 0.0
H1910 H 0.13144 0.45955 0.6247 0.0
H1911 H 0.22218 0.49261 0.7404 0.0
H1912 H 0.17231 0.44823 0.65922 0.0
H1913 H 0.18112 0.50345 0.70717 0.0
C1914 C 0.15687 0.4974 0.67713 0.0
C1915 C 0.1425 0.48526 0.65347 0.0
C1916 C 0.18321 0.45797 0.6771 0.0
C1917 C 0.16941 0.47783 0.67763 0.0
C1918 C 0.19694 0.45469 0.68808 0.0
C1919 C 0.2114 0.46697 0.71141 0.0
C1920 C 0.18376 0.47371 0.68926 0.0
C1921 C 0.21134 0.48253 0.72301 0.0
C1922 C 0.17021 0.49376 0.68922 0.0
C1923 C 0.14211 0.46937 0.64297 0.0
N1924 N 0.19788 0.48542 0.71182 0.0
N1925 N 0.15529 0.46617 0.65497 0.0
H1926 H 0.35998 0.91725 0.25194 0.0
H1927 H 0.41825 0.88126 0.14308 0.0
H1928 H 0.33719 0.86479 0.20134 0.0
H1929 H 0.44057 0.93321 0.1963 0.0
H1930 H 0.38864 0.87525 0.16224 0.0
H1931 H 0.38927 0.92341 0.23017 0.0
C1932 C 0.36104 0.90699 0.2361 0.0
C1933 C 0.34584 0.89041 0.22861 0.0
C1934 C 0.4 0.88798 0.1697 0.0
C1935 C 0.37987 0.89749 0.20344 0.0
C1936 C 0.41702 0.89152 0.15849 0.0
C1937 C 0.43223 0.90786 0.16782 0.0
C1938 C 0.39789 0.90084 0.19051 0.0
C1939 C 0.42947 0.92034 0.18868 0.0
C1940 C 0.3779 0.91055 0.22368 0.0
C1941 C 0.34837 0.87776 0.20786 0.0
N1942 N 0.41278 0.91659 0.19917 0.0
N1943 N 0.36496 0.88154 0.19615 0.0
H1944 H 0.16964 0.544 0.14238 0.0
H1945 H 0.13761 0.45366 0.2668 0.0
H1946 H 0.12132 0.5186 0.21113 0.0
H1947 H 0.18625 0.47954 0.19928 0.0
H1948 H 0.1311 0.47676 0.24554 0.0
H1949 H 0.17545 0.52025 0.16142 0.0
C1950 C 0.16011 0.5334 0.16119 0.0
C1951 C 0.14485 0.53352 0.17486 0.0
C1952 C 0.14317 0.47738 0.2352 0.0
C1953 C 0.1517 0.506 0.19748 0.0
C1954 C 0.14691 0.46409 0.24727 0.0
C1955 C 0.16254 0.46444 0.23485 0.0
C1956 C 0.1551 0.49131 0.21036 0.0
C1957 C 0.17402 0.47853 0.20969 0.0
C1958 C 0.16355 0.51982 0.17233 0.0
C1959 C 0.13335 0.51939 0.20001 0.0
N1960 N 0.17009 0.49131 0.19842 0.0
N1961 N 0.13698 0.50632 0.21035 0.0
H1962 H 0.5764 0.71935 0.20089 0.0
H1963 H 0.53795 0.61361 0.20499 0.0
H1964 H 0.60267 0.69507 0.26139 0.0
H1965 H 0.51019 0.63812 0.15245 0.0
H1966 H 0.56244 0.64316 0.22262 0.0
H1967 H 0.55292 0.68986 0.18006 0.0
C1968 C 0.57736 0.70789 0.20964 0.0
C1969 C 0.59172 0.70993 0.23304 0.0
C1970 C 0.55099 0.64208 0.2072 0.0
C1971 C 0.56453 0.67572 0.20915 0.0
C1972 C 0.53698 0.62513 0.19683 0.0
C1973 C 0.52172 0.6231 0.17724 0.0
C1974 C 0.54998 0.65733 0.19781 0.0
C1975 C 0.52139 0.63877 0.16808 0.0
C1976 C 0.56384 0.69096 0.19777 0.0
C1977 C 0.59198 0.69434 0.24341 0.0
N1978 N 0.53519 0.65505 0.17837 0.0
N1979 N 0.57867 0.67803 0.2315 0.0
H1980 H 0.1387 0.69452 0.7702 0.0
H1981 H 0.17 0.63704 0.64073 0.0
H1982 H 0.18606 0.71791 0.69814 0.0
H1983 H 0.12277 0.6137 0.71332 0.0
H1984 H 0.1757 0.66651 0.66017 0.0
H1985 H 0.13245 0.66505 0.74882 0.0
C1986 C 0.14778 0.69355 0.74969 0.0
C1987 C 0.16297 0.70896 0.736 0.0
C1988 C 0.16406 0.65496 0.67184 0.0
C1989 C 0.15581 0.6748 0.71132 0.0
C1990 C 0.16068 0.63799 0.66048 0.0
C1991 C 0.14578 0.62254 0.67512 0.0
C1992 C 0.1525 0.65678 0.69819 0.0
C1993 C 0.13454 0.62501 0.70142 0.0
C1994 C 0.14419 0.6766 0.73753 0.0
C1995 C 0.17418 0.70656 0.70956 0.0
N1996 N 0.13812 0.64166 0.71196 0.0
N1997 N 0.1704 0.68993 0.69822 0.0
H1998 H 0.44288 0.51975 0.71356 0.0
H1999 H 0.33707 0.4798 0.69978 0.0
H2000 H 0.41867 0.54411 0.64512 0.0
H2001 H 0.36137 0.45557 0.76828 0.0
H2002 H 0.36664 0.50303 0.67854 0.0
H2003 H 0.41331 0.49616 0.73323 0.0
C2004 C 0.43143 0.52028 0.70269 0.0
C2005 C 0.43359 0.5342 0.67743 0.0
C2006 C 0.36552 0.49261 0.69812 0.0
C2007 C 0.39921 0.50673 0.6999 0.0
C2008 C 0.34855 0.47925 0.71026 0.0
C2009 C 0.34648 0.4655 0.73594 0.0
C2010 C 0.38076 0.49242 0.71165 0.0
C2011 C 0.36209 0.46575 0.74845 0.0
C2012 C 0.41444 0.50664 0.71384 0.0
C2013 C 0.41794 0.53369 0.66407 0.0
N2014 N 0.37842 0.4789 0.73631 0.0
N2015 N 0.40158 0.52032 0.67546 0.0
H2016 H 0.57716 0.8692 0.69542 0.0
H2017 H 0.53799 0.93579 0.70553 0.0
H2018 H 0.60268 0.91905 0.75863 0.0
H2019 H 0.51211 0.88591 0.64237 0.0
H2020 H 0.56179 0.92999 0.72443 0.0
H2021 H 0.55367 0.87528 0.67453 0.0
C2022 C 0.57795 0.88147 0.70478 0.0
C2023 C 0.59212 0.89359 0.72893 0.0
C2024 C 0.55093 0.92031 0.70637 0.0
C2025 C 0.56491 0.90065 0.70508 0.0
C2026 C 0.53717 0.92357 0.69568 0.0
C2027 C 0.52275 0.91137 0.67214 0.0
C2028 C 0.55048 0.90467 0.69368 0.0
C2029 C 0.52291 0.89592 0.65998 0.0
C2030 C 0.56443 0.88493 0.69286 0.0
C2031 C 0.59216 0.90924 0.74007 0.0
N2032 N 0.53641 0.89303 0.67089 0.0
N2033 N 0.57886 0.91226 0.72819 0.0
H2034 H 0.29103 0.4446 0.17101 0.0
H2035 H 0.39678 0.50945 0.19018 0.0
H2036 H 0.31505 0.49209 0.24295 0.0
H2037 H 0.37273 0.46211 0.11779 0.0
H2038 H 0.36713 0.50305 0.21072 0.0
H2039 H 0.32066 0.45062 0.15187 0.0
C2040 C 0.30245 0.45634 0.18276 0.0
C2041 C 0.30023 0.4678 0.20883 0.0
C2042 C 0.36832 0.49401 0.19044 0.0
C2043 C 0.33465 0.47474 0.187 0.0
C2044 C 0.38532 0.49766 0.17868 0.0
C2045 C 0.38748 0.48633 0.15215 0.0
C2046 C 0.35312 0.4789 0.17564 0.0
C2047 C 0.37192 0.47127 0.13835 0.0
C2048 C 0.31947 0.45972 0.17191 0.0
C2049 C 0.31583 0.48264 0.22332 0.0
N2050 N 0.35554 0.46805 0.15013 0.0
N2051 N 0.33222 0.48566 0.21222 0.0
H2052 H 0.61334 0.85989 0.1818 0.0
H2053 H 0.54346 0.89511 0.18143 0.0
H2054 H 0.56167 0.83126 0.23645 0.0
H2055 H 0.59544 0.92359 0.12823 0.0
H2056 H 0.54992 0.87192 0.20281 0.0
H2057 H 0.607 0.88329 0.16253 0.0
C2058 C 0.60062 0.8584 0.18969 0.0
C2059 C 0.58808 0.84335 0.21096 0.0
C2060 C 0.55994 0.88327 0.18656 0.0
C2061 C 0.58072 0.87054 0.18898 0.0
C2062 C 0.55626 0.8966 0.17436 0.0
C2063 C 0.56887 0.91149 0.15286 0.0
C2064 C 0.57638 0.8847 0.17727 0.0
C2065 C 0.58522 0.91246 0.14465 0.0
C2066 C 0.59704 0.8719 0.1788 0.0
C2067 C 0.57194 0.84258 0.22066 0.0
N2068 N 0.58844 0.89933 0.15671 0.0
N2069 N 0.56875 0.85587 0.20959 0.0
H2070 H 0.19718 0.76409 0.17864 0.0
H2071 H 0.15667 0.65808 0.1875 0.0
H2072 H 0.22181 0.73892 0.24238 0.0
H2073 H 0.13217 0.68291 0.122 0.0
H2074 H 0.18002 0.68746 0.2094 0.0
H2075 H 0.17283 0.7347 0.15971 0.0
C2076 C 0.1975 0.75247 0.189 0.0
C2077 C 0.21186 0.75429 0.21215 0.0
C2078 C 0.16951 0.68651 0.19035 0.0
C2079 C 0.18376 0.72019 0.18994 0.0
C2080 C 0.15608 0.66964 0.17783 0.0
C2081 C 0.14224 0.66778 0.15276 0.0
C2082 C 0.16929 0.70186 0.17787 0.0
C2083 C 0.14244 0.68349 0.14131 0.0
C2084 C 0.18356 0.7356 0.17788 0.0
C2085 C 0.21136 0.73846 0.22396 0.0
N2086 N 0.15567 0.69973 0.15382 0.0
N2087 N 0.19768 0.72225 0.21277 0.0
H2088 H 0.31534 0.17407 0.17543 0.0
H2089 H 0.41883 0.20757 0.21334 0.0
H2090 H 0.35676 0.22817 0.15654 0.0
H2091 H 0.3769 0.15365 0.23152 0.0
H2092 H 0.39658 0.21552 0.19299 0.0
H2093 H 0.33772 0.16665 0.19689 0.0
C2094 C 0.32912 0.18447 0.17597 0.0
C2095 C 0.33402 0.20185 0.1641 0.0
C2096 C 0.39224 0.20194 0.20139 0.0
C2097 C 0.36002 0.19328 0.18866 0.0
C2098 C 0.40498 0.19736 0.21299 0.0
C2099 C 0.39987 0.17985 0.22418 0.0
C2100 C 0.37412 0.18897 0.2009 0.0
C2101 C 0.38162 0.1673 0.22314 0.0
C2102 C 0.34196 0.18017 0.18819 0.0
C2103 C 0.35222 0.21462 0.16545 0.0
N2104 N 0.36951 0.17208 0.2118 0.0
N2105 N 0.36448 0.21009 0.17736 0.0
H2106 H 0.88446 0.15511 0.16726 0.0
H2107 H 0.85057 0.22432 0.21157 0.0
H2108 H 0.83023 0.14266 0.15217 0.0
H2109 H 0.90501 0.23738 0.22622 0.0
H2110 H 0.84309 0.1946 0.18928 0.0
H2111 H 0.89231 0.18514 0.1886 0.0
C2112 C 0.87416 0.15861 0.1685 0.0
C2113 C 0.85659 0.14612 0.15788 0.0
C2114 C 0.85669 0.20395 0.19724 0.0
C2115 C 0.8656 0.18082 0.18236 0.0
C2116 C 0.86102 0.22104 0.20996 0.0
C2117 C 0.87852 0.23361 0.22086 0.0
C2118 C 0.86989 0.19915 0.19529 0.0
C2119 C 0.89135 0.2283 0.21812 0.0
C2120 C 0.87868 0.17584 0.18067 0.0
C2121 C 0.84393 0.15167 0.16005 0.0
N2122 N 0.8868 0.21157 0.20575 0.0
N2123 N 0.84866 0.16848 0.17197 0.0
H2124 H 0.83187 0.63742 0.21509 0.0
H2125 H 0.90195 0.74021 0.16972 0.0
H2126 H 0.81935 0.6793 0.22643 0.0
H2127 H 0.91445 0.69831 0.15853 0.0
H2128 H 0.87185 0.71824 0.19058 0.0
H2129 H 0.86195 0.65939 0.19419 0.0
C2130 C 0.83535 0.6512 0.21308 0.0
C2131 C 0.82282 0.65636 0.22258 0.0
C2132 C 0.88117 0.71383 0.18365 0.0
C2133 C 0.85766 0.68186 0.1986 0.0
C2134 C 0.89846 0.72642 0.17175 0.0
C2135 C 0.91098 0.72126 0.16232 0.0
C2136 C 0.87613 0.69577 0.18624 0.0
C2137 C 0.90541 0.70306 0.16551 0.0
C2138 C 0.85263 0.6638 0.20115 0.0
C2139 C 0.82839 0.67455 0.2194 0.0
N2140 N 0.88852 0.69107 0.17709 0.0
N2141 N 0.84528 0.68655 0.20779 0.0
H2142 H 0.16329 0.36626 0.32662 0.0
H2143 H 0.24077 0.34708 0.39572 0.0
H2144 H 0.21815 0.40724 0.33628 0.0
H2145 H 0.18598 0.30632 0.38259 0.0
H2146 H 0.2329 0.36922 0.37434 0.0
H2147 H 0.17144 0.34437 0.34753 0.0
C2148 C 0.17707 0.37074 0.33324 0.0
C2149 C 0.19 0.38879 0.32966 0.0
C2150 C 0.2226 0.35543 0.37603 0.0
C2151 C 0.19952 0.36345 0.35375 0.0
C2152 C 0.22708 0.34271 0.38822 0.0
C2153 C 0.21406 0.32465 0.39099 0.0
C2154 C 0.2049 0.35021 0.3665 0.0
C2155 C 0.19655 0.31999 0.38091 0.0
C2156 C 0.18173 0.35814 0.34517 0.0
C2157 C 0.20766 0.39356 0.33862 0.0
N2158 N 0.19252 0.33262 0.36925 0.0
N2159 N 0.21186 0.38103 0.3502 0.0
H2160 H 0.64969 0.82122 0.33737 0.0
H2161 H 0.75291 0.89144 0.37722 0.0
H2162 H 0.69145 0.80867 0.32401 0.0
H2163 H 0.71128 0.90408 0.39211 0.0
H2164 H 0.7307 0.86138 0.35687 0.0
H2165 H 0.67187 0.85146 0.35705 0.0
C2166 C 0.66349 0.82473 0.3387 0.0
C2167 C 0.66855 0.81214 0.32901 0.0
C2168 C 0.72639 0.87072 0.36444 0.0
C2169 C 0.69428 0.84715 0.3515 0.0
C2170 C 0.73913 0.888 0.37602 0.0
C2171 C 0.73412 0.90055 0.38643 0.0
C2172 C 0.70832 0.86569 0.36315 0.0
C2173 C 0.71592 0.89503 0.38432 0.0
C2174 C 0.6762 0.8421 0.3499 0.0
C2175 C 0.68677 0.81774 0.33125 0.0
N2176 N 0.70377 0.87812 0.37305 0.0
N2177 N 0.69887 0.83471 0.34215 0.0
H2178 H 0.23517 0.83852 0.33718 0.0
H2179 H 0.16637 0.8727 0.38326 0.0
H2180 H 0.24864 0.89322 0.32572 0.0
H2181 H 0.15297 0.81796 0.3926 0.0
H2182 H 0.19644 0.88052 0.36275 0.0
H2183 H 0.20531 0.83095 0.35843 0.0
C2184 C 0.23195 0.84901 0.33931 0.0
C2185 C 0.24467 0.86661 0.32961 0.0
C2186 C 0.18692 0.86679 0.36921 0.0
C2187 C 0.21007 0.85788 0.35394 0.0
C2188 C 0.16966 0.86227 0.38089 0.0
C2189 C 0.15689 0.84458 0.38967 0.0
C2190 C 0.19167 0.85356 0.36622 0.0
C2191 C 0.16219 0.83177 0.38612 0.0
C2192 C 0.21479 0.84463 0.35141 0.0
C2193 C 0.23944 0.87949 0.33291 0.0
N2194 N 0.17906 0.8365 0.37478 0.0
N2195 N 0.22265 0.87488 0.34468 0.0
H2196 H 0.71055 0.81796 0.89239 0.0
H2197 H 0.69227 0.89616 0.82325 0.0
H2198 H 0.75184 0.87261 0.88112 0.0
H2199 H 0.6511 0.84148 0.83501 0.0
H2200 H 0.71413 0.8879 0.84451 0.0
H2201 H 0.68876 0.82632 0.87135 0.0
C2202 C 0.71511 0.83172 0.88538 0.0
C2203 C 0.73322 0.84454 0.88857 0.0
C2204 C 0.70032 0.87769 0.84255 0.0
C2205 C 0.70803 0.85431 0.86439 0.0
C2206 C 0.68775 0.88242 0.83044 0.0
C2207 C 0.66965 0.86956 0.8273 0.0
C2208 C 0.69491 0.85991 0.85168 0.0
C2209 C 0.66481 0.85194 0.83698 0.0
C2210 C 0.70258 0.83651 0.87338 0.0
C2211 C 0.73812 0.86219 0.8791 0.0
N2212 N 0.67728 0.84768 0.84861 0.0
N2213 N 0.72567 0.86651 0.86754 0.0
H2214 H 0.16336 0.8084 0.82026 0.0
H2215 H 0.24037 0.9044 0.89446 0.0
H2216 H 0.21767 0.82141 0.83726 0.0
H2217 H 0.18574 0.89065 0.87942 0.0
H2218 H 0.23253 0.87445 0.8729 0.0
H2219 H 0.17144 0.83842 0.84126 0.0
C2220 C 0.17701 0.81751 0.82847 0.0
C2221 C 0.18981 0.81216 0.82694 0.0
C2222 C 0.22225 0.87797 0.87421 0.0
C2223 C 0.19924 0.84698 0.85113 0.0
C2224 C 0.22673 0.89516 0.88649 0.0
C2225 C 0.21375 0.90027 0.88881 0.0
C2226 C 0.20461 0.86559 0.86404 0.0
C2227 C 0.19628 0.88749 0.87813 0.0
C2228 C 0.18162 0.83475 0.84047 0.0
C2229 C 0.20728 0.82478 0.83797 0.0
N2230 N 0.19227 0.87087 0.86632 0.0
N2231 N 0.21145 0.8415 0.8495 0.0
H2232 H 0.1658 0.30481 0.88666 0.0
H2233 H 0.23489 0.40747 0.83772 0.0
H2234 H 0.15205 0.34601 0.89063 0.0
H2235 H 0.24808 0.36598 0.82862 0.0
H2236 H 0.2048 0.38532 0.85813 0.0
H2237 H 0.1959 0.32692 0.86615 0.0
C2238 C 0.16901 0.31847 0.88309 0.0
C2239 C 0.15613 0.32339 0.89036 0.0
C2240 C 0.21427 0.38103 0.85176 0.0
C2241 C 0.19098 0.34905 0.86694 0.0
C2242 C 0.23155 0.39373 0.84014 0.0
C2243 C 0.24426 0.38873 0.8314 0.0
C2244 C 0.20943 0.36304 0.85483 0.0
C2245 C 0.23889 0.3706 0.83504 0.0
C2246 C 0.1863 0.33114 0.87139 0.0
C2247 C 0.16135 0.34143 0.88529 0.0
N2248 N 0.222 0.35851 0.8464 0.0
N2249 N 0.17826 0.35351 0.87403 0.0
H2250 H 0.88399 0.74009 0.6722 0.0
H2251 H 0.85038 0.63681 0.71349 0.0
H2252 H 0.82964 0.69847 0.65781 0.0
H2253 H 0.90471 0.67832 0.72888 0.0
H2254 H 0.84272 0.65909 0.69229 0.0
H2255 H 0.89184 0.71782 0.6926 0.0
C2256 C 0.87365 0.7263 0.67343 0.0
C2257 C 0.85605 0.7213 0.66325 0.0
C2258 C 0.85634 0.66336 0.70017 0.0
C2259 C 0.86509 0.69548 0.68661 0.0
C2260 C 0.86077 0.65058 0.71224 0.0
C2261 C 0.87829 0.65554 0.72303 0.0
C2262 C 0.86946 0.6814 0.69878 0.0
C2263 C 0.89105 0.67372 0.72081 0.0
C2264 C 0.87818 0.71354 0.68506 0.0
C2265 C 0.84336 0.7031 0.66541 0.0
N2266 N 0.88639 0.6859 0.70907 0.0
N2267 N 0.84811 0.69095 0.67675 0.0
H2268 H 0.31527 0.15331 0.67175 0.0
H2269 H 0.41815 0.22389 0.71456 0.0
H2270 H 0.35736 0.14139 0.65589 0.0
H2271 H 0.37608 0.23602 0.7274 0.0
H2272 H 0.39624 0.19377 0.6935 0.0
H2273 H 0.33723 0.18336 0.69292 0.0
C2274 C 0.3291 0.15692 0.67285 0.0
C2275 C 0.33431 0.14457 0.66198 0.0
C2276 C 0.39178 0.20301 0.70083 0.0
C2277 C 0.35981 0.17938 0.68626 0.0
C2278 C 0.40434 0.22031 0.71284 0.0
C2279 C 0.39911 0.23274 0.7228 0.0
C2280 C 0.37369 0.19787 0.69869 0.0
C2281 C 0.38088 0.22707 0.72 0.0
C2282 C 0.34169 0.17418 0.68491 0.0
C2283 C 0.35257 0.15029 0.664 0.0
N2284 N 0.36893 0.21016 0.70834 0.0
N2285 N 0.36456 0.16717 0.6758 0.0
H2286 H 0.90223 0.17319 0.66909 0.0
H2287 H 0.83185 0.20579 0.71115 0.0
H2288 H 0.91474 0.22756 0.65664 0.0
H2289 H 0.81953 0.1515 0.72421 0.0
H2290 H 0.86204 0.21395 0.69095 0.0
H2291 H 0.87209 0.16509 0.68936 0.0
C2292 C 0.89874 0.18349 0.67073 0.0
C2293 C 0.91128 0.20116 0.66111 0.0
C2294 C 0.85274 0.20023 0.69815 0.0
C2295 C 0.87637 0.19183 0.68434 0.0
C2296 C 0.8354 0.19552 0.70966 0.0
C2297 C 0.8229 0.17785 0.71942 0.0
C2298 C 0.85784 0.18725 0.69628 0.0
C2299 C 0.82854 0.16527 0.71695 0.0
C2300 C 0.88142 0.17881 0.6823 0.0
C2301 C 0.9057 0.21379 0.66379 0.0
N2302 N 0.84548 0.17019 0.70572 0.0
N2303 N 0.88877 0.2089 0.67504 0.0
H2304 H 1.02393 0.56179 0.49252 0.0
H2305 H 0.0434 0.4838 0.55583 0.0
H2306 H 0.98319 0.50684 0.50246 0.0
H2307 H 0.08396 0.53897 0.55048 0.0
H2308 H 1.02141 0.49194 0.53536 0.0
H2309 H 0.04602 0.55373 0.51299 0.0
C2310 C 1.01956 0.54802 0.49912 0.0
C2311 C 1.00151 0.53503 0.49573 0.0
C2312 C 0.03511 0.50229 0.53856 0.0
C2313 C 1.02703 0.52562 0.51918 0.0
C2314 C 0.04777 0.49764 0.5502 0.0
C2315 C 0.06573 0.51067 0.5549 0.0
C2316 C 0.04029 0.52017 0.5314 0.0
C2317 C 0.07036 0.52839 0.54724 0.0
C2318 C 1.03225 0.54342 0.5108 0.0
C2319 C 0.99685 0.5174 0.50467 0.0
N2320 N 0.05779 0.53258 0.53594 0.0
N2321 N 1.00946 0.51325 0.51585 0.0
H2322 H 0.57218 0.57108 0.56232 0.0
H2323 H 0.49471 0.47424 0.49383 0.0
H2324 H 0.5174 0.55717 0.54999 0.0
H2325 H 0.54951 0.48821 0.50616 0.0
H2326 H 0.5027 0.50433 0.51445 0.0
H2327 H 0.56415 0.54099 0.54174 0.0
C2328 C 0.55845 0.56177 0.55516 0.0
C2329 C 0.5455 0.56689 0.55792 0.0
C2330 C 0.51299 0.50083 0.51275 0.0
C2331 C 0.53613 0.53201 0.53429 0.0
C2332 C 0.50843 0.48356 0.50099 0.0
C2333 C 0.5214 0.47846 0.49822 0.0
C2334 C 0.53073 0.51333 0.5219 0.0
C2335 C 0.53897 0.49136 0.50787 0.0
C2336 C 0.55387 0.54449 0.54343 0.0
C2337 C 0.52792 0.55401 0.54829 0.0
N2338 N 0.54308 0.50807 0.51916 0.0
N2339 N 0.52379 0.53728 0.53701 0.0
H2340 H 0.57979 0.03156 0.48426 0.0
H2341 H 0.48461 1.01306 0.56242 0.0
H2342 H 0.5671 0.07301 0.50229 0.0
H2343 H 0.49775 0.9719 0.54458 0.0
H2344 H 0.51443 0.03507 0.54004 0.0
H2345 H 0.54988 1.00969 0.50595 0.0
C2346 C 0.57077 0.03614 0.49284 0.0
C2347 C 0.57618 0.05431 0.49139 0.0
C2348 C 0.5108 1.02122 0.54091 0.0
C2349 C 0.5415 0.02903 0.51639 0.0
C2350 C 0.49368 1.00857 0.55365 0.0
C2351 C 0.48845 0.99044 0.55543 0.0
C2352 C 0.52297 1.01585 0.52975 0.0
C2353 C 0.50101 0.98563 0.54373 0.0
C2354 C 0.5536 0.02356 0.50524 0.0
C2355 C 0.56368 0.05923 0.50292 0.0
N2356 N 0.51757 0.99819 0.53151 0.0
N2357 N 0.54703 0.04673 0.51485 0.0
H2358 H 0.51781 0.97081 0.04307 0.0
H2359 H 0.55086 0.07413 1.00413 0.0
H2360 H 0.57204 1.01241 0.05937 0.0
H2361 H 0.49666 0.03224 0.98923 0.0
H2362 H 0.55893 0.05195 1.02404 0.0
H2363 H 0.51005 0.99307 1.02255 0.0
C2364 C 0.52816 0.9846 0.04217 0.0
C2365 C 0.54568 0.98958 0.05301 0.0
C2366 C 0.54526 0.04759 1.01649 0.0
C2367 C 0.53673 1.01544 0.02952 0.0
C2368 C 0.5406 0.0603 1.00515 0.0
C2369 C 0.52298 0.05519 0.99497 0.0
C2370 C 0.53227 0.02949 1.01773 0.0
C2371 C 0.5104 0.03696 0.99683 0.0
C2372 C 0.52367 0.99737 0.03048 0.0
C2373 C 0.55838 1.0078 0.05124 0.0
N2374 N 0.51527 0.02487 1.00788 0.0
N2375 N 0.55367 1.01998 0.03986 0.0
H2376 H 1.02344 0.4729 0.99585 0.0
H2377 H 0.04255 0.57029 0.05823 0.0
H2378 H 0.98282 0.48744 0.99966 0.0
H2379 H 0.08334 0.55611 0.05001 0.0
H2380 H 1.02057 0.54015 0.03754 0.0
H2381 H 0.04531 0.50302 1.01663 0.0
C2382 C 1.01903 0.48235 1.00121 0.0
C2383 C 1.00109 0.47739 0.99597 0.0
C2384 C 0.03432 0.54361 0.04016 0.0
C2385 C 1.02639 0.51232 1.01983 0.0
C2386 C 0.04696 0.56091 0.05197 0.0
C2387 C 0.06498 0.56596 0.0559 0.0
C2388 C 0.03959 0.53104 0.0322 0.0
C2389 C 0.06969 0.553 0.04737 0.0
C2390 C 1.03162 0.49965 1.01303 0.0
C2391 C 0.99641 0.49047 1.00331 0.0
N2392 N 0.05714 0.53626 0.03606 0.0
N2393 N 1.00891 0.50722 1.01478 0.0
H2394 H 0.48626 0.48576 0.06765 0.0
H2395 H 0.5822 0.5621 0.99232 0.0
H2396 H 0.4998 0.54027 0.05131 0.0
H2397 H 0.5681 0.50737 1.00739 0.0
H2398 H 0.55242 0.55453 1.01433 0.0
H2399 H 0.5161 0.49353 0.04611 0.0
C2400 C 0.49546 0.49939 0.05948 0.0
C2401 C 0.4903 0.51234 0.06134 0.0
C2402 C 0.55583 0.54417 1.01292 0.0
C2403 C 0.5249 0.5214 0.03651 0.0
C2404 C 0.57292 0.54849 1.00036 0.0
C2405 C 0.57788 0.5354 0.99794 0.0
C2406 C 0.5434 0.52657 1.02326 0.0
C2407 C 0.56505 0.51798 1.00875 0.0
C2408 C 0.51259 0.50382 0.04716 0.0
C2409 C 0.50302 0.52977 0.05033 0.0
N2410 N 0.54852 0.51412 1.02083 0.0
N2411 N 0.51963 0.53376 0.03848 0.0
H2412 H 0.33162 0.20105 1.01367 0.0
H2413 H 0.39703 0.2842 0.87451 0.0
H2414 H 0.3296 0.24921 0.99891 0.0
H2415 H 0.40044 0.23647 0.87578 0.0
H2416 H 0.37297 0.27097 0.92232 0.0
H2417 H 0.3565 0.21262 0.96542 0.0
C2418 C 0.33619 0.21392 1.00016 0.0
C2419 C 0.32821 0.22403 1.01072 0.0
C2420 C 0.37889 0.26325 0.91249 0.0
C2421 C 0.35708 0.23756 0.95552 0.0
C2422 C 0.39284 0.2709 0.88492 0.0
C2423 C 0.40107 0.26159 0.87046 0.0
C2424 C 0.37263 0.24589 0.92655 0.0
C2425 C 0.39473 0.24433 0.88594 0.0
C2426 C 0.35052 0.22058 0.97267 0.0
C2427 C 0.33506 0.24074 0.99216 0.0
N2428 N 0.38092 0.23705 0.91288 0.0
N2429 N 0.3489 0.24685 0.966 0.0
H2430 H 0.80404 0.09261 1.00359 0.0
H2431 H 0.81918 0.17683 0.87116 0.0
H2432 H 0.85345 0.1421 1.00967 0.0
H2433 H 0.77222 0.1251 0.87097 0.0
H2434 H 0.83253 0.16592 0.9213 0.0
H2435 H 0.79322 0.10536 0.95426 0.0
C2436 C 0.81277 0.1062 0.99441 0.0
C2437 C 0.82981 0.11614 1.01132 0.0
C2438 C 0.81928 0.15703 0.91029 0.0
C2439 C 0.81708 0.1313 0.95366 0.0
C2440 C 0.81157 0.1633 0.88178 0.0
C2441 C 0.79441 0.15198 0.86635 0.0
C2442 C 0.8098 0.13927 0.92373 0.0
C2443 C 0.78544 0.13449 0.88136 0.0
C2444 C 0.80648 0.11357 0.96599 0.0
C2445 C 0.8403 0.13376 0.99749 0.0
N2446 N 0.79316 0.12882 0.90869 0.0
N2447 N 0.83376 0.14078 0.96977 0.0
H2448 H 0.87851 0.65356 0.87335 0.0
H2449 H 0.96229 0.71942 1.01077 0.0
H2450 H 0.92678 0.65167 0.88696 0.0
H2451 H 0.91451 0.72271 1.01064 0.0
H2452 H 0.94887 0.69527 0.96309 0.0
H2453 H 0.8903 0.67858 0.92136 0.0
C2454 C 0.89145 0.65819 0.88656 0.0
C2455 C 0.90153 0.6502 0.87576 0.0
C2456 C 0.94119 0.70118 0.97314 0.0
C2457 C 0.9153 0.67923 0.93066 0.0
C2458 C 0.94893 0.71519 1.00062 0.0
C2459 C 0.93966 0.7234 1.01537 0.0
C2460 C 0.92376 0.69486 0.95947 0.0
C2461 C 0.92234 0.71702 1.00024 0.0
C2462 C 0.89824 0.6726 0.91391 0.0
C2463 C 0.91834 0.65714 0.89392 0.0
N2464 N 0.91495 0.70315 0.97339 0.0
N2465 N 0.92457 0.67105 0.91995 0.0
H2466 H 0.26333 0.32195 0.54989 0.0
H2467 H 0.24808 0.39169 0.67876 0.0
H2468 H 0.21461 0.32317 0.53935 0.0
H2469 H 0.29502 0.3869 0.68031 0.0
H2470 H 0.23489 0.36742 0.62873 0.0
H2471 H 0.27396 0.34556 0.59892 0.0
C2472 C 0.25471 0.32707 0.55799 0.0
C2473 C 0.23793 0.32028 0.53991 0.0
C2474 C 0.2481 0.37178 0.64001 0.0
C2475 C 0.25044 0.34821 0.59728 0.0
C2476 C 0.25572 0.38577 0.66847 0.0
C2477 C 0.27282 0.39159 0.68425 0.0
C2478 C 0.25762 0.36348 0.62702 0.0
C2479 C 0.28184 0.38308 0.66965 0.0
C2480 C 0.26089 0.34076 0.58626 0.0
C2481 C 0.22756 0.32774 0.55244 0.0
N2482 N 0.2742 0.36967 0.64239 0.0
N2483 N 0.23399 0.34131 0.58006 0.0
H2484 H 0.67007 0.92099 0.67254 0.0
H2485 H 0.73639 0.90313 0.53743 0.0
H2486 H 0.66776 0.87036 0.67578 0.0
H2487 H 0.73772 0.95311 0.54883 0.0
H2488 H 0.7115 0.89 0.5857 0.0
H2489 H 0.69413 0.93162 0.62476 0.0
C2490 C 0.6745 0.91194 0.66312 0.0
C2491 C 0.66659 0.89461 0.67885 0.0
C2492 C 0.71733 0.90386 0.5777 0.0
C2493 C 0.69501 0.90714 0.6228 0.0
C2494 C 0.73166 0.91143 0.5502 0.0
C2495 C 0.73945 0.92941 0.5387 0.0
C2496 C 0.71058 0.91426 0.59391 0.0
C2497 C 0.73241 0.93927 0.55633 0.0
C2498 C 0.68845 0.91814 0.63558 0.0
C2499 C 0.67322 0.88376 0.66463 0.0
N2500 N 0.71857 0.93163 0.58252 0.0
N2501 N 0.68702 0.89019 0.63767 0.0
H2502 H 0.15291 0.8433 0.54149 0.0
H2503 H 0.13731 0.75879 0.67343 0.0
H2504 H 0.10596 0.79158 0.54018 0.0
H2505 H 0.18694 0.80807 0.67916 0.0
H2506 H 0.12656 0.77168 0.62422 0.0
H2507 H 0.16611 0.83222 0.59162 0.0
C2508 C 0.14527 0.82974 0.55188 0.0
C2509 C 0.12816 0.81846 0.53613 0.0
C2510 C 0.13986 0.7798 0.63585 0.0
C2511 C 0.14336 0.80556 0.59352 0.0
C2512 C 0.14611 0.77236 0.66421 0.0
C2513 C 0.16319 0.7822 0.68096 0.0
C2514 C 0.15055 0.79751 0.62345 0.0
C2515 C 0.17376 0.7998 0.66709 0.0
C2516 C 0.15289 0.82336 0.58038 0.0
C2517 C 0.11914 0.80092 0.55083 0.0
N2518 N 0.16727 0.8069 0.63944 0.0
N2519 N 0.12677 0.79516 0.57819 0.0
H2520 H 0.66574 0.80847 0.17744 0.0
H2521 H 0.73376 0.79249 0.04374 0.0
H2522 H 0.66999 0.76121 0.1772 0.0
H2523 H 0.73454 0.84236 0.03916 0.0
H2524 H 0.71026 0.78178 0.093 0.0
H2525 H 0.68986 0.82163 0.12715 0.0
C2526 C 0.67151 0.80075 0.16669 0.0
C2527 C 0.66558 0.78356 0.18205 0.0
C2528 C 0.71549 0.79512 0.0816 0.0
C2529 C 0.6935 0.79873 0.12445 0.0
C2530 C 0.7291 0.80135 0.05319 0.0
C2531 C 0.73643 0.81849 0.03673 0.0
C2532 C 0.70864 0.80589 0.09438 0.0
C2533 C 0.72955 0.82913 0.05095 0.0
C2534 C 0.68542 0.80836 0.13809 0.0
C2535 C 0.67391 0.77445 0.16687 0.0
N2536 N 0.71604 0.82265 0.07866 0.0
N2537 N 0.68722 0.78207 0.13943 0.0
H2538 H 0.26441 0.9512 0.04403 0.0
H2539 H 0.24702 0.8668 0.17843 0.0
H2540 H 0.21405 0.90263 0.03977 0.0
H2541 H 0.29689 0.91553 0.16698 0.0
H2542 H 0.23378 0.87854 0.13016 0.0
H2543 H 0.27514 0.93774 0.09171 0.0
C2544 C 0.25544 0.93766 0.05321 0.0
C2545 C 0.23816 0.92819 0.03723 0.0
C2546 C 0.24764 0.88659 0.13815 0.0
C2547 C 0.25079 0.91223 0.09314 0.0
C2548 C 0.25527 0.87983 0.16564 0.0
C2549 C 0.27325 0.89005 0.17715 0.0
C2550 C 0.25798 0.90377 0.12197 0.0
C2551 C 0.28305 0.90697 0.1595 0.0
C2552 C 0.2617 0.92989 0.08069 0.0
C2553 C 0.22741 0.91061 0.05113 0.0
N2554 N 0.27535 0.91318 0.13333 0.0
N2555 N 0.23389 0.90322 0.07803 0.0
H2556 H 0.14539 0.36746 0.22568 0.0
H2557 H 0.13975 0.3447 0.99404 0.0
H2558 H 0.18061 0.40649 0.14107 0.0
H2559 H 0.12537 0.30425 0.08368 0.0
H2560 H 0.153 0.36751 0.04618 0.0
H2561 H 0.13617 0.34451 0.17415 0.0
C2562 C 0.15127 0.37126 0.19623 0.0
C2563 C 0.16385 0.38912 0.18802 0.0
C2564 C 0.14713 0.35368 0.05455 0.0
C2565 C 0.15291 0.36254 0.12791 0.0
C2566 C 0.13952 0.34058 1.02472 0.0
C2567 C 0.13144 0.32238 0.03418 0.0
C2568 C 0.14633 0.34877 0.09485 0.0
C2569 C 0.13156 0.31802 0.07469 0.0
C2570 C 0.146 0.35804 0.16678 0.0
C2571 C 0.17096 0.39299 0.14911 0.0
N2572 N 0.13859 0.33103 0.10342 0.0
N2573 N 0.16522 0.37993 0.12051 0.0
H2574 H 0.80494 0.72336 0.5064 0.0
H2575 H 0.81917 0.6533 0.37615 0.0
H2576 H 0.85369 0.72207 0.51478 0.0
H2577 H 0.77292 0.65928 0.37355 0.0
H2578 H 0.83259 0.67748 0.42635 0.0
H2579 H 0.79403 0.69984 0.45705 0.0
C2580 C 0.81351 0.71824 0.49775 0.0
C2581 C 0.83039 0.72498 0.5153 0.0
C2582 C 0.81948 0.67341 0.41479 0.0
C2583 C 0.81755 0.69717 0.45759 0.0
C2584 C 0.81173 0.65948 0.38624 0.0
C2585 C 0.79475 0.654 0.37013 0.0
C2586 C 0.81022 0.68199 0.4276 0.0
C2587 C 0.78599 0.66283 0.38448 0.0
C2588 C 0.80717 0.70462 0.4693 0.0
C2589 C 0.84067 0.71753 0.50211 0.0
N2590 N 0.79375 0.67616 0.41189 0.0
N2591 N 0.83408 0.70402 0.47434 0.0
H2592 H 0.33028 0.09188 0.49839 0.0
H2593 H 0.40319 0.1778 0.37649 0.0
H2594 H 0.33439 0.14289 0.5151 0.0
H2595 H 0.39644 0.12529 0.37117 0.0
H2596 H 0.37874 0.16675 0.42596 0.0
H2597 H 0.35419 0.10491 0.45013 0.0
C2598 C 0.33609 0.10588 0.4918 0.0
C2599 C 0.33001 0.11615 0.51137 0.0
C2600 C 0.38271 0.15771 0.41399 0.0
C2601 C 0.35832 0.13161 0.45494 0.0
C2602 C 0.3968 0.16406 0.38584 0.0
C2603 C 0.40214 0.15257 0.36914 0.0
C2604 C 0.37379 0.1397 0.42571 0.0
C2605 C 0.39302 0.13482 0.38256 0.0
C2606 C 0.34996 0.11341 0.464 0.0
C2607 C 0.33838 0.1343 0.5008 0.0
N2608 N 0.37952 0.12908 0.4095 0.0
N2609 N 0.35209 0.14144 0.47359 0.0
H2610 H 0.91503 0.20187 0.50857 0.0
H2611 H 0.92742 0.28727 0.3851 0.0
H2612 H 0.96137 0.25404 0.51086 0.0
H2613 H 0.88023 0.23624 0.37118 0.0
H2614 H 0.93889 0.2744 0.43267 0.0
H2615 H 0.90137 0.21286 0.45947 0.0
C2616 C 0.92245 0.21552 0.49863 0.0
C2617 C 0.93952 0.22693 0.51435 0.0
C2618 C 0.92598 0.26589 0.41954 0.0
C2619 C 0.92376 0.23974 0.4582 0.0
C2620 C 0.9193 0.27331 0.39216 0.0
C2621 C 0.90268 0.26298 0.37364 0.0
C2622 C 0.91617 0.24774 0.42923 0.0
C2623 C 0.89303 0.24487 0.38464 0.0
C2624 C 0.91456 0.22183 0.47068 0.0
C2625 C 0.94824 0.24457 0.50021 0.0
N2626 N 0.89989 0.23785 0.41148 0.0
N2627 N 0.94033 0.25029 0.47347 0.0
H2628 H 0.06837 0.56955 0.20855 0.0
H2629 H 0.99869 0.58472 0.33763 0.0
H2630 H 0.06352 0.61647 0.20721 0.0
H2631 H 1.00002 0.53604 0.34802 0.0
H2632 H 1.02224 0.59536 0.28854 0.0
H2633 H 0.04415 0.55634 0.25856 0.0
C2634 C 0.06244 0.57718 0.21888 0.0
C2635 C 0.06824 0.59429 0.20317 0.0
C2636 C 1.01747 0.5823 0.30118 0.0
C2637 C 0.04018 0.57905 0.26036 0.0
C2638 C 1.00382 0.57611 0.32947 0.0
C2639 C 0.99709 0.55933 0.34753 0.0
C2640 C 1.02494 0.57186 0.29011 0.0
C2641 C 1.00455 0.54898 0.33494 0.0
C2642 C 0.04848 0.56955 0.24732 0.0
C2643 C 0.05971 0.60329 0.21781 0.0
N2644 N 1.01808 0.55542 0.3073 0.0
N2645 N 0.04633 0.59564 0.24505 0.0
H2646 H 0.52135 0.47524 0.34688 0.0
H2647 H 0.43694 0.46038 0.21543 0.0
H2648 H 0.46965 0.42825 0.34681 0.0
H2649 H 0.48654 0.50965 0.20903 0.0
H2650 H 0.44974 0.44945 0.2644 0.0
H2651 H 0.51038 0.48866 0.29707 0.0
C2652 C 0.50781 0.46764 0.33626 0.0
C2653 C 0.49651 0.45045 0.35153 0.0
C2654 C 0.45797 0.46271 0.25268 0.0
C2655 C 0.48373 0.46592 0.29453 0.0
C2656 C 0.45057 0.46906 0.22446 0.0
C2657 C 0.46053 0.48609 0.20757 0.0
C2658 C 0.47574 0.47324 0.26482 0.0
C2659 C 0.4782 0.49651 0.22121 0.0
C2660 C 0.5015 0.47539 0.30794 0.0
C2661 C 0.47901 0.44149 0.33655 0.0
N2662 N 0.48524 0.48992 0.24873 0.0
N2663 N 0.47331 0.44925 0.30939 0.0
H2664 H 0.58089 0.05751 0.33821 0.0
H2665 H 0.59322 0.98369 0.21859 0.0
H2666 H 0.62673 0.05091 0.34389 0.0
H2667 H 0.54672 0.98841 0.20064 0.0
H2668 H 0.60447 1.00801 0.26605 0.0
H2669 H 0.56743 0.0329 0.28907 0.0
C2670 C 0.58824 0.05112 0.32901 0.0
C2671 C 0.60511 0.05655 0.34571 0.0
C2672 C 0.59175 1.00381 0.25206 0.0
C2673 C 0.58957 0.02801 0.28952 0.0
C2674 C 0.5852 0.98972 0.22474 0.0
C2675 C 0.56884 0.98367 0.20512 0.0
C2676 C 0.58208 1.0124 0.2606 0.0
C2677 C 0.55931 0.99237 0.21498 0.0
C2678 C 0.58047 0.03694 0.30104 0.0
C2679 C 0.61375 0.04742 0.33248 0.0
N2680 N 0.56605 1.00625 0.24179 0.0
N2681 N 0.60595 0.03381 0.30572 0.0
H2682 H 0.43605 0.98543 0.71994 0.0
H2683 H 0.52191 0.0584 0.84233 0.0
H2684 H 0.48708 0.98961 0.7034 0.0
H2685 H 0.46965 0.0523 0.84563 0.0
H2686 H 0.51085 0.03386 0.79298 0.0
H2687 H 0.44912 1.00954 0.76786 0.0
C2688 C 0.45006 0.9913 0.72649 0.0
C2689 C 0.46032 0.98517 0.70707 0.0
C2690 C 0.50187 0.038 0.80448 0.0
C2691 C 0.47582 1.01369 0.76315 0.0
C2692 C 0.50823 0.05214 0.83257 0.0
C2693 C 0.49681 0.05769 0.84867 0.0
C2694 C 0.48392 0.02923 0.79225 0.0
C2695 C 0.47913 0.04873 0.83473 0.0
C2696 C 0.45761 1.00528 0.75409 0.0
C2697 C 0.47849 0.99364 0.71755 0.0
N2698 N 0.47338 0.03516 0.80789 0.0
N2699 N 0.48564 1.00743 0.74462 0.0
H2700 H 0.08514 0.50256 0.74561 0.0
H2701 H 0.98106 0.44865 0.80314 0.0
H2702 H 0.04467 0.46911 0.66138 0.0
H2703 H 1.02221 0.45971 0.88916 0.0
H2704 H 1.00397 0.46182 0.75047 0.0
H2705 H 0.06216 0.49276 0.7981 0.0
C2706 C 0.07145 0.49339 0.73793 0.0
C2707 C 0.06697 0.48663 0.69881 0.0
C2708 C 1.00798 0.46152 0.78099 0.0
C2709 C 0.0404 0.47549 0.75888 0.0
C2710 C 0.99488 0.45409 0.81116 0.0
C2711 C 0.99959 0.45296 0.85086 0.0
C2712 C 1.02605 0.46833 0.79055 0.0
C2713 C 1.01784 0.46015 0.85906 0.0
C2714 C 0.05831 0.48769 0.768 0.0
C2715 C 0.04888 0.47461 0.69103 0.0
N2716 N 1.03028 0.46753 0.8295 0.0
N2717 N 0.03637 0.46955 0.72045 0.0
H2718 H 0.54553 0.5705 0.70952 0.0
H2719 H 0.63 0.58521 0.84034 0.0
H2720 H 0.59727 0.61744 0.70951 0.0
H2721 H 0.5801 0.53633 0.84854 0.0
H2722 H 0.6172 0.5961 0.79133 0.0
H2723 H 0.55643 0.55711 0.75956 0.0
C2724 C 0.55906 0.5781 0.72016 0.0
C2725 C 0.57039 0.59526 0.70481 0.0
C2726 C 0.60891 0.58294 0.80347 0.0
C2727 C 0.58309 0.57983 0.76204 0.0
C2728 C 0.6163 0.5766 0.83172 0.0
C2729 C 0.60626 0.55969 0.84914 0.0
C2730 C 0.59106 0.57251 0.7918 0.0
C2731 C 0.5885 0.54937 0.83598 0.0
C2732 C 0.56533 0.57037 0.74862 0.0
C2733 C 0.58788 0.60422 0.71984 0.0
N2734 N 0.58147 0.55594 0.80838 0.0
N2735 N 0.59355 0.59647 0.74709 0.0
H2736 H 0.25321 0.2795 0.32815 0.0
H2737 H 0.24019 0.19632 0.19912 0.0
H2738 H 0.20734 0.22845 0.35179 0.0
H2739 H 0.29088 0.24084 0.23177 0.0
H2740 H 0.22579 0.20722 0.24642 0.0
H2741 H 0.26472 0.26551 0.28427 0.0
C2742 C 0.24533 0.26529 0.32402 0.0
C2743 C 0.22905 0.25535 0.34427 0.0
C2744 C 0.24008 0.21446 0.24337 0.0
C2745 C 0.24257 0.23884 0.29208 0.0
C2746 C 0.24836 0.20822 0.21627 0.0
C2747 C 0.26697 0.21749 0.21102 0.0
C2748 C 0.25036 0.23037 0.26491 0.0
C2749 C 0.2766 0.23299 0.23428 0.0
C2750 C 0.25208 0.25723 0.29874 0.0
C2751 C 0.21988 0.23683 0.33711 0.0
N2752 N 0.26828 0.23889 0.25936 0.0
N2753 N 0.22665 0.22924 0.3115 0.0
H2754 H 0.81878 0.06393 0.23325 0.0
H2755 H 0.82755 0.98796 0.34738 0.0
H2756 H 0.85898 0.05256 0.19234 0.0
H2757 H 0.77776 0.98552 0.32283 0.0
H2758 H 0.84226 1.01358 0.30084 0.0
H2759 H 0.80697 0.03813 0.27657 0.0
C2760 C 0.82539 0.05619 0.23346 0.0
C2761 C 0.8401 0.06082 0.20836 0.0
C2762 C 0.82809 1.00728 0.30551 0.0
C2763 C 0.82633 0.03057 0.26009 0.0
C2764 C 0.81964 0.9926 0.33221 0.0
C2765 C 0.80118 0.98417 0.33939 0.0
C2766 C 0.81818 1.01405 0.28652 0.0
C2767 C 0.79189 0.99118 0.31864 0.0
C2768 C 0.81846 0.04124 0.25846 0.0
C2769 C 0.8477 0.04978 0.21085 0.0
N2770 N 0.80041 1.00558 0.29402 0.0
N2771 N 0.84085 0.03532 0.23629 0.0
H2772 H 0.99506 0.76607 0.22855 0.0
H2773 H 0.06604 0.84992 0.35405 0.0
H2774 H 1.00148 0.81715 0.19873 0.0
H2775 H 0.07296 0.80606 0.3196 0.0
H2776 H 0.04024 0.83857 0.30775 0.0
H2777 H 1.02058 0.7804 0.27263 0.0
C2778 C 1.00165 0.78036 0.23137 0.0
C2779 C 0.99569 0.79022 0.20929 0.0
C2780 C 0.04756 0.83158 0.31024 0.0
C2781 C 1.02567 0.8071 0.26168 0.0
C2782 C 0.06233 0.83805 0.33681 0.0
C2783 C 0.07209 0.82915 0.34105 0.0
C2784 C 0.04207 0.81576 0.28844 0.0
C2785 C 0.06626 0.81368 0.31771 0.0
C2786 C 1.01645 0.78859 0.25676 0.0
C2787 C 1.00534 0.80883 0.21485 0.0
N2788 N 0.05177 0.80752 0.29327 0.0
N2789 N 1.0197 0.81662 0.24058 0.0
H2790 H 0.8169 0.76646 0.72922 0.0
H2791 H 0.82961 0.85038 0.85443 0.0
H2792 H 0.86181 0.81754 0.70085 0.0
H2793 H 0.77895 0.80609 0.82063 0.0
H2794 H 0.84414 0.83907 0.80848 0.0
H2795 H 0.80564 0.78072 0.77306 0.0
C2796 C 0.82463 0.78073 0.73231 0.0
C2797 C 0.84055 0.79061 0.71071 0.0
C2798 C 0.82983 0.83197 0.81103 0.0
C2799 C 0.82734 0.80742 0.76282 0.0
C2800 C 0.82149 0.83842 0.83741 0.0
C2801 C 0.80284 0.8294 0.84171 0.0
C2802 C 0.81956 0.81605 0.78947 0.0
C2803 C 0.79325 0.81381 0.81866 0.0
C2804 C 0.81802 0.78893 0.75757 0.0
C2805 C 0.84955 0.80921 0.7166 0.0
N2806 N 0.80162 0.80769 0.79438 0.0
N2807 N 0.84293 0.81696 0.74217 0.0
H2808 H 0.25085 0.98244 0.82076 0.0
H2809 H 0.23909 0.05506 0.69862 0.0
H2810 H 0.20759 0.99054 0.85388 0.0
H2811 H 0.28952 0.0599 0.72833 0.0
H2812 H 0.22459 0.02943 0.74527 0.0
H2813 H 0.26206 1.00784 0.77641 0.0
C2814 C 0.24346 0.98938 0.81865 0.0
C2815 C 0.22803 0.98392 0.84178 0.0
C2816 C 0.23885 0.03625 0.74166 0.0
C2817 C 0.2412 1.01382 0.78906 0.0
C2818 C 0.24718 0.05094 0.71489 0.0
C2819 C 0.26575 0.06006 0.70916 0.0
C2820 C 0.24904 0.0302 0.76218 0.0
C2821 C 0.27528 0.05369 0.73132 0.0
C2822 C 0.25005 1.00412 0.79308 0.0
C2823 C 0.21946 0.994 0.83696 0.0
N2824 N 0.26691 0.03931 0.75598 0.0
N2825 N 0.22605 1.0083 0.81111 0.0
H2826 H 1.00137 0.19551 0.69708 0.0
H2827 H 0.07206 0.27914 0.82358 0.0
H2828 H 0.99473 0.23965 0.73051 0.0
H2829 H 0.06537 0.22792 0.8532 0.0
H2830 H 0.04673 0.26496 0.77894 0.0
H2831 H 1.02697 0.20672 0.74392 0.0
C2832 C 1.0051 0.20742 0.71422 0.0
C2833 C 0.9955 0.21644 0.70955 0.0
C2834 C 0.05075 0.25671 0.79489 0.0
C2835 C 1.02525 0.22965 0.76274 0.0
C2836 C 0.06544 0.26485 0.82059 0.0
C2837 C 0.07125 0.2549 0.84277 0.0
C2838 C 0.04152 0.23822 0.7898 0.0
C2839 C 0.06159 0.2363 0.837 0.0
C2840 C 1.01975 0.2138 0.74108 0.0
C2841 C 1.00133 0.23195 0.73274 0.0
N2842 N 0.04736 0.2286 0.81099 0.0
N2843 N 1.01569 0.23802 0.7575 0.0
H2844 H 0.87344 0.56201 0.68773 0.0
H2845 H 0.95666 0.57488 0.55976 0.0
H2846 H 0.91779 0.61274 0.65478 0.0
H2847 H 0.90559 0.52916 0.53523 0.0
H2848 H 0.94264 0.58644 0.60344 0.0
H2849 H 0.8844 0.54759 0.6407 0.0
C2850 C 0.88532 0.57018 0.67056 0.0
C2851 C 0.89451 0.58881 0.67564 0.0
C2852 C 0.93437 0.57382 0.5888 0.0
C2853 C 0.90747 0.57217 0.62209 0.0
C2854 C 0.94244 0.56704 0.56367 0.0
C2855 C 0.9325 0.55079 0.54324 0.0
C2856 C 0.91596 0.56436 0.59513 0.0
C2857 C 0.91397 0.54167 0.55007 0.0
C2858 C 0.89159 0.56189 0.64362 0.0
C2859 C 0.90999 0.59845 0.65237 0.0
N2860 N 0.90637 0.54846 0.57555 0.0
N2861 N 0.91593 0.59011 0.62746 0.0
H2862 H 0.48307 0.39479 0.56478 0.0
H2863 H 0.49526 0.32329 0.69037 0.0
H2864 H 0.52767 0.38821 0.53597 0.0
H2865 H 0.4447 0.31696 0.65565 0.0
H2866 H 0.50991 0.34915 0.64436 0.0
H2867 H 0.4717 0.36924 0.60868 0.0
C2868 C 0.49072 0.38816 0.56779 0.0
C2869 C 0.50657 0.39409 0.54602 0.0
C2870 C 0.4956 0.34195 0.64673 0.0
C2871 C 0.49325 0.36404 0.59824 0.0
C2872 C 0.48718 0.32715 0.67314 0.0
C2873 C 0.46853 0.31753 0.6772 0.0
C2874 C 0.48539 0.34761 0.6249 0.0
C2875 C 0.45901 0.32354 0.65389 0.0
C2876 C 0.48405 0.37333 0.59308 0.0
C2877 C 0.51546 0.38437 0.55183 0.0
N2878 N 0.46744 0.33804 0.62959 0.0
N2879 N 0.50879 0.36999 0.57746 0.0
H2880 H 0.66853 0.15083 0.52281 0.0
H2881 H 0.73827 0.13815 0.65203 0.0
H2882 H 0.65859 0.10018 0.56749 0.0
H2883 H 0.73217 0.183 0.68166 0.0
H2884 H 0.71253 0.12694 0.60846 0.0
H2885 H 0.69442 0.16551 0.56881 0.0
C2886 C 0.67157 0.14275 0.54226 0.0
C2887 C 0.661 0.12406 0.54079 0.0
C2888 C 0.71681 0.13931 0.62415 0.0
C2889 C 0.69113 0.14092 0.593 0.0
C2890 C 0.73172 0.14588 0.64926 0.0
C2891 C 0.73778 0.16173 0.67124 0.0
C2892 C 0.70767 0.14868 0.61926 0.0
C2893 C 0.72821 0.17078 0.66566 0.0
C2894 C 0.68641 0.15119 0.56861 0.0
C2895 C 0.66601 0.11453 0.56694 0.0
N2896 N 0.7138 0.16424 0.64012 0.0
N2897 N 0.6806 0.12294 0.59104 0.0
H2898 H 0.49602 0.1831 0.19057 0.0
H2899 H 0.48324 0.10015 0.06317 0.0
H2900 H 0.44528 0.1416 0.14846 0.0
H2901 H 0.52787 0.15112 0.03275 0.0
H2902 H 0.47208 0.11468 0.10665 0.0
H2903 H 0.5106 0.17181 0.14473 0.0
C2904 C 0.48789 0.17178 0.17173 0.0
C2905 C 0.4692 0.16349 0.17386 0.0
C2906 C 0.4844 0.12279 0.09081 0.0
C2907 C 0.48597 0.1501 0.12176 0.0
C2908 C 0.49095 0.11445 0.06573 0.0
C2909 C 0.50672 0.12422 0.04353 0.0
C2910 C 0.49371 0.14131 0.09547 0.0
C2911 C 0.51571 0.14286 0.04891 0.0
C2912 C 0.49627 0.16532 0.14545 0.0
C2913 C 0.45962 0.14868 0.14847 0.0
N2914 N 0.5092 0.15074 0.07441 0.0
N2915 N 0.46799 0.14247 0.12442 0.0
H2916 H 0.87308 0.32234 0.18689 0.0
H2917 H 0.95629 0.39196 0.05842 0.0
H2918 H 0.91625 0.31453 0.15137 0.0
H2919 H 0.90539 0.38681 0.03257 0.0
H2920 H 0.942 0.36633 0.10214 0.0
H2921 H 0.88426 0.3478 0.13986 0.0
C2922 C 0.88474 0.32576 0.16917 0.0
C2923 C 0.89355 0.31592 0.1735 0.0
C2924 C 0.93385 0.37075 0.0872 0.0
C2925 C 0.90677 0.34556 0.12004 0.0
C2926 C 0.94206 0.38561 0.06205 0.0
C2927 C 0.93222 0.39195 0.04123 0.0
C2928 C 0.91542 0.36188 0.09316 0.0
C2929 C 0.91368 0.38262 0.04771 0.0
C2930 C 0.89113 0.34035 0.14224 0.0
C2931 C 0.90876 0.32137 0.14956 0.0
N2932 N 0.90593 0.36823 0.07324 0.0
N2933 N 0.91486 0.3357 0.1247 0.0
H2934 H 0.73204 0.56021 0.18947 0.0
H2935 H 0.66129 0.5732 0.06292 0.0
H2936 H 0.73896 0.61095 0.15427 0.0
H2937 H 0.66707 0.52799 0.03525 0.0
H2938 H 0.68682 0.5844 0.10693 0.0
H2939 H 0.70619 0.54568 0.14337 0.0
C2940 C 0.72832 0.56834 0.1721 0.0
C2941 C 0.73809 0.58701 0.17605 0.0
C2942 C 0.68256 0.57197 0.09155 0.0
C2943 C 0.70803 0.57031 0.12368 0.0
C2944 C 0.66775 0.56539 0.06621 0.0
C2945 C 0.66161 0.54941 0.04476 0.0
C2946 C 0.69161 0.56255 0.09701 0.0
C2947 C 0.67109 0.5403 0.05088 0.0
C2948 C 0.71352 0.56 0.14565 0.0
C2949 C 0.73225 0.59662 0.15258 0.0
N2950 N 0.68547 0.5469 0.07653 0.0
N2951 N 0.71774 0.58826 0.12824 0.0
H2952 H 0.57336 0.86259 0.86274 0.0
H2953 H 0.58501 0.94749 0.98308 0.0
H2954 H 0.62364 0.90883 0.89015 0.0
H2955 H 0.54191 0.896 1.01619 0.0
H2956 H 0.59609 0.93341 0.938 0.0
H2957 H 0.55881 0.874 0.90836 0.0
C2958 C 0.58139 0.87502 0.87824 0.0
C2959 C 0.59995 0.88454 0.87233 0.0
C2960 C 0.58413 0.92508 0.95481 0.0
C2961 C 0.58318 0.89799 0.92411 0.0
C2962 C 0.57762 0.93317 0.98076 0.0
C2963 C 0.56231 0.92311 1.00415 0.0
C2964 C 0.57533 0.90653 0.95082 0.0
C2965 C 0.55369 0.90448 0.99905 0.0
C2966 C 0.57304 0.88153 0.90442 0.0
C2967 C 0.60942 0.90071 0.89345 0.0
N2968 N 0.56024 0.89684 0.973 0.0
N2969 N 0.60103 0.90685 0.91758 0.0
H2970 H 0.11078 0.65113 0.99182 0.0
H2971 H 0.19303 0.71908 0.85996 0.0
H2972 H 0.16124 0.6552 1.01738 0.0
H2973 H 0.1533 0.7302 0.90535 0.0
H2974 H 0.18159 0.69325 0.90607 0.0
H2975 H 0.12547 0.67681 0.94823 0.0
C2976 C 0.12499 0.65724 0.98815 0.0
C2977 C 0.13459 0.65061 1.00894 0.0
C2978 C 0.17554 0.7015 0.90601 0.0
C2979 C 0.15183 0.68066 0.95704 0.0
C2980 C 0.18208 0.71631 0.87961 0.0
C2981 C 0.1743 0.72719 0.87831 0.0
C2982 C 0.16074 0.69713 0.93065 0.0
C2983 C 0.15996 0.72253 0.90469 0.0
C2984 C 0.13342 0.67211 0.96305 0.0
C2985 C 0.15312 0.65962 1.00231 0.0
N2986 N 0.15364 0.70796 0.92887 0.0
N2987 N 0.16108 0.67402 0.97682 0.0
H2988 H 0.39793 0.51644 0.0277 0.0
H2989 H 0.32936 0.43405 0.89638 0.0
H2990 H 0.40832 0.47601 0.9835 0.0
H2991 H 0.33401 0.4847 0.87009 0.0
H2992 H 0.35502 0.44863 0.94012 0.0
H2993 H 0.37212 0.50511 0.98144 0.0
C2994 C 0.39501 0.50536 1.00828 0.0
C2995 C 0.40568 0.49736 1.00996 0.0
C2996 C 0.35045 0.45666 0.92511 0.0
C2997 C 0.37564 0.48393 0.95744 0.0
C2998 C 0.33559 0.44828 0.89992 0.0
C2999 C 0.32912 0.45796 0.87888 0.0
C3000 C 0.35917 0.47509 0.93096 0.0
C3001 C 0.33829 0.47652 0.88536 0.0
C3002 C 0.38021 0.49888 0.98179 0.0
C3003 C 0.40082 0.48286 0.98387 0.0
N3004 N 0.35268 0.48443 0.91094 0.0
N3005 N 0.38628 0.47661 0.9596 0.0
H3006 H 0.11127 0.47122 0.49083 0.0
H3007 H 0.19375 0.48537 0.3602 0.0
H3008 H 0.16195 0.51704 0.51775 0.0
H3009 H 0.1535 0.43439 0.40411 0.0
H3010 H 0.18223 0.49967 0.40619 0.0
H3011 H 0.12584 0.46019 0.44708 0.0
C3012 C 0.1255 0.47919 0.48743 0.0
C3013 C 0.13521 0.49527 0.50864 0.0
C3014 C 0.17608 0.48536 0.40583 0.0
C3015 C 0.1523 0.48243 0.45657 0.0
C3016 C 0.18265 0.47715 0.37947 0.0
C3017 C 0.17478 0.45849 0.37789 0.0
C3018 C 0.16115 0.47489 0.4301 0.0
C3019 C 0.16026 0.44874 0.40378 0.0
C3020 C 0.13387 0.47273 0.46225 0.0
C3021 C 0.15376 0.50463 0.50236 0.0
N3022 N 0.15391 0.45693 0.42793 0.0
N3023 N 0.16165 0.49818 0.47677 0.0
H3024 H 0.5723 0.72187 0.36456 0.0
H3025 H 0.58415 0.65026 0.49076 0.0
H3026 H 0.62274 0.72755 0.39786 0.0
H3027 H 0.53968 0.65716 0.51897 0.0
H3028 H 0.59561 0.6757 0.4465 0.0
H3029 H 0.5576 0.69617 0.41096 0.0
C3030 C 0.58034 0.71791 0.38157 0.0
C3031 C 0.59897 0.72729 0.37701 0.0
C3032 C 0.58328 0.6717 0.46205 0.0
C3033 C 0.58206 0.6974 0.42975 0.0
C3034 C 0.57655 0.65694 0.48755 0.0
C3035 C 0.5607 0.65113 0.50923 0.0
C3036 C 0.57415 0.68105 0.45665 0.0
C3037 C 0.55188 0.6609 0.50317 0.0
C3038 C 0.5719 0.70319 0.4082 0.0
C3039 C 0.60846 0.72115 0.40004 0.0
N3040 N 0.55862 0.67522 0.47737 0.0
N3041 N 0.59999 0.70674 0.42458 0.0
H3042 H 0.40588 0.94652 0.48852 0.0
H3043 H 0.33348 0.86187 0.36655 0.0
H3044 H 0.39862 0.89525 0.51983 0.0
H3045 H 0.32842 0.9074 0.39523 0.0
H3046 H 0.35917 0.8732 0.41307 0.0
H3047 H 0.38033 0.93229 0.44447 0.0
C3048 C 0.3991 0.93221 0.48605 0.0
C3049 C 0.40483 0.92228 0.5086 0.0
C3050 C 0.35229 0.88058 0.4093 0.0
C3051 C 0.37477 0.9055 0.45624 0.0
C3052 C 0.33755 0.8741 0.38263 0.0
C3053 C 0.32837 0.88349 0.37658 0.0
C3054 C 0.35833 0.89687 0.42949 0.0
C3055 C 0.33468 0.89942 0.39847 0.0
C3056 C 0.38427 0.92403 0.46066 0.0
C3057 C 0.39497 0.90364 0.50332 0.0
N3058 N 0.34913 0.90554 0.4231 0.0
N3059 N 0.38058 0.89591 0.47767 0.0
H3060 H 0.32343 0.31068 0.97864 0.0
H3061 H 0.33956 0.40363 1.0267 0.0
H3062 H 0.30339 0.32509 0.08105 0.0
H3063 H 0.36325 0.39053 0.92918 0.0
H3064 H 0.31487 0.37341 1.02632 0.0
H3065 H 0.32628 0.33645 0.9429 0.0
C3066 C 0.31926 0.31908 0.99324 0.0
C3067 C 0.31387 0.31623 0.03333 0.0
C3068 C 0.32513 0.37726 1.00395 0.0
C3069 C 0.31732 0.34582 0.99302 0.0
C3070 C 0.33925 0.39466 1.00389 0.0
C3071 C 0.35397 0.39937 0.97918 0.0
C3072 C 0.32605 0.36456 0.97979 0.0
C3073 C 0.35251 0.3872 0.94987 0.0
C3074 C 0.32077 0.33373 0.97278 0.0
C3075 C 0.30802 0.32709 0.05045 0.0
N3076 N 0.33912 0.37013 0.95189 0.0
N3077 N 0.31039 0.34173 0.03059 0.0
H3078 H 0.65477 0.97478 0.22965 0.0
H3079 H 0.74819 0.99415 0.17709 0.0
H3080 H 0.66973 0.95829 0.12219 0.0
H3081 H 0.73438 1.01283 0.28289 0.0
H3082 H 0.71816 0.96921 0.174 0.0
H3083 H 0.68054 0.97678 0.26371 0.0
C3084 C 0.6633 0.9712 0.21352 0.0
C3085 C 0.6606 0.96708 0.17268 0.0
C3086 C 0.72179 0.97841 0.19875 0.0
C3087 C 0.69019 0.9696 0.21109 0.0
C3088 C 0.73908 0.99265 0.20078 0.0
C3089 C 0.7435 1.00614 0.22906 0.0
C3090 C 0.70889 0.97801 0.22454 0.0
C3091 C 0.7312 1.00317 0.25933 0.0
C3092 C 0.67795 0.97223 0.23301 0.0
C3093 C 0.67161 0.96195 0.15349 0.0
N3094 N 0.71421 0.98976 0.25545 0.0
N3095 N 0.68624 0.96385 0.17254 0.0
H3096 H 0.06379 0.74069 0.21016 0.0
H3097 H 0.11264 0.71538 0.1119 0.0
H3098 H 0.05875 0.765 0.10234 0.0
H3099 H 0.08201 0.71769 1.01294 0.0
H3100 H 0.11091 0.73959 0.14407 0.0
H3101 H 0.08759 0.73801 0.1793 0.0
C3102 C 0.06825 0.74615 0.18054 0.0
C3103 C 0.05904 0.75264 0.15839 0.0
C3104 C 0.10486 0.73505 0.11496 0.0
C3105 C 0.08613 0.74947 0.12237 0.0
C3106 C 0.10607 0.72139 0.09621 0.0
C3107 C 0.09682 0.71406 0.06042 0.0
C3108 C 0.09408 0.74109 0.09797 0.0
C3109 C 0.08876 0.72255 0.04128 0.0
C3110 C 0.08197 0.74473 0.16282 0.0
C3111 C 0.06539 0.75969 0.12028 0.0
N3112 N 0.08715 0.73532 0.06083 0.0
N3113 N 0.07814 0.75734 0.1029 0.0
H3114 H 0.39025 0.32513 0.55006 0.0
H3115 H 0.34582 0.3025 0.35034 0.0
H3116 H 0.41902 0.32985 0.44174 0.0
H3117 H 0.31675 0.2796 0.45901 0.0
H3118 H 0.37222 0.30472 0.38147 0.0
H3119 H 0.3636 0.30096 0.51973 0.0
C3120 C 0.39109 0.32061 0.52041 0.0
C3121 C 0.40665 0.32982 0.4979 0.0
C3122 C 0.35994 0.2986 0.39818 0.0
C3123 C 0.37619 0.30269 0.46243 0.0
C3124 C 0.34487 0.29734 0.38029 0.0
C3125 C 0.3293 0.29134 0.40256 0.0
C3126 C 0.3595 0.29442 0.43897 0.0
C3127 C 0.32862 0.28459 0.44104 0.0
C3128 C 0.37587 0.3068 0.50298 0.0
C3129 C 0.40717 0.32329 0.45988 0.0
N3130 N 0.3437 0.28687 0.45857 0.0
N3131 N 0.39197 0.31051 0.44277 0.0
H3132 H 0.74362 1.01929 0.56907 0.0
H3133 H 0.72688 0.09615 0.52474 0.0
H3134 H 0.76299 0.05417 0.46706 0.0
H3135 H 0.70361 0.05877 0.62158 0.0
H3136 H 0.75156 0.09064 0.52376 0.0
H3137 H 0.7407 0.04194 0.60569 0.0
C3138 C 0.74762 0.0319 0.55472 0.0
C3139 C 0.75285 0.03464 0.51453 0.0
C3140 C 0.7414 0.08409 0.54628 0.0
C3141 C 0.74933 0.06046 0.55587 0.0
C3142 C 0.72728 0.08736 0.54713 0.0
C3143 C 0.71266 0.07719 0.57203 0.0
C3144 C 0.7406 0.07035 0.56985 0.0
C3145 C 0.71425 0.06631 0.60074 0.0
C3146 C 0.74607 0.04488 0.57569 0.0
C3147 C 0.75849 0.05138 0.49774 0.0
N3148 N 0.72764 0.06267 0.59797 0.0
N3149 N 0.75609 0.0635 0.51811 0.0
H3150 H 1.0088 0.74189 0.445 0.0
H3151 H 0.95723 0.63823 0.42747 0.0
H3152 H 1.00386 0.71177 0.33869 0.0
H3153 H 0.9814 0.66851 0.53429 0.0
H3154 H 0.95981 0.66476 0.39603 0.0
H3155 H 0.98457 0.71533 0.47535 0.0
C3156 C 1.00208 0.72989 0.42729 0.0
C3157 C 1.00865 0.72883 0.38973 0.0
C3158 C 0.96389 0.66542 0.4269 0.0
C3159 C 0.98118 0.69847 0.42451 0.0
C3160 C 0.96234 0.65026 0.44499 0.0
C3161 C 0.96959 0.65138 0.48312 0.0
C3162 C 0.97274 0.68168 0.44719 0.0
C3163 C 0.97607 0.66728 0.50444 0.0
C3164 C 0.98831 0.71471 0.44478 0.0
C3165 C 0.99944 0.71296 0.36816 0.0
N3166 N 0.97788 0.68196 0.48583 0.0
N3167 N 0.98642 0.69824 0.38626 0.0
H3168 H 0.73155 0.66721 0.04099 0.0
H3169 H 0.753 0.71149 0.84053 0.0
H3170 H 0.72549 0.63811 0.93235 0.0
H3171 H 0.77693 0.74056 0.94882 0.0
H3172 H 0.75043 0.6849 0.87144 0.0
H3173 H 0.75539 0.69376 1.00968 0.0
C3174 C 0.73571 0.66629 1.01102 0.0
C3175 C 0.72626 0.65065 0.98881 0.0
C3176 C 0.75684 0.69722 0.88807 0.0
C3177 C 0.753 0.681 0.95225 0.0
C3178 C 0.7583 0.7124 0.87032 0.0
C3179 C 0.7647 0.72804 0.89258 0.0
C3180 C 0.76126 0.69765 0.9287 0.0
C3181 C 0.77163 0.72865 0.93084 0.0
C3182 C 0.74932 0.68145 0.99303 0.0
C3183 C 0.73228 0.65002 0.9503 0.0
N3184 N 0.76919 0.71349 0.94824 0.0
N3185 N 0.74489 0.66516 0.93271 0.0
H3186 H 0.31508 0.04785 0.96738 0.0
H3187 H 0.39075 0.07224 0.05831 0.0
H3188 H 0.34768 0.05468 0.8646 0.0
H3189 H 0.41832 0.10082 0.95234 0.0
H3190 H 0.36368 0.07019 0.03255 0.0
H3191 H 0.34086 0.07164 1.00141 0.0
C3192 C 0.32754 0.05479 0.95142 0.0
C3193 C 0.32948 0.04891 0.91369 0.0
C3194 C 0.37575 0.07771 1.01559 0.0
C3195 C 0.35904 0.0755 0.95295 0.0
C3196 C 0.39124 0.07879 0.03039 0.0
C3197 C 0.40656 0.0862 1.0068 0.0
C3198 C 0.37562 0.08374 0.97656 0.0
C3199 C 0.40664 0.0947 0.97111 0.0
C3200 C 0.34231 0.06821 0.9711 0.0
C3201 C 0.34582 0.05847 0.89422 0.0
N3202 N 0.3912 0.09266 0.95631 0.0
N3203 N 0.3601 0.07103 0.91447 0.0
H3204 H 0.95548 0.32891 0.93078 0.0
H3205 H 1.00742 0.27743 0.95132 0.0
H3206 H 0.97906 0.3228 0.03876 0.0
H3207 H 1.00166 0.30141 0.84367 0.0
H3208 H 0.98307 0.27961 0.98136 0.0
H3209 H 0.958 0.30481 0.90031 0.0
C3210 C 0.96045 0.32197 0.94876 0.0
C3211 C 0.9676 0.32818 0.98693 0.0
C3212 C 0.98667 0.28375 0.95061 0.0
C3213 C 0.97072 0.30087 0.95202 0.0
C3214 C 1.00051 0.28242 0.93329 0.0
C3215 C 1.00687 0.28977 0.89538 0.0
C3216 C 0.97928 0.29252 0.92982 0.0
C3217 C 0.99742 0.29605 0.87342 0.0
C3218 C 0.96197 0.30827 0.93121 0.0
C3219 C 0.97385 0.31868 1.00884 0.0
N3220 N 0.98434 0.2977 0.89134 0.0
N3221 N 0.97569 0.30575 0.9907 0.0
H3222 H 0.72327 0.74161 0.71033 0.0
H3223 H 0.67826 0.71984 0.51057 0.0
H3224 H 0.75203 0.76517 0.60165 0.0
H3225 H 0.64964 0.71451 0.61947 0.0
H3226 H 0.70503 0.74362 0.54142 0.0
H3227 H 0.69665 0.73912 0.67971 0.0
C3228 C 0.7241 0.74684 0.68051 0.0
C3229 C 0.73966 0.75313 0.65806 0.0
C3230 C 0.69278 0.73773 0.55822 0.0
C3231 C 0.70924 0.74979 0.62229 0.0
C3232 C 0.6775 0.72415 0.5405 0.0
C3233 C 0.66192 0.71492 0.56292 0.0
C3234 C 0.69252 0.74159 0.59896 0.0
C3235 C 0.6615 0.72114 0.60136 0.0
C3236 C 0.70891 0.74544 0.66293 0.0
C3237 C 0.74018 0.75998 0.61977 0.0
N3238 N 0.67675 0.7337 0.61871 0.0
N3239 N 0.72501 0.75758 0.60255 0.0
H3240 H 0.33142 0.95335 0.54726 0.0
H3241 H 0.28275 0.98677 0.59459 0.0
H3242 H 0.34124 0.95033 0.67245 0.0
H3243 H 0.30848 0.99457 0.70905 0.0
H3244 H 0.28415 0.9597 0.58548 0.0
H3245 H 0.30464 0.95383 0.56413 0.0
C3246 C 0.32747 0.95202 0.57834 0.0
C3247 C 0.33886 0.95263 0.60866 0.0
C3248 C 0.28931 0.96716 0.61285 0.0
C3249 C 0.30839 0.9536 0.62873 0.0
C3250 C 0.28833 0.98253 0.61823 0.0
C3251 C 0.29646 0.99343 0.65156 0.0
C3252 C 0.29897 0.96312 0.64052 0.0
C3253 C 0.30265 0.98692 0.68216 0.0
C3254 C 0.31207 0.95232 0.58821 0.0
C3255 C 0.33306 0.9506 0.64833 0.0
N3256 N 0.3043 0.97247 0.67533 0.0
N3257 N 0.31848 0.95172 0.65735 0.0
H3258 H 0.08659 0.37894 0.49775 0.0
H3259 H 0.05948 0.30363 0.59504 0.0
H3260 H 0.11178 0.40714 0.60616 0.0
H3261 H 0.06413 0.33689 0.6951 0.0
H3262 H 0.08358 0.3293 0.56168 0.0
H3263 H 0.08324 0.3519 0.52733 0.0
C3264 C 0.09211 0.37957 0.52718 0.0
C3265 C 0.09895 0.39512 0.54999 0.0
C3266 C 0.07957 0.33094 0.59124 0.0
C3267 C 0.09508 0.36423 0.58446 0.0
C3268 C 0.06597 0.31622 0.61062 0.0
C3269 C 0.0594 0.31833 0.64727 0.0
C3270 C 0.08635 0.3478 0.60855 0.0
C3271 C 0.06844 0.33487 0.66623 0.0
C3272 C 0.09029 0.3641 0.54417 0.0
C3273 C 0.10615 0.39534 0.58772 0.0
N3274 N 0.08119 0.34909 0.64621 0.0
N3275 N 0.10345 0.37996 0.60436 0.0
H3276 H 0.98822 0.64714 0.90773 0.0
H3277 H 0.08071 0.6617 0.86238 0.0
H3278 H 1.00227 0.62599 0.80673 0.0
H3279 H 0.06794 0.68528 0.96076 0.0
H3280 H 0.05033 0.6374 0.86179 0.0
H3281 H 1.0138 0.64984 0.94416 0.0
C3282 C 0.99652 0.64272 0.89357 0.0
C3283 C 0.9936 0.63701 0.85367 0.0
C3284 C 0.05426 0.64755 0.8845 0.0
C3285 C 1.02295 0.64026 0.89481 0.0
C3286 C 0.07176 0.66144 0.88514 0.0
C3287 C 0.07663 0.67608 0.9103 0.0
C3288 C 0.04162 0.64862 0.90851 0.0
C3289 C 0.06448 0.67466 0.93958 0.0
C3290 C 1.01104 0.64414 0.91444 0.0
C3291 C 1.00431 0.63085 0.83715 0.0
N3292 N 0.04731 0.66153 0.93694 0.0
N3293 N 1.01882 0.63311 0.8574 0.0
H3294 H 0.41962 0.387 0.68386 0.0
H3295 H 0.39532 0.4061 0.88417 0.0
H3296 H 0.44153 0.37898 0.7923 0.0
H3297 H 0.39275 0.43274 0.7778 0.0
H3298 H 0.41943 0.40344 0.8543 0.0
H3299 H 0.41721 0.41073 0.71667 0.0
C3300 C 0.42452 0.39071 0.71415 0.0
C3301 C 0.43034 0.38078 0.73577 0.0
C3302 C 0.41409 0.41048 0.83796 0.0
C3303 C 0.42704 0.40737 0.77404 0.0
C3304 C 0.40033 0.41199 0.85512 0.0
C3305 C 0.39174 0.41915 0.83287 0.0
C3306 C 0.41879 0.41564 0.79792 0.0
C3307 C 0.39884 0.42684 0.79566 0.0
C3308 C 0.42315 0.40425 0.73299 0.0
C3309 C 0.43672 0.38618 0.77478 0.0
N3310 N 0.41157 0.42434 0.77871 0.0
N3311 N 0.43434 0.39873 0.79318 0.0
H3312 H 0.67371 0.07492 0.7678 0.0
H3313 H 0.62483 0.97139 0.75116 0.0
H3314 H 0.67164 0.04505 0.66321 0.0
H3315 H 0.64704 1.00233 0.85814 0.0
H3316 H 0.62697 0.99746 0.71817 0.0
H3317 H 0.64908 0.04815 0.79644 0.0
C3318 C 0.66751 0.06292 0.74999 0.0
C3319 C 0.67504 0.06198 0.71368 0.0
C3320 C 0.63067 0.99834 0.74938 0.0
C3321 C 0.64716 0.0314 0.74653 0.0
C3322 C 0.62939 0.98346 0.76832 0.0
C3323 C 0.63623 0.98493 0.80705 0.0
C3324 C 0.63882 1.01467 0.76945 0.0
C3325 C 0.64202 1.00084 0.82791 0.0
C3326 C 0.65352 0.04762 0.76651 0.0
C3327 C 0.66648 0.04613 0.69185 0.0
N3328 N 0.64356 1.01525 0.80853 0.0
N3329 N 0.65325 0.03128 0.70911 0.0
H3330 H 0.40487 0.05677 0.09379 0.0
H3331 H 0.39884 0.98907 0.24852 0.0
H3332 H 0.43922 0.0686 0.19593 0.0
H3333 H 0.36282 0.97855 0.15013 0.0
H3334 H 0.42175 1.01458 0.21222 0.0
H3335 H 0.39926 0.02644 0.09443 0.0
C3336 C 0.41184 0.0532 0.11527 0.0
C3337 C 0.4219 0.06502 0.14579 0.0
C3338 C 0.409 1.00641 0.198 0.0
C3339 C 0.41487 0.03017 0.14814 0.0
C3340 C 0.39591 0.99183 0.21875 0.0
C3341 C 0.37873 0.98221 0.20293 0.0
C3342 C 0.40469 1.01149 0.16164 0.0
C3343 C 0.37573 0.98615 0.16405 0.0
C3344 C 0.40854 0.03581 0.1159 0.0
C3345 C 0.4309 0.0598 0.17249 0.0
N3346 N 0.38844 1.00077 0.14512 0.0
N3347 N 0.42664 0.04254 0.17402 0.0
H3348 H 0.99988 0.39121 0.28097 0.0
H3349 H 0.08299 0.43423 0.33716 0.0
H3350 H 0.99257 0.35886 0.38474 0.0
H3351 H 0.06695 0.40478 0.44755 0.0
H3352 H 0.05325 0.42865 0.32755 0.0
H3353 H 1.02508 0.416 0.31362 0.0
C3354 C 1.00344 0.38944 0.31097 0.0
C3355 C 0.9947 0.37276 0.3295 0.0
C3356 C 0.05608 0.42379 0.35469 0.0
C3357 C 1.02406 0.40079 0.36653 0.0
C3358 C 0.07337 0.42721 0.36046 0.0
C3359 C 0.07725 0.41912 0.3922 0.0
C3360 C 0.04261 0.41195 0.38057 0.0
C3361 C 0.06428 0.41053 0.42165 0.0
C3362 C 1.01803 0.40358 0.32958 0.0
C3363 C 0.99952 0.3713 0.3687 0.0
N3364 N 0.04736 0.40661 0.41443 0.0
N3365 N 1.01411 0.385 0.38552 0.0
H3366 H 0.6484 0.65874 0.37572 0.0
H3367 H 0.66976 0.63649 0.17504 0.0
H3368 H 0.62458 0.66442 0.26772 0.0
H3369 H 0.67532 0.61268 0.28316 0.0
H3370 H 0.64596 0.63921 0.20637 0.0
H3371 H 0.65074 0.63469 0.34444 0.0
C3372 C 0.64307 0.65445 0.34591 0.0
C3373 C 0.63676 0.66385 0.32384 0.0
C3374 C 0.6519 0.63279 0.22288 0.0
C3375 C 0.63995 0.63686 0.2873 0.0
C3376 C 0.6655 0.63124 0.20488 0.0
C3377 C 0.67481 0.62484 0.22698 0.0
C3378 C 0.64811 0.62846 0.26357 0.0
C3379 C 0.66864 0.61797 0.2653 0.0
C3380 C 0.6444 0.64072 0.32795 0.0
C3381 C 0.62979 0.65767 0.28555 0.0
N3382 N 0.65606 0.62051 0.28293 0.0
N3383 N 0.63212 0.64494 0.26794 0.0
loop_
_geom_bond_atom_site_label_1
_geom_bond_atom_site_label_2
_geom_bond_distance
_geom_bond_site_symmetry_2
_ccdc_geom_bond_type
Eu0 C9 2.828 . S
Eu0 O11 2.392 . S
Eu0 O13 2.418 . S
Eu0 O18 2.373 . S
Eu0 O21 2.488 . S
Eu0 O22 2.471 . S
Eu0 O23 2.349 . S
Eu1 O10 2.373 . S
Eu1 O14 2.488 . S
Eu1 O15 2.471 . S
Eu1 O16 2.349 . S
Eu1 O19 2.392 . S
Eu1 O20 2.418 . S
Eu1 C30 2.828 . S
C2 O20 1.244 . S
C2 O23 1.265 . S
C3 C4 1.379 . S
C3 C7 1.373 . S
C3 C9 1.505 . S
C4 C3 1.379 . S
C4 C6 1.369 . S
C4 H32 0.930 . S
C5 C7 1.383 . S
C5 C8 1.382 . S
C5 H33 0.930 . S
C6 C4 1.369 . S
C6 C8 1.392 . S
C6 H34 0.930 . S
C7 C3 1.373 . S
C7 C5 1.383 . S
C7 H35 0.931 . S
C8 C5 1.382 . S
C8 C6 1.392 . S
C9 Eu0 2.828 . S
C9 C3 1.505 . S
C9 O21 1.249 . S
C9 O22 1.244 . S
O10 Eu1 2.373 . S
O10 C12 1.258 . S
O11 Eu0 2.392 . S
O11 C12 1.242 . S
C12 O10 1.258 . S
C12 O11 1.242 . S
O13 Eu0 2.418 . S
O13 C17 1.244 . S
O14 Eu1 2.488 . S
O14 C30 1.249 . S
O15 Eu1 2.471 . S
O15 C30 1.244 . S
O16 Eu1 2.349 . S
O16 C17 1.265 . S
C17 O13 1.244 . S
C17 O16 1.265 . S
O18 Eu0 2.373 . S
O18 C31 1.258 . S
O19 Eu1 2.392 . S
O19 C31 1.242 . S
O20 Eu1 2.418 . S
O20 C2 1.244 . S
O21 Eu0 2.488 . S
O21 C9 1.249 . S
O22 Eu0 2.471 . S
O22 C9 1.244 . S
O23 Eu0 2.349 . S
O23 C2 1.265 . S
C24 C25 1.379 . S
C24 C28 1.373 . S
C24 C30 1.505 . S
C25 C24 1.379 . S
C25 C27 1.369 . S
C25 H36 0.930 . S
C26 C28 1.383 . S
C26 C29 1.382 . S
C26 H37 0.930 . S
C27 C25 1.369 . S
C27 C29 1.392 . S
C27 H38 0.930 . S
C28 C24 1.373 . S
C28 C26 1.383 . S
C28 H39 0.931 . S
C29 C26 1.382 . S
C29 C27 1.392 . S
C30 Eu1 2.828 . S
C30 O14 1.249 . S
C30 O15 1.244 . S
C30 C24 1.505 . S
C31 O18 1.258 . S
C31 O19 1.242 . S
H32 C4 0.930 . S
H33 C5 0.930 . S
H34 C6 0.930 . S
H35 C7 0.931 . S
H36 C25 0.930 . S
H37 C26 0.930 . S
H38 C27 0.930 . S
H39 C28 0.931 . S
Eu40 C49 2.828 . S
Eu40 O51 2.392 . S
Eu40 O53 2.418 . S
Eu40 O58 2.373 . S
Eu40 O61 2.488 . S
Eu40 O62 2.471 . S
Eu40 O63 2.349 . S
Eu41 O50 2.373 . S
Eu41 O54 2.488 . S
Eu41 O55 2.471 . S
Eu41 O56 2.349 . S
Eu41 O59 2.392 . S
Eu41 O60 2.418 . S
Eu41 C70 2.828 . S
C42 O60 1.244 . S
C42 O63 1.265 . S
C43 C44 1.379 . S
C43 C47 1.373 . S
C43 C49 1.505 . S
C44 C43 1.379 . S
C44 C46 1.369 . S
C44 H72 0.930 . S
C45 C47 1.383 . S
C45 C48 1.382 . S
C45 H73 0.930 . S
C46 C44 1.369 . S
C46 C48 1.392 . S
C46 H74 0.930 . S
C47 C43 1.373 . S
C47 C45 1.383 . S
C47 H75 0.931 . S
C48 C45 1.382 . S
C48 C46 1.392 . S
C49 Eu40 2.828 . S
C49 C43 1.505 . S
C49 O61 1.249 . S
C49 O62 1.244 . S
O50 Eu41 2.373 . S
O50 C52 1.258 . S
O51 Eu40 2.392 . S
O51 C52 1.242 . S
C52 O50 1.258 . S
C52 O51 1.242 . S
O53 Eu40 2.418 . S
O53 C57 1.244 . S
O54 Eu41 2.488 . S
O54 C70 1.249 . S
O55 Eu41 2.471 . S
O55 C70 1.244 . S
O56 Eu41 2.349 . S
O56 C57 1.265 . S
C57 O53 1.244 . S
C57 O56 1.265 . S
O58 Eu40 2.373 . S
O58 C71 1.258 . S
O59 Eu41 2.392 . S
O59 C71 1.242 . S
O60 Eu41 2.418 . S
O60 C42 1.244 . S
O61 Eu40 2.488 . S
O61 C49 1.249 . S
O62 Eu40 2.471 . S
O62 C49 1.244 . S
O63 Eu40 2.349 . S
O63 C42 1.265 . S
C64 C65 1.379 . S
C64 C68 1.373 . S
C64 C70 1.505 . S
C65 C64 1.379 . S
C65 C67 1.354 1_545 S
C65 H76 0.930 . S
C66 C68 1.383 . S
C66 C69 1.316 1_545 S
C66 H77 0.930 . S
C67 C65 1.354 1_565 S
C67 C69 1.411 . S
C67 H78 0.961 . S
C68 C64 1.373 . S
C68 C66 1.383 . S
C68 H79 0.931 . S
C69 C66 1.316 1_565 S
C69 C67 1.411 . S
C70 Eu41 2.828 . S
C70 O54 1.249 . S
C70 O55 1.244 . S
C70 C64 1.505 . S
C71 O58 1.258 . S
C71 O59 1.242 . S
H72 C44 0.930 . S
H73 C45 0.930 . S
H74 C46 0.930 . S
H75 C47 0.931 . S
H76 C65 0.930 . S
H77 C66 0.930 . S
H78 C67 0.961 . S
H79 C68 0.931 . S
Eu80 C89 2.828 . S
Eu80 O91 2.392 . S
Eu80 O93 2.418 . S
Eu80 O98 2.373 . S
Eu80 O101 2.488 . S
Eu80 O102 2.471 . S
Eu80 O103 2.349 . S
Eu81 O90 2.373 . S
Eu81 O94 2.488 . S
Eu81 O95 2.471 . S
Eu81 O96 2.349 . S
Eu81 O99 2.392 . S
Eu81 O100 2.418 . S
Eu81 C110 2.828 . S
C82 O100 1.244 . S
C82 O103 1.265 . S
C83 C84 1.379 . S
C83 C87 1.373 . S
C83 C89 1.505 . S
C84 C83 1.379 . S
C84 C86 1.369 . S
C84 H112 0.930 . S
C85 C87 1.383 . S
C85 C88 1.382 . S
C85 H113 0.930 . S
C86 C84 1.369 . S
C86 C88 1.392 . S
C86 H114 0.930 . S
C87 C83 1.373 . S
C87 C85 1.383 . S
C87 H115 0.931 . S
C88 C85 1.382 . S
C88 C86 1.392 . S
C89 Eu80 2.828 . S
C89 C83 1.505 . S
C89 O101 1.249 . S
C89 O102 1.244 . S
O90 Eu81 2.373 . S
O90 C92 1.258 . S
O91 Eu80 2.392 . S
O91 C92 1.242 . S
C92 O90 1.258 . S
C92 O91 1.242 . S
O93 Eu80 2.418 . S
O93 C97 1.244 . S
O94 Eu81 2.488 . S
O94 C110 1.249 . S
O95 Eu81 2.471 . S
O95 C110 1.244 . S
O96 Eu81 2.349 . S
O96 C97 1.265 . S
C97 O93 1.244 . S
C97 O96 1.265 . S
O98 Eu80 2.373 . S
O98 C111 1.258 . S
O99 Eu81 2.392 . S
O99 C111 1.242 . S
O100 Eu81 2.418 . S
O100 C82 1.244 . S
O101 Eu80 2.488 . S
O101 C89 1.249 . S
O102 Eu80 2.471 . S
O102 C89 1.244 . S
O103 Eu80 2.349 . S
O103 C82 1.265 . S
C104 C105 1.379 . S
C104 C108 1.373 . S
C104 C110 1.505 . S
C105 C104 1.379 . S
C105 C107 1.333 1_655 S
C105 H116 0.930 . S
C106 C108 1.383 . S
C106 C109 1.340 1_655 S
C106 H117 0.930 . S
C107 C105 1.333 1_455 S
C107 C109 1.372 . S
C107 H118 0.950 . S
C108 C104 1.373 . S
C108 C106 1.383 . S
C108 H119 0.931 . S
C109 C106 1.340 1_455 S
C109 C107 1.372 . S
C110 Eu81 2.828 . S
C110 O94 1.249 . S
C110 O95 1.244 . S
C110 C104 1.505 . S
C111 O98 1.258 . S
C111 O99 1.242 . S
H112 C84 0.930 . S
H113 C85 0.930 . S
H114 C86 0.930 . S
H115 C87 0.931 . S
H116 C105 0.930 . S
H117 C106 0.930 . S
H118 C107 0.950 . S
H119 C108 0.931 . S
Eu120 C129 2.828 . S
Eu120 O131 2.392 . S
Eu120 O133 2.418 . S
Eu120 O138 2.373 . S
Eu120 O141 2.488 . S
Eu120 O142 2.471 . S
Eu120 O143 2.349 . S
Eu121 O130 2.373 . S
Eu121 O134 2.488 . S
Eu121 O135 2.471 . S
Eu121 O136 2.349 . S
Eu121 O139 2.392 . S
Eu121 O140 2.418 . S
Eu121 C150 2.828 . S
C122 O140 1.244 . S
C122 O143 1.265 . S
C123 C124 1.379 . S
C123 C127 1.373 . S
C123 C129 1.505 . S
C124 C123 1.379 . S
C124 C126 1.369 . S
C124 H152 0.930 . S
C125 C127 1.383 . S
C125 C128 1.382 . S
C125 H153 0.930 . S
C126 C124 1.369 . S
C126 C128 1.392 . S
C126 H154 0.930 . S
C127 C123 1.373 . S
C127 C125 1.383 . S
C127 H155 0.931 . S
C128 C125 1.382 . S
C128 C126 1.392 . S
C129 Eu120 2.828 . S
C129 C123 1.505 . S
C129 O141 1.249 . S
C129 O142 1.244 . S
O130 Eu121 2.373 . S
O130 C132 1.258 . S
O131 Eu120 2.392 . S
O131 C132 1.242 . S
C132 O130 1.258 . S
C132 O131 1.242 . S
O133 Eu120 2.418 . S
O133 C137 1.244 . S
O134 Eu121 2.488 . S
O134 C150 1.249 . S
O135 Eu121 2.471 . S
O135 C150 1.244 . S
O136 Eu121 2.349 . S
O136 C137 1.265 . S
C137 O133 1.244 . S
C137 O136 1.265 . S
O138 Eu120 2.373 . S
O138 C151 1.258 . S
O139 Eu121 2.392 . S
O139 C151 1.242 . S
O140 Eu121 2.418 . S
O140 C122 1.244 . S
O141 Eu120 2.488 . S
O141 C129 1.249 . S
O142 Eu120 2.471 . S
O142 C129 1.244 . S
O143 Eu120 2.349 . S
O143 C122 1.265 . S
C144 C145 1.379 . S
C144 C148 1.373 . S
C144 C150 1.505 . S
C145 C144 1.379 . S
C145 C147 1.369 . S
C145 H156 0.930 . S
C146 C148 1.383 . S
C146 C149 1.382 . S
C146 H157 0.930 . S
C147 C145 1.369 . S
C147 C149 1.392 . S
C147 H158 0.930 . S
C148 C144 1.373 . S
C148 C146 1.383 . S
C148 H159 0.931 . S
C149 C146 1.382 . S
C149 C147 1.392 . S
C150 Eu121 2.828 . S
C150 O134 1.249 . S
C150 O135 1.244 . S
C150 C144 1.505 . S
C151 O138 1.258 . S
C151 O139 1.242 . S
H152 C124 0.930 . S
H153 C125 0.930 . S
H154 C126 0.930 . S
H155 C127 0.931 . S
H156 C145 0.930 . S
H157 C146 0.930 . S
H158 C147 0.930 . S
H159 C148 0.931 . S
Eu160 C169 2.828 . S
Eu160 O171 2.392 . S
Eu160 O173 2.418 . S
Eu160 O178 2.373 . S
Eu160 O181 2.488 . S
Eu160 O182 2.471 . S
Eu160 O183 2.349 . S
Eu161 O170 2.373 . S
Eu161 O174 2.488 . S
Eu161 O175 2.471 . S
Eu161 O176 2.349 . S
Eu161 O179 2.392 . S
Eu161 O180 2.418 . S
Eu161 C190 2.828 . S
C162 O180 1.244 . S
C162 O183 1.265 . S
C163 C164 1.379 . S
C163 C167 1.373 . S
C163 C169 1.505 . S
C164 C163 1.379 . S
C164 C166 1.369 . S
C164 H192 0.930 . S
C165 C167 1.383 . S
C165 C168 1.382 . S
C165 H193 0.930 . S
C166 C164 1.369 . S
C166 C168 1.392 . S
C166 H194 0.930 . S
C167 C163 1.373 . S
C167 C165 1.383 . S
C167 H195 0.931 . S
C168 C165 1.382 . S
C168 C166 1.392 . S
C169 Eu160 2.828 . S
C169 C163 1.505 . S
C169 O181 1.249 . S
C169 O182 1.244 . S
O170 Eu161 2.373 . S
O170 C172 1.258 . S
O171 Eu160 2.392 . S
O171 C172 1.242 . S
C172 O170 1.258 . S
C172 O171 1.242 . S
O173 Eu160 2.418 . S
O173 C177 1.244 . S
O174 Eu161 2.488 . S
O174 C190 1.249 . S
O175 Eu161 2.471 . S
O175 C190 1.244 . S
O176 Eu161 2.349 . S
O176 C177 1.265 . S
C177 O173 1.244 . S
C177 O176 1.265 . S
O178 Eu160 2.373 . S
O178 C191 1.258 . S
O179 Eu161 2.392 . S
O179 C191 1.242 . S
O180 Eu161 2.418 . S
O180 C162 1.244 . S
O181 Eu160 2.488 . S
O181 C169 1.249 . S
O182 Eu160 2.471 . S
O182 C169 1.244 . S
O183 Eu160 2.349 . S
O183 C162 1.265 . S
C184 C185 1.379 . S
C184 C188 1.373 . S
C184 C190 1.505 . S
C185 C184 1.379 . S
C185 C187 1.333 1_565 S
C185 H196 0.930 . S
C186 C188 1.383 . S
C186 C189 1.340 1_565 S
C186 H197 0.930 . S
C187 C185 1.333 1_545 S
C187 C189 1.372 . S
C187 H198 0.950 . S
C188 C184 1.373 . S
C188 C186 1.383 . S
C188 H199 0.931 . S
C189 C186 1.340 1_545 S
C189 C187 1.372 . S
C190 Eu161 2.828 . S
C190 O174 1.249 . S
C190 O175 1.244 . S
C190 C184 1.505 . S
C191 O178 1.258 . S
C191 O179 1.242 . S
H192 C164 0.930 . S
H193 C165 0.930 . S
H194 C166 0.930 . S
H195 C167 0.931 . S
H196 C185 0.930 . S
H197 C186 0.930 . S
H198 C187 0.950 . S
H199 C188 0.931 . S
Eu200 C209 2.828 . S
Eu200 O211 2.392 . S
Eu200 O213 2.418 . S
Eu200 O218 2.373 . S
Eu200 O221 2.488 . S
Eu200 O222 2.471 . S
Eu200 O223 2.349 . S
Eu201 O210 2.373 . S
Eu201 O214 2.488 . S
Eu201 O215 2.471 . S
Eu201 O216 2.349 . S
Eu201 O219 2.392 . S
Eu201 O220 2.418 . S
Eu201 C230 2.828 . S
C202 O220 1.244 . S
C202 O223 1.265 . S
C203 C204 1.379 . S
C203 C207 1.373 . S
C203 C209 1.505 . S
C204 C203 1.379 . S
C204 C206 1.369 . S
C204 H232 0.930 . S
C205 C207 1.383 . S
C205 C208 1.382 . S
C205 H233 0.930 . S
C206 C204 1.369 . S
C206 C208 1.392 . S
C206 H234 0.930 . S
C207 C203 1.373 . S
C207 C205 1.383 . S
C207 H235 0.931 . S
C208 C205 1.382 . S
C208 C206 1.392 . S
C209 Eu200 2.828 . S
C209 C203 1.505 . S
C209 O221 1.249 . S
C209 O222 1.244 . S
O210 Eu201 2.373 . S
O210 C212 1.258 . S
O211 Eu200 2.392 . S
O211 C212 1.242 . S
C212 O210 1.258 . S
C212 O211 1.242 . S
O213 Eu200 2.418 . S
O213 C217 1.244 . S
O214 Eu201 2.488 . S
O214 C230 1.249 . S
O215 Eu201 2.471 . S
O215 C230 1.244 . S
O216 Eu201 2.349 . S
O216 C217 1.265 . S
C217 O213 1.244 . S
C217 O216 1.265 . S
O218 Eu200 2.373 . S
O218 C231 1.258 . S
O219 Eu201 2.392 . S
O219 C231 1.242 . S
O220 Eu201 2.418 . S
O220 C202 1.244 . S
O221 Eu200 2.488 . S
O221 C209 1.249 . S
O222 Eu200 2.471 . S
O222 C209 1.244 . S
O223 Eu200 2.349 . S
O223 C202 1.265 . S
C224 C225 1.379 . S
C224 C228 1.373 . S
C224 C230 1.505 . S
C225 C224 1.379 . S
C225 C227 1.354 1_455 S
C225 H236 0.930 . S
C226 C228 1.383 . S
C226 C229 1.316 1_455 S
C226 H237 0.930 . S
C227 C225 1.354 1_655 S
C227 C229 1.411 . S
C227 H238 0.961 . S
C228 C224 1.373 . S
C228 C226 1.383 . S
C228 H239 0.931 . S
C229 C226 1.316 1_655 S
C229 C227 1.411 . S
C230 Eu201 2.828 . S
C230 O214 1.249 . S
C230 O215 1.244 . S
C230 C224 1.505 . S
C231 O218 1.258 . S
C231 O219 1.242 . S
H232 C204 0.930 . S
H233 C205 0.930 . S
H234 C206 0.930 . S
H235 C207 0.931 . S
H236 C225 0.930 . S
H237 C226 0.930 . S
H238 C227 0.961 . S
H239 C228 0.931 . S
Eu240 C249 2.828 . S
Eu240 O251 2.392 . S
Eu240 O253 2.418 . S
Eu240 O258 2.373 . S
Eu240 O261 2.488 . S
Eu240 O262 2.471 . S
Eu240 O263 2.349 . S
Eu241 O250 2.373 . S
Eu241 O254 2.488 . S
Eu241 O255 2.471 . S
Eu241 O256 2.349 . S
Eu241 O259 2.392 . S
Eu241 O260 2.418 . S
Eu241 C270 2.828 . S
C242 O260 1.244 . S
C242 O263 1.265 . S
C243 C244 1.379 . S
C243 C247 1.373 . S
C243 C249 1.505 . S
C244 C243 1.379 . S
C244 C246 1.369 . S
C244 H272 0.930 . S
C245 C247 1.383 . S
C245 C248 1.382 . S
C245 H273 0.930 . S
C246 C244 1.369 . S
C246 C248 1.392 . S
C246 H274 0.930 . S
C247 C243 1.373 . S
C247 C245 1.383 . S
C247 H275 0.931 . S
C248 C245 1.382 . S
C248 C246 1.392 . S
C249 Eu240 2.828 . S
C249 C243 1.505 . S
C249 O261 1.249 . S
C249 O262 1.244 . S
O250 Eu241 2.373 . S
O250 C252 1.258 . S
O251 Eu240 2.392 . S
O251 C252 1.242 . S
C252 O250 1.258 . S
C252 O251 1.242 . S
O253 Eu240 2.418 . S
O253 C257 1.244 . S
O254 Eu241 2.488 . S
O254 C270 1.249 . S
O255 Eu241 2.471 . S
O255 C270 1.244 . S
O256 Eu241 2.349 . S
O256 C257 1.265 . S
C257 O253 1.244 . S
C257 O256 1.265 . S
O258 Eu240 2.373 . S
O258 C271 1.258 . S
O259 Eu241 2.392 . S
O259 C271 1.242 . S
O260 Eu241 2.418 . S
O260 C242 1.244 . S
O261 Eu240 2.488 . S
O261 C249 1.249 . S
O262 Eu240 2.471 . S
O262 C249 1.244 . S
O263 Eu240 2.349 . S
O263 C242 1.265 . S
C264 C265 1.379 . S
C264 C268 1.373 . S
C264 C270 1.505 . S
C265 C264 1.379 . S
C265 C267 1.369 . S
C265 H276 0.930 . S
C266 C268 1.383 . S
C266 C269 1.382 . S
C266 H277 0.930 . S
C267 C265 1.369 . S
C267 C269 1.392 . S
C267 H278 0.930 . S
C268 C264 1.373 . S
C268 C266 1.383 . S
C268 H279 0.931 . S
C269 C266 1.382 . S
C269 C267 1.392 . S
C270 Eu241 2.828 . S
C270 O254 1.249 . S
C270 O255 1.244 . S
C270 C264 1.505 . S
C271 O258 1.258 . S
C271 O259 1.242 . S
H272 C244 0.930 . S
H273 C245 0.930 . S
H274 C246 0.930 . S
H275 C247 0.931 . S
H276 C265 0.930 . S
H277 C266 0.930 . S
H278 C267 0.930 . S
H279 C268 0.931 . S
Eu280 C289 2.828 . S
Eu280 O291 2.392 . S
Eu280 O293 2.418 . S
Eu280 O298 2.373 . S
Eu280 O301 2.488 . S
Eu280 O302 2.471 . S
Eu280 O303 2.349 . S
Eu281 O290 2.373 . S
Eu281 O294 2.488 . S
Eu281 O295 2.471 . S
Eu281 O296 2.349 . S
Eu281 O299 2.392 . S
Eu281 O300 2.418 . S
Eu281 C310 2.828 . S
C282 O300 1.244 . S
C282 O303 1.265 . S
C283 C284 1.379 . S
C283 C287 1.373 . S
C283 C289 1.505 . S
C284 C283 1.379 . S
C284 C286 1.354 1_565 S
C284 H312 0.930 . S
C285 C287 1.383 . S
C285 C288 1.316 1_565 S
C285 H313 0.930 . S
C286 C284 1.354 1_545 S
C286 C288 1.411 . S
C286 H314 0.961 . S
C287 C283 1.373 . S
C287 C285 1.383 . S
C287 H315 0.931 . S
C288 C285 1.316 1_545 S
C288 C286 1.411 . S
C289 Eu280 2.828 . S
C289 C283 1.505 . S
C289 O301 1.249 . S
C289 O302 1.244 . S
O290 Eu281 2.373 . S
O290 C292 1.258 . S
O291 Eu280 2.392 . S
O291 C292 1.242 . S
C292 O290 1.258 . S
C292 O291 1.242 . S
O293 Eu280 2.418 . S
O293 C297 1.244 . S
O294 Eu281 2.488 . S
O294 C310 1.249 . S
O295 Eu281 2.471 . S
O295 C310 1.244 . S
O296 Eu281 2.349 . S
O296 C297 1.265 . S
C297 O293 1.244 . S
C297 O296 1.265 . S
O298 Eu280 2.373 . S
O298 C311 1.258 . S
O299 Eu281 2.392 . S
O299 C311 1.242 . S
O300 Eu281 2.418 . S
O300 C282 1.244 . S
O301 Eu280 2.488 . S
O301 C289 1.249 . S
O302 Eu280 2.471 . S
O302 C289 1.244 . S
O303 Eu280 2.349 . S
O303 C282 1.265 . S
C304 C305 1.379 . S
C304 C308 1.373 . S
C304 C310 1.505 . S
C305 C304 1.379 . S
C305 C307 1.369 . S
C305 H316 0.930 . S
C306 C308 1.383 . S
C306 C309 1.382 . S
C306 H317 0.930 . S
C307 C305 1.369 . S
C307 C309 1.392 . S
C307 H318 0.930 . S
C308 C304 1.373 . S
C308 C306 1.383 . S
C308 H319 0.931 . S
C309 C306 1.382 . S
C309 C307 1.392 . S
C310 Eu281 2.828 . S
C310 O294 1.249 . S
C310 O295 1.244 . S
C310 C304 1.505 . S
C311 O298 1.258 . S
C311 O299 1.242 . S
H312 C284 0.930 . S
H313 C285 0.930 . S
H314 C286 0.961 . S
H315 C287 0.931 . S
H316 C305 0.930 . S
H317 C306 0.930 . S
H318 C307 0.930 . S
H319 C308 0.931 . S
Eu320 C329 2.828 . S
Eu320 O331 2.392 . S
Eu320 O333 2.418 . S
Eu320 O338 2.373 . S
Eu320 O341 2.488 . S
Eu320 O342 2.471 . S
Eu320 O343 2.349 . S
Eu321 O330 2.373 . S
Eu321 O334 2.488 . S
Eu321 O335 2.471 . S
Eu321 O336 2.349 . S
Eu321 O339 2.392 . S
Eu321 O340 2.418 . S
Eu321 C350 2.828 . S
C322 O340 1.244 . S
C322 O343 1.265 . S
C323 C324 1.379 . S
C323 C327 1.373 . S
C323 C329 1.505 . S
C324 C323 1.379 . S
C324 C326 1.333 1_455 S
C324 H352 0.930 . S
C325 C327 1.383 . S
C325 C328 1.340 1_455 S
C325 H353 0.930 . S
C326 C324 1.333 1_655 S
C326 C328 1.372 . S
C326 H354 0.950 . S
C327 C323 1.373 . S
C327 C325 1.383 . S
C327 H355 0.931 . S
C328 C325 1.340 1_655 S
C328 C326 1.372 . S
C329 Eu320 2.828 . S
C329 C323 1.505 . S
C329 O341 1.249 . S
C329 O342 1.244 . S
O330 Eu321 2.373 . S
O330 C332 1.258 . S
O331 Eu320 2.392 . S
O331 C332 1.242 . S
C332 O330 1.258 . S
C332 O331 1.242 . S
O333 Eu320 2.418 . S
O333 C337 1.244 . S
O334 Eu321 2.488 . S
O334 C350 1.249 . S
O335 Eu321 2.471 . S
O335 C350 1.244 . S
O336 Eu321 2.349 . S
O336 C337 1.265 . S
C337 O333 1.244 . S
C337 O336 1.265 . S
O338 Eu320 2.373 . S
O338 C351 1.258 . S
O339 Eu321 2.392 . S
O339 C351 1.242 . S
O340 Eu321 2.418 . S
O340 C322 1.244 . S
O341 Eu320 2.488 . S
O341 C329 1.249 . S
O342 Eu320 2.471 . S
O342 C329 1.244 . S
O343 Eu320 2.349 . S
O343 C322 1.265 . S
C344 C345 1.379 . S
C344 C348 1.373 . S
C344 C350 1.505 . S
C345 C344 1.379 . S
C345 C347 1.369 . S
C345 H356 0.930 . S
C346 C348 1.383 . S
C346 C349 1.382 . S
C346 H357 0.930 . S
C347 C345 1.369 . S
C347 C349 1.392 . S
C347 H358 0.930 . S
C348 C344 1.373 . S
C348 C346 1.383 . S
C348 H359 0.931 . S
C349 C346 1.382 . S
C349 C347 1.392 . S
C350 Eu321 2.828 . S
C350 O334 1.249 . S
C350 O335 1.244 . S
C350 C344 1.505 . S
C351 O338 1.258 . S
C351 O339 1.242 . S
H352 C324 0.930 . S
H353 C325 0.930 . S
H354 C326 0.950 . S
H355 C327 0.931 . S
H356 C345 0.930 . S
H357 C346 0.930 . S
H358 C347 0.930 . S
H359 C348 0.931 . S
Eu360 C369 2.828 . S
Eu360 O371 2.392 . S
Eu360 O373 2.418 . S
Eu360 O378 2.373 . S
Eu360 O381 2.488 . S
Eu360 O382 2.471 . S
Eu360 O383 2.349 . S
Eu361 O370 2.373 . S
Eu361 O374 2.488 . S
Eu361 O375 2.471 . S
Eu361 O376 2.349 . S
Eu361 O379 2.392 . S
Eu361 O380 2.418 . S
Eu361 C390 2.828 . S
C362 O380 1.244 . S
C362 O383 1.265 . S
C363 C364 1.379 . S
C363 C367 1.373 . S
C363 C369 1.505 . S
C364 C363 1.379 . S
C364 C366 1.369 . S
C364 H392 0.930 . S
C365 C367 1.383 . S
C365 C368 1.382 . S
C365 H393 0.930 . S
C366 C364 1.369 . S
C366 C368 1.392 . S
C366 H394 0.930 . S
C367 C363 1.373 . S
C367 C365 1.383 . S
C367 H395 0.931 . S
C368 C365 1.382 . S
C368 C366 1.392 . S
C369 Eu360 2.828 . S
C369 C363 1.505 . S
C369 O381 1.249 . S
C369 O382 1.244 . S
O370 Eu361 2.373 . S
O370 C372 1.258 . S
O371 Eu360 2.392 . S
O371 C372 1.242 . S
C372 O370 1.258 . S
C372 O371 1.242 . S
O373 Eu360 2.418 . S
O373 C377 1.244 . S
O374 Eu361 2.488 . S
O374 C390 1.249 . S
O375 Eu361 2.471 . S
O375 C390 1.244 . S
O376 Eu361 2.349 . S
O376 C377 1.265 . S
C377 O373 1.244 . S
C377 O376 1.265 . S
O378 Eu360 2.373 . S
O378 C391 1.258 . S
O379 Eu361 2.392 . S
O379 C391 1.242 . S
O380 Eu361 2.418 . S
O380 C362 1.244 . S
O381 Eu360 2.488 . S
O381 C369 1.249 . S
O382 Eu360 2.471 . S
O382 C369 1.244 . S
O383 Eu360 2.349 . S
O383 C362 1.265 . S
C384 C385 1.379 . S
C384 C388 1.373 . S
C384 C390 1.505 . S
C385 C384 1.379 . S
C385 C387 1.369 . S
C385 H396 0.930 . S
C386 C388 1.383 . S
C386 C389 1.382 . S
C386 H397 0.930 . S
C387 C385 1.369 . S
C387 C389 1.392 . S
C387 H398 0.930 . S
C388 C384 1.373 . S
C388 C386 1.383 . S
C388 H399 0.931 . S
C389 C386 1.382 . S
C389 C387 1.392 . S
C390 Eu361 2.828 . S
C390 O374 1.249 . S
C390 O375 1.244 . S
C390 C384 1.505 . S
C391 O378 1.258 . S
C391 O379 1.242 . S
H392 C364 0.930 . S
H393 C365 0.930 . S
H394 C366 0.930 . S
H395 C367 0.931 . S
H396 C385 0.930 . S
H397 C386 0.930 . S
H398 C387 0.930 . S
H399 C388 0.931 . S
Eu400 C409 2.828 . S
Eu400 O411 2.392 . S
Eu400 O413 2.418 . S
Eu400 O418 2.373 . S
Eu400 O421 2.488 . S
Eu400 O422 2.471 . S
Eu400 O423 2.349 . S
Eu401 O410 2.373 . S
Eu401 O414 2.488 . S
Eu401 O415 2.471 . S
Eu401 O416 2.349 . S
Eu401 O419 2.392 . S
Eu401 O420 2.418 . S
Eu401 C430 2.828 . S
C402 O420 1.244 . S
C402 O423 1.265 . S
C403 C404 1.379 . S
C403 C407 1.373 . S
C403 C409 1.505 . S
C404 C403 1.379 . S
C404 C406 1.333 1_545 S
C404 H432 0.930 . S
C405 C407 1.383 . S
C405 C408 1.340 1_545 S
C405 H433 0.930 . S
C406 C404 1.333 1_565 S
C406 C408 1.372 . S
C406 H434 0.950 . S
C407 C403 1.373 . S
C407 C405 1.383 . S
C407 H435 0.931 . S
C408 C405 1.340 1_565 S
C408 C406 1.372 . S
C409 Eu400 2.828 . S
C409 C403 1.505 . S
C409 O421 1.249 . S
C409 O422 1.244 . S
O410 Eu401 2.373 . S
O410 C412 1.258 . S
O411 Eu400 2.392 . S
O411 C412 1.242 . S
C412 O410 1.258 . S
C412 O411 1.242 . S
O413 Eu400 2.418 . S
O413 C417 1.244 . S
O414 Eu401 2.488 . S
O414 C430 1.249 . S
O415 Eu401 2.471 . S
O415 C430 1.244 . S
O416 Eu401 2.349 . S
O416 C417 1.265 . S
C417 O413 1.244 . S
C417 O416 1.265 . S
O418 Eu400 2.373 . S
O418 C431 1.258 . S
O419 Eu401 2.392 . S
O419 C431 1.242 . S
O420 Eu401 2.418 . S
O420 C402 1.244 . S
O421 Eu400 2.488 . S
O421 C409 1.249 . S
O422 Eu400 2.471 . S
O422 C409 1.244 . S
O423 Eu400 2.349 . S
O423 C402 1.265 . S
C424 C425 1.379 . S
C424 C428 1.373 . S
C424 C430 1.505 . S
C425 C424 1.379 . S
C425 C427 1.369 . S
C425 H436 0.930 . S
C426 C428 1.383 . S
C426 C429 1.382 . S
C426 H437 0.930 . S
C427 C425 1.369 . S
C427 C429 1.392 . S
C427 H438 0.930 . S
C428 C424 1.373 . S
C428 C426 1.383 . S
C428 H439 0.931 . S
C429 C426 1.382 . S
C429 C427 1.392 . S
C430 Eu401 2.828 . S
C430 O414 1.249 . S
C430 O415 1.244 . S
C430 C424 1.505 . S
C431 O418 1.258 . S
C431 O419 1.242 . S
H432 C404 0.930 . S
H433 C405 0.930 . S
H434 C406 0.950 . S
H435 C407 0.931 . S
H436 C425 0.930 . S
H437 C426 0.930 . S
H438 C427 0.930 . S
H439 C428 0.931 . S
Eu440 C449 2.828 . S
Eu440 O451 2.392 . S
Eu440 O453 2.418 . S
Eu440 O458 2.373 . S
Eu440 O461 2.488 . S
Eu440 O462 2.471 . S
Eu440 O463 2.349 . S
Eu441 O450 2.373 . S
Eu441 O454 2.488 . S
Eu441 O455 2.471 . S
Eu441 O456 2.349 . S
Eu441 O459 2.392 . S
Eu441 O460 2.418 . S
Eu441 C470 2.828 . S
C442 O460 1.244 . S
C442 O463 1.265 . S
C443 C444 1.379 . S
C443 C447 1.373 . S
C443 C449 1.505 . S
C444 C443 1.379 . S
C444 C446 1.354 1_655 S
C444 H472 0.930 . S
C445 C447 1.383 . S
C445 C448 1.316 1_655 S
C445 H473 0.930 . S
C446 C444 1.354 1_455 S
C446 C448 1.411 . S
C446 H474 0.961 . S
C447 C443 1.373 . S
C447 C445 1.383 . S
C447 H475 0.931 . S
C448 C445 1.316 1_455 S
C448 C446 1.411 . S
C449 Eu440 2.828 . S
C449 C443 1.505 . S
C449 O461 1.249 . S
C449 O462 1.244 . S
O450 Eu441 2.373 . S
O450 C452 1.258 . S
O451 Eu440 2.392 . S
O451 C452 1.242 . S
C452 O450 1.258 . S
C452 O451 1.242 . S
O453 Eu440 2.418 . S
O453 C457 1.244 . S
O454 Eu441 2.488 . S
O454 C470 1.249 . S
O455 Eu441 2.471 . S
O455 C470 1.244 . S
O456 Eu441 2.349 . S
O456 C457 1.265 . S
C457 O453 1.244 . S
C457 O456 1.265 . S
O458 Eu440 2.373 . S
O458 C471 1.258 . S
O459 Eu441 2.392 . S
O459 C471 1.242 . S
O460 Eu441 2.418 . S
O460 C442 1.244 . S
O461 Eu440 2.488 . S
O461 C449 1.249 . S
O462 Eu440 2.471 . S
O462 C449 1.244 . S
O463 Eu440 2.349 . S
O463 C442 1.265 . S
C464 C465 1.379 . S
C464 C468 1.373 . S
C464 C470 1.505 . S
C465 C464 1.379 . S
C465 C467 1.369 . S
C465 H476 0.930 . S
C466 C468 1.383 . S
C466 C469 1.382 . S
C466 H477 0.930 . S
C467 C465 1.369 . S
C467 C469 1.392 . S
C467 H478 0.930 . S
C468 C464 1.373 . S
C468 C466 1.383 . S
C468 H479 0.931 . S
C469 C466 1.382 . S
C469 C467 1.392 . S
C470 Eu441 2.828 . S
C470 O454 1.249 . S
C470 O455 1.244 . S
C470 C464 1.505 . S
C471 O458 1.258 . S
C471 O459 1.242 . S
H472 C444 0.930 . S
H473 C445 0.930 . S
H474 C446 0.961 . S
H475 C447 0.931 . S
H476 C465 0.930 . S
H477 C466 0.930 . S
H478 C467 0.930 . S
H479 C468 0.931 . S
Eu480 C489 2.828 . S
Eu480 O491 2.392 . S
Eu480 O493 2.418 . S
Eu480 O498 2.373 . S
Eu480 O501 2.488 . S
Eu480 O502 2.471 . S
Eu480 O503 2.349 . S
Eu481 O490 2.373 . S
Eu481 O494 2.488 . S
Eu481 O495 2.471 . S
Eu481 O496 2.349 . S
Eu481 O499 2.392 . S
Eu481 O500 2.418 . S
Eu481 C510 2.828 . S
C482 O500 1.244 . S
C482 O503 1.265 . S
C483 C484 1.379 . S
C483 C487 1.373 . S
C483 C489 1.505 . S
C484 C483 1.379 . S
C484 C486 1.369 . S
C484 H512 0.930 . S
C485 C487 1.383 . S
C485 C488 1.382 . S
C485 H513 0.930 . S
C486 C484 1.369 . S
C486 C488 1.392 . S
C486 H514 0.930 . S
C487 C483 1.373 . S
C487 C485 1.383 . S
C487 H515 0.931 . S
C488 C485 1.382 . S
C488 C486 1.392 . S
C489 Eu480 2.828 . S
C489 C483 1.505 . S
C489 O501 1.249 . S
C489 O502 1.244 . S
O490 Eu481 2.373 . S
O490 C492 1.258 . S
O491 Eu480 2.392 . S
O491 C492 1.242 . S
C492 O490 1.258 . S
C492 O491 1.242 . S
O493 Eu480 2.418 . S
O493 C497 1.244 . S
O494 Eu481 2.488 . S
O494 C510 1.249 . S
O495 Eu481 2.471 . S
O495 C510 1.244 . S
O496 Eu481 2.349 . S
O496 C497 1.265 . S
C497 O493 1.244 . S
C497 O496 1.265 . S
O498 Eu480 2.373 . S
O498 C511 1.258 . S
O499 Eu481 2.392 . S
O499 C511 1.242 . S
O500 Eu481 2.418 . S
O500 C482 1.244 . S
O501 Eu480 2.488 . S
O501 C489 1.249 . S
O502 Eu480 2.471 . S
O502 C489 1.244 . S
O503 Eu480 2.349 . S
O503 C482 1.265 . S
C504 C505 1.379 . S
C504 C508 1.373 . S
C504 C510 1.505 . S
C505 C504 1.379 . S
C505 C507 1.369 . S
C505 H516 0.930 . S
C506 C508 1.383 . S
C506 C509 1.382 . S
C506 H517 0.930 . S
C507 C505 1.369 . S
C507 C509 1.392 . S
C507 H518 0.930 . S
C508 C504 1.373 . S
C508 C506 1.383 . S
C508 H519 0.931 . S
C509 C506 1.382 . S
C509 C507 1.392 . S
C510 Eu481 2.828 . S
C510 O494 1.249 . S
C510 O495 1.244 . S
C510 C504 1.505 . S
C511 O498 1.258 . S
C511 O499 1.242 . S
H512 C484 0.930 . S
H513 C485 0.930 . S
H514 C486 0.930 . S
H515 C487 0.931 . S
H516 C505 0.930 . S
H517 C506 0.930 . S
H518 C507 0.930 . S
H519 C508 0.931 . S
Eu520 C529 2.828 . S
Eu520 O531 2.392 . S
Eu520 O533 2.418 . S
Eu520 O538 2.373 . S
Eu520 O541 2.488 . S
Eu520 O542 2.471 . S
Eu520 O543 2.349 . S
Eu521 O530 2.373 . S
Eu521 O534 2.488 . S
Eu521 O535 2.471 . S
Eu521 O536 2.349 . S
Eu521 O539 2.392 . S
Eu521 O540 2.418 . S
Eu521 C550 2.828 . S
C522 O540 1.244 . S
C522 O543 1.265 . S
C523 C524 1.379 . S
C523 C527 1.373 . S
C523 C529 1.505 . S
C524 C523 1.379 . S
C524 C526 1.369 . S
C524 H552 0.930 . S
C525 C527 1.383 . S
C525 C528 1.382 . S
C525 H553 0.930 . S
C526 C524 1.369 . S
C526 C528 1.392 . S
C526 H554 0.930 . S
C527 C523 1.373 . S
C527 C525 1.383 . S
C527 H555 0.931 . S
C528 C525 1.382 . S
C528 C526 1.392 . S
C529 Eu520 2.828 . S
C529 C523 1.505 . S
C529 O541 1.249 . S
C529 O542 1.244 . S
O530 Eu521 2.373 . S
O530 C532 1.258 . S
O531 Eu520 2.392 . S
O531 C532 1.242 . S
C532 O530 1.258 . S
C532 O531 1.242 . S
O533 Eu520 2.418 . S
O533 C537 1.244 . S
O534 Eu521 2.488 . S
O534 C550 1.249 . S
O535 Eu521 2.471 . S
O535 C550 1.244 . S
O536 Eu521 2.349 . S
O536 C537 1.265 . S
C537 O533 1.244 . S
C537 O536 1.265 . S
O538 Eu520 2.373 . S
O538 C551 1.258 . S
O539 Eu521 2.392 . S
O539 C551 1.242 . S
O540 Eu521 2.418 . S
O540 C522 1.244 . S
O541 Eu520 2.488 . S
O541 C529 1.249 . S
O542 Eu520 2.471 . S
O542 C529 1.244 . S
O543 Eu520 2.349 . S
O543 C522 1.265 . S
C544 C545 1.379 . S
C544 C548 1.373 . S
C544 C550 1.505 . S
C545 C544 1.379 . S
C545 C547 1.369 . S
C545 H556 0.930 . S
C546 C548 1.383 . S
C546 C549 1.382 . S
C546 H557 0.930 . S
C547 C545 1.369 . S
C547 C549 1.392 . S
C547 H558 0.930 . S
C548 C544 1.373 . S
C548 C546 1.383 . S
C548 H559 0.931 . S
C549 C546 1.382 . S
C549 C547 1.392 . S
C550 Eu521 2.828 . S
C550 O534 1.249 . S
C550 O535 1.244 . S
C550 C544 1.505 . S
C551 O538 1.258 . S
C551 O539 1.242 . S
H552 C524 0.930 . S
H553 C525 0.930 . S
H554 C526 0.930 . S
H555 C527 0.931 . S
H556 C545 0.930 . S
H557 C546 0.930 . S
H558 C547 0.930 . S
H559 C548 0.931 . S
Eu560 C569 2.828 . S
Eu560 O571 2.392 . S
Eu560 O573 2.418 . S
Eu560 O578 2.373 . S
Eu560 O581 2.488 . S
Eu560 O582 2.471 . S
Eu560 O583 2.349 . S
Eu561 O570 2.373 . S
Eu561 O574 2.488 . S
Eu561 O575 2.471 . S
Eu561 O576 2.349 . S
Eu561 O579 2.392 . S
Eu561 O580 2.418 . S
Eu561 C590 2.828 . S
C562 O580 1.244 . S
C562 O583 1.265 . S
C563 C564 1.379 . S
C563 C567 1.373 . S
C563 C569 1.505 . S
C564 C563 1.379 . S
C564 C566 1.369 . S
C564 H592 0.930 . S
C565 C567 1.383 . S
C565 C568 1.382 . S
C565 H593 0.930 . S
C566 C564 1.369 . S
C566 C568 1.392 . S
C566 H594 0.930 . S
C567 C563 1.373 . S
C567 C565 1.383 . S
C567 H595 0.931 . S
C568 C565 1.382 . S
C568 C566 1.392 . S
C569 Eu560 2.828 . S
C569 C563 1.505 . S
C569 O581 1.249 . S
C569 O582 1.244 . S
O570 Eu561 2.373 . S
O570 C572 1.258 . S
O571 Eu560 2.392 . S
O571 C572 1.242 . S
C572 O570 1.258 . S
C572 O571 1.242 . S
O573 Eu560 2.418 . S
O573 C577 1.244 . S
O574 Eu561 2.488 . S
O574 C590 1.249 . S
O575 Eu561 2.471 . S
O575 C590 1.244 . S
O576 Eu561 2.349 . S
O576 C577 1.265 . S
C577 O573 1.244 . S
C577 O576 1.265 . S
O578 Eu560 2.373 . S
O578 C591 1.258 . S
O579 Eu561 2.392 . S
O579 C591 1.242 . S
O580 Eu561 2.418 . S
O580 C562 1.244 . S
O581 Eu560 2.488 . S
O581 C569 1.249 . S
O582 Eu560 2.471 . S
O582 C569 1.244 . S
O583 Eu560 2.349 . S
O583 C562 1.265 . S
C584 C585 1.379 . S
C584 C588 1.373 . S
C584 C590 1.505 . S
C585 C584 1.379 . S
C585 C587 1.369 . S
C585 H596 0.930 . S
C586 C588 1.383 . S
C586 C589 1.382 . S
C586 H597 0.930 . S
C587 C585 1.369 . S
C587 C589 1.392 . S
C587 H598 0.930 . S
C588 C584 1.373 . S
C588 C586 1.383 . S
C588 H599 0.931 . S
C589 C586 1.382 . S
C589 C587 1.392 . S
C590 Eu561 2.828 . S
C590 O574 1.249 . S
C590 O575 1.244 . S
C590 C584 1.505 . S
C591 O578 1.258 . S
C591 O579 1.242 . S
H592 C564 0.930 . S
H593 C565 0.930 . S
H594 C566 0.930 . S
H595 C567 0.931 . S
H596 C585 0.930 . S
H597 C586 0.930 . S
H598 C587 0.930 . S
H599 C588 0.931 . S
Eu600 C609 2.828 . S
Eu600 O611 2.392 . S
Eu600 O613 2.418 . S
Eu600 O618 2.373 . S
Eu600 O621 2.488 . S
Eu600 O622 2.471 . S
Eu600 O623 2.349 . S
Eu601 O610 2.373 . S
Eu601 O614 2.488 . S
Eu601 O615 2.471 . S
Eu601 O616 2.349 . S
Eu601 O619 2.392 . S
Eu601 O620 2.418 . S
Eu601 C630 2.828 . S
C602 O620 1.244 . S
C602 O623 1.265 . S
C603 C604 1.379 . S
C603 C607 1.373 . S
C603 C609 1.505 . S
C604 C603 1.379 . S
C604 C606 1.369 . S
C604 H632 0.930 . S
C605 C607 1.383 . S
C605 C608 1.382 . S
C605 H633 0.930 . S
C606 C604 1.369 . S
C606 C608 1.392 . S
C606 H634 0.930 . S
C607 C603 1.373 . S
C607 C605 1.383 . S
C607 H635 0.931 . S
C608 C605 1.382 . S
C608 C606 1.392 . S
C609 Eu600 2.828 . S
C609 C603 1.505 . S
C609 O621 1.249 . S
C609 O622 1.244 . S
O610 Eu601 2.373 . S
O610 C612 1.258 . S
O611 Eu600 2.392 . S
O611 C612 1.242 . S
C612 O610 1.258 . S
C612 O611 1.242 . S
O613 Eu600 2.418 . S
O613 C617 1.244 . S
O614 Eu601 2.488 . S
O614 C630 1.249 . S
O615 Eu601 2.471 . S
O615 C630 1.244 . S
O616 Eu601 2.349 . S
O616 C617 1.265 . S
C617 O613 1.244 . S
C617 O616 1.265 . S
O618 Eu600 2.373 . S
O618 C631 1.258 . S
O619 Eu601 2.392 . S
O619 C631 1.242 . S
O620 Eu601 2.418 . S
O620 C602 1.244 . S
O621 Eu600 2.488 . S
O621 C609 1.249 . S
O622 Eu600 2.471 . S
O622 C609 1.244 . S
O623 Eu600 2.349 . S
O623 C602 1.265 . S
C624 C625 1.379 . S
C624 C628 1.373 . S
C624 C630 1.505 . S
C625 C624 1.379 . S
C625 C627 1.369 . S
C625 H636 0.930 . S
C626 C628 1.383 . S
C626 C629 1.382 . S
C626 H637 0.930 . S
C627 C625 1.369 . S
C627 C629 1.392 . S
C627 H638 0.930 . S
C628 C624 1.373 . S
C628 C626 1.383 . S
C628 H639 0.931 . S
C629 C626 1.382 . S
C629 C627 1.392 . S
C630 Eu601 2.828 . S
C630 O614 1.249 . S
C630 O615 1.244 . S
C630 C624 1.505 . S
C631 O618 1.258 . S
C631 O619 1.242 . S
H632 C604 0.930 . S
H633 C605 0.930 . S
H634 C606 0.930 . S
H635 C607 0.931 . S
H636 C625 0.930 . S
H637 C626 0.930 . S
H638 C627 0.930 . S
H639 C628 0.931 . S
Eu640 C649 2.828 . S
Eu640 O651 2.392 . S
Eu640 O653 2.418 . S
Eu640 O658 2.373 . S
Eu640 O661 2.488 . S
Eu640 O662 2.471 . S
Eu640 O663 2.349 . S
Eu641 O650 2.373 . S
Eu641 O654 2.488 . S
Eu641 O655 2.471 . S
Eu641 O656 2.349 . S
Eu641 O659 2.392 . S
Eu641 O660 2.418 . S
Eu641 C670 2.828 . S
C642 O660 1.244 . S
C642 O663 1.265 . S
C643 C644 1.379 . S
C643 C647 1.373 . S
C643 C649 1.505 . S
C644 C643 1.379 . S
C644 C646 1.369 . S
C644 H672 0.930 . S
C645 C647 1.383 . S
C645 C648 1.382 . S
C645 H673 0.930 . S
C646 C644 1.369 . S
C646 C648 1.392 . S
C646 H674 0.930 . S
C647 C643 1.373 . S
C647 C645 1.383 . S
C647 H675 0.931 . S
C648 C645 1.382 . S
C648 C646 1.392 . S
C649 Eu640 2.828 . S
C649 C643 1.505 . S
C649 O661 1.249 . S
C649 O662 1.244 . S
O650 Eu641 2.373 . S
O650 C652 1.258 . S
O651 Eu640 2.392 . S
O651 C652 1.242 . S
C652 O650 1.258 . S
C652 O651 1.242 . S
O653 Eu640 2.418 . S
O653 C657 1.244 . S
O654 Eu641 2.488 . S
O654 C670 1.249 . S
O655 Eu641 2.471 . S
O655 C670 1.244 . S
O656 Eu641 2.349 . S
O656 C657 1.265 . S
C657 O653 1.244 . S
C657 O656 1.265 . S
O658 Eu640 2.373 . S
O658 C671 1.258 . S
O659 Eu641 2.392 . S
O659 C671 1.242 . S
O660 Eu641 2.418 . S
O660 C642 1.244 . S
O661 Eu640 2.488 . S
O661 C649 1.249 . S
O662 Eu640 2.471 . S
O662 C649 1.244 . S
O663 Eu640 2.349 . S
O663 C642 1.265 . S
C664 C665 1.379 . S
C664 C668 1.373 . S
C664 C670 1.505 . S
C665 C664 1.379 . S
C665 C667 1.369 . S
C665 H676 0.930 . S
C666 C668 1.383 . S
C666 C669 1.382 . S
C666 H677 0.930 . S
C667 C665 1.369 . S
C667 C669 1.392 . S
C667 H678 0.930 . S
C668 C664 1.373 . S
C668 C666 1.383 . S
C668 H679 0.931 . S
C669 C666 1.382 . S
C669 C667 1.392 . S
C670 Eu641 2.828 . S
C670 O654 1.249 . S
C670 O655 1.244 . S
C670 C664 1.505 . S
C671 O658 1.258 . S
C671 O659 1.242 . S
H672 C644 0.930 . S
H673 C645 0.930 . S
H674 C646 0.930 . S
H675 C647 0.931 . S
H676 C665 0.930 . S
H677 C666 0.930 . S
H678 C667 0.930 . S
H679 C668 0.931 . S
Eu680 C689 2.828 . S
Eu680 O691 2.392 . S
Eu680 O693 2.418 . S
Eu680 O698 2.373 . S
Eu680 O701 2.488 . S
Eu680 O702 2.471 . S
Eu680 O703 2.349 . S
Eu681 O690 2.373 . S
Eu681 O694 2.488 . S
Eu681 O695 2.471 . S
Eu681 O696 2.349 . S
Eu681 O699 2.392 . S
Eu681 O700 2.418 . S
Eu681 C710 2.828 . S
C682 O700 1.244 . S
C682 O703 1.265 . S
C683 C684 1.379 . S
C683 C687 1.373 . S
C683 C689 1.505 . S
C684 C683 1.379 . S
C684 C686 1.369 . S
C684 H712 0.930 . S
C685 C687 1.383 . S
C685 C688 1.382 . S
C685 H713 0.930 . S
C686 C684 1.369 . S
C686 C688 1.392 . S
C686 H714 0.930 . S
C687 C683 1.373 . S
C687 C685 1.383 . S
C687 H715 0.931 . S
C688 C685 1.382 . S
C688 C686 1.392 . S
C689 Eu680 2.828 . S
C689 C683 1.505 . S
C689 O701 1.249 . S
C689 O702 1.244 . S
O690 Eu681 2.373 . S
O690 C692 1.258 . S
O691 Eu680 2.392 . S
O691 C692 1.242 . S
C692 O690 1.258 . S
C692 O691 1.242 . S
O693 Eu680 2.418 . S
O693 C697 1.244 . S
O694 Eu681 2.488 . S
O694 C710 1.249 . S
O695 Eu681 2.471 . S
O695 C710 1.244 . S
O696 Eu681 2.349 . S
O696 C697 1.265 . S
C697 O693 1.244 . S
C697 O696 1.265 . S
O698 Eu680 2.373 . S
O698 C711 1.258 . S
O699 Eu681 2.392 . S
O699 C711 1.242 . S
O700 Eu681 2.418 . S
O700 C682 1.244 . S
O701 Eu680 2.488 . S
O701 C689 1.249 . S
O702 Eu680 2.471 . S
O702 C689 1.244 . S
O703 Eu680 2.349 . S
O703 C682 1.265 . S
C704 C705 1.379 . S
C704 C708 1.373 . S
C704 C710 1.505 . S
C705 C704 1.379 . S
C705 C707 1.369 . S
C705 H716 0.930 . S
C706 C708 1.383 . S
C706 C709 1.382 . S
C706 H717 0.930 . S
C707 C705 1.369 . S
C707 C709 1.392 . S
C707 H718 0.930 . S
C708 C704 1.373 . S
C708 C706 1.383 . S
C708 H719 0.931 . S
C709 C706 1.382 . S
C709 C707 1.392 . S
C710 Eu681 2.828 . S
C710 O694 1.249 . S
C710 O695 1.244 . S
C710 C704 1.505 . S
C711 O698 1.258 . S
C711 O699 1.242 . S
H712 C684 0.930 . S
H713 C685 0.930 . S
H714 C686 0.930 . S
H715 C687 0.931 . S
H716 C705 0.930 . S
H717 C706 0.930 . S
H718 C707 0.930 . S
H719 C708 0.931 . S
Eu720 C729 2.828 . S
Eu720 O731 2.392 . S
Eu720 O733 2.418 . S
Eu720 O738 2.373 . S
Eu720 O741 2.488 . S
Eu720 O742 2.471 . S
Eu720 O743 2.349 . S
Eu721 O730 2.373 . S
Eu721 O734 2.488 . S
Eu721 O735 2.471 . S
Eu721 O736 2.349 . S
Eu721 O739 2.392 . S
Eu721 O740 2.418 . S
Eu721 C750 2.828 . S
C722 O740 1.244 . S
C722 O743 1.265 . S
C723 C724 1.379 . S
C723 C727 1.373 . S
C723 C729 1.505 . S
C724 C723 1.379 . S
C724 C726 1.369 . S
C724 H752 0.930 . S
C725 C727 1.383 . S
C725 C728 1.382 . S
C725 H753 0.930 . S
C726 C724 1.369 . S
C726 C728 1.392 . S
C726 H754 0.930 . S
C727 C723 1.373 . S
C727 C725 1.383 . S
C727 H755 0.931 . S
C728 C725 1.382 . S
C728 C726 1.392 . S
C729 Eu720 2.828 . S
C729 C723 1.505 . S
C729 O741 1.249 . S
C729 O742 1.244 . S
O730 Eu721 2.373 . S
O730 C732 1.258 . S
O731 Eu720 2.392 . S
O731 C732 1.242 . S
C732 O730 1.258 . S
C732 O731 1.242 . S
O733 Eu720 2.418 . S
O733 C737 1.244 . S
O734 Eu721 2.488 . S
O734 C750 1.249 . S
O735 Eu721 2.471 . S
O735 C750 1.244 . S
O736 Eu721 2.349 . S
O736 C737 1.265 . S
C737 O733 1.244 . S
C737 O736 1.265 . S
O738 Eu720 2.373 . S
O738 C751 1.258 . S
O739 Eu721 2.392 . S
O739 C751 1.242 . S
O740 Eu721 2.418 . S
O740 C722 1.244 . S
O741 Eu720 2.488 . S
O741 C729 1.249 . S
O742 Eu720 2.471 . S
O742 C729 1.244 . S
O743 Eu720 2.349 . S
O743 C722 1.265 . S
C744 C745 1.379 . S
C744 C748 1.373 . S
C744 C750 1.505 . S
C745 C744 1.379 . S
C745 C747 1.369 . S
C745 H756 0.930 . S
C746 C748 1.383 . S
C746 C749 1.382 . S
C746 H757 0.930 . S
C747 C745 1.369 . S
C747 C749 1.392 . S
C747 H758 0.930 . S
C748 C744 1.373 . S
C748 C746 1.383 . S
C748 H759 0.931 . S
C749 C746 1.382 . S
C749 C747 1.392 . S
C750 Eu721 2.828 . S
C750 O734 1.249 . S
C750 O735 1.244 . S
C750 C744 1.505 . S
C751 O738 1.258 . S
C751 O739 1.242 . S
H752 C724 0.930 . S
H753 C725 0.930 . S
H754 C726 0.930 . S
H755 C727 0.931 . S
H756 C745 0.930 . S
H757 C746 0.930 . S
H758 C747 0.930 . S
H759 C748 0.931 . S
Eu760 C769 2.828 . S
Eu760 O771 2.392 . S
Eu760 O773 2.418 . S
Eu760 O778 2.373 . S
Eu760 O781 2.488 . S
Eu760 O782 2.471 . S
Eu760 O783 2.349 . S
Eu761 O770 2.373 . S
Eu761 O774 2.488 . S
Eu761 O775 2.471 . S
Eu761 O776 2.349 . S
Eu761 O779 2.392 . S
Eu761 O780 2.418 . S
Eu761 C790 2.828 . S
C762 O780 1.244 . S
C762 O783 1.265 . S
C763 C764 1.379 . S
C763 C767 1.373 . S
C763 C769 1.505 . S
C764 C763 1.379 . S
C764 C766 1.369 . S
C764 H792 0.930 . S
C765 C767 1.383 . S
C765 C768 1.382 . S
C765 H793 0.930 . S
C766 C764 1.369 . S
C766 C768 1.392 . S
C766 H794 0.930 . S
C767 C763 1.373 . S
C767 C765 1.383 . S
C767 H795 0.931 . S
C768 C765 1.382 . S
C768 C766 1.392 . S
C769 Eu760 2.828 . S
C769 C763 1.505 . S
C769 O781 1.249 . S
C769 O782 1.244 . S
O770 Eu761 2.373 . S
O770 C772 1.258 . S
O771 Eu760 2.392 . S
O771 C772 1.242 . S
C772 O770 1.258 . S
C772 O771 1.242 . S
O773 Eu760 2.418 . S
O773 C777 1.244 . S
O774 Eu761 2.488 . S
O774 C790 1.249 . S
O775 Eu761 2.471 . S
O775 C790 1.244 . S
O776 Eu761 2.349 . S
O776 C777 1.265 . S
C777 O773 1.244 . S
C777 O776 1.265 . S
O778 Eu760 2.373 . S
O778 C791 1.258 . S
O779 Eu761 2.392 . S
O779 C791 1.242 . S
O780 Eu761 2.418 . S
O780 C762 1.244 . S
O781 Eu760 2.488 . S
O781 C769 1.249 . S
O782 Eu760 2.471 . S
O782 C769 1.244 . S
O783 Eu760 2.349 . S
O783 C762 1.265 . S
C784 C785 1.379 . S
C784 C788 1.373 . S
C784 C790 1.505 . S
C785 C784 1.379 . S
C785 C787 1.369 . S
C785 H796 0.930 . S
C786 C788 1.383 . S
C786 C789 1.382 . S
C786 H797 0.930 . S
C787 C785 1.369 . S
C787 C789 1.392 . S
C787 H798 0.930 . S
C788 C784 1.373 . S
C788 C786 1.383 . S
C788 H799 0.931 . S
C789 C786 1.382 . S
C789 C787 1.392 . S
C790 Eu761 2.828 . S
C790 O774 1.249 . S
C790 O775 1.244 . S
C790 C784 1.505 . S
C791 O778 1.258 . S
C791 O779 1.242 . S
H792 C764 0.930 . S
H793 C765 0.930 . S
H794 C766 0.930 . S
H795 C767 0.931 . S
H796 C785 0.930 . S
H797 C786 0.930 . S
H798 C787 0.930 . S
H799 C788 0.931 . S
Eu800 C809 2.828 . S
Eu800 O811 2.392 . S
Eu800 O813 2.418 . S
Eu800 O818 2.373 . S
Eu800 O821 2.488 . S
Eu800 O822 2.471 . S
Eu800 O823 2.349 . S
Eu801 O810 2.373 . S
Eu801 O814 2.488 . S
Eu801 O815 2.471 . S
Eu801 O816 2.349 . S
Eu801 O819 2.392 . S
Eu801 O820 2.418 . S
Eu801 C830 2.828 . S
C802 O820 1.244 . S
C802 O823 1.265 . S
C803 C804 1.379 . S
C803 C807 1.373 . S
C803 C809 1.505 . S
C804 C803 1.379 . S
C804 C806 1.369 . S
C804 H832 0.930 . S
C805 C807 1.383 . S
C805 C808 1.382 . S
C805 H833 0.930 . S
C806 C804 1.369 . S
C806 C808 1.392 . S
C806 H834 0.930 . S
C807 C803 1.373 . S
C807 C805 1.383 . S
C807 H835 0.931 . S
C808 C805 1.382 . S
C808 C806 1.392 . S
C809 Eu800 2.828 . S
C809 C803 1.505 . S
C809 O821 1.249 . S
C809 O822 1.244 . S
O810 Eu801 2.373 . S
O810 C812 1.258 . S
O811 Eu800 2.392 . S
O811 C812 1.242 . S
C812 O810 1.258 . S
C812 O811 1.242 . S
O813 Eu800 2.418 . S
O813 C817 1.244 . S
O814 Eu801 2.488 . S
O814 C830 1.249 . S
O815 Eu801 2.471 . S
O815 C830 1.244 . S
O816 Eu801 2.349 . S
O816 C817 1.265 . S
C817 O813 1.244 . S
C817 O816 1.265 . S
O818 Eu800 2.373 . S
O818 C831 1.258 . S
O819 Eu801 2.392 . S
O819 C831 1.242 . S
O820 Eu801 2.418 . S
O820 C802 1.244 . S
O821 Eu800 2.488 . S
O821 C809 1.249 . S
O822 Eu800 2.471 . S
O822 C809 1.244 . S
O823 Eu800 2.349 . S
O823 C802 1.265 . S
C824 C825 1.379 . S
C824 C828 1.373 . S
C824 C830 1.505 . S
C825 C824 1.379 . S
C825 C827 1.369 . S
C825 H836 0.930 . S
C826 C828 1.383 . S
C826 C829 1.382 . S
C826 H837 0.930 . S
C827 C825 1.369 . S
C827 C829 1.392 . S
C827 H838 0.930 . S
C828 C824 1.373 . S
C828 C826 1.383 . S
C828 H839 0.931 . S
C829 C826 1.382 . S
C829 C827 1.392 . S
C830 Eu801 2.828 . S
C830 O814 1.249 . S
C830 O815 1.244 . S
C830 C824 1.505 . S
C831 O818 1.258 . S
C831 O819 1.242 . S
H832 C804 0.930 . S
H833 C805 0.930 . S
H834 C806 0.930 . S
H835 C807 0.931 . S
H836 C825 0.930 . S
H837 C826 0.930 . S
H838 C827 0.930 . S
H839 C828 0.931 . S
Eu840 C849 2.828 . S
Eu840 O851 2.392 . S
Eu840 O853 2.418 . S
Eu840 O858 2.373 . S
Eu840 O861 2.488 . S
Eu840 O862 2.471 . S
Eu840 O863 2.349 . S
Eu841 O850 2.373 . S
Eu841 O854 2.488 . S
Eu841 O855 2.471 . S
Eu841 O856 2.349 . S
Eu841 O859 2.392 . S
Eu841 O860 2.418 . S
Eu841 C870 2.828 . S
C842 O860 1.244 . S
C842 O863 1.265 . S
C843 C844 1.379 . S
C843 C847 1.373 . S
C843 C849 1.505 . S
C844 C843 1.379 . S
C844 C846 1.369 . S
C844 H872 0.930 . S
C845 C847 1.383 . S
C845 C848 1.382 . S
C845 H873 0.930 . S
C846 C844 1.369 . S
C846 C848 1.392 . S
C846 H874 0.930 . S
C847 C843 1.373 . S
C847 C845 1.383 . S
C847 H875 0.931 . S
C848 C845 1.382 . S
C848 C846 1.392 . S
C849 Eu840 2.828 . S
C849 C843 1.505 . S
C849 O861 1.249 . S
C849 O862 1.244 . S
O850 Eu841 2.373 . S
O850 C852 1.258 . S
O851 Eu840 2.392 . S
O851 C852 1.242 . S
C852 O850 1.258 . S
C852 O851 1.242 . S
O853 Eu840 2.418 . S
O853 C857 1.244 . S
O854 Eu841 2.488 . S
O854 C870 1.249 . S
O855 Eu841 2.471 . S
O855 C870 1.244 . S
O856 Eu841 2.349 . S
O856 C857 1.265 . S
C857 O853 1.244 . S
C857 O856 1.265 . S
O858 Eu840 2.373 . S
O858 C871 1.258 . S
O859 Eu841 2.392 . S
O859 C871 1.242 . S
O860 Eu841 2.418 . S
O860 C842 1.244 . S
O861 Eu840 2.488 . S
O861 C849 1.249 . S
O862 Eu840 2.471 . S
O862 C849 1.244 . S
O863 Eu840 2.349 . S
O863 C842 1.265 . S
C864 C865 1.379 . S
C864 C868 1.373 . S
C864 C870 1.505 . S
C865 C864 1.379 . S
C865 C867 1.369 . S
C865 H876 0.930 . S
C866 C868 1.383 . S
C866 C869 1.382 . S
C866 H877 0.930 . S
C867 C865 1.369 . S
C867 C869 1.392 . S
C867 H878 0.930 . S
C868 C864 1.373 . S
C868 C866 1.383 . S
C868 H879 0.931 . S
C869 C866 1.382 . S
C869 C867 1.392 . S
C870 Eu841 2.828 . S
C870 O854 1.249 . S
C870 O855 1.244 . S
C870 C864 1.505 . S
C871 O858 1.258 . S
C871 O859 1.242 . S
H872 C844 0.930 . S
H873 C845 0.930 . S
H874 C846 0.930 . S
H875 C847 0.931 . S
H876 C865 0.930 . S
H877 C866 0.930 . S
H878 C867 0.930 . S
H879 C868 0.931 . S
Eu880 C889 2.828 . S
Eu880 O891 2.392 . S
Eu880 O893 2.418 . S
Eu880 O898 2.373 . S
Eu880 O901 2.488 . S
Eu880 O902 2.471 . S
Eu880 O903 2.349 . S
Eu881 O890 2.373 . S
Eu881 O894 2.488 . S
Eu881 O895 2.471 . S
Eu881 O896 2.349 . S
Eu881 O899 2.392 . S
Eu881 O900 2.418 . S
Eu881 C910 2.828 . S
C882 O900 1.244 . S
C882 O903 1.265 . S
C883 C884 1.379 . S
C883 C887 1.373 . S
C883 C889 1.505 . S
C884 C883 1.379 . S
C884 C886 1.369 . S
C884 H912 0.930 . S
C885 C887 1.383 . S
C885 C888 1.382 . S
C885 H913 0.930 . S
C886 C884 1.369 . S
C886 C888 1.392 . S
C886 H914 0.930 . S
C887 C883 1.373 . S
C887 C885 1.383 . S
C887 H915 0.931 . S
C888 C885 1.382 . S
C888 C886 1.392 . S
C889 Eu880 2.828 . S
C889 C883 1.505 . S
C889 O901 1.249 . S
C889 O902 1.244 . S
O890 Eu881 2.373 . S
O890 C892 1.258 . S
O891 Eu880 2.392 . S
O891 C892 1.242 . S
C892 O890 1.258 . S
C892 O891 1.242 . S
O893 Eu880 2.418 . S
O893 C897 1.244 . S
O894 Eu881 2.488 . S
O894 C910 1.249 . S
O895 Eu881 2.471 . S
O895 C910 1.244 . S
O896 Eu881 2.349 . S
O896 C897 1.265 . S
C897 O893 1.244 . S
C897 O896 1.265 . S
O898 Eu880 2.373 . S
O898 C911 1.258 . S
O899 Eu881 2.392 . S
O899 C911 1.242 . S
O900 Eu881 2.418 . S
O900 C882 1.244 . S
O901 Eu880 2.488 . S
O901 C889 1.249 . S
O902 Eu880 2.471 . S
O902 C889 1.244 . S
O903 Eu880 2.349 . S
O903 C882 1.265 . S
C904 C905 1.379 . S
C904 C908 1.373 . S
C904 C910 1.505 . S
C905 C904 1.379 . S
C905 C907 1.369 . S
C905 H916 0.930 . S
C906 C908 1.383 . S
C906 C909 1.382 . S
C906 H917 0.930 . S
C907 C905 1.369 . S
C907 C909 1.392 . S
C907 H918 0.930 . S
C908 C904 1.373 . S
C908 C906 1.383 . S
C908 H919 0.931 . S
C909 C906 1.382 . S
C909 C907 1.392 . S
C910 Eu881 2.828 . S
C910 O894 1.249 . S
C910 O895 1.244 . S
C910 C904 1.505 . S
C911 O898 1.258 . S
C911 O899 1.242 . S
H912 C884 0.930 . S
H913 C885 0.930 . S
H914 C886 0.930 . S
H915 C887 0.931 . S
H916 C905 0.930 . S
H917 C906 0.930 . S
H918 C907 0.930 . S
H919 C908 0.931 . S
Eu920 C929 2.828 . S
Eu920 O931 2.392 . S
Eu920 O933 2.418 . S
Eu920 O938 2.373 . S
Eu920 O941 2.488 . S
Eu920 O942 2.471 . S
Eu920 O943 2.349 . S
Eu921 O930 2.373 . S
Eu921 O934 2.488 . S
Eu921 O935 2.471 . S
Eu921 O936 2.349 . S
Eu921 O939 2.392 . S
Eu921 O940 2.418 . S
Eu921 C950 2.828 . S
C922 O940 1.244 . S
C922 O943 1.265 . S
C923 C924 1.379 . S
C923 C927 1.373 . S
C923 C929 1.505 . S
C924 C923 1.379 . S
C924 C926 1.369 . S
C924 H952 0.930 . S
C925 C927 1.383 . S
C925 C928 1.382 . S
C925 H953 0.930 . S
C926 C924 1.369 . S
C926 C928 1.392 . S
C926 H954 0.930 . S
C927 C923 1.373 . S
C927 C925 1.383 . S
C927 H955 0.931 . S
C928 C925 1.382 . S
C928 C926 1.392 . S
C929 Eu920 2.828 . S
C929 C923 1.505 . S
C929 O941 1.249 . S
C929 O942 1.244 . S
O930 Eu921 2.373 . S
O930 C932 1.258 . S
O931 Eu920 2.392 . S
O931 C932 1.242 . S
C932 O930 1.258 . S
C932 O931 1.242 . S
O933 Eu920 2.418 . S
O933 C937 1.244 . S
O934 Eu921 2.488 . S
O934 C950 1.249 . S
O935 Eu921 2.471 . S
O935 C950 1.244 . S
O936 Eu921 2.349 . S
O936 C937 1.265 . S
C937 O933 1.244 . S
C937 O936 1.265 . S
O938 Eu920 2.373 . S
O938 C951 1.258 . S
O939 Eu921 2.392 . S
O939 C951 1.242 . S
O940 Eu921 2.418 . S
O940 C922 1.244 . S
O941 Eu920 2.488 . S
O941 C929 1.249 . S
O942 Eu920 2.471 . S
O942 C929 1.244 . S
O943 Eu920 2.349 . S
O943 C922 1.265 . S
C944 C945 1.379 . S
C944 C948 1.373 . S
C944 C950 1.505 . S
C945 C944 1.379 . S
C945 C947 1.369 . S
C945 H956 0.930 . S
C946 C948 1.383 . S
C946 C949 1.382 . S
C946 H957 0.930 . S
C947 C945 1.369 . S
C947 C949 1.392 . S
C947 H958 0.930 . S
C948 C944 1.373 . S
C948 C946 1.383 . S
C948 H959 0.931 . S
C949 C946 1.382 . S
C949 C947 1.392 . S
C950 Eu921 2.828 . S
C950 O934 1.249 . S
C950 O935 1.244 . S
C950 C944 1.505 . S
C951 O938 1.258 . S
C951 O939 1.242 . S
H952 C924 0.930 . S
H953 C925 0.930 . S
H954 C926 0.930 . S
H955 C927 0.931 . S
H956 C945 0.930 . S
H957 C946 0.930 . S
H958 C947 0.930 . S
H959 C948 0.931 . S
Eu960 C969 2.828 . S
Eu960 O971 2.392 . S
Eu960 O973 2.418 . S
Eu960 O978 2.373 . S
Eu960 O981 2.488 . S
Eu960 O982 2.471 . S
Eu960 O983 2.349 . S
Eu961 O970 2.373 . S
Eu961 O974 2.488 . S
Eu961 O975 2.471 . S
Eu961 O976 2.349 . S
Eu961 O979 2.392 . S
Eu961 O980 2.418 . S
Eu961 C990 2.828 . S
C962 O980 1.244 . S
C962 O983 1.265 . S
C963 C964 1.379 . S
C963 C967 1.373 . S
C963 C969 1.505 . S
C964 C963 1.379 . S
C964 C966 1.369 . S
C964 H992 0.930 . S
C965 C967 1.383 . S
C965 C968 1.382 . S
C965 H993 0.930 . S
C966 C964 1.369 . S
C966 C968 1.392 . S
C966 H994 0.930 . S
C967 C963 1.373 . S
C967 C965 1.383 . S
C967 H995 0.931 . S
C968 C965 1.382 . S
C968 C966 1.392 . S
C969 Eu960 2.828 . S
C969 C963 1.505 . S
C969 O981 1.249 . S
C969 O982 1.244 . S
O970 Eu961 2.373 . S
O970 C972 1.258 . S
O971 Eu960 2.392 . S
O971 C972 1.242 . S
C972 O970 1.258 . S
C972 O971 1.242 . S
O973 Eu960 2.418 . S
O973 C977 1.244 . S
O974 Eu961 2.488 . S
O974 C990 1.249 . S
O975 Eu961 2.471 . S
O975 C990 1.244 . S
O976 Eu961 2.349 . S
O976 C977 1.265 . S
C977 O973 1.244 . S
C977 O976 1.265 . S
O978 Eu960 2.373 . S
O978 C991 1.258 . S
O979 Eu961 2.392 . S
O979 C991 1.242 . S
O980 Eu961 2.418 . S
O980 C962 1.244 . S
O981 Eu960 2.488 . S
O981 C969 1.249 . S
O982 Eu960 2.471 . S
O982 C969 1.244 . S
O983 Eu960 2.349 . S
O983 C962 1.265 . S
C984 C985 1.379 . S
C984 C988 1.373 . S
C984 C990 1.505 . S
C985 C984 1.379 . S
C985 C987 1.369 . S
C985 H996 0.930 . S
C986 C988 1.383 . S
C986 C989 1.382 . S
C986 H997 0.930 . S
C987 C985 1.369 . S
C987 C989 1.392 . S
C987 H998 0.930 . S
C988 C984 1.373 . S
C988 C986 1.383 . S
C988 H999 0.931 . S
C989 C986 1.382 . S
C989 C987 1.392 . S
C990 Eu961 2.828 . S
C990 O974 1.249 . S
C990 O975 1.244 . S
C990 C984 1.505 . S
C991 O978 1.258 . S
C991 O979 1.242 . S
H992 C964 0.930 . S
H993 C965 0.930 . S
H994 C966 0.930 . S
H995 C967 0.931 . S
H996 C985 0.930 . S
H997 C986 0.930 . S
H998 C987 0.930 . S
H999 C988 0.931 . S
Eu1000 C1009 2.828 . S
Eu1000 O1011 2.392 . S
Eu1000 O1013 2.418 . S
Eu1000 O1018 2.373 . S
Eu1000 O1021 2.488 . S
Eu1000 O1022 2.471 . S
Eu1000 O1023 2.349 . S
Eu1001 O1010 2.373 . S
Eu1001 O1014 2.488 . S
Eu1001 O1015 2.471 . S
Eu1001 O1016 2.349 . S
Eu1001 O1019 2.392 . S
Eu1001 O1020 2.418 . S
Eu1001 C1030 2.828 . S
C1002 O1020 1.244 . S
C1002 O1023 1.265 . S
C1003 C1004 1.379 . S
C1003 C1007 1.373 . S
C1003 C1009 1.505 . S
C1004 C1003 1.379 . S
C1004 C1006 1.369 . S
C1004 H1032 0.930 . S
C1005 C1007 1.383 . S
C1005 C1008 1.382 . S
C1005 H1033 0.930 . S
C1006 C1004 1.369 . S
C1006 C1008 1.392 . S
C1006 H1034 0.930 . S
C1007 C1003 1.373 . S
C1007 C1005 1.383 . S
C1007 H1035 0.931 . S
C1008 C1005 1.382 . S
C1008 C1006 1.392 . S
C1009 Eu1000 2.828 . S
C1009 C1003 1.505 . S
C1009 O1021 1.249 . S
C1009 O1022 1.244 . S
O1010 Eu1001 2.373 . S
O1010 C1012 1.258 . S
O1011 Eu1000 2.392 . S
O1011 C1012 1.242 . S
C1012 O1010 1.258 . S
C1012 O1011 1.242 . S
O1013 Eu1000 2.418 . S
O1013 C1017 1.244 . S
O1014 Eu1001 2.488 . S
O1014 C1030 1.249 . S
O1015 Eu1001 2.471 . S
O1015 C1030 1.244 . S
O1016 Eu1001 2.349 . S
O1016 C1017 1.265 . S
C1017 O1013 1.244 . S
C1017 O1016 1.265 . S
O1018 Eu1000 2.373 . S
O1018 C1031 1.258 . S
O1019 Eu1001 2.392 . S
O1019 C1031 1.242 . S
O1020 Eu1001 2.418 . S
O1020 C1002 1.244 . S
O1021 Eu1000 2.488 . S
O1021 C1009 1.249 . S
O1022 Eu1000 2.471 . S
O1022 C1009 1.244 . S
O1023 Eu1000 2.349 . S
O1023 C1002 1.265 . S
C1024 C1025 1.379 . S
C1024 C1028 1.373 . S
C1024 C1030 1.505 . S
C1025 C1024 1.379 . S
C1025 C1027 1.369 . S
C1025 H1036 0.930 . S
C1026 C1028 1.383 . S
C1026 C1029 1.382 . S
C1026 H1037 0.930 . S
C1027 C1025 1.369 . S
C1027 C1029 1.392 . S
C1027 H1038 0.930 . S
C1028 C1024 1.373 . S
C1028 C1026 1.383 . S
C1028 H1039 0.931 . S
C1029 C1026 1.382 . S
C1029 C1027 1.392 . S
C1030 Eu1001 2.828 . S
C1030 O1014 1.249 . S
C1030 O1015 1.244 . S
C1030 C1024 1.505 . S
C1031 O1018 1.258 . S
C1031 O1019 1.242 . S
H1032 C1004 0.930 . S
H1033 C1005 0.930 . S
H1034 C1006 0.930 . S
H1035 C1007 0.931 . S
H1036 C1025 0.930 . S
H1037 C1026 0.930 . S
H1038 C1027 0.930 . S
H1039 C1028 0.931 . S
Eu1040 C1049 2.828 . S
Eu1040 O1051 2.392 . S
Eu1040 O1053 2.418 . S
Eu1040 O1058 2.373 . S
Eu1040 O1061 2.488 . S
Eu1040 O1062 2.471 . S
Eu1040 O1063 2.349 . S
Eu1041 O1050 2.373 . S
Eu1041 O1054 2.488 . S
Eu1041 O1055 2.471 . S
Eu1041 O1056 2.349 . S
Eu1041 O1059 2.392 . S
Eu1041 O1060 2.418 . S
Eu1041 C1070 2.828 . S
C1042 O1060 1.244 . S
C1042 O1063 1.265 . S
C1043 C1044 1.379 . S
C1043 C1047 1.373 . S
C1043 C1049 1.505 . S
C1044 C1043 1.379 . S
C1044 C1046 1.369 . S
C1044 H1072 0.930 . S
C1045 C1047 1.383 . S
C1045 C1048 1.382 . S
C1045 H1073 0.930 . S
C1046 C1044 1.369 . S
C1046 C1048 1.392 . S
C1046 H1074 0.930 . S
C1047 C1043 1.373 . S
C1047 C1045 1.383 . S
C1047 H1075 0.931 . S
C1048 C1045 1.382 . S
C1048 C1046 1.392 . S
C1049 Eu1040 2.828 . S
C1049 C1043 1.505 . S
C1049 O1061 1.249 . S
C1049 O1062 1.244 . S
O1050 Eu1041 2.373 . S
O1050 C1052 1.258 . S
O1051 Eu1040 2.392 . S
O1051 C1052 1.242 . S
C1052 O1050 1.258 . S
C1052 O1051 1.242 . S
O1053 Eu1040 2.418 . S
O1053 C1057 1.244 . S
O1054 Eu1041 2.488 . S
O1054 C1070 1.249 . S
O1055 Eu1041 2.471 . S
O1055 C1070 1.244 . S
O1056 Eu1041 2.349 . S
O1056 C1057 1.265 . S
C1057 O1053 1.244 . S
C1057 O1056 1.265 . S
O1058 Eu1040 2.373 . S
O1058 C1071 1.258 . S
O1059 Eu1041 2.392 . S
O1059 C1071 1.242 . S
O1060 Eu1041 2.418 . S
O1060 C1042 1.244 . S
O1061 Eu1040 2.488 . S
O1061 C1049 1.249 . S
O1062 Eu1040 2.471 . S
O1062 C1049 1.244 . S
O1063 Eu1040 2.349 . S
O1063 C1042 1.265 . S
C1064 C1065 1.379 . S
C1064 C1068 1.373 . S
C1064 C1070 1.505 . S
C1065 C1064 1.379 . S
C1065 C1067 1.369 . S
C1065 H1076 0.930 . S
C1066 C1068 1.383 . S
C1066 C1069 1.382 . S
C1066 H1077 0.930 . S
C1067 C1065 1.369 . S
C1067 C1069 1.392 . S
C1067 H1078 0.930 . S
C1068 C1064 1.373 . S
C1068 C1066 1.383 . S
C1068 H1079 0.931 . S
C1069 C1066 1.382 . S
C1069 C1067 1.392 . S
C1070 Eu1041 2.828 . S
C1070 O1054 1.249 . S
C1070 O1055 1.244 . S
C1070 C1064 1.505 . S
C1071 O1058 1.258 . S
C1071 O1059 1.242 . S
H1072 C1044 0.930 . S
H1073 C1045 0.930 . S
H1074 C1046 0.930 . S
H1075 C1047 0.931 . S
H1076 C1065 0.930 . S
H1077 C1066 0.930 . S
H1078 C1067 0.930 . S
H1079 C1068 0.931 . S
Eu1080 C1089 2.828 . S
Eu1080 O1091 2.392 . S
Eu1080 O1093 2.418 . S
Eu1080 O1098 2.373 . S
Eu1080 O1101 2.488 . S
Eu1080 O1102 2.471 . S
Eu1080 O1103 2.349 . S
Eu1081 O1090 2.373 . S
Eu1081 O1094 2.488 . S
Eu1081 O1095 2.471 . S
Eu1081 O1096 2.349 . S
Eu1081 O1099 2.392 . S
Eu1081 O1100 2.418 . S
Eu1081 C1110 2.828 . S
C1082 O1100 1.244 . S
C1082 O1103 1.265 . S
C1083 C1084 1.379 . S
C1083 C1087 1.373 . S
C1083 C1089 1.505 . S
C1084 C1083 1.379 . S
C1084 C1086 1.369 . S
C1084 H1112 0.930 . S
C1085 C1087 1.383 . S
C1085 C1088 1.382 . S
C1085 H1113 0.930 . S
C1086 C1084 1.369 . S
C1086 C1088 1.392 . S
C1086 H1114 0.930 . S
C1087 C1083 1.373 . S
C1087 C1085 1.383 . S
C1087 H1115 0.931 . S
C1088 C1085 1.382 . S
C1088 C1086 1.392 . S
C1089 Eu1080 2.828 . S
C1089 C1083 1.505 . S
C1089 O1101 1.249 . S
C1089 O1102 1.244 . S
O1090 Eu1081 2.373 . S
O1090 C1092 1.258 . S
O1091 Eu1080 2.392 . S
O1091 C1092 1.242 . S
C1092 O1090 1.258 . S
C1092 O1091 1.242 . S
O1093 Eu1080 2.418 . S
O1093 C1097 1.244 . S
O1094 Eu1081 2.488 . S
O1094 C1110 1.249 . S
O1095 Eu1081 2.471 . S
O1095 C1110 1.244 . S
O1096 Eu1081 2.349 . S
O1096 C1097 1.265 . S
C1097 O1093 1.244 . S
C1097 O1096 1.265 . S
O1098 Eu1080 2.373 . S
O1098 C1111 1.258 . S
O1099 Eu1081 2.392 . S
O1099 C1111 1.242 . S
O1100 Eu1081 2.418 . S
O1100 C1082 1.244 . S
O1101 Eu1080 2.488 . S
O1101 C1089 1.249 . S
O1102 Eu1080 2.471 . S
O1102 C1089 1.244 . S
O1103 Eu1080 2.349 . S
O1103 C1082 1.265 . S
C1104 C1105 1.379 . S
C1104 C1108 1.373 . S
C1104 C1110 1.505 . S
C1105 C1104 1.379 . S
C1105 C1107 1.369 . S
C1105 H1116 0.930 . S
C1106 C1108 1.383 . S
C1106 C1109 1.382 . S
C1106 H1117 0.930 . S
C1107 C1105 1.369 . S
C1107 C1109 1.392 . S
C1107 H1118 0.930 . S
C1108 C1104 1.373 . S
C1108 C1106 1.383 . S
C1108 H1119 0.931 . S
C1109 C1106 1.382 . S
C1109 C1107 1.392 . S
C1110 Eu1081 2.828 . S
C1110 O1094 1.249 . S
C1110 O1095 1.244 . S
C1110 C1104 1.505 . S
C1111 O1098 1.258 . S
C1111 O1099 1.242 . S
H1112 C1084 0.930 . S
H1113 C1085 0.930 . S
H1114 C1086 0.930 . S
H1115 C1087 0.931 . S
H1116 C1105 0.930 . S
H1117 C1106 0.930 . S
H1118 C1107 0.930 . S
H1119 C1108 0.931 . S
Eu1120 C1129 2.828 . S
Eu1120 O1131 2.392 . S
Eu1120 O1133 2.418 . S
Eu1120 O1138 2.373 . S
Eu1120 O1141 2.488 . S
Eu1120 O1142 2.471 . S
Eu1120 O1143 2.349 . S
Eu1121 O1130 2.373 . S
Eu1121 O1134 2.488 . S
Eu1121 O1135 2.471 . S
Eu1121 O1136 2.349 . S
Eu1121 O1139 2.392 . S
Eu1121 O1140 2.418 . S
Eu1121 C1150 2.828 . S
C1122 O1140 1.244 . S
C1122 O1143 1.265 . S
C1123 C1124 1.379 . S
C1123 C1127 1.373 . S
C1123 C1129 1.505 . S
C1124 C1123 1.379 . S
C1124 C1126 1.369 . S
C1124 H1152 0.930 . S
C1125 C1127 1.383 . S
C1125 C1128 1.382 . S
C1125 H1153 0.930 . S
C1126 C1124 1.369 . S
C1126 C1128 1.392 . S
C1126 H1154 0.930 . S
C1127 C1123 1.373 . S
C1127 C1125 1.383 . S
C1127 H1155 0.931 . S
C1128 C1125 1.382 . S
C1128 C1126 1.392 . S
C1129 Eu1120 2.828 . S
C1129 C1123 1.505 . S
C1129 O1141 1.249 . S
C1129 O1142 1.244 . S
O1130 Eu1121 2.373 . S
O1130 C1132 1.258 . S
O1131 Eu1120 2.392 . S
O1131 C1132 1.242 . S
C1132 O1130 1.258 . S
C1132 O1131 1.242 . S
O1133 Eu1120 2.418 . S
O1133 C1137 1.244 . S
O1134 Eu1121 2.488 . S
O1134 C1150 1.249 . S
O1135 Eu1121 2.471 . S
O1135 C1150 1.244 . S
O1136 Eu1121 2.349 . S
O1136 C1137 1.265 . S
C1137 O1133 1.244 . S
C1137 O1136 1.265 . S
O1138 Eu1120 2.373 . S
O1138 C1151 1.258 . S
O1139 Eu1121 2.392 . S
O1139 C1151 1.242 . S
O1140 Eu1121 2.418 . S
O1140 C1122 1.244 . S
O1141 Eu1120 2.488 . S
O1141 C1129 1.249 . S
O1142 Eu1120 2.471 . S
O1142 C1129 1.244 . S
O1143 Eu1120 2.349 . S
O1143 C1122 1.265 . S
C1144 C1145 1.379 . S
C1144 C1148 1.373 . S
C1144 C1150 1.505 . S
C1145 C1144 1.379 . S
C1145 C1147 1.369 . S
C1145 H1156 0.930 . S
C1146 C1148 1.383 . S
C1146 C1149 1.382 . S
C1146 H1157 0.930 . S
C1147 C1145 1.369 . S
C1147 C1149 1.392 . S
C1147 H1158 0.930 . S
C1148 C1144 1.373 . S
C1148 C1146 1.383 . S
C1148 H1159 0.931 . S
C1149 C1146 1.382 . S
C1149 C1147 1.392 . S
C1150 Eu1121 2.828 . S
C1150 O1134 1.249 . S
C1150 O1135 1.244 . S
C1150 C1144 1.505 . S
C1151 O1138 1.258 . S
C1151 O1139 1.242 . S
H1152 C1124 0.930 . S
H1153 C1125 0.930 . S
H1154 C1126 0.930 . S
H1155 C1127 0.931 . S
H1156 C1145 0.930 . S
H1157 C1146 0.930 . S
H1158 C1147 0.930 . S
H1159 C1148 0.931 . S
Eu1160 C1169 2.828 . S
Eu1160 O1171 2.392 . S
Eu1160 O1173 2.418 . S
Eu1160 O1178 2.373 . S
Eu1160 O1181 2.488 . S
Eu1160 O1182 2.471 . S
Eu1160 O1183 2.349 . S
Eu1161 O1170 2.373 . S
Eu1161 O1174 2.488 . S
Eu1161 O1175 2.471 . S
Eu1161 O1176 2.349 . S
Eu1161 O1179 2.392 . S
Eu1161 O1180 2.418 . S
Eu1161 C1190 2.828 . S
C1162 O1180 1.244 . S
C1162 O1183 1.265 . S
C1163 C1164 1.379 . S
C1163 C1167 1.373 . S
C1163 C1169 1.505 . S
C1164 C1163 1.379 . S
C1164 C1166 1.369 . S
C1164 H1192 0.930 . S
C1165 C1167 1.383 . S
C1165 C1168 1.382 . S
C1165 H1193 0.930 . S
C1166 C1164 1.369 . S
C1166 C1168 1.392 . S
C1166 H1194 0.930 . S
C1167 C1163 1.373 . S
C1167 C1165 1.383 . S
C1167 H1195 0.931 . S
C1168 C1165 1.382 . S
C1168 C1166 1.392 . S
C1169 Eu1160 2.828 . S
C1169 C1163 1.505 . S
C1169 O1181 1.249 . S
C1169 O1182 1.244 . S
O1170 Eu1161 2.373 . S
O1170 C1172 1.258 . S
O1171 Eu1160 2.392 . S
O1171 C1172 1.242 . S
C1172 O1170 1.258 . S
C1172 O1171 1.242 . S
O1173 Eu1160 2.418 . S
O1173 C1177 1.244 . S
O1174 Eu1161 2.488 . S
O1174 C1190 1.249 . S
O1175 Eu1161 2.471 . S
O1175 C1190 1.244 . S
O1176 Eu1161 2.349 . S
O1176 C1177 1.265 . S
C1177 O1173 1.244 . S
C1177 O1176 1.265 . S
O1178 Eu1160 2.373 . S
O1178 C1191 1.258 . S
O1179 Eu1161 2.392 . S
O1179 C1191 1.242 . S
O1180 Eu1161 2.418 . S
O1180 C1162 1.244 . S
O1181 Eu1160 2.488 . S
O1181 C1169 1.249 . S
O1182 Eu1160 2.471 . S
O1182 C1169 1.244 . S
O1183 Eu1160 2.349 . S
O1183 C1162 1.265 . S
C1184 C1185 1.379 . S
C1184 C1188 1.373 . S
C1184 C1190 1.505 . S
C1185 C1184 1.379 . S
C1185 C1187 1.369 . S
C1185 H1196 0.930 . S
C1186 C1188 1.383 . S
C1186 C1189 1.382 . S
C1186 H1197 0.930 . S
C1187 C1185 1.369 . S
C1187 C1189 1.392 . S
C1187 H1198 0.930 . S
C1188 C1184 1.373 . S
C1188 C1186 1.383 . S
C1188 H1199 0.931 . S
C1189 C1186 1.382 . S
C1189 C1187 1.392 . S
C1190 Eu1161 2.828 . S
C1190 O1174 1.249 . S
C1190 O1175 1.244 . S
C1190 C1184 1.505 . S
C1191 O1178 1.258 . S
C1191 O1179 1.242 . S
H1192 C1164 0.930 . S
H1193 C1165 0.930 . S
H1194 C1166 0.930 . S
H1195 C1167 0.931 . S
H1196 C1185 0.930 . S
H1197 C1186 0.930 . S
H1198 C1187 0.930 . S
H1199 C1188 0.931 . S
Eu1200 C1209 2.828 . S
Eu1200 O1211 2.392 . S
Eu1200 O1213 2.418 . S
Eu1200 O1218 2.373 . S
Eu1200 O1221 2.488 . S
Eu1200 O1222 2.471 . S
Eu1200 O1223 2.349 . S
Eu1201 O1210 2.373 . S
Eu1201 O1214 2.488 . S
Eu1201 O1215 2.471 . S
Eu1201 O1216 2.349 . S
Eu1201 O1219 2.392 . S
Eu1201 O1220 2.418 . S
Eu1201 C1230 2.828 . S
C1202 O1220 1.244 . S
C1202 O1223 1.265 . S
C1203 C1204 1.379 . S
C1203 C1207 1.373 . S
C1203 C1209 1.505 . S
C1204 C1203 1.379 . S
C1204 C1206 1.369 . S
C1204 H1232 0.930 . S
C1205 C1207 1.383 . S
C1205 C1208 1.382 . S
C1205 H1233 0.930 . S
C1206 C1204 1.369 . S
C1206 C1208 1.392 . S
C1206 H1234 0.930 . S
C1207 C1203 1.373 . S
C1207 C1205 1.383 . S
C1207 H1235 0.931 . S
C1208 C1205 1.382 . S
C1208 C1206 1.392 . S
C1209 Eu1200 2.828 . S
C1209 C1203 1.505 . S
C1209 O1221 1.249 . S
C1209 O1222 1.244 . S
O1210 Eu1201 2.373 . S
O1210 C1212 1.258 . S
O1211 Eu1200 2.392 . S
O1211 C1212 1.242 . S
C1212 O1210 1.258 . S
C1212 O1211 1.242 . S
O1213 Eu1200 2.418 . S
O1213 C1217 1.244 . S
O1214 Eu1201 2.488 . S
O1214 C1230 1.249 . S
O1215 Eu1201 2.471 . S
O1215 C1230 1.244 . S
O1216 Eu1201 2.349 . S
O1216 C1217 1.265 . S
C1217 O1213 1.244 . S
C1217 O1216 1.265 . S
O1218 Eu1200 2.373 . S
O1218 C1231 1.258 . S
O1219 Eu1201 2.392 . S
O1219 C1231 1.242 . S
O1220 Eu1201 2.418 . S
O1220 C1202 1.244 . S
O1221 Eu1200 2.488 . S
O1221 C1209 1.249 . S
O1222 Eu1200 2.471 . S
O1222 C1209 1.244 . S
O1223 Eu1200 2.349 . S
O1223 C1202 1.265 . S
C1224 C1225 1.379 . S
C1224 C1228 1.373 . S
C1224 C1230 1.505 . S
C1225 C1224 1.379 . S
C1225 C1227 1.369 . S
C1225 H1236 0.930 . S
C1226 C1228 1.383 . S
C1226 C1229 1.382 . S
C1226 H1237 0.930 . S
C1227 C1225 1.369 . S
C1227 C1229 1.392 . S
C1227 H1238 0.930 . S
C1228 C1224 1.373 . S
C1228 C1226 1.383 . S
C1228 H1239 0.931 . S
C1229 C1226 1.382 . S
C1229 C1227 1.392 . S
C1230 Eu1201 2.828 . S
C1230 O1214 1.249 . S
C1230 O1215 1.244 . S
C1230 C1224 1.505 . S
C1231 O1218 1.258 . S
C1231 O1219 1.242 . S
H1232 C1204 0.930 . S
H1233 C1205 0.930 . S
H1234 C1206 0.930 . S
H1235 C1207 0.931 . S
H1236 C1225 0.930 . S
H1237 C1226 0.930 . S
H1238 C1227 0.930 . S
H1239 C1228 0.931 . S
Eu1240 C1249 2.828 . S
Eu1240 O1251 2.392 . S
Eu1240 O1253 2.418 . S
Eu1240 O1258 2.373 . S
Eu1240 O1261 2.488 . S
Eu1240 O1262 2.471 . S
Eu1240 O1263 2.349 . S
Eu1241 O1250 2.373 . S
Eu1241 O1254 2.488 . S
Eu1241 O1255 2.471 . S
Eu1241 O1256 2.349 . S
Eu1241 O1259 2.392 . S
Eu1241 O1260 2.418 . S
Eu1241 C1270 2.828 . S
C1242 O1260 1.244 . S
C1242 O1263 1.265 . S
C1243 C1244 1.379 . S
C1243 C1247 1.373 . S
C1243 C1249 1.505 . S
C1244 C1243 1.379 . S
C1244 C1246 1.369 . S
C1244 H1272 0.930 . S
C1245 C1247 1.383 . S
C1245 C1248 1.382 . S
C1245 H1273 0.930 . S
C1246 C1244 1.369 . S
C1246 C1248 1.392 . S
C1246 H1274 0.930 . S
C1247 C1243 1.373 . S
C1247 C1245 1.383 . S
C1247 H1275 0.931 . S
C1248 C1245 1.382 . S
C1248 C1246 1.392 . S
C1249 Eu1240 2.828 . S
C1249 C1243 1.505 . S
C1249 O1261 1.249 . S
C1249 O1262 1.244 . S
O1250 Eu1241 2.373 . S
O1250 C1252 1.258 . S
O1251 Eu1240 2.392 . S
O1251 C1252 1.242 . S
C1252 O1250 1.258 . S
C1252 O1251 1.242 . S
O1253 Eu1240 2.418 . S
O1253 C1257 1.244 . S
O1254 Eu1241 2.488 . S
O1254 C1270 1.249 . S
O1255 Eu1241 2.471 . S
O1255 C1270 1.244 . S
O1256 Eu1241 2.349 . S
O1256 C1257 1.265 . S
C1257 O1253 1.244 . S
C1257 O1256 1.265 . S
O1258 Eu1240 2.373 . S
O1258 C1271 1.258 . S
O1259 Eu1241 2.392 . S
O1259 C1271 1.242 . S
O1260 Eu1241 2.418 . S
O1260 C1242 1.244 . S
O1261 Eu1240 2.488 . S
O1261 C1249 1.249 . S
O1262 Eu1240 2.471 . S
O1262 C1249 1.244 . S
O1263 Eu1240 2.349 . S
O1263 C1242 1.265 . S
C1264 C1265 1.379 . S
C1264 C1268 1.373 . S
C1264 C1270 1.505 . S
C1265 C1264 1.379 . S
C1265 C1267 1.369 . S
C1265 H1276 0.930 . S
C1266 C1268 1.383 . S
C1266 C1269 1.382 . S
C1266 H1277 0.930 . S
C1267 C1265 1.369 . S
C1267 C1269 1.392 . S
C1267 H1278 0.930 . S
C1268 C1264 1.373 . S
C1268 C1266 1.383 . S
C1268 H1279 0.931 . S
C1269 C1266 1.382 . S
C1269 C1267 1.392 . S
C1270 Eu1241 2.828 . S
C1270 O1254 1.249 . S
C1270 O1255 1.244 . S
C1270 C1264 1.505 . S
C1271 O1258 1.258 . S
C1271 O1259 1.242 . S
H1272 C1244 0.930 . S
H1273 C1245 0.930 . S
H1274 C1246 0.930 . S
H1275 C1247 0.931 . S
H1276 C1265 0.930 . S
H1277 C1266 0.930 . S
H1278 C1267 0.930 . S
H1279 C1268 0.931 . S
Eu1280 C1289 2.828 . S
Eu1280 O1291 2.392 . S
Eu1280 O1293 2.418 . S
Eu1280 O1298 2.373 . S
Eu1280 O1301 2.488 . S
Eu1280 O1302 2.471 . S
Eu1280 O1303 2.349 . S
Eu1281 O1290 2.373 . S
Eu1281 O1294 2.488 . S
Eu1281 O1295 2.471 . S
Eu1281 O1296 2.349 . S
Eu1281 O1299 2.392 . S
Eu1281 O1300 2.418 . S
Eu1281 C1310 2.828 . S
C1282 O1300 1.244 . S
C1282 O1303 1.265 . S
C1283 C1284 1.379 . S
C1283 C1287 1.373 . S
C1283 C1289 1.505 . S
C1284 C1283 1.379 . S
C1284 C1286 1.369 . S
C1284 H1312 0.930 . S
C1285 C1287 1.383 . S
C1285 C1288 1.382 . S
C1285 H1313 0.930 . S
C1286 C1284 1.369 . S
C1286 C1288 1.392 . S
C1286 H1314 0.930 . S
C1287 C1283 1.373 . S
C1287 C1285 1.383 . S
C1287 H1315 0.931 . S
C1288 C1285 1.382 . S
C1288 C1286 1.392 . S
C1289 Eu1280 2.828 . S
C1289 C1283 1.505 . S
C1289 O1301 1.249 . S
C1289 O1302 1.244 . S
O1290 Eu1281 2.373 . S
O1290 C1292 1.258 . S
O1291 Eu1280 2.392 . S
O1291 C1292 1.242 . S
C1292 O1290 1.258 . S
C1292 O1291 1.242 . S
O1293 Eu1280 2.418 . S
O1293 C1297 1.244 . S
O1294 Eu1281 2.488 . S
O1294 C1310 1.249 . S
O1295 Eu1281 2.471 . S
O1295 C1310 1.244 . S
O1296 Eu1281 2.349 . S
O1296 C1297 1.265 . S
C1297 O1293 1.244 . S
C1297 O1296 1.265 . S
O1298 Eu1280 2.373 . S
O1298 C1311 1.258 . S
O1299 Eu1281 2.392 . S
O1299 C1311 1.242 . S
O1300 Eu1281 2.418 . S
O1300 C1282 1.244 . S
O1301 Eu1280 2.488 . S
O1301 C1289 1.249 . S
O1302 Eu1280 2.471 . S
O1302 C1289 1.244 . S
O1303 Eu1280 2.349 . S
O1303 C1282 1.265 . S
C1304 C1305 1.379 . S
C1304 C1308 1.373 . S
C1304 C1310 1.505 . S
C1305 C1304 1.379 . S
C1305 C1307 1.369 . S
C1305 H1316 0.930 . S
C1306 C1308 1.383 . S
C1306 C1309 1.382 . S
C1306 H1317 0.930 . S
C1307 C1305 1.369 . S
C1307 C1309 1.392 . S
C1307 H1318 0.930 . S
C1308 C1304 1.373 . S
C1308 C1306 1.383 . S
C1308 H1319 0.931 . S
C1309 C1306 1.382 . S
C1309 C1307 1.392 . S
C1310 Eu1281 2.828 . S
C1310 O1294 1.249 . S
C1310 O1295 1.244 . S
C1310 C1304 1.505 . S
C1311 O1298 1.258 . S
C1311 O1299 1.242 . S
H1312 C1284 0.930 . S
H1313 C1285 0.930 . S
H1314 C1286 0.930 . S
H1315 C1287 0.931 . S
H1316 C1305 0.930 . S
H1317 C1306 0.930 . S
H1318 C1307 0.930 . S
H1319 C1308 0.931 . S
Eu1320 C1329 2.828 . S
Eu1320 O1331 2.392 . S
Eu1320 O1333 2.418 . S
Eu1320 O1338 2.373 . S
Eu1320 O1341 2.488 . S
Eu1320 O1342 2.471 . S
Eu1320 O1343 2.349 . S
Eu1321 O1330 2.373 . S
Eu1321 O1334 2.488 . S
Eu1321 O1335 2.471 . S
Eu1321 O1336 2.349 . S
Eu1321 O1339 2.392 . S
Eu1321 O1340 2.418 . S
Eu1321 C1350 2.828 . S
C1322 O1340 1.244 . S
C1322 O1343 1.265 . S
C1323 C1324 1.379 . S
C1323 C1327 1.373 . S
C1323 C1329 1.505 . S
C1324 C1323 1.379 . S
C1324 C1326 1.369 . S
C1324 H1352 0.930 . S
C1325 C1327 1.383 . S
C1325 C1328 1.382 . S
C1325 H1353 0.930 . S
C1326 C1324 1.369 . S
C1326 C1328 1.392 . S
C1326 H1354 0.930 . S
C1327 C1323 1.373 . S
C1327 C1325 1.383 . S
C1327 H1355 0.931 . S
C1328 C1325 1.382 . S
C1328 C1326 1.392 . S
C1329 Eu1320 2.828 . S
C1329 C1323 1.505 . S
C1329 O1341 1.249 . S
C1329 O1342 1.244 . S
O1330 Eu1321 2.373 . S
O1330 C1332 1.258 . S
O1331 Eu1320 2.392 . S
O1331 C1332 1.242 . S
C1332 O1330 1.258 . S
C1332 O1331 1.242 . S
O1333 Eu1320 2.418 . S
O1333 C1337 1.244 . S
O1334 Eu1321 2.488 . S
O1334 C1350 1.249 . S
O1335 Eu1321 2.471 . S
O1335 C1350 1.244 . S
O1336 Eu1321 2.349 . S
O1336 C1337 1.265 . S
C1337 O1333 1.244 . S
C1337 O1336 1.265 . S
O1338 Eu1320 2.373 . S
O1338 C1351 1.258 . S
O1339 Eu1321 2.392 . S
O1339 C1351 1.242 . S
O1340 Eu1321 2.418 . S
O1340 C1322 1.244 . S
O1341 Eu1320 2.488 . S
O1341 C1329 1.249 . S
O1342 Eu1320 2.471 . S
O1342 C1329 1.244 . S
O1343 Eu1320 2.349 . S
O1343 C1322 1.265 . S
C1344 C1345 1.379 . S
C1344 C1348 1.373 . S
C1344 C1350 1.505 . S
C1345 C1344 1.379 . S
C1345 C1347 1.369 . S
C1345 H1356 0.930 . S
C1346 C1348 1.383 . S
C1346 C1349 1.382 . S
C1346 H1357 0.930 . S
C1347 C1345 1.369 . S
C1347 C1349 1.392 . S
C1347 H1358 0.930 . S
C1348 C1344 1.373 . S
C1348 C1346 1.383 . S
C1348 H1359 0.931 . S
C1349 C1346 1.382 . S
C1349 C1347 1.392 . S
C1350 Eu1321 2.828 . S
C1350 O1334 1.249 . S
C1350 O1335 1.244 . S
C1350 C1344 1.505 . S
C1351 O1338 1.258 . S
C1351 O1339 1.242 . S
H1352 C1324 0.930 . S
H1353 C1325 0.930 . S
H1354 C1326 0.930 . S
H1355 C1327 0.931 . S
H1356 C1345 0.930 . S
H1357 C1346 0.930 . S
H1358 C1347 0.930 . S
H1359 C1348 0.931 . S
Eu1360 C1369 2.828 . S
Eu1360 O1371 2.392 . S
Eu1360 O1373 2.418 . S
Eu1360 O1378 2.373 . S
Eu1360 O1381 2.488 . S
Eu1360 O1382 2.471 . S
Eu1360 O1383 2.349 . S
Eu1361 O1370 2.373 . S
Eu1361 O1374 2.488 . S
Eu1361 O1375 2.471 . S
Eu1361 O1376 2.349 . S
Eu1361 O1379 2.392 . S
Eu1361 O1380 2.418 . S
Eu1361 C1390 2.828 . S
C1362 O1380 1.244 . S
C1362 O1383 1.265 . S
C1363 C1364 1.379 . S
C1363 C1367 1.373 . S
C1363 C1369 1.505 . S
C1364 C1363 1.379 . S
C1364 C1366 1.369 . S
C1364 H1392 0.930 . S
C1365 C1367 1.383 . S
C1365 C1368 1.382 . S
C1365 H1393 0.930 . S
C1366 C1364 1.369 . S
C1366 C1368 1.392 . S
C1366 H1394 0.930 . S
C1367 C1363 1.373 . S
C1367 C1365 1.383 . S
C1367 H1395 0.931 . S
C1368 C1365 1.382 . S
C1368 C1366 1.392 . S
C1369 Eu1360 2.828 . S
C1369 C1363 1.505 . S
C1369 O1381 1.249 . S
C1369 O1382 1.244 . S
O1370 Eu1361 2.373 . S
O1370 C1372 1.258 . S
O1371 Eu1360 2.392 . S
O1371 C1372 1.242 . S
C1372 O1370 1.258 . S
C1372 O1371 1.242 . S
O1373 Eu1360 2.418 . S
O1373 C1377 1.244 . S
O1374 Eu1361 2.488 . S
O1374 C1390 1.249 . S
O1375 Eu1361 2.471 . S
O1375 C1390 1.244 . S
O1376 Eu1361 2.349 . S
O1376 C1377 1.265 . S
C1377 O1373 1.244 . S
C1377 O1376 1.265 . S
O1378 Eu1360 2.373 . S
O1378 C1391 1.258 . S
O1379 Eu1361 2.392 . S
O1379 C1391 1.242 . S
O1380 Eu1361 2.418 . S
O1380 C1362 1.244 . S
O1381 Eu1360 2.488 . S
O1381 C1369 1.249 . S
O1382 Eu1360 2.471 . S
O1382 C1369 1.244 . S
O1383 Eu1360 2.349 . S
O1383 C1362 1.265 . S
C1384 C1385 1.379 . S
C1384 C1388 1.373 . S
C1384 C1390 1.505 . S
C1385 C1384 1.379 . S
C1385 C1387 1.369 . S
C1385 H1396 0.930 . S
C1386 C1388 1.383 . S
C1386 C1389 1.382 . S
C1386 H1397 0.930 . S
C1387 C1385 1.369 . S
C1387 C1389 1.392 . S
C1387 H1398 0.930 . S
C1388 C1384 1.373 . S
C1388 C1386 1.383 . S
C1388 H1399 0.931 . S
C1389 C1386 1.382 . S
C1389 C1387 1.392 . S
C1390 Eu1361 2.828 . S
C1390 O1374 1.249 . S
C1390 O1375 1.244 . S
C1390 C1384 1.505 . S
C1391 O1378 1.258 . S
C1391 O1379 1.242 . S
H1392 C1364 0.930 . S
H1393 C1365 0.930 . S
H1394 C1366 0.930 . S
H1395 C1367 0.931 . S
H1396 C1385 0.930 . S
H1397 C1386 0.930 . S
H1398 C1387 0.930 . S
H1399 C1388 0.931 . S
Eu1400 C1409 2.828 . S
Eu1400 O1411 2.392 . S
Eu1400 O1413 2.418 . S
Eu1400 O1418 2.373 . S
Eu1400 O1421 2.488 . S
Eu1400 O1422 2.471 . S
Eu1400 O1423 2.349 . S
Eu1401 O1410 2.373 . S
Eu1401 O1414 2.488 . S
Eu1401 O1415 2.471 . S
Eu1401 O1416 2.349 . S
Eu1401 O1419 2.392 . S
Eu1401 O1420 2.418 . S
Eu1401 C1430 2.828 . S
C1402 O1420 1.244 . S
C1402 O1423 1.265 . S
C1403 C1404 1.379 . S
C1403 C1407 1.373 . S
C1403 C1409 1.505 . S
C1404 C1403 1.379 . S
C1404 C1406 1.369 . S
C1404 H1432 0.930 . S
C1405 C1407 1.383 . S
C1405 C1408 1.382 . S
C1405 H1433 0.930 . S
C1406 C1404 1.369 . S
C1406 C1408 1.392 . S
C1406 H1434 0.930 . S
C1407 C1403 1.373 . S
C1407 C1405 1.383 . S
C1407 H1435 0.931 . S
C1408 C1405 1.382 . S
C1408 C1406 1.392 . S
C1409 Eu1400 2.828 . S
C1409 C1403 1.505 . S
C1409 O1421 1.249 . S
C1409 O1422 1.244 . S
O1410 Eu1401 2.373 . S
O1410 C1412 1.258 . S
O1411 Eu1400 2.392 . S
O1411 C1412 1.242 . S
C1412 O1410 1.258 . S
C1412 O1411 1.242 . S
O1413 Eu1400 2.418 . S
O1413 C1417 1.244 . S
O1414 Eu1401 2.488 . S
O1414 C1430 1.249 . S
O1415 Eu1401 2.471 . S
O1415 C1430 1.244 . S
O1416 Eu1401 2.349 . S
O1416 C1417 1.265 . S
C1417 O1413 1.244 . S
C1417 O1416 1.265 . S
O1418 Eu1400 2.373 . S
O1418 C1431 1.258 . S
O1419 Eu1401 2.392 . S
O1419 C1431 1.242 . S
O1420 Eu1401 2.418 . S
O1420 C1402 1.244 . S
O1421 Eu1400 2.488 . S
O1421 C1409 1.249 . S
O1422 Eu1400 2.471 . S
O1422 C1409 1.244 . S
O1423 Eu1400 2.349 . S
O1423 C1402 1.265 . S
C1424 C1425 1.379 . S
C1424 C1428 1.373 . S
C1424 C1430 1.505 . S
C1425 C1424 1.379 . S
C1425 C1427 1.369 . S
C1425 H1436 0.930 . S
C1426 C1428 1.383 . S
C1426 C1429 1.382 . S
C1426 H1437 0.930 . S
C1427 C1425 1.369 . S
C1427 C1429 1.392 . S
C1427 H1438 0.930 . S
C1428 C1424 1.373 . S
C1428 C1426 1.383 . S
C1428 H1439 0.931 . S
C1429 C1426 1.382 . S
C1429 C1427 1.392 . S
C1430 Eu1401 2.828 . S
C1430 O1414 1.249 . S
C1430 O1415 1.244 . S
C1430 C1424 1.505 . S
C1431 O1418 1.258 . S
C1431 O1419 1.242 . S
H1432 C1404 0.930 . S
H1433 C1405 0.930 . S
H1434 C1406 0.930 . S
H1435 C1407 0.931 . S
H1436 C1425 0.930 . S
H1437 C1426 0.930 . S
H1438 C1427 0.930 . S
H1439 C1428 0.931 . S
H1440 C1446 0.930 . S
H1441 C1450 0.930 . S
H1442 C1455 0.929 . S
H1443 C1453 0.929 . S
H1444 C1448 0.929 . S
H1445 C1454 0.929 1_556 S
C1446 H1440 0.930 . S
C1446 C1447 1.367 . S
C1446 C1454 1.378 . S
C1447 C1446 1.367 . S
C1447 C1455 1.433 . S
C1448 H1444 0.929 . S
C1448 C1450 1.378 . S
C1448 C1452 1.350 1_565 S
C1449 C1452 1.463 . S
C1449 C1454 1.350 . S
C1449 N1457 1.427 . S
C1450 H1441 0.930 . S
C1450 C1448 1.378 . S
C1450 C1451 1.367 1_554 S
C1451 C1450 1.367 1_556 S
C1451 C1453 1.433 . S
C1452 C1448 1.350 1_545 S
C1452 C1449 1.463 . S
C1452 N1456 1.427 1_554 S
C1453 H1443 0.929 . S
C1453 C1451 1.433 . S
C1453 N1456 1.384 1_565 S
C1454 H1445 0.929 1_554 S
C1454 C1446 1.378 . S
C1454 C1449 1.350 . S
C1455 H1442 0.929 . S
C1455 C1447 1.433 . S
C1455 N1457 1.384 . S
N1456 C1452 1.427 1_556 S
N1456 C1453 1.384 1_545 S
N1457 C1449 1.427 . S
N1457 C1455 1.384 . S
H1458 C1464 0.930 . S
H1459 C1468 0.930 . S
H1460 C1473 0.929 . S
H1461 C1471 0.929 . S
H1462 C1466 0.929 . S
H1463 C1472 0.929 . S
C1464 H1458 0.930 . S
C1464 C1465 1.367 . S
C1464 C1472 1.378 1_455 S
C1465 C1464 1.367 . S
C1465 C1473 1.433 1_556 S
C1466 H1462 0.929 . S
C1466 C1468 1.378 . S
C1466 C1470 1.350 . S
C1467 C1470 1.463 . S
C1467 C1472 1.350 1_554 S
C1467 N1475 1.418 1_655 S
C1468 H1459 0.930 . S
C1468 C1466 1.378 . S
C1468 C1469 1.367 . S
C1469 C1468 1.367 . S
C1469 C1471 1.433 . S
C1470 C1466 1.350 . S
C1470 C1467 1.463 . S
C1470 N1474 1.427 . S
C1471 H1461 0.929 . S
C1471 C1469 1.433 . S
C1471 N1474 1.384 . S
C1472 H1463 0.929 . S
C1472 C1464 1.378 1_655 S
C1472 C1467 1.350 1_556 S
C1473 H1460 0.929 . S
C1473 C1465 1.433 1_554 S
C1473 N1475 1.430 . S
N1474 C1470 1.427 . S
N1474 C1471 1.384 . S
N1475 C1467 1.418 1_455 S
N1475 C1473 1.430 . S
H1476 C1482 0.930 . S
H1477 C1486 0.930 . S
H1478 C1491 0.929 . S
H1479 C1489 0.929 . S
H1480 C1484 0.929 . S
H1481 C1490 0.929 . S
C1482 H1476 0.930 . S
C1482 C1483 1.367 . S
C1482 C1490 1.378 . S
C1483 C1482 1.367 . S
C1483 C1491 1.433 1_556 S
C1484 H1480 0.929 . S
C1484 C1486 1.378 . S
C1484 C1488 1.350 . S
C1485 C1488 1.463 . S
C1485 C1490 1.350 1_554 S
C1485 N1493 1.427 . S
C1486 H1477 0.930 . S
C1486 C1484 1.378 . S
C1486 C1487 1.367 . S
C1487 C1486 1.367 . S
C1487 C1489 1.433 . S
C1488 C1484 1.350 . S
C1488 C1485 1.463 . S
C1488 N1492 1.427 . S
C1489 H1479 0.929 . S
C1489 C1487 1.433 . S
C1489 N1492 1.384 . S
C1490 H1481 0.929 . S
C1490 C1482 1.378 . S
C1490 C1485 1.350 1_556 S
C1491 H1478 0.929 . S
C1491 C1483 1.433 1_554 S
C1491 N1493 1.384 . S
N1492 C1488 1.427 . S
N1492 C1489 1.384 . S
N1493 C1485 1.427 . S
N1493 C1491 1.384 . S
H1494 C1500 0.930 . S
H1495 C1504 0.930 . S
H1496 C1509 0.929 . S
H1497 C1507 0.929 . S
H1498 C1502 0.929 . S
H1499 C1508 0.929 . S
C1500 H1494 0.930 . S
C1500 C1501 1.367 . S
C1500 C1508 1.378 . S
C1501 C1500 1.367 . S
C1501 C1509 1.433 . S
C1502 H1498 0.929 . S
C1502 C1504 1.378 . S
C1502 C1506 1.350 . S
C1503 C1506 1.463 . S
C1503 C1508 1.350 1_455 S
C1503 N1511 1.427 . S
C1504 H1495 0.930 . S
C1504 C1502 1.378 . S
C1504 C1505 1.367 . S
C1505 C1504 1.367 . S
C1505 C1507 1.433 . S
C1506 C1502 1.350 . S
C1506 C1503 1.463 . S
C1506 N1510 1.427 . S
C1507 H1497 0.929 . S
C1507 C1505 1.433 . S
C1507 N1510 1.384 . S
C1508 H1499 0.929 . S
C1508 C1500 1.378 . S
C1508 C1503 1.350 1_655 S
C1509 H1496 0.929 . S
C1509 C1501 1.433 . S
C1509 N1511 1.384 1_655 S
N1510 C1506 1.427 . S
N1510 C1507 1.384 . S
N1511 C1503 1.427 . S
N1511 C1509 1.384 1_455 S
H1512 C1518 0.930 . S
H1513 C1522 0.930 . S
H1514 C1527 0.929 . S
H1515 C1525 0.929 . S
H1516 C1520 0.929 . S
H1517 C1526 0.929 . S
C1518 H1512 0.930 . S
C1518 C1519 1.367 . S
C1518 C1526 1.378 . S
C1519 C1518 1.367 . S
C1519 C1527 1.433 . S
C1520 H1516 0.929 . S
C1520 C1522 1.378 . S
C1520 C1524 1.350 . S
C1521 C1524 1.463 . S
C1521 C1526 1.350 . S
C1521 N1529 1.427 . S
C1522 H1513 0.930 . S
C1522 C1520 1.378 . S
C1522 C1523 1.367 . S
C1523 C1522 1.367 . S
C1523 C1525 1.433 . S
C1524 C1520 1.350 . S
C1524 C1521 1.463 . S
C1524 N1528 1.427 . S
C1525 H1515 0.929 . S
C1525 C1523 1.433 . S
C1525 N1528 1.384 . S
C1526 H1517 0.929 . S
C1526 C1518 1.378 . S
C1526 C1521 1.350 . S
C1527 H1514 0.929 . S
C1527 C1519 1.433 . S
C1527 N1529 1.384 . S
N1528 C1524 1.427 . S
N1528 C1525 1.384 . S
N1529 C1521 1.427 . S
N1529 C1527 1.384 . S
H1530 C1536 0.930 . S
H1531 C1540 0.930 . S
H1532 C1545 0.929 . S
H1533 C1543 0.929 . S
H1534 C1538 0.929 1_565 S
H1535 C1544 0.929 . S
C1536 H1530 0.930 . S
C1536 C1537 1.367 . S
C1536 C1544 1.378 . S
C1537 C1536 1.367 . S
C1537 C1545 1.433 . S
C1538 H1534 0.929 1_545 S
C1538 C1540 1.378 . S
C1538 C1542 1.350 1_545 S
C1539 C1542 1.463 . S
C1539 C1544 1.350 . S
C1539 N1547 1.427 . S
C1540 H1531 0.930 . S
C1540 C1538 1.378 . S
C1540 C1541 1.367 . S
C1541 C1540 1.367 . S
C1541 C1543 1.433 . S
C1542 C1538 1.350 1_565 S
C1542 C1539 1.463 . S
C1542 N1546 1.427 . S
C1543 H1533 0.929 . S
C1543 C1541 1.433 . S
C1543 N1546 1.384 1_545 S
C1544 H1535 0.929 . S
C1544 C1536 1.378 . S
C1544 C1539 1.350 . S
C1545 H1532 0.929 . S
C1545 C1537 1.433 . S
C1545 N1547 1.384 . S
N1546 C1542 1.427 . S
N1546 C1543 1.384 1_565 S
N1547 C1539 1.427 . S
N1547 C1545 1.384 . S
H1548 C1554 0.930 . S
H1549 C1558 0.930 . S
H1550 C1563 0.929 . S
H1551 C1561 0.929 . S
H1552 C1556 0.929 . S
H1553 C1562 0.929 . S
C1554 H1548 0.930 . S
C1554 C1555 1.367 . S
C1554 C1562 1.378 1_545 S
C1555 C1554 1.367 . S
C1555 C1563 1.433 1_554 S
C1556 H1552 0.929 . S
C1556 C1558 1.378 . S
C1556 C1560 1.350 . S
C1557 C1560 1.463 . S
C1557 C1562 1.350 1_556 S
C1557 N1565 1.427 1_565 S
C1558 H1549 0.930 . S
C1558 C1556 1.378 . S
C1558 C1559 1.367 . S
C1559 C1558 1.367 . S
C1559 C1561 1.433 . S
C1560 C1556 1.350 . S
C1560 C1557 1.463 . S
C1560 N1564 1.427 . S
C1561 H1551 0.929 . S
C1561 C1559 1.433 . S
C1561 N1564 1.384 . S
C1562 H1553 0.929 . S
C1562 C1554 1.378 1_565 S
C1562 C1557 1.350 1_554 S
C1563 H1550 0.929 . S
C1563 C1555 1.433 1_556 S
C1563 N1565 1.384 . S
N1564 C1560 1.427 . S
N1564 C1561 1.384 . S
N1565 C1557 1.427 1_545 S
N1565 C1563 1.384 . S
H1566 C1572 0.930 . S
H1567 C1576 0.930 . S
H1568 C1581 0.929 1_554 S
H1569 C1579 0.929 . S
H1570 C1574 0.929 . S
H1571 C1580 0.929 . S
C1572 H1566 0.930 . S
C1572 C1573 1.367 . S
C1572 C1580 1.378 . S
C1573 C1572 1.367 . S
C1573 C1581 1.433 . S
C1574 H1570 0.929 . S
C1574 C1576 1.378 1_455 S
C1574 C1578 1.350 1_554 S
C1575 C1578 1.463 . S
C1575 C1580 1.350 . S
C1575 N1583 1.427 1_556 S
C1576 H1567 0.930 . S
C1576 C1574 1.378 1_655 S
C1576 C1577 1.367 . S
C1577 C1576 1.367 . S
C1577 C1579 1.433 1_554 S
C1578 C1574 1.350 1_556 S
C1578 C1575 1.463 . S
C1578 N1582 1.427 1_455 S
C1579 H1569 0.929 . S
C1579 C1577 1.433 1_556 S
C1579 N1582 1.384 . S
C1580 H1571 0.929 . S
C1580 C1572 1.378 . S
C1580 C1575 1.350 . S
C1581 H1568 0.929 1_556 S
C1581 C1573 1.433 . S
C1581 N1583 1.384 1_556 S
N1582 C1578 1.427 1_655 S
N1582 C1579 1.384 . S
N1583 C1575 1.427 1_554 S
N1583 C1581 1.384 1_554 S
H1584 C1590 0.930 . S
H1585 C1594 0.930 . S
H1586 C1599 0.929 . S
H1587 C1597 0.929 . S
H1588 C1592 0.908 1_554 S
H1589 C1598 0.929 . S
C1590 H1584 0.930 . S
C1590 C1591 1.367 1_556 S
C1590 C1598 1.378 . S
C1591 C1590 1.367 1_554 S
C1591 C1599 1.433 . S
C1592 H1588 0.908 1_556 S
C1592 C1594 1.387 . S
C1592 C1596 1.362 . S
C1593 C1596 1.463 . S
C1593 C1598 1.350 . S
C1593 N1601 1.427 1_556 S
C1594 H1585 0.930 . S
C1594 C1592 1.387 . S
C1594 C1595 1.367 . S
C1595 C1594 1.367 . S
C1595 C1597 1.433 . S
C1596 C1592 1.362 . S
C1596 C1593 1.463 . S
C1596 N1600 1.427 . S
C1597 H1587 0.929 . S
C1597 C1595 1.433 . S
C1597 N1600 1.384 . S
C1598 H1589 0.929 . S
C1598 C1590 1.378 . S
C1598 C1593 1.350 . S
C1599 H1586 0.929 . S
C1599 C1591 1.433 . S
C1599 N1601 1.384 . S
N1600 C1596 1.427 . S
N1600 C1597 1.384 . S
N1601 C1593 1.427 1_554 S
N1601 C1599 1.384 . S
H1602 C1608 0.930 . S
H1603 C1612 0.930 . S
H1604 C1617 0.929 . S
H1605 C1615 0.929 . S
H1606 C1610 0.929 . S
H1607 C1616 0.929 . S
C1608 H1602 0.930 . S
C1608 C1609 1.367 . S
C1608 C1616 1.378 1_455 S
C1609 C1608 1.367 . S
C1609 C1617 1.433 . S
C1610 H1606 0.929 . S
C1610 C1612 1.378 . S
C1610 C1614 1.350 . S
C1611 C1614 1.463 . S
C1611 C1616 1.350 . S
C1611 N1619 1.427 1_655 S
C1612 H1603 0.930 . S
C1612 C1610 1.378 . S
C1612 C1613 1.367 . S
C1613 C1612 1.367 . S
C1613 C1615 1.433 . S
C1614 C1610 1.350 . S
C1614 C1611 1.463 . S
C1614 N1618 1.427 . S
C1615 H1605 0.929 . S
C1615 C1613 1.433 . S
C1615 N1618 1.384 . S
C1616 H1607 0.929 . S
C1616 C1608 1.378 1_655 S
C1616 C1611 1.350 . S
C1617 H1604 0.929 . S
C1617 C1609 1.433 . S
C1617 N1619 1.384 . S
N1618 C1614 1.427 . S
N1618 C1615 1.384 . S
N1619 C1611 1.427 1_455 S
N1619 C1617 1.384 . S
H1620 C1626 0.930 . S
H1621 C1630 0.930 . S
H1622 C1635 0.929 . S
H1623 C1633 0.929 . S
H1624 C1628 0.929 . S
H1625 C1634 0.929 . S
C1626 H1620 0.930 . S
C1626 C1627 1.367 . S
C1626 C1634 1.378 . S
C1627 C1626 1.367 . S
C1627 C1635 1.433 . S
C1628 H1624 0.929 . S
C1628 C1630 1.378 . S
C1628 C1632 1.350 . S
C1629 C1632 1.463 . S
C1629 C1634 1.350 . S
C1629 N1637 1.427 . S
C1630 H1621 0.930 . S
C1630 C1628 1.378 . S
C1630 C1631 1.367 . S
C1631 C1630 1.367 . S
C1631 C1633 1.433 . S
C1632 C1628 1.350 . S
C1632 C1629 1.463 . S
C1632 N1636 1.427 . S
C1633 H1623 0.929 . S
C1633 C1631 1.433 . S
C1633 N1636 1.384 . S
C1634 H1625 0.929 . S
C1634 C1626 1.378 . S
C1634 C1629 1.350 . S
C1635 H1622 0.929 . S
C1635 C1627 1.433 . S
C1635 N1637 1.384 . S
N1636 C1632 1.427 . S
N1636 C1633 1.384 . S
N1637 C1629 1.427 . S
N1637 C1635 1.384 . S
H1638 C1644 0.930 . S
H1639 C1648 0.930 . S
H1640 C1653 0.929 . S
H1641 C1651 0.929 . S
H1642 C1646 0.929 . S
H1643 C1652 0.929 . S
C1644 H1638 0.930 . S
C1644 C1645 1.367 . S
C1644 C1652 1.378 . S
C1645 C1644 1.367 . S
C1645 C1653 1.433 . S
C1646 H1642 0.929 . S
C1646 C1648 1.378 . S
C1646 C1650 1.350 1_565 S
C1647 C1650 1.463 . S
C1647 C1652 1.350 . S
C1647 N1655 1.427 . S
C1648 H1639 0.930 . S
C1648 C1646 1.378 . S
C1648 C1649 1.367 . S
C1649 C1648 1.367 . S
C1649 C1651 1.433 . S
C1650 C1646 1.350 1_545 S
C1650 C1647 1.463 . S
C1650 N1654 1.427 . S
C1651 H1641 0.929 . S
C1651 C1649 1.433 . S
C1651 N1654 1.384 1_565 S
C1652 H1643 0.929 . S
C1652 C1644 1.378 . S
C1652 C1647 1.350 . S
C1653 H1640 0.929 . S
C1653 C1645 1.433 . S
C1653 N1655 1.384 . S
N1654 C1650 1.427 . S
N1654 C1651 1.384 1_545 S
N1655 C1647 1.427 . S
N1655 C1653 1.384 . S
H1656 C1662 0.930 . S
H1657 C1666 0.930 . S
H1658 C1671 0.929 . S
H1659 C1669 0.929 . S
H1660 C1664 0.929 . S
H1661 C1670 0.929 . S
C1662 H1656 0.930 . S
C1662 C1663 1.367 . S
C1662 C1670 1.378 . S
C1663 C1662 1.367 . S
C1663 C1671 1.433 . S
C1664 H1660 0.929 . S
C1664 C1666 1.378 . S
C1664 C1668 1.350 . S
C1665 C1668 1.463 . S
C1665 C1670 1.350 . S
C1665 N1673 1.427 . S
C1666 H1657 0.930 . S
C1666 C1664 1.378 . S
C1666 C1667 1.367 . S
C1667 C1666 1.367 . S
C1667 C1669 1.433 . S
C1668 C1664 1.350 . S
C1668 C1665 1.463 . S
C1668 N1672 1.427 . S
C1669 H1659 0.929 . S
C1669 C1667 1.433 . S
C1669 N1672 1.384 . S
C1670 H1661 0.929 . S
C1670 C1662 1.378 . S
C1670 C1665 1.350 . S
C1671 H1658 0.929 . S
C1671 C1663 1.433 . S
C1671 N1673 1.384 . S
N1672 C1668 1.427 . S
N1672 C1669 1.384 . S
N1673 C1665 1.427 . S
N1673 C1671 1.384 . S
H1674 C1680 0.930 . S
H1675 C1684 0.930 . S
H1676 C1689 0.929 . S
H1677 C1687 0.929 . S
H1678 C1682 0.929 . S
H1679 C1688 0.929 . S
C1680 H1674 0.930 . S
C1680 C1681 1.367 . S
C1680 C1688 1.378 . S
C1681 C1680 1.367 . S
C1681 C1689 1.433 . S
C1682 H1678 0.929 . S
C1682 C1684 1.378 . S
C1682 C1686 1.350 . S
C1683 C1686 1.463 . S
C1683 C1688 1.350 . S
C1683 N1691 1.427 . S
C1684 H1675 0.930 . S
C1684 C1682 1.378 . S
C1684 C1685 1.367 . S
C1685 C1684 1.367 . S
C1685 C1687 1.433 . S
C1686 C1682 1.350 . S
C1686 C1683 1.463 . S
C1686 N1690 1.427 . S
C1687 H1677 0.929 . S
C1687 C1685 1.433 . S
C1687 N1690 1.384 . S
C1688 H1679 0.929 . S
C1688 C1680 1.378 . S
C1688 C1683 1.350 . S
C1689 H1676 0.929 . S
C1689 C1681 1.433 . S
C1689 N1691 1.384 . S
N1690 C1686 1.427 . S
N1690 C1687 1.384 . S
N1691 C1683 1.427 . S
N1691 C1689 1.384 . S
H1692 C1698 0.930 . S
H1693 C1702 0.930 . S
H1694 C1707 0.929 . S
H1695 C1705 0.929 . S
H1696 C1700 0.929 . S
H1697 C1706 0.929 . S
C1698 H1692 0.930 . S
C1698 C1699 1.367 . S
C1698 C1706 1.378 . S
C1699 C1698 1.367 . S
C1699 C1707 1.433 . S
C1700 H1696 0.929 . S
C1700 C1702 1.378 . S
C1700 C1704 1.350 . S
C1701 C1704 1.463 . S
C1701 C1706 1.350 . S
C1701 N1709 1.427 . S
C1702 H1693 0.930 . S
C1702 C1700 1.378 . S
C1702 C1703 1.367 . S
C1703 C1702 1.367 . S
C1703 C1705 1.433 . S
C1704 C1700 1.350 . S
C1704 C1701 1.463 . S
C1704 N1708 1.427 . S
C1705 H1695 0.929 . S
C1705 C1703 1.433 . S
C1705 N1708 1.384 . S
C1706 H1697 0.929 . S
C1706 C1698 1.378 . S
C1706 C1701 1.350 . S
C1707 H1694 0.929 . S
C1707 C1699 1.433 . S
C1707 N1709 1.384 . S
N1708 C1704 1.427 . S
N1708 C1705 1.384 . S
N1709 C1701 1.427 . S
N1709 C1707 1.384 . S
H1710 C1716 0.930 . S
H1711 C1720 0.930 . S
H1712 C1725 0.929 . S
H1713 C1723 0.929 . S
H1714 C1718 0.929 . S
H1715 C1724 0.929 . S
C1716 H1710 0.930 . S
C1716 C1717 1.367 . S
C1716 C1724 1.378 . S
C1717 C1716 1.367 . S
C1717 C1725 1.433 . S
C1718 H1714 0.929 . S
C1718 C1720 1.378 . S
C1718 C1722 1.350 . S
C1719 C1722 1.463 . S
C1719 C1724 1.350 . S
C1719 N1727 1.427 . S
C1720 H1711 0.930 . S
C1720 C1718 1.378 . S
C1720 C1721 1.367 . S
C1721 C1720 1.367 . S
C1721 C1723 1.433 . S
C1722 C1718 1.350 . S
C1722 C1719 1.463 . S
C1722 N1726 1.427 . S
C1723 H1713 0.929 . S
C1723 C1721 1.433 . S
C1723 N1726 1.384 . S
C1724 H1715 0.929 . S
C1724 C1716 1.378 . S
C1724 C1719 1.350 . S
C1725 H1712 0.929 . S
C1725 C1717 1.433 . S
C1725 N1727 1.384 . S
N1726 C1722 1.427 . S
N1726 C1723 1.384 . S
N1727 C1719 1.427 . S
N1727 C1725 1.384 . S
H1728 C1734 0.930 . S
H1729 C1738 0.930 . S
H1730 C1743 0.929 . S
H1731 C1741 0.929 . S
H1732 C1736 0.929 . S
H1733 C1742 0.929 . S
C1734 H1728 0.930 . S
C1734 C1735 1.367 . S
C1734 C1742 1.378 . S
C1735 C1734 1.367 . S
C1735 C1743 1.433 . S
C1736 H1732 0.929 . S
C1736 C1738 1.378 . S
C1736 C1740 1.350 . S
C1737 C1740 1.463 . S
C1737 C1742 1.350 . S
C1737 N1745 1.427 . S
C1738 H1729 0.930 . S
C1738 C1736 1.378 . S
C1738 C1739 1.367 . S
C1739 C1738 1.367 . S
C1739 C1741 1.433 . S
C1740 C1736 1.350 . S
C1740 C1737 1.463 . S
C1740 N1744 1.427 . S
C1741 H1731 0.929 . S
C1741 C1739 1.433 . S
C1741 N1744 1.384 . S
C1742 H1733 0.929 . S
C1742 C1734 1.378 . S
C1742 C1737 1.350 . S
C1743 H1730 0.929 . S
C1743 C1735 1.433 . S
C1743 N1745 1.384 . S
N1744 C1740 1.427 . S
N1744 C1741 1.384 . S
N1745 C1737 1.427 . S
N1745 C1743 1.384 . S
H1746 C1752 0.930 . S
H1747 C1756 0.930 . S
H1748 C1761 0.929 . S
H1749 C1759 0.929 . S
H1750 C1754 0.929 . S
H1751 C1760 0.929 . S
C1752 H1746 0.930 . S
C1752 C1753 1.367 . S
C1752 C1760 1.378 . S
C1753 C1752 1.367 . S
C1753 C1761 1.433 . S
C1754 H1750 0.929 . S
C1754 C1756 1.378 . S
C1754 C1758 1.350 . S
C1755 C1758 1.463 . S
C1755 C1760 1.350 . S
C1755 N1763 1.427 . S
C1756 H1747 0.930 . S
C1756 C1754 1.378 . S
C1756 C1757 1.367 . S
C1757 C1756 1.367 . S
C1757 C1759 1.433 . S
C1758 C1754 1.350 . S
C1758 C1755 1.463 . S
C1758 N1762 1.427 . S
C1759 H1749 0.929 . S
C1759 C1757 1.433 . S
C1759 N1762 1.384 . S
C1760 H1751 0.929 . S
C1760 C1752 1.378 . S
C1760 C1755 1.350 . S
C1761 H1748 0.929 . S
C1761 C1753 1.433 . S
C1761 N1763 1.384 . S
N1762 C1758 1.427 . S
N1762 C1759 1.384 . S
N1763 C1755 1.427 . S
N1763 C1761 1.384 . S
H1764 C1770 0.930 . S
H1765 C1774 0.930 . S
H1766 C1779 0.929 . S
H1767 C1777 0.929 . S
H1768 C1772 0.929 . S
H1769 C1778 0.929 . S
C1770 H1764 0.930 . S
C1770 C1771 1.367 . S
C1770 C1778 1.378 . S
C1771 C1770 1.367 . S
C1771 C1779 1.433 . S
C1772 H1768 0.929 . S
C1772 C1774 1.378 . S
C1772 C1776 1.350 . S
C1773 C1776 1.463 . S
C1773 C1778 1.350 . S
C1773 N1781 1.427 . S
C1774 H1765 0.930 . S
C1774 C1772 1.378 . S
C1774 C1775 1.367 . S
C1775 C1774 1.367 . S
C1775 C1777 1.433 . S
C1776 C1772 1.350 . S
C1776 C1773 1.463 . S
C1776 N1780 1.427 . S
C1777 H1767 0.929 . S
C1777 C1775 1.433 . S
C1777 N1780 1.384 . S
C1778 H1769 0.929 . S
C1778 C1770 1.378 . S
C1778 C1773 1.350 . S
C1779 H1766 0.929 . S
C1779 C1771 1.433 . S
C1779 N1781 1.384 . S
N1780 C1776 1.427 . S
N1780 C1777 1.384 . S
N1781 C1773 1.427 . S
N1781 C1779 1.384 . S
H1782 C1788 0.930 . S
H1783 C1792 0.930 . S
H1784 C1797 0.929 . S
H1785 C1795 0.929 . S
H1786 C1790 0.929 . S
H1787 C1796 0.929 . S
C1788 H1782 0.930 . S
C1788 C1789 1.367 . S
C1788 C1796 1.378 . S
C1789 C1788 1.367 . S
C1789 C1797 1.433 . S
C1790 H1786 0.929 . S
C1790 C1792 1.378 . S
C1790 C1794 1.350 . S
C1791 C1794 1.463 . S
C1791 C1796 1.350 . S
C1791 N1799 1.427 . S
C1792 H1783 0.930 . S
C1792 C1790 1.378 . S
C1792 C1793 1.367 . S
C1793 C1792 1.367 . S
C1793 C1795 1.433 . S
C1794 C1790 1.350 . S
C1794 C1791 1.463 . S
C1794 N1798 1.427 . S
C1795 H1785 0.929 . S
C1795 C1793 1.433 . S
C1795 N1798 1.384 . S
C1796 H1787 0.929 . S
C1796 C1788 1.378 . S
C1796 C1791 1.350 . S
C1797 H1784 0.929 . S
C1797 C1789 1.433 . S
C1797 N1799 1.384 . S
N1798 C1794 1.427 . S
N1798 C1795 1.384 . S
N1799 C1791 1.427 . S
N1799 C1797 1.384 . S
H1800 C1806 0.930 . S
H1801 C1810 0.930 . S
H1802 C1815 0.929 . S
H1803 C1813 0.929 . S
H1804 C1808 0.929 . S
H1805 C1814 0.929 . S
C1806 H1800 0.930 . S
C1806 C1807 1.367 . S
C1806 C1814 1.378 . S
C1807 C1806 1.367 . S
C1807 C1815 1.433 . S
C1808 H1804 0.929 . S
C1808 C1810 1.378 . S
C1808 C1812 1.350 . S
C1809 C1812 1.463 . S
C1809 C1814 1.350 . S
C1809 N1817 1.427 . S
C1810 H1801 0.930 . S
C1810 C1808 1.378 . S
C1810 C1811 1.367 . S
C1811 C1810 1.367 . S
C1811 C1813 1.433 . S
C1812 C1808 1.350 . S
C1812 C1809 1.463 . S
C1812 N1816 1.427 . S
C1813 H1803 0.929 . S
C1813 C1811 1.433 . S
C1813 N1816 1.384 . S
C1814 H1805 0.929 . S
C1814 C1806 1.378 . S
C1814 C1809 1.350 . S
C1815 H1802 0.929 . S
C1815 C1807 1.433 . S
C1815 N1817 1.384 . S
N1816 C1812 1.427 . S
N1816 C1813 1.384 . S
N1817 C1809 1.427 . S
N1817 C1815 1.384 . S
H1818 C1824 0.930 . S
H1819 C1828 0.930 . S
H1820 C1833 0.929 . S
H1821 C1831 0.929 . S
H1822 C1826 0.929 . S
H1823 C1832 0.929 . S
C1824 H1818 0.930 . S
C1824 C1825 1.367 . S
C1824 C1832 1.378 . S
C1825 C1824 1.367 . S
C1825 C1833 1.433 . S
C1826 H1822 0.929 . S
C1826 C1828 1.378 . S
C1826 C1830 1.350 . S
C1827 C1830 1.463 . S
C1827 C1832 1.350 . S
C1827 N1835 1.427 . S
C1828 H1819 0.930 . S
C1828 C1826 1.378 . S
C1828 C1829 1.367 . S
C1829 C1828 1.367 . S
C1829 C1831 1.433 . S
C1830 C1826 1.350 . S
C1830 C1827 1.463 . S
C1830 N1834 1.427 . S
C1831 H1821 0.929 . S
C1831 C1829 1.433 . S
C1831 N1834 1.384 . S
C1832 H1823 0.929 . S
C1832 C1824 1.378 . S
C1832 C1827 1.350 . S
C1833 H1820 0.929 . S
C1833 C1825 1.433 . S
C1833 N1835 1.384 . S
N1834 C1830 1.427 . S
N1834 C1831 1.384 . S
N1835 C1827 1.427 . S
N1835 C1833 1.384 . S
H1836 C1842 0.930 . S
H1837 C1846 0.930 . S
H1838 C1851 0.929 . S
H1839 C1849 0.929 . S
H1840 C1844 0.929 . S
H1841 C1850 0.929 . S
C1842 H1836 0.930 . S
C1842 C1843 1.367 . S
C1842 C1850 1.378 . S
C1843 C1842 1.367 . S
C1843 C1851 1.433 . S
C1844 H1840 0.929 . S
C1844 C1846 1.378 . S
C1844 C1848 1.350 . S
C1845 C1848 1.463 . S
C1845 C1850 1.350 . S
C1845 N1853 1.427 . S
C1846 H1837 0.930 . S
C1846 C1844 1.378 . S
C1846 C1847 1.367 . S
C1847 C1846 1.367 . S
C1847 C1849 1.433 . S
C1848 C1844 1.350 . S
C1848 C1845 1.463 . S
C1848 N1852 1.427 . S
C1849 H1839 0.929 . S
C1849 C1847 1.433 . S
C1849 N1852 1.384 . S
C1850 H1841 0.929 . S
C1850 C1842 1.378 . S
C1850 C1845 1.350 . S
C1851 H1838 0.929 . S
C1851 C1843 1.433 . S
C1851 N1853 1.384 . S
N1852 C1848 1.427 . S
N1852 C1849 1.384 . S
N1853 C1845 1.427 . S
N1853 C1851 1.384 . S
H1854 C1860 0.930 . S
H1855 C1864 0.930 . S
H1856 C1869 0.929 . S
H1857 C1867 0.929 . S
H1858 C1862 0.929 . S
H1859 C1868 0.929 . S
C1860 H1854 0.930 . S
C1860 C1861 1.367 . S
C1860 C1868 1.378 . S
C1861 C1860 1.367 . S
C1861 C1869 1.433 . S
C1862 H1858 0.929 . S
C1862 C1864 1.378 . S
C1862 C1866 1.350 . S
C1863 C1866 1.463 . S
C1863 C1868 1.350 . S
C1863 N1871 1.427 . S
C1864 H1855 0.930 . S
C1864 C1862 1.378 . S
C1864 C1865 1.367 . S
C1865 C1864 1.367 . S
C1865 C1867 1.433 . S
C1866 C1862 1.350 . S
C1866 C1863 1.463 . S
C1866 N1870 1.427 . S
C1867 H1857 0.929 . S
C1867 C1865 1.433 . S
C1867 N1870 1.384 . S
C1868 H1859 0.929 . S
C1868 C1860 1.378 . S
C1868 C1863 1.350 . S
C1869 H1856 0.929 . S
C1869 C1861 1.433 . S
C1869 N1871 1.384 . S
N1870 C1866 1.427 . S
N1870 C1867 1.384 . S
N1871 C1863 1.427 . S
N1871 C1869 1.384 . S
H1872 C1878 0.930 . S
H1873 C1882 0.930 . S
H1874 C1887 0.929 . S
H1875 C1885 0.929 . S
H1876 C1880 0.929 . S
H1877 C1886 0.929 . S
C1878 H1872 0.930 . S
C1878 C1879 1.367 . S
C1878 C1886 1.378 . S
C1879 C1878 1.367 . S
C1879 C1887 1.433 . S
C1880 H1876 0.929 . S
C1880 C1882 1.378 . S
C1880 C1884 1.350 . S
C1881 C1884 1.463 . S
C1881 C1886 1.350 . S
C1881 N1889 1.427 . S
C1882 H1873 0.930 . S
C1882 C1880 1.378 . S
C1882 C1883 1.367 . S
C1883 C1882 1.367 . S
C1883 C1885 1.433 . S
C1884 C1880 1.350 . S
C1884 C1881 1.463 . S
C1884 N1888 1.427 . S
C1885 H1875 0.929 . S
C1885 C1883 1.433 . S
C1885 N1888 1.384 . S
C1886 H1877 0.929 . S
C1886 C1878 1.378 . S
C1886 C1881 1.350 . S
C1887 H1874 0.929 . S
C1887 C1879 1.433 . S
C1887 N1889 1.384 . S
N1888 C1884 1.427 . S
N1888 C1885 1.384 . S
N1889 C1881 1.427 . S
N1889 C1887 1.384 . S
H1890 C1896 0.930 . S
H1891 C1900 0.930 . S
H1892 C1905 0.929 . S
H1893 C1903 0.929 . S
H1894 C1898 0.929 . S
H1895 C1904 0.929 . S
C1896 H1890 0.930 . S
C1896 C1897 1.367 . S
C1896 C1904 1.378 . S
C1897 C1896 1.367 . S
C1897 C1905 1.433 . S
C1898 H1894 0.929 . S
C1898 C1900 1.378 . S
C1898 C1902 1.350 . S
C1899 C1902 1.463 . S
C1899 C1904 1.350 . S
C1899 N1907 1.427 . S
C1900 H1891 0.930 . S
C1900 C1898 1.378 . S
C1900 C1901 1.367 . S
C1901 C1900 1.367 . S
C1901 C1903 1.433 . S
C1902 C1898 1.350 . S
C1902 C1899 1.463 . S
C1902 N1906 1.427 . S
C1903 H1893 0.929 . S
C1903 C1901 1.433 . S
C1903 N1906 1.384 . S
C1904 H1895 0.929 . S
C1904 C1896 1.378 . S
C1904 C1899 1.350 . S
C1905 H1892 0.929 . S
C1905 C1897 1.433 . S
C1905 N1907 1.384 . S
N1906 C1902 1.427 . S
N1906 C1903 1.384 . S
N1907 C1899 1.427 . S
N1907 C1905 1.384 . S
H1908 C1914 0.930 . S
H1909 C1918 0.930 . S
H1910 C1923 0.929 . S
H1911 C1921 0.929 . S
H1912 C1916 0.929 . S
H1913 C1922 0.929 . S
C1914 H1908 0.930 . S
C1914 C1915 1.367 . S
C1914 C1922 1.378 . S
C1915 C1914 1.367 . S
C1915 C1923 1.433 . S
C1916 H1912 0.929 . S
C1916 C1918 1.378 . S
C1916 C1920 1.350 . S
C1917 C1920 1.463 . S
C1917 C1922 1.350 . S
C1917 N1925 1.427 . S
C1918 H1909 0.930 . S
C1918 C1916 1.378 . S
C1918 C1919 1.367 . S
C1919 C1918 1.367 . S
C1919 C1921 1.433 . S
C1920 C1916 1.350 . S
C1920 C1917 1.463 . S
C1920 N1924 1.427 . S
C1921 H1911 0.929 . S
C1921 C1919 1.433 . S
C1921 N1924 1.384 . S
C1922 H1913 0.929 . S
C1922 C1914 1.378 . S
C1922 C1917 1.350 . S
C1923 H1910 0.929 . S
C1923 C1915 1.433 . S
C1923 N1925 1.384 . S
N1924 C1920 1.427 . S
N1924 C1921 1.384 . S
N1925 C1917 1.427 . S
N1925 C1923 1.384 . S
H1926 C1932 0.930 . S
H1927 C1936 0.930 . S
H1928 C1941 0.929 . S
H1929 C1939 0.929 . S
H1930 C1934 0.929 . S
H1931 C1940 0.929 . S
C1932 H1926 0.930 . S
C1932 C1933 1.367 . S
C1932 C1940 1.378 . S
C1933 C1932 1.367 . S
C1933 C1941 1.433 . S
C1934 H1930 0.929 . S
C1934 C1936 1.378 . S
C1934 C1938 1.350 . S
C1935 C1938 1.463 . S
C1935 C1940 1.350 . S
C1935 N1943 1.427 . S
C1936 H1927 0.930 . S
C1936 C1934 1.378 . S
C1936 C1937 1.367 . S
C1937 C1936 1.367 . S
C1937 C1939 1.433 . S
C1938 C1934 1.350 . S
C1938 C1935 1.463 . S
C1938 N1942 1.427 . S
C1939 H1929 0.929 . S
C1939 C1937 1.433 . S
C1939 N1942 1.384 . S
C1940 H1931 0.929 . S
C1940 C1932 1.378 . S
C1940 C1935 1.350 . S
C1941 H1928 0.929 . S
C1941 C1933 1.433 . S
C1941 N1943 1.384 . S
N1942 C1938 1.427 . S
N1942 C1939 1.384 . S
N1943 C1935 1.427 . S
N1943 C1941 1.384 . S
H1944 C1950 0.930 . S
H1945 C1954 0.930 . S
H1946 C1959 0.929 . S
H1947 C1957 0.929 . S
H1948 C1952 0.929 . S
H1949 C1958 0.929 . S
C1950 H1944 0.930 . S
C1950 C1951 1.367 . S
C1950 C1958 1.378 . S
C1951 C1950 1.367 . S
C1951 C1959 1.433 . S
C1952 H1948 0.929 . S
C1952 C1954 1.378 . S
C1952 C1956 1.350 . S
C1953 C1956 1.463 . S
C1953 C1958 1.350 . S
C1953 N1961 1.427 . S
C1954 H1945 0.930 . S
C1954 C1952 1.378 . S
C1954 C1955 1.367 . S
C1955 C1954 1.367 . S
C1955 C1957 1.433 . S
C1956 C1952 1.350 . S
C1956 C1953 1.463 . S
C1956 N1960 1.427 . S
C1957 H1947 0.929 . S
C1957 C1955 1.433 . S
C1957 N1960 1.384 . S
C1958 H1949 0.929 . S
C1958 C1950 1.378 . S
C1958 C1953 1.350 . S
C1959 H1946 0.929 . S
C1959 C1951 1.433 . S
C1959 N1961 1.384 . S
N1960 C1956 1.427 . S
N1960 C1957 1.384 . S
N1961 C1953 1.427 . S
N1961 C1959 1.384 . S
H1962 C1968 0.930 . S
H1963 C1972 0.930 . S
H1964 C1977 0.929 . S
H1965 C1975 0.929 . S
H1966 C1970 0.929 . S
H1967 C1976 0.929 . S
C1968 H1962 0.930 . S
C1968 C1969 1.367 . S
C1968 C1976 1.378 . S
C1969 C1968 1.367 . S
C1969 C1977 1.433 . S
C1970 H1966 0.929 . S
C1970 C1972 1.378 . S
C1970 C1974 1.350 . S
C1971 C1974 1.463 . S
C1971 C1976 1.350 . S
C1971 N1979 1.427 . S
C1972 H1963 0.930 . S
C1972 C1970 1.378 . S
C1972 C1973 1.367 . S
C1973 C1972 1.367 . S
C1973 C1975 1.433 . S
C1974 C1970 1.350 . S
C1974 C1971 1.463 . S
C1974 N1978 1.427 . S
C1975 H1965 0.929 . S
C1975 C1973 1.433 . S
C1975 N1978 1.384 . S
C1976 H1967 0.929 . S
C1976 C1968 1.378 . S
C1976 C1971 1.350 . S
C1977 H1964 0.929 . S
C1977 C1969 1.433 . S
C1977 N1979 1.384 . S
N1978 C1974 1.427 . S
N1978 C1975 1.384 . S
N1979 C1971 1.427 . S
N1979 C1977 1.384 . S
H1980 C1986 0.930 . S
H1981 C1990 0.930 . S
H1982 C1995 0.929 . S
H1983 C1993 0.929 . S
H1984 C1988 0.929 . S
H1985 C1994 0.929 . S
C1986 H1980 0.930 . S
C1986 C1987 1.367 . S
C1986 C1994 1.378 . S
C1987 C1986 1.367 . S
C1987 C1995 1.433 . S
C1988 H1984 0.929 . S
C1988 C1990 1.378 . S
C1988 C1992 1.350 . S
C1989 C1992 1.463 . S
C1989 C1994 1.350 . S
C1989 N1997 1.427 . S
C1990 H1981 0.930 . S
C1990 C1988 1.378 . S
C1990 C1991 1.367 . S
C1991 C1990 1.367 . S
C1991 C1993 1.433 . S
C1992 C1988 1.350 . S
C1992 C1989 1.463 . S
C1992 N1996 1.427 . S
C1993 H1983 0.929 . S
C1993 C1991 1.433 . S
C1993 N1996 1.384 . S
C1994 H1985 0.929 . S
C1994 C1986 1.378 . S
C1994 C1989 1.350 . S
C1995 H1982 0.929 . S
C1995 C1987 1.433 . S
C1995 N1997 1.384 . S
N1996 C1992 1.427 . S
N1996 C1993 1.384 . S
N1997 C1989 1.427 . S
N1997 C1995 1.384 . S
H1998 C2004 0.930 . S
H1999 C2008 0.930 . S
H2000 C2013 0.929 . S
H2001 C2011 0.929 . S
H2002 C2006 0.929 . S
H2003 C2012 0.929 . S
C2004 H1998 0.930 . S
C2004 C2005 1.367 . S
C2004 C2012 1.378 . S
C2005 C2004 1.367 . S
C2005 C2013 1.433 . S
C2006 H2002 0.929 . S
C2006 C2008 1.378 . S
C2006 C2010 1.350 . S
C2007 C2010 1.463 . S
C2007 C2012 1.350 . S
C2007 N2015 1.427 . S
C2008 H1999 0.930 . S
C2008 C2006 1.378 . S
C2008 C2009 1.367 . S
C2009 C2008 1.367 . S
C2009 C2011 1.433 . S
C2010 C2006 1.350 . S
C2010 C2007 1.463 . S
C2010 N2014 1.427 . S
C2011 H2001 0.929 . S
C2011 C2009 1.433 . S
C2011 N2014 1.384 . S
C2012 H2003 0.929 . S
C2012 C2004 1.378 . S
C2012 C2007 1.350 . S
C2013 H2000 0.929 . S
C2013 C2005 1.433 . S
C2013 N2015 1.384 . S
N2014 C2010 1.427 . S
N2014 C2011 1.384 . S
N2015 C2007 1.427 . S
N2015 C2013 1.384 . S
H2016 C2022 0.930 . S
H2017 C2026 0.930 . S
H2018 C2031 0.929 . S
H2019 C2029 0.929 . S
H2020 C2024 0.929 . S
H2021 C2030 0.929 . S
C2022 H2016 0.930 . S
C2022 C2023 1.367 . S
C2022 C2030 1.378 . S
C2023 C2022 1.367 . S
C2023 C2031 1.433 . S
C2024 H2020 0.929 . S
C2024 C2026 1.378 . S
C2024 C2028 1.350 . S
C2025 C2028 1.463 . S
C2025 C2030 1.350 . S
C2025 N2033 1.427 . S
C2026 H2017 0.930 . S
C2026 C2024 1.378 . S
C2026 C2027 1.367 . S
C2027 C2026 1.367 . S
C2027 C2029 1.433 . S
C2028 C2024 1.350 . S
C2028 C2025 1.463 . S
C2028 N2032 1.427 . S
C2029 H2019 0.929 . S
C2029 C2027 1.433 . S
C2029 N2032 1.384 . S
C2030 H2021 0.929 . S
C2030 C2022 1.378 . S
C2030 C2025 1.350 . S
C2031 H2018 0.929 . S
C2031 C2023 1.433 . S
C2031 N2033 1.384 . S
N2032 C2028 1.427 . S
N2032 C2029 1.384 . S
N2033 C2025 1.427 . S
N2033 C2031 1.384 . S
H2034 C2040 0.930 . S
H2035 C2044 0.930 . S
H2036 C2049 0.929 . S
H2037 C2047 0.929 . S
H2038 C2042 0.929 . S
H2039 C2048 0.929 . S
C2040 H2034 0.930 . S
C2040 C2041 1.367 . S
C2040 C2048 1.378 . S
C2041 C2040 1.367 . S
C2041 C2049 1.433 . S
C2042 H2038 0.929 . S
C2042 C2044 1.378 . S
C2042 C2046 1.350 . S
C2043 C2046 1.463 . S
C2043 C2048 1.350 . S
C2043 N2051 1.427 . S
C2044 H2035 0.930 . S
C2044 C2042 1.378 . S
C2044 C2045 1.367 . S
C2045 C2044 1.367 . S
C2045 C2047 1.433 . S
C2046 C2042 1.350 . S
C2046 C2043 1.463 . S
C2046 N2050 1.427 . S
C2047 H2037 0.929 . S
C2047 C2045 1.433 . S
C2047 N2050 1.384 . S
C2048 H2039 0.929 . S
C2048 C2040 1.378 . S
C2048 C2043 1.350 . S
C2049 H2036 0.929 . S
C2049 C2041 1.433 . S
C2049 N2051 1.384 . S
N2050 C2046 1.427 . S
N2050 C2047 1.384 . S
N2051 C2043 1.427 . S
N2051 C2049 1.384 . S
H2052 C2058 0.930 . S
H2053 C2062 0.930 . S
H2054 C2067 0.929 . S
H2055 C2065 0.929 . S
H2056 C2060 0.929 . S
H2057 C2066 0.929 . S
C2058 H2052 0.930 . S
C2058 C2059 1.367 . S
C2058 C2066 1.378 . S
C2059 C2058 1.367 . S
C2059 C2067 1.433 . S
C2060 H2056 0.929 . S
C2060 C2062 1.378 . S
C2060 C2064 1.350 . S
C2061 C2064 1.463 . S
C2061 C2066 1.350 . S
C2061 N2069 1.427 . S
C2062 H2053 0.930 . S
C2062 C2060 1.378 . S
C2062 C2063 1.367 . S
C2063 C2062 1.367 . S
C2063 C2065 1.433 . S
C2064 C2060 1.350 . S
C2064 C2061 1.463 . S
C2064 N2068 1.427 . S
C2065 H2055 0.929 . S
C2065 C2063 1.433 . S
C2065 N2068 1.384 . S
C2066 H2057 0.929 . S
C2066 C2058 1.378 . S
C2066 C2061 1.350 . S
C2067 H2054 0.929 . S
C2067 C2059 1.433 . S
C2067 N2069 1.384 . S
N2068 C2064 1.427 . S
N2068 C2065 1.384 . S
N2069 C2061 1.427 . S
N2069 C2067 1.384 . S
H2070 C2076 0.930 . S
H2071 C2080 0.930 . S
H2072 C2085 0.929 . S
H2073 C2083 0.929 . S
H2074 C2078 0.929 . S
H2075 C2084 0.929 . S
C2076 H2070 0.930 . S
C2076 C2077 1.367 . S
C2076 C2084 1.378 . S
C2077 C2076 1.367 . S
C2077 C2085 1.433 . S
C2078 H2074 0.929 . S
C2078 C2080 1.378 . S
C2078 C2082 1.350 . S
C2079 C2082 1.463 . S
C2079 C2084 1.350 . S
C2079 N2087 1.427 . S
C2080 H2071 0.930 . S
C2080 C2078 1.378 . S
C2080 C2081 1.367 . S
C2081 C2080 1.367 . S
C2081 C2083 1.433 . S
C2082 C2078 1.350 . S
C2082 C2079 1.463 . S
C2082 N2086 1.427 . S
C2083 H2073 0.929 . S
C2083 C2081 1.433 . S
C2083 N2086 1.384 . S
C2084 H2075 0.929 . S
C2084 C2076 1.378 . S
C2084 C2079 1.350 . S
C2085 H2072 0.929 . S
C2085 C2077 1.433 . S
C2085 N2087 1.384 . S
N2086 C2082 1.427 . S
N2086 C2083 1.384 . S
N2087 C2079 1.427 . S
N2087 C2085 1.384 . S
H2088 C2094 0.930 . S
H2089 C2098 0.930 . S
H2090 C2103 0.929 . S
H2091 C2101 0.929 . S
H2092 C2096 0.929 . S
H2093 C2102 0.929 . S
C2094 H2088 0.930 . S
C2094 C2095 1.367 . S
C2094 C2102 1.378 . S
C2095 C2094 1.367 . S
C2095 C2103 1.433 . S
C2096 H2092 0.929 . S
C2096 C2098 1.378 . S
C2096 C2100 1.350 . S
C2097 C2100 1.463 . S
C2097 C2102 1.350 . S
C2097 N2105 1.427 . S
C2098 H2089 0.930 . S
C2098 C2096 1.378 . S
C2098 C2099 1.367 . S
C2099 C2098 1.367 . S
C2099 C2101 1.433 . S
C2100 C2096 1.350 . S
C2100 C2097 1.463 . S
C2100 N2104 1.427 . S
C2101 H2091 0.929 . S
C2101 C2099 1.433 . S
C2101 N2104 1.384 . S
C2102 H2093 0.929 . S
C2102 C2094 1.378 . S
C2102 C2097 1.350 . S
C2103 H2090 0.929 . S
C2103 C2095 1.433 . S
C2103 N2105 1.384 . S
N2104 C2100 1.427 . S
N2104 C2101 1.384 . S
N2105 C2097 1.427 . S
N2105 C2103 1.384 . S
H2106 C2112 0.930 . S
H2107 C2116 0.930 . S
H2108 C2121 0.929 . S
H2109 C2119 0.929 . S
H2110 C2114 0.929 . S
H2111 C2120 0.929 . S
C2112 H2106 0.930 . S
C2112 C2113 1.367 . S
C2112 C2120 1.378 . S
C2113 C2112 1.367 . S
C2113 C2121 1.433 . S
C2114 H2110 0.929 . S
C2114 C2116 1.378 . S
C2114 C2118 1.350 . S
C2115 C2118 1.463 . S
C2115 C2120 1.350 . S
C2115 N2123 1.427 . S
C2116 H2107 0.930 . S
C2116 C2114 1.378 . S
C2116 C2117 1.367 . S
C2117 C2116 1.367 . S
C2117 C2119 1.433 . S
C2118 C2114 1.350 . S
C2118 C2115 1.463 . S
C2118 N2122 1.427 . S
C2119 H2109 0.929 . S
C2119 C2117 1.433 . S
C2119 N2122 1.384 . S
C2120 H2111 0.929 . S
C2120 C2112 1.378 . S
C2120 C2115 1.350 . S
C2121 H2108 0.929 . S
C2121 C2113 1.433 . S
C2121 N2123 1.384 . S
N2122 C2118 1.427 . S
N2122 C2119 1.384 . S
N2123 C2115 1.427 . S
N2123 C2121 1.384 . S
H2124 C2130 0.930 . S
H2125 C2134 0.930 . S
H2126 C2139 0.929 . S
H2127 C2137 0.929 . S
H2128 C2132 0.929 . S
H2129 C2138 0.929 . S
C2130 H2124 0.930 . S
C2130 C2131 1.367 . S
C2130 C2138 1.378 . S
C2131 C2130 1.367 . S
C2131 C2139 1.433 . S
C2132 H2128 0.929 . S
C2132 C2134 1.378 . S
C2132 C2136 1.350 . S
C2133 C2136 1.463 . S
C2133 C2138 1.350 . S
C2133 N2141 1.427 . S
C2134 H2125 0.930 . S
C2134 C2132 1.378 . S
C2134 C2135 1.367 . S
C2135 C2134 1.367 . S
C2135 C2137 1.433 . S
C2136 C2132 1.350 . S
C2136 C2133 1.463 . S
C2136 N2140 1.427 . S
C2137 H2127 0.929 . S
C2137 C2135 1.433 . S
C2137 N2140 1.384 . S
C2138 H2129 0.929 . S
C2138 C2130 1.378 . S
C2138 C2133 1.350 . S
C2139 H2126 0.929 . S
C2139 C2131 1.433 . S
C2139 N2141 1.384 . S
N2140 C2136 1.427 . S
N2140 C2137 1.384 . S
N2141 C2133 1.427 . S
N2141 C2139 1.384 . S
H2142 C2148 0.930 . S
H2143 C2152 0.930 . S
H2144 C2157 0.929 . S
H2145 C2155 0.929 . S
H2146 C2150 0.929 . S
H2147 C2156 0.929 . S
C2148 H2142 0.930 . S
C2148 C2149 1.367 . S
C2148 C2156 1.378 . S
C2149 C2148 1.367 . S
C2149 C2157 1.433 . S
C2150 H2146 0.929 . S
C2150 C2152 1.378 . S
C2150 C2154 1.350 . S
C2151 C2154 1.463 . S
C2151 C2156 1.350 . S
C2151 N2159 1.427 . S
C2152 H2143 0.930 . S
C2152 C2150 1.378 . S
C2152 C2153 1.367 . S
C2153 C2152 1.367 . S
C2153 C2155 1.433 . S
C2154 C2150 1.350 . S
C2154 C2151 1.463 . S
C2154 N2158 1.427 . S
C2155 H2145 0.929 . S
C2155 C2153 1.433 . S
C2155 N2158 1.384 . S
C2156 H2147 0.929 . S
C2156 C2148 1.378 . S
C2156 C2151 1.350 . S
C2157 H2144 0.929 . S
C2157 C2149 1.433 . S
C2157 N2159 1.384 . S
N2158 C2154 1.427 . S
N2158 C2155 1.384 . S
N2159 C2151 1.427 . S
N2159 C2157 1.384 . S
H2160 C2166 0.930 . S
H2161 C2170 0.930 . S
H2162 C2175 0.929 . S
H2163 C2173 0.929 . S
H2164 C2168 0.929 . S
H2165 C2174 0.929 . S
C2166 H2160 0.930 . S
C2166 C2167 1.367 . S
C2166 C2174 1.378 . S
C2167 C2166 1.367 . S
C2167 C2175 1.433 . S
C2168 H2164 0.929 . S
C2168 C2170 1.378 . S
C2168 C2172 1.350 . S
C2169 C2172 1.463 . S
C2169 C2174 1.350 . S
C2169 N2177 1.427 . S
C2170 H2161 0.930 . S
C2170 C2168 1.378 . S
C2170 C2171 1.367 . S
C2171 C2170 1.367 . S
C2171 C2173 1.433 . S
C2172 C2168 1.350 . S
C2172 C2169 1.463 . S
C2172 N2176 1.427 . S
C2173 H2163 0.929 . S
C2173 C2171 1.433 . S
C2173 N2176 1.384 . S
C2174 H2165 0.929 . S
C2174 C2166 1.378 . S
C2174 C2169 1.350 . S
C2175 H2162 0.929 . S
C2175 C2167 1.433 . S
C2175 N2177 1.384 . S
N2176 C2172 1.427 . S
N2176 C2173 1.384 . S
N2177 C2169 1.427 . S
N2177 C2175 1.384 . S
H2178 C2184 0.930 . S
H2179 C2188 0.930 . S
H2180 C2193 0.929 . S
H2181 C2191 0.929 . S
H2182 C2186 0.929 . S
H2183 C2192 0.929 . S
C2184 H2178 0.930 . S
C2184 C2185 1.367 . S
C2184 C2192 1.378 . S
C2185 C2184 1.367 . S
C2185 C2193 1.433 . S
C2186 H2182 0.929 . S
C2186 C2188 1.378 . S
C2186 C2190 1.350 . S
C2187 C2190 1.463 . S
C2187 C2192 1.350 . S
C2187 N2195 1.427 . S
C2188 H2179 0.930 . S
C2188 C2186 1.378 . S
C2188 C2189 1.367 . S
C2189 C2188 1.367 . S
C2189 C2191 1.433 . S
C2190 C2186 1.350 . S
C2190 C2187 1.463 . S
C2190 N2194 1.427 . S
C2191 H2181 0.929 . S
C2191 C2189 1.433 . S
C2191 N2194 1.384 . S
C2192 H2183 0.929 . S
C2192 C2184 1.378 . S
C2192 C2187 1.350 . S
C2193 H2180 0.929 . S
C2193 C2185 1.433 . S
C2193 N2195 1.384 . S
N2194 C2190 1.427 . S
N2194 C2191 1.384 . S
N2195 C2187 1.427 . S
N2195 C2193 1.384 . S
H2196 C2202 0.930 . S
H2197 C2206 0.930 . S
H2198 C2211 0.929 . S
H2199 C2209 0.929 . S
H2200 C2204 0.929 . S
H2201 C2210 0.929 . S
C2202 H2196 0.930 . S
C2202 C2203 1.367 . S
C2202 C2210 1.378 . S
C2203 C2202 1.367 . S
C2203 C2211 1.433 . S
C2204 H2200 0.929 . S
C2204 C2206 1.378 . S
C2204 C2208 1.350 . S
C2205 C2208 1.463 . S
C2205 C2210 1.350 . S
C2205 N2213 1.427 . S
C2206 H2197 0.930 . S
C2206 C2204 1.378 . S
C2206 C2207 1.367 . S
C2207 C2206 1.367 . S
C2207 C2209 1.433 . S
C2208 C2204 1.350 . S
C2208 C2205 1.463 . S
C2208 N2212 1.427 . S
C2209 H2199 0.929 . S
C2209 C2207 1.433 . S
C2209 N2212 1.384 . S
C2210 H2201 0.929 . S
C2210 C2202 1.378 . S
C2210 C2205 1.350 . S
C2211 H2198 0.929 . S
C2211 C2203 1.433 . S
C2211 N2213 1.384 . S
N2212 C2208 1.427 . S
N2212 C2209 1.384 . S
N2213 C2205 1.427 . S
N2213 C2211 1.384 . S
H2214 C2220 0.930 . S
H2215 C2224 0.930 . S
H2216 C2229 0.929 . S
H2217 C2227 0.929 . S
H2218 C2222 0.929 . S
H2219 C2228 0.929 . S
C2220 H2214 0.930 . S
C2220 C2221 1.367 . S
C2220 C2228 1.378 . S
C2221 C2220 1.367 . S
C2221 C2229 1.433 . S
C2222 H2218 0.929 . S
C2222 C2224 1.378 . S
C2222 C2226 1.350 . S
C2223 C2226 1.463 . S
C2223 C2228 1.350 . S
C2223 N2231 1.427 . S
C2224 H2215 0.930 . S
C2224 C2222 1.378 . S
C2224 C2225 1.367 . S
C2225 C2224 1.367 . S
C2225 C2227 1.433 . S
C2226 C2222 1.350 . S
C2226 C2223 1.463 . S
C2226 N2230 1.427 . S
C2227 H2217 0.929 . S
C2227 C2225 1.433 . S
C2227 N2230 1.384 . S
C2228 H2219 0.929 . S
C2228 C2220 1.378 . S
C2228 C2223 1.350 . S
C2229 H2216 0.929 . S
C2229 C2221 1.433 . S
C2229 N2231 1.384 . S
N2230 C2226 1.427 . S
N2230 C2227 1.384 . S
N2231 C2223 1.427 . S
N2231 C2229 1.384 . S
H2232 C2238 0.930 . S
H2233 C2242 0.930 . S
H2234 C2247 0.929 . S
H2235 C2245 0.929 . S
H2236 C2240 0.929 . S
H2237 C2246 0.929 . S
C2238 H2232 0.930 . S
C2238 C2239 1.367 . S
C2238 C2246 1.378 . S
C2239 C2238 1.367 . S
C2239 C2247 1.433 . S
C2240 H2236 0.929 . S
C2240 C2242 1.378 . S
C2240 C2244 1.350 . S
C2241 C2244 1.463 . S
C2241 C2246 1.350 . S
C2241 N2249 1.427 . S
C2242 H2233 0.930 . S
C2242 C2240 1.378 . S
C2242 C2243 1.367 . S
C2243 C2242 1.367 . S
C2243 C2245 1.433 . S
C2244 C2240 1.350 . S
C2244 C2241 1.463 . S
C2244 N2248 1.427 . S
C2245 H2235 0.929 . S
C2245 C2243 1.433 . S
C2245 N2248 1.384 . S
C2246 H2237 0.929 . S
C2246 C2238 1.378 . S
C2246 C2241 1.350 . S
C2247 H2234 0.929 . S
C2247 C2239 1.433 . S
C2247 N2249 1.384 . S
N2248 C2244 1.427 . S
N2248 C2245 1.384 . S
N2249 C2241 1.427 . S
N2249 C2247 1.384 . S
H2250 C2256 0.930 . S
H2251 C2260 0.930 . S
H2252 C2265 0.929 . S
H2253 C2263 0.929 . S
H2254 C2258 0.929 . S
H2255 C2264 0.929 . S
C2256 H2250 0.930 . S
C2256 C2257 1.367 . S
C2256 C2264 1.378 . S
C2257 C2256 1.367 . S
C2257 C2265 1.433 . S
C2258 H2254 0.929 . S
C2258 C2260 1.378 . S
C2258 C2262 1.350 . S
C2259 C2262 1.463 . S
C2259 C2264 1.350 . S
C2259 N2267 1.427 . S
C2260 H2251 0.930 . S
C2260 C2258 1.378 . S
C2260 C2261 1.367 . S
C2261 C2260 1.367 . S
C2261 C2263 1.433 . S
C2262 C2258 1.350 . S
C2262 C2259 1.463 . S
C2262 N2266 1.427 . S
C2263 H2253 0.929 . S
C2263 C2261 1.433 . S
C2263 N2266 1.384 . S
C2264 H2255 0.929 . S
C2264 C2256 1.378 . S
C2264 C2259 1.350 . S
C2265 H2252 0.929 . S
C2265 C2257 1.433 . S
C2265 N2267 1.384 . S
N2266 C2262 1.427 . S
N2266 C2263 1.384 . S
N2267 C2259 1.427 . S
N2267 C2265 1.384 . S
H2268 C2274 0.930 . S
H2269 C2278 0.930 . S
H2270 C2283 0.929 . S
H2271 C2281 0.929 . S
H2272 C2276 0.929 . S
H2273 C2282 0.929 . S
C2274 H2268 0.930 . S
C2274 C2275 1.367 . S
C2274 C2282 1.378 . S
C2275 C2274 1.367 . S
C2275 C2283 1.433 . S
C2276 H2272 0.929 . S
C2276 C2278 1.378 . S
C2276 C2280 1.350 . S
C2277 C2280 1.463 . S
C2277 C2282 1.350 . S
C2277 N2285 1.427 . S
C2278 H2269 0.930 . S
C2278 C2276 1.378 . S
C2278 C2279 1.367 . S
C2279 C2278 1.367 . S
C2279 C2281 1.433 . S
C2280 C2276 1.350 . S
C2280 C2277 1.463 . S
C2280 N2284 1.427 . S
C2281 H2271 0.929 . S
C2281 C2279 1.433 . S
C2281 N2284 1.384 . S
C2282 H2273 0.929 . S
C2282 C2274 1.378 . S
C2282 C2277 1.350 . S
C2283 H2270 0.929 . S
C2283 C2275 1.433 . S
C2283 N2285 1.384 . S
N2284 C2280 1.427 . S
N2284 C2281 1.384 . S
N2285 C2277 1.427 . S
N2285 C2283 1.384 . S
H2286 C2292 0.930 . S
H2287 C2296 0.930 . S
H2288 C2301 0.929 . S
H2289 C2299 0.929 . S
H2290 C2294 0.929 . S
H2291 C2300 0.929 . S
C2292 H2286 0.930 . S
C2292 C2293 1.367 . S
C2292 C2300 1.378 . S
C2293 C2292 1.367 . S
C2293 C2301 1.433 . S
C2294 H2290 0.929 . S
C2294 C2296 1.378 . S
C2294 C2298 1.350 . S
C2295 C2298 1.463 . S
C2295 C2300 1.350 . S
C2295 N2303 1.427 . S
C2296 H2287 0.930 . S
C2296 C2294 1.378 . S
C2296 C2297 1.367 . S
C2297 C2296 1.367 . S
C2297 C2299 1.433 . S
C2298 C2294 1.350 . S
C2298 C2295 1.463 . S
C2298 N2302 1.427 . S
C2299 H2289 0.929 . S
C2299 C2297 1.433 . S
C2299 N2302 1.384 . S
C2300 H2291 0.929 . S
C2300 C2292 1.378 . S
C2300 C2295 1.350 . S
C2301 H2288 0.929 . S
C2301 C2293 1.433 . S
C2301 N2303 1.384 . S
N2302 C2298 1.427 . S
N2302 C2299 1.384 . S
N2303 C2295 1.427 . S
N2303 C2301 1.384 . S
H2304 C2310 0.930 . S
H2305 C2314 0.930 . S
H2306 C2319 0.929 . S
H2307 C2317 0.929 . S
H2308 C2312 0.929 1_655 S
H2309 C2318 0.929 1_455 S
C2310 H2304 0.930 . S
C2310 C2311 1.367 . S
C2310 C2318 1.378 . S
C2311 C2310 1.367 . S
C2311 C2319 1.433 . S
C2312 H2308 0.929 1_455 S
C2312 C2314 1.378 . S
C2312 C2316 1.350 . S
C2313 C2316 1.463 1_655 S
C2313 C2318 1.350 . S
C2313 N2321 1.427 . S
C2314 H2305 0.930 . S
C2314 C2312 1.378 . S
C2314 C2315 1.367 . S
C2315 C2314 1.367 . S
C2315 C2317 1.433 . S
C2316 C2312 1.350 . S
C2316 C2313 1.463 1_455 S
C2316 N2320 1.427 . S
C2317 H2307 0.929 . S
C2317 C2315 1.433 . S
C2317 N2320 1.384 . S
C2318 H2309 0.929 1_655 S
C2318 C2310 1.378 . S
C2318 C2313 1.350 . S
C2319 H2306 0.929 . S
C2319 C2311 1.433 . S
C2319 N2321 1.384 . S
N2320 C2316 1.427 . S
N2320 C2317 1.384 . S
N2321 C2313 1.427 . S
N2321 C2319 1.384 . S
H2322 C2328 0.930 . S
H2323 C2332 0.930 . S
H2324 C2337 0.929 . S
H2325 C2335 0.929 . S
H2326 C2330 0.929 . S
H2327 C2336 0.929 . S
C2328 H2322 0.930 . S
C2328 C2329 1.367 . S
C2328 C2336 1.378 . S
C2329 C2328 1.367 . S
C2329 C2337 1.433 . S
C2330 H2326 0.929 . S
C2330 C2332 1.378 . S
C2330 C2334 1.350 . S
C2331 C2334 1.463 . S
C2331 C2336 1.350 . S
C2331 N2339 1.427 . S
C2332 H2323 0.930 . S
C2332 C2330 1.378 . S
C2332 C2333 1.367 . S
C2333 C2332 1.367 . S
C2333 C2335 1.433 . S
C2334 C2330 1.350 . S
C2334 C2331 1.463 . S
C2334 N2338 1.427 . S
C2335 H2325 0.929 . S
C2335 C2333 1.433 . S
C2335 N2338 1.384 . S
C2336 H2327 0.929 . S
C2336 C2328 1.378 . S
C2336 C2331 1.350 . S
C2337 H2324 0.929 . S
C2337 C2329 1.433 . S
C2337 N2339 1.384 . S
N2338 C2334 1.427 . S
N2338 C2335 1.384 . S
N2339 C2331 1.427 . S
N2339 C2337 1.384 . S
H2340 C2346 0.930 . S
H2341 C2350 0.930 . S
H2342 C2355 0.929 . S
H2343 C2353 0.929 . S
H2344 C2348 0.929 1_545 S
H2345 C2354 0.929 1_565 S
C2346 H2340 0.930 . S
C2346 C2347 1.367 . S
C2346 C2354 1.378 . S
C2347 C2346 1.367 . S
C2347 C2355 1.433 . S
C2348 H2344 0.929 1_565 S
C2348 C2350 1.378 . S
C2348 C2352 1.350 . S
C2349 C2352 1.463 1_545 S
C2349 C2354 1.350 . S
C2349 N2357 1.427 . S
C2350 H2341 0.930 . S
C2350 C2348 1.378 . S
C2350 C2351 1.367 . S
C2351 C2350 1.367 . S
C2351 C2353 1.433 . S
C2352 C2348 1.350 . S
C2352 C2349 1.463 1_565 S
C2352 N2356 1.427 . S
C2353 H2343 0.929 . S
C2353 C2351 1.433 . S
C2353 N2356 1.384 . S
C2354 H2345 0.929 1_545 S
C2354 C2346 1.378 . S
C2354 C2349 1.350 . S
C2355 H2342 0.929 . S
C2355 C2347 1.433 . S
C2355 N2357 1.384 . S
N2356 C2352 1.427 . S
N2356 C2353 1.384 . S
N2357 C2349 1.427 . S
N2357 C2355 1.384 . S
H2358 C2364 0.930 . S
H2359 C2368 0.930 . S
H2360 C2373 0.929 . S
H2361 C2371 0.929 . S
H2362 C2366 0.929 . S
H2363 C2372 0.929 . S
C2364 H2358 0.930 . S
C2364 C2365 1.367 . S
C2364 C2372 1.378 . S
C2365 C2364 1.367 . S
C2365 C2373 1.433 . S
C2366 H2362 0.929 . S
C2366 C2368 1.378 . S
C2366 C2370 1.350 . S
C2367 C2370 1.463 1_564 S
C2367 C2372 1.350 . S
C2367 N2375 1.427 . S
C2368 H2359 0.930 . S
C2368 C2366 1.378 . S
C2368 C2369 1.367 . S
C2369 C2368 1.367 . S
C2369 C2371 1.433 . S
C2370 C2366 1.350 . S
C2370 C2367 1.463 1_546 S
C2370 N2374 1.427 . S
C2371 H2361 0.929 . S
C2371 C2369 1.433 . S
C2371 N2374 1.384 . S
C2372 H2363 0.929 . S
C2372 C2364 1.378 . S
C2372 C2367 1.350 . S
C2373 H2360 0.929 . S
C2373 C2365 1.433 . S
C2373 N2375 1.384 . S
N2374 C2370 1.427 . S
N2374 C2371 1.384 . S
N2375 C2367 1.427 . S
N2375 C2373 1.384 . S
H2376 C2382 0.930 . S
H2377 C2386 0.930 . S
H2378 C2391 0.929 . S
H2379 C2389 0.929 . S
H2380 C2384 0.929 . S
H2381 C2390 0.929 . S
C2382 H2376 0.930 . S
C2382 C2383 1.367 1_554 S
C2382 C2390 1.378 . S
C2383 C2382 1.367 1_556 S
C2383 C2391 1.433 . S
C2384 H2380 0.929 . S
C2384 C2386 1.378 . S
C2384 C2388 1.350 1_556 S
C2385 C2388 1.463 1_656 S
C2385 C2390 1.350 1_556 S
C2385 N2393 1.427 . S
C2386 H2377 0.930 . S
C2386 C2384 1.378 . S
C2386 C2387 1.367 1_556 S
C2387 C2386 1.367 1_554 S
C2387 C2389 1.433 . S
C2388 C2384 1.350 1_554 S
C2388 C2385 1.463 1_454 S
C2388 N2392 1.427 . S
C2389 H2379 0.929 . S
C2389 C2387 1.433 . S
C2389 N2392 1.384 . S
C2390 H2381 0.929 . S
C2390 C2382 1.378 . S
C2390 C2385 1.350 1_554 S
C2391 H2378 0.929 . S
C2391 C2383 1.433 . S
C2391 N2393 1.384 . S
N2392 C2388 1.427 . S
N2392 C2389 1.384 . S
N2393 C2385 1.427 . S
N2393 C2391 1.384 . S
H2394 C2400 0.930 . S
H2395 C2404 0.930 . S
H2396 C2409 0.929 . S
H2397 C2407 0.929 . S
H2398 C2402 0.929 . S
H2399 C2408 0.929 . S
C2400 H2394 0.930 . S
C2400 C2401 1.367 1_556 S
C2400 C2408 1.378 . S
C2401 C2400 1.367 1_554 S
C2401 C2409 1.433 . S
C2402 H2398 0.929 . S
C2402 C2404 1.378 . S
C2402 C2406 1.350 1_554 S
C2403 C2406 1.463 1_554 S
C2403 C2408 1.350 1_554 S
C2403 N2411 1.427 . S
C2404 H2395 0.930 . S
C2404 C2402 1.378 . S
C2404 C2405 1.367 1_554 S
C2405 C2404 1.367 1_556 S
C2405 C2407 1.433 . S
C2406 C2402 1.350 1_556 S
C2406 C2403 1.463 1_556 S
C2406 N2410 1.427 . S
C2407 H2397 0.929 . S
C2407 C2405 1.433 . S
C2407 N2410 1.384 . S
C2408 H2399 0.929 . S
C2408 C2400 1.378 . S
C2408 C2403 1.350 1_556 S
C2409 H2396 0.929 . S
C2409 C2401 1.433 . S
C2409 N2411 1.384 . S
N2410 C2406 1.427 . S
N2410 C2407 1.384 . S
N2411 C2403 1.427 . S
N2411 C2409 1.384 . S
H2412 C2418 0.930 . S
H2413 C2422 0.930 . S
H2414 C2427 0.929 1_554 S
H2415 C2425 0.929 . S
H2416 C2420 0.929 . S
H2417 C2426 0.929 . S
C2418 H2412 0.930 . S
C2418 C2419 1.367 . S
C2418 C2426 1.378 . S
C2419 C2418 1.367 . S
C2419 C2427 1.433 . S
C2420 H2416 0.929 . S
C2420 C2422 1.378 . S
C2420 C2424 1.350 . S
C2421 C2424 1.463 . S
C2421 C2426 1.350 . S
C2421 N2429 1.427 . S
C2422 H2413 0.930 . S
C2422 C2420 1.378 . S
C2422 C2423 1.367 . S
C2423 C2422 1.367 . S
C2423 C2425 1.433 . S
C2424 C2420 1.350 . S
C2424 C2421 1.463 . S
C2424 N2428 1.427 . S
C2425 H2415 0.929 . S
C2425 C2423 1.433 . S
C2425 N2428 1.384 . S
C2426 H2417 0.929 . S
C2426 C2418 1.378 . S
C2426 C2421 1.350 . S
C2427 H2414 0.929 1_556 S
C2427 C2419 1.433 . S
C2427 N2429 1.384 . S
N2428 C2424 1.427 . S
N2428 C2425 1.384 . S
N2429 C2421 1.427 . S
N2429 C2427 1.384 . S
H2430 C2436 0.930 . S
H2431 C2440 0.930 . S
H2432 C2445 0.929 . S
H2433 C2443 0.929 . S
H2434 C2438 0.929 . S
H2435 C2444 0.929 . S
C2436 H2430 0.930 . S
C2436 C2437 1.367 . S
C2436 C2444 1.378 . S
C2437 C2436 1.367 . S
C2437 C2445 1.433 . S
C2438 H2434 0.929 . S
C2438 C2440 1.378 . S
C2438 C2442 1.350 . S
C2439 C2442 1.463 . S
C2439 C2444 1.350 . S
C2439 N2447 1.427 . S
C2440 H2431 0.930 . S
C2440 C2438 1.378 . S
C2440 C2441 1.367 . S
C2441 C2440 1.367 . S
C2441 C2443 1.433 . S
C2442 C2438 1.350 . S
C2442 C2439 1.463 . S
C2442 N2446 1.427 . S
C2443 H2433 0.929 . S
C2443 C2441 1.433 . S
C2443 N2446 1.384 . S
C2444 H2435 0.929 . S
C2444 C2436 1.378 . S
C2444 C2439 1.350 . S
C2445 H2432 0.929 . S
C2445 C2437 1.433 . S
C2445 N2447 1.384 . S
N2446 C2442 1.427 . S
N2446 C2443 1.384 . S
N2447 C2439 1.427 . S
N2447 C2445 1.384 . S
H2448 C2454 0.930 . S
H2449 C2458 0.930 1_554 S
H2450 C2463 0.929 . S
H2451 C2461 0.929 . S
H2452 C2456 0.929 . S
H2453 C2462 0.929 . S
C2454 H2448 0.930 . S
C2454 C2455 1.367 . S
C2454 C2462 1.378 . S
C2455 C2454 1.367 . S
C2455 C2463 1.433 . S
C2456 H2452 0.929 . S
C2456 C2458 1.378 . S
C2456 C2460 1.350 . S
C2457 C2460 1.463 . S
C2457 C2462 1.350 . S
C2457 N2465 1.427 . S
C2458 H2449 0.930 1_556 S
C2458 C2456 1.378 . S
C2458 C2459 1.367 . S
C2459 C2458 1.367 . S
C2459 C2461 1.433 . S
C2460 C2456 1.350 . S
C2460 C2457 1.463 . S
C2460 N2464 1.427 . S
C2461 H2451 0.929 . S
C2461 C2459 1.433 . S
C2461 N2464 1.384 . S
C2462 H2453 0.929 . S
C2462 C2454 1.378 . S
C2462 C2457 1.350 . S
C2463 H2450 0.929 . S
C2463 C2455 1.433 . S
C2463 N2465 1.384 . S
N2464 C2460 1.427 . S
N2464 C2461 1.384 . S
N2465 C2457 1.427 . S
N2465 C2463 1.384 . S
H2466 C2472 0.930 . S
H2467 C2476 0.930 . S
H2468 C2481 0.929 . S
H2469 C2479 0.929 . S
H2470 C2474 0.929 . S
H2471 C2480 0.929 . S
C2472 H2466 0.930 . S
C2472 C2473 1.367 . S
C2472 C2480 1.378 . S
C2473 C2472 1.367 . S
C2473 C2481 1.433 . S
C2474 H2470 0.929 . S
C2474 C2476 1.378 . S
C2474 C2478 1.350 . S
C2475 C2478 1.463 . S
C2475 C2480 1.350 . S
C2475 N2483 1.427 . S
C2476 H2467 0.930 . S
C2476 C2474 1.378 . S
C2476 C2477 1.367 . S
C2477 C2476 1.367 . S
C2477 C2479 1.433 . S
C2478 C2474 1.350 . S
C2478 C2475 1.463 . S
C2478 N2482 1.427 . S
C2479 H2469 0.929 . S
C2479 C2477 1.433 . S
C2479 N2482 1.384 . S
C2480 H2471 0.929 . S
C2480 C2472 1.378 . S
C2480 C2475 1.350 . S
C2481 H2468 0.929 . S
C2481 C2473 1.433 . S
C2481 N2483 1.384 . S
N2482 C2478 1.427 . S
N2482 C2479 1.384 . S
N2483 C2475 1.427 . S
N2483 C2481 1.384 . S
H2484 C2490 0.930 . S
H2485 C2494 0.930 . S
H2486 C2499 0.929 . S
H2487 C2497 0.929 . S
H2488 C2492 0.929 . S
H2489 C2498 0.929 . S
C2490 H2484 0.930 . S
C2490 C2491 1.367 . S
C2490 C2498 1.378 . S
C2491 C2490 1.367 . S
C2491 C2499 1.433 . S
C2492 H2488 0.929 . S
C2492 C2494 1.378 . S
C2492 C2496 1.350 . S
C2493 C2496 1.463 . S
C2493 C2498 1.350 . S
C2493 N2501 1.427 . S
C2494 H2485 0.930 . S
C2494 C2492 1.378 . S
C2494 C2495 1.367 . S
C2495 C2494 1.367 . S
C2495 C2497 1.433 . S
C2496 C2492 1.350 . S
C2496 C2493 1.463 . S
C2496 N2500 1.427 . S
C2497 H2487 0.929 . S
C2497 C2495 1.433 . S
C2497 N2500 1.384 . S
C2498 H2489 0.929 . S
C2498 C2490 1.378 . S
C2498 C2493 1.350 . S
C2499 H2486 0.929 . S
C2499 C2491 1.433 . S
C2499 N2501 1.384 . S
N2500 C2496 1.427 . S
N2500 C2497 1.384 . S
N2501 C2493 1.427 . S
N2501 C2499 1.384 . S
H2502 C2508 0.930 . S
H2503 C2512 0.930 . S
H2504 C2517 0.929 . S
H2505 C2515 0.929 . S
H2506 C2510 0.929 . S
H2507 C2516 0.929 . S
C2508 H2502 0.930 . S
C2508 C2509 1.367 . S
C2508 C2516 1.378 . S
C2509 C2508 1.367 . S
C2509 C2517 1.433 . S
C2510 H2506 0.929 . S
C2510 C2512 1.378 . S
C2510 C2514 1.350 . S
C2511 C2514 1.463 . S
C2511 C2516 1.350 . S
C2511 N2519 1.427 . S
C2512 H2503 0.930 . S
C2512 C2510 1.378 . S
C2512 C2513 1.367 . S
C2513 C2512 1.367 . S
C2513 C2515 1.433 . S
C2514 C2510 1.350 . S
C2514 C2511 1.463 . S
C2514 N2518 1.427 . S
C2515 H2505 0.929 . S
C2515 C2513 1.433 . S
C2515 N2518 1.384 . S
C2516 H2507 0.929 . S
C2516 C2508 1.378 . S
C2516 C2511 1.350 . S
C2517 H2504 0.929 . S
C2517 C2509 1.433 . S
C2517 N2519 1.384 . S
N2518 C2514 1.427 . S
N2518 C2515 1.384 . S
N2519 C2511 1.427 . S
N2519 C2517 1.384 . S
H2520 C2526 0.930 . S
H2521 C2530 0.930 1_556 S
H2522 C2535 0.929 . S
H2523 C2533 0.929 . S
H2524 C2528 0.929 . S
H2525 C2534 0.929 . S
C2526 H2520 0.930 . S
C2526 C2527 1.367 . S
C2526 C2534 1.378 . S
C2527 C2526 1.367 . S
C2527 C2535 1.433 . S
C2528 H2524 0.929 . S
C2528 C2530 1.378 . S
C2528 C2532 1.350 . S
C2529 C2532 1.463 . S
C2529 C2534 1.350 . S
C2529 N2537 1.427 . S
C2530 H2521 0.930 1_554 S
C2530 C2528 1.378 . S
C2530 C2531 1.367 . S
C2531 C2530 1.367 . S
C2531 C2533 1.433 . S
C2532 C2528 1.350 . S
C2532 C2529 1.463 . S
C2532 N2536 1.427 . S
C2533 H2523 0.929 . S
C2533 C2531 1.433 . S
C2533 N2536 1.384 . S
C2534 H2525 0.929 . S
C2534 C2526 1.378 . S
C2534 C2529 1.350 . S
C2535 H2522 0.929 . S
C2535 C2527 1.433 . S
C2535 N2537 1.384 . S
N2536 C2532 1.427 . S
N2536 C2533 1.384 . S
N2537 C2529 1.427 . S
N2537 C2535 1.384 . S
H2538 C2544 0.930 . S
H2539 C2548 0.930 . S
H2540 C2553 0.929 . S
H2541 C2551 0.929 . S
H2542 C2546 0.929 . S
H2543 C2552 0.929 . S
C2544 H2538 0.930 . S
C2544 C2545 1.367 . S
C2544 C2552 1.378 . S
C2545 C2544 1.367 . S
C2545 C2553 1.433 . S
C2546 H2542 0.929 . S
C2546 C2548 1.378 . S
C2546 C2550 1.350 . S
C2547 C2550 1.463 . S
C2547 C2552 1.350 . S
C2547 N2555 1.427 . S
C2548 H2539 0.930 . S
C2548 C2546 1.378 . S
C2548 C2549 1.367 . S
C2549 C2548 1.367 . S
C2549 C2551 1.433 . S
C2550 C2546 1.350 . S
C2550 C2547 1.463 . S
C2550 N2554 1.427 . S
C2551 H2541 0.929 . S
C2551 C2549 1.433 . S
C2551 N2554 1.384 . S
C2552 H2543 0.929 . S
C2552 C2544 1.378 . S
C2552 C2547 1.350 . S
C2553 H2540 0.929 . S
C2553 C2545 1.433 . S
C2553 N2555 1.384 . S
N2554 C2550 1.427 . S
N2554 C2551 1.384 . S
N2555 C2547 1.427 . S
N2555 C2553 1.384 . S
H2556 C2562 0.930 . S
H2557 C2566 0.930 1_556 S
H2558 C2571 0.929 . S
H2559 C2569 0.929 . S
H2560 C2564 0.929 . S
H2561 C2570 0.929 . S
C2562 H2556 0.930 . S
C2562 C2563 1.367 . S
C2562 C2570 1.378 . S
C2563 C2562 1.367 . S
C2563 C2571 1.433 . S
C2564 H2560 0.929 . S
C2564 C2566 1.378 . S
C2564 C2568 1.350 . S
C2565 C2568 1.463 . S
C2565 C2570 1.350 . S
C2565 N2573 1.427 . S
C2566 H2557 0.930 1_554 S
C2566 C2564 1.378 . S
C2566 C2567 1.367 . S
C2567 C2566 1.367 . S
C2567 C2569 1.433 . S
C2568 C2564 1.350 . S
C2568 C2565 1.463 . S
C2568 N2572 1.427 . S
C2569 H2559 0.929 . S
C2569 C2567 1.433 . S
C2569 N2572 1.384 . S
C2570 H2561 0.929 . S
C2570 C2562 1.378 . S
C2570 C2565 1.350 . S
C2571 H2558 0.929 . S
C2571 C2563 1.433 . S
C2571 N2573 1.384 . S
N2572 C2568 1.427 . S
N2572 C2569 1.384 . S
N2573 C2565 1.427 . S
N2573 C2571 1.384 . S
H2574 C2580 0.930 . S
H2575 C2584 0.930 . S
H2576 C2589 0.929 . S
H2577 C2587 0.929 . S
H2578 C2582 0.929 . S
H2579 C2588 0.929 . S
C2580 H2574 0.930 . S
C2580 C2581 1.367 . S
C2580 C2588 1.378 . S
C2581 C2580 1.367 . S
C2581 C2589 1.433 . S
C2582 H2578 0.929 . S
C2582 C2584 1.378 . S
C2582 C2586 1.350 . S
C2583 C2586 1.463 . S
C2583 C2588 1.350 . S
C2583 N2591 1.427 . S
C2584 H2575 0.930 . S
C2584 C2582 1.378 . S
C2584 C2585 1.367 . S
C2585 C2584 1.367 . S
C2585 C2587 1.433 . S
C2586 C2582 1.350 . S
C2586 C2583 1.463 . S
C2586 N2590 1.427 . S
C2587 H2577 0.929 . S
C2587 C2585 1.433 . S
C2587 N2590 1.384 . S
C2588 H2579 0.929 . S
C2588 C2580 1.378 . S
C2588 C2583 1.350 . S
C2589 H2576 0.929 . S
C2589 C2581 1.433 . S
C2589 N2591 1.384 . S
N2590 C2586 1.427 . S
N2590 C2587 1.384 . S
N2591 C2583 1.427 . S
N2591 C2589 1.384 . S
H2592 C2598 0.930 . S
H2593 C2602 0.930 . S
H2594 C2607 0.929 . S
H2595 C2605 0.929 . S
H2596 C2600 0.929 . S
H2597 C2606 0.929 . S
C2598 H2592 0.930 . S
C2598 C2599 1.367 . S
C2598 C2606 1.378 . S
C2599 C2598 1.367 . S
C2599 C2607 1.433 . S
C2600 H2596 0.929 . S
C2600 C2602 1.378 . S
C2600 C2604 1.350 . S
C2601 C2604 1.463 . S
C2601 C2606 1.350 . S
C2601 N2609 1.427 . S
C2602 H2593 0.930 . S
C2602 C2600 1.378 . S
C2602 C2603 1.367 . S
C2603 C2602 1.367 . S
C2603 C2605 1.433 . S
C2604 C2600 1.350 . S
C2604 C2601 1.463 . S
C2604 N2608 1.427 . S
C2605 H2595 0.929 . S
C2605 C2603 1.433 . S
C2605 N2608 1.384 . S
C2606 H2597 0.929 . S
C2606 C2598 1.378 . S
C2606 C2601 1.350 . S
C2607 H2594 0.929 . S
C2607 C2599 1.433 . S
C2607 N2609 1.384 . S
N2608 C2604 1.427 . S
N2608 C2605 1.384 . S
N2609 C2601 1.427 . S
N2609 C2607 1.384 . S
H2610 C2616 0.930 . S
H2611 C2620 0.930 . S
H2612 C2625 0.929 . S
H2613 C2623 0.929 . S
H2614 C2618 0.929 . S
H2615 C2624 0.929 . S
C2616 H2610 0.930 . S
C2616 C2617 1.367 . S
C2616 C2624 1.378 . S
C2617 C2616 1.367 . S
C2617 C2625 1.433 . S
C2618 H2614 0.929 . S
C2618 C2620 1.378 . S
C2618 C2622 1.350 . S
C2619 C2622 1.463 . S
C2619 C2624 1.350 . S
C2619 N2627 1.427 . S
C2620 H2611 0.930 . S
C2620 C2618 1.378 . S
C2620 C2621 1.367 . S
C2621 C2620 1.367 . S
C2621 C2623 1.433 . S
C2622 C2618 1.350 . S
C2622 C2619 1.463 . S
C2622 N2626 1.427 . S
C2623 H2613 0.929 . S
C2623 C2621 1.433 . S
C2623 N2626 1.384 . S
C2624 H2615 0.929 . S
C2624 C2616 1.378 . S
C2624 C2619 1.350 . S
C2625 H2612 0.929 . S
C2625 C2617 1.433 . S
C2625 N2627 1.384 . S
N2626 C2622 1.427 . S
N2626 C2623 1.384 . S
N2627 C2619 1.427 . S
N2627 C2625 1.384 . S
H2628 C2634 0.930 . S
H2629 C2638 0.930 . S
H2630 C2643 0.929 . S
H2631 C2641 0.929 . S
H2632 C2636 0.929 1_455 S
H2633 C2642 0.929 1_655 S
C2634 H2628 0.930 . S
C2634 C2635 1.367 . S
C2634 C2642 1.378 . S
C2635 C2634 1.367 . S
C2635 C2643 1.433 . S
C2636 H2632 0.929 1_655 S
C2636 C2638 1.378 . S
C2636 C2640 1.350 . S
C2637 C2640 1.463 1_455 S
C2637 C2642 1.350 . S
C2637 N2645 1.427 . S
C2638 H2629 0.930 . S
C2638 C2636 1.378 . S
C2638 C2639 1.367 . S
C2639 C2638 1.367 . S
C2639 C2641 1.433 . S
C2640 C2636 1.350 . S
C2640 C2637 1.463 1_655 S
C2640 N2644 1.427 . S
C2641 H2631 0.929 . S
C2641 C2639 1.433 . S
C2641 N2644 1.384 . S
C2642 H2633 0.929 1_455 S
C2642 C2634 1.378 . S
C2642 C2637 1.350 . S
C2643 H2630 0.929 . S
C2643 C2635 1.433 . S
C2643 N2645 1.384 . S
N2644 C2640 1.427 . S
N2644 C2641 1.384 . S
N2645 C2637 1.427 . S
N2645 C2643 1.384 . S
H2646 C2652 0.930 . S
H2647 C2656 0.930 . S
H2648 C2661 0.929 . S
H2649 C2659 0.929 . S
H2650 C2654 0.929 . S
H2651 C2660 0.929 . S
C2652 H2646 0.930 . S
C2652 C2653 1.367 . S
C2652 C2660 1.378 . S
C2653 C2652 1.367 . S
C2653 C2661 1.433 . S
C2654 H2650 0.929 . S
C2654 C2656 1.378 . S
C2654 C2658 1.350 . S
C2655 C2658 1.463 . S
C2655 C2660 1.350 . S
C2655 N2663 1.427 . S
C2656 H2647 0.930 . S
C2656 C2654 1.378 . S
C2656 C2657 1.367 . S
C2657 C2656 1.367 . S
C2657 C2659 1.433 . S
C2658 C2654 1.350 . S
C2658 C2655 1.463 . S
C2658 N2662 1.427 . S
C2659 H2649 0.929 . S
C2659 C2657 1.433 . S
C2659 N2662 1.384 . S
C2660 H2651 0.929 . S
C2660 C2652 1.378 . S
C2660 C2655 1.350 . S
C2661 H2648 0.929 . S
C2661 C2653 1.433 . S
C2661 N2663 1.384 . S
N2662 C2658 1.427 . S
N2662 C2659 1.384 . S
N2663 C2655 1.427 . S
N2663 C2661 1.384 . S
H2664 C2670 0.930 . S
H2665 C2674 0.930 . S
H2666 C2679 0.929 . S
H2667 C2677 0.929 . S
H2668 C2672 0.929 1_545 S
H2669 C2678 0.929 1_565 S
C2670 H2664 0.930 . S
C2670 C2671 1.367 . S
C2670 C2678 1.378 . S
C2671 C2670 1.367 . S
C2671 C2679 1.433 . S
C2672 H2668 0.929 1_565 S
C2672 C2674 1.378 . S
C2672 C2676 1.350 . S
C2673 C2676 1.463 1_545 S
C2673 C2678 1.350 . S
C2673 N2681 1.427 . S
C2674 H2665 0.930 . S
C2674 C2672 1.378 . S
C2674 C2675 1.367 . S
C2675 C2674 1.367 . S
C2675 C2677 1.433 . S
C2676 C2672 1.350 . S
C2676 C2673 1.463 1_565 S
C2676 N2680 1.427 . S
C2677 H2667 0.929 . S
C2677 C2675 1.433 . S
C2677 N2680 1.384 . S
C2678 H2669 0.929 1_545 S
C2678 C2670 1.378 . S
C2678 C2673 1.350 . S
C2679 H2666 0.929 . S
C2679 C2671 1.433 . S
C2679 N2681 1.384 . S
N2680 C2676 1.427 . S
N2680 C2677 1.384 . S
N2681 C2673 1.427 . S
N2681 C2679 1.384 . S
H2682 C2688 0.930 . S
H2683 C2692 0.930 . S
H2684 C2697 0.929 . S
H2685 C2695 0.929 . S
H2686 C2690 0.929 . S
H2687 C2696 0.929 . S
C2688 H2682 0.930 . S
C2688 C2689 1.367 . S
C2688 C2696 1.378 . S
C2689 C2688 1.367 . S
C2689 C2697 1.433 . S
C2690 H2686 0.929 . S
C2690 C2692 1.378 . S
C2690 C2694 1.350 . S
C2691 C2694 1.463 1_565 S
C2691 C2696 1.350 . S
C2691 N2699 1.427 . S
C2692 H2683 0.930 . S
C2692 C2690 1.378 . S
C2692 C2693 1.367 . S
C2693 C2692 1.367 . S
C2693 C2695 1.433 . S
C2694 C2690 1.350 . S
C2694 C2691 1.463 1_545 S
C2694 N2698 1.427 . S
C2695 H2685 0.929 . S
C2695 C2693 1.433 . S
C2695 N2698 1.384 . S
C2696 H2687 0.929 . S
C2696 C2688 1.378 . S
C2696 C2691 1.350 . S
C2697 H2684 0.929 . S
C2697 C2689 1.433 . S
C2697 N2699 1.384 . S
N2698 C2694 1.427 . S
N2698 C2695 1.384 . S
N2699 C2691 1.427 . S
N2699 C2697 1.384 . S
H2700 C2706 0.930 . S
H2701 C2710 0.930 . S
H2702 C2715 0.929 . S
H2703 C2713 0.929 . S
H2704 C2708 0.929 . S
H2705 C2714 0.929 . S
C2706 H2700 0.930 . S
C2706 C2707 1.367 . S
C2706 C2714 1.378 . S
C2707 C2706 1.367 . S
C2707 C2715 1.433 . S
C2708 H2704 0.929 . S
C2708 C2710 1.378 . S
C2708 C2712 1.350 . S
C2709 C2712 1.463 1_455 S
C2709 C2714 1.350 . S
C2709 N2717 1.427 . S
C2710 H2701 0.930 . S
C2710 C2708 1.378 . S
C2710 C2711 1.367 . S
C2711 C2710 1.367 . S
C2711 C2713 1.433 . S
C2712 C2708 1.350 . S
C2712 C2709 1.463 1_655 S
C2712 N2716 1.427 . S
C2713 H2703 0.929 . S
C2713 C2711 1.433 . S
C2713 N2716 1.384 . S
C2714 H2705 0.929 . S
C2714 C2706 1.378 . S
C2714 C2709 1.350 . S
C2715 H2702 0.929 . S
C2715 C2707 1.433 . S
C2715 N2717 1.384 . S
N2716 C2712 1.427 . S
N2716 C2713 1.384 . S
N2717 C2709 1.427 . S
N2717 C2715 1.384 . S
H2718 C2724 0.930 . S
H2719 C2728 0.930 . S
H2720 C2733 0.929 . S
H2721 C2731 0.929 . S
H2722 C2726 0.929 . S
H2723 C2732 0.929 . S
C2724 H2718 0.930 . S
C2724 C2725 1.367 . S
C2724 C2732 1.378 . S
C2725 C2724 1.367 . S
C2725 C2733 1.433 . S
C2726 H2722 0.929 . S
C2726 C2728 1.378 . S
C2726 C2730 1.350 . S
C2727 C2730 1.463 . S
C2727 C2732 1.350 . S
C2727 N2735 1.427 . S
C2728 H2719 0.930 . S
C2728 C2726 1.378 . S
C2728 C2729 1.367 . S
C2729 C2728 1.367 . S
C2729 C2731 1.433 . S
C2730 C2726 1.350 . S
C2730 C2727 1.463 . S
C2730 N2734 1.427 . S
C2731 H2721 0.929 . S
C2731 C2729 1.433 . S
C2731 N2734 1.384 . S
C2732 H2723 0.929 . S
C2732 C2724 1.378 . S
C2732 C2727 1.350 . S
C2733 H2720 0.929 . S
C2733 C2725 1.433 . S
C2733 N2735 1.384 . S
N2734 C2730 1.427 . S
N2734 C2731 1.384 . S
N2735 C2727 1.427 . S
N2735 C2733 1.384 . S
H2736 C2742 0.930 . S
H2737 C2746 0.930 . S
H2738 C2751 0.929 . S
H2739 C2749 0.929 . S
H2740 C2744 0.929 . S
H2741 C2750 0.929 . S
C2742 H2736 0.930 . S
C2742 C2743 1.367 . S
C2742 C2750 1.378 . S
C2743 C2742 1.367 . S
C2743 C2751 1.433 . S
C2744 H2740 0.929 . S
C2744 C2746 1.378 . S
C2744 C2748 1.350 . S
C2745 C2748 1.463 . S
C2745 C2750 1.350 . S
C2745 N2753 1.427 . S
C2746 H2737 0.930 . S
C2746 C2744 1.378 . S
C2746 C2747 1.367 . S
C2747 C2746 1.367 . S
C2747 C2749 1.433 . S
C2748 C2744 1.350 . S
C2748 C2745 1.463 . S
C2748 N2752 1.427 . S
C2749 H2739 0.929 . S
C2749 C2747 1.433 . S
C2749 N2752 1.384 . S
C2750 H2741 0.929 . S
C2750 C2742 1.378 . S
C2750 C2745 1.350 . S
C2751 H2738 0.929 . S
C2751 C2743 1.433 . S
C2751 N2753 1.384 . S
N2752 C2748 1.427 . S
N2752 C2749 1.384 . S
N2753 C2745 1.427 . S
N2753 C2751 1.384 . S
H2754 C2760 0.930 . S
H2755 C2764 0.930 . S
H2756 C2769 0.929 . S
H2757 C2767 0.929 . S
H2758 C2762 0.929 . S
H2759 C2768 0.929 . S
C2760 H2754 0.930 . S
C2760 C2761 1.367 . S
C2760 C2768 1.378 . S
C2761 C2760 1.367 . S
C2761 C2769 1.433 . S
C2762 H2758 0.929 . S
C2762 C2764 1.378 . S
C2762 C2766 1.350 . S
C2763 C2766 1.463 1_545 S
C2763 C2768 1.350 . S
C2763 N2771 1.427 . S
C2764 H2755 0.930 . S
C2764 C2762 1.378 . S
C2764 C2765 1.367 . S
C2765 C2764 1.367 . S
C2765 C2767 1.433 . S
C2766 C2762 1.350 . S
C2766 C2763 1.463 1_565 S
C2766 N2770 1.427 . S
C2767 H2757 0.929 . S
C2767 C2765 1.433 . S
C2767 N2770 1.384 . S
C2768 H2759 0.929 . S
C2768 C2760 1.378 . S
C2768 C2763 1.350 . S
C2769 H2756 0.929 . S
C2769 C2761 1.433 . S
C2769 N2771 1.384 . S
N2770 C2766 1.427 . S
N2770 C2767 1.384 . S
N2771 C2763 1.427 . S
N2771 C2769 1.384 . S
H2772 C2778 0.930 . S
H2773 C2782 0.930 . S
H2774 C2787 0.929 . S
H2775 C2785 0.929 . S
H2776 C2780 0.929 . S
H2777 C2786 0.929 . S
C2778 H2772 0.930 . S
C2778 C2779 1.367 . S
C2778 C2786 1.378 . S
C2779 C2778 1.367 . S
C2779 C2787 1.433 . S
C2780 H2776 0.929 . S
C2780 C2782 1.378 . S
C2780 C2784 1.350 . S
C2781 C2784 1.463 1_655 S
C2781 C2786 1.350 . S
C2781 N2789 1.427 . S
C2782 H2773 0.930 . S
C2782 C2780 1.378 . S
C2782 C2783 1.367 . S
C2783 C2782 1.367 . S
C2783 C2785 1.433 . S
C2784 C2780 1.350 . S
C2784 C2781 1.463 1_455 S
C2784 N2788 1.427 . S
C2785 H2775 0.929 . S
C2785 C2783 1.433 . S
C2785 N2788 1.384 . S
C2786 H2777 0.929 . S
C2786 C2778 1.378 . S
C2786 C2781 1.350 . S
C2787 H2774 0.929 . S
C2787 C2779 1.433 . S
C2787 N2789 1.384 . S
N2788 C2784 1.427 . S
N2788 C2785 1.384 . S
N2789 C2781 1.427 . S
N2789 C2787 1.384 . S
H2790 C2796 0.930 . S
H2791 C2800 0.930 . S
H2792 C2805 0.929 . S
H2793 C2803 0.929 . S
H2794 C2798 0.929 . S
H2795 C2804 0.929 . S
C2796 H2790 0.930 . S
C2796 C2797 1.367 . S
C2796 C2804 1.378 . S
C2797 C2796 1.367 . S
C2797 C2805 1.433 . S
C2798 H2794 0.929 . S
C2798 C2800 1.378 . S
C2798 C2802 1.350 . S
C2799 C2802 1.463 . S
C2799 C2804 1.350 . S
C2799 N2807 1.427 . S
C2800 H2791 0.930 . S
C2800 C2798 1.378 . S
C2800 C2801 1.367 . S
C2801 C2800 1.367 . S
C2801 C2803 1.433 . S
C2802 C2798 1.350 . S
C2802 C2799 1.463 . S
C2802 N2806 1.427 . S
C2803 H2793 0.929 . S
C2803 C2801 1.433 . S
C2803 N2806 1.384 . S
C2804 H2795 0.929 . S
C2804 C2796 1.378 . S
C2804 C2799 1.350 . S
C2805 H2792 0.929 . S
C2805 C2797 1.433 . S
C2805 N2807 1.384 . S
N2806 C2802 1.427 . S
N2806 C2803 1.384 . S
N2807 C2799 1.427 . S
N2807 C2805 1.384 . S
H2808 C2814 0.930 . S
H2809 C2818 0.930 . S
H2810 C2823 0.929 . S
H2811 C2821 0.929 . S
H2812 C2816 0.929 . S
H2813 C2822 0.929 . S
C2814 H2808 0.930 . S
C2814 C2815 1.367 . S
C2814 C2822 1.378 . S
C2815 C2814 1.367 . S
C2815 C2823 1.433 . S
C2816 H2812 0.929 . S
C2816 C2818 1.378 . S
C2816 C2820 1.350 . S
C2817 C2820 1.463 1_565 S
C2817 C2822 1.350 . S
C2817 N2825 1.427 . S
C2818 H2809 0.930 . S
C2818 C2816 1.378 . S
C2818 C2819 1.367 . S
C2819 C2818 1.367 . S
C2819 C2821 1.433 . S
C2820 C2816 1.350 . S
C2820 C2817 1.463 1_545 S
C2820 N2824 1.427 . S
C2821 H2811 0.929 . S
C2821 C2819 1.433 . S
C2821 N2824 1.384 . S
C2822 H2813 0.929 . S
C2822 C2814 1.378 . S
C2822 C2817 1.350 . S
C2823 H2810 0.929 . S
C2823 C2815 1.433 . S
C2823 N2825 1.384 . S
N2824 C2820 1.427 . S
N2824 C2821 1.384 . S
N2825 C2817 1.427 . S
N2825 C2823 1.384 . S
H2826 C2832 0.930 . S
H2827 C2836 0.930 . S
H2828 C2841 0.929 . S
H2829 C2839 0.929 . S
H2830 C2834 0.929 . S
H2831 C2840 0.929 . S
C2832 H2826 0.930 . S
C2832 C2833 1.367 . S
C2832 C2840 1.378 . S
C2833 C2832 1.367 . S
C2833 C2841 1.433 . S
C2834 H2830 0.929 . S
C2834 C2836 1.378 . S
C2834 C2838 1.350 . S
C2835 C2838 1.463 1_655 S
C2835 C2840 1.350 . S
C2835 N2843 1.427 . S
C2836 H2827 0.930 . S
C2836 C2834 1.378 . S
C2836 C2837 1.367 . S
C2837 C2836 1.367 . S
C2837 C2839 1.433 . S
C2838 C2834 1.350 . S
C2838 C2835 1.463 1_455 S
C2838 N2842 1.427 . S
C2839 H2829 0.929 . S
C2839 C2837 1.433 . S
C2839 N2842 1.384 . S
C2840 H2831 0.929 . S
C2840 C2832 1.378 . S
C2840 C2835 1.350 . S
C2841 H2828 0.929 . S
C2841 C2833 1.433 . S
C2841 N2843 1.384 . S
N2842 C2838 1.427 . S
N2842 C2839 1.384 . S
N2843 C2835 1.427 . S
N2843 C2841 1.384 . S
H2844 C2850 0.930 . S
H2845 C2854 0.930 . S
H2846 C2859 0.929 . S
H2847 C2857 0.929 . S
H2848 C2852 0.929 . S
H2849 C2858 0.929 . S
C2850 H2844 0.930 . S
C2850 C2851 1.367 . S
C2850 C2858 1.378 . S
C2851 C2850 1.367 . S
C2851 C2859 1.433 . S
C2852 H2848 0.929 . S
C2852 C2854 1.378 . S
C2852 C2856 1.350 . S
C2853 C2856 1.463 . S
C2853 C2858 1.350 . S
C2853 N2861 1.427 . S
C2854 H2845 0.930 . S
C2854 C2852 1.378 . S
C2854 C2855 1.367 . S
C2855 C2854 1.367 . S
C2855 C2857 1.433 . S
C2856 C2852 1.350 . S
C2856 C2853 1.463 . S
C2856 N2860 1.427 . S
C2857 H2847 0.929 . S
C2857 C2855 1.433 . S
C2857 N2860 1.384 . S
C2858 H2849 0.929 . S
C2858 C2850 1.378 . S
C2858 C2853 1.350 . S
C2859 H2846 0.929 . S
C2859 C2851 1.433 . S
C2859 N2861 1.384 . S
N2860 C2856 1.427 . S
N2860 C2857 1.384 . S
N2861 C2853 1.427 . S
N2861 C2859 1.384 . S
H2862 C2868 0.930 . S
H2863 C2872 0.930 . S
H2864 C2877 0.929 . S
H2865 C2875 0.929 . S
H2866 C2870 0.929 . S
H2867 C2876 0.929 . S
C2868 H2862 0.930 . S
C2868 C2869 1.367 . S
C2868 C2876 1.378 . S
C2869 C2868 1.367 . S
C2869 C2877 1.433 . S
C2870 H2866 0.929 . S
C2870 C2872 1.378 . S
C2870 C2874 1.350 . S
C2871 C2874 1.463 . S
C2871 C2876 1.350 . S
C2871 N2879 1.427 . S
C2872 H2863 0.930 . S
C2872 C2870 1.378 . S
C2872 C2873 1.367 . S
C2873 C2872 1.367 . S
C2873 C2875 1.433 . S
C2874 C2870 1.350 . S
C2874 C2871 1.463 . S
C2874 N2878 1.427 . S
C2875 H2865 0.929 . S
C2875 C2873 1.433 . S
C2875 N2878 1.384 . S
C2876 H2867 0.929 . S
C2876 C2868 1.378 . S
C2876 C2871 1.350 . S
C2877 H2864 0.929 . S
C2877 C2869 1.433 . S
C2877 N2879 1.384 . S
N2878 C2874 1.427 . S
N2878 C2875 1.384 . S
N2879 C2871 1.427 . S
N2879 C2877 1.384 . S
H2880 C2886 0.930 . S
H2881 C2890 0.930 . S
H2882 C2895 0.929 . S
H2883 C2893 0.929 . S
H2884 C2888 0.929 . S
H2885 C2894 0.929 . S
C2886 H2880 0.930 . S
C2886 C2887 1.367 . S
C2886 C2894 1.378 . S
C2887 C2886 1.367 . S
C2887 C2895 1.433 . S
C2888 H2884 0.929 . S
C2888 C2890 1.378 . S
C2888 C2892 1.350 . S
C2889 C2892 1.463 . S
C2889 C2894 1.350 . S
C2889 N2897 1.427 . S
C2890 H2881 0.930 . S
C2890 C2888 1.378 . S
C2890 C2891 1.367 . S
C2891 C2890 1.367 . S
C2891 C2893 1.433 . S
C2892 C2888 1.350 . S
C2892 C2889 1.463 . S
C2892 N2896 1.427 . S
C2893 H2883 0.929 . S
C2893 C2891 1.433 . S
C2893 N2896 1.384 . S
C2894 H2885 0.929 . S
C2894 C2886 1.378 . S
C2894 C2889 1.350 . S
C2895 H2882 0.929 . S
C2895 C2887 1.433 . S
C2895 N2897 1.384 . S
N2896 C2892 1.427 . S
N2896 C2893 1.384 . S
N2897 C2889 1.427 . S
N2897 C2895 1.384 . S
H2898 C2904 0.930 . S
H2899 C2908 0.930 . S
H2900 C2913 0.929 . S
H2901 C2911 0.929 . S
H2902 C2906 0.929 . S
H2903 C2912 0.929 . S
C2904 H2898 0.930 . S
C2904 C2905 1.367 . S
C2904 C2912 1.378 . S
C2905 C2904 1.367 . S
C2905 C2913 1.433 . S
C2906 H2902 0.929 . S
C2906 C2908 1.378 . S
C2906 C2910 1.350 . S
C2907 C2910 1.463 . S
C2907 C2912 1.350 . S
C2907 N2915 1.427 . S
C2908 H2899 0.930 . S
C2908 C2906 1.378 . S
C2908 C2909 1.367 . S
C2909 C2908 1.367 . S
C2909 C2911 1.433 . S
C2910 C2906 1.350 . S
C2910 C2907 1.463 . S
C2910 N2914 1.427 . S
C2911 H2901 0.929 . S
C2911 C2909 1.433 . S
C2911 N2914 1.384 . S
C2912 H2903 0.929 . S
C2912 C2904 1.378 . S
C2912 C2907 1.350 . S
C2913 H2900 0.929 . S
C2913 C2905 1.433 . S
C2913 N2915 1.384 . S
N2914 C2910 1.427 . S
N2914 C2911 1.384 . S
N2915 C2907 1.427 . S
N2915 C2913 1.384 . S
H2916 C2922 0.930 . S
H2917 C2926 0.930 . S
H2918 C2931 0.929 . S
H2919 C2929 0.929 1_556 S
H2920 C2924 0.929 . S
H2921 C2930 0.929 . S
C2922 H2916 0.930 . S
C2922 C2923 1.367 . S
C2922 C2930 1.378 . S
C2923 C2922 1.367 . S
C2923 C2931 1.433 . S
C2924 H2920 0.929 . S
C2924 C2926 1.378 . S
C2924 C2928 1.350 . S
C2925 C2928 1.463 . S
C2925 C2930 1.350 . S
C2925 N2933 1.427 . S
C2926 H2917 0.930 . S
C2926 C2924 1.378 . S
C2926 C2927 1.367 . S
C2927 C2926 1.367 . S
C2927 C2929 1.433 . S
C2928 C2924 1.350 . S
C2928 C2925 1.463 . S
C2928 N2932 1.427 . S
C2929 H2919 0.929 1_554 S
C2929 C2927 1.433 . S
C2929 N2932 1.384 . S
C2930 H2921 0.929 . S
C2930 C2922 1.378 . S
C2930 C2925 1.350 . S
C2931 H2918 0.929 . S
C2931 C2923 1.433 . S
C2931 N2933 1.384 . S
N2932 C2928 1.427 . S
N2932 C2929 1.384 . S
N2933 C2925 1.427 . S
N2933 C2931 1.384 . S
H2934 C2940 0.930 . S
H2935 C2944 0.930 . S
H2936 C2949 0.929 . S
H2937 C2947 0.929 . S
H2938 C2942 0.929 . S
H2939 C2948 0.929 . S
C2940 H2934 0.930 . S
C2940 C2941 1.367 . S
C2940 C2948 1.378 . S
C2941 C2940 1.367 . S
C2941 C2949 1.433 . S
C2942 H2938 0.929 . S
C2942 C2944 1.378 . S
C2942 C2946 1.350 . S
C2943 C2946 1.463 . S
C2943 C2948 1.350 . S
C2943 N2951 1.427 . S
C2944 H2935 0.930 . S
C2944 C2942 1.378 . S
C2944 C2945 1.367 . S
C2945 C2944 1.367 . S
C2945 C2947 1.433 . S
C2946 C2942 1.350 . S
C2946 C2943 1.463 . S
C2946 N2950 1.427 . S
C2947 H2937 0.929 . S
C2947 C2945 1.433 . S
C2947 N2950 1.384 . S
C2948 H2939 0.929 . S
C2948 C2940 1.378 . S
C2948 C2943 1.350 . S
C2949 H2936 0.929 . S
C2949 C2941 1.433 . S
C2949 N2951 1.384 . S
N2950 C2946 1.427 . S
N2950 C2947 1.384 . S
N2951 C2943 1.427 . S
N2951 C2949 1.384 . S
H2952 C2958 0.930 . S
H2953 C2962 0.930 1_554 S
H2954 C2967 0.929 . S
H2955 C2965 0.929 . S
H2956 C2960 0.929 . S
H2957 C2966 0.929 . S
C2958 H2952 0.930 . S
C2958 C2959 1.367 . S
C2958 C2966 1.378 . S
C2959 C2958 1.367 . S
C2959 C2967 1.433 . S
C2960 H2956 0.929 . S
C2960 C2962 1.378 . S
C2960 C2964 1.350 . S
C2961 C2964 1.463 . S
C2961 C2966 1.350 . S
C2961 N2969 1.427 . S
C2962 H2953 0.930 1_556 S
C2962 C2960 1.378 . S
C2962 C2963 1.367 . S
C2963 C2962 1.367 . S
C2963 C2965 1.433 . S
C2964 C2960 1.350 . S
C2964 C2961 1.463 . S
C2964 N2968 1.427 . S
C2965 H2955 0.929 . S
C2965 C2963 1.433 . S
C2965 N2968 1.384 . S
C2966 H2957 0.929 . S
C2966 C2958 1.378 . S
C2966 C2961 1.350 . S
C2967 H2954 0.929 . S
C2967 C2959 1.433 . S
C2967 N2969 1.384 . S
N2968 C2964 1.427 . S
N2968 C2965 1.384 . S
N2969 C2961 1.427 . S
N2969 C2967 1.384 . S
H2970 C2976 0.930 . S
H2971 C2980 0.930 . S
H2972 C2985 0.929 1_554 S
H2973 C2983 0.929 . S
H2974 C2978 0.929 . S
H2975 C2984 0.929 . S
C2976 H2970 0.930 . S
C2976 C2977 1.367 . S
C2976 C2984 1.378 . S
C2977 C2976 1.367 . S
C2977 C2985 1.433 . S
C2978 H2974 0.929 . S
C2978 C2980 1.378 . S
C2978 C2982 1.350 . S
C2979 C2982 1.463 . S
C2979 C2984 1.350 . S
C2979 N2987 1.427 . S
C2980 H2971 0.930 . S
C2980 C2978 1.378 . S
C2980 C2981 1.367 . S
C2981 C2980 1.367 . S
C2981 C2983 1.433 . S
C2982 C2978 1.350 . S
C2982 C2979 1.463 . S
C2982 N2986 1.427 . S
C2983 H2973 0.929 . S
C2983 C2981 1.433 . S
C2983 N2986 1.384 . S
C2984 H2975 0.929 . S
C2984 C2976 1.378 . S
C2984 C2979 1.350 . S
C2985 H2972 0.929 1_556 S
C2985 C2977 1.433 . S
C2985 N2987 1.384 . S
N2986 C2982 1.427 . S
N2986 C2983 1.384 . S
N2987 C2979 1.427 . S
N2987 C2985 1.384 . S
H2988 C2994 0.930 . S
H2989 C2998 0.930 . S
H2990 C3003 0.929 1_554 S
H2991 C3001 0.929 . S
H2992 C2996 0.929 . S
H2993 C3002 0.929 . S
C2994 H2988 0.930 . S
C2994 C2995 1.367 . S
C2994 C3002 1.378 . S
C2995 C2994 1.367 . S
C2995 C3003 1.433 . S
C2996 H2992 0.929 . S
C2996 C2998 1.378 . S
C2996 C3000 1.350 . S
C2997 C3000 1.463 . S
C2997 C3002 1.350 . S
C2997 N3005 1.427 . S
C2998 H2989 0.930 . S
C2998 C2996 1.378 . S
C2998 C2999 1.367 . S
C2999 C2998 1.367 . S
C2999 C3001 1.433 . S
C3000 C2996 1.350 . S
C3000 C2997 1.463 . S
C3000 N3004 1.427 . S
C3001 H2991 0.929 . S
C3001 C2999 1.433 . S
C3001 N3004 1.384 . S
C3002 H2993 0.929 . S
C3002 C2994 1.378 . S
C3002 C2997 1.350 . S
C3003 H2990 0.929 1_556 S
C3003 C2995 1.433 . S
C3003 N3005 1.384 . S
N3004 C3000 1.427 . S
N3004 C3001 1.384 . S
N3005 C2997 1.427 . S
N3005 C3003 1.384 . S
H3006 C3012 0.930 . S
H3007 C3016 0.930 . S
H3008 C3021 0.929 . S
H3009 C3019 0.929 . S
H3010 C3014 0.929 . S
H3011 C3020 0.929 . S
C3012 H3006 0.930 . S
C3012 C3013 1.367 . S
C3012 C3020 1.378 . S
C3013 C3012 1.367 . S
C3013 C3021 1.433 . S
C3014 H3010 0.929 . S
C3014 C3016 1.378 . S
C3014 C3018 1.350 . S
C3015 C3018 1.463 . S
C3015 C3020 1.350 . S
C3015 N3023 1.427 . S
C3016 H3007 0.930 . S
C3016 C3014 1.378 . S
C3016 C3017 1.367 . S
C3017 C3016 1.367 . S
C3017 C3019 1.433 . S
C3018 C3014 1.350 . S
C3018 C3015 1.463 . S
C3018 N3022 1.427 . S
C3019 H3009 0.929 . S
C3019 C3017 1.433 . S
C3019 N3022 1.384 . S
C3020 H3011 0.929 . S
C3020 C3012 1.378 . S
C3020 C3015 1.350 . S
C3021 H3008 0.929 . S
C3021 C3013 1.433 . S
C3021 N3023 1.384 . S
N3022 C3018 1.427 . S
N3022 C3019 1.384 . S
N3023 C3015 1.427 . S
N3023 C3021 1.384 . S
H3024 C3030 0.930 . S
H3025 C3034 0.930 . S
H3026 C3039 0.929 . S
H3027 C3037 0.929 . S
H3028 C3032 0.929 . S
H3029 C3038 0.929 . S
C3030 H3024 0.930 . S
C3030 C3031 1.367 . S
C3030 C3038 1.378 . S
C3031 C3030 1.367 . S
C3031 C3039 1.433 . S
C3032 H3028 0.929 . S
C3032 C3034 1.378 . S
C3032 C3036 1.350 . S
C3033 C3036 1.463 . S
C3033 C3038 1.350 . S
C3033 N3041 1.427 . S
C3034 H3025 0.930 . S
C3034 C3032 1.378 . S
C3034 C3035 1.367 . S
C3035 C3034 1.367 . S
C3035 C3037 1.433 . S
C3036 C3032 1.350 . S
C3036 C3033 1.463 . S
C3036 N3040 1.427 . S
C3037 H3027 0.929 . S
C3037 C3035 1.433 . S
C3037 N3040 1.384 . S
C3038 H3029 0.929 . S
C3038 C3030 1.378 . S
C3038 C3033 1.350 . S
C3039 H3026 0.929 . S
C3039 C3031 1.433 . S
C3039 N3041 1.384 . S
N3040 C3036 1.427 . S
N3040 C3037 1.384 . S
N3041 C3033 1.427 . S
N3041 C3039 1.384 . S
H3042 C3048 0.930 . S
H3043 C3052 0.930 . S
H3044 C3057 0.929 . S
H3045 C3055 0.929 . S
H3046 C3050 0.929 . S
H3047 C3056 0.929 . S
C3048 H3042 0.930 . S
C3048 C3049 1.367 . S
C3048 C3056 1.378 . S
C3049 C3048 1.367 . S
C3049 C3057 1.433 . S
C3050 H3046 0.929 . S
C3050 C3052 1.378 . S
C3050 C3054 1.350 . S
C3051 C3054 1.463 . S
C3051 C3056 1.350 . S
C3051 N3059 1.427 . S
C3052 H3043 0.930 . S
C3052 C3050 1.378 . S
C3052 C3053 1.367 . S
C3053 C3052 1.367 . S
C3053 C3055 1.433 . S
C3054 C3050 1.350 . S
C3054 C3051 1.463 . S
C3054 N3058 1.427 . S
C3055 H3045 0.929 . S
C3055 C3053 1.433 . S
C3055 N3058 1.384 . S
C3056 H3047 0.929 . S
C3056 C3048 1.378 . S
C3056 C3051 1.350 . S
C3057 H3044 0.929 . S
C3057 C3049 1.433 . S
C3057 N3059 1.384 . S
N3058 C3054 1.427 . S
N3058 C3055 1.384 . S
N3059 C3051 1.427 . S
N3059 C3057 1.384 . S
H3060 C3066 0.930 . S
H3061 C3070 0.930 . S
H3062 C3075 0.929 . S
H3063 C3073 0.929 . S
H3064 C3068 0.929 . S
H3065 C3074 0.929 . S
C3066 H3060 0.930 . S
C3066 C3067 1.367 . S
C3066 C3074 1.378 . S
C3067 C3066 1.367 . S
C3067 C3075 1.433 . S
C3068 H3064 0.929 . S
C3068 C3070 1.378 . S
C3068 C3072 1.350 . S
C3069 C3072 1.463 . S
C3069 C3074 1.350 . S
C3069 N3077 1.427 . S
C3070 H3061 0.930 . S
C3070 C3068 1.378 . S
C3070 C3071 1.367 . S
C3071 C3070 1.367 . S
C3071 C3073 1.433 . S
C3072 C3068 1.350 . S
C3072 C3069 1.463 . S
C3072 N3076 1.427 . S
C3073 H3063 0.929 . S
C3073 C3071 1.433 . S
C3073 N3076 1.384 . S
C3074 H3065 0.929 . S
C3074 C3066 1.378 . S
C3074 C3069 1.350 . S
C3075 H3062 0.929 . S
C3075 C3067 1.433 . S
C3075 N3077 1.384 . S
N3076 C3072 1.427 . S
N3076 C3073 1.384 . S
N3077 C3069 1.427 . S
N3077 C3075 1.384 . S
H3078 C3084 0.930 . S
H3079 C3088 0.930 . S
H3080 C3093 0.929 . S
H3081 C3091 0.929 . S
H3082 C3086 0.931 . S
H3083 C3092 0.929 . S
C3084 H3078 0.930 . S
C3084 C3085 1.367 . S
C3084 C3092 1.378 . S
C3085 C3084 1.367 . S
C3085 C3093 1.433 . S
C3086 H3082 0.931 . S
C3086 C3088 1.378 1_565 S
C3086 C3090 1.350 . S
C3087 C3090 1.463 . S
C3087 C3092 1.350 . S
C3087 N3095 1.427 . S
C3088 H3079 0.930 . S
C3088 C3086 1.378 1_545 S
C3088 C3089 1.367 1_545 S
C3089 C3088 1.367 1_565 S
C3089 C3091 1.433 . S
C3090 C3086 1.350 . S
C3090 C3087 1.463 . S
C3090 N3094 1.427 . S
C3091 H3081 0.929 . S
C3091 C3089 1.433 . S
C3091 N3094 1.384 . S
C3092 H3083 0.929 . S
C3092 C3084 1.378 . S
C3092 C3087 1.350 . S
C3093 H3080 0.929 . S
C3093 C3085 1.433 . S
C3093 N3095 1.384 . S
N3094 C3090 1.427 . S
N3094 C3091 1.384 . S
N3095 C3087 1.427 . S
N3095 C3093 1.384 . S
H3096 C3102 0.930 . S
H3097 C3106 0.930 . S
H3098 C3111 0.929 . S
H3099 C3109 0.929 . S
H3100 C3104 0.929 . S
H3101 C3110 0.935 1_655 S
C3102 H3096 0.930 . S
C3102 C3103 1.367 1_655 S
C3102 C3110 1.378 1_655 S
C3103 C3102 1.367 1_455 S
C3103 C3111 1.433 . S
C3104 H3100 0.929 . S
C3104 C3106 1.378 . S
C3104 C3108 1.350 . S
C3105 C3108 1.463 . S
C3105 C3110 1.350 . S
C3105 N3113 1.427 . S
C3106 H3097 0.930 . S
C3106 C3104 1.378 . S
C3106 C3107 1.367 . S
C3107 C3106 1.367 . S
C3107 C3109 1.433 . S
C3108 C3104 1.350 . S
C3108 C3105 1.463 . S
C3108 N3112 1.427 . S
C3109 H3099 0.929 . S
C3109 C3107 1.433 . S
C3109 N3112 1.384 . S
C3110 H3101 0.935 1_455 S
C3110 C3102 1.378 1_455 S
C3110 C3105 1.350 . S
C3111 H3098 0.929 . S
C3111 C3103 1.433 . S
C3111 N3113 1.384 . S
N3112 C3108 1.427 . S
N3112 C3109 1.384 . S
N3113 C3105 1.427 . S
N3113 C3111 1.384 . S
H3114 C3120 0.930 . S
H3115 C3124 0.930 . S
H3116 C3129 0.929 . S
H3117 C3127 0.929 . S
H3118 C3122 0.929 . S
H3119 C3128 0.929 . S
C3120 H3114 0.930 . S
C3120 C3121 1.367 . S
C3120 C3128 1.378 . S
C3121 C3120 1.367 . S
C3121 C3129 1.433 . S
C3122 H3118 0.929 . S
C3122 C3124 1.378 . S
C3122 C3126 1.350 . S
C3123 C3126 1.463 . S
C3123 C3128 1.350 . S
C3123 N3131 1.427 . S
C3124 H3115 0.930 . S
C3124 C3122 1.378 . S
C3124 C3125 1.367 . S
C3125 C3124 1.367 . S
C3125 C3127 1.433 . S
C3126 C3122 1.350 . S
C3126 C3123 1.463 . S
C3126 N3130 1.427 . S
C3127 H3117 0.929 . S
C3127 C3125 1.433 . S
C3127 N3130 1.384 . S
C3128 H3119 0.929 . S
C3128 C3120 1.378 . S
C3128 C3123 1.350 . S
C3129 H3116 0.929 . S
C3129 C3121 1.433 . S
C3129 N3131 1.384 . S
N3130 C3126 1.427 . S
N3130 C3127 1.384 . S
N3131 C3123 1.427 . S
N3131 C3129 1.384 . S
H3132 C3138 0.930 . S
H3133 C3142 0.930 . S
H3134 C3147 0.921 1_565 S
H3135 C3145 0.929 . S
H3136 C3140 0.929 . S
H3137 C3146 0.929 . S
C3138 H3132 0.930 . S
C3138 C3139 1.367 . S
C3138 C3146 1.378 . S
C3139 C3138 1.367 . S
C3139 C3147 1.431 . S
C3140 H3136 0.929 . S
C3140 C3142 1.378 . S
C3140 C3144 1.350 . S
C3141 C3144 1.463 . S
C3141 C3146 1.350 . S
C3141 N3149 1.427 . S
C3142 H3133 0.930 . S
C3142 C3140 1.378 . S
C3142 C3143 1.367 . S
C3143 C3142 1.367 . S
C3143 C3145 1.433 . S
C3144 C3140 1.350 . S
C3144 C3141 1.463 . S
C3144 N3148 1.427 . S
C3145 H3135 0.929 . S
C3145 C3143 1.433 . S
C3145 N3148 1.384 . S
C3146 H3137 0.929 . S
C3146 C3138 1.378 . S
C3146 C3141 1.350 . S
C3147 H3134 0.921 1_545 S
C3147 C3139 1.431 . S
C3147 N3149 1.394 . S
N3148 C3144 1.427 . S
N3148 C3145 1.384 . S
N3149 C3141 1.427 . S
N3149 C3147 1.394 . S
H3150 C3156 0.930 . S
H3151 C3160 0.930 . S
H3152 C3165 0.929 1_455 S
H3153 C3163 0.929 . S
H3154 C3158 0.929 . S
H3155 C3164 0.929 . S
C3156 H3150 0.930 . S
C3156 C3157 1.367 . S
C3156 C3164 1.378 . S
C3157 C3156 1.367 . S
C3157 C3165 1.433 . S
C3158 H3154 0.929 . S
C3158 C3160 1.378 . S
C3158 C3162 1.350 . S
C3159 C3162 1.463 . S
C3159 C3164 1.350 . S
C3159 N3167 1.427 . S
C3160 H3151 0.930 . S
C3160 C3158 1.378 . S
C3160 C3161 1.367 . S
C3161 C3160 1.367 . S
C3161 C3163 1.433 . S
C3162 C3158 1.350 . S
C3162 C3159 1.463 . S
C3162 N3166 1.427 . S
C3163 H3153 0.929 . S
C3163 C3161 1.433 . S
C3163 N3166 1.384 . S
C3164 H3155 0.929 . S
C3164 C3156 1.378 . S
C3164 C3159 1.350 . S
C3165 H3152 0.929 1_655 S
C3165 C3157 1.433 . S
C3165 N3167 1.384 . S
N3166 C3162 1.427 . S
N3166 C3163 1.384 . S
N3167 C3159 1.427 . S
N3167 C3165 1.384 . S
H3168 C3174 0.930 . S
H3169 C3178 0.930 . S
H3170 C3183 0.929 . S
H3171 C3181 0.929 . S
H3172 C3176 0.929 . S
H3173 C3182 0.929 . S
C3174 H3168 0.930 . S
C3174 C3175 1.367 . S
C3174 C3182 1.378 . S
C3175 C3174 1.367 . S
C3175 C3183 1.433 . S
C3176 H3172 0.929 . S
C3176 C3178 1.378 . S
C3176 C3180 1.350 . S
C3177 C3180 1.463 . S
C3177 C3182 1.350 . S
C3177 N3185 1.427 . S
C3178 H3169 0.930 . S
C3178 C3176 1.378 . S
C3178 C3179 1.367 . S
C3179 C3178 1.367 . S
C3179 C3181 1.433 . S
C3180 C3176 1.350 . S
C3180 C3177 1.463 . S
C3180 N3184 1.427 . S
C3181 H3171 0.929 . S
C3181 C3179 1.433 . S
C3181 N3184 1.384 . S
C3182 H3173 0.929 . S
C3182 C3174 1.378 . S
C3182 C3177 1.350 . S
C3183 H3170 0.929 . S
C3183 C3175 1.433 . S
C3183 N3185 1.384 . S
N3184 C3180 1.427 . S
N3184 C3181 1.384 . S
N3185 C3177 1.427 . S
N3185 C3183 1.384 . S
H3186 C3192 0.930 . S
H3187 C3196 0.930 . S
H3188 C3201 0.929 . S
H3189 C3199 0.929 . S
H3190 C3194 0.929 . S
H3191 C3200 0.929 . S
C3192 H3186 0.930 . S
C3192 C3193 1.367 . S
C3192 C3200 1.378 . S
C3193 C3192 1.367 . S
C3193 C3201 1.433 1_545 S
C3194 H3190 0.929 . S
C3194 C3196 1.378 . S
C3194 C3198 1.350 . S
C3195 C3198 1.463 . S
C3195 C3200 1.350 . S
C3195 N3203 1.427 . S
C3196 H3187 0.930 . S
C3196 C3194 1.378 . S
C3196 C3197 1.367 . S
C3197 C3196 1.367 . S
C3197 C3199 1.433 . S
C3198 C3194 1.350 . S
C3198 C3195 1.463 . S
C3198 N3202 1.427 . S
C3199 H3189 0.929 . S
C3199 C3197 1.433 . S
C3199 N3202 1.384 . S
C3200 H3191 0.929 . S
C3200 C3192 1.378 . S
C3200 C3195 1.350 . S
C3201 H3188 0.929 . S
C3201 C3193 1.433 1_565 S
C3201 N3203 1.384 1_565 S
N3202 C3198 1.427 . S
N3202 C3199 1.384 . S
N3203 C3195 1.427 . S
N3203 C3201 1.384 1_545 S
H3204 C3210 0.930 . S
H3205 C3214 0.930 . S
H3206 C3219 0.929 . S
H3207 C3217 0.929 . S
H3208 C3212 0.929 . S
H3209 C3218 0.929 . S
C3210 H3204 0.930 . S
C3210 C3211 1.367 . S
C3210 C3218 1.378 . S
C3211 C3210 1.367 . S
C3211 C3219 1.433 . S
C3212 H3208 0.929 . S
C3212 C3214 1.378 1_655 S
C3212 C3216 1.350 . S
C3213 C3216 1.463 . S
C3213 C3218 1.350 . S
C3213 N3221 1.427 . S
C3214 H3205 0.930 . S
C3214 C3212 1.378 1_455 S
C3214 C3215 1.367 1_455 S
C3215 C3214 1.367 1_655 S
C3215 C3217 1.433 . S
C3216 C3212 1.350 . S
C3216 C3213 1.463 . S
C3216 N3220 1.427 . S
C3217 H3207 0.929 . S
C3217 C3215 1.433 . S
C3217 N3220 1.384 . S
C3218 H3209 0.929 . S
C3218 C3210 1.378 . S
C3218 C3213 1.350 . S
C3219 H3206 0.929 . S
C3219 C3211 1.433 . S
C3219 N3221 1.384 . S
N3220 C3216 1.427 . S
N3220 C3217 1.384 . S
N3221 C3213 1.427 . S
N3221 C3219 1.384 . S
H3222 C3228 0.930 . S
H3223 C3232 0.930 . S
H3224 C3237 0.929 . S
H3225 C3235 0.929 . S
H3226 C3230 0.929 . S
H3227 C3236 0.929 . S
C3228 H3222 0.930 . S
C3228 C3229 1.367 . S
C3228 C3236 1.378 . S
C3229 C3228 1.367 . S
C3229 C3237 1.433 . S
C3230 H3226 0.929 . S
C3230 C3232 1.378 . S
C3230 C3234 1.350 . S
C3231 C3234 1.463 . S
C3231 C3236 1.350 . S
C3231 N3239 1.427 . S
C3232 H3223 0.930 . S
C3232 C3230 1.378 . S
C3232 C3233 1.367 . S
C3233 C3232 1.367 . S
C3233 C3235 1.433 . S
C3234 C3230 1.350 . S
C3234 C3231 1.463 . S
C3234 N3238 1.427 . S
C3235 H3225 0.929 . S
C3235 C3233 1.433 . S
C3235 N3238 1.384 . S
C3236 H3227 0.929 . S
C3236 C3228 1.378 . S
C3236 C3231 1.350 . S
C3237 H3224 0.929 . S
C3237 C3229 1.433 . S
C3237 N3239 1.384 . S
N3238 C3234 1.427 . S
N3238 C3235 1.384 . S
N3239 C3231 1.427 . S
N3239 C3237 1.384 . S
H3240 C3246 0.930 . S
H3241 C3250 0.930 . S
H3242 C3255 0.929 . S
H3243 C3253 0.929 . S
H3244 C3248 0.929 . S
H3245 C3254 0.929 . S
C3246 H3240 0.930 . S
C3246 C3247 1.367 . S
C3246 C3254 1.378 . S
C3247 C3246 1.367 . S
C3247 C3255 1.433 . S
C3248 H3244 0.929 . S
C3248 C3250 1.378 . S
C3248 C3252 1.350 . S
C3249 C3252 1.463 . S
C3249 C3254 1.350 . S
C3249 N3257 1.427 . S
C3250 H3241 0.930 . S
C3250 C3248 1.378 . S
C3250 C3251 1.367 . S
C3251 C3250 1.367 . S
C3251 C3253 1.433 1_565 S
C3252 C3248 1.350 . S
C3252 C3249 1.463 . S
C3252 N3256 1.427 . S
C3253 H3243 0.929 . S
C3253 C3251 1.433 1_545 S
C3253 N3256 1.384 1_545 S
C3254 H3245 0.929 . S
C3254 C3246 1.378 . S
C3254 C3249 1.350 . S
C3255 H3242 0.929 . S
C3255 C3247 1.433 . S
C3255 N3257 1.384 . S
N3256 C3252 1.427 . S
N3256 C3253 1.384 1_565 S
N3257 C3249 1.427 . S
N3257 C3255 1.384 . S
H3258 C3264 0.930 . S
H3259 C3268 0.930 . S
H3260 C3273 0.929 . S
H3261 C3271 0.929 . S
H3262 C3266 0.929 . S
H3263 C3272 0.929 . S
C3264 H3258 0.930 . S
C3264 C3265 1.367 . S
C3264 C3272 1.378 . S
C3265 C3264 1.367 . S
C3265 C3273 1.433 . S
C3266 H3262 0.929 . S
C3266 C3268 1.378 . S
C3266 C3270 1.350 . S
C3267 C3270 1.463 . S
C3267 C3272 1.350 . S
C3267 N3275 1.427 . S
C3268 H3259 0.930 . S
C3268 C3266 1.378 . S
C3268 C3269 1.367 . S
C3269 C3268 1.367 . S
C3269 C3271 1.433 1_455 S
C3270 C3266 1.350 . S
C3270 C3267 1.463 . S
C3270 N3274 1.427 . S
C3271 H3261 0.929 . S
C3271 C3269 1.433 1_655 S
C3271 N3274 1.384 1_655 S
C3272 H3263 0.929 . S
C3272 C3264 1.378 . S
C3272 C3267 1.350 . S
C3273 H3260 0.929 . S
C3273 C3265 1.433 . S
C3273 N3275 1.384 . S
N3274 C3270 1.427 . S
N3274 C3271 1.384 1_455 S
N3275 C3267 1.427 . S
N3275 C3273 1.384 . S
H3276 C3282 0.930 . S
H3277 C3286 0.930 . S
H3278 C3291 0.929 . S
H3279 C3289 0.929 . S
H3280 C3284 0.929 . S
H3281 C3290 0.929 . S
C3282 H3276 0.930 . S
C3282 C3283 1.367 . S
C3282 C3290 1.378 . S
C3283 C3282 1.367 . S
C3283 C3291 1.433 . S
C3284 H3280 0.929 . S
C3284 C3286 1.378 . S
C3284 C3288 1.350 . S
C3285 C3288 1.463 1_655 S
C3285 C3290 1.350 . S
C3285 N3293 1.427 . S
C3286 H3277 0.930 . S
C3286 C3284 1.378 . S
C3286 C3287 1.367 . S
C3287 C3286 1.367 . S
C3287 C3289 1.433 . S
C3288 C3284 1.350 . S
C3288 C3285 1.463 1_455 S
C3288 N3292 1.427 . S
C3289 H3279 0.929 . S
C3289 C3287 1.433 . S
C3289 N3292 1.384 . S
C3290 H3281 0.929 . S
C3290 C3282 1.378 . S
C3290 C3285 1.350 . S
C3291 H3278 0.929 . S
C3291 C3283 1.433 . S
C3291 N3293 1.384 . S
N3292 C3288 1.427 . S
N3292 C3289 1.384 . S
N3293 C3285 1.427 . S
N3293 C3291 1.384 . S
H3294 C3300 0.930 . S
H3295 C3304 0.930 . S
H3296 C3309 0.929 . S
H3297 C3307 0.929 . S
H3298 C3302 0.929 . S
H3299 C3308 0.929 . S
C3300 H3294 0.930 . S
C3300 C3301 1.367 . S
C3300 C3308 1.378 . S
C3301 C3300 1.367 . S
C3301 C3309 1.433 . S
C3302 H3298 0.929 . S
C3302 C3304 1.378 . S
C3302 C3306 1.350 . S
C3303 C3306 1.463 . S
C3303 C3308 1.350 . S
C3303 N3311 1.427 . S
C3304 H3295 0.930 . S
C3304 C3302 1.378 . S
C3304 C3305 1.367 . S
C3305 C3304 1.367 . S
C3305 C3307 1.433 . S
C3306 C3302 1.350 . S
C3306 C3303 1.463 . S
C3306 N3310 1.427 . S
C3307 H3297 0.929 . S
C3307 C3305 1.433 . S
C3307 N3310 1.384 . S
C3308 H3299 0.929 . S
C3308 C3300 1.378 . S
C3308 C3303 1.350 . S
C3309 H3296 0.929 . S
C3309 C3301 1.433 . S
C3309 N3311 1.384 . S
N3310 C3306 1.427 . S
N3310 C3307 1.384 . S
N3311 C3303 1.427 . S
N3311 C3309 1.384 . S
H3312 C3318 0.930 . S
H3313 C3322 0.930 . S
H3314 C3327 0.929 . S
H3315 C3325 0.929 . S
H3316 C3320 0.929 . S
H3317 C3326 0.929 . S
C3318 H3312 0.930 . S
C3318 C3319 1.367 . S
C3318 C3326 1.378 . S
C3319 C3318 1.367 . S
C3319 C3327 1.433 . S
C3320 H3316 0.929 . S
C3320 C3322 1.378 . S
C3320 C3324 1.350 . S
C3321 C3324 1.463 1_545 S
C3321 C3326 1.350 . S
C3321 N3329 1.427 . S
C3322 H3313 0.930 . S
C3322 C3320 1.378 . S
C3322 C3323 1.367 . S
C3323 C3322 1.367 . S
C3323 C3325 1.433 . S
C3324 C3320 1.350 . S
C3324 C3321 1.463 1_565 S
C3324 N3328 1.427 . S
C3325 H3315 0.929 . S
C3325 C3323 1.433 . S
C3325 N3328 1.384 . S
C3326 H3317 0.929 . S
C3326 C3318 1.378 . S
C3326 C3321 1.350 . S
C3327 H3314 0.929 . S
C3327 C3319 1.433 . S
C3327 N3329 1.384 . S
N3328 C3324 1.427 . S
N3328 C3325 1.384 . S
N3329 C3321 1.427 . S
N3329 C3327 1.384 . S
H3330 C3336 0.930 . S
H3331 C3340 0.930 . S
H3332 C3345 0.929 . S
H3333 C3343 0.929 . S
H3334 C3338 0.929 . S
H3335 C3344 0.929 . S
C3336 H3330 0.930 . S
C3336 C3337 1.367 . S
C3336 C3344 1.378 . S
C3337 C3336 1.367 . S
C3337 C3345 1.433 . S
C3338 H3334 0.929 . S
C3338 C3340 1.378 . S
C3338 C3342 1.350 . S
C3339 C3342 1.463 1_545 S
C3339 C3344 1.350 . S
C3339 N3347 1.427 . S
C3340 H3331 0.930 . S
C3340 C3338 1.378 . S
C3340 C3341 1.367 . S
C3341 C3340 1.367 . S
C3341 C3343 1.433 . S
C3342 C3338 1.350 . S
C3342 C3339 1.463 1_565 S
C3342 N3346 1.427 . S
C3343 H3333 0.929 . S
C3343 C3341 1.433 . S
C3343 N3346 1.384 . S
C3344 H3335 0.929 . S
C3344 C3336 1.378 . S
C3344 C3339 1.350 . S
C3345 H3332 0.929 . S
C3345 C3337 1.433 . S
C3345 N3347 1.384 . S
N3346 C3342 1.427 . S
N3346 C3343 1.384 . S
N3347 C3339 1.427 . S
N3347 C3345 1.384 . S
H3348 C3354 0.930 . S
H3349 C3358 0.930 . S
H3350 C3363 0.929 . S
H3351 C3361 0.929 . S
H3352 C3356 0.929 . S
H3353 C3362 0.929 . S
C3354 H3348 0.930 . S
C3354 C3355 1.367 . S
C3354 C3362 1.378 . S
C3355 C3354 1.367 . S
C3355 C3363 1.433 . S
C3356 H3352 0.929 . S
C3356 C3358 1.378 . S
C3356 C3360 1.350 . S
C3357 C3360 1.463 1_655 S
C3357 C3362 1.350 . S
C3357 N3365 1.427 . S
C3358 H3349 0.930 . S
C3358 C3356 1.378 . S
C3358 C3359 1.367 . S
C3359 C3358 1.367 . S
C3359 C3361 1.433 . S
C3360 C3356 1.350 . S
C3360 C3357 1.463 1_455 S
C3360 N3364 1.427 . S
C3361 H3351 0.929 . S
C3361 C3359 1.433 . S
C3361 N3364 1.384 . S
C3362 H3353 0.929 . S
C3362 C3354 1.378 . S
C3362 C3357 1.350 . S
C3363 H3350 0.929 . S
C3363 C3355 1.433 . S
C3363 N3365 1.384 . S
N3364 C3360 1.427 . S
N3364 C3361 1.384 . S
N3365 C3357 1.427 . S
N3365 C3363 1.384 . S
H3366 C3372 0.930 . S
H3367 C3376 0.930 . S
H3368 C3381 0.929 . S
H3369 C3379 0.929 . S
H3370 C3374 0.929 . S
H3371 C3380 0.929 . S
C3372 H3366 0.930 . S
C3372 C3373 1.367 . S
C3372 C3380 1.378 . S
C3373 C3372 1.367 . S
C3373 C3381 1.433 . S
C3374 H3370 0.929 . S
C3374 C3376 1.378 . S
C3374 C3378 1.350 . S
C3375 C3378 1.463 . S
C3375 C3380 1.350 . S
C3375 N3383 1.427 . S
C3376 H3367 0.930 . S
C3376 C3374 1.378 . S
C3376 C3377 1.367 . S
C3377 C3376 1.367 . S
C3377 C3379 1.433 . S
C3378 C3374 1.350 . S
C3378 C3375 1.463 . S
C3378 N3382 1.427 . S
C3379 H3369 0.929 . S
C3379 C3377 1.433 . S
C3379 N3382 1.384 . S
C3380 H3371 0.929 . S
C3380 C3372 1.378 . S
C3380 C3375 1.350 . S
C3381 H3368 0.929 . S
C3381 C3373 1.433 . S
C3381 N3383 1.384 . S
N3382 C3378 1.427 . S
N3382 C3379 1.384 . S
N3383 C3375 1.427 . S
N3383 C3381 1.384 . S
C1447 C8 1.955 . S
C1451 C311 1.979 . S
C1465 C351 1.978 . S
C1469 C48 1.962 . S
C1483 C271 1.981 . S
C1487 C88 1.958 . S
C1501 C471 1.979 . S
C1505 C128 1.955 . S
C1519 C168 1.957 . S
C1523 C391 1.978 . S
C1537 C208 1.953 . S
C1541 C431 1.982 . S
C1555 C52 1.981 . S
C1559 C269 1.959 . S
C1573 C309 1.962 . S
C1577 C92 1.979 . S
C1591 C12 1.982 . S
C1595 C349 1.953 . S
C1609 C212 1.980 . S
C1613 C389 1.960 . S
C1627 C429 1.955 . S
C1631 C132 1.979 . S
C1645 C469 1.955 . S
C1649 C172 1.979 . S
C1663 C488 1.958 . S
C1667 C791 1.981 . S
C1681 C831 1.978 . S
C1685 C528 1.958 . S
C1699 C751 1.982 . S
C1703 C568 1.954 . S
C1717 C608 1.953 . S
C1721 C951 1.981 . S
C1735 C871 1.982 . S
C1739 C648 1.957 . S
C1753 C688 1.956 . S
C1757 C911 1.982 . S
C1771 C749 1.959 . S
C1775 C532 1.977 . S
C1789 C572 1.980 . S
C1793 C789 1.954 . S
C1807 C829 1.958 . S
C1811 C492 1.977 . S
C1825 C692 1.980 . S
C1829 C869 1.960 . S
C1843 C612 1.980 . S
C1847 C909 1.960 . S
C1861 C949 1.961 . S
C1865 C652 1.979 . S
C1879 C968 1.953 . S
C1883 C1271 1.981 . S
C1897 C1008 1.956 . S
C1901 C1311 1.982 . S
C1915 C1231 1.977 . S
C1919 C1048 1.961 . S
C1933 C1431 1.981 . S
C1937 C1088 1.959 . S
C1951 C1128 1.961 . S
C1955 C1351 1.979 . S
C1969 C1391 1.978 . S
C1973 C1168 1.962 . S
C1987 C1012 1.982 . S
C1991 C1229 1.954 . S
C2005 C1269 1.959 . S
C2009 C1052 1.977 . S
C2023 C972 1.978 . S
C2027 C1309 1.957 . S
C2041 C1349 1.961 . S
C2045 C1172 1.977 . S
C2059 C1389 1.960 . S
C2063 C1092 1.977 . S
C2077 C1429 1.962 . S
C2081 C1132 1.978 . S
C2095 C31 2.170 . S
C2099 C732 2.170 . S
C2113 C71 2.170 . S
C2117 C772 2.170 . S
C2131 C812 2.169 . S
C2135 C111 2.169 . S
C2149 C1332 2.165 . S
C2153 C151 2.165 . S
C2167 C1372 2.164 . S
C2171 C191 2.164 . S
C2185 C1412 2.168 . S
C2189 C231 2.168 . S
C2203 C252 2.160 . S
C2207 C991 2.160 . S
C2221 C1031 2.161 . S
C2225 C292 2.161 . S
C2239 C332 2.165 . S
C2243 C1071 2.165 . S
C2257 C372 2.166 . S
C2261 C631 2.166 . S
C2275 C412 2.165 . S
C2279 C671 2.165 . S
C2293 C452 2.168 . S
C2297 C711 2.168 . S
C2311 C511 2.161 . S
C2315 C1212 2.161 . S
C2329 C1252 2.161 . S
C2333 C551 2.161 . S
C2347 C591 2.162 . S
C2351 C1292 2.162 . S
C2365 C1111 2.170 . S
C2369 C852 2.170 . S
C2383 C892 2.166 . S
C2387 C1151 2.166 . S
C2401 C1191 2.164 . S
C2405 C932 2.164 . S
C2419 C2 2.304 1_556 S
C2423 C642 2.299 . S
C2437 C42 2.290 1_556 S
C2441 C682 2.298 . S
C2455 C602 2.293 . S
C2459 C82 2.289 1_556 S
C2473 C122 2.298 . S
C2477 C1042 2.304 . S
C2491 C962 2.289 . S
C2495 C162 2.296 . S
C2509 C202 2.303 . S
C2513 C1002 2.298 . S
C2527 C1377 2.292 . S
C2531 C257 2.289 1_554 S
C2545 C297 2.290 1_554 S
C2549 C1417 2.299 . S
C2563 C1337 2.289 . S
C2567 C337 2.292 1_554 S
C2581 C377 2.289 . S
C2585 C817 2.292 . S
C2599 C417 2.293 . S
C2603 C737 2.302 . S
C2617 C457 2.291 . S
C2621 C777 2.289 . S
C2635 C1122 2.294 . S
C2639 C482 2.289 . S
C2653 C522 2.302 . S
C2657 C1162 2.295 . S
C2671 C562 2.295 . S
C2675 C1082 2.289 . S
C2689 C1297 2.290 . S
C2693 C857 2.298 . S
C2707 C1217 2.301 . S
C2711 C897 2.303 . S
C2725 C1257 2.301 . S
C2729 C937 2.292 . S
C2743 C137 2.787 . S
C2747 C17 2.786 . S
C2761 C57 2.788 . S
C2765 C177 2.786 . S
C2779 C97 2.788 . S
C2783 C217 2.787 . S
C2797 C362 2.780 . S
C2801 C242 2.780 . S
C2815 C282 2.787 . S
C2819 C402 2.785 . S
C2833 C442 2.784 . S
C2837 C322 2.786 . S
C2851 C617 2.786 . S
C2855 C497 2.787 . S
C2869 C537 2.788 . S
C2873 C657 2.787 . S
C2887 C577 2.784 . S
C2891 C697 2.786 . S
C2905 C722 2.783 . S
C2909 C842 2.784 1_554 S
C2923 C762 2.786 . S
C2927 C882 2.787 1_554 S
C2941 C802 2.784 . S
C2945 C922 2.786 1_554 S
C2959 C977 2.780 . S
C2963 C1097 2.781 1_556 S
C2977 C1137 2.788 1_556 S
C2981 C1017 2.787 . S
C2995 C1177 2.786 1_556 S
C2999 C1057 2.787 . S
C3013 C1202 2.787 . S
C3017 C1322 2.786 . S
C3031 C1362 2.783 . S
C3035 C1242 2.785 . S
C3049 C1282 2.788 . S
C3053 C1402 2.787 . S
C3067 C29 0.380 . S
C3071 C1189 0.338 . S
C3085 C1109 0.381 . S
C3089 C69 0.411 . S
C3103 C109 0.381 . S
C3107 C1149 0.393 . S
C3121 C549 0.378 . S
C3125 C149 0.379 . S
C3139 C189 0.413 . S
C3143 C589 0.340 . S
C3157 C229 0.447 . S
C3161 C509 0.341 . S
C3175 C928 0.380 . S
C3179 C248 0.376 . S
C3193 C288 0.465 . S
C3197 C848 0.344 . S
C3211 C888 0.379 . S
C3215 C328 0.376 . S
C3229 C368 0.353 . S
C3233 C1248 0.393 . S
C3247 C1288 0.338 . S
C3251 C408 0.420 . S
C3265 C1208 0.338 . S
C3269 C448 0.457 . S
C3283 C629 0.356 . S
C3287 C1029 0.354 . S
C3301 C669 0.386 . S
C3305 C1069 0.369 . S
C3319 C709 0.343 . S
C3323 C989 0.370 . S
C3337 C728 0.391 . S
C3341 C1408 0.359 . S
C3355 C768 0.338 . S
C3359 C1328 0.382 . S
C3373 C1368 0.382 . S
C3377 C808 0.375 . S
