# Generated by pormake.
# Topology rac, (4)-cn, num edge types: 1
# Building blocks:
#     Node 0, Type 0, BuildingBlock: KUFVIS_clean_sbu_0, # of connection points: 4
#     Node 1, Type 0, BuildingBlock: KUFVIS_clean_sbu_0, # of connection points: 4
#     Node 2, Type 0, BuildingBlock: KUFVIS_clean_sbu_0, # of connection points: 4
#     Node 3, Type 0, BuildingBlock: KUFVIS_clean_sbu_0, # of connection points: 4
#     Node 4, Type 0, BuildingBlock: KUFVIS_clean_sbu_0, # of connection points: 4
#     Node 5, Type 0, BuildingBlock: KUFVIS_clean_sbu_0, # of connection points: 4
#     Node 6, Type 0, BuildingBlock: KUFVIS_clean_sbu_0, # of connection points: 4
#     Node 7, Type 0, BuildingBlock: KUFVIS_clean_sbu_0, # of connection points: 4
#     Edge 8, Type (0, 0), BuildingBlock: OJICUG_clean_linker_0, # of connection points: 2
#     Edge 9, Type (0, 0), BuildingBlock: OJICUG_clean_linker_0, # of connection points: 2
#     Edge 10, Type (0, 0), BuildingBlock: OJICUG_clean_linker_0, # of connection points: 2
#     Edge 11, Type (0, 0), BuildingBlock: OJICUG_clean_linker_0, # of connection points: 2
#     Edge 12, Type (0, 0), BuildingBlock: OJICUG_clean_linker_0, # of connection points: 2
#     Edge 13, Type (0, 0), BuildingBlock: OJICUG_clean_linker_0, # of connection points: 2
#     Edge 14, Type (0, 0), BuildingBlock: OJICUG_clean_linker_0, # of connection points: 2
#     Edge 15, Type (0, 0), BuildingBlock: OJICUG_clean_linker_0, # of connection points: 2
#     Edge 16, Type (0, 0), BuildingBlock: OJICUG_clean_linker_0, # of connection points: 2
#     Edge 17, Type (0, 0), BuildingBlock: OJICUG_clean_linker_0, # of connection points: 2
#     Edge 18, Type (0, 0), BuildingBlock: OJICUG_clean_linker_0, # of connection points: 2
#     Edge 19, Type (0, 0), BuildingBlock: OJICUG_clean_linker_0, # of connection points: 2
#     Edge 20, Type (0, 0), BuildingBlock: OJICUG_clean_linker_0, # of connection points: 2
#     Edge 21, Type (0, 0), BuildingBlock: OJICUG_clean_linker_0, # of connection points: 2
#     Edge 22, Type (0, 0), BuildingBlock: OJICUG_clean_linker_0, # of connection points: 2
#     Edge 23, Type (0, 0), BuildingBlock: OJICUG_clean_linker_0, # of connection points: 2
# Relax obj value: 0.197
# Max RMSD: 0.074
# Mean RMSD: 0.074
data_MOF--net-rac--node1-KUFVIS_clean_sbu_0--edge1-OJICUG_clean_linker_0
_symmetry_space_group_name_H-M    P1
_symmetry_Int_Tables_number       1
_symmetry_cell_setting            triclinic
loop_
_symmetry_equiv_pos_as_xyz
'x, y, z'
_cell_length_a     28.615062
_cell_length_b     16.55071
_cell_length_c     26.330919
_cell_angle_alpha  89.997506
_cell_angle_beta   90.004085
_cell_angle_gamma 90.002033
loop_
_atom_site_label
_atom_site_type_symbol
_atom_site_fract_x
_atom_site_fract_y
_atom_site_fract_z
_atom_type_partial_charge
Mn0 Mn 0.40176 0.27298 0.0548 0.0
Mn1 Mn 0.30834 0.2279 0.1302 0.0
C2 C 0.33221 0.33736 0.04384 0.0
C3 C 0.46583 0.36244 0.03828 0.0
C4 C 0.33788 0.12395 0.04115 0.0
O5 O 0.43305 0.22384 0.11638 0.0
O6 O 0.36877 0.19636 0.16377 0.0
C7 C 0.31819 0.31426 0.22802 0.0
N8 N 0.29457 0.30307 0.1837 0.0
C9 C 0.22724 0.37276 0.21746 0.0
C10 C 0.25108 0.38441 0.26318 0.0
C11 C 0.29681 0.35535 0.26839 0.0
C12 C 0.24968 0.3285 0.17923 0.0
H13 H 0.3521 0.28851 0.23363 0.0
C14 C 0.41338 0.20272 0.1578 0.0
O15 O 0.46295 0.29181 0.01668 0.0
O16 O 0.43336 0.37848 0.07058 0.0
N17 N 0.24975 0.2617 0.10175 0.0
C18 C 0.23158 0.24606 0.05499 0.0
C19 C 0.18704 0.27534 0.04229 0.0
C20 C 0.16166 0.32097 0.07776 0.0
C21 C 0.18161 0.33847 0.12511 0.0
C22 C 0.22644 0.30844 0.13525 0.0
H23 H 0.25169 0.21389 0.02715 0.0
O24 O 0.36119 0.32944 1.0063 0.0
O25 O 0.34339 0.30342 0.08674 0.0
O26 O 0.37562 0.16104 0.02811 0.0
O27 O 0.31373 0.14425 0.07925 0.0
C28 C 0.15908 0.38555 0.16233 0.0
C29 C 0.18163 0.40169 0.20882 0.0
H30 H 0.23459 0.41545 0.29464 0.0
H31 H 0.31529 0.3642 0.30373 0.0
H32 H 0.17244 0.26316 1.00516 0.0
H33 H 0.12726 0.34338 0.06792 0.0
H34 H 0.12431 0.40915 0.15576 0.0
H35 H 0.16371 0.43683 0.23756 0.0
Mn36 Mn 0.16214 0.7034 0.06143 0.0
Mn37 Mn 0.25455 0.72344 0.14112 0.0
C38 C 0.22739 0.62718 0.04963 0.0
C39 C 0.09556 0.61942 0.04259 0.0
C40 C 0.23462 0.842 0.05569 0.0
O41 O 0.1318 0.75373 0.12363 0.0
O42 O 0.19552 0.76005 0.17448 0.0
C43 C 0.23838 0.62917 0.23469 0.0
N44 N 0.26343 0.64109 0.19139 0.0
C45 C 0.32746 0.56247 0.22483 0.0
C46 C 0.30235 0.55085 0.26981 0.0
C47 C 0.25742 0.58369 0.27456 0.0
C48 C 0.30743 0.61139 0.18731 0.0
H49 H 0.20532 0.65795 0.24005 0.0
C50 C 0.15126 0.76555 0.16664 0.0
O51 O 0.10072 0.68993 0.02137 0.0
O52 O 0.12646 0.60182 0.07593 0.0
N53 N 0.31158 0.684 0.11206 0.0
C54 C 0.33 0.69796 0.06517 0.0
C55 C 0.3733 0.66404 0.05224 0.0
C56 C 0.39672 0.61473 0.08729 0.0
C57 C 0.37585 0.59728 0.13417 0.0
C58 C 0.33234 0.63222 0.14457 0.0
H59 H 0.31099 0.73252 0.03726 0.0
O60 O 0.20003 0.64365 0.01193 0.0
O61 O 0.21724 0.65903 0.09346 0.0
O62 O 0.19623 0.81217 0.03771 0.0
O63 O 0.2543 0.81313 0.09459 0.0
C64 C 0.3959 0.54528 0.1705 0.0
C65 C 0.37208 0.52915 0.21628 0.0
H66 H 0.31721 0.51685 0.30101 0.0
H67 H 0.23784 0.57502 0.30928 0.0
H68 H 0.38839 0.67534 0.01523 0.0
H69 H 0.43012 0.5892 0.0772 0.0
H70 H 0.42965 0.51767 0.16374 0.0
H71 H 0.38813 0.49037 0.24443 0.0
Mn72 Mn 0.40061 0.20358 0.45999 0.0
Mn73 Mn 0.3082 0.22358 0.38031 0.0
C74 C 0.33537 0.12735 0.47181 0.0
C75 C 0.4672 0.11961 0.47881 0.0
C76 C 0.32815 0.3422 0.4657 0.0
O77 O 0.43095 0.25389 0.39777 0.0
O78 O 0.36723 0.26012 0.34691 0.0
C79 C 0.32431 0.12924 0.28677 0.0
N80 N 0.29928 0.14119 0.33007 0.0
C81 C 0.23523 0.06253 0.29672 0.0
C82 C 0.26031 0.05087 0.25173 0.0
C83 C 0.30524 0.08372 0.24692 0.0
C84 C 0.25528 0.11149 0.3342 0.0
H85 H 0.35736 0.15802 0.28137 0.0
C86 C 0.41148 0.26564 0.35475 0.0
O87 O 0.46205 0.19012 0.50003 0.0
O88 O 0.43629 0.102 0.44549 0.0
N89 N 0.25118 0.18419 0.40942 0.0
C90 C 0.23278 0.19818 0.45632 0.0
C91 C 0.18949 0.16426 0.46929 0.0
C92 C 0.16604 0.11491 0.43428 0.0
C93 C 0.1869 0.09742 0.38739 0.0
C94 C 0.23039 0.13237 0.37695 0.0
H95 H 0.2518 0.23277 0.4842 0.0
O96 O 0.36274 0.14383 0.5095 0.0
O97 O 0.34551 0.1592 0.42798 0.0
O98 O 0.36653 0.31235 0.48371 0.0
O99 O 0.30847 0.31332 0.4268 0.0
C100 C 0.16682 0.04539 0.3511 0.0
C101 C 0.19061 0.02921 0.30531 0.0
H102 H 0.24543 0.01686 0.22055 0.0
H103 H 0.32479 0.07503 0.2122 0.0
H104 H 0.17442 0.1756 0.5063 0.0
H105 H 0.13265 0.08938 0.4444 0.0
H106 H 0.13308 0.01778 0.35789 0.0
H107 H 0.17455 -0.00959 0.27719 0.0
Mn108 Mn 0.16099 0.77315 0.46661 0.0
Mn109 Mn 0.25441 0.72806 0.39121 0.0
C110 C 0.23055 0.83751 0.47757 0.0
C111 C 0.09693 0.86262 0.48312 0.0
C112 C 0.22487 0.62412 0.48026 0.0
O113 O 0.1297 0.72403 0.40503 0.0
O114 O 0.19397 0.6965 0.35765 0.0
C115 C 0.24457 0.81433 0.29335 0.0
N116 N 0.26818 0.80321 0.3377 0.0
C117 C 0.33551 0.8729 0.30392 0.0
C118 C 0.31168 0.88449 0.25818 0.0
C119 C 0.26596 0.85538 0.25297 0.0
C120 C 0.31307 0.82866 0.34216 0.0
H121 H 0.21068 0.78852 0.28774 0.0
C122 C 0.14937 0.70289 0.36361 0.0
O123 O 0.09981 0.792 0.50473 0.0
O124 O 0.1294 0.87866 0.45083 0.0
N125 N 0.31301 0.76187 0.41965 0.0
C126 C 0.33118 0.74623 0.4664 0.0
C127 C 0.37572 0.77552 0.47909 0.0
C128 C 0.4011 0.82116 0.44362 0.0
C129 C 0.38114 0.83866 0.39628 0.0
C130 C 0.33631 0.80862 0.38614 0.0
H131 H 0.31109 0.71404 0.49424 0.0
O132 O 0.20157 0.82959 0.51511 0.0
O133 O 0.21937 0.80358 0.43467 0.0
O134 O 0.18712 0.6612 0.4933 0.0
O135 O 0.24902 0.64442 0.44218 0.0
C136 C 0.40366 0.88574 0.35905 0.0
C137 C 0.38111 0.90185 0.31256 0.0
H138 H 0.32817 0.91553 0.22672 0.0
H139 H 0.24749 0.86418 0.21762 0.0
H140 H 0.39033 0.76334 0.51623 0.0
H141 H 0.43549 0.84358 0.45346 0.0
H142 H 0.43843 0.90935 0.36561 0.0
H143 H 0.39903 0.93699 0.28381 0.0
Mn144 Mn 0.66216 0.70336 0.95996 0.0
Mn145 Mn 0.75457 0.72338 0.88029 0.0
C146 C 0.7274 0.62711 0.97176 0.0
C147 C 0.59557 0.6194 0.97879 0.0
C148 C 0.73465 0.84194 0.96571 0.0
O149 O 0.63183 0.7537 0.89775 0.0
O150 O 0.69555 0.76001 0.84691 0.0
C151 C 0.7384 0.62913 0.78671 0.0
N152 N 0.76345 0.64103 0.83002 0.0
C153 C 0.82747 0.56237 0.79661 0.0
C154 C 0.80236 0.55077 0.75162 0.0
C155 C 0.75744 0.58364 0.74684 0.0
C156 C 0.80745 0.6113 0.83412 0.0
H157 H 0.70535 0.65793 0.78133 0.0
C158 C 0.65129 0.76552 0.85474 0.0
O159 O 0.60074 0.68991 1.00001 0.0
O160 O 0.62647 0.60179 0.94545 0.0
N161 N 0.81159 0.68391 0.90936 0.0
C162 C 0.83002 0.69786 0.95626 0.0
C163 C 0.8733 0.66391 0.9692 0.0
C164 C 0.89672 0.61457 0.93417 0.0
C165 C 0.87584 0.59714 0.88728 0.0
C166 C 0.83235 0.63211 0.87687 0.0
H167 H 0.81101 0.73245 0.98416 0.0
O168 O 0.70004 0.64359 1.00946 0.0
O169 O 0.71725 0.65897 0.92793 0.0
O170 O 0.69626 0.81212 0.98368 0.0
O171 O 0.75434 0.81306 0.92681 0.0
C172 C 0.89589 0.54512 0.85096 0.0
C173 C 0.87208 0.52901 0.80517 0.0
H174 H 0.81723 0.51677 0.72042 0.0
H175 H 0.73787 0.57499 0.71212 0.0
H176 H 0.88839 0.6752 1.00622 0.0
H177 H 0.93011 0.589 0.94427 0.0
H178 H 0.92963 0.51749 0.85773 0.0
H179 H 0.88813 0.49023 0.77703 0.0
Mn180 Mn 0.90178 0.27294 0.9666 0.0
Mn181 Mn 0.80837 0.22782 0.89118 0.0
C182 C 0.83222 0.33729 0.97754 0.0
C183 C 0.96584 0.36241 0.98311 0.0
C184 C 0.83791 0.12389 0.98024 0.0
O185 O 0.93308 0.2238 0.90503 0.0
O186 O 0.86881 0.1963 0.85763 0.0
C187 C 0.81822 0.3142 0.79336 0.0
N188 N 0.7946 0.30299 0.83768 0.0
C189 C 0.72726 0.37265 0.8039 0.0
C190 C 0.7511 0.38432 0.75818 0.0
C191 C 0.79683 0.35528 0.75298 0.0
C192 C 0.7497 0.3284 0.84213 0.0
H193 H 0.85213 0.28846 0.78776 0.0
C194 C 0.91341 0.20267 0.8636 0.0
O195 O 0.96297 0.29179 1.00473 0.0
O196 O 0.93337 0.37844 0.95081 0.0
N197 N 0.74976 0.26161 0.91961 0.0
C198 C 0.7316 0.24596 0.96637 0.0
C199 C 0.68706 0.27522 0.97905 0.0
C200 C 0.66167 0.32084 0.94358 0.0
C201 C 0.68162 0.33835 0.89623 0.0
C202 C 0.72646 0.30833 0.8861 0.0
H203 H 0.75171 0.2138 0.99422 0.0
O204 O 0.8612 0.32938 0.01508 0.0
O205 O 0.84341 0.30335 0.93465 0.0
O206 O 0.87565 0.16099 0.99329 0.0
O207 O 0.81377 0.14417 0.94214 0.0
C208 C 0.65909 0.38543 0.85901 0.0
C209 C 0.68165 0.40157 0.81252 0.0
H210 H 0.73461 0.41537 0.72671 0.0
H211 H 0.81531 0.36415 0.71765 0.0
H212 H 0.67246 0.26304 0.01619 0.0
H213 H 0.62727 0.34324 0.95341 0.0
H214 H 0.62432 0.40901 0.86557 0.0
H215 H 0.66372 0.43671 0.78378 0.0
Mn216 Mn 0.661 0.77314 0.55477 0.0
Mn217 Mn 0.75442 0.72801 0.63017 0.0
C218 C 0.73056 0.83749 0.54381 0.0
C219 C 0.59695 0.86262 0.53826 0.0
C220 C 0.72487 0.6241 0.54111 0.0
O221 O 0.62971 0.724 0.61634 0.0
O222 O 0.69399 0.69647 0.66372 0.0
C223 C 0.74461 0.81427 0.72802 0.0
N224 N 0.76821 0.80315 0.68367 0.0
C225 C 0.83554 0.87285 0.71743 0.0
C226 C 0.81173 0.88444 0.76317 0.0
C227 C 0.76601 0.85533 0.7684 0.0
C228 C 0.8131 0.82861 0.6792 0.0
H229 H 0.71072 0.78847 0.73364 0.0
C230 C 0.64938 0.70286 0.65776 0.0
O231 O 0.59981 0.792 0.51664 0.0
O232 O 0.62942 0.87865 0.57055 0.0
N233 N 0.81302 0.76181 0.60172 0.0
C234 C 0.83119 0.74612 0.55497 0.0
C235 C 0.87573 0.77541 0.54228 0.0
C236 C 0.90111 0.82108 0.57773 0.0
C237 C 0.88116 0.8386 0.62508 0.0
C238 C 0.83633 0.80857 0.63522 0.0
H239 H 0.8111 0.7139 0.52714 0.0
O240 O 0.70158 0.82958 0.50627 0.0
O241 O 0.71938 0.80355 0.58671 0.0
O242 O 0.68712 0.66119 0.52807 0.0
O243 O 0.74902 0.64438 0.5792 0.0
C244 C 0.90369 0.88569 0.6623 0.0
C245 C 0.88115 0.9018 0.70879 0.0
H246 H 0.82822 0.91548 0.79464 0.0
H247 H 0.74755 0.86412 0.80375 0.0
H248 H 0.89033 0.76321 0.50515 0.0
H249 H 0.93551 0.84349 0.5679 0.0
H250 H 0.93846 0.90929 0.65573 0.0
H251 H 0.89908 0.93694 0.73753 0.0
Mn252 Mn 0.90062 0.20357 0.56142 0.0
Mn253 Mn 0.80822 0.22356 0.64111 0.0
C254 C 0.83536 0.12736 0.5496 0.0
C255 C 0.9672 0.1196 0.54258 0.0
C256 C 0.82816 0.34221 0.55573 0.0
O257 O 0.93097 0.25386 0.62364 0.0
O258 O 0.86726 0.26006 0.67451 0.0
C259 C 0.82434 0.12916 0.73464 0.0
N260 N 0.7993 0.14115 0.69134 0.0
C261 C 0.73525 0.0625 0.72469 0.0
C262 C 0.76034 0.05081 0.76968 0.0
C263 C 0.80527 0.08364 0.77448 0.0
C264 C 0.7553 0.11147 0.68721 0.0
H265 H 0.8574 0.15793 0.74005 0.0
C266 C 0.91151 0.26559 0.66666 0.0
O267 O 0.96204 0.19011 0.52137 0.0
O268 O 0.93629 0.10198 0.57591 0.0
N269 N 0.75119 0.18421 0.612 0.0
C270 C 0.73278 0.19825 0.56511 0.0
C271 C 0.68948 0.16437 0.55214 0.0
C272 C 0.66603 0.115 0.58715 0.0
C273 C 0.6869 0.09747 0.63402 0.0
C274 C 0.73041 0.13238 0.64446 0.0
H275 H 0.7518 0.23286 0.53724 0.0
O276 O 0.86273 0.14384 0.5119 0.0
O277 O 0.84552 0.15919 0.59343 0.0
O278 O 0.86653 0.31235 0.53771 0.0
O279 O 0.8085 0.31332 0.59464 0.0
C280 C 0.66682 0.04542 0.67031 0.0
C281 C 0.69062 0.02921 0.7161 0.0
H282 H 0.74545 0.01679 0.80085 0.0
H283 H 0.82483 0.07493 0.80921 0.0
H284 H 0.6744 0.17574 0.51513 0.0
H285 H 0.63263 0.08951 0.57702 0.0
H286 H 0.63307 0.01785 0.66352 0.0
H287 H 0.67455 -0.0096 0.74422 0.0
C288 C 0.27323 0.04565 0.99992 0.0
C289 C 0.32041 0.04848 0.0169 0.0
H290 H 0.2079 -0.02053 0.99889 0.0
C291 C 0.34033 0.97655 0.03356 0.0
H292 H 0.25678 0.09956 0.98538 0.0
C293 C 0.31244 0.90838 0.04123 0.0
C294 C 0.26348 0.90824 0.03159 0.0
H295 H 0.37584 0.97608 0.04792 0.0
H296 H 0.32918 0.85858 0.06024 0.0
C297 C 0.24485 0.97654 1.00753 0.0
C298 C 0.28951 0.54581 0.52151 0.0
C299 C 0.24234 0.54864 0.50451 0.0
H300 H 0.35485 0.47965 0.52254 0.0
C301 C 0.22243 0.47672 0.48782 0.0
H302 H 0.30596 0.59971 0.53606 0.0
C303 C 0.25032 0.40857 0.48012 0.0
C304 C 0.29928 0.40843 0.4898 0.0
H305 H 0.18692 0.47625 0.47345 0.0
H306 H 0.23359 0.35878 0.46109 0.0
C307 C 0.3179 0.47671 0.51388 0.0
C308 C 0.81248 0.90832 0.98017 0.0
C309 C 0.76352 0.90818 0.98981 0.0
H310 H 0.87587 0.97599 0.97348 0.0
C311 C 0.74489 0.97647 0.01386 0.0
H312 H 0.82921 0.8585 0.96117 0.0
C313 C 0.77327 0.04559 0.02148 0.0
C314 C 0.82045 0.04842 1.0045 0.0
H315 H 0.70793 -0.0206 0.0225 0.0
H316 H 0.75681 0.09949 0.03602 0.0
C317 C 0.84036 0.97649 0.98785 0.0
C318 C 0.72244 0.47675 0.53364 0.0
C319 C 0.74233 0.54862 0.51685 0.0
H320 H 0.73361 0.35887 0.56047 0.0
C321 C 0.78949 0.54576 0.49982 0.0
H322 H 0.68694 0.47631 0.54805 0.0
C323 C 0.81788 0.47666 0.50748 0.0
C324 C 0.79928 0.40844 0.53165 0.0
H325 H 0.80592 0.59963 0.48521 0.0
H326 H 0.85482 0.47957 0.49878 0.0
C327 C 0.75033 0.40861 0.54136 0.0
C328 C 0.4457 0.15592 0.2409 0.0
C329 C 0.4398 0.21738 0.20499 0.0
H330 H 0.44642 0.12639 0.31994 0.0
C331 C 0.44353 0.2985 0.22087 0.0
H332 H 0.44273 0.09314 0.22972 0.0
C333 C 0.44196 0.31761 0.27267 0.0
C334 C 0.44014 0.2556 0.30872 0.0
H335 H 0.439 0.34708 0.19368 0.0
H336 H 0.43593 0.37964 0.28398 0.0
C337 C 0.44787 0.17542 0.29266 0.0
C338 C 0.117 0.65603 0.28055 0.0
C339 C 0.12295 0.71753 0.31643 0.0
H340 H 0.11624 0.6264 0.20153 0.0
C341 C 0.11926 0.79863 0.3005 0.0
H342 H 0.11993 0.59326 0.29177 0.0
C343 C 0.12082 0.81767 0.2487 0.0
C344 C 0.12259 0.75562 0.21268 0.0
H345 H 0.12383 0.84724 0.32767 0.0
H346 H 0.1269 0.87968 0.23734 0.0
C347 C 0.11482 0.67547 0.22878 0.0
C348 C 0.62087 0.81765 0.77267 0.0
C349 C 0.62263 0.75559 0.80869 0.0
H350 H 0.62389 0.84724 0.69373 0.0
C351 C 0.61485 0.67544 0.7926 0.0
H352 H 0.62695 0.87964 0.78404 0.0
C353 C 0.61702 0.65601 0.74082 0.0
C354 C 0.62297 0.71751 0.70494 0.0
H355 H 0.61624 0.62641 0.81987 0.0
H356 H 0.61994 0.59323 0.72962 0.0
C357 C 0.61929 0.79861 0.72087 0.0
C358 C 0.942 0.31755 0.74874 0.0
C359 C 0.94019 0.25554 0.7127 0.0
H360 H 0.93902 0.34704 0.8277 0.0
C361 C 0.94791 0.17536 0.72875 0.0
H362 H 0.93597 0.37957 0.73741 0.0
C363 C 0.94574 0.15586 0.78052 0.0
C364 C 0.93984 0.21732 0.81643 0.0
H365 H 0.94647 0.12636 0.70146 0.0
H366 H 0.94277 0.09307 0.79169 0.0
C367 C 0.94357 0.29844 0.80054 0.0
C368 C 0.52495 0.42332 0.97779 0.0
C369 C 0.50098 0.42594 0.02425 0.0
H370 H 0.57213 0.48273 0.92683 0.0
C371 C 0.50781 0.49414 0.05567 0.0
H372 H 0.52053 0.37237 0.95243 0.0
C373 C 0.53676 0.55881 0.04057 0.0
C374 C 0.56039 0.55647 0.99384 0.0
H375 H 0.49073 0.49743 0.09228 0.0
H376 H 0.54145 0.60961 0.06599 0.0
C377 C 0.55418 0.48744 0.9629 0.0
C378 C 0.05416 0.48748 0.0585 0.0
C379 C 0.06038 0.55649 0.02755 0.0
H380 H 1.02051 0.37242 0.069 0.0
C381 C 0.03677 0.55878 0.98079 0.0
H382 H 0.07208 0.48281 0.09459 0.0
C383 C 1.00783 0.49409 0.9657 0.0
C384 C 1.00099 0.42592 0.99715 0.0
H385 H 0.04148 0.60955 0.95536 0.0
H386 H 0.99076 0.49735 0.92908 0.0
C387 C 1.02494 0.42335 0.04362 0.0
C388 C 0.55498 -0.00568 0.55566 0.0
C389 C 0.5618 0.92613 0.52423 0.0
H390 H 0.52135 0.10979 0.566 0.0
C391 C 0.53781 0.92354 0.47777 0.0
H392 H 0.57208 -0.0024 0.59227 0.0
C393 C 0.50859 -0.01234 0.4629 0.0
C394 C 0.50239 0.05668 0.49385 0.0
H395 H 0.54223 0.87259 0.45241 0.0
H396 H 0.49064 -0.01703 0.42683 0.0
C397 C 0.52603 0.059 0.54058 0.0
C398 C 1.00859 -0.01236 0.55849 0.0
C399 C 1.00238 0.05667 0.52754 0.0
H400 H 0.04223 0.87258 0.56898 0.0
C401 C 1.02601 0.05899 0.48081 0.0
H402 H 0.99065 -0.01705 0.59456 0.0
C403 C 0.05496 -0.00568 0.46572 0.0
C404 C 0.06178 0.92612 0.49715 0.0
H405 H 1.02132 0.10979 0.45538 0.0
H406 H 0.07204 -0.0024 0.42911 0.0
C407 C 0.03781 0.92352 0.54361 0.0
C408 C 0.26379 0.51157 0.09124 0.0
C409 C 0.2549 0.55399 0.04669 0.0
H410 H 0.30411 0.4206 0.12528 0.0
C411 C 0.2673 0.52047 0.99962 0.0
H412 H 0.25032 0.53117 0.12733 0.0
C413 C 0.28963 0.44576 0.99805 0.0
C414 C 0.3016 0.40705 0.04363 0.0
H415 H 0.25919 0.55118 0.96437 0.0
H416 H 0.29905 0.42002 0.96164 0.0
C417 C 0.29077 0.44329 0.0899 0.0
C418 C 0.29901 0.01172 0.4302 0.0
C419 C 0.30787 0.05414 0.47475 0.0
H420 H 0.2587 0.92074 0.39614 0.0
C421 C 0.29545 0.02062 0.52182 0.0
H422 H 0.31249 0.03131 0.39411 0.0
C423 C 0.27312 0.94591 0.52338 0.0
C424 C 0.26117 0.90719 0.47779 0.0
H425 H 0.30355 0.05134 0.55706 0.0
H426 H 0.26369 0.92016 0.55979 0.0
C427 C 0.27202 0.94344 0.43152 0.0
C428 C 0.76731 0.52037 0.02178 0.0
C429 C 0.75489 0.55389 0.97471 0.0
H430 H 0.79906 0.41993 0.05975 0.0
C431 C 0.76376 0.51148 0.93016 0.0
H432 H 0.7592 0.55109 0.05702 0.0
C433 C 0.79075 0.4432 0.93149 0.0
C434 C 0.8016 0.40695 0.97776 0.0
H435 H 0.75029 0.53108 0.89406 0.0
H436 H 0.80408 0.42051 0.89611 0.0
C437 C 0.78963 0.44567 0.02334 0.0
C438 C 0.77313 0.94592 0.49801 0.0
C439 C 0.76117 0.90718 0.54359 0.0
H440 H 0.80354 0.05136 0.46434 0.0
C441 C 0.77202 0.94342 0.58987 0.0
H442 H 0.7637 0.92017 0.4616 0.0
C443 C 0.799 0.01171 0.5912 0.0
C444 C 0.80786 0.05415 0.54665 0.0
H445 H 0.7587 0.92071 0.62525 0.0
H446 H 0.81249 0.03129 0.62729 0.0
C447 C 0.79544 0.02064 0.49958 0.0
loop_
_geom_bond_atom_site_label_1
_geom_bond_atom_site_label_2
_geom_bond_distance
_geom_bond_site_symmetry_2
_ccdc_geom_bond_type
Mn0 O5 2.095 . S
Mn0 O15 2.162 1_554 S
Mn0 O16 2.297 . S
Mn0 O24 2.385 1_554 S
Mn0 O25 2.209 . S
Mn0 O26 2.094 . S
Mn1 O6 2.121 . S
Mn1 N8 2.257 . S
Mn1 N17 2.282 . S
Mn1 O25 2.215 . S
Mn1 O27 2.117 . S
C2 O24 1.234 1_554 S
C2 O25 1.283 . S
C3 O15 1.281 1_554 S
C3 O16 1.236 . S
C4 O26 1.240 . S
C4 O27 1.264 . S
O5 Mn0 2.095 . S
O5 C14 1.250 . S
O6 Mn1 2.121 . S
O6 C14 1.258 . S
C7 N8 1.326 . S
C7 C11 1.460 . S
C7 H13 0.929 . S
N8 Mn1 2.257 . S
N8 C7 1.326 . S
N8 C12 1.362 . S
C9 C10 1.258 . S
C9 C12 1.431 . S
C9 C29 1.449 . S
C10 C9 1.258 . S
C10 C11 1.477 . S
C10 H30 0.931 . S
C11 C7 1.460 . S
C11 C10 1.477 . S
C11 H31 0.930 . S
C12 N8 1.362 . S
C12 C9 1.431 . S
C12 C22 1.476 . S
H13 C7 0.929 . S
C14 O5 1.250 . S
C14 O6 1.258 . S
O15 Mn0 2.162 1_556 S
O15 C3 1.281 1_556 S
O16 Mn0 2.297 . S
O16 C3 1.236 . S
N17 Mn1 2.282 . S
N17 C18 1.328 . S
N17 C22 1.318 . S
C18 N17 1.328 . S
C18 C19 1.457 1_554 S
C18 H23 0.929 . S
C19 C18 1.457 1_556 S
C19 C20 1.291 1_556 S
C19 H32 0.931 . S
C20 C19 1.291 1_554 S
C20 C21 1.373 . S
C20 H33 0.929 1_554 S
C21 C20 1.373 . S
C21 C22 1.396 . S
C21 C28 1.403 . S
C22 C12 1.476 . S
C22 N17 1.318 . S
C22 C21 1.396 . S
H23 C18 0.929 . S
O24 Mn0 2.385 1_556 S
O24 C2 1.234 1_556 S
O25 Mn0 2.209 . S
O25 Mn1 2.215 . S
O25 C2 1.283 . S
O26 Mn0 2.094 . S
O26 C4 1.240 . S
O27 Mn1 2.117 . S
O27 C4 1.264 . S
C28 C21 1.403 . S
C28 C29 1.399 . S
C28 H34 0.929 . S
C29 C9 1.449 . S
C29 C28 1.399 . S
C29 H35 0.930 . S
H30 C10 0.931 . S
H31 C11 0.930 . S
H32 C19 0.931 . S
H33 C20 0.929 1_556 S
H34 C28 0.929 . S
H35 C29 0.930 . S
Mn36 O41 2.095 . S
Mn36 O51 2.162 1_554 S
Mn36 O52 2.297 . S
Mn36 O60 2.385 1_554 S
Mn36 O61 2.209 . S
Mn36 O62 2.094 . S
Mn37 O42 2.121 . S
Mn37 N44 2.257 . S
Mn37 N53 2.282 . S
Mn37 O61 2.215 . S
Mn37 O63 2.117 . S
C38 O60 1.234 1_554 S
C38 O61 1.283 . S
C39 O51 1.281 1_554 S
C39 O52 1.236 . S
C40 O62 1.240 . S
C40 O63 1.264 . S
O41 Mn36 2.095 . S
O41 C50 1.250 . S
O42 Mn37 2.121 . S
O42 C50 1.258 . S
C43 N44 1.326 . S
C43 C47 1.460 . S
C43 H49 0.929 . S
N44 Mn37 2.257 . S
N44 C43 1.326 . S
N44 C48 1.362 . S
C45 C46 1.258 . S
C45 C48 1.431 . S
C45 C65 1.449 . S
C46 C45 1.258 . S
C46 C47 1.477 . S
C46 H66 0.931 . S
C47 C43 1.460 . S
C47 C46 1.477 . S
C47 H67 0.930 . S
C48 N44 1.362 . S
C48 C45 1.431 . S
C48 C58 1.476 . S
H49 C43 0.929 . S
C50 O41 1.250 . S
C50 O42 1.258 . S
O51 Mn36 2.162 1_556 S
O51 C39 1.281 1_556 S
O52 Mn36 2.297 . S
O52 C39 1.236 . S
N53 Mn37 2.282 . S
N53 C54 1.328 . S
N53 C58 1.318 . S
C54 N53 1.328 . S
C54 C55 1.457 1_554 S
C54 H59 0.929 . S
C55 C54 1.457 1_556 S
C55 C56 1.291 1_556 S
C55 H68 0.931 . S
C56 C55 1.291 1_554 S
C56 C57 1.373 . S
C56 H69 0.929 1_554 S
C57 C56 1.373 . S
C57 C58 1.396 . S
C57 C64 1.403 . S
C58 C48 1.476 . S
C58 N53 1.318 . S
C58 C57 1.396 . S
H59 C54 0.929 . S
O60 Mn36 2.385 1_556 S
O60 C38 1.234 1_556 S
O61 Mn36 2.209 . S
O61 Mn37 2.215 . S
O61 C38 1.283 . S
O62 Mn36 2.094 . S
O62 C40 1.240 . S
O63 Mn37 2.117 . S
O63 C40 1.264 . S
C64 C57 1.403 . S
C64 C65 1.399 . S
C64 H70 0.929 . S
C65 C45 1.449 . S
C65 C64 1.399 . S
C65 H71 0.930 . S
H66 C46 0.931 . S
H67 C47 0.930 . S
H68 C55 0.931 . S
H69 C56 0.929 1_556 S
H70 C64 0.929 . S
H71 C65 0.930 . S
Mn72 O77 2.095 . S
Mn72 O87 2.162 . S
Mn72 O88 2.297 . S
Mn72 O96 2.385 . S
Mn72 O97 2.209 . S
Mn72 O98 2.094 . S
Mn73 O78 2.121 . S
Mn73 N80 2.257 . S
Mn73 N89 2.282 . S
Mn73 O97 2.215 . S
Mn73 O99 2.117 . S
C74 O96 1.234 . S
C74 O97 1.283 . S
C75 O87 1.281 . S
C75 O88 1.236 . S
C76 O98 1.240 . S
C76 O99 1.264 . S
O77 Mn72 2.095 . S
O77 C86 1.250 . S
O78 Mn73 2.121 . S
O78 C86 1.258 . S
C79 N80 1.326 . S
C79 C83 1.460 . S
C79 H85 0.929 . S
N80 Mn73 2.257 . S
N80 C79 1.326 . S
N80 C84 1.362 . S
C81 C82 1.258 . S
C81 C84 1.431 . S
C81 C101 1.449 . S
C82 C81 1.258 . S
C82 C83 1.477 . S
C82 H102 0.931 1_545 S
C83 C79 1.460 . S
C83 C82 1.477 . S
C83 H103 0.930 . S
C84 N80 1.362 . S
C84 C81 1.431 . S
C84 C94 1.476 . S
H85 C79 0.929 . S
C86 O77 1.250 . S
C86 O78 1.258 . S
O87 Mn72 2.162 . S
O87 C75 1.281 . S
O88 Mn72 2.297 . S
O88 C75 1.236 . S
N89 Mn73 2.282 . S
N89 C90 1.328 . S
N89 C94 1.318 . S
C90 N89 1.328 . S
C90 C91 1.457 . S
C90 H95 0.929 . S
C91 C90 1.457 . S
C91 C92 1.291 . S
C91 H104 0.931 . S
C92 C91 1.291 . S
C92 C93 1.373 . S
C92 H105 0.929 . S
C93 C92 1.373 . S
C93 C94 1.396 . S
C93 C100 1.403 . S
C94 C84 1.476 . S
C94 N89 1.318 . S
C94 C93 1.396 . S
H95 C90 0.929 . S
O96 Mn72 2.385 . S
O96 C74 1.234 . S
O97 Mn72 2.209 . S
O97 Mn73 2.215 . S
O97 C74 1.283 . S
O98 Mn72 2.094 . S
O98 C76 1.240 . S
O99 Mn73 2.117 . S
O99 C76 1.264 . S
C100 C93 1.403 . S
C100 C101 1.399 . S
C100 H106 0.929 . S
C101 C81 1.449 . S
C101 C100 1.399 . S
C101 H107 0.930 1_545 S
H102 C82 0.931 1_565 S
H103 C83 0.930 . S
H104 C91 0.931 . S
H105 C92 0.929 . S
H106 C100 0.929 . S
H107 C101 0.930 1_565 S
Mn108 O113 2.095 . S
Mn108 O123 2.162 . S
Mn108 O124 2.297 . S
Mn108 O132 2.385 . S
Mn108 O133 2.209 . S
Mn108 O134 2.094 . S
Mn109 O114 2.121 . S
Mn109 N116 2.257 . S
Mn109 N125 2.282 . S
Mn109 O133 2.215 . S
Mn109 O135 2.117 . S
C110 O132 1.234 . S
C110 O133 1.283 . S
C111 O123 1.281 . S
C111 O124 1.236 . S
C112 O134 1.240 . S
C112 O135 1.264 . S
O113 Mn108 2.095 . S
O113 C122 1.250 . S
O114 Mn109 2.121 . S
O114 C122 1.258 . S
C115 N116 1.326 . S
C115 C119 1.460 . S
C115 H121 0.929 . S
N116 Mn109 2.257 . S
N116 C115 1.326 . S
N116 C120 1.362 . S
C117 C118 1.258 . S
C117 C120 1.431 . S
C117 C137 1.449 . S
C118 C117 1.258 . S
C118 C119 1.477 . S
C118 H138 0.931 1_565 S
C119 C115 1.460 . S
C119 C118 1.477 . S
C119 H139 0.930 . S
C120 N116 1.362 . S
C120 C117 1.431 . S
C120 C130 1.476 . S
H121 C115 0.929 . S
C122 O113 1.250 . S
C122 O114 1.258 . S
O123 Mn108 2.162 . S
O123 C111 1.281 . S
O124 Mn108 2.297 . S
O124 C111 1.236 . S
N125 Mn109 2.282 . S
N125 C126 1.328 . S
N125 C130 1.318 . S
C126 N125 1.328 . S
C126 C127 1.457 . S
C126 H131 0.929 . S
C127 C126 1.457 . S
C127 C128 1.291 . S
C127 H140 0.931 . S
C128 C127 1.291 . S
C128 C129 1.373 . S
C128 H141 0.929 . S
C129 C128 1.373 . S
C129 C130 1.396 . S
C129 C136 1.403 . S
C130 C120 1.476 . S
C130 N125 1.318 . S
C130 C129 1.396 . S
H131 C126 0.929 . S
O132 Mn108 2.385 . S
O132 C110 1.234 . S
O133 Mn108 2.209 . S
O133 Mn109 2.215 . S
O133 C110 1.283 . S
O134 Mn108 2.094 . S
O134 C112 1.240 . S
O135 Mn109 2.117 . S
O135 C112 1.264 . S
C136 C129 1.403 . S
C136 C137 1.399 . S
C136 H142 0.929 . S
C137 C117 1.449 . S
C137 C136 1.399 . S
C137 H143 0.930 1_565 S
H138 C118 0.931 1_545 S
H139 C119 0.930 . S
H140 C127 0.931 . S
H141 C128 0.929 . S
H142 C136 0.929 . S
H143 C137 0.930 1_545 S
Mn144 O149 2.095 . S
Mn144 O159 2.162 1_556 S
Mn144 O160 2.297 . S
Mn144 O168 2.385 1_556 S
Mn144 O169 2.209 . S
Mn144 O170 2.094 . S
Mn145 O150 2.121 . S
Mn145 N152 2.257 . S
Mn145 N161 2.282 . S
Mn145 O169 2.215 . S
Mn145 O171 2.117 . S
C146 O168 1.234 1_556 S
C146 O169 1.283 . S
C147 O159 1.281 1_556 S
C147 O160 1.236 . S
C148 O170 1.240 . S
C148 O171 1.264 . S
O149 Mn144 2.095 . S
O149 C158 1.250 . S
O150 Mn145 2.121 . S
O150 C158 1.258 . S
C151 N152 1.326 . S
C151 C155 1.460 . S
C151 H157 0.929 . S
N152 Mn145 2.257 . S
N152 C151 1.326 . S
N152 C156 1.362 . S
C153 C154 1.258 . S
C153 C156 1.431 . S
C153 C173 1.449 . S
C154 C153 1.258 . S
C154 C155 1.477 . S
C154 H174 0.931 . S
C155 C151 1.460 . S
C155 C154 1.477 . S
C155 H175 0.930 . S
C156 N152 1.362 . S
C156 C153 1.431 . S
C156 C166 1.476 . S
H157 C151 0.929 . S
C158 O149 1.250 . S
C158 O150 1.258 . S
O159 Mn144 2.162 1_554 S
O159 C147 1.281 1_554 S
O160 Mn144 2.297 . S
O160 C147 1.236 . S
N161 Mn145 2.282 . S
N161 C162 1.328 . S
N161 C166 1.318 . S
C162 N161 1.328 . S
C162 C163 1.457 1_556 S
C162 H167 0.929 . S
C163 C162 1.457 1_554 S
C163 C164 1.291 1_554 S
C163 H176 0.931 . S
C164 C163 1.291 1_556 S
C164 C165 1.373 . S
C164 H177 0.929 1_556 S
C165 C164 1.373 . S
C165 C166 1.396 . S
C165 C172 1.403 . S
C166 C156 1.476 . S
C166 N161 1.318 . S
C166 C165 1.396 . S
H167 C162 0.929 . S
O168 Mn144 2.385 1_554 S
O168 C146 1.234 1_554 S
O169 Mn144 2.209 . S
O169 Mn145 2.215 . S
O169 C146 1.283 . S
O170 Mn144 2.094 . S
O170 C148 1.240 . S
O171 Mn145 2.117 . S
O171 C148 1.264 . S
C172 C165 1.403 . S
C172 C173 1.399 . S
C172 H178 0.929 . S
C173 C153 1.449 . S
C173 C172 1.399 . S
C173 H179 0.930 . S
H174 C154 0.931 . S
H175 C155 0.930 . S
H176 C163 0.931 . S
H177 C164 0.929 1_554 S
H178 C172 0.929 . S
H179 C173 0.930 . S
Mn180 O185 2.095 . S
Mn180 O195 2.162 1_556 S
Mn180 O196 2.297 . S
Mn180 O204 2.385 1_556 S
Mn180 O205 2.209 . S
Mn180 O206 2.094 . S
Mn181 O186 2.121 . S
Mn181 N188 2.257 . S
Mn181 N197 2.282 . S
Mn181 O205 2.215 . S
Mn181 O207 2.117 . S
C182 O204 1.234 1_556 S
C182 O205 1.283 . S
C183 O195 1.281 1_556 S
C183 O196 1.236 . S
C184 O206 1.240 . S
C184 O207 1.264 . S
O185 Mn180 2.095 . S
O185 C194 1.250 . S
O186 Mn181 2.121 . S
O186 C194 1.258 . S
C187 N188 1.326 . S
C187 C191 1.460 . S
C187 H193 0.929 . S
N188 Mn181 2.257 . S
N188 C187 1.326 . S
N188 C192 1.362 . S
C189 C190 1.258 . S
C189 C192 1.431 . S
C189 C209 1.449 . S
C190 C189 1.258 . S
C190 C191 1.477 . S
C190 H210 0.931 . S
C191 C187 1.460 . S
C191 C190 1.477 . S
C191 H211 0.930 . S
C192 N188 1.362 . S
C192 C189 1.431 . S
C192 C202 1.476 . S
H193 C187 0.929 . S
C194 O185 1.250 . S
C194 O186 1.258 . S
O195 Mn180 2.162 1_554 S
O195 C183 1.281 1_554 S
O196 Mn180 2.297 . S
O196 C183 1.236 . S
N197 Mn181 2.282 . S
N197 C198 1.328 . S
N197 C202 1.318 . S
C198 N197 1.328 . S
C198 C199 1.457 1_556 S
C198 H203 0.929 . S
C199 C198 1.457 1_554 S
C199 C200 1.291 1_554 S
C199 H212 0.931 . S
C200 C199 1.291 1_556 S
C200 C201 1.373 . S
C200 H213 0.929 1_556 S
C201 C200 1.373 . S
C201 C202 1.396 . S
C201 C208 1.403 . S
C202 C192 1.476 . S
C202 N197 1.318 . S
C202 C201 1.396 . S
H203 C198 0.929 . S
O204 Mn180 2.385 1_554 S
O204 C182 1.234 1_554 S
O205 Mn180 2.209 . S
O205 Mn181 2.215 . S
O205 C182 1.283 . S
O206 Mn180 2.094 . S
O206 C184 1.240 . S
O207 Mn181 2.117 . S
O207 C184 1.264 . S
C208 C201 1.403 . S
C208 C209 1.399 . S
C208 H214 0.929 . S
C209 C189 1.449 . S
C209 C208 1.399 . S
C209 H215 0.930 . S
H210 C190 0.931 . S
H211 C191 0.930 . S
H212 C199 0.931 . S
H213 C200 0.929 1_554 S
H214 C208 0.929 . S
H215 C209 0.930 . S
Mn216 O221 2.095 . S
Mn216 O231 2.162 . S
Mn216 O232 2.297 . S
Mn216 O240 2.385 . S
Mn216 O241 2.209 . S
Mn216 O242 2.094 . S
Mn217 O222 2.121 . S
Mn217 N224 2.257 . S
Mn217 N233 2.282 . S
Mn217 O241 2.215 . S
Mn217 O243 2.117 . S
C218 O240 1.234 . S
C218 O241 1.283 . S
C219 O231 1.281 . S
C219 O232 1.236 . S
C220 O242 1.240 . S
C220 O243 1.264 . S
O221 Mn216 2.095 . S
O221 C230 1.250 . S
O222 Mn217 2.121 . S
O222 C230 1.258 . S
C223 N224 1.326 . S
C223 C227 1.460 . S
C223 H229 0.929 . S
N224 Mn217 2.257 . S
N224 C223 1.326 . S
N224 C228 1.362 . S
C225 C226 1.258 . S
C225 C228 1.431 . S
C225 C245 1.449 . S
C226 C225 1.258 . S
C226 C227 1.477 . S
C226 H246 0.931 1_565 S
C227 C223 1.460 . S
C227 C226 1.477 . S
C227 H247 0.930 . S
C228 N224 1.362 . S
C228 C225 1.431 . S
C228 C238 1.476 . S
H229 C223 0.929 . S
C230 O221 1.250 . S
C230 O222 1.258 . S
O231 Mn216 2.162 . S
O231 C219 1.281 . S
O232 Mn216 2.297 . S
O232 C219 1.236 . S
N233 Mn217 2.282 . S
N233 C234 1.328 . S
N233 C238 1.318 . S
C234 N233 1.328 . S
C234 C235 1.457 . S
C234 H239 0.929 . S
C235 C234 1.457 . S
C235 C236 1.291 . S
C235 H248 0.931 . S
C236 C235 1.291 . S
C236 C237 1.373 . S
C236 H249 0.929 . S
C237 C236 1.373 . S
C237 C238 1.396 . S
C237 C244 1.403 . S
C238 C228 1.476 . S
C238 N233 1.318 . S
C238 C237 1.396 . S
H239 C234 0.929 . S
O240 Mn216 2.385 . S
O240 C218 1.234 . S
O241 Mn216 2.209 . S
O241 Mn217 2.215 . S
O241 C218 1.283 . S
O242 Mn216 2.094 . S
O242 C220 1.240 . S
O243 Mn217 2.117 . S
O243 C220 1.264 . S
C244 C237 1.403 . S
C244 C245 1.399 . S
C244 H250 0.929 . S
C245 C225 1.449 . S
C245 C244 1.399 . S
C245 H251 0.930 1_565 S
H246 C226 0.931 1_545 S
H247 C227 0.930 . S
H248 C235 0.931 . S
H249 C236 0.929 . S
H250 C244 0.929 . S
H251 C245 0.930 1_545 S
Mn252 O257 2.095 . S
Mn252 O267 2.162 . S
Mn252 O268 2.297 . S
Mn252 O276 2.385 . S
Mn252 O277 2.209 . S
Mn252 O278 2.094 . S
Mn253 O258 2.121 . S
Mn253 N260 2.257 . S
Mn253 N269 2.282 . S
Mn253 O277 2.215 . S
Mn253 O279 2.117 . S
C254 O276 1.234 . S
C254 O277 1.283 . S
C255 O267 1.281 . S
C255 O268 1.236 . S
C256 O278 1.240 . S
C256 O279 1.264 . S
O257 Mn252 2.095 . S
O257 C266 1.250 . S
O258 Mn253 2.121 . S
O258 C266 1.258 . S
C259 N260 1.326 . S
C259 C263 1.460 . S
C259 H265 0.929 . S
N260 Mn253 2.257 . S
N260 C259 1.326 . S
N260 C264 1.362 . S
C261 C262 1.258 . S
C261 C264 1.431 . S
C261 C281 1.449 . S
C262 C261 1.258 . S
C262 C263 1.477 . S
C262 H282 0.931 1_545 S
C263 C259 1.460 . S
C263 C262 1.477 . S
C263 H283 0.930 . S
C264 N260 1.362 . S
C264 C261 1.431 . S
C264 C274 1.476 . S
H265 C259 0.929 . S
C266 O257 1.250 . S
C266 O258 1.258 . S
O267 Mn252 2.162 . S
O267 C255 1.281 . S
O268 Mn252 2.297 . S
O268 C255 1.236 . S
N269 Mn253 2.282 . S
N269 C270 1.328 . S
N269 C274 1.318 . S
C270 N269 1.328 . S
C270 C271 1.457 . S
C270 H275 0.929 . S
C271 C270 1.457 . S
C271 C272 1.291 . S
C271 H284 0.931 . S
C272 C271 1.291 . S
C272 C273 1.373 . S
C272 H285 0.929 . S
C273 C272 1.373 . S
C273 C274 1.396 . S
C273 C280 1.403 . S
C274 C264 1.476 . S
C274 N269 1.318 . S
C274 C273 1.396 . S
H275 C270 0.929 . S
O276 Mn252 2.385 . S
O276 C254 1.234 . S
O277 Mn252 2.209 . S
O277 Mn253 2.215 . S
O277 C254 1.283 . S
O278 Mn252 2.094 . S
O278 C256 1.240 . S
O279 Mn253 2.117 . S
O279 C256 1.264 . S
C280 C273 1.403 . S
C280 C281 1.399 . S
C280 H286 0.929 . S
C281 C261 1.449 . S
C281 C280 1.399 . S
C281 H287 0.930 1_545 S
H282 C262 0.931 1_565 S
H283 C263 0.930 . S
H284 C271 0.931 . S
H285 C272 0.929 . S
H286 C280 0.929 . S
H287 C281 0.930 1_565 S
C288 C289 1.387 1_556 S
C288 H292 0.950 . S
C288 C297 1.390 1_545 S
C289 C288 1.387 1_554 S
C289 C291 1.387 . S
H290 C297 0.950 . S
C291 C289 1.387 . S
C291 C293 1.390 1_545 S
C291 H295 0.950 . S
H292 C288 0.950 . S
C293 C291 1.390 1_565 S
C293 C294 1.387 . S
C293 H296 0.950 . S
C294 C293 1.387 . S
C294 C297 1.387 1_554 S
H295 C291 0.950 . S
H296 C293 0.950 . S
C297 C288 1.390 1_565 S
C297 H290 0.950 . S
C297 C294 1.387 1_556 S
C298 C299 1.387 . S
C298 H302 0.950 . S
C298 C307 1.390 . S
C299 C298 1.387 . S
C299 C301 1.387 . S
H300 C307 0.950 . S
C301 C299 1.387 . S
C301 C303 1.390 . S
C301 H305 0.950 . S
H302 C298 0.950 . S
C303 C301 1.390 . S
C303 C304 1.387 . S
C303 H306 0.950 . S
C304 C303 1.387 . S
C304 C307 1.387 . S
H305 C301 0.950 . S
H306 C303 0.950 . S
C307 C298 1.390 . S
C307 H300 0.950 . S
C307 C304 1.387 . S
C308 C309 1.387 . S
C308 H312 0.950 . S
C308 C317 1.390 1_565 S
C309 C308 1.387 . S
C309 C311 1.387 1_556 S
H310 C317 0.950 . S
C311 C309 1.387 1_554 S
C311 C313 1.390 1_565 S
C311 H315 0.950 . S
H312 C308 0.950 . S
C313 C311 1.390 1_545 S
C313 C314 1.387 1_554 S
C313 H316 0.950 . S
C314 C313 1.387 1_556 S
C314 C317 1.387 . S
H315 C311 0.950 . S
H316 C313 0.950 . S
C317 C308 1.390 1_545 S
C317 H310 0.950 . S
C317 C314 1.387 . S
C318 C319 1.387 . S
C318 H322 0.950 . S
C318 C327 1.390 . S
C319 C318 1.387 . S
C319 C321 1.387 . S
H320 C327 0.950 . S
C321 C319 1.387 . S
C321 C323 1.390 . S
C321 H325 0.950 . S
H322 C318 0.950 . S
C323 C321 1.390 . S
C323 C324 1.387 . S
C323 H326 0.950 . S
C324 C323 1.387 . S
C324 C327 1.387 . S
H325 C321 0.950 . S
H326 C323 0.950 . S
C327 C318 1.390 . S
C327 H320 0.950 . S
C327 C324 1.387 . S
C328 C329 1.387 . S
C328 H332 0.950 . S
C328 C337 1.390 . S
C329 C328 1.387 . S
C329 C331 1.387 . S
H330 C337 0.950 . S
C331 C329 1.387 . S
C331 C333 1.390 . S
C331 H335 0.950 . S
H332 C328 0.950 . S
C333 C331 1.390 . S
C333 C334 1.387 . S
C333 H336 0.950 . S
C334 C333 1.387 . S
C334 C337 1.387 . S
H335 C331 0.950 . S
H336 C333 0.950 . S
C337 C328 1.390 . S
C337 H330 0.950 . S
C337 C334 1.387 . S
C338 C339 1.387 . S
C338 H342 0.950 . S
C338 C347 1.390 . S
C339 C338 1.387 . S
C339 C341 1.387 . S
H340 C347 0.950 . S
C341 C339 1.387 . S
C341 C343 1.390 . S
C341 H345 0.950 . S
H342 C338 0.950 . S
C343 C341 1.390 . S
C343 C344 1.387 . S
C343 H346 0.950 . S
C344 C343 1.387 . S
C344 C347 1.387 . S
H345 C341 0.950 . S
H346 C343 0.950 . S
C347 C338 1.390 . S
C347 H340 0.950 . S
C347 C344 1.387 . S
C348 C349 1.387 . S
C348 H352 0.950 . S
C348 C357 1.390 . S
C349 C348 1.387 . S
C349 C351 1.387 . S
H350 C357 0.950 . S
C351 C349 1.387 . S
C351 C353 1.390 . S
C351 H355 0.950 . S
H352 C348 0.950 . S
C353 C351 1.390 . S
C353 C354 1.387 . S
C353 H356 0.950 . S
C354 C353 1.387 . S
C354 C357 1.387 . S
H355 C351 0.950 . S
H356 C353 0.950 . S
C357 C348 1.390 . S
C357 H350 0.950 . S
C357 C354 1.387 . S
C358 C359 1.387 . S
C358 H362 0.950 . S
C358 C367 1.390 . S
C359 C358 1.387 . S
C359 C361 1.387 . S
H360 C367 0.950 . S
C361 C359 1.387 . S
C361 C363 1.390 . S
C361 H365 0.950 . S
H362 C358 0.950 . S
C363 C361 1.390 . S
C363 C364 1.387 . S
C363 H366 0.950 . S
C364 C363 1.387 . S
C364 C367 1.387 . S
H365 C361 0.950 . S
H366 C363 0.950 . S
C367 C358 1.390 . S
C367 H360 0.950 . S
C367 C364 1.387 . S
C368 C369 1.387 . S
C368 H372 0.950 . S
C368 C377 1.390 . S
C369 C368 1.387 . S
C369 C371 1.387 1_556 S
H370 C377 0.950 . S
C371 C369 1.387 1_554 S
C371 C373 1.390 . S
C371 H375 0.950 . S
H372 C368 0.950 . S
C373 C371 1.390 . S
C373 C374 1.387 . S
C373 H376 0.950 . S
C374 C373 1.387 . S
C374 C377 1.387 1_554 S
H375 C371 0.950 . S
H376 C373 0.950 . S
C377 C368 1.390 . S
C377 H370 0.950 . S
C377 C374 1.387 1_556 S
C378 C379 1.387 1_554 S
C378 H382 0.950 . S
C378 C387 1.390 1_455 S
C379 C378 1.387 1_556 S
C379 C381 1.387 . S
H380 C387 0.950 . S
C381 C379 1.387 . S
C381 C383 1.390 1_455 S
C381 H385 0.950 . S
H382 C378 0.950 . S
C383 C381 1.390 1_655 S
C383 C384 1.387 1_556 S
C383 H386 0.950 . S
C384 C383 1.387 1_554 S
C384 C387 1.387 . S
H385 C381 0.950 . S
H386 C383 0.950 . S
C387 C378 1.390 1_655 S
C387 H380 0.950 . S
C387 C384 1.387 . S
C388 C389 1.387 . S
C388 H392 0.950 . S
C388 C397 1.390 1_565 S
C389 C388 1.387 . S
C389 C391 1.387 . S
H390 C397 0.950 . S
C391 C389 1.387 . S
C391 C393 1.390 1_565 S
C391 H395 0.950 . S
H392 C388 0.950 . S
C393 C391 1.390 1_545 S
C393 C394 1.387 . S
C393 H396 0.950 . S
C394 C393 1.387 . S
C394 C397 1.387 . S
H395 C391 0.950 . S
H396 C393 0.950 . S
C397 C388 1.390 1_545 S
C397 H390 0.950 . S
C397 C394 1.387 . S
C398 C399 1.387 . S
C398 H402 0.950 . S
C398 C407 1.390 1_645 S
C399 C398 1.387 . S
C399 C401 1.387 . S
H400 C407 0.950 . S
C401 C399 1.387 . S
C401 C403 1.390 1_645 S
C401 H405 0.950 . S
H402 C398 0.950 . S
C403 C401 1.390 1_465 S
C403 C404 1.387 . S
C403 H406 0.950 . S
C404 C403 1.387 . S
C404 C407 1.387 . S
H405 C401 0.950 . S
H406 C403 0.950 . S
C407 C398 1.390 1_465 S
C407 H400 0.950 . S
C407 C404 1.387 . S
C408 C409 1.387 . S
C408 H412 0.950 . S
C408 C417 1.390 . S
C409 C408 1.387 . S
C409 C411 1.387 1_554 S
H410 C417 0.950 . S
C411 C409 1.387 1_556 S
C411 C413 1.390 . S
C411 H415 0.950 . S
H412 C408 0.950 . S
C413 C411 1.390 . S
C413 C414 1.387 1_556 S
C413 H416 0.950 . S
C414 C413 1.387 1_554 S
C414 C417 1.387 . S
H415 C411 0.950 . S
H416 C413 0.950 . S
C417 C408 1.390 . S
C417 H410 0.950 . S
C417 C414 1.387 . S
C418 C419 1.387 . S
C418 H422 0.950 . S
C418 C427 1.390 1_545 S
C419 C418 1.387 . S
C419 C421 1.387 . S
H420 C427 0.950 . S
C421 C419 1.387 . S
C421 C423 1.390 1_545 S
C421 H425 0.950 . S
H422 C418 0.950 . S
C423 C421 1.390 1_565 S
C423 C424 1.387 . S
C423 H426 0.950 . S
C424 C423 1.387 . S
C424 C427 1.387 . S
H425 C421 0.950 . S
H426 C423 0.950 . S
C427 C418 1.390 1_565 S
C427 H420 0.950 . S
C427 C424 1.387 . S
C428 C429 1.387 1_554 S
C428 H432 0.950 . S
C428 C437 1.390 . S
C429 C428 1.387 1_556 S
C429 C431 1.387 . S
H430 C437 0.950 . S
C431 C429 1.387 . S
C431 C433 1.390 . S
C431 H435 0.950 . S
H432 C428 0.950 . S
C433 C431 1.390 . S
C433 C434 1.387 . S
C433 H436 0.950 . S
C434 C433 1.387 . S
C434 C437 1.387 1_556 S
H435 C431 0.950 . S
H436 C433 0.950 . S
C437 C428 1.390 . S
C437 H430 0.950 . S
C437 C434 1.387 1_554 S
C438 C439 1.387 . S
C438 H442 0.950 . S
C438 C447 1.390 1_565 S
C439 C438 1.387 . S
C439 C441 1.387 . S
H440 C447 0.950 . S
C441 C439 1.387 . S
C441 C443 1.390 1_565 S
C441 H445 0.950 . S
H442 C438 0.950 . S
C443 C441 1.390 1_545 S
C443 C444 1.387 . S
C443 H446 0.950 . S
C444 C443 1.387 . S
C444 C447 1.387 . S
H445 C441 0.950 . S
H446 C443 0.950 . S
C447 C438 1.390 1_545 S
C447 H440 0.950 . S
C447 C444 1.387 . S
C289 C4 1.483 . S
C294 C40 1.483 . S
C299 C112 1.483 . S
C304 C76 1.483 . S
C309 C148 1.483 . S
C314 C184 1.483 . S
C319 C220 1.483 . S
C324 C256 1.483 . S
C329 C14 1.522 . S
C334 C86 1.522 . S
C339 C122 1.522 . S
C344 C50 1.522 . S
C349 C158 1.522 . S
C354 C230 1.522 . S
C359 C266 1.522 . S
C364 C194 1.522 . S
C369 C3 1.547 1_556 S
C374 C147 1.547 1_554 S
C379 C39 1.544 1_556 S
C384 C183 1.544 1_554 S
C389 C219 1.547 . S
C394 C75 1.547 . S
C399 C255 1.547 . S
C404 C111 1.547 . S
C409 C38 1.225 . S
C414 C2 1.225 . S
C419 C74 1.225 . S
C424 C110 1.225 . S
C429 C146 1.225 . S
C434 C182 1.225 . S
C439 C218 1.225 . S
C444 C254 1.225 . S
