# Generated by pormake.
# Topology umw, (4)-cn, num edge types: 1
# Building blocks:
#     Node 0, Type 0, BuildingBlock: AZAVOO_clean_sbu_0, # of connection points: 4
#     Node 1, Type 0, BuildingBlock: AZAVOO_clean_sbu_0, # of connection points: 4
#     Node 2, Type 0, BuildingBlock: AZAVOO_clean_sbu_0, # of connection points: 4
#     Node 3, Type 0, BuildingBlock: AZAVOO_clean_sbu_0, # of connection points: 4
#     Node 4, Type 0, BuildingBlock: AZAVOO_clean_sbu_0, # of connection points: 4
#     Node 5, Type 0, BuildingBlock: AZAVOO_clean_sbu_0, # of connection points: 4
#     Node 6, Type 0, BuildingBlock: AZAVOO_clean_sbu_0, # of connection points: 4
#     Node 7, Type 0, BuildingBlock: AZAVOO_clean_sbu_0, # of connection points: 4
#     Edge 8, Type (0, 0), BuildingBlock: FUNLAD_clean_linker_1, # of connection points: 2
#     Edge 9, Type (0, 0), BuildingBlock: FUNLAD_clean_linker_1, # of connection points: 2
#     Edge 10, Type (0, 0), BuildingBlock: FUNLAD_clean_linker_1, # of connection points: 2
#     Edge 11, Type (0, 0), BuildingBlock: FUNLAD_clean_linker_1, # of connection points: 2
#     Edge 12, Type (0, 0), BuildingBlock: FUNLAD_clean_linker_1, # of connection points: 2
#     Edge 13, Type (0, 0), BuildingBlock: FUNLAD_clean_linker_1, # of connection points: 2
#     Edge 14, Type (0, 0), BuildingBlock: FUNLAD_clean_linker_1, # of connection points: 2
#     Edge 15, Type (0, 0), BuildingBlock: FUNLAD_clean_linker_1, # of connection points: 2
#     Edge 16, Type (0, 0), BuildingBlock: FUNLAD_clean_linker_1, # of connection points: 2
#     Edge 17, Type (0, 0), BuildingBlock: FUNLAD_clean_linker_1, # of connection points: 2
#     Edge 18, Type (0, 0), BuildingBlock: FUNLAD_clean_linker_1, # of connection points: 2
#     Edge 19, Type (0, 0), BuildingBlock: FUNLAD_clean_linker_1, # of connection points: 2
#     Edge 20, Type (0, 0), BuildingBlock: FUNLAD_clean_linker_1, # of connection points: 2
#     Edge 21, Type (0, 0), BuildingBlock: FUNLAD_clean_linker_1, # of connection points: 2
#     Edge 22, Type (0, 0), BuildingBlock: FUNLAD_clean_linker_1, # of connection points: 2
#     Edge 23, Type (0, 0), BuildingBlock: FUNLAD_clean_linker_1, # of connection points: 2
# Relax obj value: 0.147
# Max RMSD: 0.119
# Mean RMSD: 0.119
data_MOF--net-umw--node1-AZAVOO_clean_sbu_0--edge1-FUNLAD_clean_linker_1
_symmetry_space_group_name_H-M    P1
_symmetry_Int_Tables_number       1
_symmetry_cell_setting            triclinic
loop_
_symmetry_equiv_pos_as_xyz
'x, y, z'
_cell_length_a     45.278798
_cell_length_b     45.487865
_cell_length_c     24.193626
_cell_angle_alpha  89.949617
_cell_angle_beta   90.058221
_cell_angle_gamma 89.996428
loop_
_atom_site_label
_atom_site_type_symbol
_atom_site_fract_x
_atom_site_fract_y
_atom_site_fract_z
_atom_type_partial_charge
Mg0 Mg 0.3932 0.16597 0.23931 0.0
O1 O 0.421 0.16791 0.31972 0.0
O2 O 0.46166 0.1411 0.30473 0.0
Mg3 Mg 0.46028 0.12201 0.21795 0.0
C4 C 0.44573 0.15732 0.33575 0.0
C5 C 0.33782 0.20363 0.24658 0.0
O6 O 0.33221 0.18551 0.20569 0.0
O7 O 0.42446 0.19777 0.19513 0.0
O8 O 0.46376 0.16867 0.18216 0.0
O9 O 0.37073 0.12514 0.26838 0.0
O10 O 0.41204 0.1255 0.21981 0.0
C11 C 0.45054 0.19333 0.17694 0.0
C12 C 0.39233 0.11076 0.24614 0.0
O13 O 0.36294 0.20258 0.27004 0.0
Mg14 Mg 0.81256 0.41874 0.54272 0.0
O15 O 0.83971 0.45 0.59715 0.0
O16 O 0.88315 0.4591 0.55695 0.0
Mg17 Mg 0.88331 0.43395 0.47492 0.0
C18 C 0.86496 0.46248 0.59665 0.0
C19 C 0.75391 0.4161 0.62092 0.0
O20 O 0.73255 0.42961 0.64746 0.0
O21 O 0.80209 0.4561 0.48247 0.0
O22 O 0.84575 0.46282 0.44137 0.0
O23 O 0.83458 0.37995 0.58359 0.0
O24 O 0.85138 0.40176 0.50845 0.0
C25 C 0.81838 0.469 0.44697 0.0
C26 C 0.85501 0.38231 0.54647 0.0
O27 O 0.77224 0.43153 0.59378 0.0
Mg28 Mg 0.60286 0.83196 0.7667 0.0
O29 O 0.56536 0.83591 0.83099 0.0
O30 O 0.53078 0.86521 0.79405 0.0
Mg31 Mg 0.54629 0.88156 0.70969 0.0
C32 C 0.54038 0.84901 0.83321 0.0
C33 C 0.65146 0.79216 0.81282 0.0
O34 O 0.66613 0.81229 0.78517 0.0
O35 O 0.57434 0.80162 0.71272 0.0
O36 O 0.54303 0.83459 0.6763 0.0
O37 O 0.62537 0.87207 0.80123 0.0
O38 O 0.59177 0.87308 0.73514 0.0
C39 C 0.55301 0.80844 0.68057 0.0
C40 C 0.60885 0.88722 0.76806 0.0
O41 O 0.62342 0.79337 0.81366 0.0
Mg42 Mg 0.19505 0.58795 0.00831 0.0
O43 O 0.17749 0.55341 0.06883 0.0
O44 O 0.12987 0.54428 0.05187 0.0
Mg45 Mg 0.11752 0.57188 0.97596 0.0
C46 C 0.15339 0.5402 0.07993 0.0
C47 C 0.2624 0.58905 0.05809 0.0
O48 O 0.28713 0.57509 0.06913 0.0
O49 O 0.19762 0.55364 0.9396 0.0
O50 O 0.14972 0.54506 0.92323 0.0
O51 O 0.17739 0.62325 0.06524 0.0
O52 O 0.15249 0.60403 0.9957 0.0
C53 C 0.17701 0.5404 0.91355 0.0
C54 C 0.15296 0.62126 0.03766 0.0
O55 O 0.2415 0.57481 0.03557 0.0
Mg56 Mg 0.37705 0.82946 0.27849 0.0
O57 O 0.41658 0.8335 0.21885 0.0
O58 O 0.44798 0.8663 0.25502 0.0
Mg59 Mg 0.42856 0.88373 0.33553 0.0
C60 C 0.44064 0.84819 0.21722 0.0
C61 C 0.33526 0.78519 0.21914 0.0
O62 O 0.31654 0.80666 0.22862 0.0
O63 O 0.40474 0.8029 0.34016 0.0
O64 O 0.43374 0.83813 0.37482 0.0
O65 O 0.3543 0.86608 0.23402 0.0
O66 O 0.38414 0.87245 0.30538 0.0
C67 C 0.4249 0.81146 0.37336 0.0
C68 C 0.36821 0.8838 0.26675 0.0
O69 O 0.36196 0.7878 0.23458 0.0
Mg70 Mg 0.13272 0.36602 0.51167 0.0
O71 O 0.1249 0.40162 0.44545 0.0
O72 O 0.0935 0.43482 0.48018 0.0
Mg73 Mg 0.08136 0.42094 0.56808 0.0
C74 C 0.10978 0.42525 0.44114 0.0
C75 C 0.17516 0.32253 0.44835 0.0
O76 O 0.15388 0.30379 0.45939 0.0
O77 O 0.16252 0.39739 0.55999 0.0
O78 O 0.1293 0.42846 0.59557 0.0
O79 O 0.09232 0.34074 0.48298 0.0
O80 O 0.092 0.3755 0.54648 0.0
C81 C 0.15589 0.41944 0.5901 0.0
C82 C 0.07752 0.35734 0.51646 0.0
O83 O 0.17258 0.34913 0.46339 0.0
Mg84 Mg 0.62954 0.16881 0.77646 0.0
O85 O 0.59436 0.16819 0.70775 0.0
O86 O 0.5583 0.13757 0.73369 0.0
Mg87 Mg 0.57118 0.11722 0.81671 0.0
C88 C 0.56951 0.15572 0.69933 0.0
C89 C 0.67654 0.21247 0.72683 0.0
O90 O 0.69411 0.18988 0.73493 0.0
O91 O 0.59949 0.19591 0.83286 0.0
O92 O 0.56641 0.16216 0.85893 0.0
O93 O 0.65327 0.13115 0.73673 0.0
O94 O 0.61814 0.12603 0.79927 0.0
C95 C 0.57701 0.18818 0.86114 0.0
C96 C 0.6364 0.11399 0.76542 0.0
O97 O 0.64936 0.21047 0.73928 0.0
Mg98 Mg 0.8711 0.6425 0.04361 0.0
O99 O 0.87248 0.61009 0.97076 0.0
O100 O 0.90783 0.5768 0.98613 0.0
Mg101 Mg 0.92798 0.58693 0.07087 0.0
C102 C 0.8873 0.58756 0.9561 0.0
C103 C 0.82566 0.68954 0.00979 0.0
O104 O 0.84722 0.70538 0.03051 0.0
O105 O 0.84679 0.6085 0.09689 0.0
O106 O 0.88356 0.57643 0.11182 0.0
O107 O 0.90753 0.66924 0.00483 0.0
O108 O 0.91484 0.63329 0.06464 0.0
C109 C 0.85693 0.58492 0.11864 0.0
C110 C 0.92573 0.65312 0.03285 0.0
O111 O 0.82809 0.66169 0.00931 0.0
H112 H 0.44037 0.17298 0.42198 0.0
C113 C 0.4556 0.16269 0.39319 0.0
H114 H 0.49732 0.14278 0.38252 0.0
H115 H 0.51911 0.20824 0.62403 0.0
H116 H 0.51166 0.25448 0.57592 0.0
H117 H 0.4957 0.25529 0.4784 0.0
H118 H 0.48651 0.20991 0.42875 0.0
C119 C 0.48233 0.15372 0.4109 0.0
C120 C 0.49106 0.15401 0.47024 0.0
C121 C 0.49717 0.18077 0.49806 0.0
C122 C 0.50767 0.18028 0.55358 0.0
C123 C 0.51228 0.20732 0.58122 0.0
C124 C 0.50789 0.23402 0.5542 0.0
C125 C 0.49881 0.23448 0.49935 0.0
C126 C 0.49349 0.20824 0.47138 0.0
H127 H 0.56638 0.1724 0.61375 0.0
C128 C 0.55421 0.1613 0.64639 0.0
H129 H 0.51437 0.14044 0.66887 0.0
H130 H 0.4792 0.09887 0.43049 0.0
H131 H 0.48775 0.05267 0.47776 0.0
H132 H 0.50846 0.0517 0.57207 0.0
H133 H 0.52048 0.09688 0.61982 0.0
C134 C 0.5265 0.15193 0.63669 0.0
C135 C 0.51324 0.15303 0.58029 0.0
C136 C 0.50654 0.12631 0.55279 0.0
C137 C 0.49525 0.12683 0.49794 0.0
C138 C 0.48839 0.0998 0.47176 0.0
C139 C 0.49308 0.07308 0.49848 0.0
C140 C 0.50468 0.07254 0.55159 0.0
C141 C 0.5114 0.09873 0.5786 0.0
H142 H 0.89647 0.48939 0.64469 0.0
C143 C 0.87402 0.48093 0.644 0.0
H144 H 0.83346 0.47819 0.68668 0.0
H145 H 0.88278 0.50059 0.92531 0.0
H146 H 0.86804 0.44948 0.93091 0.0
H147 H 0.85262 0.42239 0.84747 0.0
H148 H 0.85162 0.44632 0.758 0.0
C149 C 0.8557 0.48715 0.68617 0.0
C150 C 0.86591 0.50368 0.73589 0.0
C151 C 0.86678 0.48925 0.78787 0.0
C152 C 0.87625 0.50471 0.83583 0.0
C153 C 0.87629 0.48984 0.88734 0.0
C154 C 0.8678 0.46048 0.89122 0.0
C155 C 0.85907 0.44525 0.84426 0.0
C156 C 0.85853 0.45932 0.79313 0.0
H157 H 0.86038 0.58132 0.88083 0.0
C158 C 0.87956 0.57322 0.9032 0.0
H159 H 0.91369 0.54163 0.90524 0.0
H160 H 0.86359 0.5391 0.64422 0.0
H161 H 0.88049 0.58952 0.63767 0.0
H162 H 0.90112 0.61494 0.71904 0.0
H163 H 0.90431 0.59029 0.80768 0.0
C164 C 0.89494 0.55042 0.88258 0.0
C165 C 0.88517 0.53454 0.83177 0.0
C166 C 0.88482 0.54884 0.77957 0.0
C167 C 0.87442 0.53364 0.7319 0.0
C168 C 0.87251 0.54908 0.68116 0.0
C169 C 0.88195 0.57813 0.6769 0.0
C170 C 0.89345 0.59248 0.72275 0.0
C171 C 0.89495 0.57812 0.77355 0.0
H172 H 0.48199 0.85623 0.1719 0.0
C173 C 0.46053 0.84557 0.16922 0.0
H174 H 0.43118 0.82195 0.1178 0.0
H175 H 0.52842 0.89077 0.95306 0.0
H176 H 0.50747 0.93596 0.98854 0.0
H177 H 0.46859 0.93487 0.05991 0.0
H178 H 0.45126 0.88864 0.09742 0.0
C179 C 0.45239 0.83295 0.12136 0.0
C180 C 0.47223 0.83357 0.07215 0.0
C181 C 0.4806 0.86079 0.04795 0.0
C182 C 0.50135 0.86134 0.00384 0.0
C183 C 0.51136 0.88893 0.98411 0.0
C184 C 0.49973 0.9151 0.00451 0.0
C185 C 0.47798 0.9145 0.04488 0.0
C186 C 0.46843 0.88775 0.06646 0.0
H187 H 0.49952 0.85556 0.88073 0.0
C188 C 0.52167 0.84635 0.88285 0.0
H189 H 0.55309 0.82523 0.93387 0.0
H190 H 0.46051 0.77774 0.10819 0.0
H191 H 0.47913 0.73238 0.06873 0.0
H192 H 0.5125 0.73321 0.9882 0.0
H193 H 0.5277 0.77939 0.94695 0.0
C194 C 0.53122 0.83492 0.93089 0.0
C195 C 0.51177 0.83458 0.98071 0.0
C196 C 0.50287 0.80738 0.00405 0.0
C197 C 0.48323 0.80688 0.04997 0.0
C198 C 0.4751 0.7794 0.07294 0.0
C199 C 0.48565 0.75319 0.05072 0.0
C200 C 0.50445 0.75365 0.00541 0.0
C201 C 0.51303 0.78034 0.98216 0.0
H202 H 0.09649 0.46168 0.38646 0.0
C203 C 0.11097 0.44269 0.38972 0.0
H204 H 0.14379 0.4174 0.34984 0.0
H205 H 0.1119 0.45962 0.10818 0.0
H206 H 0.09854 0.40802 0.10446 0.0
H207 H 0.09909 0.37746 0.18874 0.0
H208 H 0.11321 0.39823 0.27716 0.0
C209 C 0.12959 0.43662 0.348 0.0
C210 C 0.13008 0.45508 0.297 0.0
C211 C 0.12155 0.44264 0.24567 0.0
C212 C 0.1208 0.46038 0.19719 0.0
C213 C 0.11254 0.44727 0.14638 0.0
C214 C 0.10485 0.41765 0.14364 0.0
C215 C 0.10518 0.40044 0.19108 0.0
C216 C 0.11338 0.41266 0.2416 0.0
H217 H 0.17377 0.51661 0.14982 0.0
C218 C 0.153 0.52054 0.12847 0.0
H219 H 0.10711 0.51205 0.12777 0.0
H220 H 0.15208 0.48492 0.38657 0.0
H221 H 0.16315 0.53696 0.39129 0.0
H222 H 0.15683 0.5688 0.30952 0.0
H223 H 0.14018 0.54859 0.22231 0.0
C224 C 0.12802 0.50887 0.14895 0.0
C225 C 0.12839 0.49057 0.20012 0.0
C226 C 0.13654 0.50313 0.25165 0.0
C227 C 0.13836 0.48515 0.29968 0.0
C228 C 0.14875 0.49781 0.34954 0.0
C229 C 0.15545 0.52765 0.35272 0.0
C230 C 0.15203 0.54553 0.30664 0.0
C231 C 0.14267 0.53357 0.25663 0.0
H232 H 0.29245 0.22083 0.24725 0.0
C233 C 0.31378 0.22238 0.26773 0.0
H234 H 0.33729 0.24006 0.33534 0.0
H235 H 0.20845 0.31361 0.31112 0.0
H236 H 0.22808 0.33244 0.22496 0.0
H237 H 0.27676 0.31629 0.19079 0.0
H238 H 0.30582 0.2807 0.24219 0.0
C239 C 0.31645 0.23919 0.31308 0.0
C240 C 0.28989 0.25321 0.33825 0.0
C241 C 0.27382 0.27509 0.30913 0.0
C242 C 0.2464 0.28548 0.33025 0.0
C243 C 0.22995 0.30586 0.29836 0.0
C244 C 0.24088 0.31672 0.24856 0.0
C245 C 0.26823 0.30754 0.22921 0.0
C246 C 0.28459 0.28696 0.25893 0.0
H247 H 0.22031 0.32889 0.4161 0.0
C248 C 0.20269 0.31289 0.42123 0.0
H249 H 0.18977 0.26868 0.41083 0.0
H250 H 0.3159 0.21242 0.40618 0.0
H251 H 0.29781 0.1958 0.49503 0.0
H252 H 0.2515 0.21552 0.53372 0.0
H253 H 0.22287 0.25181 0.48351 0.0
C254 C 0.20685 0.2851 0.4042 0.0
C255 C 0.2358 0.275 0.38184 0.0
C256 C 0.25259 0.25417 0.41217 0.0
C257 C 0.27959 0.24319 0.39031 0.0
C258 C 0.29546 0.22184 0.42099 0.0
C259 C 0.28531 0.21205 0.47212 0.0
C260 C 0.25923 0.22312 0.49386 0.0
C261 C 0.24297 0.24391 0.46447 0.0
H262 H 0.77299 0.37273 0.59824 0.0
C263 C 0.75616 0.38371 0.62267 0.0
H264 H 0.72097 0.37878 0.67918 0.0
H265 H 0.69899 0.24773 0.59202 0.0
H266 H 0.68135 0.27091 0.50764 0.0
H267 H 0.68938 0.32384 0.49102 0.0
H268 H 0.71538 0.35385 0.55829 0.0
C269 C 0.7374 0.36786 0.65374 0.0
C270 C 0.73825 0.33528 0.65707 0.0
C271 C 0.72305 0.31816 0.61729 0.0
C272 C 0.71781 0.28781 0.62744 0.0
C273 C 0.70283 0.27106 0.5869 0.0
C274 C 0.69277 0.28404 0.53822 0.0
C275 C 0.69733 0.31384 0.52883 0.0
C276 C 0.71224 0.33083 0.5678 0.0
H277 H 0.67243 0.2586 0.70042 0.0
C278 C 0.68801 0.24059 0.70544 0.0
H279 H 0.73281 0.22772 0.70053 0.0
H280 H 0.77215 0.36098 0.73688 0.0
H281 H 0.7914 0.33742 0.81966 0.0
H282 H 0.78165 0.28495 0.83817 0.0
H283 H 0.75266 0.2557 0.77413 0.0
C284 C 0.71671 0.24508 0.69397 0.0
C285 C 0.72726 0.27488 0.67781 0.0
C286 C 0.74479 0.29139 0.71513 0.0
C287 C 0.75023 0.32168 0.70473 0.0
C288 C 0.76718 0.33795 0.74323 0.0
C289 C 0.77841 0.32468 0.79073 0.0
C290 C 0.77294 0.29513 0.80112 0.0
C291 C 0.75626 0.27859 0.76401 0.0
H292 H 0.80004 0.7285 0.98535 0.0
C293 C 0.79987 0.7046 0.98545 0.0
H294 H 0.77688 0.66647 0.9603 0.0
H295 H 0.68483 0.78296 0.94597 0.0
H296 H 0.68764 0.78345 0.04595 0.0
H297 H 0.71933 0.74816 0.09585 0.0
H298 H 0.74888 0.7125 0.04576 0.0
C299 C 0.77702 0.69033 0.9622 0.0
C300 C 0.75312 0.70706 0.93351 0.0
C301 C 0.73484 0.72677 0.9634 0.0
C302 C 0.71559 0.74627 0.93468 0.0
C303 C 0.69909 0.76699 0.96553 0.0
C304 C 0.70058 0.76759 0.02304 0.0
C305 C 0.71849 0.74779 0.05113 0.0
C306 C 0.73548 0.72758 0.02189 0.0
H307 H 0.6546 0.75298 0.86712 0.0
C308 C 0.66733 0.76902 0.84389 0.0
H309 H 0.70985 0.78338 0.82041 0.0
H310 H 0.78243 0.66954 0.86403 0.0
H311 H 0.77704 0.6666 0.76447 0.0
H312 H 0.74238 0.69917 0.71498 0.0
H313 H 0.71297 0.73503 0.76481 0.0
C314 C 0.69702 0.76795 0.84489 0.0
C315 C 0.71378 0.74516 0.87615 0.0
C316 C 0.73035 0.72388 0.84669 0.0
C317 C 0.75006 0.70483 0.87534 0.0
C318 C 0.76693 0.68438 0.84453 0.0
C319 C 0.76406 0.68245 0.78731 0.0
C320 C 0.74457 0.70082 0.75943 0.0
C321 C 0.72789 0.72135 0.78852 0.0
H322 H 0.2387 0.63175 0.06265 0.0
C323 C 0.25928 0.62051 0.07193 0.0
H324 H 0.30257 0.6242 0.10378 0.0
H325 H 0.321 0.75885 0.07714 0.0
H326 H 0.34299 0.74279 0.99075 0.0
H327 H 0.33645 0.69186 0.95792 0.0
H328 H 0.30764 0.65674 0.01107 0.0
C329 C 0.28166 0.63516 0.09591 0.0
C330 C 0.28028 0.66691 0.10984 0.0
C331 C 0.29716 0.6871 0.07841 0.0
C332 C 0.30132 0.71629 0.09774 0.0
C333 C 0.31786 0.73617 0.06505 0.0
C334 C 0.33041 0.7273 0.01522 0.0
C335 C 0.3267 0.69863 0.99671 0.0
C336 C 0.31025 0.67867 0.02772 0.0
H337 H 0.34214 0.74089 0.18487 0.0
C338 C 0.32572 0.75799 0.19136 0.0
H339 H 0.28082 0.76993 0.18212 0.0
H340 H 0.24398 0.63458 0.17699 0.0
H341 H 0.22024 0.6513 0.26111 0.0
H342 H 0.22747 0.702 0.2947 0.0
H343 H 0.25856 0.73625 0.24441 0.0
C344 C 0.29776 0.75351 0.17454 0.0
C345 C 0.28905 0.72501 0.14907 0.0
C346 C 0.27007 0.70561 0.17807 0.0
C347 C 0.26578 0.67641 0.15855 0.0
C348 C 0.24778 0.65705 0.18961 0.0
C349 C 0.23405 0.66637 0.23803 0.0
C350 C 0.23812 0.69491 0.25695 0.0
C351 C 0.25601 0.71436 0.22765 0.0
H352 H 0.35214 0.92418 0.22602 0.0
C353 C 0.36682 0.91585 0.25797 0.0
H354 H 0.39693 0.92665 0.32136 0.0
H355 H 0.38403 0.04722 0.16265 0.0
H356 H 0.40304 0.01757 0.08758 0.0
H357 H 0.41387 0.9649 0.10125 0.0
H358 H 0.40469 0.94144 0.18947 0.0
C359 C 0.38295 0.93473 0.28823 0.0
C360 C 0.38032 0.96717 0.28142 0.0
C361 C 0.38769 0.98089 0.23055 0.0
C362 C 0.38361 0.01171 0.22394 0.0
C363 C 0.3885 0.02432 0.17116 0.0
C364 C 0.39916 0.00747 0.12745 0.0
C365 C 0.40508 0.9778 0.13504 0.0
C366 C 0.39946 0.96454 0.18585 0.0
H367 H 0.41639 0.06867 0.24318 0.0
C368 C 0.39512 0.07869 0.25199 0.0
H369 H 0.35054 0.07163 0.27332 0.0
H370 H 0.36393 0.94789 0.3844 0.0
H371 H 0.34842 0.97809 0.46146 0.0
H372 H 0.34528 0.032 0.45226 0.0
H373 H 0.35726 0.05598 0.36573 0.0
C374 C 0.37184 0.06166 0.26447 0.0
C375 C 0.37456 0.02912 0.26963 0.0
C376 C 0.36799 0.01549 0.3209 0.0
C377 C 0.37055 0.98447 0.32661 0.0
C378 C 0.36301 0.9714 0.37791 0.0
C379 C 0.35398 0.98847 0.42255 0.0
C380 C 0.35215 0.01881 0.41735 0.0
C381 C 0.35904 0.03228 0.36728 0.0
H382 H 0.88497 0.34898 0.58315 0.0
C383 C 0.88279 0.36527 0.55054 0.0
H384 H 0.90266 0.3858 0.48213 0.0
H385 H 0.02194 0.33816 0.61459 0.0
H386 H 0.00266 0.35998 0.69881 0.0
H387 H 0.95305 0.38237 0.70035 0.0
H388 H 0.9221 0.38196 0.61915 0.0
C389 C 0.90555 0.37055 0.51614 0.0
C390 C 0.93483 0.3555 0.519 0.0
C391 C 0.95322 0.35785 0.56648 0.0
C392 C 0.9828 0.34732 0.56438 0.0
C393 C 0.99998 0.34754 0.6133 0.0
C394 C 0.98912 0.35977 0.66192 0.0
C395 C 0.96113 0.37221 0.66285 0.0
C396 C 0.94337 0.37148 0.6158 0.0
H397 H 0.03504 0.37842 0.53262 0.0
C398 C 0.04508 0.35817 0.51786 0.0
H399 H 0.03736 0.31442 0.49269 0.0
H400 H 0.90438 0.34257 0.42428 0.0
H401 H 0.92454 0.32164 0.34017 0.0
H402 H 0.97717 0.30802 0.33423 0.0
H403 H 0.00988 0.31482 0.41262 0.0
C404 C 0.02774 0.33492 0.50698 0.0
C405 C 0.99497 0.33749 0.51357 0.0
C406 C 0.9762 0.3333 0.46745 0.0
C407 C 0.94601 0.34189 0.47046 0.0
C408 C 0.92766 0.33718 0.42383 0.0
C409 C 0.9389 0.32503 0.37538 0.0
C410 C 0.96853 0.31733 0.37207 0.0
C411 C 0.98707 0.32139 0.4174 0.0
H412 H 0.58938 0.93036 0.74936 0.0
C413 C 0.60811 0.91955 0.76885 0.0
H414 H 0.64921 0.92524 0.80849 0.0
H415 H 0.61151 0.0518 0.68088 0.0
H416 H 0.6137 0.02408 0.59561 0.0
H417 H 0.62534 0.9711 0.59647 0.0
H418 H 0.63375 0.9454 0.68284 0.0
C419 C 0.63038 0.93584 0.78896 0.0
C420 C 0.6293 0.96863 0.78719 0.0
C421 C 0.62679 0.98376 0.73596 0.0
C422 C 0.62245 0.01475 0.73516 0.0
C423 C 0.61686 0.0287 0.68382 0.0
C424 C 0.61775 0.01298 0.63448 0.0
C425 C 0.62413 0.98313 0.63499 0.0
C426 C 0.62862 0.96858 0.68497 0.0
H427 H 0.65609 0.07274 0.73458 0.0
C428 C 0.6383 0.08175 0.75947 0.0
H429 H 0.60222 0.07251 0.81159 0.0
H430 H 0.63427 0.94671 0.89233 0.0
H431 H 0.63598 0.97489 0.97717 0.0
H432 H 0.63287 0.02901 0.97534 0.0
H433 H 0.62761 0.05524 0.88879 0.0
C434 C 0.61947 0.06353 0.78548 0.0
C435 C 0.62329 0.03095 0.78527 0.0
C436 C 0.62726 0.01595 0.83627 0.0
C437 C 0.62988 0.98478 0.83726 0.0
C438 C 0.63272 0.97037 0.88896 0.0
C439 C 0.63369 0.98628 0.93808 0.0
C440 C 0.63189 0.01673 0.93706 0.0
C441 C 0.62875 0.03151 0.88696 0.0
H442 H 0.96692 0.66324 0.98718 0.0
C443 C 0.958 0.65582 0.02646 0.0
H444 H 0.96661 0.642 0.10785 0.0
H445 H 0.09093 0.58567 0.07474 0.0
H446 H 0.06167 0.54462 0.10747 0.0
H447 H 0.00782 0.54953 0.11954 0.0
H448 H 0.98308 0.59536 0.09928 0.0
C449 C 0.97613 0.6488 0.06864 0.0
C450 C 0.00887 0.64658 0.06262 0.0
C451 C 0.02299 0.61944 0.07483 0.0
C452 C 0.05396 0.61637 0.06691 0.0
C453 C 0.06746 0.58904 0.07921 0.0
C454 C 0.05093 0.56531 0.09824 0.0
C455 C 0.02064 0.5681 0.10513 0.0
C456 C 0.00672 0.5947 0.0935 0.0
H457 H 0.12354 0.64151 0.10055 0.0
C458 C 0.12509 0.63432 0.05785 0.0
H459 H 0.10282 0.62791 0.98204 0.0
H460 H 0.99041 0.70353 0.04783 0.0
H461 H 0.02018 0.74438 0.01546 0.0
H462 H 0.07324 0.73788 0.99582 0.0
H463 H 0.097 0.69048 0.00959 0.0
C464 C 0.10106 0.63462 0.02501 0.0
C465 C 0.07068 0.64015 0.04571 0.0
C466 C 0.05696 0.66765 0.03627 0.0
C467 C 0.02612 0.6711 0.04582 0.0
C468 C 0.0134 0.69928 0.03882 0.0
C469 C 0.03032 0.72301 0.02077 0.0
C470 C 0.06021 0.71937 0.00981 0.0
C471 C 0.07353 0.69207 0.01758 0.0
H472 H 0.57817 0.22802 0.91384 0.0
C473 C 0.56535 0.2086 0.90339 0.0
H474 H 0.52921 0.18158 0.9247 0.0
H475 H 0.54559 0.20141 0.17877 0.0
H476 H 0.58742 0.16923 0.16759 0.0
H477 H 0.60653 0.15727 0.07491 0.0
H478 H 0.58378 0.1778 0.99286 0.0
C479 C 0.54196 0.20112 0.93455 0.0
C480 C 0.53601 0.21465 0.98923 0.0
C481 C 0.5497 0.20268 0.03688 0.0
C482 C 0.53812 0.20899 0.09021 0.0
C483 C 0.55236 0.19666 0.13703 0.0
C484 C 0.5768 0.17831 0.13129 0.0
C485 C 0.5876 0.17164 0.07915 0.0
C486 C 0.57429 0.18357 0.03236 0.0
H487 H 0.45266 0.21792 0.10016 0.0
C488 C 0.46402 0.21481 0.13926 0.0
H489 H 0.50254 0.2183 0.18492 0.0
H490 H 0.50996 0.24658 0.90733 0.0
H491 H 0.47161 0.2837 0.91911 0.0
H492 H 0.45285 0.29604 0.01208 0.0
H493 H 0.47184 0.27077 0.09383 0.0
C494 C 0.49266 0.22218 0.14481 0.0
C495 C 0.51204 0.22624 0.0951 0.0
C496 C 0.50203 0.24234 0.04843 0.0
C497 C 0.51358 0.236 0.99513 0.0
C498 C 0.50195 0.2509 0.94869 0.0
C499 C 0.48013 0.27226 0.95499 0.0
C500 C 0.46953 0.27918 0.00736 0.0
C501 C 0.48034 0.26447 0.05373 0.0
H502 H 0.84805 0.54613 0.1691 0.0
C503 C 0.8389 0.56729 0.15688 0.0
H504 H 0.8068 0.5995 0.17523 0.0
H505 H 0.79235 0.46766 0.30504 0.0
H506 H 0.77599 0.44878 0.21602 0.0
H507 H 0.77182 0.48165 0.1351 0.0
H508 H 0.78432 0.53368 0.14272 0.0
C509 C 0.8152 0.57763 0.18403 0.0
C510 C 0.80513 0.5615 0.23432 0.0
C511 C 0.79629 0.53172 0.23004 0.0
C512 C 0.79826 0.51294 0.27683 0.0
C513 C 0.79107 0.48286 0.27071 0.0
C514 C 0.78161 0.47181 0.21995 0.0
C515 C 0.77928 0.49032 0.17436 0.0
C516 C 0.78659 0.51998 0.1791 0.0
H517 H 0.78141 0.49545 0.41241 0.0
C518 C 0.8049 0.49085 0.40924 0.0
H519 H 0.84456 0.49955 0.36632 0.0
H520 H 0.81538 0.61927 0.25972 0.0
H521 H 0.8275 0.63887 0.35036 0.0
H522 H 0.83054 0.60623 0.43174 0.0
H523 H 0.82146 0.55366 0.42284 0.0
C524 C 0.82104 0.50394 0.36969 0.0
C525 C 0.80846 0.52427 0.32787 0.0
C526 C 0.81271 0.55489 0.33404 0.0
C527 C 0.81087 0.57367 0.28715 0.0
C528 C 0.81653 0.60403 0.29397 0.0
C529 C 0.82343 0.61555 0.34578 0.0
C530 C 0.82515 0.59717 0.39162 0.0
C531 C 0.81999 0.56712 0.38601 0.0
H532 H 0.5493 0.78958 0.59896 0.0
C533 C 0.54139 0.78695 0.64107 0.0
H534 H 0.50689 0.77323 0.69193 0.0
H535 H 0.41594 0.81537 0.51295 0.0
H536 H 0.3952 0.83299 0.59931 0.0
H537 H 0.41901 0.82116 0.68834 0.0
H538 H 0.46347 0.79183 0.69168 0.0
C539 C 0.51513 0.77401 0.6499 0.0
C540 C 0.49432 0.76998 0.60239 0.0
C541 C 0.46722 0.78572 0.60206 0.0
C542 C 0.45331 0.79241 0.55084 0.0
C543 C 0.42733 0.80973 0.55082 0.0
C544 C 0.41517 0.81991 0.60005 0.0
C545 C 0.4286 0.81326 0.65016 0.0
C546 C 0.45434 0.79649 0.65141 0.0
H547 H 0.42523 0.7699 0.42174 0.0
C548 C 0.43652 0.7907 0.41521 0.0
H549 H 0.46997 0.81953 0.44263 0.0
H550 H 0.53858 0.72991 0.5919 0.0
H551 H 0.55663 0.70857 0.50568 0.0
H552 H 0.53333 0.7214 0.4165 0.0
H553 H 0.49155 0.75523 0.41294 0.0
C554 C 0.45874 0.79868 0.44887 0.0
C555 C 0.46617 0.78285 0.50067 0.0
C556 C 0.49017 0.76302 0.50192 0.0
C557 C 0.50399 0.75616 0.5531 0.0
C558 C 0.52792 0.73624 0.55361 0.0
C559 C 0.53829 0.72383 0.50464 0.0
C560 C 0.52515 0.73104 0.4544 0.0
C561 C 0.50135 0.7505 0.4528 0.0
H562 H 0.16559 0.50663 0.853 0.0
C563 C 0.18397 0.51942 0.86927 0.0
H564 H 0.22891 0.53085 0.85767 0.0
H565 H 0.1823 0.40944 0.72225 0.0
H566 H 0.1885 0.38495 0.81059 0.0
H567 H 0.20693 0.4121 0.89193 0.0
H568 H 0.21895 0.46426 0.88515 0.0
C569 C 0.2105 0.51715 0.84483 0.0
C570 C 0.21282 0.4988 0.79417 0.0
C571 C 0.20763 0.46819 0.79773 0.0
C572 C 0.19761 0.45252 0.75056 0.0
C573 C 0.19041 0.4224 0.75641 0.0
C574 C 0.19388 0.40806 0.80697 0.0
C575 C 0.20422 0.42335 0.8528 0.0
C576 C 0.21093 0.45315 0.84851 0.0
H577 H 0.20137 0.42411 0.62351 0.0
C578 C 0.17929 0.43348 0.62359 0.0
H579 H 0.15093 0.4656 0.65731 0.0
H580 H 0.22901 0.55529 0.77105 0.0
H581 H 0.22703 0.57913 0.68092 0.0
H582 H 0.21025 0.55184 0.59849 0.0
H583 H 0.19528 0.50048 0.60571 0.0
C584 C 0.17279 0.45575 0.65791 0.0
C585 C 0.19355 0.46762 0.69979 0.0
C586 C 0.20331 0.49704 0.69451 0.0
C587 C 0.21311 0.51269 0.74187 0.0
C588 C 0.22141 0.5425 0.73613 0.0
C589 C 0.22043 0.55635 0.68473 0.0
C590 C 0.21097 0.54098 0.6383 0.0
C591 C 0.20236 0.51166 0.64294 0.0
loop_
_geom_bond_atom_site_label_1
_geom_bond_atom_site_label_2
_geom_bond_distance
_geom_bond_site_symmetry_2
_ccdc_geom_bond_type
Mg0 O1 2.028 . S
Mg0 O7 1.986 . S
Mg0 O9 2.114 . S
Mg0 O10 2.251 . S
Mg0 O13 2.010 . S
O1 Mg0 2.028 . S
O1 C4 1.250 . S
O2 Mg3 2.028 . S
O2 C4 1.248 . S
Mg3 O2 2.028 . S
Mg3 O8 2.032 . S
Mg3 O10 2.079 . S
C4 O1 1.250 . S
C4 O2 1.248 . S
C5 O6 1.264 . S
C5 O13 1.249 . S
O6 C5 1.264 . S
O7 Mg0 1.986 . S
O7 C11 1.246 . S
O8 Mg3 2.032 . S
O8 C11 1.259 . S
O9 Mg0 2.114 . S
O9 C12 1.252 . S
O10 Mg0 2.251 . S
O10 Mg3 2.079 . S
O10 C12 1.273 . S
C11 O7 1.246 . S
C11 O8 1.259 . S
C12 O9 1.252 . S
C12 O10 1.273 . S
O13 Mg0 2.010 . S
O13 C5 1.249 . S
Mg14 O15 2.028 . S
Mg14 O21 1.986 . S
Mg14 O23 2.114 . S
Mg14 O24 2.251 . S
Mg14 O27 2.010 . S
O15 Mg14 2.028 . S
O15 C18 1.250 . S
O16 Mg17 2.028 . S
O16 C18 1.248 . S
Mg17 O16 2.028 . S
Mg17 O22 2.032 . S
Mg17 O24 2.079 . S
C18 O15 1.250 . S
C18 O16 1.248 . S
C19 O20 1.264 . S
C19 O27 1.249 . S
O20 C19 1.264 . S
O21 Mg14 1.986 . S
O21 C25 1.246 . S
O22 Mg17 2.032 . S
O22 C25 1.259 . S
O23 Mg14 2.114 . S
O23 C26 1.252 . S
O24 Mg14 2.251 . S
O24 Mg17 2.079 . S
O24 C26 1.273 . S
C25 O21 1.246 . S
C25 O22 1.259 . S
C26 O23 1.252 . S
C26 O24 1.273 . S
O27 Mg14 2.010 . S
O27 C19 1.249 . S
Mg28 O29 2.028 . S
Mg28 O35 1.986 . S
Mg28 O37 2.114 . S
Mg28 O38 2.251 . S
Mg28 O41 2.010 . S
O29 Mg28 2.028 . S
O29 C32 1.250 . S
O30 Mg31 2.028 . S
O30 C32 1.248 . S
Mg31 O30 2.028 . S
Mg31 O36 2.032 . S
Mg31 O38 2.079 . S
C32 O29 1.250 . S
C32 O30 1.248 . S
C33 O34 1.264 . S
C33 O41 1.249 . S
O34 C33 1.264 . S
O35 Mg28 1.986 . S
O35 C39 1.246 . S
O36 Mg31 2.032 . S
O36 C39 1.259 . S
O37 Mg28 2.114 . S
O37 C40 1.252 . S
O38 Mg28 2.251 . S
O38 Mg31 2.079 . S
O38 C40 1.273 . S
C39 O35 1.246 . S
C39 O36 1.259 . S
C40 O37 1.252 . S
C40 O38 1.273 . S
O41 Mg28 2.010 . S
O41 C33 1.249 . S
Mg42 O43 2.028 . S
Mg42 O49 1.986 1_554 S
Mg42 O51 2.114 . S
Mg42 O52 2.251 . S
Mg42 O55 2.010 . S
O43 Mg42 2.028 . S
O43 C46 1.250 . S
O44 Mg45 2.028 . S
O44 C46 1.248 . S
Mg45 O44 2.028 . S
Mg45 O50 2.032 1_554 S
Mg45 O52 2.079 . S
C46 O43 1.250 . S
C46 O44 1.248 . S
C47 O48 1.264 . S
C47 O55 1.249 . S
O48 C47 1.264 . S
O49 Mg42 1.986 1_556 S
O49 C53 1.246 . S
O50 Mg45 2.032 1_556 S
O50 C53 1.259 . S
O51 Mg42 2.114 . S
O51 C54 1.252 . S
O52 Mg42 2.251 . S
O52 Mg45 2.079 . S
O52 C54 1.273 . S
C53 O49 1.246 . S
C53 O50 1.259 . S
C54 O51 1.252 . S
C54 O52 1.273 . S
O55 Mg42 2.010 . S
O55 C47 1.249 . S
Mg56 O57 2.028 . S
Mg56 O63 1.986 . S
Mg56 O65 2.114 . S
Mg56 O66 2.251 . S
Mg56 O69 2.010 . S
O57 Mg56 2.028 . S
O57 C60 1.250 . S
O58 Mg59 2.028 . S
O58 C60 1.248 . S
Mg59 O58 2.028 . S
Mg59 O64 2.032 . S
Mg59 O66 2.079 . S
C60 O57 1.250 . S
C60 O58 1.248 . S
C61 O62 1.264 . S
C61 O69 1.249 . S
O62 C61 1.264 . S
O63 Mg56 1.986 . S
O63 C67 1.246 . S
O64 Mg59 2.032 . S
O64 C67 1.259 . S
O65 Mg56 2.114 . S
O65 C68 1.252 . S
O66 Mg56 2.251 . S
O66 Mg59 2.079 . S
O66 C68 1.273 . S
C67 O63 1.246 . S
C67 O64 1.259 . S
C68 O65 1.252 . S
C68 O66 1.273 . S
O69 Mg56 2.010 . S
O69 C61 1.249 . S
Mg70 O71 2.028 . S
Mg70 O77 1.986 . S
Mg70 O79 2.114 . S
Mg70 O80 2.251 . S
Mg70 O83 2.010 . S
O71 Mg70 2.028 . S
O71 C74 1.250 . S
O72 Mg73 2.028 . S
O72 C74 1.248 . S
Mg73 O72 2.028 . S
Mg73 O78 2.032 . S
Mg73 O80 2.079 . S
C74 O71 1.250 . S
C74 O72 1.248 . S
C75 O76 1.264 . S
C75 O83 1.249 . S
O76 C75 1.264 . S
O77 Mg70 1.986 . S
O77 C81 1.246 . S
O78 Mg73 2.032 . S
O78 C81 1.259 . S
O79 Mg70 2.114 . S
O79 C82 1.252 . S
O80 Mg70 2.251 . S
O80 Mg73 2.079 . S
O80 C82 1.273 . S
C81 O77 1.246 . S
C81 O78 1.259 . S
C82 O79 1.252 . S
C82 O80 1.273 . S
O83 Mg70 2.010 . S
O83 C75 1.249 . S
Mg84 O85 2.028 . S
Mg84 O91 1.986 . S
Mg84 O93 2.114 . S
Mg84 O94 2.251 . S
Mg84 O97 2.010 . S
O85 Mg84 2.028 . S
O85 C88 1.250 . S
O86 Mg87 2.028 . S
O86 C88 1.248 . S
Mg87 O86 2.028 . S
Mg87 O92 2.032 . S
Mg87 O94 2.079 . S
C88 O85 1.250 . S
C88 O86 1.248 . S
C89 O90 1.264 . S
C89 O97 1.249 . S
O90 C89 1.264 . S
O91 Mg84 1.986 . S
O91 C95 1.246 . S
O92 Mg87 2.032 . S
O92 C95 1.259 . S
O93 Mg84 2.114 . S
O93 C96 1.252 . S
O94 Mg84 2.251 . S
O94 Mg87 2.079 . S
O94 C96 1.273 . S
C95 O91 1.246 . S
C95 O92 1.259 . S
C96 O93 1.252 . S
C96 O94 1.273 . S
O97 Mg84 2.010 . S
O97 C89 1.249 . S
Mg98 O99 2.028 1_554 S
Mg98 O105 1.986 . S
Mg98 O107 2.114 1_554 S
Mg98 O108 2.251 . S
Mg98 O111 2.010 . S
O99 Mg98 2.028 1_556 S
O99 C102 1.250 . S
O100 Mg101 2.028 1_556 S
O100 C102 1.248 . S
Mg101 O100 2.028 1_554 S
Mg101 O106 2.032 . S
Mg101 O108 2.079 . S
C102 O99 1.250 . S
C102 O100 1.248 . S
C103 O104 1.264 . S
C103 O111 1.249 . S
O104 C103 1.264 . S
O105 Mg98 1.986 . S
O105 C109 1.246 . S
O106 Mg101 2.032 . S
O106 C109 1.259 . S
O107 Mg98 2.114 1_556 S
O107 C110 1.252 1_556 S
O108 Mg98 2.251 . S
O108 Mg101 2.079 . S
O108 C110 1.273 . S
C109 O105 1.246 . S
C109 O106 1.259 . S
C110 O107 1.252 1_554 S
C110 O108 1.273 . S
O111 Mg98 2.010 . S
O111 C103 1.249 . S
H112 C113 0.951 . S
C113 H112 0.951 . S
C113 C119 1.265 . S
H114 C119 0.950 . S
H115 C123 0.949 . S
H116 C124 0.950 . S
H117 C125 0.951 . S
H118 C126 0.951 . S
C119 C113 1.265 . S
C119 H114 0.950 . S
C119 C120 1.478 . S
C120 C119 1.478 . S
C120 C121 1.397 . S
C120 C137 1.394 . S
C121 C120 1.397 . S
C121 C122 1.438 . S
C121 C126 1.429 . S
C122 C121 1.438 . S
C122 C123 1.428 . S
C122 C135 1.394 . S
C123 H115 0.949 . S
C123 C122 1.428 . S
C123 C124 1.345 . S
C124 H116 0.950 . S
C124 C123 1.345 . S
C124 C125 1.424 . S
C125 H117 0.951 . S
C125 C124 1.424 . S
C125 C126 1.347 . S
C126 H118 0.951 . S
C126 C121 1.429 . S
C126 C125 1.347 . S
H127 C128 0.951 . S
C128 H127 0.951 . S
C128 C134 1.265 . S
H129 C134 0.950 . S
H130 C138 0.949 . S
H131 C139 0.950 . S
H132 C140 0.951 . S
H133 C141 0.951 . S
C134 C128 1.265 . S
C134 H129 0.950 . S
C134 C135 1.478 . S
C135 C122 1.394 . S
C135 C134 1.478 . S
C135 C136 1.397 . S
C136 C135 1.397 . S
C136 C137 1.438 . S
C136 C141 1.429 . S
C137 C120 1.394 . S
C137 C136 1.438 . S
C137 C138 1.428 . S
C138 H130 0.949 . S
C138 C137 1.428 . S
C138 C139 1.345 . S
C139 H131 0.950 . S
C139 C138 1.345 . S
C139 C140 1.424 . S
C140 H132 0.951 . S
C140 C139 1.424 . S
C140 C141 1.347 . S
C141 H133 0.951 . S
C141 C136 1.429 . S
C141 C140 1.347 . S
H142 C143 0.951 . S
C143 H142 0.951 . S
C143 C149 1.265 . S
H144 C149 0.950 . S
H145 C153 0.949 . S
H146 C154 0.950 . S
H147 C155 0.951 . S
H148 C156 0.951 . S
C149 C143 1.265 . S
C149 H144 0.950 . S
C149 C150 1.478 . S
C150 C149 1.478 . S
C150 C151 1.397 . S
C150 C167 1.394 . S
C151 C150 1.397 . S
C151 C152 1.438 . S
C151 C156 1.429 . S
C152 C151 1.438 . S
C152 C153 1.428 . S
C152 C165 1.394 . S
C153 H145 0.949 . S
C153 C152 1.428 . S
C153 C154 1.345 . S
C154 H146 0.950 . S
C154 C153 1.345 . S
C154 C155 1.424 . S
C155 H147 0.951 . S
C155 C154 1.424 . S
C155 C156 1.347 . S
C156 H148 0.951 . S
C156 C151 1.429 . S
C156 C155 1.347 . S
H157 C158 0.951 . S
C158 H157 0.951 . S
C158 C164 1.265 . S
H159 C164 0.950 . S
H160 C168 0.949 . S
H161 C169 0.950 . S
H162 C170 0.951 . S
H163 C171 0.951 . S
C164 C158 1.265 . S
C164 H159 0.950 . S
C164 C165 1.478 . S
C165 C152 1.394 . S
C165 C164 1.478 . S
C165 C166 1.397 . S
C166 C165 1.397 . S
C166 C167 1.438 . S
C166 C171 1.429 . S
C167 C150 1.394 . S
C167 C166 1.438 . S
C167 C168 1.428 . S
C168 H160 0.949 . S
C168 C167 1.428 . S
C168 C169 1.345 . S
C169 H161 0.950 . S
C169 C168 1.345 . S
C169 C170 1.424 . S
C170 H162 0.951 . S
C170 C169 1.424 . S
C170 C171 1.347 . S
C171 H163 0.951 . S
C171 C166 1.429 . S
C171 C170 1.347 . S
H172 C173 0.951 . S
C173 H172 0.951 . S
C173 C179 1.265 . S
H174 C179 0.950 . S
H175 C183 0.949 . S
H176 C184 0.950 . S
H177 C185 0.952 . S
H178 C186 0.951 . S
C179 C173 1.265 . S
C179 H174 0.950 . S
C179 C180 1.478 . S
C180 C179 1.478 . S
C180 C181 1.397 . S
C180 C197 1.394 . S
C181 C180 1.397 . S
C181 C182 1.438 1_554 S
C181 C186 1.429 . S
C182 C181 1.438 1_556 S
C182 C183 1.428 . S
C182 C195 1.394 . S
C183 H175 0.949 . S
C183 C182 1.428 . S
C183 C184 1.345 . S
C184 H176 0.950 . S
C184 C183 1.345 . S
C184 C185 1.424 . S
C185 H177 0.952 . S
C185 C184 1.424 . S
C185 C186 1.347 1_556 S
C186 H178 0.951 . S
C186 C181 1.429 . S
C186 C185 1.347 1_554 S
H187 C188 0.951 . S
C188 H187 0.951 . S
C188 C194 1.265 . S
H189 C194 0.950 . S
H190 C198 0.949 . S
H191 C199 0.950 . S
H192 C200 0.951 . S
H193 C201 0.951 1_556 S
C194 C188 1.265 . S
C194 H189 0.950 . S
C194 C195 1.478 . S
C195 C182 1.394 . S
C195 C194 1.478 . S
C195 C196 1.397 1_556 S
C196 C195 1.397 1_554 S
C196 C197 1.438 . S
C196 C201 1.429 . S
C197 C180 1.394 . S
C197 C196 1.438 . S
C197 C198 1.428 . S
C198 H190 0.949 . S
C198 C197 1.428 . S
C198 C199 1.345 . S
C199 H191 0.950 . S
C199 C198 1.345 . S
C199 C200 1.424 . S
C200 H192 0.951 . S
C200 C199 1.424 . S
C200 C201 1.347 . S
C201 H193 0.951 1_554 S
C201 C196 1.429 . S
C201 C200 1.347 . S
H202 C203 0.951 . S
C203 H202 0.951 . S
C203 C209 1.265 . S
H204 C209 0.950 . S
H205 C213 0.949 . S
H206 C214 0.950 . S
H207 C215 0.951 . S
H208 C216 0.951 . S
C209 C203 1.265 . S
C209 H204 0.950 . S
C209 C210 1.478 . S
C210 C209 1.478 . S
C210 C211 1.397 . S
C210 C227 1.394 . S
C211 C210 1.397 . S
C211 C212 1.438 . S
C211 C216 1.429 . S
C212 C211 1.438 . S
C212 C213 1.428 . S
C212 C225 1.394 . S
C213 H205 0.949 . S
C213 C212 1.428 . S
C213 C214 1.345 . S
C214 H206 0.950 . S
C214 C213 1.345 . S
C214 C215 1.424 . S
C215 H207 0.951 . S
C215 C214 1.424 . S
C215 C216 1.347 . S
C216 H208 0.951 . S
C216 C211 1.429 . S
C216 C215 1.347 . S
H217 C218 0.951 . S
C218 H217 0.951 . S
C218 C224 1.265 . S
H219 C224 0.950 . S
H220 C228 0.949 . S
H221 C229 0.950 . S
H222 C230 0.951 . S
H223 C231 0.951 . S
C224 C218 1.265 . S
C224 H219 0.950 . S
C224 C225 1.478 . S
C225 C212 1.394 . S
C225 C224 1.478 . S
C225 C226 1.397 . S
C226 C225 1.397 . S
C226 C227 1.438 . S
C226 C231 1.429 . S
C227 C210 1.394 . S
C227 C226 1.438 . S
C227 C228 1.428 . S
C228 H220 0.949 . S
C228 C227 1.428 . S
C228 C229 1.345 . S
C229 H221 0.950 . S
C229 C228 1.345 . S
C229 C230 1.424 . S
C230 H222 0.951 . S
C230 C229 1.424 . S
C230 C231 1.347 . S
C231 H223 0.951 . S
C231 C226 1.429 . S
C231 C230 1.347 . S
H232 C233 0.951 . S
C233 H232 0.951 . S
C233 C239 1.265 . S
H234 C239 0.950 . S
H235 C243 0.949 . S
H236 C244 0.950 . S
H237 C245 0.951 . S
H238 C246 0.951 . S
C239 C233 1.265 . S
C239 H234 0.950 . S
C239 C240 1.478 . S
C240 C239 1.478 . S
C240 C241 1.397 . S
C240 C257 1.394 . S
C241 C240 1.397 . S
C241 C242 1.438 . S
C241 C246 1.429 . S
C242 C241 1.438 . S
C242 C243 1.428 . S
C242 C255 1.394 . S
C243 H235 0.949 . S
C243 C242 1.428 . S
C243 C244 1.345 . S
C244 H236 0.950 . S
C244 C243 1.345 . S
C244 C245 1.424 . S
C245 H237 0.951 . S
C245 C244 1.424 . S
C245 C246 1.347 . S
C246 H238 0.951 . S
C246 C241 1.429 . S
C246 C245 1.347 . S
H247 C248 0.951 . S
C248 H247 0.951 . S
C248 C254 1.265 . S
H249 C254 0.950 . S
H250 C258 0.949 . S
H251 C259 0.950 . S
H252 C260 0.951 . S
H253 C261 0.951 . S
C254 C248 1.265 . S
C254 H249 0.950 . S
C254 C255 1.478 . S
C255 C242 1.394 . S
C255 C254 1.478 . S
C255 C256 1.397 . S
C256 C255 1.397 . S
C256 C257 1.438 . S
C256 C261 1.429 . S
C257 C240 1.394 . S
C257 C256 1.438 . S
C257 C258 1.428 . S
C258 H250 0.949 . S
C258 C257 1.428 . S
C258 C259 1.345 . S
C259 H251 0.950 . S
C259 C258 1.345 . S
C259 C260 1.424 . S
C260 H252 0.951 . S
C260 C259 1.424 . S
C260 C261 1.347 . S
C261 H253 0.951 . S
C261 C256 1.429 . S
C261 C260 1.347 . S
H262 C263 0.951 . S
C263 H262 0.951 . S
C263 C269 1.265 . S
H264 C269 0.950 . S
H265 C273 0.949 . S
H266 C274 0.950 . S
H267 C275 0.951 . S
H268 C276 0.951 . S
C269 C263 1.265 . S
C269 H264 0.950 . S
C269 C270 1.478 . S
C270 C269 1.478 . S
C270 C271 1.397 . S
C270 C287 1.394 . S
C271 C270 1.397 . S
C271 C272 1.438 . S
C271 C276 1.429 . S
C272 C271 1.438 . S
C272 C273 1.428 . S
C272 C285 1.394 . S
C273 H265 0.949 . S
C273 C272 1.428 . S
C273 C274 1.345 . S
C274 H266 0.950 . S
C274 C273 1.345 . S
C274 C275 1.424 . S
C275 H267 0.951 . S
C275 C274 1.424 . S
C275 C276 1.347 . S
C276 H268 0.951 . S
C276 C271 1.429 . S
C276 C275 1.347 . S
H277 C278 0.951 . S
C278 H277 0.951 . S
C278 C284 1.265 . S
H279 C284 0.950 . S
H280 C288 0.949 . S
H281 C289 0.950 . S
H282 C290 0.951 . S
H283 C291 0.951 . S
C284 C278 1.265 . S
C284 H279 0.950 . S
C284 C285 1.478 . S
C285 C272 1.394 . S
C285 C284 1.478 . S
C285 C286 1.397 . S
C286 C285 1.397 . S
C286 C287 1.438 . S
C286 C291 1.429 . S
C287 C270 1.394 . S
C287 C286 1.438 . S
C287 C288 1.428 . S
C288 H280 0.949 . S
C288 C287 1.428 . S
C288 C289 1.345 . S
C289 H281 0.950 . S
C289 C288 1.345 . S
C289 C290 1.424 . S
C290 H282 0.951 . S
C290 C289 1.424 . S
C290 C291 1.347 . S
C291 H283 0.951 . S
C291 C286 1.429 . S
C291 C290 1.347 . S
H292 C293 0.951 . S
C293 H292 0.951 . S
C293 C299 1.265 . S
H294 C299 0.950 . S
H295 C303 0.949 . S
H296 C304 0.950 . S
H297 C305 0.951 . S
H298 C306 0.951 . S
C299 C293 1.265 . S
C299 H294 0.950 . S
C299 C300 1.478 . S
C300 C299 1.478 . S
C300 C301 1.397 . S
C300 C317 1.394 . S
C301 C300 1.397 . S
C301 C302 1.438 . S
C301 C306 1.429 1_556 S
C302 C301 1.438 . S
C302 C303 1.428 . S
C302 C315 1.394 . S
C303 H295 0.949 . S
C303 C302 1.428 . S
C303 C304 1.345 1_556 S
C304 H296 0.950 . S
C304 C303 1.345 1_554 S
C304 C305 1.424 . S
C305 H297 0.951 . S
C305 C304 1.424 . S
C305 C306 1.347 . S
C306 H298 0.951 . S
C306 C301 1.429 1_554 S
C306 C305 1.347 . S
H307 C308 0.951 . S
C308 H307 0.951 . S
C308 C314 1.265 . S
H309 C314 0.950 . S
H310 C318 0.949 . S
H311 C319 0.950 . S
H312 C320 0.951 . S
H313 C321 0.951 . S
C314 C308 1.265 . S
C314 H309 0.950 . S
C314 C315 1.478 . S
C315 C302 1.394 . S
C315 C314 1.478 . S
C315 C316 1.397 . S
C316 C315 1.397 . S
C316 C317 1.438 . S
C316 C321 1.429 . S
C317 C300 1.394 . S
C317 C316 1.438 . S
C317 C318 1.428 . S
C318 H310 0.949 . S
C318 C317 1.428 . S
C318 C319 1.345 . S
C319 H311 0.950 . S
C319 C318 1.345 . S
C319 C320 1.424 . S
C320 H312 0.951 . S
C320 C319 1.424 . S
C320 C321 1.347 . S
C321 H313 0.951 . S
C321 C316 1.429 . S
C321 C320 1.347 . S
H322 C323 0.951 . S
C323 H322 0.951 . S
C323 C329 1.265 . S
H324 C329 0.950 . S
H325 C333 0.949 . S
H326 C334 0.950 . S
H327 C335 0.951 1_556 S
H328 C336 0.951 . S
C329 C323 1.265 . S
C329 H324 0.950 . S
C329 C330 1.478 . S
C330 C329 1.478 . S
C330 C331 1.397 . S
C330 C347 1.394 . S
C331 C330 1.397 . S
C331 C332 1.438 . S
C331 C336 1.429 . S
C332 C331 1.438 . S
C332 C333 1.428 . S
C332 C345 1.394 . S
C333 H325 0.949 . S
C333 C332 1.428 . S
C333 C334 1.345 . S
C334 H326 0.950 . S
C334 C333 1.345 . S
C334 C335 1.424 . S
C335 H327 0.951 1_554 S
C335 C334 1.424 . S
C335 C336 1.347 . S
C336 H328 0.951 . S
C336 C331 1.429 . S
C336 C335 1.347 . S
H337 C338 0.951 . S
C338 H337 0.951 . S
C338 C344 1.265 . S
H339 C344 0.950 . S
H340 C348 0.949 . S
H341 C349 0.950 . S
H342 C350 0.951 . S
H343 C351 0.951 . S
C344 C338 1.265 . S
C344 H339 0.950 . S
C344 C345 1.478 . S
C345 C332 1.394 . S
C345 C344 1.478 . S
C345 C346 1.397 . S
C346 C345 1.397 . S
C346 C347 1.438 . S
C346 C351 1.429 . S
C347 C330 1.394 . S
C347 C346 1.438 . S
C347 C348 1.428 . S
C348 H340 0.949 . S
C348 C347 1.428 . S
C348 C349 1.345 . S
C349 H341 0.950 . S
C349 C348 1.345 . S
C349 C350 1.424 . S
C350 H342 0.951 . S
C350 C349 1.424 . S
C350 C351 1.347 . S
C351 H343 0.951 . S
C351 C346 1.429 . S
C351 C350 1.347 . S
H352 C353 0.951 . S
C353 H352 0.951 . S
C353 C359 1.265 . S
H354 C359 0.950 . S
H355 C363 0.949 . S
H356 C364 0.950 . S
H357 C365 0.951 . S
H358 C366 0.951 . S
C359 C353 1.265 . S
C359 H354 0.950 . S
C359 C360 1.478 . S
C360 C359 1.478 . S
C360 C361 1.397 . S
C360 C377 1.394 . S
C361 C360 1.397 . S
C361 C362 1.438 1_565 S
C361 C366 1.429 . S
C362 C361 1.438 1_545 S
C362 C363 1.428 . S
C362 C375 1.394 . S
C363 H355 0.949 . S
C363 C362 1.428 . S
C363 C364 1.345 . S
C364 H356 0.950 . S
C364 C363 1.345 . S
C364 C365 1.424 1_545 S
C365 H357 0.951 . S
C365 C364 1.424 1_565 S
C365 C366 1.347 . S
C366 H358 0.951 . S
C366 C361 1.429 . S
C366 C365 1.347 . S
H367 C368 0.951 . S
C368 H367 0.951 . S
C368 C374 1.265 . S
H369 C374 0.950 . S
H370 C378 0.949 . S
H371 C379 0.950 . S
H372 C380 0.951 . S
H373 C381 0.951 . S
C374 C368 1.265 . S
C374 H369 0.950 . S
C374 C375 1.478 . S
C375 C362 1.394 . S
C375 C374 1.478 . S
C375 C376 1.397 . S
C376 C375 1.397 . S
C376 C377 1.438 1_545 S
C376 C381 1.429 . S
C377 C360 1.394 . S
C377 C376 1.438 1_565 S
C377 C378 1.428 . S
C378 H370 0.949 . S
C378 C377 1.428 . S
C378 C379 1.345 . S
C379 H371 0.950 . S
C379 C378 1.345 . S
C379 C380 1.424 1_565 S
C380 H372 0.951 . S
C380 C379 1.424 1_545 S
C380 C381 1.347 . S
C381 H373 0.951 . S
C381 C376 1.429 . S
C381 C380 1.347 . S
H382 C383 0.951 . S
C383 H382 0.951 . S
C383 C389 1.265 . S
H384 C389 0.950 . S
H385 C393 0.949 . S
H386 C394 0.950 . S
H387 C395 0.951 . S
H388 C396 0.951 . S
C389 C383 1.265 . S
C389 H384 0.950 . S
C389 C390 1.478 . S
C390 C389 1.478 . S
C390 C391 1.397 . S
C390 C407 1.394 . S
C391 C390 1.397 . S
C391 C392 1.438 1_655 S
C391 C396 1.429 . S
C392 C391 1.438 1_455 S
C392 C393 1.428 . S
C392 C405 1.394 . S
C393 H385 0.949 . S
C393 C392 1.428 . S
C393 C394 1.345 . S
C394 H386 0.950 . S
C394 C393 1.345 . S
C394 C395 1.424 1_455 S
C395 H387 0.951 . S
C395 C394 1.424 1_655 S
C395 C396 1.347 . S
C396 H388 0.951 . S
C396 C391 1.429 . S
C396 C395 1.347 . S
H397 C398 0.951 . S
C398 H397 0.951 . S
C398 C404 1.265 . S
H399 C404 0.950 . S
H400 C408 0.949 . S
H401 C409 0.950 . S
H402 C410 0.951 . S
H403 C411 0.951 . S
C404 C398 1.265 . S
C404 H399 0.950 . S
C404 C405 1.478 . S
C405 C392 1.394 . S
C405 C404 1.478 . S
C405 C406 1.397 . S
C406 C405 1.397 . S
C406 C407 1.438 1_455 S
C406 C411 1.429 . S
C407 C390 1.394 . S
C407 C406 1.438 1_655 S
C407 C408 1.428 . S
C408 H400 0.949 . S
C408 C407 1.428 . S
C408 C409 1.345 . S
C409 H401 0.950 . S
C409 C408 1.345 . S
C409 C410 1.424 1_655 S
C410 H402 0.951 . S
C410 C409 1.424 1_455 S
C410 C411 1.347 . S
C411 H403 0.951 . S
C411 C406 1.429 . S
C411 C410 1.347 . S
H412 C413 0.951 . S
C413 H412 0.951 . S
C413 C419 1.265 . S
H414 C419 0.950 . S
H415 C423 0.949 . S
H416 C424 0.950 . S
H417 C425 0.951 . S
H418 C426 0.951 . S
C419 C413 1.265 . S
C419 H414 0.950 . S
C419 C420 1.478 . S
C420 C419 1.478 . S
C420 C421 1.397 . S
C420 C437 1.394 . S
C421 C420 1.397 . S
C421 C422 1.438 1_565 S
C421 C426 1.429 . S
C422 C421 1.438 1_545 S
C422 C423 1.428 . S
C422 C435 1.394 . S
C423 H415 0.949 . S
C423 C422 1.428 . S
C423 C424 1.345 . S
C424 H416 0.950 . S
C424 C423 1.345 . S
C424 C425 1.424 1_545 S
C425 H417 0.951 . S
C425 C424 1.424 1_565 S
C425 C426 1.347 . S
C426 H418 0.951 . S
C426 C421 1.429 . S
C426 C425 1.347 . S
H427 C428 0.951 . S
C428 H427 0.951 . S
C428 C434 1.265 . S
H429 C434 0.950 . S
H430 C438 0.949 . S
H431 C439 0.950 . S
H432 C440 0.951 . S
H433 C441 0.951 . S
C434 C428 1.265 . S
C434 H429 0.950 . S
C434 C435 1.478 . S
C435 C422 1.394 . S
C435 C434 1.478 . S
C435 C436 1.397 . S
C436 C435 1.397 . S
C436 C437 1.438 1_545 S
C436 C441 1.429 . S
C437 C420 1.394 . S
C437 C436 1.438 1_565 S
C437 C438 1.428 . S
C438 H430 0.949 . S
C438 C437 1.428 . S
C438 C439 1.345 . S
C439 H431 0.950 . S
C439 C438 1.345 . S
C439 C440 1.424 1_565 S
C440 H432 0.951 . S
C440 C439 1.424 1_545 S
C440 C441 1.347 . S
C441 H433 0.951 . S
C441 C436 1.429 . S
C441 C440 1.347 . S
H442 C443 0.951 1_556 S
C443 H442 0.951 1_554 S
C443 C449 1.265 . S
H444 C449 0.950 . S
H445 C453 0.949 . S
H446 C454 0.950 . S
H447 C455 0.951 . S
H448 C456 0.951 . S
C449 C443 1.265 . S
C449 H444 0.950 . S
C449 C450 1.478 . S
C450 C449 1.478 . S
C450 C451 1.397 . S
C450 C467 1.394 . S
C451 C450 1.397 . S
C451 C452 1.438 1_655 S
C451 C456 1.429 . S
C452 C451 1.438 1_455 S
C452 C453 1.428 . S
C452 C465 1.394 . S
C453 H445 0.949 . S
C453 C452 1.428 . S
C453 C454 1.345 . S
C454 H446 0.950 . S
C454 C453 1.345 . S
C454 C455 1.424 1_455 S
C455 H447 0.951 . S
C455 C454 1.424 1_655 S
C455 C456 1.347 . S
C456 H448 0.951 . S
C456 C451 1.429 . S
C456 C455 1.347 . S
H457 C458 0.951 . S
C458 H457 0.951 . S
C458 C464 1.265 . S
H459 C464 0.950 1_556 S
H460 C468 0.949 . S
H461 C469 0.950 . S
H462 C470 0.951 . S
H463 C471 0.951 . S
C464 C458 1.265 . S
C464 H459 0.950 1_554 S
C464 C465 1.478 . S
C465 C452 1.394 . S
C465 C464 1.478 . S
C465 C466 1.397 1_554 S
C466 C465 1.397 1_556 S
C466 C467 1.438 1_456 S
C466 C471 1.429 . S
C467 C450 1.394 . S
C467 C466 1.438 1_654 S
C467 C468 1.428 1_554 S
C468 H460 0.949 . S
C468 C467 1.428 1_556 S
C468 C469 1.345 . S
C469 H461 0.950 . S
C469 C468 1.345 . S
C469 C470 1.424 1_655 S
C470 H462 0.951 . S
C470 C469 1.424 1_455 S
C470 C471 1.347 . S
C471 H463 0.951 . S
C471 C466 1.429 . S
C471 C470 1.347 . S
H472 C473 0.951 . S
C473 H472 0.951 . S
C473 C479 1.265 . S
H474 C479 0.950 . S
H475 C483 0.949 . S
H476 C484 0.950 . S
H477 C485 0.951 . S
H478 C486 0.951 . S
C479 C473 1.265 . S
C479 H474 0.950 . S
C479 C480 1.478 . S
C480 C479 1.478 . S
C480 C481 1.397 1_556 S
C480 C497 1.394 . S
C481 C480 1.397 1_554 S
C481 C482 1.438 . S
C481 C486 1.429 . S
C482 C481 1.438 . S
C482 C483 1.428 . S
C482 C495 1.394 . S
C483 H475 0.949 . S
C483 C482 1.428 . S
C483 C484 1.345 . S
C484 H476 0.950 . S
C484 C483 1.345 . S
C484 C485 1.424 . S
C485 H477 0.951 . S
C485 C484 1.424 . S
C485 C486 1.347 . S
C486 H478 0.951 . S
C486 C481 1.429 . S
C486 C485 1.347 . S
H487 C488 0.951 . S
C488 H487 0.951 . S
C488 C494 1.265 . S
H489 C494 0.950 . S
H490 C498 0.949 . S
H491 C499 0.950 . S
H492 C500 0.951 . S
H493 C501 0.951 1_554 S
C494 C488 1.265 . S
C494 H489 0.950 . S
C494 C495 1.478 . S
C495 C482 1.394 . S
C495 C494 1.478 . S
C495 C496 1.397 . S
C496 C495 1.397 . S
C496 C497 1.438 1_554 S
C496 C501 1.429 1_554 S
C497 C480 1.394 . S
C497 C496 1.438 1_556 S
C497 C498 1.428 . S
C498 H490 0.949 . S
C498 C497 1.428 . S
C498 C499 1.345 . S
C499 H491 0.950 . S
C499 C498 1.345 . S
C499 C500 1.424 . S
C500 H492 0.951 . S
C500 C499 1.424 . S
C500 C501 1.347 . S
C501 H493 0.951 1_556 S
C501 C496 1.429 1_556 S
C501 C500 1.347 . S
H502 C503 0.951 . S
C503 H502 0.951 . S
C503 C509 1.265 . S
H504 C509 0.950 . S
H505 C513 0.949 . S
H506 C514 0.950 . S
H507 C515 0.951 . S
H508 C516 0.951 . S
C509 C503 1.265 . S
C509 H504 0.950 . S
C509 C510 1.478 . S
C510 C509 1.478 . S
C510 C511 1.397 . S
C510 C527 1.394 . S
C511 C510 1.397 . S
C511 C512 1.438 . S
C511 C516 1.429 . S
C512 C511 1.438 . S
C512 C513 1.428 . S
C512 C525 1.394 . S
C513 H505 0.949 . S
C513 C512 1.428 . S
C513 C514 1.345 . S
C514 H506 0.950 . S
C514 C513 1.345 . S
C514 C515 1.424 . S
C515 H507 0.951 . S
C515 C514 1.424 . S
C515 C516 1.347 . S
C516 H508 0.951 . S
C516 C511 1.429 . S
C516 C515 1.347 . S
H517 C518 0.951 . S
C518 H517 0.951 . S
C518 C524 1.265 . S
H519 C524 0.950 . S
H520 C528 0.949 . S
H521 C529 0.950 . S
H522 C530 0.951 . S
H523 C531 0.951 . S
C524 C518 1.265 . S
C524 H519 0.950 . S
C524 C525 1.478 . S
C525 C512 1.394 . S
C525 C524 1.478 . S
C525 C526 1.397 . S
C526 C525 1.397 . S
C526 C527 1.438 . S
C526 C531 1.429 . S
C527 C510 1.394 . S
C527 C526 1.438 . S
C527 C528 1.428 . S
C528 H520 0.949 . S
C528 C527 1.428 . S
C528 C529 1.345 . S
C529 H521 0.950 . S
C529 C528 1.345 . S
C529 C530 1.424 . S
C530 H522 0.951 . S
C530 C529 1.424 . S
C530 C531 1.347 . S
C531 H523 0.951 . S
C531 C526 1.429 . S
C531 C530 1.347 . S
H532 C533 0.951 . S
C533 H532 0.951 . S
C533 C539 1.265 . S
H534 C539 0.950 . S
H535 C543 0.949 . S
H536 C544 0.950 . S
H537 C545 0.951 . S
H538 C546 0.951 . S
C539 C533 1.265 . S
C539 H534 0.950 . S
C539 C540 1.478 . S
C540 C539 1.478 . S
C540 C541 1.397 . S
C540 C557 1.394 . S
C541 C540 1.397 . S
C541 C542 1.438 . S
C541 C546 1.429 . S
C542 C541 1.438 . S
C542 C543 1.428 . S
C542 C555 1.394 . S
C543 H535 0.949 . S
C543 C542 1.428 . S
C543 C544 1.345 . S
C544 H536 0.950 . S
C544 C543 1.345 . S
C544 C545 1.424 . S
C545 H537 0.951 . S
C545 C544 1.424 . S
C545 C546 1.347 . S
C546 H538 0.951 . S
C546 C541 1.429 . S
C546 C545 1.347 . S
H547 C548 0.951 . S
C548 H547 0.951 . S
C548 C554 1.265 . S
H549 C554 0.950 . S
H550 C558 0.949 . S
H551 C559 0.950 . S
H552 C560 0.951 . S
H553 C561 0.951 . S
C554 C548 1.265 . S
C554 H549 0.950 . S
C554 C555 1.478 . S
C555 C542 1.394 . S
C555 C554 1.478 . S
C555 C556 1.397 . S
C556 C555 1.397 . S
C556 C557 1.438 . S
C556 C561 1.429 . S
C557 C540 1.394 . S
C557 C556 1.438 . S
C557 C558 1.428 . S
C558 H550 0.949 . S
C558 C557 1.428 . S
C558 C559 1.345 . S
C559 H551 0.950 . S
C559 C558 1.345 . S
C559 C560 1.424 . S
C560 H552 0.951 . S
C560 C559 1.424 . S
C560 C561 1.347 . S
C561 H553 0.951 . S
C561 C556 1.429 . S
C561 C560 1.347 . S
H562 C563 0.951 . S
C563 H562 0.951 . S
C563 C569 1.265 . S
H564 C569 0.950 . S
H565 C573 0.949 . S
H566 C574 0.950 . S
H567 C575 0.951 . S
H568 C576 0.951 . S
C569 C563 1.265 . S
C569 H564 0.950 . S
C569 C570 1.478 . S
C570 C569 1.478 . S
C570 C571 1.397 . S
C570 C587 1.394 . S
C571 C570 1.397 . S
C571 C572 1.438 . S
C571 C576 1.429 . S
C572 C571 1.438 . S
C572 C573 1.428 . S
C572 C585 1.394 . S
C573 H565 0.949 . S
C573 C572 1.428 . S
C573 C574 1.345 . S
C574 H566 0.950 . S
C574 C573 1.345 . S
C574 C575 1.424 . S
C575 H567 0.951 . S
C575 C574 1.424 . S
C575 C576 1.347 . S
C576 H568 0.951 . S
C576 C571 1.429 . S
C576 C575 1.347 . S
H577 C578 0.951 . S
C578 H577 0.951 . S
C578 C584 1.265 . S
H579 C584 0.950 . S
H580 C588 0.949 . S
H581 C589 0.950 . S
H582 C590 0.951 . S
H583 C591 0.951 . S
C584 C578 1.265 . S
C584 H579 0.950 . S
C584 C585 1.478 . S
C585 C572 1.394 . S
C585 C584 1.478 . S
C585 C586 1.397 . S
C586 C585 1.397 . S
C586 C587 1.438 . S
C586 C591 1.429 . S
C587 C570 1.394 . S
C587 C586 1.438 . S
C587 C588 1.428 . S
C588 H580 0.949 . S
C588 C587 1.428 . S
C588 C589 1.345 . S
C589 H581 0.950 . S
C589 C588 1.345 . S
C589 C590 1.424 . S
C590 H582 0.951 . S
C590 C589 1.424 . S
C590 C591 1.347 . S
C591 H583 0.951 . S
C591 C586 1.429 . S
C591 C590 1.347 . S
C113 C4 1.366 . S
C128 C88 1.371 . S
C143 C18 1.297 . S
C158 C102 1.374 . S
C173 C60 1.311 . S
C188 C32 1.307 . S
C203 C74 1.289 . S
C218 C46 1.351 . S
C233 C5 1.036 . S
C248 C75 1.145 . S
C263 C19 1.089 . S
C278 C89 1.187 . S
C293 C103 1.117 1_556 S
C308 C33 1.196 . S
C323 C47 1.067 . S
C338 C61 1.175 . S
C353 C68 1.318 . S
C368 C12 1.272 . S
C383 C26 1.290 . S
C398 C82 1.290 . S
C413 C40 1.273 . S
C428 C96 1.311 . S
C443 C110 1.300 . S
C458 C54 1.305 . S
C473 C95 1.316 . S
C488 C11 1.220 . S
C503 C109 1.250 . S
C518 C25 1.329 . S
C533 C39 1.307 . S
C548 C67 1.306 . S
C563 C53 1.232 . S
C578 C81 1.324 . S
