# Generated by pormake.
# Topology wjg, (4)-cn, num edge types: 1
# Building blocks:
#     Node 0, Type 0, BuildingBlock: ICAMEG_clean_sbu_1, # of connection points: 4
#     Node 1, Type 0, BuildingBlock: ICAMEG_clean_sbu_1, # of connection points: 4
#     Node 2, Type 0, BuildingBlock: ICAMEG_clean_sbu_1, # of connection points: 4
#     Node 3, Type 0, BuildingBlock: ICAMEG_clean_sbu_1, # of connection points: 4
#     Node 4, Type 0, BuildingBlock: ICAMEG_clean_sbu_1, # of connection points: 4
#     Node 5, Type 0, BuildingBlock: ICAMEG_clean_sbu_1, # of connection points: 4
#     Node 6, Type 0, BuildingBlock: ICAMEG_clean_sbu_1, # of connection points: 4
#     Node 7, Type 0, BuildingBlock: ICAMEG_clean_sbu_1, # of connection points: 4
#     Node 8, Type 0, BuildingBlock: ICAMEG_clean_sbu_1, # of connection points: 4
#     Node 9, Type 0, BuildingBlock: ICAMEG_clean_sbu_1, # of connection points: 4
#     Node 10, Type 0, BuildingBlock: ICAMEG_clean_sbu_1, # of connection points: 4
#     Node 11, Type 0, BuildingBlock: ICAMEG_clean_sbu_1, # of connection points: 4
#     Edge 12, Type (0, 0), BuildingBlock: ZUJKAS_clean_linker_0, # of connection points: 2
#     Edge 13, Type (0, 0), BuildingBlock: ZUJKAS_clean_linker_0, # of connection points: 2
#     Edge 14, Type (0, 0), BuildingBlock: ZUJKAS_clean_linker_0, # of connection points: 2
#     Edge 15, Type (0, 0), BuildingBlock: ZUJKAS_clean_linker_0, # of connection points: 2
#     Edge 16, Type (0, 0), BuildingBlock: ZUJKAS_clean_linker_0, # of connection points: 2
#     Edge 17, Type (0, 0), BuildingBlock: ZUJKAS_clean_linker_0, # of connection points: 2
#     Edge 18, Type (0, 0), BuildingBlock: ZUJKAS_clean_linker_0, # of connection points: 2
#     Edge 19, Type (0, 0), BuildingBlock: ZUJKAS_clean_linker_0, # of connection points: 2
#     Edge 20, Type (0, 0), BuildingBlock: ZUJKAS_clean_linker_0, # of connection points: 2
#     Edge 21, Type (0, 0), BuildingBlock: ZUJKAS_clean_linker_0, # of connection points: 2
#     Edge 22, Type (0, 0), BuildingBlock: ZUJKAS_clean_linker_0, # of connection points: 2
#     Edge 23, Type (0, 0), BuildingBlock: ZUJKAS_clean_linker_0, # of connection points: 2
#     Edge 24, Type (0, 0), BuildingBlock: ZUJKAS_clean_linker_0, # of connection points: 2
#     Edge 25, Type (0, 0), BuildingBlock: ZUJKAS_clean_linker_0, # of connection points: 2
#     Edge 26, Type (0, 0), BuildingBlock: ZUJKAS_clean_linker_0, # of connection points: 2
#     Edge 27, Type (0, 0), BuildingBlock: ZUJKAS_clean_linker_0, # of connection points: 2
#     Edge 28, Type (0, 0), BuildingBlock: ZUJKAS_clean_linker_0, # of connection points: 2
#     Edge 29, Type (0, 0), BuildingBlock: ZUJKAS_clean_linker_0, # of connection points: 2
#     Edge 30, Type (0, 0), BuildingBlock: ZUJKAS_clean_linker_0, # of connection points: 2
#     Edge 31, Type (0, 0), BuildingBlock: ZUJKAS_clean_linker_0, # of connection points: 2
#     Edge 32, Type (0, 0), BuildingBlock: ZUJKAS_clean_linker_0, # of connection points: 2
#     Edge 33, Type (0, 0), BuildingBlock: ZUJKAS_clean_linker_0, # of connection points: 2
#     Edge 34, Type (0, 0), BuildingBlock: ZUJKAS_clean_linker_0, # of connection points: 2
#     Edge 35, Type (0, 0), BuildingBlock: ZUJKAS_clean_linker_0, # of connection points: 2
# Relax obj value: 0.335
# Max RMSD: 0.121
# Mean RMSD: 0.117
data_MOF--net-wjg--node1-ICAMEG_clean_sbu_1--edge1-ZUJKAS_clean_linker_0
_symmetry_space_group_name_H-M    P1
_symmetry_Int_Tables_number       1
_symmetry_cell_setting            triclinic
loop_
_symmetry_equiv_pos_as_xyz
'x, y, z'
_cell_length_a     42.130239
_cell_length_b     41.933458
_cell_length_c     55.103995
_cell_angle_alpha  89.996095
_cell_angle_beta   90.00268
_cell_angle_gamma 120.15318
loop_
_atom_site_label
_atom_site_type_symbol
_atom_site_fract_x
_atom_site_fract_y
_atom_site_fract_z
_atom_type_partial_charge
Co0 Co 0.19621 0.42515 0.32816 0.0
Co1 Co 0.10229 0.37418 0.33435 0.0
O2 O 0.14682 0.41279 0.31891 0.0
C3 C 0.19893 0.49718 0.32984 0.0
O4 O 0.16766 0.48116 0.34169 0.0
C5 C 0.09447 0.35494 0.28279 0.0
O6 O 0.12725 0.3588 0.28482 0.0
O7 O 0.11903 0.33758 0.3314 0.0
O8 O 0.18037 0.37225 0.33368 0.0
H9 H 0.02869 0.27012 0.39228 0.0
H10 H 0.18456 0.45315 0.28159 0.0
O11 O 0.21355 0.47852 0.32292 0.0
H12 H 0.23978 0.37768 0.2594 0.0
H13 H 0.33402 0.49495 0.32111 0.0
H14 H 0.22777 0.40145 0.36753 0.0
H15 H 0.22897 0.38596 0.30233 0.0
H16 H 0.27094 0.47755 0.30906 0.0
O17 O 0.07902 0.35945 0.30135 0.0
H18 H 0.0854 0.31917 0.37339 0.0
H19 H 0.02277 0.34648 0.32633 0.0
H20 H 0.29034 0.41781 0.3801 0.0
H21 H 0.19518 0.44585 0.23844 0.0
H22 H 0.34401 0.46488 0.35681 0.0
H23 H 0.22283 0.40775 0.22711 0.0
O24 O 0.18565 0.42991 0.36258 0.0
H25 H 0.07791 0.47321 0.30461 0.0
H26 H 0.07164 0.39745 0.3749 0.0
H27 H 0.05182 0.44336 0.37952 0.0
H28 H 0.05483 0.48158 0.34419 0.0
H29 H 0.09777 0.42721 0.30085 0.0
H30 H 0.96533 0.29751 0.34457 0.0
H31 H 0.9681 0.25904 0.37786 0.0
O32 O 0.12563 0.38836 0.36741 0.0
C33 C 0.15078 0.3411 0.33329 0.0
C34 C 0.02712 0.2868 0.37786 0.0
C35 C 0.99156 0.30214 0.35105 0.0
N36 N 0.05737 0.3359 0.34898 0.0
C37 C 0.05915 0.3147 0.36716 0.0
C38 C 0.02416 0.32978 0.34078 0.0
C39 C 0.99314 0.28057 0.36974 0.0
C40 C 0.19702 0.4369 0.27681 0.0
N41 N 0.20631 0.42018 0.29446 0.0
C42 C 0.20279 0.43272 0.25235 0.0
C43 C 0.21825 0.41128 0.246 0.0
C44 C 0.22774 0.39438 0.26411 0.0
C45 C 0.2215 0.39912 0.28839 0.0
C46 C 0.31086 0.47434 0.33136 0.0
C47 C 0.25098 0.42178 0.35721 0.0
C48 C 0.27509 0.46442 0.32465 0.0
N49 N 0.24571 0.43827 0.33745 0.0
C50 C 0.28635 0.43101 0.36446 0.0
C51 C 0.31644 0.45745 0.3514 0.0
C52 C 0.15738 0.41135 0.37584 0.0
C53 C 0.07637 0.45664 0.32012 0.0
C54 C 0.07315 0.41406 0.35947 0.0
C55 C 0.0618 0.43995 0.36218 0.0
C56 C 0.06347 0.46137 0.34234 0.0
N57 N 0.0857 0.40955 0.3376 0.0
C58 C 0.08743 0.43045 0.31807 0.0
Co59 Co 0.77398 0.19713 0.6578 0.0
Co60 Co 0.73566 0.10327 0.66615 0.0
O61 O 0.73727 0.14618 0.65101 0.0
C62 C 0.70333 0.19484 0.66671 0.0
O63 O 0.69221 0.16456 0.67941 0.0
C64 C 0.74283 0.09537 0.61399 0.0
O65 O 0.76969 0.12971 0.61497 0.0
O66 O 0.78922 0.1233 0.66117 0.0
O67 O 0.81381 0.18468 0.65857 0.0
H68 H 0.77703 0.03662 0.72211 0.0
H69 H 0.72404 0.17927 0.6157 0.0
O70 O 0.73506 0.21095 0.65701 0.0
H71 H 0.84892 0.24264 0.58119 0.0
H72 H 0.83291 0.33479 0.64834 0.0
H73 H 0.83743 0.23394 0.69126 0.0
H74 H 0.83957 0.2335 0.62538 0.0
H75 H 0.78758 0.26985 0.63934 0.0
O76 O 0.72566 0.07908 0.63333 0.0
H77 H 0.77935 0.09124 0.70347 0.0
H78 H 0.6871 0.02235 0.65954 0.0
H79 H 0.8835 0.29849 0.70068 0.0
H80 H 0.73211 0.18812 0.57141 0.0
H81 H 0.8814 0.34944 0.67915 0.0
H82 H 0.79492 0.21986 0.55387 0.0
O83 O 0.7665 0.18809 0.69329 0.0
H84 H 0.60769 0.06964 0.64149 0.0
H85 H 0.68572 0.07076 0.70858 0.0
H86 H 0.61975 0.04679 0.7158 0.0
H87 H 0.58026 0.04608 0.68209 0.0
H88 H 0.67384 0.09363 0.63512 0.0
H89 H 0.68394 0.96694 0.67754 0.0
H90 H 0.72905 0.97391 0.70914 0.0
O91 O 0.74635 0.12761 0.69885 0.0
C92 C 0.81668 0.15585 0.65942 0.0
C93 C 0.75713 0.03322 0.70843 0.0
C94 C 0.70491 0.99411 0.68339 0.0
N95 N 0.73316 0.05995 0.68064 0.0
C96 C 0.75822 0.06404 0.69789 0.0
C97 C 0.70687 0.02557 0.67324 0.0
C98 C 0.73023 0.99804 0.70113 0.0
C99 C 0.75147 0.19344 0.60823 0.0
N100 N 0.78131 0.20588 0.62312 0.0
C101 C 0.75586 0.19824 0.58313 0.0
C102 C 0.79111 0.216 0.57329 0.0
C103 C 0.82141 0.22875 0.58861 0.0
C104 C 0.81596 0.22339 0.61362 0.0
C105 C 0.83416 0.31283 0.65781 0.0
C106 C 0.83649 0.25597 0.6817 0.0
C107 C 0.80852 0.27601 0.65283 0.0
N108 N 0.81005 0.24815 0.66463 0.0
C109 C 0.86258 0.29246 0.68716 0.0
C110 C 0.86136 0.32104 0.67509 0.0
C111 C 0.75728 0.16013 0.70691 0.0
C112 C 0.6246 0.0697 0.6563 0.0
C113 C 0.66872 0.07062 0.69384 0.0
C114 C 0.63138 0.05695 0.69802 0.0
C115 C 0.60923 0.05654 0.67909 0.0
N116 N 0.68356 0.08339 0.67142 0.0
C117 C 0.66204 0.08311 0.65278 0.0
Co118 Co 0.62995 0.73094 0.99904 0.0
Co119 Co 0.57939 0.77367 0.98841 0.0
O120 O 0.59092 0.73487 0.98274 0.0
C121 C 0.64771 0.73742 0.94732 0.0
O122 O 0.64272 0.76586 0.94778 0.0
C123 C 0.5086 0.70475 0.99693 0.0
O124 O 0.52619 0.69237 0.00999 0.0
O125 O 0.57928 0.76667 0.02411 0.0
O126 O 0.61609 0.74302 0.03113 0.0
H127 H 0.59326 0.88717 0.02915 0.0
H128 H 0.57688 0.66989 0.96754 0.0
O129 O 0.64432 0.71952 0.96681 0.0
H130 H 0.56253 0.61514 0.04885 0.0
H131 H 0.70744 0.67262 0.01365 0.0
H132 H 0.68498 0.77304 0.03722 0.0
H133 H 0.60781 0.68073 0.04177 0.0
H134 H 0.65813 0.67887 0.99411 0.0
O135 O 0.52591 0.73652 0.98714 0.0
H136 H 0.6083 0.83836 0.02118 0.0
H137 H 0.52385 0.79069 0.96818 0.0
H138 H 0.73438 0.76767 0.05737 0.0
H139 H 0.53148 0.60412 0.97377 0.0
H140 H 0.74587 0.71716 0.0456 0.0
H141 H 0.52402 0.57636 0.01469 0.0
O142 O 0.66615 0.7843 0.9942 0.0
H143 H 0.54807 0.73042 0.90211 0.0
H144 H 0.6128 0.83896 0.95539 0.0
H145 H 0.61524 0.84762 0.91102 0.0
H146 H 0.58271 0.79306 0.88406 0.0
H147 H 0.54665 0.72304 0.94658 0.0
H148 H 0.50768 0.83879 0.97572 0.0
H149 H 0.54261 0.88757 0.00633 0.0
O150 O 0.63247 0.81175 0.98967 0.0
C151 C 0.59599 0.75601 0.03839 0.0
C152 C 0.57792 0.86614 0.01571 0.0
C153 C 0.52985 0.83895 0.98575 0.0
N154 N 0.56717 0.8119 0.9941 0.0
C155 C 0.58638 0.8385 0.01107 0.0
C156 C 0.53907 0.81174 0.9816 0.0
C157 C 0.54947 0.86632 0.00292 0.0
C158 C 0.57403 0.65793 0.98534 0.0
N159 N 0.59511 0.67906 0.00423 0.0
C160 C 0.54818 0.62071 0.98879 0.0
C161 C 0.54397 0.60516 0.01176 0.0
C162 C 0.56555 0.62691 0.03094 0.0
C163 C 0.59109 0.66405 0.02683 0.0
C164 C 0.70265 0.69469 0.01898 0.0
C165 C 0.68964 0.75083 0.03214 0.0
C166 C 0.67482 0.69839 0.00796 0.0
N167 N 0.66849 0.72607 0.0147 0.0
C168 C 0.71773 0.74801 0.04355 0.0
C169 C 0.72419 0.71969 0.03691 0.0
C170 C 0.66318 0.81289 0.99158 0.0
C171 C 0.56231 0.75441 0.91367 0.0
C172 C 0.59871 0.81511 0.94378 0.0
C173 C 0.60008 0.82018 0.91867 0.0
C174 C 0.58179 0.78956 0.90355 0.0
N175 N 0.57963 0.78055 0.95357 0.0
C176 C 0.56148 0.75041 0.93887 0.0
Co177 Co 0.80184 0.5721 0.32135 0.0
Co178 Co 0.89473 0.62469 0.33335 0.0
O179 O 0.85254 0.58451 0.31683 0.0
C180 C 0.80019 0.50195 0.33236 0.0
O181 O 0.83008 0.52058 0.34541 0.0
C182 C 0.90672 0.64139 0.28152 0.0
O183 O 0.87279 0.6347 0.28146 0.0
O184 O 0.87682 0.66 0.32779 0.0
O185 O 0.81617 0.62515 0.32136 0.0
H186 H 0.95928 0.73024 0.39176 0.0
H187 H 0.82143 0.53815 0.28123 0.0
O188 O 0.78603 0.51857 0.32144 0.0
H189 H 0.76572 0.60376 0.24169 0.0
H190 H 0.66554 0.49736 0.3068 0.0
H191 H 0.76439 0.60116 0.35214 0.0
H192 H 0.77062 0.60338 0.28627 0.0
H193 H 0.73024 0.51462 0.30068 0.0
O194 O 0.92136 0.63954 0.30136 0.0
H195 H 0.90556 0.67958 0.37122 0.0
H196 H 0.97536 0.65518 0.32938 0.0
H197 H 0.70009 0.58506 0.35867 0.0
H198 H 0.81679 0.53751 0.23659 0.0
H199 H 0.65015 0.5328 0.33591 0.0
H200 H 0.78892 0.57065 0.21653 0.0
O201 O 0.80763 0.57354 0.3572 0.0
H202 H 0.92625 0.52807 0.30979 0.0
H203 H 0.92249 0.60405 0.37681 0.0
H204 H 0.94389 0.56003 0.38481 0.0
H205 H 0.94593 0.52172 0.35113 0.0
H206 H 0.90474 0.57221 0.30265 0.0
H207 H 0.02989 0.70579 0.34932 0.0
H208 H 0.022 0.74361 0.38083 0.0
O209 O 0.86791 0.61033 0.36514 0.0
C210 C 0.84532 0.65631 0.32393 0.0
C211 C 0.96307 0.71387 0.37813 0.0
C212 C 0.00271 0.70018 0.35428 0.0
N213 N 0.93734 0.66427 0.3493 0.0
C214 C 0.93275 0.68507 0.3665 0.0
C215 C 0.97175 0.67162 0.34302 0.0
C216 C 0.99825 0.72138 0.37196 0.0
C217 C 0.80893 0.55231 0.27264 0.0
N218 N 0.79628 0.57076 0.28635 0.0
C219 C 0.80651 0.55198 0.24735 0.0
C220 C 0.79092 0.57062 0.23611 0.0
C221 C 0.77794 0.58924 0.25021 0.0
C222 C 0.78089 0.58904 0.27545 0.0
C223 C 0.68707 0.52023 0.3168 0.0
C224 C 0.74282 0.57854 0.34206 0.0
C225 C 0.72374 0.53007 0.31345 0.0
N226 N 0.75107 0.55904 0.32591 0.0
C227 C 0.70646 0.56948 0.34588 0.0
C228 C 0.67845 0.54014 0.33312 0.0
C229 C 0.8345 0.59027 0.37189 0.0
C230 C 0.92559 0.54469 0.3246 0.0
C231 C 0.92321 0.5874 0.36208 0.0
C232 C 0.93542 0.56258 0.36671 0.0
C233 C 0.93658 0.54111 0.3478 0.0
N234 N 0.91258 0.59083 0.33926 0.0
C235 C 0.91358 0.56984 0.32064 0.0
Co236 Co 0.21736 0.80816 0.6576 0.0
Co237 Co 0.26171 0.90221 0.66772 0.0
O238 O 0.25598 0.85845 0.65112 0.0
C239 C 0.28604 0.80566 0.66411 0.0
O240 O 0.29976 0.8365 0.67653 0.0
C241 C 0.25116 0.91225 0.61636 0.0
O242 O 0.22269 0.87883 0.61771 0.0
O243 O 0.2083 0.88536 0.66512 0.0
O244 O 0.18006 0.82394 0.65967 0.0
H245 H 0.23187 0.9726 0.72856 0.0
H246 H 0.26541 0.82548 0.61452 0.0
O247 O 0.25374 0.79106 0.65539 0.0
H248 H 0.13941 0.76784 0.58213 0.0
H249 H 0.15054 0.67028 0.64657 0.0
H250 H 0.15479 0.77379 0.69186 0.0
H251 H 0.15056 0.7748 0.62627 0.0
H252 H 0.19847 0.73441 0.63781 0.0
O253 O 0.27048 0.92733 0.63526 0.0
H254 H 0.22391 0.91679 0.70799 0.0
H255 H 0.31355 0.98255 0.66127 0.0
H256 H 0.10618 0.71012 0.70106 0.0
H257 H 0.25555 0.81875 0.57025 0.0
H258 H 0.10387 0.65783 0.67833 0.0
H259 H 0.19218 0.78995 0.55379 0.0
O260 O 0.2264 0.81587 0.69311 0.0
H261 H 0.38506 0.92872 0.63718 0.0
H262 H 0.31545 0.93108 0.70844 0.0
H263 H 0.3811 0.95097 0.71283 0.0
H264 H 0.41636 0.94991 0.67702 0.0
H265 H 0.31932 0.90879 0.63365 0.0
H266 H 0.32232 0.03913 0.68119 0.0
H267 H 0.28138 0.03433 0.71516 0.0
O268 O 0.25236 0.87693 0.70001 0.0
C269 C 0.17957 0.85387 0.66244 0.0
C270 C 0.24996 0.97505 0.71383 0.0
C271 C 0.30069 0.01239 0.68722 0.0
N272 N 0.26845 0.94643 0.68361 0.0
C273 C 0.24566 0.94354 0.70217 0.0
C274 C 0.29555 0.98028 0.67598 0.0
C275 C 0.27772 0.00967 0.70629 0.0
C276 C 0.23774 0.81263 0.6075 0.0
N277 N 0.20858 0.80068 0.62295 0.0
C278 C 0.23233 0.80901 0.58241 0.0
C279 C 0.19678 0.79289 0.57318 0.0
C280 C 0.16716 0.78052 0.58907 0.0
C281 C 0.17363 0.78467 0.61405 0.0
C282 C 0.15123 0.69284 0.65657 0.0
C283 C 0.1538 0.75119 0.68179 0.0
C284 C 0.17835 0.72919 0.65173 0.0
N285 N 0.17925 0.75781 0.66419 0.0
C286 C 0.12629 0.71519 0.68712 0.0
C287 C 0.12503 0.68587 0.67438 0.0
C288 C 0.23905 0.84366 0.70732 0.0
C289 C 0.37002 0.92942 0.6529 0.0
C290 C 0.3306 0.93047 0.69279 0.0
C291 C 0.36778 0.94183 0.69537 0.0
C292 C 0.38755 0.94125 0.67527 0.0
N293 N 0.31363 0.91897 0.67078 0.0
C294 C 0.33282 0.91831 0.65099 0.0
Co295 Co 0.37385 0.26844 0.99898 0.0
Co296 Co 0.42214 0.22339 0.98796 0.0
O297 O 0.41182 0.26303 0.98239 0.0
C298 C 0.35496 0.26096 0.94741 0.0
O299 O 0.35923 0.23207 0.94813 0.0
C300 C 0.49382 0.29129 0.99639 0.0
O301 O 0.47679 0.30441 0.00934 0.0
O302 O 0.42256 0.23044 0.02366 0.0
O303 O 0.38817 0.25674 0.03105 0.0
H304 H 0.40536 0.1087 0.02864 0.0
H305 H 0.42684 0.32797 0.9665 0.0
O306 O 0.35904 0.27944 0.96673 0.0
H307 H 0.44476 0.38541 0.0472 0.0
H308 H 0.29932 0.32997 0.01363 0.0
H309 H 0.31978 0.22859 0.03813 0.0
H310 H 0.39824 0.31994 0.04107 0.0
H311 H 0.34714 0.32167 0.99372 0.0
O312 O 0.47589 0.25953 0.98664 0.0
H313 H 0.39188 0.1586 0.0207 0.0
H314 H 0.47638 0.20458 0.96766 0.0
H315 H 0.27187 0.23603 0.05867 0.0
H316 H 0.47345 0.39359 0.97178 0.0
H317 H 0.26139 0.28703 0.04643 0.0
H318 H 0.48271 0.4227 0.01238 0.0
O319 O 0.33658 0.21518 0.99499 0.0
H320 H 0.45337 0.26653 0.90164 0.0
H321 H 0.38784 0.15815 0.95495 0.0
H322 H 0.38483 0.14948 0.91057 0.0
H323 H 0.41776 0.20396 0.88359 0.0
H324 H 0.4553 0.27391 0.94612 0.0
H325 H 0.491 0.15537 0.97517 0.0
H326 H 0.45525 0.10689 0.00578 0.0
O327 O 0.36876 0.18633 0.98927 0.0
C328 C 0.40723 0.24246 0.03811 0.0
C329 C 0.42105 0.1296 0.01519 0.0
C330 C 0.46915 0.15582 0.98521 0.0
N331 N 0.43312 0.18428 0.9936 0.0
C332 C 0.41347 0.15785 0.01057 0.0
C333 C 0.46081 0.18367 0.98108 0.0
C334 C 0.44907 0.12862 0.00238 0.0
C335 C 0.43047 0.34053 0.98417 0.0
N336 N 0.4097 0.32022 0.00342 0.0
C337 C 0.45701 0.37766 0.98707 0.0
C338 C 0.46222 0.39396 0.00987 0.0
C339 C 0.44096 0.37305 0.02941 0.0
C340 C 0.41471 0.33598 0.02584 0.0
C341 C 0.30367 0.30769 0.01916 0.0
C342 C 0.31555 0.251 0.03283 0.0
C343 C 0.33065 0.30282 0.00792 0.0
N344 N 0.33643 0.27487 0.01492 0.0
C345 C 0.2883 0.255 0.04447 0.0
C346 C 0.28241 0.2836 0.03757 0.0
C347 C 0.3386 0.18612 0.99193 0.0
C348 C 0.43893 0.24257 0.9132 0.0
C349 C 0.40206 0.18196 0.94333 0.0
C350 C 0.40039 0.17689 0.91821 0.0
C351 C 0.4189 0.20746 0.90309 0.0
N352 N 0.42162 0.21648 0.95311 0.0
C353 C 0.44003 0.24657 0.9384 0.0
Co354 Co 0.58092 0.8074 0.34184 0.0
Co355 Co 0.63693 0.90072 0.33133 0.0
O356 O 0.59556 0.8588 0.34724 0.0
C357 C 0.51269 0.80931 0.33136 0.0
O358 O 0.53203 0.83918 0.31831 0.0
C359 C 0.65284 0.91071 0.38333 0.0
O360 O 0.6447 0.87614 0.38298 0.0
O361 O 0.67013 0.88036 0.33675 0.0
O362 O 0.63303 0.81938 0.34158 0.0
H363 H 0.7438 0.96364 0.27407 0.0
H364 H 0.54895 0.82782 0.3827 0.0
O365 O 0.52827 0.79389 0.34203 0.0
H366 H 0.60953 0.76562 0.42039 0.0
H367 H 0.50142 0.67041 0.35432 0.0
H368 H 0.60716 0.76847 0.30997 0.0
H369 H 0.60958 0.77241 0.37593 0.0
H370 H 0.5215 0.7359 0.36162 0.0
O371 O 0.65205 0.9264 0.36367 0.0
H372 H 0.69153 0.91028 0.29378 0.0
H373 H 0.67041 0.98203 0.33634 0.0
H374 H 0.58823 0.70334 0.30227 0.0
H375 H 0.54791 0.82133 0.42723 0.0
H376 H 0.53499 0.65379 0.32453 0.0
H377 H 0.57852 0.79019 0.44636 0.0
O378 O 0.58265 0.81459 0.30611 0.0
H379 H 0.5443 0.93715 0.35507 0.0
H380 H 0.61924 0.93174 0.28819 0.0
H381 H 0.57779 0.95619 0.28039 0.0
H382 H 0.54 0.95907 0.31399 0.0
H383 H 0.58589 0.91263 0.36203 0.0
H384 H 0.72266 0.03622 0.31723 0.0
H385 H 0.75966 0.02717 0.28579 0.0
O386 O 0.62231 0.87487 0.29915 0.0
C387 C 0.6648 0.8479 0.33975 0.0
C388 C 0.7278 0.96794 0.28768 0.0
C389 C 0.71597 0.00868 0.31193 0.0
N390 N 0.67776 0.94307 0.316 0.0
C391 C 0.6981 0.93784 0.29883 0.0
C392 C 0.68647 0.97791 0.32271 0.0
C393 C 0.73671 0.00358 0.29428 0.0
C394 C 0.56201 0.8139 0.39088 0.0
N395 N 0.57929 0.80048 0.37673 0.0
C396 C 0.56145 0.81044 0.41611 0.0
C397 C 0.57868 0.79301 0.42683 0.0
C398 C 0.59612 0.77926 0.41227 0.0
C399 C 0.59617 0.78329 0.38711 0.0
C400 C 0.5247 0.69175 0.34454 0.0
C401 C 0.58412 0.74706 0.31984 0.0
C402 C 0.53614 0.72887 0.34856 0.0
N403 N 0.56564 0.75597 0.33636 0.0
C404 C 0.57346 0.71024 0.31536 0.0
C405 C 0.54356 0.68245 0.32783 0.0
C406 C 0.60081 0.84187 0.29186 0.0
C407 C 0.56071 0.93614 0.3403 0.0
C408 C 0.60281 0.93282 0.30289 0.0
C409 C 0.57945 0.94676 0.29837 0.0
C410 C 0.55827 0.94839 0.31724 0.0
N411 N 0.60512 0.92096 0.32558 0.0
C412 C 0.58441 0.92242 0.34416 0.0
Co413 Co 0.76734 0.56943 0.67392 0.0
Co414 Co 0.72797 0.62352 0.66553 0.0
O415 O 0.73055 0.58306 0.6811 0.0
C416 C 0.69684 0.49926 0.66752 0.0
O417 O 0.68461 0.51705 0.65448 0.0
C418 C 0.73611 0.64052 0.71738 0.0
O419 O 0.7639 0.63471 0.71623 0.0
O420 O 0.78145 0.65827 0.67025 0.0
O421 O 0.80661 0.62216 0.67143 0.0
H422 H 0.76729 0.7306 0.60866 0.0
H423 H 0.7204 0.53904 0.71757 0.0
O424 O 0.72906 0.51625 0.67646 0.0
H425 H 0.84745 0.60622 0.74837 0.0
H426 H 0.82849 0.49336 0.6837 0.0
H427 H 0.82849 0.59501 0.63868 0.0
H428 H 0.83508 0.60264 0.70442 0.0
H429 H 0.78327 0.51248 0.69329 0.0
O430 O 0.71793 0.63788 0.69822 0.0
H431 H 0.77075 0.67922 0.62777 0.0
H432 H 0.67845 0.65437 0.67183 0.0
H433 H 0.87438 0.57698 0.62862 0.0
H434 H 0.73153 0.54167 0.76166 0.0
H435 H 0.87455 0.5258 0.65121 0.0
H436 H 0.79544 0.5756 0.77733 0.0
O437 O 0.75748 0.56849 0.63863 0.0
H438 H 0.60075 0.52728 0.69107 0.0
H439 H 0.67748 0.60402 0.62324 0.0
H440 H 0.61158 0.56061 0.61643 0.0
H441 H 0.57274 0.52192 0.65052 0.0
H442 H 0.66682 0.57083 0.69702 0.0
H443 H 0.67414 0.70568 0.65335 0.0
H444 H 0.7187 0.7441 0.62145 0.0
O445 O 0.73864 0.60963 0.63291 0.0
C446 C 0.80918 0.65377 0.67106 0.0
C447 C 0.74761 0.71396 0.62246 0.0
C448 C 0.69537 0.70001 0.64757 0.0
N449 N 0.72458 0.66361 0.65068 0.0
C450 C 0.74936 0.68476 0.63328 0.0
C451 C 0.69797 0.67104 0.65799 0.0
C452 C 0.72037 0.72155 0.62967 0.0
C453 C 0.7483 0.55351 0.72423 0.0
N454 N 0.77706 0.57057 0.70843 0.0
C455 C 0.75443 0.55504 0.74922 0.0
C456 C 0.79029 0.57413 0.758 0.0
C457 C 0.81948 0.59135 0.74177 0.0
C458 C 0.81231 0.5893 0.7169 0.0
C459 C 0.82875 0.51576 0.67377 0.0
C460 C 0.82856 0.57288 0.6487 0.0
C461 C 0.80317 0.52665 0.67909 0.0
N462 N 0.80344 0.55502 0.66668 0.0
C463 C 0.85454 0.56272 0.64287 0.0
C464 C 0.85459 0.53398 0.65554 0.0
C465 C 0.74854 0.58728 0.62494 0.0
C466 C 0.61737 0.54407 0.67609 0.0
C467 C 0.66077 0.58719 0.63814 0.0
C468 C 0.62346 0.56272 0.63419 0.0
C469 C 0.60168 0.54103 0.65333 0.0
N470 N 0.67593 0.59008 0.66054 0.0
C471 C 0.65477 0.56888 0.67938 0.0
Co472 Co 0.10774 0.73617 0.00133 0.0
Co473 Co 0.20098 0.7769 0.01153 0.0
O474 O 0.1504 0.73852 0.01706 0.0
C475 C 0.09704 0.74033 0.05343 0.0
O476 O 0.13091 0.76804 0.05331 0.0
C477 C 0.20139 0.70755 0.00156 0.0
O478 O 0.17154 0.69618 0.9885 0.0
O479 O 0.19381 0.77107 0.97581 0.0
O480 O 0.13354 0.74914 0.96914 0.0
H481 H 0.30174 0.89085 0.97191 0.0
H482 H 0.09868 0.67331 0.03131 0.0
O483 O 0.08205 0.72383 0.03363 0.0
H484 H 0.05708 0.62239 0.94925 0.0
H485 H 0.97214 0.68103 0.98727 0.0
H486 H 0.09583 0.78066 0.96445 0.0
H487 H 0.07864 0.68791 0.95775 0.0
H488 H 0.02724 0.68516 0.00611 0.0
O489 O 0.21635 0.73898 0.01185 0.0
H490 H 0.2376 0.84257 0.97963 0.0
H491 H 0.27319 0.79188 0.03119 0.0
H492 H 0.04153 0.77742 0.945 0.0
H493 H 0.07705 0.60757 0.02366 0.0
H494 H 0.97913 0.72731 0.95641 0.0
H495 H 0.05614 0.58174 0.98237 0.0
O496 O 0.12584 0.78942 0.00737 0.0
H497 H 0.1894 0.73077 0.09707 0.0
H498 H 0.23363 0.84112 0.04546 0.0
H499 H 0.24043 0.84832 0.08989 0.0
H500 H 0.21821 0.79286 0.11602 0.0
H501 H 0.18285 0.72483 0.05256 0.0
H502 H 0.33774 0.83941 0.02387 0.0
H503 H 0.35234 0.88943 0.99412 0.0
O504 O 0.18695 0.81574 0.01123 0.0
C505 C 0.16645 0.76153 0.96169 0.0
C506 C 0.29573 0.86926 0.98498 0.0
C507 C 0.31593 0.84036 0.01412 0.0
N508 N 0.25165 0.81463 0.00598 0.0
C509 C 0.25946 0.84192 0.98948 0.0
C510 C 0.27934 0.81348 0.01814 0.0
C511 C 0.3241 0.86843 0.99743 0.0
C512 C 0.0893 0.66219 0.01335 0.0
N513 N 0.08972 0.68436 0.99503 0.0
C514 C 0.07723 0.62498 0.0091 0.0
C515 C 0.06555 0.61052 0.98592 0.0
C516 C 0.06608 0.63332 0.96733 0.0
C517 C 0.07839 0.6704 0.97223 0.0
C518 C 0.99918 0.70293 0.98211 0.0
C519 C 0.06877 0.75862 0.96936 0.0
C520 C 0.03045 0.70544 0.99274 0.0
N521 N 0.06468 0.73292 0.9862 0.0
C522 C 0.03813 0.757 0.95835 0.0
C523 C 0.00312 0.7289 0.96478 0.0
C524 C 0.15768 0.81756 0.01003 0.0
C525 C 0.19927 0.75515 0.08587 0.0
C526 C 0.2238 0.81687 0.0567 0.0
C527 C 0.22782 0.82112 0.08185 0.0
C528 C 0.21538 0.78999 0.0965 0.0
N529 N 0.20791 0.78261 0.04641 0.0
C530 C 0.19577 0.75197 0.06065 0.0
Co531 Co 0.41435 0.1925 0.33974 0.0
Co532 Co 0.36075 0.09864 0.33168 0.0
O533 O 0.39997 0.14195 0.34789 0.0
C534 C 0.48443 0.19203 0.33736 0.0
O535 O 0.46741 0.1611 0.32503 0.0
C536 C 0.3405 0.08965 0.38305 0.0
O537 O 0.3457 0.12316 0.38145 0.0
O538 O 0.32587 0.11743 0.33475 0.0
O539 O 0.36231 0.17894 0.33438 0.0
H540 H 0.25786 0.03023 0.27224 0.0
H541 H 0.44061 0.17697 0.38569 0.0
O542 O 0.46696 0.20761 0.34484 0.0
H543 H 0.36967 0.23605 0.41009 0.0
H544 H 0.48845 0.33042 0.34963 0.0
H545 H 0.39305 0.22788 0.30148 0.0
H546 H 0.37764 0.22676 0.36682 0.0
H547 H 0.46858 0.26589 0.36019 0.0
O548 O 0.34455 0.07418 0.36429 0.0
H549 H 0.30763 0.08544 0.29219 0.0
H550 H 0.32985 0.01794 0.3384 0.0
H551 H 0.41188 0.29198 0.29039 0.0
H552 H 0.43355 0.18599 0.42918 0.0
H553 H 0.4599 0.34378 0.31455 0.0
H554 H 0.39773 0.21557 0.44161 0.0
O555 O 0.41873 0.18307 0.30501 0.0
H556 H 0.45501 0.06778 0.36127 0.0
H557 H 0.38292 0.06764 0.29072 0.0
H558 H 0.4267 0.04531 0.2859 0.0
H559 H 0.46307 0.04524 0.32136 0.0
H560 H 0.41118 0.09018 0.36524 0.0
H561 H 0.28011 0.96196 0.3191 0.0
H562 H 0.24384 0.96794 0.2857 0.0
O563 O 0.37651 0.12327 0.29905 0.0
C564 C 0.33073 0.14995 0.33387 0.0
C565 C 0.27357 0.02727 0.28671 0.0
C566 C 0.28602 0.98895 0.31303 0.0
N567 N 0.32185 0.05488 0.31624 0.0
C568 C 0.30186 0.05842 0.298 0.0
C569 C 0.3141 0.02072 0.32392 0.0
C570 C 0.26569 0.99232 0.29429 0.0
C571 C 0.42536 0.19028 0.39096 0.0
N572 N 0.40974 0.20151 0.37374 0.0
C573 C 0.42131 0.19514 0.41561 0.0
C574 C 0.40115 0.21169 0.42258 0.0
C575 C 0.38538 0.22316 0.4049 0.0
C576 C 0.38994 0.21778 0.38042 0.0
C577 C 0.46743 0.30809 0.33899 0.0
C578 C 0.4138 0.25028 0.31217 0.0
C579 C 0.45612 0.2715 0.34486 0.0
N580 N 0.42945 0.24316 0.33159 0.0
C581 C 0.42442 0.28651 0.30576 0.0
C582 C 0.4514 0.31556 0.31932 0.0
C583 C 0.40011 0.15533 0.29122 0.0
C584 C 0.43925 0.06758 0.34571 0.0
C585 C 0.39873 0.0678 0.30622 0.0
C586 C 0.42341 0.05504 0.30339 0.0
C587 C 0.44379 0.05498 0.32329 0.0
N588 N 0.39438 0.08005 0.32826 0.0
C589 C 0.41427 0.08008 0.34786 0.0
Co590 Co 0.22703 0.42656 0.67905 0.0
Co591 Co 0.26854 0.37521 0.66679 0.0
O592 O 0.2657 0.41474 0.68351 0.0
C593 C 0.29498 0.49727 0.6683 0.0
O594 O 0.30609 0.47912 0.65462 0.0
C595 C 0.26307 0.3574 0.71846 0.0
O596 O 0.23522 0.36315 0.71829 0.0
O597 O 0.21538 0.33925 0.67199 0.0
O598 O 0.18879 0.37333 0.67871 0.0
H599 H 0.22965 0.27067 0.60778 0.0
H600 H 0.28017 0.46016 0.71943 0.0
O601 O 0.26435 0.48023 0.67937 0.0
H602 H 0.15855 0.39307 0.75846 0.0
H603 H 0.16407 0.49991 0.69386 0.0
H604 H 0.16061 0.39711 0.64814 0.0
H605 H 0.16424 0.39444 0.71387 0.0
H606 H 0.21202 0.48334 0.69991 0.0
O607 O 0.28032 0.3603 0.69878 0.0
H608 H 0.22549 0.32058 0.62852 0.0
H609 H 0.31951 0.34573 0.67079 0.0
H610 H 0.11191 0.41253 0.64168 0.0
H611 H 0.27577 0.45981 0.76407 0.0
H612 H 0.11347 0.46427 0.66464 0.0
H613 H 0.21462 0.42592 0.78388 0.0
O614 O 0.23165 0.42563 0.64319 0.0
H615 H 0.39591 0.47275 0.6911 0.0
H616 H 0.31743 0.39706 0.62355 0.0
H617 H 0.38276 0.44185 0.61591 0.0
H618 H 0.42248 0.48002 0.64985 0.0
H619 H 0.33038 0.42785 0.69789 0.0
H620 H 0.32456 0.29589 0.65065 0.0
H621 H 0.27948 0.25807 0.61883 0.0
O622 O 0.25603 0.38966 0.63505 0.0
C623 C 0.18727 0.34243 0.67588 0.0
C624 C 0.24954 0.28705 0.62155 0.0
C625 C 0.30277 0.30117 0.64564 0.0
N626 N 0.27243 0.33623 0.65067 0.0
C627 C 0.24739 0.31542 0.63329 0.0
C628 C 0.29974 0.32929 0.65701 0.0
C629 C 0.27748 0.27996 0.62778 0.0
C630 C 0.25344 0.44566 0.72791 0.0
N631 N 0.22248 0.42732 0.71406 0.0
C632 C 0.25113 0.44544 0.7532 0.0
C633 C 0.21682 0.42637 0.7643 0.0
C634 C 0.18535 0.40791 0.75005 0.0
C635 C 0.18873 0.40867 0.72481 0.0
C636 C 0.16305 0.47726 0.68379 0.0
C637 C 0.16132 0.4195 0.65831 0.0
C638 C 0.19017 0.4678 0.6871 0.0
N639 N 0.18893 0.4391 0.67453 0.0
C640 C 0.13374 0.42818 0.65453 0.0
C641 C 0.13466 0.45724 0.66739 0.0
C642 C 0.2422 0.40935 0.62841 0.0
C643 C 0.37891 0.4562 0.67618 0.0
C644 C 0.33453 0.41365 0.63839 0.0
C645 C 0.37151 0.4389 0.63397 0.0
C646 C 0.39379 0.4603 0.65303 0.0
N647 N 0.32018 0.40971 0.66117 0.0
C648 C 0.34182 0.43063 0.67994 0.0
Co649 Co 0.89991 0.26373 -6e-05 0.0
Co650 Co 0.80684 0.22133 0.01144 0.0
O651 O 0.8573 0.26027 0.01647 0.0
C652 C 0.91192 0.25809 0.05167 0.0
O653 O 0.8784 0.22977 0.05145 0.0
C654 C 0.80473 0.28985 0.00173 0.0
O655 O 0.83442 0.30169 0.98844 0.0
O656 O 0.813 0.22705 0.97564 0.0
O657 O 0.87339 0.25125 0.96804 0.0
H658 H 0.70631 0.10639 0.97262 0.0
H659 H 0.90862 0.32537 0.03114 0.0
O660 O 0.92627 0.2756 0.03204 0.0
H661 H 0.94779 0.37877 0.94939 0.0
H662 H 0.03543 0.32133 0.9844 0.0
H663 H 0.91197 0.22102 0.96177 0.0
H664 H 0.92742 0.31325 0.95687 0.0
H665 H 0.9803 0.31558 0.00429 0.0
O666 O 0.79057 0.25856 0.01216 0.0
H667 H 0.77033 0.15546 0.97972 0.0
H668 H 0.73472 0.20517 0.032 0.0
H669 H 0.9663 0.22589 0.94127 0.0
H670 H 0.92907 0.39108 0.02451 0.0
H671 H 0.02858 0.27635 0.95257 0.0
H672 H 0.94875 0.41816 0.98337 0.0
O673 O 0.88268 0.21039 0.00506 0.0
H674 H 0.82089 0.26781 0.09704 0.0
H675 H 0.77538 0.15727 0.0455 0.0
H676 H 0.77019 0.15026 0.08999 0.0
H677 H 0.79308 0.20583 0.11609 0.0
H678 H 0.82581 0.27352 0.05246 0.0
H679 H 0.67029 0.15684 0.02531 0.0
H680 H 0.65577 0.1069 0.9955 0.0
O681 O 0.82176 0.18319 0.01073 0.0
C682 C 0.84009 0.23776 0.96109 0.0
C683 C 0.7123 0.12793 0.98571 0.0
C684 C 0.69208 0.15628 0.01526 0.0
N685 N 0.75627 0.18296 0.0064 0.0
C686 C 0.7485 0.15572 0.98986 0.0
C687 C 0.7286 0.18362 0.01893 0.0
C688 C 0.68395 0.12826 0.99854 0.0
C689 C 0.91747 0.33703 0.01324 0.0
N690 N 0.91704 0.31556 0.99445 0.0
C691 C 0.92888 0.37422 0.00957 0.0
C692 C 0.93987 0.38939 0.98648 0.0
C693 C 0.93932 0.3673 0.9674 0.0
C694 C 0.92769 0.33021 0.97174 0.0
C695 C 0.00843 0.29928 0.97928 0.0
C696 C 0.93897 0.2432 0.96665 0.0
C697 C 0.97714 0.29585 0.99051 0.0
N698 N 0.94298 0.26819 0.98403 0.0
C699 C 0.96963 0.24575 0.95504 0.0
C700 C 0.00457 0.27404 0.96141 0.0
C701 C 0.85122 0.18194 0.00839 0.0
C702 C 0.81077 0.24338 0.08587 0.0
C703 C 0.78552 0.18155 0.05673 0.0
C704 C 0.78241 0.17742 0.08191 0.0
C705 C 0.79522 0.20861 0.09654 0.0
N706 N 0.80092 0.21575 0.04639 0.0
C707 C 0.81336 0.24644 0.06061 0.0
H708 H 0.2669 0.53807 0.31028 0.0
H709 H 0.30408 0.60452 0.3079 0.0
H710 H 0.215 0.61535 0.3373 0.0
H711 H 0.17752 0.54788 0.34068 0.0
H712 H 0.2983 0.65828 0.28515 0.0
H713 H 0.29524 0.67466 0.38546 0.0
H714 H 0.2768 0.62974 0.37182 0.0
H715 H 0.25267 0.65474 0.36903 0.0
C716 C 0.25489 0.55434 0.31615 0.0
C717 C 0.21938 0.53759 0.32606 0.0
C718 C 0.27621 0.59251 0.31461 0.0
C719 C 0.2626 0.61507 0.32271 0.0
C720 C 0.22638 0.59854 0.33141 0.0
H721 H 0.46694 0.82881 0.30798 0.0
H722 H 0.39954 0.79272 0.30619 0.0
C723 C 0.20497 0.56001 0.33323 0.0
C724 C 0.2883 0.65549 0.32356 0.0
H725 H 0.34347 0.72188 0.36405 0.0
C726 C 0.30768 0.6728 0.30228 0.0
C727 C 0.30001 0.67455 0.34592 0.0
C728 C 0.28031 0.65763 0.36943 0.0
C729 C 0.34129 0.70608 0.30318 0.0
C730 C 0.35508 0.72306 0.32596 0.0
C731 C 0.33298 0.70849 0.34669 0.0
C732 C 0.39487 0.7491 0.32964 0.0
C733 C 0.36351 0.72038 0.28017 0.0
C734 C 0.41442 0.73766 0.3444 0.0
C735 C 0.45247 0.75828 0.34574 0.0
C736 C 0.47214 0.79084 0.33216 0.0
C737 C 0.45256 0.80358 0.31841 0.0
C738 C 0.41409 0.78291 0.31727 0.0
H739 H 0.3501 0.70178 0.26446 0.0
H740 H 0.36711 0.74778 0.27568 0.0
H741 H 0.39115 0.72365 0.28266 0.0
H742 H 0.40032 0.71171 0.35413 0.0
H743 H 0.46648 0.74778 0.35677 0.0
H744 H 0.63654 0.17395 0.68818 0.0
H745 H 0.60282 0.20769 0.68721 0.0
H746 H 0.68589 0.28926 0.64021 0.0
H747 H 0.71854 0.25562 0.64043 0.0
H748 H 0.62429 0.27264 0.70458 0.0
H749 H 0.59856 0.28228 0.60855 0.0
H750 H 0.60989 0.24855 0.61943 0.0
H751 H 0.64561 0.29419 0.61061 0.0
C752 C 0.64704 0.19864 0.67721 0.0
C753 C 0.68035 0.2122 0.66451 0.0
C754 C 0.62772 0.21783 0.67663 0.0
C755 C 0.64128 0.25063 0.66318 0.0
C756 C 0.67396 0.26338 0.65 0.0
H757 H 0.71421 0.45642 0.69492 0.0
H758 H 0.68356 0.38994 0.6962 0.0
C759 C 0.69303 0.24431 0.65047 0.0
C760 C 0.6253 0.27501 0.66544 0.0
H761 H 0.62138 0.34139 0.6322 0.0
C762 C 0.62222 0.2868 0.68871 0.0
C763 C 0.62067 0.29262 0.64494 0.0
C764 C 0.61841 0.27827 0.61953 0.0
C765 C 0.62059 0.31914 0.69189 0.0
C766 C 0.62356 0.34074 0.67134 0.0
C767 C 0.62055 0.32574 0.6481 0.0
C768 C 0.63791 0.38104 0.67336 0.0
C769 C 0.61823 0.33104 0.71732 0.0
C770 C 0.62303 0.39876 0.65971 0.0
C771 C 0.64123 0.4374 0.65847 0.0
C772 C 0.67471 0.45879 0.67074 0.0
C773 C 0.68856 0.44092 0.68516 0.0
C774 C 0.67061 0.40263 0.68626 0.0
H775 H 0.59924 0.30676 0.72844 0.0
H776 H 0.64567 0.3436 0.72602 0.0
H777 H 0.60858 0.35129 0.71753 0.0
H778 H 0.59806 0.38273 0.64935 0.0
H779 H 0.62982 0.45037 0.64724 0.0
H780 H 0.45996 0.63748 0.01725 0.0
H781 H 0.3926 0.60614 0.01595 0.0
H782 H 0.39939 0.69347 0.9708 0.0
H783 H 0.46559 0.7238 0.9713 0.0
H784 H 0.35157 0.62943 0.0341 0.0
H785 H 0.31677 0.60915 0.93777 0.0
H786 H 0.36111 0.61835 0.94852 0.0
H787 H 0.35334 0.65577 0.94074 0.0
C788 C 0.44694 0.64945 0.0066 0.0
C789 C 0.46816 0.68326 0.9945 0.0
C790 C 0.40848 0.63147 0.00583 0.0
C791 C 0.39075 0.64692 0.99281 0.0
C792 C 0.41212 0.68011 0.98022 0.0
H793 H 0.26225 0.72383 0.02776 0.0
H794 H 0.29716 0.69248 0.02744 0.0
C795 C 0.45023 0.69784 0.98086 0.0
C796 C 0.35065 0.63233 0.99501 0.0
H797 H 0.28211 0.63249 0.96235 0.0
C798 C 0.33579 0.62868 0.01834 0.0
C799 C 0.32896 0.62948 0.97461 0.0
C800 C 0.34088 0.62794 0.94904 0.0
C801 C 0.30252 0.62809 0.02178 0.0
C802 C 0.2846 0.63268 0.00149 0.0
C803 C 0.29645 0.63039 0.97807 0.0
C804 C 0.2595 0.64771 0.00413 0.0
C805 C 0.28826 0.62504 0.04728 0.0
C806 C 0.2268 0.63361 0.99069 0.0
C807 C 0.20688 0.6522 0.99041 0.0
C808 C 0.21959 0.68529 0.00343 0.0
C809 C 0.25159 0.69847 0.01749 0.0
C810 C 0.2714 0.68013 0.01765 0.0
H811 H 0.29284 0.60525 0.05799 0.0
H812 H 0.30368 0.65225 0.05639 0.0
H813 H 0.25853 0.61586 0.04752 0.0
H814 H 0.2173 0.6089 0.97986 0.0
H815 H 0.18229 0.64132 0.97943 0.0
H816 H 0.52729 0.25933 0.35776 0.0
H817 H 0.59358 0.29501 0.35925 0.0
H818 H 0.60017 0.20439 0.32753 0.0
H819 H 0.53283 0.16852 0.325 0.0
H820 H 0.64712 0.28756 0.38009 0.0
H821 H 0.65851 0.28479 0.27931 0.0
H822 H 0.61457 0.26703 0.29392 0.0
H823 H 0.63863 0.24184 0.29552 0.0
C824 C 0.54259 0.24666 0.3512 0.0
C825 C 0.52469 0.21126 0.34084 0.0
C826 C 0.58069 0.26711 0.35223 0.0
C827 C 0.60201 0.25268 0.34317 0.0
C828 C 0.58432 0.21644 0.33413 0.0
H829 H 0.81844 0.45452 0.35488 0.0
H830 H 0.78082 0.38693 0.3569 0.0
C831 C 0.54587 0.19592 0.3328 0.0
C832 C 0.64234 0.27771 0.34161 0.0
H833 H 0.70717 0.33231 0.30018 0.0
C834 C 0.66083 0.29683 0.3627 0.0
C835 C 0.66034 0.28926 0.31892 0.0
C836 C 0.64214 0.26988 0.29556 0.0
C837 C 0.69436 0.33015 0.36141 0.0
C838 C 0.71037 0.34386 0.3384 0.0
C839 C 0.69452 0.32189 0.31774 0.0
C840 C 0.73693 0.38366 0.33462 0.0
C841 C 0.71006 0.35224 0.38436 0.0
C842 C 0.72571 0.40402 0.32045 0.0
C843 C 0.74718 0.44217 0.31896 0.0
C844 C 0.78039 0.46114 0.33182 0.0
C845 C 0.79274 0.44071 0.34502 0.0
C846 C 0.77121 0.40213 0.34629 0.0
H847 H 0.69214 0.33904 0.40037 0.0
H848 H 0.73721 0.35505 0.38816 0.0
H849 H 0.71401 0.38034 0.38222 0.0
H850 H 0.69938 0.3905 0.31128 0.0
H851 H 0.7369 0.45684 0.30839 0.0
H852 H 0.35567 0.82622 0.6803 0.0
H853 H 0.38684 0.79009 0.67761 0.0
H854 H 0.29341 0.70438 0.63943 0.0
H855 H 0.26309 0.74026 0.6413 0.0
H856 H 0.36728 0.72687 0.69762 0.0
H857 H 0.3724 0.70518 0.60021 0.0
H858 H 0.36423 0.74078 0.61172 0.0
H859 H 0.32652 0.69449 0.60677 0.0
C860 C 0.3422 0.79998 0.67092 0.0
C861 C 0.30684 0.7861 0.66109 0.0
C862 C 0.36007 0.77944 0.66933 0.0
C863 C 0.34293 0.74486 0.65777 0.0
C864 C 0.30796 0.73151 0.64761 0.0
H865 H 0.28034 0.54126 0.69666 0.0
H866 H 0.30835 0.60759 0.69498 0.0
C867 C 0.29032 0.75196 0.64903 0.0
C868 C 0.35839 0.71994 0.65894 0.0
H869 H 0.35611 0.64993 0.62622 0.0
C870 C 0.36617 0.71087 0.68185 0.0
C871 C 0.35871 0.69986 0.63838 0.0
C872 C 0.35546 0.71103 0.6129 0.0
C873 C 0.36881 0.6791 0.68511 0.0
C874 C 0.36218 0.65531 0.66515 0.0
C875 C 0.35994 0.66736 0.64177 0.0
C876 C 0.34992 0.61565 0.6686 0.0
C877 C 0.37646 0.67027 0.71021 0.0
C878 C 0.36342 0.59754 0.65404 0.0
C879 C 0.34672 0.55898 0.6546 0.0
C880 C 0.3161 0.53802 0.66959 0.0
C881 C 0.30379 0.55643 0.68484 0.0
C882 C 0.32025 0.59465 0.68418 0.0
H883 H 0.3968 0.69589 0.71965 0.0
H884 H 0.35081 0.6579 0.72108 0.0
H885 H 0.38705 0.65079 0.70972 0.0
H886 H 0.38601 0.6131 0.64166 0.0
H887 H 0.35687 0.54559 0.64265 0.0
H888 H 0.82199 0.35538 0.97931 0.0
H889 H 0.78541 0.38613 0.97949 0.0
H890 H 0.70709 0.30196 0.02744 0.0
H891 H 0.74355 0.27223 0.02801 0.0
H892 H 0.7201 0.3604 0.96204 0.0
H893 H 0.7094 0.38856 0.05759 0.0
H894 H 0.74426 0.37876 0.04713 0.0
H895 H 0.69946 0.34183 0.0561 0.0
C896 C 0.79739 0.34402 0.99033 0.0
C897 C 0.78559 0.31123 0.00353 0.0
C898 C 0.77657 0.36165 0.99045 0.0
C899 C 0.74384 0.34689 0.00391 0.0
C900 C 0.73283 0.31479 0.01761 0.0
H901 H 0.53589 0.27028 0.97146 0.0
H902 H 0.60203 0.29938 0.97104 0.0
C903 C 0.75355 0.2974 0.01761 0.0
C904 C 0.71795 0.36094 0.00117 0.0
H905 H 0.65091 0.3642 0.03372 0.0
C906 C 0.70579 0.36261 0.97773 0.0
C907 C 0.69998 0.36554 0.02143 0.0
C908 C 0.71441 0.36904 0.04692 0.0
C909 C 0.67314 0.36325 0.97424 0.0
C910 C 0.65163 0.36079 0.99465 0.0
C911 C 0.66661 0.36474 0.01796 0.0
C912 C 0.61161 0.34673 0.9925 0.0
C913 C 0.66096 0.36423 0.94865 0.0
C914 C 0.59446 0.36306 0.0052 0.0
C915 C 0.55605 0.34582 0.00591 0.0
C916 C 0.53429 0.3119 0.99407 0.0
C917 C 0.55167 0.29638 0.98078 0.0
C918 C 0.58975 0.31338 0.98021 0.0
H919 H 0.68497 0.38251 0.93714 0.0
H920 H 0.6481 0.33614 0.9407 0.0
H921 H 0.64096 0.3741 0.948 0.0
H922 H 0.61074 0.38854 0.01509 0.0
H923 H 0.54347 0.3585 0.01628 0.0
H924 H 0.21129 0.33765 0.34614 0.0
H925 H 0.21901 0.28404 0.34646 0.0
H926 H 0.10655 0.21489 0.324 0.0
H927 H 0.09824 0.26895 0.3237 0.0
H928 H 0.17182 0.21022 0.37262 0.0
H929 H 0.17802 0.20587 0.27162 0.0
H930 H 0.18737 0.24793 0.28669 0.0
H931 H 0.14164 0.2091 0.2866 0.0
C932 C 0.18798 0.31113 0.34139 0.0
C933 C 0.15419 0.3077 0.33471 0.0
C934 C 0.19244 0.28045 0.34172 0.0
C935 C 0.16337 0.24565 0.33525 0.0
C936 C 0.12926 0.24164 0.32905 0.0
H937 H 0.25762 0.09798 0.34018 0.0
H938 H 0.20521 0.1086 0.3396 0.0
C939 C 0.12462 0.2725 0.32889 0.0
C940 C 0.17066 0.21476 0.33378 0.0
H941 H 0.20663 0.17928 0.29384 0.0
C942 C 0.17801 0.20201 0.3554 0.0
C943 C 0.17875 0.20437 0.31126 0.0
C944 C 0.1711 0.21736 0.28761 0.0
C945 C 0.19664 0.18213 0.35512 0.0
C946 C 0.20817 0.17514 0.33268 0.0
C947 C 0.19754 0.18465 0.31099 0.0
C948 C 0.23827 0.16683 0.33169 0.0
C949 C 0.20733 0.17211 0.37882 0.0
C950 C 0.27384 0.196 0.32727 0.0
C951 C 0.30357 0.19024 0.32777 0.0
C952 C 0.29841 0.155 0.33257 0.0
C953 C 0.26251 0.12545 0.33646 0.0
C954 C 0.23258 0.1314 0.33612 0.0
H955 H 0.19443 0.17755 0.39466 0.0
H956 H 0.19908 0.14246 0.37876 0.0
H957 H 0.23762 0.18831 0.38098 0.0
H958 H 0.27869 0.22357 0.32391 0.0
H959 H 0.33068 0.21363 0.32455 0.0
H960 H 0.88011 0.21798 0.64671 0.0
H961 H 0.94213 0.22817 0.64755 0.0
H962 H 0.90112 0.11632 0.67152 0.0
H963 H 0.83815 0.10547 0.67048 0.0
H964 H 0.95896 0.17289 0.70063 0.0
H965 H 0.99572 0.19013 0.60338 0.0
H966 H 0.97304 0.21503 0.61185 0.0
H967 H 0.94868 0.16547 0.61388 0.0
C968 C 0.88395 0.19522 0.65179 0.0
C969 C 0.85403 0.16085 0.65846 0.0
C970 C 0.91952 0.20106 0.6521 0.0
C971 C 0.9261 0.1728 0.65917 0.0
C972 C 0.89645 0.13828 0.66568 0.0
H973 H 0.16631 0.27392 0.65716 0.0
H974 H 0.10364 0.22083 0.65486 0.0
C975 C 0.86057 0.13221 0.66509 0.0
C976 C 0.96449 0.18139 0.66195 0.0
H977 H 0.04599 0.22527 0.63168 0.0
C978 C 0.97796 0.18321 0.68548 0.0
C979 C 0.98914 0.19421 0.64215 0.0
C980 C 0.97584 0.19076 0.61636 0.0
C981 C 0.01585 0.20139 0.68999 0.0
C982 C 0.04054 0.21829 0.67049 0.0
C983 C 0.02701 0.21268 0.64667 0.0
C984 C 0.07902 0.24746 0.67467 0.0
C985 C 0.02912 0.20447 0.71576 0.0
C986 C 0.08578 0.27984 0.68655 0.0
C987 C 0.12115 0.31015 0.68759 0.0
C988 C 0.15067 0.30876 0.67685 0.0
C989 C 0.14416 0.27578 0.66573 0.0
C990 C 0.10845 0.24545 0.66441 0.0
H991 H 0.00936 0.1804 0.72675 0.0
H992 H 0.05643 0.2065 0.71643 0.0
H993 H 0.03155 0.22964 0.72418 0.0
H994 H 0.06335 0.2823 0.69409 0.0
H995 H 0.12511 0.33502 0.6963 0.0
H996 H 0.79483 0.11861 0.02695 0.0
H997 H 0.78628 0.05698 0.02523 0.0
H998 H 0.89113 0.09928 0.98982 0.0
H999 H 0.90025 0.16191 0.99166 0.0
H1000 H 0.83143 0.04092 0.96503 0.0
H1001 H 0.83172 0.00356 0.06094 0.0
H1002 H 0.80487 0.02548 0.05692 0.0
H1003 H 0.85343 0.05093 0.05073 0.0
C1004 C 0.8165 0.11516 0.0192 0.0
C1005 C 0.84821 0.14526 0.00942 0.0
C1006 C 0.8117 0.07983 0.01844 0.0
C1007 C 0.83837 0.07366 0.00781 0.0
C1008 C 0.8705 0.10363 0.99843 0.0
H1009 H 0.7332 0.83163 0.00546 0.0
H1010 H 0.78739 0.89386 0.00692 0.0
C1011 C 0.8756 0.13931 0.99947 0.0
C1012 C 0.82959 0.03518 0.00396 0.0
H1013 H 0.78987 0.95306 0.03404 0.0
C1014 C 0.82358 0.02174 0.98009 0.0
C1015 C 0.81999 0.01023 0.02355 0.0
C1016 C 0.82824 0.02339 0.04947 0.0
C1017 C 0.80406 0.98373 0.97545 0.0
C1018 C 0.79008 0.95885 0.99517 0.0
C1019 C 0.80012 0.97221 0.01892 0.0
C1020 C 0.7594 0.92071 0.99188 0.0
C1021 C 0.79621 0.97055 0.94952 0.0
C1022 C 0.72585 0.9154 0.98314 0.0
C1023 C 0.69497 0.88031 0.9826 0.0
C1024 C 0.69691 0.84956 0.99071 0.0
C1025 C 0.73084 0.85473 0.99894 0.0
C1026 C 0.76181 0.89017 -0.00024 0.0
H1027 H 0.81841 0.99011 0.93723 0.0
H1028 H 0.79318 0.94279 0.94759 0.0
H1029 H 0.77025 0.96892 0.94361 0.0
H1030 H 0.72317 0.93872 0.97755 0.0
H1031 H 0.6694 0.87753 0.97625 0.0
H1032 H 0.66614 0.78707 0.35567 0.0
H1033 H 0.71705 0.77546 0.35445 0.0
H1034 H 0.78719 0.88377 0.32456 0.0
H1035 H 0.73597 0.89601 0.32589 0.0
H1036 H 0.7848 0.82439 0.29771 0.0
H1037 H 0.812 0.81496 0.3947 0.0
H1038 H 0.76376 0.78983 0.38813 0.0
H1039 H 0.78914 0.83912 0.38416 0.0
C1040 C 0.69245 0.80881 0.34922 0.0
C1041 C 0.69691 0.84251 0.3409 0.0
C1042 C 0.72167 0.80219 0.34872 0.0
C1043 C 0.75602 0.82899 0.33982 0.0
C1044 C 0.76096 0.86295 0.3318 0.0
H1045 H 0.89379 0.72605 0.34051 0.0
H1046 H 0.88397 0.779 0.34229 0.0
C1047 C 0.73169 0.86984 0.33257 0.0
C1048 C 0.78488 0.81913 0.33661 0.0
H1049 H 0.82376 0.77656 0.36703 0.0
C1050 C 0.79441 0.81504 0.31289 0.0
C1051 C 0.79793 0.80753 0.35641 0.0
C1052 C 0.79049 0.81345 0.3823 0.0
C1053 C 0.81318 0.79592 0.30839 0.0
C1054 C 0.82223 0.78037 0.32809 0.0
C1055 C 0.81637 0.7881 0.3519 0.0
C1056 C 0.83116 0.75082 0.32439 0.0
C1057 C 0.82114 0.79051 0.28252 0.0
C1058 C 0.8047 0.71759 0.31379 0.0
C1059 C 0.80994 0.68737 0.31302 0.0
C1060 C 0.84186 0.68969 0.32278 0.0
C1061 C 0.86899 0.72343 0.33271 0.0
C1062 C 0.86348 0.75369 0.33374 0.0
H1063 H 0.82467 0.81366 0.27082 0.0
H1064 H 0.84622 0.7882 0.2813 0.0
H1065 H 0.79763 0.76474 0.2753 0.0
H1066 H 0.77917 0.71451 0.30699 0.0
H1067 H 0.78844 0.6619 0.30529 0.0
H1068 H 0.12126 0.80924 0.63434 0.0
H1069 H 0.05875 0.79747 0.63779 0.0
H1070 H 0.0928 0.88015 0.69381 0.0
H1071 H 0.15618 0.89221 0.6903 0.0
H1072 H 0.03547 0.81053 0.70734 0.0
H1073 H 0.00303 0.85055 0.61958 0.0
H1074 H 0.02651 0.82529 0.61504 0.0
H1075 H 0.0496 0.86919 0.63035 0.0
C1076 C 0.11564 0.82539 0.6471 0.0
C1077 C 0.1434 0.85133 0.66222 0.0
C1078 C 0.07997 0.819 0.64883 0.0
C1079 C 0.07121 0.83831 0.6658 0.0
C1080 C 0.09916 0.86534 0.68037 0.0
H1081 H 0.82896 0.72713 0.66873 0.0
H1082 H 0.89127 0.78082 0.67102 0.0
C1083 C 0.13522 0.87217 0.67836 0.0
C1084 C 0.03205 0.82561 0.67045 0.0
H1085 H 0.95209 0.79643 0.6394 0.0
C1086 C 0.01723 0.80857 0.69279 0.0
C1087 C 0.00825 0.8235 0.65163 0.0
C1088 C 0.02276 0.84351 0.6279 0.0
C1089 C 0.97923 0.78592 0.69578 0.0
C1090 C 0.95574 0.78004 0.67588 0.0
C1091 C 0.97023 0.80049 0.65452 0.0
C1092 C 0.91778 0.74843 0.67544 0.0
C1093 C 0.96472 0.76646 0.7197 0.0
C1094 C 0.91233 0.71264 0.67667 0.0
C1095 C 0.87714 0.68212 0.67516 0.0
C1096 C 0.84644 0.68665 0.67239 0.0
C1097 C 0.85196 0.72265 0.671 0.0
C1098 C 0.88746 0.75334 0.67234 0.0
H1099 H 0.98317 0.78254 0.73491 0.0
H1100 H 0.93676 0.76174 0.72341 0.0
H1101 H 0.96327 0.7393 0.71912 0.0
H1102 H 0.93548 0.70827 0.67843 0.0
H1103 H 0.87416 0.65495 0.67608 0.0
H1104 H 0.32778 0.12289 0.9708 0.0
H1105 H 0.27463 0.06151 0.9744 0.0
H1106 H 0.21875 0.10485 0.0168 0.0
H1107 H 0.27238 0.16719 0.01307 0.0
H1108 H 0.22342 0.0467 0.03906 0.0
H1109 H 0.17066 0.00794 0.94577 0.0
H1110 H 0.21977 0.02974 0.9462 0.0
H1111 H 0.19805 0.05545 0.95539 0.0
C1112 C 0.30403 0.11967 0.98051 0.0
C1113 C 0.3044 0.14991 0.99173 0.0
C1114 C 0.27343 0.08453 0.98234 0.0
C1115 C 0.24251 0.07872 0.99551 0.0
C1116 C 0.24219 0.10892 0.00625 0.0
H1117 H 0.10565 0.83705 9e-05 0.0
H1118 H 0.1142 0.89946 0.0001 0.0
C1119 C 0.27281 0.14442 0.00411 0.0
C1120 C 0.21339 0.04036 0.00052 0.0
H1121 H 0.16628 0.9578 0.97132 0.0
C1122 C 0.20975 0.0273 0.02439 0.0
C1123 C 0.19497 0.01512 0.98149 0.0
C1124 C 0.19574 0.02788 0.95581 0.0
C1125 C 0.19198 0.98935 0.02922 0.0
C1126 C 0.178 0.96417 0.00966 0.0
C1127 C 0.17759 0.97717 0.98627 0.0
C1128 C 0.17063 0.92594 0.0122 0.0
C1129 C 0.19061 0.97662 0.05498 0.0
C1130 C 0.1996 0.92033 0.0188 0.0
C1131 C 0.19503 0.88508 0.01855 0.0
C1132 C 0.1613 0.85448 0.01171 0.0
C1133 C 0.13193 0.85999 0.00558 0.0
C1134 C 0.1367 0.89556 0.00561 0.0
H1135 H 0.18961 0.99626 0.06807 0.0
H1136 H 0.16642 0.94879 0.058 0.0
H1137 H 0.21583 0.9754 0.05883 0.0
H1138 H 0.22631 0.9435 0.02332 0.0
H1139 H 0.21832 0.88204 0.02326 0.0
H1140 H 0.88781 0.22686 0.09614 0.0
H1141 H 0.92034 0.24598 0.13474 0.0
H1142 H 0.01407 0.33482 0.0989 0.0
H1143 H 0.98154 0.31598 0.05994 0.0
H1144 H 0.98819 0.25117 0.14638 0.0
H1145 H 0.99251 0.38529 0.15634 0.0
H1146 H 0.96189 0.35002 0.13543 0.0
H1147 H 0.00966 0.3784 0.12811 0.0
C1148 C 0.91535 0.2505 0.09637 0.0
C1149 C 0.93213 0.26989 0.07493 0.0
C1150 C 0.93386 0.26138 0.11849 0.0
C1151 C 0.96941 0.29198 0.11969 0.0
C1152 C 0.9864 0.31143 0.09837 0.0
H1153 H 0.12089 0.34513 0.23995 0.0
H1154 H 0.09092 0.33054 0.20033 0.0
C1155 C 0.96788 0.30051 0.07613 0.0
C1156 C 0.98878 0.30264 0.14329 0.0
H1157 H 0.02357 0.37062 0.18619 0.0
C1158 C 0.99602 0.27731 0.15507 0.0
C1159 C 0.99849 0.33657 0.15466 0.0
C1160 C 0.99005 0.36412 0.14315 0.0
C1161 C 0.01295 0.28508 0.17792 0.0
C1162 C 0.02324 0.31926 0.18912 0.0
C1163 C 0.01579 0.34453 0.17744 0.0
C1164 C 0.04166 0.32911 0.21305 0.0
C1165 C 0.01908 0.25639 0.19012 0.0
C1166 C 0.02414 0.3339 0.23322 0.0
C1167 C 0.04119 0.34225 0.25597 0.0
C1168 C 0.07614 0.34617 0.25884 0.0
C1169 C 0.09382 0.34196 0.23845 0.0
C1170 C 0.07674 0.33356 0.21578 0.0
H1171 H 0.0022 0.22871 0.18178 0.0
H1172 H 0.04839 0.26439 0.1883 0.0
H1173 H 0.01249 0.25445 0.20977 0.0
H1174 H 0.99709 0.33071 0.2314 0.0
H1175 H 0.02695 0.34554 0.27128 0.0
H1176 H 0.76487 0.12615 0.56918 0.0
H1177 H 0.74811 0.09508 0.52985 0.0
H1178 H 0.68045 0.9908 0.56549 0.0
H1179 H 0.69685 0.02171 0.60513 0.0
H1180 H 0.73765 0.9981 0.52763 0.0
H1181 H 0.64145 0.04468 0.49714 0.0
H1182 H 0.68433 0.0786 0.51046 0.0
H1183 H 0.65075 0.04182 0.52885 0.0
C1184 C 0.74636 0.0966 0.56872 0.0
C1185 C 0.73223 0.07633 0.59028 0.0
C1186 C 0.73671 0.07898 0.54621 0.0
C1187 C 0.71289 0.0408 0.54486 0.0
C1188 C 0.69875 0.02038 0.56627 0.0
H1189 H 0.6425 0.88113 0.42856 0.0
H1190 H 0.65718 0.91322 0.46738 0.0
C1191 C 0.70813 0.03805 0.58884 0.0
C1192 C 0.70383 0.02216 0.52103 0.0
H1193 H 0.65567 0.01135 0.46892 0.0
C1194 C 0.71961 0.00079 0.51479 0.0
C1195 C 0.68075 0.02632 0.50431 0.0
C1196 C 0.66307 0.04891 0.51043 0.0
C1197 C 0.71315 0.98358 0.49204 0.0
C1198 C 0.68938 0.98703 0.47542 0.0
C1199 C 0.6738 0.00868 0.48167 0.0
C1200 C 0.67972 0.96768 0.45171 0.0
C1201 C 0.73258 0.96264 0.48586 0.0
C1202 C 0.68612 0.98748 0.42995 0.0
C1203 C 0.67719 0.96909 0.40761 0.0
C1204 C 0.66182 0.93061 0.40672 0.0
C1205 C 0.65485 0.91086 0.42858 0.0
C1206 C 0.66341 0.92918 0.45082 0.0
H1207 H 0.75782 0.9722 0.49691 0.0
H1208 H 0.71407 0.93293 0.48977 0.0
H1209 H 0.74022 0.96565 0.46636 0.0
H1210 H 0.69839 0.0172 0.43025 0.0
H1211 H 0.68271 0.98501 0.39108 0.0
H1212 H 0.65789 0.67871 0.93864 0.0
H1213 H 0.6724 0.66062 0.89969 0.0
H1214 H 0.67107 0.75183 0.86458 0.0
H1215 H 0.65671 0.77017 0.90318 0.0
H1216 H 0.63109 0.64366 0.85425 0.0
H1217 H 0.77269 0.76355 0.84711 0.0
H1218 H 0.74767 0.74978 0.8754 0.0
H1219 H 0.73764 0.77494 0.85327 0.0
C1220 C 0.66079 0.69496 0.92263 0.0
C1221 C 0.65647 0.72606 0.92404 0.0
C1222 C 0.66898 0.68454 0.90043 0.0
C1223 C 0.67321 0.7052 0.87941 0.0
C1224 C 0.66845 0.7359 0.88071 0.0
H1225 H 0.6794 0.65292 0.7274 0.0
H1226 H 0.66297 0.66728 0.76696 0.0
C1227 C 0.66018 0.74627 0.9028 0.0
C1228 C 0.68254 0.69476 0.85599 0.0
H1229 H 0.74887 0.72546 0.81233 0.0
C1230 C 0.65686 0.6614 0.84508 0.0
C1231 C 0.71631 0.71794 0.84425 0.0
C1232 C 0.74537 0.75343 0.85564 0.0
C1233 C 0.66387 0.65088 0.82242 0.0
C1234 C 0.69725 0.67454 0.8104 0.0
C1235 C 0.72316 0.70759 0.82153 0.0
C1236 C 0.7064 0.66513 0.78653 0.0
C1237 C 0.63579 0.61438 0.81164 0.0
C1238 C 0.73654 0.65978 0.78445 0.0
C1239 C 0.74606 0.65174 0.76197 0.0
C1240 C 0.72574 0.64918 0.74106 0.0
C1241 C 0.69556 0.65468 0.74317 0.0
C1242 C 0.686 0.66265 0.76575 0.0
H1243 H 0.61546 0.59606 0.82537 0.0
H1244 H 0.62075 0.61929 0.79694 0.0
H1245 H 0.64932 0.59994 0.80363 0.0
H1246 H 0.75267 0.66172 0.80029 0.0
H1247 H 0.76941 0.64758 0.76102 0.0
H1248 H 0.02378 0.69168 0.0606 0.0
H1249 H 0.99114 0.67273 0.09955 0.0
H1250 H 0.09246 0.74178 0.13757 0.0
H1251 H 0.12526 0.76111 0.09894 0.0
H1252 H 0.03966 0.65865 0.15354 0.0
H1253 H 0.98044 0.75101 0.14667 0.0
H1254 H 0.97929 0.72498 0.12031 0.0
H1255 H 0.02244 0.76127 0.13133 0.0
C1256 C 0.03909 0.70277 0.07726 0.0
C1257 C 0.07703 0.72807 0.07669 0.0
C1258 C 0.02044 0.69194 0.09943 0.0
C1259 C 0.03951 0.70602 0.12128 0.0
C1260 C 0.07739 0.73072 0.12082 0.0
H1261 H 0.98036 0.66809 0.27458 0.0
H1262 H 0.01332 0.68314 0.2358 0.0
C1263 C 0.09599 0.7418 0.09872 0.0
C1264 C 0.01991 0.69561 0.14471 0.0
H1265 H 0.9651 0.71314 0.18118 0.0
C1266 C 0.02327 0.67042 0.15966 0.0
C1267 C 0.9987 0.71115 0.15245 0.0
C1268 C 0.99492 0.73876 0.13701 0.0
C1269 C 0.00538 0.65988 0.18221 0.0
C1270 C 0.98444 0.67577 0.19016 0.0
C1271 C 0.98121 0.70103 0.1751 0.0
C1272 C 0.96484 0.66607 0.21375 0.0
C1273 C 0.00833 0.63118 0.19699 0.0
C1274 C 0.92687 0.65235 0.21426 0.0
C1275 C 0.90817 0.64435 0.2363 0.0
C1276 C 0.92704 0.64983 0.25835 0.0
C1277 C 0.96507 0.6634 0.25787 0.0
C1278 C 0.98387 0.67175 0.23573 0.0
H1279 H 0.01644 0.61458 0.18559 0.0
H1280 H 0.02964 0.64512 0.21116 0.0
H1281 H 0.98193 0.61222 0.2061 0.0
H1282 H 0.91165 0.64782 0.19753 0.0
H1283 H 0.87883 0.63375 0.23601 0.0
H1284 H 0.32959 0.021 0.39399 0.0
H1285 H 0.31474 0.99057 0.43375 0.0
H1286 H 0.31649 0.08537 0.46557 0.0
H1287 H 0.33108 0.11587 0.4261 0.0
H1288 H 0.35551 0.0165 0.47841 0.0
H1289 H 0.21541 0.99731 0.48531 0.0
H1290 H 0.24012 0.00736 0.45696 0.0
H1291 H 0.25096 0.04358 0.47851 0.0
C1292 C 0.32664 0.03528 0.40943 0.0
C1293 C 0.33119 0.07072 0.40683 0.0
C1294 C 0.31827 0.01792 0.43211 0.0
C1295 C 0.31408 0.03558 0.45247 0.0
C1296 C 0.319 0.07105 0.44998 0.0
H1297 H 0.30911 0.98102 0.60573 0.0
H1298 H 0.32552 0.01137 0.56595 0.0
C1299 C 0.32742 0.08845 0.42739 0.0
C1300 C 0.30481 0.01716 0.47644 0.0
H1301 H 0.23916 0.98439 0.52062 0.0
C1302 C 0.33006 0.00936 0.48765 0.0
C1303 C 0.27145 0.00767 0.48829 0.0
C1304 C 0.24272 0.01407 0.47662 0.0
C1305 C 0.323 0.99272 0.51065 0.0
C1306 C 0.29003 0.98408 0.52276 0.0
C1307 C 0.26459 0.99144 0.51138 0.0
C1308 C 0.28062 0.96604 0.54686 0.0
C1309 C 0.35052 0.98393 0.52164 0.0
C1310 C 0.24961 0.93089 0.54934 0.0
C1311 C 0.24008 0.91363 0.57195 0.0
C1312 C 0.26128 0.9313 0.59262 0.0
C1313 C 0.29225 0.96669 0.59016 0.0
C1314 C 0.3018 0.98395 0.56744 0.0
H1315 H 0.37026 0.98482 0.50791 0.0
H1316 H 0.36633 0.00453 0.53593 0.0
H1317 H 0.33646 0.95622 0.53022 0.0
H1318 H 0.23287 0.91667 0.53369 0.0
H1319 H 0.21611 0.88633 0.57315 0.0
H1320 H 0.34607 0.32033 0.93807 0.0
H1321 H 0.33196 0.33814 0.89886 0.0
H1322 H 0.33139 0.24534 0.86472 0.0
H1323 H 0.34532 0.22728 0.90357 0.0
H1324 H 0.37279 0.35337 0.85309 0.0
H1325 H 0.23015 0.23485 0.84753 0.0
H1326 H 0.25561 0.24908 0.87563 0.0
H1327 H 0.26485 0.223 0.85378 0.0
C1328 C 0.34284 0.30368 0.92222 0.0
C1329 C 0.34647 0.2722 0.92398 0.0
C1330 C 0.33491 0.31395 0.89987 0.0
C1331 C 0.33026 0.29277 0.87904 0.0
C1332 C 0.33437 0.2617 0.88068 0.0
H1333 H 0.31971 0.34403 0.72669 0.0
H1334 H 0.33772 0.3294 0.76564 0.0
C1335 C 0.34237 0.25148 0.90293 0.0
C1336 C 0.32087 0.30287 0.8555 0.0
H1337 H 0.25354 0.27238 0.81255 0.0
C1338 C 0.34672 0.33578 0.8442 0.0
C1339 C 0.28675 0.27987 0.84411 0.0
C1340 C 0.25754 0.24485 0.85591 0.0
C1341 C 0.33944 0.34612 0.82155 0.0
C1342 C 0.30558 0.32274 0.80996 0.0
C1343 C 0.27962 0.29004 0.82141 0.0
C1344 C 0.29569 0.33238 0.78642 0.0
C1345 C 0.36766 0.38222 0.81038 0.0
C1346 C 0.26586 0.33835 0.78523 0.0
C1347 C 0.25546 0.34651 0.76313 0.0
C1348 C 0.27455 0.34863 0.74169 0.0
C1349 C 0.30448 0.34261 0.74288 0.0
C1350 C 0.31493 0.33447 0.76511 0.0
H1351 H 0.38885 0.40034 0.82374 0.0
H1352 H 0.38162 0.37667 0.79527 0.0
H1353 H 0.35437 0.39717 0.80281 0.0
H1354 H 0.25064 0.33676 0.80148 0.0
H1355 H 0.23236 0.35112 0.76292 0.0
H1356 H 0.21431 0.46649 0.40109 0.0
H1357 H 0.22772 0.46757 0.44427 0.0
H1358 H 0.12754 0.36369 0.454 0.0
H1359 H 0.11323 0.36299 0.41091 0.0
H1360 H 0.13903 0.40893 0.49137 0.0
H1361 H 0.26662 0.40577 0.47288 0.0
H1362 H 0.26697 0.44473 0.45918 0.0
H1363 H 0.23392 0.39882 0.44941 0.0
C1364 C 0.19488 0.44404 0.41245 0.0
C1365 C 0.16287 0.41443 0.40248 0.0
C1366 C 0.20278 0.44455 0.4371 0.0
C1367 C 0.17924 0.41514 0.45222 0.0
C1368 C 0.14632 0.38649 0.44261 0.0
H1369 H 0.24345 0.36638 0.59132 0.0
H1370 H 0.22751 0.36734 0.54878 0.0
C1371 C 0.13813 0.38618 0.41797 0.0
C1372 C 0.18931 0.41394 0.47789 0.0
H1373 H 0.25706 0.41731 0.51377 0.0
C1374 C 0.16478 0.41063 0.49628 0.0
C1375 C 0.22256 0.41532 0.48427 0.0
C1376 C 0.24884 0.41595 0.46539 0.0
C1377 C 0.17289 0.40943 0.52087 0.0
C1378 C 0.207 0.41277 0.52729 0.0
C1379 C 0.23118 0.41532 0.50888 0.0
C1380 C 0.21791 0.41315 0.55297 0.0
C1381 C 0.14442 0.40375 0.53964 0.0
C1382 C 0.21887 0.43924 0.56935 0.0
C1383 C 0.22758 0.43852 0.59373 0.0
C1384 C 0.23622 0.41211 0.60217 0.0
C1385 C 0.23689 0.38706 0.58548 0.0
C1386 C 0.22771 0.38753 0.56114 0.0
H1387 H 0.11643 0.39051 0.53165 0.0
H1388 H 0.1443 0.38637 0.55489 0.0
H1389 H 0.15068 0.43091 0.54703 0.0
H1390 H 0.21261 0.46005 0.56333 0.0
H1391 H 0.22723 0.45853 0.606 0.0
H1392 H 0.77698 0.22425 0.93804 0.0
H1393 H 0.76214 0.21159 0.89503 0.0
H1394 H 0.86917 0.22535 0.88149 0.0
H1395 H 0.8848 0.23942 0.92436 0.0
H1396 H 0.85145 0.2571 0.84681 0.0
H1397 H 0.73401 0.1163 0.86149 0.0
H1398 H 0.72843 0.15061 0.87719 0.0
H1399 H 0.76532 0.14281 0.88549 0.0
C1400 C 0.79747 0.22473 0.92592 0.0
C1401 C 0.83201 0.23257 0.93473 0.0
C1402 C 0.78879 0.21715 0.90133 0.0
C1403 C 0.81413 0.21648 0.88511 0.0
C1404 C 0.84902 0.22538 0.8937 0.0
H1405 H 0.76045 0.1153 0.74188 0.0
H1406 H 0.77425 0.12914 0.78498 0.0
C1407 C 0.85794 0.23346 0.91824 0.0
C1408 C 0.80442 0.20681 0.85915 0.0
H1409 H 0.74071 0.14087 0.8216 0.0
C1410 C 0.82731 0.23161 0.84131 0.0
C1411 C 0.7733 0.17321 0.85191 0.0
C1412 C 0.74909 0.14404 0.87002 0.0
C1413 C 0.8197 0.22404 0.81649 0.0
C1414 C 0.78757 0.1913 0.80928 0.0
C1415 C 0.76501 0.16622 0.82711 0.0
C1416 C 0.77735 0.18222 0.78333 0.0
C1417 C 0.84672 0.25085 0.79829 0.0
C1418 C 0.77335 0.20688 0.76818 0.0
C1419 C 0.76594 0.19928 0.74347 0.0
C1420 C 0.76157 0.16643 0.73348 0.0
C1421 C 0.7637 0.14088 0.74894 0.0
C1422 C 0.77165 0.14877 0.7736 0.0
H1423 H 0.87447 0.26776 0.80637 0.0
H1424 H 0.84903 0.23628 0.78216 0.0
H1425 H 0.83731 0.26995 0.79219 0.0
H1426 H 0.77638 0.23228 0.77539 0.0
H1427 H 0.76399 0.21936 0.73216 0.0
H1428 H 0.54755 0.78126 0.26814 0.0
H1429 H 0.54511 0.76639 0.22511 0.0
H1430 H 0.64547 0.86921 0.21285 0.0
H1431 H 0.6474 0.88498 0.25575 0.0
H1432 H 0.5982 0.85588 0.17721 0.0
H1433 H 0.60632 0.72985 0.19334 0.0
H1434 H 0.56768 0.72813 0.20826 0.0
H1435 H 0.61353 0.76228 0.21716 0.0
C1436 C 0.56905 0.80083 0.25629 0.0
C1437 C 0.59788 0.83419 0.26546 0.0
C1438 C 0.56777 0.79212 0.2317 0.0
C1439 C 0.59566 0.81617 0.21586 0.0
C1440 C 0.6238 0.85005 0.22478 0.0
H1441 H 0.64006 0.75486 0.07456 0.0
H1442 H 0.63978 0.76965 0.1174 0.0
C1443 C 0.62485 0.85905 0.24932 0.0
C1444 C 0.59549 0.80604 0.18999 0.0
H1445 H 0.59183 0.73884 0.15305 0.0
C1446 C 0.59696 0.83035 0.17193 0.0
C1447 C 0.59459 0.77305 0.18307 0.0
C1448 C 0.59584 0.74703 0.20148 0.0
C1449 C 0.59698 0.82238 0.14718 0.0
C1450 C 0.59425 0.78854 0.14027 0.0
C1451 C 0.59336 0.7645 0.15833 0.0
C1452 C 0.5932 0.77798 0.11441 0.0
C1453 C 0.6009 0.85079 0.12876 0.0
C1454 C 0.56646 0.77665 0.09857 0.0
C1455 C 0.56683 0.76866 0.07399 0.0
C1456 C 0.59351 0.76106 0.06481 0.0
C1457 C 0.61916 0.76063 0.08096 0.0
C1458 C 0.61907 0.76913 0.10549 0.0
H1459 H 0.61377 0.87883 0.13684 0.0
H1460 H 0.61773 0.85156 0.11302 0.0
H1461 H 0.5733 0.84376 0.12206 0.0
H1462 H 0.54547 0.78216 0.10517 0.0
H1463 H 0.54638 0.76878 0.06213 0.0
H1464 H 0.77085 0.54048 0.39453 0.0
H1465 H 0.75515 0.53853 0.43734 0.0
H1466 H 0.86225 0.63231 0.4515 0.0
H1467 H 0.87872 0.6337 0.40882 0.0
H1468 H 0.84305 0.58222 0.48635 0.0
H1469 H 0.72747 0.60682 0.4697 0.0
H1470 H 0.7218 0.5667 0.45419 0.0
H1471 H 0.75932 0.61154 0.44619 0.0
C1472 C 0.79117 0.56064 0.40674 0.0
C1473 C 0.82597 0.58747 0.39816 0.0
C1474 C 0.782 0.55967 0.4312 0.0
C1475 C 0.80712 0.58591 0.44752 0.0
C1476 C 0.84228 0.61198 0.43919 0.0
H1477 H 0.75288 0.63542 0.58968 0.0
H1478 H 0.76673 0.63472 0.54666 0.0
C1479 C 0.85167 0.61271 0.41477 0.0
C1480 C 0.79688 0.58601 0.4733 0.0
H1481 H 0.7329 0.58897 0.50986 0.0
C1482 C 0.81904 0.58385 0.49149 0.0
C1483 C 0.76592 0.58882 0.48004 0.0
C1484 C 0.74249 0.594 0.46151 0.0
C1485 C 0.81085 0.58385 0.51618 0.0
C1486 C 0.77889 0.58484 0.52289 0.0
C1487 C 0.75706 0.58763 0.50472 0.0
C1488 C 0.76815 0.58388 0.54868 0.0
C1489 C 0.83708 0.58372 0.5348 0.0
C1490 C 0.76308 0.55491 0.56396 0.0
C1491 C 0.75563 0.55547 0.5886 0.0
C1492 C 0.75231 0.58465 0.59839 0.0
C1493 C 0.75533 0.61257 0.58277 0.0
C1494 C 0.7633 0.61224 0.55816 0.0
H1495 H 0.86493 0.59416 0.52704 0.0
H1496 H 0.83942 0.60087 0.55079 0.0
H1497 H 0.82689 0.55503 0.54104 0.0
H1498 H 0.76546 0.5321 0.5569 0.0
H1499 H 0.75297 0.53325 0.60005 0.0
H1500 H 0.12195 0.76292 0.92593 0.0
H1501 H 0.13622 0.77607 0.88287 0.0
H1502 H 0.24131 0.78411 0.8943 0.0
H1503 H 0.22786 0.77239 0.93755 0.0
H1504 H 0.24921 0.83951 0.86748 0.0
H1505 H 0.13467 0.71072 0.82967 0.0
H1506 H 0.11862 0.73432 0.84873 0.0
H1507 H 0.14567 0.71621 0.86158 0.0
C1508 C 0.14795 0.76709 0.91926 0.0
C1509 C 0.17371 0.76651 0.93522 0.0
C1510 C 0.156 0.77442 0.89457 0.0
C1511 C 0.18961 0.78048 0.8852 0.0
C1512 C 0.21516 0.77945 0.90106 0.0
H1513 H 0.22968 0.78174 0.73028 0.0
H1514 H 0.22094 0.76782 0.77359 0.0
C1515 C 0.20737 0.77264 0.92579 0.0
C1516 C 0.19885 0.78948 0.85912 0.0
H1517 H 0.16756 0.76003 0.80166 0.0
C1518 C 0.23148 0.82197 0.85308 0.0
C1519 C 0.17605 0.76637 0.84029 0.0
C1520 C 0.14202 0.72978 0.84537 0.0
C1521 C 0.24164 0.83227 0.8288 0.0
C1522 C 0.21793 0.81007 0.81 0.0
C1523 C 0.1856 0.77729 0.81604 0.0
C1524 C 0.22603 0.82001 0.78391 0.0
C1525 C 0.27805 0.86643 0.82364 0.0
C1526 C 0.23214 0.85415 0.7752 0.0
C1527 C 0.2378 0.86247 0.75043 0.0
C1528 C 0.23658 0.83644 0.73378 0.0
C1529 C 0.23071 0.8024 0.74258 0.0
C1530 C 0.22563 0.79435 0.76736 0.0
H1531 H 0.29752 0.8731 0.83898 0.0
H1532 H 0.29088 0.86317 0.80694 0.0
H1533 H 0.27371 0.89021 0.82113 0.0
H1534 H 0.2316 0.87404 0.78746 0.0
H1535 H 0.24187 0.88878 0.74426 0.0
H1536 H 0.45642 0.21297 0.26715 0.0
H1537 H 0.45973 0.22762 0.22403 0.0
H1538 H 0.35592 0.12827 0.21217 0.0
H1539 H 0.35299 0.11269 0.25519 0.0
H1540 H 0.40229 0.13942 0.17597 0.0
H1541 H 0.40171 0.26916 0.19353 0.0
H1542 H 0.43938 0.26836 0.20807 0.0
H1543 H 0.39302 0.23585 0.21706 0.0
C1544 C 0.43442 0.19402 0.25534 0.0
C1545 C 0.40423 0.16182 0.26469 0.0
C1546 C 0.43621 0.20263 0.23071 0.0
C1547 C 0.40754 0.17965 0.21499 0.0
C1548 C 0.3782 0.14662 0.22401 0.0
H1549 H 0.36511 0.24595 0.07479 0.0
H1550 H 0.36538 0.23058 0.11753 0.0
C1551 C 0.3766 0.13771 0.24862 0.0
C1552 C 0.40788 0.19029 0.18923 0.0
H1553 H 0.41433 0.25941 0.15297 0.0
C1554 C 0.40481 0.16561 0.17094 0.0
C1555 C 0.4104 0.22416 0.18265 0.0
C1556 C 0.41091 0.25072 0.20136 0.0
C1557 C 0.40478 0.17406 0.14628 0.0
C1558 C 0.40911 0.2087 0.1397 0.0
C1559 C 0.41158 0.23312 0.158 0.0
C1560 C 0.4103 0.21976 0.11394 0.0
C1561 C 0.39914 0.14534 0.1276 0.0
C1562 C 0.43619 0.21996 0.09783 0.0
C1563 C 0.43583 0.2283 0.07332 0.0
C1564 C 0.41 0.23737 0.06449 0.0
C1565 C 0.38532 0.23902 0.08092 0.0
C1566 C 0.3854 0.23018 0.10539 0.0
H1567 H 0.38532 0.11718 0.13555 0.0
H1568 H 0.38244 0.1456 0.11209 0.0
H1569 H 0.42623 0.15118 0.12058 0.0
H1570 H 0.45647 0.21323 0.10414 0.0
H1571 H 0.45555 0.22721 0.06124 0.0
loop_
_geom_bond_atom_site_label_1
_geom_bond_atom_site_label_2
_geom_bond_distance
_geom_bond_site_symmetry_2
_ccdc_geom_bond_type
Co0 O2 2.143 . S
Co0 O8 2.074 . S
Co0 O11 2.093 . S
Co0 O24 2.097 . S
Co0 N41 2.151 . S
Co0 N49 2.214 . S
Co1 O2 2.160 . S
Co1 O7 2.058 . S
Co1 O17 2.057 . S
Co1 O32 2.037 . S
Co1 N36 2.145 . S
Co1 N57 2.257 . S
O2 Co0 2.143 . S
O2 Co1 2.160 . S
C3 O4 1.278 . S
C3 O11 1.224 . S
O4 C3 1.278 . S
C5 O6 1.245 . S
C5 O17 1.232 . S
O6 C5 1.245 . S
O7 Co1 2.058 . S
O7 C33 1.269 . S
O8 Co0 2.074 . S
O8 C33 1.257 . S
H9 C34 0.930 . S
H10 C40 0.930 . S
O11 Co0 2.093 . S
O11 C3 1.224 . S
H12 C44 0.929 . S
H13 C46 0.930 . S
H14 C47 0.930 . S
H15 C45 0.929 . S
H16 C48 0.928 . S
O17 Co1 2.057 . S
O17 C5 1.232 . S
H18 C37 0.929 . S
H19 C38 0.929 . S
H20 C50 0.931 . S
H21 C42 0.929 . S
H22 C51 0.930 . S
H23 C43 0.931 . S
O24 Co0 2.097 . S
O24 C52 1.214 . S
H25 C53 0.929 . S
H26 C54 0.929 . S
H27 C55 0.930 . S
H28 C56 0.929 . S
H29 C58 0.930 . S
H30 C35 0.930 . S
H31 C39 0.930 . S
O32 Co1 2.037 . S
O32 C52 1.234 . S
C33 O7 1.269 . S
C33 O8 1.257 . S
C34 H9 0.930 . S
C34 C37 1.388 1_655 S
C34 C39 1.418 . S
C35 H30 0.930 . S
C35 C38 1.404 . S
C35 C39 1.353 . S
N36 Co1 2.145 . S
N36 C37 1.397 . S
N36 C38 1.334 1_455 S
C37 H18 0.929 . S
C37 C34 1.388 1_455 S
C37 N36 1.397 . S
C38 H19 0.929 . S
C38 C35 1.404 . S
C38 N36 1.334 1_655 S
C39 H31 0.930 . S
C39 C34 1.418 . S
C39 C35 1.353 . S
C40 H10 0.930 . S
C40 N41 1.330 . S
C40 C42 1.446 . S
N41 Co0 2.151 . S
N41 C40 1.330 . S
N41 C45 1.418 . S
C42 H21 0.929 . S
C42 C40 1.446 . S
C42 C43 1.332 . S
C43 H23 0.931 . S
C43 C42 1.332 . S
C43 C44 1.267 . S
C44 H12 0.929 . S
C44 C43 1.267 . S
C44 C45 1.251 . S
C45 H15 0.929 . S
C45 N41 1.418 . S
C45 C44 1.251 . S
C46 H13 0.930 . S
C46 C48 1.406 . S
C46 C51 1.261 . S
C47 H14 0.930 . S
C47 N49 1.325 . S
C47 C50 1.357 . S
C48 H16 0.928 . S
C48 C46 1.406 . S
C48 N49 1.261 . S
N49 Co0 2.214 . S
N49 C47 1.325 . S
N49 C48 1.261 . S
C50 H20 0.931 . S
C50 C47 1.357 . S
C50 C51 1.312 . S
C51 H22 0.930 . S
C51 C46 1.261 . S
C51 C50 1.312 . S
C52 O24 1.214 . S
C52 O32 1.234 . S
C53 H25 0.929 . S
C53 C56 1.391 . S
C53 C58 1.391 . S
C54 H26 0.929 . S
C54 C55 1.390 . S
C54 N57 1.391 . S
C55 H27 0.930 . S
C55 C54 1.390 . S
C55 C56 1.392 . S
C56 H28 0.929 . S
C56 C53 1.391 . S
C56 C55 1.392 . S
N57 Co1 2.257 . S
N57 C54 1.391 . S
N57 C58 1.388 . S
C58 H29 0.930 . S
C58 C53 1.391 . S
C58 N57 1.388 . S
Co59 O61 2.143 . S
Co59 O67 2.074 . S
Co59 O70 2.093 . S
Co59 O83 2.097 . S
Co59 N100 2.151 . S
Co59 N108 2.214 . S
Co60 O61 2.160 . S
Co60 O66 2.058 . S
Co60 O76 2.057 . S
Co60 O91 2.037 . S
Co60 N95 2.145 . S
Co60 N116 2.257 . S
O61 Co59 2.143 . S
O61 Co60 2.160 . S
C62 O63 1.278 . S
C62 O70 1.224 . S
O63 C62 1.278 . S
C64 O65 1.245 . S
C64 O76 1.232 . S
O65 C64 1.245 . S
O66 Co60 2.058 . S
O66 C92 1.269 . S
O67 Co59 2.074 . S
O67 C92 1.257 . S
H68 C93 0.930 . S
H69 C99 0.930 . S
O70 Co59 2.093 . S
O70 C62 1.224 . S
H71 C103 0.929 . S
H72 C105 0.930 . S
H73 C106 0.930 . S
H74 C104 0.929 . S
H75 C107 0.928 . S
O76 Co60 2.057 . S
O76 C64 1.232 . S
H77 C96 0.929 . S
H78 C97 0.929 . S
H79 C109 0.931 . S
H80 C101 0.929 . S
H81 C110 0.930 . S
H82 C102 0.931 . S
O83 Co59 2.097 . S
O83 C111 1.214 . S
H84 C112 0.929 . S
H85 C113 0.929 . S
H86 C114 0.930 . S
H87 C115 0.929 . S
H88 C117 0.930 . S
H89 C94 0.930 . S
H90 C98 0.930 . S
O91 Co60 2.037 . S
O91 C111 1.234 . S
C92 O66 1.269 . S
C92 O67 1.257 . S
C93 H68 0.930 . S
C93 C96 1.388 1_565 S
C93 C98 1.418 . S
C94 H89 0.930 . S
C94 C97 1.404 . S
C94 C98 1.353 . S
N95 Co60 2.145 . S
N95 C96 1.397 . S
N95 C97 1.334 1_545 S
C96 H77 0.929 . S
C96 C93 1.388 1_545 S
C96 N95 1.397 . S
C97 H78 0.929 . S
C97 C94 1.404 . S
C97 N95 1.334 1_565 S
C98 H90 0.930 . S
C98 C93 1.418 . S
C98 C94 1.353 . S
C99 H69 0.930 . S
C99 N100 1.330 . S
C99 C101 1.446 . S
N100 Co59 2.151 . S
N100 C99 1.330 . S
N100 C104 1.418 . S
C101 H80 0.929 . S
C101 C99 1.446 . S
C101 C102 1.332 . S
C102 H82 0.931 . S
C102 C101 1.332 . S
C102 C103 1.267 . S
C103 H71 0.929 . S
C103 C102 1.267 . S
C103 C104 1.251 . S
C104 H74 0.929 . S
C104 N100 1.418 . S
C104 C103 1.251 . S
C105 H72 0.930 . S
C105 C107 1.406 . S
C105 C110 1.261 . S
C106 H73 0.930 . S
C106 N108 1.325 . S
C106 C109 1.357 . S
C107 H75 0.928 . S
C107 C105 1.406 . S
C107 N108 1.261 . S
N108 Co59 2.214 . S
N108 C106 1.325 . S
N108 C107 1.261 . S
C109 H79 0.931 . S
C109 C106 1.357 . S
C109 C110 1.312 . S
C110 H81 0.930 . S
C110 C105 1.261 . S
C110 C109 1.312 . S
C111 O83 1.214 . S
C111 O91 1.234 . S
C112 H84 0.929 . S
C112 C115 1.391 . S
C112 C117 1.391 . S
C113 H85 0.929 . S
C113 C114 1.390 . S
C113 N116 1.391 . S
C114 H86 0.930 . S
C114 C113 1.390 . S
C114 C115 1.392 . S
C115 H87 0.929 . S
C115 C112 1.391 . S
C115 C114 1.392 . S
N116 Co60 2.257 . S
N116 C113 1.391 . S
N116 C117 1.388 . S
C117 H88 0.930 . S
C117 C112 1.391 . S
C117 N116 1.388 . S
Co118 O120 2.143 1_554 S
Co118 O126 2.074 . S
Co118 O129 2.093 1_554 S
Co118 O142 2.097 1_554 S
Co118 N159 2.151 . S
Co118 N167 2.214 . S
Co119 O120 2.160 1_554 S
Co119 O125 2.058 . S
Co119 O135 2.057 . S
Co119 O150 2.037 . S
Co119 N154 2.145 . S
Co119 N175 2.257 1_554 S
O120 Co118 2.143 1_556 S
O120 Co119 2.160 1_556 S
C121 O122 1.278 . S
C121 O129 1.224 . S
O122 C121 1.278 . S
C123 O124 1.245 . S
C123 O135 1.232 1_556 S
O124 C123 1.245 . S
O125 Co119 2.058 . S
O125 C151 1.269 . S
O126 Co118 2.074 . S
O126 C151 1.257 . S
H127 C152 0.930 . S
H128 C158 0.930 . S
O129 Co118 2.093 1_556 S
O129 C121 1.224 . S
H130 C162 0.929 . S
H131 C164 0.930 . S
H132 C165 0.930 . S
H133 C163 0.929 . S
H134 C166 0.928 1_556 S
O135 Co119 2.057 . S
O135 C123 1.232 1_554 S
H136 C155 0.929 . S
H137 C156 0.929 . S
H138 C168 0.931 . S
H139 C160 0.929 1_556 S
H140 C169 0.930 . S
H141 C161 0.931 . S
O142 Co118 2.097 1_556 S
O142 C170 1.217 . S
H143 C171 0.929 . S
H144 C172 0.929 . S
H145 C173 0.930 . S
H146 C174 0.929 . S
H147 C176 0.930 . S
H148 C153 0.930 . S
H149 C157 0.930 . S
O150 Co119 2.037 . S
O150 C170 1.231 1_554 S
C151 O125 1.269 . S
C151 O126 1.257 . S
C152 H127 0.930 . S
C152 C155 1.388 . S
C152 C157 1.418 . S
C153 H148 0.930 . S
C153 C156 1.404 . S
C153 C157 1.353 . S
N154 Co119 2.145 . S
N154 C155 1.397 . S
N154 C156 1.334 . S
C155 H136 0.929 . S
C155 C152 1.388 . S
C155 N154 1.397 . S
C156 H137 0.929 . S
C156 C153 1.404 . S
C156 N154 1.334 . S
C157 H149 0.930 . S
C157 C152 1.418 . S
C157 C153 1.353 . S
C158 H128 0.930 . S
C158 N159 1.330 1_556 S
C158 C160 1.446 1_556 S
N159 Co118 2.151 . S
N159 C158 1.330 1_554 S
N159 C163 1.418 . S
C160 H139 0.929 1_554 S
C160 C158 1.446 1_554 S
C160 C161 1.332 . S
C161 H141 0.931 . S
C161 C160 1.332 . S
C161 C162 1.267 . S
C162 H130 0.929 . S
C162 C161 1.267 . S
C162 C163 1.251 . S
C163 H133 0.929 . S
C163 N159 1.418 . S
C163 C162 1.251 . S
C164 H131 0.930 . S
C164 C166 1.406 . S
C164 C169 1.261 . S
C165 H132 0.930 . S
C165 N167 1.325 . S
C165 C168 1.357 . S
C166 H134 0.928 1_554 S
C166 C164 1.406 . S
C166 N167 1.261 . S
N167 Co118 2.214 . S
N167 C165 1.325 . S
N167 C166 1.261 . S
C168 H138 0.931 . S
C168 C165 1.357 . S
C168 C169 1.312 . S
C169 H140 0.930 . S
C169 C164 1.261 . S
C169 C168 1.312 . S
C170 O142 1.217 . S
C170 O150 1.231 1_556 S
C171 H143 0.929 . S
C171 C174 1.391 . S
C171 C176 1.391 . S
C172 H144 0.929 . S
C172 C173 1.390 . S
C172 N175 1.391 . S
C173 H145 0.930 . S
C173 C172 1.390 . S
C173 C174 1.392 . S
C174 H146 0.929 . S
C174 C171 1.391 . S
C174 C173 1.392 . S
N175 Co119 2.257 1_556 S
N175 C172 1.391 . S
N175 C176 1.388 . S
C176 H147 0.930 . S
C176 C171 1.391 . S
C176 N175 1.388 . S
Co177 O179 2.143 . S
Co177 O185 2.074 . S
Co177 O188 2.093 . S
Co177 O201 2.097 . S
Co177 N218 2.151 . S
Co177 N226 2.214 . S
Co178 O179 2.160 . S
Co178 O184 2.058 . S
Co178 O194 2.057 . S
Co178 O209 2.037 . S
Co178 N213 2.145 . S
Co178 N234 2.257 . S
O179 Co177 2.143 . S
O179 Co178 2.160 . S
C180 O181 1.278 . S
C180 O188 1.224 . S
O181 C180 1.278 . S
C182 O183 1.245 . S
C182 O194 1.232 . S
O183 C182 1.245 . S
O184 Co178 2.058 . S
O184 C210 1.269 . S
O185 Co177 2.074 . S
O185 C210 1.257 . S
H186 C211 0.930 . S
H187 C217 0.930 . S
O188 Co177 2.093 . S
O188 C180 1.224 . S
H189 C221 0.929 . S
H190 C223 0.930 . S
H191 C224 0.930 . S
H192 C222 0.929 . S
H193 C225 0.928 . S
O194 Co178 2.057 . S
O194 C182 1.232 . S
H195 C214 0.929 . S
H196 C215 0.929 . S
H197 C227 0.931 . S
H198 C219 0.929 . S
H199 C228 0.930 . S
H200 C220 0.931 . S
O201 Co177 2.097 . S
O201 C229 1.214 . S
H202 C230 0.929 . S
H203 C231 0.929 . S
H204 C232 0.930 . S
H205 C233 0.929 . S
H206 C235 0.930 . S
H207 C212 0.930 . S
H208 C216 0.930 . S
O209 Co178 2.037 . S
O209 C229 1.234 . S
C210 O184 1.269 . S
C210 O185 1.257 . S
C211 H186 0.930 . S
C211 C214 1.388 1_455 S
C211 C216 1.418 . S
C212 H207 0.930 . S
C212 C215 1.404 . S
C212 C216 1.353 . S
N213 Co178 2.145 . S
N213 C214 1.397 . S
N213 C215 1.334 1_655 S
C214 H195 0.929 . S
C214 C211 1.388 1_655 S
C214 N213 1.397 . S
C215 H196 0.929 . S
C215 C212 1.404 . S
C215 N213 1.334 1_455 S
C216 H208 0.930 . S
C216 C211 1.418 . S
C216 C212 1.353 . S
C217 H187 0.930 . S
C217 N218 1.330 . S
C217 C219 1.446 . S
N218 Co177 2.151 . S
N218 C217 1.330 . S
N218 C222 1.418 . S
C219 H198 0.929 . S
C219 C217 1.446 . S
C219 C220 1.332 . S
C220 H200 0.931 . S
C220 C219 1.332 . S
C220 C221 1.267 . S
C221 H189 0.929 . S
C221 C220 1.267 . S
C221 C222 1.251 . S
C222 H192 0.929 . S
C222 N218 1.418 . S
C222 C221 1.251 . S
C223 H190 0.930 . S
C223 C225 1.406 . S
C223 C228 1.261 . S
C224 H191 0.930 . S
C224 N226 1.325 . S
C224 C227 1.357 . S
C225 H193 0.928 . S
C225 C223 1.406 . S
C225 N226 1.261 . S
N226 Co177 2.214 . S
N226 C224 1.325 . S
N226 C225 1.261 . S
C227 H197 0.931 . S
C227 C224 1.357 . S
C227 C228 1.312 . S
C228 H199 0.930 . S
C228 C223 1.261 . S
C228 C227 1.312 . S
C229 O201 1.214 . S
C229 O209 1.234 . S
C230 H202 0.929 . S
C230 C233 1.391 . S
C230 C235 1.391 . S
C231 H203 0.929 . S
C231 C232 1.390 . S
C231 N234 1.391 . S
C232 H204 0.930 . S
C232 C231 1.390 . S
C232 C233 1.392 . S
C233 H205 0.929 . S
C233 C230 1.391 . S
C233 C232 1.392 . S
N234 Co178 2.257 . S
N234 C231 1.391 . S
N234 C235 1.388 . S
C235 H206 0.930 . S
C235 C230 1.391 . S
C235 N234 1.388 . S
Co236 O238 2.143 . S
Co236 O244 2.074 . S
Co236 O247 2.093 . S
Co236 O260 2.097 . S
Co236 N277 2.151 . S
Co236 N285 2.214 . S
Co237 O238 2.160 . S
Co237 O243 2.058 . S
Co237 O253 2.057 . S
Co237 O268 2.037 . S
Co237 N272 2.145 . S
Co237 N293 2.257 . S
O238 Co236 2.143 . S
O238 Co237 2.160 . S
C239 O240 1.278 . S
C239 O247 1.224 . S
O240 C239 1.278 . S
C241 O242 1.245 . S
C241 O253 1.232 . S
O242 C241 1.245 . S
O243 Co237 2.058 . S
O243 C269 1.269 . S
O244 Co236 2.074 . S
O244 C269 1.257 . S
H245 C270 0.930 . S
H246 C276 0.930 . S
O247 Co236 2.093 . S
O247 C239 1.224 . S
H248 C280 0.929 . S
H249 C282 0.930 . S
H250 C283 0.930 . S
H251 C281 0.929 . S
H252 C284 0.928 . S
O253 Co237 2.057 . S
O253 C241 1.232 . S
H254 C273 0.929 . S
H255 C274 0.929 . S
H256 C286 0.931 . S
H257 C278 0.929 . S
H258 C287 0.930 . S
H259 C279 0.931 . S
O260 Co236 2.097 . S
O260 C288 1.214 . S
H261 C289 0.929 . S
H262 C290 0.929 . S
H263 C291 0.930 . S
H264 C292 0.929 . S
H265 C294 0.930 . S
H266 C271 0.930 . S
H267 C275 0.930 . S
O268 Co237 2.037 . S
O268 C288 1.234 . S
C269 O243 1.269 . S
C269 O244 1.257 . S
C270 H245 0.930 . S
C270 C273 1.388 1_545 S
C270 C275 1.418 . S
C271 H266 0.930 . S
C271 C274 1.404 . S
C271 C275 1.353 . S
N272 Co237 2.145 . S
N272 C273 1.397 . S
N272 C274 1.334 1_565 S
C273 H254 0.929 . S
C273 C270 1.388 1_565 S
C273 N272 1.397 . S
C274 H255 0.929 . S
C274 C271 1.404 . S
C274 N272 1.334 1_545 S
C275 H267 0.930 . S
C275 C270 1.418 . S
C275 C271 1.353 . S
C276 H246 0.930 . S
C276 N277 1.330 . S
C276 C278 1.446 . S
N277 Co236 2.151 . S
N277 C276 1.330 . S
N277 C281 1.418 . S
C278 H257 0.929 . S
C278 C276 1.446 . S
C278 C279 1.332 . S
C279 H259 0.931 . S
C279 C278 1.332 . S
C279 C280 1.267 . S
C280 H248 0.929 . S
C280 C279 1.267 . S
C280 C281 1.251 . S
C281 H251 0.929 . S
C281 N277 1.418 . S
C281 C280 1.251 . S
C282 H249 0.930 . S
C282 C284 1.406 . S
C282 C287 1.261 . S
C283 H250 0.930 . S
C283 N285 1.325 . S
C283 C286 1.357 . S
C284 H252 0.928 . S
C284 C282 1.406 . S
C284 N285 1.261 . S
N285 Co236 2.214 . S
N285 C283 1.325 . S
N285 C284 1.261 . S
C286 H256 0.931 . S
C286 C283 1.357 . S
C286 C287 1.312 . S
C287 H258 0.930 . S
C287 C282 1.261 . S
C287 C286 1.312 . S
C288 O260 1.214 . S
C288 O268 1.234 . S
C289 H261 0.929 . S
C289 C292 1.391 . S
C289 C294 1.391 . S
C290 H262 0.929 . S
C290 C291 1.390 . S
C290 N293 1.391 . S
C291 H263 0.930 . S
C291 C290 1.390 . S
C291 C292 1.392 . S
C292 H264 0.929 . S
C292 C289 1.391 . S
C292 C291 1.392 . S
N293 Co237 2.257 . S
N293 C290 1.391 . S
N293 C294 1.388 . S
C294 H265 0.930 . S
C294 C289 1.391 . S
C294 N293 1.388 . S
Co295 O297 2.143 1_554 S
Co295 O303 2.074 . S
Co295 O306 2.093 1_554 S
Co295 O319 2.097 1_554 S
Co295 N336 2.151 . S
Co295 N344 2.214 . S
Co296 O297 2.160 1_554 S
Co296 O302 2.058 . S
Co296 O312 2.057 . S
Co296 O327 2.037 . S
Co296 N331 2.145 . S
Co296 N352 2.257 1_554 S
O297 Co295 2.143 1_556 S
O297 Co296 2.160 1_556 S
C298 O299 1.278 . S
C298 O306 1.224 . S
O299 C298 1.278 . S
C300 O301 1.245 . S
C300 O312 1.232 1_556 S
O301 C300 1.245 . S
O302 Co296 2.058 . S
O302 C328 1.269 . S
O303 Co295 2.074 . S
O303 C328 1.257 . S
H304 C329 0.930 . S
H305 C335 0.930 . S
O306 Co295 2.093 1_556 S
O306 C298 1.224 . S
H307 C339 0.929 . S
H308 C341 0.930 . S
H309 C342 0.930 . S
H310 C340 0.929 . S
H311 C343 0.928 1_556 S
O312 Co296 2.057 . S
O312 C300 1.232 1_554 S
H313 C332 0.929 . S
H314 C333 0.929 . S
H315 C345 0.931 . S
H316 C337 0.929 1_556 S
H317 C346 0.930 . S
H318 C338 0.931 . S
O319 Co295 2.097 1_556 S
O319 C347 1.217 . S
H320 C348 0.929 . S
H321 C349 0.929 . S
H322 C350 0.930 . S
H323 C351 0.929 . S
H324 C353 0.930 . S
H325 C330 0.930 . S
H326 C334 0.930 . S
O327 Co296 2.037 . S
O327 C347 1.231 1_554 S
C328 O302 1.269 . S
C328 O303 1.257 . S
C329 H304 0.930 . S
C329 C332 1.388 . S
C329 C334 1.418 . S
C330 H325 0.930 . S
C330 C333 1.404 . S
C330 C334 1.353 . S
N331 Co296 2.145 . S
N331 C332 1.397 . S
N331 C333 1.334 . S
C332 H313 0.929 . S
C332 C329 1.388 . S
C332 N331 1.397 . S
C333 H314 0.929 . S
C333 C330 1.404 . S
C333 N331 1.334 . S
C334 H326 0.930 . S
C334 C329 1.418 . S
C334 C330 1.353 . S
C335 H305 0.930 . S
C335 N336 1.330 1_556 S
C335 C337 1.446 1_556 S
N336 Co295 2.151 . S
N336 C335 1.330 1_554 S
N336 C340 1.418 . S
C337 H316 0.929 1_554 S
C337 C335 1.446 1_554 S
C337 C338 1.332 . S
C338 H318 0.931 . S
C338 C337 1.332 . S
C338 C339 1.267 . S
C339 H307 0.929 . S
C339 C338 1.267 . S
C339 C340 1.251 . S
C340 H310 0.929 . S
C340 N336 1.418 . S
C340 C339 1.251 . S
C341 H308 0.930 . S
C341 C343 1.406 . S
C341 C346 1.261 . S
C342 H309 0.930 . S
C342 N344 1.325 . S
C342 C345 1.357 . S
C343 H311 0.928 1_554 S
C343 C341 1.406 . S
C343 N344 1.261 . S
N344 Co295 2.214 . S
N344 C342 1.325 . S
N344 C343 1.261 . S
C345 H315 0.931 . S
C345 C342 1.357 . S
C345 C346 1.312 . S
C346 H317 0.930 . S
C346 C341 1.261 . S
C346 C345 1.312 . S
C347 O319 1.217 . S
C347 O327 1.231 1_556 S
C348 H320 0.929 . S
C348 C351 1.391 . S
C348 C353 1.391 . S
C349 H321 0.929 . S
C349 C350 1.390 . S
C349 N352 1.391 . S
C350 H322 0.930 . S
C350 C349 1.390 . S
C350 C351 1.392 . S
C351 H323 0.929 . S
C351 C348 1.391 . S
C351 C350 1.392 . S
N352 Co296 2.257 1_556 S
N352 C349 1.391 . S
N352 C353 1.388 . S
C353 H324 0.930 . S
C353 C348 1.391 . S
C353 N352 1.388 . S
Co354 O356 2.143 . S
Co354 O362 2.074 . S
Co354 O365 2.093 . S
Co354 O378 2.097 . S
Co354 N395 2.151 . S
Co354 N403 2.214 . S
Co355 O356 2.160 . S
Co355 O361 2.058 . S
Co355 O371 2.057 . S
Co355 O386 2.037 . S
Co355 N390 2.145 . S
Co355 N411 2.257 . S
O356 Co354 2.143 . S
O356 Co355 2.160 . S
C357 O358 1.278 . S
C357 O365 1.224 . S
O358 C357 1.278 . S
C359 O360 1.245 . S
C359 O371 1.232 . S
O360 C359 1.245 . S
O361 Co355 2.058 . S
O361 C387 1.269 . S
O362 Co354 2.074 . S
O362 C387 1.257 . S
H363 C388 0.930 . S
H364 C394 0.930 . S
O365 Co354 2.093 . S
O365 C357 1.224 . S
H366 C398 0.929 . S
H367 C400 0.930 . S
H368 C401 0.930 . S
H369 C399 0.929 . S
H370 C402 0.928 . S
O371 Co355 2.057 . S
O371 C359 1.232 . S
H372 C391 0.929 . S
H373 C392 0.929 . S
H374 C404 0.931 . S
H375 C396 0.929 . S
H376 C405 0.930 . S
H377 C397 0.931 . S
O378 Co354 2.097 . S
O378 C406 1.214 . S
H379 C407 0.929 . S
H380 C408 0.929 . S
H381 C409 0.930 . S
H382 C410 0.929 . S
H383 C412 0.930 . S
H384 C389 0.930 . S
H385 C393 0.930 . S
O386 Co355 2.037 . S
O386 C406 1.234 . S
C387 O361 1.269 . S
C387 O362 1.257 . S
C388 H363 0.930 . S
C388 C391 1.388 1_545 S
C388 C393 1.418 . S
C389 H384 0.930 . S
C389 C392 1.404 . S
C389 C393 1.353 . S
N390 Co355 2.145 . S
N390 C391 1.397 . S
N390 C392 1.334 1_565 S
C391 H372 0.929 . S
C391 C388 1.388 1_565 S
C391 N390 1.397 . S
C392 H373 0.929 . S
C392 C389 1.404 . S
C392 N390 1.334 1_545 S
C393 H385 0.930 . S
C393 C388 1.418 . S
C393 C389 1.353 . S
C394 H364 0.930 . S
C394 N395 1.330 . S
C394 C396 1.446 . S
N395 Co354 2.151 . S
N395 C394 1.330 . S
N395 C399 1.418 . S
C396 H375 0.929 . S
C396 C394 1.446 . S
C396 C397 1.332 . S
C397 H377 0.931 . S
C397 C396 1.332 . S
C397 C398 1.267 . S
C398 H366 0.929 . S
C398 C397 1.267 . S
C398 C399 1.251 . S
C399 H369 0.929 . S
C399 N395 1.418 . S
C399 C398 1.251 . S
C400 H367 0.930 . S
C400 C402 1.406 . S
C400 C405 1.261 . S
C401 H368 0.930 . S
C401 N403 1.325 . S
C401 C404 1.357 . S
C402 H370 0.928 . S
C402 C400 1.406 . S
C402 N403 1.261 . S
N403 Co354 2.214 . S
N403 C401 1.325 . S
N403 C402 1.261 . S
C404 H374 0.931 . S
C404 C401 1.357 . S
C404 C405 1.312 . S
C405 H376 0.930 . S
C405 C400 1.261 . S
C405 C404 1.312 . S
C406 O378 1.214 . S
C406 O386 1.234 . S
C407 H379 0.929 . S
C407 C410 1.391 . S
C407 C412 1.391 . S
C408 H380 0.929 . S
C408 C409 1.390 . S
C408 N411 1.391 . S
C409 H381 0.930 . S
C409 C408 1.390 . S
C409 C410 1.392 . S
C410 H382 0.929 . S
C410 C407 1.391 . S
C410 C409 1.392 . S
N411 Co355 2.257 . S
N411 C408 1.391 . S
N411 C412 1.388 . S
C412 H383 0.930 . S
C412 C407 1.391 . S
C412 N411 1.388 . S
Co413 O415 2.143 . S
Co413 O421 2.074 . S
Co413 O424 2.093 . S
Co413 O437 2.097 . S
Co413 N454 2.151 . S
Co413 N462 2.214 . S
Co414 O415 2.160 . S
Co414 O420 2.058 . S
Co414 O430 2.057 . S
Co414 O445 2.037 . S
Co414 N449 2.145 . S
Co414 N470 2.257 . S
O415 Co413 2.143 . S
O415 Co414 2.160 . S
C416 O417 1.278 . S
C416 O424 1.224 . S
O417 C416 1.278 . S
C418 O419 1.245 . S
C418 O430 1.232 . S
O419 C418 1.245 . S
O420 Co414 2.058 . S
O420 C446 1.269 . S
O421 Co413 2.074 . S
O421 C446 1.257 . S
H422 C447 0.930 . S
H423 C453 0.930 . S
O424 Co413 2.093 . S
O424 C416 1.224 . S
H425 C457 0.929 . S
H426 C459 0.930 . S
H427 C460 0.930 . S
H428 C458 0.929 . S
H429 C461 0.928 . S
O430 Co414 2.057 . S
O430 C418 1.232 . S
H431 C450 0.929 . S
H432 C451 0.929 . S
H433 C463 0.931 . S
H434 C455 0.929 . S
H435 C464 0.930 . S
H436 C456 0.931 . S
O437 Co413 2.097 . S
O437 C465 1.214 . S
H438 C466 0.929 . S
H439 C467 0.929 . S
H440 C468 0.930 . S
H441 C469 0.929 . S
H442 C471 0.930 . S
H443 C448 0.930 . S
H444 C452 0.930 . S
O445 Co414 2.037 . S
O445 C465 1.234 . S
C446 O420 1.269 . S
C446 O421 1.257 . S
C447 H422 0.930 . S
C447 C450 1.388 . S
C447 C452 1.418 . S
C448 H443 0.930 . S
C448 C451 1.404 . S
C448 C452 1.353 . S
N449 Co414 2.145 . S
N449 C450 1.397 . S
N449 C451 1.334 . S
C450 H431 0.929 . S
C450 C447 1.388 . S
C450 N449 1.397 . S
C451 H432 0.929 . S
C451 C448 1.404 . S
C451 N449 1.334 . S
C452 H444 0.930 . S
C452 C447 1.418 . S
C452 C448 1.353 . S
C453 H423 0.930 . S
C453 N454 1.330 . S
C453 C455 1.446 . S
N454 Co413 2.151 . S
N454 C453 1.330 . S
N454 C458 1.418 . S
C455 H434 0.929 . S
C455 C453 1.446 . S
C455 C456 1.332 . S
C456 H436 0.931 . S
C456 C455 1.332 . S
C456 C457 1.267 . S
C457 H425 0.929 . S
C457 C456 1.267 . S
C457 C458 1.251 . S
C458 H428 0.929 . S
C458 N454 1.418 . S
C458 C457 1.251 . S
C459 H426 0.930 . S
C459 C461 1.406 . S
C459 C464 1.261 . S
C460 H427 0.930 . S
C460 N462 1.325 . S
C460 C463 1.357 . S
C461 H429 0.928 . S
C461 C459 1.406 . S
C461 N462 1.261 . S
N462 Co413 2.214 . S
N462 C460 1.325 . S
N462 C461 1.261 . S
C463 H433 0.931 . S
C463 C460 1.357 . S
C463 C464 1.312 . S
C464 H435 0.930 . S
C464 C459 1.261 . S
C464 C463 1.312 . S
C465 O437 1.214 . S
C465 O445 1.234 . S
C466 H438 0.929 . S
C466 C469 1.391 . S
C466 C471 1.391 . S
C467 H439 0.929 . S
C467 C468 1.390 . S
C467 N470 1.391 . S
C468 H440 0.930 . S
C468 C467 1.390 . S
C468 C469 1.392 . S
C469 H441 0.929 . S
C469 C466 1.391 . S
C469 C468 1.392 . S
N470 Co414 2.257 . S
N470 C467 1.391 . S
N470 C471 1.388 . S
C471 H442 0.930 . S
C471 C466 1.391 . S
C471 N470 1.388 . S
Co472 O474 2.143 1_556 S
Co472 O480 2.074 . S
Co472 O483 2.093 1_556 S
Co472 O496 2.097 1_556 S
Co472 N513 2.151 . S
Co472 N521 2.214 . S
Co473 O474 2.160 1_556 S
Co473 O479 2.058 . S
Co473 O489 2.057 . S
Co473 O504 2.037 . S
Co473 N508 2.145 . S
Co473 N529 2.257 1_556 S
O474 Co472 2.143 1_554 S
O474 Co473 2.160 1_554 S
C475 O476 1.278 . S
C475 O483 1.224 . S
O476 C475 1.278 . S
C477 O478 1.245 . S
C477 O489 1.232 1_554 S
O478 C477 1.245 . S
O479 Co473 2.058 . S
O479 C505 1.269 . S
O480 Co472 2.074 . S
O480 C505 1.257 . S
H481 C506 0.930 . S
H482 C512 0.930 . S
O483 Co472 2.093 1_554 S
O483 C475 1.224 . S
H484 C516 0.935 . S
H485 C518 0.930 . S
H486 C519 0.930 . S
H487 C517 0.929 . S
H488 C520 0.928 1_554 S
O489 Co473 2.057 . S
O489 C477 1.232 1_556 S
H490 C509 0.929 . S
H491 C510 0.929 . S
H492 C522 0.931 . S
H493 C514 0.929 1_554 S
H494 C523 0.930 . S
H495 C515 0.931 . S
O496 Co472 2.097 1_554 S
O496 C524 1.217 . S
H497 C525 0.929 . S
H498 C526 0.929 . S
H499 C527 0.930 . S
H500 C528 0.929 . S
H501 C530 0.930 . S
H502 C507 0.930 . S
H503 C511 0.930 . S
O504 Co473 2.037 . S
O504 C524 1.231 1_556 S
C505 O479 1.269 . S
C505 O480 1.257 . S
C506 H481 0.930 . S
C506 C509 1.388 . S
C506 C511 1.418 . S
C507 H502 0.930 . S
C507 C510 1.404 . S
C507 C511 1.353 . S
N508 Co473 2.145 . S
N508 C509 1.397 . S
N508 C510 1.334 . S
C509 H490 0.929 . S
C509 C506 1.388 . S
C509 N508 1.397 . S
C510 H491 0.929 . S
C510 C507 1.404 . S
C510 N508 1.334 . S
C511 H503 0.930 . S
C511 C506 1.418 . S
C511 C507 1.353 . S
C512 H482 0.930 . S
C512 N513 1.330 1_554 S
C512 C514 1.446 1_554 S
N513 Co472 2.151 . S
N513 C512 1.330 1_556 S
N513 C517 1.418 . S
C514 H493 0.929 1_556 S
C514 C512 1.446 1_556 S
C514 C515 1.332 1_455 S
C515 H495 0.931 . S
C515 C514 1.332 1_655 S
C515 C516 1.263 . S
C516 H484 0.935 . S
C516 C515 1.263 . S
C516 C517 1.249 1_655 S
C517 H487 0.929 . S
C517 N513 1.418 . S
C517 C516 1.249 1_455 S
C518 H485 0.930 . S
C518 C520 1.406 . S
C518 C523 1.261 . S
C519 H486 0.930 . S
C519 N521 1.325 . S
C519 C522 1.357 . S
C520 H488 0.928 1_556 S
C520 C518 1.406 . S
C520 N521 1.261 1_655 S
N521 Co472 2.214 . S
N521 C519 1.325 . S
N521 C520 1.261 1_455 S
C522 H492 0.931 . S
C522 C519 1.357 . S
C522 C523 1.312 1_455 S
C523 H494 0.930 . S
C523 C518 1.261 . S
C523 C522 1.312 1_655 S
C524 O496 1.217 . S
C524 O504 1.231 1_554 S
C525 H497 0.929 . S
C525 C528 1.391 . S
C525 C530 1.391 . S
C526 H498 0.929 . S
C526 C527 1.390 . S
C526 N529 1.391 . S
C527 H499 0.930 . S
C527 C526 1.390 . S
C527 C528 1.392 . S
C528 H500 0.929 . S
C528 C525 1.391 . S
C528 C527 1.392 . S
N529 Co473 2.257 1_554 S
N529 C526 1.391 . S
N529 C530 1.388 . S
C530 H501 0.930 . S
C530 C525 1.391 . S
C530 N529 1.388 . S
Co531 O533 2.143 . S
Co531 O539 2.074 . S
Co531 O542 2.093 . S
Co531 O555 2.097 . S
Co531 N572 2.151 . S
Co531 N580 2.214 . S
Co532 O533 2.160 . S
Co532 O538 2.058 . S
Co532 O548 2.057 . S
Co532 O563 2.037 . S
Co532 N567 2.145 . S
Co532 N588 2.257 . S
O533 Co531 2.143 . S
O533 Co532 2.160 . S
C534 O535 1.278 . S
C534 O542 1.224 . S
O535 C534 1.278 . S
C536 O537 1.245 . S
C536 O548 1.232 . S
O537 C536 1.245 . S
O538 Co532 2.058 . S
O538 C564 1.269 . S
O539 Co531 2.074 . S
O539 C564 1.257 . S
H540 C565 0.930 . S
H541 C571 0.930 . S
O542 Co531 2.093 . S
O542 C534 1.224 . S
H543 C575 0.929 . S
H544 C577 0.930 . S
H545 C578 0.930 . S
H546 C576 0.929 . S
H547 C579 0.928 . S
O548 Co532 2.057 . S
O548 C536 1.232 . S
H549 C568 0.929 . S
H550 C569 0.929 . S
H551 C581 0.931 . S
H552 C573 0.929 . S
H553 C582 0.930 . S
H554 C574 0.931 . S
O555 Co531 2.097 . S
O555 C583 1.214 . S
H556 C584 0.929 . S
H557 C585 0.929 . S
H558 C586 0.930 . S
H559 C587 0.929 . S
H560 C589 0.930 . S
H561 C566 0.930 . S
H562 C570 0.930 . S
O563 Co532 2.037 . S
O563 C583 1.234 . S
C564 O538 1.269 . S
C564 O539 1.257 . S
C565 H540 0.930 . S
C565 C568 1.388 1_565 S
C565 C570 1.418 . S
C566 H561 0.930 . S
C566 C569 1.404 . S
C566 C570 1.353 . S
N567 Co532 2.145 . S
N567 C568 1.397 . S
N567 C569 1.334 1_545 S
C568 H549 0.929 . S
C568 C565 1.388 1_545 S
C568 N567 1.397 . S
C569 H550 0.929 . S
C569 C566 1.404 . S
C569 N567 1.334 1_565 S
C570 H562 0.930 . S
C570 C565 1.418 . S
C570 C566 1.353 . S
C571 H541 0.930 . S
C571 N572 1.330 . S
C571 C573 1.446 . S
N572 Co531 2.151 . S
N572 C571 1.330 . S
N572 C576 1.418 . S
C573 H552 0.929 . S
C573 C571 1.446 . S
C573 C574 1.332 . S
C574 H554 0.931 . S
C574 C573 1.332 . S
C574 C575 1.267 . S
C575 H543 0.929 . S
C575 C574 1.267 . S
C575 C576 1.251 . S
C576 H546 0.929 . S
C576 N572 1.418 . S
C576 C575 1.251 . S
C577 H544 0.930 . S
C577 C579 1.406 . S
C577 C582 1.261 . S
C578 H545 0.930 . S
C578 N580 1.325 . S
C578 C581 1.357 . S
C579 H547 0.928 . S
C579 C577 1.406 . S
C579 N580 1.261 . S
N580 Co531 2.214 . S
N580 C578 1.325 . S
N580 C579 1.261 . S
C581 H551 0.931 . S
C581 C578 1.357 . S
C581 C582 1.312 . S
C582 H553 0.930 . S
C582 C577 1.261 . S
C582 C581 1.312 . S
C583 O555 1.214 . S
C583 O563 1.234 . S
C584 H556 0.929 . S
C584 C587 1.391 . S
C584 C589 1.391 . S
C585 H557 0.929 . S
C585 C586 1.390 . S
C585 N588 1.391 . S
C586 H558 0.930 . S
C586 C585 1.390 . S
C586 C587 1.392 . S
C587 H559 0.929 . S
C587 C584 1.391 . S
C587 C586 1.392 . S
N588 Co532 2.257 . S
N588 C585 1.391 . S
N588 C589 1.388 . S
C589 H560 0.930 . S
C589 C584 1.391 . S
C589 N588 1.388 . S
Co590 O592 2.143 . S
Co590 O598 2.074 . S
Co590 O601 2.093 . S
Co590 O614 2.097 . S
Co590 N631 2.151 . S
Co590 N639 2.214 . S
Co591 O592 2.160 . S
Co591 O597 2.058 . S
Co591 O607 2.057 . S
Co591 O622 2.037 . S
Co591 N626 2.145 . S
Co591 N647 2.257 . S
O592 Co590 2.143 . S
O592 Co591 2.160 . S
C593 O594 1.278 . S
C593 O601 1.224 . S
O594 C593 1.278 . S
C595 O596 1.245 . S
C595 O607 1.232 . S
O596 C595 1.245 . S
O597 Co591 2.058 . S
O597 C623 1.269 . S
O598 Co590 2.074 . S
O598 C623 1.257 . S
H599 C624 0.930 . S
H600 C630 0.930 . S
O601 Co590 2.093 . S
O601 C593 1.224 . S
H602 C634 0.929 . S
H603 C636 0.930 . S
H604 C637 0.930 . S
H605 C635 0.929 . S
H606 C638 0.928 . S
O607 Co591 2.057 . S
O607 C595 1.232 . S
H608 C627 0.929 . S
H609 C628 0.929 . S
H610 C640 0.931 . S
H611 C632 0.929 . S
H612 C641 0.930 . S
H613 C633 0.931 . S
O614 Co590 2.097 . S
O614 C642 1.214 . S
H615 C643 0.929 . S
H616 C644 0.929 . S
H617 C645 0.930 . S
H618 C646 0.929 . S
H619 C648 0.930 . S
H620 C625 0.930 . S
H621 C629 0.930 . S
O622 Co591 2.037 . S
O622 C642 1.234 . S
C623 O597 1.269 . S
C623 O598 1.257 . S
C624 H599 0.930 . S
C624 C627 1.388 . S
C624 C629 1.418 . S
C625 H620 0.930 . S
C625 C628 1.404 . S
C625 C629 1.353 . S
N626 Co591 2.145 . S
N626 C627 1.397 . S
N626 C628 1.334 . S
C627 H608 0.929 . S
C627 C624 1.388 . S
C627 N626 1.397 . S
C628 H609 0.929 . S
C628 C625 1.404 . S
C628 N626 1.334 . S
C629 H621 0.930 . S
C629 C624 1.418 . S
C629 C625 1.353 . S
C630 H600 0.930 . S
C630 N631 1.330 . S
C630 C632 1.446 . S
N631 Co590 2.151 . S
N631 C630 1.330 . S
N631 C635 1.418 . S
C632 H611 0.929 . S
C632 C630 1.446 . S
C632 C633 1.332 . S
C633 H613 0.931 . S
C633 C632 1.332 . S
C633 C634 1.267 . S
C634 H602 0.929 . S
C634 C633 1.267 . S
C634 C635 1.251 . S
C635 H605 0.929 . S
C635 N631 1.418 . S
C635 C634 1.251 . S
C636 H603 0.930 . S
C636 C638 1.406 . S
C636 C641 1.261 . S
C637 H604 0.930 . S
C637 N639 1.325 . S
C637 C640 1.357 . S
C638 H606 0.928 . S
C638 C636 1.406 . S
C638 N639 1.261 . S
N639 Co590 2.214 . S
N639 C637 1.325 . S
N639 C638 1.261 . S
C640 H610 0.931 . S
C640 C637 1.357 . S
C640 C641 1.312 . S
C641 H612 0.930 . S
C641 C636 1.261 . S
C641 C640 1.312 . S
C642 O614 1.214 . S
C642 O622 1.234 . S
C643 H615 0.929 . S
C643 C646 1.391 . S
C643 C648 1.391 . S
C644 H616 0.929 . S
C644 C645 1.390 . S
C644 N647 1.391 . S
C645 H617 0.930 . S
C645 C644 1.390 . S
C645 C646 1.392 . S
C646 H618 0.929 . S
C646 C643 1.391 . S
C646 C645 1.392 . S
N647 Co591 2.257 . S
N647 C644 1.391 . S
N647 C648 1.388 . S
C648 H619 0.930 . S
C648 C643 1.391 . S
C648 N647 1.388 . S
Co649 O651 2.143 1_556 S
Co649 O657 2.074 . S
Co649 O660 2.093 1_556 S
Co649 O673 2.097 1_556 S
Co649 N690 2.151 . S
Co649 N698 2.214 . S
Co650 O651 2.160 1_556 S
Co650 O656 2.058 . S
Co650 O666 2.057 . S
Co650 O681 2.037 . S
Co650 N685 2.145 . S
Co650 N706 2.257 1_556 S
O651 Co649 2.143 1_554 S
O651 Co650 2.160 1_554 S
C652 O653 1.278 . S
C652 O660 1.224 . S
O653 C652 1.278 . S
C654 O655 1.245 . S
C654 O666 1.232 1_554 S
O655 C654 1.245 . S
O656 Co650 2.058 . S
O656 C682 1.269 . S
O657 Co649 2.074 . S
O657 C682 1.257 . S
H658 C683 0.930 . S
H659 C689 0.930 . S
O660 Co649 2.093 1_554 S
O660 C652 1.224 . S
H661 C693 0.935 . S
H662 C695 0.930 . S
H663 C696 0.930 . S
H664 C694 0.929 . S
H665 C697 0.928 1_554 S
O666 Co650 2.057 . S
O666 C654 1.232 1_556 S
H667 C686 0.929 . S
H668 C687 0.929 . S
H669 C699 0.931 . S
H670 C691 0.929 1_554 S
H671 C700 0.930 . S
H672 C692 0.931 . S
O673 Co649 2.097 1_554 S
O673 C701 1.217 . S
H674 C702 0.929 . S
H675 C703 0.929 . S
H676 C704 0.930 . S
H677 C705 0.929 . S
H678 C707 0.930 . S
H679 C684 0.930 . S
H680 C688 0.930 . S
O681 Co650 2.037 . S
O681 C701 1.231 1_556 S
C682 O656 1.269 . S
C682 O657 1.257 . S
C683 H658 0.930 . S
C683 C686 1.388 . S
C683 C688 1.418 . S
C684 H679 0.930 . S
C684 C687 1.404 . S
C684 C688 1.353 . S
N685 Co650 2.145 . S
N685 C686 1.397 . S
N685 C687 1.334 . S
C686 H667 0.929 . S
C686 C683 1.388 . S
C686 N685 1.397 . S
C687 H668 0.929 . S
C687 C684 1.404 . S
C687 N685 1.334 . S
C688 H680 0.930 . S
C688 C683 1.418 . S
C688 C684 1.353 . S
C689 H659 0.930 . S
C689 N690 1.330 1_554 S
C689 C691 1.446 1_554 S
N690 Co649 2.151 . S
N690 C689 1.330 1_556 S
N690 C694 1.418 . S
C691 H670 0.929 1_556 S
C691 C689 1.446 1_556 S
C691 C692 1.332 1_655 S
C692 H672 0.931 . S
C692 C691 1.332 1_455 S
C692 C693 1.263 . S
C693 H661 0.935 . S
C693 C692 1.263 . S
C693 C694 1.249 1_455 S
C694 H664 0.929 . S
C694 N690 1.418 . S
C694 C693 1.249 1_655 S
C695 H662 0.930 . S
C695 C697 1.406 . S
C695 C700 1.261 . S
C696 H663 0.930 . S
C696 N698 1.325 . S
C696 C699 1.357 . S
C697 H665 0.928 1_556 S
C697 C695 1.406 . S
C697 N698 1.261 1_455 S
N698 Co649 2.214 . S
N698 C696 1.325 . S
N698 C697 1.261 1_655 S
C699 H669 0.931 . S
C699 C696 1.357 . S
C699 C700 1.312 1_655 S
C700 H671 0.930 . S
C700 C695 1.261 . S
C700 C699 1.312 1_455 S
C701 O673 1.217 . S
C701 O681 1.231 1_554 S
C702 H674 0.929 . S
C702 C705 1.391 . S
C702 C707 1.391 . S
C703 H675 0.929 . S
C703 C704 1.390 . S
C703 N706 1.391 . S
C704 H676 0.930 . S
C704 C703 1.390 . S
C704 C705 1.392 . S
C705 H677 0.929 . S
C705 C702 1.391 . S
C705 C704 1.392 . S
N706 Co650 2.257 1_554 S
N706 C703 1.391 . S
N706 C707 1.388 . S
C707 H678 0.930 . S
C707 C702 1.391 . S
C707 N706 1.388 . S
H708 C716 0.929 . S
H709 C718 0.930 . S
H710 C720 0.930 . S
H711 C723 0.929 . S
H712 C726 0.930 . S
H713 C728 0.960 . S
H714 C728 0.960 . S
H715 C728 0.960 . S
C716 H708 0.929 . S
C716 C717 1.377 . S
C716 C718 1.384 . S
C717 C716 1.377 . S
C717 C723 1.390 . S
C718 H709 0.930 . S
C718 C716 1.384 . S
C718 C719 1.372 . S
C719 C718 1.372 . S
C719 C720 1.400 . S
C719 C724 1.490 . S
C720 H710 0.930 . S
C720 C719 1.400 . S
C720 C723 1.386 . S
H721 C737 0.930 . S
H722 C738 0.931 . S
C723 H711 0.929 . S
C723 C717 1.390 . S
C723 C720 1.386 . S
C724 C719 1.490 . S
C724 C726 1.395 . S
C724 C727 1.403 . S
H725 C731 0.930 . S
C726 H712 0.930 . S
C726 C724 1.395 . S
C726 C729 1.403 . S
C727 C724 1.403 . S
C727 C728 1.524 . S
C727 C731 1.400 . S
C728 H713 0.960 . S
C728 H714 0.960 . S
C728 H715 0.960 . S
C728 C727 1.524 . S
C729 C726 1.403 . S
C729 C730 1.392 . S
C729 C733 1.495 . S
C730 C729 1.392 . S
C730 C731 1.385 . S
C730 C732 1.478 . S
C731 H725 0.930 . S
C731 C727 1.400 . S
C731 C730 1.385 . S
C732 C730 1.478 . S
C732 C734 1.381 . S
C732 C738 1.383 . S
C733 C729 1.495 . S
C733 H739 0.959 . S
C733 H740 0.961 . S
C733 H741 0.960 . S
C734 C732 1.381 . S
C734 C735 1.394 . S
C734 H742 0.930 . S
C735 C734 1.394 . S
C735 C736 1.383 . S
C735 H743 0.929 . S
C736 C735 1.383 . S
C736 C737 1.377 . S
C737 H721 0.930 . S
C737 C736 1.377 . S
C737 C738 1.379 . S
C738 H722 0.931 . S
C738 C732 1.383 . S
C738 C737 1.379 . S
H739 C733 0.959 . S
H740 C733 0.961 . S
H741 C733 0.960 . S
H742 C734 0.930 . S
H743 C735 0.929 . S
H744 C752 0.929 . S
H745 C754 0.930 . S
H746 C756 0.930 . S
H747 C759 0.929 . S
H748 C762 0.930 . S
H749 C764 0.960 . S
H750 C764 0.960 . S
H751 C764 0.960 . S
C752 H744 0.929 . S
C752 C753 1.377 . S
C752 C754 1.384 . S
C753 C752 1.377 . S
C753 C759 1.390 . S
C754 H745 0.930 . S
C754 C752 1.384 . S
C754 C755 1.372 . S
C755 C754 1.372 . S
C755 C756 1.400 . S
C755 C760 1.490 . S
C756 H746 0.930 . S
C756 C755 1.400 . S
C756 C759 1.386 . S
H757 C773 0.930 . S
H758 C774 0.931 . S
C759 H747 0.929 . S
C759 C753 1.390 . S
C759 C756 1.386 . S
C760 C755 1.490 . S
C760 C762 1.395 . S
C760 C763 1.403 . S
H761 C767 0.930 . S
C762 H748 0.930 . S
C762 C760 1.395 . S
C762 C765 1.403 . S
C763 C760 1.403 . S
C763 C764 1.524 . S
C763 C767 1.400 . S
C764 H749 0.960 . S
C764 H750 0.960 . S
C764 H751 0.960 . S
C764 C763 1.524 . S
C765 C762 1.403 . S
C765 C766 1.392 . S
C765 C769 1.495 . S
C766 C765 1.392 . S
C766 C767 1.385 . S
C766 C768 1.478 . S
C767 H761 0.930 . S
C767 C763 1.400 . S
C767 C766 1.385 . S
C768 C766 1.478 . S
C768 C770 1.381 . S
C768 C774 1.383 . S
C769 C765 1.495 . S
C769 H775 0.959 . S
C769 H776 0.961 . S
C769 H777 0.960 . S
C770 C768 1.381 . S
C770 C771 1.394 . S
C770 H778 0.930 . S
C771 C770 1.394 . S
C771 C772 1.383 . S
C771 H779 0.929 . S
C772 C771 1.383 . S
C772 C773 1.377 . S
C773 H757 0.930 . S
C773 C772 1.377 . S
C773 C774 1.379 . S
C774 H758 0.931 . S
C774 C768 1.383 . S
C774 C773 1.379 . S
H775 C769 0.959 . S
H776 C769 0.961 . S
H777 C769 0.960 . S
H778 C770 0.930 . S
H779 C771 0.929 . S
H780 C788 0.929 . S
H781 C790 0.931 . S
H782 C792 0.930 . S
H783 C795 0.929 . S
H784 C798 0.930 . S
H785 C800 0.960 . S
H786 C800 0.960 . S
H787 C800 0.960 . S
C788 H780 0.929 . S
C788 C789 1.377 . S
C788 C790 1.384 . S
C789 C788 1.377 . S
C789 C795 1.390 . S
C790 H781 0.931 . S
C790 C788 1.384 . S
C790 C791 1.372 . S
C791 C790 1.372 . S
C791 C792 1.400 . S
C791 C796 1.490 . S
C792 H782 0.930 . S
C792 C791 1.400 . S
C792 C795 1.386 . S
H793 C809 0.930 . S
H794 C810 0.931 . S
C795 H783 0.929 . S
C795 C789 1.390 . S
C795 C792 1.386 . S
C796 C791 1.490 . S
C796 C798 1.393 1_556 S
C796 C799 1.404 . S
H797 C803 0.930 . S
C798 H784 0.930 . S
C798 C796 1.393 1_554 S
C798 C801 1.403 . S
C799 C796 1.404 . S
C799 C800 1.524 . S
C799 C803 1.400 . S
C800 H785 0.960 . S
C800 H786 0.960 . S
C800 H787 0.960 . S
C800 C799 1.524 . S
C801 C798 1.403 . S
C801 C802 1.392 . S
C801 C805 1.495 . S
C802 C801 1.392 . S
C802 C803 1.385 1_554 S
C802 C804 1.478 . S
C803 H797 0.930 . S
C803 C799 1.400 . S
C803 C802 1.385 1_556 S
C804 C802 1.478 . S
C804 C806 1.381 . S
C804 C810 1.383 . S
C805 C801 1.495 . S
C805 H811 0.959 . S
C805 H812 0.961 . S
C805 H813 0.960 . S
C806 C804 1.381 . S
C806 C807 1.394 . S
C806 H814 0.930 . S
C807 C806 1.394 . S
C807 C808 1.383 . S
C807 H815 0.929 . S
C808 C807 1.383 . S
C808 C809 1.377 . S
C809 H793 0.930 . S
C809 C808 1.377 . S
C809 C810 1.379 . S
C810 H794 0.931 . S
C810 C804 1.383 . S
C810 C809 1.379 . S
H811 C805 0.959 . S
H812 C805 0.961 . S
H813 C805 0.960 . S
H814 C806 0.930 . S
H815 C807 0.929 . S
H816 C824 0.929 . S
H817 C826 0.930 . S
H818 C828 0.930 . S
H819 C831 0.929 . S
H820 C834 0.930 . S
H821 C836 0.960 . S
H822 C836 0.960 . S
H823 C836 0.960 . S
C824 H816 0.929 . S
C824 C825 1.377 . S
C824 C826 1.384 . S
C825 C824 1.377 . S
C825 C831 1.390 . S
C826 H817 0.930 . S
C826 C824 1.384 . S
C826 C827 1.372 . S
C827 C826 1.372 . S
C827 C828 1.400 . S
C827 C832 1.490 . S
C828 H818 0.930 . S
C828 C827 1.400 . S
C828 C831 1.386 . S
H829 C845 0.930 . S
H830 C846 0.931 . S
C831 H819 0.929 . S
C831 C825 1.390 . S
C831 C828 1.386 . S
C832 C827 1.490 . S
C832 C834 1.395 . S
C832 C835 1.403 . S
H833 C839 0.930 . S
C834 H820 0.930 . S
C834 C832 1.395 . S
C834 C837 1.403 . S
C835 C832 1.403 . S
C835 C836 1.524 . S
C835 C839 1.400 . S
C836 H821 0.960 . S
C836 H822 0.960 . S
C836 H823 0.960 . S
C836 C835 1.524 . S
C837 C834 1.403 . S
C837 C838 1.392 . S
C837 C841 1.495 . S
C838 C837 1.392 . S
C838 C839 1.385 . S
C838 C840 1.478 . S
C839 H833 0.930 . S
C839 C835 1.400 . S
C839 C838 1.385 . S
C840 C838 1.478 . S
C840 C842 1.381 . S
C840 C846 1.383 . S
C841 C837 1.495 . S
C841 H847 0.959 . S
C841 H848 0.961 . S
C841 H849 0.960 . S
C842 C840 1.381 . S
C842 C843 1.394 . S
C842 H850 0.930 . S
C843 C842 1.394 . S
C843 C844 1.383 . S
C843 H851 0.929 . S
C844 C843 1.383 . S
C844 C845 1.377 . S
C845 H829 0.930 . S
C845 C844 1.377 . S
C845 C846 1.379 . S
C846 H830 0.931 . S
C846 C840 1.383 . S
C846 C845 1.379 . S
H847 C841 0.959 . S
H848 C841 0.961 . S
H849 C841 0.960 . S
H850 C842 0.930 . S
H851 C843 0.929 . S
H852 C860 0.929 . S
H853 C862 0.930 . S
H854 C864 0.930 . S
H855 C867 0.929 . S
H856 C870 0.930 . S
H857 C872 0.960 . S
H858 C872 0.960 . S
H859 C872 0.960 . S
C860 H852 0.929 . S
C860 C861 1.377 . S
C860 C862 1.384 . S
C861 C860 1.377 . S
C861 C867 1.390 . S
C862 H853 0.930 . S
C862 C860 1.384 . S
C862 C863 1.372 . S
C863 C862 1.372 . S
C863 C864 1.400 . S
C863 C868 1.490 . S
C864 H854 0.930 . S
C864 C863 1.400 . S
C864 C867 1.386 . S
H865 C881 0.930 . S
H866 C882 0.931 . S
C867 H855 0.929 . S
C867 C861 1.390 . S
C867 C864 1.386 . S
C868 C863 1.490 . S
C868 C870 1.395 . S
C868 C871 1.403 . S
H869 C875 0.930 . S
C870 H856 0.930 . S
C870 C868 1.395 . S
C870 C873 1.403 . S
C871 C868 1.403 . S
C871 C872 1.524 . S
C871 C875 1.400 . S
C872 H857 0.960 . S
C872 H858 0.960 . S
C872 H859 0.960 . S
C872 C871 1.524 . S
C873 C870 1.403 . S
C873 C874 1.392 . S
C873 C877 1.495 . S
C874 C873 1.392 . S
C874 C875 1.385 . S
C874 C876 1.478 . S
C875 H869 0.930 . S
C875 C871 1.400 . S
C875 C874 1.385 . S
C876 C874 1.478 . S
C876 C878 1.381 . S
C876 C882 1.383 . S
C877 C873 1.495 . S
C877 H883 0.959 . S
C877 H884 0.961 . S
C877 H885 0.960 . S
C878 C876 1.381 . S
C878 C879 1.394 . S
C878 H886 0.930 . S
C879 C878 1.394 . S
C879 C880 1.383 . S
C879 H887 0.929 . S
C880 C879 1.383 . S
C880 C881 1.377 . S
C881 H865 0.930 . S
C881 C880 1.377 . S
C881 C882 1.379 . S
C882 H866 0.931 . S
C882 C876 1.383 . S
C882 C881 1.379 . S
H883 C877 0.959 . S
H884 C877 0.961 . S
H885 C877 0.960 . S
H886 C878 0.930 . S
H887 C879 0.929 . S
H888 C896 0.929 . S
H889 C898 0.930 . S
H890 C900 0.930 . S
H891 C903 0.929 . S
H892 C906 0.930 . S
H893 C908 0.960 . S
H894 C908 0.960 . S
H895 C908 0.960 . S
C896 H888 0.929 . S
C896 C897 1.377 1_556 S
C896 C898 1.384 . S
C897 C896 1.377 1_554 S
C897 C903 1.390 . S
C898 H889 0.930 . S
C898 C896 1.384 . S
C898 C899 1.372 1_556 S
C899 C898 1.372 1_554 S
C899 C900 1.400 . S
C899 C904 1.490 1_554 S
C900 H890 0.930 . S
C900 C899 1.400 . S
C900 C903 1.386 . S
H901 C917 0.929 . S
H902 C918 0.931 . S
C903 H891 0.929 . S
C903 C897 1.390 . S
C903 C900 1.386 . S
C904 C899 1.490 1_556 S
C904 C906 1.398 . S
C904 C907 1.399 1_556 S
H905 C911 0.930 . S
C906 H892 0.930 . S
C906 C904 1.398 . S
C906 C909 1.403 . S
C907 C904 1.399 1_554 S
C907 C908 1.524 . S
C907 C911 1.400 . S
C908 H893 0.960 . S
C908 H894 0.960 . S
C908 H895 0.960 . S
C908 C907 1.524 . S
C909 C906 1.403 . S
C909 C910 1.392 . S
C909 C913 1.495 . S
C910 C909 1.392 . S
C910 C911 1.385 1_556 S
C910 C912 1.478 . S
C911 H905 0.930 . S
C911 C907 1.400 . S
C911 C910 1.385 1_554 S
C912 C910 1.478 . S
C912 C914 1.381 . S
C912 C918 1.383 . S
C913 C909 1.495 . S
C913 H919 0.959 . S
C913 H920 0.961 . S
C913 H921 0.960 . S
C914 C912 1.381 . S
C914 C915 1.394 . S
C914 H922 0.930 . S
C915 C914 1.394 . S
C915 C916 1.383 . S
C915 H923 0.929 . S
C916 C915 1.383 . S
C916 C917 1.377 . S
C917 H901 0.929 . S
C917 C916 1.377 . S
C917 C918 1.379 . S
C918 H902 0.931 . S
C918 C912 1.383 . S
C918 C917 1.379 . S
H919 C913 0.959 . S
H920 C913 0.961 . S
H921 C913 0.960 . S
H922 C914 0.930 . S
H923 C915 0.929 . S
H924 C932 0.929 . S
H925 C934 0.930 . S
H926 C936 0.930 . S
H927 C939 0.929 . S
H928 C942 0.930 . S
H929 C944 0.960 . S
H930 C944 0.960 . S
H931 C944 0.960 . S
C932 H924 0.929 . S
C932 C933 1.377 . S
C932 C934 1.384 . S
C933 C932 1.377 . S
C933 C939 1.390 . S
C934 H925 0.930 . S
C934 C932 1.384 . S
C934 C935 1.372 . S
C935 C934 1.372 . S
C935 C936 1.400 . S
C935 C940 1.490 . S
C936 H926 0.930 . S
C936 C935 1.400 . S
C936 C939 1.386 . S
H937 C953 0.930 . S
H938 C954 0.931 . S
C939 H927 0.929 . S
C939 C933 1.390 . S
C939 C936 1.386 . S
C940 C935 1.490 . S
C940 C942 1.395 . S
C940 C943 1.403 . S
H941 C947 0.930 . S
C942 H928 0.930 . S
C942 C940 1.395 . S
C942 C945 1.403 . S
C943 C940 1.403 . S
C943 C944 1.524 . S
C943 C947 1.400 . S
C944 H929 0.960 . S
C944 H930 0.960 . S
C944 H931 0.960 . S
C944 C943 1.524 . S
C945 C942 1.403 . S
C945 C946 1.392 . S
C945 C949 1.495 . S
C946 C945 1.392 . S
C946 C947 1.385 . S
C946 C948 1.478 . S
C947 H941 0.930 . S
C947 C943 1.400 . S
C947 C946 1.385 . S
C948 C946 1.478 . S
C948 C950 1.381 . S
C948 C954 1.383 . S
C949 C945 1.495 . S
C949 H955 0.959 . S
C949 H956 0.961 . S
C949 H957 0.960 . S
C950 C948 1.381 . S
C950 C951 1.394 . S
C950 H958 0.930 . S
C951 C950 1.394 . S
C951 C952 1.383 . S
C951 H959 0.929 . S
C952 C951 1.383 . S
C952 C953 1.377 . S
C953 H937 0.930 . S
C953 C952 1.377 . S
C953 C954 1.379 . S
C954 H938 0.931 . S
C954 C948 1.383 . S
C954 C953 1.379 . S
H955 C949 0.959 . S
H956 C949 0.961 . S
H957 C949 0.960 . S
H958 C950 0.930 . S
H959 C951 0.929 . S
H960 C968 0.929 . S
H961 C970 0.930 . S
H962 C972 0.930 . S
H963 C975 0.929 . S
H964 C978 0.930 . S
H965 C980 0.960 . S
H966 C980 0.960 . S
H967 C980 0.960 . S
C968 H960 0.929 . S
C968 C969 1.377 . S
C968 C970 1.384 . S
C969 C968 1.377 . S
C969 C975 1.390 . S
C970 H961 0.930 . S
C970 C968 1.384 . S
C970 C971 1.372 . S
C971 C970 1.372 . S
C971 C972 1.400 . S
C971 C976 1.490 . S
C972 H962 0.930 . S
C972 C971 1.400 . S
C972 C975 1.386 . S
H973 C989 0.930 . S
H974 C990 0.931 . S
C975 H963 0.929 . S
C975 C969 1.390 . S
C975 C972 1.386 . S
C976 C971 1.490 . S
C976 C978 1.395 . S
C976 C979 1.403 . S
H977 C983 0.930 . S
C978 H964 0.930 . S
C978 C976 1.395 . S
C978 C981 1.403 1_655 S
C979 C976 1.403 . S
C979 C980 1.524 . S
C979 C983 1.400 1_655 S
C980 H965 0.960 . S
C980 H966 0.960 . S
C980 H967 0.960 . S
C980 C979 1.524 . S
C981 C978 1.403 1_455 S
C981 C982 1.392 . S
C981 C985 1.495 . S
C982 C981 1.392 . S
C982 C983 1.385 . S
C982 C984 1.478 . S
C983 H977 0.930 . S
C983 C979 1.400 1_455 S
C983 C982 1.385 . S
C984 C982 1.478 . S
C984 C986 1.381 . S
C984 C990 1.383 . S
C985 C981 1.495 . S
C985 H991 0.959 . S
C985 H992 0.961 . S
C985 H993 0.960 . S
C986 C984 1.381 . S
C986 C987 1.394 . S
C986 H994 0.930 . S
C987 C986 1.394 . S
C987 C988 1.383 . S
C987 H995 0.929 . S
C988 C987 1.383 . S
C988 C989 1.377 . S
C989 H973 0.930 . S
C989 C988 1.377 . S
C989 C990 1.379 . S
C990 H974 0.931 . S
C990 C984 1.383 . S
C990 C989 1.379 . S
H991 C985 0.959 . S
H992 C985 0.961 . S
H993 C985 0.960 . S
H994 C986 0.930 . S
H995 C987 0.929 . S
H996 C1004 0.929 . S
H997 C1006 0.930 . S
H998 C1008 0.930 . S
H999 C1011 0.929 . S
H1000 C1014 0.930 . S
H1001 C1016 0.960 . S
H1002 C1016 0.960 . S
H1003 C1016 0.960 . S
C1004 H996 0.929 . S
C1004 C1005 1.379 1_554 S
C1004 C1006 1.384 . S
C1005 C1004 1.379 1_556 S
C1005 C1011 1.389 . S
C1006 H997 0.930 . S
C1006 C1004 1.384 . S
C1006 C1007 1.378 . S
C1007 C1006 1.378 . S
C1007 C1008 1.394 1_554 S
C1007 C1012 1.490 . S
C1008 H998 0.930 . S
C1008 C1007 1.394 1_556 S
C1008 C1011 1.386 . S
H1009 C1025 0.930 . S
H1010 C1026 0.931 . S
C1011 H999 0.929 . S
C1011 C1005 1.389 . S
C1011 C1008 1.386 . S
C1012 C1007 1.490 . S
C1012 C1014 1.396 1_554 S
C1012 C1015 1.401 . S
H1013 C1019 0.930 . S
C1014 H1000 0.930 . S
C1014 C1012 1.396 1_556 S
C1014 C1017 1.403 1_545 S
C1015 C1012 1.401 . S
C1015 C1016 1.524 . S
C1015 C1019 1.400 1_545 S
C1016 H1001 0.960 . S
C1016 H1002 0.960 . S
C1016 H1003 0.960 . S
C1016 C1015 1.524 . S
C1017 C1014 1.403 1_565 S
C1017 C1018 1.392 . S
C1017 C1021 1.495 . S
C1018 C1017 1.392 . S
C1018 C1019 1.385 1_556 S
C1018 C1020 1.478 . S
C1019 H1013 0.930 . S
C1019 C1015 1.400 1_565 S
C1019 C1018 1.385 1_554 S
C1020 C1018 1.478 . S
C1020 C1022 1.381 1_556 S
C1020 C1026 1.383 . S
C1021 C1017 1.495 . S
C1021 H1027 0.959 . S
C1021 H1028 0.961 . S
C1021 H1029 0.960 . S
C1022 C1020 1.381 1_554 S
C1022 C1023 1.394 . S
C1022 H1030 0.930 . S
C1023 C1022 1.394 . S
C1023 C1024 1.371 1_554 S
C1023 H1031 0.929 . S
C1024 C1023 1.371 1_556 S
C1024 C1025 1.391 . S
C1025 H1009 0.930 . S
C1025 C1024 1.391 . S
C1025 C1026 1.379 . S
C1026 H1010 0.931 . S
C1026 C1020 1.383 . S
C1026 C1025 1.379 . S
H1027 C1021 0.959 . S
H1028 C1021 0.961 . S
H1029 C1021 0.960 . S
H1030 C1022 0.930 . S
H1031 C1023 0.929 . S
H1032 C1040 0.929 . S
H1033 C1042 0.930 . S
H1034 C1044 0.930 . S
H1035 C1047 0.929 . S
H1036 C1050 0.930 . S
H1037 C1052 0.960 . S
H1038 C1052 0.960 . S
H1039 C1052 0.960 . S
C1040 H1032 0.929 . S
C1040 C1041 1.377 . S
C1040 C1042 1.384 . S
C1041 C1040 1.377 . S
C1041 C1047 1.390 . S
C1042 H1033 0.930 . S
C1042 C1040 1.384 . S
C1042 C1043 1.372 . S
C1043 C1042 1.372 . S
C1043 C1044 1.400 . S
C1043 C1048 1.490 . S
C1044 H1034 0.930 . S
C1044 C1043 1.400 . S
C1044 C1047 1.386 . S
H1045 C1061 0.930 . S
H1046 C1062 0.931 . S
C1047 H1035 0.929 . S
C1047 C1041 1.390 . S
C1047 C1044 1.386 . S
C1048 C1043 1.490 . S
C1048 C1050 1.395 . S
C1048 C1051 1.403 . S
H1049 C1055 0.930 . S
C1050 H1036 0.930 . S
C1050 C1048 1.395 . S
C1050 C1053 1.403 . S
C1051 C1048 1.403 . S
C1051 C1052 1.524 . S
C1051 C1055 1.400 . S
C1052 H1037 0.960 . S
C1052 H1038 0.960 . S
C1052 H1039 0.960 . S
C1052 C1051 1.524 . S
C1053 C1050 1.403 . S
C1053 C1054 1.392 . S
C1053 C1057 1.495 . S
C1054 C1053 1.392 . S
C1054 C1055 1.385 . S
C1054 C1056 1.478 . S
C1055 H1049 0.930 . S
C1055 C1051 1.400 . S
C1055 C1054 1.385 . S
C1056 C1054 1.478 . S
C1056 C1058 1.381 . S
C1056 C1062 1.383 . S
C1057 C1053 1.495 . S
C1057 H1063 0.959 . S
C1057 H1064 0.961 . S
C1057 H1065 0.960 . S
C1058 C1056 1.381 . S
C1058 C1059 1.394 . S
C1058 H1066 0.930 . S
C1059 C1058 1.394 . S
C1059 C1060 1.383 . S
C1059 H1067 0.929 . S
C1060 C1059 1.383 . S
C1060 C1061 1.377 . S
C1061 H1045 0.930 . S
C1061 C1060 1.377 . S
C1061 C1062 1.379 . S
C1062 H1046 0.931 . S
C1062 C1056 1.383 . S
C1062 C1061 1.379 . S
H1063 C1057 0.959 . S
H1064 C1057 0.961 . S
H1065 C1057 0.960 . S
H1066 C1058 0.930 . S
H1067 C1059 0.929 . S
H1068 C1076 0.929 . S
H1069 C1078 0.930 . S
H1070 C1080 0.930 . S
H1071 C1083 0.929 . S
H1072 C1086 0.930 . S
H1073 C1088 0.960 . S
H1074 C1088 0.960 . S
H1075 C1088 0.960 . S
C1076 H1068 0.929 . S
C1076 C1077 1.377 . S
C1076 C1078 1.384 . S
C1077 C1076 1.377 . S
C1077 C1083 1.390 . S
C1078 H1069 0.930 . S
C1078 C1076 1.384 . S
C1078 C1079 1.372 . S
C1079 C1078 1.372 . S
C1079 C1080 1.400 . S
C1079 C1084 1.490 . S
C1080 H1070 0.930 . S
C1080 C1079 1.400 . S
C1080 C1083 1.386 . S
H1081 C1097 0.930 . S
H1082 C1098 0.931 . S
C1083 H1071 0.929 . S
C1083 C1077 1.390 . S
C1083 C1080 1.386 . S
C1084 C1079 1.490 . S
C1084 C1086 1.395 . S
C1084 C1087 1.403 . S
H1085 C1091 0.930 . S
C1086 H1072 0.930 . S
C1086 C1084 1.395 . S
C1086 C1089 1.403 1_455 S
C1087 C1084 1.403 . S
C1087 C1088 1.524 . S
C1087 C1091 1.400 1_455 S
C1088 H1073 0.960 . S
C1088 H1074 0.960 . S
C1088 H1075 0.960 . S
C1088 C1087 1.524 . S
C1089 C1086 1.403 1_655 S
C1089 C1090 1.392 . S
C1089 C1093 1.495 . S
C1090 C1089 1.392 . S
C1090 C1091 1.385 . S
C1090 C1092 1.478 . S
C1091 H1085 0.930 . S
C1091 C1087 1.400 1_655 S
C1091 C1090 1.385 . S
C1092 C1090 1.478 . S
C1092 C1094 1.381 . S
C1092 C1098 1.383 . S
C1093 C1089 1.495 . S
C1093 H1099 0.959 . S
C1093 H1100 0.961 . S
C1093 H1101 0.960 . S
C1094 C1092 1.381 . S
C1094 C1095 1.394 . S
C1094 H1102 0.930 . S
C1095 C1094 1.394 . S
C1095 C1096 1.383 . S
C1095 H1103 0.929 . S
C1096 C1095 1.383 . S
C1096 C1097 1.377 . S
C1097 H1081 0.930 . S
C1097 C1096 1.377 . S
C1097 C1098 1.379 . S
C1098 H1082 0.931 . S
C1098 C1092 1.383 . S
C1098 C1097 1.379 . S
H1099 C1093 0.959 . S
H1100 C1093 0.961 . S
H1101 C1093 0.960 . S
H1102 C1094 0.930 . S
H1103 C1095 0.929 . S
H1104 C1112 0.929 . S
H1105 C1114 0.930 . S
H1106 C1116 0.930 . S
H1107 C1119 0.929 . S
H1108 C1122 0.930 . S
H1109 C1124 0.960 . S
H1110 C1124 0.960 . S
H1111 C1124 0.960 1_554 S
C1112 H1104 0.929 . S
C1112 C1113 1.381 1_556 S
C1112 C1114 1.384 . S
C1113 C1112 1.381 1_554 S
C1113 C1119 1.387 . S
C1114 H1105 0.930 . S
C1114 C1112 1.384 . S
C1114 C1115 1.372 . S
C1115 C1114 1.372 . S
C1115 C1116 1.400 1_556 S
C1115 C1120 1.490 . S
C1116 H1106 0.930 . S
C1116 C1115 1.400 1_554 S
C1116 C1119 1.386 . S
H1117 C1133 0.930 . S
H1118 C1134 0.931 . S
C1119 H1107 0.929 . S
C1119 C1113 1.387 . S
C1119 C1116 1.386 . S
C1120 C1115 1.490 . S
C1120 C1122 1.395 1_556 S
C1120 C1123 1.403 . S
H1121 C1127 0.930 . S
C1122 H1108 0.930 . S
C1122 C1120 1.395 1_554 S
C1122 C1125 1.403 1_545 S
C1123 C1120 1.403 . S
C1123 C1124 1.524 . S
C1123 C1127 1.400 1_545 S
C1124 H1109 0.960 . S
C1124 H1110 0.960 . S
C1124 H1111 0.960 1_556 S
C1124 C1123 1.524 . S
C1125 C1122 1.403 1_565 S
C1125 C1126 1.393 1_554 S
C1125 C1129 1.495 . S
C1126 C1125 1.393 1_556 S
C1126 C1127 1.385 . S
C1126 C1128 1.477 1_556 S
C1127 H1121 0.930 . S
C1127 C1123 1.400 1_565 S
C1127 C1126 1.385 . S
C1128 C1126 1.477 1_554 S
C1128 C1130 1.366 1_554 S
C1128 C1134 1.398 . S
C1129 C1125 1.495 . S
C1129 H1135 0.959 . S
C1129 H1136 0.961 . S
C1129 H1137 0.960 1_554 S
C1130 C1128 1.366 1_556 S
C1130 C1131 1.394 . S
C1130 H1138 0.930 . S
C1131 C1130 1.394 . S
C1131 C1132 1.383 . S
C1131 H1139 0.929 . S
C1132 C1131 1.383 . S
C1132 C1133 1.377 1_556 S
C1133 H1117 0.930 . S
C1133 C1132 1.377 1_554 S
C1133 C1134 1.379 . S
C1134 H1118 0.931 . S
C1134 C1128 1.398 . S
C1134 C1133 1.379 . S
H1135 C1129 0.959 . S
H1136 C1129 0.961 . S
H1137 C1129 0.960 1_556 S
H1138 C1130 0.930 . S
H1139 C1131 0.929 . S
H1140 C1148 0.929 . S
H1141 C1150 0.930 . S
H1142 C1152 0.930 1_455 S
H1143 C1155 0.929 1_455 S
H1144 C1158 0.930 . S
H1145 C1160 0.960 . S
H1146 C1160 0.960 1_655 S
H1147 C1160 0.960 . S
C1148 H1140 0.929 . S
C1148 C1149 1.377 . S
C1148 C1150 1.384 . S
C1149 C1148 1.377 . S
C1149 C1155 1.390 . S
C1150 H1141 0.930 . S
C1150 C1148 1.384 . S
C1150 C1151 1.372 . S
C1151 C1150 1.372 . S
C1151 C1152 1.400 . S
C1151 C1156 1.490 . S
C1152 H1142 0.930 1_655 S
C1152 C1151 1.400 . S
C1152 C1155 1.386 . S
H1153 C1169 0.930 . S
H1154 C1170 0.931 . S
C1155 H1143 0.929 1_655 S
C1155 C1149 1.390 . S
C1155 C1152 1.386 . S
C1156 C1151 1.490 . S
C1156 C1158 1.395 . S
C1156 C1159 1.403 1_655 S
H1157 C1163 0.930 . S
C1158 H1144 0.930 . S
C1158 C1156 1.395 . S
C1158 C1161 1.403 . S
C1159 C1156 1.403 1_455 S
C1159 C1160 1.523 . S
C1159 C1163 1.400 . S
C1160 H1145 0.960 . S
C1160 H1146 0.960 1_455 S
C1160 H1147 0.960 . S
C1160 C1159 1.523 . S
C1161 C1158 1.403 . S
C1161 C1162 1.392 1_655 S
C1161 C1165 1.495 . S
C1162 C1161 1.392 1_455 S
C1162 C1163 1.385 . S
C1162 C1164 1.478 . S
C1163 H1157 0.930 . S
C1163 C1159 1.400 . S
C1163 C1162 1.385 . S
C1164 C1162 1.478 . S
C1164 C1166 1.381 1_455 S
C1164 C1170 1.383 . S
C1165 C1161 1.495 . S
C1165 H1171 0.959 . S
C1165 H1172 0.961 1_655 S
C1165 H1173 0.960 . S
C1166 C1164 1.381 1_655 S
C1166 C1167 1.394 1_655 S
C1166 H1174 0.930 . S
C1167 C1166 1.394 1_455 S
C1167 C1168 1.383 . S
C1167 H1175 0.929 1_455 S
C1168 C1167 1.383 . S
C1168 C1169 1.377 . S
C1169 H1153 0.930 . S
C1169 C1168 1.377 . S
C1169 C1170 1.379 . S
C1170 H1154 0.931 . S
C1170 C1164 1.383 . S
C1170 C1169 1.379 . S
H1171 C1165 0.959 . S
H1172 C1165 0.961 1_455 S
H1173 C1165 0.960 . S
H1174 C1166 0.930 . S
H1175 C1167 0.929 1_655 S
H1176 C1184 0.929 . S
H1177 C1186 0.930 . S
H1178 C1188 0.930 . S
H1179 C1191 0.929 . S
H1180 C1194 0.930 . S
H1181 C1196 0.960 . S
H1182 C1196 0.960 . S
H1183 C1196 0.960 . S
C1184 H1176 0.929 . S
C1184 C1185 1.377 . S
C1184 C1186 1.384 . S
C1185 C1184 1.377 . S
C1185 C1191 1.390 . S
C1186 H1177 0.930 . S
C1186 C1184 1.384 . S
C1186 C1187 1.372 . S
C1187 C1186 1.372 . S
C1187 C1188 1.400 . S
C1187 C1192 1.490 . S
C1188 H1178 0.930 . S
C1188 C1187 1.400 . S
C1188 C1191 1.386 . S
H1189 C1205 0.930 . S
H1190 C1206 0.931 . S
C1191 H1179 0.929 . S
C1191 C1185 1.390 . S
C1191 C1188 1.386 . S
C1192 C1187 1.490 . S
C1192 C1194 1.395 1_545 S
C1192 C1195 1.403 . S
H1193 C1199 0.930 . S
C1194 H1180 0.930 . S
C1194 C1192 1.395 1_565 S
C1194 C1197 1.403 . S
C1195 C1192 1.403 . S
C1195 C1196 1.524 . S
C1195 C1199 1.400 . S
C1196 H1181 0.960 . S
C1196 H1182 0.960 . S
C1196 H1183 0.960 . S
C1196 C1195 1.524 . S
C1197 C1194 1.403 . S
C1197 C1198 1.392 . S
C1197 C1201 1.495 . S
C1198 C1197 1.392 . S
C1198 C1199 1.385 1_565 S
C1198 C1200 1.478 . S
C1199 H1193 0.930 . S
C1199 C1195 1.400 . S
C1199 C1198 1.385 1_545 S
C1200 C1198 1.478 . S
C1200 C1202 1.381 . S
C1200 C1206 1.383 . S
C1201 C1197 1.495 . S
C1201 H1207 0.959 . S
C1201 H1208 0.961 . S
C1201 H1209 0.960 . S
C1202 C1200 1.381 . S
C1202 C1203 1.394 . S
C1202 H1210 0.930 . S
C1203 C1202 1.394 . S
C1203 C1204 1.383 . S
C1203 H1211 0.929 . S
C1204 C1203 1.383 . S
C1204 C1205 1.377 . S
C1205 H1189 0.930 . S
C1205 C1204 1.377 . S
C1205 C1206 1.379 . S
C1206 H1190 0.931 . S
C1206 C1200 1.383 . S
C1206 C1205 1.379 . S
H1207 C1201 0.959 . S
H1208 C1201 0.961 . S
H1209 C1201 0.960 . S
H1210 C1202 0.930 . S
H1211 C1203 0.929 . S
H1212 C1220 0.929 . S
H1213 C1222 0.930 . S
H1214 C1224 0.930 . S
H1215 C1227 0.929 . S
H1216 C1230 0.930 . S
H1217 C1232 0.960 . S
H1218 C1232 0.960 . S
H1219 C1232 0.960 . S
C1220 H1212 0.929 . S
C1220 C1221 1.377 . S
C1220 C1222 1.384 . S
C1221 C1220 1.377 . S
C1221 C1227 1.390 . S
C1222 H1213 0.930 . S
C1222 C1220 1.384 . S
C1222 C1223 1.372 . S
C1223 C1222 1.372 . S
C1223 C1224 1.400 . S
C1223 C1228 1.490 . S
C1224 H1214 0.930 . S
C1224 C1223 1.400 . S
C1224 C1227 1.386 . S
H1225 C1241 0.930 . S
H1226 C1242 0.931 . S
C1227 H1215 0.929 . S
C1227 C1221 1.390 . S
C1227 C1224 1.386 . S
C1228 C1223 1.490 . S
C1228 C1230 1.395 . S
C1228 C1231 1.403 . S
H1229 C1235 0.930 . S
C1230 H1216 0.930 . S
C1230 C1228 1.395 . S
C1230 C1233 1.403 . S
C1231 C1228 1.403 . S
C1231 C1232 1.524 . S
C1231 C1235 1.400 . S
C1232 H1217 0.960 . S
C1232 H1218 0.960 . S
C1232 H1219 0.960 . S
C1232 C1231 1.524 . S
C1233 C1230 1.403 . S
C1233 C1234 1.392 . S
C1233 C1237 1.495 . S
C1234 C1233 1.392 . S
C1234 C1235 1.385 . S
C1234 C1236 1.478 . S
C1235 H1229 0.930 . S
C1235 C1231 1.400 . S
C1235 C1234 1.385 . S
C1236 C1234 1.478 . S
C1236 C1238 1.381 . S
C1236 C1242 1.383 . S
C1237 C1233 1.495 . S
C1237 H1243 0.959 . S
C1237 H1244 0.961 . S
C1237 H1245 0.960 . S
C1238 C1236 1.381 . S
C1238 C1239 1.394 . S
C1238 H1246 0.930 . S
C1239 C1238 1.394 . S
C1239 C1240 1.383 . S
C1239 H1247 0.929 . S
C1240 C1239 1.383 . S
C1240 C1241 1.377 . S
C1241 H1225 0.930 . S
C1241 C1240 1.377 . S
C1241 C1242 1.379 . S
C1242 H1226 0.931 . S
C1242 C1236 1.383 . S
C1242 C1241 1.379 . S
H1243 C1237 0.959 . S
H1244 C1237 0.961 . S
H1245 C1237 0.960 . S
H1246 C1238 0.930 . S
H1247 C1239 0.929 . S
H1248 C1256 0.929 . S
H1249 C1258 0.930 . S
H1250 C1260 0.930 . S
H1251 C1263 0.929 . S
H1252 C1266 0.930 . S
H1253 C1268 0.960 . S
H1254 C1268 0.960 . S
H1255 C1268 0.960 . S
C1256 H1248 0.929 . S
C1256 C1257 1.377 . S
C1256 C1258 1.384 . S
C1257 C1256 1.377 . S
C1257 C1263 1.390 . S
C1258 H1249 0.930 . S
C1258 C1256 1.384 . S
C1258 C1259 1.372 . S
C1259 C1258 1.372 . S
C1259 C1260 1.400 . S
C1259 C1264 1.490 . S
C1260 H1250 0.930 . S
C1260 C1259 1.400 . S
C1260 C1263 1.386 . S
H1261 C1277 0.930 . S
H1262 C1278 0.931 . S
C1263 H1251 0.929 . S
C1263 C1257 1.390 . S
C1263 C1260 1.386 . S
C1264 C1259 1.490 . S
C1264 C1266 1.395 . S
C1264 C1267 1.403 1_455 S
H1265 C1271 0.930 . S
C1266 H1252 0.930 . S
C1266 C1264 1.395 . S
C1266 C1269 1.403 . S
C1267 C1264 1.403 1_655 S
C1267 C1268 1.524 . S
C1267 C1271 1.400 . S
C1268 H1253 0.960 . S
C1268 H1254 0.960 . S
C1268 H1255 0.960 . S
C1268 C1267 1.524 . S
C1269 C1266 1.403 . S
C1269 C1270 1.392 1_455 S
C1269 C1273 1.495 . S
C1270 C1269 1.392 1_655 S
C1270 C1271 1.385 . S
C1270 C1272 1.478 . S
C1271 H1265 0.930 . S
C1271 C1267 1.400 . S
C1271 C1270 1.385 . S
C1272 C1270 1.478 . S
C1272 C1274 1.381 . S
C1272 C1278 1.383 . S
C1273 C1269 1.495 . S
C1273 H1279 0.959 . S
C1273 H1280 0.961 . S
C1273 H1281 0.960 . S
C1274 C1272 1.381 . S
C1274 C1275 1.394 . S
C1274 H1282 0.930 . S
C1275 C1274 1.394 . S
C1275 C1276 1.383 . S
C1275 H1283 0.929 . S
C1276 C1275 1.383 . S
C1276 C1277 1.377 . S
C1277 H1261 0.930 . S
C1277 C1276 1.377 . S
C1277 C1278 1.379 . S
C1278 H1262 0.931 . S
C1278 C1272 1.383 . S
C1278 C1277 1.379 . S
H1279 C1273 0.959 . S
H1280 C1273 0.961 . S
H1281 C1273 0.960 . S
H1282 C1274 0.930 . S
H1283 C1275 0.929 . S
H1284 C1292 0.929 . S
H1285 C1294 0.930 . S
H1286 C1296 0.930 . S
H1287 C1299 0.929 . S
H1288 C1302 0.930 . S
H1289 C1304 0.960 . S
H1290 C1304 0.960 . S
H1291 C1304 0.960 . S
C1292 H1284 0.929 . S
C1292 C1293 1.377 . S
C1292 C1294 1.384 . S
C1293 C1292 1.377 . S
C1293 C1299 1.390 . S
C1294 H1285 0.930 . S
C1294 C1292 1.384 . S
C1294 C1295 1.372 . S
C1295 C1294 1.372 . S
C1295 C1296 1.400 . S
C1295 C1300 1.490 . S
C1296 H1286 0.930 . S
C1296 C1295 1.400 . S
C1296 C1299 1.386 . S
H1297 C1313 0.930 . S
H1298 C1314 0.931 . S
C1299 H1287 0.929 . S
C1299 C1293 1.390 . S
C1299 C1296 1.386 . S
C1300 C1295 1.490 . S
C1300 C1302 1.395 . S
C1300 C1303 1.403 1_545 S
H1301 C1307 0.930 . S
C1302 H1288 0.930 . S
C1302 C1300 1.395 . S
C1302 C1305 1.403 . S
C1303 C1300 1.403 1_565 S
C1303 C1304 1.524 . S
C1303 C1307 1.400 . S
C1304 H1289 0.960 . S
C1304 H1290 0.960 . S
C1304 H1291 0.960 . S
C1304 C1303 1.524 . S
C1305 C1302 1.403 . S
C1305 C1306 1.392 1_545 S
C1305 C1309 1.495 . S
C1306 C1305 1.392 1_565 S
C1306 C1307 1.385 . S
C1306 C1308 1.478 . S
C1307 H1301 0.930 . S
C1307 C1303 1.400 . S
C1307 C1306 1.385 . S
C1308 C1306 1.478 . S
C1308 C1310 1.381 . S
C1308 C1314 1.383 . S
C1309 C1305 1.495 . S
C1309 H1315 0.959 . S
C1309 H1316 0.961 . S
C1309 H1317 0.960 . S
C1310 C1308 1.381 . S
C1310 C1311 1.394 . S
C1310 H1318 0.930 . S
C1311 C1310 1.394 . S
C1311 C1312 1.383 . S
C1311 H1319 0.929 . S
C1312 C1311 1.383 . S
C1312 C1313 1.377 . S
C1313 H1297 0.930 . S
C1313 C1312 1.377 . S
C1313 C1314 1.379 . S
C1314 H1298 0.931 . S
C1314 C1308 1.383 . S
C1314 C1313 1.379 . S
H1315 C1309 0.959 . S
H1316 C1309 0.961 . S
H1317 C1309 0.960 . S
H1318 C1310 0.930 . S
H1319 C1311 0.929 . S
H1320 C1328 0.929 . S
H1321 C1330 0.930 . S
H1322 C1332 0.930 . S
H1323 C1335 0.929 . S
H1324 C1338 0.930 . S
H1325 C1340 0.960 . S
H1326 C1340 0.960 . S
H1327 C1340 0.960 . S
C1328 H1320 0.929 . S
C1328 C1329 1.377 . S
C1328 C1330 1.384 . S
C1329 C1328 1.377 . S
C1329 C1335 1.390 . S
C1330 H1321 0.930 . S
C1330 C1328 1.384 . S
C1330 C1331 1.372 . S
C1331 C1330 1.372 . S
C1331 C1332 1.400 . S
C1331 C1336 1.490 . S
C1332 H1322 0.930 . S
C1332 C1331 1.400 . S
C1332 C1335 1.386 . S
H1333 C1349 0.930 . S
H1334 C1350 0.931 . S
C1335 H1323 0.929 . S
C1335 C1329 1.390 . S
C1335 C1332 1.386 . S
C1336 C1331 1.490 . S
C1336 C1338 1.395 . S
C1336 C1339 1.403 . S
H1337 C1343 0.930 . S
C1338 H1324 0.930 . S
C1338 C1336 1.395 . S
C1338 C1341 1.403 . S
C1339 C1336 1.403 . S
C1339 C1340 1.524 . S
C1339 C1343 1.400 . S
C1340 H1325 0.960 . S
C1340 H1326 0.960 . S
C1340 H1327 0.960 . S
C1340 C1339 1.524 . S
C1341 C1338 1.403 . S
C1341 C1342 1.392 . S
C1341 C1345 1.495 . S
C1342 C1341 1.392 . S
C1342 C1343 1.385 . S
C1342 C1344 1.478 . S
C1343 H1337 0.930 . S
C1343 C1339 1.400 . S
C1343 C1342 1.385 . S
C1344 C1342 1.478 . S
C1344 C1346 1.381 . S
C1344 C1350 1.383 . S
C1345 C1341 1.495 . S
C1345 H1351 0.959 . S
C1345 H1352 0.961 . S
C1345 H1353 0.960 . S
C1346 C1344 1.381 . S
C1346 C1347 1.394 . S
C1346 H1354 0.930 . S
C1347 C1346 1.394 . S
C1347 C1348 1.383 . S
C1347 H1355 0.929 . S
C1348 C1347 1.383 . S
C1348 C1349 1.377 . S
C1349 H1333 0.930 . S
C1349 C1348 1.377 . S
C1349 C1350 1.379 . S
C1350 H1334 0.931 . S
C1350 C1344 1.383 . S
C1350 C1349 1.379 . S
H1351 C1345 0.959 . S
H1352 C1345 0.961 . S
H1353 C1345 0.960 . S
H1354 C1346 0.930 . S
H1355 C1347 0.929 . S
H1356 C1364 0.929 . S
H1357 C1366 0.930 . S
H1358 C1368 0.930 . S
H1359 C1371 0.929 . S
H1360 C1374 0.930 . S
H1361 C1376 0.960 . S
H1362 C1376 0.960 . S
H1363 C1376 0.960 . S
C1364 H1356 0.929 . S
C1364 C1365 1.377 . S
C1364 C1366 1.384 . S
C1365 C1364 1.377 . S
C1365 C1371 1.390 . S
C1366 H1357 0.930 . S
C1366 C1364 1.384 . S
C1366 C1367 1.372 . S
C1367 C1366 1.372 . S
C1367 C1368 1.400 . S
C1367 C1372 1.490 . S
C1368 H1358 0.930 . S
C1368 C1367 1.400 . S
C1368 C1371 1.386 . S
H1369 C1385 0.930 . S
H1370 C1386 0.931 . S
C1371 H1359 0.929 . S
C1371 C1365 1.390 . S
C1371 C1368 1.386 . S
C1372 C1367 1.490 . S
C1372 C1374 1.395 . S
C1372 C1375 1.403 . S
H1373 C1379 0.930 . S
C1374 H1360 0.930 . S
C1374 C1372 1.395 . S
C1374 C1377 1.403 . S
C1375 C1372 1.403 . S
C1375 C1376 1.524 . S
C1375 C1379 1.400 . S
C1376 H1361 0.960 . S
C1376 H1362 0.960 . S
C1376 H1363 0.960 . S
C1376 C1375 1.524 . S
C1377 C1374 1.403 . S
C1377 C1378 1.392 . S
C1377 C1381 1.495 . S
C1378 C1377 1.392 . S
C1378 C1379 1.385 . S
C1378 C1380 1.478 . S
C1379 H1373 0.930 . S
C1379 C1375 1.400 . S
C1379 C1378 1.385 . S
C1380 C1378 1.478 . S
C1380 C1382 1.381 . S
C1380 C1386 1.383 . S
C1381 C1377 1.495 . S
C1381 H1387 0.959 . S
C1381 H1388 0.961 . S
C1381 H1389 0.960 . S
C1382 C1380 1.381 . S
C1382 C1383 1.394 . S
C1382 H1390 0.930 . S
C1383 C1382 1.394 . S
C1383 C1384 1.383 . S
C1383 H1391 0.929 . S
C1384 C1383 1.383 . S
C1384 C1385 1.377 . S
C1385 H1369 0.930 . S
C1385 C1384 1.377 . S
C1385 C1386 1.379 . S
C1386 H1370 0.931 . S
C1386 C1380 1.383 . S
C1386 C1385 1.379 . S
H1387 C1381 0.959 . S
H1388 C1381 0.961 . S
H1389 C1381 0.960 . S
H1390 C1382 0.930 . S
H1391 C1383 0.929 . S
H1392 C1400 0.929 . S
H1393 C1402 0.930 . S
H1394 C1404 0.930 . S
H1395 C1407 0.929 . S
H1396 C1410 0.930 . S
H1397 C1412 0.960 . S
H1398 C1412 0.960 . S
H1399 C1412 0.960 . S
C1400 H1392 0.929 . S
C1400 C1401 1.377 . S
C1400 C1402 1.384 . S
C1401 C1400 1.377 . S
C1401 C1407 1.390 . S
C1402 H1393 0.930 . S
C1402 C1400 1.384 . S
C1402 C1403 1.372 . S
C1403 C1402 1.372 . S
C1403 C1404 1.400 . S
C1403 C1408 1.490 . S
C1404 H1394 0.930 . S
C1404 C1403 1.400 . S
C1404 C1407 1.386 . S
H1405 C1421 0.930 . S
H1406 C1422 0.931 . S
C1407 H1395 0.929 . S
C1407 C1401 1.390 . S
C1407 C1404 1.386 . S
C1408 C1403 1.490 . S
C1408 C1410 1.395 . S
C1408 C1411 1.403 . S
H1409 C1415 0.930 . S
C1410 H1396 0.930 . S
C1410 C1408 1.395 . S
C1410 C1413 1.403 . S
C1411 C1408 1.403 . S
C1411 C1412 1.524 . S
C1411 C1415 1.400 . S
C1412 H1397 0.960 . S
C1412 H1398 0.960 . S
C1412 H1399 0.960 . S
C1412 C1411 1.524 . S
C1413 C1410 1.403 . S
C1413 C1414 1.392 . S
C1413 C1417 1.495 . S
C1414 C1413 1.392 . S
C1414 C1415 1.385 . S
C1414 C1416 1.478 . S
C1415 H1409 0.930 . S
C1415 C1411 1.400 . S
C1415 C1414 1.385 . S
C1416 C1414 1.478 . S
C1416 C1418 1.381 . S
C1416 C1422 1.383 . S
C1417 C1413 1.495 . S
C1417 H1423 0.959 . S
C1417 H1424 0.961 . S
C1417 H1425 0.960 . S
C1418 C1416 1.381 . S
C1418 C1419 1.394 . S
C1418 H1426 0.930 . S
C1419 C1418 1.394 . S
C1419 C1420 1.383 . S
C1419 H1427 0.929 . S
C1420 C1419 1.383 . S
C1420 C1421 1.377 . S
C1421 H1405 0.930 . S
C1421 C1420 1.377 . S
C1421 C1422 1.379 . S
C1422 H1406 0.931 . S
C1422 C1416 1.383 . S
C1422 C1421 1.379 . S
H1423 C1417 0.959 . S
H1424 C1417 0.961 . S
H1425 C1417 0.960 . S
H1426 C1418 0.930 . S
H1427 C1419 0.929 . S
H1428 C1436 0.929 . S
H1429 C1438 0.930 . S
H1430 C1440 0.930 . S
H1431 C1443 0.929 . S
H1432 C1446 0.930 . S
H1433 C1448 0.960 . S
H1434 C1448 0.960 . S
H1435 C1448 0.960 . S
C1436 H1428 0.929 . S
C1436 C1437 1.377 . S
C1436 C1438 1.384 . S
C1437 C1436 1.377 . S
C1437 C1443 1.390 . S
C1438 H1429 0.930 . S
C1438 C1436 1.384 . S
C1438 C1439 1.372 . S
C1439 C1438 1.372 . S
C1439 C1440 1.400 . S
C1439 C1444 1.490 . S
C1440 H1430 0.930 . S
C1440 C1439 1.400 . S
C1440 C1443 1.386 . S
H1441 C1457 0.930 . S
H1442 C1458 0.931 . S
C1443 H1431 0.929 . S
C1443 C1437 1.390 . S
C1443 C1440 1.386 . S
C1444 C1439 1.490 . S
C1444 C1446 1.395 . S
C1444 C1447 1.403 . S
H1445 C1451 0.930 . S
C1446 H1432 0.930 . S
C1446 C1444 1.395 . S
C1446 C1449 1.403 . S
C1447 C1444 1.403 . S
C1447 C1448 1.524 . S
C1447 C1451 1.400 . S
C1448 H1433 0.960 . S
C1448 H1434 0.960 . S
C1448 H1435 0.960 . S
C1448 C1447 1.524 . S
C1449 C1446 1.403 . S
C1449 C1450 1.392 . S
C1449 C1453 1.495 . S
C1450 C1449 1.392 . S
C1450 C1451 1.385 . S
C1450 C1452 1.478 . S
C1451 H1445 0.930 . S
C1451 C1447 1.400 . S
C1451 C1450 1.385 . S
C1452 C1450 1.478 . S
C1452 C1454 1.381 . S
C1452 C1458 1.383 . S
C1453 C1449 1.495 . S
C1453 H1459 0.959 . S
C1453 H1460 0.961 . S
C1453 H1461 0.960 . S
C1454 C1452 1.381 . S
C1454 C1455 1.394 . S
C1454 H1462 0.930 . S
C1455 C1454 1.394 . S
C1455 C1456 1.383 . S
C1455 H1463 0.929 . S
C1456 C1455 1.383 . S
C1456 C1457 1.377 . S
C1457 H1441 0.930 . S
C1457 C1456 1.377 . S
C1457 C1458 1.379 . S
C1458 H1442 0.931 . S
C1458 C1452 1.383 . S
C1458 C1457 1.379 . S
H1459 C1453 0.959 . S
H1460 C1453 0.961 . S
H1461 C1453 0.960 . S
H1462 C1454 0.930 . S
H1463 C1455 0.929 . S
H1464 C1472 0.929 . S
H1465 C1474 0.930 . S
H1466 C1476 0.930 . S
H1467 C1479 0.929 . S
H1468 C1482 0.930 . S
H1469 C1484 0.960 . S
H1470 C1484 0.960 . S
H1471 C1484 0.960 . S
C1472 H1464 0.929 . S
C1472 C1473 1.377 . S
C1472 C1474 1.384 . S
C1473 C1472 1.377 . S
C1473 C1479 1.390 . S
C1474 H1465 0.930 . S
C1474 C1472 1.384 . S
C1474 C1475 1.372 . S
C1475 C1474 1.372 . S
C1475 C1476 1.400 . S
C1475 C1480 1.490 . S
C1476 H1466 0.930 . S
C1476 C1475 1.400 . S
C1476 C1479 1.386 . S
H1477 C1493 0.930 . S
H1478 C1494 0.931 . S
C1479 H1467 0.929 . S
C1479 C1473 1.390 . S
C1479 C1476 1.386 . S
C1480 C1475 1.490 . S
C1480 C1482 1.395 . S
C1480 C1483 1.403 . S
H1481 C1487 0.930 . S
C1482 H1468 0.930 . S
C1482 C1480 1.395 . S
C1482 C1485 1.403 . S
C1483 C1480 1.403 . S
C1483 C1484 1.524 . S
C1483 C1487 1.400 . S
C1484 H1469 0.960 . S
C1484 H1470 0.960 . S
C1484 H1471 0.960 . S
C1484 C1483 1.524 . S
C1485 C1482 1.403 . S
C1485 C1486 1.392 . S
C1485 C1489 1.495 . S
C1486 C1485 1.392 . S
C1486 C1487 1.385 . S
C1486 C1488 1.478 . S
C1487 H1481 0.930 . S
C1487 C1483 1.400 . S
C1487 C1486 1.385 . S
C1488 C1486 1.478 . S
C1488 C1490 1.381 . S
C1488 C1494 1.383 . S
C1489 C1485 1.495 . S
C1489 H1495 0.959 . S
C1489 H1496 0.961 . S
C1489 H1497 0.960 . S
C1490 C1488 1.381 . S
C1490 C1491 1.394 . S
C1490 H1498 0.930 . S
C1491 C1490 1.394 . S
C1491 C1492 1.383 . S
C1491 H1499 0.929 . S
C1492 C1491 1.383 . S
C1492 C1493 1.377 . S
C1493 H1477 0.930 . S
C1493 C1492 1.377 . S
C1493 C1494 1.379 . S
C1494 H1478 0.931 . S
C1494 C1488 1.383 . S
C1494 C1493 1.379 . S
H1495 C1489 0.959 . S
H1496 C1489 0.961 . S
H1497 C1489 0.960 . S
H1498 C1490 0.930 . S
H1499 C1491 0.929 . S
H1500 C1508 0.929 . S
H1501 C1510 0.930 . S
H1502 C1512 0.930 . S
H1503 C1515 0.929 . S
H1504 C1518 0.930 . S
H1505 C1520 0.960 . S
H1506 C1520 0.960 . S
H1507 C1520 0.960 . S
C1508 H1500 0.929 . S
C1508 C1509 1.377 . S
C1508 C1510 1.384 . S
C1509 C1508 1.377 . S
C1509 C1515 1.390 . S
C1510 H1501 0.930 . S
C1510 C1508 1.384 . S
C1510 C1511 1.372 . S
C1511 C1510 1.372 . S
C1511 C1512 1.400 . S
C1511 C1516 1.490 . S
C1512 H1502 0.930 . S
C1512 C1511 1.400 . S
C1512 C1515 1.386 . S
H1513 C1529 0.930 . S
H1514 C1530 0.931 . S
C1515 H1503 0.929 . S
C1515 C1509 1.390 . S
C1515 C1512 1.386 . S
C1516 C1511 1.490 . S
C1516 C1518 1.395 . S
C1516 C1519 1.403 . S
H1517 C1523 0.930 . S
C1518 H1504 0.930 . S
C1518 C1516 1.395 . S
C1518 C1521 1.403 . S
C1519 C1516 1.403 . S
C1519 C1520 1.524 . S
C1519 C1523 1.400 . S
C1520 H1505 0.960 . S
C1520 H1506 0.960 . S
C1520 H1507 0.960 . S
C1520 C1519 1.524 . S
C1521 C1518 1.403 . S
C1521 C1522 1.392 . S
C1521 C1525 1.495 . S
C1522 C1521 1.392 . S
C1522 C1523 1.385 . S
C1522 C1524 1.478 . S
C1523 H1517 0.930 . S
C1523 C1519 1.400 . S
C1523 C1522 1.385 . S
C1524 C1522 1.478 . S
C1524 C1526 1.381 . S
C1524 C1530 1.383 . S
C1525 C1521 1.495 . S
C1525 H1531 0.959 . S
C1525 H1532 0.961 . S
C1525 H1533 0.960 . S
C1526 C1524 1.381 . S
C1526 C1527 1.394 . S
C1526 H1534 0.930 . S
C1527 C1526 1.394 . S
C1527 C1528 1.383 . S
C1527 H1535 0.929 . S
C1528 C1527 1.383 . S
C1528 C1529 1.377 . S
C1529 H1513 0.930 . S
C1529 C1528 1.377 . S
C1529 C1530 1.379 . S
C1530 H1514 0.931 . S
C1530 C1524 1.383 . S
C1530 C1529 1.379 . S
H1531 C1525 0.959 . S
H1532 C1525 0.961 . S
H1533 C1525 0.960 . S
H1534 C1526 0.930 . S
H1535 C1527 0.929 . S
H1536 C1544 0.929 . S
H1537 C1546 0.930 . S
H1538 C1548 0.930 . S
H1539 C1551 0.929 . S
H1540 C1554 0.930 . S
H1541 C1556 0.960 . S
H1542 C1556 0.960 . S
H1543 C1556 0.960 . S
C1544 H1536 0.929 . S
C1544 C1545 1.377 . S
C1544 C1546 1.384 . S
C1545 C1544 1.377 . S
C1545 C1551 1.390 . S
C1546 H1537 0.930 . S
C1546 C1544 1.384 . S
C1546 C1547 1.372 . S
C1547 C1546 1.372 . S
C1547 C1548 1.400 . S
C1547 C1552 1.490 . S
C1548 H1538 0.930 . S
C1548 C1547 1.400 . S
C1548 C1551 1.386 . S
H1549 C1565 0.930 . S
H1550 C1566 0.931 . S
C1551 H1539 0.929 . S
C1551 C1545 1.390 . S
C1551 C1548 1.386 . S
C1552 C1547 1.490 . S
C1552 C1554 1.395 . S
C1552 C1555 1.403 . S
H1553 C1559 0.930 . S
C1554 H1540 0.930 . S
C1554 C1552 1.395 . S
C1554 C1557 1.403 . S
C1555 C1552 1.403 . S
C1555 C1556 1.524 . S
C1555 C1559 1.400 . S
C1556 H1541 0.960 . S
C1556 H1542 0.960 . S
C1556 H1543 0.960 . S
C1556 C1555 1.524 . S
C1557 C1554 1.403 . S
C1557 C1558 1.392 . S
C1557 C1561 1.495 . S
C1558 C1557 1.392 . S
C1558 C1559 1.385 . S
C1558 C1560 1.478 . S
C1559 H1553 0.930 . S
C1559 C1555 1.400 . S
C1559 C1558 1.385 . S
C1560 C1558 1.478 . S
C1560 C1562 1.381 . S
C1560 C1566 1.383 . S
C1561 C1557 1.495 . S
C1561 H1567 0.959 . S
C1561 H1568 0.961 . S
C1561 H1569 0.960 . S
C1562 C1560 1.381 . S
C1562 C1563 1.394 . S
C1562 H1570 0.930 . S
C1563 C1562 1.394 . S
C1563 C1564 1.383 . S
C1563 H1571 0.929 . S
C1564 C1563 1.383 . S
C1564 C1565 1.377 . S
C1565 H1549 0.930 . S
C1565 C1564 1.377 . S
C1565 C1566 1.379 . S
C1566 H1550 0.931 . S
C1566 C1560 1.383 . S
C1566 C1565 1.379 . S
H1567 C1561 0.959 . S
H1568 C1561 0.961 . S
H1569 C1561 0.960 . S
H1570 C1562 0.930 . S
H1571 C1563 0.929 . S
C717 C3 1.705 . S
C736 C357 1.689 . S
C753 C62 1.718 . S
C772 C416 1.721 . S
C789 C123 1.613 . S
C808 C477 1.618 . S
C825 C534 1.711 . S
C844 C180 1.683 . S
C861 C239 1.714 . S
C880 C593 1.723 . S
C897 C654 1.613 . S
C916 C300 1.615 . S
C933 C33 1.424 . S
C952 C564 1.415 . S
C969 C92 1.425 . S
C988 C623 1.437 . S
C1005 C701 1.323 1_556 S
C1024 C170 1.304 . S
C1041 C387 1.426 . S
C1060 C210 1.416 . S
C1077 C269 1.428 . S
C1096 C446 1.406 . S
C1113 C347 1.326 1_554 S
C1132 C524 1.299 1_556 S
C1149 C652 1.528 . S
C1168 C5 1.518 . S
C1185 C64 1.781 . S
C1204 C359 1.764 . S
C1221 C121 1.531 . S
C1240 C418 1.538 . S
C1257 C475 1.532 . S
C1276 C182 1.542 . S
C1293 C536 1.788 . S
C1312 C241 1.798 . S
C1329 C298 1.526 . S
C1348 C595 1.516 . S
C1365 C52 0.902 . S
C1384 C642 0.875 . S
C1401 C682 1.129 . S
C1420 C111 1.146 . S
C1437 C406 1.137 . S
C1456 C151 1.101 . S
C1473 C229 0.901 . S
C1492 C465 0.873 . S
C1509 C505 1.140 . S
C1528 C288 1.162 . S
C1545 C583 1.138 . S
C1564 C328 1.120 . S
