# Generated by pormake.
# Topology ulj, (4)-cn, num edge types: 1
# Building blocks:
#     Node 0, Type 0, BuildingBlock: QUQFOY_clean_sbu_1, # of connection points: 4
#     Node 1, Type 0, BuildingBlock: QUQFOY_clean_sbu_1, # of connection points: 4
#     Node 2, Type 0, BuildingBlock: QUQFOY_clean_sbu_1, # of connection points: 4
#     Node 3, Type 0, BuildingBlock: QUQFOY_clean_sbu_1, # of connection points: 4
#     Node 4, Type 0, BuildingBlock: QUQFOY_clean_sbu_1, # of connection points: 4
#     Node 5, Type 0, BuildingBlock: QUQFOY_clean_sbu_1, # of connection points: 4
#     Node 6, Type 0, BuildingBlock: QUQFOY_clean_sbu_1, # of connection points: 4
#     Node 7, Type 0, BuildingBlock: QUQFOY_clean_sbu_1, # of connection points: 4
#     Node 8, Type 0, BuildingBlock: QUQFOY_clean_sbu_1, # of connection points: 4
#     Node 9, Type 0, BuildingBlock: QUQFOY_clean_sbu_1, # of connection points: 4
#     Node 10, Type 0, BuildingBlock: QUQFOY_clean_sbu_1, # of connection points: 4
#     Node 11, Type 0, BuildingBlock: QUQFOY_clean_sbu_1, # of connection points: 4
#     Node 12, Type 0, BuildingBlock: QUQFOY_clean_sbu_1, # of connection points: 4
#     Node 13, Type 0, BuildingBlock: QUQFOY_clean_sbu_1, # of connection points: 4
#     Node 14, Type 0, BuildingBlock: QUQFOY_clean_sbu_1, # of connection points: 4
#     Node 15, Type 0, BuildingBlock: QUQFOY_clean_sbu_1, # of connection points: 4
#     Node 16, Type 0, BuildingBlock: QUQFOY_clean_sbu_1, # of connection points: 4
#     Node 17, Type 0, BuildingBlock: QUQFOY_clean_sbu_1, # of connection points: 4
#     Node 18, Type 0, BuildingBlock: QUQFOY_clean_sbu_1, # of connection points: 4
#     Node 19, Type 0, BuildingBlock: QUQFOY_clean_sbu_1, # of connection points: 4
#     Node 20, Type 0, BuildingBlock: QUQFOY_clean_sbu_1, # of connection points: 4
#     Node 21, Type 0, BuildingBlock: QUQFOY_clean_sbu_1, # of connection points: 4
#     Node 22, Type 0, BuildingBlock: QUQFOY_clean_sbu_1, # of connection points: 4
#     Node 23, Type 0, BuildingBlock: QUQFOY_clean_sbu_1, # of connection points: 4
#     Node 24, Type 0, BuildingBlock: QUQFOY_clean_sbu_1, # of connection points: 4
#     Node 25, Type 0, BuildingBlock: QUQFOY_clean_sbu_1, # of connection points: 4
#     Node 26, Type 0, BuildingBlock: QUQFOY_clean_sbu_1, # of connection points: 4
#     Node 27, Type 0, BuildingBlock: QUQFOY_clean_sbu_1, # of connection points: 4
#     Node 28, Type 0, BuildingBlock: QUQFOY_clean_sbu_1, # of connection points: 4
#     Node 29, Type 0, BuildingBlock: QUQFOY_clean_sbu_1, # of connection points: 4
#     Node 30, Type 0, BuildingBlock: QUQFOY_clean_sbu_1, # of connection points: 4
#     Node 31, Type 0, BuildingBlock: QUQFOY_clean_sbu_1, # of connection points: 4
#     Node 32, Type 0, BuildingBlock: QUQFOY_clean_sbu_1, # of connection points: 4
#     Node 33, Type 0, BuildingBlock: QUQFOY_clean_sbu_1, # of connection points: 4
#     Node 34, Type 0, BuildingBlock: QUQFOY_clean_sbu_1, # of connection points: 4
#     Node 35, Type 0, BuildingBlock: QUQFOY_clean_sbu_1, # of connection points: 4
#     Node 36, Type 0, BuildingBlock: QUQFOY_clean_sbu_1, # of connection points: 4
#     Node 37, Type 0, BuildingBlock: QUQFOY_clean_sbu_1, # of connection points: 4
#     Node 38, Type 0, BuildingBlock: QUQFOY_clean_sbu_1, # of connection points: 4
#     Node 39, Type 0, BuildingBlock: QUQFOY_clean_sbu_1, # of connection points: 4
#     Node 40, Type 0, BuildingBlock: QUQFOY_clean_sbu_1, # of connection points: 4
#     Node 41, Type 0, BuildingBlock: QUQFOY_clean_sbu_1, # of connection points: 4
#     Node 42, Type 0, BuildingBlock: QUQFOY_clean_sbu_1, # of connection points: 4
#     Node 43, Type 0, BuildingBlock: QUQFOY_clean_sbu_1, # of connection points: 4
#     Node 44, Type 0, BuildingBlock: QUQFOY_clean_sbu_1, # of connection points: 4
#     Node 45, Type 0, BuildingBlock: QUQFOY_clean_sbu_1, # of connection points: 4
#     Node 46, Type 0, BuildingBlock: QUQFOY_clean_sbu_1, # of connection points: 4
#     Node 47, Type 0, BuildingBlock: QUQFOY_clean_sbu_1, # of connection points: 4
#     Edge 48, Type (0, 0), BuildingBlock: OJICUG_clean_linker_0, # of connection points: 2
#     Edge 49, Type (0, 0), BuildingBlock: OJICUG_clean_linker_0, # of connection points: 2
#     Edge 50, Type (0, 0), BuildingBlock: OJICUG_clean_linker_0, # of connection points: 2
#     Edge 51, Type (0, 0), BuildingBlock: OJICUG_clean_linker_0, # of connection points: 2
#     Edge 52, Type (0, 0), BuildingBlock: OJICUG_clean_linker_0, # of connection points: 2
#     Edge 53, Type (0, 0), BuildingBlock: OJICUG_clean_linker_0, # of connection points: 2
#     Edge 54, Type (0, 0), BuildingBlock: OJICUG_clean_linker_0, # of connection points: 2
#     Edge 55, Type (0, 0), BuildingBlock: OJICUG_clean_linker_0, # of connection points: 2
#     Edge 56, Type (0, 0), BuildingBlock: OJICUG_clean_linker_0, # of connection points: 2
#     Edge 57, Type (0, 0), BuildingBlock: OJICUG_clean_linker_0, # of connection points: 2
#     Edge 58, Type (0, 0), BuildingBlock: OJICUG_clean_linker_0, # of connection points: 2
#     Edge 59, Type (0, 0), BuildingBlock: OJICUG_clean_linker_0, # of connection points: 2
#     Edge 60, Type (0, 0), BuildingBlock: OJICUG_clean_linker_0, # of connection points: 2
#     Edge 61, Type (0, 0), BuildingBlock: OJICUG_clean_linker_0, # of connection points: 2
#     Edge 62, Type (0, 0), BuildingBlock: OJICUG_clean_linker_0, # of connection points: 2
#     Edge 63, Type (0, 0), BuildingBlock: OJICUG_clean_linker_0, # of connection points: 2
#     Edge 64, Type (0, 0), BuildingBlock: OJICUG_clean_linker_0, # of connection points: 2
#     Edge 65, Type (0, 0), BuildingBlock: OJICUG_clean_linker_0, # of connection points: 2
#     Edge 66, Type (0, 0), BuildingBlock: OJICUG_clean_linker_0, # of connection points: 2
#     Edge 67, Type (0, 0), BuildingBlock: OJICUG_clean_linker_0, # of connection points: 2
#     Edge 68, Type (0, 0), BuildingBlock: OJICUG_clean_linker_0, # of connection points: 2
#     Edge 69, Type (0, 0), BuildingBlock: OJICUG_clean_linker_0, # of connection points: 2
#     Edge 70, Type (0, 0), BuildingBlock: OJICUG_clean_linker_0, # of connection points: 2
#     Edge 71, Type (0, 0), BuildingBlock: OJICUG_clean_linker_0, # of connection points: 2
#     Edge 72, Type (0, 0), BuildingBlock: OJICUG_clean_linker_0, # of connection points: 2
#     Edge 73, Type (0, 0), BuildingBlock: OJICUG_clean_linker_0, # of connection points: 2
#     Edge 74, Type (0, 0), BuildingBlock: OJICUG_clean_linker_0, # of connection points: 2
#     Edge 75, Type (0, 0), BuildingBlock: OJICUG_clean_linker_0, # of connection points: 2
#     Edge 76, Type (0, 0), BuildingBlock: OJICUG_clean_linker_0, # of connection points: 2
#     Edge 77, Type (0, 0), BuildingBlock: OJICUG_clean_linker_0, # of connection points: 2
#     Edge 78, Type (0, 0), BuildingBlock: OJICUG_clean_linker_0, # of connection points: 2
#     Edge 79, Type (0, 0), BuildingBlock: OJICUG_clean_linker_0, # of connection points: 2
#     Edge 80, Type (0, 0), BuildingBlock: OJICUG_clean_linker_0, # of connection points: 2
#     Edge 81, Type (0, 0), BuildingBlock: OJICUG_clean_linker_0, # of connection points: 2
#     Edge 82, Type (0, 0), BuildingBlock: OJICUG_clean_linker_0, # of connection points: 2
#     Edge 83, Type (0, 0), BuildingBlock: OJICUG_clean_linker_0, # of connection points: 2
#     Edge 84, Type (0, 0), BuildingBlock: OJICUG_clean_linker_0, # of connection points: 2
#     Edge 85, Type (0, 0), BuildingBlock: OJICUG_clean_linker_0, # of connection points: 2
#     Edge 86, Type (0, 0), BuildingBlock: OJICUG_clean_linker_0, # of connection points: 2
#     Edge 87, Type (0, 0), BuildingBlock: OJICUG_clean_linker_0, # of connection points: 2
#     Edge 88, Type (0, 0), BuildingBlock: OJICUG_clean_linker_0, # of connection points: 2
#     Edge 89, Type (0, 0), BuildingBlock: OJICUG_clean_linker_0, # of connection points: 2
#     Edge 90, Type (0, 0), BuildingBlock: OJICUG_clean_linker_0, # of connection points: 2
#     Edge 91, Type (0, 0), BuildingBlock: OJICUG_clean_linker_0, # of connection points: 2
#     Edge 92, Type (0, 0), BuildingBlock: OJICUG_clean_linker_0, # of connection points: 2
#     Edge 93, Type (0, 0), BuildingBlock: OJICUG_clean_linker_0, # of connection points: 2
#     Edge 94, Type (0, 0), BuildingBlock: OJICUG_clean_linker_0, # of connection points: 2
#     Edge 95, Type (0, 0), BuildingBlock: OJICUG_clean_linker_0, # of connection points: 2
#     Edge 96, Type (0, 0), BuildingBlock: OJICUG_clean_linker_0, # of connection points: 2
#     Edge 97, Type (0, 0), BuildingBlock: OJICUG_clean_linker_0, # of connection points: 2
#     Edge 98, Type (0, 0), BuildingBlock: OJICUG_clean_linker_0, # of connection points: 2
#     Edge 99, Type (0, 0), BuildingBlock: OJICUG_clean_linker_0, # of connection points: 2
#     Edge 100, Type (0, 0), BuildingBlock: OJICUG_clean_linker_0, # of connection points: 2
#     Edge 101, Type (0, 0), BuildingBlock: OJICUG_clean_linker_0, # of connection points: 2
#     Edge 102, Type (0, 0), BuildingBlock: OJICUG_clean_linker_0, # of connection points: 2
#     Edge 103, Type (0, 0), BuildingBlock: OJICUG_clean_linker_0, # of connection points: 2
#     Edge 104, Type (0, 0), BuildingBlock: OJICUG_clean_linker_0, # of connection points: 2
#     Edge 105, Type (0, 0), BuildingBlock: OJICUG_clean_linker_0, # of connection points: 2
#     Edge 106, Type (0, 0), BuildingBlock: OJICUG_clean_linker_0, # of connection points: 2
#     Edge 107, Type (0, 0), BuildingBlock: OJICUG_clean_linker_0, # of connection points: 2
#     Edge 108, Type (0, 0), BuildingBlock: OJICUG_clean_linker_0, # of connection points: 2
#     Edge 109, Type (0, 0), BuildingBlock: OJICUG_clean_linker_0, # of connection points: 2
#     Edge 110, Type (0, 0), BuildingBlock: OJICUG_clean_linker_0, # of connection points: 2
#     Edge 111, Type (0, 0), BuildingBlock: OJICUG_clean_linker_0, # of connection points: 2
#     Edge 112, Type (0, 0), BuildingBlock: OJICUG_clean_linker_0, # of connection points: 2
#     Edge 113, Type (0, 0), BuildingBlock: OJICUG_clean_linker_0, # of connection points: 2
#     Edge 114, Type (0, 0), BuildingBlock: OJICUG_clean_linker_0, # of connection points: 2
#     Edge 115, Type (0, 0), BuildingBlock: OJICUG_clean_linker_0, # of connection points: 2
#     Edge 116, Type (0, 0), BuildingBlock: OJICUG_clean_linker_0, # of connection points: 2
#     Edge 117, Type (0, 0), BuildingBlock: OJICUG_clean_linker_0, # of connection points: 2
#     Edge 118, Type (0, 0), BuildingBlock: OJICUG_clean_linker_0, # of connection points: 2
#     Edge 119, Type (0, 0), BuildingBlock: OJICUG_clean_linker_0, # of connection points: 2
#     Edge 120, Type (0, 0), BuildingBlock: OJICUG_clean_linker_0, # of connection points: 2
#     Edge 121, Type (0, 0), BuildingBlock: OJICUG_clean_linker_0, # of connection points: 2
#     Edge 122, Type (0, 0), BuildingBlock: OJICUG_clean_linker_0, # of connection points: 2
#     Edge 123, Type (0, 0), BuildingBlock: OJICUG_clean_linker_0, # of connection points: 2
#     Edge 124, Type (0, 0), BuildingBlock: OJICUG_clean_linker_0, # of connection points: 2
#     Edge 125, Type (0, 0), BuildingBlock: OJICUG_clean_linker_0, # of connection points: 2
#     Edge 126, Type (0, 0), BuildingBlock: OJICUG_clean_linker_0, # of connection points: 2
#     Edge 127, Type (0, 0), BuildingBlock: OJICUG_clean_linker_0, # of connection points: 2
#     Edge 128, Type (0, 0), BuildingBlock: OJICUG_clean_linker_0, # of connection points: 2
#     Edge 129, Type (0, 0), BuildingBlock: OJICUG_clean_linker_0, # of connection points: 2
#     Edge 130, Type (0, 0), BuildingBlock: OJICUG_clean_linker_0, # of connection points: 2
#     Edge 131, Type (0, 0), BuildingBlock: OJICUG_clean_linker_0, # of connection points: 2
#     Edge 132, Type (0, 0), BuildingBlock: OJICUG_clean_linker_0, # of connection points: 2
#     Edge 133, Type (0, 0), BuildingBlock: OJICUG_clean_linker_0, # of connection points: 2
#     Edge 134, Type (0, 0), BuildingBlock: OJICUG_clean_linker_0, # of connection points: 2
#     Edge 135, Type (0, 0), BuildingBlock: OJICUG_clean_linker_0, # of connection points: 2
#     Edge 136, Type (0, 0), BuildingBlock: OJICUG_clean_linker_0, # of connection points: 2
#     Edge 137, Type (0, 0), BuildingBlock: OJICUG_clean_linker_0, # of connection points: 2
#     Edge 138, Type (0, 0), BuildingBlock: OJICUG_clean_linker_0, # of connection points: 2
#     Edge 139, Type (0, 0), BuildingBlock: OJICUG_clean_linker_0, # of connection points: 2
#     Edge 140, Type (0, 0), BuildingBlock: OJICUG_clean_linker_0, # of connection points: 2
#     Edge 141, Type (0, 0), BuildingBlock: OJICUG_clean_linker_0, # of connection points: 2
#     Edge 142, Type (0, 0), BuildingBlock: OJICUG_clean_linker_0, # of connection points: 2
#     Edge 143, Type (0, 0), BuildingBlock: OJICUG_clean_linker_0, # of connection points: 2
# Relax obj value: 0.223
# Max RMSD: 0.289
# Mean RMSD: 0.263
data_MOF--net-ulj--node1-QUQFOY_clean_sbu_1--edge1-OJICUG_clean_linker_0
_symmetry_space_group_name_H-M    P1
_symmetry_Int_Tables_number       1
_symmetry_cell_setting            triclinic
loop_
_symmetry_equiv_pos_as_xyz
'x, y, z'
_cell_length_a     44.317337
_cell_length_b     47.626613
_cell_length_c     49.8453
_cell_angle_alpha  90.002743
_cell_angle_beta   90.036576
_cell_angle_gamma 90.016991
loop_
_atom_site_label
_atom_site_type_symbol
_atom_site_fract_x
_atom_site_fract_y
_atom_site_fract_z
_atom_type_partial_charge
O0 O 0.095 0.16498 0.34759 0.0
Cd1 Cd 0.13277 0.18781 0.3373 0.0
Cd2 Cd 0.10678 0.18215 0.28817 0.0
O3 O 0.06946 0.16938 0.30977 0.0
O4 O 0.14565 0.20848 0.37071 0.0
O5 O 0.12748 0.22934 0.3345 0.0
C6 C 0.13697 0.23123 0.3589 0.0
C7 C 0.10967 0.21993 0.25846 0.0
C8 C 0.07095 0.16135 0.33409 0.0
C9 C 0.16523 0.15267 0.29665 0.0
O10 O 0.14086 0.15342 0.28323 0.0
O11 O 0.16804 0.16726 0.31797 0.0
O12 O 0.09645 0.19684 0.25154 0.0
O13 O 0.11906 0.22213 0.28287 0.0
O14 O 0.39133 0.63886 0.89784 0.0
Cd15 Cd 0.42113 0.60682 0.90578 0.0
Cd16 Cd 0.41498 0.62557 0.95585 0.0
O17 O 0.39959 0.66125 0.93581 0.0
O18 O 0.44612 0.6024 0.87277 0.0
O19 O 0.46342 0.6195 0.91121 0.0
C20 C 0.46781 0.61392 0.88616 0.0
C21 C 0.45184 0.62644 0.98971 0.0
C22 C 0.3889 0.66089 0.91208 0.0
C23 C 0.39091 0.5681 0.94296 0.0
O24 O 0.38829 0.58989 0.95755 0.0
O25 O 0.40641 0.56906 0.92153 0.0
O26 O 0.42455 0.63466 0.99421 0.0
O27 O 0.45873 0.61945 0.96546 0.0
O28 O 0.90147 0.33359 0.35223 0.0
Cd29 Cd 0.86308 0.31141 0.34255 0.0
Cd30 Cd 0.88849 0.31545 0.29293 0.0
O31 O 0.92624 0.32828 0.31412 0.0
O32 O 0.85057 0.29006 0.37573 0.0
O33 O 0.86782 0.26999 0.33879 0.0
C34 C 0.85876 0.26754 0.36324 0.0
C35 C 0.8854 0.27755 0.26318 0.0
C36 C 0.92531 0.33671 0.33835 0.0
C37 C 0.83086 0.34662 0.30184 0.0
O38 O 0.85477 0.34461 0.28791 0.0
O39 O 0.82808 0.33272 0.32358 0.0
O40 O 0.89873 0.30058 0.2563 0.0
O41 O 0.87583 0.27549 0.28752 0.0
O42 O 0.608 0.85825 0.89916 0.0
Cd43 Cd 0.57846 0.89044 0.90737 0.0
Cd44 Cd 0.58439 0.87072 0.95716 0.0
O45 O 0.59907 0.83512 0.9366 0.0
O46 O 0.5533 0.8953 0.87436 0.0
O47 O 0.53615 0.8777 0.91259 0.0
C48 C 0.53167 0.88352 0.88761 0.0
C49 C 0.54706 0.87056 0.99055 0.0
C50 C 0.60996 0.83588 0.91295 0.0
C51 C 0.60949 0.92794 0.94539 0.0
O52 O 0.61194 0.90572 0.95939 0.0
O53 O 0.59368 0.92775 0.92407 0.0
O54 O 0.57401 0.86156 0.99536 0.0
O55 O 0.54074 0.87784 0.96626 0.0
O56 O 0.09294 0.83509 0.14984 0.0
Cd57 Cd 0.13098 0.81231 0.15954 0.0
Cd58 Cd 0.10552 0.81745 0.2092 0.0
O59 O 0.068 0.83048 0.18796 0.0
O60 O 0.14338 0.79101 0.12627 0.0
O61 O 0.12558 0.7709 0.16297 0.0
C62 C 0.13486 0.7685 0.13858 0.0
C63 C 0.10882 0.77929 0.23848 0.0
C64 C 0.06913 0.83868 0.16367 0.0
C65 C 0.16384 0.84711 0.20034 0.0
O66 O 0.13968 0.84611 0.21401 0.0
O67 O 0.1664 0.8328 0.17882 0.0
O68 O 0.09564 0.80225 0.24579 0.0
O69 O 0.11794 0.77746 0.21399 0.0
O70 O 0.10461 0.6413 0.10224 0.0
Cd71 Cd 0.07483 0.60901 0.095 0.0
Cd72 Cd 0.08054 0.62707 0.0447 0.0
O73 O 0.096 0.66311 0.06404 0.0
O74 O 0.05029 0.60491 0.12832 0.0
O75 O 0.03238 0.62134 0.08984 0.0
C76 C 0.02833 0.61607 0.115 0.0
C77 C 0.04353 0.62742 0.011 0.0
C78 C 0.10691 0.66311 0.08769 0.0
C79 C 0.10495 0.5699 0.05817 0.0
O80 O 0.10736 0.5915 0.0433 0.0
O81 O 0.08958 0.57109 0.07967 0.0
O82 O 0.07078 0.63562 0.0063 0.0
O83 O 0.03675 0.62073 0.03535 0.0
O84 O 0.89937 0.66616 0.15369 0.0
Cd85 Cd 0.86173 0.68916 0.16398 0.0
Cd86 Cd 0.88765 0.68344 0.21307 0.0
O87 O 0.92496 0.67062 0.19149 0.0
O88 O 0.84904 0.70992 0.13057 0.0
O89 O 0.86729 0.73067 0.1668 0.0
C90 C 0.85787 0.73262 0.14239 0.0
C91 C 0.88485 0.72108 0.24295 0.0
C92 C 0.92342 0.66253 0.16719 0.0
C93 C 0.82912 0.65407 0.20456 0.0
O94 O 0.85352 0.65472 0.21795 0.0
O95 O 0.82634 0.66874 0.18329 0.0
O96 O 0.89802 0.69795 0.24975 0.0
O97 O 0.87546 0.72342 0.21854 0.0
O98 O 0.88705 0.85892 0.10201 0.0
Cd99 Cd 0.91614 0.8914 0.09367 0.0
Cd100 Cd 0.91041 0.87145 0.04387 0.0
O101 O 0.89609 0.83578 0.06458 0.0
O102 O 0.94155 0.89665 0.12648 0.0
O103 O 0.95851 0.87916 0.08813 0.0
C104 C 0.96319 0.88514 0.11304 0.0
C105 C 0.94789 0.8717 0.01058 0.0
C106 C 0.88525 0.8365 0.08826 0.0
C107 C 0.88463 0.92842 0.05562 0.0
O108 O 0.88249 0.90618 0.0416 0.0
O109 O 0.90041 0.92843 0.07695 0.0
O110 O 0.92109 0.86236 0.00569 0.0
O111 O 0.95399 0.8791 0.03489 0.0
O112 O 0.34575 0.07035 0.23939 0.0
Cd113 Cd 0.3097 0.06997 0.21289 0.0
Cd114 Cd 0.322 0.12168 0.21311 0.0
O115 O 0.36415 0.11108 0.22627 0.0
O116 O 0.30752 0.032 0.19594 0.0
O117 O 0.32222 0.07028 0.17428 0.0
C118 C 0.3185 0.04336 0.17452 0.0
C119 C 0.30965 0.15305 0.17926 0.0
C120 C 0.36663 0.08872 0.23996 0.0
C121 C 0.26796 0.10539 0.24296 0.0
O122 O 0.29037 0.1219 0.24281 0.0
O123 O 0.26816 0.08369 0.22799 0.0
O124 O 0.32305 0.1612 0.20089 0.0
O125 O 0.30572 0.12644 0.17572 0.0
O126 O 0.352 0.37863 0.06397 0.0
Cd127 Cd 0.39004 0.38279 0.0404 0.0
Cd128 Cd 0.36211 0.43028 0.0294 0.0
O129 O 0.32444 0.4071 0.03926 0.0
O130 O 0.40201 0.34433 0.02885 0.0
O131 O 0.38501 0.37723 0.00107 0.0
C132 C 0.39358 0.35158 0.00501 0.0
C133 C 0.35994 0.46569 0.99687 0.0
C134 C 0.32642 0.38854 0.05745 0.0
C135 C 0.41724 0.43023 0.06526 0.0
O136 O 0.39163 0.44088 0.05991 0.0
O137 O 0.42464 0.40664 0.05542 0.0
O138 O 0.34597 0.46785 0.01941 0.0
O139 O 0.37371 0.44236 0.99189 0.0
O140 O 0.65092 0.43031 0.24386 0.0
Cd141 Cd 0.68754 0.43121 0.21799 0.0
Cd142 Cd 0.67625 0.3796 0.21858 0.0
O143 O 0.6333 0.38963 0.22983 0.0
O144 O 0.6894 0.46914 0.20089 0.0
O145 O 0.67545 0.43059 0.17925 0.0
C146 C 0.67876 0.45756 0.17941 0.0
C147 C 0.69137 0.34848 0.18551 0.0
C148 C 0.63014 0.41183 0.24364 0.0
C149 C 0.72893 0.3965 0.24924 0.0
O150 O 0.70629 0.38027 0.24951 0.0
O151 O 0.72908 0.41761 0.23351 0.0
O152 O 0.67686 0.34007 0.20647 0.0
O153 O 0.69484 0.37516 0.18205 0.0
O154 O 0.64666 0.12358 0.05325 0.0
Cd155 Cd 0.60892 0.1117 0.03184 0.0
Cd156 Cd 0.64102 0.06366 0.03395 0.0
O157 O 0.67716 0.08791 0.04545 0.0
O158 O 0.59228 0.14866 0.0202 0.0
O159 O 0.61097 0.11713 0.99207 0.0
C160 C 0.60048 0.1421 0.99617 0.0
C161 C 0.64303 0.02866 0.00124 0.0
C162 C 0.67263 0.11234 0.05478 0.0
C163 C 0.58277 0.06669 0.06443 0.0
O164 O 0.60894 0.05598 0.06269 0.0
O165 O 0.57586 0.0882 0.05062 0.0
O166 O 0.65613 0.0257 0.02418 0.0
O167 O 0.63048 0.05256 0.99606 0.0
O168 O 0.34489 0.92834 0.25875 0.0
Cd169 Cd 0.30856 0.92875 0.2849 0.0
Cd170 Cd 0.32036 0.87692 0.28455 0.0
O171 O 0.36275 0.88737 0.27174 0.0
O172 O 0.30637 0.96674 0.30181 0.0
O173 O 0.32066 0.92843 0.32365 0.0
C174 C 0.31706 0.95536 0.32336 0.0
C175 C 0.30734 0.84559 0.31828 0.0
C176 C 0.3656 0.90983 0.25824 0.0
C177 C 0.26679 0.89369 0.25432 0.0
O178 O 0.28903 0.877 0.25456 0.0
O179 O 0.26707 0.91531 0.26938 0.0
O180 O 0.32099 0.83738 0.29681 0.0
O181 O 0.3035 0.87222 0.32177 0.0
O182 O 0.14436 0.37976 0.93846 0.0
Cd183 Cd 0.10628 0.3837 0.96203 0.0
Cd184 Cd 0.13399 0.4314 0.9729 0.0
O185 O 0.17178 0.40836 0.96316 0.0
O186 O 0.0944 0.3451 0.97323 0.0
O187 O 0.11119 0.37779 0.00134 0.0
C188 C 0.10273 0.35214 0.99716 0.0
C189 C 0.13612 0.46707 0.00517 0.0
C190 C 0.16988 0.38979 0.94498 0.0
C191 C 0.07886 0.43094 0.93703 0.0
O192 O 0.10443 0.44172 0.94234 0.0
O193 O 0.07157 0.40736 0.94695 0.0
O194 O 0.15004 0.46909 0.9826 0.0
O195 O 0.12242 0.44375 0.01035 0.0
O196 O 0.64855 0.57169 0.26174 0.0
Cd197 Cd 0.68463 0.57113 0.2882 0.0
Cd198 Cd 0.6724 0.62286 0.28821 0.0
O199 O 0.63024 0.6124 0.27498 0.0
O200 O 0.68676 0.53302 0.30491 0.0
O201 O 0.67214 0.57117 0.32682 0.0
C202 C 0.67581 0.54424 0.32641 0.0
C203 C 0.68485 0.65396 0.32225 0.0
C204 C 0.62772 0.59009 0.26123 0.0
C205 C 0.72639 0.60669 0.25824 0.0
O206 O 0.70402 0.62323 0.2585 0.0
O207 O 0.72618 0.58491 0.2731 0.0
O208 O 0.67145 0.66229 0.30069 0.0
O209 O 0.68872 0.62732 0.32562 0.0
O210 O 0.84634 0.12383 0.94844 0.0
Cd211 Cd 0.88429 0.11189 0.96948 0.0
Cd212 Cd 0.85239 0.06373 0.96695 0.0
O213 O 0.81612 0.08781 0.9557 0.0
O214 O 0.90099 0.14882 0.98109 0.0
O215 O 0.88268 0.11714 0.00927 0.0
C216 C 0.89308 0.14215 0.00516 0.0
C217 C 0.85052 0.02876 0.99963 0.0
C218 C 0.82047 0.11243 0.94677 0.0
C219 C 0.91055 0.06728 0.93643 0.0
O220 O 0.88447 0.05635 0.93816 0.0
O221 O 0.91731 0.08875 0.95035 0.0
O222 O 0.83747 0.02571 0.97667 0.0
O223 O 0.86298 0.05271 0.00481 0.0
O224 O 0.22726 0.30364 0.08946 0.0
Cd225 Cd 0.19787 0.27137 0.09721 0.0
Cd226 Cd 0.20437 0.2914 0.14479 0.0
O227 O 0.21862 0.32785 0.12644 0.0
O228 O 0.17587 0.2654 0.06283 0.0
O229 O 0.15533 0.28479 0.09891 0.0
C230 C 0.15376 0.27901 0.07362 0.0
C231 C 0.16657 0.28452 0.17656 0.0
C232 C 0.23017 0.32598 0.10314 0.0
C233 C 0.23618 0.23804 0.1318 0.0
O234 O 0.23653 0.26064 0.14531 0.0
O235 O 0.21732 0.23503 0.11271 0.0
O236 O 0.19151 0.29693 0.1829 0.0
O237 O 0.16216 0.27836 0.15163 0.0
O238 O 0.22499 0.69466 0.40727 0.0
Cd239 Cd 0.195 0.72608 0.39856 0.0
Cd240 Cd 0.20367 0.70611 0.35122 0.0
O241 O 0.21766 0.66994 0.37034 0.0
O242 O 0.17092 0.73122 0.43202 0.0
O243 O 0.15324 0.71092 0.3952 0.0
C244 C 0.15008 0.71662 0.42036 0.0
C245 C 0.16609 0.71337 0.31926 0.0
C246 C 0.22857 0.67221 0.39388 0.0
C247 C 0.23396 0.75992 0.36481 0.0
O248 O 0.23543 0.73717 0.3516 0.0
O249 O 0.21415 0.76276 0.38316 0.0
O250 O 0.19098 0.70086 0.31292 0.0
O251 O 0.16165 0.71936 0.3442 0.0
O252 O 0.92441 0.58983 0.85512 0.0
Cd253 Cd 0.9195 0.56861 0.89103 0.0
Cd254 Cd 0.97225 0.54963 0.87766 0.0
O255 O 0.95367 0.55608 0.84032 0.0
O256 O 0.87595 0.55757 0.89356 0.0
O257 O 0.91313 0.52755 0.88558 0.0
C258 C 0.88452 0.53252 0.88703 0.0
C259 C -0.00082 0.50887 0.88632 0.0
C260 C 0.93626 0.57663 0.83565 0.0
C261 C 0.96908 0.59011 0.92323 0.0
O262 O 0.98405 0.5825 0.90273 0.0
O263 O 0.94139 0.58327 0.92523 0.0
O264 O 0.01048 0.52888 0.87208 0.0
O265 O 0.97176 0.51148 0.89468 0.0
O266 O 0.76776 0.80389 0.41267 0.0
Cd267 Cd 0.79708 0.77165 0.40471 0.0
Cd268 Cd 0.79051 0.79193 0.35723 0.0
O269 O 0.77633 0.82828 0.37578 0.0
O270 O 0.8192 0.76548 0.439 0.0
O271 O 0.83965 0.78504 0.40295 0.0
C272 C 0.8413 0.77912 0.4282 0.0
C273 C 0.8282 0.78521 0.32531 0.0
C274 C 0.76482 0.82629 0.39909 0.0
C275 C 0.75864 0.73852 0.37005 0.0
O276 O 0.75832 0.76118 0.35663 0.0
O277 O 0.77753 0.7354 0.38909 0.0
O278 O 0.80323 0.79765 0.3191 0.0
O279 O 0.83269 0.77892 0.35019 0.0
O280 O 0.56945 0.40995 0.3568 0.0
Cd281 Cd 0.5735 0.43088 0.39292 0.0
Cd282 Cd 0.52094 0.45011 0.37868 0.0
O283 O 0.54065 0.44393 0.34174 0.0
O284 O 0.61694 0.44213 0.39633 0.0
O285 O 0.57975 0.47197 0.38781 0.0
C286 C 0.60834 0.46716 0.38978 0.0
C287 C 0.4943 0.49109 0.38707 0.0
C288 C 0.55821 0.42346 0.33722 0.0
C289 C 0.52304 0.4095 0.4242 0.0
O290 O 0.50846 0.41723 0.40349 0.0
O291 O 0.55075 0.41616 0.42659 0.0
O292 O 0.48308 0.47129 0.3725 0.0
O293 O 0.52148 0.48812 0.39597 0.0
O294 O 0.26825 0.70745 0.58973 0.0
Cd295 Cd 0.30194 0.73515 0.59853 0.0
Cd296 Cd 0.29581 0.71004 0.64282 0.0
O297 O 0.28143 0.67604 0.61993 0.0
O298 O 0.32473 0.74096 0.56444 0.0
O299 O 0.34209 0.71657 0.59908 0.0
C300 C 0.34466 0.72395 0.57426 0.0
C301 C 0.33343 0.71485 0.6752 0.0
C302 C 0.26615 0.68279 0.59924 0.0
C303 C 0.26637 0.76578 0.63571 0.0
O304 O 0.26415 0.74132 0.64572 0.0
O305 O 0.28649 0.77076 0.61809 0.0
O306 O 0.30881 0.70134 0.68049 0.0
O307 O 0.33779 0.72293 0.65079 0.0
O308 O 0.92649 0.40994 0.64493 0.0
Cd309 Cd 0.92271 0.43091 0.60882 0.0
Cd310 Cd 0.97528 0.44983 0.62316 0.0
O311 O 0.95541 0.44379 0.66011 0.0
O312 O 0.87935 0.4423 0.60524 0.0
O313 O 0.91663 0.47204 0.61382 0.0
C314 C 0.88802 0.46733 0.61176 0.0
C315 C 0.00222 0.49067 0.61458 0.0
C316 C 0.93778 0.42333 0.66455 0.0
C317 C 0.97303 0.40895 0.57782 0.0
O318 O 0.98762 0.41672 0.59851 0.0
O319 O 0.94541 0.41584 0.57529 0.0
O320 O 0.01321 0.47097 0.62942 0.0
O321 O 0.97511 0.48769 0.60553 0.0
O322 O 0.07091 0.09018 0.64594 0.0
Cd323 Cd 0.07575 0.06877 0.61014 0.0
Cd324 Cd 0.02309 0.04973 0.62376 0.0
O325 O 0.04188 0.05637 0.661 0.0
O326 O 0.11931 0.05777 0.60758 0.0
O327 O 0.08218 0.02775 0.61581 0.0
C328 C 0.11078 0.03275 0.61429 0.0
C329 C 0.99621 0.00888 0.61532 0.0
C330 C 0.05924 0.07701 0.66551 0.0
C331 C 0.026 0.08999 0.578 0.0
O332 O 0.01114 0.08248 0.5986 0.0
O333 O 0.05368 0.08317 0.57593 0.0
O334 O 0.98493 0.02891 0.62954 0.0
O335 O 0.02359 0.01152 0.60686 0.0
O336 O 0.59649 0.66516 0.84795 0.0
Cd337 Cd 0.634 0.68838 0.83765 0.0
Cd338 Cd 0.60801 0.68261 0.78853 0.0
O339 O 0.57092 0.66934 0.81011 0.0
O340 O 0.64666 0.7093 0.87101 0.0
O341 O 0.62822 0.72985 0.83475 0.0
C342 C 0.63771 0.73192 0.85914 0.0
C343 C 0.61024 0.72037 0.75877 0.0
C344 C 0.57251 0.66128 0.83441 0.0
C345 C 0.66679 0.65363 0.79688 0.0
O346 O 0.64241 0.65425 0.78348 0.0
O347 O 0.66948 0.66816 0.81825 0.0
O348 O 0.59734 0.69711 0.75193 0.0
O349 O 0.61968 0.72273 0.78316 0.0
O350 O 0.88956 0.14038 0.39924 0.0
Cd351 Cd 0.91941 0.10814 0.40639 0.0
Cd352 Cd 0.91397 0.12625 0.45674 0.0
O353 O 0.89825 0.1622 0.43743 0.0
O354 O 0.9439 0.10405 0.37303 0.0
O355 O 0.96185 0.12053 0.41149 0.0
C356 C 0.96588 0.11523 0.38633 0.0
C357 C 0.95111 0.12678 0.49034 0.0
C358 C 0.88723 0.16216 0.41382 0.0
C359 C 0.88958 0.06901 0.4434 0.0
O360 O 0.88726 0.09061 0.45829 0.0
O361 O 0.90477 0.07021 0.42181 0.0
O362 O 0.92384 0.13489 0.4951 0.0
O363 O 0.95782 0.12007 0.46597 0.0
O364 O 0.4029 0.83221 0.84954 0.0
Cd365 Cd 0.36499 0.8096 0.83924 0.0
Cd366 Cd 0.39046 0.8153 0.78999 0.0
O367 O 0.42797 0.82828 0.81144 0.0
O368 O 0.35248 0.78823 0.87234 0.0
O369 O 0.37009 0.76812 0.83555 0.0
C370 C 0.36093 0.76572 0.86 0.0
C371 C 0.38792 0.77801 0.75952 0.0
C372 C 0.42675 0.8361 0.83585 0.0
C373 C 0.33224 0.84531 0.79928 0.0
O374 O 0.35625 0.84406 0.78542 0.0
O375 O 0.32965 0.83081 0.82068 0.0
O376 O 0.4009 0.80137 0.7531 0.0
O377 O 0.37849 0.77525 0.78385 0.0
O378 O 0.10805 0.35753 0.39921 0.0
Cd379 Cd 0.07878 0.38985 0.40763 0.0
Cd380 Cd 0.0851 0.37014 0.45744 0.0
O381 O 0.09946 0.33448 0.43677 0.0
O382 O 0.05317 0.39479 0.37489 0.0
O383 O 0.03649 0.37737 0.41337 0.0
C384 C 0.03166 0.3832 0.38844 0.0
C385 C 0.04796 0.37016 0.49101 0.0
C386 C 0.11009 0.33518 0.41303 0.0
C387 C 0.11038 0.42724 0.44534 0.0
O388 O 0.1128 0.40507 0.45941 0.0
O389 O 0.09441 0.42707 0.42412 0.0
O390 O 0.07489 0.36106 0.49571 0.0
O391 O 0.04156 0.37746 0.46674 0.0
O392 O 0.59476 0.33376 0.64876 0.0
Cd393 Cd 0.63301 0.31127 0.65821 0.0
Cd394 Cd 0.60769 0.31475 0.70786 0.0
O395 O 0.57012 0.32816 0.68691 0.0
O396 O 0.64523 0.28983 0.62503 0.0
O397 O 0.62788 0.26992 0.66203 0.0
C398 C 0.63687 0.26738 0.63755 0.0
C399 C 0.60983 0.27685 0.73765 0.0
C400 C 0.57102 0.33688 0.66278 0.0
C401 C 0.66549 0.34584 0.69919 0.0
O402 O 0.64166 0.34359 0.71319 0.0
O403 O 0.66816 0.33229 0.67724 0.0
O404 O 0.59693 0.30012 0.74442 0.0
O405 O 0.61956 0.27459 0.71338 0.0
O406 O 0.60448 0.14054 0.60159 0.0
Cd407 Cd 0.57419 0.10866 0.59429 0.0
Cd408 Cd 0.58058 0.12647 0.54403 0.0
O409 O 0.59652 0.16235 0.56327 0.0
O410 O 0.54951 0.10495 0.62759 0.0
O411 O 0.53192 0.12159 0.58908 0.0
C412 C 0.52775 0.11641 0.61424 0.0
C413 C 0.54363 0.12707 0.51031 0.0
C414 C 0.60729 0.16226 0.58697 0.0
C415 C 0.60406 0.06907 0.55773 0.0
O416 O 0.60694 0.09062 0.54286 0.0
O417 O 0.58848 0.07048 0.5791 0.0
O418 O 0.57099 0.13494 0.50559 0.0
O419 O 0.53674 0.12058 0.53469 0.0
O420 O 0.39943 0.16803 0.65308 0.0
Cd421 Cd 0.36183 0.191 0.66367 0.0
Cd422 Cd 0.388 0.18479 0.71275 0.0
O423 O 0.42505 0.17176 0.69095 0.0
O424 O 0.34893 0.21223 0.63056 0.0
O425 O 0.36743 0.23248 0.66694 0.0
C426 C 0.35781 0.23477 0.64262 0.0
C427 C 0.3857 0.22238 0.74271 0.0
C428 C 0.42344 0.16401 0.66655 0.0
C429 C 0.32923 0.15577 0.70429 0.0
O430 O 0.35363 0.15634 0.71767 0.0
O431 O 0.32648 0.17046 0.68302 0.0
O432 O 0.39868 0.19912 0.74943 0.0
O433 O 0.37624 0.22484 0.71835 0.0
O434 O 0.38783 0.36141 0.60391 0.0
Cd435 Cd 0.4178 0.39324 0.59568 0.0
Cd436 Cd 0.4108 0.37442 0.54556 0.0
O437 O 0.39552 0.33887 0.56593 0.0
O438 O 0.44388 0.3972 0.62819 0.0
O439 O 0.45967 0.37999 0.58931 0.0
C440 C 0.46495 0.38542 0.61425 0.0
C441 C 0.44761 0.37341 0.5117 0.0
C442 C 0.38514 0.33934 0.58977 0.0
C443 C 0.38745 0.43211 0.55859 0.0
O444 O 0.38442 0.41029 0.5441 0.0
O445 O 0.40323 0.43108 0.5799 0.0
O446 O 0.42028 0.36529 0.50715 0.0
O447 O 0.45452 0.38039 0.53595 0.0
O448 O 0.84753 0.57203 0.73929 0.0
Cd449 Cd 0.8115 0.57161 0.71279 0.0
Cd450 Cd 0.82369 0.62333 0.71322 0.0
O451 O 0.86589 0.61282 0.7263 0.0
O452 O 0.80934 0.53351 0.69608 0.0
O453 O 0.82407 0.57163 0.67417 0.0
C454 C 0.82038 0.54471 0.6746 0.0
C455 C 0.81095 0.6545 0.67934 0.0
C456 C 0.86839 0.59041 0.73991 0.0
C457 C 0.76973 0.60689 0.74302 0.0
O458 O 0.79214 0.6234 0.74298 0.0
O459 O 0.76993 0.58529 0.72792 0.0
O460 O 0.82442 0.66281 0.70088 0.0
O461 O 0.80722 0.62785 0.67587 0.0
O462 O 0.85123 0.8791 0.56374 0.0
Cd463 Cd 0.88925 0.88319 0.54012 0.0
Cd464 Cd 0.86139 0.93074 0.52918 0.0
O465 O 0.82371 0.90757 0.539 0.0
O466 O 0.90117 0.84468 0.52871 0.0
O467 O 0.88419 0.87747 0.5008 0.0
C468 C 0.89272 0.85182 0.50484 0.0
C469 C 0.859 0.96628 0.4968 0.0
C470 C 0.82567 0.88903 0.5572 0.0
C471 C 0.91657 0.93057 0.56499 0.0
O472 O 0.89098 0.94127 0.55967 0.0
O473 O 0.92391 0.90698 0.55514 0.0
O474 O 0.84515 0.96832 0.5194 0.0
O475 O 0.87281 0.94301 0.49167 0.0
O476 O 0.15141 0.93022 0.74391 0.0
Cd477 Cd 0.18767 0.93064 0.71763 0.0
Cd478 Cd 0.17582 0.87909 0.71869 0.0
O479 O 0.13315 0.88958 0.73039 0.0
O480 O 0.18973 0.96852 0.70038 0.0
O481 O 0.17494 0.93006 0.67905 0.0
C482 C 0.17859 0.95698 0.67908 0.0
C483 C 0.1905 0.84839 0.68518 0.0
C484 C 0.13043 0.91194 0.74404 0.0
C485 C 0.22924 0.89553 0.74845 0.0
O486 O 0.20639 0.87958 0.7492 0.0
O487 O 0.2293 0.91657 0.73262 0.0
O488 O 0.17624 0.83969 0.70617 0.0
O489 O 0.19383 0.87512 0.68196 0.0
O490 O 0.14778 0.62311 0.55174 0.0
Cd491 Cd 0.11015 0.61049 0.53059 0.0
Cd492 Cd 0.14282 0.56302 0.53331 0.0
O493 O 0.17878 0.58779 0.54416 0.0
O494 O 0.09298 0.64716 0.51877 0.0
O495 O 0.11194 0.61563 0.49077 0.0
C496 C 0.10122 0.64054 0.49477 0.0
C497 C 0.14463 0.52801 0.50066 0.0
C498 C 0.17394 0.61228 0.5532 0.0
C499 C 0.08471 0.56575 0.56392 0.0
O500 O 0.11105 0.55536 0.56235 0.0
O501 O 0.07749 0.58691 0.54975 0.0
O502 O 0.15808 0.52515 0.52347 0.0
O503 O 0.13184 0.55183 0.49558 0.0
O504 O 0.84529 0.4292 0.75801 0.0
Cd505 Cd 0.80858 0.42993 0.78377 0.0
Cd506 Cd 0.81981 0.37834 0.78281 0.0
O507 O 0.86287 0.38841 0.77179 0.0
O508 O 0.80655 0.46789 0.80079 0.0
O509 O 0.82051 0.42943 0.82257 0.0
C510 C 0.81714 0.45639 0.82232 0.0
C511 C 0.80396 0.34741 0.8158 0.0
C512 C 0.86607 0.41074 0.75815 0.0
C513 C 0.76736 0.39545 0.7521 0.0
O514 O 0.79002 0.37928 0.75171 0.0
O515 O 0.76712 0.41636 0.76807 0.0
O516 O 0.81868 0.33883 0.79503 0.0
O517 O 0.80075 0.37414 0.81917 0.0
O518 O 0.64291 0.8786 0.43836 0.0
Cd519 Cd 0.60486 0.8826 0.46195 0.0
Cd520 Cd 0.63264 0.93017 0.47291 0.0
O521 O 0.67038 0.90701 0.46322 0.0
O522 O 0.59302 0.84405 0.47334 0.0
O523 O 0.60991 0.87687 0.50127 0.0
C524 C 0.60145 0.8512 0.49721 0.0
C525 C 0.63479 0.96588 0.50516 0.0
C526 C 0.66846 0.88851 0.44497 0.0
C527 C 0.57758 0.92988 0.43698 0.0
O528 O 0.60319 0.94057 0.44228 0.0
O529 O 0.57019 0.90634 0.44691 0.0
O530 O 0.64881 0.96782 0.48262 0.0
O531 O 0.62098 0.94262 0.51032 0.0
O532 O 0.14858 0.07319 0.76159 0.0
Cd533 Cd 0.1846 0.07305 0.78811 0.0
Cd534 Cd 0.17217 0.12474 0.78749 0.0
O535 O 0.13004 0.11396 0.77442 0.0
O536 O 0.18686 0.03508 0.80512 0.0
O537 O 0.1719 0.07331 0.8267 0.0
C538 C 0.1757 0.0464 0.8265 0.0
C539 C 0.18475 0.1559 0.82142 0.0
C540 C 0.12764 0.09147 0.7609 0.0
C541 C 0.22628 0.10851 0.75784 0.0
O542 O 0.20377 0.12489 0.75779 0.0
O543 O 0.22613 0.08694 0.77299 0.0
O544 O 0.17128 0.1642 0.79988 0.0
O545 O 0.18857 0.12926 0.82485 0.0
O546 O 0.34969 0.62152 0.43714 0.0
Cd547 Cd 0.38742 0.61748 0.46117 0.0
Cd548 Cd 0.35924 0.56991 0.47193 0.0
O549 O 0.32165 0.59281 0.46117 0.0
O550 O 0.39954 0.65604 0.47243 0.0
O551 O 0.38221 0.62352 0.50043 0.0
C552 C 0.39104 0.64907 0.49632 0.0
C553 C 0.35679 0.53459 0.5046 0.0
C554 C 0.32402 0.61139 0.44303 0.0
C555 C 0.41481 0.56988 0.43668 0.0
O556 O 0.38917 0.55922 0.44184 0.0
O557 O 0.42212 0.59351 0.44651 0.0
O558 O 0.34308 0.53232 0.48192 0.0
O559 O 0.37039 0.558 0.50965 0.0
O560 O 0.72672 0.80405 0.58933 0.0
Cd561 Cd 0.69765 0.77159 0.59724 0.0
Cd562 Cd 0.70403 0.7919 0.64475 0.0
O563 O 0.718 0.82833 0.62626 0.0
O564 O 0.67559 0.7653 0.56294 0.0
O565 O 0.65499 0.78466 0.59901 0.0
C566 C 0.65337 0.77876 0.57375 0.0
C567 C 0.66631 0.78502 0.67658 0.0
C568 C 0.72951 0.82645 0.60295 0.0
C569 C 0.73631 0.7387 0.63194 0.0
O570 O 0.73642 0.76134 0.6454 0.0
O571 O 0.7175 0.73547 0.61285 0.0
O572 O 0.6912 0.79758 0.68284 0.0
O573 O 0.66192 0.77868 0.6517 0.0
O574 O 0.72448 0.20548 0.90886 0.0
Cd575 Cd 0.69055 0.23241 0.8989 0.0
Cd576 Cd 0.69939 0.20766 0.85469 0.0
O577 O 0.71336 0.17393 0.87811 0.0
O578 O 0.66534 0.23718 0.93187 0.0
O579 O 0.65127 0.21239 0.89636 0.0
C580 C 0.64677 0.21953 0.921 0.0
C581 C 0.66264 0.21236 0.82156 0.0
C582 C 0.72757 0.18091 0.89934 0.0
C583 C 0.72733 0.26379 0.86293 0.0
O584 O 0.73053 0.2394 0.853 0.0
O585 O 0.70626 0.26836 0.87979 0.0
O586 O 0.6875 0.19907 0.81667 0.0
O587 O 0.65763 0.22028 0.8459 0.0
O588 O 0.42353 0.08917 0.35489 0.0
Cd589 Cd 0.41887 0.06833 0.39103 0.0
Cd590 Cd 0.47153 0.04901 0.3775 0.0
O591 O 0.4526 0.0552 0.34024 0.0
O592 O 0.37538 0.0572 0.39391 0.0
O593 O 0.41262 0.02723 0.38598 0.0
C594 C 0.384 0.03211 0.38756 0.0
C595 C 0.49828 0.00816 0.38627 0.0
C596 C 0.43518 0.07572 0.33548 0.0
C597 C 0.46877 0.08988 0.42282 0.0
O598 O 0.48362 0.082 0.40233 0.0
O599 O 0.44104 0.08323 0.42495 0.0
O600 O 0.50961 0.02802 0.37185 0.0
O601 O 0.47095 0.01098 0.39479 0.0
O602 O 0.26879 0.30508 0.91238 0.0
Cd603 Cd 0.29782 0.27264 0.9043 0.0
Cd604 Cd 0.29158 0.29328 0.8569 0.0
O605 O 0.27762 0.3296 0.87562 0.0
O606 O 0.31977 0.26606 0.9386 0.0
O607 O 0.34051 0.28565 0.9027 0.0
C608 C 0.34204 0.27957 0.92792 0.0
C609 C 0.32941 0.28655 0.82513 0.0
C610 C 0.26606 0.32757 0.8989 0.0
C611 C 0.25921 0.24002 0.8693 0.0
O612 O 0.25915 0.26275 0.85598 0.0
O613 O 0.27796 0.23666 0.88841 0.0
O614 O 0.30457 0.2992 0.81887 0.0
O615 O 0.33369 0.28005 0.84999 0.0
O616 O 0.07005 0.91179 0.85745 0.0
Cd617 Cd 0.07374 0.93298 0.89345 0.0
Cd618 Cd 0.02129 0.95183 0.87887 0.0
O619 O 0.04139 0.9457 0.84207 0.0
O620 O 0.11707 0.94453 0.89693 0.0
O621 O 0.0797 0.9741 0.88816 0.0
C622 C 0.10833 0.96947 0.8902 0.0
C623 C 0.99408 0.99259 0.8869 0.0
C624 C 0.05894 0.92517 0.83775 0.0
C625 C 0.02334 0.91107 0.92433 0.0
O626 O 0.00886 0.9188 0.90357 0.0
O627 O 0.05094 0.91801 0.92698 0.0
O628 O 0.98333 0.9727 0.87216 0.0
O629 O 0.0211 0.98984 0.89621 0.0
O630 O 0.76884 0.20517 0.09286 0.0
Cd631 Cd 0.80296 0.23203 0.10263 0.0
Cd632 Cd 0.794 0.20774 0.14702 0.0
O633 O 0.77974 0.17383 0.12387 0.0
O634 O 0.82805 0.23673 0.06959 0.0
O635 O 0.84225 0.21202 0.10511 0.0
C636 C 0.8467 0.21918 0.08047 0.0
C637 C 0.83098 0.21286 0.17994 0.0
C638 C 0.76556 0.18071 0.10259 0.0
C639 C 0.76648 0.26391 0.13836 0.0
O640 O 0.76303 0.23962 0.14845 0.0
O641 O 0.78761 0.2682 0.1215 0.0
O642 O 0.80614 0.19963 0.1851 0.0
O643 O 0.83585 0.22046 0.15549 0.0
O644 O 0.42499 0.90958 0.14426 0.0
Cd645 Cd 0.421 0.93042 0.10809 0.0
Cd646 Cd 0.4733 0.95012 0.12241 0.0
O647 O 0.45345 0.94382 0.15935 0.0
O648 O 0.37757 0.94155 0.10454 0.0
O649 O 0.41469 0.97152 0.11303 0.0
C650 C 0.3861 0.96663 0.11103 0.0
C651 C 0.50006 0.99117 0.11413 0.0
C652 C 0.43609 0.92316 0.16385 0.0
C653 C 0.47157 0.90906 0.0771 0.0
O654 O 0.48609 0.91717 0.09772 0.0
O655 O 0.44383 0.9155 0.07459 0.0
O656 O 0.51106 0.97143 0.12892 0.0
O657 O 0.47302 0.98811 0.10494 0.0
O658 O 0.57103 0.59038 0.1462 0.0
Cd659 Cd 0.57598 0.56915 0.11029 0.0
Cd660 Cd 0.52325 0.54995 0.12366 0.0
O661 O 0.54193 0.55648 0.16095 0.0
O662 O 0.61957 0.55825 0.1078 0.0
O663 O 0.5825 0.52812 0.11585 0.0
C664 C 0.61109 0.53319 0.11442 0.0
C665 C 0.49655 0.509 0.11524 0.0
C666 C 0.5593 0.57706 0.16565 0.0
C667 C 0.52624 0.59026 0.07796 0.0
O668 O 0.51127 0.58265 0.09846 0.0
O669 O 0.55398 0.58358 0.07605 0.0
O670 O 0.48516 0.52902 0.1294 0.0
O671 O 0.52392 0.51173 0.10678 0.0
C672 C 0.15208 0.27897 0.22485 0.0
C673 C 0.14615 0.27351 0.19764 0.0
H674 H 0.14463 0.26663 0.26557 0.0
C675 C 0.12376 0.25372 0.19105 0.0
H676 H 0.16902 0.29422 0.23062 0.0
C677 C 0.10991 0.23771 0.21111 0.0
C678 C 0.11801 0.24132 0.23816 0.0
H679 H 0.1185 0.24909 0.17029 0.0
H680 H 0.09434 0.22128 0.20524 0.0
C681 C 0.13806 0.26311 0.24491 0.0
C682 C 0.5208 0.60283 0.02908 0.0
C683 C 0.51 0.60425 0.05557 0.0
H684 H 0.51086 0.60878 0.98732 0.0
C685 C 0.48156 0.61642 0.0602 0.0
H686 H 0.54258 0.59354 0.02483 0.0
C687 C 0.46354 0.62533 0.03883 0.0
C688 C 0.47335 0.62206 0.01221 0.0
H689 H 0.47266 0.61807 0.08038 0.0
H690 H 0.44126 0.63347 0.04318 0.0
C691 C 0.50257 0.61151 0.00758 0.0
C692 C 0.85635 0.23482 0.24918 0.0
C693 C 0.87737 0.25599 0.24292 0.0
H694 H 0.82528 0.20416 0.23409 0.0
C695 C 0.88704 0.2588 0.21623 0.0
H696 H 0.84856 0.23194 0.26959 0.0
C697 C 0.87389 0.24265 0.19591 0.0
C698 C 0.8506 0.22353 0.20182 0.0
H699 H 0.90341 0.2747 0.21077 0.0
H700 H 0.88049 0.24669 0.17534 0.0
C701 C 0.843 0.21882 0.22881 0.0
C702 C 0.49619 0.88592 0.00758 0.0
C703 C 0.52537 0.87556 0.01275 0.0
H704 H 0.45595 0.90427 0.02393 0.0
C705 C 0.53493 0.87314 0.03953 0.0
H706 H 0.48809 0.888 0.98716 0.0
C707 C 0.51668 0.88269 0.0605 0.0
C708 C 0.48825 0.89461 0.05526 0.0
H709 H 0.5572 0.8652 0.0443 0.0
H710 H 0.52538 0.88168 0.08079 0.0
C711 C 0.47773 0.89521 0.02865 0.0
C712 C 0.12313 0.74415 0.30521 0.0
C713 C 0.14572 0.7247 0.29829 0.0
H714 H 0.09344 0.77666 0.29162 0.0
C715 C 0.15181 0.71992 0.27101 0.0
H716 H 0.11773 0.74824 0.32604 0.0
C717 C 0.13768 0.73612 0.25124 0.0
C718 C 0.11738 0.75757 0.25839 0.0
H719 H 0.16891 0.70496 0.26498 0.0
H720 H 0.14432 0.73312 0.23053 0.0
C721 C 0.10919 0.76051 0.28546 0.0
C722 C 0.03159 0.62595 0.96195 0.0
C723 C 0.02195 0.62273 0.98862 0.0
H724 H 0.02235 0.6184 0.92047 0.0
C725 C 0.99285 0.61195 0.99341 0.0
H726 H 0.05377 0.63428 0.95747 0.0
C727 C 0.9746 0.60298 0.97202 0.0
C728 C 0.98527 0.60436 0.94549 0.0
H729 H 0.98469 0.60925 0.01373 0.0
H730 H 0.95293 0.59352 0.9764 0.0
C731 C 0.01355 0.61677 0.94069 0.0
C732 C 0.88476 0.73864 0.29037 0.0
C733 C 0.87656 0.74237 0.26337 0.0
H734 H 0.87631 0.74981 0.33126 0.0
C735 C 0.85645 0.76416 0.25677 0.0
H736 H 0.90037 0.7222 0.29612 0.0
C737 C 0.84249 0.7799 0.27695 0.0
C738 C 0.84854 0.77432 0.30411 0.0
H739 H 0.8498 0.76777 0.23614 0.0
H740 H 0.82552 0.79516 0.27128 0.0
C741 C 0.87097 0.75454 0.31054 0.0
C742 C 0.97854 0.8841 0.94077 0.0
C743 C 0.00675 0.89645 0.94613 0.0
H744 H 0.93819 0.86608 0.95679 0.0
C745 C 0.01708 0.89726 0.97279 0.0
H746 H 0.96999 0.88292 0.92043 0.0
C747 C -0.00138 0.88775 0.99378 0.0
C748 C 0.96964 0.87696 0.98847 0.0
H749 H 0.03867 0.90665 0.9776 0.0
H750 H 0.00656 0.88999 0.01423 0.0
C751 C 0.9603 0.87434 0.96165 0.0
C752 C 0.21216 0.10581 0.25145 0.0
C753 C 0.24149 0.11315 0.25937 0.0
H754 H 0.16483 0.1127 0.25708 0.0
C755 C 0.2454 0.13089 0.28168 0.0
H756 H 0.20851 0.09222 0.23432 0.0
C757 C 0.22054 0.1424 0.29486 0.0
C758 C 0.19119 0.13675 0.28577 0.0
H759 H 0.26781 0.1367 0.28839 0.0
H760 H 0.22442 0.15687 0.31127 0.0
C761 C 0.18721 0.11768 0.26442 0.0
C762 C 0.39018 0.5153 0.94383 0.0
C763 C 0.37853 0.54111 0.95286 0.0
H764 H 0.39334 0.4709 0.95066 0.0
C765 C 0.35733 0.54106 0.97379 0.0
H766 H 0.40653 0.51463 0.92771 0.0
C767 C 0.34962 0.51609 0.98673 0.0
C768 C 0.36312 0.49057 0.97923 0.0
H769 H 0.34765 0.56052 0.98102 0.0
H770 H 0.33428 0.51711 0.00362 0.0
C771 C 0.38262 0.49024 0.95699 0.0
C772 C 0.80958 0.38177 0.26937 0.0
C773 C 0.80535 0.3634 0.29123 0.0
H774 H 0.78858 0.40731 0.23916 0.0
C775 C 0.77608 0.35936 0.30123 0.0
H776 H 0.83192 0.38554 0.26135 0.0
C777 C 0.75139 0.37166 0.2884 0.0
C778 C 0.75544 0.38859 0.26554 0.0
H779 H 0.77203 0.3455 0.31807 0.0
H780 H 0.72894 0.36697 0.29574 0.0
C781 C 0.78483 0.39442 0.25675 0.0
C782 C 0.61186 0.98073 0.94713 0.0
C783 C 0.62254 0.95446 0.95586 0.0
H784 H 0.6101 0.02508 0.95459 0.0
C785 C 0.64348 0.95359 0.97704 0.0
H786 H 0.59575 0.98213 0.93084 0.0
C787 C 0.65182 0.97811 0.99048 0.0
C788 C 0.6393 0.00413 0.98321 0.0
H789 H 0.65245 0.93375 0.98407 0.0
H790 H 0.66688 0.97639 0.00752 0.0
C791 C 0.62009 0.00536 0.96074 0.0
C792 C 0.18603 0.88201 0.23255 0.0
C793 C 0.1899 0.86294 0.2112 0.0
H794 H 0.20745 0.90727 0.26275 0.0
C795 C 0.21921 0.85714 0.20216 0.0
H796 H 0.16367 0.8871 0.23985 0.0
C797 C 0.24414 0.86846 0.21543 0.0
C798 C 0.24033 0.88617 0.23777 0.0
H799 H 0.223 0.84265 0.18575 0.0
H800 H 0.26652 0.8625 0.20879 0.0
C801 C 0.21104 0.8937 0.2456 0.0
C802 C 0.11341 0.49193 0.04486 0.0
C803 C 0.13292 0.49209 0.02262 0.0
H804 H 0.08944 0.51655 0.07392 0.0
C805 C 0.14639 0.51757 0.01491 0.0
H806 H 0.10272 0.47263 0.05134 0.0
C807 C 0.13863 0.54264 0.02763 0.0
C808 C 0.11741 0.54284 0.04855 0.0
H809 H 0.16173 0.51846 0.99802 0.0
H810 H 0.14828 0.56206 0.02024 0.0
C811 C 0.1058 0.5171 0.0578 0.0
C812 C 0.80712 0.61897 0.23668 0.0
C813 C 0.80314 0.63816 0.21543 0.0
H814 H 0.78584 0.59339 0.2667 0.0
C815 C 0.77379 0.64391 0.20643 0.0
H816 H 0.82951 0.61391 0.24395 0.0
C817 C 0.74893 0.63237 0.21961 0.0
C818 C 0.75284 0.61451 0.24183 0.0
H819 H 0.7699 0.65847 0.1901 0.0
H820 H 0.72652 0.63827 0.21298 0.0
C821 C 0.78217 0.60707 0.24964 0.0
C822 C 0.87335 0.0057 0.04025 0.0
C823 C 0.85431 0.00429 0.0177 0.0
H824 H 0.89773 0.9827 0.07027 0.0
C825 C 0.84203 0.97817 0.01038 0.0
H826 H 0.88313 0.02551 0.04645 0.0
C827 C 0.85051 0.95373 0.02386 0.0
C828 C 0.87133 0.95479 0.04512 0.0
H829 H 0.82709 0.97632 0.99327 0.0
H830 H 0.84176 0.93382 0.01679 0.0
C831 C 0.88172 0.98116 0.0539 0.0
C832 C 0.25237 0.18733 0.13357 0.0
C833 C 0.25789 0.21578 0.13914 0.0
H834 H 0.26499 0.14468 0.14182 0.0
C835 C 0.28368 0.22311 0.15402 0.0
H836 H 0.23279 0.18112 0.12199 0.0
C837 C 0.30211 0.20249 0.16507 0.0
C838 C 0.29518 0.174 0.16161 0.0
H839 H 0.28898 0.2449 0.15814 0.0
H840 H 0.32081 0.20895 0.17765 0.0
C841 C 0.2709 0.16652 0.1448 0.0
C842 C 0.30032 0.79627 0.33306 0.0
C843 C 0.29265 0.82467 0.33583 0.0
H844 H 0.28793 0.75374 0.34034 0.0
C845 C 0.2676 0.83195 0.35178 0.0
H846 H 0.31962 0.78999 0.32116 0.0
C847 C 0.24911 0.81096 0.36279 0.0
C848 C 0.25547 0.78253 0.35789 0.0
H849 H 0.2611 0.85372 0.35419 0.0
H850 H 0.22896 0.81697 0.37365 0.0
C851 C 0.28198 0.77548 0.34394 0.0
C852 C 0.04942 0.48595 0.88979 0.0
C853 C 0.01836 0.48536 0.89527 0.0
H854 H 0.09287 0.46902 0.89878 0.0
C855 C 0.00679 0.46406 0.9119 0.0
H856 H 0.05905 0.50193 0.87691 0.0
C857 C 0.02629 0.4449 0.92427 0.0
C858 C 0.05758 0.44709 0.92042 0.0
H859 H 0.9829 0.46301 0.91637 0.0
H860 H 0.01707 0.42955 0.93806 0.0
C861 C 0.06884 0.46714 0.90238 0.0
C862 C 0.74234 0.68785 0.36802 0.0
C863 C 0.73685 0.71634 0.36265 0.0
H864 H 0.72962 0.64526 0.35951 0.0
C865 C 0.71101 0.7238 0.34792 0.0
H866 H 0.76196 0.68153 0.37949 0.0
C867 C 0.6925 0.70328 0.33678 0.0
C868 C 0.6994 0.67476 0.34003 0.0
H869 H 0.70574 0.74563 0.34395 0.0
H870 H 0.67376 0.70985 0.3243 0.0
C871 C 0.72373 0.66714 0.35671 0.0
C872 C 0.42492 0.53357 0.40218 0.0
C873 C 0.43615 0.55352 0.42034 0.0
H874 H 0.43467 0.49865 0.37687 0.0
C875 C 0.4674 0.55539 0.42461 0.0
H876 H 0.40093 0.53195 0.39826 0.0
C877 C 0.48685 0.53599 0.41253 0.0
C878 C 0.47527 0.5148 0.39576 0.0
H879 H 0.47659 0.57064 0.43852 0.0
H880 H 0.51068 0.53679 0.41731 0.0
C881 C 0.4443 0.51454 0.38986 0.0
C882 C 0.2498 0.81627 0.64004 0.0
C883 C 0.24488 0.78756 0.64479 0.0
H884 H 0.23591 0.85843 0.64892 0.0
C885 C 0.21932 0.77935 0.65956 0.0
H886 H 0.26913 0.82319 0.62852 0.0
C887 C 0.2003 0.7993 0.67092 0.0
C888 C 0.20633 0.82801 0.66786 0.0
H889 H 0.21442 0.75738 0.66314 0.0
H890 H 0.18165 0.79214 0.68319 0.0
C891 C 0.23064 0.83639 0.65154 0.0
C892 C 0.03134 0.55217 0.57426 0.0
C893 C 0.0622 0.55116 0.58062 0.0
H894 H 0.98779 0.53362 0.58021 0.0
C895 C 0.07203 0.53322 0.60121 0.0
H896 H 0.02316 0.56587 0.55851 0.0
C897 C 0.05189 0.515 0.6137 0.0
C898 C 0.02153 0.51414 0.6057 0.0
H899 H 0.09564 0.53231 0.60681 0.0
H900 H 0.06057 0.50047 0.62854 0.0
C901 C 0.01114 0.53367 0.58665 0.0
C902 C 0.96914 0.94469 0.57765 0.0
C903 C 0.93785 0.94685 0.58152 0.0
H904 H 0.01252 0.96291 0.58545 0.0
C905 C 0.92658 0.96697 0.59947 0.0
H906 H 0.97836 0.92929 0.56392 0.0
C907 C 0.94599 0.98586 0.61198 0.0
C908 C 0.97705 0.98529 0.60648 0.0
H909 H 0.90256 0.96883 0.60309 0.0
H910 H 0.93635 0.00189 0.62479 0.0
C911 C 0.98863 0.96394 0.58993 0.0
C912 C 0.62373 0.75407 0.69126 0.0
C913 C 0.64599 0.77403 0.69773 0.0
H914 H 0.59464 0.72146 0.70562 0.0
C915 C 0.65193 0.77966 0.7249 0.0
H916 H 0.61846 0.74932 0.67053 0.0
C917 C 0.6381 0.76378 0.74505 0.0
C918 C 0.61823 0.74181 0.73841 0.0
H919 H 0.66875 0.79506 0.73059 0.0
H920 H 0.64469 0.76743 0.76569 0.0
C921 C 0.61007 0.73804 0.7114 0.0
C922 C 0.00189 0.11148 0.50782 0.0
C923 C 0.97279 0.12221 0.51266 0.0
H924 H 0.04191 0.09321 0.52476 0.0
C925 C 0.96325 0.12551 0.53935 0.0
H926 H 0.00997 0.10873 0.48748 0.0
C927 C 0.98139 0.11646 0.56059 0.0
C928 C 0.00968 0.1041 0.55574 0.0
H929 H 0.94107 0.13381 0.54388 0.0
H930 H 0.97268 0.11816 0.58083 0.0
C931 C 0.02024 0.10264 0.52917 0.0
C932 C 0.35965 0.73513 0.74468 0.0
C933 C 0.38007 0.7569 0.73876 0.0
H934 H 0.32903 0.70434 0.72913 0.0
C935 C 0.38917 0.76075 0.71202 0.0
H936 H 0.35229 0.73145 0.7651 0.0
C937 C 0.37599 0.74501 0.69139 0.0
C938 C 0.35325 0.72525 0.69707 0.0
H939 H 0.40506 0.77714 0.70678 0.0
H940 H 0.38208 0.74984 0.67087 0.0
C941 C 0.34629 0.71952 0.72403 0.0
C942 C 0.036 0.37267 0.54003 0.0
C943 C 0.02638 0.37524 0.51328 0.0
H944 H 0.02662 0.38116 0.58133 0.0
C945 C 0.99726 0.38581 0.50819 0.0
H946 H 0.05821 0.36457 0.54473 0.0
C947 C 0.97894 0.39517 0.52933 0.0
C948 C 0.98952 0.39443 0.55592 0.0
H949 H 0.98912 0.388 0.48781 0.0
H950 H 0.95722 0.4044 0.52467 0.0
C951 C 0.01787 0.38228 0.56106 0.0
C952 C 0.63816 0.23389 0.75201 0.0
C953 C 0.61726 0.25523 0.75799 0.0
H954 H 0.66881 0.20314 0.76755 0.0
C955 C 0.60721 0.25819 0.78456 0.0
H956 H 0.64621 0.23089 0.7317 0.0
C957 C 0.61997 0.24206 0.80507 0.0
C958 C 0.64324 0.22283 0.79948 0.0
H959 H 0.59091 0.27421 0.7898 0.0
H960 H 0.61314 0.24624 0.82555 0.0
C961 C 0.65112 0.21791 0.77258 0.0
C962 C 0.51359 0.11619 0.44006 0.0
C963 C 0.48513 0.10417 0.44495 0.0
H964 H 0.55403 0.13336 0.45674 0.0
C965 C 0.47442 0.10317 0.47148 0.0
H966 H 0.52243 0.11753 0.41984 0.0
C967 C 0.49276 0.11212 0.4928 0.0
C968 C 0.52201 0.12249 0.48795 0.0
H969 H 0.45261 0.09401 0.47593 0.0
H970 H 0.48454 0.10971 0.51313 0.0
C971 C 0.53173 0.12536 0.46126 0.0
C972 C 0.38571 0.23973 0.7902 0.0
C973 C 0.37765 0.24368 0.76318 0.0
H974 H 0.37718 0.25076 0.83111 0.0
C975 C 0.35783 0.2657 0.75662 0.0
H976 H 0.4011 0.22312 0.79592 0.0
C977 C 0.34395 0.28147 0.77682 0.0
C978 C 0.34979 0.27566 0.80397 0.0
H979 H 0.35132 0.26949 0.73598 0.0
H980 H 0.32717 0.29691 0.77117 0.0
C981 C 0.37199 0.25565 0.81039 0.0
C982 C 0.47772 0.38386 0.44141 0.0
C983 C 0.50639 0.39549 0.44631 0.0
H984 H 0.43701 0.36727 0.45809 0.0
C985 C 0.51711 0.39637 0.47286 0.0
H986 H 0.46886 0.38264 0.42119 0.0
C987 C 0.49864 0.3877 0.49416 0.0
C988 C 0.46922 0.37772 0.4893 0.0
H989 H 0.53906 0.40522 0.47732 0.0
H990 H 0.50692 0.39 0.51449 0.0
C991 C 0.45944 0.37497 0.46261 0.0
C992 C 0.68894 0.61881 0.76459 0.0
C993 C 0.69285 0.63789 0.78594 0.0
H994 H 0.71033 0.59347 0.73446 0.0
C995 C 0.72217 0.6437 0.79498 0.0
H996 H 0.66658 0.6137 0.75729 0.0
C997 C 0.74708 0.63232 0.78176 0.0
C998 C 0.74324 0.61456 0.75945 0.0
H999 H 0.72599 0.65819 0.81139 0.0
H1000 H 0.76947 0.63825 0.78844 0.0
C1001 C 0.71394 0.60707 0.75158 0.0
C1002 C 0.84847 0.01668 0.48691 0.0
C1003 C 0.86202 0.99123 0.47925 0.0
H1004 H 0.84638 0.06114 0.48144 0.0
C1005 C 0.88144 0.99106 0.45695 0.0
H1006 H 0.83318 0.01757 0.50384 0.0
C1007 C 0.88889 0.01622 0.44391 0.0
C1008 C 0.87723 0.04194 0.45311 0.0
H1009 H 0.89219 0.97179 0.4505 0.0
H1010 H 0.90521 0.01568 0.42774 0.0
C1011 C 0.85608 0.04174 0.47408 0.0
C1012 C 0.25243 0.8701 0.78694 0.0
C1013 C 0.25606 0.88735 0.76424 0.0
H1014 H 0.27361 0.84365 0.81606 0.0
C1015 C 0.28529 0.89336 0.75514 0.0
H1016 H 0.23012 0.86527 0.79453 0.0
C1017 C 0.31028 0.88064 0.76733 0.0
C1018 C 0.30646 0.86199 0.78904 0.0
H1019 H 0.28873 0.90649 0.73767 0.0
H1020 H 0.33248 0.8846 0.75909 0.0
C1021 C 0.27736 0.85771 0.79931 0.0
C1022 C 0.12142 0.50465 0.46035 0.0
C1023 C 0.14076 0.50343 0.48272 0.0
H1024 H 0.0968 0.48141 0.43065 0.0
C1025 C 0.15324 0.47741 0.49001 0.0
H1026 H 0.11146 0.52438 0.45417 0.0
C1027 C 0.14472 0.45286 0.4767 0.0
C1028 C 0.12364 0.45373 0.45564 0.0
H1029 H 0.16841 0.4757 0.50699 0.0
H1030 H 0.15366 0.43302 0.48376 0.0
C1031 C 0.11301 0.48001 0.44687 0.0
C1032 C 0.71148 0.39334 0.74459 0.0
C1033 C 0.74087 0.38762 0.73574 0.0
H1034 H 0.66441 0.38441 0.73995 0.0
C1035 C 0.74493 0.37088 0.71277 0.0
H1036 H 0.70771 0.40608 0.76227 0.0
C1037 C 0.72025 0.35864 0.69986 0.0
C1038 C 0.69099 0.36254 0.7099 0.0
H1039 H 0.76739 0.36629 0.70538 0.0
H1040 H 0.72431 0.34491 0.68292 0.0
C1041 C 0.68675 0.38074 0.73189 0.0
C1042 C 0.64548 0.01629 0.51497 0.0
C1043 C 0.63163 0.99095 0.52256 0.0
H1044 H 0.64779 0.06075 0.52028 0.0
C1045 C 0.61181 0.99099 0.54459 0.0
H1046 H 0.66106 0.01701 0.49825 0.0
C1047 C 0.60431 0.01625 0.55742 0.0
C1048 C 0.61632 0.04187 0.54827 0.0
H1049 H 0.60083 0.97181 0.55097 0.0
H1050 H 0.58772 0.01589 0.57336 0.0
C1051 C 0.63782 0.04144 0.52758 0.0
C1052 C 0.3071 0.12082 0.7365 0.0
C1053 C 0.30319 0.13991 0.71516 0.0
H1054 H 0.28573 0.09535 0.76655 0.0
C1055 C 0.27387 0.1456 0.70606 0.0
H1056 H 0.32946 0.11581 0.74386 0.0
C1057 C 0.24896 0.13409 0.7192 0.0
C1058 C 0.2528 0.11631 0.74149 0.0
H1059 H 0.27003 0.16009 0.68965 0.0
H1060 H 0.22658 0.13993 0.71246 0.0
C1061 C 0.28211 0.10896 0.74944 0.0
C1062 C 0.38707 0.48494 0.55763 0.0
C1063 C 0.37518 0.45917 0.54872 0.0
H1064 H 0.39047 0.52931 0.55069 0.0
C1065 C 0.35381 0.4593 0.5279 0.0
H1066 H 0.40356 0.48555 0.57367 0.0
C1067 C 0.34617 0.48428 0.51493 0.0
C1068 C 0.35989 0.50975 0.52231 0.0
H1069 H 0.34393 0.43987 0.52076 0.0
H1070 H 0.3307 0.4833 0.49813 0.0
C1071 C 0.37957 0.51002 0.54446 0.0
C1072 C 0.77193 0.66756 0.64496 0.0
C1073 C 0.79615 0.6753 0.66172 0.0
H1074 H 0.7336 0.68173 0.6222 0.0
C1075 C 0.80272 0.70387 0.66518 0.0
H1076 H 0.7663 0.64564 0.64199 0.0
C1077 C 0.784 0.72428 0.65416 0.0
C1078 C 0.75828 0.71667 0.63931 0.0
H1079 H 0.82137 0.71053 0.67772 0.0
H1080 H 0.78903 0.74613 0.65827 0.0
C1081 C 0.75311 0.68816 0.63376 0.0
C1082 C 0.79437 0.2983 0.83007 0.0
C1083 C 0.78766 0.32692 0.83267 0.0
H1084 H 0.78075 0.2562 0.83767 0.0
C1085 C 0.76241 0.33499 0.848 0.0
H1086 H 0.81373 0.29139 0.81857 0.0
C1087 C 0.7431 0.31461 0.85893 0.0
C1088 C 0.74881 0.28595 0.85461 0.0
H1089 H 0.7566 0.35696 0.85022 0.0
H1090 H 0.72308 0.32128 0.86964 0.0
C1091 C 0.77523 0.27811 0.84088 0.0
C1092 C 0.56772 0.96609 0.40229 0.0
C1093 C 0.55637 0.94612 0.42037 0.0
H1094 H 0.5581 0.00089 0.3768 0.0
C1095 C 0.52507 0.94411 0.42428 0.0
H1096 H 0.59175 0.96783 0.39865 0.0
C1097 C 0.50567 0.96336 0.41192 0.0
C1098 C 0.51734 0.98457 0.39525 0.0
H1099 H 0.51579 0.92883 0.4381 0.0
H1100 H 0.48178 0.96245 0.41643 0.0
C1101 C 0.54839 0.98498 0.38971 0.0
C1102 C 0.2117 0.22567 0.8467 0.0
C1103 C 0.23726 0.21802 0.86173 0.0
H1104 H 0.17449 0.21197 0.8229 0.0
C1105 C 0.24232 0.18951 0.86732 0.0
H1106 H 0.20675 0.24752 0.84255 0.0
C1107 C 0.22355 0.16893 0.856 0.0
C1108 C 0.19948 0.1767 0.83909 0.0
H1109 H 0.26172 0.18305 0.87902 0.0
H1110 H 0.2291 0.14701 0.85903 0.0
C1111 C 0.19302 0.20528 0.83557 0.0
C1112 C 0.98461 0.03578 0.91442 0.0
C1113 C 0.97455 0.01605 0.8954 0.0
H1114 H 0.97202 0.06803 0.9423 0.0
C1115 C 0.9443 0.01669 0.88708 0.0
H1116 H 0.00787 0.03589 0.92109 0.0
C1117 C 0.92389 0.03484 0.8993 0.0
C1118 C 0.93336 0.05293 0.91989 0.0
H1119 H 0.93589 0.00202 0.87224 0.0
H1120 H 0.90035 0.03374 0.8935 0.0
C1121 C 0.96413 0.05421 0.92652 0.0
C1122 C 0.75146 0.3149 0.1422 0.0
C1123 C 0.74529 0.28632 0.14656 0.0
H1124 H 0.7387 0.35742 0.15095 0.0
C1125 C 0.71874 0.27883 0.16026 0.0
H1126 H 0.77159 0.32129 0.13151 0.0
C1127 C 0.69995 0.29928 0.17109 0.0
C1128 C 0.70717 0.3278 0.16852 0.0
H1129 H 0.71287 0.257 0.16347 0.0
H1130 H 0.68049 0.29264 0.18261 0.0
C1131 C 0.73251 0.33554 0.15315 0.0
C1132 C 0.56974 0.03418 0.1016 0.0
C1133 C 0.56008 0.05209 0.08093 0.0
H1134 H 0.55811 0.00134 0.12877 0.0
C1135 C 0.52931 0.05295 0.07423 0.0
H1136 H 0.59327 0.03339 0.10745 0.0
C1137 C 0.50905 0.03431 0.08637 0.0
C1138 C 0.51931 0.0148 0.1055 0.0
H1139 H 0.52128 0.06662 0.05839 0.0
H1140 H 0.48579 0.03412 0.07966 0.0
C1141 C 0.54954 0.01584 0.11385 0.0
C1142 C 0.44649 0.48567 0.11213 0.0
C1143 C 0.47752 0.48529 0.1065 0.0
H1144 H 0.40314 0.46836 0.10342 0.0
C1145 C 0.48918 0.46398 0.08994 0.0
H1146 H 0.4368 0.50165 0.12497 0.0
C1147 C 0.46977 0.4446 0.07776 0.0
C1148 C 0.43848 0.44658 0.08174 0.0
H1149 H 0.51305 0.46309 0.08537 0.0
H1150 H 0.47903 0.42925 0.064 0.0
C1151 C 0.42716 0.46664 0.09972 0.0
C1152 C 0.13244 0.28347 0.3589 0.0
C1153 C 0.13516 0.25833 0.37338 0.0
H1154 H 0.12309 0.32742 0.36006 0.0
C1155 C 0.13278 0.25913 0.4015 0.0
H1156 H 0.13429 0.28356 0.33722 0.0
C1157 C 0.12587 0.28433 0.4147 0.0
C1158 C 0.12169 0.30926 0.40003 0.0
H1159 H 0.13466 0.24004 0.41319 0.0
H1160 H 0.12279 0.28408 0.43626 0.0
C1161 C 0.12604 0.30866 0.37206 0.0
C1162 C 0.52189 0.63773 0.83206 0.0
C1163 C 0.54639 0.64748 0.84737 0.0
H1164 H 0.47804 0.61882 0.83232 0.0
C1165 C 0.54568 0.64411 0.87539 0.0
H1166 H 0.52187 0.6398 0.81042 0.0
C1167 C 0.52058 0.63222 0.88792 0.0
C1168 C 0.49579 0.62311 0.87269 0.0
H1169 H 0.56422 0.6513 0.88779 0.0
H1170 H 0.52036 0.6307 0.90961 0.0
C1171 C 0.49691 0.62549 0.84459 0.0
C1172 C 0.86383 0.2384 0.405 0.0
C1173 C 0.86061 0.24003 0.37697 0.0
H1174 H 0.87495 0.21244 0.43879 0.0
C1175 C 0.86277 0.21531 0.36176 0.0
H1176 H 0.86239 0.25715 0.41723 0.0
C1177 C 0.86959 0.18975 0.37406 0.0
C1178 C 0.87492 0.18834 0.40187 0.0
H1179 H 0.86025 0.21587 0.34014 0.0
H1180 H 0.87216 0.17136 0.36149 0.0
C1181 C 0.87114 0.21281 0.41732 0.0
C1182 C 0.47896 0.86507 0.8893 0.0
C1183 C 0.50369 0.87427 0.87407 0.0
H1184 H 0.43536 0.84592 0.88921 0.0
C1185 C 0.50252 0.87185 0.84597 0.0
H1186 H 0.4792 0.8666 0.91099 0.0
C1187 C 0.47752 0.85955 0.83344 0.0
C1188 C 0.45305 0.84977 0.84876 0.0
H1189 H 0.52136 0.87856 0.8337 0.0
H1190 H 0.47748 0.85749 0.8118 0.0
C1191 C 0.45386 0.85313 0.87679 0.0
C1192 C 0.12995 0.73944 0.09674 0.0
C1193 C 0.13302 0.74103 0.12477 0.0
H1194 H 0.1191 0.7135 0.06285 0.0
C1195 C 0.13085 0.71628 0.13994 0.0
H1196 H 0.13141 0.75822 0.08454 0.0
C1197 C 0.12419 0.69071 0.12756 0.0
C1198 C 0.11904 0.68933 0.09973 0.0
H1199 H 0.13327 0.7168 0.16156 0.0
H1200 H 0.12163 0.67229 0.1401 0.0
C1201 C 0.12279 0.71385 0.08433 0.0
C1202 C 0.9502 0.64549 0.12614 0.0
C1203 C 0.94966 0.64901 0.15415 0.0
H1204 H 0.9754 0.63216 0.09183 0.0
C1205 C 0.97443 0.63969 0.16935 0.0
H1206 H 0.93146 0.65236 0.11382 0.0
C1207 C -0.00052 0.62769 0.15671 0.0
C1208 C 0.00039 0.62512 0.12862 0.0
H1209 H 0.97459 0.64189 0.19098 0.0
H1210 H 0.01854 0.62132 0.1689 0.0
C1211 C 0.97535 0.63384 0.11351 0.0
C1212 C 0.86239 0.76047 0.09978 0.0
C1213 C 0.8599 0.7597 0.12791 0.0
H1214 H 0.87257 0.78537 0.06504 0.0
C1215 C 0.86269 0.78485 0.14238 0.0
H1216 H 0.86046 0.74138 0.0881 0.0
C1217 C 0.86921 0.81001 0.12921 0.0
C1218 C 0.87364 0.81059 0.10125 0.0
H1219 H 0.86077 0.78495 0.16405 0.0
H1220 H 0.87219 0.82877 0.14121 0.0
C1221 C 0.86944 0.78565 0.08659 0.0
C1222 C 0.01621 0.86761 0.11082 0.0
C1223 C 0.99147 0.87633 0.1263 0.0
H1224 H 0.06006 0.84902 0.11046 0.0
C1225 C 0.99294 0.87375 0.15437 0.0
H1226 H 0.01572 0.86929 0.08915 0.0
C1227 C 0.01823 0.86168 0.16662 0.0
C1228 C 0.04266 0.85231 0.15105 0.0
H1229 H 0.97412 0.8801 0.16682 0.0
H1230 H 0.01848 0.85944 0.18824 0.0
C1231 C 0.04159 0.85591 0.12306 0.0
C1232 C 0.40149 0.06002 0.26794 0.0
C1233 C 0.39031 0.08644 0.26051 0.0
H1234 H 0.42558 0.03617 0.29732 0.0
C1235 C 0.39785 0.11009 0.27601 0.0
H1236 H 0.3958 0.0415 0.25636 0.0
C1237 C 0.41403 0.10695 0.29989 0.0
C1238 C 0.42373 0.08027 0.3081 0.0
H1239 H 0.38917 0.13065 0.27083 0.0
H1240 H 0.41778 0.12514 0.31252 0.0
C1241 C 0.41852 0.05703 0.29133 0.0
C1242 C 0.38777 0.33831 0.95681 0.0
C1243 C 0.38926 0.33025 0.98385 0.0
H1244 H 0.37284 0.32765 0.91732 0.0
C1245 C 0.38134 0.30264 0.99093 0.0
H1246 H 0.39392 0.35941 0.95079 0.0
C1247 C 0.36863 0.2846 0.97188 0.0
C1248 C 0.36438 0.29366 0.94534 0.0
H1249 H 0.38227 0.29585 0.01166 0.0
H1250 H 0.36001 0.26442 0.97838 0.0
C1251 C 0.37586 0.32 0.93761 0.0
C1252 C 0.59407 0.44002 0.27082 0.0
C1253 C 0.6057 0.41375 0.26349 0.0
H1254 H 0.56876 0.46343 0.29969 0.0
C1255 C 0.59775 0.38989 0.27851 0.0
H1256 H 0.60005 0.4587 0.25959 0.0
C1257 C 0.58068 0.39269 0.30193 0.0
C1258 C 0.57051 0.41922 0.3101 0.0
H1259 H 0.60676 0.36943 0.27341 0.0
H1260 H 0.57662 0.37435 0.31427 0.0
C1261 C 0.57616 0.44267 0.29371 0.0
C1262 C 0.60653 0.15637 0.94822 0.0
C1263 C 0.60309 0.16395 0.97524 0.0
H1264 H 0.62187 0.16871 0.90936 0.0
C1265 C 0.60786 0.1921 0.98273 0.0
H1266 H 0.60284 0.13489 0.94185 0.0
C1267 C 0.61944 0.21141 0.96426 0.0
C1268 C 0.62574 0.20305 0.93784 0.0
H1269 H 0.60538 0.19859 0.00344 0.0
H1270 H 0.62556 0.23221 0.97117 0.0
C1271 C 0.61735 0.17586 0.92959 0.0
C1272 C 0.39756 0.88861 0.22263 0.0
C1273 C 0.38966 0.9122 0.23804 0.0
H1274 H 0.4183 0.87368 0.18645 0.0
C1275 C 0.40094 0.93866 0.23085 0.0
H1276 H 0.38883 0.86801 0.22761 0.0
C1277 C 0.41846 0.94174 0.20775 0.0
C1278 C 0.42408 0.91855 0.19104 0.0
H1279 H 0.395 0.95715 0.24236 0.0
H1280 H 0.4256 0.96263 0.20193 0.0
C1281 C 0.41424 0.89183 0.19903 0.0
C1282 C 0.12041 0.31985 0.06427 0.0
C1283 C 0.13159 0.29348 0.05633 0.0
H1284 H 0.10269 0.35951 0.05145 0.0
C1285 C 0.12722 0.2847 0.02971 0.0
H1286 H 0.12354 0.32729 0.08463 0.0
C1287 C 0.11465 0.30301 0.01083 0.0
C1288 C 0.107 0.33062 0.01815 0.0
H1289 H 0.13562 0.26451 0.02304 0.0
H1290 H 0.11361 0.2964 0.99005 0.0
C1291 C 0.10864 0.33843 0.04525 0.0
C1292 C 0.59678 0.61151 0.22504 0.0
C1293 C 0.60404 0.58789 0.24067 0.0
H1294 H 0.5771 0.6265 0.18839 0.0
C1295 C 0.59262 0.56152 0.23336 0.0
H1296 H 0.60565 0.63203 0.23012 0.0
C1297 C 0.57563 0.55853 0.20995 0.0
C1298 C 0.57069 0.58171 0.19304 0.0
H1299 H 0.5981 0.54303 0.24505 0.0
H1300 H 0.56839 0.53769 0.20406 0.0
C1301 C 0.58063 0.60836 0.20113 0.0
C1302 C 0.87416 0.21131 0.03726 0.0
C1303 C 0.86784 0.20283 0.06364 0.0
H1304 H 0.88824 0.19865 0.99805 0.0
C1305 C 0.87631 0.17566 0.07183 0.0
H1306 H 0.86799 0.23211 0.0304 0.0
C1307 C 0.88719 0.15626 0.05316 0.0
C1308 C 0.89058 0.16393 0.02616 0.0
H1309 H 0.87179 0.16845 0.09205 0.0
H1310 H 0.89091 0.13476 0.05946 0.0
C1311 C 0.88579 0.19208 0.01874 0.0
C1312 C 0.27374 0.3706 0.05469 0.0
C1313 C 0.29915 0.37725 0.07023 0.0
H1314 H 0.23155 0.34858 0.05322 0.0
C1315 C 0.29936 0.37063 0.09768 0.0
H1316 H 0.27319 0.37544 0.03345 0.0
C1317 C 0.27512 0.35627 0.10917 0.0
C1318 C 0.25086 0.34759 0.09313 0.0
H1319 H 0.31874 0.37573 0.11003 0.0
H1320 H 0.27645 0.35007 0.13006 0.0
C1321 C 0.24997 0.35538 0.06597 0.0
C1322 C 0.24737 0.64331 0.43182 0.0
C1323 C 0.24921 0.65095 0.40466 0.0
H1324 H 0.26962 0.62381 0.46521 0.0
C1325 C 0.27426 0.64259 0.38948 0.0
H1326 H 0.22832 0.64988 0.44391 0.0
C1327 C 0.29828 0.6287 0.40186 0.0
C1328 C 0.29708 0.62224 0.42933 0.0
H1329 H 0.27631 0.6487 0.36862 0.0
H1330 H 0.31822 0.62385 0.39018 0.0
C1331 C 0.27094 0.62855 0.44398 0.0
C1332 C 0.8706 0.48304 0.87544 0.0
C1333 C 0.86273 0.51158 0.87667 0.0
H1334 H 0.86155 0.44286 0.85787 0.0
C1335 C 0.83648 0.52065 0.86338 0.0
H1336 H 0.89074 0.47547 0.88543 0.0
C1337 C 0.82019 0.50214 0.84703 0.0
C1338 C 0.82938 0.47406 0.84425 0.0
H1339 H 0.82996 0.54256 0.86376 0.0
H1340 H 0.80141 0.51019 0.83543 0.0
C1341 C 0.85383 0.46436 0.85967 0.0
C1342 C 0.69564 0.87092 0.40469 0.0
C1343 C 0.69577 0.87732 0.43219 0.0
H1344 H 0.71865 0.85062 0.37223 0.0
C1345 C 0.72112 0.87054 0.44776 0.0
H1346 H 0.67631 0.87611 0.39233 0.0
C1347 C 0.74492 0.85541 0.43643 0.0
C1348 C 0.74411 0.84783 0.40921 0.0
H1349 H 0.7216 0.87522 0.46903 0.0
H1350 H 0.76329 0.8485 0.44917 0.0
C1351 C 0.71991 0.85665 0.39316 0.0
C1352 C 0.62217 0.51681 0.37893 0.0
C1353 C 0.63017 0.48829 0.37991 0.0
H1354 H 0.63113 0.55721 0.36183 0.0
C1355 C 0.65655 0.47947 0.36671 0.0
H1356 H 0.60192 0.52417 0.38885 0.0
C1357 C 0.67286 0.49823 0.35066 0.0
C1358 C 0.66354 0.5263 0.34809 0.0
H1359 H 0.66316 0.45758 0.36691 0.0
H1360 H 0.69175 0.49038 0.33909 0.0
C1361 C 0.63895 0.53573 0.36345 0.0
C1362 C 0.19706 0.65858 0.56205 0.0
C1363 C 0.19862 0.62932 0.5645 0.0
H1364 H 0.21716 0.69805 0.57083 0.0
C1365 C 0.22313 0.61719 0.57822 0.0
H1366 H 0.17856 0.66851 0.55143 0.0
C1367 C 0.24532 0.63435 0.58993 0.0
C1368 C 0.24356 0.6637 0.58735 0.0
H1369 H 0.22472 0.59462 0.58042 0.0
H1370 H 0.26383 0.62475 0.60076 0.0
C1371 C 0.21933 0.67551 0.5731 0.0
C1372 C 0.82329 0.49869 0.65036 0.0
C1373 C 0.83274 0.52672 0.653 0.0
H1374 H 0.83292 0.458 0.63421 0.0
C1375 C 0.85754 0.53604 0.63783 0.0
H1376 H 0.80424 0.49094 0.66178 0.0
C1377 C 0.87437 0.51705 0.6225 0.0
C1378 C 0.86622 0.48856 0.62146 0.0
H1379 H 0.86546 0.55749 0.63952 0.0
H1380 H 0.89476 0.52432 0.61274 0.0
C1381 C 0.83966 0.47986 0.63445 0.0
C1382 C 0.17529 0.00267 0.65426 0.0
C1383 C 0.16614 0.97459 0.6572 0.0
H1384 H 0.16541 0.043 0.63737 0.0
C1385 C 0.14161 0.96479 0.64193 0.0
H1386 H 0.19413 0.0108 0.66574 0.0
C1387 C 0.12476 0.98336 0.62612 0.0
C1388 C 0.13262 0.01191 0.62471 0.0
H1389 H 0.13392 0.94329 0.64383 0.0
H1390 H 0.10459 0.97572 0.61623 0.0
C1391 C 0.15891 0.02108 0.63788 0.0
C1392 C 0.63323 0.75994 0.90165 0.0
C1393 C 0.63563 0.75906 0.87353 0.0
H1394 H 0.62303 0.78493 0.93633 0.0
C1395 C 0.6327 0.78414 0.85897 0.0
H1396 H 0.63527 0.7409 0.9134 0.0
C1397 C 0.6261 0.80933 0.87206 0.0
C1398 C 0.62175 0.80999 0.90003 0.0
H1399 H 0.63455 0.78416 0.8373 0.0
H1400 H 0.623 0.82803 0.86001 0.0
C1401 C 0.6261 0.78513 0.91477 0.0
C1402 C 0.01889 0.13292 0.38781 0.0
C1403 C 0.99384 0.12422 0.3727 0.0
H1404 H 0.06285 0.15133 0.38748 0.0
C1405 C 0.99477 0.12672 0.3446 0.0
H1406 H 0.01883 0.13129 0.40948 0.0
C1407 C 0.01986 0.13863 0.33195 0.0
C1408 C 0.04465 0.14793 0.34714 0.0
H1409 H 0.97569 0.12037 0.33243 0.0
H1410 H 0.01971 0.14079 0.31032 0.0
C1411 C 0.04409 0.14448 0.37516 0.0
C1412 C 0.3724 0.68807 0.87166 0.0
C1413 C 0.37688 0.68692 0.8996 0.0
H1414 H 0.36382 0.71384 0.83731 0.0
C1415 C 0.37253 0.71152 0.91474 0.0
H1416 H 0.37546 0.66958 0.8593 0.0
C1417 C 0.36538 0.73694 0.90204 0.0
C1418 C 0.36291 0.73832 0.87394 0.0
H1419 H 0.3757 0.71135 0.93629 0.0
H1420 H 0.3634 0.75577 0.9141 0.0
C1421 C 0.36574 0.71349 0.85898 0.0
C1422 C 0.97869 0.36555 0.39092 0.0
C1423 C 0.00336 0.3742 0.37532 0.0
H1424 H 0.93477 0.34706 0.3915 0.0
C1425 C 0.00177 0.37146 0.34726 0.0
H1426 H 0.97926 0.36734 0.41258 0.0
C1427 C 0.9764 0.35937 0.33514 0.0
C1428 C 0.95199 0.35015 0.35083 0.0
H1429 H 0.02055 0.37774 0.33472 0.0
H1430 H 0.97603 0.35705 0.31353 0.0
C1431 C 0.95322 0.35384 0.3788 0.0
C1432 C 0.63218 0.2152 0.63908 0.0
C1433 C 0.63472 0.23988 0.62385 0.0
H1434 H 0.62222 0.17135 0.63936 0.0
C1435 C 0.63163 0.23824 0.59581 0.0
H1436 H 0.63461 0.21576 0.6607 0.0
C1437 C 0.62406 0.21272 0.58348 0.0
C1438 C 0.61989 0.18831 0.59895 0.0
H1439 H 0.63338 0.25695 0.58356 0.0
H1440 H 0.62036 0.21236 0.56201 0.0
C1441 C 0.62509 0.1897 0.62677 0.0
C1442 C 0.45012 0.14704 0.62539 0.0
C1443 C 0.44953 0.15031 0.65343 0.0
H1444 H 0.47521 0.13362 0.59105 0.0
C1445 C 0.47409 0.14048 0.66862 0.0
H1446 H 0.43154 0.15431 0.61308 0.0
C1447 C 0.49897 0.12821 0.65595 0.0
C1448 C 0.49993 0.12586 0.62785 0.0
H1449 H 0.47421 0.14247 0.69026 0.0
H1450 H 0.51786 0.12143 0.66814 0.0
C1451 C 0.47512 0.13511 0.61273 0.0
C1452 C 0.36871 0.28869 0.58748 0.0
C1453 C 0.37327 0.31336 0.60247 0.0
H1454 H 0.35957 0.24443 0.58843 0.0
C1455 C 0.36918 0.31235 0.63046 0.0
H1456 H 0.37158 0.28874 0.56591 0.0
C1457 C 0.36271 0.287 0.64332 0.0
C1458 C 0.35965 0.26209 0.62851 0.0
H1459 H 0.37243 0.3309 0.6427 0.0
H1460 H 0.36109 0.28676 0.66501 0.0
C1461 C 0.36173 0.26332 0.60038 0.0
C1462 C 0.51751 0.36691 0.611 0.0
C1463 C 0.49323 0.37581 0.62695 0.0
H1464 H 0.56107 0.34775 0.60979 0.0
C1465 C 0.49514 0.3728 0.65496 0.0
H1466 H 0.51666 0.36891 0.58936 0.0
C1467 C 0.52043 0.36022 0.66669 0.0
C1468 C 0.54445 0.35077 0.65066 0.0
H1469 H 0.47666 0.37927 0.66776 0.0
H1470 H 0.52106 0.35772 0.68828 0.0
C1471 C 0.54292 0.35471 0.62273 0.0
C1472 C 0.92023 0.55844 0.79113 0.0
C1473 C 0.92507 0.58148 0.80823 0.0
H1474 H 0.89793 0.54323 0.75582 0.0
C1475 C 0.91523 0.60821 0.80028 0.0
H1476 H 0.92741 0.53755 0.79691 0.0
C1477 C 0.89923 0.61156 0.77632 0.0
C1478 C 0.89203 0.58807 0.76049 0.0
H1479 H 0.9187 0.62625 0.81316 0.0
H1480 H 0.8904 0.63212 0.77135 0.0
C1481 C 0.90338 0.56163 0.76765 0.0
C1482 C 0.88666 0.83834 0.4567 0.0
C1483 C 0.88837 0.8304 0.48377 0.0
H1484 H 0.87159 0.82742 0.41732 0.0
C1485 C 0.88069 0.80276 0.49098 0.0
H1486 H 0.89263 0.85945 0.45059 0.0
C1487 C 0.86802 0.78456 0.47205 0.0
C1488 C 0.86357 0.79348 0.44549 0.0
H1489 H 0.8818 0.79605 0.51173 0.0
H1490 H 0.85961 0.76435 0.47866 0.0
C1491 C 0.87478 0.81987 0.43763 0.0
C1492 C 0.09493 0.94079 0.77119 0.0
C1493 C 0.10619 0.91432 0.76404 0.0
H1494 H 0.07001 0.96473 0.79994 0.0
C1495 C 0.09801 0.89069 0.77929 0.0
H1496 H 0.1011 0.95929 0.75979 0.0
C1497 C 0.08106 0.89389 0.80272 0.0
C1498 C 0.07124 0.9206 0.81068 0.0
H1499 H 0.10672 0.87009 0.77431 0.0
H1500 H 0.07679 0.8757 0.81521 0.0
C1501 C 0.07714 0.94384 0.79411 0.0
C1502 C 0.10938 0.69038 0.48144 0.0
C1503 C 0.10397 0.66237 0.47385 0.0
H1504 H 0.12843 0.73003 0.47011 0.0
C1505 C 0.10727 0.6548 0.44681 0.0
H1506 H 0.10704 0.69686 0.50217 0.0
C1507 C 0.1187 0.67411 0.42827 0.0
C1508 C 0.12788 0.701 0.43669 0.0
H1509 H 0.10313 0.63341 0.44039 0.0
H1510 H 0.12327 0.66691 0.40806 0.0
C1511 C 0.12163 0.70945 0.46309 0.0
C1512 C 0.8985 0.38916 0.7231 0.0
C1513 C 0.89055 0.41286 0.73835 0.0
H1514 H 0.91955 0.374 0.68717 0.0
C1515 C 0.90214 0.43922 0.73122 0.0
H1516 H 0.88953 0.36864 0.72805 0.0
C1517 C 0.91997 0.44212 0.7083 0.0
C1518 C 0.9256 0.41885 0.69169 0.0
H1519 H 0.89615 0.45778 0.74261 0.0
H1520 H 0.92731 0.46295 0.70247 0.0
C1521 C 0.9155 0.39221 0.69967 0.0
C1522 C 0.61379 0.8022 0.511 0.0
C1523 C 0.60591 0.82977 0.51826 0.0
H1524 H 0.63517 0.76392 0.52327 0.0
C1525 C 0.60756 0.83768 0.54533 0.0
H1526 H 0.61274 0.79552 0.49025 0.0
C1527 C 0.61958 0.81927 0.56438 0.0
C1528 C 0.63099 0.79297 0.55648 0.0
H1529 H 0.60144 0.85875 0.55148 0.0
H1530 H 0.6227 0.82681 0.5847 0.0
C1531 C 0.62661 0.78406 0.52991 0.0
C1532 C 0.07574 0.05903 0.70997 0.0
C1533 C 0.07061 0.082 0.69285 0.0
H1534 H 0.09838 0.04405 0.74519 0.0
C1535 C 0.08034 0.1088 0.70068 0.0
H1536 H 0.06866 0.03808 0.70427 0.0
C1537 C 0.09648 0.11231 0.72454 0.0
C1538 C 0.10395 0.08891 0.74038 0.0
H1539 H 0.07665 0.12679 0.68778 0.0
H1540 H 0.1052 0.13295 0.72943 0.0
C1541 C 0.09274 0.06238 0.73334 0.0
C1542 C 0.38079 0.69847 0.51041 0.0
C1543 C 0.3874 0.67055 0.51746 0.0
H1544 H 0.36199 0.73774 0.52318 0.0
C1545 C 0.38576 0.66257 0.5445 0.0
H1546 H 0.38188 0.70521 0.48968 0.0
C1547 C 0.37515 0.68143 0.56379 0.0
C1548 C 0.36517 0.70835 0.55622 0.0
H1549 H 0.39095 0.64125 0.55051 0.0
H1550 H 0.37217 0.67395 0.58414 0.0
C1551 C 0.36943 0.71714 0.52959 0.0
C1552 C 0.79853 0.87132 0.59746 0.0
C1553 C 0.79838 0.87777 0.56997 0.0
H1554 H 0.77558 0.85087 0.62987 0.0
C1555 C 0.77304 0.87098 0.55439 0.0
H1556 H 0.81786 0.87652 0.60982 0.0
C1557 C 0.74929 0.85575 0.56569 0.0
C1558 C 0.75012 0.84811 0.59289 0.0
H1559 H 0.77255 0.8757 0.53313 0.0
H1560 H 0.73093 0.84882 0.55293 0.0
C1561 C 0.77429 0.85696 0.60896 0.0
C1562 C 0.79592 0.15813 0.93835 0.0
C1563 C 0.79549 0.1289 0.93531 0.0
H1564 H 0.77475 0.19712 0.92967 0.0
C1565 C 0.77191 0.11628 0.92074 0.0
H1566 H 0.81371 0.16839 0.94962 0.0
C1567 C 0.74954 0.13297 0.90871 0.0
C1568 C 0.75019 0.1623 0.9118 0.0
H1569 H 0.77122 0.09372 0.91809 0.0
H1570 H 0.7318 0.12301 0.89717 0.0
C1571 C 0.77345 0.17457 0.92698 0.0
C1572 C 0.31976 0.0012 0.3479 0.0
C1573 C 0.32913 0.97316 0.34524 0.0
H1574 H 0.3293 0.04177 0.36442 0.0
C1575 C 0.35363 0.96366 0.36072 0.0
H1576 H 0.30094 0.0091 0.33626 0.0
C1577 C 0.37028 0.9825 0.3764 0.0
C1578 C 0.36225 0.01102 0.37747 0.0
H1579 H 0.36147 0.94219 0.35903 0.0
H1580 H 0.39047 0.9751 0.38642 0.0
C1581 C 0.33594 0.01988 0.36416 0.0
C1582 C 0.2213 0.35811 0.89306 0.0
C1583 C 0.24547 0.34917 0.90908 0.0
H1584 H 0.17774 0.37765 0.89229 0.0
C1585 C 0.24629 0.35665 0.93633 0.0
H1586 H 0.22003 0.35215 0.87211 0.0
C1587 C 0.22252 0.37178 0.9477 0.0
C1588 C 0.1972 0.37866 0.93215 0.0
H1589 H 0.26464 0.34964 0.94905 0.0
H1590 H 0.223 0.37637 0.96899 0.0
C1591 C 0.19706 0.37238 0.90463 0.0
C1592 C 0.12185 0.01911 0.87894 0.0
C1593 C 0.13005 0.99065 0.88022 0.0
H1594 H 0.13065 0.0594 0.86154 0.0
C1595 C 0.15657 0.98187 0.86722 0.0
H1596 H 0.10149 0.02644 0.8887 0.0
C1597 C 0.17286 0.00057 0.85108 0.0
C1598 C 0.16337 0.02856 0.84823 0.0
H1599 H 0.16334 0.96002 0.86764 0.0
H1600 H 0.19188 0.99273 0.83969 0.0
C1601 C 0.1386 0.03798 0.86338 0.0
C1602 C 0.69664 0.15813 0.06423 0.0
C1603 C 0.69748 0.12883 0.06653 0.0
H1604 H 0.71752 0.19712 0.07355 0.0
C1605 C 0.72141 0.11613 0.08059 0.0
H1606 H 0.67859 0.16848 0.05339 0.0
C1607 C 0.74375 0.13276 0.09275 0.0
C1608 C 0.74275 0.16215 0.09029 0.0
H1609 H 0.72242 0.09351 0.08269 0.0
H1610 H 0.76181 0.12273 0.10382 0.0
C1611 C 0.71909 0.17453 0.07572 0.0
C1612 C 0.33778 0.97883 0.13392 0.0
C1613 C 0.36421 0.98771 0.12084 0.0
H1614 H 0.3025 0.9896 0.1615 0.0
C1615 C 0.3722 0.01624 0.12194 0.0
H1616 H 0.33116 0.95693 0.13362 0.0
C1617 C 0.35539 0.03507 0.13746 0.0
C1618 C 0.33076 0.02556 0.15274 0.0
H1619 H 0.39249 0.02365 0.1121 0.0
H1620 H 0.36322 0.05655 0.1392 0.0
C1621 C 0.32143 0.9975 0.15001 0.0
C1622 C 0.64203 0.46527 0.14205 0.0
C1623 C 0.66643 0.47512 0.15746 0.0
H1624 H 0.60512 0.47613 0.1162 0.0
C1625 C 0.67548 0.50324 0.15461 0.0
H1626 H 0.63441 0.44374 0.14389 0.0
C1627 C 0.65913 0.52162 0.13819 0.0
C1628 C 0.63295 0.51239 0.12488 0.0
H1629 H 0.69421 0.51141 0.16621 0.0
H1630 H 0.66555 0.54357 0.13775 0.0
C1631 C 0.6252 0.48382 0.12619 0.0
loop_
_geom_bond_atom_site_label_1
_geom_bond_atom_site_label_2
_geom_bond_distance
_geom_bond_site_symmetry_2
_ccdc_geom_bond_type
O0 Cd1 2.223 . S
O0 C8 1.315 . S
Cd1 O0 2.223 . S
Cd1 O4 2.297 . S
Cd1 O5 2.439 . S
Cd1 O11 2.240 . S
Cd2 O3 2.240 . S
Cd2 O10 2.223 . S
Cd2 O12 2.297 . S
Cd2 O13 2.439 . S
O3 Cd2 2.240 . S
O3 C8 1.279 . S
O4 Cd1 2.297 . S
O4 C6 1.247 . S
O5 Cd1 2.439 . S
O5 C6 1.208 . S
C6 O4 1.247 . S
C6 O5 1.208 . S
C7 O12 1.247 . S
C7 O13 1.208 . S
C8 O0 1.315 . S
C8 O3 1.279 . S
C9 O10 1.315 . S
C9 O11 1.279 . S
O10 Cd2 2.223 . S
O10 C9 1.315 . S
O11 Cd1 2.240 . S
O11 C9 1.279 . S
O12 Cd2 2.297 . S
O12 C7 1.247 . S
O13 Cd2 2.439 . S
O13 C7 1.208 . S
O14 Cd15 2.223 . S
O14 C22 1.315 . S
Cd15 O14 2.223 . S
Cd15 O18 2.297 . S
Cd15 O19 2.439 . S
Cd15 O25 2.240 . S
Cd16 O17 2.240 . S
Cd16 O24 2.223 . S
Cd16 O26 2.297 . S
Cd16 O27 2.439 . S
O17 Cd16 2.240 . S
O17 C22 1.279 . S
O18 Cd15 2.297 . S
O18 C20 1.247 . S
O19 Cd15 2.439 . S
O19 C20 1.208 . S
C20 O18 1.247 . S
C20 O19 1.208 . S
C21 O26 1.247 . S
C21 O27 1.208 . S
C22 O14 1.315 . S
C22 O17 1.279 . S
C23 O24 1.315 . S
C23 O25 1.279 . S
O24 Cd16 2.223 . S
O24 C23 1.315 . S
O25 Cd15 2.240 . S
O25 C23 1.279 . S
O26 Cd16 2.297 . S
O26 C21 1.247 . S
O27 Cd16 2.439 . S
O27 C21 1.208 . S
O28 Cd29 2.223 . S
O28 C36 1.315 . S
Cd29 O28 2.223 . S
Cd29 O32 2.297 . S
Cd29 O33 2.439 . S
Cd29 O39 2.240 . S
Cd30 O31 2.240 . S
Cd30 O38 2.223 . S
Cd30 O40 2.297 . S
Cd30 O41 2.439 . S
O31 Cd30 2.240 . S
O31 C36 1.279 . S
O32 Cd29 2.297 . S
O32 C34 1.247 . S
O33 Cd29 2.439 . S
O33 C34 1.208 . S
C34 O32 1.247 . S
C34 O33 1.208 . S
C35 O40 1.247 . S
C35 O41 1.208 . S
C36 O28 1.315 . S
C36 O31 1.279 . S
C37 O38 1.315 . S
C37 O39 1.279 . S
O38 Cd30 2.223 . S
O38 C37 1.315 . S
O39 Cd29 2.240 . S
O39 C37 1.279 . S
O40 Cd30 2.297 . S
O40 C35 1.247 . S
O41 Cd30 2.439 . S
O41 C35 1.208 . S
O42 Cd43 2.223 . S
O42 C50 1.315 . S
Cd43 O42 2.223 . S
Cd43 O46 2.297 . S
Cd43 O47 2.439 . S
Cd43 O53 2.240 . S
Cd44 O45 2.240 . S
Cd44 O52 2.223 . S
Cd44 O54 2.297 . S
Cd44 O55 2.439 . S
O45 Cd44 2.240 . S
O45 C50 1.279 . S
O46 Cd43 2.297 . S
O46 C48 1.247 . S
O47 Cd43 2.439 . S
O47 C48 1.208 . S
C48 O46 1.247 . S
C48 O47 1.208 . S
C49 O54 1.247 . S
C49 O55 1.208 . S
C50 O42 1.315 . S
C50 O45 1.279 . S
C51 O52 1.315 . S
C51 O53 1.279 . S
O52 Cd44 2.223 . S
O52 C51 1.315 . S
O53 Cd43 2.240 . S
O53 C51 1.279 . S
O54 Cd44 2.297 . S
O54 C49 1.247 . S
O55 Cd44 2.439 . S
O55 C49 1.208 . S
O56 Cd57 2.223 . S
O56 C64 1.315 . S
Cd57 O56 2.223 . S
Cd57 O60 2.297 . S
Cd57 O61 2.439 . S
Cd57 O67 2.240 . S
Cd58 O59 2.240 . S
Cd58 O66 2.223 . S
Cd58 O68 2.297 . S
Cd58 O69 2.439 . S
O59 Cd58 2.240 . S
O59 C64 1.279 . S
O60 Cd57 2.297 . S
O60 C62 1.247 . S
O61 Cd57 2.439 . S
O61 C62 1.208 . S
C62 O60 1.247 . S
C62 O61 1.208 . S
C63 O68 1.247 . S
C63 O69 1.208 . S
C64 O56 1.315 . S
C64 O59 1.279 . S
C65 O66 1.315 . S
C65 O67 1.279 . S
O66 Cd58 2.223 . S
O66 C65 1.315 . S
O67 Cd57 2.240 . S
O67 C65 1.279 . S
O68 Cd58 2.297 . S
O68 C63 1.247 . S
O69 Cd58 2.439 . S
O69 C63 1.208 . S
O70 Cd71 2.223 1_455 S
O70 C78 1.315 . S
Cd71 O70 2.223 1_655 S
Cd71 O74 2.297 . S
Cd71 O75 2.439 . S
Cd71 O81 2.240 1_655 S
Cd72 O73 2.240 . S
Cd72 O80 2.223 . S
Cd72 O82 2.297 1_454 S
Cd72 O83 2.439 1_455 S
O73 Cd72 2.240 . S
O73 C78 1.279 . S
O74 Cd71 2.297 . S
O74 C76 1.247 . S
O75 Cd71 2.439 . S
O75 C76 1.208 . S
C76 O74 1.247 . S
C76 O75 1.208 . S
C77 O82 1.237 1_554 S
C77 O83 1.243 . S
C78 O70 1.315 . S
C78 O73 1.279 . S
C79 O80 1.315 . S
C79 O81 1.279 . S
O80 Cd72 2.223 . S
O80 C79 1.315 . S
O81 Cd71 2.240 1_455 S
O81 C79 1.279 . S
O82 Cd72 2.297 1_656 S
O82 C77 1.237 1_556 S
O83 Cd72 2.439 1_655 S
O83 C77 1.243 . S
O84 Cd85 2.223 . S
O84 C92 1.315 . S
Cd85 O84 2.223 . S
Cd85 O88 2.297 . S
Cd85 O89 2.439 . S
Cd85 O95 2.240 . S
Cd86 O87 2.240 . S
Cd86 O94 2.223 . S
Cd86 O96 2.297 . S
Cd86 O97 2.439 . S
O87 Cd86 2.240 . S
O87 C92 1.279 . S
O88 Cd85 2.297 . S
O88 C90 1.247 . S
O89 Cd85 2.439 . S
O89 C90 1.208 . S
C90 O88 1.247 . S
C90 O89 1.208 . S
C91 O96 1.247 . S
C91 O97 1.208 . S
C92 O84 1.315 . S
C92 O87 1.279 . S
C93 O94 1.315 . S
C93 O95 1.279 . S
O94 Cd86 2.223 . S
O94 C93 1.315 . S
O95 Cd85 2.240 . S
O95 C93 1.279 . S
O96 Cd86 2.297 . S
O96 C91 1.247 . S
O97 Cd86 2.439 . S
O97 C91 1.208 . S
O98 Cd99 2.223 1_655 S
O98 C106 1.315 . S
Cd99 O98 2.223 1_455 S
Cd99 O102 2.297 . S
Cd99 O103 2.439 . S
Cd99 O109 2.240 1_455 S
Cd100 O101 2.240 . S
Cd100 O108 2.223 . S
Cd100 O110 2.297 1_654 S
Cd100 O111 2.439 1_655 S
O101 Cd100 2.240 . S
O101 C106 1.279 . S
O102 Cd99 2.297 . S
O102 C104 1.247 . S
O103 Cd99 2.439 . S
O103 C104 1.208 . S
C104 O102 1.247 . S
C104 O103 1.208 . S
C105 O110 1.247 1_554 S
C105 O111 1.208 . S
C106 O98 1.315 . S
C106 O101 1.279 . S
C107 O108 1.315 . S
C107 O109 1.279 . S
O108 Cd100 2.223 . S
O108 C107 1.315 . S
O109 Cd99 2.240 1_655 S
O109 C107 1.279 . S
O110 Cd100 2.297 1_456 S
O110 C105 1.247 1_556 S
O111 Cd100 2.439 1_455 S
O111 C105 1.208 . S
O112 Cd113 2.223 . S
O112 C120 1.315 . S
Cd113 O112 2.223 . S
Cd113 O116 2.297 . S
Cd113 O117 2.439 . S
Cd113 O123 2.240 . S
Cd114 O115 2.240 . S
Cd114 O122 2.223 . S
Cd114 O124 2.297 . S
Cd114 O125 2.439 . S
O115 Cd114 2.240 . S
O115 C120 1.279 . S
O116 Cd113 2.297 . S
O116 C118 1.247 . S
O117 Cd113 2.439 . S
O117 C118 1.208 . S
C118 O116 1.247 . S
C118 O117 1.208 . S
C119 O124 1.247 . S
C119 O125 1.208 . S
C120 O112 1.315 . S
C120 O115 1.279 . S
C121 O122 1.315 . S
C121 O123 1.279 . S
O122 Cd114 2.223 . S
O122 C121 1.315 . S
O123 Cd113 2.240 . S
O123 C121 1.279 . S
O124 Cd114 2.297 . S
O124 C119 1.247 . S
O125 Cd114 2.439 . S
O125 C119 1.208 . S
O126 Cd127 2.223 1_554 S
O126 C134 1.315 . S
Cd127 O126 2.223 1_556 S
Cd127 O130 2.297 . S
Cd127 O131 2.439 . S
Cd127 O137 2.240 1_556 S
Cd128 O129 2.240 . S
Cd128 O136 2.223 . S
Cd128 O138 2.306 . S
Cd128 O139 2.439 1_554 S
O129 Cd128 2.240 . S
O129 C134 1.279 . S
O130 Cd127 2.297 . S
O130 C132 1.247 . S
O131 Cd127 2.439 . S
O131 C132 1.208 . S
C132 O130 1.247 . S
C132 O131 1.208 . S
C133 O138 1.226 1_556 S
C133 O139 1.208 . S
C134 O126 1.315 . S
C134 O129 1.279 . S
C135 O136 1.315 . S
C135 O137 1.279 . S
O136 Cd128 2.223 . S
O136 C135 1.315 . S
O137 Cd127 2.240 1_554 S
O137 C135 1.279 . S
O138 Cd128 2.306 . S
O138 C133 1.226 1_554 S
O139 Cd128 2.439 1_556 S
O139 C133 1.208 . S
O140 Cd141 2.223 . S
O140 C148 1.315 . S
Cd141 O140 2.223 . S
Cd141 O144 2.297 . S
Cd141 O145 2.439 . S
Cd141 O151 2.240 . S
Cd142 O143 2.240 . S
Cd142 O150 2.223 . S
Cd142 O152 2.297 . S
Cd142 O153 2.439 . S
O143 Cd142 2.240 . S
O143 C148 1.279 . S
O144 Cd141 2.297 . S
O144 C146 1.247 . S
O145 Cd141 2.439 . S
O145 C146 1.208 . S
C146 O144 1.247 . S
C146 O145 1.208 . S
C147 O152 1.247 . S
C147 O153 1.208 . S
C148 O140 1.315 . S
C148 O143 1.279 . S
C149 O150 1.315 . S
C149 O151 1.279 . S
O150 Cd142 2.223 . S
O150 C149 1.315 . S
O151 Cd141 2.240 . S
O151 C149 1.279 . S
O152 Cd142 2.297 . S
O152 C147 1.247 . S
O153 Cd142 2.439 . S
O153 C147 1.208 . S
O154 Cd155 2.223 1_554 S
O154 C162 1.315 . S
Cd155 O154 2.223 1_556 S
Cd155 O158 2.297 . S
Cd155 O159 2.439 . S
Cd155 O165 2.240 1_556 S
Cd156 O157 2.240 . S
Cd156 O164 2.223 . S
Cd156 O166 2.305 . S
Cd156 O167 2.439 1_554 S
O157 Cd156 2.240 . S
O157 C162 1.279 . S
O158 Cd155 2.297 . S
O158 C160 1.247 . S
O159 Cd155 2.439 . S
O159 C160 1.208 . S
C160 O158 1.247 . S
C160 O159 1.208 . S
C161 O166 1.228 1_556 S
C161 O167 1.208 . S
C162 O154 1.315 . S
C162 O157 1.279 . S
C163 O164 1.315 . S
C163 O165 1.279 . S
O164 Cd156 2.223 . S
O164 C163 1.315 . S
O165 Cd155 2.240 1_554 S
O165 C163 1.279 . S
O166 Cd156 2.305 . S
O166 C161 1.228 1_554 S
O167 Cd156 2.439 1_556 S
O167 C161 1.208 . S
O168 Cd169 2.223 . S
O168 C176 1.315 . S
Cd169 O168 2.223 . S
Cd169 O172 2.297 . S
Cd169 O173 2.439 . S
Cd169 O179 2.240 . S
Cd170 O171 2.240 . S
Cd170 O178 2.223 . S
Cd170 O180 2.297 . S
Cd170 O181 2.439 . S
O171 Cd170 2.240 . S
O171 C176 1.279 . S
O172 Cd169 2.297 . S
O172 C174 1.247 . S
O173 Cd169 2.439 . S
O173 C174 1.208 . S
C174 O172 1.247 . S
C174 O173 1.208 . S
C175 O180 1.247 . S
C175 O181 1.208 . S
C176 O168 1.315 . S
C176 O171 1.279 . S
C177 O178 1.315 . S
C177 O179 1.279 . S
O178 Cd170 2.223 . S
O178 C177 1.315 . S
O179 Cd169 2.240 . S
O179 C177 1.279 . S
O180 Cd170 2.297 . S
O180 C175 1.247 . S
O181 Cd170 2.439 . S
O181 C175 1.208 . S
O182 Cd183 2.223 1_556 S
O182 C190 1.315 . S
Cd183 O182 2.223 1_554 S
Cd183 O186 2.297 . S
Cd183 O187 2.439 . S
Cd183 O193 2.240 1_554 S
Cd184 O185 2.240 . S
Cd184 O192 2.223 . S
Cd184 O194 2.297 . S
Cd184 O195 2.439 1_556 S
O185 Cd184 2.240 . S
O185 C190 1.279 . S
O186 Cd183 2.297 . S
O186 C188 1.247 . S
O187 Cd183 2.439 . S
O187 C188 1.208 . S
C188 O186 1.247 . S
C188 O187 1.208 . S
C189 O194 1.247 1_554 S
C189 O195 1.208 . S
C190 O182 1.315 . S
C190 O185 1.279 . S
C191 O192 1.315 . S
C191 O193 1.279 . S
O192 Cd184 2.223 . S
O192 C191 1.315 . S
O193 Cd183 2.240 1_556 S
O193 C191 1.279 . S
O194 Cd184 2.297 . S
O194 C189 1.247 1_556 S
O195 Cd184 2.439 1_554 S
O195 C189 1.208 . S
O196 Cd197 2.223 . S
O196 C204 1.315 . S
Cd197 O196 2.223 . S
Cd197 O200 2.297 . S
Cd197 O201 2.439 . S
Cd197 O207 2.240 . S
Cd198 O199 2.240 . S
Cd198 O206 2.223 . S
Cd198 O208 2.297 . S
Cd198 O209 2.439 . S
O199 Cd198 2.240 . S
O199 C204 1.279 . S
O200 Cd197 2.297 . S
O200 C202 1.247 . S
O201 Cd197 2.439 . S
O201 C202 1.208 . S
C202 O200 1.247 . S
C202 O201 1.208 . S
C203 O208 1.247 . S
C203 O209 1.208 . S
C204 O196 1.315 . S
C204 O199 1.279 . S
C205 O206 1.315 . S
C205 O207 1.279 . S
O206 Cd198 2.223 . S
O206 C205 1.315 . S
O207 Cd197 2.240 . S
O207 C205 1.279 . S
O208 Cd198 2.297 . S
O208 C203 1.247 . S
O209 Cd198 2.439 . S
O209 C203 1.208 . S
O210 Cd211 2.223 1_556 S
O210 C218 1.315 . S
Cd211 O210 2.223 1_554 S
Cd211 O214 2.297 . S
Cd211 O215 2.439 . S
Cd211 O221 2.240 1_554 S
Cd212 O213 2.240 . S
Cd212 O220 2.223 . S
Cd212 O222 2.297 . S
Cd212 O223 2.439 1_556 S
O213 Cd212 2.240 . S
O213 C218 1.279 . S
O214 Cd211 2.297 . S
O214 C216 1.247 . S
O215 Cd211 2.439 . S
O215 C216 1.208 . S
C216 O214 1.247 . S
C216 O215 1.208 . S
C217 O222 1.247 1_554 S
C217 O223 1.208 . S
C218 O210 1.315 . S
C218 O213 1.279 . S
C219 O220 1.315 . S
C219 O221 1.279 . S
O220 Cd212 2.223 . S
O220 C219 1.315 . S
O221 Cd211 2.240 1_556 S
O221 C219 1.279 . S
O222 Cd212 2.297 . S
O222 C217 1.247 1_556 S
O223 Cd212 2.439 1_554 S
O223 C217 1.208 . S
O224 Cd225 2.223 . S
O224 C232 1.315 . S
Cd225 O224 2.223 . S
Cd225 O228 2.297 . S
Cd225 O229 2.439 . S
Cd225 O235 2.240 . S
Cd226 O227 2.240 . S
Cd226 O234 2.223 . S
Cd226 O236 2.297 . S
Cd226 O237 2.439 . S
O227 Cd226 2.240 . S
O227 C232 1.279 . S
O228 Cd225 2.297 . S
O228 C230 1.247 . S
O229 Cd225 2.439 . S
O229 C230 1.208 . S
C230 O228 1.247 . S
C230 O229 1.208 . S
C231 O236 1.247 . S
C231 O237 1.208 . S
C232 O224 1.315 . S
C232 O227 1.279 . S
C233 O234 1.315 . S
C233 O235 1.279 . S
O234 Cd226 2.223 . S
O234 C233 1.315 . S
O235 Cd225 2.240 . S
O235 C233 1.279 . S
O236 Cd226 2.297 . S
O236 C231 1.247 . S
O237 Cd226 2.439 . S
O237 C231 1.208 . S
O238 Cd239 2.223 . S
O238 C246 1.315 . S
Cd239 O238 2.223 . S
Cd239 O242 2.297 . S
Cd239 O243 2.439 . S
Cd239 O249 2.240 . S
Cd240 O241 2.240 . S
Cd240 O248 2.223 . S
Cd240 O250 2.297 . S
Cd240 O251 2.439 . S
O241 Cd240 2.240 . S
O241 C246 1.279 . S
O242 Cd239 2.297 . S
O242 C244 1.247 . S
O243 Cd239 2.439 . S
O243 C244 1.208 . S
C244 O242 1.247 . S
C244 O243 1.208 . S
C245 O250 1.247 . S
C245 O251 1.208 . S
C246 O238 1.315 . S
C246 O241 1.279 . S
C247 O248 1.315 . S
C247 O249 1.279 . S
O248 Cd240 2.223 . S
O248 C247 1.315 . S
O249 Cd239 2.240 . S
O249 C247 1.279 . S
O250 Cd240 2.297 . S
O250 C245 1.247 . S
O251 Cd240 2.439 . S
O251 C245 1.208 . S
O252 Cd253 2.223 . S
O252 C260 1.315 . S
Cd253 O252 2.223 . S
Cd253 O256 2.297 . S
Cd253 O257 2.439 . S
Cd253 O263 2.240 . S
Cd254 O255 2.240 . S
Cd254 O262 2.223 . S
Cd254 O264 2.297 . S
Cd254 O265 2.439 . S
O255 Cd254 2.240 . S
O255 C260 1.279 . S
O256 Cd253 2.297 . S
O256 C258 1.247 . S
O257 Cd253 2.439 . S
O257 C258 1.208 . S
C258 O256 1.247 . S
C258 O257 1.208 . S
C259 O264 1.247 . S
C259 O265 1.208 . S
C260 O252 1.315 . S
C260 O255 1.279 . S
C261 O262 1.315 . S
C261 O263 1.279 . S
O262 Cd254 2.223 . S
O262 C261 1.315 . S
O263 Cd253 2.240 . S
O263 C261 1.279 . S
O264 Cd254 2.297 . S
O264 C259 1.247 . S
O265 Cd254 2.439 . S
O265 C259 1.208 . S
O266 Cd267 2.223 . S
O266 C274 1.315 . S
Cd267 O266 2.223 . S
Cd267 O270 2.297 . S
Cd267 O271 2.439 . S
Cd267 O277 2.240 . S
Cd268 O269 2.240 . S
Cd268 O276 2.223 . S
Cd268 O278 2.297 . S
Cd268 O279 2.439 . S
O269 Cd268 2.240 . S
O269 C274 1.279 . S
O270 Cd267 2.297 . S
O270 C272 1.247 . S
O271 Cd267 2.439 . S
O271 C272 1.208 . S
C272 O270 1.247 . S
C272 O271 1.208 . S
C273 O278 1.247 . S
C273 O279 1.208 . S
C274 O266 1.315 . S
C274 O269 1.279 . S
C275 O276 1.315 . S
C275 O277 1.279 . S
O276 Cd268 2.223 . S
O276 C275 1.315 . S
O277 Cd267 2.240 . S
O277 C275 1.279 . S
O278 Cd268 2.297 . S
O278 C273 1.247 . S
O279 Cd268 2.439 . S
O279 C273 1.208 . S
O280 Cd281 2.223 . S
O280 C288 1.315 . S
Cd281 O280 2.223 . S
Cd281 O284 2.297 . S
Cd281 O285 2.439 . S
Cd281 O291 2.240 . S
Cd282 O283 2.240 . S
Cd282 O290 2.223 . S
Cd282 O292 2.297 . S
Cd282 O293 2.439 . S
O283 Cd282 2.240 . S
O283 C288 1.279 . S
O284 Cd281 2.297 . S
O284 C286 1.247 . S
O285 Cd281 2.439 . S
O285 C286 1.208 . S
C286 O284 1.247 . S
C286 O285 1.208 . S
C287 O292 1.247 . S
C287 O293 1.208 . S
C288 O280 1.315 . S
C288 O283 1.279 . S
C289 O290 1.315 . S
C289 O291 1.279 . S
O290 Cd282 2.223 . S
O290 C289 1.315 . S
O291 Cd281 2.240 . S
O291 C289 1.279 . S
O292 Cd282 2.297 . S
O292 C287 1.247 . S
O293 Cd282 2.439 . S
O293 C287 1.208 . S
O294 Cd295 2.223 . S
O294 C302 1.315 . S
Cd295 O294 2.223 . S
Cd295 O298 2.297 . S
Cd295 O299 2.439 . S
Cd295 O305 2.240 . S
Cd296 O297 2.240 . S
Cd296 O304 2.223 . S
Cd296 O306 2.297 . S
Cd296 O307 2.439 . S
O297 Cd296 2.240 . S
O297 C302 1.279 . S
O298 Cd295 2.297 . S
O298 C300 1.247 . S
O299 Cd295 2.439 . S
O299 C300 1.208 . S
C300 O298 1.247 . S
C300 O299 1.208 . S
C301 O306 1.247 . S
C301 O307 1.208 . S
C302 O294 1.315 . S
C302 O297 1.279 . S
C303 O304 1.315 . S
C303 O305 1.279 . S
O304 Cd296 2.223 . S
O304 C303 1.315 . S
O305 Cd295 2.240 . S
O305 C303 1.279 . S
O306 Cd296 2.297 . S
O306 C301 1.247 . S
O307 Cd296 2.439 . S
O307 C301 1.208 . S
O308 Cd309 2.223 . S
O308 C316 1.315 . S
Cd309 O308 2.223 . S
Cd309 O312 2.297 . S
Cd309 O313 2.439 . S
Cd309 O319 2.240 . S
Cd310 O311 2.240 . S
Cd310 O318 2.223 . S
Cd310 O320 2.297 . S
Cd310 O321 2.439 . S
O311 Cd310 2.240 . S
O311 C316 1.279 . S
O312 Cd309 2.297 . S
O312 C314 1.247 . S
O313 Cd309 2.439 . S
O313 C314 1.208 . S
C314 O312 1.247 . S
C314 O313 1.208 . S
C315 O320 1.247 . S
C315 O321 1.208 . S
C316 O308 1.315 . S
C316 O311 1.279 . S
C317 O318 1.315 . S
C317 O319 1.279 . S
O318 Cd310 2.223 . S
O318 C317 1.315 . S
O319 Cd309 2.240 . S
O319 C317 1.279 . S
O320 Cd310 2.297 . S
O320 C315 1.247 . S
O321 Cd310 2.439 . S
O321 C315 1.208 . S
O322 Cd323 2.223 1_545 S
O322 C330 1.315 . S
Cd323 O322 2.223 1_565 S
Cd323 O326 2.297 . S
Cd323 O327 2.439 . S
Cd323 O333 2.240 1_565 S
Cd324 O325 2.240 . S
Cd324 O332 2.223 . S
Cd324 O334 2.297 1_545 S
Cd324 O335 2.439 1_545 S
O325 Cd324 2.240 . S
O325 C330 1.279 . S
O326 Cd323 2.297 . S
O326 C328 1.247 . S
O327 Cd323 2.439 . S
O327 C328 1.208 . S
C328 O326 1.247 . S
C328 O327 1.208 . S
C329 O334 1.247 . S
C329 O335 1.208 . S
C330 O322 1.315 . S
C330 O325 1.279 . S
C331 O332 1.315 . S
C331 O333 1.279 . S
O332 Cd324 2.223 . S
O332 C331 1.315 . S
O333 Cd323 2.240 1_545 S
O333 C331 1.279 . S
O334 Cd324 2.297 1_565 S
O334 C329 1.247 . S
O335 Cd324 2.439 1_565 S
O335 C329 1.208 . S
O336 Cd337 2.223 . S
O336 C344 1.315 . S
Cd337 O336 2.223 . S
Cd337 O340 2.297 . S
Cd337 O341 2.439 . S
Cd337 O347 2.240 . S
Cd338 O339 2.240 . S
Cd338 O346 2.223 . S
Cd338 O348 2.297 . S
Cd338 O349 2.439 . S
O339 Cd338 2.240 . S
O339 C344 1.279 . S
O340 Cd337 2.297 . S
O340 C342 1.247 . S
O341 Cd337 2.439 . S
O341 C342 1.208 . S
C342 O340 1.247 . S
C342 O341 1.208 . S
C343 O348 1.247 . S
C343 O349 1.208 . S
C344 O336 1.315 . S
C344 O339 1.279 . S
C345 O346 1.315 . S
C345 O347 1.279 . S
O346 Cd338 2.223 . S
O346 C345 1.315 . S
O347 Cd337 2.240 . S
O347 C345 1.279 . S
O348 Cd338 2.297 . S
O348 C343 1.247 . S
O349 Cd338 2.439 . S
O349 C343 1.208 . S
O350 Cd351 2.223 1_655 S
O350 C358 1.315 . S
Cd351 O350 2.223 1_455 S
Cd351 O354 2.297 . S
Cd351 O355 2.439 . S
Cd351 O361 2.240 1_455 S
Cd352 O353 2.240 . S
Cd352 O360 2.223 . S
Cd352 O362 2.297 1_655 S
Cd352 O363 2.439 1_655 S
O353 Cd352 2.240 . S
O353 C358 1.279 . S
O354 Cd351 2.297 . S
O354 C356 1.247 . S
O355 Cd351 2.439 . S
O355 C356 1.208 . S
C356 O354 1.247 . S
C356 O355 1.208 . S
C357 O362 1.247 . S
C357 O363 1.208 . S
C358 O350 1.315 . S
C358 O353 1.279 . S
C359 O360 1.315 . S
C359 O361 1.279 . S
O360 Cd352 2.223 . S
O360 C359 1.315 . S
O361 Cd351 2.240 1_655 S
O361 C359 1.279 . S
O362 Cd352 2.297 1_455 S
O362 C357 1.247 . S
O363 Cd352 2.439 1_455 S
O363 C357 1.208 . S
O364 Cd365 2.223 . S
O364 C372 1.315 . S
Cd365 O364 2.223 . S
Cd365 O368 2.297 . S
Cd365 O369 2.439 . S
Cd365 O375 2.240 . S
Cd366 O367 2.240 . S
Cd366 O374 2.223 . S
Cd366 O376 2.297 . S
Cd366 O377 2.439 . S
O367 Cd366 2.240 . S
O367 C372 1.279 . S
O368 Cd365 2.297 . S
O368 C370 1.247 . S
O369 Cd365 2.439 . S
O369 C370 1.208 . S
C370 O368 1.247 . S
C370 O369 1.208 . S
C371 O376 1.247 . S
C371 O377 1.208 . S
C372 O364 1.315 . S
C372 O367 1.279 . S
C373 O374 1.315 . S
C373 O375 1.279 . S
O374 Cd366 2.223 . S
O374 C373 1.315 . S
O375 Cd365 2.240 . S
O375 C373 1.279 . S
O376 Cd366 2.297 . S
O376 C371 1.247 . S
O377 Cd366 2.439 . S
O377 C371 1.208 . S
O378 Cd379 2.223 1_455 S
O378 C386 1.315 . S
Cd379 O378 2.223 1_655 S
Cd379 O382 2.297 . S
Cd379 O383 2.439 . S
Cd379 O389 2.240 1_655 S
Cd380 O381 2.240 . S
Cd380 O388 2.223 . S
Cd380 O390 2.297 1_455 S
Cd380 O391 2.439 1_455 S
O381 Cd380 2.240 . S
O381 C386 1.279 . S
O382 Cd379 2.297 . S
O382 C384 1.247 . S
O383 Cd379 2.439 . S
O383 C384 1.208 . S
C384 O382 1.247 . S
C384 O383 1.208 . S
C385 O390 1.247 . S
C385 O391 1.208 . S
C386 O378 1.315 . S
C386 O381 1.279 . S
C387 O388 1.315 . S
C387 O389 1.279 . S
O388 Cd380 2.223 . S
O388 C387 1.315 . S
O389 Cd379 2.240 1_455 S
O389 C387 1.279 . S
O390 Cd380 2.297 1_655 S
O390 C385 1.247 . S
O391 Cd380 2.439 1_655 S
O391 C385 1.208 . S
O392 Cd393 2.223 . S
O392 C400 1.315 . S
Cd393 O392 2.223 . S
Cd393 O396 2.297 . S
Cd393 O397 2.439 . S
Cd393 O403 2.240 . S
Cd394 O395 2.240 . S
Cd394 O402 2.223 . S
Cd394 O404 2.297 . S
Cd394 O405 2.439 . S
O395 Cd394 2.240 . S
O395 C400 1.279 . S
O396 Cd393 2.297 . S
O396 C398 1.247 . S
O397 Cd393 2.439 . S
O397 C398 1.208 . S
C398 O396 1.247 . S
C398 O397 1.208 . S
C399 O404 1.247 . S
C399 O405 1.208 . S
C400 O392 1.315 . S
C400 O395 1.279 . S
C401 O402 1.315 . S
C401 O403 1.279 . S
O402 Cd394 2.223 . S
O402 C401 1.315 . S
O403 Cd393 2.240 . S
O403 C401 1.279 . S
O404 Cd394 2.297 . S
O404 C399 1.247 . S
O405 Cd394 2.439 . S
O405 C399 1.208 . S
O406 Cd407 2.223 . S
O406 C414 1.315 . S
Cd407 O406 2.223 . S
Cd407 O410 2.297 . S
Cd407 O411 2.439 . S
Cd407 O417 2.240 . S
Cd408 O409 2.240 . S
Cd408 O416 2.223 . S
Cd408 O418 2.297 . S
Cd408 O419 2.439 . S
O409 Cd408 2.240 . S
O409 C414 1.279 . S
O410 Cd407 2.297 . S
O410 C412 1.247 . S
O411 Cd407 2.439 . S
O411 C412 1.208 . S
C412 O410 1.247 . S
C412 O411 1.208 . S
C413 O418 1.247 . S
C413 O419 1.208 . S
C414 O406 1.315 . S
C414 O409 1.279 . S
C415 O416 1.315 . S
C415 O417 1.279 . S
O416 Cd408 2.223 . S
O416 C415 1.315 . S
O417 Cd407 2.240 . S
O417 C415 1.279 . S
O418 Cd408 2.297 . S
O418 C413 1.247 . S
O419 Cd408 2.439 . S
O419 C413 1.208 . S
O420 Cd421 2.223 . S
O420 C428 1.315 . S
Cd421 O420 2.223 . S
Cd421 O424 2.297 . S
Cd421 O425 2.439 . S
Cd421 O431 2.240 . S
Cd422 O423 2.240 . S
Cd422 O430 2.223 . S
Cd422 O432 2.297 . S
Cd422 O433 2.439 . S
O423 Cd422 2.240 . S
O423 C428 1.279 . S
O424 Cd421 2.297 . S
O424 C426 1.247 . S
O425 Cd421 2.439 . S
O425 C426 1.208 . S
C426 O424 1.247 . S
C426 O425 1.208 . S
C427 O432 1.247 . S
C427 O433 1.208 . S
C428 O420 1.315 . S
C428 O423 1.279 . S
C429 O430 1.315 . S
C429 O431 1.279 . S
O430 Cd422 2.223 . S
O430 C429 1.315 . S
O431 Cd421 2.240 . S
O431 C429 1.279 . S
O432 Cd422 2.297 . S
O432 C427 1.247 . S
O433 Cd422 2.439 . S
O433 C427 1.208 . S
O434 Cd435 2.223 . S
O434 C442 1.315 . S
Cd435 O434 2.223 . S
Cd435 O438 2.297 . S
Cd435 O439 2.439 . S
Cd435 O445 2.240 . S
Cd436 O437 2.240 . S
Cd436 O444 2.223 . S
Cd436 O446 2.297 . S
Cd436 O447 2.439 . S
O437 Cd436 2.240 . S
O437 C442 1.279 . S
O438 Cd435 2.297 . S
O438 C440 1.247 . S
O439 Cd435 2.439 . S
O439 C440 1.208 . S
C440 O438 1.247 . S
C440 O439 1.208 . S
C441 O446 1.247 . S
C441 O447 1.208 . S
C442 O434 1.315 . S
C442 O437 1.279 . S
C443 O444 1.315 . S
C443 O445 1.279 . S
O444 Cd436 2.223 . S
O444 C443 1.315 . S
O445 Cd435 2.240 . S
O445 C443 1.279 . S
O446 Cd436 2.297 . S
O446 C441 1.247 . S
O447 Cd436 2.439 . S
O447 C441 1.208 . S
O448 Cd449 2.223 . S
O448 C456 1.315 . S
Cd449 O448 2.223 . S
Cd449 O452 2.297 . S
Cd449 O453 2.439 . S
Cd449 O459 2.240 . S
Cd450 O451 2.240 . S
Cd450 O458 2.223 . S
Cd450 O460 2.297 . S
Cd450 O461 2.439 . S
O451 Cd450 2.240 . S
O451 C456 1.279 . S
O452 Cd449 2.297 . S
O452 C454 1.247 . S
O453 Cd449 2.439 . S
O453 C454 1.208 . S
C454 O452 1.247 . S
C454 O453 1.208 . S
C455 O460 1.247 . S
C455 O461 1.208 . S
C456 O448 1.315 . S
C456 O451 1.279 . S
C457 O458 1.315 . S
C457 O459 1.279 . S
O458 Cd450 2.223 . S
O458 C457 1.315 . S
O459 Cd449 2.240 . S
O459 C457 1.279 . S
O460 Cd450 2.297 . S
O460 C455 1.247 . S
O461 Cd450 2.439 . S
O461 C455 1.208 . S
O462 Cd463 2.223 . S
O462 C470 1.315 . S
Cd463 O462 2.223 . S
Cd463 O466 2.297 . S
Cd463 O467 2.439 . S
Cd463 O473 2.240 . S
Cd464 O465 2.240 . S
Cd464 O472 2.223 . S
Cd464 O474 2.297 . S
Cd464 O475 2.439 . S
O465 Cd464 2.240 . S
O465 C470 1.279 . S
O466 Cd463 2.297 . S
O466 C468 1.247 . S
O467 Cd463 2.439 . S
O467 C468 1.208 . S
C468 O466 1.247 . S
C468 O467 1.208 . S
C469 O474 1.247 . S
C469 O475 1.208 . S
C470 O462 1.315 . S
C470 O465 1.279 . S
C471 O472 1.315 . S
C471 O473 1.279 . S
O472 Cd464 2.223 . S
O472 C471 1.315 . S
O473 Cd463 2.240 . S
O473 C471 1.279 . S
O474 Cd464 2.297 . S
O474 C469 1.247 . S
O475 Cd464 2.439 . S
O475 C469 1.208 . S
O476 Cd477 2.223 . S
O476 C484 1.315 . S
Cd477 O476 2.223 . S
Cd477 O480 2.297 . S
Cd477 O481 2.439 . S
Cd477 O487 2.240 . S
Cd478 O479 2.240 . S
Cd478 O486 2.223 . S
Cd478 O488 2.297 . S
Cd478 O489 2.439 . S
O479 Cd478 2.240 . S
O479 C484 1.279 . S
O480 Cd477 2.297 . S
O480 C482 1.247 . S
O481 Cd477 2.439 . S
O481 C482 1.208 . S
C482 O480 1.247 . S
C482 O481 1.208 . S
C483 O488 1.247 . S
C483 O489 1.208 . S
C484 O476 1.315 . S
C484 O479 1.279 . S
C485 O486 1.315 . S
C485 O487 1.279 . S
O486 Cd478 2.223 . S
O486 C485 1.315 . S
O487 Cd477 2.240 . S
O487 C485 1.279 . S
O488 Cd478 2.297 . S
O488 C483 1.247 . S
O489 Cd478 2.439 . S
O489 C483 1.208 . S
O490 Cd491 2.223 . S
O490 C498 1.315 . S
Cd491 O490 2.223 . S
Cd491 O494 2.297 . S
Cd491 O495 2.439 . S
Cd491 O501 2.240 . S
Cd492 O493 2.240 . S
Cd492 O500 2.223 . S
Cd492 O502 2.297 . S
Cd492 O503 2.439 . S
O493 Cd492 2.240 . S
O493 C498 1.279 . S
O494 Cd491 2.297 . S
O494 C496 1.247 . S
O495 Cd491 2.439 . S
O495 C496 1.208 . S
C496 O494 1.247 . S
C496 O495 1.208 . S
C497 O502 1.247 . S
C497 O503 1.208 . S
C498 O490 1.315 . S
C498 O493 1.279 . S
C499 O500 1.315 . S
C499 O501 1.279 . S
O500 Cd492 2.223 . S
O500 C499 1.315 . S
O501 Cd491 2.240 . S
O501 C499 1.279 . S
O502 Cd492 2.297 . S
O502 C497 1.247 . S
O503 Cd492 2.439 . S
O503 C497 1.208 . S
O504 Cd505 2.223 . S
O504 C512 1.315 . S
Cd505 O504 2.223 . S
Cd505 O508 2.297 . S
Cd505 O509 2.439 . S
Cd505 O515 2.240 . S
Cd506 O507 2.240 . S
Cd506 O514 2.223 . S
Cd506 O516 2.297 . S
Cd506 O517 2.439 . S
O507 Cd506 2.240 . S
O507 C512 1.279 . S
O508 Cd505 2.297 . S
O508 C510 1.247 . S
O509 Cd505 2.439 . S
O509 C510 1.208 . S
C510 O508 1.247 . S
C510 O509 1.208 . S
C511 O516 1.247 . S
C511 O517 1.208 . S
C512 O504 1.315 . S
C512 O507 1.279 . S
C513 O514 1.315 . S
C513 O515 1.279 . S
O514 Cd506 2.223 . S
O514 C513 1.315 . S
O515 Cd505 2.240 . S
O515 C513 1.279 . S
O516 Cd506 2.297 . S
O516 C511 1.247 . S
O517 Cd506 2.439 . S
O517 C511 1.208 . S
O518 Cd519 2.223 . S
O518 C526 1.315 . S
Cd519 O518 2.223 . S
Cd519 O522 2.297 . S
Cd519 O523 2.439 . S
Cd519 O529 2.240 . S
Cd520 O521 2.240 . S
Cd520 O528 2.223 . S
Cd520 O530 2.297 . S
Cd520 O531 2.439 . S
O521 Cd520 2.240 . S
O521 C526 1.279 . S
O522 Cd519 2.297 . S
O522 C524 1.247 . S
O523 Cd519 2.439 . S
O523 C524 1.208 . S
C524 O522 1.247 . S
C524 O523 1.208 . S
C525 O530 1.247 . S
C525 O531 1.208 . S
C526 O518 1.315 . S
C526 O521 1.279 . S
C527 O528 1.315 . S
C527 O529 1.279 . S
O528 Cd520 2.223 . S
O528 C527 1.315 . S
O529 Cd519 2.240 . S
O529 C527 1.279 . S
O530 Cd520 2.297 . S
O530 C525 1.247 . S
O531 Cd520 2.439 . S
O531 C525 1.208 . S
O532 Cd533 2.223 . S
O532 C540 1.315 . S
Cd533 O532 2.223 . S
Cd533 O536 2.297 . S
Cd533 O537 2.439 . S
Cd533 O543 2.240 . S
Cd534 O535 2.240 . S
Cd534 O542 2.223 . S
Cd534 O544 2.297 . S
Cd534 O545 2.439 . S
O535 Cd534 2.240 . S
O535 C540 1.279 . S
O536 Cd533 2.297 . S
O536 C538 1.247 . S
O537 Cd533 2.439 . S
O537 C538 1.208 . S
C538 O536 1.247 . S
C538 O537 1.208 . S
C539 O544 1.247 . S
C539 O545 1.208 . S
C540 O532 1.315 . S
C540 O535 1.279 . S
C541 O542 1.315 . S
C541 O543 1.279 . S
O542 Cd534 2.223 . S
O542 C541 1.315 . S
O543 Cd533 2.240 . S
O543 C541 1.279 . S
O544 Cd534 2.297 . S
O544 C539 1.247 . S
O545 Cd534 2.439 . S
O545 C539 1.208 . S
O546 Cd547 2.223 . S
O546 C554 1.315 . S
Cd547 O546 2.223 . S
Cd547 O550 2.297 . S
Cd547 O551 2.439 . S
Cd547 O557 2.240 . S
Cd548 O549 2.240 . S
Cd548 O556 2.223 . S
Cd548 O558 2.297 . S
Cd548 O559 2.439 . S
O549 Cd548 2.240 . S
O549 C554 1.279 . S
O550 Cd547 2.297 . S
O550 C552 1.247 . S
O551 Cd547 2.439 . S
O551 C552 1.208 . S
C552 O550 1.247 . S
C552 O551 1.208 . S
C553 O558 1.247 . S
C553 O559 1.208 . S
C554 O546 1.315 . S
C554 O549 1.279 . S
C555 O556 1.315 . S
C555 O557 1.279 . S
O556 Cd548 2.223 . S
O556 C555 1.315 . S
O557 Cd547 2.240 . S
O557 C555 1.279 . S
O558 Cd548 2.297 . S
O558 C553 1.247 . S
O559 Cd548 2.439 . S
O559 C553 1.208 . S
O560 Cd561 2.223 . S
O560 C568 1.315 . S
Cd561 O560 2.223 . S
Cd561 O564 2.297 . S
Cd561 O565 2.439 . S
Cd561 O571 2.240 . S
Cd562 O563 2.240 . S
Cd562 O570 2.223 . S
Cd562 O572 2.297 . S
Cd562 O573 2.439 . S
O563 Cd562 2.240 . S
O563 C568 1.279 . S
O564 Cd561 2.297 . S
O564 C566 1.247 . S
O565 Cd561 2.439 . S
O565 C566 1.208 . S
C566 O564 1.247 . S
C566 O565 1.208 . S
C567 O572 1.247 . S
C567 O573 1.208 . S
C568 O560 1.315 . S
C568 O563 1.279 . S
C569 O570 1.315 . S
C569 O571 1.279 . S
O570 Cd562 2.223 . S
O570 C569 1.315 . S
O571 Cd561 2.240 . S
O571 C569 1.279 . S
O572 Cd562 2.297 . S
O572 C567 1.247 . S
O573 Cd562 2.439 . S
O573 C567 1.208 . S
O574 Cd575 2.223 . S
O574 C582 1.315 . S
Cd575 O574 2.223 . S
Cd575 O578 2.297 . S
Cd575 O579 2.439 . S
Cd575 O585 2.240 . S
Cd576 O577 2.240 . S
Cd576 O584 2.223 . S
Cd576 O586 2.297 . S
Cd576 O587 2.439 . S
O577 Cd576 2.240 . S
O577 C582 1.279 . S
O578 Cd575 2.297 . S
O578 C580 1.247 . S
O579 Cd575 2.439 . S
O579 C580 1.208 . S
C580 O578 1.247 . S
C580 O579 1.208 . S
C581 O586 1.247 . S
C581 O587 1.208 . S
C582 O574 1.315 . S
C582 O577 1.279 . S
C583 O584 1.315 . S
C583 O585 1.279 . S
O584 Cd576 2.223 . S
O584 C583 1.315 . S
O585 Cd575 2.240 . S
O585 C583 1.279 . S
O586 Cd576 2.297 . S
O586 C581 1.247 . S
O587 Cd576 2.439 . S
O587 C581 1.208 . S
O588 Cd589 2.223 1_545 S
O588 C596 1.315 . S
Cd589 O588 2.223 1_565 S
Cd589 O592 2.297 . S
Cd589 O593 2.439 . S
Cd589 O599 2.240 1_565 S
Cd590 O591 2.240 . S
Cd590 O598 2.223 . S
Cd590 O600 2.297 1_545 S
Cd590 O601 2.439 1_545 S
O591 Cd590 2.240 . S
O591 C596 1.279 . S
O592 Cd589 2.297 . S
O592 C594 1.247 . S
O593 Cd589 2.439 . S
O593 C594 1.208 . S
C594 O592 1.247 . S
C594 O593 1.208 . S
C595 O600 1.247 . S
C595 O601 1.208 . S
C596 O588 1.315 . S
C596 O591 1.279 . S
C597 O598 1.315 . S
C597 O599 1.279 . S
O598 Cd590 2.223 . S
O598 C597 1.315 . S
O599 Cd589 2.240 1_545 S
O599 C597 1.279 . S
O600 Cd590 2.297 1_565 S
O600 C595 1.247 . S
O601 Cd590 2.439 1_565 S
O601 C595 1.208 . S
O602 Cd603 2.223 . S
O602 C610 1.315 . S
Cd603 O602 2.223 . S
Cd603 O606 2.297 . S
Cd603 O607 2.439 . S
Cd603 O613 2.240 . S
Cd604 O605 2.240 . S
Cd604 O612 2.223 . S
Cd604 O614 2.297 . S
Cd604 O615 2.439 . S
O605 Cd604 2.240 . S
O605 C610 1.279 . S
O606 Cd603 2.297 . S
O606 C608 1.247 . S
O607 Cd603 2.439 . S
O607 C608 1.208 . S
C608 O606 1.247 . S
C608 O607 1.208 . S
C609 O614 1.247 . S
C609 O615 1.208 . S
C610 O602 1.315 . S
C610 O605 1.279 . S
C611 O612 1.315 . S
C611 O613 1.279 . S
O612 Cd604 2.223 . S
O612 C611 1.315 . S
O613 Cd603 2.240 . S
O613 C611 1.279 . S
O614 Cd604 2.297 . S
O614 C609 1.247 . S
O615 Cd604 2.439 . S
O615 C609 1.208 . S
O616 Cd617 2.223 1_565 S
O616 C624 1.315 . S
Cd617 O616 2.223 1_545 S
Cd617 O620 2.297 . S
Cd617 O621 2.439 . S
Cd617 O627 2.240 1_545 S
Cd618 O619 2.240 . S
Cd618 O626 2.223 . S
Cd618 O628 2.297 1_565 S
Cd618 O629 2.439 1_565 S
O619 Cd618 2.240 . S
O619 C624 1.279 . S
O620 Cd617 2.297 . S
O620 C622 1.247 . S
O621 Cd617 2.439 . S
O621 C622 1.208 . S
C622 O620 1.247 . S
C622 O621 1.208 . S
C623 O628 1.247 . S
C623 O629 1.208 . S
C624 O616 1.315 . S
C624 O619 1.279 . S
C625 O626 1.315 . S
C625 O627 1.279 . S
O626 Cd618 2.223 . S
O626 C625 1.315 . S
O627 Cd617 2.240 1_565 S
O627 C625 1.279 . S
O628 Cd618 2.297 1_545 S
O628 C623 1.247 . S
O629 Cd618 2.439 1_545 S
O629 C623 1.208 . S
O630 Cd631 2.223 . S
O630 C638 1.315 . S
Cd631 O630 2.223 . S
Cd631 O634 2.297 . S
Cd631 O635 2.439 . S
Cd631 O641 2.240 . S
Cd632 O633 2.240 . S
Cd632 O640 2.223 . S
Cd632 O642 2.297 . S
Cd632 O643 2.439 . S
O633 Cd632 2.240 . S
O633 C638 1.279 . S
O634 Cd631 2.297 . S
O634 C636 1.247 . S
O635 Cd631 2.439 . S
O635 C636 1.208 . S
C636 O634 1.247 . S
C636 O635 1.208 . S
C637 O642 1.247 . S
C637 O643 1.208 . S
C638 O630 1.315 . S
C638 O633 1.279 . S
C639 O640 1.315 . S
C639 O641 1.279 . S
O640 Cd632 2.223 . S
O640 C639 1.315 . S
O641 Cd631 2.240 . S
O641 C639 1.279 . S
O642 Cd632 2.297 . S
O642 C637 1.247 . S
O643 Cd632 2.439 . S
O643 C637 1.208 . S
O644 Cd645 2.223 1_565 S
O644 C652 1.315 . S
Cd645 O644 2.223 1_545 S
Cd645 O648 2.297 . S
Cd645 O649 2.439 . S
Cd645 O655 2.240 1_545 S
Cd646 O647 2.240 . S
Cd646 O654 2.223 . S
Cd646 O656 2.297 1_565 S
Cd646 O657 2.439 1_565 S
O647 Cd646 2.240 . S
O647 C652 1.279 . S
O648 Cd645 2.297 . S
O648 C650 1.247 . S
O649 Cd645 2.439 . S
O649 C650 1.208 . S
C650 O648 1.247 . S
C650 O649 1.208 . S
C651 O656 1.247 . S
C651 O657 1.208 . S
C652 O644 1.315 . S
C652 O647 1.279 . S
C653 O654 1.315 . S
C653 O655 1.279 . S
O654 Cd646 2.223 . S
O654 C653 1.315 . S
O655 Cd645 2.240 1_565 S
O655 C653 1.279 . S
O656 Cd646 2.297 1_545 S
O656 C651 1.247 . S
O657 Cd646 2.439 1_545 S
O657 C651 1.208 . S
O658 Cd659 2.223 . S
O658 C666 1.315 . S
Cd659 O658 2.223 . S
Cd659 O662 2.297 . S
Cd659 O663 2.439 . S
Cd659 O669 2.240 . S
Cd660 O661 2.240 . S
Cd660 O668 2.223 . S
Cd660 O670 2.297 . S
Cd660 O671 2.439 . S
O661 Cd660 2.240 . S
O661 C666 1.279 . S
O662 Cd659 2.297 . S
O662 C664 1.247 . S
O663 Cd659 2.439 . S
O663 C664 1.208 . S
C664 O662 1.247 . S
C664 O663 1.208 . S
C665 O670 1.247 . S
C665 O671 1.208 . S
C666 O658 1.315 . S
C666 O661 1.279 . S
C667 O668 1.315 . S
C667 O669 1.279 . S
O668 Cd660 2.223 . S
O668 C667 1.315 . S
O669 Cd659 2.240 . S
O669 C667 1.279 . S
O670 Cd660 2.297 . S
O670 C665 1.247 . S
O671 Cd660 2.439 . S
O671 C665 1.208 . S
C672 C673 1.387 . S
C672 H676 0.950 . S
C672 C681 1.390 . S
C673 C672 1.387 . S
C673 C675 1.387 . S
H674 C681 0.950 . S
C675 C673 1.387 . S
C675 C677 1.390 . S
C675 H679 0.950 . S
H676 C672 0.950 . S
C677 C675 1.390 . S
C677 C678 1.387 . S
C677 H680 0.950 . S
C678 C677 1.387 . S
C678 C681 1.387 . S
H679 C675 0.950 . S
H680 C677 0.950 . S
C681 C672 1.390 . S
C681 H674 0.950 . S
C681 C678 1.387 . S
C682 C683 1.387 . S
C682 H686 0.950 . S
C682 C691 1.390 1_554 S
C683 C682 1.387 . S
C683 C685 1.387 . S
H684 C691 0.950 . S
C685 C683 1.387 . S
C685 C687 1.390 . S
C685 H689 0.950 . S
H686 C682 0.950 . S
C687 C685 1.390 . S
C687 C688 1.387 . S
C687 H690 0.950 . S
C688 C687 1.387 . S
C688 C691 1.387 1_554 S
H689 C685 0.950 . S
H690 C687 0.950 . S
C691 C682 1.390 1_556 S
C691 H684 0.950 . S
C691 C688 1.387 1_556 S
C692 C693 1.387 . S
C692 H696 0.950 . S
C692 C701 1.390 . S
C693 C692 1.387 . S
C693 C695 1.387 . S
H694 C701 0.950 . S
C695 C693 1.387 . S
C695 C697 1.390 . S
C695 H699 0.950 . S
H696 C692 0.950 . S
C697 C695 1.390 . S
C697 C698 1.387 . S
C697 H700 0.950 . S
C698 C697 1.387 . S
C698 C701 1.387 . S
H699 C695 0.950 . S
H700 C697 0.950 . S
C701 C692 1.390 . S
C701 H694 0.950 . S
C701 C698 1.387 . S
C702 C703 1.387 1_556 S
C702 H706 0.950 . S
C702 C711 1.390 1_556 S
C703 C702 1.387 1_554 S
C703 C705 1.387 . S
H704 C711 0.950 . S
C705 C703 1.387 . S
C705 C707 1.390 . S
C705 H709 0.950 . S
H706 C702 0.950 . S
C707 C705 1.390 . S
C707 C708 1.387 . S
C707 H710 0.950 . S
C708 C707 1.387 . S
C708 C711 1.387 . S
H709 C705 0.950 . S
H710 C707 0.950 . S
C711 C702 1.390 1_554 S
C711 H704 0.950 . S
C711 C708 1.387 . S
C712 C713 1.387 . S
C712 H716 0.950 . S
C712 C721 1.390 . S
C713 C712 1.387 . S
C713 C715 1.387 . S
H714 C721 0.950 . S
C715 C713 1.387 . S
C715 C717 1.390 . S
C715 H719 0.950 . S
H716 C712 0.950 . S
C717 C715 1.390 . S
C717 C718 1.387 . S
C717 H720 0.950 . S
C718 C717 1.387 . S
C718 C721 1.387 . S
H719 C715 0.950 . S
H720 C717 0.950 . S
C721 C712 1.390 . S
C721 H714 0.950 . S
C721 C718 1.387 . S
C722 C723 1.387 . S
C722 H726 0.950 . S
C722 C731 1.390 . S
C723 C722 1.387 . S
C723 C725 1.387 . S
H724 C731 0.950 . S
C725 C723 1.387 . S
C725 C727 1.390 . S
C725 H729 0.950 1_556 S
H726 C722 0.950 . S
C727 C725 1.390 . S
C727 C728 1.387 . S
C727 H730 0.950 . S
C728 C727 1.387 . S
C728 C731 1.387 . S
H729 C725 0.950 1_554 S
H730 C727 0.950 . S
C731 C722 1.390 . S
C731 H724 0.950 . S
C731 C728 1.387 . S
C732 C733 1.387 . S
C732 H736 0.950 . S
C732 C741 1.390 . S
C733 C732 1.387 . S
C733 C735 1.387 . S
H734 C741 0.950 . S
C735 C733 1.387 . S
C735 C737 1.390 . S
C735 H739 0.950 . S
H736 C732 0.950 . S
C737 C735 1.390 . S
C737 C738 1.387 . S
C737 H740 0.950 . S
C738 C737 1.387 . S
C738 C741 1.387 . S
H739 C735 0.950 . S
H740 C737 0.950 . S
C741 C732 1.390 . S
C741 H734 0.950 . S
C741 C738 1.387 . S
C742 C743 1.387 . S
C742 H746 0.950 . S
C742 C751 1.390 . S
C743 C742 1.387 . S
C743 C745 1.387 . S
H744 C751 0.950 . S
C745 C743 1.387 . S
C745 C747 1.390 . S
C745 H749 0.950 . S
H746 C742 0.950 . S
C747 C745 1.390 . S
C747 C748 1.388 . S
C747 H750 0.949 1_556 S
C748 C747 1.388 . S
C748 C751 1.387 . S
H749 C745 0.950 . S
H750 C747 0.949 1_554 S
C751 C742 1.390 . S
C751 H744 0.950 . S
C751 C748 1.387 . S
C752 C753 1.387 . S
C752 H756 0.950 . S
C752 C761 1.390 . S
C753 C752 1.387 . S
C753 C755 1.387 . S
H754 C761 0.950 . S
C755 C753 1.387 . S
C755 C757 1.390 . S
C755 H759 0.950 . S
H756 C752 0.950 . S
C757 C755 1.390 . S
C757 C758 1.387 . S
C757 H760 0.950 . S
C758 C757 1.387 . S
C758 C761 1.387 . S
H759 C755 0.950 . S
H760 C757 0.950 . S
C761 C752 1.390 . S
C761 H754 0.950 . S
C761 C758 1.387 . S
C762 C763 1.387 . S
C762 H766 0.950 . S
C762 C771 1.390 . S
C763 C762 1.387 . S
C763 C765 1.387 . S
H764 C771 0.950 . S
C765 C763 1.387 . S
C765 C767 1.390 . S
C765 H769 0.950 . S
H766 C762 0.950 . S
C767 C765 1.390 . S
C767 C768 1.387 . S
C767 H770 0.950 . S
C768 C767 1.387 . S
C768 C771 1.387 . S
H769 C765 0.950 . S
H770 C767 0.950 . S
C771 C762 1.390 . S
C771 H764 0.950 . S
C771 C768 1.387 . S
C772 C773 1.387 . S
C772 H776 0.950 . S
C772 C781 1.390 . S
C773 C772 1.387 . S
C773 C775 1.387 . S
H774 C781 0.950 . S
C775 C773 1.387 . S
C775 C777 1.390 . S
C775 H779 0.950 . S
H776 C772 0.950 . S
C777 C775 1.390 . S
C777 C778 1.387 . S
C777 H780 0.950 . S
C778 C777 1.387 . S
C778 C781 1.387 . S
H779 C775 0.950 . S
H780 C777 0.950 . S
C781 C772 1.390 . S
C781 H774 0.950 . S
C781 C778 1.387 . S
C782 C783 1.387 . S
C782 H786 0.950 1_565 S
C782 C791 1.390 1_565 S
C783 C782 1.387 . S
C783 C785 1.387 . S
H784 C791 0.950 . S
C785 C783 1.387 . S
C785 C787 1.390 . S
C785 H789 0.950 . S
H786 C782 0.950 1_545 S
C787 C785 1.390 . S
C787 C788 1.387 1_565 S
C787 H790 0.950 . S
C788 C787 1.387 1_545 S
C788 C791 1.387 . S
H789 C785 0.950 . S
H790 C787 0.950 . S
C791 C782 1.390 1_545 S
C791 H784 0.950 . S
C791 C788 1.387 . S
C792 C793 1.387 . S
C792 H796 0.950 . S
C792 C801 1.390 . S
C793 C792 1.387 . S
C793 C795 1.387 . S
H794 C801 0.950 . S
C795 C793 1.387 . S
C795 C797 1.390 . S
C795 H799 0.950 . S
H796 C792 0.950 . S
C797 C795 1.390 . S
C797 C798 1.387 . S
C797 H800 0.950 . S
C798 C797 1.387 . S
C798 C801 1.387 . S
H799 C795 0.950 . S
H800 C797 0.950 . S
C801 C792 1.390 . S
C801 H794 0.950 . S
C801 C798 1.387 . S
C802 C803 1.387 . S
C802 H806 0.950 . S
C802 C811 1.390 . S
C803 C802 1.387 . S
C803 C805 1.387 . S
H804 C811 0.950 . S
C805 C803 1.387 . S
C805 C807 1.390 . S
C805 H809 0.950 . S
H806 C802 0.950 . S
C807 C805 1.390 . S
C807 C808 1.387 . S
C807 H810 0.950 . S
C808 C807 1.387 . S
C808 C811 1.387 . S
H809 C805 0.950 . S
H810 C807 0.950 . S
C811 C802 1.390 . S
C811 H804 0.950 . S
C811 C808 1.387 . S
C812 C813 1.387 . S
C812 H816 0.950 . S
C812 C821 1.390 . S
C813 C812 1.387 . S
C813 C815 1.387 . S
H814 C821 0.950 . S
C815 C813 1.387 . S
C815 C817 1.390 . S
C815 H819 0.950 . S
H816 C812 0.950 . S
C817 C815 1.390 . S
C817 C818 1.387 . S
C817 H820 0.950 . S
C818 C817 1.387 . S
C818 C821 1.387 . S
H819 C815 0.950 . S
H820 C817 0.950 . S
C821 C812 1.390 . S
C821 H814 0.950 . S
C821 C818 1.387 . S
C822 C823 1.387 . S
C822 H826 0.950 . S
C822 C831 1.390 1_545 S
C823 C822 1.387 . S
C823 C825 1.387 1_545 S
H824 C831 0.950 . S
C825 C823 1.387 1_565 S
C825 C827 1.390 . S
C825 H829 0.950 . S
H826 C822 0.950 . S
C827 C825 1.390 . S
C827 C828 1.387 . S
C827 H830 0.950 . S
C828 C827 1.387 . S
C828 C831 1.387 . S
H829 C825 0.950 . S
H830 C827 0.950 . S
C831 C822 1.390 1_565 S
C831 H824 0.950 . S
C831 C828 1.387 . S
C832 C833 1.387 . S
C832 H836 0.950 . S
C832 C841 1.390 . S
C833 C832 1.387 . S
C833 C835 1.387 . S
H834 C841 0.950 . S
C835 C833 1.387 . S
C835 C837 1.390 . S
C835 H839 0.950 . S
H836 C832 0.950 . S
C837 C835 1.390 . S
C837 C838 1.387 . S
C837 H840 0.950 . S
C838 C837 1.387 . S
C838 C841 1.387 . S
H839 C835 0.950 . S
H840 C837 0.950 . S
C841 C832 1.390 . S
C841 H834 0.950 . S
C841 C838 1.387 . S
C842 C843 1.387 . S
C842 H846 0.950 . S
C842 C851 1.390 . S
C843 C842 1.387 . S
C843 C845 1.387 . S
H844 C851 0.950 . S
C845 C843 1.387 . S
C845 C847 1.390 . S
C845 H849 0.950 . S
H846 C842 0.950 . S
C847 C845 1.390 . S
C847 C848 1.387 . S
C847 H850 0.950 . S
C848 C847 1.387 . S
C848 C851 1.387 . S
H849 C845 0.950 . S
H850 C847 0.950 . S
C851 C842 1.390 . S
C851 H844 0.950 . S
C851 C848 1.387 . S
C852 C853 1.387 . S
C852 H856 0.950 . S
C852 C861 1.390 1_655 S
C853 C852 1.387 . S
C853 C855 1.387 . S
H854 C861 0.950 . S
C855 C853 1.387 . S
C855 C857 1.390 1_655 S
C855 H859 0.950 . S
H856 C852 0.950 . S
C857 C855 1.390 1_455 S
C857 C858 1.387 . S
C857 H860 0.950 . S
C858 C857 1.387 . S
C858 C861 1.387 . S
H859 C855 0.950 . S
H860 C857 0.950 . S
C861 C852 1.390 1_455 S
C861 H854 0.950 . S
C861 C858 1.387 . S
C862 C863 1.387 . S
C862 H866 0.950 . S
C862 C871 1.390 . S
C863 C862 1.387 . S
C863 C865 1.387 . S
H864 C871 0.950 . S
C865 C863 1.387 . S
C865 C867 1.390 . S
C865 H869 0.950 . S
H866 C862 0.950 . S
C867 C865 1.390 . S
C867 C868 1.387 . S
C867 H870 0.950 . S
C868 C867 1.387 . S
C868 C871 1.387 . S
H869 C865 0.950 . S
H870 C867 0.950 . S
C871 C862 1.390 . S
C871 H864 0.950 . S
C871 C868 1.387 . S
C872 C873 1.387 . S
C872 H876 0.950 . S
C872 C881 1.390 . S
C873 C872 1.387 . S
C873 C875 1.387 . S
H874 C881 0.950 . S
C875 C873 1.387 . S
C875 C877 1.390 . S
C875 H879 0.950 . S
H876 C872 0.950 . S
C877 C875 1.390 . S
C877 C878 1.387 . S
C877 H880 0.950 . S
C878 C877 1.387 . S
C878 C881 1.387 . S
H879 C875 0.950 . S
H880 C877 0.950 . S
C881 C872 1.390 . S
C881 H874 0.950 . S
C881 C878 1.387 . S
C882 C883 1.387 . S
C882 H886 0.950 . S
C882 C891 1.390 . S
C883 C882 1.387 . S
C883 C885 1.387 . S
H884 C891 0.950 . S
C885 C883 1.387 . S
C885 C887 1.390 . S
C885 H889 0.950 . S
H886 C882 0.950 . S
C887 C885 1.390 . S
C887 C888 1.387 . S
C887 H890 0.950 . S
C888 C887 1.387 . S
C888 C891 1.387 . S
H889 C885 0.950 . S
H890 C887 0.950 . S
C891 C882 1.390 . S
C891 H884 0.950 . S
C891 C888 1.387 . S
C892 C893 1.387 . S
C892 H896 0.950 . S
C892 C901 1.390 1_455 S
C893 C892 1.387 . S
C893 C895 1.387 . S
H894 C901 0.950 . S
C895 C893 1.387 . S
C895 C897 1.390 1_455 S
C895 H899 0.950 . S
H896 C892 0.950 . S
C897 C895 1.390 1_655 S
C897 C898 1.387 . S
C897 H900 0.950 . S
C898 C897 1.387 . S
C898 C901 1.387 . S
H899 C895 0.950 . S
H900 C897 0.950 . S
C901 C892 1.390 1_655 S
C901 H894 0.950 . S
C901 C898 1.387 . S
C902 C903 1.387 1_455 S
C902 H906 0.950 . S
C902 C911 1.390 . S
C903 C902 1.387 1_655 S
C903 C905 1.387 . S
H904 C911 0.950 . S
C905 C903 1.387 . S
C905 C907 1.390 . S
C905 H909 0.950 . S
H906 C902 0.950 . S
C907 C905 1.390 . S
C907 C908 1.387 1_655 S
C907 H910 0.950 . S
C908 C907 1.387 1_455 S
C908 C911 1.387 . S
H909 C905 0.950 . S
H910 C907 0.950 . S
C911 C902 1.390 . S
C911 H904 0.950 . S
C911 C908 1.387 . S
C912 C913 1.387 . S
C912 H916 0.950 . S
C912 C921 1.390 . S
C913 C912 1.387 . S
C913 C915 1.387 . S
H914 C921 0.950 . S
C915 C913 1.387 . S
C915 C917 1.390 . S
C915 H919 0.950 . S
H916 C912 0.950 . S
C917 C915 1.390 . S
C917 C918 1.387 . S
C917 H920 0.950 . S
C918 C917 1.387 . S
C918 C921 1.387 . S
H919 C915 0.950 . S
H920 C917 0.950 . S
C921 C912 1.390 . S
C921 H914 0.950 . S
C921 C918 1.387 . S
C922 C923 1.387 . S
C922 H926 0.950 . S
C922 C931 1.390 . S
C923 C922 1.387 . S
C923 C925 1.387 . S
H924 C931 0.950 . S
C925 C923 1.387 . S
C925 C927 1.390 . S
C925 H929 0.950 . S
H926 C922 0.950 . S
C927 C925 1.390 . S
C927 C928 1.387 . S
C927 H930 0.950 . S
C928 C927 1.387 . S
C928 C931 1.387 . S
H929 C925 0.950 . S
H930 C927 0.950 . S
C931 C922 1.390 . S
C931 H924 0.950 . S
C931 C928 1.387 . S
C932 C933 1.387 . S
C932 H936 0.950 . S
C932 C941 1.390 . S
C933 C932 1.387 . S
C933 C935 1.387 . S
H934 C941 0.950 . S
C935 C933 1.387 . S
C935 C937 1.390 . S
C935 H939 0.950 . S
H936 C932 0.950 . S
C937 C935 1.390 . S
C937 C938 1.387 . S
C937 H940 0.950 . S
C938 C937 1.387 . S
C938 C941 1.387 . S
H939 C935 0.950 . S
H940 C937 0.950 . S
C941 C932 1.390 . S
C941 H934 0.950 . S
C941 C938 1.387 . S
C942 C943 1.387 . S
C942 H946 0.950 . S
C942 C951 1.390 . S
C943 C942 1.387 . S
C943 C945 1.387 . S
H944 C951 0.950 . S
C945 C943 1.387 . S
C945 C947 1.390 . S
C945 H949 0.950 . S
H946 C942 0.950 . S
C947 C945 1.390 . S
C947 C948 1.387 . S
C947 H950 0.950 . S
C948 C947 1.387 . S
C948 C951 1.387 . S
H949 C945 0.950 . S
H950 C947 0.950 . S
C951 C942 1.390 . S
C951 H944 0.950 . S
C951 C948 1.387 . S
C952 C953 1.387 . S
C952 H956 0.950 . S
C952 C961 1.390 . S
C953 C952 1.387 . S
C953 C955 1.387 . S
H954 C961 0.950 . S
C955 C953 1.387 . S
C955 C957 1.390 . S
C955 H959 0.950 . S
H956 C952 0.950 . S
C957 C955 1.390 . S
C957 C958 1.387 . S
C957 H960 0.950 . S
C958 C957 1.387 . S
C958 C961 1.387 . S
H959 C955 0.950 . S
H960 C957 0.950 . S
C961 C952 1.390 . S
C961 H954 0.950 . S
C961 C958 1.387 . S
C962 C963 1.387 . S
C962 H966 0.950 . S
C962 C971 1.390 . S
C963 C962 1.387 . S
C963 C965 1.387 . S
H964 C971 0.950 . S
C965 C963 1.387 . S
C965 C967 1.390 . S
C965 H969 0.950 . S
H966 C962 0.950 . S
C967 C965 1.390 . S
C967 C968 1.387 . S
C967 H970 0.950 . S
C968 C967 1.387 . S
C968 C971 1.387 . S
H969 C965 0.950 . S
H970 C967 0.950 . S
C971 C962 1.390 . S
C971 H964 0.950 . S
C971 C968 1.387 . S
C972 C973 1.387 . S
C972 H976 0.950 . S
C972 C981 1.390 . S
C973 C972 1.387 . S
C973 C975 1.387 . S
H974 C981 0.950 . S
C975 C973 1.387 . S
C975 C977 1.390 . S
C975 H979 0.950 . S
H976 C972 0.950 . S
C977 C975 1.390 . S
C977 C978 1.387 . S
C977 H980 0.950 . S
C978 C977 1.387 . S
C978 C981 1.387 . S
H979 C975 0.950 . S
H980 C977 0.950 . S
C981 C972 1.390 . S
C981 H974 0.950 . S
C981 C978 1.387 . S
C982 C983 1.387 . S
C982 H986 0.950 . S
C982 C991 1.390 . S
C983 C982 1.387 . S
C983 C985 1.387 . S
H984 C991 0.950 . S
C985 C983 1.387 . S
C985 C987 1.390 . S
C985 H989 0.950 . S
H986 C982 0.950 . S
C987 C985 1.390 . S
C987 C988 1.387 . S
C987 H990 0.950 . S
C988 C987 1.387 . S
C988 C991 1.387 . S
H989 C985 0.950 . S
H990 C987 0.950 . S
C991 C982 1.390 . S
C991 H984 0.950 . S
C991 C988 1.387 . S
C992 C993 1.387 . S
C992 H996 0.950 . S
C992 C1001 1.390 . S
C993 C992 1.387 . S
C993 C995 1.387 . S
H994 C1001 0.950 . S
C995 C993 1.387 . S
C995 C997 1.390 . S
C995 H999 0.950 . S
H996 C992 0.950 . S
C997 C995 1.390 . S
C997 C998 1.387 . S
C997 H1000 0.950 . S
C998 C997 1.387 . S
C998 C1001 1.387 . S
H999 C995 0.950 . S
H1000 C997 0.950 . S
C1001 C992 1.390 . S
C1001 H994 0.950 . S
C1001 C998 1.387 . S
C1002 C1003 1.387 1_545 S
C1002 H1006 0.950 . S
C1002 C1011 1.390 . S
C1003 C1002 1.387 1_565 S
C1003 C1005 1.387 . S
H1004 C1011 0.950 . S
C1005 C1003 1.387 . S
C1005 C1007 1.390 1_565 S
C1005 H1009 0.950 . S
H1006 C1002 0.950 . S
C1007 C1005 1.390 1_545 S
C1007 C1008 1.387 . S
C1007 H1010 0.950 1_655 S
C1008 C1007 1.387 . S
C1008 C1011 1.387 . S
H1009 C1005 0.950 . S
H1010 C1007 0.950 1_455 S
C1011 C1002 1.390 . S
C1011 H1004 0.950 . S
C1011 C1008 1.387 . S
C1012 C1013 1.387 . S
C1012 H1016 0.950 . S
C1012 C1021 1.390 . S
C1013 C1012 1.387 . S
C1013 C1015 1.387 . S
H1014 C1021 0.950 . S
C1015 C1013 1.387 . S
C1015 C1017 1.390 . S
C1015 H1019 0.950 . S
H1016 C1012 0.950 . S
C1017 C1015 1.390 . S
C1017 C1018 1.387 . S
C1017 H1020 0.950 . S
C1018 C1017 1.387 . S
C1018 C1021 1.387 . S
H1019 C1015 0.950 . S
H1020 C1017 0.950 . S
C1021 C1012 1.390 . S
C1021 H1014 0.950 . S
C1021 C1018 1.387 . S
C1022 C1023 1.387 . S
C1022 H1026 0.950 . S
C1022 C1031 1.390 . S
C1023 C1022 1.387 . S
C1023 C1025 1.387 . S
H1024 C1031 0.950 . S
C1025 C1023 1.387 . S
C1025 C1027 1.390 . S
C1025 H1029 0.950 . S
H1026 C1022 0.950 . S
C1027 C1025 1.390 . S
C1027 C1028 1.387 . S
C1027 H1030 0.950 . S
C1028 C1027 1.387 . S
C1028 C1031 1.387 . S
H1029 C1025 0.950 . S
H1030 C1027 0.950 . S
C1031 C1022 1.390 . S
C1031 H1024 0.950 . S
C1031 C1028 1.387 . S
C1032 C1033 1.387 . S
C1032 H1036 0.950 . S
C1032 C1041 1.390 . S
C1033 C1032 1.387 . S
C1033 C1035 1.387 . S
H1034 C1041 0.950 . S
C1035 C1033 1.387 . S
C1035 C1037 1.390 . S
C1035 H1039 0.950 . S
H1036 C1032 0.950 . S
C1037 C1035 1.390 . S
C1037 C1038 1.387 . S
C1037 H1040 0.950 . S
C1038 C1037 1.387 . S
C1038 C1041 1.387 . S
H1039 C1035 0.950 . S
H1040 C1037 0.950 . S
C1041 C1032 1.390 . S
C1041 H1034 0.950 . S
C1041 C1038 1.387 . S
C1042 C1043 1.387 1_545 S
C1042 H1046 0.950 . S
C1042 C1051 1.390 . S
C1043 C1042 1.387 1_565 S
C1043 C1045 1.387 . S
H1044 C1051 0.950 . S
C1045 C1043 1.387 . S
C1045 C1047 1.390 1_565 S
C1045 H1049 0.950 . S
H1046 C1042 0.950 . S
C1047 C1045 1.390 1_545 S
C1047 C1048 1.387 . S
C1047 H1050 0.950 . S
C1048 C1047 1.387 . S
C1048 C1051 1.387 . S
H1049 C1045 0.950 . S
H1050 C1047 0.950 . S
C1051 C1042 1.390 . S
C1051 H1044 0.950 . S
C1051 C1048 1.387 . S
C1052 C1053 1.387 . S
C1052 H1056 0.950 . S
C1052 C1061 1.390 . S
C1053 C1052 1.387 . S
C1053 C1055 1.387 . S
H1054 C1061 0.950 . S
C1055 C1053 1.387 . S
C1055 C1057 1.390 . S
C1055 H1059 0.950 . S
H1056 C1052 0.950 . S
C1057 C1055 1.390 . S
C1057 C1058 1.387 . S
C1057 H1060 0.950 . S
C1058 C1057 1.387 . S
C1058 C1061 1.387 . S
H1059 C1055 0.950 . S
H1060 C1057 0.950 . S
C1061 C1052 1.390 . S
C1061 H1054 0.950 . S
C1061 C1058 1.387 . S
C1062 C1063 1.387 . S
C1062 H1066 0.950 . S
C1062 C1071 1.390 . S
C1063 C1062 1.387 . S
C1063 C1065 1.387 . S
H1064 C1071 0.950 . S
C1065 C1063 1.387 . S
C1065 C1067 1.390 . S
C1065 H1069 0.950 . S
H1066 C1062 0.950 . S
C1067 C1065 1.390 . S
C1067 C1068 1.387 . S
C1067 H1070 0.950 . S
C1068 C1067 1.387 . S
C1068 C1071 1.387 . S
H1069 C1065 0.950 . S
H1070 C1067 0.950 . S
C1071 C1062 1.390 . S
C1071 H1064 0.950 . S
C1071 C1068 1.387 . S
C1072 C1073 1.387 . S
C1072 H1076 0.950 . S
C1072 C1081 1.390 . S
C1073 C1072 1.387 . S
C1073 C1075 1.387 . S
H1074 C1081 0.950 . S
C1075 C1073 1.387 . S
C1075 C1077 1.390 . S
C1075 H1079 0.950 . S
H1076 C1072 0.950 . S
C1077 C1075 1.390 . S
C1077 C1078 1.387 . S
C1077 H1080 0.950 . S
C1078 C1077 1.387 . S
C1078 C1081 1.387 . S
H1079 C1075 0.950 . S
H1080 C1077 0.950 . S
C1081 C1072 1.390 . S
C1081 H1074 0.950 . S
C1081 C1078 1.387 . S
C1082 C1083 1.387 . S
C1082 H1086 0.950 . S
C1082 C1091 1.390 . S
C1083 C1082 1.387 . S
C1083 C1085 1.387 . S
H1084 C1091 0.950 . S
C1085 C1083 1.387 . S
C1085 C1087 1.390 . S
C1085 H1089 0.950 . S
H1086 C1082 0.950 . S
C1087 C1085 1.390 . S
C1087 C1088 1.387 . S
C1087 H1090 0.950 . S
C1088 C1087 1.387 . S
C1088 C1091 1.387 . S
H1089 C1085 0.950 . S
H1090 C1087 0.950 . S
C1091 C1082 1.390 . S
C1091 H1084 0.950 . S
C1091 C1088 1.387 . S
C1092 C1093 1.387 . S
C1092 H1096 0.950 . S
C1092 C1101 1.390 . S
C1093 C1092 1.387 . S
C1093 C1095 1.387 . S
H1094 C1101 0.950 . S
C1095 C1093 1.387 . S
C1095 C1097 1.390 . S
C1095 H1099 0.950 . S
H1096 C1092 0.950 . S
C1097 C1095 1.390 . S
C1097 C1098 1.387 . S
C1097 H1100 0.950 . S
C1098 C1097 1.387 . S
C1098 C1101 1.387 . S
H1099 C1095 0.950 . S
H1100 C1097 0.950 . S
C1101 C1092 1.390 . S
C1101 H1094 0.950 . S
C1101 C1098 1.387 . S
C1102 C1103 1.387 . S
C1102 H1106 0.950 . S
C1102 C1111 1.390 . S
C1103 C1102 1.387 . S
C1103 C1105 1.387 . S
H1104 C1111 0.950 . S
C1105 C1103 1.387 . S
C1105 C1107 1.390 . S
C1105 H1109 0.950 . S
H1106 C1102 0.950 . S
C1107 C1105 1.390 . S
C1107 C1108 1.387 . S
C1107 H1110 0.950 . S
C1108 C1107 1.387 . S
C1108 C1111 1.387 . S
H1109 C1105 0.950 . S
H1110 C1107 0.950 . S
C1111 C1102 1.390 . S
C1111 H1104 0.950 . S
C1111 C1108 1.387 . S
C1112 C1113 1.387 1_655 S
C1112 H1116 0.950 . S
C1112 C1121 1.390 . S
C1113 C1112 1.387 1_455 S
C1113 C1115 1.387 . S
H1114 C1121 0.950 . S
C1115 C1113 1.387 . S
C1115 C1117 1.390 . S
C1115 H1119 0.950 . S
H1116 C1112 0.950 . S
C1117 C1115 1.390 . S
C1117 C1118 1.387 1_455 S
C1117 H1120 0.950 . S
C1118 C1117 1.387 1_655 S
C1118 C1121 1.387 . S
H1119 C1115 0.950 . S
H1120 C1117 0.950 . S
C1121 C1112 1.390 . S
C1121 H1114 0.950 . S
C1121 C1118 1.387 . S
C1122 C1123 1.387 . S
C1122 H1126 0.950 . S
C1122 C1131 1.390 . S
C1123 C1122 1.387 . S
C1123 C1125 1.387 . S
H1124 C1131 0.950 . S
C1125 C1123 1.387 . S
C1125 C1127 1.390 . S
C1125 H1129 0.950 . S
H1126 C1122 0.950 . S
C1127 C1125 1.390 . S
C1127 C1128 1.387 . S
C1127 H1130 0.950 . S
C1128 C1127 1.387 . S
C1128 C1131 1.387 . S
H1129 C1125 0.950 . S
H1130 C1127 0.950 . S
C1131 C1122 1.390 . S
C1131 H1124 0.950 . S
C1131 C1128 1.387 . S
C1132 C1133 1.387 . S
C1132 H1136 0.950 . S
C1132 C1141 1.390 . S
C1133 C1132 1.387 . S
C1133 C1135 1.387 . S
H1134 C1141 0.950 . S
C1135 C1133 1.387 . S
C1135 C1137 1.390 . S
C1135 H1139 0.950 . S
H1136 C1132 0.950 . S
C1137 C1135 1.390 . S
C1137 C1138 1.387 . S
C1137 H1140 0.950 . S
C1138 C1137 1.387 . S
C1138 C1141 1.387 . S
H1139 C1135 0.950 . S
H1140 C1137 0.950 . S
C1141 C1132 1.390 . S
C1141 H1134 0.950 . S
C1141 C1138 1.387 . S
C1142 C1143 1.387 . S
C1142 H1146 0.950 . S
C1142 C1151 1.390 . S
C1143 C1142 1.387 . S
C1143 C1145 1.387 . S
H1144 C1151 0.950 . S
C1145 C1143 1.387 . S
C1145 C1147 1.390 . S
C1145 H1149 0.950 . S
H1146 C1142 0.950 . S
C1147 C1145 1.390 . S
C1147 C1148 1.387 . S
C1147 H1150 0.950 . S
C1148 C1147 1.387 . S
C1148 C1151 1.387 . S
H1149 C1145 0.950 . S
H1150 C1147 0.950 . S
C1151 C1142 1.390 . S
C1151 H1144 0.950 . S
C1151 C1148 1.387 . S
C1152 C1153 1.387 . S
C1152 H1156 0.950 . S
C1152 C1161 1.390 . S
C1153 C1152 1.387 . S
C1153 C1155 1.387 . S
H1154 C1161 0.950 . S
C1155 C1153 1.387 . S
C1155 C1157 1.390 . S
C1155 H1159 0.950 . S
H1156 C1152 0.950 . S
C1157 C1155 1.390 . S
C1157 C1158 1.387 . S
C1157 H1160 0.950 . S
C1158 C1157 1.387 . S
C1158 C1161 1.387 . S
H1159 C1155 0.950 . S
H1160 C1157 0.950 . S
C1161 C1152 1.390 . S
C1161 H1154 0.950 . S
C1161 C1158 1.387 . S
C1162 C1163 1.387 . S
C1162 H1166 0.950 . S
C1162 C1171 1.390 . S
C1163 C1162 1.387 . S
C1163 C1165 1.387 . S
H1164 C1171 0.950 . S
C1165 C1163 1.387 . S
C1165 C1167 1.390 . S
C1165 H1169 0.950 . S
H1166 C1162 0.950 . S
C1167 C1165 1.390 . S
C1167 C1168 1.387 . S
C1167 H1170 0.950 . S
C1168 C1167 1.387 . S
C1168 C1171 1.387 . S
H1169 C1165 0.950 . S
H1170 C1167 0.950 . S
C1171 C1162 1.390 . S
C1171 H1164 0.950 . S
C1171 C1168 1.387 . S
C1172 C1173 1.387 . S
C1172 H1176 0.950 . S
C1172 C1181 1.390 . S
C1173 C1172 1.387 . S
C1173 C1175 1.387 . S
H1174 C1181 0.950 . S
C1175 C1173 1.387 . S
C1175 C1177 1.390 . S
C1175 H1179 0.950 . S
H1176 C1172 0.950 . S
C1177 C1175 1.390 . S
C1177 C1178 1.387 . S
C1177 H1180 0.950 . S
C1178 C1177 1.387 . S
C1178 C1181 1.387 . S
H1179 C1175 0.950 . S
H1180 C1177 0.950 . S
C1181 C1172 1.390 . S
C1181 H1174 0.950 . S
C1181 C1178 1.387 . S
C1182 C1183 1.387 . S
C1182 H1186 0.950 . S
C1182 C1191 1.390 . S
C1183 C1182 1.387 . S
C1183 C1185 1.387 . S
H1184 C1191 0.950 . S
C1185 C1183 1.387 . S
C1185 C1187 1.390 . S
C1185 H1189 0.950 . S
H1186 C1182 0.950 . S
C1187 C1185 1.390 . S
C1187 C1188 1.387 . S
C1187 H1190 0.950 . S
C1188 C1187 1.387 . S
C1188 C1191 1.387 . S
H1189 C1185 0.950 . S
H1190 C1187 0.950 . S
C1191 C1182 1.390 . S
C1191 H1184 0.950 . S
C1191 C1188 1.387 . S
C1192 C1193 1.387 . S
C1192 H1196 0.950 . S
C1192 C1201 1.390 . S
C1193 C1192 1.387 . S
C1193 C1195 1.387 . S
H1194 C1201 0.950 . S
C1195 C1193 1.387 . S
C1195 C1197 1.390 . S
C1195 H1199 0.950 . S
H1196 C1192 0.950 . S
C1197 C1195 1.390 . S
C1197 C1198 1.387 . S
C1197 H1200 0.950 . S
C1198 C1197 1.387 . S
C1198 C1201 1.387 . S
H1199 C1195 0.950 . S
H1200 C1197 0.950 . S
C1201 C1192 1.390 . S
C1201 H1194 0.950 . S
C1201 C1198 1.387 . S
C1202 C1203 1.387 . S
C1202 H1206 0.950 . S
C1202 C1211 1.390 . S
C1203 C1202 1.387 . S
C1203 C1205 1.387 . S
H1204 C1211 0.950 . S
C1205 C1203 1.387 . S
C1205 C1207 1.390 . S
C1205 H1209 0.950 . S
H1206 C1202 0.950 . S
C1207 C1205 1.390 . S
C1207 C1208 1.387 . S
C1207 H1210 0.950 . S
C1208 C1207 1.387 . S
C1208 C1211 1.387 . S
H1209 C1205 0.950 . S
H1210 C1207 0.950 . S
C1211 C1202 1.390 . S
C1211 H1204 0.950 . S
C1211 C1208 1.387 . S
C1212 C1213 1.387 . S
C1212 H1216 0.950 . S
C1212 C1221 1.390 . S
C1213 C1212 1.387 . S
C1213 C1215 1.387 . S
H1214 C1221 0.950 . S
C1215 C1213 1.387 . S
C1215 C1217 1.390 . S
C1215 H1219 0.950 . S
H1216 C1212 0.950 . S
C1217 C1215 1.390 . S
C1217 C1218 1.387 . S
C1217 H1220 0.950 . S
C1218 C1217 1.387 . S
C1218 C1221 1.387 . S
H1219 C1215 0.950 . S
H1220 C1217 0.950 . S
C1221 C1212 1.390 . S
C1221 H1214 0.950 . S
C1221 C1218 1.387 . S
C1222 C1223 1.387 . S
C1222 H1226 0.950 . S
C1222 C1231 1.390 . S
C1223 C1222 1.387 . S
C1223 C1225 1.387 . S
H1224 C1231 0.950 . S
C1225 C1223 1.387 . S
C1225 C1227 1.390 . S
C1225 H1229 0.950 . S
H1226 C1222 0.950 . S
C1227 C1225 1.390 . S
C1227 C1228 1.387 . S
C1227 H1230 0.950 . S
C1228 C1227 1.387 . S
C1228 C1231 1.387 . S
H1229 C1225 0.950 . S
H1230 C1227 0.950 . S
C1231 C1222 1.390 . S
C1231 H1224 0.950 . S
C1231 C1228 1.387 . S
C1232 C1233 1.387 . S
C1232 H1236 0.950 . S
C1232 C1241 1.390 . S
C1233 C1232 1.387 . S
C1233 C1235 1.387 . S
H1234 C1241 0.950 . S
C1235 C1233 1.387 . S
C1235 C1237 1.390 . S
C1235 H1239 0.950 . S
H1236 C1232 0.950 . S
C1237 C1235 1.390 . S
C1237 C1238 1.387 . S
C1237 H1240 0.950 . S
C1238 C1237 1.387 . S
C1238 C1241 1.387 . S
H1239 C1235 0.950 . S
H1240 C1237 0.950 . S
C1241 C1232 1.390 . S
C1241 H1234 0.950 . S
C1241 C1238 1.387 . S
C1242 C1243 1.387 . S
C1242 H1246 0.950 . S
C1242 C1251 1.390 . S
C1243 C1242 1.387 . S
C1243 C1245 1.387 . S
H1244 C1251 0.950 . S
C1245 C1243 1.387 . S
C1245 C1247 1.390 . S
C1245 H1249 0.950 . S
H1246 C1242 0.950 . S
C1247 C1245 1.390 . S
C1247 C1248 1.387 . S
C1247 H1250 0.950 . S
C1248 C1247 1.387 . S
C1248 C1251 1.387 . S
H1249 C1245 0.950 . S
H1250 C1247 0.950 . S
C1251 C1242 1.390 . S
C1251 H1244 0.950 . S
C1251 C1248 1.387 . S
C1252 C1253 1.387 . S
C1252 H1256 0.950 . S
C1252 C1261 1.390 . S
C1253 C1252 1.387 . S
C1253 C1255 1.387 . S
H1254 C1261 0.950 . S
C1255 C1253 1.387 . S
C1255 C1257 1.390 . S
C1255 H1259 0.950 . S
H1256 C1252 0.950 . S
C1257 C1255 1.390 . S
C1257 C1258 1.387 . S
C1257 H1260 0.950 . S
C1258 C1257 1.387 . S
C1258 C1261 1.387 . S
H1259 C1255 0.950 . S
H1260 C1257 0.950 . S
C1261 C1252 1.390 . S
C1261 H1254 0.950 . S
C1261 C1258 1.387 . S
C1262 C1263 1.387 . S
C1262 H1266 0.950 . S
C1262 C1271 1.390 . S
C1263 C1262 1.387 . S
C1263 C1265 1.387 . S
H1264 C1271 0.950 . S
C1265 C1263 1.387 . S
C1265 C1267 1.390 . S
C1265 H1269 0.950 . S
H1266 C1262 0.950 . S
C1267 C1265 1.390 . S
C1267 C1268 1.387 . S
C1267 H1270 0.950 . S
C1268 C1267 1.387 . S
C1268 C1271 1.387 . S
H1269 C1265 0.950 . S
H1270 C1267 0.950 . S
C1271 C1262 1.390 . S
C1271 H1264 0.950 . S
C1271 C1268 1.387 . S
C1272 C1273 1.387 . S
C1272 H1276 0.950 . S
C1272 C1281 1.390 . S
C1273 C1272 1.387 . S
C1273 C1275 1.387 . S
H1274 C1281 0.950 . S
C1275 C1273 1.387 . S
C1275 C1277 1.390 . S
C1275 H1279 0.950 . S
H1276 C1272 0.950 . S
C1277 C1275 1.390 . S
C1277 C1278 1.387 . S
C1277 H1280 0.950 . S
C1278 C1277 1.387 . S
C1278 C1281 1.387 . S
H1279 C1275 0.950 . S
H1280 C1277 0.950 . S
C1281 C1272 1.390 . S
C1281 H1274 0.950 . S
C1281 C1278 1.387 . S
C1282 C1283 1.387 . S
C1282 H1286 0.950 . S
C1282 C1291 1.390 . S
C1283 C1282 1.387 . S
C1283 C1285 1.387 . S
H1284 C1291 0.950 . S
C1285 C1283 1.387 . S
C1285 C1287 1.390 . S
C1285 H1289 0.950 . S
H1286 C1282 0.950 . S
C1287 C1285 1.390 . S
C1287 C1288 1.387 . S
C1287 H1290 0.950 . S
C1288 C1287 1.387 . S
C1288 C1291 1.387 . S
H1289 C1285 0.950 . S
H1290 C1287 0.950 . S
C1291 C1282 1.390 . S
C1291 H1284 0.950 . S
C1291 C1288 1.387 . S
C1292 C1293 1.387 . S
C1292 H1296 0.950 . S
C1292 C1301 1.390 . S
C1293 C1292 1.387 . S
C1293 C1295 1.387 . S
H1294 C1301 0.950 . S
C1295 C1293 1.387 . S
C1295 C1297 1.390 . S
C1295 H1299 0.950 . S
H1296 C1292 0.950 . S
C1297 C1295 1.390 . S
C1297 C1298 1.387 . S
C1297 H1300 0.950 . S
C1298 C1297 1.387 . S
C1298 C1301 1.387 . S
H1299 C1295 0.950 . S
H1300 C1297 0.950 . S
C1301 C1292 1.390 . S
C1301 H1294 0.950 . S
C1301 C1298 1.387 . S
C1302 C1303 1.387 . S
C1302 H1306 0.950 . S
C1302 C1311 1.390 . S
C1303 C1302 1.387 . S
C1303 C1305 1.387 . S
H1304 C1311 0.950 . S
C1305 C1303 1.387 . S
C1305 C1307 1.390 . S
C1305 H1309 0.950 . S
H1306 C1302 0.950 . S
C1307 C1305 1.390 . S
C1307 C1308 1.387 . S
C1307 H1310 0.950 . S
C1308 C1307 1.387 . S
C1308 C1311 1.387 . S
H1309 C1305 0.950 . S
H1310 C1307 0.950 . S
C1311 C1302 1.390 . S
C1311 H1304 0.950 . S
C1311 C1308 1.387 . S
C1312 C1313 1.387 . S
C1312 H1316 0.950 . S
C1312 C1321 1.390 . S
C1313 C1312 1.387 . S
C1313 C1315 1.387 . S
H1314 C1321 0.950 . S
C1315 C1313 1.387 . S
C1315 C1317 1.390 . S
C1315 H1319 0.950 . S
H1316 C1312 0.950 . S
C1317 C1315 1.390 . S
C1317 C1318 1.387 . S
C1317 H1320 0.950 . S
C1318 C1317 1.387 . S
C1318 C1321 1.387 . S
H1319 C1315 0.950 . S
H1320 C1317 0.950 . S
C1321 C1312 1.390 . S
C1321 H1314 0.950 . S
C1321 C1318 1.387 . S
C1322 C1323 1.387 . S
C1322 H1326 0.950 . S
C1322 C1331 1.390 . S
C1323 C1322 1.387 . S
C1323 C1325 1.387 . S
H1324 C1331 0.950 . S
C1325 C1323 1.387 . S
C1325 C1327 1.390 . S
C1325 H1329 0.950 . S
H1326 C1322 0.950 . S
C1327 C1325 1.390 . S
C1327 C1328 1.387 . S
C1327 H1330 0.950 . S
C1328 C1327 1.387 . S
C1328 C1331 1.387 . S
H1329 C1325 0.950 . S
H1330 C1327 0.950 . S
C1331 C1322 1.390 . S
C1331 H1324 0.950 . S
C1331 C1328 1.387 . S
C1332 C1333 1.387 . S
C1332 H1336 0.950 . S
C1332 C1341 1.390 . S
C1333 C1332 1.387 . S
C1333 C1335 1.387 . S
H1334 C1341 0.950 . S
C1335 C1333 1.387 . S
C1335 C1337 1.390 . S
C1335 H1339 0.950 . S
H1336 C1332 0.950 . S
C1337 C1335 1.390 . S
C1337 C1338 1.387 . S
C1337 H1340 0.950 . S
C1338 C1337 1.387 . S
C1338 C1341 1.387 . S
H1339 C1335 0.950 . S
H1340 C1337 0.950 . S
C1341 C1332 1.390 . S
C1341 H1334 0.950 . S
C1341 C1338 1.387 . S
C1342 C1343 1.387 . S
C1342 H1346 0.950 . S
C1342 C1351 1.390 . S
C1343 C1342 1.387 . S
C1343 C1345 1.387 . S
H1344 C1351 0.950 . S
C1345 C1343 1.387 . S
C1345 C1347 1.390 . S
C1345 H1349 0.950 . S
H1346 C1342 0.950 . S
C1347 C1345 1.390 . S
C1347 C1348 1.387 . S
C1347 H1350 0.950 . S
C1348 C1347 1.387 . S
C1348 C1351 1.387 . S
H1349 C1345 0.950 . S
H1350 C1347 0.950 . S
C1351 C1342 1.390 . S
C1351 H1344 0.950 . S
C1351 C1348 1.387 . S
C1352 C1353 1.387 . S
C1352 H1356 0.950 . S
C1352 C1361 1.390 . S
C1353 C1352 1.387 . S
C1353 C1355 1.387 . S
H1354 C1361 0.950 . S
C1355 C1353 1.387 . S
C1355 C1357 1.390 . S
C1355 H1359 0.950 . S
H1356 C1352 0.950 . S
C1357 C1355 1.390 . S
C1357 C1358 1.387 . S
C1357 H1360 0.950 . S
C1358 C1357 1.387 . S
C1358 C1361 1.387 . S
H1359 C1355 0.950 . S
H1360 C1357 0.950 . S
C1361 C1352 1.390 . S
C1361 H1354 0.950 . S
C1361 C1358 1.387 . S
C1362 C1363 1.387 . S
C1362 H1366 0.950 . S
C1362 C1371 1.390 . S
C1363 C1362 1.387 . S
C1363 C1365 1.387 . S
H1364 C1371 0.950 . S
C1365 C1363 1.387 . S
C1365 C1367 1.390 . S
C1365 H1369 0.950 . S
H1366 C1362 0.950 . S
C1367 C1365 1.390 . S
C1367 C1368 1.387 . S
C1367 H1370 0.950 . S
C1368 C1367 1.387 . S
C1368 C1371 1.387 . S
H1369 C1365 0.950 . S
H1370 C1367 0.950 . S
C1371 C1362 1.390 . S
C1371 H1364 0.950 . S
C1371 C1368 1.387 . S
C1372 C1373 1.387 . S
C1372 H1376 0.950 . S
C1372 C1381 1.390 . S
C1373 C1372 1.387 . S
C1373 C1375 1.387 . S
H1374 C1381 0.950 . S
C1375 C1373 1.387 . S
C1375 C1377 1.390 . S
C1375 H1379 0.950 . S
H1376 C1372 0.950 . S
C1377 C1375 1.390 . S
C1377 C1378 1.387 . S
C1377 H1380 0.950 . S
C1378 C1377 1.387 . S
C1378 C1381 1.387 . S
H1379 C1375 0.950 . S
H1380 C1377 0.950 . S
C1381 C1372 1.390 . S
C1381 H1374 0.950 . S
C1381 C1378 1.387 . S
C1382 C1383 1.387 . S
C1382 H1386 0.950 . S
C1382 C1391 1.390 . S
C1383 C1382 1.387 . S
C1383 C1385 1.387 . S
H1384 C1391 0.950 . S
C1385 C1383 1.387 . S
C1385 C1387 1.390 . S
C1385 H1389 0.950 . S
H1386 C1382 0.950 . S
C1387 C1385 1.390 . S
C1387 C1388 1.387 . S
C1387 H1390 0.950 . S
C1388 C1387 1.387 . S
C1388 C1391 1.387 . S
H1389 C1385 0.950 . S
H1390 C1387 0.950 . S
C1391 C1382 1.390 . S
C1391 H1384 0.950 . S
C1391 C1388 1.387 . S
C1392 C1393 1.387 . S
C1392 H1396 0.950 . S
C1392 C1401 1.390 . S
C1393 C1392 1.387 . S
C1393 C1395 1.387 . S
H1394 C1401 0.950 . S
C1395 C1393 1.387 . S
C1395 C1397 1.390 . S
C1395 H1399 0.950 . S
H1396 C1392 0.950 . S
C1397 C1395 1.390 . S
C1397 C1398 1.387 . S
C1397 H1400 0.950 . S
C1398 C1397 1.387 . S
C1398 C1401 1.387 . S
H1399 C1395 0.950 . S
H1400 C1397 0.950 . S
C1401 C1392 1.390 . S
C1401 H1394 0.950 . S
C1401 C1398 1.387 . S
C1402 C1403 1.387 . S
C1402 H1406 0.950 . S
C1402 C1411 1.390 . S
C1403 C1402 1.387 . S
C1403 C1405 1.387 . S
H1404 C1411 0.950 . S
C1405 C1403 1.387 . S
C1405 C1407 1.390 . S
C1405 H1409 0.950 . S
H1406 C1402 0.950 . S
C1407 C1405 1.390 . S
C1407 C1408 1.387 . S
C1407 H1410 0.950 . S
C1408 C1407 1.387 . S
C1408 C1411 1.387 . S
H1409 C1405 0.950 . S
H1410 C1407 0.950 . S
C1411 C1402 1.390 . S
C1411 H1404 0.950 . S
C1411 C1408 1.387 . S
C1412 C1413 1.387 . S
C1412 H1416 0.950 . S
C1412 C1421 1.390 . S
C1413 C1412 1.387 . S
C1413 C1415 1.387 . S
H1414 C1421 0.950 . S
C1415 C1413 1.387 . S
C1415 C1417 1.390 . S
C1415 H1419 0.950 . S
H1416 C1412 0.950 . S
C1417 C1415 1.390 . S
C1417 C1418 1.387 . S
C1417 H1420 0.950 . S
C1418 C1417 1.387 . S
C1418 C1421 1.387 . S
H1419 C1415 0.950 . S
H1420 C1417 0.950 . S
C1421 C1412 1.390 . S
C1421 H1414 0.950 . S
C1421 C1418 1.387 . S
C1422 C1423 1.387 . S
C1422 H1426 0.950 . S
C1422 C1431 1.390 . S
C1423 C1422 1.387 . S
C1423 C1425 1.387 . S
H1424 C1431 0.950 . S
C1425 C1423 1.387 . S
C1425 C1427 1.390 . S
C1425 H1429 0.950 . S
H1426 C1422 0.950 . S
C1427 C1425 1.390 . S
C1427 C1428 1.387 . S
C1427 H1430 0.950 . S
C1428 C1427 1.387 . S
C1428 C1431 1.387 . S
H1429 C1425 0.950 . S
H1430 C1427 0.950 . S
C1431 C1422 1.390 . S
C1431 H1424 0.950 . S
C1431 C1428 1.387 . S
C1432 C1433 1.387 . S
C1432 H1436 0.950 . S
C1432 C1441 1.390 . S
C1433 C1432 1.387 . S
C1433 C1435 1.387 . S
H1434 C1441 0.950 . S
C1435 C1433 1.387 . S
C1435 C1437 1.390 . S
C1435 H1439 0.950 . S
H1436 C1432 0.950 . S
C1437 C1435 1.390 . S
C1437 C1438 1.387 . S
C1437 H1440 0.950 . S
C1438 C1437 1.387 . S
C1438 C1441 1.387 . S
H1439 C1435 0.950 . S
H1440 C1437 0.950 . S
C1441 C1432 1.390 . S
C1441 H1434 0.950 . S
C1441 C1438 1.387 . S
C1442 C1443 1.387 . S
C1442 H1446 0.950 . S
C1442 C1451 1.390 . S
C1443 C1442 1.387 . S
C1443 C1445 1.387 . S
H1444 C1451 0.950 . S
C1445 C1443 1.387 . S
C1445 C1447 1.390 . S
C1445 H1449 0.950 . S
H1446 C1442 0.950 . S
C1447 C1445 1.390 . S
C1447 C1448 1.387 . S
C1447 H1450 0.950 . S
C1448 C1447 1.387 . S
C1448 C1451 1.387 . S
H1449 C1445 0.950 . S
H1450 C1447 0.950 . S
C1451 C1442 1.390 . S
C1451 H1444 0.950 . S
C1451 C1448 1.387 . S
C1452 C1453 1.387 . S
C1452 H1456 0.950 . S
C1452 C1461 1.390 . S
C1453 C1452 1.387 . S
C1453 C1455 1.387 . S
H1454 C1461 0.950 . S
C1455 C1453 1.387 . S
C1455 C1457 1.390 . S
C1455 H1459 0.950 . S
H1456 C1452 0.950 . S
C1457 C1455 1.390 . S
C1457 C1458 1.387 . S
C1457 H1460 0.950 . S
C1458 C1457 1.387 . S
C1458 C1461 1.387 . S
H1459 C1455 0.950 . S
H1460 C1457 0.950 . S
C1461 C1452 1.390 . S
C1461 H1454 0.950 . S
C1461 C1458 1.387 . S
C1462 C1463 1.387 . S
C1462 H1466 0.950 . S
C1462 C1471 1.390 . S
C1463 C1462 1.387 . S
C1463 C1465 1.387 . S
H1464 C1471 0.950 . S
C1465 C1463 1.387 . S
C1465 C1467 1.390 . S
C1465 H1469 0.950 . S
H1466 C1462 0.950 . S
C1467 C1465 1.390 . S
C1467 C1468 1.387 . S
C1467 H1470 0.950 . S
C1468 C1467 1.387 . S
C1468 C1471 1.387 . S
H1469 C1465 0.950 . S
H1470 C1467 0.950 . S
C1471 C1462 1.390 . S
C1471 H1464 0.950 . S
C1471 C1468 1.387 . S
C1472 C1473 1.387 . S
C1472 H1476 0.950 . S
C1472 C1481 1.390 . S
C1473 C1472 1.387 . S
C1473 C1475 1.387 . S
H1474 C1481 0.950 . S
C1475 C1473 1.387 . S
C1475 C1477 1.390 . S
C1475 H1479 0.950 . S
H1476 C1472 0.950 . S
C1477 C1475 1.390 . S
C1477 C1478 1.387 . S
C1477 H1480 0.950 . S
C1478 C1477 1.387 . S
C1478 C1481 1.387 . S
H1479 C1475 0.950 . S
H1480 C1477 0.950 . S
C1481 C1472 1.390 . S
C1481 H1474 0.950 . S
C1481 C1478 1.387 . S
C1482 C1483 1.387 . S
C1482 H1486 0.950 . S
C1482 C1491 1.390 . S
C1483 C1482 1.387 . S
C1483 C1485 1.387 . S
H1484 C1491 0.950 . S
C1485 C1483 1.387 . S
C1485 C1487 1.390 . S
C1485 H1489 0.950 . S
H1486 C1482 0.950 . S
C1487 C1485 1.390 . S
C1487 C1488 1.387 . S
C1487 H1490 0.950 . S
C1488 C1487 1.387 . S
C1488 C1491 1.387 . S
H1489 C1485 0.950 . S
H1490 C1487 0.950 . S
C1491 C1482 1.390 . S
C1491 H1484 0.950 . S
C1491 C1488 1.387 . S
C1492 C1493 1.387 . S
C1492 H1496 0.950 . S
C1492 C1501 1.390 . S
C1493 C1492 1.387 . S
C1493 C1495 1.387 . S
H1494 C1501 0.950 . S
C1495 C1493 1.387 . S
C1495 C1497 1.390 . S
C1495 H1499 0.950 . S
H1496 C1492 0.950 . S
C1497 C1495 1.390 . S
C1497 C1498 1.387 . S
C1497 H1500 0.950 . S
C1498 C1497 1.387 . S
C1498 C1501 1.387 . S
H1499 C1495 0.950 . S
H1500 C1497 0.950 . S
C1501 C1492 1.390 . S
C1501 H1494 0.950 . S
C1501 C1498 1.387 . S
C1502 C1503 1.387 . S
C1502 H1506 0.950 . S
C1502 C1511 1.390 . S
C1503 C1502 1.387 . S
C1503 C1505 1.387 . S
H1504 C1511 0.950 . S
C1505 C1503 1.387 . S
C1505 C1507 1.390 . S
C1505 H1509 0.950 . S
H1506 C1502 0.950 . S
C1507 C1505 1.390 . S
C1507 C1508 1.387 . S
C1507 H1510 0.950 . S
C1508 C1507 1.387 . S
C1508 C1511 1.387 . S
H1509 C1505 0.950 . S
H1510 C1507 0.950 . S
C1511 C1502 1.390 . S
C1511 H1504 0.950 . S
C1511 C1508 1.387 . S
C1512 C1513 1.387 . S
C1512 H1516 0.950 . S
C1512 C1521 1.390 . S
C1513 C1512 1.387 . S
C1513 C1515 1.387 . S
H1514 C1521 0.950 . S
C1515 C1513 1.387 . S
C1515 C1517 1.390 . S
C1515 H1519 0.950 . S
H1516 C1512 0.950 . S
C1517 C1515 1.390 . S
C1517 C1518 1.387 . S
C1517 H1520 0.950 . S
C1518 C1517 1.387 . S
C1518 C1521 1.387 . S
H1519 C1515 0.950 . S
H1520 C1517 0.950 . S
C1521 C1512 1.390 . S
C1521 H1514 0.950 . S
C1521 C1518 1.387 . S
C1522 C1523 1.387 . S
C1522 H1526 0.950 . S
C1522 C1531 1.390 . S
C1523 C1522 1.387 . S
C1523 C1525 1.387 . S
H1524 C1531 0.950 . S
C1525 C1523 1.387 . S
C1525 C1527 1.390 . S
C1525 H1529 0.950 . S
H1526 C1522 0.950 . S
C1527 C1525 1.390 . S
C1527 C1528 1.387 . S
C1527 H1530 0.950 . S
C1528 C1527 1.387 . S
C1528 C1531 1.387 . S
H1529 C1525 0.950 . S
H1530 C1527 0.950 . S
C1531 C1522 1.390 . S
C1531 H1524 0.950 . S
C1531 C1528 1.387 . S
C1532 C1533 1.387 . S
C1532 H1536 0.950 . S
C1532 C1541 1.390 . S
C1533 C1532 1.387 . S
C1533 C1535 1.387 . S
H1534 C1541 0.950 . S
C1535 C1533 1.387 . S
C1535 C1537 1.390 . S
C1535 H1539 0.950 . S
H1536 C1532 0.950 . S
C1537 C1535 1.390 . S
C1537 C1538 1.387 . S
C1537 H1540 0.950 . S
C1538 C1537 1.387 . S
C1538 C1541 1.387 . S
H1539 C1535 0.950 . S
H1540 C1537 0.950 . S
C1541 C1532 1.390 . S
C1541 H1534 0.950 . S
C1541 C1538 1.387 . S
C1542 C1543 1.387 . S
C1542 H1546 0.950 . S
C1542 C1551 1.390 . S
C1543 C1542 1.387 . S
C1543 C1545 1.387 . S
H1544 C1551 0.950 . S
C1545 C1543 1.387 . S
C1545 C1547 1.390 . S
C1545 H1549 0.950 . S
H1546 C1542 0.950 . S
C1547 C1545 1.390 . S
C1547 C1548 1.387 . S
C1547 H1550 0.950 . S
C1548 C1547 1.387 . S
C1548 C1551 1.387 . S
H1549 C1545 0.950 . S
H1550 C1547 0.950 . S
C1551 C1542 1.390 . S
C1551 H1544 0.950 . S
C1551 C1548 1.387 . S
C1552 C1553 1.387 . S
C1552 H1556 0.950 . S
C1552 C1561 1.390 . S
C1553 C1552 1.387 . S
C1553 C1555 1.387 . S
H1554 C1561 0.950 . S
C1555 C1553 1.387 . S
C1555 C1557 1.390 . S
C1555 H1559 0.950 . S
H1556 C1552 0.950 . S
C1557 C1555 1.390 . S
C1557 C1558 1.387 . S
C1557 H1560 0.950 . S
C1558 C1557 1.387 . S
C1558 C1561 1.387 . S
H1559 C1555 0.950 . S
H1560 C1557 0.950 . S
C1561 C1552 1.390 . S
C1561 H1554 0.950 . S
C1561 C1558 1.387 . S
C1562 C1563 1.387 . S
C1562 H1566 0.950 . S
C1562 C1571 1.390 . S
C1563 C1562 1.387 . S
C1563 C1565 1.387 . S
H1564 C1571 0.950 . S
C1565 C1563 1.387 . S
C1565 C1567 1.390 . S
C1565 H1569 0.950 . S
H1566 C1562 0.950 . S
C1567 C1565 1.390 . S
C1567 C1568 1.387 . S
C1567 H1570 0.950 . S
C1568 C1567 1.387 . S
C1568 C1571 1.387 . S
H1569 C1565 0.950 . S
H1570 C1567 0.950 . S
C1571 C1562 1.390 . S
C1571 H1564 0.950 . S
C1571 C1568 1.387 . S
C1572 C1573 1.387 . S
C1572 H1576 0.950 . S
C1572 C1581 1.390 . S
C1573 C1572 1.387 . S
C1573 C1575 1.387 . S
H1574 C1581 0.950 . S
C1575 C1573 1.387 . S
C1575 C1577 1.390 . S
C1575 H1579 0.950 . S
H1576 C1572 0.950 . S
C1577 C1575 1.390 . S
C1577 C1578 1.387 . S
C1577 H1580 0.950 . S
C1578 C1577 1.387 . S
C1578 C1581 1.387 . S
H1579 C1575 0.950 . S
H1580 C1577 0.950 . S
C1581 C1572 1.390 . S
C1581 H1574 0.950 . S
C1581 C1578 1.387 . S
C1582 C1583 1.387 . S
C1582 H1586 0.950 . S
C1582 C1591 1.390 . S
C1583 C1582 1.387 . S
C1583 C1585 1.387 . S
H1584 C1591 0.950 . S
C1585 C1583 1.387 . S
C1585 C1587 1.390 . S
C1585 H1589 0.950 . S
H1586 C1582 0.950 . S
C1587 C1585 1.390 . S
C1587 C1588 1.387 . S
C1587 H1590 0.950 . S
C1588 C1587 1.387 . S
C1588 C1591 1.387 . S
H1589 C1585 0.950 . S
H1590 C1587 0.950 . S
C1591 C1582 1.390 . S
C1591 H1584 0.950 . S
C1591 C1588 1.387 . S
C1592 C1593 1.387 . S
C1592 H1596 0.950 . S
C1592 C1601 1.390 . S
C1593 C1592 1.387 . S
C1593 C1595 1.387 . S
H1594 C1601 0.950 . S
C1595 C1593 1.387 . S
C1595 C1597 1.390 . S
C1595 H1599 0.950 . S
H1596 C1592 0.950 . S
C1597 C1595 1.390 . S
C1597 C1598 1.387 . S
C1597 H1600 0.950 . S
C1598 C1597 1.387 . S
C1598 C1601 1.387 . S
H1599 C1595 0.950 . S
H1600 C1597 0.950 . S
C1601 C1592 1.390 . S
C1601 H1594 0.950 . S
C1601 C1598 1.387 . S
C1602 C1603 1.387 . S
C1602 H1606 0.950 . S
C1602 C1611 1.390 . S
C1603 C1602 1.387 . S
C1603 C1605 1.387 . S
H1604 C1611 0.950 . S
C1605 C1603 1.387 . S
C1605 C1607 1.390 . S
C1605 H1609 0.950 . S
H1606 C1602 0.950 . S
C1607 C1605 1.390 . S
C1607 C1608 1.387 . S
C1607 H1610 0.950 . S
C1608 C1607 1.387 . S
C1608 C1611 1.387 . S
H1609 C1605 0.950 . S
H1610 C1607 0.950 . S
C1611 C1602 1.390 . S
C1611 H1604 0.950 . S
C1611 C1608 1.387 . S
C1612 C1613 1.387 . S
C1612 H1616 0.950 . S
C1612 C1621 1.390 . S
C1613 C1612 1.387 . S
C1613 C1615 1.387 . S
H1614 C1621 0.950 . S
C1615 C1613 1.387 . S
C1615 C1617 1.390 . S
C1615 H1619 0.950 . S
H1616 C1612 0.950 . S
C1617 C1615 1.390 . S
C1617 C1618 1.387 . S
C1617 H1620 0.950 . S
C1618 C1617 1.387 . S
C1618 C1621 1.387 . S
H1619 C1615 0.950 . S
H1620 C1617 0.950 . S
C1621 C1612 1.390 . S
C1621 H1614 0.950 . S
C1621 C1618 1.387 . S
C1622 C1623 1.387 . S
C1622 H1626 0.950 . S
C1622 C1631 1.390 . S
C1623 C1622 1.387 . S
C1623 C1625 1.387 . S
H1624 C1631 0.950 . S
C1625 C1623 1.387 . S
C1625 C1627 1.390 . S
C1625 H1629 0.950 . S
H1626 C1622 0.950 . S
C1627 C1625 1.390 . S
C1627 C1628 1.387 . S
C1627 H1630 0.950 . S
C1628 C1627 1.387 . S
C1628 C1631 1.387 . S
H1629 C1625 0.950 . S
H1630 C1627 0.950 . S
C1631 C1622 1.390 . S
C1631 H1624 0.950 . S
C1631 C1628 1.387 . S
C673 C231 1.344 . S
C678 C7 1.447 . S
C683 C667 1.042 . S
C688 C21 1.254 1_554 S
C693 C35 1.445 . S
C698 C637 1.345 . S
C703 C49 1.239 1_554 S
C708 C653 1.028 . S
C713 C245 1.365 . S
C718 C63 1.465 . S
C723 C77 1.511 1_556 S
C728 C261 1.164 . S
C733 C91 1.462 . S
C738 C273 1.363 . S
C743 C625 1.164 . S
C748 C105 1.536 1_556 S
C753 C121 1.474 . S
C758 C9 1.283 . S
C763 C23 1.164 . S
C768 C133 1.409 . S
C773 C37 1.286 . S
C778 C149 1.475 . S
C783 C51 1.166 . S
C788 C161 1.407 . S
C793 C65 1.284 . S
C798 C177 1.479 . S
C803 C189 1.151 . S
C808 C79 0.994 . S
C813 C93 1.290 . S
C818 C205 1.483 . S
C823 C217 1.154 . S
C828 C107 0.993 . S
C833 C233 1.417 . S
C838 C119 1.507 . S
C843 C175 1.498 . S
C848 C247 1.408 . S
C853 C259 1.408 . S
C858 C191 1.122 . S
C863 C275 1.418 . S
C868 C203 1.510 . S
C873 C555 1.118 . S
C878 C287 1.448 . S
C883 C303 1.458 . S
C888 C483 1.540 . S
C893 C499 1.143 . S
C898 C315 1.424 . S
C903 C471 1.142 . S
C908 C329 1.429 . S
C913 C567 1.243 . S
C918 C343 1.313 . S
C923 C357 1.537 . S
C928 C331 1.171 . S
C933 C371 1.308 . S
C938 C301 1.235 . S
C943 C385 1.536 . S
C948 C317 1.163 . S
C953 C399 1.297 . S
C958 C581 1.224 . S
C963 C597 1.022 . S
C968 C413 1.239 . S
C973 C427 1.289 . S
C978 C609 1.222 . S
C983 C289 1.032 . S
C988 C441 1.256 . S
C993 C345 1.497 . S
C998 C457 1.723 . S
C1003 C469 1.133 . S
C1008 C359 0.979 . S
C1013 C485 1.734 . S
C1018 C373 1.505 . S
C1023 C497 1.131 . S
C1028 C387 0.987 . S
C1033 C513 1.717 . S
C1038 C401 1.492 . S
C1043 C525 1.386 . S
C1048 C415 1.154 . S
C1053 C429 1.500 . S
C1058 C541 1.725 . S
C1063 C443 1.157 . S
C1068 C553 1.386 . S
C1073 C455 1.544 . S
C1078 C569 1.460 . S
C1083 C511 1.549 . S
C1088 C583 1.468 . S
C1093 C527 1.122 . S
C1098 C595 1.461 . S
C1103 C611 1.467 . S
C1108 C539 1.547 . S
C1113 C623 1.411 . S
C1118 C219 1.127 . S
C1123 C639 1.426 . S
C1128 C147 1.518 . S
C1133 C163 1.112 . S
C1138 C651 1.446 . S
C1143 C665 1.431 . S
C1148 C135 1.103 . S
C1153 C6 1.169 . S
C1158 C386 1.206 . S
C1163 C344 1.575 . S
C1168 C20 1.560 . S
C1173 C34 1.170 . S
C1178 C358 1.210 . S
C1183 C48 1.554 . S
C1188 C372 1.571 . S
C1193 C62 1.184 . S
C1198 C78 1.223 . S
C1203 C92 1.851 . S
C1208 C76 1.882 . S
C1213 C90 1.189 . S
C1218 C106 1.230 . S
C1223 C104 1.879 . S
C1228 C64 1.854 . S
C1233 C120 1.460 . S
C1238 C596 1.656 . S
C1243 C132 1.715 . S
C1248 C608 1.625 . S
C1253 C148 1.491 . S
C1258 C288 1.697 . S
C1263 C160 1.719 . S
C1268 C580 1.631 . S
C1273 C176 1.450 . S
C1278 C652 1.644 . S
C1283 C230 1.572 . S
C1288 C188 1.675 . S
C1293 C204 1.481 . S
C1298 C666 1.684 . S
C1303 C636 1.575 . S
C1308 C216 1.680 . S
C1313 C134 1.823 . S
C1318 C232 1.637 . S
C1323 C246 1.684 . S
C1328 C554 1.872 . S
C1333 C258 1.579 . S
C1338 C510 1.539 . S
C1343 C526 1.874 . S
C1348 C274 1.690 . S
C1353 C286 1.441 . S
C1358 C202 1.389 . S
C1363 C498 1.724 . S
C1368 C302 1.552 . S
C1373 C454 1.543 . S
C1378 C314 1.585 . S
C1383 C482 1.548 . S
C1388 C328 1.589 . S
C1393 C342 1.891 . S
C1398 C50 1.954 . S
C1403 C356 1.864 . S
C1408 C8 1.838 . S
C1413 C22 1.962 . S
C1418 C370 1.900 . S
C1423 C384 1.864 . S
C1428 C36 1.839 . S
C1433 C398 1.881 . S
C1438 C414 1.944 . S
C1443 C428 1.557 . S
C1448 C412 1.541 . S
C1453 C442 1.952 . S
C1458 C426 1.888 . S
C1463 C440 1.545 . S
C1468 C400 1.562 . S
C1473 C260 1.820 . S
C1478 C456 1.613 . S
C1483 C468 1.663 . S
C1488 C272 1.563 . S
C1493 C484 1.611 . S
C1498 C624 1.821 . S
C1503 C496 1.658 . S
C1508 C244 1.557 . S
C1513 C512 1.623 . S
C1518 C316 1.830 . S
C1523 C524 1.706 . S
C1528 C566 1.615 . S
C1533 C330 1.832 . S
C1538 C540 1.621 . S
C1543 C552 1.705 . S
C1548 C300 1.613 . S
C1553 C470 1.728 . S
C1558 C568 1.555 . S
C1563 C218 1.676 . S
C1568 C582 1.506 . S
C1573 C174 1.393 . S
C1578 C594 1.451 . S
C1583 C610 1.508 . S
C1588 C190 1.670 . S
C1593 C622 1.580 . S
C1598 C538 1.540 . S
C1603 C162 1.828 . S
C1608 C638 1.647 . S
C1613 C650 1.441 . S
C1618 C118 1.389 . S
C1623 C146 1.379 . S
C1628 C664 1.433 . S
