# Generated by pormake.
# Topology gie, (4)-cn, num edge types: 1
# Building blocks:
#     Node 0, Type 0, BuildingBlock: CEKHIL_clean_sbu_0, # of connection points: 4
#     Node 1, Type 0, BuildingBlock: CEKHIL_clean_sbu_0, # of connection points: 4
#     Node 2, Type 0, BuildingBlock: CEKHIL_clean_sbu_0, # of connection points: 4
#     Node 3, Type 0, BuildingBlock: CEKHIL_clean_sbu_0, # of connection points: 4
#     Node 4, Type 0, BuildingBlock: CEKHIL_clean_sbu_0, # of connection points: 4
#     Node 5, Type 0, BuildingBlock: CEKHIL_clean_sbu_0, # of connection points: 4
#     Node 6, Type 0, BuildingBlock: CEKHIL_clean_sbu_0, # of connection points: 4
#     Node 7, Type 0, BuildingBlock: CEKHIL_clean_sbu_0, # of connection points: 4
#     Node 8, Type 0, BuildingBlock: CEKHIL_clean_sbu_0, # of connection points: 4
#     Node 9, Type 0, BuildingBlock: CEKHIL_clean_sbu_0, # of connection points: 4
#     Node 10, Type 0, BuildingBlock: CEKHIL_clean_sbu_0, # of connection points: 4
#     Node 11, Type 0, BuildingBlock: CEKHIL_clean_sbu_0, # of connection points: 4
#     Node 12, Type 0, BuildingBlock: CEKHIL_clean_sbu_0, # of connection points: 4
#     Node 13, Type 0, BuildingBlock: CEKHIL_clean_sbu_0, # of connection points: 4
#     Node 14, Type 0, BuildingBlock: CEKHIL_clean_sbu_0, # of connection points: 4
#     Node 15, Type 0, BuildingBlock: CEKHIL_clean_sbu_0, # of connection points: 4
#     Node 16, Type 0, BuildingBlock: CEKHIL_clean_sbu_0, # of connection points: 4
#     Node 17, Type 0, BuildingBlock: CEKHIL_clean_sbu_0, # of connection points: 4
#     Node 18, Type 0, BuildingBlock: CEKHIL_clean_sbu_0, # of connection points: 4
#     Node 19, Type 0, BuildingBlock: CEKHIL_clean_sbu_0, # of connection points: 4
#     Node 20, Type 0, BuildingBlock: CEKHIL_clean_sbu_0, # of connection points: 4
#     Node 21, Type 0, BuildingBlock: CEKHIL_clean_sbu_0, # of connection points: 4
#     Node 22, Type 0, BuildingBlock: CEKHIL_clean_sbu_0, # of connection points: 4
#     Node 23, Type 0, BuildingBlock: CEKHIL_clean_sbu_0, # of connection points: 4
#     Node 24, Type 0, BuildingBlock: CEKHIL_clean_sbu_0, # of connection points: 4
#     Node 25, Type 0, BuildingBlock: CEKHIL_clean_sbu_0, # of connection points: 4
#     Node 26, Type 0, BuildingBlock: CEKHIL_clean_sbu_0, # of connection points: 4
#     Node 27, Type 0, BuildingBlock: CEKHIL_clean_sbu_0, # of connection points: 4
#     Node 28, Type 0, BuildingBlock: CEKHIL_clean_sbu_0, # of connection points: 4
#     Node 29, Type 0, BuildingBlock: CEKHIL_clean_sbu_0, # of connection points: 4
#     Node 30, Type 0, BuildingBlock: CEKHIL_clean_sbu_0, # of connection points: 4
#     Node 31, Type 0, BuildingBlock: CEKHIL_clean_sbu_0, # of connection points: 4
#     Node 32, Type 0, BuildingBlock: CEKHIL_clean_sbu_0, # of connection points: 4
#     Node 33, Type 0, BuildingBlock: CEKHIL_clean_sbu_0, # of connection points: 4
#     Node 34, Type 0, BuildingBlock: CEKHIL_clean_sbu_0, # of connection points: 4
#     Node 35, Type 0, BuildingBlock: CEKHIL_clean_sbu_0, # of connection points: 4
#     Node 36, Type 0, BuildingBlock: CEKHIL_clean_sbu_0, # of connection points: 4
#     Node 37, Type 0, BuildingBlock: CEKHIL_clean_sbu_0, # of connection points: 4
#     Node 38, Type 0, BuildingBlock: CEKHIL_clean_sbu_0, # of connection points: 4
#     Node 39, Type 0, BuildingBlock: CEKHIL_clean_sbu_0, # of connection points: 4
#     Node 40, Type 0, BuildingBlock: CEKHIL_clean_sbu_0, # of connection points: 4
#     Node 41, Type 0, BuildingBlock: CEKHIL_clean_sbu_0, # of connection points: 4
#     Node 42, Type 0, BuildingBlock: CEKHIL_clean_sbu_0, # of connection points: 4
#     Node 43, Type 0, BuildingBlock: CEKHIL_clean_sbu_0, # of connection points: 4
#     Node 44, Type 0, BuildingBlock: CEKHIL_clean_sbu_0, # of connection points: 4
#     Node 45, Type 0, BuildingBlock: CEKHIL_clean_sbu_0, # of connection points: 4
#     Node 46, Type 0, BuildingBlock: CEKHIL_clean_sbu_0, # of connection points: 4
#     Node 47, Type 0, BuildingBlock: CEKHIL_clean_sbu_0, # of connection points: 4
#     Node 48, Type 0, BuildingBlock: CEKHIL_clean_sbu_0, # of connection points: 4
#     Node 49, Type 0, BuildingBlock: CEKHIL_clean_sbu_0, # of connection points: 4
#     Node 50, Type 0, BuildingBlock: CEKHIL_clean_sbu_0, # of connection points: 4
#     Node 51, Type 0, BuildingBlock: CEKHIL_clean_sbu_0, # of connection points: 4
#     Node 52, Type 0, BuildingBlock: CEKHIL_clean_sbu_0, # of connection points: 4
#     Node 53, Type 0, BuildingBlock: CEKHIL_clean_sbu_0, # of connection points: 4
#     Node 54, Type 0, BuildingBlock: CEKHIL_clean_sbu_0, # of connection points: 4
#     Node 55, Type 0, BuildingBlock: CEKHIL_clean_sbu_0, # of connection points: 4
#     Node 56, Type 0, BuildingBlock: CEKHIL_clean_sbu_0, # of connection points: 4
#     Node 57, Type 0, BuildingBlock: CEKHIL_clean_sbu_0, # of connection points: 4
#     Node 58, Type 0, BuildingBlock: CEKHIL_clean_sbu_0, # of connection points: 4
#     Node 59, Type 0, BuildingBlock: CEKHIL_clean_sbu_0, # of connection points: 4
#     Node 60, Type 0, BuildingBlock: CEKHIL_clean_sbu_0, # of connection points: 4
#     Node 61, Type 0, BuildingBlock: CEKHIL_clean_sbu_0, # of connection points: 4
#     Node 62, Type 0, BuildingBlock: CEKHIL_clean_sbu_0, # of connection points: 4
#     Node 63, Type 0, BuildingBlock: CEKHIL_clean_sbu_0, # of connection points: 4
#     Node 64, Type 0, BuildingBlock: CEKHIL_clean_sbu_0, # of connection points: 4
#     Node 65, Type 0, BuildingBlock: CEKHIL_clean_sbu_0, # of connection points: 4
#     Node 66, Type 0, BuildingBlock: CEKHIL_clean_sbu_0, # of connection points: 4
#     Node 67, Type 0, BuildingBlock: CEKHIL_clean_sbu_0, # of connection points: 4
#     Node 68, Type 0, BuildingBlock: CEKHIL_clean_sbu_0, # of connection points: 4
#     Node 69, Type 0, BuildingBlock: CEKHIL_clean_sbu_0, # of connection points: 4
#     Node 70, Type 0, BuildingBlock: CEKHIL_clean_sbu_0, # of connection points: 4
#     Node 71, Type 0, BuildingBlock: CEKHIL_clean_sbu_0, # of connection points: 4
#     Node 72, Type 0, BuildingBlock: CEKHIL_clean_sbu_0, # of connection points: 4
#     Node 73, Type 0, BuildingBlock: CEKHIL_clean_sbu_0, # of connection points: 4
#     Node 74, Type 0, BuildingBlock: CEKHIL_clean_sbu_0, # of connection points: 4
#     Node 75, Type 0, BuildingBlock: CEKHIL_clean_sbu_0, # of connection points: 4
#     Node 76, Type 0, BuildingBlock: CEKHIL_clean_sbu_0, # of connection points: 4
#     Node 77, Type 0, BuildingBlock: CEKHIL_clean_sbu_0, # of connection points: 4
#     Node 78, Type 0, BuildingBlock: CEKHIL_clean_sbu_0, # of connection points: 4
#     Node 79, Type 0, BuildingBlock: CEKHIL_clean_sbu_0, # of connection points: 4
#     Node 80, Type 0, BuildingBlock: CEKHIL_clean_sbu_0, # of connection points: 4
#     Node 81, Type 0, BuildingBlock: CEKHIL_clean_sbu_0, # of connection points: 4
#     Node 82, Type 0, BuildingBlock: CEKHIL_clean_sbu_0, # of connection points: 4
#     Node 83, Type 0, BuildingBlock: CEKHIL_clean_sbu_0, # of connection points: 4
#     Node 84, Type 0, BuildingBlock: CEKHIL_clean_sbu_0, # of connection points: 4
#     Node 85, Type 0, BuildingBlock: CEKHIL_clean_sbu_0, # of connection points: 4
#     Node 86, Type 0, BuildingBlock: CEKHIL_clean_sbu_0, # of connection points: 4
#     Node 87, Type 0, BuildingBlock: CEKHIL_clean_sbu_0, # of connection points: 4
#     Node 88, Type 0, BuildingBlock: CEKHIL_clean_sbu_0, # of connection points: 4
#     Node 89, Type 0, BuildingBlock: CEKHIL_clean_sbu_0, # of connection points: 4
#     Node 90, Type 0, BuildingBlock: CEKHIL_clean_sbu_0, # of connection points: 4
#     Node 91, Type 0, BuildingBlock: CEKHIL_clean_sbu_0, # of connection points: 4
#     Node 92, Type 0, BuildingBlock: CEKHIL_clean_sbu_0, # of connection points: 4
#     Node 93, Type 0, BuildingBlock: CEKHIL_clean_sbu_0, # of connection points: 4
#     Node 94, Type 0, BuildingBlock: CEKHIL_clean_sbu_0, # of connection points: 4
#     Node 95, Type 0, BuildingBlock: CEKHIL_clean_sbu_0, # of connection points: 4
#     Edge 96, Type (0, 0), BuildingBlock: AJUNOK_clean_linker_0, # of connection points: 2
#     Edge 97, Type (0, 0), BuildingBlock: AJUNOK_clean_linker_0, # of connection points: 2
#     Edge 98, Type (0, 0), BuildingBlock: AJUNOK_clean_linker_0, # of connection points: 2
#     Edge 99, Type (0, 0), BuildingBlock: AJUNOK_clean_linker_0, # of connection points: 2
#     Edge 100, Type (0, 0), BuildingBlock: AJUNOK_clean_linker_0, # of connection points: 2
#     Edge 101, Type (0, 0), BuildingBlock: AJUNOK_clean_linker_0, # of connection points: 2
#     Edge 102, Type (0, 0), BuildingBlock: AJUNOK_clean_linker_0, # of connection points: 2
#     Edge 103, Type (0, 0), BuildingBlock: AJUNOK_clean_linker_0, # of connection points: 2
#     Edge 104, Type (0, 0), BuildingBlock: AJUNOK_clean_linker_0, # of connection points: 2
#     Edge 105, Type (0, 0), BuildingBlock: AJUNOK_clean_linker_0, # of connection points: 2
#     Edge 106, Type (0, 0), BuildingBlock: AJUNOK_clean_linker_0, # of connection points: 2
#     Edge 107, Type (0, 0), BuildingBlock: AJUNOK_clean_linker_0, # of connection points: 2
#     Edge 108, Type (0, 0), BuildingBlock: AJUNOK_clean_linker_0, # of connection points: 2
#     Edge 109, Type (0, 0), BuildingBlock: AJUNOK_clean_linker_0, # of connection points: 2
#     Edge 110, Type (0, 0), BuildingBlock: AJUNOK_clean_linker_0, # of connection points: 2
#     Edge 111, Type (0, 0), BuildingBlock: AJUNOK_clean_linker_0, # of connection points: 2
#     Edge 112, Type (0, 0), BuildingBlock: AJUNOK_clean_linker_0, # of connection points: 2
#     Edge 113, Type (0, 0), BuildingBlock: AJUNOK_clean_linker_0, # of connection points: 2
#     Edge 114, Type (0, 0), BuildingBlock: AJUNOK_clean_linker_0, # of connection points: 2
#     Edge 115, Type (0, 0), BuildingBlock: AJUNOK_clean_linker_0, # of connection points: 2
#     Edge 116, Type (0, 0), BuildingBlock: AJUNOK_clean_linker_0, # of connection points: 2
#     Edge 117, Type (0, 0), BuildingBlock: AJUNOK_clean_linker_0, # of connection points: 2
#     Edge 118, Type (0, 0), BuildingBlock: AJUNOK_clean_linker_0, # of connection points: 2
#     Edge 119, Type (0, 0), BuildingBlock: AJUNOK_clean_linker_0, # of connection points: 2
#     Edge 120, Type (0, 0), BuildingBlock: AJUNOK_clean_linker_0, # of connection points: 2
#     Edge 121, Type (0, 0), BuildingBlock: AJUNOK_clean_linker_0, # of connection points: 2
#     Edge 122, Type (0, 0), BuildingBlock: AJUNOK_clean_linker_0, # of connection points: 2
#     Edge 123, Type (0, 0), BuildingBlock: AJUNOK_clean_linker_0, # of connection points: 2
#     Edge 124, Type (0, 0), BuildingBlock: AJUNOK_clean_linker_0, # of connection points: 2
#     Edge 125, Type (0, 0), BuildingBlock: AJUNOK_clean_linker_0, # of connection points: 2
#     Edge 126, Type (0, 0), BuildingBlock: AJUNOK_clean_linker_0, # of connection points: 2
#     Edge 127, Type (0, 0), BuildingBlock: AJUNOK_clean_linker_0, # of connection points: 2
#     Edge 128, Type (0, 0), BuildingBlock: AJUNOK_clean_linker_0, # of connection points: 2
#     Edge 129, Type (0, 0), BuildingBlock: AJUNOK_clean_linker_0, # of connection points: 2
#     Edge 130, Type (0, 0), BuildingBlock: AJUNOK_clean_linker_0, # of connection points: 2
#     Edge 131, Type (0, 0), BuildingBlock: AJUNOK_clean_linker_0, # of connection points: 2
#     Edge 132, Type (0, 0), BuildingBlock: AJUNOK_clean_linker_0, # of connection points: 2
#     Edge 133, Type (0, 0), BuildingBlock: AJUNOK_clean_linker_0, # of connection points: 2
#     Edge 134, Type (0, 0), BuildingBlock: AJUNOK_clean_linker_0, # of connection points: 2
#     Edge 135, Type (0, 0), BuildingBlock: AJUNOK_clean_linker_0, # of connection points: 2
#     Edge 136, Type (0, 0), BuildingBlock: AJUNOK_clean_linker_0, # of connection points: 2
#     Edge 137, Type (0, 0), BuildingBlock: AJUNOK_clean_linker_0, # of connection points: 2
#     Edge 138, Type (0, 0), BuildingBlock: AJUNOK_clean_linker_0, # of connection points: 2
#     Edge 139, Type (0, 0), BuildingBlock: AJUNOK_clean_linker_0, # of connection points: 2
#     Edge 140, Type (0, 0), BuildingBlock: AJUNOK_clean_linker_0, # of connection points: 2
#     Edge 141, Type (0, 0), BuildingBlock: AJUNOK_clean_linker_0, # of connection points: 2
#     Edge 142, Type (0, 0), BuildingBlock: AJUNOK_clean_linker_0, # of connection points: 2
#     Edge 143, Type (0, 0), BuildingBlock: AJUNOK_clean_linker_0, # of connection points: 2
#     Edge 144, Type (0, 0), BuildingBlock: AJUNOK_clean_linker_0, # of connection points: 2
#     Edge 145, Type (0, 0), BuildingBlock: AJUNOK_clean_linker_0, # of connection points: 2
#     Edge 146, Type (0, 0), BuildingBlock: AJUNOK_clean_linker_0, # of connection points: 2
#     Edge 147, Type (0, 0), BuildingBlock: AJUNOK_clean_linker_0, # of connection points: 2
#     Edge 148, Type (0, 0), BuildingBlock: AJUNOK_clean_linker_0, # of connection points: 2
#     Edge 149, Type (0, 0), BuildingBlock: AJUNOK_clean_linker_0, # of connection points: 2
#     Edge 150, Type (0, 0), BuildingBlock: AJUNOK_clean_linker_0, # of connection points: 2
#     Edge 151, Type (0, 0), BuildingBlock: AJUNOK_clean_linker_0, # of connection points: 2
#     Edge 152, Type (0, 0), BuildingBlock: AJUNOK_clean_linker_0, # of connection points: 2
#     Edge 153, Type (0, 0), BuildingBlock: AJUNOK_clean_linker_0, # of connection points: 2
#     Edge 154, Type (0, 0), BuildingBlock: AJUNOK_clean_linker_0, # of connection points: 2
#     Edge 155, Type (0, 0), BuildingBlock: AJUNOK_clean_linker_0, # of connection points: 2
#     Edge 156, Type (0, 0), BuildingBlock: AJUNOK_clean_linker_0, # of connection points: 2
#     Edge 157, Type (0, 0), BuildingBlock: AJUNOK_clean_linker_0, # of connection points: 2
#     Edge 158, Type (0, 0), BuildingBlock: AJUNOK_clean_linker_0, # of connection points: 2
#     Edge 159, Type (0, 0), BuildingBlock: AJUNOK_clean_linker_0, # of connection points: 2
#     Edge 160, Type (0, 0), BuildingBlock: AJUNOK_clean_linker_0, # of connection points: 2
#     Edge 161, Type (0, 0), BuildingBlock: AJUNOK_clean_linker_0, # of connection points: 2
#     Edge 162, Type (0, 0), BuildingBlock: AJUNOK_clean_linker_0, # of connection points: 2
#     Edge 163, Type (0, 0), BuildingBlock: AJUNOK_clean_linker_0, # of connection points: 2
#     Edge 164, Type (0, 0), BuildingBlock: AJUNOK_clean_linker_0, # of connection points: 2
#     Edge 165, Type (0, 0), BuildingBlock: AJUNOK_clean_linker_0, # of connection points: 2
#     Edge 166, Type (0, 0), BuildingBlock: AJUNOK_clean_linker_0, # of connection points: 2
#     Edge 167, Type (0, 0), BuildingBlock: AJUNOK_clean_linker_0, # of connection points: 2
#     Edge 168, Type (0, 0), BuildingBlock: AJUNOK_clean_linker_0, # of connection points: 2
#     Edge 169, Type (0, 0), BuildingBlock: AJUNOK_clean_linker_0, # of connection points: 2
#     Edge 170, Type (0, 0), BuildingBlock: AJUNOK_clean_linker_0, # of connection points: 2
#     Edge 171, Type (0, 0), BuildingBlock: AJUNOK_clean_linker_0, # of connection points: 2
#     Edge 172, Type (0, 0), BuildingBlock: AJUNOK_clean_linker_0, # of connection points: 2
#     Edge 173, Type (0, 0), BuildingBlock: AJUNOK_clean_linker_0, # of connection points: 2
#     Edge 174, Type (0, 0), BuildingBlock: AJUNOK_clean_linker_0, # of connection points: 2
#     Edge 175, Type (0, 0), BuildingBlock: AJUNOK_clean_linker_0, # of connection points: 2
#     Edge 176, Type (0, 0), BuildingBlock: AJUNOK_clean_linker_0, # of connection points: 2
#     Edge 177, Type (0, 0), BuildingBlock: AJUNOK_clean_linker_0, # of connection points: 2
#     Edge 178, Type (0, 0), BuildingBlock: AJUNOK_clean_linker_0, # of connection points: 2
#     Edge 179, Type (0, 0), BuildingBlock: AJUNOK_clean_linker_0, # of connection points: 2
#     Edge 180, Type (0, 0), BuildingBlock: AJUNOK_clean_linker_0, # of connection points: 2
#     Edge 181, Type (0, 0), BuildingBlock: AJUNOK_clean_linker_0, # of connection points: 2
#     Edge 182, Type (0, 0), BuildingBlock: AJUNOK_clean_linker_0, # of connection points: 2
#     Edge 183, Type (0, 0), BuildingBlock: AJUNOK_clean_linker_0, # of connection points: 2
#     Edge 184, Type (0, 0), BuildingBlock: AJUNOK_clean_linker_0, # of connection points: 2
#     Edge 185, Type (0, 0), BuildingBlock: AJUNOK_clean_linker_0, # of connection points: 2
#     Edge 186, Type (0, 0), BuildingBlock: AJUNOK_clean_linker_0, # of connection points: 2
#     Edge 187, Type (0, 0), BuildingBlock: AJUNOK_clean_linker_0, # of connection points: 2
#     Edge 188, Type (0, 0), BuildingBlock: AJUNOK_clean_linker_0, # of connection points: 2
#     Edge 189, Type (0, 0), BuildingBlock: AJUNOK_clean_linker_0, # of connection points: 2
#     Edge 190, Type (0, 0), BuildingBlock: AJUNOK_clean_linker_0, # of connection points: 2
#     Edge 191, Type (0, 0), BuildingBlock: AJUNOK_clean_linker_0, # of connection points: 2
#     Edge 192, Type (0, 0), BuildingBlock: AJUNOK_clean_linker_0, # of connection points: 2
#     Edge 193, Type (0, 0), BuildingBlock: AJUNOK_clean_linker_0, # of connection points: 2
#     Edge 194, Type (0, 0), BuildingBlock: AJUNOK_clean_linker_0, # of connection points: 2
#     Edge 195, Type (0, 0), BuildingBlock: AJUNOK_clean_linker_0, # of connection points: 2
#     Edge 196, Type (0, 0), BuildingBlock: AJUNOK_clean_linker_0, # of connection points: 2
#     Edge 197, Type (0, 0), BuildingBlock: AJUNOK_clean_linker_0, # of connection points: 2
#     Edge 198, Type (0, 0), BuildingBlock: AJUNOK_clean_linker_0, # of connection points: 2
#     Edge 199, Type (0, 0), BuildingBlock: AJUNOK_clean_linker_0, # of connection points: 2
#     Edge 200, Type (0, 0), BuildingBlock: AJUNOK_clean_linker_0, # of connection points: 2
#     Edge 201, Type (0, 0), BuildingBlock: AJUNOK_clean_linker_0, # of connection points: 2
#     Edge 202, Type (0, 0), BuildingBlock: AJUNOK_clean_linker_0, # of connection points: 2
#     Edge 203, Type (0, 0), BuildingBlock: AJUNOK_clean_linker_0, # of connection points: 2
#     Edge 204, Type (0, 0), BuildingBlock: AJUNOK_clean_linker_0, # of connection points: 2
#     Edge 205, Type (0, 0), BuildingBlock: AJUNOK_clean_linker_0, # of connection points: 2
#     Edge 206, Type (0, 0), BuildingBlock: AJUNOK_clean_linker_0, # of connection points: 2
#     Edge 207, Type (0, 0), BuildingBlock: AJUNOK_clean_linker_0, # of connection points: 2
#     Edge 208, Type (0, 0), BuildingBlock: AJUNOK_clean_linker_0, # of connection points: 2
#     Edge 209, Type (0, 0), BuildingBlock: AJUNOK_clean_linker_0, # of connection points: 2
#     Edge 210, Type (0, 0), BuildingBlock: AJUNOK_clean_linker_0, # of connection points: 2
#     Edge 211, Type (0, 0), BuildingBlock: AJUNOK_clean_linker_0, # of connection points: 2
#     Edge 212, Type (0, 0), BuildingBlock: AJUNOK_clean_linker_0, # of connection points: 2
#     Edge 213, Type (0, 0), BuildingBlock: AJUNOK_clean_linker_0, # of connection points: 2
#     Edge 214, Type (0, 0), BuildingBlock: AJUNOK_clean_linker_0, # of connection points: 2
#     Edge 215, Type (0, 0), BuildingBlock: AJUNOK_clean_linker_0, # of connection points: 2
#     Edge 216, Type (0, 0), BuildingBlock: AJUNOK_clean_linker_0, # of connection points: 2
#     Edge 217, Type (0, 0), BuildingBlock: AJUNOK_clean_linker_0, # of connection points: 2
#     Edge 218, Type (0, 0), BuildingBlock: AJUNOK_clean_linker_0, # of connection points: 2
#     Edge 219, Type (0, 0), BuildingBlock: AJUNOK_clean_linker_0, # of connection points: 2
#     Edge 220, Type (0, 0), BuildingBlock: AJUNOK_clean_linker_0, # of connection points: 2
#     Edge 221, Type (0, 0), BuildingBlock: AJUNOK_clean_linker_0, # of connection points: 2
#     Edge 222, Type (0, 0), BuildingBlock: AJUNOK_clean_linker_0, # of connection points: 2
#     Edge 223, Type (0, 0), BuildingBlock: AJUNOK_clean_linker_0, # of connection points: 2
#     Edge 224, Type (0, 0), BuildingBlock: AJUNOK_clean_linker_0, # of connection points: 2
#     Edge 225, Type (0, 0), BuildingBlock: AJUNOK_clean_linker_0, # of connection points: 2
#     Edge 226, Type (0, 0), BuildingBlock: AJUNOK_clean_linker_0, # of connection points: 2
#     Edge 227, Type (0, 0), BuildingBlock: AJUNOK_clean_linker_0, # of connection points: 2
#     Edge 228, Type (0, 0), BuildingBlock: AJUNOK_clean_linker_0, # of connection points: 2
#     Edge 229, Type (0, 0), BuildingBlock: AJUNOK_clean_linker_0, # of connection points: 2
#     Edge 230, Type (0, 0), BuildingBlock: AJUNOK_clean_linker_0, # of connection points: 2
#     Edge 231, Type (0, 0), BuildingBlock: AJUNOK_clean_linker_0, # of connection points: 2
#     Edge 232, Type (0, 0), BuildingBlock: AJUNOK_clean_linker_0, # of connection points: 2
#     Edge 233, Type (0, 0), BuildingBlock: AJUNOK_clean_linker_0, # of connection points: 2
#     Edge 234, Type (0, 0), BuildingBlock: AJUNOK_clean_linker_0, # of connection points: 2
#     Edge 235, Type (0, 0), BuildingBlock: AJUNOK_clean_linker_0, # of connection points: 2
#     Edge 236, Type (0, 0), BuildingBlock: AJUNOK_clean_linker_0, # of connection points: 2
#     Edge 237, Type (0, 0), BuildingBlock: AJUNOK_clean_linker_0, # of connection points: 2
#     Edge 238, Type (0, 0), BuildingBlock: AJUNOK_clean_linker_0, # of connection points: 2
#     Edge 239, Type (0, 0), BuildingBlock: AJUNOK_clean_linker_0, # of connection points: 2
#     Edge 240, Type (0, 0), BuildingBlock: AJUNOK_clean_linker_0, # of connection points: 2
#     Edge 241, Type (0, 0), BuildingBlock: AJUNOK_clean_linker_0, # of connection points: 2
#     Edge 242, Type (0, 0), BuildingBlock: AJUNOK_clean_linker_0, # of connection points: 2
#     Edge 243, Type (0, 0), BuildingBlock: AJUNOK_clean_linker_0, # of connection points: 2
#     Edge 244, Type (0, 0), BuildingBlock: AJUNOK_clean_linker_0, # of connection points: 2
#     Edge 245, Type (0, 0), BuildingBlock: AJUNOK_clean_linker_0, # of connection points: 2
#     Edge 246, Type (0, 0), BuildingBlock: AJUNOK_clean_linker_0, # of connection points: 2
#     Edge 247, Type (0, 0), BuildingBlock: AJUNOK_clean_linker_0, # of connection points: 2
#     Edge 248, Type (0, 0), BuildingBlock: AJUNOK_clean_linker_0, # of connection points: 2
#     Edge 249, Type (0, 0), BuildingBlock: AJUNOK_clean_linker_0, # of connection points: 2
#     Edge 250, Type (0, 0), BuildingBlock: AJUNOK_clean_linker_0, # of connection points: 2
#     Edge 251, Type (0, 0), BuildingBlock: AJUNOK_clean_linker_0, # of connection points: 2
#     Edge 252, Type (0, 0), BuildingBlock: AJUNOK_clean_linker_0, # of connection points: 2
#     Edge 253, Type (0, 0), BuildingBlock: AJUNOK_clean_linker_0, # of connection points: 2
#     Edge 254, Type (0, 0), BuildingBlock: AJUNOK_clean_linker_0, # of connection points: 2
#     Edge 255, Type (0, 0), BuildingBlock: AJUNOK_clean_linker_0, # of connection points: 2
#     Edge 256, Type (0, 0), BuildingBlock: AJUNOK_clean_linker_0, # of connection points: 2
#     Edge 257, Type (0, 0), BuildingBlock: AJUNOK_clean_linker_0, # of connection points: 2
#     Edge 258, Type (0, 0), BuildingBlock: AJUNOK_clean_linker_0, # of connection points: 2
#     Edge 259, Type (0, 0), BuildingBlock: AJUNOK_clean_linker_0, # of connection points: 2
#     Edge 260, Type (0, 0), BuildingBlock: AJUNOK_clean_linker_0, # of connection points: 2
#     Edge 261, Type (0, 0), BuildingBlock: AJUNOK_clean_linker_0, # of connection points: 2
#     Edge 262, Type (0, 0), BuildingBlock: AJUNOK_clean_linker_0, # of connection points: 2
#     Edge 263, Type (0, 0), BuildingBlock: AJUNOK_clean_linker_0, # of connection points: 2
#     Edge 264, Type (0, 0), BuildingBlock: AJUNOK_clean_linker_0, # of connection points: 2
#     Edge 265, Type (0, 0), BuildingBlock: AJUNOK_clean_linker_0, # of connection points: 2
#     Edge 266, Type (0, 0), BuildingBlock: AJUNOK_clean_linker_0, # of connection points: 2
#     Edge 267, Type (0, 0), BuildingBlock: AJUNOK_clean_linker_0, # of connection points: 2
#     Edge 268, Type (0, 0), BuildingBlock: AJUNOK_clean_linker_0, # of connection points: 2
#     Edge 269, Type (0, 0), BuildingBlock: AJUNOK_clean_linker_0, # of connection points: 2
#     Edge 270, Type (0, 0), BuildingBlock: AJUNOK_clean_linker_0, # of connection points: 2
#     Edge 271, Type (0, 0), BuildingBlock: AJUNOK_clean_linker_0, # of connection points: 2
#     Edge 272, Type (0, 0), BuildingBlock: AJUNOK_clean_linker_0, # of connection points: 2
#     Edge 273, Type (0, 0), BuildingBlock: AJUNOK_clean_linker_0, # of connection points: 2
#     Edge 274, Type (0, 0), BuildingBlock: AJUNOK_clean_linker_0, # of connection points: 2
#     Edge 275, Type (0, 0), BuildingBlock: AJUNOK_clean_linker_0, # of connection points: 2
#     Edge 276, Type (0, 0), BuildingBlock: AJUNOK_clean_linker_0, # of connection points: 2
#     Edge 277, Type (0, 0), BuildingBlock: AJUNOK_clean_linker_0, # of connection points: 2
#     Edge 278, Type (0, 0), BuildingBlock: AJUNOK_clean_linker_0, # of connection points: 2
#     Edge 279, Type (0, 0), BuildingBlock: AJUNOK_clean_linker_0, # of connection points: 2
#     Edge 280, Type (0, 0), BuildingBlock: AJUNOK_clean_linker_0, # of connection points: 2
#     Edge 281, Type (0, 0), BuildingBlock: AJUNOK_clean_linker_0, # of connection points: 2
#     Edge 282, Type (0, 0), BuildingBlock: AJUNOK_clean_linker_0, # of connection points: 2
#     Edge 283, Type (0, 0), BuildingBlock: AJUNOK_clean_linker_0, # of connection points: 2
#     Edge 284, Type (0, 0), BuildingBlock: AJUNOK_clean_linker_0, # of connection points: 2
#     Edge 285, Type (0, 0), BuildingBlock: AJUNOK_clean_linker_0, # of connection points: 2
#     Edge 286, Type (0, 0), BuildingBlock: AJUNOK_clean_linker_0, # of connection points: 2
#     Edge 287, Type (0, 0), BuildingBlock: AJUNOK_clean_linker_0, # of connection points: 2
# Relax obj value: 0.129
# Max RMSD: 0.220
# Mean RMSD: 0.209
data_MOF--net-gie--node1-CEKHIL_clean_sbu_0--edge1-AJUNOK_clean_linker_0
_symmetry_space_group_name_H-M    P1
_symmetry_Int_Tables_number       1
_symmetry_cell_setting            triclinic
loop_
_symmetry_equiv_pos_as_xyz
'x, y, z'
_cell_length_a     62.90723
_cell_length_b     62.350866
_cell_length_c     62.281909
_cell_angle_alpha  90.003862
_cell_angle_beta   89.99719
_cell_angle_gamma 90.001165
loop_
_atom_site_label
_atom_site_type_symbol
_atom_site_fract_x
_atom_site_fract_y
_atom_site_fract_z
_atom_type_partial_charge
Co0 Co 0.00399 0.12646 0.39667 0.0
O1 O 0.98493 0.10527 0.40749 0.0
O2 O 0.99355 0.10905 0.37312 0.0
C3 C 0.02969 0.12153 0.42111 0.0
O4 O 0.02363 0.14662 0.38024 0.0
Co5 Co 0.0131 0.16586 0.42537 0.0
O6 O 0.03681 0.16968 0.4047 0.0
C7 C 0.97279 0.16381 0.40184 0.0
C8 C 0.98269 0.09898 0.3878 0.0
C9 C 0.03669 0.16146 0.38596 0.0
O10 O 0.97962 0.14671 0.39274 0.0
O11 O 0.98321 0.17351 0.41661 0.0
O12 O 0.02825 0.10912 0.40443 0.0
O13 O 0.01408 0.13482 0.4238 0.0
Co14 Co 0.12133 0.75258 0.65217 0.0
O15 O 0.14262 0.73335 0.66262 0.0
O16 O 0.13706 0.74033 0.62823 0.0
C17 C 0.12791 0.7797 0.67507 0.0
O18 O 0.10083 0.77217 0.63596 0.0
Co19 Co 0.08399 0.76374 0.68244 0.0
O20 O 0.07976 0.78701 0.66114 0.0
C21 C 0.08361 0.72227 0.66037 0.0
C22 C 0.14763 0.72974 0.64277 0.0
C23 C 0.08681 0.78598 0.64198 0.0
O24 O 0.10049 0.72825 0.65047 0.0
O25 O 0.07477 0.73369 0.67495 0.0
O26 O 0.13939 0.77709 0.65793 0.0
O27 O 0.11467 0.76432 0.67919 0.0
Co28 Co 0.49661 0.87109 0.89961 0.0
O29 O 0.51533 0.89271 0.91027 0.0
O30 O 0.50761 0.88792 0.87586 0.0
C31 C 0.47029 0.87669 0.92327 0.0
O32 O 0.47735 0.85044 0.88323 0.0
Co33 Co 0.48666 0.83245 0.92899 0.0
O34 O 0.46325 0.82833 0.90804 0.0
C35 C 0.52745 0.83354 0.90621 0.0
C36 C 0.51802 0.89853 0.89049 0.0
C37 C 0.46389 0.83603 0.8891 0.0
O38 O 0.52112 0.85074 0.89687 0.0
O39 O 0.51653 0.82412 0.92077 0.0
O40 O 0.47214 0.88859 0.90627 0.0
O41 O 0.48581 0.86347 0.92673 0.0
Co42 Co 0.37684 0.24501 0.15231 0.0
O43 O 0.35441 0.26315 0.16244 0.0
O44 O 0.36139 0.25691 0.12814 0.0
C45 C 0.37082 0.21709 0.1744 0.0
O46 O 0.39851 0.22678 0.13621 0.0
Co47 Co 0.41386 0.23462 0.18319 0.0
O48 O 0.41981 0.21221 0.16137 0.0
C49 C 0.41328 0.27647 0.1618 0.0
C50 C 0.34982 0.26667 0.14246 0.0
C51 C 0.413 0.21348 0.14214 0.0
O52 O 0.39668 0.27019 0.15163 0.0
O53 O 0.42228 0.26505 0.17627 0.0
O54 O 0.35972 0.21963 0.15701 0.0
O55 O 0.38327 0.23293 0.17928 0.0
Co56 Co 0.00168 0.8712 0.09828 0.0
O57 O 0.98252 0.89285 0.08862 0.0
O58 O 0.99122 0.88738 0.12272 0.0
C59 C 0.02741 0.8774 0.07416 0.0
O60 O 0.02149 0.85029 0.11356 0.0
Co61 Co 0.01067 0.8333 0.06764 0.0
O62 O 0.03452 0.82847 0.08791 0.0
C63 C 0.97085 0.83351 0.09204 0.0
C64 C 0.98029 0.89814 0.1086 0.0
C65 C 0.03452 0.83573 0.10705 0.0
O66 O 0.97739 0.85064 0.10135 0.0
O67 O 0.98125 0.82441 0.0769 0.0
O68 O 0.02583 0.889 0.0914 0.0
O69 O 0.01181 0.86425 0.07072 0.0
Co70 Co 0.3757 0.74939 0.34437 0.0
O71 O 0.35413 0.73095 0.33303 0.0
O72 O 0.36003 0.73608 0.3677 0.0
C73 C 0.36926 0.77781 0.32309 0.0
O74 O 0.39651 0.76773 0.36152 0.0
Co75 Co 0.41294 0.7621 0.31448 0.0
O76 O 0.41775 0.78382 0.33725 0.0
C77 C 0.41359 0.71974 0.33491 0.0
C78 C 0.3492 0.72642 0.35272 0.0
C79 C 0.4108 0.78158 0.35634 0.0
O80 O 0.39639 0.72493 0.34469 0.0
O81 O 0.42248 0.73195 0.32103 0.0
O82 O 0.35785 0.77435 0.34012 0.0
O83 O 0.38231 0.76255 0.31801 0.0
Co84 Co 0.49759 0.13173 0.59965 0.0
O85 O 0.51647 0.10994 0.58957 0.0
O86 O 0.50849 0.11559 0.62381 0.0
C87 C 0.47137 0.12524 0.57616 0.0
O88 O 0.47818 0.15254 0.61557 0.0
Co89 Co 0.48727 0.1696 0.56961 0.0
O90 O 0.46371 0.17389 0.59035 0.0
C91 C 0.52799 0.16951 0.59252 0.0
C92 C 0.51879 0.10445 0.60949 0.0
C93 C 0.46449 0.1666 0.60944 0.0
O94 O 0.52193 0.15228 0.60196 0.0
O95 O 0.51693 0.17868 0.57791 0.0
O96 O 0.47332 0.11389 0.5935 0.0
O97 O 0.48674 0.13857 0.57228 0.0
Co98 Co 0.12177 0.24571 0.85073 0.0
O99 O 0.14362 0.26418 0.83994 0.0
O100 O 0.13733 0.25836 0.87445 0.0
C101 C 0.12824 0.21765 0.8289 0.0
O102 O 0.1007 0.22729 0.86744 0.0
Co103 Co 0.08467 0.2337 0.82046 0.0
O104 O 0.07939 0.21175 0.8429 0.0
C105 C 0.0843 0.27587 0.84132 0.0
C106 C 0.14849 0.2681 0.85978 0.0
C107 C 0.08629 0.21367 0.86203 0.0
O108 O 0.1013 0.27037 0.85128 0.0
O109 O 0.07544 0.26391 0.82719 0.0
O110 O 0.13944 0.22066 0.84615 0.0
O111 O 0.11529 0.23308 0.82403 0.0
Co112 Co 0.39262 0.00874 0.12818 0.0
O113 O 0.40276 0.03284 0.11219 0.0
O114 O 0.41667 0.02162 0.14284 0.0
C115 C 0.38989 0.98647 0.09993 0.0
O116 O 0.38657 0.98401 0.14872 0.0
Co117 Co 0.34778 0.99037 0.11935 0.0
O118 O 0.35913 0.96527 0.13528 0.0
C119 C 0.35226 0.02883 0.14662 0.0
C120 C 0.41715 0.03514 0.12692 0.0
C121 C 0.3745 0.96734 0.14844 0.0
O122 O 0.37255 0.02759 0.14463 0.0
O123 O 0.33941 0.01614 0.13696 0.0
O124 O 0.40804 0.9893 0.10945 0.0
O125 O 0.37452 0.99862 0.10642 0.0
Co126 Co 0.24794 0.14852 0.38034 0.0
O127 O 0.26688 0.15933 0.35899 0.0
O128 O 0.2591 0.12491 0.36349 0.0
C129 C 0.22168 0.17214 0.37455 0.0
O130 O 0.22852 0.13203 0.40072 0.0
Co131 Co 0.23766 0.17767 0.41905 0.0
O132 O 0.21431 0.15664 0.42296 0.0
C133 C 0.2782 0.15447 0.41849 0.0
C134 C 0.2696 0.13961 0.35307 0.0
C135 C 0.21508 0.13774 0.41523 0.0
O136 O 0.27218 0.1456 0.40093 0.0
O137 O 0.26721 0.16891 0.42801 0.0
O138 O 0.22369 0.1552 0.36261 0.0
O139 O 0.23706 0.1756 0.38797 0.0
Co140 Co 0.10029 0.99414 0.62883 0.0
O141 O 0.08741 0.97134 0.61304 0.0
O142 O 0.07568 0.98338 0.64441 0.0
C143 C 0.10424 0.01629 0.60064 0.0
O144 O 0.10952 0.01818 0.64907 0.0
Co145 Co 0.14661 0.00715 0.61796 0.0
O146 O 0.13869 0.03312 0.63454 0.0
C147 C 0.13897 0.96929 0.64511 0.0
C148 C 0.0735 0.97022 0.62831 0.0
C149 C 0.12363 0.03315 0.64825 0.0
O150 O 0.11895 0.97324 0.64444 0.0
O151 O 0.15278 0.98031 0.63478 0.0
O152 O 0.0862 0.01519 0.61073 0.0
O153 O 0.11844 0.00249 0.60648 0.0
Co154 Co 0.25251 0.85196 0.87806 0.0
O155 O 0.23446 0.84145 0.85579 0.0
O156 O 0.2419 0.8758 0.8612 0.0
C157 C 0.27927 0.8287 0.87332 0.0
O158 O 0.27108 0.86819 0.89939 0.0
Co159 Co 0.26113 0.82224 0.9168 0.0
O160 O 0.28442 0.84317 0.92173 0.0
C161 C 0.2205 0.84514 0.91463 0.0
C162 C 0.23188 0.86127 0.85009 0.0
C163 C 0.28405 0.86219 0.9142 0.0
O164 O 0.22745 0.85451 0.89771 0.0
O165 O 0.23105 0.83051 0.92438 0.0
O166 O 0.27755 0.84561 0.8613 0.0
O167 O 0.26324 0.82491 0.88583 0.0
Co168 Co 0.39243 0.98829 0.37406 0.0
O169 O 0.40218 0.96417 0.3903 0.0
O170 O 0.41695 0.97547 0.3601 0.0
C171 C 0.38868 0.01021 0.40254 0.0
O172 O 0.38684 0.01305 0.35336 0.0
Co173 Co 0.34719 0.00629 0.38173 0.0
O174 O 0.35849 0.03125 0.3656 0.0
C175 C 0.3527 0.96778 0.35479 0.0
C176 C 0.41692 0.96185 0.37595 0.0
C177 C 0.37427 0.02936 0.35291 0.0
O178 O 0.37294 0.96933 0.35705 0.0
O179 O 0.33948 0.98043 0.36399 0.0
O180 O 0.40712 0.00779 0.39345 0.0
O181 O 0.37365 0.99811 0.39526 0.0
Co182 Co 0.25159 0.1515 0.62032 0.0
O183 O 0.23334 0.16278 0.64206 0.0
O184 O 0.24063 0.12823 0.6377 0.0
C185 C 0.27849 0.17458 0.62474 0.0
O186 O 0.27039 0.13454 0.59978 0.0
Co187 Co 0.26138 0.17999 0.58084 0.0
O188 O 0.28489 0.15896 0.57751 0.0
C189 C 0.22016 0.1581 0.58327 0.0
C190 C 0.23059 0.14314 0.64827 0.0
C191 C 0.28414 0.14017 0.58556 0.0
O192 O 0.22675 0.14876 0.60037 0.0
O193 O 0.23114 0.1723 0.57337 0.0
O194 O 0.27645 0.15808 0.63727 0.0
O195 O 0.26267 0.17818 0.61191 0.0
Co196 Co 0.10552 0.01082 0.87227 0.0
O197 O 0.09722 0.03575 0.88809 0.0
O198 O 0.08163 0.02475 0.85825 0.0
C199 C 0.10809 0.98888 0.9008 0.0
O200 O 0.10963 0.98545 0.85198 0.0
Co201 Co 0.14965 0.99019 0.88002 0.0
O202 O 0.13655 0.96553 0.86479 0.0
C203 C 0.14631 0.02854 0.85241 0.0
C204 C 0.08252 0.03868 0.87381 0.0
C205 C 0.12091 0.96821 0.85206 0.0
O206 O 0.12602 0.02831 0.85486 0.0
O207 O 0.15877 0.01537 0.86196 0.0
O208 O 0.08977 0.99254 0.8919 0.0
O209 O 0.12379 0.0001 0.89355 0.0
Co210 Co 0.24615 0.8495 0.12001 0.0
O211 O 0.26442 0.83839 0.14175 0.0
O212 O 0.25693 0.87287 0.13753 0.0
C213 C 0.21975 0.82576 0.1247 0.0
O214 O 0.22732 0.86622 0.09927 0.0
Co215 Co 0.23733 0.82086 0.08063 0.0
O216 O 0.21399 0.84182 0.07626 0.0
C217 C 0.27787 0.84385 0.08298 0.0
C218 C 0.26715 0.858 0.148 0.0
C219 C 0.21436 0.86062 0.08428 0.0
O220 O 0.27102 0.8527 0.10022 0.0
O221 O 0.2673 0.82944 0.07293 0.0
O222 O 0.22138 0.84256 0.13689 0.0
O223 O 0.23554 0.8225 0.11171 0.0
Co224 Co 0.12491 0.40077 0.0038 0.0
O225 O 0.10318 0.41107 0.98494 0.0
O226 O 0.10967 0.3767 0.9914 0.0
C227 C 0.11825 0.42287 0.03155 0.0
O228 O 0.14604 0.38462 0.02263 0.0
Co229 Co 0.16171 0.43166 0.01529 0.0
O230 O 0.16726 0.40961 0.03757 0.0
C231 C 0.16218 0.41031 0.97337 0.0
C232 C 0.09869 0.39114 0.98116 0.0
C233 C 0.1605 0.3904 0.03608 0.0
O234 O 0.14549 0.40003 0.97922 0.0
O235 O 0.1708 0.42484 0.98502 0.0
O236 O 0.10707 0.40559 0.02871 0.0
O237 O 0.13115 0.42763 0.01604 0.0
Co238 Co 0.6257 0.09793 0.99632 0.0
O239 O 0.60494 0.0863 0.01555 0.0
O240 O 0.60976 0.12101 0.00964 0.0
C241 C 0.61927 0.07601 0.96833 0.0
O242 O 0.64548 0.11545 0.97722 0.0
Co243 Co 0.66357 0.06918 0.98305 0.0
O244 O 0.66703 0.09171 0.9608 0.0
C245 C 0.66422 0.08957 0.02545 0.0
C246 C 0.59968 0.10592 0.01991 0.0
C247 C 0.65943 0.11053 0.96294 0.0
O248 O 0.64691 0.09916 0.02033 0.0
O249 O 0.67317 0.07575 0.01321 0.0
O250 O 0.6074 0.0927 0.9718 0.0
O251 O 0.63283 0.07163 0.98336 0.0
Co252 Co 0.1436 0.37582 0.23983 0.0
O253 O 0.15363 0.35919 0.21614 0.0
O254 O 0.1679 0.38993 0.22662 0.0
C255 C 0.14084 0.34795 0.26258 0.0
O256 O 0.13762 0.39683 0.2642 0.0
Co257 Co 0.09882 0.36733 0.25857 0.0
O258 O 0.11041 0.38353 0.28339 0.0
C259 C 0.10328 0.3945 0.21993 0.0
C260 C 0.16842 0.37344 0.2138 0.0
C261 C 0.12565 0.39677 0.28097 0.0
O262 O 0.12357 0.39208 0.22072 0.0
O263 O 0.09053 0.38512 0.23293 0.0
O264 O 0.15897 0.35742 0.25962 0.0
O265 O 0.12547 0.3543 0.25036 0.0
Co266 Co 0.87316 0.90103 0.49665 0.0
O267 O 0.89517 0.91186 0.51483 0.0
O268 O 0.88829 0.87732 0.50986 0.0
C269 C 0.87972 0.92189 0.46793 0.0
O270 O 0.85166 0.88443 0.47864 0.0
Co271 Co 0.83664 0.93198 0.48444 0.0
O272 O 0.8309 0.90931 0.46284 0.0
C273 C 0.83583 0.91142 0.5268 0.0
C274 C 0.89947 0.89207 0.51944 0.0
C275 C 0.83733 0.89004 0.46499 0.0
O276 O 0.85281 0.90136 0.52142 0.0
O277 O 0.82713 0.92551 0.51469 0.0
O278 O 0.89076 0.90463 0.47138 0.0
O279 O 0.86713 0.92747 0.48343 0.0
Co280 Co 0.85356 0.12071 0.24153 0.0
O281 O 0.84166 0.13701 0.21852 0.0
O282 O 0.82936 0.1055 0.22946 0.0
C283 C 0.85637 0.14844 0.26446 0.0
O284 O 0.8616 0.09991 0.26549 0.0
Co285 Co 0.89905 0.13087 0.25728 0.0
O286 O 0.88975 0.11402 0.28259 0.0
C287 C 0.89335 0.10384 0.21892 0.0
C288 C 0.82761 0.12195 0.21669 0.0
C289 C 0.87479 0.1003 0.28131 0.0
O290 O 0.87311 0.10543 0.22116 0.0
O291 O 0.90666 0.11335 0.23123 0.0
O292 O 0.83849 0.13828 0.26226 0.0
O293 O 0.87132 0.14294 0.25129 0.0
Co294 Co 0.37335 0.5995 0.50216 0.0
O295 O 0.39567 0.58915 0.484 0.0
O296 O 0.3881 0.62348 0.48903 0.0
C297 C 0.3806 0.57857 0.53072 0.0
O298 O 0.35158 0.61577 0.52021 0.0
Co299 Co 0.33734 0.56821 0.5146 0.0
O300 O 0.33123 0.59073 0.53626 0.0
C301 C 0.33655 0.588 0.47187 0.0
C302 C 0.39984 0.60904 0.47966 0.0
C303 C 0.33746 0.61005 0.53404 0.0
O304 O 0.35308 0.59871 0.47735 0.0
O305 O 0.32803 0.5739 0.48411 0.0
O306 O 0.39103 0.59621 0.52736 0.0
O307 O 0.36786 0.57285 0.51538 0.0
Co308 Co 0.14189 0.62237 0.2588 0.0
O309 O 0.15162 0.63773 0.28344 0.0
O310 O 0.16609 0.60768 0.2715 0.0
C311 C 0.13864 0.65125 0.23742 0.0
O312 O 0.13593 0.60246 0.23343 0.0
Co313 Co 0.09661 0.63142 0.24128 0.0
O314 O 0.10755 0.61565 0.2159 0.0
C315 C 0.1018 0.60405 0.27945 0.0
C316 C 0.16585 0.62291 0.28582 0.0
C317 C 0.12323 0.60277 0.21718 0.0
O318 O 0.12206 0.60538 0.27737 0.0
O319 O 0.08866 0.61397 0.26727 0.0
O320 O 0.15698 0.64194 0.23976 0.0
O321 O 0.12352 0.64401 0.24943 0.0
Co322 Co 0.35146 0.37739 0.75629 0.0
O323 O 0.34166 0.36092 0.78019 0.0
O324 O 0.32731 0.39156 0.76965 0.0
C325 C 0.35438 0.34948 0.7336 0.0
O326 O 0.35733 0.39832 0.73177 0.0
Co327 Co 0.39644 0.36892 0.73788 0.0
O328 O 0.38514 0.38544 0.71314 0.0
C329 C 0.39178 0.39534 0.77693 0.0
C330 C 0.32716 0.37542 0.78294 0.0
C331 C 0.36964 0.39844 0.71523 0.0
O332 O 0.37147 0.39368 0.77537 0.0
O333 O 0.40463 0.38567 0.76425 0.0
O334 O 0.33614 0.35878 0.73658 0.0
O335 O 0.36966 0.35599 0.74583 0.0
Co336 Co 0.99507 0.87228 0.60316 0.0
O337 O 0.01234 0.89535 0.59303 0.0
O338 O 0.00604 0.88868 0.62733 0.0
C339 C 0.96794 0.87796 0.58018 0.0
O340 O 0.97712 0.85023 0.61919 0.0
Co341 Co 0.98514 0.8346 0.57244 0.0
O342 O 0.96243 0.82914 0.59388 0.0
C343 C 0.02648 0.83558 0.59454 0.0
C344 C 0.0149 0.90088 0.61291 0.0
C345 C 0.96371 0.83584 0.61317 0.0
O346 O 0.02044 0.8527 0.60433 0.0
O347 O 0.01515 0.82637 0.58017 0.0
O348 O 0.96965 0.88898 0.59777 0.0
O349 O 0.98383 0.86544 0.57596 0.0
Co350 Co 0.87368 0.24378 0.3497 0.0
O351 O 0.85088 0.26294 0.34305 0.0
O352 O 0.86024 0.25302 0.37604 0.0
C353 C 0.86572 0.21853 0.3252 0.0
O354 O 0.89599 0.22401 0.36246 0.0
Co355 Co 0.90851 0.23509 0.31561 0.0
O356 O 0.9155 0.21091 0.33516 0.0
C357 C 0.91019 0.27512 0.3406 0.0
C358 C 0.8478 0.2641 0.3636 0.0
C359 C 0.90988 0.21097 0.35482 0.0
O360 O 0.894 0.26858 0.35135 0.0
O361 O 0.91784 0.26467 0.32467 0.0
O362 O 0.85586 0.21913 0.34351 0.0
O363 O 0.87824 0.23457 0.32139 0.0
Co364 Co 0.5044 0.127 0.10388 0.0
O365 O 0.4853 0.10583 0.09292 0.0
O366 O 0.49198 0.11093 0.12745 0.0
C367 C 0.5312 0.12042 0.08081 0.0
O368 O 0.52366 0.14716 0.12077 0.0
Co369 Co 0.51661 0.16516 0.07468 0.0
O370 O 0.53927 0.16888 0.09657 0.0
C371 C 0.4749 0.16531 0.0958 0.0
C372 C 0.48159 0.10049 0.11269 0.0
C373 C 0.53765 0.16125 0.11548 0.0
O374 O 0.48047 0.14813 0.10562 0.0
O375 O 0.48664 0.17437 0.08165 0.0
O376 O 0.52864 0.10873 0.09788 0.0
O377 O 0.51619 0.13413 0.07707 0.0
Co378 Co 0.6212 0.75228 0.84546 0.0
O379 O 0.64155 0.7321 0.83511 0.0
O380 O 0.63788 0.74152 0.86929 0.0
C381 C 0.62708 0.77755 0.82039 0.0
O382 O 0.6019 0.77289 0.86164 0.0
Co383 Co 0.58255 0.76305 0.81665 0.0
O384 O 0.57915 0.78687 0.83749 0.0
C385 C 0.58231 0.72286 0.84121 0.0
C386 C 0.64751 0.72989 0.8549 0.0
C387 C 0.58733 0.78631 0.8562 0.0
O388 O 0.60002 0.72856 0.84975 0.0
O389 O 0.57315 0.73378 0.82646 0.0
O390 O 0.63933 0.77608 0.83711 0.0
O391 O 0.61329 0.7623 0.81822 0.0
Co392 Co 0.99441 0.12872 0.89865 0.0
O393 O 0.01375 0.10738 0.90888 0.0
O394 O 0.00719 0.11382 0.87449 0.0
C395 C 0.96739 0.12106 0.92112 0.0
O396 O 0.97512 0.14948 0.88247 0.0
Co397 Co 0.98187 0.16551 0.92951 0.0
O398 O 0.95971 0.17057 0.90738 0.0
C399 C 0.02359 0.16693 0.90857 0.0
C400 C 0.01782 0.10318 0.88892 0.0
C401 C 0.96141 0.16371 0.88817 0.0
O402 O 0.01817 0.15012 0.89801 0.0
O403 O 0.01181 0.17523 0.92313 0.0
O404 O 0.97026 0.11 0.90367 0.0
O405 O 0.98233 0.13464 0.92559 0.0
Co406 Co 0.62351 0.24926 0.65269 0.0
O407 O 0.64502 0.26842 0.66271 0.0
O408 O 0.63926 0.26047 0.62848 0.0
C409 C 0.62989 0.22274 0.6763 0.0
O410 O 0.60293 0.22984 0.63671 0.0
Co411 Co 0.58603 0.23824 0.68298 0.0
O412 O 0.5812 0.21526 0.66145 0.0
C413 C 0.58564 0.27939 0.6599 0.0
C414 C 0.65018 0.27106 0.64272 0.0
C415 C 0.58847 0.21642 0.64238 0.0
O416 O 0.60285 0.27365 0.65044 0.0
O417 O 0.57676 0.26803 0.67452 0.0
O418 O 0.64131 0.22467 0.65905 0.0
O419 O 0.61668 0.23826 0.6799 0.0
Co420 Co 0.50142 0.86708 0.39868 0.0
O421 O 0.48207 0.88798 0.40989 0.0
O422 O 0.48927 0.88371 0.37538 0.0
C423 C 0.528 0.87323 0.42212 0.0
O424 O 0.52101 0.84758 0.38139 0.0
Co425 Co 0.51393 0.82822 0.4267 0.0
O426 O 0.53691 0.82549 0.40503 0.0
C427 C 0.47243 0.82799 0.40517 0.0
C428 C 0.47878 0.89393 0.39021 0.0
C429 C 0.53526 0.83364 0.38635 0.0
O430 O 0.47762 0.84576 0.39613 0.0
O431 O 0.48426 0.81871 0.41908 0.0
O432 O 0.52545 0.88538 0.40537 0.0
O433 O 0.51308 0.8593 0.42543 0.0
Co434 Co 0.87596 0.75216 0.15123 0.0
O435 O 0.85479 0.73206 0.16014 0.0
O436 O 0.86001 0.74255 0.12644 0.0
C437 C 0.86979 0.77686 0.17687 0.0
O438 O 0.89622 0.77276 0.13631 0.0
Co439 Co 0.91385 0.7613 0.18158 0.0
O440 O 0.91904 0.78521 0.1612 0.0
C441 C 0.91356 0.72134 0.1567 0.0
C442 C 0.84962 0.73067 0.14003 0.0
C443 C 0.91122 0.78542 0.14233 0.0
O444 O 0.89674 0.72806 0.14714 0.0
O445 O 0.9223 0.73162 0.17216 0.0
O446 O 0.85807 0.77617 0.15971 0.0
O447 O 0.88316 0.76123 0.179 0.0
Co448 Co 0.59207 0.00092 0.86714 0.0
O449 O 0.58315 0.02035 0.88915 0.0
O450 O 0.61676 0.01334 0.88118 0.0
C451 C 0.57037 0.97368 0.87599 0.0
O452 O 0.60663 0.98078 0.84581 0.0
Co453 Co 0.55884 0.98867 0.83234 0.0
O454 O 0.58021 0.96613 0.82613 0.0
C455 C 0.57881 0.03114 0.83073 0.0
C456 C 0.60311 0.02358 0.89312 0.0
C457 C 0.59954 0.96696 0.83219 0.0
O458 O 0.59156 0.02505 0.84566 0.0
O459 O 0.56335 0.01952 0.82414 0.0
O460 O 0.58812 0.97668 0.88618 0.0
O461 O 0.5651 0.98881 0.8628 0.0
Co462 Co 0.75298 0.85193 0.62065 0.0
O463 O 0.73308 0.84137 0.64131 0.0
O464 O 0.74134 0.8757 0.63699 0.0
C465 C 0.77887 0.82775 0.62701 0.0
O466 O 0.77307 0.86846 0.60102 0.0
Co467 Co 0.76448 0.82303 0.582 0.0
O468 O 0.78754 0.84444 0.57832 0.0
C469 C 0.72358 0.84557 0.58178 0.0
C470 C 0.73003 0.8612 0.64678 0.0
C471 C 0.78659 0.86317 0.58645 0.0
O472 O 0.72935 0.855 0.59917 0.0
O473 O 0.7348 0.83098 0.5728 0.0
O474 O 0.77676 0.84457 0.63916 0.0
O475 O 0.76387 0.82487 0.61308 0.0
Co476 Co 0.90779 0.99706 0.36791 0.0
O477 O 0.91584 0.97748 0.39009 0.0
O478 O 0.88251 0.98544 0.3815 0.0
C479 C 0.93001 0.02383 0.37662 0.0
O480 O 0.89409 0.01735 0.34622 0.0
Co481 Co 0.94191 0.00833 0.33347 0.0
O482 O 0.92113 0.03133 0.32688 0.0
C483 C 0.92099 0.96632 0.33201 0.0
C484 C 0.89571 0.97471 0.3935 0.0
C485 C 0.90169 0.03092 0.33264 0.0
O486 O 0.90803 0.97283 0.34657 0.0
O487 O 0.93686 0.9775 0.32566 0.0
O488 O 0.91217 0.02138 0.38681 0.0
O489 O 0.93504 0.00836 0.36375 0.0
Co490 Co 0.74546 0.14757 0.12168 0.0
O491 O 0.76304 0.15807 0.14437 0.0
O492 O 0.75647 0.12371 0.1384 0.0
C493 C 0.71853 0.17082 0.12679 0.0
O494 O 0.72733 0.13112 0.10013 0.0
Co495 Co 0.73596 0.17718 0.08311 0.0
O496 O 0.71317 0.15578 0.07792 0.0
C497 C 0.77735 0.15558 0.08527 0.0
C498 C 0.76581 0.13827 0.15005 0.0
C499 C 0.71411 0.1368 0.08543 0.0
O500 O 0.77076 0.14575 0.10211 0.0
O501 O 0.7663 0.16993 0.07569 0.0
O502 O 0.72015 0.1536 0.1384 0.0
O503 O 0.73441 0.17461 0.11411 0.0
Co504 Co 0.59045 0.00012 0.63078 0.0
O505 O 0.58076 0.98081 0.60901 0.0
O506 O 0.61465 0.98776 0.61583 0.0
C507 C 0.56845 0.02747 0.62313 0.0
O508 O 0.60578 0.0201 0.65167 0.0
Co509 Co 0.55836 0.01212 0.66689 0.0
O510 O 0.5805 0.03366 0.67361 0.0
C511 C 0.57784 0.96955 0.66705 0.0
C512 C 0.60058 0.97741 0.6045 0.0
C513 C 0.59947 0.03311 0.66644 0.0
O514 O 0.59063 0.97582 0.65219 0.0
O515 O 0.56244 0.98106 0.67387 0.0
O516 O 0.58573 0.02459 0.61207 0.0
O517 O 0.56373 0.01218 0.6363 0.0
Co518 Co 0.7454 0.85331 0.37932 0.0
O519 O 0.76526 0.84262 0.35868 0.0
O520 O 0.75824 0.8771 0.36392 0.0
C521 C 0.71884 0.83039 0.37152 0.0
O522 O 0.72548 0.86991 0.39913 0.0
Co523 Co 0.73198 0.82357 0.41667 0.0
O524 O 0.70933 0.84548 0.42019 0.0
C525 C 0.77379 0.84438 0.41835 0.0
C526 C 0.76909 0.86246 0.35381 0.0
C527 C 0.71114 0.86446 0.41283 0.0
O528 O 0.76869 0.85465 0.40124 0.0
O529 O 0.76181 0.83003 0.42671 0.0
O530 O 0.72178 0.8476 0.36015 0.0
O531 O 0.73339 0.82643 0.38568 0.0
Co532 Co 0.90459 0.99918 0.13177 0.0
O533 O 0.91353 0.01822 0.10948 0.0
O534 O 0.8799 0.01111 0.11731 0.0
C535 C 0.92651 0.97192 0.12367 0.0
O536 O 0.89008 0.97932 0.15337 0.0
Co537 Co 0.93774 0.98811 0.16701 0.0
O538 O 0.91651 0.9656 0.17373 0.0
C539 C 0.91736 0.03038 0.16751 0.0
C540 C 0.89359 0.02125 0.10532 0.0
C541 C 0.89723 0.966 0.16745 0.0
O542 O 0.9047 0.02376 0.15274 0.0
O543 O 0.93296 0.01912 0.17438 0.0
O544 O 0.90884 0.9746 0.11327 0.0
O545 O 0.93164 0.9874 0.13653 0.0
Co546 Co 0.75106 0.14886 0.87877 0.0
O547 O 0.73292 0.15961 0.85663 0.0
O548 O 0.73882 0.12515 0.86276 0.0
C549 C 0.77853 0.17119 0.8727 0.0
O550 O 0.76937 0.13216 0.89997 0.0
Co551 Co 0.76232 0.17871 0.91673 0.0
O552 O 0.78461 0.15667 0.92162 0.0
C553 C 0.72035 0.15822 0.91586 0.0
C554 C 0.72908 0.13981 0.85157 0.0
C555 C 0.78302 0.13764 0.91434 0.0
O556 O 0.72637 0.14798 0.89907 0.0
O557 O 0.73197 0.17237 0.92508 0.0
O558 O 0.77601 0.15397 0.86125 0.0
O559 O 0.76308 0.17558 0.88573 0.0
Co560 Co 0.8722 0.60021 0.99404 0.0
O561 O 0.89365 0.59042 0.01332 0.0
O562 O 0.88787 0.62458 0.00514 0.0
C563 C 0.8789 0.57632 0.96785 0.0
O564 O 0.85151 0.61582 0.9744 0.0
Co565 Co 0.83503 0.56944 0.98328 0.0
O566 O 0.82997 0.59073 0.96014 0.0
C567 C 0.83477 0.59235 0.02453 0.0
C568 C 0.89872 0.6104 0.01589 0.0
C569 C 0.83706 0.60987 0.96106 0.0
O570 O 0.85153 0.6024 0.01845 0.0
O571 O 0.82615 0.57746 0.01333 0.0
O572 O 0.89012 0.59373 0.9695 0.0
O573 O 0.86563 0.5729 0.98336 0.0
Co574 Co 0.37317 0.90315 0.00269 0.0
O575 O 0.39457 0.91289 0.98326 0.0
O576 O 0.38869 0.87878 0.99143 0.0
C577 C 0.38007 0.92686 0.02899 0.0
O578 O 0.3526 0.88753 0.02249 0.0
Co579 Co 0.33613 0.93392 0.01395 0.0
O580 O 0.33154 0.91272 0.03728 0.0
C581 C 0.33505 0.91065 0.97289 0.0
C582 C 0.39961 0.89289 0.98068 0.0
C583 C 0.33856 0.89357 0.03623 0.0
O584 O 0.35224 0.90103 0.97847 0.0
O585 O 0.32651 0.92543 0.98427 0.0
O586 O 0.39129 0.90949 0.02709 0.0
O587 O 0.36672 0.93044 0.01357 0.0
Co588 Co 0.8389 0.61591 0.7461 0.0
O589 O 0.83013 0.6382 0.72685 0.0
O590 O 0.86365 0.63048 0.73451 0.0
C591 C 0.81649 0.62386 0.7731 0.0
O592 O 0.85354 0.59457 0.76613 0.0
Co593 Co 0.80624 0.5803 0.75756 0.0
O594 O 0.82778 0.57325 0.77964 0.0
C595 C 0.82642 0.57986 0.71519 0.0
C596 C 0.85012 0.64251 0.72424 0.0
C597 C 0.84688 0.58004 0.77921 0.0
O598 O 0.83912 0.59475 0.72155 0.0
O599 O 0.81091 0.57307 0.72659 0.0
O600 O 0.8341 0.63445 0.77066 0.0
O601 O 0.81179 0.61083 0.75764 0.0
Co602 Co 0.12538 0.09823 0.50308 0.0
O603 O 0.10441 0.08777 0.48359 0.0
O604 O 0.11 0.12217 0.49077 0.0
C605 C 0.118 0.07533 0.52993 0.0
O606 O 0.14551 0.11455 0.52277 0.0
Co607 Co 0.16231 0.06818 0.51609 0.0
O608 O 0.16595 0.08987 0.53916 0.0
C609 C 0.16411 0.09004 0.47428 0.0
C610 C 0.09934 0.10765 0.48029 0.0
C611 C 0.159 0.10897 0.53724 0.0
O612 O 0.14672 0.09967 0.47919 0.0
O613 O 0.17258 0.07578 0.48636 0.0
O614 O 0.10684 0.09263 0.5273 0.0
O615 O 0.13168 0.07129 0.51492 0.0
Co616 Co 0.15395 0.8817 0.74987 0.0
O617 O 0.16343 0.85962 0.73081 0.0
O618 O 0.1297 0.86579 0.73895 0.0
C619 C 0.17724 0.8753 0.77648 0.0
O620 O 0.13883 0.90273 0.76983 0.0
Co621 Co 0.1854 0.91893 0.7594 0.0
O622 O 0.16346 0.92673 0.7808 0.0
C623 C 0.16413 0.91732 0.71769 0.0
C624 C 0.14363 0.85441 0.72848 0.0
C625 C 0.14485 0.91869 0.78148 0.0
O626 O 0.15215 0.90229 0.72497 0.0
O627 O 0.1799 0.92483 0.72827 0.0
O628 O 0.16008 0.86387 0.77462 0.0
O629 O 0.18106 0.88821 0.76067 0.0
Co630 Co 0.6245 0.40122 0.49561 0.0
O631 O 0.60422 0.41095 0.51626 0.0
O632 O 0.60879 0.37691 0.50671 0.0
C633 C 0.6175 0.42589 0.47027 0.0
O634 O 0.64381 0.38563 0.47456 0.0
Co635 Co 0.66209 0.43118 0.48397 0.0
O636 O 0.66572 0.41028 0.46018 0.0
C637 C 0.66332 0.40743 0.52471 0.0
C638 C 0.59895 0.39097 0.51854 0.0
C639 C 0.65799 0.39138 0.46083 0.0
O640 O 0.6462 0.3978 0.51897 0.0
O641 O 0.67176 0.42247 0.51358 0.0
O642 O 0.60571 0.4089 0.47209 0.0
O643 O 0.63144 0.42856 0.48531 0.0
Co644 Co 0.84192 0.38211 0.7503 0.0
O645 O 0.83158 0.35998 0.76883 0.0
O646 O 0.86568 0.36686 0.76318 0.0
C647 C 0.82084 0.37516 0.72202 0.0
O648 O 0.85787 0.40336 0.73122 0.0
Co649 Co 0.81013 0.41845 0.73816 0.0
O650 O 0.83326 0.42625 0.71803 0.0
C651 C 0.82849 0.4177 0.78133 0.0
C652 C 0.85127 0.35538 0.77286 0.0
C653 C 0.85212 0.41883 0.71879 0.0
O654 O 0.84139 0.40295 0.77508 0.0
O655 O 0.8134 0.42479 0.76954 0.0
O656 O 0.83798 0.36402 0.72525 0.0
O657 O 0.81558 0.38791 0.73752 0.0
Co658 Co 0.65856 0.61727 0.25043 0.0
O659 O 0.66733 0.63966 0.26944 0.0
O660 O 0.63376 0.63107 0.26287 0.0
C661 C 0.67979 0.62619 0.22281 0.0
O662 O 0.64411 0.59548 0.23074 0.0
Co663 Co 0.69221 0.58296 0.23803 0.0
O664 O 0.67057 0.57593 0.216 0.0
C665 C 0.67265 0.58129 0.28078 0.0
C666 C 0.64734 0.64341 0.27272 0.0
C667 C 0.65117 0.58171 0.21707 0.0
O668 O 0.65967 0.5961 0.27486 0.0
O669 O 0.68802 0.57484 0.26896 0.0
O670 O 0.66189 0.63604 0.22588 0.0
O671 O 0.68547 0.61326 0.23804 0.0
Co672 Co 0.5003 0.62807 0.90051 0.0
O673 O 0.48189 0.60562 0.91 0.0
O674 O 0.49034 0.61181 0.87599 0.0
C675 C 0.52632 0.62251 0.92451 0.0
O676 O 0.51933 0.64962 0.88519 0.0
Co677 Co 0.50844 0.66611 0.93113 0.0
O678 O 0.5319 0.6719 0.91063 0.0
C679 C 0.46826 0.66452 0.90739 0.0
C680 C 0.47995 0.60034 0.88997 0.0
C681 C 0.53195 0.66459 0.89152 0.0
O682 O 0.47537 0.64784 0.89774 0.0
O683 O 0.47852 0.67387 0.92249 0.0
O684 O 0.52506 0.61102 0.90718 0.0
O685 O 0.51036 0.63518 0.92809 0.0
Co686 Co 0.62276 0.25222 0.15337 0.0
O687 O 0.64507 0.23386 0.16328 0.0
O688 O 0.63771 0.23999 0.12903 0.0
C689 C 0.62952 0.28013 0.1752 0.0
O690 O 0.60101 0.27069 0.13761 0.0
Co691 Co 0.58644 0.26307 0.18493 0.0
O692 O 0.58029 0.28543 0.16313 0.0
C693 C 0.58618 0.22119 0.16364 0.0
C694 C 0.64933 0.23015 0.14326 0.0
C695 C 0.58664 0.28406 0.14375 0.0
O696 O 0.60264 0.2273 0.15314 0.0
O697 O 0.57752 0.23273 0.17823 0.0
O698 O 0.64029 0.27737 0.15763 0.0
O699 O 0.61695 0.26448 0.18039 0.0
Co700 Co 0.99639 0.36817 0.39674 0.0
O701 O 0.01542 0.38989 0.40666 0.0
O702 O 0.00632 0.38506 0.37259 0.0
C703 C 0.97093 0.37361 0.42132 0.0
O704 O 0.97653 0.34746 0.38119 0.0
Co705 Co 0.98798 0.32951 0.42654 0.0
O706 O 0.96369 0.32533 0.40664 0.0
C707 C 0.02797 0.33116 0.40247 0.0
C708 C 0.0171 0.39586 0.38681 0.0
C709 C 0.96341 0.33298 0.38766 0.0
O710 O 0.02087 0.34798 0.39306 0.0
O711 O 0.01779 0.32171 0.41757 0.0
O712 O 0.97213 0.38555 0.40429 0.0
O713 O 0.98667 0.36051 0.42425 0.0
Co714 Co 0.87555 0.74621 0.6513 0.0
O715 O 0.85376 0.76479 0.66219 0.0
O716 O 0.86018 0.75923 0.62767 0.0
C717 C 0.86864 0.71795 0.67276 0.0
O718 O 0.8965 0.72781 0.63435 0.0
Co719 Co 0.91244 0.73321 0.68134 0.0
O720 O 0.91774 0.71166 0.65854 0.0
C721 C 0.91376 0.77548 0.66062 0.0
C722 C 0.84894 0.76884 0.64236 0.0
C723 C 0.91089 0.71404 0.63944 0.0
O724 O 0.89631 0.77066 0.65107 0.0
O725 O 0.92251 0.76312 0.67446 0.0
O726 O 0.85758 0.72131 0.65549 0.0
O727 O 0.88178 0.73313 0.67789 0.0
Co728 Co 0.50234 0.37255 0.6003 0.0
O729 O 0.48414 0.39478 0.58981 0.0
O730 O 0.49145 0.38913 0.62418 0.0
C731 C 0.52919 0.37775 0.57717 0.0
O732 O 0.521 0.35143 0.61668 0.0
Co733 Co 0.51235 0.33404 0.57064 0.0
O734 O 0.53555 0.32967 0.59184 0.0
C735 C 0.47119 0.33546 0.59287 0.0
C736 C 0.48153 0.40038 0.60969 0.0
C737 C 0.53459 0.33715 0.61086 0.0
O738 O 0.47746 0.35258 0.60241 0.0
O739 O 0.48229 0.32601 0.57846 0.0
O740 O 0.52728 0.38962 0.59419 0.0
O741 O 0.51338 0.36501 0.57329 0.0
Co742 Co 0.87418 0.25355 0.84925 0.0
O743 O 0.85292 0.2344 0.83853 0.0
O744 O 0.85907 0.24046 0.87306 0.0
C745 C 0.86674 0.28138 0.82742 0.0
O746 O 0.89481 0.27265 0.86579 0.0
Co747 Co 0.91075 0.26643 0.81875 0.0
O748 O 0.91543 0.28871 0.841 0.0
C749 C 0.91263 0.2245 0.84009 0.0
C750 C 0.84835 0.23024 0.85839 0.0
C751 C 0.90879 0.28668 0.86022 0.0
O752 O 0.89533 0.22948 0.8498 0.0
O753 O 0.92117 0.23665 0.82593 0.0
O754 O 0.85578 0.27801 0.84475 0.0
O755 O 0.88012 0.26635 0.82247 0.0
Co756 Co 0.99656 0.62828 0.09655 0.0
O757 O 0.01442 0.60623 0.08541 0.0
O758 O 0.00712 0.61058 0.11988 0.0
C759 C 0.96997 0.62395 0.07294 0.0
O760 O 0.97791 0.64915 0.11331 0.0
Co761 Co 0.98765 0.66773 0.0679 0.0
O762 O 0.96396 0.67147 0.08861 0.0
C763 C 0.02827 0.66528 0.09095 0.0
C764 C 0.0169 0.59971 0.10499 0.0
C765 C 0.96445 0.66357 0.10748 0.0
O766 O 0.02168 0.64784 0.09966 0.0
O767 O 0.01754 0.67535 0.07669 0.0
O768 O 0.97156 0.61169 0.0897 0.0
O769 O 0.9859 0.63672 0.06962 0.0
Co770 Co 0.62399 0.74732 0.34552 0.0
O771 O 0.64536 0.76625 0.33465 0.0
O772 O 0.63937 0.76035 0.3692 0.0
C773 C 0.63079 0.71938 0.32375 0.0
O774 O 0.60329 0.72841 0.36218 0.0
Co775 Co 0.58701 0.73505 0.31518 0.0
O776 O 0.58226 0.71279 0.33743 0.0
C777 C 0.58596 0.77694 0.33648 0.0
C778 C 0.65008 0.77049 0.35445 0.0
C779 C 0.58911 0.71459 0.3566 0.0
O780 O 0.60308 0.77158 0.34627 0.0
O781 O 0.57721 0.76502 0.32225 0.0
O782 O 0.64212 0.72265 0.34086 0.0
O783 O 0.61763 0.73461 0.31888 0.0
Co784 Co 0.8932 0.50733 0.6248 0.0
O785 O 0.90152 0.53113 0.60744 0.0
O786 O 0.91728 0.52199 0.6378 0.0
C787 C 0.8904 0.4839 0.59747 0.0
O788 O 0.88895 0.4832 0.64656 0.0
Co789 Co 0.84889 0.48681 0.61831 0.0
O790 O 0.86186 0.46288 0.63477 0.0
C791 C 0.85268 0.5267 0.6436 0.0
C792 C 0.91642 0.53481 0.62129 0.0
C793 C 0.87752 0.46607 0.64734 0.0
O794 O 0.87296 0.52599 0.64125 0.0
O795 O 0.84008 0.51319 0.63474 0.0
O796 O 0.90874 0.48781 0.60621 0.0
O797 O 0.8748 0.49561 0.60415 0.0
Co798 Co 0.7447 0.64927 0.87661 0.0
O799 O 0.76292 0.65908 0.85411 0.0
O800 O 0.75576 0.6249 0.86084 0.0
C801 C 0.71784 0.67201 0.87014 0.0
O802 O 0.72601 0.63368 0.89836 0.0
Co803 Co 0.73464 0.68042 0.9138 0.0
O804 O 0.71169 0.65929 0.91933 0.0
C805 C 0.77567 0.658 0.91363 0.0
C806 C 0.76556 0.63909 0.84911 0.0
C807 C 0.71265 0.63997 0.91271 0.0
O808 O 0.76949 0.648 0.89674 0.0
O809 O 0.76455 0.6727 0.92257 0.0
O810 O 0.71992 0.65446 0.85916 0.0
O811 O 0.73348 0.67653 0.88291 0.0
Co812 Co 0.6054 0.49024 0.12667 0.0
O813 O 0.59479 0.46667 0.1102 0.0
O814 O 0.58126 0.47735 0.14123 0.0
C815 C 0.60831 0.51313 0.09891 0.0
O816 O 0.61202 0.51448 0.14767 0.0
Co817 Co 0.65064 0.50762 0.11775 0.0
O818 O 0.64009 0.53249 0.13452 0.0
C819 C 0.64549 0.46892 0.1444 0.0
C820 C 0.58052 0.4642 0.125 0.0
C821 C 0.62476 0.53066 0.14777 0.0
O822 O 0.62523 0.47069 0.14258 0.0
O823 O 0.65862 0.48155 0.13506 0.0
O824 O 0.59018 0.51034 0.10848 0.0
O825 O 0.62349 0.50053 0.10498 0.0
Co826 Co 0.75136 0.34458 0.37981 0.0
O827 O 0.73474 0.3339 0.35655 0.0
O828 O 0.74231 0.36816 0.36155 0.0
C829 C 0.77779 0.3207 0.37728 0.0
O830 O 0.76904 0.36084 0.40193 0.0
Co831 Co 0.75723 0.31542 0.41958 0.0
O832 O 0.78098 0.3357 0.42495 0.0
C833 C 0.71735 0.33937 0.4148 0.0
C834 C 0.73306 0.3535 0.34991 0.0
C835 C 0.78148 0.35458 0.41711 0.0
O836 O 0.7251 0.34806 0.39782 0.0
O837 O 0.72716 0.3248 0.42537 0.0
O838 O 0.77734 0.33741 0.36487 0.0
O839 O 0.76092 0.31743 0.38875 0.0
Co840 Co 0.89293 0.49104 0.87176 0.0
O841 O 0.90337 0.46771 0.88863 0.0
O842 O 0.91711 0.47784 0.85751 0.0
C843 C 0.89 0.51433 0.89918 0.0
O844 O 0.88642 0.51495 0.85038 0.0
Co845 Co 0.84772 0.50876 0.88048 0.0
O846 O 0.85824 0.53318 0.86302 0.0
C847 C 0.85276 0.46961 0.85435 0.0
C848 C 0.91773 0.46496 0.87397 0.0
C849 C 0.87362 0.53107 0.84986 0.0
O850 O 0.87305 0.47135 0.85606 0.0
O851 O 0.83977 0.48225 0.86387 0.0
O852 O 0.90817 0.51139 0.88973 0.0
O853 O 0.87484 0.50168 0.89322 0.0
Co854 Co 0.75241 0.65041 0.11952 0.0
O855 O 0.73425 0.66105 0.14166 0.0
O856 O 0.74135 0.62663 0.13618 0.0
C857 C 0.7794 0.67332 0.12475 0.0
O858 O 0.77101 0.634 0.09836 0.0
Co859 Co 0.76229 0.68009 0.08103 0.0
O860 O 0.78545 0.6589 0.07659 0.0
C861 C 0.72126 0.65771 0.08228 0.0
C862 C 0.73137 0.64124 0.14721 0.0
C863 C 0.78453 0.63988 0.08402 0.0
O864 O 0.72752 0.64836 0.09951 0.0
O865 O 0.73234 0.67208 0.07275 0.0
O866 O 0.77734 0.65634 0.13663 0.0
O867 O 0.7636 0.67737 0.11203 0.0
Co868 Co 0.60718 0.50948 0.37213 0.0
O869 O 0.59719 0.53306 0.3889 0.0
O870 O 0.58307 0.52297 0.35794 0.0
C871 C 0.60948 0.48643 0.39985 0.0
O872 O 0.61325 0.48518 0.351 0.0
Co873 Co 0.65189 0.49084 0.38099 0.0
O874 O 0.64039 0.46611 0.36464 0.0
C875 C 0.64775 0.52956 0.35403 0.0
C876 C 0.58252 0.53565 0.37456 0.0
C877 C 0.62524 0.46842 0.35126 0.0
O878 O 0.62744 0.52864 0.35619 0.0
O879 O 0.66045 0.51658 0.36347 0.0
O880 O 0.59149 0.48966 0.3902 0.0
O881 O 0.625 0.49864 0.39382 0.0
Co882 Co 0.74719 0.3517 0.62009 0.0
O883 O 0.7658 0.34208 0.64231 0.0
O884 O 0.75787 0.37621 0.63595 0.0
C885 C 0.72093 0.3282 0.62624 0.0
O886 O 0.7281 0.36705 0.59855 0.0
Co887 Co 0.73815 0.32069 0.58247 0.0
O888 O 0.71483 0.3414 0.57687 0.0
C889 C 0.77916 0.3428 0.58409 0.0
C890 C 0.76836 0.36211 0.64716 0.0
C891 C 0.71506 0.36056 0.58401 0.0
O892 O 0.77196 0.3536 0.60002 0.0
O893 O 0.76862 0.32762 0.57523 0.0
O894 O 0.72252 0.34561 0.63757 0.0
O895 O 0.73667 0.32431 0.61339 0.0
Co896 Co 0.62426 0.9014 0.50265 0.0
O897 O 0.60179 0.91086 0.48422 0.0
O898 O 0.60984 0.8768 0.49026 0.0
C899 C 0.61677 0.92298 0.53065 0.0
O900 O 0.64629 0.88609 0.52118 0.0
Co901 Co 0.65975 0.93371 0.51391 0.0
O902 O 0.66619 0.91204 0.5363 0.0
C903 C 0.66106 0.91222 0.47204 0.0
C904 C 0.59791 0.89079 0.48046 0.0
C905 C 0.6604 0.89251 0.53472 0.0
O906 O 0.64453 0.90165 0.47781 0.0
O907 O 0.66942 0.92683 0.48377 0.0
O908 O 0.60654 0.90514 0.52775 0.0
O909 O 0.62933 0.9285 0.51508 0.0
Co910 Co 0.12574 0.59615 0.49499 0.0
O911 O 0.10367 0.58522 0.51304 0.0
O912 O 0.11054 0.61973 0.50848 0.0
C913 C 0.11882 0.57538 0.4662 0.0
O914 O 0.14721 0.61291 0.47705 0.0
Co915 Co 0.16214 0.56543 0.48214 0.0
O916 O 0.16765 0.5882 0.46061 0.0
C917 C 0.16342 0.58565 0.52469 0.0
C918 C 0.09917 0.60494 0.51778 0.0
C919 C 0.16133 0.60746 0.46311 0.0
O920 O 0.14621 0.59556 0.51973 0.0
O921 O 0.1721 0.57183 0.51225 0.0
O922 O 0.10803 0.59276 0.46978 0.0
O923 O 0.1316 0.56973 0.48153 0.0
Co924 Co 0.64229 0.8771 0.73939 0.0
O925 O 0.65131 0.86145 0.71467 0.0
O926 O 0.66694 0.89091 0.72655 0.0
C927 C 0.63832 0.84817 0.76063 0.0
O928 O 0.63717 0.89713 0.76483 0.0
Co929 Co 0.59692 0.86921 0.75736 0.0
O930 O 0.60836 0.88505 0.78246 0.0
C931 C 0.60255 0.89678 0.71927 0.0
C932 C 0.66619 0.87561 0.71231 0.0
C933 C 0.62439 0.89749 0.781 0.0
O934 O 0.62282 0.8949 0.72112 0.0
O935 O 0.58938 0.88673 0.73131 0.0
O936 O 0.6569 0.85694 0.75821 0.0
O937 O 0.62335 0.85598 0.74882 0.0
Co938 Co 0.37291 0.40273 0.99625 0.0
O939 O 0.39465 0.413 0.01522 0.0
O940 O 0.38833 0.37871 0.00847 0.0
C941 C 0.37962 0.42507 0.96866 0.0
O942 O 0.35202 0.38652 0.97714 0.0
Co943 Co 0.33589 0.43314 0.98463 0.0
O944 O 0.33119 0.41153 0.96173 0.0
C945 C 0.33487 0.41104 0.02618 0.0
C946 C 0.39948 0.39307 0.01865 0.0
C947 C 0.33805 0.39237 0.96322 0.0
O948 O 0.35219 0.40157 0.02075 0.0
O949 O 0.32606 0.42535 0.01443 0.0
O950 O 0.39085 0.40783 0.97149 0.0
O951 O 0.36655 0.42968 0.98409 0.0
Co952 Co 0.35296 0.62446 0.74105 0.0
O953 O 0.34345 0.6417 0.71759 0.0
O954 O 0.32861 0.61101 0.72729 0.0
C955 C 0.35624 0.65176 0.76448 0.0
O956 O 0.3584 0.60276 0.76499 0.0
Co957 Co 0.39791 0.63145 0.75992 0.0
O958 O 0.38599 0.61496 0.78438 0.0
C959 C 0.39293 0.60606 0.72024 0.0
C960 C 0.32866 0.62757 0.71454 0.0
C961 C 0.37039 0.60218 0.78175 0.0
O962 O 0.37269 0.60837 0.72156 0.0
O963 O 0.40597 0.61469 0.73348 0.0
O964 O 0.3379 0.64277 0.76121 0.0
O965 O 0.3715 0.64533 0.75216 0.0
Co966 Co 0.87111 0.09651 0.00291 0.0
O967 O 0.89184 0.08553 0.98325 0.0
O968 O 0.88699 0.12003 0.99028 0.0
C969 C 0.87775 0.07383 0.03018 0.0
O970 O 0.85136 0.11332 0.02271 0.0
Co971 Co 0.83339 0.06728 0.01548 0.0
O972 O 0.83037 0.08882 0.03874 0.0
C973 C 0.83243 0.08897 0.97373 0.0
C974 C 0.89714 0.10529 0.97959 0.0
C975 C 0.83778 0.10778 0.03716 0.0
O976 O 0.84978 0.09841 0.97903 0.0
O977 O 0.82354 0.07482 0.98562 0.0
O978 O 0.88954 0.09065 0.02711 0.0
O979 O 0.86413 0.06979 0.0151 0.0
Co980 Co 0.64216 0.12329 0.75795 0.0
O981 O 0.65201 0.13949 0.78203 0.0
O982 O 0.6664 0.10902 0.77095 0.0
C983 C 0.63905 0.15137 0.73554 0.0
O984 O 0.63645 0.10267 0.73314 0.0
Co985 Co 0.59712 0.13124 0.73995 0.0
O986 O 0.60877 0.11592 0.71463 0.0
C987 C 0.6022 0.1042 0.77836 0.0
C988 C 0.66656 0.12497 0.78445 0.0
C989 C 0.62436 0.103 0.71644 0.0
O990 O 0.62242 0.10661 0.77694 0.0
O991 O 0.58903 0.11325 0.76556 0.0
O992 O 0.65732 0.14212 0.73846 0.0
O993 O 0.62375 0.14477 0.74776 0.0
Co994 Co 0.85573 0.87511 0.25979 0.0
O995 O 0.84654 0.85956 0.28457 0.0
O996 O 0.83155 0.88944 0.27285 0.0
C997 C 0.85912 0.8463 0.23825 0.0
O998 O 0.86087 0.89528 0.23451 0.0
Co999 Co 0.90072 0.867 0.2411 0.0
O1000 O 0.88922 0.88314 0.21622 0.0
C1001 C 0.89592 0.89417 0.27952 0.0
C1002 C 0.83212 0.87418 0.28713 0.0
C1003 C 0.87337 0.89573 0.21813 0.0
O1004 O 0.87564 0.89236 0.27806 0.0
O1005 O 0.90892 0.88462 0.2669 0.0
O1006 O 0.84067 0.85532 0.24092 0.0
O1007 O 0.87431 0.85381 0.24999 0.0
Co1008 Co 0.49529 0.37032 0.10171 0.0
O1009 O 0.51451 0.39142 0.09076 0.0
O1010 O 0.50707 0.38702 0.12519 0.0
C1011 C 0.46897 0.37631 0.07789 0.0
O1012 O 0.47572 0.35045 0.11864 0.0
Co1013 Co 0.48372 0.33148 0.07323 0.0
O1014 O 0.46056 0.32822 0.09463 0.0
C1015 C 0.5248 0.33155 0.09556 0.0
C1016 C 0.51763 0.39735 0.11047 0.0
C1017 C 0.46182 0.33624 0.1134 0.0
O1018 O 0.51927 0.34925 0.10452 0.0
O1019 O 0.51332 0.3222 0.08139 0.0
O1020 O 0.47114 0.3884 0.09474 0.0
O1021 O 0.48408 0.36256 0.07476 0.0
Co1022 Co 0.37446 0.74734 0.8495 0.0
O1023 O 0.35359 0.76746 0.84007 0.0
O1024 O 0.35924 0.75852 0.87413 0.0
C1025 C 0.36708 0.72161 0.82531 0.0
O1026 O 0.39458 0.72684 0.86478 0.0
Co1027 Co 0.41135 0.73608 0.81856 0.0
O1028 O 0.4155 0.71227 0.83932 0.0
C1029 C 0.41266 0.77699 0.84192 0.0
C1030 C 0.34883 0.76995 0.86016 0.0
C1031 C 0.40839 0.71299 0.85848 0.0
O1032 O 0.39584 0.77111 0.852 0.0
O1033 O 0.42096 0.76582 0.82682 0.0
O1034 O 0.35584 0.72345 0.84269 0.0
O1035 O 0.38073 0.7368 0.82202 0.0
Co1036 Co 0.00178 0.6291 0.59862 0.0
O1037 O 0.98279 0.60833 0.58683 0.0
O1038 O 0.98845 0.61277 0.6216 0.0
C1039 C 0.02906 0.62216 0.57625 0.0
O1040 O 0.0209 0.64888 0.61622 0.0
Co1041 Co 0.01505 0.66729 0.57019 0.0
O1042 O 0.03744 0.67033 0.59242 0.0
C1043 C 0.97316 0.66827 0.59086 0.0
C1044 C 0.97837 0.6027 0.60634 0.0
C1045 C 0.03529 0.66271 0.61128 0.0
O1046 O 0.97806 0.65052 0.60004 0.0
O1047 O 0.98537 0.67745 0.57721 0.0
O1048 O 0.02583 0.61054 0.59324 0.0
O1049 O 0.01443 0.63621 0.5721 0.0
Co1050 Co 0.12473 0.25073 0.34584 0.0
O1051 O 0.14663 0.23165 0.33671 0.0
O1052 O 0.13988 0.23993 0.37068 0.0
C1053 C 0.13167 0.27694 0.3221 0.0
O1054 O 0.10349 0.2703 0.3608 0.0
Co1055 Co 0.08819 0.26098 0.31407 0.0
O1056 O 0.0829 0.28452 0.33487 0.0
C1057 C 0.08742 0.22011 0.33759 0.0
C1058 C 0.15126 0.22927 0.35685 0.0
C1059 C 0.08948 0.28381 0.35422 0.0
O1060 O 0.10419 0.22617 0.34767 0.0
O1061 O 0.07903 0.23115 0.32246 0.0
O1062 O 0.14257 0.27537 0.33973 0.0
O1063 O 0.11869 0.26127 0.31833 0.0
Co1064 Co 0.49724 0.62946 0.39804 0.0
O1065 O 0.51594 0.60843 0.40996 0.0
O1066 O 0.50951 0.61213 0.37527 0.0
C1067 C 0.47022 0.6242 0.42122 0.0
O1068 O 0.47824 0.64898 0.38012 0.0
Co1069 Co 0.48502 0.669 0.4253 0.0
O1070 O 0.46236 0.67163 0.40327 0.0
C1071 C 0.52686 0.66806 0.40448 0.0
C1072 C 0.51942 0.60192 0.39051 0.0
C1073 C 0.4641 0.66316 0.38474 0.0
O1074 O 0.52146 0.65031 0.39552 0.0
O1075 O 0.51501 0.67771 0.41812 0.0
O1076 O 0.47275 0.61171 0.40473 0.0
O1077 O 0.48534 0.63791 0.42445 0.0
Co1078 Co 0.12288 0.74606 0.15105 0.0
O1079 O 0.14391 0.76592 0.16069 0.0
O1080 O 0.13943 0.75604 0.12677 0.0
C1081 C 0.12865 0.72109 0.1765 0.0
O1082 O 0.10291 0.72556 0.13553 0.0
Co1083 Co 0.08452 0.73634 0.18065 0.0
O1084 O 0.08035 0.71228 0.16023 0.0
C1085 C 0.08488 0.77649 0.15597 0.0
C1086 C 0.14973 0.76754 0.14078 0.0
C1087 C 0.08824 0.71241 0.14138 0.0
O1088 O 0.10213 0.77021 0.14685 0.0
O1089 O 0.0759 0.7659 0.17107 0.0
O1090 O 0.14064 0.72196 0.15954 0.0
O1091 O 0.11522 0.73666 0.17857 0.0
Co1092 Co 0.00175 0.37063 0.8994 0.0
O1093 O 0.9834 0.39272 0.90988 0.0
O1094 O 0.98987 0.38662 0.87549 0.0
C1095 C 0.02893 0.37674 0.92213 0.0
O1096 O 0.02041 0.34954 0.88297 0.0
Co1097 Co 0.01283 0.33275 0.92942 0.0
O1098 O 0.03566 0.32832 0.90784 0.0
C1099 C 0.97131 0.33303 0.9079 0.0
C1100 C 0.97996 0.39786 0.89 0.0
C1101 C 0.03425 0.33548 0.88873 0.0
O1102 O 0.97713 0.35018 0.89811 0.0
O1103 O 0.98283 0.3239 0.92217 0.0
O1104 O 0.02657 0.38821 0.90489 0.0
O1105 O 0.01343 0.36372 0.92634 0.0
Co1106 Co 0.37428 0.25442 0.64858 0.0
O1107 O 0.35322 0.23427 0.65743 0.0
O1108 O 0.35965 0.24341 0.62353 0.0
C1109 C 0.36631 0.27993 0.67275 0.0
O1110 O 0.3948 0.27492 0.6339 0.0
Co1111 Co 0.41042 0.26546 0.68051 0.0
O1112 O 0.41558 0.28903 0.65971 0.0
C1113 C 0.41237 0.22481 0.65673 0.0
C1114 C 0.34892 0.23193 0.63722 0.0
C1115 C 0.40891 0.28836 0.6404 0.0
O1116 O 0.3957 0.2307 0.64642 0.0
O1117 O 0.42035 0.23587 0.67208 0.0
O1118 O 0.35551 0.27825 0.65507 0.0
O1119 O 0.37991 0.26474 0.67626 0.0
Co1120 Co 0.09018 0.49943 0.36616 0.0
O1121 O 0.08127 0.5186 0.38844 0.0
O1122 O 0.11489 0.51101 0.38077 0.0
C1123 C 0.06784 0.47228 0.37353 0.0
O1124 O 0.10492 0.47964 0.34474 0.0
Co1125 Co 0.05766 0.4887 0.33014 0.0
O1126 O 0.07973 0.4676 0.32187 0.0
C1127 C 0.07746 0.53108 0.33092 0.0
C1128 C 0.10128 0.52152 0.39249 0.0
C1129 C 0.09863 0.46755 0.32924 0.0
O1130 O 0.09046 0.52412 0.34525 0.0
O1131 O 0.06174 0.51998 0.32412 0.0
O1132 O 0.08529 0.4747 0.38444 0.0
O1133 O 0.06317 0.48792 0.36073 0.0
Co1134 Co 0.25344 0.3489 0.12004 0.0
O1135 O 0.23504 0.33748 0.14159 0.0
O1136 O 0.24153 0.37204 0.13721 0.0
C1137 C 0.28031 0.32562 0.12545 0.0
O1138 O 0.27223 0.36619 0.09968 0.0
Co1139 Co 0.26448 0.32058 0.08094 0.0
O1140 O 0.28714 0.34238 0.07707 0.0
C1141 C 0.22305 0.34214 0.08205 0.0
C1142 C 0.23171 0.35701 0.14784 0.0
C1143 C 0.28579 0.36115 0.08504 0.0
O1144 O 0.22889 0.35124 0.09959 0.0
O1145 O 0.23452 0.32817 0.07241 0.0
O1146 O 0.27813 0.34246 0.13753 0.0
O1147 O 0.26495 0.32218 0.11203 0.0
Co1148 Co 0.40555 0.4984 0.86556 0.0
O1149 O 0.41505 0.47934 0.88768 0.0
O1150 O 0.38127 0.48657 0.88075 0.0
C1151 C 0.42781 0.5256 0.87304 0.0
O1152 O 0.39031 0.51824 0.84448 0.0
Co1153 Co 0.43749 0.50986 0.82927 0.0
O1154 O 0.4152 0.53091 0.82161 0.0
C1155 C 0.41775 0.46736 0.82954 0.0
C1156 C 0.3952 0.4765 0.89248 0.0
C1157 C 0.39635 0.53066 0.82911 0.0
O1158 O 0.40513 0.4738 0.84447 0.0
O1159 O 0.43317 0.47876 0.82252 0.0
O1160 O 0.41042 0.523 0.88396 0.0
O1161 O 0.43246 0.51019 0.85994 0.0
Co1162 Co 0.24439 0.64812 0.61865 0.0
O1163 O 0.26254 0.6605 0.63982 0.0
O1164 O 0.25774 0.62566 0.6357 0.0
C1165 C 0.21656 0.67011 0.62476 0.0
O1166 O 0.22609 0.62997 0.59856 0.0
Co1167 Co 0.23165 0.67592 0.57988 0.0
O1168 O 0.20973 0.65331 0.57648 0.0
C1169 C 0.27402 0.65628 0.58033 0.0
C1170 C 0.26707 0.64123 0.64602 0.0
C1171 C 0.21199 0.63455 0.58428 0.0
O1172 O 0.26872 0.64694 0.59788 0.0
O1173 O 0.2618 0.66961 0.5707 0.0
O1174 O 0.21977 0.65323 0.63651 0.0
O1175 O 0.23146 0.67437 0.61103 0.0
Co1176 Co 0.09074 0.49811 0.13236 0.0
O1177 O 0.08207 0.47813 0.11077 0.0
O1178 O 0.11559 0.48599 0.11837 0.0
C1179 C 0.0684 0.5245 0.12285 0.0
O1180 O 0.10503 0.51893 0.15321 0.0
Co1181 Co 0.05748 0.51043 0.16708 0.0
O1182 O 0.07874 0.53297 0.17353 0.0
C1183 C 0.0779 0.4682 0.16904 0.0
C1184 C 0.10206 0.47533 0.10666 0.0
C1185 C 0.09797 0.53249 0.16711 0.0
O1186 O 0.09078 0.47435 0.15424 0.0
O1187 O 0.06221 0.47964 0.17536 0.0
O1188 O 0.08628 0.52181 0.11284 0.0
O1189 O 0.06349 0.50971 0.13657 0.0
Co1190 Co 0.24473 0.35125 0.87915 0.0
O1191 O 0.26334 0.34048 0.8574 0.0
O1192 O 0.25578 0.37482 0.86212 0.0
C1193 C 0.21833 0.32737 0.87409 0.0
O1194 O 0.22568 0.36798 0.89966 0.0
Co1195 Co 0.23483 0.32265 0.91839 0.0
O1196 O 0.21163 0.34384 0.92251 0.0
C1197 C 0.27593 0.34475 0.91649 0.0
C1198 C 0.26615 0.36021 0.85146 0.0
C1199 C 0.21234 0.36256 0.91435 0.0
O1200 O 0.2694 0.35415 0.89938 0.0
O1201 O 0.26497 0.3304 0.92618 0.0
O1202 O 0.22003 0.34419 0.86188 0.0
O1203 O 0.23394 0.32428 0.88729 0.0
Co1204 Co 0.40631 0.50232 0.6319 0.0
O1205 O 0.41644 0.52168 0.61038 0.0
O1206 O 0.38245 0.51448 0.61621 0.0
C1207 C 0.42884 0.47523 0.62483 0.0
O1208 O 0.3905 0.48221 0.65232 0.0
Co1209 Co 0.43721 0.4908 0.66902 0.0
O1210 O 0.41487 0.46945 0.6757 0.0
C1211 C 0.41759 0.53329 0.66828 0.0
C1212 C 0.39674 0.52494 0.60528 0.0
C1213 C 0.39624 0.46964 0.66769 0.0
O1214 O 0.40525 0.5267 0.6532 0.0
O1215 O 0.43294 0.52196 0.67557 0.0
O1216 O 0.41181 0.47791 0.61336 0.0
O1217 O 0.43302 0.49053 0.63821 0.0
Co1218 Co 0.2529 0.64459 0.37731 0.0
O1219 O 0.23302 0.65492 0.35652 0.0
O1220 O 0.24021 0.62054 0.3622 0.0
C1221 C 0.27937 0.66754 0.36927 0.0
O1222 O 0.27284 0.62832 0.39734 0.0
Co1223 Co 0.26613 0.67481 0.41435 0.0
O1224 O 0.28888 0.65306 0.41812 0.0
C1225 C 0.22451 0.65364 0.41636 0.0
C1226 C 0.22931 0.63499 0.35191 0.0
C1227 C 0.28713 0.63398 0.411 0.0
O1228 O 0.22958 0.64336 0.39925 0.0
O1229 O 0.23643 0.66809 0.42463 0.0
O1230 O 0.27651 0.65018 0.35811 0.0
O1231 O 0.2648 0.6716 0.38339 0.0
Co1232 Co 0.37353 0.09497 0.49893 0.0
O1233 O 0.39523 0.0858 0.51831 0.0
O1234 O 0.38968 0.11956 0.50859 0.0
C1235 C 0.37922 0.06983 0.47362 0.0
O1236 O 0.35289 0.11017 0.47898 0.0
Co1237 Co 0.33551 0.06475 0.48989 0.0
O1238 O 0.33028 0.0853 0.46614 0.0
C1239 C 0.33606 0.08954 0.52999 0.0
C1240 C 0.40063 0.10582 0.51979 0.0
C1241 C 0.33794 0.10422 0.46622 0.0
O1242 O 0.35317 0.09873 0.5235 0.0
O1243 O 0.32706 0.07437 0.51952 0.0
O1244 O 0.39093 0.08697 0.4744 0.0
O1245 O 0.36618 0.06736 0.4895 0.0
Co1246 Co 0.87456 0.39838 0.50205 0.0
O1247 O 0.89518 0.40828 0.48191 0.0
O1248 O 0.8906 0.37421 0.49108 0.0
C1249 C 0.88128 0.42295 0.52759 0.0
O1250 O 0.85489 0.38275 0.52269 0.0
Co1251 Co 0.83686 0.42836 0.51311 0.0
O1252 O 0.83373 0.40793 0.53735 0.0
C1253 C 0.83547 0.40351 0.473 0.0
C1254 C 0.90081 0.3884 0.47973 0.0
C1255 C 0.84115 0.38892 0.53666 0.0
O1256 O 0.85318 0.39483 0.47842 0.0
O1257 O 0.82665 0.41836 0.48409 0.0
O1258 O 0.893 0.40591 0.52585 0.0
O1259 O 0.86754 0.42576 0.51236 0.0
Co1260 Co 0.34283 0.11671 0.25007 0.0
O1261 O 0.33434 0.13908 0.23087 0.0
O1262 O 0.3678 0.13026 0.23764 0.0
C1263 C 0.32149 0.12582 0.27752 0.0
O1264 O 0.35695 0.09484 0.26995 0.0
Co1265 Co 0.30866 0.08276 0.26246 0.0
O1266 O 0.33026 0.07534 0.2844 0.0
C1267 C 0.32821 0.081 0.21973 0.0
C1268 C 0.35437 0.14258 0.22758 0.0
C1269 C 0.34971 0.081 0.28348 0.0
O1270 O 0.34156 0.09544 0.22574 0.0
O1271 O 0.31265 0.0749 0.23147 0.0
O1272 O 0.33946 0.13562 0.27456 0.0
O1273 O 0.31587 0.11292 0.26227 0.0
Co1274 Co 0.62488 0.5981 0.00291 0.0
O1275 O 0.60345 0.58793 0.98372 0.0
O1276 O 0.60873 0.62216 0.9918 0.0
C1277 C 0.61856 0.57422 0.02924 0.0
O1278 O 0.64539 0.61413 0.02248 0.0
Co1279 Co 0.66252 0.56804 0.01389 0.0
O1280 O 0.66711 0.58941 0.03706 0.0
C1281 C 0.66295 0.59139 0.97283 0.0
C1282 C 0.59793 0.6078 0.98123 0.0
C1283 C 0.65983 0.60845 0.03596 0.0
O1284 O 0.64555 0.60062 0.97846 0.0
O1285 O 0.67186 0.57682 0.9842 0.0
O1286 O 0.60712 0.59145 0.02748 0.0
O1287 O 0.63187 0.57089 0.01373 0.0
Co1288 Co 0.65895 0.38167 0.24878 0.0
O1289 O 0.66728 0.35951 0.22928 0.0
O1290 O 0.6339 0.36729 0.23761 0.0
C1291 C 0.68185 0.37314 0.27502 0.0
O1292 O 0.64488 0.40304 0.26914 0.0
Co1293 Co 0.69207 0.41697 0.25928 0.0
O1294 O 0.67054 0.42554 0.28082 0.0
C1295 C 0.6709 0.41742 0.21739 0.0
C1296 C 0.64723 0.35533 0.22698 0.0
C1297 C 0.65155 0.41843 0.28118 0.0
O1298 O 0.65829 0.40277 0.22434 0.0
O1299 O 0.68684 0.42413 0.22826 0.0
O1300 O 0.66397 0.36296 0.27301 0.0
O1301 O 0.68645 0.3864 0.25971 0.0
Co1302 Co 0.12564 0.90343 0.99606 0.0
O1303 O 0.1044 0.91309 0.01568 0.0
O1304 O 0.10984 0.87905 0.00693 0.0
C1305 C 0.11876 0.92768 0.97026 0.0
O1306 O 0.14596 0.88791 0.97593 0.0
Co1307 Co 0.16292 0.93391 0.9851 0.0
O1308 O 0.16706 0.91315 0.96129 0.0
C1309 C 0.16395 0.91006 0.02584 0.0
C1310 C 0.09905 0.89314 0.01786 0.0
C1311 C 0.1599 0.89404 0.96212 0.0
O1312 O 0.14662 0.90069 0.0202 0.0
O1313 O 0.1726 0.92488 0.01461 0.0
O1314 O 0.10748 0.91032 0.97187 0.0
O1315 O 0.13228 0.93086 0.98561 0.0
Co1316 Co 0.34145 0.88035 0.25059 0.0
O1317 O 0.33279 0.85791 0.26958 0.0
O1318 O 0.36632 0.86625 0.26247 0.0
C1319 C 0.31968 0.87198 0.22327 0.0
O1320 O 0.35578 0.90212 0.23088 0.0
Co1321 Co 0.30791 0.9152 0.23946 0.0
O1322 O 0.32971 0.92351 0.21806 0.0
C1323 C 0.32823 0.91591 0.28177 0.0
C1324 C 0.3528 0.85402 0.27253 0.0
C1325 C 0.34892 0.91701 0.21834 0.0
O1326 O 0.34103 0.90127 0.27519 0.0
O1327 O 0.31254 0.92258 0.27051 0.0
O1328 O 0.33752 0.86189 0.22596 0.0
O1329 O 0.31436 0.88481 0.23871 0.0
Co1330 Co 0.15857 0.11912 0.75176 0.0
O1331 O 0.16672 0.14079 0.77188 0.0
O1332 O 0.1334 0.13207 0.76435 0.0
C1333 C 0.1802 0.12933 0.72493 0.0
O1334 O 0.14476 0.09793 0.73094 0.0
Co1335 Co 0.19283 0.08571 0.73835 0.0
O1336 O 0.172 0.08055 0.71501 0.0
C1337 C 0.17238 0.08176 0.78056 0.0
C1338 C 0.14663 0.14411 0.775 0.0
C1339 C 0.15241 0.08562 0.71622 0.0
O1340 O 0.15955 0.09692 0.77523 0.0
O1341 O 0.1879 0.07586 0.76865 0.0
O1342 O 0.16217 0.13896 0.72806 0.0
O1343 O 0.18569 0.11586 0.73973 0.0
C1344 C 0.07189 0.17621 0.37631 0.0
C1345 C 0.05104 0.17126 0.37009 0.0
C1346 C 0.08426 0.19054 0.36443 0.0
C1347 C 0.07606 0.20095 0.3461 0.0
H1348 H 0.07826 0.1699 0.3912 0.0
H1349 H 0.09985 0.19454 0.37064 0.0
S1350 S 0.02322 0.19071 0.32144 0.0
N1351 N 0.02351 0.17548 0.34314 0.0
N1352 N 0.04655 0.20285 0.32077 0.0
C1353 C 0.05583 0.19459 0.33865 0.0
C1354 C 0.04334 0.17966 0.35069 0.0
C1355 C 0.05653 0.83327 0.62069 0.0
C1356 C 0.04599 0.82468 0.60265 0.0
C1357 C 0.07127 0.82117 0.63231 0.0
C1358 C 0.07647 0.80016 0.62615 0.0
H1359 H 0.05233 0.84894 0.62691 0.0
H1360 H 0.07772 0.82786 0.647 0.0
S1361 S 0.05678 0.77146 0.57803 0.0
N1362 N 0.04425 0.79473 0.57751 0.0
N1363 N 0.07229 0.77217 0.59941 0.0
C1364 C 0.0679 0.79213 0.60697 0.0
C1365 C 0.05259 0.80436 0.59518 0.0
C1366 C 0.44574 0.79945 0.84478 0.0
C1367 C 0.42419 0.79616 0.85014 0.0
C1368 C 0.45829 0.81422 0.85616 0.0
C1369 C 0.4497 0.82609 0.87323 0.0
H1370 H 0.45339 0.78952 0.83279 0.0
H1371 H 0.47516 0.81506 0.85272 0.0
S1372 S 0.39349 0.82702 0.89078 0.0
N1373 N 0.39416 0.80896 0.8714 0.0
N1374 N 0.41805 0.83607 0.89303 0.0
C1375 C 0.42789 0.82448 0.87744 0.0
C1376 C 0.41503 0.80971 0.86577 0.0
C1377 C 0.4521 0.19825 0.09916 0.0
C1378 C 0.45527 0.17625 0.10337 0.0
C1379 C 0.43666 0.21006 0.11036 0.0
C1380 C 0.42399 0.20024 0.12612 0.0
H1381 H 0.46258 0.20677 0.08831 0.0
H1382 H 0.43582 0.22725 0.10793 0.0
S1383 S 0.42274 0.14259 0.14015 0.0
N1384 N 0.44169 0.14459 0.12193 0.0
N1385 N 0.41336 0.16711 0.14336 0.0
C1386 C 0.4256 0.17806 0.12909 0.0
C1387 C 0.44104 0.16595 0.11756 0.0
C1388 C 0.06905 0.81844 0.11515 0.0
C1389 C 0.04898 0.82514 0.12236 0.0
C1390 C 0.08128 0.804 0.12707 0.0
C1391 C 0.07374 0.79533 0.14654 0.0
H1392 H 0.07491 0.82356 0.09961 0.0
H1393 H 0.09616 0.79865 0.12017 0.0
S1394 S 0.0233 0.81027 0.17379 0.0
N1395 N 0.02304 0.82415 0.15121 0.0
N1396 N 0.04587 0.79673 0.17371 0.0
C1397 C 0.05438 0.80328 0.15476 0.0
C1398 C 0.04203 0.81827 0.14265 0.0
C1399 C 0.42536 0.81602 0.36938 0.0
C1400 C 0.42168 0.79415 0.37304 0.0
C1401 C 0.44054 0.82728 0.38129 0.0
C1402 C 0.45305 0.81695 0.397 0.0
H1403 H 0.41732 0.8242 0.35634 0.0
H1404 H 0.44337 0.84389 0.37707 0.0
S1405 S 0.44738 0.76019 0.41434 0.0
N1406 N 0.42979 0.76297 0.39484 0.0
N1407 N 0.45874 0.78391 0.41716 0.0
C1408 C 0.4482 0.79542 0.402 0.0
C1409 C 0.43243 0.78405 0.38999 0.0
C1410 C 0.44569 0.20274 0.65391 0.0
C1411 C 0.42414 0.20585 0.64844 0.0
C1412 C 0.45847 0.18824 0.64245 0.0
C1413 C 0.45012 0.17651 0.62515 0.0
H1414 H 0.45315 0.21259 0.66609 0.0
H1415 H 0.47531 0.18749 0.64603 0.0
S1416 S 0.39406 0.17522 0.60718 0.0
N1417 N 0.39442 0.19303 0.62678 0.0
N1418 N 0.41873 0.16645 0.60499 0.0
C1419 C 0.42834 0.17796 0.6208 0.0
C1420 C 0.41525 0.19243 0.63255 0.0
C1421 C 0.07207 0.1791 0.87501 0.0
C1422 C 0.07522 0.20107 0.87855 0.0
C1423 C 0.05663 0.16773 0.88643 0.0
C1424 C 0.0433 0.17805 0.90145 0.0
H1425 H 0.08072 0.17094 0.86237 0.0
H1426 H 0.05422 0.15102 0.88231 0.0
S1427 S 0.04738 0.23502 0.91841 0.0
N1428 N 0.0658 0.23233 0.8997 0.0
N1429 N 0.03627 0.21116 0.92103 0.0
C1430 C 0.04763 0.19967 0.90647 0.0
C1431 C 0.06369 0.21116 0.89498 0.0
C1432 C 0.35723 0.06071 0.17036 0.0
C1433 C 0.34385 0.04435 0.1626 0.0
C1434 C 0.35151 0.07317 0.18812 0.0
C1435 C 0.33219 0.06976 0.19904 0.0
H1436 H 0.37268 0.06344 0.16319 0.0
H1437 H 0.36283 0.08494 0.19384 0.0
S1438 S 0.29009 0.03097 0.18333 0.0
N1439 N 0.30937 0.02692 0.16582 0.0
N1440 N 0.29856 0.05037 0.1992 0.0
C1441 C 0.31798 0.05445 0.19055 0.0
C1442 C 0.3238 0.04179 0.17233 0.0
C1443 C 0.16736 0.11556 0.44355 0.0
C1444 C 0.1759 0.09815 0.45518 0.0
C1445 C 0.17977 0.12726 0.4291 0.0
C1446 C 0.20103 0.12174 0.42524 0.0
H1447 H 0.15137 0.12124 0.44663 0.0
H1448 H 0.17304 0.14152 0.42181 0.0
S1449 S 0.23013 0.07553 0.44827 0.0
N1450 N 0.20638 0.07438 0.45954 0.0
N1451 N 0.22951 0.09637 0.43192 0.0
C1452 C 0.20921 0.10318 0.43493 0.0
C1453 C 0.19667 0.09135 0.45 0.0
C1454 C 0.16677 0.95486 0.66981 0.0
C1455 C 0.14641 0.95298 0.6607 0.0
C1456 C 0.17269 0.94253 0.68761 0.0
C1457 C 0.15856 0.92767 0.69694 0.0
H1458 H 0.17785 0.96682 0.66398 0.0
H1459 H 0.18824 0.94529 0.69456 0.0
S1460 S 0.10454 0.91419 0.67679 0.0
N1461 N 0.11298 0.93334 0.66061 0.0
N1462 N 0.12407 0.91006 0.69399 0.0
C1463 C 0.13871 0.92446 0.68692 0.0
C1464 C 0.13265 0.93714 0.66885 0.0
C1465 C 0.31915 0.8717 0.9293 0.0
C1466 C 0.29826 0.87788 0.92446 0.0
C1467 C 0.33159 0.88362 0.94353 0.0
C1468 C 0.32345 0.90196 0.95395 0.0
H1469 H 0.32555 0.85689 0.92288 0.0
H1470 H 0.34724 0.87747 0.9474 0.0
S1471 S 0.27047 0.92643 0.94409 0.0
N1472 N 0.27069 0.90474 0.92887 0.0
N1473 N 0.29388 0.92717 0.95608 0.0
C1474 C 0.30313 0.9093 0.94778 0.0
C1475 C 0.29056 0.89723 0.93294 0.0
C1476 C 0.32629 0.95688 0.32692 0.0
C1477 C 0.34465 0.95214 0.33888 0.0
C1478 C 0.32055 0.94449 0.30907 0.0
C1479 C 0.33288 0.92677 0.30254 0.0
H1480 H 0.3169 0.97098 0.33061 0.0
H1481 H 0.30681 0.94944 0.29985 0.0
S1482 S 0.38048 0.90554 0.33093 0.0
N1483 N 0.3737 0.92711 0.34467 0.0
N1484 N 0.3629 0.9036 0.31136 0.0
C1485 C 0.35041 0.92094 0.31542 0.0
C1486 C 0.35631 0.93368 0.3335 0.0
C1487 C 0.29071 0.10558 0.56677 0.0
C1488 C 0.29876 0.12418 0.57649 0.0
C1489 C 0.30348 0.09324 0.55301 0.0
C1490 C 0.32473 0.0991 0.54866 0.0
H1491 H 0.27405 0.1015 0.56843 0.0
H1492 H 0.29615 0.07993 0.54464 0.0
S1493 S 0.35421 0.14394 0.57443 0.0
N1494 N 0.32974 0.14613 0.58374 0.0
N1495 N 0.35406 0.12278 0.5585 0.0
C1496 C 0.33346 0.11642 0.56028 0.0
C1497 C 0.32036 0.12906 0.574 0.0
C1498 C 0.1428 0.06121 0.82952 0.0
C1499 C 0.15518 0.04371 0.83637 0.0
C1500 C 0.14903 0.07394 0.81213 0.0
C1501 C 0.16787 0.06967 0.80067 0.0
H1502 H 0.12777 0.06478 0.83723 0.0
H1503 H 0.13848 0.08676 0.80723 0.0
S1504 S 0.20719 0.02707 0.81356 0.0
N1505 N 0.18811 0.0238 0.83144 0.0
N1506 N 0.19986 0.04773 0.79873 0.0
C1507 C 0.18104 0.05295 0.8081 0.0
C1508 C 0.17471 0.04 0.82595 0.0
C1509 C 0.17935 0.87072 0.06932 0.0
C1510 C 0.20031 0.87661 0.07423 0.0
C1511 C 0.16708 0.88283 0.05508 0.0
C1512 C 0.17547 0.90108 0.04471 0.0
H1513 H 0.17276 0.85596 0.07568 0.0
H1514 H 0.15137 0.8769 0.05118 0.0
S1515 S 0.22883 0.92472 0.05459 0.0
N1516 N 0.22828 0.90304 0.06981 0.0
N1517 N 0.20543 0.92582 0.0426 0.0
C1518 C 0.19591 0.90811 0.0509 0.0
C1519 C 0.20829 0.89584 0.06575 0.0
C1520 C 0.19218 0.36732 0.08153 0.0
C1521 C 0.20342 0.35044 0.07158 0.0
C1522 C 0.17685 0.37911 0.07038 0.0
C1523 C 0.17173 0.37421 0.04902 0.0
H1524 H 0.19615 0.37251 0.09763 0.0
H1525 H 0.1698 0.39295 0.07815 0.0
S1526 S 0.19353 0.32954 0.01659 0.0
N1527 N 0.20622 0.32784 0.03974 0.0
N1528 N 0.177 0.34998 0.019 0.0
C1529 C 0.18115 0.35616 0.0395 0.0
C1530 C 0.19709 0.34425 0.05074 0.0
C1531 C 0.68179 0.1432 0.96005 0.0
C1532 C 0.66941 0.12741 0.94995 0.0
C1533 C 0.6971 0.1548 0.94846 0.0
C1534 C 0.70042 0.15093 0.9264 0.0
H1535 H 0.68101 0.14522 0.97732 0.0
H1536 H 0.70751 0.16552 0.95722 0.0
S1537 S 0.66825 0.11461 0.89193 0.0
N1538 N 0.6589 0.1108 0.91641 0.0
N1539 N 0.687 0.13299 0.89431 0.0
C1540 C 0.68626 0.13693 0.91578 0.0
C1541 C 0.67095 0.125 0.92765 0.0
C1542 C 0.10824 0.4195 0.18895 0.0
C1543 C 0.09476 0.41079 0.20475 0.0
C1544 C 0.10223 0.43744 0.17691 0.0
C1545 C 0.0825 0.4476 0.18018 0.0
H1546 H 0.12397 0.41291 0.18633 0.0
H1547 H 0.11361 0.44384 0.16554 0.0
S1548 S 0.04006 0.42942 0.21747 0.0
N1549 N 0.05977 0.41242 0.22145 0.0
N1550 N 0.04849 0.44616 0.19879 0.0
C1551 C 0.06827 0.43826 0.19494 0.0
C1552 C 0.07437 0.41986 0.20718 0.0
C1553 C 0.80714 0.86601 0.41917 0.0
C1554 C 0.79346 0.85141 0.42959 0.0
C1555 C 0.82284 0.87713 0.43048 0.0
C1556 C 0.82587 0.87371 0.45251 0.0
H1557 H 0.80489 0.87001 0.40239 0.0
H1558 H 0.83183 0.88946 0.42221 0.0
S1559 S 0.79696 0.83496 0.48682 0.0
N1560 N 0.78586 0.83238 0.46291 0.0
N1561 N 0.81583 0.85316 0.48399 0.0
C1562 C 0.8139 0.85771 0.46275 0.0
C1563 C 0.79759 0.84653 0.4513 0.0
C1564 C 0.91991 0.07631 0.20761 0.0
C1565 C 0.90133 0.08802 0.20312 0.0
C1566 C 0.92546 0.05826 0.19543 0.0
C1567 C 0.91274 0.05127 0.17815 0.0
H1568 H 0.9296 0.08031 0.22142 0.0
H1569 H 0.93941 0.04926 0.2002 0.0
S1570 S 0.8644 0.07887 0.15759 0.0
N1571 N 0.87161 0.09308 0.17872 0.0
N1572 N 0.88207 0.05941 0.15557 0.0
C1573 C 0.89498 0.06391 0.1725 0.0
C1574 C 0.88927 0.08219 0.18505 0.0
C1575 C 0.29703 0.65237 0.54753 0.0
C1576 C 0.29395 0.64898 0.56971 0.0
C1577 C 0.31287 0.64122 0.53617 0.0
C1578 C 0.32604 0.62633 0.54663 0.0
H1579 H 0.28621 0.66247 0.53855 0.0
H1580 H 0.31363 0.64294 0.51888 0.0
S1581 S 0.32764 0.61477 0.6049 0.0
N1582 N 0.30809 0.63222 0.60213 0.0
N1583 N 0.33717 0.61088 0.5805 0.0
C1584 C 0.32448 0.62425 0.56896 0.0
C1585 C 0.30864 0.63573 0.58059 0.0
C1586 C 0.0753 0.57639 0.29028 0.0
C1587 C 0.09356 0.58838 0.29516 0.0
C1588 C 0.06961 0.55851 0.3026 0.0
C1589 C 0.08192 0.55199 0.32037 0.0
H1590 H 0.06602 0.58002 0.27608 0.0
H1591 H 0.05599 0.5492 0.29748 0.0
S1592 S 0.12891 0.58085 0.34224 0.0
N1593 N 0.12228 0.59449 0.32053 0.0
N1594 N 0.11152 0.5611 0.34398 0.0
C1595 C 0.09923 0.56502 0.32646 0.0
C1596 C 0.10508 0.58314 0.31377 0.0
C1597 C 0.39276 0.43738 0.82087 0.0
C1598 C 0.41298 0.44676 0.81855 0.0
C1599 C 0.38654 0.41992 0.80823 0.0
C1600 C 0.4003 0.41097 0.79278 0.0
H1601 H 0.38118 0.44417 0.8318 0.0
H1602 H 0.37046 0.41397 0.81004 0.0
S1603 S 0.45625 0.42734 0.78289 0.0
N1604 N 0.44771 0.4441 0.80149 0.0
N1605 N 0.43602 0.4113 0.7777 0.0
C1606 C 0.42114 0.41912 0.79146 0.0
C1607 C 0.42746 0.43701 0.8043 0.0
C1608 C 0.91652 0.8067 0.63566 0.0
C1609 C 0.92538 0.79475 0.6527 0.0
C1610 C 0.92872 0.82131 0.62394 0.0
C1611 C 0.9501 0.82503 0.62907 0.0
H1612 H 0.90041 0.80377 0.63028 0.0
H1613 H 0.92168 0.82892 0.61 0.0
S1614 S 0.98014 0.80107 0.67423 0.0
N1615 N 0.95639 0.78985 0.6757 0.0
N1616 N 0.97911 0.81781 0.6537 0.0
C1617 C 0.95867 0.81496 0.64727 0.0
C1618 C 0.94634 0.79973 0.65911 0.0
C1619 C 0.94769 0.19496 0.39883 0.0
C1620 C 0.95329 0.17389 0.39289 0.0
C1621 C 0.93218 0.20642 0.38742 0.0
C1622 C 0.92194 0.19726 0.36961 0.0
H1623 H 0.95615 0.20316 0.41156 0.0
H1624 H 0.9293 0.22303 0.39163 0.0
S1625 S 0.92734 0.14146 0.35007 0.0
N1626 N 0.94447 0.14326 0.37008 0.0
N1627 N 0.91602 0.16529 0.34831 0.0
C1628 C 0.92602 0.17577 0.36457 0.0
C1629 C 0.94148 0.16394 0.37635 0.0
C1630 C 0.54153 0.1834 0.14843 0.0
C1631 C 0.55101 0.17119 0.13208 0.0
C1632 C 0.55348 0.19834 0.16023 0.0
C1633 C 0.57529 0.20143 0.15603 0.0
H1634 H 0.52448 0.18276 0.15084 0.0
H1635 H 0.54519 0.20866 0.17144 0.0
S1636 S 0.60816 0.1695 0.11806 0.0
N1637 N 0.58371 0.16057 0.11447 0.0
N1638 N 0.60647 0.18792 0.13703 0.0
C1639 C 0.58529 0.18742 0.14137 0.0
C1640 C 0.57305 0.17251 0.12922 0.0
C1641 C 0.5718 0.82103 0.86731 0.0
C1642 C 0.57726 0.7999 0.87262 0.0
C1643 C 0.55712 0.8325 0.8796 0.0
C1644 C 0.54684 0.82306 0.8974 0.0
H1645 H 0.57798 0.8283 0.85278 0.0
H1646 H 0.55275 0.84838 0.87409 0.0
S1647 S 0.55831 0.76902 0.9197 0.0
N1648 N 0.57363 0.77078 0.89824 0.0
N1649 N 0.54557 0.79213 0.92131 0.0
C1650 C 0.55368 0.80255 0.90399 0.0
C1651 C 0.56899 0.791 0.89157 0.0
C1652 C 0.92661 0.17793 0.87629 0.0
C1653 C 0.94819 0.17447 0.87188 0.0
C1654 C 0.91474 0.19273 0.86444 0.0
C1655 C 0.92415 0.20517 0.84804 0.0
H1656 H 0.91913 0.16997 0.88979 0.0
H1657 H 0.8984 0.19539 0.86924 0.0
S1658 S 0.97973 0.19985 0.82856 0.0
N1659 N 0.97805 0.18256 0.84859 0.0
N1660 N 0.95596 0.21091 0.82644 0.0
C1661 C 0.94535 0.2005 0.84233 0.0
C1662 C 0.95734 0.18506 0.85427 0.0
C1663 C 0.55816 0.17048 0.61851 0.0
C1664 C 0.54728 0.18022 0.60125 0.0
C1665 C 0.57287 0.18189 0.63082 0.0
C1666 C 0.57777 0.20328 0.62602 0.0
H1667 H 0.55431 0.15432 0.62359 0.0
H1668 H 0.57962 0.17428 0.6449 0.0
S1669 S 0.55695 0.23523 0.5805 0.0
N1670 N 0.54468 0.2119 0.57845 0.0
N1671 N 0.57285 0.23312 0.60149 0.0
C1672 C 0.56881 0.2126 0.60761 0.0
C1673 C 0.55346 0.2011 0.59519 0.0
C1674 C 0.53997 0.81257 0.35283 0.0
C1675 C 0.54899 0.82458 0.36957 0.0
C1676 C 0.55247 0.79848 0.34057 0.0
C1677 C 0.57439 0.79608 0.34467 0.0
H1678 H 0.52291 0.81267 0.3504 0.0
H1679 H 0.54455 0.78824 0.32902 0.0
S1680 S 0.60603 0.82799 0.38372 0.0
N1681 N 0.58125 0.83585 0.38758 0.0
N1682 N 0.60504 0.81016 0.36415 0.0
C1683 C 0.58386 0.80999 0.3598 0.0
C1684 C 0.57106 0.824 0.37243 0.0
C1685 C 0.92814 0.81992 0.13252 0.0
C1686 C 0.92184 0.79924 0.12643 0.0
C1687 C 0.94262 0.83159 0.12016 0.0
C1688 C 0.95187 0.8228 0.10147 0.0
H1689 H 0.92264 0.82671 0.14755 0.0
H1690 H 0.94756 0.8471 0.1262 0.0
S1691 S 0.93824 0.77009 0.07729 0.0
N1692 N 0.92381 0.77123 0.09941 0.0
N1693 N 0.95151 0.79293 0.07622 0.0
C1694 C 0.94435 0.80272 0.09432 0.0
C1695 C 0.92924 0.79098 0.10682 0.0
C1696 C 0.61088 0.92927 0.83039 0.0
C1697 C 0.61362 0.95044 0.82327 0.0
C1698 C 0.61685 0.91189 0.81748 0.0
C1699 C 0.62561 0.91512 0.79692 0.0
H1700 H 0.60226 0.9261 0.84513 0.0
H1701 H 0.61286 0.89586 0.82286 0.0
S1702 S 0.63871 0.96772 0.7724 0.0
N1703 N 0.62778 0.97388 0.79572 0.0
N1704 N 0.6392 0.94125 0.77132 0.0
C1705 C 0.6305 0.93626 0.79065 0.0
C1706 C 0.62434 0.95396 0.80385 0.0
C1707 C 0.83373 0.88679 0.55833 0.0
C1708 C 0.82459 0.90368 0.54638 0.0
C1709 C 0.82169 0.87481 0.57288 0.0
C1710 C 0.80024 0.87961 0.57659 0.0
H1711 H 0.8499 0.88162 0.55533 0.0
H1712 H 0.82886 0.86085 0.58031 0.0
S1713 S 0.76966 0.92455 0.55298 0.0
N1714 N 0.79337 0.92637 0.54172 0.0
N1715 N 0.77096 0.90396 0.56961 0.0
C1716 C 0.79148 0.89782 0.56672 0.0
C1717 C 0.80364 0.90988 0.55151 0.0
C1718 C 0.89132 0.06885 0.33008 0.0
C1719 C 0.88804 0.04761 0.32345 0.0
C1720 C 0.88486 0.08605 0.31722 0.0
C1721 C 0.87511 0.08257 0.29715 0.0
H1722 H 0.90048 0.07217 0.34445 0.0
H1723 H 0.88901 0.10214 0.32229 0.0
S1724 S 0.86072 0.02967 0.274 0.0
N1725 N 0.87262 0.02381 0.29691 0.0
N1726 N 0.86035 0.05613 0.27252 0.0
C1727 C 0.86995 0.06136 0.29135 0.0
C1728 C 0.87656 0.04383 0.30454 0.0
C1729 C 0.69749 0.09305 0.0475 0.0
C1730 C 0.67561 0.0973 0.04491 0.0
C1731 C 0.70976 0.10456 0.0624 0.0
C1732 C 0.70054 0.12067 0.07509 0.0
H1733 H 0.70555 0.08192 0.03691 0.0
H1734 H 0.7268 0.10205 0.06274 0.0
S1735 S 0.64351 0.13495 0.07802 0.0
N1736 N 0.64477 0.11627 0.05927 0.0
N1737 N 0.66814 0.1383 0.08654 0.0
C1738 C 0.67851 0.1237 0.07416 0.0
C1739 C 0.66594 0.11184 0.0593 0.0
C1740 C 0.6231 0.0466 0.69517 0.0
C1741 C 0.61381 0.04959 0.67488 0.0
C1742 C 0.62915 0.06425 0.70778 0.0
C1743 C 0.62555 0.08536 0.7006 0.0
H1744 H 0.62383 0.0307 0.70214 0.0
H1745 H 0.63451 0.06133 0.72405 0.0
S1746 S 0.60483 0.1013 0.64718 0.0
N1747 N 0.60391 0.07482 0.64702 0.0
N1748 N 0.61502 0.10806 0.67067 0.0
C1749 C 0.61832 0.08837 0.67944 0.0
C1750 C 0.61245 0.07043 0.66658 0.0
C1751 C 0.70657 0.89733 0.43503 0.0
C1752 C 0.69746 0.88091 0.42262 0.0
C1753 C 0.69424 0.90902 0.44977 0.0
C1754 C 0.6724 0.90465 0.45247 0.0
H1755 H 0.7236 0.8999 0.43469 0.0
H1756 H 0.70224 0.9203 0.46024 0.0
S1757 S 0.64048 0.86634 0.41998 0.0
N1758 N 0.66511 0.863 0.41146 0.0
N1759 N 0.64167 0.88532 0.43843 0.0
C1760 C 0.66281 0.88987 0.43829 0.0
C1761 C 0.67543 0.87785 0.42359 0.0
C1762 C 0.88592 0.92829 0.16893 0.0
C1763 C 0.88337 0.94934 0.17645 0.0
C1764 C 0.8803 0.91072 0.18174 0.0
C1765 C 0.87202 0.91364 0.20255 0.0
H1766 H 0.89415 0.92535 0.15392 0.0
H1767 H 0.88412 0.89476 0.17602 0.0
S1768 S 0.85968 0.96588 0.22825 0.0
N1769 N 0.87001 0.97237 0.20475 0.0
N1770 N 0.85915 0.93939 0.22891 0.0
C1771 C 0.86734 0.93469 0.20928 0.0
C1772 C 0.8732 0.95258 0.19621 0.0
C1773 C 0.79905 0.09337 0.95201 0.0
C1774 C 0.82102 0.09717 0.95447 0.0
C1775 C 0.78691 0.10522 0.93727 0.0
C1776 C 0.79635 0.12124 0.92461 0.0
H1777 H 0.79085 0.08232 0.96257 0.0
H1778 H 0.76982 0.10303 0.93701 0.0
S1779 S 0.85363 0.13439 0.9214 0.0
N1780 N 0.85212 0.11563 0.94006 0.0
N1781 N 0.82902 0.13828 0.91306 0.0
C1782 C 0.81844 0.12383 0.92543 0.0
C1783 C 0.83087 0.11163 0.94015 0.0
C1784 C 0.8063 0.63259 0.91482 0.0
C1785 C 0.79521 0.64982 0.92434 0.0
C1786 C 0.82125 0.62071 0.92636 0.0
C1787 C 0.82618 0.62591 0.94767 0.0
H1788 H 0.80243 0.62718 0.89875 0.0
H1789 H 0.82815 0.60661 0.91894 0.0
S1790 S 0.80484 0.67159 0.97902 0.0
N1791 N 0.79243 0.67308 0.95569 0.0
N1792 N 0.82104 0.65083 0.97717 0.0
C1793 C 0.817 0.64433 0.95675 0.0
C1794 C 0.80142 0.65631 0.94511 0.0
C1795 C 0.30315 0.8475 0.05189 0.0
C1796 C 0.29742 0.85299 0.07309 0.0
C1797 C 0.31826 0.85955 0.04049 0.0
C1798 C 0.32796 0.87756 0.04987 0.0
H1799 H 0.29494 0.83472 0.04352 0.0
H1800 H 0.32106 0.85581 0.02374 0.0
S1801 S 0.32202 0.89626 0.10593 0.0
N1802 N 0.30567 0.87567 0.10399 0.0
N1803 N 0.3333 0.89858 0.08213 0.0
C1804 C 0.32392 0.88204 0.0715 0.0
C1805 C 0.30888 0.86965 0.08325 0.0
C1806 C 0.86604 0.56697 0.83417 0.0
C1807 C 0.87403 0.54605 0.83142 0.0
C1808 C 0.85968 0.57932 0.81652 0.0
C1809 C 0.86115 0.57118 0.79557 0.0
H1810 H 0.86309 0.57318 0.85014 0.0
H1811 H 0.85177 0.59449 0.81942 0.0
S1812 S 0.88345 0.5187 0.77939 0.0
N1813 N 0.88531 0.51881 0.80585 0.0
N1814 N 0.87302 0.54209 0.77272 0.0
C1815 C 0.8709 0.55121 0.79241 0.0
C1816 C 0.87754 0.53864 0.81037 0.0
C1817 C 0.18074 0.14207 0.54018 0.0
C1818 C 0.16948 0.12547 0.55032 0.0
C1819 C 0.196 0.15402 0.55145 0.0
C1820 C 0.20037 0.14976 0.57325 0.0
H1821 H 0.17907 0.14462 0.52305 0.0
H1822 H 0.20548 0.1655 0.54258 0.0
S1823 S 0.17114 0.1112 0.60799 0.0
N1824 N 0.16103 0.10756 0.58379 0.0
N1825 N 0.18902 0.13041 0.60535 0.0
C1826 C 0.18732 0.13481 0.58403 0.0
C1827 C 0.17208 0.12249 0.57245 0.0
C1828 C 0.123 0.94866 0.79519 0.0
C1829 C 0.13061 0.92765 0.79783 0.0
C1830 C 0.11703 0.96106 0.813 0.0
C1831 C 0.11913 0.95297 0.83398 0.0
H1832 H 0.1235 0.95619 0.77952 0.0
H1833 H 0.11303 0.97777 0.81041 0.0
S1834 S 0.13497 0.89766 0.84888 0.0
N1835 N 0.13711 0.89827 0.82245 0.0
N1836 N 0.12639 0.92166 0.85607 0.0
C1837 C 0.12467 0.93126 0.83656 0.0
C1838 C 0.13035 0.91857 0.8184 0.0
C1839 C 0.67593 0.38152 0.42675 0.0
C1840 C 0.66805 0.37517 0.44685 0.0
C1841 C 0.69035 0.36872 0.41548 0.0
C1842 C 0.69784 0.3492 0.42409 0.0
H1843 H 0.67188 0.39711 0.42023 0.0
H1844 H 0.6968 0.37505 0.40065 0.0
S1845 S 0.67877 0.32356 0.47437 0.0
N1846 N 0.6661 0.34673 0.47346 0.0
N1847 N 0.69351 0.32263 0.45244 0.0
C1848 C 0.6884 0.34168 0.44319 0.0
C1849 C 0.67342 0.35468 0.45454 0.0
C1850 C 0.88021 0.46067 0.68678 0.0
C1851 C 0.87918 0.45165 0.66609 0.0
C1852 C 0.87385 0.44883 0.70485 0.0
C1853 C 0.86694 0.4275 0.7028 0.0
H1854 H 0.88361 0.47759 0.68879 0.0
H1855 H 0.87246 0.457 0.72015 0.0
S1856 S 0.86532 0.39539 0.65288 0.0
N1857 N 0.87355 0.41931 0.64505 0.0
N1858 N 0.86221 0.39699 0.67916 0.0
C1859 C 0.86831 0.41761 0.68265 0.0
C1860 C 0.87433 0.42972 0.66421 0.0
C1861 C 0.63867 0.57983 0.17972 0.0
C1862 C 0.63695 0.5724 0.2009 0.0
C1863 C 0.63238 0.56697 0.16242 0.0
C1864 C 0.62428 0.54618 0.16576 0.0
H1865 H 0.6467 0.59486 0.1764 0.0
H1866 H 0.63551 0.57266 0.14629 0.0
S1867 S 0.61416 0.52061 0.21856 0.0
N1868 N 0.62465 0.54415 0.22458 0.0
N1869 N 0.61258 0.51986 0.19209 0.0
C1870 C 0.6205 0.53949 0.18701 0.0
C1871 C 0.62702 0.55262 0.20462 0.0
C1872 C 0.57861 0.69592 0.87061 0.0
C1873 C 0.57095 0.7044 0.85109 0.0
C1874 C 0.56636 0.68186 0.88292 0.0
C1875 C 0.54615 0.67527 0.87604 0.0
H1876 H 0.59367 0.70114 0.87723 0.0
H1877 H 0.57237 0.67683 0.89843 0.0
S1878 S 0.51993 0.68982 0.8248 0.0
N1879 N 0.54266 0.70308 0.82437 0.0
N1880 N 0.51981 0.67623 0.84756 0.0
C1881 C 0.53898 0.682 0.85578 0.0
C1882 C 0.55135 0.69666 0.84329 0.0
C1883 C 0.55501 0.33002 0.12154 0.0
C1884 C 0.54406 0.32061 0.10415 0.0
C1885 C 0.5701 0.31851 0.13328 0.0
C1886 C 0.57527 0.2973 0.12789 0.0
H1887 H 0.55104 0.34599 0.12708 0.0
H1888 H 0.577 0.3259 0.14741 0.0
S1889 S 0.55408 0.2662 0.08195 0.0
N1890 N 0.54149 0.28942 0.08066 0.0
N1891 N 0.57026 0.26799 0.10275 0.0
C1892 C 0.56606 0.28829 0.10945 0.0
C1893 C 0.55037 0.29991 0.09756 0.0
C1894 C 0.92793 0.31759 0.38 0.0
C1895 C 0.94826 0.32312 0.37253 0.0
C1896 C 0.91494 0.30354 0.36845 0.0
C1897 C 0.92193 0.29404 0.34915 0.0
H1898 H 0.92247 0.32327 0.3955 0.0
H1899 H 0.89987 0.29906 0.37558 0.0
S1900 S 0.97269 0.30623 0.32113 0.0
N1901 N 0.9738 0.3205 0.34345 0.0
N1902 N 0.94955 0.29372 0.32167 0.0
C1903 C 0.94151 0.30102 0.34055 0.0
C1904 C 0.95465 0.31564 0.35228 0.0
C1905 C 0.94059 0.66871 0.61379 0.0
C1906 C 0.95364 0.67932 0.59872 0.0
C1907 C 0.9253 0.67981 0.6257 0.0
C1908 C 0.92199 0.70182 0.62263 0.0
H1909 H 0.94309 0.65193 0.61756 0.0
H1910 H 0.91686 0.67136 0.6383 0.0
S1911 S 0.94911 0.73663 0.58299 0.0
N1912 N 0.96025 0.71285 0.57972 0.0
N1913 N 0.93102 0.73351 0.60195 0.0
C1914 C 0.93327 0.71227 0.60623 0.0
C1915 C 0.94919 0.70105 0.59426 0.0
C1916 C 0.54004 0.31602 0.6443 0.0
C1917 C 0.54869 0.32732 0.62688 0.0
C1918 C 0.55259 0.30173 0.65626 0.0
C1919 C 0.5742 0.2984 0.6512 0.0
H1920 H 0.52316 0.31694 0.64763 0.0
H1921 H 0.54488 0.29218 0.66853 0.0
S1922 S 0.60503 0.32808 0.60978 0.0
N1923 N 0.58043 0.33687 0.60701 0.0
N1924 N 0.60433 0.3107 0.62976 0.0
C1925 C 0.5834 0.31147 0.63518 0.0
C1926 C 0.57054 0.32572 0.6229 0.0
C1927 C 0.93956 0.33242 0.88382 0.0
C1928 C 0.95157 0.32236 0.90009 0.0
C1929 C 0.92419 0.32117 0.87217 0.0
C1930 C 0.9198 0.29958 0.87662 0.0
H1931 H 0.94298 0.34874 0.87895 0.0
H1932 H 0.91658 0.32907 0.8587 0.0
S1933 S 0.94372 0.26667 0.91983 0.0
N1934 N 0.95584 0.29009 0.92179 0.0
N1935 N 0.92654 0.26915 0.89994 0.0
C1936 C 0.92996 0.28989 0.89419 0.0
C1937 C 0.94592 0.30125 0.90595 0.0
C1938 C 0.95831 0.68341 0.14157 0.0
C1939 C 0.95002 0.67322 0.12331 0.0
C1940 C 0.94584 0.69783 0.15347 0.0
C1941 C 0.92468 0.7024 0.14749 0.0
H1942 H 0.97495 0.68157 0.14567 0.0
H1943 H 0.95334 0.70647 0.16651 0.0
S1944 S 0.89463 0.6759 0.10344 0.0
N1945 N 0.91889 0.666 0.10155 0.0
N1946 N 0.89514 0.69247 0.1241 0.0
C1947 C 0.9157 0.69044 0.13052 0.0
C1948 C 0.92849 0.67604 0.11834 0.0
C1949 C 0.55831 0.66879 0.37999 0.0
C1950 C 0.54649 0.67876 0.39645 0.0
C1951 C 0.57364 0.68007 0.36833 0.0
C1952 C 0.57817 0.70161 0.37295 0.0
H1953 H 0.55477 0.65253 0.37499 0.0
H1954 H 0.58111 0.67226 0.35473 0.0
S1955 S 0.55474 0.73426 0.41662 0.0
N1956 N 0.54254 0.71087 0.41848 0.0
N1957 N 0.57174 0.73187 0.39656 0.0
C1958 C 0.56818 0.7112 0.39066 0.0
C1959 C 0.55226 0.69981 0.40244 0.0
C1960 C 0.85134 0.57111 0.68513 0.0
C1961 C 0.83121 0.56867 0.69467 0.0
C1962 C 0.85761 0.55835 0.66777 0.0
C1963 C 0.84401 0.54261 0.6591 0.0
H1964 H 0.86282 0.58227 0.69171 0.0
H1965 H 0.87363 0.56031 0.66171 0.0
S1966 S 0.78825 0.53232 0.67587 0.0
N1967 N 0.79666 0.55119 0.69239 0.0
N1968 N 0.80846 0.52715 0.65979 0.0
C1969 C 0.82323 0.54114 0.6674 0.0
C1970 C 0.81684 0.55414 0.68517 0.0
C1971 C 0.67797 0.63043 0.92891 0.0
C1972 C 0.69879 0.62433 0.92363 0.0
C1973 C 0.66588 0.61854 0.94348 0.0
C1974 C 0.67428 0.60026 0.95379 0.0
H1975 H 0.67133 0.64514 0.92251 0.0
H1976 H 0.65028 0.62462 0.94763 0.0
S1977 S 0.72725 0.57607 0.94307 0.0
N1978 N 0.72661 0.59767 0.92772 0.0
N1979 N 0.70407 0.57528 0.95551 0.0
C1980 C 0.69456 0.59304 0.94729 0.0
C1981 C 0.70678 0.6051 0.93213 0.0
C1982 C 0.6785 0.44528 0.18933 0.0
C1983 C 0.66583 0.42812 0.19664 0.0
C1984 C 0.67258 0.45751 0.17142 0.0
C1985 C 0.65369 0.45317 0.16017 0.0
H1986 H 0.69271 0.44993 0.19797 0.0
H1987 H 0.68229 0.47122 0.16717 0.0
S1988 S 0.61662 0.40798 0.17031 0.0
N1989 N 0.63477 0.40583 0.18932 0.0
N1990 N 0.62366 0.42901 0.15588 0.0
C1991 C 0.64163 0.4352 0.16631 0.0
C1992 C 0.6477 0.42263 0.18446 0.0
C1993 C 0.78949 0.38889 0.43612 0.0
C1994 C 0.79662 0.36968 0.42686 0.0
C1995 C 0.8027 0.40073 0.44993 0.0
C1996 C 0.82354 0.3938 0.45474 0.0
H1997 H 0.77316 0.39398 0.43393 0.0
H1998 H 0.79608 0.4147 0.4578 0.0
S1999 S 0.85061 0.34635 0.43083 0.0
N2000 N 0.82626 0.34555 0.42104 0.0
N2001 N 0.85146 0.36791 0.44619 0.0
C2002 C 0.83136 0.37559 0.44377 0.0
C2003 C 0.81778 0.36347 0.43008 0.0
C2004 C 0.85254 0.42579 0.81226 0.0
C2005 C 0.83265 0.42839 0.80225 0.0
C2006 C 0.85834 0.43823 0.83002 0.0
C2007 C 0.84446 0.45372 0.83866 0.0
H2008 H 0.86424 0.41484 0.80574 0.0
H2009 H 0.87424 0.43627 0.83643 0.0
S2010 S 0.78909 0.46417 0.82069 0.0
N2011 N 0.79798 0.44565 0.80401 0.0
N2012 N 0.80887 0.46905 0.8374 0.0
C2013 C 0.82386 0.45525 0.82991 0.0
C2014 C 0.81798 0.44262 0.8117 0.0
C2015 C 0.78961 0.60695 0.06212 0.0
C2016 C 0.79847 0.62393 0.0739 0.0
C2017 C 0.80195 0.59542 0.0473 0.0
C2018 C 0.82354 0.60051 0.04389 0.0
H2019 H 0.77271 0.60372 0.06306 0.0
H2020 H 0.79409 0.58353 0.03741 0.0
S2021 S 0.8549 0.6407 0.07462 0.0
N2022 N 0.8304 0.6433 0.08377 0.0
N2023 N 0.85392 0.62132 0.05657 0.0
C2024 C 0.83297 0.616 0.0574 0.0
C2025 C 0.82032 0.62784 0.07221 0.0
C2026 C 0.6491 0.57374 0.31229 0.0
C2027 C 0.66842 0.5701 0.30147 0.0
C2028 C 0.64317 0.56141 0.33009 0.0
C2029 C 0.65635 0.54496 0.33799 0.0
H2030 H 0.63792 0.58561 0.30649 0.0
H2031 H 0.62771 0.56433 0.33719 0.0
S2032 S 0.71003 0.5309 0.31744 0.0
N2033 N 0.70181 0.55032 0.30147 0.0
N2034 N 0.69066 0.52714 0.33491 0.0
C2035 C 0.6764 0.54214 0.32831 0.0
C2036 C 0.68242 0.55466 0.31005 0.0
C2037 C 0.69635 0.40461 0.54727 0.0
C2038 C 0.67495 0.39886 0.54367 0.0
C2039 C 0.709 0.39332 0.56202 0.0
C2040 C 0.70067 0.37589 0.57353 0.0
H2041 H 0.70382 0.41699 0.53769 0.0
H2042 H 0.72574 0.39721 0.56321 0.0
S2043 S 0.64489 0.35697 0.57347 0.0
N2044 N 0.6453 0.37665 0.55574 0.0
N2045 N 0.6694 0.35515 0.58277 0.0
C2046 C 0.679 0.37114 0.57153 0.0
C2047 C 0.66603 0.38274 0.5568 0.0
C2048 C 0.69275 0.8708 0.58047 0.0
C2049 C 0.70418 0.85386 0.57085 0.0
C2050 C 0.67729 0.88219 0.5691 0.0
C2051 C 0.67224 0.87687 0.54782 0.0
H2052 H 0.69656 0.87622 0.59654 0.0
H2053 H 0.66998 0.896 0.57667 0.0
S2054 S 0.69481 0.83205 0.51612 0.0
N2055 N 0.70744 0.83088 0.53934 0.0
N2056 N 0.67799 0.85229 0.51817 0.0
C2057 C 0.682 0.85885 0.53857 0.0
C2058 C 0.69806 0.84733 0.55005 0.0
C2059 C 0.1911 0.63207 0.41727 0.0
C2060 C 0.20493 0.6465 0.42773 0.0
C2061 C 0.1755 0.62083 0.42862 0.0
C2062 C 0.17273 0.62393 0.45073 0.0
H2063 H 0.19315 0.62832 0.40041 0.0
H2064 H 0.16638 0.60865 0.42027 0.0
S2065 S 0.20222 0.66204 0.48526 0.0
N2066 N 0.21302 0.66497 0.46125 0.0
N2067 N 0.18325 0.64395 0.4824 0.0
C2068 C 0.18489 0.63973 0.46105 0.0
C2069 C 0.20108 0.65105 0.44957 0.0
C2070 C 0.60843 0.92177 0.68846 0.0
C2071 C 0.59444 0.91286 0.70371 0.0
C2072 C 0.6025 0.93937 0.67589 0.0
C2073 C 0.58237 0.94895 0.67811 0.0
H2074 H 0.62443 0.9156 0.68669 0.0
H2075 H 0.61423 0.94607 0.66506 0.0
S2076 S 0.53865 0.92989 0.71341 0.0
N2077 N 0.55865 0.91357 0.71862 0.0
N2078 N 0.54751 0.94665 0.69496 0.0
C2079 C 0.56768 0.93933 0.69223 0.0
C2080 C 0.5737 0.92129 0.705 0.0
C2081 C 0.3159 0.35951 0.9597 0.0
C2082 C 0.32725 0.37625 0.94988 0.0
C2083 C 0.30034 0.34807 0.94828 0.0
C2084 C 0.29573 0.35297 0.92666 0.0
H2085 H 0.31778 0.35646 0.97672 0.0
H2086 H 0.29091 0.33638 0.95692 0.0
S2087 S 0.32471 0.39246 0.89276 0.0
N2088 N 0.33528 0.39516 0.91687 0.0
N2089 N 0.3067 0.37333 0.89506 0.0
C2090 C 0.30873 0.36819 0.91618 0.0
C2091 C 0.32429 0.37995 0.92791 0.0
C2092 C 0.42529 0.56079 0.6966 0.0
C2093 C 0.41288 0.55411 0.67898 0.0
C2094 C 0.41957 0.57863 0.70898 0.0
C2095 C 0.40113 0.59047 0.70433 0.0
H2096 H 0.43911 0.55167 0.70153 0.0
H2097 H 0.42902 0.58234 0.72304 0.0
S2098 S 0.36521 0.58232 0.65774 0.0
N2099 N 0.38281 0.56277 0.65582 0.0
N2100 N 0.37201 0.59613 0.67928 0.0
C2101 C 0.38944 0.58503 0.68585 0.0
C2102 C 0.39533 0.56692 0.67312 0.0
C2103 C 0.80167 0.15284 0.05339 0.0
C2104 C 0.7972 0.14763 0.07497 0.0
C2105 C 0.81683 0.14127 0.04158 0.0
C2106 C 0.82791 0.12411 0.05095 0.0
H2107 H 0.79232 0.1648 0.04504 0.0
H2108 H 0.81849 0.14452 0.02457 0.0
S2109 S 0.82597 0.1072 0.10791 0.0
N2110 N 0.80828 0.12669 0.10615 0.0
N2111 N 0.83613 0.10464 0.0836 0.0
C2112 C 0.82528 0.12021 0.07295 0.0
C2113 C 0.81011 0.1321 0.08507 0.0
C2114 C 0.57093 0.05785 0.80161 0.0
C2115 C 0.58315 0.05184 0.81961 0.0
C2116 C 0.57633 0.07576 0.78913 0.0
C2117 C 0.59425 0.08829 0.79407 0.0
H2118 H 0.55753 0.0482 0.79652 0.0
H2119 H 0.56708 0.07904 0.77483 0.0
S2120 S 0.62956 0.0818 0.84136 0.0
N2121 N 0.61253 0.06175 0.8432 0.0
N2122 N 0.62273 0.09513 0.81954 0.0
C2123 C 0.60577 0.0834 0.81279 0.0
C2124 C 0.60021 0.06527 0.8256 0.0
C2125 C 0.92803 0.93997 0.30243 0.0
C2126 C 0.91636 0.94574 0.32088 0.0
C2127 C 0.92215 0.92231 0.28985 0.0
C2128 C 0.90432 0.90983 0.29515 0.0
H2129 H 0.94128 0.94967 0.29706 0.0
H2130 H 0.93094 0.9192 0.27522 0.0
S2131 S 0.87067 0.91551 0.34373 0.0
N2132 N 0.8878 0.9355 0.34534 0.0
N2133 N 0.87667 0.90259 0.32141 0.0
C2134 C 0.89341 0.91442 0.3143 0.0
C2135 C 0.89946 0.93228 0.32723 0.0
C2136 C 0.45753 0.3149 0.14682 0.0
C2137 C 0.44823 0.32652 0.12995 0.0
C2138 C 0.44559 0.29996 0.15864 0.0
C2139 C 0.42396 0.29628 0.15395 0.0
H2140 H 0.4745 0.31595 0.14965 0.0
H2141 H 0.45381 0.2901 0.1703 0.0
S2142 S 0.39145 0.32665 0.11441 0.0
N2143 N 0.41579 0.33603 0.11126 0.0
N2144 N 0.39301 0.3087 0.13383 0.0
C2145 C 0.41406 0.30976 0.13872 0.0
C2146 C 0.42631 0.32466 0.12656 0.0
C2147 C 0.42846 0.70775 0.89249 0.0
C2148 C 0.41869 0.69888 0.87426 0.0
C2149 C 0.44336 0.6959 0.90438 0.0
C2150 C 0.4488 0.67477 0.89847 0.0
H2151 H 0.42591 0.72445 0.89655 0.0
H2152 H 0.45167 0.70391 0.91733 0.0
S2153 S 0.42371 0.64308 0.85463 0.0
N2154 N 0.41284 0.66709 0.85267 0.0
N2155 N 0.44011 0.64442 0.87527 0.0
C2156 C 0.43723 0.66509 0.88161 0.0
C2157 C 0.42239 0.67728 0.86939 0.0
C2158 C 0.03888 0.68475 0.64435 0.0
C2159 C 0.0485 0.67247 0.62812 0.0
C2160 C 0.05076 0.69969 0.65625 0.0
C2161 C 0.07263 0.70273 0.65228 0.0
H2162 H 0.0218 0.68417 0.64657 0.0
H2163 H 0.04238 0.71 0.66739 0.0
S2164 S 0.10578 0.67074 0.61463 0.0
N2165 N 0.08135 0.66182 0.61083 0.0
N2166 N 0.10394 0.68919 0.63355 0.0
C2167 C 0.08272 0.68871 0.6377 0.0
C2168 C 0.07057 0.67379 0.62547 0.0
C2169 C 0.06839 0.28842 0.3877 0.0
C2170 C 0.07844 0.29759 0.36978 0.0
C2171 C 0.05308 0.29995 0.39935 0.0
C2172 C 0.04747 0.32105 0.39351 0.0
H2173 H 0.07113 0.27173 0.3917 0.0
H2174 H 0.04466 0.29174 0.41211 0.0
S2175 S 0.07295 0.35342 0.35039 0.0
N2176 N 0.08423 0.3296 0.34851 0.0
N2177 N 0.05614 0.35168 0.37066 0.0
C2178 C 0.05919 0.33101 0.37692 0.0
C2179 C 0.07447 0.31914 0.36495 0.0
C2180 C 0.44712 0.6983 0.33894 0.0
C2181 C 0.42514 0.7005 0.34285 0.0
C2182 C 0.45961 0.68423 0.35121 0.0
C2183 C 0.45051 0.672 0.36775 0.0
H2184 H 0.45508 0.70873 0.32759 0.0
H2185 H 0.4767 0.68433 0.349 0.0
S2186 S 0.39337 0.66798 0.38127 0.0
N2187 N 0.3944 0.68599 0.36186 0.0
N2188 N 0.41816 0.66029 0.38531 0.0
C2189 C 0.42841 0.67234 0.37035 0.0
C2190 C 0.41562 0.68635 0.35772 0.0
C2191 C 0.05642 0.66657 0.11919 0.0
C2192 C 0.04763 0.67536 0.10029 0.0
C2193 C 0.07104 0.67804 0.13157 0.0
C2194 C 0.07789 0.69852 0.12534 0.0
H2195 H 0.05093 0.65132 0.12541 0.0
H2196 H 0.07612 0.67132 0.14678 0.0
S2197 S 0.06319 0.72716 0.07536 0.0
N2198 N 0.04931 0.70469 0.07448 0.0
N2199 N 0.07718 0.72605 0.09776 0.0
C2200 C 0.07108 0.70661 0.10544 0.0
C2201 C 0.05585 0.69506 0.0929 0.0
C2202 C 0.05124 0.29825 0.84447 0.0
C2203 C 0.07302 0.29538 0.84904 0.0
C2204 C 0.03891 0.31304 0.85606 0.0
C2205 C 0.04798 0.32534 0.87258 0.0
H2206 H 0.04326 0.28792 0.83305 0.0
H2207 H 0.02192 0.31356 0.85329 0.0
S2208 S 0.10481 0.32754 0.88776 0.0
N2209 N 0.10368 0.30912 0.86874 0.0
N2210 N 0.08021 0.33623 0.89086 0.0
C2211 C 0.06996 0.32419 0.87589 0.0
C2212 C 0.08259 0.30943 0.86397 0.0
C2213 C 0.44115 0.33427 0.61906 0.0
C2214 C 0.45153 0.3251 0.60118 0.0
C2215 C 0.42595 0.32283 0.63073 0.0
C2216 C 0.4201 0.30198 0.62473 0.0
H2217 H 0.44575 0.3499 0.62508 0.0
H2218 H 0.41958 0.32992 0.64526 0.0
S2219 S 0.4393 0.27194 0.57719 0.0
N2220 N 0.45259 0.29478 0.57648 0.0
N2221 N 0.42362 0.27348 0.5984 0.0
C2222 C 0.42859 0.29338 0.60574 0.0
C2223 C 0.4444 0.30491 0.59394 0.0
C2224 C 0.12069 0.45385 0.29932 0.0
C2225 C 0.11295 0.45129 0.32031 0.0
C2226 C 0.12752 0.43608 0.28733 0.0
C2227 C 0.12617 0.41521 0.29584 0.0
H2228 H 0.11979 0.46936 0.29152 0.0
H2229 H 0.13172 0.4385 0.27063 0.0
S2230 S 0.10985 0.4007 0.35116 0.0
N2231 N 0.10678 0.42699 0.35003 0.0
N2232 N 0.11911 0.39343 0.32742 0.0
C2233 C 0.12029 0.4128 0.31748 0.0
C2234 C 0.11373 0.43092 0.32975 0.0
C2235 C 0.33268 0.38537 0.0569 0.0
C2236 C 0.3235 0.40253 0.04538 0.0
C2237 C 0.32071 0.37308 0.07125 0.0
C2238 C 0.29925 0.37776 0.07516 0.0
H2239 H 0.34886 0.38032 0.05376 0.0
H2240 H 0.32796 0.35903 0.07842 0.0
S2241 S 0.26847 0.42303 0.05248 0.0
N2242 N 0.29216 0.42516 0.04122 0.0
N2243 N 0.26987 0.40211 0.06869 0.0
C2244 C 0.2904 0.39609 0.06562 0.0
C2245 C 0.3025 0.40851 0.05065 0.0
C2246 C 0.37428 0.5448 0.79942 0.0
C2247 C 0.38187 0.54697 0.82051 0.0
C2248 C 0.36778 0.56281 0.78759 0.0
C2249 C 0.36933 0.58355 0.79637 0.0
H2250 H 0.37513 0.5294 0.7914 0.0
H2251 H 0.36375 0.56067 0.77081 0.0
S2252 S 0.38526 0.59714 0.85204 0.0
N2253 N 0.388 0.57083 0.85061 0.0
N2254 N 0.37633 0.60483 0.82831 0.0
C2255 C 0.37499 0.5856 0.81811 0.0
C2256 C 0.38119 0.56723 0.83022 0.0
C2257 C 0.17714 0.62114 0.5718 0.0
C2258 C 0.19897 0.61752 0.57451 0.0
C2259 C 0.16525 0.60905 0.55719 0.0
C2260 C 0.17488 0.59321 0.54424 0.0
H2261 H 0.16947 0.63436 0.58002 0.0
H2262 H 0.14872 0.61336 0.55496 0.0
S2263 S 0.23117 0.57549 0.54793 0.0
N2264 N 0.22932 0.5953 0.56544 0.0
N2265 N 0.20718 0.57266 0.5375 0.0
C2266 C 0.19634 0.58808 0.54836 0.0
C2267 C 0.20837 0.60027 0.56359 0.0
C2268 C 0.12818 0.56409 0.20801 0.0
C2269 C 0.12397 0.58521 0.20118 0.0
C2270 C 0.12197 0.54642 0.19547 0.0
C2271 C 0.11185 0.54941 0.17559 0.0
H2272 H 0.13425 0.56113 0.22401 0.0
H2273 H 0.12334 0.53046 0.20222 0.0
S2274 S 0.10085 0.60118 0.14875 0.0
N2275 N 0.11184 0.60793 0.17188 0.0
N2276 N 0.10036 0.57469 0.14842 0.0
C2277 C 0.1097 0.5703 0.16761 0.0
C2278 C 0.11579 0.58824 0.18036 0.0
C2279 C 0.19517 0.40721 0.95089 0.0
C2280 C 0.17343 0.40255 0.95386 0.0
C2281 C 0.20752 0.39553 0.9362 0.0
C2282 C 0.19851 0.37884 0.92411 0.0
H2283 H 0.20311 0.41877 0.9611 0.0
H2284 H 0.22451 0.39835 0.93563 0.0
S2285 S 0.14175 0.36339 0.92217 0.0
N2286 N 0.14283 0.38261 0.94036 0.0
N2287 N 0.16636 0.36027 0.91348 0.0
C2288 C 0.17655 0.37543 0.92532 0.0
C2289 C 0.1639 0.38746 0.93997 0.0
C2290 C 0.37262 0.45554 0.6962 0.0
C2291 C 0.38168 0.4531 0.67573 0.0
C2292 C 0.36604 0.43761 0.70811 0.0
C2293 C 0.36891 0.4167 0.70007 0.0
H2294 H 0.3724 0.47117 0.7038 0.0
H2295 H 0.36084 0.44005 0.72451 0.0
S2296 S 0.38899 0.40226 0.64597 0.0
N2297 N 0.39069 0.42869 0.64684 0.0
N2298 N 0.37869 0.39489 0.66924 0.0
C2299 C 0.37601 0.41431 0.67878 0.0
C2300 C 0.38237 0.43257 0.6666 0.0
C2301 C 0.30354 0.59052 0.44931 0.0
C2302 C 0.32539 0.59484 0.45195 0.0
C2303 C 0.29136 0.60177 0.43411 0.0
C2304 C 0.30066 0.61767 0.42118 0.0
H2305 H 0.2954 0.57971 0.46016 0.0
H2306 H 0.27431 0.59935 0.43382 0.0
S2307 S 0.35776 0.63164 0.4182 0.0
N2308 N 0.35635 0.61335 0.43731 0.0
N2309 N 0.33318 0.63489 0.40948 0.0
C2310 C 0.32271 0.62057 0.42209 0.0
C2311 C 0.33517 0.60898 0.43725 0.0
C2312 C 0.32128 0.11442 0.43173 0.0
C2313 C 0.32727 0.1202 0.45261 0.0
C2314 C 0.3068 0.12681 0.42012 0.0
C2315 C 0.29724 0.14519 0.42918 0.0
H2316 H 0.32704 0.0996 0.42472 0.0
H2317 H 0.30209 0.12099 0.40444 0.0
S2318 S 0.31003 0.16855 0.4825 0.0
N2319 N 0.32473 0.14664 0.48112 0.0
N2320 N 0.29699 0.16988 0.45952 0.0
C2321 C 0.30445 0.15206 0.44948 0.0
C2322 C 0.31957 0.13954 0.46116 0.0
C2323 C 0.81992 0.35571 0.54127 0.0
C2324 C 0.83081 0.37305 0.55057 0.0
C2325 C 0.80432 0.34454 0.55286 0.0
C2326 C 0.79926 0.35036 0.57412 0.0
H2327 H 0.82208 0.35201 0.52441 0.0
H2328 H 0.79512 0.33244 0.54454 0.0
S2329 S 0.82723 0.39145 0.60693 0.0
N2330 N 0.83816 0.39334 0.58291 0.0
N2331 N 0.80952 0.372 0.60511 0.0
C2332 C 0.81196 0.36605 0.58425 0.0
C2333 C 0.82755 0.37754 0.57234 0.0
C2334 C 0.36803 0.06593 0.3382 0.0
C2335 C 0.37544 0.04487 0.33495 0.0
C2336 C 0.36226 0.07897 0.32083 0.0
C2337 C 0.36375 0.07141 0.29966 0.0
H2338 H 0.36503 0.07175 0.35431 0.0
H2339 H 0.35473 0.09427 0.32408 0.0
S2340 S 0.38459 0.01869 0.28226 0.0
N2341 N 0.38616 0.01802 0.30874 0.0
N2342 N 0.37499 0.04259 0.27614 0.0
C2343 C 0.37297 0.05125 0.29605 0.0
C2344 C 0.37899 0.03797 0.31373 0.0
C2345 C 0.67599 0.61968 0.0704 0.0
C2346 C 0.67062 0.62475 0.04915 0.0
C2347 C 0.69099 0.6318 0.08166 0.0
C2348 C 0.70167 0.64916 0.07191 0.0
H2349 H 0.66943 0.6055 0.07797 0.0
H2350 H 0.69521 0.62648 0.09766 0.0
S2351 S 0.69076 0.67068 0.01737 0.0
N2352 N 0.67491 0.64968 0.01954 0.0
N2353 N 0.70354 0.6724 0.04048 0.0
C2354 C 0.69501 0.65551 0.05124 0.0
C2355 C 0.67939 0.64328 0.03989 0.0
C2356 C 0.62298 0.46108 0.31203 0.0
C2357 C 0.62464 0.45315 0.33313 0.0
C2358 C 0.62961 0.44864 0.29447 0.0
C2359 C 0.63751 0.42778 0.29748 0.0
H2360 H 0.61865 0.47766 0.30923 0.0
H2361 H 0.63023 0.456 0.27872 0.0
S2362 S 0.64162 0.39842 0.34893 0.0
N2363 N 0.63222 0.42224 0.35567 0.0
N2364 N 0.6443 0.39885 0.32255 0.0
C2365 C 0.63711 0.41893 0.31814 0.0
C2366 C 0.6307 0.43163 0.33603 0.0
C2367 C 0.18023 0.86013 0.95743 0.0
C2368 C 0.17034 0.87813 0.94825 0.0
C2369 C 0.19532 0.84825 0.94583 0.0
C2370 C 0.20086 0.85394 0.92464 0.0
H2371 H 0.17761 0.85629 0.97419 0.0
H2372 H 0.20371 0.83551 0.95407 0.0
S2373 S 0.17561 0.89713 0.89222 0.0
N2374 N 0.16454 0.89926 0.91614 0.0
N2375 N 0.19216 0.87667 0.89391 0.0
C2376 C 0.18918 0.87054 0.91465 0.0
C2377 C 0.17414 0.88275 0.9266 0.0
C2378 C 0.37051 0.94746 0.20518 0.0
C2379 C 0.36302 0.92646 0.20219 0.0
C2380 C 0.37685 0.96001 0.18761 0.0
C2381 C 0.37529 0.95205 0.16652 0.0
H2382 H 0.36972 0.95483 0.22092 0.0
H2383 H 0.38086 0.97668 0.1904 0.0
S2384 S 0.35975 0.89688 0.15082 0.0
N2385 N 0.357 0.89729 0.17719 0.0
N2386 N 0.36844 0.92095 0.144 0.0
C2387 C 0.36969 0.93041 0.16362 0.0
C2388 C 0.36362 0.91758 0.18154 0.0
C2389 C 0.14309 0.08183 0.67805 0.0
C2390 C 0.13858 0.07664 0.69949 0.0
C2391 C 0.13614 0.06872 0.66126 0.0
C2392 C 0.12469 0.04972 0.66532 0.0
H2393 H 0.15349 0.0952 0.67436 0.0
H2394 H 0.14119 0.07265 0.64509 0.0
S2395 S 0.10641 0.03083 0.71874 0.0
N2396 N 0.12002 0.0529 0.72395 0.0
N2397 N 0.10692 0.02794 0.69237 0.0
C2398 C 0.1183 0.04553 0.6866 0.0
C2399 C 0.12535 0.05905 0.70373 0.0
C2400 C 0.06089 0.10135 0.43443 0.0
C2401 C 0.04773 0.11949 0.43613 0.0
C2402 C 0.07771 0.09805 0.4486 0.0
C2403 C 0.08232 0.11289 0.46491 0.0
H2404 H 0.05799 0.08927 0.42228 0.0
H2405 H 0.08714 0.08362 0.44678 0.0
S2406 S 0.05344 0.16355 0.47577 0.0
N2407 N 0.04077 0.15287 0.45513 0.0
N2408 N 0.07291 0.14678 0.48169 0.0
C2409 C 0.06977 0.13145 0.46652 0.0
C2410 C 0.0523 0.1347 0.45218 0.0
C2411 C 0.15191 0.83037 0.69792 0.0
C2412 C 0.13786 0.83619 0.71446 0.0
C2413 C 0.14822 0.81229 0.68522 0.0
C2414 C 0.13048 0.79901 0.68869 0.0
H2415 H 0.16604 0.8398 0.69479 0.0
H2416 H 0.1597 0.80853 0.67281 0.0
S2417 S 0.08849 0.8075 0.72969 0.0
N2418 N 0.10511 0.82769 0.73334 0.0
N2419 N 0.09833 0.79326 0.70965 0.0
C2420 C 0.11607 0.80477 0.705 0.0
C2421 C 0.11969 0.8235 0.7178 0.0
C2422 C 0.42192 0.90136 0.94912 0.0
C2423 C 0.41688 0.88706 0.96578 0.0
C2424 C 0.43897 0.89748 0.93536 0.0
C2425 C 0.45194 0.8793 0.93785 0.0
H2426 H 0.41266 0.91581 0.94669 0.0
H2427 H 0.4422 0.90917 0.92291 0.0
S2428 S 0.44511 0.83647 0.97863 0.0
N2429 N 0.42569 0.85359 0.9837 0.0
N2430 N 0.45824 0.84643 0.95793 0.0
C2431 C 0.44694 0.86462 0.95424 0.0
C2432 C 0.42925 0.86844 0.96816 0.0
C2433 C 0.35145 0.1835 0.18317 0.0
C2434 C 0.36847 0.19745 0.18762 0.0
C2435 C 0.34764 0.16539 0.19579 0.0
C2436 C 0.36088 0.16019 0.21317 0.0
H2437 H 0.34053 0.18684 0.17015 0.0
H2438 H 0.33392 0.15554 0.19208 0.0
S2439 S 0.40839 0.19052 0.23095 0.0
N2440 N 0.39926 0.20432 0.21026 0.0
N2441 N 0.39225 0.1698 0.23378 0.0
C2442 C 0.37849 0.1734 0.21736 0.0
C2443 C 0.38222 0.19218 0.20466 0.0
C2444 C 0.05925 0.89771 0.06273 0.0
C2445 C 0.04583 0.87995 0.05966 0.0
C2446 C 0.0766 0.90141 0.04933 0.0
C2447 C 0.08149 0.88736 0.03243 0.0
H2448 H 0.05619 0.9092 0.07541 0.0
H2449 H 0.08621 0.91554 0.05223 0.0
S2450 S 0.05201 0.83796 0.0179 0.0
N2451 N 0.03887 0.84778 0.03867 0.0
N2452 N 0.07198 0.85462 0.01353 0.0
C2453 C 0.06864 0.86917 0.0294 0.0
C2454 C 0.05064 0.86553 0.04297 0.0
C2455 C 0.34958 0.81144 0.31529 0.0
C2456 C 0.36685 0.79789 0.31062 0.0
C2457 C 0.34577 0.82997 0.30332 0.0
C2458 C 0.35924 0.83597 0.28638 0.0
H2459 H 0.33849 0.80746 0.32798 0.0
H2460 H 0.33188 0.83952 0.30717 0.0
S2461 S 0.40746 0.80696 0.26833 0.0
N2462 N 0.39813 0.79227 0.2883 0.0
N2463 N 0.39109 0.82755 0.26599 0.0
C2464 C 0.37709 0.82316 0.282 0.0
C2465 C 0.38084 0.80397 0.29404 0.0
C2466 C 0.42416 0.09815 0.55065 0.0
C2467 C 0.41821 0.1122 0.5341 0.0
C2468 C 0.44118 0.10282 0.56416 0.0
C2469 C 0.45323 0.12163 0.56156 0.0
H2470 H 0.41558 0.0833 0.55327 0.0
H2471 H 0.44509 0.09131 0.57658 0.0
S2472 S 0.4439 0.16411 0.52096 0.0
N2473 N 0.42526 0.14609 0.51609 0.0
N2474 N 0.45777 0.15475 0.54144 0.0
C2475 C 0.44741 0.13602 0.5452 0.0
C2476 C 0.42973 0.13137 0.53152 0.0
C2477 C 0.15339 0.16732 0.80656 0.0
C2478 C 0.13981 0.16141 0.78967 0.0
C2479 C 0.14907 0.18518 0.81937 0.0
C2480 C 0.13117 0.19816 0.81562 0.0
H2481 H 0.16774 0.15825 0.80973 0.0
H2482 H 0.16028 0.18914 0.83197 0.0
S2483 S 0.09 0.18901 0.77392 0.0
N2484 N 0.10716 0.16926 0.77036 0.0
N2485 N 0.09918 0.20329 0.79425 0.0
C2486 C 0.11709 0.19215 0.7991 0.0
C2487 C 0.12135 0.17363 0.78621 0.0
C2488 C 0.45167 0.07738 0.10102 0.0
C2489 C 0.46541 0.08394 0.11757 0.0
C2490 C 0.43613 0.06182 0.10447 0.0
C2491 C 0.43367 0.05189 0.12458 0.0
H2492 H 0.45279 0.08437 0.08514 0.0
H2493 H 0.42609 0.05739 0.09104 0.0
S2494 S 0.46527 0.06351 0.17352 0.0
N2495 N 0.47534 0.07962 0.15507 0.0
N2496 N 0.44608 0.04995 0.16152 0.0
C2497 C 0.4472 0.05828 0.14141 0.0
C2498 C 0.46303 0.07443 0.13792 0.0
C2499 C 0.19055 0.18393 0.35337 0.0
C2500 C 0.2034 0.1867 0.37162 0.0
C2501 C 0.17356 0.19762 0.34914 0.0
C2502 C 0.16845 0.2145 0.36312 0.0
H2503 H 0.19382 0.1713 0.34189 0.0
H2504 H 0.16439 0.19495 0.33465 0.0
S2505 S 0.19635 0.2282 0.41373 0.0
N2506 N 0.20951 0.20732 0.40422 0.0
N2507 N 0.17705 0.23299 0.39637 0.0
C2508 C 0.18068 0.21719 0.38181 0.0
C2509 C 0.19832 0.20333 0.38601 0.0
C2510 C 0.03735 0.92263 0.63844 0.0
C2511 C 0.02738 0.9203 0.6183 0.0
C2512 C 0.05139 0.9398 0.6424 0.0
C2513 C 0.05574 0.95501 0.62633 0.0
H2514 H 0.0351 0.91062 0.65079 0.0
H2515 H 0.05974 0.94049 0.6576 0.0
S2516 S 0.03111 0.95819 0.57241 0.0
N2517 N 0.02088 0.93635 0.58325 0.0
N2518 N 0.04734 0.96814 0.59068 0.0
C2519 C 0.04484 0.9536 0.60677 0.0
C2520 C 0.03061 0.93636 0.60276 0.0
C2521 C 0.31581 0.78054 0.87988 0.0
C2522 C 0.33284 0.78593 0.86634 0.0
C2523 C 0.29869 0.79477 0.88273 0.0
C2524 C 0.2983 0.81479 0.87226 0.0
H2525 H 0.31519 0.76488 0.88739 0.0
H2526 H 0.2854 0.78973 0.89257 0.0
S2527 S 0.3412 0.83747 0.83804 0.0
N2528 N 0.34957 0.8132 0.84433 0.0
N2529 N 0.31793 0.84015 0.84998 0.0
C2530 C 0.31608 0.8208 0.85988 0.0
C2531 C 0.33323 0.80628 0.85684 0.0
C2532 C 0.45008 0.91858 0.40206 0.0
C2533 C 0.46333 0.91124 0.38543 0.0
C2534 C 0.43523 0.93484 0.39862 0.0
C2535 C 0.43303 0.9447 0.37845 0.0
H2536 H 0.45103 0.91165 0.41798 0.0
H2537 H 0.42548 0.93981 0.41208 0.0
S2538 S 0.46366 0.93135 0.32934 0.0
N2539 N 0.47316 0.91493 0.34782 0.0
N2540 N 0.4452 0.94585 0.34141 0.0
C2541 C 0.44614 0.93762 0.36158 0.0
C2542 C 0.46126 0.92079 0.36505 0.0
C2543 C 0.29824 0.20818 0.61508 0.0
C2544 C 0.29784 0.18799 0.62522 0.0
C2545 C 0.31563 0.22209 0.61773 0.0
C2546 C 0.33293 0.21615 0.63066 0.0
H2547 H 0.2847 0.21365 0.60583 0.0
H2548 H 0.31498 0.23796 0.61067 0.0
S2549 S 0.34141 0.16385 0.65745 0.0
N2550 N 0.31776 0.16177 0.64617 0.0
N2551 N 0.34994 0.18816 0.6515 0.0
C2552 C 0.33335 0.19558 0.63963 0.0
C2553 C 0.31591 0.18139 0.6368 0.0
C2554 C 0.04869 0.05751 0.86313 0.0
C2555 C 0.06708 0.05655 0.87605 0.0
C2556 C 0.03297 0.0732 0.86668 0.0
C2557 C 0.0351 0.08818 0.8834 0.0
H2558 H 0.04611 0.04572 0.85063 0.0
H2559 H 0.01875 0.07306 0.85688 0.0
S2560 S 0.08141 0.09465 0.91964 0.0
N2561 N 0.08738 0.07368 0.90464 0.0
N2562 N 0.05778 0.10264 0.91141 0.0
C2563 C 0.0538 0.08805 0.89567 0.0
C2564 C 0.06982 0.07237 0.89196 0.0
C2565 C 0.1877 0.81403 0.14455 0.0
C2566 C 0.20155 0.81095 0.1271 0.0
C2567 C 0.17087 0.80004 0.14843 0.0
C2568 C 0.16693 0.78249 0.13488 0.0
H2569 H 0.19005 0.82716 0.15569 0.0
H2570 H 0.16091 0.80299 0.16231 0.0
S2571 S 0.19771 0.76774 0.08632 0.0
N2572 N 0.20983 0.78933 0.09565 0.0
N2573 N 0.17768 0.76305 0.10284 0.0
C2574 C 0.18015 0.77948 0.11694 0.0
C2575 C 0.19762 0.79368 0.1131 0.0
C2576 C 0.09852 0.43171 0.06493 0.0
C2577 C 0.11583 0.43593 0.05128 0.0
C2578 C 0.09479 0.44412 0.08321 0.0
C2579 C 0.10839 0.46106 0.08886 0.0
H2580 H 0.08734 0.41902 0.06123 0.0
H2581 H 0.08087 0.44058 0.09284 0.0
S2582 S 0.15671 0.47809 0.05939 0.0
N2583 N 0.14724 0.45788 0.04514 0.0
N2584 N 0.14037 0.48102 0.07995 0.0
C2585 C 0.12625 0.46503 0.07591 0.0
C2586 C 0.12991 0.45254 0.05698 0.0
C2587 C 0.59524 0.05427 0.91711 0.0
C2588 C 0.60932 0.03791 0.91093 0.0
C2589 C 0.599 0.0667 0.93538 0.0
C2590 C 0.61684 0.0631 0.94849 0.0
H2591 H 0.58093 0.05733 0.90791 0.0
H2592 H 0.58743 0.0789 0.93951 0.0
S2593 S 0.6592 0.0228 0.93876 0.0
N2594 N 0.64238 0.01931 0.9187 0.0
N2595 N 0.64932 0.04247 0.95346 0.0
C2596 C 0.63142 0.04714 0.94222 0.0
C2597 C 0.62772 0.03463 0.9233 0.0
C2598 C 0.19511 0.38668 0.1867 0.0
C2599 C 0.18571 0.36973 0.19818 0.0
C2600 C 0.21037 0.38261 0.17064 0.0
C2601 C 0.21683 0.3615 0.1658 0.0
H2602 H 0.19016 0.40306 0.18965 0.0
H2603 H 0.21677 0.39603 0.16169 0.0
S2604 S 0.19889 0.31191 0.1936 0.0
N2605 N 0.18525 0.33138 0.20504 0.0
N2606 N 0.21389 0.32371 0.17538 0.0
C2607 C 0.20819 0.34459 0.178 0.0
C2608 C 0.19263 0.34872 0.19406 0.0
C2609 C 0.87108 0.95384 0.44486 0.0
C2610 C 0.88171 0.93412 0.4476 0.0
C2611 C 0.87449 0.9665 0.42648 0.0
C2612 C 0.88875 0.95986 0.41044 0.0
H2613 H 0.86062 0.95987 0.45728 0.0
H2614 H 0.86684 0.98202 0.42537 0.0
S2615 S 0.9181 0.90844 0.4082 0.0
N2616 N 0.90521 0.90763 0.43127 0.0
N2617 N 0.9118 0.93166 0.39721 0.0
C2618 C 0.8985 0.93976 0.41239 0.0
C2619 C 0.89492 0.9268 0.43086 0.0
C2620 C 0.80381 0.10849 0.18721 0.0
C2621 C 0.80979 0.12474 0.20165 0.0
C2622 C 0.78888 0.11261 0.17087 0.0
C2623 C 0.7795 0.13303 0.16866 0.0
H2624 H 0.81143 0.09292 0.18792 0.0
H2625 H 0.78531 0.10002 0.15943 0.0
S2626 S 0.78768 0.17973 0.20478 0.0
N2627 N 0.80377 0.16107 0.21419 0.0
N2628 N 0.77563 0.16877 0.18397 0.0
C2629 C 0.78453 0.14889 0.18392 0.0
C2630 C 0.79972 0.14474 0.20029 0.0
C2631 C 0.37012 0.54876 0.55588 0.0
C2632 C 0.38389 0.56576 0.55053 0.0
C2633 C 0.37371 0.53607 0.57423 0.0
C2634 C 0.39136 0.53979 0.58758 0.0
H2635 H 0.35662 0.54509 0.54574 0.0
H2636 H 0.36305 0.52284 0.57754 0.0
S2637 S 0.43134 0.58313 0.58158 0.0
N2638 N 0.41522 0.58626 0.56093 0.0
N2639 N 0.42196 0.56238 0.595 0.0
C2640 C 0.40484 0.55709 0.58275 0.0
C2641 C 0.40111 0.57009 0.56433 0.0
C2642 C 0.21546 0.61473 0.31998 0.0
C2643 C 0.21226 0.62956 0.33667 0.0
C2644 C 0.20006 0.61198 0.3038 0.0
C2645 C 0.18102 0.6239 0.30401 0.0
H2646 H 0.23029 0.60597 0.3189 0.0
H2647 H 0.20343 0.60108 0.29069 0.0
S2648 S 0.16382 0.66185 0.34665 0.0
N2649 N 0.1879 0.65429 0.35393 0.0
N2650 N 0.15887 0.64896 0.32405 0.0
C2651 C 0.17719 0.63767 0.32152 0.0
C2652 C 0.19286 0.64055 0.33772 0.0
C2653 C 0.29456 0.34883 0.82631 0.0
C2654 C 0.28121 0.36525 0.83388 0.0
C2655 C 0.30921 0.3525 0.80993 0.0
C2656 C 0.31114 0.37273 0.80015 0.0
H2657 H 0.29387 0.33289 0.83318 0.0
H2658 H 0.31905 0.33918 0.80483 0.0
S2659 S 0.27998 0.42134 0.81395 0.0
N2660 N 0.27087 0.40271 0.83042 0.0
N2661 N 0.29847 0.40958 0.79922 0.0
C2662 C 0.29787 0.38939 0.80741 0.0
C2663 C 0.28293 0.38568 0.82438 0.0
C2664 C 0.93015 0.87018 0.53301 0.0
C2665 C 0.91567 0.88711 0.5358 0.0
C2666 C 0.94694 0.86705 0.54761 0.0
C2667 C 0.94948 0.88051 0.56561 0.0
H2668 H 0.92896 0.85983 0.5191 0.0
H2669 H 0.95813 0.8542 0.54459 0.0
S2670 S 0.91404 0.92562 0.58113 0.0
N2671 N 0.90389 0.91644 0.55851 0.0
N2672 N 0.93496 0.91044 0.58607 0.0
C2673 C 0.9344 0.89685 0.56899 0.0
C2674 C 0.91761 0.90019 0.55404 0.0
C2675 C 0.87729 0.19808 0.29263 0.0
C2676 C 0.86344 0.20023 0.31024 0.0
C2677 C 0.87527 0.18095 0.27817 0.0
C2678 C 0.85913 0.16554 0.28064 0.0
H2679 H 0.8898 0.20971 0.28994 0.0
H2680 H 0.88615 0.18005 0.26472 0.0
S2681 S 0.81931 0.1633 0.32455 0.0
N2682 N 0.83347 0.18498 0.32972 0.0
N2683 N 0.82958 0.15301 0.30245 0.0
C2684 C 0.84538 0.16731 0.29833 0.0
C2685 C 0.84756 0.1846 0.31316 0.0
C2686 C 0.55319 0.13174 0.04908 0.0
C2687 C 0.54959 0.11743 0.06621 0.0
C2688 C 0.56991 0.12843 0.03447 0.0
C2689 C 0.58332 0.1105 0.03631 0.0
H2690 H 0.54289 0.14547 0.04679 0.0
H2691 H 0.57191 0.13958 0.02128 0.0
S2692 S 0.58191 0.06928 0.07924 0.0
N2693 N 0.56191 0.08543 0.08488 0.0
N2694 N 0.59294 0.07914 0.05733 0.0
C2695 C 0.58031 0.09647 0.05369 0.0
C2696 C 0.56355 0.09996 0.06868 0.0
C2697 C 0.64695 0.80912 0.80633 0.0
C2698 C 0.62912 0.79555 0.80505 0.0
C2699 C 0.64973 0.82612 0.79193 0.0
C2700 C 0.63464 0.83041 0.77588 0.0
H2701 H 0.65906 0.80649 0.81841 0.0
H2702 H 0.66382 0.836 0.79347 0.0
S2703 S 0.58494 0.79994 0.76579 0.0
N2704 N 0.59607 0.78762 0.78638 0.0
N2705 N 0.60108 0.81986 0.75957 0.0
C2706 C 0.61657 0.81718 0.77455 0.0
C2707 C 0.61388 0.79965 0.78905 0.0
C2708 C 0.9276 0.12787 0.96672 0.0
C2709 C 0.91386 0.11035 0.96372 0.0
C2710 C 0.94479 0.13143 0.95274 0.0
C2711 C 0.94858 0.11779 0.93511 0.0
H2712 H 0.92549 0.13846 0.98035 0.0
H2713 H 0.95531 0.14481 0.95593 0.0
S2714 S 0.9156 0.071 0.91908 0.0
N2715 N 0.90418 0.08016 0.9411 0.0
N2716 N 0.93611 0.08692 0.91471 0.0
C2717 C 0.93432 0.10076 0.93148 0.0
C2718 C 0.91706 0.09702 0.94583 0.0
C2719 C 0.61953 0.18353 0.72184 0.0
C2720 C 0.63619 0.16866 0.71959 0.0
C2721 C 0.61751 0.20095 0.70771 0.0
C2722 C 0.63191 0.20393 0.69068 0.0
H2723 H 0.60828 0.18203 0.73492 0.0
H2724 H 0.60464 0.21221 0.71027 0.0
S2725 S 0.67732 0.16838 0.67689 0.0
N2726 N 0.66666 0.15735 0.69843 0.0
N2727 N 0.6628 0.18983 0.67179 0.0
C2728 C 0.64824 0.18874 0.68789 0.0
C2729 C 0.6504 0.17117 0.70237 0.0
C2730 C 0.55803 0.89543 0.43539 0.0
C2731 C 0.5463 0.87629 0.43677 0.0
C2732 C 0.57483 0.89966 0.44942 0.0
C2733 C 0.5809 0.88478 0.46523 0.0
H2734 H 0.55395 0.90757 0.42364 0.0
H2735 H 0.5831 0.91483 0.44788 0.0
S2736 S 0.55624 0.83165 0.47489 0.0
N2737 N 0.54237 0.84193 0.45485 0.0
N2738 N 0.57445 0.84974 0.48102 0.0
C2739 C 0.56983 0.86524 0.46643 0.0
C2740 C 0.55237 0.86106 0.45229 0.0
C2741 C 0.84755 0.82513 0.20633 0.0
C2742 C 0.8625 0.82873 0.22269 0.0
C2743 C 0.85022 0.80844 0.19152 0.0
C2744 C 0.86777 0.79448 0.19269 0.0
H2745 H 0.8337 0.83535 0.20484 0.0
H2746 H 0.83826 0.80636 0.17918 0.0
S2747 S 0.91139 0.79695 0.23277 0.0
N2748 N 0.89556 0.81705 0.23924 0.0
N2749 N 0.90033 0.7854 0.21171 0.0
C2750 C 0.88281 0.79786 0.20905 0.0
C2751 C 0.88026 0.81507 0.22396 0.0
C2752 C 0.54013 0.94944 0.86567 0.0
C2753 C 0.55774 0.95385 0.87893 0.0
C2754 C 0.52774 0.93094 0.86877 0.0
C2755 C 0.53241 0.91648 0.88542 0.0
H2756 H 0.53576 0.96044 0.85295 0.0
H2757 H 0.51401 0.92834 0.85859 0.0
S2758 S 0.5777 0.91961 0.92342 0.0
N2759 N 0.5799 0.94133 0.90847 0.0
N2760 N 0.55652 0.90692 0.91434 0.0
C2761 C 0.5503 0.92036 0.89832 0.0
C2762 C 0.563 0.93896 0.89507 0.0
C2763 C 0.82566 0.79941 0.6526 0.0
C2764 C 0.83158 0.78401 0.63722 0.0
C2765 C 0.80884 0.8136 0.64888 0.0
C2766 C 0.79694 0.81275 0.62979 0.0
H2767 H 0.83413 0.80058 0.6677 0.0
H2768 H 0.80494 0.8251 0.66131 0.0
S2769 S 0.80607 0.77547 0.58423 0.0
N2770 N 0.82452 0.76896 0.60194 0.0
N2771 N 0.79244 0.79533 0.59513 0.0
C2772 C 0.80271 0.79748 0.61419 0.0
C2773 C 0.82016 0.78322 0.61784 0.0
C2774 C 0.96149 0.04634 0.36646 0.0
C2775 C 0.9426 0.04379 0.37836 0.0
C2776 C 0.97403 0.06486 0.36862 0.0
C2777 C 0.96813 0.08123 0.3829 0.0
H2778 H 0.96686 0.0338 0.35572 0.0
H2779 H 0.98882 0.06596 0.35978 0.0
S2780 S 0.91907 0.08373 0.41574 0.0
N2781 N 0.91777 0.06032 0.40345 0.0
N2782 N 0.94149 0.09479 0.4076 0.0
C2783 C 0.9489 0.07932 0.39414 0.0
C2784 C 0.93608 0.06067 0.39185 0.0
C2785 C 0.67139 0.19847 0.15222 0.0
C2786 C 0.66623 0.21474 0.13751 0.0
C2787 C 0.68799 0.18414 0.14822 0.0
C2788 C 0.70041 0.18571 0.12952 0.0
H2789 H 0.66256 0.19677 0.16706 0.0
H2790 H 0.69139 0.17203 0.16021 0.0
S2791 S 0.69292 0.22507 0.08547 0.0
N2792 N 0.67422 0.23119 0.10308 0.0
N2793 N 0.70596 0.20448 0.09574 0.0
C2794 C 0.69524 0.20171 0.11446 0.0
C2795 C 0.67798 0.21614 0.11839 0.0
C2796 C 0.56078 0.0617 0.60431 0.0
C2797 C 0.55596 0.04746 0.62113 0.0
C2798 C 0.54902 0.08043 0.6012 0.0
C2799 C 0.5322 0.08589 0.61498 0.0
H2800 H 0.57347 0.05818 0.5931 0.0
H2801 H 0.55301 0.0906 0.58768 0.0
S2802 S 0.5137 0.05481 0.66211 0.0
N2803 N 0.53347 0.04048 0.65218 0.0
N2804 N 0.51167 0.07614 0.64653 0.0
C2805 C 0.52762 0.0723 0.63233 0.0
C2806 C 0.5394 0.05293 0.63533 0.0
C2807 C 0.67881 0.78505 0.37837 0.0
C2808 C 0.66659 0.78658 0.35953 0.0
C2809 C 0.69564 0.79938 0.3823 0.0
C2810 C 0.70052 0.81593 0.36771 0.0
H2811 H 0.67578 0.77234 0.38982 0.0
H2812 H 0.70496 0.79738 0.39679 0.0
S2813 S 0.6719 0.82784 0.31691 0.0
N2814 N 0.65966 0.80664 0.3268 0.0
N2815 N 0.6909 0.8336 0.33423 0.0
C2816 C 0.68783 0.81805 0.34922 0.0
C2817 C 0.67097 0.80336 0.34512 0.0
C2818 C 0.97092 0.93089 0.12993 0.0
C2819 C 0.96549 0.91546 0.11444 0.0
C2820 C 0.95808 0.94908 0.13314 0.0
C2821 C 0.93934 0.95217 0.12113 0.0
H2822 H 0.98558 0.92938 0.13893 0.0
H2823 H 0.96308 0.96095 0.14479 0.0
S2824 S 0.91705 0.91464 0.08057 0.0
N2825 N 0.93947 0.90333 0.08837 0.0
N2826 N 0.91521 0.93708 0.09448 0.0
C2827 C 0.9333 0.93615 0.1064 0.0
C2828 C 0.94642 0.91789 0.10304 0.0
C2829 C 0.81755 0.21728 0.88045 0.0
C2830 C 0.83198 0.21411 0.86353 0.0
C2831 C 0.80043 0.20312 0.88363 0.0
C2832 C 0.79744 0.18517 0.87019 0.0
H2833 H 0.819 0.23121 0.89074 0.0
H2834 H 0.78928 0.20647 0.89645 0.0
S2835 S 0.83267 0.16856 0.82526 0.0
N2836 N 0.84331 0.19097 0.83434 0.0
N2837 N 0.81159 0.16421 0.84042 0.0
C2838 C 0.8125 0.18133 0.85391 0.0
C2839 C 0.82966 0.19585 0.85055 0.0
C2840 C 0.86712 0.54425 0.94687 0.0
C2841 C 0.88151 0.56129 0.94966 0.0
C2842 C 0.8697 0.52941 0.93016 0.0
C2843 C 0.88692 0.53091 0.91583 0.0
H2844 H 0.85381 0.54226 0.95772 0.0
H2845 H 0.85837 0.5164 0.92877 0.0
S2846 S 0.92847 0.57314 0.91547 0.0
N2847 N 0.91313 0.57929 0.93607 0.0
N2848 N 0.91805 0.55126 0.9049 0.0
C2849 C 0.9012 0.54807 0.91819 0.0
C2850 C 0.89846 0.56331 0.93504 0.0
C2851 C 0.36801 0.9584 0.05065 0.0
C2852 C 0.38237 0.94136 0.04765 0.0
C2853 C 0.37024 0.97264 0.06794 0.0
C2854 C 0.38706 0.97051 0.08266 0.0
H2855 H 0.35501 0.96086 0.03953 0.0
H2856 H 0.35897 0.98569 0.06949 0.0
S2857 S 0.42822 0.9279 0.08276 0.0
N2858 N 0.41345 0.92262 0.06151 0.0
N2859 N 0.41769 0.94951 0.09377 0.0
C2860 C 0.40127 0.95332 0.0801 0.0
C2861 C 0.3989 0.93871 0.06266 0.0
C2862 C 0.79572 0.64725 0.82494 0.0
C2863 C 0.77905 0.6334 0.83063 0.0
C2864 C 0.8078 0.64372 0.80648 0.0
C2865 C 0.80347 0.6264 0.7927 0.0
H2866 H 0.79941 0.6611 0.83478 0.0
H2867 H 0.8204 0.65499 0.8028 0.0
S2868 S 0.76155 0.58522 0.80062 0.0
N2869 N 0.75901 0.60138 0.82149 0.0
N2870 N 0.78142 0.59495 0.78628 0.0
C2871 C 0.78694 0.61223 0.79832 0.0
C2872 C 0.77484 0.61564 0.81744 0.0
C2873 C 0.12782 0.04286 0.55136 0.0
C2874 C 0.11495 0.06112 0.54872 0.0
C2875 C 0.12458 0.02869 0.56853 0.0
C2876 C 0.10822 0.03215 0.58352 0.0
H2877 H 0.14036 0.03933 0.53997 0.0
H2878 H 0.13466 0.01465 0.56975 0.0
S2879 S 0.07118 0.07842 0.58485 0.0
N2880 N 0.086 0.08255 0.56338 0.0
N2881 N 0.07984 0.05579 0.59542 0.0
C2882 C 0.0956 0.05062 0.58141 0.0
C2883 C 0.099 0.06514 0.56407 0.0
C2884 C 0.20151 0.85188 0.82666 0.0
C2885 C 0.2177 0.86646 0.83197 0.0
C2886 C 0.18844 0.85521 0.80888 0.0
C2887 C 0.1912 0.8731 0.79544 0.0
H2888 H 0.19891 0.83765 0.83629 0.0
H2889 H 0.17629 0.84337 0.80547 0.0
S2890 S 0.23093 0.91649 0.80276 0.0
N2891 N 0.23542 0.89989 0.82293 0.0
N2892 N 0.21103 0.906 0.78901 0.0
C2893 C 0.20714 0.88804 0.8007 0.0
C2894 C 0.22032 0.88479 0.81913 0.0
C2895 C 0.62894 0.47142 0.43145 0.0
C2896 C 0.61182 0.47022 0.41698 0.0
C2897 C 0.63069 0.45701 0.44865 0.0
C2898 C 0.61552 0.44073 0.45183 0.0
H2899 H 0.64085 0.48385 0.42977 0.0
H2900 H 0.644 0.45871 0.45954 0.0
S2901 S 0.56836 0.42997 0.41759 0.0
N2902 N 0.57987 0.45096 0.40642 0.0
N2903 N 0.58321 0.4238 0.43854 0.0
C2904 C 0.5986 0.43905 0.43713 0.0
C2905 C 0.59674 0.45382 0.41976 0.0
C2906 C 0.77679 0.38221 0.68082 0.0
C2907 C 0.78305 0.36804 0.6645 0.0
C2908 C 0.78938 0.38491 0.69926 0.0
C2909 C 0.80865 0.37365 0.70176 0.0
H2910 H 0.76163 0.3904 0.67984 0.0
H2911 H 0.78366 0.39537 0.71188 0.0
S2912 S 0.83337 0.33732 0.66158 0.0
N2913 N 0.81051 0.34445 0.65072 0.0
N2914 N 0.8344 0.34972 0.68498 0.0
C2915 C 0.81562 0.36052 0.68477 0.0
C2916 C 0.80274 0.35765 0.66623 0.0
C2917 C 0.72213 0.61943 0.17968 0.0
C2918 C 0.7172 0.63606 0.1653 0.0
C2919 C 0.70992 0.61618 0.1983 0.0
C2920 C 0.69223 0.62926 0.20288 0.0
H2921 H 0.73592 0.60939 0.17695 0.0
H2922 H 0.71449 0.6035 0.20925 0.0
S2923 S 0.67164 0.67362 0.16885 0.0
N2924 N 0.69281 0.66476 0.15597 0.0
N2925 N 0.66972 0.65861 0.19058 0.0
C2926 C 0.68671 0.64537 0.18804 0.0
C2927 C 0.69925 0.64878 0.16934 0.0
C2928 C 0.55797 0.60223 0.93655 0.0
C2929 C 0.54466 0.62015 0.93915 0.0
C2930 C 0.57528 0.59876 0.95008 0.0
C2931 C 0.58026 0.6132 0.96662 0.0
H2932 H 0.55485 0.59046 0.92415 0.0
H2933 H 0.58482 0.58451 0.94753 0.0
S2934 S 0.55105 0.66313 0.97985 0.0
N2935 N 0.53786 0.65285 0.95933 0.0
N2936 N 0.57091 0.64647 0.98467 0.0
C2937 C 0.56748 0.63152 0.96919 0.0
C2938 C 0.54951 0.63493 0.95551 0.0
C2939 C 0.64964 0.31334 0.18356 0.0
C2940 C 0.63235 0.2998 0.18823 0.0
C2941 C 0.65376 0.3316 0.19583 0.0
C2942 C 0.64059 0.33737 0.21309 0.0
H2943 H 0.66049 0.30957 0.17059 0.0
H2944 H 0.66761 0.34116 0.19189 0.0
S2945 S 0.59254 0.30822 0.23139 0.0
N2946 N 0.60145 0.29388 0.21097 0.0
N2947 N 0.60905 0.32868 0.23387 0.0
C2948 C 0.62277 0.32452 0.21755 0.0
C2949 C 0.61872 0.30559 0.20519 0.0
C2950 C 0.93916 0.39348 0.43367 0.0
C2951 C 0.95282 0.37582 0.43625 0.0
C2952 C 0.9222 0.39696 0.44762 0.0
C2953 C 0.91795 0.38281 0.46461 0.0
H2954 H 0.94176 0.40506 0.42097 0.0
H2955 H 0.9124 0.41103 0.44508 0.0
S2956 S 0.94814 0.3335 0.47786 0.0
N2957 N 0.96059 0.34354 0.45677 0.0
N2958 N 0.92821 0.34999 0.48296 0.0
C2959 C 0.931 0.36468 0.4671 0.0
C2960 C 0.94859 0.36124 0.45296 0.0
C2961 C 0.84277 0.66754 0.69417 0.0
C2962 C 0.8566 0.66073 0.71051 0.0
C2963 C 0.84715 0.68579 0.68193 0.0
C2964 C 0.86538 0.69829 0.68574 0.0
H2965 H 0.82826 0.65877 0.69087 0.0
H2966 H 0.83581 0.69036 0.66967 0.0
S2967 S 0.90707 0.68707 0.72637 0.0
N2968 N 0.88968 0.66746 0.72952 0.0
N2969 N 0.89776 0.70221 0.70674 0.0
C2970 C 0.87958 0.69153 0.70184 0.0
C2971 C 0.87526 0.67262 0.71413 0.0
C2972 C 0.54875 0.3685 0.54329 0.0
C2973 C 0.54825 0.379 0.56332 0.0
C2974 C 0.56589 0.37138 0.5291 0.0
C2975 C 0.58285 0.38498 0.53451 0.0
H2976 H 0.53553 0.35859 0.53823 0.0
H2977 H 0.56536 0.36381 0.51345 0.0
S2978 S 0.59098 0.41328 0.58614 0.0
N2979 N 0.56771 0.40134 0.58874 0.0
N2980 N 0.59947 0.407 0.56187 0.0
C2981 C 0.58316 0.3945 0.55487 0.0
C2982 C 0.56595 0.39144 0.56936 0.0
C2983 C 0.8741 0.32436 0.78444 0.0
C2984 C 0.85646 0.33779 0.78787 0.0
C2985 C 0.87751 0.30614 0.79735 0.0
C2986 C 0.86357 0.301 0.8143 0.0
H2987 H 0.88489 0.32751 0.77125 0.0
H2988 H 0.89102 0.29594 0.79389 0.0
S2989 S 0.81611 0.33241 0.83097 0.0
N2990 N 0.8257 0.34554 0.81012 0.0
N2991 N 0.83211 0.31174 0.83445 0.0
C2992 C 0.84635 0.31488 0.81832 0.0
C2993 C 0.8428 0.33316 0.80509 0.0
C2994 C 0.91945 0.60252 0.04854 0.0
C2995 C 0.91582 0.6161 0.03096 0.0
C2996 C 0.9367 0.60571 0.06219 0.0
C2997 C 0.95126 0.62245 0.05869 0.0
H2998 H 0.909 0.58906 0.05167 0.0
H2999 H 0.93885 0.59451 0.07532 0.0
S3000 S 0.94818 0.66328 0.01545 0.0
N3001 N 0.9274 0.64761 0.01121 0.0
N3002 N 0.96034 0.6535 0.03683 0.0
C3003 C 0.94751 0.63662 0.04151 0.0
C3004 C 0.92962 0.6335 0.02767 0.0
C3005 C 0.65483 0.66778 0.30316 0.0
C3006 C 0.641 0.66147 0.28663 0.0
C3007 C 0.651 0.68626 0.31521 0.0
C3008 C 0.63336 0.69947 0.31102 0.0
H3009 H 0.66898 0.6585 0.30666 0.0
H3010 H 0.66236 0.69046 0.3276 0.0
S3011 S 0.59185 0.68962 0.26983 0.0
N3012 N 0.6085 0.66931 0.26708 0.0
N3013 N 0.60144 0.70451 0.28952 0.0
C3014 C 0.61909 0.69314 0.2948 0.0
C3015 C 0.62284 0.67398 0.28269 0.0
C3016 C 0.94639 0.55858 0.63385 0.0
C3017 C 0.93185 0.55249 0.61776 0.0
C3018 C 0.96122 0.57513 0.63033 0.0
C3019 C 0.96217 0.58594 0.61051 0.0
H3020 H 0.94634 0.55051 0.64925 0.0
H3021 H 0.97222 0.57921 0.64307 0.0
S3022 S 0.9272 0.5766 0.56334 0.0
N3023 N 0.91913 0.55908 0.58139 0.0
N3024 N 0.94679 0.58984 0.57487 0.0
C3025 C 0.94755 0.58015 0.59443 0.0
C3026 C 0.93245 0.56351 0.59802 0.0
C3027 C 0.6793 0.71864 0.87637 0.0
C3028 C 0.66416 0.71425 0.86038 0.0
C3029 C 0.69656 0.70472 0.87978 0.0
C3030 C 0.69896 0.68591 0.86749 0.0
H3031 H 0.67826 0.73325 0.88571 0.0
H3032 H 0.70825 0.70893 0.89183 0.0
S3033 S 0.66182 0.66615 0.82546 0.0
N3034 N 0.65154 0.68914 0.83344 0.0
N3035 N 0.68356 0.66291 0.8399 0.0
C3036 C 0.68322 0.68094 0.85219 0.0
C3037 C 0.66592 0.69516 0.84861 0.0
C3038 C 0.55996 0.43948 0.1018 0.0
C3039 C 0.56394 0.44756 0.12247 0.0
C3040 C 0.54483 0.42351 0.0983 0.0
C3041 C 0.53305 0.41467 0.11534 0.0
H3042 H 0.56855 0.44561 0.08803 0.0
H3043 H 0.54254 0.41797 0.08198 0.0
S3044 S 0.53764 0.42997 0.17277 0.0
N3045 N 0.55499 0.44556 0.16039 0.0
N3046 N 0.5265 0.41515 0.15386 0.0
C3047 C 0.53681 0.42256 0.1362 0.0
C3048 C 0.55223 0.43911 0.13975 0.0
C3049 C 0.79442 0.28454 0.38164 0.0
C3050 C 0.79661 0.30669 0.37802 0.0
C3051 C 0.81169 0.2706 0.37851 0.0
C3052 C 0.83154 0.27859 0.372 0.0
H3053 H 0.77903 0.2778 0.38557 0.0
H3054 H 0.8092 0.25346 0.37993 0.0
S3055 S 0.84641 0.33545 0.36418 0.0
N3056 N 0.82087 0.33612 0.37029 0.0
N3057 N 0.85318 0.30986 0.3645 0.0
C3058 C 0.83431 0.30075 0.36997 0.0
C3059 C 0.81684 0.31487 0.37301 0.0
C3060 C 0.93753 0.44004 0.89761 0.0
C3061 C 0.93421 0.44827 0.87688 0.0
C3062 C 0.95249 0.42401 0.90148 0.0
C3063 C 0.96475 0.41524 0.88476 0.0
H3064 H 0.92853 0.44608 0.91116 0.0
H3065 H 0.95424 0.41832 0.91782 0.0
S3066 S 0.96222 0.43112 0.82737 0.0
N3067 N 0.94447 0.44662 0.83928 0.0
N3068 N 0.97264 0.41606 0.8465 0.0
C3069 C 0.9617 0.4233 0.86385 0.0
C3070 C 0.94646 0.43993 0.85993 0.0
C3071 C 0.79874 0.70772 0.11719 0.0
C3072 C 0.79856 0.68697 0.12614 0.0
C3073 C 0.81597 0.72167 0.12065 0.0
C3074 C 0.83332 0.71525 0.13328 0.0
H3075 H 0.78518 0.71351 0.10817 0.0
H3076 H 0.81521 0.73785 0.11435 0.0
S3077 S 0.84238 0.66161 0.15708 0.0
N3078 N 0.81874 0.65991 0.1457 0.0
N3079 N 0.85063 0.68632 0.15254 0.0
C3080 C 0.83393 0.69423 0.14115 0.0
C3081 C 0.81666 0.68 0.13747 0.0
C3082 C 0.54062 0.57875 0.36514 0.0
C3083 C 0.53445 0.58404 0.38626 0.0
C3084 C 0.5558 0.5626 0.36119 0.0
C3085 C 0.5654 0.55146 0.37824 0.0
H3086 H 0.534 0.58736 0.35161 0.0
H3087 H 0.56047 0.55929 0.34478 0.0
S3088 S 0.55313 0.55742 0.43624 0.0
N3089 N 0.53799 0.57538 0.42425 0.0
N3090 N 0.56644 0.54551 0.41679 0.0
C3091 C 0.55883 0.55609 0.3993 0.0
C3092 C 0.54337 0.57226 0.40332 0.0
C3093 C 0.67288 0.30226 0.65144 0.0
C3094 C 0.66756 0.28583 0.63698 0.0
C3095 C 0.68994 0.31597 0.64748 0.0
C3096 C 0.70264 0.31363 0.62906 0.0
H3097 H 0.66382 0.30456 0.66605 0.0
H3098 H 0.69342 0.32826 0.65927 0.0
S3099 S 0.69496 0.27353 0.58574 0.0
N3100 N 0.67577 0.26834 0.6031 0.0
N3101 N 0.70837 0.29396 0.59582 0.0
C3102 C 0.69737 0.29745 0.61425 0.0
C3103 C 0.67965 0.28362 0.61814 0.0
C3104 C 0.6266 0.95396 0.55467 0.0
C3105 C 0.61367 0.936 0.55036 0.0
C3106 C 0.62307 0.96686 0.57288 0.0
C3107 C 0.6063 0.96238 0.58712 0.0
H3108 H 0.63933 0.95824 0.54377 0.0
H3109 H 0.63295 0.98087 0.57534 0.0
S3110 S 0.56906 0.91638 0.58426 0.0
N3111 N 0.58433 0.91373 0.56289 0.0
N3112 N 0.57765 0.9381 0.59664 0.0
C3113 C 0.59377 0.94414 0.58339 0.0
C3114 C 0.59747 0.93091 0.56513 0.0
C3115 C 0.1272 0.54349 0.44291 0.0
C3116 C 0.11593 0.56276 0.4462 0.0
C3117 C 0.12328 0.53058 0.4248 0.0
C3118 C 0.1078 0.53642 0.40963 0.0
H3119 H 0.13873 0.53808 0.45463 0.0
H3120 H 0.13171 0.51551 0.42318 0.0
S3121 S 0.07595 0.58638 0.40912 0.0
N3122 N 0.09017 0.58793 0.43134 0.0
N3123 N 0.08265 0.56342 0.39782 0.0
C3124 C 0.09719 0.55602 0.41218 0.0
C3125 C 0.10131 0.56927 0.43034 0.0
C3126 C 0.70066 0.88558 0.69424 0.0
C3127 C 0.68161 0.87368 0.6944 0.0
C3128 C 0.71617 0.88219 0.67829 0.0
C3129 C 0.71312 0.86666 0.66221 0.0
H3130 H 0.7039 0.8971 0.70684 0.0
H3131 H 0.73092 0.89114 0.67901 0.0
S3132 S 0.66486 0.83372 0.65342 0.0
N3133 N 0.65974 0.84756 0.6754 0.0
N3134 N 0.68894 0.84107 0.64595 0.0
C3135 C 0.69378 0.8555 0.66158 0.0
C3136 C 0.678 0.85905 0.67754 0.0
C3137 C 0.40361 0.44662 0.91734 0.0
C3138 C 0.38939 0.46277 0.91093 0.0
C3139 C 0.39999 0.43447 0.93582 0.0
C3140 C 0.38216 0.43815 0.94895 0.0
H3141 H 0.41785 0.44342 0.90809 0.0
H3142 H 0.41159 0.42234 0.94004 0.0
S3143 S 0.3397 0.47826 0.93895 0.0
N3144 N 0.35638 0.48147 0.9187 0.0
N3145 N 0.34973 0.45885 0.95389 0.0
C3146 C 0.36757 0.45406 0.9426 0.0
C3147 C 0.37112 0.46627 0.92345 0.0
C3148 C 0.3015 0.6136 0.68829 0.0
C3149 C 0.3125 0.63093 0.69759 0.0
C3150 C 0.2868 0.61691 0.67155 0.0
C3151 C 0.28244 0.63768 0.66377 0.0
H3152 H 0.30455 0.59738 0.69369 0.0
H3153 H 0.27885 0.60312 0.66466 0.0
S3154 S 0.30632 0.68852 0.68371 0.0
N3155 N 0.31747 0.6696 0.69836 0.0
N3156 N 0.29006 0.67586 0.66728 0.0
C3157 C 0.29315 0.65512 0.67329 0.0
C3158 C 0.30811 0.65173 0.6901 0.0
C3159 C 0.89788 0.0643 0.06309 0.0
C3160 C 0.88015 0.06067 0.04984 0.0
C3161 C 0.90154 0.05187 0.08136 0.0
C3162 C 0.88747 0.03545 0.08739 0.0
H3163 H 0.90942 0.07658 0.05912 0.0
H3164 H 0.91574 0.05501 0.0907 0.0
S3165 S 0.83792 0.02012 0.05908 0.0
N3166 N 0.84783 0.03987 0.04451 0.0
N3167 N 0.85459 0.01667 0.0793 0.0
C3168 C 0.86921 0.03207 0.07485 0.0
C3169 C 0.86561 0.0446 0.05592 0.0
C3170 C 0.70114 0.15165 0.82611 0.0
C3171 C 0.71356 0.13483 0.83439 0.0
C3172 C 0.68608 0.14807 0.81009 0.0
C3173 C 0.68284 0.12754 0.80139 0.0
H3174 H 0.70287 0.16786 0.83213 0.0
H3175 H 0.677 0.16169 0.80436 0.0
S3176 S 0.7109 0.07779 0.81755 0.0
N3177 N 0.72142 0.09664 0.8329 0.0
N3178 N 0.69307 0.08995 0.80234 0.0
C3179 C 0.69511 0.11046 0.80939 0.0
C3180 C 0.71044 0.11409 0.82602 0.0
C3181 C 0.79826 0.88534 0.3056 0.0
C3182 C 0.81707 0.87304 0.30541 0.0
C3183 C 0.783 0.88272 0.32193 0.0
C3184 C 0.78607 0.86761 0.33838 0.0
H3185 H 0.79499 0.89653 0.29272 0.0
H3186 H 0.76836 0.89184 0.32115 0.0
S3187 S 0.83391 0.8341 0.34728 0.0
N3188 N 0.83887 0.84717 0.3248 0.0
N3189 N 0.81009 0.84209 0.35497 0.0
C3190 C 0.80523 0.85615 0.33902 0.0
C3191 C 0.82077 0.85891 0.32266 0.0
C3192 C 0.43927 0.39853 0.06383 0.0
C3193 C 0.45097 0.37934 0.06286 0.0
C3194 C 0.42262 0.4026 0.04954 0.0
C3195 C 0.41667 0.3875 0.03389 0.0
H3196 H 0.44323 0.4108 0.07549 0.0
H3197 H 0.41433 0.41778 0.05083 0.0
S3198 S 0.44152 0.33428 0.0251 0.0
N3199 N 0.45515 0.3448 0.04518 0.0
N3200 N 0.42338 0.35229 0.01856 0.0
C3201 C 0.42783 0.36798 0.03301 0.0
C3202 C 0.44512 0.36396 0.0474 0.0
C3203 C 0.37677 0.6827 0.7794 0.0
C3204 C 0.35927 0.66871 0.7808 0.0
C3205 C 0.37924 0.69975 0.79389 0.0
C3206 C 0.36445 0.70323 0.81047 0.0
H3207 H 0.38842 0.68078 0.76673 0.0
H3208 H 0.39279 0.71029 0.79201 0.0
S3209 S 0.31658 0.67024 0.82188 0.0
N3210 N 0.32741 0.6589 0.80057 0.0
N3211 N 0.33211 0.6907 0.82792 0.0
C3212 C 0.34719 0.68898 0.81238 0.0
C3213 C 0.34458 0.67178 0.79751 0.0
C3214 C 0.07117 0.62955 0.53285 0.0
C3215 C 0.08206 0.60984 0.53336 0.0
C3216 C 0.05399 0.63356 0.54676 0.0
C3217 C 0.04742 0.61814 0.5619 0.0
H3218 H 0.07561 0.64174 0.5213 0.0
H3219 H 0.04581 0.64881 0.54566 0.0
S3220 S 0.07149 0.56438 0.5704 0.0
N3221 N 0.08549 0.57507 0.55074 0.0
N3222 N 0.0536 0.58261 0.57685 0.0
C3223 C 0.05857 0.5986 0.56287 0.0
C3224 C 0.07579 0.59445 0.54861 0.0
C3225 C 0.1194 0.29852 0.29059 0.0
C3226 C 0.1338 0.29562 0.30762 0.0
C3227 C 0.12143 0.31586 0.27641 0.0
C3228 C 0.13811 0.33071 0.27858 0.0
H3229 H 0.1065 0.28728 0.28811 0.0
H3230 H 0.11015 0.31732 0.26335 0.0
S3231 S 0.17935 0.33106 0.32115 0.0
N3232 N 0.16478 0.30969 0.32639 0.0
N3233 N 0.16868 0.34204 0.29959 0.0
C3234 C 0.15237 0.32825 0.29576 0.0
C3235 C 0.15019 0.31076 0.31032 0.0
C3236 C 0.4398 0.60271 0.43483 0.0
C3237 C 0.45176 0.62173 0.43577 0.0
C3238 C 0.4229 0.59905 0.44892 0.0
C3239 C 0.41696 0.6144 0.46431 0.0
H3240 H 0.4438 0.59023 0.42342 0.0
H3241 H 0.41446 0.58394 0.44775 0.0
S3242 S 0.4422 0.66747 0.47269 0.0
N3243 N 0.45601 0.65651 0.45298 0.0
N3244 N 0.42375 0.64977 0.4792 0.0
C3245 C 0.42825 0.63383 0.46504 0.0
C3246 C 0.4458 0.63744 0.45087 0.0
C3247 C 0.14769 0.68902 0.19071 0.0
C3248 C 0.13042 0.70331 0.19214 0.0
C3249 C 0.15017 0.67222 0.2054 0.0
C3250 C 0.13533 0.66886 0.22191 0.0
H3251 H 0.15957 0.69093 0.17827 0.0
H3252 H 0.16381 0.66175 0.20373 0.0
S3253 S 0.08715 0.7015 0.23264 0.0
N3254 N 0.09821 0.71293 0.21151 0.0
N3255 N 0.10265 0.68106 0.23885 0.0
C3256 C 0.11783 0.68282 0.22342 0.0
C3257 C 0.11545 0.70014 0.20861 0.0
C3258 C 0.06696 0.36989 0.96925 0.0
C3259 C 0.08239 0.38564 0.9651 0.0
C3260 C 0.04987 0.36671 0.95504 0.0
C3261 C 0.04788 0.37898 0.93613 0.0
H3262 H 0.06762 0.36064 0.98395 0.0
H3263 H 0.0379 0.35491 0.95915 0.0
S3264 S 0.08618 0.42005 0.91674 0.0
N3265 N 0.09588 0.41215 0.94005 0.0
N3266 N 0.06424 0.40599 0.91315 0.0
C3267 C 0.06401 0.3939 0.93133 0.0
C3268 C 0.08114 0.39729 0.94588 0.0
C3269 C 0.37788 0.30169 0.70439 0.0
C3270 C 0.36324 0.29809 0.68771 0.0
C3271 C 0.37511 0.31864 0.71891 0.0
C3272 C 0.35745 0.33241 0.71745 0.0
H3273 H 0.39159 0.29136 0.70628 0.0
H3274 H 0.38671 0.32071 0.73159 0.0
S3275 S 0.31486 0.3303 0.6763 0.0
N3276 N 0.33073 0.31011 0.67023 0.0
N3277 N 0.32546 0.34175 0.69766 0.0
C3278 C 0.34282 0.32914 0.70072 0.0
C3279 C 0.34574 0.31204 0.68581 0.0
C3280 C 0.05999 0.43775 0.39172 0.0
C3281 C 0.05503 0.45246 0.37536 0.0
C3282 C 0.04795 0.41919 0.39474 0.0
C3283 C 0.03065 0.41436 0.38134 0.0
H3284 H 0.07304 0.44076 0.40266 0.0
H3285 H 0.05212 0.40863 0.40791 0.0
S3286 S 0.01163 0.44679 0.33534 0.0
N3287 N 0.03193 0.46051 0.34504 0.0
N3288 N 0.00954 0.42518 0.35054 0.0
C3289 C 0.02591 0.42841 0.36439 0.0
C3290 C 0.03801 0.4476 0.36149 0.0
C3291 C 0.31006 0.31177 0.14768 0.0
C3292 C 0.29837 0.31071 0.12847 0.0
C3293 C 0.32669 0.29752 0.15182 0.0
C3294 C 0.33261 0.2818 0.13679 0.0
H3295 H 0.3061 0.32347 0.15991 0.0
H3296 H 0.33498 0.29889 0.16701 0.0
S3297 S 0.30784 0.27281 0.08353 0.0
N3298 N 0.2942 0.29292 0.09396 0.0
N3299 N 0.32597 0.26635 0.10159 0.0
C3300 C 0.32149 0.28084 0.11724 0.0
C3301 C 0.30421 0.29521 0.11314 0.0
C3302 C 0.43712 0.55826 0.89371 0.0
C3303 C 0.44105 0.54498 0.87591 0.0
C3304 C 0.44958 0.57633 0.89773 0.0
C3305 C 0.46628 0.58211 0.88393 0.0
H3306 H 0.42456 0.55447 0.90499 0.0
H3307 H 0.44613 0.58579 0.9119 0.0
S3308 S 0.48251 0.55356 0.83437 0.0
N3309 N 0.4625 0.53927 0.84388 0.0
N3310 N 0.48571 0.57373 0.85127 0.0
C3311 C 0.47002 0.56948 0.86564 0.0
C3312 C 0.45749 0.55076 0.8617 0.0
C3313 C 0.19286 0.70088 0.61406 0.0
C3314 C 0.1982 0.68453 0.62871 0.0
C3315 C 0.17603 0.71516 0.61827 0.0
C3316 C 0.16425 0.71378 0.63743 0.0
H3317 H 0.20182 0.70275 0.59933 0.0
H3318 H 0.1726 0.7277 0.60674 0.0
S3319 S 0.1711 0.67319 0.68053 0.0
N3320 N 0.18964 0.66734 0.66274 0.0
N3321 N 0.15841 0.69411 0.67063 0.0
C3322 C 0.16916 0.69722 0.65194 0.0
C3323 C 0.18602 0.68261 0.64758 0.0
C3324 C 0.04161 0.55214 0.13413 0.0
C3325 C 0.05481 0.5432 0.11826 0.0
C3326 C 0.02957 0.57068 0.12994 0.0
C3327 C 0.03012 0.5806 0.10963 0.0
H3328 H 0.04086 0.54501 0.14997 0.0
H3329 H 0.01968 0.57714 0.14261 0.0
S3330 S 0.0616 0.56265 0.06239 0.0
N3331 N 0.06733 0.5452 0.08142 0.0
N3332 N 0.04479 0.5797 0.07341 0.0
C3333 C 0.04312 0.57154 0.0936 0.0
C3334 C 0.05544 0.55292 0.09794 0.0
C3335 C 0.18787 0.31333 0.85298 0.0
C3336 C 0.2002 0.3124 0.87178 0.0
C3337 C 0.1711 0.29905 0.84952 0.0
C3338 C 0.16567 0.28346 0.86487 0.0
H3339 H 0.19142 0.32492 0.84053 0.0
H3340 H 0.16232 0.30028 0.83461 0.0
S3341 S 0.19216 0.27493 0.91736 0.0
N3342 N 0.20546 0.29492 0.9063 0.0
N3343 N 0.17344 0.26832 0.89996 0.0
C3344 C 0.17741 0.28268 0.88406 0.0
C3345 C 0.19483 0.29706 0.88745 0.0
C3346 C 0.43945 0.44311 0.60389 0.0
C3347 C 0.44226 0.45592 0.62224 0.0
C3348 C 0.45206 0.42504 0.60028 0.0
C3349 C 0.46776 0.41878 0.61504 0.0
H3350 H 0.42766 0.44726 0.59191 0.0
H3351 H 0.44947 0.41593 0.58569 0.0
S3352 S 0.48088 0.44612 0.66622 0.0
N3353 N 0.46163 0.46076 0.65572 0.0
N3354 N 0.48507 0.42632 0.6491 0.0
C3355 C 0.4704 0.43102 0.63379 0.0
C3356 C 0.45774 0.44973 0.63733 0.0
C3357 C 0.30354 0.6976 0.38057 0.0
C3358 C 0.29771 0.68193 0.36537 0.0
C3359 C 0.32064 0.71163 0.37675 0.0
C3360 C 0.33221 0.71069 0.35744 0.0
H3361 H 0.29482 0.69907 0.39549 0.0
H3362 H 0.32448 0.7236 0.38874 0.0
S3363 S 0.32391 0.67205 0.31285 0.0
N3364 N 0.30543 0.66591 0.33061 0.0
N3365 N 0.33721 0.69228 0.32338 0.0
C3366 C 0.32674 0.69488 0.34231 0.0
C3367 C 0.30959 0.68049 0.34629 0.0
C3368 C 0.39793 0.05623 0.44107 0.0
C3369 C 0.3808 0.05452 0.45552 0.0
C3370 C 0.40025 0.04191 0.42393 0.0
C3371 C 0.38536 0.0255 0.42035 0.0
H3372 H 0.40985 0.0686 0.44313 0.0
H3373 H 0.41382 0.04376 0.41338 0.0
S3374 S 0.33744 0.0142 0.45322 0.0
N3375 N 0.34864 0.03503 0.46502 0.0
N3376 N 0.35275 0.0084 0.43249 0.0
C3377 C 0.36797 0.02375 0.43444 0.0
C3378 C 0.36577 0.03816 0.45212 0.0
C3379 C 0.86858 0.45443 0.549 0.0
C3380 C 0.88342 0.43782 0.54599 0.0
C3381 C 0.87062 0.46896 0.56607 0.0
C3382 C 0.88772 0.46755 0.58055 0.0
H3383 H 0.85534 0.45633 0.53804 0.0
H3384 H 0.85899 0.48168 0.56762 0.0
S3385 S 0.93016 0.42627 0.58059 0.0
N3386 N 0.91526 0.42024 0.55964 0.0
N3387 N 0.91914 0.44768 0.59147 0.0
C3388 C 0.90241 0.45079 0.578 0.0
C3389 C 0.90024 0.43588 0.56079 0.0
C3390 C 0.29147 0.11531 0.30186 0.0
C3391 C 0.30906 0.1286 0.29748 0.0
C3392 C 0.2792 0.1182 0.32049 0.0
C3393 C 0.28398 0.13468 0.33509 0.0
H3394 H 0.28699 0.10274 0.29075 0.0
H3395 H 0.26547 0.10803 0.32304 0.0
S3396 S 0.32925 0.17267 0.33206 0.0
N3397 N 0.33132 0.15795 0.31014 0.0
N3398 N 0.30816 0.16347 0.34482 0.0
C3399 C 0.30186 0.14759 0.33125 0.0
C3400 C 0.31444 0.14454 0.31251 0.0
C3401 C 0.63068 0.54242 0.05052 0.0
C3402 C 0.61621 0.55937 0.04763 0.0
C3403 C 0.62833 0.52781 0.06749 0.0
C3404 C 0.61126 0.52947 0.08199 0.0
H3405 H 0.64388 0.54032 0.03955 0.0
H3406 H 0.63971 0.51485 0.06895 0.0
S3407 S 0.56958 0.57158 0.08217 0.0
N3408 N 0.58467 0.57746 0.06131 0.0
N3409 N 0.58019 0.54991 0.09295 0.0
C3410 C 0.59691 0.54656 0.07952 0.0
C3411 C 0.5994 0.56154 0.06241 0.0
C3412 C 0.70713 0.38447 0.30404 0.0
C3413 C 0.69633 0.3682 0.29289 0.0
C3414 C 0.71916 0.3797 0.32249 0.0
C3415 C 0.72095 0.35847 0.33009 0.0
H3416 H 0.70571 0.40101 0.29893 0.0
H3417 H 0.72687 0.39272 0.33095 0.0
S3418 S 0.69718 0.30998 0.30482 0.0
N3419 N 0.68915 0.33011 0.28969 0.0
N3420 N 0.71185 0.32093 0.32384 0.0
C3421 C 0.71077 0.34204 0.31841 0.0
C3422 C 0.69842 0.34696 0.29993 0.0
C3423 C 0.1286 0.9737 0.93161 0.0
C3424 C 0.11086 0.9727 0.91789 0.0
C3425 C 0.13108 0.95907 0.94853 0.0
C3426 C 0.11608 0.94273 0.95211 0.0
H3427 H 0.14047 0.98611 0.92953 0.0
H3428 H 0.14485 0.9606 0.95886 0.0
S3429 S 0.06742 0.93251 0.91987 0.0
N3430 N 0.07845 0.95366 0.9085 0.0
N3431 N 0.08318 0.92603 0.94004 0.0
C3432 C 0.09852 0.94128 0.93816 0.0
C3433 C 0.09589 0.95631 0.92112 0.0
C3434 C 0.29029 0.88326 0.19837 0.0
C3435 C 0.30683 0.86897 0.20362 0.0
C3436 C 0.27789 0.88023 0.17983 0.0
C3437 C 0.28147 0.86262 0.16619 0.0
H3438 H 0.28684 0.89682 0.20867 0.0
H3439 H 0.26506 0.89133 0.17652 0.0
S3440 S 0.32355 0.82129 0.17205 0.0
N3441 N 0.32663 0.83711 0.19304 0.0
N3442 N 0.30339 0.83143 0.15851 0.0
C3443 C 0.29827 0.84857 0.171 0.0
C3444 C 0.31094 0.85173 0.18965 0.0
C3445 C 0.20992 0.11908 0.7001 0.0
C3446 C 0.19247 0.1324 0.70489 0.0
C3447 C 0.22177 0.12196 0.68121 0.0
C3448 C 0.21673 0.13847 0.66673 0.0
H3449 H 0.21456 0.10642 0.71104 0.0
H3450 H 0.23537 0.1117 0.67829 0.0
S3451 S 0.17174 0.17667 0.67088 0.0
N3452 N 0.1701 0.16193 0.69282 0.0
N3453 N 0.19251 0.16741 0.65763 0.0
C3454 C 0.19904 0.1515 0.67103 0.0
C3455 C 0.18687 0.14846 0.69005 0.0
loop_
_geom_bond_atom_site_label_1
_geom_bond_atom_site_label_2
_geom_bond_distance
_geom_bond_site_symmetry_2
_ccdc_geom_bond_type
Co0 O1 2.216 1_455 S
Co0 O2 2.091 1_455 S
Co0 O4 2.004 . S
Co0 O10 2.021 1_455 S
Co0 O12 2.137 . S
Co0 O13 2.244 . S
O1 Co0 2.216 1_655 S
O1 C8 1.247 . S
O2 Co0 2.091 1_655 S
O2 C8 1.261 . S
C3 O12 1.247 . S
C3 O13 1.272 . S
O4 Co0 2.004 . S
O4 C9 1.259 . S
Co5 O6 2.061 . S
Co5 O11 2.052 1_455 S
Co5 O13 2.135 . S
O6 Co5 2.061 . S
O6 C9 1.235 . S
C7 O10 1.238 . S
C7 O11 1.241 . S
C8 O1 1.247 . S
C8 O2 1.261 . S
C9 O4 1.259 . S
C9 O6 1.235 . S
O10 Co0 2.021 1_655 S
O10 C7 1.238 . S
O11 Co5 2.052 1_655 S
O11 C7 1.241 . S
O12 Co0 2.137 . S
O12 C3 1.247 . S
O13 Co0 2.244 . S
O13 C3 1.272 . S
O13 Co5 2.135 . S
Co14 O15 2.216 . S
Co14 O16 2.091 . S
Co14 O18 2.004 . S
Co14 O24 2.021 . S
Co14 O26 2.137 . S
Co14 O27 2.244 . S
O15 Co14 2.216 . S
O15 C22 1.247 . S
O16 Co14 2.091 . S
O16 C22 1.261 . S
C17 O26 1.247 . S
C17 O27 1.272 . S
O18 Co14 2.004 . S
O18 C23 1.259 . S
Co19 O20 2.061 . S
Co19 O25 2.052 . S
Co19 O27 2.135 . S
O20 Co19 2.061 . S
O20 C23 1.235 . S
C21 O24 1.238 . S
C21 O25 1.241 . S
C22 O15 1.247 . S
C22 O16 1.261 . S
C23 O18 1.259 . S
C23 O20 1.235 . S
O24 Co14 2.021 . S
O24 C21 1.238 . S
O25 Co19 2.052 . S
O25 C21 1.241 . S
O26 Co14 2.137 . S
O26 C17 1.247 . S
O27 Co14 2.244 . S
O27 C17 1.272 . S
O27 Co19 2.135 . S
Co28 O29 2.216 . S
Co28 O30 2.091 . S
Co28 O32 2.004 . S
Co28 O38 2.021 . S
Co28 O40 2.137 . S
Co28 O41 2.244 . S
O29 Co28 2.216 . S
O29 C36 1.247 . S
O30 Co28 2.091 . S
O30 C36 1.261 . S
C31 O40 1.247 . S
C31 O41 1.272 . S
O32 Co28 2.004 . S
O32 C37 1.259 . S
Co33 O34 2.061 . S
Co33 O39 2.052 . S
Co33 O41 2.135 . S
O34 Co33 2.061 . S
O34 C37 1.235 . S
C35 O38 1.238 . S
C35 O39 1.241 . S
C36 O29 1.247 . S
C36 O30 1.261 . S
C37 O32 1.259 . S
C37 O34 1.235 . S
O38 Co28 2.021 . S
O38 C35 1.238 . S
O39 Co33 2.052 . S
O39 C35 1.241 . S
O40 Co28 2.137 . S
O40 C31 1.247 . S
O41 Co28 2.244 . S
O41 C31 1.272 . S
O41 Co33 2.135 . S
Co42 O43 2.216 . S
Co42 O44 2.091 . S
Co42 O46 2.004 . S
Co42 O52 2.021 . S
Co42 O54 2.137 . S
Co42 O55 2.244 . S
O43 Co42 2.216 . S
O43 C50 1.247 . S
O44 Co42 2.091 . S
O44 C50 1.261 . S
C45 O54 1.247 . S
C45 O55 1.272 . S
O46 Co42 2.004 . S
O46 C51 1.259 . S
Co47 O48 2.061 . S
Co47 O53 2.052 . S
Co47 O55 2.135 . S
O48 Co47 2.061 . S
O48 C51 1.235 . S
C49 O52 1.238 . S
C49 O53 1.241 . S
C50 O43 1.247 . S
C50 O44 1.261 . S
C51 O46 1.259 . S
C51 O48 1.235 . S
O52 Co42 2.021 . S
O52 C49 1.238 . S
O53 Co47 2.052 . S
O53 C49 1.241 . S
O54 Co42 2.137 . S
O54 C45 1.247 . S
O55 Co42 2.244 . S
O55 C45 1.272 . S
O55 Co47 2.135 . S
Co56 O57 2.216 1_455 S
Co56 O58 2.091 1_455 S
Co56 O60 2.004 . S
Co56 O66 2.021 1_455 S
Co56 O68 2.137 . S
Co56 O69 2.244 . S
O57 Co56 2.216 1_655 S
O57 C64 1.247 . S
O58 Co56 2.091 1_655 S
O58 C64 1.261 . S
C59 O68 1.247 . S
C59 O69 1.272 . S
O60 Co56 2.004 . S
O60 C65 1.259 . S
Co61 O62 2.061 . S
Co61 O67 2.052 1_455 S
Co61 O69 2.135 . S
O62 Co61 2.061 . S
O62 C65 1.235 . S
C63 O66 1.238 . S
C63 O67 1.241 . S
C64 O57 1.247 . S
C64 O58 1.261 . S
C65 O60 1.259 . S
C65 O62 1.235 . S
O66 Co56 2.021 1_655 S
O66 C63 1.238 . S
O67 Co61 2.052 1_655 S
O67 C63 1.241 . S
O68 Co56 2.137 . S
O68 C59 1.247 . S
O69 Co56 2.244 . S
O69 C59 1.272 . S
O69 Co61 2.135 . S
Co70 O71 2.216 . S
Co70 O72 2.091 . S
Co70 O74 2.004 . S
Co70 O80 2.021 . S
Co70 O82 2.137 . S
Co70 O83 2.244 . S
O71 Co70 2.216 . S
O71 C78 1.247 . S
O72 Co70 2.091 . S
O72 C78 1.261 . S
C73 O82 1.247 . S
C73 O83 1.272 . S
O74 Co70 2.004 . S
O74 C79 1.259 . S
Co75 O76 2.061 . S
Co75 O81 2.052 . S
Co75 O83 2.135 . S
O76 Co75 2.061 . S
O76 C79 1.235 . S
C77 O80 1.238 . S
C77 O81 1.241 . S
C78 O71 1.247 . S
C78 O72 1.261 . S
C79 O74 1.259 . S
C79 O76 1.235 . S
O80 Co70 2.021 . S
O80 C77 1.238 . S
O81 Co75 2.052 . S
O81 C77 1.241 . S
O82 Co70 2.137 . S
O82 C73 1.247 . S
O83 Co70 2.244 . S
O83 C73 1.272 . S
O83 Co75 2.135 . S
Co84 O85 2.216 . S
Co84 O86 2.091 . S
Co84 O88 2.004 . S
Co84 O94 2.021 . S
Co84 O96 2.137 . S
Co84 O97 2.244 . S
O85 Co84 2.216 . S
O85 C92 1.247 . S
O86 Co84 2.091 . S
O86 C92 1.261 . S
C87 O96 1.247 . S
C87 O97 1.272 . S
O88 Co84 2.004 . S
O88 C93 1.259 . S
Co89 O90 2.061 . S
Co89 O95 2.052 . S
Co89 O97 2.135 . S
O90 Co89 2.061 . S
O90 C93 1.235 . S
C91 O94 1.238 . S
C91 O95 1.241 . S
C92 O85 1.247 . S
C92 O86 1.261 . S
C93 O88 1.259 . S
C93 O90 1.235 . S
O94 Co84 2.021 . S
O94 C91 1.238 . S
O95 Co89 2.052 . S
O95 C91 1.241 . S
O96 Co84 2.137 . S
O96 C87 1.247 . S
O97 Co84 2.244 . S
O97 C87 1.272 . S
O97 Co89 2.135 . S
Co98 O99 2.216 . S
Co98 O100 2.091 . S
Co98 O102 2.004 . S
Co98 O108 2.021 . S
Co98 O110 2.137 . S
Co98 O111 2.244 . S
O99 Co98 2.216 . S
O99 C106 1.247 . S
O100 Co98 2.091 . S
O100 C106 1.261 . S
C101 O110 1.247 . S
C101 O111 1.272 . S
O102 Co98 2.004 . S
O102 C107 1.259 . S
Co103 O104 2.061 . S
Co103 O109 2.052 . S
Co103 O111 2.135 . S
O104 Co103 2.061 . S
O104 C107 1.235 . S
C105 O108 1.238 . S
C105 O109 1.241 . S
C106 O99 1.247 . S
C106 O100 1.261 . S
C107 O102 1.259 . S
C107 O104 1.235 . S
O108 Co98 2.021 . S
O108 C105 1.238 . S
O109 Co103 2.052 . S
O109 C105 1.241 . S
O110 Co98 2.137 . S
O110 C101 1.247 . S
O111 Co98 2.244 . S
O111 C101 1.272 . S
O111 Co103 2.135 . S
Co112 O113 2.216 . S
Co112 O114 2.091 . S
Co112 O116 2.004 1_545 S
Co112 O122 2.021 . S
Co112 O124 2.137 1_545 S
Co112 O125 2.244 1_545 S
O113 Co112 2.216 . S
O113 C120 1.247 . S
O114 Co112 2.091 . S
O114 C120 1.261 . S
C115 O124 1.247 . S
C115 O125 1.272 . S
O116 Co112 2.004 1_565 S
O116 C121 1.259 . S
Co117 O118 2.061 . S
Co117 O123 2.052 1_565 S
Co117 O125 2.135 . S
O118 Co117 2.061 . S
O118 C121 1.235 . S
C119 O122 1.238 . S
C119 O123 1.241 . S
C120 O113 1.247 . S
C120 O114 1.261 . S
C121 O116 1.259 . S
C121 O118 1.235 . S
O122 Co112 2.021 . S
O122 C119 1.238 . S
O123 Co117 2.052 1_545 S
O123 C119 1.241 . S
O124 Co112 2.137 1_565 S
O124 C115 1.247 . S
O125 Co112 2.244 1_565 S
O125 C115 1.272 . S
O125 Co117 2.135 . S
Co126 O127 2.216 . S
Co126 O128 2.091 . S
Co126 O130 2.004 . S
Co126 O136 2.021 . S
Co126 O138 2.137 . S
Co126 O139 2.244 . S
O127 Co126 2.216 . S
O127 C134 1.247 . S
O128 Co126 2.091 . S
O128 C134 1.261 . S
C129 O138 1.247 . S
C129 O139 1.272 . S
O130 Co126 2.004 . S
O130 C135 1.259 . S
Co131 O132 2.061 . S
Co131 O137 2.052 . S
Co131 O139 2.135 . S
O132 Co131 2.061 . S
O132 C135 1.235 . S
C133 O136 1.238 . S
C133 O137 1.241 . S
C134 O127 1.247 . S
C134 O128 1.261 . S
C135 O130 1.259 . S
C135 O132 1.235 . S
O136 Co126 2.021 . S
O136 C133 1.238 . S
O137 Co131 2.052 . S
O137 C133 1.241 . S
O138 Co126 2.137 . S
O138 C129 1.247 . S
O139 Co126 2.244 . S
O139 C129 1.272 . S
O139 Co131 2.135 . S
Co140 O141 2.216 . S
Co140 O142 2.091 . S
Co140 O144 2.004 1_565 S
Co140 O150 2.021 . S
Co140 O152 2.137 1_565 S
Co140 O153 2.244 1_565 S
O141 Co140 2.216 . S
O141 C148 1.247 . S
O142 Co140 2.091 . S
O142 C148 1.261 . S
C143 O152 1.247 . S
C143 O153 1.272 . S
O144 Co140 2.004 1_545 S
O144 C149 1.259 . S
Co145 O146 2.061 . S
Co145 O151 2.052 1_545 S
Co145 O153 2.135 . S
O146 Co145 2.061 . S
O146 C149 1.235 . S
C147 O150 1.238 . S
C147 O151 1.241 . S
C148 O141 1.247 . S
C148 O142 1.261 . S
C149 O144 1.259 . S
C149 O146 1.235 . S
O150 Co140 2.021 . S
O150 C147 1.238 . S
O151 Co145 2.052 1_565 S
O151 C147 1.241 . S
O152 Co140 2.137 1_545 S
O152 C143 1.247 . S
O153 Co140 2.244 1_545 S
O153 C143 1.272 . S
O153 Co145 2.135 . S
Co154 O155 2.216 . S
Co154 O156 2.091 . S
Co154 O158 2.004 . S
Co154 O164 2.021 . S
Co154 O166 2.137 . S
Co154 O167 2.244 . S
O155 Co154 2.216 . S
O155 C162 1.247 . S
O156 Co154 2.091 . S
O156 C162 1.261 . S
C157 O166 1.247 . S
C157 O167 1.272 . S
O158 Co154 2.004 . S
O158 C163 1.259 . S
Co159 O160 2.061 . S
Co159 O165 2.052 . S
Co159 O167 2.135 . S
O160 Co159 2.061 . S
O160 C163 1.235 . S
C161 O164 1.238 . S
C161 O165 1.241 . S
C162 O155 1.247 . S
C162 O156 1.261 . S
C163 O158 1.259 . S
C163 O160 1.235 . S
O164 Co154 2.021 . S
O164 C161 1.238 . S
O165 Co159 2.052 . S
O165 C161 1.241 . S
O166 Co154 2.137 . S
O166 C157 1.247 . S
O167 Co154 2.244 . S
O167 C157 1.272 . S
O167 Co159 2.135 . S
Co168 O169 2.216 . S
Co168 O170 2.091 . S
Co168 O172 2.004 1_565 S
Co168 O178 2.021 . S
Co168 O180 2.137 1_565 S
Co168 O181 2.244 1_565 S
O169 Co168 2.216 . S
O169 C176 1.247 . S
O170 Co168 2.091 . S
O170 C176 1.261 . S
C171 O180 1.247 . S
C171 O181 1.272 . S
O172 Co168 2.004 1_545 S
O172 C177 1.259 . S
Co173 O174 2.061 . S
Co173 O179 2.052 1_545 S
Co173 O181 2.135 . S
O174 Co173 2.061 . S
O174 C177 1.235 . S
C175 O178 1.238 . S
C175 O179 1.241 . S
C176 O169 1.247 . S
C176 O170 1.261 . S
C177 O172 1.259 . S
C177 O174 1.235 . S
O178 Co168 2.021 . S
O178 C175 1.238 . S
O179 Co173 2.052 1_565 S
O179 C175 1.241 . S
O180 Co168 2.137 1_545 S
O180 C171 1.247 . S
O181 Co168 2.244 1_545 S
O181 C171 1.272 . S
O181 Co173 2.135 . S
Co182 O183 2.216 . S
Co182 O184 2.091 . S
Co182 O186 2.004 . S
Co182 O192 2.021 . S
Co182 O194 2.137 . S
Co182 O195 2.244 . S
O183 Co182 2.216 . S
O183 C190 1.247 . S
O184 Co182 2.091 . S
O184 C190 1.261 . S
C185 O194 1.247 . S
C185 O195 1.272 . S
O186 Co182 2.004 . S
O186 C191 1.259 . S
Co187 O188 2.061 . S
Co187 O193 2.052 . S
Co187 O195 2.135 . S
O188 Co187 2.061 . S
O188 C191 1.235 . S
C189 O192 1.238 . S
C189 O193 1.241 . S
C190 O183 1.247 . S
C190 O184 1.261 . S
C191 O186 1.259 . S
C191 O188 1.235 . S
O192 Co182 2.021 . S
O192 C189 1.238 . S
O193 Co187 2.052 . S
O193 C189 1.241 . S
O194 Co182 2.137 . S
O194 C185 1.247 . S
O195 Co182 2.244 . S
O195 C185 1.272 . S
O195 Co187 2.135 . S
Co196 O197 2.216 . S
Co196 O198 2.091 . S
Co196 O200 2.004 1_545 S
Co196 O206 2.021 . S
Co196 O208 2.137 1_545 S
Co196 O209 2.244 1_545 S
O197 Co196 2.216 . S
O197 C204 1.247 . S
O198 Co196 2.091 . S
O198 C204 1.261 . S
C199 O208 1.247 . S
C199 O209 1.272 . S
O200 Co196 2.004 1_565 S
O200 C205 1.259 . S
Co201 O202 2.061 . S
Co201 O207 2.052 1_565 S
Co201 O209 2.135 . S
O202 Co201 2.061 . S
O202 C205 1.235 . S
C203 O206 1.238 . S
C203 O207 1.241 . S
C204 O197 1.247 . S
C204 O198 1.261 . S
C205 O200 1.259 . S
C205 O202 1.235 . S
O206 Co196 2.021 . S
O206 C203 1.238 . S
O207 Co201 2.052 1_545 S
O207 C203 1.241 . S
O208 Co196 2.137 1_565 S
O208 C199 1.247 . S
O209 Co196 2.244 1_565 S
O209 C199 1.272 . S
O209 Co201 2.135 . S
Co210 O211 2.216 . S
Co210 O212 2.091 . S
Co210 O214 2.004 . S
Co210 O220 2.021 . S
Co210 O222 2.137 . S
Co210 O223 2.244 . S
O211 Co210 2.216 . S
O211 C218 1.247 . S
O212 Co210 2.091 . S
O212 C218 1.261 . S
C213 O222 1.247 . S
C213 O223 1.272 . S
O214 Co210 2.004 . S
O214 C219 1.259 . S
Co215 O216 2.061 . S
Co215 O221 2.052 . S
Co215 O223 2.135 . S
O216 Co215 2.061 . S
O216 C219 1.235 . S
C217 O220 1.238 . S
C217 O221 1.241 . S
C218 O211 1.247 . S
C218 O212 1.261 . S
C219 O214 1.259 . S
C219 O216 1.235 . S
O220 Co210 2.021 . S
O220 C217 1.238 . S
O221 Co215 2.052 . S
O221 C217 1.241 . S
O222 Co210 2.137 . S
O222 C213 1.247 . S
O223 Co210 2.244 . S
O223 C213 1.272 . S
O223 Co215 2.135 . S
Co224 O225 2.216 1_554 S
Co224 O226 2.091 1_554 S
Co224 O228 2.004 . S
Co224 O234 2.021 1_554 S
Co224 O236 2.137 . S
Co224 O237 2.244 . S
O225 Co224 2.216 1_556 S
O225 C232 1.247 . S
O226 Co224 2.091 1_556 S
O226 C232 1.261 . S
C227 O236 1.247 . S
C227 O237 1.272 . S
O228 Co224 2.004 . S
O228 C233 1.259 . S
Co229 O230 2.061 . S
Co229 O235 2.052 1_554 S
Co229 O237 2.135 . S
O230 Co229 2.061 . S
O230 C233 1.235 . S
C231 O234 1.238 . S
C231 O235 1.241 . S
C232 O225 1.247 . S
C232 O226 1.261 . S
C233 O228 1.259 . S
C233 O230 1.235 . S
O234 Co224 2.021 1_556 S
O234 C231 1.238 . S
O235 Co229 2.052 1_556 S
O235 C231 1.241 . S
O236 Co224 2.137 . S
O236 C227 1.247 . S
O237 Co224 2.244 . S
O237 C227 1.272 . S
O237 Co229 2.135 . S
Co238 O239 2.216 1_556 S
Co238 O240 2.091 1_556 S
Co238 O242 2.004 . S
Co238 O248 2.021 1_556 S
Co238 O250 2.137 . S
Co238 O251 2.244 . S
O239 Co238 2.216 1_554 S
O239 C246 1.247 . S
O240 Co238 2.091 1_554 S
O240 C246 1.261 . S
C241 O250 1.247 . S
C241 O251 1.272 . S
O242 Co238 2.004 . S
O242 C247 1.259 . S
Co243 O244 2.061 . S
Co243 O249 2.052 1_556 S
Co243 O251 2.135 . S
O244 Co243 2.061 . S
O244 C247 1.235 . S
C245 O248 1.238 . S
C245 O249 1.241 . S
C246 O239 1.247 . S
C246 O240 1.261 . S
C247 O242 1.259 . S
C247 O244 1.235 . S
O248 Co238 2.021 1_554 S
O248 C245 1.238 . S
O249 Co243 2.052 1_554 S
O249 C245 1.241 . S
O250 Co238 2.137 . S
O250 C241 1.247 . S
O251 Co238 2.244 . S
O251 C241 1.272 . S
O251 Co243 2.135 . S
Co252 O253 2.216 . S
Co252 O254 2.091 . S
Co252 O256 2.004 . S
Co252 O262 2.021 . S
Co252 O264 2.137 . S
Co252 O265 2.244 . S
O253 Co252 2.216 . S
O253 C260 1.247 . S
O254 Co252 2.091 . S
O254 C260 1.261 . S
C255 O264 1.247 . S
C255 O265 1.272 . S
O256 Co252 2.004 . S
O256 C261 1.259 . S
Co257 O258 2.061 . S
Co257 O263 2.052 . S
Co257 O265 2.135 . S
O258 Co257 2.061 . S
O258 C261 1.235 . S
C259 O262 1.238 . S
C259 O263 1.241 . S
C260 O253 1.247 . S
C260 O254 1.261 . S
C261 O256 1.259 . S
C261 O258 1.235 . S
O262 Co252 2.021 . S
O262 C259 1.238 . S
O263 Co257 2.052 . S
O263 C259 1.241 . S
O264 Co252 2.137 . S
O264 C255 1.247 . S
O265 Co252 2.244 . S
O265 C255 1.272 . S
O265 Co257 2.135 . S
Co266 O267 2.216 . S
Co266 O268 2.091 . S
Co266 O270 2.004 . S
Co266 O276 2.021 . S
Co266 O278 2.137 . S
Co266 O279 2.244 . S
O267 Co266 2.216 . S
O267 C274 1.247 . S
O268 Co266 2.091 . S
O268 C274 1.261 . S
C269 O278 1.247 . S
C269 O279 1.272 . S
O270 Co266 2.004 . S
O270 C275 1.259 . S
Co271 O272 2.061 . S
Co271 O277 2.052 . S
Co271 O279 2.135 . S
O272 Co271 2.061 . S
O272 C275 1.235 . S
C273 O276 1.238 . S
C273 O277 1.241 . S
C274 O267 1.247 . S
C274 O268 1.261 . S
C275 O270 1.259 . S
C275 O272 1.235 . S
O276 Co266 2.021 . S
O276 C273 1.238 . S
O277 Co271 2.052 . S
O277 C273 1.241 . S
O278 Co266 2.137 . S
O278 C269 1.247 . S
O279 Co266 2.244 . S
O279 C269 1.272 . S
O279 Co271 2.135 . S
Co280 O281 2.216 . S
Co280 O282 2.091 . S
Co280 O284 2.004 . S
Co280 O290 2.021 . S
Co280 O292 2.137 . S
Co280 O293 2.244 . S
O281 Co280 2.216 . S
O281 C288 1.247 . S
O282 Co280 2.091 . S
O282 C288 1.261 . S
C283 O292 1.247 . S
C283 O293 1.272 . S
O284 Co280 2.004 . S
O284 C289 1.259 . S
Co285 O286 2.061 . S
Co285 O291 2.052 . S
Co285 O293 2.135 . S
O286 Co285 2.061 . S
O286 C289 1.235 . S
C287 O290 1.238 . S
C287 O291 1.241 . S
C288 O281 1.247 . S
C288 O282 1.261 . S
C289 O284 1.259 . S
C289 O286 1.235 . S
O290 Co280 2.021 . S
O290 C287 1.238 . S
O291 Co285 2.052 . S
O291 C287 1.241 . S
O292 Co280 2.137 . S
O292 C283 1.247 . S
O293 Co280 2.244 . S
O293 C283 1.272 . S
O293 Co285 2.135 . S
Co294 O295 2.216 . S
Co294 O296 2.091 . S
Co294 O298 2.004 . S
Co294 O304 2.021 . S
Co294 O306 2.137 . S
Co294 O307 2.244 . S
O295 Co294 2.216 . S
O295 C302 1.247 . S
O296 Co294 2.091 . S
O296 C302 1.261 . S
C297 O306 1.247 . S
C297 O307 1.272 . S
O298 Co294 2.004 . S
O298 C303 1.259 . S
Co299 O300 2.061 . S
Co299 O305 2.052 . S
Co299 O307 2.135 . S
O300 Co299 2.061 . S
O300 C303 1.235 . S
C301 O304 1.238 . S
C301 O305 1.241 . S
C302 O295 1.247 . S
C302 O296 1.261 . S
C303 O298 1.259 . S
C303 O300 1.235 . S
O304 Co294 2.021 . S
O304 C301 1.238 . S
O305 Co299 2.052 . S
O305 C301 1.241 . S
O306 Co294 2.137 . S
O306 C297 1.247 . S
O307 Co294 2.244 . S
O307 C297 1.272 . S
O307 Co299 2.135 . S
Co308 O309 2.216 . S
Co308 O310 2.091 . S
Co308 O312 2.004 . S
Co308 O318 2.021 . S
Co308 O320 2.137 . S
Co308 O321 2.244 . S
O309 Co308 2.216 . S
O309 C316 1.247 . S
O310 Co308 2.091 . S
O310 C316 1.261 . S
C311 O320 1.247 . S
C311 O321 1.272 . S
O312 Co308 2.004 . S
O312 C317 1.259 . S
Co313 O314 2.061 . S
Co313 O319 2.052 . S
Co313 O321 2.135 . S
O314 Co313 2.061 . S
O314 C317 1.235 . S
C315 O318 1.238 . S
C315 O319 1.241 . S
C316 O309 1.247 . S
C316 O310 1.261 . S
C317 O312 1.259 . S
C317 O314 1.235 . S
O318 Co308 2.021 . S
O318 C315 1.238 . S
O319 Co313 2.052 . S
O319 C315 1.241 . S
O320 Co308 2.137 . S
O320 C311 1.247 . S
O321 Co308 2.244 . S
O321 C311 1.272 . S
O321 Co313 2.135 . S
Co322 O323 2.216 . S
Co322 O324 2.091 . S
Co322 O326 2.004 . S
Co322 O332 2.021 . S
Co322 O334 2.137 . S
Co322 O335 2.244 . S
O323 Co322 2.216 . S
O323 C330 1.247 . S
O324 Co322 2.091 . S
O324 C330 1.261 . S
C325 O334 1.247 . S
C325 O335 1.272 . S
O326 Co322 2.004 . S
O326 C331 1.259 . S
Co327 O328 2.061 . S
Co327 O333 2.052 . S
Co327 O335 2.135 . S
O328 Co327 2.061 . S
O328 C331 1.235 . S
C329 O332 1.238 . S
C329 O333 1.241 . S
C330 O323 1.247 . S
C330 O324 1.261 . S
C331 O326 1.259 . S
C331 O328 1.235 . S
O332 Co322 2.021 . S
O332 C329 1.238 . S
O333 Co327 2.052 . S
O333 C329 1.241 . S
O334 Co322 2.137 . S
O334 C325 1.247 . S
O335 Co322 2.244 . S
O335 C325 1.272 . S
O335 Co327 2.135 . S
Co336 O337 2.216 1_655 S
Co336 O338 2.091 1_655 S
Co336 O340 2.004 . S
Co336 O346 2.021 1_655 S
Co336 O348 2.137 . S
Co336 O349 2.244 . S
O337 Co336 2.216 1_455 S
O337 C344 1.247 . S
O338 Co336 2.091 1_455 S
O338 C344 1.261 . S
C339 O348 1.247 . S
C339 O349 1.272 . S
O340 Co336 2.004 . S
O340 C345 1.259 . S
Co341 O342 2.061 . S
Co341 O347 2.052 1_655 S
Co341 O349 2.135 . S
O342 Co341 2.061 . S
O342 C345 1.235 . S
C343 O346 1.238 . S
C343 O347 1.241 . S
C344 O337 1.247 . S
C344 O338 1.261 . S
C345 O340 1.259 . S
C345 O342 1.235 . S
O346 Co336 2.021 1_455 S
O346 C343 1.238 . S
O347 Co341 2.052 1_455 S
O347 C343 1.241 . S
O348 Co336 2.137 . S
O348 C339 1.247 . S
O349 Co336 2.244 . S
O349 C339 1.272 . S
O349 Co341 2.135 . S
Co350 O351 2.216 . S
Co350 O352 2.091 . S
Co350 O354 2.004 . S
Co350 O360 2.021 . S
Co350 O362 2.137 . S
Co350 O363 2.244 . S
O351 Co350 2.216 . S
O351 C358 1.247 . S
O352 Co350 2.091 . S
O352 C358 1.261 . S
C353 O362 1.247 . S
C353 O363 1.272 . S
O354 Co350 2.004 . S
O354 C359 1.259 . S
Co355 O356 2.061 . S
Co355 O361 2.052 . S
Co355 O363 2.135 . S
O356 Co355 2.061 . S
O356 C359 1.235 . S
C357 O360 1.238 . S
C357 O361 1.241 . S
C358 O351 1.247 . S
C358 O352 1.261 . S
C359 O354 1.259 . S
C359 O356 1.235 . S
O360 Co350 2.021 . S
O360 C357 1.238 . S
O361 Co355 2.052 . S
O361 C357 1.241 . S
O362 Co350 2.137 . S
O362 C353 1.247 . S
O363 Co350 2.244 . S
O363 C353 1.272 . S
O363 Co355 2.135 . S
Co364 O365 2.216 . S
Co364 O366 2.091 . S
Co364 O368 2.004 . S
Co364 O374 2.021 . S
Co364 O376 2.137 . S
Co364 O377 2.244 . S
O365 Co364 2.216 . S
O365 C372 1.247 . S
O366 Co364 2.091 . S
O366 C372 1.261 . S
C367 O376 1.247 . S
C367 O377 1.272 . S
O368 Co364 2.004 . S
O368 C373 1.259 . S
Co369 O370 2.061 . S
Co369 O375 2.052 . S
Co369 O377 2.135 . S
O370 Co369 2.061 . S
O370 C373 1.235 . S
C371 O374 1.238 . S
C371 O375 1.241 . S
C372 O365 1.247 . S
C372 O366 1.261 . S
C373 O368 1.259 . S
C373 O370 1.235 . S
O374 Co364 2.021 . S
O374 C371 1.238 . S
O375 Co369 2.052 . S
O375 C371 1.241 . S
O376 Co364 2.137 . S
O376 C367 1.247 . S
O377 Co364 2.244 . S
O377 C367 1.272 . S
O377 Co369 2.135 . S
Co378 O379 2.216 . S
Co378 O380 2.091 . S
Co378 O382 2.004 . S
Co378 O388 2.021 . S
Co378 O390 2.137 . S
Co378 O391 2.244 . S
O379 Co378 2.216 . S
O379 C386 1.247 . S
O380 Co378 2.091 . S
O380 C386 1.261 . S
C381 O390 1.247 . S
C381 O391 1.272 . S
O382 Co378 2.004 . S
O382 C387 1.259 . S
Co383 O384 2.061 . S
Co383 O389 2.052 . S
Co383 O391 2.135 . S
O384 Co383 2.061 . S
O384 C387 1.235 . S
C385 O388 1.238 . S
C385 O389 1.241 . S
C386 O379 1.247 . S
C386 O380 1.261 . S
C387 O382 1.259 . S
C387 O384 1.235 . S
O388 Co378 2.021 . S
O388 C385 1.238 . S
O389 Co383 2.052 . S
O389 C385 1.241 . S
O390 Co378 2.137 . S
O390 C381 1.247 . S
O391 Co378 2.244 . S
O391 C381 1.272 . S
O391 Co383 2.135 . S
Co392 O393 2.216 1_655 S
Co392 O394 2.091 1_655 S
Co392 O396 2.004 . S
Co392 O402 2.021 1_655 S
Co392 O404 2.137 . S
Co392 O405 2.244 . S
O393 Co392 2.216 1_455 S
O393 C400 1.247 . S
O394 Co392 2.091 1_455 S
O394 C400 1.261 . S
C395 O404 1.247 . S
C395 O405 1.272 . S
O396 Co392 2.004 . S
O396 C401 1.259 . S
Co397 O398 2.061 . S
Co397 O403 2.052 1_655 S
Co397 O405 2.135 . S
O398 Co397 2.061 . S
O398 C401 1.235 . S
C399 O402 1.238 . S
C399 O403 1.241 . S
C400 O393 1.247 . S
C400 O394 1.261 . S
C401 O396 1.259 . S
C401 O398 1.235 . S
O402 Co392 2.021 1_455 S
O402 C399 1.238 . S
O403 Co397 2.052 1_455 S
O403 C399 1.241 . S
O404 Co392 2.137 . S
O404 C395 1.247 . S
O405 Co392 2.244 . S
O405 C395 1.272 . S
O405 Co397 2.135 . S
Co406 O407 2.216 . S
Co406 O408 2.091 . S
Co406 O410 2.004 . S
Co406 O416 2.021 . S
Co406 O418 2.137 . S
Co406 O419 2.244 . S
O407 Co406 2.216 . S
O407 C414 1.247 . S
O408 Co406 2.091 . S
O408 C414 1.261 . S
C409 O418 1.247 . S
C409 O419 1.272 . S
O410 Co406 2.004 . S
O410 C415 1.259 . S
Co411 O412 2.061 . S
Co411 O417 2.052 . S
Co411 O419 2.135 . S
O412 Co411 2.061 . S
O412 C415 1.235 . S
C413 O416 1.238 . S
C413 O417 1.241 . S
C414 O407 1.247 . S
C414 O408 1.261 . S
C415 O410 1.259 . S
C415 O412 1.235 . S
O416 Co406 2.021 . S
O416 C413 1.238 . S
O417 Co411 2.052 . S
O417 C413 1.241 . S
O418 Co406 2.137 . S
O418 C409 1.247 . S
O419 Co406 2.244 . S
O419 C409 1.272 . S
O419 Co411 2.135 . S
Co420 O421 2.216 . S
Co420 O422 2.091 . S
Co420 O424 2.004 . S
Co420 O430 2.021 . S
Co420 O432 2.137 . S
Co420 O433 2.244 . S
O421 Co420 2.216 . S
O421 C428 1.247 . S
O422 Co420 2.091 . S
O422 C428 1.261 . S
C423 O432 1.247 . S
C423 O433 1.272 . S
O424 Co420 2.004 . S
O424 C429 1.259 . S
Co425 O426 2.061 . S
Co425 O431 2.052 . S
Co425 O433 2.135 . S
O426 Co425 2.061 . S
O426 C429 1.235 . S
C427 O430 1.238 . S
C427 O431 1.241 . S
C428 O421 1.247 . S
C428 O422 1.261 . S
C429 O424 1.259 . S
C429 O426 1.235 . S
O430 Co420 2.021 . S
O430 C427 1.238 . S
O431 Co425 2.052 . S
O431 C427 1.241 . S
O432 Co420 2.137 . S
O432 C423 1.247 . S
O433 Co420 2.244 . S
O433 C423 1.272 . S
O433 Co425 2.135 . S
Co434 O435 2.216 . S
Co434 O436 2.091 . S
Co434 O438 2.004 . S
Co434 O444 2.021 . S
Co434 O446 2.137 . S
Co434 O447 2.244 . S
O435 Co434 2.216 . S
O435 C442 1.247 . S
O436 Co434 2.091 . S
O436 C442 1.261 . S
C437 O446 1.247 . S
C437 O447 1.272 . S
O438 Co434 2.004 . S
O438 C443 1.259 . S
Co439 O440 2.061 . S
Co439 O445 2.052 . S
Co439 O447 2.135 . S
O440 Co439 2.061 . S
O440 C443 1.235 . S
C441 O444 1.238 . S
C441 O445 1.241 . S
C442 O435 1.247 . S
C442 O436 1.261 . S
C443 O438 1.259 . S
C443 O440 1.235 . S
O444 Co434 2.021 . S
O444 C441 1.238 . S
O445 Co439 2.052 . S
O445 C441 1.241 . S
O446 Co434 2.137 . S
O446 C437 1.247 . S
O447 Co434 2.244 . S
O447 C437 1.272 . S
O447 Co439 2.135 . S
Co448 O449 2.216 1_565 S
Co448 O450 2.091 1_565 S
Co448 O452 2.004 . S
Co448 O458 2.021 1_565 S
Co448 O460 2.137 . S
Co448 O461 2.244 . S
O449 Co448 2.216 1_545 S
O449 C456 1.247 . S
O450 Co448 2.091 1_545 S
O450 C456 1.261 . S
C451 O460 1.247 . S
C451 O461 1.272 . S
O452 Co448 2.004 . S
O452 C457 1.259 . S
Co453 O454 2.061 . S
Co453 O459 2.052 1_565 S
Co453 O461 2.135 . S
O454 Co453 2.061 . S
O454 C457 1.235 . S
C455 O458 1.238 . S
C455 O459 1.241 . S
C456 O449 1.247 . S
C456 O450 1.261 . S
C457 O452 1.259 . S
C457 O454 1.235 . S
O458 Co448 2.021 1_545 S
O458 C455 1.238 . S
O459 Co453 2.052 1_545 S
O459 C455 1.241 . S
O460 Co448 2.137 . S
O460 C451 1.247 . S
O461 Co448 2.244 . S
O461 C451 1.272 . S
O461 Co453 2.135 . S
Co462 O463 2.216 . S
Co462 O464 2.091 . S
Co462 O466 2.004 . S
Co462 O472 2.021 . S
Co462 O474 2.137 . S
Co462 O475 2.244 . S
O463 Co462 2.216 . S
O463 C470 1.247 . S
O464 Co462 2.091 . S
O464 C470 1.261 . S
C465 O474 1.247 . S
C465 O475 1.272 . S
O466 Co462 2.004 . S
O466 C471 1.259 . S
Co467 O468 2.061 . S
Co467 O473 2.052 . S
Co467 O475 2.135 . S
O468 Co467 2.061 . S
O468 C471 1.235 . S
C469 O472 1.238 . S
C469 O473 1.241 . S
C470 O463 1.247 . S
C470 O464 1.261 . S
C471 O466 1.259 . S
C471 O468 1.235 . S
O472 Co462 2.021 . S
O472 C469 1.238 . S
O473 Co467 2.052 . S
O473 C469 1.241 . S
O474 Co462 2.137 . S
O474 C465 1.247 . S
O475 Co462 2.244 . S
O475 C465 1.272 . S
O475 Co467 2.135 . S
Co476 O477 2.216 1_545 S
Co476 O478 2.091 1_545 S
Co476 O480 2.004 . S
Co476 O486 2.021 1_545 S
Co476 O488 2.137 . S
Co476 O489 2.244 . S
O477 Co476 2.216 1_565 S
O477 C484 1.247 . S
O478 Co476 2.091 1_565 S
O478 C484 1.261 . S
C479 O488 1.247 . S
C479 O489 1.272 . S
O480 Co476 2.004 . S
O480 C485 1.259 . S
Co481 O482 2.061 . S
Co481 O487 2.052 1_545 S
Co481 O489 2.135 . S
O482 Co481 2.061 . S
O482 C485 1.235 . S
C483 O486 1.238 . S
C483 O487 1.241 . S
C484 O477 1.247 . S
C484 O478 1.261 . S
C485 O480 1.259 . S
C485 O482 1.235 . S
O486 Co476 2.021 1_565 S
O486 C483 1.238 . S
O487 Co481 2.052 1_565 S
O487 C483 1.241 . S
O488 Co476 2.137 . S
O488 C479 1.247 . S
O489 Co476 2.244 . S
O489 C479 1.272 . S
O489 Co481 2.135 . S
Co490 O491 2.216 . S
Co490 O492 2.091 . S
Co490 O494 2.004 . S
Co490 O500 2.021 . S
Co490 O502 2.137 . S
Co490 O503 2.244 . S
O491 Co490 2.216 . S
O491 C498 1.247 . S
O492 Co490 2.091 . S
O492 C498 1.261 . S
C493 O502 1.247 . S
C493 O503 1.272 . S
O494 Co490 2.004 . S
O494 C499 1.259 . S
Co495 O496 2.061 . S
Co495 O501 2.052 . S
Co495 O503 2.135 . S
O496 Co495 2.061 . S
O496 C499 1.235 . S
C497 O500 1.238 . S
C497 O501 1.241 . S
C498 O491 1.247 . S
C498 O492 1.261 . S
C499 O494 1.259 . S
C499 O496 1.235 . S
O500 Co490 2.021 . S
O500 C497 1.238 . S
O501 Co495 2.052 . S
O501 C497 1.241 . S
O502 Co490 2.137 . S
O502 C493 1.247 . S
O503 Co490 2.244 . S
O503 C493 1.272 . S
O503 Co495 2.135 . S
Co504 O505 2.216 1_545 S
Co504 O506 2.091 1_545 S
Co504 O508 2.004 . S
Co504 O514 2.021 1_545 S
Co504 O516 2.137 . S
Co504 O517 2.244 . S
O505 Co504 2.216 1_565 S
O505 C512 1.247 . S
O506 Co504 2.091 1_565 S
O506 C512 1.261 . S
C507 O516 1.247 . S
C507 O517 1.272 . S
O508 Co504 2.004 . S
O508 C513 1.259 . S
Co509 O510 2.061 . S
Co509 O515 2.052 1_545 S
Co509 O517 2.135 . S
O510 Co509 2.061 . S
O510 C513 1.235 . S
C511 O514 1.238 . S
C511 O515 1.241 . S
C512 O505 1.247 . S
C512 O506 1.261 . S
C513 O508 1.259 . S
C513 O510 1.235 . S
O514 Co504 2.021 1_565 S
O514 C511 1.238 . S
O515 Co509 2.052 1_565 S
O515 C511 1.241 . S
O516 Co504 2.137 . S
O516 C507 1.247 . S
O517 Co504 2.244 . S
O517 C507 1.272 . S
O517 Co509 2.135 . S
Co518 O519 2.216 . S
Co518 O520 2.091 . S
Co518 O522 2.004 . S
Co518 O528 2.021 . S
Co518 O530 2.137 . S
Co518 O531 2.244 . S
O519 Co518 2.216 . S
O519 C526 1.247 . S
O520 Co518 2.091 . S
O520 C526 1.261 . S
C521 O530 1.247 . S
C521 O531 1.272 . S
O522 Co518 2.004 . S
O522 C527 1.259 . S
Co523 O524 2.061 . S
Co523 O529 2.052 . S
Co523 O531 2.135 . S
O524 Co523 2.061 . S
O524 C527 1.235 . S
C525 O528 1.238 . S
C525 O529 1.241 . S
C526 O519 1.247 . S
C526 O520 1.261 . S
C527 O522 1.259 . S
C527 O524 1.235 . S
O528 Co518 2.021 . S
O528 C525 1.238 . S
O529 Co523 2.052 . S
O529 C525 1.241 . S
O530 Co518 2.137 . S
O530 C521 1.247 . S
O531 Co518 2.244 . S
O531 C521 1.272 . S
O531 Co523 2.135 . S
Co532 O533 2.216 1_565 S
Co532 O534 2.091 1_565 S
Co532 O536 2.004 . S
Co532 O542 2.021 1_565 S
Co532 O544 2.137 . S
Co532 O545 2.244 . S
O533 Co532 2.216 1_545 S
O533 C540 1.247 . S
O534 Co532 2.091 1_545 S
O534 C540 1.261 . S
C535 O544 1.247 . S
C535 O545 1.272 . S
O536 Co532 2.004 . S
O536 C541 1.259 . S
Co537 O538 2.061 . S
Co537 O543 2.052 1_565 S
Co537 O545 2.135 . S
O538 Co537 2.061 . S
O538 C541 1.235 . S
C539 O542 1.238 . S
C539 O543 1.241 . S
C540 O533 1.247 . S
C540 O534 1.261 . S
C541 O536 1.259 . S
C541 O538 1.235 . S
O542 Co532 2.021 1_545 S
O542 C539 1.238 . S
O543 Co537 2.052 1_545 S
O543 C539 1.241 . S
O544 Co532 2.137 . S
O544 C535 1.247 . S
O545 Co532 2.244 . S
O545 C535 1.272 . S
O545 Co537 2.135 . S
Co546 O547 2.216 . S
Co546 O548 2.091 . S
Co546 O550 2.004 . S
Co546 O556 2.021 . S
Co546 O558 2.137 . S
Co546 O559 2.244 . S
O547 Co546 2.216 . S
O547 C554 1.247 . S
O548 Co546 2.091 . S
O548 C554 1.261 . S
C549 O558 1.247 . S
C549 O559 1.272 . S
O550 Co546 2.004 . S
O550 C555 1.259 . S
Co551 O552 2.061 . S
Co551 O557 2.052 . S
Co551 O559 2.135 . S
O552 Co551 2.061 . S
O552 C555 1.235 . S
C553 O556 1.238 . S
C553 O557 1.241 . S
C554 O547 1.247 . S
C554 O548 1.261 . S
C555 O550 1.259 . S
C555 O552 1.235 . S
O556 Co546 2.021 . S
O556 C553 1.238 . S
O557 Co551 2.052 . S
O557 C553 1.241 . S
O558 Co546 2.137 . S
O558 C549 1.247 . S
O559 Co546 2.244 . S
O559 C549 1.272 . S
O559 Co551 2.135 . S
Co560 O561 2.216 1_556 S
Co560 O562 2.091 1_556 S
Co560 O564 2.004 . S
Co560 O570 2.021 1_556 S
Co560 O572 2.137 . S
Co560 O573 2.244 . S
O561 Co560 2.216 1_554 S
O561 C568 1.247 . S
O562 Co560 2.091 1_554 S
O562 C568 1.261 . S
C563 O572 1.247 . S
C563 O573 1.272 . S
O564 Co560 2.004 . S
O564 C569 1.259 . S
Co565 O566 2.061 . S
Co565 O571 2.052 1_556 S
Co565 O573 2.135 . S
O566 Co565 2.061 . S
O566 C569 1.235 . S
C567 O570 1.238 . S
C567 O571 1.241 . S
C568 O561 1.247 . S
C568 O562 1.261 . S
C569 O564 1.259 . S
C569 O566 1.235 . S
O570 Co560 2.021 1_554 S
O570 C567 1.238 . S
O571 Co565 2.052 1_554 S
O571 C567 1.241 . S
O572 Co560 2.137 . S
O572 C563 1.247 . S
O573 Co560 2.244 . S
O573 C563 1.272 . S
O573 Co565 2.135 . S
Co574 O575 2.216 1_554 S
Co574 O576 2.091 1_554 S
Co574 O578 2.004 . S
Co574 O584 2.021 1_554 S
Co574 O586 2.137 . S
Co574 O587 2.244 . S
O575 Co574 2.216 1_556 S
O575 C582 1.247 . S
O576 Co574 2.091 1_556 S
O576 C582 1.261 . S
C577 O586 1.247 . S
C577 O587 1.272 . S
O578 Co574 2.004 . S
O578 C583 1.259 . S
Co579 O580 2.061 . S
Co579 O585 2.052 1_554 S
Co579 O587 2.135 . S
O580 Co579 2.061 . S
O580 C583 1.235 . S
C581 O584 1.238 . S
C581 O585 1.241 . S
C582 O575 1.247 . S
C582 O576 1.261 . S
C583 O578 1.259 . S
C583 O580 1.235 . S
O584 Co574 2.021 1_556 S
O584 C581 1.238 . S
O585 Co579 2.052 1_556 S
O585 C581 1.241 . S
O586 Co574 2.137 . S
O586 C577 1.247 . S
O587 Co574 2.244 . S
O587 C577 1.272 . S
O587 Co579 2.135 . S
Co588 O589 2.216 . S
Co588 O590 2.091 . S
Co588 O592 2.004 . S
Co588 O598 2.021 . S
Co588 O600 2.137 . S
Co588 O601 2.244 . S
O589 Co588 2.216 . S
O589 C596 1.247 . S
O590 Co588 2.091 . S
O590 C596 1.261 . S
C591 O600 1.247 . S
C591 O601 1.272 . S
O592 Co588 2.004 . S
O592 C597 1.259 . S
Co593 O594 2.061 . S
Co593 O599 2.052 . S
Co593 O601 2.135 . S
O594 Co593 2.061 . S
O594 C597 1.235 . S
C595 O598 1.238 . S
C595 O599 1.241 . S
C596 O589 1.247 . S
C596 O590 1.261 . S
C597 O592 1.259 . S
C597 O594 1.235 . S
O598 Co588 2.021 . S
O598 C595 1.238 . S
O599 Co593 2.052 . S
O599 C595 1.241 . S
O600 Co588 2.137 . S
O600 C591 1.247 . S
O601 Co588 2.244 . S
O601 C591 1.272 . S
O601 Co593 2.135 . S
Co602 O603 2.216 . S
Co602 O604 2.091 . S
Co602 O606 2.004 . S
Co602 O612 2.021 . S
Co602 O614 2.137 . S
Co602 O615 2.244 . S
O603 Co602 2.216 . S
O603 C610 1.247 . S
O604 Co602 2.091 . S
O604 C610 1.261 . S
C605 O614 1.247 . S
C605 O615 1.272 . S
O606 Co602 2.004 . S
O606 C611 1.259 . S
Co607 O608 2.061 . S
Co607 O613 2.052 . S
Co607 O615 2.135 . S
O608 Co607 2.061 . S
O608 C611 1.235 . S
C609 O612 1.238 . S
C609 O613 1.241 . S
C610 O603 1.247 . S
C610 O604 1.261 . S
C611 O606 1.259 . S
C611 O608 1.235 . S
O612 Co602 2.021 . S
O612 C609 1.238 . S
O613 Co607 2.052 . S
O613 C609 1.241 . S
O614 Co602 2.137 . S
O614 C605 1.247 . S
O615 Co602 2.244 . S
O615 C605 1.272 . S
O615 Co607 2.135 . S
Co616 O617 2.216 . S
Co616 O618 2.091 . S
Co616 O620 2.004 . S
Co616 O626 2.021 . S
Co616 O628 2.137 . S
Co616 O629 2.244 . S
O617 Co616 2.216 . S
O617 C624 1.247 . S
O618 Co616 2.091 . S
O618 C624 1.261 . S
C619 O628 1.247 . S
C619 O629 1.272 . S
O620 Co616 2.004 . S
O620 C625 1.259 . S
Co621 O622 2.061 . S
Co621 O627 2.052 . S
Co621 O629 2.135 . S
O622 Co621 2.061 . S
O622 C625 1.235 . S
C623 O626 1.238 . S
C623 O627 1.241 . S
C624 O617 1.247 . S
C624 O618 1.261 . S
C625 O620 1.259 . S
C625 O622 1.235 . S
O626 Co616 2.021 . S
O626 C623 1.238 . S
O627 Co621 2.052 . S
O627 C623 1.241 . S
O628 Co616 2.137 . S
O628 C619 1.247 . S
O629 Co616 2.244 . S
O629 C619 1.272 . S
O629 Co621 2.135 . S
Co630 O631 2.216 . S
Co630 O632 2.091 . S
Co630 O634 2.004 . S
Co630 O640 2.021 . S
Co630 O642 2.137 . S
Co630 O643 2.244 . S
O631 Co630 2.216 . S
O631 C638 1.247 . S
O632 Co630 2.091 . S
O632 C638 1.261 . S
C633 O642 1.247 . S
C633 O643 1.272 . S
O634 Co630 2.004 . S
O634 C639 1.259 . S
Co635 O636 2.061 . S
Co635 O641 2.052 . S
Co635 O643 2.135 . S
O636 Co635 2.061 . S
O636 C639 1.235 . S
C637 O640 1.238 . S
C637 O641 1.241 . S
C638 O631 1.247 . S
C638 O632 1.261 . S
C639 O634 1.259 . S
C639 O636 1.235 . S
O640 Co630 2.021 . S
O640 C637 1.238 . S
O641 Co635 2.052 . S
O641 C637 1.241 . S
O642 Co630 2.137 . S
O642 C633 1.247 . S
O643 Co630 2.244 . S
O643 C633 1.272 . S
O643 Co635 2.135 . S
Co644 O645 2.216 . S
Co644 O646 2.091 . S
Co644 O648 2.004 . S
Co644 O654 2.021 . S
Co644 O656 2.137 . S
Co644 O657 2.244 . S
O645 Co644 2.216 . S
O645 C652 1.247 . S
O646 Co644 2.091 . S
O646 C652 1.261 . S
C647 O656 1.247 . S
C647 O657 1.272 . S
O648 Co644 2.004 . S
O648 C653 1.259 . S
Co649 O650 2.061 . S
Co649 O655 2.052 . S
Co649 O657 2.135 . S
O650 Co649 2.061 . S
O650 C653 1.235 . S
C651 O654 1.238 . S
C651 O655 1.241 . S
C652 O645 1.247 . S
C652 O646 1.261 . S
C653 O648 1.259 . S
C653 O650 1.235 . S
O654 Co644 2.021 . S
O654 C651 1.238 . S
O655 Co649 2.052 . S
O655 C651 1.241 . S
O656 Co644 2.137 . S
O656 C647 1.247 . S
O657 Co644 2.244 . S
O657 C647 1.272 . S
O657 Co649 2.135 . S
Co658 O659 2.216 . S
Co658 O660 2.091 . S
Co658 O662 2.004 . S
Co658 O668 2.021 . S
Co658 O670 2.137 . S
Co658 O671 2.244 . S
O659 Co658 2.216 . S
O659 C666 1.247 . S
O660 Co658 2.091 . S
O660 C666 1.261 . S
C661 O670 1.247 . S
C661 O671 1.272 . S
O662 Co658 2.004 . S
O662 C667 1.259 . S
Co663 O664 2.061 . S
Co663 O669 2.052 . S
Co663 O671 2.135 . S
O664 Co663 2.061 . S
O664 C667 1.235 . S
C665 O668 1.238 . S
C665 O669 1.241 . S
C666 O659 1.247 . S
C666 O660 1.261 . S
C667 O662 1.259 . S
C667 O664 1.235 . S
O668 Co658 2.021 . S
O668 C665 1.238 . S
O669 Co663 2.052 . S
O669 C665 1.241 . S
O670 Co658 2.137 . S
O670 C661 1.247 . S
O671 Co658 2.244 . S
O671 C661 1.272 . S
O671 Co663 2.135 . S
Co672 O673 2.216 . S
Co672 O674 2.091 . S
Co672 O676 2.004 . S
Co672 O682 2.021 . S
Co672 O684 2.137 . S
Co672 O685 2.244 . S
O673 Co672 2.216 . S
O673 C680 1.247 . S
O674 Co672 2.091 . S
O674 C680 1.261 . S
C675 O684 1.247 . S
C675 O685 1.272 . S
O676 Co672 2.004 . S
O676 C681 1.259 . S
Co677 O678 2.061 . S
Co677 O683 2.052 . S
Co677 O685 2.135 . S
O678 Co677 2.061 . S
O678 C681 1.235 . S
C679 O682 1.238 . S
C679 O683 1.241 . S
C680 O673 1.247 . S
C680 O674 1.261 . S
C681 O676 1.259 . S
C681 O678 1.235 . S
O682 Co672 2.021 . S
O682 C679 1.238 . S
O683 Co677 2.052 . S
O683 C679 1.241 . S
O684 Co672 2.137 . S
O684 C675 1.247 . S
O685 Co672 2.244 . S
O685 C675 1.272 . S
O685 Co677 2.135 . S
Co686 O687 2.216 . S
Co686 O688 2.091 . S
Co686 O690 2.004 . S
Co686 O696 2.021 . S
Co686 O698 2.137 . S
Co686 O699 2.244 . S
O687 Co686 2.216 . S
O687 C694 1.247 . S
O688 Co686 2.091 . S
O688 C694 1.261 . S
C689 O698 1.247 . S
C689 O699 1.272 . S
O690 Co686 2.004 . S
O690 C695 1.259 . S
Co691 O692 2.061 . S
Co691 O697 2.052 . S
Co691 O699 2.135 . S
O692 Co691 2.061 . S
O692 C695 1.235 . S
C693 O696 1.238 . S
C693 O697 1.241 . S
C694 O687 1.247 . S
C694 O688 1.261 . S
C695 O690 1.259 . S
C695 O692 1.235 . S
O696 Co686 2.021 . S
O696 C693 1.238 . S
O697 Co691 2.052 . S
O697 C693 1.241 . S
O698 Co686 2.137 . S
O698 C689 1.247 . S
O699 Co686 2.244 . S
O699 C689 1.272 . S
O699 Co691 2.135 . S
Co700 O701 2.216 1_655 S
Co700 O702 2.091 1_655 S
Co700 O704 2.004 . S
Co700 O710 2.021 1_655 S
Co700 O712 2.137 . S
Co700 O713 2.244 . S
O701 Co700 2.216 1_455 S
O701 C708 1.247 . S
O702 Co700 2.091 1_455 S
O702 C708 1.261 . S
C703 O712 1.247 . S
C703 O713 1.272 . S
O704 Co700 2.004 . S
O704 C709 1.259 . S
Co705 O706 2.061 . S
Co705 O711 2.052 1_655 S
Co705 O713 2.135 . S
O706 Co705 2.061 . S
O706 C709 1.235 . S
C707 O710 1.238 . S
C707 O711 1.241 . S
C708 O701 1.247 . S
C708 O702 1.261 . S
C709 O704 1.259 . S
C709 O706 1.235 . S
O710 Co700 2.021 1_455 S
O710 C707 1.238 . S
O711 Co705 2.052 1_455 S
O711 C707 1.241 . S
O712 Co700 2.137 . S
O712 C703 1.247 . S
O713 Co700 2.244 . S
O713 C703 1.272 . S
O713 Co705 2.135 . S
Co714 O715 2.216 . S
Co714 O716 2.091 . S
Co714 O718 2.004 . S
Co714 O724 2.021 . S
Co714 O726 2.137 . S
Co714 O727 2.244 . S
O715 Co714 2.216 . S
O715 C722 1.247 . S
O716 Co714 2.091 . S
O716 C722 1.261 . S
C717 O726 1.247 . S
C717 O727 1.272 . S
O718 Co714 2.004 . S
O718 C723 1.259 . S
Co719 O720 2.061 . S
Co719 O725 2.052 . S
Co719 O727 2.135 . S
O720 Co719 2.061 . S
O720 C723 1.235 . S
C721 O724 1.238 . S
C721 O725 1.241 . S
C722 O715 1.247 . S
C722 O716 1.261 . S
C723 O718 1.259 . S
C723 O720 1.235 . S
O724 Co714 2.021 . S
O724 C721 1.238 . S
O725 Co719 2.052 . S
O725 C721 1.241 . S
O726 Co714 2.137 . S
O726 C717 1.247 . S
O727 Co714 2.244 . S
O727 C717 1.272 . S
O727 Co719 2.135 . S
Co728 O729 2.216 . S
Co728 O730 2.091 . S
Co728 O732 2.004 . S
Co728 O738 2.021 . S
Co728 O740 2.137 . S
Co728 O741 2.244 . S
O729 Co728 2.216 . S
O729 C736 1.247 . S
O730 Co728 2.091 . S
O730 C736 1.261 . S
C731 O740 1.247 . S
C731 O741 1.272 . S
O732 Co728 2.004 . S
O732 C737 1.259 . S
Co733 O734 2.061 . S
Co733 O739 2.052 . S
Co733 O741 2.135 . S
O734 Co733 2.061 . S
O734 C737 1.235 . S
C735 O738 1.238 . S
C735 O739 1.241 . S
C736 O729 1.247 . S
C736 O730 1.261 . S
C737 O732 1.259 . S
C737 O734 1.235 . S
O738 Co728 2.021 . S
O738 C735 1.238 . S
O739 Co733 2.052 . S
O739 C735 1.241 . S
O740 Co728 2.137 . S
O740 C731 1.247 . S
O741 Co728 2.244 . S
O741 C731 1.272 . S
O741 Co733 2.135 . S
Co742 O743 2.216 . S
Co742 O744 2.091 . S
Co742 O746 2.004 . S
Co742 O752 2.021 . S
Co742 O754 2.137 . S
Co742 O755 2.244 . S
O743 Co742 2.216 . S
O743 C750 1.247 . S
O744 Co742 2.091 . S
O744 C750 1.261 . S
C745 O754 1.247 . S
C745 O755 1.272 . S
O746 Co742 2.004 . S
O746 C751 1.259 . S
Co747 O748 2.061 . S
Co747 O753 2.052 . S
Co747 O755 2.135 . S
O748 Co747 2.061 . S
O748 C751 1.235 . S
C749 O752 1.238 . S
C749 O753 1.241 . S
C750 O743 1.247 . S
C750 O744 1.261 . S
C751 O746 1.259 . S
C751 O748 1.235 . S
O752 Co742 2.021 . S
O752 C749 1.238 . S
O753 Co747 2.052 . S
O753 C749 1.241 . S
O754 Co742 2.137 . S
O754 C745 1.247 . S
O755 Co742 2.244 . S
O755 C745 1.272 . S
O755 Co747 2.135 . S
Co756 O757 2.216 1_655 S
Co756 O758 2.091 1_655 S
Co756 O760 2.004 . S
Co756 O766 2.021 1_655 S
Co756 O768 2.137 . S
Co756 O769 2.244 . S
O757 Co756 2.216 1_455 S
O757 C764 1.247 . S
O758 Co756 2.091 1_455 S
O758 C764 1.261 . S
C759 O768 1.247 . S
C759 O769 1.272 . S
O760 Co756 2.004 . S
O760 C765 1.259 . S
Co761 O762 2.061 . S
Co761 O767 2.052 1_655 S
Co761 O769 2.135 . S
O762 Co761 2.061 . S
O762 C765 1.235 . S
C763 O766 1.238 . S
C763 O767 1.241 . S
C764 O757 1.247 . S
C764 O758 1.261 . S
C765 O760 1.259 . S
C765 O762 1.235 . S
O766 Co756 2.021 1_455 S
O766 C763 1.238 . S
O767 Co761 2.052 1_455 S
O767 C763 1.241 . S
O768 Co756 2.137 . S
O768 C759 1.247 . S
O769 Co756 2.244 . S
O769 C759 1.272 . S
O769 Co761 2.135 . S
Co770 O771 2.216 . S
Co770 O772 2.091 . S
Co770 O774 2.004 . S
Co770 O780 2.021 . S
Co770 O782 2.137 . S
Co770 O783 2.244 . S
O771 Co770 2.216 . S
O771 C778 1.247 . S
O772 Co770 2.091 . S
O772 C778 1.261 . S
C773 O782 1.247 . S
C773 O783 1.272 . S
O774 Co770 2.004 . S
O774 C779 1.259 . S
Co775 O776 2.061 . S
Co775 O781 2.052 . S
Co775 O783 2.135 . S
O776 Co775 2.061 . S
O776 C779 1.235 . S
C777 O780 1.238 . S
C777 O781 1.241 . S
C778 O771 1.247 . S
C778 O772 1.261 . S
C779 O774 1.259 . S
C779 O776 1.235 . S
O780 Co770 2.021 . S
O780 C777 1.238 . S
O781 Co775 2.052 . S
O781 C777 1.241 . S
O782 Co770 2.137 . S
O782 C773 1.247 . S
O783 Co770 2.244 . S
O783 C773 1.272 . S
O783 Co775 2.135 . S
Co784 O785 2.216 . S
Co784 O786 2.091 . S
Co784 O788 2.004 . S
Co784 O794 2.021 . S
Co784 O796 2.137 . S
Co784 O797 2.244 . S
O785 Co784 2.216 . S
O785 C792 1.247 . S
O786 Co784 2.091 . S
O786 C792 1.261 . S
C787 O796 1.247 . S
C787 O797 1.272 . S
O788 Co784 2.004 . S
O788 C793 1.259 . S
Co789 O790 2.061 . S
Co789 O795 2.052 . S
Co789 O797 2.135 . S
O790 Co789 2.061 . S
O790 C793 1.235 . S
C791 O794 1.238 . S
C791 O795 1.241 . S
C792 O785 1.247 . S
C792 O786 1.261 . S
C793 O788 1.259 . S
C793 O790 1.235 . S
O794 Co784 2.021 . S
O794 C791 1.238 . S
O795 Co789 2.052 . S
O795 C791 1.241 . S
O796 Co784 2.137 . S
O796 C787 1.247 . S
O797 Co784 2.244 . S
O797 C787 1.272 . S
O797 Co789 2.135 . S
Co798 O799 2.216 . S
Co798 O800 2.091 . S
Co798 O802 2.004 . S
Co798 O808 2.021 . S
Co798 O810 2.137 . S
Co798 O811 2.244 . S
O799 Co798 2.216 . S
O799 C806 1.247 . S
O800 Co798 2.091 . S
O800 C806 1.261 . S
C801 O810 1.247 . S
C801 O811 1.272 . S
O802 Co798 2.004 . S
O802 C807 1.259 . S
Co803 O804 2.061 . S
Co803 O809 2.052 . S
Co803 O811 2.135 . S
O804 Co803 2.061 . S
O804 C807 1.235 . S
C805 O808 1.238 . S
C805 O809 1.241 . S
C806 O799 1.247 . S
C806 O800 1.261 . S
C807 O802 1.259 . S
C807 O804 1.235 . S
O808 Co798 2.021 . S
O808 C805 1.238 . S
O809 Co803 2.052 . S
O809 C805 1.241 . S
O810 Co798 2.137 . S
O810 C801 1.247 . S
O811 Co798 2.244 . S
O811 C801 1.272 . S
O811 Co803 2.135 . S
Co812 O813 2.216 . S
Co812 O814 2.091 . S
Co812 O816 2.004 . S
Co812 O822 2.021 . S
Co812 O824 2.137 . S
Co812 O825 2.244 . S
O813 Co812 2.216 . S
O813 C820 1.247 . S
O814 Co812 2.091 . S
O814 C820 1.261 . S
C815 O824 1.247 . S
C815 O825 1.272 . S
O816 Co812 2.004 . S
O816 C821 1.259 . S
Co817 O818 2.061 . S
Co817 O823 2.052 . S
Co817 O825 2.135 . S
O818 Co817 2.061 . S
O818 C821 1.235 . S
C819 O822 1.238 . S
C819 O823 1.241 . S
C820 O813 1.247 . S
C820 O814 1.261 . S
C821 O816 1.259 . S
C821 O818 1.235 . S
O822 Co812 2.021 . S
O822 C819 1.238 . S
O823 Co817 2.052 . S
O823 C819 1.241 . S
O824 Co812 2.137 . S
O824 C815 1.247 . S
O825 Co812 2.244 . S
O825 C815 1.272 . S
O825 Co817 2.135 . S
Co826 O827 2.216 . S
Co826 O828 2.091 . S
Co826 O830 2.004 . S
Co826 O836 2.021 . S
Co826 O838 2.137 . S
Co826 O839 2.244 . S
O827 Co826 2.216 . S
O827 C834 1.247 . S
O828 Co826 2.091 . S
O828 C834 1.261 . S
C829 O838 1.247 . S
C829 O839 1.272 . S
O830 Co826 2.004 . S
O830 C835 1.259 . S
Co831 O832 2.061 . S
Co831 O837 2.052 . S
Co831 O839 2.135 . S
O832 Co831 2.061 . S
O832 C835 1.235 . S
C833 O836 1.238 . S
C833 O837 1.241 . S
C834 O827 1.247 . S
C834 O828 1.261 . S
C835 O830 1.259 . S
C835 O832 1.235 . S
O836 Co826 2.021 . S
O836 C833 1.238 . S
O837 Co831 2.052 . S
O837 C833 1.241 . S
O838 Co826 2.137 . S
O838 C829 1.247 . S
O839 Co826 2.244 . S
O839 C829 1.272 . S
O839 Co831 2.135 . S
Co840 O841 2.216 . S
Co840 O842 2.091 . S
Co840 O844 2.004 . S
Co840 O850 2.021 . S
Co840 O852 2.137 . S
Co840 O853 2.244 . S
O841 Co840 2.216 . S
O841 C848 1.247 . S
O842 Co840 2.091 . S
O842 C848 1.261 . S
C843 O852 1.247 . S
C843 O853 1.272 . S
O844 Co840 2.004 . S
O844 C849 1.259 . S
Co845 O846 2.061 . S
Co845 O851 2.052 . S
Co845 O853 2.135 . S
O846 Co845 2.061 . S
O846 C849 1.235 . S
C847 O850 1.238 . S
C847 O851 1.241 . S
C848 O841 1.247 . S
C848 O842 1.261 . S
C849 O844 1.259 . S
C849 O846 1.235 . S
O850 Co840 2.021 . S
O850 C847 1.238 . S
O851 Co845 2.052 . S
O851 C847 1.241 . S
O852 Co840 2.137 . S
O852 C843 1.247 . S
O853 Co840 2.244 . S
O853 C843 1.272 . S
O853 Co845 2.135 . S
Co854 O855 2.216 . S
Co854 O856 2.091 . S
Co854 O858 2.004 . S
Co854 O864 2.021 . S
Co854 O866 2.137 . S
Co854 O867 2.244 . S
O855 Co854 2.216 . S
O855 C862 1.247 . S
O856 Co854 2.091 . S
O856 C862 1.261 . S
C857 O866 1.247 . S
C857 O867 1.272 . S
O858 Co854 2.004 . S
O858 C863 1.259 . S
Co859 O860 2.061 . S
Co859 O865 2.052 . S
Co859 O867 2.135 . S
O860 Co859 2.061 . S
O860 C863 1.235 . S
C861 O864 1.238 . S
C861 O865 1.241 . S
C862 O855 1.247 . S
C862 O856 1.261 . S
C863 O858 1.259 . S
C863 O860 1.235 . S
O864 Co854 2.021 . S
O864 C861 1.238 . S
O865 Co859 2.052 . S
O865 C861 1.241 . S
O866 Co854 2.137 . S
O866 C857 1.247 . S
O867 Co854 2.244 . S
O867 C857 1.272 . S
O867 Co859 2.135 . S
Co868 O869 2.216 . S
Co868 O870 2.091 . S
Co868 O872 2.004 . S
Co868 O878 2.021 . S
Co868 O880 2.137 . S
Co868 O881 2.244 . S
O869 Co868 2.216 . S
O869 C876 1.247 . S
O870 Co868 2.091 . S
O870 C876 1.261 . S
C871 O880 1.247 . S
C871 O881 1.272 . S
O872 Co868 2.004 . S
O872 C877 1.259 . S
Co873 O874 2.061 . S
Co873 O879 2.052 . S
Co873 O881 2.135 . S
O874 Co873 2.061 . S
O874 C877 1.235 . S
C875 O878 1.238 . S
C875 O879 1.241 . S
C876 O869 1.247 . S
C876 O870 1.261 . S
C877 O872 1.259 . S
C877 O874 1.235 . S
O878 Co868 2.021 . S
O878 C875 1.238 . S
O879 Co873 2.052 . S
O879 C875 1.241 . S
O880 Co868 2.137 . S
O880 C871 1.247 . S
O881 Co868 2.244 . S
O881 C871 1.272 . S
O881 Co873 2.135 . S
Co882 O883 2.216 . S
Co882 O884 2.091 . S
Co882 O886 2.004 . S
Co882 O892 2.021 . S
Co882 O894 2.137 . S
Co882 O895 2.244 . S
O883 Co882 2.216 . S
O883 C890 1.247 . S
O884 Co882 2.091 . S
O884 C890 1.261 . S
C885 O894 1.247 . S
C885 O895 1.272 . S
O886 Co882 2.004 . S
O886 C891 1.259 . S
Co887 O888 2.061 . S
Co887 O893 2.052 . S
Co887 O895 2.135 . S
O888 Co887 2.061 . S
O888 C891 1.235 . S
C889 O892 1.238 . S
C889 O893 1.241 . S
C890 O883 1.247 . S
C890 O884 1.261 . S
C891 O886 1.259 . S
C891 O888 1.235 . S
O892 Co882 2.021 . S
O892 C889 1.238 . S
O893 Co887 2.052 . S
O893 C889 1.241 . S
O894 Co882 2.137 . S
O894 C885 1.247 . S
O895 Co882 2.244 . S
O895 C885 1.272 . S
O895 Co887 2.135 . S
Co896 O897 2.216 . S
Co896 O898 2.091 . S
Co896 O900 2.004 . S
Co896 O906 2.021 . S
Co896 O908 2.137 . S
Co896 O909 2.244 . S
O897 Co896 2.216 . S
O897 C904 1.247 . S
O898 Co896 2.091 . S
O898 C904 1.261 . S
C899 O908 1.247 . S
C899 O909 1.272 . S
O900 Co896 2.004 . S
O900 C905 1.259 . S
Co901 O902 2.061 . S
Co901 O907 2.052 . S
Co901 O909 2.135 . S
O902 Co901 2.061 . S
O902 C905 1.235 . S
C903 O906 1.238 . S
C903 O907 1.241 . S
C904 O897 1.247 . S
C904 O898 1.261 . S
C905 O900 1.259 . S
C905 O902 1.235 . S
O906 Co896 2.021 . S
O906 C903 1.238 . S
O907 Co901 2.052 . S
O907 C903 1.241 . S
O908 Co896 2.137 . S
O908 C899 1.247 . S
O909 Co896 2.244 . S
O909 C899 1.272 . S
O909 Co901 2.135 . S
Co910 O911 2.216 . S
Co910 O912 2.091 . S
Co910 O914 2.004 . S
Co910 O920 2.021 . S
Co910 O922 2.137 . S
Co910 O923 2.244 . S
O911 Co910 2.216 . S
O911 C918 1.247 . S
O912 Co910 2.091 . S
O912 C918 1.261 . S
C913 O922 1.247 . S
C913 O923 1.272 . S
O914 Co910 2.004 . S
O914 C919 1.259 . S
Co915 O916 2.061 . S
Co915 O921 2.052 . S
Co915 O923 2.135 . S
O916 Co915 2.061 . S
O916 C919 1.235 . S
C917 O920 1.238 . S
C917 O921 1.241 . S
C918 O911 1.247 . S
C918 O912 1.261 . S
C919 O914 1.259 . S
C919 O916 1.235 . S
O920 Co910 2.021 . S
O920 C917 1.238 . S
O921 Co915 2.052 . S
O921 C917 1.241 . S
O922 Co910 2.137 . S
O922 C913 1.247 . S
O923 Co910 2.244 . S
O923 C913 1.272 . S
O923 Co915 2.135 . S
Co924 O925 2.216 . S
Co924 O926 2.091 . S
Co924 O928 2.004 . S
Co924 O934 2.021 . S
Co924 O936 2.137 . S
Co924 O937 2.244 . S
O925 Co924 2.216 . S
O925 C932 1.247 . S
O926 Co924 2.091 . S
O926 C932 1.261 . S
C927 O936 1.247 . S
C927 O937 1.272 . S
O928 Co924 2.004 . S
O928 C933 1.259 . S
Co929 O930 2.061 . S
Co929 O935 2.052 . S
Co929 O937 2.135 . S
O930 Co929 2.061 . S
O930 C933 1.235 . S
C931 O934 1.238 . S
C931 O935 1.241 . S
C932 O925 1.247 . S
C932 O926 1.261 . S
C933 O928 1.259 . S
C933 O930 1.235 . S
O934 Co924 2.021 . S
O934 C931 1.238 . S
O935 Co929 2.052 . S
O935 C931 1.241 . S
O936 Co924 2.137 . S
O936 C927 1.247 . S
O937 Co924 2.244 . S
O937 C927 1.272 . S
O937 Co929 2.135 . S
Co938 O939 2.216 1_556 S
Co938 O940 2.091 1_556 S
Co938 O942 2.004 . S
Co938 O948 2.021 1_556 S
Co938 O950 2.137 . S
Co938 O951 2.244 . S
O939 Co938 2.216 1_554 S
O939 C946 1.247 . S
O940 Co938 2.091 1_554 S
O940 C946 1.261 . S
C941 O950 1.247 . S
C941 O951 1.272 . S
O942 Co938 2.004 . S
O942 C947 1.259 . S
Co943 O944 2.061 . S
Co943 O949 2.052 1_556 S
Co943 O951 2.135 . S
O944 Co943 2.061 . S
O944 C947 1.235 . S
C945 O948 1.238 . S
C945 O949 1.241 . S
C946 O939 1.247 . S
C946 O940 1.261 . S
C947 O942 1.259 . S
C947 O944 1.235 . S
O948 Co938 2.021 1_554 S
O948 C945 1.238 . S
O949 Co943 2.052 1_554 S
O949 C945 1.241 . S
O950 Co938 2.137 . S
O950 C941 1.247 . S
O951 Co938 2.244 . S
O951 C941 1.272 . S
O951 Co943 2.135 . S
Co952 O953 2.216 . S
Co952 O954 2.091 . S
Co952 O956 2.004 . S
Co952 O962 2.021 . S
Co952 O964 2.137 . S
Co952 O965 2.244 . S
O953 Co952 2.216 . S
O953 C960 1.247 . S
O954 Co952 2.091 . S
O954 C960 1.261 . S
C955 O964 1.247 . S
C955 O965 1.272 . S
O956 Co952 2.004 . S
O956 C961 1.259 . S
Co957 O958 2.061 . S
Co957 O963 2.052 . S
Co957 O965 2.135 . S
O958 Co957 2.061 . S
O958 C961 1.235 . S
C959 O962 1.238 . S
C959 O963 1.241 . S
C960 O953 1.247 . S
C960 O954 1.261 . S
C961 O956 1.259 . S
C961 O958 1.235 . S
O962 Co952 2.021 . S
O962 C959 1.238 . S
O963 Co957 2.052 . S
O963 C959 1.241 . S
O964 Co952 2.137 . S
O964 C955 1.247 . S
O965 Co952 2.244 . S
O965 C955 1.272 . S
O965 Co957 2.135 . S
Co966 O967 2.216 1_554 S
Co966 O968 2.091 1_554 S
Co966 O970 2.004 . S
Co966 O976 2.021 1_554 S
Co966 O978 2.137 . S
Co966 O979 2.244 . S
O967 Co966 2.216 1_556 S
O967 C974 1.247 . S
O968 Co966 2.091 1_556 S
O968 C974 1.261 . S
C969 O978 1.247 . S
C969 O979 1.272 . S
O970 Co966 2.004 . S
O970 C975 1.259 . S
Co971 O972 2.061 . S
Co971 O977 2.052 1_554 S
Co971 O979 2.135 . S
O972 Co971 2.061 . S
O972 C975 1.235 . S
C973 O976 1.238 . S
C973 O977 1.241 . S
C974 O967 1.247 . S
C974 O968 1.261 . S
C975 O970 1.259 . S
C975 O972 1.235 . S
O976 Co966 2.021 1_556 S
O976 C973 1.238 . S
O977 Co971 2.052 1_556 S
O977 C973 1.241 . S
O978 Co966 2.137 . S
O978 C969 1.247 . S
O979 Co966 2.244 . S
O979 C969 1.272 . S
O979 Co971 2.135 . S
Co980 O981 2.216 . S
Co980 O982 2.091 . S
Co980 O984 2.004 . S
Co980 O990 2.021 . S
Co980 O992 2.137 . S
Co980 O993 2.244 . S
O981 Co980 2.216 . S
O981 C988 1.247 . S
O982 Co980 2.091 . S
O982 C988 1.261 . S
C983 O992 1.247 . S
C983 O993 1.272 . S
O984 Co980 2.004 . S
O984 C989 1.259 . S
Co985 O986 2.061 . S
Co985 O991 2.052 . S
Co985 O993 2.135 . S
O986 Co985 2.061 . S
O986 C989 1.235 . S
C987 O990 1.238 . S
C987 O991 1.241 . S
C988 O981 1.247 . S
C988 O982 1.261 . S
C989 O984 1.259 . S
C989 O986 1.235 . S
O990 Co980 2.021 . S
O990 C987 1.238 . S
O991 Co985 2.052 . S
O991 C987 1.241 . S
O992 Co980 2.137 . S
O992 C983 1.247 . S
O993 Co980 2.244 . S
O993 C983 1.272 . S
O993 Co985 2.135 . S
Co994 O995 2.216 . S
Co994 O996 2.091 . S
Co994 O998 2.004 . S
Co994 O1004 2.021 . S
Co994 O1006 2.137 . S
Co994 O1007 2.244 . S
O995 Co994 2.216 . S
O995 C1002 1.247 . S
O996 Co994 2.091 . S
O996 C1002 1.261 . S
C997 O1006 1.247 . S
C997 O1007 1.272 . S
O998 Co994 2.004 . S
O998 C1003 1.259 . S
Co999 O1000 2.061 . S
Co999 O1005 2.052 . S
Co999 O1007 2.135 . S
O1000 Co999 2.061 . S
O1000 C1003 1.235 . S
C1001 O1004 1.238 . S
C1001 O1005 1.241 . S
C1002 O995 1.247 . S
C1002 O996 1.261 . S
C1003 O998 1.259 . S
C1003 O1000 1.235 . S
O1004 Co994 2.021 . S
O1004 C1001 1.238 . S
O1005 Co999 2.052 . S
O1005 C1001 1.241 . S
O1006 Co994 2.137 . S
O1006 C997 1.247 . S
O1007 Co994 2.244 . S
O1007 C997 1.272 . S
O1007 Co999 2.135 . S
Co1008 O1009 2.216 . S
Co1008 O1010 2.091 . S
Co1008 O1012 2.004 . S
Co1008 O1018 2.021 . S
Co1008 O1020 2.137 . S
Co1008 O1021 2.244 . S
O1009 Co1008 2.216 . S
O1009 C1016 1.247 . S
O1010 Co1008 2.091 . S
O1010 C1016 1.261 . S
C1011 O1020 1.247 . S
C1011 O1021 1.272 . S
O1012 Co1008 2.004 . S
O1012 C1017 1.259 . S
Co1013 O1014 2.061 . S
Co1013 O1019 2.052 . S
Co1013 O1021 2.135 . S
O1014 Co1013 2.061 . S
O1014 C1017 1.235 . S
C1015 O1018 1.238 . S
C1015 O1019 1.241 . S
C1016 O1009 1.247 . S
C1016 O1010 1.261 . S
C1017 O1012 1.259 . S
C1017 O1014 1.235 . S
O1018 Co1008 2.021 . S
O1018 C1015 1.238 . S
O1019 Co1013 2.052 . S
O1019 C1015 1.241 . S
O1020 Co1008 2.137 . S
O1020 C1011 1.247 . S
O1021 Co1008 2.244 . S
O1021 C1011 1.272 . S
O1021 Co1013 2.135 . S
Co1022 O1023 2.216 . S
Co1022 O1024 2.091 . S
Co1022 O1026 2.004 . S
Co1022 O1032 2.021 . S
Co1022 O1034 2.137 . S
Co1022 O1035 2.244 . S
O1023 Co1022 2.216 . S
O1023 C1030 1.247 . S
O1024 Co1022 2.091 . S
O1024 C1030 1.261 . S
C1025 O1034 1.247 . S
C1025 O1035 1.272 . S
O1026 Co1022 2.004 . S
O1026 C1031 1.259 . S
Co1027 O1028 2.061 . S
Co1027 O1033 2.052 . S
Co1027 O1035 2.135 . S
O1028 Co1027 2.061 . S
O1028 C1031 1.235 . S
C1029 O1032 1.238 . S
C1029 O1033 1.241 . S
C1030 O1023 1.247 . S
C1030 O1024 1.261 . S
C1031 O1026 1.259 . S
C1031 O1028 1.235 . S
O1032 Co1022 2.021 . S
O1032 C1029 1.238 . S
O1033 Co1027 2.052 . S
O1033 C1029 1.241 . S
O1034 Co1022 2.137 . S
O1034 C1025 1.247 . S
O1035 Co1022 2.244 . S
O1035 C1025 1.272 . S
O1035 Co1027 2.135 . S
Co1036 O1037 2.216 1_455 S
Co1036 O1038 2.091 1_455 S
Co1036 O1040 2.004 . S
Co1036 O1046 2.021 1_455 S
Co1036 O1048 2.137 . S
Co1036 O1049 2.244 . S
O1037 Co1036 2.216 1_655 S
O1037 C1044 1.247 . S
O1038 Co1036 2.091 1_655 S
O1038 C1044 1.261 . S
C1039 O1048 1.247 . S
C1039 O1049 1.272 . S
O1040 Co1036 2.004 . S
O1040 C1045 1.259 . S
Co1041 O1042 2.061 . S
Co1041 O1047 2.052 1_455 S
Co1041 O1049 2.135 . S
O1042 Co1041 2.061 . S
O1042 C1045 1.235 . S
C1043 O1046 1.238 . S
C1043 O1047 1.241 . S
C1044 O1037 1.247 . S
C1044 O1038 1.261 . S
C1045 O1040 1.259 . S
C1045 O1042 1.235 . S
O1046 Co1036 2.021 1_655 S
O1046 C1043 1.238 . S
O1047 Co1041 2.052 1_655 S
O1047 C1043 1.241 . S
O1048 Co1036 2.137 . S
O1048 C1039 1.247 . S
O1049 Co1036 2.244 . S
O1049 C1039 1.272 . S
O1049 Co1041 2.135 . S
Co1050 O1051 2.216 . S
Co1050 O1052 2.091 . S
Co1050 O1054 2.004 . S
Co1050 O1060 2.021 . S
Co1050 O1062 2.137 . S
Co1050 O1063 2.244 . S
O1051 Co1050 2.216 . S
O1051 C1058 1.247 . S
O1052 Co1050 2.091 . S
O1052 C1058 1.261 . S
C1053 O1062 1.247 . S
C1053 O1063 1.272 . S
O1054 Co1050 2.004 . S
O1054 C1059 1.259 . S
Co1055 O1056 2.061 . S
Co1055 O1061 2.052 . S
Co1055 O1063 2.135 . S
O1056 Co1055 2.061 . S
O1056 C1059 1.235 . S
C1057 O1060 1.238 . S
C1057 O1061 1.241 . S
C1058 O1051 1.247 . S
C1058 O1052 1.261 . S
C1059 O1054 1.259 . S
C1059 O1056 1.235 . S
O1060 Co1050 2.021 . S
O1060 C1057 1.238 . S
O1061 Co1055 2.052 . S
O1061 C1057 1.241 . S
O1062 Co1050 2.137 . S
O1062 C1053 1.247 . S
O1063 Co1050 2.244 . S
O1063 C1053 1.272 . S
O1063 Co1055 2.135 . S
Co1064 O1065 2.216 . S
Co1064 O1066 2.091 . S
Co1064 O1068 2.004 . S
Co1064 O1074 2.021 . S
Co1064 O1076 2.137 . S
Co1064 O1077 2.244 . S
O1065 Co1064 2.216 . S
O1065 C1072 1.247 . S
O1066 Co1064 2.091 . S
O1066 C1072 1.261 . S
C1067 O1076 1.247 . S
C1067 O1077 1.272 . S
O1068 Co1064 2.004 . S
O1068 C1073 1.259 . S
Co1069 O1070 2.061 . S
Co1069 O1075 2.052 . S
Co1069 O1077 2.135 . S
O1070 Co1069 2.061 . S
O1070 C1073 1.235 . S
C1071 O1074 1.238 . S
C1071 O1075 1.241 . S
C1072 O1065 1.247 . S
C1072 O1066 1.261 . S
C1073 O1068 1.259 . S
C1073 O1070 1.235 . S
O1074 Co1064 2.021 . S
O1074 C1071 1.238 . S
O1075 Co1069 2.052 . S
O1075 C1071 1.241 . S
O1076 Co1064 2.137 . S
O1076 C1067 1.247 . S
O1077 Co1064 2.244 . S
O1077 C1067 1.272 . S
O1077 Co1069 2.135 . S
Co1078 O1079 2.216 . S
Co1078 O1080 2.091 . S
Co1078 O1082 2.004 . S
Co1078 O1088 2.021 . S
Co1078 O1090 2.137 . S
Co1078 O1091 2.244 . S
O1079 Co1078 2.216 . S
O1079 C1086 1.247 . S
O1080 Co1078 2.091 . S
O1080 C1086 1.261 . S
C1081 O1090 1.247 . S
C1081 O1091 1.272 . S
O1082 Co1078 2.004 . S
O1082 C1087 1.259 . S
Co1083 O1084 2.061 . S
Co1083 O1089 2.052 . S
Co1083 O1091 2.135 . S
O1084 Co1083 2.061 . S
O1084 C1087 1.235 . S
C1085 O1088 1.238 . S
C1085 O1089 1.241 . S
C1086 O1079 1.247 . S
C1086 O1080 1.261 . S
C1087 O1082 1.259 . S
C1087 O1084 1.235 . S
O1088 Co1078 2.021 . S
O1088 C1085 1.238 . S
O1089 Co1083 2.052 . S
O1089 C1085 1.241 . S
O1090 Co1078 2.137 . S
O1090 C1081 1.247 . S
O1091 Co1078 2.244 . S
O1091 C1081 1.272 . S
O1091 Co1083 2.135 . S
Co1092 O1093 2.216 1_455 S
Co1092 O1094 2.091 1_455 S
Co1092 O1096 2.004 . S
Co1092 O1102 2.021 1_455 S
Co1092 O1104 2.137 . S
Co1092 O1105 2.244 . S
O1093 Co1092 2.216 1_655 S
O1093 C1100 1.247 . S
O1094 Co1092 2.091 1_655 S
O1094 C1100 1.261 . S
C1095 O1104 1.247 . S
C1095 O1105 1.272 . S
O1096 Co1092 2.004 . S
O1096 C1101 1.259 . S
Co1097 O1098 2.061 . S
Co1097 O1103 2.052 1_455 S
Co1097 O1105 2.135 . S
O1098 Co1097 2.061 . S
O1098 C1101 1.235 . S
C1099 O1102 1.238 . S
C1099 O1103 1.241 . S
C1100 O1093 1.247 . S
C1100 O1094 1.261 . S
C1101 O1096 1.259 . S
C1101 O1098 1.235 . S
O1102 Co1092 2.021 1_655 S
O1102 C1099 1.238 . S
O1103 Co1097 2.052 1_655 S
O1103 C1099 1.241 . S
O1104 Co1092 2.137 . S
O1104 C1095 1.247 . S
O1105 Co1092 2.244 . S
O1105 C1095 1.272 . S
O1105 Co1097 2.135 . S
Co1106 O1107 2.216 . S
Co1106 O1108 2.091 . S
Co1106 O1110 2.004 . S
Co1106 O1116 2.021 . S
Co1106 O1118 2.137 . S
Co1106 O1119 2.244 . S
O1107 Co1106 2.216 . S
O1107 C1114 1.247 . S
O1108 Co1106 2.091 . S
O1108 C1114 1.261 . S
C1109 O1118 1.247 . S
C1109 O1119 1.272 . S
O1110 Co1106 2.004 . S
O1110 C1115 1.259 . S
Co1111 O1112 2.061 . S
Co1111 O1117 2.052 . S
Co1111 O1119 2.135 . S
O1112 Co1111 2.061 . S
O1112 C1115 1.235 . S
C1113 O1116 1.238 . S
C1113 O1117 1.241 . S
C1114 O1107 1.247 . S
C1114 O1108 1.261 . S
C1115 O1110 1.259 . S
C1115 O1112 1.235 . S
O1116 Co1106 2.021 . S
O1116 C1113 1.238 . S
O1117 Co1111 2.052 . S
O1117 C1113 1.241 . S
O1118 Co1106 2.137 . S
O1118 C1109 1.247 . S
O1119 Co1106 2.244 . S
O1119 C1109 1.272 . S
O1119 Co1111 2.135 . S
Co1120 O1121 2.216 . S
Co1120 O1122 2.091 . S
Co1120 O1124 2.004 . S
Co1120 O1130 2.021 . S
Co1120 O1132 2.137 . S
Co1120 O1133 2.244 . S
O1121 Co1120 2.216 . S
O1121 C1128 1.247 . S
O1122 Co1120 2.091 . S
O1122 C1128 1.261 . S
C1123 O1132 1.247 . S
C1123 O1133 1.272 . S
O1124 Co1120 2.004 . S
O1124 C1129 1.259 . S
Co1125 O1126 2.061 . S
Co1125 O1131 2.052 . S
Co1125 O1133 2.135 . S
O1126 Co1125 2.061 . S
O1126 C1129 1.235 . S
C1127 O1130 1.238 . S
C1127 O1131 1.241 . S
C1128 O1121 1.247 . S
C1128 O1122 1.261 . S
C1129 O1124 1.259 . S
C1129 O1126 1.235 . S
O1130 Co1120 2.021 . S
O1130 C1127 1.238 . S
O1131 Co1125 2.052 . S
O1131 C1127 1.241 . S
O1132 Co1120 2.137 . S
O1132 C1123 1.247 . S
O1133 Co1120 2.244 . S
O1133 C1123 1.272 . S
O1133 Co1125 2.135 . S
Co1134 O1135 2.216 . S
Co1134 O1136 2.091 . S
Co1134 O1138 2.004 . S
Co1134 O1144 2.021 . S
Co1134 O1146 2.137 . S
Co1134 O1147 2.244 . S
O1135 Co1134 2.216 . S
O1135 C1142 1.247 . S
O1136 Co1134 2.091 . S
O1136 C1142 1.261 . S
C1137 O1146 1.247 . S
C1137 O1147 1.272 . S
O1138 Co1134 2.004 . S
O1138 C1143 1.259 . S
Co1139 O1140 2.061 . S
Co1139 O1145 2.052 . S
Co1139 O1147 2.135 . S
O1140 Co1139 2.061 . S
O1140 C1143 1.235 . S
C1141 O1144 1.238 . S
C1141 O1145 1.241 . S
C1142 O1135 1.247 . S
C1142 O1136 1.261 . S
C1143 O1138 1.259 . S
C1143 O1140 1.235 . S
O1144 Co1134 2.021 . S
O1144 C1141 1.238 . S
O1145 Co1139 2.052 . S
O1145 C1141 1.241 . S
O1146 Co1134 2.137 . S
O1146 C1137 1.247 . S
O1147 Co1134 2.244 . S
O1147 C1137 1.272 . S
O1147 Co1139 2.135 . S
Co1148 O1149 2.216 . S
Co1148 O1150 2.091 . S
Co1148 O1152 2.004 . S
Co1148 O1158 2.021 . S
Co1148 O1160 2.137 . S
Co1148 O1161 2.244 . S
O1149 Co1148 2.216 . S
O1149 C1156 1.247 . S
O1150 Co1148 2.091 . S
O1150 C1156 1.261 . S
C1151 O1160 1.247 . S
C1151 O1161 1.272 . S
O1152 Co1148 2.004 . S
O1152 C1157 1.259 . S
Co1153 O1154 2.061 . S
Co1153 O1159 2.052 . S
Co1153 O1161 2.135 . S
O1154 Co1153 2.061 . S
O1154 C1157 1.235 . S
C1155 O1158 1.238 . S
C1155 O1159 1.241 . S
C1156 O1149 1.247 . S
C1156 O1150 1.261 . S
C1157 O1152 1.259 . S
C1157 O1154 1.235 . S
O1158 Co1148 2.021 . S
O1158 C1155 1.238 . S
O1159 Co1153 2.052 . S
O1159 C1155 1.241 . S
O1160 Co1148 2.137 . S
O1160 C1151 1.247 . S
O1161 Co1148 2.244 . S
O1161 C1151 1.272 . S
O1161 Co1153 2.135 . S
Co1162 O1163 2.216 . S
Co1162 O1164 2.091 . S
Co1162 O1166 2.004 . S
Co1162 O1172 2.021 . S
Co1162 O1174 2.137 . S
Co1162 O1175 2.244 . S
O1163 Co1162 2.216 . S
O1163 C1170 1.247 . S
O1164 Co1162 2.091 . S
O1164 C1170 1.261 . S
C1165 O1174 1.247 . S
C1165 O1175 1.272 . S
O1166 Co1162 2.004 . S
O1166 C1171 1.259 . S
Co1167 O1168 2.061 . S
Co1167 O1173 2.052 . S
Co1167 O1175 2.135 . S
O1168 Co1167 2.061 . S
O1168 C1171 1.235 . S
C1169 O1172 1.238 . S
C1169 O1173 1.241 . S
C1170 O1163 1.247 . S
C1170 O1164 1.261 . S
C1171 O1166 1.259 . S
C1171 O1168 1.235 . S
O1172 Co1162 2.021 . S
O1172 C1169 1.238 . S
O1173 Co1167 2.052 . S
O1173 C1169 1.241 . S
O1174 Co1162 2.137 . S
O1174 C1165 1.247 . S
O1175 Co1162 2.244 . S
O1175 C1165 1.272 . S
O1175 Co1167 2.135 . S
Co1176 O1177 2.216 . S
Co1176 O1178 2.091 . S
Co1176 O1180 2.004 . S
Co1176 O1186 2.021 . S
Co1176 O1188 2.137 . S
Co1176 O1189 2.244 . S
O1177 Co1176 2.216 . S
O1177 C1184 1.247 . S
O1178 Co1176 2.091 . S
O1178 C1184 1.261 . S
C1179 O1188 1.247 . S
C1179 O1189 1.272 . S
O1180 Co1176 2.004 . S
O1180 C1185 1.259 . S
Co1181 O1182 2.061 . S
Co1181 O1187 2.052 . S
Co1181 O1189 2.135 . S
O1182 Co1181 2.061 . S
O1182 C1185 1.235 . S
C1183 O1186 1.238 . S
C1183 O1187 1.241 . S
C1184 O1177 1.247 . S
C1184 O1178 1.261 . S
C1185 O1180 1.259 . S
C1185 O1182 1.235 . S
O1186 Co1176 2.021 . S
O1186 C1183 1.238 . S
O1187 Co1181 2.052 . S
O1187 C1183 1.241 . S
O1188 Co1176 2.137 . S
O1188 C1179 1.247 . S
O1189 Co1176 2.244 . S
O1189 C1179 1.272 . S
O1189 Co1181 2.135 . S
Co1190 O1191 2.216 . S
Co1190 O1192 2.091 . S
Co1190 O1194 2.004 . S
Co1190 O1200 2.021 . S
Co1190 O1202 2.137 . S
Co1190 O1203 2.244 . S
O1191 Co1190 2.216 . S
O1191 C1198 1.247 . S
O1192 Co1190 2.091 . S
O1192 C1198 1.261 . S
C1193 O1202 1.247 . S
C1193 O1203 1.272 . S
O1194 Co1190 2.004 . S
O1194 C1199 1.259 . S
Co1195 O1196 2.061 . S
Co1195 O1201 2.052 . S
Co1195 O1203 2.135 . S
O1196 Co1195 2.061 . S
O1196 C1199 1.235 . S
C1197 O1200 1.238 . S
C1197 O1201 1.241 . S
C1198 O1191 1.247 . S
C1198 O1192 1.261 . S
C1199 O1194 1.259 . S
C1199 O1196 1.235 . S
O1200 Co1190 2.021 . S
O1200 C1197 1.238 . S
O1201 Co1195 2.052 . S
O1201 C1197 1.241 . S
O1202 Co1190 2.137 . S
O1202 C1193 1.247 . S
O1203 Co1190 2.244 . S
O1203 C1193 1.272 . S
O1203 Co1195 2.135 . S
Co1204 O1205 2.216 . S
Co1204 O1206 2.091 . S
Co1204 O1208 2.004 . S
Co1204 O1214 2.021 . S
Co1204 O1216 2.137 . S
Co1204 O1217 2.244 . S
O1205 Co1204 2.216 . S
O1205 C1212 1.247 . S
O1206 Co1204 2.091 . S
O1206 C1212 1.261 . S
C1207 O1216 1.247 . S
C1207 O1217 1.272 . S
O1208 Co1204 2.004 . S
O1208 C1213 1.259 . S
Co1209 O1210 2.061 . S
Co1209 O1215 2.052 . S
Co1209 O1217 2.135 . S
O1210 Co1209 2.061 . S
O1210 C1213 1.235 . S
C1211 O1214 1.238 . S
C1211 O1215 1.241 . S
C1212 O1205 1.247 . S
C1212 O1206 1.261 . S
C1213 O1208 1.259 . S
C1213 O1210 1.235 . S
O1214 Co1204 2.021 . S
O1214 C1211 1.238 . S
O1215 Co1209 2.052 . S
O1215 C1211 1.241 . S
O1216 Co1204 2.137 . S
O1216 C1207 1.247 . S
O1217 Co1204 2.244 . S
O1217 C1207 1.272 . S
O1217 Co1209 2.135 . S
Co1218 O1219 2.216 . S
Co1218 O1220 2.091 . S
Co1218 O1222 2.004 . S
Co1218 O1228 2.021 . S
Co1218 O1230 2.137 . S
Co1218 O1231 2.244 . S
O1219 Co1218 2.216 . S
O1219 C1226 1.247 . S
O1220 Co1218 2.091 . S
O1220 C1226 1.261 . S
C1221 O1230 1.247 . S
C1221 O1231 1.272 . S
O1222 Co1218 2.004 . S
O1222 C1227 1.259 . S
Co1223 O1224 2.061 . S
Co1223 O1229 2.052 . S
Co1223 O1231 2.135 . S
O1224 Co1223 2.061 . S
O1224 C1227 1.235 . S
C1225 O1228 1.238 . S
C1225 O1229 1.241 . S
C1226 O1219 1.247 . S
C1226 O1220 1.261 . S
C1227 O1222 1.259 . S
C1227 O1224 1.235 . S
O1228 Co1218 2.021 . S
O1228 C1225 1.238 . S
O1229 Co1223 2.052 . S
O1229 C1225 1.241 . S
O1230 Co1218 2.137 . S
O1230 C1221 1.247 . S
O1231 Co1218 2.244 . S
O1231 C1221 1.272 . S
O1231 Co1223 2.135 . S
Co1232 O1233 2.216 . S
Co1232 O1234 2.091 . S
Co1232 O1236 2.004 . S
Co1232 O1242 2.021 . S
Co1232 O1244 2.137 . S
Co1232 O1245 2.244 . S
O1233 Co1232 2.216 . S
O1233 C1240 1.247 . S
O1234 Co1232 2.091 . S
O1234 C1240 1.261 . S
C1235 O1244 1.247 . S
C1235 O1245 1.272 . S
O1236 Co1232 2.004 . S
O1236 C1241 1.259 . S
Co1237 O1238 2.061 . S
Co1237 O1243 2.052 . S
Co1237 O1245 2.135 . S
O1238 Co1237 2.061 . S
O1238 C1241 1.235 . S
C1239 O1242 1.238 . S
C1239 O1243 1.241 . S
C1240 O1233 1.247 . S
C1240 O1234 1.261 . S
C1241 O1236 1.259 . S
C1241 O1238 1.235 . S
O1242 Co1232 2.021 . S
O1242 C1239 1.238 . S
O1243 Co1237 2.052 . S
O1243 C1239 1.241 . S
O1244 Co1232 2.137 . S
O1244 C1235 1.247 . S
O1245 Co1232 2.244 . S
O1245 C1235 1.272 . S
O1245 Co1237 2.135 . S
Co1246 O1247 2.216 . S
Co1246 O1248 2.091 . S
Co1246 O1250 2.004 . S
Co1246 O1256 2.021 . S
Co1246 O1258 2.137 . S
Co1246 O1259 2.244 . S
O1247 Co1246 2.216 . S
O1247 C1254 1.247 . S
O1248 Co1246 2.091 . S
O1248 C1254 1.261 . S
C1249 O1258 1.247 . S
C1249 O1259 1.272 . S
O1250 Co1246 2.004 . S
O1250 C1255 1.259 . S
Co1251 O1252 2.061 . S
Co1251 O1257 2.052 . S
Co1251 O1259 2.135 . S
O1252 Co1251 2.061 . S
O1252 C1255 1.235 . S
C1253 O1256 1.238 . S
C1253 O1257 1.241 . S
C1254 O1247 1.247 . S
C1254 O1248 1.261 . S
C1255 O1250 1.259 . S
C1255 O1252 1.235 . S
O1256 Co1246 2.021 . S
O1256 C1253 1.238 . S
O1257 Co1251 2.052 . S
O1257 C1253 1.241 . S
O1258 Co1246 2.137 . S
O1258 C1249 1.247 . S
O1259 Co1246 2.244 . S
O1259 C1249 1.272 . S
O1259 Co1251 2.135 . S
Co1260 O1261 2.216 . S
Co1260 O1262 2.091 . S
Co1260 O1264 2.004 . S
Co1260 O1270 2.021 . S
Co1260 O1272 2.137 . S
Co1260 O1273 2.244 . S
O1261 Co1260 2.216 . S
O1261 C1268 1.247 . S
O1262 Co1260 2.091 . S
O1262 C1268 1.261 . S
C1263 O1272 1.247 . S
C1263 O1273 1.272 . S
O1264 Co1260 2.004 . S
O1264 C1269 1.259 . S
Co1265 O1266 2.061 . S
Co1265 O1271 2.052 . S
Co1265 O1273 2.135 . S
O1266 Co1265 2.061 . S
O1266 C1269 1.235 . S
C1267 O1270 1.238 . S
C1267 O1271 1.241 . S
C1268 O1261 1.247 . S
C1268 O1262 1.261 . S
C1269 O1264 1.259 . S
C1269 O1266 1.235 . S
O1270 Co1260 2.021 . S
O1270 C1267 1.238 . S
O1271 Co1265 2.052 . S
O1271 C1267 1.241 . S
O1272 Co1260 2.137 . S
O1272 C1263 1.247 . S
O1273 Co1260 2.244 . S
O1273 C1263 1.272 . S
O1273 Co1265 2.135 . S
Co1274 O1275 2.216 1_554 S
Co1274 O1276 2.091 1_554 S
Co1274 O1278 2.004 . S
Co1274 O1284 2.021 1_554 S
Co1274 O1286 2.137 . S
Co1274 O1287 2.244 . S
O1275 Co1274 2.216 1_556 S
O1275 C1282 1.247 . S
O1276 Co1274 2.091 1_556 S
O1276 C1282 1.261 . S
C1277 O1286 1.247 . S
C1277 O1287 1.272 . S
O1278 Co1274 2.004 . S
O1278 C1283 1.259 . S
Co1279 O1280 2.061 . S
Co1279 O1285 2.052 1_554 S
Co1279 O1287 2.135 . S
O1280 Co1279 2.061 . S
O1280 C1283 1.235 . S
C1281 O1284 1.238 . S
C1281 O1285 1.241 . S
C1282 O1275 1.247 . S
C1282 O1276 1.261 . S
C1283 O1278 1.259 . S
C1283 O1280 1.235 . S
O1284 Co1274 2.021 1_556 S
O1284 C1281 1.238 . S
O1285 Co1279 2.052 1_556 S
O1285 C1281 1.241 . S
O1286 Co1274 2.137 . S
O1286 C1277 1.247 . S
O1287 Co1274 2.244 . S
O1287 C1277 1.272 . S
O1287 Co1279 2.135 . S
Co1288 O1289 2.216 . S
Co1288 O1290 2.091 . S
Co1288 O1292 2.004 . S
Co1288 O1298 2.021 . S
Co1288 O1300 2.137 . S
Co1288 O1301 2.244 . S
O1289 Co1288 2.216 . S
O1289 C1296 1.247 . S
O1290 Co1288 2.091 . S
O1290 C1296 1.261 . S
C1291 O1300 1.247 . S
C1291 O1301 1.272 . S
O1292 Co1288 2.004 . S
O1292 C1297 1.259 . S
Co1293 O1294 2.061 . S
Co1293 O1299 2.052 . S
Co1293 O1301 2.135 . S
O1294 Co1293 2.061 . S
O1294 C1297 1.235 . S
C1295 O1298 1.238 . S
C1295 O1299 1.241 . S
C1296 O1289 1.247 . S
C1296 O1290 1.261 . S
C1297 O1292 1.259 . S
C1297 O1294 1.235 . S
O1298 Co1288 2.021 . S
O1298 C1295 1.238 . S
O1299 Co1293 2.052 . S
O1299 C1295 1.241 . S
O1300 Co1288 2.137 . S
O1300 C1291 1.247 . S
O1301 Co1288 2.244 . S
O1301 C1291 1.272 . S
O1301 Co1293 2.135 . S
Co1302 O1303 2.216 1_556 S
Co1302 O1304 2.091 1_556 S
Co1302 O1306 2.004 . S
Co1302 O1312 2.021 1_556 S
Co1302 O1314 2.137 . S
Co1302 O1315 2.244 . S
O1303 Co1302 2.216 1_554 S
O1303 C1310 1.247 . S
O1304 Co1302 2.091 1_554 S
O1304 C1310 1.261 . S
C1305 O1314 1.247 . S
C1305 O1315 1.272 . S
O1306 Co1302 2.004 . S
O1306 C1311 1.259 . S
Co1307 O1308 2.061 . S
Co1307 O1313 2.052 1_556 S
Co1307 O1315 2.135 . S
O1308 Co1307 2.061 . S
O1308 C1311 1.235 . S
C1309 O1312 1.238 . S
C1309 O1313 1.241 . S
C1310 O1303 1.247 . S
C1310 O1304 1.261 . S
C1311 O1306 1.259 . S
C1311 O1308 1.235 . S
O1312 Co1302 2.021 1_554 S
O1312 C1309 1.238 . S
O1313 Co1307 2.052 1_554 S
O1313 C1309 1.241 . S
O1314 Co1302 2.137 . S
O1314 C1305 1.247 . S
O1315 Co1302 2.244 . S
O1315 C1305 1.272 . S
O1315 Co1307 2.135 . S
Co1316 O1317 2.216 . S
Co1316 O1318 2.091 . S
Co1316 O1320 2.004 . S
Co1316 O1326 2.021 . S
Co1316 O1328 2.137 . S
Co1316 O1329 2.244 . S
O1317 Co1316 2.216 . S
O1317 C1324 1.247 . S
O1318 Co1316 2.091 . S
O1318 C1324 1.261 . S
C1319 O1328 1.247 . S
C1319 O1329 1.272 . S
O1320 Co1316 2.004 . S
O1320 C1325 1.259 . S
Co1321 O1322 2.061 . S
Co1321 O1327 2.052 . S
Co1321 O1329 2.135 . S
O1322 Co1321 2.061 . S
O1322 C1325 1.235 . S
C1323 O1326 1.238 . S
C1323 O1327 1.241 . S
C1324 O1317 1.247 . S
C1324 O1318 1.261 . S
C1325 O1320 1.259 . S
C1325 O1322 1.235 . S
O1326 Co1316 2.021 . S
O1326 C1323 1.238 . S
O1327 Co1321 2.052 . S
O1327 C1323 1.241 . S
O1328 Co1316 2.137 . S
O1328 C1319 1.247 . S
O1329 Co1316 2.244 . S
O1329 C1319 1.272 . S
O1329 Co1321 2.135 . S
Co1330 O1331 2.216 . S
Co1330 O1332 2.091 . S
Co1330 O1334 2.004 . S
Co1330 O1340 2.021 . S
Co1330 O1342 2.137 . S
Co1330 O1343 2.244 . S
O1331 Co1330 2.216 . S
O1331 C1338 1.247 . S
O1332 Co1330 2.091 . S
O1332 C1338 1.261 . S
C1333 O1342 1.247 . S
C1333 O1343 1.272 . S
O1334 Co1330 2.004 . S
O1334 C1339 1.259 . S
Co1335 O1336 2.061 . S
Co1335 O1341 2.052 . S
Co1335 O1343 2.135 . S
O1336 Co1335 2.061 . S
O1336 C1339 1.235 . S
C1337 O1340 1.238 . S
C1337 O1341 1.241 . S
C1338 O1331 1.247 . S
C1338 O1332 1.261 . S
C1339 O1334 1.259 . S
C1339 O1336 1.235 . S
O1340 Co1330 2.021 . S
O1340 C1337 1.238 . S
O1341 Co1335 2.052 . S
O1341 C1337 1.241 . S
O1342 Co1330 2.137 . S
O1342 C1333 1.247 . S
O1343 Co1330 2.244 . S
O1343 C1333 1.272 . S
O1343 Co1335 2.135 . S
C1344 C1345 1.369 . S
C1344 C1346 1.419 . S
C1344 H1348 0.930 . S
C1345 C1344 1.369 . S
C1345 C1354 1.429 . S
C1346 C1344 1.419 . S
C1346 C1347 1.363 . S
C1346 H1349 0.929 . S
C1347 C1346 1.363 . S
C1347 C1353 1.428 . S
H1348 C1344 0.930 . S
H1349 C1346 0.929 . S
S1350 N1351 1.613 . S
S1350 N1352 1.610 . S
N1351 S1350 1.613 . S
N1351 C1354 1.350 . S
N1352 S1350 1.610 . S
N1352 C1353 1.351 . S
C1353 C1347 1.428 . S
C1353 N1352 1.351 . S
C1353 C1354 1.434 . S
C1354 C1345 1.429 . S
C1354 N1351 1.350 . S
C1354 C1353 1.434 . S
C1355 C1356 1.369 . S
C1355 C1357 1.419 . S
C1355 H1359 0.930 . S
C1356 C1355 1.369 . S
C1356 C1365 1.429 . S
C1357 C1355 1.419 . S
C1357 C1358 1.363 . S
C1357 H1360 0.929 . S
C1358 C1357 1.363 . S
C1358 C1364 1.428 . S
H1359 C1355 0.930 . S
H1360 C1357 0.929 . S
S1361 N1362 1.613 . S
S1361 N1363 1.610 . S
N1362 S1361 1.613 . S
N1362 C1365 1.350 . S
N1363 S1361 1.610 . S
N1363 C1364 1.351 . S
C1364 C1358 1.428 . S
C1364 N1363 1.351 . S
C1364 C1365 1.434 . S
C1365 C1356 1.429 . S
C1365 N1362 1.350 . S
C1365 C1364 1.434 . S
C1366 C1367 1.369 . S
C1366 C1368 1.419 . S
C1366 H1370 0.930 . S
C1367 C1366 1.369 . S
C1367 C1376 1.429 . S
C1368 C1366 1.419 . S
C1368 C1369 1.363 . S
C1368 H1371 0.929 . S
C1369 C1368 1.363 . S
C1369 C1375 1.428 . S
H1370 C1366 0.930 . S
H1371 C1368 0.929 . S
S1372 N1373 1.613 . S
S1372 N1374 1.610 . S
N1373 S1372 1.613 . S
N1373 C1376 1.350 . S
N1374 S1372 1.610 . S
N1374 C1375 1.351 . S
C1375 C1369 1.428 . S
C1375 N1374 1.351 . S
C1375 C1376 1.434 . S
C1376 C1367 1.429 . S
C1376 N1373 1.350 . S
C1376 C1375 1.434 . S
C1377 C1378 1.369 . S
C1377 C1379 1.419 . S
C1377 H1381 0.930 . S
C1378 C1377 1.369 . S
C1378 C1387 1.429 . S
C1379 C1377 1.419 . S
C1379 C1380 1.363 . S
C1379 H1382 0.929 . S
C1380 C1379 1.363 . S
C1380 C1386 1.428 . S
H1381 C1377 0.930 . S
H1382 C1379 0.929 . S
S1383 N1384 1.613 . S
S1383 N1385 1.610 . S
N1384 S1383 1.613 . S
N1384 C1387 1.350 . S
N1385 S1383 1.610 . S
N1385 C1386 1.351 . S
C1386 C1380 1.428 . S
C1386 N1385 1.351 . S
C1386 C1387 1.434 . S
C1387 C1378 1.429 . S
C1387 N1384 1.350 . S
C1387 C1386 1.434 . S
C1388 C1389 1.369 . S
C1388 C1390 1.419 . S
C1388 H1392 0.930 . S
C1389 C1388 1.369 . S
C1389 C1398 1.429 . S
C1390 C1388 1.419 . S
C1390 C1391 1.363 . S
C1390 H1393 0.929 . S
C1391 C1390 1.363 . S
C1391 C1397 1.428 . S
H1392 C1388 0.930 . S
H1393 C1390 0.929 . S
S1394 N1395 1.613 . S
S1394 N1396 1.610 . S
N1395 S1394 1.613 . S
N1395 C1398 1.350 . S
N1396 S1394 1.610 . S
N1396 C1397 1.351 . S
C1397 C1391 1.428 . S
C1397 N1396 1.351 . S
C1397 C1398 1.434 . S
C1398 C1389 1.429 . S
C1398 N1395 1.350 . S
C1398 C1397 1.434 . S
C1399 C1400 1.369 . S
C1399 C1401 1.419 . S
C1399 H1403 0.930 . S
C1400 C1399 1.369 . S
C1400 C1409 1.429 . S
C1401 C1399 1.419 . S
C1401 C1402 1.363 . S
C1401 H1404 0.929 . S
C1402 C1401 1.363 . S
C1402 C1408 1.428 . S
H1403 C1399 0.930 . S
H1404 C1401 0.929 . S
S1405 N1406 1.613 . S
S1405 N1407 1.610 . S
N1406 S1405 1.613 . S
N1406 C1409 1.350 . S
N1407 S1405 1.610 . S
N1407 C1408 1.351 . S
C1408 C1402 1.428 . S
C1408 N1407 1.351 . S
C1408 C1409 1.434 . S
C1409 C1400 1.429 . S
C1409 N1406 1.350 . S
C1409 C1408 1.434 . S
C1410 C1411 1.369 . S
C1410 C1412 1.419 . S
C1410 H1414 0.930 . S
C1411 C1410 1.369 . S
C1411 C1420 1.429 . S
C1412 C1410 1.419 . S
C1412 C1413 1.363 . S
C1412 H1415 0.929 . S
C1413 C1412 1.363 . S
C1413 C1419 1.428 . S
H1414 C1410 0.930 . S
H1415 C1412 0.929 . S
S1416 N1417 1.613 . S
S1416 N1418 1.610 . S
N1417 S1416 1.613 . S
N1417 C1420 1.350 . S
N1418 S1416 1.610 . S
N1418 C1419 1.351 . S
C1419 C1413 1.428 . S
C1419 N1418 1.351 . S
C1419 C1420 1.434 . S
C1420 C1411 1.429 . S
C1420 N1417 1.350 . S
C1420 C1419 1.434 . S
C1421 C1422 1.369 . S
C1421 C1423 1.419 . S
C1421 H1425 0.930 . S
C1422 C1421 1.369 . S
C1422 C1431 1.429 . S
C1423 C1421 1.419 . S
C1423 C1424 1.363 . S
C1423 H1426 0.929 . S
C1424 C1423 1.363 . S
C1424 C1430 1.428 . S
H1425 C1421 0.930 . S
H1426 C1423 0.929 . S
S1427 N1428 1.613 . S
S1427 N1429 1.610 . S
N1428 S1427 1.613 . S
N1428 C1431 1.350 . S
N1429 S1427 1.610 . S
N1429 C1430 1.351 . S
C1430 C1424 1.428 . S
C1430 N1429 1.351 . S
C1430 C1431 1.434 . S
C1431 C1422 1.429 . S
C1431 N1428 1.350 . S
C1431 C1430 1.434 . S
C1432 C1433 1.369 . S
C1432 C1434 1.419 . S
C1432 H1436 0.930 . S
C1433 C1432 1.369 . S
C1433 C1442 1.429 . S
C1434 C1432 1.419 . S
C1434 C1435 1.363 . S
C1434 H1437 0.929 . S
C1435 C1434 1.363 . S
C1435 C1441 1.428 . S
H1436 C1432 0.930 . S
H1437 C1434 0.929 . S
S1438 N1439 1.613 . S
S1438 N1440 1.610 . S
N1439 S1438 1.613 . S
N1439 C1442 1.350 . S
N1440 S1438 1.610 . S
N1440 C1441 1.351 . S
C1441 C1435 1.428 . S
C1441 N1440 1.351 . S
C1441 C1442 1.434 . S
C1442 C1433 1.429 . S
C1442 N1439 1.350 . S
C1442 C1441 1.434 . S
C1443 C1444 1.369 . S
C1443 C1445 1.419 . S
C1443 H1447 0.930 . S
C1444 C1443 1.369 . S
C1444 C1453 1.429 . S
C1445 C1443 1.419 . S
C1445 C1446 1.363 . S
C1445 H1448 0.929 . S
C1446 C1445 1.363 . S
C1446 C1452 1.428 . S
H1447 C1443 0.930 . S
H1448 C1445 0.929 . S
S1449 N1450 1.613 . S
S1449 N1451 1.610 . S
N1450 S1449 1.613 . S
N1450 C1453 1.350 . S
N1451 S1449 1.610 . S
N1451 C1452 1.351 . S
C1452 C1446 1.428 . S
C1452 N1451 1.351 . S
C1452 C1453 1.434 . S
C1453 C1444 1.429 . S
C1453 N1450 1.350 . S
C1453 C1452 1.434 . S
C1454 C1455 1.369 . S
C1454 C1456 1.419 . S
C1454 H1458 0.930 . S
C1455 C1454 1.369 . S
C1455 C1464 1.429 . S
C1456 C1454 1.419 . S
C1456 C1457 1.363 . S
C1456 H1459 0.929 . S
C1457 C1456 1.363 . S
C1457 C1463 1.428 . S
H1458 C1454 0.930 . S
H1459 C1456 0.929 . S
S1460 N1461 1.613 . S
S1460 N1462 1.610 . S
N1461 S1460 1.613 . S
N1461 C1464 1.350 . S
N1462 S1460 1.610 . S
N1462 C1463 1.351 . S
C1463 C1457 1.428 . S
C1463 N1462 1.351 . S
C1463 C1464 1.434 . S
C1464 C1455 1.429 . S
C1464 N1461 1.350 . S
C1464 C1463 1.434 . S
C1465 C1466 1.369 . S
C1465 C1467 1.419 . S
C1465 H1469 0.930 . S
C1466 C1465 1.369 . S
C1466 C1475 1.429 . S
C1467 C1465 1.419 . S
C1467 C1468 1.363 . S
C1467 H1470 0.929 . S
C1468 C1467 1.363 . S
C1468 C1474 1.428 . S
H1469 C1465 0.930 . S
H1470 C1467 0.929 . S
S1471 N1472 1.613 . S
S1471 N1473 1.610 . S
N1472 S1471 1.613 . S
N1472 C1475 1.350 . S
N1473 S1471 1.610 . S
N1473 C1474 1.351 . S
C1474 C1468 1.428 . S
C1474 N1473 1.351 . S
C1474 C1475 1.434 . S
C1475 C1466 1.429 . S
C1475 N1472 1.350 . S
C1475 C1474 1.434 . S
C1476 C1477 1.369 . S
C1476 C1478 1.419 . S
C1476 H1480 0.930 . S
C1477 C1476 1.369 . S
C1477 C1486 1.429 . S
C1478 C1476 1.419 . S
C1478 C1479 1.363 . S
C1478 H1481 0.929 . S
C1479 C1478 1.363 . S
C1479 C1485 1.428 . S
H1480 C1476 0.930 . S
H1481 C1478 0.929 . S
S1482 N1483 1.613 . S
S1482 N1484 1.610 . S
N1483 S1482 1.613 . S
N1483 C1486 1.350 . S
N1484 S1482 1.610 . S
N1484 C1485 1.351 . S
C1485 C1479 1.428 . S
C1485 N1484 1.351 . S
C1485 C1486 1.434 . S
C1486 C1477 1.429 . S
C1486 N1483 1.350 . S
C1486 C1485 1.434 . S
C1487 C1488 1.369 . S
C1487 C1489 1.419 . S
C1487 H1491 0.930 . S
C1488 C1487 1.369 . S
C1488 C1497 1.429 . S
C1489 C1487 1.419 . S
C1489 C1490 1.363 . S
C1489 H1492 0.929 . S
C1490 C1489 1.363 . S
C1490 C1496 1.428 . S
H1491 C1487 0.930 . S
H1492 C1489 0.929 . S
S1493 N1494 1.613 . S
S1493 N1495 1.610 . S
N1494 S1493 1.613 . S
N1494 C1497 1.350 . S
N1495 S1493 1.610 . S
N1495 C1496 1.351 . S
C1496 C1490 1.428 . S
C1496 N1495 1.351 . S
C1496 C1497 1.434 . S
C1497 C1488 1.429 . S
C1497 N1494 1.350 . S
C1497 C1496 1.434 . S
C1498 C1499 1.369 . S
C1498 C1500 1.419 . S
C1498 H1502 0.930 . S
C1499 C1498 1.369 . S
C1499 C1508 1.429 . S
C1500 C1498 1.419 . S
C1500 C1501 1.363 . S
C1500 H1503 0.929 . S
C1501 C1500 1.363 . S
C1501 C1507 1.428 . S
H1502 C1498 0.930 . S
H1503 C1500 0.929 . S
S1504 N1505 1.613 . S
S1504 N1506 1.610 . S
N1505 S1504 1.613 . S
N1505 C1508 1.350 . S
N1506 S1504 1.610 . S
N1506 C1507 1.351 . S
C1507 C1501 1.428 . S
C1507 N1506 1.351 . S
C1507 C1508 1.434 . S
C1508 C1499 1.429 . S
C1508 N1505 1.350 . S
C1508 C1507 1.434 . S
C1509 C1510 1.369 . S
C1509 C1511 1.419 . S
C1509 H1513 0.930 . S
C1510 C1509 1.369 . S
C1510 C1519 1.429 . S
C1511 C1509 1.419 . S
C1511 C1512 1.363 . S
C1511 H1514 0.929 . S
C1512 C1511 1.363 . S
C1512 C1518 1.428 . S
H1513 C1509 0.930 . S
H1514 C1511 0.929 . S
S1515 N1516 1.613 . S
S1515 N1517 1.610 . S
N1516 S1515 1.613 . S
N1516 C1519 1.350 . S
N1517 S1515 1.610 . S
N1517 C1518 1.351 . S
C1518 C1512 1.428 . S
C1518 N1517 1.351 . S
C1518 C1519 1.434 . S
C1519 C1510 1.429 . S
C1519 N1516 1.350 . S
C1519 C1518 1.434 . S
C1520 C1521 1.369 . S
C1520 C1522 1.419 . S
C1520 H1524 0.930 . S
C1521 C1520 1.369 . S
C1521 C1530 1.429 . S
C1522 C1520 1.419 . S
C1522 C1523 1.363 . S
C1522 H1525 0.929 . S
C1523 C1522 1.363 . S
C1523 C1529 1.428 . S
H1524 C1520 0.930 . S
H1525 C1522 0.929 . S
S1526 N1527 1.613 . S
S1526 N1528 1.610 . S
N1527 S1526 1.613 . S
N1527 C1530 1.350 . S
N1528 S1526 1.610 . S
N1528 C1529 1.351 . S
C1529 C1523 1.428 . S
C1529 N1528 1.351 . S
C1529 C1530 1.434 . S
C1530 C1521 1.429 . S
C1530 N1527 1.350 . S
C1530 C1529 1.434 . S
C1531 C1532 1.369 . S
C1531 C1533 1.419 . S
C1531 H1535 0.930 . S
C1532 C1531 1.369 . S
C1532 C1541 1.429 . S
C1533 C1531 1.419 . S
C1533 C1534 1.363 . S
C1533 H1536 0.929 . S
C1534 C1533 1.363 . S
C1534 C1540 1.428 . S
H1535 C1531 0.930 . S
H1536 C1533 0.929 . S
S1537 N1538 1.613 . S
S1537 N1539 1.610 . S
N1538 S1537 1.613 . S
N1538 C1541 1.350 . S
N1539 S1537 1.610 . S
N1539 C1540 1.351 . S
C1540 C1534 1.428 . S
C1540 N1539 1.351 . S
C1540 C1541 1.434 . S
C1541 C1532 1.429 . S
C1541 N1538 1.350 . S
C1541 C1540 1.434 . S
C1542 C1543 1.369 . S
C1542 C1544 1.419 . S
C1542 H1546 0.930 . S
C1543 C1542 1.369 . S
C1543 C1552 1.429 . S
C1544 C1542 1.419 . S
C1544 C1545 1.363 . S
C1544 H1547 0.929 . S
C1545 C1544 1.363 . S
C1545 C1551 1.428 . S
H1546 C1542 0.930 . S
H1547 C1544 0.929 . S
S1548 N1549 1.613 . S
S1548 N1550 1.610 . S
N1549 S1548 1.613 . S
N1549 C1552 1.350 . S
N1550 S1548 1.610 . S
N1550 C1551 1.351 . S
C1551 C1545 1.428 . S
C1551 N1550 1.351 . S
C1551 C1552 1.434 . S
C1552 C1543 1.429 . S
C1552 N1549 1.350 . S
C1552 C1551 1.434 . S
C1553 C1554 1.369 . S
C1553 C1555 1.419 . S
C1553 H1557 0.930 . S
C1554 C1553 1.369 . S
C1554 C1563 1.429 . S
C1555 C1553 1.419 . S
C1555 C1556 1.363 . S
C1555 H1558 0.929 . S
C1556 C1555 1.363 . S
C1556 C1562 1.428 . S
H1557 C1553 0.930 . S
H1558 C1555 0.929 . S
S1559 N1560 1.613 . S
S1559 N1561 1.610 . S
N1560 S1559 1.613 . S
N1560 C1563 1.350 . S
N1561 S1559 1.610 . S
N1561 C1562 1.351 . S
C1562 C1556 1.428 . S
C1562 N1561 1.351 . S
C1562 C1563 1.434 . S
C1563 C1554 1.429 . S
C1563 N1560 1.350 . S
C1563 C1562 1.434 . S
C1564 C1565 1.369 . S
C1564 C1566 1.419 . S
C1564 H1568 0.930 . S
C1565 C1564 1.369 . S
C1565 C1574 1.429 . S
C1566 C1564 1.419 . S
C1566 C1567 1.363 . S
C1566 H1569 0.929 . S
C1567 C1566 1.363 . S
C1567 C1573 1.428 . S
H1568 C1564 0.930 . S
H1569 C1566 0.929 . S
S1570 N1571 1.613 . S
S1570 N1572 1.610 . S
N1571 S1570 1.613 . S
N1571 C1574 1.350 . S
N1572 S1570 1.610 . S
N1572 C1573 1.351 . S
C1573 C1567 1.428 . S
C1573 N1572 1.351 . S
C1573 C1574 1.434 . S
C1574 C1565 1.429 . S
C1574 N1571 1.350 . S
C1574 C1573 1.434 . S
C1575 C1576 1.369 . S
C1575 C1577 1.419 . S
C1575 H1579 0.930 . S
C1576 C1575 1.369 . S
C1576 C1585 1.429 . S
C1577 C1575 1.419 . S
C1577 C1578 1.363 . S
C1577 H1580 0.929 . S
C1578 C1577 1.363 . S
C1578 C1584 1.428 . S
H1579 C1575 0.930 . S
H1580 C1577 0.929 . S
S1581 N1582 1.613 . S
S1581 N1583 1.610 . S
N1582 S1581 1.613 . S
N1582 C1585 1.350 . S
N1583 S1581 1.610 . S
N1583 C1584 1.351 . S
C1584 C1578 1.428 . S
C1584 N1583 1.351 . S
C1584 C1585 1.434 . S
C1585 C1576 1.429 . S
C1585 N1582 1.350 . S
C1585 C1584 1.434 . S
C1586 C1587 1.369 . S
C1586 C1588 1.419 . S
C1586 H1590 0.930 . S
C1587 C1586 1.369 . S
C1587 C1596 1.429 . S
C1588 C1586 1.419 . S
C1588 C1589 1.363 . S
C1588 H1591 0.929 . S
C1589 C1588 1.363 . S
C1589 C1595 1.428 . S
H1590 C1586 0.930 . S
H1591 C1588 0.929 . S
S1592 N1593 1.613 . S
S1592 N1594 1.610 . S
N1593 S1592 1.613 . S
N1593 C1596 1.350 . S
N1594 S1592 1.610 . S
N1594 C1595 1.351 . S
C1595 C1589 1.428 . S
C1595 N1594 1.351 . S
C1595 C1596 1.434 . S
C1596 C1587 1.429 . S
C1596 N1593 1.350 . S
C1596 C1595 1.434 . S
C1597 C1598 1.369 . S
C1597 C1599 1.419 . S
C1597 H1601 0.930 . S
C1598 C1597 1.369 . S
C1598 C1607 1.429 . S
C1599 C1597 1.419 . S
C1599 C1600 1.363 . S
C1599 H1602 0.929 . S
C1600 C1599 1.363 . S
C1600 C1606 1.428 . S
H1601 C1597 0.930 . S
H1602 C1599 0.929 . S
S1603 N1604 1.613 . S
S1603 N1605 1.610 . S
N1604 S1603 1.613 . S
N1604 C1607 1.350 . S
N1605 S1603 1.610 . S
N1605 C1606 1.351 . S
C1606 C1600 1.428 . S
C1606 N1605 1.351 . S
C1606 C1607 1.434 . S
C1607 C1598 1.429 . S
C1607 N1604 1.350 . S
C1607 C1606 1.434 . S
C1608 C1609 1.369 . S
C1608 C1610 1.419 . S
C1608 H1612 0.930 . S
C1609 C1608 1.369 . S
C1609 C1618 1.429 . S
C1610 C1608 1.419 . S
C1610 C1611 1.363 . S
C1610 H1613 0.929 . S
C1611 C1610 1.363 . S
C1611 C1617 1.428 . S
H1612 C1608 0.930 . S
H1613 C1610 0.929 . S
S1614 N1615 1.613 . S
S1614 N1616 1.610 . S
N1615 S1614 1.613 . S
N1615 C1618 1.350 . S
N1616 S1614 1.610 . S
N1616 C1617 1.351 . S
C1617 C1611 1.428 . S
C1617 N1616 1.351 . S
C1617 C1618 1.434 . S
C1618 C1609 1.429 . S
C1618 N1615 1.350 . S
C1618 C1617 1.434 . S
C1619 C1620 1.369 . S
C1619 C1621 1.419 . S
C1619 H1623 0.930 . S
C1620 C1619 1.369 . S
C1620 C1629 1.429 . S
C1621 C1619 1.419 . S
C1621 C1622 1.363 . S
C1621 H1624 0.929 . S
C1622 C1621 1.363 . S
C1622 C1628 1.428 . S
H1623 C1619 0.930 . S
H1624 C1621 0.929 . S
S1625 N1626 1.613 . S
S1625 N1627 1.610 . S
N1626 S1625 1.613 . S
N1626 C1629 1.350 . S
N1627 S1625 1.610 . S
N1627 C1628 1.351 . S
C1628 C1622 1.428 . S
C1628 N1627 1.351 . S
C1628 C1629 1.434 . S
C1629 C1620 1.429 . S
C1629 N1626 1.350 . S
C1629 C1628 1.434 . S
C1630 C1631 1.369 . S
C1630 C1632 1.419 . S
C1630 H1634 0.930 . S
C1631 C1630 1.369 . S
C1631 C1640 1.429 . S
C1632 C1630 1.419 . S
C1632 C1633 1.363 . S
C1632 H1635 0.929 . S
C1633 C1632 1.363 . S
C1633 C1639 1.428 . S
H1634 C1630 0.930 . S
H1635 C1632 0.929 . S
S1636 N1637 1.613 . S
S1636 N1638 1.610 . S
N1637 S1636 1.613 . S
N1637 C1640 1.350 . S
N1638 S1636 1.610 . S
N1638 C1639 1.351 . S
C1639 C1633 1.428 . S
C1639 N1638 1.351 . S
C1639 C1640 1.434 . S
C1640 C1631 1.429 . S
C1640 N1637 1.350 . S
C1640 C1639 1.434 . S
C1641 C1642 1.369 . S
C1641 C1643 1.419 . S
C1641 H1645 0.930 . S
C1642 C1641 1.369 . S
C1642 C1651 1.429 . S
C1643 C1641 1.419 . S
C1643 C1644 1.363 . S
C1643 H1646 0.929 . S
C1644 C1643 1.363 . S
C1644 C1650 1.428 . S
H1645 C1641 0.930 . S
H1646 C1643 0.929 . S
S1647 N1648 1.613 . S
S1647 N1649 1.610 . S
N1648 S1647 1.613 . S
N1648 C1651 1.350 . S
N1649 S1647 1.610 . S
N1649 C1650 1.351 . S
C1650 C1644 1.428 . S
C1650 N1649 1.351 . S
C1650 C1651 1.434 . S
C1651 C1642 1.429 . S
C1651 N1648 1.350 . S
C1651 C1650 1.434 . S
C1652 C1653 1.369 . S
C1652 C1654 1.419 . S
C1652 H1656 0.930 . S
C1653 C1652 1.369 . S
C1653 C1662 1.429 . S
C1654 C1652 1.419 . S
C1654 C1655 1.363 . S
C1654 H1657 0.929 . S
C1655 C1654 1.363 . S
C1655 C1661 1.428 . S
H1656 C1652 0.930 . S
H1657 C1654 0.929 . S
S1658 N1659 1.613 . S
S1658 N1660 1.610 . S
N1659 S1658 1.613 . S
N1659 C1662 1.350 . S
N1660 S1658 1.610 . S
N1660 C1661 1.351 . S
C1661 C1655 1.428 . S
C1661 N1660 1.351 . S
C1661 C1662 1.434 . S
C1662 C1653 1.429 . S
C1662 N1659 1.350 . S
C1662 C1661 1.434 . S
C1663 C1664 1.369 . S
C1663 C1665 1.419 . S
C1663 H1667 0.930 . S
C1664 C1663 1.369 . S
C1664 C1673 1.429 . S
C1665 C1663 1.419 . S
C1665 C1666 1.363 . S
C1665 H1668 0.929 . S
C1666 C1665 1.363 . S
C1666 C1672 1.428 . S
H1667 C1663 0.930 . S
H1668 C1665 0.929 . S
S1669 N1670 1.613 . S
S1669 N1671 1.610 . S
N1670 S1669 1.613 . S
N1670 C1673 1.350 . S
N1671 S1669 1.610 . S
N1671 C1672 1.351 . S
C1672 C1666 1.428 . S
C1672 N1671 1.351 . S
C1672 C1673 1.434 . S
C1673 C1664 1.429 . S
C1673 N1670 1.350 . S
C1673 C1672 1.434 . S
C1674 C1675 1.369 . S
C1674 C1676 1.419 . S
C1674 H1678 0.930 . S
C1675 C1674 1.369 . S
C1675 C1684 1.429 . S
C1676 C1674 1.419 . S
C1676 C1677 1.363 . S
C1676 H1679 0.929 . S
C1677 C1676 1.363 . S
C1677 C1683 1.428 . S
H1678 C1674 0.930 . S
H1679 C1676 0.929 . S
S1680 N1681 1.613 . S
S1680 N1682 1.610 . S
N1681 S1680 1.613 . S
N1681 C1684 1.350 . S
N1682 S1680 1.610 . S
N1682 C1683 1.351 . S
C1683 C1677 1.428 . S
C1683 N1682 1.351 . S
C1683 C1684 1.434 . S
C1684 C1675 1.429 . S
C1684 N1681 1.350 . S
C1684 C1683 1.434 . S
C1685 C1686 1.369 . S
C1685 C1687 1.419 . S
C1685 H1689 0.930 . S
C1686 C1685 1.369 . S
C1686 C1695 1.429 . S
C1687 C1685 1.419 . S
C1687 C1688 1.363 . S
C1687 H1690 0.929 . S
C1688 C1687 1.363 . S
C1688 C1694 1.428 . S
H1689 C1685 0.930 . S
H1690 C1687 0.929 . S
S1691 N1692 1.613 . S
S1691 N1693 1.610 . S
N1692 S1691 1.613 . S
N1692 C1695 1.350 . S
N1693 S1691 1.610 . S
N1693 C1694 1.351 . S
C1694 C1688 1.428 . S
C1694 N1693 1.351 . S
C1694 C1695 1.434 . S
C1695 C1686 1.429 . S
C1695 N1692 1.350 . S
C1695 C1694 1.434 . S
C1696 C1697 1.369 . S
C1696 C1698 1.419 . S
C1696 H1700 0.930 . S
C1697 C1696 1.369 . S
C1697 C1706 1.429 . S
C1698 C1696 1.419 . S
C1698 C1699 1.363 . S
C1698 H1701 0.929 . S
C1699 C1698 1.363 . S
C1699 C1705 1.428 . S
H1700 C1696 0.930 . S
H1701 C1698 0.929 . S
S1702 N1703 1.613 . S
S1702 N1704 1.610 . S
N1703 S1702 1.613 . S
N1703 C1706 1.350 . S
N1704 S1702 1.610 . S
N1704 C1705 1.351 . S
C1705 C1699 1.428 . S
C1705 N1704 1.351 . S
C1705 C1706 1.434 . S
C1706 C1697 1.429 . S
C1706 N1703 1.350 . S
C1706 C1705 1.434 . S
C1707 C1708 1.369 . S
C1707 C1709 1.419 . S
C1707 H1711 0.930 . S
C1708 C1707 1.369 . S
C1708 C1717 1.429 . S
C1709 C1707 1.419 . S
C1709 C1710 1.363 . S
C1709 H1712 0.929 . S
C1710 C1709 1.363 . S
C1710 C1716 1.428 . S
H1711 C1707 0.930 . S
H1712 C1709 0.929 . S
S1713 N1714 1.613 . S
S1713 N1715 1.610 . S
N1714 S1713 1.613 . S
N1714 C1717 1.350 . S
N1715 S1713 1.610 . S
N1715 C1716 1.351 . S
C1716 C1710 1.428 . S
C1716 N1715 1.351 . S
C1716 C1717 1.434 . S
C1717 C1708 1.429 . S
C1717 N1714 1.350 . S
C1717 C1716 1.434 . S
C1718 C1719 1.369 . S
C1718 C1720 1.419 . S
C1718 H1722 0.930 . S
C1719 C1718 1.369 . S
C1719 C1728 1.429 . S
C1720 C1718 1.419 . S
C1720 C1721 1.363 . S
C1720 H1723 0.929 . S
C1721 C1720 1.363 . S
C1721 C1727 1.428 . S
H1722 C1718 0.930 . S
H1723 C1720 0.929 . S
S1724 N1725 1.613 . S
S1724 N1726 1.610 . S
N1725 S1724 1.613 . S
N1725 C1728 1.350 . S
N1726 S1724 1.610 . S
N1726 C1727 1.351 . S
C1727 C1721 1.428 . S
C1727 N1726 1.351 . S
C1727 C1728 1.434 . S
C1728 C1719 1.429 . S
C1728 N1725 1.350 . S
C1728 C1727 1.434 . S
C1729 C1730 1.369 . S
C1729 C1731 1.419 . S
C1729 H1733 0.930 . S
C1730 C1729 1.369 . S
C1730 C1739 1.429 . S
C1731 C1729 1.419 . S
C1731 C1732 1.363 . S
C1731 H1734 0.929 . S
C1732 C1731 1.363 . S
C1732 C1738 1.428 . S
H1733 C1729 0.930 . S
H1734 C1731 0.929 . S
S1735 N1736 1.613 . S
S1735 N1737 1.610 . S
N1736 S1735 1.613 . S
N1736 C1739 1.350 . S
N1737 S1735 1.610 . S
N1737 C1738 1.351 . S
C1738 C1732 1.428 . S
C1738 N1737 1.351 . S
C1738 C1739 1.434 . S
C1739 C1730 1.429 . S
C1739 N1736 1.350 . S
C1739 C1738 1.434 . S
C1740 C1741 1.369 . S
C1740 C1742 1.419 . S
C1740 H1744 0.930 . S
C1741 C1740 1.369 . S
C1741 C1750 1.429 . S
C1742 C1740 1.419 . S
C1742 C1743 1.363 . S
C1742 H1745 0.929 . S
C1743 C1742 1.363 . S
C1743 C1749 1.428 . S
H1744 C1740 0.930 . S
H1745 C1742 0.929 . S
S1746 N1747 1.613 . S
S1746 N1748 1.610 . S
N1747 S1746 1.613 . S
N1747 C1750 1.350 . S
N1748 S1746 1.610 . S
N1748 C1749 1.351 . S
C1749 C1743 1.428 . S
C1749 N1748 1.351 . S
C1749 C1750 1.434 . S
C1750 C1741 1.429 . S
C1750 N1747 1.350 . S
C1750 C1749 1.434 . S
C1751 C1752 1.369 . S
C1751 C1753 1.419 . S
C1751 H1755 0.930 . S
C1752 C1751 1.369 . S
C1752 C1761 1.429 . S
C1753 C1751 1.419 . S
C1753 C1754 1.363 . S
C1753 H1756 0.929 . S
C1754 C1753 1.363 . S
C1754 C1760 1.428 . S
H1755 C1751 0.930 . S
H1756 C1753 0.929 . S
S1757 N1758 1.613 . S
S1757 N1759 1.610 . S
N1758 S1757 1.613 . S
N1758 C1761 1.350 . S
N1759 S1757 1.610 . S
N1759 C1760 1.351 . S
C1760 C1754 1.428 . S
C1760 N1759 1.351 . S
C1760 C1761 1.434 . S
C1761 C1752 1.429 . S
C1761 N1758 1.350 . S
C1761 C1760 1.434 . S
C1762 C1763 1.369 . S
C1762 C1764 1.419 . S
C1762 H1766 0.930 . S
C1763 C1762 1.369 . S
C1763 C1772 1.429 . S
C1764 C1762 1.419 . S
C1764 C1765 1.363 . S
C1764 H1767 0.929 . S
C1765 C1764 1.363 . S
C1765 C1771 1.428 . S
H1766 C1762 0.930 . S
H1767 C1764 0.929 . S
S1768 N1769 1.613 . S
S1768 N1770 1.610 . S
N1769 S1768 1.613 . S
N1769 C1772 1.350 . S
N1770 S1768 1.610 . S
N1770 C1771 1.351 . S
C1771 C1765 1.428 . S
C1771 N1770 1.351 . S
C1771 C1772 1.434 . S
C1772 C1763 1.429 . S
C1772 N1769 1.350 . S
C1772 C1771 1.434 . S
C1773 C1774 1.369 . S
C1773 C1775 1.419 . S
C1773 H1777 0.930 . S
C1774 C1773 1.369 . S
C1774 C1783 1.429 . S
C1775 C1773 1.419 . S
C1775 C1776 1.363 . S
C1775 H1778 0.929 . S
C1776 C1775 1.363 . S
C1776 C1782 1.428 . S
H1777 C1773 0.930 . S
H1778 C1775 0.929 . S
S1779 N1780 1.613 . S
S1779 N1781 1.610 . S
N1780 S1779 1.613 . S
N1780 C1783 1.350 . S
N1781 S1779 1.610 . S
N1781 C1782 1.351 . S
C1782 C1776 1.428 . S
C1782 N1781 1.351 . S
C1782 C1783 1.434 . S
C1783 C1774 1.429 . S
C1783 N1780 1.350 . S
C1783 C1782 1.434 . S
C1784 C1785 1.369 . S
C1784 C1786 1.419 . S
C1784 H1788 0.930 . S
C1785 C1784 1.369 . S
C1785 C1794 1.429 . S
C1786 C1784 1.419 . S
C1786 C1787 1.363 . S
C1786 H1789 0.929 . S
C1787 C1786 1.363 . S
C1787 C1793 1.428 . S
H1788 C1784 0.930 . S
H1789 C1786 0.929 . S
S1790 N1791 1.613 . S
S1790 N1792 1.610 . S
N1791 S1790 1.613 . S
N1791 C1794 1.350 . S
N1792 S1790 1.610 . S
N1792 C1793 1.351 . S
C1793 C1787 1.428 . S
C1793 N1792 1.351 . S
C1793 C1794 1.434 . S
C1794 C1785 1.429 . S
C1794 N1791 1.350 . S
C1794 C1793 1.434 . S
C1795 C1796 1.369 . S
C1795 C1797 1.419 . S
C1795 H1799 0.930 . S
C1796 C1795 1.369 . S
C1796 C1805 1.429 . S
C1797 C1795 1.419 . S
C1797 C1798 1.363 . S
C1797 H1800 0.929 . S
C1798 C1797 1.363 . S
C1798 C1804 1.428 . S
H1799 C1795 0.930 . S
H1800 C1797 0.929 . S
S1801 N1802 1.613 . S
S1801 N1803 1.610 . S
N1802 S1801 1.613 . S
N1802 C1805 1.350 . S
N1803 S1801 1.610 . S
N1803 C1804 1.351 . S
C1804 C1798 1.428 . S
C1804 N1803 1.351 . S
C1804 C1805 1.434 . S
C1805 C1796 1.429 . S
C1805 N1802 1.350 . S
C1805 C1804 1.434 . S
C1806 C1807 1.369 . S
C1806 C1808 1.419 . S
C1806 H1810 0.930 . S
C1807 C1806 1.369 . S
C1807 C1816 1.429 . S
C1808 C1806 1.419 . S
C1808 C1809 1.363 . S
C1808 H1811 0.929 . S
C1809 C1808 1.363 . S
C1809 C1815 1.428 . S
H1810 C1806 0.930 . S
H1811 C1808 0.929 . S
S1812 N1813 1.613 . S
S1812 N1814 1.610 . S
N1813 S1812 1.613 . S
N1813 C1816 1.350 . S
N1814 S1812 1.610 . S
N1814 C1815 1.351 . S
C1815 C1809 1.428 . S
C1815 N1814 1.351 . S
C1815 C1816 1.434 . S
C1816 C1807 1.429 . S
C1816 N1813 1.350 . S
C1816 C1815 1.434 . S
C1817 C1818 1.369 . S
C1817 C1819 1.419 . S
C1817 H1821 0.930 . S
C1818 C1817 1.369 . S
C1818 C1827 1.429 . S
C1819 C1817 1.419 . S
C1819 C1820 1.363 . S
C1819 H1822 0.929 . S
C1820 C1819 1.363 . S
C1820 C1826 1.428 . S
H1821 C1817 0.930 . S
H1822 C1819 0.929 . S
S1823 N1824 1.613 . S
S1823 N1825 1.610 . S
N1824 S1823 1.613 . S
N1824 C1827 1.350 . S
N1825 S1823 1.610 . S
N1825 C1826 1.351 . S
C1826 C1820 1.428 . S
C1826 N1825 1.351 . S
C1826 C1827 1.434 . S
C1827 C1818 1.429 . S
C1827 N1824 1.350 . S
C1827 C1826 1.434 . S
C1828 C1829 1.369 . S
C1828 C1830 1.419 . S
C1828 H1832 0.930 . S
C1829 C1828 1.369 . S
C1829 C1838 1.429 . S
C1830 C1828 1.419 . S
C1830 C1831 1.363 . S
C1830 H1833 0.929 . S
C1831 C1830 1.363 . S
C1831 C1837 1.428 . S
H1832 C1828 0.930 . S
H1833 C1830 0.929 . S
S1834 N1835 1.613 . S
S1834 N1836 1.610 . S
N1835 S1834 1.613 . S
N1835 C1838 1.350 . S
N1836 S1834 1.610 . S
N1836 C1837 1.351 . S
C1837 C1831 1.428 . S
C1837 N1836 1.351 . S
C1837 C1838 1.434 . S
C1838 C1829 1.429 . S
C1838 N1835 1.350 . S
C1838 C1837 1.434 . S
C1839 C1840 1.369 . S
C1839 C1841 1.419 . S
C1839 H1843 0.930 . S
C1840 C1839 1.369 . S
C1840 C1849 1.429 . S
C1841 C1839 1.419 . S
C1841 C1842 1.363 . S
C1841 H1844 0.929 . S
C1842 C1841 1.363 . S
C1842 C1848 1.428 . S
H1843 C1839 0.930 . S
H1844 C1841 0.929 . S
S1845 N1846 1.613 . S
S1845 N1847 1.610 . S
N1846 S1845 1.613 . S
N1846 C1849 1.350 . S
N1847 S1845 1.610 . S
N1847 C1848 1.351 . S
C1848 C1842 1.428 . S
C1848 N1847 1.351 . S
C1848 C1849 1.434 . S
C1849 C1840 1.429 . S
C1849 N1846 1.350 . S
C1849 C1848 1.434 . S
C1850 C1851 1.369 . S
C1850 C1852 1.419 . S
C1850 H1854 0.930 . S
C1851 C1850 1.369 . S
C1851 C1860 1.429 . S
C1852 C1850 1.419 . S
C1852 C1853 1.363 . S
C1852 H1855 0.929 . S
C1853 C1852 1.363 . S
C1853 C1859 1.428 . S
H1854 C1850 0.930 . S
H1855 C1852 0.929 . S
S1856 N1857 1.613 . S
S1856 N1858 1.610 . S
N1857 S1856 1.613 . S
N1857 C1860 1.350 . S
N1858 S1856 1.610 . S
N1858 C1859 1.351 . S
C1859 C1853 1.428 . S
C1859 N1858 1.351 . S
C1859 C1860 1.434 . S
C1860 C1851 1.429 . S
C1860 N1857 1.350 . S
C1860 C1859 1.434 . S
C1861 C1862 1.369 . S
C1861 C1863 1.419 . S
C1861 H1865 0.930 . S
C1862 C1861 1.369 . S
C1862 C1871 1.429 . S
C1863 C1861 1.419 . S
C1863 C1864 1.363 . S
C1863 H1866 0.929 . S
C1864 C1863 1.363 . S
C1864 C1870 1.428 . S
H1865 C1861 0.930 . S
H1866 C1863 0.929 . S
S1867 N1868 1.613 . S
S1867 N1869 1.610 . S
N1868 S1867 1.613 . S
N1868 C1871 1.350 . S
N1869 S1867 1.610 . S
N1869 C1870 1.351 . S
C1870 C1864 1.428 . S
C1870 N1869 1.351 . S
C1870 C1871 1.434 . S
C1871 C1862 1.429 . S
C1871 N1868 1.350 . S
C1871 C1870 1.434 . S
C1872 C1873 1.369 . S
C1872 C1874 1.419 . S
C1872 H1876 0.930 . S
C1873 C1872 1.369 . S
C1873 C1882 1.429 . S
C1874 C1872 1.419 . S
C1874 C1875 1.363 . S
C1874 H1877 0.929 . S
C1875 C1874 1.363 . S
C1875 C1881 1.428 . S
H1876 C1872 0.930 . S
H1877 C1874 0.929 . S
S1878 N1879 1.613 . S
S1878 N1880 1.610 . S
N1879 S1878 1.613 . S
N1879 C1882 1.350 . S
N1880 S1878 1.610 . S
N1880 C1881 1.351 . S
C1881 C1875 1.428 . S
C1881 N1880 1.351 . S
C1881 C1882 1.434 . S
C1882 C1873 1.429 . S
C1882 N1879 1.350 . S
C1882 C1881 1.434 . S
C1883 C1884 1.369 . S
C1883 C1885 1.419 . S
C1883 H1887 0.930 . S
C1884 C1883 1.369 . S
C1884 C1893 1.429 . S
C1885 C1883 1.419 . S
C1885 C1886 1.363 . S
C1885 H1888 0.929 . S
C1886 C1885 1.363 . S
C1886 C1892 1.428 . S
H1887 C1883 0.930 . S
H1888 C1885 0.929 . S
S1889 N1890 1.613 . S
S1889 N1891 1.610 . S
N1890 S1889 1.613 . S
N1890 C1893 1.350 . S
N1891 S1889 1.610 . S
N1891 C1892 1.351 . S
C1892 C1886 1.428 . S
C1892 N1891 1.351 . S
C1892 C1893 1.434 . S
C1893 C1884 1.429 . S
C1893 N1890 1.350 . S
C1893 C1892 1.434 . S
C1894 C1895 1.369 . S
C1894 C1896 1.419 . S
C1894 H1898 0.930 . S
C1895 C1894 1.369 . S
C1895 C1904 1.429 . S
C1896 C1894 1.419 . S
C1896 C1897 1.363 . S
C1896 H1899 0.929 . S
C1897 C1896 1.363 . S
C1897 C1903 1.428 . S
H1898 C1894 0.930 . S
H1899 C1896 0.929 . S
S1900 N1901 1.613 . S
S1900 N1902 1.610 . S
N1901 S1900 1.613 . S
N1901 C1904 1.350 . S
N1902 S1900 1.610 . S
N1902 C1903 1.351 . S
C1903 C1897 1.428 . S
C1903 N1902 1.351 . S
C1903 C1904 1.434 . S
C1904 C1895 1.429 . S
C1904 N1901 1.350 . S
C1904 C1903 1.434 . S
C1905 C1906 1.369 . S
C1905 C1907 1.419 . S
C1905 H1909 0.930 . S
C1906 C1905 1.369 . S
C1906 C1915 1.429 . S
C1907 C1905 1.419 . S
C1907 C1908 1.363 . S
C1907 H1910 0.929 . S
C1908 C1907 1.363 . S
C1908 C1914 1.428 . S
H1909 C1905 0.930 . S
H1910 C1907 0.929 . S
S1911 N1912 1.613 . S
S1911 N1913 1.610 . S
N1912 S1911 1.613 . S
N1912 C1915 1.350 . S
N1913 S1911 1.610 . S
N1913 C1914 1.351 . S
C1914 C1908 1.428 . S
C1914 N1913 1.351 . S
C1914 C1915 1.434 . S
C1915 C1906 1.429 . S
C1915 N1912 1.350 . S
C1915 C1914 1.434 . S
C1916 C1917 1.369 . S
C1916 C1918 1.419 . S
C1916 H1920 0.930 . S
C1917 C1916 1.369 . S
C1917 C1926 1.429 . S
C1918 C1916 1.419 . S
C1918 C1919 1.363 . S
C1918 H1921 0.929 . S
C1919 C1918 1.363 . S
C1919 C1925 1.428 . S
H1920 C1916 0.930 . S
H1921 C1918 0.929 . S
S1922 N1923 1.613 . S
S1922 N1924 1.610 . S
N1923 S1922 1.613 . S
N1923 C1926 1.350 . S
N1924 S1922 1.610 . S
N1924 C1925 1.351 . S
C1925 C1919 1.428 . S
C1925 N1924 1.351 . S
C1925 C1926 1.434 . S
C1926 C1917 1.429 . S
C1926 N1923 1.350 . S
C1926 C1925 1.434 . S
C1927 C1928 1.369 . S
C1927 C1929 1.419 . S
C1927 H1931 0.930 . S
C1928 C1927 1.369 . S
C1928 C1937 1.429 . S
C1929 C1927 1.419 . S
C1929 C1930 1.363 . S
C1929 H1932 0.929 . S
C1930 C1929 1.363 . S
C1930 C1936 1.428 . S
H1931 C1927 0.930 . S
H1932 C1929 0.929 . S
S1933 N1934 1.613 . S
S1933 N1935 1.610 . S
N1934 S1933 1.613 . S
N1934 C1937 1.350 . S
N1935 S1933 1.610 . S
N1935 C1936 1.351 . S
C1936 C1930 1.428 . S
C1936 N1935 1.351 . S
C1936 C1937 1.434 . S
C1937 C1928 1.429 . S
C1937 N1934 1.350 . S
C1937 C1936 1.434 . S
C1938 C1939 1.369 . S
C1938 C1940 1.419 . S
C1938 H1942 0.930 . S
C1939 C1938 1.369 . S
C1939 C1948 1.429 . S
C1940 C1938 1.419 . S
C1940 C1941 1.363 . S
C1940 H1943 0.929 . S
C1941 C1940 1.363 . S
C1941 C1947 1.428 . S
H1942 C1938 0.930 . S
H1943 C1940 0.929 . S
S1944 N1945 1.613 . S
S1944 N1946 1.610 . S
N1945 S1944 1.613 . S
N1945 C1948 1.350 . S
N1946 S1944 1.610 . S
N1946 C1947 1.351 . S
C1947 C1941 1.428 . S
C1947 N1946 1.351 . S
C1947 C1948 1.434 . S
C1948 C1939 1.429 . S
C1948 N1945 1.350 . S
C1948 C1947 1.434 . S
C1949 C1950 1.369 . S
C1949 C1951 1.419 . S
C1949 H1953 0.930 . S
C1950 C1949 1.369 . S
C1950 C1959 1.429 . S
C1951 C1949 1.419 . S
C1951 C1952 1.363 . S
C1951 H1954 0.929 . S
C1952 C1951 1.363 . S
C1952 C1958 1.428 . S
H1953 C1949 0.930 . S
H1954 C1951 0.929 . S
S1955 N1956 1.613 . S
S1955 N1957 1.610 . S
N1956 S1955 1.613 . S
N1956 C1959 1.350 . S
N1957 S1955 1.610 . S
N1957 C1958 1.351 . S
C1958 C1952 1.428 . S
C1958 N1957 1.351 . S
C1958 C1959 1.434 . S
C1959 C1950 1.429 . S
C1959 N1956 1.350 . S
C1959 C1958 1.434 . S
C1960 C1961 1.369 . S
C1960 C1962 1.419 . S
C1960 H1964 0.930 . S
C1961 C1960 1.369 . S
C1961 C1970 1.429 . S
C1962 C1960 1.419 . S
C1962 C1963 1.363 . S
C1962 H1965 0.929 . S
C1963 C1962 1.363 . S
C1963 C1969 1.428 . S
H1964 C1960 0.930 . S
H1965 C1962 0.929 . S
S1966 N1967 1.613 . S
S1966 N1968 1.610 . S
N1967 S1966 1.613 . S
N1967 C1970 1.350 . S
N1968 S1966 1.610 . S
N1968 C1969 1.351 . S
C1969 C1963 1.428 . S
C1969 N1968 1.351 . S
C1969 C1970 1.434 . S
C1970 C1961 1.429 . S
C1970 N1967 1.350 . S
C1970 C1969 1.434 . S
C1971 C1972 1.369 . S
C1971 C1973 1.419 . S
C1971 H1975 0.930 . S
C1972 C1971 1.369 . S
C1972 C1981 1.429 . S
C1973 C1971 1.419 . S
C1973 C1974 1.363 . S
C1973 H1976 0.929 . S
C1974 C1973 1.363 . S
C1974 C1980 1.428 . S
H1975 C1971 0.930 . S
H1976 C1973 0.929 . S
S1977 N1978 1.613 . S
S1977 N1979 1.610 . S
N1978 S1977 1.613 . S
N1978 C1981 1.350 . S
N1979 S1977 1.610 . S
N1979 C1980 1.351 . S
C1980 C1974 1.428 . S
C1980 N1979 1.351 . S
C1980 C1981 1.434 . S
C1981 C1972 1.429 . S
C1981 N1978 1.350 . S
C1981 C1980 1.434 . S
C1982 C1983 1.369 . S
C1982 C1984 1.419 . S
C1982 H1986 0.930 . S
C1983 C1982 1.369 . S
C1983 C1992 1.429 . S
C1984 C1982 1.419 . S
C1984 C1985 1.363 . S
C1984 H1987 0.929 . S
C1985 C1984 1.363 . S
C1985 C1991 1.428 . S
H1986 C1982 0.930 . S
H1987 C1984 0.929 . S
S1988 N1989 1.613 . S
S1988 N1990 1.610 . S
N1989 S1988 1.613 . S
N1989 C1992 1.350 . S
N1990 S1988 1.610 . S
N1990 C1991 1.351 . S
C1991 C1985 1.428 . S
C1991 N1990 1.351 . S
C1991 C1992 1.434 . S
C1992 C1983 1.429 . S
C1992 N1989 1.350 . S
C1992 C1991 1.434 . S
C1993 C1994 1.369 . S
C1993 C1995 1.419 . S
C1993 H1997 0.930 . S
C1994 C1993 1.369 . S
C1994 C2003 1.429 . S
C1995 C1993 1.419 . S
C1995 C1996 1.363 . S
C1995 H1998 0.929 . S
C1996 C1995 1.363 . S
C1996 C2002 1.428 . S
H1997 C1993 0.930 . S
H1998 C1995 0.929 . S
S1999 N2000 1.613 . S
S1999 N2001 1.610 . S
N2000 S1999 1.613 . S
N2000 C2003 1.350 . S
N2001 S1999 1.610 . S
N2001 C2002 1.351 . S
C2002 C1996 1.428 . S
C2002 N2001 1.351 . S
C2002 C2003 1.434 . S
C2003 C1994 1.429 . S
C2003 N2000 1.350 . S
C2003 C2002 1.434 . S
C2004 C2005 1.369 . S
C2004 C2006 1.419 . S
C2004 H2008 0.930 . S
C2005 C2004 1.369 . S
C2005 C2014 1.429 . S
C2006 C2004 1.419 . S
C2006 C2007 1.363 . S
C2006 H2009 0.929 . S
C2007 C2006 1.363 . S
C2007 C2013 1.428 . S
H2008 C2004 0.930 . S
H2009 C2006 0.929 . S
S2010 N2011 1.613 . S
S2010 N2012 1.610 . S
N2011 S2010 1.613 . S
N2011 C2014 1.350 . S
N2012 S2010 1.610 . S
N2012 C2013 1.351 . S
C2013 C2007 1.428 . S
C2013 N2012 1.351 . S
C2013 C2014 1.434 . S
C2014 C2005 1.429 . S
C2014 N2011 1.350 . S
C2014 C2013 1.434 . S
C2015 C2016 1.369 . S
C2015 C2017 1.419 . S
C2015 H2019 0.930 . S
C2016 C2015 1.369 . S
C2016 C2025 1.429 . S
C2017 C2015 1.419 . S
C2017 C2018 1.363 . S
C2017 H2020 0.929 . S
C2018 C2017 1.363 . S
C2018 C2024 1.428 . S
H2019 C2015 0.930 . S
H2020 C2017 0.929 . S
S2021 N2022 1.613 . S
S2021 N2023 1.610 . S
N2022 S2021 1.613 . S
N2022 C2025 1.350 . S
N2023 S2021 1.610 . S
N2023 C2024 1.351 . S
C2024 C2018 1.428 . S
C2024 N2023 1.351 . S
C2024 C2025 1.434 . S
C2025 C2016 1.429 . S
C2025 N2022 1.350 . S
C2025 C2024 1.434 . S
C2026 C2027 1.369 . S
C2026 C2028 1.419 . S
C2026 H2030 0.930 . S
C2027 C2026 1.369 . S
C2027 C2036 1.429 . S
C2028 C2026 1.419 . S
C2028 C2029 1.363 . S
C2028 H2031 0.929 . S
C2029 C2028 1.363 . S
C2029 C2035 1.428 . S
H2030 C2026 0.930 . S
H2031 C2028 0.929 . S
S2032 N2033 1.613 . S
S2032 N2034 1.610 . S
N2033 S2032 1.613 . S
N2033 C2036 1.350 . S
N2034 S2032 1.610 . S
N2034 C2035 1.351 . S
C2035 C2029 1.428 . S
C2035 N2034 1.351 . S
C2035 C2036 1.434 . S
C2036 C2027 1.429 . S
C2036 N2033 1.350 . S
C2036 C2035 1.434 . S
C2037 C2038 1.369 . S
C2037 C2039 1.419 . S
C2037 H2041 0.930 . S
C2038 C2037 1.369 . S
C2038 C2047 1.429 . S
C2039 C2037 1.419 . S
C2039 C2040 1.363 . S
C2039 H2042 0.929 . S
C2040 C2039 1.363 . S
C2040 C2046 1.428 . S
H2041 C2037 0.930 . S
H2042 C2039 0.929 . S
S2043 N2044 1.613 . S
S2043 N2045 1.610 . S
N2044 S2043 1.613 . S
N2044 C2047 1.350 . S
N2045 S2043 1.610 . S
N2045 C2046 1.351 . S
C2046 C2040 1.428 . S
C2046 N2045 1.351 . S
C2046 C2047 1.434 . S
C2047 C2038 1.429 . S
C2047 N2044 1.350 . S
C2047 C2046 1.434 . S
C2048 C2049 1.369 . S
C2048 C2050 1.419 . S
C2048 H2052 0.930 . S
C2049 C2048 1.369 . S
C2049 C2058 1.429 . S
C2050 C2048 1.419 . S
C2050 C2051 1.363 . S
C2050 H2053 0.929 . S
C2051 C2050 1.363 . S
C2051 C2057 1.428 . S
H2052 C2048 0.930 . S
H2053 C2050 0.929 . S
S2054 N2055 1.613 . S
S2054 N2056 1.610 . S
N2055 S2054 1.613 . S
N2055 C2058 1.350 . S
N2056 S2054 1.610 . S
N2056 C2057 1.351 . S
C2057 C2051 1.428 . S
C2057 N2056 1.351 . S
C2057 C2058 1.434 . S
C2058 C2049 1.429 . S
C2058 N2055 1.350 . S
C2058 C2057 1.434 . S
C2059 C2060 1.369 . S
C2059 C2061 1.419 . S
C2059 H2063 0.930 . S
C2060 C2059 1.369 . S
C2060 C2069 1.429 . S
C2061 C2059 1.419 . S
C2061 C2062 1.363 . S
C2061 H2064 0.929 . S
C2062 C2061 1.363 . S
C2062 C2068 1.428 . S
H2063 C2059 0.930 . S
H2064 C2061 0.929 . S
S2065 N2066 1.613 . S
S2065 N2067 1.610 . S
N2066 S2065 1.613 . S
N2066 C2069 1.350 . S
N2067 S2065 1.610 . S
N2067 C2068 1.351 . S
C2068 C2062 1.428 . S
C2068 N2067 1.351 . S
C2068 C2069 1.434 . S
C2069 C2060 1.429 . S
C2069 N2066 1.350 . S
C2069 C2068 1.434 . S
C2070 C2071 1.369 . S
C2070 C2072 1.419 . S
C2070 H2074 0.930 . S
C2071 C2070 1.369 . S
C2071 C2080 1.429 . S
C2072 C2070 1.419 . S
C2072 C2073 1.363 . S
C2072 H2075 0.929 . S
C2073 C2072 1.363 . S
C2073 C2079 1.428 . S
H2074 C2070 0.930 . S
H2075 C2072 0.929 . S
S2076 N2077 1.613 . S
S2076 N2078 1.610 . S
N2077 S2076 1.613 . S
N2077 C2080 1.350 . S
N2078 S2076 1.610 . S
N2078 C2079 1.351 . S
C2079 C2073 1.428 . S
C2079 N2078 1.351 . S
C2079 C2080 1.434 . S
C2080 C2071 1.429 . S
C2080 N2077 1.350 . S
C2080 C2079 1.434 . S
C2081 C2082 1.369 . S
C2081 C2083 1.419 . S
C2081 H2085 0.930 . S
C2082 C2081 1.369 . S
C2082 C2091 1.429 . S
C2083 C2081 1.419 . S
C2083 C2084 1.363 . S
C2083 H2086 0.929 . S
C2084 C2083 1.363 . S
C2084 C2090 1.428 . S
H2085 C2081 0.930 . S
H2086 C2083 0.929 . S
S2087 N2088 1.613 . S
S2087 N2089 1.610 . S
N2088 S2087 1.613 . S
N2088 C2091 1.350 . S
N2089 S2087 1.610 . S
N2089 C2090 1.351 . S
C2090 C2084 1.428 . S
C2090 N2089 1.351 . S
C2090 C2091 1.434 . S
C2091 C2082 1.429 . S
C2091 N2088 1.350 . S
C2091 C2090 1.434 . S
C2092 C2093 1.369 . S
C2092 C2094 1.419 . S
C2092 H2096 0.930 . S
C2093 C2092 1.369 . S
C2093 C2102 1.429 . S
C2094 C2092 1.419 . S
C2094 C2095 1.363 . S
C2094 H2097 0.929 . S
C2095 C2094 1.363 . S
C2095 C2101 1.428 . S
H2096 C2092 0.930 . S
H2097 C2094 0.929 . S
S2098 N2099 1.613 . S
S2098 N2100 1.610 . S
N2099 S2098 1.613 . S
N2099 C2102 1.350 . S
N2100 S2098 1.610 . S
N2100 C2101 1.351 . S
C2101 C2095 1.428 . S
C2101 N2100 1.351 . S
C2101 C2102 1.434 . S
C2102 C2093 1.429 . S
C2102 N2099 1.350 . S
C2102 C2101 1.434 . S
C2103 C2104 1.369 . S
C2103 C2105 1.419 . S
C2103 H2107 0.930 . S
C2104 C2103 1.369 . S
C2104 C2113 1.429 . S
C2105 C2103 1.419 . S
C2105 C2106 1.363 . S
C2105 H2108 0.929 . S
C2106 C2105 1.363 . S
C2106 C2112 1.428 . S
H2107 C2103 0.930 . S
H2108 C2105 0.929 . S
S2109 N2110 1.613 . S
S2109 N2111 1.610 . S
N2110 S2109 1.613 . S
N2110 C2113 1.350 . S
N2111 S2109 1.610 . S
N2111 C2112 1.351 . S
C2112 C2106 1.428 . S
C2112 N2111 1.351 . S
C2112 C2113 1.434 . S
C2113 C2104 1.429 . S
C2113 N2110 1.350 . S
C2113 C2112 1.434 . S
C2114 C2115 1.369 . S
C2114 C2116 1.419 . S
C2114 H2118 0.930 . S
C2115 C2114 1.369 . S
C2115 C2124 1.429 . S
C2116 C2114 1.419 . S
C2116 C2117 1.363 . S
C2116 H2119 0.929 . S
C2117 C2116 1.363 . S
C2117 C2123 1.428 . S
H2118 C2114 0.930 . S
H2119 C2116 0.929 . S
S2120 N2121 1.613 . S
S2120 N2122 1.610 . S
N2121 S2120 1.613 . S
N2121 C2124 1.350 . S
N2122 S2120 1.610 . S
N2122 C2123 1.351 . S
C2123 C2117 1.428 . S
C2123 N2122 1.351 . S
C2123 C2124 1.434 . S
C2124 C2115 1.429 . S
C2124 N2121 1.350 . S
C2124 C2123 1.434 . S
C2125 C2126 1.369 . S
C2125 C2127 1.419 . S
C2125 H2129 0.930 . S
C2126 C2125 1.369 . S
C2126 C2135 1.429 . S
C2127 C2125 1.419 . S
C2127 C2128 1.363 . S
C2127 H2130 0.929 . S
C2128 C2127 1.363 . S
C2128 C2134 1.428 . S
H2129 C2125 0.930 . S
H2130 C2127 0.929 . S
S2131 N2132 1.613 . S
S2131 N2133 1.610 . S
N2132 S2131 1.613 . S
N2132 C2135 1.350 . S
N2133 S2131 1.610 . S
N2133 C2134 1.351 . S
C2134 C2128 1.428 . S
C2134 N2133 1.351 . S
C2134 C2135 1.434 . S
C2135 C2126 1.429 . S
C2135 N2132 1.350 . S
C2135 C2134 1.434 . S
C2136 C2137 1.369 . S
C2136 C2138 1.419 . S
C2136 H2140 0.930 . S
C2137 C2136 1.369 . S
C2137 C2146 1.429 . S
C2138 C2136 1.419 . S
C2138 C2139 1.363 . S
C2138 H2141 0.929 . S
C2139 C2138 1.363 . S
C2139 C2145 1.428 . S
H2140 C2136 0.930 . S
H2141 C2138 0.929 . S
S2142 N2143 1.613 . S
S2142 N2144 1.610 . S
N2143 S2142 1.613 . S
N2143 C2146 1.350 . S
N2144 S2142 1.610 . S
N2144 C2145 1.351 . S
C2145 C2139 1.428 . S
C2145 N2144 1.351 . S
C2145 C2146 1.434 . S
C2146 C2137 1.429 . S
C2146 N2143 1.350 . S
C2146 C2145 1.434 . S
C2147 C2148 1.369 . S
C2147 C2149 1.419 . S
C2147 H2151 0.930 . S
C2148 C2147 1.369 . S
C2148 C2157 1.429 . S
C2149 C2147 1.419 . S
C2149 C2150 1.363 . S
C2149 H2152 0.929 . S
C2150 C2149 1.363 . S
C2150 C2156 1.428 . S
H2151 C2147 0.930 . S
H2152 C2149 0.929 . S
S2153 N2154 1.613 . S
S2153 N2155 1.610 . S
N2154 S2153 1.613 . S
N2154 C2157 1.350 . S
N2155 S2153 1.610 . S
N2155 C2156 1.351 . S
C2156 C2150 1.428 . S
C2156 N2155 1.351 . S
C2156 C2157 1.434 . S
C2157 C2148 1.429 . S
C2157 N2154 1.350 . S
C2157 C2156 1.434 . S
C2158 C2159 1.369 . S
C2158 C2160 1.419 . S
C2158 H2162 0.930 . S
C2159 C2158 1.369 . S
C2159 C2168 1.429 . S
C2160 C2158 1.419 . S
C2160 C2161 1.363 . S
C2160 H2163 0.929 . S
C2161 C2160 1.363 . S
C2161 C2167 1.428 . S
H2162 C2158 0.930 . S
H2163 C2160 0.929 . S
S2164 N2165 1.613 . S
S2164 N2166 1.610 . S
N2165 S2164 1.613 . S
N2165 C2168 1.350 . S
N2166 S2164 1.610 . S
N2166 C2167 1.351 . S
C2167 C2161 1.428 . S
C2167 N2166 1.351 . S
C2167 C2168 1.434 . S
C2168 C2159 1.429 . S
C2168 N2165 1.350 . S
C2168 C2167 1.434 . S
C2169 C2170 1.369 . S
C2169 C2171 1.419 . S
C2169 H2173 0.930 . S
C2170 C2169 1.369 . S
C2170 C2179 1.429 . S
C2171 C2169 1.419 . S
C2171 C2172 1.363 . S
C2171 H2174 0.929 . S
C2172 C2171 1.363 . S
C2172 C2178 1.428 . S
H2173 C2169 0.930 . S
H2174 C2171 0.929 . S
S2175 N2176 1.613 . S
S2175 N2177 1.610 . S
N2176 S2175 1.613 . S
N2176 C2179 1.350 . S
N2177 S2175 1.610 . S
N2177 C2178 1.351 . S
C2178 C2172 1.428 . S
C2178 N2177 1.351 . S
C2178 C2179 1.434 . S
C2179 C2170 1.429 . S
C2179 N2176 1.350 . S
C2179 C2178 1.434 . S
C2180 C2181 1.369 . S
C2180 C2182 1.419 . S
C2180 H2184 0.930 . S
C2181 C2180 1.369 . S
C2181 C2190 1.429 . S
C2182 C2180 1.419 . S
C2182 C2183 1.363 . S
C2182 H2185 0.929 . S
C2183 C2182 1.363 . S
C2183 C2189 1.428 . S
H2184 C2180 0.930 . S
H2185 C2182 0.929 . S
S2186 N2187 1.613 . S
S2186 N2188 1.610 . S
N2187 S2186 1.613 . S
N2187 C2190 1.350 . S
N2188 S2186 1.610 . S
N2188 C2189 1.351 . S
C2189 C2183 1.428 . S
C2189 N2188 1.351 . S
C2189 C2190 1.434 . S
C2190 C2181 1.429 . S
C2190 N2187 1.350 . S
C2190 C2189 1.434 . S
C2191 C2192 1.369 . S
C2191 C2193 1.419 . S
C2191 H2195 0.930 . S
C2192 C2191 1.369 . S
C2192 C2201 1.429 . S
C2193 C2191 1.419 . S
C2193 C2194 1.363 . S
C2193 H2196 0.929 . S
C2194 C2193 1.363 . S
C2194 C2200 1.428 . S
H2195 C2191 0.930 . S
H2196 C2193 0.929 . S
S2197 N2198 1.613 . S
S2197 N2199 1.610 . S
N2198 S2197 1.613 . S
N2198 C2201 1.350 . S
N2199 S2197 1.610 . S
N2199 C2200 1.351 . S
C2200 C2194 1.428 . S
C2200 N2199 1.351 . S
C2200 C2201 1.434 . S
C2201 C2192 1.429 . S
C2201 N2198 1.350 . S
C2201 C2200 1.434 . S
C2202 C2203 1.369 . S
C2202 C2204 1.419 . S
C2202 H2206 0.930 . S
C2203 C2202 1.369 . S
C2203 C2212 1.429 . S
C2204 C2202 1.419 . S
C2204 C2205 1.363 . S
C2204 H2207 0.929 . S
C2205 C2204 1.363 . S
C2205 C2211 1.428 . S
H2206 C2202 0.930 . S
H2207 C2204 0.929 . S
S2208 N2209 1.613 . S
S2208 N2210 1.610 . S
N2209 S2208 1.613 . S
N2209 C2212 1.350 . S
N2210 S2208 1.610 . S
N2210 C2211 1.351 . S
C2211 C2205 1.428 . S
C2211 N2210 1.351 . S
C2211 C2212 1.434 . S
C2212 C2203 1.429 . S
C2212 N2209 1.350 . S
C2212 C2211 1.434 . S
C2213 C2214 1.369 . S
C2213 C2215 1.419 . S
C2213 H2217 0.930 . S
C2214 C2213 1.369 . S
C2214 C2223 1.429 . S
C2215 C2213 1.419 . S
C2215 C2216 1.363 . S
C2215 H2218 0.929 . S
C2216 C2215 1.363 . S
C2216 C2222 1.428 . S
H2217 C2213 0.930 . S
H2218 C2215 0.929 . S
S2219 N2220 1.613 . S
S2219 N2221 1.610 . S
N2220 S2219 1.613 . S
N2220 C2223 1.350 . S
N2221 S2219 1.610 . S
N2221 C2222 1.351 . S
C2222 C2216 1.428 . S
C2222 N2221 1.351 . S
C2222 C2223 1.434 . S
C2223 C2214 1.429 . S
C2223 N2220 1.350 . S
C2223 C2222 1.434 . S
C2224 C2225 1.369 . S
C2224 C2226 1.419 . S
C2224 H2228 0.930 . S
C2225 C2224 1.369 . S
C2225 C2234 1.429 . S
C2226 C2224 1.419 . S
C2226 C2227 1.363 . S
C2226 H2229 0.929 . S
C2227 C2226 1.363 . S
C2227 C2233 1.428 . S
H2228 C2224 0.930 . S
H2229 C2226 0.929 . S
S2230 N2231 1.613 . S
S2230 N2232 1.610 . S
N2231 S2230 1.613 . S
N2231 C2234 1.350 . S
N2232 S2230 1.610 . S
N2232 C2233 1.351 . S
C2233 C2227 1.428 . S
C2233 N2232 1.351 . S
C2233 C2234 1.434 . S
C2234 C2225 1.429 . S
C2234 N2231 1.350 . S
C2234 C2233 1.434 . S
C2235 C2236 1.369 . S
C2235 C2237 1.419 . S
C2235 H2239 0.930 . S
C2236 C2235 1.369 . S
C2236 C2245 1.429 . S
C2237 C2235 1.419 . S
C2237 C2238 1.363 . S
C2237 H2240 0.929 . S
C2238 C2237 1.363 . S
C2238 C2244 1.428 . S
H2239 C2235 0.930 . S
H2240 C2237 0.929 . S
S2241 N2242 1.613 . S
S2241 N2243 1.610 . S
N2242 S2241 1.613 . S
N2242 C2245 1.350 . S
N2243 S2241 1.610 . S
N2243 C2244 1.351 . S
C2244 C2238 1.428 . S
C2244 N2243 1.351 . S
C2244 C2245 1.434 . S
C2245 C2236 1.429 . S
C2245 N2242 1.350 . S
C2245 C2244 1.434 . S
C2246 C2247 1.369 . S
C2246 C2248 1.419 . S
C2246 H2250 0.930 . S
C2247 C2246 1.369 . S
C2247 C2256 1.429 . S
C2248 C2246 1.419 . S
C2248 C2249 1.363 . S
C2248 H2251 0.929 . S
C2249 C2248 1.363 . S
C2249 C2255 1.428 . S
H2250 C2246 0.930 . S
H2251 C2248 0.929 . S
S2252 N2253 1.613 . S
S2252 N2254 1.610 . S
N2253 S2252 1.613 . S
N2253 C2256 1.350 . S
N2254 S2252 1.610 . S
N2254 C2255 1.351 . S
C2255 C2249 1.428 . S
C2255 N2254 1.351 . S
C2255 C2256 1.434 . S
C2256 C2247 1.429 . S
C2256 N2253 1.350 . S
C2256 C2255 1.434 . S
C2257 C2258 1.369 . S
C2257 C2259 1.419 . S
C2257 H2261 0.930 . S
C2258 C2257 1.369 . S
C2258 C2267 1.429 . S
C2259 C2257 1.419 . S
C2259 C2260 1.363 . S
C2259 H2262 0.929 . S
C2260 C2259 1.363 . S
C2260 C2266 1.428 . S
H2261 C2257 0.930 . S
H2262 C2259 0.929 . S
S2263 N2264 1.613 . S
S2263 N2265 1.610 . S
N2264 S2263 1.613 . S
N2264 C2267 1.350 . S
N2265 S2263 1.610 . S
N2265 C2266 1.351 . S
C2266 C2260 1.428 . S
C2266 N2265 1.351 . S
C2266 C2267 1.434 . S
C2267 C2258 1.429 . S
C2267 N2264 1.350 . S
C2267 C2266 1.434 . S
C2268 C2269 1.369 . S
C2268 C2270 1.419 . S
C2268 H2272 0.930 . S
C2269 C2268 1.369 . S
C2269 C2278 1.429 . S
C2270 C2268 1.419 . S
C2270 C2271 1.363 . S
C2270 H2273 0.929 . S
C2271 C2270 1.363 . S
C2271 C2277 1.428 . S
H2272 C2268 0.930 . S
H2273 C2270 0.929 . S
S2274 N2275 1.613 . S
S2274 N2276 1.610 . S
N2275 S2274 1.613 . S
N2275 C2278 1.350 . S
N2276 S2274 1.610 . S
N2276 C2277 1.351 . S
C2277 C2271 1.428 . S
C2277 N2276 1.351 . S
C2277 C2278 1.434 . S
C2278 C2269 1.429 . S
C2278 N2275 1.350 . S
C2278 C2277 1.434 . S
C2279 C2280 1.369 . S
C2279 C2281 1.419 . S
C2279 H2283 0.930 . S
C2280 C2279 1.369 . S
C2280 C2289 1.429 . S
C2281 C2279 1.419 . S
C2281 C2282 1.363 . S
C2281 H2284 0.929 . S
C2282 C2281 1.363 . S
C2282 C2288 1.428 . S
H2283 C2279 0.930 . S
H2284 C2281 0.929 . S
S2285 N2286 1.613 . S
S2285 N2287 1.610 . S
N2286 S2285 1.613 . S
N2286 C2289 1.350 . S
N2287 S2285 1.610 . S
N2287 C2288 1.351 . S
C2288 C2282 1.428 . S
C2288 N2287 1.351 . S
C2288 C2289 1.434 . S
C2289 C2280 1.429 . S
C2289 N2286 1.350 . S
C2289 C2288 1.434 . S
C2290 C2291 1.369 . S
C2290 C2292 1.419 . S
C2290 H2294 0.930 . S
C2291 C2290 1.369 . S
C2291 C2300 1.429 . S
C2292 C2290 1.419 . S
C2292 C2293 1.363 . S
C2292 H2295 0.929 . S
C2293 C2292 1.363 . S
C2293 C2299 1.428 . S
H2294 C2290 0.930 . S
H2295 C2292 0.929 . S
S2296 N2297 1.613 . S
S2296 N2298 1.610 . S
N2297 S2296 1.613 . S
N2297 C2300 1.350 . S
N2298 S2296 1.610 . S
N2298 C2299 1.351 . S
C2299 C2293 1.428 . S
C2299 N2298 1.351 . S
C2299 C2300 1.434 . S
C2300 C2291 1.429 . S
C2300 N2297 1.350 . S
C2300 C2299 1.434 . S
C2301 C2302 1.369 . S
C2301 C2303 1.419 . S
C2301 H2305 0.930 . S
C2302 C2301 1.369 . S
C2302 C2311 1.429 . S
C2303 C2301 1.419 . S
C2303 C2304 1.363 . S
C2303 H2306 0.929 . S
C2304 C2303 1.363 . S
C2304 C2310 1.428 . S
H2305 C2301 0.930 . S
H2306 C2303 0.929 . S
S2307 N2308 1.613 . S
S2307 N2309 1.610 . S
N2308 S2307 1.613 . S
N2308 C2311 1.350 . S
N2309 S2307 1.610 . S
N2309 C2310 1.351 . S
C2310 C2304 1.428 . S
C2310 N2309 1.351 . S
C2310 C2311 1.434 . S
C2311 C2302 1.429 . S
C2311 N2308 1.350 . S
C2311 C2310 1.434 . S
C2312 C2313 1.369 . S
C2312 C2314 1.419 . S
C2312 H2316 0.930 . S
C2313 C2312 1.369 . S
C2313 C2322 1.429 . S
C2314 C2312 1.419 . S
C2314 C2315 1.363 . S
C2314 H2317 0.929 . S
C2315 C2314 1.363 . S
C2315 C2321 1.428 . S
H2316 C2312 0.930 . S
H2317 C2314 0.929 . S
S2318 N2319 1.613 . S
S2318 N2320 1.610 . S
N2319 S2318 1.613 . S
N2319 C2322 1.350 . S
N2320 S2318 1.610 . S
N2320 C2321 1.351 . S
C2321 C2315 1.428 . S
C2321 N2320 1.351 . S
C2321 C2322 1.434 . S
C2322 C2313 1.429 . S
C2322 N2319 1.350 . S
C2322 C2321 1.434 . S
C2323 C2324 1.369 . S
C2323 C2325 1.419 . S
C2323 H2327 0.930 . S
C2324 C2323 1.369 . S
C2324 C2333 1.429 . S
C2325 C2323 1.419 . S
C2325 C2326 1.363 . S
C2325 H2328 0.929 . S
C2326 C2325 1.363 . S
C2326 C2332 1.428 . S
H2327 C2323 0.930 . S
H2328 C2325 0.929 . S
S2329 N2330 1.613 . S
S2329 N2331 1.610 . S
N2330 S2329 1.613 . S
N2330 C2333 1.350 . S
N2331 S2329 1.610 . S
N2331 C2332 1.351 . S
C2332 C2326 1.428 . S
C2332 N2331 1.351 . S
C2332 C2333 1.434 . S
C2333 C2324 1.429 . S
C2333 N2330 1.350 . S
C2333 C2332 1.434 . S
C2334 C2335 1.369 . S
C2334 C2336 1.419 . S
C2334 H2338 0.930 . S
C2335 C2334 1.369 . S
C2335 C2344 1.429 . S
C2336 C2334 1.419 . S
C2336 C2337 1.363 . S
C2336 H2339 0.929 . S
C2337 C2336 1.363 . S
C2337 C2343 1.428 . S
H2338 C2334 0.930 . S
H2339 C2336 0.929 . S
S2340 N2341 1.613 . S
S2340 N2342 1.610 . S
N2341 S2340 1.613 . S
N2341 C2344 1.350 . S
N2342 S2340 1.610 . S
N2342 C2343 1.351 . S
C2343 C2337 1.428 . S
C2343 N2342 1.351 . S
C2343 C2344 1.434 . S
C2344 C2335 1.429 . S
C2344 N2341 1.350 . S
C2344 C2343 1.434 . S
C2345 C2346 1.369 . S
C2345 C2347 1.419 . S
C2345 H2349 0.930 . S
C2346 C2345 1.369 . S
C2346 C2355 1.429 . S
C2347 C2345 1.419 . S
C2347 C2348 1.363 . S
C2347 H2350 0.929 . S
C2348 C2347 1.363 . S
C2348 C2354 1.428 . S
H2349 C2345 0.930 . S
H2350 C2347 0.929 . S
S2351 N2352 1.613 . S
S2351 N2353 1.610 . S
N2352 S2351 1.613 . S
N2352 C2355 1.350 . S
N2353 S2351 1.610 . S
N2353 C2354 1.351 . S
C2354 C2348 1.428 . S
C2354 N2353 1.351 . S
C2354 C2355 1.434 . S
C2355 C2346 1.429 . S
C2355 N2352 1.350 . S
C2355 C2354 1.434 . S
C2356 C2357 1.369 . S
C2356 C2358 1.419 . S
C2356 H2360 0.930 . S
C2357 C2356 1.369 . S
C2357 C2366 1.429 . S
C2358 C2356 1.419 . S
C2358 C2359 1.363 . S
C2358 H2361 0.929 . S
C2359 C2358 1.363 . S
C2359 C2365 1.428 . S
H2360 C2356 0.930 . S
H2361 C2358 0.929 . S
S2362 N2363 1.613 . S
S2362 N2364 1.610 . S
N2363 S2362 1.613 . S
N2363 C2366 1.350 . S
N2364 S2362 1.610 . S
N2364 C2365 1.351 . S
C2365 C2359 1.428 . S
C2365 N2364 1.351 . S
C2365 C2366 1.434 . S
C2366 C2357 1.429 . S
C2366 N2363 1.350 . S
C2366 C2365 1.434 . S
C2367 C2368 1.369 . S
C2367 C2369 1.419 . S
C2367 H2371 0.930 . S
C2368 C2367 1.369 . S
C2368 C2377 1.429 . S
C2369 C2367 1.419 . S
C2369 C2370 1.363 . S
C2369 H2372 0.929 . S
C2370 C2369 1.363 . S
C2370 C2376 1.428 . S
H2371 C2367 0.930 . S
H2372 C2369 0.929 . S
S2373 N2374 1.613 . S
S2373 N2375 1.610 . S
N2374 S2373 1.613 . S
N2374 C2377 1.350 . S
N2375 S2373 1.610 . S
N2375 C2376 1.351 . S
C2376 C2370 1.428 . S
C2376 N2375 1.351 . S
C2376 C2377 1.434 . S
C2377 C2368 1.429 . S
C2377 N2374 1.350 . S
C2377 C2376 1.434 . S
C2378 C2379 1.369 . S
C2378 C2380 1.419 . S
C2378 H2382 0.930 . S
C2379 C2378 1.369 . S
C2379 C2388 1.429 . S
C2380 C2378 1.419 . S
C2380 C2381 1.363 . S
C2380 H2383 0.929 . S
C2381 C2380 1.363 . S
C2381 C2387 1.428 . S
H2382 C2378 0.930 . S
H2383 C2380 0.929 . S
S2384 N2385 1.613 . S
S2384 N2386 1.610 . S
N2385 S2384 1.613 . S
N2385 C2388 1.350 . S
N2386 S2384 1.610 . S
N2386 C2387 1.351 . S
C2387 C2381 1.428 . S
C2387 N2386 1.351 . S
C2387 C2388 1.434 . S
C2388 C2379 1.429 . S
C2388 N2385 1.350 . S
C2388 C2387 1.434 . S
C2389 C2390 1.369 . S
C2389 C2391 1.419 . S
C2389 H2393 0.930 . S
C2390 C2389 1.369 . S
C2390 C2399 1.429 . S
C2391 C2389 1.419 . S
C2391 C2392 1.363 . S
C2391 H2394 0.929 . S
C2392 C2391 1.363 . S
C2392 C2398 1.428 . S
H2393 C2389 0.930 . S
H2394 C2391 0.929 . S
S2395 N2396 1.613 . S
S2395 N2397 1.610 . S
N2396 S2395 1.613 . S
N2396 C2399 1.350 . S
N2397 S2395 1.610 . S
N2397 C2398 1.351 . S
C2398 C2392 1.428 . S
C2398 N2397 1.351 . S
C2398 C2399 1.434 . S
C2399 C2390 1.429 . S
C2399 N2396 1.350 . S
C2399 C2398 1.434 . S
C2400 C2401 1.369 . S
C2400 C2402 1.419 . S
C2400 H2404 0.930 . S
C2401 C2400 1.369 . S
C2401 C2410 1.429 . S
C2402 C2400 1.419 . S
C2402 C2403 1.363 . S
C2402 H2405 0.929 . S
C2403 C2402 1.363 . S
C2403 C2409 1.428 . S
H2404 C2400 0.930 . S
H2405 C2402 0.929 . S
S2406 N2407 1.613 . S
S2406 N2408 1.610 . S
N2407 S2406 1.613 . S
N2407 C2410 1.350 . S
N2408 S2406 1.610 . S
N2408 C2409 1.351 . S
C2409 C2403 1.428 . S
C2409 N2408 1.351 . S
C2409 C2410 1.434 . S
C2410 C2401 1.429 . S
C2410 N2407 1.350 . S
C2410 C2409 1.434 . S
C2411 C2412 1.369 . S
C2411 C2413 1.419 . S
C2411 H2415 0.930 . S
C2412 C2411 1.369 . S
C2412 C2421 1.429 . S
C2413 C2411 1.419 . S
C2413 C2414 1.363 . S
C2413 H2416 0.929 . S
C2414 C2413 1.363 . S
C2414 C2420 1.428 . S
H2415 C2411 0.930 . S
H2416 C2413 0.929 . S
S2417 N2418 1.613 . S
S2417 N2419 1.610 . S
N2418 S2417 1.613 . S
N2418 C2421 1.350 . S
N2419 S2417 1.610 . S
N2419 C2420 1.351 . S
C2420 C2414 1.428 . S
C2420 N2419 1.351 . S
C2420 C2421 1.434 . S
C2421 C2412 1.429 . S
C2421 N2418 1.350 . S
C2421 C2420 1.434 . S
C2422 C2423 1.369 . S
C2422 C2424 1.419 . S
C2422 H2426 0.930 . S
C2423 C2422 1.369 . S
C2423 C2432 1.429 . S
C2424 C2422 1.419 . S
C2424 C2425 1.363 . S
C2424 H2427 0.929 . S
C2425 C2424 1.363 . S
C2425 C2431 1.428 . S
H2426 C2422 0.930 . S
H2427 C2424 0.929 . S
S2428 N2429 1.613 . S
S2428 N2430 1.610 1_554 S
N2429 S2428 1.613 . S
N2429 C2432 1.350 1_554 S
N2430 S2428 1.610 1_556 S
N2430 C2431 1.351 . S
C2431 C2425 1.428 . S
C2431 N2430 1.351 . S
C2431 C2432 1.434 . S
C2432 C2423 1.429 . S
C2432 N2429 1.350 1_556 S
C2432 C2431 1.434 . S
C2433 C2434 1.369 . S
C2433 C2435 1.419 . S
C2433 H2437 0.930 . S
C2434 C2433 1.369 . S
C2434 C2443 1.429 . S
C2435 C2433 1.419 . S
C2435 C2436 1.363 . S
C2435 H2438 0.929 . S
C2436 C2435 1.363 . S
C2436 C2442 1.428 . S
H2437 C2433 0.930 . S
H2438 C2435 0.929 . S
S2439 N2440 1.613 . S
S2439 N2441 1.610 . S
N2440 S2439 1.613 . S
N2440 C2443 1.350 . S
N2441 S2439 1.610 . S
N2441 C2442 1.351 . S
C2442 C2436 1.428 . S
C2442 N2441 1.351 . S
C2442 C2443 1.434 . S
C2443 C2434 1.429 . S
C2443 N2440 1.350 . S
C2443 C2442 1.434 . S
C2444 C2445 1.369 . S
C2444 C2446 1.419 . S
C2444 H2448 0.930 . S
C2445 C2444 1.369 . S
C2445 C2454 1.429 . S
C2446 C2444 1.419 . S
C2446 C2447 1.363 . S
C2446 H2449 0.929 . S
C2447 C2446 1.363 . S
C2447 C2453 1.428 . S
H2448 C2444 0.930 . S
H2449 C2446 0.929 . S
S2450 N2451 1.613 1_556 S
S2450 N2452 1.610 . S
N2451 S2450 1.613 1_554 S
N2451 C2454 1.350 . S
N2452 S2450 1.610 . S
N2452 C2453 1.351 1_556 S
C2453 C2447 1.428 . S
C2453 N2452 1.351 1_554 S
C2453 C2454 1.434 . S
C2454 C2445 1.429 . S
C2454 N2451 1.350 . S
C2454 C2453 1.434 . S
C2455 C2456 1.369 . S
C2455 C2457 1.419 . S
C2455 H2459 0.930 . S
C2456 C2455 1.369 . S
C2456 C2465 1.429 . S
C2457 C2455 1.419 . S
C2457 C2458 1.363 . S
C2457 H2460 0.929 . S
C2458 C2457 1.363 . S
C2458 C2464 1.428 . S
H2459 C2455 0.930 . S
H2460 C2457 0.929 . S
S2461 N2462 1.613 . S
S2461 N2463 1.610 . S
N2462 S2461 1.613 . S
N2462 C2465 1.350 . S
N2463 S2461 1.610 . S
N2463 C2464 1.351 . S
C2464 C2458 1.428 . S
C2464 N2463 1.351 . S
C2464 C2465 1.434 . S
C2465 C2456 1.429 . S
C2465 N2462 1.350 . S
C2465 C2464 1.434 . S
C2466 C2467 1.369 . S
C2466 C2468 1.419 . S
C2466 H2470 0.930 . S
C2467 C2466 1.369 . S
C2467 C2476 1.429 . S
C2468 C2466 1.419 . S
C2468 C2469 1.363 . S
C2468 H2471 0.929 . S
C2469 C2468 1.363 . S
C2469 C2475 1.428 . S
H2470 C2466 0.930 . S
H2471 C2468 0.929 . S
S2472 N2473 1.613 . S
S2472 N2474 1.610 . S
N2473 S2472 1.613 . S
N2473 C2476 1.350 . S
N2474 S2472 1.610 . S
N2474 C2475 1.351 . S
C2475 C2469 1.428 . S
C2475 N2474 1.351 . S
C2475 C2476 1.434 . S
C2476 C2467 1.429 . S
C2476 N2473 1.350 . S
C2476 C2475 1.434 . S
C2477 C2478 1.369 . S
C2477 C2479 1.419 . S
C2477 H2481 0.930 . S
C2478 C2477 1.369 . S
C2478 C2487 1.429 . S
C2479 C2477 1.419 . S
C2479 C2480 1.363 . S
C2479 H2482 0.929 . S
C2480 C2479 1.363 . S
C2480 C2486 1.428 . S
H2481 C2477 0.930 . S
H2482 C2479 0.929 . S
S2483 N2484 1.613 . S
S2483 N2485 1.610 . S
N2484 S2483 1.613 . S
N2484 C2487 1.350 . S
N2485 S2483 1.610 . S
N2485 C2486 1.351 . S
C2486 C2480 1.428 . S
C2486 N2485 1.351 . S
C2486 C2487 1.434 . S
C2487 C2478 1.429 . S
C2487 N2484 1.350 . S
C2487 C2486 1.434 . S
C2488 C2489 1.369 . S
C2488 C2490 1.419 . S
C2488 H2492 0.930 . S
C2489 C2488 1.369 . S
C2489 C2498 1.429 . S
C2490 C2488 1.419 . S
C2490 C2491 1.363 . S
C2490 H2493 0.929 . S
C2491 C2490 1.363 . S
C2491 C2497 1.428 . S
H2492 C2488 0.930 . S
H2493 C2490 0.929 . S
S2494 N2495 1.613 . S
S2494 N2496 1.610 . S
N2495 S2494 1.613 . S
N2495 C2498 1.350 . S
N2496 S2494 1.610 . S
N2496 C2497 1.351 . S
C2497 C2491 1.428 . S
C2497 N2496 1.351 . S
C2497 C2498 1.434 . S
C2498 C2489 1.429 . S
C2498 N2495 1.350 . S
C2498 C2497 1.434 . S
C2499 C2500 1.369 . S
C2499 C2501 1.419 . S
C2499 H2503 0.930 . S
C2500 C2499 1.369 . S
C2500 C2509 1.429 . S
C2501 C2499 1.419 . S
C2501 C2502 1.363 . S
C2501 H2504 0.929 . S
C2502 C2501 1.363 . S
C2502 C2508 1.428 . S
H2503 C2499 0.930 . S
H2504 C2501 0.929 . S
S2505 N2506 1.613 . S
S2505 N2507 1.610 . S
N2506 S2505 1.613 . S
N2506 C2509 1.350 . S
N2507 S2505 1.610 . S
N2507 C2508 1.351 . S
C2508 C2502 1.428 . S
C2508 N2507 1.351 . S
C2508 C2509 1.434 . S
C2509 C2500 1.429 . S
C2509 N2506 1.350 . S
C2509 C2508 1.434 . S
C2510 C2511 1.369 . S
C2510 C2512 1.419 . S
C2510 H2514 0.930 . S
C2511 C2510 1.369 . S
C2511 C2520 1.429 . S
C2512 C2510 1.419 . S
C2512 C2513 1.363 . S
C2512 H2515 0.929 . S
C2513 C2512 1.363 . S
C2513 C2519 1.428 . S
H2514 C2510 0.930 . S
H2515 C2512 0.929 . S
S2516 N2517 1.613 . S
S2516 N2518 1.610 1_655 S
N2517 S2516 1.613 . S
N2517 C2520 1.350 1_655 S
N2518 S2516 1.610 1_455 S
N2518 C2519 1.351 . S
C2519 C2513 1.428 . S
C2519 N2518 1.351 . S
C2519 C2520 1.434 . S
C2520 C2511 1.429 . S
C2520 N2517 1.350 1_455 S
C2520 C2519 1.434 . S
C2521 C2522 1.369 . S
C2521 C2523 1.419 . S
C2521 H2525 0.930 . S
C2522 C2521 1.369 . S
C2522 C2531 1.429 . S
C2523 C2521 1.419 . S
C2523 C2524 1.363 . S
C2523 H2526 0.929 . S
C2524 C2523 1.363 . S
C2524 C2530 1.428 . S
H2525 C2521 0.930 . S
H2526 C2523 0.929 . S
S2527 N2528 1.613 . S
S2527 N2529 1.610 . S
N2528 S2527 1.613 . S
N2528 C2531 1.350 . S
N2529 S2527 1.610 . S
N2529 C2530 1.351 . S
C2530 C2524 1.428 . S
C2530 N2529 1.351 . S
C2530 C2531 1.434 . S
C2531 C2522 1.429 . S
C2531 N2528 1.350 . S
C2531 C2530 1.434 . S
C2532 C2533 1.369 . S
C2532 C2534 1.419 . S
C2532 H2536 0.930 . S
C2533 C2532 1.369 . S
C2533 C2542 1.429 . S
C2534 C2532 1.419 . S
C2534 C2535 1.363 . S
C2534 H2537 0.929 . S
C2535 C2534 1.363 . S
C2535 C2541 1.428 . S
H2536 C2532 0.930 . S
H2537 C2534 0.929 . S
S2538 N2539 1.613 . S
S2538 N2540 1.610 . S
N2539 S2538 1.613 . S
N2539 C2542 1.350 . S
N2540 S2538 1.610 . S
N2540 C2541 1.351 . S
C2541 C2535 1.428 . S
C2541 N2540 1.351 . S
C2541 C2542 1.434 . S
C2542 C2533 1.429 . S
C2542 N2539 1.350 . S
C2542 C2541 1.434 . S
C2543 C2544 1.369 . S
C2543 C2545 1.419 . S
C2543 H2547 0.930 . S
C2544 C2543 1.369 . S
C2544 C2553 1.429 . S
C2545 C2543 1.419 . S
C2545 C2546 1.363 . S
C2545 H2548 0.929 . S
C2546 C2545 1.363 . S
C2546 C2552 1.428 . S
H2547 C2543 0.930 . S
H2548 C2545 0.929 . S
S2549 N2550 1.613 . S
S2549 N2551 1.610 . S
N2550 S2549 1.613 . S
N2550 C2553 1.350 . S
N2551 S2549 1.610 . S
N2551 C2552 1.351 . S
C2552 C2546 1.428 . S
C2552 N2551 1.351 . S
C2552 C2553 1.434 . S
C2553 C2544 1.429 . S
C2553 N2550 1.350 . S
C2553 C2552 1.434 . S
C2554 C2555 1.369 . S
C2554 C2556 1.419 . S
C2554 H2558 0.930 . S
C2555 C2554 1.369 . S
C2555 C2564 1.429 . S
C2556 C2554 1.419 . S
C2556 C2557 1.363 . S
C2556 H2559 0.929 . S
C2557 C2556 1.363 . S
C2557 C2563 1.428 . S
H2558 C2554 0.930 . S
H2559 C2556 0.929 . S
S2560 N2561 1.613 . S
S2560 N2562 1.610 . S
N2561 S2560 1.613 . S
N2561 C2564 1.350 . S
N2562 S2560 1.610 . S
N2562 C2563 1.351 . S
C2563 C2557 1.428 . S
C2563 N2562 1.351 . S
C2563 C2564 1.434 . S
C2564 C2555 1.429 . S
C2564 N2561 1.350 . S
C2564 C2563 1.434 . S
C2565 C2566 1.369 . S
C2565 C2567 1.419 . S
C2565 H2569 0.930 . S
C2566 C2565 1.369 . S
C2566 C2575 1.429 . S
C2567 C2565 1.419 . S
C2567 C2568 1.363 . S
C2567 H2570 0.929 . S
C2568 C2567 1.363 . S
C2568 C2574 1.428 . S
H2569 C2565 0.930 . S
H2570 C2567 0.929 . S
S2571 N2572 1.613 . S
S2571 N2573 1.610 . S
N2572 S2571 1.613 . S
N2572 C2575 1.350 . S
N2573 S2571 1.610 . S
N2573 C2574 1.351 . S
C2574 C2568 1.428 . S
C2574 N2573 1.351 . S
C2574 C2575 1.434 . S
C2575 C2566 1.429 . S
C2575 N2572 1.350 . S
C2575 C2574 1.434 . S
C2576 C2577 1.369 . S
C2576 C2578 1.419 . S
C2576 H2580 0.930 . S
C2577 C2576 1.369 . S
C2577 C2586 1.429 . S
C2578 C2576 1.419 . S
C2578 C2579 1.363 . S
C2578 H2581 0.929 . S
C2579 C2578 1.363 . S
C2579 C2585 1.428 . S
H2580 C2576 0.930 . S
H2581 C2578 0.929 . S
S2582 N2583 1.613 . S
S2582 N2584 1.610 . S
N2583 S2582 1.613 . S
N2583 C2586 1.350 . S
N2584 S2582 1.610 . S
N2584 C2585 1.351 . S
C2585 C2579 1.428 . S
C2585 N2584 1.351 . S
C2585 C2586 1.434 . S
C2586 C2577 1.429 . S
C2586 N2583 1.350 . S
C2586 C2585 1.434 . S
C2587 C2588 1.369 . S
C2587 C2589 1.419 . S
C2587 H2591 0.930 . S
C2588 C2587 1.369 . S
C2588 C2597 1.429 . S
C2589 C2587 1.419 . S
C2589 C2590 1.363 . S
C2589 H2592 0.929 . S
C2590 C2589 1.363 . S
C2590 C2596 1.428 . S
H2591 C2587 0.930 . S
H2592 C2589 0.929 . S
S2593 N2594 1.613 . S
S2593 N2595 1.610 1_565 S
N2594 S2593 1.613 . S
N2594 C2597 1.350 1_565 S
N2595 S2593 1.610 1_545 S
N2595 C2596 1.351 . S
C2596 C2590 1.428 . S
C2596 N2595 1.351 . S
C2596 C2597 1.434 . S
C2597 C2588 1.429 . S
C2597 N2594 1.350 1_545 S
C2597 C2596 1.434 . S
C2598 C2599 1.369 . S
C2598 C2600 1.419 . S
C2598 H2602 0.930 . S
C2599 C2598 1.369 . S
C2599 C2608 1.429 . S
C2600 C2598 1.419 . S
C2600 C2601 1.363 . S
C2600 H2603 0.929 . S
C2601 C2600 1.363 . S
C2601 C2607 1.428 . S
H2602 C2598 0.930 . S
H2603 C2600 0.929 . S
S2604 N2605 1.613 . S
S2604 N2606 1.610 . S
N2605 S2604 1.613 . S
N2605 C2608 1.350 . S
N2606 S2604 1.610 . S
N2606 C2607 1.351 . S
C2607 C2601 1.428 . S
C2607 N2606 1.351 . S
C2607 C2608 1.434 . S
C2608 C2599 1.429 . S
C2608 N2605 1.350 . S
C2608 C2607 1.434 . S
C2609 C2610 1.369 . S
C2609 C2611 1.419 . S
C2609 H2613 0.930 . S
C2610 C2609 1.369 . S
C2610 C2619 1.429 . S
C2611 C2609 1.419 . S
C2611 C2612 1.363 . S
C2611 H2614 0.929 . S
C2612 C2611 1.363 . S
C2612 C2618 1.428 . S
H2613 C2609 0.930 . S
H2614 C2611 0.929 . S
S2615 N2616 1.613 . S
S2615 N2617 1.610 . S
N2616 S2615 1.613 . S
N2616 C2619 1.350 . S
N2617 S2615 1.610 . S
N2617 C2618 1.351 . S
C2618 C2612 1.428 . S
C2618 N2617 1.351 . S
C2618 C2619 1.434 . S
C2619 C2610 1.429 . S
C2619 N2616 1.350 . S
C2619 C2618 1.434 . S
C2620 C2621 1.369 . S
C2620 C2622 1.419 . S
C2620 H2624 0.930 . S
C2621 C2620 1.369 . S
C2621 C2630 1.429 . S
C2622 C2620 1.419 . S
C2622 C2623 1.363 . S
C2622 H2625 0.929 . S
C2623 C2622 1.363 . S
C2623 C2629 1.428 . S
H2624 C2620 0.930 . S
H2625 C2622 0.929 . S
S2626 N2627 1.613 . S
S2626 N2628 1.610 . S
N2627 S2626 1.613 . S
N2627 C2630 1.350 . S
N2628 S2626 1.610 . S
N2628 C2629 1.351 . S
C2629 C2623 1.428 . S
C2629 N2628 1.351 . S
C2629 C2630 1.434 . S
C2630 C2621 1.429 . S
C2630 N2627 1.350 . S
C2630 C2629 1.434 . S
C2631 C2632 1.369 . S
C2631 C2633 1.419 . S
C2631 H2635 0.930 . S
C2632 C2631 1.369 . S
C2632 C2641 1.429 . S
C2633 C2631 1.419 . S
C2633 C2634 1.363 . S
C2633 H2636 0.929 . S
C2634 C2633 1.363 . S
C2634 C2640 1.428 . S
H2635 C2631 0.930 . S
H2636 C2633 0.929 . S
S2637 N2638 1.613 . S
S2637 N2639 1.610 . S
N2638 S2637 1.613 . S
N2638 C2641 1.350 . S
N2639 S2637 1.610 . S
N2639 C2640 1.351 . S
C2640 C2634 1.428 . S
C2640 N2639 1.351 . S
C2640 C2641 1.434 . S
C2641 C2632 1.429 . S
C2641 N2638 1.350 . S
C2641 C2640 1.434 . S
C2642 C2643 1.369 . S
C2642 C2644 1.419 . S
C2642 H2646 0.930 . S
C2643 C2642 1.369 . S
C2643 C2652 1.429 . S
C2644 C2642 1.419 . S
C2644 C2645 1.363 . S
C2644 H2647 0.929 . S
C2645 C2644 1.363 . S
C2645 C2651 1.428 . S
H2646 C2642 0.930 . S
H2647 C2644 0.929 . S
S2648 N2649 1.613 . S
S2648 N2650 1.610 . S
N2649 S2648 1.613 . S
N2649 C2652 1.350 . S
N2650 S2648 1.610 . S
N2650 C2651 1.351 . S
C2651 C2645 1.428 . S
C2651 N2650 1.351 . S
C2651 C2652 1.434 . S
C2652 C2643 1.429 . S
C2652 N2649 1.350 . S
C2652 C2651 1.434 . S
C2653 C2654 1.369 . S
C2653 C2655 1.419 . S
C2653 H2657 0.930 . S
C2654 C2653 1.369 . S
C2654 C2663 1.429 . S
C2655 C2653 1.419 . S
C2655 C2656 1.363 . S
C2655 H2658 0.929 . S
C2656 C2655 1.363 . S
C2656 C2662 1.428 . S
H2657 C2653 0.930 . S
H2658 C2655 0.929 . S
S2659 N2660 1.613 . S
S2659 N2661 1.610 . S
N2660 S2659 1.613 . S
N2660 C2663 1.350 . S
N2661 S2659 1.610 . S
N2661 C2662 1.351 . S
C2662 C2656 1.428 . S
C2662 N2661 1.351 . S
C2662 C2663 1.434 . S
C2663 C2654 1.429 . S
C2663 N2660 1.350 . S
C2663 C2662 1.434 . S
C2664 C2665 1.369 . S
C2664 C2666 1.419 . S
C2664 H2668 0.930 . S
C2665 C2664 1.369 . S
C2665 C2674 1.429 . S
C2666 C2664 1.419 . S
C2666 C2667 1.363 . S
C2666 H2669 0.929 . S
C2667 C2666 1.363 . S
C2667 C2673 1.428 . S
H2668 C2664 0.930 . S
H2669 C2666 0.929 . S
S2670 N2671 1.613 . S
S2670 N2672 1.610 . S
N2671 S2670 1.613 . S
N2671 C2674 1.350 . S
N2672 S2670 1.610 . S
N2672 C2673 1.351 . S
C2673 C2667 1.428 . S
C2673 N2672 1.351 . S
C2673 C2674 1.434 . S
C2674 C2665 1.429 . S
C2674 N2671 1.350 . S
C2674 C2673 1.434 . S
C2675 C2676 1.369 . S
C2675 C2677 1.419 . S
C2675 H2679 0.930 . S
C2676 C2675 1.369 . S
C2676 C2685 1.429 . S
C2677 C2675 1.419 . S
C2677 C2678 1.363 . S
C2677 H2680 0.929 . S
C2678 C2677 1.363 . S
C2678 C2684 1.428 . S
H2679 C2675 0.930 . S
H2680 C2677 0.929 . S
S2681 N2682 1.613 . S
S2681 N2683 1.610 . S
N2682 S2681 1.613 . S
N2682 C2685 1.350 . S
N2683 S2681 1.610 . S
N2683 C2684 1.351 . S
C2684 C2678 1.428 . S
C2684 N2683 1.351 . S
C2684 C2685 1.434 . S
C2685 C2676 1.429 . S
C2685 N2682 1.350 . S
C2685 C2684 1.434 . S
C2686 C2687 1.369 . S
C2686 C2688 1.419 . S
C2686 H2690 0.930 . S
C2687 C2686 1.369 . S
C2687 C2696 1.429 . S
C2688 C2686 1.419 . S
C2688 C2689 1.363 . S
C2688 H2691 0.929 . S
C2689 C2688 1.363 . S
C2689 C2695 1.428 . S
H2690 C2686 0.930 . S
H2691 C2688 0.929 . S
S2692 N2693 1.613 . S
S2692 N2694 1.610 . S
N2693 S2692 1.613 . S
N2693 C2696 1.350 . S
N2694 S2692 1.610 . S
N2694 C2695 1.351 . S
C2695 C2689 1.428 . S
C2695 N2694 1.351 . S
C2695 C2696 1.434 . S
C2696 C2687 1.429 . S
C2696 N2693 1.350 . S
C2696 C2695 1.434 . S
C2697 C2698 1.369 . S
C2697 C2699 1.419 . S
C2697 H2701 0.930 . S
C2698 C2697 1.369 . S
C2698 C2707 1.429 . S
C2699 C2697 1.419 . S
C2699 C2700 1.363 . S
C2699 H2702 0.929 . S
C2700 C2699 1.363 . S
C2700 C2706 1.428 . S
H2701 C2697 0.930 . S
H2702 C2699 0.929 . S
S2703 N2704 1.613 . S
S2703 N2705 1.610 . S
N2704 S2703 1.613 . S
N2704 C2707 1.350 . S
N2705 S2703 1.610 . S
N2705 C2706 1.351 . S
C2706 C2700 1.428 . S
C2706 N2705 1.351 . S
C2706 C2707 1.434 . S
C2707 C2698 1.429 . S
C2707 N2704 1.350 . S
C2707 C2706 1.434 . S
C2708 C2709 1.369 . S
C2708 C2710 1.419 . S
C2708 H2712 0.930 . S
C2709 C2708 1.369 . S
C2709 C2718 1.429 . S
C2710 C2708 1.419 . S
C2710 C2711 1.363 . S
C2710 H2713 0.929 . S
C2711 C2710 1.363 . S
C2711 C2717 1.428 . S
H2712 C2708 0.930 . S
H2713 C2710 0.929 . S
S2714 N2715 1.613 . S
S2714 N2716 1.610 . S
N2715 S2714 1.613 . S
N2715 C2718 1.350 . S
N2716 S2714 1.610 . S
N2716 C2717 1.351 . S
C2717 C2711 1.428 . S
C2717 N2716 1.351 . S
C2717 C2718 1.434 . S
C2718 C2709 1.429 . S
C2718 N2715 1.350 . S
C2718 C2717 1.434 . S
C2719 C2720 1.369 . S
C2719 C2721 1.419 . S
C2719 H2723 0.930 . S
C2720 C2719 1.369 . S
C2720 C2729 1.429 . S
C2721 C2719 1.419 . S
C2721 C2722 1.363 . S
C2721 H2724 0.929 . S
C2722 C2721 1.363 . S
C2722 C2728 1.428 . S
H2723 C2719 0.930 . S
H2724 C2721 0.929 . S
S2725 N2726 1.613 . S
S2725 N2727 1.610 . S
N2726 S2725 1.613 . S
N2726 C2729 1.350 . S
N2727 S2725 1.610 . S
N2727 C2728 1.351 . S
C2728 C2722 1.428 . S
C2728 N2727 1.351 . S
C2728 C2729 1.434 . S
C2729 C2720 1.429 . S
C2729 N2726 1.350 . S
C2729 C2728 1.434 . S
C2730 C2731 1.369 . S
C2730 C2732 1.419 . S
C2730 H2734 0.930 . S
C2731 C2730 1.369 . S
C2731 C2740 1.429 . S
C2732 C2730 1.419 . S
C2732 C2733 1.363 . S
C2732 H2735 0.929 . S
C2733 C2732 1.363 . S
C2733 C2739 1.428 . S
H2734 C2730 0.930 . S
H2735 C2732 0.929 . S
S2736 N2737 1.613 . S
S2736 N2738 1.610 . S
N2737 S2736 1.613 . S
N2737 C2740 1.350 . S
N2738 S2736 1.610 . S
N2738 C2739 1.351 . S
C2739 C2733 1.428 . S
C2739 N2738 1.351 . S
C2739 C2740 1.434 . S
C2740 C2731 1.429 . S
C2740 N2737 1.350 . S
C2740 C2739 1.434 . S
C2741 C2742 1.369 . S
C2741 C2743 1.419 . S
C2741 H2745 0.930 . S
C2742 C2741 1.369 . S
C2742 C2751 1.429 . S
C2743 C2741 1.419 . S
C2743 C2744 1.363 . S
C2743 H2746 0.929 . S
C2744 C2743 1.363 . S
C2744 C2750 1.428 . S
H2745 C2741 0.930 . S
H2746 C2743 0.929 . S
S2747 N2748 1.613 . S
S2747 N2749 1.610 . S
N2748 S2747 1.613 . S
N2748 C2751 1.350 . S
N2749 S2747 1.610 . S
N2749 C2750 1.351 . S
C2750 C2744 1.428 . S
C2750 N2749 1.351 . S
C2750 C2751 1.434 . S
C2751 C2742 1.429 . S
C2751 N2748 1.350 . S
C2751 C2750 1.434 . S
C2752 C2753 1.369 . S
C2752 C2754 1.419 . S
C2752 H2756 0.930 . S
C2753 C2752 1.369 . S
C2753 C2762 1.429 . S
C2754 C2752 1.419 . S
C2754 C2755 1.363 . S
C2754 H2757 0.929 . S
C2755 C2754 1.363 . S
C2755 C2761 1.428 . S
H2756 C2752 0.930 . S
H2757 C2754 0.929 . S
S2758 N2759 1.613 . S
S2758 N2760 1.610 . S
N2759 S2758 1.613 . S
N2759 C2762 1.350 . S
N2760 S2758 1.610 . S
N2760 C2761 1.351 . S
C2761 C2755 1.428 . S
C2761 N2760 1.351 . S
C2761 C2762 1.434 . S
C2762 C2753 1.429 . S
C2762 N2759 1.350 . S
C2762 C2761 1.434 . S
C2763 C2764 1.369 . S
C2763 C2765 1.419 . S
C2763 H2767 0.930 . S
C2764 C2763 1.369 . S
C2764 C2773 1.429 . S
C2765 C2763 1.419 . S
C2765 C2766 1.363 . S
C2765 H2768 0.929 . S
C2766 C2765 1.363 . S
C2766 C2772 1.428 . S
H2767 C2763 0.930 . S
H2768 C2765 0.929 . S
S2769 N2770 1.613 . S
S2769 N2771 1.610 . S
N2770 S2769 1.613 . S
N2770 C2773 1.350 . S
N2771 S2769 1.610 . S
N2771 C2772 1.351 . S
C2772 C2766 1.428 . S
C2772 N2771 1.351 . S
C2772 C2773 1.434 . S
C2773 C2764 1.429 . S
C2773 N2770 1.350 . S
C2773 C2772 1.434 . S
C2774 C2775 1.369 . S
C2774 C2776 1.419 . S
C2774 H2778 0.930 . S
C2775 C2774 1.369 . S
C2775 C2784 1.429 . S
C2776 C2774 1.419 . S
C2776 C2777 1.363 . S
C2776 H2779 0.929 . S
C2777 C2776 1.363 . S
C2777 C2783 1.428 . S
H2778 C2774 0.930 . S
H2779 C2776 0.929 . S
S2780 N2781 1.613 . S
S2780 N2782 1.610 . S
N2781 S2780 1.613 . S
N2781 C2784 1.350 . S
N2782 S2780 1.610 . S
N2782 C2783 1.351 . S
C2783 C2777 1.428 . S
C2783 N2782 1.351 . S
C2783 C2784 1.434 . S
C2784 C2775 1.429 . S
C2784 N2781 1.350 . S
C2784 C2783 1.434 . S
C2785 C2786 1.369 . S
C2785 C2787 1.419 . S
C2785 H2789 0.930 . S
C2786 C2785 1.369 . S
C2786 C2795 1.429 . S
C2787 C2785 1.419 . S
C2787 C2788 1.363 . S
C2787 H2790 0.929 . S
C2788 C2787 1.363 . S
C2788 C2794 1.428 . S
H2789 C2785 0.930 . S
H2790 C2787 0.929 . S
S2791 N2792 1.613 . S
S2791 N2793 1.610 . S
N2792 S2791 1.613 . S
N2792 C2795 1.350 . S
N2793 S2791 1.610 . S
N2793 C2794 1.351 . S
C2794 C2788 1.428 . S
C2794 N2793 1.351 . S
C2794 C2795 1.434 . S
C2795 C2786 1.429 . S
C2795 N2792 1.350 . S
C2795 C2794 1.434 . S
C2796 C2797 1.369 . S
C2796 C2798 1.419 . S
C2796 H2800 0.930 . S
C2797 C2796 1.369 . S
C2797 C2806 1.429 . S
C2798 C2796 1.419 . S
C2798 C2799 1.363 . S
C2798 H2801 0.929 . S
C2799 C2798 1.363 . S
C2799 C2805 1.428 . S
H2800 C2796 0.930 . S
H2801 C2798 0.929 . S
S2802 N2803 1.613 . S
S2802 N2804 1.610 . S
N2803 S2802 1.613 . S
N2803 C2806 1.350 . S
N2804 S2802 1.610 . S
N2804 C2805 1.351 . S
C2805 C2799 1.428 . S
C2805 N2804 1.351 . S
C2805 C2806 1.434 . S
C2806 C2797 1.429 . S
C2806 N2803 1.350 . S
C2806 C2805 1.434 . S
C2807 C2808 1.369 . S
C2807 C2809 1.419 . S
C2807 H2811 0.930 . S
C2808 C2807 1.369 . S
C2808 C2817 1.429 . S
C2809 C2807 1.419 . S
C2809 C2810 1.363 . S
C2809 H2812 0.929 . S
C2810 C2809 1.363 . S
C2810 C2816 1.428 . S
H2811 C2807 0.930 . S
H2812 C2809 0.929 . S
S2813 N2814 1.613 . S
S2813 N2815 1.610 . S
N2814 S2813 1.613 . S
N2814 C2817 1.350 . S
N2815 S2813 1.610 . S
N2815 C2816 1.351 . S
C2816 C2810 1.428 . S
C2816 N2815 1.351 . S
C2816 C2817 1.434 . S
C2817 C2808 1.429 . S
C2817 N2814 1.350 . S
C2817 C2816 1.434 . S
C2818 C2819 1.369 . S
C2818 C2820 1.419 . S
C2818 H2822 0.930 . S
C2819 C2818 1.369 . S
C2819 C2828 1.429 . S
C2820 C2818 1.419 . S
C2820 C2821 1.363 . S
C2820 H2823 0.929 . S
C2821 C2820 1.363 . S
C2821 C2827 1.428 . S
H2822 C2818 0.930 . S
H2823 C2820 0.929 . S
S2824 N2825 1.613 . S
S2824 N2826 1.610 . S
N2825 S2824 1.613 . S
N2825 C2828 1.350 . S
N2826 S2824 1.610 . S
N2826 C2827 1.351 . S
C2827 C2821 1.428 . S
C2827 N2826 1.351 . S
C2827 C2828 1.434 . S
C2828 C2819 1.429 . S
C2828 N2825 1.350 . S
C2828 C2827 1.434 . S
C2829 C2830 1.369 . S
C2829 C2831 1.419 . S
C2829 H2833 0.930 . S
C2830 C2829 1.369 . S
C2830 C2839 1.429 . S
C2831 C2829 1.419 . S
C2831 C2832 1.363 . S
C2831 H2834 0.929 . S
C2832 C2831 1.363 . S
C2832 C2838 1.428 . S
H2833 C2829 0.930 . S
H2834 C2831 0.929 . S
S2835 N2836 1.613 . S
S2835 N2837 1.610 . S
N2836 S2835 1.613 . S
N2836 C2839 1.350 . S
N2837 S2835 1.610 . S
N2837 C2838 1.351 . S
C2838 C2832 1.428 . S
C2838 N2837 1.351 . S
C2838 C2839 1.434 . S
C2839 C2830 1.429 . S
C2839 N2836 1.350 . S
C2839 C2838 1.434 . S
C2840 C2841 1.369 . S
C2840 C2842 1.419 . S
C2840 H2844 0.930 . S
C2841 C2840 1.369 . S
C2841 C2850 1.429 . S
C2842 C2840 1.419 . S
C2842 C2843 1.363 . S
C2842 H2845 0.929 . S
C2843 C2842 1.363 . S
C2843 C2849 1.428 . S
H2844 C2840 0.930 . S
H2845 C2842 0.929 . S
S2846 N2847 1.613 . S
S2846 N2848 1.610 . S
N2847 S2846 1.613 . S
N2847 C2850 1.350 . S
N2848 S2846 1.610 . S
N2848 C2849 1.351 . S
C2849 C2843 1.428 . S
C2849 N2848 1.351 . S
C2849 C2850 1.434 . S
C2850 C2841 1.429 . S
C2850 N2847 1.350 . S
C2850 C2849 1.434 . S
C2851 C2852 1.369 . S
C2851 C2853 1.419 . S
C2851 H2855 0.930 . S
C2852 C2851 1.369 . S
C2852 C2861 1.429 . S
C2853 C2851 1.419 . S
C2853 C2854 1.363 . S
C2853 H2856 0.929 . S
C2854 C2853 1.363 . S
C2854 C2860 1.428 . S
H2855 C2851 0.930 . S
H2856 C2853 0.929 . S
S2857 N2858 1.613 . S
S2857 N2859 1.610 . S
N2858 S2857 1.613 . S
N2858 C2861 1.350 . S
N2859 S2857 1.610 . S
N2859 C2860 1.351 . S
C2860 C2854 1.428 . S
C2860 N2859 1.351 . S
C2860 C2861 1.434 . S
C2861 C2852 1.429 . S
C2861 N2858 1.350 . S
C2861 C2860 1.434 . S
C2862 C2863 1.369 . S
C2862 C2864 1.419 . S
C2862 H2866 0.930 . S
C2863 C2862 1.369 . S
C2863 C2872 1.429 . S
C2864 C2862 1.419 . S
C2864 C2865 1.363 . S
C2864 H2867 0.929 . S
C2865 C2864 1.363 . S
C2865 C2871 1.428 . S
H2866 C2862 0.930 . S
H2867 C2864 0.929 . S
S2868 N2869 1.613 . S
S2868 N2870 1.610 . S
N2869 S2868 1.613 . S
N2869 C2872 1.350 . S
N2870 S2868 1.610 . S
N2870 C2871 1.351 . S
C2871 C2865 1.428 . S
C2871 N2870 1.351 . S
C2871 C2872 1.434 . S
C2872 C2863 1.429 . S
C2872 N2869 1.350 . S
C2872 C2871 1.434 . S
C2873 C2874 1.369 . S
C2873 C2875 1.419 . S
C2873 H2877 0.930 . S
C2874 C2873 1.369 . S
C2874 C2883 1.429 . S
C2875 C2873 1.419 . S
C2875 C2876 1.363 . S
C2875 H2878 0.929 . S
C2876 C2875 1.363 . S
C2876 C2882 1.428 . S
H2877 C2873 0.930 . S
H2878 C2875 0.929 . S
S2879 N2880 1.613 . S
S2879 N2881 1.610 . S
N2880 S2879 1.613 . S
N2880 C2883 1.350 . S
N2881 S2879 1.610 . S
N2881 C2882 1.351 . S
C2882 C2876 1.428 . S
C2882 N2881 1.351 . S
C2882 C2883 1.434 . S
C2883 C2874 1.429 . S
C2883 N2880 1.350 . S
C2883 C2882 1.434 . S
C2884 C2885 1.369 . S
C2884 C2886 1.419 . S
C2884 H2888 0.930 . S
C2885 C2884 1.369 . S
C2885 C2894 1.429 . S
C2886 C2884 1.419 . S
C2886 C2887 1.363 . S
C2886 H2889 0.929 . S
C2887 C2886 1.363 . S
C2887 C2893 1.428 . S
H2888 C2884 0.930 . S
H2889 C2886 0.929 . S
S2890 N2891 1.613 . S
S2890 N2892 1.610 . S
N2891 S2890 1.613 . S
N2891 C2894 1.350 . S
N2892 S2890 1.610 . S
N2892 C2893 1.351 . S
C2893 C2887 1.428 . S
C2893 N2892 1.351 . S
C2893 C2894 1.434 . S
C2894 C2885 1.429 . S
C2894 N2891 1.350 . S
C2894 C2893 1.434 . S
C2895 C2896 1.369 . S
C2895 C2897 1.419 . S
C2895 H2899 0.930 . S
C2896 C2895 1.369 . S
C2896 C2905 1.429 . S
C2897 C2895 1.419 . S
C2897 C2898 1.363 . S
C2897 H2900 0.929 . S
C2898 C2897 1.363 . S
C2898 C2904 1.428 . S
H2899 C2895 0.930 . S
H2900 C2897 0.929 . S
S2901 N2902 1.613 . S
S2901 N2903 1.610 . S
N2902 S2901 1.613 . S
N2902 C2905 1.350 . S
N2903 S2901 1.610 . S
N2903 C2904 1.351 . S
C2904 C2898 1.428 . S
C2904 N2903 1.351 . S
C2904 C2905 1.434 . S
C2905 C2896 1.429 . S
C2905 N2902 1.350 . S
C2905 C2904 1.434 . S
C2906 C2907 1.369 . S
C2906 C2908 1.419 . S
C2906 H2910 0.930 . S
C2907 C2906 1.369 . S
C2907 C2916 1.429 . S
C2908 C2906 1.419 . S
C2908 C2909 1.363 . S
C2908 H2911 0.929 . S
C2909 C2908 1.363 . S
C2909 C2915 1.428 . S
H2910 C2906 0.930 . S
H2911 C2908 0.929 . S
S2912 N2913 1.613 . S
S2912 N2914 1.610 . S
N2913 S2912 1.613 . S
N2913 C2916 1.350 . S
N2914 S2912 1.610 . S
N2914 C2915 1.351 . S
C2915 C2909 1.428 . S
C2915 N2914 1.351 . S
C2915 C2916 1.434 . S
C2916 C2907 1.429 . S
C2916 N2913 1.350 . S
C2916 C2915 1.434 . S
C2917 C2918 1.369 . S
C2917 C2919 1.419 . S
C2917 H2921 0.930 . S
C2918 C2917 1.369 . S
C2918 C2927 1.429 . S
C2919 C2917 1.419 . S
C2919 C2920 1.363 . S
C2919 H2922 0.929 . S
C2920 C2919 1.363 . S
C2920 C2926 1.428 . S
H2921 C2917 0.930 . S
H2922 C2919 0.929 . S
S2923 N2924 1.613 . S
S2923 N2925 1.610 . S
N2924 S2923 1.613 . S
N2924 C2927 1.350 . S
N2925 S2923 1.610 . S
N2925 C2926 1.351 . S
C2926 C2920 1.428 . S
C2926 N2925 1.351 . S
C2926 C2927 1.434 . S
C2927 C2918 1.429 . S
C2927 N2924 1.350 . S
C2927 C2926 1.434 . S
C2928 C2929 1.369 . S
C2928 C2930 1.419 . S
C2928 H2932 0.930 . S
C2929 C2928 1.369 . S
C2929 C2938 1.429 . S
C2930 C2928 1.419 . S
C2930 C2931 1.363 . S
C2930 H2933 0.929 . S
C2931 C2930 1.363 . S
C2931 C2937 1.428 . S
H2932 C2928 0.930 . S
H2933 C2930 0.929 . S
S2934 N2935 1.613 . S
S2934 N2936 1.610 . S
N2935 S2934 1.613 . S
N2935 C2938 1.350 . S
N2936 S2934 1.610 . S
N2936 C2937 1.351 . S
C2937 C2931 1.428 . S
C2937 N2936 1.351 . S
C2937 C2938 1.434 . S
C2938 C2929 1.429 . S
C2938 N2935 1.350 . S
C2938 C2937 1.434 . S
C2939 C2940 1.369 . S
C2939 C2941 1.419 . S
C2939 H2943 0.930 . S
C2940 C2939 1.369 . S
C2940 C2949 1.429 . S
C2941 C2939 1.419 . S
C2941 C2942 1.363 . S
C2941 H2944 0.929 . S
C2942 C2941 1.363 . S
C2942 C2948 1.428 . S
H2943 C2939 0.930 . S
H2944 C2941 0.929 . S
S2945 N2946 1.613 . S
S2945 N2947 1.610 . S
N2946 S2945 1.613 . S
N2946 C2949 1.350 . S
N2947 S2945 1.610 . S
N2947 C2948 1.351 . S
C2948 C2942 1.428 . S
C2948 N2947 1.351 . S
C2948 C2949 1.434 . S
C2949 C2940 1.429 . S
C2949 N2946 1.350 . S
C2949 C2948 1.434 . S
C2950 C2951 1.369 . S
C2950 C2952 1.419 . S
C2950 H2954 0.930 . S
C2951 C2950 1.369 . S
C2951 C2960 1.429 . S
C2952 C2950 1.419 . S
C2952 C2953 1.363 . S
C2952 H2955 0.929 . S
C2953 C2952 1.363 . S
C2953 C2959 1.428 . S
H2954 C2950 0.930 . S
H2955 C2952 0.929 . S
S2956 N2957 1.613 . S
S2956 N2958 1.610 . S
N2957 S2956 1.613 . S
N2957 C2960 1.350 . S
N2958 S2956 1.610 . S
N2958 C2959 1.351 . S
C2959 C2953 1.428 . S
C2959 N2958 1.351 . S
C2959 C2960 1.434 . S
C2960 C2951 1.429 . S
C2960 N2957 1.350 . S
C2960 C2959 1.434 . S
C2961 C2962 1.369 . S
C2961 C2963 1.419 . S
C2961 H2965 0.930 . S
C2962 C2961 1.369 . S
C2962 C2971 1.429 . S
C2963 C2961 1.419 . S
C2963 C2964 1.363 . S
C2963 H2966 0.929 . S
C2964 C2963 1.363 . S
C2964 C2970 1.428 . S
H2965 C2961 0.930 . S
H2966 C2963 0.929 . S
S2967 N2968 1.613 . S
S2967 N2969 1.610 . S
N2968 S2967 1.613 . S
N2968 C2971 1.350 . S
N2969 S2967 1.610 . S
N2969 C2970 1.351 . S
C2970 C2964 1.428 . S
C2970 N2969 1.351 . S
C2970 C2971 1.434 . S
C2971 C2962 1.429 . S
C2971 N2968 1.350 . S
C2971 C2970 1.434 . S
C2972 C2973 1.369 . S
C2972 C2974 1.419 . S
C2972 H2976 0.930 . S
C2973 C2972 1.369 . S
C2973 C2982 1.429 . S
C2974 C2972 1.419 . S
C2974 C2975 1.363 . S
C2974 H2977 0.929 . S
C2975 C2974 1.363 . S
C2975 C2981 1.428 . S
H2976 C2972 0.930 . S
H2977 C2974 0.929 . S
S2978 N2979 1.613 . S
S2978 N2980 1.610 . S
N2979 S2978 1.613 . S
N2979 C2982 1.350 . S
N2980 S2978 1.610 . S
N2980 C2981 1.351 . S
C2981 C2975 1.428 . S
C2981 N2980 1.351 . S
C2981 C2982 1.434 . S
C2982 C2973 1.429 . S
C2982 N2979 1.350 . S
C2982 C2981 1.434 . S
C2983 C2984 1.369 . S
C2983 C2985 1.419 . S
C2983 H2987 0.930 . S
C2984 C2983 1.369 . S
C2984 C2993 1.429 . S
C2985 C2983 1.419 . S
C2985 C2986 1.363 . S
C2985 H2988 0.929 . S
C2986 C2985 1.363 . S
C2986 C2992 1.428 . S
H2987 C2983 0.930 . S
H2988 C2985 0.929 . S
S2989 N2990 1.613 . S
S2989 N2991 1.610 . S
N2990 S2989 1.613 . S
N2990 C2993 1.350 . S
N2991 S2989 1.610 . S
N2991 C2992 1.351 . S
C2992 C2986 1.428 . S
C2992 N2991 1.351 . S
C2992 C2993 1.434 . S
C2993 C2984 1.429 . S
C2993 N2990 1.350 . S
C2993 C2992 1.434 . S
C2994 C2995 1.369 . S
C2994 C2996 1.419 . S
C2994 H2998 0.930 . S
C2995 C2994 1.369 . S
C2995 C3004 1.429 . S
C2996 C2994 1.419 . S
C2996 C2997 1.363 . S
C2996 H2999 0.929 . S
C2997 C2996 1.363 . S
C2997 C3003 1.428 . S
H2998 C2994 0.930 . S
H2999 C2996 0.929 . S
S3000 N3001 1.613 . S
S3000 N3002 1.610 1_556 S
N3001 S3000 1.613 . S
N3001 C3004 1.350 1_556 S
N3002 S3000 1.610 1_554 S
N3002 C3003 1.351 . S
C3003 C2997 1.428 . S
C3003 N3002 1.351 . S
C3003 C3004 1.434 . S
C3004 C2995 1.429 . S
C3004 N3001 1.350 1_554 S
C3004 C3003 1.434 . S
C3005 C3006 1.369 . S
C3005 C3007 1.419 . S
C3005 H3009 0.930 . S
C3006 C3005 1.369 . S
C3006 C3015 1.429 . S
C3007 C3005 1.419 . S
C3007 C3008 1.363 . S
C3007 H3010 0.929 . S
C3008 C3007 1.363 . S
C3008 C3014 1.428 . S
H3009 C3005 0.930 . S
H3010 C3007 0.929 . S
S3011 N3012 1.613 . S
S3011 N3013 1.610 . S
N3012 S3011 1.613 . S
N3012 C3015 1.350 . S
N3013 S3011 1.610 . S
N3013 C3014 1.351 . S
C3014 C3008 1.428 . S
C3014 N3013 1.351 . S
C3014 C3015 1.434 . S
C3015 C3006 1.429 . S
C3015 N3012 1.350 . S
C3015 C3014 1.434 . S
C3016 C3017 1.369 . S
C3016 C3018 1.419 . S
C3016 H3020 0.930 . S
C3017 C3016 1.369 . S
C3017 C3026 1.429 . S
C3018 C3016 1.419 . S
C3018 C3019 1.363 . S
C3018 H3021 0.929 . S
C3019 C3018 1.363 . S
C3019 C3025 1.428 . S
H3020 C3016 0.930 . S
H3021 C3018 0.929 . S
S3022 N3023 1.613 . S
S3022 N3024 1.610 . S
N3023 S3022 1.613 . S
N3023 C3026 1.350 . S
N3024 S3022 1.610 . S
N3024 C3025 1.351 . S
C3025 C3019 1.428 . S
C3025 N3024 1.351 . S
C3025 C3026 1.434 . S
C3026 C3017 1.429 . S
C3026 N3023 1.350 . S
C3026 C3025 1.434 . S
C3027 C3028 1.369 . S
C3027 C3029 1.419 . S
C3027 H3031 0.930 . S
C3028 C3027 1.369 . S
C3028 C3037 1.429 . S
C3029 C3027 1.419 . S
C3029 C3030 1.363 . S
C3029 H3032 0.929 . S
C3030 C3029 1.363 . S
C3030 C3036 1.428 . S
H3031 C3027 0.930 . S
H3032 C3029 0.929 . S
S3033 N3034 1.613 . S
S3033 N3035 1.610 . S
N3034 S3033 1.613 . S
N3034 C3037 1.350 . S
N3035 S3033 1.610 . S
N3035 C3036 1.351 . S
C3036 C3030 1.428 . S
C3036 N3035 1.351 . S
C3036 C3037 1.434 . S
C3037 C3028 1.429 . S
C3037 N3034 1.350 . S
C3037 C3036 1.434 . S
C3038 C3039 1.369 . S
C3038 C3040 1.419 . S
C3038 H3042 0.930 . S
C3039 C3038 1.369 . S
C3039 C3048 1.429 . S
C3040 C3038 1.419 . S
C3040 C3041 1.363 . S
C3040 H3043 0.929 . S
C3041 C3040 1.363 . S
C3041 C3047 1.428 . S
H3042 C3038 0.930 . S
H3043 C3040 0.929 . S
S3044 N3045 1.613 . S
S3044 N3046 1.610 . S
N3045 S3044 1.613 . S
N3045 C3048 1.350 . S
N3046 S3044 1.610 . S
N3046 C3047 1.351 . S
C3047 C3041 1.428 . S
C3047 N3046 1.351 . S
C3047 C3048 1.434 . S
C3048 C3039 1.429 . S
C3048 N3045 1.350 . S
C3048 C3047 1.434 . S
C3049 C3050 1.369 . S
C3049 C3051 1.419 . S
C3049 H3053 0.930 . S
C3050 C3049 1.369 . S
C3050 C3059 1.429 . S
C3051 C3049 1.419 . S
C3051 C3052 1.363 . S
C3051 H3054 0.929 . S
C3052 C3051 1.363 . S
C3052 C3058 1.428 . S
H3053 C3049 0.930 . S
H3054 C3051 0.929 . S
S3055 N3056 1.613 . S
S3055 N3057 1.610 . S
N3056 S3055 1.613 . S
N3056 C3059 1.350 . S
N3057 S3055 1.610 . S
N3057 C3058 1.351 . S
C3058 C3052 1.428 . S
C3058 N3057 1.351 . S
C3058 C3059 1.434 . S
C3059 C3050 1.429 . S
C3059 N3056 1.350 . S
C3059 C3058 1.434 . S
C3060 C3061 1.369 . S
C3060 C3062 1.419 . S
C3060 H3064 0.930 . S
C3061 C3060 1.369 . S
C3061 C3070 1.429 . S
C3062 C3060 1.419 . S
C3062 C3063 1.363 . S
C3062 H3065 0.929 . S
C3063 C3062 1.363 . S
C3063 C3069 1.428 . S
H3064 C3060 0.930 . S
H3065 C3062 0.929 . S
S3066 N3067 1.613 . S
S3066 N3068 1.610 . S
N3067 S3066 1.613 . S
N3067 C3070 1.350 . S
N3068 S3066 1.610 . S
N3068 C3069 1.351 . S
C3069 C3063 1.428 . S
C3069 N3068 1.351 . S
C3069 C3070 1.434 . S
C3070 C3061 1.429 . S
C3070 N3067 1.350 . S
C3070 C3069 1.434 . S
C3071 C3072 1.369 . S
C3071 C3073 1.419 . S
C3071 H3075 0.930 . S
C3072 C3071 1.369 . S
C3072 C3081 1.429 . S
C3073 C3071 1.419 . S
C3073 C3074 1.363 . S
C3073 H3076 0.929 . S
C3074 C3073 1.363 . S
C3074 C3080 1.428 . S
H3075 C3071 0.930 . S
H3076 C3073 0.929 . S
S3077 N3078 1.613 . S
S3077 N3079 1.610 . S
N3078 S3077 1.613 . S
N3078 C3081 1.350 . S
N3079 S3077 1.610 . S
N3079 C3080 1.351 . S
C3080 C3074 1.428 . S
C3080 N3079 1.351 . S
C3080 C3081 1.434 . S
C3081 C3072 1.429 . S
C3081 N3078 1.350 . S
C3081 C3080 1.434 . S
C3082 C3083 1.369 . S
C3082 C3084 1.419 . S
C3082 H3086 0.930 . S
C3083 C3082 1.369 . S
C3083 C3092 1.429 . S
C3084 C3082 1.419 . S
C3084 C3085 1.363 . S
C3084 H3087 0.929 . S
C3085 C3084 1.363 . S
C3085 C3091 1.428 . S
H3086 C3082 0.930 . S
H3087 C3084 0.929 . S
S3088 N3089 1.613 . S
S3088 N3090 1.610 . S
N3089 S3088 1.613 . S
N3089 C3092 1.350 . S
N3090 S3088 1.610 . S
N3090 C3091 1.351 . S
C3091 C3085 1.428 . S
C3091 N3090 1.351 . S
C3091 C3092 1.434 . S
C3092 C3083 1.429 . S
C3092 N3089 1.350 . S
C3092 C3091 1.434 . S
C3093 C3094 1.369 . S
C3093 C3095 1.419 . S
C3093 H3097 0.930 . S
C3094 C3093 1.369 . S
C3094 C3103 1.429 . S
C3095 C3093 1.419 . S
C3095 C3096 1.363 . S
C3095 H3098 0.929 . S
C3096 C3095 1.363 . S
C3096 C3102 1.428 . S
H3097 C3093 0.930 . S
H3098 C3095 0.929 . S
S3099 N3100 1.613 . S
S3099 N3101 1.610 . S
N3100 S3099 1.613 . S
N3100 C3103 1.350 . S
N3101 S3099 1.610 . S
N3101 C3102 1.351 . S
C3102 C3096 1.428 . S
C3102 N3101 1.351 . S
C3102 C3103 1.434 . S
C3103 C3094 1.429 . S
C3103 N3100 1.350 . S
C3103 C3102 1.434 . S
C3104 C3105 1.369 . S
C3104 C3106 1.419 . S
C3104 H3108 0.930 . S
C3105 C3104 1.369 . S
C3105 C3114 1.429 . S
C3106 C3104 1.419 . S
C3106 C3107 1.363 . S
C3106 H3109 0.929 . S
C3107 C3106 1.363 . S
C3107 C3113 1.428 . S
H3108 C3104 0.930 . S
H3109 C3106 0.929 . S
S3110 N3111 1.613 . S
S3110 N3112 1.610 . S
N3111 S3110 1.613 . S
N3111 C3114 1.350 . S
N3112 S3110 1.610 . S
N3112 C3113 1.351 . S
C3113 C3107 1.428 . S
C3113 N3112 1.351 . S
C3113 C3114 1.434 . S
C3114 C3105 1.429 . S
C3114 N3111 1.350 . S
C3114 C3113 1.434 . S
C3115 C3116 1.369 . S
C3115 C3117 1.419 . S
C3115 H3119 0.930 . S
C3116 C3115 1.369 . S
C3116 C3125 1.429 . S
C3117 C3115 1.419 . S
C3117 C3118 1.363 . S
C3117 H3120 0.929 . S
C3118 C3117 1.363 . S
C3118 C3124 1.428 . S
H3119 C3115 0.930 . S
H3120 C3117 0.929 . S
S3121 N3122 1.613 . S
S3121 N3123 1.610 . S
N3122 S3121 1.613 . S
N3122 C3125 1.350 . S
N3123 S3121 1.610 . S
N3123 C3124 1.351 . S
C3124 C3118 1.428 . S
C3124 N3123 1.351 . S
C3124 C3125 1.434 . S
C3125 C3116 1.429 . S
C3125 N3122 1.350 . S
C3125 C3124 1.434 . S
C3126 C3127 1.369 . S
C3126 C3128 1.419 . S
C3126 H3130 0.930 . S
C3127 C3126 1.369 . S
C3127 C3136 1.429 . S
C3128 C3126 1.419 . S
C3128 C3129 1.363 . S
C3128 H3131 0.929 . S
C3129 C3128 1.363 . S
C3129 C3135 1.428 . S
H3130 C3126 0.930 . S
H3131 C3128 0.929 . S
S3132 N3133 1.613 . S
S3132 N3134 1.610 . S
N3133 S3132 1.613 . S
N3133 C3136 1.350 . S
N3134 S3132 1.610 . S
N3134 C3135 1.351 . S
C3135 C3129 1.428 . S
C3135 N3134 1.351 . S
C3135 C3136 1.434 . S
C3136 C3127 1.429 . S
C3136 N3133 1.350 . S
C3136 C3135 1.434 . S
C3137 C3138 1.369 . S
C3137 C3139 1.419 . S
C3137 H3141 0.930 . S
C3138 C3137 1.369 . S
C3138 C3147 1.429 . S
C3139 C3137 1.419 . S
C3139 C3140 1.363 . S
C3139 H3142 0.929 . S
C3140 C3139 1.363 . S
C3140 C3146 1.428 . S
H3141 C3137 0.930 . S
H3142 C3139 0.929 . S
S3143 N3144 1.613 . S
S3143 N3145 1.610 . S
N3144 S3143 1.613 . S
N3144 C3147 1.350 . S
N3145 S3143 1.610 . S
N3145 C3146 1.351 . S
C3146 C3140 1.428 . S
C3146 N3145 1.351 . S
C3146 C3147 1.434 . S
C3147 C3138 1.429 . S
C3147 N3144 1.350 . S
C3147 C3146 1.434 . S
C3148 C3149 1.369 . S
C3148 C3150 1.419 . S
C3148 H3152 0.930 . S
C3149 C3148 1.369 . S
C3149 C3158 1.429 . S
C3150 C3148 1.419 . S
C3150 C3151 1.363 . S
C3150 H3153 0.929 . S
C3151 C3150 1.363 . S
C3151 C3157 1.428 . S
H3152 C3148 0.930 . S
H3153 C3150 0.929 . S
S3154 N3155 1.613 . S
S3154 N3156 1.610 . S
N3155 S3154 1.613 . S
N3155 C3158 1.350 . S
N3156 S3154 1.610 . S
N3156 C3157 1.351 . S
C3157 C3151 1.428 . S
C3157 N3156 1.351 . S
C3157 C3158 1.434 . S
C3158 C3149 1.429 . S
C3158 N3155 1.350 . S
C3158 C3157 1.434 . S
C3159 C3160 1.369 . S
C3159 C3161 1.419 . S
C3159 H3163 0.930 . S
C3160 C3159 1.369 . S
C3160 C3169 1.429 . S
C3161 C3159 1.419 . S
C3161 C3162 1.363 . S
C3161 H3164 0.929 . S
C3162 C3161 1.363 . S
C3162 C3168 1.428 . S
H3163 C3159 0.930 . S
H3164 C3161 0.929 . S
S3165 N3166 1.613 . S
S3165 N3167 1.610 . S
N3166 S3165 1.613 . S
N3166 C3169 1.350 . S
N3167 S3165 1.610 . S
N3167 C3168 1.351 . S
C3168 C3162 1.428 . S
C3168 N3167 1.351 . S
C3168 C3169 1.434 . S
C3169 C3160 1.429 . S
C3169 N3166 1.350 . S
C3169 C3168 1.434 . S
C3170 C3171 1.369 . S
C3170 C3172 1.419 . S
C3170 H3174 0.930 . S
C3171 C3170 1.369 . S
C3171 C3180 1.429 . S
C3172 C3170 1.419 . S
C3172 C3173 1.363 . S
C3172 H3175 0.929 . S
C3173 C3172 1.363 . S
C3173 C3179 1.428 . S
H3174 C3170 0.930 . S
H3175 C3172 0.929 . S
S3176 N3177 1.613 . S
S3176 N3178 1.610 . S
N3177 S3176 1.613 . S
N3177 C3180 1.350 . S
N3178 S3176 1.610 . S
N3178 C3179 1.351 . S
C3179 C3173 1.428 . S
C3179 N3178 1.351 . S
C3179 C3180 1.434 . S
C3180 C3171 1.429 . S
C3180 N3177 1.350 . S
C3180 C3179 1.434 . S
C3181 C3182 1.369 . S
C3181 C3183 1.419 . S
C3181 H3185 0.930 . S
C3182 C3181 1.369 . S
C3182 C3191 1.429 . S
C3183 C3181 1.419 . S
C3183 C3184 1.363 . S
C3183 H3186 0.929 . S
C3184 C3183 1.363 . S
C3184 C3190 1.428 . S
H3185 C3181 0.930 . S
H3186 C3183 0.929 . S
S3187 N3188 1.613 . S
S3187 N3189 1.610 . S
N3188 S3187 1.613 . S
N3188 C3191 1.350 . S
N3189 S3187 1.610 . S
N3189 C3190 1.351 . S
C3190 C3184 1.428 . S
C3190 N3189 1.351 . S
C3190 C3191 1.434 . S
C3191 C3182 1.429 . S
C3191 N3188 1.350 . S
C3191 C3190 1.434 . S
C3192 C3193 1.369 . S
C3192 C3194 1.419 . S
C3192 H3196 0.930 . S
C3193 C3192 1.369 . S
C3193 C3202 1.429 . S
C3194 C3192 1.419 . S
C3194 C3195 1.363 . S
C3194 H3197 0.929 . S
C3195 C3194 1.363 . S
C3195 C3201 1.428 . S
H3196 C3192 0.930 . S
H3197 C3194 0.929 . S
S3198 N3199 1.606 1_556 S
S3198 N3200 1.609 1_556 S
N3199 S3198 1.606 1_554 S
N3199 C3202 1.350 . S
N3200 S3198 1.609 1_554 S
N3200 C3201 1.351 . S
C3201 C3195 1.428 . S
C3201 N3200 1.351 . S
C3201 C3202 1.434 . S
C3202 C3193 1.429 . S
C3202 N3199 1.350 . S
C3202 C3201 1.434 . S
C3203 C3204 1.369 . S
C3203 C3205 1.419 . S
C3203 H3207 0.930 . S
C3204 C3203 1.369 . S
C3204 C3213 1.429 . S
C3205 C3203 1.419 . S
C3205 C3206 1.363 . S
C3205 H3208 0.929 . S
C3206 C3205 1.363 . S
C3206 C3212 1.428 . S
H3207 C3203 0.930 . S
H3208 C3205 0.929 . S
S3209 N3210 1.613 . S
S3209 N3211 1.610 . S
N3210 S3209 1.613 . S
N3210 C3213 1.350 . S
N3211 S3209 1.610 . S
N3211 C3212 1.351 . S
C3212 C3206 1.428 . S
C3212 N3211 1.351 . S
C3212 C3213 1.434 . S
C3213 C3204 1.429 . S
C3213 N3210 1.350 . S
C3213 C3212 1.434 . S
C3214 C3215 1.369 . S
C3214 C3216 1.419 . S
C3214 H3218 0.930 . S
C3215 C3214 1.369 . S
C3215 C3224 1.429 . S
C3216 C3214 1.419 . S
C3216 C3217 1.363 . S
C3216 H3219 0.929 . S
C3217 C3216 1.363 . S
C3217 C3223 1.428 . S
H3218 C3214 0.930 . S
H3219 C3216 0.929 . S
S3220 N3221 1.613 . S
S3220 N3222 1.610 . S
N3221 S3220 1.613 . S
N3221 C3224 1.350 . S
N3222 S3220 1.610 . S
N3222 C3223 1.351 . S
C3223 C3217 1.428 . S
C3223 N3222 1.351 . S
C3223 C3224 1.434 . S
C3224 C3215 1.429 . S
C3224 N3221 1.350 . S
C3224 C3223 1.434 . S
C3225 C3226 1.369 . S
C3225 C3227 1.419 . S
C3225 H3229 0.930 . S
C3226 C3225 1.369 . S
C3226 C3235 1.429 . S
C3227 C3225 1.419 . S
C3227 C3228 1.363 . S
C3227 H3230 0.929 . S
C3228 C3227 1.363 . S
C3228 C3234 1.428 . S
H3229 C3225 0.930 . S
H3230 C3227 0.929 . S
S3231 N3232 1.613 . S
S3231 N3233 1.610 . S
N3232 S3231 1.613 . S
N3232 C3235 1.350 . S
N3233 S3231 1.610 . S
N3233 C3234 1.351 . S
C3234 C3228 1.428 . S
C3234 N3233 1.351 . S
C3234 C3235 1.434 . S
C3235 C3226 1.429 . S
C3235 N3232 1.350 . S
C3235 C3234 1.434 . S
C3236 C3237 1.369 . S
C3236 C3238 1.419 . S
C3236 H3240 0.930 . S
C3237 C3236 1.369 . S
C3237 C3246 1.429 . S
C3238 C3236 1.419 . S
C3238 C3239 1.363 . S
C3238 H3241 0.929 . S
C3239 C3238 1.363 . S
C3239 C3245 1.428 . S
H3240 C3236 0.930 . S
H3241 C3238 0.929 . S
S3242 N3243 1.613 . S
S3242 N3244 1.610 . S
N3243 S3242 1.613 . S
N3243 C3246 1.350 . S
N3244 S3242 1.610 . S
N3244 C3245 1.351 . S
C3245 C3239 1.428 . S
C3245 N3244 1.351 . S
C3245 C3246 1.434 . S
C3246 C3237 1.429 . S
C3246 N3243 1.350 . S
C3246 C3245 1.434 . S
C3247 C3248 1.369 . S
C3247 C3249 1.419 . S
C3247 H3251 0.930 . S
C3248 C3247 1.369 . S
C3248 C3257 1.429 . S
C3249 C3247 1.419 . S
C3249 C3250 1.363 . S
C3249 H3252 0.929 . S
C3250 C3249 1.363 . S
C3250 C3256 1.428 . S
H3251 C3247 0.930 . S
H3252 C3249 0.929 . S
S3253 N3254 1.613 . S
S3253 N3255 1.610 . S
N3254 S3253 1.613 . S
N3254 C3257 1.350 . S
N3255 S3253 1.610 . S
N3255 C3256 1.351 . S
C3256 C3250 1.428 . S
C3256 N3255 1.351 . S
C3256 C3257 1.434 . S
C3257 C3248 1.429 . S
C3257 N3254 1.350 . S
C3257 C3256 1.434 . S
C3258 C3259 1.369 . S
C3258 C3260 1.419 . S
C3258 H3262 0.930 . S
C3259 C3258 1.369 . S
C3259 C3268 1.429 . S
C3260 C3258 1.419 . S
C3260 C3261 1.363 . S
C3260 H3263 0.929 . S
C3261 C3260 1.363 . S
C3261 C3267 1.428 . S
H3262 C3258 0.930 . S
H3263 C3260 0.929 . S
S3264 N3265 1.613 . S
S3264 N3266 1.610 . S
N3265 S3264 1.613 . S
N3265 C3268 1.350 . S
N3266 S3264 1.610 . S
N3266 C3267 1.351 . S
C3267 C3261 1.428 . S
C3267 N3266 1.351 . S
C3267 C3268 1.434 . S
C3268 C3259 1.429 . S
C3268 N3265 1.350 . S
C3268 C3267 1.434 . S
C3269 C3270 1.369 . S
C3269 C3271 1.419 . S
C3269 H3273 0.930 . S
C3270 C3269 1.369 . S
C3270 C3279 1.429 . S
C3271 C3269 1.419 . S
C3271 C3272 1.363 . S
C3271 H3274 0.929 . S
C3272 C3271 1.363 . S
C3272 C3278 1.428 . S
H3273 C3269 0.930 . S
H3274 C3271 0.929 . S
S3275 N3276 1.613 . S
S3275 N3277 1.610 . S
N3276 S3275 1.613 . S
N3276 C3279 1.350 . S
N3277 S3275 1.610 . S
N3277 C3278 1.351 . S
C3278 C3272 1.428 . S
C3278 N3277 1.351 . S
C3278 C3279 1.434 . S
C3279 C3270 1.429 . S
C3279 N3276 1.350 . S
C3279 C3278 1.434 . S
C3280 C3281 1.369 . S
C3280 C3282 1.419 . S
C3280 H3284 0.930 . S
C3281 C3280 1.369 . S
C3281 C3290 1.429 . S
C3282 C3280 1.419 . S
C3282 C3283 1.363 . S
C3282 H3285 0.929 . S
C3283 C3282 1.363 . S
C3283 C3289 1.428 . S
H3284 C3280 0.930 . S
H3285 C3282 0.929 . S
S3286 N3287 1.613 1_655 S
S3286 N3288 1.610 . S
N3287 S3286 1.613 1_455 S
N3287 C3290 1.350 . S
N3288 S3286 1.610 . S
N3288 C3289 1.351 1_655 S
C3289 C3283 1.428 . S
C3289 N3288 1.351 1_455 S
C3289 C3290 1.434 . S
C3290 C3281 1.429 . S
C3290 N3287 1.350 . S
C3290 C3289 1.434 . S
C3291 C3292 1.369 . S
C3291 C3293 1.419 . S
C3291 H3295 0.930 . S
C3292 C3291 1.369 . S
C3292 C3301 1.429 . S
C3293 C3291 1.419 . S
C3293 C3294 1.363 . S
C3293 H3296 0.929 . S
C3294 C3293 1.363 . S
C3294 C3300 1.428 . S
H3295 C3291 0.930 . S
H3296 C3293 0.929 . S
S3297 N3298 1.613 . S
S3297 N3299 1.610 . S
N3298 S3297 1.613 . S
N3298 C3301 1.350 . S
N3299 S3297 1.610 . S
N3299 C3300 1.351 . S
C3300 C3294 1.428 . S
C3300 N3299 1.351 . S
C3300 C3301 1.434 . S
C3301 C3292 1.429 . S
C3301 N3298 1.350 . S
C3301 C3300 1.434 . S
C3302 C3303 1.369 . S
C3302 C3304 1.419 . S
C3302 H3306 0.930 . S
C3303 C3302 1.369 . S
C3303 C3312 1.429 . S
C3304 C3302 1.419 . S
C3304 C3305 1.363 . S
C3304 H3307 0.929 . S
C3305 C3304 1.363 . S
C3305 C3311 1.428 . S
H3306 C3302 0.930 . S
H3307 C3304 0.929 . S
S3308 N3309 1.613 . S
S3308 N3310 1.610 . S
N3309 S3308 1.613 . S
N3309 C3312 1.350 . S
N3310 S3308 1.610 . S
N3310 C3311 1.351 . S
C3311 C3305 1.428 . S
C3311 N3310 1.351 . S
C3311 C3312 1.434 . S
C3312 C3303 1.429 . S
C3312 N3309 1.350 . S
C3312 C3311 1.434 . S
C3313 C3314 1.369 . S
C3313 C3315 1.419 . S
C3313 H3317 0.930 . S
C3314 C3313 1.369 . S
C3314 C3323 1.429 . S
C3315 C3313 1.419 . S
C3315 C3316 1.363 . S
C3315 H3318 0.929 . S
C3316 C3315 1.363 . S
C3316 C3322 1.428 . S
H3317 C3313 0.930 . S
H3318 C3315 0.929 . S
S3319 N3320 1.613 . S
S3319 N3321 1.610 . S
N3320 S3319 1.613 . S
N3320 C3323 1.350 . S
N3321 S3319 1.610 . S
N3321 C3322 1.351 . S
C3322 C3316 1.428 . S
C3322 N3321 1.351 . S
C3322 C3323 1.434 . S
C3323 C3314 1.429 . S
C3323 N3320 1.350 . S
C3323 C3322 1.434 . S
C3324 C3325 1.369 . S
C3324 C3326 1.419 . S
C3324 H3328 0.930 . S
C3325 C3324 1.369 . S
C3325 C3334 1.429 . S
C3326 C3324 1.419 . S
C3326 C3327 1.363 . S
C3326 H3329 0.929 . S
C3327 C3326 1.363 . S
C3327 C3333 1.428 . S
H3328 C3324 0.930 . S
H3329 C3326 0.929 . S
S3330 N3331 1.613 . S
S3330 N3332 1.610 . S
N3331 S3330 1.613 . S
N3331 C3334 1.350 . S
N3332 S3330 1.610 . S
N3332 C3333 1.351 . S
C3333 C3327 1.428 . S
C3333 N3332 1.351 . S
C3333 C3334 1.434 . S
C3334 C3325 1.429 . S
C3334 N3331 1.350 . S
C3334 C3333 1.434 . S
C3335 C3336 1.369 . S
C3335 C3337 1.419 . S
C3335 H3339 0.930 . S
C3336 C3335 1.369 . S
C3336 C3345 1.429 . S
C3337 C3335 1.419 . S
C3337 C3338 1.363 . S
C3337 H3340 0.929 . S
C3338 C3337 1.363 . S
C3338 C3344 1.428 . S
H3339 C3335 0.930 . S
H3340 C3337 0.929 . S
S3341 N3342 1.613 . S
S3341 N3343 1.610 . S
N3342 S3341 1.613 . S
N3342 C3345 1.350 . S
N3343 S3341 1.610 . S
N3343 C3344 1.351 . S
C3344 C3338 1.428 . S
C3344 N3343 1.351 . S
C3344 C3345 1.434 . S
C3345 C3336 1.429 . S
C3345 N3342 1.350 . S
C3345 C3344 1.434 . S
C3346 C3347 1.369 . S
C3346 C3348 1.419 . S
C3346 H3350 0.930 . S
C3347 C3346 1.369 . S
C3347 C3356 1.429 . S
C3348 C3346 1.419 . S
C3348 C3349 1.363 . S
C3348 H3351 0.929 . S
C3349 C3348 1.363 . S
C3349 C3355 1.428 . S
H3350 C3346 0.930 . S
H3351 C3348 0.929 . S
S3352 N3353 1.613 . S
S3352 N3354 1.610 . S
N3353 S3352 1.613 . S
N3353 C3356 1.350 . S
N3354 S3352 1.610 . S
N3354 C3355 1.351 . S
C3355 C3349 1.428 . S
C3355 N3354 1.351 . S
C3355 C3356 1.434 . S
C3356 C3347 1.429 . S
C3356 N3353 1.350 . S
C3356 C3355 1.434 . S
C3357 C3358 1.369 . S
C3357 C3359 1.419 . S
C3357 H3361 0.930 . S
C3358 C3357 1.369 . S
C3358 C3367 1.429 . S
C3359 C3357 1.419 . S
C3359 C3360 1.363 . S
C3359 H3362 0.929 . S
C3360 C3359 1.363 . S
C3360 C3366 1.428 . S
H3361 C3357 0.930 . S
H3362 C3359 0.929 . S
S3363 N3364 1.613 . S
S3363 N3365 1.610 . S
N3364 S3363 1.613 . S
N3364 C3367 1.350 . S
N3365 S3363 1.610 . S
N3365 C3366 1.351 . S
C3366 C3360 1.428 . S
C3366 N3365 1.351 . S
C3366 C3367 1.434 . S
C3367 C3358 1.429 . S
C3367 N3364 1.350 . S
C3367 C3366 1.434 . S
C3368 C3369 1.369 . S
C3368 C3370 1.419 . S
C3368 H3372 0.930 . S
C3369 C3368 1.369 . S
C3369 C3378 1.429 . S
C3370 C3368 1.419 . S
C3370 C3371 1.363 . S
C3370 H3373 0.929 . S
C3371 C3370 1.363 . S
C3371 C3377 1.428 . S
H3372 C3368 0.930 . S
H3373 C3370 0.929 . S
S3374 N3375 1.613 1_565 S
S3374 N3376 1.610 . S
N3375 S3374 1.613 1_545 S
N3375 C3378 1.350 . S
N3376 S3374 1.610 . S
N3376 C3377 1.351 1_565 S
C3377 C3371 1.428 . S
C3377 N3376 1.351 1_545 S
C3377 C3378 1.434 . S
C3378 C3369 1.429 . S
C3378 N3375 1.350 . S
C3378 C3377 1.434 . S
C3379 C3380 1.369 . S
C3379 C3381 1.419 . S
C3379 H3383 0.930 . S
C3380 C3379 1.369 . S
C3380 C3389 1.429 . S
C3381 C3379 1.419 . S
C3381 C3382 1.363 . S
C3381 H3384 0.929 . S
C3382 C3381 1.363 . S
C3382 C3388 1.428 . S
H3383 C3379 0.930 . S
H3384 C3381 0.929 . S
S3385 N3386 1.613 . S
S3385 N3387 1.610 . S
N3386 S3385 1.613 . S
N3386 C3389 1.350 . S
N3387 S3385 1.610 . S
N3387 C3388 1.351 . S
C3388 C3382 1.428 . S
C3388 N3387 1.351 . S
C3388 C3389 1.434 . S
C3389 C3380 1.429 . S
C3389 N3386 1.350 . S
C3389 C3388 1.434 . S
C3390 C3391 1.369 . S
C3390 C3392 1.419 . S
C3390 H3394 0.930 . S
C3391 C3390 1.369 . S
C3391 C3400 1.429 . S
C3392 C3390 1.419 . S
C3392 C3393 1.363 . S
C3392 H3395 0.929 . S
C3393 C3392 1.363 . S
C3393 C3399 1.428 . S
H3394 C3390 0.930 . S
H3395 C3392 0.929 . S
S3396 N3397 1.613 . S
S3396 N3398 1.610 . S
N3397 S3396 1.613 . S
N3397 C3400 1.350 . S
N3398 S3396 1.610 . S
N3398 C3399 1.351 . S
C3399 C3393 1.428 . S
C3399 N3398 1.351 . S
C3399 C3400 1.434 . S
C3400 C3391 1.429 . S
C3400 N3397 1.350 . S
C3400 C3399 1.434 . S
C3401 C3402 1.369 . S
C3401 C3403 1.419 . S
C3401 H3405 0.930 . S
C3402 C3401 1.369 . S
C3402 C3411 1.429 . S
C3403 C3401 1.419 . S
C3403 C3404 1.363 . S
C3403 H3406 0.929 . S
C3404 C3403 1.363 . S
C3404 C3410 1.428 . S
H3405 C3401 0.930 . S
H3406 C3403 0.929 . S
S3407 N3408 1.613 . S
S3407 N3409 1.610 . S
N3408 S3407 1.613 . S
N3408 C3411 1.350 . S
N3409 S3407 1.610 . S
N3409 C3410 1.351 . S
C3410 C3404 1.428 . S
C3410 N3409 1.351 . S
C3410 C3411 1.434 . S
C3411 C3402 1.429 . S
C3411 N3408 1.350 . S
C3411 C3410 1.434 . S
C3412 C3413 1.369 . S
C3412 C3414 1.419 . S
C3412 H3416 0.930 . S
C3413 C3412 1.369 . S
C3413 C3422 1.429 . S
C3414 C3412 1.419 . S
C3414 C3415 1.363 . S
C3414 H3417 0.929 . S
C3415 C3414 1.363 . S
C3415 C3421 1.428 . S
H3416 C3412 0.930 . S
H3417 C3414 0.929 . S
S3418 N3419 1.613 . S
S3418 N3420 1.610 . S
N3419 S3418 1.613 . S
N3419 C3422 1.350 . S
N3420 S3418 1.610 . S
N3420 C3421 1.351 . S
C3421 C3415 1.428 . S
C3421 N3420 1.351 . S
C3421 C3422 1.434 . S
C3422 C3413 1.429 . S
C3422 N3419 1.350 . S
C3422 C3421 1.434 . S
C3423 C3424 1.369 . S
C3423 C3425 1.419 . S
C3423 H3427 0.930 . S
C3424 C3423 1.369 . S
C3424 C3433 1.429 . S
C3425 C3423 1.419 . S
C3425 C3426 1.363 . S
C3425 H3428 0.929 . S
C3426 C3425 1.363 . S
C3426 C3432 1.428 . S
H3427 C3423 0.930 . S
H3428 C3425 0.929 . S
S3429 N3430 1.613 . S
S3429 N3431 1.610 . S
N3430 S3429 1.613 . S
N3430 C3433 1.350 . S
N3431 S3429 1.610 . S
N3431 C3432 1.351 . S
C3432 C3426 1.428 . S
C3432 N3431 1.351 . S
C3432 C3433 1.434 . S
C3433 C3424 1.429 . S
C3433 N3430 1.350 . S
C3433 C3432 1.434 . S
C3434 C3435 1.369 . S
C3434 C3436 1.419 . S
C3434 H3438 0.930 . S
C3435 C3434 1.369 . S
C3435 C3444 1.429 . S
C3436 C3434 1.419 . S
C3436 C3437 1.363 . S
C3436 H3439 0.929 . S
C3437 C3436 1.363 . S
C3437 C3443 1.428 . S
H3438 C3434 0.930 . S
H3439 C3436 0.929 . S
S3440 N3441 1.613 . S
S3440 N3442 1.610 . S
N3441 S3440 1.613 . S
N3441 C3444 1.350 . S
N3442 S3440 1.610 . S
N3442 C3443 1.351 . S
C3443 C3437 1.428 . S
C3443 N3442 1.351 . S
C3443 C3444 1.434 . S
C3444 C3435 1.429 . S
C3444 N3441 1.350 . S
C3444 C3443 1.434 . S
C3445 C3446 1.369 . S
C3445 C3447 1.419 . S
C3445 H3449 0.930 . S
C3446 C3445 1.369 . S
C3446 C3455 1.429 . S
C3447 C3445 1.419 . S
C3447 C3448 1.363 . S
C3447 H3450 0.929 . S
C3448 C3447 1.363 . S
C3448 C3454 1.428 . S
H3449 C3445 0.930 . S
H3450 C3447 0.929 . S
S3451 N3452 1.613 . S
S3451 N3453 1.610 . S
N3452 S3451 1.613 . S
N3452 C3455 1.350 . S
N3453 S3451 1.610 . S
N3453 C3454 1.351 . S
C3454 C3448 1.428 . S
C3454 N3453 1.351 . S
C3454 C3455 1.434 . S
C3455 C3446 1.429 . S
C3455 N3452 1.350 . S
C3455 C3454 1.434 . S
C1345 C9 1.425 . S
C1347 C1057 1.396 . S
C1356 C343 1.380 . S
C1358 C23 1.406 . S
C1367 C1029 1.399 . S
C1369 C37 1.426 . S
C1378 C371 1.380 . S
C1380 C51 1.406 . S
C1389 C65 1.425 . S
C1391 C1085 1.396 . S
C1400 C79 1.402 . S
C1402 C427 1.373 . S
C1411 C1113 1.394 . S
C1413 C93 1.423 . S
C1422 C107 1.404 . S
C1424 C399 1.375 . S
C1433 C119 1.399 . S
C1435 C1267 1.395 . S
C1444 C609 1.399 . S
C1446 C135 1.430 . S
C1455 C147 1.399 . S
C1457 C623 1.390 . S
C1466 C163 1.431 . S
C1468 C581 1.401 . S
C1477 C175 1.404 . S
C1479 C1323 1.390 . S
C1488 C191 1.431 . S
C1490 C1239 1.403 . S
C1499 C203 1.398 . S
C1501 C1337 1.394 . S
C1510 C219 1.432 . S
C1512 C1309 1.402 . S
C1521 C1141 1.369 . S
C1523 C233 1.399 . S
C1532 C247 1.411 . S
C1534 C553 1.383 . S
C1543 C259 1.400 . S
C1545 C1183 1.391 . S
C1554 C525 1.380 . S
C1556 C275 1.408 . S
C1565 C287 1.435 . S
C1567 C539 1.432 . S
C1576 C1169 1.378 . S
C1578 C303 1.403 . S
C1587 C315 1.401 . S
C1589 C1127 1.386 . S
C1598 C1155 1.393 . S
C1600 C329 1.396 . S
C1609 C721 1.321 . S
C1611 C345 1.364 . S
C1620 C7 1.353 . S
C1622 C359 1.392 . S
C1631 C373 1.368 . S
C1633 C693 1.329 . S
C1642 C387 1.390 . S
C1644 C35 1.352 . S
C1653 C401 1.365 . S
C1655 C749 1.324 . S
C1664 C91 1.360 . S
C1666 C415 1.394 . S
C1675 C429 1.364 . S
C1677 C777 1.323 . S
C1686 C443 1.390 . S
C1688 C63 1.352 . S
C1697 C457 1.329 . S
C1699 C933 1.242 . S
C1708 C273 1.316 . S
C1710 C471 1.359 . S
C1719 C485 1.329 . S
C1721 C289 1.249 . S
C1730 C245 1.312 . S
C1732 C499 1.358 . S
C1741 C513 1.332 . S
C1743 C989 1.249 . S
C1752 C527 1.359 . S
C1754 C903 1.317 . S
C1763 C541 1.329 . S
C1765 C1003 1.246 . S
C1774 C973 1.315 . S
C1776 C555 1.359 . S
C1785 C805 1.357 . S
C1787 C569 1.389 . S
C1796 C217 1.344 . S
C1798 C583 1.379 . S
C1807 C849 1.300 . S
C1809 C597 1.383 . S
C1818 C611 1.383 . S
C1820 C189 1.351 . S
C1829 C625 1.378 . S
C1831 C205 1.289 . S
C1840 C639 1.390 . S
C1842 C833 1.357 . S
C1851 C793 1.298 . S
C1853 C653 1.383 . S
C1862 C667 1.380 . S
C1864 C821 1.290 . S
C1873 C385 1.398 . S
C1875 C681 1.432 . S
C1884 C1015 1.370 . S
C1886 C695 1.398 . S
C1895 C709 1.436 . S
C1897 C357 1.406 . S
C1906 C1043 1.368 . S
C1908 C723 1.397 . S
C1917 C737 1.436 . S
C1919 C413 1.405 . S
C1928 C1099 1.373 . S
C1930 C751 1.399 . S
C1939 C765 1.432 . S
C1941 C441 1.399 . S
C1950 C1071 1.368 . S
C1952 C779 1.397 . S
C1961 C595 1.393 . S
C1963 C791 1.398 . S
C1972 C807 1.436 . S
C1974 C1281 1.406 . S
C1983 C1295 1.387 . S
C1985 C819 1.402 . S
C1994 C835 1.434 . S
C1996 C1253 1.405 . S
C2005 C651 1.395 . S
C2007 C847 1.399 . S
C2016 C863 1.436 . S
C2018 C567 1.407 . S
C2027 C665 1.388 . S
C2029 C875 1.399 . S
C2038 C637 1.412 . S
C2040 C891 1.439 . S
C2049 C469 1.383 . S
C2051 C905 1.410 . S
C2060 C1225 1.369 . S
C2062 C919 1.399 . S
C2071 C931 1.432 . S
C2073 C511 1.434 . S
C2082 C947 1.398 . S
C2084 C1197 1.370 . S
C2093 C1211 1.388 . S
C2095 C959 1.401 . S
C2104 C497 1.382 . S
C2106 C975 1.409 . S
C2115 C455 1.428 . S
C2117 C987 1.437 . S
C2126 C483 1.424 . S
C2128 C1001 1.437 . S
C2137 C1017 1.370 . S
C2139 C49 1.330 . S
C2148 C1031 1.373 . S
C2150 C679 1.343 . S
C2159 C1045 1.369 . S
C2161 C21 1.328 . S
C2170 C1059 1.374 . S
C2172 C707 1.345 . S
C2181 C77 1.320 . S
C2183 C1073 1.366 . S
C2192 C763 1.347 . S
C2194 C1087 1.375 . S
C2203 C105 1.323 . S
C2205 C1101 1.367 . S
C2214 C735 1.340 . S
C2216 C1115 1.371 . S
C2225 C1129 1.380 . S
C2227 C261 1.292 . S
C2236 C945 1.323 . S
C2238 C1143 1.362 . S
C2247 C1157 1.380 . S
C2249 C961 1.292 . S
C2258 C1171 1.359 . S
C2260 C917 1.315 . S
C2269 C317 1.293 . S
C2271 C1185 1.379 . S
C2280 C231 1.314 . S
C2282 C1199 1.359 . S
C2291 C1213 1.379 . S
C2293 C331 1.293 . S
C2302 C301 1.318 . S
C2304 C1227 1.361 . S
C2313 C1241 1.378 . S
C2315 C133 1.344 . S
C2324 C1255 1.387 . S
C2326 C889 1.352 . S
C2335 C177 1.282 . S
C2337 C1269 1.376 . S
C2346 C1283 1.387 . S
C2348 C861 1.353 . S
C2357 C877 1.300 . S
C2359 C1297 1.383 . S
C2368 C1311 1.379 . S
C2370 C161 1.345 . S
C2379 C1325 1.378 . S
C2381 C121 1.288 . S
C2390 C1339 1.378 . S
C2392 C149 1.294 . S
C2401 C3 1.365 . S
C2403 C610 1.420 . S
C2412 C624 1.435 . S
C2414 C17 1.373 . S
C2423 C582 1.420 . S
C2425 C31 1.365 . S
C2434 C45 1.375 . S
C2436 C1268 1.436 . S
C2445 C59 1.367 . S
C2447 C1310 1.420 . S
C2456 C73 1.375 . S
C2458 C1324 1.436 . S
C2467 C1240 1.419 . S
C2469 C87 1.365 . S
C2478 C1338 1.437 . S
C2480 C101 1.369 . S
C2489 C372 1.371 . S
C2491 C120 1.352 . S
C2500 C129 1.360 . S
C2502 C1058 1.410 . S
C2511 C344 1.371 . S
C2513 C148 1.352 . S
C2522 C1030 1.411 . S
C2524 C157 1.351 . S
C2533 C428 1.371 . S
C2535 C176 1.353 . S
C2544 C185 1.355 . S
C2546 C1114 1.410 . S
C2555 C204 1.349 . S
C2557 C400 1.372 . S
C2566 C213 1.360 . S
C2568 C1086 1.410 . S
C2577 C227 1.368 . S
C2579 C1184 1.430 . S
C2588 C456 1.439 . S
C2590 C241 1.383 . S
C2599 C260 1.353 . S
C2601 C1142 1.373 . S
C2610 C269 1.369 . S
C2612 C484 1.444 . S
C2621 C288 1.334 . S
C2623 C498 1.350 . S
C2632 C297 1.369 . S
C2634 C1212 1.430 . S
C2643 C1226 1.374 . S
C2645 C316 1.348 . S
C2654 C1198 1.372 . S
C2656 C330 1.353 . S
C2665 C274 1.420 . S
C2667 C339 1.354 . S
C2676 C353 1.408 . S
C2678 C283 1.459 . S
C2687 C367 1.356 . S
C2689 C246 1.419 . S
C2698 C381 1.412 . S
C2700 C927 1.462 . S
C2709 C974 1.418 . S
C2711 C395 1.358 . S
C2720 C983 1.460 . S
C2722 C409 1.405 . S
C2731 C423 1.363 . S
C2733 C904 1.417 . S
C2742 C997 1.462 . S
C2744 C437 1.407 . S
C2753 C451 1.342 . S
C2755 C36 1.412 . S
C2764 C722 1.415 . S
C2766 C465 1.361 . S
C2775 C479 1.343 . S
C2777 C8 1.410 . S
C2786 C694 1.416 . S
C2788 C493 1.357 . S
C2797 C507 1.351 . S
C2799 C92 1.409 . S
C2808 C778 1.415 . S
C2810 C521 1.361 . S
C2819 C64 1.416 . S
C2821 C535 1.343 . S
C2830 C750 1.418 . S
C2832 C549 1.353 . S
C2841 C563 1.397 . S
C2843 C843 1.455 . S
C2852 C577 1.399 . S
C2854 C115 1.457 . S
C2863 C806 1.456 . S
C2865 C591 1.384 . S
C2874 C605 1.400 . S
C2876 C143 1.457 . S
C2885 C162 1.458 . S
C2887 C619 1.383 . S
C2896 C871 1.453 . S
C2898 C633 1.404 . S
C2907 C890 1.458 . S
C2909 C647 1.380 . S
C2918 C862 1.458 . S
C2920 C661 1.378 . S
C2929 C675 1.358 . S
C2931 C1282 1.416 . S
C2940 C689 1.381 . S
C2942 C1296 1.440 . S
C2951 C703 1.360 . S
C2953 C1254 1.416 . S
C2962 C596 1.441 . S
C2964 C717 1.376 . S
C2973 C731 1.357 . S
C2975 C638 1.416 . S
C2984 C652 1.443 . S
C2986 C745 1.373 . S
C2995 C568 1.415 . S
C2997 C759 1.365 . S
C3006 C666 1.440 . S
C3008 C773 1.378 . S
C3017 C792 1.358 . S
C3019 C1044 1.381 . S
C3028 C386 1.428 . S
C3030 C801 1.365 . S
C3039 C820 1.355 . S
C3041 C1016 1.381 . S
C3050 C829 1.363 . S
C3052 C358 1.428 . S
C3061 C848 1.355 . S
C3063 C1100 1.381 . S
C3072 C857 1.363 . S
C3074 C442 1.428 . S
C3083 C1072 1.381 . S
C3085 C876 1.357 . S
C3094 C414 1.427 . S
C3096 C885 1.367 . S
C3105 C899 1.373 . S
C3107 C512 1.444 . S
C3116 C913 1.359 . S
C3118 C1128 1.432 . S
C3127 C932 1.328 . S
C3129 C470 1.351 . S
C3138 C1156 1.429 . S
C3140 C941 1.369 . S
C3149 C960 1.352 . S
C3151 C1170 1.373 . S
C3160 C969 1.370 . S
C3162 C540 1.444 . S
C3171 C554 1.350 . S
C3173 C988 1.333 . S
C3182 C1002 1.329 . S
C3184 C526 1.351 . S
C3193 C1011 1.359 . S
C3195 C946 1.412 . S
C3204 C955 1.445 . S
C3206 C1025 1.396 . S
C3215 C918 1.412 . S
C3217 C1039 1.358 . S
C3226 C1053 1.389 . S
C3228 C255 1.444 . S
C3237 C1067 1.351 . S
C3239 C302 1.414 . S
C3248 C1081 1.396 . S
C3250 C311 1.446 . S
C3259 C232 1.414 . S
C3261 C1095 1.349 . S
C3270 C1109 1.393 . S
C3272 C325 1.444 . S
C3281 C1123 1.382 . S
C3283 C708 1.450 . S
C3292 C1137 1.359 . S
C3294 C50 1.414 . S
C3303 C1151 1.379 . S
C3305 C680 1.451 . S
C3314 C1165 1.358 . S
C3316 C22 1.414 . S
C3325 C1179 1.379 . S
C3327 C764 1.451 . S
C3336 C1193 1.361 . S
C3338 C106 1.413 . S
C3347 C1207 1.374 . S
C3349 C736 1.452 . S
C3358 C1221 1.357 . S
C3360 C78 1.414 . S
C3369 C1235 1.408 . S
C3371 C171 1.456 . S
C3380 C1249 1.399 . S
C3382 C787 1.455 . S
C3391 C1263 1.378 . S
C3393 C134 1.460 . S
C3402 C1277 1.398 . S
C3404 C815 1.454 . S
C3413 C1291 1.379 . S
C3415 C834 1.457 . S
C3424 C199 1.455 . S
C3426 C1305 1.406 . S
C3435 C1319 1.387 . S
C3437 C218 1.458 . S
C3446 C1333 1.381 . S
C3448 C190 1.459 . S
