# Generated by pormake.
# Topology cbo, (4)-cn, num edge types: 1
# Building blocks:
#     Node 0, Type 0, BuildingBlock: GALJAG_clean_sbu_0, # of connection points: 4
#     Node 1, Type 0, BuildingBlock: GALJAG_clean_sbu_0, # of connection points: 4
#     Node 2, Type 0, BuildingBlock: GALJAG_clean_sbu_0, # of connection points: 4
#     Node 3, Type 0, BuildingBlock: GALJAG_clean_sbu_0, # of connection points: 4
#     Node 4, Type 0, BuildingBlock: GALJAG_clean_sbu_0, # of connection points: 4
#     Node 5, Type 0, BuildingBlock: GALJAG_clean_sbu_0, # of connection points: 4
#     Node 6, Type 0, BuildingBlock: GALJAG_clean_sbu_0, # of connection points: 4
#     Node 7, Type 0, BuildingBlock: GALJAG_clean_sbu_0, # of connection points: 4
#     Node 8, Type 0, BuildingBlock: GALJAG_clean_sbu_0, # of connection points: 4
#     Node 9, Type 0, BuildingBlock: GALJAG_clean_sbu_0, # of connection points: 4
#     Node 10, Type 0, BuildingBlock: GALJAG_clean_sbu_0, # of connection points: 4
#     Node 11, Type 0, BuildingBlock: GALJAG_clean_sbu_0, # of connection points: 4
#     Node 12, Type 0, BuildingBlock: GALJAG_clean_sbu_0, # of connection points: 4
#     Node 13, Type 0, BuildingBlock: GALJAG_clean_sbu_0, # of connection points: 4
#     Node 14, Type 0, BuildingBlock: GALJAG_clean_sbu_0, # of connection points: 4
#     Node 15, Type 0, BuildingBlock: GALJAG_clean_sbu_0, # of connection points: 4
#     Node 16, Type 0, BuildingBlock: GALJAG_clean_sbu_0, # of connection points: 4
#     Node 17, Type 0, BuildingBlock: GALJAG_clean_sbu_0, # of connection points: 4
#     Node 18, Type 0, BuildingBlock: GALJAG_clean_sbu_0, # of connection points: 4
#     Node 19, Type 0, BuildingBlock: GALJAG_clean_sbu_0, # of connection points: 4
#     Node 20, Type 0, BuildingBlock: GALJAG_clean_sbu_0, # of connection points: 4
#     Node 21, Type 0, BuildingBlock: GALJAG_clean_sbu_0, # of connection points: 4
#     Node 22, Type 0, BuildingBlock: GALJAG_clean_sbu_0, # of connection points: 4
#     Node 23, Type 0, BuildingBlock: GALJAG_clean_sbu_0, # of connection points: 4
#     Edge 24, Type (0, 0), BuildingBlock: EZIPEK_clean_linker_0, # of connection points: 2
#     Edge 25, Type (0, 0), BuildingBlock: EZIPEK_clean_linker_0, # of connection points: 2
#     Edge 26, Type (0, 0), BuildingBlock: EZIPEK_clean_linker_0, # of connection points: 2
#     Edge 27, Type (0, 0), BuildingBlock: EZIPEK_clean_linker_0, # of connection points: 2
#     Edge 28, Type (0, 0), BuildingBlock: EZIPEK_clean_linker_0, # of connection points: 2
#     Edge 29, Type (0, 0), BuildingBlock: EZIPEK_clean_linker_0, # of connection points: 2
#     Edge 30, Type (0, 0), BuildingBlock: EZIPEK_clean_linker_0, # of connection points: 2
#     Edge 31, Type (0, 0), BuildingBlock: EZIPEK_clean_linker_0, # of connection points: 2
#     Edge 32, Type (0, 0), BuildingBlock: EZIPEK_clean_linker_0, # of connection points: 2
#     Edge 33, Type (0, 0), BuildingBlock: EZIPEK_clean_linker_0, # of connection points: 2
#     Edge 34, Type (0, 0), BuildingBlock: EZIPEK_clean_linker_0, # of connection points: 2
#     Edge 35, Type (0, 0), BuildingBlock: EZIPEK_clean_linker_0, # of connection points: 2
#     Edge 36, Type (0, 0), BuildingBlock: EZIPEK_clean_linker_0, # of connection points: 2
#     Edge 37, Type (0, 0), BuildingBlock: EZIPEK_clean_linker_0, # of connection points: 2
#     Edge 38, Type (0, 0), BuildingBlock: EZIPEK_clean_linker_0, # of connection points: 2
#     Edge 39, Type (0, 0), BuildingBlock: EZIPEK_clean_linker_0, # of connection points: 2
#     Edge 40, Type (0, 0), BuildingBlock: EZIPEK_clean_linker_0, # of connection points: 2
#     Edge 41, Type (0, 0), BuildingBlock: EZIPEK_clean_linker_0, # of connection points: 2
#     Edge 42, Type (0, 0), BuildingBlock: EZIPEK_clean_linker_0, # of connection points: 2
#     Edge 43, Type (0, 0), BuildingBlock: EZIPEK_clean_linker_0, # of connection points: 2
#     Edge 44, Type (0, 0), BuildingBlock: EZIPEK_clean_linker_0, # of connection points: 2
#     Edge 45, Type (0, 0), BuildingBlock: EZIPEK_clean_linker_0, # of connection points: 2
#     Edge 46, Type (0, 0), BuildingBlock: EZIPEK_clean_linker_0, # of connection points: 2
#     Edge 47, Type (0, 0), BuildingBlock: EZIPEK_clean_linker_0, # of connection points: 2
#     Edge 48, Type (0, 0), BuildingBlock: EZIPEK_clean_linker_0, # of connection points: 2
#     Edge 49, Type (0, 0), BuildingBlock: EZIPEK_clean_linker_0, # of connection points: 2
#     Edge 50, Type (0, 0), BuildingBlock: EZIPEK_clean_linker_0, # of connection points: 2
#     Edge 51, Type (0, 0), BuildingBlock: EZIPEK_clean_linker_0, # of connection points: 2
#     Edge 52, Type (0, 0), BuildingBlock: EZIPEK_clean_linker_0, # of connection points: 2
#     Edge 53, Type (0, 0), BuildingBlock: EZIPEK_clean_linker_0, # of connection points: 2
#     Edge 54, Type (0, 0), BuildingBlock: EZIPEK_clean_linker_0, # of connection points: 2
#     Edge 55, Type (0, 0), BuildingBlock: EZIPEK_clean_linker_0, # of connection points: 2
#     Edge 56, Type (0, 0), BuildingBlock: EZIPEK_clean_linker_0, # of connection points: 2
#     Edge 57, Type (0, 0), BuildingBlock: EZIPEK_clean_linker_0, # of connection points: 2
#     Edge 58, Type (0, 0), BuildingBlock: EZIPEK_clean_linker_0, # of connection points: 2
#     Edge 59, Type (0, 0), BuildingBlock: EZIPEK_clean_linker_0, # of connection points: 2
#     Edge 60, Type (0, 0), BuildingBlock: EZIPEK_clean_linker_0, # of connection points: 2
#     Edge 61, Type (0, 0), BuildingBlock: EZIPEK_clean_linker_0, # of connection points: 2
#     Edge 62, Type (0, 0), BuildingBlock: EZIPEK_clean_linker_0, # of connection points: 2
#     Edge 63, Type (0, 0), BuildingBlock: EZIPEK_clean_linker_0, # of connection points: 2
#     Edge 64, Type (0, 0), BuildingBlock: EZIPEK_clean_linker_0, # of connection points: 2
#     Edge 65, Type (0, 0), BuildingBlock: EZIPEK_clean_linker_0, # of connection points: 2
#     Edge 66, Type (0, 0), BuildingBlock: EZIPEK_clean_linker_0, # of connection points: 2
#     Edge 67, Type (0, 0), BuildingBlock: EZIPEK_clean_linker_0, # of connection points: 2
#     Edge 68, Type (0, 0), BuildingBlock: EZIPEK_clean_linker_0, # of connection points: 2
#     Edge 69, Type (0, 0), BuildingBlock: EZIPEK_clean_linker_0, # of connection points: 2
#     Edge 70, Type (0, 0), BuildingBlock: EZIPEK_clean_linker_0, # of connection points: 2
#     Edge 71, Type (0, 0), BuildingBlock: EZIPEK_clean_linker_0, # of connection points: 2
# Relax obj value: 0.104
# Max RMSD: 0.141
# Mean RMSD: 0.141
data_MOF--net-cbo--node1-GALJAG_clean_sbu_0--edge1-EZIPEK_clean_linker_0
_symmetry_space_group_name_H-M    P1
_symmetry_Int_Tables_number       1
_symmetry_cell_setting            triclinic
loop_
_symmetry_equiv_pos_as_xyz
'x, y, z'
_cell_length_a     38.290692
_cell_length_b     38.267746
_cell_length_c     38.295415
_cell_angle_alpha  89.98994
_cell_angle_beta   89.972124
_cell_angle_gamma 89.961816
loop_
_atom_site_label
_atom_site_type_symbol
_atom_site_fract_x
_atom_site_fract_y
_atom_site_fract_z
_atom_type_partial_charge
In0 In 0.06385 0.1386 0.29785 0.0
O1 O 0.02395 0.09579 0.30862 0.0
O2 O 0.00583 0.1483 0.30323 0.0
C3 C 0.12043 0.10175 0.27769 0.0
C4 C 0.07904 0.16127 0.36223 0.0
C5 C 0.06371 0.17827 0.23997 0.0
O6 O 0.08996 0.09276 0.26892 0.0
O7 O 0.1218 0.12721 0.29837 0.0
O8 O 0.07617 0.18901 0.26855 0.0
O9 O 0.04914 0.14879 0.24133 0.0
C10 C -0.00171 0.11662 0.3085 0.0
O11 O 0.07509 0.18209 0.33687 0.0
O12 O 0.07422 0.12937 0.35522 0.0
In13 In 0.41939 0.85416 0.79179 0.0
O14 O 0.40718 0.8113 0.83148 0.0
O15 O 0.40384 0.86419 0.8482 0.0
C16 C 0.41983 0.81485 0.73357 0.0
C17 C 0.48618 0.87278 0.8026 0.0
C18 C 0.36767 0.89662 0.77017 0.0
O19 O 0.40927 0.80323 0.76255 0.0
O20 O 0.43141 0.84571 0.73421 0.0
O21 O 0.39858 0.90733 0.77398 0.0
O22 O 0.36264 0.86527 0.77887 0.0
C23 C 0.40087 0.83234 0.85602 0.0
O24 O 0.46165 0.89476 0.80177 0.0
O25 O 0.47713 0.84146 0.79777 0.0
In26 In 0.5836 0.36044 0.69231 0.0
O27 O 0.54328 0.40446 0.69182 0.0
O28 O 0.52515 0.35212 0.68654 0.0
C29 C 0.64286 0.39742 0.70487 0.0
C30 C 0.59286 0.34002 0.62578 0.0
C31 C 0.58555 0.31995 0.74973 0.0
O32 O 0.6127 0.40999 0.7094 0.0
O33 O 0.64255 0.3661 0.69468 0.0
O34 O 0.59265 0.30824 0.71977 0.0
O35 O 0.57615 0.35152 0.75056 0.0
C36 C 0.51761 0.38419 0.68767 0.0
O37 O 0.58857 0.3184 0.65032 0.0
O38 O 0.59229 0.37175 0.63472 0.0
In39 In 0.93052 0.6632 0.21672 0.0
O40 O 0.971 0.61983 0.2213 0.0
O41 O 0.98604 0.66701 0.19592 0.0
C42 C 0.87711 0.62899 0.24661 0.0
C43 C 0.90849 0.67447 0.15104 0.0
C44 C 0.94058 0.71279 0.26617 0.0
O45 O 0.90481 0.61351 0.2377 0.0
O46 O 0.87619 0.66125 0.24011 0.0
O47 O 0.92484 0.7186 0.23782 0.0
O48 O 0.95116 0.68172 0.26923 0.0
C49 C 0.99454 0.63667 0.20558 0.0
O50 O 0.92053 0.69862 0.1699 0.0
O51 O 0.90729 0.64479 0.16525 0.0
In52 In 0.2964 0.05454 0.15782 0.0
O53 O 0.33974 0.07133 0.19487 0.0
O54 O 0.35216 0.06612 0.14086 0.0
C55 C 0.24312 0.05508 0.20371 0.0
C56 C 0.30391 0.98795 0.13675 0.0
C57 C 0.27319 0.10834 0.11888 0.0
O58 O 0.27449 0.05825 0.21324 0.0
O59 O 0.23886 0.04965 0.17157 0.0
O60 O 0.27268 0.07721 0.10799 0.0
O61 O 0.2868 0.11249 0.14853 0.0
C62 C 0.3625 0.07369 0.17118 0.0
O63 O 0.29658 0.01246 0.11604 0.0
O64 O 0.30704 0.9968 0.16832 0.0
In65 In 0.19175 0.93492 0.65073 0.0
O66 O 0.14811 0.93005 0.69096 0.0
O67 O 0.13691 0.91665 0.63806 0.0
C68 C 0.24671 0.93858 0.69435 0.0
C69 C 0.1806 -0.00062 0.62574 0.0
C70 C 0.21815 0.87962 0.61601 0.0
O71 O 0.22002 0.92044 0.70114 0.0
O72 O 0.24447 0.95677 0.66702 0.0
O73 O 0.22204 0.91048 0.6049 0.0
O74 O 0.19977 0.87686 0.64313 0.0
C75 C 0.12601 0.91904 0.66906 0.0
O76 O 0.18314 0.97315 0.60575 0.0
O77 O 0.18353 0.99288 0.65791 0.0
In78 In 0.80655 0.43499 0.84065 0.0
O79 O 0.8035 0.46919 0.8894 0.0
O80 O 0.80886 0.49432 0.8402 0.0
C81 C 0.78513 0.37457 0.8689 0.0
C82 C 0.87513 0.42447 0.82954 0.0
C83 C 0.75844 0.43549 0.78918 0.0
O84 O 0.77771 0.4038 0.88228 0.0
O85 O 0.80419 0.37576 0.84203 0.0
O86 O 0.79081 0.43626 0.78314 0.0
O87 O 0.75029 0.43624 0.82106 0.0
C88 C 0.80664 0.49747 0.87286 0.0
O89 O 0.85474 0.43483 0.80584 0.0
O90 O 0.86112 0.41994 0.85901 0.0
In91 In 0.69945 0.57169 0.35985 0.0
O92 O 0.69792 0.52763 0.39984 0.0
O93 O 0.69206 0.51446 0.3461 0.0
C94 C 0.71665 0.62534 0.4016 0.0
C95 C 0.63393 0.58592 0.33911 0.0
C96 C 0.75812 0.57685 0.32173 0.0
O97 O 0.7118 0.59495 0.41356 0.0
O98 O 0.71058 0.62875 0.36943 0.0
O99 O 0.7287 0.58616 0.31017 0.0
O100 O 0.75773 0.56297 0.35161 0.0
C101 C 0.69283 0.50408 0.37734 0.0
O102 O 0.65796 0.57873 0.31773 0.0
O103 O 0.64288 0.58598 0.37078 0.0
In104 In 0.15253 0.28229 0.07167 0.0
O105 O 0.11 0.28414 0.03048 0.0
O106 O 0.1622 0.29719 0.01529 0.0
C107 C 0.10991 0.25412 0.11983 0.0
C108 C 0.16703 0.34859 0.08975 0.0
C109 C 0.19884 0.22895 0.07112 0.0
O110 O 0.10274 0.25327 0.08767 0.0
O111 O 0.13736 0.27043 0.12757 0.0
O112 O 0.19759 0.25127 0.09525 0.0
O113 O 0.17853 0.23495 0.04599 0.0
C114 C 0.13055 0.29385 0.00652 0.0
O115 O 0.1908 0.32661 0.08343 0.0
O116 O 0.13633 0.33712 0.08693 0.0
In117 In 0.65753 0.20762 0.92301 0.0
O118 O 0.61503 0.20976 0.96459 0.0
O119 O 0.66658 0.19679 0.98072 0.0
C120 C 0.62168 0.23814 0.87083 0.0
C121 C 0.66444 0.13977 0.90741 0.0
C122 C 0.71043 0.2533 0.91677 0.0
O123 O 0.6147 0.24396 0.90253 0.0
O124 O 0.64483 0.21534 0.86556 0.0
O125 O 0.71308 0.22199 0.90692 0.0
O126 O 0.68257 0.26058 0.93268 0.0
C127 C 0.63505 0.20107 0.98927 0.0
O128 O 0.68987 0.15848 0.91682 0.0
O129 O 0.63531 0.1552 0.90581 0.0
In130 In 0.8429 0.7957 0.4375 0.0
O131 O 0.80332 0.8344 0.41531 0.0
O132 O 0.85429 0.85312 0.42664 0.0
C133 C 0.79571 0.74357 0.4411 0.0
C134 C 0.8674 0.79729 0.50334 0.0
C135 C 0.88552 0.77874 0.38444 0.0
O136 O 0.78859 0.77427 0.45072 0.0
O137 O 0.82673 0.73907 0.43108 0.0
O138 O 0.89707 0.78865 0.4137 0.0
O139 O 0.85267 0.77807 0.38178 0.0
C140 C 0.82424 0.8598 0.41502 0.0
O141 O 0.88285 0.781 0.4793 0.0
O142 O 0.83969 0.81259 0.49441 0.0
In143 In 0.34353 0.70815 0.56088 0.0
O144 O 0.38523 0.69649 0.52006 0.0
O145 O 0.33354 0.70694 0.50242 0.0
C146 C 0.38366 0.73618 0.61115 0.0
C147 C 0.32867 0.64131 0.57626 0.0
C148 C 0.29566 0.75922 0.56766 0.0
O149 O 0.39028 0.74062 0.57914 0.0
O150 O 0.3587 0.71574 0.61755 0.0
O151 O 0.29021 0.72846 0.5783 0.0
O152 O 0.32404 0.76357 0.55155 0.0
C153 C 0.36449 0.6988 0.49459 0.0
O154 O 0.30567 0.66229 0.56532 0.0
O155 O 0.35887 0.65401 0.57955 0.0
In156 In 0.92484 0.83941 0.71055 0.0
O157 O 0.96075 0.88663 0.7062 0.0
O158 O 0.98268 0.83575 0.69894 0.0
C159 C 0.87269 0.87944 0.73559 0.0
C160 C 0.91054 0.81862 0.64522 0.0
C161 C 0.92751 0.79434 0.7648 0.0
O162 O 0.90405 0.88367 0.74481 0.0
O163 O 0.8679 0.85623 0.7128 0.0
O164 O 0.90214 0.79549 0.7439 0.0
O165 O 0.95263 0.81401 0.75694 0.0
C166 C 0.98752 0.86838 0.69975 0.0
O167 O 0.91665 0.79692 0.66932 0.0
O168 O 0.91204 0.8503 0.65396 0.0
In169 In 0.56849 0.14895 0.19381 0.0
O170 O 0.58912 0.18936 0.15497 0.0
O171 O 0.58035 0.13766 0.13675 0.0
C172 C 0.56213 0.19665 0.24529 0.0
C173 C 0.50324 0.12302 0.19058 0.0
C174 C 0.62215 0.10708 0.21082 0.0
O175 O 0.55297 0.20286 0.21429 0.0
O176 O 0.57362 0.16624 0.25051 0.0
O177 O 0.59326 0.09519 0.20027 0.0
O178 O 0.62419 0.13998 0.21212 0.0
C179 C 0.59009 0.1683 0.12968 0.0
O180 O 0.52659 0.10923 0.20922 0.0
O181 O 0.51257 0.14979 0.17395 0.0
In182 In 0.42514 0.63855 0.29076 0.0
O183 O 0.46813 0.59765 0.29533 0.0
O184 O 0.48167 0.65108 0.30337 0.0
C185 C 0.37191 0.59751 0.2701 0.0
C186 C 0.40682 0.66024 0.355 0.0
C187 C 0.42587 0.67719 0.23219 0.0
O188 O 0.40204 0.58521 0.27554 0.0
O189 O 0.36862 0.6296 0.27666 0.0
O190 O 0.41242 0.68793 0.26027 0.0
O191 O 0.44083 0.64788 0.23413 0.0
C192 C 0.49159 0.61965 0.30261 0.0
O193 O 0.41543 0.6813 0.33116 0.0
O194 O 0.40739 0.62841 0.34649 0.0
In195 In 0.08195 0.35453 0.80107 0.0
O196 O 0.04554 0.40142 0.80806 0.0
O197 O 0.02354 0.35016 0.8073 0.0
C198 C 0.14125 0.38634 0.7805 0.0
C199 C 0.09237 0.33164 0.86608 0.0
C200 C 0.07983 0.31337 0.74419 0.0
O201 O 0.11152 0.39677 0.7708 0.0
O202 O 0.14083 0.36219 0.8028 0.0
O203 O 0.09315 0.3032 0.77258 0.0
O204 O 0.06564 0.34304 0.7453 0.0
C205 C 0.01844 0.38262 0.80987 0.0
O206 O 0.08468 0.31109 0.84139 0.0
O207 O 0.09417 0.36362 0.85807 0.0
In208 In 0.69409 0.92871 0.85065 0.0
O209 O 0.65191 0.91698 0.81052 0.0
O210 O 0.63794 0.91703 0.8646 0.0
C211 C 0.74957 0.92766 0.80746 0.0
C212 C 0.68342 0.99481 0.8705 0.0
C213 C 0.71837 0.87542 0.88982 0.0
O214 O 0.72206 0.91067 0.8011 0.0
O215 O 0.74788 0.9474 0.83368 0.0
O216 O 0.72692 0.90671 0.89569 0.0
O217 O 0.69571 0.87153 0.86638 0.0
C218 C 0.62836 0.91276 0.83332 0.0
O219 O 0.6885 0.97062 0.89244 0.0
O220 O 0.68357 0.98557 0.83885 0.0
In221 In 0.78569 0.06033 0.3305 0.0
O222 O 0.83458 0.07123 0.29858 0.0
O223 O 0.83802 0.07563 0.35395 0.0
C224 C 0.73887 0.05058 0.27838 0.0
C225 C 0.79382 0.99651 0.35845 0.0
C226 C 0.75582 0.11697 0.35938 0.0
O227 O 0.7685 0.06415 0.2735 0.0
O228 O 0.73344 0.04175 0.30963 0.0
O229 O 0.75485 0.08741 0.37392 0.0
O230 O 0.7725 0.11817 0.33106 0.0
C231 C 0.85338 0.07773 0.32487 0.0
O232 O 0.78041 0.02154 0.37528 0.0
O233 O 0.8025 0.00351 0.32743 0.0
In234 In 0.19484 0.55908 0.15253 0.0
O235 O 0.19032 0.51726 0.11001 0.0
O236 O 0.19135 0.50077 0.16294 0.0
C237 C 0.21574 0.61329 0.113 0.0
C238 C 0.13067 0.58075 0.1722 0.0
C239 C 0.25039 0.55639 0.19545 0.0
O240 O 0.20916 0.58369 0.09991 0.0
O241 O 0.21088 0.61542 0.14552 0.0
O242 O 0.21975 0.54995 0.20583 0.0
O243 O 0.25307 0.56234 0.16313 0.0
C244 C 0.18915 0.49215 0.13131 0.0
O245 O 0.15607 0.5797 0.19304 0.0
O246 O 0.13734 0.57024 0.14179 0.0
In247 In 0.30701 0.4326 0.64416 0.0
O248 O 0.30532 0.47141 0.59863 0.0
O249 O 0.31237 0.49138 0.64999 0.0
C250 C 0.28311 0.37846 0.60554 0.0
C251 C 0.37398 0.42225 0.66228 0.0
C252 C 0.26038 0.42464 0.69624 0.0
O253 O 0.2646 0.40472 0.6127 0.0
O254 O 0.3144 0.38068 0.61537 0.0
O255 O 0.28832 0.40718 0.69466 0.0
O256 O 0.25663 0.44715 0.6725 0.0
C257 C 0.30977 0.49781 0.61785 0.0
O258 O 0.35064 0.42905 0.68461 0.0
O259 O 0.36364 0.42129 0.631 0.0
In260 In 0.84348 0.70242 0.94186 0.0
O261 O 0.88574 0.69913 0.98341 0.0
O262 O 0.83269 0.6951 -0.00018 0.0
C263 C 0.88453 0.72368 0.88893 0.0
C264 C 0.82652 0.63609 0.927 0.0
C265 C 0.79872 0.75666 0.93683 0.0
O266 O 0.89344 0.72726 0.92047 0.0
O267 O 0.85613 0.70777 0.88425 0.0
O268 O 0.79229 0.72699 0.92412 0.0
O269 O 0.82718 0.75887 0.95317 0.0
C270 C 0.86453 0.69512 0.00831 0.0
O271 O 0.80398 0.65818 0.9366 0.0
O272 O 0.85752 0.64716 0.92589 0.0
In273 In 0.34016 0.78253 0.06271 0.0
O274 O 0.3812 0.79396 0.02087 0.0
O275 O 0.32887 0.78627 0.00437 0.0
C276 C 0.38064 0.75289 0.11161 0.0
C277 C 0.32739 0.84734 0.08703 0.0
C278 C 0.29108 0.7321 0.06416 0.0
O279 O 0.38861 0.75207 0.07958 0.0
O280 O 0.35317 0.76961 0.11893 0.0
O281 O 0.28327 0.76405 0.06145 0.0
O282 O 0.32339 0.72583 0.06392 0.0
C283 C 0.35984 0.79329 0.99589 0.0
O284 O 0.30325 0.82588 0.08074 0.0
O285 O 0.35777 0.83617 0.08116 0.0
In286 In 0.1502 0.21024 0.56512 0.0
O287 O 0.1066 0.20557 0.52489 0.0
O288 O 0.15913 0.20412 0.50676 0.0
C289 C 0.11513 0.23748 0.61949 0.0
C290 C 0.16035 0.14278 0.5824 0.0
C291 C 0.20006 0.25979 0.56531 0.0
O292 O 0.10424 0.24038 0.58852 0.0
O293 O 0.14249 0.21957 0.62311 0.0
O294 O 0.20687 0.22785 0.57008 0.0
O295 O 0.16861 0.26641 0.55805 0.0
C296 C 0.1271 0.20216 0.49935 0.0
O297 O 0.18535 0.16391 0.57857 0.0
O298 O 0.13042 0.15564 0.57761 0.0
In299 In 0.63693 0.29394 0.41452 0.0
O300 O 0.6798 0.33527 0.41109 0.0
O301 O 0.62709 0.35098 0.40231 0.0
C302 C 0.67773 0.23794 0.40375 0.0
C303 C 0.62069 0.30131 0.48247 0.0
C304 C 0.59167 0.27933 0.36233 0.0
O305 O 0.68663 0.26823 0.39421 0.0
O306 O 0.64897 0.23602 0.41972 0.0
O307 O 0.58633 0.26996 0.39352 0.0
O308 O 0.61982 0.2959 0.35813 0.0
C309 C 0.65877 0.35977 0.40421 0.0
O310 O 0.59836 0.3055 0.4586 0.0
O311 O 0.65049 0.29182 0.4722 0.0
C312 C 0.07449 0.25215 0.17473 0.0
C313 C 0.09051 0.23421 0.14656 0.0
C314 C 0.0868 0.17905 0.17856 0.0
C315 C 0.06993 0.19676 0.20657 0.0
N316 N 0.0404 0.24806 0.22803 0.0
N317 N 0.10395 0.17965 0.1178 0.0
C318 C 0.06151 0.23275 0.20364 0.0
C319 C 0.09363 0.19731 0.14708 0.0
N320 N 0.07232 0.2878 0.17407 0.0
N321 N 0.09902 0.14569 0.18279 0.0
H322 H 0.11033 0.19195 0.09443 0.0
H323 H 0.10301 0.15253 0.11564 0.0
H324 H 0.09588 0.13114 0.2055 0.0
H325 H 0.11555 0.13345 0.16497 0.0
H326 H 0.06496 0.3028 0.19554 0.0
H327 H 0.07949 0.30258 0.1523 0.0
H328 H 0.03069 0.27338 0.22574 0.0
H329 H 0.02986 0.2343 0.24907 0.0
C330 C 0.39247 0.81067 0.67448 0.0
C331 C 0.4142 0.79569 0.7005 0.0
C332 C 0.41912 0.74197 0.6659 0.0
C333 C 0.39905 0.75786 0.63912 0.0
N334 N 0.37323 0.81005 0.61446 0.0
N335 N 0.45337 0.74989 0.7187 0.0
C336 C 0.38822 0.79321 0.64215 0.0
C337 C 0.4291 0.7621 0.69554 0.0
N338 N 0.37363 0.84021 0.68157 0.0
N339 N 0.42807 0.7075 0.66321 0.0
H340 H 0.46137 0.76416 0.74049 0.0
H341 H 0.46768 0.72707 0.71485 0.0
H342 H 0.42293 0.69269 0.64091 0.0
H343 H 0.43903 0.69319 0.68357 0.0
H344 H 0.35438 0.85006 0.66507 0.0
H345 H 0.37434 0.85291 0.70559 0.0
H346 H 0.36823 0.83681 0.61421 0.0
H347 H 0.36874 0.79822 0.59044 0.0
C348 C 0.57554 0.2673 0.78767 0.0
C349 C 0.59251 0.29975 0.7819 0.0
C350 C 0.62251 0.29455 0.83812 0.0
C351 C 0.60859 0.26038 0.8421 0.0
N352 N 0.57436 0.21257 0.81978 0.0
N353 N 0.63736 0.34111 0.79808 0.0
C354 C 0.5858 0.24625 0.81658 0.0
C355 C 0.6172 0.31272 0.80629 0.0
N356 N 0.5489 0.2572 0.76617 0.0
N357 N 0.64117 0.30961 0.86456 0.0
H358 H 0.63555 0.3545 0.77446 0.0
H359 H 0.65838 0.34946 0.81315 0.0
H360 H 0.64686 0.29696 0.88791 0.0
H361 H 0.64858 0.33579 0.86463 0.0
H362 H 0.53315 0.23556 0.77092 0.0
H363 H 0.54056 0.27219 0.74499 0.0
H364 H 0.56107 0.19931 0.80012 0.0
H365 H 0.57986 0.19712 0.84156 0.0
C366 C 0.94953 0.72609 0.32981 0.0
C367 C 0.93964 0.73774 0.29621 0.0
C368 C 0.90545 0.78501 0.32248 0.0
C369 C 0.90846 0.76792 0.3553 0.0
N370 N 0.93348 0.72178 0.39064 0.0
N371 N 0.92419 0.78782 0.26177 0.0
C372 C 0.93126 0.73889 0.35938 0.0
C373 C 0.92241 0.77032 0.2928 0.0
N374 N 0.97732 0.70403 0.33342 0.0
N375 N 0.8857 0.81467 0.31971 0.0
H376 H 0.9399 0.77907 0.24128 0.0
H377 H 0.91376 0.81256 0.25752 0.0
H378 H 0.87527 0.82748 0.3414 0.0
H379 H 0.87887 0.82624 0.2961 0.0
H380 H 0.98747 0.69661 0.35754 0.0
H381 H 0.99316 0.69728 0.31228 0.0
H382 H 0.94635 0.69799 0.39366 0.0
H383 H 0.92028 0.72977 0.41305 0.0
C384 C 0.20753 0.10212 0.2307 0.0
C385 C 0.21359 0.06589 0.226 0.0
C386 C 0.15999 0.05249 0.25851 0.0
C387 C 0.15222 0.08875 0.25986 0.0
N388 N 0.16452 0.14729 0.2391 0.0
N389 N 0.19444 0.00625 0.23181 0.0
C390 C 0.17495 0.11341 0.24393 0.0
C391 C 0.18942 0.04091 0.2388 0.0
N392 N 0.23274 0.12599 0.22228 0.0
N393 N 0.14007 0.02936 0.277 0.0
H394 H 0.21655 0.99692 0.21884 0.0
H395 H 0.17588 0.98708 0.23702 0.0
H396 H 0.11863 0.03706 0.29196 0.0
H397 H 0.14638 0.00305 0.27985 0.0
H398 H 0.23112 0.1523 0.22913 0.0
H399 H 0.25672 0.11932 0.21135 0.0
H400 H 0.17837 0.16513 0.22391 0.0
H401 H 0.14018 0.15681 0.2466 0.0
C402 C 0.3079 0.92314 0.77069 0.0
C403 C 0.33985 0.91719 0.75297 0.0
C404 C 0.31176 0.92872 0.69692 0.0
C405 C 0.27961 0.93515 0.71453 0.0
N406 N 0.24959 0.94792 0.7684 0.0
N407 N 0.37464 0.92568 0.70098 0.0
C408 C 0.27846 0.93532 0.75158 0.0
C409 C 0.34266 0.92426 0.71678 0.0
N410 N 0.30565 0.91663 0.80569 0.0
N411 N 0.31265 0.92355 0.66157 0.0
H412 H 0.39805 0.92165 0.71418 0.0
H413 H 0.3781 0.93428 0.67539 0.0
H414 H 0.29075 0.92411 0.64553 0.0
H415 H 0.33476 0.91465 0.64842 0.0
H416 H 0.28214 0.91616 0.81938 0.0
H417 H 0.32744 0.91031 0.8208 0.0
H418 H 0.2483 0.95147 0.79532 0.0
H419 H 0.22812 0.95813 0.75508 0.0
C420 C 0.73448 0.40218 0.73802 0.0
C421 C 0.73194 0.43098 0.76132 0.0
C422 C 0.67515 0.44674 0.73563 0.0
C423 C 0.67588 0.41507 0.71637 0.0
N424 N 0.71364 0.3763 0.6844 0.0
N425 N 0.7021 0.48316 0.78024 0.0
C426 C 0.70794 0.39703 0.71285 0.0
C427 C 0.70301 0.45425 0.75927 0.0
N428 N 0.7606 0.37802 0.74148 0.0
N429 N 0.64939 0.47059 0.72921 0.0
H430 H 0.72331 0.49099 0.79542 0.0
H431 H 0.68026 0.49902 0.78341 0.0
H432 H 0.63201 0.46781 0.70845 0.0
H433 H 0.64768 0.49495 0.7411 0.0
H434 H 0.76088 0.3545 0.72776 0.0
H435 H 0.78019 0.37951 0.76025 0.0
H436 H 0.73765 0.36466 0.67899 0.0
H437 H 0.69595 0.37511 0.66375 0.0
C438 C 0.82601 0.58812 0.25031 0.0
C439 C 0.84921 0.6118 0.26679 0.0
C440 C 0.81367 0.61124 0.31982 0.0
C441 C 0.79093 0.5866 0.30388 0.0
N442 N 0.77852 0.54657 0.257 0.0
N443 N 0.87018 0.63966 0.31918 0.0
C444 C 0.79805 0.57349 0.26998 0.0
C445 C 0.84461 0.62136 0.3022 0.0
N446 N 0.8299 0.58079 0.21559 0.0
N447 N 0.80478 0.62664 0.35082 0.0
H448 H 0.8933 0.64752 0.30708 0.0
H449 H 0.87005 0.6442 0.34599 0.0
H450 H 0.78236 0.62031 0.36479 0.0
H451 H 0.81809 0.64786 0.3614 0.0
H452 H 0.81163 0.56691 0.20103 0.0
H453 H 0.8505 0.59054 0.20065 0.0
H454 H 0.78439 0.53352 0.23388 0.0
H455 H 0.75801 0.53524 0.27092 0.0
C456 C 0.21958 0.1352 0.09254 0.0
C457 C 0.25575 0.13744 0.10033 0.0
C458 C 0.256 0.19907 0.08272 0.0
C459 C 0.21992 0.19657 0.07452 0.0
N460 N 0.17028 0.15941 0.06169 0.0
N461 N 0.31017 0.16861 0.09574 0.0
C462 C 0.20278 0.16367 0.07582 0.0
C463 C 0.27455 0.16856 0.0932 0.0
N464 N 0.20041 0.10713 0.10362 0.0
N465 N 0.27237 0.23075 0.08083 0.0
H466 H 0.32445 0.14648 0.10282 0.0
H467 H 0.3258 0.18944 0.08796 0.0
H468 H 0.26039 0.25289 0.07034 0.0
H469 H 0.29726 0.23542 0.0907 0.0
H470 H 0.17322 0.10645 0.10282 0.0
H471 H 0.21103 0.08588 0.11684 0.0
H472 H 0.15856 0.13503 0.05874 0.0
H473 H 0.15626 0.17926 0.04962 0.0
C474 C 0.74729 0.32279 0.85741 0.0
C475 C 0.76872 0.34177 0.88089 0.0
C476 C 0.7536 0.30124 0.92814 0.0
C477 C 0.73394 0.28113 0.90407 0.0
N478 N 0.71742 0.26891 0.8442 0.0
N479 N 0.79746 0.34626 0.93667 0.0
C480 C 0.73282 0.29047 0.86815 0.0
C481 C 0.77338 0.33021 0.91578 0.0
N482 N 0.73856 0.33681 0.82569 0.0
N483 N 0.75298 0.29287 0.96284 0.0
H484 H 0.81258 0.36731 0.92824 0.0
H485 H 0.80459 0.33701 0.96121 0.0
H486 H 0.74044 0.27064 0.97242 0.0
H487 H 0.76332 0.3088 0.98229 0.0
H488 H 0.71992 0.32603 0.8091 0.0
H489 H 0.74715 0.36118 0.81717 0.0
H490 H 0.71969 0.27247 0.81734 0.0
H491 H 0.70474 0.24578 0.85063 0.0
C492 C 0.78043 0.68156 0.4529 0.0
C493 C 0.76998 0.7147 0.44018 0.0
C494 C 0.7166 0.68829 0.4171 0.0
C495 C 0.73137 0.65472 0.42202 0.0
N496 N 0.77948 0.6193 0.44332 0.0
N497 N 0.72814 0.7496 0.40788 0.0
C498 C 0.76349 0.65111 0.4403 0.0
C499 C 0.73766 0.71835 0.42232 0.0
N500 N 0.80664 0.67926 0.47699 0.0
N501 N 0.6825 0.6913 0.40705 0.0
H502 H 0.7428 0.77237 0.41012 0.0
H503 H 0.70689 0.7523 0.39111 0.0
H504 H 0.66642 0.66953 0.40362 0.0
H505 H 0.66936 0.71512 0.40591 0.0
H506 H 0.81331 0.65602 0.48952 0.0
H507 H 0.81897 0.70132 0.48724 0.0
H508 H 0.80496 0.61639 0.4524 0.0
H509 H 0.76875 0.59602 0.43439 0.0
C510 C 0.26119 0.83166 0.62564 0.0
C511 C 0.23835 0.84949 0.60248 0.0
C512 C 0.25455 0.8091 0.55533 0.0
C513 C 0.27448 0.78932 0.57955 0.0
N514 N 0.29364 0.77925 0.63893 0.0
N515 N 0.20997 0.85349 0.5465 0.0
C516 C 0.27668 0.79975 0.61507 0.0
C517 C 0.23426 0.83791 0.56752 0.0
N518 N 0.26966 0.84622 0.65716 0.0
N519 N 0.25517 0.8004 0.52072 0.0
H520 H 0.19476 0.8746 0.55462 0.0
H521 H 0.20302 0.84402 0.52199 0.0
H522 H 0.26833 0.77848 0.51125 0.0
H523 H 0.24444 0.81594 0.50115 0.0
H524 H 0.28932 0.83671 0.67335 0.0
H525 H 0.2596 0.86994 0.66583 0.0
H526 H 0.29217 0.78321 0.66579 0.0
H527 H 0.30725 0.75666 0.63241 0.0
C528 C 0.90878 0.77725 0.85975 0.0
C529 C 0.90309 0.74057 0.85949 0.0
C530 C 0.91937 0.73819 0.79758 0.0
C531 C 0.92547 0.77474 0.7981 0.0
N532 N 0.93597 0.82702 0.83221 0.0
N533 N 0.91103 0.68497 0.83113 0.0
C534 C 0.92391 0.79347 0.83009 0.0
C535 C 0.91098 0.72065 0.82926 0.0
N536 N 0.89691 0.79732 0.88686 0.0
N537 N 0.92109 0.72041 0.76668 0.0
H538 H 0.90573 0.6715 0.85424 0.0
H539 H 0.91946 0.66885 0.81092 0.0
H540 H 0.92966 0.73198 0.74353 0.0
H541 H 0.91271 0.69471 0.76366 0.0
H542 H 0.89617 0.82452 0.88601 0.0
H543 H 0.88447 0.78728 0.90883 0.0
H544 H 0.93897 0.84014 0.85586 0.0
H545 H 0.94591 0.8409 0.81109 0.0
C546 C 0.5437 0.21501 0.30546 0.0
C547 C 0.56077 0.22316 0.27345 0.0
C548 C 0.58033 0.27868 0.29815 0.0
C549 C 0.57111 0.26648 0.33173 0.0
N550 N 0.52933 0.23327 0.36471 0.0
N551 N 0.59635 0.26294 0.23934 0.0
C552 C 0.5482 0.2376 0.33476 0.0
C553 C 0.57856 0.25549 0.2694 0.0
N554 N 0.52373 0.18548 0.30774 0.0
N555 N 0.58987 0.31278 0.29383 0.0
H556 H 0.597 0.24647 0.21771 0.0
H557 H 0.61306 0.28428 0.2369 0.0
H558 H 0.58888 0.33066 0.31441 0.0
H559 H 0.59421 0.32412 0.26948 0.0
H560 H 0.51364 0.17561 0.33094 0.0
H561 H 0.51749 0.17026 0.28602 0.0
H562 H 0.51129 0.2134 0.36878 0.0
H563 H 0.52867 0.2523 0.38418 0.0
C564 C 0.40233 0.67787 0.17112 0.0
C565 C 0.41998 0.69541 0.19865 0.0
C566 C 0.41618 0.75062 0.16642 0.0
C567 C 0.39948 0.73278 0.13861 0.0
N568 N 0.38495 0.67819 0.11044 0.0
N569 N 0.45061 0.74625 0.21948 0.0
C570 C 0.39566 0.69594 0.1395 0.0
C571 C 0.42907 0.73118 0.19535 0.0
N572 N 0.38923 0.64497 0.17605 0.0
N573 N 0.41909 0.78621 0.16541 0.0
H574 H 0.46091 0.73243 0.2406 0.0
H575 H 0.4608 0.77133 0.21695 0.0
H576 H 0.41191 0.80095 0.14363 0.0
H577 H 0.42707 0.80122 0.18662 0.0
H578 H 0.37252 0.63275 0.15842 0.0
H579 H 0.3919 0.63099 0.19921 0.0
H580 H 0.38524 0.65102 0.10869 0.0
H581 H 0.37905 0.69036 0.08687 0.0
C582 C 0.08508 0.23968 0.67764 0.0
C583 C 0.10037 0.2575 0.64898 0.0
C584 C 0.10199 0.31175 0.68267 0.0
C585 C 0.08512 0.29446 0.71089 0.0
N586 N 0.05462 0.24409 0.73312 0.0
N587 N 0.11661 0.31191 0.62131 0.0
C588 C 0.07493 0.25896 0.70779 0.0
C589 C 0.1063 0.29404 0.65047 0.0
N590 N 0.08066 0.20427 0.67612 0.0
N591 N 0.11638 0.34416 0.68725 0.0
H592 H 0.12156 0.30003 0.59738 0.0
H593 H 0.11725 0.33909 0.61995 0.0
H594 H 0.11499 0.35814 0.71048 0.0
H595 H 0.13299 0.35586 0.66915 0.0
H596 H 0.07373 0.18905 0.69756 0.0
H597 H 0.08552 0.18981 0.65353 0.0
H598 H 0.04352 0.21937 0.73091 0.0
H599 H 0.0463 0.2577 0.75521 0.0
C600 C 0.78671 0.92602 0.75331 0.0
C601 C 0.783 0.91978 0.78966 0.0
C602 C 0.83824 0.88748 0.79032 0.0
C603 C 0.84308 0.89546 0.75449 0.0
N604 N 0.82526 0.92653 0.70283 0.0
N605 N 0.8086 0.90038 0.84431 0.0
C606 C 0.81823 0.91599 0.73621 0.0
C607 C 0.81 0.90275 0.8087 0.0
N608 N 0.76 0.94123 0.73516 0.0
N609 N 0.85893 0.86303 0.80625 0.0
H610 H 0.78745 0.90845 0.85928 0.0
H611 H 0.82974 0.89237 0.85947 0.0
H612 H 0.87918 0.85005 0.79358 0.0
H613 H 0.85385 0.85285 0.83096 0.0
H614 H 0.75924 0.94281 0.70804 0.0
H615 H 0.73755 0.95088 0.74725 0.0
H616 H 0.80989 0.94423 0.68905 0.0
H617 H 0.8482 0.9197 0.68978 0.0
C618 C 0.68483 0.08867 0.20596 0.0
C619 C 0.65147 0.08435 0.22174 0.0
C620 C 0.67619 0.04145 0.26214 0.0
C621 C 0.71 0.05232 0.25216 0.0
N622 N 0.74584 0.07074 0.20413 0.0
N623 N 0.61511 0.05664 0.26551 0.0
C624 C 0.71427 0.0713 0.22071 0.0
C625 C 0.6468 0.06002 0.24941 0.0
N626 N 0.68829 0.10991 0.17744 0.0
N627 N 0.67233 0.01263 0.28278 0.0
H628 H 0.59282 0.07023 0.25785 0.0
H629 H 0.61156 0.04241 0.28843 0.0
H630 H 0.69362 0.99709 0.28983 0.0
H631 H 0.64817 0.00167 0.2888 0.0
H632 H 0.71217 0.11763 0.16706 0.0
H633 H 0.6669 0.12065 0.1644 0.0
H634 H 0.75079 0.08263 0.18022 0.0
H635 H 0.76615 0.05458 0.21247 0.0
C636 C 0.34478 0.55896 0.22375 0.0
C637 C 0.34219 0.57715 0.25596 0.0
C638 C 0.2786 0.57781 0.25128 0.0
C639 C 0.28091 0.5592 0.21919 0.0
N640 N 0.31533 0.52168 0.18199 0.0
N641 N 0.30709 0.59092 0.30612 0.0
C642 C 0.31377 0.5463 0.20778 0.0
C643 C 0.30914 0.58202 0.27167 0.0
N644 N 0.37617 0.5556 0.20713 0.0
N645 N 0.24839 0.59409 0.26119 0.0
H646 H 0.32931 0.59261 0.3218 0.0
H647 H 0.28354 0.59226 0.31974 0.0
H648 H 0.22564 0.59423 0.24639 0.0
H649 H 0.24705 0.61081 0.28263 0.0
H650 H 0.37846 0.54644 0.18161 0.0
H651 H 0.3997 0.56422 0.21763 0.0
H652 H 0.33845 0.50927 0.17471 0.0
H653 H 0.293 0.51083 0.17078 0.0
C654 C 0.21649 0.381 0.71656 0.0
C655 C 0.23129 0.41481 0.71971 0.0
C656 C 0.1864 0.43072 0.76269 0.0
C657 C 0.1735 0.39597 0.7615 0.0
N658 N 0.18001 0.33617 0.74141 0.0
N659 N 0.23376 0.47064 0.74856 0.0
C660 C 0.18995 0.37048 0.74003 0.0
C661 C 0.21715 0.43943 0.74354 0.0
N662 N 0.22581 0.35976 0.68937 0.0
N663 N 0.16913 0.45536 0.78194 0.0
H664 H 0.25632 0.47764 0.73498 0.0
H665 H 0.2269 0.48842 0.76795 0.0
H666 H 0.14775 0.44939 0.79775 0.0
H667 H 0.17474 0.48195 0.78087 0.0
H668 H 0.21272 0.33674 0.68311 0.0
H669 H 0.24414 0.3668 0.67061 0.0
H670 H 0.19441 0.31608 0.72997 0.0
H671 H 0.15872 0.32705 0.75558 0.0
C672 C 0.75675 0.80565 0.94996 0.0
C673 C 0.77886 0.78796 0.92608 0.0
C674 C 0.76025 0.82665 0.8788 0.0
C675 C 0.73912 0.84551 0.90285 0.0
N676 N 0.72013 0.85627 0.96186 0.0
N677 N 0.80821 0.78659 0.87034 0.0
C678 C 0.73838 0.83611 0.93871 0.0
C679 C 0.78238 0.79981 0.89122 0.0
N680 N 0.75258 0.79264 0.98295 0.0
N681 N 0.75921 0.83411 0.84387 0.0
H682 H 0.8252 0.76701 0.87842 0.0
H683 H 0.81515 0.79726 0.8463 0.0
H684 H 0.74604 0.85539 0.83336 0.0
H685 H 0.77 0.81798 0.8248 0.0
H686 H 0.73426 0.80202 0.0007 0.0
H687 H 0.76622 0.77082 0.99198 0.0
H688 H 0.72127 0.85307 0.98882 0.0
H689 H 0.7052 0.87774 0.95416 0.0
C690 C 0.21644 0.67729 0.10133 0.0
C691 C 0.22918 0.64357 0.09282 0.0
C692 C 0.27197 0.67071 0.05392 0.0
C693 C 0.26523 0.70364 0.06954 0.0
N694 N 0.23211 0.73723 0.11212 0.0
N695 N 0.27249 0.60834 0.0627 0.0
C696 C 0.23732 0.70698 0.09388 0.0
C697 C 0.25749 0.64012 0.06904 0.0
N698 N 0.18438 0.68095 0.11658 0.0
N699 N 0.29221 0.66869 0.0246 0.0
H700 H 0.26406 0.58509 0.07393 0.0
H701 H 0.29561 0.60555 0.04859 0.0
H702 H 0.30208 0.69086 0.01216 0.0
H703 H 0.2956 0.64561 0.01055 0.0
H704 H 0.17263 0.70519 0.12068 0.0
H705 H 0.16793 0.6597 0.12125 0.0
H706 H 0.21451 0.73904 0.13283 0.0
H707 H 0.24723 0.75958 0.10926 0.0
C708 C 0.2505 0.34527 0.55921 0.0
C709 C 0.26748 0.34564 0.59215 0.0
C710 C 0.24102 0.28931 0.60692 0.0
C711 C 0.2254 0.28794 0.57332 0.0
N712 N 0.22052 0.31099 0.51502 0.0
N713 N 0.28568 0.31391 0.64386 0.0
C714 C 0.23172 0.3149 0.54868 0.0
C715 C 0.26532 0.31615 0.61461 0.0
N716 N 0.25204 0.3741 0.5382 0.0
N717 N 0.23047 0.2669 0.63272 0.0
H718 H 0.30235 0.33361 0.65231 0.0
H719 H 0.28802 0.29105 0.65848 0.0
H720 H 0.21147 0.24776 0.62926 0.0
H721 H 0.23776 0.26972 0.65877 0.0
H722 H 0.23684 0.37723 0.51588 0.0
H723 H 0.2675 0.39577 0.54404 0.0
H724 H 0.22703 0.32812 0.49492 0.0
H725 H 0.20721 0.28881 0.50645 0.0
C726 C 0.72946 0.19828 0.41003 0.0
C727 C 0.69745 0.20648 0.39328 0.0
C728 C 0.70393 0.15603 0.35431 0.0
C729 C 0.73526 0.14704 0.372 0.0
N730 N 0.77642 0.1563 0.41859 0.0
N731 N 0.65203 0.1924 0.35188 0.0
C732 C 0.74759 0.16719 0.40051 0.0
C733 C 0.684 0.18506 0.36615 0.0
N734 N 0.74269 0.22056 0.43462 0.0
N735 N 0.69363 0.13712 0.32575 0.0
H736 H 0.63757 0.21461 0.35816 0.0
H737 H 0.63871 0.17574 0.33506 0.0
H738 H 0.70625 0.11441 0.31753 0.0
H739 H 0.67363 0.1446 0.30895 0.0
H740 H 0.76757 0.21833 0.44528 0.0
H741 H 0.72936 0.24274 0.44321 0.0
H742 H 0.78495 0.16761 0.44176 0.0
H743 H 0.79091 0.13431 0.41151 0.0
C744 C 0.08869 0.2126 0.44704 0.0
C745 C 0.1147 0.19244 0.4641 0.0
C746 C 0.1204 0.15549 0.41242 0.0
C747 C 0.09148 0.17279 0.39696 0.0
N748 N 0.04387 0.21387 0.40242 0.0
N749 N 0.14848 0.13906 0.46632 0.0
C750 C 0.07443 0.20038 0.41499 0.0
C751 C 0.12869 0.16228 0.44775 0.0
N752 N 0.07842 0.24392 0.46077 0.0
N753 N 0.141 0.13362 0.39308 0.0
H754 H 0.15365 0.14187 0.49288 0.0
H755 H 0.15633 0.11496 0.45633 0.0
H756 H 0.13709 0.12908 0.36656 0.0
H757 H 0.16433 0.12317 0.40245 0.0
H758 H 0.06216 0.26133 0.4476 0.0
H759 H 0.08874 0.25403 0.48386 0.0
H760 H 0.02854 0.23151 0.41638 0.0
H761 H 0.03204 0.20497 0.37957 0.0
C762 C 0.35161 0.82912 0.94178 0.0
C763 C 0.36989 0.80229 0.95971 0.0
C764 C 0.41017 0.79649 0.91032 0.0
C765 C 0.38971 0.8208 0.89117 0.0
N766 N 0.3361 0.85364 0.88573 0.0
N767 N 0.41216 0.75549 0.95847 0.0
C768 C 0.35899 0.83521 0.90604 0.0
C769 C 0.39796 0.78452 0.94326 0.0
N770 N 0.32841 0.84999 0.9592 0.0
N771 N 0.44197 0.78599 0.89791 0.0
H772 H 0.40344 0.74545 0.98224 0.0
H773 H 0.43022 0.73943 0.94593 0.0
H774 H 0.45224 0.7945 0.87418 0.0
H775 H 0.45958 0.77136 0.91262 0.0
H776 H 0.31725 0.87221 0.94811 0.0
H777 H 0.32304 0.84741 0.98576 0.0
H778 H 0.31166 0.86177 0.89455 0.0
H779 H 0.33979 0.85747 0.85903 0.0
C780 C 0.58486 0.2953 0.53721 0.0
C781 C 0.61362 0.31041 0.51938 0.0
C782 C 0.63095 0.341 0.57277 0.0
C783 C 0.60011 0.32909 0.58943 0.0
N784 N 0.54456 0.29954 0.58587 0.0
N785 N 0.65983 0.35355 0.51816 0.0
C786 C 0.57618 0.3074 0.57126 0.0
C787 C 0.63558 0.33485 0.53658 0.0
N788 N 0.56661 0.26856 0.52218 0.0
N789 N 0.65657 0.35704 0.59177 0.0
H790 H 0.66382 0.3507 0.4914 0.0
H791 H 0.6736 0.37448 0.52876 0.0
H792 H 0.65464 0.36134 0.61856 0.0
H793 H 0.68118 0.3628 0.58167 0.0
H794 H 0.54773 0.25411 0.53541 0.0
H795 H 0.57257 0.25859 0.49754 0.0
H796 H 0.5246 0.28699 0.57232 0.0
H797 H 0.537 0.30833 0.61052 0.0
C798 C 0.87129 0.7052 0.10678 0.0
C799 C 0.89756 0.68023 0.11452 0.0
C800 C 0.89992 0.66298 0.05302 0.0
C801 C 0.87615 0.69024 0.04478 0.0
N802 N 0.8445 0.74181 0.06271 0.0
N803 N 0.94217 0.64044 0.09426 0.0
C804 C 0.86325 0.71264 0.07135 0.0
C805 C 0.91338 0.6605 0.08744 0.0
N806 N 0.85301 0.7208 0.13321 0.0
N807 N 0.90852 0.63851 0.02845 0.0
H808 H 0.95344 0.63853 0.11897 0.0
H809 H 0.95693 0.62847 0.07479 0.0
H810 H 0.89886 0.63892 0.00302 0.0
H811 H 0.9226 0.61593 0.0342 0.0
H812 H 0.83105 0.73633 0.12902 0.0
H813 H 0.85768 0.71564 0.15954 0.0
H814 H 0.83759 0.76098 0.08075 0.0
H815 H 0.83873 0.7487 0.037 0.0
C816 C 0.42686 0.06264 0.17111 0.0
C817 C 0.39851 0.08543 0.17818 0.0
C818 C 0.43904 0.13025 0.19904 0.0
C819 C 0.46742 0.10907 0.18817 0.0
N820 N 0.48886 0.05703 0.1597 0.0
N821 N 0.37726 0.14272 0.19395 0.0
C822 C 0.46154 0.07565 0.17327 0.0
C823 C 0.40444 0.11969 0.19102 0.0
N824 N 0.42065 0.02833 0.1633 0.0
N825 N 0.44516 0.15997 0.21791 0.0
H826 H 0.3515 0.1362 0.18798 0.0
H827 H 0.38059 0.16918 0.19936 0.0
H828 H 0.47021 0.16831 0.22463 0.0
H829 H 0.42543 0.17454 0.22969 0.0
H830 H 0.44029 0.00957 0.16152 0.0
H831 H 0.39557 0.01783 0.16165 0.0
H832 H 0.48571 0.0344 0.14495 0.0
H833 H 0.51468 0.06564 0.1607 0.0
C834 C 0.05064 0.87359 0.71525 0.0
C835 C 0.02233 0.88382 0.69371 0.0
C836 C 0.06122 0.92214 0.66043 0.0
C837 C 0.09023 0.9083 0.67893 0.0
N838 N 0.11313 0.86594 0.71986 0.0
N839 N 0.00126 0.91367 0.64231 0.0
C840 C 0.08515 0.88285 0.70544 0.0
C841 C 0.02767 0.90715 0.66544 0.0
N842 N 0.0445 0.85577 0.74558 0.0
N843 N 0.06552 0.95022 0.63879 0.0
H844 H 0.97638 0.90285 0.64469 0.0
H845 H 0.00488 0.92729 0.61903 0.0
H846 H 0.08961 0.96226 0.63477 0.0
H847 H 0.04473 0.96366 0.6275 0.0
H848 H 0.06382 0.85078 0.76407 0.0
H849 H 0.01946 0.84906 0.75398 0.0
H850 H 0.11061 0.84452 0.73646 0.0
H851 H 0.13892 0.87089 0.71271 0.0
C852 C 0.95726 0.38698 0.78822 0.0
C853 C 0.98277 0.39708 0.81304 0.0
C854 C 0.93857 0.43087 0.84466 0.0
C855 C 0.91232 0.41633 0.8229 0.0
N856 N 0.89624 0.3752 0.7777 0.0
N857 N 0.99717 0.425 0.86773 0.0
C858 C 0.92149 0.3931 0.7955 0.0
C859 C 0.97341 0.41828 0.84196 0.0
N860 N 0.96725 0.37225 0.75726 0.0
N861 N 0.93047 0.45743 0.86711 0.0
H862 H 0.02288 0.41609 0.86694 0.0
H863 H 0.99057 0.43693 0.89128 0.0
H864 H 0.90543 0.46801 0.86907 0.0
H865 H 0.9492 0.47129 0.88114 0.0
H866 H 0.94994 0.36756 0.73681 0.0
H867 H 0.99335 0.36826 0.75053 0.0
H868 H 0.90186 0.35523 0.76008 0.0
H869 H 0.86964 0.37756 0.78301 0.0
C870 C 0.55587 0.62574 0.29222 0.0
C871 C 0.528 0.60947 0.31044 0.0
C872 C 0.56991 0.57358 0.34274 0.0
C873 C 0.59767 0.59322 0.32806 0.0
N874 N 0.61689 0.64211 0.29307 0.0
N875 N 0.50863 0.57245 0.35782 0.0
C876 C 0.59068 0.62036 0.30381 0.0
C877 C 0.53498 0.58449 0.33694 0.0
N878 N 0.54924 0.64538 0.26314 0.0
N879 N 0.57681 0.54381 0.36124 0.0
H880 H 0.48275 0.58056 0.35536 0.0
H881 H 0.513 0.55709 0.37985 0.0
H882 H 0.60205 0.53429 0.36508 0.0
H883 H 0.55741 0.52664 0.36956 0.0
H884 H 0.56884 0.65492 0.24686 0.0
H885 H 0.52415 0.64915 0.25321 0.0
H886 H 0.61246 0.6646 0.27839 0.0
H887 H 0.64266 0.63966 0.30151 0.0
C888 C 0.15662 0.39853 0.13047 0.0
C889 C 0.17419 0.38492 0.10084 0.0
C890 C 0.20507 0.44053 0.09376 0.0
C891 C 0.18397 0.4554 0.12039 0.0
N892 N 0.1337 0.45019 0.15836 0.0
N893 N 0.21016 0.39524 0.04997 0.0
C894 C 0.15807 0.43488 0.13721 0.0
C895 C 0.19714 0.40648 0.08125 0.0
N896 N 0.13961 0.37667 0.15302 0.0
N897 N 0.23349 0.45819 0.08133 0.0
H898 H 0.20417 0.37095 0.03923 0.0
H899 H 0.22406 0.41141 0.03306 0.0
H900 H 0.24096 0.48269 0.0906 0.0
H901 H 0.25167 0.44699 0.06445 0.0
H902 H 0.12927 0.38506 0.17677 0.0
H903 H 0.13924 0.34958 0.15004 0.0
H904 H 0.11224 0.43675 0.16834 0.0
H905 H 0.13258 0.47703 0.1628 0.0
C906 C 0.65171 0.0413 0.90419 0.0
C907 C 0.6788 0.03171 0.88079 0.0
C908 C 0.69339 0.0933 0.87187 0.0
C909 C 0.66887 0.10263 0.89802 0.0
N910 N 0.6294 0.08513 0.94399 0.0
N911 N 0.73035 0.04789 0.84817 0.0
C912 C 0.64926 0.07654 0.91558 0.0
C913 C 0.70106 0.05751 0.86622 0.0
N914 N 0.62746 0.01717 0.91443 0.0
N915 N 0.70834 0.11849 0.85142 0.0
H916 H 0.73761 0.0219 0.84435 0.0
H917 H 0.74933 0.06564 0.84012 0.0
H918 H 0.70271 0.14504 0.854 0.0
H919 H 0.72357 0.11279 0.8296 0.0
H920 H 0.60507 0.02365 0.92847 0.0
H921 H 0.62791 0.99122 0.90617 0.0
H922 H 0.61747 0.0666 0.95995 0.0
H923 H 0.62759 0.11053 0.95366 0.0
C924 C 0.8179 0.95839 0.40619 0.0
C925 C 0.79975 0.9616 0.37402 0.0
C926 C 0.79973 0.89796 0.36757 0.0
C927 C 0.81464 0.89469 0.40136 0.0
N928 N 0.83024 0.92173 0.45615 0.0
N929 N 0.76605 0.93424 0.32829 0.0
C930 C 0.82146 0.92489 0.42169 0.0
C931 C 0.78846 0.93131 0.35592 0.0
N932 N 0.8334 0.98689 0.42111 0.0
N933 N 0.79795 0.86971 0.34579 0.0
H934 H 0.7562 0.95814 0.31966 0.0
H935 H 0.75437 0.91274 0.31639 0.0
H936 H 0.80712 0.84498 0.3526 0.0
H937 H 0.79069 0.87164 0.31964 0.0
H938 H 0.84999 0.98513 0.4426 0.0
H939 H 0.83277 0.01176 0.41004 0.0
H940 H 0.83208 0.94305 0.47297 0.0
H941 H 0.83204 0.89768 0.46884 0.0
C942 C 0.28913 0.55978 0.61726 0.0
C943 C 0.31214 0.53385 0.60413 0.0
C944 C 0.34078 0.57772 0.56744 0.0
C945 C 0.32119 0.60427 0.58434 0.0
N946 N 0.27983 0.62126 0.62887 0.0
N947 N 0.3633 0.5187 0.5704 0.0
C948 C 0.29596 0.59554 0.61003 0.0
C949 C 0.33876 0.54285 0.57997 0.0
N950 N 0.26023 0.55016 0.63592 0.0
N951 N 0.36058 0.58564 0.53879 0.0
H952 H 0.36319 0.49295 0.57929 0.0
H953 H 0.38556 0.52498 0.55608 0.0
H954 H 0.36217 0.6108 0.5284 0.0
H955 H 0.37258 0.56676 0.52329 0.0
H956 H 0.24065 0.56762 0.64315 0.0
H957 H 0.25403 0.52413 0.64117 0.0
H958 H 0.26421 0.61627 0.65057 0.0
H959 H 0.28442 0.64781 0.62485 0.0
C960 C 0.86092 0.78365 0.56673 0.0
C961 C 0.8808 0.79878 0.53941 0.0
C962 C 0.92426 0.81908 0.58164 0.0
C963 C 0.90195 0.80825 0.60914 0.0
N964 N 0.84751 0.78307 0.62857 0.0
N965 N 0.92973 0.83363 0.52031 0.0
C966 C 0.87001 0.7909 0.60195 0.0
C967 C 0.91227 0.81693 0.54663 0.0
N968 N 0.8338 0.76176 0.55894 0.0
N969 N 0.95716 0.83081 0.58909 0.0
H970 H 0.92188 0.83264 0.49426 0.0
H971 H 0.9505 0.85065 0.52453 0.0
H972 H 0.96683 0.83241 0.61452 0.0
H973 H 0.97596 0.83586 0.5701 0.0
H974 H 0.82055 0.74707 0.5776 0.0
H975 H 0.82653 0.75581 0.53336 0.0
H976 H 0.8221 0.77427 0.62459 0.0
H977 H 0.85323 0.78775 0.65477 0.0
C978 C 0.59247 0.17336 0.0309 0.0
C979 C 0.62237 0.19459 0.02526 0.0
C980 C 0.63258 0.19682 0.08838 0.0
C981 C 0.60072 0.17874 0.09401 0.0
N982 N 0.54583 0.15824 0.0706 0.0
N983 N 0.66586 0.23354 0.04917 0.0
C984 C 0.57928 0.16953 0.06527 0.0
C985 C 0.64098 0.20844 0.05417 0.0
N986 N 0.57768 0.15518 0.00398 0.0
N987 N 0.65569 0.20144 0.11518 0.0
H988 H 0.67181 0.24384 0.02466 0.0
H989 H 0.67782 0.24681 0.06969 0.0
H990 H 0.65126 0.19223 0.14041 0.0
H991 H 0.6808 0.21126 0.11152 0.0
H992 H 0.55816 0.13658 0.00771 0.0
H993 H 0.58725 0.15565 0.97852 0.0
H994 H 0.52812 0.15446 0.05029 0.0
H995 H 0.53452 0.15647 0.09532 0.0
C996 C 0.36313 0.66004 0.40343 0.0
C997 C 0.39553 0.67188 0.39006 0.0
C998 C 0.40506 0.70578 0.44346 0.0
C999 C 0.37505 0.69004 0.45848 0.0
N1000 N 0.3301 0.64572 0.45515 0.0
N1001 N 0.45044 0.70142 0.39961 0.0
C1002 C 0.35526 0.66539 0.43915 0.0
C1003 C 0.41739 0.69361 0.41062 0.0
N1004 N 0.33919 0.64494 0.38173 0.0
N1005 N 0.42109 0.73312 0.45987 0.0
H1006 H 0.4608 0.69242 0.37609 0.0
H1007 H 0.4687 0.71408 0.4153 0.0
H1008 H 0.41229 0.74341 0.48351 0.0
H1009 H 0.44091 0.74779 0.44838 0.0
H1010 H 0.31389 0.63871 0.38959 0.0
H1011 H 0.34325 0.64248 0.35493 0.0
H1012 H 0.3175 0.62499 0.4428 0.0
H1013 H 0.32446 0.64741 0.48173 0.0
C1014 C 0.13405 0.28343 0.94222 0.0
C1015 C 0.1185 0.30131 0.97068 0.0
C1016 C 0.08092 0.33358 0.93025 0.0
C1017 C 0.09989 0.31932 0.90182 0.0
N1018 N 0.14829 0.28464 0.88071 0.0
N1019 N 0.08077 0.3473 0.99191 0.0
C1020 C 0.12735 0.29509 0.9077 0.0
C1021 C 0.09271 0.32731 0.96482 0.0
N1022 N 0.15445 0.25469 0.94812 0.0
N1023 N 0.05113 0.35235 0.92424 0.0
H1024 H 0.0892 0.34415 0.0176 0.0
H1025 H 0.06489 0.36914 0.98846 0.0
H1026 H 0.04129 0.35683 0.89923 0.0
H1027 H 0.03434 0.36044 0.94407 0.0
H1028 H 0.16353 0.23852 0.9282 0.0
H1029 H 0.15941 0.24495 0.97307 0.0
H1030 H 0.17104 0.27013 0.88428 0.0
H1031 H 0.1449 0.29305 0.85504 0.0
C1032 C 0.57263 0.92154 0.79974 0.0
C1033 C 0.59233 0.90211 0.8244 0.0
C1034 C 0.5412 0.86599 0.83721 0.0
C1035 C 0.52272 0.88283 0.80989 0.0
N1036 N 0.52325 0.92185 0.7603 0.0
N1037 N 0.59775 0.85052 0.86046 0.0
C1038 C 0.53908 0.9093 0.78973 0.0
C1039 C 0.57732 0.87278 0.8414 0.0
N1040 N 0.58518 0.95246 0.78701 0.0
N1041 N 0.52403 0.84476 0.86023 0.0
H1042 H 0.62466 0.85366 0.86311 0.0
H1043 H 0.58864 0.82689 0.87043 0.0
H1044 H 0.49723 0.84018 0.85907 0.0
H1045 H 0.53569 0.83472 0.88268 0.0
H1046 H 0.57027 0.96941 0.77181 0.0
H1047 H 0.60922 0.9629 0.79436 0.0
H1048 H 0.53564 0.93854 0.74274 0.0
H1049 H 0.49907 0.91292 0.75152 0.0
C1050 C 0.91328 0.06559 0.30127 0.0
C1051 C 0.89082 0.0868 0.32179 0.0
C1052 C 0.94063 0.12309 0.33864 0.0
C1053 C 0.96184 0.10511 0.31412 0.0
N1054 N 0.96622 0.06327 0.26698 0.0
N1055 N 0.88197 0.13998 0.35475 0.0
C1056 C 0.94768 0.07734 0.29406 0.0
C1057 C 0.90415 0.1167 0.33917 0.0
N1058 N 0.90234 0.03361 0.28975 0.0
N1059 N 0.95542 0.14539 0.36228 0.0
H1060 H 0.85489 0.13718 0.3546 0.0
H1061 H 0.89023 0.16395 0.36465 0.0
H1062 H 0.98227 0.14974 0.36374 0.0
H1063 H 0.94151 0.15654 0.38285 0.0
H1064 H 0.91896 0.01575 0.27764 0.0
H1065 H 0.87782 0.02332 0.29561 0.0
H1066 H 0.95549 0.04551 0.24937 0.0
H1067 H 0.99103 0.07185 0.25981 0.0
C1068 C 0.06563 0.57424 0.17542 0.0
C1069 C 0.09593 0.59446 0.18214 0.0
C1070 C 0.05977 0.64003 0.20881 0.0
C1071 C 0.02937 0.62173 0.19825 0.0
N1072 N 0.00332 0.57471 0.16518 0.0
N1073 N 0.12129 0.64991 0.19865 0.0
C1074 C 0.03221 0.58965 0.17988 0.0
C1075 C 0.09294 0.62826 0.19715 0.0
N1076 N 0.06867 0.53995 0.16591 0.0
N1077 N 0.05713 0.66796 0.2309 0.0
H1078 H 0.1459 0.64294 0.18928 0.0
H1079 H 0.1196 0.67609 0.20591 0.0
H1080 H 0.03334 0.67692 0.24074 0.0
H1081 H 0.07873 0.68 0.24222 0.0
H1082 H 0.04741 0.52306 0.16419 0.0
H1083 H 0.09269 0.5274 0.16318 0.0
H1084 H 0.00459 0.55335 0.14837 0.0
H1085 H 0.97842 0.58564 0.16683 0.0
C1086 C 0.43783 0.43366 0.6545 0.0
C1087 C 0.41079 0.41512 0.67173 0.0
C1088 C 0.45454 0.38215 0.70479 0.0
C1089 C 0.48124 0.39678 0.68368 0.0
N1090 N 0.49762 0.43255 0.63423 0.0
N1091 N 0.3933 0.36751 0.70942 0.0
C1092 C 0.47282 0.42172 0.65753 0.0
C1093 C 0.41904 0.38837 0.69607 0.0
N1094 N 0.43022 0.46321 0.63592 0.0
N1095 N 0.46308 0.36303 0.73372 0.0
H1096 H 0.36699 0.37032 0.70305 0.0
H1097 H 0.39842 0.34525 0.72422 0.0
H1098 H 0.48883 0.35869 0.7415 0.0
H1099 H 0.44468 0.35465 0.75194 0.0
H1100 H 0.44933 0.47966 0.62567 0.0
H1101 H 0.40499 0.47331 0.6339 0.0
H1102 H 0.49184 0.44773 0.6124 0.0
H1103 H 0.52337 0.42371 0.63461 0.0
C1104 C 0.83552 0.57175 0.9322 0.0
C1105 C 0.81757 0.60006 0.91651 0.0
C1106 C 0.78632 0.55922 0.87859 0.0
C1107 C 0.80851 0.53191 0.89018 0.0
N1108 N 0.85799 0.51321 0.9248 0.0
N1109 N 0.77913 0.62153 0.87118 0.0
C1110 C 0.83394 0.53827 0.9164 0.0
C1111 C 0.79353 0.59407 0.88894 0.0
N1112 N 0.85347 0.57671 0.96263 0.0
N1113 N 0.75791 0.55176 0.85832 0.0
H1114 H 0.78422 0.64759 0.87718 0.0
H1115 H 0.7646 0.61846 0.8484 0.0
H1116 H 0.7513 0.52635 0.85098 0.0
H1117 H 0.73895 0.57022 0.85192 0.0
H1118 H 0.86431 0.5563 0.97702 0.0
H1119 H 0.85426 0.60076 0.97543 0.0
H1120 H 0.87942 0.51802 0.94085 0.0
H1121 H 0.85859 0.48854 0.91334 0.0
C1122 C 0.30005 0.88882 0.12996 0.0
C1123 C 0.32076 0.88323 0.0997 0.0
C1124 C 0.33391 0.9457 0.09693 0.0
C1125 C 0.30992 0.95181 0.12451 0.0
N1126 N 0.26505 0.92984 0.16303 0.0
N1127 N 0.35101 0.90734 0.04981 0.0
C1128 C 0.29154 0.92356 0.13992 0.0
C1129 C 0.33592 0.91194 0.08185 0.0
N1130 N 0.28978 0.86116 0.15007 0.0
N1131 N 0.35594 0.97164 0.0861 0.0
H1132 H 0.35198 0.88325 0.03714 0.0
H1133 H 0.35924 0.92808 0.03421 0.0
H1134 H 0.35644 0.99643 0.09741 0.0
H1135 H 0.37628 0.96741 0.06851 0.0
H1136 H 0.27778 0.8641 0.17432 0.0
H1137 H 0.29627 0.83533 0.1443 0.0
H1138 H 0.24845 0.91033 0.17223 0.0
H1139 H 0.25739 0.95492 0.17043 0.0
C1140 C 0.19649 0.05011 0.58696 0.0
C1141 C 0.17446 0.03536 0.6129 0.0
C1142 C 0.14625 0.09214 0.6214 0.0
C1143 C 0.16551 0.10588 0.59288 0.0
N1144 N 0.2039 0.09569 0.5438 0.0
N1145 N 0.1229 0.0404 0.64898 0.0
C1146 C 0.18921 0.08424 0.57426 0.0
C1147 C 0.14769 0.0558 0.6284 0.0
N1148 N 0.2254 0.03242 0.57568 0.0
N1149 N 0.12798 0.11395 0.64301 0.0
H1150 H 0.12236 0.01364 0.65403 0.0
H1151 H 0.10083 0.05357 0.65796 0.0
H1152 H 0.12765 0.14102 0.64 0.0
H1153 H 0.11638 0.10559 0.66617 0.0
H1154 H 0.24429 0.04362 0.55962 0.0
H1155 H 0.23245 0.00782 0.585 0.0
H1156 H 0.21833 0.07953 0.52732 0.0
H1157 H 0.19894 0.12028 0.53322 0.0
C1158 C 0.6532 0.42313 0.41907 0.0
C1159 C 0.66992 0.39646 0.39947 0.0
C1160 C 0.70652 0.44046 0.37086 0.0
C1161 C 0.68636 0.46719 0.38675 0.0
N1162 N 0.63634 0.48392 0.42156 0.0
N1163 N 0.70886 0.37998 0.35258 0.0
C1164 C 0.6587 0.4586 0.40987 0.0
C1165 C 0.69582 0.40509 0.37438 0.0
N1166 N 0.63276 0.41469 0.44712 0.0
N1167 N 0.73639 0.44877 0.35314 0.0
H1168 H 0.70113 0.35389 0.35356 0.0
H1169 H 0.7249 0.3856 0.33133 0.0
H1170 H 0.74543 0.47436 0.35063 0.0
H1171 H 0.75398 0.4301 0.34402 0.0
H1172 H 0.62306 0.43322 0.46455 0.0
H1173 H 0.62832 0.38903 0.4551 0.0
H1174 H 0.61341 0.47837 0.43511 0.0
H1175 H 0.63872 0.51023 0.41501 0.0
loop_
_geom_bond_atom_site_label_1
_geom_bond_atom_site_label_2
_geom_bond_distance
_geom_bond_site_symmetry_2
_ccdc_geom_bond_type
In0 O1 2.294 . S
In0 O2 2.326 . S
In0 O6 2.266 . S
In0 O7 2.326 . S
In0 O8 2.266 . S
In0 O9 2.326 . S
In0 O11 2.294 . S
In0 O12 2.326 . S
O1 In0 2.294 . S
O1 C10 1.240 . S
O2 In0 2.326 . S
O2 C10 1.252 . S
C3 O6 1.252 . S
C3 O7 1.260 . S
C4 O11 1.240 . S
C4 O12 1.252 . S
C5 O8 1.252 . S
C5 O9 1.260 . S
O6 In0 2.266 . S
O6 C3 1.252 . S
O7 In0 2.326 . S
O7 C3 1.260 . S
O8 In0 2.266 . S
O8 C5 1.252 . S
O9 In0 2.326 . S
O9 C5 1.260 . S
C10 O1 1.240 . S
C10 O2 1.252 . S
O11 In0 2.294 . S
O11 C4 1.240 . S
O12 In0 2.326 . S
O12 C4 1.252 . S
In13 O14 2.294 . S
In13 O15 2.326 . S
In13 O19 2.266 . S
In13 O20 2.326 . S
In13 O21 2.266 . S
In13 O22 2.326 . S
In13 O24 2.294 . S
In13 O25 2.326 . S
O14 In13 2.294 . S
O14 C23 1.240 . S
O15 In13 2.326 . S
O15 C23 1.252 . S
C16 O19 1.252 . S
C16 O20 1.260 . S
C17 O24 1.240 . S
C17 O25 1.252 . S
C18 O21 1.252 . S
C18 O22 1.260 . S
O19 In13 2.266 . S
O19 C16 1.252 . S
O20 In13 2.326 . S
O20 C16 1.260 . S
O21 In13 2.266 . S
O21 C18 1.252 . S
O22 In13 2.326 . S
O22 C18 1.260 . S
C23 O14 1.240 . S
C23 O15 1.252 . S
O24 In13 2.294 . S
O24 C17 1.240 . S
O25 In13 2.326 . S
O25 C17 1.252 . S
In26 O27 2.294 . S
In26 O28 2.326 . S
In26 O32 2.266 . S
In26 O33 2.326 . S
In26 O34 2.266 . S
In26 O35 2.326 . S
In26 O37 2.294 . S
In26 O38 2.326 . S
O27 In26 2.294 . S
O27 C36 1.240 . S
O28 In26 2.326 . S
O28 C36 1.252 . S
C29 O32 1.252 . S
C29 O33 1.260 . S
C30 O37 1.240 . S
C30 O38 1.252 . S
C31 O34 1.252 . S
C31 O35 1.260 . S
O32 In26 2.266 . S
O32 C29 1.252 . S
O33 In26 2.326 . S
O33 C29 1.260 . S
O34 In26 2.266 . S
O34 C31 1.252 . S
O35 In26 2.326 . S
O35 C31 1.260 . S
C36 O27 1.240 . S
C36 O28 1.252 . S
O37 In26 2.294 . S
O37 C30 1.240 . S
O38 In26 2.326 . S
O38 C30 1.252 . S
In39 O40 2.294 . S
In39 O41 2.326 . S
In39 O45 2.266 . S
In39 O46 2.326 . S
In39 O47 2.266 . S
In39 O48 2.326 . S
In39 O50 2.294 . S
In39 O51 2.326 . S
O40 In39 2.294 . S
O40 C49 1.240 . S
O41 In39 2.326 . S
O41 C49 1.252 . S
C42 O45 1.252 . S
C42 O46 1.260 . S
C43 O50 1.240 . S
C43 O51 1.252 . S
C44 O47 1.252 . S
C44 O48 1.260 . S
O45 In39 2.266 . S
O45 C42 1.252 . S
O46 In39 2.326 . S
O46 C42 1.260 . S
O47 In39 2.266 . S
O47 C44 1.252 . S
O48 In39 2.326 . S
O48 C44 1.260 . S
C49 O40 1.240 . S
C49 O41 1.252 . S
O50 In39 2.294 . S
O50 C43 1.240 . S
O51 In39 2.326 . S
O51 C43 1.252 . S
In52 O53 2.294 . S
In52 O54 2.326 . S
In52 O58 2.266 . S
In52 O59 2.326 . S
In52 O60 2.266 . S
In52 O61 2.326 . S
In52 O63 2.294 . S
In52 O64 2.326 . S
O53 In52 2.294 . S
O53 C62 1.240 . S
O54 In52 2.326 . S
O54 C62 1.252 . S
C55 O58 1.252 . S
C55 O59 1.260 . S
C56 O63 1.240 . S
C56 O64 1.252 . S
C57 O60 1.252 . S
C57 O61 1.260 . S
O58 In52 2.266 . S
O58 C55 1.252 . S
O59 In52 2.326 . S
O59 C55 1.260 . S
O60 In52 2.266 . S
O60 C57 1.252 . S
O61 In52 2.326 . S
O61 C57 1.260 . S
C62 O53 1.240 . S
C62 O54 1.252 . S
O63 In52 2.294 . S
O63 C56 1.240 . S
O64 In52 2.326 . S
O64 C56 1.252 . S
In65 O66 2.294 . S
In65 O67 2.326 . S
In65 O71 2.266 . S
In65 O72 2.326 . S
In65 O73 2.266 . S
In65 O74 2.326 . S
In65 O76 2.294 . S
In65 O77 2.326 . S
O66 In65 2.294 . S
O66 C75 1.240 . S
O67 In65 2.326 . S
O67 C75 1.252 . S
C68 O71 1.252 . S
C68 O72 1.260 . S
C69 O76 1.240 . S
C69 O77 1.252 . S
C70 O73 1.252 . S
C70 O74 1.260 . S
O71 In65 2.266 . S
O71 C68 1.252 . S
O72 In65 2.326 . S
O72 C68 1.260 . S
O73 In65 2.266 . S
O73 C70 1.252 . S
O74 In65 2.326 . S
O74 C70 1.260 . S
C75 O66 1.240 . S
C75 O67 1.252 . S
O76 In65 2.294 . S
O76 C69 1.240 . S
O77 In65 2.326 . S
O77 C69 1.252 . S
In78 O79 2.294 . S
In78 O80 2.326 . S
In78 O84 2.266 . S
In78 O85 2.326 . S
In78 O86 2.266 . S
In78 O87 2.326 . S
In78 O89 2.294 . S
In78 O90 2.326 . S
O79 In78 2.294 . S
O79 C88 1.240 . S
O80 In78 2.326 . S
O80 C88 1.252 . S
C81 O84 1.252 . S
C81 O85 1.260 . S
C82 O89 1.240 . S
C82 O90 1.252 . S
C83 O86 1.252 . S
C83 O87 1.260 . S
O84 In78 2.266 . S
O84 C81 1.252 . S
O85 In78 2.326 . S
O85 C81 1.260 . S
O86 In78 2.266 . S
O86 C83 1.252 . S
O87 In78 2.326 . S
O87 C83 1.260 . S
C88 O79 1.240 . S
C88 O80 1.252 . S
O89 In78 2.294 . S
O89 C82 1.240 . S
O90 In78 2.326 . S
O90 C82 1.252 . S
In91 O92 2.294 . S
In91 O93 2.326 . S
In91 O97 2.266 . S
In91 O98 2.326 . S
In91 O99 2.266 . S
In91 O100 2.326 . S
In91 O102 2.294 . S
In91 O103 2.326 . S
O92 In91 2.294 . S
O92 C101 1.240 . S
O93 In91 2.326 . S
O93 C101 1.252 . S
C94 O97 1.252 . S
C94 O98 1.260 . S
C95 O102 1.240 . S
C95 O103 1.252 . S
C96 O99 1.252 . S
C96 O100 1.260 . S
O97 In91 2.266 . S
O97 C94 1.252 . S
O98 In91 2.326 . S
O98 C94 1.260 . S
O99 In91 2.266 . S
O99 C96 1.252 . S
O100 In91 2.326 . S
O100 C96 1.260 . S
C101 O92 1.240 . S
C101 O93 1.252 . S
O102 In91 2.294 . S
O102 C95 1.240 . S
O103 In91 2.326 . S
O103 C95 1.252 . S
In104 O105 2.294 . S
In104 O106 2.326 . S
In104 O110 2.266 . S
In104 O111 2.326 . S
In104 O112 2.266 . S
In104 O113 2.326 . S
In104 O115 2.294 . S
In104 O116 2.326 . S
O105 In104 2.294 . S
O105 C114 1.240 . S
O106 In104 2.326 . S
O106 C114 1.252 . S
C107 O110 1.252 . S
C107 O111 1.260 . S
C108 O115 1.240 . S
C108 O116 1.252 . S
C109 O112 1.252 . S
C109 O113 1.260 . S
O110 In104 2.266 . S
O110 C107 1.252 . S
O111 In104 2.326 . S
O111 C107 1.260 . S
O112 In104 2.266 . S
O112 C109 1.252 . S
O113 In104 2.326 . S
O113 C109 1.260 . S
C114 O105 1.240 . S
C114 O106 1.252 . S
O115 In104 2.294 . S
O115 C108 1.240 . S
O116 In104 2.326 . S
O116 C108 1.252 . S
In117 O118 2.294 . S
In117 O119 2.326 . S
In117 O123 2.266 . S
In117 O124 2.326 . S
In117 O125 2.266 . S
In117 O126 2.326 . S
In117 O128 2.294 . S
In117 O129 2.326 . S
O118 In117 2.294 . S
O118 C127 1.240 . S
O119 In117 2.326 . S
O119 C127 1.252 . S
C120 O123 1.252 . S
C120 O124 1.260 . S
C121 O128 1.240 . S
C121 O129 1.252 . S
C122 O125 1.252 . S
C122 O126 1.260 . S
O123 In117 2.266 . S
O123 C120 1.252 . S
O124 In117 2.326 . S
O124 C120 1.260 . S
O125 In117 2.266 . S
O125 C122 1.252 . S
O126 In117 2.326 . S
O126 C122 1.260 . S
C127 O118 1.240 . S
C127 O119 1.252 . S
O128 In117 2.294 . S
O128 C121 1.240 . S
O129 In117 2.326 . S
O129 C121 1.252 . S
In130 O131 2.294 . S
In130 O132 2.326 . S
In130 O136 2.266 . S
In130 O137 2.326 . S
In130 O138 2.266 . S
In130 O139 2.326 . S
In130 O141 2.294 . S
In130 O142 2.326 . S
O131 In130 2.294 . S
O131 C140 1.240 . S
O132 In130 2.326 . S
O132 C140 1.252 . S
C133 O136 1.252 . S
C133 O137 1.260 . S
C134 O141 1.240 . S
C134 O142 1.252 . S
C135 O138 1.252 . S
C135 O139 1.260 . S
O136 In130 2.266 . S
O136 C133 1.252 . S
O137 In130 2.326 . S
O137 C133 1.260 . S
O138 In130 2.266 . S
O138 C135 1.252 . S
O139 In130 2.326 . S
O139 C135 1.260 . S
C140 O131 1.240 . S
C140 O132 1.252 . S
O141 In130 2.294 . S
O141 C134 1.240 . S
O142 In130 2.326 . S
O142 C134 1.252 . S
In143 O144 2.294 . S
In143 O145 2.326 . S
In143 O149 2.266 . S
In143 O150 2.326 . S
In143 O151 2.266 . S
In143 O152 2.326 . S
In143 O154 2.294 . S
In143 O155 2.326 . S
O144 In143 2.294 . S
O144 C153 1.240 . S
O145 In143 2.326 . S
O145 C153 1.252 . S
C146 O149 1.252 . S
C146 O150 1.260 . S
C147 O154 1.240 . S
C147 O155 1.252 . S
C148 O151 1.252 . S
C148 O152 1.260 . S
O149 In143 2.266 . S
O149 C146 1.252 . S
O150 In143 2.326 . S
O150 C146 1.260 . S
O151 In143 2.266 . S
O151 C148 1.252 . S
O152 In143 2.326 . S
O152 C148 1.260 . S
C153 O144 1.240 . S
C153 O145 1.252 . S
O154 In143 2.294 . S
O154 C147 1.240 . S
O155 In143 2.326 . S
O155 C147 1.252 . S
In156 O157 2.294 . S
In156 O158 2.326 . S
In156 O162 2.266 . S
In156 O163 2.326 . S
In156 O164 2.266 . S
In156 O165 2.326 . S
In156 O167 2.294 . S
In156 O168 2.326 . S
O157 In156 2.294 . S
O157 C166 1.240 . S
O158 In156 2.326 . S
O158 C166 1.252 . S
C159 O162 1.252 . S
C159 O163 1.260 . S
C160 O167 1.240 . S
C160 O168 1.252 . S
C161 O164 1.252 . S
C161 O165 1.260 . S
O162 In156 2.266 . S
O162 C159 1.252 . S
O163 In156 2.326 . S
O163 C159 1.260 . S
O164 In156 2.266 . S
O164 C161 1.252 . S
O165 In156 2.326 . S
O165 C161 1.260 . S
C166 O157 1.240 . S
C166 O158 1.252 . S
O167 In156 2.294 . S
O167 C160 1.240 . S
O168 In156 2.326 . S
O168 C160 1.252 . S
In169 O170 2.294 . S
In169 O171 2.326 . S
In169 O175 2.266 . S
In169 O176 2.326 . S
In169 O177 2.266 . S
In169 O178 2.326 . S
In169 O180 2.294 . S
In169 O181 2.326 . S
O170 In169 2.294 . S
O170 C179 1.240 . S
O171 In169 2.326 . S
O171 C179 1.252 . S
C172 O175 1.252 . S
C172 O176 1.260 . S
C173 O180 1.240 . S
C173 O181 1.252 . S
C174 O177 1.252 . S
C174 O178 1.260 . S
O175 In169 2.266 . S
O175 C172 1.252 . S
O176 In169 2.326 . S
O176 C172 1.260 . S
O177 In169 2.266 . S
O177 C174 1.252 . S
O178 In169 2.326 . S
O178 C174 1.260 . S
C179 O170 1.240 . S
C179 O171 1.252 . S
O180 In169 2.294 . S
O180 C173 1.240 . S
O181 In169 2.326 . S
O181 C173 1.252 . S
In182 O183 2.294 . S
In182 O184 2.326 . S
In182 O188 2.266 . S
In182 O189 2.326 . S
In182 O190 2.266 . S
In182 O191 2.326 . S
In182 O193 2.294 . S
In182 O194 2.326 . S
O183 In182 2.294 . S
O183 C192 1.240 . S
O184 In182 2.326 . S
O184 C192 1.252 . S
C185 O188 1.252 . S
C185 O189 1.260 . S
C186 O193 1.240 . S
C186 O194 1.252 . S
C187 O190 1.252 . S
C187 O191 1.260 . S
O188 In182 2.266 . S
O188 C185 1.252 . S
O189 In182 2.326 . S
O189 C185 1.260 . S
O190 In182 2.266 . S
O190 C187 1.252 . S
O191 In182 2.326 . S
O191 C187 1.260 . S
C192 O183 1.240 . S
C192 O184 1.252 . S
O193 In182 2.294 . S
O193 C186 1.240 . S
O194 In182 2.326 . S
O194 C186 1.252 . S
In195 O196 2.294 . S
In195 O197 2.326 . S
In195 O201 2.266 . S
In195 O202 2.326 . S
In195 O203 2.266 . S
In195 O204 2.326 . S
In195 O206 2.294 . S
In195 O207 2.326 . S
O196 In195 2.294 . S
O196 C205 1.240 . S
O197 In195 2.326 . S
O197 C205 1.252 . S
C198 O201 1.252 . S
C198 O202 1.260 . S
C199 O206 1.240 . S
C199 O207 1.252 . S
C200 O203 1.252 . S
C200 O204 1.260 . S
O201 In195 2.266 . S
O201 C198 1.252 . S
O202 In195 2.326 . S
O202 C198 1.260 . S
O203 In195 2.266 . S
O203 C200 1.252 . S
O204 In195 2.326 . S
O204 C200 1.260 . S
C205 O196 1.240 . S
C205 O197 1.252 . S
O206 In195 2.294 . S
O206 C199 1.240 . S
O207 In195 2.326 . S
O207 C199 1.252 . S
In208 O209 2.294 . S
In208 O210 2.326 . S
In208 O214 2.266 . S
In208 O215 2.326 . S
In208 O216 2.266 . S
In208 O217 2.326 . S
In208 O219 2.294 . S
In208 O220 2.326 . S
O209 In208 2.294 . S
O209 C218 1.240 . S
O210 In208 2.326 . S
O210 C218 1.252 . S
C211 O214 1.252 . S
C211 O215 1.260 . S
C212 O219 1.240 . S
C212 O220 1.252 . S
C213 O216 1.252 . S
C213 O217 1.260 . S
O214 In208 2.266 . S
O214 C211 1.252 . S
O215 In208 2.326 . S
O215 C211 1.260 . S
O216 In208 2.266 . S
O216 C213 1.252 . S
O217 In208 2.326 . S
O217 C213 1.260 . S
C218 O209 1.240 . S
C218 O210 1.252 . S
O219 In208 2.294 . S
O219 C212 1.240 . S
O220 In208 2.326 . S
O220 C212 1.252 . S
In221 O222 2.294 . S
In221 O223 2.326 . S
In221 O227 2.266 . S
In221 O228 2.326 . S
In221 O229 2.266 . S
In221 O230 2.326 . S
In221 O232 2.294 . S
In221 O233 2.326 . S
O222 In221 2.294 . S
O222 C231 1.240 . S
O223 In221 2.326 . S
O223 C231 1.252 . S
C224 O227 1.252 . S
C224 O228 1.260 . S
C225 O232 1.240 . S
C225 O233 1.252 . S
C226 O229 1.252 . S
C226 O230 1.260 . S
O227 In221 2.266 . S
O227 C224 1.252 . S
O228 In221 2.326 . S
O228 C224 1.260 . S
O229 In221 2.266 . S
O229 C226 1.252 . S
O230 In221 2.326 . S
O230 C226 1.260 . S
C231 O222 1.240 . S
C231 O223 1.252 . S
O232 In221 2.294 . S
O232 C225 1.240 . S
O233 In221 2.326 . S
O233 C225 1.252 . S
In234 O235 2.294 . S
In234 O236 2.326 . S
In234 O240 2.266 . S
In234 O241 2.326 . S
In234 O242 2.266 . S
In234 O243 2.326 . S
In234 O245 2.294 . S
In234 O246 2.326 . S
O235 In234 2.294 . S
O235 C244 1.240 . S
O236 In234 2.326 . S
O236 C244 1.252 . S
C237 O240 1.252 . S
C237 O241 1.260 . S
C238 O245 1.240 . S
C238 O246 1.252 . S
C239 O242 1.252 . S
C239 O243 1.260 . S
O240 In234 2.266 . S
O240 C237 1.252 . S
O241 In234 2.326 . S
O241 C237 1.260 . S
O242 In234 2.266 . S
O242 C239 1.252 . S
O243 In234 2.326 . S
O243 C239 1.260 . S
C244 O235 1.240 . S
C244 O236 1.252 . S
O245 In234 2.294 . S
O245 C238 1.240 . S
O246 In234 2.326 . S
O246 C238 1.252 . S
In247 O248 2.294 . S
In247 O249 2.326 . S
In247 O253 2.266 . S
In247 O254 2.326 . S
In247 O255 2.266 . S
In247 O256 2.326 . S
In247 O258 2.294 . S
In247 O259 2.326 . S
O248 In247 2.294 . S
O248 C257 1.240 . S
O249 In247 2.326 . S
O249 C257 1.252 . S
C250 O253 1.252 . S
C250 O254 1.260 . S
C251 O258 1.240 . S
C251 O259 1.252 . S
C252 O255 1.252 . S
C252 O256 1.260 . S
O253 In247 2.266 . S
O253 C250 1.252 . S
O254 In247 2.326 . S
O254 C250 1.260 . S
O255 In247 2.266 . S
O255 C252 1.252 . S
O256 In247 2.326 . S
O256 C252 1.260 . S
C257 O248 1.240 . S
C257 O249 1.252 . S
O258 In247 2.294 . S
O258 C251 1.240 . S
O259 In247 2.326 . S
O259 C251 1.252 . S
In260 O261 2.294 . S
In260 O262 2.326 . S
In260 O266 2.266 . S
In260 O267 2.326 . S
In260 O268 2.266 . S
In260 O269 2.326 . S
In260 O271 2.294 . S
In260 O272 2.326 . S
O261 In260 2.294 . S
O261 C270 1.240 . S
O262 In260 2.326 . S
O262 C270 1.252 . S
C263 O266 1.252 . S
C263 O267 1.260 . S
C264 O271 1.240 . S
C264 O272 1.252 . S
C265 O268 1.252 . S
C265 O269 1.260 . S
O266 In260 2.266 . S
O266 C263 1.252 . S
O267 In260 2.326 . S
O267 C263 1.260 . S
O268 In260 2.266 . S
O268 C265 1.252 . S
O269 In260 2.326 . S
O269 C265 1.260 . S
C270 O261 1.240 . S
C270 O262 1.252 . S
O271 In260 2.294 . S
O271 C264 1.240 . S
O272 In260 2.326 . S
O272 C264 1.252 . S
In273 O274 2.294 . S
In273 O275 2.326 . S
In273 O279 2.266 . S
In273 O280 2.326 . S
In273 O281 2.266 . S
In273 O282 2.326 . S
In273 O284 2.294 . S
In273 O285 2.326 . S
O274 In273 2.294 . S
O274 C283 1.240 . S
O275 In273 2.326 . S
O275 C283 1.252 . S
C276 O279 1.252 . S
C276 O280 1.260 . S
C277 O284 1.240 . S
C277 O285 1.252 . S
C278 O281 1.252 . S
C278 O282 1.260 . S
O279 In273 2.266 . S
O279 C276 1.252 . S
O280 In273 2.326 . S
O280 C276 1.260 . S
O281 In273 2.266 . S
O281 C278 1.252 . S
O282 In273 2.326 . S
O282 C278 1.260 . S
C283 O274 1.240 . S
C283 O275 1.252 . S
O284 In273 2.294 . S
O284 C277 1.240 . S
O285 In273 2.326 . S
O285 C277 1.252 . S
In286 O287 2.294 . S
In286 O288 2.326 . S
In286 O292 2.266 . S
In286 O293 2.326 . S
In286 O294 2.266 . S
In286 O295 2.326 . S
In286 O297 2.294 . S
In286 O298 2.326 . S
O287 In286 2.294 . S
O287 C296 1.240 . S
O288 In286 2.326 . S
O288 C296 1.252 . S
C289 O292 1.252 . S
C289 O293 1.260 . S
C290 O297 1.240 . S
C290 O298 1.252 . S
C291 O294 1.252 . S
C291 O295 1.260 . S
O292 In286 2.266 . S
O292 C289 1.252 . S
O293 In286 2.326 . S
O293 C289 1.260 . S
O294 In286 2.266 . S
O294 C291 1.252 . S
O295 In286 2.326 . S
O295 C291 1.260 . S
C296 O287 1.240 . S
C296 O288 1.252 . S
O297 In286 2.294 . S
O297 C290 1.240 . S
O298 In286 2.326 . S
O298 C290 1.252 . S
In299 O300 2.294 . S
In299 O301 2.326 . S
In299 O305 2.266 . S
In299 O306 2.326 . S
In299 O307 2.266 . S
In299 O308 2.326 . S
In299 O310 2.294 . S
In299 O311 2.326 . S
O300 In299 2.294 . S
O300 C309 1.240 . S
O301 In299 2.326 . S
O301 C309 1.252 . S
C302 O305 1.252 . S
C302 O306 1.260 . S
C303 O310 1.240 . S
C303 O311 1.252 . S
C304 O307 1.252 . S
C304 O308 1.260 . S
O305 In299 2.266 . S
O305 C302 1.252 . S
O306 In299 2.326 . S
O306 C302 1.260 . S
O307 In299 2.266 . S
O307 C304 1.252 . S
O308 In299 2.326 . S
O308 C304 1.260 . S
C309 O300 1.240 . S
C309 O301 1.252 . S
O310 In299 2.294 . S
O310 C303 1.240 . S
O311 In299 2.326 . S
O311 C303 1.252 . S
C312 C313 1.363 . S
C312 C318 1.379 . S
C312 N320 1.356 . S
C313 C312 1.363 . S
C313 C319 1.363 . S
C314 C315 1.363 . S
C314 C319 1.379 . S
C314 N321 1.356 . S
C315 C314 1.363 . S
C315 C318 1.363 . S
N316 C318 1.356 . S
N316 H328 0.984 . S
N316 H329 0.985 . S
N317 C319 1.356 . S
N317 H322 0.984 . S
N317 H323 0.985 . S
C318 C312 1.379 . S
C318 C315 1.363 . S
C318 N316 1.356 . S
C319 C313 1.363 . S
C319 C314 1.379 . S
C319 N317 1.356 . S
N320 C312 1.356 . S
N320 H326 0.984 . S
N320 H327 0.984 . S
N321 C314 1.356 . S
N321 H324 0.984 . S
N321 H325 0.985 . S
H322 N317 0.984 . S
H323 N317 0.985 . S
H324 N321 0.984 . S
H325 N321 0.985 . S
H326 N320 0.984 . S
H327 N320 0.984 . S
H328 N316 0.984 . S
H329 N316 0.985 . S
C330 C331 1.363 . S
C330 C336 1.379 . S
C330 N338 1.356 . S
C331 C330 1.363 . S
C331 C337 1.363 . S
C332 C333 1.363 . S
C332 C337 1.379 . S
C332 N339 1.356 . S
C333 C332 1.363 . S
C333 C336 1.363 . S
N334 C336 1.356 . S
N334 H346 0.984 . S
N334 H347 0.985 . S
N335 C337 1.356 . S
N335 H340 0.984 . S
N335 H341 0.985 . S
C336 C330 1.379 . S
C336 C333 1.363 . S
C336 N334 1.356 . S
C337 C331 1.363 . S
C337 C332 1.379 . S
C337 N335 1.356 . S
N338 C330 1.356 . S
N338 H344 0.984 . S
N338 H345 0.984 . S
N339 C332 1.356 . S
N339 H342 0.984 . S
N339 H343 0.985 . S
H340 N335 0.984 . S
H341 N335 0.985 . S
H342 N339 0.984 . S
H343 N339 0.985 . S
H344 N338 0.984 . S
H345 N338 0.984 . S
H346 N334 0.984 . S
H347 N334 0.985 . S
C348 C349 1.363 . S
C348 C354 1.379 . S
C348 N356 1.356 . S
C349 C348 1.363 . S
C349 C355 1.363 . S
C350 C351 1.363 . S
C350 C355 1.379 . S
C350 N357 1.356 . S
C351 C350 1.363 . S
C351 C354 1.363 . S
N352 C354 1.356 . S
N352 H364 0.984 . S
N352 H365 0.985 . S
N353 C355 1.356 . S
N353 H358 0.984 . S
N353 H359 0.985 . S
C354 C348 1.379 . S
C354 C351 1.363 . S
C354 N352 1.356 . S
C355 C349 1.363 . S
C355 C350 1.379 . S
C355 N353 1.356 . S
N356 C348 1.356 . S
N356 H362 0.984 . S
N356 H363 0.984 . S
N357 C350 1.356 . S
N357 H360 0.984 . S
N357 H361 0.985 . S
H358 N353 0.984 . S
H359 N353 0.985 . S
H360 N357 0.984 . S
H361 N357 0.985 . S
H362 N356 0.984 . S
H363 N356 0.984 . S
H364 N352 0.984 . S
H365 N352 0.985 . S
C366 C367 1.363 . S
C366 C372 1.379 . S
C366 N374 1.356 . S
C367 C366 1.363 . S
C367 C373 1.363 . S
C368 C369 1.363 . S
C368 C373 1.379 . S
C368 N375 1.356 . S
C369 C368 1.363 . S
C369 C372 1.363 . S
N370 C372 1.356 . S
N370 H382 0.984 . S
N370 H383 0.985 . S
N371 C373 1.356 . S
N371 H376 0.984 . S
N371 H377 0.985 . S
C372 C366 1.379 . S
C372 C369 1.363 . S
C372 N370 1.356 . S
C373 C367 1.363 . S
C373 C368 1.379 . S
C373 N371 1.356 . S
N374 C366 1.356 . S
N374 H380 0.984 . S
N374 H381 0.984 . S
N375 C368 1.356 . S
N375 H378 0.984 . S
N375 H379 0.985 . S
H376 N371 0.984 . S
H377 N371 0.985 . S
H378 N375 0.984 . S
H379 N375 0.985 . S
H380 N374 0.984 . S
H381 N374 0.984 . S
H382 N370 0.984 . S
H383 N370 0.985 . S
C384 C385 1.363 . S
C384 C390 1.379 . S
C384 N392 1.356 . S
C385 C384 1.363 . S
C385 C391 1.363 . S
C386 C387 1.363 . S
C386 C391 1.379 . S
C386 N393 1.356 . S
C387 C386 1.363 . S
C387 C390 1.363 . S
N388 C390 1.356 . S
N388 H400 0.984 . S
N388 H401 0.985 . S
N389 C391 1.356 . S
N389 H394 0.984 . S
N389 H395 0.985 . S
C390 C384 1.379 . S
C390 C387 1.363 . S
C390 N388 1.356 . S
C391 C385 1.363 . S
C391 C386 1.379 . S
C391 N389 1.356 . S
N392 C384 1.356 . S
N392 H398 0.984 . S
N392 H399 0.984 . S
N393 C386 1.356 . S
N393 H396 0.984 . S
N393 H397 0.985 . S
H394 N389 0.984 . S
H395 N389 0.985 . S
H396 N393 0.984 . S
H397 N393 0.985 . S
H398 N392 0.984 . S
H399 N392 0.984 . S
H400 N388 0.984 . S
H401 N388 0.985 . S
C402 C403 1.363 . S
C402 C408 1.379 . S
C402 N410 1.356 . S
C403 C402 1.363 . S
C403 C409 1.363 . S
C404 C405 1.363 . S
C404 C409 1.379 . S
C404 N411 1.356 . S
C405 C404 1.363 . S
C405 C408 1.363 . S
N406 C408 1.356 . S
N406 H418 0.984 . S
N406 H419 0.985 . S
N407 C409 1.356 . S
N407 H412 0.984 . S
N407 H413 0.985 . S
C408 C402 1.379 . S
C408 C405 1.363 . S
C408 N406 1.356 . S
C409 C403 1.363 . S
C409 C404 1.379 . S
C409 N407 1.356 . S
N410 C402 1.356 . S
N410 H416 0.984 . S
N410 H417 0.984 . S
N411 C404 1.356 . S
N411 H414 0.984 . S
N411 H415 0.985 . S
H412 N407 0.984 . S
H413 N407 0.985 . S
H414 N411 0.984 . S
H415 N411 0.985 . S
H416 N410 0.984 . S
H417 N410 0.984 . S
H418 N406 0.984 . S
H419 N406 0.985 . S
C420 C421 1.363 . S
C420 C426 1.379 . S
C420 N428 1.356 . S
C421 C420 1.363 . S
C421 C427 1.363 . S
C422 C423 1.363 . S
C422 C427 1.379 . S
C422 N429 1.356 . S
C423 C422 1.363 . S
C423 C426 1.363 . S
N424 C426 1.356 . S
N424 H436 0.984 . S
N424 H437 0.985 . S
N425 C427 1.356 . S
N425 H430 0.984 . S
N425 H431 0.985 . S
C426 C420 1.379 . S
C426 C423 1.363 . S
C426 N424 1.356 . S
C427 C421 1.363 . S
C427 C422 1.379 . S
C427 N425 1.356 . S
N428 C420 1.356 . S
N428 H434 0.984 . S
N428 H435 0.984 . S
N429 C422 1.356 . S
N429 H432 0.984 . S
N429 H433 0.985 . S
H430 N425 0.984 . S
H431 N425 0.985 . S
H432 N429 0.984 . S
H433 N429 0.985 . S
H434 N428 0.984 . S
H435 N428 0.984 . S
H436 N424 0.984 . S
H437 N424 0.985 . S
C438 C439 1.363 . S
C438 C444 1.379 . S
C438 N446 1.356 . S
C439 C438 1.363 . S
C439 C445 1.363 . S
C440 C441 1.363 . S
C440 C445 1.379 . S
C440 N447 1.356 . S
C441 C440 1.363 . S
C441 C444 1.363 . S
N442 C444 1.356 . S
N442 H454 0.984 . S
N442 H455 0.985 . S
N443 C445 1.356 . S
N443 H448 0.984 . S
N443 H449 0.985 . S
C444 C438 1.379 . S
C444 C441 1.363 . S
C444 N442 1.356 . S
C445 C439 1.363 . S
C445 C440 1.379 . S
C445 N443 1.356 . S
N446 C438 1.356 . S
N446 H452 0.984 . S
N446 H453 0.984 . S
N447 C440 1.356 . S
N447 H450 0.984 . S
N447 H451 0.985 . S
H448 N443 0.984 . S
H449 N443 0.985 . S
H450 N447 0.984 . S
H451 N447 0.985 . S
H452 N446 0.984 . S
H453 N446 0.984 . S
H454 N442 0.984 . S
H455 N442 0.985 . S
C456 C457 1.363 . S
C456 C462 1.379 . S
C456 N464 1.356 . S
C457 C456 1.363 . S
C457 C463 1.363 . S
C458 C459 1.363 . S
C458 C463 1.379 . S
C458 N465 1.356 . S
C459 C458 1.363 . S
C459 C462 1.363 . S
N460 C462 1.356 . S
N460 H472 0.984 . S
N460 H473 0.985 . S
N461 C463 1.356 . S
N461 H466 0.984 . S
N461 H467 0.985 . S
C462 C456 1.379 . S
C462 C459 1.363 . S
C462 N460 1.356 . S
C463 C457 1.363 . S
C463 C458 1.379 . S
C463 N461 1.356 . S
N464 C456 1.356 . S
N464 H470 0.984 . S
N464 H471 0.984 . S
N465 C458 1.356 . S
N465 H468 0.984 . S
N465 H469 0.985 . S
H466 N461 0.984 . S
H467 N461 0.985 . S
H468 N465 0.984 . S
H469 N465 0.985 . S
H470 N464 0.984 . S
H471 N464 0.984 . S
H472 N460 0.984 . S
H473 N460 0.985 . S
C474 C475 1.363 . S
C474 C480 1.379 . S
C474 N482 1.356 . S
C475 C474 1.363 . S
C475 C481 1.363 . S
C476 C477 1.363 . S
C476 C481 1.379 . S
C476 N483 1.356 . S
C477 C476 1.363 . S
C477 C480 1.363 . S
N478 C480 1.356 . S
N478 H490 0.984 . S
N478 H491 0.985 . S
N479 C481 1.356 . S
N479 H484 0.984 . S
N479 H485 0.985 . S
C480 C474 1.379 . S
C480 C477 1.363 . S
C480 N478 1.356 . S
C481 C475 1.363 . S
C481 C476 1.379 . S
C481 N479 1.356 . S
N482 C474 1.356 . S
N482 H488 0.984 . S
N482 H489 0.984 . S
N483 C476 1.356 . S
N483 H486 0.984 . S
N483 H487 0.985 . S
H484 N479 0.984 . S
H485 N479 0.985 . S
H486 N483 0.984 . S
H487 N483 0.985 . S
H488 N482 0.984 . S
H489 N482 0.984 . S
H490 N478 0.984 . S
H491 N478 0.985 . S
C492 C493 1.363 . S
C492 C498 1.379 . S
C492 N500 1.356 . S
C493 C492 1.363 . S
C493 C499 1.363 . S
C494 C495 1.363 . S
C494 C499 1.379 . S
C494 N501 1.356 . S
C495 C494 1.363 . S
C495 C498 1.363 . S
N496 C498 1.356 . S
N496 H508 0.984 . S
N496 H509 0.985 . S
N497 C499 1.356 . S
N497 H502 0.984 . S
N497 H503 0.985 . S
C498 C492 1.379 . S
C498 C495 1.363 . S
C498 N496 1.356 . S
C499 C493 1.363 . S
C499 C494 1.379 . S
C499 N497 1.356 . S
N500 C492 1.356 . S
N500 H506 0.984 . S
N500 H507 0.984 . S
N501 C494 1.356 . S
N501 H504 0.984 . S
N501 H505 0.985 . S
H502 N497 0.984 . S
H503 N497 0.985 . S
H504 N501 0.984 . S
H505 N501 0.985 . S
H506 N500 0.984 . S
H507 N500 0.984 . S
H508 N496 0.984 . S
H509 N496 0.985 . S
C510 C511 1.363 . S
C510 C516 1.379 . S
C510 N518 1.356 . S
C511 C510 1.363 . S
C511 C517 1.363 . S
C512 C513 1.363 . S
C512 C517 1.379 . S
C512 N519 1.356 . S
C513 C512 1.363 . S
C513 C516 1.363 . S
N514 C516 1.356 . S
N514 H526 0.984 . S
N514 H527 0.985 . S
N515 C517 1.356 . S
N515 H520 0.984 . S
N515 H521 0.985 . S
C516 C510 1.379 . S
C516 C513 1.363 . S
C516 N514 1.356 . S
C517 C511 1.363 . S
C517 C512 1.379 . S
C517 N515 1.356 . S
N518 C510 1.356 . S
N518 H524 0.984 . S
N518 H525 0.984 . S
N519 C512 1.356 . S
N519 H522 0.984 . S
N519 H523 0.985 . S
H520 N515 0.984 . S
H521 N515 0.985 . S
H522 N519 0.984 . S
H523 N519 0.985 . S
H524 N518 0.984 . S
H525 N518 0.984 . S
H526 N514 0.984 . S
H527 N514 0.985 . S
C528 C529 1.363 . S
C528 C534 1.379 . S
C528 N536 1.356 . S
C529 C528 1.363 . S
C529 C535 1.363 . S
C530 C531 1.363 . S
C530 C535 1.379 . S
C530 N537 1.356 . S
C531 C530 1.363 . S
C531 C534 1.363 . S
N532 C534 1.356 . S
N532 H544 0.984 . S
N532 H545 0.985 . S
N533 C535 1.356 . S
N533 H538 0.984 . S
N533 H539 0.985 . S
C534 C528 1.379 . S
C534 C531 1.363 . S
C534 N532 1.356 . S
C535 C529 1.363 . S
C535 C530 1.379 . S
C535 N533 1.356 . S
N536 C528 1.356 . S
N536 H542 0.984 . S
N536 H543 0.984 . S
N537 C530 1.356 . S
N537 H540 0.984 . S
N537 H541 0.985 . S
H538 N533 0.984 . S
H539 N533 0.985 . S
H540 N537 0.984 . S
H541 N537 0.985 . S
H542 N536 0.984 . S
H543 N536 0.984 . S
H544 N532 0.984 . S
H545 N532 0.985 . S
C546 C547 1.363 . S
C546 C552 1.379 . S
C546 N554 1.356 . S
C547 C546 1.363 . S
C547 C553 1.363 . S
C548 C549 1.363 . S
C548 C553 1.379 . S
C548 N555 1.356 . S
C549 C548 1.363 . S
C549 C552 1.363 . S
N550 C552 1.356 . S
N550 H562 0.984 . S
N550 H563 0.985 . S
N551 C553 1.356 . S
N551 H556 0.984 . S
N551 H557 0.985 . S
C552 C546 1.379 . S
C552 C549 1.363 . S
C552 N550 1.356 . S
C553 C547 1.363 . S
C553 C548 1.379 . S
C553 N551 1.356 . S
N554 C546 1.356 . S
N554 H560 0.984 . S
N554 H561 0.984 . S
N555 C548 1.356 . S
N555 H558 0.984 . S
N555 H559 0.985 . S
H556 N551 0.984 . S
H557 N551 0.985 . S
H558 N555 0.984 . S
H559 N555 0.985 . S
H560 N554 0.984 . S
H561 N554 0.984 . S
H562 N550 0.984 . S
H563 N550 0.985 . S
C564 C565 1.363 . S
C564 C570 1.379 . S
C564 N572 1.356 . S
C565 C564 1.363 . S
C565 C571 1.363 . S
C566 C567 1.363 . S
C566 C571 1.379 . S
C566 N573 1.356 . S
C567 C566 1.363 . S
C567 C570 1.363 . S
N568 C570 1.356 . S
N568 H580 0.984 . S
N568 H581 0.985 . S
N569 C571 1.356 . S
N569 H574 0.984 . S
N569 H575 0.985 . S
C570 C564 1.379 . S
C570 C567 1.363 . S
C570 N568 1.356 . S
C571 C565 1.363 . S
C571 C566 1.379 . S
C571 N569 1.356 . S
N572 C564 1.356 . S
N572 H578 0.984 . S
N572 H579 0.984 . S
N573 C566 1.356 . S
N573 H576 0.984 . S
N573 H577 0.985 . S
H574 N569 0.984 . S
H575 N569 0.985 . S
H576 N573 0.984 . S
H577 N573 0.985 . S
H578 N572 0.984 . S
H579 N572 0.984 . S
H580 N568 0.984 . S
H581 N568 0.985 . S
C582 C583 1.363 . S
C582 C588 1.379 . S
C582 N590 1.356 . S
C583 C582 1.363 . S
C583 C589 1.363 . S
C584 C585 1.363 . S
C584 C589 1.379 . S
C584 N591 1.356 . S
C585 C584 1.363 . S
C585 C588 1.363 . S
N586 C588 1.356 . S
N586 H598 0.984 . S
N586 H599 0.985 . S
N587 C589 1.356 . S
N587 H592 0.984 . S
N587 H593 0.985 . S
C588 C582 1.379 . S
C588 C585 1.363 . S
C588 N586 1.356 . S
C589 C583 1.363 . S
C589 C584 1.379 . S
C589 N587 1.356 . S
N590 C582 1.356 . S
N590 H596 0.984 . S
N590 H597 0.984 . S
N591 C584 1.356 . S
N591 H594 0.984 . S
N591 H595 0.985 . S
H592 N587 0.984 . S
H593 N587 0.985 . S
H594 N591 0.984 . S
H595 N591 0.985 . S
H596 N590 0.984 . S
H597 N590 0.984 . S
H598 N586 0.984 . S
H599 N586 0.985 . S
C600 C601 1.363 . S
C600 C606 1.379 . S
C600 N608 1.356 . S
C601 C600 1.363 . S
C601 C607 1.363 . S
C602 C603 1.363 . S
C602 C607 1.379 . S
C602 N609 1.356 . S
C603 C602 1.363 . S
C603 C606 1.363 . S
N604 C606 1.356 . S
N604 H616 0.984 . S
N604 H617 0.985 . S
N605 C607 1.356 . S
N605 H610 0.984 . S
N605 H611 0.985 . S
C606 C600 1.379 . S
C606 C603 1.363 . S
C606 N604 1.356 . S
C607 C601 1.363 . S
C607 C602 1.379 . S
C607 N605 1.356 . S
N608 C600 1.356 . S
N608 H614 0.984 . S
N608 H615 0.984 . S
N609 C602 1.356 . S
N609 H612 0.984 . S
N609 H613 0.985 . S
H610 N605 0.984 . S
H611 N605 0.985 . S
H612 N609 0.984 . S
H613 N609 0.985 . S
H614 N608 0.984 . S
H615 N608 0.984 . S
H616 N604 0.984 . S
H617 N604 0.985 . S
C618 C619 1.363 . S
C618 C624 1.379 . S
C618 N626 1.356 . S
C619 C618 1.363 . S
C619 C625 1.363 . S
C620 C621 1.363 . S
C620 C625 1.379 . S
C620 N627 1.356 . S
C621 C620 1.363 . S
C621 C624 1.363 . S
N622 C624 1.356 . S
N622 H634 0.984 . S
N622 H635 0.985 . S
N623 C625 1.356 . S
N623 H628 0.984 . S
N623 H629 0.985 . S
C624 C618 1.379 . S
C624 C621 1.363 . S
C624 N622 1.356 . S
C625 C619 1.363 . S
C625 C620 1.379 . S
C625 N623 1.356 . S
N626 C618 1.356 . S
N626 H632 0.984 . S
N626 H633 0.984 . S
N627 C620 1.356 . S
N627 H630 0.984 . S
N627 H631 0.985 . S
H628 N623 0.984 . S
H629 N623 0.985 . S
H630 N627 0.984 . S
H631 N627 0.985 . S
H632 N626 0.984 . S
H633 N626 0.984 . S
H634 N622 0.984 . S
H635 N622 0.985 . S
C636 C637 1.363 . S
C636 C642 1.379 . S
C636 N644 1.356 . S
C637 C636 1.363 . S
C637 C643 1.363 . S
C638 C639 1.363 . S
C638 C643 1.379 . S
C638 N645 1.356 . S
C639 C638 1.363 . S
C639 C642 1.363 . S
N640 C642 1.356 . S
N640 H652 0.984 . S
N640 H653 0.985 . S
N641 C643 1.356 . S
N641 H646 0.984 . S
N641 H647 0.985 . S
C642 C636 1.379 . S
C642 C639 1.363 . S
C642 N640 1.356 . S
C643 C637 1.363 . S
C643 C638 1.379 . S
C643 N641 1.356 . S
N644 C636 1.356 . S
N644 H650 0.984 . S
N644 H651 0.984 . S
N645 C638 1.356 . S
N645 H648 0.984 . S
N645 H649 0.985 . S
H646 N641 0.984 . S
H647 N641 0.985 . S
H648 N645 0.984 . S
H649 N645 0.985 . S
H650 N644 0.984 . S
H651 N644 0.984 . S
H652 N640 0.984 . S
H653 N640 0.985 . S
C654 C655 1.363 . S
C654 C660 1.379 . S
C654 N662 1.356 . S
C655 C654 1.363 . S
C655 C661 1.363 . S
C656 C657 1.363 . S
C656 C661 1.379 . S
C656 N663 1.356 . S
C657 C656 1.363 . S
C657 C660 1.363 . S
N658 C660 1.356 . S
N658 H670 0.984 . S
N658 H671 0.985 . S
N659 C661 1.356 . S
N659 H664 0.984 . S
N659 H665 0.985 . S
C660 C654 1.379 . S
C660 C657 1.363 . S
C660 N658 1.356 . S
C661 C655 1.363 . S
C661 C656 1.379 . S
C661 N659 1.356 . S
N662 C654 1.356 . S
N662 H668 0.984 . S
N662 H669 0.984 . S
N663 C656 1.356 . S
N663 H666 0.984 . S
N663 H667 0.985 . S
H664 N659 0.984 . S
H665 N659 0.985 . S
H666 N663 0.984 . S
H667 N663 0.985 . S
H668 N662 0.984 . S
H669 N662 0.984 . S
H670 N658 0.984 . S
H671 N658 0.985 . S
C672 C673 1.363 . S
C672 C678 1.379 . S
C672 N680 1.356 . S
C673 C672 1.363 . S
C673 C679 1.363 . S
C674 C675 1.363 . S
C674 C679 1.379 . S
C674 N681 1.356 . S
C675 C674 1.363 . S
C675 C678 1.363 . S
N676 C678 1.356 . S
N676 H688 0.984 . S
N676 H689 0.985 . S
N677 C679 1.356 . S
N677 H682 0.984 . S
N677 H683 0.985 . S
C678 C672 1.379 . S
C678 C675 1.363 . S
C678 N676 1.356 . S
C679 C673 1.363 . S
C679 C674 1.379 . S
C679 N677 1.356 . S
N680 C672 1.356 . S
N680 H686 0.984 . S
N680 H687 0.984 . S
N681 C674 1.356 . S
N681 H684 0.984 . S
N681 H685 0.985 . S
H682 N677 0.984 . S
H683 N677 0.985 . S
H684 N681 0.984 . S
H685 N681 0.985 . S
H686 N680 0.984 . S
H687 N680 0.984 . S
H688 N676 0.984 . S
H689 N676 0.985 . S
C690 C691 1.363 . S
C690 C696 1.379 . S
C690 N698 1.356 . S
C691 C690 1.363 . S
C691 C697 1.363 . S
C692 C693 1.363 . S
C692 C697 1.379 . S
C692 N699 1.356 . S
C693 C692 1.363 . S
C693 C696 1.363 . S
N694 C696 1.356 . S
N694 H706 0.984 . S
N694 H707 0.985 . S
N695 C697 1.356 . S
N695 H700 0.984 . S
N695 H701 0.985 . S
C696 C690 1.379 . S
C696 C693 1.363 . S
C696 N694 1.356 . S
C697 C691 1.363 . S
C697 C692 1.379 . S
C697 N695 1.356 . S
N698 C690 1.356 . S
N698 H704 0.984 . S
N698 H705 0.984 . S
N699 C692 1.356 . S
N699 H702 0.984 . S
N699 H703 0.985 . S
H700 N695 0.984 . S
H701 N695 0.985 . S
H702 N699 0.984 . S
H703 N699 0.985 . S
H704 N698 0.984 . S
H705 N698 0.984 . S
H706 N694 0.984 . S
H707 N694 0.985 . S
C708 C709 1.363 . S
C708 C714 1.379 . S
C708 N716 1.356 . S
C709 C708 1.363 . S
C709 C715 1.363 . S
C710 C711 1.363 . S
C710 C715 1.379 . S
C710 N717 1.356 . S
C711 C710 1.363 . S
C711 C714 1.363 . S
N712 C714 1.356 . S
N712 H724 0.984 . S
N712 H725 0.985 . S
N713 C715 1.356 . S
N713 H718 0.984 . S
N713 H719 0.985 . S
C714 C708 1.379 . S
C714 C711 1.363 . S
C714 N712 1.356 . S
C715 C709 1.363 . S
C715 C710 1.379 . S
C715 N713 1.356 . S
N716 C708 1.356 . S
N716 H722 0.984 . S
N716 H723 0.984 . S
N717 C710 1.356 . S
N717 H720 0.984 . S
N717 H721 0.985 . S
H718 N713 0.984 . S
H719 N713 0.985 . S
H720 N717 0.984 . S
H721 N717 0.985 . S
H722 N716 0.984 . S
H723 N716 0.984 . S
H724 N712 0.984 . S
H725 N712 0.985 . S
C726 C727 1.363 . S
C726 C732 1.379 . S
C726 N734 1.356 . S
C727 C726 1.363 . S
C727 C733 1.363 . S
C728 C729 1.363 . S
C728 C733 1.379 . S
C728 N735 1.356 . S
C729 C728 1.363 . S
C729 C732 1.363 . S
N730 C732 1.356 . S
N730 H742 0.984 . S
N730 H743 0.985 . S
N731 C733 1.356 . S
N731 H736 0.984 . S
N731 H737 0.985 . S
C732 C726 1.379 . S
C732 C729 1.363 . S
C732 N730 1.356 . S
C733 C727 1.363 . S
C733 C728 1.379 . S
C733 N731 1.356 . S
N734 C726 1.356 . S
N734 H740 0.984 . S
N734 H741 0.984 . S
N735 C728 1.356 . S
N735 H738 0.984 . S
N735 H739 0.985 . S
H736 N731 0.984 . S
H737 N731 0.985 . S
H738 N735 0.984 . S
H739 N735 0.985 . S
H740 N734 0.984 . S
H741 N734 0.984 . S
H742 N730 0.984 . S
H743 N730 0.985 . S
C744 C745 1.363 . S
C744 C750 1.379 . S
C744 N752 1.356 . S
C745 C744 1.363 . S
C745 C751 1.363 . S
C746 C747 1.363 . S
C746 C751 1.379 . S
C746 N753 1.356 . S
C747 C746 1.363 . S
C747 C750 1.363 . S
N748 C750 1.356 . S
N748 H760 0.984 . S
N748 H761 0.985 . S
N749 C751 1.356 . S
N749 H754 0.984 . S
N749 H755 0.985 . S
C750 C744 1.379 . S
C750 C747 1.363 . S
C750 N748 1.356 . S
C751 C745 1.363 . S
C751 C746 1.379 . S
C751 N749 1.356 . S
N752 C744 1.356 . S
N752 H758 0.984 . S
N752 H759 0.984 . S
N753 C746 1.356 . S
N753 H756 0.984 . S
N753 H757 0.985 . S
H754 N749 0.984 . S
H755 N749 0.985 . S
H756 N753 0.984 . S
H757 N753 0.985 . S
H758 N752 0.984 . S
H759 N752 0.984 . S
H760 N748 0.984 . S
H761 N748 0.985 . S
C762 C763 1.363 . S
C762 C768 1.379 . S
C762 N770 1.356 1_556 S
C763 C762 1.363 . S
C763 C769 1.363 . S
C764 C765 1.363 . S
C764 C769 1.379 . S
C764 N771 1.356 . S
C765 C764 1.363 . S
C765 C768 1.363 . S
N766 C768 1.356 . S
N766 H778 0.984 . S
N766 H779 0.985 . S
N767 C769 1.356 1_554 S
N767 H772 0.984 . S
N767 H773 0.985 1_554 S
C768 C762 1.379 . S
C768 C765 1.363 . S
C768 N766 1.356 . S
C769 C763 1.363 . S
C769 C764 1.379 . S
C769 N767 1.356 1_556 S
N770 C762 1.356 1_554 S
N770 H776 0.984 . S
N770 H777 0.984 . S
N771 C764 1.356 . S
N771 H774 0.984 . S
N771 H775 0.985 . S
H772 N767 0.984 . S
H773 N767 0.985 1_556 S
H774 N771 0.984 . S
H775 N771 0.985 . S
H776 N770 0.984 . S
H777 N770 0.984 . S
H778 N766 0.984 . S
H779 N766 0.985 . S
C780 C781 1.363 . S
C780 C786 1.379 . S
C780 N788 1.356 . S
C781 C780 1.363 . S
C781 C787 1.363 . S
C782 C783 1.363 . S
C782 C787 1.379 . S
C782 N789 1.356 . S
C783 C782 1.363 . S
C783 C786 1.363 . S
N784 C786 1.356 . S
N784 H796 0.984 . S
N784 H797 0.985 . S
N785 C787 1.356 . S
N785 H790 0.984 . S
N785 H791 0.985 . S
C786 C780 1.379 . S
C786 C783 1.363 . S
C786 N784 1.356 . S
C787 C781 1.363 . S
C787 C782 1.379 . S
C787 N785 1.356 . S
N788 C780 1.356 . S
N788 H794 0.984 . S
N788 H795 0.984 . S
N789 C782 1.356 . S
N789 H792 0.984 . S
N789 H793 0.985 . S
H790 N785 0.984 . S
H791 N785 0.985 . S
H792 N789 0.984 . S
H793 N789 0.985 . S
H794 N788 0.984 . S
H795 N788 0.984 . S
H796 N784 0.984 . S
H797 N784 0.985 . S
C798 C799 1.363 . S
C798 C804 1.379 . S
C798 N806 1.356 . S
C799 C798 1.363 . S
C799 C805 1.363 . S
C800 C801 1.363 . S
C800 C805 1.379 . S
C800 N807 1.356 1_554 S
C801 C800 1.363 . S
C801 C804 1.363 . S
N802 C804 1.356 . S
N802 H814 0.984 . S
N802 H815 0.985 1_554 S
N803 C805 1.356 . S
N803 H808 0.984 . S
N803 H809 0.985 . S
C804 C798 1.379 . S
C804 C801 1.363 . S
C804 N802 1.356 . S
C805 C799 1.363 . S
C805 C800 1.379 . S
C805 N803 1.356 . S
N806 C798 1.356 . S
N806 H812 0.984 . S
N806 H813 0.984 . S
N807 C800 1.356 1_556 S
N807 H810 0.984 . S
N807 H811 0.985 . S
H808 N803 0.984 . S
H809 N803 0.985 . S
H810 N807 0.984 . S
H811 N807 0.985 . S
H812 N806 0.984 . S
H813 N806 0.984 . S
H814 N802 0.984 . S
H815 N802 0.985 1_556 S
C816 C817 1.363 . S
C816 C822 1.379 . S
C816 N824 1.356 . S
C817 C816 1.363 . S
C817 C823 1.363 . S
C818 C819 1.363 . S
C818 C823 1.379 . S
C818 N825 1.356 . S
C819 C818 1.363 . S
C819 C822 1.363 . S
N820 C822 1.356 . S
N820 H832 0.984 . S
N820 H833 0.985 . S
N821 C823 1.356 . S
N821 H826 0.984 . S
N821 H827 0.985 . S
C822 C816 1.379 . S
C822 C819 1.363 . S
C822 N820 1.356 . S
C823 C817 1.363 . S
C823 C818 1.379 . S
C823 N821 1.356 . S
N824 C816 1.356 . S
N824 H830 0.984 . S
N824 H831 0.984 . S
N825 C818 1.356 . S
N825 H828 0.984 . S
N825 H829 0.985 . S
H826 N821 0.984 . S
H827 N821 0.985 . S
H828 N825 0.984 . S
H829 N825 0.985 . S
H830 N824 0.984 . S
H831 N824 0.984 . S
H832 N820 0.984 . S
H833 N820 0.985 . S
C834 C835 1.363 . S
C834 C840 1.379 . S
C834 N842 1.356 . S
C835 C834 1.363 . S
C835 C841 1.363 . S
C836 C837 1.363 . S
C836 C841 1.379 . S
C836 N843 1.356 . S
C837 C836 1.363 . S
C837 C840 1.363 . S
N838 C840 1.356 . S
N838 H850 0.984 . S
N838 H851 0.985 . S
N839 C841 1.356 1_655 S
N839 H844 0.984 . S
N839 H845 0.985 . S
C840 C834 1.379 . S
C840 C837 1.363 . S
C840 N838 1.356 . S
C841 C835 1.363 . S
C841 C836 1.379 . S
C841 N839 1.356 1_455 S
N842 C834 1.356 . S
N842 H848 0.984 . S
N842 H849 0.984 1_455 S
N843 C836 1.356 . S
N843 H846 0.984 . S
N843 H847 0.985 . S
H844 N839 0.984 . S
H845 N839 0.985 . S
H846 N843 0.984 . S
H847 N843 0.985 . S
H848 N842 0.984 . S
H849 N842 0.984 1_655 S
H850 N838 0.984 . S
H851 N838 0.985 . S
C852 C853 1.363 . S
C852 C858 1.379 . S
C852 N860 1.356 . S
C853 C852 1.363 . S
C853 C859 1.363 . S
C854 C855 1.363 . S
C854 C859 1.379 . S
C854 N861 1.356 . S
C855 C854 1.363 . S
C855 C858 1.363 . S
N856 C858 1.356 . S
N856 H868 0.984 . S
N856 H869 0.985 . S
N857 C859 1.356 1_455 S
N857 H862 0.984 . S
N857 H863 0.985 . S
C858 C852 1.379 . S
C858 C855 1.363 . S
C858 N856 1.356 . S
C859 C853 1.363 . S
C859 C854 1.379 . S
C859 N857 1.356 1_655 S
N860 C852 1.356 . S
N860 H866 0.984 . S
N860 H867 0.984 1_655 S
N861 C854 1.356 . S
N861 H864 0.984 . S
N861 H865 0.985 . S
H862 N857 0.984 . S
H863 N857 0.985 . S
H864 N861 0.984 . S
H865 N861 0.985 . S
H866 N860 0.984 . S
H867 N860 0.984 1_455 S
H868 N856 0.984 . S
H869 N856 0.985 . S
C870 C871 1.363 . S
C870 C876 1.379 . S
C870 N878 1.356 . S
C871 C870 1.363 . S
C871 C877 1.363 . S
C872 C873 1.363 . S
C872 C877 1.379 . S
C872 N879 1.356 . S
C873 C872 1.363 . S
C873 C876 1.363 . S
N874 C876 1.356 . S
N874 H886 0.984 . S
N874 H887 0.985 . S
N875 C877 1.356 . S
N875 H880 0.984 . S
N875 H881 0.985 . S
C876 C870 1.379 . S
C876 C873 1.363 . S
C876 N874 1.356 . S
C877 C871 1.363 . S
C877 C872 1.379 . S
C877 N875 1.356 . S
N878 C870 1.356 . S
N878 H884 0.984 . S
N878 H885 0.984 . S
N879 C872 1.356 . S
N879 H882 0.984 . S
N879 H883 0.985 . S
H880 N875 0.984 . S
H881 N875 0.985 . S
H882 N879 0.984 . S
H883 N879 0.985 . S
H884 N878 0.984 . S
H885 N878 0.984 . S
H886 N874 0.984 . S
H887 N874 0.985 . S
C888 C889 1.363 . S
C888 C894 1.379 . S
C888 N896 1.356 . S
C889 C888 1.363 . S
C889 C895 1.363 . S
C890 C891 1.363 . S
C890 C895 1.379 . S
C890 N897 1.356 . S
C891 C890 1.363 . S
C891 C894 1.363 . S
N892 C894 1.356 . S
N892 H904 0.984 . S
N892 H905 0.985 . S
N893 C895 1.356 . S
N893 H898 0.984 . S
N893 H899 0.985 . S
C894 C888 1.379 . S
C894 C891 1.363 . S
C894 N892 1.356 . S
C895 C889 1.363 . S
C895 C890 1.379 . S
C895 N893 1.356 . S
N896 C888 1.356 . S
N896 H902 0.984 . S
N896 H903 0.984 . S
N897 C890 1.356 . S
N897 H900 0.984 . S
N897 H901 0.985 . S
H898 N893 0.984 . S
H899 N893 0.985 . S
H900 N897 0.984 . S
H901 N897 0.985 . S
H902 N896 0.984 . S
H903 N896 0.984 . S
H904 N892 0.984 . S
H905 N892 0.985 . S
C906 C907 1.363 . S
C906 C912 1.379 . S
C906 N914 1.356 1_545 S
C907 C906 1.363 . S
C907 C913 1.363 . S
C908 C909 1.363 . S
C908 C913 1.379 . S
C908 N915 1.356 . S
C909 C908 1.363 . S
C909 C912 1.363 . S
N910 C912 1.356 . S
N910 H922 0.984 . S
N910 H923 0.985 . S
N911 C913 1.356 . S
N911 H916 0.984 1_545 S
N911 H917 0.985 . S
C912 C906 1.379 . S
C912 C909 1.363 . S
C912 N910 1.356 . S
C913 C907 1.363 . S
C913 C908 1.379 . S
C913 N911 1.356 . S
N914 C906 1.356 1_565 S
N914 H920 0.984 . S
N914 H921 0.984 . S
N915 C908 1.356 . S
N915 H918 0.984 . S
N915 H919 0.985 . S
H916 N911 0.984 1_565 S
H917 N911 0.985 . S
H918 N915 0.984 . S
H919 N915 0.985 . S
H920 N914 0.984 . S
H921 N914 0.984 . S
H922 N910 0.984 . S
H923 N910 0.985 . S
C924 C925 1.363 . S
C924 C930 1.379 . S
C924 N932 1.356 1_565 S
C925 C924 1.363 . S
C925 C931 1.363 . S
C926 C927 1.363 . S
C926 C931 1.379 . S
C926 N933 1.356 . S
C927 C926 1.363 . S
C927 C930 1.363 . S
N928 C930 1.356 . S
N928 H940 0.984 . S
N928 H941 0.985 . S
N929 C931 1.356 . S
N929 H934 0.984 1_565 S
N929 H935 0.985 . S
C930 C924 1.379 . S
C930 C927 1.363 . S
C930 N928 1.356 . S
C931 C925 1.363 . S
C931 C926 1.379 . S
C931 N929 1.356 . S
N932 C924 1.356 1_545 S
N932 H938 0.984 . S
N932 H939 0.984 . S
N933 C926 1.356 . S
N933 H936 0.984 . S
N933 H937 0.985 . S
H934 N929 0.984 1_545 S
H935 N929 0.985 . S
H936 N933 0.984 . S
H937 N933 0.985 . S
H938 N932 0.984 . S
H939 N932 0.984 . S
H940 N928 0.984 . S
H941 N928 0.985 . S
C942 C943 1.363 . S
C942 C948 1.379 . S
C942 N950 1.356 . S
C943 C942 1.363 . S
C943 C949 1.363 . S
C944 C945 1.363 . S
C944 C949 1.379 . S
C944 N951 1.356 . S
C945 C944 1.363 . S
C945 C948 1.363 . S
N946 C948 1.356 . S
N946 H958 0.984 . S
N946 H959 0.985 . S
N947 C949 1.356 . S
N947 H952 0.984 . S
N947 H953 0.985 . S
C948 C942 1.379 . S
C948 C945 1.363 . S
C948 N946 1.356 . S
C949 C943 1.363 . S
C949 C944 1.379 . S
C949 N947 1.356 . S
N950 C942 1.356 . S
N950 H956 0.984 . S
N950 H957 0.984 . S
N951 C944 1.356 . S
N951 H954 0.984 . S
N951 H955 0.985 . S
H952 N947 0.984 . S
H953 N947 0.985 . S
H954 N951 0.984 . S
H955 N951 0.985 . S
H956 N950 0.984 . S
H957 N950 0.984 . S
H958 N946 0.984 . S
H959 N946 0.985 . S
C960 C961 1.363 . S
C960 C966 1.379 . S
C960 N968 1.356 . S
C961 C960 1.363 . S
C961 C967 1.363 . S
C962 C963 1.363 . S
C962 C967 1.379 . S
C962 N969 1.356 . S
C963 C962 1.363 . S
C963 C966 1.363 . S
N964 C966 1.356 . S
N964 H976 0.984 . S
N964 H977 0.985 . S
N965 C967 1.356 . S
N965 H970 0.984 . S
N965 H971 0.985 . S
C966 C960 1.379 . S
C966 C963 1.363 . S
C966 N964 1.356 . S
C967 C961 1.363 . S
C967 C962 1.379 . S
C967 N965 1.356 . S
N968 C960 1.356 . S
N968 H974 0.984 . S
N968 H975 0.984 . S
N969 C962 1.356 . S
N969 H972 0.984 . S
N969 H973 0.985 . S
H970 N965 0.984 . S
H971 N965 0.985 . S
H972 N969 0.984 . S
H973 N969 0.985 . S
H974 N968 0.984 . S
H975 N968 0.984 . S
H976 N964 0.984 . S
H977 N964 0.985 . S
C978 C979 1.363 . S
C978 C984 1.379 . S
C978 N986 1.356 1_554 S
C979 C978 1.363 . S
C979 C985 1.363 . S
C980 C981 1.363 . S
C980 C985 1.379 . S
C980 N987 1.356 . S
C981 C980 1.363 . S
C981 C984 1.363 . S
N982 C984 1.356 . S
N982 H994 0.984 . S
N982 H995 0.985 . S
N983 C985 1.356 . S
N983 H988 0.984 1_554 S
N983 H989 0.985 . S
C984 C978 1.379 . S
C984 C981 1.363 . S
C984 N982 1.356 . S
C985 C979 1.363 . S
C985 C980 1.379 . S
C985 N983 1.356 . S
N986 C978 1.356 1_556 S
N986 H992 0.984 . S
N986 H993 0.984 . S
N987 C980 1.356 . S
N987 H990 0.984 . S
N987 H991 0.985 . S
H988 N983 0.984 1_556 S
H989 N983 0.985 . S
H990 N987 0.984 . S
H991 N987 0.985 . S
H992 N986 0.984 . S
H993 N986 0.984 . S
H994 N982 0.984 . S
H995 N982 0.985 . S
C996 C997 1.363 . S
C996 C1002 1.379 . S
C996 N1004 1.356 . S
C997 C996 1.363 . S
C997 C1003 1.363 . S
C998 C999 1.363 . S
C998 C1003 1.379 . S
C998 N1005 1.356 . S
C999 C998 1.363 . S
C999 C1002 1.363 . S
N1000 C1002 1.356 . S
N1000 H1012 0.984 . S
N1000 H1013 0.985 . S
N1001 C1003 1.356 . S
N1001 H1006 0.984 . S
N1001 H1007 0.985 . S
C1002 C996 1.379 . S
C1002 C999 1.363 . S
C1002 N1000 1.356 . S
C1003 C997 1.363 . S
C1003 C998 1.379 . S
C1003 N1001 1.356 . S
N1004 C996 1.356 . S
N1004 H1010 0.984 . S
N1004 H1011 0.984 . S
N1005 C998 1.356 . S
N1005 H1008 0.984 . S
N1005 H1009 0.985 . S
H1006 N1001 0.984 . S
H1007 N1001 0.985 . S
H1008 N1005 0.984 . S
H1009 N1005 0.985 . S
H1010 N1004 0.984 . S
H1011 N1004 0.984 . S
H1012 N1000 0.984 . S
H1013 N1000 0.985 . S
C1014 C1015 1.363 . S
C1014 C1020 1.379 . S
C1014 N1022 1.356 . S
C1015 C1014 1.363 . S
C1015 C1021 1.363 . S
C1016 C1017 1.363 . S
C1016 C1021 1.379 . S
C1016 N1023 1.356 . S
C1017 C1016 1.363 . S
C1017 C1020 1.363 . S
N1018 C1020 1.356 . S
N1018 H1030 0.984 . S
N1018 H1031 0.985 . S
N1019 C1021 1.356 1_554 S
N1019 H1024 0.984 . S
N1019 H1025 0.985 . S
C1020 C1014 1.379 . S
C1020 C1017 1.363 . S
C1020 N1018 1.356 . S
C1021 C1015 1.363 . S
C1021 C1016 1.379 . S
C1021 N1019 1.356 1_556 S
N1022 C1014 1.356 . S
N1022 H1028 0.984 . S
N1022 H1029 0.984 1_556 S
N1023 C1016 1.356 . S
N1023 H1026 0.984 . S
N1023 H1027 0.985 . S
H1024 N1019 0.984 . S
H1025 N1019 0.985 . S
H1026 N1023 0.984 . S
H1027 N1023 0.985 . S
H1028 N1022 0.984 . S
H1029 N1022 0.984 1_554 S
H1030 N1018 0.984 . S
H1031 N1018 0.985 . S
C1032 C1033 1.363 . S
C1032 C1038 1.379 . S
C1032 N1040 1.356 . S
C1033 C1032 1.363 . S
C1033 C1039 1.363 . S
C1034 C1035 1.363 . S
C1034 C1039 1.379 . S
C1034 N1041 1.356 . S
C1035 C1034 1.363 . S
C1035 C1038 1.363 . S
N1036 C1038 1.356 . S
N1036 H1048 0.984 . S
N1036 H1049 0.985 . S
N1037 C1039 1.356 . S
N1037 H1042 0.984 . S
N1037 H1043 0.985 . S
C1038 C1032 1.379 . S
C1038 C1035 1.363 . S
C1038 N1036 1.356 . S
C1039 C1033 1.363 . S
C1039 C1034 1.379 . S
C1039 N1037 1.356 . S
N1040 C1032 1.356 . S
N1040 H1046 0.984 . S
N1040 H1047 0.984 . S
N1041 C1034 1.356 . S
N1041 H1044 0.984 . S
N1041 H1045 0.985 . S
H1042 N1037 0.984 . S
H1043 N1037 0.985 . S
H1044 N1041 0.984 . S
H1045 N1041 0.985 . S
H1046 N1040 0.984 . S
H1047 N1040 0.984 . S
H1048 N1036 0.984 . S
H1049 N1036 0.985 . S
C1050 C1051 1.363 . S
C1050 C1056 1.379 . S
C1050 N1058 1.356 . S
C1051 C1050 1.363 . S
C1051 C1057 1.363 . S
C1052 C1053 1.363 . S
C1052 C1057 1.379 . S
C1052 N1059 1.356 1_655 S
C1053 C1052 1.363 . S
C1053 C1056 1.363 . S
N1054 C1056 1.356 1_455 S
N1054 H1066 0.989 . S
N1054 H1067 0.985 . S
N1055 C1057 1.356 . S
N1055 H1060 0.984 . S
N1055 H1061 0.985 . S
C1056 C1050 1.379 . S
C1056 C1053 1.363 . S
C1056 N1054 1.356 1_655 S
C1057 C1051 1.363 . S
C1057 C1052 1.379 . S
C1057 N1055 1.356 . S
N1058 C1050 1.356 . S
N1058 H1064 0.984 . S
N1058 H1065 0.984 . S
N1059 C1052 1.356 1_455 S
N1059 H1062 0.984 . S
N1059 H1063 0.985 1_455 S
H1060 N1055 0.984 . S
H1061 N1055 0.985 . S
H1062 N1059 0.984 . S
H1063 N1059 0.985 1_655 S
H1064 N1058 0.984 . S
H1065 N1058 0.984 . S
H1066 N1054 0.989 . S
H1067 N1054 0.985 . S
C1068 C1069 1.363 . S
C1068 C1074 1.379 . S
C1068 N1076 1.356 . S
C1069 C1068 1.363 . S
C1069 C1075 1.363 . S
C1070 C1071 1.363 . S
C1070 C1075 1.379 . S
C1070 N1077 1.356 . S
C1071 C1070 1.363 . S
C1071 C1074 1.363 . S
N1072 C1074 1.356 1_655 S
N1072 H1084 0.984 . S
N1072 H1085 0.985 . S
N1073 C1075 1.356 . S
N1073 H1078 0.984 . S
N1073 H1079 0.985 . S
C1074 C1068 1.379 . S
C1074 C1071 1.363 . S
C1074 N1072 1.356 1_455 S
C1075 C1069 1.363 . S
C1075 C1070 1.379 . S
C1075 N1073 1.356 . S
N1076 C1068 1.356 . S
N1076 H1082 0.984 . S
N1076 H1083 0.984 . S
N1077 C1070 1.356 . S
N1077 H1080 0.984 1_455 S
N1077 H1081 0.985 . S
H1078 N1073 0.984 . S
H1079 N1073 0.985 . S
H1080 N1077 0.984 1_655 S
H1081 N1077 0.985 . S
H1082 N1076 0.984 . S
H1083 N1076 0.984 . S
H1084 N1072 0.984 . S
H1085 N1072 0.985 . S
C1086 C1087 1.363 . S
C1086 C1092 1.379 . S
C1086 N1094 1.356 . S
C1087 C1086 1.363 . S
C1087 C1093 1.363 . S
C1088 C1089 1.363 . S
C1088 C1093 1.379 . S
C1088 N1095 1.356 . S
C1089 C1088 1.363 . S
C1089 C1092 1.363 . S
N1090 C1092 1.356 . S
N1090 H1102 0.984 . S
N1090 H1103 0.985 . S
N1091 C1093 1.356 . S
N1091 H1096 0.984 . S
N1091 H1097 0.985 . S
C1092 C1086 1.379 . S
C1092 C1089 1.363 . S
C1092 N1090 1.356 . S
C1093 C1087 1.363 . S
C1093 C1088 1.379 . S
C1093 N1091 1.356 . S
N1094 C1086 1.356 . S
N1094 H1100 0.984 . S
N1094 H1101 0.984 . S
N1095 C1088 1.356 . S
N1095 H1098 0.984 . S
N1095 H1099 0.985 . S
H1096 N1091 0.984 . S
H1097 N1091 0.985 . S
H1098 N1095 0.984 . S
H1099 N1095 0.985 . S
H1100 N1094 0.984 . S
H1101 N1094 0.984 . S
H1102 N1090 0.984 . S
H1103 N1090 0.985 . S
C1104 C1105 1.363 . S
C1104 C1110 1.379 . S
C1104 N1112 1.356 . S
C1105 C1104 1.363 . S
C1105 C1111 1.363 . S
C1106 C1107 1.363 . S
C1106 C1111 1.379 . S
C1106 N1113 1.356 . S
C1107 C1106 1.363 . S
C1107 C1110 1.363 . S
N1108 C1110 1.356 . S
N1108 H1120 0.984 . S
N1108 H1121 0.985 . S
N1109 C1111 1.356 . S
N1109 H1114 0.984 . S
N1109 H1115 0.985 . S
C1110 C1104 1.379 . S
C1110 C1107 1.363 . S
C1110 N1108 1.356 . S
C1111 C1105 1.363 . S
C1111 C1106 1.379 . S
C1111 N1109 1.356 . S
N1112 C1104 1.356 . S
N1112 H1118 0.984 . S
N1112 H1119 0.984 . S
N1113 C1106 1.356 . S
N1113 H1116 0.984 . S
N1113 H1117 0.985 . S
H1114 N1109 0.984 . S
H1115 N1109 0.985 . S
H1116 N1113 0.984 . S
H1117 N1113 0.985 . S
H1118 N1112 0.984 . S
H1119 N1112 0.984 . S
H1120 N1108 0.984 . S
H1121 N1108 0.985 . S
C1122 C1123 1.363 . S
C1122 C1128 1.379 . S
C1122 N1130 1.356 . S
C1123 C1122 1.363 . S
C1123 C1129 1.363 . S
C1124 C1125 1.363 . S
C1124 C1129 1.379 . S
C1124 N1131 1.356 1_565 S
C1125 C1124 1.363 . S
C1125 C1128 1.363 . S
N1126 C1128 1.356 . S
N1126 H1138 0.984 . S
N1126 H1139 0.985 1_565 S
N1127 C1129 1.356 . S
N1127 H1132 0.984 . S
N1127 H1133 0.985 . S
C1128 C1122 1.379 . S
C1128 C1125 1.363 . S
C1128 N1126 1.356 . S
C1129 C1123 1.363 . S
C1129 C1124 1.379 . S
C1129 N1127 1.356 . S
N1130 C1122 1.356 . S
N1130 H1136 0.984 . S
N1130 H1137 0.984 . S
N1131 C1124 1.356 1_545 S
N1131 H1134 0.984 . S
N1131 H1135 0.985 . S
H1132 N1127 0.984 . S
H1133 N1127 0.985 . S
H1134 N1131 0.984 . S
H1135 N1131 0.985 . S
H1136 N1130 0.984 . S
H1137 N1130 0.984 . S
H1138 N1126 0.984 . S
H1139 N1126 0.985 1_545 S
C1140 C1141 1.363 . S
C1140 C1146 1.379 . S
C1140 N1148 1.356 1_545 S
C1141 C1140 1.363 . S
C1141 C1147 1.363 . S
C1142 C1143 1.363 . S
C1142 C1147 1.379 . S
C1142 N1149 1.356 . S
C1143 C1142 1.363 . S
C1143 C1146 1.363 . S
N1144 C1146 1.356 . S
N1144 H1156 0.984 . S
N1144 H1157 0.985 . S
N1145 C1147 1.356 1_565 S
N1145 H1150 0.984 . S
N1145 H1151 0.985 1_565 S
C1146 C1140 1.379 . S
C1146 C1143 1.363 . S
C1146 N1144 1.356 . S
C1147 C1141 1.363 . S
C1147 C1142 1.379 . S
C1147 N1145 1.356 1_545 S
N1148 C1140 1.356 1_565 S
N1148 H1154 0.984 . S
N1148 H1155 0.984 . S
N1149 C1142 1.356 . S
N1149 H1152 0.984 . S
N1149 H1153 0.985 . S
H1150 N1145 0.984 . S
H1151 N1145 0.985 1_545 S
H1152 N1149 0.984 . S
H1153 N1149 0.985 . S
H1154 N1148 0.984 . S
H1155 N1148 0.984 . S
H1156 N1144 0.984 . S
H1157 N1144 0.985 . S
C1158 C1159 1.363 . S
C1158 C1164 1.379 . S
C1158 N1166 1.356 . S
C1159 C1158 1.363 . S
C1159 C1165 1.363 . S
C1160 C1161 1.363 . S
C1160 C1165 1.379 . S
C1160 N1167 1.356 . S
C1161 C1160 1.363 . S
C1161 C1164 1.363 . S
N1162 C1164 1.356 . S
N1162 H1174 0.984 . S
N1162 H1175 0.985 . S
N1163 C1165 1.356 . S
N1163 H1168 0.984 . S
N1163 H1169 0.985 . S
C1164 C1158 1.379 . S
C1164 C1161 1.363 . S
C1164 N1162 1.356 . S
C1165 C1159 1.363 . S
C1165 C1160 1.379 . S
C1165 N1163 1.356 . S
N1166 C1158 1.356 . S
N1166 H1172 0.984 . S
N1166 H1173 0.984 . S
N1167 C1160 1.356 . S
N1167 H1170 0.984 . S
N1167 H1171 0.985 . S
H1168 N1163 0.984 . S
H1169 N1163 0.985 . S
H1170 N1167 0.984 . S
H1171 N1167 0.985 . S
H1172 N1166 0.984 . S
H1173 N1166 0.984 . S
H1174 N1162 0.984 . S
H1175 N1162 0.985 . S
C313 C107 1.270 . S
C315 C5 1.297 . S
C331 C16 1.298 . S
C333 C146 1.270 . S
C349 C31 1.298 . S
C351 C120 1.270 . S
C367 C44 1.298 . S
C369 C135 1.270 . S
C385 C55 1.297 . S
C387 C3 1.270 . S
C403 C18 1.270 . S
C405 C68 1.298 . S
C421 C83 1.298 . S
C423 C29 1.270 . S
C439 C42 1.270 . S
C441 C96 1.298 . S
C457 C57 1.270 . S
C459 C109 1.297 . S
C475 C81 1.270 . S
C477 C122 1.298 . S
C493 C133 1.298 . S
C495 C94 1.270 . S
C511 C70 1.270 . S
C513 C148 1.298 . S
C529 C263 1.270 . S
C531 C161 1.297 . S
C547 C172 1.298 . S
C549 C304 1.270 . S
C565 C187 1.298 . S
C567 C276 1.270 . S
C583 C289 1.270 . S
C585 C200 1.298 . S
C601 C211 1.297 . S
C603 C159 1.270 . S
C619 C174 1.270 . S
C621 C224 1.298 . S
C637 C185 1.270 . S
C639 C239 1.298 . S
C655 C252 1.298 . S
C657 C198 1.270 . S
C673 C265 1.297 . S
C675 C213 1.270 . S
C691 C237 1.270 . S
C693 C278 1.298 . S
C709 C250 1.270 . S
C711 C291 1.298 . S
C727 C302 1.298 . S
C729 C226 1.270 . S
C745 C296 1.492 . S
C747 C4 1.493 . S
C763 C283 1.492 1_556 S
C765 C23 1.493 . S
C781 C303 1.492 . S
C783 C30 1.493 . S
C799 C43 1.493 . S
C801 C270 1.492 1_554 S
C817 C62 1.493 . S
C819 C173 1.492 . S
C835 C166 1.492 1_455 S
C837 C75 1.493 . S
C853 C205 1.492 1_655 S
C855 C82 1.493 . S
C871 C192 1.492 . S
C873 C95 1.493 . S
C889 C108 1.493 . S
C891 C244 1.492 . S
C907 C212 1.492 1_545 S
C909 C121 1.493 . S
C925 C225 1.492 1_565 S
C927 C140 1.493 . S
C943 C257 1.492 . S
C945 C147 1.493 . S
C961 C134 1.492 . S
C963 C160 1.493 . S
C979 C127 1.492 1_554 S
C981 C179 1.493 . S
C997 C186 1.493 . S
C999 C153 1.492 . S
C1015 C114 1.492 1_556 S
C1017 C199 1.493 . S
C1033 C218 1.493 . S
C1035 C17 1.492 . S
C1051 C231 1.493 . S
C1053 C10 1.492 1_655 S
C1069 C238 1.493 . S
C1071 C49 1.492 1_455 S
C1087 C251 1.493 . S
C1089 C36 1.492 . S
C1105 C264 1.493 . S
C1107 C88 1.492 . S
C1123 C277 1.493 . S
C1125 C56 1.492 1_565 S
C1141 C69 1.492 1_545 S
C1143 C290 1.493 . S
C1159 C309 1.493 . S
C1161 C101 1.492 . S
