# Generated by pormake.
# Topology umu, (4)-cn, num edge types: 1
# Building blocks:
#     Node 0, Type 0, BuildingBlock: NAHDIM_clean_sbu_0, # of connection points: 4
#     Node 1, Type 0, BuildingBlock: NAHDIM_clean_sbu_0, # of connection points: 4
#     Node 2, Type 0, BuildingBlock: NAHDIM_clean_sbu_0, # of connection points: 4
#     Node 3, Type 0, BuildingBlock: NAHDIM_clean_sbu_0, # of connection points: 4
#     Node 4, Type 0, BuildingBlock: NAHDIM_clean_sbu_0, # of connection points: 4
#     Node 5, Type 0, BuildingBlock: NAHDIM_clean_sbu_0, # of connection points: 4
#     Node 6, Type 0, BuildingBlock: NAHDIM_clean_sbu_0, # of connection points: 4
#     Node 7, Type 0, BuildingBlock: NAHDIM_clean_sbu_0, # of connection points: 4
#     Node 8, Type 0, BuildingBlock: NAHDIM_clean_sbu_0, # of connection points: 4
#     Node 9, Type 0, BuildingBlock: NAHDIM_clean_sbu_0, # of connection points: 4
#     Node 10, Type 0, BuildingBlock: NAHDIM_clean_sbu_0, # of connection points: 4
#     Node 11, Type 0, BuildingBlock: NAHDIM_clean_sbu_0, # of connection points: 4
#     Node 12, Type 0, BuildingBlock: NAHDIM_clean_sbu_0, # of connection points: 4
#     Node 13, Type 0, BuildingBlock: NAHDIM_clean_sbu_0, # of connection points: 4
#     Node 14, Type 0, BuildingBlock: NAHDIM_clean_sbu_0, # of connection points: 4
#     Node 15, Type 0, BuildingBlock: NAHDIM_clean_sbu_0, # of connection points: 4
#     Node 16, Type 0, BuildingBlock: NAHDIM_clean_sbu_0, # of connection points: 4
#     Node 17, Type 0, BuildingBlock: NAHDIM_clean_sbu_0, # of connection points: 4
#     Node 18, Type 0, BuildingBlock: NAHDIM_clean_sbu_0, # of connection points: 4
#     Node 19, Type 0, BuildingBlock: NAHDIM_clean_sbu_0, # of connection points: 4
#     Node 20, Type 0, BuildingBlock: NAHDIM_clean_sbu_0, # of connection points: 4
#     Node 21, Type 0, BuildingBlock: NAHDIM_clean_sbu_0, # of connection points: 4
#     Node 22, Type 0, BuildingBlock: NAHDIM_clean_sbu_0, # of connection points: 4
#     Node 23, Type 0, BuildingBlock: NAHDIM_clean_sbu_0, # of connection points: 4
#     Node 24, Type 0, BuildingBlock: NAHDIM_clean_sbu_0, # of connection points: 4
#     Node 25, Type 0, BuildingBlock: NAHDIM_clean_sbu_0, # of connection points: 4
#     Node 26, Type 0, BuildingBlock: NAHDIM_clean_sbu_0, # of connection points: 4
#     Node 27, Type 0, BuildingBlock: NAHDIM_clean_sbu_0, # of connection points: 4
#     Node 28, Type 0, BuildingBlock: NAHDIM_clean_sbu_0, # of connection points: 4
#     Node 29, Type 0, BuildingBlock: NAHDIM_clean_sbu_0, # of connection points: 4
#     Node 30, Type 0, BuildingBlock: NAHDIM_clean_sbu_0, # of connection points: 4
#     Node 31, Type 0, BuildingBlock: NAHDIM_clean_sbu_0, # of connection points: 4
#     Edge 32, Type (0, 0), BuildingBlock: XUDNAN_clean_linker_2, # of connection points: 2
#     Edge 33, Type (0, 0), BuildingBlock: XUDNAN_clean_linker_2, # of connection points: 2
#     Edge 34, Type (0, 0), BuildingBlock: XUDNAN_clean_linker_2, # of connection points: 2
#     Edge 35, Type (0, 0), BuildingBlock: XUDNAN_clean_linker_2, # of connection points: 2
#     Edge 36, Type (0, 0), BuildingBlock: XUDNAN_clean_linker_2, # of connection points: 2
#     Edge 37, Type (0, 0), BuildingBlock: XUDNAN_clean_linker_2, # of connection points: 2
#     Edge 38, Type (0, 0), BuildingBlock: XUDNAN_clean_linker_2, # of connection points: 2
#     Edge 39, Type (0, 0), BuildingBlock: XUDNAN_clean_linker_2, # of connection points: 2
#     Edge 40, Type (0, 0), BuildingBlock: XUDNAN_clean_linker_2, # of connection points: 2
#     Edge 41, Type (0, 0), BuildingBlock: XUDNAN_clean_linker_2, # of connection points: 2
#     Edge 42, Type (0, 0), BuildingBlock: XUDNAN_clean_linker_2, # of connection points: 2
#     Edge 43, Type (0, 0), BuildingBlock: XUDNAN_clean_linker_2, # of connection points: 2
#     Edge 44, Type (0, 0), BuildingBlock: XUDNAN_clean_linker_2, # of connection points: 2
#     Edge 45, Type (0, 0), BuildingBlock: XUDNAN_clean_linker_2, # of connection points: 2
#     Edge 46, Type (0, 0), BuildingBlock: XUDNAN_clean_linker_2, # of connection points: 2
#     Edge 47, Type (0, 0), BuildingBlock: XUDNAN_clean_linker_2, # of connection points: 2
#     Edge 48, Type (0, 0), BuildingBlock: XUDNAN_clean_linker_2, # of connection points: 2
#     Edge 49, Type (0, 0), BuildingBlock: XUDNAN_clean_linker_2, # of connection points: 2
#     Edge 50, Type (0, 0), BuildingBlock: XUDNAN_clean_linker_2, # of connection points: 2
#     Edge 51, Type (0, 0), BuildingBlock: XUDNAN_clean_linker_2, # of connection points: 2
#     Edge 52, Type (0, 0), BuildingBlock: XUDNAN_clean_linker_2, # of connection points: 2
#     Edge 53, Type (0, 0), BuildingBlock: XUDNAN_clean_linker_2, # of connection points: 2
#     Edge 54, Type (0, 0), BuildingBlock: XUDNAN_clean_linker_2, # of connection points: 2
#     Edge 55, Type (0, 0), BuildingBlock: XUDNAN_clean_linker_2, # of connection points: 2
#     Edge 56, Type (0, 0), BuildingBlock: XUDNAN_clean_linker_2, # of connection points: 2
#     Edge 57, Type (0, 0), BuildingBlock: XUDNAN_clean_linker_2, # of connection points: 2
#     Edge 58, Type (0, 0), BuildingBlock: XUDNAN_clean_linker_2, # of connection points: 2
#     Edge 59, Type (0, 0), BuildingBlock: XUDNAN_clean_linker_2, # of connection points: 2
#     Edge 60, Type (0, 0), BuildingBlock: XUDNAN_clean_linker_2, # of connection points: 2
#     Edge 61, Type (0, 0), BuildingBlock: XUDNAN_clean_linker_2, # of connection points: 2
#     Edge 62, Type (0, 0), BuildingBlock: XUDNAN_clean_linker_2, # of connection points: 2
#     Edge 63, Type (0, 0), BuildingBlock: XUDNAN_clean_linker_2, # of connection points: 2
#     Edge 64, Type (0, 0), BuildingBlock: XUDNAN_clean_linker_2, # of connection points: 2
#     Edge 65, Type (0, 0), BuildingBlock: XUDNAN_clean_linker_2, # of connection points: 2
#     Edge 66, Type (0, 0), BuildingBlock: XUDNAN_clean_linker_2, # of connection points: 2
#     Edge 67, Type (0, 0), BuildingBlock: XUDNAN_clean_linker_2, # of connection points: 2
#     Edge 68, Type (0, 0), BuildingBlock: XUDNAN_clean_linker_2, # of connection points: 2
#     Edge 69, Type (0, 0), BuildingBlock: XUDNAN_clean_linker_2, # of connection points: 2
#     Edge 70, Type (0, 0), BuildingBlock: XUDNAN_clean_linker_2, # of connection points: 2
#     Edge 71, Type (0, 0), BuildingBlock: XUDNAN_clean_linker_2, # of connection points: 2
#     Edge 72, Type (0, 0), BuildingBlock: XUDNAN_clean_linker_2, # of connection points: 2
#     Edge 73, Type (0, 0), BuildingBlock: XUDNAN_clean_linker_2, # of connection points: 2
#     Edge 74, Type (0, 0), BuildingBlock: XUDNAN_clean_linker_2, # of connection points: 2
#     Edge 75, Type (0, 0), BuildingBlock: XUDNAN_clean_linker_2, # of connection points: 2
#     Edge 76, Type (0, 0), BuildingBlock: XUDNAN_clean_linker_2, # of connection points: 2
#     Edge 77, Type (0, 0), BuildingBlock: XUDNAN_clean_linker_2, # of connection points: 2
#     Edge 78, Type (0, 0), BuildingBlock: XUDNAN_clean_linker_2, # of connection points: 2
#     Edge 79, Type (0, 0), BuildingBlock: XUDNAN_clean_linker_2, # of connection points: 2
#     Edge 80, Type (0, 0), BuildingBlock: XUDNAN_clean_linker_2, # of connection points: 2
#     Edge 81, Type (0, 0), BuildingBlock: XUDNAN_clean_linker_2, # of connection points: 2
#     Edge 82, Type (0, 0), BuildingBlock: XUDNAN_clean_linker_2, # of connection points: 2
#     Edge 83, Type (0, 0), BuildingBlock: XUDNAN_clean_linker_2, # of connection points: 2
#     Edge 84, Type (0, 0), BuildingBlock: XUDNAN_clean_linker_2, # of connection points: 2
#     Edge 85, Type (0, 0), BuildingBlock: XUDNAN_clean_linker_2, # of connection points: 2
#     Edge 86, Type (0, 0), BuildingBlock: XUDNAN_clean_linker_2, # of connection points: 2
#     Edge 87, Type (0, 0), BuildingBlock: XUDNAN_clean_linker_2, # of connection points: 2
#     Edge 88, Type (0, 0), BuildingBlock: XUDNAN_clean_linker_2, # of connection points: 2
#     Edge 89, Type (0, 0), BuildingBlock: XUDNAN_clean_linker_2, # of connection points: 2
#     Edge 90, Type (0, 0), BuildingBlock: XUDNAN_clean_linker_2, # of connection points: 2
#     Edge 91, Type (0, 0), BuildingBlock: XUDNAN_clean_linker_2, # of connection points: 2
#     Edge 92, Type (0, 0), BuildingBlock: XUDNAN_clean_linker_2, # of connection points: 2
#     Edge 93, Type (0, 0), BuildingBlock: XUDNAN_clean_linker_2, # of connection points: 2
#     Edge 94, Type (0, 0), BuildingBlock: XUDNAN_clean_linker_2, # of connection points: 2
#     Edge 95, Type (0, 0), BuildingBlock: XUDNAN_clean_linker_2, # of connection points: 2
# Relax obj value: 0.142
# Max RMSD: 0.102
# Mean RMSD: 0.102
data_MOF--net-umu--node1-NAHDIM_clean_sbu_0--edge1-XUDNAN_clean_linker_2
_symmetry_space_group_name_H-M    P1
_symmetry_Int_Tables_number       1
_symmetry_cell_setting            triclinic
loop_
_symmetry_equiv_pos_as_xyz
'x, y, z'
_cell_length_a     87.392545
_cell_length_b     87.422989
_cell_length_c     23.474416
_cell_angle_alpha  90.016743
_cell_angle_beta   90.008136
_cell_angle_gamma 89.999
loop_
_atom_site_label
_atom_site_type_symbol
_atom_site_fract_x
_atom_site_fract_y
_atom_site_fract_z
_atom_type_partial_charge
C0 C 0.17382 0.14648 0.0087 0.0
O1 O 0.1879 0.14142 0.00349 0.0
O2 O 0.19953 0.16483 0.1307 0.0
Zn3 Zn 0.18913 0.17232 0.059 0.0
O4 O 0.20517 0.17154 0.99779 0.0
C5 C 0.19079 0.20488 0.07859 0.0
O6 O 0.20539 0.20185 0.0856 0.0
O7 O 0.17148 0.15915 0.0338 0.0
C8 C 0.20619 0.18086 0.95644 0.0
O9 O 0.19614 0.19196 0.9516 0.0
C10 C 0.19862 0.17165 0.17841 0.0
O11 O 0.18919 0.18326 0.1839 0.0
O12 O 0.18162 0.19399 0.06771 0.0
C13 C 0.11745 0.94084 0.2475 0.0
O14 O 0.1188 0.95572 0.25361 0.0
O15 O 0.09457 0.96078 0.35365 0.0
Zn16 Zn 0.08837 0.94982 0.28129 0.0
O17 O 0.08811 0.96515 0.21754 0.0
C18 C 0.05815 0.94417 0.3272 0.0
O19 O 0.06273 0.95403 0.36576 0.0
O20 O 0.1047 0.93461 0.25952 0.0
C21 C 0.07636 0.97042 0.19244 0.0
O22 O 0.06268 0.96595 0.20849 0.0
C23 C 0.0908 0.97469 0.36112 0.0
O24 O 0.08266 0.98165 0.32187 0.0
O25 O 0.06738 0.94012 0.28809 0.0
C26 C 0.30984 0.8651 0.50331 0.0
O27 O 0.29485 0.86488 0.50764 0.0
O28 O 0.2956 0.8425 0.63295 0.0
Zn29 Zn 0.30489 0.83668 0.55679 0.0
O30 O 0.28799 0.8322 0.50095 0.0
C31 C 0.31392 0.80765 0.60301 0.0
O32 O 0.30372 0.81143 0.64162 0.0
O33 O 0.31744 0.85397 0.52368 0.0
C34 C 0.2782 0.82163 0.50849 0.0
O35 O 0.27895 0.81318 0.55465 0.0
C36 C 0.28184 0.84716 0.63671 0.0
O37 O 0.27384 0.8492 0.58998 0.0
O38 O 0.31712 0.81716 0.56378 0.0
C39 C 0.40518 0.08919 0.74123 0.0
O40 O 0.41837 0.08592 0.7173 0.0
O41 O 0.4079 0.05393 0.88103 0.0
Zn42 Zn 0.41417 0.06361 0.80664 0.0
O43 O 0.41168 0.04763 0.74579 0.0
C44 C 0.44547 0.06075 0.83669 0.0
O45 O 0.43996 0.04821 0.8598 0.0
O46 O 0.40084 0.08139 0.78399 0.0
C47 C 0.42141 0.04491 0.70688 0.0
O48 O 0.43422 0.05275 0.70534 0.0
C49 C 0.39642 0.04502 0.88319 0.0
O50 O 0.38779 0.04343 0.83774 0.0
O51 O 0.43636 0.06978 0.81126 0.0
C52 C 0.19123 0.86659 0.09406 0.0
O53 O 0.20604 0.86822 0.08641 0.0
O54 O 0.21608 0.84145 0.0185 0.0
Zn55 Zn 0.2001 0.83592 0.07687 0.0
O56 O 0.21116 0.832 0.15035 0.0
C57 C 0.19829 0.80564 0.03829 0.0
O58 O 0.21312 0.80809 0.03747 0.0
O59 O 0.18543 0.85331 0.09014 0.0
C60 C 0.20619 0.82275 0.18777 0.0
O61 O 0.19328 0.81545 0.17867 0.0
C62 C 0.21315 0.84333 0.96597 0.0
O63 O 0.19895 0.8421 0.94819 0.0
O64 O 0.18948 0.81649 0.05321 0.0
C65 C 0.37643 0.94021 0.31413 0.0
O66 O 0.37324 0.9545 0.30137 0.0
O67 O 0.39921 0.96454 0.2262 0.0
Zn68 Zn 0.4056 0.95252 0.2957 0.0
O69 O 0.40504 0.96648 0.36349 0.0
C70 C 0.43094 0.93705 0.24099 0.0
O71 O 0.42072 0.93435 0.20119 0.0
O72 O 0.3903 0.93585 0.31248 0.0
C73 C 0.41639 0.97387 0.38313 0.0
O74 O 0.42976 0.97276 0.35791 0.0
C75 C 0.4073 0.97576 0.20944 0.0
O76 O 0.41998 0.97903 0.23696 0.0
O77 O 0.42694 0.94429 0.2855 0.0
C78 C 0.3211 0.15319 0.59848 0.0
O79 O 0.3086 0.14994 0.62705 0.0
O80 O 0.28863 0.16968 0.48734 0.0
Zn81 Zn 0.30179 0.17693 0.5529 0.0
O82 O 0.2893 0.17536 0.62468 0.0
C83 C 0.31554 0.20258 0.49588 0.0
O84 O 0.31945 0.19194 0.45913 0.0
O85 O 0.32083 0.16404 0.56237 0.0
C86 C 0.2813 0.18606 0.64599 0.0
O87 O 0.28101 0.19951 0.62109 0.0
C88 C 0.27692 0.17775 0.47585 0.0
O89 O 0.27444 0.19024 0.50555 0.0
O90 O 0.30793 0.19883 0.53982 0.0
C91 C 0.10392 0.07786 0.80377 0.0
O92 O 0.11008 0.06415 0.80345 0.0
O93 O 0.08598 0.04906 0.69991 0.0
Zn94 Zn 0.07821 0.06027 0.7695 0.0
O95 O 0.08075 0.04652 0.83731 0.0
C96 C 0.05046 0.06937 0.71137 0.0
O97 O 0.05982 0.07164 0.66843 0.0
O98 O 0.09015 0.07941 0.78727 0.0
C99 C 0.07006 0.04007 0.86502 0.0
O100 O 0.05577 0.04223 0.84962 0.0
C101 C 0.09534 0.03798 0.7047 0.0
O102 O 0.10078 0.03454 0.75524 0.0
O103 O 0.05585 0.06492 0.75884 0.0
C104 C 0.80957 0.86506 0.07435 0.0
O105 O 0.79601 0.86916 0.09316 0.0
O106 O 0.77827 0.84736 0.96908 0.0
Zn107 Zn 0.79232 0.83965 0.03139 0.0
O108 O 0.78119 0.83761 0.10612 0.0
C109 C 0.7889 0.8085 0.00289 0.0
O110 O 0.77452 0.81258 0.00878 0.0
O111 O 0.81074 0.85305 0.04415 0.0
C112 C 0.78783 0.83029 0.14582 0.0
O113 O 0.80157 0.8247 0.13665 0.0
C114 C 0.76401 0.84914 0.97777 0.0
O115 O 0.75857 0.84708 0.02935 0.0
O116 O 0.79927 0.81853 0.00959 0.0
C117 C 0.88805 0.06595 0.83986 0.0
O118 O 0.88331 0.05189 0.84883 0.0
O119 O 0.90435 0.03751 0.73021 0.0
Zn120 Zn 0.91352 0.04964 0.79474 0.0
O121 O 0.91514 0.03685 0.86551 0.0
C122 C 0.9386 0.06144 0.72551 0.0
O123 O 0.92803 0.06312 0.68617 0.0
O124 O 0.90072 0.06803 0.81446 0.0
C125 C 0.92149 0.04337 0.90775 0.0
O126 O 0.92643 0.05748 0.90189 0.0
C127 C 0.91125 0.02555 0.71318 0.0
O128 O 0.92389 0.02134 0.73911 0.0
O129 O 0.93486 0.05615 0.77396 0.0
C130 C 0.68896 0.13395 0.61988 0.0
O131 O 0.70387 0.13315 0.61325 0.0
O132 O 0.70745 0.15598 0.50974 0.0
Zn133 Zn 0.69655 0.16293 0.58086 0.0
O134 O 0.71188 0.16579 0.64369 0.0
C135 C 0.68085 0.18762 0.52044 0.0
O136 O 0.68163 0.17839 0.47637 0.0
O137 O 0.68218 0.14634 0.60693 0.0
C138 C 0.70708 0.17098 0.69096 0.0
O139 O 0.69254 0.17457 0.69604 0.0
C140 C 0.7208 0.1608 0.49804 0.0
O141 O 0.72735 0.17073 0.53229 0.0
O142 O 0.68598 0.18315 0.56829 0.0
C143 C 0.59552 0.91883 0.32219 0.0
O144 O 0.60035 0.93203 0.34194 0.0
O145 O 0.57779 0.95034 0.22138 0.0
Zn146 Zn 0.57074 0.9379 0.28883 0.0
O147 O 0.5742 0.95014 0.36016 0.0
C148 C 0.54275 0.92706 0.23697 0.0
O149 O 0.55212 0.92243 0.19672 0.0
O150 O 0.58285 0.91831 0.29556 0.0
C151 C 0.56481 0.95975 0.38068 0.0
O152 O 0.55162 0.96196 0.35517 0.0
C153 C 0.58808 0.96053 0.22685 0.0
O154 O 0.59458 0.96251 0.27678 0.0
O155 O 0.54821 0.93363 0.28077 0.0
C156 C 0.8197 0.13699 0.04117 0.0
O157 O 0.80664 0.1302 0.0524 0.0
O158 O 0.7954 0.15539 0.16046 0.0
Zn159 Zn 0.80474 0.164 0.08876 0.0
O160 O 0.78756 0.16707 0.03276 0.0
C161 C 0.81645 0.19392 0.06737 0.0
O162 O 0.81533 0.18914 0.01447 0.0
O163 O 0.82144 0.15097 0.05448 0.0
C164 C 0.78815 0.16451 0.97953 0.0
O165 O 0.80088 0.15935 0.95686 0.0
C166 C 0.78367 0.14682 0.15772 0.0
O167 O 0.7788 0.14223 0.1076 0.0
O168 O 0.81302 0.18482 0.10754 0.0
C169 C 0.61765 0.05784 0.77697 0.0
O170 O 0.61987 0.04326 0.78774 0.0
O171 O 0.59346 0.03697 0.87404 0.0
Zn172 Zn 0.58785 0.04788 0.8008 0.0
O173 O 0.58747 0.03244 0.73703 0.0
C174 C 0.55683 0.05157 0.83814 0.0
O175 O 0.56025 0.03897 0.86573 0.0
O176 O 0.60419 0.06321 0.78113 0.0
C177 C 0.57598 0.02978 0.70532 0.0
O178 O 0.56326 0.03749 0.71319 0.0
C179 C 0.59054 0.0228 0.87988 0.0
O180 O 0.58393 0.01539 0.83787 0.0
O181 O 0.56707 0.05797 0.80793 0.0
C182 C 0.6651 0.83815 0.45537 0.0
O183 O 0.6672 0.82408 0.43735 0.0
O184 O 0.69734 0.83753 0.60367 0.0
Zn185 Zn 0.69045 0.82999 0.52601 0.0
O186 O 0.7079 0.83009 0.4698 0.0
C187 C 0.68703 0.79923 0.57145 0.0
O188 O 0.69632 0.80432 0.6112 0.0
O189 O 0.67368 0.84336 0.49457 0.0
C190 C 0.71916 0.82099 0.47517 0.0
O191 O 0.71956 0.81164 0.51894 0.0
C192 C 0.7105 0.84324 0.61292 0.0
O193 O 0.72004 0.84503 0.57023 0.0
O194 O 0.68278 0.80825 0.53203 0.0
C195 C 0.88758 0.93082 0.25026 0.0
O196 O 0.88131 0.94387 0.26514 0.0
O197 O 0.90911 0.95474 0.36164 0.0
Zn198 Zn 0.91582 0.94568 0.28616 0.0
O199 O 0.91638 0.96248 0.22771 0.0
C200 C 0.94659 0.94215 0.33064 0.0
O201 O 0.9417 0.95187 0.36924 0.0
O202 O 0.90188 0.92893 0.25729 0.0
C203 C 0.92377 0.97465 0.23857 0.0
O204 O 0.93066 0.97601 0.28805 0.0
C205 C 0.89959 0.96573 0.36365 0.0
O206 O 0.89323 0.97055 0.31625 0.0
O207 O 0.9374 0.93753 0.29233 0.0
C208 C 0.69087 0.63296 0.44869 0.0
O209 O 0.7059 0.63292 0.44754 0.0
O210 O 0.70528 0.65156 0.59211 0.0
Zn211 Zn 0.69742 0.65905 0.51574 0.0
O212 O 0.71482 0.66338 0.46172 0.0
C213 C 0.68964 0.68795 0.56654 0.0
O214 O 0.69972 0.68336 0.60438 0.0
O215 O 0.68403 0.64314 0.47789 0.0
C216 C 0.72428 0.67431 0.46737 0.0
O217 O 0.72327 0.68337 0.51185 0.0
C218 C 0.71932 0.64859 0.60121 0.0
O219 O 0.72912 0.64952 0.55895 0.0
O220 O 0.68612 0.67905 0.5257 0.0
C221 C 0.61977 0.4244 0.76687 0.0
O222 O 0.62271 0.43805 0.78763 0.0
O223 O 0.59542 0.44326 0.86985 0.0
Zn224 Zn 0.59017 0.43499 0.79197 0.0
O225 O 0.59055 0.4526 0.7371 0.0
C226 C 0.56252 0.42042 0.83543 0.0
O227 O 0.57024 0.41956 0.88336 0.0
O228 O 0.60597 0.41983 0.76541 0.0
C229 C 0.58391 0.45174 0.68906 0.0
O230 O 0.57666 0.4391 0.67532 0.0
C231 C 0.58891 0.45556 0.88565 0.0
O232 O 0.57884 0.46197 0.8516 0.0
O233 O 0.56893 0.42608 0.79165 0.0
C234 C 0.81536 0.35788 0.97076 0.0
O235 O 0.8014 0.36216 0.95746 0.0
O236 O 0.78408 0.33544 0.05801 0.0
Zn237 Zn 0.80047 0.32957 0.00184 0.0
O238 O 0.79005 0.32669 0.92649 0.0
C239 C 0.81262 0.30498 0.07337 0.0
O240 O 0.81105 0.31469 0.11565 0.0
O241 O 0.81746 0.34479 0.9929 0.0
C242 C 0.78077 0.31554 0.92281 0.0
O243 O 0.77864 0.30677 0.96757 0.0
C244 C 0.78506 0.34294 0.10423 0.0
O245 O 0.79836 0.34847 0.12029 0.0
O246 O 0.80917 0.30913 0.02314 0.0
C247 C 0.88801 0.57509 0.27011 0.0
O248 O 0.88205 0.56138 0.27562 0.0
O249 O 0.90595 0.55076 0.38899 0.0
Zn250 Zn 0.91406 0.55955 0.31493 0.0
O251 O 0.91311 0.54336 0.25443 0.0
C252 C 0.94589 0.55546 0.33494 0.0
O253 O 0.94127 0.5412 0.33848 0.0
O254 O 0.90166 0.57737 0.28681 0.0
C255 C 0.92012 0.54449 0.20727 0.0
O256 O 0.9283 0.55678 0.19677 0.0
C257 C 0.90641 0.53632 0.39586 0.0
O258 O 0.9115 0.52769 0.35418 0.0
O259 O 0.93607 0.56587 0.32528 0.0
C260 C 0.68864 0.35284 0.56965 0.0
O261 O 0.70353 0.35142 0.57472 0.0
O262 O 0.70359 0.33166 0.43006 0.0
Zn263 Zn 0.69368 0.32581 0.50492 0.0
O264 O 0.70935 0.31895 0.56282 0.0
C265 C 0.67772 0.29833 0.53237 0.0
O266 O 0.68147 0.30278 0.584 0.0
O267 O 0.68136 0.34313 0.53969 0.0
C268 C 0.72353 0.32203 0.56649 0.0
O269 O 0.73001 0.33086 0.52827 0.0
C270 C 0.71223 0.34305 0.4199 0.0
O271 O 0.71528 0.35292 0.46051 0.0
O272 O 0.68073 0.30709 0.49059 0.0
C273 C 0.88949 0.43262 0.82448 0.0
O274 O 0.88335 0.44633 0.82503 0.0
O275 O 0.90972 0.46288 0.73536 0.0
Zn276 Zn 0.91691 0.44964 0.80066 0.0
O277 O 0.91614 0.46156 0.87361 0.0
C278 C 0.94776 0.45007 0.75528 0.0
O279 O 0.94279 0.46232 0.72865 0.0
O280 O 0.90358 0.43119 0.81221 0.0
C281 C 0.92349 0.47388 0.88203 0.0
O282 O 0.93224 0.47936 0.84136 0.0
C283 C 0.90133 0.4746 0.74293 0.0
O284 O 0.89636 0.47778 0.79439 0.0
O285 O 0.93866 0.44276 0.7876 0.0
C286 C 0.81562 0.6412 0.06573 0.0
O287 O 0.80168 0.63611 0.07469 0.0
O288 O 0.78592 0.657 0.95865 0.0
Zn289 Zn 0.79861 0.66624 0.02194 0.0
O290 O 0.78651 0.66796 0.09455 0.0
C291 C 0.79329 0.69686 0.99238 0.0
O292 O 0.77925 0.69162 0.99704 0.0
O293 O 0.81738 0.65391 0.04027 0.0
C294 C 0.79203 0.67629 0.13392 0.0
O295 O 0.80516 0.68324 0.12537 0.0
C296 C 0.77244 0.652 0.9671 0.0
O297 O 0.76692 0.65194 0.01914 0.0
O298 O 0.80439 0.68767 0.99963 0.0
C299 C 0.61874 0.56174 0.26823 0.0
O300 O 0.6216 0.54959 0.23714 0.0
O301 O 0.59313 0.53199 0.22016 0.0
Zn302 Zn 0.58941 0.54684 0.28476 0.0
O303 O 0.58974 0.53547 0.35901 0.0
C304 C 0.56424 0.56143 0.22692 0.0
O305 O 0.57416 0.56231 0.185 0.0
O306 O 0.60555 0.56332 0.29025 0.0
C307 C 0.58184 0.52349 0.36758 0.0
O308 O 0.57303 0.51826 0.32661 0.0
C309 C 0.60138 0.52008 0.2254 0.0
O310 O 0.60853 0.5176 0.27376 0.0
O311 O 0.56843 0.55576 0.27424 0.0
C312 C 0.31549 0.36758 0.58433 0.0
O313 O 0.30054 0.36836 0.5891 0.0
O314 O 0.29681 0.34576 0.44957 0.0
Zn315 Zn 0.30622 0.34087 0.526 0.0
O316 O 0.28947 0.33969 0.58409 0.0
C317 C 0.32134 0.31426 0.4776 0.0
O318 O 0.32309 0.32307 0.43276 0.0
O319 O 0.3213 0.35677 0.55505 0.0
C320 C 0.27735 0.33177 0.58006 0.0
O321 O 0.27502 0.32343 0.53432 0.0
C322 C 0.29093 0.35851 0.43558 0.0
O323 O 0.29155 0.37003 0.4714 0.0
O324 O 0.31527 0.31976 0.52231 0.0
C325 C 0.39975 0.56578 0.32067 0.0
O326 O 0.39298 0.55258 0.3118 0.0
O327 O 0.41779 0.54048 0.20695 0.0
Zn328 Zn 0.42637 0.54967 0.27902 0.0
O329 O 0.42697 0.53351 0.34049 0.0
C330 C 0.45252 0.56286 0.21822 0.0
O331 O 0.4428 0.56498 0.17624 0.0
O332 O 0.4138 0.56728 0.3079 0.0
C333 C 0.43955 0.52766 0.35681 0.0
O334 O 0.45237 0.53203 0.33255 0.0
C335 C 0.42423 0.52832 0.18934 0.0
O336 O 0.43571 0.52267 0.21873 0.0
O337 O 0.44784 0.55697 0.26451 0.0
C338 C 0.18512 0.64109 0.04442 0.0
O339 O 0.19796 0.63384 0.03357 0.0
O340 O 0.21038 0.6592 0.92805 0.0
Zn341 Zn 0.20205 0.66721 0.0026 0.0
O342 O 0.21896 0.66675 0.06041 0.0
C343 C 0.18351 0.69532 0.00222 0.0
O344 O 0.17201 0.6865 0.01693 0.0
O345 O 0.18407 0.65522 0.03235 0.0
C346 C 0.21669 0.66506 0.11344 0.0
O347 O 0.20265 0.66344 0.13244 0.0
C348 C 0.22279 0.65159 0.92714 0.0
O349 O 0.22931 0.64779 0.97552 0.0
O350 O 0.19658 0.68941 0.99317 0.0
C351 C 0.11392 0.44308 0.8508 0.0
O352 O 0.11465 0.45808 0.85259 0.0
O353 O 0.09711 0.46086 0.71182 0.0
Zn354 Zn 0.0886 0.45157 0.78468 0.0
O355 O 0.0847 0.46748 0.84531 0.0
C356 C 0.0591 0.44753 0.73407 0.0
O357 O 0.06382 0.45923 0.70368 0.0
O358 O 0.10367 0.43681 0.82017 0.0
C359 C 0.07485 0.47816 0.84509 0.0
O360 O 0.06603 0.48015 0.8004 0.0
C361 C 0.09949 0.47514 0.70619 0.0
O362 O 0.0971 0.48428 0.74963 0.0
O363 O 0.06821 0.44151 0.76986 0.0
C364 C 0.32785 0.63932 0.48892 0.0
O365 O 0.31381 0.63502 0.47693 0.0
O366 O 0.297 0.6611 0.57498 0.0
Zn367 Zn 0.31258 0.66738 0.51619 0.0
O368 O 0.30178 0.66802 0.44021 0.0
C369 C 0.31554 0.69698 0.57227 0.0
O370 O 0.3051 0.69143 0.60679 0.0
O371 O 0.33009 0.65261 0.50927 0.0
C372 C 0.28861 0.66207 0.43386 0.0
O373 O 0.28205 0.65522 0.4772 0.0
C374 C 0.29864 0.65488 0.62344 0.0
O375 O 0.31244 0.65169 0.6422 0.0
O376 O 0.32058 0.68865 0.532 0.0
C377 C 0.11426 0.57265 0.24558 0.0
O378 O 0.11747 0.5585 0.23098 0.0
O379 O 0.09599 0.544 0.3552 0.0
Zn380 Zn 0.08816 0.55762 0.29178 0.0
O381 O 0.08494 0.54643 0.21769 0.0
C382 C 0.05774 0.55524 0.32903 0.0
O383 O 0.06228 0.54094 0.33225 0.0
O384 O 0.10232 0.57524 0.27497 0.0
C385 C 0.08294 0.5322 0.20972 0.0
O386 O 0.08328 0.52274 0.25312 0.0
C387 C 0.10582 0.53333 0.35087 0.0
O388 O 0.11243 0.53076 0.30154 0.0
O389 O 0.06733 0.56539 0.31397 0.0
C390 C 0.17999 0.3692 0.04743 0.0
O391 O 0.18962 0.37133 0.08967 0.0
O392 O 0.21398 0.35067 0.08467 0.0
Zn393 Zn 0.19832 0.34211 0.02999 0.0
O394 O 0.20784 0.33807 0.95372 0.0
C395 C 0.17855 0.31551 0.04764 0.0
O396 O 0.16835 0.32317 0.01806 0.0
O397 O 0.18104 0.3571 0.01771 0.0
C398 C 0.2196 0.34497 0.93515 0.0
O399 O 0.2262 0.35541 0.96703 0.0
C400 C 0.22428 0.34214 0.10588 0.0
O401 O 0.22489 0.32769 0.09054 0.0
O402 O 0.19131 0.32172 0.05919 0.0
C403 C 0.39383 0.42788 0.78495 0.0
O404 O 0.39248 0.4371 0.82884 0.0
O405 O 0.42012 0.4542 0.84832 0.0
Zn406 Zn 0.4247 0.44012 0.78204 0.0
O407 O 0.43075 0.45314 0.71513 0.0
C408 C 0.45315 0.42414 0.76663 0.0
O409 O 0.45062 0.42773 0.71311 0.0
O410 O 0.40665 0.42689 0.7597 0.0
C411 C 0.42148 0.45781 0.67722 0.0
O412 O 0.40692 0.45425 0.68111 0.0
C413 C 0.41197 0.4662 0.84413 0.0
O414 O 0.40545 0.46946 0.7952 0.0
O415 O 0.44312 0.42749 0.80381 0.0
H416 H 0.13396 0.07858 0.83684 0.0
H417 H 0.09276 0.10629 0.83078 0.0
H418 H 0.10612 0.12686 0.88314 0.0
H419 H 0.1454 0.08874 0.97624 0.0
H420 H 0.16557 0.08917 0.96035 0.0
H421 H 0.15303 0.0769 0.92013 0.0
H422 H 0.16209 0.08951 0.82609 0.0
H423 H 0.1748 0.1017 0.86595 0.0
H424 H 0.16092 0.10999 0.8183 0.0
H425 H 0.12355 0.14372 0.94132 0.0
H426 H 0.14441 0.1566 0.99368 0.0
H427 H 0.17431 0.11799 0.95971 0.0
C428 C 0.12777 0.08903 0.84592 0.0
C429 C 0.1123 0.09082 0.82975 0.0
C430 C 0.10463 0.10468 0.84253 0.0
C431 C 0.11211 0.11641 0.87246 0.0
C432 C 0.12727 0.11412 0.88886 0.0
C433 C 0.13507 0.10086 0.8754 0.0
C434 C 0.15128 0.10121 0.89816 0.0
C435 C 0.15397 0.08824 0.94128 0.0
C436 C 0.16296 0.10057 0.8492 0.0
C437 C 0.15134 0.11669 0.92705 0.0
C438 C 0.13736 0.12393 0.92144 0.0
C439 C 0.13458 0.13821 0.94562 0.0
C440 C 0.14648 0.1454 0.97553 0.0
C441 C 0.16101 0.13832 0.98072 0.0
C442 C 0.16337 0.12373 0.95637 0.0
H443 H 0.11876 0.90978 0.22666 0.0
H444 H 0.14522 0.95171 0.21353 0.0
H445 H 0.16646 0.93735 0.17021 0.0
H446 H 0.15056 0.88525 0.2627 0.0
H447 H 0.14355 0.86923 0.22198 0.0
H448 H 0.13028 0.88281 0.25181 0.0
H449 H 0.11879 0.88745 0.15151 0.0
H450 H 0.1321 0.87396 0.12134 0.0
H451 H 0.13118 0.8932 0.09398 0.0
H452 H 0.18486 0.91872 0.12876 0.0
H453 H 0.19973 0.89661 0.09438 0.0
H454 H 0.16155 0.86659 0.13354 0.0
C455 C 0.12904 0.91593 0.21481 0.0
C456 C 0.1303 0.93188 0.22355 0.0
C457 C 0.14395 0.93949 0.20741 0.0
C458 C 0.15609 0.93145 0.18259 0.0
C459 C 0.15444 0.91578 0.17418 0.0
C460 C 0.14132 0.90806 0.18996 0.0
C461 C 0.14265 0.89113 0.17674 0.0
C462 C 0.14171 0.88154 0.23157 0.0
C463 C 0.13046 0.88615 0.1333 0.0
C464 C 0.15856 0.89059 0.15112 0.0
C465 C 0.16513 0.90497 0.15001 0.0
C466 C 0.17985 0.9074 0.12931 0.0
C467 C 0.18821 0.89476 0.10986 0.0
C468 C 0.18181 0.87988 0.11116 0.0
C469 C 0.16672 0.87784 0.13157 0.0
H470 H 0.37941 0.91205 0.36592 0.0
H471 H 0.34569 0.9454 0.3107 0.0
H472 H 0.32517 0.9296 0.35199 0.0
H473 H 0.35588 0.87807 0.34112 0.0
H474 H 0.36291 0.86831 0.40347 0.0
H475 H 0.37496 0.88183 0.3668 0.0
H476 H 0.37862 0.89691 0.46083 0.0
H477 H 0.36649 0.88352 0.49768 0.0
H478 H 0.36205 0.90365 0.49907 0.0
H479 H 0.30844 0.911 0.40227 0.0
H480 H 0.29625 0.89017 0.45626 0.0
H481 H 0.34062 0.8687 0.48021 0.0
C482 C 0.36769 0.91592 0.3618 0.0
C483 C 0.36416 0.92996 0.33491 0.0
C484 C 0.34869 0.9347 0.33105 0.0
C485 C 0.33694 0.9258 0.35438 0.0
C486 C 0.34082 0.91218 0.38148 0.0
C487 C 0.35578 0.90719 0.38513 0.0
C488 C 0.35681 0.89229 0.41806 0.0
C489 C 0.363 0.87936 0.38008 0.0
C490 C 0.36657 0.89422 0.47211 0.0
C491 C 0.34009 0.88979 0.43264 0.0
C492 C 0.3311 0.90141 0.41097 0.0
C493 C 0.31534 0.90178 0.41925 0.0
C494 C 0.30853 0.8899 0.45014 0.0
C495 C 0.31746 0.87777 0.47253 0.0
C496 C 0.33348 0.87779 0.46371 0.0
H497 H 0.37506 0.09506 0.76679 0.0
H498 H 0.41219 0.10932 0.65598 0.0
H499 H 0.39481 0.12739 0.60766 0.0
H500 H 0.34597 0.09577 0.66121 0.0
H501 H 0.33131 0.10286 0.7083 0.0
H502 H 0.34684 0.09163 0.73638 0.0
H503 H 0.35353 0.11334 0.80733 0.0
H504 H 0.33793 0.1246 0.7798 0.0
H505 H 0.35703 0.13237 0.78075 0.0
H506 H 0.37315 0.14339 0.56943 0.0
H507 H 0.34893 0.1565 0.54563 0.0
H508 H 0.32595 0.1314 0.6804 0.0
C509 C 0.3796 0.10211 0.73285 0.0
C510 C 0.39501 0.10081 0.71532 0.0
C511 C 0.40044 0.11013 0.67024 0.0
C512 C 0.39065 0.12043 0.64248 0.0
C513 C 0.37546 0.12125 0.6602 0.0
C514 C 0.36997 0.11239 0.70447 0.0
C515 C 0.35308 0.11518 0.71426 0.0
C516 C 0.34376 0.10048 0.70443 0.0
C517 C 0.35023 0.12177 0.77408 0.0
C518 C 0.34992 0.12694 0.66843 0.0
C519 C 0.36297 0.13033 0.63779 0.0
C520 C 0.36285 0.14086 0.59322 0.0
C521 C 0.34903 0.14822 0.57994 0.0
C522 C 0.33552 0.14497 0.61103 0.0
C523 C 0.33604 0.13412 0.65564 0.0
H524 H 0.81101 0.89196 0.13436 0.0
H525 H 0.83951 0.85693 0.05725 0.0
H526 H 0.86256 0.86982 0.09455 0.0
H527 H 0.8367 0.92375 0.1068 0.0
H528 H 0.83236 0.93312 0.17328 0.0
H529 H 0.81817 0.92128 0.1393 0.0
H530 H 0.81577 0.90516 0.23151 0.0
H531 H 0.83005 0.91686 0.26559 0.0
H532 H 0.83263 0.89643 0.2616 0.0
H533 H 0.88243 0.88587 0.14408 0.0
H534 H 0.89782 0.90497 0.19626 0.0
H535 H 0.85635 0.9298 0.2391 0.0
C536 C 0.82209 0.88705 0.12489 0.0
C537 C 0.82344 0.87342 0.09289 0.0
C538 C 0.83818 0.86738 0.0815 0.0
C539 C 0.85134 0.87459 0.10267 0.0
C540 C 0.84959 0.88787 0.13482 0.0
C541 C 0.83535 0.89414 0.14538 0.0
C542 C 0.83661 0.90852 0.18105 0.0
C543 C 0.83061 0.9225 0.14813 0.0
C544 C 0.82827 0.90662 0.23833 0.0
C545 C 0.85377 0.90931 0.18921 0.0
C546 C 0.86105 0.89726 0.16247 0.0
C547 C 0.87687 0.89541 0.1649 0.0
C548 C 0.88551 0.90629 0.19485 0.0
C549 C 0.8783 0.91891 0.22167 0.0
C550 C 0.86221 0.92033 0.2189 0.0
H551 H 0.86017 0.06537 0.8934 0.0
H552 H 0.89654 0.09614 0.84102 0.0
H553 H 0.88299 0.11767 0.88676 0.0
H554 H 0.82888 0.09216 0.87229 0.0
H555 H 0.8184 0.08541 0.93343 0.0
H556 H 0.83078 0.07256 0.89504 0.0
H557 H 0.84533 0.06647 0.98855 0.0
H558 H 0.83308 0.07938 0.02714 0.0
H559 H 0.85354 0.0819 0.02934 0.0
H560 H 0.86604 0.13561 0.94192 0.0
H561 H 0.8462 0.14898 0.99776 0.0
H562 H 0.82072 0.10653 0.0128 0.0
C563 C 0.86524 0.07665 0.89109 0.0
C564 C 0.87943 0.07906 0.8636 0.0
C565 C 0.88567 0.09401 0.86166 0.0
C566 C 0.87808 0.10631 0.88765 0.0
C567 C 0.86423 0.10349 0.9151 0.0
C568 C 0.8578 0.08905 0.91655 0.0
C569 C 0.84284 0.08906 0.94912 0.0
C570 C 0.82943 0.08453 0.91013 0.0
C571 C 0.84376 0.07858 0.00165 0.0
C572 C 0.84191 0.10573 0.96619 0.0
C573 C 0.85438 0.11385 0.94627 0.0
C574 C 0.85619 0.12939 0.95748 0.0
C575 C 0.84487 0.13687 0.98943 0.0
C576 C 0.83189 0.12881 0.00964 0.0
C577 C 0.83047 0.11302 0.99786 0.0
H578 H 0.65818 0.13192 0.64501 0.0
H579 H 0.70069 0.10619 0.6497 0.0
H580 H 0.68711 0.08431 0.69202 0.0
H581 H 0.64321 0.118 0.77836 0.0
H582 H 0.6237 0.11706 0.75364 0.0
H583 H 0.63669 0.13085 0.7234 0.0
H584 H 0.63114 0.12025 0.62238 0.0
H585 H 0.61809 0.10648 0.65228 0.0
H586 H 0.63378 0.10015 0.60837 0.0
H587 H 0.66919 0.06521 0.73339 0.0
H588 H 0.64775 0.04977 0.76984 0.0
H589 H 0.61668 0.08768 0.73921 0.0
C590 C 0.66462 0.12167 0.65482 0.0
C591 C 0.68051 0.12079 0.64398 0.0
C592 C 0.68852 0.10717 0.65755 0.0
C593 C 0.68092 0.09466 0.6817 0.0
C594 C 0.6653 0.09593 0.69211 0.0
C595 C 0.6572 0.10904 0.67906 0.0
C596 C 0.64044 0.10731 0.69445 0.0
C597 C 0.63574 0.119 0.74019 0.0
C598 C 0.63027 0.10862 0.64119 0.0
C599 C 0.64041 0.09116 0.71799 0.0
C600 C 0.65489 0.08485 0.71628 0.0
C601 C 0.65778 0.07002 0.73503 0.0
C602 C 0.64552 0.06134 0.75569 0.0
C603 C 0.63053 0.0675 0.75747 0.0
C604 C 0.62801 0.08267 0.73866 0.0
H605 H 0.62049 0.9158 0.39139 0.0
H606 H 0.59052 0.88999 0.27942 0.0
H607 H 0.60514 0.86646 0.30099 0.0
H608 H 0.65539 0.89592 0.3572 0.0
H609 H 0.66253 0.89663 0.42919 0.0
H610 H 0.64991 0.9114 0.40369 0.0
H611 H 0.6314 0.90609 0.48765 0.0
H612 H 0.64393 0.89127 0.51331 0.0
H613 H 0.62415 0.887 0.49837 0.0
H614 H 0.62313 0.84576 0.33515 0.0
H615 H 0.64281 0.82945 0.37999 0.0
H616 H 0.66045 0.8689 0.47121 0.0
C617 C 0.61703 0.90523 0.37105 0.0
C618 C 0.60439 0.90474 0.33351 0.0
C619 C 0.60018 0.89064 0.30826 0.0
C620 C 0.6084 0.87722 0.32024 0.0
C621 C 0.62075 0.87811 0.35773 0.0
C622 C 0.62502 0.89176 0.3828 0.0
C623 C 0.63853 0.88963 0.42238 0.0
C624 C 0.65241 0.89895 0.40187 0.0
C625 C 0.63424 0.89374 0.48408 0.0
C626 C 0.64123 0.87264 0.4157 0.0
C627 C 0.6309 0.8662 0.37808 0.0
C628 C 0.63125 0.85068 0.36473 0.0
C629 C 0.64248 0.84151 0.39042 0.0
C630 C 0.65315 0.84788 0.42924 0.0
C631 C 0.65242 0.86366 0.44199 0.0
H632 H 0.65982 0.62736 0.44929 0.0
H633 H 0.70238 0.61321 0.36959 0.0
H634 H 0.68825 0.59468 0.31054 0.0
H635 H 0.64334 0.59003 0.45684 0.0
H636 H 0.62413 0.5964 0.44199 0.0
H637 H 0.63749 0.60912 0.47616 0.0
H638 H 0.63295 0.62923 0.39684 0.0
H639 H 0.61964 0.61652 0.36224 0.0
H640 H 0.63581 0.62393 0.32338 0.0
H641 H 0.66978 0.57731 0.26161 0.0
H642 H 0.64827 0.5612 0.22972 0.0
H643 H 0.61763 0.58628 0.34156 0.0
C644 C 0.66615 0.62041 0.41922 0.0
C645 C 0.68221 0.62176 0.41403 0.0
C646 C 0.69008 0.61238 0.37448 0.0
C647 C 0.68216 0.60185 0.34049 0.0
C648 C 0.66635 0.60082 0.34657 0.0
C649 C 0.65842 0.60976 0.3851 0.0
C650 C 0.64151 0.6059 0.38476 0.0
C651 C 0.63632 0.60001 0.44342 0.0
C652 C 0.63191 0.61972 0.36565 0.0
C653 C 0.64123 0.59328 0.34046 0.0
C654 C 0.65567 0.59064 0.31863 0.0
C655 C 0.6584 0.5793 0.27821 0.0
C656 C 0.64609 0.57021 0.26032 0.0
C657 C 0.63124 0.57247 0.28303 0.0
C658 C 0.6288 0.58433 0.32304 0.0
H659 H 0.61742 0.39794 0.7036 0.0
H660 H 0.65044 0.42976 0.77494 0.0
H661 H 0.67143 0.41498 0.73158 0.0
H662 H 0.64026 0.36369 0.72164 0.0
H663 H 0.63411 0.35527 0.65537 0.0
H664 H 0.62163 0.36814 0.69318 0.0
H665 H 0.61949 0.38515 0.60313 0.0
H666 H 0.63205 0.37238 0.56514 0.0
H667 H 0.63666 0.39243 0.57033 0.0
H668 H 0.68879 0.39709 0.68045 0.0
H669 H 0.70166 0.37691 0.62516 0.0
H670 H 0.65755 0.35672 0.58488 0.0
C671 C 0.62907 0.40173 0.71047 0.0
C672 C 0.63228 0.415 0.74282 0.0
C673 C 0.64768 0.41964 0.75036 0.0
C674 C 0.6597 0.41133 0.72589 0.0
C675 C 0.65614 0.39841 0.6938 0.0
C676 C 0.64123 0.39359 0.68602 0.0
C677 C 0.64059 0.37941 0.64885 0.0
C678 C 0.63374 0.36582 0.68174 0.0
C679 C 0.63167 0.38253 0.59359 0.0
C680 C 0.65748 0.37703 0.63705 0.0
C681 C 0.66621 0.38813 0.66352 0.0
C682 C 0.68209 0.38833 0.65949 0.0
C683 C 0.68929 0.3768 0.62793 0.0
C684 C 0.68062 0.36523 0.60057 0.0
C685 C 0.66448 0.36545 0.60499 0.0
H686 H 0.85852 0.43079 0.84304 0.0
H687 H 0.90046 0.40424 0.85162 0.0
H688 H 0.88609 0.38255 0.89219 0.0
H689 H 0.84206 0.41748 0.97282 0.0
H690 H 0.82277 0.41674 0.94573 0.0
H691 H 0.83623 0.43021 0.91642 0.0
H692 H 0.83152 0.41932 0.81523 0.0
H693 H 0.81792 0.40593 0.84414 0.0
H694 H 0.83388 0.39911 0.80267 0.0
H695 H 0.86753 0.36425 0.93595 0.0
H696 H 0.84548 0.34947 0.97132 0.0
H697 H 0.81535 0.3875 0.93134 0.0
C698 C 0.86466 0.42038 0.85309 0.0
C699 C 0.88062 0.41923 0.84428 0.0
C700 C 0.88823 0.40538 0.85781 0.0
C701 C 0.88018 0.39302 0.88113 0.0
C702 C 0.86452 0.39463 0.89017 0.0
C703 C 0.85678 0.40786 0.87589 0.0
C704 C 0.83987 0.40651 0.88917 0.0
C705 C 0.83495 0.41844 0.93369 0.0
C706 C 0.83023 0.40779 0.83454 0.0
C707 C 0.83934 0.39047 0.91348 0.0
C708 C 0.85371 0.38389 0.91409 0.0
C709 C 0.85619 0.36924 0.93537 0.0
C710 C 0.84359 0.36096 0.95562 0.0
C711 C 0.82867 0.3673 0.95397 0.0
C712 C 0.8266 0.38231 0.93303 0.0
H713 H 0.81595 0.61296 0.11637 0.0
H714 H 0.84529 0.65124 0.0721 0.0
H715 H 0.86696 0.63863 0.1206 0.0
H716 H 0.83116 0.60631 0.25444 0.0
H717 H 0.82984 0.58576 0.24999 0.0
H718 H 0.81672 0.59755 0.21031 0.0
H719 H 0.82475 0.58405 0.11663 0.0
H720 H 0.83778 0.57212 0.15609 0.0
H721 H 0.84469 0.58338 0.09716 0.0
H722 H 0.8851 0.6224 0.178 0.0
H723 H 0.89893 0.60278 0.2335 0.0
H724 H 0.85783 0.57491 0.23826 0.0
C725 C 0.82696 0.61865 0.11642 0.0
C726 C 0.82892 0.6331 0.09047 0.0
C727 C 0.84352 0.64014 0.0915 0.0
C728 C 0.85589 0.6331 0.11914 0.0
C729 C 0.85349 0.61898 0.14514 0.0
C730 C 0.83943 0.61175 0.14345 0.0
C731 C 0.83988 0.59659 0.17461 0.0
C732 C 0.82874 0.59656 0.22535 0.0
C733 C 0.83658 0.58325 0.13367 0.0
C734 C 0.85636 0.59647 0.19446 0.0
C735 C 0.86399 0.60952 0.1773 0.0
C736 C 0.87926 0.61209 0.19139 0.0
C737 C 0.887 0.60091 0.22315 0.0
C738 C 0.87947 0.58729 0.24015 0.0
C739 C 0.86392 0.58516 0.22579 0.0
H740 H 0.34696 0.3711 0.58121 0.0
H741 H 0.30582 0.38809 0.66372 0.0
H742 H 0.32145 0.40485 0.72431 0.0
H743 H 0.37081 0.3708 0.70531 0.0
H744 H 0.38775 0.3773 0.66882 0.0
H745 H 0.37341 0.36659 0.63075 0.0
H746 H 0.37106 0.38843 0.55667 0.0
H747 H 0.38548 0.39915 0.59429 0.0
H748 H 0.36702 0.4076 0.58064 0.0
H749 H 0.34124 0.41903 0.77858 0.0
H750 H 0.36416 0.43138 0.81875 0.0
H751 H 0.39273 0.40611 0.70005 0.0
C752 C 0.34125 0.37841 0.61179 0.0
C753 C 0.32514 0.37824 0.61766 0.0
C754 C 0.31812 0.38801 0.65817 0.0
C755 C 0.3269 0.39756 0.69304 0.0
C756 C 0.34272 0.39734 0.6867 0.0
C757 C 0.34987 0.38818 0.64678 0.0
C758 C 0.36708 0.39037 0.64853 0.0
C759 C 0.37524 0.37537 0.6643 0.0
C760 C 0.37301 0.39677 0.59165 0.0
C761 C 0.36843 0.4021 0.69591 0.0
C762 C 0.35422 0.40586 0.71747 0.0
C763 C 0.35245 0.41626 0.76192 0.0
C764 C 0.36556 0.42317 0.78458 0.0
C765 C 0.38025 0.41975 0.76254 0.0
C766 C 0.38166 0.40899 0.71775 0.0
H767 H 0.32713 0.61043 0.44314 0.0
H768 H 0.35833 0.64638 0.49624 0.0
H769 H 0.38011 0.63128 0.46014 0.0
H770 H 0.35239 0.57837 0.47803 0.0
H771 H 0.34635 0.56729 0.4173 0.0
H772 H 0.33331 0.58061 0.45009 0.0
H773 H 0.3294 0.594 0.35269 0.0
H774 H 0.34253 0.58083 0.31971 0.0
H775 H 0.3458 0.60114 0.31446 0.0
H776 H 0.39826 0.61317 0.41243 0.0
H777 H 0.41184 0.59236 0.36261 0.0
H778 H 0.36892 0.56791 0.34232 0.0
C779 C 0.33855 0.61505 0.44789 0.0
C780 C 0.34101 0.62961 0.47252 0.0
C781 C 0.35614 0.63525 0.47768 0.0
C782 C 0.3686 0.62677 0.45718 0.0
C783 C 0.36574 0.61263 0.43204 0.0
C784 C 0.35112 0.60671 0.42791 0.0
C785 C 0.35116 0.59133 0.39815 0.0
C786 C 0.34547 0.57865 0.4383 0.0
C787 C 0.34166 0.59187 0.34298 0.0
C788 C 0.36806 0.58962 0.38552 0.0
C789 C 0.37626 0.60205 0.40532 0.0
C790 C 0.39199 0.60331 0.39719 0.0
C791 C 0.39958 0.59145 0.36859 0.0
C792 C 0.39146 0.57848 0.34869 0.0
C793 C 0.37547 0.57763 0.35729 0.0
H794 H 0.14157 0.57083 0.18869 0.0
H795 H 0.1078 0.60332 0.25008 0.0
H796 H 0.12219 0.62436 0.20474 0.0
H797 H 0.17468 0.59554 0.20833 0.0
H798 H 0.18411 0.58863 0.14507 0.0
H799 H 0.17135 0.57627 0.18393 0.0
H800 H 0.15556 0.57179 0.09195 0.0
H801 H 0.16817 0.58425 0.05294 0.0
H802 H 0.14789 0.58799 0.05398 0.0
H803 H 0.13952 0.64164 0.14826 0.0
H804 H 0.15962 0.65424 0.09129 0.0
H805 H 0.18238 0.6105 0.06874 0.0
C806 C 0.13726 0.58238 0.19308 0.0
C807 C 0.12354 0.58543 0.22288 0.0
C808 C 0.11831 0.60071 0.22764 0.0
C809 C 0.12637 0.61274 0.20185 0.0
C810 C 0.1397 0.60929 0.1719 0.0
C811 C 0.14521 0.59452 0.16798 0.0
C812 C 0.15981 0.59387 0.13328 0.0
C813 C 0.17328 0.58825 0.16985 0.0
C814 C 0.15772 0.58389 0.07988 0.0
C815 C 0.16157 0.61059 0.11779 0.0
C816 C 0.14982 0.61928 0.14026 0.0
C817 C 0.14883 0.63497 0.13077 0.0
C818 C 0.16028 0.64201 0.09811 0.0
C819 C 0.1726 0.63336 0.0756 0.0
C820 C 0.17315 0.61743 0.08547 0.0
H821 H 0.1206 0.41228 0.84373 0.0
H822 H 0.12993 0.45321 0.94268 0.0
H823 H 0.14634 0.43827 0.00726 0.0
H824 H 0.12004 0.38545 0.96223 0.0
H825 H 0.12965 0.37051 0.92326 0.0
H826 H 0.1179 0.38417 0.88599 0.0
H827 H 0.14077 0.39118 0.82077 0.0
H828 H 0.15254 0.37748 0.85758 0.0
H829 H 0.15859 0.39714 0.85249 0.0
H830 H 0.16187 0.41924 0.06061 0.0
H831 H 0.17739 0.39761 0.09498 0.0
H832 H 0.15888 0.36897 0.96028 0.0
C833 C 0.12604 0.41805 0.87916 0.0
C834 C 0.12397 0.4339 0.88822 0.0
C835 C 0.13141 0.4411 0.93469 0.0
C836 C 0.14068 0.43269 0.9719 0.0
C837 C 0.14249 0.41711 0.96191 0.0
C838 C 0.13553 0.40985 0.91645 0.0
C839 C 0.14008 0.39313 0.91383 0.0
C840 C 0.12608 0.3827 0.92182 0.0
C841 C 0.1485 0.38953 0.85785 0.0
C842 C 0.15077 0.39221 0.9646 0.0
C843 C 0.15182 0.40614 0.99209 0.0
C844 C 0.16115 0.40825 0.03953 0.0
C845 C 0.1699 0.39587 0.0588 0.0
C846 C 0.16939 0.38159 0.03034 0.0
C847 C 0.1595 0.37972 0.9831 0.0
H848 H 0.21405 0.20054 0.86993 0.0
H849 H 0.22664 0.15731 0.94824 0.0
H850 H 0.24756 0.15433 0.87871 0.0
H851 H 0.22129 0.18936 0.72555 0.0
H852 H 0.22894 0.20767 0.70476 0.0
H853 H 0.21502 0.20653 0.76113 0.0
H854 H 0.23364 0.22066 0.82909 0.0
H855 H 0.24764 0.22181 0.77294 0.0
H856 H 0.25261 0.21313 0.84008 0.0
H857 H 0.26662 0.15562 0.79976 0.0
H858 H 0.28288 0.16128 0.71656 0.0
H859 H 0.25836 0.20392 0.69049 0.0
C860 C 0.2212 0.19044 0.87246 0.0
C861 C 0.21869 0.17915 0.91452 0.0
C862 C 0.22835 0.16613 0.91649 0.0
C863 C 0.24026 0.16432 0.87719 0.0
C864 C 0.24243 0.17566 0.83637 0.0
C865 C 0.23322 0.18849 0.83375 0.0
C866 C 0.23801 0.19894 0.78546 0.0
C867 C 0.22504 0.20072 0.74163 0.0
C868 C 0.24329 0.21456 0.80828 0.0
C869 C 0.25128 0.18991 0.76115 0.0
C870 C 0.25362 0.17652 0.79118 0.0
C871 C 0.26496 0.1661 0.77604 0.0
C872 C 0.27412 0.16942 0.72867 0.0
C873 C 0.27192 0.18306 0.69715 0.0
C874 C 0.26041 0.19347 0.71401 0.0
H875 H 0.05394 0.98406 0.12749 0.0
H876 H 0.10324 0.98144 0.14974 0.0
H877 H 0.10679 0.99919 0.06947 0.0
H878 H 0.05416 0.9851 0.97518 0.0
H879 H 0.03856 0.99851 0.96968 0.0
H880 H 0.03974 0.98585 0.03003 0.0
H881 H 0.03886 0.00912 0.09838 0.0
H882 H 0.03765 0.02185 0.03822 0.0
H883 H 0.05265 0.02429 0.09016 0.0
H884 H 0.10521 0.01668 0.98641 0.0
H885 H 0.09856 0.03317 0.90513 0.0
H886 H 0.05027 0.02464 0.93591 0.0
C887 C 0.06548 0.98726 0.11562 0.0
C888 C 0.07831 0.98135 0.14495 0.0
C889 C 0.09322 0.98581 0.128 0.0
C890 C 0.09538 0.9959 0.08244 0.0
C891 C 0.08252 0.00145 0.05431 0.0
C892 C 0.06786 0.99735 0.07017 0.0
C893 C 0.05603 0.0049 0.03222 0.0
C894 C 0.04657 0.99287 0.99986 0.0
C895 C 0.04569 0.01568 0.06682 0.0
C896 C 0.06638 0.01376 0.99231 0.0
C897 C 0.0816 0.01162 0.00603 0.0
C898 C 0.09334 0.01849 0.97527 0.0
C899 C 0.08942 0.02784 0.92913 0.0
C900 C 0.07389 0.03021 0.91412 0.0
C901 C 0.06224 0.02306 0.9463 0.0
H902 H 0.23224 0.83748 0.2219 0.0
H903 H 0.20003 0.80229 0.27341 0.0
H904 H 0.21499 0.798 0.36139 0.0
H905 H 0.26609 0.81896 0.27299 0.0
H906 H 0.27496 0.83648 0.29636 0.0
H907 H 0.26167 0.83674 0.23774 0.0
H908 H 0.24527 0.85706 0.29016 0.0
H909 H 0.25853 0.85688 0.3489 0.0
H910 H 0.23851 0.85318 0.36125 0.0
H911 H 0.23372 0.79751 0.44356 0.0
H912 H 0.25446 0.80114 0.51393 0.0
H913 H 0.27402 0.8368 0.40779 0.0
C914 C 0.2283 0.82886 0.25159 0.0
C915 C 0.21497 0.8202 0.24074 0.0
C916 C 0.21021 0.80907 0.28085 0.0
C917 C 0.21863 0.80654 0.33089 0.0
C918 C 0.23174 0.81527 0.34015 0.0
C919 C 0.23652 0.82623 0.30165 0.0
C920 C 0.25094 0.83415 0.32158 0.0
C921 C 0.2642 0.83141 0.27967 0.0
C922 C 0.24814 0.85133 0.33104 0.0
C923 C 0.25358 0.82591 0.37732 0.0
C924 C 0.24241 0.81505 0.38734 0.0
C925 C 0.24252 0.80599 0.43618 0.0
C926 C 0.25435 0.80813 0.47585 0.0
C927 C 0.26586 0.81925 0.46638 0.0
C928 C 0.2654 0.82821 0.41636 0.0
H929 H 0.44009 0.03516 0.6199 0.0
H930 H 0.3951 0.02834 0.69443 0.0
H931 H 0.38913 0.00934 0.62016 0.0
H932 H 0.42846 0.03222 0.47413 0.0
H933 H 0.44538 0.02209 0.45167 0.0
H934 H 0.4463 0.03503 0.51126 0.0
H935 H 0.45702 0.01331 0.57487 0.0
H936 H 0.45616 0.0003 0.51543 0.0
H937 H 0.44654 0.99562 0.58107 0.0
H938 H 0.3877 0.99166 0.53707 0.0
H939 H 0.39114 0.97578 0.4513 0.0
H940 H 0.4372 0.99367 0.43109 0.0
C941 C 0.42899 0.02965 0.62071 0.0
C942 C 0.41805 0.03326 0.66296 0.0
C943 C 0.40367 0.02577 0.66254 0.0
C944 C 0.40016 0.01495 0.62052 0.0
C945 C 0.41116 0.01172 0.57938 0.0
C946 C 0.4253 0.01877 0.57918 0.0
C947 C 0.43504 0.0132 0.52995 0.0
C948 C 0.43902 0.02643 0.48936 0.0
C949 C 0.44955 0.00512 0.55164 0.0
C950 C 0.4241 0.00199 0.50237 0.0
C951 C 0.41039 0.00134 0.53157 0.0
C952 C 0.3984 0.99201 0.51391 0.0
C953 C 0.40047 0.98306 0.46506 0.0
C954 C 0.41445 0.98346 0.43451 0.0
C955 C 0.42641 0.99306 0.45363 0.0
H956 H 0.75998 0.84143 0.18077 0.0
H957 H 0.79807 0.81309 0.23536 0.0
H958 H 0.78486 0.80803 0.32629 0.0
H959 H 0.75208 0.85819 0.31891 0.0
H960 H 0.73165 0.85816 0.30854 0.0
H961 H 0.74425 0.85979 0.24812 0.0
H962 H 0.73131 0.83622 0.20161 0.0
H963 H 0.71869 0.83449 0.26189 0.0
H964 H 0.73034 0.81847 0.24057 0.0
H965 H 0.76716 0.80532 0.40987 0.0
H966 H 0.74643 0.80568 0.4813 0.0
H967 H 0.72011 0.83613 0.37284 0.0
C968 C 0.76558 0.83421 0.21192 0.0
C969 C 0.78006 0.82765 0.20092 0.0
C970 C 0.78699 0.81827 0.24283 0.0
C971 C 0.77958 0.81531 0.29463 0.0
C972 C 0.76529 0.82188 0.30397 0.0
C973 C 0.75838 0.83119 0.26394 0.0
C974 C 0.74291 0.83674 0.28438 0.0
C975 C 0.74272 0.85426 0.29035 0.0
C976 C 0.73006 0.83114 0.24475 0.0
C977 C 0.74215 0.82899 0.34197 0.0
C978 C 0.75516 0.82047 0.35244 0.0
C979 C 0.75694 0.81202 0.40231 0.0
C980 C 0.74509 0.81228 0.44256 0.0
C981 C 0.73167 0.82097 0.43276 0.0
C982 C 0.73026 0.82946 0.38179 0.0
H983 H 0.9113 0.01464 0.93639 0.0
H984 H 0.9357 0.05399 0.00362 0.0
H985 H 0.93873 0.04076 0.09568 0.0
H986 H 0.89087 0.00553 0.06524 0.0
H987 H 0.89229 0.98514 0.05515 0.0
H988 H 0.89203 0.99769 0.99433 0.0
H989 H 0.91763 0.98607 0.95918 0.0
H990 H 0.91796 0.97347 0.01985 0.0
H991 H 0.93396 0.98594 0.0061 0.0
H992 H 0.93934 0.02325 0.18002 0.0
H993 H 0.93738 0.00261 0.25131 0.0
H994 H 0.9124 0.97475 0.12952 0.0
C995 C 0.91729 0.02047 0.97044 0.0
C996 C 0.92328 0.03535 0.96277 0.0
C997 C 0.93101 0.0426 0.00846 0.0
C998 C 0.93279 0.03518 0.06094 0.0
C999 C 0.92675 0.02054 0.06709 0.0
C1000 C 0.91914 0.01326 0.02317 0.0
C1001 C 0.91375 0.99751 0.04099 0.0
C1002 C 0.89619 0.99641 0.0388 0.0
C1003 C 0.92128 0.98501 0.00435 0.0
C1004 C 0.91956 0.99707 0.10172 0.0
C1005 C 0.92703 0.01047 0.11591 0.0
C1006 C 0.9335 0.01271 0.16949 0.0
C1007 C 0.93233 0.00091 0.20967 0.0
C1008 C 0.92473 0.98707 0.19604 0.0
C1009 C 0.91825 0.9852 0.14132 0.0
H1010 H 0.78456 0.15867 0.8652 0.0
H1011 H 0.76082 0.17676 0.01317 0.0
H1012 H 0.73787 0.18125 0.95446 0.0
H1013 H 0.76812 0.18478 0.76169 0.0
H1014 H 0.76671 0.17043 0.70678 0.0
H1015 H 0.78152 0.1691 0.75994 0.0
H1016 H 0.7723 0.14184 0.78643 0.0
H1017 H 0.75748 0.14308 0.73335 0.0
H1018 H 0.75259 0.13888 0.80629 0.0
H1019 H 0.71731 0.18317 0.8808 0.0
H1020 H 0.70032 0.18204 0.79698 0.0
H1021 H 0.73735 0.16265 0.69687 0.0
C1022 C 0.77458 0.16366 0.88521 0.0
C1023 C 0.77451 0.16738 0.94379 0.0
C1024 C 0.76116 0.17381 0.96838 0.0
C1025 C 0.74807 0.17643 0.93538 0.0
C1026 C 0.74849 0.17259 0.87787 0.0
C1027 C 0.76138 0.16633 0.85292 0.0
C1028 C 0.75867 0.16286 0.79051 0.0
C1029 C 0.76939 0.17236 0.7525 0.0
C1030 C 0.76036 0.14564 0.77847 0.0
C1031 C 0.74221 0.16802 0.78448 0.0
C1032 C 0.73659 0.17365 0.83531 0.0
C1033 C 0.72159 0.17884 0.84065 0.0
C1034 C 0.71202 0.17814 0.79279 0.0
C1035 C 0.7175 0.17228 0.74035 0.0
C1036 C 0.73284 0.16726 0.73626 0.0
H1037 H 0.55369 0.02121 0.62916 0.0
H1038 H 0.60068 0.01195 0.67869 0.0
H1039 H 0.60264 0.99265 0.60245 0.0
H1040 H 0.54367 0.98208 0.59424 0.0
H1041 H 0.53188 0.98742 0.53445 0.0
H1042 H 0.53401 0.0003 0.59384 0.0
H1043 H 0.54332 0.02162 0.5254 0.0
H1044 H 0.54122 0.00881 0.46583 0.0
H1045 H 0.55936 0.01797 0.47905 0.0
H1046 H 0.59971 0.97471 0.52046 0.0
H1047 H 0.5922 0.95941 0.43686 0.0
H1048 H 0.54713 0.98036 0.43991 0.0
C1049 C 0.56438 0.0151 0.62412 0.0
C1050 C 0.57703 0.0181 0.65993 0.0
C1051 C 0.59083 0.00985 0.65182 0.0
C1052 C 0.59205 0.99885 0.60867 0.0
C1053 C 0.57939 0.99621 0.57407 0.0
C1054 C 0.56581 0.00407 0.58125 0.0
C1055 C 0.554 0.99917 0.53765 0.0
C1056 C 0.54007 0.99181 0.5668 0.0
C1057 C 0.5492 0.0127 0.49974 0.0
C1058 C 0.56313 0.98746 0.50445 0.0
C1059 C 0.57771 0.98587 0.52644 0.0
C1060 C 0.58832 0.97581 0.5029 0.0
C1061 C 0.58392 0.96717 0.45541 0.0
C1062 C 0.56907 0.96868 0.43179 0.0
C1063 C 0.55856 0.97895 0.45692 0.0
H1064 H 0.72734 0.65963 0.36499 0.0
H1065 H 0.74819 0.69461 0.47104 0.0
H1066 H 0.76798 0.69879 0.39743 0.0
H1067 H 0.76223 0.64382 0.30913 0.0
H1068 H 0.75438 0.64054 0.23918 0.0
H1069 H 0.74206 0.64016 0.30065 0.0
H1070 H 0.72479 0.66086 0.25468 0.0
H1071 H 0.73706 0.66132 0.1931 0.0
H1072 H 0.73315 0.67868 0.23185 0.0
H1073 H 0.78548 0.69908 0.31224 0.0
H1074 H 0.79915 0.69583 0.22102 0.0
H1075 H 0.76642 0.66101 0.17037 0.0
C1076 C 0.73609 0.66814 0.37295 0.0
C1077 C 0.73625 0.67678 0.42385 0.0
C1078 C 0.74785 0.68786 0.43236 0.0
C1079 C 0.75914 0.69031 0.39085 0.0
C1080 C 0.7586 0.68162 0.34109 0.0
C1081 C 0.74736 0.67079 0.33194 0.0
C1082 C 0.74919 0.66314 0.27449 0.0
C1083 C 0.75215 0.64589 0.2813 0.0
C1084 C 0.73522 0.66619 0.23629 0.0
C1085 C 0.76324 0.67136 0.25268 0.0
C1086 C 0.76854 0.68194 0.29179 0.0
C1087 C 0.78144 0.69085 0.28126 0.0
C1088 C 0.78913 0.6889 0.22934 0.0
C1089 C 0.78384 0.67819 0.18853 0.0
C1090 C 0.77071 0.66934 0.20057 0.0
H1091 H 0.56951 0.49561 0.39576 0.0
H1092 H 0.59708 0.53276 0.46332 0.0
H1093 H 0.59987 0.51878 0.55396 0.0
H1094 H 0.54978 0.48634 0.52769 0.0
H1095 H 0.55007 0.46604 0.51436 0.0
H1096 H 0.54965 0.47927 0.45555 0.0
H1097 H 0.57415 0.4668 0.41409 0.0
H1098 H 0.57466 0.45356 0.47278 0.0
H1099 H 0.59105 0.46541 0.45786 0.0
H1100 H 0.60032 0.50055 0.63611 0.0
H1101 H 0.59857 0.47912 0.70411 0.0
H1102 H 0.57093 0.45371 0.58282 0.0
C1103 C 0.57602 0.50087 0.42976 0.0
C1104 C 0.58305 0.5153 0.42247 0.0
C1105 C 0.59159 0.52172 0.46789 0.0
C1106 C 0.59323 0.51389 0.5196 0.0
C1107 C 0.58626 0.49965 0.52521 0.0
C1108 C 0.57783 0.49319 0.48161 0.0
C1109 C 0.5719 0.47752 0.4981 0.0
C1110 C 0.55431 0.47729 0.49898 0.0
C1111 C 0.57833 0.46509 0.45834 0.0
C1112 C 0.57845 0.47614 0.5576 0.0
C1113 C 0.58662 0.48906 0.5725 0.0
C1114 C 0.5939 0.49039 0.62504 0.0
C1115 C 0.59285 0.47814 0.66334 0.0
C1116 C 0.58462 0.46473 0.64881 0.0
C1117 C 0.57729 0.46381 0.59526 0.0
H1118 H 0.74933 0.33486 0.61239 0.0
H1119 H 0.71661 0.29806 0.63607 0.0
H1120 H 0.72923 0.29105 0.72642 0.0
H1121 H 0.78274 0.31547 0.67755 0.0
H1122 H 0.78942 0.33283 0.71071 0.0
H1123 H 0.77909 0.3337 0.64433 0.0
H1124 H 0.75954 0.35231 0.69004 0.0
H1125 H 0.76973 0.35142 0.75656 0.0
H1126 H 0.74966 0.3467 0.75414 0.0
H1127 H 0.74391 0.28933 0.81725 0.0
H1128 H 0.75947 0.29324 0.90362 0.0
H1129 H 0.78224 0.33165 0.82247 0.0
C1130 C 0.74508 0.32509 0.63589 0.0
C1131 C 0.7321 0.31691 0.61711 0.0
C1132 C 0.72659 0.30444 0.64971 0.0
C1133 C 0.7337 0.30034 0.70094 0.0
C1134 C 0.74627 0.30885 0.71901 0.0
C1135 C 0.75194 0.32095 0.68752 0.0
C1136 C 0.76476 0.32902 0.71885 0.0
C1137 C 0.7799 0.32767 0.68589 0.0
C1138 C 0.76067 0.34586 0.73059 0.0
C1139 C 0.76518 0.31977 0.77333 0.0
C1140 C 0.75455 0.30808 0.77221 0.0
C1141 C 0.75238 0.29835 0.81847 0.0
C1142 C 0.76126 0.3007 0.86739 0.0
C1143 C 0.77207 0.31275 0.86982 0.0
C1144 C 0.77412 0.32229 0.82185 0.0
H1145 H 0.93357 0.54301 0.10153 0.0
H1146 H 0.90431 0.51766 0.2176 0.0
H1147 H 0.90242 0.49675 0.14756 0.0
H1148 H 0.914 0.53242 0.97317 0.0
H1149 H 0.93122 0.53089 0.93129 0.0
H1150 H 0.93051 0.54384 0.99091 0.0
H1151 H 0.9544 0.53075 0.03458 0.0
H1152 H 0.95517 0.51774 0.9751 0.0
H1153 H 0.95421 0.51039 0.04674 0.0
H1154 H 0.90335 0.4788 0.06516 0.0
H1155 H 0.907 0.46484 0.97499 0.0
H1156 H 0.93575 0.5017 0.91215 0.0
C1157 C 0.92678 0.53306 0.11228 0.0
C1158 C 0.91909 0.53198 0.16506 0.0
C1159 C 0.91031 0.51876 0.17744 0.0
C1160 C 0.90917 0.50681 0.13797 0.0
C1161 C 0.91688 0.50823 0.08637 0.0
C1162 C 0.92552 0.52099 0.07336 0.0
C1163 C 0.93255 0.51967 0.01458 0.0
C1164 C 0.92672 0.53246 0.97517 0.0
C1165 C 0.95013 0.51963 0.01798 0.0
C1166 C 0.92645 0.5042 0.99656 0.0
C1167 C 0.91745 0.49781 0.03869 0.0
C1168 C 0.9104 0.48365 0.03186 0.0
C1169 C 0.91254 0.47583 0.98044 0.0
C1170 C 0.92168 0.48216 0.9365 0.0
C1171 C 0.92875 0.49652 0.94496 0.0
H1172 H 0.27924 0.34804 0.67919 0.0
H1173 H 0.25036 0.31578 0.58839 0.0
H1174 H 0.23217 0.31585 0.66918 0.0
H1175 H 0.27402 0.33207 0.81759 0.0
H1176 H 0.27398 0.35035 0.85316 0.0
H1177 H 0.28447 0.34794 0.78776 0.0
H1178 H 0.26959 0.37055 0.74273 0.0
H1179 H 0.25906 0.37306 0.808 0.0
H1180 H 0.24896 0.37017 0.7419 0.0
H1181 H 0.21748 0.31914 0.76098 0.0
H1182 H 0.20721 0.32557 0.85594 0.0
H1183 H 0.24586 0.35577 0.88548 0.0
C1184 C 0.26908 0.341 0.67603 0.0
C1185 C 0.26621 0.33189 0.62744 0.0
C1186 C 0.25278 0.32285 0.62518 0.0
C1187 C 0.2424 0.32282 0.67083 0.0
C1188 C 0.24564 0.33189 0.71819 0.0
C1189 C 0.25865 0.34083 0.72099 0.0
C1190 C 0.2596 0.34945 0.77676 0.0
C1191 C 0.27386 0.34466 0.81082 0.0
C1192 C 0.25928 0.36684 0.76672 0.0
C1193 C 0.24508 0.34397 0.80512 0.0
C1194 C 0.23719 0.33384 0.77073 0.0
C1195 C 0.22354 0.32709 0.78819 0.0
C1196 C 0.21781 0.33081 0.84225 0.0
C1197 C 0.22572 0.3412 0.87814 0.0
C1198 C 0.23951 0.34785 0.85904 0.0
H1199 H 0.41509 0.5149 0.41293 0.0
H1200 H 0.46476 0.51488 0.40667 0.0
H1201 H 0.46546 0.4966 0.48657 0.0
H1202 H 0.41161 0.51326 0.56406 0.0
H1203 H 0.39521 0.50074 0.56341 0.0
H1204 H 0.39856 0.51352 0.50458 0.0
H1205 H 0.39806 0.49058 0.43464 0.0
H1206 H 0.39469 0.47773 0.49327 0.0
H1207 H 0.41073 0.47461 0.4464 0.0
H1208 H 0.46088 0.47917 0.56917 0.0
H1209 H 0.45126 0.46309 0.6477 0.0
H1210 H 0.40455 0.47401 0.5993 0.0
C1211 C 0.42611 0.511 0.42817 0.0
C1212 C 0.43987 0.51634 0.40356 0.0
C1213 C 0.45407 0.51095 0.42476 0.0
C1214 C 0.45459 0.50057 0.47016 0.0
C1215 C 0.44083 0.49562 0.49366 0.0
C1216 C 0.42685 0.50058 0.47329 0.0
C1217 C 0.41376 0.49358 0.50656 0.0
C1218 C 0.40423 0.50602 0.53642 0.0
C1219 C 0.40372 0.48353 0.4679 0.0
C1220 C 0.42258 0.48402 0.54914 0.0
C1221 C 0.43817 0.48538 0.54094 0.0
C1222 C 0.44869 0.47794 0.57585 0.0
C1223 C 0.44311 0.46887 0.62042 0.0
C1224 C 0.42715 0.46727 0.62954 0.0
C1225 C 0.4168 0.47492 0.59316 0.0
H1226 H 0.25852 0.65579 0.41284 0.0
H1227 H 0.30041 0.67082 0.33064 0.0
H1228 H 0.28665 0.67272 0.23888 0.0
H1229 H 0.24395 0.63317 0.29649 0.0
H1230 H 0.22435 0.63869 0.30869 0.0
H1231 H 0.23764 0.63808 0.3673 0.0
H1232 H 0.2314 0.66635 0.39132 0.0
H1233 H 0.2181 0.66705 0.33279 0.0
H1234 H 0.23347 0.68076 0.33694 0.0
H1235 H 0.26828 0.67291 0.15635 0.0
H1236 H 0.24646 0.67235 0.08959 0.0
H1237 H 0.21652 0.65792 0.22709 0.0
C1238 C 0.26485 0.65939 0.37551 0.0
C1239 C 0.28055 0.66309 0.37875 0.0
C1240 C 0.28837 0.66793 0.32906 0.0
C1241 C 0.28066 0.66901 0.27679 0.0
C1242 C 0.26516 0.6653 0.27518 0.0
C1243 C 0.25733 0.66066 0.32327 0.0
C1244 C 0.2406 0.65776 0.31054 0.0
C1245 C 0.2364 0.64092 0.32139 0.0
C1246 C 0.23029 0.66863 0.34493 0.0
C1247 C 0.24023 0.66152 0.2477 0.0
C1248 C 0.25452 0.66574 0.22802 0.0
C1249 C 0.25703 0.66965 0.17129 0.0
C1250 C 0.24456 0.66928 0.13372 0.0
C1251 C 0.22978 0.66514 0.15321 0.0
C1252 C 0.22766 0.6612 0.21096 0.0
H1253 H 0.08859 0.50358 0.16715 0.0
H1254 H 0.07053 0.54813 0.12127 0.0
H1255 H 0.06544 0.53886 0.02368 0.0
H1256 H 0.10812 0.49727 0.03543 0.0
H1257 H 0.10434 0.477 0.0339 0.0
H1258 H 0.10566 0.48685 0.10108 0.0
H1259 H 0.07869 0.47699 0.12875 0.0
H1260 H 0.07729 0.46711 0.06159 0.0
H1261 H 0.06273 0.48064 0.08201 0.0
H1262 H 0.06212 0.52463 0.93127 0.0
H1263 H 0.06278 0.50707 0.84856 0.0
H1264 H 0.08449 0.47245 0.95355 0.0
C1265 C 0.08344 0.51132 0.13666 0.0
C1266 C 0.07984 0.52652 0.1517 0.0
C1267 C 0.07337 0.53643 0.11047 0.0
C1268 C 0.07038 0.53125 0.05507 0.0
C1269 C 0.07411 0.51621 0.04145 0.0
C1270 C 0.08065 0.50643 0.08086 0.0
C1271 C 0.08433 0.49107 0.05446 0.0
C1272 C 0.10164 0.48787 0.05632 0.0
C1273 C 0.07522 0.47819 0.08343 0.0
C1274 C 0.07887 0.49376 0.99413 0.0
C1275 C 0.07282 0.50825 0.98762 0.0
C1276 C 0.06687 0.51327 0.93576 0.0
C1277 C 0.06726 0.50322 0.88912 0.0
C1278 C 0.07376 0.48847 0.89466 0.0
C1279 C 0.07956 0.48372 0.94796 0.0
H1280 H 0.20734 0.23075 0.10178 0.0
H1281 H 0.16165 0.21515 0.05817 0.0
H1282 H 0.15279 0.24195 0.05439 0.0
H1283 H 0.19543 0.26361 0.18963 0.0
H1284 H 0.21096 0.27538 0.16447 0.0
H1285 H 0.2133 0.25493 0.16898 0.0
H1286 H 0.22084 0.25404 0.06221 0.0
H1287 H 0.21853 0.27444 0.0574 0.0
H1288 H 0.20807 0.26208 0.00985 0.0
H1289 H 0.14957 0.27054 0.04623 0.0
H1290 H 0.15229 0.29855 0.03525 0.0
H1291 H 0.1999 0.2952 0.08656 0.0
C1292 C 0.19541 0.23294 0.09229 0.0
C1293 C 0.18519 0.22085 0.08034 0.0
C1294 C 0.16969 0.22423 0.06765 0.0
C1295 C 0.16454 0.23942 0.06551 0.0
C1296 C 0.17498 0.25108 0.07669 0.0
C1297 C 0.19007 0.248 0.09021 0.0
C1298 C 0.1992 0.26258 0.09732 0.0
C1299 C 0.20506 0.26422 0.15876 0.0
C1300 C 0.21243 0.26332 0.05411 0.0
C1301 C 0.18699 0.27433 0.08419 0.0
C1302 C 0.17307 0.26751 0.07279 0.0
C1303 C 0.16036 0.27604 0.05591 0.0
C1304 C 0.16201 0.29193 0.04972 0.0
C1305 C 0.17626 0.29909 0.0604 0.0
C1306 C 0.18878 0.29014 0.07888 0.0
H1307 H 0.03486 0.95409 0.39563 0.0
H1308 H 0.04464 0.92368 0.25402 0.0
H1309 H 0.01707 0.91777 0.24565 0.0
H1310 H 0.00284 0.93191 0.45701 0.0
H1311 H 0.99234 0.94897 0.47524 0.0
H1312 H 0.01296 0.94925 0.4745 0.0
H1313 H 0.01246 0.97204 0.40392 0.0
H1314 H 0.99189 0.97179 0.40425 0.0
H1315 H 0.00211 0.9702 0.33783 0.0
H1316 H 0.98821 0.91721 0.24677 0.0
H1317 H 0.96052 0.92214 0.25691 0.0
H1318 H 0.96984 0.95303 0.39754 0.0
C1319 C 0.03128 0.94592 0.36363 0.0
C1320 C 0.04193 0.93928 0.32567 0.0
C1321 C 0.0367 0.92885 0.28378 0.0
C1322 C 0.02107 0.9254 0.27877 0.0
C1323 C 0.01084 0.93242 0.31612 0.0
C1324 C 0.01576 0.94241 0.35793 0.0
C1325 C 0.00241 0.94935 0.38987 0.0
C1326 C 0.00266 0.94458 0.45289 0.0
C1327 C 0.00221 0.96688 0.38355 0.0
C1328 C 0.98918 0.94202 0.35857 0.0
C1329 C 0.99425 0.93216 0.31659 0.0
C1330 C 0.98411 0.92475 0.28001 0.0
C1331 C 0.96839 0.92765 0.28604 0.0
C1332 C 0.96298 0.93793 0.32816 0.0
C1333 C 0.97356 0.94498 0.36534 0.0
H1334 H 0.30443 0.78323 0.66641 0.0
H1335 H 0.33552 0.79588 0.53019 0.0
H1336 H 0.34184 0.76862 0.51542 0.0
H1337 H 0.32652 0.74956 0.72011 0.0
H1338 H 0.30924 0.73892 0.73368 0.0
H1339 H 0.30923 0.75947 0.73988 0.0
H1340 H 0.28672 0.76097 0.6682 0.0
H1341 H 0.28673 0.74049 0.66139 0.0
H1342 H 0.28875 0.7523 0.5989 0.0
H1343 H 0.34215 0.73994 0.50721 0.0
H1344 H 0.33646 0.71228 0.50626 0.0
H1345 H 0.3049 0.71852 0.64717 0.0
C1346 C 0.31292 0.78034 0.63459 0.0
C1347 C 0.31955 0.79171 0.59968 0.0
C1348 C 0.33036 0.78738 0.55768 0.0
C1349 C 0.33404 0.77192 0.54906 0.0
C1350 C 0.3269 0.76096 0.583 0.0
C1351 C 0.31664 0.76499 0.62525 0.0
C1352 C 0.30937 0.75102 0.65207 0.0
C1353 C 0.31386 0.74967 0.71518 0.0
C1354 C 0.29186 0.75121 0.64465 0.0
C1355 C 0.3167 0.7385 0.61689 0.0
C1356 C 0.32695 0.74443 0.57789 0.0
C1357 C 0.33433 0.73515 0.53819 0.0
C1358 C 0.33099 0.71945 0.53789 0.0
C1359 C 0.32026 0.7132 0.57674 0.0
C1360 C 0.31328 0.72288 0.61731 0.0
H1361 H 0.46754 0.04397 0.89031 0.0
H1362 H 0.46113 0.08377 0.78237 0.0
H1363 H 0.48919 0.08714 0.77699 0.0
H1364 H 0.50111 0.05831 0.968 0.0
H1365 H 0.50994 0.03969 0.97021 0.0
H1366 H 0.48938 0.04135 0.96959 0.0
H1367 H 0.48813 0.02385 0.88053 0.0
H1368 H 0.50864 0.02216 0.8808 0.0
H1369 H 0.49894 0.02892 0.81789 0.0
H1370 H 0.51811 0.08472 0.77698 0.0
H1371 H 0.54525 0.07682 0.78304 0.0
H1372 H 0.53225 0.03883 0.89182 0.0
C1373 C 0.47199 0.05354 0.86619 0.0
C1374 C 0.46214 0.06362 0.83683 0.0
C1375 C 0.46847 0.07594 0.80544 0.0
C1376 C 0.48439 0.07795 0.80217 0.0
C1377 C 0.49378 0.06764 0.83092 0.0
C1378 C 0.48779 0.05574 0.86263 0.0
C1379 C 0.50028 0.04574 0.88716 0.0
C1380 C 0.50017 0.04632 0.95263 0.0
C1381 C 0.49891 0.02919 0.86526 0.0
C1382 C 0.51425 0.05363 0.86313 0.0
C1383 C 0.51032 0.06631 0.83118 0.0
C1384 C 0.52132 0.07492 0.80248 0.0
C1385 C 0.5367 0.07034 0.80613 0.0
C1386 C 0.54089 0.05724 0.83807 0.0
C1387 C 0.52947 0.04897 0.86745 0.0
H1388 H 0.21444 0.78058 0.00398 0.0
H1389 H 0.16855 0.79561 0.04726 0.0
H1390 H 0.15914 0.76911 0.03516 0.0
H1391 H 0.20332 0.75176 0.89788 0.0
H1392 H 0.2183 0.73884 0.91948 0.0
H1393 H 0.22098 0.75919 0.92629 0.0
H1394 H 0.227 0.75583 0.03373 0.0
H1395 H 0.22431 0.73551 0.0273 0.0
H1396 H 0.21337 0.74619 0.07883 0.0
H1397 H 0.15533 0.74041 0.02631 0.0
H1398 H 0.15743 0.71222 0.02066 0.0
H1399 H 0.20585 0.71655 0.98259 0.0
C1400 C 0.20235 0.77839 0.01008 0.0
C1401 C 0.19222 0.79017 0.02646 0.0
C1402 C 0.17652 0.78676 0.03443 0.0
C1403 C 0.17107 0.77175 0.02762 0.0
C1404 C 0.18145 0.76035 0.01242 0.0
C1405 C 0.19675 0.76354 0.0034 0.0
C1406 C 0.20576 0.7492 0.99041 0.0
C1407 C 0.21248 0.74979 0.92991 0.0
C1408 C 0.21834 0.74653 0.03525 0.0
C1409 C 0.19323 0.73735 0.99484 0.0
C1410 C 0.17926 0.74396 0.00712 0.0
C1411 C 0.16618 0.73513 0.01601 0.0
C1412 C 0.16749 0.71913 0.01279 0.0
C1413 C 0.18178 0.71216 0.00099 0.0
C1414 C 0.19472 0.72149 0.99118 0.0
H1415 H 0.4553 0.94347 0.31061 0.0
H1416 H 0.44326 0.92075 0.15232 0.0
H1417 H 0.4705 0.91449 0.13636 0.0
H1418 H 0.48934 0.96056 0.26084 0.0
H1419 H 0.49965 0.95817 0.32675 0.0
H1420 H 0.47914 0.95992 0.32754 0.0
H1421 H 0.477 0.93422 0.38195 0.0
H1422 H 0.49753 0.93239 0.38142 0.0
H1423 H 0.48579 0.9173 0.35263 0.0
H1424 H 0.49927 0.91189 0.13539 0.0
H1425 H 0.52726 0.9132 0.14938 0.0
H1426 H 0.52027 0.93766 0.30828 0.0
C1427 C 0.45834 0.93701 0.27289 0.0
C1428 C 0.44712 0.93255 0.23279 0.0
C1429 C 0.45164 0.92426 0.18372 0.0
C1430 C 0.46708 0.92063 0.17431 0.0
C1431 C 0.47785 0.92535 0.21442 0.0
C1432 C 0.47367 0.93333 0.2628 0.0
C1433 C 0.4875 0.93762 0.29818 0.0
C1434 C 0.48899 0.9551 0.30361 0.0
C1435 C 0.48692 0.92992 0.35703 0.0
C1436 C 0.50016 0.93098 0.26179 0.0
C1437 C 0.49437 0.92388 0.21381 0.0
C1438 C 0.50392 0.91732 0.17302 0.0
C1439 C 0.51981 0.91814 0.18132 0.0
C1440 C 0.52598 0.92549 0.22999 0.0
C1441 C 0.51594 0.93186 0.27082 0.0
H1442 H 0.30927 0.22725 0.56406 0.0
H1443 H 0.3307 0.21463 0.40395 0.0
H1444 H 0.33638 0.24184 0.385 0.0
H1445 H 0.2912 0.26063 0.51445 0.0
H1446 H 0.2941 0.27135 0.57916 0.0
H1447 H 0.29276 0.25083 0.58178 0.0
H1448 H 0.31908 0.24952 0.63251 0.0
H1449 H 0.32052 0.27007 0.62993 0.0
H1450 H 0.3355 0.25841 0.59992 0.0
H1451 H 0.3381 0.27065 0.38058 0.0
H1452 H 0.33558 0.29868 0.39099 0.0
H1453 H 0.31345 0.29216 0.5548 0.0
C1454 C 0.31531 0.23016 0.52527 0.0
C1455 C 0.31956 0.21879 0.48552 0.0
C1456 C 0.32735 0.22313 0.43511 0.0
C1457 C 0.33066 0.23855 0.42402 0.0
C1458 C 0.3262 0.24948 0.46392 0.0
C1459 C 0.31874 0.24546 0.51363 0.0
C1460 C 0.31457 0.25942 0.54845 0.0
C1461 C 0.29712 0.26062 0.55639 0.0
C1462 C 0.32292 0.25935 0.60611 0.0
C1463 C 0.32058 0.27195 0.51005 0.0
C1464 C 0.32733 0.26601 0.46165 0.0
C1465 C 0.33299 0.27543 0.41862 0.0
C1466 C 0.33151 0.29134 0.4249 0.0
C1467 C 0.32441 0.29764 0.47384 0.0
C1468 C 0.31913 0.28775 0.51721 0.0
H1469 H 0.9631 0.05826 0.79717 0.0
H1470 H 0.95084 0.07254 0.62599 0.0
H1471 H 0.97812 0.07746 0.60494 0.0
H1472 H 0.99383 0.08573 0.81877 0.0
H1473 H 0.0055 0.07231 0.85763 0.0
H1474 H 0.98495 0.07074 0.85989 0.0
H1475 H 0.98678 0.04267 0.82491 0.0
H1476 H 0.0073 0.04415 0.82252 0.0
H1477 H 0.99686 0.03848 0.75975 0.0
H1478 H 0.00699 0.07961 0.60147 0.0
H1479 H 0.035 0.07871 0.61571 0.0
H1480 H 0.02801 0.06307 0.78932 0.0
C1481 C 0.9661 0.06256 0.75536 0.0
C1482 C 0.95481 0.06504 0.71324 0.0
C1483 C 0.95927 0.07058 0.65899 0.0
C1484 C 0.97473 0.07342 0.64666 0.0
C1485 C 0.98557 0.07072 0.68909 0.0
C1486 C 0.98143 0.06545 0.74238 0.0
C1487 C 0.99527 0.06295 0.77993 0.0
C1488 C 0.99486 0.07357 0.83214 0.0
C1489 C 0.99663 0.04606 0.7978 0.0
C1490 C 0.0079 0.06744 0.73922 0.0
C1491 C 0.0021 0.07197 0.68712 0.0
C1492 C 0.01165 0.07619 0.64223 0.0
C1493 C 0.02754 0.07563 0.65073 0.0
C1494 C 0.03371 0.07087 0.70367 0.0
C1495 C 0.02368 0.06687 0.74847 0.0
H1496 H 0.77181 0.71946 0.9848 0.0
H1497 H 0.82088 0.71174 0.9834 0.0
H1498 H 0.82519 0.73966 0.97839 0.0
H1499 H 0.7716 0.75275 0.88914 0.0
H1500 H 0.75661 0.76211 0.92874 0.0
H1501 H 0.75749 0.74152 0.9264 0.0
H1502 H 0.75787 0.74064 0.03679 0.0
H1503 H 0.75707 0.76118 0.03949 0.0
H1504 H 0.77236 0.75115 0.07495 0.0
H1505 H 0.82405 0.76855 0.98137 0.0
H1506 H 0.81756 0.79594 0.99194 0.0
H1507 H 0.76925 0.78437 0.9917 0.0
C1508 C 0.78348 0.72359 0.98243 0.0
C1509 C 0.79601 0.71341 0.98428 0.0
C1510 C 0.81109 0.71932 0.9818 0.0
C1511 C 0.81366 0.73516 0.97888 0.0
C1512 C 0.80102 0.74489 0.97821 0.0
C1513 C 0.78623 0.73931 0.97963 0.0
C1514 C 0.77462 0.75213 0.9819 0.0
C1515 C 0.76449 0.75212 0.92835 0.0
C1516 C 0.76492 0.75122 0.03653 0.0
C1517 C 0.78519 0.76582 0.98281 0.0
C1518 C 0.80037 0.76145 0.98014 0.0
C1519 C 0.8122 0.77211 0.98287 0.0
C1520 C 0.8084 0.78763 0.98894 0.0
C1521 C 0.7929 0.7923 0.99251 0.0
C1522 C 0.78121 0.78121 0.98872 0.0
H1523 H 0.67993 0.21007 0.60175 0.0
H1524 H 0.67073 0.20164 0.42277 0.0
H1525 H 0.66527 0.22912 0.40901 0.0
H1526 H 0.65121 0.24121 0.62188 0.0
H1527 H 0.66378 0.25162 0.66883 0.0
H1528 H 0.66462 0.23103 0.66627 0.0
H1529 H 0.69361 0.23238 0.64353 0.0
H1530 H 0.69286 0.25291 0.64593 0.0
H1531 H 0.70001 0.24342 0.58317 0.0
H1532 H 0.66433 0.2579 0.41213 0.0
H1533 H 0.66805 0.28542 0.43193 0.0
H1534 H 0.67748 0.27484 0.6091 0.0
C1535 C 0.67639 0.2139 0.55992 0.0
C1536 C 0.67572 0.20367 0.51337 0.0
C1537 C 0.67127 0.20923 0.45916 0.0
C1538 C 0.66809 0.22483 0.45096 0.0
C1539 C 0.66927 0.23468 0.4975 0.0
C1540 C 0.67319 0.22939 0.55104 0.0
C1541 C 0.67504 0.24244 0.59289 0.0
C1542 C 0.66294 0.24152 0.64027 0.0
C1543 C 0.69134 0.2428 0.6178 0.0
C1544 C 0.67214 0.25594 0.55405 0.0
C1545 C 0.66862 0.25125 0.49937 0.0
C1546 C 0.66678 0.26171 0.45504 0.0
C1547 C 0.66893 0.27732 0.46667 0.0
C1548 C 0.67294 0.28231 0.52214 0.0
C1549 C 0.67414 0.27145 0.56649 0.0
H1550 H 0.81604 0.2822 0.99474 0.0
H1551 H 0.81836 0.29121 0.17641 0.0
H1552 H 0.82268 0.26367 0.1942 0.0
H1553 H 0.79489 0.24905 0.00383 0.0
H1554 H 0.8043 0.23932 0.94589 0.0
H1555 H 0.80361 0.25987 0.94709 0.0
H1556 H 0.83319 0.26103 0.93997 0.0
H1557 H 0.83398 0.24043 0.93856 0.0
H1558 H 0.84469 0.2509 0.99138 0.0
H1559 H 0.82359 0.23485 0.19257 0.0
H1560 H 0.8212 0.20725 0.17171 0.0
H1561 H 0.81851 0.21741 0.99099 0.0
C1562 C 0.81778 0.27847 0.03824 0.0
C1563 C 0.8169 0.28887 0.0842 0.0
C1564 C 0.81907 0.28346 0.1405 0.0
C1565 C 0.82155 0.26785 0.151 0.0
C1566 C 0.82199 0.25785 0.10471 0.0
C1567 C 0.82028 0.26299 0.04941 0.0
C1568 C 0.81998 0.24986 0.00744 0.0
C1569 C 0.80479 0.24951 0.97415 0.0
C1570 C 0.83378 0.2506 0.96696 0.0
C1571 C 0.82126 0.23647 0.04788 0.0
C1572 C 0.82259 0.24129 0.10376 0.0
C1573 C 0.82282 0.23095 0.14891 0.0
C1574 C 0.82142 0.2153 0.13664 0.0
C1575 C 0.81976 0.21017 0.0797 0.0
C1576 C 0.82 0.22093 0.03489 0.0
H1577 H 0.69908 0.71106 0.63675 0.0
H1578 H 0.66865 0.70132 0.49516 0.0
H1579 H 0.66244 0.72882 0.48778 0.0
H1580 H 0.67661 0.7431 0.69894 0.0
H1581 H 0.69368 0.75359 0.71715 0.0
H1582 H 0.69395 0.73298 0.7165 0.0
H1583 H 0.71677 0.73346 0.64604 0.0
H1584 H 0.71652 0.75402 0.64615 0.0
H1585 H 0.71494 0.74375 0.57983 0.0
H1586 H 0.66195 0.75758 0.48857 0.0
H1587 H 0.66703 0.78526 0.49797 0.0
H1588 H 0.69787 0.77607 0.63889 0.0
C1589 C 0.6908 0.71463 0.60512 0.0
C1590 C 0.68428 0.70401 0.56672 0.0
C1591 C 0.67372 0.70922 0.52525 0.0
C1592 C 0.6701 0.72482 0.52079 0.0
C1593 C 0.67708 0.73503 0.55832 0.0
C1594 C 0.68712 0.73013 0.59997 0.0
C1595 C 0.69407 0.74349 0.63184 0.0
C1596 C 0.68928 0.74328 0.69485 0.0
C1597 C 0.71161 0.74368 0.62555 0.0
C1598 C 0.68674 0.75671 0.60046 0.0
C1599 C 0.67683 0.75161 0.55865 0.0
C1600 C 0.6695 0.76171 0.52175 0.0
C1601 C 0.67249 0.77741 0.52733 0.0
C1602 C 0.6828 0.78285 0.56934 0.0
C1603 C 0.68978 0.77232 0.60684 0.0
H1604 H 0.54328 0.42191 0.74362 0.0
H1605 H 0.54443 0.41045 0.92349 0.0
H1606 H 0.5164 0.40681 0.92247 0.0
H1607 H 0.51077 0.44399 0.7484 0.0
H1608 H 0.50329 0.43804 0.68035 0.0
H1609 H 0.52355 0.43746 0.69323 0.0
H1610 H 0.52406 0.40867 0.66683 0.0
H1611 H 0.50374 0.40917 0.65369 0.0
H1612 H 0.51156 0.39555 0.70346 0.0
H1613 H 0.48801 0.40786 0.90477 0.0
H1614 H 0.46172 0.41327 0.87156 0.0
H1615 H 0.47932 0.42353 0.70299 0.0
C1616 C 0.53771 0.41828 0.78255 0.0
C1617 C 0.54607 0.41643 0.83362 0.0
C1618 C 0.53829 0.41186 0.88377 0.0
C1619 C 0.52237 0.40974 0.88358 0.0
C1620 C 0.51443 0.41204 0.83278 0.0
C1621 C 0.52187 0.41608 0.78306 0.0
C1622 C 0.51064 0.41912 0.73531 0.0
C1623 C 0.51216 0.43563 0.71306 0.0
C1624 C 0.51262 0.40743 0.68697 0.0
C1625 C 0.49567 0.41674 0.76644 0.0
C1626 C 0.49808 0.41248 0.82245 0.0
C1627 C 0.48598 0.4109 0.86072 0.0
C1628 C 0.47109 0.41402 0.84151 0.0
C1629 C 0.46844 0.4187 0.78457 0.0
C1630 C 0.48091 0.4197 0.74645 0.0
H1631 H 0.96941 0.53554 0.35416 0.0
H1632 H 0.95966 0.58362 0.32531 0.0
H1633 H 0.98739 0.58927 0.32802 0.0
H1634 H 0.00198 0.54104 0.44992 0.0
H1635 H 0.01223 0.52493 0.4209 0.0
H1636 H 0.99161 0.52497 0.42113 0.0
H1637 H 0.99146 0.52042 0.31198 0.0
H1638 H 0.01204 0.52036 0.31141 0.0
H1639 H 0.0017 0.53342 0.26616 0.0
H1640 H 0.01639 0.58925 0.32728 0.0
H1641 H 0.04408 0.58353 0.32236 0.0
H1642 H 0.03436 0.5355 0.35238 0.0
C1643 C 0.97305 0.54731 0.3491 0.0
C1644 C 0.96236 0.55914 0.33962 0.0
C1645 C 0.96765 0.57436 0.33279 0.0
C1646 C 0.98336 0.57768 0.33437 0.0
C1647 C 0.9936 0.56568 0.34316 0.0
C1648 C 0.98863 0.55081 0.35061 0.0
C1649 C 0.00192 0.53984 0.35656 0.0
C1650 C 0.00193 0.53225 0.41565 0.0
C1651 C 0.00177 0.52781 0.30867 0.0
C1652 C 0.01517 0.55081 0.35011 0.0
C1653 C 0.01019 0.56568 0.34287 0.0
C1654 C 0.02042 0.57767 0.3335 0.0
C1655 C 0.03612 0.57431 0.33076 0.0
C1656 C 0.0414 0.55908 0.33716 0.0
C1657 C 0.03074 0.54728 0.34778 0.0
H1658 H 0.97061 0.46447 0.69605 0.0
H1659 H 0.96172 0.42533 0.8049 0.0
H1660 H 0.98917 0.41871 0.80271 0.0
H1661 H 0.00116 0.44666 0.60974 0.0
H1662 H 0.012 0.46418 0.60618 0.0
H1663 H 0.99143 0.46484 0.61123 0.0
H1664 H 0.99352 0.48201 0.70094 0.0
H1665 H 0.01404 0.48142 0.69614 0.0
H1666 H 0.00466 0.47553 0.7609 0.0
H1667 H 0.01791 0.41788 0.7965 0.0
H1668 H 0.0456 0.42305 0.78731 0.0
H1669 H 0.03554 0.46251 0.6815 0.0
C1670 C 0.97437 0.45435 0.71861 0.0
C1671 C 0.96399 0.4454 0.75052 0.0
C1672 C 0.96944 0.43234 0.78002 0.0
C1673 C 0.98501 0.42846 0.77889 0.0
C1674 C 0.99497 0.43767 0.74774 0.0
C1675 C 0.98985 0.45031 0.71792 0.0
C1676 C 0.00301 0.45893 0.69098 0.0
C1677 C 0.00183 0.45863 0.62565 0.0
C1678 C 0.00385 0.47544 0.71362 0.0
C1679 C 0.01638 0.44943 0.71167 0.0
C1680 C 0.01151 0.43713 0.74386 0.0
C1681 C 0.02185 0.42734 0.77065 0.0
C1682 C 0.03755 0.43038 0.76524 0.0
C1683 C 0.04275 0.44312 0.73339 0.0
C1684 C 0.03197 0.45254 0.70539 0.0
H1685 H 0.47544 0.55827 0.29556 0.0
H1686 H 0.46693 0.57462 0.12382 0.0
H1687 H 0.49475 0.57824 0.1099 0.0
H1688 H 0.50789 0.58357 0.32752 0.0
H1689 H 0.51781 0.56891 0.36693 0.0
H1690 H 0.4972 0.56908 0.36492 0.0
H1691 H 0.49719 0.54123 0.32698 0.0
H1692 H 0.51776 0.54098 0.3288 0.0
H1693 H 0.50784 0.53671 0.26338 0.0
H1694 H 0.5237 0.57799 0.11241 0.0
H1695 H 0.55122 0.57376 0.13088 0.0
H1696 H 0.54038 0.55766 0.30111 0.0
C1697 C 0.47936 0.56286 0.25527 0.0
C1698 C 0.46899 0.56621 0.21081 0.0
C1699 C 0.47466 0.57202 0.15858 0.0
C1700 C 0.49043 0.57414 0.15032 0.0
C1701 C 0.50035 0.57048 0.19482 0.0
C1702 C 0.49501 0.56503 0.24635 0.0
C1703 C 0.50801 0.56106 0.28622 0.0
C1704 C 0.50771 0.57127 0.33955 0.0
C1705 C 0.50768 0.54398 0.30225 0.0
C1706 C 0.52155 0.56479 0.24864 0.0
C1707 C 0.51694 0.57034 0.19627 0.0
C1708 C 0.52745 0.57382 0.15352 0.0
C1709 C 0.54306 0.57137 0.1644 0.0
C1710 C 0.54798 0.56544 0.2175 0.0
C1711 C 0.53704 0.56236 0.26027 0.0
H1712 H 0.20427 0.18818 0.27526 0.0
H1713 H 0.21885 0.14767 0.18307 0.0
H1714 H 0.23978 0.14388 0.25244 0.0
H1715 H 0.2408 0.20221 0.30312 0.0
H1716 H 0.23642 0.20948 0.3731 0.0
H1717 H 0.22155 0.208 0.32038 0.0
H1718 H 0.20537 0.19132 0.38896 0.0
H1719 H 0.22014 0.19288 0.44222 0.0
H1720 H 0.21364 0.17429 0.41942 0.0
H1721 H 0.26045 0.1458 0.32775 0.0
H1722 H 0.27867 0.15293 0.40399 0.0
H1723 H 0.25055 0.19237 0.44497 0.0
C1724 C 0.21162 0.17829 0.27031 0.0
C1725 C 0.20985 0.16817 0.22387 0.0
C1726 C 0.21993 0.15555 0.21846 0.0
C1727 C 0.23186 0.1533 0.25765 0.0
C1728 C 0.23354 0.16376 0.30204 0.0
C1729 C 0.22362 0.17594 0.30876 0.0
C1730 C 0.22841 0.18607 0.35791 0.0
C1731 C 0.23201 0.2024 0.33737 0.0
C1732 C 0.21616 0.18614 0.40491 0.0
C1733 C 0.24274 0.17785 0.37715 0.0
C1734 C 0.24548 0.16494 0.34477 0.0
C1735 C 0.25834 0.15581 0.35371 0.0
C1736 C 0.26865 0.15997 0.39699 0.0
C1737 C 0.26605 0.1732 0.4305 0.0
C1738 C 0.25288 0.18217 0.42029 0.0
H1739 H 0.08047 0.00261 0.39728 0.0
H1740 H 0.11014 0.96496 0.44566 0.0
H1741 H 0.11621 0.97819 0.53593 0.0
H1742 H 0.10332 0.03334 0.46014 0.0
H1743 H 0.08672 0.04387 0.48332 0.0
H1744 H 0.08568 0.03201 0.42065 0.0
H1745 H 0.06269 0.01734 0.46408 0.0
H1746 H 0.06364 0.02916 0.52674 0.0
H1747 H 0.06464 0.00864 0.53334 0.0
H1748 H 0.11795 0.99488 0.62287 0.0
H1749 H 0.11447 0.01322 0.70171 0.0
H1750 H 0.0834 0.03981 0.59664 0.0
C1751 C 0.0884 0.99722 0.42648 0.0
C1752 C 0.09489 0.98277 0.41432 0.0
C1753 C 0.10505 0.97602 0.45406 0.0
C1754 C 0.10861 0.98348 0.50532 0.0
C1755 C 0.10192 0.99766 0.51613 0.0
C1756 C 0.09201 0.00445 0.47787 0.0
C1757 C 0.08566 0.01931 0.50108 0.0
C1758 C 0.09065 0.03294 0.46409 0.0
C1759 C 0.06812 0.01856 0.50665 0.0
C1760 C 0.09334 0.0197 0.55885 0.0
C1761 C 0.1028 0.0072 0.56646 0.0
C1762 C 0.11067 0.00478 0.61725 0.0
C1763 C 0.10861 0.01527 0.6618 0.0
C1764 C 0.09868 0.02797 0.65539 0.0
C1765 C 0.09116 0.03029 0.60279 0.0
H1766 H 0.21112 0.84725 0.85014 0.0
H1767 H 0.24384 0.84481 0.98907 0.0
H1768 H 0.26505 0.84729 0.92034 0.0
H1769 H 0.23214 0.82504 0.7528 0.0
H1770 H 0.22688 0.8361 0.69103 0.0
H1771 H 0.21425 0.83531 0.75148 0.0
H1772 H 0.21444 0.86491 0.75789 0.0
H1773 H 0.22708 0.8658 0.69733 0.0
H1774 H 0.23244 0.87488 0.76333 0.0
H1775 H 0.28275 0.84796 0.83585 0.0
H1776 H 0.29553 0.84734 0.7419 0.0
H1777 H 0.25123 0.84996 0.65874 0.0
C1778 C 0.22273 0.84744 0.86625 0.0
C1779 C 0.2258 0.84585 0.92504 0.0
C1780 C 0.24118 0.84605 0.94425 0.0
C1781 C 0.25332 0.84747 0.90554 0.0
C1782 C 0.2499 0.8488 0.84781 0.0
C1783 C 0.23498 0.8489 0.82825 0.0
C1784 C 0.23442 0.84987 0.76389 0.0
C1785 C 0.22646 0.83574 0.73832 0.0
C1786 C 0.22664 0.86475 0.74448 0.0
C1787 C 0.25135 0.85 0.75028 0.0
C1788 C 0.2601 0.84943 0.79924 0.0
C1789 C 0.27603 0.84861 0.79722 0.0
C1790 C 0.28318 0.84824 0.7437 0.0
C1791 C 0.2744 0.84874 0.693 0.0
C1792 C 0.25829 0.84981 0.69665 0.0
H1793 H 0.41552 0.04121 0.97487 0.0
H1794 H 0.37238 0.02568 0.90368 0.0
H1795 H 0.36992 0.00689 0.98172 0.0
H1796 H 0.42922 0.00495 0.01338 0.0
H1797 H 0.43831 0.01115 0.07834 0.0
H1798 H 0.43602 0.02434 0.02009 0.0
H1799 H 0.42162 0.04321 0.08625 0.0
H1800 H 0.42398 0.03014 0.14492 0.0
H1801 H 0.40513 0.03667 0.12547 0.0
H1802 H 0.37305 0.98861 0.06391 0.0
H1803 H 0.38117 0.97276 0.14561 0.0
H1804 H 0.42237 0.00017 0.16216 0.0
C1805 C 0.4054 0.03408 0.97623 0.0
C1806 C 0.3941 0.03498 0.93326 0.0
C1807 C 0.38116 0.02525 0.93621 0.0
C1808 C 0.37966 0.01453 0.98036 0.0
C1809 C 0.39119 0.01371 0.02127 0.0
C1810 C 0.40376 0.02329 0.0198 0.0
C1811 C 0.41489 0.01961 0.06733 0.0
C1812 C 0.43053 0.01472 0.04333 0.0
C1813 C 0.41649 0.03322 0.10843 0.0
C1814 C 0.40671 0.00632 0.09531 0.0
C1815 C 0.39303 0.00313 0.06831 0.0
C1816 C 0.38368 0.99109 0.08567 0.0
C1817 C 0.38842 0.98212 0.13202 0.0
C1818 C 0.4024 0.98521 0.16038 0.0
C1819 C 0.4116 0.99751 0.14159 0.0
H1820 H 0.77112 0.85116 0.86395 0.0
H1821 H 0.73283 0.85183 0.98175 0.0
H1822 H 0.71489 0.85254 0.90069 0.0
H1823 H 0.75359 0.87623 0.75451 0.0
H1824 H 0.76185 0.86542 0.69678 0.0
H1825 H 0.77169 0.86666 0.76411 0.0
H1826 H 0.77246 0.83707 0.76999 0.0
H1827 H 0.76255 0.83574 0.70301 0.0
H1828 H 0.75484 0.82642 0.76518 0.0
H1829 H 0.70109 0.85018 0.80724 0.0
H1830 H 0.69254 0.84613 0.708 0.0
H1831 H 0.73977 0.84766 0.65113 0.0
C1832 C 0.75898 0.8518 0.87279 0.0
C1833 C 0.7534 0.85147 0.92931 0.0
C1834 C 0.7374 0.85212 0.9389 0.0
C1835 C 0.7271 0.85253 0.8931 0.0
C1836 C 0.73297 0.85244 0.83793 0.0
C1837 C 0.74854 0.85226 0.82757 0.0
C1838 C 0.75186 0.85134 0.76433 0.0
C1839 C 0.76024 0.86578 0.74373 0.0
C1840 C 0.76096 0.83678 0.74981 0.0
C1841 C 0.73574 0.85062 0.74085 0.0
C1842 C 0.725 0.85134 0.78396 0.0
C1843 C 0.70939 0.84986 0.77302 0.0
C1844 C 0.70464 0.84751 0.71657 0.0
C1845 C 0.71547 0.84672 0.67178 0.0
C1846 C 0.73119 0.84848 0.68427 0.0
H1847 H 0.92418 0.00027 0.66347 0.0
H1848 H 0.88578 0.03153 0.64866 0.0
H1849 H 0.87734 0.01811 0.56159 0.0
H1850 H 0.9328 0.99845 0.5177 0.0
H1851 H 0.93789 0.97847 0.51781 0.0
H1852 H 0.94012 0.98966 0.5816 0.0
H1853 H 0.92313 0.97044 0.63695 0.0
H1854 H 0.92084 0.95917 0.5732 0.0
H1855 H 0.90423 0.96605 0.61084 0.0
H1856 H 0.87433 0.00269 0.472 0.0
H1857 H 0.87693 0.98636 0.38669 0.0
H1858 H 0.91703 0.96488 0.46081 0.0
C1859 C 0.91387 0.00418 0.64244 0.0
C1860 C 0.90562 0.01695 0.66302 0.0
C1861 C 0.89227 0.02176 0.63383 0.0
C1862 C 0.88737 0.01418 0.58439 0.0
C1863 C 0.89587 0.00176 0.56489 0.0
C1864 C 0.90881 0.99674 0.59313 0.0
C1865 C 0.91635 0.98361 0.56172 0.0
C1866 C 0.93276 0.9878 0.54364 0.0
C1867 C 0.91612 0.96895 0.59784 0.0
C1868 C 0.90584 0.98225 0.51071 0.0
C1869 C 0.89404 0.99275 0.51352 0.0
C1870 C 0.8834 0.99428 0.46969 0.0
C1871 C 0.88498 0.98497 0.42136 0.0
C1872 C 0.8971 0.97427 0.41728 0.0
C1873 C 0.90749 0.97276 0.46308 0.0
H1874 H 0.78625 0.16072 0.26205 0.0
H1875 H 0.75902 0.12772 0.1681 0.0
H1876 H 0.74082 0.12633 0.24836 0.0
H1877 H 0.77938 0.14463 0.40613 0.0
H1878 H 0.77843 0.16335 0.4381 0.0
H1879 H 0.79031 0.16019 0.37646 0.0
H1880 H 0.77628 0.18214 0.32378 0.0
H1881 H 0.76425 0.18525 0.38485 0.0
H1882 H 0.75576 0.1814 0.31635 0.0
H1883 H 0.72423 0.13054 0.33427 0.0
H1884 H 0.71095 0.13936 0.42108 0.0
H1885 H 0.74891 0.16981 0.45834 0.0
C1886 C 0.7767 0.15288 0.25891 0.0
C1887 C 0.77411 0.14426 0.20888 0.0
C1888 C 0.76128 0.13438 0.20608 0.0
C1889 C 0.75087 0.13351 0.25146 0.0
C1890 C 0.75349 0.14254 0.29939 0.0
C1891 C 0.76616 0.15194 0.30365 0.0
C1892 C 0.76577 0.16128 0.35798 0.0
C1893 C 0.77928 0.15711 0.39698 0.0
C1894 C 0.76549 0.17853 0.34492 0.0
C1895 C 0.75072 0.15595 0.38293 0.0
C1896 C 0.74388 0.14505 0.34876 0.0
C1897 C 0.72957 0.13893 0.36174 0.0
C1898 C 0.72209 0.14406 0.41103 0.0
C1899 C 0.72889 0.15526 0.44662 0.0
C1900 C 0.74344 0.16118 0.43229 0.0
H1901 H 0.5774 0.95908 0.11701 0.0
H1902 H 0.60718 0.98537 0.22816 0.0
H1903 H 0.61211 0.00356 0.14992 0.0
H1904 H 0.59973 0.96456 0.98663 0.0
H1905 H 0.58293 0.96597 0.94242 0.0
H1906 H 0.58249 0.95453 0.00623 0.0
H1907 H 0.55904 0.96989 0.04227 0.0
H1908 H 0.55943 0.9814 0.97874 0.0
H1909 H 0.5603 0.99042 0.04771 0.0
H1910 H 0.61221 0.02 0.06173 0.0
H1911 H 0.60829 0.03276 0.96883 0.0
H1912 H 0.57905 0.9953 0.91508 0.0
C1913 C 0.5851 0.96856 0.12478 0.0
C1914 C 0.59189 0.97079 0.17876 0.0
C1915 C 0.60186 0.98338 0.18715 0.0
C1916 C 0.60474 0.99379 0.14297 0.0
C1917 C 0.59767 0.99138 0.09054 0.0
C1918 C 0.58817 0.979 0.08111 0.0
C1919 C 0.58164 0.97924 0.02139 0.0
C1920 C 0.58703 0.96524 0.98715 0.0
C1921 C 0.56406 0.98031 0.02264 0.0
C1922 C 0.58875 0.99384 0.99903 0.0
C1923 C 0.59797 0.00068 0.03949 0.0
C1924 C 0.60516 0.01465 0.02946 0.0
C1925 C 0.60283 0.02183 0.97669 0.0
C1926 C 0.59345 0.01498 0.93463 0.0
C1927 C 0.58645 0.00074 0.94604 0.0
H1928 H 0.77985 0.65219 0.85343 0.0
H1929 H 0.74242 0.64303 0.97015 0.0
H1930 H 0.72511 0.63892 0.8885 0.0
H1931 H 0.75884 0.67338 0.7554 0.0
H1932 H 0.76847 0.66612 0.6931 0.0
H1933 H 0.7783 0.66667 0.76039 0.0
H1934 H 0.78382 0.6376 0.75304 0.0
H1935 H 0.77404 0.63698 0.68547 0.0
H1936 H 0.76818 0.62446 0.74244 0.0
H1937 H 0.71126 0.63864 0.79454 0.0
H1938 H 0.70221 0.64129 0.69524 0.0
H1939 H 0.74881 0.64996 0.64005 0.0
C1940 C 0.76809 0.64902 0.8619 0.0
C1941 C 0.76251 0.64791 0.91827 0.0
C1942 C 0.74699 0.6439 0.9274 0.0
C1943 C 0.73705 0.64153 0.88127 0.0
C1944 C 0.74284 0.64306 0.82626 0.0
C1945 C 0.75804 0.64657 0.81639 0.0
C1946 C 0.7612 0.64839 0.75333 0.0
C1947 C 0.76704 0.6646 0.73979 0.0
C1948 C 0.77248 0.63612 0.73234 0.0
C1949 C 0.74533 0.64577 0.72938 0.0
C1950 C 0.73491 0.64264 0.77207 0.0
C1951 C 0.71936 0.64084 0.76064 0.0
C1952 C 0.71432 0.6424 0.70416 0.0
C1953 C 0.72481 0.64569 0.65984 0.0
C1954 C 0.74053 0.64717 0.67278 0.0
H1955 H 0.58577 0.52046 0.12405 0.0
H1956 H 0.61873 0.49398 0.22111 0.0
H1957 H 0.61929 0.47456 0.14463 0.0
H1958 H 0.56445 0.48873 0.07113 0.0
H1959 H 0.56099 0.4972 0.00232 0.0
H1960 H 0.5636 0.50924 0.06381 0.0
H1961 H 0.58569 0.52349 0.01277 0.0
H1962 H 0.58311 0.51155 0.951 0.0
H1963 H 0.6016 0.51272 0.98481 0.0
H1964 H 0.61586 0.45779 0.05779 0.0
H1965 H 0.60892 0.44516 0.96713 0.0
H1966 H 0.57801 0.48262 0.9282 0.0
C1967 C 0.5932 0.51064 0.12914 0.0
C1968 C 0.60224 0.50877 0.17857 0.0
C1969 C 0.61172 0.49568 0.18362 0.0
C1970 C 0.61211 0.48458 0.14041 0.0
C1971 C 0.60294 0.48673 0.0925 0.0
C1972 C 0.59369 0.49945 0.08662 0.0
C1973 C 0.58475 0.49895 0.03141 0.0
C1974 C 0.56742 0.4985 0.04288 0.0
C1975 C 0.58905 0.51248 0.99272 0.0
C1976 C 0.59039 0.48394 0.00715 0.0
C1977 C 0.60089 0.47706 0.04291 0.0
C1978 C 0.60766 0.46308 0.02942 0.0
C1979 C 0.60363 0.45599 0.97787 0.0
C1980 C 0.59291 0.46288 0.94055 0.0
C1981 C 0.58622 0.47702 0.95575 0.0
H1982 H 0.74 0.35615 0.39604 0.0
H1983 H 0.70195 0.33204 0.31833 0.0
H1984 H 0.71562 0.33185 0.2263 0.0
H1985 H 0.7513 0.37908 0.26985 0.0
H1986 H 0.77143 0.37693 0.28453 0.0
H1987 H 0.75785 0.37708 0.3423 0.0
H1988 H 0.76818 0.35091 0.37696 0.0
H1989 H 0.78174 0.35065 0.31929 0.0
H1990 H 0.76857 0.33496 0.32827 0.0
H1991 H 0.73395 0.33245 0.14547 0.0
H1992 H 0.7562 0.33271 0.08135 0.0
H1993 H 0.78307 0.35557 0.21177 0.0
C1994 C 0.7344 0.35119 0.35923 0.0
C1995 C 0.71984 0.34427 0.36396 0.0
C1996 C 0.71306 0.33747 0.31542 0.0
C1997 C 0.72071 0.33736 0.26298 0.0
C1998 C 0.73518 0.34401 0.25992 0.0
C1999 C 0.742 0.35077 0.3067 0.0
C2000 C 0.75821 0.35579 0.29315 0.0
C2001 C 0.75979 0.37326 0.29772 0.0
C2002 C 0.76986 0.34759 0.3317 0.0
C2003 C 0.75953 0.3505 0.23185 0.0
C2004 C 0.74601 0.34396 0.21338 0.0
C2005 C 0.74455 0.33766 0.15923 0.0
C2006 C 0.7573 0.33785 0.12314 0.0
C2007 C 0.77142 0.34417 0.14144 0.0
C2008 C 0.77243 0.35076 0.19633 0.0
H2009 H 0.90921 0.47102 0.63075 0.0
H2010 H 0.88735 0.50265 0.74786 0.0
H2011 H 0.88479 0.52154 0.67022 0.0
H2012 H 0.9311 0.49811 0.55754 0.0
H2013 H 0.92904 0.48924 0.48865 0.0
H2014 H 0.92797 0.47778 0.55217 0.0
H2015 H 0.90132 0.46771 0.52135 0.0
H2016 H 0.90233 0.4791 0.45751 0.0
H2017 H 0.88628 0.48115 0.50513 0.0
H2018 H 0.88677 0.53786 0.58139 0.0
H2019 H 0.89213 0.54971 0.48768 0.0
H2020 H 0.91203 0.50699 0.42937 0.0
C2021 C 0.90366 0.48182 0.63997 0.0
C2022 C 0.89847 0.48534 0.6954 0.0
C2023 C 0.89137 0.49966 0.70566 0.0
C2024 C 0.88986 0.51048 0.66184 0.0
C2025 C 0.89538 0.50674 0.60792 0.0
C2026 C 0.90199 0.49269 0.59675 0.0
C2027 C 0.90753 0.49167 0.53584 0.0
C2028 C 0.92494 0.48905 0.53345 0.0
C2029 C 0.89884 0.47917 0.50303 0.0
C2030 C 0.90329 0.50746 0.51476 0.0
C2031 C 0.89626 0.516 0.5568 0.0
C2032 C 0.89207 0.53121 0.54791 0.0
C2033 C 0.8952 0.53786 0.49466 0.0
C2034 C 0.90239 0.52926 0.4511 0.0
C2035 C 0.90633 0.51383 0.46145 0.0
H2036 H 0.24577 0.32622 0.16693 0.0
H2037 H 0.22649 0.37161 0.14503 0.0
H2038 H 0.24299 0.38126 0.22254 0.0
H2039 H 0.2472 0.32701 0.31623 0.0
H2040 H 0.26497 0.31665 0.32184 0.0
H2041 H 0.25268 0.31365 0.26137 0.0
H2042 H 0.27502 0.32051 0.19335 0.0
H2043 H 0.2874 0.32351 0.25373 0.0
H2044 H 0.28485 0.33849 0.20184 0.0
H2045 H 0.26028 0.38554 0.307 0.0
H2046 H 0.27683 0.38402 0.39216 0.0
H2047 H 0.28475 0.33583 0.35825 0.0
C2048 C 0.24516 0.33825 0.17778 0.0
C2049 C 0.23486 0.34817 0.14975 0.0
C2050 C 0.23431 0.36379 0.16579 0.0
C2051 C 0.24367 0.36939 0.20969 0.0
C2052 C 0.25355 0.35925 0.23696 0.0
C2053 C 0.25439 0.34401 0.2215 0.0
C2054 C 0.26535 0.33531 0.25949 0.0
C2055 C 0.25705 0.3224 0.29163 0.0
C2056 C 0.27896 0.32909 0.22504 0.0
C2057 C 0.27031 0.34795 0.2995 0.0
C2058 C 0.26348 0.36171 0.28555 0.0
C2059 C 0.26581 0.37486 0.31798 0.0
C2060 C 0.27522 0.37388 0.36631 0.0
C2061 C 0.28214 0.35983 0.38184 0.0
C2062 C 0.27976 0.34679 0.34733 0.0
H2063 H 0.42755 0.46517 0.9453 0.0
H2064 H 0.39321 0.49124 0.8535 0.0
H2065 H 0.39173 0.50953 0.93365 0.0
H2066 H 0.41182 0.47061 0.08731 0.0
H2067 H 0.43042 0.47229 0.11991 0.0
H2068 H 0.42802 0.46082 0.05677 0.0
H2069 H 0.44918 0.4765 0.00603 0.0
H2070 H 0.45161 0.48804 0.06888 0.0
H2071 H 0.44739 0.49701 0.00156 0.0
H2072 H 0.39477 0.52553 0.023 0.0
H2073 H 0.40233 0.53801 0.11334 0.0
H2074 H 0.43494 0.5015 0.14471 0.0
C2075 C 0.41957 0.47461 0.94223 0.0
C2076 C 0.41045 0.47673 0.89319 0.0
C2077 C 0.4003 0.48936 0.89068 0.0
C2078 C 0.39936 0.4998 0.93602 0.0
C2079 C 0.40866 0.49746 0.98348 0.0
C2080 C 0.41856 0.48516 0.98682 0.0
C2081 C 0.42778 0.48553 0.04135 0.0
C2082 C 0.4243 0.47148 0.07853 0.0
C2083 C 0.44501 0.48685 0.02867 0.0
C2084 C 0.42163 0.50003 0.06801 0.0
C2085 C 0.41054 0.50672 0.03426 0.0
C2086 C 0.4034 0.52036 0.04987 0.0
C2087 C 0.40777 0.52736 0.10123 0.0
C2088 C 0.41923 0.52074 0.13611 0.0
C2089 C 0.42614 0.50686 0.11912 0.0
H2090 H 0.25276 0.64343 0.91295 0.0
H2091 H 0.21159 0.65497 0.81883 0.0
H2092 H 0.2263 0.65427 0.72903 0.0
H2093 H 0.27702 0.66703 0.83764 0.0
H2094 H 0.29334 0.65443 0.83882 0.0
H2095 H 0.27926 0.65335 0.89451 0.0
H2096 H 0.27522 0.62452 0.87362 0.0
H2097 H 0.28942 0.62547 0.81803 0.0
H2098 H 0.27049 0.61845 0.80236 0.0
H2099 H 0.24582 0.65525 0.65169 0.0
H2100 H 0.26874 0.65781 0.59156 0.0
H2101 H 0.29748 0.64606 0.73604 0.0
C2102 C 0.24673 0.64538 0.87332 0.0
C2103 C 0.23099 0.64914 0.87281 0.0
C2104 C 0.22362 0.65199 0.82017 0.0
C2105 C 0.23187 0.65158 0.76896 0.0
C2106 C 0.24747 0.64828 0.77117 0.0
C2107 C 0.25482 0.64514 0.82193 0.0
C2108 C 0.27192 0.64333 0.81327 0.0
C2109 C 0.2809 0.65524 0.84811 0.0
C2110 C 0.27706 0.62697 0.82767 0.0
C2111 C 0.2731 0.64642 0.74997 0.0
C2112 C 0.25883 0.64904 0.72643 0.0
C2113 C 0.25703 0.65301 0.66945 0.0
C2114 C 0.27016 0.65449 0.6357 0.0
C2115 C 0.28494 0.6521 0.65903 0.0
C2116 C 0.28635 0.6478 0.71679 0.0
H2117 H 0.09832 0.53824 0.46257 0.0
H2118 H 0.11899 0.50486 0.34935 0.0
H2119 H 0.12102 0.48661 0.42945 0.0
H2120 H 0.1214 0.52858 0.58854 0.0
H2121 H 0.10563 0.5317 0.63667 0.0
H2122 H 0.10679 0.54238 0.57117 0.0
H2123 H 0.07967 0.53298 0.54324 0.0
H2124 H 0.07846 0.52222 0.60841 0.0
H2125 H 0.07579 0.51273 0.54096 0.0
H2126 H 0.11824 0.4711 0.52008 0.0
H2127 H 0.11265 0.46035 0.61544 0.0
H2128 H 0.09508 0.50443 0.66962 0.0
C2129 C 0.10348 0.52717 0.45473 0.0
C2130 C 0.10849 0.52296 0.3997 0.0
C2131 C 0.11515 0.50836 0.39123 0.0
C2132 C 0.11632 0.49791 0.43644 0.0
C2133 C 0.111 0.50232 0.48997 0.0
C2134 C 0.10491 0.51669 0.49942 0.0
C2135 C 0.09966 0.51853 0.56048 0.0
C2136 C 0.10893 0.53104 0.59101 0.0
C2137 C 0.08237 0.5218 0.5634 0.0
C2138 C 0.10341 0.50282 0.58366 0.0
C2139 C 0.10992 0.49361 0.54239 0.0
C2140 C 0.1134 0.4783 0.55298 0.0
C2141 C 0.11015 0.47228 0.60714 0.0
C2142 C 0.10361 0.4816 0.65006 0.0
C2143 C 0.10036 0.49709 0.63805 0.0
loop_
_geom_bond_atom_site_label_1
_geom_bond_atom_site_label_2
_geom_bond_distance
_geom_bond_site_symmetry_2
_ccdc_geom_bond_type
C0 O1 1.160 . S
C0 O7 1.185 . S
O1 C0 1.160 . S
O2 Zn3 1.899 . S
O2 C10 1.284 . S
Zn3 O2 1.899 . S
Zn3 O4 2.032 1_554 S
Zn3 O7 2.086 . S
Zn3 O12 1.977 . S
O4 Zn3 2.032 1_556 S
O4 C8 1.278 . S
C5 O6 1.203 . S
C5 O12 1.267 . S
O6 C5 1.203 . S
O7 C0 1.185 . S
O7 Zn3 2.086 . S
C8 O4 1.278 . S
C8 O9 1.211 . S
O9 C8 1.211 . S
C10 O2 1.284 . S
C10 O11 1.273 . S
O11 C10 1.273 . S
O12 Zn3 1.977 . S
O12 C5 1.267 . S
C13 O14 1.160 . S
C13 O20 1.185 . S
O14 C13 1.160 . S
O15 Zn16 1.899 . S
O15 C23 1.284 . S
Zn16 O15 1.899 . S
Zn16 O17 2.032 . S
Zn16 O20 2.086 . S
Zn16 O25 1.977 . S
O17 Zn16 2.032 . S
O17 C21 1.278 . S
C18 O19 1.203 . S
C18 O25 1.267 . S
O19 C18 1.203 . S
O20 C13 1.185 . S
O20 Zn16 2.086 . S
C21 O17 1.278 . S
C21 O22 1.211 . S
O22 C21 1.211 . S
C23 O15 1.284 . S
C23 O24 1.273 . S
O24 C23 1.273 . S
O25 Zn16 1.977 . S
O25 C18 1.267 . S
C26 O27 1.160 . S
C26 O33 1.185 . S
O27 C26 1.160 . S
O28 Zn29 1.899 . S
O28 C36 1.284 . S
Zn29 O28 1.899 . S
Zn29 O30 2.032 . S
Zn29 O33 2.086 . S
Zn29 O38 1.977 . S
O30 Zn29 2.032 . S
O30 C34 1.278 . S
C31 O32 1.203 . S
C31 O38 1.267 . S
O32 C31 1.203 . S
O33 C26 1.185 . S
O33 Zn29 2.086 . S
C34 O30 1.278 . S
C34 O35 1.211 . S
O35 C34 1.211 . S
C36 O28 1.284 . S
C36 O37 1.273 . S
O37 C36 1.273 . S
O38 Zn29 1.977 . S
O38 C31 1.267 . S
C39 O40 1.160 . S
C39 O46 1.185 . S
O40 C39 1.160 . S
O41 Zn42 1.899 . S
O41 C49 1.284 . S
Zn42 O41 1.899 . S
Zn42 O43 2.032 . S
Zn42 O46 2.086 . S
Zn42 O51 1.977 . S
O43 Zn42 2.032 . S
O43 C47 1.278 . S
C44 O45 1.203 . S
C44 O51 1.267 . S
O45 C44 1.203 . S
O46 C39 1.185 . S
O46 Zn42 2.086 . S
C47 O43 1.278 . S
C47 O48 1.211 . S
O48 C47 1.211 . S
C49 O41 1.284 . S
C49 O50 1.273 . S
O50 C49 1.273 . S
O51 Zn42 1.977 . S
O51 C44 1.267 . S
C52 O53 1.160 . S
C52 O59 1.185 . S
O53 C52 1.160 . S
O54 Zn55 1.899 1_556 S
O54 C62 1.284 . S
Zn55 O54 1.899 1_554 S
Zn55 O56 2.032 . S
Zn55 O59 2.086 . S
Zn55 O64 1.977 . S
O56 Zn55 2.032 . S
O56 C60 1.278 . S
C57 O58 1.203 . S
C57 O64 1.267 . S
O58 C57 1.203 . S
O59 C52 1.185 . S
O59 Zn55 2.086 . S
C60 O56 1.278 . S
C60 O61 1.211 . S
O61 C60 1.211 . S
C62 O54 1.284 . S
C62 O63 1.273 1_556 S
O63 C62 1.273 1_554 S
O64 Zn55 1.977 . S
O64 C57 1.267 . S
C65 O66 1.160 . S
C65 O72 1.185 . S
O66 C65 1.160 . S
O67 Zn68 1.899 . S
O67 C75 1.284 . S
Zn68 O67 1.899 . S
Zn68 O69 2.032 . S
Zn68 O72 2.086 . S
Zn68 O77 1.977 . S
O69 Zn68 2.032 . S
O69 C73 1.278 . S
C70 O71 1.203 . S
C70 O77 1.267 . S
O71 C70 1.203 . S
O72 C65 1.185 . S
O72 Zn68 2.086 . S
C73 O69 1.278 . S
C73 O74 1.211 . S
O74 C73 1.211 . S
C75 O67 1.284 . S
C75 O76 1.273 . S
O76 C75 1.273 . S
O77 Zn68 1.977 . S
O77 C70 1.267 . S
C78 O79 1.160 . S
C78 O85 1.185 . S
O79 C78 1.160 . S
O80 Zn81 1.899 . S
O80 C88 1.284 . S
Zn81 O80 1.899 . S
Zn81 O82 2.032 . S
Zn81 O85 2.086 . S
Zn81 O90 1.977 . S
O82 Zn81 2.032 . S
O82 C86 1.278 . S
C83 O84 1.203 . S
C83 O90 1.267 . S
O84 C83 1.203 . S
O85 C78 1.185 . S
O85 Zn81 2.086 . S
C86 O82 1.278 . S
C86 O87 1.211 . S
O87 C86 1.211 . S
C88 O80 1.284 . S
C88 O89 1.273 . S
O89 C88 1.273 . S
O90 Zn81 1.977 . S
O90 C83 1.267 . S
C91 O92 1.160 . S
C91 O98 1.185 . S
O92 C91 1.160 . S
O93 Zn94 1.899 . S
O93 C101 1.284 . S
Zn94 O93 1.899 . S
Zn94 O95 2.032 . S
Zn94 O98 2.086 . S
Zn94 O103 1.977 . S
O95 Zn94 2.032 . S
O95 C99 1.278 . S
C96 O97 1.203 . S
C96 O103 1.267 . S
O97 C96 1.203 . S
O98 C91 1.185 . S
O98 Zn94 2.086 . S
C99 O95 1.278 . S
C99 O100 1.211 . S
O100 C99 1.211 . S
C101 O93 1.284 . S
C101 O102 1.273 . S
O102 C101 1.273 . S
O103 Zn94 1.977 . S
O103 C96 1.267 . S
C104 O105 1.160 . S
C104 O111 1.185 . S
O105 C104 1.160 . S
O106 Zn107 1.899 1_556 S
O106 C114 1.284 . S
Zn107 O106 1.899 1_554 S
Zn107 O108 2.032 . S
Zn107 O111 2.086 . S
Zn107 O116 1.977 . S
O108 Zn107 2.032 . S
O108 C112 1.278 . S
C109 O110 1.203 . S
C109 O116 1.267 . S
O110 C109 1.203 . S
O111 C104 1.185 . S
O111 Zn107 2.086 . S
C112 O108 1.278 . S
C112 O113 1.211 . S
O113 C112 1.211 . S
C114 O106 1.284 . S
C114 O115 1.273 1_556 S
O115 C114 1.273 1_554 S
O116 Zn107 1.977 . S
O116 C109 1.267 . S
C117 O118 1.160 . S
C117 O124 1.185 . S
O118 C117 1.160 . S
O119 Zn120 1.899 . S
O119 C127 1.284 . S
Zn120 O119 1.899 . S
Zn120 O121 2.032 . S
Zn120 O124 2.086 . S
Zn120 O129 1.977 . S
O121 Zn120 2.032 . S
O121 C125 1.278 . S
C122 O123 1.203 . S
C122 O129 1.267 . S
O123 C122 1.203 . S
O124 C117 1.185 . S
O124 Zn120 2.086 . S
C125 O121 1.278 . S
C125 O126 1.211 . S
O126 C125 1.211 . S
C127 O119 1.284 . S
C127 O128 1.273 . S
O128 C127 1.273 . S
O129 Zn120 1.977 . S
O129 C122 1.267 . S
C130 O131 1.160 . S
C130 O137 1.185 . S
O131 C130 1.160 . S
O132 Zn133 1.899 . S
O132 C140 1.284 . S
Zn133 O132 1.899 . S
Zn133 O134 2.032 . S
Zn133 O137 2.086 . S
Zn133 O142 1.977 . S
O134 Zn133 2.032 . S
O134 C138 1.278 . S
C135 O136 1.203 . S
C135 O142 1.267 . S
O136 C135 1.203 . S
O137 C130 1.185 . S
O137 Zn133 2.086 . S
C138 O134 1.278 . S
C138 O139 1.211 . S
O139 C138 1.211 . S
C140 O132 1.284 . S
C140 O141 1.273 . S
O141 C140 1.273 . S
O142 Zn133 1.977 . S
O142 C135 1.267 . S
C143 O144 1.160 . S
C143 O150 1.185 . S
O144 C143 1.160 . S
O145 Zn146 1.899 . S
O145 C153 1.284 . S
Zn146 O145 1.899 . S
Zn146 O147 2.032 . S
Zn146 O150 2.086 . S
Zn146 O155 1.977 . S
O147 Zn146 2.032 . S
O147 C151 1.278 . S
C148 O149 1.203 . S
C148 O155 1.267 . S
O149 C148 1.203 . S
O150 C143 1.185 . S
O150 Zn146 2.086 . S
C151 O147 1.278 . S
C151 O152 1.211 . S
O152 C151 1.211 . S
C153 O145 1.284 . S
C153 O154 1.273 . S
O154 C153 1.273 . S
O155 Zn146 1.977 . S
O155 C148 1.267 . S
C156 O157 1.160 . S
C156 O163 1.185 . S
O157 C156 1.160 . S
O158 Zn159 1.899 . S
O158 C166 1.284 . S
Zn159 O158 1.899 . S
Zn159 O160 2.032 1_554 S
Zn159 O163 2.086 . S
Zn159 O168 1.977 . S
O160 Zn159 2.032 1_556 S
O160 C164 1.278 . S
C161 O162 1.203 . S
C161 O168 1.267 . S
O162 C161 1.203 . S
O163 C156 1.185 . S
O163 Zn159 2.086 . S
C164 O160 1.278 . S
C164 O165 1.211 . S
O165 C164 1.211 . S
C166 O158 1.284 . S
C166 O167 1.273 . S
O167 C166 1.273 . S
O168 Zn159 1.977 . S
O168 C161 1.267 . S
C169 O170 1.160 . S
C169 O176 1.185 . S
O170 C169 1.160 . S
O171 Zn172 1.899 . S
O171 C179 1.284 . S
Zn172 O171 1.899 . S
Zn172 O173 2.032 . S
Zn172 O176 2.086 . S
Zn172 O181 1.977 . S
O173 Zn172 2.032 . S
O173 C177 1.278 . S
C174 O175 1.203 . S
C174 O181 1.267 . S
O175 C174 1.203 . S
O176 C169 1.185 . S
O176 Zn172 2.086 . S
C177 O173 1.278 . S
C177 O178 1.211 . S
O178 C177 1.211 . S
C179 O171 1.284 . S
C179 O180 1.273 . S
O180 C179 1.273 . S
O181 Zn172 1.977 . S
O181 C174 1.267 . S
C182 O183 1.160 . S
C182 O189 1.185 . S
O183 C182 1.160 . S
O184 Zn185 1.899 . S
O184 C192 1.284 . S
Zn185 O184 1.899 . S
Zn185 O186 2.032 . S
Zn185 O189 2.086 . S
Zn185 O194 1.977 . S
O186 Zn185 2.032 . S
O186 C190 1.278 . S
C187 O188 1.203 . S
C187 O194 1.267 . S
O188 C187 1.203 . S
O189 C182 1.185 . S
O189 Zn185 2.086 . S
C190 O186 1.278 . S
C190 O191 1.211 . S
O191 C190 1.211 . S
C192 O184 1.284 . S
C192 O193 1.273 . S
O193 C192 1.273 . S
O194 Zn185 1.977 . S
O194 C187 1.267 . S
C195 O196 1.160 . S
C195 O202 1.185 . S
O196 C195 1.160 . S
O197 Zn198 1.899 . S
O197 C205 1.284 . S
Zn198 O197 1.899 . S
Zn198 O199 2.032 . S
Zn198 O202 2.086 . S
Zn198 O207 1.977 . S
O199 Zn198 2.032 . S
O199 C203 1.278 . S
C200 O201 1.203 . S
C200 O207 1.267 . S
O201 C200 1.203 . S
O202 C195 1.185 . S
O202 Zn198 2.086 . S
C203 O199 1.278 . S
C203 O204 1.211 . S
O204 C203 1.211 . S
C205 O197 1.284 . S
C205 O206 1.273 . S
O206 C205 1.273 . S
O207 Zn198 1.977 . S
O207 C200 1.267 . S
C208 O209 1.160 . S
C208 O215 1.185 . S
O209 C208 1.160 . S
O210 Zn211 1.899 . S
O210 C218 1.284 . S
Zn211 O210 1.899 . S
Zn211 O212 2.032 . S
Zn211 O215 2.086 . S
Zn211 O220 1.977 . S
O212 Zn211 2.032 . S
O212 C216 1.278 . S
C213 O214 1.203 . S
C213 O220 1.267 . S
O214 C213 1.203 . S
O215 C208 1.185 . S
O215 Zn211 2.086 . S
C216 O212 1.278 . S
C216 O217 1.211 . S
O217 C216 1.211 . S
C218 O210 1.284 . S
C218 O219 1.273 . S
O219 C218 1.273 . S
O220 Zn211 1.977 . S
O220 C213 1.267 . S
C221 O222 1.160 . S
C221 O228 1.185 . S
O222 C221 1.160 . S
O223 Zn224 1.899 . S
O223 C231 1.284 . S
Zn224 O223 1.899 . S
Zn224 O225 2.032 . S
Zn224 O228 2.086 . S
Zn224 O233 1.977 . S
O225 Zn224 2.032 . S
O225 C229 1.278 . S
C226 O227 1.203 . S
C226 O233 1.267 . S
O227 C226 1.203 . S
O228 C221 1.185 . S
O228 Zn224 2.086 . S
C229 O225 1.278 . S
C229 O230 1.211 . S
O230 C229 1.211 . S
C231 O223 1.284 . S
C231 O232 1.273 . S
O232 C231 1.273 . S
O233 Zn224 1.977 . S
O233 C226 1.267 . S
C234 O235 1.160 . S
C234 O241 1.185 . S
O235 C234 1.160 . S
O236 Zn237 1.899 . S
O236 C244 1.284 . S
Zn237 O236 1.899 . S
Zn237 O238 2.032 1_554 S
Zn237 O241 2.086 . S
Zn237 O246 1.977 . S
O238 Zn237 2.032 1_556 S
O238 C242 1.278 . S
C239 O240 1.203 . S
C239 O246 1.267 . S
O240 C239 1.203 . S
O241 C234 1.185 . S
O241 Zn237 2.086 . S
C242 O238 1.278 . S
C242 O243 1.211 . S
O243 C242 1.211 . S
C244 O236 1.284 . S
C244 O245 1.273 . S
O245 C244 1.273 . S
O246 Zn237 1.977 . S
O246 C239 1.267 . S
C247 O248 1.160 . S
C247 O254 1.185 . S
O248 C247 1.160 . S
O249 Zn250 1.899 . S
O249 C257 1.284 . S
Zn250 O249 1.899 . S
Zn250 O251 2.032 . S
Zn250 O254 2.086 . S
Zn250 O259 1.977 . S
O251 Zn250 2.032 . S
O251 C255 1.278 . S
C252 O253 1.203 . S
C252 O259 1.267 . S
O253 C252 1.203 . S
O254 C247 1.185 . S
O254 Zn250 2.086 . S
C255 O251 1.278 . S
C255 O256 1.211 . S
O256 C255 1.211 . S
C257 O249 1.284 . S
C257 O258 1.273 . S
O258 C257 1.273 . S
O259 Zn250 1.977 . S
O259 C252 1.267 . S
C260 O261 1.160 . S
C260 O267 1.185 . S
O261 C260 1.160 . S
O262 Zn263 1.899 . S
O262 C270 1.284 . S
Zn263 O262 1.899 . S
Zn263 O264 2.032 . S
Zn263 O267 2.086 . S
Zn263 O272 1.977 . S
O264 Zn263 2.032 . S
O264 C268 1.278 . S
C265 O266 1.203 . S
C265 O272 1.267 . S
O266 C265 1.203 . S
O267 C260 1.185 . S
O267 Zn263 2.086 . S
C268 O264 1.278 . S
C268 O269 1.211 . S
O269 C268 1.211 . S
C270 O262 1.284 . S
C270 O271 1.273 . S
O271 C270 1.273 . S
O272 Zn263 1.977 . S
O272 C265 1.267 . S
C273 O274 1.160 . S
C273 O280 1.185 . S
O274 C273 1.160 . S
O275 Zn276 1.899 . S
O275 C283 1.284 . S
Zn276 O275 1.899 . S
Zn276 O277 2.032 . S
Zn276 O280 2.086 . S
Zn276 O285 1.977 . S
O277 Zn276 2.032 . S
O277 C281 1.278 . S
C278 O279 1.203 . S
C278 O285 1.267 . S
O279 C278 1.203 . S
O280 C273 1.185 . S
O280 Zn276 2.086 . S
C281 O277 1.278 . S
C281 O282 1.211 . S
O282 C281 1.211 . S
C283 O275 1.284 . S
C283 O284 1.273 . S
O284 C283 1.273 . S
O285 Zn276 1.977 . S
O285 C278 1.267 . S
C286 O287 1.160 . S
C286 O293 1.185 . S
O287 C286 1.160 . S
O288 Zn289 1.899 1_556 S
O288 C296 1.284 . S
Zn289 O288 1.899 1_554 S
Zn289 O290 2.032 . S
Zn289 O293 2.086 . S
Zn289 O298 1.977 . S
O290 Zn289 2.032 . S
O290 C294 1.278 . S
C291 O292 1.203 . S
C291 O298 1.267 . S
O292 C291 1.203 . S
O293 C286 1.185 . S
O293 Zn289 2.086 . S
C294 O290 1.278 . S
C294 O295 1.211 . S
O295 C294 1.211 . S
C296 O288 1.284 . S
C296 O297 1.273 1_556 S
O297 C296 1.273 1_554 S
O298 Zn289 1.977 . S
O298 C291 1.267 . S
C299 O300 1.160 . S
C299 O306 1.185 . S
O300 C299 1.160 . S
O301 Zn302 1.899 . S
O301 C309 1.284 . S
Zn302 O301 1.899 . S
Zn302 O303 2.032 . S
Zn302 O306 2.086 . S
Zn302 O311 1.977 . S
O303 Zn302 2.032 . S
O303 C307 1.278 . S
C304 O305 1.203 . S
C304 O311 1.267 . S
O305 C304 1.203 . S
O306 C299 1.185 . S
O306 Zn302 2.086 . S
C307 O303 1.278 . S
C307 O308 1.211 . S
O308 C307 1.211 . S
C309 O301 1.284 . S
C309 O310 1.273 . S
O310 C309 1.273 . S
O311 Zn302 1.977 . S
O311 C304 1.267 . S
C312 O313 1.160 . S
C312 O319 1.185 . S
O313 C312 1.160 . S
O314 Zn315 1.899 . S
O314 C322 1.284 . S
Zn315 O314 1.899 . S
Zn315 O316 2.032 . S
Zn315 O319 2.086 . S
Zn315 O324 1.977 . S
O316 Zn315 2.032 . S
O316 C320 1.278 . S
C317 O318 1.203 . S
C317 O324 1.267 . S
O318 C317 1.203 . S
O319 C312 1.185 . S
O319 Zn315 2.086 . S
C320 O316 1.278 . S
C320 O321 1.211 . S
O321 C320 1.211 . S
C322 O314 1.284 . S
C322 O323 1.273 . S
O323 C322 1.273 . S
O324 Zn315 1.977 . S
O324 C317 1.267 . S
C325 O326 1.160 . S
C325 O332 1.185 . S
O326 C325 1.160 . S
O327 Zn328 1.899 . S
O327 C335 1.284 . S
Zn328 O327 1.899 . S
Zn328 O329 2.032 . S
Zn328 O332 2.086 . S
Zn328 O337 1.977 . S
O329 Zn328 2.032 . S
O329 C333 1.278 . S
C330 O331 1.203 . S
C330 O337 1.267 . S
O331 C330 1.203 . S
O332 C325 1.185 . S
O332 Zn328 2.086 . S
C333 O329 1.278 . S
C333 O334 1.211 . S
O334 C333 1.211 . S
C335 O327 1.284 . S
C335 O336 1.273 . S
O336 C335 1.273 . S
O337 Zn328 1.977 . S
O337 C330 1.267 . S
C338 O339 1.160 . S
C338 O345 1.185 . S
O339 C338 1.160 . S
O340 Zn341 1.899 1_556 S
O340 C348 1.284 . S
Zn341 O340 1.899 1_554 S
Zn341 O342 2.032 . S
Zn341 O345 2.086 . S
Zn341 O350 1.977 . S
O342 Zn341 2.032 . S
O342 C346 1.278 . S
C343 O344 1.203 . S
C343 O350 1.267 . S
O344 C343 1.203 . S
O345 C338 1.185 . S
O345 Zn341 2.086 . S
C346 O342 1.278 . S
C346 O347 1.211 . S
O347 C346 1.211 . S
C348 O340 1.284 . S
C348 O349 1.273 1_556 S
O349 C348 1.273 1_554 S
O350 Zn341 1.977 . S
O350 C343 1.267 . S
C351 O352 1.160 . S
C351 O358 1.185 . S
O352 C351 1.160 . S
O353 Zn354 1.899 . S
O353 C361 1.284 . S
Zn354 O353 1.899 . S
Zn354 O355 2.032 . S
Zn354 O358 2.086 . S
Zn354 O363 1.977 . S
O355 Zn354 2.032 . S
O355 C359 1.278 . S
C356 O357 1.203 . S
C356 O363 1.267 . S
O357 C356 1.203 . S
O358 C351 1.185 . S
O358 Zn354 2.086 . S
C359 O355 1.278 . S
C359 O360 1.211 . S
O360 C359 1.211 . S
C361 O353 1.284 . S
C361 O362 1.273 . S
O362 C361 1.273 . S
O363 Zn354 1.977 . S
O363 C356 1.267 . S
C364 O365 1.160 . S
C364 O371 1.185 . S
O365 C364 1.160 . S
O366 Zn367 1.899 . S
O366 C374 1.284 . S
Zn367 O366 1.899 . S
Zn367 O368 2.032 . S
Zn367 O371 2.086 . S
Zn367 O376 1.977 . S
O368 Zn367 2.032 . S
O368 C372 1.278 . S
C369 O370 1.203 . S
C369 O376 1.267 . S
O370 C369 1.203 . S
O371 C364 1.185 . S
O371 Zn367 2.086 . S
C372 O368 1.278 . S
C372 O373 1.211 . S
O373 C372 1.211 . S
C374 O366 1.284 . S
C374 O375 1.273 . S
O375 C374 1.273 . S
O376 Zn367 1.977 . S
O376 C369 1.267 . S
C377 O378 1.160 . S
C377 O384 1.185 . S
O378 C377 1.160 . S
O379 Zn380 1.899 . S
O379 C387 1.284 . S
Zn380 O379 1.899 . S
Zn380 O381 2.032 . S
Zn380 O384 2.086 . S
Zn380 O389 1.977 . S
O381 Zn380 2.032 . S
O381 C385 1.278 . S
C382 O383 1.203 . S
C382 O389 1.267 . S
O383 C382 1.203 . S
O384 C377 1.185 . S
O384 Zn380 2.086 . S
C385 O381 1.278 . S
C385 O386 1.211 . S
O386 C385 1.211 . S
C387 O379 1.284 . S
C387 O388 1.273 . S
O388 C387 1.273 . S
O389 Zn380 1.977 . S
O389 C382 1.267 . S
C390 O391 1.160 . S
C390 O397 1.185 . S
O391 C390 1.160 . S
O392 Zn393 1.899 . S
O392 C400 1.284 . S
Zn393 O392 1.899 . S
Zn393 O394 2.032 1_554 S
Zn393 O397 2.086 . S
Zn393 O402 1.977 . S
O394 Zn393 2.032 1_556 S
O394 C398 1.278 . S
C395 O396 1.203 . S
C395 O402 1.267 . S
O396 C395 1.203 . S
O397 C390 1.185 . S
O397 Zn393 2.086 . S
C398 O394 1.278 . S
C398 O399 1.211 . S
O399 C398 1.211 . S
C400 O392 1.284 . S
C400 O401 1.273 . S
O401 C400 1.273 . S
O402 Zn393 1.977 . S
O402 C395 1.267 . S
C403 O404 1.160 . S
C403 O410 1.185 . S
O404 C403 1.160 . S
O405 Zn406 1.899 . S
O405 C413 1.284 . S
Zn406 O405 1.899 . S
Zn406 O407 2.032 . S
Zn406 O410 2.086 . S
Zn406 O415 1.977 . S
O407 Zn406 2.032 . S
O407 C411 1.278 . S
C408 O409 1.203 . S
C408 O415 1.267 . S
O409 C408 1.203 . S
O410 C403 1.185 . S
O410 Zn406 2.086 . S
C411 O407 1.278 . S
C411 O412 1.211 . S
O412 C411 1.211 . S
C413 O405 1.284 . S
C413 O414 1.273 . S
O414 C413 1.273 . S
O415 Zn406 1.977 . S
O415 C408 1.267 . S
H416 C428 0.930 . S
H417 C430 0.930 . S
H418 C431 0.930 . S
H419 C435 0.959 . S
H420 C435 0.959 . S
H421 C435 0.961 . S
H422 C436 0.960 . S
H423 C436 0.961 . S
H424 C436 0.959 . S
H425 C439 0.929 . S
H426 C440 0.931 . S
H427 C442 0.930 . S
C428 H416 0.930 . S
C428 C429 1.399 . S
C428 C433 1.399 . S
C429 C428 1.399 . S
C429 C430 1.376 . S
C430 H417 0.930 . S
C430 C429 1.376 . S
C430 C431 1.388 . S
C431 H418 0.930 . S
C431 C430 1.388 . S
C431 C432 1.390 . S
C432 C431 1.390 . S
C432 C433 1.394 . S
C432 C438 1.465 . S
C433 C428 1.399 . S
C433 C432 1.394 . S
C433 C434 1.516 . S
C434 C433 1.516 . S
C434 C435 1.502 . S
C434 C436 1.561 . S
C434 C437 1.526 . S
C435 H419 0.959 . S
C435 H420 0.959 . S
C435 H421 0.961 . S
C435 C434 1.502 . S
C436 H422 0.960 . S
C436 H423 0.961 . S
C436 H424 0.959 . S
C436 C434 1.561 . S
C437 C434 1.526 . S
C437 C438 1.396 . S
C437 C442 1.390 . S
C438 C432 1.465 . S
C438 C437 1.396 . S
C438 C439 1.399 1_556 S
C439 H425 0.929 . S
C439 C438 1.399 1_554 S
C439 C440 1.385 . S
C440 H426 0.931 . S
C440 C439 1.385 . S
C440 C441 1.389 1_554 S
C441 C440 1.389 1_556 S
C441 C442 1.387 . S
C442 H427 0.930 . S
C442 C437 1.390 . S
C442 C441 1.387 . S
H443 C455 0.930 . S
H444 C457 0.930 . S
H445 C458 0.930 . S
H446 C462 0.959 . S
H447 C462 0.959 . S
H448 C462 0.961 . S
H449 C463 0.960 . S
H450 C463 0.961 . S
H451 C463 0.959 . S
H452 C466 0.929 . S
H453 C467 0.931 . S
H454 C469 0.930 . S
C455 H443 0.930 . S
C455 C456 1.399 . S
C455 C460 1.399 . S
C456 C455 1.399 . S
C456 C457 1.376 . S
C457 H444 0.930 . S
C457 C456 1.376 . S
C457 C458 1.388 . S
C458 H445 0.930 . S
C458 C457 1.388 . S
C458 C459 1.390 . S
C459 C458 1.390 . S
C459 C460 1.394 . S
C459 C465 1.465 . S
C460 C455 1.399 . S
C460 C459 1.394 . S
C460 C461 1.516 . S
C461 C460 1.516 . S
C461 C462 1.502 . S
C461 C463 1.561 . S
C461 C464 1.526 . S
C462 H446 0.959 . S
C462 H447 0.959 . S
C462 H448 0.961 . S
C462 C461 1.502 . S
C463 H449 0.960 . S
C463 H450 0.961 . S
C463 H451 0.959 . S
C463 C461 1.561 . S
C464 C461 1.526 . S
C464 C465 1.396 . S
C464 C469 1.390 . S
C465 C459 1.465 . S
C465 C464 1.396 . S
C465 C466 1.399 . S
C466 H452 0.929 . S
C466 C465 1.399 . S
C466 C467 1.385 . S
C467 H453 0.931 . S
C467 C466 1.385 . S
C467 C468 1.389 . S
C468 C467 1.389 . S
C468 C469 1.387 . S
C469 H454 0.930 . S
C469 C464 1.390 . S
C469 C468 1.387 . S
H470 C482 0.930 . S
H471 C484 0.930 . S
H472 C485 0.930 . S
H473 C489 0.959 . S
H474 C489 0.959 . S
H475 C489 0.961 . S
H476 C490 0.960 . S
H477 C490 0.961 . S
H478 C490 0.959 . S
H479 C493 0.929 . S
H480 C494 0.931 . S
H481 C496 0.930 . S
C482 H470 0.930 . S
C482 C483 1.399 . S
C482 C487 1.399 . S
C483 C482 1.399 . S
C483 C484 1.376 . S
C484 H471 0.930 . S
C484 C483 1.376 . S
C484 C485 1.388 . S
C485 H472 0.930 . S
C485 C484 1.388 . S
C485 C486 1.390 . S
C486 C485 1.390 . S
C486 C487 1.394 . S
C486 C492 1.465 . S
C487 C482 1.399 . S
C487 C486 1.394 . S
C487 C488 1.516 . S
C488 C487 1.516 . S
C488 C489 1.502 . S
C488 C490 1.561 . S
C488 C491 1.526 . S
C489 H473 0.959 . S
C489 H474 0.959 . S
C489 H475 0.961 . S
C489 C488 1.502 . S
C490 H476 0.960 . S
C490 H477 0.961 . S
C490 H478 0.959 . S
C490 C488 1.561 . S
C491 C488 1.526 . S
C491 C492 1.396 . S
C491 C496 1.390 . S
C492 C486 1.465 . S
C492 C491 1.396 . S
C492 C493 1.399 . S
C493 H479 0.929 . S
C493 C492 1.399 . S
C493 C494 1.385 . S
C494 H480 0.931 . S
C494 C493 1.385 . S
C494 C495 1.389 . S
C495 C494 1.389 . S
C495 C496 1.387 . S
C496 H481 0.930 . S
C496 C491 1.390 . S
C496 C495 1.387 . S
H497 C509 0.930 . S
H498 C511 0.930 . S
H499 C512 0.930 . S
H500 C516 0.959 . S
H501 C516 0.959 . S
H502 C516 0.961 . S
H503 C517 0.960 . S
H504 C517 0.961 . S
H505 C517 0.959 . S
H506 C520 0.929 . S
H507 C521 0.931 . S
H508 C523 0.930 . S
C509 H497 0.930 . S
C509 C510 1.399 . S
C509 C514 1.399 . S
C510 C509 1.399 . S
C510 C511 1.376 . S
C511 H498 0.930 . S
C511 C510 1.376 . S
C511 C512 1.388 . S
C512 H499 0.930 . S
C512 C511 1.388 . S
C512 C513 1.390 . S
C513 C512 1.390 . S
C513 C514 1.394 . S
C513 C519 1.465 . S
C514 C509 1.399 . S
C514 C513 1.394 . S
C514 C515 1.516 . S
C515 C514 1.516 . S
C515 C516 1.502 . S
C515 C517 1.561 . S
C515 C518 1.526 . S
C516 H500 0.959 . S
C516 H501 0.959 . S
C516 H502 0.961 . S
C516 C515 1.502 . S
C517 H503 0.960 . S
C517 H504 0.961 . S
C517 H505 0.959 . S
C517 C515 1.561 . S
C518 C515 1.526 . S
C518 C519 1.396 . S
C518 C523 1.390 . S
C519 C513 1.465 . S
C519 C518 1.396 . S
C519 C520 1.399 . S
C520 H506 0.929 . S
C520 C519 1.399 . S
C520 C521 1.385 . S
C521 H507 0.931 . S
C521 C520 1.385 . S
C521 C522 1.389 . S
C522 C521 1.389 . S
C522 C523 1.387 . S
C523 H508 0.930 . S
C523 C518 1.390 . S
C523 C522 1.387 . S
H524 C536 0.930 . S
H525 C538 0.930 . S
H526 C539 0.930 . S
H527 C543 0.959 . S
H528 C543 0.959 . S
H529 C543 0.961 . S
H530 C544 0.960 . S
H531 C544 0.961 . S
H532 C544 0.959 . S
H533 C547 0.929 . S
H534 C548 0.931 . S
H535 C550 0.930 . S
C536 H524 0.930 . S
C536 C537 1.399 . S
C536 C541 1.399 . S
C537 C536 1.399 . S
C537 C538 1.376 . S
C538 H525 0.930 . S
C538 C537 1.376 . S
C538 C539 1.388 . S
C539 H526 0.930 . S
C539 C538 1.388 . S
C539 C540 1.390 . S
C540 C539 1.390 . S
C540 C541 1.394 . S
C540 C546 1.465 . S
C541 C536 1.399 . S
C541 C540 1.394 . S
C541 C542 1.516 . S
C542 C541 1.516 . S
C542 C543 1.502 . S
C542 C544 1.561 . S
C542 C545 1.526 . S
C543 H527 0.959 . S
C543 H528 0.959 . S
C543 H529 0.961 . S
C543 C542 1.502 . S
C544 H530 0.960 . S
C544 H531 0.961 . S
C544 H532 0.959 . S
C544 C542 1.561 . S
C545 C542 1.526 . S
C545 C546 1.396 . S
C545 C550 1.390 . S
C546 C540 1.465 . S
C546 C545 1.396 . S
C546 C547 1.399 . S
C547 H533 0.929 . S
C547 C546 1.399 . S
C547 C548 1.385 . S
C548 H534 0.931 . S
C548 C547 1.385 . S
C548 C549 1.389 . S
C549 C548 1.389 . S
C549 C550 1.387 . S
C550 H535 0.930 . S
C550 C545 1.390 . S
C550 C549 1.387 . S
H551 C563 0.930 . S
H552 C565 0.930 . S
H553 C566 0.930 . S
H554 C570 0.959 . S
H555 C570 0.959 . S
H556 C570 0.961 . S
H557 C571 0.960 . S
H558 C571 0.961 . S
H559 C571 0.959 . S
H560 C574 0.929 . S
H561 C575 0.931 . S
H562 C577 0.930 . S
C563 H551 0.930 . S
C563 C564 1.399 . S
C563 C568 1.399 . S
C564 C563 1.399 . S
C564 C565 1.376 . S
C565 H552 0.930 . S
C565 C564 1.376 . S
C565 C566 1.388 . S
C566 H553 0.930 . S
C566 C565 1.388 . S
C566 C567 1.390 . S
C567 C566 1.390 . S
C567 C568 1.394 . S
C567 C573 1.465 . S
C568 C563 1.399 . S
C568 C567 1.394 . S
C568 C569 1.516 . S
C569 C568 1.516 . S
C569 C570 1.502 . S
C569 C571 1.561 . S
C569 C572 1.526 . S
C570 H554 0.959 . S
C570 H555 0.959 . S
C570 H556 0.961 . S
C570 C569 1.502 . S
C571 H557 0.960 . S
C571 H558 0.961 . S
C571 H559 0.959 . S
C571 C569 1.561 . S
C572 C569 1.526 . S
C572 C573 1.396 . S
C572 C577 1.390 . S
C573 C567 1.465 . S
C573 C572 1.396 . S
C573 C574 1.399 1_556 S
C574 H560 0.929 . S
C574 C573 1.399 1_554 S
C574 C575 1.385 . S
C575 H561 0.931 . S
C575 C574 1.385 . S
C575 C576 1.389 1_554 S
C576 C575 1.389 1_556 S
C576 C577 1.387 . S
C577 H562 0.930 . S
C577 C572 1.390 . S
C577 C576 1.387 . S
H578 C590 0.930 . S
H579 C592 0.930 . S
H580 C593 0.930 . S
H581 C597 0.959 . S
H582 C597 0.959 . S
H583 C597 0.961 . S
H584 C598 0.960 . S
H585 C598 0.961 . S
H586 C598 0.959 . S
H587 C601 0.929 . S
H588 C602 0.931 . S
H589 C604 0.930 . S
C590 H578 0.930 . S
C590 C591 1.399 . S
C590 C595 1.399 . S
C591 C590 1.399 . S
C591 C592 1.376 . S
C592 H579 0.930 . S
C592 C591 1.376 . S
C592 C593 1.388 . S
C593 H580 0.930 . S
C593 C592 1.388 . S
C593 C594 1.390 . S
C594 C593 1.390 . S
C594 C595 1.394 . S
C594 C600 1.465 . S
C595 C590 1.399 . S
C595 C594 1.394 . S
C595 C596 1.516 . S
C596 C595 1.516 . S
C596 C597 1.502 . S
C596 C598 1.561 . S
C596 C599 1.526 . S
C597 H581 0.959 . S
C597 H582 0.959 . S
C597 H583 0.961 . S
C597 C596 1.502 . S
C598 H584 0.960 . S
C598 H585 0.961 . S
C598 H586 0.959 . S
C598 C596 1.561 . S
C599 C596 1.526 . S
C599 C600 1.396 . S
C599 C604 1.390 . S
C600 C594 1.465 . S
C600 C599 1.396 . S
C600 C601 1.399 . S
C601 H587 0.929 . S
C601 C600 1.399 . S
C601 C602 1.385 . S
C602 H588 0.931 . S
C602 C601 1.385 . S
C602 C603 1.389 . S
C603 C602 1.389 . S
C603 C604 1.387 . S
C604 H589 0.930 . S
C604 C599 1.390 . S
C604 C603 1.387 . S
H605 C617 0.930 . S
H606 C619 0.930 . S
H607 C620 0.930 . S
H608 C624 0.959 . S
H609 C624 0.959 . S
H610 C624 0.961 . S
H611 C625 0.960 . S
H612 C625 0.961 . S
H613 C625 0.959 . S
H614 C628 0.929 . S
H615 C629 0.931 . S
H616 C631 0.930 . S
C617 H605 0.930 . S
C617 C618 1.399 . S
C617 C622 1.399 . S
C618 C617 1.399 . S
C618 C619 1.376 . S
C619 H606 0.930 . S
C619 C618 1.376 . S
C619 C620 1.388 . S
C620 H607 0.930 . S
C620 C619 1.388 . S
C620 C621 1.390 . S
C621 C620 1.390 . S
C621 C622 1.394 . S
C621 C627 1.465 . S
C622 C617 1.399 . S
C622 C621 1.394 . S
C622 C623 1.516 . S
C623 C622 1.516 . S
C623 C624 1.502 . S
C623 C625 1.561 . S
C623 C626 1.526 . S
C624 H608 0.959 . S
C624 H609 0.959 . S
C624 H610 0.961 . S
C624 C623 1.502 . S
C625 H611 0.960 . S
C625 H612 0.961 . S
C625 H613 0.959 . S
C625 C623 1.561 . S
C626 C623 1.526 . S
C626 C627 1.396 . S
C626 C631 1.390 . S
C627 C621 1.465 . S
C627 C626 1.396 . S
C627 C628 1.399 . S
C628 H614 0.929 . S
C628 C627 1.399 . S
C628 C629 1.385 . S
C629 H615 0.931 . S
C629 C628 1.385 . S
C629 C630 1.389 . S
C630 C629 1.389 . S
C630 C631 1.387 . S
C631 H616 0.930 . S
C631 C626 1.390 . S
C631 C630 1.387 . S
H632 C644 0.930 . S
H633 C646 0.930 . S
H634 C647 0.930 . S
H635 C651 0.959 . S
H636 C651 0.959 . S
H637 C651 0.961 . S
H638 C652 0.960 . S
H639 C652 0.961 . S
H640 C652 0.959 . S
H641 C655 0.929 . S
H642 C656 0.931 . S
H643 C658 0.930 . S
C644 H632 0.930 . S
C644 C645 1.399 . S
C644 C649 1.399 . S
C645 C644 1.399 . S
C645 C646 1.376 . S
C646 H633 0.930 . S
C646 C645 1.376 . S
C646 C647 1.388 . S
C647 H634 0.930 . S
C647 C646 1.388 . S
C647 C648 1.390 . S
C648 C647 1.390 . S
C648 C649 1.394 . S
C648 C654 1.465 . S
C649 C644 1.399 . S
C649 C648 1.394 . S
C649 C650 1.516 . S
C650 C649 1.516 . S
C650 C651 1.502 . S
C650 C652 1.561 . S
C650 C653 1.526 . S
C651 H635 0.959 . S
C651 H636 0.959 . S
C651 H637 0.961 . S
C651 C650 1.502 . S
C652 H638 0.960 . S
C652 H639 0.961 . S
C652 H640 0.959 . S
C652 C650 1.561 . S
C653 C650 1.526 . S
C653 C654 1.396 . S
C653 C658 1.390 . S
C654 C648 1.465 . S
C654 C653 1.396 . S
C654 C655 1.399 . S
C655 H641 0.929 . S
C655 C654 1.399 . S
C655 C656 1.385 . S
C656 H642 0.931 . S
C656 C655 1.385 . S
C656 C657 1.389 . S
C657 C656 1.389 . S
C657 C658 1.387 . S
C658 H643 0.930 . S
C658 C653 1.390 . S
C658 C657 1.387 . S
H659 C671 0.930 . S
H660 C673 0.930 . S
H661 C674 0.930 . S
H662 C678 0.959 . S
H663 C678 0.959 . S
H664 C678 0.961 . S
H665 C679 0.960 . S
H666 C679 0.961 . S
H667 C679 0.959 . S
H668 C682 0.929 . S
H669 C683 0.931 . S
H670 C685 0.930 . S
C671 H659 0.930 . S
C671 C672 1.399 . S
C671 C676 1.399 . S
C672 C671 1.399 . S
C672 C673 1.376 . S
C673 H660 0.930 . S
C673 C672 1.376 . S
C673 C674 1.388 . S
C674 H661 0.930 . S
C674 C673 1.388 . S
C674 C675 1.390 . S
C675 C674 1.390 . S
C675 C676 1.394 . S
C675 C681 1.465 . S
C676 C671 1.399 . S
C676 C675 1.394 . S
C676 C677 1.516 . S
C677 C676 1.516 . S
C677 C678 1.502 . S
C677 C679 1.561 . S
C677 C680 1.526 . S
C678 H662 0.959 . S
C678 H663 0.959 . S
C678 H664 0.961 . S
C678 C677 1.502 . S
C679 H665 0.960 . S
C679 H666 0.961 . S
C679 H667 0.959 . S
C679 C677 1.561 . S
C680 C677 1.526 . S
C680 C681 1.396 . S
C680 C685 1.390 . S
C681 C675 1.465 . S
C681 C680 1.396 . S
C681 C682 1.399 . S
C682 H668 0.929 . S
C682 C681 1.399 . S
C682 C683 1.385 . S
C683 H669 0.931 . S
C683 C682 1.385 . S
C683 C684 1.389 . S
C684 C683 1.389 . S
C684 C685 1.387 . S
C685 H670 0.930 . S
C685 C680 1.390 . S
C685 C684 1.387 . S
H686 C698 0.930 . S
H687 C700 0.930 . S
H688 C701 0.930 . S
H689 C705 0.959 . S
H690 C705 0.959 . S
H691 C705 0.961 1_556 S
H692 C706 0.960 . S
H693 C706 0.961 . S
H694 C706 0.959 . S
H695 C709 0.929 . S
H696 C710 0.931 . S
H697 C712 0.930 1_554 S
C698 H686 0.930 . S
C698 C699 1.399 . S
C698 C703 1.399 . S
C699 C698 1.399 . S
C699 C700 1.376 . S
C700 H687 0.930 . S
C700 C699 1.376 . S
C700 C701 1.388 . S
C701 H688 0.930 . S
C701 C700 1.388 . S
C701 C702 1.390 . S
C702 C701 1.390 . S
C702 C703 1.394 . S
C702 C708 1.465 . S
C703 C698 1.399 . S
C703 C702 1.394 . S
C703 C704 1.516 . S
C704 C703 1.516 . S
C704 C705 1.502 1_556 S
C704 C706 1.561 . S
C704 C707 1.526 . S
C705 H689 0.959 . S
C705 H690 0.959 . S
C705 H691 0.961 1_554 S
C705 C704 1.502 1_554 S
C706 H692 0.960 . S
C706 H693 0.961 . S
C706 H694 0.959 . S
C706 C704 1.561 . S
C707 C704 1.526 . S
C707 C708 1.396 . S
C707 C712 1.390 . S
C708 C702 1.465 . S
C708 C707 1.396 . S
C708 C709 1.399 . S
C709 H695 0.929 . S
C709 C708 1.399 . S
C709 C710 1.385 . S
C710 H696 0.931 . S
C710 C709 1.385 . S
C710 C711 1.389 . S
C711 C710 1.389 . S
C711 C712 1.387 . S
C712 H697 0.930 1_556 S
C712 C707 1.390 . S
C712 C711 1.387 . S
H713 C725 0.930 . S
H714 C727 0.930 . S
H715 C728 0.930 . S
H716 C732 0.959 . S
H717 C732 0.959 . S
H718 C732 0.961 . S
H719 C733 0.960 . S
H720 C733 0.961 . S
H721 C733 0.959 . S
H722 C736 0.929 . S
H723 C737 0.931 . S
H724 C739 0.930 . S
C725 H713 0.930 . S
C725 C726 1.399 . S
C725 C730 1.399 . S
C726 C725 1.399 . S
C726 C727 1.376 . S
C727 H714 0.930 . S
C727 C726 1.376 . S
C727 C728 1.388 . S
C728 H715 0.930 . S
C728 C727 1.388 . S
C728 C729 1.390 . S
C729 C728 1.390 . S
C729 C730 1.394 . S
C729 C735 1.465 . S
C730 C725 1.399 . S
C730 C729 1.394 . S
C730 C731 1.516 . S
C731 C730 1.516 . S
C731 C732 1.502 . S
C731 C733 1.561 . S
C731 C734 1.526 . S
C732 H716 0.959 . S
C732 H717 0.959 . S
C732 H718 0.961 . S
C732 C731 1.502 . S
C733 H719 0.960 . S
C733 H720 0.961 . S
C733 H721 0.959 . S
C733 C731 1.561 . S
C734 C731 1.526 . S
C734 C735 1.396 . S
C734 C739 1.390 . S
C735 C729 1.465 . S
C735 C734 1.396 . S
C735 C736 1.399 . S
C736 H722 0.929 . S
C736 C735 1.399 . S
C736 C737 1.385 . S
C737 H723 0.931 . S
C737 C736 1.385 . S
C737 C738 1.389 . S
C738 C737 1.389 . S
C738 C739 1.387 . S
C739 H724 0.930 . S
C739 C734 1.390 . S
C739 C738 1.387 . S
H740 C752 0.930 . S
H741 C754 0.930 . S
H742 C755 0.930 . S
H743 C759 0.959 . S
H744 C759 0.959 . S
H745 C759 0.961 . S
H746 C760 0.960 . S
H747 C760 0.961 . S
H748 C760 0.959 . S
H749 C763 0.929 . S
H750 C764 0.931 . S
H751 C766 0.930 . S
C752 H740 0.930 . S
C752 C753 1.399 . S
C752 C757 1.399 . S
C753 C752 1.399 . S
C753 C754 1.376 . S
C754 H741 0.930 . S
C754 C753 1.376 . S
C754 C755 1.388 . S
C755 H742 0.930 . S
C755 C754 1.388 . S
C755 C756 1.390 . S
C756 C755 1.390 . S
C756 C757 1.394 . S
C756 C762 1.465 . S
C757 C752 1.399 . S
C757 C756 1.394 . S
C757 C758 1.516 . S
C758 C757 1.516 . S
C758 C759 1.502 . S
C758 C760 1.561 . S
C758 C761 1.526 . S
C759 H743 0.959 . S
C759 H744 0.959 . S
C759 H745 0.961 . S
C759 C758 1.502 . S
C760 H746 0.960 . S
C760 H747 0.961 . S
C760 H748 0.959 . S
C760 C758 1.561 . S
C761 C758 1.526 . S
C761 C762 1.396 . S
C761 C766 1.390 . S
C762 C756 1.465 . S
C762 C761 1.396 . S
C762 C763 1.399 . S
C763 H749 0.929 . S
C763 C762 1.399 . S
C763 C764 1.385 . S
C764 H750 0.931 . S
C764 C763 1.385 . S
C764 C765 1.389 . S
C765 C764 1.389 . S
C765 C766 1.387 . S
C766 H751 0.930 . S
C766 C761 1.390 . S
C766 C765 1.387 . S
H767 C779 0.930 . S
H768 C781 0.930 . S
H769 C782 0.930 . S
H770 C786 0.959 . S
H771 C786 0.959 . S
H772 C786 0.961 . S
H773 C787 0.960 . S
H774 C787 0.961 . S
H775 C787 0.959 . S
H776 C790 0.929 . S
H777 C791 0.931 . S
H778 C793 0.930 . S
C779 H767 0.930 . S
C779 C780 1.399 . S
C779 C784 1.399 . S
C780 C779 1.399 . S
C780 C781 1.376 . S
C781 H768 0.930 . S
C781 C780 1.376 . S
C781 C782 1.388 . S
C782 H769 0.930 . S
C782 C781 1.388 . S
C782 C783 1.390 . S
C783 C782 1.390 . S
C783 C784 1.394 . S
C783 C789 1.465 . S
C784 C779 1.399 . S
C784 C783 1.394 . S
C784 C785 1.516 . S
C785 C784 1.516 . S
C785 C786 1.502 . S
C785 C787 1.561 . S
C785 C788 1.526 . S
C786 H770 0.959 . S
C786 H771 0.959 . S
C786 H772 0.961 . S
C786 C785 1.502 . S
C787 H773 0.960 . S
C787 H774 0.961 . S
C787 H775 0.959 . S
C787 C785 1.561 . S
C788 C785 1.526 . S
C788 C789 1.396 . S
C788 C793 1.390 . S
C789 C783 1.465 . S
C789 C788 1.396 . S
C789 C790 1.399 . S
C790 H776 0.929 . S
C790 C789 1.399 . S
C790 C791 1.385 . S
C791 H777 0.931 . S
C791 C790 1.385 . S
C791 C792 1.389 . S
C792 C791 1.389 . S
C792 C793 1.387 . S
C793 H778 0.930 . S
C793 C788 1.390 . S
C793 C792 1.387 . S
H794 C806 0.930 . S
H795 C808 0.930 . S
H796 C809 0.930 . S
H797 C813 0.959 . S
H798 C813 0.959 . S
H799 C813 0.961 . S
H800 C814 0.960 . S
H801 C814 0.961 . S
H802 C814 0.959 . S
H803 C817 0.929 . S
H804 C818 0.931 . S
H805 C820 0.930 . S
C806 H794 0.930 . S
C806 C807 1.399 . S
C806 C811 1.399 . S
C807 C806 1.399 . S
C807 C808 1.376 . S
C808 H795 0.930 . S
C808 C807 1.376 . S
C808 C809 1.388 . S
C809 H796 0.930 . S
C809 C808 1.388 . S
C809 C810 1.390 . S
C810 C809 1.390 . S
C810 C811 1.394 . S
C810 C816 1.465 . S
C811 C806 1.399 . S
C811 C810 1.394 . S
C811 C812 1.516 . S
C812 C811 1.516 . S
C812 C813 1.502 . S
C812 C814 1.561 . S
C812 C815 1.526 . S
C813 H797 0.959 . S
C813 H798 0.959 . S
C813 H799 0.961 . S
C813 C812 1.502 . S
C814 H800 0.960 . S
C814 H801 0.961 . S
C814 H802 0.959 . S
C814 C812 1.561 . S
C815 C812 1.526 . S
C815 C816 1.396 . S
C815 C820 1.390 . S
C816 C810 1.465 . S
C816 C815 1.396 . S
C816 C817 1.399 . S
C817 H803 0.929 . S
C817 C816 1.399 . S
C817 C818 1.385 . S
C818 H804 0.931 . S
C818 C817 1.385 . S
C818 C819 1.389 . S
C819 C818 1.389 . S
C819 C820 1.387 . S
C820 H805 0.930 . S
C820 C815 1.390 . S
C820 C819 1.387 . S
H821 C833 0.930 . S
H822 C835 0.930 . S
H823 C836 0.930 . S
H824 C840 0.959 . S
H825 C840 0.959 . S
H826 C840 0.961 . S
H827 C841 0.960 . S
H828 C841 0.961 . S
H829 C841 0.959 . S
H830 C844 0.929 . S
H831 C845 0.931 . S
H832 C847 0.930 . S
C833 H821 0.930 . S
C833 C834 1.399 . S
C833 C838 1.399 . S
C834 C833 1.399 . S
C834 C835 1.376 . S
C835 H822 0.930 . S
C835 C834 1.376 . S
C835 C836 1.388 . S
C836 H823 0.930 . S
C836 C835 1.388 . S
C836 C837 1.390 . S
C837 C836 1.390 . S
C837 C838 1.394 . S
C837 C843 1.465 . S
C838 C833 1.399 . S
C838 C837 1.394 . S
C838 C839 1.516 . S
C839 C838 1.516 . S
C839 C840 1.502 . S
C839 C841 1.561 . S
C839 C842 1.526 . S
C840 H824 0.959 . S
C840 H825 0.959 . S
C840 H826 0.961 . S
C840 C839 1.502 . S
C841 H827 0.960 . S
C841 H828 0.961 . S
C841 H829 0.959 . S
C841 C839 1.561 . S
C842 C839 1.526 . S
C842 C843 1.396 . S
C842 C847 1.390 . S
C843 C837 1.465 . S
C843 C842 1.396 . S
C843 C844 1.399 1_556 S
C844 H830 0.929 . S
C844 C843 1.399 1_554 S
C844 C845 1.385 . S
C845 H831 0.931 . S
C845 C844 1.385 . S
C845 C846 1.389 1_554 S
C846 C845 1.389 1_556 S
C846 C847 1.387 . S
C847 H832 0.930 . S
C847 C842 1.390 . S
C847 C846 1.387 . S
H848 C860 0.930 . S
H849 C862 0.930 . S
H850 C863 0.930 . S
H851 C867 0.959 . S
H852 C867 0.959 . S
H853 C867 0.961 . S
H854 C868 0.960 . S
H855 C868 0.961 . S
H856 C868 0.959 . S
H857 C871 0.929 . S
H858 C872 0.931 . S
H859 C874 0.930 . S
C860 H848 0.930 . S
C860 C861 1.399 . S
C860 C865 1.399 . S
C861 C860 1.399 . S
C861 C862 1.376 . S
C862 H849 0.930 . S
C862 C861 1.376 . S
C862 C863 1.388 . S
C863 H850 0.930 . S
C863 C862 1.388 . S
C863 C864 1.390 . S
C864 C863 1.390 . S
C864 C865 1.394 . S
C864 C870 1.465 . S
C865 C860 1.399 . S
C865 C864 1.394 . S
C865 C866 1.516 . S
C866 C865 1.516 . S
C866 C867 1.502 . S
C866 C868 1.561 . S
C866 C869 1.526 . S
C867 H851 0.959 . S
C867 H852 0.959 . S
C867 H853 0.961 . S
C867 C866 1.502 . S
C868 H854 0.960 . S
C868 H855 0.961 . S
C868 H856 0.959 . S
C868 C866 1.561 . S
C869 C866 1.526 . S
C869 C870 1.396 . S
C869 C874 1.390 . S
C870 C864 1.465 . S
C870 C869 1.396 . S
C870 C871 1.399 . S
C871 H857 0.929 . S
C871 C870 1.399 . S
C871 C872 1.385 . S
C872 H858 0.931 . S
C872 C871 1.385 . S
C872 C873 1.389 . S
C873 C872 1.389 . S
C873 C874 1.387 . S
C874 H859 0.930 . S
C874 C869 1.390 . S
C874 C873 1.387 . S
H875 C887 0.930 . S
H876 C889 0.930 . S
H877 C890 0.930 . S
H878 C894 0.959 . S
H879 C894 0.959 . S
H880 C894 0.961 . S
H881 C895 0.960 . S
H882 C895 0.961 . S
H883 C895 0.959 . S
H884 C898 0.929 . S
H885 C899 0.931 . S
H886 C901 0.930 . S
C887 H875 0.930 . S
C887 C888 1.399 . S
C887 C892 1.399 . S
C888 C887 1.399 . S
C888 C889 1.376 . S
C889 H876 0.930 . S
C889 C888 1.376 . S
C889 C890 1.388 . S
C890 H877 0.930 . S
C890 C889 1.388 . S
C890 C891 1.390 . S
C891 C890 1.390 . S
C891 C892 1.394 . S
C891 C897 1.437 1_565 S
C892 C887 1.399 . S
C892 C891 1.394 . S
C892 C893 1.516 1_565 S
C893 C892 1.516 1_545 S
C893 C894 1.502 . S
C893 C895 1.561 . S
C893 C896 1.526 . S
C894 H878 0.959 . S
C894 H879 0.959 . S
C894 H880 0.961 . S
C894 C893 1.502 . S
C895 H881 0.960 . S
C895 H882 0.961 . S
C895 H883 0.959 . S
C895 C893 1.561 . S
C896 C893 1.526 . S
C896 C897 1.439 . S
C896 C901 1.390 1_554 S
C897 C891 1.437 1_545 S
C897 C896 1.439 . S
C897 C898 1.392 1_544 S
C898 H884 0.929 . S
C898 C897 1.392 1_566 S
C898 C899 1.385 1_565 S
C899 H885 0.931 . S
C899 C898 1.385 1_545 S
C899 C900 1.389 . S
C900 C899 1.389 . S
C900 C901 1.387 . S
C901 H886 0.930 . S
C901 C896 1.390 1_556 S
C901 C900 1.387 . S
H902 C914 0.930 . S
H903 C916 0.930 . S
H904 C917 0.930 . S
H905 C921 0.959 . S
H906 C921 0.959 . S
H907 C921 0.961 . S
H908 C922 0.960 . S
H909 C922 0.961 . S
H910 C922 0.959 . S
H911 C925 0.929 . S
H912 C926 0.931 . S
H913 C928 0.930 . S
C914 H902 0.930 . S
C914 C915 1.399 . S
C914 C919 1.399 . S
C915 C914 1.399 . S
C915 C916 1.376 . S
C916 H903 0.930 . S
C916 C915 1.376 . S
C916 C917 1.388 . S
C917 H904 0.930 . S
C917 C916 1.388 . S
C917 C918 1.390 . S
C918 C917 1.390 . S
C918 C919 1.394 . S
C918 C924 1.465 . S
C919 C914 1.399 . S
C919 C918 1.394 . S
C919 C920 1.516 . S
C920 C919 1.516 . S
C920 C921 1.502 . S
C920 C922 1.561 . S
C920 C923 1.526 . S
C921 H905 0.959 . S
C921 H906 0.959 . S
C921 H907 0.961 . S
C921 C920 1.502 . S
C922 H908 0.960 . S
C922 H909 0.961 . S
C922 H910 0.959 . S
C922 C920 1.561 . S
C923 C920 1.526 . S
C923 C924 1.396 . S
C923 C928 1.390 . S
C924 C918 1.465 . S
C924 C923 1.396 . S
C924 C925 1.399 . S
C925 H911 0.929 . S
C925 C924 1.399 . S
C925 C926 1.385 . S
C926 H912 0.931 . S
C926 C925 1.385 . S
C926 C927 1.389 . S
C927 C926 1.389 . S
C927 C928 1.387 . S
C928 H913 0.930 . S
C928 C923 1.390 . S
C928 C927 1.387 . S
H929 C941 0.930 . S
H930 C943 0.930 . S
H931 C944 0.903 1_565 S
H932 C948 0.959 . S
H933 C948 0.959 . S
H934 C948 0.961 . S
H935 C949 0.960 . S
H936 C949 0.961 . S
H937 C949 0.959 . S
H938 C952 0.929 . S
H939 C953 0.931 . S
H940 C955 0.930 . S
C941 H929 0.930 . S
C941 C942 1.399 . S
C941 C946 1.399 . S
C942 C941 1.399 . S
C942 C943 1.376 . S
C943 H930 0.930 . S
C943 C942 1.376 . S
C943 C944 1.414 . S
C944 H931 0.903 1_545 S
C944 C943 1.414 . S
C944 C945 1.393 . S
C945 C944 1.393 . S
C945 C946 1.394 . S
C945 C951 1.465 1_545 S
C946 C941 1.399 . S
C946 C945 1.394 . S
C946 C947 1.516 . S
C947 C946 1.516 . S
C947 C948 1.502 . S
C947 C949 1.561 . S
C947 C950 1.526 1_545 S
C948 H932 0.959 . S
C948 H933 0.959 . S
C948 H934 0.961 . S
C948 C947 1.502 . S
C949 H935 0.960 . S
C949 H936 0.961 . S
C949 H937 0.959 . S
C949 C947 1.561 . S
C950 C947 1.526 1_565 S
C950 C951 1.396 . S
C950 C955 1.390 . S
C951 C945 1.465 1_565 S
C951 C950 1.396 . S
C951 C952 1.399 . S
C952 H938 0.929 . S
C952 C951 1.399 . S
C952 C953 1.385 . S
C953 H939 0.931 . S
C953 C952 1.385 . S
C953 C954 1.389 . S
C954 C953 1.389 . S
C954 C955 1.387 . S
C955 H940 0.930 . S
C955 C950 1.390 . S
C955 C954 1.387 . S
H956 C968 0.930 . S
H957 C970 0.930 . S
H958 C971 0.930 . S
H959 C975 0.959 . S
H960 C975 0.959 . S
H961 C975 0.961 . S
H962 C976 0.960 . S
H963 C976 0.961 . S
H964 C976 0.959 . S
H965 C979 0.929 . S
H966 C980 0.931 . S
H967 C982 0.930 . S
C968 H956 0.930 . S
C968 C969 1.399 . S
C968 C973 1.399 . S
C969 C968 1.399 . S
C969 C970 1.376 . S
C970 H957 0.930 . S
C970 C969 1.376 . S
C970 C971 1.388 . S
C971 H958 0.930 . S
C971 C970 1.388 . S
C971 C972 1.390 . S
C972 C971 1.390 . S
C972 C973 1.394 . S
C972 C978 1.465 . S
C973 C968 1.399 . S
C973 C972 1.394 . S
C973 C974 1.516 . S
C974 C973 1.516 . S
C974 C975 1.502 . S
C974 C976 1.561 . S
C974 C977 1.526 . S
C975 H959 0.959 . S
C975 H960 0.959 . S
C975 H961 0.961 . S
C975 C974 1.502 . S
C976 H962 0.960 . S
C976 H963 0.961 . S
C976 H964 0.959 . S
C976 C974 1.561 . S
C977 C974 1.526 . S
C977 C978 1.396 . S
C977 C982 1.390 . S
C978 C972 1.465 . S
C978 C977 1.396 . S
C978 C979 1.399 . S
C979 H965 0.929 . S
C979 C978 1.399 . S
C979 C980 1.385 . S
C980 H966 0.931 . S
C980 C979 1.385 . S
C980 C981 1.389 . S
C981 C980 1.389 . S
C981 C982 1.387 . S
C982 H967 0.930 . S
C982 C977 1.390 . S
C982 C981 1.387 . S
H983 C995 0.930 . S
H984 C997 0.930 . S
H985 C998 0.931 . S
H986 C1002 0.959 . S
H987 C1002 0.959 1_565 S
H988 C1002 0.961 . S
H989 C1003 0.960 . S
H990 C1003 0.961 1_554 S
H991 C1003 0.959 . S
H992 C1006 0.929 . S
H993 C1007 0.931 . S
H994 C1009 0.930 . S
C995 H983 0.930 . S
C995 C996 1.399 . S
C995 C1000 1.399 . S
C996 C995 1.399 . S
C996 C997 1.376 . S
C997 H984 0.930 . S
C997 C996 1.376 . S
C997 C998 1.388 . S
C998 H985 0.931 . S
C998 C997 1.388 . S
C998 C999 1.390 1_556 S
C999 C998 1.390 1_554 S
C999 C1000 1.394 1_554 S
C999 C1005 1.465 1_545 S
C1000 C995 1.399 . S
C1000 C999 1.394 1_556 S
C1000 C1001 1.516 1_546 S
C1001 C1000 1.516 1_564 S
C1001 C1002 1.502 1_565 S
C1001 C1003 1.561 1_554 S
C1001 C1004 1.526 . S
C1002 H986 0.959 . S
C1002 H987 0.959 1_545 S
C1002 H988 0.961 . S
C1002 C1001 1.502 1_545 S
C1003 H989 0.960 . S
C1003 H990 0.961 1_556 S
C1003 H991 0.959 . S
C1003 C1001 1.561 1_556 S
C1004 C1001 1.526 . S
C1004 C1005 1.396 . S
C1004 C1009 1.390 . S
C1005 C999 1.465 1_565 S
C1005 C1004 1.396 . S
C1005 C1006 1.399 . S
C1006 H992 0.929 . S
C1006 C1005 1.399 . S
C1006 C1007 1.385 . S
C1007 H993 0.931 . S
C1007 C1006 1.385 . S
C1007 C1008 1.389 . S
C1008 C1007 1.389 . S
C1008 C1009 1.387 . S
C1009 H994 0.930 . S
C1009 C1004 1.390 . S
C1009 C1008 1.387 . S
H1010 C1022 0.930 . S
H1011 C1024 0.930 . S
H1012 C1025 0.930 . S
H1013 C1029 0.959 . S
H1014 C1029 0.959 . S
H1015 C1029 0.961 . S
H1016 C1030 0.960 . S
H1017 C1030 0.961 . S
H1018 C1030 0.959 . S
H1019 C1033 0.929 . S
H1020 C1034 0.931 . S
H1021 C1036 0.930 . S
C1022 H1010 0.930 . S
C1022 C1023 1.399 . S
C1022 C1027 1.399 . S
C1023 C1022 1.399 . S
C1023 C1024 1.376 . S
C1024 H1011 0.930 . S
C1024 C1023 1.376 . S
C1024 C1025 1.388 . S
C1025 H1012 0.930 . S
C1025 C1024 1.388 . S
C1025 C1026 1.390 . S
C1026 C1025 1.390 . S
C1026 C1027 1.394 . S
C1026 C1032 1.465 . S
C1027 C1022 1.399 . S
C1027 C1026 1.394 . S
C1027 C1028 1.516 . S
C1028 C1027 1.516 . S
C1028 C1029 1.502 . S
C1028 C1030 1.561 . S
C1028 C1031 1.526 . S
C1029 H1013 0.959 . S
C1029 H1014 0.959 . S
C1029 H1015 0.961 . S
C1029 C1028 1.502 . S
C1030 H1016 0.960 . S
C1030 H1017 0.961 . S
C1030 H1018 0.959 . S
C1030 C1028 1.561 . S
C1031 C1028 1.526 . S
C1031 C1032 1.396 . S
C1031 C1036 1.390 . S
C1032 C1026 1.465 . S
C1032 C1031 1.396 . S
C1032 C1033 1.399 . S
C1033 H1019 0.929 . S
C1033 C1032 1.399 . S
C1033 C1034 1.385 . S
C1034 H1020 0.931 . S
C1034 C1033 1.385 . S
C1034 C1035 1.389 . S
C1035 C1034 1.389 . S
C1035 C1036 1.387 . S
C1036 H1021 0.930 . S
C1036 C1031 1.390 . S
C1036 C1035 1.387 . S
H1037 C1049 0.930 . S
H1038 C1051 0.930 . S
H1039 C1052 0.930 . S
H1040 C1056 0.959 . S
H1041 C1056 0.959 . S
H1042 C1056 0.961 . S
H1043 C1057 0.960 . S
H1044 C1057 0.961 . S
H1045 C1057 0.959 . S
H1046 C1060 0.929 . S
H1047 C1061 0.931 . S
H1048 C1063 0.930 . S
C1049 H1037 0.930 . S
C1049 C1050 1.399 . S
C1049 C1054 1.399 . S
C1050 C1049 1.399 . S
C1050 C1051 1.376 . S
C1051 H1038 0.930 . S
C1051 C1050 1.376 . S
C1051 C1052 1.388 . S
C1052 H1039 0.930 . S
C1052 C1051 1.388 . S
C1052 C1053 1.390 . S
C1053 C1052 1.390 . S
C1053 C1054 1.394 . S
C1053 C1059 1.465 . S
C1054 C1049 1.399 . S
C1054 C1053 1.394 . S
C1054 C1055 1.516 1_545 S
C1055 C1054 1.516 1_565 S
C1055 C1056 1.502 . S
C1055 C1057 1.561 . S
C1055 C1058 1.526 . S
C1056 H1040 0.959 . S
C1056 H1041 0.959 . S
C1056 H1042 0.961 . S
C1056 C1055 1.502 . S
C1057 H1043 0.960 . S
C1057 H1044 0.961 . S
C1057 H1045 0.959 . S
C1057 C1055 1.561 . S
C1058 C1055 1.526 . S
C1058 C1059 1.396 1_565 S
C1058 C1063 1.390 . S
C1059 C1053 1.465 . S
C1059 C1058 1.396 1_545 S
C1059 C1060 1.399 . S
C1060 H1046 0.929 . S
C1060 C1059 1.399 . S
C1060 C1061 1.385 1_545 S
C1061 H1047 0.931 . S
C1061 C1060 1.385 1_565 S
C1061 C1062 1.389 . S
C1062 C1061 1.389 . S
C1062 C1063 1.387 . S
C1063 H1048 0.930 . S
C1063 C1058 1.390 . S
C1063 C1062 1.387 . S
H1064 C1076 0.930 . S
H1065 C1078 0.930 . S
H1066 C1079 0.930 . S
H1067 C1083 0.959 . S
H1068 C1083 0.959 . S
H1069 C1083 0.961 . S
H1070 C1084 0.960 . S
H1071 C1084 0.961 . S
H1072 C1084 0.959 . S
H1073 C1087 0.929 . S
H1074 C1088 0.931 . S
H1075 C1090 0.930 . S
C1076 H1064 0.930 . S
C1076 C1077 1.399 . S
C1076 C1081 1.399 . S
C1077 C1076 1.399 . S
C1077 C1078 1.376 . S
C1078 H1065 0.930 . S
C1078 C1077 1.376 . S
C1078 C1079 1.388 . S
C1079 H1066 0.930 . S
C1079 C1078 1.388 . S
C1079 C1080 1.390 . S
C1080 C1079 1.390 . S
C1080 C1081 1.394 . S
C1080 C1086 1.465 . S
C1081 C1076 1.399 . S
C1081 C1080 1.394 . S
C1081 C1082 1.516 . S
C1082 C1081 1.516 . S
C1082 C1083 1.502 . S
C1082 C1084 1.561 . S
C1082 C1085 1.526 . S
C1083 H1067 0.959 . S
C1083 H1068 0.959 . S
C1083 H1069 0.961 . S
C1083 C1082 1.502 . S
C1084 H1070 0.960 . S
C1084 H1071 0.961 . S
C1084 H1072 0.959 . S
C1084 C1082 1.561 . S
C1085 C1082 1.526 . S
C1085 C1086 1.396 . S
C1085 C1090 1.390 . S
C1086 C1080 1.465 . S
C1086 C1085 1.396 . S
C1086 C1087 1.399 . S
C1087 H1073 0.929 . S
C1087 C1086 1.399 . S
C1087 C1088 1.385 . S
C1088 H1074 0.931 . S
C1088 C1087 1.385 . S
C1088 C1089 1.389 . S
C1089 C1088 1.389 . S
C1089 C1090 1.387 . S
C1090 H1075 0.930 . S
C1090 C1085 1.390 . S
C1090 C1089 1.387 . S
H1091 C1103 0.930 . S
H1092 C1105 0.930 . S
H1093 C1106 0.930 . S
H1094 C1110 0.959 . S
H1095 C1110 0.959 . S
H1096 C1110 0.961 . S
H1097 C1111 0.960 . S
H1098 C1111 0.961 . S
H1099 C1111 0.959 . S
H1100 C1114 0.929 . S
H1101 C1115 0.931 . S
H1102 C1117 0.930 . S
C1103 H1091 0.930 . S
C1103 C1104 1.399 . S
C1103 C1108 1.399 . S
C1104 C1103 1.399 . S
C1104 C1105 1.376 . S
C1105 H1092 0.930 . S
C1105 C1104 1.376 . S
C1105 C1106 1.388 . S
C1106 H1093 0.930 . S
C1106 C1105 1.388 . S
C1106 C1107 1.390 . S
C1107 C1106 1.390 . S
C1107 C1108 1.394 . S
C1107 C1113 1.465 . S
C1108 C1103 1.399 . S
C1108 C1107 1.394 . S
C1108 C1109 1.516 . S
C1109 C1108 1.516 . S
C1109 C1110 1.502 . S
C1109 C1111 1.561 . S
C1109 C1112 1.526 . S
C1110 H1094 0.959 . S
C1110 H1095 0.959 . S
C1110 H1096 0.961 . S
C1110 C1109 1.502 . S
C1111 H1097 0.960 . S
C1111 H1098 0.961 . S
C1111 H1099 0.959 . S
C1111 C1109 1.561 . S
C1112 C1109 1.526 . S
C1112 C1113 1.396 . S
C1112 C1117 1.390 . S
C1113 C1107 1.465 . S
C1113 C1112 1.396 . S
C1113 C1114 1.399 . S
C1114 H1100 0.929 . S
C1114 C1113 1.399 . S
C1114 C1115 1.385 . S
C1115 H1101 0.931 . S
C1115 C1114 1.385 . S
C1115 C1116 1.389 . S
C1116 C1115 1.389 . S
C1116 C1117 1.387 . S
C1117 H1102 0.930 . S
C1117 C1112 1.390 . S
C1117 C1116 1.387 . S
H1118 C1130 0.930 . S
H1119 C1132 0.930 . S
H1120 C1133 0.930 . S
H1121 C1137 0.959 . S
H1122 C1137 0.959 . S
H1123 C1137 0.961 . S
H1124 C1138 0.960 . S
H1125 C1138 0.961 . S
H1126 C1138 0.959 . S
H1127 C1141 0.929 . S
H1128 C1142 0.931 . S
H1129 C1144 0.930 . S
C1130 H1118 0.930 . S
C1130 C1131 1.399 . S
C1130 C1135 1.399 . S
C1131 C1130 1.399 . S
C1131 C1132 1.376 . S
C1132 H1119 0.930 . S
C1132 C1131 1.376 . S
C1132 C1133 1.388 . S
C1133 H1120 0.930 . S
C1133 C1132 1.388 . S
C1133 C1134 1.390 . S
C1134 C1133 1.390 . S
C1134 C1135 1.394 . S
C1134 C1140 1.465 . S
C1135 C1130 1.399 . S
C1135 C1134 1.394 . S
C1135 C1136 1.516 . S
C1136 C1135 1.516 . S
C1136 C1137 1.502 . S
C1136 C1138 1.561 . S
C1136 C1139 1.526 . S
C1137 H1121 0.959 . S
C1137 H1122 0.959 . S
C1137 H1123 0.961 . S
C1137 C1136 1.502 . S
C1138 H1124 0.960 . S
C1138 H1125 0.961 . S
C1138 H1126 0.959 . S
C1138 C1136 1.561 . S
C1139 C1136 1.526 . S
C1139 C1140 1.396 . S
C1139 C1144 1.390 . S
C1140 C1134 1.465 . S
C1140 C1139 1.396 . S
C1140 C1141 1.399 . S
C1141 H1127 0.929 . S
C1141 C1140 1.399 . S
C1141 C1142 1.385 . S
C1142 H1128 0.931 . S
C1142 C1141 1.385 . S
C1142 C1143 1.389 . S
C1143 C1142 1.389 . S
C1143 C1144 1.387 . S
C1144 H1129 0.930 . S
C1144 C1139 1.390 . S
C1144 C1143 1.387 . S
H1145 C1157 0.930 . S
H1146 C1159 0.930 . S
H1147 C1160 0.930 . S
H1148 C1164 0.959 . S
H1149 C1164 0.959 . S
H1150 C1164 0.961 1_554 S
H1151 C1165 0.960 . S
H1152 C1165 0.961 . S
H1153 C1165 0.959 . S
H1154 C1168 0.929 . S
H1155 C1169 0.931 . S
H1156 C1171 0.930 . S
C1157 H1145 0.930 . S
C1157 C1158 1.399 . S
C1157 C1162 1.399 . S
C1158 C1157 1.399 . S
C1158 C1159 1.376 . S
C1159 H1146 0.930 . S
C1159 C1158 1.376 . S
C1159 C1160 1.388 . S
C1160 H1147 0.930 . S
C1160 C1159 1.388 . S
C1160 C1161 1.390 . S
C1161 C1160 1.390 . S
C1161 C1162 1.394 . S
C1161 C1167 1.465 . S
C1162 C1157 1.399 . S
C1162 C1161 1.394 . S
C1162 C1163 1.516 . S
C1163 C1162 1.516 . S
C1163 C1164 1.502 1_554 S
C1163 C1165 1.561 . S
C1163 C1166 1.526 1_554 S
C1164 H1148 0.959 . S
C1164 H1149 0.959 . S
C1164 H1150 0.961 1_556 S
C1164 C1163 1.502 1_556 S
C1165 H1151 0.960 . S
C1165 H1152 0.961 . S
C1165 H1153 0.959 . S
C1165 C1163 1.561 . S
C1166 C1163 1.526 1_556 S
C1166 C1167 1.396 1_556 S
C1166 C1171 1.390 . S
C1167 C1161 1.465 . S
C1167 C1166 1.396 1_554 S
C1167 C1168 1.399 . S
C1168 H1154 0.929 . S
C1168 C1167 1.399 . S
C1168 C1169 1.385 1_554 S
C1169 H1155 0.931 . S
C1169 C1168 1.385 1_556 S
C1169 C1170 1.389 . S
C1170 C1169 1.389 . S
C1170 C1171 1.387 . S
C1171 H1156 0.930 . S
C1171 C1166 1.390 . S
C1171 C1170 1.387 . S
H1172 C1184 0.930 . S
H1173 C1186 0.930 . S
H1174 C1187 0.930 . S
H1175 C1191 0.959 . S
H1176 C1191 0.959 . S
H1177 C1191 0.961 . S
H1178 C1192 0.960 . S
H1179 C1192 0.961 . S
H1180 C1192 0.959 . S
H1181 C1195 0.929 . S
H1182 C1196 0.931 . S
H1183 C1198 0.930 . S
C1184 H1172 0.930 . S
C1184 C1185 1.399 . S
C1184 C1189 1.399 . S
C1185 C1184 1.399 . S
C1185 C1186 1.376 . S
C1186 H1173 0.930 . S
C1186 C1185 1.376 . S
C1186 C1187 1.388 . S
C1187 H1174 0.930 . S
C1187 C1186 1.388 . S
C1187 C1188 1.390 . S
C1188 C1187 1.390 . S
C1188 C1189 1.394 . S
C1188 C1194 1.465 . S
C1189 C1184 1.399 . S
C1189 C1188 1.394 . S
C1189 C1190 1.516 . S
C1190 C1189 1.516 . S
C1190 C1191 1.502 . S
C1190 C1192 1.561 . S
C1190 C1193 1.526 . S
C1191 H1175 0.959 . S
C1191 H1176 0.959 . S
C1191 H1177 0.961 . S
C1191 C1190 1.502 . S
C1192 H1178 0.960 . S
C1192 H1179 0.961 . S
C1192 H1180 0.959 . S
C1192 C1190 1.561 . S
C1193 C1190 1.526 . S
C1193 C1194 1.396 . S
C1193 C1198 1.390 . S
C1194 C1188 1.465 . S
C1194 C1193 1.396 . S
C1194 C1195 1.399 . S
C1195 H1181 0.929 . S
C1195 C1194 1.399 . S
C1195 C1196 1.385 . S
C1196 H1182 0.931 . S
C1196 C1195 1.385 . S
C1196 C1197 1.389 . S
C1197 C1196 1.389 . S
C1197 C1198 1.387 . S
C1198 H1183 0.930 . S
C1198 C1193 1.390 . S
C1198 C1197 1.387 . S
H1199 C1211 0.930 . S
H1200 C1213 0.930 . S
H1201 C1214 0.930 . S
H1202 C1218 0.959 . S
H1203 C1218 0.959 . S
H1204 C1218 0.961 . S
H1205 C1219 0.960 . S
H1206 C1219 0.961 . S
H1207 C1219 0.959 . S
H1208 C1222 0.929 . S
H1209 C1223 0.931 . S
H1210 C1225 0.930 . S
C1211 H1199 0.930 . S
C1211 C1212 1.399 . S
C1211 C1216 1.399 . S
C1212 C1211 1.399 . S
C1212 C1213 1.376 . S
C1213 H1200 0.930 . S
C1213 C1212 1.376 . S
C1213 C1214 1.388 . S
C1214 H1201 0.930 . S
C1214 C1213 1.388 . S
C1214 C1215 1.390 . S
C1215 C1214 1.390 . S
C1215 C1216 1.394 . S
C1215 C1221 1.465 . S
C1216 C1211 1.399 . S
C1216 C1215 1.394 . S
C1216 C1217 1.516 . S
C1217 C1216 1.516 . S
C1217 C1218 1.502 . S
C1217 C1219 1.561 . S
C1217 C1220 1.526 . S
C1218 H1202 0.959 . S
C1218 H1203 0.959 . S
C1218 H1204 0.961 . S
C1218 C1217 1.502 . S
C1219 H1205 0.960 . S
C1219 H1206 0.961 . S
C1219 H1207 0.959 . S
C1219 C1217 1.561 . S
C1220 C1217 1.526 . S
C1220 C1221 1.396 . S
C1220 C1225 1.390 . S
C1221 C1215 1.465 . S
C1221 C1220 1.396 . S
C1221 C1222 1.399 . S
C1222 H1208 0.929 . S
C1222 C1221 1.399 . S
C1222 C1223 1.385 . S
C1223 H1209 0.931 . S
C1223 C1222 1.385 . S
C1223 C1224 1.389 . S
C1224 C1223 1.389 . S
C1224 C1225 1.387 . S
C1225 H1210 0.930 . S
C1225 C1220 1.390 . S
C1225 C1224 1.387 . S
H1226 C1238 0.930 . S
H1227 C1240 0.930 . S
H1228 C1241 0.930 . S
H1229 C1245 0.959 . S
H1230 C1245 0.959 . S
H1231 C1245 0.961 . S
H1232 C1246 0.960 . S
H1233 C1246 0.961 . S
H1234 C1246 0.959 . S
H1235 C1249 0.929 . S
H1236 C1250 0.931 . S
H1237 C1252 0.930 . S
C1238 H1226 0.930 . S
C1238 C1239 1.399 . S
C1238 C1243 1.399 . S
C1239 C1238 1.399 . S
C1239 C1240 1.376 . S
C1240 H1227 0.930 . S
C1240 C1239 1.376 . S
C1240 C1241 1.388 . S
C1241 H1228 0.930 . S
C1241 C1240 1.388 . S
C1241 C1242 1.390 . S
C1242 C1241 1.390 . S
C1242 C1243 1.394 . S
C1242 C1248 1.465 . S
C1243 C1238 1.399 . S
C1243 C1242 1.394 . S
C1243 C1244 1.516 . S
C1244 C1243 1.516 . S
C1244 C1245 1.502 . S
C1244 C1246 1.561 . S
C1244 C1247 1.526 . S
C1245 H1229 0.959 . S
C1245 H1230 0.959 . S
C1245 H1231 0.961 . S
C1245 C1244 1.502 . S
C1246 H1232 0.960 . S
C1246 H1233 0.961 . S
C1246 H1234 0.959 . S
C1246 C1244 1.561 . S
C1247 C1244 1.526 . S
C1247 C1248 1.396 . S
C1247 C1252 1.390 . S
C1248 C1242 1.465 . S
C1248 C1247 1.396 . S
C1248 C1249 1.399 . S
C1249 H1235 0.929 . S
C1249 C1248 1.399 . S
C1249 C1250 1.385 . S
C1250 H1236 0.931 . S
C1250 C1249 1.385 . S
C1250 C1251 1.389 . S
C1251 C1250 1.389 . S
C1251 C1252 1.387 . S
C1252 H1237 0.930 . S
C1252 C1247 1.390 . S
C1252 C1251 1.387 . S
H1253 C1265 0.930 . S
H1254 C1267 0.930 . S
H1255 C1268 0.930 . S
H1256 C1272 0.959 . S
H1257 C1272 0.959 . S
H1258 C1272 0.961 . S
H1259 C1273 0.960 . S
H1260 C1273 0.961 . S
H1261 C1273 0.959 . S
H1262 C1276 0.929 . S
H1263 C1277 0.931 . S
H1264 C1279 0.930 . S
C1265 H1253 0.930 . S
C1265 C1266 1.399 . S
C1265 C1270 1.399 . S
C1266 C1265 1.399 . S
C1266 C1267 1.376 . S
C1267 H1254 0.930 . S
C1267 C1266 1.376 . S
C1267 C1268 1.388 . S
C1268 H1255 0.930 . S
C1268 C1267 1.388 . S
C1268 C1269 1.390 . S
C1269 C1268 1.390 . S
C1269 C1270 1.394 . S
C1269 C1275 1.474 . S
C1270 C1265 1.399 . S
C1270 C1269 1.394 . S
C1270 C1271 1.516 . S
C1271 C1270 1.516 . S
C1271 C1272 1.502 . S
C1271 C1273 1.561 . S
C1271 C1274 1.526 . S
C1272 H1256 0.959 . S
C1272 H1257 0.959 . S
C1272 H1258 0.961 . S
C1272 C1271 1.502 . S
C1273 H1259 0.960 . S
C1273 H1260 0.961 . S
C1273 H1261 0.959 . S
C1273 C1271 1.561 . S
C1274 C1271 1.526 . S
C1274 C1275 1.399 . S
C1274 C1279 1.390 1_554 S
C1275 C1269 1.474 . S
C1275 C1274 1.399 . S
C1275 C1276 1.388 1_554 S
C1276 H1262 0.929 . S
C1276 C1275 1.388 1_556 S
C1276 C1277 1.385 . S
C1277 H1263 0.931 . S
C1277 C1276 1.385 . S
C1277 C1278 1.389 . S
C1278 C1277 1.389 . S
C1278 C1279 1.387 . S
C1279 H1264 0.930 . S
C1279 C1274 1.390 1_556 S
C1279 C1278 1.387 . S
H1280 C1292 0.930 . S
H1281 C1294 0.930 . S
H1282 C1295 0.930 . S
H1283 C1299 0.959 . S
H1284 C1299 0.959 . S
H1285 C1299 0.961 . S
H1286 C1300 0.960 . S
H1287 C1300 0.961 . S
H1288 C1300 0.959 . S
H1289 C1303 0.929 . S
H1290 C1304 0.931 . S
H1291 C1306 0.930 . S
C1292 H1280 0.930 . S
C1292 C1293 1.399 1_556 S
C1292 C1297 1.399 1_556 S
C1293 C1292 1.399 1_554 S
C1293 C1294 1.376 . S
C1294 H1281 0.930 . S
C1294 C1293 1.376 . S
C1294 C1295 1.388 . S
C1295 H1282 0.930 . S
C1295 C1294 1.388 . S
C1295 C1296 1.390 . S
C1296 C1295 1.390 . S
C1296 C1297 1.394 . S
C1296 C1302 1.465 . S
C1297 C1292 1.399 1_554 S
C1297 C1296 1.394 . S
C1297 C1298 1.516 1_554 S
C1298 C1297 1.516 1_556 S
C1298 C1299 1.502 . S
C1298 C1300 1.561 . S
C1298 C1301 1.526 1_556 S
C1299 H1283 0.959 . S
C1299 H1284 0.959 . S
C1299 H1285 0.961 . S
C1299 C1298 1.502 . S
C1300 H1286 0.960 . S
C1300 H1287 0.961 . S
C1300 H1288 0.959 . S
C1300 C1298 1.561 . S
C1301 C1298 1.526 1_554 S
C1301 C1302 1.396 . S
C1301 C1306 1.390 1_554 S
C1302 C1296 1.465 . S
C1302 C1301 1.396 . S
C1302 C1303 1.399 . S
C1303 H1289 0.929 . S
C1303 C1302 1.399 . S
C1303 C1304 1.385 . S
C1304 H1290 0.931 . S
C1304 C1303 1.385 . S
C1304 C1305 1.389 . S
C1305 C1304 1.389 . S
C1305 C1306 1.387 1_554 S
C1306 H1291 0.930 . S
C1306 C1301 1.390 1_556 S
C1306 C1305 1.387 1_556 S
H1307 C1319 0.930 . S
H1308 C1321 0.930 . S
H1309 C1322 0.930 . S
H1310 C1326 0.962 . S
H1311 C1326 0.977 . S
H1312 C1326 0.942 1_455 S
H1313 C1327 0.960 1_455 S
H1314 C1327 0.961 . S
H1315 C1327 0.959 . S
H1316 C1330 0.929 . S
H1317 C1331 0.931 . S
H1318 C1333 0.930 . S
C1319 H1307 0.930 . S
C1319 C1320 1.399 . S
C1319 C1324 1.399 . S
C1320 C1319 1.399 . S
C1320 C1321 1.376 . S
C1321 H1308 0.930 . S
C1321 C1320 1.376 . S
C1321 C1322 1.388 . S
C1322 H1309 0.930 . S
C1322 C1321 1.388 . S
C1322 C1323 1.390 . S
C1323 C1322 1.390 . S
C1323 C1324 1.394 . S
C1323 C1329 1.465 1_455 S
C1324 C1319 1.399 . S
C1324 C1323 1.394 . S
C1324 C1325 1.519 1_455 S
C1325 C1324 1.519 1_655 S
C1325 C1326 1.502 . S
C1325 C1327 1.561 . S
C1325 C1328 1.523 . S
C1326 H1310 0.962 . S
C1326 H1311 0.977 . S
C1326 H1312 0.942 1_655 S
C1326 C1325 1.502 . S
C1327 H1313 0.960 1_655 S
C1327 H1314 0.961 . S
C1327 H1315 0.959 . S
C1327 C1325 1.561 . S
C1328 C1325 1.523 . S
C1328 C1329 1.396 . S
C1328 C1333 1.390 . S
C1329 C1323 1.465 1_655 S
C1329 C1328 1.396 . S
C1329 C1330 1.399 . S
C1330 H1316 0.929 . S
C1330 C1329 1.399 . S
C1330 C1331 1.385 . S
C1331 H1317 0.931 . S
C1331 C1330 1.385 . S
C1331 C1332 1.389 . S
C1332 C1331 1.389 . S
C1332 C1333 1.387 . S
C1333 H1318 0.930 . S
C1333 C1328 1.390 . S
C1333 C1332 1.387 . S
H1334 C1346 0.930 . S
H1335 C1348 0.930 . S
H1336 C1349 0.930 . S
H1337 C1353 0.959 . S
H1338 C1353 0.959 . S
H1339 C1353 0.961 . S
H1340 C1354 0.960 . S
H1341 C1354 0.961 . S
H1342 C1354 0.959 . S
H1343 C1357 0.929 . S
H1344 C1358 0.931 . S
H1345 C1360 0.930 . S
C1346 H1334 0.930 . S
C1346 C1347 1.399 . S
C1346 C1351 1.399 . S
C1347 C1346 1.399 . S
C1347 C1348 1.376 . S
C1348 H1335 0.930 . S
C1348 C1347 1.376 . S
C1348 C1349 1.388 . S
C1349 H1336 0.930 . S
C1349 C1348 1.388 . S
C1349 C1350 1.390 . S
C1350 C1349 1.390 . S
C1350 C1351 1.394 . S
C1350 C1356 1.465 . S
C1351 C1346 1.399 . S
C1351 C1350 1.394 . S
C1351 C1352 1.516 . S
C1352 C1351 1.516 . S
C1352 C1353 1.502 . S
C1352 C1354 1.561 . S
C1352 C1355 1.526 . S
C1353 H1337 0.959 . S
C1353 H1338 0.959 . S
C1353 H1339 0.961 . S
C1353 C1352 1.502 . S
C1354 H1340 0.960 . S
C1354 H1341 0.961 . S
C1354 H1342 0.959 . S
C1354 C1352 1.561 . S
C1355 C1352 1.526 . S
C1355 C1356 1.396 . S
C1355 C1360 1.390 . S
C1356 C1350 1.465 . S
C1356 C1355 1.396 . S
C1356 C1357 1.399 . S
C1357 H1343 0.929 . S
C1357 C1356 1.399 . S
C1357 C1358 1.385 . S
C1358 H1344 0.931 . S
C1358 C1357 1.385 . S
C1358 C1359 1.389 . S
C1359 C1358 1.389 . S
C1359 C1360 1.387 . S
C1360 H1345 0.930 . S
C1360 C1355 1.390 . S
C1360 C1359 1.387 . S
H1361 C1373 0.930 . S
H1362 C1375 0.930 . S
H1363 C1376 0.930 . S
H1364 C1380 0.959 . S
H1365 C1380 0.959 . S
H1366 C1380 0.961 . S
H1367 C1381 0.960 . S
H1368 C1381 0.961 . S
H1369 C1381 0.959 . S
H1370 C1384 0.929 . S
H1371 C1385 0.931 . S
H1372 C1387 0.930 . S
C1373 H1361 0.930 . S
C1373 C1374 1.399 . S
C1373 C1378 1.399 . S
C1374 C1373 1.399 . S
C1374 C1375 1.376 . S
C1375 H1362 0.930 . S
C1375 C1374 1.376 . S
C1375 C1376 1.388 . S
C1376 H1363 0.930 . S
C1376 C1375 1.388 . S
C1376 C1377 1.390 . S
C1377 C1376 1.390 . S
C1377 C1378 1.394 . S
C1377 C1383 1.465 . S
C1378 C1373 1.399 . S
C1378 C1377 1.394 . S
C1378 C1379 1.516 . S
C1379 C1378 1.516 . S
C1379 C1380 1.502 . S
C1379 C1381 1.561 . S
C1379 C1382 1.526 . S
C1380 H1364 0.959 . S
C1380 H1365 0.959 . S
C1380 H1366 0.961 . S
C1380 C1379 1.502 . S
C1381 H1367 0.960 . S
C1381 H1368 0.961 . S
C1381 H1369 0.959 . S
C1381 C1379 1.561 . S
C1382 C1379 1.526 . S
C1382 C1383 1.396 . S
C1382 C1387 1.390 . S
C1383 C1377 1.465 . S
C1383 C1382 1.396 . S
C1383 C1384 1.399 . S
C1384 H1370 0.929 . S
C1384 C1383 1.399 . S
C1384 C1385 1.385 . S
C1385 H1371 0.931 . S
C1385 C1384 1.385 . S
C1385 C1386 1.389 . S
C1386 C1385 1.389 . S
C1386 C1387 1.387 . S
C1387 H1372 0.930 . S
C1387 C1382 1.390 . S
C1387 C1386 1.387 . S
H1388 C1400 0.930 . S
H1389 C1402 0.930 . S
H1390 C1403 0.930 . S
H1391 C1407 0.959 . S
H1392 C1407 0.959 . S
H1393 C1407 0.961 . S
H1394 C1408 0.960 . S
H1395 C1408 0.961 . S
H1396 C1408 0.959 . S
H1397 C1411 0.929 . S
H1398 C1412 0.931 . S
H1399 C1414 0.930 . S
C1400 H1388 0.930 . S
C1400 C1401 1.399 . S
C1400 C1405 1.399 . S
C1401 C1400 1.399 . S
C1401 C1402 1.376 . S
C1402 H1389 0.930 . S
C1402 C1401 1.376 . S
C1402 C1403 1.388 . S
C1403 H1390 0.930 . S
C1403 C1402 1.388 . S
C1403 C1404 1.390 . S
C1404 C1403 1.390 . S
C1404 C1405 1.394 . S
C1404 C1410 1.465 . S
C1405 C1400 1.399 . S
C1405 C1404 1.394 . S
C1405 C1406 1.516 . S
C1406 C1405 1.516 . S
C1406 C1407 1.502 . S
C1406 C1408 1.561 1_554 S
C1406 C1409 1.526 . S
C1407 H1391 0.959 . S
C1407 H1392 0.959 . S
C1407 H1393 0.961 . S
C1407 C1406 1.502 . S
C1408 H1394 0.960 . S
C1408 H1395 0.961 . S
C1408 H1396 0.959 . S
C1408 C1406 1.561 1_556 S
C1409 C1406 1.526 . S
C1409 C1410 1.396 . S
C1409 C1414 1.390 . S
C1410 C1404 1.465 . S
C1410 C1409 1.396 . S
C1410 C1411 1.399 . S
C1411 H1397 0.929 . S
C1411 C1410 1.399 . S
C1411 C1412 1.385 . S
C1412 H1398 0.931 . S
C1412 C1411 1.385 . S
C1412 C1413 1.389 . S
C1413 C1412 1.389 . S
C1413 C1414 1.387 . S
C1414 H1399 0.930 . S
C1414 C1409 1.390 . S
C1414 C1413 1.387 . S
H1415 C1427 0.930 . S
H1416 C1429 0.930 . S
H1417 C1430 0.930 . S
H1418 C1434 0.959 . S
H1419 C1434 0.959 . S
H1420 C1434 0.961 . S
H1421 C1435 0.960 . S
H1422 C1435 0.961 . S
H1423 C1435 0.959 . S
H1424 C1438 0.929 . S
H1425 C1439 0.931 . S
H1426 C1441 0.930 . S
C1427 H1415 0.930 . S
C1427 C1428 1.399 . S
C1427 C1432 1.399 . S
C1428 C1427 1.399 . S
C1428 C1429 1.376 . S
C1429 H1416 0.930 . S
C1429 C1428 1.376 . S
C1429 C1430 1.388 . S
C1430 H1417 0.930 . S
C1430 C1429 1.388 . S
C1430 C1431 1.390 . S
C1431 C1430 1.390 . S
C1431 C1432 1.394 . S
C1431 C1437 1.465 . S
C1432 C1427 1.399 . S
C1432 C1431 1.394 . S
C1432 C1433 1.516 . S
C1433 C1432 1.516 . S
C1433 C1434 1.502 . S
C1433 C1435 1.561 . S
C1433 C1436 1.526 . S
C1434 H1418 0.959 . S
C1434 H1419 0.959 . S
C1434 H1420 0.961 . S
C1434 C1433 1.502 . S
C1435 H1421 0.960 . S
C1435 H1422 0.961 . S
C1435 H1423 0.959 . S
C1435 C1433 1.561 . S
C1436 C1433 1.526 . S
C1436 C1437 1.396 . S
C1436 C1441 1.390 . S
C1437 C1431 1.465 . S
C1437 C1436 1.396 . S
C1437 C1438 1.399 . S
C1438 H1424 0.929 . S
C1438 C1437 1.399 . S
C1438 C1439 1.385 . S
C1439 H1425 0.931 . S
C1439 C1438 1.385 . S
C1439 C1440 1.389 . S
C1440 C1439 1.389 . S
C1440 C1441 1.387 . S
C1441 H1426 0.930 . S
C1441 C1436 1.390 . S
C1441 C1440 1.387 . S
H1442 C1454 0.930 . S
H1443 C1456 0.930 . S
H1444 C1457 0.930 . S
H1445 C1461 0.959 . S
H1446 C1461 0.959 . S
H1447 C1461 0.961 . S
H1448 C1462 0.960 . S
H1449 C1462 0.961 . S
H1450 C1462 0.959 . S
H1451 C1465 0.929 . S
H1452 C1466 0.931 . S
H1453 C1468 0.930 . S
C1454 H1442 0.930 . S
C1454 C1455 1.399 . S
C1454 C1459 1.399 . S
C1455 C1454 1.399 . S
C1455 C1456 1.376 . S
C1456 H1443 0.930 . S
C1456 C1455 1.376 . S
C1456 C1457 1.388 . S
C1457 H1444 0.930 . S
C1457 C1456 1.388 . S
C1457 C1458 1.390 . S
C1458 C1457 1.390 . S
C1458 C1459 1.394 . S
C1458 C1464 1.465 . S
C1459 C1454 1.399 . S
C1459 C1458 1.394 . S
C1459 C1460 1.516 . S
C1460 C1459 1.516 . S
C1460 C1461 1.502 . S
C1460 C1462 1.561 . S
C1460 C1463 1.526 . S
C1461 H1445 0.959 . S
C1461 H1446 0.959 . S
C1461 H1447 0.961 . S
C1461 C1460 1.502 . S
C1462 H1448 0.960 . S
C1462 H1449 0.961 . S
C1462 H1450 0.959 . S
C1462 C1460 1.561 . S
C1463 C1460 1.526 . S
C1463 C1464 1.396 . S
C1463 C1468 1.390 . S
C1464 C1458 1.465 . S
C1464 C1463 1.396 . S
C1464 C1465 1.399 . S
C1465 H1451 0.929 . S
C1465 C1464 1.399 . S
C1465 C1466 1.385 . S
C1466 H1452 0.931 . S
C1466 C1465 1.385 . S
C1466 C1467 1.389 . S
C1467 C1466 1.389 . S
C1467 C1468 1.387 . S
C1468 H1453 0.930 . S
C1468 C1463 1.390 . S
C1468 C1467 1.387 . S
H1469 C1481 0.930 . S
H1470 C1483 0.930 . S
H1471 C1484 0.930 . S
H1472 C1488 0.962 . S
H1473 C1488 0.977 . S
H1474 C1488 0.942 1_655 S
H1475 C1489 0.960 1_655 S
H1476 C1489 0.961 . S
H1477 C1489 0.959 . S
H1478 C1492 0.929 . S
H1479 C1493 0.931 . S
H1480 C1495 0.930 . S
C1481 H1469 0.930 . S
C1481 C1482 1.399 . S
C1481 C1486 1.399 . S
C1482 C1481 1.399 . S
C1482 C1483 1.376 . S
C1483 H1470 0.930 . S
C1483 C1482 1.376 . S
C1483 C1484 1.388 . S
C1484 H1471 0.930 . S
C1484 C1483 1.388 . S
C1484 C1485 1.390 . S
C1485 C1484 1.390 . S
C1485 C1486 1.394 . S
C1485 C1491 1.465 1_655 S
C1486 C1481 1.399 . S
C1486 C1485 1.394 . S
C1486 C1487 1.519 1_655 S
C1487 C1486 1.519 1_455 S
C1487 C1488 1.502 . S
C1487 C1489 1.561 . S
C1487 C1490 1.523 . S
C1488 H1472 0.962 . S
C1488 H1473 0.977 . S
C1488 H1474 0.942 1_455 S
C1488 C1487 1.502 . S
C1489 H1475 0.960 1_455 S
C1489 H1476 0.961 . S
C1489 H1477 0.959 . S
C1489 C1487 1.561 . S
C1490 C1487 1.523 . S
C1490 C1491 1.396 . S
C1490 C1495 1.390 . S
C1491 C1485 1.465 1_455 S
C1491 C1490 1.396 . S
C1491 C1492 1.399 . S
C1492 H1478 0.929 . S
C1492 C1491 1.399 . S
C1492 C1493 1.385 . S
C1493 H1479 0.931 . S
C1493 C1492 1.385 . S
C1493 C1494 1.389 . S
C1494 C1493 1.389 . S
C1494 C1495 1.387 . S
C1495 H1480 0.930 . S
C1495 C1490 1.390 . S
C1495 C1494 1.387 . S
H1496 C1508 0.930 . S
H1497 C1510 0.930 . S
H1498 C1511 0.930 . S
H1499 C1515 0.959 . S
H1500 C1515 0.959 . S
H1501 C1515 0.961 . S
H1502 C1516 0.960 . S
H1503 C1516 0.961 . S
H1504 C1516 0.959 . S
H1505 C1519 0.929 . S
H1506 C1520 0.931 . S
H1507 C1522 0.930 . S
C1508 H1496 0.930 . S
C1508 C1509 1.399 . S
C1508 C1513 1.399 . S
C1509 C1508 1.399 . S
C1509 C1510 1.376 . S
C1510 H1497 0.930 . S
C1510 C1509 1.376 . S
C1510 C1511 1.388 . S
C1511 H1498 0.930 . S
C1511 C1510 1.388 . S
C1511 C1512 1.390 . S
C1512 C1511 1.390 . S
C1512 C1513 1.394 . S
C1512 C1518 1.465 . S
C1513 C1508 1.399 . S
C1513 C1512 1.394 . S
C1513 C1514 1.516 . S
C1514 C1513 1.516 . S
C1514 C1515 1.502 . S
C1514 C1516 1.561 . S
C1514 C1517 1.526 . S
C1515 H1499 0.959 . S
C1515 H1500 0.959 . S
C1515 H1501 0.961 . S
C1515 C1514 1.502 . S
C1516 H1502 0.960 . S
C1516 H1503 0.961 . S
C1516 H1504 0.959 . S
C1516 C1514 1.561 . S
C1517 C1514 1.526 . S
C1517 C1518 1.396 . S
C1517 C1522 1.390 . S
C1518 C1512 1.465 . S
C1518 C1517 1.396 . S
C1518 C1519 1.399 . S
C1519 H1505 0.929 . S
C1519 C1518 1.399 . S
C1519 C1520 1.385 . S
C1520 H1506 0.931 . S
C1520 C1519 1.385 . S
C1520 C1521 1.389 . S
C1521 C1520 1.389 . S
C1521 C1522 1.387 . S
C1522 H1507 0.930 . S
C1522 C1517 1.390 . S
C1522 C1521 1.387 . S
H1523 C1535 0.930 . S
H1524 C1537 0.930 . S
H1525 C1538 0.930 . S
H1526 C1542 0.959 . S
H1527 C1542 0.959 . S
H1528 C1542 0.961 . S
H1529 C1543 0.960 . S
H1530 C1543 0.961 . S
H1531 C1543 0.959 . S
H1532 C1546 0.929 . S
H1533 C1547 0.931 . S
H1534 C1549 0.930 . S
C1535 H1523 0.930 . S
C1535 C1536 1.399 . S
C1535 C1540 1.399 . S
C1536 C1535 1.399 . S
C1536 C1537 1.376 . S
C1537 H1524 0.930 . S
C1537 C1536 1.376 . S
C1537 C1538 1.388 . S
C1538 H1525 0.930 . S
C1538 C1537 1.388 . S
C1538 C1539 1.390 . S
C1539 C1538 1.390 . S
C1539 C1540 1.394 . S
C1539 C1545 1.465 . S
C1540 C1535 1.399 . S
C1540 C1539 1.394 . S
C1540 C1541 1.516 . S
C1541 C1540 1.516 . S
C1541 C1542 1.502 . S
C1541 C1543 1.561 . S
C1541 C1544 1.526 . S
C1542 H1526 0.959 . S
C1542 H1527 0.959 . S
C1542 H1528 0.961 . S
C1542 C1541 1.502 . S
C1543 H1529 0.960 . S
C1543 H1530 0.961 . S
C1543 H1531 0.959 . S
C1543 C1541 1.561 . S
C1544 C1541 1.526 . S
C1544 C1545 1.396 . S
C1544 C1549 1.390 . S
C1545 C1539 1.465 . S
C1545 C1544 1.396 . S
C1545 C1546 1.399 . S
C1546 H1532 0.929 . S
C1546 C1545 1.399 . S
C1546 C1547 1.385 . S
C1547 H1533 0.931 . S
C1547 C1546 1.385 . S
C1547 C1548 1.389 . S
C1548 C1547 1.389 . S
C1548 C1549 1.387 . S
C1549 H1534 0.930 . S
C1549 C1544 1.390 . S
C1549 C1548 1.387 . S
H1550 C1562 0.930 . S
H1551 C1564 0.930 . S
H1552 C1565 0.930 . S
H1553 C1569 0.959 . S
H1554 C1569 0.959 . S
H1555 C1569 0.961 . S
H1556 C1570 0.960 . S
H1557 C1570 0.961 . S
H1558 C1570 0.959 . S
H1559 C1573 0.929 . S
H1560 C1574 0.931 . S
H1561 C1576 0.930 . S
C1562 H1550 0.930 . S
C1562 C1563 1.399 1_556 S
C1562 C1567 1.399 1_556 S
C1563 C1562 1.399 1_554 S
C1563 C1564 1.376 . S
C1564 H1551 0.930 . S
C1564 C1563 1.376 . S
C1564 C1565 1.388 . S
C1565 H1552 0.930 . S
C1565 C1564 1.388 . S
C1565 C1566 1.390 . S
C1566 C1565 1.390 . S
C1566 C1567 1.394 . S
C1566 C1572 1.465 . S
C1567 C1562 1.399 1_554 S
C1567 C1566 1.394 . S
C1567 C1568 1.516 1_554 S
C1568 C1567 1.516 1_556 S
C1568 C1569 1.502 . S
C1568 C1570 1.561 . S
C1568 C1571 1.526 1_556 S
C1569 H1553 0.959 . S
C1569 H1554 0.959 . S
C1569 H1555 0.961 . S
C1569 C1568 1.502 . S
C1570 H1556 0.960 . S
C1570 H1557 0.961 . S
C1570 H1558 0.959 . S
C1570 C1568 1.561 . S
C1571 C1568 1.526 1_554 S
C1571 C1572 1.396 . S
C1571 C1576 1.390 1_554 S
C1572 C1566 1.465 . S
C1572 C1571 1.396 . S
C1572 C1573 1.399 . S
C1573 H1559 0.929 . S
C1573 C1572 1.399 . S
C1573 C1574 1.385 . S
C1574 H1560 0.931 . S
C1574 C1573 1.385 . S
C1574 C1575 1.389 . S
C1575 C1574 1.389 . S
C1575 C1576 1.387 1_554 S
C1576 H1561 0.930 . S
C1576 C1571 1.390 1_556 S
C1576 C1575 1.387 1_556 S
H1577 C1589 0.930 . S
H1578 C1591 0.930 . S
H1579 C1592 0.930 . S
H1580 C1596 0.959 . S
H1581 C1596 0.959 . S
H1582 C1596 0.961 . S
H1583 C1597 0.960 . S
H1584 C1597 0.961 . S
H1585 C1597 0.959 . S
H1586 C1600 0.929 . S
H1587 C1601 0.931 . S
H1588 C1603 0.930 . S
C1589 H1577 0.930 . S
C1589 C1590 1.399 . S
C1589 C1594 1.399 . S
C1590 C1589 1.399 . S
C1590 C1591 1.376 . S
C1591 H1578 0.930 . S
C1591 C1590 1.376 . S
C1591 C1592 1.388 . S
C1592 H1579 0.930 . S
C1592 C1591 1.388 . S
C1592 C1593 1.390 . S
C1593 C1592 1.390 . S
C1593 C1594 1.394 . S
C1593 C1599 1.465 . S
C1594 C1589 1.399 . S
C1594 C1593 1.394 . S
C1594 C1595 1.516 . S
C1595 C1594 1.516 . S
C1595 C1596 1.502 . S
C1595 C1597 1.561 . S
C1595 C1598 1.526 . S
C1596 H1580 0.959 . S
C1596 H1581 0.959 . S
C1596 H1582 0.961 . S
C1596 C1595 1.502 . S
C1597 H1583 0.960 . S
C1597 H1584 0.961 . S
C1597 H1585 0.959 . S
C1597 C1595 1.561 . S
C1598 C1595 1.526 . S
C1598 C1599 1.396 . S
C1598 C1603 1.390 . S
C1599 C1593 1.465 . S
C1599 C1598 1.396 . S
C1599 C1600 1.399 . S
C1600 H1586 0.929 . S
C1600 C1599 1.399 . S
C1600 C1601 1.385 . S
C1601 H1587 0.931 . S
C1601 C1600 1.385 . S
C1601 C1602 1.389 . S
C1602 C1601 1.389 . S
C1602 C1603 1.387 . S
C1603 H1588 0.930 . S
C1603 C1598 1.390 . S
C1603 C1602 1.387 . S
H1604 C1616 0.930 . S
H1605 C1618 0.930 . S
H1606 C1619 0.930 . S
H1607 C1623 0.959 . S
H1608 C1623 0.959 . S
H1609 C1623 0.961 . S
H1610 C1624 0.960 . S
H1611 C1624 0.961 . S
H1612 C1624 0.959 . S
H1613 C1627 0.929 . S
H1614 C1628 0.931 . S
H1615 C1630 0.930 . S
C1616 H1604 0.930 . S
C1616 C1617 1.399 . S
C1616 C1621 1.399 . S
C1617 C1616 1.399 . S
C1617 C1618 1.376 . S
C1618 H1605 0.930 . S
C1618 C1617 1.376 . S
C1618 C1619 1.388 . S
C1619 H1606 0.930 . S
C1619 C1618 1.388 . S
C1619 C1620 1.390 . S
C1620 C1619 1.390 . S
C1620 C1621 1.394 . S
C1620 C1626 1.465 . S
C1621 C1616 1.399 . S
C1621 C1620 1.394 . S
C1621 C1622 1.516 . S
C1622 C1621 1.516 . S
C1622 C1623 1.502 . S
C1622 C1624 1.561 . S
C1622 C1625 1.526 . S
C1623 H1607 0.959 . S
C1623 H1608 0.959 . S
C1623 H1609 0.961 . S
C1623 C1622 1.502 . S
C1624 H1610 0.960 . S
C1624 H1611 0.961 . S
C1624 H1612 0.959 . S
C1624 C1622 1.561 . S
C1625 C1622 1.526 . S
C1625 C1626 1.396 . S
C1625 C1630 1.390 . S
C1626 C1620 1.465 . S
C1626 C1625 1.396 . S
C1626 C1627 1.399 . S
C1627 H1613 0.929 . S
C1627 C1626 1.399 . S
C1627 C1628 1.385 . S
C1628 H1614 0.931 . S
C1628 C1627 1.385 . S
C1628 C1629 1.389 . S
C1629 C1628 1.389 . S
C1629 C1630 1.387 . S
C1630 H1615 0.930 . S
C1630 C1625 1.390 . S
C1630 C1629 1.387 . S
H1631 C1643 0.930 . S
H1632 C1645 0.930 . S
H1633 C1646 0.930 . S
H1634 C1650 0.962 . S
H1635 C1650 0.977 . S
H1636 C1650 0.942 1_655 S
H1637 C1651 0.960 1_655 S
H1638 C1651 0.961 . S
H1639 C1651 0.959 . S
H1640 C1654 0.929 . S
H1641 C1655 0.931 . S
H1642 C1657 0.930 . S
C1643 H1631 0.930 . S
C1643 C1644 1.399 . S
C1643 C1648 1.399 . S
C1644 C1643 1.399 . S
C1644 C1645 1.376 . S
C1645 H1632 0.930 . S
C1645 C1644 1.376 . S
C1645 C1646 1.388 . S
C1646 H1633 0.930 . S
C1646 C1645 1.388 . S
C1646 C1647 1.390 . S
C1647 C1646 1.390 . S
C1647 C1648 1.394 . S
C1647 C1653 1.465 1_655 S
C1648 C1643 1.399 . S
C1648 C1647 1.394 . S
C1648 C1649 1.519 1_655 S
C1649 C1648 1.519 1_455 S
C1649 C1650 1.502 . S
C1649 C1651 1.561 . S
C1649 C1652 1.523 . S
C1650 H1634 0.962 . S
C1650 H1635 0.977 . S
C1650 H1636 0.942 1_455 S
C1650 C1649 1.502 . S
C1651 H1637 0.960 1_455 S
C1651 H1638 0.961 . S
C1651 H1639 0.959 . S
C1651 C1649 1.561 . S
C1652 C1649 1.523 . S
C1652 C1653 1.396 . S
C1652 C1657 1.390 . S
C1653 C1647 1.465 1_455 S
C1653 C1652 1.396 . S
C1653 C1654 1.399 . S
C1654 H1640 0.929 . S
C1654 C1653 1.399 . S
C1654 C1655 1.385 . S
C1655 H1641 0.931 . S
C1655 C1654 1.385 . S
C1655 C1656 1.389 . S
C1656 C1655 1.389 . S
C1656 C1657 1.387 . S
C1657 H1642 0.930 . S
C1657 C1652 1.390 . S
C1657 C1656 1.387 . S
H1658 C1670 0.930 . S
H1659 C1672 0.930 . S
H1660 C1673 0.930 . S
H1661 C1677 0.962 . S
H1662 C1677 0.977 . S
H1663 C1677 0.942 1_655 S
H1664 C1678 0.960 1_655 S
H1665 C1678 0.961 . S
H1666 C1678 0.959 . S
H1667 C1681 0.929 . S
H1668 C1682 0.931 . S
H1669 C1684 0.930 . S
C1670 H1658 0.930 . S
C1670 C1671 1.399 . S
C1670 C1675 1.399 . S
C1671 C1670 1.399 . S
C1671 C1672 1.376 . S
C1672 H1659 0.930 . S
C1672 C1671 1.376 . S
C1672 C1673 1.388 . S
C1673 H1660 0.930 . S
C1673 C1672 1.388 . S
C1673 C1674 1.390 . S
C1674 C1673 1.390 . S
C1674 C1675 1.394 . S
C1674 C1680 1.465 1_655 S
C1675 C1670 1.399 . S
C1675 C1674 1.394 . S
C1675 C1676 1.519 1_655 S
C1676 C1675 1.519 1_455 S
C1676 C1677 1.502 . S
C1676 C1678 1.561 . S
C1676 C1679 1.523 . S
C1677 H1661 0.962 . S
C1677 H1662 0.977 . S
C1677 H1663 0.942 1_455 S
C1677 C1676 1.502 . S
C1678 H1664 0.960 1_455 S
C1678 H1665 0.961 . S
C1678 H1666 0.959 . S
C1678 C1676 1.561 . S
C1679 C1676 1.523 . S
C1679 C1680 1.396 . S
C1679 C1684 1.390 . S
C1680 C1674 1.465 1_455 S
C1680 C1679 1.396 . S
C1680 C1681 1.399 . S
C1681 H1667 0.929 . S
C1681 C1680 1.399 . S
C1681 C1682 1.385 . S
C1682 H1668 0.931 . S
C1682 C1681 1.385 . S
C1682 C1683 1.389 . S
C1683 C1682 1.389 . S
C1683 C1684 1.387 . S
C1684 H1669 0.930 . S
C1684 C1679 1.390 . S
C1684 C1683 1.387 . S
H1685 C1697 0.930 . S
H1686 C1699 0.930 . S
H1687 C1700 0.930 . S
H1688 C1704 0.959 . S
H1689 C1704 0.959 . S
H1690 C1704 0.961 . S
H1691 C1705 0.960 . S
H1692 C1705 0.961 . S
H1693 C1705 0.959 . S
H1694 C1708 0.929 . S
H1695 C1709 0.931 . S
H1696 C1711 0.930 . S
C1697 H1685 0.930 . S
C1697 C1698 1.399 . S
C1697 C1702 1.399 . S
C1698 C1697 1.399 . S
C1698 C1699 1.376 . S
C1699 H1686 0.930 . S
C1699 C1698 1.376 . S
C1699 C1700 1.388 . S
C1700 H1687 0.930 . S
C1700 C1699 1.388 . S
C1700 C1701 1.390 . S
C1701 C1700 1.390 . S
C1701 C1702 1.394 . S
C1701 C1707 1.465 . S
C1702 C1697 1.399 . S
C1702 C1701 1.394 . S
C1702 C1703 1.516 . S
C1703 C1702 1.516 . S
C1703 C1704 1.502 . S
C1703 C1705 1.561 . S
C1703 C1706 1.526 . S
C1704 H1688 0.959 . S
C1704 H1689 0.959 . S
C1704 H1690 0.961 . S
C1704 C1703 1.502 . S
C1705 H1691 0.960 . S
C1705 H1692 0.961 . S
C1705 H1693 0.959 . S
C1705 C1703 1.561 . S
C1706 C1703 1.526 . S
C1706 C1707 1.396 . S
C1706 C1711 1.390 . S
C1707 C1701 1.465 . S
C1707 C1706 1.396 . S
C1707 C1708 1.399 . S
C1708 H1694 0.929 . S
C1708 C1707 1.399 . S
C1708 C1709 1.385 . S
C1709 H1695 0.931 . S
C1709 C1708 1.385 . S
C1709 C1710 1.389 . S
C1710 C1709 1.389 . S
C1710 C1711 1.387 . S
C1711 H1696 0.930 . S
C1711 C1706 1.390 . S
C1711 C1710 1.387 . S
H1712 C1724 0.930 . S
H1713 C1726 0.930 . S
H1714 C1727 0.930 . S
H1715 C1731 0.959 . S
H1716 C1731 0.959 . S
H1717 C1731 0.961 . S
H1718 C1732 0.960 . S
H1719 C1732 0.961 . S
H1720 C1732 0.959 . S
H1721 C1735 0.929 . S
H1722 C1736 0.931 . S
H1723 C1738 0.930 . S
C1724 H1712 0.930 . S
C1724 C1725 1.399 . S
C1724 C1729 1.399 . S
C1725 C1724 1.399 . S
C1725 C1726 1.376 . S
C1726 H1713 0.930 . S
C1726 C1725 1.376 . S
C1726 C1727 1.388 . S
C1727 H1714 0.930 . S
C1727 C1726 1.388 . S
C1727 C1728 1.390 . S
C1728 C1727 1.390 . S
C1728 C1729 1.394 . S
C1728 C1734 1.465 . S
C1729 C1724 1.399 . S
C1729 C1728 1.394 . S
C1729 C1730 1.516 . S
C1730 C1729 1.516 . S
C1730 C1731 1.502 . S
C1730 C1732 1.561 . S
C1730 C1733 1.526 . S
C1731 H1715 0.959 . S
C1731 H1716 0.959 . S
C1731 H1717 0.961 . S
C1731 C1730 1.502 . S
C1732 H1718 0.960 . S
C1732 H1719 0.961 . S
C1732 H1720 0.959 . S
C1732 C1730 1.561 . S
C1733 C1730 1.526 . S
C1733 C1734 1.396 . S
C1733 C1738 1.390 . S
C1734 C1728 1.465 . S
C1734 C1733 1.396 . S
C1734 C1735 1.399 . S
C1735 H1721 0.929 . S
C1735 C1734 1.399 . S
C1735 C1736 1.385 . S
C1736 H1722 0.931 . S
C1736 C1735 1.385 . S
C1736 C1737 1.389 . S
C1737 C1736 1.389 . S
C1737 C1738 1.387 . S
C1738 H1723 0.930 . S
C1738 C1733 1.390 . S
C1738 C1737 1.387 . S
H1739 C1751 0.930 . S
H1740 C1753 0.930 . S
H1741 C1754 0.930 . S
H1742 C1758 0.959 1_565 S
H1743 C1758 0.959 . S
H1744 C1758 0.961 . S
H1745 C1759 0.960 . S
H1746 C1759 0.961 . S
H1747 C1759 0.959 . S
H1748 C1762 0.929 1_565 S
H1749 C1763 0.931 . S
H1750 C1765 0.930 . S
C1751 H1739 0.930 . S
C1751 C1752 1.399 . S
C1751 C1756 1.399 . S
C1752 C1751 1.399 . S
C1752 C1753 1.376 . S
C1753 H1740 0.930 . S
C1753 C1752 1.376 . S
C1753 C1754 1.388 . S
C1754 H1741 0.930 . S
C1754 C1753 1.388 . S
C1754 C1755 1.390 . S
C1755 C1754 1.390 . S
C1755 C1756 1.394 . S
C1755 C1761 1.465 1_565 S
C1756 C1751 1.399 . S
C1756 C1755 1.394 . S
C1756 C1757 1.516 1_565 S
C1757 C1756 1.516 1_545 S
C1757 C1758 1.502 . S
C1757 C1759 1.561 . S
C1757 C1760 1.526 . S
C1758 H1742 0.959 1_545 S
C1758 H1743 0.959 . S
C1758 H1744 0.961 . S
C1758 C1757 1.502 . S
C1759 H1745 0.960 . S
C1759 H1746 0.961 . S
C1759 H1747 0.959 . S
C1759 C1757 1.561 . S
C1760 C1757 1.526 . S
C1760 C1761 1.396 . S
C1760 C1765 1.390 . S
C1761 C1755 1.465 1_545 S
C1761 C1760 1.396 . S
C1761 C1762 1.399 . S
C1762 H1748 0.929 1_545 S
C1762 C1761 1.399 . S
C1762 C1763 1.385 . S
C1763 H1749 0.931 . S
C1763 C1762 1.385 . S
C1763 C1764 1.389 . S
C1764 C1763 1.389 . S
C1764 C1765 1.387 . S
C1765 H1750 0.930 . S
C1765 C1760 1.390 . S
C1765 C1764 1.387 . S
H1766 C1778 0.930 . S
H1767 C1780 0.930 . S
H1768 C1781 0.930 . S
H1769 C1785 0.959 . S
H1770 C1785 0.959 . S
H1771 C1785 0.961 . S
H1772 C1786 0.960 . S
H1773 C1786 0.961 . S
H1774 C1786 0.959 . S
H1775 C1789 0.929 . S
H1776 C1790 0.931 . S
H1777 C1792 0.930 . S
C1778 H1766 0.930 . S
C1778 C1779 1.399 . S
C1778 C1783 1.399 . S
C1779 C1778 1.399 . S
C1779 C1780 1.376 . S
C1780 H1767 0.930 . S
C1780 C1779 1.376 . S
C1780 C1781 1.388 . S
C1781 H1768 0.930 . S
C1781 C1780 1.388 . S
C1781 C1782 1.390 . S
C1782 C1781 1.390 . S
C1782 C1783 1.394 . S
C1782 C1788 1.465 . S
C1783 C1778 1.399 . S
C1783 C1782 1.394 . S
C1783 C1784 1.516 . S
C1784 C1783 1.516 . S
C1784 C1785 1.502 . S
C1784 C1786 1.561 . S
C1784 C1787 1.526 . S
C1785 H1769 0.959 . S
C1785 H1770 0.959 . S
C1785 H1771 0.961 . S
C1785 C1784 1.502 . S
C1786 H1772 0.960 . S
C1786 H1773 0.961 . S
C1786 H1774 0.959 . S
C1786 C1784 1.561 . S
C1787 C1784 1.526 . S
C1787 C1788 1.396 . S
C1787 C1792 1.390 . S
C1788 C1782 1.465 . S
C1788 C1787 1.396 . S
C1788 C1789 1.399 . S
C1789 H1775 0.929 . S
C1789 C1788 1.399 . S
C1789 C1790 1.385 . S
C1790 H1776 0.931 . S
C1790 C1789 1.385 . S
C1790 C1791 1.389 . S
C1791 C1790 1.389 . S
C1791 C1792 1.387 . S
C1792 H1777 0.930 . S
C1792 C1787 1.390 . S
C1792 C1791 1.387 . S
H1793 C1805 0.930 . S
H1794 C1807 0.930 . S
H1795 C1808 0.918 1_565 S
H1796 C1812 0.959 . S
H1797 C1812 0.959 . S
H1798 C1812 0.961 . S
H1799 C1813 0.960 . S
H1800 C1813 0.961 . S
H1801 C1813 0.959 . S
H1802 C1816 0.929 . S
H1803 C1817 0.931 . S
H1804 C1819 0.930 . S
C1805 H1793 0.930 . S
C1805 C1806 1.399 . S
C1805 C1810 1.399 1_556 S
C1806 C1805 1.399 . S
C1806 C1807 1.376 . S
C1807 H1794 0.930 . S
C1807 C1806 1.376 . S
C1807 C1808 1.399 . S
C1808 H1795 0.918 1_545 S
C1808 C1807 1.399 . S
C1808 C1809 1.391 1_556 S
C1809 C1808 1.391 1_554 S
C1809 C1810 1.394 . S
C1809 C1815 1.465 1_545 S
C1810 C1805 1.399 1_554 S
C1810 C1809 1.394 . S
C1810 C1811 1.516 . S
C1811 C1810 1.516 . S
C1811 C1812 1.502 . S
C1811 C1813 1.561 . S
C1811 C1814 1.526 1_545 S
C1812 H1796 0.959 . S
C1812 H1797 0.959 . S
C1812 H1798 0.961 . S
C1812 C1811 1.502 . S
C1813 H1799 0.960 . S
C1813 H1800 0.961 . S
C1813 H1801 0.959 . S
C1813 C1811 1.561 . S
C1814 C1811 1.526 1_565 S
C1814 C1815 1.396 . S
C1814 C1819 1.390 . S
C1815 C1809 1.465 1_565 S
C1815 C1814 1.396 . S
C1815 C1816 1.399 . S
C1816 H1802 0.929 . S
C1816 C1815 1.399 . S
C1816 C1817 1.385 . S
C1817 H1803 0.931 . S
C1817 C1816 1.385 . S
C1817 C1818 1.389 . S
C1818 C1817 1.389 . S
C1818 C1819 1.387 . S
C1819 H1804 0.930 . S
C1819 C1814 1.390 . S
C1819 C1818 1.387 . S
H1820 C1832 0.930 . S
H1821 C1834 0.930 . S
H1822 C1835 0.930 . S
H1823 C1839 0.959 . S
H1824 C1839 0.959 . S
H1825 C1839 0.961 . S
H1826 C1840 0.960 . S
H1827 C1840 0.961 . S
H1828 C1840 0.959 . S
H1829 C1843 0.929 . S
H1830 C1844 0.931 . S
H1831 C1846 0.930 . S
C1832 H1820 0.930 . S
C1832 C1833 1.399 . S
C1832 C1837 1.399 . S
C1833 C1832 1.399 . S
C1833 C1834 1.376 . S
C1834 H1821 0.930 . S
C1834 C1833 1.376 . S
C1834 C1835 1.388 . S
C1835 H1822 0.930 . S
C1835 C1834 1.388 . S
C1835 C1836 1.390 . S
C1836 C1835 1.390 . S
C1836 C1837 1.394 . S
C1836 C1842 1.465 . S
C1837 C1832 1.399 . S
C1837 C1836 1.394 . S
C1837 C1838 1.516 . S
C1838 C1837 1.516 . S
C1838 C1839 1.502 . S
C1838 C1840 1.561 . S
C1838 C1841 1.526 . S
C1839 H1823 0.959 . S
C1839 H1824 0.959 . S
C1839 H1825 0.961 . S
C1839 C1838 1.502 . S
C1840 H1826 0.960 . S
C1840 H1827 0.961 . S
C1840 H1828 0.959 . S
C1840 C1838 1.561 . S
C1841 C1838 1.526 . S
C1841 C1842 1.396 . S
C1841 C1846 1.390 . S
C1842 C1836 1.465 . S
C1842 C1841 1.396 . S
C1842 C1843 1.399 . S
C1843 H1829 0.929 . S
C1843 C1842 1.399 . S
C1843 C1844 1.385 . S
C1844 H1830 0.931 . S
C1844 C1843 1.385 . S
C1844 C1845 1.389 . S
C1845 C1844 1.389 . S
C1845 C1846 1.387 . S
C1846 H1831 0.930 . S
C1846 C1841 1.390 . S
C1846 C1845 1.387 . S
H1847 C1859 0.930 . S
H1848 C1861 0.930 . S
H1849 C1862 0.930 . S
H1850 C1866 0.959 . S
H1851 C1866 0.959 . S
H1852 C1866 0.961 . S
H1853 C1867 0.960 . S
H1854 C1867 0.961 . S
H1855 C1867 0.959 . S
H1856 C1870 0.929 . S
H1857 C1871 0.931 . S
H1858 C1873 0.930 . S
C1859 H1847 0.930 . S
C1859 C1860 1.399 . S
C1859 C1864 1.399 . S
C1860 C1859 1.399 . S
C1860 C1861 1.376 . S
C1861 H1848 0.930 . S
C1861 C1860 1.376 . S
C1861 C1862 1.388 . S
C1862 H1849 0.930 . S
C1862 C1861 1.388 . S
C1862 C1863 1.390 . S
C1863 C1862 1.390 . S
C1863 C1864 1.394 . S
C1863 C1869 1.465 . S
C1864 C1859 1.399 . S
C1864 C1863 1.394 . S
C1864 C1865 1.516 1_545 S
C1865 C1864 1.516 1_565 S
C1865 C1866 1.502 . S
C1865 C1867 1.561 . S
C1865 C1868 1.526 . S
C1866 H1850 0.959 . S
C1866 H1851 0.959 . S
C1866 H1852 0.961 . S
C1866 C1865 1.502 . S
C1867 H1853 0.960 . S
C1867 H1854 0.961 . S
C1867 H1855 0.959 . S
C1867 C1865 1.561 . S
C1868 C1865 1.526 . S
C1868 C1869 1.396 1_565 S
C1868 C1873 1.390 . S
C1869 C1863 1.465 . S
C1869 C1868 1.396 1_545 S
C1869 C1870 1.399 . S
C1870 H1856 0.929 . S
C1870 C1869 1.399 . S
C1870 C1871 1.385 1_545 S
C1871 H1857 0.931 . S
C1871 C1870 1.385 1_565 S
C1871 C1872 1.389 . S
C1872 C1871 1.389 . S
C1872 C1873 1.387 . S
C1873 H1858 0.930 . S
C1873 C1868 1.390 . S
C1873 C1872 1.387 . S
H1874 C1886 0.930 . S
H1875 C1888 0.930 . S
H1876 C1889 0.930 . S
H1877 C1893 0.959 . S
H1878 C1893 0.959 . S
H1879 C1893 0.961 . S
H1880 C1894 0.960 . S
H1881 C1894 0.961 . S
H1882 C1894 0.959 . S
H1883 C1897 0.929 . S
H1884 C1898 0.931 . S
H1885 C1900 0.930 . S
C1886 H1874 0.930 . S
C1886 C1887 1.399 . S
C1886 C1891 1.399 . S
C1887 C1886 1.399 . S
C1887 C1888 1.376 . S
C1888 H1875 0.930 . S
C1888 C1887 1.376 . S
C1888 C1889 1.388 . S
C1889 H1876 0.930 . S
C1889 C1888 1.388 . S
C1889 C1890 1.390 . S
C1890 C1889 1.390 . S
C1890 C1891 1.394 . S
C1890 C1896 1.465 . S
C1891 C1886 1.399 . S
C1891 C1890 1.394 . S
C1891 C1892 1.516 . S
C1892 C1891 1.516 . S
C1892 C1893 1.502 . S
C1892 C1894 1.561 . S
C1892 C1895 1.526 . S
C1893 H1877 0.959 . S
C1893 H1878 0.959 . S
C1893 H1879 0.961 . S
C1893 C1892 1.502 . S
C1894 H1880 0.960 . S
C1894 H1881 0.961 . S
C1894 H1882 0.959 . S
C1894 C1892 1.561 . S
C1895 C1892 1.526 . S
C1895 C1896 1.396 . S
C1895 C1900 1.390 . S
C1896 C1890 1.465 . S
C1896 C1895 1.396 . S
C1896 C1897 1.399 . S
C1897 H1883 0.929 . S
C1897 C1896 1.399 . S
C1897 C1898 1.385 . S
C1898 H1884 0.931 . S
C1898 C1897 1.385 . S
C1898 C1899 1.389 . S
C1899 C1898 1.389 . S
C1899 C1900 1.387 . S
C1900 H1885 0.930 . S
C1900 C1895 1.390 . S
C1900 C1899 1.387 . S
H1901 C1913 0.930 . S
H1902 C1915 0.930 . S
H1903 C1916 0.930 . S
H1904 C1920 0.954 1_554 S
H1905 C1920 0.959 . S
H1906 C1920 0.967 . S
H1907 C1921 0.960 . S
H1908 C1921 0.961 . S
H1909 C1921 0.959 . S
H1910 C1924 0.929 . S
H1911 C1925 0.931 . S
H1912 C1927 0.930 . S
C1913 H1901 0.930 . S
C1913 C1914 1.399 . S
C1913 C1918 1.399 . S
C1914 C1913 1.399 . S
C1914 C1915 1.376 . S
C1915 H1902 0.930 . S
C1915 C1914 1.376 . S
C1915 C1916 1.388 1_565 S
C1916 H1903 0.930 . S
C1916 C1915 1.388 1_545 S
C1916 C1917 1.400 . S
C1917 C1916 1.400 . S
C1917 C1918 1.343 1_545 S
C1917 C1923 1.502 . S
C1918 C1913 1.399 . S
C1918 C1917 1.343 1_565 S
C1918 C1919 1.525 . S
C1919 C1918 1.525 . S
C1919 C1920 1.499 1_554 S
C1919 C1921 1.557 1_554 S
C1919 C1922 1.524 1_564 S
C1920 H1904 0.954 1_556 S
C1920 H1905 0.959 . S
C1920 H1906 0.967 . S
C1920 C1919 1.499 1_556 S
C1921 H1907 0.960 . S
C1921 H1908 0.961 . S
C1921 H1909 0.959 . S
C1921 C1919 1.557 1_556 S
C1922 C1919 1.524 1_546 S
C1922 C1923 1.396 1_556 S
C1922 C1927 1.390 . S
C1923 C1917 1.502 . S
C1923 C1922 1.396 1_554 S
C1923 C1924 1.399 . S
C1924 H1910 0.929 . S
C1924 C1923 1.399 . S
C1924 C1925 1.385 1_554 S
C1925 H1911 0.931 . S
C1925 C1924 1.385 1_556 S
C1925 C1926 1.389 . S
C1926 C1925 1.389 . S
C1926 C1927 1.387 . S
C1927 H1912 0.930 . S
C1927 C1922 1.390 . S
C1927 C1926 1.387 . S
H1928 C1940 0.930 . S
H1929 C1942 0.930 . S
H1930 C1943 0.930 . S
H1931 C1947 0.959 . S
H1932 C1947 0.959 . S
H1933 C1947 0.961 . S
H1934 C1948 0.960 . S
H1935 C1948 0.961 . S
H1936 C1948 0.959 . S
H1937 C1951 0.929 . S
H1938 C1952 0.931 . S
H1939 C1954 0.930 . S
C1940 H1928 0.930 . S
C1940 C1941 1.399 . S
C1940 C1945 1.399 . S
C1941 C1940 1.399 . S
C1941 C1942 1.376 . S
C1942 H1929 0.930 . S
C1942 C1941 1.376 . S
C1942 C1943 1.388 . S
C1943 H1930 0.930 . S
C1943 C1942 1.388 . S
C1943 C1944 1.390 . S
C1944 C1943 1.390 . S
C1944 C1945 1.394 . S
C1944 C1950 1.465 . S
C1945 C1940 1.399 . S
C1945 C1944 1.394 . S
C1945 C1946 1.516 . S
C1946 C1945 1.516 . S
C1946 C1947 1.502 . S
C1946 C1948 1.561 . S
C1946 C1949 1.526 . S
C1947 H1931 0.959 . S
C1947 H1932 0.959 . S
C1947 H1933 0.961 . S
C1947 C1946 1.502 . S
C1948 H1934 0.960 . S
C1948 H1935 0.961 . S
C1948 H1936 0.959 . S
C1948 C1946 1.561 . S
C1949 C1946 1.526 . S
C1949 C1950 1.396 . S
C1949 C1954 1.390 . S
C1950 C1944 1.465 . S
C1950 C1949 1.396 . S
C1950 C1951 1.399 . S
C1951 H1937 0.929 . S
C1951 C1950 1.399 . S
C1951 C1952 1.385 . S
C1952 H1938 0.931 . S
C1952 C1951 1.385 . S
C1952 C1953 1.389 . S
C1953 C1952 1.389 . S
C1953 C1954 1.387 . S
C1954 H1939 0.930 . S
C1954 C1949 1.390 . S
C1954 C1953 1.387 . S
H1955 C1967 0.930 . S
H1956 C1969 0.930 . S
H1957 C1970 0.930 . S
H1958 C1974 0.959 . S
H1959 C1974 0.959 1_556 S
H1960 C1974 0.961 . S
H1961 C1975 0.960 . S
H1962 C1975 0.961 . S
H1963 C1975 0.959 . S
H1964 C1978 0.929 . S
H1965 C1979 0.931 . S
H1966 C1981 0.930 . S
C1967 H1955 0.930 . S
C1967 C1968 1.399 . S
C1967 C1972 1.399 . S
C1968 C1967 1.399 . S
C1968 C1969 1.376 . S
C1969 H1956 0.930 . S
C1969 C1968 1.376 . S
C1969 C1970 1.388 . S
C1970 H1957 0.930 . S
C1970 C1969 1.388 . S
C1970 C1971 1.390 . S
C1971 C1970 1.390 . S
C1971 C1972 1.394 . S
C1971 C1977 1.465 . S
C1972 C1967 1.399 . S
C1972 C1971 1.394 . S
C1972 C1973 1.516 . S
C1973 C1972 1.516 . S
C1973 C1974 1.502 . S
C1973 C1975 1.561 1_554 S
C1973 C1976 1.526 1_554 S
C1974 H1958 0.959 . S
C1974 H1959 0.959 1_554 S
C1974 H1960 0.961 . S
C1974 C1973 1.502 . S
C1975 H1961 0.960 . S
C1975 H1962 0.961 . S
C1975 H1963 0.959 . S
C1975 C1973 1.561 1_556 S
C1976 C1973 1.526 1_556 S
C1976 C1977 1.396 1_556 S
C1976 C1981 1.390 . S
C1977 C1971 1.465 . S
C1977 C1976 1.396 1_554 S
C1977 C1978 1.399 . S
C1978 H1964 0.929 . S
C1978 C1977 1.399 . S
C1978 C1979 1.385 1_554 S
C1979 H1965 0.931 . S
C1979 C1978 1.385 1_556 S
C1979 C1980 1.389 . S
C1980 C1979 1.389 . S
C1980 C1981 1.387 . S
C1981 H1966 0.930 . S
C1981 C1976 1.390 . S
C1981 C1980 1.387 . S
H1982 C1994 0.930 . S
H1983 C1996 0.930 . S
H1984 C1997 0.930 . S
H1985 C2001 0.959 . S
H1986 C2001 0.959 . S
H1987 C2001 0.961 . S
H1988 C2002 0.960 . S
H1989 C2002 0.961 . S
H1990 C2002 0.959 . S
H1991 C2005 0.929 . S
H1992 C2006 0.931 . S
H1993 C2008 0.930 . S
C1994 H1982 0.930 . S
C1994 C1995 1.399 . S
C1994 C1999 1.399 . S
C1995 C1994 1.399 . S
C1995 C1996 1.376 . S
C1996 H1983 0.930 . S
C1996 C1995 1.376 . S
C1996 C1997 1.388 . S
C1997 H1984 0.930 . S
C1997 C1996 1.388 . S
C1997 C1998 1.390 . S
C1998 C1997 1.390 . S
C1998 C1999 1.394 . S
C1998 C2004 1.465 . S
C1999 C1994 1.399 . S
C1999 C1998 1.394 . S
C1999 C2000 1.516 . S
C2000 C1999 1.516 . S
C2000 C2001 1.502 . S
C2000 C2002 1.561 . S
C2000 C2003 1.526 . S
C2001 H1985 0.959 . S
C2001 H1986 0.959 . S
C2001 H1987 0.961 . S
C2001 C2000 1.502 . S
C2002 H1988 0.960 . S
C2002 H1989 0.961 . S
C2002 H1990 0.959 . S
C2002 C2000 1.561 . S
C2003 C2000 1.526 . S
C2003 C2004 1.396 . S
C2003 C2008 1.390 . S
C2004 C1998 1.465 . S
C2004 C2003 1.396 . S
C2004 C2005 1.399 . S
C2005 H1991 0.929 . S
C2005 C2004 1.399 . S
C2005 C2006 1.385 . S
C2006 H1992 0.931 . S
C2006 C2005 1.385 . S
C2006 C2007 1.389 . S
C2007 C2006 1.389 . S
C2007 C2008 1.387 . S
C2008 H1993 0.930 . S
C2008 C2003 1.390 . S
C2008 C2007 1.387 . S
H2009 C2021 0.930 . S
H2010 C2023 0.930 . S
H2011 C2024 0.930 . S
H2012 C2028 0.959 . S
H2013 C2028 0.959 . S
H2014 C2028 0.961 . S
H2015 C2029 0.960 . S
H2016 C2029 0.961 . S
H2017 C2029 0.959 . S
H2018 C2032 0.929 . S
H2019 C2033 0.931 . S
H2020 C2035 0.930 . S
C2021 H2009 0.930 . S
C2021 C2022 1.399 . S
C2021 C2026 1.399 . S
C2022 C2021 1.399 . S
C2022 C2023 1.376 . S
C2023 H2010 0.930 . S
C2023 C2022 1.376 . S
C2023 C2024 1.388 . S
C2024 H2011 0.930 . S
C2024 C2023 1.388 . S
C2024 C2025 1.390 . S
C2025 C2024 1.390 . S
C2025 C2026 1.394 . S
C2025 C2031 1.465 . S
C2026 C2021 1.399 . S
C2026 C2025 1.394 . S
C2026 C2027 1.516 . S
C2027 C2026 1.516 . S
C2027 C2028 1.502 . S
C2027 C2029 1.561 . S
C2027 C2030 1.526 . S
C2028 H2012 0.959 . S
C2028 H2013 0.959 . S
C2028 H2014 0.961 . S
C2028 C2027 1.502 . S
C2029 H2015 0.960 . S
C2029 H2016 0.961 . S
C2029 H2017 0.959 . S
C2029 C2027 1.561 . S
C2030 C2027 1.526 . S
C2030 C2031 1.396 . S
C2030 C2035 1.390 . S
C2031 C2025 1.465 . S
C2031 C2030 1.396 . S
C2031 C2032 1.399 . S
C2032 H2018 0.929 . S
C2032 C2031 1.399 . S
C2032 C2033 1.385 . S
C2033 H2019 0.931 . S
C2033 C2032 1.385 . S
C2033 C2034 1.389 . S
C2034 C2033 1.389 . S
C2034 C2035 1.387 . S
C2035 H2020 0.930 . S
C2035 C2030 1.390 . S
C2035 C2034 1.387 . S
H2036 C2048 0.930 . S
H2037 C2050 0.930 . S
H2038 C2051 0.930 . S
H2039 C2055 0.959 . S
H2040 C2055 0.959 . S
H2041 C2055 0.961 . S
H2042 C2056 0.960 . S
H2043 C2056 0.961 . S
H2044 C2056 0.959 . S
H2045 C2059 0.929 . S
H2046 C2060 0.931 . S
H2047 C2062 0.930 . S
C2048 H2036 0.930 . S
C2048 C2049 1.399 . S
C2048 C2053 1.399 . S
C2049 C2048 1.399 . S
C2049 C2050 1.376 . S
C2050 H2037 0.930 . S
C2050 C2049 1.376 . S
C2050 C2051 1.388 . S
C2051 H2038 0.930 . S
C2051 C2050 1.388 . S
C2051 C2052 1.390 . S
C2052 C2051 1.390 . S
C2052 C2053 1.394 . S
C2052 C2058 1.465 . S
C2053 C2048 1.399 . S
C2053 C2052 1.394 . S
C2053 C2054 1.516 . S
C2054 C2053 1.516 . S
C2054 C2055 1.502 . S
C2054 C2056 1.561 . S
C2054 C2057 1.526 . S
C2055 H2039 0.959 . S
C2055 H2040 0.959 . S
C2055 H2041 0.961 . S
C2055 C2054 1.502 . S
C2056 H2042 0.960 . S
C2056 H2043 0.961 . S
C2056 H2044 0.959 . S
C2056 C2054 1.561 . S
C2057 C2054 1.526 . S
C2057 C2058 1.396 . S
C2057 C2062 1.390 . S
C2058 C2052 1.465 . S
C2058 C2057 1.396 . S
C2058 C2059 1.399 . S
C2059 H2045 0.929 . S
C2059 C2058 1.399 . S
C2059 C2060 1.385 . S
C2060 H2046 0.931 . S
C2060 C2059 1.385 . S
C2060 C2061 1.389 . S
C2061 C2060 1.389 . S
C2061 C2062 1.387 . S
C2062 H2047 0.930 . S
C2062 C2057 1.390 . S
C2062 C2061 1.387 . S
H2063 C2075 0.930 . S
H2064 C2077 0.930 . S
H2065 C2078 0.930 . S
H2066 C2082 0.959 . S
H2067 C2082 0.959 . S
H2068 C2082 0.961 . S
H2069 C2083 0.960 . S
H2070 C2083 0.961 . S
H2071 C2083 0.959 . S
H2072 C2086 0.929 . S
H2073 C2087 0.931 . S
H2074 C2089 0.930 . S
C2075 H2063 0.930 . S
C2075 C2076 1.399 . S
C2075 C2080 1.399 1_556 S
C2076 C2075 1.399 . S
C2076 C2077 1.376 . S
C2077 H2064 0.930 . S
C2077 C2076 1.376 . S
C2077 C2078 1.388 . S
C2078 H2065 0.930 . S
C2078 C2077 1.388 . S
C2078 C2079 1.390 1_556 S
C2079 C2078 1.390 1_554 S
C2079 C2080 1.394 . S
C2079 C2085 1.465 . S
C2080 C2075 1.399 1_554 S
C2080 C2079 1.394 . S
C2080 C2081 1.516 . S
C2081 C2080 1.516 . S
C2081 C2082 1.502 . S
C2081 C2083 1.561 . S
C2081 C2084 1.526 . S
C2082 H2066 0.959 . S
C2082 H2067 0.959 . S
C2082 H2068 0.961 . S
C2082 C2081 1.502 . S
C2083 H2069 0.960 . S
C2083 H2070 0.961 . S
C2083 H2071 0.959 . S
C2083 C2081 1.561 . S
C2084 C2081 1.526 . S
C2084 C2085 1.396 . S
C2084 C2089 1.390 . S
C2085 C2079 1.465 . S
C2085 C2084 1.396 . S
C2085 C2086 1.399 . S
C2086 H2072 0.929 . S
C2086 C2085 1.399 . S
C2086 C2087 1.385 . S
C2087 H2073 0.931 . S
C2087 C2086 1.385 . S
C2087 C2088 1.389 . S
C2088 C2087 1.389 . S
C2088 C2089 1.387 . S
C2089 H2074 0.930 . S
C2089 C2084 1.390 . S
C2089 C2088 1.387 . S
H2090 C2102 0.930 . S
H2091 C2104 0.930 . S
H2092 C2105 0.930 . S
H2093 C2109 0.959 . S
H2094 C2109 0.959 . S
H2095 C2109 0.961 . S
H2096 C2110 0.960 . S
H2097 C2110 0.961 . S
H2098 C2110 0.959 . S
H2099 C2113 0.929 . S
H2100 C2114 0.931 . S
H2101 C2116 0.930 . S
C2102 H2090 0.930 . S
C2102 C2103 1.399 . S
C2102 C2107 1.399 . S
C2103 C2102 1.399 . S
C2103 C2104 1.376 . S
C2104 H2091 0.930 . S
C2104 C2103 1.376 . S
C2104 C2105 1.388 . S
C2105 H2092 0.930 . S
C2105 C2104 1.388 . S
C2105 C2106 1.390 . S
C2106 C2105 1.390 . S
C2106 C2107 1.394 . S
C2106 C2112 1.465 . S
C2107 C2102 1.399 . S
C2107 C2106 1.394 . S
C2107 C2108 1.516 . S
C2108 C2107 1.516 . S
C2108 C2109 1.502 . S
C2108 C2110 1.561 . S
C2108 C2111 1.526 . S
C2109 H2093 0.959 . S
C2109 H2094 0.959 . S
C2109 H2095 0.961 . S
C2109 C2108 1.502 . S
C2110 H2096 0.960 . S
C2110 H2097 0.961 . S
C2110 H2098 0.959 . S
C2110 C2108 1.561 . S
C2111 C2108 1.526 . S
C2111 C2112 1.396 . S
C2111 C2116 1.390 . S
C2112 C2106 1.465 . S
C2112 C2111 1.396 . S
C2112 C2113 1.399 . S
C2113 H2099 0.929 . S
C2113 C2112 1.399 . S
C2113 C2114 1.385 . S
C2114 H2100 0.931 . S
C2114 C2113 1.385 . S
C2114 C2115 1.389 . S
C2115 C2114 1.389 . S
C2115 C2116 1.387 . S
C2116 H2101 0.930 . S
C2116 C2111 1.390 . S
C2116 C2115 1.387 . S
H2117 C2129 0.930 . S
H2118 C2131 0.930 . S
H2119 C2132 0.930 . S
H2120 C2136 0.959 . S
H2121 C2136 0.959 . S
H2122 C2136 0.961 . S
H2123 C2137 0.960 . S
H2124 C2137 0.961 . S
H2125 C2137 0.959 . S
H2126 C2140 0.929 . S
H2127 C2141 0.931 . S
H2128 C2143 0.930 . S
C2129 H2117 0.930 . S
C2129 C2130 1.399 . S
C2129 C2134 1.399 . S
C2130 C2129 1.399 . S
C2130 C2131 1.376 . S
C2131 H2118 0.930 . S
C2131 C2130 1.376 . S
C2131 C2132 1.388 . S
C2132 H2119 0.930 . S
C2132 C2131 1.388 . S
C2132 C2133 1.390 . S
C2133 C2132 1.390 . S
C2133 C2134 1.394 . S
C2133 C2139 1.465 . S
C2134 C2129 1.399 . S
C2134 C2133 1.394 . S
C2134 C2135 1.516 . S
C2135 C2134 1.516 . S
C2135 C2136 1.502 . S
C2135 C2137 1.561 . S
C2135 C2138 1.526 . S
C2136 H2120 0.959 . S
C2136 H2121 0.959 . S
C2136 H2122 0.961 . S
C2136 C2135 1.502 . S
C2137 H2123 0.960 . S
C2137 H2124 0.961 . S
C2137 H2125 0.959 . S
C2137 C2135 1.561 . S
C2138 C2135 1.526 . S
C2138 C2139 1.396 . S
C2138 C2143 1.390 . S
C2139 C2133 1.465 . S
C2139 C2138 1.396 . S
C2139 C2140 1.399 . S
C2140 H2126 0.929 . S
C2140 C2139 1.399 . S
C2140 C2141 1.385 . S
C2141 H2127 0.931 . S
C2141 C2140 1.385 . S
C2141 C2142 1.389 . S
C2142 C2141 1.389 . S
C2142 C2143 1.387 . S
C2143 H2128 0.930 . S
C2143 C2138 1.390 . S
C2143 C2142 1.387 . S
C429 C91 1.314 . S
C441 C0 1.309 1_556 S
C456 C13 1.307 . S
C468 C52 1.301 . S
C483 C65 1.298 . S
C495 C26 1.292 . S
C510 C39 1.291 . S
C522 C78 1.297 . S
C537 C104 1.314 . S
C549 C195 1.310 . S
C564 C117 1.298 . S
C576 C156 1.303 1_556 S
C591 C130 1.311 . S
C603 C169 1.306 . S
C618 C143 1.295 . S
C630 C182 1.301 . S
C645 C208 1.294 . S
C657 C299 1.289 . S
C672 C221 1.289 . S
C684 C260 1.294 . S
C699 C273 1.312 . S
C711 C234 1.317 1_556 S
C726 C286 1.321 . S
C738 C247 1.318 . S
C753 C312 1.288 . S
C765 C403 1.293 . S
C780 C364 1.322 . S
C792 C325 1.320 . S
C807 C377 1.322 . S
C819 C338 1.321 . S
C834 C351 1.292 . S
C846 C390 1.297 1_556 S
C861 C8 0.954 . S
C873 C86 0.961 . S
C888 C21 0.981 . S
C900 C99 0.975 . S
C915 C60 0.897 . S
C927 C34 0.892 . S
C942 C47 0.884 . S
C954 C73 0.890 . S
C969 C112 0.898 . S
C981 C190 0.882 . S
C996 C125 0.881 . S
C1008 C203 0.878 . S
C1023 C164 0.921 . S
C1035 C138 0.897 . S
C1050 C177 0.900 . S
C1062 C151 0.925 . S
C1077 C216 0.888 . S
C1089 C294 0.885 . S
C1104 C307 0.964 . S
C1116 C229 0.956 . S
C1131 C268 0.891 . S
C1143 C242 0.887 . S
C1158 C255 0.968 . S
C1170 C281 0.974 . S
C1185 C320 0.943 . S
C1197 C398 0.916 . S
C1212 C333 0.957 . S
C1224 C411 0.930 . S
C1239 C372 0.877 . S
C1251 C346 0.890 . S
C1266 C385 0.893 . S
C1278 C359 0.918 . S
C1293 C5 1.355 . S
C1305 C395 1.342 . S
C1320 C18 1.315 . S
C1332 C200 1.328 . S
C1347 C31 1.317 . S
C1359 C369 1.329 . S
C1374 C44 1.369 . S
C1386 C174 1.358 . S
C1401 C57 1.297 . S
C1413 C343 1.304 . S
C1428 C70 1.311 . S
C1440 C148 1.303 . S
C1455 C83 1.300 . S
C1467 C317 1.308 . S
C1482 C122 1.296 . S
C1494 C96 1.298 . S
C1509 C291 1.380 . S
C1521 C109 1.376 . S
C1536 C135 1.300 . S
C1548 C265 1.308 . S
C1563 C239 1.355 . S
C1575 C161 1.342 . S
C1590 C213 1.327 . S
C1602 C187 1.340 . S
C1617 C226 1.360 . S
C1629 C408 1.348 . S
C1644 C252 1.370 . S
C1656 C382 1.376 . S
C1671 C278 1.357 . S
C1683 C356 1.367 . S
C1698 C330 1.301 . S
C1710 C304 1.310 . S
C1725 C10 1.538 . S
C1737 C88 1.572 . S
C1752 C23 1.560 . S
C1764 C101 1.546 . S
C1779 C62 1.538 . S
C1791 C36 1.572 . S
C1806 C49 1.560 . S
C1818 C75 1.594 . S
C1833 C114 1.552 . S
C1845 C192 1.589 . S
C1860 C127 1.595 . S
C1872 C205 1.536 . S
C1887 C166 1.555 . S
C1899 C140 1.586 . S
C1914 C153 1.539 . S
C1926 C179 1.587 . S
C1941 C296 1.536 . S
C1953 C218 1.586 . S
C1968 C309 1.575 . S
C1980 C231 1.586 . S
C1995 C270 1.561 . S
C2007 C244 1.545 . S
C2022 C283 1.556 . S
C2034 C257 1.596 . S
C2049 C400 1.570 . S
C2061 C322 1.574 . S
C2076 C413 1.544 . S
C2088 C335 1.581 . S
C2103 C348 1.582 . S
C2115 C374 1.544 . S
C2130 C387 1.542 . S
C2142 C361 1.582 . S
