# Generated by pormake.
# Topology zfu, (5)-cn, num edge types: 1
# Building blocks:
#     Node 0, Type 0, BuildingBlock: XOMCOT_clean_sbu_1, # of connection points: 5
#     Node 1, Type 0, BuildingBlock: XOMCOT_clean_sbu_1, # of connection points: 5
#     Node 2, Type 0, BuildingBlock: XOMCOT_clean_sbu_1, # of connection points: 5
#     Node 3, Type 0, BuildingBlock: XOMCOT_clean_sbu_1, # of connection points: 5
#     Node 4, Type 0, BuildingBlock: XOMCOT_clean_sbu_1, # of connection points: 5
#     Node 5, Type 0, BuildingBlock: XOMCOT_clean_sbu_1, # of connection points: 5
#     Node 6, Type 0, BuildingBlock: XOMCOT_clean_sbu_1, # of connection points: 5
#     Node 7, Type 0, BuildingBlock: XOMCOT_clean_sbu_1, # of connection points: 5
#     Edge 8, Type (0, 0), BuildingBlock: ZUJKAS_clean_linker_0, # of connection points: 2
#     Edge 9, Type (0, 0), BuildingBlock: ZUJKAS_clean_linker_0, # of connection points: 2
#     Edge 10, Type (0, 0), BuildingBlock: ZUJKAS_clean_linker_0, # of connection points: 2
#     Edge 11, Type (0, 0), BuildingBlock: ZUJKAS_clean_linker_0, # of connection points: 2
#     Edge 12, Type (0, 0), BuildingBlock: ZUJKAS_clean_linker_0, # of connection points: 2
#     Edge 13, Type (0, 0), BuildingBlock: ZUJKAS_clean_linker_0, # of connection points: 2
#     Edge 14, Type (0, 0), BuildingBlock: ZUJKAS_clean_linker_0, # of connection points: 2
#     Edge 15, Type (0, 0), BuildingBlock: ZUJKAS_clean_linker_0, # of connection points: 2
#     Edge 16, Type (0, 0), BuildingBlock: ZUJKAS_clean_linker_0, # of connection points: 2
#     Edge 17, Type (0, 0), BuildingBlock: ZUJKAS_clean_linker_0, # of connection points: 2
#     Edge 18, Type (0, 0), BuildingBlock: ZUJKAS_clean_linker_0, # of connection points: 2
#     Edge 19, Type (0, 0), BuildingBlock: ZUJKAS_clean_linker_0, # of connection points: 2
#     Edge 20, Type (0, 0), BuildingBlock: ZUJKAS_clean_linker_0, # of connection points: 2
#     Edge 21, Type (0, 0), BuildingBlock: ZUJKAS_clean_linker_0, # of connection points: 2
#     Edge 22, Type (0, 0), BuildingBlock: ZUJKAS_clean_linker_0, # of connection points: 2
#     Edge 23, Type (0, 0), BuildingBlock: ZUJKAS_clean_linker_0, # of connection points: 2
#     Edge 24, Type (0, 0), BuildingBlock: ZUJKAS_clean_linker_0, # of connection points: 2
#     Edge 25, Type (0, 0), BuildingBlock: ZUJKAS_clean_linker_0, # of connection points: 2
#     Edge 26, Type (0, 0), BuildingBlock: ZUJKAS_clean_linker_0, # of connection points: 2
#     Edge 27, Type (0, 0), BuildingBlock: ZUJKAS_clean_linker_0, # of connection points: 2
# Relax obj value: 0.122
# Max RMSD: 0.159
# Mean RMSD: 0.159
data_MOF--net-zfu--node1-XOMCOT_clean_sbu_1--edge1-ZUJKAS_clean_linker_0
_symmetry_space_group_name_H-M    P1
_symmetry_Int_Tables_number       1
_symmetry_cell_setting            triclinic
loop_
_symmetry_equiv_pos_as_xyz
'x, y, z'
_cell_length_a     50.172156
_cell_length_b     50.153988
_cell_length_c     33.657913
_cell_angle_alpha  89.990538
_cell_angle_beta   90.018851
_cell_angle_gamma 90.140227
loop_
_atom_site_label
_atom_site_type_symbol
_atom_site_fract_x
_atom_site_fract_y
_atom_site_fract_z
_atom_type_partial_charge
C0 C 0.44542 0.70138 0.98244 0.0
C1 C 0.45997 0.67836 0.98697 0.0
N2 N 0.4859 0.6842 0.98102 0.0
N3 N 0.46204 0.72165 0.97354 0.0
C4 C 0.48659 0.71058 0.97282 0.0
H5 H 0.42408 0.70334 0.98589 0.0
Co6 Co 0.45119 0.75678 0.96513 0.0
C7 C 0.50185 0.78496 0.9493 0.0
O8 O 0.49231 0.79413 0.91561 0.0
N9 N 0.43998 0.79237 0.95662 0.0
C10 C 0.43542 0.83624 0.96375 0.0
C11 C 0.44759 0.81372 0.97828 0.0
C12 C 0.423 0.80252 0.9292 0.0
N13 N 0.41988 0.8292 0.93278 0.0
O14 O 0.45432 0.75068 0.90924 0.0
H15 H 0.46132 0.813 0.00304 0.0
H16 H 0.41277 0.79064 0.90722 0.0
O17 O 0.48769 0.76928 0.97043 0.0
C18 C 0.43163 0.74117 0.89946 0.0
O19 O 0.41259 0.74063 0.92627 0.0
N20 N 0.44569 0.76043 0.01955 0.0
C21 C 0.42957 0.7479 0.09624 0.0
C22 C 0.45666 0.74732 0.08599 0.0
C23 C 0.46439 0.75382 0.0473 0.0
C24 C 0.41957 0.76302 0.02981 0.0
C25 C 0.41109 0.75715 0.06826 0.0
H26 H 0.48493 0.75092 0.03881 0.0
H27 H 0.40491 0.7674 0.00718 0.0
H28 H 0.50465 0.72156 0.96627 0.0
H29 H 0.45213 0.65898 0.99499 0.0
H30 H 0.43824 0.8563 0.97482 0.0
H31 H 0.47146 0.74021 0.10687 0.0
H32 H 0.38997 0.75749 0.0749 0.0
C33 C 0.82978 0.94889 0.22074 0.0
C34 C 0.85101 0.96606 0.22396 0.0
N35 N 0.84159 0.99112 0.22725 0.0
N36 N 0.80695 0.96289 0.22201 0.0
C37 C 0.81471 0.98863 0.22604 0.0
H38 H 0.83084 0.92743 0.21805 0.0
Co39 Co 0.77385 0.94618 0.21877 0.0
C40 C 0.73474 0.98532 0.24852 0.0
O41 O 0.72355 0.96568 0.26813 0.0
N42 N 0.7399 0.92778 0.21441 0.0
C43 C 0.70507 0.90105 0.22623 0.0
C44 C 0.72683 0.91346 0.24252 0.0
C45 C 0.725 0.92367 0.18114 0.0
N46 N 0.70403 0.90711 0.18737 0.0
O47 O 0.77527 0.95106 0.1625 0.0
H48 H 0.73226 0.91206 0.27346 0.0
H49 H 0.72993 0.93177 0.15232 0.0
O50 O 0.75543 0.98074 0.22727 0.0
C51 C 0.78426 0.92897 0.14926 0.0
O52 O 0.7865 0.90877 0.17387 0.0
N53 N 0.77647 0.93892 0.27296 0.0
C54 C 0.79889 0.92268 0.34476 0.0
C55 C 0.79096 0.94928 0.33922 0.0
C56 C 0.78007 0.95714 0.3027 0.0
C57 C 0.78366 0.913 0.27833 0.0
C58 C 0.79417 0.90432 0.31419 0.0
H59 H 0.77676 0.9781 0.29739 0.0
H60 H 0.78231 0.89917 0.25377 0.0
H61 H 0.80102 1.00518 0.22788 0.0
H62 H 0.87179 0.96036 0.22474 0.0
H63 H 0.69117 0.88839 0.24202 0.0
H64 H 0.79487 0.96421 0.36173 0.0
H65 H 0.79971 0.88356 0.31721 0.0
C66 C 0.58497 0.33194 0.49272 0.0
C67 C 0.56926 0.35422 0.49706 0.0
N68 N 0.54378 0.34739 0.4892 0.0
N69 N 0.56953 0.31112 0.48216 0.0
C70 C 0.54455 0.32113 0.48012 0.0
H71 H 0.60627 0.33087 0.49733 0.0
Co72 Co 0.58176 0.27652 0.47299 0.0
C73 C 0.53185 0.24682 0.45961 0.0
O74 O 0.54097 0.23848 0.42521 0.0
N75 N 0.59415 0.24136 0.46377 0.0
C76 C 0.60023 0.19772 0.47124 0.0
C77 C 0.58773 0.21992 0.48607 0.0
C78 C 0.61078 0.23157 0.43557 0.0
N79 N 0.61482 0.205 0.4394 0.0
O80 O 0.57672 0.28235 0.41734 0.0
H81 H 0.57458 0.22036 0.51153 0.0
H82 H 0.62006 0.24364 0.41288 0.0
O83 O 0.54597 0.26256 0.48072 0.0
C84 C 0.59875 0.29273 0.40633 0.0
O85 O 0.6183 0.29441 0.43224 0.0
N86 N 0.58932 0.27317 0.52692 0.0
C87 C 0.60829 0.28366 0.6031 0.0
C88 C 0.58076 0.28345 0.59528 0.0
C89 C 0.57161 0.27815 0.55677 0.0
C90 C 0.61592 0.27173 0.53447 0.0
C91 C 0.62583 0.27667 0.5724 0.0
H92 H 0.55061 0.2802 0.55037 0.0
H93 H 0.62973 0.26871 0.51021 0.0
H94 H 0.52726 0.30949 0.47176 0.0
H95 H 0.57605 0.37379 0.50611 0.0
H96 H 0.59827 0.17766 0.48273 0.0
H97 H 0.56655 0.28871 0.61817 0.0
H98 H 0.64722 0.27708 0.57674 0.0
C99 C 0.19839 0.07935 0.71235 0.0
C100 C 0.17776 0.06178 0.7184 0.0
N101 N 0.1881 0.03779 0.72757 0.0
N102 N 0.22173 0.06662 0.71766 0.0
C103 C 0.21486 0.0412 0.72672 0.0
H104 H 0.19655 0.1003 0.70533 0.0
Co105 Co 0.25417 0.08467 0.71554 0.0
C106 C 0.29541 0.04663 0.74192 0.0
O107 O 0.30686 0.06651 0.76063 0.0
N108 N 0.28732 0.10443 0.71262 0.0
C109 C 0.32068 0.13262 0.72588 0.0
C110 C 0.29872 0.11991 0.74096 0.0
C111 C 0.30335 0.10819 0.68048 0.0
N112 N 0.3235 0.12562 0.68756 0.0
O113 O 0.25315 0.08117 0.65895 0.0
H114 H 0.29209 0.12184 0.77128 0.0
H115 H 0.29981 0.0991 0.65186 0.0
O116 O 0.27384 0.05069 0.72241 0.0
C117 C 0.24471 0.10359 0.64617 0.0
O118 O 0.24273 0.12351 0.67135 0.0
N119 N 0.25113 0.09049 0.76996 0.0
C120 C 0.22923 0.10443 0.84306 0.0
C121 C 0.23974 0.0788 0.83704 0.0
C122 C 0.2503 0.07202 0.79982 0.0
C123 C 0.24127 0.11545 0.77571 0.0
C124 C 0.23089 0.12304 0.81215 0.0
H125 H 0.25581 0.05156 0.79439 0.0
H126 H 0.24066 0.12933 0.75116 0.0
H127 H 0.22905 0.02579 0.73413 0.0
H128 H 0.15673 0.06636 0.7164 0.0
H129 H 0.33355 0.14606 0.74219 0.0
H130 H 0.23825 0.06369 0.85992 0.0
H131 H 0.22329 0.1431 0.81554 0.0
C132 C 0.94933 0.83085 0.81181 0.0
C133 C 0.9672 0.85154 0.80938 0.0
N134 N 0.99172 0.84139 0.80317 0.0
N135 N 0.96232 0.80763 0.80718 0.0
C136 C 0.98817 0.81461 0.80186 0.0
H137 H 0.92806 0.83258 0.81623 0.0
Co138 Co 0.94433 0.77515 0.8078 0.0
C139 C 0.98228 0.73469 0.7787 0.0
O140 O 0.96247 0.72421 0.7586 0.0
N141 N 0.92464 0.74189 0.80926 0.0
C142 C 0.89661 0.70868 0.79449 0.0
C143 C 0.90929 0.73094 0.78038 0.0
C144 C 0.92085 0.72525 0.84073 0.0
N145 N 0.90351 0.70519 0.83273 0.0
O146 O 0.94799 0.77498 0.86439 0.0
H147 H 0.90745 0.73809 0.75029 0.0
H148 H 0.92986 0.72827 0.86955 0.0
O149 O 0.97826 0.75558 0.79982 0.0
C150 C 0.92564 0.78336 0.87752 0.0
O151 O 0.9057 0.78579 0.85247 0.0
N152 N 0.93827 0.77943 0.75358 0.0
C153 C 0.92383 0.80353 0.68223 0.0
C154 C 0.94961 0.79318 0.68733 0.0
C155 C 0.95665 0.78153 0.72376 0.0
C156 C 0.91316 0.78909 0.74862 0.0
C157 C 0.90535 0.80059 0.71305 0.0
H158 H 0.97721 0.77621 0.7288 0.0
H159 H 0.89934 0.78875 0.77326 0.0
H160 H 1.00403 0.80041 0.7972 0.0
H161 H 0.9623 0.8725 0.81113 0.0
H162 H 0.88328 0.69604 0.7776 0.0
H163 H 0.9646 0.79563 0.66446 0.0
H164 H 0.88521 0.80812 0.71032 0.0
C165 C 0.69803 0.4405 0.03328 0.0
C166 C 0.67547 0.45572 0.02851 0.0
N167 N 0.68226 0.48159 0.0327 0.0
N168 N 0.71896 0.45665 0.04055 0.0
C169 C 0.70874 0.48159 0.04007 0.0
H170 H 0.6992 0.41901 0.03131 0.0
Co171 Co 0.75372 0.44495 0.04926 0.0
C172 C 0.78311 0.49531 0.0605 0.0
O173 O 0.79154 0.48683 0.09523 0.0
N174 N 0.78899 0.43295 0.05805 0.0
C175 C 0.83256 0.42686 0.04996 0.0
C176 C 0.81021 0.43911 0.03513 0.0
C177 C 0.79906 0.41676 0.08659 0.0
N178 N 0.82558 0.41273 0.0824 0.0
O179 O 0.74851 0.45095 0.10479 0.0
H180 H 0.80949 0.45189 0.00926 0.0
H181 H 0.78722 0.40775 0.10978 0.0
O182 O 0.76739 0.48074 0.04003 0.0
C183 C 0.73834 0.42931 0.11777 0.0
O184 O 0.73634 0.40888 0.0935 0.0
N185 N 0.75649 0.43663 0.99553 0.0
C186 C 0.74485 0.41694 0.92014 0.0
C187 C 0.74551 0.44456 0.92724 0.0
C188 C 0.75136 0.45406 0.96536 0.0
C189 C 0.75758 0.40992 0.98863 0.0
C190 C 0.75204 0.39965 0.95108 0.0
H191 H 0.74957 0.47515 0.97123 0.0
H192 H 0.76076 0.39637 0.01318 0.0
H193 H 0.72039 0.49941 0.0454 0.0
H194 H 0.65571 0.44833 0.02168 0.0
H195 H 0.85251 0.42867 0.03804 0.0
H196 H 0.74017 0.4586 0.90414 0.0
H197 H 0.75133 0.37821 0.94729 0.0
C198 C 0.08222 0.19975 0.30635 0.0
C199 C 0.06533 0.17845 0.30145 0.0
N200 N 0.04059 0.18779 0.29453 0.0
N201 N 0.06835 0.22255 0.30264 0.0
C202 C 0.04293 0.21468 0.29567 0.0
H203 H 0.10344 0.19875 0.31178 0.0
Co204 Co 0.08514 0.25567 0.30509 0.0
C205 C 0.04625 0.29414 0.27251 0.0
O206 O 0.06586 0.30463 0.25206 0.0
N207 N 0.10369 0.28964 0.30848 0.0
C208 C 0.13021 0.32429 0.29472 0.0
C209 C 0.11739 0.30246 0.27948 0.0
C210 C 0.10874 0.30471 0.34131 0.0
N211 N 0.1252 0.32562 0.33392 0.0
O212 O 0.07948 0.2553 0.36117 0.0
H213 H 0.11812 0.29676 0.24859 0.0
H214 H 0.10128 0.29998 0.37055 0.0
O215 O 0.05077 0.27405 0.29504 0.0
C216 C 0.10123 0.24637 0.37563 0.0
O217 O 0.12191 0.2438 0.35201 0.0
N218 N 0.09311 0.25204 0.2513 0.0
C219 C 0.11044 0.22815 0.18124 0.0
C220 C 0.08378 0.2362 0.18541 0.0
C221 C 0.07536 0.24786 0.22111 0.0
C222 C 0.11912 0.24485 0.24716 0.0
C223 C 0.12833 0.23356 0.21215 0.0
H224 H 0.05433 0.2513 0.22551 0.0
H225 H 0.13257 0.24675 0.27211 0.0
H226 H 0.02664 0.2283 0.29032 0.0
H227 H 0.07089 0.15764 0.30301 0.0
H228 H 0.14239 0.33801 0.27782 0.0
H229 H 0.06922 0.23182 0.16255 0.0
H230 H 0.14911 0.22793 0.21012 0.0
C231 C 0.33249 0.58757 0.55401 0.0
C232 C 0.35399 0.57108 0.54876 0.0
N233 N 0.34497 0.54655 0.53931 0.0
N234 N 0.30988 0.57366 0.548 0.0
C235 C 0.31804 0.5486 0.53932 0.0
H236 H 0.33323 0.60855 0.56133 0.0
Co237 Co 0.27666 0.59007 0.5506 0.0
C238 C 0.23898 0.55205 0.51452 0.0
O239 O 0.23004 0.57215 0.49351 0.0
N240 N 0.24249 0.60796 0.55433 0.0
C241 C 0.2071 0.63377 0.5423 0.0
C242 C 0.22981 0.62292 0.5266 0.0
C243 C 0.22646 0.6102 0.5868 0.0
N244 N 0.20504 0.62597 0.58033 0.0
O245 O 0.27668 0.58324 0.6064 0.0
H246 H 0.23613 0.62586 0.4963 0.0
H247 H 0.23036 0.60064 0.61497 0.0
O248 O 0.25826 0.55586 0.53891 0.0
C249 C 0.28454 0.6049 0.62259 0.0
O250 O 0.28646 0.62641 0.60048 0.0
N251 N 0.28069 0.59927 0.4971 0.0
C252 C 0.30282 0.6188 0.42672 0.0
C253 C 0.29607 0.59168 0.43046 0.0
C254 C 0.28534 0.5822 0.46622 0.0
C255 C 0.28726 0.62554 0.49385 0.0
C256 C 0.29745 0.63586 0.4587 0.0
H257 H 0.28267 0.56097 0.46993 0.0
H258 H 0.28526 0.63848 0.51937 0.0
H259 H 0.30462 0.53241 0.53199 0.0
H260 H 0.37471 0.57678 0.55182 0.0
H261 H 0.19356 0.64711 0.52711 0.0
H262 H 0.3006 0.57763 0.40701 0.0
H263 H 0.30202 0.65695 0.45727 0.0
H264 H 0.6297 0.48363 0.0505 0.0
H265 H 0.59959 0.52146 0.0413 0.0
H266 H 0.66493 0.56908 0.99762 0.0
H267 H 0.69522 0.53117 0.00647 0.0
H268 H 0.60548 0.57674 0.07431 0.0
H269 H 0.60448 0.57063 0.90902 0.0
H270 H 0.61415 0.54277 0.93982 0.0
H271 H 0.63637 0.57051 0.93361 0.0
C272 C 0.63767 0.50211 0.03881 0.0
C273 C 0.66483 0.50433 0.02899 0.0
C274 C 0.62047 0.52375 0.03381 0.0
C275 C 0.63 0.54796 0.0185 0.0
C276 C 0.65716 0.55048 0.00923 0.0
H277 H 0.53632 0.69585 0.00488 0.0
H278 H 0.57328 0.66437 0.01344 0.0
C279 C 0.67446 0.52887 0.01456 0.0
C280 C 0.61123 0.57032 0.0117 0.0
H281 H 0.57795 0.60383 0.93857 0.0
C282 C 0.59963 0.58289 0.04467 0.0
C283 C 0.60356 0.5781 0.97297 0.0
C284 C 0.61509 0.5648 0.93666 0.0
C285 C 0.58031 0.60289 0.03989 0.0
C286 C 0.57241 0.61044 0.00117 0.0
C287 C 0.58421 0.59807 0.9682 0.0
C288 C 0.55064 0.62989 0.99445 0.0
C289 C 0.56781 0.61527 0.07621 0.0
C290 C 0.52588 0.62099 0.9803 0.0
C291 C 0.50479 0.63886 0.97548 0.0
C292 C 0.50811 0.66608 0.98432 0.0
C293 C 0.53318 0.67507 0.99754 0.0
C294 C 0.55425 0.6571 0.0027 0.0
H295 H 0.57368 0.60486 0.10399 0.0
H296 H 0.57414 0.63643 0.07847 0.0
H297 H 0.54574 0.61491 0.07365 0.0
H298 H 0.52275 0.60008 0.97361 0.0
H299 H 0.48586 0.63138 0.96476 0.0
H300 H 0.98887 0.20035 0.31047 0.0
H301 H 0.94973 0.17131 0.30135 0.0
H302 H 1.00011 0.11048 0.25129 0.0
H303 H 0.03892 0.13914 0.26004 0.0
H304 H 0.92815 0.14477 0.23175 0.0
H305 H 0.963 0.07289 0.34525 0.0
H306 H 0.97647 0.1062 0.34108 0.0
H307 H 0.98784 0.08019 0.30844 0.0
C308 C 0.99151 0.18089 0.29719 0.0
C309 C 0.01712 0.17188 0.28668 0.0
C310 C 0.96916 0.16431 0.29209 0.0
C311 C 0.97211 0.1385 0.27647 0.0
C312 C 0.99745 0.13003 0.26435 0.0
H313 H 0.89235 0.99916 0.20266 0.0
H314 H 0.92072 0.03756 0.21648 0.0
C315 C 0.01967 0.14645 0.26949 0.0
C316 C 0.94913 0.11986 0.27335 0.0
H317 H 0.92949 0.05714 0.30018 0.0
C318 C 0.92811 0.12581 0.24723 0.0
C319 C 0.94902 0.09521 0.29383 0.0
C320 C 0.97015 0.08831 0.32404 0.0
C321 C 0.90787 0.10701 0.23931 0.0
C322 C 0.90872 0.08182 0.2581 0.0
C323 C 0.92901 0.07643 0.28559 0.0
C324 C 0.89026 0.05982 0.24733 0.0
C325 C 0.88643 0.11357 0.20952 0.0
C326 C 0.86355 0.0597 0.25979 0.0
C327 C 0.84721 0.0375 0.25225 0.0
C328 C 0.8574 1.01504 0.23228 0.0
C329 C 0.88395 0.01578 0.21883 0.0
C330 C 0.90018 0.03782 0.22644 0.0
H331 H 0.88962 0.13333 0.19535 0.0
H332 H 0.88576 0.09804 0.18601 0.0
H333 H 0.86675 0.11363 0.22455 0.0
H334 H 0.85559 0.07642 0.27631 0.0
H335 H 0.82695 0.03756 0.26328 0.0
H336 H 0.54241 0.40079 0.47719 0.0
H337 H 0.50382 0.43018 0.48302 0.0
H338 H 0.45387 0.36259 0.51038 0.0
H339 H 0.49259 0.33302 0.50534 0.0
H340 H 0.4542 0.42808 0.44005 0.0
H341 H 0.44037 0.41557 0.60315 0.0
H342 H 0.4709 0.40641 0.57831 0.0
H343 H 0.4419 0.38563 0.57382 0.0
C344 C 0.52329 0.39215 0.48474 0.0
C345 C 0.52069 0.36453 0.49108 0.0
C346 C 0.50119 0.40897 0.4878 0.0
C347 C 0.47602 0.39864 0.49759 0.0
C348 C 0.47318 0.37104 0.50331 0.0
H349 H 0.33238 0.49415 0.54978 0.0
H350 H 0.3613 0.4556 0.53673 0.0
C351 C 0.49529 0.35414 0.50004 0.0
C352 C 0.45297 0.417 0.50181 0.0
H353 H 0.41122 0.4449 0.57037 0.0
C354 C 0.44465 0.4316 0.46848 0.0
C355 C 0.44035 0.42141 0.53883 0.0
C356 C 0.44884 0.40661 0.57574 0.0
C357 C 0.42448 0.4509 0.47133 0.0
C358 C 0.41271 0.45621 0.50872 0.0
C359 C 0.42027 0.44086 0.54174 0.0
C360 C 0.39438 0.47914 0.51483 0.0
C361 C 0.4161 0.46557 0.43426 0.0
C362 C 0.40337 0.50513 0.50706 0.0
C363 C 0.38697 0.52703 0.5144 0.0
C364 C 0.36117 0.52358 0.53002 0.0
C365 C 0.35203 0.49749 0.53744 0.0
C366 C 0.36857 0.47548 0.53019 0.0
H367 H 0.42016 0.45361 0.40715 0.0
H368 H 0.39456 0.4706 0.43502 0.0
H369 H 0.42766 0.4844 0.4319 0.0
H370 H 0.42334 0.50855 0.49592 0.0
H371 H 0.39459 0.54674 0.50782 0.0
H372 H 1.00222 0.8911 0.83072 0.0
H373 H 0.04159 0.91815 0.81806 0.0
H374 H 0.07712 0.85313 0.75332 0.0
H375 H 0.037 0.82612 0.76444 0.0
H376 H 0.09365 0.91138 0.83792 0.0
H377 H 0.08257 0.91353 0.67339 0.0
H378 H 0.05651 0.90144 0.70566 0.0
H379 H 0.08505 0.881 0.69542 0.0
C380 C 0.01819 0.88253 0.81338 0.0
C381 C 0.0161 0.85649 0.79805 0.0
C382 C 0.04088 0.898 0.80648 0.0
C383 C 0.06219 0.88791 0.78414 0.0
C384 C 0.06071 0.86159 0.76992 0.0
H385 H 0.20143 0.98626 0.71264 0.0
H386 H 0.17441 0.94639 0.72748 0.0
C387 C 0.03785 0.84604 0.77671 0.0
C388 C 0.08552 0.90545 0.77569 0.0
H389 H 0.11762 0.93867 0.70082 0.0
C390 C 0.09908 0.91707 0.8079 0.0
C391 C 0.09272 0.91288 0.73649 0.0
C392 C 0.07839 0.90178 0.70068 0.0
C393 C 0.11887 0.93654 0.80206 0.0
C394 C 0.12522 0.94476 0.76303 0.0
C395 C 0.11271 0.93224 0.73072 0.0
C396 C 0.14245 0.96833 0.75545 0.0
C397 C 0.13239 0.94874 0.83775 0.0
C398 C 0.13338 0.99375 0.76617 0.0
C399 C 0.14857 0.01637 0.7575 0.0
C400 C 0.17325 1.01412 0.73801 0.0
C401 C 0.18259 0.98857 0.7279 0.0
C402 C 0.16716 0.96585 0.7362 0.0
H403 H 0.1305 0.93582 0.86443 0.0
H404 H 0.15386 0.95236 0.83174 0.0
H405 H 0.12295 0.9682 0.84452 0.0
H406 H 0.11428 0.99613 0.78072 0.0
H407 H 0.14097 0.0357 0.76611 0.0
H408 H 0.29589 0.60524 0.34802 0.0
H409 H 0.31987 0.62321 0.29042 0.0
H410 H 0.36533 0.67459 0.36787 0.0
H411 H 0.34301 0.65565 0.42525 0.0
H412 H 0.32115 0.67231 0.26204 0.0
H413 H 0.42388 0.64428 0.30246 0.0
H414 H 0.39522 0.63095 0.32808 0.0
H415 H 0.40881 0.66298 0.34178 0.0
C416 C 0.31135 0.61999 0.35279 0.0
C417 C 0.31732 0.62911 0.39132 0.0
C418 C 0.32492 0.63036 0.31984 0.0
C419 C 0.34473 0.64994 0.32487 0.0
C420 C 0.35064 0.65904 0.36324 0.0
H421 H 0.39394 0.76721 0.15063 0.0
H422 H 0.37392 0.74286 0.20636 0.0
C423 C 0.3374 0.64851 0.39606 0.0
C424 C 0.35833 0.66209 0.29013 0.0
H425 H 0.41961 0.68013 0.25513 0.0
C426 C 0.34269 0.67373 0.26024 0.0
C427 C 0.38645 0.66353 0.28735 0.0
C428 C 0.40452 0.64949 0.31644 0.0
C429 C 0.35436 0.68761 0.22847 0.0
C430 C 0.38242 0.69077 0.22736 0.0
C431 C 0.39809 0.67826 0.25643 0.0
C432 C 0.39597 0.70644 0.19583 0.0
C433 C 0.33647 0.69837 0.19621 0.0
C434 C 0.41617 0.69468 0.17299 0.0
C435 C 0.42811 0.7088 0.14197 0.0
C436 C 0.41996 0.73491 0.13305 0.0
C437 C 0.40046 0.74706 0.15683 0.0
C438 C 0.38882 0.73305 0.1883 0.0
H439 H 0.31734 0.68719 0.19474 0.0
H440 H 0.3317 0.71951 0.20271 0.0
H441 H 0.34624 0.69733 0.16665 0.0
H442 H 0.42215 0.67424 0.17835 0.0
H443 H 0.44282 0.69882 0.12375 0.0
H444 H 0.84225 0.89011 0.34715 0.0
H445 H 0.86554 0.87322 0.40532 0.0
H446 H 0.81508 0.92053 0.48126 0.0
H447 H 0.79062 0.93664 0.42287 0.0
H448 H 0.89389 0.89734 0.46347 0.0
H449 H 0.80508 0.8464 0.52683 0.0
H450 H 0.80545 0.85986 0.47715 0.0
H451 H 0.80082 0.88154 0.51913 0.0
C452 C 0.83579 0.89668 0.37623 0.0
C453 C 0.81409 0.9142 0.38045 0.0
C454 C 0.84936 0.88723 0.40944 0.0
C455 C 0.84171 0.89518 0.44764 0.0
C456 C 0.82088 0.91364 0.45203 0.0
H457 H 0.89754 0.8508 0.68046 0.0
H458 H 0.87989 0.87411 0.62257 0.0
C459 C 0.8071 0.92303 0.41868 0.0
C460 C 0.85528 0.88344 0.48259 0.0
H461 H 0.84455 0.84537 0.56514 0.0
C462 C 0.88312 0.88598 0.48572 0.0
C463 C 0.84119 0.86839 0.51132 0.0
C464 C 0.81153 0.86361 0.50838 0.0
C465 C 0.89719 0.87406 0.51708 0.0
C466 C 0.88303 0.85925 0.54582 0.0
C467 C 0.85526 0.85681 0.54289 0.0
C468 C 0.89644 0.84653 0.57993 0.0
C469 C 0.927 0.87754 0.51968 0.0
C470 C 0.91197 0.82352 0.57489 0.0
C471 C 0.92194 0.80991 0.60807 0.0
C472 C 0.91627 0.81912 0.64657 0.0
C473 C 0.90173 0.84288 0.65118 0.0
C474 C 0.89177 0.85634 0.6182 0.0
H475 H 0.93453 0.89257 0.49816 0.0
H476 H 0.93283 0.88371 0.55016 0.0
H477 H 0.93683 0.8582 0.51338 0.0
H478 H 0.91555 0.81559 0.54544 0.0
H479 H 0.93304 0.79166 0.6037 0.0
H480 H 0.76204 0.37376 0.87723 0.0
H481 H 0.73865 0.35145 0.82265 0.0
H482 H 0.67792 0.41209 0.82512 0.0
H483 H 0.70095 0.43436 0.87978 0.0
H484 H 0.68636 0.33143 0.82862 0.0
H485 H 0.6948 0.40532 0.70638 0.0
H486 H 0.71596 0.40626 0.74978 0.0
H487 H 0.68243 0.41867 0.75231 0.0
C488 C 0.7439 0.38255 0.86577 0.0
C489 C 0.7334 0.40588 0.88285 0.0
C490 C 0.73058 0.36979 0.83459 0.0
C491 C 0.70665 0.3802 0.81969 0.0
C492 C 0.69662 0.40399 0.83565 0.0
H493 H 0.59127 0.32741 0.64419 0.0
H494 H 0.61352 0.34946 0.69987 0.0
C495 C 0.7099 0.41676 0.86684 0.0
C496 C 0.69114 0.36515 0.78962 0.0
H497 H 0.66497 0.36915 0.69622 0.0
C498 C 0.6818 0.33959 0.79956 0.0
C499 C 0.68503 0.37596 0.75192 0.0
C500 C 0.69524 0.40296 0.7392 0.0
C501 C 0.6662 0.32465 0.77297 0.0
C502 C 0.6602 0.3354 0.73518 0.0
C503 C 0.66949 0.361 0.72529 0.0
C504 C 0.64497 0.32022 0.70489 0.0
C505 C 0.65584 0.29774 0.78589 0.0
C506 C 0.65494 0.29614 0.6898 0.0
C507 C 0.6421 0.28332 0.65826 0.0
C508 C 0.61914 0.29445 0.64095 0.0
C509 C 0.60863 0.31803 0.6572 0.0
C510 C 0.62148 0.33083 0.68877 0.0
H511 H 0.65563 0.29579 0.81877 0.0
H512 H 0.63536 0.2942 0.7745 0.0
H513 H 0.66902 0.28196 0.77385 0.0
H514 H 0.67326 0.28779 0.70135 0.0
H515 H 0.65064 0.26514 0.64652 0.0
H516 H 0.18256 0.13161 0.84907 0.0
H517 H 0.16117 0.14823 0.909 0.0
H518 H 0.2205 0.10891 0.98081 0.0
H519 H 0.24293 0.09315 0.92039 0.0
H520 H 0.1391 0.12476 0.97324 0.0
H521 H 0.22703 0.18558 0.01748 0.0
H522 H 0.22453 0.16975 0.96953 0.0
H523 H 0.23356 0.15056 0.0126 0.0
C524 C 0.19124 0.12665 0.87759 0.0
C525 C 0.21487 0.11167 0.88001 0.0
C526 C 0.17881 0.13595 0.91183 0.0
C527 C 0.18957 0.13032 0.94929 0.0
C528 C 0.21226 0.11403 0.95207 0.0
H529 H 0.14237 0.18434 0.18263 0.0
H530 H 0.16004 0.15945 0.12634 0.0
C531 C 0.22489 0.10482 0.91762 0.0
C532 C 0.17743 0.1426 0.98494 0.0
H533 H 0.18991 0.18631 0.06046 0.0
C534 C 0.15022 0.13816 0.99239 0.0
C535 C 0.19194 0.16031 0.00959 0.0
C536 C 0.22081 0.16709 0.00181 0.0
C537 C 0.13715 0.15094 0.02393 0.0
C538 C 0.15169 0.16855 0.04843 0.0
C539 C 0.17891 0.17275 0.0414 0.0
C540 C 0.13923 0.18264 0.08207 0.0
C541 C 0.10797 0.14548 0.0311 0.0
C542 C 0.12152 0.20383 0.07561 0.0
C543 C 0.11159 0.21844 0.1078 0.0
C544 C 0.1194 0.21207 0.14677 0.0
C545 C 0.13651 0.19024 0.15293 0.0
C546 C 0.14646 0.17581 0.12088 0.0
H547 H 0.10055 0.12841 0.01318 0.0
H548 H 0.10437 0.14125 0.06304 0.0
H549 H 0.09625 0.16344 0.02309 0.0
H550 H 0.11595 0.20948 0.04568 0.0
H551 H 0.0985 0.23516 0.10216 0.0
H552 H 0.32595 0.57528 0.64985 0.0
H553 H 0.3569 0.58959 0.70238 0.0
H554 H 0.30333 0.65342 0.73344 0.0
H555 H 0.27274 0.63926 0.68117 0.0
H556 H 0.37988 0.64016 0.69712 0.0
H557 H 0.32931 0.62916 0.84194 0.0
H558 H 0.3191 0.61068 0.7984 0.0
H559 H 0.30794 0.64443 0.80583 0.0
C560 C 0.32018 0.59138 0.66948 0.0
C561 C 0.2968 0.60591 0.66215 0.0
C562 C 0.33802 0.59979 0.69906 0.0
C563 C 0.33239 0.6225 0.72199 0.0
C564 C 0.30791 0.63554 0.71675 0.0
H565 H 0.39131 0.75143 0.84945 0.0
H566 H 0.37199 0.71974 0.80232 0.0
C567 C 0.29033 0.62737 0.68701 0.0
C568 C 0.35325 0.63531 0.74688 0.0
H569 H 0.36227 0.66455 0.83739 0.0
C570 C 0.37645 0.64489 0.72814 0.0
C571 C 0.34875 0.64151 0.78727 0.0
C572 C 0.32503 0.63066 0.80962 0.0
C573 C 0.39419 0.66209 0.74799 0.0
C574 C 0.38857 0.66976 0.78741 0.0
C575 C 0.36635 0.65883 0.80691 0.0
C576 C 0.40379 0.69097 0.80807 0.0
C577 C 0.4179 0.67334 0.72613 0.0
C578 C 0.4288 0.68587 0.82521 0.0
C579 C 0.44013 0.70428 0.85175 0.0
C580 C 0.42639 0.72776 0.86148 0.0
C581 C 0.40248 0.73368 0.84179 0.0
C582 C 0.39131 0.71548 0.81523 0.0
H583 H 0.41913 0.66596 0.69507 0.0
H584 H 0.41677 0.69545 0.7257 0.0
H585 H 0.43649 0.66782 0.74198 0.0
H586 H 0.43859 0.66693 0.82031 0.0
H587 H 0.4582 0.69897 0.86751 0.0
H588 H 0.8267 0.95607 0.11949 0.0
H589 H 0.85706 0.93863 0.06843 0.0
H590 H 0.80119 0.87533 0.04328 0.0
H591 H 0.77115 0.89265 0.094 0.0
H592 H 0.87857 0.88799 0.07765 0.0
H593 H 0.82726 0.89436 0.93277 0.0
H594 H 0.81773 0.91462 0.97479 0.0
H595 H 0.80578 0.88085 0.97033 0.0
C596 C 0.82033 0.93938 0.10134 0.0
C597 C 0.79638 0.926 0.10986 0.0
C598 C 0.83783 0.92918 0.07266 0.0
C599 C 0.83136 0.90574 0.05184 0.0
C600 C 0.80643 0.89372 0.05826 0.0
H601 H 0.88773 0.77223 0.93136 0.0
H602 H 0.86963 0.80439 0.97868 0.0
C603 C 0.78915 0.90371 0.08709 0.0
C604 C 0.85167 0.8914 0.02793 0.0
H605 H 0.85954 0.85876 0.9398 0.0
C606 C 0.8748 0.88214 0.04714 0.0
C607 C 0.84675 0.88374 0.98819 0.0
C608 C 0.82315 0.89415 0.96521 0.0
C609 C 0.89211 0.864 0.02846 0.0
C610 C 0.8861 0.85502 0.98977 0.0
C611 C 0.8639 0.86547 0.96976 0.0
C612 C 0.90116 0.8333 0.97021 0.0
C613 C 0.91586 0.85335 0.05076 0.0
C614 C 0.92576 0.83825 0.95168 0.0
C615 C 0.93642 0.81956 0.92508 0.0
C616 C 0.92239 0.79595 0.91658 0.0
C617 C 0.89916 0.79004 0.93808 0.0
C618 C 0.88865 0.80854 0.96472 0.0
H619 H 0.9174 0.86177 0.08121 0.0
H620 H 0.91448 0.83129 0.05287 0.0
H621 H 0.93438 0.8582 0.03423 0.0
H622 H 0.93555 0.85737 0.95527 0.0
H623 H 0.95394 0.8249 0.90798 0.0
H624 H 0.69664 0.45748 0.14759 0.0
H625 H 0.667 0.44213 0.20126 0.0
H626 H 0.72138 0.37787 0.22677 0.0
H627 H 0.75063 0.39304 0.17341 0.0
H628 H 0.64377 0.39103 0.19738 0.0
H629 H 0.69986 0.40246 0.3377 0.0
H630 H 0.70807 0.42111 0.2934 0.0
H631 H 0.71976 0.38744 0.29955 0.0
C632 C 0.70281 0.44095 0.16615 0.0
C633 C 0.72612 0.42673 0.15718 0.0
C634 C 0.68574 0.43198 0.19636 0.0
C635 C 0.69206 0.40896 0.21823 0.0
C636 C 0.71632 0.39597 0.21093 0.0
H637 H 0.63767 0.28152 0.35441 0.0
H638 H 0.65556 0.31227 0.30473 0.0
C639 C 0.73311 0.4047 0.18056 0.0
C640 C 0.67221 0.39612 0.24481 0.0
H641 H 0.66658 0.36743 0.33632 0.0
C642 C 0.64836 0.38644 0.22811 0.0
C643 C 0.67824 0.39011 0.28483 0.0
C644 C 0.70276 0.40107 0.30504 0.0
C645 C 0.63137 0.36936 0.24962 0.0
C646 C 0.63843 0.36194 0.28866 0.0
C647 C 0.66138 0.37294 0.30612 0.0
C648 C 0.62385 0.34108 0.31106 0.0
C649 C 0.60687 0.35802 0.2299 0.0
C650 C 0.5993 0.34646 0.32946 0.0
C651 C 0.58879 0.32857 0.3575 0.0
C652 C 0.60287 0.30533 0.36744 0.0
C653 C 0.62624 0.29907 0.34661 0.0
C654 C 0.63659 0.31675 0.31857 0.0
H655 H 0.60477 0.36482 0.19864 0.0
H656 H 0.60767 0.3359 0.23038 0.0
H657 H 0.58887 0.36416 0.24671 0.0
H658 H 0.58934 0.36528 0.32434 0.0
H659 H 0.57116 0.33416 0.3741 0.0
H660 H 0.07322 0.20404 0.40363 0.0
H661 H 0.08959 0.17316 0.45479 0.0
H662 H 0.15245 0.22867 0.48384 0.0
H663 H 0.13622 0.25921 0.43294 0.0
H664 H 0.14048 0.15198 0.44632 0.0
H665 H 0.1318 0.20075 0.59285 0.0
H666 H 0.11203 0.21084 0.55058 0.0
H667 H 0.14563 0.22294 0.55648 0.0
C668 C 0.08953 0.21023 0.42266 0.0
C669 C 0.10317 0.23418 0.41512 0.0
C670 C 0.09912 0.19243 0.45141 0.0
C671 C 0.12218 0.19864 0.4733 0.0
C672 C 0.13433 0.22364 0.46799 0.0
H673 H 0.2553 0.14187 0.59263 0.0
H674 H 0.22287 0.15995 0.54567 0.0
C675 C 0.12496 0.24119 0.43906 0.0
C676 C 0.13619 0.17797 0.49694 0.0
H677 H 0.16778 0.16885 0.58566 0.0
C678 C 0.14587 0.15525 0.47714 0.0
C679 C 0.14327 0.18225 0.53708 0.0
C680 C 0.13239 0.20539 0.56058 0.0
C681 C 0.16392 0.13777 0.49567 0.0
C682 C 0.17237 0.14321 0.5348 0.0
C683 C 0.16144 0.16493 0.55538 0.0
C684 C 0.1942 0.12822 0.55416 0.0
C685 C 0.17512 0.11454 0.47279 0.0
C686 C 0.18943 0.10353 0.57257 0.0
C687 C 0.20826 0.09288 0.59896 0.0
C688 C 0.23182 0.10702 0.60736 0.0
C689 C 0.23752 0.13037 0.586 0.0
C690 C 0.21889 0.14086 0.55955 0.0
H691 H 0.16665 0.11309 0.44236 0.0
H692 H 0.19711 0.11656 0.47058 0.0
H693 H 0.17085 0.09571 0.48894 0.0
H694 H 0.17037 0.09363 0.56901 0.0
H695 H 0.2031 0.07526 0.61596 0.0
H696 H 0.40262 0.82063 0.85695 0.0
H697 H 0.37669 0.85113 0.8155 0.0
H698 H 0.3752 0.90835 0.91103 0.0
H699 H 0.4001 0.8777 0.9531 0.0
H700 H 0.32648 0.9036 0.87359 0.0
H701 H 0.40774 0.91749 0.76305 0.0
H702 H 0.39694 0.88371 0.77077 0.0
H703 H 0.41317 0.90148 0.81034 0.0
C704 C 0.39653 0.83954 0.86939 0.0
C705 C 0.40378 0.84671 0.90843 0.0
C706 C 0.38191 0.8571 0.84543 0.0
C707 C 0.37436 0.88225 0.85987 0.0
C708 C 0.38092 0.88913 0.8991 0.0
H709 H 0.34497 0.03396 0.76726 0.0
H710 H 0.36129 0.99089 0.78951 0.0
C711 C 0.39543 0.87162 0.92306 0.0
C712 C 0.36023 0.90188 0.83426 0.0
H713 H 0.36861 0.94219 0.7533 0.0
C714 C 0.33549 0.91181 0.84696 0.0
C715 C 0.37208 0.91265 0.79959 0.0
C716 C 0.39903 0.90351 0.78514 0.0
C717 C 0.32281 0.93289 0.82695 0.0
C718 C 0.33499 0.9441 0.79285 0.0
C719 C 0.35917 0.93342 0.7792 0.0
C720 C 0.32522 0.96935 0.77477 0.0
C721 C 0.2973 0.94403 0.84384 0.0
C722 C 0.29969 0.97156 0.75771 0.0
C723 C 0.29018 0.99645 0.74481 0.0
C724 C 0.30606 0.01945 0.74893 0.0
C725 C 0.33207 0.01675 0.76402 0.0
C726 C 0.34151 0.99205 0.77668 0.0
H727 H 0.2928 0.93588 0.8738 0.0
H728 H 0.29845 0.9661 0.84594 0.0
H729 H 0.28047 0.93889 0.82384 0.0
H730 H 0.28693 0.9542 0.75525 0.0
H731 H 0.2701 0.99784 0.73322 0.0
H732 H 0.53098 0.82773 0.92253 0.0
H733 H 0.56907 0.84916 0.95521 0.0
H734 H 0.56664 0.78982 0.04783 0.0
H735 H 0.52894 0.76811 0.01521 0.0
H736 H 0.56914 0.87089 0.03145 0.0
H737 H 0.64565 0.79195 0.01956 0.0
H738 H 0.61574 0.79196 0.98968 0.0
H739 H 0.61482 0.78011 0.04013 0.0
C740 C 0.53887 0.81893 0.94945 0.0
C741 C 0.52684 0.79617 0.96623 0.0
C742 C 0.56058 0.83129 0.96819 0.0
C743 C 0.57092 0.82098 0.00379 0.0
C744 C 0.55937 0.79789 0.02003 0.0
H745 H 0.67663 0.8605 0.19278 0.0
H746 H 0.64539 0.84189 0.14503 0.0
C747 C 0.53765 0.78558 0.00143 0.0
C748 C 0.59254 0.83521 0.0255 0.0
H749 H 0.65389 0.8263 0.06747 0.0
C750 C 0.58786 0.86132 0.03885 0.0
C751 C 0.61696 0.82272 0.03511 0.0
C752 C 0.62376 0.79523 0.02005 0.0
C753 C 0.60633 0.87476 0.06319 0.0
C754 C 0.63038 0.86191 0.07389 0.0
C755 C 0.63544 0.83614 0.05938 0.0
C756 C 0.64964 0.87392 0.10248 0.0
C757 C 0.59937 0.90207 0.07879 0.0
C758 C 0.66271 0.89816 0.09448 0.0
C759 C 0.68055 0.90915 0.12219 0.0
C760 C 0.68572 0.89606 0.1584 0.0
C761 C 0.67282 0.87157 0.16582 0.0
C762 C 0.65507 0.86068 0.13826 0.0
H763 H 0.57792 0.90675 0.07466 0.0
H764 H 0.60427 0.90373 0.11087 0.0
H765 H 0.61119 0.91731 0.06257 0.0
H766 H 0.65921 0.90853 0.06675 0.0
H767 H 0.69005 0.92799 0.11539 0.0
H768 H 0.76024 0.03379 0.23708 0.0
H769 H 0.7443 0.07792 0.2585 0.0
H770 H 0.6708 0.0423 0.29878 0.0
H771 H 0.68621 0.99878 0.27712 0.0
H772 H 0.66254 0.09014 0.26089 0.0
H773 H 0.74174 0.09907 0.37611 0.0
H774 H 0.75262 0.09497 0.32559 0.0
H775 H 0.73534 0.06825 0.35013 0.0
C776 C 0.74054 0.03551 0.2499 0.0
C777 C 0.72463 1.0127 0.25576 0.0
C778 C 0.73154 0.06069 0.26246 0.0
C779 C 0.70651 0.06338 0.28094 0.0
C780 C 0.6902 0.0408 0.28481 0.0
H781 H 0.63663 0.15746 0.45996 0.0
H782 H 0.66083 0.12672 0.41728 0.0
C783 C 0.69913 0.01583 0.27247 0.0
C784 C 0.69727 0.08906 0.29837 0.0
H785 H 0.70799 0.13127 0.37655 0.0
C786 C 0.6727 0.09947 0.28574 0.0
C787 C 0.7104 0.10102 0.33109 0.0
C788 C 0.73639 0.09027 0.34688 0.0
C789 C 0.66033 0.12064 0.30596 0.0
C790 C 0.67312 0.13213 0.33936 0.0
C791 C 0.69825 0.12252 0.35089 0.0
C792 C 0.65953 0.15202 0.36526 0.0
C793 C 0.63295 0.12939 0.29283 0.0
C794 C 0.65104 0.17682 0.35057 0.0
C795 C 0.63678 0.19445 0.37494 0.0
C796 C 0.63083 0.18768 0.41461 0.0
C797 C 0.64024 0.1632 0.42946 0.0
C798 C 0.65437 0.14564 0.40512 0.0
H799 H 0.62371 0.11502 0.27179 0.0
H800 H 0.6195 0.13175 0.31878 0.0
H801 H 0.6345 0.14897 0.27764 0.0
H802 H 0.6552 0.18245 0.32013 0.0
H803 H 0.62989 0.21305 0.36237 0.0
H804 H 0.50264 0.20454 0.43153 0.0
H805 H 0.46415 0.18305 0.46302 0.0
H806 H 0.46691 0.24075 0.55786 0.0
H807 H 0.5052 0.26243 0.52657 0.0
H808 H 0.4632 0.16055 0.54046 0.0
H809 H 0.3879 0.24055 0.52485 0.0
H810 H 0.41809 0.2397 0.49565 0.0
H811 H 0.41886 0.25166 0.546 0.0
C812 C 0.49482 0.21292 0.45877 0.0
C813 C 0.50704 0.23525 0.4765 0.0
C814 C 0.47287 0.20053 0.4768 0.0
C815 C 0.46248 0.21043 0.51259 0.0
C816 C 0.4743 0.23301 0.52992 0.0
H817 H 0.35032 0.17257 0.69369 0.0
H818 H 0.38317 0.19072 0.64816 0.0
C819 C 0.49631 0.24531 0.51207 0.0
C820 C 0.44025 0.1964 0.5331 0.0
H821 H 0.37783 0.20578 0.57094 0.0
C822 C 0.44437 0.17026 0.54671 0.0
C823 C 0.41571 0.2091 0.54116 0.0
C824 C 0.4097 0.23671 0.52585 0.0
C825 C 0.42512 0.15696 0.56986 0.0
C826 C 0.40085 0.16998 0.57892 0.0
C827 C 0.39643 0.1958 0.5641 0.0
C828 C 0.38068 0.15815 0.60623 0.0
C829 C 0.43149 0.12963 0.58597 0.0
C830 C 0.36803 0.13373 0.59785 0.0
C831 C 0.3493 0.12294 0.6244 0.0
C832 C 0.34273 0.13645 0.65975 0.0
C833 C 0.35517 0.16113 0.66745 0.0
C834 C 0.37386 0.17178 0.64112 0.0
H835 H 0.45308 0.12499 0.5837 0.0
H836 H 0.42538 0.1279 0.61758 0.0
H837 H 0.42037 0.11441 0.56868 0.0
H838 H 0.37255 0.12306 0.57073 0.0
H839 H 0.3402 0.10394 0.61737 0.0
H840 H 0.92564 0.68651 0.90152 0.0
H841 H 0.90722 0.652 0.94558 0.0
H842 H 0.83876 0.64431 0.86911 0.0
H843 H 0.85643 0.67881 0.82576 0.0
H844 H 0.85367 0.64991 0.98485 0.0
H845 H 0.87081 0.56749 0.87793 0.0
H846 H 0.88812 0.59904 0.87477 0.0
H847 H 0.8544 0.59613 0.85729 0.0
C848 C 0.90659 0.67762 0.89421 0.0
C849 C 0.89281 0.68528 0.85957 0.0
C850 C 0.89613 0.65785 0.91939 0.0
C851 C 0.87183 0.64531 0.91023 0.0
C852 C 0.85779 0.65335 0.87633 0.0
H853 H 0.76829 0.52003 0.99146 0.0
H854 H 0.79032 0.55741 0.95835 0.0
C855 C 0.86809 0.67305 0.85137 0.0
C856 C 0.86086 0.62363 0.93553 0.0
H857 H 0.84228 0.55811 0.93251 0.0
C858 C 0.85144 0.62974 0.97372 0.0
C859 C 0.85793 0.59737 0.92083 0.0
C860 C 0.86854 0.58945 0.8806 0.0
C861 C 0.83816 0.61049 0.99698 0.0
C862 C 0.83466 0.58436 0.98182 0.0
C863 C 0.84476 0.57817 0.94403 0.0
C864 C 0.82013 0.56316 0.00404 0.0
C865 C 0.8271 0.61857 0.03685 0.0
C866 C 0.82935 0.55404 0.04102 0.0
C867 C 0.8167 0.53266 0.06016 0.0
C868 C 0.79474 0.51977 0.04249 0.0
C869 C 0.7852 0.52936 0.00588 0.0
C870 C 0.7978 0.55076 0.98687 0.0
H871 H 0.82556 0.64058 0.03974 0.0
H872 H 0.80708 0.60968 0.04175 0.0
H873 H 0.84055 0.61127 0.06063 0.0
H874 H 0.84684 0.5629 0.05454 0.0
H875 H 0.82471 0.52569 0.08818 0.0
H876 H 0.99759 0.26988 0.28752 0.0
H877 H 0.95338 0.28588 0.26655 0.0
H878 H 0.98952 0.35718 0.21905 0.0
H879 H 0.03312 0.34172 0.24015 0.0
H880 H 0.94258 0.3675 0.25908 0.0
H881 H 0.92995 0.28525 0.14945 0.0
H882 H 0.93511 0.27588 0.20044 0.0
H883 H 0.96145 0.29194 0.17337 0.0
C884 C 0.99598 0.28911 0.27314 0.0
C885 C 0.01894 0.30437 0.26513 0.0
C886 C 0.97075 0.29815 0.26088 0.0
C887 C 0.96817 0.32257 0.24061 0.0
C888 C 0.99095 0.33826 0.23447 0.0
H889 H 0.87264 0.39016 0.06149 0.0
H890 H 0.90366 0.36638 0.10438 0.0
C891 C 0.01595 0.32929 0.24648 0.0
C892 C 0.94234 0.33177 0.22372 0.0
H893 H 0.89862 0.31979 0.14781 0.0
C894 C 0.93262 0.35686 0.23524 0.0
C895 C 0.92956 0.31799 0.19231 0.0
C896 C 0.93953 0.29135 0.1778 0.0
C897 C 0.91134 0.36908 0.21509 0.0
C898 C 0.89906 0.35564 0.18291 0.0
C899 C 0.90799 0.33003 0.17255 0.0
C900 C 0.87903 0.36894 0.15697 0.0
C901 C 0.90328 0.39696 0.22688 0.0
C902 C 0.85454 0.37799 0.17198 0.0
C903 C 0.83676 0.39197 0.14748 0.0
C904 C 0.84308 0.39708 0.10739 0.0
C905 C 0.86727 0.38717 0.09229 0.0
C906 C 0.88498 0.37329 0.11674 0.0
H907 H 0.91806 0.40642 0.24707 0.0
H908 H 0.9009 0.40979 0.20024 0.0
H909 H 0.88384 0.39618 0.24256 0.0
H910 H 0.84928 0.3745 0.20274 0.0
H911 H 0.8184 0.3993 0.16024 0.0
H912 H 0.20228 0.53901 0.45859 0.0
H913 H 0.18317 0.49583 0.44379 0.0
H914 H 0.22952 0.46026 0.5377 0.0
H915 H 0.24967 0.50407 0.55234 0.0
H916 H 0.23058 0.42997 0.47171 0.0
H917 H 0.12593 0.45569 0.50092 0.0
H918 H 0.13989 0.47956 0.46722 0.0
H919 H 0.15313 0.47675 0.5169 0.0
C920 C 0.20842 0.52219 0.47654 0.0
C921 C 0.22744 0.52518 0.50698 0.0
C922 C 0.19718 0.4974 0.46817 0.0
C923 C 0.20419 0.47483 0.49034 0.0
C924 C 0.22346 0.47749 0.52055 0.0
H925 H 0.10873 0.33689 0.40967 0.0
H926 H 0.12884 0.36875 0.45599 0.0
C927 C 0.23497 0.5025 0.52889 0.0
C928 C 0.19229 0.44854 0.47963 0.0
H929 H 0.13302 0.42045 0.45191 0.0
C930 C 0.20921 0.42765 0.46823 0.0
C931 C 0.16435 0.44498 0.47609 0.0
C932 C 0.14483 0.46537 0.49142 0.0
C933 C 0.19909 0.40439 0.45029 0.0
C934 C 0.17139 0.40232 0.44237 0.0
C935 C 0.15431 0.42216 0.45698 0.0
C936 C 0.16011 0.38132 0.41578 0.0
C937 C 0.21835 0.38253 0.43942 0.0
C938 C 0.17068 0.37784 0.37757 0.0
C939 C 0.15948 0.35947 0.35125 0.0
C940 C 0.13688 0.34432 0.36192 0.0
C941 C 0.12618 0.34788 0.40027 0.0
C942 C 0.13764 0.36622 0.42685 0.0
H943 H 0.2353 0.3819 0.46064 0.0
H944 H 0.2085 0.36268 0.43908 0.0
H945 H 0.22671 0.38659 0.4095 0.0
H946 H 0.18743 0.38976 0.36763 0.0
H947 H 0.16875 0.3573 0.32248 0.0
H948 H 0.2111 0.63391 0.65984 0.0
H949 H 0.17828 0.65344 0.70545 0.0
H950 H 0.12136 0.65814 0.6097 0.0
H951 H 0.15389 0.63877 0.5643 0.0
H952 H 0.12685 0.70577 0.6513 0.0
H953 H 0.1108 0.62043 0.7543 0.0
H954 H 0.14472 0.63108 0.74722 0.0
H955 H 0.12668 0.61652 0.70654 0.0
C956 C 0.19142 0.63864 0.64876 0.0
C957 C 0.18514 0.63484 0.60837 0.0
C958 C 0.17269 0.64986 0.67483 0.0
C959 C 0.1473 0.65723 0.66104 0.0
C960 C 0.14086 0.6528 0.62101 0.0
H961 H 0.99437 0.68575 0.75007 0.0
H962 H 0.03755 0.6691 0.72888 0.0
C963 C 0.1595 0.64173 0.59504 0.0
C964 C 0.12745 0.67037 0.68741 0.0
H965 H 0.08572 0.6592 0.76594 0.0
C966 C 0.11808 0.69576 0.67672 0.0
C967 C 0.11604 0.65727 0.72054 0.0
C968 C 0.12485 0.62975 0.73286 0.0
C969 C 0.09686 0.70789 0.69707 0.0
C970 C 0.08491 0.69448 0.72954 0.0
C971 C 0.09504 0.66958 0.74129 0.0
C972 C 0.05957 0.70403 0.74759 0.0
C973 C 0.08638 0.73423 0.68209 0.0
C974 C 0.05754 0.72899 0.76649 0.0
C975 C 0.03259 0.73872 0.77872 0.0
C976 C 1.00934 0.72362 0.77211 0.0
C977 C 1.01179 0.69808 0.75523 0.0
C978 C 0.03655 0.68842 0.74321 0.0
H979 H 0.09499 0.73974 0.6528 0.0
H980 H 0.06433 0.73358 0.67926 0.0
H981 H 0.09156 0.75017 0.70362 0.0
H982 H 0.07512 0.74122 0.77081 0.0
H983 H 0.0314 0.75842 0.79174 0.0
loop_
_geom_bond_atom_site_label_1
_geom_bond_atom_site_label_2
_geom_bond_distance
_geom_bond_site_symmetry_2
_ccdc_geom_bond_type
C0 C1 1.351 . S
C0 N3 1.368 . S
C0 H5 0.931 . S
C1 C0 1.351 . S
C1 N2 1.373 . S
C1 H29 0.930 . S
N2 C1 1.373 . S
N2 C4 1.340 . S
N3 C0 1.368 . S
N3 C4 1.322 . S
N3 Co6 2.135 . S
C4 N2 1.340 . S
C4 N3 1.322 . S
C4 H28 0.929 1_556 S
H5 C0 0.931 . S
Co6 N3 2.135 . S
Co6 N9 2.121 . S
Co6 O14 2.055 . S
Co6 O17 2.039 . S
Co6 N20 2.140 1_556 S
C7 O8 1.227 . S
C7 O17 1.265 1_554 S
O8 C7 1.227 . S
N9 Co6 2.121 . S
N9 C11 1.375 1_556 S
N9 C12 1.313 . S
C10 C11 1.338 . S
C10 N13 1.377 1_554 S
C10 H30 0.930 . S
C11 N9 1.375 1_554 S
C11 C10 1.338 . S
C11 H15 0.931 . S
C12 N9 1.313 . S
C12 N13 1.344 . S
C12 H16 0.930 . S
N13 C10 1.377 1_556 S
N13 C12 1.344 . S
O14 Co6 2.055 . S
O14 C18 1.253 . S
H15 C11 0.931 . S
H16 C12 0.930 . S
O17 Co6 2.039 . S
O17 C7 1.265 1_556 S
C18 O14 1.253 . S
C18 O19 1.227 . S
O19 C18 1.227 . S
N20 Co6 2.140 1_554 S
N20 C23 1.346 . S
N20 C24 1.345 . S
C21 C22 1.387 . S
C21 C25 1.391 . S
C22 C21 1.387 . S
C22 C23 1.369 . S
C22 H31 0.929 . S
C23 N20 1.346 . S
C23 C22 1.369 . S
C23 H26 0.928 . S
C24 N20 1.345 . S
C24 C25 1.371 . S
C24 H27 0.931 . S
C25 C21 1.391 . S
C25 C24 1.371 . S
C25 H32 0.930 . S
H26 C23 0.928 . S
H27 C24 0.931 . S
H28 C4 0.929 1_554 S
H29 C1 0.930 . S
H30 C10 0.930 . S
H31 C22 0.929 . S
H32 C25 0.930 . S
C33 C34 1.351 . S
C33 N36 1.368 . S
C33 H38 0.931 . S
C34 C33 1.351 . S
C34 N35 1.373 . S
C34 H62 0.930 . S
N35 C34 1.373 . S
N35 C37 1.340 . S
N36 C33 1.368 . S
N36 C37 1.321 . S
N36 Co39 2.135 . S
C37 N35 1.340 . S
C37 N36 1.321 . S
C37 H61 0.930 . S
H38 C33 0.931 . S
Co39 N36 2.135 . S
Co39 N42 2.121 . S
Co39 O47 2.055 . S
Co39 O50 2.039 . S
Co39 N53 2.140 . S
C40 O41 1.227 . S
C40 O50 1.265 . S
O41 C40 1.227 . S
N42 Co39 2.121 . S
N42 C44 1.375 . S
N42 C45 1.313 . S
C43 C44 1.338 . S
C43 N46 1.377 . S
C43 H63 0.930 . S
C44 N42 1.375 . S
C44 C43 1.338 . S
C44 H48 0.931 . S
C45 N42 1.313 . S
C45 N46 1.344 . S
C45 H49 0.930 . S
N46 C43 1.377 . S
N46 C45 1.344 . S
O47 Co39 2.055 . S
O47 C51 1.253 . S
H48 C44 0.931 . S
H49 C45 0.930 . S
O50 Co39 2.039 . S
O50 C40 1.265 . S
C51 O47 1.253 . S
C51 O52 1.227 . S
O52 C51 1.227 . S
N53 Co39 2.140 . S
N53 C56 1.346 . S
N53 C57 1.345 . S
C54 C55 1.387 . S
C54 C58 1.391 . S
C55 C54 1.387 . S
C55 C56 1.369 . S
C55 H64 0.929 . S
C56 N53 1.346 . S
C56 C55 1.369 . S
C56 H59 0.928 . S
C57 N53 1.345 . S
C57 C58 1.371 . S
C57 H60 0.931 . S
C58 C54 1.391 . S
C58 C57 1.371 . S
C58 H65 0.930 . S
H59 C56 0.928 . S
H60 C57 0.931 . S
H61 C37 0.930 . S
H62 C34 0.930 . S
H63 C43 0.930 . S
H64 C55 0.929 . S
H65 C58 0.930 . S
C66 C67 1.351 . S
C66 N69 1.368 . S
C66 H71 0.931 . S
C67 C66 1.351 . S
C67 N68 1.373 . S
C67 H95 0.930 . S
N68 C67 1.373 . S
N68 C70 1.340 . S
N69 C66 1.368 . S
N69 C70 1.321 . S
N69 Co72 2.135 . S
C70 N68 1.340 . S
C70 N69 1.321 . S
C70 H94 0.930 . S
H71 C66 0.931 . S
Co72 N69 2.135 . S
Co72 N75 2.121 . S
Co72 O80 2.055 . S
Co72 O83 2.039 . S
Co72 N86 2.140 . S
C73 O74 1.227 . S
C73 O83 1.265 . S
O74 C73 1.227 . S
N75 Co72 2.121 . S
N75 C77 1.375 . S
N75 C78 1.313 . S
C76 C77 1.338 . S
C76 N79 1.377 . S
C76 H96 0.930 . S
C77 N75 1.375 . S
C77 C76 1.338 . S
C77 H81 0.931 . S
C78 N75 1.313 . S
C78 N79 1.344 . S
C78 H82 0.930 . S
N79 C76 1.377 . S
N79 C78 1.344 . S
O80 Co72 2.055 . S
O80 C84 1.253 . S
H81 C77 0.931 . S
H82 C78 0.930 . S
O83 Co72 2.039 . S
O83 C73 1.265 . S
C84 O80 1.253 . S
C84 O85 1.227 . S
O85 C84 1.227 . S
N86 Co72 2.140 . S
N86 C89 1.346 . S
N86 C90 1.345 . S
C87 C88 1.387 . S
C87 C91 1.391 . S
C88 C87 1.387 . S
C88 C89 1.369 . S
C88 H97 0.929 . S
C89 N86 1.346 . S
C89 C88 1.369 . S
C89 H92 0.928 . S
C90 N86 1.345 . S
C90 C91 1.371 . S
C90 H93 0.931 . S
C91 C87 1.391 . S
C91 C90 1.371 . S
C91 H98 0.930 . S
H92 C89 0.928 . S
H93 C90 0.931 . S
H94 C70 0.930 . S
H95 C67 0.930 . S
H96 C76 0.930 . S
H97 C88 0.929 . S
H98 C91 0.930 . S
C99 C100 1.351 . S
C99 N102 1.368 . S
C99 H104 0.931 . S
C100 C99 1.351 . S
C100 N101 1.373 . S
C100 H128 0.930 . S
N101 C100 1.373 . S
N101 C103 1.340 . S
N102 C99 1.368 . S
N102 C103 1.321 . S
N102 Co105 2.135 . S
C103 N101 1.340 . S
C103 N102 1.321 . S
C103 H127 0.930 . S
H104 C99 0.931 . S
Co105 N102 2.135 . S
Co105 N108 2.121 . S
Co105 O113 2.055 . S
Co105 O116 2.039 . S
Co105 N119 2.140 . S
C106 O107 1.227 . S
C106 O116 1.265 . S
O107 C106 1.227 . S
N108 Co105 2.121 . S
N108 C110 1.375 . S
N108 C111 1.313 . S
C109 C110 1.338 . S
C109 N112 1.377 . S
C109 H129 0.930 . S
C110 N108 1.375 . S
C110 C109 1.338 . S
C110 H114 0.931 . S
C111 N108 1.313 . S
C111 N112 1.344 . S
C111 H115 0.930 . S
N112 C109 1.377 . S
N112 C111 1.344 . S
O113 Co105 2.055 . S
O113 C117 1.253 . S
H114 C110 0.931 . S
H115 C111 0.930 . S
O116 Co105 2.039 . S
O116 C106 1.265 . S
C117 O113 1.253 . S
C117 O118 1.227 . S
O118 C117 1.227 . S
N119 Co105 2.140 . S
N119 C122 1.346 . S
N119 C123 1.345 . S
C120 C121 1.387 . S
C120 C124 1.391 . S
C121 C120 1.387 . S
C121 C122 1.369 . S
C121 H130 0.929 . S
C122 N119 1.346 . S
C122 C121 1.369 . S
C122 H125 0.928 . S
C123 N119 1.345 . S
C123 C124 1.371 . S
C123 H126 0.931 . S
C124 C120 1.391 . S
C124 C123 1.371 . S
C124 H131 0.930 . S
H125 C122 0.928 . S
H126 C123 0.931 . S
H127 C103 0.930 . S
H128 C100 0.930 . S
H129 C109 0.930 . S
H130 C121 0.929 . S
H131 C124 0.930 . S
C132 C133 1.351 . S
C132 N135 1.368 . S
C132 H137 0.931 . S
C133 C132 1.351 . S
C133 N134 1.373 . S
C133 H161 0.930 . S
N134 C133 1.373 . S
N134 C136 1.340 . S
N135 C132 1.368 . S
N135 C136 1.321 . S
N135 Co138 2.135 . S
C136 N134 1.340 . S
C136 N135 1.321 . S
C136 H160 0.930 . S
H137 C132 0.931 . S
Co138 N135 2.135 . S
Co138 N141 2.121 . S
Co138 O146 2.055 . S
Co138 O149 2.039 . S
Co138 N152 2.140 . S
C139 O140 1.227 . S
C139 O149 1.265 . S
O140 C139 1.227 . S
N141 Co138 2.121 . S
N141 C143 1.375 . S
N141 C144 1.313 . S
C142 C143 1.338 . S
C142 N145 1.377 . S
C142 H162 0.930 . S
C143 N141 1.375 . S
C143 C142 1.338 . S
C143 H147 0.931 . S
C144 N141 1.313 . S
C144 N145 1.344 . S
C144 H148 0.930 . S
N145 C142 1.377 . S
N145 C144 1.344 . S
O146 Co138 2.055 . S
O146 C150 1.253 . S
H147 C143 0.931 . S
H148 C144 0.930 . S
O149 Co138 2.039 . S
O149 C139 1.265 . S
C150 O146 1.253 . S
C150 O151 1.227 . S
O151 C150 1.227 . S
N152 Co138 2.140 . S
N152 C155 1.346 . S
N152 C156 1.345 . S
C153 C154 1.387 . S
C153 C157 1.391 . S
C154 C153 1.387 . S
C154 C155 1.369 . S
C154 H163 0.929 . S
C155 N152 1.346 . S
C155 C154 1.369 . S
C155 H158 0.928 . S
C156 N152 1.345 . S
C156 C157 1.371 . S
C156 H159 0.931 . S
C157 C153 1.391 . S
C157 C156 1.371 . S
C157 H164 0.930 . S
H158 C155 0.928 . S
H159 C156 0.931 . S
H160 C136 0.930 . S
H161 C133 0.930 . S
H162 C142 0.930 . S
H163 C154 0.929 . S
H164 C157 0.930 . S
C165 C166 1.351 . S
C165 N168 1.368 . S
C165 H170 0.931 . S
C166 C165 1.351 . S
C166 N167 1.373 . S
C166 H194 0.930 . S
N167 C166 1.373 . S
N167 C169 1.340 . S
N168 C165 1.368 . S
N168 C169 1.321 . S
N168 Co171 2.135 . S
C169 N167 1.340 . S
C169 N168 1.321 . S
C169 H193 0.930 . S
H170 C165 0.931 . S
Co171 N168 2.135 . S
Co171 N174 2.121 . S
Co171 O179 2.055 . S
Co171 O182 2.039 . S
Co171 N185 2.140 1_554 S
C172 O173 1.227 1_554 S
C172 O182 1.265 . S
O173 C172 1.227 1_556 S
N174 Co171 2.121 . S
N174 C176 1.375 . S
N174 C177 1.313 . S
C175 C176 1.338 . S
C175 N178 1.377 . S
C175 H195 0.930 . S
C176 N174 1.375 . S
C176 C175 1.338 . S
C176 H180 0.931 1_554 S
C177 N174 1.313 . S
C177 N178 1.344 . S
C177 H181 0.930 . S
N178 C175 1.377 . S
N178 C177 1.344 . S
O179 Co171 2.055 . S
O179 C183 1.253 . S
H180 C176 0.931 1_556 S
H181 C177 0.930 . S
O182 Co171 2.039 . S
O182 C172 1.265 . S
C183 O179 1.253 . S
C183 O184 1.227 . S
O184 C183 1.227 . S
N185 Co171 2.140 1_556 S
N185 C188 1.346 . S
N185 C189 1.345 . S
C186 C187 1.387 . S
C186 C190 1.391 . S
C187 C186 1.387 . S
C187 C188 1.369 . S
C187 H196 0.929 . S
C188 N185 1.346 . S
C188 C187 1.369 . S
C188 H191 0.928 . S
C189 N185 1.345 . S
C189 C190 1.371 . S
C189 H192 0.931 1_556 S
C190 C186 1.391 . S
C190 C189 1.371 . S
C190 H197 0.930 . S
H191 C188 0.928 . S
H192 C189 0.931 1_554 S
H193 C169 0.930 . S
H194 C166 0.930 . S
H195 C175 0.930 . S
H196 C187 0.929 . S
H197 C190 0.930 . S
C198 C199 1.351 . S
C198 N201 1.368 . S
C198 H203 0.931 . S
C199 C198 1.351 . S
C199 N200 1.373 . S
C199 H227 0.930 . S
N200 C199 1.373 . S
N200 C202 1.340 . S
N201 C198 1.368 . S
N201 C202 1.321 . S
N201 Co204 2.135 . S
C202 N200 1.340 . S
C202 N201 1.321 . S
C202 H226 0.930 . S
H203 C198 0.931 . S
Co204 N201 2.135 . S
Co204 N207 2.121 . S
Co204 O212 2.055 . S
Co204 O215 2.039 . S
Co204 N218 2.140 . S
C205 O206 1.227 . S
C205 O215 1.265 . S
O206 C205 1.227 . S
N207 Co204 2.121 . S
N207 C209 1.375 . S
N207 C210 1.313 . S
C208 C209 1.338 . S
C208 N211 1.377 . S
C208 H228 0.930 . S
C209 N207 1.375 . S
C209 C208 1.338 . S
C209 H213 0.931 . S
C210 N207 1.313 . S
C210 N211 1.344 . S
C210 H214 0.930 . S
N211 C208 1.377 . S
N211 C210 1.344 . S
O212 Co204 2.055 . S
O212 C216 1.253 . S
H213 C209 0.931 . S
H214 C210 0.930 . S
O215 Co204 2.039 . S
O215 C205 1.265 . S
C216 O212 1.253 . S
C216 O217 1.227 . S
O217 C216 1.227 . S
N218 Co204 2.140 . S
N218 C221 1.346 . S
N218 C222 1.345 . S
C219 C220 1.387 . S
C219 C223 1.391 . S
C220 C219 1.387 . S
C220 C221 1.369 . S
C220 H229 0.929 . S
C221 N218 1.346 . S
C221 C220 1.369 . S
C221 H224 0.928 . S
C222 N218 1.345 . S
C222 C223 1.371 . S
C222 H225 0.931 . S
C223 C219 1.391 . S
C223 C222 1.371 . S
C223 H230 0.930 . S
H224 C221 0.928 . S
H225 C222 0.931 . S
H226 C202 0.930 . S
H227 C199 0.930 . S
H228 C208 0.930 . S
H229 C220 0.929 . S
H230 C223 0.930 . S
C231 C232 1.351 . S
C231 N234 1.368 . S
C231 H236 0.931 . S
C232 C231 1.351 . S
C232 N233 1.373 . S
C232 H260 0.930 . S
N233 C232 1.373 . S
N233 C235 1.340 . S
N234 C231 1.368 . S
N234 C235 1.321 . S
N234 Co237 2.135 . S
C235 N233 1.340 . S
C235 N234 1.321 . S
C235 H259 0.930 . S
H236 C231 0.931 . S
Co237 N234 2.135 . S
Co237 N240 2.121 . S
Co237 O245 2.055 . S
Co237 O248 2.039 . S
Co237 N251 2.140 . S
C238 O239 1.227 . S
C238 O248 1.265 . S
O239 C238 1.227 . S
N240 Co237 2.121 . S
N240 C242 1.375 . S
N240 C243 1.313 . S
C241 C242 1.338 . S
C241 N244 1.377 . S
C241 H261 0.930 . S
C242 N240 1.375 . S
C242 C241 1.338 . S
C242 H246 0.931 . S
C243 N240 1.313 . S
C243 N244 1.344 . S
C243 H247 0.930 . S
N244 C241 1.377 . S
N244 C243 1.344 . S
O245 Co237 2.055 . S
O245 C249 1.253 . S
H246 C242 0.931 . S
H247 C243 0.930 . S
O248 Co237 2.039 . S
O248 C238 1.265 . S
C249 O245 1.253 . S
C249 O250 1.227 . S
O250 C249 1.227 . S
N251 Co237 2.140 . S
N251 C254 1.346 . S
N251 C255 1.345 . S
C252 C253 1.387 . S
C252 C256 1.391 . S
C253 C252 1.387 . S
C253 C254 1.369 . S
C253 H262 0.929 . S
C254 N251 1.346 . S
C254 C253 1.369 . S
C254 H257 0.928 . S
C255 N251 1.345 . S
C255 C256 1.371 . S
C255 H258 0.931 . S
C256 C252 1.391 . S
C256 C255 1.371 . S
C256 H263 0.930 . S
H257 C254 0.928 . S
H258 C255 0.931 . S
H259 C235 0.930 . S
H260 C232 0.930 . S
H261 C241 0.930 . S
H262 C253 0.929 . S
H263 C256 0.930 . S
H264 C272 0.929 . S
H265 C274 0.930 . S
H266 C276 0.930 . S
H267 C279 0.929 . S
H268 C282 0.930 . S
H269 C284 0.960 . S
H270 C284 0.960 . S
H271 C284 0.960 . S
C272 H264 0.929 . S
C272 C273 1.377 . S
C272 C274 1.384 . S
C273 C272 1.377 . S
C273 C279 1.390 . S
C274 H265 0.930 . S
C274 C272 1.384 . S
C274 C275 1.372 . S
C275 C274 1.372 . S
C275 C276 1.400 . S
C275 C280 1.490 . S
C276 H266 0.930 . S
C276 C275 1.400 . S
C276 C279 1.386 . S
H277 C293 0.930 . S
H278 C294 0.931 . S
C279 H267 0.929 . S
C279 C273 1.390 . S
C279 C276 1.386 . S
C280 C275 1.490 . S
C280 C282 1.395 . S
C280 C283 1.403 1_554 S
H281 C287 0.930 . S
C282 H268 0.930 . S
C282 C280 1.395 . S
C282 C285 1.403 . S
C283 C280 1.403 1_556 S
C283 C284 1.524 . S
C283 C287 1.400 . S
C284 H269 0.960 . S
C284 H270 0.960 . S
C284 H271 0.960 . S
C284 C283 1.524 . S
C285 C282 1.403 . S
C285 C286 1.392 . S
C285 C289 1.495 . S
C286 C285 1.392 . S
C286 C287 1.385 1_554 S
C286 C288 1.478 . S
C287 H281 0.930 . S
C287 C283 1.400 . S
C287 C286 1.385 1_556 S
C288 C286 1.478 . S
C288 C290 1.381 . S
C288 C294 1.383 . S
C289 C285 1.495 . S
C289 H295 0.959 . S
C289 H296 0.961 . S
C289 H297 0.960 . S
C290 C288 1.381 . S
C290 C291 1.394 . S
C290 H298 0.930 . S
C291 C290 1.394 . S
C291 C292 1.383 . S
C291 H299 0.929 . S
C292 C291 1.383 . S
C292 C293 1.377 . S
C293 H277 0.930 . S
C293 C292 1.377 . S
C293 C294 1.379 . S
C294 H278 0.931 . S
C294 C288 1.383 . S
C294 C293 1.379 . S
H295 C289 0.959 . S
H296 C289 0.961 . S
H297 C289 0.960 . S
H298 C290 0.930 . S
H299 C291 0.929 . S
H300 C308 0.929 . S
H301 C310 0.930 . S
H302 C312 0.930 . S
H303 C315 0.929 1_455 S
H304 C318 0.930 . S
H305 C320 0.960 . S
H306 C320 0.960 . S
H307 C320 0.960 . S
C308 H300 0.929 . S
C308 C309 1.377 . S
C308 C310 1.384 . S
C309 C308 1.377 . S
C309 C315 1.390 . S
C310 H301 0.930 . S
C310 C308 1.384 . S
C310 C311 1.372 . S
C311 C310 1.372 . S
C311 C312 1.400 . S
C311 C316 1.490 . S
C312 H302 0.930 . S
C312 C311 1.400 . S
C312 C315 1.386 . S
H313 C329 0.930 . S
H314 C330 0.931 . S
C315 H303 0.929 1_655 S
C315 C309 1.390 . S
C315 C312 1.386 . S
C316 C311 1.490 . S
C316 C318 1.395 . S
C316 C319 1.403 . S
H317 C323 0.930 . S
C318 H304 0.930 . S
C318 C316 1.395 . S
C318 C321 1.403 . S
C319 C316 1.403 . S
C319 C320 1.524 . S
C319 C323 1.400 . S
C320 H305 0.960 . S
C320 H306 0.960 . S
C320 H307 0.960 . S
C320 C319 1.524 . S
C321 C318 1.403 . S
C321 C322 1.392 . S
C321 C325 1.495 . S
C322 C321 1.392 . S
C322 C323 1.385 . S
C322 C324 1.478 . S
C323 H317 0.930 . S
C323 C319 1.400 . S
C323 C322 1.385 . S
C324 C322 1.478 . S
C324 C326 1.381 . S
C324 C330 1.383 . S
C325 C321 1.495 . S
C325 H331 0.959 . S
C325 H332 0.961 . S
C325 H333 0.960 . S
C326 C324 1.381 . S
C326 C327 1.394 . S
C326 H334 0.930 . S
C327 C326 1.394 . S
C327 C328 1.383 . S
C327 H335 0.929 . S
C328 C327 1.383 . S
C328 C329 1.377 . S
C329 H313 0.930 . S
C329 C328 1.377 . S
C329 C330 1.379 . S
C330 H314 0.931 . S
C330 C324 1.383 . S
C330 C329 1.379 . S
H331 C325 0.959 . S
H332 C325 0.961 . S
H333 C325 0.960 . S
H334 C326 0.930 . S
H335 C327 0.929 . S
H336 C344 0.929 . S
H337 C346 0.930 . S
H338 C348 0.930 . S
H339 C351 0.929 . S
H340 C354 0.930 . S
H341 C356 0.960 . S
H342 C356 0.960 . S
H343 C356 0.960 . S
C344 H336 0.929 . S
C344 C345 1.377 . S
C344 C346 1.384 . S
C345 C344 1.377 . S
C345 C351 1.390 . S
C346 H337 0.930 . S
C346 C344 1.384 . S
C346 C347 1.372 . S
C347 C346 1.372 . S
C347 C348 1.400 . S
C347 C352 1.490 . S
C348 H338 0.930 . S
C348 C347 1.400 . S
C348 C351 1.386 . S
H349 C365 0.930 . S
H350 C366 0.931 . S
C351 H339 0.929 . S
C351 C345 1.390 . S
C351 C348 1.386 . S
C352 C347 1.490 . S
C352 C354 1.395 . S
C352 C355 1.403 . S
H353 C359 0.930 . S
C354 H340 0.930 . S
C354 C352 1.395 . S
C354 C357 1.403 . S
C355 C352 1.403 . S
C355 C356 1.524 . S
C355 C359 1.400 . S
C356 H341 0.960 . S
C356 H342 0.960 . S
C356 H343 0.960 . S
C356 C355 1.524 . S
C357 C354 1.403 . S
C357 C358 1.392 . S
C357 C361 1.495 . S
C358 C357 1.392 . S
C358 C359 1.385 . S
C358 C360 1.478 . S
C359 H353 0.930 . S
C359 C355 1.400 . S
C359 C358 1.385 . S
C360 C358 1.478 . S
C360 C362 1.381 . S
C360 C366 1.383 . S
C361 C357 1.495 . S
C361 H367 0.959 . S
C361 H368 0.961 . S
C361 H369 0.960 . S
C362 C360 1.381 . S
C362 C363 1.394 . S
C362 H370 0.930 . S
C363 C362 1.394 . S
C363 C364 1.383 . S
C363 H371 0.929 . S
C364 C363 1.383 . S
C364 C365 1.377 . S
C365 H349 0.930 . S
C365 C364 1.377 . S
C365 C366 1.379 . S
C366 H350 0.931 . S
C366 C360 1.383 . S
C366 C365 1.379 . S
H367 C361 0.959 . S
H368 C361 0.961 . S
H369 C361 0.960 . S
H370 C362 0.930 . S
H371 C363 0.929 . S
H372 C380 0.927 . S
H373 C382 0.930 . S
H374 C384 0.930 . S
H375 C387 0.929 . S
H376 C390 0.930 . S
H377 C392 0.960 . S
H378 C392 0.960 . S
H379 C392 0.960 . S
C380 H372 0.927 . S
C380 C381 1.377 . S
C380 C382 1.384 . S
C381 C380 1.377 . S
C381 C387 1.390 . S
C382 H373 0.930 . S
C382 C380 1.384 . S
C382 C383 1.372 . S
C383 C382 1.372 . S
C383 C384 1.400 . S
C383 C388 1.490 . S
C384 H374 0.930 . S
C384 C383 1.400 . S
C384 C387 1.386 . S
H385 C401 0.930 . S
H386 C402 0.931 . S
C387 H375 0.929 . S
C387 C381 1.390 . S
C387 C384 1.386 . S
C388 C383 1.490 . S
C388 C390 1.395 . S
C388 C391 1.403 . S
H389 C395 0.930 . S
C390 H376 0.930 . S
C390 C388 1.395 . S
C390 C393 1.403 . S
C391 C388 1.403 . S
C391 C392 1.524 . S
C391 C395 1.400 . S
C392 H377 0.960 . S
C392 H378 0.960 . S
C392 H379 0.960 . S
C392 C391 1.524 . S
C393 C390 1.403 . S
C393 C394 1.392 . S
C393 C397 1.495 . S
C394 C393 1.392 . S
C394 C395 1.385 . S
C394 C396 1.478 . S
C395 H389 0.930 . S
C395 C391 1.400 . S
C395 C394 1.385 . S
C396 C394 1.478 . S
C396 C398 1.381 . S
C396 C402 1.383 . S
C397 C393 1.495 . S
C397 H403 0.959 . S
C397 H404 0.961 . S
C397 H405 0.960 . S
C398 C396 1.381 . S
C398 C399 1.394 . S
C398 H406 0.930 . S
C399 C398 1.394 . S
C399 C400 1.383 . S
C399 H407 0.929 1_565 S
C400 C399 1.383 . S
C400 C401 1.377 . S
C401 H385 0.930 . S
C401 C400 1.377 . S
C401 C402 1.379 . S
C402 H386 0.931 . S
C402 C396 1.383 . S
C402 C401 1.379 . S
H403 C397 0.959 . S
H404 C397 0.961 . S
H405 C397 0.960 . S
H406 C398 0.930 . S
H407 C399 0.929 1_545 S
H408 C416 0.929 . S
H409 C418 0.930 . S
H410 C420 0.930 . S
H411 C423 0.929 . S
H412 C426 0.930 . S
H413 C428 0.960 . S
H414 C428 0.960 . S
H415 C428 0.960 . S
C416 H408 0.929 . S
C416 C417 1.377 . S
C416 C418 1.384 . S
C417 C416 1.377 . S
C417 C423 1.390 . S
C418 H409 0.930 . S
C418 C416 1.384 . S
C418 C419 1.372 . S
C419 C418 1.372 . S
C419 C420 1.400 . S
C419 C424 1.490 . S
C420 H410 0.930 . S
C420 C419 1.400 . S
C420 C423 1.386 . S
H421 C437 0.930 . S
H422 C438 0.931 . S
C423 H411 0.929 . S
C423 C417 1.390 . S
C423 C420 1.386 . S
C424 C419 1.490 . S
C424 C426 1.395 . S
C424 C427 1.403 . S
H425 C431 0.930 . S
C426 H412 0.930 . S
C426 C424 1.395 . S
C426 C429 1.403 . S
C427 C424 1.403 . S
C427 C428 1.524 . S
C427 C431 1.400 . S
C428 H413 0.960 . S
C428 H414 0.960 . S
C428 H415 0.960 . S
C428 C427 1.524 . S
C429 C426 1.403 . S
C429 C430 1.392 . S
C429 C433 1.495 . S
C430 C429 1.392 . S
C430 C431 1.385 . S
C430 C432 1.478 . S
C431 H425 0.930 . S
C431 C427 1.400 . S
C431 C430 1.385 . S
C432 C430 1.478 . S
C432 C434 1.381 . S
C432 C438 1.383 . S
C433 C429 1.495 . S
C433 H439 0.959 . S
C433 H440 0.961 . S
C433 H441 0.960 . S
C434 C432 1.381 . S
C434 C435 1.394 . S
C434 H442 0.930 . S
C435 C434 1.394 . S
C435 C436 1.383 . S
C435 H443 0.929 . S
C436 C435 1.383 . S
C436 C437 1.377 . S
C437 H421 0.930 . S
C437 C436 1.377 . S
C437 C438 1.379 . S
C438 H422 0.931 . S
C438 C432 1.383 . S
C438 C437 1.379 . S
H439 C433 0.959 . S
H440 C433 0.961 . S
H441 C433 0.960 . S
H442 C434 0.930 . S
H443 C435 0.929 . S
H444 C452 0.929 . S
H445 C454 0.930 . S
H446 C456 0.930 . S
H447 C459 0.929 . S
H448 C462 0.930 . S
H449 C464 0.960 . S
H450 C464 0.960 . S
H451 C464 0.960 . S
C452 H444 0.929 . S
C452 C453 1.377 . S
C452 C454 1.384 . S
C453 C452 1.377 . S
C453 C459 1.390 . S
C454 H445 0.930 . S
C454 C452 1.384 . S
C454 C455 1.372 . S
C455 C454 1.372 . S
C455 C456 1.400 . S
C455 C460 1.490 . S
C456 H446 0.930 . S
C456 C455 1.400 . S
C456 C459 1.386 . S
H457 C473 0.930 . S
H458 C474 0.931 . S
C459 H447 0.929 . S
C459 C453 1.390 . S
C459 C456 1.386 . S
C460 C455 1.490 . S
C460 C462 1.395 . S
C460 C463 1.403 . S
H461 C467 0.930 . S
C462 H448 0.930 . S
C462 C460 1.395 . S
C462 C465 1.403 . S
C463 C460 1.403 . S
C463 C464 1.524 . S
C463 C467 1.400 . S
C464 H449 0.960 . S
C464 H450 0.960 . S
C464 H451 0.960 . S
C464 C463 1.524 . S
C465 C462 1.403 . S
C465 C466 1.392 . S
C465 C469 1.495 . S
C466 C465 1.392 . S
C466 C467 1.385 . S
C466 C468 1.478 . S
C467 H461 0.930 . S
C467 C463 1.400 . S
C467 C466 1.385 . S
C468 C466 1.478 . S
C468 C470 1.381 . S
C468 C474 1.383 . S
C469 C465 1.495 . S
C469 H475 0.959 . S
C469 H476 0.961 . S
C469 H477 0.960 . S
C470 C468 1.381 . S
C470 C471 1.394 . S
C470 H478 0.930 . S
C471 C470 1.394 . S
C471 C472 1.383 . S
C471 H479 0.929 . S
C472 C471 1.383 . S
C472 C473 1.377 . S
C473 H457 0.930 . S
C473 C472 1.377 . S
C473 C474 1.379 . S
C474 H458 0.931 . S
C474 C468 1.383 . S
C474 C473 1.379 . S
H475 C469 0.959 . S
H476 C469 0.961 . S
H477 C469 0.960 . S
H478 C470 0.930 . S
H479 C471 0.929 . S
H480 C488 0.929 . S
H481 C490 0.930 . S
H482 C492 0.930 . S
H483 C495 0.929 . S
H484 C498 0.930 . S
H485 C500 0.960 . S
H486 C500 0.960 . S
H487 C500 0.960 . S
C488 H480 0.929 . S
C488 C489 1.377 . S
C488 C490 1.384 . S
C489 C488 1.377 . S
C489 C495 1.390 . S
C490 H481 0.930 . S
C490 C488 1.384 . S
C490 C491 1.372 . S
C491 C490 1.372 . S
C491 C492 1.400 . S
C491 C496 1.490 . S
C492 H482 0.930 . S
C492 C491 1.400 . S
C492 C495 1.386 . S
H493 C509 0.930 . S
H494 C510 0.931 . S
C495 H483 0.929 . S
C495 C489 1.390 . S
C495 C492 1.386 . S
C496 C491 1.490 . S
C496 C498 1.395 . S
C496 C499 1.403 . S
H497 C503 0.930 . S
C498 H484 0.930 . S
C498 C496 1.395 . S
C498 C501 1.403 . S
C499 C496 1.403 . S
C499 C500 1.524 . S
C499 C503 1.400 . S
C500 H485 0.960 . S
C500 H486 0.960 . S
C500 H487 0.960 . S
C500 C499 1.524 . S
C501 C498 1.403 . S
C501 C502 1.392 . S
C501 C505 1.495 . S
C502 C501 1.392 . S
C502 C503 1.385 . S
C502 C504 1.478 . S
C503 H497 0.930 . S
C503 C499 1.400 . S
C503 C502 1.385 . S
C504 C502 1.478 . S
C504 C506 1.381 . S
C504 C510 1.383 . S
C505 C501 1.495 . S
C505 H511 0.959 . S
C505 H512 0.961 . S
C505 H513 0.960 . S
C506 C504 1.381 . S
C506 C507 1.394 . S
C506 H514 0.930 . S
C507 C506 1.394 . S
C507 C508 1.383 . S
C507 H515 0.929 . S
C508 C507 1.383 . S
C508 C509 1.377 . S
C509 H493 0.930 . S
C509 C508 1.377 . S
C509 C510 1.379 . S
C510 H494 0.931 . S
C510 C504 1.383 . S
C510 C509 1.379 . S
H511 C505 0.959 . S
H512 C505 0.961 . S
H513 C505 0.960 . S
H514 C506 0.930 . S
H515 C507 0.929 . S
H516 C524 0.929 . S
H517 C526 0.930 . S
H518 C528 0.930 . S
H519 C531 0.929 . S
H520 C534 0.930 . S
H521 C536 0.947 1_554 S
H522 C536 0.960 . S
H523 C536 0.960 . S
C524 H516 0.929 . S
C524 C525 1.377 . S
C524 C526 1.384 . S
C525 C524 1.377 . S
C525 C531 1.390 . S
C526 H517 0.930 . S
C526 C524 1.384 . S
C526 C527 1.372 . S
C527 C526 1.372 . S
C527 C528 1.400 . S
C527 C532 1.490 . S
C528 H518 0.930 . S
C528 C527 1.400 . S
C528 C531 1.386 . S
H529 C545 0.930 . S
H530 C546 0.931 . S
C531 H519 0.929 . S
C531 C525 1.390 . S
C531 C528 1.386 . S
C532 C527 1.490 . S
C532 C534 1.395 . S
C532 C535 1.403 . S
H533 C539 0.930 . S
C534 H520 0.930 . S
C534 C532 1.395 . S
C534 C537 1.403 1_556 S
C535 C532 1.403 . S
C535 C536 1.524 . S
C535 C539 1.400 1_556 S
C536 H521 0.947 1_556 S
C536 H522 0.960 . S
C536 H523 0.960 . S
C536 C535 1.524 . S
C537 C534 1.403 1_554 S
C537 C538 1.392 . S
C537 C541 1.495 . S
C538 C537 1.392 . S
C538 C539 1.385 . S
C538 C540 1.478 . S
C539 H533 0.930 . S
C539 C535 1.400 1_554 S
C539 C538 1.385 . S
C540 C538 1.478 . S
C540 C542 1.381 . S
C540 C546 1.383 . S
C541 C537 1.495 . S
C541 H547 0.959 . S
C541 H548 0.961 . S
C541 H549 0.960 . S
C542 C540 1.381 . S
C542 C543 1.394 . S
C542 H550 0.930 . S
C543 C542 1.394 . S
C543 C544 1.383 . S
C543 H551 0.929 . S
C544 C543 1.383 . S
C544 C545 1.377 . S
C545 H529 0.930 . S
C545 C544 1.377 . S
C545 C546 1.379 . S
C546 H530 0.931 . S
C546 C540 1.383 . S
C546 C545 1.379 . S
H547 C541 0.959 . S
H548 C541 0.961 . S
H549 C541 0.960 . S
H550 C542 0.930 . S
H551 C543 0.929 . S
H552 C560 0.929 . S
H553 C562 0.930 . S
H554 C564 0.930 . S
H555 C567 0.929 . S
H556 C570 0.930 . S
H557 C572 0.960 . S
H558 C572 0.960 . S
H559 C572 0.960 . S
C560 H552 0.929 . S
C560 C561 1.377 . S
C560 C562 1.384 . S
C561 C560 1.377 . S
C561 C567 1.390 . S
C562 H553 0.930 . S
C562 C560 1.384 . S
C562 C563 1.372 . S
C563 C562 1.372 . S
C563 C564 1.400 . S
C563 C568 1.490 . S
C564 H554 0.930 . S
C564 C563 1.400 . S
C564 C567 1.386 . S
H565 C581 0.930 . S
H566 C582 0.931 . S
C567 H555 0.929 . S
C567 C561 1.390 . S
C567 C564 1.386 . S
C568 C563 1.490 . S
C568 C570 1.395 . S
C568 C571 1.403 . S
H569 C575 0.930 . S
C570 H556 0.930 . S
C570 C568 1.395 . S
C570 C573 1.403 . S
C571 C568 1.403 . S
C571 C572 1.524 . S
C571 C575 1.400 . S
C572 H557 0.960 . S
C572 H558 0.960 . S
C572 H559 0.960 . S
C572 C571 1.524 . S
C573 C570 1.403 . S
C573 C574 1.392 . S
C573 C577 1.495 . S
C574 C573 1.392 . S
C574 C575 1.385 . S
C574 C576 1.478 . S
C575 H569 0.930 . S
C575 C571 1.400 . S
C575 C574 1.385 . S
C576 C574 1.478 . S
C576 C578 1.381 . S
C576 C582 1.383 . S
C577 C573 1.495 . S
C577 H583 0.959 . S
C577 H584 0.961 . S
C577 H585 0.960 . S
C578 C576 1.381 . S
C578 C579 1.394 . S
C578 H586 0.930 . S
C579 C578 1.394 . S
C579 C580 1.383 . S
C579 H587 0.929 . S
C580 C579 1.383 . S
C580 C581 1.377 . S
C581 H565 0.930 . S
C581 C580 1.377 . S
C581 C582 1.379 . S
C582 H566 0.931 . S
C582 C576 1.383 . S
C582 C581 1.379 . S
H583 C577 0.959 . S
H584 C577 0.961 . S
H585 C577 0.960 . S
H586 C578 0.930 . S
H587 C579 0.929 . S
H588 C596 0.929 . S
H589 C598 0.930 . S
H590 C600 0.930 . S
H591 C603 0.929 . S
H592 C606 0.930 . S
H593 C608 0.960 . S
H594 C608 0.960 . S
H595 C608 0.960 1_554 S
C596 H588 0.929 . S
C596 C597 1.377 . S
C596 C598 1.384 . S
C597 C596 1.377 . S
C597 C603 1.390 . S
C598 H589 0.930 . S
C598 C596 1.384 . S
C598 C599 1.372 . S
C599 C598 1.372 . S
C599 C600 1.400 . S
C599 C604 1.490 . S
C600 H590 0.930 . S
C600 C599 1.400 . S
C600 C603 1.386 . S
H601 C617 0.930 . S
H602 C618 0.931 . S
C603 H591 0.929 . S
C603 C597 1.390 . S
C603 C600 1.386 . S
C604 C599 1.490 . S
C604 C606 1.395 . S
C604 C607 1.403 . S
H605 C611 0.930 . S
C606 H592 0.930 . S
C606 C604 1.395 . S
C606 C609 1.403 . S
C607 C604 1.403 . S
C607 C608 1.524 1_554 S
C607 C611 1.400 1_554 S
C608 H593 0.960 . S
C608 H594 0.960 . S
C608 H595 0.960 1_556 S
C608 C607 1.524 1_556 S
C609 C606 1.403 . S
C609 C610 1.392 1_554 S
C609 C613 1.495 . S
C610 C609 1.392 1_556 S
C610 C611 1.385 . S
C610 C612 1.478 . S
C611 H605 0.930 . S
C611 C607 1.400 1_556 S
C611 C610 1.385 . S
C612 C610 1.478 . S
C612 C614 1.381 . S
C612 C618 1.383 . S
C613 C609 1.495 . S
C613 H619 0.959 . S
C613 H620 0.961 . S
C613 H621 0.960 . S
C614 C612 1.381 . S
C614 C615 1.394 . S
C614 H622 0.930 . S
C615 C614 1.394 . S
C615 C616 1.383 . S
C615 H623 0.929 . S
C616 C615 1.383 . S
C616 C617 1.377 . S
C617 H601 0.930 . S
C617 C616 1.377 . S
C617 C618 1.379 . S
C618 H602 0.931 . S
C618 C612 1.383 . S
C618 C617 1.379 . S
H619 C613 0.959 . S
H620 C613 0.961 . S
H621 C613 0.960 . S
H622 C614 0.930 . S
H623 C615 0.929 . S
H624 C632 0.929 . S
H625 C634 0.930 . S
H626 C636 0.930 . S
H627 C639 0.929 . S
H628 C642 0.930 . S
H629 C644 0.960 . S
H630 C644 0.960 . S
H631 C644 0.960 . S
C632 H624 0.929 . S
C632 C633 1.377 . S
C632 C634 1.384 . S
C633 C632 1.377 . S
C633 C639 1.390 . S
C634 H625 0.930 . S
C634 C632 1.384 . S
C634 C635 1.372 . S
C635 C634 1.372 . S
C635 C636 1.400 . S
C635 C640 1.490 . S
C636 H626 0.930 . S
C636 C635 1.400 . S
C636 C639 1.386 . S
H637 C653 0.930 . S
H638 C654 0.931 . S
C639 H627 0.929 . S
C639 C633 1.390 . S
C639 C636 1.386 . S
C640 C635 1.490 . S
C640 C642 1.395 . S
C640 C643 1.403 . S
H641 C647 0.930 . S
C642 H628 0.930 . S
C642 C640 1.395 . S
C642 C645 1.403 . S
C643 C640 1.403 . S
C643 C644 1.524 . S
C643 C647 1.400 . S
C644 H629 0.960 . S
C644 H630 0.960 . S
C644 H631 0.960 . S
C644 C643 1.524 . S
C645 C642 1.403 . S
C645 C646 1.392 . S
C645 C649 1.495 . S
C646 C645 1.392 . S
C646 C647 1.385 . S
C646 C648 1.478 . S
C647 H641 0.930 . S
C647 C643 1.400 . S
C647 C646 1.385 . S
C648 C646 1.478 . S
C648 C650 1.381 . S
C648 C654 1.383 . S
C649 C645 1.495 . S
C649 H655 0.959 . S
C649 H656 0.961 . S
C649 H657 0.960 . S
C650 C648 1.381 . S
C650 C651 1.394 . S
C650 H658 0.930 . S
C651 C650 1.394 . S
C651 C652 1.383 . S
C651 H659 0.929 . S
C652 C651 1.383 . S
C652 C653 1.377 . S
C653 H637 0.930 . S
C653 C652 1.377 . S
C653 C654 1.379 . S
C654 H638 0.931 . S
C654 C648 1.383 . S
C654 C653 1.379 . S
H655 C649 0.959 . S
H656 C649 0.961 . S
H657 C649 0.960 . S
H658 C650 0.930 . S
H659 C651 0.929 . S
H660 C668 0.929 . S
H661 C670 0.930 . S
H662 C672 0.930 . S
H663 C675 0.929 . S
H664 C678 0.930 . S
H665 C680 0.960 . S
H666 C680 0.960 . S
H667 C680 0.960 . S
C668 H660 0.929 . S
C668 C669 1.377 . S
C668 C670 1.384 . S
C669 C668 1.377 . S
C669 C675 1.390 . S
C670 H661 0.930 . S
C670 C668 1.384 . S
C670 C671 1.372 . S
C671 C670 1.372 . S
C671 C672 1.400 . S
C671 C676 1.490 . S
C672 H662 0.930 . S
C672 C671 1.400 . S
C672 C675 1.386 . S
H673 C689 0.930 . S
H674 C690 0.931 . S
C675 H663 0.929 . S
C675 C669 1.390 . S
C675 C672 1.386 . S
C676 C671 1.490 . S
C676 C678 1.395 . S
C676 C679 1.403 . S
H677 C683 0.930 . S
C678 H664 0.930 . S
C678 C676 1.395 . S
C678 C681 1.403 . S
C679 C676 1.403 . S
C679 C680 1.524 . S
C679 C683 1.400 . S
C680 H665 0.960 . S
C680 H666 0.960 . S
C680 H667 0.960 . S
C680 C679 1.524 . S
C681 C678 1.403 . S
C681 C682 1.392 . S
C681 C685 1.495 . S
C682 C681 1.392 . S
C682 C683 1.385 . S
C682 C684 1.478 . S
C683 H677 0.930 . S
C683 C679 1.400 . S
C683 C682 1.385 . S
C684 C682 1.478 . S
C684 C686 1.381 . S
C684 C690 1.383 . S
C685 C681 1.495 . S
C685 H691 0.959 . S
C685 H692 0.961 . S
C685 H693 0.960 . S
C686 C684 1.381 . S
C686 C687 1.394 . S
C686 H694 0.930 . S
C687 C686 1.394 . S
C687 C688 1.383 . S
C687 H695 0.929 . S
C688 C687 1.383 . S
C688 C689 1.377 . S
C689 H673 0.930 . S
C689 C688 1.377 . S
C689 C690 1.379 . S
C690 H674 0.931 . S
C690 C684 1.383 . S
C690 C689 1.379 . S
H691 C685 0.959 . S
H692 C685 0.961 . S
H693 C685 0.960 . S
H694 C686 0.930 . S
H695 C687 0.929 . S
H696 C704 0.929 . S
H697 C706 0.930 . S
H698 C708 0.930 . S
H699 C711 0.929 . S
H700 C714 0.930 . S
H701 C716 0.960 . S
H702 C716 0.960 . S
H703 C716 0.960 . S
C704 H696 0.929 . S
C704 C705 1.377 . S
C704 C706 1.384 . S
C705 C704 1.377 . S
C705 C711 1.390 . S
C706 H697 0.930 . S
C706 C704 1.384 . S
C706 C707 1.372 . S
C707 C706 1.372 . S
C707 C708 1.400 . S
C707 C712 1.490 . S
C708 H698 0.930 . S
C708 C707 1.400 . S
C708 C711 1.386 . S
H709 C725 0.919 1_545 S
H710 C726 0.931 . S
C711 H699 0.929 . S
C711 C705 1.390 . S
C711 C708 1.386 . S
C712 C707 1.490 . S
C712 C714 1.395 . S
C712 C715 1.403 . S
H713 C719 0.930 . S
C714 H700 0.930 . S
C714 C712 1.395 . S
C714 C717 1.403 . S
C715 C712 1.403 . S
C715 C716 1.524 . S
C715 C719 1.400 . S
C716 H701 0.960 . S
C716 H702 0.960 . S
C716 H703 0.960 . S
C716 C715 1.524 . S
C717 C714 1.403 . S
C717 C718 1.392 . S
C717 C721 1.495 . S
C718 C717 1.392 . S
C718 C719 1.385 . S
C718 C720 1.478 . S
C719 H713 0.930 . S
C719 C715 1.400 . S
C719 C718 1.385 . S
C720 C718 1.478 . S
C720 C722 1.381 . S
C720 C726 1.383 . S
C721 C717 1.495 . S
C721 H727 0.959 . S
C721 H728 0.961 . S
C721 H729 0.960 . S
C722 C720 1.381 . S
C722 C723 1.394 . S
C722 H730 0.930 . S
C723 C722 1.394 . S
C723 C724 1.383 . S
C723 H731 0.929 . S
C724 C723 1.383 . S
C724 C725 1.377 . S
C725 H709 0.919 1_565 S
C725 C724 1.377 . S
C725 C726 1.379 . S
C726 H710 0.931 . S
C726 C720 1.383 . S
C726 C725 1.379 . S
H727 C721 0.959 . S
H728 C721 0.961 . S
H729 C721 0.960 . S
H730 C722 0.930 . S
H731 C723 0.929 . S
H732 C740 0.929 1_556 S
H733 C742 0.930 . S
H734 C744 0.930 . S
H735 C747 0.929 . S
H736 C750 0.930 . S
H737 C752 0.960 . S
H738 C752 0.960 . S
H739 C752 0.960 . S
C740 H732 0.929 1_554 S
C740 C741 1.377 . S
C740 C742 1.384 . S
C741 C740 1.377 . S
C741 C747 1.390 . S
C742 H733 0.930 . S
C742 C740 1.384 . S
C742 C743 1.372 . S
C743 C742 1.372 . S
C743 C744 1.400 . S
C743 C748 1.490 . S
C744 H734 0.930 . S
C744 C743 1.400 . S
C744 C747 1.386 . S
H745 C761 0.930 . S
H746 C762 0.931 . S
C747 H735 0.929 . S
C747 C741 1.390 . S
C747 C744 1.386 . S
C748 C743 1.490 . S
C748 C750 1.395 . S
C748 C751 1.403 . S
H749 C755 0.930 . S
C750 H736 0.930 . S
C750 C748 1.395 . S
C750 C753 1.403 . S
C751 C748 1.403 . S
C751 C752 1.524 . S
C751 C755 1.400 . S
C752 H737 0.960 . S
C752 H738 0.960 . S
C752 H739 0.960 . S
C752 C751 1.524 . S
C753 C750 1.403 . S
C753 C754 1.392 . S
C753 C757 1.495 . S
C754 C753 1.392 . S
C754 C755 1.385 . S
C754 C756 1.478 . S
C755 H749 0.930 . S
C755 C751 1.400 . S
C755 C754 1.385 . S
C756 C754 1.478 . S
C756 C758 1.381 . S
C756 C762 1.383 . S
C757 C753 1.495 . S
C757 H763 0.959 . S
C757 H764 0.961 . S
C757 H765 0.960 . S
C758 C756 1.381 . S
C758 C759 1.394 . S
C758 H766 0.930 . S
C759 C758 1.394 . S
C759 C760 1.383 . S
C759 H767 0.929 . S
C760 C759 1.383 . S
C760 C761 1.377 . S
C761 H745 0.930 . S
C761 C760 1.377 . S
C761 C762 1.379 . S
C762 H746 0.931 . S
C762 C756 1.383 . S
C762 C761 1.379 . S
H763 C757 0.959 . S
H764 C757 0.961 . S
H765 C757 0.960 . S
H766 C758 0.930 . S
H767 C759 0.929 . S
H768 C776 0.929 . S
H769 C778 0.930 . S
H770 C780 0.930 . S
H771 C783 0.929 1_565 S
H772 C786 0.930 . S
H773 C788 0.960 . S
H774 C788 0.960 . S
H775 C788 0.960 . S
C776 H768 0.929 . S
C776 C777 1.377 . S
C776 C778 1.384 . S
C777 C776 1.377 . S
C777 C783 1.390 . S
C778 H769 0.930 . S
C778 C776 1.384 . S
C778 C779 1.372 . S
C779 C778 1.372 . S
C779 C780 1.400 . S
C779 C784 1.490 . S
C780 H770 0.930 . S
C780 C779 1.400 . S
C780 C783 1.386 . S
H781 C797 0.930 . S
H782 C798 0.931 . S
C783 H771 0.929 1_545 S
C783 C777 1.390 . S
C783 C780 1.386 . S
C784 C779 1.490 . S
C784 C786 1.395 . S
C784 C787 1.403 . S
H785 C791 0.930 . S
C786 H772 0.930 . S
C786 C784 1.395 . S
C786 C789 1.403 . S
C787 C784 1.403 . S
C787 C788 1.524 . S
C787 C791 1.400 . S
C788 H773 0.960 . S
C788 H774 0.960 . S
C788 H775 0.960 . S
C788 C787 1.524 . S
C789 C786 1.403 . S
C789 C790 1.392 . S
C789 C793 1.495 . S
C790 C789 1.392 . S
C790 C791 1.385 . S
C790 C792 1.478 . S
C791 H785 0.930 . S
C791 C787 1.400 . S
C791 C790 1.385 . S
C792 C790 1.478 . S
C792 C794 1.381 . S
C792 C798 1.383 . S
C793 C789 1.495 . S
C793 H799 0.959 . S
C793 H800 0.961 . S
C793 H801 0.960 . S
C794 C792 1.381 . S
C794 C795 1.394 . S
C794 H802 0.930 . S
C795 C794 1.394 . S
C795 C796 1.383 . S
C795 H803 0.929 . S
C796 C795 1.383 . S
C796 C797 1.377 . S
C797 H781 0.930 . S
C797 C796 1.377 . S
C797 C798 1.379 . S
C798 H782 0.931 . S
C798 C792 1.383 . S
C798 C797 1.379 . S
H799 C793 0.959 . S
H800 C793 0.961 . S
H801 C793 0.960 . S
H802 C794 0.930 . S
H803 C795 0.929 . S
H804 C812 0.929 . S
H805 C814 0.930 . S
H806 C816 0.930 . S
H807 C819 0.929 . S
H808 C822 0.930 . S
H809 C824 0.960 . S
H810 C824 0.960 . S
H811 C824 0.960 . S
C812 H804 0.929 . S
C812 C813 1.377 . S
C812 C814 1.384 . S
C813 C812 1.377 . S
C813 C819 1.390 . S
C814 H805 0.930 . S
C814 C812 1.384 . S
C814 C815 1.372 . S
C815 C814 1.372 . S
C815 C816 1.400 . S
C815 C820 1.490 . S
C816 H806 0.930 . S
C816 C815 1.400 . S
C816 C819 1.386 . S
H817 C833 0.930 . S
H818 C834 0.931 . S
C819 H807 0.929 . S
C819 C813 1.390 . S
C819 C816 1.386 . S
C820 C815 1.490 . S
C820 C822 1.395 . S
C820 C823 1.403 . S
H821 C827 0.930 . S
C822 H808 0.930 . S
C822 C820 1.395 . S
C822 C825 1.403 . S
C823 C820 1.403 . S
C823 C824 1.524 . S
C823 C827 1.400 . S
C824 H809 0.960 . S
C824 H810 0.960 . S
C824 H811 0.960 . S
C824 C823 1.524 . S
C825 C822 1.403 . S
C825 C826 1.392 . S
C825 C829 1.495 . S
C826 C825 1.392 . S
C826 C827 1.385 . S
C826 C828 1.478 . S
C827 H821 0.930 . S
C827 C823 1.400 . S
C827 C826 1.385 . S
C828 C826 1.478 . S
C828 C830 1.381 . S
C828 C834 1.383 . S
C829 C825 1.495 . S
C829 H835 0.959 . S
C829 H836 0.961 . S
C829 H837 0.960 . S
C830 C828 1.381 . S
C830 C831 1.394 . S
C830 H838 0.930 . S
C831 C830 1.394 . S
C831 C832 1.383 . S
C831 H839 0.929 . S
C832 C831 1.383 . S
C832 C833 1.377 . S
C833 H817 0.930 . S
C833 C832 1.377 . S
C833 C834 1.379 . S
C834 H818 0.931 . S
C834 C828 1.383 . S
C834 C833 1.379 . S
H835 C829 0.959 . S
H836 C829 0.961 . S
H837 C829 0.960 . S
H838 C830 0.930 . S
H839 C831 0.929 . S
H840 C848 0.929 . S
H841 C850 0.930 . S
H842 C852 0.930 . S
H843 C855 0.929 . S
H844 C858 0.930 . S
H845 C860 0.960 . S
H846 C860 0.960 . S
H847 C860 0.960 . S
C848 H840 0.929 . S
C848 C849 1.377 . S
C848 C850 1.384 . S
C849 C848 1.377 . S
C849 C855 1.390 . S
C850 H841 0.930 . S
C850 C848 1.384 . S
C850 C851 1.372 . S
C851 C850 1.372 . S
C851 C852 1.400 . S
C851 C856 1.490 . S
C852 H842 0.930 . S
C852 C851 1.400 . S
C852 C855 1.386 . S
H853 C869 0.930 . S
H854 C870 0.931 . S
C855 H843 0.929 . S
C855 C849 1.390 . S
C855 C852 1.386 . S
C856 C851 1.490 . S
C856 C858 1.395 . S
C856 C859 1.403 . S
H857 C863 0.930 . S
C858 H844 0.930 . S
C858 C856 1.395 . S
C858 C861 1.403 . S
C859 C856 1.403 . S
C859 C860 1.524 . S
C859 C863 1.400 . S
C860 H845 0.960 . S
C860 H846 0.960 . S
C860 H847 0.960 . S
C860 C859 1.524 . S
C861 C858 1.403 . S
C861 C862 1.392 . S
C861 C865 1.495 . S
C862 C861 1.392 . S
C862 C863 1.385 . S
C862 C864 1.478 . S
C863 H857 0.930 . S
C863 C859 1.400 . S
C863 C862 1.385 . S
C864 C862 1.478 . S
C864 C866 1.381 . S
C864 C870 1.383 . S
C865 C861 1.495 . S
C865 H871 0.959 . S
C865 H872 0.961 . S
C865 H873 0.960 1_556 S
C866 C864 1.381 . S
C866 C867 1.394 1_556 S
C866 H874 0.930 1_556 S
C867 C866 1.394 1_554 S
C867 C868 1.383 1_554 S
C867 H875 0.929 . S
C868 C867 1.383 1_556 S
C868 C869 1.377 . S
C869 H853 0.930 . S
C869 C868 1.377 . S
C869 C870 1.379 . S
C870 H854 0.931 . S
C870 C864 1.383 . S
C870 C869 1.379 . S
H871 C865 0.959 . S
H872 C865 0.961 . S
H873 C865 0.960 1_554 S
H874 C866 0.930 1_554 S
H875 C867 0.929 . S
H876 C884 0.929 . S
H877 C886 0.930 . S
H878 C888 0.930 . S
H879 C891 0.929 1_455 S
H880 C894 0.930 . S
H881 C896 0.960 . S
H882 C896 0.960 . S
H883 C896 0.960 . S
C884 H876 0.929 . S
C884 C885 1.377 . S
C884 C886 1.384 . S
C885 C884 1.377 . S
C885 C891 1.390 . S
C886 H877 0.930 . S
C886 C884 1.384 . S
C886 C887 1.372 . S
C887 C886 1.372 . S
C887 C888 1.400 . S
C887 C892 1.490 . S
C888 H878 0.930 . S
C888 C887 1.400 . S
C888 C891 1.386 . S
H889 C905 0.930 . S
H890 C906 0.931 . S
C891 H879 0.929 1_655 S
C891 C885 1.390 . S
C891 C888 1.386 . S
C892 C887 1.490 . S
C892 C894 1.395 . S
C892 C895 1.403 . S
H893 C899 0.930 . S
C894 H880 0.930 . S
C894 C892 1.395 . S
C894 C897 1.403 . S
C895 C892 1.403 . S
C895 C896 1.524 . S
C895 C899 1.400 . S
C896 H881 0.960 . S
C896 H882 0.960 . S
C896 H883 0.960 . S
C896 C895 1.524 . S
C897 C894 1.403 . S
C897 C898 1.392 . S
C897 C901 1.495 . S
C898 C897 1.392 . S
C898 C899 1.385 . S
C898 C900 1.478 . S
C899 H893 0.930 . S
C899 C895 1.400 . S
C899 C898 1.385 . S
C900 C898 1.478 . S
C900 C902 1.381 . S
C900 C906 1.383 . S
C901 C897 1.495 . S
C901 H907 0.959 . S
C901 H908 0.961 . S
C901 H909 0.960 . S
C902 C900 1.381 . S
C902 C903 1.394 . S
C902 H910 0.930 . S
C903 C902 1.394 . S
C903 C904 1.383 . S
C903 H911 0.929 . S
C904 C903 1.383 . S
C904 C905 1.377 . S
C905 H889 0.930 . S
C905 C904 1.377 . S
C905 C906 1.379 . S
C906 H890 0.931 . S
C906 C900 1.383 . S
C906 C905 1.379 . S
H907 C901 0.959 . S
H908 C901 0.961 . S
H909 C901 0.960 . S
H910 C902 0.930 . S
H911 C903 0.929 . S
H912 C920 0.929 . S
H913 C922 0.930 . S
H914 C924 0.930 . S
H915 C927 0.929 . S
H916 C930 0.930 . S
H917 C932 0.960 . S
H918 C932 0.960 . S
H919 C932 0.960 . S
C920 H912 0.929 . S
C920 C921 1.377 . S
C920 C922 1.384 . S
C921 C920 1.377 . S
C921 C927 1.390 . S
C922 H913 0.930 . S
C922 C920 1.384 . S
C922 C923 1.372 . S
C923 C922 1.372 . S
C923 C924 1.400 . S
C923 C928 1.490 . S
C924 H914 0.930 . S
C924 C923 1.400 . S
C924 C927 1.386 . S
H925 C941 0.930 . S
H926 C942 0.931 . S
C927 H915 0.929 . S
C927 C921 1.390 . S
C927 C924 1.386 . S
C928 C923 1.490 . S
C928 C930 1.395 . S
C928 C931 1.403 . S
H929 C935 0.930 . S
C930 H916 0.930 . S
C930 C928 1.395 . S
C930 C933 1.403 . S
C931 C928 1.403 . S
C931 C932 1.524 . S
C931 C935 1.400 . S
C932 H917 0.960 . S
C932 H918 0.960 . S
C932 H919 0.960 . S
C932 C931 1.524 . S
C933 C930 1.403 . S
C933 C934 1.392 . S
C933 C937 1.495 . S
C934 C933 1.392 . S
C934 C935 1.385 . S
C934 C936 1.478 . S
C935 H929 0.930 . S
C935 C931 1.400 . S
C935 C934 1.385 . S
C936 C934 1.478 . S
C936 C938 1.381 . S
C936 C942 1.383 . S
C937 C933 1.495 . S
C937 H943 0.959 . S
C937 H944 0.961 . S
C937 H945 0.960 . S
C938 C936 1.381 . S
C938 C939 1.394 . S
C938 H946 0.930 . S
C939 C938 1.394 . S
C939 C940 1.383 . S
C939 H947 0.929 . S
C940 C939 1.383 . S
C940 C941 1.377 . S
C941 H925 0.930 . S
C941 C940 1.377 . S
C941 C942 1.379 . S
C942 H926 0.931 . S
C942 C936 1.383 . S
C942 C941 1.379 . S
H943 C937 0.959 . S
H944 C937 0.961 . S
H945 C937 0.960 . S
H946 C938 0.930 . S
H947 C939 0.929 . S
H948 C956 0.929 . S
H949 C958 0.930 . S
H950 C960 0.930 . S
H951 C963 0.929 . S
H952 C966 0.930 . S
H953 C968 0.960 . S
H954 C968 0.960 . S
H955 C968 0.960 . S
C956 H948 0.929 . S
C956 C957 1.377 . S
C956 C958 1.384 . S
C957 C956 1.377 . S
C957 C963 1.390 . S
C958 H949 0.930 . S
C958 C956 1.384 . S
C958 C959 1.372 . S
C959 C958 1.372 . S
C959 C960 1.400 . S
C959 C964 1.490 . S
C960 H950 0.930 . S
C960 C959 1.400 . S
C960 C963 1.386 . S
H961 C977 0.930 1_655 S
H962 C978 0.931 . S
C963 H951 0.929 . S
C963 C957 1.390 . S
C963 C960 1.386 . S
C964 C959 1.490 . S
C964 C966 1.395 . S
C964 C967 1.403 . S
H965 C971 0.930 . S
C966 H952 0.930 . S
C966 C964 1.395 . S
C966 C969 1.403 . S
C967 C964 1.403 . S
C967 C968 1.524 . S
C967 C971 1.400 . S
C968 H953 0.960 . S
C968 H954 0.960 . S
C968 H955 0.960 . S
C968 C967 1.524 . S
C969 C966 1.403 . S
C969 C970 1.392 . S
C969 C973 1.495 . S
C970 C969 1.392 . S
C970 C971 1.385 . S
C970 C972 1.478 . S
C971 H965 0.930 . S
C971 C967 1.400 . S
C971 C970 1.385 . S
C972 C970 1.478 . S
C972 C974 1.381 . S
C972 C978 1.383 . S
C973 C969 1.495 . S
C973 H979 0.959 . S
C973 H980 0.961 . S
C973 H981 0.960 . S
C974 C972 1.381 . S
C974 C975 1.394 . S
C974 H982 0.930 . S
C975 C974 1.394 . S
C975 C976 1.383 . S
C975 H983 0.929 . S
C976 C975 1.383 . S
C976 C977 1.377 . S
C977 H961 0.930 1_455 S
C977 C976 1.377 . S
C977 C978 1.379 . S
C978 H962 0.931 . S
C978 C972 1.383 . S
C978 C977 1.379 . S
H979 C973 0.959 . S
H980 C973 0.961 . S
H981 C973 0.960 . S
H982 C974 0.930 . S
H983 C975 0.929 . S
C273 N167 1.240 . S
C292 N2 1.254 1_554 S
C309 N200 1.231 1_655 S
C328 N35 1.251 1_545 S
C345 N68 1.234 . S
C364 N233 1.265 . S
C381 N134 1.232 1_455 S
C400 N101 1.261 1_565 S
C417 C252 0.760 . S
C436 C21 0.772 . S
C453 C54 0.766 . S
C472 C153 0.753 . S
C489 C186 0.765 . S
C508 C87 0.770 . S
C525 C120 0.765 . S
C544 C219 0.747 . S
C561 C249 1.493 . S
C580 C18 1.488 . S
C597 C51 1.493 . S
C616 C150 1.500 . S
C633 C183 1.493 . S
C652 C84 1.484 . S
C669 C216 1.490 . S
C688 C117 1.504 . S
C705 N13 1.677 . S
C724 C106 1.681 1_565 S
C741 C7 1.685 . S
C760 N46 1.657 . S
C777 C40 1.678 1_545 S
C796 N79 1.684 . S
C813 C73 1.686 . S
C832 N112 1.658 . S
C849 N145 1.677 . S
C868 C172 1.682 1_556 S
C885 C205 1.683 1_655 S
C904 N178 1.657 . S
C921 C238 1.679 . S
C940 N211 1.698 . S
C957 N244 1.679 . S
C976 C139 1.671 1_455 S
