# Generated by pormake.
# Topology uli, (4)-cn, num edge types: 1
# Building blocks:
#     Node 0, Type 0, BuildingBlock: CEKHIL_clean_sbu_0, # of connection points: 4
#     Node 1, Type 0, BuildingBlock: CEKHIL_clean_sbu_0, # of connection points: 4
#     Node 2, Type 0, BuildingBlock: CEKHIL_clean_sbu_0, # of connection points: 4
#     Node 3, Type 0, BuildingBlock: CEKHIL_clean_sbu_0, # of connection points: 4
#     Node 4, Type 0, BuildingBlock: CEKHIL_clean_sbu_0, # of connection points: 4
#     Node 5, Type 0, BuildingBlock: CEKHIL_clean_sbu_0, # of connection points: 4
#     Node 6, Type 0, BuildingBlock: CEKHIL_clean_sbu_0, # of connection points: 4
#     Node 7, Type 0, BuildingBlock: CEKHIL_clean_sbu_0, # of connection points: 4
#     Node 8, Type 0, BuildingBlock: CEKHIL_clean_sbu_0, # of connection points: 4
#     Node 9, Type 0, BuildingBlock: CEKHIL_clean_sbu_0, # of connection points: 4
#     Node 10, Type 0, BuildingBlock: CEKHIL_clean_sbu_0, # of connection points: 4
#     Node 11, Type 0, BuildingBlock: CEKHIL_clean_sbu_0, # of connection points: 4
#     Node 12, Type 0, BuildingBlock: CEKHIL_clean_sbu_0, # of connection points: 4
#     Node 13, Type 0, BuildingBlock: CEKHIL_clean_sbu_0, # of connection points: 4
#     Node 14, Type 0, BuildingBlock: CEKHIL_clean_sbu_0, # of connection points: 4
#     Node 15, Type 0, BuildingBlock: CEKHIL_clean_sbu_0, # of connection points: 4
#     Node 16, Type 0, BuildingBlock: CEKHIL_clean_sbu_0, # of connection points: 4
#     Node 17, Type 0, BuildingBlock: CEKHIL_clean_sbu_0, # of connection points: 4
#     Node 18, Type 0, BuildingBlock: CEKHIL_clean_sbu_0, # of connection points: 4
#     Node 19, Type 0, BuildingBlock: CEKHIL_clean_sbu_0, # of connection points: 4
#     Node 20, Type 0, BuildingBlock: CEKHIL_clean_sbu_0, # of connection points: 4
#     Node 21, Type 0, BuildingBlock: CEKHIL_clean_sbu_0, # of connection points: 4
#     Node 22, Type 0, BuildingBlock: CEKHIL_clean_sbu_0, # of connection points: 4
#     Node 23, Type 0, BuildingBlock: CEKHIL_clean_sbu_0, # of connection points: 4
#     Node 24, Type 0, BuildingBlock: CEKHIL_clean_sbu_0, # of connection points: 4
#     Node 25, Type 0, BuildingBlock: CEKHIL_clean_sbu_0, # of connection points: 4
#     Node 26, Type 0, BuildingBlock: CEKHIL_clean_sbu_0, # of connection points: 4
#     Node 27, Type 0, BuildingBlock: CEKHIL_clean_sbu_0, # of connection points: 4
#     Node 28, Type 0, BuildingBlock: CEKHIL_clean_sbu_0, # of connection points: 4
#     Node 29, Type 0, BuildingBlock: CEKHIL_clean_sbu_0, # of connection points: 4
#     Node 30, Type 0, BuildingBlock: CEKHIL_clean_sbu_0, # of connection points: 4
#     Node 31, Type 0, BuildingBlock: CEKHIL_clean_sbu_0, # of connection points: 4
#     Node 32, Type 0, BuildingBlock: CEKHIL_clean_sbu_0, # of connection points: 4
#     Node 33, Type 0, BuildingBlock: CEKHIL_clean_sbu_0, # of connection points: 4
#     Node 34, Type 0, BuildingBlock: CEKHIL_clean_sbu_0, # of connection points: 4
#     Node 35, Type 0, BuildingBlock: CEKHIL_clean_sbu_0, # of connection points: 4
#     Node 36, Type 0, BuildingBlock: CEKHIL_clean_sbu_0, # of connection points: 4
#     Node 37, Type 0, BuildingBlock: CEKHIL_clean_sbu_0, # of connection points: 4
#     Node 38, Type 0, BuildingBlock: CEKHIL_clean_sbu_0, # of connection points: 4
#     Node 39, Type 0, BuildingBlock: CEKHIL_clean_sbu_0, # of connection points: 4
#     Node 40, Type 0, BuildingBlock: CEKHIL_clean_sbu_0, # of connection points: 4
#     Node 41, Type 0, BuildingBlock: CEKHIL_clean_sbu_0, # of connection points: 4
#     Node 42, Type 0, BuildingBlock: CEKHIL_clean_sbu_0, # of connection points: 4
#     Node 43, Type 0, BuildingBlock: CEKHIL_clean_sbu_0, # of connection points: 4
#     Node 44, Type 0, BuildingBlock: CEKHIL_clean_sbu_0, # of connection points: 4
#     Node 45, Type 0, BuildingBlock: CEKHIL_clean_sbu_0, # of connection points: 4
#     Node 46, Type 0, BuildingBlock: CEKHIL_clean_sbu_0, # of connection points: 4
#     Node 47, Type 0, BuildingBlock: CEKHIL_clean_sbu_0, # of connection points: 4
#     Edge 48, Type (0, 0), BuildingBlock: TEMPAE_clean_linker_10, # of connection points: 2
#     Edge 49, Type (0, 0), BuildingBlock: TEMPAE_clean_linker_10, # of connection points: 2
#     Edge 50, Type (0, 0), BuildingBlock: TEMPAE_clean_linker_10, # of connection points: 2
#     Edge 51, Type (0, 0), BuildingBlock: TEMPAE_clean_linker_10, # of connection points: 2
#     Edge 52, Type (0, 0), BuildingBlock: TEMPAE_clean_linker_10, # of connection points: 2
#     Edge 53, Type (0, 0), BuildingBlock: TEMPAE_clean_linker_10, # of connection points: 2
#     Edge 54, Type (0, 0), BuildingBlock: TEMPAE_clean_linker_10, # of connection points: 2
#     Edge 55, Type (0, 0), BuildingBlock: TEMPAE_clean_linker_10, # of connection points: 2
#     Edge 56, Type (0, 0), BuildingBlock: TEMPAE_clean_linker_10, # of connection points: 2
#     Edge 57, Type (0, 0), BuildingBlock: TEMPAE_clean_linker_10, # of connection points: 2
#     Edge 58, Type (0, 0), BuildingBlock: TEMPAE_clean_linker_10, # of connection points: 2
#     Edge 59, Type (0, 0), BuildingBlock: TEMPAE_clean_linker_10, # of connection points: 2
#     Edge 60, Type (0, 0), BuildingBlock: TEMPAE_clean_linker_10, # of connection points: 2
#     Edge 61, Type (0, 0), BuildingBlock: TEMPAE_clean_linker_10, # of connection points: 2
#     Edge 62, Type (0, 0), BuildingBlock: TEMPAE_clean_linker_10, # of connection points: 2
#     Edge 63, Type (0, 0), BuildingBlock: TEMPAE_clean_linker_10, # of connection points: 2
#     Edge 64, Type (0, 0), BuildingBlock: TEMPAE_clean_linker_10, # of connection points: 2
#     Edge 65, Type (0, 0), BuildingBlock: TEMPAE_clean_linker_10, # of connection points: 2
#     Edge 66, Type (0, 0), BuildingBlock: TEMPAE_clean_linker_10, # of connection points: 2
#     Edge 67, Type (0, 0), BuildingBlock: TEMPAE_clean_linker_10, # of connection points: 2
#     Edge 68, Type (0, 0), BuildingBlock: TEMPAE_clean_linker_10, # of connection points: 2
#     Edge 69, Type (0, 0), BuildingBlock: TEMPAE_clean_linker_10, # of connection points: 2
#     Edge 70, Type (0, 0), BuildingBlock: TEMPAE_clean_linker_10, # of connection points: 2
#     Edge 71, Type (0, 0), BuildingBlock: TEMPAE_clean_linker_10, # of connection points: 2
#     Edge 72, Type (0, 0), BuildingBlock: TEMPAE_clean_linker_10, # of connection points: 2
#     Edge 73, Type (0, 0), BuildingBlock: TEMPAE_clean_linker_10, # of connection points: 2
#     Edge 74, Type (0, 0), BuildingBlock: TEMPAE_clean_linker_10, # of connection points: 2
#     Edge 75, Type (0, 0), BuildingBlock: TEMPAE_clean_linker_10, # of connection points: 2
#     Edge 76, Type (0, 0), BuildingBlock: TEMPAE_clean_linker_10, # of connection points: 2
#     Edge 77, Type (0, 0), BuildingBlock: TEMPAE_clean_linker_10, # of connection points: 2
#     Edge 78, Type (0, 0), BuildingBlock: TEMPAE_clean_linker_10, # of connection points: 2
#     Edge 79, Type (0, 0), BuildingBlock: TEMPAE_clean_linker_10, # of connection points: 2
#     Edge 80, Type (0, 0), BuildingBlock: TEMPAE_clean_linker_10, # of connection points: 2
#     Edge 81, Type (0, 0), BuildingBlock: TEMPAE_clean_linker_10, # of connection points: 2
#     Edge 82, Type (0, 0), BuildingBlock: TEMPAE_clean_linker_10, # of connection points: 2
#     Edge 83, Type (0, 0), BuildingBlock: TEMPAE_clean_linker_10, # of connection points: 2
#     Edge 84, Type (0, 0), BuildingBlock: TEMPAE_clean_linker_10, # of connection points: 2
#     Edge 85, Type (0, 0), BuildingBlock: TEMPAE_clean_linker_10, # of connection points: 2
#     Edge 86, Type (0, 0), BuildingBlock: TEMPAE_clean_linker_10, # of connection points: 2
#     Edge 87, Type (0, 0), BuildingBlock: TEMPAE_clean_linker_10, # of connection points: 2
#     Edge 88, Type (0, 0), BuildingBlock: TEMPAE_clean_linker_10, # of connection points: 2
#     Edge 89, Type (0, 0), BuildingBlock: TEMPAE_clean_linker_10, # of connection points: 2
#     Edge 90, Type (0, 0), BuildingBlock: TEMPAE_clean_linker_10, # of connection points: 2
#     Edge 91, Type (0, 0), BuildingBlock: TEMPAE_clean_linker_10, # of connection points: 2
#     Edge 92, Type (0, 0), BuildingBlock: TEMPAE_clean_linker_10, # of connection points: 2
#     Edge 93, Type (0, 0), BuildingBlock: TEMPAE_clean_linker_10, # of connection points: 2
#     Edge 94, Type (0, 0), BuildingBlock: TEMPAE_clean_linker_10, # of connection points: 2
#     Edge 95, Type (0, 0), BuildingBlock: TEMPAE_clean_linker_10, # of connection points: 2
#     Edge 96, Type (0, 0), BuildingBlock: TEMPAE_clean_linker_10, # of connection points: 2
#     Edge 97, Type (0, 0), BuildingBlock: TEMPAE_clean_linker_10, # of connection points: 2
#     Edge 98, Type (0, 0), BuildingBlock: TEMPAE_clean_linker_10, # of connection points: 2
#     Edge 99, Type (0, 0), BuildingBlock: TEMPAE_clean_linker_10, # of connection points: 2
#     Edge 100, Type (0, 0), BuildingBlock: TEMPAE_clean_linker_10, # of connection points: 2
#     Edge 101, Type (0, 0), BuildingBlock: TEMPAE_clean_linker_10, # of connection points: 2
#     Edge 102, Type (0, 0), BuildingBlock: TEMPAE_clean_linker_10, # of connection points: 2
#     Edge 103, Type (0, 0), BuildingBlock: TEMPAE_clean_linker_10, # of connection points: 2
#     Edge 104, Type (0, 0), BuildingBlock: TEMPAE_clean_linker_10, # of connection points: 2
#     Edge 105, Type (0, 0), BuildingBlock: TEMPAE_clean_linker_10, # of connection points: 2
#     Edge 106, Type (0, 0), BuildingBlock: TEMPAE_clean_linker_10, # of connection points: 2
#     Edge 107, Type (0, 0), BuildingBlock: TEMPAE_clean_linker_10, # of connection points: 2
#     Edge 108, Type (0, 0), BuildingBlock: TEMPAE_clean_linker_10, # of connection points: 2
#     Edge 109, Type (0, 0), BuildingBlock: TEMPAE_clean_linker_10, # of connection points: 2
#     Edge 110, Type (0, 0), BuildingBlock: TEMPAE_clean_linker_10, # of connection points: 2
#     Edge 111, Type (0, 0), BuildingBlock: TEMPAE_clean_linker_10, # of connection points: 2
#     Edge 112, Type (0, 0), BuildingBlock: TEMPAE_clean_linker_10, # of connection points: 2
#     Edge 113, Type (0, 0), BuildingBlock: TEMPAE_clean_linker_10, # of connection points: 2
#     Edge 114, Type (0, 0), BuildingBlock: TEMPAE_clean_linker_10, # of connection points: 2
#     Edge 115, Type (0, 0), BuildingBlock: TEMPAE_clean_linker_10, # of connection points: 2
#     Edge 116, Type (0, 0), BuildingBlock: TEMPAE_clean_linker_10, # of connection points: 2
#     Edge 117, Type (0, 0), BuildingBlock: TEMPAE_clean_linker_10, # of connection points: 2
#     Edge 118, Type (0, 0), BuildingBlock: TEMPAE_clean_linker_10, # of connection points: 2
#     Edge 119, Type (0, 0), BuildingBlock: TEMPAE_clean_linker_10, # of connection points: 2
#     Edge 120, Type (0, 0), BuildingBlock: TEMPAE_clean_linker_10, # of connection points: 2
#     Edge 121, Type (0, 0), BuildingBlock: TEMPAE_clean_linker_10, # of connection points: 2
#     Edge 122, Type (0, 0), BuildingBlock: TEMPAE_clean_linker_10, # of connection points: 2
#     Edge 123, Type (0, 0), BuildingBlock: TEMPAE_clean_linker_10, # of connection points: 2
#     Edge 124, Type (0, 0), BuildingBlock: TEMPAE_clean_linker_10, # of connection points: 2
#     Edge 125, Type (0, 0), BuildingBlock: TEMPAE_clean_linker_10, # of connection points: 2
#     Edge 126, Type (0, 0), BuildingBlock: TEMPAE_clean_linker_10, # of connection points: 2
#     Edge 127, Type (0, 0), BuildingBlock: TEMPAE_clean_linker_10, # of connection points: 2
#     Edge 128, Type (0, 0), BuildingBlock: TEMPAE_clean_linker_10, # of connection points: 2
#     Edge 129, Type (0, 0), BuildingBlock: TEMPAE_clean_linker_10, # of connection points: 2
#     Edge 130, Type (0, 0), BuildingBlock: TEMPAE_clean_linker_10, # of connection points: 2
#     Edge 131, Type (0, 0), BuildingBlock: TEMPAE_clean_linker_10, # of connection points: 2
#     Edge 132, Type (0, 0), BuildingBlock: TEMPAE_clean_linker_10, # of connection points: 2
#     Edge 133, Type (0, 0), BuildingBlock: TEMPAE_clean_linker_10, # of connection points: 2
#     Edge 134, Type (0, 0), BuildingBlock: TEMPAE_clean_linker_10, # of connection points: 2
#     Edge 135, Type (0, 0), BuildingBlock: TEMPAE_clean_linker_10, # of connection points: 2
#     Edge 136, Type (0, 0), BuildingBlock: TEMPAE_clean_linker_10, # of connection points: 2
#     Edge 137, Type (0, 0), BuildingBlock: TEMPAE_clean_linker_10, # of connection points: 2
#     Edge 138, Type (0, 0), BuildingBlock: TEMPAE_clean_linker_10, # of connection points: 2
#     Edge 139, Type (0, 0), BuildingBlock: TEMPAE_clean_linker_10, # of connection points: 2
#     Edge 140, Type (0, 0), BuildingBlock: TEMPAE_clean_linker_10, # of connection points: 2
#     Edge 141, Type (0, 0), BuildingBlock: TEMPAE_clean_linker_10, # of connection points: 2
#     Edge 142, Type (0, 0), BuildingBlock: TEMPAE_clean_linker_10, # of connection points: 2
#     Edge 143, Type (0, 0), BuildingBlock: TEMPAE_clean_linker_10, # of connection points: 2
# Relax obj value: 0.463
# Max RMSD: 0.155
# Mean RMSD: 0.155
data_MOF--net-uli--node1-CEKHIL_clean_sbu_0--edge1-TEMPAE_clean_linker_10
_symmetry_space_group_name_H-M    P1
_symmetry_Int_Tables_number       1
_symmetry_cell_setting            triclinic
loop_
_symmetry_equiv_pos_as_xyz
'x, y, z'
_cell_length_a     67.454187
_cell_length_b     67.505487
_cell_length_c     67.455478
_cell_angle_alpha  90.025094
_cell_angle_beta   90.005416
_cell_angle_gamma 90.027812
loop_
_atom_site_label
_atom_site_type_symbol
_atom_site_fract_x
_atom_site_fract_y
_atom_site_fract_z
_atom_type_partial_charge
Co0 Co 0.10651 0.26179 0.27356 0.0
O1 O 0.0831 0.2605 0.28983 0.0
O2 O 0.08371 0.26986 0.25834 0.0
C3 C 0.11974 0.2321 0.28113 0.0
O4 O 0.12752 0.26455 0.25207 0.0
Co5 Co 0.14836 0.26179 0.29319 0.0
O6 O 0.15767 0.25912 0.26532 0.0
C7 C 0.12555 0.29903 0.2909 0.0
C8 C 0.07342 0.26647 0.27429 0.0
C9 C 0.14642 0.26241 0.25047 0.0
O10 O 0.11154 0.29012 0.2815 0.0
O11 O 0.14035 0.28988 0.29849 0.0
O12 O 0.10535 0.23338 0.2684 0.0
O13 O 0.12337 0.24812 0.29095 0.0
Co14 Co 0.74246 0.11027 0.26442 0.0
O15 O 0.742 0.08623 0.27985 0.0
O16 O 0.73644 0.08816 0.24751 0.0
C17 C 0.77104 0.12343 0.27581 0.0
O18 O 0.74223 0.13163 0.24337 0.0
Co19 Co 0.74019 0.15182 0.28443 0.0
O20 O 0.74571 0.16174 0.25721 0.0
C21 C 0.70334 0.12916 0.2772 0.0
C22 C 0.73818 0.0772 0.26324 0.0
C23 C 0.74428 0.15051 0.24206 0.0
O24 O 0.71326 0.1151 0.26896 0.0
O25 O 0.7116 0.1439 0.28588 0.0
O26 O 0.77132 0.10933 0.26271 0.0
O27 O 0.75393 0.12677 0.28374 0.0
Co28 Co 0.89686 0.74369 0.25594 0.0
O29 O 0.9204 0.744 0.27193 0.0
O30 O 0.91869 0.73287 0.24102 0.0
C31 C 0.88612 0.77467 0.26209 0.0
O32 O 0.87541 0.7413 0.23487 0.0
Co33 Co 0.85554 0.74793 0.27609 0.0
O34 O 0.84587 0.74915 0.24824 0.0
C35 C 0.87578 0.70924 0.27633 0.0
C36 C 0.92931 0.73613 0.25679 0.0
C37 C 0.85664 0.74437 0.23343 0.0
O38 O 0.88984 0.71638 0.26563 0.0
O39 O 0.86196 0.71996 0.28372 0.0
O40 O 0.90007 0.77164 0.24915 0.0
O41 O 0.88145 0.75949 0.27274 0.0
Co42 Co 0.24596 0.89042 0.25535 0.0
O43 O 0.24256 0.91447 0.27018 0.0
O44 O 0.25108 0.91292 0.23847 0.0
C45 C 0.21826 0.87445 0.26484 0.0
O46 O 0.25044 0.8684 0.23522 0.0
Co47 Co 0.25136 0.85048 0.27793 0.0
O48 O 0.24899 0.83897 0.25087 0.0
C49 C 0.28553 0.87726 0.27305 0.0
C50 C 0.2472 0.92373 0.25396 0.0
C51 C 0.25044 0.84932 0.23511 0.0
O52 O 0.2749 0.88915 0.2626 0.0
O53 O 0.27826 0.86231 0.28222 0.0
O54 O 0.21742 0.88797 0.25116 0.0
O55 O 0.23486 0.87347 0.2743 0.0
Co56 Co 0.10574 0.74255 0.72657 0.0
O57 O 0.08118 0.74396 0.71202 0.0
O58 O 0.08398 0.73612 0.74382 0.0
C59 C 0.11966 0.77126 0.71672 0.0
O60 O 0.12795 0.73996 0.74672 0.0
Co61 Co 0.14628 0.73983 0.7046 0.0
O62 O 0.15758 0.74283 0.73168 0.0
C63 C 0.1224 0.70363 0.71055 0.0
C64 C 0.07258 0.7391 0.72858 0.0
C65 C 0.14699 0.74092 0.74723 0.0
O66 O 0.10913 0.71366 0.71986 0.0
O67 O 0.1372 0.71169 0.70179 0.0
O68 O 0.10601 0.77118 0.7303 0.0
O69 O 0.12199 0.75466 0.70745 0.0
Co70 Co 0.24907 0.10375 0.73473 0.0
O71 O 0.25157 0.08102 0.71768 0.0
O72 O 0.25647 0.081 0.7502 0.0
C73 C 0.2199 0.11554 0.72358 0.0
O74 O 0.24736 0.12372 0.75717 0.0
Co75 Co 0.24886 0.1464 0.71718 0.0
O76 O 0.24202 0.15416 0.74479 0.0
C77 C 0.28695 0.12572 0.72311 0.0
C78 C 0.25595 0.07115 0.73363 0.0
C79 C 0.24384 0.14231 0.75941 0.0
O80 O 0.27789 0.11086 0.73094 0.0
O81 O 0.27783 0.14028 0.71507 0.0
O82 O 0.2203 0.10069 0.73581 0.0
O83 O 0.23686 0.12049 0.71624 0.0
Co84 Co 0.8874 0.25367 0.70739 0.0
O85 O 0.91138 0.25499 0.69174 0.0
O86 O 0.90936 0.26026 0.72413 0.0
C87 C 0.87473 0.22478 0.69625 0.0
O88 O 0.86643 0.25326 0.72876 0.0
Co89 Co 0.84538 0.2552 0.68841 0.0
O90 O 0.83592 0.24986 0.71583 0.0
C91 C 0.86673 0.29255 0.69706 0.0
C92 C 0.92032 0.25906 0.70836 0.0
C93 C 0.8476 0.25129 0.73063 0.0
O94 O 0.8818 0.28274 0.70338 0.0
O95 O 0.85158 0.28425 0.68916 0.0
O96 O 0.88925 0.22495 0.70888 0.0
O97 O 0.87071 0.24178 0.68832 0.0
Co98 Co 0.73709 0.8838 0.72892 0.0
O99 O 0.73864 0.90621 0.71144 0.0
O100 O 0.73014 0.90768 0.74314 0.0
C101 C 0.76621 0.86946 0.72116 0.0
O102 O 0.73435 0.86381 0.75141 0.0
Co103 Co 0.73542 0.84129 0.71082 0.0
O104 O 0.73914 0.83321 0.73892 0.0
C105 C 0.69885 0.86518 0.71327 0.0
C106 C 0.73346 0.91694 0.72654 0.0
C107 C 0.73641 0.84495 0.75351 0.0
O108 O 0.70837 0.87924 0.72197 0.0
O109 O 0.70742 0.8499 0.70596 0.0
O110 O 0.76568 0.88437 0.73331 0.0
O111 O 0.74982 0.86589 0.71195 0.0
Co112 Co 0.25893 0.10601 0.25236 0.0
O113 O 0.27305 0.08152 0.24882 0.0
O114 O 0.24149 0.08402 0.25769 0.0
C115 C 0.26833 0.12156 0.22439 0.0
O116 O 0.23935 0.12842 0.25698 0.0
Co117 Co 0.28215 0.14569 0.25709 0.0
O118 O 0.25529 0.15768 0.25506 0.0
C119 C 0.27694 0.11942 0.29169 0.0
C120 C 0.25653 0.07275 0.25341 0.0
C121 C 0.23945 0.14749 0.25687 0.0
O122 O 0.26653 0.10732 0.28123 0.0
O123 O 0.28608 0.13429 0.28423 0.0
O124 O 0.25441 0.10827 0.22391 0.0
O125 O 0.27807 0.12256 0.24084 0.0
Co126 Co 0.89165 0.27012 0.26312 0.0
O127 O 0.91514 0.28632 0.26384 0.0
O128 O 0.91368 0.25481 0.27295 0.0
C129 C 0.88113 0.278 0.23238 0.0
O130 O 0.87052 0.24861 0.26398 0.0
Co131 Co 0.84987 0.28949 0.25932 0.0
O132 O 0.84091 0.26162 0.25583 0.0
C133 C 0.86959 0.28785 0.29842 0.0
C134 C 0.92429 0.27068 0.27033 0.0
C135 C 0.85191 0.24686 0.26014 0.0
O136 O 0.88418 0.27805 0.29098 0.0
O137 O 0.85576 0.29541 0.28782 0.0
O138 O 0.89522 0.26513 0.23483 0.0
O139 O 0.87607 0.28759 0.24815 0.0
Co140 Co 0.74131 0.89575 0.24414 0.0
O141 O 0.7247 0.91887 0.24436 0.0
O142 O 0.75664 0.91851 0.25212 0.0
C143 C 0.73224 0.88317 0.21453 0.0
O144 O 0.76316 0.87504 0.24511 0.0
Co145 Co 0.72213 0.85374 0.2439 0.0
O146 O 0.74994 0.84491 0.23969 0.0
C147 C 0.72507 0.87591 0.28146 0.0
C148 C 0.74035 0.9286 0.24993 0.0
C149 C 0.76486 0.85625 0.24238 0.0
O150 O 0.73477 0.88983 0.27274 0.0
O151 O 0.71702 0.8615 0.27208 0.0
O152 O 0.74497 0.89761 0.21543 0.0
O153 O 0.72339 0.87914 0.23099 0.0
Co154 Co 0.11035 0.71924 0.25553 0.0
O155 O 0.08656 0.70335 0.25533 0.0
O156 O 0.08797 0.73555 0.26179 0.0
C157 C 0.12396 0.70895 0.22684 0.0
O158 O 0.13123 0.74078 0.25654 0.0
Co159 Co 0.15238 0.70041 0.25776 0.0
O160 O 0.16175 0.72796 0.25292 0.0
C161 C 0.12898 0.70568 0.29446 0.0
C162 C 0.07726 0.71972 0.25948 0.0
C163 C 0.15009 0.74273 0.25463 0.0
O164 O 0.11491 0.71394 0.28459 0.0
O165 O 0.1441 0.69772 0.28618 0.0
O166 O 0.10956 0.72171 0.2268 0.0
O167 O 0.12741 0.70063 0.24375 0.0
Co168 Co 0.26672 0.88947 0.73859 0.0
O169 O 0.2822 0.91337 0.74028 0.0
O170 O 0.25077 0.91174 0.73074 0.0
C171 C 0.27465 0.87609 0.76814 0.0
O172 O 0.24586 0.86799 0.73541 0.0
Co173 Co 0.28722 0.84813 0.73807 0.0
O174 O 0.25959 0.83801 0.74027 0.0
C175 C 0.28449 0.87142 0.70108 0.0
C176 C 0.26632 0.92254 0.73436 0.0
C177 C 0.24457 0.84905 0.7371 0.0
O178 O 0.27488 0.88512 0.7102 0.0
O179 O 0.29224 0.85657 0.71001 0.0
O180 O 0.26148 0.89007 0.76701 0.0
O181 O 0.28456 0.87292 0.75206 0.0
Co182 Co 0.09978 0.26156 0.73819 0.0
O183 O 0.07645 0.27786 0.73619 0.0
O184 O 0.07836 0.24635 0.72708 0.0
C185 C 0.10896 0.26939 0.76938 0.0
O186 O 0.12071 0.23993 0.7383 0.0
Co187 Co 0.14147 0.28054 0.7437 0.0
O188 O 0.15025 0.25261 0.74714 0.0
C189 C 0.12335 0.27933 0.70388 0.0
C190 C 0.06775 0.26233 0.72883 0.0
C191 C 0.13919 0.23796 0.74257 0.0
O192 O 0.10854 0.26948 0.71075 0.0
O193 O 0.13688 0.28671 0.71499 0.0
O194 O 0.09488 0.2566 0.76631 0.0
O195 O 0.11478 0.27893 0.75385 0.0
Co196 Co 0.73423 0.09901 0.72554 0.0
O197 O 0.71827 0.07551 0.72758 0.0
O198 O 0.74895 0.07643 0.71588 0.0
C199 C 0.72853 0.11114 0.75619 0.0
O200 O 0.75523 0.12041 0.72162 0.0
Co201 Co 0.71413 0.14053 0.72852 0.0
O202 O 0.74203 0.15009 0.72929 0.0
C203 C 0.71308 0.11851 0.69066 0.0
C204 C 0.73338 0.06599 0.72043 0.0
C205 C 0.75671 0.13925 0.72433 0.0
O206 O 0.72393 0.10467 0.69805 0.0
O207 O 0.70589 0.13267 0.70108 0.0
O208 O 0.74154 0.09722 0.75352 0.0
O209 O 0.7177 0.11515 0.74094 0.0
Co210 Co 0.89078 0.72813 0.74506 0.0
O211 O 0.91534 0.71373 0.74689 0.0
O212 O 0.91254 0.74526 0.73814 0.0
C213 C 0.87684 0.71891 0.77397 0.0
O214 O 0.86839 0.748 0.74189 0.0
Co215 Co 0.85059 0.70551 0.74268 0.0
O216 O 0.83904 0.73251 0.74525 0.0
C217 C 0.87485 0.71012 0.70662 0.0
C218 C 0.92393 0.73007 0.74143 0.0
C219 C 0.84935 0.7482 0.74297 0.0
O220 O 0.88755 0.7205 0.71635 0.0
O221 O 0.86029 0.70121 0.71493 0.0
O222 O 0.89034 0.73264 0.77363 0.0
O223 O 0.87472 0.70922 0.75758 0.0
Co224 Co 0.25249 0.27204 0.11061 0.0
O225 O 0.25088 0.28724 0.08647 0.0
O226 O 0.25793 0.25522 0.08828 0.0
C227 C 0.22431 0.28221 0.12539 0.0
O228 O 0.25499 0.25127 0.1322 0.0
Co229 Co 0.25668 0.29278 0.15166 0.0
O230 O 0.25297 0.26554 0.16228 0.0
C231 C 0.29229 0.28618 0.12697 0.0
C232 C 0.25496 0.27077 0.07734 0.0
C233 C 0.25429 0.25026 0.15122 0.0
O234 O 0.28166 0.27782 0.11352 0.0
O235 O 0.28482 0.29463 0.14225 0.0
O236 O 0.22379 0.26904 0.11136 0.0
O237 O 0.2412 0.291 0.12766 0.0
Co238 Co 0.25261 0.73028 0.88842 0.0
O239 O 0.25063 0.71375 0.91153 0.0
O240 O 0.25804 0.74577 0.91181 0.0
C241 C 0.22461 0.7211 0.87281 0.0
O242 O 0.25561 0.75196 0.86769 0.0
Co243 Co 0.25734 0.71063 0.84687 0.0
O244 O 0.25345 0.73823 0.83732 0.0
C245 C 0.2924 0.71553 0.87256 0.0
C246 C 0.2551 0.72948 0.92169 0.0
C247 C 0.25482 0.75331 0.84866 0.0
O248 O 0.28171 0.72426 0.8857 0.0
O249 O 0.28507 0.70736 0.85706 0.0
O250 O 0.22394 0.73366 0.88738 0.0
O251 O 0.2414 0.71219 0.87053 0.0
Co252 Co 0.24883 0.24887 0.89627 0.0
O253 O 0.26536 0.2489 0.91946 0.0
O254 O 0.23394 0.25853 0.91871 0.0
C255 C 0.25628 0.21837 0.88491 0.0
O256 O 0.22716 0.25046 0.87532 0.0
Co257 Co 0.26824 0.24603 0.85446 0.0
O258 O 0.24029 0.24303 0.84557 0.0
C259 C 0.26725 0.28448 0.87525 0.0
C260 C 0.25007 0.25576 0.92893 0.0
C261 C 0.22547 0.2471 0.8566 0.0
O262 O 0.25715 0.27676 0.88947 0.0
O263 O 0.27468 0.27422 0.8611 0.0
O264 O 0.24343 0.22054 0.8991 0.0
O265 O 0.26606 0.23413 0.8803 0.0
Co266 Co 0.75756 0.25032 0.88255 0.0
O267 O 0.76251 0.26551 0.90601 0.0
O268 O 0.75498 0.23352 0.9055 0.0
C269 C 0.78349 0.2606 0.86444 0.0
O270 O 0.75206 0.22983 0.86111 0.0
Co271 Co 0.7481 0.27224 0.84301 0.0
O272 O 0.75116 0.24527 0.83152 0.0
C273 C 0.71644 0.26639 0.87257 0.0
C274 C 0.7594 0.24924 0.91577 0.0
C275 C 0.75097 0.22957 0.84205 0.0
O276 O 0.72839 0.25652 0.88365 0.0
O277 O 0.72207 0.27553 0.85691 0.0
O278 O 0.78588 0.24709 0.87793 0.0
O279 O 0.76653 0.26946 0.86464 0.0
Co280 Co 0.72634 0.73463 0.88892 0.0
O281 O 0.71017 0.735 0.91248 0.0
O282 O 0.74213 0.72738 0.91152 0.0
C283 C 0.71697 0.76386 0.87571 0.0
O284 O 0.74795 0.73304 0.86803 0.0
Co285 Co 0.70715 0.73356 0.84695 0.0
O286 O 0.73489 0.7374 0.83766 0.0
C287 C 0.71094 0.69653 0.86994 0.0
C288 C 0.72613 0.72986 0.92198 0.0
C289 C 0.74973 0.735 0.84914 0.0
O290 O 0.71993 0.7059 0.88392 0.0
O291 O 0.70307 0.70528 0.85504 0.0
O292 O 0.72983 0.76333 0.89004 0.0
O293 O 0.7082 0.74725 0.87204 0.0
Co294 Co 0.74171 0.73022 0.10335 0.0
O295 O 0.73958 0.71283 0.08078 0.0
O296 O 0.73353 0.74511 0.08049 0.0
C297 C 0.77141 0.72016 0.11494 0.0
O298 O 0.74281 0.75299 0.12297 0.0
Co299 Co 0.74307 0.71355 0.14635 0.0
O300 O 0.74907 0.7415 0.1536 0.0
C301 C 0.70459 0.71726 0.12579 0.0
C302 C 0.73455 0.7285 0.07078 0.0
C303 C 0.74651 0.75576 0.14146 0.0
O304 O 0.71312 0.72548 0.11084 0.0
O305 O 0.71423 0.70977 0.14034 0.0
O306 O 0.7704 0.73222 0.09997 0.0
O307 O 0.75473 0.71242 0.12027 0.0
Co308 Co 0.26625 0.73357 0.10357 0.0
O309 O 0.28101 0.73518 0.07921 0.0
O310 O 0.25003 0.72451 0.08191 0.0
C311 C 0.27326 0.7638 0.11588 0.0
O312 O 0.24612 0.73025 0.12571 0.0
Co313 Co 0.28788 0.73514 0.14435 0.0
O314 O 0.26047 0.73672 0.15512 0.0
C315 C 0.28567 0.69729 0.12239 0.0
C316 C 0.2651 0.72855 0.0706 0.0
C317 C 0.2453 0.73258 0.14462 0.0
O318 O 0.27561 0.70567 0.10852 0.0
O319 O 0.29338 0.70693 0.13684 0.0
O320 O 0.25983 0.76167 0.10224 0.0
O321 O 0.28394 0.74828 0.11927 0.0
Co322 Co 0.75 0.25077 0.09744 0.0
O323 O 0.7368 0.24703 0.07257 0.0
O324 O 0.76827 0.25606 0.07613 0.0
C325 C 0.73998 0.22283 0.11252 0.0
O326 O 0.7686 0.25562 0.12065 0.0
Co327 Co 0.72503 0.25547 0.13603 0.0
O328 O 0.75136 0.25341 0.14916 0.0
C329 C 0.73021 0.28966 0.10925 0.0
C330 C 0.75361 0.25165 0.0644 0.0
C331 C 0.76763 0.25535 0.13971 0.0
O332 O 0.742 0.27951 0.09822 0.0
O333 O 0.72036 0.28202 0.12358 0.0
O334 O 0.7546 0.22239 0.1 0.0
O335 O 0.73023 0.23926 0.11311 0.0
Co336 Co 0.6023 0.74803 0.763 0.0
O337 O 0.579 0.74652 0.77935 0.0
O338 O 0.57939 0.75591 0.74785 0.0
C339 C 0.61594 0.71853 0.77052 0.0
O340 O 0.62321 0.75105 0.74151 0.0
Co341 Co 0.64406 0.74864 0.78277 0.0
O342 O 0.65335 0.74595 0.75492 0.0
C343 C 0.62092 0.78564 0.78013 0.0
C344 C 0.56923 0.75255 0.76389 0.0
C345 C 0.64213 0.7491 0.74002 0.0
O346 O 0.60698 0.77645 0.7709 0.0
O347 O 0.63591 0.77677 0.78768 0.0
O348 O 0.60151 0.71959 0.75781 0.0
O349 O 0.61931 0.73459 0.78037 0.0
Co350 Co 0.23623 0.61076 0.77158 0.0
O351 O 0.23768 0.58713 0.78748 0.0
O352 O 0.23063 0.58797 0.75538 0.0
C353 C 0.26453 0.62548 0.78142 0.0
O354 O 0.23394 0.63188 0.75026 0.0
Co355 Co 0.23253 0.65224 0.79154 0.0
O356 O 0.23672 0.66212 0.76407 0.0
C357 C 0.19675 0.62758 0.78595 0.0
C358 C 0.23359 0.57752 0.77129 0.0
C359 C 0.23516 0.65086 0.74895 0.0
O360 O 0.20711 0.61408 0.77736 0.0
O361 O 0.2045 0.64277 0.79431 0.0
O362 O 0.26494 0.61119 0.76854 0.0
O363 O 0.24768 0.62807 0.79015 0.0
Co364 Co 0.39506 0.24209 0.77212 0.0
O365 O 0.41741 0.24106 0.78984 0.0
O366 O 0.41815 0.23321 0.75792 0.0
C367 C 0.38331 0.27223 0.78048 0.0
O368 O 0.3755 0.24172 0.7492 0.0
Co369 Co 0.35205 0.24406 0.78877 0.0
O370 O 0.34483 0.24831 0.76049 0.0
C371 C 0.37282 0.20561 0.78703 0.0
C372 C 0.42761 0.23515 0.77461 0.0
C373 C 0.35694 0.24502 0.74633 0.0
O374 O 0.38772 0.21382 0.77841 0.0
O375 O 0.35822 0.21551 0.79406 0.0
O376 O 0.39832 0.27062 0.76852 0.0
O377 O 0.37801 0.256 0.78909 0.0
Co378 Co 0.75591 0.38385 0.77267 0.0
O379 O 0.75614 0.40812 0.78785 0.0
O380 O 0.76075 0.40598 0.7554 0.0
C381 C 0.72814 0.36974 0.78491 0.0
O382 O 0.75623 0.36227 0.75179 0.0
Co383 Co 0.76036 0.34263 0.79299 0.0
O384 O 0.75463 0.33218 0.766 0.0
C385 C 0.79615 0.36609 0.78352 0.0
C386 C 0.7593 0.41707 0.77107 0.0
C387 C 0.75509 0.3433 0.75072 0.0
O388 O 0.78537 0.38002 0.77619 0.0
O389 O 0.78884 0.35104 0.79249 0.0
O390 O 0.72701 0.38384 0.77186 0.0
O391 O 0.74557 0.36709 0.79244 0.0
Co392 Co 0.60133 0.24743 0.22022 0.0
O393 O 0.57737 0.24549 0.20464 0.0
O394 O 0.57963 0.23946 0.23686 0.0
C395 C 0.61279 0.27701 0.2096 0.0
O396 O 0.62251 0.2483 0.24146 0.0
Co397 Co 0.64309 0.24824 0.20056 0.0
O398 O 0.65253 0.25355 0.22801 0.0
C399 C 0.62286 0.20993 0.20663 0.0
C400 C 0.56863 0.24049 0.22109 0.0
C401 C 0.64125 0.25134 0.24303 0.0
O402 O 0.60819 0.21873 0.21512 0.0
O403 O 0.63704 0.21931 0.19819 0.0
O404 O 0.59849 0.27615 0.22248 0.0
O405 O 0.61718 0.26034 0.20129 0.0
Co406 Co 0.74497 0.6081 0.23681 0.0
O407 O 0.74671 0.58684 0.21799 0.0
O408 O 0.75381 0.58441 0.25002 0.0
C409 C 0.71492 0.61978 0.22823 0.0
O410 O 0.74445 0.6267 0.26058 0.0
Co411 Co 0.74301 0.65164 0.22166 0.0
O412 O 0.73755 0.65755 0.25 0.0
C413 C 0.78163 0.6313 0.22377 0.0
C414 C 0.7524 0.5759 0.23276 0.0
C415 C 0.74063 0.6451 0.2639 0.0
O416 O 0.7733 0.61601 0.23154 0.0
O417 O 0.77184 0.64615 0.21717 0.0
O418 O 0.7164 0.60427 0.23951 0.0
O419 O 0.73131 0.62563 0.22027 0.0
Co420 Co 0.38558 0.76248 0.2259 0.0
O421 O 0.40955 0.76269 0.2104 0.0
O422 O 0.40718 0.7717 0.24196 0.0
C423 C 0.37422 0.7322 0.21771 0.0
O424 O 0.36409 0.76379 0.24692 0.0
Co425 Co 0.34413 0.76049 0.20584 0.0
O426 O 0.33436 0.757 0.23346 0.0
C427 C 0.36515 0.79879 0.20834 0.0
C428 C 0.41824 0.76905 0.2264 0.0
C429 C 0.34534 0.76065 0.24842 0.0
O430 O 0.37931 0.79053 0.21804 0.0
O431 O 0.35079 0.78899 0.20067 0.0
O432 O 0.38823 0.73417 0.23079 0.0
O433 O 0.36986 0.74811 0.20798 0.0
Co434 Co 0.24352 0.38646 0.2349 0.0
O435 O 0.24653 0.41025 0.21958 0.0
O436 O 0.23907 0.40922 0.25158 0.0
C437 C 0.27088 0.37026 0.22496 0.0
O438 O 0.23973 0.36483 0.25556 0.0
Co439 Co 0.23722 0.3461 0.21333 0.0
O440 O 0.2409 0.3351 0.24043 0.0
C441 C 0.20318 0.37285 0.21936 0.0
C442 C 0.24262 0.41978 0.23585 0.0
C443 C 0.23995 0.34576 0.25603 0.0
O444 O 0.21434 0.38514 0.22874 0.0
O445 O 0.20996 0.35753 0.21044 0.0
O446 O 0.27211 0.38416 0.23823 0.0
O447 O 0.25402 0.36906 0.21594 0.0
Co448 Co 0.76224 0.59877 0.75099 0.0
O449 O 0.77805 0.57501 0.75099 0.0
O450 O 0.74611 0.57644 0.75857 0.0
C451 C 0.77181 0.61159 0.72162 0.0
O452 O 0.74103 0.62012 0.75228 0.0
Co453 Co 0.78254 0.64026 0.75164 0.0
O454 O 0.75499 0.65009 0.74793 0.0
C455 C 0.77795 0.61795 0.78894 0.0
C456 C 0.76202 0.56579 0.7564 0.0
C457 C 0.73981 0.63905 0.75029 0.0
O458 O 0.76867 0.60406 0.77972 0.0
O459 O 0.78633 0.63246 0.78003 0.0
O460 O 0.75876 0.59744 0.72224 0.0
O461 O 0.7807 0.61513 0.7382 0.0
Co462 Co 0.38755 0.76858 0.7611 0.0
O463 O 0.4122 0.78288 0.75943 0.0
O464 O 0.40907 0.75158 0.76893 0.0
C465 C 0.37452 0.77691 0.73153 0.0
O466 O 0.36505 0.74879 0.76418 0.0
Co467 Co 0.34729 0.79112 0.76168 0.0
O468 O 0.33582 0.76407 0.75924 0.0
C469 C 0.37029 0.78704 0.79869 0.0
C470 C 0.42061 0.76656 0.76524 0.0
C471 C 0.34606 0.74849 0.76235 0.0
O472 O 0.38357 0.77693 0.78949 0.0
O473 O 0.35579 0.7955 0.78983 0.0
O474 O 0.388 0.76324 0.73273 0.0
O475 O 0.37183 0.78711 0.74753 0.0
Co476 Co 0.24142 0.39621 0.75504 0.0
O477 O 0.22481 0.41929 0.75427 0.0
O478 O 0.25594 0.41883 0.76485 0.0
C479 C 0.23496 0.38447 0.72441 0.0
O480 O 0.26306 0.37536 0.75757 0.0
Co481 Co 0.22215 0.35433 0.75215 0.0
O482 O 0.2502 0.34546 0.75025 0.0
C483 C 0.22189 0.37567 0.79033 0.0
C484 C 0.23987 0.42892 0.76142 0.0
C485 C 0.26486 0.3566 0.7546 0.0
O486 O 0.23235 0.38972 0.78277 0.0
O487 O 0.21465 0.36148 0.77998 0.0
O488 O 0.24763 0.39877 0.72683 0.0
O489 O 0.22474 0.37998 0.73994 0.0
Co490 Co 0.60851 0.22285 0.76835 0.0
O491 O 0.58449 0.20741 0.76818 0.0
O492 O 0.58708 0.2383 0.77908 0.0
C493 C 0.6188 0.21636 0.73722 0.0
O494 O 0.63022 0.24365 0.77045 0.0
Co495 Co 0.64975 0.20269 0.76354 0.0
O496 O 0.65958 0.23045 0.76179 0.0
C497 C 0.62996 0.2026 0.8026 0.0
C498 C 0.57592 0.22298 0.7756 0.0
C499 C 0.64889 0.24519 0.76687 0.0
O500 O 0.61566 0.21314 0.79566 0.0
O501 O 0.64364 0.19528 0.79165 0.0
O502 O 0.60511 0.2295 0.7404 0.0
O503 O 0.6236 0.20578 0.75242 0.0
Co504 Co 0.76037 0.39559 0.22875 0.0
O505 O 0.77688 0.41882 0.22881 0.0
O506 O 0.74557 0.4178 0.2188 0.0
C507 C 0.76756 0.38485 0.25954 0.0
O508 O 0.73849 0.37488 0.2271 0.0
Co509 Co 0.7786 0.35344 0.23267 0.0
O510 O 0.75048 0.34501 0.23562 0.0
C511 C 0.77944 0.374 0.19397 0.0
C512 C 0.76146 0.4282 0.22211 0.0
C513 C 0.7361 0.35637 0.23095 0.0
O514 O 0.76916 0.3884 0.2011 0.0
O515 O 0.78627 0.35991 0.2047 0.0
O516 O 0.75472 0.39895 0.25693 0.0
O517 O 0.77729 0.37966 0.24391 0.0
Co518 Co 0.59802 0.76581 0.25003 0.0
O519 O 0.57617 0.78399 0.24742 0.0
O520 O 0.57513 0.75185 0.24055 0.0
C521 C 0.60875 0.7748 0.2804 0.0
O522 O 0.61668 0.74236 0.2512 0.0
Co523 Co 0.64153 0.78068 0.25384 0.0
O524 O 0.64729 0.75236 0.2597 0.0
C525 C 0.62284 0.77797 0.21423 0.0
C526 C 0.56595 0.76874 0.24153 0.0
C527 C 0.63476 0.73873 0.2559 0.0
O528 O 0.60685 0.7709 0.22189 0.0
O529 O 0.63738 0.78433 0.22467 0.0
O530 O 0.59349 0.7632 0.27852 0.0
O531 O 0.61497 0.78276 0.26416 0.0
Co532 Co 0.23758 0.60214 0.24259 0.0
O533 O 0.22281 0.57788 0.24445 0.0
O534 O 0.25462 0.58003 0.23642 0.0
C535 C 0.22776 0.61628 0.27119 0.0
O536 O 0.25767 0.62441 0.23959 0.0
Co537 Co 0.21503 0.64234 0.23946 0.0
O538 O 0.24202 0.6537 0.24287 0.0
C539 C 0.221 0.61801 0.20355 0.0
C540 C 0.23917 0.56895 0.23966 0.0
C541 C 0.25778 0.64345 0.24078 0.0
O542 O 0.23071 0.6051 0.21367 0.0
O543 O 0.21204 0.63274 0.2115 0.0
O544 O 0.24147 0.60279 0.27123 0.0
O545 O 0.21847 0.61838 0.25458 0.0
Co546 Co 0.38751 0.22184 0.23783 0.0
O547 O 0.41215 0.2073 0.23773 0.0
O548 O 0.40899 0.23926 0.23091 0.0
C549 C 0.37468 0.21127 0.26683 0.0
O550 O 0.36527 0.24202 0.23678 0.0
Co551 Co 0.34684 0.20001 0.23609 0.0
O552 O 0.33569 0.22699 0.24022 0.0
C553 C 0.36902 0.20739 0.19907 0.0
C554 C 0.42052 0.22397 0.23288 0.0
C555 C 0.34628 0.24255 0.2384 0.0
O556 O 0.38288 0.21606 0.20889 0.0
O557 O 0.35447 0.19848 0.20741 0.0
O558 O 0.38846 0.22473 0.26656 0.0
O559 O 0.37169 0.20242 0.25009 0.0
Co560 Co 0.75571 0.76309 0.60809 0.0
O561 O 0.75634 0.7808 0.58576 0.0
O562 O 0.76333 0.74871 0.58468 0.0
C563 C 0.72622 0.77229 0.62082 0.0
O564 O 0.75623 0.74015 0.62761 0.0
Co565 Co 0.75558 0.7796 0.65121 0.0
O566 O 0.75063 0.75147 0.65848 0.0
C567 C 0.7934 0.77641 0.62925 0.0
C568 C 0.76136 0.76543 0.57531 0.0
C569 C 0.75334 0.7373 0.64625 0.0
O570 O 0.7844 0.76857 0.61437 0.0
O571 O 0.78424 0.78343 0.64434 0.0
O572 O 0.72701 0.76026 0.60581 0.0
O573 O 0.74288 0.78041 0.62564 0.0
Co574 Co 0.74101 0.24807 0.38838 0.0
O575 O 0.73735 0.23279 0.41202 0.0
O576 O 0.74699 0.2642 0.41121 0.0
C577 C 0.7127 0.23999 0.37281 0.0
O578 O 0.74577 0.26855 0.36682 0.0
Co579 Co 0.74487 0.22631 0.3478 0.0
O580 O 0.74254 0.25366 0.33711 0.0
C581 C 0.77984 0.22974 0.37386 0.0
C582 C 0.74244 0.24864 0.42166 0.0
C583 C 0.74493 0.2691 0.34777 0.0
O584 O 0.76969 0.23988 0.38643 0.0
O585 O 0.77209 0.22145 0.35863 0.0
O586 O 0.71267 0.25338 0.38664 0.0
O587 O 0.72891 0.22996 0.3712 0.0
Co588 Co 0.7581 0.75469 0.3947 0.0
O589 O 0.77555 0.75627 0.41717 0.0
O590 O 0.74398 0.76549 0.41703 0.0
C591 C 0.7653 0.72356 0.38495 0.0
O592 O 0.73549 0.75475 0.37479 0.0
Co593 Co 0.77532 0.74929 0.35222 0.0
O594 O 0.74698 0.74609 0.34472 0.0
C595 C 0.77501 0.78902 0.37054 0.0
C596 C 0.76044 0.76328 0.42683 0.0
C597 C 0.73277 0.75057 0.35638 0.0
O598 O 0.76575 0.7822 0.38577 0.0
O599 O 0.78179 0.77789 0.35674 0.0
O600 O 0.75318 0.72658 0.39961 0.0
O601 O 0.77471 0.73907 0.37887 0.0
Co602 Co 0.24183 0.76315 0.39079 0.0
O603 O 0.24341 0.77852 0.4148 0.0
O604 O 0.23644 0.74647 0.41335 0.0
C605 C 0.26992 0.77358 0.37598 0.0
O606 O 0.23937 0.74232 0.36918 0.0
Co607 Co 0.23771 0.78411 0.3498 0.0
O608 O 0.24169 0.75686 0.33924 0.0
C609 C 0.20226 0.77828 0.37479 0.0
C610 C 0.23929 0.76219 0.42413 0.0
C611 C 0.24031 0.74148 0.35014 0.0
O612 O 0.21263 0.76894 0.3878 0.0
O613 O 0.20999 0.78725 0.35994 0.0
O614 O 0.27063 0.76028 0.38988 0.0
O615 O 0.25296 0.78216 0.37386 0.0
Co616 Co 0.23259 0.2334 0.39125 0.0
O617 O 0.21817 0.23538 0.41581 0.0
O618 O 0.24938 0.22553 0.41297 0.0
C619 C 0.22437 0.26302 0.37821 0.0
O620 O 0.25249 0.22996 0.36886 0.0
Co621 Co 0.21032 0.23327 0.35074 0.0
O622 O 0.23753 0.23519 0.33949 0.0
C623 C 0.21326 0.1963 0.37403 0.0
C624 C 0.23439 0.22952 0.4244 0.0
C625 C 0.25297 0.23176 0.34986 0.0
O626 O 0.22385 0.20511 0.38723 0.0
O627 O 0.20484 0.2055 0.3597 0.0
O628 O 0.23818 0.26175 0.39156 0.0
O629 O 0.2142 0.24705 0.37546 0.0
Co630 Co 0.25366 0.23726 0.60601 0.0
O631 O 0.25345 0.21991 0.58339 0.0
O632 O 0.2468 0.25205 0.58253 0.0
C633 C 0.28262 0.2276 0.61963 0.0
O634 O 0.25286 0.2598 0.62603 0.0
Co635 Co 0.25215 0.2195 0.64865 0.0
O636 O 0.25721 0.2474 0.65668 0.0
C637 C 0.21521 0.22335 0.62552 0.0
C638 C 0.24865 0.23538 0.57302 0.0
C639 C 0.25522 0.262 0.64484 0.0
O640 O 0.2247 0.23191 0.61136 0.0
O641 O 0.22385 0.21564 0.64056 0.0
O642 O 0.28252 0.23987 0.60479 0.0
O643 O 0.26575 0.21948 0.62355 0.0
Co644 Co 0.75118 0.24526 0.6037 0.0
O645 O 0.7651 0.24943 0.57929 0.0
O646 O 0.73337 0.241 0.58175 0.0
C647 C 0.76126 0.27247 0.61999 0.0
O648 O 0.73192 0.24017 0.62635 0.0
Co649 Co 0.77526 0.23873 0.64259 0.0
O650 O 0.74873 0.24131 0.65519 0.0
C651 C 0.76947 0.20542 0.61487 0.0
C652 C 0.74844 0.24539 0.57054 0.0
C653 C 0.73257 0.24001 0.64543 0.0
O654 O 0.75847 0.21632 0.60377 0.0
O655 O 0.77912 0.21225 0.62974 0.0
O656 O 0.74707 0.27363 0.60703 0.0
O657 O 0.77077 0.25588 0.62022 0.0
Co658 Co 0.23254 0.75457 0.60686 0.0
O659 O 0.21767 0.75253 0.5826 0.0
O660 O 0.24955 0.76027 0.58458 0.0
C661 C 0.2225 0.72633 0.62157 0.0
O662 O 0.25281 0.75769 0.62897 0.0
Co663 Co 0.21038 0.75848 0.64726 0.0
O664 O 0.23745 0.75526 0.65852 0.0
C665 C 0.21624 0.79389 0.62228 0.0
C666 C 0.23405 0.75707 0.57355 0.0
C667 C 0.25311 0.75695 0.64804 0.0
O668 O 0.22596 0.78358 0.60951 0.0
O669 O 0.20719 0.78616 0.63707 0.0
O670 O 0.23611 0.7259 0.60795 0.0
O671 O 0.21341 0.74306 0.62342 0.0
C672 C 0.9564 0.25276 0.27445 0.0
C673 C 0.946 0.27068 0.27332 0.0
C674 C 0.97719 0.25251 0.27538 0.0
C675 C 0.98777 0.27064 0.27551 0.0
C676 C 0.97729 0.28879 0.27514 0.0
C677 C 0.95652 0.2886 0.27386 0.0
C678 C 0.98785 0.23284 0.27554 0.0
C679 C 0.98803 0.30842 0.27566 0.0
C680 C 0.04136 0.26863 0.29273 0.0
C681 C 0.05161 0.26861 0.27464 0.0
C682 C 0.02059 0.26976 0.29327 0.0
C683 C 0.00982 0.27054 0.27528 0.0
C684 C 0.02011 0.27074 0.25697 0.0
C685 C 0.04091 0.26994 0.25688 0.0
C686 C 0.01016 0.2699 0.31308 0.0
C687 C 0.00914 0.27134 0.23747 0.0
H688 H 0.94834 0.23887 0.27395 0.0
H689 H 0.94852 0.3025 0.2731 0.0
H690 H 0.99727 0.23153 0.26211 0.0
H691 H -0.0022 0.2319 0.28859 0.0
H692 H 0.97744 0.22009 0.27591 0.0
H693 H 0.97767 0.32116 0.27666 0.0
H694 H -0.00171 0.30894 0.28851 0.0
H695 H 0.99714 0.31013 0.26207 0.0
H696 H 0.04959 0.26773 0.3065 0.0
H697 H 0.04876 0.26985 0.24286 0.0
H698 H 0.00072 0.25651 0.3145 0.0
H699 H 0.00025 0.28297 0.31415 0.0
H700 H 0.02073 0.27024 0.3257 0.0
H701 H 0.01935 0.27159 0.22454 0.0
H702 H -0.00048 0.28464 0.23682 0.0
H703 H -0.00065 0.25818 0.23617 0.0
C704 C 0.75715 0.96118 0.25533 0.0
C705 C 0.73962 0.95022 0.25326 0.0
C706 C 0.7566 0.98185 0.25757 0.0
C707 C 0.73808 0.99171 0.258 0.0
C708 C 0.72032 0.98065 0.25638 0.0
C709 C 0.72132 0.96005 0.25391 0.0
C710 C 0.77586 0.99318 0.25903 0.0
C711 C 0.70029 0.99062 0.25701 0.0
C712 C 0.73694 0.04382 0.27929 0.0
C713 C 0.73702 0.05537 0.26203 0.0
C714 C 0.73695 0.02304 0.27823 0.0
C715 C 0.7373 0.01366 0.25945 0.0
C716 C 0.73716 0.02527 0.24198 0.0
C717 C 0.7369 0.04598 0.24348 0.0
C718 C 0.7368 0.01113 0.29717 0.0
C719 C 0.73769 0.01581 0.22169 0.0
H720 H 0.77133 0.95366 0.25479 0.0
H721 H 0.70771 0.95163 0.25243 0.0
H722 H 0.77707 0.0037 0.24645 0.0
H723 H 0.77615 0.00206 0.27287 0.0
H724 H 0.78899 0.98327 0.25886 0.0
H725 H 0.68789 0.97979 0.25651 0.0
H726 H 0.69889 -0.00039 0.27071 0.0
H727 H 0.69878 0.00087 0.24425 0.0
H728 H 0.73698 0.051 0.29367 0.0
H729 H 0.73705 0.05483 0.23008 0.0
H730 H 0.75051 0.00213 0.29819 0.0
H731 H 0.72409 0.00069 0.29714 0.0
H732 H 0.73577 0.02067 0.31055 0.0
H733 H 0.75132 0.00675 0.22012 0.0
H734 H 0.73736 0.02694 0.20957 0.0
H735 H 0.72486 0.00569 0.21984 0.0
C736 C 0.04595 0.73916 0.25986 0.0
C737 C 0.05543 0.7207 0.26034 0.0
C738 C 0.02525 0.74054 0.25939 0.0
C739 C 0.01373 0.72302 0.25975 0.0
C740 C 0.02318 0.70432 0.26067 0.0
C741 C 0.04398 0.70337 0.26079 0.0
C742 C 0.01572 0.76076 0.25819 0.0
C743 C 0.01133 0.68536 0.26143 0.0
C744 C 0.96049 0.73071 0.27582 0.0
C745 C 0.95063 0.73133 0.25754 0.0
C746 C 0.98093 0.72713 0.27681 0.0
C747 C 0.99178 0.72446 0.25906 0.0
C748 C 0.98182 0.72461 0.24058 0.0
C749 C 0.96129 0.72789 0.24005 0.0
C750 C 0.991 0.72674 0.29681 0.0
C751 C 0.99296 0.72208 0.22133 0.0
H752 H 0.05474 0.75261 0.25939 0.0
H753 H 0.05127 0.68907 0.26121 0.0
H754 H 0.00642 0.76175 0.24465 0.0
H755 H 0.00581 0.76309 0.2711 0.0
H756 H 0.02682 0.77291 0.25784 0.0
H757 H 0.02092 0.67206 0.26278 0.0
H758 H 0.00097 0.68572 0.2742 0.0
H759 H 0.00221 0.6839 0.24782 0.0
H760 H 0.95225 0.73315 0.2894 0.0
H761 H 0.95369 0.72837 0.2259 0.0
H762 H 0.00118 0.73958 0.29815 0.0
H763 H 9e-05 0.71313 0.29834 0.0
H764 H 0.98021 0.72732 0.30923 0.0
H765 H 0.00344 0.7346 0.21933 0.0
H766 H 0.98289 0.72152 0.20831 0.0
H767 H 0.00188 0.70829 0.22168 0.0
C768 C 0.24947 0.9557 0.2353 0.0
C769 C 0.24822 0.94559 0.2534 0.0
C770 C 0.25039 0.97648 0.23475 0.0
C771 C 0.25037 0.98731 0.25274 0.0
C772 C 0.24919 0.97715 0.27104 0.0
C773 C 0.24798 0.95642 0.27114 0.0
C774 C 0.25136 0.98685 0.21494 0.0
C775 C 0.2494 0.98816 0.29054 0.0
C776 C 0.27203 0.0392 0.25298 0.0
C777 C 0.25489 0.05094 0.25334 0.0
C778 C 0.27076 0.01847 0.25274 0.0
C779 C 0.2519 0.00927 0.25252 0.0
C780 C 0.23454 0.02105 0.25264 0.0
C781 C 0.23624 0.04177 0.25324 0.0
C782 C 0.28961 0.00639 0.25293 0.0
C783 C 0.21417 0.01177 0.25213 0.0
H784 H 0.24956 0.94739 0.22155 0.0
H785 H 0.24711 0.94868 0.28519 0.0
H786 H 0.23892 -0.00249 0.21359 0.0
H787 H 0.26532 0.99547 0.21382 0.0
H788 H 0.25067 0.97631 0.20231 0.0
H789 H 0.2632 0.99703 0.2918 0.0
H790 H 0.23677 -0.00134 0.29121 0.0
H791 H 0.24847 0.97803 0.30348 0.0
H792 H 0.28648 0.04623 0.25311 0.0
H793 H 0.22296 0.0508 0.25335 0.0
H794 H 0.29018 0.99664 0.23971 0.0
H795 H 0.28986 0.99667 0.26619 0.0
H796 H 0.3031 0.01583 0.25309 0.0
H797 H 0.20217 0.02303 0.25159 0.0
H798 H 0.21196 0.0024 0.26545 0.0
H799 H 0.21279 0.00198 0.23898 0.0
C800 C 0.95503 0.74977 0.73725 0.0
C801 C 0.94567 0.73131 0.73905 0.0
C802 C 0.9757 0.75115 0.73536 0.0
C803 C 0.98723 0.73363 0.73497 0.0
C804 C 0.97783 0.71494 0.7365 0.0
C805 C 0.95716 0.71401 0.73868 0.0
C806 C 0.98523 0.77135 0.73404 0.0
C807 C 0.98961 0.69593 0.73586 0.0
C808 C 0.03901 0.73678 0.71303 0.0
C809 C 0.0508 0.73739 0.73013 0.0
C810 C 0.01829 0.73536 0.71437 0.0
C811 C 0.00917 0.73486 0.73326 0.0
C812 C 0.02101 0.73556 0.75058 0.0
C813 C 0.0417 0.73666 0.7488 0.0
C814 C 0.00616 0.73434 0.69558 0.0
C815 C 0.01181 0.73533 0.77099 0.0
H816 H 0.94621 0.76318 0.7376 0.0
H817 H 0.94999 0.6997 0.73995 0.0
H818 H 0.99587 0.77334 0.74643 0.0
H819 H 0.99376 0.77265 0.72004 0.0
H820 H 0.97417 0.78352 0.7346 0.0
H821 H 0.97999 0.68259 0.73665 0.0
H822 H -0.00157 0.69524 0.722 0.0
H823 H 0.00022 0.6955 0.74842 0.0
H824 H 0.04599 0.73727 0.69856 0.0
H825 H 0.05074 0.73724 0.76208 0.0
H826 H 0.99579 0.74707 0.69491 0.0
H827 H 0.99705 0.72065 0.69551 0.0
H828 H 0.01555 0.7345 0.68205 0.0
H829 H 0.00144 0.74798 0.7726 0.0
H830 H 0.02309 0.73622 0.78296 0.0
H831 H 0.00304 0.72157 0.77305 0.0
C832 C 0.25962 0.03859 0.7507 0.0
C833 C 0.25937 0.04956 0.73307 0.0
C834 C 0.26152 0.01791 0.75036 0.0
C835 C 0.26348 0.00802 0.73195 0.0
C836 C 0.26384 0.01908 0.71413 0.0
C837 C 0.26163 0.03973 0.71489 0.0
C838 C 0.26088 0.0066 0.76966 0.0
C839 C 0.26621 0.00906 0.69425 0.0
C840 C 0.28329 0.95544 0.73383 0.0
C841 C 0.26577 0.94433 0.73255 0.0
C842 C 0.28284 0.97621 0.73312 0.0
C843 C 0.2644 0.98605 0.73137 0.0
C844 C 0.2467 0.97489 0.72976 0.0
C845 C 0.24761 0.95414 0.73024 0.0
C846 C 0.30204 0.98763 0.73458 0.0
C847 C 0.22674 0.98487 0.72805 0.0
H848 H 0.25783 0.04611 0.76479 0.0
H849 H 0.26156 0.04817 0.70123 0.0
H850 H 0.24796 0.99641 0.76969 0.0
H851 H 0.27439 -0.00262 0.77126 0.0
H852 H 0.25974 0.01655 0.78273 0.0
H853 H 0.26737 0.01987 0.6819 0.0
H854 H 0.27967 -0.00039 0.69426 0.0
H855 H 0.25335 -0.00078 0.69141 0.0
H856 H 0.29738 0.94791 0.73551 0.0
H857 H 0.23402 0.94562 0.72929 0.0
H858 H 0.30212 0.99667 0.74832 0.0
H859 H 0.30342 -0.00199 0.7219 0.0
H860 H 0.3152 0.97774 0.73475 0.0
H861 H 0.22397 0.99408 0.7414 0.0
H862 H 0.21442 0.97405 0.7265 0.0
H863 H 0.22654 0.99493 0.71505 0.0
C864 C 0.0364 0.28073 0.72184 0.0
C865 C 0.04661 0.26269 0.72317 0.0
C866 C 0.01605 0.2812 0.71755 0.0
C867 C 0.00565 0.26318 0.71486 0.0
C868 C 0.016 0.24496 0.71566 0.0
C869 C 0.0364 0.24495 0.71966 0.0
C870 C 0.00557 0.30093 0.71652 0.0
C871 C 0.00538 0.22542 0.71313 0.0
C872 C 0.95119 0.26175 0.72838 0.0
C873 C 0.94208 0.26126 0.7097 0.0
C874 C 0.97185 0.26259 0.7302 0.0
C875 C 0.98371 0.26324 0.71292 0.0
C876 C 0.97461 0.26331 0.694 0.0
C877 C 0.95385 0.26217 0.6926 0.0
C878 C 0.98098 0.26228 0.75066 0.0
C879 C 0.98682 0.26434 0.67527 0.0
H880 H 0.04428 0.29451 0.72435 0.0
H881 H 0.04424 0.23096 0.72067 0.0
H882 H 0.99668 0.30195 0.70271 0.0
H883 H 0.99514 0.30233 0.72916 0.0
H884 H 0.01608 0.31359 0.717 0.0
H885 H 0.01575 0.21265 0.71304 0.0
H886 H 0.99463 0.22336 0.72541 0.0
H887 H 0.99682 0.22535 0.69908 0.0
H888 H 0.94218 0.261 0.74167 0.0
H889 H 0.94686 0.26188 0.67813 0.0
H890 H 0.99049 0.27552 0.75281 0.0
H891 H 0.99061 0.24905 0.75225 0.0
H892 H 0.96964 0.26198 0.7626 0.0
H893 H 0.99688 0.27734 0.67579 0.0
H894 H 0.97745 0.26541 0.66177 0.0
H895 H 0.99626 0.25094 0.67404 0.0
C896 C 0.7508 0.03341 0.71785 0.0
C897 C 0.73307 0.04416 0.71882 0.0
C898 C 0.75069 0.0126 0.71847 0.0
C899 C 0.73238 0.00238 0.71971 0.0
C900 C 0.71441 0.01318 0.71987 0.0
C901 C 0.71498 0.03395 0.71961 0.0
C902 C 0.77017 0.0016 0.71845 0.0
C903 C 0.69458 0.00281 0.72074 0.0
C904 C 0.73204 0.94776 0.70616 0.0
C905 C 0.73219 0.93874 0.7249 0.0
C906 C 0.7318 0.96845 0.70424 0.0
C907 C 0.73204 0.98041 0.72147 0.0
C908 C 0.73205 0.97138 0.74043 0.0
C909 C 0.73196 0.95063 0.74192 0.0
C910 C 0.73142 0.97752 0.68378 0.0
C911 C 0.7325 0.98365 0.75915 0.0
H912 H 0.76482 0.04125 0.71734 0.0
H913 H 0.70122 0.04221 0.72023 0.0
H914 H 0.77178 0.99319 0.73249 0.0
H915 H 0.7705 0.99069 0.70615 0.0
H916 H 0.78308 0.0117 0.71687 0.0
H917 H 0.68197 0.01331 0.71946 0.0
H918 H 0.69344 0.99172 0.70865 0.0
H919 H 0.69318 0.99468 0.73497 0.0
H920 H 0.73212 0.93862 0.69294 0.0
H921 H 0.73217 0.94372 0.75642 0.0
H922 H 0.74495 0.98655 0.68141 0.0
H923 H 0.71851 0.98759 0.68234 0.0
H924 H 0.73056 0.96614 0.6719 0.0
H925 H 0.74591 0.99317 0.75925 0.0
H926 H 0.73254 0.97436 0.77274 0.0
H927 H 0.71943 0.99361 0.75966 0.0
C928 C 0.25522 0.25101 0.0461 0.0
C929 C 0.25533 0.26954 0.05547 0.0
C930 C 0.25449 0.24948 0.02539 0.0
C931 C 0.25415 0.26693 0.01376 0.0
C932 C 0.25469 0.2857 0.02311 0.0
C933 C 0.25512 0.28679 0.0439 0.0
C934 C 0.25375 0.22919 0.01596 0.0
C935 C 0.25472 0.30461 0.01116 0.0
C936 C 0.26947 0.26062 0.96002 0.0
C937 C 0.25104 0.25981 0.95042 0.0
C938 C 0.27072 0.26356 0.98057 0.0
C939 C 0.2531 0.26542 0.9918 0.0
C940 C 0.23446 0.26493 0.98214 0.0
C941 C 0.23366 0.26229 0.96151 0.0
C942 C 0.29088 0.26431 0.99029 0.0
C943 C 0.21535 0.26664 0.99368 0.0
H944 H 0.2553 0.23762 0.05498 0.0
H945 H 0.25529 0.30115 0.05108 0.0
H946 H 0.24007 0.2277 0.00695 0.0
H947 H 0.26653 0.22724 0.00579 0.0
H948 H 0.25404 0.2171 0.02712 0.0
H949 H 0.25583 0.318 0.02067 0.0
H950 H 0.26734 0.30458 0.00061 0.0
H951 H 0.24093 0.30561 0.00226 0.0
H952 H 0.28297 0.25887 0.95148 0.0
H953 H 0.21939 0.26163 0.95415 0.0
H954 H 0.2926 0.25155 0.0005 0.0
H955 H 0.29233 0.27799 -0.0007 0.0
H956 H 0.30314 0.26391 0.9793 0.0
H957 H 0.21412 0.2541 0.00424 0.0
H958 H 0.20211 0.26658 0.98388 0.0
H959 H 0.2153 0.28049 0.00253 0.0
C960 C 0.25698 0.74624 0.95466 0.0
C961 C 0.25683 0.72874 0.94349 0.0
C962 C 0.25829 0.74564 0.97542 0.0
C963 C 0.25982 0.72712 0.98515 0.0
C964 C 0.25991 0.70941 0.97391 0.0
C965 C 0.25824 0.71043 0.95321 0.0
C966 C 0.25787 0.76482 0.98694 0.0
C967 C 0.26184 0.68941 0.98375 0.0
C968 C 0.28109 0.72799 0.03722 0.0
C969 C 0.26388 0.72675 0.04881 0.0
C970 C 0.28002 0.72762 0.01645 0.0
C971 C 0.26128 0.7263 0.00711 0.0
C972 C 0.24389 0.72472 0.01874 0.0
C973 C 0.24542 0.72481 0.03949 0.0
C974 C 0.29892 0.72895 0.00452 0.0
C975 C 0.22362 0.72349 0.0093 0.0
H976 H 0.25581 0.76041 0.9472 0.0
H977 H 0.25824 0.69686 0.94461 0.0
H978 H 0.24534 0.76467 -0.0024 0.0
H979 H 0.2717 0.76642 0.99569 0.0
H980 H 0.2563 0.77796 0.97715 0.0
H981 H 0.26203 0.67708 0.97284 0.0
H982 H 0.27569 0.68884 0.9926 0.0
H983 H 0.24932 0.68703 0.99414 0.0
H984 H 0.29541 0.72939 0.04438 0.0
H985 H 0.23207 0.72393 0.04839 0.0
H986 H 0.29895 0.7428 0.99567 0.0
H987 H 0.29981 0.7164 0.99393 0.0
H988 H 0.31235 0.7288 0.01405 0.0
H989 H 0.22081 0.73705 0.00044 0.0
H990 H 0.2116 0.7219 0.02044 0.0
H991 H 0.22294 0.71071 -0.00102 0.0
C992 C 0.75827 0.23115 0.9481 0.0
C993 C 0.76061 0.2489 0.9376 0.0
C994 C 0.75869 0.23096 0.9689 0.0
C995 C 0.7613 0.24899 0.97932 0.0
C996 C 0.76418 0.26685 0.96877 0.0
C997 C 0.76386 0.26658 0.94803 0.0
C998 C 0.75581 0.2116 0.97971 0.0
C999 C 0.76689 0.28638 0.97939 0.0
C1000 C 0.73903 0.25285 0.03063 0.0
C1001 C 0.75585 0.25139 0.0427 0.0
C1002 C 0.74066 0.25213 0.00996 0.0
C1003 C 0.75953 0.24947 0.00121 0.0
C1004 C 0.77659 0.24782 0.01334 0.0
C1005 C 0.77456 0.24903 0.03401 0.0
C1006 C 0.72218 0.25435 -0.00251 0.0
C1007 C 0.79689 0.24463 0.00447 0.0
H1008 H 0.75591 0.21742 0.94009 0.0
H1009 H 0.76577 0.28035 0.93999 0.0
H1010 H 0.76777 0.20944 0.99079 0.0
H1011 H 0.74155 0.21189 0.98791 0.0
H1012 H 0.75567 0.19871 0.96946 0.0
H1013 H 0.77002 0.29876 0.969 0.0
H1014 H 0.75328 0.28998 0.98789 0.0
H1015 H 0.77926 0.28535 0.99018 0.0
H1016 H 0.72456 0.25476 0.03736 0.0
H1017 H 0.78755 0.24771 0.04338 0.0
H1018 H 0.72008 0.24101 0.98811 0.0
H1019 H 0.72378 0.26722 0.98739 0.0
H1020 H 0.70866 0.2565 0.00664 0.0
H1021 H 0.79688 0.23103 0.99523 0.0
H1022 H 0.80858 0.24319 0.01599 0.0
H1023 H 0.80076 0.25719 0.99461 0.0
C1024 C 0.74432 0.7263 0.95398 0.0
C1025 C 0.72628 0.72765 0.94377 0.0
C1026 C 0.74481 0.72551 0.97475 0.0
C1027 C 0.72681 0.72581 0.98553 0.0
C1028 C 0.70851 0.72651 0.97528 0.0
C1029 C 0.70847 0.72758 0.95449 0.0
C1030 C 0.76463 0.72496 0.98516 0.0
C1031 C 0.68902 0.72653 0.98628 0.0
C1032 C 0.73001 0.70943 0.0393 0.0
C1033 C 0.73109 0.72769 0.04917 0.0
C1034 C 0.72796 0.70856 0.0186 0.0
C1035 C 0.72726 0.72637 0.00755 0.0
C1036 C 0.72793 0.74483 0.01749 0.0
C1037 C 0.72971 0.74526 0.0382 0.0
C1038 C 0.72697 0.6886 0.00853 0.0
C1039 C 0.7274 0.76415 0.00621 0.0
H1040 H 0.75813 0.72639 0.94577 0.0
H1041 H 0.69447 0.72848 0.94665 0.0
H1042 H 0.76639 0.7384 0.99448 0.0
H1043 H 0.7654 0.71195 0.99518 0.0
H1044 H 0.77724 0.72422 0.9746 0.0
H1045 H 0.6761 0.72576 0.97609 0.0
H1046 H 0.68834 0.71378 0.99663 0.0
H1047 H 0.68776 0.7402 0.99531 0.0
H1048 H 0.73095 0.6958 0.04773 0.0
H1049 H 0.73057 0.75942 0.04574 0.0
H1050 H 0.74023 0.68652 -0.00097 0.0
H1051 H 0.71378 0.68782 -0.00127 0.0
H1052 H 0.72627 0.67621 0.01933 0.0
H1053 H 0.74046 0.76512 0.99626 0.0
H1054 H 0.72743 0.77723 0.0162 0.0
H1055 H 0.71398 0.76481 0.99673 0.0
C1056 C 0.53654 0.75697 0.74706 0.0
C1057 C 0.54753 0.75532 0.76461 0.0
C1058 C 0.51584 0.75896 0.74759 0.0
C1059 C 0.50599 0.75967 0.76612 0.0
C1060 C 0.51706 0.75837 0.78389 0.0
C1061 C 0.5377 0.75603 0.78291 0.0
C1062 C 0.50448 0.76003 0.72833 0.0
C1063 C 0.50711 0.75941 0.80391 0.0
C1064 C 0.4543 0.78189 0.76638 0.0
C1065 C 0.44239 0.76487 0.76666 0.0
C1066 C 0.47505 0.78044 0.76666 0.0
C1067 C 0.48405 0.7615 0.76687 0.0
C1068 C 0.47208 0.74427 0.76739 0.0
C1069 C 0.45138 0.74617 0.76746 0.0
C1070 C 0.48733 0.79914 0.76649 0.0
C1071 C 0.48115 0.72382 0.7674 0.0
H1072 H 0.54408 0.75633 0.73289 0.0
H1073 H 0.54617 0.75489 0.79653 0.0
H1074 H 0.49363 0.74769 0.72755 0.0
H1075 H 0.49596 0.77406 0.72759 0.0
H1076 H 0.51436 0.75918 0.71518 0.0
H1077 H 0.51793 0.75883 0.81632 0.0
H1078 H 0.49842 0.77331 0.80516 0.0
H1079 H 0.49656 0.74691 0.80557 0.0
H1080 H 0.44739 0.79638 0.76588 0.0
H1081 H 0.44222 0.73297 0.76759 0.0
H1082 H 0.49631 0.79979 0.75273 0.0
H1083 H 0.49782 0.79913 0.77916 0.0
H1084 H 0.47805 0.81271 0.76734 0.0
H1085 H 0.49014 0.72172 0.75378 0.0
H1086 H 0.46977 0.71193 0.76807 0.0
H1087 H 0.49128 0.72213 0.78024 0.0
C1088 C 0.25602 0.46175 0.7672 0.0
C1089 C 0.23873 0.45048 0.76493 0.0
C1090 C 0.25506 0.48245 0.7691 0.0
C1091 C 0.23635 0.49196 0.76904 0.0
C1092 C 0.21882 0.48055 0.76745 0.0
C1093 C 0.22024 0.45995 0.76525 0.0
C1094 C 0.27408 0.49417 0.77055 0.0
C1095 C 0.1986 0.49014 0.76768 0.0
C1096 C 0.23357 0.54472 0.78846 0.0
C1097 C 0.23335 0.55565 0.77079 0.0
C1098 C 0.23429 0.52394 0.78814 0.0
C1099 C 0.23512 0.51393 0.76972 0.0
C1100 C 0.23479 0.5249 0.75184 0.0
C1101 C 0.23375 0.54563 0.75259 0.0
C1102 C 0.23427 0.5127 0.8075 0.0
C1103 C 0.23584 0.51475 0.73191 0.0
H1104 H 0.27034 0.45448 0.76691 0.0
H1105 H 0.20681 0.45126 0.76366 0.0
H1106 H 0.27538 0.50421 0.75759 0.0
H1107 H 0.27393 0.50358 0.78403 0.0
H1108 H 0.28738 0.48448 0.77104 0.0
H1109 H 0.18642 0.47905 0.76761 0.0
H1110 H 0.19699 0.49965 0.781 0.0
H1111 H 0.1969 0.49983 0.75452 0.0
H1112 H 0.2332 0.5524 0.80257 0.0
H1113 H 0.2337 0.55402 0.73889 0.0
H1114 H 0.24814 0.504 0.80892 0.0
H1115 H 0.22176 0.50203 0.80778 0.0
H1116 H 0.23298 0.52268 0.82053 0.0
H1117 H 0.24962 0.50584 0.7309 0.0
H1118 H 0.23558 0.52545 0.7194 0.0
H1119 H 0.22318 0.5044 0.73019 0.0
C1120 C 0.45828 0.22962 0.79462 0.0
C1121 C 0.44914 0.23149 0.77605 0.0
C1122 C 0.47888 0.22706 0.79619 0.0
C1123 C 0.49057 0.22676 0.77877 0.0
C1124 C 0.48136 0.22839 0.75997 0.0
C1125 C 0.46072 0.23055 0.75884 0.0
C1126 C 0.48814 0.22496 0.81645 0.0
C1127 C 0.49336 0.22838 0.74107 0.0
C1128 C 0.54465 0.24195 0.7809 0.0
C1129 C 0.55424 0.22368 0.77856 0.0
C1130 C 0.52391 0.2431 0.78151 0.0
C1131 C 0.51252 0.22553 0.7801 0.0
C1132 C 0.52216 0.20696 0.77871 0.0
C1133 C 0.54293 0.20627 0.77777 0.0
C1134 C 0.51416 0.2632 0.7828 0.0
C1135 C 0.51052 0.18788 0.77759 0.0
H1136 H 0.44935 0.2302 0.80797 0.0
H1137 H 0.45371 0.23206 0.74446 0.0
H1138 H 0.49741 0.2114 0.81705 0.0
H1139 H 0.49804 0.23775 0.81941 0.0
H1140 H 0.47686 0.22419 0.82842 0.0
H1141 H 0.4839 0.22951 0.72764 0.0
H1142 H 0.50388 0.24103 0.74116 0.0
H1143 H 0.50229 0.21463 0.74004 0.0
H1144 H 0.55333 0.25545 0.78148 0.0
H1145 H 0.55031 0.1921 0.77611 0.0
H1146 H 0.5036 0.26363 0.79539 0.0
H1147 H 0.50554 0.26603 0.76908 0.0
H1148 H 0.52512 0.27535 0.78471 0.0
H1149 H 0.49951 0.18719 0.7898 0.0
H1150 H 0.52023 0.17462 0.77847 0.0
H1151 H 0.50217 0.1873 0.76344 0.0
C1152 C 0.76077 0.44813 0.75103 0.0
C1153 C 0.76053 0.43892 0.76966 0.0
C1154 C 0.76115 0.46883 0.74932 0.0
C1155 C 0.76152 0.48064 0.76666 0.0
C1156 C 0.76158 0.47144 0.78553 0.0
C1157 C 0.76097 0.45067 0.78681 0.0
C1158 C 0.76091 0.47808 0.72893 0.0
C1159 C 0.7622 0.48355 0.80434 0.0
C1160 C 0.77977 0.53354 0.76045 0.0
C1161 C 0.7619 0.54413 0.75974 0.0
C1162 C 0.77988 0.51292 0.76317 0.0
C1163 C 0.76168 0.50262 0.76496 0.0
C1164 C 0.7436 0.51326 0.76443 0.0
C1165 C 0.74393 0.53391 0.76194 0.0
C1166 C 0.79947 0.50212 0.7639 0.0
C1167 C 0.72388 0.50279 0.76607 0.0
H1168 H 0.76036 0.43915 0.73771 0.0
H1169 H 0.76083 0.44364 0.80125 0.0
H1170 H 0.74773 0.48778 0.72736 0.0
H1171 H 0.77421 0.48753 0.72688 0.0
H1172 H 0.76058 0.46681 0.71693 0.0
H1173 H 0.76265 0.47413 0.81784 0.0
H1174 H 0.77542 0.49333 0.8043 0.0
H1175 H 0.74896 0.49326 0.80518 0.0
H1176 H 0.79371 0.54136 0.75888 0.0
H1177 H 0.73007 0.54201 0.76137 0.0
H1178 H 0.80051 0.49161 0.7513 0.0
H1179 H 0.80053 0.4933 0.77773 0.0
H1180 H 0.81232 0.5124 0.76322 0.0
H1181 H 0.72218 0.49217 0.75362 0.0
H1182 H 0.71118 0.51325 0.7658 0.0
H1183 H 0.72324 0.49411 0.78002 0.0
C1184 C 0.4511 0.24435 0.22846 0.0
C1185 C 0.4422 0.22564 0.23003 0.0
C1186 C 0.47171 0.2463 0.22642 0.0
C1187 C 0.48369 0.2291 0.22566 0.0
C1188 C 0.47476 0.21015 0.22684 0.0
C1189 C 0.45411 0.20864 0.22914 0.0
C1190 C 0.48069 0.26678 0.22546 0.0
C1191 C 0.48704 0.19148 0.22585 0.0
C1192 C 0.53566 0.23544 0.20473 0.0
C1193 C 0.54704 0.23671 0.22208 0.0
C1194 C 0.51506 0.23249 0.20564 0.0
C1195 C 0.50563 0.23105 0.22434 0.0
C1196 C 0.51709 0.23213 0.24189 0.0
C1197 C 0.53766 0.23483 0.24054 0.0
C1198 C 0.50334 0.23116 0.18661 0.0
C1199 C 0.50756 0.23087 0.26211 0.0
H1200 H 0.44198 0.25755 0.22919 0.0
H1201 H 0.4473 0.19414 0.23025 0.0
H1202 H 0.49102 0.26893 0.23808 0.0
H1203 H 0.48944 0.26847 0.21164 0.0
H1204 H 0.46928 0.27863 0.22595 0.0
H1205 H 0.47775 0.17789 0.22607 0.0
H1206 H 0.49614 0.19143 0.21215 0.0
H1207 H 0.49741 0.19095 0.2386 0.0
H1208 H 0.54284 0.2368 0.19042 0.0
H1209 H 0.54636 0.23585 0.25401 0.0
H1210 H 0.49267 0.24363 0.18576 0.0
H1211 H 0.49459 0.21724 0.18632 0.0
H1212 H 0.51301 0.2316 0.17328 0.0
H1213 H 0.49685 0.2432 0.264 0.0
H1214 H 0.51862 0.23162 0.2743 0.0
H1215 H 0.49913 0.21684 0.26353 0.0
C1216 C 0.77927 0.46061 0.22166 0.0
C1217 C 0.76148 0.44997 0.22019 0.0
C1218 C 0.77925 0.48138 0.22224 0.0
C1219 C 0.76098 0.49165 0.22165 0.0
C1220 C 0.74304 0.481 0.21943 0.0
C1221 C 0.74352 0.46026 0.21857 0.0
C1222 C 0.79871 0.49229 0.22418 0.0
C1223 C 0.72325 0.49144 0.21888 0.0
C1224 C 0.75698 0.54189 0.24645 0.0
C1225 C 0.75624 0.55457 0.23004 0.0
C1226 C 0.75891 0.52136 0.24392 0.0
C1227 C 0.76044 0.51344 0.22453 0.0
C1228 C 0.7605 0.52626 0.20795 0.0
C1229 C 0.75823 0.54669 0.21091 0.0
C1230 C 0.75862 0.50811 0.26195 0.0
C1231 C 0.76248 0.51836 0.1871 0.0
H1232 H 0.79321 0.4527 0.22278 0.0
H1233 H 0.72972 0.45209 0.21747 0.0
H1234 H 0.79973 0.50419 0.21289 0.0
H1235 H 0.79957 0.49947 0.23895 0.0
H1236 H 0.81166 0.48227 0.22248 0.0
H1237 H 0.71075 0.48106 0.21616 0.0
H1238 H 0.72066 0.49912 0.2332 0.0
H1239 H 0.72319 0.5029 0.2071 0.0
H1240 H 0.7554 0.54794 0.26125 0.0
H1241 H 0.75782 0.55648 0.19818 0.0
H1242 H 0.77205 0.49865 0.26223 0.0
H1243 H 0.74558 0.4981 0.26125 0.0
H1244 H 0.75792 0.51666 0.27601 0.0
H1245 H 0.77567 0.50862 0.18594 0.0
H1246 H 0.76383 0.53041 0.17597 0.0
H1247 H 0.74932 0.50924 0.18334 0.0
C1248 C 0.53556 0.78886 0.23492 0.0
C1249 C 0.54462 0.77029 0.23698 0.0
C1250 C 0.51506 0.79042 0.23169 0.0
C1251 C 0.50341 0.77299 0.23088 0.0
C1252 C 0.51257 0.75421 0.23256 0.0
C1253 C 0.5331 0.75309 0.23543 0.0
C1254 C 0.50582 0.81067 0.22959 0.0
C1255 C 0.5006 0.73529 0.23201 0.0
C1256 C 0.4493 0.7743 0.24563 0.0
C1257 C 0.43988 0.77207 0.22725 0.0
C1258 C 0.47001 0.77526 0.24695 0.0
C1259 C 0.4815 0.77426 0.22943 0.0
C1260 C 0.47203 0.77297 0.21075 0.0
C1261 C 0.45129 0.77172 0.20989 0.0
C1262 C 0.47958 0.77643 0.26716 0.0
C1263 C 0.48383 0.77225 0.19174 0.0
H1264 H 0.54446 0.8022 0.23597 0.0
H1265 H 0.54004 0.7387 0.23705 0.0
H1266 H 0.4966 0.81132 0.21598 0.0
H1267 H 0.49587 0.81358 0.24236 0.0
H1268 H 0.51712 0.82263 0.22892 0.0
H1269 H 0.51007 0.72187 0.23297 0.0
H1270 H 0.48995 0.7351 0.24455 0.0
H1271 H 0.49182 0.73452 0.21812 0.0
H1272 H 0.44054 0.77458 0.2591 0.0
H1273 H 0.44403 0.77017 0.19563 0.0
H1274 H 0.49005 0.78908 0.26781 0.0
H1275 H 0.48827 0.76275 0.26994 0.0
H1276 H 0.46852 0.77814 0.27924 0.0
H1277 H 0.49482 0.78448 0.19137 0.0
H1278 H 0.47422 0.77334 0.17841 0.0
H1279 H 0.49222 0.75814 0.19098 0.0
C1280 C 0.22255 0.53601 0.23811 0.0
C1281 C 0.2401 0.54713 0.23841 0.0
C1282 C 0.22305 0.51526 0.23747 0.0
C1283 C 0.24156 0.50541 0.23742 0.0
C1284 C 0.25935 0.51655 0.23769 0.0
C1285 C 0.2584 0.53733 0.23803 0.0
C1286 C 0.20377 0.50388 0.23688 0.0
C1287 C 0.27935 0.50653 0.23786 0.0
C1288 C 0.24168 0.4518 0.25446 0.0
C1289 C 0.24239 0.44165 0.23634 0.0
C1290 C 0.24173 0.47258 0.25504 0.0
C1291 C 0.24223 0.48341 0.23707 0.0
C1292 C 0.2429 0.47323 0.21875 0.0
C1293 C 0.24309 0.45246 0.21861 0.0
C1294 C 0.24122 0.48296 0.27487 0.0
C1295 C 0.24319 0.48427 0.19928 0.0
H1296 H 0.20835 0.54352 0.2383 0.0
H1297 H 0.27201 0.54588 0.23836 0.0
H1298 H 0.20336 0.4942 0.22359 0.0
H1299 H 0.20262 0.49413 0.25006 0.0
H1300 H 0.19064 0.5138 0.23655 0.0
H1301 H 0.29178 0.51733 0.23816 0.0
H1302 H 0.28057 0.49675 0.25103 0.0
H1303 H 0.28099 0.49701 0.22455 0.0
H1304 H 0.24125 0.4435 0.2682 0.0
H1305 H 0.24359 0.44469 0.20455 0.0
H1306 H 0.22762 0.49212 0.27604 0.0
H1307 H 0.25409 0.49311 0.27624 0.0
H1308 H 0.2415 0.47238 0.28748 0.0
H1309 H 0.22974 0.49363 0.19797 0.0
H1310 H 0.24381 0.47413 0.18632 0.0
H1311 H 0.2562 0.49432 0.1987 0.0
C1312 C 0.76404 0.78518 0.54411 0.0
C1313 C 0.76362 0.7667 0.55359 0.0
C1314 C 0.76474 0.78654 0.52336 0.0
C1315 C 0.76469 0.76898 0.5119 0.0
C1316 C 0.76471 0.75029 0.52141 0.0
C1317 C 0.76432 0.74938 0.54216 0.0
C1318 C 0.76508 0.80671 0.51372 0.0
C1319 C 0.76451 0.73123 0.50967 0.0
C1320 C 0.74426 0.76901 0.45957 0.0
C1321 C 0.76162 0.76716 0.44833 0.0
C1322 C 0.74508 0.77028 0.4803 0.0
C1323 C 0.76374 0.77 0.48993 0.0
C1324 C 0.78135 0.76922 0.47857 0.0
C1325 C 0.78008 0.76764 0.45788 0.0
C1326 C 0.72597 0.77094 0.49194 0.0
C1327 C 0.80151 0.76931 0.48831 0.0
H1328 H 0.76363 0.79862 0.5529 0.0
H1329 H 0.76396 0.73506 0.54942 0.0
H1330 H 0.77753 0.80769 0.50301 0.0
H1331 H 0.75117 0.80905 0.50526 0.0
H1332 H 0.76661 0.81886 0.52473 0.0
H1333 H 0.76501 0.71792 0.51933 0.0
H1334 H 0.75088 0.73051 0.50047 0.0
H1335 H 0.77736 0.73076 0.49942 0.0
H1336 H 0.72996 0.76863 0.45224 0.0
H1337 H 0.79355 0.76639 0.44921 0.0
H1338 H 0.72606 0.78365 0.50235 0.0
H1339 H 0.72452 0.75726 0.50094 0.0
H1340 H 0.71275 0.77221 0.48218 0.0
H1341 H 0.80261 0.78166 0.49911 0.0
H1342 H 0.81371 0.77076 0.47734 0.0
H1343 H 0.80366 0.75532 0.49666 0.0
C1344 C 0.7457 0.26652 0.45398 0.0
C1345 C 0.74273 0.24882 0.44352 0.0
C1346 C 0.7458 0.2667 0.47479 0.0
C1347 C 0.74307 0.24873 0.48527 0.0
C1348 C 0.73995 0.23086 0.47476 0.0
C1349 C 0.73973 0.23115 0.45401 0.0
C1350 C 0.74895 0.28606 0.48557 0.0
C1351 C 0.73717 0.21138 0.48543 0.0
C1352 C 0.76399 0.24461 0.53716 0.0
C1353 C 0.74685 0.2461 0.54878 0.0
C1354 C 0.76295 0.2455 0.51646 0.0
C1355 C 0.74434 0.24836 0.50721 0.0
C1356 C 0.72699 0.25015 0.51888 0.0
C1357 C 0.72842 0.24877 0.53959 0.0
C1358 C 0.78172 0.24313 0.50447 0.0
C1359 C 0.70696 0.25357 0.5095 0.0
H1360 H 0.74788 0.28023 0.44593 0.0
H1361 H 0.7374 0.21742 0.446 0.0
H1362 H 0.73666 0.28867 0.49618 0.0
H1363 H 0.76287 0.28538 0.4943 0.0
H1364 H 0.74986 0.29885 0.47526 0.0
H1365 H 0.73455 0.19887 0.47504 0.0
H1366 H 0.75052 0.20803 0.49444 0.0
H1367 H 0.72442 0.21236 0.49576 0.0
H1368 H 0.77825 0.24247 0.54427 0.0
H1369 H 0.71518 0.25012 0.5486 0.0
H1370 H 0.78409 0.25636 0.49502 0.0
H1371 H 0.78033 0.23016 0.49445 0.0
H1372 H 0.795 0.24102 0.51398 0.0
H1373 H 0.70742 0.26699 0.50002 0.0
H1374 H 0.69504 0.25543 0.52071 0.0
H1375 H 0.70308 0.24089 0.49977 0.0
C1376 C 0.2389 0.7791 0.4571 0.0
C1377 C 0.2383 0.76152 0.44603 0.0
C1378 C 0.23827 0.77872 0.47789 0.0
C1379 C 0.23723 0.76029 0.48785 0.0
C1380 C 0.2367 0.74248 0.47676 0.0
C1381 C 0.23712 0.74332 0.45597 0.0
C1382 C 0.23864 0.79803 0.4892 0.0
C1383 C 0.23579 0.72255 0.48687 0.0
C1384 C 0.25328 0.75853 0.54187 0.0
C1385 C 0.23496 0.75828 0.55168 0.0
C1386 C 0.25425 0.75906 0.52107 0.0
C1387 C 0.23649 0.75967 0.50989 0.0
C1388 C 0.21797 0.75968 0.51976 0.0
C1389 C 0.21743 0.75884 0.54053 0.0
C1390 C 0.27427 0.75876 0.51106 0.0
C1391 C 0.19871 0.76062 0.50836 0.0
H1392 H 0.23977 0.79322 0.44951 0.0
H1393 H 0.23675 0.72967 0.4475 0.0
H1394 H 0.22521 0.79926 0.49861 0.0
H1395 H 0.25167 0.79843 0.49923 0.0
H1396 H 0.2393 0.8111 0.47922 0.0
H1397 H 0.23581 0.71008 0.47611 0.0
H1398 H 0.24864 0.72081 0.49698 0.0
H1399 H 0.22218 0.72152 0.49605 0.0
H1400 H 0.26687 0.75799 0.55042 0.0
H1401 H 0.20323 0.75874 0.54805 0.0
H1402 H 0.27612 0.7722 0.50179 0.0
H1403 H 0.27531 0.74576 0.50105 0.0
H1404 H 0.28667 0.75809 0.52188 0.0
H1405 H 0.19845 0.77405 0.4989 0.0
H1406 H 0.18557 0.7609 0.51829 0.0
H1407 H 0.19746 0.74761 0.49838 0.0
C1408 C 0.2449 0.25117 0.5397 0.0
C1409 C 0.24567 0.23401 0.55135 0.0
C1410 C 0.2428 0.24997 0.51903 0.0
C1411 C 0.24112 0.23116 0.50985 0.0
C1412 C 0.24151 0.2138 0.52159 0.0
C1413 C 0.24394 0.21543 0.54219 0.0
C1414 C 0.24266 0.26882 0.50697 0.0
C1415 C 0.23946 0.19351 0.51239 0.0
C1416 C 0.21897 0.23004 0.45809 0.0
C1417 C 0.23599 0.22858 0.44624 0.0
C1418 C 0.22038 0.23045 0.47885 0.0
C1419 C 0.23929 0.22968 0.48793 0.0
C1420 C 0.2565 0.22791 0.47604 0.0
C1421 C 0.25463 0.22723 0.45533 0.0
C1422 C 0.20168 0.23199 0.49104 0.0
C1423 C 0.27692 0.22723 0.48518 0.0
H1424 H 0.2463 0.26556 0.5467 0.0
H1425 H 0.2444 0.20211 0.55115 0.0
H1426 H 0.25506 0.26861 0.49616 0.0
H1427 H 0.2287 0.26988 0.49835 0.0
H1428 H 0.24409 0.28226 0.51637 0.0
H1429 H 0.23938 0.18152 0.52366 0.0
H1430 H 0.22552 0.19264 0.50369 0.0
H1431 H 0.25188 0.19081 0.50196 0.0
H1432 H 0.20452 0.231 0.45113 0.0
H1433 H 0.26783 0.22619 0.44624 0.0
H1434 H 0.20169 0.24608 0.4995 0.0
H1435 H 0.20105 0.21974 0.502 0.0
H1436 H 0.18809 0.23145 0.48175 0.0
H1437 H 0.27969 0.24105 0.49365 0.0
H1438 H 0.28879 0.22553 0.47388 0.0
H1439 H 0.27795 0.21473 0.4958 0.0
C1440 C 0.20473 0.14883 0.26988 0.0
C1441 C 0.22058 0.15816 0.26016 0.0
C1442 C 0.18727 0.15923 0.27433 0.0
C1443 C 0.1855 0.17932 0.2686 0.0
C1444 C 0.20132 0.1887 0.25848 0.0
C1445 C 0.21872 0.17806 0.25454 0.0
C1446 C 0.17086 0.14885 0.28547 0.0
C1447 C 0.19987 0.20999 0.25176 0.0
C1448 C 0.13523 0.20385 0.26297 0.0
C1449 C 0.13472 0.21618 0.2797 0.0
C1450 C 0.15138 0.19122 0.2595 0.0
C1451 C 0.16721 0.1907 0.27327 0.0
C1452 C 0.16619 0.20222 0.29079 0.0
C1453 C 0.15 0.21494 0.29373 0.0
C1454 C 0.15202 0.17931 0.24056 0.0
C1455 C 0.18268 0.20188 0.30594 0.0
H1456 H 0.20618 0.13352 0.27453 0.0
H1457 H 0.23091 0.18534 0.24705 0.0
H1458 H 0.16773 0.15683 0.29951 0.0
H1459 H 0.15703 0.14903 0.27657 0.0
H1460 H 0.17464 0.13324 0.28903 0.0
H1461 H 0.19612 0.21975 0.26445 0.0
H1462 H 0.21386 0.21538 0.24496 0.0
H1463 H 0.18778 0.21144 0.2407 0.0
H1464 H 0.12353 0.20482 0.252 0.0
H1465 H 0.14965 0.22444 0.30669 0.0
H1466 H 0.1554 0.16357 0.24378 0.0
H1467 H 0.16404 0.18502 0.23089 0.0
H1468 H 0.13782 0.18006 0.23224 0.0
H1469 H 0.18672 0.1864 0.3097 0.0
H1470 H 0.17857 0.20979 0.31979 0.0
H1471 H 0.19608 0.20905 0.29965 0.0
C1472 C 0.82392 0.22352 0.25345 0.0
C1473 C 0.84247 0.22713 0.26209 0.0
C1474 C 0.81407 0.20545 0.25632 0.0
C1475 C 0.82284 0.19068 0.26838 0.0
C1476 C 0.8417 0.1941 0.27694 0.0
C1477 C 0.85135 0.21225 0.2736 0.0
C1478 C 0.79411 0.20229 0.24668 0.0
C1479 C 0.85144 0.17881 0.29002 0.0
C1480 C 0.78568 0.15437 0.28987 0.0
C1481 C 0.7868 0.13869 0.27629 0.0
C1482 C 0.79809 0.17098 0.2881 0.0
C1483 C 0.8119 0.17193 0.27232 0.0
C1484 C 0.81391 0.15562 0.25927 0.0
C1485 C 0.80139 0.13914 0.26147 0.0
C1486 C 0.79568 0.18795 0.30249 0.0
C1487 C 0.82842 0.15608 0.24224 0.0
H1488 H 0.81697 0.23492 0.24453 0.0
H1489 H 0.86559 0.215 0.28053 0.0
H1490 H 0.79462 0.18905 0.23695 0.0
H1491 H 0.7827 0.1995 0.25819 0.0
H1492 H 0.7894 0.21522 0.23767 0.0
H1493 H 0.86664 0.18324 0.29456 0.0
H1494 H 0.84239 0.17657 0.30357 0.0
H1495 H 0.85224 0.16435 0.28224 0.0
H1496 H 0.7745 0.15406 0.30142 0.0
H1497 H 0.80233 0.1271 0.25088 0.0
H1498 H 0.79006 0.20119 0.29454 0.0
H1499 H 0.81023 0.19195 0.30901 0.0
H1500 H 0.78524 0.18436 0.31471 0.0
H1501 H 0.82348 0.16714 0.23113 0.0
H1502 H 0.82972 0.14146 0.23479 0.0
H1503 H 0.84332 0.16069 0.24747 0.0
C1504 C 0.85853 0.79516 0.27543 0.0
C1505 C 0.87241 0.79163 0.26039 0.0
C1506 C 0.84272 0.80831 0.27249 0.0
C1507 C 0.84065 0.81795 0.25396 0.0
C1508 C 0.85537 0.81546 0.23921 0.0
C1509 C 0.87118 0.80239 0.24266 0.0
C1510 C 0.82749 0.8108 0.28871 0.0
C1511 C 0.85364 0.82538 0.21924 0.0
C1512 C 0.78724 0.82692 0.23928 0.0
C1513 C 0.7848 0.84708 0.24364 0.0
C1514 C 0.80558 0.81754 0.2418 0.0
C1515 C 0.82186 0.82846 0.24927 0.0
C1516 C 0.81971 0.84892 0.25329 0.0
C1517 C 0.80121 0.85803 0.25031 0.0
C1518 C 0.80737 0.79577 0.23692 0.0
C1519 C 0.83672 0.861 0.26137 0.0
H1520 H 0.8595 0.78693 0.28919 0.0
H1521 H 0.88183 0.79964 0.23094 0.0
H1522 H 0.82422 0.82672 0.29114 0.0
H1523 H 0.81344 0.80351 0.28422 0.0
H1524 H 0.83245 0.8042 0.30296 0.0
H1525 H 0.86767 0.82448 0.21067 0.0
H1526 H 0.84176 0.81804 0.21053 0.0
H1527 H 0.84946 0.84118 0.22092 0.0
H1528 H 0.77469 0.81827 0.23426 0.0
H1529 H 0.79949 0.87361 0.25382 0.0
H1530 H 0.81127 0.78729 0.25046 0.0
H1531 H 0.81947 0.79349 0.22603 0.0
H1532 H 0.79346 0.78955 0.23068 0.0
H1533 H 0.84049 0.85577 0.27649 0.0
H1534 H 0.83314 0.87705 0.26213 0.0
H1535 H 0.85011 0.859 0.25203 0.0
C1536 C 0.20506 0.84374 0.28047 0.0
C1537 C 0.20451 0.85742 0.26486 0.0
C1538 C 0.1949 0.82565 0.27917 0.0
C1539 C 0.18417 0.82108 0.26172 0.0
C1540 C 0.18289 0.83518 0.24625 0.0
C1541 C 0.19297 0.85328 0.24807 0.0
C1542 C 0.19646 0.81104 0.29606 0.0
C1543 C 0.17173 0.83075 0.22735 0.0
C1544 C 0.17815 0.76647 0.24961 0.0
C1545 C 0.15858 0.76292 0.25561 0.0
C1546 C 0.18655 0.78542 0.25123 0.0
C1547 C 0.17518 0.80112 0.25927 0.0
C1548 C 0.15542 0.79765 0.26533 0.0
C1549 C 0.14731 0.77862 0.26331 0.0
C1550 C 0.20753 0.78863 0.24415 0.0
C1551 C 0.14294 0.81394 0.27425 0.0
H1552 H 0.21401 0.8469 0.29345 0.0
H1553 H 0.19267 0.86371 0.23586 0.0
H1554 H 0.18151 0.80586 0.30054 0.0
H1555 H 0.20495 0.79785 0.29113 0.0
H1556 H 0.20399 0.81749 0.30922 0.0
H1557 H 0.17081 0.84386 0.21744 0.0
H1558 H 0.17929 0.81861 0.21923 0.0
H1559 H 0.15648 0.82562 0.23075 0.0
H1560 H 0.18694 0.75443 0.24366 0.0
H1561 H 0.13223 0.77598 0.2682 0.0
H1562 H 0.21646 0.79623 0.25569 0.0
H1563 H 0.20731 0.7983 0.23087 0.0
H1564 H 0.21501 0.77452 0.24018 0.0
H1565 H 0.14999 0.81938 0.28809 0.0
H1566 H 0.12766 0.80892 0.27776 0.0
H1567 H 0.14205 0.82667 0.2639 0.0
C1568 C 0.15101 0.78552 0.70302 0.0
C1569 C 0.13553 0.78642 0.71687 0.0
C1570 C 0.16803 0.79731 0.70522 0.0
C1571 C 0.16963 0.81014 0.72176 0.0
C1572 C 0.15357 0.81193 0.73514 0.0
C1573 C 0.13665 0.80013 0.73246 0.0
C1574 C 0.18472 0.7952 0.69045 0.0
C1575 C 0.15474 0.82538 0.75299 0.0
C1576 C 0.22151 0.82033 0.74104 0.0
C1577 C 0.22506 0.83952 0.73396 0.0
C1578 C 0.20344 0.81073 0.73735 0.0
C1579 C 0.18868 0.82042 0.72599 0.0
C1580 C 0.19217 0.83978 0.71876 0.0
C1581 C 0.21026 0.84918 0.72299 0.0
C1582 C 0.20017 0.79019 0.74558 0.0
C1583 C 0.17694 0.85043 0.70631 0.0
H1584 H 0.15019 0.77501 0.69089 0.0
H1585 H 0.12477 0.80091 0.74324 0.0
H1586 H 0.19014 0.80997 0.68571 0.0
H1587 H 0.19735 0.7874 0.69752 0.0
H1588 H 0.18016 0.7867 0.6771 0.0
H1589 H 0.14036 0.82644 0.76094 0.0
H1590 H 0.16607 0.81964 0.76345 0.0
H1591 H 0.15943 0.84048 0.74852 0.0
H1592 H 0.23289 0.81279 0.74949 0.0
H1593 H 0.21302 0.86391 0.71721 0.0
H1594 H 0.19717 0.77965 0.73332 0.0
H1595 H 0.18701 0.79015 0.75544 0.0
H1596 H 0.21314 0.78475 0.75412 0.0
H1597 H 0.17341 0.84153 0.69293 0.0
H1598 H 0.1821 0.86531 0.70151 0.0
H1599 H 0.16297 0.85218 0.71482 0.0
C1600 C 0.20305 0.14536 0.70995 0.0
C1601 C 0.20345 0.12998 0.72388 0.0
C1602 C 0.19043 0.16168 0.71243 0.0
C1603 C 0.17804 0.16268 0.72935 0.0
C1604 C 0.17746 0.14659 0.74279 0.0
C1605 C 0.19011 0.13034 0.73982 0.0
C1606 C 0.19111 0.17832 0.6975 0.0
C1607 C 0.16452 0.14712 0.76104 0.0
C1608 C 0.16758 0.21469 0.74786 0.0
C1609 C 0.14838 0.21809 0.74066 0.0
C1610 C 0.1771 0.19649 0.74479 0.0
C1611 C 0.16733 0.18138 0.73397 0.0
C1612 C 0.14781 0.18453 0.72698 0.0
C1613 C 0.13852 0.20282 0.7305 0.0
C1614 C 0.19782 0.19358 0.75277 0.0
C1615 C 0.13697 0.16883 0.7153 0.0
H1616 H 0.21328 0.14507 0.69755 0.0
H1617 H 0.19043 0.11855 0.75072 0.0
H1618 H 0.17605 0.18097 0.69148 0.0
H1619 H 0.19604 0.19222 0.70479 0.0
H1620 H 0.20128 0.17509 0.68495 0.0
H1621 H 0.16383 0.13251 0.76857 0.0
H1622 H 0.17053 0.15816 0.77166 0.0
H1623 H 0.14924 0.15181 0.75718 0.0
H1624 H 0.17534 0.22638 0.75565 0.0
H1625 H 0.12374 0.20533 0.72472 0.0
H1626 H 0.20826 0.19083 0.74036 0.0
H1627 H 0.19824 0.18039 0.76256 0.0
H1628 H 0.20316 0.20661 0.76131 0.0
H1629 H 0.14453 0.16648 0.70089 0.0
H1630 H 0.1213 0.17295 0.71236 0.0
H1631 H 0.13724 0.15451 0.72334 0.0
C1632 C 0.86184 0.19312 0.71048 0.0
C1633 C 0.85991 0.20854 0.69665 0.0
C1634 C 0.84617 0.17991 0.71409 0.0
C1635 C 0.82821 0.18199 0.70345 0.0
C1636 C 0.82671 0.19659 0.68844 0.0
C1637 C 0.84256 0.20974 0.68526 0.0
C1638 C 0.84838 0.16463 0.73028 0.0
C1639 C 0.80792 0.19916 0.67655 0.0
C1640 C 0.78926 0.14117 0.70645 0.0
C1641 C 0.77584 0.14922 0.72016 0.0
C1642 C 0.80642 0.15162 0.70083 0.0
C1643 C 0.81041 0.17034 0.70944 0.0
C1644 C 0.79722 0.1782 0.72376 0.0
C1645 C 0.78003 0.16765 0.72878 0.0
C1646 C 0.81994 0.14292 0.68528 0.0
C1647 C 0.80103 0.19797 0.73352 0.0
H1648 H 0.8752 0.19201 0.71933 0.0
H1649 H 0.84099 0.22151 0.67445 0.0
H1650 H 0.83874 0.16869 0.74298 0.0
H1651 H 0.84353 0.14985 0.72497 0.0
H1652 H 0.8639 0.16348 0.73568 0.0
H1653 H 0.81031 0.20851 0.66321 0.0
H1654 H 0.80198 0.18459 0.67181 0.0
H1655 H 0.79648 0.20634 0.68593 0.0
H1656 H 0.78597 0.12706 0.69952 0.0
H1657 H 0.76973 0.17394 0.73938 0.0
H1658 H 0.83517 0.14135 0.69129 0.0
H1659 H 0.82084 0.15306 0.67237 0.0
H1660 H 0.81476 0.12819 0.68004 0.0
H1661 H 0.81608 0.19827 0.74015 0.0
H1662 H 0.79004 0.20136 0.7453 0.0
H1663 H 0.8004 0.20988 0.7222 0.0
C1664 C 0.8189 0.76911 0.7459 0.0
C1665 C 0.83883 0.76726 0.74031 0.0
C1666 C 0.80842 0.78672 0.74255 0.0
C1667 C 0.818 0.8028 0.73307 0.0
C1668 C 0.83812 0.80107 0.7274 0.0
C1669 C 0.84836 0.78338 0.73125 0.0
C1670 C 0.78713 0.78813 0.74931 0.0
C1671 C 0.84869 0.81773 0.71685 0.0
C1672 C 0.7829 0.83911 0.7084 0.0
C1673 C 0.78179 0.85418 0.72263 0.0
C1674 C 0.79537 0.82271 0.71119 0.0
C1675 C 0.80673 0.82124 0.72878 0.0
C1676 C 0.8062 0.83677 0.74287 0.0
C1677 C 0.79387 0.85317 0.73953 0.0
C1678 C 0.7957 0.80655 0.69574 0.0
C1679 C 0.81784 0.83559 0.76195 0.0
H1680 H 0.81144 0.75672 0.75285 0.0
H1681 H 0.86368 0.78199 0.72662 0.0
H1682 H 0.78611 0.79892 0.76167 0.0
H1683 H 0.77749 0.79358 0.73716 0.0
H1684 H 0.78124 0.77367 0.75452 0.0
H1685 H 0.86451 0.81424 0.71391 0.0
H1686 H 0.84125 0.82077 0.7025 0.0
H1687 H 0.84789 0.8315 0.72579 0.0
H1688 H 0.77356 0.83984 0.69534 0.0
H1689 H 0.7929 0.86468 0.75069 0.0
H1690 H 0.78894 0.79288 0.70188 0.0
H1691 H 0.81122 0.80298 0.69171 0.0
H1692 H 0.78752 0.81076 0.68208 0.0
H1693 H 0.81189 0.82339 0.77124 0.0
H1694 H 0.81707 0.84958 0.77061 0.0
H1695 H 0.83362 0.83216 0.75886 0.0
C1696 C 0.25174 0.14173 0.19826 0.0
C1697 C 0.26828 0.13839 0.21039 0.0
C1698 C 0.2497 0.15948 0.18766 0.0
C1699 C 0.26473 0.17404 0.18895 0.0
C1700 C 0.28198 0.1703 0.20032 0.0
C1701 C 0.28347 0.15255 0.21104 0.0
C1702 C 0.23098 0.16305 0.1759 0.0
C1703 C 0.29842 0.18541 0.20191 0.0
C1704 C 0.26496 0.21483 0.15025 0.0
C1705 C 0.25634 0.23061 0.16069 0.0
C1706 C 0.26801 0.1964 0.15933 0.0
C1707 C 0.26195 0.19358 0.17921 0.0
C1708 C 0.25308 0.20939 0.18978 0.0
C1709 C 0.25052 0.22777 0.18043 0.0
C1710 C 0.2779 0.18001 0.14774 0.0
C1711 C 0.246 0.20685 0.21086 0.0
H1712 H 0.23985 0.13093 0.19783 0.0
H1713 H 0.29627 0.15003 0.22044 0.0
H1714 H 0.22256 0.17547 0.18262 0.0
H1715 H 0.23466 0.1674 0.16048 0.0
H1716 H 0.22125 0.14978 0.17544 0.0
H1717 H 0.3118 0.17931 0.20931 0.0
H1718 H 0.30264 0.19087 0.187 0.0
H1719 H 0.29315 0.19836 0.21058 0.0
H1720 H 0.26979 0.21701 0.13508 0.0
H1721 H 0.24388 0.23991 0.18858 0.0
H1722 H 0.26762 0.16727 0.1462 0.0
H1723 H 0.29117 0.17463 0.15583 0.0
H1724 H 0.28252 0.18488 0.1327 0.0
H1725 H 0.2332 0.19653 0.21107 0.0
H1726 H 0.24132 0.2211 0.21763 0.0
H1727 H 0.25782 0.20027 0.2202 0.0
C1728 C 0.80212 0.26868 0.14295 0.0
C1729 C 0.786 0.25851 0.15127 0.0
C1730 C 0.81907 0.27297 0.15427 0.0
C1731 C 0.82 0.26664 0.17424 0.0
C1732 C 0.80393 0.25601 0.18258 0.0
C1733 C 0.78706 0.25224 0.17104 0.0
C1734 C 0.83575 0.28465 0.145 0.0
C1735 C 0.80449 0.24871 0.20374 0.0
C1736 C 0.86849 0.26088 0.20208 0.0
C1737 C 0.86777 0.27712 0.21503 0.0
C1738 C 0.85349 0.25777 0.188 0.0
C1739 C 0.83756 0.27135 0.18672 0.0
C1740 C 0.8375 0.2885 0.19882 0.0
C1741 C 0.85257 0.29112 0.21291 0.0
C1742 C 0.85405 0.23929 0.17539 0.0
C1743 C 0.82089 0.30347 0.19771 0.0
H1744 H 0.80126 0.27382 0.12775 0.0
H1745 H 0.77465 0.2444 0.17754 0.0
H1746 H 0.83758 0.29893 0.15294 0.0
H1747 H 0.84992 0.27644 0.14644 0.0
H1748 H 0.83306 0.2878 0.12906 0.0
H1749 H 0.79071 0.24078 0.208 0.0
H1750 H 0.81724 0.23854 0.20578 0.0
H1751 H 0.80662 0.26136 0.21403 0.0
H1752 H 0.88017 0.24997 0.20367 0.0
H1753 H 0.85202 0.30375 0.22283 0.0
H1754 H 0.85141 0.243 0.15959 0.0
H1755 H 0.84203 0.22909 0.18011 0.0
H1756 H 0.86842 0.23136 0.17664 0.0
H1757 H 0.81812 0.30783 0.1821 0.0
H1758 H 0.82415 0.317 0.2065 0.0
H1759 H 0.80702 0.29674 0.20345 0.0
C1760 C 0.71798 0.85391 0.1973 0.0
C1761 C 0.733 0.86818 0.1986 0.0
C1762 C 0.72033 0.83696 0.18552 0.0
C1763 C 0.73825 0.83414 0.17496 0.0
C1764 C 0.75295 0.84913 0.1752 0.0
C1765 C 0.75009 0.86607 0.18696 0.0
C1766 C 0.70417 0.82146 0.18544 0.0
C1767 C 0.77227 0.84666 0.1642 0.0
C1768 C 0.75238 0.78017 0.16877 0.0
C1769 C 0.74632 0.7763 0.14927 0.0
C1770 C 0.75062 0.79916 0.17697 0.0
C1771 C 0.74231 0.81465 0.16551 0.0
C1772 C 0.73672 0.81104 0.14563 0.0
C1773 C 0.73888 0.79192 0.1377 0.0
C1774 C 0.75721 0.80254 0.19808 0.0
C1775 C 0.72777 0.82716 0.13298 0.0
H1776 H 0.70473 0.85554 0.20626 0.0
H1777 H 0.76184 0.87698 0.18804 0.0
H1778 H 0.7005 0.8171 0.17002 0.0
H1779 H 0.70945 0.80798 0.19325 0.0
H1780 H 0.69044 0.82672 0.19285 0.0
H1781 H 0.78069 0.86078 0.16328 0.0
H1782 H 0.7816 0.8356 0.17201 0.0
H1783 H 0.76965 0.84104 0.14897 0.0
H1784 H 0.75816 0.76824 0.17781 0.0
H1785 H 0.73408 0.7891 0.12263 0.0
H1786 H 0.74444 0.80738 0.20726 0.0
H1787 H 0.76843 0.81454 0.19851 0.0
H1788 H 0.76371 0.78904 0.20487 0.0
H1789 H 0.71306 0.83135 0.13901 0.0
H1790 H 0.72585 0.82245 0.11731 0.0
H1791 H 0.73722 0.84061 0.13334 0.0
C1792 C 0.15551 0.69642 0.21206 0.0
C1793 C 0.13932 0.7094 0.2112 0.0
C1794 C 0.17204 0.69911 0.1997 0.0
C1795 C 0.1724 0.71527 0.18633 0.0
C1796 C 0.15563 0.72774 0.18463 0.0
C1797 C 0.13922 0.72457 0.19699 0.0
C1798 C 0.18953 0.6853 0.20175 0.0
C1799 C 0.1555 0.7452 0.17064 0.0
C1800 C 0.22294 0.73658 0.17389 0.0
C1801 C 0.22622 0.729 0.15482 0.0
C1802 C 0.20536 0.73242 0.18416 0.0
C1803 C 0.19086 0.72009 0.1753 0.0
C1804 C 0.19406 0.7124 0.15605 0.0
C1805 C 0.21163 0.7171 0.14596 0.0
C1806 C 0.20234 0.7412 0.20454 0.0
C1807 C 0.17907 0.69894 0.14628 0.0
H1808 H 0.15564 0.68463 0.22297 0.0
H1809 H 0.12678 0.73469 0.19625 0.0
H1810 H 0.1949 0.68055 0.18696 0.0
H1811 H 0.2019 0.6932 0.20918 0.0
H1812 H 0.18585 0.67192 0.2106 0.0
H1813 H 0.1407 0.75237 0.16978 0.0
H1814 H 0.16643 0.75638 0.17573 0.0
H1815 H 0.15996 0.74052 0.15552 0.0
H1816 H 0.23416 0.74577 0.1808 0.0
H1817 H 0.21419 0.71096 0.13133 0.0
H1818 H 0.20008 0.72922 0.21556 0.0
H1819 H 0.18881 0.75054 0.20462 0.0
H1820 H 0.21511 0.75041 0.20936 0.0
H1821 H 0.17632 0.6858 0.15577 0.0
H1822 H 0.18405 0.69377 0.13145 0.0
H1823 H 0.16474 0.7068 0.14458 0.0
C1824 C 0.25744 0.86022 0.79681 0.0
C1825 C 0.27381 0.86102 0.78401 0.0
C1826 C 0.25444 0.84389 0.80932 0.0
C1827 C 0.26828 0.82814 0.8092 0.0
C1828 C 0.28553 0.82951 0.79729 0.0
C1829 C 0.28802 0.8459 0.78475 0.0
C1830 C 0.2358 0.84291 0.82167 0.0
C1831 C 0.30076 0.81313 0.7969 0.0
C1832 C 0.26636 0.78858 0.8493 0.0
C1833 C 0.25686 0.77302 0.83928 0.0
C1834 C 0.27007 0.80672 0.83978 0.0
C1835 C 0.26382 0.80942 0.81993 0.0
C1836 C 0.25369 0.79396 0.80998 0.0
C1837 C 0.25051 0.77591 0.81971 0.0
C1838 C 0.28116 0.82277 0.85075 0.0
C1839 C 0.24645 0.79639 0.78893 0.0
H1840 H 0.24635 0.87182 0.79627 0.0
H1841 H 0.30074 0.84649 0.77494 0.0
H1842 H 0.2258 0.83135 0.81558 0.0
H1843 H 0.23933 0.83868 0.83716 0.0
H1844 H 0.22769 0.85723 0.82183 0.0
H1845 H 0.31458 0.81768 0.78918 0.0
H1846 H 0.30455 0.80842 0.81218 0.0
H1847 H 0.29453 0.80005 0.7891 0.0
H1848 H 0.27154 0.78636 0.86435 0.0
H1849 H 0.24317 0.76395 0.81191 0.0
H1850 H 0.2721 0.83646 0.85132 0.0
H1851 H 0.29504 0.82644 0.84271 0.0
H1852 H 0.28501 0.81833 0.86613 0.0
H1853 H 0.23594 0.809 0.78808 0.0
H1854 H 0.23889 0.7829 0.78329 0.0
H1855 H 0.25907 0.79983 0.77897 0.0
C1856 C 0.12067 0.252 0.79996 0.0
C1857 C 0.12166 0.2684 0.78723 0.0
C1858 C 0.13552 0.24862 0.81416 0.0
C1859 C 0.15159 0.26204 0.81572 0.0
C1860 C 0.15169 0.27949 0.80408 0.0
C1861 C 0.13676 0.28242 0.78992 0.0
C1862 C 0.13483 0.22986 0.82632 0.0
C1863 C 0.1684 0.29433 0.80548 0.0
C1864 C 0.18999 0.25854 0.85696 0.0
C1865 C 0.20577 0.24925 0.84705 0.0
C1866 C 0.17197 0.26239 0.84718 0.0
C1867 C 0.16962 0.25654 0.82716 0.0
C1868 C 0.18518 0.24641 0.8174 0.0
C1869 C 0.20309 0.24315 0.82736 0.0
C1870 C 0.1558 0.27341 0.858 0.0
C1871 C 0.1832 0.23956 0.79617 0.0
H1872 H 0.10902 0.24111 0.79798 0.0
H1873 H 0.13749 0.29521 0.78024 0.0
H1874 H 0.14591 0.21921 0.82047 0.0
H1875 H 0.13873 0.23292 0.842 0.0
H1876 H 0.11999 0.22274 0.82581 0.0
H1877 H 0.16495 0.3083 0.7975 0.0
H1878 H 0.17167 0.29789 0.8212 0.0
H1879 H 0.18204 0.28786 0.79894 0.0
H1880 H 0.19193 0.26347 0.87213 0.0
H1881 H 0.2152 0.2362 0.81948 0.0
H1882 H 0.14135 0.26578 0.85614 0.0
H1883 H 0.15423 0.28847 0.8516 0.0
H1884 H 0.15899 0.2749 0.87409 0.0
H1885 H 0.19613 0.23065 0.79123 0.0
H1886 H 0.18178 0.25259 0.78624 0.0
H1887 H 0.1696 0.23049 0.79436 0.0
C1888 C 0.71537 0.13966 0.7756 0.0
C1889 C 0.72998 0.12515 0.77295 0.0
C1890 C 0.71814 0.15527 0.78905 0.0
C1891 C 0.73608 0.15649 0.79989 0.0
C1892 C 0.75036 0.14122 0.79814 0.0
C1893 C 0.74708 0.12564 0.78476 0.0
C1894 C 0.70244 0.17114 0.79067 0.0
C1895 C 0.76969 0.14203 0.8094 0.0
C1896 C 0.75339 0.20856 0.81173 0.0
C1897 C 0.74834 0.21038 0.8318 0.0
C1898 C 0.74989 0.19092 0.80136 0.0
C1899 C 0.7408 0.17478 0.81121 0.0
C1900 C 0.73582 0.17642 0.83153 0.0
C1901 C 0.7398 0.19418 0.84165 0.0
C1902 C 0.75574 0.18964 0.77977 0.0
C1903 C 0.7258 0.15964 0.84241 0.0
H1904 H 0.70207 0.13926 0.76658 0.0
H1905 H 0.75845 0.11448 0.78274 0.0
H1906 H 0.69922 0.1745 0.80645 0.0
H1907 H 0.70792 0.18499 0.78371 0.0
H1908 H 0.6884 0.16677 0.78323 0.0
H1909 H 0.77811 0.12793 0.80826 0.0
H1910 H 0.77903 0.15415 0.80338 0.0
H1911 H 0.767 0.14532 0.82529 0.0
H1912 H 0.76001 0.22102 0.80408 0.0
H1913 H 0.73563 0.19559 0.8571 0.0
H1914 H 0.74264 0.18592 0.77054 0.0
H1915 H 0.76676 0.17761 0.77772 0.0
H1916 H 0.76224 0.20368 0.77418 0.0
H1917 H 0.71109 0.15667 0.83567 0.0
H1918 H 0.72366 0.16297 0.8584 0.0
H1919 H 0.73467 0.14588 0.841 0.0
C1920 C 0.78495 0.72338 0.8505 0.0
C1921 C 0.76968 0.73306 0.84019 0.0
C1922 C 0.8035 0.72014 0.84163 0.0
C1923 C 0.80693 0.72693 0.82209 0.0
C1924 C 0.79169 0.73704 0.81177 0.0
C1925 C 0.77323 0.73986 0.8209 0.0
C1926 C 0.81928 0.7091 0.85302 0.0
C1927 C 0.79482 0.74472 0.791 0.0
C1928 C 0.85879 0.73523 0.8019 0.0
C1929 C 0.86087 0.71907 0.789 0.0
C1930 C 0.84162 0.73757 0.81343 0.0
C1931 C 0.82629 0.7233 0.81216 0.0
C1932 C 0.82886 0.70632 0.80009 0.0
C1933 C 0.84613 0.70443 0.78863 0.0
C1934 C 0.83942 0.75589 0.82608 0.0
C1935 C 0.81301 0.69059 0.79861 0.0
H1936 H 0.78224 0.71784 0.86534 0.0
H1937 H 0.76151 0.74733 0.81285 0.0
H1938 H 0.82272 0.69496 0.84537 0.0
H1939 H 0.83317 0.71789 0.85349 0.0
H1940 H 0.81463 0.70572 0.86845 0.0
H1941 H 0.78129 0.7518 0.78486 0.0
H1942 H 0.80701 0.75576 0.79095 0.0
H1943 H 0.79927 0.73243 0.78102 0.0
H1944 H 0.87009 0.74665 0.80221 0.0
H1945 H 0.84772 0.69184 0.77878 0.0
H1946 H 0.83476 0.75184 0.84132 0.0
H1947 H 0.82768 0.76552 0.81977 0.0
H1948 H 0.85339 0.76457 0.82696 0.0
H1949 H 0.80998 0.68436 0.8135 0.0
H1950 H 0.8173 0.67829 0.78854 0.0
H1951 H 0.79898 0.69719 0.79311 0.0
C1952 C 0.14633 0.27626 0.21602 0.0
C1953 C 0.1558 0.26512 0.23081 0.0
C1954 C 0.15583 0.28032 0.19793 0.0
C1955 C 0.17507 0.27272 0.19443 0.0
C1956 C 0.18449 0.26107 0.20911 0.0
C1957 C 0.17482 0.25758 0.22719 0.0
C1958 C 0.14549 0.2931 0.18276 0.0
C1959 C 0.20484 0.25236 0.2058 0.0
C1960 C 0.19527 0.26672 0.14229 0.0
C1961 C 0.20935 0.282 0.14144 0.0
C1962 C 0.18345 0.26396 0.15918 0.0
C1963 C 0.18555 0.27699 0.17549 0.0
C1964 C 0.19883 0.29321 0.17421 0.0
C1965 C 0.21068 0.29544 0.15724 0.0
C1966 C 0.16963 0.24638 0.16003 0.0
C1967 C 0.20132 0.30759 0.19118 0.0
H1968 H 0.13174 0.28237 0.21882 0.0
H1969 H 0.18222 0.24898 0.23854 0.0
H1970 H 0.15469 0.30631 0.17941 0.0
H1971 H 0.14363 0.28478 0.1687 0.0
H1972 H 0.13068 0.29815 0.1879 0.0
H1973 H 0.21002 0.2435 0.21866 0.0
H1974 H 0.20467 0.24269 0.19249 0.0
H1975 H 0.21572 0.26436 0.203 0.0
H1976 H 0.19418 0.25622 0.13018 0.0
H1977 H 0.22151 0.3073 0.15665 0.0
H1978 H 0.1546 0.25108 0.16475 0.0
H1979 H 0.17512 0.23564 0.17121 0.0
H1980 H 0.16843 0.23868 0.14552 0.0
H1981 H 0.18669 0.31209 0.19716 0.0
H1982 H 0.20961 0.32108 0.18666 0.0
H1983 H 0.2096 0.3003 0.20337 0.0
C1984 C 0.19801 0.73887 0.85433 0.0
C1985 C 0.21015 0.72214 0.85638 0.0
C1986 C 0.18683 0.7419 0.83706 0.0
C1987 C 0.18748 0.72764 0.8217 0.0
C1988 C 0.19893 0.71023 0.82412 0.0
C1989 C 0.21031 0.70778 0.84137 0.0
C1990 C 0.17514 0.76085 0.83485 0.0
C1991 C 0.19988 0.69461 0.80812 0.0
C1992 C 0.14718 0.72925 0.78242 0.0
C1993 C 0.15708 0.73834 0.76654 0.0
C1994 C 0.15693 0.72553 0.80041 0.0
C1995 C 0.17694 0.73139 0.80271 0.0
C1996 C 0.18694 0.7408 0.78684 0.0
C1997 C 0.17694 0.74401 0.76889 0.0
C1998 C 0.14592 0.71509 0.81686 0.0
C1999 C 0.2081 0.74781 0.78887 0.0
H2000 H 0.19803 0.75016 0.86576 0.0
H2001 H 0.21976 0.69488 0.84288 0.0
H2002 H 0.18152 0.76984 0.82265 0.0
H2003 H 0.15954 0.75753 0.83084 0.0
H2004 H 0.17523 0.76989 0.84862 0.0
H2005 H 0.2073 0.68088 0.81332 0.0
H2006 H 0.18476 0.69082 0.80287 0.0
H2007 H 0.20825 0.70046 0.79522 0.0
H2008 H 0.13191 0.72455 0.78063 0.0
H2009 H 0.18468 0.75098 0.75669 0.0
H2010 H 0.14497 0.72486 0.83005 0.0
H2011 H 0.15411 0.70157 0.82138 0.0
H2012 H 0.13066 0.71076 0.81241 0.0
H2013 H 0.20857 0.76054 0.79925 0.0
H2014 H 0.21449 0.75258 0.77446 0.0
H2015 H 0.21763 0.73597 0.79513 0.0
C2016 C 0.23698 0.19195 0.86768 0.0
C2017 C 0.25504 0.20178 0.87074 0.0
C2018 C 0.23422 0.17967 0.8511 0.0
C2019 C 0.25001 0.17697 0.83753 0.0
C2020 C 0.26875 0.18557 0.8415 0.0
C2021 C 0.27097 0.19804 0.85797 0.0
C2022 C 0.21396 0.17096 0.84728 0.0
C2023 C 0.28607 0.18274 0.8276 0.0
C2024 C 0.24801 0.13869 0.79622 0.0
C2025 C 0.24336 0.15059 0.77977 0.0
C2026 C 0.24963 0.1469 0.8153 0.0
C2027 C 0.24639 0.16742 0.81798 0.0
C2028 C 0.24087 0.1793 0.8016 0.0
C2029 C 0.23953 0.17079 0.78272 0.0
C2030 C 0.25552 0.13377 0.83242 0.0
C2031 C 0.23689 0.20117 0.80393 0.0
H2032 H 0.22455 0.19499 0.8774 0.0
H2033 H 0.28495 0.20562 0.86036 0.0
H2034 H 0.20663 0.17935 0.83518 0.0
H2035 H 0.21514 0.15531 0.8424 0.0
H2036 H 0.20434 0.17168 0.86063 0.0
H2037 H 0.30017 0.18829 0.83404 0.0
H2038 H 0.28787 0.16685 0.82384 0.0
H2039 H 0.28322 0.19082 0.81356 0.0
H2040 H 0.251 0.12306 0.79415 0.0
H2041 H 0.23596 0.18014 0.77017 0.0
H2042 H 0.24517 0.1358 0.84503 0.0
H2043 H 0.27052 0.138 0.83769 0.0
H2044 H 0.25573 0.11785 0.82824 0.0
H2045 H 0.23125 0.20805 0.79007 0.0
H2046 H 0.25071 0.20891 0.80838 0.0
H2047 H 0.22585 0.20353 0.81585 0.0
C2048 C 0.80794 0.24461 0.84191 0.0
C2049 C 0.79592 0.26092 0.84649 0.0
C2050 C 0.81697 0.24295 0.82327 0.0
C2051 C 0.81419 0.25814 0.80911 0.0
C2052 C 0.80283 0.27508 0.814 0.0
C2053 C 0.7937 0.2762 0.83262 0.0
C2054 C 0.82871 0.22452 0.81844 0.0
C2055 C 0.79966 0.29164 0.79928 0.0
C2056 C 0.85029 0.26071 0.76624 0.0
C2057 C 0.83916 0.2523 0.75079 0.0
C2058 C 0.84226 0.26287 0.78525 0.0
C2059 C 0.82279 0.25611 0.789 0.0
C2060 C 0.81153 0.24745 0.77353 0.0
C2061 C 0.8198 0.24583 0.75454 0.0
C2062 C 0.85459 0.27248 0.8013 0.0
C2063 C 0.7909 0.23956 0.7771 0.0
H2064 H 0.80948 0.23264 0.85249 0.0
H2065 H 0.78433 0.28877 0.83612 0.0
H2066 H 0.82128 0.21629 0.80628 0.0
H2067 H 0.84374 0.22855 0.81314 0.0
H2068 H 0.8302 0.21449 0.83141 0.0
H2069 H 0.79218 0.30465 0.80606 0.0
H2070 H 0.81403 0.29651 0.79297 0.0
H2071 H 0.79041 0.28623 0.7868 0.0
H2072 H 0.86518 0.26605 0.7634 0.0
H2073 H 0.81112 0.23944 0.74263 0.0
H2074 H 0.85792 0.2615 0.81306 0.0
H2075 H 0.84621 0.28476 0.80833 0.0
H2076 H 0.86882 0.27844 0.79553 0.0
H2077 H 0.79186 0.22616 0.78656 0.0
H2078 H 0.78326 0.23551 0.76308 0.0
H2079 H 0.7817 0.25059 0.78509 0.0
C2080 C 0.74248 0.81741 0.77737 0.0
C2081 C 0.73426 0.83607 0.77345 0.0
C2082 C 0.73912 0.80778 0.79545 0.0
C2083 C 0.72692 0.81688 0.80991 0.0
C2084 C 0.71885 0.83589 0.80624 0.0
C2085 C 0.72276 0.84535 0.78808 0.0
C2086 C 0.74823 0.78763 0.79887 0.0
C2087 C 0.70559 0.84593 0.8212 0.0
C2088 C 0.70382 0.77953 0.84491 0.0
C2089 C 0.7171 0.78002 0.86089 0.0
C2090 C 0.70612 0.79234 0.8287 0.0
C2091 C 0.72212 0.80594 0.82846 0.0
C2092 C 0.73478 0.80739 0.84515 0.0
C2093 C 0.73207 0.79444 0.86121 0.0
C2094 C 0.69215 0.79047 0.81131 0.0
C2095 C 0.75202 0.82166 0.84546 0.0
H2096 H 0.75137 0.81018 0.76612 0.0
H2097 H 0.71615 0.85967 0.78504 0.0
H2098 H 0.75711 0.78771 0.81271 0.0
H2099 H 0.73636 0.77639 0.80071 0.0
H2100 H 0.75795 0.78296 0.78644 0.0
H2101 H 0.70116 0.86105 0.81644 0.0
H2102 H 0.69199 0.83696 0.82346 0.0
H2103 H 0.71321 0.84698 0.83574 0.0
H2104 H 0.69212 0.76852 0.84465 0.0
H2105 H 0.7424 0.79492 0.87352 0.0
H2106 H 0.70023 0.78432 0.79837 0.0
H2107 H 0.68646 0.80524 0.80698 0.0
H2108 H 0.67934 0.78066 0.81461 0.0
H2109 H 0.7635 0.81658 0.83483 0.0
H2110 H 0.75887 0.82277 0.86039 0.0
H2111 H 0.74721 0.83663 0.84071 0.0
C2112 C 0.78903 0.70737 0.14479 0.0
C2113 C 0.78834 0.72068 0.12886 0.0
C2114 C 0.80238 0.71015 0.1605 0.0
C2115 C 0.81524 0.72674 0.16031 0.0
C2116 C 0.81555 0.73944 0.14361 0.0
C2117 C 0.80215 0.7362 0.12801 0.0
C2118 C 0.80192 0.696 0.17782 0.0
C2119 C 0.82901 0.7573 0.14286 0.0
C2120 C 0.82749 0.74805 0.21086 0.0
C2121 C 0.84676 0.741 0.21409 0.0
C2122 C 0.81735 0.74391 0.19321 0.0
C2123 C 0.82653 0.73208 0.1785 0.0
C2124 C 0.84606 0.72505 0.18153 0.0
C2125 C 0.856 0.7297 0.19925 0.0
C2126 C 0.79664 0.75195 0.19045 0.0
C2127 C 0.85625 0.71223 0.16629 0.0
H2128 H 0.77848 0.69526 0.14541 0.0
H2129 H 0.80168 0.74658 0.11577 0.0
H2130 H 0.81697 0.68997 0.18051 0.0
H2131 H 0.79731 0.70396 0.19145 0.0
H2132 H 0.79158 0.68342 0.17535 0.0
H2133 H 0.82934 0.76416 0.1279 0.0
H2134 H 0.82374 0.76855 0.15364 0.0
H2135 H 0.84435 0.7532 0.14714 0.0
H2136 H 0.8202 0.75668 0.22226 0.0
H2137 H 0.87081 0.72397 0.2017 0.0
H2138 H 0.78597 0.73955 0.18878 0.0
H2139 H 0.79591 0.76094 0.1767 0.0
H2140 H 0.79181 0.76133 0.2031 0.0
H2141 H 0.84836 0.69786 0.16504 0.0
H2142 H 0.87197 0.70925 0.17018 0.0
H2143 H 0.85572 0.71938 0.1515 0.0
C2144 C 0.28632 0.78193 0.1454 0.0
C2145 C 0.27196 0.78008 0.13049 0.0
C2146 C 0.28355 0.79501 0.16134 0.0
C2147 C 0.26587 0.80628 0.16251 0.0
C2148 C 0.2518 0.80519 0.14699 0.0
C2149 C 0.25509 0.79221 0.13107 0.0
C2150 C 0.29904 0.79595 0.17746 0.0
C2151 C 0.23269 0.8168 0.14778 0.0
C2152 C 0.24811 0.81876 0.21436 0.0
C2153 C 0.25334 0.83879 0.21607 0.0
C2154 C 0.25177 0.80817 0.19687 0.0
C2155 C 0.26128 0.81772 0.18079 0.0
C2156 C 0.26657 0.83796 0.18235 0.0
C2157 C 0.26234 0.84832 0.19992 0.0
C2158 C 0.24552 0.78671 0.19565 0.0
C2159 C 0.27715 0.84849 0.1657 0.0
H2160 H 0.29941 0.77264 0.14499 0.0
H2161 H 0.24388 0.7908 0.11964 0.0
H2162 H 0.30217 0.81156 0.18149 0.0
H2163 H 0.29339 0.78843 0.19095 0.0
H2164 H 0.31312 0.78871 0.17296 0.0
H2165 H 0.22416 0.81571 0.13373 0.0
H2166 H 0.2233 0.81109 0.16002 0.0
H2167 H 0.23572 0.83264 0.15091 0.0
H2168 H 0.24122 0.81131 0.22679 0.0
H2169 H 0.2667 0.86373 0.20123 0.0
H2170 H 0.25854 0.7772 0.19242 0.0
H2171 H 0.23482 0.78471 0.18331 0.0
H2172 H 0.23852 0.78142 0.20957 0.0
H2173 H 0.29166 0.84125 0.1629 0.0
H2174 H 0.2798 0.86439 0.16905 0.0
H2175 H 0.2684 0.84739 0.15182 0.0
C2176 C 0.75017 0.17916 0.21934 0.0
C2177 C 0.74379 0.15962 0.22214 0.0
C2178 C 0.74914 0.18814 0.20064 0.0
C2179 C 0.74123 0.17739 0.18443 0.0
C2180 C 0.73466 0.15769 0.18715 0.0
C2181 C 0.73614 0.14898 0.20596 0.0
C2182 C 0.75666 0.20907 0.19822 0.0
C2183 C 0.72585 0.14591 0.17028 0.0
C2184 C 0.72263 0.20914 0.14205 0.0
C2185 C 0.73882 0.2086 0.12905 0.0
C2186 C 0.72286 0.19835 0.1598 0.0
C2187 C 0.73975 0.18691 0.16466 0.0
C2188 C 0.75574 0.18559 0.15115 0.0
C2189 C 0.75502 0.19636 0.1334 0.0
C2190 C 0.70541 0.19988 0.17374 0.0
C2191 C 0.77407 0.17366 0.15592 0.0
H2192 H 0.756 0.18747 0.23178 0.0
H2193 H 0.73091 0.13394 0.20804 0.0
H2194 H 0.77002 0.20898 0.18863 0.0
H2195 H 0.74535 0.21845 0.19084 0.0
H2196 H 0.76061 0.216 0.21262 0.0
H2197 H 0.72164 0.13066 0.17482 0.0
H2198 H 0.71246 0.15353 0.16454 0.0
H2199 H 0.73659 0.14493 0.15787 0.0
H2200 H 0.71007 0.21857 0.13869 0.0
H2201 H 0.76764 0.19599 0.12346 0.0
H2202 H 0.71016 0.20682 0.18788 0.0
H2203 H 0.69975 0.18488 0.17731 0.0
H2204 H 0.69309 0.20877 0.1674 0.0
H2205 H 0.78191 0.18049 0.16867 0.0
H2206 H 0.78449 0.17288 0.14319 0.0
H2207 H 0.76996 0.15837 0.16031 0.0
C2208 C 0.70397 0.63827 0.76023 0.0
C2209 C 0.72013 0.64865 0.75219 0.0
C2210 C 0.68575 0.64775 0.76366 0.0
C2211 C 0.68356 0.668 0.7587 0.0
C2212 C 0.69966 0.67841 0.75015 0.0
C2213 C 0.71775 0.66866 0.74714 0.0
C2214 C 0.66902 0.63625 0.77306 0.0
C2215 C 0.69781 0.69987 0.74413 0.0
C2216 C 0.63296 0.6916 0.75169 0.0
C2217 C 0.63126 0.70296 0.76902 0.0
C2218 C 0.6496 0.67955 0.7484 0.0
C2219 C 0.6647 0.67861 0.76295 0.0
C2220 C 0.66248 0.68917 0.78097 0.0
C2221 C 0.64584 0.70133 0.78372 0.0
C2222 C 0.65155 0.66877 0.72888 0.0
C2223 C 0.67818 0.68844 0.7969 0.0
H2224 H 0.7057 0.62287 0.76439 0.0
H2225 H 0.73013 0.67682 0.74102 0.0
H2226 H 0.66539 0.64277 0.78772 0.0
H2227 H 0.65549 0.63727 0.76376 0.0
H2228 H 0.67278 0.62037 0.77517 0.0
H2229 H 0.71222 0.70634 0.73949 0.0
H2230 H 0.68728 0.70102 0.73155 0.0
H2231 H 0.69178 0.70888 0.7565 0.0
H2232 H 0.62184 0.69296 0.74017 0.0
H2233 H 0.64457 0.71011 0.79712 0.0
H2234 H 0.65559 0.65304 0.73136 0.0
H2235 H 0.66364 0.6756 0.72005 0.0
H2236 H 0.63767 0.66934 0.72004 0.0
H2237 H 0.68175 0.67284 0.80057 0.0
H2238 H 0.67349 0.69615 0.81067 0.0
H2239 H 0.69199 0.69548 0.7914 0.0
C2240 C 0.27895 0.6568 0.79488 0.0
C2241 C 0.27955 0.64141 0.78094 0.0
C2242 C 0.29093 0.67366 0.79269 0.0
C2243 C 0.30355 0.67527 0.77599 0.0
C2244 C 0.30475 0.65945 0.76227 0.0
C2245 C 0.29287 0.64262 0.76502 0.0
C2246 C 0.28937 0.69015 0.80774 0.0
C2247 C 0.31779 0.66074 0.74411 0.0
C2248 C 0.31601 0.72717 0.75829 0.0
C2249 C 0.33551 0.72947 0.76511 0.0
C2250 C 0.30552 0.70953 0.76158 0.0
C2251 C 0.31464 0.69393 0.77223 0.0
C2252 C 0.33429 0.69617 0.77922 0.0
C2253 C 0.34457 0.71384 0.7754 0.0
C2254 C 0.28475 0.70755 0.75344 0.0
C2255 C 0.34431 0.68003 0.79103 0.0
H2256 H 0.26864 0.65594 0.80719 0.0
H2257 H 0.2933 0.63086 0.75409 0.0
H2258 H 0.30432 0.69541 0.81213 0.0
H2259 H 0.28142 0.7029 0.80107 0.0
H2260 H 0.2812 0.68544 0.82124 0.0
H2261 H 0.31797 0.64668 0.73554 0.0
H2262 H 0.31236 0.67276 0.73429 0.0
H2263 H 0.33321 0.6645 0.74839 0.0
H2264 H 0.30894 0.73917 0.75032 0.0
H2265 H 0.35954 0.7156 0.78097 0.0
H2266 H 0.27435 0.7027 0.76522 0.0
H2267 H 0.28457 0.69605 0.74169 0.0
H2268 H 0.27918 0.72164 0.74704 0.0
H2269 H 0.33548 0.67668 0.8045 0.0
H2270 H 0.35956 0.6842 0.79565 0.0
H2271 H 0.34509 0.66622 0.78214 0.0
C2272 C 0.3536 0.29055 0.79254 0.0
C2273 C 0.36951 0.2892 0.77925 0.0
C2274 C 0.33807 0.30397 0.7893 0.0
C2275 C 0.33842 0.31622 0.77226 0.0
C2276 C 0.3551 0.31587 0.75954 0.0
C2277 C 0.37053 0.30241 0.76325 0.0
C2278 C 0.32071 0.30418 0.80343 0.0
C2279 C 0.35602 0.32867 0.74121 0.0
C2280 C 0.28775 0.32775 0.75096 0.0
C2281 C 0.28446 0.34714 0.75765 0.0
C2282 C 0.30551 0.31784 0.7551 0.0
C2283 C 0.32031 0.3274 0.76651 0.0
C2284 C 0.31732 0.34713 0.77298 0.0
C2285 C 0.29945 0.35682 0.76838 0.0
C2286 C 0.30823 0.29691 0.74764 0.0
C2287 C 0.33269 0.35775 0.78529 0.0
H2288 H 0.35283 0.28046 0.80503 0.0
H2289 H 0.38278 0.30142 0.75289 0.0
H2290 H 0.31762 0.31954 0.80836 0.0
H2291 H 0.30724 0.29866 0.79576 0.0
H2292 H 0.32336 0.29483 0.81672 0.0
H2293 H 0.37104 0.32871 0.73444 0.0
H2294 H 0.34532 0.32302 0.73007 0.0
H2295 H 0.35176 0.34414 0.74473 0.0
H2296 H 0.27626 0.32014 0.74272 0.0
H2297 H 0.29698 0.37174 0.77378 0.0
H2298 H 0.31009 0.28664 0.76034 0.0
H2299 H 0.32186 0.29595 0.73849 0.0
H2300 H 0.29547 0.29176 0.73859 0.0
H2301 H 0.33392 0.35051 0.8 0.0
H2302 H 0.32894 0.37361 0.78759 0.0
H2303 H 0.34746 0.35679 0.77812 0.0
C2304 C 0.67706 0.26861 0.76113 0.0
C2305 C 0.65864 0.26464 0.76988 0.0
C2306 C 0.68693 0.28658 0.7646 0.0
C2307 C 0.67834 0.30083 0.7774 0.0
C2308 C 0.65974 0.29693 0.78629 0.0
C2309 C 0.65003 0.27895 0.78229 0.0
C2310 C 0.7066 0.29026 0.75461 0.0
C2311 C 0.65028 0.31159 0.80029 0.0
C2312 C 0.71521 0.33778 0.79856 0.0
C2313 C 0.71303 0.3538 0.7855 0.0
C2314 C 0.70329 0.3208 0.79676 0.0
C2315 C 0.68898 0.31976 0.78142 0.0
C2316 C 0.68597 0.33633 0.76892 0.0
C2317 C 0.69795 0.35319 0.77119 0.0
C2318 C 0.70679 0.30355 0.81057 0.0
C2319 C 0.67092 0.3358 0.75235 0.0
H2320 H 0.6838 0.25764 0.75153 0.0
H2321 H 0.63591 0.27588 0.78934 0.0
H2322 H 0.70571 0.30381 0.74534 0.0
H2323 H 0.71826 0.2928 0.76593 0.0
H2324 H 0.71121 0.27768 0.74505 0.0
H2325 H 0.63568 0.30638 0.80588 0.0
H2326 H 0.66019 0.31421 0.81316 0.0
H2327 H 0.64818 0.32604 0.79275 0.0
H2328 H 0.72678 0.33818 0.80971 0.0
H2329 H 0.69617 0.36548 0.761 0.0
H2330 H 0.71415 0.29137 0.80234 0.0
H2331 H 0.69251 0.29772 0.81626 0.0
H2332 H 0.71631 0.30769 0.82336 0.0
H2333 H 0.67565 0.32491 0.74097 0.0
H2334 H 0.66913 0.35047 0.7451 0.0
H2335 H 0.65628 0.33091 0.75803 0.0
C2336 C 0.71201 0.32867 0.23631 0.0
C2337 C 0.71609 0.34752 0.22861 0.0
C2338 C 0.69372 0.31939 0.23289 0.0
C2339 C 0.67915 0.32907 0.22128 0.0
C2340 C 0.68294 0.34832 0.21388 0.0
C2341 C 0.70134 0.35736 0.2177 0.0
C2342 C 0.69019 0.29898 0.2413 0.0
C2343 C 0.66783 0.35911 0.2014 0.0
C2344 C 0.64337 0.29336 0.19667 0.0
C2345 C 0.62751 0.29331 0.21011 0.0
C2346 C 0.6598 0.30582 0.19949 0.0
C2347 C 0.66042 0.3185 0.21621 0.0
C2348 C 0.64385 0.31952 0.22906 0.0
C2349 C 0.62755 0.30696 0.22582 0.0
C2350 C 0.67706 0.30443 0.18529 0.0
C2351 C 0.64389 0.33288 0.24701 0.0
H2352 H 0.72325 0.32099 0.24484 0.0
H2353 H 0.70436 0.3719 0.21159 0.0
H2354 H 0.67639 0.29885 0.25024 0.0
H2355 H 0.6882 0.28821 0.22903 0.0
H2356 H 0.70264 0.29389 0.25079 0.0
H2357 H 0.6724 0.37457 0.19809 0.0
H2358 H 0.66571 0.35113 0.18718 0.0
H2359 H 0.65327 0.3594 0.20905 0.0
H2360 H 0.64339 0.28293 0.18444 0.0
H2361 H 0.61538 0.307 0.23631 0.0
H2362 H 0.68985 0.2974 0.19288 0.0
H2363 H 0.68183 0.31941 0.18052 0.0
H2364 H 0.67341 0.29554 0.17191 0.0
H2365 H 0.65442 0.327 0.25818 0.0
H2366 H 0.629 0.33395 0.25395 0.0
H2367 H 0.64895 0.34799 0.24297 0.0
C2368 C 0.68326 0.63036 0.24433 0.0
C2369 C 0.69787 0.63339 0.22984 0.0
C2370 C 0.66968 0.64539 0.24907 0.0
C2371 C 0.67085 0.66379 0.2391 0.0
C2372 C 0.68456 0.66631 0.2234 0.0
C2373 C 0.69784 0.65103 0.21892 0.0
C2374 C 0.65509 0.6421 0.26571 0.0
C2375 C 0.68643 0.68571 0.21241 0.0
C2376 C 0.63244 0.70456 0.24188 0.0
C2377 C 0.64191 0.71809 0.25455 0.0
C2378 C 0.64106 0.68614 0.23759 0.0
C2379 C 0.65947 0.68116 0.24631 0.0
C2380 C 0.66826 0.69412 0.26029 0.0
C2381 C 0.6594 0.71247 0.26417 0.0
C2382 C 0.63127 0.67276 0.22258 0.0
C2383 C 0.68782 0.68935 0.27003 0.0
H2384 H 0.68315 0.61671 0.25279 0.0
H2385 H 0.70898 0.65339 0.20758 0.0
H2386 H 0.65991 0.6506 0.27895 0.0
H2387 H 0.64016 0.64756 0.26151 0.0
H2388 H 0.65397 0.62621 0.26986 0.0
H2389 H 0.69447 0.68394 0.19814 0.0
H2390 H 0.67167 0.69224 0.20935 0.0
H2391 H 0.69476 0.6964 0.22173 0.0
H2392 H 0.61889 0.70881 0.23436 0.0
H2393 H 0.66657 0.7227 0.2742 0.0
H2394 H 0.63154 0.65713 0.22765 0.0
H2395 H 0.63959 0.67351 0.2084 0.0
H2396 H 0.61566 0.67713 0.21967 0.0
H2397 H 0.68799 0.67387 0.27555 0.0
H2398 H 0.69113 0.69945 0.28261 0.0
H2399 H 0.69984 0.6908 0.2589 0.0
C2400 C 0.29242 0.64545 0.22761 0.0
C2401 C 0.27673 0.65416 0.23813 0.0
C2402 C 0.30969 0.65624 0.22326 0.0
C2403 C 0.31141 0.67606 0.2299 0.0
C2404 C 0.29586 0.68471 0.24104 0.0
C2405 C 0.27865 0.67372 0.24484 0.0
C2406 C 0.32587 0.64663 0.21116 0.0
C2407 C 0.29727 0.7057 0.24869 0.0
C2408 C 0.36095 0.70215 0.2347 0.0
C2409 C 0.36022 0.71538 0.21868 0.0
C2410 C 0.34555 0.68858 0.23805 0.0
C2411 C 0.3292 0.68807 0.22492 0.0
C2412 C 0.32906 0.70045 0.20797 0.0
C2413 C 0.34455 0.71403 0.2051 0.0
C2414 C 0.34618 0.67574 0.25637 0.0
C2415 C 0.31199 0.70019 0.19348 0.0
H2416 H 0.29093 0.63041 0.22216 0.0
H2417 H 0.26657 0.68053 0.25294 0.0
H2418 H 0.32885 0.65553 0.19766 0.0
H2419 H 0.33982 0.64617 0.21985 0.0
H2420 H 0.32198 0.6313 0.2066 0.0
H2421 H 0.28403 0.71008 0.25744 0.0
H2422 H 0.3106 0.70735 0.25819 0.0
H2423 H 0.2989 0.71615 0.2361 0.0
H2424 H 0.373 0.70313 0.24529 0.0
H2425 H 0.34396 0.72416 0.19265 0.0
H2426 H 0.34278 0.66012 0.25258 0.0
H2427 H 0.3347 0.68081 0.267 0.0
H2428 H 0.36084 0.67632 0.26386 0.0
H2429 H 0.30817 0.68476 0.18935 0.0
H2430 H 0.31536 0.70865 0.17976 0.0
H2431 H 0.2987 0.70682 0.20054 0.0
C2432 C 0.31645 0.26415 0.24281 0.0
C2433 C 0.33621 0.26195 0.23676 0.0
C2434 C 0.30654 0.28227 0.24054 0.0
C2435 C 0.31653 0.29847 0.2317 0.0
C2436 C 0.33642 0.2963 0.22541 0.0
C2437 C 0.34608 0.27813 0.22819 0.0
C2438 C 0.28549 0.28413 0.24793 0.0
C2439 C 0.3474 0.31311 0.21553 0.0
C2440 C 0.28381 0.33889 0.21029 0.0
C2441 C 0.28466 0.35328 0.22524 0.0
C2442 C 0.29461 0.3212 0.2119 0.0
C2443 C 0.30619 0.31771 0.22907 0.0
C2444 C 0.30744 0.33238 0.24399 0.0
C2445 C 0.29683 0.3501 0.24179 0.0
C2446 C 0.29297 0.30592 0.19563 0.0
C2447 C 0.31926 0.32901 0.2627 0.0
H2448 H 0.30873 0.25171 0.24935 0.0
H2449 H 0.36126 0.27647 0.22318 0.0
H2450 H 0.28529 0.29386 0.26119 0.0
H2451 H 0.27587 0.29106 0.23656 0.0
H2452 H 0.27903 0.26957 0.25207 0.0
H2453 H 0.36247 0.30869 0.21057 0.0
H2454 H 0.33893 0.31845 0.20249 0.0
H2455 H 0.34881 0.32574 0.22596 0.0
H2456 H 0.27431 0.34125 0.19754 0.0
H2457 H 0.29732 0.36104 0.25355 0.0
H2458 H 0.28414 0.29312 0.20099 0.0
H2459 H 0.30785 0.30026 0.19154 0.0
H2460 H 0.28569 0.31196 0.18215 0.0
H2461 H 0.31288 0.31635 0.27104 0.0
H2462 H 0.31936 0.34222 0.27253 0.0
H2463 H 0.3348 0.3251 0.25901 0.0
C2464 C 0.75585 0.62731 0.69206 0.0
C2465 C 0.7715 0.62672 0.70575 0.0
C2466 C 0.75297 0.64392 0.67986 0.0
C2467 C 0.76611 0.66022 0.68132 0.0
C2468 C 0.78277 0.65903 0.69404 0.0
C2469 C 0.78525 0.6423 0.70611 0.0
C2470 C 0.73508 0.64459 0.66643 0.0
C2471 C 0.79725 0.676 0.69595 0.0
C2472 C 0.76535 0.70226 0.64377 0.0
C2473 C 0.75485 0.71691 0.65419 0.0
C2474 C 0.7688 0.68354 0.65219 0.0
C2475 C 0.76135 0.67929 0.67133 0.0
C2476 C 0.75009 0.69376 0.68156 0.0
C2477 C 0.74714 0.71242 0.67294 0.0
C2478 C 0.78109 0.66861 0.64094 0.0
C2479 C 0.74166 0.68975 0.70189 0.0
H2480 H 0.74515 0.61533 0.6917 0.0
H2481 H 0.79745 0.64187 0.71656 0.0
H2482 H 0.7241 0.65523 0.67249 0.0
H2483 H 0.73929 0.64987 0.65144 0.0
H2484 H 0.72783 0.62988 0.66502 0.0
H2485 H 0.81079 0.67172 0.70429 0.0
H2486 H 0.80172 0.68148 0.68112 0.0
H2487 H 0.79003 0.68848 0.70386 0.0
H2488 H 0.77156 0.70568 0.62936 0.0
H2489 H 0.73904 0.72364 0.68108 0.0
H2490 H 0.77337 0.65411 0.64037 0.0
H2491 H 0.79537 0.66627 0.64875 0.0
H2492 H 0.7843 0.67351 0.62555 0.0
H2493 H 0.73252 0.67609 0.70165 0.0
H2494 H 0.73236 0.70217 0.70737 0.0
H2495 H 0.75392 0.68731 0.71258 0.0
C2496 C 0.34417 0.79046 0.71517 0.0
C2497 C 0.35926 0.7762 0.7158 0.0
C2498 C 0.32775 0.7881 0.7026 0.0
C2499 C 0.32631 0.77095 0.69058 0.0
C2500 C 0.34194 0.75698 0.69047 0.0
C2501 C 0.35831 0.75986 0.70297 0.0
C2502 C 0.31148 0.80345 0.70298 0.0
C2503 C 0.34086 0.7384 0.67805 0.0
C2504 C 0.27434 0.75335 0.67818 0.0
C2505 C 0.27228 0.75948 0.65844 0.0
C2506 C 0.29196 0.75672 0.68867 0.0
C2507 C 0.3078 0.76684 0.67932 0.0
C2508 C 0.30585 0.77305 0.65938 0.0
C2509 C 0.28817 0.76912 0.6491 0.0
C2510 C 0.2936 0.74951 0.7098 0.0
C2511 C 0.32227 0.78422 0.64906 0.0
H2512 H 0.34484 0.80313 0.72503 0.0
H2513 H 0.36987 0.74873 0.70342 0.0
H2514 H 0.30669 0.80715 0.6877 0.0
H2515 H 0.29841 0.7974 0.71091 0.0
H2516 H 0.31621 0.81728 0.71056 0.0
H2517 H 0.35492 0.72985 0.6784 0.0
H2518 H 0.32875 0.72877 0.68364 0.0
H2519 H 0.33733 0.74211 0.66243 0.0
H2520 H 0.2621 0.74595 0.68549 0.0
H2521 H 0.28658 0.77416 0.63393 0.0
H2522 H 0.29688 0.7621 0.71986 0.0
H2523 H 0.30605 0.73885 0.71109 0.0
H2524 H 0.27982 0.74215 0.71498 0.0
H2525 H 0.32586 0.79789 0.65748 0.0
H2526 H 0.31824 0.78842 0.63366 0.0
H2527 H 0.3359 0.77505 0.64863 0.0
C2528 C 0.22197 0.35585 0.70512 0.0
C2529 C 0.23657 0.3704 0.70772 0.0
C2530 C 0.22501 0.33987 0.6922 0.0
C2531 C 0.24318 0.33831 0.6818 0.0
C2532 C 0.25741 0.35366 0.68334 0.0
C2533 C 0.25388 0.36962 0.69624 0.0
C2534 C 0.20933 0.32396 0.69075 0.0
C2535 C 0.27697 0.35253 0.67254 0.0
C2536 C 0.25942 0.28531 0.6733 0.0
C2537 C 0.25411 0.28219 0.65345 0.0
C2538 C 0.25673 0.30378 0.68237 0.0
C2539 C 0.24816 0.3195 0.67145 0.0
C2540 C 0.24327 0.31668 0.65124 0.0
C2541 C 0.24641 0.29807 0.64243 0.0
C2542 C 0.26252 0.30628 0.70385 0.0
C2543 C 0.23397 0.33305 0.63918 0.0
H2544 H 0.20852 0.35647 0.7139 0.0
H2545 H 0.26525 0.38079 0.69825 0.0
H2546 H 0.20643 0.32019 0.67501 0.0
H2547 H 0.21468 0.31031 0.69819 0.0
H2548 H 0.19516 0.32851 0.69779 0.0
H2549 H 0.28503 0.36688 0.67286 0.0
H2550 H 0.28644 0.34111 0.67962 0.0
H2551 H 0.27472 0.34805 0.65687 0.0
H2552 H 0.26528 0.27316 0.68196 0.0
H2553 H 0.24213 0.29579 0.62711 0.0
H2554 H 0.24925 0.30991 0.71287 0.0
H2555 H 0.27309 0.31879 0.70538 0.0
H2556 H 0.2695 0.29275 0.71008 0.0
H2557 H 0.21881 0.33605 0.6448 0.0
H2558 H 0.23295 0.32918 0.6232 0.0
H2559 H 0.24261 0.34695 0.64073 0.0
C2560 C 0.69769 0.22756 0.64791 0.0
C2561 C 0.71398 0.2371 0.65667 0.0
C2562 C 0.68058 0.22329 0.65899 0.0
C2563 C 0.67968 0.22896 0.67917 0.0
C2564 C 0.69589 0.23903 0.68793 0.0
C2565 C 0.71288 0.24284 0.6766 0.0
C2566 C 0.66371 0.21226 0.64926 0.0
C2567 C 0.6954 0.24557 0.70935 0.0
C2568 C 0.63146 0.23438 0.70748 0.0
C2569 C 0.63204 0.21768 0.71982 0.0
C2570 C 0.64637 0.23776 0.69338 0.0
C2571 C 0.66209 0.224 0.69147 0.0
C2572 C 0.66196 0.20642 0.70291 0.0
C2573 C 0.64697 0.20351 0.71702 0.0
C2574 C 0.646 0.25669 0.68147 0.0
C2575 C 0.67834 0.19126 0.70114 0.0
H2576 H 0.69855 0.22286 0.63257 0.0
H2577 H 0.72541 0.25024 0.68342 0.0
H2578 H 0.66169 0.19768 0.65657 0.0
H2579 H 0.64966 0.2206 0.65108 0.0
H2580 H 0.66634 0.20974 0.63319 0.0
H2581 H 0.7093 0.25311 0.71394 0.0
H2582 H 0.68282 0.25588 0.71175 0.0
H2583 H 0.69302 0.2326 0.71917 0.0
H2584 H 0.61996 0.2454 0.70957 0.0
H2585 H 0.64741 0.19052 0.72645 0.0
H2586 H 0.64864 0.25355 0.66554 0.0
H2587 H 0.65808 0.26661 0.68659 0.0
H2588 H 0.63168 0.26468 0.68299 0.0
H2589 H 0.68114 0.18758 0.68535 0.0
H2590 H 0.67484 0.17738 0.70926 0.0
H2591 H 0.69228 0.1975 0.70727 0.0
C2592 C 0.78088 0.3567 0.27926 0.0
C2593 C 0.76677 0.37177 0.27705 0.0
C2594 C 0.77823 0.34162 0.29329 0.0
C2595 C 0.76098 0.34159 0.30523 0.0
C2596 C 0.74745 0.35757 0.30408 0.0
C2597 C 0.75056 0.37256 0.29002 0.0
C2598 C 0.79315 0.32497 0.29427 0.0
C2599 C 0.72892 0.35807 0.31661 0.0
C2600 C 0.74158 0.29055 0.3179 0.0
C2601 C 0.74782 0.28827 0.33757 0.0
C2602 C 0.74527 0.30808 0.30746 0.0
C2603 C 0.75582 0.32362 0.31683 0.0
C2604 C 0.76198 0.32156 0.33678 0.0
C2605 C 0.75777 0.30392 0.34699 0.0
C2606 C 0.73822 0.3098 0.28626 0.0
C2607 C 0.77351 0.33771 0.34712 0.0
H2608 H 0.79354 0.35615 0.26937 0.0
H2609 H 0.73962 0.38421 0.28839 0.0
H2610 H 0.79711 0.32166 0.30988 0.0
H2611 H 0.78656 0.31134 0.28784 0.0
H2612 H 0.80694 0.32849 0.28596 0.0
H2613 H 0.72144 0.37272 0.316 0.0
H2614 H 0.71838 0.34664 0.31122 0.0
H2615 H 0.73241 0.35456 0.33229 0.0
H2616 H 0.73394 0.27849 0.31056 0.0
H2617 H 0.76286 0.30216 0.36213 0.0
H2618 H 0.75108 0.31187 0.27622 0.0
H2619 H 0.72854 0.32299 0.28462 0.0
H2620 H 0.72983 0.29653 0.28132 0.0
H2621 H 0.78824 0.33937 0.33999 0.0
H2622 H 0.77578 0.33449 0.36311 0.0
H2623 H 0.76574 0.35212 0.34567 0.0
C2624 C 0.62459 0.75443 0.30676 0.0
C2625 C 0.62255 0.77277 0.29724 0.0
C2626 C 0.64118 0.75041 0.31868 0.0
C2627 C 0.65568 0.76532 0.3216 0.0
C2628 C 0.65279 0.78437 0.31333 0.0
C2629 C 0.63636 0.7878 0.30104 0.0
C2630 C 0.64418 0.72966 0.32641 0.0
C2631 C 0.6679 0.80065 0.31609 0.0
C2632 C 0.69649 0.75829 0.35988 0.0
C2633 C 0.71256 0.7526 0.34792 0.0
C2634 C 0.67777 0.76216 0.35158 0.0
C2635 C 0.67504 0.76025 0.33087 0.0
C2636 C 0.69111 0.75409 0.3188 0.0
C2637 C 0.70957 0.7503 0.32747 0.0
C2638 C 0.66111 0.76899 0.36487 0.0
C2639 C 0.68955 0.75235 0.29654 0.0
H2640 H 0.61417 0.74263 0.30352 0.0
H2641 H 0.63486 0.80194 0.29356 0.0
H2642 H 0.65619 0.7224 0.31781 0.0
H2643 H 0.64884 0.72993 0.34218 0.0
H2644 H 0.63054 0.72051 0.32505 0.0
H2645 H 0.66217 0.81528 0.3112 0.0
H2646 H 0.67242 0.80172 0.33188 0.0
H2647 H 0.68135 0.79714 0.3073 0.0
H2648 H 0.69861 0.76019 0.37569 0.0
H2649 H 0.72185 0.7461 0.31799 0.0
H2650 H 0.64797 0.75928 0.36295 0.0
H2651 H 0.65659 0.78421 0.36064 0.0
H2652 H 0.6654 0.769 0.38077 0.0
H2653 H 0.69732 0.76511 0.28965 0.0
H2654 H 0.67409 0.75221 0.29106 0.0
H2655 H 0.69712 0.73869 0.29136 0.0
C2656 C 0.2296 0.70598 0.3502 0.0
C2657 C 0.23861 0.72193 0.34036 0.0
C2658 C 0.22672 0.68774 0.3406 0.0
C2659 C 0.23339 0.6853 0.32086 0.0
C2660 C 0.24279 0.70125 0.31099 0.0
C2661 C 0.2451 0.71942 0.32079 0.0
C2662 C 0.21616 0.67124 0.35142 0.0
C2663 C 0.25053 0.69911 0.29009 0.0
C2664 C 0.24344 0.63435 0.29941 0.0
C2665 C 0.22741 0.63207 0.28636 0.0
C2666 C 0.24523 0.65131 0.31129 0.0
C2667 C 0.23046 0.66616 0.31034 0.0
C2668 C 0.21362 0.66335 0.29811 0.0
C2669 C 0.21237 0.64638 0.28615 0.0
C2670 C 0.2635 0.65387 0.32398 0.0
C2671 C 0.19744 0.67873 0.29687 0.0
H2672 H 0.22425 0.70791 0.36523 0.0
H2673 H 0.25201 0.73169 0.31311 0.0
H2674 H 0.2025 0.66709 0.34324 0.0
H2675 H 0.22572 0.65789 0.35203 0.0
H2676 H 0.21201 0.67548 0.36678 0.0
H2677 H 0.25649 0.71324 0.28415 0.0
H2678 H 0.26252 0.68786 0.28981 0.0
H2679 H 0.2386 0.69384 0.28007 0.0
H2680 H 0.25519 0.6234 0.29956 0.0
H2681 H 0.19994 0.64466 0.27611 0.0
H2682 H 0.25931 0.65778 0.33939 0.0
H2683 H 0.27259 0.66624 0.31808 0.0
H2684 H 0.27279 0.64028 0.32433 0.0
H2685 H 0.19285 0.68341 0.31194 0.0
H2686 H 0.1842 0.67321 0.28877 0.0
H2687 H 0.20311 0.69206 0.28909 0.0
C2688 C 0.27487 0.23595 0.32025 0.0
C2689 C 0.27202 0.22852 0.33944 0.0
C2690 C 0.29246 0.23222 0.30981 0.0
C2691 C 0.30744 0.22043 0.31861 0.0
C2692 C 0.30464 0.21283 0.33796 0.0
C2693 C 0.28704 0.21712 0.34822 0.0
C2694 C 0.29498 0.24086 0.28933 0.0
C2695 C 0.3201 0.19991 0.34768 0.0
C2696 C 0.34352 0.19778 0.28179 0.0
C2697 C 0.35928 0.21133 0.28249 0.0
C2698 C 0.32693 0.19997 0.29419 0.0
C2699 C 0.32602 0.21622 0.30747 0.0
C2700 C 0.34235 0.22931 0.30899 0.0
C2701 C 0.35884 0.22663 0.29658 0.0
C2702 C 0.30994 0.18551 0.29233 0.0
C2703 C 0.34193 0.24686 0.32287 0.0
H2704 H 0.26333 0.24475 0.31338 0.0
H2705 H 0.28481 0.21107 0.36294 0.0
H2706 H 0.30847 0.25027 0.28883 0.0
H2707 H 0.29701 0.22879 0.27836 0.0
H2708 H 0.28206 0.24997 0.28475 0.0
H2709 H 0.31552 0.1949 0.36268 0.0
H2710 H 0.32296 0.18667 0.33836 0.0
H2711 H 0.33429 0.20812 0.34897 0.0
H2712 H 0.34379 0.18589 0.27099 0.0
H2713 H 0.37092 0.2372 0.29721 0.0
H2714 H 0.29722 0.1929 0.28499 0.0
H2715 H 0.30487 0.18061 0.30718 0.0
H2716 H 0.31404 0.17225 0.28347 0.0
H2717 H 0.33047 0.25752 0.31785 0.0
H2718 H 0.35642 0.25466 0.3235 0.0
H2719 H 0.33785 0.24208 0.33806 0.0
C2720 C 0.69544 0.75648 0.63398 0.0
C2721 C 0.70952 0.77174 0.63498 0.0
C2722 C 0.68206 0.75327 0.64959 0.0
C2723 C 0.68268 0.76577 0.66643 0.0
C2724 C 0.69582 0.78213 0.66678 0.0
C2725 C 0.70917 0.78486 0.65108 0.0
C2726 C 0.66835 0.73561 0.64868 0.0
C2727 C 0.69677 0.79597 0.68436 0.0
C2728 C 0.64227 0.76325 0.70568 0.0
C2729 C 0.6516 0.75196 0.72045 0.0
C2730 C 0.65206 0.76772 0.68785 0.0
C2731 C 0.67146 0.7604 0.68462 0.0
C2732 C 0.68064 0.74844 0.6992 0.0
C2733 C 0.67069 0.74456 0.717 0.0
C2734 C 0.64193 0.78074 0.67274 0.0
C2735 C 0.70116 0.74002 0.69617 0.0
H2736 H 0.69565 0.74627 0.62157 0.0
H2737 H 0.71994 0.79676 0.65185 0.0
H2738 H 0.67366 0.72408 0.65912 0.0
H2739 H 0.65314 0.7398 0.6533 0.0
H2740 H 0.66768 0.72907 0.63358 0.0
H2741 H 0.70544 0.80958 0.68106 0.0
H2742 H 0.68166 0.80034 0.68909 0.0
H2743 H 0.70387 0.78826 0.69703 0.0
H2744 H 0.6276 0.76923 0.70835 0.0
H2745 H 0.67797 0.73589 0.72836 0.0
H2746 H 0.64074 0.77283 0.65838 0.0
H2747 H 0.65093 0.79426 0.67011 0.0
H2748 H 0.62685 0.7853 0.67753 0.0
H2749 H 0.70152 0.73097 0.68244 0.0
H2750 H 0.70601 0.73063 0.70878 0.0
H2751 H 0.71203 0.75222 0.69429 0.0
C2752 C 0.69714 0.22498 0.34296 0.0
C2753 C 0.69855 0.24089 0.3562 0.0
C2754 C 0.68642 0.22678 0.32525 0.0
C2755 C 0.67724 0.24505 0.32056 0.0
C2756 C 0.67808 0.26096 0.33419 0.0
C2757 C 0.68858 0.25862 0.35199 0.0
C2758 C 0.68558 0.2094 0.31118 0.0
C2759 C 0.6688 0.28078 0.32955 0.0
C2760 C 0.67035 0.25524 0.26572 0.0
C2761 C 0.65019 0.25098 0.26308 0.0
C2762 C 0.67921 0.25387 0.28446 0.0
C2763 C 0.6677 0.24776 0.30091 0.0
C2764 C 0.64731 0.24359 0.29842 0.0
C2765 C 0.63876 0.24539 0.27956 0.0
C2766 C 0.70086 0.25909 0.28665 0.0
C2767 C 0.63464 0.23682 0.31558 0.0
H2768 H 0.70491 0.2113 0.34619 0.0
H2769 H 0.68991 0.27107 0.36206 0.0
H2770 H 0.66994 0.20596 0.3075 0.0
H2771 H 0.69322 0.21323 0.29712 0.0
H2772 H 0.69262 0.19592 0.31747 0.0
H2773 H 0.66923 0.29102 0.34243 0.0
H2774 H 0.67686 0.28779 0.31704 0.0
H2775 H 0.65316 0.27886 0.32483 0.0
H2776 H 0.67933 0.25942 0.25309 0.0
H2777 H 0.62318 0.24193 0.2777 0.0
H2778 H 0.70898 0.24711 0.29444 0.0
H2779 H 0.70217 0.27269 0.29577 0.0
H2780 H 0.70815 0.26182 0.27214 0.0
H2781 H 0.64038 0.22256 0.32142 0.0
H2782 H 0.61887 0.23476 0.31129 0.0
H2783 H 0.63538 0.24775 0.32784 0.0
C2784 C 0.74975 0.64122 0.29982 0.0
C2785 C 0.74162 0.65274 0.28451 0.0
C2786 C 0.75337 0.64941 0.31865 0.0
C2787 C 0.7486 0.66951 0.32223 0.0
C2788 C 0.73931 0.68083 0.30722 0.0
C2789 C 0.73608 0.67236 0.28855 0.0
C2790 C 0.76326 0.63688 0.3343 0.0
C2791 C 0.73368 0.70226 0.31053 0.0
C2792 C 0.74603 0.69454 0.37242 0.0
C2793 C 0.76329 0.70612 0.3719 0.0
C2794 C 0.74163 0.68128 0.35697 0.0
C2795 C 0.75491 0.67952 0.34083 0.0
C2796 C 0.77321 0.6898 0.34122 0.0
C2797 C 0.77714 0.70306 0.35673 0.0
C2798 C 0.72203 0.6705 0.35715 0.0
C2799 C 0.78793 0.68812 0.32443 0.0
H2800 H 0.75412 0.62605 0.29688 0.0
H2801 H 0.72985 0.68142 0.27688 0.0
H2802 H 0.77885 0.64178 0.33617 0.0
H2803 H 0.75576 0.63872 0.34882 0.0
H2804 H 0.76326 0.62091 0.33031 0.0
H2805 H 0.72552 0.70864 0.29773 0.0
H2806 H 0.72428 0.70367 0.32395 0.0
H2807 H 0.74723 0.71124 0.31305 0.0
H2808 H 0.73525 0.69685 0.38411 0.0
H2809 H 0.79057 0.71188 0.35638 0.0
H2810 H 0.72381 0.65498 0.35205 0.0
H2811 H 0.71164 0.67794 0.3468 0.0
H2812 H 0.71522 0.67044 0.37215 0.0
H2813 H 0.79027 0.67238 0.32035 0.0
H2814 H 0.80249 0.69481 0.32826 0.0
H2815 H 0.782 0.69583 0.31117 0.0
C2816 C 0.28353 0.7885 0.34502 0.0
C2817 C 0.28463 0.77387 0.35973 0.0
C2818 C 0.29483 0.78706 0.3276 0.0
C2819 C 0.30737 0.77048 0.32478 0.0
C2820 C 0.30926 0.75616 0.34 0.0
C2821 C 0.29795 0.7581 0.35737 0.0
C2822 C 0.29253 0.80272 0.31178 0.0
C2823 C 0.32241 0.73824 0.3375 0.0
C2824 C 0.3169 0.75489 0.27154 0.0
C2825 C 0.33599 0.76241 0.26821 0.0
C2826 C 0.30755 0.7572 0.28996 0.0
C2827 C 0.31744 0.76746 0.3054 0.0
C2828 C 0.33672 0.77505 0.30217 0.0
C2829 C 0.34581 0.77233 0.28365 0.0
C2830 C 0.28712 0.74857 0.29291 0.0
C2831 C 0.34761 0.78631 0.31815 0.0
H2832 H 0.27327 0.80073 0.34679 0.0
H2833 H 0.29877 0.74667 0.36861 0.0
H2834 H 0.30726 0.80814 0.30687 0.0
H2835 H 0.28507 0.79621 0.29863 0.0
H2836 H 0.28364 0.81556 0.31699 0.0
H2837 H 0.3236 0.72943 0.35135 0.0
H2838 H 0.31632 0.72858 0.32566 0.0
H2839 H 0.33751 0.7428 0.33283 0.0
H2840 H 0.30923 0.7472 0.2597 0.0
H2841 H 0.36048 0.7784 0.28115 0.0
H2842 H 0.27682 0.75998 0.29874 0.0
H2843 H 0.28787 0.73647 0.30402 0.0
H2844 H 0.28083 0.74248 0.27896 0.0
H2845 H 0.33912 0.7998 0.32219 0.0
H2846 H 0.36272 0.79084 0.31344 0.0
H2847 H 0.34885 0.77711 0.33171 0.0
C2848 C 0.20954 0.27992 0.34884 0.0
C2849 C 0.22458 0.27892 0.36315 0.0
C2850 C 0.21124 0.29257 0.33242 0.0
C2851 C 0.22853 0.30428 0.33018 0.0
C2852 C 0.24327 0.30409 0.34511 0.0
C2853 C 0.24105 0.29151 0.36151 0.0
C2854 C 0.19507 0.29254 0.31693 0.0
C2855 C 0.26195 0.31626 0.34319 0.0
C2856 C 0.24398 0.31584 0.27739 0.0
C2857 C 0.23798 0.33561 0.27536 0.0
C2858 C 0.24125 0.3056 0.29525 0.0
C2859 C 0.23199 0.31529 0.31141 0.0
C2860 C 0.22594 0.33527 0.30951 0.0
C2861 C 0.22917 0.34526 0.29154 0.0
C2862 C 0.24824 0.2844 0.29681 0.0
C2863 C 0.2157 0.34594 0.3263 0.0
H2864 H 0.19676 0.27026 0.35008 0.0
H2865 H 0.25276 0.29076 0.37248 0.0
H2866 H 0.19104 0.30792 0.31277 0.0
H2867 H 0.20051 0.28504 0.30333 0.0
H2868 H 0.18152 0.28474 0.3221 0.0
H2869 H 0.27105 0.31593 0.35691 0.0
H2870 H 0.27104 0.31043 0.33077 0.0
H2871 H 0.25831 0.33188 0.33966 0.0
H2872 H 0.25082 0.30832 0.26495 0.0
H2873 H 0.22425 0.36047 0.28998 0.0
H2874 H 0.23575 0.2746 0.30111 0.0
H2875 H 0.25969 0.28319 0.30855 0.0
H2876 H 0.25461 0.27884 0.28268 0.0
H2877 H 0.20181 0.33806 0.33026 0.0
H2878 H 0.21199 0.3615 0.32246 0.0
H2879 H 0.22528 0.34594 0.33967 0.0
C2880 C 0.32982 0.25048 0.72167 0.0
C2881 C 0.34895 0.24357 0.7259 0.0
C2882 C 0.32134 0.24776 0.70289 0.0
C2883 C 0.33212 0.23765 0.68799 0.0
C2884 C 0.35162 0.23103 0.69198 0.0
C2885 C 0.35984 0.23414 0.71087 0.0
C2886 C 0.30065 0.2554 0.69913 0.0
C2887 C 0.36355 0.22011 0.67652 0.0
C2888 C 0.29858 0.21374 0.64984 0.0
C2889 C 0.29839 0.22808 0.63483 0.0
C2890 C 0.31051 0.21607 0.66671 0.0
C2891 C 0.32241 0.23325 0.66867 0.0
C2892 C 0.32324 0.24715 0.65297 0.0
C2893 C 0.31127 0.24434 0.63615 0.0
C2894 C 0.30954 0.20068 0.68291 0.0
C2895 C 0.33571 0.26566 0.6545 0.0
H2896 H 0.32129 0.25776 0.73315 0.0
H2897 H 0.37459 0.2286 0.71403 0.0
H2898 H 0.3009 0.26604 0.68661 0.0
H2899 H 0.29073 0.243 0.69486 0.0
H2900 H 0.29424 0.26292 0.7123 0.0
H2901 H 0.37912 0.21765 0.68128 0.0
H2902 H 0.35662 0.2055 0.67355 0.0
H2903 H 0.3636 0.22844 0.66235 0.0
H2904 H 0.28872 0.20109 0.64879 0.0
H2905 H 0.3111 0.25554 0.62464 0.0
H2906 H 0.3038 0.20744 0.69677 0.0
H2907 H 0.32464 0.19503 0.68608 0.0
H2908 H 0.2999 0.18795 0.67891 0.0
H2909 H 0.32894 0.2759 0.66544 0.0
H2910 H 0.3369 0.2735 0.64007 0.0
H2911 H 0.35084 0.26206 0.65984 0.0
C2912 C 0.77774 0.28489 0.65058 0.0
C2913 C 0.76188 0.28589 0.63723 0.0
C2914 C 0.77709 0.29506 0.66869 0.0
C2915 C 0.76004 0.30626 0.67361 0.0
C2916 C 0.74421 0.30776 0.65994 0.0
C2917 C 0.7454 0.2977 0.64179 0.0
C2918 C 0.79426 0.29312 0.6829 0.0
C2919 C 0.7256 0.31918 0.66487 0.0
C2920 C 0.74977 0.31424 0.72833 0.0
C2921 C 0.75564 0.33398 0.73089 0.0
C2922 C 0.7509 0.30508 0.7097 0.0
C2923 C 0.75848 0.31584 0.69335 0.0
C2924 C 0.76465 0.33571 0.69588 0.0
C2925 C 0.76296 0.34461 0.71458 0.0
C2926 C 0.74362 0.28404 0.70749 0.0
C2927 C 0.7733 0.34746 0.67891 0.0
H2928 H 0.79044 0.27568 0.64712 0.0
H2929 H 0.73297 0.29829 0.63163 0.0
H2930 H 0.79891 0.30794 0.68818 0.0
H2931 H 0.78959 0.28447 0.69608 0.0
H2932 H 0.80723 0.28563 0.67604 0.0
H2933 H 0.71502 0.31964 0.65226 0.0
H2934 H 0.71811 0.31221 0.67774 0.0
H2935 H 0.72935 0.3346 0.66917 0.0
H2936 H 0.74423 0.30593 0.74089 0.0
H2937 H 0.76786 0.35979 0.71651 0.0
H2938 H 0.7544 0.27492 0.69908 0.0
H2939 H 0.72953 0.2841 0.69901 0.0
H2940 H 0.74091 0.27686 0.72205 0.0
H2941 H 0.78625 0.33952 0.67261 0.0
H2942 H 0.77811 0.36251 0.68354 0.0
H2943 H 0.76217 0.34895 0.6669 0.0
C2944 C 0.24039 0.67951 0.7261 0.0
C2945 C 0.23354 0.66015 0.72916 0.0
C2946 C 0.23811 0.68886 0.70769 0.0
C2947 C 0.22844 0.67873 0.69204 0.0
C2948 C 0.22147 0.65919 0.69503 0.0
C2949 C 0.22427 0.65005 0.71351 0.0
C2950 C 0.24613 0.70957 0.70498 0.0
C2951 C 0.21073 0.64808 0.67883 0.0
C2952 C 0.20733 0.71238 0.65227 0.0
C2953 C 0.22222 0.71162 0.63779 0.0
C2954 C 0.20869 0.70101 0.66963 0.0
C2955 C 0.22548 0.68878 0.67265 0.0
C2956 C 0.2401 0.68727 0.65768 0.0
C2957 C 0.23821 0.6986 0.64034 0.0
C2958 C 0.19268 0.70288 0.68517 0.0
C2959 C 0.2583 0.67454 0.66043 0.0
H2960 H 0.24757 0.68737 0.73813 0.0
H2961 H 0.21868 0.63518 0.71586 0.0
H2962 H 0.25806 0.70939 0.69365 0.0
H2963 H 0.23432 0.71961 0.69953 0.0
H2964 H 0.25227 0.71578 0.71894 0.0
H2965 H 0.20601 0.63306 0.68363 0.0
H2966 H 0.19741 0.65651 0.67415 0.0
H2967 H 0.22044 0.6466 0.66564 0.0
H2968 H 0.19493 0.72241 0.65036 0.0
H2969 H 0.24985 0.69804 0.62927 0.0
H2970 H 0.19861 0.71094 0.69823 0.0
H2971 H 0.18792 0.68802 0.69033 0.0
H2972 H 0.1795 0.711 0.67957 0.0
H2973 H 0.26756 0.68076 0.67253 0.0
H2974 H 0.26744 0.67369 0.64676 0.0
H2975 H 0.25402 0.65931 0.66488 0.0
C2976 C 0.17041 0.35617 0.21953 0.0
C2977 C 0.18162 0.37314 0.22382 0.0
C2978 C 0.15466 0.35056 0.23182 0.0
C2979 C 0.14922 0.36299 0.24789 0.0
C2980 C 0.15737 0.38227 0.24909 0.0
C2981 C 0.17385 0.38704 0.23726 0.0
C2982 C 0.14601 0.33004 0.22926 0.0
C2983 C 0.15028 0.39708 0.26422 0.0
C2984 C 0.11393 0.33116 0.27628 0.0
C2985 C 0.12769 0.32073 0.28794 0.0
C2986 C 0.11986 0.3479 0.26538 0.0
C2987 C 0.14005 0.35359 0.26563 0.0
C2988 C 0.15284 0.3454 0.28018 0.0
C2989 C 0.14621 0.32944 0.29165 0.0
C2990 C 0.105 0.35792 0.25207 0.0
C2991 C 0.17441 0.35135 0.28171 0.0
H2992 H 0.17562 0.34582 0.20841 0.0
H2993 H 0.18175 0.40076 0.24006 0.0
H2994 H 0.14939 0.32081 0.24246 0.0
H2995 H 0.12969 0.33091 0.22777 0.0
H2996 H 0.15196 0.32237 0.21598 0.0
H2997 H 0.14912 0.41197 0.25732 0.0
H2998 H 0.13564 0.39299 0.27055 0.0
H2999 H 0.16127 0.39827 0.2764 0.0
H3000 H 0.09917 0.3252 0.27403 0.0
H3001 H 0.15664 0.32213 0.30143 0.0
H3002 H 0.11039 0.37246 0.24659 0.0
H3003 H 0.09087 0.36019 0.26021 0.0
H3004 H 0.10163 0.34824 0.23921 0.0
H3005 H 0.18222 0.34792 0.26763 0.0
H3006 H 0.18221 0.34355 0.29393 0.0
H3007 H 0.17566 0.36748 0.28436 0.0
C3008 C 0.67223 0.14894 0.27737 0.0
C3009 C 0.68199 0.13133 0.27214 0.0
C3010 C 0.65652 0.15617 0.26591 0.0
C3011 C 0.64977 0.145 0.24944 0.0
C3012 C 0.65678 0.12542 0.2468 0.0
C3013 C 0.67313 0.11887 0.25797 0.0
C3014 C 0.6492 0.17698 0.26979 0.0
C3015 C 0.64851 0.11209 0.23088 0.0
C3016 C 0.61324 0.17808 0.22342 0.0
C3017 C 0.62627 0.18862 0.21105 0.0
C3018 C 0.61982 0.16139 0.23404 0.0
C3019 C 0.64 0.15578 0.23282 0.0
C3020 C 0.65224 0.1645 0.21813 0.0
C3021 C 0.645 0.18046 0.20704 0.0
C3022 C 0.6056 0.15115 0.2479 0.0
C3023 C 0.67382 0.15884 0.21584 0.0
H3024 H 0.67838 0.15835 0.28886 0.0
H3025 H 0.67999 0.10483 0.25426 0.0
H3026 H 0.65372 0.18686 0.25743 0.0
H3027 H 0.63281 0.17722 0.27066 0.0
H3028 H 0.65517 0.18318 0.28381 0.0
H3029 H 0.64809 0.09651 0.23615 0.0
H3030 H 0.63335 0.11661 0.22635 0.0
H3031 H 0.65831 0.11252 0.21769 0.0
H3032 H 0.59844 0.18373 0.22612 0.0
H3033 H 0.65499 0.18798 0.19695 0.0
H3034 H 0.61088 0.13619 0.25222 0.0
H3035 H 0.59081 0.14974 0.2408 0.0
H3036 H 0.60363 0.16022 0.26147 0.0
H3037 H 0.682 0.1622 0.22973 0.0
H3038 H 0.68116 0.16685 0.20349 0.0
H3039 H 0.6752 0.14274 0.21301 0.0
C3040 C 0.81198 0.65217 0.22162 0.0
C3041 C 0.80331 0.63394 0.22655 0.0
C3042 C 0.82957 0.65839 0.23069 0.0
C3043 C 0.83914 0.64568 0.24445 0.0
C3044 C 0.83228 0.62601 0.24681 0.0
C3045 C 0.81425 0.6204 0.238 0.0
C3046 C 0.83653 0.67943 0.22724 0.0
C3047 C 0.84282 0.61137 0.25999 0.0
C3048 C 0.88202 0.67602 0.26121 0.0
C3049 C 0.8722 0.68757 0.27553 0.0
C3050 C 0.87268 0.65938 0.2529 0.0
C3051 C 0.85317 0.65465 0.25888 0.0
C3052 C 0.84522 0.66366 0.27611 0.0
C3053 C 0.85507 0.6799 0.28447 0.0
C3054 C 0.88254 0.6487 0.23594 0.0
C3055 C 0.82484 0.6584 0.28377 0.0
H3056 H 0.80402 0.6625 0.21225 0.0
H3057 H 0.80804 0.60599 0.24144 0.0
H3058 H 0.8359 0.68795 0.2413 0.0
H3059 H 0.85212 0.6795 0.22207 0.0
H3060 H 0.82739 0.68734 0.21607 0.0
H3061 H 0.84235 0.59635 0.25327 0.0
H3062 H 0.85851 0.61553 0.26265 0.0
H3063 H 0.83506 0.61048 0.27446 0.0
H3064 H 0.89579 0.68122 0.25477 0.0
H3065 H 0.84786 0.68815 0.29623 0.0
H3066 H 0.87887 0.65625 0.22181 0.0
H3067 H 0.87739 0.63311 0.23491 0.0
H3068 H 0.89892 0.6489 0.23764 0.0
H3069 H 0.81344 0.66376 0.27318 0.0
H3070 H 0.82185 0.66515 0.29849 0.0
H3071 H 0.8232 0.64212 0.28507 0.0
C3072 C 0.34389 0.82873 0.20646 0.0
C3073 C 0.3625 0.8205 0.21065 0.0
C3074 C 0.33711 0.84535 0.21684 0.0
C3075 C 0.34978 0.85456 0.23089 0.0
C3076 C 0.36997 0.84897 0.2317 0.0
C3077 C 0.37608 0.83167 0.22183 0.0
C3078 C 0.31553 0.85108 0.21475 0.0
C3079 C 0.38469 0.85984 0.24453 0.0
C3080 C 0.31569 0.89022 0.25568 0.0
C3081 C 0.30728 0.8773 0.26969 0.0
C3082 C 0.33255 0.88454 0.24484 0.0
C3083 C 0.34046 0.86536 0.24771 0.0
C3084 C 0.33445 0.85419 0.26448 0.0
C3085 C 0.31824 0.86068 0.27568 0.0
C3086 C 0.34023 0.89809 0.22884 0.0
C3087 C 0.34298 0.83393 0.26886 0.0
H3088 H 0.33359 0.82074 0.19709 0.0
H3089 H 0.39088 0.826 0.22446 0.0
H3090 H 0.30759 0.84836 0.22892 0.0
H3091 H 0.31421 0.86704 0.21124 0.0
H3092 H 0.30791 0.84259 0.20288 0.0
H3093 H 0.3879 0.85099 0.258 0.0
H3094 H 0.39891 0.86162 0.23643 0.0
H3095 H 0.37924 0.87469 0.24904 0.0
H3096 H 0.30798 0.90371 0.25159 0.0
H3097 H 0.3125 0.85111 0.28724 0.0
H3098 H 0.33006 0.89774 0.21593 0.0
H3099 H 0.35533 0.89383 0.22387 0.0
H3100 H 0.34059 0.91361 0.23433 0.0
H3101 H 0.33952 0.82362 0.2565 0.0
H3102 H 0.33699 0.82748 0.28278 0.0
H3103 H 0.35931 0.83484 0.27023 0.0
C3104 C 0.10975 0.67286 0.72715 0.0
C3105 C 0.12383 0.6821 0.71488 0.0
C3106 C 0.11503 0.65642 0.73881 0.0
C3107 C 0.13493 0.64982 0.73872 0.0
C3108 C 0.14802 0.65689 0.72385 0.0
C3109 C 0.14201 0.67255 0.71166 0.0
C3110 C 0.09981 0.64768 0.75264 0.0
C3111 C 0.16933 0.65003 0.7226 0.0
C3112 C 0.16524 0.64653 0.78489 0.0
C3113 C 0.17528 0.62871 0.78115 0.0
C3114 C 0.14996 0.65286 0.77237 0.0
C3115 C 0.1437 0.64037 0.75664 0.0
C3116 C 0.15059 0.62059 0.75593 0.0
C3117 C 0.16668 0.61504 0.76796 0.0
C3118 C 0.14273 0.67397 0.77429 0.0
C3119 C 0.1426 0.60592 0.74111 0.0
H3120 H 0.09526 0.67951 0.72913 0.0
H3121 H 0.1527 0.67898 0.70154 0.0
H3122 H 0.10445 0.63303 0.7585 0.0
H3123 H 0.09725 0.65792 0.76524 0.0
H3124 H 0.08544 0.64597 0.74479 0.0
H3125 H 0.17741 0.65691 0.71002 0.0
H3126 H 0.17729 0.65381 0.73651 0.0
H3127 H 0.16994 0.63375 0.72073 0.0
H3128 H 0.17108 0.6568 0.79577 0.0
H3129 H 0.17366 0.60078 0.76556 0.0
H3130 H 0.12636 0.67428 0.77552 0.0
H3131 H 0.14695 0.6826 0.76092 0.0
H3132 H 0.14901 0.68155 0.78748 0.0
H3133 H 0.12805 0.61057 0.73499 0.0
H3134 H 0.14092 0.59116 0.74819 0.0
H3135 H 0.15329 0.60416 0.72874 0.0
C3136 C 0.38141 0.17339 0.77068 0.0
C3137 C 0.36975 0.18399 0.78432 0.0
C3138 C 0.37373 0.15659 0.76103 0.0
C3139 C 0.35393 0.15084 0.76478 0.0
C3140 C 0.34374 0.15916 0.78117 0.0
C3141 C 0.35201 0.17545 0.79102 0.0
C3142 C 0.38593 0.14663 0.74519 0.0
C3143 C 0.32286 0.15296 0.7864 0.0
C3144 C 0.31713 0.14692 0.72333 0.0
C3145 C 0.30832 0.12859 0.72766 0.0
C3146 C 0.33352 0.15367 0.73411 0.0
C3147 C 0.34196 0.14132 0.74887 0.0
C3148 C 0.33541 0.12147 0.75064 0.0
C3149 C 0.3184 0.11539 0.74023 0.0
C3150 C 0.34013 0.17492 0.73131 0.0
C3151 C 0.34507 0.10713 0.76477 0.0
H3152 H 0.39559 0.17929 0.76595 0.0
H3153 H 0.34329 0.18297 0.80223 0.0
H3154 H 0.38121 0.13103 0.74289 0.0
H3155 H 0.38418 0.15472 0.73099 0.0
H3156 H 0.40191 0.14691 0.74915 0.0
H3157 H 0.31768 0.1598 0.80045 0.0
H3158 H 0.31257 0.15745 0.77435 0.0
H3159 H 0.32194 0.13665 0.78793 0.0
H3160 H 0.30994 0.157 0.71309 0.0
H3161 H 0.31218 0.10089 0.74322 0.0
H3162 H 0.35608 0.17544 0.72745 0.0
H3163 H 0.33809 0.18337 0.74529 0.0
H3164 H 0.33173 0.18261 0.71945 0.0
H3165 H 0.36022 0.11189 0.76912 0.0
H3166 H 0.34595 0.09219 0.75791 0.0
H3167 H 0.33585 0.10571 0.77831 0.0
C3168 C 0.8248 0.37818 0.76303 0.0
C3169 C 0.81702 0.36441 0.77661 0.0
C3170 C 0.83983 0.37261 0.74968 0.0
C3171 C 0.8465 0.35274 0.74952 0.0
C3172 C 0.84124 0.34005 0.76541 0.0
C3173 C 0.82691 0.34628 0.77908 0.0
C3174 C 0.8468 0.38734 0.73441 0.0
C3175 C 0.84838 0.31886 0.76639 0.0
C3176 C 0.84546 0.32201 0.70322 0.0
C3177 C 0.86436 0.31336 0.70396 0.0
C3178 C 0.83991 0.33665 0.71685 0.0
C3179 C 0.85398 0.34359 0.73085 0.0
C3180 C 0.87405 0.33776 0.72897 0.0
C3181 C 0.87898 0.32238 0.71577 0.0
C3182 C 0.8183 0.34256 0.71792 0.0
C3183 C 0.89002 0.3462 0.74214 0.0
H3184 H 0.81791 0.3926 0.76146 0.0
H3185 H 0.82167 0.33579 0.79006 0.0
H3186 H 0.86175 0.38353 0.72871 0.0
H3187 H 0.83629 0.38757 0.72177 0.0
H3188 H 0.84719 0.40251 0.7408 0.0
H3189 H 0.84486 0.31184 0.78084 0.0
H3190 H 0.84119 0.31007 0.75446 0.0
H3191 H 0.86461 0.31805 0.76414 0.0
H3192 H 0.8342 0.31572 0.69366 0.0
H3193 H 0.89388 0.31636 0.71602 0.0
H3194 H 0.81674 0.35886 0.71857 0.0
H3195 H 0.81153 0.33632 0.73157 0.0
H3196 H 0.80974 0.33716 0.70497 0.0
H3197 H 0.90391 0.34829 0.73355 0.0
H3198 H 0.89335 0.33559 0.75425 0.0
H3199 H 0.88563 0.36059 0.74877 0.0
C3200 C 0.66762 0.87695 0.72965 0.0
C3201 C 0.67712 0.86375 0.71661 0.0
C3202 C 0.65085 0.87092 0.74046 0.0
C3203 C 0.6441 0.85117 0.73859 0.0
C3204 C 0.65128 0.83933 0.72276 0.0
C3205 C 0.66742 0.84606 0.71158 0.0
C3206 C 0.64198 0.88496 0.75539 0.0
C3207 C 0.64404 0.81838 0.71947 0.0
C3208 C 0.64067 0.81668 0.7816 0.0
C3209 C 0.6226 0.80738 0.77716 0.0
C3210 C 0.64707 0.8331 0.77066 0.0
C3211 C 0.63458 0.84095 0.75568 0.0
C3212 C 0.61469 0.83442 0.75446 0.0
C3213 C 0.60895 0.8174 0.76501 0.0
C3214 C 0.66826 0.84001 0.77322 0.0
C3215 C 0.60006 0.8439 0.7405 0.0
H3216 H 0.67437 0.89114 0.73301 0.0
H3217 H 0.67401 0.83618 0.70078 0.0
H3218 H 0.62702 0.88014 0.76028 0.0
H3219 H 0.65181 0.88601 0.76853 0.0
H3220 H 0.64088 0.90006 0.74894 0.0
H3221 H 0.65051 0.8116 0.70594 0.0
H3222 H 0.64806 0.809 0.73237 0.0
H3223 H 0.6277 0.81813 0.71797 0.0
H3224 H 0.65099 0.80963 0.79169 0.0
H3225 H 0.59452 0.81094 0.76213 0.0
H3226 H 0.66874 0.85625 0.77545 0.0
H3227 H 0.67695 0.83652 0.75968 0.0
H3228 H 0.67566 0.8329 0.78607 0.0
H3229 H 0.58533 0.8451 0.74777 0.0
H3230 H 0.59812 0.8344 0.72722 0.0
H3231 H 0.60489 0.85887 0.7357 0.0
C3232 C 0.20991 0.16574 0.35383 0.0
C3233 C 0.21546 0.1745 0.37187 0.0
C3234 C 0.22031 0.14942 0.34639 0.0
C3235 C 0.23567 0.14091 0.35795 0.0
C3236 C 0.23782 0.14675 0.37799 0.0
C3237 C 0.22799 0.16386 0.38466 0.0
C3238 C 0.21674 0.14336 0.32509 0.0
C3239 C 0.25202 0.1364 0.39177 0.0
C3240 C 0.26029 0.10632 0.32228 0.0
C3241 C 0.27367 0.11965 0.31347 0.0
C3242 C 0.24983 0.11163 0.33951 0.0
C3243 C 0.25228 0.13092 0.34738 0.0
C3244 C 0.26828 0.14279 0.34062 0.0
C3245 C 0.27923 0.13661 0.32413 0.0
C3246 C 0.23479 0.09737 0.34782 0.0
C3247 C 0.2721 0.16331 0.34881 0.0
H3248 H 0.19944 0.17323 0.34423 0.0
H3249 H 0.23168 0.16988 0.39911 0.0
H3250 H 0.23023 0.14616 0.31608 0.0
H3251 H 0.21338 0.12733 0.32427 0.0
H3252 H 0.20421 0.15154 0.31824 0.0
H3253 H 0.24503 0.13446 0.40655 0.0
H3254 H 0.25658 0.12166 0.38605 0.0
H3255 H 0.26541 0.1457 0.39397 0.0
H3256 H 0.25651 0.09263 0.31475 0.0
H3257 H 0.29029 0.14655 0.31804 0.0
H3258 H 0.22197 0.09622 0.33759 0.0
H3259 H 0.22944 0.1019 0.36271 0.0
H3260 H 0.24141 0.08234 0.3489 0.0
H3261 H 0.25891 0.17286 0.34649 0.0
H3262 H 0.28503 0.17059 0.34168 0.0
H3263 H 0.27497 0.16252 0.36495 0.0
C3264 C 0.87719 0.27324 0.33178 0.0
C3265 C 0.86559 0.28589 0.31999 0.0
C3266 C 0.86907 0.2641 0.34866 0.0
C3267 C 0.84882 0.26719 0.35319 0.0
C3268 C 0.83838 0.28264 0.3435 0.0
C3269 C 0.84717 0.29219 0.32732 0.0
C3270 C 0.88158 0.24963 0.36017 0.0
C3271 C 0.81692 0.28718 0.3482 0.0
C3272 C 0.81249 0.22574 0.35727 0.0
C3273 C 0.80173 0.23215 0.37389 0.0
C3274 C 0.82984 0.23555 0.35149 0.0
C3275 C 0.83706 0.25145 0.36322 0.0
C3276 C 0.82873 0.25481 0.38217 0.0
C3277 C 0.81087 0.24532 0.38721 0.0
C3278 C 0.83863 0.23073 0.33143 0.0
C3279 C 0.83731 0.26988 0.39625 0.0
H3280 H 0.89186 0.26891 0.32685 0.0
H3281 H 0.83842 0.30272 0.3189 0.0
H3282 H 0.8967 0.25577 0.36238 0.0
H3283 H 0.87505 0.24612 0.37487 0.0
H3284 H 0.88321 0.23571 0.35158 0.0
H3285 H 0.81118 0.29999 0.3396 0.0
H3286 H 0.80754 0.27409 0.34481 0.0
H3287 H 0.81521 0.29057 0.36417 0.0
H3288 H 0.80607 0.21487 0.34733 0.0
H3289 H 0.8032 0.24977 0.40062 0.0
H3290 H 0.85473 0.22785 0.33282 0.0
H3291 H 0.83667 0.24349 0.32124 0.0
H3292 H 0.83166 0.21752 0.32452 0.0
H3293 H 0.85289 0.27368 0.39253 0.0
H3294 H 0.83676 0.26413 0.41167 0.0
H3295 H 0.82823 0.28357 0.39588 0.0
C3296 C 0.71884 0.85687 0.31239 0.0
C3297 C 0.7273 0.87352 0.30324 0.0
C3298 C 0.72736 0.8487 0.32945 0.0
C3299 C 0.74417 0.85797 0.33801 0.0
C3300 C 0.74999 0.87694 0.33124 0.0
C3301 C 0.74168 0.88442 0.31365 0.0
C3302 C 0.72004 0.82873 0.3365 0.0
C3303 C 0.7664 0.88838 0.3412 0.0
C3304 C 0.76162 0.82302 0.37769 0.0
C3305 C 0.77377 0.81057 0.36622 0.0
C3306 C 0.75398 0.84068 0.36971 0.0
C3307 C 0.7581 0.84549 0.34971 0.0
C3308 C 0.77278 0.83462 0.3393 0.0
C3309 C 0.78077 0.81755 0.34792 0.0
C3310 C 0.74004 0.85297 0.3821 0.0
C3311 C 0.77818 0.83939 0.31806 0.0
H3312 H 0.7071 0.8488 0.30494 0.0
H3313 H 0.74785 0.89777 0.30719 0.0
H3314 H 0.73165 0.81735 0.33397 0.0
H3315 H 0.71691 0.82918 0.3526 0.0
H3316 H 0.70635 0.82396 0.32869 0.0
H3317 H 0.76327 0.90452 0.34062 0.0
H3318 H 0.76835 0.88387 0.35691 0.0
H3319 H 0.78053 0.88584 0.3332 0.0
H3320 H 0.75665 0.81822 0.39219 0.0
H3321 H 0.7908 0.80848 0.33924 0.0
H3322 H 0.72521 0.84588 0.38236 0.0
H3323 H 0.73849 0.86828 0.37629 0.0
H3324 H 0.74539 0.85368 0.39766 0.0
H3325 H 0.76498 0.83756 0.30839 0.0
H3326 H 0.79017 0.8297 0.3123 0.0
H3327 H 0.78315 0.85498 0.31683 0.0
C3328 C 0.17059 0.77884 0.35603 0.0
C3329 C 0.18072 0.77379 0.3735 0.0
C3330 C 0.15524 0.76684 0.34888 0.0
C3331 C 0.14911 0.75022 0.36018 0.0
C3332 C 0.15598 0.74818 0.3799 0.0
C3333 C 0.17211 0.75976 0.38626 0.0
C3334 C 0.14783 0.77031 0.328 0.0
C3335 C 0.14797 0.73239 0.3935 0.0
C3336 C 0.11613 0.72172 0.32555 0.0
C3337 C 0.13049 0.71003 0.31601 0.0
C3338 C 0.12103 0.73282 0.34252 0.0
C3339 C 0.14086 0.73281 0.34938 0.0
C3340 C 0.15437 0.71863 0.34172 0.0
C3341 C 0.14873 0.70696 0.32552 0.0
C3342 C 0.10539 0.74583 0.35173 0.0
C3343 C 0.17566 0.71752 0.34871 0.0
H3344 H 0.17644 0.79038 0.3465 0.0
H3345 H 0.17912 0.75635 0.40031 0.0
H3346 H 0.15201 0.75765 0.31836 0.0
H3347 H 0.13146 0.77147 0.32795 0.0
H3348 H 0.15398 0.78407 0.32136 0.0
H3349 H 0.14636 0.7384 0.40875 0.0
H3350 H 0.13338 0.7267 0.38843 0.0
H3351 H 0.1586 0.71989 0.39433 0.0
H3352 H 0.10162 0.72358 0.31889 0.0
H3353 H 0.15964 0.69729 0.31882 0.0
H3354 H 0.10999 0.75178 0.36637 0.0
H3355 H 0.09145 0.73727 0.35362 0.0
H3356 H 0.10197 0.75835 0.34164 0.0
H3357 H 0.18322 0.73191 0.34617 0.0
H3358 H 0.18421 0.70581 0.34094 0.0
H3359 H 0.17617 0.71435 0.3648 0.0
C3360 C 0.23386 0.82429 0.6101 0.0
C3361 C 0.22032 0.8155 0.62329 0.0
C3362 C 0.24508 0.84085 0.61593 0.0
C3363 C 0.24319 0.84807 0.63554 0.0
C3364 C 0.22707 0.84152 0.64736 0.0
C3365 C 0.2154 0.8257 0.64074 0.0
C3366 C 0.26034 0.84905 0.60183 0.0
C3367 C 0.22383 0.84911 0.66822 0.0
C3368 C 0.28615 0.85156 0.67014 0.0
C3369 C 0.28174 0.86969 0.67929 0.0
C3370 C 0.27518 0.84502 0.65379 0.0
C3371 C 0.26034 0.85754 0.6457 0.0
C3372 C 0.25928 0.8775 0.652 0.0
C3373 C 0.26973 0.88331 0.66908 0.0
C3374 C 0.27754 0.82373 0.64722 0.0
C3375 C 0.24558 0.89215 0.6422 0.0
H3376 H 0.23717 0.81715 0.59609 0.0
H3377 H 0.20427 0.81965 0.65062 0.0
H3378 H 0.26594 0.86377 0.6066 0.0
H3379 H 0.273 0.83863 0.60069 0.0
H3380 H 0.25386 0.85042 0.58676 0.0
H3381 H 0.21049 0.84254 0.67528 0.0
H3382 H 0.23689 0.84557 0.6776 0.0
H3383 H 0.22203 0.86541 0.6681 0.0
H3384 H 0.29619 0.84129 0.67732 0.0
H3385 H 0.2669 0.8978 0.67542 0.0
H3386 H 0.28029 0.82303 0.63105 0.0
H3387 H 0.26374 0.81531 0.65035 0.0
H3388 H 0.29 0.81619 0.65485 0.0
H3389 H 0.24081 0.88716 0.62726 0.0
H3390 H 0.25307 0.90674 0.64082 0.0
H3391 H 0.23227 0.89442 0.65159 0.0
C3392 C 0.18374 0.23963 0.6141 0.0
C3393 C 0.19348 0.22661 0.62711 0.0
C3394 C 0.16601 0.24902 0.61976 0.0
C3395 C 0.15836 0.2457 0.639 0.0
C3396 C 0.16649 0.23034 0.65082 0.0
C3397 C 0.18368 0.22064 0.64446 0.0
C3398 C 0.15675 0.26381 0.60582 0.0
C3399 C 0.15865 0.22583 0.67135 0.0
C3400 C 0.14585 0.2853 0.67528 0.0
C3401 C 0.12776 0.27787 0.68236 0.0
C3402 C 0.15513 0.27665 0.65885 0.0
C3403 C 0.14565 0.26075 0.64892 0.0
C3404 C 0.12563 0.25637 0.65332 0.0
C3405 C 0.11691 0.2648 0.67027 0.0
C3406 C 0.17623 0.28254 0.65416 0.0
C3407 C 0.1142 0.24111 0.64168 0.0
H3408 H 0.19075 0.24386 0.60027 0.0
H3409 H 0.19063 0.21 0.65428 0.0
H3410 H 0.14119 0.26729 0.60988 0.0
H3411 H 0.16553 0.27771 0.60597 0.0
H3412 H 0.15707 0.25803 0.5904 0.0
H3413 H 0.16668 0.21343 0.67855 0.0
H3414 H 0.16008 0.23909 0.68098 0.0
H3415 H 0.14272 0.22188 0.67061 0.0
H3416 H 0.15398 0.2961 0.68398 0.0
H3417 H 0.10249 0.25956 0.67504 0.0
H3418 H 0.17797 0.28526 0.63807 0.0
H3419 H 0.18645 0.27035 0.65833 0.0
H3420 H 0.18083 0.29612 0.66225 0.0
H3421 H 0.09824 0.24512 0.64101 0.0
H3422 H 0.11532 0.22653 0.64916 0.0
H3423 H 0.12001 0.23959 0.62635 0.0
C3424 C 0.70687 0.13968 0.66124 0.0
C3425 C 0.71347 0.12148 0.66884 0.0
C3426 C 0.71588 0.14799 0.6445 0.0
C3427 C 0.73087 0.13716 0.63447 0.0
C3428 C 0.73377 0.11696 0.63923 0.0
C3429 C 0.72535 0.10939 0.65674 0.0
C3430 C 0.7114 0.16939 0.63958 0.0
C3431 C 0.74743 0.10396 0.62729 0.0
C3432 C 0.75275 0.17531 0.6008 0.0
C3433 C 0.76664 0.18362 0.61393 0.0
C3434 C 0.74301 0.15752 0.60556 0.0
C3435 C 0.74671 0.14856 0.62416 0.0
C3436 C 0.76325 0.15495 0.63552 0.0
C3437 C 0.77344 0.17208 0.62981 0.0
C3438 C 0.72742 0.14968 0.59161 0.0
C3439 C 0.76849 0.14558 0.65519 0.0
H3440 H 0.6968 0.14873 0.66988 0.0
H3441 H 0.72977 0.09482 0.66185 0.0
H3442 H 0.72484 0.17863 0.64184 0.0
H3443 H 0.70695 0.17073 0.62384 0.0
H3444 H 0.69929 0.17559 0.64886 0.0
H3445 H 0.74042 0.08925 0.62493 0.0
H3446 H 0.75107 0.11052 0.61264 0.0
H3447 H 0.76135 0.10136 0.63565 0.0
H3448 H 0.74805 0.18355 0.58783 0.0
H3449 H 0.78494 0.17782 0.63946 0.0
H3450 H 0.71447 0.1598 0.5915 0.0
H3451 H 0.72243 0.13454 0.59567 0.0
H3452 H 0.73339 0.14937 0.57627 0.0
H3453 H 0.75582 0.1468 0.66563 0.0
H3454 H 0.7816 0.15264 0.66221 0.0
H3455 H 0.77182 0.12965 0.65312 0.0
C3456 C 0.82385 0.77625 0.64995 0.0
C3457 C 0.81499 0.77268 0.63149 0.0
C3458 C 0.84027 0.76523 0.65616 0.0
C3459 C 0.84875 0.75113 0.64305 0.0
C3460 C 0.84241 0.75058 0.62306 0.0
C3461 C 0.82528 0.76111 0.61755 0.0
C3462 C 0.84667 0.76688 0.67761 0.0
C3463 C 0.85233 0.73752 0.60789 0.0
C3464 C 0.88616 0.72691 0.67549 0.0
C3465 C 0.87364 0.71312 0.68484 0.0
C3466 C 0.87964 0.73739 0.65871 0.0
C3467 C 0.86008 0.73437 0.65182 0.0
C3468 C 0.84926 0.71769 0.65863 0.0
C3469 C 0.85645 0.70695 0.67486 0.0
C3470 C 0.8927 0.75332 0.65009 0.0
C3471 C 0.82869 0.71307 0.65103 0.0
H3472 H 0.81654 0.78582 0.66055 0.0
H3473 H 0.8191 0.75885 0.60288 0.0
H3474 H 0.84387 0.75267 0.68541 0.0
H3475 H 0.86275 0.77003 0.67856 0.0
H3476 H 0.83868 0.77879 0.68567 0.0
H3477 H 0.8541 0.74575 0.59375 0.0
H3478 H 0.86711 0.73227 0.61286 0.0
H3479 H 0.84278 0.72452 0.60471 0.0
H3480 H 0.90003 0.73115 0.68242 0.0
H3481 H 0.84712 0.69557 0.68133 0.0
H3482 H 0.89166 0.7669 0.65929 0.0
H3483 H 0.88832 0.75705 0.63467 0.0
H3484 H 0.90844 0.7485 0.65021 0.0
H3485 H 0.81823 0.72481 0.65589 0.0
H3486 H 0.82314 0.69859 0.65653 0.0
H3487 H 0.82858 0.71269 0.63462 0.0
C3488 C 0.32202 0.26822 0.11365 0.0
C3489 C 0.31369 0.28102 0.12784 0.0
C3490 C 0.33812 0.25595 0.1186 0.0
C3491 C 0.34533 0.25603 0.13829 0.0
C3492 C 0.33929 0.27133 0.15138 0.0
C3493 C 0.32393 0.28406 0.14569 0.0
C3494 C 0.34579 0.24152 0.10337 0.0
C3495 C 0.34686 0.27253 0.17245 0.0
C3496 C 0.34808 0.20998 0.16892 0.0
C3497 C 0.36668 0.21271 0.17783 0.0
C3498 C 0.3415 0.2228 0.154 0.0
C3499 C 0.35437 0.23788 0.14699 0.0
C3500 C 0.37451 0.23771 0.15284 0.0
C3501 C 0.38041 0.22535 0.16855 0.0
C3502 C 0.31992 0.22192 0.14796 0.0
C3503 C 0.38939 0.25192 0.14414 0.0
H3504 H 0.31485 0.26633 0.09939 0.0
H3505 H 0.31826 0.29459 0.15641 0.0
H3506 H 0.34659 0.24875 0.08861 0.0
H3507 H 0.36069 0.23577 0.10732 0.0
H3508 H 0.33538 0.22887 0.10203 0.0
H3509 H 0.34122 0.28579 0.18036 0.0
H3510 H 0.34218 0.25916 0.18083 0.0
H3511 H 0.36326 0.27307 0.17262 0.0
H3512 H 0.33761 0.19964 0.17536 0.0
H3513 H 0.39516 0.22703 0.17471 0.0
H3514 H 0.3186 0.22098 0.13163 0.0
H3515 H 0.31217 0.23557 0.15287 0.0
H3516 H 0.31213 0.20898 0.15448 0.0
H3517 H 0.38439 0.25804 0.12971 0.0
H3518 H 0.40385 0.24435 0.142 0.0
H3519 H 0.39194 0.26434 0.15461 0.0
C3520 C 0.35009 0.78804 0.82943 0.0
C3521 C 0.36841 0.78402 0.82043 0.0
C3522 C 0.34344 0.77657 0.84538 0.0
C3523 C 0.35598 0.76161 0.85319 0.0
C3524 C 0.37608 0.76103 0.84727 0.0
C3525 C 0.38204 0.77198 0.83058 0.0
C3526 C 0.32202 0.77852 0.8517 0.0
C3527 C 0.39073 0.74725 0.85696 0.0
C3528 C 0.32221 0.73288 0.88648 0.0
C3529 C 0.31398 0.71993 0.87236 0.0
C3530 C 0.33873 0.74465 0.88169 0.0
C3531 C 0.34649 0.74386 0.86222 0.0
C3532 C 0.34052 0.72827 0.84942 0.0
C3533 C 0.32471 0.71605 0.855 0.0
C3534 C 0.34629 0.75928 0.89679 0.0
C3535 C 0.34869 0.72621 0.82865 0.0
H3536 H 0.33978 0.79809 0.82233 0.0
H3537 H 0.39667 0.76948 0.82439 0.0
H3538 H 0.31373 0.76486 0.84776 0.0
H3539 H 0.32104 0.78049 0.86797 0.0
H3540 H 0.31453 0.7913 0.84455 0.0
H3541 H 0.40525 0.75482 0.85873 0.0
H3542 H 0.38555 0.74211 0.87171 0.0
H3543 H 0.39325 0.73418 0.84731 0.0
H3544 H 0.31466 0.73534 0.90045 0.0
H3545 H 0.31912 0.70532 0.84443 0.0
H3546 H 0.33544 0.77149 0.89856 0.0
H3547 H 0.36089 0.7656 0.89258 0.0
H3548 H 0.34769 0.75194 0.91145 0.0
H3549 H 0.34509 0.73962 0.81982 0.0
H3550 H 0.34254 0.71313 0.82081 0.0
H3551 H 0.36502 0.7247 0.82908 0.0
C3552 C 0.27354 0.31435 0.85461 0.0
C3553 C 0.26628 0.30626 0.87234 0.0
C3554 C 0.26574 0.33199 0.84703 0.0
C3555 C 0.25102 0.34228 0.85797 0.0
C3556 C 0.24665 0.33622 0.87756 0.0
C3557 C 0.2541 0.31804 0.88447 0.0
C3558 C 0.27141 0.33806 0.82619 0.0
C3559 C 0.23264 0.34776 0.8906 0.0
C3560 C 0.2363 0.38314 0.82374 0.0
C3561 C 0.22243 0.37278 0.81213 0.0
C3562 C 0.24368 0.37482 0.84136 0.0
C3563 C 0.23738 0.35564 0.84695 0.0
C3564 C 0.22076 0.34706 0.83736 0.0
C3565 C 0.21321 0.356 0.82024 0.0
C3566 C 0.25981 0.38551 0.85252 0.0
C3567 C 0.21283 0.32696 0.84328 0.0
H3568 H 0.28361 0.30579 0.84547 0.0
H3569 H 0.24895 0.31236 0.89859 0.0
H3570 H 0.25825 0.33734 0.81633 0.0
H3571 H 0.2769 0.35353 0.82609 0.0
H3572 H 0.28312 0.32844 0.81979 0.0
H3573 H 0.23813 0.34782 0.90612 0.0
H3574 H 0.23082 0.36329 0.88553 0.0
H3575 H 0.21792 0.34043 0.89069 0.0
H3576 H 0.24298 0.39663 0.81813 0.0
H3577 H 0.20179 0.34838 0.81186 0.0
H3578 H 0.2743 0.38277 0.84524 0.0
H3579 H 0.26076 0.38047 0.86815 0.0
H3580 H 0.25717 0.40175 0.85227 0.0
H3581 H 0.22416 0.31542 0.84025 0.0
H3582 H 0.19909 0.323 0.8351 0.0
H3583 H 0.20953 0.32665 0.85936 0.0
C3584 C 0.62169 0.215 0.83666 0.0
C3585 C 0.63401 0.20372 0.82421 0.0
C3586 C 0.62951 0.22443 0.85352 0.0
C3587 C 0.6501 0.22315 0.85726 0.0
C3588 C 0.66149 0.20872 0.84704 0.0
C3589 C 0.65302 0.19868 0.83097 0.0
C3590 C 0.61616 0.23747 0.86579 0.0
C3591 C 0.6834 0.20596 0.85096 0.0
C3592 C 0.68226 0.268 0.8591 0.0
C3593 C 0.69488 0.26249 0.87467 0.0
C3594 C 0.66559 0.25656 0.85448 0.0
C3595 C 0.66079 0.24004 0.86659 0.0
C3596 C 0.67073 0.23756 0.88489 0.0
C3597 C 0.68801 0.2486 0.88861 0.0
C3598 C 0.65507 0.2605 0.83507 0.0
C3599 C 0.66458 0.22189 0.89957 0.0
H3600 H 0.60657 0.21819 0.83222 0.0
H3601 H 0.66236 0.1891 0.82208 0.0
H3602 H 0.60195 0.22969 0.86875 0.0
H3603 H 0.62306 0.24164 0.88015 0.0
H3604 H 0.61252 0.25112 0.85741 0.0
H3605 H 0.68995 0.19394 0.8418 0.0
H3606 H 0.69152 0.21989 0.84769 0.0
H3607 H 0.68589 0.20227 0.86675 0.0
H3608 H 0.68687 0.27945 0.84883 0.0
H3609 H 0.69708 0.24486 0.90133 0.0
H3610 H 0.63896 0.26231 0.83761 0.0
H3611 H 0.65717 0.24779 0.82483 0.0
H3612 H 0.66063 0.27407 0.82759 0.0
H3613 H 0.64952 0.216 0.89648 0.0
H3614 H 0.66484 0.22814 0.9148 0.0
H3615 H 0.67538 0.20951 0.8993 0.0
C3616 C 0.77836 0.63861 0.81943 0.0
C3617 C 0.77431 0.62024 0.81054 0.0
C3618 C 0.76731 0.64516 0.83571 0.0
C3619 C 0.75265 0.63253 0.84395 0.0
C3620 C 0.75162 0.61255 0.83769 0.0
C3621 C 0.76222 0.60668 0.82073 0.0
C3622 C 0.76948 0.66654 0.84216 0.0
C3623 C 0.73789 0.59787 0.84744 0.0
C3624 C 0.72773 0.66526 0.88089 0.0
C3625 C 0.71436 0.67486 0.86812 0.0
C3626 C 0.73832 0.64853 0.87446 0.0
C3627 C 0.73582 0.64185 0.85474 0.0
C3628 C 0.71965 0.64908 0.84342 0.0
C3629 C 0.70882 0.6653 0.85048 0.0
C3630 C 0.75376 0.63964 0.88792 0.0
C3631 C 0.71569 0.64186 0.82258 0.0
H3632 H 0.78831 0.64895 0.8122 0.0
H3633 H 0.75958 0.5921 0.81452 0.0
H3634 H 0.75562 0.67479 0.83894 0.0
H3635 H 0.77217 0.66738 0.85833 0.0
H3636 H 0.7819 0.67418 0.83453 0.0
H3637 H 0.74537 0.58328 0.84882 0.0
H3638 H 0.73307 0.60282 0.86237 0.0
H3639 H 0.72461 0.59562 0.838 0.0
H3640 H 0.73152 0.67192 0.89503 0.0
H3641 H 0.69781 0.67201 0.84088 0.0
H3642 H 0.76738 0.64885 0.88756 0.0
H3643 H 0.75766 0.6243 0.88341 0.0
H3644 H 0.74836 0.63947 0.90348 0.0
H3645 H 0.72778 0.6469 0.8126 0.0
H3646 H 0.70141 0.64748 0.81666 0.0
H3647 H 0.71529 0.62547 0.82211 0.0
C3648 C 0.67401 0.71301 0.14598 0.0
C3649 C 0.68308 0.72072 0.12892 0.0
C3650 C 0.65773 0.72259 0.15459 0.0
C3651 C 0.65013 0.73997 0.14558 0.0
C3652 C 0.65652 0.74514 0.1263 0.0
C3653 C 0.67318 0.73559 0.11821 0.0
C3654 C 0.65082 0.71579 0.17477 0.0
C3655 C 0.64737 0.76223 0.11524 0.0
C3656 C 0.61371 0.76296 0.18133 0.0
C3657 C 0.62673 0.77449 0.19282 0.0
C3658 C 0.62034 0.75347 0.16398 0.0
C3659 C 0.64054 0.75506 0.15852 0.0
C3660 C 0.65289 0.76882 0.16854 0.0
C3661 C 0.64564 0.77873 0.18525 0.0
C3662 C 0.6061 0.74041 0.15274 0.0
C3663 C 0.67452 0.77144 0.16314 0.0
H3664 H 0.68102 0.70096 0.15396 0.0
H3665 H 0.67955 0.74122 0.10457 0.0
H3666 H 0.6571 0.72571 0.18631 0.0
H3667 H 0.63447 0.71641 0.17592 0.0
H3668 H 0.65563 0.70039 0.17796 0.0
H3669 H 0.65557 0.77605 0.11873 0.0
H3670 H 0.6483 0.75983 0.09898 0.0
H3671 H 0.6316 0.76436 0.11948 0.0
H3672 H 0.59882 0.76002 0.18663 0.0
H3673 H 0.65562 0.78818 0.19357 0.0
H3674 H 0.60418 0.72621 0.16078 0.0
H3675 H 0.61131 0.7372 0.13747 0.0
H3676 H 0.59129 0.74756 0.15192 0.0
H3677 H 0.68252 0.75718 0.16494 0.0
H3678 H 0.68202 0.78273 0.17248 0.0
H3679 H 0.67594 0.77599 0.14743 0.0
C3680 C 0.23843 0.6061 0.17291 0.0
C3681 C 0.22486 0.61912 0.18189 0.0
C3682 C 0.24922 0.61196 0.15607 0.0
C3683 C 0.24683 0.63144 0.14871 0.0
C3684 C 0.23073 0.64308 0.15557 0.0
C3685 C 0.21954 0.63645 0.17173 0.0
C3686 C 0.26457 0.59806 0.1477 0.0
C3687 C 0.22701 0.66379 0.14787 0.0
C3688 C 0.28869 0.66704 0.14315 0.0
C3689 C 0.28357 0.67551 0.12486 0.0
C3690 C 0.27843 0.65053 0.15037 0.0
C3691 C 0.26348 0.64172 0.13849 0.0
C3692 C 0.26169 0.64741 0.1184 0.0
C3693 C 0.27152 0.66457 0.11183 0.0
C3694 C 0.28157 0.64455 0.17175 0.0
C3695 C 0.24777 0.63689 0.10444 0.0
H3696 H 0.24208 0.59218 0.18005 0.0
H3697 H 0.20841 0.6462 0.17796 0.0
H3698 H 0.26959 0.60264 0.13271 0.0
H3699 H 0.27757 0.59749 0.15775 0.0
H3700 H 0.25844 0.58281 0.14684 0.0
H3701 H 0.21362 0.67062 0.15455 0.0
H3702 H 0.23992 0.67343 0.15123 0.0
H3703 H 0.22504 0.66354 0.13157 0.0
H3704 H 0.29874 0.67482 0.153 0.0
H3705 H 0.26813 0.67039 0.09724 0.0
H3706 H 0.28412 0.62838 0.17283 0.0
H3707 H 0.26815 0.64814 0.18059 0.0
H3708 H 0.29443 0.65222 0.17855 0.0
H3709 H 0.25451 0.63587 0.08944 0.0
H3710 H 0.23386 0.64552 0.10294 0.0
H3711 H 0.24409 0.62174 0.10968 0.0
C3712 C 0.76885 0.38364 0.15959 0.0
C3713 C 0.7794 0.37085 0.17219 0.0
C3714 C 0.76174 0.3769 0.14118 0.0
C3715 C 0.76455 0.35682 0.13588 0.0
C3716 C 0.77801 0.34506 0.14698 0.0
C3717 C 0.7857 0.3525 0.16474 0.0
C3718 C 0.74966 0.39081 0.12856 0.0
C3719 C 0.78224 0.32367 0.14172 0.0
C3720 C 0.72317 0.32241 0.1244 0.0
C3721 C 0.73217 0.31156 0.10912 0.0
C3722 C 0.73219 0.33953 0.13186 0.0
C3723 C 0.74995 0.34644 0.12298 0.0
C3724 C 0.75598 0.3384 0.10458 0.0
C3725 C 0.74724 0.32068 0.09797 0.0
C3726 C 0.72436 0.34822 0.15098 0.0
C3727 C 0.7731 0.34698 0.09309 0.0
H3728 H 0.76466 0.39827 0.16472 0.0
H3729 H 0.79467 0.34283 0.17392 0.0
H3730 H 0.74691 0.38483 0.11348 0.0
H3731 H 0.73525 0.39385 0.13588 0.0
H3732 H 0.75748 0.40523 0.12721 0.0
H3733 H 0.79302 0.31667 0.15201 0.0
H3734 H 0.76832 0.3149 0.14213 0.0
H3735 H 0.78836 0.32268 0.12653 0.0
H3736 H 0.71076 0.31607 0.13242 0.0
H3737 H 0.75368 0.31303 0.08539 0.0
H3738 H 0.72186 0.36434 0.14923 0.0
H3739 H 0.73536 0.34611 0.16304 0.0
H3740 H 0.71016 0.34131 0.15568 0.0
H3741 H 0.77665 0.36233 0.09785 0.0
H3742 H 0.76957 0.34703 0.07701 0.0
H3743 H 0.78642 0.33755 0.09508 0.0
loop_
_geom_bond_atom_site_label_1
_geom_bond_atom_site_label_2
_geom_bond_distance
_geom_bond_site_symmetry_2
_ccdc_geom_bond_type
Co0 O1 2.216 . S
Co0 O2 2.091 . S
Co0 O4 2.004 . S
Co0 O10 2.021 . S
Co0 O12 2.137 . S
Co0 O13 2.244 . S
O1 Co0 2.216 . S
O1 C8 1.247 . S
O2 Co0 2.091 . S
O2 C8 1.261 . S
C3 O12 1.247 . S
C3 O13 1.272 . S
O4 Co0 2.004 . S
O4 C9 1.259 . S
Co5 O6 2.061 . S
Co5 O11 2.052 . S
Co5 O13 2.135 . S
O6 Co5 2.061 . S
O6 C9 1.235 . S
C7 O10 1.238 . S
C7 O11 1.241 . S
C8 O1 1.247 . S
C8 O2 1.261 . S
C9 O4 1.259 . S
C9 O6 1.235 . S
O10 Co0 2.021 . S
O10 C7 1.238 . S
O11 Co5 2.052 . S
O11 C7 1.241 . S
O12 Co0 2.137 . S
O12 C3 1.247 . S
O13 Co0 2.244 . S
O13 C3 1.272 . S
O13 Co5 2.135 . S
Co14 O15 2.216 . S
Co14 O16 2.091 . S
Co14 O18 2.004 . S
Co14 O24 2.021 . S
Co14 O26 2.137 . S
Co14 O27 2.244 . S
O15 Co14 2.216 . S
O15 C22 1.247 . S
O16 Co14 2.091 . S
O16 C22 1.261 . S
C17 O26 1.247 . S
C17 O27 1.272 . S
O18 Co14 2.004 . S
O18 C23 1.259 . S
Co19 O20 2.061 . S
Co19 O25 2.052 . S
Co19 O27 2.135 . S
O20 Co19 2.061 . S
O20 C23 1.235 . S
C21 O24 1.238 . S
C21 O25 1.241 . S
C22 O15 1.247 . S
C22 O16 1.261 . S
C23 O18 1.259 . S
C23 O20 1.235 . S
O24 Co14 2.021 . S
O24 C21 1.238 . S
O25 Co19 2.052 . S
O25 C21 1.241 . S
O26 Co14 2.137 . S
O26 C17 1.247 . S
O27 Co14 2.244 . S
O27 C17 1.272 . S
O27 Co19 2.135 . S
Co28 O29 2.216 . S
Co28 O30 2.091 . S
Co28 O32 2.004 . S
Co28 O38 2.021 . S
Co28 O40 2.137 . S
Co28 O41 2.244 . S
O29 Co28 2.216 . S
O29 C36 1.247 . S
O30 Co28 2.091 . S
O30 C36 1.261 . S
C31 O40 1.247 . S
C31 O41 1.272 . S
O32 Co28 2.004 . S
O32 C37 1.259 . S
Co33 O34 2.061 . S
Co33 O39 2.052 . S
Co33 O41 2.135 . S
O34 Co33 2.061 . S
O34 C37 1.235 . S
C35 O38 1.238 . S
C35 O39 1.241 . S
C36 O29 1.247 . S
C36 O30 1.261 . S
C37 O32 1.259 . S
C37 O34 1.235 . S
O38 Co28 2.021 . S
O38 C35 1.238 . S
O39 Co33 2.052 . S
O39 C35 1.241 . S
O40 Co28 2.137 . S
O40 C31 1.247 . S
O41 Co28 2.244 . S
O41 C31 1.272 . S
O41 Co33 2.135 . S
Co42 O43 2.216 . S
Co42 O44 2.091 . S
Co42 O46 2.004 . S
Co42 O52 2.021 . S
Co42 O54 2.137 . S
Co42 O55 2.244 . S
O43 Co42 2.216 . S
O43 C50 1.247 . S
O44 Co42 2.091 . S
O44 C50 1.261 . S
C45 O54 1.247 . S
C45 O55 1.272 . S
O46 Co42 2.004 . S
O46 C51 1.259 . S
Co47 O48 2.061 . S
Co47 O53 2.052 . S
Co47 O55 2.135 . S
O48 Co47 2.061 . S
O48 C51 1.235 . S
C49 O52 1.238 . S
C49 O53 1.241 . S
C50 O43 1.247 . S
C50 O44 1.261 . S
C51 O46 1.259 . S
C51 O48 1.235 . S
O52 Co42 2.021 . S
O52 C49 1.238 . S
O53 Co47 2.052 . S
O53 C49 1.241 . S
O54 Co42 2.137 . S
O54 C45 1.247 . S
O55 Co42 2.244 . S
O55 C45 1.272 . S
O55 Co47 2.135 . S
Co56 O57 2.216 . S
Co56 O58 2.091 . S
Co56 O60 2.004 . S
Co56 O66 2.021 . S
Co56 O68 2.137 . S
Co56 O69 2.244 . S
O57 Co56 2.216 . S
O57 C64 1.247 . S
O58 Co56 2.091 . S
O58 C64 1.261 . S
C59 O68 1.247 . S
C59 O69 1.272 . S
O60 Co56 2.004 . S
O60 C65 1.259 . S
Co61 O62 2.061 . S
Co61 O67 2.052 . S
Co61 O69 2.135 . S
O62 Co61 2.061 . S
O62 C65 1.235 . S
C63 O66 1.238 . S
C63 O67 1.241 . S
C64 O57 1.247 . S
C64 O58 1.261 . S
C65 O60 1.259 . S
C65 O62 1.235 . S
O66 Co56 2.021 . S
O66 C63 1.238 . S
O67 Co61 2.052 . S
O67 C63 1.241 . S
O68 Co56 2.137 . S
O68 C59 1.247 . S
O69 Co56 2.244 . S
O69 C59 1.272 . S
O69 Co61 2.135 . S
Co70 O71 2.216 . S
Co70 O72 2.091 . S
Co70 O74 2.004 . S
Co70 O80 2.021 . S
Co70 O82 2.137 . S
Co70 O83 2.244 . S
O71 Co70 2.216 . S
O71 C78 1.247 . S
O72 Co70 2.091 . S
O72 C78 1.261 . S
C73 O82 1.247 . S
C73 O83 1.272 . S
O74 Co70 2.004 . S
O74 C79 1.259 . S
Co75 O76 2.061 . S
Co75 O81 2.052 . S
Co75 O83 2.135 . S
O76 Co75 2.061 . S
O76 C79 1.235 . S
C77 O80 1.238 . S
C77 O81 1.241 . S
C78 O71 1.247 . S
C78 O72 1.261 . S
C79 O74 1.259 . S
C79 O76 1.235 . S
O80 Co70 2.021 . S
O80 C77 1.238 . S
O81 Co75 2.052 . S
O81 C77 1.241 . S
O82 Co70 2.137 . S
O82 C73 1.247 . S
O83 Co70 2.244 . S
O83 C73 1.272 . S
O83 Co75 2.135 . S
Co84 O85 2.216 . S
Co84 O86 2.091 . S
Co84 O88 2.004 . S
Co84 O94 2.021 . S
Co84 O96 2.137 . S
Co84 O97 2.244 . S
O85 Co84 2.216 . S
O85 C92 1.247 . S
O86 Co84 2.091 . S
O86 C92 1.261 . S
C87 O96 1.247 . S
C87 O97 1.272 . S
O88 Co84 2.004 . S
O88 C93 1.259 . S
Co89 O90 2.061 . S
Co89 O95 2.052 . S
Co89 O97 2.135 . S
O90 Co89 2.061 . S
O90 C93 1.235 . S
C91 O94 1.238 . S
C91 O95 1.241 . S
C92 O85 1.247 . S
C92 O86 1.261 . S
C93 O88 1.259 . S
C93 O90 1.235 . S
O94 Co84 2.021 . S
O94 C91 1.238 . S
O95 Co89 2.052 . S
O95 C91 1.241 . S
O96 Co84 2.137 . S
O96 C87 1.247 . S
O97 Co84 2.244 . S
O97 C87 1.272 . S
O97 Co89 2.135 . S
Co98 O99 2.216 . S
Co98 O100 2.091 . S
Co98 O102 2.004 . S
Co98 O108 2.021 . S
Co98 O110 2.137 . S
Co98 O111 2.244 . S
O99 Co98 2.216 . S
O99 C106 1.247 . S
O100 Co98 2.091 . S
O100 C106 1.261 . S
C101 O110 1.247 . S
C101 O111 1.272 . S
O102 Co98 2.004 . S
O102 C107 1.259 . S
Co103 O104 2.061 . S
Co103 O109 2.052 . S
Co103 O111 2.135 . S
O104 Co103 2.061 . S
O104 C107 1.235 . S
C105 O108 1.238 . S
C105 O109 1.241 . S
C106 O99 1.247 . S
C106 O100 1.261 . S
C107 O102 1.259 . S
C107 O104 1.235 . S
O108 Co98 2.021 . S
O108 C105 1.238 . S
O109 Co103 2.052 . S
O109 C105 1.241 . S
O110 Co98 2.137 . S
O110 C101 1.247 . S
O111 Co98 2.244 . S
O111 C101 1.272 . S
O111 Co103 2.135 . S
Co112 O113 2.216 . S
Co112 O114 2.091 . S
Co112 O116 2.004 . S
Co112 O122 2.021 . S
Co112 O124 2.137 . S
Co112 O125 2.244 . S
O113 Co112 2.216 . S
O113 C120 1.247 . S
O114 Co112 2.091 . S
O114 C120 1.261 . S
C115 O124 1.247 . S
C115 O125 1.272 . S
O116 Co112 2.004 . S
O116 C121 1.259 . S
Co117 O118 2.061 . S
Co117 O123 2.052 . S
Co117 O125 2.135 . S
O118 Co117 2.061 . S
O118 C121 1.235 . S
C119 O122 1.238 . S
C119 O123 1.241 . S
C120 O113 1.247 . S
C120 O114 1.261 . S
C121 O116 1.259 . S
C121 O118 1.235 . S
O122 Co112 2.021 . S
O122 C119 1.238 . S
O123 Co117 2.052 . S
O123 C119 1.241 . S
O124 Co112 2.137 . S
O124 C115 1.247 . S
O125 Co112 2.244 . S
O125 C115 1.272 . S
O125 Co117 2.135 . S
Co126 O127 2.216 . S
Co126 O128 2.091 . S
Co126 O130 2.004 . S
Co126 O136 2.021 . S
Co126 O138 2.137 . S
Co126 O139 2.244 . S
O127 Co126 2.216 . S
O127 C134 1.247 . S
O128 Co126 2.091 . S
O128 C134 1.261 . S
C129 O138 1.247 . S
C129 O139 1.272 . S
O130 Co126 2.004 . S
O130 C135 1.259 . S
Co131 O132 2.061 . S
Co131 O137 2.052 . S
Co131 O139 2.135 . S
O132 Co131 2.061 . S
O132 C135 1.235 . S
C133 O136 1.238 . S
C133 O137 1.241 . S
C134 O127 1.247 . S
C134 O128 1.261 . S
C135 O130 1.259 . S
C135 O132 1.235 . S
O136 Co126 2.021 . S
O136 C133 1.238 . S
O137 Co131 2.052 . S
O137 C133 1.241 . S
O138 Co126 2.137 . S
O138 C129 1.247 . S
O139 Co126 2.244 . S
O139 C129 1.272 . S
O139 Co131 2.135 . S
Co140 O141 2.216 . S
Co140 O142 2.091 . S
Co140 O144 2.004 . S
Co140 O150 2.021 . S
Co140 O152 2.137 . S
Co140 O153 2.244 . S
O141 Co140 2.216 . S
O141 C148 1.247 . S
O142 Co140 2.091 . S
O142 C148 1.261 . S
C143 O152 1.247 . S
C143 O153 1.272 . S
O144 Co140 2.004 . S
O144 C149 1.259 . S
Co145 O146 2.061 . S
Co145 O151 2.052 . S
Co145 O153 2.135 . S
O146 Co145 2.061 . S
O146 C149 1.235 . S
C147 O150 1.238 . S
C147 O151 1.241 . S
C148 O141 1.247 . S
C148 O142 1.261 . S
C149 O144 1.259 . S
C149 O146 1.235 . S
O150 Co140 2.021 . S
O150 C147 1.238 . S
O151 Co145 2.052 . S
O151 C147 1.241 . S
O152 Co140 2.137 . S
O152 C143 1.247 . S
O153 Co140 2.244 . S
O153 C143 1.272 . S
O153 Co145 2.135 . S
Co154 O155 2.216 . S
Co154 O156 2.091 . S
Co154 O158 2.004 . S
Co154 O164 2.021 . S
Co154 O166 2.137 . S
Co154 O167 2.244 . S
O155 Co154 2.216 . S
O155 C162 1.247 . S
O156 Co154 2.091 . S
O156 C162 1.261 . S
C157 O166 1.247 . S
C157 O167 1.272 . S
O158 Co154 2.004 . S
O158 C163 1.259 . S
Co159 O160 2.061 . S
Co159 O165 2.052 . S
Co159 O167 2.135 . S
O160 Co159 2.061 . S
O160 C163 1.235 . S
C161 O164 1.238 . S
C161 O165 1.241 . S
C162 O155 1.247 . S
C162 O156 1.261 . S
C163 O158 1.259 . S
C163 O160 1.235 . S
O164 Co154 2.021 . S
O164 C161 1.238 . S
O165 Co159 2.052 . S
O165 C161 1.241 . S
O166 Co154 2.137 . S
O166 C157 1.247 . S
O167 Co154 2.244 . S
O167 C157 1.272 . S
O167 Co159 2.135 . S
Co168 O169 2.216 . S
Co168 O170 2.091 . S
Co168 O172 2.004 . S
Co168 O178 2.021 . S
Co168 O180 2.137 . S
Co168 O181 2.244 . S
O169 Co168 2.216 . S
O169 C176 1.247 . S
O170 Co168 2.091 . S
O170 C176 1.261 . S
C171 O180 1.247 . S
C171 O181 1.272 . S
O172 Co168 2.004 . S
O172 C177 1.259 . S
Co173 O174 2.061 . S
Co173 O179 2.052 . S
Co173 O181 2.135 . S
O174 Co173 2.061 . S
O174 C177 1.235 . S
C175 O178 1.238 . S
C175 O179 1.241 . S
C176 O169 1.247 . S
C176 O170 1.261 . S
C177 O172 1.259 . S
C177 O174 1.235 . S
O178 Co168 2.021 . S
O178 C175 1.238 . S
O179 Co173 2.052 . S
O179 C175 1.241 . S
O180 Co168 2.137 . S
O180 C171 1.247 . S
O181 Co168 2.244 . S
O181 C171 1.272 . S
O181 Co173 2.135 . S
Co182 O183 2.216 . S
Co182 O184 2.091 . S
Co182 O186 2.004 . S
Co182 O192 2.021 . S
Co182 O194 2.137 . S
Co182 O195 2.244 . S
O183 Co182 2.216 . S
O183 C190 1.247 . S
O184 Co182 2.091 . S
O184 C190 1.261 . S
C185 O194 1.247 . S
C185 O195 1.272 . S
O186 Co182 2.004 . S
O186 C191 1.259 . S
Co187 O188 2.061 . S
Co187 O193 2.052 . S
Co187 O195 2.135 . S
O188 Co187 2.061 . S
O188 C191 1.235 . S
C189 O192 1.238 . S
C189 O193 1.241 . S
C190 O183 1.247 . S
C190 O184 1.261 . S
C191 O186 1.259 . S
C191 O188 1.235 . S
O192 Co182 2.021 . S
O192 C189 1.238 . S
O193 Co187 2.052 . S
O193 C189 1.241 . S
O194 Co182 2.137 . S
O194 C185 1.247 . S
O195 Co182 2.244 . S
O195 C185 1.272 . S
O195 Co187 2.135 . S
Co196 O197 2.216 . S
Co196 O198 2.091 . S
Co196 O200 2.004 . S
Co196 O206 2.021 . S
Co196 O208 2.137 . S
Co196 O209 2.244 . S
O197 Co196 2.216 . S
O197 C204 1.247 . S
O198 Co196 2.091 . S
O198 C204 1.261 . S
C199 O208 1.247 . S
C199 O209 1.272 . S
O200 Co196 2.004 . S
O200 C205 1.259 . S
Co201 O202 2.061 . S
Co201 O207 2.052 . S
Co201 O209 2.135 . S
O202 Co201 2.061 . S
O202 C205 1.235 . S
C203 O206 1.238 . S
C203 O207 1.241 . S
C204 O197 1.247 . S
C204 O198 1.261 . S
C205 O200 1.259 . S
C205 O202 1.235 . S
O206 Co196 2.021 . S
O206 C203 1.238 . S
O207 Co201 2.052 . S
O207 C203 1.241 . S
O208 Co196 2.137 . S
O208 C199 1.247 . S
O209 Co196 2.244 . S
O209 C199 1.272 . S
O209 Co201 2.135 . S
Co210 O211 2.216 . S
Co210 O212 2.091 . S
Co210 O214 2.004 . S
Co210 O220 2.021 . S
Co210 O222 2.137 . S
Co210 O223 2.244 . S
O211 Co210 2.216 . S
O211 C218 1.247 . S
O212 Co210 2.091 . S
O212 C218 1.261 . S
C213 O222 1.247 . S
C213 O223 1.272 . S
O214 Co210 2.004 . S
O214 C219 1.259 . S
Co215 O216 2.061 . S
Co215 O221 2.052 . S
Co215 O223 2.135 . S
O216 Co215 2.061 . S
O216 C219 1.235 . S
C217 O220 1.238 . S
C217 O221 1.241 . S
C218 O211 1.247 . S
C218 O212 1.261 . S
C219 O214 1.259 . S
C219 O216 1.235 . S
O220 Co210 2.021 . S
O220 C217 1.238 . S
O221 Co215 2.052 . S
O221 C217 1.241 . S
O222 Co210 2.137 . S
O222 C213 1.247 . S
O223 Co210 2.244 . S
O223 C213 1.272 . S
O223 Co215 2.135 . S
Co224 O225 2.216 . S
Co224 O226 2.091 . S
Co224 O228 2.004 . S
Co224 O234 2.021 . S
Co224 O236 2.137 . S
Co224 O237 2.244 . S
O225 Co224 2.216 . S
O225 C232 1.247 . S
O226 Co224 2.091 . S
O226 C232 1.261 . S
C227 O236 1.247 . S
C227 O237 1.272 . S
O228 Co224 2.004 . S
O228 C233 1.259 . S
Co229 O230 2.061 . S
Co229 O235 2.052 . S
Co229 O237 2.135 . S
O230 Co229 2.061 . S
O230 C233 1.235 . S
C231 O234 1.238 . S
C231 O235 1.241 . S
C232 O225 1.247 . S
C232 O226 1.261 . S
C233 O228 1.259 . S
C233 O230 1.235 . S
O234 Co224 2.021 . S
O234 C231 1.238 . S
O235 Co229 2.052 . S
O235 C231 1.241 . S
O236 Co224 2.137 . S
O236 C227 1.247 . S
O237 Co224 2.244 . S
O237 C227 1.272 . S
O237 Co229 2.135 . S
Co238 O239 2.216 . S
Co238 O240 2.091 . S
Co238 O242 2.004 . S
Co238 O248 2.021 . S
Co238 O250 2.137 . S
Co238 O251 2.244 . S
O239 Co238 2.216 . S
O239 C246 1.247 . S
O240 Co238 2.091 . S
O240 C246 1.261 . S
C241 O250 1.247 . S
C241 O251 1.272 . S
O242 Co238 2.004 . S
O242 C247 1.259 . S
Co243 O244 2.061 . S
Co243 O249 2.052 . S
Co243 O251 2.135 . S
O244 Co243 2.061 . S
O244 C247 1.235 . S
C245 O248 1.238 . S
C245 O249 1.241 . S
C246 O239 1.247 . S
C246 O240 1.261 . S
C247 O242 1.259 . S
C247 O244 1.235 . S
O248 Co238 2.021 . S
O248 C245 1.238 . S
O249 Co243 2.052 . S
O249 C245 1.241 . S
O250 Co238 2.137 . S
O250 C241 1.247 . S
O251 Co238 2.244 . S
O251 C241 1.272 . S
O251 Co243 2.135 . S
Co252 O253 2.216 . S
Co252 O254 2.091 . S
Co252 O256 2.004 . S
Co252 O262 2.021 . S
Co252 O264 2.137 . S
Co252 O265 2.244 . S
O253 Co252 2.216 . S
O253 C260 1.247 . S
O254 Co252 2.091 . S
O254 C260 1.261 . S
C255 O264 1.247 . S
C255 O265 1.272 . S
O256 Co252 2.004 . S
O256 C261 1.259 . S
Co257 O258 2.061 . S
Co257 O263 2.052 . S
Co257 O265 2.135 . S
O258 Co257 2.061 . S
O258 C261 1.235 . S
C259 O262 1.238 . S
C259 O263 1.241 . S
C260 O253 1.247 . S
C260 O254 1.261 . S
C261 O256 1.259 . S
C261 O258 1.235 . S
O262 Co252 2.021 . S
O262 C259 1.238 . S
O263 Co257 2.052 . S
O263 C259 1.241 . S
O264 Co252 2.137 . S
O264 C255 1.247 . S
O265 Co252 2.244 . S
O265 C255 1.272 . S
O265 Co257 2.135 . S
Co266 O267 2.216 . S
Co266 O268 2.091 . S
Co266 O270 2.004 . S
Co266 O276 2.021 . S
Co266 O278 2.137 . S
Co266 O279 2.244 . S
O267 Co266 2.216 . S
O267 C274 1.247 . S
O268 Co266 2.091 . S
O268 C274 1.261 . S
C269 O278 1.247 . S
C269 O279 1.272 . S
O270 Co266 2.004 . S
O270 C275 1.259 . S
Co271 O272 2.061 . S
Co271 O277 2.052 . S
Co271 O279 2.135 . S
O272 Co271 2.061 . S
O272 C275 1.235 . S
C273 O276 1.238 . S
C273 O277 1.241 . S
C274 O267 1.247 . S
C274 O268 1.261 . S
C275 O270 1.259 . S
C275 O272 1.235 . S
O276 Co266 2.021 . S
O276 C273 1.238 . S
O277 Co271 2.052 . S
O277 C273 1.241 . S
O278 Co266 2.137 . S
O278 C269 1.247 . S
O279 Co266 2.244 . S
O279 C269 1.272 . S
O279 Co271 2.135 . S
Co280 O281 2.216 . S
Co280 O282 2.091 . S
Co280 O284 2.004 . S
Co280 O290 2.021 . S
Co280 O292 2.137 . S
Co280 O293 2.244 . S
O281 Co280 2.216 . S
O281 C288 1.247 . S
O282 Co280 2.091 . S
O282 C288 1.261 . S
C283 O292 1.247 . S
C283 O293 1.272 . S
O284 Co280 2.004 . S
O284 C289 1.259 . S
Co285 O286 2.061 . S
Co285 O291 2.052 . S
Co285 O293 2.135 . S
O286 Co285 2.061 . S
O286 C289 1.235 . S
C287 O290 1.238 . S
C287 O291 1.241 . S
C288 O281 1.247 . S
C288 O282 1.261 . S
C289 O284 1.259 . S
C289 O286 1.235 . S
O290 Co280 2.021 . S
O290 C287 1.238 . S
O291 Co285 2.052 . S
O291 C287 1.241 . S
O292 Co280 2.137 . S
O292 C283 1.247 . S
O293 Co280 2.244 . S
O293 C283 1.272 . S
O293 Co285 2.135 . S
Co294 O295 2.216 . S
Co294 O296 2.091 . S
Co294 O298 2.004 . S
Co294 O304 2.021 . S
Co294 O306 2.137 . S
Co294 O307 2.244 . S
O295 Co294 2.216 . S
O295 C302 1.247 . S
O296 Co294 2.091 . S
O296 C302 1.261 . S
C297 O306 1.247 . S
C297 O307 1.272 . S
O298 Co294 2.004 . S
O298 C303 1.259 . S
Co299 O300 2.061 . S
Co299 O305 2.052 . S
Co299 O307 2.135 . S
O300 Co299 2.061 . S
O300 C303 1.235 . S
C301 O304 1.238 . S
C301 O305 1.241 . S
C302 O295 1.247 . S
C302 O296 1.261 . S
C303 O298 1.259 . S
C303 O300 1.235 . S
O304 Co294 2.021 . S
O304 C301 1.238 . S
O305 Co299 2.052 . S
O305 C301 1.241 . S
O306 Co294 2.137 . S
O306 C297 1.247 . S
O307 Co294 2.244 . S
O307 C297 1.272 . S
O307 Co299 2.135 . S
Co308 O309 2.216 . S
Co308 O310 2.091 . S
Co308 O312 2.004 . S
Co308 O318 2.021 . S
Co308 O320 2.137 . S
Co308 O321 2.244 . S
O309 Co308 2.216 . S
O309 C316 1.247 . S
O310 Co308 2.091 . S
O310 C316 1.261 . S
C311 O320 1.247 . S
C311 O321 1.272 . S
O312 Co308 2.004 . S
O312 C317 1.259 . S
Co313 O314 2.061 . S
Co313 O319 2.052 . S
Co313 O321 2.135 . S
O314 Co313 2.061 . S
O314 C317 1.235 . S
C315 O318 1.238 . S
C315 O319 1.241 . S
C316 O309 1.247 . S
C316 O310 1.261 . S
C317 O312 1.259 . S
C317 O314 1.235 . S
O318 Co308 2.021 . S
O318 C315 1.238 . S
O319 Co313 2.052 . S
O319 C315 1.241 . S
O320 Co308 2.137 . S
O320 C311 1.247 . S
O321 Co308 2.244 . S
O321 C311 1.272 . S
O321 Co313 2.135 . S
Co322 O323 2.216 . S
Co322 O324 2.091 . S
Co322 O326 2.004 . S
Co322 O332 2.021 . S
Co322 O334 2.137 . S
Co322 O335 2.244 . S
O323 Co322 2.216 . S
O323 C330 1.247 . S
O324 Co322 2.091 . S
O324 C330 1.261 . S
C325 O334 1.247 . S
C325 O335 1.272 . S
O326 Co322 2.004 . S
O326 C331 1.259 . S
Co327 O328 2.061 . S
Co327 O333 2.052 . S
Co327 O335 2.135 . S
O328 Co327 2.061 . S
O328 C331 1.235 . S
C329 O332 1.238 . S
C329 O333 1.241 . S
C330 O323 1.247 . S
C330 O324 1.261 . S
C331 O326 1.259 . S
C331 O328 1.235 . S
O332 Co322 2.021 . S
O332 C329 1.238 . S
O333 Co327 2.052 . S
O333 C329 1.241 . S
O334 Co322 2.137 . S
O334 C325 1.247 . S
O335 Co322 2.244 . S
O335 C325 1.272 . S
O335 Co327 2.135 . S
Co336 O337 2.216 . S
Co336 O338 2.091 . S
Co336 O340 2.004 . S
Co336 O346 2.021 . S
Co336 O348 2.137 . S
Co336 O349 2.244 . S
O337 Co336 2.216 . S
O337 C344 1.247 . S
O338 Co336 2.091 . S
O338 C344 1.261 . S
C339 O348 1.247 . S
C339 O349 1.272 . S
O340 Co336 2.004 . S
O340 C345 1.259 . S
Co341 O342 2.061 . S
Co341 O347 2.052 . S
Co341 O349 2.135 . S
O342 Co341 2.061 . S
O342 C345 1.235 . S
C343 O346 1.238 . S
C343 O347 1.241 . S
C344 O337 1.247 . S
C344 O338 1.261 . S
C345 O340 1.259 . S
C345 O342 1.235 . S
O346 Co336 2.021 . S
O346 C343 1.238 . S
O347 Co341 2.052 . S
O347 C343 1.241 . S
O348 Co336 2.137 . S
O348 C339 1.247 . S
O349 Co336 2.244 . S
O349 C339 1.272 . S
O349 Co341 2.135 . S
Co350 O351 2.216 . S
Co350 O352 2.091 . S
Co350 O354 2.004 . S
Co350 O360 2.021 . S
Co350 O362 2.137 . S
Co350 O363 2.244 . S
O351 Co350 2.216 . S
O351 C358 1.247 . S
O352 Co350 2.091 . S
O352 C358 1.261 . S
C353 O362 1.247 . S
C353 O363 1.272 . S
O354 Co350 2.004 . S
O354 C359 1.259 . S
Co355 O356 2.061 . S
Co355 O361 2.052 . S
Co355 O363 2.135 . S
O356 Co355 2.061 . S
O356 C359 1.235 . S
C357 O360 1.238 . S
C357 O361 1.241 . S
C358 O351 1.247 . S
C358 O352 1.261 . S
C359 O354 1.259 . S
C359 O356 1.235 . S
O360 Co350 2.021 . S
O360 C357 1.238 . S
O361 Co355 2.052 . S
O361 C357 1.241 . S
O362 Co350 2.137 . S
O362 C353 1.247 . S
O363 Co350 2.244 . S
O363 C353 1.272 . S
O363 Co355 2.135 . S
Co364 O365 2.216 . S
Co364 O366 2.091 . S
Co364 O368 2.004 . S
Co364 O374 2.021 . S
Co364 O376 2.137 . S
Co364 O377 2.244 . S
O365 Co364 2.216 . S
O365 C372 1.247 . S
O366 Co364 2.091 . S
O366 C372 1.261 . S
C367 O376 1.247 . S
C367 O377 1.272 . S
O368 Co364 2.004 . S
O368 C373 1.259 . S
Co369 O370 2.061 . S
Co369 O375 2.052 . S
Co369 O377 2.135 . S
O370 Co369 2.061 . S
O370 C373 1.235 . S
C371 O374 1.238 . S
C371 O375 1.241 . S
C372 O365 1.247 . S
C372 O366 1.261 . S
C373 O368 1.259 . S
C373 O370 1.235 . S
O374 Co364 2.021 . S
O374 C371 1.238 . S
O375 Co369 2.052 . S
O375 C371 1.241 . S
O376 Co364 2.137 . S
O376 C367 1.247 . S
O377 Co364 2.244 . S
O377 C367 1.272 . S
O377 Co369 2.135 . S
Co378 O379 2.216 . S
Co378 O380 2.091 . S
Co378 O382 2.004 . S
Co378 O388 2.021 . S
Co378 O390 2.137 . S
Co378 O391 2.244 . S
O379 Co378 2.216 . S
O379 C386 1.247 . S
O380 Co378 2.091 . S
O380 C386 1.261 . S
C381 O390 1.247 . S
C381 O391 1.272 . S
O382 Co378 2.004 . S
O382 C387 1.259 . S
Co383 O384 2.061 . S
Co383 O389 2.052 . S
Co383 O391 2.135 . S
O384 Co383 2.061 . S
O384 C387 1.235 . S
C385 O388 1.238 . S
C385 O389 1.241 . S
C386 O379 1.247 . S
C386 O380 1.261 . S
C387 O382 1.259 . S
C387 O384 1.235 . S
O388 Co378 2.021 . S
O388 C385 1.238 . S
O389 Co383 2.052 . S
O389 C385 1.241 . S
O390 Co378 2.137 . S
O390 C381 1.247 . S
O391 Co378 2.244 . S
O391 C381 1.272 . S
O391 Co383 2.135 . S
Co392 O393 2.216 . S
Co392 O394 2.091 . S
Co392 O396 2.004 . S
Co392 O402 2.021 . S
Co392 O404 2.137 . S
Co392 O405 2.244 . S
O393 Co392 2.216 . S
O393 C400 1.247 . S
O394 Co392 2.091 . S
O394 C400 1.261 . S
C395 O404 1.247 . S
C395 O405 1.272 . S
O396 Co392 2.004 . S
O396 C401 1.259 . S
Co397 O398 2.061 . S
Co397 O403 2.052 . S
Co397 O405 2.135 . S
O398 Co397 2.061 . S
O398 C401 1.235 . S
C399 O402 1.238 . S
C399 O403 1.241 . S
C400 O393 1.247 . S
C400 O394 1.261 . S
C401 O396 1.259 . S
C401 O398 1.235 . S
O402 Co392 2.021 . S
O402 C399 1.238 . S
O403 Co397 2.052 . S
O403 C399 1.241 . S
O404 Co392 2.137 . S
O404 C395 1.247 . S
O405 Co392 2.244 . S
O405 C395 1.272 . S
O405 Co397 2.135 . S
Co406 O407 2.216 . S
Co406 O408 2.091 . S
Co406 O410 2.004 . S
Co406 O416 2.021 . S
Co406 O418 2.137 . S
Co406 O419 2.244 . S
O407 Co406 2.216 . S
O407 C414 1.247 . S
O408 Co406 2.091 . S
O408 C414 1.261 . S
C409 O418 1.247 . S
C409 O419 1.272 . S
O410 Co406 2.004 . S
O410 C415 1.259 . S
Co411 O412 2.061 . S
Co411 O417 2.052 . S
Co411 O419 2.135 . S
O412 Co411 2.061 . S
O412 C415 1.235 . S
C413 O416 1.238 . S
C413 O417 1.241 . S
C414 O407 1.247 . S
C414 O408 1.261 . S
C415 O410 1.259 . S
C415 O412 1.235 . S
O416 Co406 2.021 . S
O416 C413 1.238 . S
O417 Co411 2.052 . S
O417 C413 1.241 . S
O418 Co406 2.137 . S
O418 C409 1.247 . S
O419 Co406 2.244 . S
O419 C409 1.272 . S
O419 Co411 2.135 . S
Co420 O421 2.216 . S
Co420 O422 2.091 . S
Co420 O424 2.004 . S
Co420 O430 2.021 . S
Co420 O432 2.137 . S
Co420 O433 2.244 . S
O421 Co420 2.216 . S
O421 C428 1.247 . S
O422 Co420 2.091 . S
O422 C428 1.261 . S
C423 O432 1.247 . S
C423 O433 1.272 . S
O424 Co420 2.004 . S
O424 C429 1.259 . S
Co425 O426 2.061 . S
Co425 O431 2.052 . S
Co425 O433 2.135 . S
O426 Co425 2.061 . S
O426 C429 1.235 . S
C427 O430 1.238 . S
C427 O431 1.241 . S
C428 O421 1.247 . S
C428 O422 1.261 . S
C429 O424 1.259 . S
C429 O426 1.235 . S
O430 Co420 2.021 . S
O430 C427 1.238 . S
O431 Co425 2.052 . S
O431 C427 1.241 . S
O432 Co420 2.137 . S
O432 C423 1.247 . S
O433 Co420 2.244 . S
O433 C423 1.272 . S
O433 Co425 2.135 . S
Co434 O435 2.216 . S
Co434 O436 2.091 . S
Co434 O438 2.004 . S
Co434 O444 2.021 . S
Co434 O446 2.137 . S
Co434 O447 2.244 . S
O435 Co434 2.216 . S
O435 C442 1.247 . S
O436 Co434 2.091 . S
O436 C442 1.261 . S
C437 O446 1.247 . S
C437 O447 1.272 . S
O438 Co434 2.004 . S
O438 C443 1.259 . S
Co439 O440 2.061 . S
Co439 O445 2.052 . S
Co439 O447 2.135 . S
O440 Co439 2.061 . S
O440 C443 1.235 . S
C441 O444 1.238 . S
C441 O445 1.241 . S
C442 O435 1.247 . S
C442 O436 1.261 . S
C443 O438 1.259 . S
C443 O440 1.235 . S
O444 Co434 2.021 . S
O444 C441 1.238 . S
O445 Co439 2.052 . S
O445 C441 1.241 . S
O446 Co434 2.137 . S
O446 C437 1.247 . S
O447 Co434 2.244 . S
O447 C437 1.272 . S
O447 Co439 2.135 . S
Co448 O449 2.216 . S
Co448 O450 2.091 . S
Co448 O452 2.004 . S
Co448 O458 2.021 . S
Co448 O460 2.137 . S
Co448 O461 2.244 . S
O449 Co448 2.216 . S
O449 C456 1.247 . S
O450 Co448 2.091 . S
O450 C456 1.261 . S
C451 O460 1.247 . S
C451 O461 1.272 . S
O452 Co448 2.004 . S
O452 C457 1.259 . S
Co453 O454 2.061 . S
Co453 O459 2.052 . S
Co453 O461 2.135 . S
O454 Co453 2.061 . S
O454 C457 1.235 . S
C455 O458 1.238 . S
C455 O459 1.241 . S
C456 O449 1.247 . S
C456 O450 1.261 . S
C457 O452 1.259 . S
C457 O454 1.235 . S
O458 Co448 2.021 . S
O458 C455 1.238 . S
O459 Co453 2.052 . S
O459 C455 1.241 . S
O460 Co448 2.137 . S
O460 C451 1.247 . S
O461 Co448 2.244 . S
O461 C451 1.272 . S
O461 Co453 2.135 . S
Co462 O463 2.216 . S
Co462 O464 2.091 . S
Co462 O466 2.004 . S
Co462 O472 2.021 . S
Co462 O474 2.137 . S
Co462 O475 2.244 . S
O463 Co462 2.216 . S
O463 C470 1.247 . S
O464 Co462 2.091 . S
O464 C470 1.261 . S
C465 O474 1.247 . S
C465 O475 1.272 . S
O466 Co462 2.004 . S
O466 C471 1.259 . S
Co467 O468 2.061 . S
Co467 O473 2.052 . S
Co467 O475 2.135 . S
O468 Co467 2.061 . S
O468 C471 1.235 . S
C469 O472 1.238 . S
C469 O473 1.241 . S
C470 O463 1.247 . S
C470 O464 1.261 . S
C471 O466 1.259 . S
C471 O468 1.235 . S
O472 Co462 2.021 . S
O472 C469 1.238 . S
O473 Co467 2.052 . S
O473 C469 1.241 . S
O474 Co462 2.137 . S
O474 C465 1.247 . S
O475 Co462 2.244 . S
O475 C465 1.272 . S
O475 Co467 2.135 . S
Co476 O477 2.216 . S
Co476 O478 2.091 . S
Co476 O480 2.004 . S
Co476 O486 2.021 . S
Co476 O488 2.137 . S
Co476 O489 2.244 . S
O477 Co476 2.216 . S
O477 C484 1.247 . S
O478 Co476 2.091 . S
O478 C484 1.261 . S
C479 O488 1.247 . S
C479 O489 1.272 . S
O480 Co476 2.004 . S
O480 C485 1.259 . S
Co481 O482 2.061 . S
Co481 O487 2.052 . S
Co481 O489 2.135 . S
O482 Co481 2.061 . S
O482 C485 1.235 . S
C483 O486 1.238 . S
C483 O487 1.241 . S
C484 O477 1.247 . S
C484 O478 1.261 . S
C485 O480 1.259 . S
C485 O482 1.235 . S
O486 Co476 2.021 . S
O486 C483 1.238 . S
O487 Co481 2.052 . S
O487 C483 1.241 . S
O488 Co476 2.137 . S
O488 C479 1.247 . S
O489 Co476 2.244 . S
O489 C479 1.272 . S
O489 Co481 2.135 . S
Co490 O491 2.216 . S
Co490 O492 2.091 . S
Co490 O494 2.004 . S
Co490 O500 2.021 . S
Co490 O502 2.137 . S
Co490 O503 2.244 . S
O491 Co490 2.216 . S
O491 C498 1.247 . S
O492 Co490 2.091 . S
O492 C498 1.261 . S
C493 O502 1.247 . S
C493 O503 1.272 . S
O494 Co490 2.004 . S
O494 C499 1.259 . S
Co495 O496 2.061 . S
Co495 O501 2.052 . S
Co495 O503 2.135 . S
O496 Co495 2.061 . S
O496 C499 1.235 . S
C497 O500 1.238 . S
C497 O501 1.241 . S
C498 O491 1.247 . S
C498 O492 1.261 . S
C499 O494 1.259 . S
C499 O496 1.235 . S
O500 Co490 2.021 . S
O500 C497 1.238 . S
O501 Co495 2.052 . S
O501 C497 1.241 . S
O502 Co490 2.137 . S
O502 C493 1.247 . S
O503 Co490 2.244 . S
O503 C493 1.272 . S
O503 Co495 2.135 . S
Co504 O505 2.216 . S
Co504 O506 2.091 . S
Co504 O508 2.004 . S
Co504 O514 2.021 . S
Co504 O516 2.137 . S
Co504 O517 2.244 . S
O505 Co504 2.216 . S
O505 C512 1.247 . S
O506 Co504 2.091 . S
O506 C512 1.261 . S
C507 O516 1.247 . S
C507 O517 1.272 . S
O508 Co504 2.004 . S
O508 C513 1.259 . S
Co509 O510 2.061 . S
Co509 O515 2.052 . S
Co509 O517 2.135 . S
O510 Co509 2.061 . S
O510 C513 1.235 . S
C511 O514 1.238 . S
C511 O515 1.241 . S
C512 O505 1.247 . S
C512 O506 1.261 . S
C513 O508 1.259 . S
C513 O510 1.235 . S
O514 Co504 2.021 . S
O514 C511 1.238 . S
O515 Co509 2.052 . S
O515 C511 1.241 . S
O516 Co504 2.137 . S
O516 C507 1.247 . S
O517 Co504 2.244 . S
O517 C507 1.272 . S
O517 Co509 2.135 . S
Co518 O519 2.216 . S
Co518 O520 2.091 . S
Co518 O522 2.004 . S
Co518 O528 2.021 . S
Co518 O530 2.137 . S
Co518 O531 2.244 . S
O519 Co518 2.216 . S
O519 C526 1.247 . S
O520 Co518 2.091 . S
O520 C526 1.261 . S
C521 O530 1.247 . S
C521 O531 1.272 . S
O522 Co518 2.004 . S
O522 C527 1.259 . S
Co523 O524 2.061 . S
Co523 O529 2.052 . S
Co523 O531 2.135 . S
O524 Co523 2.061 . S
O524 C527 1.235 . S
C525 O528 1.238 . S
C525 O529 1.241 . S
C526 O519 1.247 . S
C526 O520 1.261 . S
C527 O522 1.259 . S
C527 O524 1.235 . S
O528 Co518 2.021 . S
O528 C525 1.238 . S
O529 Co523 2.052 . S
O529 C525 1.241 . S
O530 Co518 2.137 . S
O530 C521 1.247 . S
O531 Co518 2.244 . S
O531 C521 1.272 . S
O531 Co523 2.135 . S
Co532 O533 2.216 . S
Co532 O534 2.091 . S
Co532 O536 2.004 . S
Co532 O542 2.021 . S
Co532 O544 2.137 . S
Co532 O545 2.244 . S
O533 Co532 2.216 . S
O533 C540 1.247 . S
O534 Co532 2.091 . S
O534 C540 1.261 . S
C535 O544 1.247 . S
C535 O545 1.272 . S
O536 Co532 2.004 . S
O536 C541 1.259 . S
Co537 O538 2.061 . S
Co537 O543 2.052 . S
Co537 O545 2.135 . S
O538 Co537 2.061 . S
O538 C541 1.235 . S
C539 O542 1.238 . S
C539 O543 1.241 . S
C540 O533 1.247 . S
C540 O534 1.261 . S
C541 O536 1.259 . S
C541 O538 1.235 . S
O542 Co532 2.021 . S
O542 C539 1.238 . S
O543 Co537 2.052 . S
O543 C539 1.241 . S
O544 Co532 2.137 . S
O544 C535 1.247 . S
O545 Co532 2.244 . S
O545 C535 1.272 . S
O545 Co537 2.135 . S
Co546 O547 2.216 . S
Co546 O548 2.091 . S
Co546 O550 2.004 . S
Co546 O556 2.021 . S
Co546 O558 2.137 . S
Co546 O559 2.244 . S
O547 Co546 2.216 . S
O547 C554 1.247 . S
O548 Co546 2.091 . S
O548 C554 1.261 . S
C549 O558 1.247 . S
C549 O559 1.272 . S
O550 Co546 2.004 . S
O550 C555 1.259 . S
Co551 O552 2.061 . S
Co551 O557 2.052 . S
Co551 O559 2.135 . S
O552 Co551 2.061 . S
O552 C555 1.235 . S
C553 O556 1.238 . S
C553 O557 1.241 . S
C554 O547 1.247 . S
C554 O548 1.261 . S
C555 O550 1.259 . S
C555 O552 1.235 . S
O556 Co546 2.021 . S
O556 C553 1.238 . S
O557 Co551 2.052 . S
O557 C553 1.241 . S
O558 Co546 2.137 . S
O558 C549 1.247 . S
O559 Co546 2.244 . S
O559 C549 1.272 . S
O559 Co551 2.135 . S
Co560 O561 2.216 . S
Co560 O562 2.091 . S
Co560 O564 2.004 . S
Co560 O570 2.021 . S
Co560 O572 2.137 . S
Co560 O573 2.244 . S
O561 Co560 2.216 . S
O561 C568 1.247 . S
O562 Co560 2.091 . S
O562 C568 1.261 . S
C563 O572 1.247 . S
C563 O573 1.272 . S
O564 Co560 2.004 . S
O564 C569 1.259 . S
Co565 O566 2.061 . S
Co565 O571 2.052 . S
Co565 O573 2.135 . S
O566 Co565 2.061 . S
O566 C569 1.235 . S
C567 O570 1.238 . S
C567 O571 1.241 . S
C568 O561 1.247 . S
C568 O562 1.261 . S
C569 O564 1.259 . S
C569 O566 1.235 . S
O570 Co560 2.021 . S
O570 C567 1.238 . S
O571 Co565 2.052 . S
O571 C567 1.241 . S
O572 Co560 2.137 . S
O572 C563 1.247 . S
O573 Co560 2.244 . S
O573 C563 1.272 . S
O573 Co565 2.135 . S
Co574 O575 2.216 . S
Co574 O576 2.091 . S
Co574 O578 2.004 . S
Co574 O584 2.021 . S
Co574 O586 2.137 . S
Co574 O587 2.244 . S
O575 Co574 2.216 . S
O575 C582 1.247 . S
O576 Co574 2.091 . S
O576 C582 1.261 . S
C577 O586 1.247 . S
C577 O587 1.272 . S
O578 Co574 2.004 . S
O578 C583 1.259 . S
Co579 O580 2.061 . S
Co579 O585 2.052 . S
Co579 O587 2.135 . S
O580 Co579 2.061 . S
O580 C583 1.235 . S
C581 O584 1.238 . S
C581 O585 1.241 . S
C582 O575 1.247 . S
C582 O576 1.261 . S
C583 O578 1.259 . S
C583 O580 1.235 . S
O584 Co574 2.021 . S
O584 C581 1.238 . S
O585 Co579 2.052 . S
O585 C581 1.241 . S
O586 Co574 2.137 . S
O586 C577 1.247 . S
O587 Co574 2.244 . S
O587 C577 1.272 . S
O587 Co579 2.135 . S
Co588 O589 2.216 . S
Co588 O590 2.091 . S
Co588 O592 2.004 . S
Co588 O598 2.021 . S
Co588 O600 2.137 . S
Co588 O601 2.244 . S
O589 Co588 2.216 . S
O589 C596 1.247 . S
O590 Co588 2.091 . S
O590 C596 1.261 . S
C591 O600 1.247 . S
C591 O601 1.272 . S
O592 Co588 2.004 . S
O592 C597 1.259 . S
Co593 O594 2.061 . S
Co593 O599 2.052 . S
Co593 O601 2.135 . S
O594 Co593 2.061 . S
O594 C597 1.235 . S
C595 O598 1.238 . S
C595 O599 1.241 . S
C596 O589 1.247 . S
C596 O590 1.261 . S
C597 O592 1.259 . S
C597 O594 1.235 . S
O598 Co588 2.021 . S
O598 C595 1.238 . S
O599 Co593 2.052 . S
O599 C595 1.241 . S
O600 Co588 2.137 . S
O600 C591 1.247 . S
O601 Co588 2.244 . S
O601 C591 1.272 . S
O601 Co593 2.135 . S
Co602 O603 2.216 . S
Co602 O604 2.091 . S
Co602 O606 2.004 . S
Co602 O612 2.021 . S
Co602 O614 2.137 . S
Co602 O615 2.244 . S
O603 Co602 2.216 . S
O603 C610 1.247 . S
O604 Co602 2.091 . S
O604 C610 1.261 . S
C605 O614 1.247 . S
C605 O615 1.272 . S
O606 Co602 2.004 . S
O606 C611 1.259 . S
Co607 O608 2.061 . S
Co607 O613 2.052 . S
Co607 O615 2.135 . S
O608 Co607 2.061 . S
O608 C611 1.235 . S
C609 O612 1.238 . S
C609 O613 1.241 . S
C610 O603 1.247 . S
C610 O604 1.261 . S
C611 O606 1.259 . S
C611 O608 1.235 . S
O612 Co602 2.021 . S
O612 C609 1.238 . S
O613 Co607 2.052 . S
O613 C609 1.241 . S
O614 Co602 2.137 . S
O614 C605 1.247 . S
O615 Co602 2.244 . S
O615 C605 1.272 . S
O615 Co607 2.135 . S
Co616 O617 2.216 . S
Co616 O618 2.091 . S
Co616 O620 2.004 . S
Co616 O626 2.021 . S
Co616 O628 2.137 . S
Co616 O629 2.244 . S
O617 Co616 2.216 . S
O617 C624 1.247 . S
O618 Co616 2.091 . S
O618 C624 1.261 . S
C619 O628 1.247 . S
C619 O629 1.272 . S
O620 Co616 2.004 . S
O620 C625 1.259 . S
Co621 O622 2.061 . S
Co621 O627 2.052 . S
Co621 O629 2.135 . S
O622 Co621 2.061 . S
O622 C625 1.235 . S
C623 O626 1.238 . S
C623 O627 1.241 . S
C624 O617 1.247 . S
C624 O618 1.261 . S
C625 O620 1.259 . S
C625 O622 1.235 . S
O626 Co616 2.021 . S
O626 C623 1.238 . S
O627 Co621 2.052 . S
O627 C623 1.241 . S
O628 Co616 2.137 . S
O628 C619 1.247 . S
O629 Co616 2.244 . S
O629 C619 1.272 . S
O629 Co621 2.135 . S
Co630 O631 2.216 . S
Co630 O632 2.091 . S
Co630 O634 2.004 . S
Co630 O640 2.021 . S
Co630 O642 2.137 . S
Co630 O643 2.244 . S
O631 Co630 2.216 . S
O631 C638 1.247 . S
O632 Co630 2.091 . S
O632 C638 1.261 . S
C633 O642 1.247 . S
C633 O643 1.272 . S
O634 Co630 2.004 . S
O634 C639 1.259 . S
Co635 O636 2.061 . S
Co635 O641 2.052 . S
Co635 O643 2.135 . S
O636 Co635 2.061 . S
O636 C639 1.235 . S
C637 O640 1.238 . S
C637 O641 1.241 . S
C638 O631 1.247 . S
C638 O632 1.261 . S
C639 O634 1.259 . S
C639 O636 1.235 . S
O640 Co630 2.021 . S
O640 C637 1.238 . S
O641 Co635 2.052 . S
O641 C637 1.241 . S
O642 Co630 2.137 . S
O642 C633 1.247 . S
O643 Co630 2.244 . S
O643 C633 1.272 . S
O643 Co635 2.135 . S
Co644 O645 2.216 . S
Co644 O646 2.091 . S
Co644 O648 2.004 . S
Co644 O654 2.021 . S
Co644 O656 2.137 . S
Co644 O657 2.244 . S
O645 Co644 2.216 . S
O645 C652 1.247 . S
O646 Co644 2.091 . S
O646 C652 1.261 . S
C647 O656 1.247 . S
C647 O657 1.272 . S
O648 Co644 2.004 . S
O648 C653 1.259 . S
Co649 O650 2.061 . S
Co649 O655 2.052 . S
Co649 O657 2.135 . S
O650 Co649 2.061 . S
O650 C653 1.235 . S
C651 O654 1.238 . S
C651 O655 1.241 . S
C652 O645 1.247 . S
C652 O646 1.261 . S
C653 O648 1.259 . S
C653 O650 1.235 . S
O654 Co644 2.021 . S
O654 C651 1.238 . S
O655 Co649 2.052 . S
O655 C651 1.241 . S
O656 Co644 2.137 . S
O656 C647 1.247 . S
O657 Co644 2.244 . S
O657 C647 1.272 . S
O657 Co649 2.135 . S
Co658 O659 2.216 . S
Co658 O660 2.091 . S
Co658 O662 2.004 . S
Co658 O668 2.021 . S
Co658 O670 2.137 . S
Co658 O671 2.244 . S
O659 Co658 2.216 . S
O659 C666 1.247 . S
O660 Co658 2.091 . S
O660 C666 1.261 . S
C661 O670 1.247 . S
C661 O671 1.272 . S
O662 Co658 2.004 . S
O662 C667 1.259 . S
Co663 O664 2.061 . S
Co663 O669 2.052 . S
Co663 O671 2.135 . S
O664 Co663 2.061 . S
O664 C667 1.235 . S
C665 O668 1.238 . S
C665 O669 1.241 . S
C666 O659 1.247 . S
C666 O660 1.261 . S
C667 O662 1.259 . S
C667 O664 1.235 . S
O668 Co658 2.021 . S
O668 C665 1.238 . S
O669 Co663 2.052 . S
O669 C665 1.241 . S
O670 Co658 2.137 . S
O670 C661 1.247 . S
O671 Co658 2.244 . S
O671 C661 1.272 . S
O671 Co663 2.135 . S
C672 C673 1.391 . S
C672 C674 1.394 . S
C672 H688 0.931 . S
C673 C672 1.391 . S
C673 C677 1.376 . S
C674 C672 1.394 . S
C674 C675 1.369 . S
C674 C678 1.531 1_655 S
C675 C674 1.369 . S
C675 C676 1.410 . S
C675 C683 1.503 1_655 S
C676 C675 1.410 . S
C676 C677 1.392 . S
C676 C679 1.511 . S
C677 C673 1.376 . S
C677 C676 1.392 . S
C677 H689 0.929 . S
C678 C674 1.531 1_455 S
C678 H690 0.960 . S
C678 H691 0.962 . S
C678 H692 0.960 . S
C679 C676 1.511 . S
C679 H693 0.961 . S
C679 H694 0.961 . S
C679 H695 0.961 . S
C680 C681 1.370 . S
C680 C682 1.363 . S
C680 H696 0.931 . S
C681 C680 1.370 . S
C681 C685 1.408 . S
C682 C680 1.363 . S
C682 C683 1.370 . S
C682 C686 1.524 1_455 S
C683 C675 1.503 1_455 S
C683 C682 1.370 . S
C683 C684 1.403 . S
C684 C683 1.403 . S
C684 C685 1.404 . S
C684 C687 1.539 . S
C685 C681 1.408 . S
C685 C684 1.404 . S
C685 H697 0.930 . S
C686 C682 1.524 1_655 S
C686 H698 0.956 . S
C686 H699 0.961 . S
C686 H700 0.961 . S
C687 C684 1.539 . S
C687 H701 0.958 . S
C687 H702 0.961 . S
C687 H703 0.960 . S
H688 C672 0.931 . S
H689 C677 0.929 . S
H690 C678 0.960 . S
H691 C678 0.962 . S
H692 C678 0.960 . S
H693 C679 0.961 . S
H694 C679 0.961 . S
H695 C679 0.961 . S
H696 C680 0.931 . S
H697 C685 0.930 . S
H698 C686 0.956 . S
H699 C686 0.961 . S
H700 C686 0.961 . S
H701 C687 0.958 . S
H702 C687 0.961 . S
H703 C687 0.960 . S
C704 C705 1.391 . S
C704 C706 1.394 . S
C704 H720 0.931 . S
C705 C704 1.391 . S
C705 C709 1.376 . S
C706 C704 1.394 . S
C706 C707 1.369 . S
C706 C710 1.531 1_565 S
C707 C706 1.369 . S
C707 C708 1.410 . S
C707 C715 1.503 1_565 S
C708 C707 1.410 . S
C708 C709 1.392 . S
C708 C711 1.511 . S
C709 C705 1.376 . S
C709 C708 1.392 . S
C709 H721 0.929 . S
C710 C706 1.531 1_545 S
C710 H722 0.960 . S
C710 H723 0.962 . S
C710 H724 0.960 . S
C711 C708 1.511 . S
C711 H725 0.961 . S
C711 H726 0.961 . S
C711 H727 0.961 . S
C712 C713 1.370 . S
C712 C714 1.363 . S
C712 H728 0.931 . S
C713 C712 1.370 . S
C713 C717 1.408 . S
C714 C712 1.363 . S
C714 C715 1.370 . S
C714 C718 1.524 . S
C715 C707 1.503 1_545 S
C715 C714 1.370 . S
C715 C716 1.403 . S
C716 C715 1.403 . S
C716 C717 1.404 . S
C716 C719 1.539 . S
C717 C713 1.408 . S
C717 C716 1.404 . S
C717 H729 0.930 . S
C718 C714 1.524 . S
C718 H730 0.956 . S
C718 H731 0.961 1_545 S
C718 H732 0.961 . S
C719 C716 1.539 . S
C719 H733 0.958 . S
C719 H734 0.961 . S
C719 H735 0.960 1_545 S
H720 C704 0.931 . S
H721 C709 0.929 . S
H722 C710 0.960 . S
H723 C710 0.962 . S
H724 C710 0.960 . S
H725 C711 0.961 . S
H726 C711 0.961 . S
H727 C711 0.961 . S
H728 C712 0.931 . S
H729 C717 0.930 . S
H730 C718 0.956 . S
H731 C718 0.961 1_565 S
H732 C718 0.961 . S
H733 C719 0.958 . S
H734 C719 0.961 . S
H735 C719 0.960 1_565 S
C736 C737 1.391 . S
C736 C738 1.394 . S
C736 H752 0.931 . S
C737 C736 1.391 . S
C737 C741 1.376 . S
C738 C736 1.394 . S
C738 C739 1.369 . S
C738 C742 1.531 1_455 S
C739 C738 1.369 . S
C739 C740 1.410 . S
C739 C747 1.503 1_455 S
C740 C739 1.410 . S
C740 C741 1.392 . S
C740 C743 1.511 . S
C741 C737 1.376 . S
C741 C740 1.392 . S
C741 H753 0.929 . S
C742 C738 1.531 1_655 S
C742 H754 0.960 . S
C742 H755 0.962 . S
C742 H756 0.960 . S
C743 C740 1.511 . S
C743 H757 0.961 . S
C743 H758 0.961 . S
C743 H759 0.961 . S
C744 C745 1.370 . S
C744 C746 1.363 . S
C744 H760 0.931 . S
C745 C744 1.370 . S
C745 C749 1.408 . S
C746 C744 1.363 . S
C746 C747 1.370 . S
C746 C750 1.524 . S
C747 C739 1.503 1_655 S
C747 C746 1.370 . S
C747 C748 1.403 . S
C748 C747 1.403 . S
C748 C749 1.404 . S
C748 C751 1.539 . S
C749 C745 1.408 . S
C749 C748 1.404 . S
C749 H761 0.930 . S
C750 C746 1.524 . S
C750 H762 0.956 . S
C750 H763 0.961 1_655 S
C750 H764 0.961 . S
C751 C748 1.539 . S
C751 H765 0.958 . S
C751 H766 0.961 . S
C751 H767 0.960 1_655 S
H752 C736 0.931 . S
H753 C741 0.929 . S
H754 C742 0.960 . S
H755 C742 0.962 . S
H756 C742 0.960 . S
H757 C743 0.961 . S
H758 C743 0.961 . S
H759 C743 0.961 . S
H760 C744 0.931 . S
H761 C749 0.930 . S
H762 C750 0.956 . S
H763 C750 0.961 1_455 S
H764 C750 0.961 . S
H765 C751 0.958 . S
H766 C751 0.961 . S
H767 C751 0.960 1_455 S
C768 C769 1.391 . S
C768 C770 1.394 . S
C768 H784 0.931 . S
C769 C768 1.391 . S
C769 C773 1.376 . S
C770 C768 1.394 . S
C770 C771 1.369 . S
C770 C774 1.531 1_565 S
C771 C770 1.369 . S
C771 C772 1.410 . S
C771 C779 1.503 1_565 S
C772 C771 1.410 . S
C772 C773 1.392 . S
C772 C775 1.511 . S
C773 C769 1.376 . S
C773 C772 1.392 . S
C773 H785 0.929 . S
C774 C770 1.531 1_545 S
C774 H786 0.960 . S
C774 H787 0.962 . S
C774 H788 0.960 . S
C775 C772 1.511 . S
C775 H789 0.961 . S
C775 H790 0.961 . S
C775 H791 0.961 . S
C776 C777 1.370 . S
C776 C778 1.363 . S
C776 H792 0.931 . S
C777 C776 1.370 . S
C777 C781 1.408 . S
C778 C776 1.363 . S
C778 C779 1.370 . S
C778 C782 1.524 1_545 S
C779 C771 1.503 1_545 S
C779 C778 1.370 . S
C779 C780 1.403 . S
C780 C779 1.403 . S
C780 C781 1.404 . S
C780 C783 1.539 . S
C781 C777 1.408 . S
C781 C780 1.404 . S
C781 H793 0.930 . S
C782 C778 1.524 1_565 S
C782 H794 0.956 . S
C782 H795 0.961 . S
C782 H796 0.961 . S
C783 C780 1.539 . S
C783 H797 0.958 . S
C783 H798 0.961 . S
C783 H799 0.960 . S
H784 C768 0.931 . S
H785 C773 0.929 . S
H786 C774 0.960 . S
H787 C774 0.962 . S
H788 C774 0.960 . S
H789 C775 0.961 . S
H790 C775 0.961 . S
H791 C775 0.961 . S
H792 C776 0.931 . S
H793 C781 0.930 . S
H794 C782 0.956 . S
H795 C782 0.961 . S
H796 C782 0.961 . S
H797 C783 0.958 . S
H798 C783 0.961 . S
H799 C783 0.960 . S
C800 C801 1.391 . S
C800 C802 1.394 . S
C800 H816 0.931 . S
C801 C800 1.391 . S
C801 C805 1.376 . S
C802 C800 1.394 . S
C802 C803 1.369 . S
C802 C806 1.531 1_655 S
C803 C802 1.369 . S
C803 C804 1.410 . S
C803 C811 1.503 1_655 S
C804 C803 1.410 . S
C804 C805 1.392 . S
C804 C807 1.511 . S
C805 C801 1.376 . S
C805 C804 1.392 . S
C805 H817 0.929 . S
C806 C802 1.531 1_455 S
C806 H818 0.960 . S
C806 H819 0.962 . S
C806 H820 0.960 . S
C807 C804 1.511 . S
C807 H821 0.961 . S
C807 H822 0.961 . S
C807 H823 0.961 . S
C808 C809 1.370 . S
C808 C810 1.363 . S
C808 H824 0.931 . S
C809 C808 1.370 . S
C809 C813 1.408 . S
C810 C808 1.363 . S
C810 C811 1.370 . S
C810 C814 1.524 1_455 S
C811 C803 1.503 1_455 S
C811 C810 1.370 . S
C811 C812 1.403 . S
C812 C811 1.403 . S
C812 C813 1.404 . S
C812 C815 1.539 . S
C813 C809 1.408 . S
C813 C812 1.404 . S
C813 H825 0.930 . S
C814 C810 1.524 1_655 S
C814 H826 0.962 . S
C814 H827 0.961 . S
C814 H828 0.968 . S
C815 C812 1.539 . S
C815 H829 0.958 . S
C815 H830 0.961 . S
C815 H831 0.960 . S
H816 C800 0.931 . S
H817 C805 0.929 . S
H818 C806 0.960 . S
H819 C806 0.962 . S
H820 C806 0.960 . S
H821 C807 0.961 . S
H822 C807 0.961 . S
H823 C807 0.961 . S
H824 C808 0.931 . S
H825 C813 0.930 . S
H826 C814 0.962 . S
H827 C814 0.961 . S
H828 C814 0.968 . S
H829 C815 0.958 . S
H830 C815 0.961 . S
H831 C815 0.960 . S
C832 C833 1.391 . S
C832 C834 1.394 . S
C832 H848 0.931 . S
C833 C832 1.391 . S
C833 C837 1.376 . S
C834 C832 1.394 . S
C834 C835 1.369 . S
C834 C838 1.531 . S
C835 C834 1.369 . S
C835 C836 1.410 . S
C835 C843 1.503 1_545 S
C836 C835 1.410 . S
C836 C837 1.392 . S
C836 C839 1.511 . S
C837 C833 1.376 . S
C837 C836 1.392 . S
C837 H849 0.929 . S
C838 C834 1.531 . S
C838 H850 0.960 . S
C838 H851 0.962 . S
C838 H852 0.960 . S
C839 C836 1.511 . S
C839 H853 0.961 . S
C839 H854 0.961 1_545 S
C839 H855 0.961 . S
C840 C841 1.370 . S
C840 C842 1.363 . S
C840 H856 0.931 . S
C841 C840 1.370 . S
C841 C845 1.408 . S
C842 C840 1.363 . S
C842 C843 1.370 . S
C842 C846 1.524 . S
C843 C835 1.503 1_565 S
C843 C842 1.370 . S
C843 C844 1.403 . S
C844 C843 1.403 . S
C844 C845 1.404 . S
C844 C847 1.539 1_565 S
C845 C841 1.408 . S
C845 C844 1.404 . S
C845 H857 0.930 . S
C846 C842 1.524 . S
C846 H858 0.956 . S
C846 H859 0.961 . S
C846 H860 0.961 . S
C847 C844 1.539 1_545 S
C847 H861 0.958 . S
C847 H862 0.961 . S
C847 H863 0.960 . S
H848 C832 0.931 . S
H849 C837 0.929 . S
H850 C838 0.960 . S
H851 C838 0.962 . S
H852 C838 0.960 . S
H853 C839 0.961 . S
H854 C839 0.961 1_565 S
H855 C839 0.961 . S
H856 C840 0.931 . S
H857 C845 0.930 . S
H858 C846 0.956 . S
H859 C846 0.961 . S
H860 C846 0.961 . S
H861 C847 0.958 . S
H862 C847 0.961 . S
H863 C847 0.960 . S
C864 C865 1.391 . S
C864 C866 1.394 . S
C864 H880 0.931 . S
C865 C864 1.391 . S
C865 C869 1.376 . S
C866 C864 1.394 . S
C866 C867 1.369 . S
C866 C870 1.531 . S
C867 C866 1.369 . S
C867 C868 1.410 . S
C867 C875 1.503 1_455 S
C868 C867 1.410 . S
C868 C869 1.392 . S
C868 C871 1.511 1_455 S
C869 C865 1.376 . S
C869 C868 1.392 . S
C869 H881 0.929 . S
C870 C866 1.531 . S
C870 H882 0.960 . S
C870 H883 0.962 . S
C870 H884 0.960 . S
C871 C868 1.511 1_655 S
C871 H885 0.961 . S
C871 H886 0.961 . S
C871 H887 0.961 . S
C872 C873 1.370 . S
C872 C874 1.363 . S
C872 H888 0.931 . S
C873 C872 1.370 . S
C873 C877 1.408 . S
C874 C872 1.363 . S
C874 C875 1.370 . S
C874 C878 1.524 . S
C875 C867 1.503 1_655 S
C875 C874 1.370 . S
C875 C876 1.403 . S
C876 C875 1.403 . S
C876 C877 1.404 . S
C876 C879 1.539 . S
C877 C873 1.408 . S
C877 C876 1.404 . S
C877 H889 0.930 . S
C878 C874 1.524 . S
C878 H890 0.956 1_655 S
C878 H891 0.961 . S
C878 H892 0.961 . S
C879 C876 1.539 . S
C879 H893 0.958 . S
C879 H894 0.961 . S
C879 H895 0.960 . S
H880 C864 0.931 . S
H881 C869 0.929 . S
H882 C870 0.960 . S
H883 C870 0.962 . S
H884 C870 0.960 . S
H885 C871 0.961 . S
H886 C871 0.961 . S
H887 C871 0.961 . S
H888 C872 0.931 . S
H889 C877 0.930 . S
H890 C878 0.956 1_455 S
H891 C878 0.961 . S
H892 C878 0.961 . S
H893 C879 0.958 . S
H894 C879 0.961 . S
H895 C879 0.960 . S
C896 C897 1.391 . S
C896 C898 1.394 . S
C896 H912 0.931 . S
C897 C896 1.391 . S
C897 C901 1.376 . S
C898 C896 1.394 . S
C898 C899 1.369 . S
C898 C902 1.531 . S
C899 C898 1.369 . S
C899 C900 1.410 . S
C899 C907 1.503 1_545 S
C900 C899 1.410 . S
C900 C901 1.392 . S
C900 C903 1.511 . S
C901 C897 1.376 . S
C901 C900 1.392 . S
C901 H913 0.929 . S
C902 C898 1.531 . S
C902 H914 0.960 . S
C902 H915 0.962 1_545 S
C902 H916 0.960 . S
C903 C900 1.511 . S
C903 H917 0.961 . S
C903 H918 0.961 . S
C903 H919 0.961 . S
C904 C905 1.370 . S
C904 C906 1.363 . S
C904 H920 0.931 . S
C905 C904 1.370 . S
C905 C909 1.408 . S
C906 C904 1.363 . S
C906 C907 1.370 . S
C906 C910 1.524 . S
C907 C899 1.503 1_565 S
C907 C906 1.370 . S
C907 C908 1.403 . S
C908 C907 1.403 . S
C908 C909 1.404 . S
C908 C911 1.539 1_565 S
C909 C905 1.408 . S
C909 C908 1.404 . S
C909 H921 0.930 . S
C910 C906 1.524 . S
C910 H922 0.956 . S
C910 H923 0.961 . S
C910 H924 0.961 . S
C911 C908 1.539 1_545 S
C911 H925 0.958 . S
C911 H926 0.961 . S
C911 H927 0.960 . S
H912 C896 0.931 . S
H913 C901 0.929 . S
H914 C902 0.960 . S
H915 C902 0.962 1_565 S
H916 C902 0.960 . S
H917 C903 0.961 . S
H918 C903 0.961 . S
H919 C903 0.961 . S
H920 C904 0.931 . S
H921 C909 0.930 . S
H922 C910 0.956 . S
H923 C910 0.961 . S
H924 C910 0.961 . S
H925 C911 0.958 . S
H926 C911 0.961 . S
H927 C911 0.960 . S
C928 C929 1.391 . S
C928 C930 1.394 . S
C928 H944 0.931 . S
C929 C928 1.391 . S
C929 C933 1.376 . S
C930 C928 1.394 . S
C930 C931 1.369 . S
C930 C934 1.531 1_554 S
C931 C930 1.369 . S
C931 C932 1.410 . S
C931 C939 1.503 1_554 S
C932 C931 1.410 . S
C932 C933 1.392 . S
C932 C935 1.511 . S
C933 C929 1.376 . S
C933 C932 1.392 . S
C933 H945 0.929 . S
C934 C930 1.531 1_556 S
C934 H946 0.960 . S
C934 H947 0.962 . S
C934 H948 0.960 . S
C935 C932 1.511 . S
C935 H949 0.961 . S
C935 H950 0.961 . S
C935 H951 0.961 . S
C936 C937 1.370 . S
C936 C938 1.363 . S
C936 H952 0.931 . S
C937 C936 1.370 . S
C937 C941 1.408 . S
C938 C936 1.363 . S
C938 C939 1.370 . S
C938 C942 1.524 . S
C939 C931 1.503 1_556 S
C939 C938 1.370 . S
C939 C940 1.403 . S
C940 C939 1.403 . S
C940 C941 1.404 . S
C940 C943 1.539 1_556 S
C941 C937 1.408 . S
C941 C940 1.404 . S
C941 H953 0.930 . S
C942 C938 1.524 . S
C942 H954 0.956 . S
C942 H955 0.961 . S
C942 H956 0.961 . S
C943 C940 1.539 1_554 S
C943 H957 0.958 1_554 S
C943 H958 0.961 . S
C943 H959 0.960 . S
H944 C928 0.931 . S
H945 C933 0.929 . S
H946 C934 0.960 . S
H947 C934 0.962 . S
H948 C934 0.960 . S
H949 C935 0.961 . S
H950 C935 0.961 . S
H951 C935 0.961 . S
H952 C936 0.931 . S
H953 C941 0.930 . S
H954 C942 0.956 . S
H955 C942 0.961 . S
H956 C942 0.961 . S
H957 C943 0.958 1_556 S
H958 C943 0.961 . S
H959 C943 0.960 . S
C960 C961 1.391 . S
C960 C962 1.394 . S
C960 H976 0.931 . S
C961 C960 1.391 . S
C961 C965 1.376 . S
C962 C960 1.394 . S
C962 C963 1.369 . S
C962 C966 1.531 1_556 S
C963 C962 1.369 . S
C963 C964 1.410 . S
C963 C971 1.503 1_556 S
C964 C963 1.410 . S
C964 C965 1.392 . S
C964 C967 1.511 . S
C965 C961 1.376 . S
C965 C964 1.392 . S
C965 H977 0.929 . S
C966 C962 1.531 1_554 S
C966 H978 0.960 . S
C966 H979 0.962 . S
C966 H980 0.960 . S
C967 C964 1.511 . S
C967 H981 0.961 . S
C967 H982 0.961 . S
C967 H983 0.961 . S
C968 C969 1.370 . S
C968 C970 1.363 . S
C968 H984 0.931 . S
C969 C968 1.370 . S
C969 C973 1.408 . S
C970 C968 1.363 . S
C970 C971 1.370 . S
C970 C974 1.524 . S
C971 C963 1.503 1_554 S
C971 C970 1.370 . S
C971 C972 1.403 . S
C972 C971 1.403 . S
C972 C973 1.404 . S
C972 C975 1.539 1_554 S
C973 C969 1.408 . S
C973 C972 1.404 . S
C973 H985 0.930 . S
C974 C970 1.524 . S
C974 H986 0.956 . S
C974 H987 0.961 . S
C974 H988 0.961 . S
C975 C972 1.539 1_556 S
C975 H989 0.980 . S
C975 H990 0.961 . S
C975 H991 0.960 . S
H976 C960 0.931 . S
H977 C965 0.929 . S
H978 C966 0.960 . S
H979 C966 0.962 . S
H980 C966 0.960 . S
H981 C967 0.961 . S
H982 C967 0.961 . S
H983 C967 0.961 . S
H984 C968 0.931 . S
H985 C973 0.930 . S
H986 C974 0.956 . S
H987 C974 0.961 . S
H988 C974 0.961 . S
H989 C975 0.980 . S
H990 C975 0.961 . S
H991 C975 0.960 . S
C992 C993 1.391 . S
C992 C994 1.394 . S
C992 H1008 0.931 . S
C993 C992 1.391 . S
C993 C997 1.376 . S
C994 C992 1.394 . S
C994 C995 1.369 . S
C994 C998 1.531 1_556 S
C995 C994 1.369 . S
C995 C996 1.410 . S
C995 C1003 1.503 1_556 S
C996 C995 1.410 . S
C996 C997 1.392 . S
C996 C999 1.511 . S
C997 C993 1.376 . S
C997 C996 1.392 . S
C997 H1009 0.929 . S
C998 C994 1.531 1_554 S
C998 H1010 0.960 . S
C998 H1011 0.962 . S
C998 H1012 0.960 . S
C999 C996 1.511 . S
C999 H1013 0.961 . S
C999 H1014 0.961 . S
C999 H1015 0.961 . S
C1000 C1001 1.370 . S
C1000 C1002 1.363 . S
C1000 H1016 0.931 . S
C1001 C1000 1.370 . S
C1001 C1005 1.408 . S
C1002 C1000 1.363 . S
C1002 C1003 1.370 . S
C1002 C1006 1.524 . S
C1003 C995 1.503 1_554 S
C1003 C1002 1.370 . S
C1003 C1004 1.403 . S
C1004 C1003 1.403 . S
C1004 C1005 1.404 . S
C1004 C1007 1.539 . S
C1005 C1001 1.408 . S
C1005 C1004 1.404 . S
C1005 H1017 0.930 . S
C1006 C1002 1.524 . S
C1006 H1018 0.956 . S
C1006 H1019 0.961 1_554 S
C1006 H1020 0.961 . S
C1007 C1004 1.539 . S
C1007 H1021 0.958 . S
C1007 H1022 0.961 . S
C1007 H1023 0.974 . S
H1008 C992 0.931 . S
H1009 C997 0.929 . S
H1010 C998 0.960 . S
H1011 C998 0.962 . S
H1012 C998 0.960 . S
H1013 C999 0.961 . S
H1014 C999 0.961 . S
H1015 C999 0.961 . S
H1016 C1000 0.931 . S
H1017 C1005 0.930 . S
H1018 C1006 0.956 . S
H1019 C1006 0.961 1_556 S
H1020 C1006 0.961 . S
H1021 C1007 0.958 . S
H1022 C1007 0.961 . S
H1023 C1007 0.974 . S
C1024 C1025 1.391 . S
C1024 C1026 1.394 . S
C1024 H1040 0.931 . S
C1025 C1024 1.391 . S
C1025 C1029 1.376 . S
C1026 C1024 1.394 . S
C1026 C1027 1.369 . S
C1026 C1030 1.531 1_556 S
C1027 C1026 1.369 . S
C1027 C1028 1.410 . S
C1027 C1035 1.503 1_556 S
C1028 C1027 1.410 . S
C1028 C1029 1.392 . S
C1028 C1031 1.511 . S
C1029 C1025 1.376 . S
C1029 C1028 1.392 . S
C1029 H1041 0.929 . S
C1030 C1026 1.531 1_554 S
C1030 H1042 0.960 . S
C1030 H1043 0.962 1_554 S
C1030 H1044 0.960 . S
C1031 C1028 1.511 . S
C1031 H1045 0.961 . S
C1031 H1046 0.961 . S
C1031 H1047 0.927 1_556 S
C1032 C1033 1.370 . S
C1032 C1034 1.363 . S
C1032 H1048 0.931 . S
C1033 C1032 1.370 . S
C1033 C1037 1.408 . S
C1034 C1032 1.363 . S
C1034 C1035 1.370 . S
C1034 C1038 1.524 1_554 S
C1035 C1027 1.503 1_554 S
C1035 C1034 1.370 . S
C1035 C1036 1.403 . S
C1036 C1035 1.403 . S
C1036 C1037 1.404 . S
C1036 C1039 1.539 . S
C1037 C1033 1.408 . S
C1037 C1036 1.404 . S
C1037 H1049 0.930 . S
C1038 C1034 1.524 1_556 S
C1038 H1050 0.956 . S
C1038 H1051 0.961 . S
C1038 H1052 0.961 . S
C1039 C1036 1.539 . S
C1039 H1053 0.958 . S
C1039 H1054 0.961 . S
C1039 H1055 0.960 . S
H1040 C1024 0.931 . S
H1041 C1029 0.929 . S
H1042 C1030 0.960 . S
H1043 C1030 0.962 1_556 S
H1044 C1030 0.960 . S
H1045 C1031 0.961 . S
H1046 C1031 0.961 . S
H1047 C1031 0.927 1_554 S
H1048 C1032 0.931 . S
H1049 C1037 0.930 . S
H1050 C1038 0.956 . S
H1051 C1038 0.961 . S
H1052 C1038 0.961 . S
H1053 C1039 0.958 . S
H1054 C1039 0.961 . S
H1055 C1039 0.960 . S
C1056 C1057 1.391 . S
C1056 C1058 1.394 . S
C1056 H1072 0.931 . S
C1057 C1056 1.391 . S
C1057 C1061 1.376 . S
C1058 C1056 1.394 . S
C1058 C1059 1.369 . S
C1058 C1062 1.531 . S
C1059 C1058 1.369 . S
C1059 C1060 1.410 . S
C1059 C1067 1.503 . S
C1060 C1059 1.410 . S
C1060 C1061 1.392 . S
C1060 C1063 1.511 . S
C1061 C1057 1.376 . S
C1061 C1060 1.392 . S
C1061 H1073 0.929 . S
C1062 C1058 1.531 . S
C1062 H1074 0.960 . S
C1062 H1075 0.962 . S
C1062 H1076 0.960 . S
C1063 C1060 1.511 . S
C1063 H1077 0.961 . S
C1063 H1078 0.961 . S
C1063 H1079 0.961 . S
C1064 C1065 1.370 . S
C1064 C1066 1.363 . S
C1064 H1080 0.931 . S
C1065 C1064 1.370 . S
C1065 C1069 1.408 . S
C1066 C1064 1.363 . S
C1066 C1067 1.370 . S
C1066 C1070 1.524 . S
C1067 C1059 1.503 . S
C1067 C1066 1.370 . S
C1067 C1068 1.403 . S
C1068 C1067 1.403 . S
C1068 C1069 1.404 . S
C1068 C1071 1.539 . S
C1069 C1065 1.408 . S
C1069 C1068 1.404 . S
C1069 H1081 0.930 . S
C1070 C1066 1.524 . S
C1070 H1082 0.956 . S
C1070 H1083 0.961 . S
C1070 H1084 0.961 . S
C1071 C1068 1.539 . S
C1071 H1085 0.958 . S
C1071 H1086 0.961 . S
C1071 H1087 0.960 . S
H1072 C1056 0.931 . S
H1073 C1061 0.929 . S
H1074 C1062 0.960 . S
H1075 C1062 0.962 . S
H1076 C1062 0.960 . S
H1077 C1063 0.961 . S
H1078 C1063 0.961 . S
H1079 C1063 0.961 . S
H1080 C1064 0.931 . S
H1081 C1069 0.930 . S
H1082 C1070 0.956 . S
H1083 C1070 0.961 . S
H1084 C1070 0.961 . S
H1085 C1071 0.958 . S
H1086 C1071 0.961 . S
H1087 C1071 0.960 . S
C1088 C1089 1.391 . S
C1088 C1090 1.394 . S
C1088 H1104 0.931 . S
C1089 C1088 1.391 . S
C1089 C1093 1.376 . S
C1090 C1088 1.394 . S
C1090 C1091 1.369 . S
C1090 C1094 1.531 . S
C1091 C1090 1.369 . S
C1091 C1092 1.410 . S
C1091 C1099 1.503 . S
C1092 C1091 1.410 . S
C1092 C1093 1.392 . S
C1092 C1095 1.511 . S
C1093 C1089 1.376 . S
C1093 C1092 1.392 . S
C1093 H1105 0.929 . S
C1094 C1090 1.531 . S
C1094 H1106 0.960 . S
C1094 H1107 0.962 . S
C1094 H1108 0.960 . S
C1095 C1092 1.511 . S
C1095 H1109 0.961 . S
C1095 H1110 0.961 . S
C1095 H1111 0.961 . S
C1096 C1097 1.370 . S
C1096 C1098 1.363 . S
C1096 H1112 0.931 . S
C1097 C1096 1.370 . S
C1097 C1101 1.408 . S
C1098 C1096 1.363 . S
C1098 C1099 1.370 . S
C1098 C1102 1.524 . S
C1099 C1091 1.503 . S
C1099 C1098 1.370 . S
C1099 C1100 1.403 . S
C1100 C1099 1.403 . S
C1100 C1101 1.404 . S
C1100 C1103 1.539 . S
C1101 C1097 1.408 . S
C1101 C1100 1.404 . S
C1101 H1113 0.930 . S
C1102 C1098 1.524 . S
C1102 H1114 0.956 . S
C1102 H1115 0.961 . S
C1102 H1116 0.961 . S
C1103 C1100 1.539 . S
C1103 H1117 0.958 . S
C1103 H1118 0.961 . S
C1103 H1119 0.960 . S
H1104 C1088 0.931 . S
H1105 C1093 0.929 . S
H1106 C1094 0.960 . S
H1107 C1094 0.962 . S
H1108 C1094 0.960 . S
H1109 C1095 0.961 . S
H1110 C1095 0.961 . S
H1111 C1095 0.961 . S
H1112 C1096 0.931 . S
H1113 C1101 0.930 . S
H1114 C1102 0.956 . S
H1115 C1102 0.961 . S
H1116 C1102 0.961 . S
H1117 C1103 0.958 . S
H1118 C1103 0.961 . S
H1119 C1103 0.960 . S
C1120 C1121 1.391 . S
C1120 C1122 1.394 . S
C1120 H1136 0.931 . S
C1121 C1120 1.391 . S
C1121 C1125 1.376 . S
C1122 C1120 1.394 . S
C1122 C1123 1.369 . S
C1122 C1126 1.531 . S
C1123 C1122 1.369 . S
C1123 C1124 1.410 . S
C1123 C1131 1.503 . S
C1124 C1123 1.410 . S
C1124 C1125 1.392 . S
C1124 C1127 1.511 . S
C1125 C1121 1.376 . S
C1125 C1124 1.392 . S
C1125 H1137 0.929 . S
C1126 C1122 1.531 . S
C1126 H1138 0.960 . S
C1126 H1139 0.962 . S
C1126 H1140 0.960 . S
C1127 C1124 1.511 . S
C1127 H1141 0.961 . S
C1127 H1142 0.961 . S
C1127 H1143 0.961 . S
C1128 C1129 1.370 . S
C1128 C1130 1.363 . S
C1128 H1144 0.931 . S
C1129 C1128 1.370 . S
C1129 C1133 1.408 . S
C1130 C1128 1.363 . S
C1130 C1131 1.370 . S
C1130 C1134 1.524 . S
C1131 C1123 1.503 . S
C1131 C1130 1.370 . S
C1131 C1132 1.403 . S
C1132 C1131 1.403 . S
C1132 C1133 1.404 . S
C1132 C1135 1.539 . S
C1133 C1129 1.408 . S
C1133 C1132 1.404 . S
C1133 H1145 0.930 . S
C1134 C1130 1.524 . S
C1134 H1146 0.956 . S
C1134 H1147 0.961 . S
C1134 H1148 0.961 . S
C1135 C1132 1.539 . S
C1135 H1149 0.958 . S
C1135 H1150 0.961 . S
C1135 H1151 0.960 . S
H1136 C1120 0.931 . S
H1137 C1125 0.929 . S
H1138 C1126 0.960 . S
H1139 C1126 0.962 . S
H1140 C1126 0.960 . S
H1141 C1127 0.961 . S
H1142 C1127 0.961 . S
H1143 C1127 0.961 . S
H1144 C1128 0.931 . S
H1145 C1133 0.930 . S
H1146 C1134 0.956 . S
H1147 C1134 0.961 . S
H1148 C1134 0.961 . S
H1149 C1135 0.958 . S
H1150 C1135 0.961 . S
H1151 C1135 0.960 . S
C1152 C1153 1.391 . S
C1152 C1154 1.394 . S
C1152 H1168 0.931 . S
C1153 C1152 1.391 . S
C1153 C1157 1.376 . S
C1154 C1152 1.394 . S
C1154 C1155 1.369 . S
C1154 C1158 1.531 . S
C1155 C1154 1.369 . S
C1155 C1156 1.410 . S
C1155 C1163 1.503 . S
C1156 C1155 1.410 . S
C1156 C1157 1.392 . S
C1156 C1159 1.511 . S
C1157 C1153 1.376 . S
C1157 C1156 1.392 . S
C1157 H1169 0.929 . S
C1158 C1154 1.531 . S
C1158 H1170 0.960 . S
C1158 H1171 0.962 . S
C1158 H1172 0.960 . S
C1159 C1156 1.511 . S
C1159 H1173 0.961 . S
C1159 H1174 0.961 . S
C1159 H1175 0.961 . S
C1160 C1161 1.370 . S
C1160 C1162 1.363 . S
C1160 H1176 0.931 . S
C1161 C1160 1.370 . S
C1161 C1165 1.408 . S
C1162 C1160 1.363 . S
C1162 C1163 1.370 . S
C1162 C1166 1.524 . S
C1163 C1155 1.503 . S
C1163 C1162 1.370 . S
C1163 C1164 1.403 . S
C1164 C1163 1.403 . S
C1164 C1165 1.404 . S
C1164 C1167 1.539 . S
C1165 C1161 1.408 . S
C1165 C1164 1.404 . S
C1165 H1177 0.930 . S
C1166 C1162 1.524 . S
C1166 H1178 0.956 . S
C1166 H1179 0.961 . S
C1166 H1180 0.961 . S
C1167 C1164 1.539 . S
C1167 H1181 0.958 . S
C1167 H1182 0.961 . S
C1167 H1183 0.960 . S
H1168 C1152 0.931 . S
H1169 C1157 0.929 . S
H1170 C1158 0.960 . S
H1171 C1158 0.962 . S
H1172 C1158 0.960 . S
H1173 C1159 0.961 . S
H1174 C1159 0.961 . S
H1175 C1159 0.961 . S
H1176 C1160 0.931 . S
H1177 C1165 0.930 . S
H1178 C1166 0.956 . S
H1179 C1166 0.961 . S
H1180 C1166 0.961 . S
H1181 C1167 0.958 . S
H1182 C1167 0.961 . S
H1183 C1167 0.960 . S
C1184 C1185 1.391 . S
C1184 C1186 1.394 . S
C1184 H1200 0.931 . S
C1185 C1184 1.391 . S
C1185 C1189 1.376 . S
C1186 C1184 1.394 . S
C1186 C1187 1.369 . S
C1186 C1190 1.531 . S
C1187 C1186 1.369 . S
C1187 C1188 1.410 . S
C1187 C1195 1.503 . S
C1188 C1187 1.410 . S
C1188 C1189 1.392 . S
C1188 C1191 1.511 . S
C1189 C1185 1.376 . S
C1189 C1188 1.392 . S
C1189 H1201 0.929 . S
C1190 C1186 1.531 . S
C1190 H1202 0.960 . S
C1190 H1203 0.962 . S
C1190 H1204 0.960 . S
C1191 C1188 1.511 . S
C1191 H1205 0.961 . S
C1191 H1206 0.961 . S
C1191 H1207 0.961 . S
C1192 C1193 1.370 . S
C1192 C1194 1.363 . S
C1192 H1208 0.931 . S
C1193 C1192 1.370 . S
C1193 C1197 1.408 . S
C1194 C1192 1.363 . S
C1194 C1195 1.370 . S
C1194 C1198 1.524 . S
C1195 C1187 1.503 . S
C1195 C1194 1.370 . S
C1195 C1196 1.403 . S
C1196 C1195 1.403 . S
C1196 C1197 1.404 . S
C1196 C1199 1.539 . S
C1197 C1193 1.408 . S
C1197 C1196 1.404 . S
C1197 H1209 0.930 . S
C1198 C1194 1.524 . S
C1198 H1210 0.956 . S
C1198 H1211 0.961 . S
C1198 H1212 0.961 . S
C1199 C1196 1.539 . S
C1199 H1213 0.958 . S
C1199 H1214 0.961 . S
C1199 H1215 0.960 . S
H1200 C1184 0.931 . S
H1201 C1189 0.929 . S
H1202 C1190 0.960 . S
H1203 C1190 0.962 . S
H1204 C1190 0.960 . S
H1205 C1191 0.961 . S
H1206 C1191 0.961 . S
H1207 C1191 0.961 . S
H1208 C1192 0.931 . S
H1209 C1197 0.930 . S
H1210 C1198 0.956 . S
H1211 C1198 0.961 . S
H1212 C1198 0.961 . S
H1213 C1199 0.958 . S
H1214 C1199 0.961 . S
H1215 C1199 0.960 . S
C1216 C1217 1.391 . S
C1216 C1218 1.394 . S
C1216 H1232 0.931 . S
C1217 C1216 1.391 . S
C1217 C1221 1.376 . S
C1218 C1216 1.394 . S
C1218 C1219 1.369 . S
C1218 C1222 1.531 . S
C1219 C1218 1.369 . S
C1219 C1220 1.410 . S
C1219 C1227 1.503 . S
C1220 C1219 1.410 . S
C1220 C1221 1.392 . S
C1220 C1223 1.511 . S
C1221 C1217 1.376 . S
C1221 C1220 1.392 . S
C1221 H1233 0.929 . S
C1222 C1218 1.531 . S
C1222 H1234 0.960 . S
C1222 H1235 0.962 . S
C1222 H1236 0.960 . S
C1223 C1220 1.511 . S
C1223 H1237 0.961 . S
C1223 H1238 0.961 . S
C1223 H1239 0.961 . S
C1224 C1225 1.370 . S
C1224 C1226 1.363 . S
C1224 H1240 0.931 . S
C1225 C1224 1.370 . S
C1225 C1229 1.408 . S
C1226 C1224 1.363 . S
C1226 C1227 1.370 . S
C1226 C1230 1.524 . S
C1227 C1219 1.503 . S
C1227 C1226 1.370 . S
C1227 C1228 1.403 . S
C1228 C1227 1.403 . S
C1228 C1229 1.404 . S
C1228 C1231 1.539 . S
C1229 C1225 1.408 . S
C1229 C1228 1.404 . S
C1229 H1241 0.930 . S
C1230 C1226 1.524 . S
C1230 H1242 0.956 . S
C1230 H1243 0.961 . S
C1230 H1244 0.961 . S
C1231 C1228 1.539 . S
C1231 H1245 0.958 . S
C1231 H1246 0.961 . S
C1231 H1247 0.960 . S
H1232 C1216 0.931 . S
H1233 C1221 0.929 . S
H1234 C1222 0.960 . S
H1235 C1222 0.962 . S
H1236 C1222 0.960 . S
H1237 C1223 0.961 . S
H1238 C1223 0.961 . S
H1239 C1223 0.961 . S
H1240 C1224 0.931 . S
H1241 C1229 0.930 . S
H1242 C1230 0.956 . S
H1243 C1230 0.961 . S
H1244 C1230 0.961 . S
H1245 C1231 0.958 . S
H1246 C1231 0.961 . S
H1247 C1231 0.960 . S
C1248 C1249 1.391 . S
C1248 C1250 1.394 . S
C1248 H1264 0.931 . S
C1249 C1248 1.391 . S
C1249 C1253 1.376 . S
C1250 C1248 1.394 . S
C1250 C1251 1.369 . S
C1250 C1254 1.531 . S
C1251 C1250 1.369 . S
C1251 C1252 1.410 . S
C1251 C1259 1.503 . S
C1252 C1251 1.410 . S
C1252 C1253 1.392 . S
C1252 C1255 1.511 . S
C1253 C1249 1.376 . S
C1253 C1252 1.392 . S
C1253 H1265 0.929 . S
C1254 C1250 1.531 . S
C1254 H1266 0.960 . S
C1254 H1267 0.962 . S
C1254 H1268 0.960 . S
C1255 C1252 1.511 . S
C1255 H1269 0.961 . S
C1255 H1270 0.961 . S
C1255 H1271 0.961 . S
C1256 C1257 1.370 . S
C1256 C1258 1.363 . S
C1256 H1272 0.931 . S
C1257 C1256 1.370 . S
C1257 C1261 1.408 . S
C1258 C1256 1.363 . S
C1258 C1259 1.370 . S
C1258 C1262 1.524 . S
C1259 C1251 1.503 . S
C1259 C1258 1.370 . S
C1259 C1260 1.403 . S
C1260 C1259 1.403 . S
C1260 C1261 1.404 . S
C1260 C1263 1.539 . S
C1261 C1257 1.408 . S
C1261 C1260 1.404 . S
C1261 H1273 0.930 . S
C1262 C1258 1.524 . S
C1262 H1274 0.956 . S
C1262 H1275 0.961 . S
C1262 H1276 0.961 . S
C1263 C1260 1.539 . S
C1263 H1277 0.958 . S
C1263 H1278 0.961 . S
C1263 H1279 0.960 . S
H1264 C1248 0.931 . S
H1265 C1253 0.929 . S
H1266 C1254 0.960 . S
H1267 C1254 0.962 . S
H1268 C1254 0.960 . S
H1269 C1255 0.961 . S
H1270 C1255 0.961 . S
H1271 C1255 0.961 . S
H1272 C1256 0.931 . S
H1273 C1261 0.930 . S
H1274 C1262 0.956 . S
H1275 C1262 0.961 . S
H1276 C1262 0.961 . S
H1277 C1263 0.958 . S
H1278 C1263 0.961 . S
H1279 C1263 0.960 . S
C1280 C1281 1.391 . S
C1280 C1282 1.394 . S
C1280 H1296 0.931 . S
C1281 C1280 1.391 . S
C1281 C1285 1.376 . S
C1282 C1280 1.394 . S
C1282 C1283 1.369 . S
C1282 C1286 1.531 . S
C1283 C1282 1.369 . S
C1283 C1284 1.410 . S
C1283 C1291 1.503 . S
C1284 C1283 1.410 . S
C1284 C1285 1.392 . S
C1284 C1287 1.511 . S
C1285 C1281 1.376 . S
C1285 C1284 1.392 . S
C1285 H1297 0.929 . S
C1286 C1282 1.531 . S
C1286 H1298 0.960 . S
C1286 H1299 0.962 . S
C1286 H1300 0.960 . S
C1287 C1284 1.511 . S
C1287 H1301 0.961 . S
C1287 H1302 0.961 . S
C1287 H1303 0.961 . S
C1288 C1289 1.370 . S
C1288 C1290 1.363 . S
C1288 H1304 0.931 . S
C1289 C1288 1.370 . S
C1289 C1293 1.408 . S
C1290 C1288 1.363 . S
C1290 C1291 1.370 . S
C1290 C1294 1.524 . S
C1291 C1283 1.503 . S
C1291 C1290 1.370 . S
C1291 C1292 1.403 . S
C1292 C1291 1.403 . S
C1292 C1293 1.404 . S
C1292 C1295 1.539 . S
C1293 C1289 1.408 . S
C1293 C1292 1.404 . S
C1293 H1305 0.930 . S
C1294 C1290 1.524 . S
C1294 H1306 0.956 . S
C1294 H1307 0.961 . S
C1294 H1308 0.961 . S
C1295 C1292 1.539 . S
C1295 H1309 0.958 . S
C1295 H1310 0.961 . S
C1295 H1311 0.960 . S
H1296 C1280 0.931 . S
H1297 C1285 0.929 . S
H1298 C1286 0.960 . S
H1299 C1286 0.962 . S
H1300 C1286 0.960 . S
H1301 C1287 0.961 . S
H1302 C1287 0.961 . S
H1303 C1287 0.961 . S
H1304 C1288 0.931 . S
H1305 C1293 0.930 . S
H1306 C1294 0.956 . S
H1307 C1294 0.961 . S
H1308 C1294 0.961 . S
H1309 C1295 0.958 . S
H1310 C1295 0.961 . S
H1311 C1295 0.960 . S
C1312 C1313 1.391 . S
C1312 C1314 1.394 . S
C1312 H1328 0.931 . S
C1313 C1312 1.391 . S
C1313 C1317 1.376 . S
C1314 C1312 1.394 . S
C1314 C1315 1.369 . S
C1314 C1318 1.531 . S
C1315 C1314 1.369 . S
C1315 C1316 1.410 . S
C1315 C1323 1.503 . S
C1316 C1315 1.410 . S
C1316 C1317 1.392 . S
C1316 C1319 1.511 . S
C1317 C1313 1.376 . S
C1317 C1316 1.392 . S
C1317 H1329 0.929 . S
C1318 C1314 1.531 . S
C1318 H1330 0.960 . S
C1318 H1331 0.962 . S
C1318 H1332 0.960 . S
C1319 C1316 1.511 . S
C1319 H1333 0.961 . S
C1319 H1334 0.961 . S
C1319 H1335 0.961 . S
C1320 C1321 1.370 . S
C1320 C1322 1.363 . S
C1320 H1336 0.931 . S
C1321 C1320 1.370 . S
C1321 C1325 1.408 . S
C1322 C1320 1.363 . S
C1322 C1323 1.370 . S
C1322 C1326 1.524 . S
C1323 C1315 1.503 . S
C1323 C1322 1.370 . S
C1323 C1324 1.403 . S
C1324 C1323 1.403 . S
C1324 C1325 1.404 . S
C1324 C1327 1.539 . S
C1325 C1321 1.408 . S
C1325 C1324 1.404 . S
C1325 H1337 0.930 . S
C1326 C1322 1.524 . S
C1326 H1338 0.956 . S
C1326 H1339 0.961 . S
C1326 H1340 0.961 . S
C1327 C1324 1.539 . S
C1327 H1341 0.958 . S
C1327 H1342 0.961 . S
C1327 H1343 0.960 . S
H1328 C1312 0.931 . S
H1329 C1317 0.929 . S
H1330 C1318 0.960 . S
H1331 C1318 0.962 . S
H1332 C1318 0.960 . S
H1333 C1319 0.961 . S
H1334 C1319 0.961 . S
H1335 C1319 0.961 . S
H1336 C1320 0.931 . S
H1337 C1325 0.930 . S
H1338 C1326 0.956 . S
H1339 C1326 0.961 . S
H1340 C1326 0.961 . S
H1341 C1327 0.958 . S
H1342 C1327 0.961 . S
H1343 C1327 0.960 . S
C1344 C1345 1.391 . S
C1344 C1346 1.394 . S
C1344 H1360 0.931 . S
C1345 C1344 1.391 . S
C1345 C1349 1.376 . S
C1346 C1344 1.394 . S
C1346 C1347 1.369 . S
C1346 C1350 1.531 . S
C1347 C1346 1.369 . S
C1347 C1348 1.410 . S
C1347 C1355 1.503 . S
C1348 C1347 1.410 . S
C1348 C1349 1.392 . S
C1348 C1351 1.511 . S
C1349 C1345 1.376 . S
C1349 C1348 1.392 . S
C1349 H1361 0.929 . S
C1350 C1346 1.531 . S
C1350 H1362 0.960 . S
C1350 H1363 0.962 . S
C1350 H1364 0.960 . S
C1351 C1348 1.511 . S
C1351 H1365 0.961 . S
C1351 H1366 0.961 . S
C1351 H1367 0.961 . S
C1352 C1353 1.370 . S
C1352 C1354 1.363 . S
C1352 H1368 0.931 . S
C1353 C1352 1.370 . S
C1353 C1357 1.408 . S
C1354 C1352 1.363 . S
C1354 C1355 1.370 . S
C1354 C1358 1.524 . S
C1355 C1347 1.503 . S
C1355 C1354 1.370 . S
C1355 C1356 1.403 . S
C1356 C1355 1.403 . S
C1356 C1357 1.404 . S
C1356 C1359 1.539 . S
C1357 C1353 1.408 . S
C1357 C1356 1.404 . S
C1357 H1369 0.930 . S
C1358 C1354 1.524 . S
C1358 H1370 0.956 . S
C1358 H1371 0.961 . S
C1358 H1372 0.961 . S
C1359 C1356 1.539 . S
C1359 H1373 0.958 . S
C1359 H1374 0.961 . S
C1359 H1375 0.960 . S
H1360 C1344 0.931 . S
H1361 C1349 0.929 . S
H1362 C1350 0.960 . S
H1363 C1350 0.962 . S
H1364 C1350 0.960 . S
H1365 C1351 0.961 . S
H1366 C1351 0.961 . S
H1367 C1351 0.961 . S
H1368 C1352 0.931 . S
H1369 C1357 0.930 . S
H1370 C1358 0.956 . S
H1371 C1358 0.961 . S
H1372 C1358 0.961 . S
H1373 C1359 0.958 . S
H1374 C1359 0.961 . S
H1375 C1359 0.960 . S
C1376 C1377 1.391 . S
C1376 C1378 1.394 . S
C1376 H1392 0.931 . S
C1377 C1376 1.391 . S
C1377 C1381 1.376 . S
C1378 C1376 1.394 . S
C1378 C1379 1.369 . S
C1378 C1382 1.531 . S
C1379 C1378 1.369 . S
C1379 C1380 1.410 . S
C1379 C1387 1.503 . S
C1380 C1379 1.410 . S
C1380 C1381 1.392 . S
C1380 C1383 1.511 . S
C1381 C1377 1.376 . S
C1381 C1380 1.392 . S
C1381 H1393 0.929 . S
C1382 C1378 1.531 . S
C1382 H1394 0.960 . S
C1382 H1395 0.962 . S
C1382 H1396 0.960 . S
C1383 C1380 1.511 . S
C1383 H1397 0.961 . S
C1383 H1398 0.961 . S
C1383 H1399 0.961 . S
C1384 C1385 1.370 . S
C1384 C1386 1.363 . S
C1384 H1400 0.931 . S
C1385 C1384 1.370 . S
C1385 C1389 1.408 . S
C1386 C1384 1.363 . S
C1386 C1387 1.370 . S
C1386 C1390 1.524 . S
C1387 C1379 1.503 . S
C1387 C1386 1.370 . S
C1387 C1388 1.403 . S
C1388 C1387 1.403 . S
C1388 C1389 1.404 . S
C1388 C1391 1.539 . S
C1389 C1385 1.408 . S
C1389 C1388 1.404 . S
C1389 H1401 0.930 . S
C1390 C1386 1.524 . S
C1390 H1402 0.956 . S
C1390 H1403 0.961 . S
C1390 H1404 0.961 . S
C1391 C1388 1.539 . S
C1391 H1405 0.958 . S
C1391 H1406 0.961 . S
C1391 H1407 0.960 . S
H1392 C1376 0.931 . S
H1393 C1381 0.929 . S
H1394 C1382 0.960 . S
H1395 C1382 0.962 . S
H1396 C1382 0.960 . S
H1397 C1383 0.961 . S
H1398 C1383 0.961 . S
H1399 C1383 0.961 . S
H1400 C1384 0.931 . S
H1401 C1389 0.930 . S
H1402 C1390 0.956 . S
H1403 C1390 0.961 . S
H1404 C1390 0.961 . S
H1405 C1391 0.958 . S
H1406 C1391 0.961 . S
H1407 C1391 0.960 . S
C1408 C1409 1.391 . S
C1408 C1410 1.394 . S
C1408 H1424 0.931 . S
C1409 C1408 1.391 . S
C1409 C1413 1.376 . S
C1410 C1408 1.394 . S
C1410 C1411 1.369 . S
C1410 C1414 1.531 . S
C1411 C1410 1.369 . S
C1411 C1412 1.410 . S
C1411 C1419 1.503 . S
C1412 C1411 1.410 . S
C1412 C1413 1.392 . S
C1412 C1415 1.511 . S
C1413 C1409 1.376 . S
C1413 C1412 1.392 . S
C1413 H1425 0.929 . S
C1414 C1410 1.531 . S
C1414 H1426 0.960 . S
C1414 H1427 0.962 . S
C1414 H1428 0.960 . S
C1415 C1412 1.511 . S
C1415 H1429 0.961 . S
C1415 H1430 0.961 . S
C1415 H1431 0.961 . S
C1416 C1417 1.370 . S
C1416 C1418 1.363 . S
C1416 H1432 0.931 . S
C1417 C1416 1.370 . S
C1417 C1421 1.408 . S
C1418 C1416 1.363 . S
C1418 C1419 1.370 . S
C1418 C1422 1.524 . S
C1419 C1411 1.503 . S
C1419 C1418 1.370 . S
C1419 C1420 1.403 . S
C1420 C1419 1.403 . S
C1420 C1421 1.404 . S
C1420 C1423 1.539 . S
C1421 C1417 1.408 . S
C1421 C1420 1.404 . S
C1421 H1433 0.930 . S
C1422 C1418 1.524 . S
C1422 H1434 0.956 . S
C1422 H1435 0.961 . S
C1422 H1436 0.961 . S
C1423 C1420 1.539 . S
C1423 H1437 0.958 . S
C1423 H1438 0.961 . S
C1423 H1439 0.960 . S
H1424 C1408 0.931 . S
H1425 C1413 0.929 . S
H1426 C1414 0.960 . S
H1427 C1414 0.962 . S
H1428 C1414 0.960 . S
H1429 C1415 0.961 . S
H1430 C1415 0.961 . S
H1431 C1415 0.961 . S
H1432 C1416 0.931 . S
H1433 C1421 0.930 . S
H1434 C1422 0.956 . S
H1435 C1422 0.961 . S
H1436 C1422 0.961 . S
H1437 C1423 0.958 . S
H1438 C1423 0.961 . S
H1439 C1423 0.960 . S
C1440 C1441 1.391 . S
C1440 C1442 1.394 . S
C1440 H1456 0.931 . S
C1441 C1440 1.391 . S
C1441 C1445 1.376 . S
C1442 C1440 1.394 . S
C1442 C1443 1.369 . S
C1442 C1446 1.531 . S
C1443 C1442 1.369 . S
C1443 C1444 1.410 . S
C1443 C1451 1.503 . S
C1444 C1443 1.410 . S
C1444 C1445 1.392 . S
C1444 C1447 1.511 . S
C1445 C1441 1.376 . S
C1445 C1444 1.392 . S
C1445 H1457 0.929 . S
C1446 C1442 1.531 . S
C1446 H1458 0.960 . S
C1446 H1459 0.962 . S
C1446 H1460 0.960 . S
C1447 C1444 1.511 . S
C1447 H1461 0.961 . S
C1447 H1462 0.961 . S
C1447 H1463 0.961 . S
C1448 C1449 1.370 . S
C1448 C1450 1.363 . S
C1448 H1464 0.931 . S
C1449 C1448 1.370 . S
C1449 C1453 1.408 . S
C1450 C1448 1.363 . S
C1450 C1451 1.370 . S
C1450 C1454 1.524 . S
C1451 C1443 1.503 . S
C1451 C1450 1.370 . S
C1451 C1452 1.403 . S
C1452 C1451 1.403 . S
C1452 C1453 1.404 . S
C1452 C1455 1.539 . S
C1453 C1449 1.408 . S
C1453 C1452 1.404 . S
C1453 H1465 0.930 . S
C1454 C1450 1.524 . S
C1454 H1466 0.956 . S
C1454 H1467 0.961 . S
C1454 H1468 0.961 . S
C1455 C1452 1.539 . S
C1455 H1469 0.958 . S
C1455 H1470 0.961 . S
C1455 H1471 0.960 . S
H1456 C1440 0.931 . S
H1457 C1445 0.929 . S
H1458 C1446 0.960 . S
H1459 C1446 0.962 . S
H1460 C1446 0.960 . S
H1461 C1447 0.961 . S
H1462 C1447 0.961 . S
H1463 C1447 0.961 . S
H1464 C1448 0.931 . S
H1465 C1453 0.930 . S
H1466 C1454 0.956 . S
H1467 C1454 0.961 . S
H1468 C1454 0.961 . S
H1469 C1455 0.958 . S
H1470 C1455 0.961 . S
H1471 C1455 0.960 . S
C1472 C1473 1.391 . S
C1472 C1474 1.394 . S
C1472 H1488 0.931 . S
C1473 C1472 1.391 . S
C1473 C1477 1.376 . S
C1474 C1472 1.394 . S
C1474 C1475 1.369 . S
C1474 C1478 1.531 . S
C1475 C1474 1.369 . S
C1475 C1476 1.410 . S
C1475 C1483 1.503 . S
C1476 C1475 1.410 . S
C1476 C1477 1.392 . S
C1476 C1479 1.511 . S
C1477 C1473 1.376 . S
C1477 C1476 1.392 . S
C1477 H1489 0.929 . S
C1478 C1474 1.531 . S
C1478 H1490 0.960 . S
C1478 H1491 0.962 . S
C1478 H1492 0.960 . S
C1479 C1476 1.511 . S
C1479 H1493 0.961 . S
C1479 H1494 0.961 . S
C1479 H1495 0.961 . S
C1480 C1481 1.370 . S
C1480 C1482 1.363 . S
C1480 H1496 0.931 . S
C1481 C1480 1.370 . S
C1481 C1485 1.408 . S
C1482 C1480 1.363 . S
C1482 C1483 1.370 . S
C1482 C1486 1.524 . S
C1483 C1475 1.503 . S
C1483 C1482 1.370 . S
C1483 C1484 1.403 . S
C1484 C1483 1.403 . S
C1484 C1485 1.404 . S
C1484 C1487 1.539 . S
C1485 C1481 1.408 . S
C1485 C1484 1.404 . S
C1485 H1497 0.930 . S
C1486 C1482 1.524 . S
C1486 H1498 0.956 . S
C1486 H1499 0.961 . S
C1486 H1500 0.961 . S
C1487 C1484 1.539 . S
C1487 H1501 0.958 . S
C1487 H1502 0.961 . S
C1487 H1503 0.960 . S
H1488 C1472 0.931 . S
H1489 C1477 0.929 . S
H1490 C1478 0.960 . S
H1491 C1478 0.962 . S
H1492 C1478 0.960 . S
H1493 C1479 0.961 . S
H1494 C1479 0.961 . S
H1495 C1479 0.961 . S
H1496 C1480 0.931 . S
H1497 C1485 0.930 . S
H1498 C1486 0.956 . S
H1499 C1486 0.961 . S
H1500 C1486 0.961 . S
H1501 C1487 0.958 . S
H1502 C1487 0.961 . S
H1503 C1487 0.960 . S
C1504 C1505 1.391 . S
C1504 C1506 1.394 . S
C1504 H1520 0.931 . S
C1505 C1504 1.391 . S
C1505 C1509 1.376 . S
C1506 C1504 1.394 . S
C1506 C1507 1.369 . S
C1506 C1510 1.531 . S
C1507 C1506 1.369 . S
C1507 C1508 1.410 . S
C1507 C1515 1.503 . S
C1508 C1507 1.410 . S
C1508 C1509 1.392 . S
C1508 C1511 1.511 . S
C1509 C1505 1.376 . S
C1509 C1508 1.392 . S
C1509 H1521 0.929 . S
C1510 C1506 1.531 . S
C1510 H1522 0.960 . S
C1510 H1523 0.962 . S
C1510 H1524 0.960 . S
C1511 C1508 1.511 . S
C1511 H1525 0.961 . S
C1511 H1526 0.961 . S
C1511 H1527 0.961 . S
C1512 C1513 1.370 . S
C1512 C1514 1.363 . S
C1512 H1528 0.931 . S
C1513 C1512 1.370 . S
C1513 C1517 1.408 . S
C1514 C1512 1.363 . S
C1514 C1515 1.370 . S
C1514 C1518 1.524 . S
C1515 C1507 1.503 . S
C1515 C1514 1.370 . S
C1515 C1516 1.403 . S
C1516 C1515 1.403 . S
C1516 C1517 1.404 . S
C1516 C1519 1.539 . S
C1517 C1513 1.408 . S
C1517 C1516 1.404 . S
C1517 H1529 0.930 . S
C1518 C1514 1.524 . S
C1518 H1530 0.956 . S
C1518 H1531 0.961 . S
C1518 H1532 0.961 . S
C1519 C1516 1.539 . S
C1519 H1533 0.958 . S
C1519 H1534 0.961 . S
C1519 H1535 0.960 . S
H1520 C1504 0.931 . S
H1521 C1509 0.929 . S
H1522 C1510 0.960 . S
H1523 C1510 0.962 . S
H1524 C1510 0.960 . S
H1525 C1511 0.961 . S
H1526 C1511 0.961 . S
H1527 C1511 0.961 . S
H1528 C1512 0.931 . S
H1529 C1517 0.930 . S
H1530 C1518 0.956 . S
H1531 C1518 0.961 . S
H1532 C1518 0.961 . S
H1533 C1519 0.958 . S
H1534 C1519 0.961 . S
H1535 C1519 0.960 . S
C1536 C1537 1.391 . S
C1536 C1538 1.394 . S
C1536 H1552 0.931 . S
C1537 C1536 1.391 . S
C1537 C1541 1.376 . S
C1538 C1536 1.394 . S
C1538 C1539 1.369 . S
C1538 C1542 1.531 . S
C1539 C1538 1.369 . S
C1539 C1540 1.410 . S
C1539 C1547 1.503 . S
C1540 C1539 1.410 . S
C1540 C1541 1.392 . S
C1540 C1543 1.511 . S
C1541 C1537 1.376 . S
C1541 C1540 1.392 . S
C1541 H1553 0.929 . S
C1542 C1538 1.531 . S
C1542 H1554 0.960 . S
C1542 H1555 0.962 . S
C1542 H1556 0.960 . S
C1543 C1540 1.511 . S
C1543 H1557 0.961 . S
C1543 H1558 0.961 . S
C1543 H1559 0.961 . S
C1544 C1545 1.370 . S
C1544 C1546 1.363 . S
C1544 H1560 0.931 . S
C1545 C1544 1.370 . S
C1545 C1549 1.408 . S
C1546 C1544 1.363 . S
C1546 C1547 1.370 . S
C1546 C1550 1.524 . S
C1547 C1539 1.503 . S
C1547 C1546 1.370 . S
C1547 C1548 1.403 . S
C1548 C1547 1.403 . S
C1548 C1549 1.404 . S
C1548 C1551 1.539 . S
C1549 C1545 1.408 . S
C1549 C1548 1.404 . S
C1549 H1561 0.930 . S
C1550 C1546 1.524 . S
C1550 H1562 0.956 . S
C1550 H1563 0.961 . S
C1550 H1564 0.961 . S
C1551 C1548 1.539 . S
C1551 H1565 0.958 . S
C1551 H1566 0.961 . S
C1551 H1567 0.960 . S
H1552 C1536 0.931 . S
H1553 C1541 0.929 . S
H1554 C1542 0.960 . S
H1555 C1542 0.962 . S
H1556 C1542 0.960 . S
H1557 C1543 0.961 . S
H1558 C1543 0.961 . S
H1559 C1543 0.961 . S
H1560 C1544 0.931 . S
H1561 C1549 0.930 . S
H1562 C1550 0.956 . S
H1563 C1550 0.961 . S
H1564 C1550 0.961 . S
H1565 C1551 0.958 . S
H1566 C1551 0.961 . S
H1567 C1551 0.960 . S
C1568 C1569 1.391 . S
C1568 C1570 1.394 . S
C1568 H1584 0.931 . S
C1569 C1568 1.391 . S
C1569 C1573 1.376 . S
C1570 C1568 1.394 . S
C1570 C1571 1.369 . S
C1570 C1574 1.531 . S
C1571 C1570 1.369 . S
C1571 C1572 1.410 . S
C1571 C1579 1.503 . S
C1572 C1571 1.410 . S
C1572 C1573 1.392 . S
C1572 C1575 1.511 . S
C1573 C1569 1.376 . S
C1573 C1572 1.392 . S
C1573 H1585 0.929 . S
C1574 C1570 1.531 . S
C1574 H1586 0.960 . S
C1574 H1587 0.962 . S
C1574 H1588 0.960 . S
C1575 C1572 1.511 . S
C1575 H1589 0.961 . S
C1575 H1590 0.961 . S
C1575 H1591 0.961 . S
C1576 C1577 1.370 . S
C1576 C1578 1.363 . S
C1576 H1592 0.931 . S
C1577 C1576 1.370 . S
C1577 C1581 1.408 . S
C1578 C1576 1.363 . S
C1578 C1579 1.370 . S
C1578 C1582 1.524 . S
C1579 C1571 1.503 . S
C1579 C1578 1.370 . S
C1579 C1580 1.403 . S
C1580 C1579 1.403 . S
C1580 C1581 1.404 . S
C1580 C1583 1.539 . S
C1581 C1577 1.408 . S
C1581 C1580 1.404 . S
C1581 H1593 0.930 . S
C1582 C1578 1.524 . S
C1582 H1594 0.956 . S
C1582 H1595 0.961 . S
C1582 H1596 0.961 . S
C1583 C1580 1.539 . S
C1583 H1597 0.958 . S
C1583 H1598 0.961 . S
C1583 H1599 0.960 . S
H1584 C1568 0.931 . S
H1585 C1573 0.929 . S
H1586 C1574 0.960 . S
H1587 C1574 0.962 . S
H1588 C1574 0.960 . S
H1589 C1575 0.961 . S
H1590 C1575 0.961 . S
H1591 C1575 0.961 . S
H1592 C1576 0.931 . S
H1593 C1581 0.930 . S
H1594 C1582 0.956 . S
H1595 C1582 0.961 . S
H1596 C1582 0.961 . S
H1597 C1583 0.958 . S
H1598 C1583 0.961 . S
H1599 C1583 0.960 . S
C1600 C1601 1.391 . S
C1600 C1602 1.394 . S
C1600 H1616 0.931 . S
C1601 C1600 1.391 . S
C1601 C1605 1.376 . S
C1602 C1600 1.394 . S
C1602 C1603 1.369 . S
C1602 C1606 1.531 . S
C1603 C1602 1.369 . S
C1603 C1604 1.410 . S
C1603 C1611 1.503 . S
C1604 C1603 1.410 . S
C1604 C1605 1.392 . S
C1604 C1607 1.511 . S
C1605 C1601 1.376 . S
C1605 C1604 1.392 . S
C1605 H1617 0.929 . S
C1606 C1602 1.531 . S
C1606 H1618 0.960 . S
C1606 H1619 0.962 . S
C1606 H1620 0.960 . S
C1607 C1604 1.511 . S
C1607 H1621 0.961 . S
C1607 H1622 0.961 . S
C1607 H1623 0.961 . S
C1608 C1609 1.370 . S
C1608 C1610 1.363 . S
C1608 H1624 0.931 . S
C1609 C1608 1.370 . S
C1609 C1613 1.408 . S
C1610 C1608 1.363 . S
C1610 C1611 1.370 . S
C1610 C1614 1.524 . S
C1611 C1603 1.503 . S
C1611 C1610 1.370 . S
C1611 C1612 1.403 . S
C1612 C1611 1.403 . S
C1612 C1613 1.404 . S
C1612 C1615 1.539 . S
C1613 C1609 1.408 . S
C1613 C1612 1.404 . S
C1613 H1625 0.930 . S
C1614 C1610 1.524 . S
C1614 H1626 0.956 . S
C1614 H1627 0.961 . S
C1614 H1628 0.961 . S
C1615 C1612 1.539 . S
C1615 H1629 0.958 . S
C1615 H1630 0.961 . S
C1615 H1631 0.960 . S
H1616 C1600 0.931 . S
H1617 C1605 0.929 . S
H1618 C1606 0.960 . S
H1619 C1606 0.962 . S
H1620 C1606 0.960 . S
H1621 C1607 0.961 . S
H1622 C1607 0.961 . S
H1623 C1607 0.961 . S
H1624 C1608 0.931 . S
H1625 C1613 0.930 . S
H1626 C1614 0.956 . S
H1627 C1614 0.961 . S
H1628 C1614 0.961 . S
H1629 C1615 0.958 . S
H1630 C1615 0.961 . S
H1631 C1615 0.960 . S
C1632 C1633 1.391 . S
C1632 C1634 1.394 . S
C1632 H1648 0.931 . S
C1633 C1632 1.391 . S
C1633 C1637 1.376 . S
C1634 C1632 1.394 . S
C1634 C1635 1.369 . S
C1634 C1638 1.531 . S
C1635 C1634 1.369 . S
C1635 C1636 1.410 . S
C1635 C1643 1.503 . S
C1636 C1635 1.410 . S
C1636 C1637 1.392 . S
C1636 C1639 1.511 . S
C1637 C1633 1.376 . S
C1637 C1636 1.392 . S
C1637 H1649 0.929 . S
C1638 C1634 1.531 . S
C1638 H1650 0.960 . S
C1638 H1651 0.962 . S
C1638 H1652 0.960 . S
C1639 C1636 1.511 . S
C1639 H1653 0.961 . S
C1639 H1654 0.961 . S
C1639 H1655 0.961 . S
C1640 C1641 1.370 . S
C1640 C1642 1.363 . S
C1640 H1656 0.931 . S
C1641 C1640 1.370 . S
C1641 C1645 1.408 . S
C1642 C1640 1.363 . S
C1642 C1643 1.370 . S
C1642 C1646 1.524 . S
C1643 C1635 1.503 . S
C1643 C1642 1.370 . S
C1643 C1644 1.403 . S
C1644 C1643 1.403 . S
C1644 C1645 1.404 . S
C1644 C1647 1.539 . S
C1645 C1641 1.408 . S
C1645 C1644 1.404 . S
C1645 H1657 0.930 . S
C1646 C1642 1.524 . S
C1646 H1658 0.956 . S
C1646 H1659 0.961 . S
C1646 H1660 0.961 . S
C1647 C1644 1.539 . S
C1647 H1661 0.958 . S
C1647 H1662 0.961 . S
C1647 H1663 0.960 . S
H1648 C1632 0.931 . S
H1649 C1637 0.929 . S
H1650 C1638 0.960 . S
H1651 C1638 0.962 . S
H1652 C1638 0.960 . S
H1653 C1639 0.961 . S
H1654 C1639 0.961 . S
H1655 C1639 0.961 . S
H1656 C1640 0.931 . S
H1657 C1645 0.930 . S
H1658 C1646 0.956 . S
H1659 C1646 0.961 . S
H1660 C1646 0.961 . S
H1661 C1647 0.958 . S
H1662 C1647 0.961 . S
H1663 C1647 0.960 . S
C1664 C1665 1.391 . S
C1664 C1666 1.394 . S
C1664 H1680 0.931 . S
C1665 C1664 1.391 . S
C1665 C1669 1.376 . S
C1666 C1664 1.394 . S
C1666 C1667 1.369 . S
C1666 C1670 1.531 . S
C1667 C1666 1.369 . S
C1667 C1668 1.410 . S
C1667 C1675 1.503 . S
C1668 C1667 1.410 . S
C1668 C1669 1.392 . S
C1668 C1671 1.511 . S
C1669 C1665 1.376 . S
C1669 C1668 1.392 . S
C1669 H1681 0.929 . S
C1670 C1666 1.531 . S
C1670 H1682 0.960 . S
C1670 H1683 0.962 . S
C1670 H1684 0.960 . S
C1671 C1668 1.511 . S
C1671 H1685 0.961 . S
C1671 H1686 0.961 . S
C1671 H1687 0.961 . S
C1672 C1673 1.370 . S
C1672 C1674 1.363 . S
C1672 H1688 0.931 . S
C1673 C1672 1.370 . S
C1673 C1677 1.408 . S
C1674 C1672 1.363 . S
C1674 C1675 1.370 . S
C1674 C1678 1.524 . S
C1675 C1667 1.503 . S
C1675 C1674 1.370 . S
C1675 C1676 1.403 . S
C1676 C1675 1.403 . S
C1676 C1677 1.404 . S
C1676 C1679 1.539 . S
C1677 C1673 1.408 . S
C1677 C1676 1.404 . S
C1677 H1689 0.930 . S
C1678 C1674 1.524 . S
C1678 H1690 0.956 . S
C1678 H1691 0.961 . S
C1678 H1692 0.961 . S
C1679 C1676 1.539 . S
C1679 H1693 0.958 . S
C1679 H1694 0.961 . S
C1679 H1695 0.960 . S
H1680 C1664 0.931 . S
H1681 C1669 0.929 . S
H1682 C1670 0.960 . S
H1683 C1670 0.962 . S
H1684 C1670 0.960 . S
H1685 C1671 0.961 . S
H1686 C1671 0.961 . S
H1687 C1671 0.961 . S
H1688 C1672 0.931 . S
H1689 C1677 0.930 . S
H1690 C1678 0.956 . S
H1691 C1678 0.961 . S
H1692 C1678 0.961 . S
H1693 C1679 0.958 . S
H1694 C1679 0.961 . S
H1695 C1679 0.960 . S
C1696 C1697 1.391 . S
C1696 C1698 1.394 . S
C1696 H1712 0.931 . S
C1697 C1696 1.391 . S
C1697 C1701 1.376 . S
C1698 C1696 1.394 . S
C1698 C1699 1.369 . S
C1698 C1702 1.531 . S
C1699 C1698 1.369 . S
C1699 C1700 1.410 . S
C1699 C1707 1.503 . S
C1700 C1699 1.410 . S
C1700 C1701 1.392 . S
C1700 C1703 1.511 . S
C1701 C1697 1.376 . S
C1701 C1700 1.392 . S
C1701 H1713 0.929 . S
C1702 C1698 1.531 . S
C1702 H1714 0.960 . S
C1702 H1715 0.962 . S
C1702 H1716 0.960 . S
C1703 C1700 1.511 . S
C1703 H1717 0.961 . S
C1703 H1718 0.961 . S
C1703 H1719 0.961 . S
C1704 C1705 1.370 . S
C1704 C1706 1.363 . S
C1704 H1720 0.931 . S
C1705 C1704 1.370 . S
C1705 C1709 1.408 . S
C1706 C1704 1.363 . S
C1706 C1707 1.370 . S
C1706 C1710 1.524 . S
C1707 C1699 1.503 . S
C1707 C1706 1.370 . S
C1707 C1708 1.403 . S
C1708 C1707 1.403 . S
C1708 C1709 1.404 . S
C1708 C1711 1.539 . S
C1709 C1705 1.408 . S
C1709 C1708 1.404 . S
C1709 H1721 0.930 . S
C1710 C1706 1.524 . S
C1710 H1722 0.956 . S
C1710 H1723 0.961 . S
C1710 H1724 0.961 . S
C1711 C1708 1.539 . S
C1711 H1725 0.958 . S
C1711 H1726 0.961 . S
C1711 H1727 0.960 . S
H1712 C1696 0.931 . S
H1713 C1701 0.929 . S
H1714 C1702 0.960 . S
H1715 C1702 0.962 . S
H1716 C1702 0.960 . S
H1717 C1703 0.961 . S
H1718 C1703 0.961 . S
H1719 C1703 0.961 . S
H1720 C1704 0.931 . S
H1721 C1709 0.930 . S
H1722 C1710 0.956 . S
H1723 C1710 0.961 . S
H1724 C1710 0.961 . S
H1725 C1711 0.958 . S
H1726 C1711 0.961 . S
H1727 C1711 0.960 . S
C1728 C1729 1.391 . S
C1728 C1730 1.394 . S
C1728 H1744 0.931 . S
C1729 C1728 1.391 . S
C1729 C1733 1.376 . S
C1730 C1728 1.394 . S
C1730 C1731 1.369 . S
C1730 C1734 1.531 . S
C1731 C1730 1.369 . S
C1731 C1732 1.410 . S
C1731 C1739 1.503 . S
C1732 C1731 1.410 . S
C1732 C1733 1.392 . S
C1732 C1735 1.511 . S
C1733 C1729 1.376 . S
C1733 C1732 1.392 . S
C1733 H1745 0.929 . S
C1734 C1730 1.531 . S
C1734 H1746 0.960 . S
C1734 H1747 0.962 . S
C1734 H1748 0.960 . S
C1735 C1732 1.511 . S
C1735 H1749 0.961 . S
C1735 H1750 0.961 . S
C1735 H1751 0.961 . S
C1736 C1737 1.370 . S
C1736 C1738 1.363 . S
C1736 H1752 0.931 . S
C1737 C1736 1.370 . S
C1737 C1741 1.408 . S
C1738 C1736 1.363 . S
C1738 C1739 1.370 . S
C1738 C1742 1.524 . S
C1739 C1731 1.503 . S
C1739 C1738 1.370 . S
C1739 C1740 1.403 . S
C1740 C1739 1.403 . S
C1740 C1741 1.404 . S
C1740 C1743 1.539 . S
C1741 C1737 1.408 . S
C1741 C1740 1.404 . S
C1741 H1753 0.930 . S
C1742 C1738 1.524 . S
C1742 H1754 0.956 . S
C1742 H1755 0.961 . S
C1742 H1756 0.961 . S
C1743 C1740 1.539 . S
C1743 H1757 0.958 . S
C1743 H1758 0.961 . S
C1743 H1759 0.960 . S
H1744 C1728 0.931 . S
H1745 C1733 0.929 . S
H1746 C1734 0.960 . S
H1747 C1734 0.962 . S
H1748 C1734 0.960 . S
H1749 C1735 0.961 . S
H1750 C1735 0.961 . S
H1751 C1735 0.961 . S
H1752 C1736 0.931 . S
H1753 C1741 0.930 . S
H1754 C1742 0.956 . S
H1755 C1742 0.961 . S
H1756 C1742 0.961 . S
H1757 C1743 0.958 . S
H1758 C1743 0.961 . S
H1759 C1743 0.960 . S
C1760 C1761 1.391 . S
C1760 C1762 1.394 . S
C1760 H1776 0.931 . S
C1761 C1760 1.391 . S
C1761 C1765 1.376 . S
C1762 C1760 1.394 . S
C1762 C1763 1.369 . S
C1762 C1766 1.531 . S
C1763 C1762 1.369 . S
C1763 C1764 1.410 . S
C1763 C1771 1.503 . S
C1764 C1763 1.410 . S
C1764 C1765 1.392 . S
C1764 C1767 1.511 . S
C1765 C1761 1.376 . S
C1765 C1764 1.392 . S
C1765 H1777 0.929 . S
C1766 C1762 1.531 . S
C1766 H1778 0.960 . S
C1766 H1779 0.962 . S
C1766 H1780 0.960 . S
C1767 C1764 1.511 . S
C1767 H1781 0.961 . S
C1767 H1782 0.961 . S
C1767 H1783 0.961 . S
C1768 C1769 1.370 . S
C1768 C1770 1.363 . S
C1768 H1784 0.931 . S
C1769 C1768 1.370 . S
C1769 C1773 1.408 . S
C1770 C1768 1.363 . S
C1770 C1771 1.370 . S
C1770 C1774 1.524 . S
C1771 C1763 1.503 . S
C1771 C1770 1.370 . S
C1771 C1772 1.403 . S
C1772 C1771 1.403 . S
C1772 C1773 1.404 . S
C1772 C1775 1.539 . S
C1773 C1769 1.408 . S
C1773 C1772 1.404 . S
C1773 H1785 0.930 . S
C1774 C1770 1.524 . S
C1774 H1786 0.956 . S
C1774 H1787 0.961 . S
C1774 H1788 0.961 . S
C1775 C1772 1.539 . S
C1775 H1789 0.958 . S
C1775 H1790 0.961 . S
C1775 H1791 0.960 . S
H1776 C1760 0.931 . S
H1777 C1765 0.929 . S
H1778 C1766 0.960 . S
H1779 C1766 0.962 . S
H1780 C1766 0.960 . S
H1781 C1767 0.961 . S
H1782 C1767 0.961 . S
H1783 C1767 0.961 . S
H1784 C1768 0.931 . S
H1785 C1773 0.930 . S
H1786 C1774 0.956 . S
H1787 C1774 0.961 . S
H1788 C1774 0.961 . S
H1789 C1775 0.958 . S
H1790 C1775 0.961 . S
H1791 C1775 0.960 . S
C1792 C1793 1.391 . S
C1792 C1794 1.394 . S
C1792 H1808 0.931 . S
C1793 C1792 1.391 . S
C1793 C1797 1.376 . S
C1794 C1792 1.394 . S
C1794 C1795 1.369 . S
C1794 C1798 1.531 . S
C1795 C1794 1.369 . S
C1795 C1796 1.410 . S
C1795 C1803 1.503 . S
C1796 C1795 1.410 . S
C1796 C1797 1.392 . S
C1796 C1799 1.511 . S
C1797 C1793 1.376 . S
C1797 C1796 1.392 . S
C1797 H1809 0.929 . S
C1798 C1794 1.531 . S
C1798 H1810 0.960 . S
C1798 H1811 0.962 . S
C1798 H1812 0.960 . S
C1799 C1796 1.511 . S
C1799 H1813 0.961 . S
C1799 H1814 0.961 . S
C1799 H1815 0.961 . S
C1800 C1801 1.370 . S
C1800 C1802 1.363 . S
C1800 H1816 0.931 . S
C1801 C1800 1.370 . S
C1801 C1805 1.408 . S
C1802 C1800 1.363 . S
C1802 C1803 1.370 . S
C1802 C1806 1.524 . S
C1803 C1795 1.503 . S
C1803 C1802 1.370 . S
C1803 C1804 1.403 . S
C1804 C1803 1.403 . S
C1804 C1805 1.404 . S
C1804 C1807 1.539 . S
C1805 C1801 1.408 . S
C1805 C1804 1.404 . S
C1805 H1817 0.930 . S
C1806 C1802 1.524 . S
C1806 H1818 0.956 . S
C1806 H1819 0.961 . S
C1806 H1820 0.961 . S
C1807 C1804 1.539 . S
C1807 H1821 0.958 . S
C1807 H1822 0.961 . S
C1807 H1823 0.960 . S
H1808 C1792 0.931 . S
H1809 C1797 0.929 . S
H1810 C1798 0.960 . S
H1811 C1798 0.962 . S
H1812 C1798 0.960 . S
H1813 C1799 0.961 . S
H1814 C1799 0.961 . S
H1815 C1799 0.961 . S
H1816 C1800 0.931 . S
H1817 C1805 0.930 . S
H1818 C1806 0.956 . S
H1819 C1806 0.961 . S
H1820 C1806 0.961 . S
H1821 C1807 0.958 . S
H1822 C1807 0.961 . S
H1823 C1807 0.960 . S
C1824 C1825 1.391 . S
C1824 C1826 1.394 . S
C1824 H1840 0.931 . S
C1825 C1824 1.391 . S
C1825 C1829 1.376 . S
C1826 C1824 1.394 . S
C1826 C1827 1.369 . S
C1826 C1830 1.531 . S
C1827 C1826 1.369 . S
C1827 C1828 1.410 . S
C1827 C1835 1.503 . S
C1828 C1827 1.410 . S
C1828 C1829 1.392 . S
C1828 C1831 1.511 . S
C1829 C1825 1.376 . S
C1829 C1828 1.392 . S
C1829 H1841 0.929 . S
C1830 C1826 1.531 . S
C1830 H1842 0.960 . S
C1830 H1843 0.962 . S
C1830 H1844 0.960 . S
C1831 C1828 1.511 . S
C1831 H1845 0.961 . S
C1831 H1846 0.961 . S
C1831 H1847 0.961 . S
C1832 C1833 1.370 . S
C1832 C1834 1.363 . S
C1832 H1848 0.931 . S
C1833 C1832 1.370 . S
C1833 C1837 1.408 . S
C1834 C1832 1.363 . S
C1834 C1835 1.370 . S
C1834 C1838 1.524 . S
C1835 C1827 1.503 . S
C1835 C1834 1.370 . S
C1835 C1836 1.403 . S
C1836 C1835 1.403 . S
C1836 C1837 1.404 . S
C1836 C1839 1.539 . S
C1837 C1833 1.408 . S
C1837 C1836 1.404 . S
C1837 H1849 0.930 . S
C1838 C1834 1.524 . S
C1838 H1850 0.956 . S
C1838 H1851 0.961 . S
C1838 H1852 0.961 . S
C1839 C1836 1.539 . S
C1839 H1853 0.958 . S
C1839 H1854 0.961 . S
C1839 H1855 0.960 . S
H1840 C1824 0.931 . S
H1841 C1829 0.929 . S
H1842 C1830 0.960 . S
H1843 C1830 0.962 . S
H1844 C1830 0.960 . S
H1845 C1831 0.961 . S
H1846 C1831 0.961 . S
H1847 C1831 0.961 . S
H1848 C1832 0.931 . S
H1849 C1837 0.930 . S
H1850 C1838 0.956 . S
H1851 C1838 0.961 . S
H1852 C1838 0.961 . S
H1853 C1839 0.958 . S
H1854 C1839 0.961 . S
H1855 C1839 0.960 . S
C1856 C1857 1.391 . S
C1856 C1858 1.394 . S
C1856 H1872 0.931 . S
C1857 C1856 1.391 . S
C1857 C1861 1.376 . S
C1858 C1856 1.394 . S
C1858 C1859 1.369 . S
C1858 C1862 1.531 . S
C1859 C1858 1.369 . S
C1859 C1860 1.410 . S
C1859 C1867 1.503 . S
C1860 C1859 1.410 . S
C1860 C1861 1.392 . S
C1860 C1863 1.511 . S
C1861 C1857 1.376 . S
C1861 C1860 1.392 . S
C1861 H1873 0.929 . S
C1862 C1858 1.531 . S
C1862 H1874 0.960 . S
C1862 H1875 0.962 . S
C1862 H1876 0.960 . S
C1863 C1860 1.511 . S
C1863 H1877 0.961 . S
C1863 H1878 0.961 . S
C1863 H1879 0.961 . S
C1864 C1865 1.370 . S
C1864 C1866 1.363 . S
C1864 H1880 0.931 . S
C1865 C1864 1.370 . S
C1865 C1869 1.408 . S
C1866 C1864 1.363 . S
C1866 C1867 1.370 . S
C1866 C1870 1.524 . S
C1867 C1859 1.503 . S
C1867 C1866 1.370 . S
C1867 C1868 1.403 . S
C1868 C1867 1.403 . S
C1868 C1869 1.404 . S
C1868 C1871 1.539 . S
C1869 C1865 1.408 . S
C1869 C1868 1.404 . S
C1869 H1881 0.930 . S
C1870 C1866 1.524 . S
C1870 H1882 0.956 . S
C1870 H1883 0.961 . S
C1870 H1884 0.961 . S
C1871 C1868 1.539 . S
C1871 H1885 0.958 . S
C1871 H1886 0.961 . S
C1871 H1887 0.960 . S
H1872 C1856 0.931 . S
H1873 C1861 0.929 . S
H1874 C1862 0.960 . S
H1875 C1862 0.962 . S
H1876 C1862 0.960 . S
H1877 C1863 0.961 . S
H1878 C1863 0.961 . S
H1879 C1863 0.961 . S
H1880 C1864 0.931 . S
H1881 C1869 0.930 . S
H1882 C1870 0.956 . S
H1883 C1870 0.961 . S
H1884 C1870 0.961 . S
H1885 C1871 0.958 . S
H1886 C1871 0.961 . S
H1887 C1871 0.960 . S
C1888 C1889 1.391 . S
C1888 C1890 1.394 . S
C1888 H1904 0.931 . S
C1889 C1888 1.391 . S
C1889 C1893 1.376 . S
C1890 C1888 1.394 . S
C1890 C1891 1.369 . S
C1890 C1894 1.531 . S
C1891 C1890 1.369 . S
C1891 C1892 1.410 . S
C1891 C1899 1.503 . S
C1892 C1891 1.410 . S
C1892 C1893 1.392 . S
C1892 C1895 1.511 . S
C1893 C1889 1.376 . S
C1893 C1892 1.392 . S
C1893 H1905 0.929 . S
C1894 C1890 1.531 . S
C1894 H1906 0.960 . S
C1894 H1907 0.962 . S
C1894 H1908 0.960 . S
C1895 C1892 1.511 . S
C1895 H1909 0.961 . S
C1895 H1910 0.961 . S
C1895 H1911 0.961 . S
C1896 C1897 1.370 . S
C1896 C1898 1.363 . S
C1896 H1912 0.931 . S
C1897 C1896 1.370 . S
C1897 C1901 1.408 . S
C1898 C1896 1.363 . S
C1898 C1899 1.370 . S
C1898 C1902 1.524 . S
C1899 C1891 1.503 . S
C1899 C1898 1.370 . S
C1899 C1900 1.403 . S
C1900 C1899 1.403 . S
C1900 C1901 1.404 . S
C1900 C1903 1.539 . S
C1901 C1897 1.408 . S
C1901 C1900 1.404 . S
C1901 H1913 0.930 . S
C1902 C1898 1.524 . S
C1902 H1914 0.956 . S
C1902 H1915 0.961 . S
C1902 H1916 0.961 . S
C1903 C1900 1.539 . S
C1903 H1917 0.958 . S
C1903 H1918 0.961 . S
C1903 H1919 0.960 . S
H1904 C1888 0.931 . S
H1905 C1893 0.929 . S
H1906 C1894 0.960 . S
H1907 C1894 0.962 . S
H1908 C1894 0.960 . S
H1909 C1895 0.961 . S
H1910 C1895 0.961 . S
H1911 C1895 0.961 . S
H1912 C1896 0.931 . S
H1913 C1901 0.930 . S
H1914 C1902 0.956 . S
H1915 C1902 0.961 . S
H1916 C1902 0.961 . S
H1917 C1903 0.958 . S
H1918 C1903 0.961 . S
H1919 C1903 0.960 . S
C1920 C1921 1.391 . S
C1920 C1922 1.394 . S
C1920 H1936 0.931 . S
C1921 C1920 1.391 . S
C1921 C1925 1.376 . S
C1922 C1920 1.394 . S
C1922 C1923 1.369 . S
C1922 C1926 1.531 . S
C1923 C1922 1.369 . S
C1923 C1924 1.410 . S
C1923 C1931 1.503 . S
C1924 C1923 1.410 . S
C1924 C1925 1.392 . S
C1924 C1927 1.511 . S
C1925 C1921 1.376 . S
C1925 C1924 1.392 . S
C1925 H1937 0.929 . S
C1926 C1922 1.531 . S
C1926 H1938 0.960 . S
C1926 H1939 0.962 . S
C1926 H1940 0.960 . S
C1927 C1924 1.511 . S
C1927 H1941 0.961 . S
C1927 H1942 0.961 . S
C1927 H1943 0.961 . S
C1928 C1929 1.370 . S
C1928 C1930 1.363 . S
C1928 H1944 0.931 . S
C1929 C1928 1.370 . S
C1929 C1933 1.408 . S
C1930 C1928 1.363 . S
C1930 C1931 1.370 . S
C1930 C1934 1.524 . S
C1931 C1923 1.503 . S
C1931 C1930 1.370 . S
C1931 C1932 1.403 . S
C1932 C1931 1.403 . S
C1932 C1933 1.404 . S
C1932 C1935 1.539 . S
C1933 C1929 1.408 . S
C1933 C1932 1.404 . S
C1933 H1945 0.930 . S
C1934 C1930 1.524 . S
C1934 H1946 0.956 . S
C1934 H1947 0.961 . S
C1934 H1948 0.961 . S
C1935 C1932 1.539 . S
C1935 H1949 0.958 . S
C1935 H1950 0.961 . S
C1935 H1951 0.960 . S
H1936 C1920 0.931 . S
H1937 C1925 0.929 . S
H1938 C1926 0.960 . S
H1939 C1926 0.962 . S
H1940 C1926 0.960 . S
H1941 C1927 0.961 . S
H1942 C1927 0.961 . S
H1943 C1927 0.961 . S
H1944 C1928 0.931 . S
H1945 C1933 0.930 . S
H1946 C1934 0.956 . S
H1947 C1934 0.961 . S
H1948 C1934 0.961 . S
H1949 C1935 0.958 . S
H1950 C1935 0.961 . S
H1951 C1935 0.960 . S
C1952 C1953 1.391 . S
C1952 C1954 1.394 . S
C1952 H1968 0.931 . S
C1953 C1952 1.391 . S
C1953 C1957 1.376 . S
C1954 C1952 1.394 . S
C1954 C1955 1.369 . S
C1954 C1958 1.531 . S
C1955 C1954 1.369 . S
C1955 C1956 1.410 . S
C1955 C1963 1.503 . S
C1956 C1955 1.410 . S
C1956 C1957 1.392 . S
C1956 C1959 1.511 . S
C1957 C1953 1.376 . S
C1957 C1956 1.392 . S
C1957 H1969 0.929 . S
C1958 C1954 1.531 . S
C1958 H1970 0.960 . S
C1958 H1971 0.962 . S
C1958 H1972 0.960 . S
C1959 C1956 1.511 . S
C1959 H1973 0.961 . S
C1959 H1974 0.961 . S
C1959 H1975 0.961 . S
C1960 C1961 1.370 . S
C1960 C1962 1.363 . S
C1960 H1976 0.931 . S
C1961 C1960 1.370 . S
C1961 C1965 1.408 . S
C1962 C1960 1.363 . S
C1962 C1963 1.370 . S
C1962 C1966 1.524 . S
C1963 C1955 1.503 . S
C1963 C1962 1.370 . S
C1963 C1964 1.403 . S
C1964 C1963 1.403 . S
C1964 C1965 1.404 . S
C1964 C1967 1.539 . S
C1965 C1961 1.408 . S
C1965 C1964 1.404 . S
C1965 H1977 0.930 . S
C1966 C1962 1.524 . S
C1966 H1978 0.956 . S
C1966 H1979 0.961 . S
C1966 H1980 0.961 . S
C1967 C1964 1.539 . S
C1967 H1981 0.958 . S
C1967 H1982 0.961 . S
C1967 H1983 0.960 . S
H1968 C1952 0.931 . S
H1969 C1957 0.929 . S
H1970 C1958 0.960 . S
H1971 C1958 0.962 . S
H1972 C1958 0.960 . S
H1973 C1959 0.961 . S
H1974 C1959 0.961 . S
H1975 C1959 0.961 . S
H1976 C1960 0.931 . S
H1977 C1965 0.930 . S
H1978 C1966 0.956 . S
H1979 C1966 0.961 . S
H1980 C1966 0.961 . S
H1981 C1967 0.958 . S
H1982 C1967 0.961 . S
H1983 C1967 0.960 . S
C1984 C1985 1.391 . S
C1984 C1986 1.394 . S
C1984 H2000 0.931 . S
C1985 C1984 1.391 . S
C1985 C1989 1.376 . S
C1986 C1984 1.394 . S
C1986 C1987 1.369 . S
C1986 C1990 1.531 . S
C1987 C1986 1.369 . S
C1987 C1988 1.410 . S
C1987 C1995 1.503 . S
C1988 C1987 1.410 . S
C1988 C1989 1.392 . S
C1988 C1991 1.511 . S
C1989 C1985 1.376 . S
C1989 C1988 1.392 . S
C1989 H2001 0.929 . S
C1990 C1986 1.531 . S
C1990 H2002 0.960 . S
C1990 H2003 0.962 . S
C1990 H2004 0.960 . S
C1991 C1988 1.511 . S
C1991 H2005 0.961 . S
C1991 H2006 0.961 . S
C1991 H2007 0.961 . S
C1992 C1993 1.370 . S
C1992 C1994 1.363 . S
C1992 H2008 0.931 . S
C1993 C1992 1.370 . S
C1993 C1997 1.408 . S
C1994 C1992 1.363 . S
C1994 C1995 1.370 . S
C1994 C1998 1.524 . S
C1995 C1987 1.503 . S
C1995 C1994 1.370 . S
C1995 C1996 1.403 . S
C1996 C1995 1.403 . S
C1996 C1997 1.404 . S
C1996 C1999 1.539 . S
C1997 C1993 1.408 . S
C1997 C1996 1.404 . S
C1997 H2009 0.930 . S
C1998 C1994 1.524 . S
C1998 H2010 0.956 . S
C1998 H2011 0.961 . S
C1998 H2012 0.961 . S
C1999 C1996 1.539 . S
C1999 H2013 0.958 . S
C1999 H2014 0.961 . S
C1999 H2015 0.960 . S
H2000 C1984 0.931 . S
H2001 C1989 0.929 . S
H2002 C1990 0.960 . S
H2003 C1990 0.962 . S
H2004 C1990 0.960 . S
H2005 C1991 0.961 . S
H2006 C1991 0.961 . S
H2007 C1991 0.961 . S
H2008 C1992 0.931 . S
H2009 C1997 0.930 . S
H2010 C1998 0.956 . S
H2011 C1998 0.961 . S
H2012 C1998 0.961 . S
H2013 C1999 0.958 . S
H2014 C1999 0.961 . S
H2015 C1999 0.960 . S
C2016 C2017 1.391 . S
C2016 C2018 1.394 . S
C2016 H2032 0.931 . S
C2017 C2016 1.391 . S
C2017 C2021 1.376 . S
C2018 C2016 1.394 . S
C2018 C2019 1.369 . S
C2018 C2022 1.531 . S
C2019 C2018 1.369 . S
C2019 C2020 1.410 . S
C2019 C2027 1.503 . S
C2020 C2019 1.410 . S
C2020 C2021 1.392 . S
C2020 C2023 1.511 . S
C2021 C2017 1.376 . S
C2021 C2020 1.392 . S
C2021 H2033 0.929 . S
C2022 C2018 1.531 . S
C2022 H2034 0.960 . S
C2022 H2035 0.962 . S
C2022 H2036 0.960 . S
C2023 C2020 1.511 . S
C2023 H2037 0.961 . S
C2023 H2038 0.961 . S
C2023 H2039 0.961 . S
C2024 C2025 1.370 . S
C2024 C2026 1.363 . S
C2024 H2040 0.931 . S
C2025 C2024 1.370 . S
C2025 C2029 1.408 . S
C2026 C2024 1.363 . S
C2026 C2027 1.370 . S
C2026 C2030 1.524 . S
C2027 C2019 1.503 . S
C2027 C2026 1.370 . S
C2027 C2028 1.403 . S
C2028 C2027 1.403 . S
C2028 C2029 1.404 . S
C2028 C2031 1.539 . S
C2029 C2025 1.408 . S
C2029 C2028 1.404 . S
C2029 H2041 0.930 . S
C2030 C2026 1.524 . S
C2030 H2042 0.956 . S
C2030 H2043 0.961 . S
C2030 H2044 0.961 . S
C2031 C2028 1.539 . S
C2031 H2045 0.958 . S
C2031 H2046 0.961 . S
C2031 H2047 0.960 . S
H2032 C2016 0.931 . S
H2033 C2021 0.929 . S
H2034 C2022 0.960 . S
H2035 C2022 0.962 . S
H2036 C2022 0.960 . S
H2037 C2023 0.961 . S
H2038 C2023 0.961 . S
H2039 C2023 0.961 . S
H2040 C2024 0.931 . S
H2041 C2029 0.930 . S
H2042 C2030 0.956 . S
H2043 C2030 0.961 . S
H2044 C2030 0.961 . S
H2045 C2031 0.958 . S
H2046 C2031 0.961 . S
H2047 C2031 0.960 . S
C2048 C2049 1.391 . S
C2048 C2050 1.394 . S
C2048 H2064 0.931 . S
C2049 C2048 1.391 . S
C2049 C2053 1.376 . S
C2050 C2048 1.394 . S
C2050 C2051 1.369 . S
C2050 C2054 1.531 . S
C2051 C2050 1.369 . S
C2051 C2052 1.410 . S
C2051 C2059 1.503 . S
C2052 C2051 1.410 . S
C2052 C2053 1.392 . S
C2052 C2055 1.511 . S
C2053 C2049 1.376 . S
C2053 C2052 1.392 . S
C2053 H2065 0.929 . S
C2054 C2050 1.531 . S
C2054 H2066 0.960 . S
C2054 H2067 0.962 . S
C2054 H2068 0.960 . S
C2055 C2052 1.511 . S
C2055 H2069 0.961 . S
C2055 H2070 0.961 . S
C2055 H2071 0.961 . S
C2056 C2057 1.370 . S
C2056 C2058 1.363 . S
C2056 H2072 0.931 . S
C2057 C2056 1.370 . S
C2057 C2061 1.408 . S
C2058 C2056 1.363 . S
C2058 C2059 1.370 . S
C2058 C2062 1.524 . S
C2059 C2051 1.503 . S
C2059 C2058 1.370 . S
C2059 C2060 1.403 . S
C2060 C2059 1.403 . S
C2060 C2061 1.404 . S
C2060 C2063 1.539 . S
C2061 C2057 1.408 . S
C2061 C2060 1.404 . S
C2061 H2073 0.930 . S
C2062 C2058 1.524 . S
C2062 H2074 0.956 . S
C2062 H2075 0.961 . S
C2062 H2076 0.961 . S
C2063 C2060 1.539 . S
C2063 H2077 0.958 . S
C2063 H2078 0.961 . S
C2063 H2079 0.960 . S
H2064 C2048 0.931 . S
H2065 C2053 0.929 . S
H2066 C2054 0.960 . S
H2067 C2054 0.962 . S
H2068 C2054 0.960 . S
H2069 C2055 0.961 . S
H2070 C2055 0.961 . S
H2071 C2055 0.961 . S
H2072 C2056 0.931 . S
H2073 C2061 0.930 . S
H2074 C2062 0.956 . S
H2075 C2062 0.961 . S
H2076 C2062 0.961 . S
H2077 C2063 0.958 . S
H2078 C2063 0.961 . S
H2079 C2063 0.960 . S
C2080 C2081 1.391 . S
C2080 C2082 1.394 . S
C2080 H2096 0.931 . S
C2081 C2080 1.391 . S
C2081 C2085 1.376 . S
C2082 C2080 1.394 . S
C2082 C2083 1.369 . S
C2082 C2086 1.531 . S
C2083 C2082 1.369 . S
C2083 C2084 1.410 . S
C2083 C2091 1.503 . S
C2084 C2083 1.410 . S
C2084 C2085 1.392 . S
C2084 C2087 1.511 . S
C2085 C2081 1.376 . S
C2085 C2084 1.392 . S
C2085 H2097 0.929 . S
C2086 C2082 1.531 . S
C2086 H2098 0.960 . S
C2086 H2099 0.962 . S
C2086 H2100 0.960 . S
C2087 C2084 1.511 . S
C2087 H2101 0.961 . S
C2087 H2102 0.961 . S
C2087 H2103 0.961 . S
C2088 C2089 1.370 . S
C2088 C2090 1.363 . S
C2088 H2104 0.931 . S
C2089 C2088 1.370 . S
C2089 C2093 1.408 . S
C2090 C2088 1.363 . S
C2090 C2091 1.370 . S
C2090 C2094 1.524 . S
C2091 C2083 1.503 . S
C2091 C2090 1.370 . S
C2091 C2092 1.403 . S
C2092 C2091 1.403 . S
C2092 C2093 1.404 . S
C2092 C2095 1.539 . S
C2093 C2089 1.408 . S
C2093 C2092 1.404 . S
C2093 H2105 0.930 . S
C2094 C2090 1.524 . S
C2094 H2106 0.956 . S
C2094 H2107 0.961 . S
C2094 H2108 0.961 . S
C2095 C2092 1.539 . S
C2095 H2109 0.958 . S
C2095 H2110 0.961 . S
C2095 H2111 0.960 . S
H2096 C2080 0.931 . S
H2097 C2085 0.929 . S
H2098 C2086 0.960 . S
H2099 C2086 0.962 . S
H2100 C2086 0.960 . S
H2101 C2087 0.961 . S
H2102 C2087 0.961 . S
H2103 C2087 0.961 . S
H2104 C2088 0.931 . S
H2105 C2093 0.930 . S
H2106 C2094 0.956 . S
H2107 C2094 0.961 . S
H2108 C2094 0.961 . S
H2109 C2095 0.958 . S
H2110 C2095 0.961 . S
H2111 C2095 0.960 . S
C2112 C2113 1.391 . S
C2112 C2114 1.394 . S
C2112 H2128 0.931 . S
C2113 C2112 1.391 . S
C2113 C2117 1.376 . S
C2114 C2112 1.394 . S
C2114 C2115 1.369 . S
C2114 C2118 1.531 . S
C2115 C2114 1.369 . S
C2115 C2116 1.410 . S
C2115 C2123 1.503 . S
C2116 C2115 1.410 . S
C2116 C2117 1.392 . S
C2116 C2119 1.511 . S
C2117 C2113 1.376 . S
C2117 C2116 1.392 . S
C2117 H2129 0.929 . S
C2118 C2114 1.531 . S
C2118 H2130 0.960 . S
C2118 H2131 0.962 . S
C2118 H2132 0.960 . S
C2119 C2116 1.511 . S
C2119 H2133 0.961 . S
C2119 H2134 0.961 . S
C2119 H2135 0.961 . S
C2120 C2121 1.370 . S
C2120 C2122 1.363 . S
C2120 H2136 0.931 . S
C2121 C2120 1.370 . S
C2121 C2125 1.408 . S
C2122 C2120 1.363 . S
C2122 C2123 1.370 . S
C2122 C2126 1.524 . S
C2123 C2115 1.503 . S
C2123 C2122 1.370 . S
C2123 C2124 1.403 . S
C2124 C2123 1.403 . S
C2124 C2125 1.404 . S
C2124 C2127 1.539 . S
C2125 C2121 1.408 . S
C2125 C2124 1.404 . S
C2125 H2137 0.930 . S
C2126 C2122 1.524 . S
C2126 H2138 0.956 . S
C2126 H2139 0.961 . S
C2126 H2140 0.961 . S
C2127 C2124 1.539 . S
C2127 H2141 0.958 . S
C2127 H2142 0.961 . S
C2127 H2143 0.960 . S
H2128 C2112 0.931 . S
H2129 C2117 0.929 . S
H2130 C2118 0.960 . S
H2131 C2118 0.962 . S
H2132 C2118 0.960 . S
H2133 C2119 0.961 . S
H2134 C2119 0.961 . S
H2135 C2119 0.961 . S
H2136 C2120 0.931 . S
H2137 C2125 0.930 . S
H2138 C2126 0.956 . S
H2139 C2126 0.961 . S
H2140 C2126 0.961 . S
H2141 C2127 0.958 . S
H2142 C2127 0.961 . S
H2143 C2127 0.960 . S
C2144 C2145 1.391 . S
C2144 C2146 1.394 . S
C2144 H2160 0.931 . S
C2145 C2144 1.391 . S
C2145 C2149 1.376 . S
C2146 C2144 1.394 . S
C2146 C2147 1.369 . S
C2146 C2150 1.531 . S
C2147 C2146 1.369 . S
C2147 C2148 1.410 . S
C2147 C2155 1.503 . S
C2148 C2147 1.410 . S
C2148 C2149 1.392 . S
C2148 C2151 1.511 . S
C2149 C2145 1.376 . S
C2149 C2148 1.392 . S
C2149 H2161 0.929 . S
C2150 C2146 1.531 . S
C2150 H2162 0.960 . S
C2150 H2163 0.962 . S
C2150 H2164 0.960 . S
C2151 C2148 1.511 . S
C2151 H2165 0.961 . S
C2151 H2166 0.961 . S
C2151 H2167 0.961 . S
C2152 C2153 1.370 . S
C2152 C2154 1.363 . S
C2152 H2168 0.931 . S
C2153 C2152 1.370 . S
C2153 C2157 1.408 . S
C2154 C2152 1.363 . S
C2154 C2155 1.370 . S
C2154 C2158 1.524 . S
C2155 C2147 1.503 . S
C2155 C2154 1.370 . S
C2155 C2156 1.403 . S
C2156 C2155 1.403 . S
C2156 C2157 1.404 . S
C2156 C2159 1.539 . S
C2157 C2153 1.408 . S
C2157 C2156 1.404 . S
C2157 H2169 0.930 . S
C2158 C2154 1.524 . S
C2158 H2170 0.956 . S
C2158 H2171 0.961 . S
C2158 H2172 0.961 . S
C2159 C2156 1.539 . S
C2159 H2173 0.958 . S
C2159 H2174 0.961 . S
C2159 H2175 0.960 . S
H2160 C2144 0.931 . S
H2161 C2149 0.929 . S
H2162 C2150 0.960 . S
H2163 C2150 0.962 . S
H2164 C2150 0.960 . S
H2165 C2151 0.961 . S
H2166 C2151 0.961 . S
H2167 C2151 0.961 . S
H2168 C2152 0.931 . S
H2169 C2157 0.930 . S
H2170 C2158 0.956 . S
H2171 C2158 0.961 . S
H2172 C2158 0.961 . S
H2173 C2159 0.958 . S
H2174 C2159 0.961 . S
H2175 C2159 0.960 . S
C2176 C2177 1.391 . S
C2176 C2178 1.394 . S
C2176 H2192 0.931 . S
C2177 C2176 1.391 . S
C2177 C2181 1.376 . S
C2178 C2176 1.394 . S
C2178 C2179 1.369 . S
C2178 C2182 1.531 . S
C2179 C2178 1.369 . S
C2179 C2180 1.410 . S
C2179 C2187 1.503 . S
C2180 C2179 1.410 . S
C2180 C2181 1.392 . S
C2180 C2183 1.511 . S
C2181 C2177 1.376 . S
C2181 C2180 1.392 . S
C2181 H2193 0.929 . S
C2182 C2178 1.531 . S
C2182 H2194 0.960 . S
C2182 H2195 0.962 . S
C2182 H2196 0.960 . S
C2183 C2180 1.511 . S
C2183 H2197 0.961 . S
C2183 H2198 0.961 . S
C2183 H2199 0.961 . S
C2184 C2185 1.370 . S
C2184 C2186 1.363 . S
C2184 H2200 0.931 . S
C2185 C2184 1.370 . S
C2185 C2189 1.408 . S
C2186 C2184 1.363 . S
C2186 C2187 1.370 . S
C2186 C2190 1.524 . S
C2187 C2179 1.503 . S
C2187 C2186 1.370 . S
C2187 C2188 1.403 . S
C2188 C2187 1.403 . S
C2188 C2189 1.404 . S
C2188 C2191 1.539 . S
C2189 C2185 1.408 . S
C2189 C2188 1.404 . S
C2189 H2201 0.930 . S
C2190 C2186 1.524 . S
C2190 H2202 0.956 . S
C2190 H2203 0.961 . S
C2190 H2204 0.961 . S
C2191 C2188 1.539 . S
C2191 H2205 0.958 . S
C2191 H2206 0.961 . S
C2191 H2207 0.960 . S
H2192 C2176 0.931 . S
H2193 C2181 0.929 . S
H2194 C2182 0.960 . S
H2195 C2182 0.962 . S
H2196 C2182 0.960 . S
H2197 C2183 0.961 . S
H2198 C2183 0.961 . S
H2199 C2183 0.961 . S
H2200 C2184 0.931 . S
H2201 C2189 0.930 . S
H2202 C2190 0.956 . S
H2203 C2190 0.961 . S
H2204 C2190 0.961 . S
H2205 C2191 0.958 . S
H2206 C2191 0.961 . S
H2207 C2191 0.960 . S
C2208 C2209 1.391 . S
C2208 C2210 1.394 . S
C2208 H2224 0.931 . S
C2209 C2208 1.391 . S
C2209 C2213 1.376 . S
C2210 C2208 1.394 . S
C2210 C2211 1.369 . S
C2210 C2214 1.531 . S
C2211 C2210 1.369 . S
C2211 C2212 1.410 . S
C2211 C2219 1.503 . S
C2212 C2211 1.410 . S
C2212 C2213 1.392 . S
C2212 C2215 1.511 . S
C2213 C2209 1.376 . S
C2213 C2212 1.392 . S
C2213 H2225 0.929 . S
C2214 C2210 1.531 . S
C2214 H2226 0.960 . S
C2214 H2227 0.962 . S
C2214 H2228 0.960 . S
C2215 C2212 1.511 . S
C2215 H2229 0.961 . S
C2215 H2230 0.961 . S
C2215 H2231 0.961 . S
C2216 C2217 1.370 . S
C2216 C2218 1.363 . S
C2216 H2232 0.931 . S
C2217 C2216 1.370 . S
C2217 C2221 1.408 . S
C2218 C2216 1.363 . S
C2218 C2219 1.370 . S
C2218 C2222 1.524 . S
C2219 C2211 1.503 . S
C2219 C2218 1.370 . S
C2219 C2220 1.403 . S
C2220 C2219 1.403 . S
C2220 C2221 1.404 . S
C2220 C2223 1.539 . S
C2221 C2217 1.408 . S
C2221 C2220 1.404 . S
C2221 H2233 0.930 . S
C2222 C2218 1.524 . S
C2222 H2234 0.956 . S
C2222 H2235 0.961 . S
C2222 H2236 0.961 . S
C2223 C2220 1.539 . S
C2223 H2237 0.958 . S
C2223 H2238 0.961 . S
C2223 H2239 0.960 . S
H2224 C2208 0.931 . S
H2225 C2213 0.929 . S
H2226 C2214 0.960 . S
H2227 C2214 0.962 . S
H2228 C2214 0.960 . S
H2229 C2215 0.961 . S
H2230 C2215 0.961 . S
H2231 C2215 0.961 . S
H2232 C2216 0.931 . S
H2233 C2221 0.930 . S
H2234 C2222 0.956 . S
H2235 C2222 0.961 . S
H2236 C2222 0.961 . S
H2237 C2223 0.958 . S
H2238 C2223 0.961 . S
H2239 C2223 0.960 . S
C2240 C2241 1.391 . S
C2240 C2242 1.394 . S
C2240 H2256 0.931 . S
C2241 C2240 1.391 . S
C2241 C2245 1.376 . S
C2242 C2240 1.394 . S
C2242 C2243 1.369 . S
C2242 C2246 1.531 . S
C2243 C2242 1.369 . S
C2243 C2244 1.410 . S
C2243 C2251 1.503 . S
C2244 C2243 1.410 . S
C2244 C2245 1.392 . S
C2244 C2247 1.511 . S
C2245 C2241 1.376 . S
C2245 C2244 1.392 . S
C2245 H2257 0.929 . S
C2246 C2242 1.531 . S
C2246 H2258 0.960 . S
C2246 H2259 0.962 . S
C2246 H2260 0.960 . S
C2247 C2244 1.511 . S
C2247 H2261 0.961 . S
C2247 H2262 0.961 . S
C2247 H2263 0.961 . S
C2248 C2249 1.370 . S
C2248 C2250 1.363 . S
C2248 H2264 0.931 . S
C2249 C2248 1.370 . S
C2249 C2253 1.408 . S
C2250 C2248 1.363 . S
C2250 C2251 1.370 . S
C2250 C2254 1.524 . S
C2251 C2243 1.503 . S
C2251 C2250 1.370 . S
C2251 C2252 1.403 . S
C2252 C2251 1.403 . S
C2252 C2253 1.404 . S
C2252 C2255 1.539 . S
C2253 C2249 1.408 . S
C2253 C2252 1.404 . S
C2253 H2265 0.930 . S
C2254 C2250 1.524 . S
C2254 H2266 0.956 . S
C2254 H2267 0.961 . S
C2254 H2268 0.961 . S
C2255 C2252 1.539 . S
C2255 H2269 0.958 . S
C2255 H2270 0.961 . S
C2255 H2271 0.960 . S
H2256 C2240 0.931 . S
H2257 C2245 0.929 . S
H2258 C2246 0.960 . S
H2259 C2246 0.962 . S
H2260 C2246 0.960 . S
H2261 C2247 0.961 . S
H2262 C2247 0.961 . S
H2263 C2247 0.961 . S
H2264 C2248 0.931 . S
H2265 C2253 0.930 . S
H2266 C2254 0.956 . S
H2267 C2254 0.961 . S
H2268 C2254 0.961 . S
H2269 C2255 0.958 . S
H2270 C2255 0.961 . S
H2271 C2255 0.960 . S
C2272 C2273 1.391 . S
C2272 C2274 1.394 . S
C2272 H2288 0.931 . S
C2273 C2272 1.391 . S
C2273 C2277 1.376 . S
C2274 C2272 1.394 . S
C2274 C2275 1.369 . S
C2274 C2278 1.531 . S
C2275 C2274 1.369 . S
C2275 C2276 1.410 . S
C2275 C2283 1.503 . S
C2276 C2275 1.410 . S
C2276 C2277 1.392 . S
C2276 C2279 1.511 . S
C2277 C2273 1.376 . S
C2277 C2276 1.392 . S
C2277 H2289 0.929 . S
C2278 C2274 1.531 . S
C2278 H2290 0.960 . S
C2278 H2291 0.962 . S
C2278 H2292 0.960 . S
C2279 C2276 1.511 . S
C2279 H2293 0.961 . S
C2279 H2294 0.961 . S
C2279 H2295 0.961 . S
C2280 C2281 1.370 . S
C2280 C2282 1.363 . S
C2280 H2296 0.931 . S
C2281 C2280 1.370 . S
C2281 C2285 1.408 . S
C2282 C2280 1.363 . S
C2282 C2283 1.370 . S
C2282 C2286 1.524 . S
C2283 C2275 1.503 . S
C2283 C2282 1.370 . S
C2283 C2284 1.403 . S
C2284 C2283 1.403 . S
C2284 C2285 1.404 . S
C2284 C2287 1.539 . S
C2285 C2281 1.408 . S
C2285 C2284 1.404 . S
C2285 H2297 0.930 . S
C2286 C2282 1.524 . S
C2286 H2298 0.956 . S
C2286 H2299 0.961 . S
C2286 H2300 0.961 . S
C2287 C2284 1.539 . S
C2287 H2301 0.958 . S
C2287 H2302 0.961 . S
C2287 H2303 0.960 . S
H2288 C2272 0.931 . S
H2289 C2277 0.929 . S
H2290 C2278 0.960 . S
H2291 C2278 0.962 . S
H2292 C2278 0.960 . S
H2293 C2279 0.961 . S
H2294 C2279 0.961 . S
H2295 C2279 0.961 . S
H2296 C2280 0.931 . S
H2297 C2285 0.930 . S
H2298 C2286 0.956 . S
H2299 C2286 0.961 . S
H2300 C2286 0.961 . S
H2301 C2287 0.958 . S
H2302 C2287 0.961 . S
H2303 C2287 0.960 . S
C2304 C2305 1.391 . S
C2304 C2306 1.394 . S
C2304 H2320 0.931 . S
C2305 C2304 1.391 . S
C2305 C2309 1.376 . S
C2306 C2304 1.394 . S
C2306 C2307 1.369 . S
C2306 C2310 1.531 . S
C2307 C2306 1.369 . S
C2307 C2308 1.410 . S
C2307 C2315 1.503 . S
C2308 C2307 1.410 . S
C2308 C2309 1.392 . S
C2308 C2311 1.511 . S
C2309 C2305 1.376 . S
C2309 C2308 1.392 . S
C2309 H2321 0.929 . S
C2310 C2306 1.531 . S
C2310 H2322 0.960 . S
C2310 H2323 0.962 . S
C2310 H2324 0.960 . S
C2311 C2308 1.511 . S
C2311 H2325 0.961 . S
C2311 H2326 0.961 . S
C2311 H2327 0.961 . S
C2312 C2313 1.370 . S
C2312 C2314 1.363 . S
C2312 H2328 0.931 . S
C2313 C2312 1.370 . S
C2313 C2317 1.408 . S
C2314 C2312 1.363 . S
C2314 C2315 1.370 . S
C2314 C2318 1.524 . S
C2315 C2307 1.503 . S
C2315 C2314 1.370 . S
C2315 C2316 1.403 . S
C2316 C2315 1.403 . S
C2316 C2317 1.404 . S
C2316 C2319 1.539 . S
C2317 C2313 1.408 . S
C2317 C2316 1.404 . S
C2317 H2329 0.930 . S
C2318 C2314 1.524 . S
C2318 H2330 0.956 . S
C2318 H2331 0.961 . S
C2318 H2332 0.961 . S
C2319 C2316 1.539 . S
C2319 H2333 0.958 . S
C2319 H2334 0.961 . S
C2319 H2335 0.960 . S
H2320 C2304 0.931 . S
H2321 C2309 0.929 . S
H2322 C2310 0.960 . S
H2323 C2310 0.962 . S
H2324 C2310 0.960 . S
H2325 C2311 0.961 . S
H2326 C2311 0.961 . S
H2327 C2311 0.961 . S
H2328 C2312 0.931 . S
H2329 C2317 0.930 . S
H2330 C2318 0.956 . S
H2331 C2318 0.961 . S
H2332 C2318 0.961 . S
H2333 C2319 0.958 . S
H2334 C2319 0.961 . S
H2335 C2319 0.960 . S
C2336 C2337 1.391 . S
C2336 C2338 1.394 . S
C2336 H2352 0.931 . S
C2337 C2336 1.391 . S
C2337 C2341 1.376 . S
C2338 C2336 1.394 . S
C2338 C2339 1.369 . S
C2338 C2342 1.531 . S
C2339 C2338 1.369 . S
C2339 C2340 1.410 . S
C2339 C2347 1.503 . S
C2340 C2339 1.410 . S
C2340 C2341 1.392 . S
C2340 C2343 1.511 . S
C2341 C2337 1.376 . S
C2341 C2340 1.392 . S
C2341 H2353 0.929 . S
C2342 C2338 1.531 . S
C2342 H2354 0.960 . S
C2342 H2355 0.962 . S
C2342 H2356 0.960 . S
C2343 C2340 1.511 . S
C2343 H2357 0.961 . S
C2343 H2358 0.961 . S
C2343 H2359 0.961 . S
C2344 C2345 1.370 . S
C2344 C2346 1.363 . S
C2344 H2360 0.931 . S
C2345 C2344 1.370 . S
C2345 C2349 1.408 . S
C2346 C2344 1.363 . S
C2346 C2347 1.370 . S
C2346 C2350 1.524 . S
C2347 C2339 1.503 . S
C2347 C2346 1.370 . S
C2347 C2348 1.403 . S
C2348 C2347 1.403 . S
C2348 C2349 1.404 . S
C2348 C2351 1.539 . S
C2349 C2345 1.408 . S
C2349 C2348 1.404 . S
C2349 H2361 0.930 . S
C2350 C2346 1.524 . S
C2350 H2362 0.956 . S
C2350 H2363 0.961 . S
C2350 H2364 0.961 . S
C2351 C2348 1.539 . S
C2351 H2365 0.958 . S
C2351 H2366 0.961 . S
C2351 H2367 0.960 . S
H2352 C2336 0.931 . S
H2353 C2341 0.929 . S
H2354 C2342 0.960 . S
H2355 C2342 0.962 . S
H2356 C2342 0.960 . S
H2357 C2343 0.961 . S
H2358 C2343 0.961 . S
H2359 C2343 0.961 . S
H2360 C2344 0.931 . S
H2361 C2349 0.930 . S
H2362 C2350 0.956 . S
H2363 C2350 0.961 . S
H2364 C2350 0.961 . S
H2365 C2351 0.958 . S
H2366 C2351 0.961 . S
H2367 C2351 0.960 . S
C2368 C2369 1.391 . S
C2368 C2370 1.394 . S
C2368 H2384 0.931 . S
C2369 C2368 1.391 . S
C2369 C2373 1.376 . S
C2370 C2368 1.394 . S
C2370 C2371 1.369 . S
C2370 C2374 1.531 . S
C2371 C2370 1.369 . S
C2371 C2372 1.410 . S
C2371 C2379 1.503 . S
C2372 C2371 1.410 . S
C2372 C2373 1.392 . S
C2372 C2375 1.511 . S
C2373 C2369 1.376 . S
C2373 C2372 1.392 . S
C2373 H2385 0.929 . S
C2374 C2370 1.531 . S
C2374 H2386 0.960 . S
C2374 H2387 0.962 . S
C2374 H2388 0.960 . S
C2375 C2372 1.511 . S
C2375 H2389 0.961 . S
C2375 H2390 0.961 . S
C2375 H2391 0.961 . S
C2376 C2377 1.370 . S
C2376 C2378 1.363 . S
C2376 H2392 0.931 . S
C2377 C2376 1.370 . S
C2377 C2381 1.408 . S
C2378 C2376 1.363 . S
C2378 C2379 1.370 . S
C2378 C2382 1.524 . S
C2379 C2371 1.503 . S
C2379 C2378 1.370 . S
C2379 C2380 1.403 . S
C2380 C2379 1.403 . S
C2380 C2381 1.404 . S
C2380 C2383 1.539 . S
C2381 C2377 1.408 . S
C2381 C2380 1.404 . S
C2381 H2393 0.930 . S
C2382 C2378 1.524 . S
C2382 H2394 0.956 . S
C2382 H2395 0.961 . S
C2382 H2396 0.961 . S
C2383 C2380 1.539 . S
C2383 H2397 0.958 . S
C2383 H2398 0.961 . S
C2383 H2399 0.960 . S
H2384 C2368 0.931 . S
H2385 C2373 0.929 . S
H2386 C2374 0.960 . S
H2387 C2374 0.962 . S
H2388 C2374 0.960 . S
H2389 C2375 0.961 . S
H2390 C2375 0.961 . S
H2391 C2375 0.961 . S
H2392 C2376 0.931 . S
H2393 C2381 0.930 . S
H2394 C2382 0.956 . S
H2395 C2382 0.961 . S
H2396 C2382 0.961 . S
H2397 C2383 0.958 . S
H2398 C2383 0.961 . S
H2399 C2383 0.960 . S
C2400 C2401 1.391 . S
C2400 C2402 1.394 . S
C2400 H2416 0.931 . S
C2401 C2400 1.391 . S
C2401 C2405 1.376 . S
C2402 C2400 1.394 . S
C2402 C2403 1.369 . S
C2402 C2406 1.531 . S
C2403 C2402 1.369 . S
C2403 C2404 1.410 . S
C2403 C2411 1.503 . S
C2404 C2403 1.410 . S
C2404 C2405 1.392 . S
C2404 C2407 1.511 . S
C2405 C2401 1.376 . S
C2405 C2404 1.392 . S
C2405 H2417 0.929 . S
C2406 C2402 1.531 . S
C2406 H2418 0.960 . S
C2406 H2419 0.962 . S
C2406 H2420 0.960 . S
C2407 C2404 1.511 . S
C2407 H2421 0.961 . S
C2407 H2422 0.961 . S
C2407 H2423 0.961 . S
C2408 C2409 1.370 . S
C2408 C2410 1.363 . S
C2408 H2424 0.931 . S
C2409 C2408 1.370 . S
C2409 C2413 1.408 . S
C2410 C2408 1.363 . S
C2410 C2411 1.370 . S
C2410 C2414 1.524 . S
C2411 C2403 1.503 . S
C2411 C2410 1.370 . S
C2411 C2412 1.403 . S
C2412 C2411 1.403 . S
C2412 C2413 1.404 . S
C2412 C2415 1.539 . S
C2413 C2409 1.408 . S
C2413 C2412 1.404 . S
C2413 H2425 0.930 . S
C2414 C2410 1.524 . S
C2414 H2426 0.956 . S
C2414 H2427 0.961 . S
C2414 H2428 0.961 . S
C2415 C2412 1.539 . S
C2415 H2429 0.958 . S
C2415 H2430 0.961 . S
C2415 H2431 0.960 . S
H2416 C2400 0.931 . S
H2417 C2405 0.929 . S
H2418 C2406 0.960 . S
H2419 C2406 0.962 . S
H2420 C2406 0.960 . S
H2421 C2407 0.961 . S
H2422 C2407 0.961 . S
H2423 C2407 0.961 . S
H2424 C2408 0.931 . S
H2425 C2413 0.930 . S
H2426 C2414 0.956 . S
H2427 C2414 0.961 . S
H2428 C2414 0.961 . S
H2429 C2415 0.958 . S
H2430 C2415 0.961 . S
H2431 C2415 0.960 . S
C2432 C2433 1.391 . S
C2432 C2434 1.394 . S
C2432 H2448 0.931 . S
C2433 C2432 1.391 . S
C2433 C2437 1.376 . S
C2434 C2432 1.394 . S
C2434 C2435 1.369 . S
C2434 C2438 1.531 . S
C2435 C2434 1.369 . S
C2435 C2436 1.410 . S
C2435 C2443 1.503 . S
C2436 C2435 1.410 . S
C2436 C2437 1.392 . S
C2436 C2439 1.511 . S
C2437 C2433 1.376 . S
C2437 C2436 1.392 . S
C2437 H2449 0.929 . S
C2438 C2434 1.531 . S
C2438 H2450 0.960 . S
C2438 H2451 0.962 . S
C2438 H2452 0.960 . S
C2439 C2436 1.511 . S
C2439 H2453 0.961 . S
C2439 H2454 0.961 . S
C2439 H2455 0.961 . S
C2440 C2441 1.370 . S
C2440 C2442 1.363 . S
C2440 H2456 0.931 . S
C2441 C2440 1.370 . S
C2441 C2445 1.408 . S
C2442 C2440 1.363 . S
C2442 C2443 1.370 . S
C2442 C2446 1.524 . S
C2443 C2435 1.503 . S
C2443 C2442 1.370 . S
C2443 C2444 1.403 . S
C2444 C2443 1.403 . S
C2444 C2445 1.404 . S
C2444 C2447 1.539 . S
C2445 C2441 1.408 . S
C2445 C2444 1.404 . S
C2445 H2457 0.930 . S
C2446 C2442 1.524 . S
C2446 H2458 0.956 . S
C2446 H2459 0.961 . S
C2446 H2460 0.961 . S
C2447 C2444 1.539 . S
C2447 H2461 0.958 . S
C2447 H2462 0.961 . S
C2447 H2463 0.960 . S
H2448 C2432 0.931 . S
H2449 C2437 0.929 . S
H2450 C2438 0.960 . S
H2451 C2438 0.962 . S
H2452 C2438 0.960 . S
H2453 C2439 0.961 . S
H2454 C2439 0.961 . S
H2455 C2439 0.961 . S
H2456 C2440 0.931 . S
H2457 C2445 0.930 . S
H2458 C2446 0.956 . S
H2459 C2446 0.961 . S
H2460 C2446 0.961 . S
H2461 C2447 0.958 . S
H2462 C2447 0.961 . S
H2463 C2447 0.960 . S
C2464 C2465 1.391 . S
C2464 C2466 1.394 . S
C2464 H2480 0.931 . S
C2465 C2464 1.391 . S
C2465 C2469 1.376 . S
C2466 C2464 1.394 . S
C2466 C2467 1.369 . S
C2466 C2470 1.531 . S
C2467 C2466 1.369 . S
C2467 C2468 1.410 . S
C2467 C2475 1.503 . S
C2468 C2467 1.410 . S
C2468 C2469 1.392 . S
C2468 C2471 1.511 . S
C2469 C2465 1.376 . S
C2469 C2468 1.392 . S
C2469 H2481 0.929 . S
C2470 C2466 1.531 . S
C2470 H2482 0.960 . S
C2470 H2483 0.962 . S
C2470 H2484 0.960 . S
C2471 C2468 1.511 . S
C2471 H2485 0.961 . S
C2471 H2486 0.961 . S
C2471 H2487 0.961 . S
C2472 C2473 1.370 . S
C2472 C2474 1.363 . S
C2472 H2488 0.931 . S
C2473 C2472 1.370 . S
C2473 C2477 1.408 . S
C2474 C2472 1.363 . S
C2474 C2475 1.370 . S
C2474 C2478 1.524 . S
C2475 C2467 1.503 . S
C2475 C2474 1.370 . S
C2475 C2476 1.403 . S
C2476 C2475 1.403 . S
C2476 C2477 1.404 . S
C2476 C2479 1.539 . S
C2477 C2473 1.408 . S
C2477 C2476 1.404 . S
C2477 H2489 0.930 . S
C2478 C2474 1.524 . S
C2478 H2490 0.956 . S
C2478 H2491 0.961 . S
C2478 H2492 0.961 . S
C2479 C2476 1.539 . S
C2479 H2493 0.958 . S
C2479 H2494 0.961 . S
C2479 H2495 0.960 . S
H2480 C2464 0.931 . S
H2481 C2469 0.929 . S
H2482 C2470 0.960 . S
H2483 C2470 0.962 . S
H2484 C2470 0.960 . S
H2485 C2471 0.961 . S
H2486 C2471 0.961 . S
H2487 C2471 0.961 . S
H2488 C2472 0.931 . S
H2489 C2477 0.930 . S
H2490 C2478 0.956 . S
H2491 C2478 0.961 . S
H2492 C2478 0.961 . S
H2493 C2479 0.958 . S
H2494 C2479 0.961 . S
H2495 C2479 0.960 . S
C2496 C2497 1.391 . S
C2496 C2498 1.394 . S
C2496 H2512 0.931 . S
C2497 C2496 1.391 . S
C2497 C2501 1.376 . S
C2498 C2496 1.394 . S
C2498 C2499 1.369 . S
C2498 C2502 1.531 . S
C2499 C2498 1.369 . S
C2499 C2500 1.410 . S
C2499 C2507 1.503 . S
C2500 C2499 1.410 . S
C2500 C2501 1.392 . S
C2500 C2503 1.511 . S
C2501 C2497 1.376 . S
C2501 C2500 1.392 . S
C2501 H2513 0.929 . S
C2502 C2498 1.531 . S
C2502 H2514 0.960 . S
C2502 H2515 0.962 . S
C2502 H2516 0.960 . S
C2503 C2500 1.511 . S
C2503 H2517 0.961 . S
C2503 H2518 0.961 . S
C2503 H2519 0.961 . S
C2504 C2505 1.370 . S
C2504 C2506 1.363 . S
C2504 H2520 0.931 . S
C2505 C2504 1.370 . S
C2505 C2509 1.408 . S
C2506 C2504 1.363 . S
C2506 C2507 1.370 . S
C2506 C2510 1.524 . S
C2507 C2499 1.503 . S
C2507 C2506 1.370 . S
C2507 C2508 1.403 . S
C2508 C2507 1.403 . S
C2508 C2509 1.404 . S
C2508 C2511 1.539 . S
C2509 C2505 1.408 . S
C2509 C2508 1.404 . S
C2509 H2521 0.930 . S
C2510 C2506 1.524 . S
C2510 H2522 0.956 . S
C2510 H2523 0.961 . S
C2510 H2524 0.961 . S
C2511 C2508 1.539 . S
C2511 H2525 0.958 . S
C2511 H2526 0.961 . S
C2511 H2527 0.960 . S
H2512 C2496 0.931 . S
H2513 C2501 0.929 . S
H2514 C2502 0.960 . S
H2515 C2502 0.962 . S
H2516 C2502 0.960 . S
H2517 C2503 0.961 . S
H2518 C2503 0.961 . S
H2519 C2503 0.961 . S
H2520 C2504 0.931 . S
H2521 C2509 0.930 . S
H2522 C2510 0.956 . S
H2523 C2510 0.961 . S
H2524 C2510 0.961 . S
H2525 C2511 0.958 . S
H2526 C2511 0.961 . S
H2527 C2511 0.960 . S
C2528 C2529 1.391 . S
C2528 C2530 1.394 . S
C2528 H2544 0.931 . S
C2529 C2528 1.391 . S
C2529 C2533 1.376 . S
C2530 C2528 1.394 . S
C2530 C2531 1.369 . S
C2530 C2534 1.531 . S
C2531 C2530 1.369 . S
C2531 C2532 1.410 . S
C2531 C2539 1.503 . S
C2532 C2531 1.410 . S
C2532 C2533 1.392 . S
C2532 C2535 1.511 . S
C2533 C2529 1.376 . S
C2533 C2532 1.392 . S
C2533 H2545 0.929 . S
C2534 C2530 1.531 . S
C2534 H2546 0.960 . S
C2534 H2547 0.962 . S
C2534 H2548 0.960 . S
C2535 C2532 1.511 . S
C2535 H2549 0.961 . S
C2535 H2550 0.961 . S
C2535 H2551 0.961 . S
C2536 C2537 1.370 . S
C2536 C2538 1.363 . S
C2536 H2552 0.931 . S
C2537 C2536 1.370 . S
C2537 C2541 1.408 . S
C2538 C2536 1.363 . S
C2538 C2539 1.370 . S
C2538 C2542 1.524 . S
C2539 C2531 1.503 . S
C2539 C2538 1.370 . S
C2539 C2540 1.403 . S
C2540 C2539 1.403 . S
C2540 C2541 1.404 . S
C2540 C2543 1.539 . S
C2541 C2537 1.408 . S
C2541 C2540 1.404 . S
C2541 H2553 0.930 . S
C2542 C2538 1.524 . S
C2542 H2554 0.956 . S
C2542 H2555 0.961 . S
C2542 H2556 0.961 . S
C2543 C2540 1.539 . S
C2543 H2557 0.958 . S
C2543 H2558 0.961 . S
C2543 H2559 0.960 . S
H2544 C2528 0.931 . S
H2545 C2533 0.929 . S
H2546 C2534 0.960 . S
H2547 C2534 0.962 . S
H2548 C2534 0.960 . S
H2549 C2535 0.961 . S
H2550 C2535 0.961 . S
H2551 C2535 0.961 . S
H2552 C2536 0.931 . S
H2553 C2541 0.930 . S
H2554 C2542 0.956 . S
H2555 C2542 0.961 . S
H2556 C2542 0.961 . S
H2557 C2543 0.958 . S
H2558 C2543 0.961 . S
H2559 C2543 0.960 . S
C2560 C2561 1.391 . S
C2560 C2562 1.394 . S
C2560 H2576 0.931 . S
C2561 C2560 1.391 . S
C2561 C2565 1.376 . S
C2562 C2560 1.394 . S
C2562 C2563 1.369 . S
C2562 C2566 1.531 . S
C2563 C2562 1.369 . S
C2563 C2564 1.410 . S
C2563 C2571 1.503 . S
C2564 C2563 1.410 . S
C2564 C2565 1.392 . S
C2564 C2567 1.511 . S
C2565 C2561 1.376 . S
C2565 C2564 1.392 . S
C2565 H2577 0.929 . S
C2566 C2562 1.531 . S
C2566 H2578 0.960 . S
C2566 H2579 0.962 . S
C2566 H2580 0.960 . S
C2567 C2564 1.511 . S
C2567 H2581 0.961 . S
C2567 H2582 0.961 . S
C2567 H2583 0.961 . S
C2568 C2569 1.370 . S
C2568 C2570 1.363 . S
C2568 H2584 0.931 . S
C2569 C2568 1.370 . S
C2569 C2573 1.408 . S
C2570 C2568 1.363 . S
C2570 C2571 1.370 . S
C2570 C2574 1.524 . S
C2571 C2563 1.503 . S
C2571 C2570 1.370 . S
C2571 C2572 1.403 . S
C2572 C2571 1.403 . S
C2572 C2573 1.404 . S
C2572 C2575 1.539 . S
C2573 C2569 1.408 . S
C2573 C2572 1.404 . S
C2573 H2585 0.930 . S
C2574 C2570 1.524 . S
C2574 H2586 0.956 . S
C2574 H2587 0.961 . S
C2574 H2588 0.961 . S
C2575 C2572 1.539 . S
C2575 H2589 0.958 . S
C2575 H2590 0.961 . S
C2575 H2591 0.960 . S
H2576 C2560 0.931 . S
H2577 C2565 0.929 . S
H2578 C2566 0.960 . S
H2579 C2566 0.962 . S
H2580 C2566 0.960 . S
H2581 C2567 0.961 . S
H2582 C2567 0.961 . S
H2583 C2567 0.961 . S
H2584 C2568 0.931 . S
H2585 C2573 0.930 . S
H2586 C2574 0.956 . S
H2587 C2574 0.961 . S
H2588 C2574 0.961 . S
H2589 C2575 0.958 . S
H2590 C2575 0.961 . S
H2591 C2575 0.960 . S
C2592 C2593 1.391 . S
C2592 C2594 1.394 . S
C2592 H2608 0.931 . S
C2593 C2592 1.391 . S
C2593 C2597 1.376 . S
C2594 C2592 1.394 . S
C2594 C2595 1.369 . S
C2594 C2598 1.531 . S
C2595 C2594 1.369 . S
C2595 C2596 1.410 . S
C2595 C2603 1.503 . S
C2596 C2595 1.410 . S
C2596 C2597 1.392 . S
C2596 C2599 1.511 . S
C2597 C2593 1.376 . S
C2597 C2596 1.392 . S
C2597 H2609 0.929 . S
C2598 C2594 1.531 . S
C2598 H2610 0.960 . S
C2598 H2611 0.962 . S
C2598 H2612 0.960 . S
C2599 C2596 1.511 . S
C2599 H2613 0.961 . S
C2599 H2614 0.961 . S
C2599 H2615 0.961 . S
C2600 C2601 1.370 . S
C2600 C2602 1.363 . S
C2600 H2616 0.931 . S
C2601 C2600 1.370 . S
C2601 C2605 1.408 . S
C2602 C2600 1.363 . S
C2602 C2603 1.370 . S
C2602 C2606 1.524 . S
C2603 C2595 1.503 . S
C2603 C2602 1.370 . S
C2603 C2604 1.403 . S
C2604 C2603 1.403 . S
C2604 C2605 1.404 . S
C2604 C2607 1.539 . S
C2605 C2601 1.408 . S
C2605 C2604 1.404 . S
C2605 H2617 0.930 . S
C2606 C2602 1.524 . S
C2606 H2618 0.956 . S
C2606 H2619 0.961 . S
C2606 H2620 0.961 . S
C2607 C2604 1.539 . S
C2607 H2621 0.958 . S
C2607 H2622 0.961 . S
C2607 H2623 0.960 . S
H2608 C2592 0.931 . S
H2609 C2597 0.929 . S
H2610 C2598 0.960 . S
H2611 C2598 0.962 . S
H2612 C2598 0.960 . S
H2613 C2599 0.961 . S
H2614 C2599 0.961 . S
H2615 C2599 0.961 . S
H2616 C2600 0.931 . S
H2617 C2605 0.930 . S
H2618 C2606 0.956 . S
H2619 C2606 0.961 . S
H2620 C2606 0.961 . S
H2621 C2607 0.958 . S
H2622 C2607 0.961 . S
H2623 C2607 0.960 . S
C2624 C2625 1.391 . S
C2624 C2626 1.394 . S
C2624 H2640 0.931 . S
C2625 C2624 1.391 . S
C2625 C2629 1.376 . S
C2626 C2624 1.394 . S
C2626 C2627 1.369 . S
C2626 C2630 1.531 . S
C2627 C2626 1.369 . S
C2627 C2628 1.410 . S
C2627 C2635 1.503 . S
C2628 C2627 1.410 . S
C2628 C2629 1.392 . S
C2628 C2631 1.511 . S
C2629 C2625 1.376 . S
C2629 C2628 1.392 . S
C2629 H2641 0.929 . S
C2630 C2626 1.531 . S
C2630 H2642 0.960 . S
C2630 H2643 0.962 . S
C2630 H2644 0.960 . S
C2631 C2628 1.511 . S
C2631 H2645 0.961 . S
C2631 H2646 0.961 . S
C2631 H2647 0.961 . S
C2632 C2633 1.370 . S
C2632 C2634 1.363 . S
C2632 H2648 0.931 . S
C2633 C2632 1.370 . S
C2633 C2637 1.408 . S
C2634 C2632 1.363 . S
C2634 C2635 1.370 . S
C2634 C2638 1.524 . S
C2635 C2627 1.503 . S
C2635 C2634 1.370 . S
C2635 C2636 1.403 . S
C2636 C2635 1.403 . S
C2636 C2637 1.404 . S
C2636 C2639 1.539 . S
C2637 C2633 1.408 . S
C2637 C2636 1.404 . S
C2637 H2649 0.930 . S
C2638 C2634 1.524 . S
C2638 H2650 0.956 . S
C2638 H2651 0.961 . S
C2638 H2652 0.961 . S
C2639 C2636 1.539 . S
C2639 H2653 0.958 . S
C2639 H2654 0.961 . S
C2639 H2655 0.960 . S
H2640 C2624 0.931 . S
H2641 C2629 0.929 . S
H2642 C2630 0.960 . S
H2643 C2630 0.962 . S
H2644 C2630 0.960 . S
H2645 C2631 0.961 . S
H2646 C2631 0.961 . S
H2647 C2631 0.961 . S
H2648 C2632 0.931 . S
H2649 C2637 0.930 . S
H2650 C2638 0.956 . S
H2651 C2638 0.961 . S
H2652 C2638 0.961 . S
H2653 C2639 0.958 . S
H2654 C2639 0.961 . S
H2655 C2639 0.960 . S
C2656 C2657 1.391 . S
C2656 C2658 1.394 . S
C2656 H2672 0.931 . S
C2657 C2656 1.391 . S
C2657 C2661 1.376 . S
C2658 C2656 1.394 . S
C2658 C2659 1.369 . S
C2658 C2662 1.531 . S
C2659 C2658 1.369 . S
C2659 C2660 1.410 . S
C2659 C2667 1.503 . S
C2660 C2659 1.410 . S
C2660 C2661 1.392 . S
C2660 C2663 1.511 . S
C2661 C2657 1.376 . S
C2661 C2660 1.392 . S
C2661 H2673 0.929 . S
C2662 C2658 1.531 . S
C2662 H2674 0.960 . S
C2662 H2675 0.962 . S
C2662 H2676 0.960 . S
C2663 C2660 1.511 . S
C2663 H2677 0.961 . S
C2663 H2678 0.961 . S
C2663 H2679 0.961 . S
C2664 C2665 1.370 . S
C2664 C2666 1.363 . S
C2664 H2680 0.931 . S
C2665 C2664 1.370 . S
C2665 C2669 1.408 . S
C2666 C2664 1.363 . S
C2666 C2667 1.370 . S
C2666 C2670 1.524 . S
C2667 C2659 1.503 . S
C2667 C2666 1.370 . S
C2667 C2668 1.403 . S
C2668 C2667 1.403 . S
C2668 C2669 1.404 . S
C2668 C2671 1.539 . S
C2669 C2665 1.408 . S
C2669 C2668 1.404 . S
C2669 H2681 0.930 . S
C2670 C2666 1.524 . S
C2670 H2682 0.956 . S
C2670 H2683 0.961 . S
C2670 H2684 0.961 . S
C2671 C2668 1.539 . S
C2671 H2685 0.958 . S
C2671 H2686 0.961 . S
C2671 H2687 0.960 . S
H2672 C2656 0.931 . S
H2673 C2661 0.929 . S
H2674 C2662 0.960 . S
H2675 C2662 0.962 . S
H2676 C2662 0.960 . S
H2677 C2663 0.961 . S
H2678 C2663 0.961 . S
H2679 C2663 0.961 . S
H2680 C2664 0.931 . S
H2681 C2669 0.930 . S
H2682 C2670 0.956 . S
H2683 C2670 0.961 . S
H2684 C2670 0.961 . S
H2685 C2671 0.958 . S
H2686 C2671 0.961 . S
H2687 C2671 0.960 . S
C2688 C2689 1.391 . S
C2688 C2690 1.394 . S
C2688 H2704 0.931 . S
C2689 C2688 1.391 . S
C2689 C2693 1.376 . S
C2690 C2688 1.394 . S
C2690 C2691 1.369 . S
C2690 C2694 1.531 . S
C2691 C2690 1.369 . S
C2691 C2692 1.410 . S
C2691 C2699 1.503 . S
C2692 C2691 1.410 . S
C2692 C2693 1.392 . S
C2692 C2695 1.511 . S
C2693 C2689 1.376 . S
C2693 C2692 1.392 . S
C2693 H2705 0.929 . S
C2694 C2690 1.531 . S
C2694 H2706 0.960 . S
C2694 H2707 0.962 . S
C2694 H2708 0.960 . S
C2695 C2692 1.511 . S
C2695 H2709 0.961 . S
C2695 H2710 0.961 . S
C2695 H2711 0.961 . S
C2696 C2697 1.370 . S
C2696 C2698 1.363 . S
C2696 H2712 0.931 . S
C2697 C2696 1.370 . S
C2697 C2701 1.408 . S
C2698 C2696 1.363 . S
C2698 C2699 1.370 . S
C2698 C2702 1.524 . S
C2699 C2691 1.503 . S
C2699 C2698 1.370 . S
C2699 C2700 1.403 . S
C2700 C2699 1.403 . S
C2700 C2701 1.404 . S
C2700 C2703 1.539 . S
C2701 C2697 1.408 . S
C2701 C2700 1.404 . S
C2701 H2713 0.930 . S
C2702 C2698 1.524 . S
C2702 H2714 0.956 . S
C2702 H2715 0.961 . S
C2702 H2716 0.961 . S
C2703 C2700 1.539 . S
C2703 H2717 0.958 . S
C2703 H2718 0.961 . S
C2703 H2719 0.960 . S
H2704 C2688 0.931 . S
H2705 C2693 0.929 . S
H2706 C2694 0.960 . S
H2707 C2694 0.962 . S
H2708 C2694 0.960 . S
H2709 C2695 0.961 . S
H2710 C2695 0.961 . S
H2711 C2695 0.961 . S
H2712 C2696 0.931 . S
H2713 C2701 0.930 . S
H2714 C2702 0.956 . S
H2715 C2702 0.961 . S
H2716 C2702 0.961 . S
H2717 C2703 0.958 . S
H2718 C2703 0.961 . S
H2719 C2703 0.960 . S
C2720 C2721 1.391 . S
C2720 C2722 1.394 . S
C2720 H2736 0.931 . S
C2721 C2720 1.391 . S
C2721 C2725 1.376 . S
C2722 C2720 1.394 . S
C2722 C2723 1.369 . S
C2722 C2726 1.531 . S
C2723 C2722 1.369 . S
C2723 C2724 1.410 . S
C2723 C2731 1.503 . S
C2724 C2723 1.410 . S
C2724 C2725 1.392 . S
C2724 C2727 1.511 . S
C2725 C2721 1.376 . S
C2725 C2724 1.392 . S
C2725 H2737 0.929 . S
C2726 C2722 1.531 . S
C2726 H2738 0.960 . S
C2726 H2739 0.962 . S
C2726 H2740 0.960 . S
C2727 C2724 1.511 . S
C2727 H2741 0.961 . S
C2727 H2742 0.961 . S
C2727 H2743 0.961 . S
C2728 C2729 1.370 . S
C2728 C2730 1.363 . S
C2728 H2744 0.931 . S
C2729 C2728 1.370 . S
C2729 C2733 1.408 . S
C2730 C2728 1.363 . S
C2730 C2731 1.370 . S
C2730 C2734 1.524 . S
C2731 C2723 1.503 . S
C2731 C2730 1.370 . S
C2731 C2732 1.403 . S
C2732 C2731 1.403 . S
C2732 C2733 1.404 . S
C2732 C2735 1.539 . S
C2733 C2729 1.408 . S
C2733 C2732 1.404 . S
C2733 H2745 0.930 . S
C2734 C2730 1.524 . S
C2734 H2746 0.956 . S
C2734 H2747 0.961 . S
C2734 H2748 0.961 . S
C2735 C2732 1.539 . S
C2735 H2749 0.958 . S
C2735 H2750 0.961 . S
C2735 H2751 0.960 . S
H2736 C2720 0.931 . S
H2737 C2725 0.929 . S
H2738 C2726 0.960 . S
H2739 C2726 0.962 . S
H2740 C2726 0.960 . S
H2741 C2727 0.961 . S
H2742 C2727 0.961 . S
H2743 C2727 0.961 . S
H2744 C2728 0.931 . S
H2745 C2733 0.930 . S
H2746 C2734 0.956 . S
H2747 C2734 0.961 . S
H2748 C2734 0.961 . S
H2749 C2735 0.958 . S
H2750 C2735 0.961 . S
H2751 C2735 0.960 . S
C2752 C2753 1.391 . S
C2752 C2754 1.394 . S
C2752 H2768 0.931 . S
C2753 C2752 1.391 . S
C2753 C2757 1.376 . S
C2754 C2752 1.394 . S
C2754 C2755 1.369 . S
C2754 C2758 1.531 . S
C2755 C2754 1.369 . S
C2755 C2756 1.410 . S
C2755 C2763 1.503 . S
C2756 C2755 1.410 . S
C2756 C2757 1.392 . S
C2756 C2759 1.511 . S
C2757 C2753 1.376 . S
C2757 C2756 1.392 . S
C2757 H2769 0.929 . S
C2758 C2754 1.531 . S
C2758 H2770 0.960 . S
C2758 H2771 0.962 . S
C2758 H2772 0.960 . S
C2759 C2756 1.511 . S
C2759 H2773 0.961 . S
C2759 H2774 0.961 . S
C2759 H2775 0.961 . S
C2760 C2761 1.370 . S
C2760 C2762 1.363 . S
C2760 H2776 0.931 . S
C2761 C2760 1.370 . S
C2761 C2765 1.408 . S
C2762 C2760 1.363 . S
C2762 C2763 1.370 . S
C2762 C2766 1.524 . S
C2763 C2755 1.503 . S
C2763 C2762 1.370 . S
C2763 C2764 1.403 . S
C2764 C2763 1.403 . S
C2764 C2765 1.404 . S
C2764 C2767 1.539 . S
C2765 C2761 1.408 . S
C2765 C2764 1.404 . S
C2765 H2777 0.930 . S
C2766 C2762 1.524 . S
C2766 H2778 0.956 . S
C2766 H2779 0.961 . S
C2766 H2780 0.961 . S
C2767 C2764 1.539 . S
C2767 H2781 0.958 . S
C2767 H2782 0.961 . S
C2767 H2783 0.960 . S
H2768 C2752 0.931 . S
H2769 C2757 0.929 . S
H2770 C2758 0.960 . S
H2771 C2758 0.962 . S
H2772 C2758 0.960 . S
H2773 C2759 0.961 . S
H2774 C2759 0.961 . S
H2775 C2759 0.961 . S
H2776 C2760 0.931 . S
H2777 C2765 0.930 . S
H2778 C2766 0.956 . S
H2779 C2766 0.961 . S
H2780 C2766 0.961 . S
H2781 C2767 0.958 . S
H2782 C2767 0.961 . S
H2783 C2767 0.960 . S
C2784 C2785 1.391 . S
C2784 C2786 1.394 . S
C2784 H2800 0.931 . S
C2785 C2784 1.391 . S
C2785 C2789 1.376 . S
C2786 C2784 1.394 . S
C2786 C2787 1.369 . S
C2786 C2790 1.531 . S
C2787 C2786 1.369 . S
C2787 C2788 1.410 . S
C2787 C2795 1.503 . S
C2788 C2787 1.410 . S
C2788 C2789 1.392 . S
C2788 C2791 1.511 . S
C2789 C2785 1.376 . S
C2789 C2788 1.392 . S
C2789 H2801 0.929 . S
C2790 C2786 1.531 . S
C2790 H2802 0.960 . S
C2790 H2803 0.962 . S
C2790 H2804 0.960 . S
C2791 C2788 1.511 . S
C2791 H2805 0.961 . S
C2791 H2806 0.961 . S
C2791 H2807 0.961 . S
C2792 C2793 1.370 . S
C2792 C2794 1.363 . S
C2792 H2808 0.931 . S
C2793 C2792 1.370 . S
C2793 C2797 1.408 . S
C2794 C2792 1.363 . S
C2794 C2795 1.370 . S
C2794 C2798 1.524 . S
C2795 C2787 1.503 . S
C2795 C2794 1.370 . S
C2795 C2796 1.403 . S
C2796 C2795 1.403 . S
C2796 C2797 1.404 . S
C2796 C2799 1.539 . S
C2797 C2793 1.408 . S
C2797 C2796 1.404 . S
C2797 H2809 0.930 . S
C2798 C2794 1.524 . S
C2798 H2810 0.956 . S
C2798 H2811 0.961 . S
C2798 H2812 0.961 . S
C2799 C2796 1.539 . S
C2799 H2813 0.958 . S
C2799 H2814 0.961 . S
C2799 H2815 0.960 . S
H2800 C2784 0.931 . S
H2801 C2789 0.929 . S
H2802 C2790 0.960 . S
H2803 C2790 0.962 . S
H2804 C2790 0.960 . S
H2805 C2791 0.961 . S
H2806 C2791 0.961 . S
H2807 C2791 0.961 . S
H2808 C2792 0.931 . S
H2809 C2797 0.930 . S
H2810 C2798 0.956 . S
H2811 C2798 0.961 . S
H2812 C2798 0.961 . S
H2813 C2799 0.958 . S
H2814 C2799 0.961 . S
H2815 C2799 0.960 . S
C2816 C2817 1.391 . S
C2816 C2818 1.394 . S
C2816 H2832 0.931 . S
C2817 C2816 1.391 . S
C2817 C2821 1.376 . S
C2818 C2816 1.394 . S
C2818 C2819 1.369 . S
C2818 C2822 1.531 . S
C2819 C2818 1.369 . S
C2819 C2820 1.410 . S
C2819 C2827 1.503 . S
C2820 C2819 1.410 . S
C2820 C2821 1.392 . S
C2820 C2823 1.511 . S
C2821 C2817 1.376 . S
C2821 C2820 1.392 . S
C2821 H2833 0.929 . S
C2822 C2818 1.531 . S
C2822 H2834 0.960 . S
C2822 H2835 0.962 . S
C2822 H2836 0.960 . S
C2823 C2820 1.511 . S
C2823 H2837 0.961 . S
C2823 H2838 0.961 . S
C2823 H2839 0.961 . S
C2824 C2825 1.370 . S
C2824 C2826 1.363 . S
C2824 H2840 0.931 . S
C2825 C2824 1.370 . S
C2825 C2829 1.408 . S
C2826 C2824 1.363 . S
C2826 C2827 1.370 . S
C2826 C2830 1.524 . S
C2827 C2819 1.503 . S
C2827 C2826 1.370 . S
C2827 C2828 1.403 . S
C2828 C2827 1.403 . S
C2828 C2829 1.404 . S
C2828 C2831 1.539 . S
C2829 C2825 1.408 . S
C2829 C2828 1.404 . S
C2829 H2841 0.930 . S
C2830 C2826 1.524 . S
C2830 H2842 0.956 . S
C2830 H2843 0.961 . S
C2830 H2844 0.961 . S
C2831 C2828 1.539 . S
C2831 H2845 0.958 . S
C2831 H2846 0.961 . S
C2831 H2847 0.960 . S
H2832 C2816 0.931 . S
H2833 C2821 0.929 . S
H2834 C2822 0.960 . S
H2835 C2822 0.962 . S
H2836 C2822 0.960 . S
H2837 C2823 0.961 . S
H2838 C2823 0.961 . S
H2839 C2823 0.961 . S
H2840 C2824 0.931 . S
H2841 C2829 0.930 . S
H2842 C2830 0.956 . S
H2843 C2830 0.961 . S
H2844 C2830 0.961 . S
H2845 C2831 0.958 . S
H2846 C2831 0.961 . S
H2847 C2831 0.960 . S
C2848 C2849 1.391 . S
C2848 C2850 1.394 . S
C2848 H2864 0.931 . S
C2849 C2848 1.391 . S
C2849 C2853 1.376 . S
C2850 C2848 1.394 . S
C2850 C2851 1.369 . S
C2850 C2854 1.531 . S
C2851 C2850 1.369 . S
C2851 C2852 1.410 . S
C2851 C2859 1.503 . S
C2852 C2851 1.410 . S
C2852 C2853 1.392 . S
C2852 C2855 1.511 . S
C2853 C2849 1.376 . S
C2853 C2852 1.392 . S
C2853 H2865 0.929 . S
C2854 C2850 1.531 . S
C2854 H2866 0.960 . S
C2854 H2867 0.962 . S
C2854 H2868 0.960 . S
C2855 C2852 1.511 . S
C2855 H2869 0.961 . S
C2855 H2870 0.961 . S
C2855 H2871 0.961 . S
C2856 C2857 1.370 . S
C2856 C2858 1.363 . S
C2856 H2872 0.931 . S
C2857 C2856 1.370 . S
C2857 C2861 1.408 . S
C2858 C2856 1.363 . S
C2858 C2859 1.370 . S
C2858 C2862 1.524 . S
C2859 C2851 1.503 . S
C2859 C2858 1.370 . S
C2859 C2860 1.403 . S
C2860 C2859 1.403 . S
C2860 C2861 1.404 . S
C2860 C2863 1.539 . S
C2861 C2857 1.408 . S
C2861 C2860 1.404 . S
C2861 H2873 0.930 . S
C2862 C2858 1.524 . S
C2862 H2874 0.956 . S
C2862 H2875 0.961 . S
C2862 H2876 0.961 . S
C2863 C2860 1.539 . S
C2863 H2877 0.958 . S
C2863 H2878 0.961 . S
C2863 H2879 0.960 . S
H2864 C2848 0.931 . S
H2865 C2853 0.929 . S
H2866 C2854 0.960 . S
H2867 C2854 0.962 . S
H2868 C2854 0.960 . S
H2869 C2855 0.961 . S
H2870 C2855 0.961 . S
H2871 C2855 0.961 . S
H2872 C2856 0.931 . S
H2873 C2861 0.930 . S
H2874 C2862 0.956 . S
H2875 C2862 0.961 . S
H2876 C2862 0.961 . S
H2877 C2863 0.958 . S
H2878 C2863 0.961 . S
H2879 C2863 0.960 . S
C2880 C2881 1.391 . S
C2880 C2882 1.394 . S
C2880 H2896 0.931 . S
C2881 C2880 1.391 . S
C2881 C2885 1.376 . S
C2882 C2880 1.394 . S
C2882 C2883 1.369 . S
C2882 C2886 1.531 . S
C2883 C2882 1.369 . S
C2883 C2884 1.410 . S
C2883 C2891 1.503 . S
C2884 C2883 1.410 . S
C2884 C2885 1.392 . S
C2884 C2887 1.511 . S
C2885 C2881 1.376 . S
C2885 C2884 1.392 . S
C2885 H2897 0.929 . S
C2886 C2882 1.531 . S
C2886 H2898 0.960 . S
C2886 H2899 0.962 . S
C2886 H2900 0.960 . S
C2887 C2884 1.511 . S
C2887 H2901 0.961 . S
C2887 H2902 0.961 . S
C2887 H2903 0.961 . S
C2888 C2889 1.370 . S
C2888 C2890 1.363 . S
C2888 H2904 0.931 . S
C2889 C2888 1.370 . S
C2889 C2893 1.408 . S
C2890 C2888 1.363 . S
C2890 C2891 1.370 . S
C2890 C2894 1.524 . S
C2891 C2883 1.503 . S
C2891 C2890 1.370 . S
C2891 C2892 1.403 . S
C2892 C2891 1.403 . S
C2892 C2893 1.404 . S
C2892 C2895 1.539 . S
C2893 C2889 1.408 . S
C2893 C2892 1.404 . S
C2893 H2905 0.930 . S
C2894 C2890 1.524 . S
C2894 H2906 0.956 . S
C2894 H2907 0.961 . S
C2894 H2908 0.961 . S
C2895 C2892 1.539 . S
C2895 H2909 0.958 . S
C2895 H2910 0.961 . S
C2895 H2911 0.960 . S
H2896 C2880 0.931 . S
H2897 C2885 0.929 . S
H2898 C2886 0.960 . S
H2899 C2886 0.962 . S
H2900 C2886 0.960 . S
H2901 C2887 0.961 . S
H2902 C2887 0.961 . S
H2903 C2887 0.961 . S
H2904 C2888 0.931 . S
H2905 C2893 0.930 . S
H2906 C2894 0.956 . S
H2907 C2894 0.961 . S
H2908 C2894 0.961 . S
H2909 C2895 0.958 . S
H2910 C2895 0.961 . S
H2911 C2895 0.960 . S
C2912 C2913 1.391 . S
C2912 C2914 1.394 . S
C2912 H2928 0.931 . S
C2913 C2912 1.391 . S
C2913 C2917 1.376 . S
C2914 C2912 1.394 . S
C2914 C2915 1.369 . S
C2914 C2918 1.531 . S
C2915 C2914 1.369 . S
C2915 C2916 1.410 . S
C2915 C2923 1.503 . S
C2916 C2915 1.410 . S
C2916 C2917 1.392 . S
C2916 C2919 1.511 . S
C2917 C2913 1.376 . S
C2917 C2916 1.392 . S
C2917 H2929 0.929 . S
C2918 C2914 1.531 . S
C2918 H2930 0.960 . S
C2918 H2931 0.962 . S
C2918 H2932 0.960 . S
C2919 C2916 1.511 . S
C2919 H2933 0.961 . S
C2919 H2934 0.961 . S
C2919 H2935 0.961 . S
C2920 C2921 1.370 . S
C2920 C2922 1.363 . S
C2920 H2936 0.931 . S
C2921 C2920 1.370 . S
C2921 C2925 1.408 . S
C2922 C2920 1.363 . S
C2922 C2923 1.370 . S
C2922 C2926 1.524 . S
C2923 C2915 1.503 . S
C2923 C2922 1.370 . S
C2923 C2924 1.403 . S
C2924 C2923 1.403 . S
C2924 C2925 1.404 . S
C2924 C2927 1.539 . S
C2925 C2921 1.408 . S
C2925 C2924 1.404 . S
C2925 H2937 0.930 . S
C2926 C2922 1.524 . S
C2926 H2938 0.956 . S
C2926 H2939 0.961 . S
C2926 H2940 0.961 . S
C2927 C2924 1.539 . S
C2927 H2941 0.958 . S
C2927 H2942 0.961 . S
C2927 H2943 0.960 . S
H2928 C2912 0.931 . S
H2929 C2917 0.929 . S
H2930 C2918 0.960 . S
H2931 C2918 0.962 . S
H2932 C2918 0.960 . S
H2933 C2919 0.961 . S
H2934 C2919 0.961 . S
H2935 C2919 0.961 . S
H2936 C2920 0.931 . S
H2937 C2925 0.930 . S
H2938 C2926 0.956 . S
H2939 C2926 0.961 . S
H2940 C2926 0.961 . S
H2941 C2927 0.958 . S
H2942 C2927 0.961 . S
H2943 C2927 0.960 . S
C2944 C2945 1.391 . S
C2944 C2946 1.394 . S
C2944 H2960 0.931 . S
C2945 C2944 1.391 . S
C2945 C2949 1.376 . S
C2946 C2944 1.394 . S
C2946 C2947 1.369 . S
C2946 C2950 1.531 . S
C2947 C2946 1.369 . S
C2947 C2948 1.410 . S
C2947 C2955 1.503 . S
C2948 C2947 1.410 . S
C2948 C2949 1.392 . S
C2948 C2951 1.511 . S
C2949 C2945 1.376 . S
C2949 C2948 1.392 . S
C2949 H2961 0.929 . S
C2950 C2946 1.531 . S
C2950 H2962 0.960 . S
C2950 H2963 0.962 . S
C2950 H2964 0.960 . S
C2951 C2948 1.511 . S
C2951 H2965 0.961 . S
C2951 H2966 0.961 . S
C2951 H2967 0.961 . S
C2952 C2953 1.370 . S
C2952 C2954 1.363 . S
C2952 H2968 0.931 . S
C2953 C2952 1.370 . S
C2953 C2957 1.408 . S
C2954 C2952 1.363 . S
C2954 C2955 1.370 . S
C2954 C2958 1.524 . S
C2955 C2947 1.503 . S
C2955 C2954 1.370 . S
C2955 C2956 1.403 . S
C2956 C2955 1.403 . S
C2956 C2957 1.404 . S
C2956 C2959 1.539 . S
C2957 C2953 1.408 . S
C2957 C2956 1.404 . S
C2957 H2969 0.930 . S
C2958 C2954 1.524 . S
C2958 H2970 0.956 . S
C2958 H2971 0.961 . S
C2958 H2972 0.961 . S
C2959 C2956 1.539 . S
C2959 H2973 0.958 . S
C2959 H2974 0.961 . S
C2959 H2975 0.960 . S
H2960 C2944 0.931 . S
H2961 C2949 0.929 . S
H2962 C2950 0.960 . S
H2963 C2950 0.962 . S
H2964 C2950 0.960 . S
H2965 C2951 0.961 . S
H2966 C2951 0.961 . S
H2967 C2951 0.961 . S
H2968 C2952 0.931 . S
H2969 C2957 0.930 . S
H2970 C2958 0.956 . S
H2971 C2958 0.961 . S
H2972 C2958 0.961 . S
H2973 C2959 0.958 . S
H2974 C2959 0.961 . S
H2975 C2959 0.960 . S
C2976 C2977 1.391 . S
C2976 C2978 1.394 . S
C2976 H2992 0.931 . S
C2977 C2976 1.391 . S
C2977 C2981 1.376 . S
C2978 C2976 1.394 . S
C2978 C2979 1.369 . S
C2978 C2982 1.531 . S
C2979 C2978 1.369 . S
C2979 C2980 1.410 . S
C2979 C2987 1.503 . S
C2980 C2979 1.410 . S
C2980 C2981 1.392 . S
C2980 C2983 1.511 . S
C2981 C2977 1.376 . S
C2981 C2980 1.392 . S
C2981 H2993 0.929 . S
C2982 C2978 1.531 . S
C2982 H2994 0.960 . S
C2982 H2995 0.962 . S
C2982 H2996 0.960 . S
C2983 C2980 1.511 . S
C2983 H2997 0.961 . S
C2983 H2998 0.961 . S
C2983 H2999 0.961 . S
C2984 C2985 1.370 . S
C2984 C2986 1.363 . S
C2984 H3000 0.931 . S
C2985 C2984 1.370 . S
C2985 C2989 1.408 . S
C2986 C2984 1.363 . S
C2986 C2987 1.370 . S
C2986 C2990 1.524 . S
C2987 C2979 1.503 . S
C2987 C2986 1.370 . S
C2987 C2988 1.403 . S
C2988 C2987 1.403 . S
C2988 C2989 1.404 . S
C2988 C2991 1.539 . S
C2989 C2985 1.408 . S
C2989 C2988 1.404 . S
C2989 H3001 0.930 . S
C2990 C2986 1.524 . S
C2990 H3002 0.956 . S
C2990 H3003 0.961 . S
C2990 H3004 0.961 . S
C2991 C2988 1.539 . S
C2991 H3005 0.958 . S
C2991 H3006 0.961 . S
C2991 H3007 0.960 . S
H2992 C2976 0.931 . S
H2993 C2981 0.929 . S
H2994 C2982 0.960 . S
H2995 C2982 0.962 . S
H2996 C2982 0.960 . S
H2997 C2983 0.961 . S
H2998 C2983 0.961 . S
H2999 C2983 0.961 . S
H3000 C2984 0.931 . S
H3001 C2989 0.930 . S
H3002 C2990 0.956 . S
H3003 C2990 0.961 . S
H3004 C2990 0.961 . S
H3005 C2991 0.958 . S
H3006 C2991 0.961 . S
H3007 C2991 0.960 . S
C3008 C3009 1.391 . S
C3008 C3010 1.394 . S
C3008 H3024 0.931 . S
C3009 C3008 1.391 . S
C3009 C3013 1.376 . S
C3010 C3008 1.394 . S
C3010 C3011 1.369 . S
C3010 C3014 1.531 . S
C3011 C3010 1.369 . S
C3011 C3012 1.410 . S
C3011 C3019 1.503 . S
C3012 C3011 1.410 . S
C3012 C3013 1.392 . S
C3012 C3015 1.511 . S
C3013 C3009 1.376 . S
C3013 C3012 1.392 . S
C3013 H3025 0.929 . S
C3014 C3010 1.531 . S
C3014 H3026 0.960 . S
C3014 H3027 0.962 . S
C3014 H3028 0.960 . S
C3015 C3012 1.511 . S
C3015 H3029 0.961 . S
C3015 H3030 0.961 . S
C3015 H3031 0.961 . S
C3016 C3017 1.370 . S
C3016 C3018 1.363 . S
C3016 H3032 0.931 . S
C3017 C3016 1.370 . S
C3017 C3021 1.408 . S
C3018 C3016 1.363 . S
C3018 C3019 1.370 . S
C3018 C3022 1.524 . S
C3019 C3011 1.503 . S
C3019 C3018 1.370 . S
C3019 C3020 1.403 . S
C3020 C3019 1.403 . S
C3020 C3021 1.404 . S
C3020 C3023 1.539 . S
C3021 C3017 1.408 . S
C3021 C3020 1.404 . S
C3021 H3033 0.930 . S
C3022 C3018 1.524 . S
C3022 H3034 0.956 . S
C3022 H3035 0.961 . S
C3022 H3036 0.961 . S
C3023 C3020 1.539 . S
C3023 H3037 0.958 . S
C3023 H3038 0.961 . S
C3023 H3039 0.960 . S
H3024 C3008 0.931 . S
H3025 C3013 0.929 . S
H3026 C3014 0.960 . S
H3027 C3014 0.962 . S
H3028 C3014 0.960 . S
H3029 C3015 0.961 . S
H3030 C3015 0.961 . S
H3031 C3015 0.961 . S
H3032 C3016 0.931 . S
H3033 C3021 0.930 . S
H3034 C3022 0.956 . S
H3035 C3022 0.961 . S
H3036 C3022 0.961 . S
H3037 C3023 0.958 . S
H3038 C3023 0.961 . S
H3039 C3023 0.960 . S
C3040 C3041 1.391 . S
C3040 C3042 1.394 . S
C3040 H3056 0.931 . S
C3041 C3040 1.391 . S
C3041 C3045 1.376 . S
C3042 C3040 1.394 . S
C3042 C3043 1.369 . S
C3042 C3046 1.531 . S
C3043 C3042 1.369 . S
C3043 C3044 1.410 . S
C3043 C3051 1.503 . S
C3044 C3043 1.410 . S
C3044 C3045 1.392 . S
C3044 C3047 1.511 . S
C3045 C3041 1.376 . S
C3045 C3044 1.392 . S
C3045 H3057 0.929 . S
C3046 C3042 1.531 . S
C3046 H3058 0.960 . S
C3046 H3059 0.962 . S
C3046 H3060 0.960 . S
C3047 C3044 1.511 . S
C3047 H3061 0.961 . S
C3047 H3062 0.961 . S
C3047 H3063 0.961 . S
C3048 C3049 1.370 . S
C3048 C3050 1.363 . S
C3048 H3064 0.931 . S
C3049 C3048 1.370 . S
C3049 C3053 1.408 . S
C3050 C3048 1.363 . S
C3050 C3051 1.370 . S
C3050 C3054 1.524 . S
C3051 C3043 1.503 . S
C3051 C3050 1.370 . S
C3051 C3052 1.403 . S
C3052 C3051 1.403 . S
C3052 C3053 1.404 . S
C3052 C3055 1.539 . S
C3053 C3049 1.408 . S
C3053 C3052 1.404 . S
C3053 H3065 0.930 . S
C3054 C3050 1.524 . S
C3054 H3066 0.956 . S
C3054 H3067 0.961 . S
C3054 H3068 0.961 . S
C3055 C3052 1.539 . S
C3055 H3069 0.958 . S
C3055 H3070 0.961 . S
C3055 H3071 0.960 . S
H3056 C3040 0.931 . S
H3057 C3045 0.929 . S
H3058 C3046 0.960 . S
H3059 C3046 0.962 . S
H3060 C3046 0.960 . S
H3061 C3047 0.961 . S
H3062 C3047 0.961 . S
H3063 C3047 0.961 . S
H3064 C3048 0.931 . S
H3065 C3053 0.930 . S
H3066 C3054 0.956 . S
H3067 C3054 0.961 . S
H3068 C3054 0.961 . S
H3069 C3055 0.958 . S
H3070 C3055 0.961 . S
H3071 C3055 0.960 . S
C3072 C3073 1.391 . S
C3072 C3074 1.394 . S
C3072 H3088 0.931 . S
C3073 C3072 1.391 . S
C3073 C3077 1.376 . S
C3074 C3072 1.394 . S
C3074 C3075 1.369 . S
C3074 C3078 1.531 . S
C3075 C3074 1.369 . S
C3075 C3076 1.410 . S
C3075 C3083 1.503 . S
C3076 C3075 1.410 . S
C3076 C3077 1.392 . S
C3076 C3079 1.511 . S
C3077 C3073 1.376 . S
C3077 C3076 1.392 . S
C3077 H3089 0.929 . S
C3078 C3074 1.531 . S
C3078 H3090 0.960 . S
C3078 H3091 0.962 . S
C3078 H3092 0.960 . S
C3079 C3076 1.511 . S
C3079 H3093 0.961 . S
C3079 H3094 0.961 . S
C3079 H3095 0.961 . S
C3080 C3081 1.370 . S
C3080 C3082 1.363 . S
C3080 H3096 0.931 . S
C3081 C3080 1.370 . S
C3081 C3085 1.408 . S
C3082 C3080 1.363 . S
C3082 C3083 1.370 . S
C3082 C3086 1.524 . S
C3083 C3075 1.503 . S
C3083 C3082 1.370 . S
C3083 C3084 1.403 . S
C3084 C3083 1.403 . S
C3084 C3085 1.404 . S
C3084 C3087 1.539 . S
C3085 C3081 1.408 . S
C3085 C3084 1.404 . S
C3085 H3097 0.930 . S
C3086 C3082 1.524 . S
C3086 H3098 0.956 . S
C3086 H3099 0.961 . S
C3086 H3100 0.961 . S
C3087 C3084 1.539 . S
C3087 H3101 0.958 . S
C3087 H3102 0.961 . S
C3087 H3103 0.960 . S
H3088 C3072 0.931 . S
H3089 C3077 0.929 . S
H3090 C3078 0.960 . S
H3091 C3078 0.962 . S
H3092 C3078 0.960 . S
H3093 C3079 0.961 . S
H3094 C3079 0.961 . S
H3095 C3079 0.961 . S
H3096 C3080 0.931 . S
H3097 C3085 0.930 . S
H3098 C3086 0.956 . S
H3099 C3086 0.961 . S
H3100 C3086 0.961 . S
H3101 C3087 0.958 . S
H3102 C3087 0.961 . S
H3103 C3087 0.960 . S
C3104 C3105 1.391 . S
C3104 C3106 1.394 . S
C3104 H3120 0.931 . S
C3105 C3104 1.391 . S
C3105 C3109 1.376 . S
C3106 C3104 1.394 . S
C3106 C3107 1.369 . S
C3106 C3110 1.531 . S
C3107 C3106 1.369 . S
C3107 C3108 1.410 . S
C3107 C3115 1.503 . S
C3108 C3107 1.410 . S
C3108 C3109 1.392 . S
C3108 C3111 1.511 . S
C3109 C3105 1.376 . S
C3109 C3108 1.392 . S
C3109 H3121 0.929 . S
C3110 C3106 1.531 . S
C3110 H3122 0.960 . S
C3110 H3123 0.962 . S
C3110 H3124 0.960 . S
C3111 C3108 1.511 . S
C3111 H3125 0.961 . S
C3111 H3126 0.961 . S
C3111 H3127 0.961 . S
C3112 C3113 1.370 . S
C3112 C3114 1.363 . S
C3112 H3128 0.931 . S
C3113 C3112 1.370 . S
C3113 C3117 1.408 . S
C3114 C3112 1.363 . S
C3114 C3115 1.370 . S
C3114 C3118 1.524 . S
C3115 C3107 1.503 . S
C3115 C3114 1.370 . S
C3115 C3116 1.403 . S
C3116 C3115 1.403 . S
C3116 C3117 1.404 . S
C3116 C3119 1.539 . S
C3117 C3113 1.408 . S
C3117 C3116 1.404 . S
C3117 H3129 0.930 . S
C3118 C3114 1.524 . S
C3118 H3130 0.956 . S
C3118 H3131 0.961 . S
C3118 H3132 0.961 . S
C3119 C3116 1.539 . S
C3119 H3133 0.958 . S
C3119 H3134 0.961 . S
C3119 H3135 0.960 . S
H3120 C3104 0.931 . S
H3121 C3109 0.929 . S
H3122 C3110 0.960 . S
H3123 C3110 0.962 . S
H3124 C3110 0.960 . S
H3125 C3111 0.961 . S
H3126 C3111 0.961 . S
H3127 C3111 0.961 . S
H3128 C3112 0.931 . S
H3129 C3117 0.930 . S
H3130 C3118 0.956 . S
H3131 C3118 0.961 . S
H3132 C3118 0.961 . S
H3133 C3119 0.958 . S
H3134 C3119 0.961 . S
H3135 C3119 0.960 . S
C3136 C3137 1.391 . S
C3136 C3138 1.394 . S
C3136 H3152 0.931 . S
C3137 C3136 1.391 . S
C3137 C3141 1.376 . S
C3138 C3136 1.394 . S
C3138 C3139 1.369 . S
C3138 C3142 1.531 . S
C3139 C3138 1.369 . S
C3139 C3140 1.410 . S
C3139 C3147 1.503 . S
C3140 C3139 1.410 . S
C3140 C3141 1.392 . S
C3140 C3143 1.511 . S
C3141 C3137 1.376 . S
C3141 C3140 1.392 . S
C3141 H3153 0.929 . S
C3142 C3138 1.531 . S
C3142 H3154 0.960 . S
C3142 H3155 0.962 . S
C3142 H3156 0.960 . S
C3143 C3140 1.511 . S
C3143 H3157 0.961 . S
C3143 H3158 0.961 . S
C3143 H3159 0.961 . S
C3144 C3145 1.370 . S
C3144 C3146 1.363 . S
C3144 H3160 0.931 . S
C3145 C3144 1.370 . S
C3145 C3149 1.408 . S
C3146 C3144 1.363 . S
C3146 C3147 1.370 . S
C3146 C3150 1.524 . S
C3147 C3139 1.503 . S
C3147 C3146 1.370 . S
C3147 C3148 1.403 . S
C3148 C3147 1.403 . S
C3148 C3149 1.404 . S
C3148 C3151 1.539 . S
C3149 C3145 1.408 . S
C3149 C3148 1.404 . S
C3149 H3161 0.930 . S
C3150 C3146 1.524 . S
C3150 H3162 0.956 . S
C3150 H3163 0.961 . S
C3150 H3164 0.961 . S
C3151 C3148 1.539 . S
C3151 H3165 0.958 . S
C3151 H3166 0.961 . S
C3151 H3167 0.960 . S
H3152 C3136 0.931 . S
H3153 C3141 0.929 . S
H3154 C3142 0.960 . S
H3155 C3142 0.962 . S
H3156 C3142 0.960 . S
H3157 C3143 0.961 . S
H3158 C3143 0.961 . S
H3159 C3143 0.961 . S
H3160 C3144 0.931 . S
H3161 C3149 0.930 . S
H3162 C3150 0.956 . S
H3163 C3150 0.961 . S
H3164 C3150 0.961 . S
H3165 C3151 0.958 . S
H3166 C3151 0.961 . S
H3167 C3151 0.960 . S
C3168 C3169 1.391 . S
C3168 C3170 1.394 . S
C3168 H3184 0.931 . S
C3169 C3168 1.391 . S
C3169 C3173 1.376 . S
C3170 C3168 1.394 . S
C3170 C3171 1.369 . S
C3170 C3174 1.531 . S
C3171 C3170 1.369 . S
C3171 C3172 1.410 . S
C3171 C3179 1.503 . S
C3172 C3171 1.410 . S
C3172 C3173 1.392 . S
C3172 C3175 1.511 . S
C3173 C3169 1.376 . S
C3173 C3172 1.392 . S
C3173 H3185 0.929 . S
C3174 C3170 1.531 . S
C3174 H3186 0.960 . S
C3174 H3187 0.962 . S
C3174 H3188 0.960 . S
C3175 C3172 1.511 . S
C3175 H3189 0.961 . S
C3175 H3190 0.961 . S
C3175 H3191 0.961 . S
C3176 C3177 1.370 . S
C3176 C3178 1.363 . S
C3176 H3192 0.931 . S
C3177 C3176 1.370 . S
C3177 C3181 1.408 . S
C3178 C3176 1.363 . S
C3178 C3179 1.370 . S
C3178 C3182 1.524 . S
C3179 C3171 1.503 . S
C3179 C3178 1.370 . S
C3179 C3180 1.403 . S
C3180 C3179 1.403 . S
C3180 C3181 1.404 . S
C3180 C3183 1.539 . S
C3181 C3177 1.408 . S
C3181 C3180 1.404 . S
C3181 H3193 0.930 . S
C3182 C3178 1.524 . S
C3182 H3194 0.956 . S
C3182 H3195 0.961 . S
C3182 H3196 0.961 . S
C3183 C3180 1.539 . S
C3183 H3197 0.958 . S
C3183 H3198 0.961 . S
C3183 H3199 0.960 . S
H3184 C3168 0.931 . S
H3185 C3173 0.929 . S
H3186 C3174 0.960 . S
H3187 C3174 0.962 . S
H3188 C3174 0.960 . S
H3189 C3175 0.961 . S
H3190 C3175 0.961 . S
H3191 C3175 0.961 . S
H3192 C3176 0.931 . S
H3193 C3181 0.930 . S
H3194 C3182 0.956 . S
H3195 C3182 0.961 . S
H3196 C3182 0.961 . S
H3197 C3183 0.958 . S
H3198 C3183 0.961 . S
H3199 C3183 0.960 . S
C3200 C3201 1.391 . S
C3200 C3202 1.394 . S
C3200 H3216 0.931 . S
C3201 C3200 1.391 . S
C3201 C3205 1.376 . S
C3202 C3200 1.394 . S
C3202 C3203 1.369 . S
C3202 C3206 1.531 . S
C3203 C3202 1.369 . S
C3203 C3204 1.410 . S
C3203 C3211 1.503 . S
C3204 C3203 1.410 . S
C3204 C3205 1.392 . S
C3204 C3207 1.511 . S
C3205 C3201 1.376 . S
C3205 C3204 1.392 . S
C3205 H3217 0.929 . S
C3206 C3202 1.531 . S
C3206 H3218 0.960 . S
C3206 H3219 0.962 . S
C3206 H3220 0.960 . S
C3207 C3204 1.511 . S
C3207 H3221 0.961 . S
C3207 H3222 0.961 . S
C3207 H3223 0.961 . S
C3208 C3209 1.370 . S
C3208 C3210 1.363 . S
C3208 H3224 0.931 . S
C3209 C3208 1.370 . S
C3209 C3213 1.408 . S
C3210 C3208 1.363 . S
C3210 C3211 1.370 . S
C3210 C3214 1.524 . S
C3211 C3203 1.503 . S
C3211 C3210 1.370 . S
C3211 C3212 1.403 . S
C3212 C3211 1.403 . S
C3212 C3213 1.404 . S
C3212 C3215 1.539 . S
C3213 C3209 1.408 . S
C3213 C3212 1.404 . S
C3213 H3225 0.930 . S
C3214 C3210 1.524 . S
C3214 H3226 0.956 . S
C3214 H3227 0.961 . S
C3214 H3228 0.961 . S
C3215 C3212 1.539 . S
C3215 H3229 0.958 . S
C3215 H3230 0.961 . S
C3215 H3231 0.960 . S
H3216 C3200 0.931 . S
H3217 C3205 0.929 . S
H3218 C3206 0.960 . S
H3219 C3206 0.962 . S
H3220 C3206 0.960 . S
H3221 C3207 0.961 . S
H3222 C3207 0.961 . S
H3223 C3207 0.961 . S
H3224 C3208 0.931 . S
H3225 C3213 0.930 . S
H3226 C3214 0.956 . S
H3227 C3214 0.961 . S
H3228 C3214 0.961 . S
H3229 C3215 0.958 . S
H3230 C3215 0.961 . S
H3231 C3215 0.960 . S
C3232 C3233 1.391 . S
C3232 C3234 1.394 . S
C3232 H3248 0.931 . S
C3233 C3232 1.391 . S
C3233 C3237 1.376 . S
C3234 C3232 1.394 . S
C3234 C3235 1.369 . S
C3234 C3238 1.531 . S
C3235 C3234 1.369 . S
C3235 C3236 1.410 . S
C3235 C3243 1.503 . S
C3236 C3235 1.410 . S
C3236 C3237 1.392 . S
C3236 C3239 1.511 . S
C3237 C3233 1.376 . S
C3237 C3236 1.392 . S
C3237 H3249 0.929 . S
C3238 C3234 1.531 . S
C3238 H3250 0.960 . S
C3238 H3251 0.962 . S
C3238 H3252 0.960 . S
C3239 C3236 1.511 . S
C3239 H3253 0.961 . S
C3239 H3254 0.961 . S
C3239 H3255 0.961 . S
C3240 C3241 1.370 . S
C3240 C3242 1.363 . S
C3240 H3256 0.931 . S
C3241 C3240 1.370 . S
C3241 C3245 1.408 . S
C3242 C3240 1.363 . S
C3242 C3243 1.370 . S
C3242 C3246 1.524 . S
C3243 C3235 1.503 . S
C3243 C3242 1.370 . S
C3243 C3244 1.403 . S
C3244 C3243 1.403 . S
C3244 C3245 1.404 . S
C3244 C3247 1.539 . S
C3245 C3241 1.408 . S
C3245 C3244 1.404 . S
C3245 H3257 0.930 . S
C3246 C3242 1.524 . S
C3246 H3258 0.956 . S
C3246 H3259 0.961 . S
C3246 H3260 0.961 . S
C3247 C3244 1.539 . S
C3247 H3261 0.958 . S
C3247 H3262 0.961 . S
C3247 H3263 0.960 . S
H3248 C3232 0.931 . S
H3249 C3237 0.929 . S
H3250 C3238 0.960 . S
H3251 C3238 0.962 . S
H3252 C3238 0.960 . S
H3253 C3239 0.961 . S
H3254 C3239 0.961 . S
H3255 C3239 0.961 . S
H3256 C3240 0.931 . S
H3257 C3245 0.930 . S
H3258 C3246 0.956 . S
H3259 C3246 0.961 . S
H3260 C3246 0.961 . S
H3261 C3247 0.958 . S
H3262 C3247 0.961 . S
H3263 C3247 0.960 . S
C3264 C3265 1.391 . S
C3264 C3266 1.394 . S
C3264 H3280 0.931 . S
C3265 C3264 1.391 . S
C3265 C3269 1.376 . S
C3266 C3264 1.394 . S
C3266 C3267 1.369 . S
C3266 C3270 1.531 . S
C3267 C3266 1.369 . S
C3267 C3268 1.410 . S
C3267 C3275 1.503 . S
C3268 C3267 1.410 . S
C3268 C3269 1.392 . S
C3268 C3271 1.511 . S
C3269 C3265 1.376 . S
C3269 C3268 1.392 . S
C3269 H3281 0.929 . S
C3270 C3266 1.531 . S
C3270 H3282 0.960 . S
C3270 H3283 0.962 . S
C3270 H3284 0.960 . S
C3271 C3268 1.511 . S
C3271 H3285 0.961 . S
C3271 H3286 0.961 . S
C3271 H3287 0.961 . S
C3272 C3273 1.370 . S
C3272 C3274 1.363 . S
C3272 H3288 0.931 . S
C3273 C3272 1.370 . S
C3273 C3277 1.408 . S
C3274 C3272 1.363 . S
C3274 C3275 1.370 . S
C3274 C3278 1.524 . S
C3275 C3267 1.503 . S
C3275 C3274 1.370 . S
C3275 C3276 1.403 . S
C3276 C3275 1.403 . S
C3276 C3277 1.404 . S
C3276 C3279 1.539 . S
C3277 C3273 1.408 . S
C3277 C3276 1.404 . S
C3277 H3289 0.930 . S
C3278 C3274 1.524 . S
C3278 H3290 0.956 . S
C3278 H3291 0.961 . S
C3278 H3292 0.961 . S
C3279 C3276 1.539 . S
C3279 H3293 0.958 . S
C3279 H3294 0.961 . S
C3279 H3295 0.960 . S
H3280 C3264 0.931 . S
H3281 C3269 0.929 . S
H3282 C3270 0.960 . S
H3283 C3270 0.962 . S
H3284 C3270 0.960 . S
H3285 C3271 0.961 . S
H3286 C3271 0.961 . S
H3287 C3271 0.961 . S
H3288 C3272 0.931 . S
H3289 C3277 0.930 . S
H3290 C3278 0.956 . S
H3291 C3278 0.961 . S
H3292 C3278 0.961 . S
H3293 C3279 0.958 . S
H3294 C3279 0.961 . S
H3295 C3279 0.960 . S
C3296 C3297 1.391 . S
C3296 C3298 1.394 . S
C3296 H3312 0.931 . S
C3297 C3296 1.391 . S
C3297 C3301 1.376 . S
C3298 C3296 1.394 . S
C3298 C3299 1.369 . S
C3298 C3302 1.531 . S
C3299 C3298 1.369 . S
C3299 C3300 1.410 . S
C3299 C3307 1.503 . S
C3300 C3299 1.410 . S
C3300 C3301 1.392 . S
C3300 C3303 1.511 . S
C3301 C3297 1.376 . S
C3301 C3300 1.392 . S
C3301 H3313 0.929 . S
C3302 C3298 1.531 . S
C3302 H3314 0.960 . S
C3302 H3315 0.962 . S
C3302 H3316 0.960 . S
C3303 C3300 1.511 . S
C3303 H3317 0.961 . S
C3303 H3318 0.961 . S
C3303 H3319 0.961 . S
C3304 C3305 1.370 . S
C3304 C3306 1.363 . S
C3304 H3320 0.931 . S
C3305 C3304 1.370 . S
C3305 C3309 1.408 . S
C3306 C3304 1.363 . S
C3306 C3307 1.370 . S
C3306 C3310 1.524 . S
C3307 C3299 1.503 . S
C3307 C3306 1.370 . S
C3307 C3308 1.403 . S
C3308 C3307 1.403 . S
C3308 C3309 1.404 . S
C3308 C3311 1.539 . S
C3309 C3305 1.408 . S
C3309 C3308 1.404 . S
C3309 H3321 0.930 . S
C3310 C3306 1.524 . S
C3310 H3322 0.956 . S
C3310 H3323 0.961 . S
C3310 H3324 0.961 . S
C3311 C3308 1.539 . S
C3311 H3325 0.958 . S
C3311 H3326 0.961 . S
C3311 H3327 0.960 . S
H3312 C3296 0.931 . S
H3313 C3301 0.929 . S
H3314 C3302 0.960 . S
H3315 C3302 0.962 . S
H3316 C3302 0.960 . S
H3317 C3303 0.961 . S
H3318 C3303 0.961 . S
H3319 C3303 0.961 . S
H3320 C3304 0.931 . S
H3321 C3309 0.930 . S
H3322 C3310 0.956 . S
H3323 C3310 0.961 . S
H3324 C3310 0.961 . S
H3325 C3311 0.958 . S
H3326 C3311 0.961 . S
H3327 C3311 0.960 . S
C3328 C3329 1.391 . S
C3328 C3330 1.394 . S
C3328 H3344 0.931 . S
C3329 C3328 1.391 . S
C3329 C3333 1.376 . S
C3330 C3328 1.394 . S
C3330 C3331 1.369 . S
C3330 C3334 1.531 . S
C3331 C3330 1.369 . S
C3331 C3332 1.410 . S
C3331 C3339 1.503 . S
C3332 C3331 1.410 . S
C3332 C3333 1.392 . S
C3332 C3335 1.511 . S
C3333 C3329 1.376 . S
C3333 C3332 1.392 . S
C3333 H3345 0.929 . S
C3334 C3330 1.531 . S
C3334 H3346 0.960 . S
C3334 H3347 0.962 . S
C3334 H3348 0.960 . S
C3335 C3332 1.511 . S
C3335 H3349 0.961 . S
C3335 H3350 0.961 . S
C3335 H3351 0.961 . S
C3336 C3337 1.370 . S
C3336 C3338 1.363 . S
C3336 H3352 0.931 . S
C3337 C3336 1.370 . S
C3337 C3341 1.408 . S
C3338 C3336 1.363 . S
C3338 C3339 1.370 . S
C3338 C3342 1.524 . S
C3339 C3331 1.503 . S
C3339 C3338 1.370 . S
C3339 C3340 1.403 . S
C3340 C3339 1.403 . S
C3340 C3341 1.404 . S
C3340 C3343 1.539 . S
C3341 C3337 1.408 . S
C3341 C3340 1.404 . S
C3341 H3353 0.930 . S
C3342 C3338 1.524 . S
C3342 H3354 0.956 . S
C3342 H3355 0.961 . S
C3342 H3356 0.961 . S
C3343 C3340 1.539 . S
C3343 H3357 0.958 . S
C3343 H3358 0.961 . S
C3343 H3359 0.960 . S
H3344 C3328 0.931 . S
H3345 C3333 0.929 . S
H3346 C3334 0.960 . S
H3347 C3334 0.962 . S
H3348 C3334 0.960 . S
H3349 C3335 0.961 . S
H3350 C3335 0.961 . S
H3351 C3335 0.961 . S
H3352 C3336 0.931 . S
H3353 C3341 0.930 . S
H3354 C3342 0.956 . S
H3355 C3342 0.961 . S
H3356 C3342 0.961 . S
H3357 C3343 0.958 . S
H3358 C3343 0.961 . S
H3359 C3343 0.960 . S
C3360 C3361 1.391 . S
C3360 C3362 1.394 . S
C3360 H3376 0.931 . S
C3361 C3360 1.391 . S
C3361 C3365 1.376 . S
C3362 C3360 1.394 . S
C3362 C3363 1.369 . S
C3362 C3366 1.531 . S
C3363 C3362 1.369 . S
C3363 C3364 1.410 . S
C3363 C3371 1.503 . S
C3364 C3363 1.410 . S
C3364 C3365 1.392 . S
C3364 C3367 1.511 . S
C3365 C3361 1.376 . S
C3365 C3364 1.392 . S
C3365 H3377 0.929 . S
C3366 C3362 1.531 . S
C3366 H3378 0.960 . S
C3366 H3379 0.962 . S
C3366 H3380 0.960 . S
C3367 C3364 1.511 . S
C3367 H3381 0.961 . S
C3367 H3382 0.961 . S
C3367 H3383 0.961 . S
C3368 C3369 1.370 . S
C3368 C3370 1.363 . S
C3368 H3384 0.931 . S
C3369 C3368 1.370 . S
C3369 C3373 1.408 . S
C3370 C3368 1.363 . S
C3370 C3371 1.370 . S
C3370 C3374 1.524 . S
C3371 C3363 1.503 . S
C3371 C3370 1.370 . S
C3371 C3372 1.403 . S
C3372 C3371 1.403 . S
C3372 C3373 1.404 . S
C3372 C3375 1.539 . S
C3373 C3369 1.408 . S
C3373 C3372 1.404 . S
C3373 H3385 0.930 . S
C3374 C3370 1.524 . S
C3374 H3386 0.956 . S
C3374 H3387 0.961 . S
C3374 H3388 0.961 . S
C3375 C3372 1.539 . S
C3375 H3389 0.958 . S
C3375 H3390 0.961 . S
C3375 H3391 0.960 . S
H3376 C3360 0.931 . S
H3377 C3365 0.929 . S
H3378 C3366 0.960 . S
H3379 C3366 0.962 . S
H3380 C3366 0.960 . S
H3381 C3367 0.961 . S
H3382 C3367 0.961 . S
H3383 C3367 0.961 . S
H3384 C3368 0.931 . S
H3385 C3373 0.930 . S
H3386 C3374 0.956 . S
H3387 C3374 0.961 . S
H3388 C3374 0.961 . S
H3389 C3375 0.958 . S
H3390 C3375 0.961 . S
H3391 C3375 0.960 . S
C3392 C3393 1.391 . S
C3392 C3394 1.394 . S
C3392 H3408 0.931 . S
C3393 C3392 1.391 . S
C3393 C3397 1.376 . S
C3394 C3392 1.394 . S
C3394 C3395 1.369 . S
C3394 C3398 1.531 . S
C3395 C3394 1.369 . S
C3395 C3396 1.410 . S
C3395 C3403 1.503 . S
C3396 C3395 1.410 . S
C3396 C3397 1.392 . S
C3396 C3399 1.511 . S
C3397 C3393 1.376 . S
C3397 C3396 1.392 . S
C3397 H3409 0.929 . S
C3398 C3394 1.531 . S
C3398 H3410 0.960 . S
C3398 H3411 0.962 . S
C3398 H3412 0.960 . S
C3399 C3396 1.511 . S
C3399 H3413 0.961 . S
C3399 H3414 0.961 . S
C3399 H3415 0.961 . S
C3400 C3401 1.370 . S
C3400 C3402 1.363 . S
C3400 H3416 0.931 . S
C3401 C3400 1.370 . S
C3401 C3405 1.408 . S
C3402 C3400 1.363 . S
C3402 C3403 1.370 . S
C3402 C3406 1.524 . S
C3403 C3395 1.503 . S
C3403 C3402 1.370 . S
C3403 C3404 1.403 . S
C3404 C3403 1.403 . S
C3404 C3405 1.404 . S
C3404 C3407 1.539 . S
C3405 C3401 1.408 . S
C3405 C3404 1.404 . S
C3405 H3417 0.930 . S
C3406 C3402 1.524 . S
C3406 H3418 0.956 . S
C3406 H3419 0.961 . S
C3406 H3420 0.961 . S
C3407 C3404 1.539 . S
C3407 H3421 0.958 . S
C3407 H3422 0.961 . S
C3407 H3423 0.960 . S
H3408 C3392 0.931 . S
H3409 C3397 0.929 . S
H3410 C3398 0.960 . S
H3411 C3398 0.962 . S
H3412 C3398 0.960 . S
H3413 C3399 0.961 . S
H3414 C3399 0.961 . S
H3415 C3399 0.961 . S
H3416 C3400 0.931 . S
H3417 C3405 0.930 . S
H3418 C3406 0.956 . S
H3419 C3406 0.961 . S
H3420 C3406 0.961 . S
H3421 C3407 0.958 . S
H3422 C3407 0.961 . S
H3423 C3407 0.960 . S
C3424 C3425 1.391 . S
C3424 C3426 1.394 . S
C3424 H3440 0.931 . S
C3425 C3424 1.391 . S
C3425 C3429 1.376 . S
C3426 C3424 1.394 . S
C3426 C3427 1.369 . S
C3426 C3430 1.531 . S
C3427 C3426 1.369 . S
C3427 C3428 1.410 . S
C3427 C3435 1.503 . S
C3428 C3427 1.410 . S
C3428 C3429 1.392 . S
C3428 C3431 1.511 . S
C3429 C3425 1.376 . S
C3429 C3428 1.392 . S
C3429 H3441 0.929 . S
C3430 C3426 1.531 . S
C3430 H3442 0.960 . S
C3430 H3443 0.962 . S
C3430 H3444 0.960 . S
C3431 C3428 1.511 . S
C3431 H3445 0.961 . S
C3431 H3446 0.961 . S
C3431 H3447 0.961 . S
C3432 C3433 1.370 . S
C3432 C3434 1.363 . S
C3432 H3448 0.931 . S
C3433 C3432 1.370 . S
C3433 C3437 1.408 . S
C3434 C3432 1.363 . S
C3434 C3435 1.370 . S
C3434 C3438 1.524 . S
C3435 C3427 1.503 . S
C3435 C3434 1.370 . S
C3435 C3436 1.403 . S
C3436 C3435 1.403 . S
C3436 C3437 1.404 . S
C3436 C3439 1.539 . S
C3437 C3433 1.408 . S
C3437 C3436 1.404 . S
C3437 H3449 0.930 . S
C3438 C3434 1.524 . S
C3438 H3450 0.956 . S
C3438 H3451 0.961 . S
C3438 H3452 0.961 . S
C3439 C3436 1.539 . S
C3439 H3453 0.958 . S
C3439 H3454 0.961 . S
C3439 H3455 0.960 . S
H3440 C3424 0.931 . S
H3441 C3429 0.929 . S
H3442 C3430 0.960 . S
H3443 C3430 0.962 . S
H3444 C3430 0.960 . S
H3445 C3431 0.961 . S
H3446 C3431 0.961 . S
H3447 C3431 0.961 . S
H3448 C3432 0.931 . S
H3449 C3437 0.930 . S
H3450 C3438 0.956 . S
H3451 C3438 0.961 . S
H3452 C3438 0.961 . S
H3453 C3439 0.958 . S
H3454 C3439 0.961 . S
H3455 C3439 0.960 . S
C3456 C3457 1.391 . S
C3456 C3458 1.394 . S
C3456 H3472 0.931 . S
C3457 C3456 1.391 . S
C3457 C3461 1.376 . S
C3458 C3456 1.394 . S
C3458 C3459 1.369 . S
C3458 C3462 1.531 . S
C3459 C3458 1.369 . S
C3459 C3460 1.410 . S
C3459 C3467 1.503 . S
C3460 C3459 1.410 . S
C3460 C3461 1.392 . S
C3460 C3463 1.511 . S
C3461 C3457 1.376 . S
C3461 C3460 1.392 . S
C3461 H3473 0.929 . S
C3462 C3458 1.531 . S
C3462 H3474 0.960 . S
C3462 H3475 0.962 . S
C3462 H3476 0.960 . S
C3463 C3460 1.511 . S
C3463 H3477 0.961 . S
C3463 H3478 0.961 . S
C3463 H3479 0.961 . S
C3464 C3465 1.370 . S
C3464 C3466 1.363 . S
C3464 H3480 0.931 . S
C3465 C3464 1.370 . S
C3465 C3469 1.408 . S
C3466 C3464 1.363 . S
C3466 C3467 1.370 . S
C3466 C3470 1.524 . S
C3467 C3459 1.503 . S
C3467 C3466 1.370 . S
C3467 C3468 1.403 . S
C3468 C3467 1.403 . S
C3468 C3469 1.404 . S
C3468 C3471 1.539 . S
C3469 C3465 1.408 . S
C3469 C3468 1.404 . S
C3469 H3481 0.930 . S
C3470 C3466 1.524 . S
C3470 H3482 0.956 . S
C3470 H3483 0.961 . S
C3470 H3484 0.961 . S
C3471 C3468 1.539 . S
C3471 H3485 0.958 . S
C3471 H3486 0.961 . S
C3471 H3487 0.960 . S
H3472 C3456 0.931 . S
H3473 C3461 0.929 . S
H3474 C3462 0.960 . S
H3475 C3462 0.962 . S
H3476 C3462 0.960 . S
H3477 C3463 0.961 . S
H3478 C3463 0.961 . S
H3479 C3463 0.961 . S
H3480 C3464 0.931 . S
H3481 C3469 0.930 . S
H3482 C3470 0.956 . S
H3483 C3470 0.961 . S
H3484 C3470 0.961 . S
H3485 C3471 0.958 . S
H3486 C3471 0.961 . S
H3487 C3471 0.960 . S
C3488 C3489 1.391 . S
C3488 C3490 1.394 . S
C3488 H3504 0.931 . S
C3489 C3488 1.391 . S
C3489 C3493 1.376 . S
C3490 C3488 1.394 . S
C3490 C3491 1.369 . S
C3490 C3494 1.531 . S
C3491 C3490 1.369 . S
C3491 C3492 1.410 . S
C3491 C3499 1.503 . S
C3492 C3491 1.410 . S
C3492 C3493 1.392 . S
C3492 C3495 1.511 . S
C3493 C3489 1.376 . S
C3493 C3492 1.392 . S
C3493 H3505 0.929 . S
C3494 C3490 1.531 . S
C3494 H3506 0.960 . S
C3494 H3507 0.962 . S
C3494 H3508 0.960 . S
C3495 C3492 1.511 . S
C3495 H3509 0.961 . S
C3495 H3510 0.961 . S
C3495 H3511 0.961 . S
C3496 C3497 1.370 . S
C3496 C3498 1.363 . S
C3496 H3512 0.931 . S
C3497 C3496 1.370 . S
C3497 C3501 1.408 . S
C3498 C3496 1.363 . S
C3498 C3499 1.370 . S
C3498 C3502 1.524 . S
C3499 C3491 1.503 . S
C3499 C3498 1.370 . S
C3499 C3500 1.403 . S
C3500 C3499 1.403 . S
C3500 C3501 1.404 . S
C3500 C3503 1.539 . S
C3501 C3497 1.408 . S
C3501 C3500 1.404 . S
C3501 H3513 0.930 . S
C3502 C3498 1.524 . S
C3502 H3514 0.956 . S
C3502 H3515 0.961 . S
C3502 H3516 0.961 . S
C3503 C3500 1.539 . S
C3503 H3517 0.958 . S
C3503 H3518 0.961 . S
C3503 H3519 0.960 . S
H3504 C3488 0.931 . S
H3505 C3493 0.929 . S
H3506 C3494 0.960 . S
H3507 C3494 0.962 . S
H3508 C3494 0.960 . S
H3509 C3495 0.961 . S
H3510 C3495 0.961 . S
H3511 C3495 0.961 . S
H3512 C3496 0.931 . S
H3513 C3501 0.930 . S
H3514 C3502 0.956 . S
H3515 C3502 0.961 . S
H3516 C3502 0.961 . S
H3517 C3503 0.958 . S
H3518 C3503 0.961 . S
H3519 C3503 0.960 . S
C3520 C3521 1.391 . S
C3520 C3522 1.394 . S
C3520 H3536 0.931 . S
C3521 C3520 1.391 . S
C3521 C3525 1.376 . S
C3522 C3520 1.394 . S
C3522 C3523 1.369 . S
C3522 C3526 1.531 . S
C3523 C3522 1.369 . S
C3523 C3524 1.410 . S
C3523 C3531 1.503 . S
C3524 C3523 1.410 . S
C3524 C3525 1.392 . S
C3524 C3527 1.511 . S
C3525 C3521 1.376 . S
C3525 C3524 1.392 . S
C3525 H3537 0.929 . S
C3526 C3522 1.531 . S
C3526 H3538 0.960 . S
C3526 H3539 0.962 . S
C3526 H3540 0.960 . S
C3527 C3524 1.511 . S
C3527 H3541 0.961 . S
C3527 H3542 0.961 . S
C3527 H3543 0.961 . S
C3528 C3529 1.370 . S
C3528 C3530 1.363 . S
C3528 H3544 0.931 . S
C3529 C3528 1.370 . S
C3529 C3533 1.408 . S
C3530 C3528 1.363 . S
C3530 C3531 1.370 . S
C3530 C3534 1.524 . S
C3531 C3523 1.503 . S
C3531 C3530 1.370 . S
C3531 C3532 1.403 . S
C3532 C3531 1.403 . S
C3532 C3533 1.404 . S
C3532 C3535 1.539 . S
C3533 C3529 1.408 . S
C3533 C3532 1.404 . S
C3533 H3545 0.930 . S
C3534 C3530 1.524 . S
C3534 H3546 0.956 . S
C3534 H3547 0.961 . S
C3534 H3548 0.961 . S
C3535 C3532 1.539 . S
C3535 H3549 0.958 . S
C3535 H3550 0.961 . S
C3535 H3551 0.960 . S
H3536 C3520 0.931 . S
H3537 C3525 0.929 . S
H3538 C3526 0.960 . S
H3539 C3526 0.962 . S
H3540 C3526 0.960 . S
H3541 C3527 0.961 . S
H3542 C3527 0.961 . S
H3543 C3527 0.961 . S
H3544 C3528 0.931 . S
H3545 C3533 0.930 . S
H3546 C3534 0.956 . S
H3547 C3534 0.961 . S
H3548 C3534 0.961 . S
H3549 C3535 0.958 . S
H3550 C3535 0.961 . S
H3551 C3535 0.960 . S
C3552 C3553 1.391 . S
C3552 C3554 1.394 . S
C3552 H3568 0.931 . S
C3553 C3552 1.391 . S
C3553 C3557 1.376 . S
C3554 C3552 1.394 . S
C3554 C3555 1.369 . S
C3554 C3558 1.531 . S
C3555 C3554 1.369 . S
C3555 C3556 1.410 . S
C3555 C3563 1.503 . S
C3556 C3555 1.410 . S
C3556 C3557 1.392 . S
C3556 C3559 1.511 . S
C3557 C3553 1.376 . S
C3557 C3556 1.392 . S
C3557 H3569 0.929 . S
C3558 C3554 1.531 . S
C3558 H3570 0.960 . S
C3558 H3571 0.962 . S
C3558 H3572 0.960 . S
C3559 C3556 1.511 . S
C3559 H3573 0.961 . S
C3559 H3574 0.961 . S
C3559 H3575 0.961 . S
C3560 C3561 1.370 . S
C3560 C3562 1.363 . S
C3560 H3576 0.931 . S
C3561 C3560 1.370 . S
C3561 C3565 1.408 . S
C3562 C3560 1.363 . S
C3562 C3563 1.370 . S
C3562 C3566 1.524 . S
C3563 C3555 1.503 . S
C3563 C3562 1.370 . S
C3563 C3564 1.403 . S
C3564 C3563 1.403 . S
C3564 C3565 1.404 . S
C3564 C3567 1.539 . S
C3565 C3561 1.408 . S
C3565 C3564 1.404 . S
C3565 H3577 0.930 . S
C3566 C3562 1.524 . S
C3566 H3578 0.956 . S
C3566 H3579 0.961 . S
C3566 H3580 0.961 . S
C3567 C3564 1.539 . S
C3567 H3581 0.958 . S
C3567 H3582 0.961 . S
C3567 H3583 0.960 . S
H3568 C3552 0.931 . S
H3569 C3557 0.929 . S
H3570 C3558 0.960 . S
H3571 C3558 0.962 . S
H3572 C3558 0.960 . S
H3573 C3559 0.961 . S
H3574 C3559 0.961 . S
H3575 C3559 0.961 . S
H3576 C3560 0.931 . S
H3577 C3565 0.930 . S
H3578 C3566 0.956 . S
H3579 C3566 0.961 . S
H3580 C3566 0.961 . S
H3581 C3567 0.958 . S
H3582 C3567 0.961 . S
H3583 C3567 0.960 . S
C3584 C3585 1.391 . S
C3584 C3586 1.394 . S
C3584 H3600 0.931 . S
C3585 C3584 1.391 . S
C3585 C3589 1.376 . S
C3586 C3584 1.394 . S
C3586 C3587 1.369 . S
C3586 C3590 1.531 . S
C3587 C3586 1.369 . S
C3587 C3588 1.410 . S
C3587 C3595 1.503 . S
C3588 C3587 1.410 . S
C3588 C3589 1.392 . S
C3588 C3591 1.511 . S
C3589 C3585 1.376 . S
C3589 C3588 1.392 . S
C3589 H3601 0.929 . S
C3590 C3586 1.531 . S
C3590 H3602 0.960 . S
C3590 H3603 0.962 . S
C3590 H3604 0.960 . S
C3591 C3588 1.511 . S
C3591 H3605 0.961 . S
C3591 H3606 0.961 . S
C3591 H3607 0.961 . S
C3592 C3593 1.370 . S
C3592 C3594 1.363 . S
C3592 H3608 0.931 . S
C3593 C3592 1.370 . S
C3593 C3597 1.408 . S
C3594 C3592 1.363 . S
C3594 C3595 1.370 . S
C3594 C3598 1.524 . S
C3595 C3587 1.503 . S
C3595 C3594 1.370 . S
C3595 C3596 1.403 . S
C3596 C3595 1.403 . S
C3596 C3597 1.404 . S
C3596 C3599 1.539 . S
C3597 C3593 1.408 . S
C3597 C3596 1.404 . S
C3597 H3609 0.930 . S
C3598 C3594 1.524 . S
C3598 H3610 0.956 . S
C3598 H3611 0.961 . S
C3598 H3612 0.961 . S
C3599 C3596 1.539 . S
C3599 H3613 0.958 . S
C3599 H3614 0.961 . S
C3599 H3615 0.960 . S
H3600 C3584 0.931 . S
H3601 C3589 0.929 . S
H3602 C3590 0.960 . S
H3603 C3590 0.962 . S
H3604 C3590 0.960 . S
H3605 C3591 0.961 . S
H3606 C3591 0.961 . S
H3607 C3591 0.961 . S
H3608 C3592 0.931 . S
H3609 C3597 0.930 . S
H3610 C3598 0.956 . S
H3611 C3598 0.961 . S
H3612 C3598 0.961 . S
H3613 C3599 0.958 . S
H3614 C3599 0.961 . S
H3615 C3599 0.960 . S
C3616 C3617 1.391 . S
C3616 C3618 1.394 . S
C3616 H3632 0.931 . S
C3617 C3616 1.391 . S
C3617 C3621 1.376 . S
C3618 C3616 1.394 . S
C3618 C3619 1.369 . S
C3618 C3622 1.531 . S
C3619 C3618 1.369 . S
C3619 C3620 1.410 . S
C3619 C3627 1.503 . S
C3620 C3619 1.410 . S
C3620 C3621 1.392 . S
C3620 C3623 1.511 . S
C3621 C3617 1.376 . S
C3621 C3620 1.392 . S
C3621 H3633 0.929 . S
C3622 C3618 1.531 . S
C3622 H3634 0.960 . S
C3622 H3635 0.962 . S
C3622 H3636 0.960 . S
C3623 C3620 1.511 . S
C3623 H3637 0.961 . S
C3623 H3638 0.961 . S
C3623 H3639 0.961 . S
C3624 C3625 1.370 . S
C3624 C3626 1.363 . S
C3624 H3640 0.931 . S
C3625 C3624 1.370 . S
C3625 C3629 1.408 . S
C3626 C3624 1.363 . S
C3626 C3627 1.370 . S
C3626 C3630 1.524 . S
C3627 C3619 1.503 . S
C3627 C3626 1.370 . S
C3627 C3628 1.403 . S
C3628 C3627 1.403 . S
C3628 C3629 1.404 . S
C3628 C3631 1.539 . S
C3629 C3625 1.408 . S
C3629 C3628 1.404 . S
C3629 H3641 0.930 . S
C3630 C3626 1.524 . S
C3630 H3642 0.956 . S
C3630 H3643 0.961 . S
C3630 H3644 0.961 . S
C3631 C3628 1.539 . S
C3631 H3645 0.958 . S
C3631 H3646 0.961 . S
C3631 H3647 0.960 . S
H3632 C3616 0.931 . S
H3633 C3621 0.929 . S
H3634 C3622 0.960 . S
H3635 C3622 0.962 . S
H3636 C3622 0.960 . S
H3637 C3623 0.961 . S
H3638 C3623 0.961 . S
H3639 C3623 0.961 . S
H3640 C3624 0.931 . S
H3641 C3629 0.930 . S
H3642 C3630 0.956 . S
H3643 C3630 0.961 . S
H3644 C3630 0.961 . S
H3645 C3631 0.958 . S
H3646 C3631 0.961 . S
H3647 C3631 0.960 . S
C3648 C3649 1.391 . S
C3648 C3650 1.394 . S
C3648 H3664 0.931 . S
C3649 C3648 1.391 . S
C3649 C3653 1.376 . S
C3650 C3648 1.394 . S
C3650 C3651 1.369 . S
C3650 C3654 1.531 . S
C3651 C3650 1.369 . S
C3651 C3652 1.410 . S
C3651 C3659 1.503 . S
C3652 C3651 1.410 . S
C3652 C3653 1.392 . S
C3652 C3655 1.511 . S
C3653 C3649 1.376 . S
C3653 C3652 1.392 . S
C3653 H3665 0.929 . S
C3654 C3650 1.531 . S
C3654 H3666 0.960 . S
C3654 H3667 0.962 . S
C3654 H3668 0.960 . S
C3655 C3652 1.511 . S
C3655 H3669 0.961 . S
C3655 H3670 0.961 . S
C3655 H3671 0.961 . S
C3656 C3657 1.370 . S
C3656 C3658 1.363 . S
C3656 H3672 0.931 . S
C3657 C3656 1.370 . S
C3657 C3661 1.408 . S
C3658 C3656 1.363 . S
C3658 C3659 1.370 . S
C3658 C3662 1.524 . S
C3659 C3651 1.503 . S
C3659 C3658 1.370 . S
C3659 C3660 1.403 . S
C3660 C3659 1.403 . S
C3660 C3661 1.404 . S
C3660 C3663 1.539 . S
C3661 C3657 1.408 . S
C3661 C3660 1.404 . S
C3661 H3673 0.930 . S
C3662 C3658 1.524 . S
C3662 H3674 0.956 . S
C3662 H3675 0.961 . S
C3662 H3676 0.961 . S
C3663 C3660 1.539 . S
C3663 H3677 0.958 . S
C3663 H3678 0.961 . S
C3663 H3679 0.960 . S
H3664 C3648 0.931 . S
H3665 C3653 0.929 . S
H3666 C3654 0.960 . S
H3667 C3654 0.962 . S
H3668 C3654 0.960 . S
H3669 C3655 0.961 . S
H3670 C3655 0.961 . S
H3671 C3655 0.961 . S
H3672 C3656 0.931 . S
H3673 C3661 0.930 . S
H3674 C3662 0.956 . S
H3675 C3662 0.961 . S
H3676 C3662 0.961 . S
H3677 C3663 0.958 . S
H3678 C3663 0.961 . S
H3679 C3663 0.960 . S
C3680 C3681 1.391 . S
C3680 C3682 1.394 . S
C3680 H3696 0.931 . S
C3681 C3680 1.391 . S
C3681 C3685 1.376 . S
C3682 C3680 1.394 . S
C3682 C3683 1.369 . S
C3682 C3686 1.531 . S
C3683 C3682 1.369 . S
C3683 C3684 1.410 . S
C3683 C3691 1.503 . S
C3684 C3683 1.410 . S
C3684 C3685 1.392 . S
C3684 C3687 1.511 . S
C3685 C3681 1.376 . S
C3685 C3684 1.392 . S
C3685 H3697 0.929 . S
C3686 C3682 1.531 . S
C3686 H3698 0.960 . S
C3686 H3699 0.962 . S
C3686 H3700 0.960 . S
C3687 C3684 1.511 . S
C3687 H3701 0.961 . S
C3687 H3702 0.961 . S
C3687 H3703 0.961 . S
C3688 C3689 1.370 . S
C3688 C3690 1.363 . S
C3688 H3704 0.931 . S
C3689 C3688 1.370 . S
C3689 C3693 1.408 . S
C3690 C3688 1.363 . S
C3690 C3691 1.370 . S
C3690 C3694 1.524 . S
C3691 C3683 1.503 . S
C3691 C3690 1.370 . S
C3691 C3692 1.403 . S
C3692 C3691 1.403 . S
C3692 C3693 1.404 . S
C3692 C3695 1.539 . S
C3693 C3689 1.408 . S
C3693 C3692 1.404 . S
C3693 H3705 0.930 . S
C3694 C3690 1.524 . S
C3694 H3706 0.956 . S
C3694 H3707 0.961 . S
C3694 H3708 0.961 . S
C3695 C3692 1.539 . S
C3695 H3709 0.958 . S
C3695 H3710 0.961 . S
C3695 H3711 0.960 . S
H3696 C3680 0.931 . S
H3697 C3685 0.929 . S
H3698 C3686 0.960 . S
H3699 C3686 0.962 . S
H3700 C3686 0.960 . S
H3701 C3687 0.961 . S
H3702 C3687 0.961 . S
H3703 C3687 0.961 . S
H3704 C3688 0.931 . S
H3705 C3693 0.930 . S
H3706 C3694 0.956 . S
H3707 C3694 0.961 . S
H3708 C3694 0.961 . S
H3709 C3695 0.958 . S
H3710 C3695 0.961 . S
H3711 C3695 0.960 . S
C3712 C3713 1.391 . S
C3712 C3714 1.394 . S
C3712 H3728 0.931 . S
C3713 C3712 1.391 . S
C3713 C3717 1.376 . S
C3714 C3712 1.394 . S
C3714 C3715 1.369 . S
C3714 C3718 1.531 . S
C3715 C3714 1.369 . S
C3715 C3716 1.410 . S
C3715 C3723 1.503 . S
C3716 C3715 1.410 . S
C3716 C3717 1.392 . S
C3716 C3719 1.511 . S
C3717 C3713 1.376 . S
C3717 C3716 1.392 . S
C3717 H3729 0.929 . S
C3718 C3714 1.531 . S
C3718 H3730 0.960 . S
C3718 H3731 0.962 . S
C3718 H3732 0.960 . S
C3719 C3716 1.511 . S
C3719 H3733 0.961 . S
C3719 H3734 0.961 . S
C3719 H3735 0.961 . S
C3720 C3721 1.370 . S
C3720 C3722 1.363 . S
C3720 H3736 0.931 . S
C3721 C3720 1.370 . S
C3721 C3725 1.408 . S
C3722 C3720 1.363 . S
C3722 C3723 1.370 . S
C3722 C3726 1.524 . S
C3723 C3715 1.503 . S
C3723 C3722 1.370 . S
C3723 C3724 1.403 . S
C3724 C3723 1.403 . S
C3724 C3725 1.404 . S
C3724 C3727 1.539 . S
C3725 C3721 1.408 . S
C3725 C3724 1.404 . S
C3725 H3737 0.930 . S
C3726 C3722 1.524 . S
C3726 H3738 0.956 . S
C3726 H3739 0.961 . S
C3726 H3740 0.961 . S
C3727 C3724 1.539 . S
C3727 H3741 0.958 . S
C3727 H3742 0.961 . S
C3727 H3743 0.960 . S
H3728 C3712 0.931 . S
H3729 C3717 0.929 . S
H3730 C3718 0.960 . S
H3731 C3718 0.962 . S
H3732 C3718 0.960 . S
H3733 C3719 0.961 . S
H3734 C3719 0.961 . S
H3735 C3719 0.961 . S
H3736 C3720 0.931 . S
H3737 C3725 0.930 . S
H3738 C3726 0.956 . S
H3739 C3726 0.961 . S
H3740 C3726 0.961 . S
H3741 C3727 0.958 . S
H3742 C3727 0.961 . S
H3743 C3727 0.960 . S
C673 C134 1.593 . S
C681 C8 1.575 . S
C705 C148 1.567 . S
C713 C22 1.585 . S
C737 C162 1.562 . S
C745 C36 1.588 . S
C769 C50 1.593 . S
C777 C120 1.575 . S
C801 C218 1.584 . S
C809 C64 1.578 . S
C833 C78 1.553 . S
C841 C176 1.601 . S
C865 C190 1.600 . S
C873 C92 1.585 . S
C897 C204 1.545 . S
C905 C106 1.600 . S
C929 C232 1.556 . S
C937 C260 1.591 . S
C961 C246 1.554 . S
C969 C316 1.592 . S
C993 C274 1.577 . S
C1001 C330 1.581 . S
C1025 C288 1.614 . S
C1033 C302 1.570 . S
C1057 C344 1.593 . S
C1065 C470 1.575 . S
C1089 C484 1.548 . S
C1097 C358 1.601 . S
C1121 C372 1.617 . S
C1129 C498 1.575 . S
C1153 C386 1.584 . S
C1161 C456 1.578 . S
C1185 C554 1.560 . S
C1193 C400 1.589 . S
C1217 C512 1.611 . S
C1225 C414 1.571 . S
C1249 C526 1.614 . S
C1257 C428 1.570 . S
C1281 C540 1.607 . S
C1289 C442 1.571 . S
C1313 C568 1.591 . S
C1321 C596 1.589 . S
C1345 C582 1.586 . S
C1353 C652 1.578 . S
C1377 C610 1.578 . S
C1385 C666 1.594 . S
C1409 C638 1.589 . S
C1417 C624 1.577 . S
C1441 C121 1.088 . S
C1449 C3 1.241 . S
C1473 C135 1.177 . S
C1481 C17 1.243 . S
C1505 C31 1.244 . S
C1513 C149 1.126 . S
C1537 C45 1.242 . S
C1545 C163 1.142 . S
C1569 C59 1.240 . S
C1577 C177 1.141 . S
C1601 C73 1.243 . S
C1609 C191 1.142 . S
C1633 C87 1.241 . S
C1641 C205 1.096 . S
C1665 C219 1.066 . S
C1673 C101 1.243 . S
C1697 C115 1.236 . S
C1705 C233 1.097 . S
C1729 C331 1.101 . S
C1737 C129 1.241 . S
C1761 C143 1.243 . S
C1769 C303 1.139 . S
C1793 C157 1.243 . S
C1801 C317 1.140 . S
C1825 C171 1.243 . S
C1833 C247 1.112 . S
C1857 C185 1.240 . S
C1865 C261 1.092 . S
C1889 C199 1.243 . S
C1897 C275 1.137 . S
C1921 C289 1.062 . S
C1929 C213 1.241 . S
C1953 C9 1.054 . S
C1961 C227 1.241 . S
C1985 C241 1.240 . S
C1993 C65 1.093 . S
C2017 C255 1.236 . S
C2025 C79 1.098 . S
C2049 C269 1.239 . S
C2057 C93 1.090 . S
C2081 C107 1.177 . S
C2089 C283 1.243 . S
C2113 C297 1.244 . S
C2121 C37 1.134 . S
C2145 C311 1.240 . S
C2153 C51 1.141 . S
C2177 C23 1.177 . S
C2185 C325 1.243 . S
C2209 C457 1.117 . S
C2217 C339 1.241 . S
C2241 C353 1.240 . S
C2249 C471 1.141 . S
C2273 C367 1.244 . S
C2281 C485 1.135 . S
C2305 C499 1.103 . S
C2313 C381 1.244 . S
C2337 C513 1.120 . S
C2345 C395 1.244 . S
C2369 C409 1.244 . S
C2377 C527 1.124 . S
C2401 C541 1.090 . S
C2409 C423 1.241 . S
C2433 C555 1.160 . S
C2441 C437 1.242 . S
C2465 C451 1.244 . S
C2473 C569 1.125 . S
C2497 C465 1.244 . S
C2505 C667 1.125 . S
C2529 C479 1.243 . S
C2537 C639 1.141 . S
C2561 C653 1.100 . S
C2569 C493 1.241 . S
C2593 C507 1.236 . S
C2601 C583 1.116 . S
C2625 C521 1.239 . S
C2633 C597 1.092 . S
C2657 C611 1.154 . S
C2665 C535 1.242 . S
C2689 C625 1.092 . S
C2697 C549 1.244 . S
C2721 C563 1.243 . S
C2729 C345 1.108 . S
C2753 C577 1.240 . S
C2761 C401 1.141 . S
C2785 C415 1.059 . S
C2793 C591 1.243 . S
C2817 C605 1.243 . S
C2825 C429 1.138 . S
C2849 C619 1.237 . S
C2857 C443 1.130 . S
C2881 C373 1.057 . S
C2889 C633 1.243 . S
C2913 C647 1.242 . S
C2921 C387 1.142 . S
C2945 C359 1.069 . S
C2953 C661 1.243 . S
C2977 C441 1.296 . S
C2985 C7 1.329 . S
C3009 C21 1.296 . S
C3017 C399 1.329 . S
C3041 C413 1.322 . S
C3049 C35 1.340 . S
C3073 C427 1.363 . S
C3081 C49 1.357 . S
C3105 C63 1.330 . S
C3113 C357 1.342 . S
C3137 C371 1.345 . S
C3145 C77 1.348 . S
C3169 C385 1.362 . S
C3177 C91 1.357 . S
C3201 C105 1.393 . S
C3209 C343 1.369 . S
C3233 C623 1.296 . S
C3241 C119 1.329 . S
C3265 C133 1.331 . S
C3273 C581 1.342 . S
C3297 C147 1.300 . S
C3305 C595 1.331 . S
C3329 C609 1.329 . S
C3337 C161 1.342 . S
C3361 C665 1.367 . S
C3369 C175 1.357 . S
C3393 C637 1.388 . S
C3401 C189 1.368 . S
C3425 C203 1.313 . S
C3433 C651 1.336 . S
C3457 C567 1.357 . S
C3465 C217 1.355 . S
C3489 C231 1.342 . S
C3497 C553 1.347 . S
C3521 C469 1.322 . S
C3529 C245 1.340 . S
C3553 C259 1.299 . S
C3561 C483 1.330 . S
C3585 C497 1.298 . S
C3593 C273 1.329 . S
C3617 C455 1.365 . S
C3625 C287 1.358 . S
C3649 C301 1.337 . S
C3657 C525 1.347 . S
C3681 C539 1.395 . S
C3689 C315 1.370 . S
C3713 C511 1.336 . S
C3721 C329 1.344 . S
