# Generated by pormake.
# Topology wmc, (6)-cn, num edge types: 1
# Building blocks:
#     Node 0, Type 0, BuildingBlock: UKALOJ_clean_sbu_0, # of connection points: 6
#     Node 1, Type 0, BuildingBlock: UKALOJ_clean_sbu_0, # of connection points: 6
#     Node 2, Type 0, BuildingBlock: UKALOJ_clean_sbu_0, # of connection points: 6
#     Node 3, Type 0, BuildingBlock: UKALOJ_clean_sbu_0, # of connection points: 6
#     Node 4, Type 0, BuildingBlock: UKALOJ_clean_sbu_0, # of connection points: 6
#     Node 5, Type 0, BuildingBlock: UKALOJ_clean_sbu_0, # of connection points: 6
#     Node 6, Type 0, BuildingBlock: UKALOJ_clean_sbu_0, # of connection points: 6
#     Node 7, Type 0, BuildingBlock: UKALOJ_clean_sbu_0, # of connection points: 6
#     Node 8, Type 0, BuildingBlock: UKALOJ_clean_sbu_0, # of connection points: 6
#     Node 9, Type 0, BuildingBlock: UKALOJ_clean_sbu_0, # of connection points: 6
#     Node 10, Type 0, BuildingBlock: UKALOJ_clean_sbu_0, # of connection points: 6
#     Node 11, Type 0, BuildingBlock: UKALOJ_clean_sbu_0, # of connection points: 6
#     Node 12, Type 0, BuildingBlock: UKALOJ_clean_sbu_0, # of connection points: 6
#     Node 13, Type 0, BuildingBlock: UKALOJ_clean_sbu_0, # of connection points: 6
#     Node 14, Type 0, BuildingBlock: UKALOJ_clean_sbu_0, # of connection points: 6
#     Node 15, Type 0, BuildingBlock: UKALOJ_clean_sbu_0, # of connection points: 6
#     Node 16, Type 0, BuildingBlock: UKALOJ_clean_sbu_0, # of connection points: 6
#     Node 17, Type 0, BuildingBlock: UKALOJ_clean_sbu_0, # of connection points: 6
#     Edge 18, Type (0, 0), BuildingBlock: KIFKEQ_clean_linker_1, # of connection points: 2
#     Edge 19, Type (0, 0), BuildingBlock: KIFKEQ_clean_linker_1, # of connection points: 2
#     Edge 20, Type (0, 0), BuildingBlock: KIFKEQ_clean_linker_1, # of connection points: 2
#     Edge 21, Type (0, 0), BuildingBlock: KIFKEQ_clean_linker_1, # of connection points: 2
#     Edge 22, Type (0, 0), BuildingBlock: KIFKEQ_clean_linker_1, # of connection points: 2
#     Edge 23, Type (0, 0), BuildingBlock: KIFKEQ_clean_linker_1, # of connection points: 2
#     Edge 24, Type (0, 0), BuildingBlock: KIFKEQ_clean_linker_1, # of connection points: 2
#     Edge 25, Type (0, 0), BuildingBlock: KIFKEQ_clean_linker_1, # of connection points: 2
#     Edge 26, Type (0, 0), BuildingBlock: KIFKEQ_clean_linker_1, # of connection points: 2
#     Edge 27, Type (0, 0), BuildingBlock: KIFKEQ_clean_linker_1, # of connection points: 2
#     Edge 28, Type (0, 0), BuildingBlock: KIFKEQ_clean_linker_1, # of connection points: 2
#     Edge 29, Type (0, 0), BuildingBlock: KIFKEQ_clean_linker_1, # of connection points: 2
#     Edge 30, Type (0, 0), BuildingBlock: KIFKEQ_clean_linker_1, # of connection points: 2
#     Edge 31, Type (0, 0), BuildingBlock: KIFKEQ_clean_linker_1, # of connection points: 2
#     Edge 32, Type (0, 0), BuildingBlock: KIFKEQ_clean_linker_1, # of connection points: 2
#     Edge 33, Type (0, 0), BuildingBlock: KIFKEQ_clean_linker_1, # of connection points: 2
#     Edge 34, Type (0, 0), BuildingBlock: KIFKEQ_clean_linker_1, # of connection points: 2
#     Edge 35, Type (0, 0), BuildingBlock: KIFKEQ_clean_linker_1, # of connection points: 2
#     Edge 36, Type (0, 0), BuildingBlock: KIFKEQ_clean_linker_1, # of connection points: 2
#     Edge 37, Type (0, 0), BuildingBlock: KIFKEQ_clean_linker_1, # of connection points: 2
#     Edge 38, Type (0, 0), BuildingBlock: KIFKEQ_clean_linker_1, # of connection points: 2
#     Edge 39, Type (0, 0), BuildingBlock: KIFKEQ_clean_linker_1, # of connection points: 2
#     Edge 40, Type (0, 0), BuildingBlock: KIFKEQ_clean_linker_1, # of connection points: 2
#     Edge 41, Type (0, 0), BuildingBlock: KIFKEQ_clean_linker_1, # of connection points: 2
#     Edge 42, Type (0, 0), BuildingBlock: KIFKEQ_clean_linker_1, # of connection points: 2
#     Edge 43, Type (0, 0), BuildingBlock: KIFKEQ_clean_linker_1, # of connection points: 2
#     Edge 44, Type (0, 0), BuildingBlock: KIFKEQ_clean_linker_1, # of connection points: 2
#     Edge 45, Type (0, 0), BuildingBlock: KIFKEQ_clean_linker_1, # of connection points: 2
#     Edge 46, Type (0, 0), BuildingBlock: KIFKEQ_clean_linker_1, # of connection points: 2
#     Edge 47, Type (0, 0), BuildingBlock: KIFKEQ_clean_linker_1, # of connection points: 2
#     Edge 48, Type (0, 0), BuildingBlock: KIFKEQ_clean_linker_1, # of connection points: 2
#     Edge 49, Type (0, 0), BuildingBlock: KIFKEQ_clean_linker_1, # of connection points: 2
#     Edge 50, Type (0, 0), BuildingBlock: KIFKEQ_clean_linker_1, # of connection points: 2
#     Edge 51, Type (0, 0), BuildingBlock: KIFKEQ_clean_linker_1, # of connection points: 2
#     Edge 52, Type (0, 0), BuildingBlock: KIFKEQ_clean_linker_1, # of connection points: 2
#     Edge 53, Type (0, 0), BuildingBlock: KIFKEQ_clean_linker_1, # of connection points: 2
#     Edge 54, Type (0, 0), BuildingBlock: KIFKEQ_clean_linker_1, # of connection points: 2
#     Edge 55, Type (0, 0), BuildingBlock: KIFKEQ_clean_linker_1, # of connection points: 2
#     Edge 56, Type (0, 0), BuildingBlock: KIFKEQ_clean_linker_1, # of connection points: 2
#     Edge 57, Type (0, 0), BuildingBlock: KIFKEQ_clean_linker_1, # of connection points: 2
#     Edge 58, Type (0, 0), BuildingBlock: KIFKEQ_clean_linker_1, # of connection points: 2
#     Edge 59, Type (0, 0), BuildingBlock: KIFKEQ_clean_linker_1, # of connection points: 2
#     Edge 60, Type (0, 0), BuildingBlock: KIFKEQ_clean_linker_1, # of connection points: 2
#     Edge 61, Type (0, 0), BuildingBlock: KIFKEQ_clean_linker_1, # of connection points: 2
#     Edge 62, Type (0, 0), BuildingBlock: KIFKEQ_clean_linker_1, # of connection points: 2
#     Edge 63, Type (0, 0), BuildingBlock: KIFKEQ_clean_linker_1, # of connection points: 2
#     Edge 64, Type (0, 0), BuildingBlock: KIFKEQ_clean_linker_1, # of connection points: 2
#     Edge 65, Type (0, 0), BuildingBlock: KIFKEQ_clean_linker_1, # of connection points: 2
#     Edge 66, Type (0, 0), BuildingBlock: KIFKEQ_clean_linker_1, # of connection points: 2
#     Edge 67, Type (0, 0), BuildingBlock: KIFKEQ_clean_linker_1, # of connection points: 2
#     Edge 68, Type (0, 0), BuildingBlock: KIFKEQ_clean_linker_1, # of connection points: 2
#     Edge 69, Type (0, 0), BuildingBlock: KIFKEQ_clean_linker_1, # of connection points: 2
#     Edge 70, Type (0, 0), BuildingBlock: KIFKEQ_clean_linker_1, # of connection points: 2
#     Edge 71, Type (0, 0), BuildingBlock: KIFKEQ_clean_linker_1, # of connection points: 2
# Relax obj value: 0.393
# Max RMSD: 0.230
# Mean RMSD: 0.230
data_MOF--net-wmc--node1-UKALOJ_clean_sbu_0--edge1-KIFKEQ_clean_linker_1
_symmetry_space_group_name_H-M    P1
_symmetry_Int_Tables_number       1
_symmetry_cell_setting            triclinic
loop_
_symmetry_equiv_pos_as_xyz
'x, y, z'
_cell_length_a     52.297761
_cell_length_b     52.347794
_cell_length_c     29.418641
_cell_angle_alpha  89.848743
_cell_angle_beta   90.098537
_cell_angle_gamma 119.97281
loop_
_atom_site_label
_atom_site_type_symbol
_atom_site_fract_x
_atom_site_fract_y
_atom_site_fract_z
_atom_type_partial_charge
Zn0 Zn 0.59405 0.10744 -0.0035 0.0
O1 O 0.56483 0.12587 0.98818 0.0
C2 C 0.61755 0.13022 0.90417 0.0
Zn3 Zn 0.63096 0.15439 -0.00351 0.0
C4 C 0.57535 0.15359 0.98483 0.0
O5 O 0.6029 0.1707 0.98737 0.0
C6 C 0.65233 0.11131 0.0097 0.0
O7 O 0.62545 0.15502 0.06785 0.0
O8 O 0.58956 0.10871 0.06629 0.0
N9 N 0.6655 0.19673 -0.00266 0.0
C10 C 0.69301 0.20947 0.01486 0.0
C11 C 0.6887 0.24313 0.9808 0.0
N12 N 0.66292 0.21775 0.97629 0.0
N13 N 0.70787 0.23843 0.00479 0.0
C14 C 0.53381 0.05388 0.96445 0.0
C15 C 0.52118 0.0248 0.02126 0.0
N16 N 0.55672 0.06555 0.99413 0.0
N17 N 0.54873 0.04729 0.02929 0.0
N18 N 0.51129 0.02833 0.98071 0.0
H19 H 0.50947 0.06237 0.91285 0.0
H20 H 0.54102 0.0606 0.89294 0.0
H21 H 0.54612 0.0926 0.92283 0.0
C22 C 0.53251 0.06836 0.92106 0.0
C23 C 0.70498 0.19403 0.04326 0.0
H24 H 0.68735 0.17705 0.06502 0.0
H25 H 0.72342 0.20993 0.06503 0.0
H26 H 0.71356 0.18316 0.02054 0.0
O27 O 0.65927 0.13803 0.00464 0.0
O28 O 0.62512 0.09118 0.00796 0.0
C29 C 0.6057 0.13221 0.08828 0.0
O30 O 0.59935 0.10715 0.92566 0.0
O31 O 0.63469 0.15352 0.92593 0.0
Zn32 Zn 0.92212 0.49231 0.00169 0.0
O33 O 0.90559 0.44524 -0.00044 0.0
C34 C 0.89576 0.48699 0.90981 0.0
Zn35 Zn 0.87438 0.47958 0.00366 0.0
C36 C 0.87817 0.4265 -6e-05 0.0
O37 O 0.85953 0.43513 0.00122 0.0
C38 C 0.91552 0.54517 0.00827 0.0
O39 O 0.87618 0.47711 0.07502 0.0
O40 O 0.92319 0.48965 0.07245 0.0
N41 N 0.83174 0.47063 0.00488 0.0
C42 C 0.8185 0.48469 0.02311 0.0
C43 C 0.78723 0.45116 0.9794 0.0
N44 N 0.81216 0.44967 0.97807 0.0
N45 N 0.79066 0.47291 0.00746 0.0
C46 C 0.97429 0.48255 0.97406 0.0
C47 C 1.01165 0.51713 0.00743 0.0
N48 N 0.96483 0.499 -0.00387 0.0
N49 N 0.98819 0.52052 0.01678 0.0
N50 N 1.00339 0.49322 0.98109 0.0
H51 H 0.94667 0.43616 0.96336 0.0
H52 H 0.96913 0.45573 0.91539 0.0
H53 H 0.93707 0.45852 0.92869 0.0
C54 C 0.95564 0.45692 0.94349 0.0
C55 C 0.83336 0.5112 0.05323 0.0
H56 H 0.85185 0.51151 0.07217 0.0
H57 H 0.81732 0.51143 0.0776 0.0
H58 H 0.84208 0.53138 0.032 0.0
O59 O 0.88908 0.52425 0.00596 0.0
O60 O 0.93659 0.53941 0.00731 0.0
C61 C 0.89969 0.48168 0.09506 0.0
O62 O 0.91991 0.49433 0.9301 0.0
O63 O 0.87282 0.48037 0.93287 0.0
Zn64 Zn 0.53572 0.43654 0.03267 0.0
O65 O 0.58318 0.46345 0.02483 0.0
C66 C 0.53199 0.41245 0.93843 0.0
Zn67 Zn 0.54385 0.39825 0.02827 0.0
C68 C 0.59943 0.45225 0.01711 0.0
O69 O 0.58814 0.42456 0.01572 0.0
C70 C 0.48026 0.37957 0.04533 0.0
O71 O 0.55237 0.40532 0.09953 0.0
O72 O 0.54181 0.44114 0.10218 0.0
N73 N 0.54961 0.36231 0.03156 0.0
C74 C 0.53332 0.33428 0.0166 0.0
C75 C 0.57068 0.33754 0.05124 0.0
N76 N 0.57279 0.36423 0.053 0.0
N77 N 0.5461 0.31833 0.02866 0.0
C78 C 0.54787 0.49899 0.00039 0.0
C79 C 0.51845 0.50674 0.04015 0.0
N80 N 0.53244 0.47489 0.02722 0.0
N81 N 0.51416 0.47986 0.05177 0.0
N82 N 0.53944 0.51926 0.00782 0.0
H83 H 0.59358 0.51284 0.99285 0.0
H84 H 0.57854 0.52052 0.94409 0.0
H85 H 0.56974 0.48335 0.95529 0.0
C86 C 0.57358 0.50409 0.97119 0.0
C87 C 0.50345 0.32198 0.99509 0.0
H88 H 0.48673 0.31542 0.02244 0.0
H89 H 0.49754 0.30213 0.97451 0.0
H90 H 0.50236 0.3388 0.97359 0.0
O91 O 0.49934 0.37164 0.04047 0.0
O92 O 0.48816 0.40697 0.04334 0.0
C93 C 0.55002 0.42483 0.12197 0.0
O94 O 0.5299 0.43136 0.96258 0.0
O95 O 0.53691 0.39349 0.95742 0.0
Zn96 Zn 0.91977 0.43247 0.50266 0.0
O97 O 0.89887 0.45914 0.49351 0.0
C98 C 0.90154 0.40962 0.40907 0.0
Zn99 Zn 0.87422 0.39299 0.49982 0.0
C100 C 0.87109 0.44681 0.48766 0.0
O101 O 0.85569 0.419 0.48821 0.0
C102 C 0.91971 0.37587 0.51776 0.0
O103 O 0.87034 0.39735 0.57109 0.0
O104 O 0.91584 0.43522 0.57216 0.0
N105 N 0.83311 0.35682 0.49507 0.0
C106 C 0.81983 0.32952 0.51344 0.0
C107 C 0.79099 0.33003 0.46251 0.0
N108 N 0.81504 0.35705 0.46369 0.0
N109 N 0.79348 0.31235 0.49329 0.0
C110 C 0.97042 0.4965 0.47925 0.0
C111 C 1.00696 0.50111 0.51777 0.0
N112 N 0.96107 0.47085 0.50222 0.0
N113 N 0.98391 0.47387 0.52612 0.0
N114 N 0.99898 0.5159 0.48881 0.0
H115 H 0.94091 0.51229 0.46276 0.0
H116 H 0.96661 0.5175 0.41836 0.0
H117 H 0.93559 0.48139 0.42897 0.0
C118 C 0.95233 0.50206 0.44522 0.0
C119 C 0.83358 0.31918 0.54822 0.0
H120 H 0.84887 0.33772 0.57031 0.0
H121 H 0.81641 0.30122 0.5693 0.0
H122 H 0.84631 0.31039 0.53058 0.0
O123 O 0.89252 0.36649 0.51124 0.0
O124 O 0.93815 0.40355 0.51554 0.0
C125 C 0.89208 0.41771 0.59278 0.0
O126 O 0.923 0.42908 0.43194 0.0
O127 O 0.87846 0.39056 0.42945 0.0
Zn128 Zn 0.59034 0.4908 0.52532 0.0
O129 O 0.56326 0.44294 0.52138 0.0
C130 C 0.61735 0.48722 0.43927 0.0
Zn131 Zn 0.62837 0.48319 0.53679 0.0
C132 C 0.57438 0.42677 0.53072 0.0
O133 O 0.60174 0.43856 0.53854 0.0
C134 C 0.64706 0.54708 0.53521 0.0
O135 O 0.62163 0.48367 0.60772 0.0
O136 O 0.58217 0.48741 0.59466 0.0
N137 N 0.66437 0.47811 0.54768 0.0
C138 C 0.69183 0.49222 0.52982 0.0
C139 C 0.68939 0.45882 0.57418 0.0
N140 N 0.66297 0.45743 0.5753 0.0
N141 N 0.70791 0.48047 0.54591 0.0
C142 C 0.52834 0.47714 0.48829 0.0
C143 C 0.5228 0.51133 0.51701 0.0
N144 N 0.55299 0.49448 0.51284 0.0
N145 N 0.5494 0.51572 0.53057 0.0
N146 N 0.50897 0.48707 0.49076 0.0
H147 H 0.51262 0.43109 0.48017 0.0
H148 H 0.50981 0.44898 0.42977 0.0
H149 H 0.54525 0.45455 0.44756 0.0
C150 C 0.52391 0.45159 0.45963 0.0
C151 C 0.7037 0.51951 0.501 0.0
H152 H 0.70868 0.53844 0.5234 0.0
H153 H 0.72448 0.52477 0.48355 0.0
H154 H 0.68715 0.51745 0.47559 0.0
O155 O 0.65517 0.52803 0.53624 0.0
O156 O 0.6196 0.53877 0.53198 0.0
C157 C 0.5989 0.48403 0.6224 0.0
O158 O 0.59896 0.49372 0.45588 0.0
O159 O 0.63281 0.48101 0.4655 0.0
Zn160 Zn 0.54341 0.15043 0.49739 0.0
O161 O 0.54788 0.15122 0.56882 0.0
C162 C 0.47829 0.10738 0.50679 0.0
Zn163 Zn 0.53249 0.10322 0.49865 0.0
C164 C 0.54437 0.12852 0.59025 0.0
O165 O 0.53681 0.10463 0.5691 0.0
C166 C 0.53455 0.12615 0.40526 0.0
O167 O 0.58003 0.12187 0.49397 0.0
O168 O 0.58817 0.16724 0.49176 0.0
N169 N 0.52762 0.06111 0.49608 0.0
C170 C 0.54438 0.05186 0.47433 0.0
C171 C 0.51084 0.01477 0.50979 0.0
N172 N 0.50676 0.03791 0.51803 0.0
N173 N 0.53454 0.02307 0.48283 0.0
C174 C 0.53752 0.20596 0.51717 0.0
C175 C 0.56421 0.23435 0.4638 0.0
N176 N 0.5499 0.19218 0.49532 0.0
N177 N 0.5666 0.20998 0.46246 0.0
N178 N 0.54595 0.23244 0.49758 0.0
H179 H 0.52798 0.20382 0.58813 0.0
H180 H 0.49746 0.19669 0.55159 0.0
H181 H 0.50834 0.16918 0.56057 0.0
C182 C 0.5164 0.19295 0.55621 0.0
C183 C 0.56939 0.07033 0.44258 0.0
H184 H 0.59042 0.08063 0.46193 0.0
H185 H 0.57098 0.05646 0.41551 0.0
H186 H 0.56665 0.08789 0.42642 0.0
O187 O 0.52872 0.10285 0.42695 0.0
O188 O 0.54054 0.14936 0.42694 0.0
C189 C 0.59789 0.14947 0.4914 0.0
O190 O 0.49856 0.1339 0.50199 0.0
O191 O 0.48492 0.08692 0.5068 0.0
Zn192 Zn 0.25762 0.43596 0.34511 0.0
O193 O 0.23012 0.45594 0.33406 0.0
C194 C 0.28582 0.45988 0.25453 0.0
Zn195 Zn 0.29526 0.48249 0.34744 0.0
C196 C 0.24151 0.48368 0.32895 0.0
O197 O 0.26912 0.50023 0.33251 0.0
C198 C 0.31458 0.43812 0.36478 0.0
O199 O 0.28511 0.482 0.41752 0.0
O200 O 0.24977 0.43554 0.41467 0.0
N201 N 0.33051 0.524 0.35438 0.0
C202 C 0.35893 0.53623 0.3411 0.0
C203 C 0.35451 0.56916 0.37699 0.0
N204 N 0.32783 0.5445 0.37663 0.0
N205 N 0.37438 0.5645 0.35503 0.0
C206 C 0.19544 0.38555 0.31316 0.0
C207 C 0.1897 0.34794 0.34982 0.0
N208 N 0.22032 0.39425 0.3379 0.0
N209 N 0.21662 0.37073 0.36057 0.0
N210 N 0.17581 0.35676 0.32045 0.0
H211 H 0.2121 0.42184 0.26543 0.0
H212 H 0.17992 0.41536 0.29721 0.0
H213 H 0.17632 0.39111 0.25152 0.0
C214 C 0.19086 0.4046 0.27977 0.0
C215 C 0.37213 0.51958 0.31936 0.0
H216 H 0.37931 0.50983 0.34659 0.0
H217 H 0.39181 0.53417 0.29875 0.0
H218 H 0.3558 0.50148 0.29778 0.0
O219 O 0.32213 0.46511 0.36205 0.0
O220 O 0.28752 0.41843 0.35872 0.0
C221 C 0.26457 0.45924 0.43698 0.0
O222 O 0.2658 0.43718 0.27468 0.0
O223 O 0.30302 0.48263 0.27745 0.0
Zn224 Zn 0.5872 0.82271 0.34607 0.0
O225 O 0.56668 0.77558 0.3335 0.0
C226 C 0.5634 0.82924 0.25701 0.0
Zn227 Zn 0.5409 0.81431 0.35045 0.0
C228 C 0.53887 0.75941 0.32919 0.0
O229 O 0.52243 0.7705 0.3343 0.0
C230 C 0.58615 0.87744 0.36874 0.0
O231 O 0.54194 0.80371 0.42088 0.0
O232 O 0.58782 0.81348 0.41418 0.0
N233 N 0.49967 0.80876 0.35869 0.0
C234 C 0.48806 0.82579 0.34686 0.0
C235 C 0.45435 0.78783 0.38078 0.0
N236 N 0.47869 0.78522 0.37974 0.0
N237 N 0.45968 0.81311 0.36047 0.0
C238 C 0.63766 0.81386 0.30538 0.0
C239 C 0.67119 0.83293 0.35587 0.0
N240 N 0.62831 0.82613 0.33708 0.0
N241 N 0.64932 0.83805 0.36823 0.0
N242 N 0.66457 0.81772 0.3165 0.0
H243 H 0.62134 0.77664 0.26002 0.0
H244 H 0.62853 0.81085 0.23412 0.0
H245 H 0.59639 0.79054 0.26755 0.0
C246 C 0.61979 0.79683 0.26488 0.0
C247 C 0.50548 0.8562 0.32699 0.0
H248 H 0.51666 0.87205 0.35508 0.0
H249 H 0.49129 0.86311 0.30914 0.0
H250 H 0.52256 0.85763 0.30331 0.0
O251 O 0.55906 0.85828 0.36626 0.0
O252 O 0.60562 0.86992 0.36158 0.0
C253 C 0.56476 0.80462 0.43814 0.0
O254 O 0.58586 0.83135 0.27707 0.0
O255 O 0.54046 0.82313 0.27999 0.0
Zn256 Zn 0.20252 0.76806 0.34783 0.0
O257 O 0.24975 0.79633 0.33779 0.0
C258 C 0.19863 0.74226 0.25482 0.0
Zn259 Zn 0.21227 0.73095 0.34626 0.0
C260 C 0.2665 0.78567 0.33026 0.0
O261 O 0.25595 0.75806 0.33104 0.0
C262 C 0.14837 0.71034 0.36527 0.0
O263 O 0.22245 0.7403 0.41716 0.0
O264 O 0.20964 0.77448 0.4173 0.0
N265 N 0.21953 0.69607 0.35113 0.0
C266 C 0.20358 0.66769 0.33767 0.0
C267 C 0.2415 0.67251 0.37263 0.0
N268 N 0.24308 0.69899 0.37272 0.0
N269 N 0.21692 0.6525 0.35091 0.0
C270 C 0.21328 0.83018 0.31782 0.0
C271 C 0.18114 0.83511 0.355 0.0
N272 N 0.19746 0.80509 0.34227 0.0
N273 N 0.17747 0.80828 0.36527 0.0
N274 N 0.20372 0.84944 0.32564 0.0
H275 H 0.23349 0.81447 0.26958 0.0
H276 H 0.25872 0.84665 0.30155 0.0
H277 H 0.23754 0.84987 0.25613 0.0
C278 C 0.23697 0.8354 0.28421 0.0
C279 C 0.17351 0.65427 0.31652 0.0
H280 H 0.15677 0.64579 0.34404 0.0
H281 H 0.16897 0.63545 0.2943 0.0
H282 H 0.17097 0.67081 0.29661 0.0
O283 O 0.16812 0.70326 0.36119 0.0
O284 O 0.15527 0.73738 0.36072 0.0
C285 C 0.21944 0.7599 0.4382 0.0
O286 O 0.19596 0.76145 0.27741 0.0
O287 O 0.20408 0.72419 0.27562 0.0
Zn288 Zn 0.54019 0.73458 0.84961 0.0
O289 O 0.54081 0.74633 0.91954 0.0
C290 C 0.58106 0.71206 0.87327 0.0
Zn291 Zn 0.5876 0.77053 0.84623 0.0
C292 C 0.56358 0.76822 0.93683 0.0
O293 O 0.58701 0.782 0.91343 0.0
C294 C 0.56418 0.74042 0.75735 0.0
O295 O 0.57081 0.79937 0.82623 0.0
O296 O 0.5253 0.76279 0.83179 0.0
N297 N 0.63074 0.80545 0.83717 0.0
C298 C 0.64162 0.835 0.83648 0.0
C299 C 0.67568 0.82761 0.81227 0.0
N300 N 0.65212 0.80104 0.82226 0.0
N301 N 0.6696 0.84935 0.82044 0.0
C302 C 0.4836 0.67272 0.84362 0.0
C303 C 0.45076 0.68163 0.86924 0.0
N304 N 0.49735 0.70144 0.85553 0.0
N305 N 0.47689 0.70686 0.8716 0.0
N306 N 0.45442 0.65984 0.85208 0.0
H307 H 0.50356 0.64586 0.84801 0.0
H308 H 0.48334 0.64119 0.79636 0.0
H309 H 0.51905 0.67359 0.80442 0.0
C310 C 0.49832 0.65766 0.82152 0.0
C311 C 0.62561 0.85004 0.85392 0.0
H312 H 0.60969 0.83665 0.88085 0.0
H313 H 0.6415 0.87207 0.86784 0.0
H314 H 0.61351 0.85329 0.82556 0.0
O315 O 0.5873 0.75932 0.77793 0.0
O316 O 0.54044 0.72543 0.77966 0.0
C317 C 0.5432 0.78959 0.82319 0.0
O318 O 0.55456 0.70568 0.86726 0.0
O319 O 0.60184 0.73877 0.8677 0.0
Zn320 Zn 0.25919 0.82449 0.84071 0.0
O321 O 0.23304 0.7776 0.82728 0.0
C322 C 0.28963 0.83034 0.75295 0.0
Zn323 Zn 0.29754 0.81682 0.84797 0.0
C324 C 0.24496 0.76158 0.82523 0.0
O325 O 0.27231 0.77282 0.83268 0.0
C326 C 0.31463 0.87964 0.86524 0.0
O327 O 0.28627 0.80693 0.91835 0.0
O328 O 0.24923 0.81512 0.90925 0.0
N329 N 0.33359 0.81175 0.85619 0.0
C330 C 0.36199 0.82878 0.8432 0.0
C331 C 0.35862 0.7913 0.87753 0.0
N332 N 0.33158 0.78851 0.87754 0.0
N333 N 0.37808 0.81638 0.85625 0.0
C334 C 0.19735 0.81239 0.80605 0.0
C335 C 0.1904 0.84322 0.84326 0.0
N336 N 0.22172 0.82835 0.83186 0.0
N337 N 0.21728 0.84752 0.85487 0.0
N338 N 0.17729 0.82106 0.81299 0.0
H339 H 0.18302 0.76758 0.78876 0.0
H340 H 0.17945 0.78865 0.74347 0.0
H341 H 0.21537 0.79426 0.7583 0.0
C342 C 0.19375 0.78953 0.77204 0.0
C343 C 0.37443 0.85892 0.82245 0.0
H344 H 0.37865 0.87503 0.84994 0.0
H345 H 0.39567 0.86605 0.80496 0.0
H346 H 0.35861 0.85969 0.79828 0.0
O347 O 0.32324 0.86099 0.86342 0.0
O348 O 0.28764 0.87155 0.85677 0.0
C349 C 0.26388 0.80735 0.93452 0.0
O350 O 0.26916 0.83302 0.77137 0.0
O351 O 0.30622 0.82467 0.77748 0.0
Zn352 Zn 0.21291 0.48469 0.84751 0.0
O353 O 0.2217 0.48377 0.91776 0.0
C354 C 0.14875 0.4412 0.86415 0.0
Zn355 Zn 0.20235 0.43762 0.84381 0.0
C356 C 0.21956 0.46081 0.93638 0.0
O357 O 0.21088 0.43746 0.91325 0.0
C358 C 0.19862 0.46213 0.75403 0.0
O359 O 0.24936 0.45643 0.83078 0.0
O360 O 0.25682 0.50155 0.83433 0.0
N361 N 0.19759 0.39579 0.83714 0.0
C362 C 0.21242 0.38643 0.8105 0.0
C363 C 0.18541 0.35111 0.85514 0.0
N364 N 0.18079 0.37369 0.86475 0.0
N365 N 0.20546 0.35852 0.82151 0.0
C366 C 0.20411 0.53904 0.83986 0.0
C367 C 0.24136 0.57173 0.87637 0.0
N368 N 0.21986 0.52649 0.85407 0.0
N369 N 0.24297 0.54685 0.8767 0.0
N370 N 0.21716 0.56737 0.85356 0.0
H371 H 0.15723 0.51341 0.84425 0.0
H372 H 0.16988 0.53741 0.79604 0.0
H373 H 0.17243 0.50431 0.79641 0.0
C374 C 0.17441 0.5227 0.81742 0.0
C375 C 0.23277 0.4042 0.77255 0.0
H376 H 0.22748 0.42073 0.75921 0.0
H377 H 0.2558 0.41612 0.78532 0.0
H378 H 0.23142 0.38963 0.74422 0.0
O379 O 0.19406 0.43866 0.77395 0.0
O380 O 0.20613 0.48527 0.77714 0.0
C381 C 0.26669 0.48416 0.82845 0.0
O382 O 0.16862 0.468 0.86074 0.0
O383 O 0.15545 0.42097 0.85896 0.0
Zn384 Zn 0.92472 0.77058 0.67989 0.0
O385 O 0.8973 0.79068 0.67231 0.0
C386 C 0.95012 0.79329 0.58647 0.0
Zn387 Zn 0.96209 0.8171 0.67777 0.0
C388 C 0.90809 0.81813 0.66535 0.0
O389 O 0.93574 0.83497 0.66492 0.0
C390 C 0.98164 0.77255 0.69407 0.0
O391 O 0.95333 0.81698 0.74889 0.0
O392 O 0.91855 0.77023 0.7495 0.0
N393 N 0.99753 0.85852 0.68354 0.0
C394 C 0.0257 0.87062 0.66905 0.0
C395 C 0.02215 0.90359 0.70637 0.0
N396 N 0.9954 0.87905 0.70665 0.0
N397 N 0.04153 0.89883 0.68312 0.0
C398 C 0.86334 0.7212 0.64493 0.0
C399 C 0.85439 0.68373 0.68511 0.0
N400 N 0.88701 0.72929 0.67241 0.0
N401 N 0.88137 0.70588 0.69717 0.0
N402 N 0.84261 0.69271 0.65224 0.0
H403 H 0.84811 0.75192 0.63593 0.0
H404 H 0.84442 0.73131 0.58604 0.0
H405 H 0.88007 0.76016 0.60227 0.0
C406 C 0.85891 0.74221 0.61542 0.0
C407 C 0.03836 0.85389 0.64599 0.0
H408 H 0.04681 0.84483 0.67242 0.0
H409 H 0.05712 0.86831 0.62364 0.0
H410 H 0.02139 0.83534 0.62581 0.0
O411 O 0.98908 0.79949 0.69044 0.0
O412 O 0.95442 0.75275 0.69054 0.0
C413 C 0.93372 0.7945 0.77026 0.0
O414 O 0.93115 0.77153 0.60948 0.0
O415 O 0.96841 0.81678 0.60686 0.0
Zn416 Zn 0.25417 0.15618 0.67826 0.0
O417 O 0.23349 0.10916 0.66473 0.0
C418 C 0.23069 0.16365 0.58941 0.0
Zn419 Zn 0.20773 0.14755 0.68227 0.0
C420 C 0.20579 0.09317 0.65874 0.0
O421 O 0.1893 0.10424 0.66334 0.0
C422 C 0.25322 0.21017 0.70461 0.0
O423 O 0.2077 0.13515 0.75146 0.0
O424 O 0.25433 0.14677 0.74735 0.0
N425 N 0.16647 0.14219 0.6898 0.0
C426 C 0.15516 0.1594 0.67749 0.0
C427 C 0.12058 0.12087 0.70897 0.0
N428 N 0.14496 0.11831 0.7094 0.0
N429 N 0.12642 0.14646 0.6892 0.0
C430 C 0.30458 0.14789 0.63592 0.0
C431 C 0.33769 0.16469 0.68723 0.0
N432 N 0.29516 0.15917 0.66913 0.0
N433 N 0.3159 0.16964 0.70085 0.0
N434 N 0.33126 0.15105 0.64649 0.0
H435 H 0.28969 0.1131 0.58609 0.0
H436 H 0.29484 0.14777 0.56525 0.0
H437 H 0.26321 0.12439 0.5984 0.0
C438 C 0.28692 0.13223 0.59443 0.0
C439 C 0.17298 0.19008 0.65874 0.0
H440 H 0.18418 0.20549 0.68734 0.0
H441 H 0.15898 0.19737 0.64119 0.0
H442 H 0.19017 0.19175 0.63513 0.0
O443 O 0.22608 0.19115 0.70168 0.0
O444 O 0.27265 0.20296 0.69505 0.0
C445 C 0.23064 0.13716 0.77008 0.0
O446 O 0.2532 0.16539 0.60878 0.0
O447 O 0.20808 0.15787 0.61291 0.0
Zn448 Zn 0.87143 0.10311 0.67382 0.0
O449 O 0.91707 0.1306 0.6534 0.0
C450 C 0.86391 0.07009 0.58788 0.0
Zn451 Zn 0.88166 0.06661 0.6821 0.0
C452 C 0.93439 0.12017 0.65227 0.0
O453 O 0.92491 0.09358 0.66316 0.0
C454 C 0.81893 0.04655 0.70558 0.0
O455 O 0.89322 0.08023 0.75092 0.0
O456 O 0.88368 0.11631 0.74107 0.0
N457 N 0.89065 0.03338 0.69173 0.0
C458 C 0.8755 1.0044 0.68157 0.0
C459 C 0.91728 0.01379 0.70804 0.0
N460 N 0.91651 0.0391 0.70844 0.0
N461 N 0.89174 0.99165 0.69163 0.0
C462 C 0.88328 0.16765 0.66043 0.0
C463 C 0.84215 0.16087 0.63546 0.0
N464 N 0.86411 0.13824 0.66201 0.0
N465 N 0.8385 0.1342 0.64668 0.0
N466 N 0.87015 0.18224 0.64351 0.0
H467 H 0.91692 0.16945 0.70507 0.0
H468 H 0.92126 0.2049 0.68998 0.0
H469 H 0.92942 0.18475 0.6489 0.0
C470 C 0.91449 0.18244 0.67732 0.0
C471 C 0.84558 0.9889 0.65975 0.0
H472 H 0.82868 0.97749 0.68653 0.0
H473 H 0.844 0.97204 0.63536 0.0
H474 H 0.84059 1.00451 0.64194 0.0
O475 O 0.83828 0.03893 0.70173 0.0
O476 O 0.82556 0.07303 0.69593 0.0
C477 C 0.89273 0.10271 0.76631 0.0
O478 O 0.86022 0.09009 0.60571 0.0
O479 O 0.87192 0.05541 0.61266 0.0
Zn480 Zn 0.20732 0.06443 0.18409 0.0
O481 O 0.20743 0.07453 0.25428 0.0
C482 C 0.25116 0.04429 0.20201 0.0
Zn483 Zn 0.25417 0.10135 0.18206 0.0
C484 C 0.23039 0.0947 0.27384 0.0
O485 O 0.25427 0.10899 0.25166 0.0
C486 C 0.23051 0.07374 0.09115 0.0
O487 O 0.23481 0.12931 0.17089 0.0
O488 O 0.19011 0.09094 0.16872 0.0
N489 N 0.29604 0.13829 0.17562 0.0
C490 C 0.30503 0.16332 0.15119 0.0
C491 C 0.34217 0.16884 0.18905 0.0
N492 N 0.31925 0.14183 0.19904 0.0
N493 N 0.3337 0.18289 0.15944 0.0
C494 C 0.15344 1.00107 0.17695 0.0
C495 C 0.12011 1.00547 0.21177 0.0
N496 N 0.16558 0.02942 0.19034 0.0
N497 N 0.14484 0.0321 0.21191 0.0
N498 N 0.12497 0.98566 0.19012 0.0
H499 H 0.17956 0.98047 0.18369 0.0
H500 H 0.15601 0.96832 0.13502 0.0
H501 H 0.18877 1.0042 0.1349 0.0
C502 C 0.17031 0.98786 0.15599 0.0
C503 C 0.28642 0.16819 0.11727 0.0
H504 H 0.27562 0.1792 0.13433 0.0
H505 H 0.30031 0.18278 0.08931 0.0
H506 H 0.26922 0.1471 0.10259 0.0
O507 O 0.25332 0.09346 0.11145 0.0
O508 O 0.20757 0.0568 0.11398 0.0
C509 C 0.20716 0.11846 0.16539 0.0
O510 O 0.22426 0.03719 0.1992 0.0
O511 O 0.27119 0.07117 0.19582 0.0
Zn512 Zn 0.92288 0.15637 0.1799 0.0
O513 O 0.89532 0.10922 0.16785 0.0
C514 C 0.95139 0.16275 0.08844 0.0
Zn515 Zn 0.96045 0.14732 0.18007 0.0
C516 C 0.90659 0.09296 0.16063 0.0
O517 O 0.93425 0.10392 0.16283 0.0
C518 C 0.97982 0.21059 0.20054 0.0
O519 O 0.94948 0.13579 0.25026 0.0
O520 O 0.91479 0.14792 0.24914 0.0
N521 N 0.99563 0.14066 0.1863 0.0
C522 C 0.02427 0.15724 0.17426 0.0
C523 C 0.01932 0.11877 0.2075 0.0
N524 N 0.99263 0.11678 0.20687 0.0
N525 N 0.03953 0.14396 0.18733 0.0
C526 C 0.86148 0.14567 0.14588 0.0
C527 C 0.85501 0.17673 0.18325 0.0
N528 N 0.88567 0.16096 0.17242 0.0
N529 N 0.88151 0.18027 0.19555 0.0
N530 N 0.84182 0.1549 0.15246 0.0
H531 H 0.84575 0.10074 0.12745 0.0
H532 H 0.84437 0.12309 0.08218 0.0
H533 H 0.87914 0.12669 0.09871 0.0
C534 C 0.85767 0.1229 0.11147 0.0
C535 C 0.03775 0.18776 0.15473 0.0
H536 H 0.04422 0.20371 0.18313 0.0
H537 H 0.05788 0.19366 0.13482 0.0
H538 H 0.02178 0.19011 0.13295 0.0
O539 O 0.98726 0.1911 0.19696 0.0
O540 O 0.95282 0.20351 0.19457 0.0
C541 C 0.92916 0.13804 0.2705 0.0
O542 O 0.93127 0.16441 0.11001 0.0
O543 O 0.969 0.15699 0.11001 0.0
Zn544 Zn 0.87688 0.8174 0.17955 0.0
O545 O 0.88432 0.81431 0.2503 0.0
C546 C 0.81295 0.77217 0.1923 0.0
Zn547 Zn 0.86794 0.77103 0.17258 0.0
C548 C 0.88326 0.79126 0.26676 0.0
O549 O 0.87578 0.76902 0.24143 0.0
C550 C 0.86484 0.79764 0.0845 0.0
O551 O 0.91522 0.7912 0.16164 0.0
O552 O 0.92118 0.83565 0.16768 0.0
N553 N 0.86422 0.72998 0.1623 0.0
C554 C 0.87593 0.72069 0.12962 0.0
C555 C 0.8573 0.68688 0.17982 0.0
N556 N 0.8526 0.70882 0.19331 0.0
N557 N 0.87191 0.69366 0.13987 0.0
C558 C 0.8666 0.871 0.17569 0.0
C559 C 0.90336 0.90343 0.21333 0.0
N560 N 0.8827 0.85865 0.18904 0.0
N561 N 0.90551 0.87884 0.21241 0.0
N562 N 0.87913 0.89906 0.1906 0.0
H563 H 0.82 0.843 0.17961 0.0
H564 H 0.83114 0.86928 0.13456 0.0
H565 H 0.83619 0.83775 0.12924 0.0
C566 C 0.837 0.85448 0.15301 0.0
C567 C 0.89283 0.73874 0.08911 0.0
H568 H 0.91184 0.73553 0.08172 0.0
H569 H 0.878 0.73151 0.05909 0.0
H570 H 0.90105 0.76246 0.09375 0.0
O571 O 0.86071 0.77397 0.10312 0.0
O572 O 0.87135 0.82007 0.10889 0.0
C573 C 0.93191 0.81906 0.16075 0.0
O574 O 0.83227 0.79925 0.19094 0.0
O575 O 0.8206 0.75273 0.18611 0.0
H576 H 0.52866 0.14486 0.03762 0.0
H577 H 0.58209 0.19442 0.92337 0.0
H578 H 0.51016 0.17955 0.04454 0.0
H579 H 0.56421 0.22899 0.93013 0.0
H580 H 0.54186 0.27797 0.08906 0.0
H581 H 0.5372 0.23019 0.07216 0.0
H582 H 0.52724 0.24318 0.92947 0.0
H583 H 0.53334 0.29158 0.9467 0.0
C584 C 0.53537 0.16239 0.01279 0.0
C585 C 0.55672 0.16711 0.97998 0.0
C586 C 0.52513 0.18246 0.01704 0.0
C587 C 0.536 0.20733 0.9883 0.0
C588 C 0.55509 0.21007 0.95264 0.0
C589 C 0.56543 0.19027 0.94873 0.0
C590 C 0.5379 0.27012 0.05432 0.0
C591 C 0.53752 0.28816 0.01929 0.0
C592 C 0.53494 0.24266 0.04457 0.0
C593 C 0.53182 0.23276 -0.00062 0.0
C594 C 0.52971 0.25016 0.96461 0.0
C595 C 0.5328 0.2777 0.97444 0.0
H596 H 0.72697 0.28604 0.05727 0.0
H597 H 0.75589 0.23952 0.97008 0.0
H598 H 0.77757 0.32742 0.06192 0.0
H599 H 0.80682 0.28138 0.9734 0.0
H600 H 0.86827 0.3956 0.07719 0.0
H601 H 0.83155 0.34333 0.08577 0.0
H602 H 0.82384 0.3345 0.93978 0.0
H603 H 0.8603 0.38688 0.93149 0.0
C604 C 0.7445 0.28455 0.04016 0.0
C605 C 0.73798 0.25993 0.01357 0.0
C606 C 0.77339 0.308 0.04292 0.0
C607 C 0.7961 0.30745 0.0182 0.0
C608 C 0.78972 0.28218 0.993 0.0
C609 C 0.76081 0.25838 0.99113 0.0
C610 C 0.85989 0.38201 0.04705 0.0
C611 C 0.86713 0.39487 0.00371 0.0
C612 C 0.83877 0.35224 0.05193 0.0
C613 C 0.82474 0.33504 0.01345 0.0
C614 C 0.83455 0.34721 0.96996 0.0
C615 C 0.85545 0.3771 0.96513 0.0
H616 H 0.63032 0.45151 0.94512 0.0
H617 H 0.6399 0.49151 0.07657 0.0
H618 H 0.68279 0.46842 0.94343 0.0
H619 H 0.69306 0.5087 0.07533 0.0
H620 H 0.75939 0.47026 0.08148 0.0
H621 H 0.71687 0.478 0.08275 0.0
H622 H 0.73408 0.50724 0.94286 0.0
H623 H 0.77593 0.49853 0.94187 0.0
C624 C 0.64407 0.46507 0.97281 0.0
C625 C 0.63137 0.47041 0.01082 0.0
C626 C 0.67418 0.47484 0.97192 0.0
C627 C 0.69212 0.48975 0.00945 0.0
C628 C 0.67973 0.49711 0.04607 0.0
C629 C 0.64948 0.48761 0.04662 0.0
C630 C 0.75444 0.47922 0.05171 0.0
C631 C 0.77043 0.48365 0.01151 0.0
C632 C 0.7303 0.48384 0.05235 0.0
C633 C 0.72192 0.49295 0.01268 0.0
C634 C 0.73973 0.49984 0.97373 0.0
C635 C 0.76362 0.49496 0.97308 0.0
H636 H 0.7285 0.48405 0.46073 0.0
H637 H 0.75151 0.48751 0.60212 0.0
H638 H 0.77507 0.48742 0.43891 0.0
H639 H 0.79751 0.48918 0.58079 0.0
H640 H 0.8815 0.49612 0.53497 0.0
H641 H 0.84621 0.5137 0.54455 0.0
H642 H 0.78929 0.45081 0.44391 0.0
H643 H 0.8244 0.43387 0.43429 0.0
C644 C 0.74404 0.48651 0.48707 0.0
C645 C 0.73683 0.48623 0.53307 0.0
C646 C 0.77054 0.48802 0.47468 0.0
C647 C 0.79007 0.48851 0.50807 0.0
C648 C 0.78331 0.48937 0.55414 0.0
C649 C 0.75687 0.48811 0.56645 0.0
C650 C 0.86198 0.48704 0.51371 0.0
C651 C 0.85548 0.46359 0.48409 0.0
C652 C 0.84161 0.49679 0.51954 0.0
C653 C 0.81471 0.48342 0.49544 0.0
C654 C 0.80979 0.46186 0.4628 0.0
C655 C 0.82989 0.45203 0.45734 0.0
H656 H 0.53582 0.25012 0.57967 0.0
H657 H 0.53727 0.26476 0.43504 0.0
H658 H 0.52771 0.29117 0.59316 0.0
H659 H 0.53203 0.30763 0.44849 0.0
H660 H 0.52853 0.38792 0.47622 0.0
H661 H 0.50887 0.33439 0.47303 0.0
H662 H 0.56261 0.34091 0.58936 0.0
H663 H 0.58098 0.39321 0.59297 0.0
C664 C 0.53348 0.2614 0.55062 0.0
C665 C 0.53707 0.25398 0.50621 0.0
C666 C 0.52933 0.28542 0.55837 0.0
C667 C 0.52975 0.30318 0.522 0.0
C668 C 0.53129 0.29446 0.47743 0.0
C669 C 0.53481 0.27012 0.4697 0.0
C670 C 0.53511 0.37747 0.50191 0.0
C671 C 0.55657 0.39452 0.53431 0.0
C672 C 0.52413 0.34695 0.49995 0.0
C673 C 0.53448 0.33327 0.53048 0.0
C674 C 0.55378 0.35028 0.56546 0.0
C675 C 0.56465 0.38048 0.5673 0.0
H676 H 0.6328 0.18024 0.42176 0.0
H677 H 0.63445 0.1484 0.55635 0.0
H678 H 0.68588 0.21324 0.42472 0.0
H679 H 0.68813 0.18175 0.55986 0.0
H680 H 0.75975 0.28531 0.5663 0.0
H681 H 0.71528 0.23647 0.56624 0.0
H682 H 0.73593 0.22168 0.43007 0.0
H683 H 0.77982 0.27082 0.4303 0.0
C684 C 0.6449 0.17951 0.45123 0.0
C685 C 0.62987 0.16174 0.48859 0.0
C686 C 0.67533 0.19837 0.45304 0.0
C687 C 0.69129 0.20023 0.49266 0.0
C688 C 0.67642 0.18087 0.52897 0.0
C689 C 0.64585 0.1616 0.52683 0.0
C690 C 0.75523 0.27099 0.53728 0.0
C691 C 0.77287 0.28151 0.4983 0.0
C692 C 0.72987 0.24305 0.53712 0.0
C693 C 0.72187 0.22534 0.49785 0.0
C694 C 0.74126 0.23494 0.46056 0.0
C695 C 0.76639 0.2629 0.46068 0.0
H696 H 0.20447 0.62324 0.27122 0.0
H697 H 0.21193 0.61402 0.41538 0.0
H698 H 0.19728 0.57387 0.25902 0.0
H699 H 0.20605 0.5652 0.40355 0.0
H700 H 0.19451 0.47767 0.37802 0.0
H701 H 0.17733 0.51358 0.37921 0.0
H702 H 0.23376 0.55879 0.2646 0.0
H703 H 0.25043 0.52307 0.26358 0.0
C704 C 0.20351 0.61014 0.3004 0.0
C705 C 0.20824 0.62206 0.3443 0.0
C706 C 0.19975 0.58205 0.29346 0.0
C707 C 0.20112 0.56554 0.33029 0.0
C708 C 0.20433 0.57699 0.37448 0.0
C709 C 0.20801 0.60503 0.38132 0.0
C710 C 0.20205 0.49453 0.35192 0.0
C711 C 0.22374 0.4978 0.32075 0.0
C712 C 0.19255 0.51527 0.35288 0.0
C713 C 0.20448 0.53931 0.32241 0.0
C714 C 0.22387 0.54052 0.28834 0.0
C715 C 0.23352 0.52008 0.28774 0.0
H716 H 0.54831 0.71888 0.37319 0.0
H717 H 0.49636 0.72871 0.26793 0.0
H718 H 0.5139 0.66543 0.37437 0.0
H719 H 0.4623 0.67592 0.26871 0.0
H720 H 0.41417 0.59774 0.41798 0.0
H721 H 0.46232 0.64135 0.40403 0.0
H722 H 0.45027 0.62466 0.25958 0.0
H723 H 0.40172 0.58159 0.27398 0.0
C724 C 0.53028 0.70939 0.34901 0.0
C725 C 0.52472 0.72764 0.32063 0.0
C726 C 0.51048 0.67895 0.34991 0.0
C727 C 0.48522 0.66651 0.32197 0.0
C728 C 0.4816 0.68464 0.29039 0.0
C729 C 0.50104 0.71493 0.29001 0.0
C730 C 0.42236 0.60307 0.38346 0.0
C731 C 0.40461 0.58632 0.34709 0.0
C732 C 0.44998 0.6278 0.3754 0.0
C733 C 0.46013 0.63643 0.33065 0.0
C734 C 0.44304 0.61854 0.2944 0.0
C735 C 0.41542 0.59379 0.30257 0.0
H736 H 0.42495 0.81698 0.42369 0.0
H737 H 0.4449 0.82759 0.28057 0.0
H738 H 0.38217 0.82299 0.41001 0.0
H739 H 0.40297 0.835 0.26664 0.0
H740 H 0.30552 0.83264 0.38121 0.0
H741 H 0.35891 0.85148 0.38475 0.0
H742 H 0.35169 0.79734 0.26926 0.0
H743 H 0.29901 0.77898 0.26597 0.0
C744 C 0.42067 0.82169 0.38954 0.0
C745 C 0.43827 0.82222 0.35328 0.0
C746 C 0.39642 0.82546 0.38166 0.0
C747 C 0.38915 0.82952 0.33717 0.0
C748 C 0.40794 0.83186 0.30126 0.0
C749 C 0.43211 0.82795 0.30921 0.0
C750 C 0.31577 0.82596 0.35546 0.0
C751 C 0.29841 0.80433 0.3235 0.0
C752 C 0.34619 0.83644 0.35772 0.0
C753 C 0.35949 0.82559 0.32771 0.0
C754 C 0.34236 0.80639 0.29271 0.0
C755 C 0.3121 0.79575 0.29084 0.0
H756 H 0.55305 0.83869 0.86925 0.0
H757 H 0.50354 0.78137 0.75853 0.0
H758 H 0.51817 0.85709 0.87251 0.0
H759 H 0.46889 0.7994 0.76144 0.0
H760 H 0.40509 0.82927 0.77461 0.0
H761 H 0.45414 0.83656 0.75802 0.0
H762 H 0.46711 0.82788 0.90114 0.0
H763 H 0.41851 0.82166 0.91734 0.0
C764 C 0.53561 0.83123 0.84412 0.0
C765 C 0.53081 0.80871 0.81363 0.0
C766 C 0.51544 0.84142 0.84631 0.0
C767 C 0.49047 0.82935 0.81775 0.0
C768 C 0.4879 0.80937 0.78376 0.0
C769 C 0.50776 0.799 0.78198 0.0
C770 C 0.41906 0.83022 0.80253 0.0
C771 C 0.4084 0.82538 0.84731 0.0
C772 C 0.44698 0.83412 0.79309 0.0
C773 C 0.46459 0.83283 0.82823 0.0
C774 C 0.45444 0.82957 0.87332 0.0
C775 C 0.42654 0.82569 0.88267 0.0
H776 H 0.20804 0.58467 0.77178 0.0
H777 H 0.21014 0.60075 0.91559 0.0
H778 H 0.20225 0.62747 0.75636 0.0
H779 H 0.20527 0.64411 0.90063 0.0
H780 H 0.25812 0.73168 0.76466 0.0
H781 H 0.24057 0.67909 0.76583 0.0
H782 H 0.17706 0.66714 0.86955 0.0
H783 H 0.1949 0.72036 0.86799 0.0
C784 C 0.20619 0.59684 0.80007 0.0
C785 C 0.20909 0.58938 0.84486 0.0
C786 C 0.20313 0.62142 0.79133 0.0
C787 C 0.20328 0.63917 0.82726 0.0
C788 C 0.20454 0.63064 0.87222 0.0
C789 C 0.20763 0.60607 0.88086 0.0
C790 C 0.23958 0.71758 0.78632 0.0
C791 C 0.22786 0.72983 0.81633 0.0
C792 C 0.22942 0.68742 0.78695 0.0
C793 C 0.20763 0.66898 0.81818 0.0
C794 C 0.19405 0.68091 0.84541 0.0
C795 C 0.204 0.71122 0.84426 0.0
H796 H 0.30759 0.49012 0.8902 0.0
H797 H 0.29653 0.51054 0.75213 0.0
H798 H 0.35885 0.53026 0.88925 0.0
H799 H 0.34792 0.55025 0.75046 0.0
H800 H 0.40431 0.64551 0.80799 0.0
H801 H 0.36312 0.59616 0.79356 0.0
H802 H 0.41078 0.5584 0.85871 0.0
H803 H 0.45209 0.60833 0.87346 0.0
C804 C 0.31676 0.50204 0.85876 0.0
C805 C 0.29844 0.4973 0.82113 0.0
C806 C 0.34604 0.52516 0.85824 0.0
C807 C 0.35716 0.5438 0.82008 0.0
C808 C 0.33975 0.53655 0.78057 0.0
C809 C 0.31051 0.5136 0.78124 0.0
C810 C 0.40603 0.62661 0.81868 0.0
C811 C 0.43126 0.63055 0.84147 0.0
C812 C 0.38268 0.59835 0.80998 0.0
C813 C 0.38389 0.57334 0.82441 0.0
C814 C 0.40936 0.57727 0.8469 0.0
C815 C 0.43296 0.60571 0.85515 0.0
H816 H 0.84344 0.93978 0.71435 0.0
H817 H 0.92763 0.97816 0.64662 0.0
H818 H 0.83589 0.89011 0.70021 0.0
H819 H 0.92049 0.92922 0.6326 0.0
H820 H 0.90287 0.84458 0.59038 0.0
H821 H 0.88949 0.88307 0.5899 0.0
H822 H 0.86187 0.86326 0.73005 0.0
H823 H 0.87455 0.82412 0.72979 0.0
C824 C 0.85999 0.93744 0.69575 0.0
C825 C 0.88605 0.96252 0.6813 0.0
C826 C 0.85576 0.90919 0.6878 0.0
C827 C 0.87739 0.90577 0.66473 0.0
C828 C 0.90308 0.93102 0.64951 0.0
C829 C 0.9074 0.95905 0.65794 0.0
C830 C 0.89245 0.84748 0.62021 0.0
C831 C 0.88958 0.83156 0.66005 0.0
C832 C 0.88507 0.86965 0.62014 0.0
C833 C 0.87533 0.8766 0.66027 0.0
C834 C 0.86925 0.85834 0.69861 0.0
C835 C 0.87637 0.83587 0.69847 0.0
H836 H 0.16321 0.06298 0.59728 0.0
H837 H 0.21567 0.05232 0.70077 0.0
H838 H 0.12928 1.01018 0.59706 0.0
H839 H 0.18145 0.99886 0.70082 0.0
H840 H 0.06813 0.91626 0.60157 0.0
H841 H 0.11678 0.95905 0.58679 0.0
H842 H 0.13032 0.9746 0.73135 0.0
H843 H 0.08211 0.9312 0.74563 0.0
C844 C 0.16802 0.04904 0.61873 0.0
C845 C 0.19176 0.06151 0.64927 0.0
C846 C 0.14868 0.01873 0.6185 0.0
C847 C 0.15248 1.00035 0.64933 0.0
C848 C 0.17787 0.01257 0.67698 0.0
C849 C 0.19755 0.04304 0.67672 0.0
C850 C 0.08218 0.92811 0.63004 0.0
C851 C 0.07177 0.92041 0.67472 0.0
C852 C 0.10986 0.95272 0.62167 0.0
C853 C 0.12739 0.97025 0.65788 0.0
C854 C 0.11764 0.96133 0.70271 0.0
C855 C 0.08998 0.93673 0.71098 0.0
H856 H 0.96547 0.10952 0.59009 0.0
H857 H 0.97417 0.16997 0.69624 0.0
H858 H 0.01817 0.12722 0.59368 0.0
H859 H 0.02734 0.18779 0.70042 0.0
H860 H 0.11295 0.15947 0.60714 0.0
H861 H 0.07077 0.16596 0.58915 0.0
H862 H 0.04814 0.15726 0.73173 0.0
H863 H 0.09061 0.15131 0.74927 0.0
C864 C 0.97906 0.12767 0.61265 0.0
C865 C 0.96601 0.1385 0.64279 0.0
C866 C 1.00926 0.13783 0.61481 0.0
C867 C 0.02686 0.15863 0.6478 0.0
C868 C 1.01423 0.17157 0.67492 0.0
C869 C 0.98395 0.16167 0.67221 0.0
C870 C 0.09954 0.16014 0.63461 0.0
C871 C 0.10504 0.1553 0.67961 0.0
C872 C 0.07535 0.16365 0.62437 0.0
C873 C 0.05617 0.16222 0.65901 0.0
C874 C 0.06276 0.15903 0.70434 0.0
C875 C 0.08684 0.15536 0.71445 0.0
H876 H 0.16868 0.11107 0.09934 0.0
H877 H 0.21376 0.16525 0.2153 0.0
H878 H 0.13359 0.12856 0.1005 0.0
H879 H 0.17846 0.18322 0.2167 0.0
H880 H 0.0696 0.15822 0.10825 0.0
H881 H 0.11915 0.16569 0.09622 0.0
H882 H 0.12648 0.15408 0.24026 0.0
H883 H 0.07746 0.14787 0.25196 0.0
C884 C 0.17177 0.12781 0.12386 0.0
C885 C 0.19371 0.13683 0.15728 0.0
C886 C 0.1517 0.13793 0.12454 0.0
C887 C 0.15295 0.157 0.15912 0.0
C888 C 0.17676 0.16826 0.18996 0.0
C889 C 0.19714 0.1583 0.18891 0.0
C890 C 0.08245 0.15862 0.1374 0.0
C891 C 0.07009 0.15295 0.1811 0.0
C892 C 0.11065 0.16257 0.13056 0.0
C893 C 0.1268 0.16046 0.16725 0.0
C894 C 0.11495 0.15639 0.21132 0.0
C895 C 0.0868 0.15251 0.21808 0.0
H896 H 0.86816 0.91577 0.10951 0.0
H897 H 0.87363 0.93311 0.25326 0.0
H898 H 0.8614 0.95798 0.09489 0.0
H899 H 0.86836 0.97626 0.23899 0.0
H900 H 0.91578 0.06164 0.09728 0.0
H901 H 0.89829 1.00917 0.09999 0.0
H902 H 0.8405 0.99964 0.21167 0.0
H903 H 0.85853 0.05285 0.20881 0.0
C904 C 0.86685 0.92807 0.13806 0.0
C905 C 0.87084 0.92101 0.18256 0.0
C906 C 0.86334 0.95242 0.12974 0.0
C907 C 0.86438 0.97056 0.16574 0.0
C908 C 0.8669 0.96253 0.21051 0.0
C909 C 0.87025 0.93806 0.21876 0.0
C910 C 0.89843 0.04809 0.12114 0.0
C911 C 0.88855 0.0611 0.15296 0.0
C912 C 0.8883 0.01795 0.12268 0.0
C913 C 0.86827 1.00022 0.15651 0.0
C914 C 0.85621 0.01283 0.18559 0.0
C915 C 0.86621 0.04314 0.18367 0.0
H916 H 0.10909 0.95811 0.10917 0.0
H917 H 0.0909 0.94598 0.25275 0.0
H918 H 0.06702 0.90906 0.09443 0.0
H919 H 0.04808 0.8974 0.23838 0.0
H920 H 0.96283 0.86019 0.09796 0.0
H921 H 1.01543 0.89515 0.10016 0.0
H922 H 0.02544 0.84609 0.21048 0.0
H923 H 0.97217 0.81088 0.20797 0.0
C924 C 0.09664 0.94442 0.13765 0.0
C925 C 0.10331 0.95541 0.18212 0.0
C926 C 0.07243 0.91651 0.12926 0.0
C927 C 0.05419 0.89932 0.16521 0.0
C928 C 0.06194 0.90979 0.20998 0.0
C929 C 0.08619 0.93767 0.21828 0.0
C930 C 0.97654 0.85623 0.12132 0.0
C931 C 0.96373 0.83307 0.15283 0.0
C932 C 1.00672 0.87619 0.12258 0.0
C933 C 0.02459 0.8736 0.1559 0.0
C934 C 1.01213 0.84876 0.18472 0.0
C935 C 0.9818 0.82847 0.18304 0.0
H936 H 0.5132 0.08118 0.34365 0.0
H937 H 0.57017 0.17534 0.35699 0.0
H938 H 0.53015 0.08383 0.26574 0.0
H939 H 0.58881 0.17783 0.28104 0.0
H940 H 0.60355 0.17711 0.1298 0.0
H941 H 0.58243 0.17581 0.20399 0.0
H942 H 0.57117 0.08909 0.22811 0.0
H943 H 0.59013 0.0898 0.15234 0.0
C944 C 0.52911 0.10245 0.32968 0.0
C945 C 0.5403 0.12801 0.35618 0.0
C946 C 0.53924 0.10397 0.28533 0.0
C947 C 0.56138 0.13098 0.2672 0.0
C948 C 0.57153 0.1567 0.29333 0.0
C949 C 0.56083 0.15527 0.33709 0.0
C950 C 0.59696 0.15806 0.15149 0.0
C951 C 0.59855 0.13364 0.13588 0.0
C952 C 0.58478 0.1572 0.19399 0.0
C953 C 0.5747 0.13218 0.22212 0.0
C954 C 0.57775 0.10835 0.20698 0.0
C955 C 0.58911 0.1089 0.16397 0.0
H956 H 0.94815 0.43554 0.35048 0.0
H957 H 0.85322 0.39425 0.35751 0.0
H958 H 0.9471 0.45153 0.27295 0.0
H959 H 0.85212 0.41214 0.28222 0.0
H960 H 0.85538 0.43301 0.1336 0.0
H961 H 0.85621 0.41113 0.20589 0.0
H962 H 0.94171 0.48699 0.23538 0.0
H963 H 0.94167 0.50735 0.16075 0.0
C964 C 0.92705 0.42955 0.33508 0.0
C965 C 0.90079 0.41356 0.35975 0.0
C966 C 0.92642 0.43917 0.291 0.0
C967 C 0.89958 0.43379 0.27134 0.0
C968 C 0.87322 0.41649 0.29555 0.0
C969 C 0.8738 0.40613 0.33896 0.0
C970 C 0.87409 0.44517 0.15602 0.0
C971 C 0.8983 0.47199 0.14217 0.0
C972 C 0.87465 0.43262 0.19755 0.0
C973 C 0.89909 0.44711 0.22682 0.0
C974 C 0.92284 0.47467 0.21341 0.0
C975 C 0.92266 0.48672 0.1711 0.0
H976 H 0.60965 0.51862 0.37297 0.0
H977 H 0.62202 0.44403 0.39582 0.0
H978 H 0.59601 0.50347 0.29438 0.0
H979 H 0.60667 0.42768 0.31786 0.0
H980 H 0.59155 0.41591 0.16339 0.0
H981 H 0.61375 0.43393 0.23801 0.0
H982 H 0.55259 0.46542 0.26183 0.0
H983 H 0.53163 0.44878 0.18665 0.0
C984 C 0.60995 0.49926 0.36074 0.0
C985 C 0.61673 0.4824 0.39016 0.0
C986 C 0.60171 0.49029 0.31601 0.0
C987 C 0.59929 0.46382 0.30025 0.0
C988 C 0.60827 0.44816 0.32885 0.0
C989 C 0.61717 0.45755 0.37344 0.0
C990 C 0.58268 0.42635 0.18499 0.0
C991 C 0.55999 0.4311 0.1694 0.0
C992 C 0.59544 0.43676 0.22763 0.0
C993 C 0.58541 0.45171 0.25554 0.0
C994 C 0.56161 0.45497 0.24061 0.0
C995 C 0.54927 0.44506 0.19782 0.0
H996 H 0.93958 0.5097 0.84638 0.0
H997 H 0.84623 0.4493 0.86341 0.0
H998 H 0.9367 0.49236 0.76881 0.0
H999 H 0.8436 0.43051 0.78724 0.0
H1000 H 0.84531 0.41697 0.63394 0.0
H1001 H 0.84511 0.43678 0.70888 0.0
H1002 H 0.93283 0.45083 0.73393 0.0
H1003 H 0.93347 0.4329 0.65801 0.0
C1004 C 0.91841 0.49294 0.83328 0.0
C1005 C 0.89318 0.48083 0.8608 0.0
C1006 C 0.91678 0.48263 0.78911 0.0
C1007 C 0.89005 0.45944 0.77204 0.0
C1008 C 0.86451 0.44846 0.79895 0.0
C1009 C 0.86602 0.45927 0.84273 0.0
C1010 C 0.86423 0.42383 0.65604 0.0
C1011 C 0.88938 0.42347 0.64065 0.0
C1012 C 0.86423 0.43529 0.69888 0.0
C1013 C 0.8892 0.44599 0.72727 0.0
C1014 C 0.91362 0.44382 0.7125 0.0
C1015 C 0.91386 0.43308 0.66937 0.0
H1016 H 0.54828 0.47653 0.66064 0.0
H1017 H 0.62653 0.47125 0.69049 0.0
H1018 H 0.52765 0.45456 0.73381 0.0
H1019 H 0.60621 0.45019 0.76482 0.0
H1020 H 0.55202 0.38779 0.87603 0.0
H1021 H 0.56709 0.40478 0.79806 0.0
H1022 H 0.53431 0.46553 0.81257 0.0
H1023 H 0.51839 0.44793 0.88922 0.0
C1024 C 0.56138 0.47125 0.68322 0.0
C1025 C 0.58909 0.47566 0.66976 0.0
C1026 C 0.54948 0.45856 0.72517 0.0
C1027 C 0.56512 0.45028 0.75487 0.0
C1028 C 0.59331 0.45568 0.74217 0.0
C1029 C 0.60517 0.4682 0.69994 0.0
C1030 C 0.54722 0.40409 0.86198 0.0
C1031 C 0.53425 0.41669 0.88881 0.0
C1032 C 0.55627 0.41416 0.81764 0.0
C1033 C 0.55244 0.43693 0.79954 0.0
C1034 C 0.53753 0.44792 0.82537 0.0
C1035 C 0.5284 0.43781 0.86942 0.0
H1036 H 0.62891 0.17853 0.85511 0.0
H1037 H 0.5963 0.08505 0.84324 0.0
H1038 H 0.61074 0.17921 0.7797 0.0
H1039 H 0.57999 0.08594 0.76594 0.0
H1040 H 0.5208 0.0866 0.65611 0.0
H1041 H 0.54166 0.08817 0.73082 0.0
H1042 H 0.61305 0.17651 0.7024 0.0
H1043 H 0.59069 0.17547 0.62949 0.0
C1044 C 0.61891 0.15832 0.83552 0.0
C1045 C 0.61392 0.1317 0.85494 0.0
C1046 C 0.6084 0.15867 0.79213 0.0
C1047 C 0.59332 0.13251 0.76678 0.0
C1048 C 0.59054 0.10632 0.78501 0.0
C1049 C 0.60036 0.10585 0.82895 0.0
C1050 C 0.54055 0.10653 0.66659 0.0
C1051 C 0.55399 0.13103 0.63761 0.0
C1052 C 0.55288 0.10731 0.70897 0.0
C1053 C 0.57945 0.13228 0.72254 0.0
C1054 C 0.59242 0.15704 0.69362 0.0
C1055 C 0.57959 0.15653 0.65182 0.0
H1056 H 0.24116 0.4158 0.50064 0.0
H1057 H 0.26616 0.5067 0.47673 0.0
H1058 H 0.22207 0.41778 0.57511 0.0
H1059 H 0.24513 0.50832 0.54961 0.0
H1060 H 0.23563 0.5101 0.70425 0.0
H1061 H 0.25127 0.51023 0.62678 0.0
H1062 H 0.18405 0.41838 0.61336 0.0
H1063 H 0.17007 0.41794 0.69243 0.0
C1064 C 0.24247 0.43619 0.51148 0.0
C1065 C 0.25541 0.46118 0.48342 0.0
C1066 C 0.23109 0.43726 0.55384 0.0
C1067 C 0.23159 0.46312 0.56847 0.0
C1068 C 0.24469 0.48815 0.54009 0.0
C1069 C 0.25681 0.48729 0.49827 0.0
C1070 C 0.22368 0.49015 0.68431 0.0
C1071 C 0.20173 0.46396 0.70429 0.0
C1072 C 0.23269 0.49017 0.63971 0.0
C1073 C 0.21941 0.46413 0.61374 0.0
C1074 C 0.19557 0.43859 0.6327 0.0
C1075 C 0.18713 0.4384 0.67775 0.0
H1076 H 0.52375 0.79119 0.50576 0.0
H1077 H 0.60332 0.78936 0.47284 0.0
H1078 H 0.52256 0.76974 0.58024 0.0
H1079 H 0.6014 0.76685 0.54568 0.0
H1080 H 0.61128 0.76865 0.70082 0.0
H1081 H 0.61019 0.78141 0.62206 0.0
H1082 H 0.51516 0.72637 0.62064 0.0
H1083 H 0.51619 0.7144 0.70068 0.0
C1084 C 0.54088 0.78613 0.51438 0.0
C1085 C 0.56389 0.79247 0.48381 0.0
C1086 C 0.54001 0.77348 0.55674 0.0
C1087 C 0.56193 0.76658 0.56899 0.0
C1088 C 0.58449 0.77236 0.53781 0.0
C1089 C 0.5856 0.78535 0.49598 0.0
C1090 C 0.59017 0.75866 0.68352 0.0
C1091 C 0.5638 0.74081 0.70719 0.0
C1092 C 0.58953 0.76595 0.63815 0.0
C1093 C 0.56252 0.75531 0.61515 0.0
C1094 C 0.53627 0.73549 0.63774 0.0
C1095 C 0.53691 0.72827 0.68338 0.0
H1096 H 0.30219 0.79357 0.70568 0.0
H1097 H 0.27375 0.85751 0.68908 0.0
H1098 H 0.28639 0.77615 0.62867 0.0
H1099 H 0.25977 0.84165 0.61077 0.0
H1100 H 0.19862 0.78156 0.50297 0.0
H1101 H 0.22039 0.80155 0.57665 0.0
H1102 H 0.28924 0.78058 0.55018 0.0
H1103 H 0.26606 0.75883 0.4776 0.0
C1104 C 0.29378 0.80481 0.68476 0.0
C1105 C 0.28905 0.82679 0.7033 0.0
C1106 C 0.28457 0.79474 0.6405 0.0
C1107 C 0.271 0.8069 0.61362 0.0
C1108 C 0.26904 0.83093 0.63095 0.0
C1109 C 0.27756 0.84047 0.67555 0.0
C1110 C 0.21814 0.78083 0.51337 0.0
C1111 C 0.23054 0.76848 0.4849 0.0
C1112 C 0.23099 0.79276 0.55528 0.0
C1113 C 0.25706 0.79336 0.56925 0.0
C1114 C 0.26909 0.78036 0.54094 0.0
C1115 C 0.25578 0.76779 0.49937 0.0
H1116 H 0.60182 0.82203 0.9716 0.0
H1117 H 0.52216 0.74057 0.00379 0.0
H1118 H 0.59983 0.84205 0.04487 0.0
H1119 H 0.52084 0.76026 0.07848 0.0
H1120 H 0.51519 0.80815 0.20081 0.0
H1121 H 0.5138 0.7961 0.12025 0.0
H1122 H 0.60871 0.83468 0.12097 0.0
H1123 H 0.61013 0.84755 0.20017 0.0
C1124 C 0.58402 0.80823 0.99461 0.0
C1125 C 0.56237 0.77951 0.98222 0.0
C1126 C 0.58287 0.81977 0.03665 0.0
C1127 C 0.5603 0.80275 0.06773 0.0
C1128 C 0.53832 0.77414 0.05509 0.0
C1129 C 0.53925 0.76269 0.01258 0.0
C1130 C 0.53579 0.81489 0.18324 0.0
C1131 C 0.56275 0.82858 0.20688 0.0
C1132 C 0.53496 0.8076 0.13731 0.0
C1133 C 0.56108 0.81398 0.11432 0.0
C1134 C 0.58816 0.82959 0.13734 0.0
C1135 C 0.58898 0.83691 0.18296 0.0
H1136 H 0.21238 0.79769 0.97226 0.0
H1137 H 0.29001 0.79117 0.00104 0.0
H1138 H 0.19224 0.77676 0.0461 0.0
H1139 H 0.27016 0.77106 0.07621 0.0
H1140 H 0.21747 0.71484 0.19532 0.0
H1141 H 0.23152 0.72832 0.11589 0.0
H1142 H 0.20112 0.7913 0.12334 0.0
H1143 H 0.18637 0.77729 0.20155 0.0
C1144 C 0.22537 0.79213 0.9946 0.0
C1145 C 0.25298 0.79637 0.98088 0.0
C1146 C 0.21376 0.78009 0.03703 0.0
C1147 C 0.22956 0.77224 0.06716 0.0
C1148 C 0.2572 0.77644 0.05352 0.0
C1149 C 0.26876 0.78831 0.01071 0.0
C1150 C 0.21303 0.73094 0.17951 0.0
C1151 C 0.2009 0.74507 0.2048 0.0
C1152 C 0.22148 0.73898 0.13424 0.0
C1153 C 0.21785 0.7612 0.11344 0.0
C1154 C 0.20406 0.77395 0.13804 0.0
C1155 C 0.1956 0.76592 0.18307 0.0
H1156 H 0.19784 0.417 -0.00057 0.0
H1157 H 0.26629 0.50704 0.97685 0.0
H1158 H 0.21804 0.41779 0.0743 0.0
H1159 H 0.28816 0.50741 0.05009 0.0
H1160 H 0.29898 0.50842 0.20462 0.0
H1161 H 0.28406 0.50939 0.12696 0.0
H1162 H 0.25514 0.41647 0.11384 0.0
H1163 H 0.26803 0.4153 0.19313 0.0
C1164 C 0.21731 0.43694 0.01066 0.0
C1165 C 0.23031 0.46207 0.98291 0.0
C1166 C 0.22927 0.43732 0.05326 0.0
C1167 C 0.25509 0.46257 0.06842 0.0
C1168 C 0.26803 0.48772 0.04024 0.0
C1169 C 0.25552 0.48757 -0.00179 0.0
C1170 C 0.29013 0.48839 0.18471 0.0
C1171 C 0.28455 0.46175 0.2048 0.0
C1172 C 0.28149 0.48889 0.13999 0.0
C1173 C 0.26775 0.46286 0.11399 0.0
C1174 C 0.26461 0.43674 0.13315 0.0
C1175 C 0.27248 0.4361 0.17834 0.0
H1176 H 0.93683 0.84298 0.80923 0.0
H1177 H 0.911 0.75208 0.83545 0.0
H1178 H 0.91581 0.84545 0.88181 0.0
H1179 H 0.89167 0.75485 0.90926 0.0
H1180 H 0.83644 0.75493 0.02106 0.0
H1181 H 0.85222 0.75598 0.94295 0.0
H1182 H 0.92067 0.84697 0.96029 0.0
H1183 H 0.90342 0.84626 0.03715 0.0
C1184 C 0.92736 0.82378 0.83121 0.0
C1185 C 0.92558 0.79736 0.81699 0.0
C1186 C 0.91521 0.82513 0.87278 0.0
C1187 C 0.90155 0.80022 0.90133 0.0
C1188 C 0.90105 0.7742 0.88766 0.0
C1189 C 0.91257 0.77269 0.8457 0.0
C1190 C 0.85415 0.77541 0.00743 0.0
C1191 C 0.86869 0.8005 0.03495 0.0
C1192 C 0.86362 0.77591 0.96298 0.0
C1193 C 0.88838 0.80129 0.94559 0.0
C1194 C 0.9015 0.82704 0.97223 0.0
C1195 C 0.89153 0.82671 0.01636 0.0
H1196 H 0.27451 0.15876 0.83292 0.0
H1197 H 0.18427 0.09049 0.81115 0.0
H1198 H 0.27353 0.13938 0.90845 0.0
H1199 H 0.18369 0.06941 0.88529 0.0
H1200 H 0.18222 0.06052 0.04034 0.0
H1201 H 0.18156 0.07444 0.96193 0.0
H1202 H 0.27459 0.10306 0.9503 0.0
H1203 H 0.27544 0.09119 0.0302 0.0
C1204 C 0.2545 0.13943 0.8444 0.0
C1205 C 0.22938 0.12628 0.81663 0.0
C1206 C 0.25401 0.12795 0.88747 0.0
C1207 C 0.22862 0.10247 0.90325 0.0
C1208 C 0.2035 0.0893 0.87499 0.0
C1209 C 0.20377 0.10133 0.8324 0.0
C1210 C 0.20236 0.06914 0.02064 0.0
C1211 C 0.22892 0.07489 0.04129 0.0
C1212 C 0.20203 0.07718 0.97546 0.0
C1213 C 0.22816 0.0905 0.94954 0.0
C1214 C 0.25422 0.0939 0.96943 0.0
C1215 C 0.25469 0.08663 0.01503 0.0
H1216 H 0.90911 0.07709 0.83291 0.0
H1217 H 0.9034 0.15494 0.80266 0.0
H1218 H 0.92875 0.09682 0.90806 0.0
H1219 H 0.9238 0.17498 0.87701 0.0
H1220 H 0.98145 0.14652 0.0298 0.0
H1221 H 0.97092 0.13516 0.94909 0.0
H1222 H 0.90724 0.16479 0.95404 0.0
H1223 H 0.91825 0.17681 0.03376 0.0
C1224 C 0.91217 0.09845 0.84222 0.0
C1225 C 0.90433 0.11426 0.81209 0.0
C1226 C 0.92376 0.10993 0.88506 0.0
C1227 C 0.92791 0.13753 0.89851 0.0
C1228 C 0.92053 0.15351 0.86797 0.0
C1229 C 0.90879 0.14197 0.82534 0.0
C1230 C 0.96585 0.15139 0.01326 0.0
C1231 C 0.95051 0.16233 0.03825 0.0
C1232 C 0.95954 0.14454 0.96719 0.0
C1233 C 0.93789 0.14861 0.94532 0.0
C1234 C 0.92416 0.16151 0.96965 0.0
C1235 C 0.93044 0.16835 0.01552 0.0
H1236 H 0.18389 0.09574 0.31267 0.0
H1237 H 0.27343 0.11627 0.33811 0.0
H1238 H 0.18319 0.11792 0.38495 0.0
H1239 H 0.27228 0.13643 0.41195 0.0
H1240 H 0.27522 0.19041 0.52778 0.0
H1241 H 0.274 0.17577 0.44895 0.0
H1242 H 0.1807 0.1129 0.46229 0.0
H1243 H 0.18176 0.12933 0.53954 0.0
C1244 C 0.20315 0.10433 0.33445 0.0
C1245 C 0.22864 0.10417 0.32016 0.0
C1246 C 0.20283 0.11712 0.37592 0.0
C1247 C 0.22778 0.12936 0.40451 0.0
C1248 C 0.25294 0.12819 0.3905 0.0
C1249 C 0.2535 0.11615 0.3485 0.0
C1250 C 0.2543 0.17427 0.51308 0.0
C1251 C 0.2286 0.16106 0.5396 0.0
C1252 C 0.25364 0.16539 0.46818 0.0
C1253 C 0.22743 0.14242 0.44934 0.0
C1254 C 0.2013 0.13074 0.47514 0.0
C1255 C 0.20184 0.14023 0.51961 0.0
H1256 H 0.93195 0.09249 0.31047 0.0
H1257 H 0.9045 0.15655 0.33414 0.0
H1258 H 0.91085 0.06916 0.38326 0.0
H1259 H 0.88516 0.13472 0.40809 0.0
H1260 H 0.83349 0.08249 0.52466 0.0
H1261 H 0.84718 0.09519 0.44525 0.0
H1262 H 0.91617 0.0731 0.46115 0.0
H1263 H 0.90093 0.0585 0.53922 0.0
C1264 C 0.92199 0.10197 0.33184 0.0
C1265 C 0.91995 0.12638 0.31689 0.0
C1266 C 0.90981 0.08858 0.37359 0.0
C1267 C 0.89587 0.09971 0.40171 0.0
C1268 C 0.89477 0.12479 0.38701 0.0
C1269 C 0.90631 0.13769 0.34488 0.0
C1270 C 0.85084 0.07935 0.51049 0.0
C1271 C 0.86614 0.06955 0.53802 0.0
C1272 C 0.85912 0.08715 0.46521 0.0
C1273 C 0.88349 0.08616 0.44689 0.0
C1274 C 0.89726 0.07414 0.47366 0.0
C1275 C 0.88845 0.06562 0.51859 0.0
H1276 H 0.89874 0.83337 0.33284 0.0
H1277 H 0.89266 0.74941 0.30538 0.0
H1278 H 0.91919 0.83412 0.40788 0.0
H1279 H 0.91401 0.75072 0.37913 0.0
H1280 H 0.91508 0.74558 0.53455 0.0
H1281 H 0.90029 0.74556 0.4566 0.0
H1282 H 0.96246 0.83901 0.44665 0.0
H1283 H 0.97666 0.83923 0.52594 0.0
C1284 C 0.90172 0.81509 0.34283 0.0
C1285 C 0.89376 0.7912 0.31337 0.0
C1286 C 0.91381 0.8157 0.38553 0.0
C1287 C 0.91837 0.79253 0.39944 0.0
C1288 C 0.91045 0.76873 0.36981 0.0
C1289 C 0.89815 0.76799 0.32746 0.0
C1290 C 0.9261 0.76607 0.51557 0.0
C1291 C 0.94691 0.79246 0.53656 0.0
C1292 C 0.91762 0.76604 0.4707 0.0
C1293 C 0.92992 0.79236 0.44549 0.0
C1294 C 0.95215 0.81847 0.46551 0.0
C1295 C 0.9606 0.81853 0.51068 0.0
H1296 H 0.3275 0.89695 0.9522 0.0
H1297 H 0.35362 0.92664 0.81469 0.0
H1298 H 0.37482 0.9358 0.97988 0.0
H1299 H 0.40077 0.96692 0.84205 0.0
H1300 H 0.49522 1.00372 0.89725 0.0
H1301 H 0.44505 0.97256 0.86864 0.0
H1302 H 0.41029 0.98346 -0.00406 0.0
H1303 H 0.46058 0.01319 0.02468 0.0
C1304 C 0.34281 0.913 0.92813 0.0
C1305 C 0.3365 0.90931 0.88144 0.0
C1306 C 0.37025 0.93528 0.94391 0.0
C1307 C 0.39223 0.95462 0.91336 0.0
C1308 C 0.38489 0.9522 0.86675 0.0
C1309 C 0.3575 0.92959 0.85098 0.0
C1310 C 0.47672 0.99943 0.9188 0.0
C1311 C 0.48169 0.01073 0.96314 0.0
C1312 C 0.44786 0.98178 0.90238 0.0
C1313 C 0.42314 0.97528 0.92973 0.0
C1314 C 0.42843 0.98729 0.97391 0.0
C1315 C 0.45727 1.00447 0.99049 0.0
H1316 H 0.99368 0.43751 0.98908 0.0
H1317 H 0.05495 0.52365 0.93638 0.0
H1318 H 0.02414 0.418 0.95806 0.0
H1319 H 0.08538 0.50435 0.90508 0.0
H1320 H 0.11668 0.45779 0.81391 0.0
H1321 H 0.07884 0.46781 0.84253 0.0
H1322 H 0.07717 0.42549 0.96943 0.0
H1323 H 0.11562 0.41575 0.94057 0.0
C1324 C 1.01362 0.45218 0.97062 0.0
C1325 C 0.02185 0.48199 0.96452 0.0
C1326 C 0.0311 0.44108 0.95313 0.0
C1327 C 0.05694 0.4595 0.92857 0.0
C1328 C 0.06533 0.48945 0.92317 0.0
C1329 C 0.04812 0.5006 0.94131 0.0
C1330 C 0.1073 0.44946 0.84719 0.0
C1331 C 0.11878 0.4356 0.87475 0.0
C1332 C 0.08598 0.45565 0.86388 0.0
C1333 C 0.07545 0.44801 0.90858 0.0
C1334 C 0.08488 0.43166 0.93482 0.0
C1335 C 0.10656 0.42568 0.91812 0.0
H1336 H 0.5576 0.65948 0.83228 0.0
H1337 H 0.61239 0.70768 0.94593 0.0
H1338 H 0.54991 0.61374 0.86442 0.0
H1339 H 0.60642 0.66154 0.9777 0.0
H1340 H 0.55569 0.57082 0.05068 0.0
H1341 H 0.57167 0.61903 0.01592 0.0
H1342 H 0.56365 0.58057 0.88297 0.0
H1343 H 0.54494 0.5324 0.91791 0.0
C1344 C 0.56901 0.66034 0.86351 0.0
C1345 C 0.58569 0.68725 0.88638 0.0
C1346 C 0.56469 0.63391 0.88213 0.0
C1347 C 0.57727 0.63337 0.92424 0.0
C1348 C 0.5958 0.66073 0.94571 0.0
C1349 C 0.59986 0.68738 0.92706 0.0
C1350 C 0.5574 0.57288 0.01403 0.0
C1351 C 0.54994 0.54796 0.98713 0.0
C1352 C 0.56696 0.60064 0.99395 0.0
C1353 C 0.56936 0.60426 0.94628 0.0
C1354 C 0.56193 0.57909 0.91963 0.0
C1355 C 0.55179 0.55136 0.93969 0.0
H1356 H 0.98817 0.56149 0.48712 0.0
H1357 H 0.05236 0.53655 0.45034 0.0
H1358 H 0.01989 0.61091 0.45447 0.0
H1359 H 0.08386 0.58552 0.41723 0.0
H1360 H 0.11704 0.66022 0.31812 0.0
H1361 H 0.0782 0.61333 0.34815 0.0
H1362 H 0.07412 0.65728 0.46944 0.0
H1363 H 0.11378 0.70453 0.43936 0.0
C1364 C 1.009 0.56661 0.47181 0.0
C1365 C 0.01774 0.54517 0.47071 0.0
C1366 C 0.02719 0.59486 0.4534 0.0
C1367 C 0.05421 0.60201 0.4328 0.0
C1368 C 0.06298 0.58058 0.43228 0.0
C1369 C 0.04511 0.55263 0.45141 0.0
C1370 C 0.10711 0.66009 0.35049 0.0
C1371 C 0.11831 0.68608 0.37622 0.0
C1372 C 0.08511 0.63316 0.36792 0.0
C1373 C 0.07349 0.63149 0.41153 0.0
C1374 C 0.08268 0.65789 0.43571 0.0
C1375 C 0.1051 0.68501 0.41829 0.0
H1376 H 0.46348 0.4306 0.49348 0.0
H1377 H 0.48903 0.51738 0.4428 0.0
H1378 H 0.4142 0.41134 0.45939 0.0
H1379 H 0.44017 0.49835 0.40841 0.0
H1380 H 0.3634 0.45415 0.31536 0.0
H1381 H 0.41067 0.46261 0.34454 0.0
H1382 H 0.36863 0.41943 0.47014 0.0
H1383 H 0.32104 0.41126 0.44071 0.0
C1384 C 0.45862 0.44543 0.47454 0.0
C1385 C 0.48016 0.47541 0.47015 0.0
C1386 C 0.4304 0.43448 0.45535 0.0
C1387 C 0.42336 0.45321 0.43071 0.0
C1388 C 0.44501 0.4832 0.42651 0.0
C1389 C 0.47291 0.49419 0.44636 0.0
C1390 C 0.36398 0.44528 0.34843 0.0
C1391 C 0.33843 0.43166 0.37547 0.0
C1392 C 0.39116 0.45053 0.36543 0.0
C1393 C 0.39354 0.4422 0.40997 0.0
C1394 C 0.36751 0.42608 0.43564 0.0
C1395 C 0.34016 0.42103 0.41862 0.0
H1396 H 0.57302 0.91157 0.31703 0.0
H1397 H 0.61021 0.90914 0.44665 0.0
H1398 H 0.56324 0.94968 0.3451 0.0
H1399 H 0.60094 0.94801 0.47482 0.0
H1400 H 0.59055 0.03352 0.49085 0.0
H1401 H 0.61051 1.0031 0.461 0.0
H1402 H 0.52441 0.94117 0.40812 0.0
H1403 H 0.50459 0.97135 0.43868 0.0
C1404 C 0.58054 0.92034 0.35083 0.0
C1405 C 0.5929 0.90776 0.37934 0.0
C1406 C 0.57446 0.94181 0.36717 0.0
C1407 C 0.58084 0.95148 0.4124 0.0
C1408 C 0.59581 0.941 0.43976 0.0
C1409 C 0.60156 0.91909 0.42347 0.0
C1410 C 0.57603 0.01339 0.47279 0.0
C1411 C 0.5461 1.00482 0.46662 0.0
C1412 C 0.58738 0.99597 0.45592 0.0
C1413 C 0.56913 0.96994 0.43174 0.0
C1414 C 0.53913 0.96132 0.42605 0.0
C1415 C 0.5277 0.9784 0.44372 0.0
H1416 H 0.15436 0.30436 0.27858 0.0
H1417 H 0.13093 0.36859 0.32152 0.0
H1418 H 0.10489 0.27402 0.24616 0.0
H1419 H 0.08102 0.33797 0.2898 0.0
H1420 H 0.98691 0.2437 0.27679 0.0
H1421 H 0.03477 0.28298 0.30554 0.0
H1422 H 0.07595 0.28168 0.17932 0.0
H1423 H 0.02839 0.24325 0.1506 0.0
C1424 C 0.13853 0.3119 0.28104 0.0
C1425 C 0.14651 0.33892 0.30193 0.0
C1426 C 0.11031 0.29468 0.26237 0.0
C1427 C 0.08913 0.30376 0.26508 0.0
C1428 C 0.09687 0.33048 0.28705 0.0
C1429 C 0.1254 0.34803 0.3049 0.0
C1430 C 1.00589 0.25301 0.25443 0.0
C1431 C 1.00385 0.24073 0.21121 0.0
C1432 C 0.03337 0.27518 0.27106 0.0
C1433 C 0.05921 0.28499 0.24495 0.0
C1434 C 0.05655 0.27433 0.20044 0.0
C1435 C 0.02922 0.25261 0.18377 0.0
H1436 H 0.67112 0.80999 0.22586 0.0
H1437 H 0.69862 0.79991 0.35977 0.0
H1438 H 0.69797 0.78831 0.19269 0.0
H1439 H 0.72881 0.78156 0.3263 0.0
H1440 H 0.77646 0.74051 0.26309 0.0
H1441 H 0.73544 0.74606 0.29131 0.0
H1442 H 0.74359 0.79907 0.17311 0.0
H1443 H 0.78238 0.79142 0.14434 0.0
C1444 C 0.68242 0.80269 0.2485 0.0
C1445 C 0.68162 0.80582 0.29585 0.0
C1446 C 0.69871 0.79084 0.22923 0.0
C1447 C 0.71594 0.78295 0.25644 0.0
C1448 C 0.71543 0.7865 0.30387 0.0
C1449 C 0.69844 0.79759 0.32319 0.0
C1450 C 0.76821 0.75192 0.24224 0.0
C1451 C 0.78238 0.7653 0.20134 0.0
C1452 C 0.74519 0.75586 0.25889 0.0
C1453 C 0.73628 0.77371 0.23531 0.0
C1454 C 0.74911 0.78492 0.19252 0.0
C1455 C 0.77157 0.78054 0.17574 0.0
H1456 H 0.17176 0.87013 0.28431 0.0
H1457 H 0.26012 0.89486 0.32599 0.0
H1458 H 0.18998 0.9192 0.25092 0.0
H1459 H 0.27853 0.94432 0.29314 0.0
H1460 H 0.27873 0.03795 0.2772 0.0
H1461 H 0.27048 0.99043 0.3071 0.0
H1462 H 0.22485 0.94763 0.18349 0.0
H1463 H 0.23359 0.99485 0.15365 0.0
C1464 C 0.19507 0.88617 0.28634 0.0
C1465 C 0.21457 0.87865 0.30712 0.0
C1466 C 0.20558 0.91417 0.26706 0.0
C1467 C 0.23579 0.93556 0.26897 0.0
C1468 C 0.25521 0.92831 0.29097 0.0
C1469 C 0.24473 0.90002 0.30949 0.0
C1470 C 0.26836 0.01865 0.25562 0.0
C1471 C 0.25712 0.02014 0.21287 0.0
C1472 C 0.26326 0.99137 0.27292 0.0
C1473 C 0.24647 0.9652 0.24797 0.0
C1474 C 0.23744 0.96728 0.20381 0.0
C1475 C 0.24281 0.9944 0.18647 0.0
H1476 H 0.80757 0.03291 0.79419 0.0
H1477 H 0.76821 1.00798 0.6613 0.0
H1478 H 0.76874 0.9862 0.82538 0.0
H1479 H 0.72903 0.96108 0.69236 0.0
H1480 H 0.65384 0.88363 0.77228 0.0
H1481 H 0.68607 0.93466 0.74716 0.0
H1482 H 0.75991 0.93504 0.81361 0.0
H1483 H 0.72753 0.88408 0.83864 0.0
C1484 C 0.78975 0.01798 0.7721 0.0
C1485 C 0.7904 0.02448 0.72561 0.0
C1486 C 0.7678 0.99096 0.78977 0.0
C1487 C 0.7459 0.96967 0.76133 0.0
C1488 C 0.74539 0.97703 0.71533 0.0
C1489 C 0.76761 1.00404 0.69756 0.0
C1490 C 0.67681 0.8949 0.78237 0.0
C1491 C 0.68807 0.88009 0.8083 0.0
C1492 C 0.69535 0.92402 0.76752 0.0
C1493 C 0.72556 0.93914 0.77867 0.0
C1494 C 0.73668 0.92432 0.80504 0.0
C1495 C 0.71823 0.8951 0.81925 0.0
H1496 H 0.98876 0.7445 0.76796 0.0
H1497 H 0.0303 0.78987 0.64359 0.0
H1498 H 0.03667 0.75256 0.79576 0.0
H1499 H 0.07789 0.79839 0.67137 0.0
H1500 H 0.15557 0.85229 0.77242 0.0
H1501 H 0.10627 0.83336 0.73948 0.0
H1502 H 0.08336 0.74495 0.77874 0.0
H1503 H 0.13312 0.76409 0.81106 0.0
C1504 C 1.00778 0.75485 0.7457 0.0
C1505 C 1.00577 0.7663 0.70342 0.0
C1506 C 0.03528 0.75982 0.7618 0.0
C1507 C 0.06112 0.77663 0.73605 0.0
C1508 C 0.05848 0.78574 0.69223 0.0
C1509 C 0.03115 0.78052 0.67609 0.0
C1510 C 0.14001 0.82884 0.77373 0.0
C1511 C 0.14822 0.80962 0.79361 0.0
C1512 C 0.11189 0.81794 0.75477 0.0
C1513 C 0.09102 0.78759 0.75615 0.0
C1514 C 0.09899 0.76838 0.777 0.0
C1515 C 0.12744 0.77927 0.79517 0.0
H1516 H 0.24695 0.21974 0.79204 0.0
H1517 H 0.27051 0.26276 0.66139 0.0
H1518 H 0.23811 0.25835 0.82104 0.0
H1519 H 0.2624 0.30216 0.6909 0.0
H1520 H 0.26172 0.3753 0.79284 0.0
H1521 H 0.27969 0.34344 0.76389 0.0
H1522 H 0.19415 0.2673 0.78773 0.0
H1523 H 0.17546 0.29927 0.81382 0.0
C1524 C 0.25178 0.23836 0.77026 0.0
C1525 C 0.26021 0.23869 0.72484 0.0
C1526 C 0.24626 0.26019 0.78665 0.0
C1527 C 0.2493 0.28306 0.7581 0.0
C1528 C 0.26005 0.28482 0.71368 0.0
C1529 C 0.26512 0.26256 0.69697 0.0
C1530 C 0.24629 0.35197 0.79024 0.0
C1531 C 0.21665 0.34006 0.80405 0.0
C1532 C 0.25683 0.33366 0.77429 0.0
C1533 C 0.23831 0.30294 0.77342 0.0
C1534 C 0.20894 0.29094 0.78811 0.0
C1535 C 0.19824 0.30924 0.80302 0.0
H1536 H 0.69568 0.57591 0.48423 0.0
H1537 H 0.65309 0.58584 0.6025 0.0
H1538 H 0.74295 0.61409 0.51132 0.0
H1539 H 0.70053 0.62626 0.62892 0.0
H1540 H 0.79119 0.66044 0.69701 0.0
H1541 H 0.742 0.63113 0.66415 0.0
H1542 H 0.77939 0.65897 0.52967 0.0
H1543 H 0.82842 0.68491 0.56282 0.0
C1544 C 0.69631 0.58762 0.51493 0.0
C1545 C 0.67069 0.57797 0.5411 0.0
C1546 C 0.72366 0.60966 0.53085 0.0
C1547 C 0.72618 0.62325 0.57319 0.0
C1548 C 0.69986 0.61581 0.59692 0.0
C1549 C 0.6724 0.59319 0.5812 0.0
C1550 C 0.78867 0.66003 0.66043 0.0
C1551 C 0.81352 0.67573 0.63256 0.0
C1552 C 0.76037 0.64364 0.64142 0.0
C1553 C 0.75612 0.64271 0.59389 0.0
C1554 C 0.78128 0.65863 0.56625 0.0
C1555 C 0.80955 0.67422 0.58527 0.0
H1556 H 0.34005 0.15005 0.5551 0.0
H1557 H 0.3629 0.12871 0.68503 0.0
H1558 H 0.36745 0.13043 0.51678 0.0
H1559 H 0.39306 0.11167 0.64694 0.0
H1560 H 0.43798 0.071 0.57105 0.0
H1561 H 0.3979 0.07704 0.60268 0.0
H1562 H 0.41481 0.14323 0.50052 0.0
H1563 H 0.45305 0.13591 0.46836 0.0
C1564 C 0.35051 0.14072 0.5756 0.0
C1565 C 0.34839 0.14018 0.62326 0.0
C1566 C 0.36694 0.12997 0.55355 0.0
C1567 C 0.38276 0.11928 0.57843 0.0
C1568 C 0.38081 0.119 0.62624 0.0
C1569 C 0.36385 0.12924 0.64825 0.0
C1570 C 0.432 0.08571 0.55424 0.0
C1571 C 0.4485 0.10277 0.51697 0.0
C1572 C 0.40948 0.08976 0.57294 0.0
C1573 C 0.40314 0.11106 0.55486 0.0
C1574 C 0.41838 0.12635 0.51546 0.0
C1575 C 0.4405 0.12215 0.49678 0.0
H1576 H 0.93133 0.36917 0.60494 0.0
H1577 H 0.92038 0.33143 0.47148 0.0
H1578 H 0.92334 0.32296 0.63906 0.0
H1579 H 0.91329 0.2855 0.50532 0.0
H1580 H 0.91704 0.21144 0.58781 0.0
H1581 H 0.93735 0.26186 0.55834 0.0
H1582 H 0.873 0.27172 0.63629 0.0
H1583 H 0.85243 0.22103 0.66491 0.0
C1584 C 0.92894 0.35158 0.58283 0.0
C1585 C 0.92739 0.35418 0.5355 0.0
C1586 C 0.92381 0.32495 0.60237 0.0
C1587 C 0.91751 0.30055 0.57487 0.0
C1588 C 0.91835 0.30398 0.52736 0.0
C1589 C 0.92278 0.33038 0.50792 0.0
C1590 C 0.90766 0.22465 0.59919 0.0
C1591 C 0.88345 0.2126 0.62909 0.0
C1592 C 0.91913 0.25337 0.58215 0.0
C1593 C 0.90698 0.27085 0.59536 0.0
C1594 C 0.88313 0.25895 0.62605 0.0
C1595 C 0.87126 0.22999 0.64227 0.0
H1596 H 0.32142 0.22736 0.16166 0.0
H1597 H 0.38654 0.20513 0.1185 0.0
H1598 H 0.35189 0.27757 0.131 0.0
H1599 H 0.41678 0.25493 0.08716 0.0
H1600 H 0.44781 0.33198 0.99349 0.0
H1601 H 0.40902 0.28418 0.0208 0.0
H1602 H 0.40661 0.32381 0.1479 0.0
H1603 H 0.44619 0.37192 0.12057 0.0
C1604 C 0.34216 0.23324 0.14525 0.0
C1605 C 0.35158 0.2124 0.14187 0.0
C1606 C 0.35961 0.26192 0.12799 0.0
C1607 C 0.38653 0.27006 0.10624 0.0
C1608 C 0.39593 0.24917 0.10319 0.0
C1609 C 0.3788 0.22078 0.12126 0.0
C1610 C 0.4381 0.33077 0.02652 0.0
C1611 C 0.44982 0.35573 0.05472 0.0
C1612 C 0.41618 0.30331 0.04238 0.0
C1613 C 0.40519 0.30015 0.08677 0.0
C1614 C 0.41471 0.32562 0.11351 0.0
C1615 C 0.43705 0.35325 0.09768 0.0
H1616 H 0.79685 0.09849 0.14461 0.0
H1617 H 0.82248 0.18853 0.11292 0.0
H1618 H 0.74922 0.0815 0.10621 0.0
H1619 H 0.77516 0.17181 0.07447 0.0
H1620 H 0.7052 0.13466 0.96859 0.0
H1621 H 0.75095 0.14234 0.00279 0.0
H1622 H 0.70177 0.0863 0.1153 0.0
H1623 H 0.65559 0.07878 0.08082 0.0
C1624 C 0.79231 0.11458 0.12911 0.0
C1625 C 0.81349 0.1448 0.13104 0.0
C1626 C 0.76502 0.1049 0.10746 0.0
C1627 C 0.75854 0.12525 0.08674 0.0
C1628 C 0.77964 0.1555 0.0894 0.0
C1629 C 0.80664 0.16515 0.11162 0.0
C1630 C 0.70399 0.12298 -0.00027 0.0
C1631 C 0.67676 0.10593 0.02182 0.0
C1632 C 0.73027 0.12776 0.01968 0.0
C1633 C 0.73008 0.11549 0.06226 0.0
C1634 C 0.70263 0.09611 0.08248 0.0
C1635 C 0.67613 0.09146 0.06248 0.0
H1636 H 0.95281 0.58741 0.06905 0.0
H1637 H 0.88541 0.56854 0.96893 0.0
H1638 H 0.94692 0.62808 0.09824 0.0
H1639 H 0.87855 0.60776 -0.00146 0.0
H1640 H 0.8738 0.68497 0.0488 0.0
H1641 H 0.893 0.65666 0.01158 0.0
H1642 H 0.91112 0.63186 0.14285 0.0
H1643 H 0.89397 0.66227 0.17976 0.0
C1644 C 0.93757 0.59267 0.05221 0.0
C1645 C 0.91972 0.57494 0.01652 0.0
C1646 C 0.93368 0.61556 0.06948 0.0
C1647 C 0.91186 0.62111 0.05138 0.0
C1648 C 0.89578 0.60468 0.01334 0.0
C1649 C 0.89973 0.58205 -0.00382 0.0
C1650 C 0.88279 0.67434 0.0697 0.0
C1651 C 0.88299 0.67656 0.11732 0.0
C1652 C 0.89339 0.65756 0.04834 0.0
C1653 C 0.90381 0.64182 0.07397 0.0
C1654 C 0.90395 0.64406 0.1217 0.0
C1655 C 0.89368 0.66117 0.143 0.0
loop_
_geom_bond_atom_site_label_1
_geom_bond_atom_site_label_2
_geom_bond_distance
_geom_bond_site_symmetry_2
_ccdc_geom_bond_type
Zn0 O1 2.055 . S
Zn0 O8 2.046 . S
Zn0 N16 2.036 . S
Zn0 O28 2.053 . S
Zn0 O30 2.066 1_554 S
O1 Zn0 2.055 . S
O1 C4 1.260 . S
C2 O30 1.256 . S
C2 O31 1.244 . S
Zn3 O5 2.046 . S
Zn3 O7 2.055 . S
Zn3 N9 2.036 . S
Zn3 O27 2.066 . S
Zn3 O31 2.053 1_554 S
C4 O1 1.260 . S
C4 O5 1.256 . S
O5 Zn3 2.046 . S
O5 C4 1.256 . S
C6 O27 1.256 . S
C6 O28 1.244 . S
O7 Zn3 2.055 . S
O7 C29 1.259 . S
O8 Zn0 2.046 . S
O8 C29 1.254 . S
N9 Zn3 2.036 . S
N9 C10 1.298 . S
N9 N12 1.398 1_554 S
C10 N9 1.298 . S
C10 N13 1.367 . S
C10 C23 1.481 . S
C11 N12 1.299 . S
C11 N13 1.379 1_556 S
N12 N9 1.398 1_556 S
N12 C11 1.299 . S
N13 C10 1.367 . S
N13 C11 1.379 1_554 S
C14 N16 1.298 1_556 S
C14 N18 1.367 . S
C14 C22 1.481 . S
C15 N17 1.299 . S
C15 N18 1.379 1_554 S
N16 Zn0 2.036 . S
N16 C14 1.298 1_554 S
N16 N17 1.398 . S
N17 C15 1.299 . S
N17 N16 1.398 . S
N18 C14 1.367 . S
N18 C15 1.379 1_556 S
H19 C22 0.980 . S
H20 C22 0.981 . S
H21 C22 0.981 . S
C22 C14 1.481 . S
C22 H19 0.980 . S
C22 H20 0.981 . S
C22 H21 0.981 . S
C23 C10 1.481 . S
C23 H24 0.980 . S
C23 H25 0.981 . S
C23 H26 0.981 . S
H24 C23 0.980 . S
H25 C23 0.981 . S
H26 C23 0.981 . S
O27 Zn3 2.066 . S
O27 C6 1.256 . S
O28 Zn0 2.053 . S
O28 C6 1.244 . S
C29 O7 1.259 . S
C29 O8 1.254 . S
O30 Zn0 2.066 1_556 S
O30 C2 1.256 . S
O31 C2 1.244 . S
O31 Zn3 2.053 1_556 S
Zn32 O33 2.055 . S
Zn32 O40 2.046 . S
Zn32 N48 2.036 . S
Zn32 O60 2.053 . S
Zn32 O62 2.066 1_554 S
O33 Zn32 2.055 . S
O33 C36 1.259 . S
C34 O62 1.256 . S
C34 O63 1.244 . S
Zn35 O37 2.046 . S
Zn35 O39 2.055 . S
Zn35 N41 2.036 . S
Zn35 O59 2.066 . S
Zn35 O63 2.053 1_554 S
C36 O33 1.259 . S
C36 O37 1.256 . S
O37 Zn35 2.046 . S
O37 C36 1.256 . S
C38 O59 1.256 . S
C38 O60 1.244 . S
O39 Zn35 2.055 . S
O39 C61 1.259 . S
O40 Zn32 2.046 . S
O40 C61 1.254 . S
N41 Zn35 2.036 . S
N41 C42 1.298 . S
N41 N44 1.398 1_554 S
C42 N41 1.298 . S
C42 N45 1.367 . S
C42 C55 1.481 . S
C43 N44 1.299 . S
C43 N45 1.379 1_556 S
N44 N41 1.398 1_556 S
N44 C43 1.299 . S
N45 C42 1.367 . S
N45 C43 1.379 1_554 S
C46 N48 1.298 1_556 S
C46 N50 1.367 . S
C46 C54 1.481 . S
C47 N49 1.299 . S
C47 N50 1.379 1_554 S
N48 Zn32 2.036 . S
N48 C46 1.298 1_554 S
N48 N49 1.398 . S
N49 C47 1.299 . S
N49 N48 1.398 . S
N50 C46 1.367 . S
N50 C47 1.379 1_556 S
H51 C54 0.980 . S
H52 C54 0.981 . S
H53 C54 0.981 . S
C54 C46 1.481 . S
C54 H51 0.980 . S
C54 H52 0.981 . S
C54 H53 0.981 . S
C55 C42 1.481 . S
C55 H56 0.980 . S
C55 H57 0.981 . S
C55 H58 0.981 . S
H56 C55 0.980 . S
H57 C55 0.981 . S
H58 C55 0.981 . S
O59 Zn35 2.066 . S
O59 C38 1.256 . S
O60 Zn32 2.053 . S
O60 C38 1.244 . S
C61 O39 1.259 . S
C61 O40 1.254 . S
O62 Zn32 2.066 1_556 S
O62 C34 1.256 . S
O63 C34 1.244 . S
O63 Zn35 2.053 1_556 S
Zn64 O65 2.055 . S
Zn64 O72 2.046 . S
Zn64 N80 2.036 . S
Zn64 O92 2.053 . S
Zn64 O94 2.066 1_554 S
O65 Zn64 2.055 . S
O65 C68 1.260 . S
C66 O94 1.256 . S
C66 O95 1.244 . S
Zn67 O69 2.046 . S
Zn67 O71 2.055 . S
Zn67 N73 2.036 . S
Zn67 O91 2.066 . S
Zn67 O95 2.053 1_554 S
C68 O65 1.260 . S
C68 O69 1.256 . S
O69 Zn67 2.046 . S
O69 C68 1.256 . S
C70 O91 1.256 . S
C70 O92 1.244 . S
O71 Zn67 2.055 . S
O71 C93 1.259 . S
O72 Zn64 2.046 . S
O72 C93 1.254 . S
N73 Zn67 2.036 . S
N73 C74 1.298 . S
N73 N76 1.398 1_554 S
C74 N73 1.298 . S
C74 N77 1.367 . S
C74 C87 1.481 . S
C75 N76 1.299 . S
C75 N77 1.379 1_556 S
N76 N73 1.398 1_556 S
N76 C75 1.299 . S
N77 C74 1.367 . S
N77 C75 1.379 1_554 S
C78 N80 1.298 1_556 S
C78 N82 1.367 . S
C78 C86 1.481 . S
C79 N81 1.299 . S
C79 N82 1.379 1_554 S
N80 Zn64 2.036 . S
N80 C78 1.298 1_554 S
N80 N81 1.398 . S
N81 C79 1.299 . S
N81 N80 1.398 . S
N82 C78 1.367 . S
N82 C79 1.379 1_556 S
H83 C86 0.980 . S
H84 C86 0.981 . S
H85 C86 0.981 . S
C86 C78 1.481 . S
C86 H83 0.980 . S
C86 H84 0.981 . S
C86 H85 0.981 . S
C87 C74 1.481 . S
C87 H88 0.980 . S
C87 H89 0.981 . S
C87 H90 0.981 . S
H88 C87 0.980 . S
H89 C87 0.981 . S
H90 C87 0.981 . S
O91 Zn67 2.066 . S
O91 C70 1.256 . S
O92 Zn64 2.053 . S
O92 C70 1.244 . S
C93 O71 1.259 . S
C93 O72 1.254 . S
O94 Zn64 2.066 1_556 S
O94 C66 1.256 . S
O95 C66 1.244 . S
O95 Zn67 2.053 1_556 S
Zn96 O97 2.055 . S
Zn96 O104 2.046 . S
Zn96 N112 2.036 . S
Zn96 O124 2.053 . S
Zn96 O126 2.066 . S
O97 Zn96 2.055 . S
O97 C100 1.259 . S
C98 O126 1.256 . S
C98 O127 1.244 . S
Zn99 O101 2.046 . S
Zn99 O103 2.055 . S
Zn99 N105 2.036 . S
Zn99 O123 2.066 . S
Zn99 O127 2.053 . S
C100 O97 1.259 . S
C100 O101 1.254 . S
O101 Zn99 2.046 . S
O101 C100 1.254 . S
C102 O123 1.256 . S
C102 O124 1.244 . S
O103 Zn99 2.055 . S
O103 C125 1.259 . S
O104 Zn96 2.046 . S
O104 C125 1.254 . S
N105 Zn99 2.036 . S
N105 C106 1.298 . S
N105 N108 1.398 . S
C106 N105 1.298 . S
C106 N109 1.367 . S
C106 C119 1.481 . S
C107 N108 1.299 . S
C107 N109 1.379 . S
N108 N105 1.398 . S
N108 C107 1.299 . S
N109 C106 1.367 . S
N109 C107 1.379 . S
C110 N112 1.298 . S
C110 N114 1.367 . S
C110 C118 1.481 . S
C111 N113 1.299 . S
C111 N114 1.379 . S
N112 Zn96 2.036 . S
N112 C110 1.298 . S
N112 N113 1.398 . S
N113 C111 1.299 . S
N113 N112 1.398 . S
N114 C110 1.367 . S
N114 C111 1.379 . S
H115 C118 0.980 . S
H116 C118 0.981 . S
H117 C118 0.981 . S
C118 C110 1.481 . S
C118 H115 0.980 . S
C118 H116 0.981 . S
C118 H117 0.981 . S
C119 C106 1.481 . S
C119 H120 0.980 . S
C119 H121 0.981 . S
C119 H122 0.981 . S
H120 C119 0.980 . S
H121 C119 0.981 . S
H122 C119 0.981 . S
O123 Zn99 2.066 . S
O123 C102 1.256 . S
O124 Zn96 2.053 . S
O124 C102 1.244 . S
C125 O103 1.259 . S
C125 O104 1.254 . S
O126 Zn96 2.066 . S
O126 C98 1.256 . S
O127 C98 1.244 . S
O127 Zn99 2.053 . S
Zn128 O129 2.055 . S
Zn128 O136 2.046 . S
Zn128 N144 2.036 . S
Zn128 O156 2.053 . S
Zn128 O158 2.066 . S
O129 Zn128 2.055 . S
O129 C132 1.259 . S
C130 O158 1.256 . S
C130 O159 1.244 . S
Zn131 O133 2.046 . S
Zn131 O135 2.055 . S
Zn131 N137 2.036 . S
Zn131 O155 2.066 . S
Zn131 O159 2.053 . S
C132 O129 1.259 . S
C132 O133 1.254 . S
O133 Zn131 2.046 . S
O133 C132 1.254 . S
C134 O155 1.256 . S
C134 O156 1.244 . S
O135 Zn131 2.055 . S
O135 C157 1.259 . S
O136 Zn128 2.046 . S
O136 C157 1.254 . S
N137 Zn131 2.036 . S
N137 C138 1.298 . S
N137 N140 1.398 . S
C138 N137 1.298 . S
C138 N141 1.367 . S
C138 C151 1.481 . S
C139 N140 1.299 . S
C139 N141 1.379 . S
N140 N137 1.398 . S
N140 C139 1.299 . S
N141 C138 1.367 . S
N141 C139 1.379 . S
C142 N144 1.298 . S
C142 N146 1.367 . S
C142 C150 1.481 . S
C143 N145 1.299 . S
C143 N146 1.379 . S
N144 Zn128 2.036 . S
N144 C142 1.298 . S
N144 N145 1.398 . S
N145 C143 1.299 . S
N145 N144 1.398 . S
N146 C142 1.367 . S
N146 C143 1.379 . S
H147 C150 0.980 . S
H148 C150 0.981 . S
H149 C150 0.981 . S
C150 C142 1.481 . S
C150 H147 0.980 . S
C150 H148 0.981 . S
C150 H149 0.981 . S
C151 C138 1.481 . S
C151 H152 0.980 . S
C151 H153 0.981 . S
C151 H154 0.981 . S
H152 C151 0.980 . S
H153 C151 0.981 . S
H154 C151 0.981 . S
O155 Zn131 2.066 . S
O155 C134 1.256 . S
O156 Zn128 2.053 . S
O156 C134 1.244 . S
C157 O135 1.259 . S
C157 O136 1.254 . S
O158 Zn128 2.066 . S
O158 C130 1.256 . S
O159 C130 1.244 . S
O159 Zn131 2.053 . S
Zn160 O161 2.055 . S
Zn160 O168 2.046 . S
Zn160 N176 2.036 . S
Zn160 O188 2.053 . S
Zn160 O190 2.066 . S
O161 Zn160 2.055 . S
O161 C164 1.259 . S
C162 O190 1.256 . S
C162 O191 1.244 . S
Zn163 O165 2.046 . S
Zn163 O167 2.055 . S
Zn163 N169 2.036 . S
Zn163 O187 2.066 . S
Zn163 O191 2.053 . S
C164 O161 1.259 . S
C164 O165 1.254 . S
O165 Zn163 2.046 . S
O165 C164 1.254 . S
C166 O187 1.256 . S
C166 O188 1.244 . S
O167 Zn163 2.055 . S
O167 C189 1.259 . S
O168 Zn160 2.046 . S
O168 C189 1.254 . S
N169 Zn163 2.036 . S
N169 C170 1.298 . S
N169 N172 1.398 . S
C170 N169 1.298 . S
C170 N173 1.367 . S
C170 C183 1.481 . S
C171 N172 1.299 . S
C171 N173 1.379 . S
N172 N169 1.398 . S
N172 C171 1.299 . S
N173 C170 1.367 . S
N173 C171 1.379 . S
C174 N176 1.298 . S
C174 N178 1.367 . S
C174 C182 1.481 . S
C175 N177 1.299 . S
C175 N178 1.379 . S
N176 Zn160 2.036 . S
N176 C174 1.298 . S
N176 N177 1.398 . S
N177 C175 1.299 . S
N177 N176 1.398 . S
N178 C174 1.367 . S
N178 C175 1.379 . S
H179 C182 0.980 . S
H180 C182 0.981 . S
H181 C182 0.981 . S
C182 C174 1.481 . S
C182 H179 0.980 . S
C182 H180 0.981 . S
C182 H181 0.981 . S
C183 C170 1.481 . S
C183 H184 0.980 . S
C183 H185 0.981 . S
C183 H186 0.981 . S
H184 C183 0.980 . S
H185 C183 0.981 . S
H186 C183 0.981 . S
O187 Zn163 2.066 . S
O187 C166 1.256 . S
O188 Zn160 2.053 . S
O188 C166 1.244 . S
C189 O167 1.259 . S
C189 O168 1.254 . S
O190 Zn160 2.066 . S
O190 C162 1.256 . S
O191 C162 1.244 . S
O191 Zn163 2.053 . S
Zn192 O193 2.055 . S
Zn192 O200 2.046 . S
Zn192 N208 2.036 . S
Zn192 O220 2.053 . S
Zn192 O222 2.066 . S
O193 Zn192 2.055 . S
O193 C196 1.259 . S
C194 O222 1.256 . S
C194 O223 1.244 . S
Zn195 O197 2.046 . S
Zn195 O199 2.055 . S
Zn195 N201 2.036 . S
Zn195 O219 2.066 . S
Zn195 O223 2.053 . S
C196 O193 1.259 . S
C196 O197 1.254 . S
O197 Zn195 2.046 . S
O197 C196 1.254 . S
C198 O219 1.256 . S
C198 O220 1.244 . S
O199 Zn195 2.055 . S
O199 C221 1.259 . S
O200 Zn192 2.046 . S
O200 C221 1.254 . S
N201 Zn195 2.036 . S
N201 C202 1.298 . S
N201 N204 1.398 . S
C202 N201 1.298 . S
C202 N205 1.367 . S
C202 C215 1.481 . S
C203 N204 1.299 . S
C203 N205 1.379 . S
N204 N201 1.398 . S
N204 C203 1.299 . S
N205 C202 1.367 . S
N205 C203 1.379 . S
C206 N208 1.298 . S
C206 N210 1.367 . S
C206 C214 1.481 . S
C207 N209 1.299 . S
C207 N210 1.379 . S
N208 Zn192 2.036 . S
N208 C206 1.298 . S
N208 N209 1.398 . S
N209 C207 1.299 . S
N209 N208 1.398 . S
N210 C206 1.367 . S
N210 C207 1.379 . S
H211 C214 0.980 . S
H212 C214 0.981 . S
H213 C214 0.981 . S
C214 C206 1.481 . S
C214 H211 0.980 . S
C214 H212 0.981 . S
C214 H213 0.981 . S
C215 C202 1.481 . S
C215 H216 0.980 . S
C215 H217 0.981 . S
C215 H218 0.981 . S
H216 C215 0.980 . S
H217 C215 0.981 . S
H218 C215 0.981 . S
O219 Zn195 2.066 . S
O219 C198 1.256 . S
O220 Zn192 2.053 . S
O220 C198 1.244 . S
C221 O199 1.259 . S
C221 O200 1.254 . S
O222 Zn192 2.066 . S
O222 C194 1.256 . S
O223 C194 1.244 . S
O223 Zn195 2.053 . S
Zn224 O225 2.055 . S
Zn224 O232 2.046 . S
Zn224 N240 2.036 . S
Zn224 O252 2.053 . S
Zn224 O254 2.066 . S
O225 Zn224 2.055 . S
O225 C228 1.259 . S
C226 O254 1.256 . S
C226 O255 1.244 . S
Zn227 O229 2.046 . S
Zn227 O231 2.055 . S
Zn227 N233 2.036 . S
Zn227 O251 2.066 . S
Zn227 O255 2.053 . S
C228 O225 1.259 . S
C228 O229 1.254 . S
O229 Zn227 2.046 . S
O229 C228 1.254 . S
C230 O251 1.256 . S
C230 O252 1.244 . S
O231 Zn227 2.055 . S
O231 C253 1.259 . S
O232 Zn224 2.046 . S
O232 C253 1.254 . S
N233 Zn227 2.036 . S
N233 C234 1.298 . S
N233 N236 1.398 . S
C234 N233 1.298 . S
C234 N237 1.367 . S
C234 C247 1.481 . S
C235 N236 1.299 . S
C235 N237 1.379 . S
N236 N233 1.398 . S
N236 C235 1.299 . S
N237 C234 1.367 . S
N237 C235 1.379 . S
C238 N240 1.298 . S
C238 N242 1.367 . S
C238 C246 1.481 . S
C239 N241 1.299 . S
C239 N242 1.379 . S
N240 Zn224 2.036 . S
N240 C238 1.298 . S
N240 N241 1.398 . S
N241 C239 1.299 . S
N241 N240 1.398 . S
N242 C238 1.367 . S
N242 C239 1.379 . S
H243 C246 0.980 . S
H244 C246 0.981 . S
H245 C246 0.981 . S
C246 C238 1.481 . S
C246 H243 0.980 . S
C246 H244 0.981 . S
C246 H245 0.981 . S
C247 C234 1.481 . S
C247 H248 0.980 . S
C247 H249 0.981 . S
C247 H250 0.981 . S
H248 C247 0.980 . S
H249 C247 0.981 . S
H250 C247 0.981 . S
O251 Zn227 2.066 . S
O251 C230 1.256 . S
O252 Zn224 2.053 . S
O252 C230 1.244 . S
C253 O231 1.259 . S
C253 O232 1.254 . S
O254 Zn224 2.066 . S
O254 C226 1.256 . S
O255 C226 1.244 . S
O255 Zn227 2.053 . S
Zn256 O257 2.055 . S
Zn256 O264 2.046 . S
Zn256 N272 2.036 . S
Zn256 O284 2.053 . S
Zn256 O286 2.066 . S
O257 Zn256 2.055 . S
O257 C260 1.259 . S
C258 O286 1.256 . S
C258 O287 1.244 . S
Zn259 O261 2.046 . S
Zn259 O263 2.055 . S
Zn259 N265 2.036 . S
Zn259 O283 2.066 . S
Zn259 O287 2.053 . S
C260 O257 1.259 . S
C260 O261 1.254 . S
O261 Zn259 2.046 . S
O261 C260 1.254 . S
C262 O283 1.256 . S
C262 O284 1.244 . S
O263 Zn259 2.055 . S
O263 C285 1.259 . S
O264 Zn256 2.046 . S
O264 C285 1.254 . S
N265 Zn259 2.036 . S
N265 C266 1.298 . S
N265 N268 1.398 . S
C266 N265 1.298 . S
C266 N269 1.367 . S
C266 C279 1.481 . S
C267 N268 1.299 . S
C267 N269 1.379 . S
N268 N265 1.398 . S
N268 C267 1.299 . S
N269 C266 1.367 . S
N269 C267 1.379 . S
C270 N272 1.298 . S
C270 N274 1.367 . S
C270 C278 1.481 . S
C271 N273 1.299 . S
C271 N274 1.379 . S
N272 Zn256 2.036 . S
N272 C270 1.298 . S
N272 N273 1.398 . S
N273 C271 1.299 . S
N273 N272 1.398 . S
N274 C270 1.367 . S
N274 C271 1.379 . S
H275 C278 0.980 . S
H276 C278 0.981 . S
H277 C278 0.981 . S
C278 C270 1.481 . S
C278 H275 0.980 . S
C278 H276 0.981 . S
C278 H277 0.981 . S
C279 C266 1.481 . S
C279 H280 0.980 . S
C279 H281 0.981 . S
C279 H282 0.981 . S
H280 C279 0.980 . S
H281 C279 0.981 . S
H282 C279 0.981 . S
O283 Zn259 2.066 . S
O283 C262 1.256 . S
O284 Zn256 2.053 . S
O284 C262 1.244 . S
C285 O263 1.259 . S
C285 O264 1.254 . S
O286 Zn256 2.066 . S
O286 C258 1.256 . S
O287 C258 1.244 . S
O287 Zn259 2.053 . S
Zn288 O289 2.055 . S
Zn288 O296 2.046 . S
Zn288 N304 2.036 . S
Zn288 O316 2.053 . S
Zn288 O318 2.066 . S
O289 Zn288 2.055 . S
O289 C292 1.259 . S
C290 O318 1.256 . S
C290 O319 1.244 . S
Zn291 O293 2.046 . S
Zn291 O295 2.055 . S
Zn291 N297 2.036 . S
Zn291 O315 2.066 . S
Zn291 O319 2.053 . S
C292 O289 1.259 . S
C292 O293 1.254 . S
O293 Zn291 2.046 . S
O293 C292 1.254 . S
C294 O315 1.256 . S
C294 O316 1.244 . S
O295 Zn291 2.055 . S
O295 C317 1.259 . S
O296 Zn288 2.046 . S
O296 C317 1.254 . S
N297 Zn291 2.036 . S
N297 C298 1.298 . S
N297 N300 1.398 . S
C298 N297 1.298 . S
C298 N301 1.367 . S
C298 C311 1.481 . S
C299 N300 1.299 . S
C299 N301 1.379 . S
N300 N297 1.398 . S
N300 C299 1.299 . S
N301 C298 1.367 . S
N301 C299 1.379 . S
C302 N304 1.298 . S
C302 N306 1.367 . S
C302 C310 1.481 . S
C303 N305 1.299 . S
C303 N306 1.379 . S
N304 Zn288 2.036 . S
N304 C302 1.298 . S
N304 N305 1.398 . S
N305 C303 1.299 . S
N305 N304 1.398 . S
N306 C302 1.367 . S
N306 C303 1.379 . S
H307 C310 0.980 . S
H308 C310 0.981 . S
H309 C310 0.981 . S
C310 C302 1.481 . S
C310 H307 0.980 . S
C310 H308 0.981 . S
C310 H309 0.981 . S
C311 C298 1.481 . S
C311 H312 0.980 . S
C311 H313 0.981 . S
C311 H314 0.981 . S
H312 C311 0.980 . S
H313 C311 0.981 . S
H314 C311 0.981 . S
O315 Zn291 2.066 . S
O315 C294 1.256 . S
O316 Zn288 2.053 . S
O316 C294 1.244 . S
C317 O295 1.259 . S
C317 O296 1.254 . S
O318 Zn288 2.066 . S
O318 C290 1.256 . S
O319 C290 1.244 . S
O319 Zn291 2.053 . S
Zn320 O321 2.055 . S
Zn320 O328 2.046 . S
Zn320 N336 2.036 . S
Zn320 O348 2.053 . S
Zn320 O350 2.066 . S
O321 Zn320 2.055 . S
O321 C324 1.259 . S
C322 O350 1.256 . S
C322 O351 1.244 . S
Zn323 O325 2.046 . S
Zn323 O327 2.055 . S
Zn323 N329 2.036 . S
Zn323 O347 2.066 . S
Zn323 O351 2.053 . S
C324 O321 1.259 . S
C324 O325 1.254 . S
O325 Zn323 2.046 . S
O325 C324 1.254 . S
C326 O347 1.256 . S
C326 O348 1.244 . S
O327 Zn323 2.055 . S
O327 C349 1.259 . S
O328 Zn320 2.046 . S
O328 C349 1.254 . S
N329 Zn323 2.036 . S
N329 C330 1.298 . S
N329 N332 1.398 . S
C330 N329 1.298 . S
C330 N333 1.367 . S
C330 C343 1.481 . S
C331 N332 1.299 . S
C331 N333 1.379 . S
N332 N329 1.398 . S
N332 C331 1.299 . S
N333 C330 1.367 . S
N333 C331 1.379 . S
C334 N336 1.298 . S
C334 N338 1.367 . S
C334 C342 1.481 . S
C335 N337 1.299 . S
C335 N338 1.379 . S
N336 Zn320 2.036 . S
N336 C334 1.298 . S
N336 N337 1.398 . S
N337 C335 1.299 . S
N337 N336 1.398 . S
N338 C334 1.367 . S
N338 C335 1.379 . S
H339 C342 0.980 . S
H340 C342 0.981 . S
H341 C342 0.981 . S
C342 C334 1.481 . S
C342 H339 0.980 . S
C342 H340 0.981 . S
C342 H341 0.981 . S
C343 C330 1.481 . S
C343 H344 0.980 . S
C343 H345 0.981 . S
C343 H346 0.981 . S
H344 C343 0.980 . S
H345 C343 0.981 . S
H346 C343 0.981 . S
O347 Zn323 2.066 . S
O347 C326 1.256 . S
O348 Zn320 2.053 . S
O348 C326 1.244 . S
C349 O327 1.259 . S
C349 O328 1.254 . S
O350 Zn320 2.066 . S
O350 C322 1.256 . S
O351 C322 1.244 . S
O351 Zn323 2.053 . S
Zn352 O353 2.055 . S
Zn352 O360 2.046 . S
Zn352 N368 2.036 . S
Zn352 O380 2.053 . S
Zn352 O382 2.066 . S
O353 Zn352 2.055 . S
O353 C356 1.259 . S
C354 O382 1.256 . S
C354 O383 1.244 . S
Zn355 O357 2.046 . S
Zn355 O359 2.055 . S
Zn355 N361 2.036 . S
Zn355 O379 2.066 . S
Zn355 O383 2.053 . S
C356 O353 1.259 . S
C356 O357 1.254 . S
O357 Zn355 2.046 . S
O357 C356 1.254 . S
C358 O379 1.256 . S
C358 O380 1.244 . S
O359 Zn355 2.055 . S
O359 C381 1.259 . S
O360 Zn352 2.046 . S
O360 C381 1.254 . S
N361 Zn355 2.036 . S
N361 C362 1.298 . S
N361 N364 1.398 . S
C362 N361 1.298 . S
C362 N365 1.367 . S
C362 C375 1.481 . S
C363 N364 1.299 . S
C363 N365 1.379 . S
N364 N361 1.398 . S
N364 C363 1.299 . S
N365 C362 1.367 . S
N365 C363 1.379 . S
C366 N368 1.298 . S
C366 N370 1.367 . S
C366 C374 1.481 . S
C367 N369 1.299 . S
C367 N370 1.379 . S
N368 Zn352 2.036 . S
N368 C366 1.298 . S
N368 N369 1.398 . S
N369 C367 1.299 . S
N369 N368 1.398 . S
N370 C366 1.367 . S
N370 C367 1.379 . S
H371 C374 0.980 . S
H372 C374 0.981 . S
H373 C374 0.981 . S
C374 C366 1.481 . S
C374 H371 0.980 . S
C374 H372 0.981 . S
C374 H373 0.981 . S
C375 C362 1.481 . S
C375 H376 0.980 . S
C375 H377 0.981 . S
C375 H378 0.981 . S
H376 C375 0.980 . S
H377 C375 0.981 . S
H378 C375 0.981 . S
O379 Zn355 2.066 . S
O379 C358 1.256 . S
O380 Zn352 2.053 . S
O380 C358 1.244 . S
C381 O359 1.259 . S
C381 O360 1.254 . S
O382 Zn352 2.066 . S
O382 C354 1.256 . S
O383 C354 1.244 . S
O383 Zn355 2.053 . S
Zn384 O385 2.055 . S
Zn384 O392 2.046 . S
Zn384 N400 2.036 . S
Zn384 O412 2.053 . S
Zn384 O414 2.066 . S
O385 Zn384 2.055 . S
O385 C388 1.259 . S
C386 O414 1.256 . S
C386 O415 1.244 . S
Zn387 O389 2.046 . S
Zn387 O391 2.055 . S
Zn387 N393 2.036 . S
Zn387 O411 2.066 . S
Zn387 O415 2.053 . S
C388 O385 1.259 . S
C388 O389 1.254 . S
O389 Zn387 2.046 . S
O389 C388 1.254 . S
C390 O411 1.256 . S
C390 O412 1.244 . S
O391 Zn387 2.055 . S
O391 C413 1.259 . S
O392 Zn384 2.046 . S
O392 C413 1.254 . S
N393 Zn387 2.036 . S
N393 C394 1.298 1_655 S
N393 N396 1.398 . S
C394 N393 1.298 1_455 S
C394 N397 1.367 . S
C394 C407 1.481 . S
C395 N396 1.299 1_455 S
C395 N397 1.379 . S
N396 N393 1.398 . S
N396 C395 1.299 1_655 S
N397 C394 1.367 . S
N397 C395 1.379 . S
C398 N400 1.298 . S
C398 N402 1.367 . S
C398 C406 1.481 . S
C399 N401 1.299 . S
C399 N402 1.379 . S
N400 Zn384 2.036 . S
N400 C398 1.298 . S
N400 N401 1.398 . S
N401 C399 1.299 . S
N401 N400 1.398 . S
N402 C398 1.367 . S
N402 C399 1.379 . S
H403 C406 0.980 . S
H404 C406 0.981 . S
H405 C406 0.981 . S
C406 C398 1.481 . S
C406 H403 0.980 . S
C406 H404 0.981 . S
C406 H405 0.981 . S
C407 C394 1.481 . S
C407 H408 0.980 1_455 S
C407 H409 0.981 . S
C407 H410 0.981 . S
H408 C407 0.980 1_655 S
H409 C407 0.981 . S
H410 C407 0.981 . S
O411 Zn387 2.066 . S
O411 C390 1.256 . S
O412 Zn384 2.053 . S
O412 C390 1.244 . S
C413 O391 1.259 . S
C413 O392 1.254 . S
O414 Zn384 2.066 . S
O414 C386 1.256 . S
O415 C386 1.244 . S
O415 Zn387 2.053 . S
Zn416 O417 2.055 . S
Zn416 O424 2.046 . S
Zn416 N432 2.036 . S
Zn416 O444 2.053 . S
Zn416 O446 2.066 . S
O417 Zn416 2.055 . S
O417 C420 1.259 . S
C418 O446 1.256 . S
C418 O447 1.244 . S
Zn419 O421 2.046 . S
Zn419 O423 2.055 . S
Zn419 N425 2.036 . S
Zn419 O443 2.066 . S
Zn419 O447 2.053 . S
C420 O417 1.259 . S
C420 O421 1.254 . S
O421 Zn419 2.046 . S
O421 C420 1.254 . S
C422 O443 1.256 . S
C422 O444 1.244 . S
O423 Zn419 2.055 . S
O423 C445 1.259 . S
O424 Zn416 2.046 . S
O424 C445 1.254 . S
N425 Zn419 2.036 . S
N425 C426 1.298 . S
N425 N428 1.398 . S
C426 N425 1.298 . S
C426 N429 1.367 . S
C426 C439 1.481 . S
C427 N428 1.299 . S
C427 N429 1.379 . S
N428 N425 1.398 . S
N428 C427 1.299 . S
N429 C426 1.367 . S
N429 C427 1.379 . S
C430 N432 1.298 . S
C430 N434 1.367 . S
C430 C438 1.481 . S
C431 N433 1.299 . S
C431 N434 1.379 . S
N432 Zn416 2.036 . S
N432 C430 1.298 . S
N432 N433 1.398 . S
N433 C431 1.299 . S
N433 N432 1.398 . S
N434 C430 1.367 . S
N434 C431 1.379 . S
H435 C438 0.980 . S
H436 C438 0.981 . S
H437 C438 0.981 . S
C438 C430 1.481 . S
C438 H435 0.980 . S
C438 H436 0.981 . S
C438 H437 0.981 . S
C439 C426 1.481 . S
C439 H440 0.980 . S
C439 H441 0.981 . S
C439 H442 0.981 . S
H440 C439 0.980 . S
H441 C439 0.981 . S
H442 C439 0.981 . S
O443 Zn419 2.066 . S
O443 C422 1.256 . S
O444 Zn416 2.053 . S
O444 C422 1.244 . S
C445 O423 1.259 . S
C445 O424 1.254 . S
O446 Zn416 2.066 . S
O446 C418 1.256 . S
O447 C418 1.244 . S
O447 Zn419 2.053 . S
Zn448 O449 2.055 . S
Zn448 O456 2.046 . S
Zn448 N464 2.036 . S
Zn448 O476 2.053 . S
Zn448 O478 2.066 . S
O449 Zn448 2.055 . S
O449 C452 1.259 . S
C450 O478 1.256 . S
C450 O479 1.244 . S
Zn451 O453 2.046 . S
Zn451 O455 2.055 . S
Zn451 N457 2.036 . S
Zn451 O475 2.066 . S
Zn451 O479 2.053 . S
C452 O449 1.259 . S
C452 O453 1.254 . S
O453 Zn451 2.046 . S
O453 C452 1.254 . S
C454 O475 1.256 . S
C454 O476 1.244 . S
O455 Zn451 2.055 . S
O455 C477 1.259 . S
O456 Zn448 2.046 . S
O456 C477 1.254 . S
N457 Zn451 2.036 . S
N457 C458 1.298 1_545 S
N457 N460 1.398 . S
C458 N457 1.298 1_565 S
C458 N461 1.367 . S
C458 C471 1.481 . S
C459 N460 1.299 1_565 S
C459 N461 1.379 . S
N460 N457 1.398 . S
N460 C459 1.299 1_545 S
N461 C458 1.367 . S
N461 C459 1.379 . S
C462 N464 1.298 . S
C462 N466 1.367 . S
C462 C470 1.481 . S
C463 N465 1.299 . S
C463 N466 1.379 . S
N464 Zn448 2.036 . S
N464 C462 1.298 . S
N464 N465 1.398 . S
N465 C463 1.299 . S
N465 N464 1.398 . S
N466 C462 1.367 . S
N466 C463 1.379 . S
H467 C470 0.980 . S
H468 C470 0.981 . S
H469 C470 0.981 . S
C470 C462 1.481 . S
C470 H467 0.980 . S
C470 H468 0.981 . S
C470 H469 0.981 . S
C471 C458 1.481 . S
C471 H472 0.980 1_565 S
C471 H473 0.981 . S
C471 H474 0.981 . S
H472 C471 0.980 1_545 S
H473 C471 0.981 . S
H474 C471 0.981 . S
O475 Zn451 2.066 . S
O475 C454 1.256 . S
O476 Zn448 2.053 . S
O476 C454 1.244 . S
C477 O455 1.259 . S
C477 O456 1.254 . S
O478 Zn448 2.066 . S
O478 C450 1.256 . S
O479 C450 1.244 . S
O479 Zn451 2.053 . S
Zn480 O481 2.055 . S
Zn480 O488 2.046 . S
Zn480 N496 2.036 . S
Zn480 O508 2.053 . S
Zn480 O510 2.066 . S
O481 Zn480 2.055 . S
O481 C484 1.259 . S
C482 O510 1.256 . S
C482 O511 1.244 . S
Zn483 O485 2.046 . S
Zn483 O487 2.055 . S
Zn483 N489 2.036 . S
Zn483 O507 2.066 . S
Zn483 O511 2.053 . S
C484 O481 1.259 . S
C484 O485 1.254 . S
O485 Zn483 2.046 . S
O485 C484 1.254 . S
C486 O507 1.256 . S
C486 O508 1.244 . S
O487 Zn483 2.055 . S
O487 C509 1.259 . S
O488 Zn480 2.046 . S
O488 C509 1.254 . S
N489 Zn483 2.036 . S
N489 C490 1.298 . S
N489 N492 1.398 . S
C490 N489 1.298 . S
C490 N493 1.367 . S
C490 C503 1.481 . S
C491 N492 1.299 . S
C491 N493 1.379 . S
N492 N489 1.398 . S
N492 C491 1.299 . S
N493 C490 1.367 . S
N493 C491 1.379 . S
C494 N496 1.298 1_565 S
C494 N498 1.367 . S
C494 C502 1.481 . S
C495 N497 1.299 1_565 S
C495 N498 1.379 . S
N496 Zn480 2.036 . S
N496 C494 1.298 1_545 S
N496 N497 1.398 . S
N497 C495 1.299 1_545 S
N497 N496 1.398 . S
N498 C494 1.367 . S
N498 C495 1.379 . S
H499 C502 0.980 1_545 S
H500 C502 0.981 . S
H501 C502 0.981 . S
C502 C494 1.481 . S
C502 H499 0.980 1_565 S
C502 H500 0.981 . S
C502 H501 0.981 . S
C503 C490 1.481 . S
C503 H504 0.980 . S
C503 H505 0.981 . S
C503 H506 0.981 . S
H504 C503 0.980 . S
H505 C503 0.981 . S
H506 C503 0.981 . S
O507 Zn483 2.066 . S
O507 C486 1.256 . S
O508 Zn480 2.053 . S
O508 C486 1.244 . S
C509 O487 1.259 . S
C509 O488 1.254 . S
O510 Zn480 2.066 . S
O510 C482 1.256 . S
O511 C482 1.244 . S
O511 Zn483 2.053 . S
Zn512 O513 2.055 . S
Zn512 O520 2.046 . S
Zn512 N528 2.036 . S
Zn512 O540 2.053 . S
Zn512 O542 2.066 . S
O513 Zn512 2.055 . S
O513 C516 1.259 . S
C514 O542 1.256 . S
C514 O543 1.244 . S
Zn515 O517 2.046 . S
Zn515 O519 2.055 . S
Zn515 N521 2.036 . S
Zn515 O539 2.066 . S
Zn515 O543 2.053 . S
C516 O513 1.259 . S
C516 O517 1.254 . S
O517 Zn515 2.046 . S
O517 C516 1.254 . S
C518 O539 1.256 . S
C518 O540 1.244 . S
O519 Zn515 2.055 . S
O519 C541 1.259 . S
O520 Zn512 2.046 . S
O520 C541 1.254 . S
N521 Zn515 2.036 . S
N521 C522 1.298 1_655 S
N521 N524 1.398 . S
C522 N521 1.298 1_455 S
C522 N525 1.367 . S
C522 C535 1.481 . S
C523 N524 1.299 1_455 S
C523 N525 1.379 . S
N524 N521 1.398 . S
N524 C523 1.299 1_655 S
N525 C522 1.367 . S
N525 C523 1.379 . S
C526 N528 1.298 . S
C526 N530 1.367 . S
C526 C534 1.481 . S
C527 N529 1.299 . S
C527 N530 1.379 . S
N528 Zn512 2.036 . S
N528 C526 1.298 . S
N528 N529 1.398 . S
N529 C527 1.299 . S
N529 N528 1.398 . S
N530 C526 1.367 . S
N530 C527 1.379 . S
H531 C534 0.980 . S
H532 C534 0.981 . S
H533 C534 0.981 . S
C534 C526 1.481 . S
C534 H531 0.980 . S
C534 H532 0.981 . S
C534 H533 0.981 . S
C535 C522 1.481 . S
C535 H536 0.980 1_455 S
C535 H537 0.981 . S
C535 H538 0.981 . S
H536 C535 0.980 1_655 S
H537 C535 0.981 . S
H538 C535 0.981 . S
O539 Zn515 2.066 . S
O539 C518 1.256 . S
O540 Zn512 2.053 . S
O540 C518 1.244 . S
C541 O519 1.259 . S
C541 O520 1.254 . S
O542 Zn512 2.066 . S
O542 C514 1.256 . S
O543 C514 1.244 . S
O543 Zn515 2.053 . S
Zn544 O545 2.055 . S
Zn544 O552 2.046 . S
Zn544 N560 2.036 . S
Zn544 O572 2.053 . S
Zn544 O574 2.066 . S
O545 Zn544 2.055 . S
O545 C548 1.259 . S
C546 O574 1.256 . S
C546 O575 1.244 . S
Zn547 O549 2.046 . S
Zn547 O551 2.055 . S
Zn547 N553 2.036 . S
Zn547 O571 2.066 . S
Zn547 O575 2.053 . S
C548 O545 1.259 . S
C548 O549 1.254 . S
O549 Zn547 2.046 . S
O549 C548 1.254 . S
C550 O571 1.256 . S
C550 O572 1.244 . S
O551 Zn547 2.055 . S
O551 C573 1.259 . S
O552 Zn544 2.046 . S
O552 C573 1.254 . S
N553 Zn547 2.036 . S
N553 C554 1.298 . S
N553 N556 1.398 . S
C554 N553 1.298 . S
C554 N557 1.367 . S
C554 C567 1.481 . S
C555 N556 1.299 . S
C555 N557 1.379 . S
N556 N553 1.398 . S
N556 C555 1.299 . S
N557 C554 1.367 . S
N557 C555 1.379 . S
C558 N560 1.298 . S
C558 N562 1.367 . S
C558 C566 1.481 . S
C559 N561 1.299 . S
C559 N562 1.379 . S
N560 Zn544 2.036 . S
N560 C558 1.298 . S
N560 N561 1.398 . S
N561 C559 1.299 . S
N561 N560 1.398 . S
N562 C558 1.367 . S
N562 C559 1.379 . S
H563 C566 0.980 . S
H564 C566 0.981 . S
H565 C566 0.981 . S
C566 C558 1.481 . S
C566 H563 0.980 . S
C566 H564 0.981 . S
C566 H565 0.981 . S
C567 C554 1.481 . S
C567 H568 0.980 . S
C567 H569 0.981 . S
C567 H570 0.981 . S
H568 C567 0.980 . S
H569 C567 0.981 . S
H570 C567 0.981 . S
O571 Zn547 2.066 . S
O571 C550 1.256 . S
O572 Zn544 2.053 . S
O572 C550 1.244 . S
C573 O551 1.259 . S
C573 O552 1.254 . S
O574 Zn544 2.066 . S
O574 C546 1.256 . S
O575 C546 1.244 . S
O575 Zn547 2.053 . S
H576 C584 0.950 . S
H577 C589 0.950 . S
H578 C586 0.950 . S
H579 C588 0.950 . S
H580 C590 0.950 . S
H581 C592 0.950 . S
H582 C594 0.950 . S
H583 C595 0.950 . S
C584 H576 0.950 . S
C584 C585 1.386 1_554 S
C584 C586 1.391 . S
C585 C584 1.386 1_556 S
C585 C589 1.393 . S
C586 H578 0.950 . S
C586 C584 1.391 . S
C586 C587 1.400 . S
C587 C586 1.400 . S
C587 C588 1.398 1_554 S
C587 C593 1.491 . S
C588 H579 0.950 . S
C588 C587 1.398 1_556 S
C588 C589 1.391 . S
C589 H577 0.950 . S
C589 C585 1.393 . S
C589 C588 1.391 . S
C590 H580 0.950 . S
C590 C591 1.386 1_556 S
C590 C592 1.391 . S
C591 C590 1.386 1_554 S
C591 C595 1.393 . S
C592 H581 0.950 . S
C592 C590 1.391 . S
C592 C593 1.400 1_556 S
C593 C587 1.491 . S
C593 C592 1.400 1_554 S
C593 C594 1.398 . S
C594 H582 0.950 . S
C594 C593 1.398 . S
C594 C595 1.391 . S
C595 H583 0.950 . S
C595 C591 1.393 . S
C595 C594 1.391 . S
H596 C604 0.950 . S
H597 C609 0.950 . S
H598 C606 0.950 . S
H599 C608 0.950 . S
H600 C610 0.950 . S
H601 C612 0.950 . S
H602 C614 0.950 . S
H603 C615 0.950 . S
C604 H596 0.950 . S
C604 C605 1.386 1_556 S
C604 C606 1.391 . S
C605 C604 1.386 1_554 S
C605 C609 1.393 . S
C606 H598 0.950 . S
C606 C604 1.391 . S
C606 C607 1.400 1_556 S
C607 C606 1.400 1_554 S
C607 C608 1.398 . S
C607 C613 1.491 . S
C608 H599 0.950 . S
C608 C607 1.398 . S
C608 C609 1.391 . S
C609 H597 0.950 . S
C609 C605 1.393 . S
C609 C608 1.391 . S
C610 H600 0.950 . S
C610 C611 1.386 1_554 S
C610 C612 1.391 . S
C611 C610 1.386 1_556 S
C611 C615 1.393 . S
C612 H601 0.950 . S
C612 C610 1.391 . S
C612 C613 1.400 . S
C613 C607 1.491 . S
C613 C612 1.400 . S
C613 C614 1.398 1_554 S
C614 H602 0.950 . S
C614 C613 1.398 1_556 S
C614 C615 1.391 . S
C615 H603 0.950 . S
C615 C611 1.393 . S
C615 C614 1.391 . S
H616 C624 0.950 . S
H617 C629 0.950 . S
H618 C626 0.950 . S
H619 C628 0.950 . S
H620 C630 0.950 . S
H621 C632 0.950 . S
H622 C634 0.950 . S
H623 C635 0.950 . S
C624 H616 0.950 . S
C624 C625 1.386 . S
C624 C626 1.391 . S
C625 C624 1.386 . S
C625 C629 1.393 1_556 S
C626 H618 0.950 . S
C626 C624 1.391 . S
C626 C627 1.400 1_556 S
C627 C626 1.400 1_554 S
C627 C628 1.398 . S
C627 C633 1.491 . S
C628 H619 0.950 . S
C628 C627 1.398 . S
C628 C629 1.391 . S
C629 H617 0.950 . S
C629 C625 1.393 1_554 S
C629 C628 1.391 . S
C630 H620 0.950 . S
C630 C631 1.386 . S
C630 C632 1.391 . S
C631 C630 1.386 . S
C631 C635 1.393 1_554 S
C632 H621 0.950 . S
C632 C630 1.391 . S
C632 C633 1.400 . S
C633 C627 1.491 . S
C633 C632 1.400 . S
C633 C634 1.398 1_554 S
C634 H622 0.950 . S
C634 C633 1.398 1_556 S
C634 C635 1.391 . S
C635 H623 0.950 . S
C635 C631 1.393 1_556 S
C635 C634 1.391 . S
H636 C644 0.950 . S
H637 C649 0.950 . S
H638 C646 0.950 . S
H639 C648 0.950 . S
H640 C650 0.950 . S
H641 C652 0.950 . S
H642 C654 0.950 . S
H643 C655 0.950 . S
C644 H636 0.950 . S
C644 C645 1.386 . S
C644 C646 1.391 . S
C645 C644 1.386 . S
C645 C649 1.393 . S
C646 H638 0.950 . S
C646 C644 1.391 . S
C646 C647 1.400 . S
C647 C646 1.400 . S
C647 C648 1.398 . S
C647 C653 1.491 . S
C648 H639 0.950 . S
C648 C647 1.398 . S
C648 C649 1.391 . S
C649 H637 0.950 . S
C649 C645 1.393 . S
C649 C648 1.391 . S
C650 H640 0.950 . S
C650 C651 1.386 . S
C650 C652 1.391 . S
C651 C650 1.386 . S
C651 C655 1.393 . S
C652 H641 0.950 . S
C652 C650 1.391 . S
C652 C653 1.400 . S
C653 C647 1.491 . S
C653 C652 1.400 . S
C653 C654 1.398 . S
C654 H642 0.950 . S
C654 C653 1.398 . S
C654 C655 1.391 . S
C655 H643 0.950 . S
C655 C651 1.393 . S
C655 C654 1.391 . S
H656 C664 0.950 . S
H657 C669 0.950 . S
H658 C666 0.950 . S
H659 C668 0.950 . S
H660 C670 0.950 . S
H661 C672 0.950 . S
H662 C674 0.950 . S
H663 C675 0.950 . S
C664 H656 0.950 . S
C664 C665 1.386 . S
C664 C666 1.391 . S
C665 C664 1.386 . S
C665 C669 1.393 . S
C666 H658 0.950 . S
C666 C664 1.391 . S
C666 C667 1.400 . S
C667 C666 1.400 . S
C667 C668 1.398 . S
C667 C673 1.491 . S
C668 H659 0.950 . S
C668 C667 1.398 . S
C668 C669 1.391 . S
C669 H657 0.950 . S
C669 C665 1.393 . S
C669 C668 1.391 . S
C670 H660 0.950 . S
C670 C671 1.386 . S
C670 C672 1.391 . S
C671 C670 1.386 . S
C671 C675 1.393 . S
C672 H661 0.950 . S
C672 C670 1.391 . S
C672 C673 1.400 . S
C673 C667 1.491 . S
C673 C672 1.400 . S
C673 C674 1.398 . S
C674 H662 0.950 . S
C674 C673 1.398 . S
C674 C675 1.391 . S
C675 H663 0.950 . S
C675 C671 1.393 . S
C675 C674 1.391 . S
H676 C684 0.950 . S
H677 C689 0.950 . S
H678 C686 0.950 . S
H679 C688 0.950 . S
H680 C690 0.950 . S
H681 C692 0.950 . S
H682 C694 0.950 . S
H683 C695 0.950 . S
C684 H676 0.950 . S
C684 C685 1.386 . S
C684 C686 1.391 . S
C685 C684 1.386 . S
C685 C689 1.393 . S
C686 H678 0.950 . S
C686 C684 1.391 . S
C686 C687 1.400 . S
C687 C686 1.400 . S
C687 C688 1.398 . S
C687 C693 1.491 . S
C688 H679 0.950 . S
C688 C687 1.398 . S
C688 C689 1.391 . S
C689 H677 0.950 . S
C689 C685 1.393 . S
C689 C688 1.391 . S
C690 H680 0.950 . S
C690 C691 1.386 . S
C690 C692 1.391 . S
C691 C690 1.386 . S
C691 C695 1.393 . S
C692 H681 0.950 . S
C692 C690 1.391 . S
C692 C693 1.400 . S
C693 C687 1.491 . S
C693 C692 1.400 . S
C693 C694 1.398 . S
C694 H682 0.950 . S
C694 C693 1.398 . S
C694 C695 1.391 . S
C695 H683 0.950 . S
C695 C691 1.393 . S
C695 C694 1.391 . S
H696 C704 0.950 . S
H697 C709 0.950 . S
H698 C706 0.950 . S
H699 C708 0.950 . S
H700 C710 0.950 . S
H701 C712 0.950 . S
H702 C714 0.950 . S
H703 C715 0.950 . S
C704 H696 0.950 . S
C704 C705 1.386 . S
C704 C706 1.391 . S
C705 C704 1.386 . S
C705 C709 1.393 . S
C706 H698 0.950 . S
C706 C704 1.391 . S
C706 C707 1.400 . S
C707 C706 1.400 . S
C707 C708 1.398 . S
C707 C713 1.491 . S
C708 H699 0.950 . S
C708 C707 1.398 . S
C708 C709 1.391 . S
C709 H697 0.950 . S
C709 C705 1.393 . S
C709 C708 1.391 . S
C710 H700 0.950 . S
C710 C711 1.386 . S
C710 C712 1.391 . S
C711 C710 1.386 . S
C711 C715 1.393 . S
C712 H701 0.950 . S
C712 C710 1.391 . S
C712 C713 1.400 . S
C713 C707 1.491 . S
C713 C712 1.400 . S
C713 C714 1.398 . S
C714 H702 0.950 . S
C714 C713 1.398 . S
C714 C715 1.391 . S
C715 H703 0.950 . S
C715 C711 1.393 . S
C715 C714 1.391 . S
H716 C724 0.950 . S
H717 C729 0.950 . S
H718 C726 0.950 . S
H719 C728 0.950 . S
H720 C730 0.950 . S
H721 C732 0.950 . S
H722 C734 0.950 . S
H723 C735 0.950 . S
C724 H716 0.950 . S
C724 C725 1.386 . S
C724 C726 1.391 . S
C725 C724 1.386 . S
C725 C729 1.393 . S
C726 H718 0.950 . S
C726 C724 1.391 . S
C726 C727 1.400 . S
C727 C726 1.400 . S
C727 C728 1.398 . S
C727 C733 1.491 . S
C728 H719 0.950 . S
C728 C727 1.398 . S
C728 C729 1.391 . S
C729 H717 0.950 . S
C729 C725 1.393 . S
C729 C728 1.391 . S
C730 H720 0.950 . S
C730 C731 1.386 . S
C730 C732 1.391 . S
C731 C730 1.386 . S
C731 C735 1.393 . S
C732 H721 0.950 . S
C732 C730 1.391 . S
C732 C733 1.400 . S
C733 C727 1.491 . S
C733 C732 1.400 . S
C733 C734 1.398 . S
C734 H722 0.950 . S
C734 C733 1.398 . S
C734 C735 1.391 . S
C735 H723 0.950 . S
C735 C731 1.393 . S
C735 C734 1.391 . S
H736 C744 0.950 . S
H737 C749 0.950 . S
H738 C746 0.950 . S
H739 C748 0.950 . S
H740 C750 0.950 . S
H741 C752 0.950 . S
H742 C754 0.950 . S
H743 C755 0.950 . S
C744 H736 0.950 . S
C744 C745 1.386 . S
C744 C746 1.391 . S
C745 C744 1.386 . S
C745 C749 1.393 . S
C746 H738 0.950 . S
C746 C744 1.391 . S
C746 C747 1.400 . S
C747 C746 1.400 . S
C747 C748 1.398 . S
C747 C753 1.491 . S
C748 H739 0.950 . S
C748 C747 1.398 . S
C748 C749 1.391 . S
C749 H737 0.950 . S
C749 C745 1.393 . S
C749 C748 1.391 . S
C750 H740 0.950 . S
C750 C751 1.386 . S
C750 C752 1.391 . S
C751 C750 1.386 . S
C751 C755 1.393 . S
C752 H741 0.950 . S
C752 C750 1.391 . S
C752 C753 1.400 . S
C753 C747 1.491 . S
C753 C752 1.400 . S
C753 C754 1.398 . S
C754 H742 0.950 . S
C754 C753 1.398 . S
C754 C755 1.391 . S
C755 H743 0.950 . S
C755 C751 1.393 . S
C755 C754 1.391 . S
H756 C764 0.950 . S
H757 C769 0.950 . S
H758 C766 0.950 . S
H759 C768 0.950 . S
H760 C770 0.950 . S
H761 C772 0.950 . S
H762 C774 0.950 . S
H763 C775 0.950 . S
C764 H756 0.950 . S
C764 C765 1.386 . S
C764 C766 1.391 . S
C765 C764 1.386 . S
C765 C769 1.393 . S
C766 H758 0.950 . S
C766 C764 1.391 . S
C766 C767 1.400 . S
C767 C766 1.400 . S
C767 C768 1.398 . S
C767 C773 1.491 . S
C768 H759 0.950 . S
C768 C767 1.398 . S
C768 C769 1.391 . S
C769 H757 0.950 . S
C769 C765 1.393 . S
C769 C768 1.391 . S
C770 H760 0.950 . S
C770 C771 1.386 . S
C770 C772 1.391 . S
C771 C770 1.386 . S
C771 C775 1.393 . S
C772 H761 0.950 . S
C772 C770 1.391 . S
C772 C773 1.400 . S
C773 C767 1.491 . S
C773 C772 1.400 . S
C773 C774 1.398 . S
C774 H762 0.950 . S
C774 C773 1.398 . S
C774 C775 1.391 . S
C775 H763 0.950 . S
C775 C771 1.393 . S
C775 C774 1.391 . S
H776 C784 0.950 . S
H777 C789 0.950 . S
H778 C786 0.950 . S
H779 C788 0.950 . S
H780 C790 0.950 . S
H781 C792 0.950 . S
H782 C794 0.950 . S
H783 C795 0.950 . S
C784 H776 0.950 . S
C784 C785 1.386 . S
C784 C786 1.391 . S
C785 C784 1.386 . S
C785 C789 1.393 . S
C786 H778 0.950 . S
C786 C784 1.391 . S
C786 C787 1.400 . S
C787 C786 1.400 . S
C787 C788 1.398 . S
C787 C793 1.491 . S
C788 H779 0.950 . S
C788 C787 1.398 . S
C788 C789 1.391 . S
C789 H777 0.950 . S
C789 C785 1.393 . S
C789 C788 1.391 . S
C790 H780 0.950 . S
C790 C791 1.386 . S
C790 C792 1.391 . S
C791 C790 1.386 . S
C791 C795 1.393 . S
C792 H781 0.950 . S
C792 C790 1.391 . S
C792 C793 1.400 . S
C793 C787 1.491 . S
C793 C792 1.400 . S
C793 C794 1.398 . S
C794 H782 0.950 . S
C794 C793 1.398 . S
C794 C795 1.391 . S
C795 H783 0.950 . S
C795 C791 1.393 . S
C795 C794 1.391 . S
H796 C804 0.950 . S
H797 C809 0.950 . S
H798 C806 0.950 . S
H799 C808 0.950 . S
H800 C810 0.950 . S
H801 C812 0.950 . S
H802 C814 0.950 . S
H803 C815 0.950 . S
C804 H796 0.950 . S
C804 C805 1.386 . S
C804 C806 1.391 . S
C805 C804 1.386 . S
C805 C809 1.393 . S
C806 H798 0.950 . S
C806 C804 1.391 . S
C806 C807 1.400 . S
C807 C806 1.400 . S
C807 C808 1.398 . S
C807 C813 1.491 . S
C808 H799 0.950 . S
C808 C807 1.398 . S
C808 C809 1.391 . S
C809 H797 0.950 . S
C809 C805 1.393 . S
C809 C808 1.391 . S
C810 H800 0.950 . S
C810 C811 1.386 . S
C810 C812 1.391 . S
C811 C810 1.386 . S
C811 C815 1.393 . S
C812 H801 0.950 . S
C812 C810 1.391 . S
C812 C813 1.400 . S
C813 C807 1.491 . S
C813 C812 1.400 . S
C813 C814 1.398 . S
C814 H802 0.950 . S
C814 C813 1.398 . S
C814 C815 1.391 . S
C815 H803 0.950 . S
C815 C811 1.393 . S
C815 C814 1.391 . S
H816 C824 0.950 . S
H817 C829 0.950 . S
H818 C826 0.950 . S
H819 C828 0.950 . S
H820 C830 0.950 . S
H821 C832 0.950 . S
H822 C834 0.950 . S
H823 C835 0.950 . S
C824 H816 0.950 . S
C824 C825 1.386 . S
C824 C826 1.391 . S
C825 C824 1.386 . S
C825 C829 1.393 . S
C826 H818 0.950 . S
C826 C824 1.391 . S
C826 C827 1.400 . S
C827 C826 1.400 . S
C827 C828 1.398 . S
C827 C833 1.491 . S
C828 H819 0.950 . S
C828 C827 1.398 . S
C828 C829 1.391 . S
C829 H817 0.950 . S
C829 C825 1.393 . S
C829 C828 1.391 . S
C830 H820 0.950 . S
C830 C831 1.386 . S
C830 C832 1.391 . S
C831 C830 1.386 . S
C831 C835 1.393 . S
C832 H821 0.950 . S
C832 C830 1.391 . S
C832 C833 1.400 . S
C833 C827 1.491 . S
C833 C832 1.400 . S
C833 C834 1.398 . S
C834 H822 0.950 . S
C834 C833 1.398 . S
C834 C835 1.391 . S
C835 H823 0.950 . S
C835 C831 1.393 . S
C835 C834 1.391 . S
H836 C844 0.950 . S
H837 C849 0.950 . S
H838 C846 0.950 . S
H839 C848 0.950 1_565 S
H840 C850 0.950 . S
H841 C852 0.950 . S
H842 C854 0.950 . S
H843 C855 0.950 . S
C844 H836 0.950 . S
C844 C845 1.386 . S
C844 C846 1.391 . S
C845 C844 1.386 . S
C845 C849 1.393 . S
C846 H838 0.950 . S
C846 C844 1.391 . S
C846 C847 1.400 . S
C847 C846 1.400 . S
C847 C848 1.398 . S
C847 C853 1.491 1_545 S
C848 H839 0.950 1_545 S
C848 C847 1.398 . S
C848 C849 1.391 . S
C849 H837 0.950 . S
C849 C845 1.393 . S
C849 C848 1.391 . S
C850 H840 0.950 . S
C850 C851 1.386 . S
C850 C852 1.391 . S
C851 C850 1.386 . S
C851 C855 1.393 . S
C852 H841 0.950 . S
C852 C850 1.391 . S
C852 C853 1.400 . S
C853 C847 1.491 1_565 S
C853 C852 1.400 . S
C853 C854 1.398 . S
C854 H842 0.950 . S
C854 C853 1.398 . S
C854 C855 1.391 . S
C855 H843 0.950 . S
C855 C851 1.393 . S
C855 C854 1.391 . S
H856 C864 0.950 . S
H857 C869 0.950 . S
H858 C866 0.950 . S
H859 C868 0.950 1_455 S
H860 C870 0.950 . S
H861 C872 0.950 . S
H862 C874 0.950 . S
H863 C875 0.950 . S
C864 H856 0.950 . S
C864 C865 1.386 . S
C864 C866 1.391 . S
C865 C864 1.386 . S
C865 C869 1.393 . S
C866 H858 0.950 . S
C866 C864 1.391 . S
C866 C867 1.400 . S
C867 C866 1.400 . S
C867 C868 1.398 . S
C867 C873 1.491 1_655 S
C868 H859 0.950 1_655 S
C868 C867 1.398 . S
C868 C869 1.391 . S
C869 H857 0.950 . S
C869 C865 1.393 . S
C869 C868 1.391 . S
C870 H860 0.950 . S
C870 C871 1.386 . S
C870 C872 1.391 . S
C871 C870 1.386 . S
C871 C875 1.393 . S
C872 H861 0.950 . S
C872 C870 1.391 . S
C872 C873 1.400 . S
C873 C867 1.491 1_455 S
C873 C872 1.400 . S
C873 C874 1.398 . S
C874 H862 0.950 . S
C874 C873 1.398 . S
C874 C875 1.391 . S
C875 H863 0.950 . S
C875 C871 1.393 . S
C875 C874 1.391 . S
H876 C884 0.950 . S
H877 C889 0.950 . S
H878 C886 0.950 . S
H879 C888 0.950 . S
H880 C890 0.950 . S
H881 C892 0.950 . S
H882 C894 0.950 . S
H883 C895 0.950 . S
C884 H876 0.950 . S
C884 C885 1.386 . S
C884 C886 1.391 . S
C885 C884 1.386 . S
C885 C889 1.393 . S
C886 H878 0.950 . S
C886 C884 1.391 . S
C886 C887 1.400 . S
C887 C886 1.400 . S
C887 C888 1.398 . S
C887 C893 1.491 . S
C888 H879 0.950 . S
C888 C887 1.398 . S
C888 C889 1.391 . S
C889 H877 0.950 . S
C889 C885 1.393 . S
C889 C888 1.391 . S
C890 H880 0.950 . S
C890 C891 1.386 . S
C890 C892 1.391 . S
C891 C890 1.386 . S
C891 C895 1.393 . S
C892 H881 0.950 . S
C892 C890 1.391 . S
C892 C893 1.400 . S
C893 C887 1.491 . S
C893 C892 1.400 . S
C893 C894 1.398 . S
C894 H882 0.950 . S
C894 C893 1.398 . S
C894 C895 1.391 . S
C895 H883 0.950 . S
C895 C891 1.393 . S
C895 C894 1.391 . S
H896 C904 0.950 . S
H897 C909 0.950 . S
H898 C906 0.950 . S
H899 C908 0.950 . S
H900 C910 0.950 . S
H901 C912 0.950 . S
H902 C914 0.950 1_565 S
H903 C915 0.950 . S
C904 H896 0.950 . S
C904 C905 1.386 . S
C904 C906 1.391 . S
C905 C904 1.386 . S
C905 C909 1.393 . S
C906 H898 0.950 . S
C906 C904 1.391 . S
C906 C907 1.400 . S
C907 C906 1.400 . S
C907 C908 1.398 . S
C907 C913 1.491 1_565 S
C908 H899 0.950 . S
C908 C907 1.398 . S
C908 C909 1.391 . S
C909 H897 0.950 . S
C909 C905 1.393 . S
C909 C908 1.391 . S
C910 H900 0.950 . S
C910 C911 1.386 . S
C910 C912 1.391 . S
C911 C910 1.386 . S
C911 C915 1.393 . S
C912 H901 0.950 . S
C912 C910 1.391 . S
C912 C913 1.400 . S
C913 C907 1.491 1_545 S
C913 C912 1.400 . S
C913 C914 1.398 . S
C914 H902 0.950 1_545 S
C914 C913 1.398 . S
C914 C915 1.391 . S
C915 H903 0.950 . S
C915 C911 1.393 . S
C915 C914 1.391 . S
H916 C924 0.950 . S
H917 C929 0.950 . S
H918 C926 0.950 . S
H919 C928 0.950 . S
H920 C930 0.950 . S
H921 C932 0.950 . S
H922 C934 0.950 1_455 S
H923 C935 0.950 . S
C924 H916 0.950 . S
C924 C925 1.386 . S
C924 C926 1.391 . S
C925 C924 1.386 . S
C925 C929 1.393 . S
C926 H918 0.950 . S
C926 C924 1.391 . S
C926 C927 1.400 . S
C927 C926 1.400 . S
C927 C928 1.398 . S
C927 C933 1.491 1_455 S
C928 H919 0.950 . S
C928 C927 1.398 . S
C928 C929 1.391 . S
C929 H917 0.950 . S
C929 C925 1.393 . S
C929 C928 1.391 . S
C930 H920 0.950 . S
C930 C931 1.386 . S
C930 C932 1.391 . S
C931 C930 1.386 . S
C931 C935 1.393 . S
C932 H921 0.950 . S
C932 C930 1.391 . S
C932 C933 1.400 . S
C933 C927 1.491 1_655 S
C933 C932 1.400 . S
C933 C934 1.398 . S
C934 H922 0.950 1_655 S
C934 C933 1.398 . S
C934 C935 1.391 . S
C935 H923 0.950 . S
C935 C931 1.393 . S
C935 C934 1.391 . S
H936 C944 0.950 . S
H937 C949 0.950 . S
H938 C946 0.950 . S
H939 C948 0.950 . S
H940 C950 0.950 . S
H941 C952 0.950 . S
H942 C954 0.950 . S
H943 C955 0.950 . S
C944 H936 0.950 . S
C944 C945 1.386 . S
C944 C946 1.391 . S
C945 C944 1.386 . S
C945 C949 1.393 . S
C946 H938 0.950 . S
C946 C944 1.391 . S
C946 C947 1.400 . S
C947 C946 1.400 . S
C947 C948 1.398 . S
C947 C953 1.491 . S
C948 H939 0.950 . S
C948 C947 1.398 . S
C948 C949 1.391 . S
C949 H937 0.950 . S
C949 C945 1.393 . S
C949 C948 1.391 . S
C950 H940 0.950 . S
C950 C951 1.386 . S
C950 C952 1.391 . S
C951 C950 1.386 . S
C951 C955 1.393 . S
C952 H941 0.950 . S
C952 C950 1.391 . S
C952 C953 1.400 . S
C953 C947 1.491 . S
C953 C952 1.400 . S
C953 C954 1.398 . S
C954 H942 0.950 . S
C954 C953 1.398 . S
C954 C955 1.391 . S
C955 H943 0.950 . S
C955 C951 1.393 . S
C955 C954 1.391 . S
H956 C964 0.950 . S
H957 C969 0.950 . S
H958 C966 0.950 . S
H959 C968 0.950 . S
H960 C970 0.950 . S
H961 C972 0.950 . S
H962 C974 0.950 . S
H963 C975 0.950 . S
C964 H956 0.950 . S
C964 C965 1.386 . S
C964 C966 1.391 . S
C965 C964 1.386 . S
C965 C969 1.393 . S
C966 H958 0.950 . S
C966 C964 1.391 . S
C966 C967 1.400 . S
C967 C966 1.400 . S
C967 C968 1.398 . S
C967 C973 1.491 . S
C968 H959 0.950 . S
C968 C967 1.398 . S
C968 C969 1.391 . S
C969 H957 0.950 . S
C969 C965 1.393 . S
C969 C968 1.391 . S
C970 H960 0.950 . S
C970 C971 1.386 . S
C970 C972 1.391 . S
C971 C970 1.386 . S
C971 C975 1.393 . S
C972 H961 0.950 . S
C972 C970 1.391 . S
C972 C973 1.400 . S
C973 C967 1.491 . S
C973 C972 1.400 . S
C973 C974 1.398 . S
C974 H962 0.950 . S
C974 C973 1.398 . S
C974 C975 1.391 . S
C975 H963 0.950 . S
C975 C971 1.393 . S
C975 C974 1.391 . S
H976 C984 0.950 . S
H977 C989 0.950 . S
H978 C986 0.950 . S
H979 C988 0.950 . S
H980 C990 0.950 . S
H981 C992 0.950 . S
H982 C994 0.950 . S
H983 C995 0.950 . S
C984 H976 0.950 . S
C984 C985 1.386 . S
C984 C986 1.391 . S
C985 C984 1.386 . S
C985 C989 1.393 . S
C986 H978 0.950 . S
C986 C984 1.391 . S
C986 C987 1.400 . S
C987 C986 1.400 . S
C987 C988 1.398 . S
C987 C993 1.491 . S
C988 H979 0.950 . S
C988 C987 1.398 . S
C988 C989 1.391 . S
C989 H977 0.950 . S
C989 C985 1.393 . S
C989 C988 1.391 . S
C990 H980 0.950 . S
C990 C991 1.386 . S
C990 C992 1.391 . S
C991 C990 1.386 . S
C991 C995 1.393 . S
C992 H981 0.950 . S
C992 C990 1.391 . S
C992 C993 1.400 . S
C993 C987 1.491 . S
C993 C992 1.400 . S
C993 C994 1.398 . S
C994 H982 0.950 . S
C994 C993 1.398 . S
C994 C995 1.391 . S
C995 H983 0.950 . S
C995 C991 1.393 . S
C995 C994 1.391 . S
H996 C1004 0.950 . S
H997 C1009 0.950 . S
H998 C1006 0.950 . S
H999 C1008 0.950 . S
H1000 C1010 0.950 . S
H1001 C1012 0.950 . S
H1002 C1014 0.950 . S
H1003 C1015 0.950 . S
C1004 H996 0.950 . S
C1004 C1005 1.386 . S
C1004 C1006 1.391 . S
C1005 C1004 1.386 . S
C1005 C1009 1.393 . S
C1006 H998 0.950 . S
C1006 C1004 1.391 . S
C1006 C1007 1.400 . S
C1007 C1006 1.400 . S
C1007 C1008 1.398 . S
C1007 C1013 1.491 . S
C1008 H999 0.950 . S
C1008 C1007 1.398 . S
C1008 C1009 1.391 . S
C1009 H997 0.950 . S
C1009 C1005 1.393 . S
C1009 C1008 1.391 . S
C1010 H1000 0.950 . S
C1010 C1011 1.386 . S
C1010 C1012 1.391 . S
C1011 C1010 1.386 . S
C1011 C1015 1.393 . S
C1012 H1001 0.950 . S
C1012 C1010 1.391 . S
C1012 C1013 1.400 . S
C1013 C1007 1.491 . S
C1013 C1012 1.400 . S
C1013 C1014 1.398 . S
C1014 H1002 0.950 . S
C1014 C1013 1.398 . S
C1014 C1015 1.391 . S
C1015 H1003 0.950 . S
C1015 C1011 1.393 . S
C1015 C1014 1.391 . S
H1016 C1024 0.950 . S
H1017 C1029 0.950 . S
H1018 C1026 0.950 . S
H1019 C1028 0.950 . S
H1020 C1030 0.950 . S
H1021 C1032 0.950 . S
H1022 C1034 0.950 . S
H1023 C1035 0.950 . S
C1024 H1016 0.950 . S
C1024 C1025 1.386 . S
C1024 C1026 1.391 . S
C1025 C1024 1.386 . S
C1025 C1029 1.393 . S
C1026 H1018 0.950 . S
C1026 C1024 1.391 . S
C1026 C1027 1.400 . S
C1027 C1026 1.400 . S
C1027 C1028 1.398 . S
C1027 C1033 1.491 . S
C1028 H1019 0.950 . S
C1028 C1027 1.398 . S
C1028 C1029 1.391 . S
C1029 H1017 0.950 . S
C1029 C1025 1.393 . S
C1029 C1028 1.391 . S
C1030 H1020 0.950 . S
C1030 C1031 1.386 . S
C1030 C1032 1.391 . S
C1031 C1030 1.386 . S
C1031 C1035 1.393 . S
C1032 H1021 0.950 . S
C1032 C1030 1.391 . S
C1032 C1033 1.400 . S
C1033 C1027 1.491 . S
C1033 C1032 1.400 . S
C1033 C1034 1.398 . S
C1034 H1022 0.950 . S
C1034 C1033 1.398 . S
C1034 C1035 1.391 . S
C1035 H1023 0.950 . S
C1035 C1031 1.393 . S
C1035 C1034 1.391 . S
H1036 C1044 0.950 . S
H1037 C1049 0.950 . S
H1038 C1046 0.950 . S
H1039 C1048 0.950 . S
H1040 C1050 0.950 . S
H1041 C1052 0.950 . S
H1042 C1054 0.950 . S
H1043 C1055 0.950 . S
C1044 H1036 0.950 . S
C1044 C1045 1.386 . S
C1044 C1046 1.391 . S
C1045 C1044 1.386 . S
C1045 C1049 1.393 . S
C1046 H1038 0.950 . S
C1046 C1044 1.391 . S
C1046 C1047 1.400 . S
C1047 C1046 1.400 . S
C1047 C1048 1.398 . S
C1047 C1053 1.491 . S
C1048 H1039 0.950 . S
C1048 C1047 1.398 . S
C1048 C1049 1.391 . S
C1049 H1037 0.950 . S
C1049 C1045 1.393 . S
C1049 C1048 1.391 . S
C1050 H1040 0.950 . S
C1050 C1051 1.386 . S
C1050 C1052 1.391 . S
C1051 C1050 1.386 . S
C1051 C1055 1.393 . S
C1052 H1041 0.950 . S
C1052 C1050 1.391 . S
C1052 C1053 1.400 . S
C1053 C1047 1.491 . S
C1053 C1052 1.400 . S
C1053 C1054 1.398 . S
C1054 H1042 0.950 . S
C1054 C1053 1.398 . S
C1054 C1055 1.391 . S
C1055 H1043 0.950 . S
C1055 C1051 1.393 . S
C1055 C1054 1.391 . S
H1056 C1064 0.950 . S
H1057 C1069 0.950 . S
H1058 C1066 0.950 . S
H1059 C1068 0.950 . S
H1060 C1070 0.950 . S
H1061 C1072 0.950 . S
H1062 C1074 0.950 . S
H1063 C1075 0.950 . S
C1064 H1056 0.950 . S
C1064 C1065 1.386 . S
C1064 C1066 1.391 . S
C1065 C1064 1.386 . S
C1065 C1069 1.393 . S
C1066 H1058 0.950 . S
C1066 C1064 1.391 . S
C1066 C1067 1.400 . S
C1067 C1066 1.400 . S
C1067 C1068 1.398 . S
C1067 C1073 1.491 . S
C1068 H1059 0.950 . S
C1068 C1067 1.398 . S
C1068 C1069 1.391 . S
C1069 H1057 0.950 . S
C1069 C1065 1.393 . S
C1069 C1068 1.391 . S
C1070 H1060 0.950 . S
C1070 C1071 1.386 . S
C1070 C1072 1.391 . S
C1071 C1070 1.386 . S
C1071 C1075 1.393 . S
C1072 H1061 0.950 . S
C1072 C1070 1.391 . S
C1072 C1073 1.400 . S
C1073 C1067 1.491 . S
C1073 C1072 1.400 . S
C1073 C1074 1.398 . S
C1074 H1062 0.950 . S
C1074 C1073 1.398 . S
C1074 C1075 1.391 . S
C1075 H1063 0.950 . S
C1075 C1071 1.393 . S
C1075 C1074 1.391 . S
H1076 C1084 0.950 . S
H1077 C1089 0.950 . S
H1078 C1086 0.950 . S
H1079 C1088 0.950 . S
H1080 C1090 0.950 . S
H1081 C1092 0.950 . S
H1082 C1094 0.950 . S
H1083 C1095 0.950 . S
C1084 H1076 0.950 . S
C1084 C1085 1.386 . S
C1084 C1086 1.391 . S
C1085 C1084 1.386 . S
C1085 C1089 1.393 . S
C1086 H1078 0.950 . S
C1086 C1084 1.391 . S
C1086 C1087 1.400 . S
C1087 C1086 1.400 . S
C1087 C1088 1.398 . S
C1087 C1093 1.491 . S
C1088 H1079 0.950 . S
C1088 C1087 1.398 . S
C1088 C1089 1.391 . S
C1089 H1077 0.950 . S
C1089 C1085 1.393 . S
C1089 C1088 1.391 . S
C1090 H1080 0.950 . S
C1090 C1091 1.386 . S
C1090 C1092 1.391 . S
C1091 C1090 1.386 . S
C1091 C1095 1.393 . S
C1092 H1081 0.950 . S
C1092 C1090 1.391 . S
C1092 C1093 1.400 . S
C1093 C1087 1.491 . S
C1093 C1092 1.400 . S
C1093 C1094 1.398 . S
C1094 H1082 0.950 . S
C1094 C1093 1.398 . S
C1094 C1095 1.391 . S
C1095 H1083 0.950 . S
C1095 C1091 1.393 . S
C1095 C1094 1.391 . S
H1096 C1104 0.950 . S
H1097 C1109 0.950 . S
H1098 C1106 0.950 . S
H1099 C1108 0.950 . S
H1100 C1110 0.950 . S
H1101 C1112 0.950 . S
H1102 C1114 0.950 . S
H1103 C1115 0.950 . S
C1104 H1096 0.950 . S
C1104 C1105 1.386 . S
C1104 C1106 1.391 . S
C1105 C1104 1.386 . S
C1105 C1109 1.393 . S
C1106 H1098 0.950 . S
C1106 C1104 1.391 . S
C1106 C1107 1.400 . S
C1107 C1106 1.400 . S
C1107 C1108 1.398 . S
C1107 C1113 1.491 . S
C1108 H1099 0.950 . S
C1108 C1107 1.398 . S
C1108 C1109 1.391 . S
C1109 H1097 0.950 . S
C1109 C1105 1.393 . S
C1109 C1108 1.391 . S
C1110 H1100 0.950 . S
C1110 C1111 1.386 . S
C1110 C1112 1.391 . S
C1111 C1110 1.386 . S
C1111 C1115 1.393 . S
C1112 H1101 0.950 . S
C1112 C1110 1.391 . S
C1112 C1113 1.400 . S
C1113 C1107 1.491 . S
C1113 C1112 1.400 . S
C1113 C1114 1.398 . S
C1114 H1102 0.950 . S
C1114 C1113 1.398 . S
C1114 C1115 1.391 . S
C1115 H1103 0.950 . S
C1115 C1111 1.393 . S
C1115 C1114 1.391 . S
H1116 C1124 0.950 . S
H1117 C1129 0.950 . S
H1118 C1126 0.950 . S
H1119 C1128 0.950 . S
H1120 C1130 0.950 . S
H1121 C1132 0.950 . S
H1122 C1134 0.950 . S
H1123 C1135 0.950 . S
C1124 H1116 0.950 . S
C1124 C1125 1.386 . S
C1124 C1126 1.391 1_556 S
C1125 C1124 1.386 . S
C1125 C1129 1.393 1_556 S
C1126 H1118 0.950 . S
C1126 C1124 1.391 1_554 S
C1126 C1127 1.400 . S
C1127 C1126 1.400 . S
C1127 C1128 1.398 . S
C1127 C1133 1.491 . S
C1128 H1119 0.950 . S
C1128 C1127 1.398 . S
C1128 C1129 1.391 . S
C1129 H1117 0.950 . S
C1129 C1125 1.393 1_554 S
C1129 C1128 1.391 . S
C1130 H1120 0.950 . S
C1130 C1131 1.386 . S
C1130 C1132 1.391 . S
C1131 C1130 1.386 . S
C1131 C1135 1.393 . S
C1132 H1121 0.950 . S
C1132 C1130 1.391 . S
C1132 C1133 1.400 . S
C1133 C1127 1.491 . S
C1133 C1132 1.400 . S
C1133 C1134 1.398 . S
C1134 H1122 0.950 . S
C1134 C1133 1.398 . S
C1134 C1135 1.391 . S
C1135 H1123 0.950 . S
C1135 C1131 1.393 . S
C1135 C1134 1.391 . S
H1136 C1144 0.950 . S
H1137 C1149 0.950 . S
H1138 C1146 0.950 . S
H1139 C1148 0.950 . S
H1140 C1150 0.950 . S
H1141 C1152 0.950 . S
H1142 C1154 0.950 . S
H1143 C1155 0.950 . S
C1144 H1136 0.950 . S
C1144 C1145 1.386 . S
C1144 C1146 1.391 1_556 S
C1145 C1144 1.386 . S
C1145 C1149 1.393 1_556 S
C1146 H1138 0.950 . S
C1146 C1144 1.391 1_554 S
C1146 C1147 1.400 . S
C1147 C1146 1.400 . S
C1147 C1148 1.398 . S
C1147 C1153 1.491 . S
C1148 H1139 0.950 . S
C1148 C1147 1.398 . S
C1148 C1149 1.391 . S
C1149 H1137 0.950 . S
C1149 C1145 1.393 1_554 S
C1149 C1148 1.391 . S
C1150 H1140 0.950 . S
C1150 C1151 1.386 . S
C1150 C1152 1.391 . S
C1151 C1150 1.386 . S
C1151 C1155 1.393 . S
C1152 H1141 0.950 . S
C1152 C1150 1.391 . S
C1152 C1153 1.400 . S
C1153 C1147 1.491 . S
C1153 C1152 1.400 . S
C1153 C1154 1.398 . S
C1154 H1142 0.950 . S
C1154 C1153 1.398 . S
C1154 C1155 1.391 . S
C1155 H1143 0.950 . S
C1155 C1151 1.393 . S
C1155 C1154 1.391 . S
H1156 C1164 0.950 . S
H1157 C1169 0.950 . S
H1158 C1166 0.950 . S
H1159 C1168 0.950 . S
H1160 C1170 0.950 . S
H1161 C1172 0.950 . S
H1162 C1174 0.950 . S
H1163 C1175 0.950 . S
C1164 H1156 0.950 . S
C1164 C1165 1.386 . S
C1164 C1166 1.391 1_556 S
C1165 C1164 1.386 . S
C1165 C1169 1.393 1_556 S
C1166 H1158 0.950 . S
C1166 C1164 1.391 1_554 S
C1166 C1167 1.400 . S
C1167 C1166 1.400 . S
C1167 C1168 1.398 . S
C1167 C1173 1.491 . S
C1168 H1159 0.950 . S
C1168 C1167 1.398 . S
C1168 C1169 1.391 . S
C1169 H1157 0.950 . S
C1169 C1165 1.393 1_554 S
C1169 C1168 1.391 . S
C1170 H1160 0.950 . S
C1170 C1171 1.386 . S
C1170 C1172 1.391 . S
C1171 C1170 1.386 . S
C1171 C1175 1.393 . S
C1172 H1161 0.950 . S
C1172 C1170 1.391 . S
C1172 C1173 1.400 . S
C1173 C1167 1.491 . S
C1173 C1172 1.400 . S
C1173 C1174 1.398 . S
C1174 H1162 0.950 . S
C1174 C1173 1.398 . S
C1174 C1175 1.391 . S
C1175 H1163 0.950 . S
C1175 C1171 1.393 . S
C1175 C1174 1.391 . S
H1176 C1184 0.950 . S
H1177 C1189 0.950 . S
H1178 C1186 0.950 . S
H1179 C1188 0.950 . S
H1180 C1190 0.950 . S
H1181 C1192 0.950 . S
H1182 C1194 0.950 . S
H1183 C1195 0.950 . S
C1184 H1176 0.950 . S
C1184 C1185 1.386 . S
C1184 C1186 1.391 . S
C1185 C1184 1.386 . S
C1185 C1189 1.393 . S
C1186 H1178 0.950 . S
C1186 C1184 1.391 . S
C1186 C1187 1.400 . S
C1187 C1186 1.400 . S
C1187 C1188 1.398 . S
C1187 C1193 1.491 . S
C1188 H1179 0.950 . S
C1188 C1187 1.398 . S
C1188 C1189 1.391 . S
C1189 H1177 0.950 . S
C1189 C1185 1.393 . S
C1189 C1188 1.391 . S
C1190 H1180 0.950 . S
C1190 C1191 1.386 . S
C1190 C1192 1.391 1_554 S
C1191 C1190 1.386 . S
C1191 C1195 1.393 . S
C1192 H1181 0.950 . S
C1192 C1190 1.391 1_556 S
C1192 C1193 1.400 . S
C1193 C1187 1.491 . S
C1193 C1192 1.400 . S
C1193 C1194 1.398 . S
C1194 H1182 0.950 . S
C1194 C1193 1.398 . S
C1194 C1195 1.391 1_556 S
C1195 H1183 0.950 . S
C1195 C1191 1.393 . S
C1195 C1194 1.391 1_554 S
H1196 C1204 0.950 . S
H1197 C1209 0.950 . S
H1198 C1206 0.950 . S
H1199 C1208 0.950 . S
H1200 C1210 0.950 . S
H1201 C1212 0.950 . S
H1202 C1214 0.950 . S
H1203 C1215 0.950 . S
C1204 H1196 0.950 . S
C1204 C1205 1.386 . S
C1204 C1206 1.391 . S
C1205 C1204 1.386 . S
C1205 C1209 1.393 . S
C1206 H1198 0.950 . S
C1206 C1204 1.391 . S
C1206 C1207 1.400 . S
C1207 C1206 1.400 . S
C1207 C1208 1.398 . S
C1207 C1213 1.491 . S
C1208 H1199 0.950 . S
C1208 C1207 1.398 . S
C1208 C1209 1.391 . S
C1209 H1197 0.950 . S
C1209 C1205 1.393 . S
C1209 C1208 1.391 . S
C1210 H1200 0.950 . S
C1210 C1211 1.386 . S
C1210 C1212 1.391 1_554 S
C1211 C1210 1.386 . S
C1211 C1215 1.393 . S
C1212 H1201 0.950 . S
C1212 C1210 1.391 1_556 S
C1212 C1213 1.400 . S
C1213 C1207 1.491 . S
C1213 C1212 1.400 . S
C1213 C1214 1.398 . S
C1214 H1202 0.950 . S
C1214 C1213 1.398 . S
C1214 C1215 1.391 1_556 S
C1215 H1203 0.950 . S
C1215 C1211 1.393 . S
C1215 C1214 1.391 1_554 S
H1216 C1224 0.950 . S
H1217 C1229 0.950 . S
H1218 C1226 0.950 . S
H1219 C1228 0.950 . S
H1220 C1230 0.950 . S
H1221 C1232 0.950 . S
H1222 C1234 0.950 . S
H1223 C1235 0.950 . S
C1224 H1216 0.950 . S
C1224 C1225 1.386 . S
C1224 C1226 1.391 . S
C1225 C1224 1.386 . S
C1225 C1229 1.393 . S
C1226 H1218 0.950 . S
C1226 C1224 1.391 . S
C1226 C1227 1.400 . S
C1227 C1226 1.400 . S
C1227 C1228 1.398 . S
C1227 C1233 1.491 . S
C1228 H1219 0.950 . S
C1228 C1227 1.398 . S
C1228 C1229 1.391 . S
C1229 H1217 0.950 . S
C1229 C1225 1.393 . S
C1229 C1228 1.391 . S
C1230 H1220 0.950 . S
C1230 C1231 1.386 . S
C1230 C1232 1.391 1_554 S
C1231 C1230 1.386 . S
C1231 C1235 1.393 . S
C1232 H1221 0.950 . S
C1232 C1230 1.391 1_556 S
C1232 C1233 1.400 . S
C1233 C1227 1.491 . S
C1233 C1232 1.400 . S
C1233 C1234 1.398 . S
C1234 H1222 0.950 . S
C1234 C1233 1.398 . S
C1234 C1235 1.391 1_556 S
C1235 H1223 0.950 . S
C1235 C1231 1.393 . S
C1235 C1234 1.391 1_554 S
H1236 C1244 0.950 . S
H1237 C1249 0.950 . S
H1238 C1246 0.950 . S
H1239 C1248 0.950 . S
H1240 C1250 0.950 . S
H1241 C1252 0.950 . S
H1242 C1254 0.950 . S
H1243 C1255 0.950 . S
C1244 H1236 0.950 . S
C1244 C1245 1.386 . S
C1244 C1246 1.391 . S
C1245 C1244 1.386 . S
C1245 C1249 1.393 . S
C1246 H1238 0.950 . S
C1246 C1244 1.391 . S
C1246 C1247 1.400 . S
C1247 C1246 1.400 . S
C1247 C1248 1.398 . S
C1247 C1253 1.491 . S
C1248 H1239 0.950 . S
C1248 C1247 1.398 . S
C1248 C1249 1.391 . S
C1249 H1237 0.950 . S
C1249 C1245 1.393 . S
C1249 C1248 1.391 . S
C1250 H1240 0.950 . S
C1250 C1251 1.386 . S
C1250 C1252 1.391 . S
C1251 C1250 1.386 . S
C1251 C1255 1.393 . S
C1252 H1241 0.950 . S
C1252 C1250 1.391 . S
C1252 C1253 1.400 . S
C1253 C1247 1.491 . S
C1253 C1252 1.400 . S
C1253 C1254 1.398 . S
C1254 H1242 0.950 . S
C1254 C1253 1.398 . S
C1254 C1255 1.391 . S
C1255 H1243 0.950 . S
C1255 C1251 1.393 . S
C1255 C1254 1.391 . S
H1256 C1264 0.950 . S
H1257 C1269 0.950 . S
H1258 C1266 0.950 . S
H1259 C1268 0.950 . S
H1260 C1270 0.950 . S
H1261 C1272 0.950 . S
H1262 C1274 0.950 . S
H1263 C1275 0.950 . S
C1264 H1256 0.950 . S
C1264 C1265 1.386 . S
C1264 C1266 1.391 . S
C1265 C1264 1.386 . S
C1265 C1269 1.393 . S
C1266 H1258 0.950 . S
C1266 C1264 1.391 . S
C1266 C1267 1.400 . S
C1267 C1266 1.400 . S
C1267 C1268 1.398 . S
C1267 C1273 1.491 . S
C1268 H1259 0.950 . S
C1268 C1267 1.398 . S
C1268 C1269 1.391 . S
C1269 H1257 0.950 . S
C1269 C1265 1.393 . S
C1269 C1268 1.391 . S
C1270 H1260 0.950 . S
C1270 C1271 1.386 . S
C1270 C1272 1.391 . S
C1271 C1270 1.386 . S
C1271 C1275 1.393 . S
C1272 H1261 0.950 . S
C1272 C1270 1.391 . S
C1272 C1273 1.400 . S
C1273 C1267 1.491 . S
C1273 C1272 1.400 . S
C1273 C1274 1.398 . S
C1274 H1262 0.950 . S
C1274 C1273 1.398 . S
C1274 C1275 1.391 . S
C1275 H1263 0.950 . S
C1275 C1271 1.393 . S
C1275 C1274 1.391 . S
H1276 C1284 0.950 . S
H1277 C1289 0.950 . S
H1278 C1286 0.950 . S
H1279 C1288 0.950 . S
H1280 C1290 0.950 . S
H1281 C1292 0.950 . S
H1282 C1294 0.950 . S
H1283 C1295 0.950 . S
C1284 H1276 0.950 . S
C1284 C1285 1.386 . S
C1284 C1286 1.391 . S
C1285 C1284 1.386 . S
C1285 C1289 1.393 . S
C1286 H1278 0.950 . S
C1286 C1284 1.391 . S
C1286 C1287 1.400 . S
C1287 C1286 1.400 . S
C1287 C1288 1.398 . S
C1287 C1293 1.491 . S
C1288 H1279 0.950 . S
C1288 C1287 1.398 . S
C1288 C1289 1.391 . S
C1289 H1277 0.950 . S
C1289 C1285 1.393 . S
C1289 C1288 1.391 . S
C1290 H1280 0.950 . S
C1290 C1291 1.386 . S
C1290 C1292 1.391 . S
C1291 C1290 1.386 . S
C1291 C1295 1.393 . S
C1292 H1281 0.950 . S
C1292 C1290 1.391 . S
C1292 C1293 1.400 . S
C1293 C1287 1.491 . S
C1293 C1292 1.400 . S
C1293 C1294 1.398 . S
C1294 H1282 0.950 . S
C1294 C1293 1.398 . S
C1294 C1295 1.391 . S
C1295 H1283 0.950 . S
C1295 C1291 1.393 . S
C1295 C1294 1.391 . S
H1296 C1304 0.950 . S
H1297 C1309 0.950 . S
H1298 C1306 0.950 . S
H1299 C1308 0.950 . S
H1300 C1310 0.925 1_545 S
H1301 C1312 0.950 . S
H1302 C1314 0.950 . S
H1303 C1315 0.950 1_554 S
C1304 H1296 0.950 . S
C1304 C1305 1.386 . S
C1304 C1306 1.391 . S
C1305 C1304 1.386 . S
C1305 C1309 1.393 . S
C1306 H1298 0.950 . S
C1306 C1304 1.391 . S
C1306 C1307 1.400 . S
C1307 C1306 1.400 . S
C1307 C1308 1.398 . S
C1307 C1313 1.491 . S
C1308 H1299 0.950 . S
C1308 C1307 1.398 . S
C1308 C1309 1.391 . S
C1309 H1297 0.950 . S
C1309 C1305 1.393 . S
C1309 C1308 1.391 . S
C1310 H1300 0.925 1_565 S
C1310 C1311 1.399 . S
C1310 C1312 1.403 . S
C1311 C1310 1.399 . S
C1311 C1315 1.393 . S
C1312 H1301 0.950 . S
C1312 C1310 1.403 . S
C1312 C1313 1.400 . S
C1313 C1307 1.491 . S
C1313 C1312 1.400 . S
C1313 C1314 1.398 . S
C1314 H1302 0.950 . S
C1314 C1313 1.398 . S
C1314 C1315 1.391 . S
C1315 H1303 0.950 1_556 S
C1315 C1311 1.393 . S
C1315 C1314 1.391 . S
H1316 C1324 0.950 1_655 S
H1317 C1329 0.950 . S
H1318 C1326 0.950 . S
H1319 C1328 0.950 . S
H1320 C1330 0.950 . S
H1321 C1332 0.950 . S
H1322 C1334 0.950 . S
H1323 C1335 0.950 . S
C1324 H1316 0.950 1_455 S
C1324 C1325 1.386 . S
C1324 C1326 1.391 . S
C1325 C1324 1.386 . S
C1325 C1329 1.393 . S
C1326 H1318 0.950 . S
C1326 C1324 1.391 . S
C1326 C1327 1.400 . S
C1327 C1326 1.400 . S
C1327 C1328 1.398 . S
C1327 C1333 1.491 . S
C1328 H1319 0.950 . S
C1328 C1327 1.398 . S
C1328 C1329 1.391 . S
C1329 H1317 0.950 . S
C1329 C1325 1.393 . S
C1329 C1328 1.391 . S
C1330 H1320 0.950 . S
C1330 C1331 1.386 . S
C1330 C1332 1.391 . S
C1331 C1330 1.386 . S
C1331 C1335 1.393 . S
C1332 H1321 0.950 . S
C1332 C1330 1.391 . S
C1332 C1333 1.400 . S
C1333 C1327 1.491 . S
C1333 C1332 1.400 . S
C1333 C1334 1.398 . S
C1334 H1322 0.950 . S
C1334 C1333 1.398 . S
C1334 C1335 1.391 . S
C1335 H1323 0.950 . S
C1335 C1331 1.393 . S
C1335 C1334 1.391 . S
H1336 C1344 0.950 . S
H1337 C1349 0.950 . S
H1338 C1346 0.950 . S
H1339 C1348 0.950 . S
H1340 C1350 0.950 1_554 S
H1341 C1352 0.950 . S
H1342 C1354 0.950 . S
H1343 C1355 0.950 . S
C1344 H1336 0.950 . S
C1344 C1345 1.386 . S
C1344 C1346 1.391 . S
C1345 C1344 1.386 . S
C1345 C1349 1.393 . S
C1346 H1338 0.950 . S
C1346 C1344 1.391 . S
C1346 C1347 1.400 . S
C1347 C1346 1.400 . S
C1347 C1348 1.398 . S
C1347 C1353 1.491 . S
C1348 H1339 0.950 . S
C1348 C1347 1.398 . S
C1348 C1349 1.391 . S
C1349 H1337 0.950 . S
C1349 C1345 1.393 . S
C1349 C1348 1.391 . S
C1350 H1340 0.950 1_556 S
C1350 C1351 1.386 . S
C1350 C1352 1.391 . S
C1351 C1350 1.386 . S
C1351 C1355 1.393 . S
C1352 H1341 0.950 . S
C1352 C1350 1.391 . S
C1352 C1353 1.400 . S
C1353 C1347 1.491 . S
C1353 C1352 1.400 . S
C1353 C1354 1.398 . S
C1354 H1342 0.950 . S
C1354 C1353 1.398 . S
C1354 C1355 1.391 . S
C1355 H1343 0.950 . S
C1355 C1351 1.393 . S
C1355 C1354 1.391 . S
H1356 C1364 0.950 . S
H1357 C1369 0.950 . S
H1358 C1366 0.950 . S
H1359 C1368 0.950 . S
H1360 C1370 0.950 . S
H1361 C1372 0.950 . S
H1362 C1374 0.950 . S
H1363 C1375 0.950 . S
C1364 H1356 0.950 . S
C1364 C1365 1.386 . S
C1364 C1366 1.391 . S
C1365 C1364 1.386 . S
C1365 C1369 1.393 . S
C1366 H1358 0.950 . S
C1366 C1364 1.391 . S
C1366 C1367 1.400 . S
C1367 C1366 1.400 . S
C1367 C1368 1.398 . S
C1367 C1373 1.491 . S
C1368 H1359 0.950 . S
C1368 C1367 1.398 . S
C1368 C1369 1.391 . S
C1369 H1357 0.950 . S
C1369 C1365 1.393 . S
C1369 C1368 1.391 . S
C1370 H1360 0.950 . S
C1370 C1371 1.386 . S
C1370 C1372 1.391 . S
C1371 C1370 1.386 . S
C1371 C1375 1.393 . S
C1372 H1361 0.950 . S
C1372 C1370 1.391 . S
C1372 C1373 1.400 . S
C1373 C1367 1.491 . S
C1373 C1372 1.400 . S
C1373 C1374 1.398 . S
C1374 H1362 0.950 . S
C1374 C1373 1.398 . S
C1374 C1375 1.391 . S
C1375 H1363 0.950 . S
C1375 C1371 1.393 . S
C1375 C1374 1.391 . S
H1376 C1384 0.950 . S
H1377 C1389 0.950 . S
H1378 C1386 0.950 . S
H1379 C1388 0.950 . S
H1380 C1390 0.950 . S
H1381 C1392 0.950 . S
H1382 C1394 0.950 . S
H1383 C1395 0.950 . S
C1384 H1376 0.950 . S
C1384 C1385 1.386 . S
C1384 C1386 1.391 . S
C1385 C1384 1.386 . S
C1385 C1389 1.393 . S
C1386 H1378 0.950 . S
C1386 C1384 1.391 . S
C1386 C1387 1.400 . S
C1387 C1386 1.400 . S
C1387 C1388 1.398 . S
C1387 C1393 1.491 . S
C1388 H1379 0.950 . S
C1388 C1387 1.398 . S
C1388 C1389 1.391 . S
C1389 H1377 0.950 . S
C1389 C1385 1.393 . S
C1389 C1388 1.391 . S
C1390 H1380 0.950 . S
C1390 C1391 1.386 . S
C1390 C1392 1.391 . S
C1391 C1390 1.386 . S
C1391 C1395 1.393 . S
C1392 H1381 0.950 . S
C1392 C1390 1.391 . S
C1392 C1393 1.400 . S
C1393 C1387 1.491 . S
C1393 C1392 1.400 . S
C1393 C1394 1.398 . S
C1394 H1382 0.950 . S
C1394 C1393 1.398 . S
C1394 C1395 1.391 . S
C1395 H1383 0.950 . S
C1395 C1391 1.393 . S
C1395 C1394 1.391 . S
H1396 C1404 0.950 . S
H1397 C1409 0.950 . S
H1398 C1406 0.950 . S
H1399 C1408 0.950 . S
H1400 C1410 0.950 1_545 S
H1401 C1412 0.950 . S
H1402 C1414 0.950 . S
H1403 C1415 0.950 . S
C1404 H1396 0.950 . S
C1404 C1405 1.386 . S
C1404 C1406 1.391 . S
C1405 C1404 1.386 . S
C1405 C1409 1.393 . S
C1406 H1398 0.950 . S
C1406 C1404 1.391 . S
C1406 C1407 1.400 . S
C1407 C1406 1.400 . S
C1407 C1408 1.398 . S
C1407 C1413 1.491 . S
C1408 H1399 0.950 . S
C1408 C1407 1.398 . S
C1408 C1409 1.391 . S
C1409 H1397 0.950 . S
C1409 C1405 1.393 . S
C1409 C1408 1.391 . S
C1410 H1400 0.950 1_565 S
C1410 C1411 1.386 . S
C1410 C1412 1.391 . S
C1411 C1410 1.386 . S
C1411 C1415 1.393 . S
C1412 H1401 0.950 . S
C1412 C1410 1.391 . S
C1412 C1413 1.400 . S
C1413 C1407 1.491 . S
C1413 C1412 1.400 . S
C1413 C1414 1.398 . S
C1414 H1402 0.950 . S
C1414 C1413 1.398 . S
C1414 C1415 1.391 . S
C1415 H1403 0.950 . S
C1415 C1411 1.393 . S
C1415 C1414 1.391 . S
H1416 C1424 0.950 . S
H1417 C1429 0.950 . S
H1418 C1426 0.950 . S
H1419 C1428 0.950 . S
H1420 C1430 0.918 1_655 S
H1421 C1432 0.950 . S
H1422 C1434 0.950 . S
H1423 C1435 0.950 . S
C1424 H1416 0.950 . S
C1424 C1425 1.386 . S
C1424 C1426 1.391 . S
C1425 C1424 1.386 . S
C1425 C1429 1.393 . S
C1426 H1418 0.950 . S
C1426 C1424 1.391 . S
C1426 C1427 1.400 . S
C1427 C1426 1.400 . S
C1427 C1428 1.398 . S
C1427 C1433 1.491 . S
C1428 H1419 0.950 . S
C1428 C1427 1.398 . S
C1428 C1429 1.391 . S
C1429 H1417 0.950 . S
C1429 C1425 1.393 . S
C1429 C1428 1.391 . S
C1430 H1420 0.918 1_455 S
C1430 C1431 1.398 1_455 S
C1430 C1432 1.411 . S
C1431 C1430 1.398 1_655 S
C1431 C1435 1.393 1_655 S
C1432 H1421 0.950 . S
C1432 C1430 1.411 . S
C1432 C1433 1.400 . S
C1433 C1427 1.491 . S
C1433 C1432 1.400 . S
C1433 C1434 1.398 . S
C1434 H1422 0.950 . S
C1434 C1433 1.398 . S
C1434 C1435 1.391 . S
C1435 H1423 0.950 . S
C1435 C1431 1.393 1_455 S
C1435 C1434 1.391 . S
H1436 C1444 0.950 . S
H1437 C1449 0.950 . S
H1438 C1446 0.950 . S
H1439 C1448 0.950 . S
H1440 C1450 0.950 . S
H1441 C1452 0.950 . S
H1442 C1454 0.950 . S
H1443 C1455 0.950 . S
C1444 H1436 0.950 . S
C1444 C1445 1.386 . S
C1444 C1446 1.391 . S
C1445 C1444 1.386 . S
C1445 C1449 1.393 . S
C1446 H1438 0.950 . S
C1446 C1444 1.391 . S
C1446 C1447 1.400 . S
C1447 C1446 1.400 . S
C1447 C1448 1.398 . S
C1447 C1453 1.491 . S
C1448 H1439 0.950 . S
C1448 C1447 1.398 . S
C1448 C1449 1.391 . S
C1449 H1437 0.950 . S
C1449 C1445 1.393 . S
C1449 C1448 1.391 . S
C1450 H1440 0.950 . S
C1450 C1451 1.386 . S
C1450 C1452 1.391 . S
C1451 C1450 1.386 . S
C1451 C1455 1.393 . S
C1452 H1441 0.950 . S
C1452 C1450 1.391 . S
C1452 C1453 1.400 . S
C1453 C1447 1.491 . S
C1453 C1452 1.400 . S
C1453 C1454 1.398 . S
C1454 H1442 0.950 . S
C1454 C1453 1.398 . S
C1454 C1455 1.391 . S
C1455 H1443 0.950 . S
C1455 C1451 1.393 . S
C1455 C1454 1.391 . S
H1456 C1464 0.950 . S
H1457 C1469 0.950 . S
H1458 C1466 0.950 . S
H1459 C1468 0.950 . S
H1460 C1470 0.950 1_545 S
H1461 C1472 0.950 . S
H1462 C1474 0.950 . S
H1463 C1475 0.950 . S
C1464 H1456 0.950 . S
C1464 C1465 1.386 . S
C1464 C1466 1.391 . S
C1465 C1464 1.386 . S
C1465 C1469 1.393 . S
C1466 H1458 0.950 . S
C1466 C1464 1.391 . S
C1466 C1467 1.400 . S
C1467 C1466 1.400 . S
C1467 C1468 1.398 . S
C1467 C1473 1.491 . S
C1468 H1459 0.950 . S
C1468 C1467 1.398 . S
C1468 C1469 1.391 . S
C1469 H1457 0.950 . S
C1469 C1465 1.393 . S
C1469 C1468 1.391 . S
C1470 H1460 0.950 1_565 S
C1470 C1471 1.386 1_565 S
C1470 C1472 1.391 . S
C1471 C1470 1.386 1_545 S
C1471 C1475 1.393 1_545 S
C1472 H1461 0.950 . S
C1472 C1470 1.391 . S
C1472 C1473 1.400 . S
C1473 C1467 1.491 . S
C1473 C1472 1.400 . S
C1473 C1474 1.398 . S
C1474 H1462 0.950 . S
C1474 C1473 1.398 . S
C1474 C1475 1.391 . S
C1475 H1463 0.950 . S
C1475 C1471 1.393 1_565 S
C1475 C1474 1.391 . S
H1476 C1484 0.950 . S
H1477 C1489 0.950 1_545 S
H1478 C1486 0.950 . S
H1479 C1488 0.950 . S
H1480 C1490 0.950 . S
H1481 C1492 0.950 . S
H1482 C1494 0.950 . S
H1483 C1495 0.950 . S
C1484 H1476 0.950 . S
C1484 C1485 1.386 1_565 S
C1484 C1486 1.391 . S
C1485 C1484 1.386 1_545 S
C1485 C1489 1.393 1_545 S
C1486 H1478 0.950 . S
C1486 C1484 1.391 . S
C1486 C1487 1.400 . S
C1487 C1486 1.400 . S
C1487 C1488 1.398 . S
C1487 C1493 1.491 . S
C1488 H1479 0.950 . S
C1488 C1487 1.398 . S
C1488 C1489 1.391 . S
C1489 H1477 0.950 1_565 S
C1489 C1485 1.393 1_565 S
C1489 C1488 1.391 . S
C1490 H1480 0.950 . S
C1490 C1491 1.386 . S
C1490 C1492 1.391 . S
C1491 C1490 1.386 . S
C1491 C1495 1.393 . S
C1492 H1481 0.950 . S
C1492 C1490 1.391 . S
C1492 C1493 1.400 . S
C1493 C1487 1.491 . S
C1493 C1492 1.400 . S
C1493 C1494 1.398 . S
C1494 H1482 0.950 . S
C1494 C1493 1.398 . S
C1494 C1495 1.391 . S
C1495 H1483 0.950 . S
C1495 C1491 1.393 . S
C1495 C1494 1.391 . S
H1496 C1504 0.950 . S
H1497 C1509 0.950 . S
H1498 C1506 0.950 . S
H1499 C1508 0.950 . S
H1500 C1510 0.950 . S
H1501 C1512 0.950 . S
H1502 C1514 0.950 . S
H1503 C1515 0.950 . S
C1504 H1496 0.950 . S
C1504 C1505 1.386 . S
C1504 C1506 1.391 1_655 S
C1505 C1504 1.386 . S
C1505 C1509 1.393 1_655 S
C1506 H1498 0.950 . S
C1506 C1504 1.391 1_455 S
C1506 C1507 1.400 . S
C1507 C1506 1.400 . S
C1507 C1508 1.398 . S
C1507 C1513 1.491 . S
C1508 H1499 0.950 . S
C1508 C1507 1.398 . S
C1508 C1509 1.391 . S
C1509 H1497 0.950 . S
C1509 C1505 1.393 1_455 S
C1509 C1508 1.391 . S
C1510 H1500 0.950 . S
C1510 C1511 1.386 . S
C1510 C1512 1.391 . S
C1511 C1510 1.386 . S
C1511 C1515 1.393 . S
C1512 H1501 0.950 . S
C1512 C1510 1.391 . S
C1512 C1513 1.400 . S
C1513 C1507 1.491 . S
C1513 C1512 1.400 . S
C1513 C1514 1.398 . S
C1514 H1502 0.950 . S
C1514 C1513 1.398 . S
C1514 C1515 1.391 . S
C1515 H1503 0.950 . S
C1515 C1511 1.393 . S
C1515 C1514 1.391 . S
H1516 C1524 0.950 . S
H1517 C1529 0.950 . S
H1518 C1526 0.950 . S
H1519 C1528 0.950 . S
H1520 C1530 0.950 . S
H1521 C1532 0.950 . S
H1522 C1534 0.950 . S
H1523 C1535 0.950 . S
C1524 H1516 0.950 . S
C1524 C1525 1.386 . S
C1524 C1526 1.391 . S
C1525 C1524 1.386 . S
C1525 C1529 1.393 . S
C1526 H1518 0.950 . S
C1526 C1524 1.391 . S
C1526 C1527 1.400 . S
C1527 C1526 1.400 . S
C1527 C1528 1.398 . S
C1527 C1533 1.491 . S
C1528 H1519 0.950 . S
C1528 C1527 1.398 . S
C1528 C1529 1.391 . S
C1529 H1517 0.950 . S
C1529 C1525 1.393 . S
C1529 C1528 1.391 . S
C1530 H1520 0.950 . S
C1530 C1531 1.386 . S
C1530 C1532 1.391 . S
C1531 C1530 1.386 . S
C1531 C1535 1.393 . S
C1532 H1521 0.950 . S
C1532 C1530 1.391 . S
C1532 C1533 1.400 . S
C1533 C1527 1.491 . S
C1533 C1532 1.400 . S
C1533 C1534 1.398 . S
C1534 H1522 0.950 . S
C1534 C1533 1.398 . S
C1534 C1535 1.391 . S
C1535 H1523 0.950 . S
C1535 C1531 1.393 . S
C1535 C1534 1.391 . S
H1536 C1544 0.950 . S
H1537 C1549 0.950 . S
H1538 C1546 0.950 . S
H1539 C1548 0.950 . S
H1540 C1550 0.950 . S
H1541 C1552 0.950 . S
H1542 C1554 0.950 . S
H1543 C1555 0.950 . S
C1544 H1536 0.950 . S
C1544 C1545 1.386 . S
C1544 C1546 1.391 . S
C1545 C1544 1.386 . S
C1545 C1549 1.393 . S
C1546 H1538 0.950 . S
C1546 C1544 1.391 . S
C1546 C1547 1.400 . S
C1547 C1546 1.400 . S
C1547 C1548 1.398 . S
C1547 C1553 1.491 . S
C1548 H1539 0.950 . S
C1548 C1547 1.398 . S
C1548 C1549 1.391 . S
C1549 H1537 0.950 . S
C1549 C1545 1.393 . S
C1549 C1548 1.391 . S
C1550 H1540 0.950 . S
C1550 C1551 1.386 . S
C1550 C1552 1.391 . S
C1551 C1550 1.386 . S
C1551 C1555 1.393 . S
C1552 H1541 0.950 . S
C1552 C1550 1.391 . S
C1552 C1553 1.400 . S
C1553 C1547 1.491 . S
C1553 C1552 1.400 . S
C1553 C1554 1.398 . S
C1554 H1542 0.950 . S
C1554 C1553 1.398 . S
C1554 C1555 1.391 . S
C1555 H1543 0.950 . S
C1555 C1551 1.393 . S
C1555 C1554 1.391 . S
H1556 C1564 0.950 . S
H1557 C1569 0.950 . S
H1558 C1566 0.950 . S
H1559 C1568 0.950 . S
H1560 C1570 0.950 . S
H1561 C1572 0.950 . S
H1562 C1574 0.950 . S
H1563 C1575 0.950 . S
C1564 H1556 0.950 . S
C1564 C1565 1.386 . S
C1564 C1566 1.391 . S
C1565 C1564 1.386 . S
C1565 C1569 1.393 . S
C1566 H1558 0.950 . S
C1566 C1564 1.391 . S
C1566 C1567 1.400 . S
C1567 C1566 1.400 . S
C1567 C1568 1.398 . S
C1567 C1573 1.491 . S
C1568 H1559 0.950 . S
C1568 C1567 1.398 . S
C1568 C1569 1.391 . S
C1569 H1557 0.950 . S
C1569 C1565 1.393 . S
C1569 C1568 1.391 . S
C1570 H1560 0.950 . S
C1570 C1571 1.386 . S
C1570 C1572 1.391 . S
C1571 C1570 1.386 . S
C1571 C1575 1.393 . S
C1572 H1561 0.950 . S
C1572 C1570 1.391 . S
C1572 C1573 1.400 . S
C1573 C1567 1.491 . S
C1573 C1572 1.400 . S
C1573 C1574 1.398 . S
C1574 H1562 0.950 . S
C1574 C1573 1.398 . S
C1574 C1575 1.391 . S
C1575 H1563 0.950 . S
C1575 C1571 1.393 . S
C1575 C1574 1.391 . S
H1576 C1584 0.950 . S
H1577 C1589 0.950 . S
H1578 C1586 0.950 . S
H1579 C1588 0.950 . S
H1580 C1590 0.950 . S
H1581 C1592 0.950 . S
H1582 C1594 0.950 . S
H1583 C1595 0.950 . S
C1584 H1576 0.950 . S
C1584 C1585 1.386 . S
C1584 C1586 1.391 . S
C1585 C1584 1.386 . S
C1585 C1589 1.393 . S
C1586 H1578 0.950 . S
C1586 C1584 1.391 . S
C1586 C1587 1.400 . S
C1587 C1586 1.400 . S
C1587 C1588 1.398 . S
C1587 C1593 1.491 . S
C1588 H1579 0.950 . S
C1588 C1587 1.398 . S
C1588 C1589 1.391 . S
C1589 H1577 0.950 . S
C1589 C1585 1.393 . S
C1589 C1588 1.391 . S
C1590 H1580 0.950 . S
C1590 C1591 1.386 . S
C1590 C1592 1.391 . S
C1591 C1590 1.386 . S
C1591 C1595 1.393 . S
C1592 H1581 0.950 . S
C1592 C1590 1.391 . S
C1592 C1593 1.400 . S
C1593 C1587 1.491 . S
C1593 C1592 1.400 . S
C1593 C1594 1.398 . S
C1594 H1582 0.950 . S
C1594 C1593 1.398 . S
C1594 C1595 1.391 . S
C1595 H1583 0.950 . S
C1595 C1591 1.393 . S
C1595 C1594 1.391 . S
H1596 C1604 0.950 . S
H1597 C1609 0.950 . S
H1598 C1606 0.950 . S
H1599 C1608 0.950 . S
H1600 C1610 0.950 . S
H1601 C1612 0.950 . S
H1602 C1614 0.950 . S
H1603 C1615 0.950 . S
C1604 H1596 0.950 . S
C1604 C1605 1.386 . S
C1604 C1606 1.391 . S
C1605 C1604 1.386 . S
C1605 C1609 1.393 . S
C1606 H1598 0.950 . S
C1606 C1604 1.391 . S
C1606 C1607 1.400 . S
C1607 C1606 1.400 . S
C1607 C1608 1.398 . S
C1607 C1613 1.491 . S
C1608 H1599 0.950 . S
C1608 C1607 1.398 . S
C1608 C1609 1.391 . S
C1609 H1597 0.950 . S
C1609 C1605 1.393 . S
C1609 C1608 1.391 . S
C1610 H1600 0.950 . S
C1610 C1611 1.386 . S
C1610 C1612 1.391 . S
C1611 C1610 1.386 . S
C1611 C1615 1.393 . S
C1612 H1601 0.950 . S
C1612 C1610 1.391 . S
C1612 C1613 1.400 . S
C1613 C1607 1.491 . S
C1613 C1612 1.400 . S
C1613 C1614 1.398 . S
C1614 H1602 0.950 . S
C1614 C1613 1.398 . S
C1614 C1615 1.391 . S
C1615 H1603 0.950 . S
C1615 C1611 1.393 . S
C1615 C1614 1.391 . S
H1616 C1624 0.950 . S
H1617 C1629 0.950 . S
H1618 C1626 0.950 . S
H1619 C1628 0.950 . S
H1620 C1630 0.950 1_556 S
H1621 C1632 0.950 . S
H1622 C1634 0.950 . S
H1623 C1635 0.950 . S
C1624 H1616 0.950 . S
C1624 C1625 1.386 . S
C1624 C1626 1.391 . S
C1625 C1624 1.386 . S
C1625 C1629 1.393 . S
C1626 H1618 0.950 . S
C1626 C1624 1.391 . S
C1626 C1627 1.400 . S
C1627 C1626 1.400 . S
C1627 C1628 1.398 . S
C1627 C1633 1.491 . S
C1628 H1619 0.950 . S
C1628 C1627 1.398 . S
C1628 C1629 1.391 . S
C1629 H1617 0.950 . S
C1629 C1625 1.393 . S
C1629 C1628 1.391 . S
C1630 H1620 0.950 1_554 S
C1630 C1631 1.386 . S
C1630 C1632 1.391 . S
C1631 C1630 1.386 . S
C1631 C1635 1.393 . S
C1632 H1621 0.950 . S
C1632 C1630 1.391 . S
C1632 C1633 1.400 . S
C1633 C1627 1.491 . S
C1633 C1632 1.400 . S
C1633 C1634 1.398 . S
C1634 H1622 0.950 . S
C1634 C1633 1.398 . S
C1634 C1635 1.391 . S
C1635 H1623 0.950 . S
C1635 C1631 1.393 . S
C1635 C1634 1.391 . S
H1636 C1644 0.950 . S
H1637 C1649 0.950 1_556 S
H1638 C1646 0.950 . S
H1639 C1648 0.950 . S
H1640 C1650 0.950 . S
H1641 C1652 0.950 . S
H1642 C1654 0.950 . S
H1643 C1655 0.950 . S
C1644 H1636 0.950 . S
C1644 C1645 1.386 . S
C1644 C1646 1.391 . S
C1645 C1644 1.386 . S
C1645 C1649 1.393 . S
C1646 H1638 0.950 . S
C1646 C1644 1.391 . S
C1646 C1647 1.400 . S
C1647 C1646 1.400 . S
C1647 C1648 1.398 . S
C1647 C1653 1.491 . S
C1648 H1639 0.950 . S
C1648 C1647 1.398 . S
C1648 C1649 1.391 . S
C1649 H1637 0.950 1_554 S
C1649 C1645 1.393 . S
C1649 C1648 1.391 . S
C1650 H1640 0.950 . S
C1650 C1651 1.386 . S
C1650 C1652 1.391 . S
C1651 C1650 1.386 . S
C1651 C1655 1.393 . S
C1652 H1641 0.950 . S
C1652 C1650 1.391 . S
C1652 C1653 1.400 . S
C1653 C1647 1.491 . S
C1653 C1652 1.400 . S
C1653 C1654 1.398 . S
C1654 H1642 0.950 . S
C1654 C1653 1.398 . S
C1654 C1655 1.391 . S
C1655 H1643 0.950 . S
C1655 C1651 1.393 . S
C1655 C1654 1.391 . S
C585 C4 0.639 1_556 S
C591 N77 0.678 . S
C605 N13 0.674 . S
C611 C36 0.705 1_556 S
C625 C68 0.695 1_556 S
C631 N45 0.651 . S
C645 N141 0.697 . S
C651 C100 0.645 . S
C665 N178 0.649 . S
C671 C132 0.659 . S
C685 C189 0.649 . S
C691 N109 0.702 . S
C705 N269 0.648 . S
C711 C196 0.693 . S
C725 C228 0.642 . S
C731 N205 0.686 . S
C745 N237 0.686 . S
C751 C260 0.707 . S
C765 C317 0.680 . S
C771 N333 0.643 . S
C785 N370 0.670 . S
C791 C324 0.708 . S
C805 C381 0.667 . S
C811 N306 0.645 . S
C825 N461 0.713 . S
C831 C388 0.681 . S
C845 C420 0.706 . S
C851 N397 0.689 . S
C865 C452 0.706 . S
C871 N429 0.692 . S
C885 C509 0.641 . S
C891 N525 0.678 . S
C905 N562 0.684 . S
C911 C516 0.708 . S
C925 N498 0.686 . S
C931 C573 0.707 . S
C945 C166 1.425 . S
C951 C29 1.402 . S
C965 C98 1.424 . S
C971 C61 1.401 . S
C985 C130 1.424 . S
C991 C93 1.402 . S
C1005 C34 1.408 . S
C1011 C125 1.377 . S
C1025 C157 1.381 . S
C1031 C66 1.411 . S
C1045 C2 1.423 . S
C1051 C164 1.399 . S
C1065 C221 1.402 . S
C1071 C358 1.424 . S
C1085 C253 1.377 . S
C1091 C294 1.409 . S
C1105 C322 1.409 . S
C1111 C285 1.377 . S
C1125 C292 1.380 . S
C1131 C226 1.410 . S
C1145 C349 1.380 . S
C1151 C258 1.410 . S
C1165 C356 1.387 . S
C1171 C194 1.414 . S
C1185 C413 1.391 . S
C1191 C550 1.418 . S
C1205 C445 1.401 . S
C1211 C486 1.424 . S
C1225 C477 1.389 . S
C1231 C514 1.416 . S
C1245 C484 1.402 . S
C1251 C418 1.425 . S
C1265 C541 1.402 . S
C1271 C450 1.425 . S
C1285 C548 1.396 . S
C1291 C386 1.421 . S
C1305 C326 1.869 . S
C1311 N18 1.940 1_565 S
C1325 N50 1.945 1_455 S
C1331 C354 1.869 . S
C1345 C290 1.884 . S
C1351 N82 1.941 . S
C1365 N114 1.939 1_455 S
C1371 C262 1.885 . S
C1385 N146 1.938 . S
C1391 C198 1.883 . S
C1405 C230 1.872 . S
C1411 N173 1.944 1_565 S
C1425 N210 1.938 . S
C1431 C518 1.875 . S
C1445 N242 1.938 . S
C1451 C546 1.885 . S
C1465 N274 1.938 . S
C1471 C482 1.873 . S
C1485 C454 1.881 . S
C1491 N301 1.943 . S
C1505 C390 1.885 . S
C1511 N338 1.938 . S
C1525 C422 1.879 . S
C1531 N365 1.943 . S
C1545 C134 1.886 . S
C1551 N402 1.939 . S
C1565 N434 1.938 . S
C1571 C162 1.885 . S
C1585 C102 1.868 . S
C1591 N466 1.940 . S
C1605 N493 1.937 . S
C1611 C70 1.879 . S
C1625 N530 1.938 . S
C1631 C6 1.885 . S
C1645 C38 1.884 . S
C1651 N557 1.941 . S
