# Generated by pormake.
# Topology zfy, (5)-cn, num edge types: 1
# Building blocks:
#     Node 0, Type 0, BuildingBlock: XOMCOT_clean_sbu_0, # of connection points: 5
#     Node 1, Type 0, BuildingBlock: XOMCOT_clean_sbu_0, # of connection points: 5
#     Node 2, Type 0, BuildingBlock: XOMCOT_clean_sbu_0, # of connection points: 5
#     Node 3, Type 0, BuildingBlock: XOMCOT_clean_sbu_0, # of connection points: 5
#     Node 4, Type 0, BuildingBlock: XOMCOT_clean_sbu_0, # of connection points: 5
#     Node 5, Type 0, BuildingBlock: XOMCOT_clean_sbu_0, # of connection points: 5
#     Node 6, Type 0, BuildingBlock: XOMCOT_clean_sbu_0, # of connection points: 5
#     Node 7, Type 0, BuildingBlock: XOMCOT_clean_sbu_0, # of connection points: 5
#     Node 8, Type 0, BuildingBlock: XOMCOT_clean_sbu_0, # of connection points: 5
#     Node 9, Type 0, BuildingBlock: XOMCOT_clean_sbu_0, # of connection points: 5
#     Node 10, Type 0, BuildingBlock: XOMCOT_clean_sbu_0, # of connection points: 5
#     Node 11, Type 0, BuildingBlock: XOMCOT_clean_sbu_0, # of connection points: 5
#     Node 12, Type 0, BuildingBlock: XOMCOT_clean_sbu_0, # of connection points: 5
#     Node 13, Type 0, BuildingBlock: XOMCOT_clean_sbu_0, # of connection points: 5
#     Node 14, Type 0, BuildingBlock: XOMCOT_clean_sbu_0, # of connection points: 5
#     Node 15, Type 0, BuildingBlock: XOMCOT_clean_sbu_0, # of connection points: 5
#     Edge 16, Type (0, 0), BuildingBlock: AJUNOK_clean_linker_0, # of connection points: 2
#     Edge 17, Type (0, 0), BuildingBlock: AJUNOK_clean_linker_0, # of connection points: 2
#     Edge 18, Type (0, 0), BuildingBlock: AJUNOK_clean_linker_0, # of connection points: 2
#     Edge 19, Type (0, 0), BuildingBlock: AJUNOK_clean_linker_0, # of connection points: 2
#     Edge 20, Type (0, 0), BuildingBlock: AJUNOK_clean_linker_0, # of connection points: 2
#     Edge 21, Type (0, 0), BuildingBlock: AJUNOK_clean_linker_0, # of connection points: 2
#     Edge 22, Type (0, 0), BuildingBlock: AJUNOK_clean_linker_0, # of connection points: 2
#     Edge 23, Type (0, 0), BuildingBlock: AJUNOK_clean_linker_0, # of connection points: 2
#     Edge 24, Type (0, 0), BuildingBlock: AJUNOK_clean_linker_0, # of connection points: 2
#     Edge 25, Type (0, 0), BuildingBlock: AJUNOK_clean_linker_0, # of connection points: 2
#     Edge 26, Type (0, 0), BuildingBlock: AJUNOK_clean_linker_0, # of connection points: 2
#     Edge 27, Type (0, 0), BuildingBlock: AJUNOK_clean_linker_0, # of connection points: 2
#     Edge 28, Type (0, 0), BuildingBlock: AJUNOK_clean_linker_0, # of connection points: 2
#     Edge 29, Type (0, 0), BuildingBlock: AJUNOK_clean_linker_0, # of connection points: 2
#     Edge 30, Type (0, 0), BuildingBlock: AJUNOK_clean_linker_0, # of connection points: 2
#     Edge 31, Type (0, 0), BuildingBlock: AJUNOK_clean_linker_0, # of connection points: 2
#     Edge 32, Type (0, 0), BuildingBlock: AJUNOK_clean_linker_0, # of connection points: 2
#     Edge 33, Type (0, 0), BuildingBlock: AJUNOK_clean_linker_0, # of connection points: 2
#     Edge 34, Type (0, 0), BuildingBlock: AJUNOK_clean_linker_0, # of connection points: 2
#     Edge 35, Type (0, 0), BuildingBlock: AJUNOK_clean_linker_0, # of connection points: 2
#     Edge 36, Type (0, 0), BuildingBlock: AJUNOK_clean_linker_0, # of connection points: 2
#     Edge 37, Type (0, 0), BuildingBlock: AJUNOK_clean_linker_0, # of connection points: 2
#     Edge 38, Type (0, 0), BuildingBlock: AJUNOK_clean_linker_0, # of connection points: 2
#     Edge 39, Type (0, 0), BuildingBlock: AJUNOK_clean_linker_0, # of connection points: 2
#     Edge 40, Type (0, 0), BuildingBlock: AJUNOK_clean_linker_0, # of connection points: 2
#     Edge 41, Type (0, 0), BuildingBlock: AJUNOK_clean_linker_0, # of connection points: 2
#     Edge 42, Type (0, 0), BuildingBlock: AJUNOK_clean_linker_0, # of connection points: 2
#     Edge 43, Type (0, 0), BuildingBlock: AJUNOK_clean_linker_0, # of connection points: 2
#     Edge 44, Type (0, 0), BuildingBlock: AJUNOK_clean_linker_0, # of connection points: 2
#     Edge 45, Type (0, 0), BuildingBlock: AJUNOK_clean_linker_0, # of connection points: 2
#     Edge 46, Type (0, 0), BuildingBlock: AJUNOK_clean_linker_0, # of connection points: 2
#     Edge 47, Type (0, 0), BuildingBlock: AJUNOK_clean_linker_0, # of connection points: 2
#     Edge 48, Type (0, 0), BuildingBlock: AJUNOK_clean_linker_0, # of connection points: 2
#     Edge 49, Type (0, 0), BuildingBlock: AJUNOK_clean_linker_0, # of connection points: 2
#     Edge 50, Type (0, 0), BuildingBlock: AJUNOK_clean_linker_0, # of connection points: 2
#     Edge 51, Type (0, 0), BuildingBlock: AJUNOK_clean_linker_0, # of connection points: 2
#     Edge 52, Type (0, 0), BuildingBlock: AJUNOK_clean_linker_0, # of connection points: 2
#     Edge 53, Type (0, 0), BuildingBlock: AJUNOK_clean_linker_0, # of connection points: 2
#     Edge 54, Type (0, 0), BuildingBlock: AJUNOK_clean_linker_0, # of connection points: 2
#     Edge 55, Type (0, 0), BuildingBlock: AJUNOK_clean_linker_0, # of connection points: 2
# Relax obj value: 0.183
# Max RMSD: 0.238
# Mean RMSD: 0.233
data_MOF--net-zfy--node1-XOMCOT_clean_sbu_0--edge1-AJUNOK_clean_linker_0
_symmetry_space_group_name_H-M    P1
_symmetry_Int_Tables_number       1
_symmetry_cell_setting            triclinic
loop_
_symmetry_equiv_pos_as_xyz
'x, y, z'
_cell_length_a     39.824423
_cell_length_b     39.966491
_cell_length_c     23.080392
_cell_angle_alpha  89.733694
_cell_angle_beta   90.314232
_cell_angle_gamma 90.079205
loop_
_atom_site_label
_atom_site_type_symbol
_atom_site_fract_x
_atom_site_fract_y
_atom_site_fract_z
_atom_type_partial_charge
Co0 Co 0.33851 0.21125 1.01598 0.0
C1 C 0.29146 0.23865 0.10823 0.0
C2 C 0.34275 0.25409 0.11724 0.0
C3 C 0.32467 0.26869 0.16041 0.0
N4 N 0.32212 0.23562 0.08339 0.0
N5 N 0.29252 0.25903 0.15488 0.0
H6 H 0.26908 0.22566 0.0945 0.0
H7 H 0.36962 0.25627 0.11224 0.0
C8 C 0.34537 0.16213 0.11347 0.0
O9 O 0.31418 0.16866 0.1276 0.0
N10 N 0.35722 0.18789 0.95082 0.0
C11 C 0.34681 0.18778 0.89524 0.0
C12 C 0.37199 0.17415 0.86173 0.0
C13 C 0.38817 0.17445 0.95051 0.0
N14 N 0.39806 0.16588 0.89674 0.0
C15 C 0.26858 0.20334 0.9901 0.0
C16 C 0.26851 0.13429 0.98432 0.0
C17 C 0.23909 0.15161 0.96894 0.0
C18 C 0.23938 0.18663 0.97277 0.0
C19 C 0.2971 0.15201 1.00228 0.0
N20 N 0.2968 0.18615 1.00591 0.0
H21 H 0.26869 0.23038 0.98985 0.0
H22 H 0.32005 0.13829 1.0101 0.0
H23 H 0.32363 0.1988 0.87974 0.0
H24 H 0.40388 0.17271 0.98879 0.0
O25 O 0.32765 0.24905 0.96688 0.0
O26 O 0.3763 0.24197 1.01179 0.0
O27 O 0.35856 0.17644 0.06947 0.0
C28 C 0.35751 0.26046 0.97824 0.0
H29 H 0.33467 0.28395 0.19514 0.0
H30 H 0.37192 0.1728 0.81494 0.0
H31 H 0.27009 0.1074 0.97967 0.0
H32 H 0.21744 0.20118 0.96096 0.0
Co33 Co 0.57507 0.59647 0.27483 0.0
C34 C 0.54134 0.55343 0.36771 0.0
C35 C 0.54889 0.60493 0.38967 0.0
C36 C 0.5341 0.58926 0.43575 0.0
N37 N 0.55396 0.58262 0.34701 0.0
N38 N 0.52934 0.55683 0.42229 0.0
H39 H 0.54046 0.53039 0.34396 0.0
H40 H 0.55622 0.63097 0.3877 0.0
C41 C 0.62817 0.60168 0.36458 0.0
O42 O 0.61871 0.57148 0.38022 0.0
N43 N 0.59568 0.61323 0.20494 0.0
C44 C 0.59155 0.60251 0.15008 0.0
C45 C 0.60729 0.6249 0.11327 0.0
C46 C 0.61378 0.64168 0.20094 0.0
N47 N 0.62138 0.64924 0.14561 0.0
C48 C 0.58027 0.52655 0.25174 0.0
C49 C 0.64903 0.5247 0.23734 0.0
C50 C 0.63006 0.49601 0.22479 0.0
C51 C 0.59533 0.49713 0.23291 0.0
C52 C 0.63291 0.55374 0.25639 0.0
N53 N 0.5989 0.55429 0.26455 0.0
H54 H 0.55324 0.5274 0.25252 0.0
H55 H 0.64763 0.57628 0.26118 0.0
H56 H 0.57718 0.58069 0.13761 0.0
H57 H 0.61989 0.65749 0.23745 0.0
O58 O 0.53557 0.58436 0.23246 0.0
O59 O 0.54361 0.63411 0.27173 0.0
O60 O 0.61334 0.6162 0.32196 0.0
C61 C 0.52403 0.61395 0.24256 0.0
H62 H 0.52831 0.60074 0.47688 0.0
H63 H 0.60794 0.62371 0.06644 0.0
H64 H 0.67582 0.5253 0.22949 0.0
H65 H 0.57966 0.47575 0.22268 0.0
Co66 Co 0.19422 0.81785 0.51285 0.0
C67 C 0.24127 0.78913 0.60606 0.0
C68 C 0.18876 0.78146 0.62099 0.0
C69 C 0.2062 0.76693 0.66562 0.0
N70 N 0.21044 0.7951 0.58277 0.0
N71 N 0.23915 0.77173 0.65647 0.0
H72 H 0.26468 0.79781 0.58823 0.0
H73 H 0.16172 0.78268 0.61757 0.0
C74 C 0.19165 0.86931 0.60393 0.0
O75 O 0.22292 0.86144 0.61593 0.0
N76 N 0.17559 0.83983 0.44504 0.0
C77 C 0.18523 0.83635 0.3895 0.0
C78 C 0.16259 0.85304 0.35429 0.0
C79 C 0.14747 0.85867 0.44302 0.0
N80 N 0.13914 0.86716 0.3882 0.0
C81 C 0.26385 0.82438 0.48523 0.0
C82 C 0.26258 0.89279 0.46713 0.0
C83 C 0.29125 0.87481 0.45148 0.0
C84 C 0.29195 0.84027 0.46182 0.0
C85 C 0.23508 0.87595 0.49064 0.0
N86 N 0.23594 0.84214 0.50004 0.0
H87 H 0.26385 0.79741 0.48834 0.0
H88 H 0.21219 0.88982 0.49724 0.0
H89 H 0.20658 0.82184 0.37548 0.0
H90 H 0.13254 0.86482 0.48052 0.0
O91 O 0.2049 0.77919 0.46766 0.0
O92 O 0.15618 0.78724 0.51119 0.0
O93 O 0.17571 0.85442 0.56331 0.0
C94 C 0.1751 0.76813 0.47942 0.0
H95 H 0.19543 0.75503 0.70347 0.0
H96 H 0.16294 0.85429 0.30743 0.0
H97 H 0.26079 0.91941 0.4586 0.0
H98 H 0.31312 0.82527 0.44831 0.0
Co99 Co 0.96065 0.4391 0.76749 0.0
C100 C 0.99668 0.48307 0.85539 0.0
C101 C 1.00181 0.43037 0.87044 0.0
C102 C 1.01922 0.4469 0.91287 0.0
N103 N 0.98778 0.45281 0.83382 0.0
N104 N 1.01621 0.48 0.90332 0.0
H105 H 0.98832 0.50684 0.83849 0.0
H106 H 0.99865 0.40355 0.86773 0.0
C107 C 0.91421 0.43426 0.86822 0.0
O108 O 0.92634 0.4631 0.88557 0.0
N109 N 0.9344 0.4234 0.70264 0.0
C110 C 0.93432 0.4355 0.64803 0.0
C111 C 0.91763 0.41306 0.61285 0.0
C112 C 0.91768 0.39407 0.70022 0.0
N113 N 0.9071 0.38729 0.646 0.0
C114 C 0.95745 0.5084 0.73959 0.0
C115 C 0.88857 0.51497 0.7449 0.0
C116 C 0.90758 0.54141 0.72166 0.0
C117 C 0.94255 0.53795 0.72031 0.0
C118 C 0.90446 0.48535 0.76228 0.0
N119 N 0.93863 0.48242 0.76025 0.0
H120 H 0.98433 0.50601 0.73565 0.0
H121 H 0.88897 0.46427 0.77421 0.0
H122 H 0.9471 0.45805 0.63426 0.0
H123 H 0.91526 0.37699 0.73648 0.0
O124 O 0.99741 0.4483 0.71644 0.0
O125 O 0.98901 0.39961 0.76055 0.0
O126 O 0.92528 0.42103 0.82173 0.0
C127 C 1.00712 0.41786 0.72569 0.0
H128 H 0.03145 0.43543 0.94995 0.0
H129 H 0.91444 0.41489 0.56634 0.0
H130 H 0.86151 0.51659 0.74794 0.0
H131 H 0.95837 0.5573 0.70195 0.0
Co132 Co 0.68914 0.83603 1.00867 0.0
C133 C 0.71961 0.81898 0.89369 0.0
C134 C 0.68892 0.77961 0.92725 0.0
C135 C 0.70103 0.76983 0.87457 0.0
N136 N 0.70168 0.80989 0.94092 0.0
N137 N 0.72057 0.79447 0.85335 0.0
H138 H 0.73016 0.84361 0.88746 0.0
H139 H 0.67089 0.76568 0.95238 0.0
C140 C 0.68979 0.76724 0.06192 0.0
O141 O 0.72165 0.76471 0.04825 0.0
N142 N 0.67438 0.86145 0.07451 0.0
C143 C 0.68615 0.89109 0.09318 0.0
C144 C 0.66372 0.9038 0.13261 0.0
C145 C 0.64537 0.85637 0.10282 0.0
N146 N 0.63784 0.8821 0.13817 0.0
C147 C 0.76121 0.84412 1.01225 0.0
C148 C 0.76828 0.83437 0.13023 0.0
C149 C 0.79583 0.84629 0.09868 0.0
C150 C 0.79231 0.85016 0.03873 0.0
C151 C 0.73778 0.82783 0.10181 0.0
N152 N 0.73419 0.83325 0.04345 0.0
H153 H 0.75849 0.85093 0.96752 0.0
H154 H 0.71638 0.82045 0.12752 0.0
H155 H 0.70835 0.90344 0.07673 0.0
H156 H 0.62969 0.8347 0.09571 0.0
O157 O 0.69544 0.87726 0.96669 0.0
O158 O 0.64775 0.84868 0.96886 0.0
O159 O 0.67324 0.79367 0.04889 0.0
C160 C 0.6639 0.87549 0.95238 0.0
H161 H 0.69595 0.74613 0.85378 0.0
H162 H 0.66533 0.92817 0.15271 0.0
H163 H 0.76986 0.83163 0.17688 0.0
H164 H 0.81267 0.86033 1.01314 0.0
Co165 Co 0.44883 0.43875 0.75994 0.0
C166 C 0.46977 0.46811 0.64456 0.0
C167 C 0.50625 0.43508 0.68149 0.0
C168 C 0.51809 0.44621 0.62927 0.0
N169 N 0.47653 0.4498 0.69283 0.0
N170 N 0.49507 0.46684 0.6056 0.0
H171 H 0.44641 0.4809 0.63621 0.0
H172 H 0.51848 0.41658 0.70837 0.0
C173 C 0.51715 0.44178 0.81504 0.0
O174 O 0.51968 0.47289 0.79697 0.0
N175 N 0.42202 0.42527 0.82544 0.0
C176 C 0.39374 0.43954 0.84531 0.0
C177 C 0.37838 0.41741 0.88286 0.0
C178 C 0.42353 0.39491 0.85092 0.0
N179 N 0.3972 0.38938 0.88621 0.0
C180 C 0.43612 0.50925 0.75603 0.0
C181 C 0.44777 0.52207 0.87186 0.0
C182 C 0.43236 0.54681 0.83757 0.0
C183 C 0.42783 0.54046 0.77856 0.0
C184 C 0.45602 0.49101 0.84732 0.0
N185 N 0.44985 0.48466 0.78991 0.0
H186 H 0.42835 0.50414 0.71249 0.0
H187 H 0.46505 0.47128 0.87551 0.0
H188 H 0.38379 0.46327 0.83046 0.0
H189 H 0.44186 0.37611 0.83954 0.0
O190 O 0.40845 0.44309 0.71471 0.0
O191 O 0.43784 0.39623 0.72335 0.0
O192 O 0.49057 0.42481 0.80445 0.0
C193 C 0.41112 0.41142 0.70359 0.0
H194 H 0.54224 0.44001 0.61108 0.0
H195 H 0.35433 0.42092 0.90359 0.0
H196 H 0.45122 0.5258 0.91796 0.0
H197 H 0.41582 0.55877 0.75059 0.0
Co198 Co 0.84822 0.19847 0.50785 0.0
C199 C 0.81789 0.21875 0.39247 0.0
C200 C 0.85229 0.25473 0.4268 0.0
C201 C 0.84095 0.26622 0.37432 0.0
N202 N 0.8369 0.22557 0.43989 0.0
N203 N 0.8195 0.2435 0.3522 0.0
H204 H 0.80436 0.19569 0.38575 0.0
H205 H 0.87136 0.26678 0.45273 0.0
C206 C 0.84544 0.26694 0.55958 0.0
O207 O 0.81444 0.26938 0.54035 0.0
N208 N 0.86211 0.17243 0.5742 0.0
C209 C 0.84713 0.14587 0.59945 0.0
C210 C 0.86908 0.13244 0.63991 0.0
C211 C 0.89275 0.17454 0.59866 0.0
N212 N 0.89764 0.15059 0.63891 0.0
C213 C 0.77672 0.18717 0.50696 0.0
C214 C 0.76655 0.20048 0.62284 0.0
C215 C 0.74021 0.18662 0.59037 0.0
C216 C 0.74527 0.18085 0.5314 0.0
C217 C 0.79744 0.20718 0.59638 0.0
N218 N 0.8025 0.20024 0.53901 0.0
H219 H 0.78089 0.17867 0.46362 0.0
H220 H 0.81805 0.21565 0.62321 0.0
H221 H 0.82282 0.13596 0.58725 0.0
H222 H 0.9119 0.192 0.58464 0.0
O223 O 0.84345 0.15797 0.46382 0.0
O224 O 0.8906 0.18711 0.47125 0.0
O225 O 0.86256 0.24042 0.55046 0.0
C226 C 0.87518 0.16062 0.4517 0.0
H227 H 0.84761 0.28996 0.35487 0.0
H228 H 0.86536 0.10977 0.6649 0.0
H229 H 0.76384 0.2045 0.66896 0.0
H230 H 0.72595 0.16894 0.50544 0.0
Co231 Co 0.0859 0.59278 0.25049 0.0
C232 C 0.0664 0.57231 0.12985 0.0
C233 C 0.02509 0.57141 0.18911 0.0
C234 C 1.01373 0.56092 0.13615 0.0
N235 N 0.05809 0.57884 0.18546 0.0
N236 N 0.03962 0.56127 0.09893 0.0
H237 H 0.09153 0.57466 0.11275 0.0
H238 H 1.01023 0.57197 0.22808 0.0
C239 C 0.03528 0.61375 0.34394 0.0
O240 O 0.05781 0.61246 0.38556 0.0
N241 N 0.11316 0.60736 0.31503 0.0
C242 C 0.13762 0.59065 0.3435 0.0
C243 C 0.15263 0.6122 0.38242 0.0
C244 C 0.11439 0.63888 0.33534 0.0
N245 N 0.13753 0.64228 0.37758 0.0
C246 C 0.09884 0.52327 0.24414 0.0
C247 C 0.08542 0.50616 0.35768 0.0
C248 C 0.10228 0.4831 0.32266 0.0
C249 C 0.1074 0.49144 0.26442 0.0
C250 C 0.07701 0.53785 0.33544 0.0
N251 N 0.08525 0.54671 0.27999 0.0
H252 H 0.10518 0.52978 0.20009 0.0
H253 H 0.06608 0.55552 0.36436 0.0
H254 H 0.14475 0.565 0.33544 0.0
H255 H 0.09891 0.65905 0.3188 0.0
O256 O 0.12667 0.58919 0.20615 0.0
O257 O 0.09592 0.6351 0.21134 0.0
O258 O 0.04289 0.60641 0.29166 0.0
C259 C 0.12317 0.6206 0.19295 0.0
H260 H 0.98873 0.55173 0.12658 0.0
H261 H 0.17331 0.60641 0.41139 0.0
H262 H 0.08077 0.50062 0.40292 0.0
H263 H 0.11957 0.47408 0.2354 0.0
Co264 Co 0.84896 0.71409 0.5263 0.0
C265 C 0.80559 0.7497 0.61651 0.0
C266 C 0.85636 0.73894 0.64152 0.0
C267 C 0.84132 0.75525 0.6862 0.0
N268 N 0.83423 0.73511 0.59764 0.0
N269 N 0.80955 0.76245 0.67049 0.0
H270 H 0.7824 0.75114 0.59242 0.0
H271 H 0.88194 0.72988 0.64123 0.0
C272 C 0.8501 0.66021 0.61427 0.0
O273 O 0.81925 0.66909 0.62679 0.0
N274 N 0.86714 0.69328 0.45811 0.0
C275 C 0.85462 0.69037 0.40405 0.0
C276 C 0.87807 0.67381 0.37057 0.0
C277 C 0.89771 0.67906 0.45675 0.0
N278 N 0.90499 0.66648 0.40419 0.0
C279 C 0.77889 0.71101 0.49845 0.0
C280 C 0.77543 0.64263 0.48257 0.0
C281 C 0.74704 0.66215 0.47004 0.0
C282 C 0.74904 0.69674 0.47833 0.0
C283 C 0.80486 0.65795 0.50256 0.0
N284 N 0.80615 0.69171 0.51189 0.0
H285 H 0.7805 0.7379 0.50019 0.0
H286 H 0.82714 0.64282 0.50759 0.0
H287 H 0.8304 0.69967 0.38999 0.0
H288 H 0.91473 0.67902 0.49344 0.0
O289 O 0.83941 0.75401 0.48342 0.0
O290 O 0.88781 0.7439 0.52778 0.0
O291 O 0.86638 0.67537 0.57436 0.0
C292 C 0.86929 0.76425 0.49687 0.0
H293 H 0.85261 0.76021 0.72806 0.0
H294 H 0.87548 0.6676 0.32517 0.0
H295 H 0.77541 0.61596 0.47446 0.0
H296 H 0.72794 0.71281 0.46795 0.0
Co297 Co 0.07248 0.08466 0.76473 0.0
C298 C 0.04815 0.05944 0.88073 0.0
C299 C 1.01881 0.04104 0.80973 0.0
C300 C 1.00536 0.02882 0.85994 0.0
N301 N 0.04629 0.05972 0.82207 0.0
N302 N 0.0239 0.04012 0.90449 0.0
H303 H 0.06592 0.07369 0.90603 0.0
H304 H 1.0084 0.03678 0.76714 0.0
C305 C 0.12545 0.08246 0.86044 0.0
O306 O 0.12143 0.04999 0.8665 0.0
N307 N 0.097 0.10939 0.70687 0.0
C308 C 0.10073 0.10025 0.65122 0.0
C309 C 0.11541 0.12618 0.62138 0.0
C310 C 0.10926 0.14077 0.71026 0.0
N311 N 0.12098 0.15161 0.65853 0.0
C312 C 0.07955 0.01828 0.7216 0.0
C313 C 0.14879 1.01548 0.7242 0.0
C314 C 0.13078 0.98803 0.70218 0.0
C315 C 0.09568 0.98993 0.70088 0.0
C316 C 0.13159 0.04395 0.74274 0.0
N317 N 0.09728 0.04459 0.74356 0.0
H318 H 0.05271 0.0195 0.71733 0.0
H319 H 0.14595 0.06567 0.75544 0.0
H320 H 0.09184 0.07694 0.63303 0.0
H321 H 0.10856 0.15568 0.74925 0.0
O322 O 0.03622 0.08055 0.70975 0.0
O323 O 0.04163 0.12178 0.7734 0.0
O324 O 0.10735 0.09883 0.82416 0.0
C325 C 0.0245 0.108 0.73155 0.0
H326 H 0.9839 1.01227 0.86344 0.0
H327 H 0.11968 0.12687 0.57514 0.0
H328 H 0.17592 1.01526 0.72675 0.0
H329 H 0.08063 0.97003 0.68237 0.0
Co330 Co 0.69027 0.32724 0.02325 0.0
C331 C 0.73263 0.29041 0.11397 0.0
C332 C 0.68107 0.29809 0.13619 0.0
C333 C 0.69665 0.28252 0.18182 0.0
N334 N 0.70346 0.30349 0.0936 0.0
N335 N 0.72915 0.27769 0.16828 0.0
H336 H 0.75577 0.29006 0.0903 0.0
H337 H 0.65515 0.30609 0.13483 0.0
C338 C 0.68888 0.37841 0.11623 0.0
O339 O 0.71845 0.36701 0.13222 0.0
N340 N 0.67425 0.35071 0.95532 0.0
C341 C 0.68507 0.34817 0.90029 0.0
C342 C 0.66241 0.3644 0.86439 0.0
C343 C 0.64556 0.36851 0.95238 0.0
N344 N 0.63786 0.37728 0.89751 0.0
C345 C 0.76041 0.32817 0.99744 0.0
C346 C 0.76742 0.3968 0.98986 0.0
C347 C 0.79471 0.37646 0.97507 0.0
C348 C 0.79095 0.34173 0.97951 0.0
C349 C 0.73723 0.38215 1.0078 0.0
N350 N 0.73416 0.34816 1.01279 0.0
H351 H 0.7575 0.30134 0.99628 0.0
H352 H 0.71581 0.39819 1.01439 0.0
H353 H 0.70687 0.3341 0.88697 0.0
H354 H 0.62949 0.37317 0.98914 0.0
O355 O 0.69834 0.28815 0.9774 0.0
O356 O 0.65002 0.29936 1.02053 0.0
O357 O 0.67374 0.36534 0.07281 0.0
C358 C 0.66763 0.27954 0.98784 0.0
H359 H 0.68513 0.27656 0.22297 0.0
H360 H 0.66331 0.36583 0.81757 0.0
H361 H 0.76877 0.42371 0.98468 0.0
H362 H 0.81115 0.32508 0.96744 0.0
Co363 Co 0.46574 0.94548 0.26961 0.0
C364 C 0.49839 0.99308 0.35392 0.0
C365 C 0.49286 0.94264 0.38528 0.0
C366 C 0.50941 0.96077 0.42666 0.0
N367 N 0.48615 0.96261 0.33951 0.0
N368 N 0.51303 0.9923 0.407 0.0
H369 H 0.49667 1.01513 0.32668 0.0
H370 H 0.48607 0.91648 0.3883 0.0
C371 C 0.39503 0.93158 0.30391 0.0
O372 O 0.38565 0.94444 0.25387 0.0
N373 N 0.44548 0.92498 0.20135 0.0
C374 C 0.44717 0.93258 0.14429 0.0
C375 C 0.43459 0.90599 0.11271 0.0
C376 C 0.43279 0.89364 0.20304 0.0
N377 N 0.42599 0.88142 0.14993 0.0
C378 C 0.45637 1.00563 0.20426 0.0
C379 C 0.40822 0.03489 0.27293 0.0
C380 C 0.41695 0.05056 0.22047 0.0
C381 C 0.44175 0.03563 0.18655 0.0
C382 C 0.4234 1.00447 0.28882 0.0
N383 N 0.4457 0.98917 0.25269 0.0
H384 H 0.47638 0.99565 0.17844 0.0
H385 H 0.41709 0.99329 0.33003 0.0
H386 H 0.45857 0.95452 0.12569 0.0
H387 H 0.4297 0.87958 0.24281 0.0
O388 O 0.50731 0.95187 0.22907 0.0
O389 O 0.49333 0.9056 0.27692 0.0
O390 O 0.42616 0.93058 0.31741 0.0
C391 C 0.51509 0.92182 0.24562 0.0
H392 H 0.51727 0.95184 0.46898 0.0
H393 H 0.43375 0.90408 0.06596 0.0
H394 H 0.38986 0.04603 0.30138 0.0
H395 H 0.44946 0.04656 0.14572 0.0
Co396 Co 0.19035 0.33469 0.50465 0.0
C397 C 0.20776 0.30836 0.38666 0.0
C398 C 0.22581 0.27781 0.45686 0.0
C399 C 0.2346 0.26288 0.40587 0.0
N400 N 0.20867 0.30611 0.44516 0.0
N401 N 0.2231 0.28192 0.36179 0.0
H402 H 0.1968 0.32895 0.36261 0.0
H403 H 0.23256 0.26924 0.49983 0.0
C404 C 0.16259 0.28575 0.59565 0.0
O405 O 0.15813 0.30959 0.63367 0.0
N406 N 0.17155 0.36292 0.56424 0.0
C407 C 0.18711 0.38342 0.60225 0.0
C408 C 0.16321 0.39735 0.63788 0.0
C409 C 0.1385 0.36606 0.57523 0.0
N410 N 0.13285 0.3863 0.62045 0.0
C411 C 0.26014 0.34834 0.51143 0.0
C412 C 0.27037 0.33072 0.62599 0.0
C413 C 0.29619 0.34694 0.59579 0.0
C414 C 0.29132 0.35452 0.53718 0.0
C415 C 0.23964 0.32454 0.59831 0.0
N416 N 0.23431 0.33481 0.54247 0.0
H417 H 0.25626 0.35575 0.46681 0.0
H418 H 0.21979 0.31369 0.62335 0.0
H419 H 0.21385 0.38798 0.60439 0.0
H420 H 0.11901 0.35229 0.55273 0.0
O421 O 0.19629 0.3742 0.45753 0.0
O422 O 0.15027 0.34311 0.45781 0.0
O423 O 0.17547 0.29208 0.546 0.0
C424 C 0.16573 0.36982 0.43911 0.0
H425 H 0.24995 0.24071 0.40149 0.0
H426 H 0.16766 0.41433 0.67352 0.0
H427 H 0.27336 0.32442 0.67143 0.0
H428 H 0.31068 0.36712 0.51249 0.0
Co429 Co 0.95102 0.93743 0.26199 0.0
C430 C 0.97883 0.97556 0.15877 0.0
C431 C 1.00037 0.92704 0.17212 0.0
C432 C 1.01585 0.94168 0.12542 0.0
N433 N 0.97733 0.94827 0.19366 0.0
N434 N 1.00241 0.97224 0.11739 0.0
H435 H 0.9634 0.99748 0.16233 0.0
H436 H 1.00553 0.90236 0.18938 0.0
C437 C 0.02206 0.93813 0.3056 0.0
O438 O 0.02566 0.96829 0.28363 0.0
N439 N 0.92623 0.92472 0.32983 0.0
C440 C 0.90037 0.94061 0.35498 0.0
C441 C 0.88807 0.92036 0.3985 0.0
C442 C 0.92929 0.89528 0.3578 0.0
N443 N 0.90634 0.8919 0.40014 0.0
C444 C 0.93383 1.00636 0.26153 0.0
C445 C 0.95712 0.02202 0.37092 0.0
C446 C 0.93719 0.0454 0.34086 0.0
C447 C 0.92659 0.03752 0.28476 0.0
C448 C 0.96443 0.99097 0.34534 0.0
N449 N 0.95279 0.98339 0.29099 0.0
H450 H 0.92172 0.99995 0.22125 0.0
H451 H 0.97702 0.97217 0.37122 0.0
H452 H 0.89031 0.96448 0.34114 0.0
H453 H 0.94638 0.87579 0.34445 0.0
O454 O 0.90935 0.94116 0.21932 0.0
O455 O 0.93887 0.8946 0.22669 0.0
O456 O 0.99379 0.92308 0.30251 0.0
C457 C 0.91185 0.90956 0.2078 0.0
H458 H 0.03468 0.9303 0.09824 0.0
H459 H 0.86642 0.92552 0.42513 0.0
H460 H 0.96492 0.02663 0.41519 0.0
H461 H 0.91077 0.05455 0.26023 0.0
Co462 Co 0.3463 0.69998 1.00887 0.0
C463 C 0.32738 0.7224 0.88818 0.0
C464 C 0.32092 0.7604 0.95251 0.0
C465 C 0.31166 0.77341 0.89978 0.0
N466 N 0.33121 0.72855 0.94552 0.0
N467 N 0.31586 0.74968 0.85927 0.0
H468 H 0.33199 0.69845 0.8681 0.0
H469 H 0.31883 0.77303 0.9936 0.0
C470 C 0.37432 0.74911 0.09952 0.0
O471 O 0.37399 0.72658 0.14099 0.0
N472 N 0.36209 0.67181 0.07189 0.0
C473 C 0.34473 0.64939 0.1037 0.0
C474 C 0.36643 0.63444 0.14266 0.0
C475 C 0.39427 0.66894 0.0899 0.0
N476 N 0.39752 0.64691 0.13393 0.0
C477 C 0.27552 0.69113 1.00818 0.0
C478 C 0.26411 0.70247 0.1243 0.0
C479 C 0.23832 0.68851 0.09053 0.0
C480 C 0.24386 0.68418 0.03128 0.0
C481 C 0.29526 0.70987 0.0991 0.0
N482 N 0.30126 0.70246 0.04234 0.0
H483 H 0.28 0.68529 0.96321 0.0
H484 H 0.31501 0.71883 0.12668 0.0
H485 H 0.31823 0.64409 0.09894 0.0
H486 H 0.41484 0.6832 0.07173 0.0
O487 O 0.33938 0.66002 0.96378 0.0
O488 O 0.387 0.68857 0.96666 0.0
O489 O 0.36294 0.74235 0.04887 0.0
C490 C 0.37058 0.66242 0.94808 0.0
H491 H 0.30067 0.79783 0.89233 0.0
H492 H 0.35969 0.61615 0.17532 0.0
H493 H 0.26076 0.70605 0.1704 0.0
H494 H 0.22467 0.67319 1.00386 0.0
Co495 Co 0.58652 0.09732 0.75699 0.0
C496 C 0.56697 0.07913 0.6348 0.0
C497 C 0.53111 0.06385 0.69886 0.0
C498 C 0.51886 0.05526 0.64538 0.0
N499 N 0.56102 0.0792 0.69253 0.0
N500 N 0.5413 0.06484 0.6052 0.0
H501 H 0.58947 0.08886 0.61479 0.0
H502 H 0.51936 0.05842 0.73994 0.0
C503 C 0.53321 0.12284 0.84137 0.0
O504 O 0.55539 0.12549 0.8833 0.0
N505 N 0.61169 0.11622 0.82122 0.0
C506 C 0.63297 0.10117 0.85882 0.0
C507 C 0.64566 0.12504 0.89612 0.0
C508 C 0.61308 0.14907 0.83429 0.0
N509 N 0.63306 0.15503 0.88035 0.0
C510 C 0.59967 0.02774 0.76197 0.0
C511 C 0.58294 1.01636 0.87628 0.0
C512 C 0.59933 0.9911 0.84539 0.0
C513 C 0.60646 0.99657 0.78694 0.0
C514 C 0.57589 0.04706 0.8492 0.0
N515 N 0.58579 0.05303 0.79348 0.0
H516 H 0.60723 0.03216 0.71769 0.0
H517 H 0.56482 0.06645 0.87465 0.0
H518 H 0.63927 0.07487 0.8589 0.0
H519 H 0.59863 0.16809 0.81183 0.0
O520 O 0.62852 0.09233 0.71699 0.0
O521 O 0.59664 0.13761 0.71216 0.0
O522 O 0.54166 0.11137 0.79177 0.0
C523 C 0.62474 0.12286 0.69865 0.0
H524 H 0.4959 0.04157 0.63673 0.0
H525 H 0.66329 0.12085 0.93127 0.0
H526 H 0.57716 1.01296 0.92174 0.0
H527 H 0.6193 0.97771 0.76181 0.0
C528 C 0.49185 0.15448 0.90058 0.0
C529 C 0.49815 0.13378 0.85271 0.0
C530 C 0.45935 0.16503 0.91397 0.0
C531 C 0.43139 0.15512 0.88056 0.0
H532 H 0.51228 0.16297 0.92802 0.0
H533 H 0.45629 0.18145 0.9507 0.0
S534 S 0.43386 0.10057 0.75091 0.0
N535 N 0.47352 0.10397 0.77121 0.0
N536 N 0.41217 0.12291 0.79762 0.0
C537 C 0.4372 0.13454 0.8323 0.0
C538 C 0.47057 0.12407 0.81815 0.0
C539 C 0.62424 0.69911 0.08227 0.0
C540 C 0.63864 0.6787 0.12548 0.0
C541 C 0.64044 0.72839 0.06326 0.0
C542 C 0.67206 0.73767 0.08561 0.0
H543 H 0.6001 0.69255 0.06372 0.0
H544 H 0.62851 0.74342 0.02986 0.0
S545 S 0.72006 0.69276 0.19992 0.0
N546 N 0.68568 0.67012 0.19111 0.0
N547 N 0.71685 0.72435 0.15378 0.0
C548 C 0.6867 0.71739 0.12873 0.0
C549 C 0.66979 0.68812 0.14912 0.0
C550 C 0.08673 0.86991 0.33105 0.0
C551 C 0.10968 0.885 0.36932 0.0
C552 C 0.05789 0.88701 0.31199 0.0
C553 C 0.05161 0.92015 0.32918 0.0
H554 H 0.09107 0.84462 0.31622 0.0
H555 H 0.04082 0.8745 0.28245 0.0
S556 S 0.10403 0.97053 0.42939 0.0
N557 N 0.12393 0.93437 0.42499 0.0
N558 N 0.07053 0.9672 0.38717 0.0
C559 C 0.07447 0.93551 0.36731 0.0
C560 C 0.10329 0.91773 0.38799 0.0
C561 C 0.90809 0.3369 0.58504 0.0
C562 C 0.89189 0.35676 0.62641 0.0
C563 C 0.89351 0.30701 0.56535 0.0
C564 C 0.86177 0.29664 0.58512 0.0
H565 H 0.93226 0.34452 0.56817 0.0
H566 H 0.90668 0.29247 0.53317 0.0
S567 S 0.80977 0.3396 0.6947 0.0
N568 N 0.84344 0.36352 0.68834 0.0
N569 N 0.81509 0.30817 0.64936 0.0
C570 C 0.84547 0.31627 0.62674 0.0
C571 C 0.8608 0.34613 0.64796 0.0
C572 C 0.60714 0.90899 0.21815 0.0
C573 C 0.60699 0.88789 0.16935 0.0
C574 C 0.5772 0.9185 0.24508 0.0
C575 C 0.54616 0.9065 0.2252 0.0
H576 H 0.63052 0.91904 0.23468 0.0
H577 H 0.57824 0.93613 0.28058 0.0
S578 S 0.53086 0.85075 0.10047 0.0
N579 N 0.57203 0.85564 0.10243 0.0
N580 N 0.51628 0.87233 0.15564 0.0
C581 C 0.5454 0.88439 0.17846 0.0
C582 C 0.57572 0.87525 0.14995 0.0
C583 C 0.34495 0.31514 0.92988 0.0
C584 C 0.36862 0.29351 0.95577 0.0
C585 C 0.35431 0.34668 0.90858 0.0
C586 C 0.38777 0.35777 0.91177 0.0
H587 H 0.31887 0.30774 0.92601 0.0
H588 H 0.33532 0.36218 0.88816 0.0
S589 S 0.45941 0.31132 0.97636 0.0
N590 N 0.42706 0.28583 0.98418 0.0
N591 N 0.44454 0.34513 0.94383 0.0
C592 C 0.4117 0.33658 0.93777 0.0
C593 C 0.40215 0.30449 0.95992 0.0
C594 C 0.98799 0.12561 0.64987 0.0
C595 C 0.99271 0.12185 0.70987 0.0
C596 C 0.95696 0.13574 0.62717 0.0
C597 C 0.92944 0.14143 0.66363 0.0
H598 H 1.00838 0.12048 0.6203 0.0
H599 H 0.95411 0.1383 0.58068 0.0
S600 S 0.92867 0.13416 0.82349 0.0
N601 N 0.96759 0.12459 0.8054 0.0
N602 N 0.90866 0.14254 0.76217 0.0
C603 C 0.93377 0.13765 0.72361 0.0
C604 C 0.96565 0.12817 0.74693 0.0
C605 C 0.17992 0.68143 0.41507 0.0
C606 C 0.1461 0.67266 0.40725 0.0
C607 C 0.18883 0.7122 0.43936 0.0
C608 C 0.16426 0.73516 0.45751 0.0
H609 H 0.19959 0.66485 0.40051 0.0
H610 H 0.21529 0.71813 0.44341 0.0
S611 S 0.07206 0.72273 0.45041 0.0
N612 N 0.08784 0.68828 0.42221 0.0
N613 N 0.10461 0.74623 0.46843 0.0
C614 C 0.1303 0.72617 0.45184 0.0
C615 C 0.12122 0.69491 0.42644 0.0
C616 C 0.94966 0.65561 0.33217 0.0
C617 C 0.93599 0.65041 0.38765 0.0
C618 C 0.98135 0.64273 0.31751 0.0
C619 C 1.00063 0.62447 0.358 0.0
H620 H 0.93632 0.67071 0.30056 0.0
H621 H 0.99131 0.64816 0.2749 0.0
S622 S 0.97396 0.59927 0.50568 0.0
N623 N 0.94247 0.62196 0.48043 0.0
N624 N 1.00225 0.59889 0.45369 0.0
C625 C 0.9866 0.61783 0.41261 0.0
C626 C 0.95425 0.6305 0.42722 0.0
C627 C 0.12031 0.21291 0.67275 0.0
C628 C 0.13302 0.18469 0.64405 0.0
C629 C 0.13026 0.24535 0.65702 0.0
C630 C 0.15313 0.25096 0.61164 0.0
H631 H 0.10189 0.21001 0.70671 0.0
H632 H 0.11936 0.26623 0.68 0.0
S633 S 0.19613 0.18537 0.52625 0.0
N634 N 0.17175 0.16437 0.57117 0.0
N635 N 0.18948 0.22524 0.54028 0.0
C636 C 0.16646 0.22291 0.58328 0.0
C637 C 0.15667 0.18985 0.59981 0.0
C638 C 0.55629 0.39293 0.8195 0.0
C639 C 0.54715 0.4249 0.83936 0.0
C640 C 0.58629 0.3777 0.83793 0.0
C641 C 0.60757 0.39346 0.87819 0.0
H642 H 0.54064 0.37997 0.78829 0.0
H643 H 0.5928 0.3533 0.82117 0.0
S644 S 0.59409 0.47601 0.94628 0.0
N645 N 0.56146 0.47133 0.90248 0.0
N646 N 0.617 0.44184 0.93916 0.0
C647 C 0.59823 0.42483 0.89977 0.0
C648 C 0.56824 0.44079 0.87978 0.0
C649 C 0.39087 0.84305 0.09139 0.0
C650 C 0.41443 0.84814 0.13613 0.0
C651 C 0.37817 0.81096 0.0793 0.0
C652 C 0.38849 0.78279 0.11172 0.0
H653 H 0.38167 0.86416 0.06641 0.0
H654 H 0.35971 0.80836 0.04504 0.0
S655 S 0.4535 0.78211 0.22771 0.0
N656 N 0.45032 0.82182 0.20855 0.0
N657 N 0.42612 0.76185 0.18691 0.0
C658 C 0.41293 0.78747 0.15526 0.0
C659 C 0.42598 0.82002 0.16719 0.0
C660 C 0.09597 0.38752 0.70582 0.0
C661 C 0.10092 0.3929 0.64621 0.0
C662 C 0.06459 0.39354 0.73121 0.0
C663 C 0.03768 0.40571 0.69771 0.0
H664 H 0.1165 0.37863 0.73269 0.0
H665 H 0.06177 0.39003 0.77752 0.0
S666 S 0.03794 0.42331 0.53992 0.0
N667 N 0.07636 0.41003 0.5544 0.0
N668 N 1.01771 0.42239 0.60222 0.0
C669 C 0.0423 0.41078 0.63807 0.0
C670 C 0.07389 0.40405 0.61221 0.0
C671 C 0.86444 0.85232 0.43773 0.0
C672 C 0.8982 0.86146 0.43059 0.0
C673 C 0.85569 0.82116 0.4607 0.0
C674 C 0.88032 0.79785 0.47792 0.0
H675 H 0.84453 0.86879 0.42316 0.0
H676 H 0.82924 0.8151 0.46393 0.0
S677 S 0.97244 0.81078 0.47312 0.0
N678 N 0.95656 0.84575 0.44618 0.0
N679 N 0.93999 0.7868 0.48955 0.0
C680 C 0.91424 0.80713 0.47347 0.0
C681 C 0.9232 0.83898 0.44959 0.0
C682 C 0.48239 0.65627 0.20543 0.0
C683 C 0.49025 0.62311 0.22068 0.0
C684 C 0.45182 0.66398 0.17761 0.0
C685 C 0.42799 0.63887 0.16494 0.0
H686 H 0.50038 0.67613 0.21308 0.0
H687 H 0.44685 0.68971 0.16556 0.0
S688 S 0.4359 0.54849 0.19892 0.0
N689 N 0.47101 0.56525 0.22365 0.0
N690 N 0.41413 0.57982 0.17105 0.0
C691 C 0.43519 0.60588 0.18172 0.0
C692 C 0.46619 0.598 0.20965 0.0
C693 C 0.63902 0.19016 0.96769 0.0
C694 C 0.6394 0.18689 0.90696 0.0
C695 C 0.64593 0.22105 0.99417 0.0
C696 C 0.65386 0.24932 0.96059 0.0
H697 H 0.63357 0.16862 0.9947 0.0
H698 H 0.6465 0.22247 0.04104 0.0
S699 S 0.6582 0.25392 0.80044 0.0
N700 N 0.64789 0.21467 0.81437 0.0
N701 N 0.66144 0.27239 0.86409 0.0
C702 C 0.65386 0.24646 0.90003 0.0
C703 C 0.64641 0.21531 0.87316 0.0
C704 C 0.26424 0.29829 0.21982 0.0
C705 C 0.267 0.26582 0.19694 0.0
C706 C 0.24684 0.30415 0.27139 0.0
C707 C 0.23207 0.27759 0.30207 0.0
H708 H 0.27759 0.31886 0.19965 0.0
H709 H 0.24743 0.32901 0.28985 0.0
S710 S 0.22791 0.18894 0.25617 0.0
N711 N 0.25026 0.2076 0.20527 0.0
N712 N 0.21749 0.21857 0.30237 0.0
C713 C 0.23211 0.2456 0.27699 0.0
C714 C 0.24957 0.2397 0.22424 0.0
C715 C 0.48549 0.51909 0.55064 0.0
C716 C 0.49897 0.48666 0.55351 0.0
C717 C 0.49391 0.54105 0.50553 0.0
C718 C 0.51644 0.53169 0.46159 0.0
H719 H 0.46974 0.5283 0.58512 0.0
H720 H 0.48362 0.56608 0.50636 0.0
S721 S 0.55425 0.44751 0.44386 0.0
N722 N 0.53182 0.44445 0.50358 0.0
N723 N 0.54931 0.48635 0.42078 0.0
C724 C 0.52823 0.49852 0.46163 0.0
C725 C 0.51917 0.47592 0.50719 0.0
C726 C 0.26336 0.73267 0.72801 0.0
C727 C 0.26504 0.76336 0.69785 0.0
C728 C 0.28249 0.72698 0.77831 0.0
C729 C 0.30366 0.752 0.80053 0.0
H730 H 0.24558 0.7137 0.71443 0.0
H731 H 0.27867 0.70399 0.8024 0.0
S732 S 0.32071 0.83475 0.73349 0.0
N733 N 0.29233 0.81754 0.69046 0.0
N734 N 0.32844 0.80684 0.78488 0.0
C735 C 0.30767 0.78165 0.76815 0.0
C736 C 0.28836 0.78734 0.71674 0.0
C737 C 1.00354 0.5309 0.95882 0.0
C738 C 0.02628 0.50568 0.94339 0.0
C739 C 1.00951 0.55103 1.00736 0.0
C740 C 0.03848 0.54681 0.04192 0.0
H741 H 0.97985 0.53339 0.93596 0.0
H742 H 0.99039 0.56873 1.02009 0.0
S743 S 0.10823 0.48784 1.01397 0.0
N744 N 0.08087 0.48056 0.96147 0.0
N745 N 0.09178 0.51797 0.05343 0.0
C746 C 0.06275 0.5237 0.0239 0.0
C747 C 0.05666 0.50318 0.97448 0.0
C748 C 0.75222 0.76303 0.7104 0.0
C749 C 0.78467 0.77667 0.70818 0.0
C750 C 0.73042 0.77095 0.75585 0.0
C751 C 0.74035 0.79256 0.80107 0.0
H752 H 0.74442 0.74447 0.67904 0.0
H753 H 0.70614 0.75878 0.7569 0.0
S754 S 0.82082 0.83952 0.80863 0.0
N755 N 0.82372 0.81701 0.74912 0.0
N756 N 0.78374 0.83051 0.8362 0.0
C757 C 0.77175 0.80854 0.79639 0.0
C758 C 0.79366 0.80086 0.74959 0.0
C759 C 0.74477 0.24257 0.25256 0.0
C760 C 0.75436 0.26465 0.20774 0.0
C761 C 0.76677 0.2342 0.29788 0.0
C762 C 0.79954 0.24721 0.30005 0.0
H763 H 0.7195 0.2326 0.25394 0.0
H764 H 0.75736 0.21888 0.33303 0.0
S765 S 0.83953 0.30078 0.18788 0.0
N766 N 0.80038 0.29639 0.16539 0.0
N767 N 0.84236 0.27878 0.24838 0.0
C768 C 0.81054 0.26679 0.2528 0.0
C769 C 0.78787 0.27588 0.20711 0.0
C770 C 0.98204 1.00901 0.03896 0.0
C771 C 1.00893 0.99455 0.06967 0.0
C772 C 0.98743 0.02605 0.98666 0.0
C773 C 0.0199 0.02965 0.96373 0.0
H774 H 0.9565 1.00532 0.05357 0.0
H775 H 0.9659 0.03517 0.96248 0.0
S776 S 0.09909 1.0003 0.03182 0.0
N777 N 0.06943 0.98792 0.07689 0.0
N778 N 0.07956 0.02 0.97837 0.0
C779 C 0.04721 0.01748 0.99623 0.0
C780 C 0.0417 0.99982 0.04921 0.0
C781 C 0.50191 0.04258 0.46375 0.0
C782 C 0.52499 0.01929 0.44226 0.0
C783 C 0.50889 0.06037 0.51472 0.0
C784 C 0.53931 0.05575 0.54511 0.0
H785 H 0.47707 0.04432 0.44465 0.0
H786 H 0.48934 0.07574 0.53321 0.0
S787 S 0.60971 1.0013 0.50121 0.0
N788 N 0.58066 0.99533 0.4509 0.0
N789 N 0.59406 0.02924 0.54615 0.0
C790 C 0.56391 0.03529 0.52044 0.0
C791 C 0.55663 1.01691 0.46906 0.0
C792 C 0.16559 0.13053 0.86898 0.0
C793 C 0.15335 0.09999 0.89111 0.0
C794 C 0.19297 0.14695 0.89468 0.0
C795 C 0.20927 0.1338 0.94409 0.0
H796 H 0.15448 0.14158 0.83047 0.0
H797 H 0.20189 0.16985 0.87471 0.0
S798 S 0.18535 0.05596 0.02215 0.0
N799 N 0.15876 0.05797 0.96709 0.0
N800 N 0.20972 0.08927 1.01626 0.0
C801 C 0.19683 0.10365 0.96755 0.0
C802 C 0.16904 0.08671 0.94096 0.0
C803 C 0.63131 0.45173 0.14848 0.0
C804 C 0.64566 0.46595 0.19853 0.0
C805 C 0.64529 0.42338 0.12258 0.0
C806 C 0.67424 0.40799 0.14565 0.0
H807 H 0.60927 0.46288 0.12863 0.0
H808 H 0.6334 0.4137 0.08379 0.0
S809 S 0.72063 0.43484 0.27779 0.0
N810 N 0.68975 0.46214 0.27125 0.0
N811 N 0.71632 0.40891 0.22276 0.0
C812 C 0.68873 0.42189 0.19604 0.0
C813 C 0.67443 0.45086 0.22233 0.0
C814 C 0.31007 0.90965 0.36765 0.0
C815 C 0.31834 0.89108 0.4176 0.0
C816 C 0.33503 0.9229 0.33173 0.0
C817 C 0.36935 0.91831 0.34442 0.0
H818 H 0.28403 0.91314 0.35522 0.0
H819 H 0.32724 0.93656 0.29332 0.0
S820 S 0.40413 0.87322 0.47252 0.0
N821 N 0.36302 0.86994 0.47962 0.0
N822 N 0.41018 0.89483 0.41232 0.0
C823 C 0.37796 0.90047 0.39523 0.0
C824 C 0.35243 0.88682 0.43166 0.0
C825 C 0.89321 0.63209 0.67592 0.0
C826 C 0.86416 0.63006 0.6416 0.0
C827 C 0.90642 0.6035 0.70311 0.0
C828 C 0.89149 0.57172 0.69573 0.0
H829 H 0.9055 0.656 0.68244 0.0
H830 H 0.92857 0.60635 0.73008 0.0
S831 S 0.81612 0.55354 0.60536 0.0
N832 N 0.82101 0.59447 0.60028 0.0
N833 N 0.84686 0.54024 0.64784 0.0
C834 C 0.86256 0.56956 0.6604 0.0
C835 C 0.8487 0.59885 0.6341 0.0
C836 C 0.82235 0.88701 0.16652 0.0
C837 C 0.82604 0.85981 0.12876 0.0
C838 C 0.85037 0.90274 0.19147 0.0
C839 C 0.88324 0.89152 0.18067 0.0
H840 H 0.79759 0.89685 0.17557 0.0
H841 H 0.84616 0.92388 0.21973 0.0
S842 S 0.90646 0.82052 0.08628 0.0
N843 N 0.86504 0.82205 0.0819 0.0
N844 N 0.9178 0.8509 0.13068 0.0
C845 C 0.88731 0.86377 0.14418 0.0
C846 C 0.85869 0.84817 0.11761 0.0
C847 C 0.43613 0.59954 0.8975 0.0
C848 C 0.417 0.57718 0.86378 0.0
C849 C 0.42137 0.62808 0.92248 0.0
C850 C 0.38685 0.63489 0.91544 0.0
H851 H 0.46263 0.59492 0.90462 0.0
H852 H 0.43685 0.64427 0.94904 0.0
S853 S 0.32583 0.58396 0.83146 0.0
N854 N 0.36178 0.56386 0.82485 0.0
N855 N 0.3342 0.61702 0.87163 0.0
C856 C 0.36762 0.6128 0.88148 0.0
C857 C 0.38264 0.58409 0.85575 0.0
C858 C 0.71398 0.14677 0.65995 0.0
C859 C 0.70999 0.17279 0.61939 0.0
C860 C 0.68613 0.1308 0.68456 0.0
C861 C 0.6531 0.14057 0.67047 0.0
H862 H 0.73889 0.13811 0.67167 0.0
H863 H 0.6906 0.11072 0.71533 0.0
S864 S 0.62912 0.2081 0.56777 0.0
N865 N 0.67062 0.20786 0.56625 0.0
N866 N 0.61805 0.17856 0.61427 0.0
C867 C 0.6487 0.16709 0.63095 0.0
C868 C 0.6772 0.18294 0.60483 0.0
C869 C 0.09904 0.43003 0.38243 0.0
C870 C 0.11782 0.45235 0.34798 0.0
C871 C 0.11426 0.40207 0.40916 0.0
C872 C 0.14889 0.39589 0.40335 0.0
H873 H 0.07253 0.43441 0.38928 0.0
H874 H 0.09908 0.38607 0.43655 0.0
S875 S 0.20908 0.4465 0.31749 0.0
N876 N 0.17282 0.46594 0.30908 0.0
N877 N 0.20121 0.41384 0.3593 0.0
C878 C 0.16771 0.41766 0.36819 0.0
C879 C 0.15225 0.44577 0.34056 0.0
C880 C 0.67253 0.64634 0.36968 0.0
C881 C 0.65759 0.61749 0.39358 0.0
C882 C 0.70122 0.66076 0.39493 0.0
C883 C 0.71616 0.6469 0.445 0.0
H884 H 0.66237 0.65763 0.33061 0.0
H885 H 0.71218 0.68259 0.37438 0.0
S886 S 0.6858 0.573 0.52712 0.0
N887 N 0.65929 0.57655 0.47221 0.0
N888 N 0.71304 0.60383 0.51924 0.0
C889 C 0.70123 0.61848 0.46993 0.0
C890 C 0.672 0.60379 0.44441 0.0
C891 C 0.13402 0.92579 0.68836 0.0
C892 C 0.14791 0.95787 0.67875 0.0
C893 C 0.14817 0.89712 0.66374 0.0
C894 C 0.17723 0.89938 0.63008 0.0
H895 H 0.11192 0.92275 0.715 0.0
H896 H 0.13651 0.87301 0.67153 0.0
S897 S 0.22313 0.97658 0.58958 0.0
N898 N 0.19176 0.98976 0.62995 0.0
N899 N 0.21956 0.93546 0.58759 0.0
C900 C 0.19183 0.93088 0.62079 0.0
C901 C 0.17693 0.96023 0.64429 0.0
C902 C 0.83918 0.37794 0.8987 0.0
C903 C 0.82594 0.39101 0.95027 0.0
C904 C 0.86799 0.39166 0.87324 0.0
C905 C 0.88486 0.41908 0.89826 0.0
H906 H 0.82676 0.35731 0.87707 0.0
H907 H 0.8767 0.38095 0.833 0.0
S908 S 0.86149 0.46113 0.03561 0.0
N909 N 0.83264 0.43183 0.02705 0.0
N910 N 0.88672 0.45787 0.97939 0.0
C911 C 0.87219 0.43201 0.95055 0.0
C912 C 0.84276 0.41798 0.9764 0.0
C913 C 0.36422 0.08334 0.20092 0.0
C914 C 0.39951 0.08137 0.19936 0.0
C915 C 0.34695 0.11007 0.17461 0.0
C916 C 0.36427 0.13572 0.14522 0.0
H917 H 0.34972 0.06339 0.2206 0.0
H918 H 0.31976 0.10992 0.1755 0.0
S919 S 0.4568 0.14494 0.13574 0.0
N920 N 0.45124 0.10962 0.17184 0.0
N921 N 0.41879 0.15912 0.12091 0.0
C922 C 0.39957 0.13486 0.14555 0.0
C923 C 0.41716 0.10791 0.17298 0.0
C924 C 0.35875 0.3527 0.60996 0.0
C925 C 0.32577 0.36069 0.62685 0.0
C926 C 0.3867 0.36833 0.63606 0.0
C927 C 0.38233 0.39318 0.67825 0.0
H928 H 0.36287 0.33453 0.57607 0.0
H929 H 0.41171 0.36178 0.62183 0.0
S930 S 0.30124 0.42243 0.73817 0.0
N931 N 0.29056 0.39419 0.68947 0.0
N932 N 0.34265 0.42408 0.73713 0.0
C933 C 0.3495 0.40097 0.6958 0.0
C934 C 0.32132 0.38461 0.67041 0.0
C935 C 0.87339 0.10944 0.39079 0.0
C936 C 0.89268 0.13307 0.42132 0.0
C937 C 0.88818 0.08143 0.3654 0.0
C938 C 0.92298 0.07558 0.36944 0.0
H939 H 0.84644 0.11239 0.3868 0.0
H940 H 0.87199 0.06386 0.34301 0.0
S941 S 0.98489 0.1295 0.44515 0.0
N942 N 0.94861 0.14868 0.4546 0.0
N943 N 0.97646 0.09577 0.40653 0.0
C944 C 0.9427 0.0989 0.3999 0.0
C945 C 0.92759 0.12776 0.42563 0.0
C946 C 0.18452 0.62909 0.17869 0.0
C947 C 0.15141 0.63931 0.1662 0.0
C948 C 0.21228 0.64602 0.1556 0.0
C949 C 0.20815 0.6735 0.11809 0.0
H950 H 0.18912 0.60792 0.20714 0.0
H951 H 0.23725 0.63702 0.1661 0.0
S952 S 0.12701 0.71036 0.07121 0.0
N953 N 0.11614 0.67919 0.1146 0.0
N954 N 0.1685 0.71027 0.06921 0.0
C955 C 0.17527 0.68405 0.10498 0.0
C956 C 0.14687 0.66721 0.12968 0.0
C957 C 0.60352 0.92881 0.86205 0.0
C958 C 0.61385 0.96158 0.87556 0.0
C959 C 0.61932 0.9008 0.88766 0.0
C960 C 0.64669 0.90476 0.92591 0.0
H961 H 0.58322 0.92485 0.83141 0.0
H962 H 0.61062 0.87597 0.87643 0.0
S963 S 0.68292 0.98554 0.97527 0.0
N964 N 0.65242 0.99639 0.93028 0.0
N965 N 0.68272 0.94424 0.97689 0.0
C966 C 0.65706 0.93751 0.93962 0.0
C967 C 0.64051 0.96579 0.91478 0.0
loop_
_geom_bond_atom_site_label_1
_geom_bond_atom_site_label_2
_geom_bond_distance
_geom_bond_site_symmetry_2
_ccdc_geom_bond_type
Co0 N4 2.148 . S
Co0 N10 2.128 1_554 S
Co0 N20 2.194 1_554 S
Co0 O25 2.351 1_554 S
Co0 O26 2.155 . S
Co0 O27 2.096 . S
C1 N4 1.301 . S
C1 N5 1.328 . S
C1 H6 0.930 . S
C2 C3 1.333 . S
C2 N4 1.317 . S
C2 H7 0.930 . S
C3 C2 1.333 . S
C3 N5 1.350 . S
C3 H29 0.931 . S
N4 Co0 2.148 . S
N4 C1 1.301 . S
N4 C2 1.317 . S
N5 C1 1.328 . S
N5 C3 1.350 . S
H6 C1 0.930 . S
H7 C2 0.930 . S
C8 O9 1.224 . S
C8 O27 1.247 . S
O9 C8 1.224 . S
N10 Co0 2.128 1_556 S
N10 C11 1.355 . S
N10 C13 1.311 . S
C11 N10 1.355 . S
C11 C12 1.363 . S
C11 H23 0.929 . S
C12 C11 1.363 . S
C12 N14 1.375 . S
C12 H30 0.931 . S
C13 N10 1.311 . S
C13 N14 1.347 . S
C13 H24 0.929 . S
N14 C12 1.375 . S
N14 C13 1.347 . S
C15 C18 1.365 . S
C15 N20 1.328 . S
C15 H21 0.929 . S
C16 C17 1.362 . S
C16 C19 1.378 . S
C16 H31 0.929 . S
C17 C16 1.362 . S
C17 C18 1.366 . S
C18 C15 1.365 . S
C18 C17 1.366 . S
C18 H32 0.930 . S
C19 C16 1.378 . S
C19 N20 1.315 . S
C19 H22 0.930 1_556 S
N20 Co0 2.194 1_556 S
N20 C15 1.328 . S
N20 C19 1.315 . S
H21 C15 0.929 . S
H22 C19 0.930 1_554 S
H23 C11 0.929 . S
H24 C13 0.929 . S
O25 Co0 2.351 1_556 S
O25 C28 1.244 . S
O26 Co0 2.155 . S
O26 C28 1.240 1_554 S
O27 Co0 2.096 . S
O27 C8 1.247 . S
C28 O25 1.244 . S
C28 O26 1.240 1_556 S
H29 C3 0.931 . S
H30 C12 0.931 . S
H31 C16 0.929 . S
H32 C18 0.930 . S
Co33 N37 2.148 . S
Co33 N43 2.128 . S
Co33 N53 2.194 . S
Co33 O58 2.351 . S
Co33 O59 2.155 . S
Co33 O60 2.096 . S
C34 N37 1.301 . S
C34 N38 1.328 . S
C34 H39 0.930 . S
C35 C36 1.333 . S
C35 N37 1.317 . S
C35 H40 0.930 . S
C36 C35 1.333 . S
C36 N38 1.350 . S
C36 H62 0.931 . S
N37 Co33 2.148 . S
N37 C34 1.301 . S
N37 C35 1.317 . S
N38 C34 1.328 . S
N38 C36 1.350 . S
H39 C34 0.930 . S
H40 C35 0.930 . S
C41 O42 1.224 . S
C41 O60 1.247 . S
O42 C41 1.224 . S
N43 Co33 2.128 . S
N43 C44 1.355 . S
N43 C46 1.311 . S
C44 N43 1.355 . S
C44 C45 1.363 . S
C44 H56 0.929 . S
C45 C44 1.363 . S
C45 N47 1.375 . S
C45 H63 0.931 . S
C46 N43 1.311 . S
C46 N47 1.347 . S
C46 H57 0.929 . S
N47 C45 1.375 . S
N47 C46 1.347 . S
C48 C51 1.365 . S
C48 N53 1.328 . S
C48 H54 0.929 . S
C49 C50 1.362 . S
C49 C52 1.378 . S
C49 H64 0.929 . S
C50 C49 1.362 . S
C50 C51 1.366 . S
C51 C48 1.365 . S
C51 C50 1.366 . S
C51 H65 0.930 . S
C52 C49 1.378 . S
C52 N53 1.315 . S
C52 H55 0.930 . S
N53 Co33 2.194 . S
N53 C48 1.328 . S
N53 C52 1.315 . S
H54 C48 0.929 . S
H55 C52 0.930 . S
H56 C44 0.929 . S
H57 C46 0.929 . S
O58 Co33 2.351 . S
O58 C61 1.244 . S
O59 Co33 2.155 . S
O59 C61 1.240 . S
O60 Co33 2.096 . S
O60 C41 1.247 . S
C61 O58 1.244 . S
C61 O59 1.240 . S
H62 C36 0.931 . S
H63 C45 0.931 . S
H64 C49 0.929 . S
H65 C51 0.930 . S
Co66 N70 2.148 . S
Co66 N76 2.128 . S
Co66 N86 2.194 . S
Co66 O91 2.351 . S
Co66 O92 2.155 . S
Co66 O93 2.096 . S
C67 N70 1.301 . S
C67 N71 1.328 . S
C67 H72 0.930 . S
C68 C69 1.333 . S
C68 N70 1.317 . S
C68 H73 0.930 . S
C69 C68 1.333 . S
C69 N71 1.350 . S
C69 H95 0.931 . S
N70 Co66 2.148 . S
N70 C67 1.301 . S
N70 C68 1.317 . S
N71 C67 1.328 . S
N71 C69 1.350 . S
H72 C67 0.930 . S
H73 C68 0.930 . S
C74 O75 1.224 . S
C74 O93 1.247 . S
O75 C74 1.224 . S
N76 Co66 2.128 . S
N76 C77 1.355 . S
N76 C79 1.311 . S
C77 N76 1.355 . S
C77 C78 1.363 . S
C77 H89 0.929 . S
C78 C77 1.363 . S
C78 N80 1.375 . S
C78 H96 0.931 . S
C79 N76 1.311 . S
C79 N80 1.347 . S
C79 H90 0.929 . S
N80 C78 1.375 . S
N80 C79 1.347 . S
C81 C84 1.365 . S
C81 N86 1.328 . S
C81 H87 0.929 . S
C82 C83 1.362 . S
C82 C85 1.378 . S
C82 H97 0.929 . S
C83 C82 1.362 . S
C83 C84 1.366 . S
C84 C81 1.365 . S
C84 C83 1.366 . S
C84 H98 0.930 . S
C85 C82 1.378 . S
C85 N86 1.315 . S
C85 H88 0.930 . S
N86 Co66 2.194 . S
N86 C81 1.328 . S
N86 C85 1.315 . S
H87 C81 0.929 . S
H88 C85 0.930 . S
H89 C77 0.929 . S
H90 C79 0.929 . S
O91 Co66 2.351 . S
O91 C94 1.244 . S
O92 Co66 2.155 . S
O92 C94 1.240 . S
O93 Co66 2.096 . S
O93 C74 1.247 . S
C94 O91 1.244 . S
C94 O92 1.240 . S
H95 C69 0.931 . S
H96 C78 0.931 . S
H97 C82 0.929 . S
H98 C84 0.930 . S
Co99 N103 2.148 . S
Co99 N109 2.128 . S
Co99 N119 2.194 . S
Co99 O124 2.351 . S
Co99 O125 2.155 . S
Co99 O126 2.096 . S
C100 N103 1.301 . S
C100 N104 1.328 . S
C100 H105 0.930 . S
C101 C102 1.333 . S
C101 N103 1.317 . S
C101 H106 0.930 . S
C102 C101 1.333 . S
C102 N104 1.350 . S
C102 H128 0.931 . S
N103 Co99 2.148 . S
N103 C100 1.301 . S
N103 C101 1.317 . S
N104 C100 1.328 . S
N104 C102 1.350 . S
H105 C100 0.930 . S
H106 C101 0.930 . S
C107 O108 1.224 . S
C107 O126 1.247 . S
O108 C107 1.224 . S
N109 Co99 2.128 . S
N109 C110 1.355 . S
N109 C112 1.311 . S
C110 N109 1.355 . S
C110 C111 1.363 . S
C110 H122 0.929 . S
C111 C110 1.363 . S
C111 N113 1.375 . S
C111 H129 0.931 . S
C112 N109 1.311 . S
C112 N113 1.347 . S
C112 H123 0.929 . S
N113 C111 1.375 . S
N113 C112 1.347 . S
C114 C117 1.365 . S
C114 N119 1.328 . S
C114 H120 0.929 . S
C115 C116 1.362 . S
C115 C118 1.378 . S
C115 H130 0.929 . S
C116 C115 1.362 . S
C116 C117 1.366 . S
C117 C114 1.365 . S
C117 C116 1.366 . S
C117 H131 0.930 . S
C118 C115 1.378 . S
C118 N119 1.315 . S
C118 H121 0.930 . S
N119 Co99 2.194 . S
N119 C114 1.328 . S
N119 C118 1.315 . S
H120 C114 0.929 . S
H121 C118 0.930 . S
H122 C110 0.929 . S
H123 C112 0.929 . S
O124 Co99 2.351 . S
O124 C127 1.235 1_655 S
O125 Co99 2.155 . S
O125 C127 1.223 1_655 S
O126 Co99 2.096 . S
O126 C107 1.247 . S
C127 O124 1.235 1_455 S
C127 O125 1.223 1_455 S
H128 C102 0.931 . S
H129 C111 0.931 . S
H130 C115 0.929 . S
H131 C117 0.930 . S
Co132 N136 2.148 . S
Co132 N142 2.128 1_556 S
Co132 N152 2.194 1_556 S
Co132 O157 2.351 . S
Co132 O158 2.155 . S
Co132 O159 2.096 . S
C133 N136 1.301 . S
C133 N137 1.328 . S
C133 H138 0.930 . S
C134 C135 1.333 . S
C134 N136 1.317 . S
C134 H139 0.930 . S
C135 C134 1.333 . S
C135 N137 1.350 . S
C135 H161 0.931 . S
N136 Co132 2.148 . S
N136 C133 1.301 . S
N136 C134 1.317 . S
N137 C133 1.328 . S
N137 C135 1.350 . S
H138 C133 0.930 . S
H139 C134 0.930 . S
C140 O141 1.224 . S
C140 O159 1.247 1_554 S
O141 C140 1.224 . S
N142 Co132 2.128 1_554 S
N142 C143 1.355 . S
N142 C145 1.311 . S
C143 N142 1.355 . S
C143 C144 1.363 . S
C143 H155 0.929 . S
C144 C143 1.363 . S
C144 N146 1.375 . S
C144 H162 0.931 . S
C145 N142 1.311 . S
C145 N146 1.347 . S
C145 H156 0.929 . S
N146 C144 1.375 . S
N146 C145 1.347 . S
C147 C150 1.365 . S
C147 N152 1.328 . S
C147 H153 0.929 1_554 S
C148 C149 1.362 . S
C148 C151 1.378 . S
C148 H163 0.929 . S
C149 C148 1.362 . S
C149 C150 1.366 . S
C150 C147 1.365 . S
C150 C149 1.366 . S
C150 H164 0.930 . S
C151 C148 1.378 . S
C151 N152 1.315 . S
C151 H154 0.930 . S
N152 Co132 2.194 1_554 S
N152 C147 1.328 . S
N152 C151 1.315 . S
H153 C147 0.929 1_556 S
H154 C151 0.930 . S
H155 C143 0.929 . S
H156 C145 0.929 . S
O157 Co132 2.351 . S
O157 C160 1.244 . S
O158 Co132 2.155 . S
O158 C160 1.240 . S
O159 Co132 2.096 . S
O159 C140 1.247 1_556 S
C160 O157 1.244 . S
C160 O158 1.240 . S
H161 C135 0.931 . S
H162 C144 0.931 . S
H163 C148 0.929 . S
H164 C150 0.930 . S
Co165 N169 2.148 . S
Co165 N175 2.128 . S
Co165 N185 2.194 . S
Co165 O190 2.351 . S
Co165 O191 2.155 . S
Co165 O192 2.096 . S
C166 N169 1.301 . S
C166 N170 1.328 . S
C166 H171 0.930 . S
C167 C168 1.333 . S
C167 N169 1.317 . S
C167 H172 0.930 . S
C168 C167 1.333 . S
C168 N170 1.350 . S
C168 H194 0.931 . S
N169 Co165 2.148 . S
N169 C166 1.301 . S
N169 C167 1.317 . S
N170 C166 1.328 . S
N170 C168 1.350 . S
H171 C166 0.930 . S
H172 C167 0.930 . S
C173 O174 1.224 . S
C173 O192 1.247 . S
O174 C173 1.224 . S
N175 Co165 2.128 . S
N175 C176 1.355 . S
N175 C178 1.311 . S
C176 N175 1.355 . S
C176 C177 1.363 . S
C176 H188 0.929 . S
C177 C176 1.363 . S
C177 N179 1.375 . S
C177 H195 0.931 . S
C178 N175 1.311 . S
C178 N179 1.347 . S
C178 H189 0.929 . S
N179 C177 1.375 . S
N179 C178 1.347 . S
C180 C183 1.365 . S
C180 N185 1.328 . S
C180 H186 0.929 . S
C181 C182 1.362 . S
C181 C184 1.378 . S
C181 H196 0.929 . S
C182 C181 1.362 . S
C182 C183 1.366 . S
C183 C180 1.365 . S
C183 C182 1.366 . S
C183 H197 0.930 . S
C184 C181 1.378 . S
C184 N185 1.315 . S
C184 H187 0.930 . S
N185 Co165 2.194 . S
N185 C180 1.328 . S
N185 C184 1.315 . S
H186 C180 0.929 . S
H187 C184 0.930 . S
H188 C176 0.929 . S
H189 C178 0.929 . S
O190 Co165 2.351 . S
O190 C193 1.244 . S
O191 Co165 2.155 . S
O191 C193 1.240 . S
O192 Co165 2.096 . S
O192 C173 1.247 . S
C193 O190 1.244 . S
C193 O191 1.240 . S
H194 C168 0.931 . S
H195 C177 0.931 . S
H196 C181 0.929 . S
H197 C183 0.930 . S
Co198 N202 2.148 . S
Co198 N208 2.128 . S
Co198 N218 2.194 . S
Co198 O223 2.351 . S
Co198 O224 2.155 . S
Co198 O225 2.096 . S
C199 N202 1.301 . S
C199 N203 1.328 . S
C199 H204 0.930 . S
C200 C201 1.333 . S
C200 N202 1.317 . S
C200 H205 0.930 . S
C201 C200 1.333 . S
C201 N203 1.350 . S
C201 H227 0.931 . S
N202 Co198 2.148 . S
N202 C199 1.301 . S
N202 C200 1.317 . S
N203 C199 1.328 . S
N203 C201 1.350 . S
H204 C199 0.930 . S
H205 C200 0.930 . S
C206 O207 1.224 . S
C206 O225 1.247 . S
O207 C206 1.224 . S
N208 Co198 2.128 . S
N208 C209 1.355 . S
N208 C211 1.311 . S
C209 N208 1.355 . S
C209 C210 1.363 . S
C209 H221 0.929 . S
C210 C209 1.363 . S
C210 N212 1.375 . S
C210 H228 0.931 . S
C211 N208 1.311 . S
C211 N212 1.347 . S
C211 H222 0.929 . S
N212 C210 1.375 . S
N212 C211 1.347 . S
C213 C216 1.365 . S
C213 N218 1.328 . S
C213 H219 0.929 . S
C214 C215 1.362 . S
C214 C217 1.378 . S
C214 H229 0.929 . S
C215 C214 1.362 . S
C215 C216 1.366 . S
C216 C213 1.365 . S
C216 C215 1.366 . S
C216 H230 0.930 . S
C217 C214 1.378 . S
C217 N218 1.315 . S
C217 H220 0.930 . S
N218 Co198 2.194 . S
N218 C213 1.328 . S
N218 C217 1.315 . S
H219 C213 0.929 . S
H220 C217 0.930 . S
H221 C209 0.929 . S
H222 C211 0.929 . S
O223 Co198 2.351 . S
O223 C226 1.244 . S
O224 Co198 2.155 . S
O224 C226 1.240 . S
O225 Co198 2.096 . S
O225 C206 1.247 . S
C226 O223 1.244 . S
C226 O224 1.240 . S
H227 C201 0.931 . S
H228 C210 0.931 . S
H229 C214 0.929 . S
H230 C216 0.930 . S
Co231 N235 2.148 . S
Co231 N241 2.128 . S
Co231 N251 2.194 . S
Co231 O256 2.351 . S
Co231 O257 2.155 . S
Co231 O258 2.096 . S
C232 N235 1.301 . S
C232 N236 1.328 . S
C232 H237 0.930 . S
C233 C234 1.333 . S
C233 N235 1.317 . S
C233 H238 0.930 . S
C234 C233 1.333 . S
C234 N236 1.350 . S
C234 H260 0.931 1_455 S
N235 Co231 2.148 . S
N235 C232 1.301 . S
N235 C233 1.317 . S
N236 C232 1.328 . S
N236 C234 1.350 . S
H237 C232 0.930 . S
H238 C233 0.930 . S
C239 O240 1.224 . S
C239 O258 1.247 . S
O240 C239 1.224 . S
N241 Co231 2.128 . S
N241 C242 1.355 . S
N241 C244 1.311 . S
C242 N241 1.355 . S
C242 C243 1.363 . S
C242 H254 0.929 . S
C243 C242 1.363 . S
C243 N245 1.375 . S
C243 H261 0.931 . S
C244 N241 1.311 . S
C244 N245 1.347 . S
C244 H255 0.929 . S
N245 C243 1.375 . S
N245 C244 1.347 . S
C246 C249 1.365 . S
C246 N251 1.328 . S
C246 H252 0.929 . S
C247 C248 1.362 . S
C247 C250 1.378 . S
C247 H262 0.929 . S
C248 C247 1.362 . S
C248 C249 1.366 . S
C249 C246 1.365 . S
C249 C248 1.366 . S
C249 H263 0.930 . S
C250 C247 1.378 . S
C250 N251 1.315 . S
C250 H253 0.930 . S
N251 Co231 2.194 . S
N251 C246 1.328 . S
N251 C250 1.315 . S
H252 C246 0.929 . S
H253 C250 0.930 . S
H254 C242 0.929 . S
H255 C244 0.929 . S
O256 Co231 2.351 . S
O256 C259 1.244 . S
O257 Co231 2.155 . S
O257 C259 1.240 . S
O258 Co231 2.096 . S
O258 C239 1.247 . S
C259 O256 1.244 . S
C259 O257 1.240 . S
H260 C234 0.931 1_655 S
H261 C243 0.931 . S
H262 C247 0.929 . S
H263 C249 0.930 . S
Co264 N268 2.148 . S
Co264 N274 2.128 . S
Co264 N284 2.194 . S
Co264 O289 2.351 . S
Co264 O290 2.155 . S
Co264 O291 2.096 . S
C265 N268 1.301 . S
C265 N269 1.328 . S
C265 H270 0.930 . S
C266 C267 1.333 . S
C266 N268 1.317 . S
C266 H271 0.930 . S
C267 C266 1.333 . S
C267 N269 1.350 . S
C267 H293 0.931 . S
N268 Co264 2.148 . S
N268 C265 1.301 . S
N268 C266 1.317 . S
N269 C265 1.328 . S
N269 C267 1.350 . S
H270 C265 0.930 . S
H271 C266 0.930 . S
C272 O273 1.224 . S
C272 O291 1.247 . S
O273 C272 1.224 . S
N274 Co264 2.128 . S
N274 C275 1.355 . S
N274 C277 1.311 . S
C275 N274 1.355 . S
C275 C276 1.363 . S
C275 H287 0.929 . S
C276 C275 1.363 . S
C276 N278 1.375 . S
C276 H294 0.931 . S
C277 N274 1.311 . S
C277 N278 1.347 . S
C277 H288 0.929 . S
N278 C276 1.375 . S
N278 C277 1.347 . S
C279 C282 1.365 . S
C279 N284 1.328 . S
C279 H285 0.929 . S
C280 C281 1.362 . S
C280 C283 1.378 . S
C280 H295 0.929 . S
C281 C280 1.362 . S
C281 C282 1.366 . S
C282 C279 1.365 . S
C282 C281 1.366 . S
C282 H296 0.930 . S
C283 C280 1.378 . S
C283 N284 1.315 . S
C283 H286 0.930 . S
N284 Co264 2.194 . S
N284 C279 1.328 . S
N284 C283 1.315 . S
H285 C279 0.929 . S
H286 C283 0.930 . S
H287 C275 0.929 . S
H288 C277 0.929 . S
O289 Co264 2.351 . S
O289 C292 1.244 . S
O290 Co264 2.155 . S
O290 C292 1.240 . S
O291 Co264 2.096 . S
O291 C272 1.247 . S
C292 O289 1.244 . S
C292 O290 1.240 . S
H293 C267 0.931 . S
H294 C276 0.931 . S
H295 C280 0.929 . S
H296 C282 0.930 . S
Co297 N301 2.148 . S
Co297 N307 2.128 . S
Co297 N317 2.194 . S
Co297 O322 2.351 . S
Co297 O323 2.155 . S
Co297 O324 2.096 . S
C298 N301 1.301 . S
C298 N302 1.328 . S
C298 H303 0.930 . S
C299 C300 1.333 . S
C299 N301 1.317 . S
C299 H304 0.930 . S
C300 C299 1.333 . S
C300 N302 1.350 . S
C300 H326 0.931 . S
N301 Co297 2.148 . S
N301 C298 1.301 . S
N301 C299 1.317 . S
N302 C298 1.328 . S
N302 C300 1.350 . S
H303 C298 0.930 . S
H304 C299 0.930 . S
C305 O306 1.224 . S
C305 O324 1.247 . S
O306 C305 1.224 . S
N307 Co297 2.128 . S
N307 C308 1.355 . S
N307 C310 1.311 . S
C308 N307 1.355 . S
C308 C309 1.363 . S
C308 H320 0.929 . S
C309 C308 1.363 . S
C309 N311 1.375 . S
C309 H327 0.931 . S
C310 N307 1.311 . S
C310 N311 1.347 . S
C310 H321 0.929 . S
N311 C309 1.375 . S
N311 C310 1.347 . S
C312 C315 1.366 1_545 S
C312 N317 1.328 . S
C312 H318 0.929 . S
C313 C314 1.362 1_545 S
C313 C316 1.378 . S
C313 H328 0.929 . S
C314 C313 1.362 1_565 S
C314 C315 1.365 . S
C315 C312 1.366 1_565 S
C315 C314 1.365 . S
C315 H329 0.930 . S
C316 C313 1.378 . S
C316 N317 1.315 . S
C316 H319 0.930 . S
N317 Co297 2.194 . S
N317 C312 1.328 . S
N317 C316 1.315 . S
H318 C312 0.929 . S
H319 C316 0.930 . S
H320 C308 0.929 . S
H321 C310 0.929 . S
O322 Co297 2.351 . S
O322 C325 1.235 1_455 S
O323 Co297 2.155 . S
O323 C325 1.223 1_455 S
O324 Co297 2.096 . S
O324 C305 1.247 . S
C325 O322 1.235 1_655 S
C325 O323 1.223 1_655 S
H326 C300 0.931 . S
H327 C309 0.931 . S
H328 C313 0.929 . S
H329 C315 0.930 . S
Co330 N334 2.148 . S
Co330 N340 2.128 1_554 S
Co330 N350 2.194 1_554 S
Co330 O355 2.351 1_554 S
Co330 O356 2.155 . S
Co330 O357 2.096 . S
C331 N334 1.301 . S
C331 N335 1.328 . S
C331 H336 0.930 . S
C332 C333 1.333 . S
C332 N334 1.317 . S
C332 H337 0.930 . S
C333 C332 1.333 . S
C333 N335 1.350 . S
C333 H359 0.931 . S
N334 Co330 2.148 . S
N334 C331 1.301 . S
N334 C332 1.317 . S
N335 C331 1.328 . S
N335 C333 1.350 . S
H336 C331 0.930 . S
H337 C332 0.930 . S
C338 O339 1.224 . S
C338 O357 1.247 . S
O339 C338 1.224 . S
N340 Co330 2.128 1_556 S
N340 C341 1.355 . S
N340 C343 1.311 . S
C341 N340 1.355 . S
C341 C342 1.363 . S
C341 H353 0.929 . S
C342 C341 1.363 . S
C342 N344 1.375 . S
C342 H360 0.931 . S
C343 N340 1.311 . S
C343 N344 1.347 . S
C343 H354 0.929 . S
N344 C342 1.375 . S
N344 C343 1.347 . S
C345 C348 1.365 . S
C345 N350 1.328 . S
C345 H351 0.929 . S
C346 C347 1.362 . S
C346 C349 1.378 . S
C346 H361 0.929 . S
C347 C346 1.362 . S
C347 C348 1.366 . S
C348 C345 1.365 . S
C348 C347 1.366 . S
C348 H362 0.930 . S
C349 C346 1.378 . S
C349 N350 1.315 . S
C349 H352 0.930 1_556 S
N350 Co330 2.194 1_556 S
N350 C345 1.328 . S
N350 C349 1.315 . S
H351 C345 0.929 . S
H352 C349 0.930 1_554 S
H353 C341 0.929 . S
H354 C343 0.929 . S
O355 Co330 2.351 1_556 S
O355 C358 1.244 . S
O356 Co330 2.155 . S
O356 C358 1.240 1_554 S
O357 Co330 2.096 . S
O357 C338 1.247 . S
C358 O355 1.244 . S
C358 O356 1.240 1_556 S
H359 C333 0.931 . S
H360 C342 0.931 . S
H361 C346 0.929 . S
H362 C348 0.930 . S
Co363 N367 2.148 . S
Co363 N373 2.128 . S
Co363 N383 2.194 . S
Co363 O388 2.351 . S
Co363 O389 2.155 . S
Co363 O390 2.096 . S
C364 N367 1.301 . S
C364 N368 1.328 . S
C364 H369 0.930 . S
C365 C366 1.333 . S
C365 N367 1.317 . S
C365 H370 0.930 . S
C366 C365 1.333 . S
C366 N368 1.350 . S
C366 H392 0.931 . S
N367 Co363 2.148 . S
N367 C364 1.301 . S
N367 C365 1.317 . S
N368 C364 1.328 . S
N368 C366 1.350 . S
H369 C364 0.930 . S
H370 C365 0.930 . S
C371 O372 1.224 . S
C371 O390 1.247 . S
O372 C371 1.224 . S
N373 Co363 2.128 . S
N373 C374 1.355 . S
N373 C376 1.311 . S
C374 N373 1.355 . S
C374 C375 1.363 . S
C374 H386 0.929 . S
C375 C374 1.363 . S
C375 N377 1.375 . S
C375 H393 0.931 . S
C376 N373 1.311 . S
C376 N377 1.347 . S
C376 H387 0.929 . S
N377 C375 1.375 . S
N377 C376 1.347 . S
C378 C381 1.349 1_565 S
C378 N383 1.328 . S
C378 H384 0.929 . S
C379 C380 1.362 1_565 S
C379 C382 1.378 . S
C379 H394 0.929 . S
C380 C379 1.362 1_545 S
C380 C381 1.372 . S
C381 C378 1.349 1_545 S
C381 C380 1.372 . S
C381 H395 0.941 . S
C382 C379 1.378 . S
C382 N383 1.315 . S
C382 H385 0.930 . S
N383 Co363 2.194 . S
N383 C378 1.328 . S
N383 C382 1.315 . S
H384 C378 0.929 . S
H385 C382 0.930 . S
H386 C374 0.929 . S
H387 C376 0.929 . S
O388 Co363 2.351 . S
O388 C391 1.244 . S
O389 Co363 2.155 . S
O389 C391 1.240 . S
O390 Co363 2.096 . S
O390 C371 1.247 . S
C391 O388 1.244 . S
C391 O389 1.240 . S
H392 C366 0.931 . S
H393 C375 0.931 . S
H394 C379 0.929 . S
H395 C381 0.941 . S
Co396 N400 2.148 . S
Co396 N406 2.128 . S
Co396 N416 2.194 . S
Co396 O421 2.351 . S
Co396 O422 2.155 . S
Co396 O423 2.096 . S
C397 N400 1.301 . S
C397 N401 1.328 . S
C397 H402 0.930 . S
C398 C399 1.333 . S
C398 N400 1.317 . S
C398 H403 0.930 . S
C399 C398 1.333 . S
C399 N401 1.350 . S
C399 H425 0.931 . S
N400 Co396 2.148 . S
N400 C397 1.301 . S
N400 C398 1.317 . S
N401 C397 1.328 . S
N401 C399 1.350 . S
H402 C397 0.930 . S
H403 C398 0.930 . S
C404 O405 1.224 . S
C404 O423 1.247 . S
O405 C404 1.224 . S
N406 Co396 2.128 . S
N406 C407 1.355 . S
N406 C409 1.311 . S
C407 N406 1.355 . S
C407 C408 1.363 . S
C407 H419 0.929 . S
C408 C407 1.363 . S
C408 N410 1.375 . S
C408 H426 0.931 . S
C409 N406 1.311 . S
C409 N410 1.347 . S
C409 H420 0.929 . S
N410 C408 1.375 . S
N410 C409 1.347 . S
C411 C414 1.365 . S
C411 N416 1.328 . S
C411 H417 0.929 . S
C412 C413 1.362 . S
C412 C415 1.378 . S
C412 H427 0.929 . S
C413 C412 1.362 . S
C413 C414 1.366 . S
C414 C411 1.365 . S
C414 C413 1.366 . S
C414 H428 0.930 . S
C415 C412 1.378 . S
C415 N416 1.315 . S
C415 H418 0.930 . S
N416 Co396 2.194 . S
N416 C411 1.328 . S
N416 C415 1.315 . S
H417 C411 0.929 . S
H418 C415 0.930 . S
H419 C407 0.929 . S
H420 C409 0.929 . S
O421 Co396 2.351 . S
O421 C424 1.244 . S
O422 Co396 2.155 . S
O422 C424 1.240 . S
O423 Co396 2.096 . S
O423 C404 1.247 . S
C424 O421 1.244 . S
C424 O422 1.240 . S
H425 C399 0.931 . S
H426 C408 0.931 . S
H427 C412 0.929 . S
H428 C414 0.930 . S
Co429 N433 2.148 . S
Co429 N439 2.128 . S
Co429 N449 2.194 . S
Co429 O454 2.351 . S
Co429 O455 2.155 . S
Co429 O456 2.096 . S
C430 N433 1.301 . S
C430 N434 1.328 . S
C430 H435 0.930 . S
C431 C432 1.333 . S
C431 N433 1.317 . S
C431 H436 0.930 . S
C432 C431 1.333 . S
C432 N434 1.350 . S
C432 H458 0.931 1_655 S
N433 Co429 2.148 . S
N433 C430 1.301 . S
N433 C431 1.317 . S
N434 C430 1.328 . S
N434 C432 1.350 . S
H435 C430 0.930 . S
H436 C431 0.930 . S
C437 O438 1.224 . S
C437 O456 1.247 . S
O438 C437 1.224 . S
N439 Co429 2.128 . S
N439 C440 1.355 . S
N439 C442 1.311 . S
C440 N439 1.355 . S
C440 C441 1.363 . S
C440 H452 0.929 . S
C441 C440 1.363 . S
C441 N443 1.375 . S
C441 H459 0.931 . S
C442 N439 1.311 . S
C442 N443 1.347 . S
C442 H453 0.929 . S
N443 C441 1.375 . S
N443 C442 1.347 . S
C444 C447 1.365 1_565 S
C444 N449 1.328 . S
C444 H450 0.929 . S
C445 C446 1.362 . S
C445 C448 1.378 1_545 S
C445 H460 0.929 . S
C446 C445 1.362 . S
C446 C447 1.366 . S
C447 C444 1.365 1_545 S
C447 C446 1.366 . S
C447 H461 0.930 . S
C448 C445 1.378 1_565 S
C448 N449 1.315 . S
C448 H451 0.930 . S
N449 Co429 2.194 . S
N449 C444 1.328 . S
N449 C448 1.315 . S
H450 C444 0.929 . S
H451 C448 0.930 . S
H452 C440 0.929 . S
H453 C442 0.929 . S
O454 Co429 2.351 . S
O454 C457 1.244 . S
O455 Co429 2.155 . S
O455 C457 1.240 . S
O456 Co429 2.096 . S
O456 C437 1.247 . S
C457 O454 1.244 . S
C457 O455 1.240 . S
H458 C432 0.931 1_455 S
H459 C441 0.931 . S
H460 C445 0.929 . S
H461 C447 0.930 . S
Co462 N466 2.148 . S
Co462 N472 2.128 1_556 S
Co462 N482 2.194 1_556 S
Co462 O487 2.351 . S
Co462 O488 2.155 . S
Co462 O489 2.096 . S
C463 N466 1.301 . S
C463 N467 1.328 . S
C463 H468 0.930 . S
C464 C465 1.333 . S
C464 N466 1.317 . S
C464 H469 0.930 . S
C465 C464 1.333 . S
C465 N467 1.350 . S
C465 H491 0.931 . S
N466 Co462 2.148 . S
N466 C463 1.301 . S
N466 C464 1.317 . S
N467 C463 1.328 . S
N467 C465 1.350 . S
H468 C463 0.930 . S
H469 C464 0.930 . S
C470 O471 1.224 . S
C470 O489 1.247 1_554 S
O471 C470 1.224 . S
N472 Co462 2.128 1_554 S
N472 C473 1.355 . S
N472 C475 1.311 . S
C473 N472 1.355 . S
C473 C474 1.363 . S
C473 H485 0.929 . S
C474 C473 1.363 . S
C474 N476 1.375 . S
C474 H492 0.931 . S
C475 N472 1.311 . S
C475 N476 1.347 . S
C475 H486 0.929 . S
N476 C474 1.375 . S
N476 C475 1.347 . S
C477 C480 1.365 . S
C477 N482 1.328 . S
C477 H483 0.929 1_554 S
C478 C479 1.362 . S
C478 C481 1.378 . S
C478 H493 0.929 . S
C479 C478 1.362 . S
C479 C480 1.366 . S
C480 C477 1.365 . S
C480 C479 1.366 . S
C480 H494 0.930 . S
C481 C478 1.378 . S
C481 N482 1.315 . S
C481 H484 0.930 . S
N482 Co462 2.194 1_554 S
N482 C477 1.328 . S
N482 C481 1.315 . S
H483 C477 0.929 1_556 S
H484 C481 0.930 . S
H485 C473 0.929 . S
H486 C475 0.929 . S
O487 Co462 2.351 . S
O487 C490 1.244 . S
O488 Co462 2.155 . S
O488 C490 1.240 . S
O489 Co462 2.096 . S
O489 C470 1.247 1_556 S
C490 O487 1.244 . S
C490 O488 1.240 . S
H491 C465 0.931 . S
H492 C474 0.931 . S
H493 C478 0.929 . S
H494 C480 0.930 . S
Co495 N499 2.148 . S
Co495 N505 2.128 . S
Co495 N515 2.194 . S
Co495 O520 2.351 . S
Co495 O521 2.155 . S
Co495 O522 2.096 . S
C496 N499 1.301 . S
C496 N500 1.328 . S
C496 H501 0.930 . S
C497 C498 1.333 . S
C497 N499 1.317 . S
C497 H502 0.930 . S
C498 C497 1.333 . S
C498 N500 1.350 . S
C498 H524 0.931 . S
N499 Co495 2.148 . S
N499 C496 1.301 . S
N499 C497 1.317 . S
N500 C496 1.328 . S
N500 C498 1.350 . S
H501 C496 0.930 . S
H502 C497 0.930 . S
C503 O504 1.224 . S
C503 O522 1.247 . S
O504 C503 1.224 . S
N505 Co495 2.128 . S
N505 C506 1.355 . S
N505 C508 1.311 . S
C506 N505 1.355 . S
C506 C507 1.363 . S
C506 H518 0.929 . S
C507 C506 1.363 . S
C507 N509 1.375 . S
C507 H525 0.931 . S
C508 N505 1.311 . S
C508 N509 1.347 . S
C508 H519 0.929 . S
N509 C507 1.375 . S
N509 C508 1.347 . S
C510 C513 1.365 1_545 S
C510 N515 1.328 . S
C510 H516 0.929 . S
C511 C512 1.362 . S
C511 C514 1.378 1_565 S
C511 H526 0.929 . S
C512 C511 1.362 . S
C512 C513 1.366 . S
C513 C510 1.365 1_565 S
C513 C512 1.366 . S
C513 H527 0.930 . S
C514 C511 1.378 1_545 S
C514 N515 1.315 . S
C514 H517 0.930 . S
N515 Co495 2.194 . S
N515 C510 1.328 . S
N515 C514 1.315 . S
H516 C510 0.929 . S
H517 C514 0.930 . S
H518 C506 0.929 . S
H519 C508 0.929 . S
O520 Co495 2.351 . S
O520 C523 1.244 . S
O521 Co495 2.155 . S
O521 C523 1.240 . S
O522 Co495 2.096 . S
O522 C503 1.247 . S
C523 O520 1.244 . S
C523 O521 1.240 . S
H524 C498 0.931 . S
H525 C507 0.931 . S
H526 C511 0.929 . S
H527 C513 0.930 . S
C528 C529 1.369 . S
C528 C530 1.419 . S
C528 H532 0.930 . S
C529 C528 1.369 . S
C529 C538 1.429 . S
C530 C528 1.419 . S
C530 C531 1.363 . S
C530 H533 0.929 . S
C531 C530 1.363 . S
C531 C537 1.428 . S
H532 C528 0.930 . S
H533 C530 0.929 . S
S534 N535 1.613 . S
S534 N536 1.610 . S
N535 S534 1.613 . S
N535 C538 1.350 . S
N536 S534 1.610 . S
N536 C537 1.351 . S
C537 C531 1.428 . S
C537 N536 1.351 . S
C537 C538 1.434 . S
C538 C529 1.429 . S
C538 N535 1.350 . S
C538 C537 1.434 . S
C539 C540 1.369 . S
C539 C541 1.419 . S
C539 H543 0.930 . S
C540 C539 1.369 . S
C540 C549 1.429 . S
C541 C539 1.419 . S
C541 C542 1.363 . S
C541 H544 0.929 1_554 S
C542 C541 1.363 . S
C542 C548 1.428 . S
H543 C539 0.930 . S
H544 C541 0.929 1_556 S
S545 N546 1.613 . S
S545 N547 1.610 . S
N546 S545 1.613 . S
N546 C549 1.350 . S
N547 S545 1.610 . S
N547 C548 1.351 . S
C548 C542 1.428 . S
C548 N547 1.351 . S
C548 C549 1.434 . S
C549 C540 1.429 . S
C549 N546 1.350 . S
C549 C548 1.434 . S
C550 C551 1.369 . S
C550 C552 1.419 . S
C550 H554 0.930 . S
C551 C550 1.369 . S
C551 C560 1.429 . S
C552 C550 1.419 . S
C552 C553 1.363 . S
C552 H555 0.929 . S
C553 C552 1.363 . S
C553 C559 1.428 . S
H554 C550 0.930 . S
H555 C552 0.929 . S
S556 N557 1.613 . S
S556 N558 1.610 1_455 S
N557 S556 1.613 . S
N557 C560 1.350 . S
N558 S556 1.610 1_655 S
N558 C559 1.351 1_655 S
C559 C553 1.428 . S
C559 N558 1.351 1_455 S
C559 C560 1.434 . S
C560 C551 1.429 . S
C560 N557 1.350 . S
C560 C559 1.434 . S
C561 C562 1.369 . S
C561 C563 1.419 . S
C561 H565 0.930 . S
C562 C561 1.369 . S
C562 C571 1.429 . S
C563 C561 1.419 . S
C563 C564 1.363 . S
C563 H566 0.929 . S
C564 C563 1.363 . S
C564 C570 1.428 . S
H565 C561 0.930 . S
H566 C563 0.929 . S
S567 N568 1.613 . S
S567 N569 1.610 . S
N568 S567 1.613 . S
N568 C571 1.350 . S
N569 S567 1.610 . S
N569 C570 1.351 . S
C570 C564 1.428 . S
C570 N569 1.351 . S
C570 C571 1.434 . S
C571 C562 1.429 . S
C571 N568 1.350 . S
C571 C570 1.434 . S
C572 C573 1.369 . S
C572 C574 1.419 . S
C572 H576 0.930 . S
C573 C572 1.369 . S
C573 C582 1.429 . S
C574 C572 1.419 . S
C574 C575 1.363 . S
C574 H577 0.929 . S
C575 C574 1.363 . S
C575 C581 1.428 . S
H576 C572 0.930 . S
H577 C574 0.929 . S
S578 N579 1.613 . S
S578 N580 1.610 . S
N579 S578 1.613 . S
N579 C582 1.350 . S
N580 S578 1.610 . S
N580 C581 1.351 . S
C581 C575 1.428 . S
C581 N580 1.351 . S
C581 C582 1.434 . S
C582 C573 1.429 . S
C582 N579 1.350 . S
C582 C581 1.434 . S
C583 C584 1.369 . S
C583 C585 1.419 . S
C583 H587 0.930 . S
C584 C583 1.369 . S
C584 C593 1.429 . S
C585 C583 1.419 . S
C585 C586 1.363 . S
C585 H588 0.929 . S
C586 C585 1.363 . S
C586 C592 1.428 . S
H587 C583 0.930 . S
H588 C585 0.929 . S
S589 N590 1.613 . S
S589 N591 1.610 1_554 S
N590 S589 1.613 . S
N590 C593 1.350 1_554 S
N591 S589 1.610 1_556 S
N591 C592 1.351 . S
C592 C586 1.428 . S
C592 N591 1.351 . S
C592 C593 1.434 . S
C593 C584 1.429 . S
C593 N590 1.350 1_556 S
C593 C592 1.434 . S
C594 C595 1.369 . S
C594 C596 1.419 . S
C594 H598 0.930 . S
C595 C594 1.369 . S
C595 C604 1.429 . S
C596 C594 1.419 . S
C596 C597 1.363 . S
C596 H599 0.929 . S
C597 C596 1.363 . S
C597 C603 1.428 . S
H598 C594 0.930 . S
H599 C596 0.929 . S
S600 N601 1.613 . S
S600 N602 1.610 . S
N601 S600 1.613 . S
N601 C604 1.350 . S
N602 S600 1.610 . S
N602 C603 1.351 . S
C603 C597 1.428 . S
C603 N602 1.351 . S
C603 C604 1.434 . S
C604 C595 1.429 . S
C604 N601 1.350 . S
C604 C603 1.434 . S
C605 C606 1.369 . S
C605 C607 1.419 . S
C605 H609 0.930 . S
C606 C605 1.369 . S
C606 C615 1.429 . S
C607 C605 1.419 . S
C607 C608 1.363 . S
C607 H610 0.929 . S
C608 C607 1.363 . S
C608 C614 1.428 . S
H609 C605 0.930 . S
H610 C607 0.929 . S
S611 N612 1.613 . S
S611 N613 1.610 . S
N612 S611 1.613 . S
N612 C615 1.350 . S
N613 S611 1.610 . S
N613 C614 1.351 . S
C614 C608 1.428 . S
C614 N613 1.351 . S
C614 C615 1.434 . S
C615 C606 1.429 . S
C615 N612 1.350 . S
C615 C614 1.434 . S
C616 C617 1.369 . S
C616 C618 1.419 . S
C616 H620 0.930 . S
C617 C616 1.369 . S
C617 C626 1.429 . S
C618 C616 1.419 . S
C618 C619 1.363 . S
C618 H621 0.929 . S
C619 C618 1.363 . S
C619 C625 1.428 . S
H620 C616 0.930 . S
H621 C618 0.929 . S
S622 N623 1.613 . S
S622 N624 1.610 . S
N623 S622 1.613 . S
N623 C626 1.350 . S
N624 S622 1.610 . S
N624 C625 1.351 . S
C625 C619 1.428 . S
C625 N624 1.351 . S
C625 C626 1.434 . S
C626 C617 1.429 . S
C626 N623 1.350 . S
C626 C625 1.434 . S
C627 C628 1.369 . S
C627 C629 1.419 . S
C627 H631 0.930 . S
C628 C627 1.369 . S
C628 C637 1.429 . S
C629 C627 1.419 . S
C629 C630 1.363 . S
C629 H632 0.929 . S
C630 C629 1.363 . S
C630 C636 1.428 . S
H631 C627 0.930 . S
H632 C629 0.929 . S
S633 N634 1.613 . S
S633 N635 1.610 . S
N634 S633 1.613 . S
N634 C637 1.350 . S
N635 S633 1.610 . S
N635 C636 1.351 . S
C636 C630 1.428 . S
C636 N635 1.351 . S
C636 C637 1.434 . S
C637 C628 1.429 . S
C637 N634 1.350 . S
C637 C636 1.434 . S
C638 C639 1.369 . S
C638 C640 1.419 . S
C638 H642 0.930 . S
C639 C638 1.369 . S
C639 C648 1.429 . S
C640 C638 1.419 . S
C640 C641 1.363 . S
C640 H643 0.929 . S
C641 C640 1.363 . S
C641 C647 1.428 . S
H642 C638 0.930 . S
H643 C640 0.929 . S
S644 N645 1.613 . S
S644 N646 1.610 . S
N645 S644 1.613 . S
N645 C648 1.350 . S
N646 S644 1.610 . S
N646 C647 1.351 . S
C647 C641 1.428 . S
C647 N646 1.351 . S
C647 C648 1.434 . S
C648 C639 1.429 . S
C648 N645 1.350 . S
C648 C647 1.434 . S
C649 C650 1.369 . S
C649 C651 1.419 . S
C649 H653 0.930 . S
C650 C649 1.369 . S
C650 C659 1.429 . S
C651 C649 1.419 . S
C651 C652 1.363 . S
C651 H654 0.929 1_554 S
C652 C651 1.363 . S
C652 C658 1.428 . S
H653 C649 0.930 . S
H654 C651 0.929 1_556 S
S655 N656 1.613 . S
S655 N657 1.610 . S
N656 S655 1.613 . S
N656 C659 1.350 . S
N657 S655 1.610 . S
N657 C658 1.351 . S
C658 C652 1.428 . S
C658 N657 1.351 . S
C658 C659 1.434 . S
C659 C650 1.429 . S
C659 N656 1.350 . S
C659 C658 1.434 . S
C660 C661 1.369 . S
C660 C662 1.419 . S
C660 H664 0.930 . S
C661 C660 1.369 . S
C661 C670 1.429 . S
C662 C660 1.419 . S
C662 C663 1.363 . S
C662 H665 0.929 . S
C663 C662 1.363 . S
C663 C669 1.428 . S
H664 C660 0.930 . S
H665 C662 0.929 . S
S666 N667 1.613 . S
S666 N668 1.610 . S
N667 S666 1.613 . S
N667 C670 1.350 . S
N668 S666 1.610 . S
N668 C669 1.351 . S
C669 C663 1.428 . S
C669 N668 1.351 . S
C669 C670 1.434 . S
C670 C661 1.429 . S
C670 N667 1.350 . S
C670 C669 1.434 . S
C671 C672 1.369 . S
C671 C673 1.419 . S
C671 H675 0.930 . S
C672 C671 1.369 . S
C672 C681 1.429 . S
C673 C671 1.419 . S
C673 C674 1.363 . S
C673 H676 0.929 . S
C674 C673 1.363 . S
C674 C680 1.428 . S
H675 C671 0.930 . S
H676 C673 0.929 . S
S677 N678 1.613 . S
S677 N679 1.610 . S
N678 S677 1.613 . S
N678 C681 1.350 . S
N679 S677 1.610 . S
N679 C680 1.351 . S
C680 C674 1.428 . S
C680 N679 1.351 . S
C680 C681 1.434 . S
C681 C672 1.429 . S
C681 N678 1.350 . S
C681 C680 1.434 . S
C682 C683 1.369 . S
C682 C684 1.419 . S
C682 H686 0.930 . S
C683 C682 1.369 . S
C683 C692 1.429 . S
C684 C682 1.419 . S
C684 C685 1.363 . S
C684 H687 0.929 . S
C685 C684 1.363 . S
C685 C691 1.428 . S
H686 C682 0.930 . S
H687 C684 0.929 . S
S688 N689 1.613 . S
S688 N690 1.610 . S
N689 S688 1.613 . S
N689 C692 1.350 . S
N690 S688 1.610 . S
N690 C691 1.351 . S
C691 C685 1.428 . S
C691 N690 1.351 . S
C691 C692 1.434 . S
C692 C683 1.429 . S
C692 N689 1.350 . S
C692 C691 1.434 . S
C693 C694 1.369 . S
C693 C695 1.419 . S
C693 H697 0.930 . S
C694 C693 1.369 . S
C694 C703 1.429 . S
C695 C693 1.419 . S
C695 C696 1.363 . S
C695 H698 0.929 1_556 S
C696 C695 1.363 . S
C696 C702 1.428 . S
H697 C693 0.930 . S
H698 C695 0.929 1_554 S
S699 N700 1.613 . S
S699 N701 1.610 . S
N700 S699 1.613 . S
N700 C703 1.350 . S
N701 S699 1.610 . S
N701 C702 1.351 . S
C702 C696 1.428 . S
C702 N701 1.351 . S
C702 C703 1.434 . S
C703 C694 1.429 . S
C703 N700 1.350 . S
C703 C702 1.434 . S
C704 C705 1.369 . S
C704 C706 1.419 . S
C704 H708 0.930 . S
C705 C704 1.369 . S
C705 C714 1.429 . S
C706 C704 1.419 . S
C706 C707 1.363 . S
C706 H709 0.929 . S
C707 C706 1.363 . S
C707 C713 1.428 . S
H708 C704 0.930 . S
H709 C706 0.929 . S
S710 N711 1.613 . S
S710 N712 1.610 . S
N711 S710 1.613 . S
N711 C714 1.350 . S
N712 S710 1.610 . S
N712 C713 1.351 . S
C713 C707 1.428 . S
C713 N712 1.351 . S
C713 C714 1.434 . S
C714 C705 1.429 . S
C714 N711 1.350 . S
C714 C713 1.434 . S
C715 C716 1.369 . S
C715 C717 1.419 . S
C715 H719 0.930 . S
C716 C715 1.369 . S
C716 C725 1.429 . S
C717 C715 1.419 . S
C717 C718 1.363 . S
C717 H720 0.929 . S
C718 C717 1.363 . S
C718 C724 1.428 . S
H719 C715 0.930 . S
H720 C717 0.929 . S
S721 N722 1.613 . S
S721 N723 1.610 . S
N722 S721 1.613 . S
N722 C725 1.350 . S
N723 S721 1.610 . S
N723 C724 1.351 . S
C724 C718 1.428 . S
C724 N723 1.351 . S
C724 C725 1.434 . S
C725 C716 1.429 . S
C725 N722 1.350 . S
C725 C724 1.434 . S
C726 C727 1.369 . S
C726 C728 1.419 . S
C726 H730 0.930 . S
C727 C726 1.369 . S
C727 C736 1.429 . S
C728 C726 1.419 . S
C728 C729 1.363 . S
C728 H731 0.929 . S
C729 C728 1.363 . S
C729 C735 1.428 . S
H730 C726 0.930 . S
H731 C728 0.929 . S
S732 N733 1.613 . S
S732 N734 1.610 . S
N733 S732 1.613 . S
N733 C736 1.350 . S
N734 S732 1.610 . S
N734 C735 1.351 . S
C735 C729 1.428 . S
C735 N734 1.351 . S
C735 C736 1.434 . S
C736 C727 1.429 . S
C736 N733 1.350 . S
C736 C735 1.434 . S
C737 C738 1.369 . S
C737 C739 1.419 1_556 S
C737 H741 0.930 . S
C738 C737 1.369 . S
C738 C747 1.429 . S
C739 C737 1.419 1_554 S
C739 C740 1.363 . S
C739 H742 0.929 . S
C740 C739 1.363 . S
C740 C746 1.428 . S
H741 C737 0.930 . S
H742 C739 0.929 . S
S743 N744 1.613 1_554 S
S743 N745 1.610 . S
N744 S743 1.613 1_556 S
N744 C747 1.350 . S
N745 S743 1.610 . S
N745 C746 1.351 . S
C746 C740 1.428 . S
C746 N745 1.351 . S
C746 C747 1.434 1_554 S
C747 C738 1.429 . S
C747 N744 1.350 . S
C747 C746 1.434 1_556 S
C748 C749 1.369 . S
C748 C750 1.419 . S
C748 H752 0.930 . S
C749 C748 1.369 . S
C749 C758 1.429 . S
C750 C748 1.419 . S
C750 C751 1.363 . S
C750 H753 0.929 . S
C751 C750 1.363 . S
C751 C757 1.428 . S
H752 C748 0.930 . S
H753 C750 0.929 . S
S754 N755 1.613 . S
S754 N756 1.610 . S
N755 S754 1.613 . S
N755 C758 1.350 . S
N756 S754 1.610 . S
N756 C757 1.351 . S
C757 C751 1.428 . S
C757 N756 1.351 . S
C757 C758 1.434 . S
C758 C749 1.429 . S
C758 N755 1.350 . S
C758 C757 1.434 . S
C759 C760 1.369 . S
C759 C761 1.419 . S
C759 H763 0.930 . S
C760 C759 1.369 . S
C760 C769 1.429 . S
C761 C759 1.419 . S
C761 C762 1.363 . S
C761 H764 0.929 . S
C762 C761 1.363 . S
C762 C768 1.428 . S
H763 C759 0.930 . S
H764 C761 0.929 . S
S765 N766 1.613 . S
S765 N767 1.610 . S
N766 S765 1.613 . S
N766 C769 1.350 . S
N767 S765 1.610 . S
N767 C768 1.351 . S
C768 C762 1.428 . S
C768 N767 1.351 . S
C768 C769 1.434 . S
C769 C760 1.429 . S
C769 N766 1.350 . S
C769 C768 1.434 . S
C770 C771 1.369 1_565 S
C770 C772 1.419 1_554 S
C770 H774 0.930 . S
C771 C770 1.369 1_545 S
C771 C780 1.429 . S
C772 C770 1.419 1_556 S
C772 C773 1.363 1_565 S
C772 H775 0.929 . S
C773 C772 1.363 1_545 S
C773 C779 1.428 1_655 S
H774 C770 0.930 . S
H775 C772 0.929 . S
S776 N777 1.613 . S
S776 N778 1.610 1_554 S
N777 S776 1.613 . S
N777 C780 1.350 1_455 S
N778 S776 1.610 1_556 S
N778 C779 1.351 . S
C779 C773 1.428 1_455 S
C779 N778 1.351 . S
C779 C780 1.434 1_456 S
C780 C771 1.429 . S
C780 N777 1.350 1_655 S
C780 C779 1.434 1_654 S
C781 C782 1.349 1_545 S
C781 C783 1.424 . S
C781 H785 0.946 . S
C782 C781 1.349 1_565 S
C782 C791 1.429 . S
C783 C781 1.424 . S
C783 C784 1.363 1_545 S
C783 H786 0.929 . S
C784 C783 1.363 1_565 S
C784 C790 1.428 . S
H785 C781 0.946 . S
H786 C783 0.929 . S
S787 N788 1.613 . S
S787 N789 1.610 . S
N788 S787 1.613 . S
N788 C791 1.350 . S
N789 S787 1.610 . S
N789 C790 1.351 . S
C790 C784 1.428 . S
C790 N789 1.351 . S
C790 C791 1.434 . S
C791 C782 1.429 . S
C791 N788 1.350 . S
C791 C790 1.434 . S
C792 C793 1.369 . S
C792 C794 1.419 . S
C792 H796 0.930 . S
C793 C792 1.369 . S
C793 C802 1.429 . S
C794 C792 1.419 . S
C794 C795 1.363 . S
C794 H797 0.929 . S
C795 C794 1.363 . S
C795 C801 1.428 . S
H796 C792 0.930 . S
H797 C794 0.929 . S
S798 N799 1.612 1_554 S
S798 N800 1.610 1_554 S
N799 S798 1.612 1_556 S
N799 C802 1.350 . S
N800 S798 1.610 1_556 S
N800 C801 1.351 . S
C801 C795 1.428 . S
C801 N800 1.351 . S
C801 C802 1.434 . S
C802 C793 1.429 . S
C802 N799 1.350 . S
C802 C801 1.434 . S
C803 C804 1.369 . S
C803 C805 1.419 . S
C803 H807 0.930 . S
C804 C803 1.369 . S
C804 C813 1.429 . S
C805 C803 1.419 . S
C805 C806 1.363 . S
C805 H808 0.929 . S
C806 C805 1.363 . S
C806 C812 1.428 . S
H807 C803 0.930 . S
H808 C805 0.929 . S
S809 N810 1.613 . S
S809 N811 1.610 . S
N810 S809 1.613 . S
N810 C813 1.350 . S
N811 S809 1.610 . S
N811 C812 1.351 . S
C812 C806 1.428 . S
C812 N811 1.351 . S
C812 C813 1.434 . S
C813 C804 1.429 . S
C813 N810 1.350 . S
C813 C812 1.434 . S
C814 C815 1.369 . S
C814 C816 1.419 . S
C814 H818 0.930 . S
C815 C814 1.369 . S
C815 C824 1.429 . S
C816 C814 1.419 . S
C816 C817 1.363 . S
C816 H819 0.929 . S
C817 C816 1.363 . S
C817 C823 1.428 . S
H818 C814 0.930 . S
H819 C816 0.929 . S
S820 N821 1.613 . S
S820 N822 1.610 . S
N821 S820 1.613 . S
N821 C824 1.350 . S
N822 S820 1.610 . S
N822 C823 1.351 . S
C823 C817 1.428 . S
C823 N822 1.351 . S
C823 C824 1.434 . S
C824 C815 1.429 . S
C824 N821 1.350 . S
C824 C823 1.434 . S
C825 C826 1.369 . S
C825 C827 1.419 . S
C825 H829 0.930 . S
C826 C825 1.369 . S
C826 C835 1.429 . S
C827 C825 1.419 . S
C827 C828 1.363 . S
C827 H830 0.929 . S
C828 C827 1.363 . S
C828 C834 1.428 . S
H829 C825 0.930 . S
H830 C827 0.929 . S
S831 N832 1.613 . S
S831 N833 1.610 . S
N832 S831 1.613 . S
N832 C835 1.350 . S
N833 S831 1.610 . S
N833 C834 1.351 . S
C834 C828 1.428 . S
C834 N833 1.351 . S
C834 C835 1.434 . S
C835 C826 1.429 . S
C835 N832 1.350 . S
C835 C834 1.434 . S
C836 C837 1.369 . S
C836 C838 1.419 . S
C836 H840 0.930 . S
C837 C836 1.369 . S
C837 C846 1.429 . S
C838 C836 1.419 . S
C838 C839 1.363 . S
C838 H841 0.929 . S
C839 C838 1.363 . S
C839 C845 1.428 . S
H840 C836 0.930 . S
H841 C838 0.929 . S
S842 N843 1.613 1_556 S
S842 N844 1.610 1_556 S
N843 S842 1.613 1_554 S
N843 C846 1.350 . S
N844 S842 1.610 1_554 S
N844 C845 1.351 . S
C845 C839 1.428 . S
C845 N844 1.351 . S
C845 C846 1.434 . S
C846 C837 1.429 . S
C846 N843 1.350 . S
C846 C845 1.434 . S
C847 C848 1.369 . S
C847 C849 1.419 . S
C847 H851 0.930 . S
C848 C847 1.369 . S
C848 C857 1.429 . S
C849 C847 1.419 . S
C849 C850 1.363 . S
C849 H852 0.929 . S
C850 C849 1.363 . S
C850 C856 1.428 . S
H851 C847 0.930 . S
H852 C849 0.929 . S
S853 N854 1.613 . S
S853 N855 1.610 . S
N854 S853 1.613 . S
N854 C857 1.350 . S
N855 S853 1.610 . S
N855 C856 1.351 . S
C856 C850 1.428 . S
C856 N855 1.351 . S
C856 C857 1.434 . S
C857 C848 1.429 . S
C857 N854 1.350 . S
C857 C856 1.434 . S
C858 C859 1.369 . S
C858 C860 1.419 . S
C858 H862 0.930 . S
C859 C858 1.369 . S
C859 C868 1.429 . S
C860 C858 1.419 . S
C860 C861 1.363 . S
C860 H863 0.929 . S
C861 C860 1.363 . S
C861 C867 1.428 . S
H862 C858 0.930 . S
H863 C860 0.929 . S
S864 N865 1.613 . S
S864 N866 1.610 . S
N865 S864 1.613 . S
N865 C868 1.350 . S
N866 S864 1.610 . S
N866 C867 1.351 . S
C867 C861 1.428 . S
C867 N866 1.351 . S
C867 C868 1.434 . S
C868 C859 1.429 . S
C868 N865 1.350 . S
C868 C867 1.434 . S
C869 C870 1.369 . S
C869 C871 1.419 . S
C869 H873 0.930 . S
C870 C869 1.369 . S
C870 C879 1.429 . S
C871 C869 1.419 . S
C871 C872 1.363 . S
C871 H874 0.929 . S
C872 C871 1.363 . S
C872 C878 1.428 . S
H873 C869 0.930 . S
H874 C871 0.929 . S
S875 N876 1.613 . S
S875 N877 1.610 . S
N876 S875 1.613 . S
N876 C879 1.350 . S
N877 S875 1.610 . S
N877 C878 1.351 . S
C878 C872 1.428 . S
C878 N877 1.351 . S
C878 C879 1.434 . S
C879 C870 1.429 . S
C879 N876 1.350 . S
C879 C878 1.434 . S
C880 C881 1.369 . S
C880 C882 1.419 . S
C880 H884 0.930 . S
C881 C880 1.369 . S
C881 C890 1.429 . S
C882 C880 1.419 . S
C882 C883 1.363 . S
C882 H885 0.929 . S
C883 C882 1.363 . S
C883 C889 1.428 . S
H884 C880 0.930 . S
H885 C882 0.929 . S
S886 N887 1.613 . S
S886 N888 1.610 . S
N887 S886 1.613 . S
N887 C890 1.350 . S
N888 S886 1.610 . S
N888 C889 1.351 . S
C889 C883 1.428 . S
C889 N888 1.351 . S
C889 C890 1.434 . S
C890 C881 1.429 . S
C890 N887 1.350 . S
C890 C889 1.434 . S
C891 C892 1.369 . S
C891 C893 1.419 . S
C891 H895 0.930 . S
C892 C891 1.369 . S
C892 C901 1.429 . S
C893 C891 1.419 . S
C893 C894 1.363 . S
C893 H896 0.929 . S
C894 C893 1.363 . S
C894 C900 1.428 . S
H895 C891 0.930 . S
H896 C893 0.929 . S
S897 N898 1.613 . S
S897 N899 1.610 . S
N898 S897 1.613 . S
N898 C901 1.350 . S
N899 S897 1.610 . S
N899 C900 1.351 . S
C900 C894 1.428 . S
C900 N899 1.351 . S
C900 C901 1.434 . S
C901 C892 1.429 . S
C901 N898 1.350 . S
C901 C900 1.434 . S
C902 C903 1.369 . S
C902 C904 1.419 . S
C902 H906 0.930 . S
C903 C902 1.369 . S
C903 C912 1.429 . S
C904 C902 1.419 . S
C904 C905 1.363 . S
C904 H907 0.929 . S
C905 C904 1.363 . S
C905 C911 1.428 . S
H906 C902 0.930 . S
H907 C904 0.929 . S
S908 N909 1.613 1_554 S
S908 N910 1.610 1_554 S
N909 S908 1.613 1_556 S
N909 C912 1.350 . S
N910 S908 1.610 1_556 S
N910 C911 1.351 . S
C911 C905 1.428 . S
C911 N910 1.351 . S
C911 C912 1.434 . S
C912 C903 1.429 . S
C912 N909 1.350 . S
C912 C911 1.434 . S
C913 C914 1.369 . S
C913 C915 1.419 . S
C913 H917 0.930 . S
C914 C913 1.369 . S
C914 C923 1.429 . S
C915 C913 1.419 . S
C915 C916 1.363 . S
C915 H918 0.929 . S
C916 C915 1.363 . S
C916 C922 1.428 . S
H917 C913 0.930 . S
H918 C915 0.929 . S
S919 N920 1.613 . S
S919 N921 1.610 . S
N920 S919 1.613 . S
N920 C923 1.350 . S
N921 S919 1.610 . S
N921 C922 1.351 . S
C922 C916 1.428 . S
C922 N921 1.351 . S
C922 C923 1.434 . S
C923 C914 1.429 . S
C923 N920 1.350 . S
C923 C922 1.434 . S
C924 C925 1.369 . S
C924 C926 1.419 . S
C924 H928 0.930 . S
C925 C924 1.369 . S
C925 C934 1.429 . S
C926 C924 1.419 . S
C926 C927 1.363 . S
C926 H929 0.929 . S
C927 C926 1.363 . S
C927 C933 1.428 . S
H928 C924 0.930 . S
H929 C926 0.929 . S
S930 N931 1.613 . S
S930 N932 1.610 . S
N931 S930 1.613 . S
N931 C934 1.350 . S
N932 S930 1.610 . S
N932 C933 1.351 . S
C933 C927 1.428 . S
C933 N932 1.351 . S
C933 C934 1.434 . S
C934 C925 1.429 . S
C934 N931 1.350 . S
C934 C933 1.434 . S
C935 C936 1.369 . S
C935 C937 1.419 . S
C935 H939 0.930 . S
C936 C935 1.369 . S
C936 C945 1.429 . S
C937 C935 1.419 . S
C937 C938 1.363 . S
C937 H940 0.929 . S
C938 C937 1.363 . S
C938 C944 1.428 . S
H939 C935 0.930 . S
H940 C937 0.929 . S
S941 N942 1.613 . S
S941 N943 1.610 . S
N942 S941 1.613 . S
N942 C945 1.350 . S
N943 S941 1.610 . S
N943 C944 1.351 . S
C944 C938 1.428 . S
C944 N943 1.351 . S
C944 C945 1.434 . S
C945 C936 1.429 . S
C945 N942 1.350 . S
C945 C944 1.434 . S
C946 C947 1.369 . S
C946 C948 1.419 . S
C946 H950 0.930 . S
C947 C946 1.369 . S
C947 C956 1.429 . S
C948 C946 1.419 . S
C948 C949 1.363 . S
C948 H951 0.929 . S
C949 C948 1.363 . S
C949 C955 1.428 . S
H950 C946 0.930 . S
H951 C948 0.929 . S
S952 N953 1.613 1_556 S
S952 N954 1.610 1_556 S
N953 S952 1.613 1_554 S
N953 C956 1.350 . S
N954 S952 1.610 1_554 S
N954 C955 1.351 . S
C955 C949 1.428 . S
C955 N954 1.351 . S
C955 C956 1.434 . S
C956 C947 1.429 . S
C956 N953 1.350 . S
C956 C955 1.434 . S
C957 C958 1.369 . S
C957 C959 1.419 . S
C957 H961 0.930 . S
C958 C957 1.369 . S
C958 C967 1.429 . S
C959 C957 1.419 . S
C959 C960 1.363 . S
C959 H962 0.929 . S
C960 C959 1.363 . S
C960 C966 1.428 . S
H961 C957 0.930 . S
H962 C959 0.929 . S
S963 N964 1.613 . S
S963 N965 1.610 . S
N964 S963 1.613 . S
N964 C967 1.350 . S
N965 S963 1.610 . S
N965 C966 1.351 . S
C966 C960 1.428 . S
C966 N965 1.351 . S
C966 C967 1.434 . S
C967 C958 1.429 . S
C967 N964 1.350 . S
C967 C966 1.434 . S
C529 C503 1.617 . S
C531 N14 1.587 . S
C540 N47 1.591 . S
C542 C140 1.622 . S
C551 N80 1.578 . S
C553 C437 1.608 1_455 S
C562 N113 1.571 . S
C564 C206 1.602 . S
C573 N146 1.507 . S
C575 C391 1.528 . S
C584 C28 1.539 . S
C586 N179 1.521 . S
C595 C325 1.550 . S
C597 N212 1.501 . S
C606 N245 1.497 . S
C608 C94 1.517 . S
C617 N278 1.581 . S
C619 C239 1.607 1_655 S
C628 N311 1.576 . S
C630 C404 1.602 . S
C639 C173 1.613 . S
C641 N344 1.588 . S
C650 N377 1.590 . S
C652 C470 1.623 . S
C661 N410 1.497 . S
C663 C127 1.547 . S
C672 N443 1.497 . S
C674 C292 1.517 . S
C683 C61 1.528 . S
C685 N476 1.508 . S
C694 N509 1.514 . S
C696 C358 1.536 . S
C705 N5 1.594 . S
C707 N401 1.654 . S
C716 N170 1.681 . S
C718 N38 1.616 . S
C727 N71 1.592 . S
C729 N467 1.651 . S
C738 N104 1.591 1_455 S
C740 N236 1.669 . S
C749 N269 1.583 . S
C751 N137 1.658 . S
C760 N335 1.594 . S
C762 N203 1.653 . S
C771 N434 1.669 1_545 S
C773 N302 1.592 1_655 S
C782 N368 1.611 . S
C784 N500 1.689 1_565 S
C793 C305 1.605 . S
C795 C17 1.641 . S
C804 C50 1.612 . S
C806 C338 1.571 . S
C815 C83 1.629 . S
C817 C371 1.587 . S
C826 C272 1.596 . S
C828 C116 1.641 . S
C837 C149 1.153 . S
C839 C457 1.125 . S
C848 C182 1.128 . S
C850 C490 1.098 . S
C859 C215 1.142 . S
C861 C523 1.111 . S
C870 C248 1.150 . S
C872 C424 1.121 . S
C881 C41 1.591 . S
C883 C281 1.627 . S
C892 C314 1.641 . S
C894 C74 1.597 . S
C903 C347 1.640 . S
C905 C107 1.604 . S
C914 C380 1.610 . S
C916 C8 1.574 . S
C925 C413 1.145 . S
C927 C193 1.105 . S
C936 C226 1.117 . S
C938 C446 1.155 . S
C947 C259 1.125 . S
C949 C479 1.155 . S
C958 C512 1.133 . S
C960 C160 1.092 . S
