# Generated by pormake.
# Topology uoq, (4)-cn, num edge types: 1
# Building blocks:
#     Node 0, Type 0, BuildingBlock: UXUYUI_clean_sbu_0, # of connection points: 4
#     Node 1, Type 0, BuildingBlock: UXUYUI_clean_sbu_0, # of connection points: 4
#     Node 2, Type 0, BuildingBlock: UXUYUI_clean_sbu_0, # of connection points: 4
#     Node 3, Type 0, BuildingBlock: UXUYUI_clean_sbu_0, # of connection points: 4
#     Node 4, Type 0, BuildingBlock: UXUYUI_clean_sbu_0, # of connection points: 4
#     Node 5, Type 0, BuildingBlock: UXUYUI_clean_sbu_0, # of connection points: 4
#     Node 6, Type 0, BuildingBlock: UXUYUI_clean_sbu_0, # of connection points: 4
#     Node 7, Type 0, BuildingBlock: UXUYUI_clean_sbu_0, # of connection points: 4
#     Node 8, Type 0, BuildingBlock: UXUYUI_clean_sbu_0, # of connection points: 4
#     Node 9, Type 0, BuildingBlock: UXUYUI_clean_sbu_0, # of connection points: 4
#     Node 10, Type 0, BuildingBlock: UXUYUI_clean_sbu_0, # of connection points: 4
#     Node 11, Type 0, BuildingBlock: UXUYUI_clean_sbu_0, # of connection points: 4
#     Edge 12, Type (0, 0), None
#     Edge 13, Type (0, 0), None
#     Edge 14, Type (0, 0), None
#     Edge 15, Type (0, 0), None
#     Edge 16, Type (0, 0), None
#     Edge 17, Type (0, 0), None
#     Edge 18, Type (0, 0), None
#     Edge 19, Type (0, 0), None
#     Edge 20, Type (0, 0), None
#     Edge 21, Type (0, 0), None
#     Edge 22, Type (0, 0), None
#     Edge 23, Type (0, 0), None
#     Edge 24, Type (0, 0), None
#     Edge 25, Type (0, 0), None
#     Edge 26, Type (0, 0), None
#     Edge 27, Type (0, 0), None
#     Edge 28, Type (0, 0), None
#     Edge 29, Type (0, 0), None
#     Edge 30, Type (0, 0), None
#     Edge 31, Type (0, 0), None
#     Edge 32, Type (0, 0), None
#     Edge 33, Type (0, 0), None
#     Edge 34, Type (0, 0), None
#     Edge 35, Type (0, 0), None
# Relax obj value: 0.147
# Max RMSD: 0.104
# Mean RMSD: 0.104
data_MOF--net-uoq--node1-UXUYUI_clean_sbu_0--edge1-none
_symmetry_space_group_name_H-M    P1
_symmetry_Int_Tables_number       1
_symmetry_cell_setting            triclinic
loop_
_symmetry_equiv_pos_as_xyz
'x, y, z'
_cell_length_a     52.846707
_cell_length_b     52.854654
_cell_length_c     22.053797
_cell_angle_alpha  89.998113
_cell_angle_beta   90.003021
_cell_angle_gamma 120.00947
loop_
_atom_site_label
_atom_site_type_symbol
_atom_site_fract_x
_atom_site_fract_y
_atom_site_fract_z
_atom_type_partial_charge
Li0 Li 0.29342 0.44831 0.30847 0.0
Li1 Li 0.32458 0.43202 0.26563 0.0
Li2 Li 0.33852 0.4841 0.2651 0.0
Li3 Li 0.29733 0.45016 0.20135 0.0
C4 C 0.34057 0.47362 0.38758 0.0
N5 N 0.35735 0.50494 0.49465 0.0
C6 C 0.35595 0.46759 0.43134 0.0
C7 C 0.33368 0.49557 0.39832 0.0
C8 C 0.36424 0.48367 0.48518 0.0
C9 C 0.34237 0.51116 0.45272 0.0
C10 C 0.25809 0.39373 0.28399 0.0
C11 C 0.20629 0.36809 0.30406 0.0
N12 N 0.21044 0.35334 0.34992 0.0
C13 C 0.26184 0.37823 0.33113 0.0
C14 C 0.2301 0.38855 0.27011 0.0
C15 C 0.23748 0.35792 0.36398 0.0
C16 C 0.24775 0.45005 0.37074 0.0
N17 N 0.26812 0.44163 0.37478 0.0
C18 C 0.2561 0.4281 0.47848 0.0
C19 C 0.27219 0.43031 0.42677 0.0
C20 C 0.2355 0.43742 0.47629 0.0
C21 C 0.23095 0.44798 0.4213 0.0
H22 H 0.24514 0.45906 0.32872 0.0
H23 H 0.28845 0.42362 0.42846 0.0
C24 C 0.36795 0.42216 0.30779 0.0
N25 N 0.34124 0.40772 0.28103 0.0
C26 C 0.381 0.40687 0.3309 0.0
C27 C 0.33934 0.36193 0.29647 0.0
C28 C 0.32696 0.37817 0.27416 0.0
C29 C 0.36649 0.37627 0.32652 0.0
H30 H 0.37874 0.44562 0.31296 0.0
H31 H 0.30553 0.36712 0.25345 0.0
C32 C 0.30284 0.5041 0.2216 0.0
N33 N 0.30861 0.54993 0.15112 0.0
C34 C 0.31959 0.51185 0.16856 0.0
C35 C 0.28901 0.51965 0.23869 0.0
C36 C 0.32222 0.53507 0.13356 0.0
C37 C 0.29222 0.54277 0.2025 0.0
C38 C 0.34424 0.44784 0.14566 0.0
C39 C 0.36612 0.46474 0.10386 0.0
C40 C 0.32655 0.4178 0.13602 0.0
C41 C 0.36992 0.4513 0.05287 0.0
C42 C 0.33107 0.40518 0.08452 0.0
N43 N 0.35247 0.42205 0.04435 0.0
C44 C 0.39555 0.51907 0.30197 0.0
C45 C 0.37385 0.54769 0.279 0.0
C46 C 0.42022 0.54337 0.32559 0.0
N47 N 0.37276 0.52143 0.28028 0.0
C48 C 0.39855 0.57283 0.30061 0.0
C49 C 0.42208 0.57089 0.32562 0.0
H50 H 0.39393 0.49787 0.30369 0.0
H51 H 0.35534 0.54919 0.26306 0.0
C52 C 0.24909 0.44627 0.14092 0.0
N53 N 0.27453 0.44658 0.12916 0.0
C54 C 0.23104 0.44548 0.09369 0.0
C55 C 0.26562 0.44556 0.02222 0.0
C56 C 0.28305 0.44631 0.07101 0.0
C57 C 0.23918 0.44526 0.03309 0.0
H58 H 0.24302 0.44715 0.18737 0.0
H59 H 0.30362 0.44731 0.06212 0.0
O60 O 0.33246 0.45811 0.33448 0.0
O61 O 0.28178 0.41415 0.25221 0.0
O62 O 0.29937 0.48113 0.25636 0.0
O63 O 0.34034 0.46083 0.19564 0.0
H64 H 0.3614 0.45064 0.42379 0.0
H65 H 0.32178 0.50056 0.36507 0.0
H66 H 0.37616 0.47923 0.51944 0.0
H67 H 0.33722 0.5282 0.46158 0.0
H68 H 0.18451 0.36395 0.29397 0.0
H69 H 0.28339 0.38227 0.34312 0.0
H70 H 0.22676 0.40024 0.23368 0.0
H71 H 0.2401 0.34595 0.4009 0.0
H72 H 0.25996 0.41955 0.51991 0.0
H73 H 0.21541 0.4556 0.41808 0.0
H74 H 0.40221 0.41895 0.35239 0.0
H75 H 0.32736 0.33837 0.29213 0.0
H76 H 0.33044 0.50013 0.15436 0.0
H77 H 0.27589 0.51386 0.2795 0.0
H78 H 0.33509 0.54128 0.09242 0.0
H79 H 0.28164 0.555 0.21523 0.0
H80 H 0.37997 0.48803 0.11071 0.0
H81 H 0.30945 0.40434 0.16765 0.0
H82 H 0.38675 0.46413 0.02008 0.0
H83 H 0.31754 0.38197 0.07644 0.0
H84 H 0.43714 0.54019 0.34542 0.0
H85 H 0.3989 0.59345 0.2982 0.0
H86 H 0.21085 0.44501 0.10476 0.0
H87 H 0.27321 0.446 0.97643 0.0
Li88 Li 0.85224 0.28884 0.64534 0.0
Li89 Li 0.89964 0.32018 0.60185 0.0
Li90 Li 0.8614 0.33389 0.60141 0.0
Li91 Li 0.85437 0.29275 0.53776 0.0
C92 C 0.8738 0.33592 0.72406 0.0
N93 N 0.8587 0.35207 0.83124 0.0
C94 C 0.89494 0.35086 0.76855 0.0
C95 C 0.84493 0.32912 0.73415 0.0
C96 C 0.88688 0.35885 0.82243 0.0
C97 C 0.83776 0.3375 0.7886 0.0
C98 C 0.87411 0.25514 0.62283 0.0
C99 C 0.85266 0.20386 0.64607 0.0
N100 N 0.87209 0.2106 0.69219 0.0
C101 C 0.89393 0.26154 0.67032 0.0
C102 C 0.85338 0.22606 0.61041 0.0
C103 C 0.89254 0.23873 0.7049 0.0
C104 C 0.80488 0.24314 0.70751 0.0
N105 N 0.83365 0.26355 0.71178 0.0
C106 C 0.83497 0.2513 0.81546 0.0
C107 C 0.84892 0.26759 0.76396 0.0
C108 C 0.80507 0.23062 0.81302 0.0
C109 C 0.79006 0.22624 0.7579 0.0
H110 H 0.79333 0.24057 0.66541 0.0
H111 H 0.87183 0.28395 0.76597 0.0
C112 C 0.95276 0.36312 0.64588 0.0
N113 N 0.94075 0.33707 0.61643 0.0
C114 C 0.98126 0.37611 0.66816 0.0
C115 C 0.98525 0.33585 0.62728 0.0
C116 C 0.95644 0.32347 0.60597 0.0
C117 C 0.99781 0.36227 0.66001 0.0
H118 H 0.9398 0.37342 0.65369 0.0
H119 H 0.94628 0.30256 0.58313 0.0
C120 C 0.80558 0.29765 0.55791 0.0
N121 N 0.76509 0.30263 0.48724 0.0
C122 C 0.81447 0.31477 0.50535 0.0
C123 C 0.77611 0.28308 0.57445 0.0
C124 C 0.79366 0.31698 0.47023 0.0
C125 C 0.75598 0.2859 0.53818 0.0
C126 C 0.90357 0.33981 0.48224 0.0
C127 C 0.91051 0.36318 0.44311 0.0
C128 C 0.91409 0.32076 0.47006 0.0
C129 C 0.92786 0.3671 0.39224 0.0
C130 C 0.9314 0.32544 0.41876 0.0
N131 N 0.93786 0.34831 0.38123 0.0
C132 C 0.88318 0.39088 0.63828 0.0
C133 C 0.83313 0.36937 0.61286 0.0
C134 C 0.88347 0.41571 0.6607 0.0
N135 N 0.85819 0.36812 0.61591 0.0
C136 C 0.83266 0.39425 0.63308 0.0
C137 C 0.85795 0.41779 0.65868 0.0
H138 H 0.90268 0.38916 0.64132 0.0
H139 H 0.81322 0.3509 0.59644 0.0
C140 C 0.81368 0.24252 0.47463 0.0
N141 N 0.83557 0.27039 0.46483 0.0
C142 C 0.79699 0.22482 0.42637 0.0
C143 C 0.8249 0.26504 0.35827 0.0
C144 C 0.84134 0.28186 0.40789 0.0
C145 C 0.80221 0.23596 0.36687 0.0
H146 H 0.80869 0.23418 0.52041 0.0
H147 H 0.8581 0.30434 0.40093 0.0
O148 O 0.88145 0.32805 0.67097 0.0
O149 O 0.87483 0.27727 0.58926 0.0
O150 O 0.82531 0.29457 0.59268 0.0
O151 O 0.88645 0.33572 0.53193 0.0
H152 H 0.91735 0.35619 0.76158 0.0
H153 H 0.82823 0.31752 0.70036 0.0
H154 H 0.90303 0.37044 0.85725 0.0
H155 H 0.81553 0.33242 0.79697 0.0
H156 H 0.83667 0.18127 0.63705 0.0
H157 H 0.9098 0.28391 0.68133 0.0
H158 H 0.83799 0.22063 0.5737 0.0
H159 H 0.9076 0.2434 0.74209 0.0
H160 H 0.84736 0.25507 0.8569 0.0
H161 H 0.7669 0.21071 0.75437 0.0
H162 H 0.99018 0.39679 0.6918 0.0
H163 H 0.99719 0.3244 0.61999 0.0
H164 H 0.83713 0.32629 0.49174 0.0
H165 H 0.76887 0.26969 0.6149 0.0
H166 H 0.80023 0.33012 0.42947 0.0
H167 H 0.7331 0.27474 0.55047 0.0
H168 H 0.90248 0.37808 0.45191 0.0
H169 H 0.90895 0.30252 0.49962 0.0
H170 H 0.93336 0.38508 0.36151 0.0
H171 H 0.93968 0.31087 0.40876 0.0
H172 H 0.90342 0.43259 0.68111 0.0
H173 H 0.81251 0.39473 0.62905 0.0
H174 H 0.78011 0.20262 0.43597 0.0
H175 H 0.82949 0.27513 0.31392 0.0
Li176 Li 0.58708 0.89472 0.93274 0.0
Li177 Li 0.5699 0.84698 0.97908 0.0
Li178 Li 0.56796 0.85114 0.86755 0.0
Li179 Li 0.53409 0.85782 0.93323 0.0
C180 C 0.63221 0.8833 0.91765 0.0
N181 N 0.6924 0.91552 0.9097 0.0
C182 C 0.64923 0.89118 0.97022 0.0
C183 C 0.64579 0.89122 0.86097 0.0
C184 C 0.67963 0.90766 0.96529 0.0
C185 C 0.67625 0.90766 0.85791 0.0
C186 C 0.54609 0.87127 0.05617 0.0
C187 C 0.50888 0.83733 0.12432 0.0
N188 N 0.51591 0.85947 0.16432 0.0
C189 C 0.55296 0.89367 0.0979 0.0
C190 C 0.52389 0.84284 0.06939 0.0
C191 C 0.53744 0.88726 0.15235 0.0
C192 C 0.61372 0.9571 0.91789 0.0
N193 N 0.61326 0.93519 0.95105 0.0
C194 C 0.64299 0.96925 0.0279 0.0
C195 C 0.62758 0.94077 1.00502 0.0
C196 C 0.64323 0.99223 0.9955 0.0
C197 C 0.62881 0.9859 0.93913 0.0
H198 H 0.60128 0.95216 0.87641 0.0
H199 H 0.62575 0.92286 0.03199 0.0
C200 C 0.5672 0.79937 0.04163 0.0
N201 N 0.57651 0.82838 0.0446 0.0
C202 C 0.56936 0.78486 0.09247 0.0
C203 C 0.59099 0.83054 0.14776 0.0
C204 C 0.5888 0.84422 0.09566 0.0
C205 C 0.58086 0.80045 0.14661 0.0
H206 H 0.55745 0.78743 1.00029 0.0
H207 H 0.59613 0.86733 0.09636 0.0
C208 C 0.56358 0.89591 0.80906 0.0
N209 N 0.57464 0.9203 0.69455 0.0
C210 C 0.54058 0.89307 0.77292 0.0
C211 C 0.59219 0.91127 0.78718 0.0
C212 C 0.54662 0.90553 0.71508 0.0
C213 C 0.59735 0.92342 0.72912 0.0
C214 C 0.51406 0.80126 0.89013 0.0
C215 C 0.50506 0.80943 0.83771 0.0
C216 C 0.49987 0.77194 0.90768 0.0
C217 C 0.48196 0.78807 0.80366 0.0
C218 C 0.4768 0.75122 0.87247 0.0
N219 N 0.46841 0.75965 0.82161 0.0
C220 C 0.58095 0.81306 0.80558 0.0
C221 C 0.5636 0.83582 0.73819 0.0
C222 C 0.58205 0.79581 0.75862 0.0
N223 N 0.57168 0.83249 0.79492 0.0
C224 C 0.56456 0.81913 0.68974 0.0
C225 C 0.5736 0.79852 0.69965 0.0
H226 H 0.58694 0.81053 0.85116 0.0
H227 H 0.55559 0.85074 0.73056 0.0
C228 C 0.49933 0.87977 0.97324 0.0
N229 N 0.49698 0.85493 0.94972 0.0
C230 C 0.47491 0.87988 0.99695 0.0
C231 C 0.44543 0.8292 0.96845 0.0
C232 C 0.47067 0.82985 0.9469 0.0
C233 C 0.44729 0.85433 0.99507 0.0
H234 H 0.52059 0.89928 0.97613 0.0
H235 H 0.46918 0.81006 0.92956 0.0
O236 O 0.60244 0.86711 0.92157 0.0
O237 O 0.56098 0.87727 1.00249 0.0
O238 O 0.55797 0.88353 0.86545 0.0
O239 O 0.53698 0.82168 0.92363 0.0
H240 H 0.63906 0.88469 0.01438 0.0
H241 H 0.63296 0.88458 0.81975 0.0
H242 H 0.69307 0.91412 1.00564 0.0
H243 H 0.68706 0.91408 0.81436 0.0
H244 H 0.49164 0.81546 0.13515 0.0
H245 H 0.57007 0.91579 0.08821 0.0
H246 H 0.51827 0.82524 0.03755 0.0
H247 H 0.5425 0.90439 0.18509 0.0
H248 H 0.65331 0.97295 0.07196 0.0
H249 H 0.62855 1.00294 0.91233 0.0
H250 H 0.56112 0.76155 0.0902 0.0
H251 H 0.60019 0.84324 0.18866 0.0
H252 H 0.51829 0.88125 0.78932 0.0
H253 H 0.61022 0.91399 0.81495 0.0
H254 H 0.52904 0.90344 0.6865 0.0
H255 H 0.6194 0.93537 0.7116 0.0
H256 H 0.51572 0.832 0.82353 0.0
H257 H 0.50661 0.76526 0.9481 0.0
H258 H 0.47478 0.79409 0.76299 0.0
H259 H 0.4656 0.72844 0.88554 0.0
H260 H 0.58942 0.78048 0.76849 0.0
H261 H 0.55738 0.82171 0.64534 0.0
H262 H 0.47805 0.8997 0.01812 0.0
H263 H 0.42478 0.80905 0.96454 0.0
Li264 Li 0.7294 0.5669 0.3085 0.0
Li265 Li 0.69824 0.58317 0.26562 0.0
Li266 Li 0.68431 0.5311 0.26513 0.0
Li267 Li 0.7255 0.56504 0.20137 0.0
C268 C 0.68224 0.54158 0.38758 0.0
N269 N 0.66546 0.51025 0.49465 0.0
C270 C 0.66684 0.54759 0.43131 0.0
C271 C 0.68915 0.51964 0.39835 0.0
C272 C 0.65854 0.53151 0.48515 0.0
C273 C 0.68045 0.50405 0.45275 0.0
C274 C 0.76471 0.62149 0.284 0.0
C275 C 0.81652 0.6472 0.30406 0.0
N276 N 0.81233 0.66192 0.34994 0.0
C277 C 0.76094 0.63696 0.33116 0.0
C278 C 0.79272 0.62672 0.27011 0.0
C279 C 0.78528 0.65728 0.36402 0.0
C280 C 0.7751 0.56521 0.37078 0.0
N281 N 0.75471 0.57359 0.37481 0.0
C282 C 0.76672 0.58712 0.47852 0.0
C283 C 0.75062 0.5849 0.42681 0.0
C284 C 0.78733 0.57783 0.47634 0.0
C285 C 0.79191 0.56729 0.42134 0.0
H286 H 0.77773 0.55621 0.32876 0.0
H287 H 0.73434 0.59157 0.4285 0.0
C288 C 0.65485 0.59302 0.30773 0.0
N289 N 0.68157 0.60747 0.28099 0.0
C290 C 0.6418 0.60831 0.33084 0.0
C291 C 0.68346 0.65325 0.29642 0.0
C292 C 0.69585 0.63701 0.27412 0.0
C293 C 0.65632 0.63891 0.32647 0.0
H294 H 0.64406 0.56957 0.3129 0.0
H295 H 0.71728 0.64807 0.25342 0.0
C296 C 0.72001 0.5111 0.22166 0.0
N297 N 0.71426 0.46528 0.15122 0.0
C298 C 0.70325 0.50334 0.16863 0.0
C299 C 0.73387 0.49558 0.23876 0.0
C300 C 0.70063 0.48012 0.13365 0.0
C301 C 0.73066 0.47246 0.20259 0.0
C302 C 0.67858 0.56734 0.14566 0.0
C303 C 0.65668 0.55043 0.10388 0.0
C304 C 0.69627 0.59737 0.13598 0.0
C305 C 0.65287 0.56386 0.05289 0.0
C306 C 0.69174 0.60999 0.08447 0.0
N307 N 0.67033 0.59311 0.04433 0.0
C308 C 0.62727 0.49611 0.30194 0.0
C309 C 0.649 0.46751 0.27907 0.0
C310 C 0.6026 0.47181 0.32555 0.0
N311 N 0.65008 0.49376 0.2803 0.0
C312 C 0.6243 0.44236 0.30068 0.0
C313 C 0.60076 0.4443 0.32562 0.0
H314 H 0.62889 0.51731 0.30362 0.0
H315 H 0.66752 0.46601 0.26319 0.0
C316 C 0.77376 0.56898 0.14095 0.0
N317 N 0.7483 0.56861 0.12918 0.0
C318 C 0.79181 0.56976 0.09372 0.0
C319 C 0.75718 0.56957 0.02224 0.0
C320 C 0.73974 0.56882 0.07103 0.0
C321 C 0.78364 0.56992 0.03312 0.0
H322 H 0.77985 0.56814 0.18741 0.0
H323 H 0.71916 0.56778 0.06214 0.0
O324 O 0.69036 0.55709 0.33449 0.0
O325 O 0.74104 0.60105 0.25221 0.0
O326 O 0.72346 0.53407 0.25641 0.0
O327 O 0.68248 0.55435 0.19564 0.0
H328 H 0.66138 0.56453 0.42374 0.0
H329 H 0.70107 0.51466 0.36513 0.0
H330 H 0.64661 0.53593 0.51938 0.0
H331 H 0.68562 0.48702 0.46164 0.0
H332 H 0.83831 0.65138 0.29396 0.0
H333 H 0.73937 0.63288 0.34316 0.0
H334 H 0.79608 0.61505 0.23367 0.0
H335 H 0.78264 0.66924 0.40095 0.0
H336 H 0.76283 0.59565 0.51996 0.0
H337 H 0.80747 0.55969 0.41812 0.0
H338 H 0.62059 0.59623 0.35232 0.0
H339 H 0.69545 0.67682 0.29209 0.0
H340 H 0.69238 0.51504 0.15443 0.0
H341 H 0.74699 0.50138 0.27956 0.0
H342 H 0.68775 0.47389 0.09252 0.0
H343 H 0.74126 0.46024 0.21531 0.0
H344 H 0.64283 0.52714 0.11076 0.0
H345 H 0.71338 0.61084 0.16759 0.0
H346 H 0.63604 0.55103 0.02011 0.0
H347 H 0.70528 0.63319 0.07637 0.0
H348 H 0.58567 0.47499 0.34533 0.0
H349 H 0.62396 0.42175 0.29831 0.0
H350 H 0.81202 0.57028 0.10479 0.0
H351 H 0.74955 0.56908 0.97646 0.0
Li352 Li 0.17062 0.72635 0.64535 0.0
Li353 Li 0.1232 0.69506 0.60193 0.0
Li354 Li 0.16142 0.6813 0.60142 0.0
Li355 Li 0.16848 0.72247 0.5378 0.0
C356 C 0.14904 0.67929 0.72409 0.0
N357 N 0.16411 0.66313 0.8313 0.0
C358 C 0.1279 0.6644 0.76862 0.0
C359 C 0.17789 0.68603 0.73416 0.0
C360 C 0.13595 0.6564 0.82251 0.0
C361 C 0.18505 0.67764 0.78863 0.0
C362 C 0.14897 0.76019 0.62289 0.0
C363 C 0.17091 0.81149 0.64635 0.0
N364 N 0.15145 0.80491 0.69235 0.0
C365 C 0.12912 0.75396 0.67024 0.0
C366 C 0.16997 0.7892 0.61065 0.0
C367 C 0.13074 0.77686 0.70487 0.0
C368 C 0.21802 0.77199 0.70758 0.0
N369 N 0.18924 0.75163 0.71181 0.0
C370 C 0.1879 0.76391 0.81545 0.0
C371 C 0.17396 0.74762 0.76395 0.0
C372 C 0.21781 0.78456 0.81305 0.0
C373 C 0.23284 0.78889 0.75797 0.0
H374 H 0.22958 0.77453 0.66551 0.0
H375 H 0.15103 0.7313 0.76592 0.0
C376 C 0.07008 0.65212 0.64598 0.0
N377 N 0.08209 0.67819 0.61657 0.0
C378 C 0.04159 0.63912 0.66825 0.0
C379 C 0.0376 0.6794 0.62748 0.0
C380 C 0.06641 0.69179 0.60618 0.0
C381 C 0.02503 0.65296 0.66015 0.0
H382 H 0.08304 0.64181 0.65374 0.0
H383 H 0.07656 0.71271 0.58338 0.0
C384 C 0.21723 0.71747 0.55788 0.0
N385 N 0.25764 0.71241 0.48716 0.0
C386 C 0.20831 0.70044 0.50521 0.0
C387 C 0.24669 0.73192 0.5745 0.0
C388 C 0.22908 0.69818 0.47007 0.0
C389 C 0.26678 0.72906 0.5382 0.0
C390 C 0.11924 0.67543 0.48229 0.0
C391 C 0.11239 0.65212 0.44302 0.0
C392 C 0.10864 0.69442 0.47025 0.0
C393 C 0.09504 0.64822 0.39215 0.0
C394 C 0.09134 0.68976 0.41895 0.0
N395 N 0.08496 0.66696 0.38128 0.0
C396 C 0.13962 0.62431 0.63843 0.0
C397 C 0.18963 0.64575 0.61267 0.0
C398 C 0.13933 0.59949 0.66086 0.0
N399 N 0.16459 0.64704 0.6159 0.0
C400 C 0.19009 0.62087 0.63288 0.0
C401 C 0.16483 0.59737 0.65867 0.0
H402 H 0.12014 0.62607 0.6416 0.0
H403 H 0.20951 0.66418 0.5961 0.0
C404 C 0.20941 0.7726 0.47479 0.0
N405 N 0.18731 0.74484 0.46488 0.0
C406 C 0.22611 0.79031 0.42656 0.0
C407 C 0.19778 0.75033 0.35824 0.0
C408 C 0.18133 0.73349 0.40784 0.0
C409 C 0.22068 0.7793 0.36696 0.0
H410 H 0.21456 0.78084 0.52063 0.0
H411 H 0.1644 0.7111 0.40077 0.0
O412 O 0.1414 0.68717 0.671 0.0
O413 O 0.14804 0.73796 0.58931 0.0
O414 O 0.19753 0.7206 0.59268 0.0
O415 O 0.13636 0.6795 0.53198 0.0
H416 H 0.10551 0.65911 0.76167 0.0
H417 H 0.19459 0.69759 0.70035 0.0
H418 H 0.11981 0.64486 0.85736 0.0
H419 H 0.20727 0.68268 0.79698 0.0
H420 H 0.18712 0.83403 0.63749 0.0
H421 H 0.11305 0.73164 0.68111 0.0
H422 H 0.18539 0.79451 0.57405 0.0
H423 H 0.11566 0.77231 0.74195 0.0
H424 H 0.17549 0.76018 0.85685 0.0
H425 H 0.25601 0.8044 0.75448 0.0
H426 H 0.03266 0.61843 0.69185 0.0
H427 H 0.02566 0.69085 0.62024 0.0
H428 H 0.18566 0.68902 0.49153 0.0
H429 H 0.25394 0.74524 0.61504 0.0
H430 H 0.22249 0.6851 0.42922 0.0
H431 H 0.28965 0.74012 0.55057 0.0
H432 H 0.12048 0.63727 0.45171 0.0
H433 H 0.11372 0.71261 0.49992 0.0
H434 H 0.0896 0.6303 0.36131 0.0
H435 H 0.083 0.70429 0.40906 0.0
H436 H 0.1194 0.58264 0.6814 0.0
H437 H 0.21022 0.62035 0.62872 0.0
H438 H 0.24317 0.81243 0.43626 0.0
H439 H 0.19301 0.74033 0.3138 0.0
Li440 Li 0.45292 0.16822 0.97913 0.0
Li441 Li 0.43576 0.12048 0.93281 0.0
Li442 Li 0.48875 0.15739 0.9333 0.0
Li443 Li 0.45487 0.16406 0.8676 0.0
C444 C 0.47675 0.14395 0.05623 0.0
N445 N 0.50694 0.15574 0.16438 0.0
C446 C 0.46989 0.12154 0.09795 0.0
C447 C 0.49894 0.17237 0.06947 0.0
C448 C 0.48541 0.12795 0.15241 0.0
C449 C 0.51395 0.17788 0.1244 0.0
C450 C 0.39062 0.13186 0.91763 0.0
C451 C 0.34661 0.10742 0.8578 0.0
N452 N 0.33044 0.09954 0.90956 0.0
C453 C 0.37358 0.12394 0.97016 0.0
C454 C 0.37707 0.12391 0.86092 0.0
C455 C 0.34319 0.10742 0.96517 0.0
C456 C 0.4556 0.21582 0.04169 0.0
N457 N 0.4463 0.18682 0.04465 0.0
C458 C 0.43181 0.18464 0.14781 0.0
C459 C 0.43401 0.17097 0.0957 0.0
C460 C 0.44193 0.21473 0.14666 0.0
C461 C 0.45343 0.23032 0.09252 0.0
H462 H 0.46535 0.22777 1.00035 0.0
H463 H 0.42669 0.14786 0.09639 0.0
C464 C 0.40909 0.05811 0.91795 0.0
N465 N 0.40958 0.08002 0.95113 0.0
C466 C 0.39401 0.02931 0.9392 0.0
C467 C 0.37989 0.04597 0.02803 0.0
C468 C 0.39529 0.07444 1.00514 0.0
C469 C 0.37962 0.02298 0.9956 0.0
H470 H 0.42151 0.06304 0.87642 0.0
H471 H 0.39714 0.09236 0.03211 0.0
C472 C 0.50876 0.21396 0.89021 0.0
N473 N 0.55441 0.25559 0.82173 0.0
C474 C 0.51778 0.2058 0.83781 0.0
C475 C 0.52293 0.24328 0.90777 0.0
C476 C 0.54089 0.22718 0.80378 0.0
C477 C 0.546 0.26401 0.87258 0.0
C478 C 0.45933 0.11934 0.80912 0.0
C479 C 0.48238 0.12223 0.77308 0.0
C480 C 0.43074 0.10396 0.7871 0.0
C481 C 0.47641 0.10981 0.7152 0.0
C482 C 0.42566 0.09185 0.72902 0.0
N483 N 0.44842 0.09502 0.69454 0.0
C484 C 0.52351 0.13544 0.97325 0.0
C485 C 0.55216 0.18538 0.94704 0.0
C486 C 0.54794 0.13533 0.99694 0.0
N487 N 0.52585 0.16029 0.9498 0.0
C488 C 0.57741 0.18603 0.96857 0.0
C489 C 0.57555 0.16089 0.99511 0.0
H490 H 0.50226 0.11593 0.97611 0.0
H491 H 0.55365 0.20517 0.92975 0.0
C492 C 0.44186 0.20212 0.80561 0.0
N493 N 0.45115 0.18271 0.79496 0.0
C494 C 0.44076 0.21936 0.75864 0.0
C495 C 0.45832 0.19609 0.6898 0.0
C496 C 0.45927 0.1794 0.73825 0.0
C497 C 0.44924 0.21668 0.69969 0.0
H498 H 0.43585 0.20463 0.85117 0.0
H499 H 0.4673 0.1645 0.73063 0.0
O500 O 0.46185 0.13794 1.00256 0.0
O501 O 0.42039 0.14809 0.92161 0.0
O502 O 0.48584 0.19353 0.9237 0.0
O503 O 0.46486 0.13168 0.86554 0.0
H504 H 0.45278 0.09942 0.08826 0.0
H505 H 0.50455 0.18998 0.03764 0.0
H506 H 0.48036 0.11082 0.18513 0.0
H507 H 0.53119 0.19976 0.13523 0.0
H508 H 0.33582 0.10098 0.81423 0.0
H509 H 0.38372 0.13045 0.01434 0.0
H510 H 0.38992 0.13057 0.81973 0.0
H511 H 0.32973 0.10094 1.00549 0.0
H512 H 0.42262 0.17194 0.18869 0.0
H513 H 0.46167 0.25363 0.09025 0.0
H514 H 0.39425 0.01227 0.91237 0.0
H515 H 0.36959 0.04227 0.0721 0.0
H516 H 0.50714 0.18323 0.82363 0.0
H517 H 0.51618 0.24995 0.94817 0.0
H518 H 0.54808 0.22116 0.76313 0.0
H519 H 0.55719 0.28679 0.88565 0.0
H520 H 0.50465 0.13407 0.78959 0.0
H521 H 0.41267 0.10119 0.8148 0.0
H522 H 0.49404 0.11195 0.6867 0.0
H523 H 0.40363 0.07988 0.71139 0.0
H524 H 0.54481 0.1155 0.01805 0.0
H525 H 0.59805 0.20618 0.9647 0.0
H526 H 0.43336 0.23468 0.7685 0.0
H527 H 0.46551 0.19354 0.64541 0.0
Li528 Li 0.53415 0.6807 0.41544 0.0
Li529 Li 0.56775 0.72126 0.48127 0.0
Li530 Li 0.56983 0.72746 0.36983 0.0
Li531 Li 0.58714 0.697 0.41629 0.0
C532 C 0.51373 0.71693 0.45842 0.0
N533 N 0.46781 0.71243 0.52664 0.0
C534 C 0.50452 0.69941 0.51033 0.0
C535 C 0.49961 0.73217 0.44121 0.0
C536 C 0.48128 0.69744 0.54424 0.0
C537 C 0.4764 0.72958 0.47627 0.0
C538 C 0.56354 0.67222 0.53983 0.0
C539 C 0.59725 0.67848 0.6199 0.0
N540 N 0.57452 0.65896 0.65449 0.0
C541 C 0.54051 0.6521 0.57598 0.0
C542 C 0.59214 0.68543 0.56176 0.0
C543 C 0.54651 0.64573 0.6339 0.0
C544 C 0.49996 0.62386 0.37619 0.0
N545 N 0.49728 0.64636 0.39855 0.0
C546 C 0.44594 0.62036 0.37754 0.0
C547 C 0.47092 0.64505 0.3997 0.0
C548 C 0.44817 0.59708 0.35208 0.0
C549 C 0.47582 0.59921 0.352 0.0
H550 H 0.52128 0.62571 0.37454 0.0
H551 H 0.46921 0.66338 0.41608 0.0
C552 C 0.5813 0.77241 0.54353 0.0
N553 N 0.5714 0.74358 0.55392 0.0
C554 C 0.58252 0.7908 0.59053 0.0
C555 C 0.56382 0.7497 0.65889 0.0
C556 C 0.56277 0.73203 0.6104 0.0
C557 C 0.57353 0.77952 0.64925 0.0
H558 H 0.58773 0.78104 0.49814 0.0
H559 H 0.55428 0.70899 0.61779 0.0
C560 C 0.54628 0.67933 0.2927 0.0
N561 N 0.51608 0.66061 0.18463 0.0
C562 C 0.55311 0.66362 0.25133 0.0
C563 C 0.52411 0.68554 0.27915 0.0
C564 C 0.53758 0.65435 0.19691 0.0
C565 C 0.50909 0.67588 0.22426 0.0
C566 C 0.63208 0.7537 0.43191 0.0
C567 C 0.64929 0.76315 0.37963 0.0
C568 C 0.64545 0.75922 0.4888 0.0
C569 C 0.67968 0.77726 0.38506 0.0
C570 C 0.67591 0.77343 0.49235 0.0
N571 N 0.69225 0.78203 0.44084 0.0
C572 C 0.56705 0.77233 0.30726 0.0
C573 C 0.58886 0.74924 0.25339 0.0
C574 C 0.56922 0.789 0.25643 0.0
N575 N 0.57645 0.7527 0.30436 0.0
C576 C 0.59107 0.76513 0.20129 0.0
C577 C 0.58085 0.78502 0.20237 0.0
H578 H 0.5572 0.77444 0.34853 0.0
H579 H 0.59626 0.73351 0.25275 0.0
C580 C 0.61327 0.66087 0.43061 0.0
N581 N 0.61334 0.68276 0.39811 0.0
C582 C 0.62817 0.64701 0.40911 0.0
C583 C 0.64329 0.67865 0.32151 0.0
C584 C 0.62803 0.69183 0.3446 0.0
C585 C 0.64296 0.65544 0.35317 0.0
H586 H 0.60052 0.65313 0.47167 0.0
H587 H 0.62657 0.70824 0.31807 0.0
O588 O 0.53675 0.71962 0.42501 0.0
O589 O 0.55798 0.67896 0.48337 0.0
O590 O 0.56116 0.68835 0.34637 0.0
O591 O 0.60231 0.73993 0.4275 0.0
H592 H 0.51513 0.68741 0.52424 0.0
H593 H 0.5065 0.74585 0.40118 0.0
H594 H 0.47394 0.68397 0.58452 0.0
H595 H 0.46525 0.74124 0.46347 0.0
H596 H 0.6193 0.68856 0.63747 0.0
H597 H 0.51823 0.64164 0.55952 0.0
H598 H 0.6102 0.70068 0.53396 0.0
H599 H 0.5289 0.63028 0.66249 0.0
H600 H 0.42522 0.6198 0.38001 0.0
H601 H 0.47921 0.5825 0.3318 0.0
H602 H 0.59042 0.81364 0.58088 0.0
H603 H 0.55622 0.73987 0.70309 0.0
H604 H 0.5702 0.65862 0.26128 0.0
H605 H 0.51851 0.69764 0.31072 0.0
H606 H 0.54261 0.64215 0.16445 0.0
H607 H 0.49186 0.6805 0.2132 0.0
H608 H 0.63928 0.75958 0.33532 0.0
H609 H 0.63246 0.75277 0.5298 0.0
H610 H 0.69327 0.78449 0.34494 0.0
H611 H 0.68656 0.77772 0.53607 0.0
H612 H 0.5609 0.80401 0.25864 0.0
H613 H 0.60036 0.7617 0.16047 0.0
H614 H 0.62746 0.62934 0.4353 0.0
H615 H 0.6539 0.68553 0.27779 0.0
Li616 Li 0.85354 0.56415 0.81108 0.0
Li617 Li 0.8602 0.53041 0.74537 0.0
Li618 Li 0.89706 0.58357 0.74625 0.0
Li619 Li 0.84931 0.56636 0.6996 0.0
C620 C 0.89664 0.55853 0.87082 0.0
N621 N 0.91747 0.5668 0.98825 0.0
C622 C 0.89294 0.53471 0.90526 0.0
C623 C 0.91116 0.58655 0.89583 0.0
C624 C 0.90357 0.53934 0.96464 0.0
C625 C 0.92147 0.59029 0.95534 0.0
C626 C 0.80329 0.51067 0.78859 0.0
C627 C 0.75271 0.47672 0.81125 0.0
N628 N 0.76118 0.46585 0.85802 0.0
C629 C 0.81147 0.49915 0.83681 0.0
C630 C 0.77368 0.4994 0.77565 0.0
C631 C 0.78987 0.47651 0.8714 0.0
C632 C 0.82158 0.58357 0.87965 0.0
N633 N 0.83535 0.56773 0.88477 0.0
C634 C 0.81711 0.5539 0.98613 0.0
C635 C 0.83353 0.55316 0.93696 0.0
C636 C 0.80224 0.56974 0.9819 0.0
C637 C 0.80497 0.58495 0.92771 0.0
H638 H 0.82299 0.59468 0.83752 0.0
H639 H 0.84397 0.54011 0.94 0.0
C640 C 0.88291 0.49586 0.70821 0.0
N641 N 0.85752 0.49348 0.72836 0.0
C642 C 0.88348 0.47159 0.68497 0.0
C643 C 0.83195 0.44222 0.70657 0.0
C644 C 0.83221 0.46733 0.72767 0.0
C645 C 0.85776 0.44409 0.68374 0.0
H646 H 0.90258 0.51706 0.70769 0.0
H647 H 0.81199 0.46589 0.74179 0.0
C648 C 0.8862 0.62862 0.75994 0.0
N649 N 0.91985 0.68879 0.76479 0.0
C650 C 0.89411 0.64502 0.70652 0.0
C651 C 0.89489 0.64283 0.81589 0.0
C652 C 0.91129 0.67542 0.70989 0.0
C653 C 0.91202 0.67326 0.81739 0.0
C654 C 0.87402 0.54256 0.62283 0.0
C655 C 0.89675 0.54907 0.58222 0.0
C656 C 0.8456 0.52059 0.60874 0.0
C657 C 0.89068 0.53345 0.52795 0.0
C658 C 0.84043 0.50547 0.55403 0.0
N659 N 0.86288 0.51216 0.51511 0.0
C660 C 0.95937 0.61114 0.76349 0.0
C661 C 0.94336 0.62322 0.67343 0.0
C662 C 0.98831 0.62611 0.74296 0.0
N663 N 0.93755 0.60979 0.72846 0.0
C664 C 0.97198 0.63853 0.65127 0.0
C665 C 0.99487 0.63958 0.68553 0.0
H666 H 0.95424 0.59951 0.80608 0.0
H667 H 0.92554 0.62076 0.64522 0.0
C668 C 0.80182 0.56394 0.63695 0.0
N669 N 0.83077 0.573 0.63381 0.0
C670 C 0.7873 0.56615 0.5862 0.0
C671 C 0.83287 0.58746 0.53059 0.0
C672 C 0.84655 0.58511 0.58258 0.0
C673 C 0.80281 0.57757 0.53191 0.0
H674 H 0.78993 0.55438 0.67842 0.0
H675 H 0.86962 0.59225 0.58169 0.0
O676 O 0.88605 0.55434 0.81291 0.0
O677 O 0.82405 0.53324 0.75485 0.0
O678 O 0.86937 0.59886 0.75754 0.0
O679 O 0.87969 0.55752 0.67636 0.0
H680 H 0.88188 0.51288 0.88637 0.0
H681 H 0.91459 0.60521 0.86938 0.0
H682 H 0.90076 0.52111 0.99194 0.0
H683 H 0.93271 0.61187 0.97531 0.0
H684 H 0.72971 0.46778 0.80175 0.0
H685 H 0.83426 0.50748 0.84719 0.0
H686 H 0.76695 0.50809 0.73852 0.0
H687 H 0.79593 0.46741 0.90885 0.0
H688 H 0.81535 0.54137 0.02632 0.0
H689 H 0.79431 0.59777 0.92226 0.0
H690 H 0.90385 0.47477 0.66662 0.0
H691 H 0.81158 0.42167 0.70788 0.0
H692 H 0.88713 0.63439 0.6629 0.0
H693 H 0.88828 0.63051 0.85775 0.0
H694 H 0.91777 0.68838 0.66887 0.0
H695 H 0.91901 0.68455 0.86037 0.0
H696 H 0.91887 0.56598 0.59261 0.0
H697 H 0.82775 0.51523 0.63975 0.0
H698 H 0.90806 0.53823 0.49606 0.0
H699 H 0.81857 0.48841 0.54254 0.0
H700 H 1.00528 0.62652 0.77116 0.0
H701 H 0.97588 0.64812 0.60643 0.0
H702 H 0.76402 0.55805 0.58873 0.0
H703 H 0.84557 0.59664 0.4897 0.0
Li704 Li 0.33687 0.85668 0.08005 0.0
Li705 Li 0.29582 0.84959 0.14382 0.0
Li706 Li 0.29182 0.84761 0.03605 0.0
Li707 Li 0.32325 0.8949 0.0803 0.0
C708 C 0.30057 0.80074 0.12304 0.0
N709 N 0.30547 0.76008 0.1932 0.0
C710 C 0.31851 0.80965 0.17439 0.0
C711 C 0.28513 0.77117 0.10744 0.0
C712 C 0.32068 0.78875 0.20927 0.0
C713 C 0.28791 0.75095 0.14344 0.0
C714 C 0.34271 0.89854 0.19981 0.0
C715 C 0.32802 0.92599 0.26365 0.0
N716 N 0.35089 0.93248 0.30123 0.0
C717 C 0.36608 0.90551 0.23899 0.0
C718 C 0.3235 0.90885 0.21214 0.0
C719 C 0.36983 0.92268 0.29007 0.0
C720 C 0.39412 0.879 0.0453 0.0
N721 N 0.37106 0.85354 0.06503 0.0
C722 C 0.39697 0.82816 0.04365 0.0
C723 C 0.37203 0.8283 0.06468 0.0
C724 C 0.42086 0.85402 0.02081 0.0
C725 C 0.41904 0.87969 0.02226 0.0
H726 H 0.39256 0.89862 0.04476 0.0
H727 H 0.35327 0.80806 0.07886 0.0
C728 C 0.245 0.81041 0.20761 0.0
N729 N 0.27352 0.83082 0.2167 0.0
C730 C 0.22729 0.79384 0.25599 0.0
C731 C 0.26879 0.81882 0.32259 0.0
C732 C 0.28562 0.83522 0.27295 0.0
C733 C 0.23906 0.79763 0.31476 0.0
H734 H 0.23609 0.80648 0.16226 0.0
H735 H 0.30855 0.85081 0.27918 0.0
C736 C 0.33925 0.86952 0.95779 0.0
N737 N 0.35611 0.855 0.8508 0.0
C738 C 0.35491 0.89099 0.91433 0.0
C739 C 0.33211 0.84063 0.94678 0.0
C740 C 0.36325 0.88322 0.86053 0.0
C741 C 0.34085 0.83374 0.89244 0.0
C742 C 0.2588 0.8707 0.05915 0.0
C743 C 0.26611 0.89005 0.01044 0.0
C744 C 0.2294 0.85191 0.07327 0.0
C745 C 0.24388 0.89014 0.97638 0.0
C746 C 0.20779 0.85267 0.03811 0.0
N747 N 0.21541 0.87159 0.99078 0.0
C748 C 0.24579 0.80048 0.97416 0.0
C749 C 0.27082 0.84428 0.91712 0.0
C750 C 0.22892 0.78562 0.92376 0.0
N751 N 0.26648 0.82914 0.9696 0.0
C752 C 0.25457 0.83028 0.86561 0.0
C753 C 0.23362 0.80047 0.86834 0.0
H754 H 0.24299 0.78903 0.01649 0.0
H755 H 0.28742 0.86709 0.91483 0.0
C756 C 0.36679 0.94804 0.03844 0.0
N757 N 0.34032 0.93603 0.06614 0.0
C758 C 0.38008 0.97649 0.01593 0.0
C759 C 0.33919 0.98045 0.053 0.0
C760 C 0.32656 0.95169 0.07473 0.0
C761 C 0.36605 0.99298 0.02188 0.0
H762 H 0.37719 0.93508 0.03201 0.0
H763 H 0.30532 0.94154 0.09622 0.0
O764 O 0.29757 0.8206 0.0885 0.0
O765 O 0.33877 0.88156 0.14995 0.0
O766 O 0.3311 0.8769 0.01085 0.0
O767 O 0.28033 0.87005 0.09246 0.0
H768 H 0.33072 0.83239 0.18725 0.0
H769 H 0.2711 0.76392 0.06791 0.0
H770 H 0.33446 0.79534 0.24911 0.0
H771 H 0.27609 0.72798 0.13187 0.0
H772 H 0.31333 0.93411 0.27378 0.0
H773 H 0.38109 0.89763 0.23008 0.0
H774 H 0.30528 0.90371 0.18253 0.0
H775 H 0.3878 0.92821 0.32084 0.0
H776 H 0.39724 0.80783 0.04484 0.0
H777 H 0.4362 0.9001 1.00402 0.0
H778 H 0.20458 0.77818 0.24704 0.0
H779 H 0.27933 0.82224 0.36627 0.0
H780 H 0.36055 0.91343 0.92206 0.0
H781 H 0.31998 0.82368 0.9798 0.0
H782 H 0.37539 0.89962 0.8265 0.0
H783 H 0.33551 0.81149 0.88338 0.0
H784 H 0.28871 0.9044 0.99816 0.0
H785 H 0.22328 0.83696 0.11102 0.0
H786 H 0.24925 0.90485 0.93828 0.0
H787 H 0.18496 0.83821 0.04849 0.0
H788 H 0.21316 0.76253 0.92753 0.0
H789 H 0.2586 0.84255 0.82392 0.0
H790 H 0.40108 0.98539 0.99364 0.0
H791 H 0.32758 0.99234 0.05859 0.0
Li792 Li 0.48868 0.33449 0.41544 0.0
Li793 Li 0.45508 0.29394 0.48131 0.0
Li794 Li 0.45297 0.28772 0.36987 0.0
Li795 Li 0.43568 0.31819 0.41631 0.0
C796 C 0.50909 0.29826 0.4584 0.0
N797 N 0.55504 0.30274 0.52653 0.0
C798 C 0.5183 0.31575 0.51035 0.0
C799 C 0.52323 0.28304 0.4411 0.0
C800 C 0.54155 0.31771 0.54421 0.0
C801 C 0.54644 0.28562 0.47612 0.0
C802 C 0.45938 0.34302 0.53986 0.0
C803 C 0.42578 0.33686 0.62009 0.0
N804 N 0.44857 0.35638 0.65457 0.0
C805 C 0.48247 0.36314 0.5759 0.0
C806 C 0.4308 0.32987 0.56192 0.0
C807 C 0.47655 0.36956 0.63385 0.0
C808 C 0.52287 0.39132 0.37612 0.0
N809 N 0.52555 0.36883 0.39853 0.0
C810 C 0.57689 0.39484 0.37759 0.0
C811 C 0.55191 0.37014 0.39974 0.0
C812 C 0.57466 0.41811 0.35207 0.0
C813 C 0.54701 0.41597 0.35193 0.0
H814 H 0.50154 0.38947 0.37442 0.0
H815 H 0.55362 0.35183 0.41618 0.0
C816 C 0.44157 0.2428 0.54356 0.0
N817 N 0.45144 0.27163 0.55396 0.0
C818 C 0.44035 0.22441 0.59055 0.0
C819 C 0.45899 0.2655 0.65895 0.0
C820 C 0.46004 0.28317 0.61046 0.0
C821 C 0.44931 0.23568 0.64929 0.0
H822 H 0.43516 0.23418 0.49815 0.0
H823 H 0.46851 0.3062 0.61786 0.0
C824 C 0.47652 0.33584 0.29269 0.0
N825 N 0.50668 0.35451 0.18458 0.0
C826 C 0.46966 0.35151 0.25129 0.0
C827 C 0.49869 0.32962 0.27916 0.0
C828 C 0.48518 0.36076 0.19685 0.0
C829 C 0.51369 0.33926 0.22425 0.0
C830 C 0.39074 0.26154 0.43204 0.0
C831 C 0.3735 0.25208 0.37981 0.0
C832 C 0.37741 0.25609 0.48897 0.0
C833 C 0.34311 0.23802 0.38532 0.0
C834 C 0.34696 0.24192 0.4926 0.0
N835 N 0.33058 0.23331 0.44112 0.0
C836 C 0.45576 0.24286 0.3073 0.0
C837 C 0.43392 0.26592 0.25344 0.0
C838 C 0.45358 0.22618 0.25647 0.0
N839 N 0.44634 0.26247 0.30441 0.0
C840 C 0.4317 0.25003 0.20135 0.0
C841 C 0.44194 0.23016 0.20242 0.0
H842 H 0.46562 0.24076 0.34856 0.0
H843 H 0.42651 0.28164 0.25281 0.0
C844 C 0.40954 0.35431 0.43066 0.0
N845 N 0.40948 0.33243 0.39814 0.0
C846 C 0.39464 0.36817 0.40916 0.0
C847 C 0.37953 0.33655 0.32154 0.0
C848 C 0.3948 0.32337 0.34463 0.0
C849 C 0.37985 0.35974 0.35322 0.0
H850 H 0.42229 0.36205 0.47174 0.0
H851 H 0.39627 0.30697 0.31808 0.0
O852 O 0.48606 0.29557 0.42503 0.0
O853 O 0.46486 0.33625 0.48336 0.0
O854 O 0.46166 0.32684 0.34638 0.0
O855 O 0.42051 0.27527 0.42756 0.0
H856 H 0.50769 0.32773 0.52432 0.0
H857 H 0.51634 0.26938 0.40104 0.0
H858 H 0.54889 0.33116 0.58453 0.0
H859 H 0.55761 0.27397 0.46325 0.0
H860 H 0.40375 0.32682 0.63776 0.0
H861 H 0.50473 0.37356 0.55934 0.0
H862 H 0.4127 0.31463 0.5342 0.0
H863 H 0.49421 0.385 0.66236 0.0
H864 H 0.59761 0.39541 0.38012 0.0
H865 H 0.54362 0.43267 0.33168 0.0
H866 H 0.43247 0.20158 0.58089 0.0
H867 H 0.46657 0.27532 0.70315 0.0
H868 H 0.45257 0.35651 0.26122 0.0
H869 H 0.50431 0.31754 0.31076 0.0
H870 H 0.48013 0.37294 0.16436 0.0
H871 H 0.53092 0.33465 0.2132 0.0
H872 H 0.38348 0.2556 0.33548 0.0
H873 H 0.39043 0.26254 0.52993 0.0
H874 H 0.3295 0.23079 0.34523 0.0
H875 H 0.33634 0.23768 0.53634 0.0
H876 H 0.46191 0.21118 0.25868 0.0
H877 H 0.4224 0.25345 0.16053 0.0
H878 H 0.39533 0.38583 0.43537 0.0
H879 H 0.36892 0.32967 0.27781 0.0
Li880 Li 0.1626 0.48478 0.74539 0.0
Li881 Li 0.16928 0.45103 0.81104 0.0
Li882 Li 0.17352 0.44885 0.69956 0.0
Li883 Li 0.12576 0.43161 0.74621 0.0
C884 C 0.21951 0.5045 0.78867 0.0
N885 N 0.26159 0.54927 0.85826 0.0
C886 C 0.2113 0.51607 0.83676 0.0
C887 C 0.24913 0.5157 0.77594 0.0
C888 C 0.23288 0.53868 0.87144 0.0
C889 C 0.27008 0.53836 0.81162 0.0
C890 C 0.12616 0.45656 0.87082 0.0
C891 C 0.10134 0.4247 0.95522 0.0
N892 N 0.10531 0.44815 0.98825 0.0
C893 C 0.12982 0.48033 0.90538 0.0
C894 C 0.11166 0.42851 0.89571 0.0
C895 C 0.11919 0.47563 0.96475 0.0
C896 C 0.13986 0.51932 0.70842 0.0
N897 N 0.16528 0.5217 0.7284 0.0
C898 C 0.19085 0.57294 0.70641 0.0
C899 C 0.1906 0.54784 0.72753 0.0
C900 C 0.16502 0.57107 0.68375 0.0
C901 C 0.13929 0.54359 0.68517 0.0
H902 H 0.12018 0.49814 0.70803 0.0
H903 H 0.21084 0.54925 0.7415 0.0
C904 C 0.20119 0.43155 0.87966 0.0
N905 N 0.18747 0.44744 0.88473 0.0
C906 C 0.2178 0.43017 0.92773 0.0
C907 C 0.20576 0.46132 0.98604 0.0
C908 C 0.18933 0.46206 0.93686 0.0
C909 C 0.22058 0.44543 0.98187 0.0
H910 H 0.19974 0.42039 0.83757 0.0
H911 H 0.17893 0.47514 0.93986 0.0
C912 C 0.14877 0.47267 0.62287 0.0
N913 N 0.15983 0.50314 0.51525 0.0
C914 C 0.126 0.46621 0.58238 0.0
C915 C 0.17717 0.49462 0.60871 0.0
C916 C 0.13204 0.48186 0.52816 0.0
C917 C 0.18231 0.50978 0.55406 0.0
C918 C 0.13665 0.38656 0.75971 0.0
C919 C 0.12878 0.37022 0.70621 0.0
C920 C 0.12796 0.37229 0.8156 0.0
C921 C 0.11162 0.33982 0.70944 0.0
C922 C 0.11085 0.34185 0.81694 0.0
N923 N 0.10305 0.32639 0.76427 0.0
C924 C 0.22101 0.45127 0.63692 0.0
C925 C 0.17629 0.43016 0.58249 0.0
C926 C 0.23553 0.44907 0.58616 0.0
N927 N 0.19206 0.44223 0.63375 0.0
C928 C 0.18997 0.42782 0.53051 0.0
C929 C 0.22002 0.43768 0.53186 0.0
H930 H 0.23289 0.46081 0.6784 0.0
H931 H 0.15322 0.42305 0.58158 0.0
C932 C 0.06346 0.40402 0.76343 0.0
N933 N 0.08527 0.4054 0.72838 0.0
C934 C 0.03452 0.38907 0.74287 0.0
C935 C 0.05086 0.37671 0.65113 0.0
C936 C 0.07947 0.392 0.67332 0.0
C937 C 0.02796 0.37564 0.68541 0.0
H938 H 0.06858 0.41563 0.80604 0.0
H939 H 0.0973 0.39447 0.64511 0.0
O940 O 0.19876 0.48196 0.75485 0.0
O941 O 0.13675 0.46082 0.81292 0.0
O942 O 0.14313 0.45769 0.67636 0.0
O943 O 0.15346 0.41633 0.75746 0.0
H944 H 0.18851 0.50779 0.84698 0.0
H945 H 0.25588 0.50698 0.73892 0.0
H946 H 0.22681 0.54782 0.90879 0.0
H947 H 0.29309 0.54724 0.80229 0.0
H948 H 0.09012 0.4031 0.9751 0.0
H949 H 0.14086 0.50219 0.88659 0.0
H950 H 0.10826 0.40989 0.86917 0.0
H951 H 0.12198 0.49382 0.99216 0.0
H952 H 0.21124 0.59347 0.70757 0.0
H953 H 0.1189 0.54042 0.66695 0.0
H954 H 0.22841 0.41731 0.92233 0.0
H955 H 0.20756 0.4739 0.02619 0.0
H956 H 0.10388 0.44931 0.59282 0.0
H957 H 0.19505 0.49995 0.63964 0.0
H958 H 0.11463 0.47712 0.49637 0.0
H959 H 0.20417 0.52683 0.54252 0.0
H960 H 0.13577 0.38091 0.66265 0.0
H961 H 0.13453 0.38456 0.85752 0.0
H962 H 0.10516 0.32691 0.66835 0.0
H963 H 0.10385 0.33052 0.85987 0.0
H964 H 0.2588 0.45714 0.58872 0.0
H965 H 0.17728 0.41867 0.48959 0.0
H966 H 0.01754 0.38865 0.77108 0.0
H967 H 0.04697 0.36714 0.60627 0.0
Li968 Li 0.72705 0.16564 0.14375 0.0
Li969 Li 0.68599 0.15854 0.07998 0.0
Li970 Li 0.69963 0.12032 0.08021 0.0
Li971 Li 0.73104 0.16762 0.03603 0.0
C972 C 0.68014 0.11667 0.19971 0.0
N973 N 0.67193 0.08271 0.30114 0.0
C974 C 0.65681 0.10976 0.23894 0.0
C975 C 0.6993 0.10629 0.212 0.0
C976 C 0.65303 0.09257 0.29002 0.0
C977 C 0.69477 0.08914 0.26351 0.0
C978 C 0.72226 0.21446 0.12299 0.0
C979 C 0.73477 0.26423 0.14326 0.0
N980 N 0.71729 0.25509 0.19314 0.0
C981 C 0.7044 0.20555 0.17445 0.0
C982 C 0.73759 0.24402 0.10726 0.0
C983 C 0.7022 0.22643 0.20933 0.0
C984 C 0.77779 0.20508 0.20741 0.0
N985 N 0.74936 0.18444 0.21663 0.0
C986 C 0.75419 0.19622 0.32263 0.0
C987 C 0.73736 0.17981 0.273 0.0
C988 C 0.78383 0.21764 0.31467 0.0
C989 C 0.7955 0.22166 0.25576 0.0
H990 H 0.78661 0.20918 0.16197 0.0
H991 H 0.71449 0.16404 0.27936 0.0
C992 C 0.62874 0.13622 0.04515 0.0
N993 N 0.65179 0.16166 0.06497 0.0
C994 C 0.60383 0.13553 0.02215 0.0
C995 C 0.62586 0.18704 0.04375 0.0
C996 C 0.6508 0.18689 0.06475 0.0
C997 C 0.60198 0.16119 0.02082 0.0
H998 H 0.63032 0.11661 0.04452 0.0
H999 H 0.66955 0.20713 0.07902 0.0
C1000 C 0.76419 0.14476 0.05911 0.0
N1001 N 0.8078 0.14437 0.99061 0.0
C1002 C 0.75704 0.12536 0.01053 0.0
C1003 C 0.79355 0.16385 0.07303 0.0
C1004 C 0.77939 0.12552 0.97641 0.0
C1005 C 0.81527 0.16335 0.03781 0.0
C1006 C 0.68363 0.14571 0.95771 0.0
C1007 C 0.66798 0.12424 0.91424 0.0
C1008 C 0.69074 0.17459 0.94673 0.0
C1009 C 0.65965 0.13201 0.86043 0.0
C1010 C 0.68201 0.18148 0.89238 0.0
N1011 N 0.66677 0.16022 0.85071 0.0
C1012 C 0.65608 0.06718 0.03836 0.0
C1013 C 0.69633 0.06353 0.07457 0.0
C1014 C 0.64278 0.03872 0.01586 0.0
N1015 N 0.68257 0.07919 0.06602 0.0
C1016 C 0.68369 0.03477 0.05285 0.0
C1017 C 0.65681 0.02223 0.02178 0.0
H1018 H 0.64568 0.08014 0.03197 0.0
H1019 H 0.71758 0.07369 0.09603 0.0
C1020 C 0.77704 0.21475 0.9741 0.0
N1021 N 0.75637 0.18609 0.96958 0.0
C1022 C 0.79392 0.2296 0.9237 0.0
C1023 C 0.76831 0.18491 0.86562 0.0
C1024 C 0.75206 0.17093 0.91713 0.0
C1025 C 0.78924 0.21473 0.86831 0.0
H1026 H 0.77982 0.22622 0.01639 0.0
H1027 H 0.73547 0.1481 0.91488 0.0
O1028 O 0.68411 0.13365 0.14986 0.0
O1029 O 0.72529 0.19463 0.08844 0.0
O1030 O 0.74255 0.14516 0.09244 0.0
O1031 O 0.69178 0.13833 0.01078 0.0
H1032 H 0.64183 0.11768 0.23007 0.0
H1033 H 0.71751 0.11138 0.18235 0.0
H1034 H 0.63509 0.08709 0.32083 0.0
H1035 H 0.70942 0.08098 0.2736 0.0
H1036 H 0.7465 0.28718 0.13159 0.0
H1037 H 0.69228 0.18281 0.18742 0.0
H1038 H 0.75155 0.25128 0.06764 0.0
H1039 H 0.68848 0.21984 0.24926 0.0
H1040 H 0.74371 0.19261 0.36644 0.0
H1041 H 0.81814 0.23751 0.2467 0.0
H1042 H 0.58667 0.11513 1.00383 0.0
H1043 H 0.62557 0.20735 0.04504 0.0
H1044 H 0.73447 0.11077 0.9984 0.0
H1045 H 0.79956 0.17885 0.11066 0.0
H1046 H 0.77413 0.11078 0.93841 0.0
H1047 H 0.83808 0.17805 0.04803 0.0
H1048 H 0.66236 0.1018 0.92195 0.0
H1049 H 0.70285 0.19154 0.97976 0.0
H1050 H 0.64753 0.11561 0.82638 0.0
H1051 H 0.68734 0.20372 0.88332 0.0
H1052 H 0.62177 0.02982 0.99362 0.0
H1053 H 0.69531 0.02288 0.0584 0.0
H1054 H 0.80965 0.2527 0.92743 0.0
H1055 H 0.76431 0.17262 0.82397 0.0
loop_
_geom_bond_atom_site_label_1
_geom_bond_atom_site_label_2
_geom_bond_distance
_geom_bond_site_symmetry_2
_ccdc_geom_bond_type
Li0 N17 1.990 . S
Li0 O60 1.956 . S
Li0 O61 1.970 . S
Li0 O62 1.961 . S
Li1 N25 1.990 . S
Li1 O60 1.970 . S
Li1 O61 1.956 . S
Li1 O63 1.961 . S
Li2 N47 1.990 . S
Li2 O60 1.961 . S
Li2 O62 1.956 . S
Li2 O63 1.970 . S
Li3 N53 1.990 . S
Li3 O61 1.961 . S
Li3 O62 1.970 . S
Li3 O63 1.956 . S
C4 C6 1.348 . S
C4 C7 1.356 . S
C4 O60 1.325 . S
N5 C8 1.314 . S
N5 C9 1.279 . S
C6 C4 1.348 . S
C6 C8 1.353 . S
C6 H64 0.929 . S
C7 C4 1.356 . S
C7 C9 1.358 . S
C7 H65 0.930 . S
C8 N5 1.314 . S
C8 C6 1.353 . S
C8 H66 0.930 . S
C9 N5 1.279 . S
C9 C7 1.358 . S
C9 H67 0.930 . S
C10 C13 1.348 . S
C10 C14 1.356 . S
C10 O61 1.325 . S
C11 N12 1.279 . S
C11 C14 1.358 . S
C11 H68 0.930 . S
N12 C11 1.279 . S
N12 C15 1.314 . S
C13 C10 1.348 . S
C13 C15 1.353 . S
C13 H69 0.929 . S
C14 C10 1.356 . S
C14 C11 1.358 . S
C14 H70 0.930 . S
C15 N12 1.314 . S
C15 C13 1.353 . S
C15 H71 0.930 . S
C16 N17 1.314 . S
C16 C21 1.353 . S
C16 H22 0.930 . S
N17 Li0 1.990 . S
N17 C16 1.314 . S
N17 C19 1.279 . S
C18 C19 1.358 . S
C18 C20 1.356 . S
C18 H72 0.930 . S
C19 N17 1.279 . S
C19 C18 1.358 . S
C19 H23 0.930 . S
C20 C18 1.356 . S
C20 C21 1.348 . S
C21 C16 1.353 . S
C21 C20 1.348 . S
C21 H73 0.929 . S
H22 C16 0.930 . S
H23 C19 0.930 . S
C24 N25 1.314 . S
C24 C26 1.353 . S
C24 H30 0.930 . S
N25 Li1 1.990 . S
N25 C24 1.314 . S
N25 C28 1.279 . S
C26 C24 1.353 . S
C26 C29 1.348 . S
C26 H74 0.929 . S
C27 C28 1.358 . S
C27 C29 1.356 . S
C27 H75 0.930 . S
C28 N25 1.279 . S
C28 C27 1.358 . S
C28 H31 0.930 . S
C29 C26 1.348 . S
C29 C27 1.356 . S
H30 C24 0.930 . S
H31 C28 0.930 . S
C32 C34 1.348 . S
C32 C35 1.356 . S
C32 O62 1.325 . S
N33 C36 1.314 . S
N33 C37 1.279 . S
C34 C32 1.348 . S
C34 C36 1.353 . S
C34 H76 0.929 . S
C35 C32 1.356 . S
C35 C37 1.358 . S
C35 H77 0.930 . S
C36 N33 1.314 . S
C36 C34 1.353 . S
C36 H78 0.930 . S
C37 N33 1.279 . S
C37 C35 1.358 . S
C37 H79 0.930 . S
C38 C39 1.348 . S
C38 C40 1.356 . S
C38 O63 1.325 . S
C39 C38 1.348 . S
C39 C41 1.353 . S
C39 H80 0.929 . S
C40 C38 1.356 . S
C40 C42 1.358 . S
C40 H81 0.930 . S
C41 C39 1.353 . S
C41 N43 1.314 . S
C41 H82 0.930 . S
C42 C40 1.358 . S
C42 N43 1.279 . S
C42 H83 0.930 . S
N43 C41 1.314 . S
N43 C42 1.279 . S
C44 C46 1.353 . S
C44 N47 1.314 . S
C44 H50 0.930 . S
C45 N47 1.279 . S
C45 C48 1.358 . S
C45 H51 0.930 . S
C46 C44 1.353 . S
C46 C49 1.348 . S
C46 H84 0.929 . S
N47 Li2 1.990 . S
N47 C44 1.314 . S
N47 C45 1.279 . S
C48 C45 1.358 . S
C48 C49 1.356 . S
C48 H85 0.930 . S
C49 C46 1.348 . S
C49 C48 1.356 . S
H50 C44 0.930 . S
H51 C45 0.930 . S
C52 N53 1.314 . S
C52 C54 1.353 . S
C52 H58 0.930 . S
N53 Li3 1.990 . S
N53 C52 1.314 . S
N53 C56 1.279 . S
C54 C52 1.353 . S
C54 C57 1.348 . S
C54 H86 0.929 . S
C55 C56 1.358 . S
C55 C57 1.356 . S
C55 H87 0.932 . S
C56 N53 1.279 . S
C56 C55 1.358 . S
C56 H59 0.930 . S
C57 C54 1.348 . S
C57 C55 1.356 . S
H58 C52 0.930 . S
H59 C56 0.930 . S
O60 Li0 1.956 . S
O60 Li1 1.970 . S
O60 Li2 1.961 . S
O60 C4 1.325 . S
O61 Li0 1.970 . S
O61 Li1 1.956 . S
O61 Li3 1.961 . S
O61 C10 1.325 . S
O62 Li0 1.961 . S
O62 Li2 1.956 . S
O62 Li3 1.970 . S
O62 C32 1.325 . S
O63 Li1 1.961 . S
O63 Li2 1.970 . S
O63 Li3 1.956 . S
O63 C38 1.325 . S
H64 C6 0.929 . S
H65 C7 0.930 . S
H66 C8 0.930 . S
H67 C9 0.930 . S
H68 C11 0.930 . S
H69 C13 0.929 . S
H70 C14 0.930 . S
H71 C15 0.930 . S
H72 C18 0.930 . S
H73 C21 0.929 . S
H74 C26 0.929 . S
H75 C27 0.930 . S
H76 C34 0.929 . S
H77 C35 0.930 . S
H78 C36 0.930 . S
H79 C37 0.930 . S
H80 C39 0.929 . S
H81 C40 0.930 . S
H82 C41 0.930 . S
H83 C42 0.930 . S
H84 C46 0.929 . S
H85 C48 0.930 . S
H86 C54 0.929 . S
H87 C55 0.932 . S
Li88 N105 1.990 . S
Li88 O148 1.956 . S
Li88 O149 1.970 . S
Li88 O150 1.961 . S
Li89 N113 1.990 . S
Li89 O148 1.970 . S
Li89 O149 1.956 . S
Li89 O151 1.961 . S
Li90 N135 1.990 . S
Li90 O148 1.961 . S
Li90 O150 1.956 . S
Li90 O151 1.970 . S
Li91 N141 1.990 . S
Li91 O149 1.961 . S
Li91 O150 1.970 . S
Li91 O151 1.956 . S
C92 C94 1.348 . S
C92 C95 1.356 . S
C92 O148 1.325 . S
N93 C96 1.314 . S
N93 C97 1.279 . S
C94 C92 1.348 . S
C94 C96 1.353 . S
C94 H152 0.929 . S
C95 C92 1.356 . S
C95 C97 1.358 . S
C95 H153 0.930 . S
C96 N93 1.314 . S
C96 C94 1.353 . S
C96 H154 0.930 . S
C97 N93 1.279 . S
C97 C95 1.358 . S
C97 H155 0.930 . S
C98 C101 1.348 . S
C98 C102 1.356 . S
C98 O149 1.325 . S
C99 N100 1.279 . S
C99 C102 1.358 . S
C99 H156 0.930 . S
N100 C99 1.279 . S
N100 C103 1.314 . S
C101 C98 1.348 . S
C101 C103 1.353 . S
C101 H157 0.929 . S
C102 C98 1.356 . S
C102 C99 1.358 . S
C102 H158 0.930 . S
C103 N100 1.314 . S
C103 C101 1.353 . S
C103 H159 0.930 . S
C104 N105 1.314 . S
C104 C109 1.353 . S
C104 H110 0.930 . S
N105 Li88 1.990 . S
N105 C104 1.314 . S
N105 C107 1.279 . S
C106 C107 1.358 . S
C106 C108 1.356 . S
C106 H160 0.930 . S
C107 N105 1.279 . S
C107 C106 1.358 . S
C107 H111 0.930 . S
C108 C106 1.356 . S
C108 C109 1.348 . S
C109 C104 1.353 . S
C109 C108 1.348 . S
C109 H161 0.929 . S
H110 C104 0.930 . S
H111 C107 0.930 . S
C112 N113 1.314 . S
C112 C114 1.353 . S
C112 H118 0.930 . S
N113 Li89 1.990 . S
N113 C112 1.314 . S
N113 C116 1.279 . S
C114 C112 1.353 . S
C114 C117 1.348 . S
C114 H162 0.929 . S
C115 C116 1.358 . S
C115 C117 1.356 . S
C115 H163 0.930 . S
C116 N113 1.279 . S
C116 C115 1.358 . S
C116 H119 0.930 . S
C117 C114 1.348 . S
C117 C115 1.356 . S
H118 C112 0.930 . S
H119 C116 0.930 . S
C120 C122 1.348 . S
C120 C123 1.356 . S
C120 O150 1.325 . S
N121 C124 1.314 . S
N121 C125 1.279 . S
C122 C120 1.348 . S
C122 C124 1.353 . S
C122 H164 0.929 . S
C123 C120 1.356 . S
C123 C125 1.358 . S
C123 H165 0.930 . S
C124 N121 1.314 . S
C124 C122 1.353 . S
C124 H166 0.930 . S
C125 N121 1.279 . S
C125 C123 1.358 . S
C125 H167 0.930 . S
C126 C127 1.348 . S
C126 C128 1.356 . S
C126 O151 1.325 . S
C127 C126 1.348 . S
C127 C129 1.353 . S
C127 H168 0.929 . S
C128 C126 1.356 . S
C128 C130 1.358 . S
C128 H169 0.930 . S
C129 C127 1.353 . S
C129 N131 1.314 . S
C129 H170 0.930 . S
C130 C128 1.358 . S
C130 N131 1.279 . S
C130 H171 0.930 . S
N131 C129 1.314 . S
N131 C130 1.279 . S
C132 C134 1.353 . S
C132 N135 1.314 . S
C132 H138 0.930 . S
C133 N135 1.279 . S
C133 C136 1.358 . S
C133 H139 0.930 . S
C134 C132 1.353 . S
C134 C137 1.348 . S
C134 H172 0.929 . S
N135 Li90 1.990 . S
N135 C132 1.314 . S
N135 C133 1.279 . S
C136 C133 1.358 . S
C136 C137 1.356 . S
C136 H173 0.930 . S
C137 C134 1.348 . S
C137 C136 1.356 . S
H138 C132 0.930 . S
H139 C133 0.930 . S
C140 N141 1.314 . S
C140 C142 1.353 . S
C140 H146 0.930 . S
N141 Li91 1.990 . S
N141 C140 1.314 . S
N141 C144 1.279 . S
C142 C140 1.353 . S
C142 C145 1.348 . S
C142 H174 0.929 . S
C143 C144 1.358 . S
C143 C145 1.356 . S
C143 H175 0.930 . S
C144 N141 1.279 . S
C144 C143 1.358 . S
C144 H147 0.930 . S
C145 C142 1.348 . S
C145 C143 1.356 . S
H146 C140 0.930 . S
H147 C144 0.930 . S
O148 Li88 1.956 . S
O148 Li89 1.970 . S
O148 Li90 1.961 . S
O148 C92 1.325 . S
O149 Li88 1.970 . S
O149 Li89 1.956 . S
O149 Li91 1.961 . S
O149 C98 1.325 . S
O150 Li88 1.961 . S
O150 Li90 1.956 . S
O150 Li91 1.970 . S
O150 C120 1.325 . S
O151 Li89 1.961 . S
O151 Li90 1.970 . S
O151 Li91 1.956 . S
O151 C126 1.325 . S
H152 C94 0.929 . S
H153 C95 0.930 . S
H154 C96 0.930 . S
H155 C97 0.930 . S
H156 C99 0.930 . S
H157 C101 0.929 . S
H158 C102 0.930 . S
H159 C103 0.930 . S
H160 C106 0.930 . S
H161 C109 0.929 . S
H162 C114 0.929 . S
H163 C115 0.930 . S
H164 C122 0.929 . S
H165 C123 0.930 . S
H166 C124 0.930 . S
H167 C125 0.930 . S
H168 C127 0.929 . S
H169 C128 0.930 . S
H170 C129 0.930 . S
H171 C130 0.930 . S
H172 C134 0.929 . S
H173 C136 0.930 . S
H174 C142 0.929 . S
H175 C143 0.930 . S
Li176 N193 1.990 . S
Li176 O236 1.956 . S
Li176 O237 1.970 1_556 S
Li176 O238 1.961 . S
Li177 N201 1.990 . S
Li177 O236 1.970 1_554 S
Li177 O237 1.956 . S
Li177 O239 1.961 1_554 S
Li178 N223 1.990 . S
Li178 O236 1.961 . S
Li178 O238 1.956 . S
Li178 O239 1.970 . S
Li179 N229 1.990 . S
Li179 O237 1.961 1_556 S
Li179 O238 1.970 . S
Li179 O239 1.956 . S
C180 C182 1.348 . S
C180 C183 1.356 . S
C180 O236 1.325 . S
N181 C184 1.314 . S
N181 C185 1.279 . S
C182 C180 1.348 . S
C182 C184 1.353 . S
C182 H240 0.929 1_556 S
C183 C180 1.356 . S
C183 C185 1.358 . S
C183 H241 0.930 . S
C184 N181 1.314 . S
C184 C182 1.353 . S
C184 H242 0.930 1_556 S
C185 N181 1.279 . S
C185 C183 1.358 . S
C185 H243 0.930 . S
C186 C189 1.348 . S
C186 C190 1.356 . S
C186 O237 1.325 . S
C187 N188 1.279 . S
C187 C190 1.358 . S
C187 H244 0.930 . S
N188 C187 1.279 . S
N188 C191 1.314 . S
C189 C186 1.348 . S
C189 C191 1.353 . S
C189 H245 0.929 . S
C190 C186 1.356 . S
C190 C187 1.358 . S
C190 H246 0.930 . S
C191 N188 1.314 . S
C191 C189 1.353 . S
C191 H247 0.930 . S
C192 N193 1.314 . S
C192 C197 1.353 . S
C192 H198 0.930 . S
N193 Li176 1.990 . S
N193 C192 1.314 . S
N193 C195 1.279 . S
C194 C195 1.358 . S
C194 C196 1.356 . S
C194 H248 0.930 . S
C195 N193 1.279 . S
C195 C194 1.358 . S
C195 H199 0.930 . S
C196 C194 1.356 . S
C196 C197 1.348 . S
C197 C192 1.353 . S
C197 C196 1.348 . S
C197 H249 0.929 . S
H198 C192 0.930 . S
H199 C195 0.930 . S
C200 N201 1.314 . S
C200 C202 1.353 . S
C200 H206 0.930 . S
N201 Li177 1.990 . S
N201 C200 1.314 . S
N201 C204 1.279 . S
C202 C200 1.353 . S
C202 C205 1.348 . S
C202 H250 0.929 . S
C203 C204 1.358 . S
C203 C205 1.356 . S
C203 H251 0.930 . S
C204 N201 1.279 . S
C204 C203 1.358 . S
C204 H207 0.930 . S
C205 C202 1.348 . S
C205 C203 1.356 . S
H206 C200 0.930 . S
H207 C204 0.930 . S
C208 C210 1.348 . S
C208 C211 1.356 . S
C208 O238 1.325 . S
N209 C212 1.314 . S
N209 C213 1.279 . S
C210 C208 1.348 . S
C210 C212 1.353 . S
C210 H252 0.929 . S
C211 C208 1.356 . S
C211 C213 1.358 . S
C211 H253 0.930 . S
C212 N209 1.314 . S
C212 C210 1.353 . S
C212 H254 0.930 . S
C213 N209 1.279 . S
C213 C211 1.358 . S
C213 H255 0.930 . S
C214 C215 1.348 . S
C214 C216 1.356 . S
C214 O239 1.325 . S
C215 C214 1.348 . S
C215 C217 1.353 . S
C215 H256 0.929 . S
C216 C214 1.356 . S
C216 C218 1.358 . S
C216 H257 0.930 1_556 S
C217 C215 1.353 . S
C217 N219 1.314 . S
C217 H258 0.930 . S
C218 C216 1.358 . S
C218 N219 1.279 . S
C218 H259 0.930 1_556 S
N219 C217 1.314 . S
N219 C218 1.279 . S
C220 C222 1.353 . S
C220 N223 1.314 . S
C220 H226 0.930 . S
C221 N223 1.279 . S
C221 C224 1.358 . S
C221 H227 0.930 . S
C222 C220 1.353 . S
C222 C225 1.348 . S
C222 H260 0.929 . S
N223 Li178 1.990 . S
N223 C220 1.314 . S
N223 C221 1.279 . S
C224 C221 1.358 . S
C224 C225 1.356 . S
C224 H261 0.930 . S
C225 C222 1.348 . S
C225 C224 1.356 . S
H226 C220 0.930 . S
H227 C221 0.930 . S
C228 N229 1.314 . S
C228 C230 1.353 . S
C228 H234 0.930 . S
N229 Li179 1.990 . S
N229 C228 1.314 . S
N229 C232 1.279 . S
C230 C228 1.353 . S
C230 C233 1.348 . S
C230 H262 0.929 1_556 S
C231 C232 1.358 . S
C231 C233 1.356 . S
C231 H263 0.930 . S
C232 N229 1.279 . S
C232 C231 1.358 . S
C232 H235 0.930 . S
C233 C230 1.348 . S
C233 C231 1.356 . S
H234 C228 0.930 . S
H235 C232 0.930 . S
O236 Li176 1.956 . S
O236 Li177 1.970 1_556 S
O236 Li178 1.961 . S
O236 C180 1.325 . S
O237 Li176 1.970 1_554 S
O237 Li177 1.956 . S
O237 Li179 1.961 1_554 S
O237 C186 1.325 . S
O238 Li176 1.961 . S
O238 Li178 1.956 . S
O238 Li179 1.970 . S
O238 C208 1.325 . S
O239 Li177 1.961 1_556 S
O239 Li178 1.970 . S
O239 Li179 1.956 . S
O239 C214 1.325 . S
H240 C182 0.929 1_554 S
H241 C183 0.930 . S
H242 C184 0.930 1_554 S
H243 C185 0.930 . S
H244 C187 0.930 . S
H245 C189 0.929 . S
H246 C190 0.930 . S
H247 C191 0.930 . S
H248 C194 0.930 . S
H249 C197 0.929 . S
H250 C202 0.929 . S
H251 C203 0.930 . S
H252 C210 0.929 . S
H253 C211 0.930 . S
H254 C212 0.930 . S
H255 C213 0.930 . S
H256 C215 0.929 . S
H257 C216 0.930 1_554 S
H258 C217 0.930 . S
H259 C218 0.930 1_554 S
H260 C222 0.929 . S
H261 C224 0.930 . S
H262 C230 0.929 1_554 S
H263 C231 0.930 . S
Li264 N281 1.990 . S
Li264 O324 1.956 . S
Li264 O325 1.970 . S
Li264 O326 1.961 . S
Li265 N289 1.990 . S
Li265 O324 1.970 . S
Li265 O325 1.956 . S
Li265 O327 1.961 . S
Li266 N311 1.990 . S
Li266 O324 1.961 . S
Li266 O326 1.956 . S
Li266 O327 1.970 . S
Li267 N317 1.990 . S
Li267 O325 1.961 . S
Li267 O326 1.970 . S
Li267 O327 1.956 . S
C268 C270 1.348 . S
C268 C271 1.356 . S
C268 O324 1.325 . S
N269 C272 1.314 . S
N269 C273 1.279 . S
C270 C268 1.348 . S
C270 C272 1.353 . S
C270 H328 0.929 . S
C271 C268 1.356 . S
C271 C273 1.358 . S
C271 H329 0.930 . S
C272 N269 1.314 . S
C272 C270 1.353 . S
C272 H330 0.930 . S
C273 N269 1.279 . S
C273 C271 1.358 . S
C273 H331 0.930 . S
C274 C277 1.348 . S
C274 C278 1.356 . S
C274 O325 1.325 . S
C275 N276 1.279 . S
C275 C278 1.358 . S
C275 H332 0.930 . S
N276 C275 1.279 . S
N276 C279 1.314 . S
C277 C274 1.348 . S
C277 C279 1.353 . S
C277 H333 0.929 . S
C278 C274 1.356 . S
C278 C275 1.358 . S
C278 H334 0.930 . S
C279 N276 1.314 . S
C279 C277 1.353 . S
C279 H335 0.930 . S
C280 N281 1.314 . S
C280 C285 1.353 . S
C280 H286 0.930 . S
N281 Li264 1.990 . S
N281 C280 1.314 . S
N281 C283 1.279 . S
C282 C283 1.358 . S
C282 C284 1.356 . S
C282 H336 0.930 . S
C283 N281 1.279 . S
C283 C282 1.358 . S
C283 H287 0.930 . S
C284 C282 1.356 . S
C284 C285 1.348 . S
C285 C280 1.353 . S
C285 C284 1.348 . S
C285 H337 0.929 . S
H286 C280 0.930 . S
H287 C283 0.930 . S
C288 N289 1.314 . S
C288 C290 1.353 . S
C288 H294 0.930 . S
N289 Li265 1.990 . S
N289 C288 1.314 . S
N289 C292 1.279 . S
C290 C288 1.353 . S
C290 C293 1.348 . S
C290 H338 0.929 . S
C291 C292 1.358 . S
C291 C293 1.356 . S
C291 H339 0.930 . S
C292 N289 1.279 . S
C292 C291 1.358 . S
C292 H295 0.930 . S
C293 C290 1.348 . S
C293 C291 1.356 . S
H294 C288 0.930 . S
H295 C292 0.930 . S
C296 C298 1.348 . S
C296 C299 1.356 . S
C296 O326 1.325 . S
N297 C300 1.314 . S
N297 C301 1.279 . S
C298 C296 1.348 . S
C298 C300 1.353 . S
C298 H340 0.929 . S
C299 C296 1.356 . S
C299 C301 1.358 . S
C299 H341 0.930 . S
C300 N297 1.314 . S
C300 C298 1.353 . S
C300 H342 0.930 . S
C301 N297 1.279 . S
C301 C299 1.358 . S
C301 H343 0.930 . S
C302 C303 1.348 . S
C302 C304 1.356 . S
C302 O327 1.325 . S
C303 C302 1.348 . S
C303 C305 1.353 . S
C303 H344 0.929 . S
C304 C302 1.356 . S
C304 C306 1.358 . S
C304 H345 0.930 . S
C305 C303 1.353 . S
C305 N307 1.314 . S
C305 H346 0.930 . S
C306 C304 1.358 . S
C306 N307 1.279 . S
C306 H347 0.930 . S
N307 C305 1.314 . S
N307 C306 1.279 . S
C308 C310 1.353 . S
C308 N311 1.314 . S
C308 H314 0.930 . S
C309 N311 1.279 . S
C309 C312 1.358 . S
C309 H315 0.930 . S
C310 C308 1.353 . S
C310 C313 1.348 . S
C310 H348 0.929 . S
N311 Li266 1.990 . S
N311 C308 1.314 . S
N311 C309 1.279 . S
C312 C309 1.358 . S
C312 C313 1.356 . S
C312 H349 0.930 . S
C313 C310 1.348 . S
C313 C312 1.356 . S
H314 C308 0.930 . S
H315 C309 0.930 . S
C316 N317 1.314 . S
C316 C318 1.353 . S
C316 H322 0.930 . S
N317 Li267 1.990 . S
N317 C316 1.314 . S
N317 C320 1.279 . S
C318 C316 1.353 . S
C318 C321 1.348 . S
C318 H350 0.929 . S
C319 C320 1.358 . S
C319 C321 1.356 . S
C319 H351 0.932 . S
C320 N317 1.279 . S
C320 C319 1.358 . S
C320 H323 0.930 . S
C321 C318 1.348 . S
C321 C319 1.356 . S
H322 C316 0.930 . S
H323 C320 0.930 . S
O324 Li264 1.956 . S
O324 Li265 1.970 . S
O324 Li266 1.961 . S
O324 C268 1.325 . S
O325 Li264 1.970 . S
O325 Li265 1.956 . S
O325 Li267 1.961 . S
O325 C274 1.325 . S
O326 Li264 1.961 . S
O326 Li266 1.956 . S
O326 Li267 1.970 . S
O326 C296 1.325 . S
O327 Li265 1.961 . S
O327 Li266 1.970 . S
O327 Li267 1.956 . S
O327 C302 1.325 . S
H328 C270 0.929 . S
H329 C271 0.930 . S
H330 C272 0.930 . S
H331 C273 0.930 . S
H332 C275 0.930 . S
H333 C277 0.929 . S
H334 C278 0.930 . S
H335 C279 0.930 . S
H336 C282 0.930 . S
H337 C285 0.929 . S
H338 C290 0.929 . S
H339 C291 0.930 . S
H340 C298 0.929 . S
H341 C299 0.930 . S
H342 C300 0.930 . S
H343 C301 0.930 . S
H344 C303 0.929 . S
H345 C304 0.930 . S
H346 C305 0.930 . S
H347 C306 0.930 . S
H348 C310 0.929 . S
H349 C312 0.930 . S
H350 C318 0.929 . S
H351 C319 0.932 . S
Li352 N369 1.990 . S
Li352 O412 1.956 . S
Li352 O413 1.970 . S
Li352 O414 1.961 . S
Li353 N377 1.990 . S
Li353 O412 1.970 . S
Li353 O413 1.956 . S
Li353 O415 1.961 . S
Li354 N399 1.990 . S
Li354 O412 1.961 . S
Li354 O414 1.956 . S
Li354 O415 1.970 . S
Li355 N405 1.990 . S
Li355 O413 1.961 . S
Li355 O414 1.970 . S
Li355 O415 1.956 . S
C356 C358 1.348 . S
C356 C359 1.356 . S
C356 O412 1.325 . S
N357 C360 1.314 . S
N357 C361 1.279 . S
C358 C356 1.348 . S
C358 C360 1.353 . S
C358 H416 0.929 . S
C359 C356 1.356 . S
C359 C361 1.358 . S
C359 H417 0.930 . S
C360 N357 1.314 . S
C360 C358 1.353 . S
C360 H418 0.930 . S
C361 N357 1.279 . S
C361 C359 1.358 . S
C361 H419 0.930 . S
C362 C365 1.348 . S
C362 C366 1.356 . S
C362 O413 1.325 . S
C363 N364 1.279 . S
C363 C366 1.358 . S
C363 H420 0.930 . S
N364 C363 1.279 . S
N364 C367 1.314 . S
C365 C362 1.348 . S
C365 C367 1.353 . S
C365 H421 0.929 . S
C366 C362 1.356 . S
C366 C363 1.358 . S
C366 H422 0.930 . S
C367 N364 1.314 . S
C367 C365 1.353 . S
C367 H423 0.930 . S
C368 N369 1.314 . S
C368 C373 1.353 . S
C368 H374 0.930 . S
N369 Li352 1.990 . S
N369 C368 1.314 . S
N369 C371 1.279 . S
C370 C371 1.358 . S
C370 C372 1.356 . S
C370 H424 0.930 . S
C371 N369 1.279 . S
C371 C370 1.358 . S
C371 H375 0.930 . S
C372 C370 1.356 . S
C372 C373 1.348 . S
C373 C368 1.353 . S
C373 C372 1.348 . S
C373 H425 0.929 . S
H374 C368 0.930 . S
H375 C371 0.930 . S
C376 N377 1.314 . S
C376 C378 1.353 . S
C376 H382 0.930 . S
N377 Li353 1.990 . S
N377 C376 1.314 . S
N377 C380 1.279 . S
C378 C376 1.353 . S
C378 C381 1.348 . S
C378 H426 0.929 . S
C379 C380 1.358 . S
C379 C381 1.356 . S
C379 H427 0.930 . S
C380 N377 1.279 . S
C380 C379 1.358 . S
C380 H383 0.930 . S
C381 C378 1.348 . S
C381 C379 1.356 . S
H382 C376 0.930 . S
H383 C380 0.930 . S
C384 C386 1.348 . S
C384 C387 1.356 . S
C384 O414 1.325 . S
N385 C388 1.314 . S
N385 C389 1.279 . S
C386 C384 1.348 . S
C386 C388 1.353 . S
C386 H428 0.929 . S
C387 C384 1.356 . S
C387 C389 1.358 . S
C387 H429 0.930 . S
C388 N385 1.314 . S
C388 C386 1.353 . S
C388 H430 0.930 . S
C389 N385 1.279 . S
C389 C387 1.358 . S
C389 H431 0.930 . S
C390 C391 1.348 . S
C390 C392 1.356 . S
C390 O415 1.325 . S
C391 C390 1.348 . S
C391 C393 1.353 . S
C391 H432 0.929 . S
C392 C390 1.356 . S
C392 C394 1.358 . S
C392 H433 0.930 . S
C393 C391 1.353 . S
C393 N395 1.314 . S
C393 H434 0.930 . S
C394 C392 1.358 . S
C394 N395 1.279 . S
C394 H435 0.930 . S
N395 C393 1.314 . S
N395 C394 1.279 . S
C396 C398 1.353 . S
C396 N399 1.314 . S
C396 H402 0.930 . S
C397 N399 1.279 . S
C397 C400 1.358 . S
C397 H403 0.930 . S
C398 C396 1.353 . S
C398 C401 1.348 . S
C398 H436 0.929 . S
N399 Li354 1.990 . S
N399 C396 1.314 . S
N399 C397 1.279 . S
C400 C397 1.358 . S
C400 C401 1.356 . S
C400 H437 0.930 . S
C401 C398 1.348 . S
C401 C400 1.356 . S
H402 C396 0.930 . S
H403 C397 0.930 . S
C404 N405 1.314 . S
C404 C406 1.353 . S
C404 H410 0.930 . S
N405 Li355 1.990 . S
N405 C404 1.314 . S
N405 C408 1.279 . S
C406 C404 1.353 . S
C406 C409 1.348 . S
C406 H438 0.929 . S
C407 C408 1.358 . S
C407 C409 1.356 . S
C407 H439 0.930 . S
C408 N405 1.279 . S
C408 C407 1.358 . S
C408 H411 0.930 . S
C409 C406 1.348 . S
C409 C407 1.356 . S
H410 C404 0.930 . S
H411 C408 0.930 . S
O412 Li352 1.956 . S
O412 Li353 1.970 . S
O412 Li354 1.961 . S
O412 C356 1.325 . S
O413 Li352 1.970 . S
O413 Li353 1.956 . S
O413 Li355 1.961 . S
O413 C362 1.325 . S
O414 Li352 1.961 . S
O414 Li354 1.956 . S
O414 Li355 1.970 . S
O414 C384 1.325 . S
O415 Li353 1.961 . S
O415 Li354 1.970 . S
O415 Li355 1.956 . S
O415 C390 1.325 . S
H416 C358 0.929 . S
H417 C359 0.930 . S
H418 C360 0.930 . S
H419 C361 0.930 . S
H420 C363 0.930 . S
H421 C365 0.929 . S
H422 C366 0.930 . S
H423 C367 0.930 . S
H424 C370 0.930 . S
H425 C373 0.929 . S
H426 C378 0.929 . S
H427 C379 0.930 . S
H428 C386 0.929 . S
H429 C387 0.930 . S
H430 C388 0.930 . S
H431 C389 0.930 . S
H432 C391 0.929 . S
H433 C392 0.930 . S
H434 C393 0.930 . S
H435 C394 0.930 . S
H436 C398 0.929 . S
H437 C400 0.930 . S
H438 C406 0.929 . S
H439 C407 0.930 . S
Li440 N457 1.990 . S
Li440 O500 1.956 . S
Li440 O501 1.970 1_554 S
Li440 O502 1.961 1_554 S
Li441 N465 1.990 . S
Li441 O500 1.970 1_556 S
Li441 O501 1.956 . S
Li441 O503 1.961 . S
Li442 N487 1.990 . S
Li442 O500 1.961 1_556 S
Li442 O502 1.956 . S
Li442 O503 1.970 . S
Li443 N493 1.990 . S
Li443 O501 1.961 . S
Li443 O502 1.970 . S
Li443 O503 1.956 . S
C444 C446 1.348 . S
C444 C447 1.356 . S
C444 O500 1.325 . S
N445 C448 1.314 . S
N445 C449 1.279 . S
C446 C444 1.348 . S
C446 C448 1.353 . S
C446 H504 0.929 . S
C447 C444 1.356 . S
C447 C449 1.358 . S
C447 H505 0.930 . S
C448 N445 1.314 . S
C448 C446 1.353 . S
C448 H506 0.930 . S
C449 N445 1.279 . S
C449 C447 1.358 . S
C449 H507 0.930 . S
C450 C453 1.348 . S
C450 C454 1.356 . S
C450 O501 1.325 . S
C451 N452 1.279 . S
C451 C454 1.358 . S
C451 H508 0.930 . S
N452 C451 1.279 . S
N452 C455 1.314 . S
C453 C450 1.348 . S
C453 C455 1.353 . S
C453 H509 0.929 1_556 S
C454 C450 1.356 . S
C454 C451 1.358 . S
C454 H510 0.930 . S
C455 N452 1.314 . S
C455 C453 1.353 . S
C455 H511 0.930 1_556 S
C456 N457 1.314 . S
C456 C461 1.353 . S
C456 H462 0.930 . S
N457 Li440 1.990 . S
N457 C456 1.314 . S
N457 C459 1.279 . S
C458 C459 1.358 . S
C458 C460 1.356 . S
C458 H512 0.930 . S
C459 N457 1.279 . S
C459 C458 1.358 . S
C459 H463 0.930 . S
C460 C458 1.356 . S
C460 C461 1.348 . S
C461 C456 1.353 . S
C461 C460 1.348 . S
C461 H513 0.929 . S
H462 C456 0.930 . S
H463 C459 0.930 . S
C464 N465 1.314 . S
C464 C466 1.353 . S
C464 H470 0.930 . S
N465 Li441 1.990 . S
N465 C464 1.314 . S
N465 C468 1.279 . S
C466 C464 1.353 . S
C466 C469 1.348 . S
C466 H514 0.929 . S
C467 C468 1.358 . S
C467 C469 1.356 . S
C467 H515 0.930 . S
C468 N465 1.279 . S
C468 C467 1.358 . S
C468 H471 0.930 . S
C469 C466 1.348 . S
C469 C467 1.356 . S
H470 C464 0.930 . S
H471 C468 0.930 . S
C472 C474 1.348 . S
C472 C475 1.356 . S
C472 O502 1.325 . S
N473 C476 1.314 . S
N473 C477 1.279 . S
C474 C472 1.348 . S
C474 C476 1.353 . S
C474 H516 0.929 . S
C475 C472 1.356 . S
C475 C477 1.358 . S
C475 H517 0.930 1_556 S
C476 N473 1.314 . S
C476 C474 1.353 . S
C476 H518 0.930 . S
C477 N473 1.279 . S
C477 C475 1.358 . S
C477 H519 0.930 1_556 S
C478 C479 1.348 . S
C478 C480 1.356 . S
C478 O503 1.325 . S
C479 C478 1.348 . S
C479 C481 1.353 . S
C479 H520 0.929 . S
C480 C478 1.356 . S
C480 C482 1.358 . S
C480 H521 0.930 . S
C481 C479 1.353 . S
C481 N483 1.314 . S
C481 H522 0.930 . S
C482 C480 1.358 . S
C482 N483 1.279 . S
C482 H523 0.930 . S
N483 C481 1.314 . S
N483 C482 1.279 . S
C484 C486 1.353 . S
C484 N487 1.314 . S
C484 H490 0.930 . S
C485 N487 1.279 . S
C485 C488 1.358 . S
C485 H491 0.930 . S
C486 C484 1.353 . S
C486 C489 1.348 . S
C486 H524 0.929 1_556 S
N487 Li442 1.990 . S
N487 C484 1.314 . S
N487 C485 1.279 . S
C488 C485 1.358 . S
C488 C489 1.356 . S
C488 H525 0.930 . S
C489 C486 1.348 . S
C489 C488 1.356 . S
H490 C484 0.930 . S
H491 C485 0.930 . S
C492 N493 1.314 . S
C492 C494 1.353 . S
C492 H498 0.930 . S
N493 Li443 1.990 . S
N493 C492 1.314 . S
N493 C496 1.279 . S
C494 C492 1.353 . S
C494 C497 1.348 . S
C494 H526 0.929 . S
C495 C496 1.358 . S
C495 C497 1.356 . S
C495 H527 0.930 . S
C496 N493 1.279 . S
C496 C495 1.358 . S
C496 H499 0.930 . S
C497 C494 1.348 . S
C497 C495 1.356 . S
H498 C492 0.930 . S
H499 C496 0.930 . S
O500 Li440 1.956 . S
O500 Li441 1.970 1_554 S
O500 Li442 1.961 1_554 S
O500 C444 1.325 . S
O501 Li440 1.970 1_556 S
O501 Li441 1.956 . S
O501 Li443 1.961 . S
O501 C450 1.325 . S
O502 Li440 1.961 1_556 S
O502 Li442 1.956 . S
O502 Li443 1.970 . S
O502 C472 1.325 . S
O503 Li441 1.961 . S
O503 Li442 1.970 . S
O503 Li443 1.956 . S
O503 C478 1.325 . S
H504 C446 0.929 . S
H505 C447 0.930 . S
H506 C448 0.930 . S
H507 C449 0.930 . S
H508 C451 0.930 . S
H509 C453 0.929 1_554 S
H510 C454 0.930 . S
H511 C455 0.930 1_554 S
H512 C458 0.930 . S
H513 C461 0.929 . S
H514 C466 0.929 . S
H515 C467 0.930 . S
H516 C474 0.929 . S
H517 C475 0.930 1_554 S
H518 C476 0.930 . S
H519 C477 0.930 1_554 S
H520 C479 0.929 . S
H521 C480 0.930 . S
H522 C481 0.930 . S
H523 C482 0.930 . S
H524 C486 0.929 1_554 S
H525 C488 0.930 . S
H526 C494 0.929 . S
H527 C495 0.930 . S
Li528 N545 1.990 . S
Li528 O588 1.956 . S
Li528 O589 1.970 . S
Li528 O590 1.961 . S
Li529 N553 1.990 . S
Li529 O588 1.970 . S
Li529 O589 1.956 . S
Li529 O591 1.961 . S
Li530 N575 1.990 . S
Li530 O588 1.961 . S
Li530 O590 1.956 . S
Li530 O591 1.970 . S
Li531 N581 1.990 . S
Li531 O589 1.961 . S
Li531 O590 1.970 . S
Li531 O591 1.956 . S
C532 C534 1.348 . S
C532 C535 1.356 . S
C532 O588 1.325 . S
N533 C536 1.314 . S
N533 C537 1.279 . S
C534 C532 1.348 . S
C534 C536 1.353 . S
C534 H592 0.929 . S
C535 C532 1.356 . S
C535 C537 1.358 . S
C535 H593 0.930 . S
C536 N533 1.314 . S
C536 C534 1.353 . S
C536 H594 0.930 . S
C537 N533 1.279 . S
C537 C535 1.358 . S
C537 H595 0.930 . S
C538 C541 1.348 . S
C538 C542 1.356 . S
C538 O589 1.325 . S
C539 N540 1.279 . S
C539 C542 1.358 . S
C539 H596 0.930 . S
N540 C539 1.279 . S
N540 C543 1.314 . S
C541 C538 1.348 . S
C541 C543 1.353 . S
C541 H597 0.929 . S
C542 C538 1.356 . S
C542 C539 1.358 . S
C542 H598 0.930 . S
C543 N540 1.314 . S
C543 C541 1.353 . S
C543 H599 0.930 . S
C544 N545 1.314 . S
C544 C549 1.353 . S
C544 H550 0.930 . S
N545 Li528 1.990 . S
N545 C544 1.314 . S
N545 C547 1.279 . S
C546 C547 1.358 . S
C546 C548 1.356 . S
C546 H600 0.930 . S
C547 N545 1.279 . S
C547 C546 1.358 . S
C547 H551 0.930 . S
C548 C546 1.356 . S
C548 C549 1.348 . S
C549 C544 1.353 . S
C549 C548 1.348 . S
C549 H601 0.929 . S
H550 C544 0.930 . S
H551 C547 0.930 . S
C552 N553 1.314 . S
C552 C554 1.353 . S
C552 H558 0.930 . S
N553 Li529 1.990 . S
N553 C552 1.314 . S
N553 C556 1.279 . S
C554 C552 1.353 . S
C554 C557 1.348 . S
C554 H602 0.929 . S
C555 C556 1.358 . S
C555 C557 1.356 . S
C555 H603 0.930 . S
C556 N553 1.279 . S
C556 C555 1.358 . S
C556 H559 0.930 . S
C557 C554 1.348 . S
C557 C555 1.356 . S
H558 C552 0.930 . S
H559 C556 0.930 . S
C560 C562 1.348 . S
C560 C563 1.356 . S
C560 O590 1.325 . S
N561 C564 1.314 . S
N561 C565 1.279 . S
C562 C560 1.348 . S
C562 C564 1.353 . S
C562 H604 0.929 . S
C563 C560 1.356 . S
C563 C565 1.358 . S
C563 H605 0.930 . S
C564 N561 1.314 . S
C564 C562 1.353 . S
C564 H606 0.930 . S
C565 N561 1.279 . S
C565 C563 1.358 . S
C565 H607 0.930 . S
C566 C567 1.348 . S
C566 C568 1.356 . S
C566 O591 1.325 . S
C567 C566 1.348 . S
C567 C569 1.353 . S
C567 H608 0.929 . S
C568 C566 1.356 . S
C568 C570 1.358 . S
C568 H609 0.930 . S
C569 C567 1.353 . S
C569 N571 1.314 . S
C569 H610 0.930 . S
C570 C568 1.358 . S
C570 N571 1.279 . S
C570 H611 0.930 . S
N571 C569 1.314 . S
N571 C570 1.279 . S
C572 C574 1.353 . S
C572 N575 1.314 . S
C572 H578 0.930 . S
C573 N575 1.279 . S
C573 C576 1.358 . S
C573 H579 0.930 . S
C574 C572 1.353 . S
C574 C577 1.348 . S
C574 H612 0.929 . S
N575 Li530 1.990 . S
N575 C572 1.314 . S
N575 C573 1.279 . S
C576 C573 1.358 . S
C576 C577 1.356 . S
C576 H613 0.930 . S
C577 C574 1.348 . S
C577 C576 1.356 . S
H578 C572 0.930 . S
H579 C573 0.930 . S
C580 N581 1.314 . S
C580 C582 1.353 . S
C580 H586 0.930 . S
N581 Li531 1.990 . S
N581 C580 1.314 . S
N581 C584 1.279 . S
C582 C580 1.353 . S
C582 C585 1.348 . S
C582 H614 0.929 . S
C583 C584 1.358 . S
C583 C585 1.356 . S
C583 H615 0.930 . S
C584 N581 1.279 . S
C584 C583 1.358 . S
C584 H587 0.930 . S
C585 C582 1.348 . S
C585 C583 1.356 . S
H586 C580 0.930 . S
H587 C584 0.930 . S
O588 Li528 1.956 . S
O588 Li529 1.970 . S
O588 Li530 1.961 . S
O588 C532 1.325 . S
O589 Li528 1.970 . S
O589 Li529 1.956 . S
O589 Li531 1.961 . S
O589 C538 1.325 . S
O590 Li528 1.961 . S
O590 Li530 1.956 . S
O590 Li531 1.970 . S
O590 C560 1.325 . S
O591 Li529 1.961 . S
O591 Li530 1.970 . S
O591 Li531 1.956 . S
O591 C566 1.325 . S
H592 C534 0.929 . S
H593 C535 0.930 . S
H594 C536 0.930 . S
H595 C537 0.930 . S
H596 C539 0.930 . S
H597 C541 0.929 . S
H598 C542 0.930 . S
H599 C543 0.930 . S
H600 C546 0.930 . S
H601 C549 0.929 . S
H602 C554 0.929 . S
H603 C555 0.930 . S
H604 C562 0.929 . S
H605 C563 0.930 . S
H606 C564 0.930 . S
H607 C565 0.930 . S
H608 C567 0.929 . S
H609 C568 0.930 . S
H610 C569 0.930 . S
H611 C570 0.930 . S
H612 C574 0.929 . S
H613 C576 0.930 . S
H614 C582 0.929 . S
H615 C583 0.930 . S
Li616 N633 1.990 . S
Li616 O676 1.956 . S
Li616 O677 1.970 . S
Li616 O678 1.961 . S
Li617 N641 1.990 . S
Li617 O676 1.970 . S
Li617 O677 1.956 . S
Li617 O679 1.961 . S
Li618 N663 1.990 . S
Li618 O676 1.961 . S
Li618 O678 1.956 . S
Li618 O679 1.970 . S
Li619 N669 1.990 . S
Li619 O677 1.961 . S
Li619 O678 1.970 . S
Li619 O679 1.956 . S
C620 C622 1.348 . S
C620 C623 1.356 . S
C620 O676 1.325 . S
N621 C624 1.314 . S
N621 C625 1.279 . S
C622 C620 1.348 . S
C622 C624 1.353 . S
C622 H680 0.929 . S
C623 C620 1.356 . S
C623 C625 1.358 . S
C623 H681 0.930 . S
C624 N621 1.314 . S
C624 C622 1.353 . S
C624 H682 0.930 . S
C625 N621 1.279 . S
C625 C623 1.358 . S
C625 H683 0.930 . S
C626 C629 1.348 . S
C626 C630 1.356 . S
C626 O677 1.325 . S
C627 N628 1.279 . S
C627 C630 1.358 . S
C627 H684 0.930 . S
N628 C627 1.279 . S
N628 C631 1.314 . S
C629 C626 1.348 . S
C629 C631 1.353 . S
C629 H685 0.929 . S
C630 C626 1.356 . S
C630 C627 1.358 . S
C630 H686 0.930 . S
C631 N628 1.314 . S
C631 C629 1.353 . S
C631 H687 0.930 . S
C632 N633 1.314 . S
C632 C637 1.353 . S
C632 H638 0.930 . S
N633 Li616 1.990 . S
N633 C632 1.314 . S
N633 C635 1.279 . S
C634 C635 1.358 . S
C634 C636 1.356 . S
C634 H688 0.933 . S
C635 N633 1.279 . S
C635 C634 1.358 . S
C635 H639 0.930 . S
C636 C634 1.356 . S
C636 C637 1.348 . S
C637 C632 1.353 . S
C637 C636 1.348 . S
C637 H689 0.929 . S
H638 C632 0.930 . S
H639 C635 0.930 . S
C640 N641 1.314 . S
C640 C642 1.353 . S
C640 H646 0.930 . S
N641 Li617 1.990 . S
N641 C640 1.314 . S
N641 C644 1.279 . S
C642 C640 1.353 . S
C642 C645 1.348 . S
C642 H690 0.929 . S
C643 C644 1.358 . S
C643 C645 1.356 . S
C643 H691 0.930 . S
C644 N641 1.279 . S
C644 C643 1.358 . S
C644 H647 0.930 . S
C645 C642 1.348 . S
C645 C643 1.356 . S
H646 C640 0.930 . S
H647 C644 0.930 . S
C648 C650 1.348 . S
C648 C651 1.356 . S
C648 O678 1.325 . S
N649 C652 1.314 . S
N649 C653 1.279 . S
C650 C648 1.348 . S
C650 C652 1.353 . S
C650 H692 0.929 . S
C651 C648 1.356 . S
C651 C653 1.358 . S
C651 H693 0.930 . S
C652 N649 1.314 . S
C652 C650 1.353 . S
C652 H694 0.930 . S
C653 N649 1.279 . S
C653 C651 1.358 . S
C653 H695 0.930 . S
C654 C655 1.348 . S
C654 C656 1.356 . S
C654 O679 1.325 . S
C655 C654 1.348 . S
C655 C657 1.353 . S
C655 H696 0.929 . S
C656 C654 1.356 . S
C656 C658 1.358 . S
C656 H697 0.930 . S
C657 C655 1.353 . S
C657 N659 1.314 . S
C657 H698 0.930 . S
C658 C656 1.358 . S
C658 N659 1.279 . S
C658 H699 0.930 . S
N659 C657 1.314 . S
N659 C658 1.279 . S
C660 C662 1.353 . S
C660 N663 1.314 . S
C660 H666 0.930 . S
C661 N663 1.279 . S
C661 C664 1.358 . S
C661 H667 0.930 . S
C662 C660 1.353 . S
C662 C665 1.348 . S
C662 H700 0.929 . S
N663 Li618 1.990 . S
N663 C660 1.314 . S
N663 C661 1.279 . S
C664 C661 1.358 . S
C664 C665 1.356 . S
C664 H701 0.930 . S
C665 C662 1.348 . S
C665 C664 1.356 . S
H666 C660 0.930 . S
H667 C661 0.930 . S
C668 N669 1.314 . S
C668 C670 1.353 . S
C668 H674 0.930 . S
N669 Li619 1.990 . S
N669 C668 1.314 . S
N669 C672 1.279 . S
C670 C668 1.353 . S
C670 C673 1.348 . S
C670 H702 0.929 . S
C671 C672 1.358 . S
C671 C673 1.356 . S
C671 H703 0.930 . S
C672 N669 1.279 . S
C672 C671 1.358 . S
C672 H675 0.930 . S
C673 C670 1.348 . S
C673 C671 1.356 . S
H674 C668 0.930 . S
H675 C672 0.930 . S
O676 Li616 1.956 . S
O676 Li617 1.970 . S
O676 Li618 1.961 . S
O676 C620 1.325 . S
O677 Li616 1.970 . S
O677 Li617 1.956 . S
O677 Li619 1.961 . S
O677 C626 1.325 . S
O678 Li616 1.961 . S
O678 Li618 1.956 . S
O678 Li619 1.970 . S
O678 C648 1.325 . S
O679 Li617 1.961 . S
O679 Li618 1.970 . S
O679 Li619 1.956 . S
O679 C654 1.325 . S
H680 C622 0.929 . S
H681 C623 0.930 . S
H682 C624 0.930 . S
H683 C625 0.930 . S
H684 C627 0.930 . S
H685 C629 0.929 . S
H686 C630 0.930 . S
H687 C631 0.930 . S
H688 C634 0.933 . S
H689 C637 0.929 . S
H690 C642 0.929 . S
H691 C643 0.930 . S
H692 C650 0.929 . S
H693 C651 0.930 . S
H694 C652 0.930 . S
H695 C653 0.930 . S
H696 C655 0.929 . S
H697 C656 0.930 . S
H698 C657 0.930 . S
H699 C658 0.930 . S
H700 C662 0.929 . S
H701 C664 0.930 . S
H702 C670 0.929 . S
H703 C671 0.930 . S
Li704 N721 1.990 . S
Li704 O764 1.956 . S
Li704 O765 1.970 . S
Li704 O766 1.961 1_554 S
Li705 N729 1.990 . S
Li705 O764 1.970 . S
Li705 O765 1.956 . S
Li705 O767 1.961 . S
Li706 N751 1.990 . S
Li706 O764 1.961 1_556 S
Li706 O766 1.956 . S
Li706 O767 1.970 1_556 S
Li707 N757 1.990 . S
Li707 O765 1.961 . S
Li707 O766 1.970 1_554 S
Li707 O767 1.956 . S
C708 C710 1.348 . S
C708 C711 1.356 . S
C708 O764 1.325 . S
N709 C712 1.314 . S
N709 C713 1.279 . S
C710 C708 1.348 . S
C710 C712 1.353 . S
C710 H768 0.929 . S
C711 C708 1.356 . S
C711 C713 1.358 . S
C711 H769 0.930 1_554 S
C712 N709 1.314 . S
C712 C710 1.353 . S
C712 H770 0.930 . S
C713 N709 1.279 . S
C713 C711 1.358 . S
C713 H771 0.930 1_554 S
C714 C717 1.348 . S
C714 C718 1.356 . S
C714 O765 1.325 . S
C715 N716 1.279 . S
C715 C718 1.358 . S
C715 H772 0.930 . S
N716 C715 1.279 . S
N716 C719 1.314 . S
C717 C714 1.348 . S
C717 C719 1.353 . S
C717 H773 0.929 . S
C718 C714 1.356 . S
C718 C715 1.358 . S
C718 H774 0.930 . S
C719 N716 1.314 . S
C719 C717 1.353 . S
C719 H775 0.930 . S
C720 N721 1.314 . S
C720 C725 1.353 . S
C720 H726 0.930 . S
N721 Li704 1.990 . S
N721 C720 1.314 . S
N721 C723 1.279 . S
C722 C723 1.358 . S
C722 C724 1.356 . S
C722 H776 0.930 . S
C723 N721 1.279 . S
C723 C722 1.358 . S
C723 H727 0.930 . S
C724 C722 1.356 . S
C724 C725 1.348 . S
C725 C720 1.353 . S
C725 C724 1.348 . S
C725 H777 0.929 1_554 S
H726 C720 0.930 . S
H727 C723 0.930 . S
C728 N729 1.314 . S
C728 C730 1.353 . S
C728 H734 0.930 . S
N729 Li705 1.990 . S
N729 C728 1.314 . S
N729 C732 1.279 . S
C730 C728 1.353 . S
C730 C733 1.348 . S
C730 H778 0.929 . S
C731 C732 1.358 . S
C731 C733 1.356 . S
C731 H779 0.930 . S
C732 N729 1.279 . S
C732 C731 1.358 . S
C732 H735 0.930 . S
C733 C730 1.348 . S
C733 C731 1.356 . S
H734 C728 0.930 . S
H735 C732 0.930 . S
C736 C738 1.348 . S
C736 C739 1.356 . S
C736 O766 1.325 . S
N737 C740 1.314 . S
N737 C741 1.279 . S
C738 C736 1.348 . S
C738 C740 1.353 . S
C738 H780 0.929 . S
C739 C736 1.356 . S
C739 C741 1.358 . S
C739 H781 0.930 . S
C740 N737 1.314 . S
C740 C738 1.353 . S
C740 H782 0.930 . S
C741 N737 1.279 . S
C741 C739 1.358 . S
C741 H783 0.930 . S
C742 C743 1.348 . S
C742 C744 1.356 . S
C742 O767 1.325 . S
C743 C742 1.348 . S
C743 C745 1.353 . S
C743 H784 0.929 1_554 S
C744 C742 1.356 . S
C744 C746 1.358 . S
C744 H785 0.930 . S
C745 C743 1.353 . S
C745 N747 1.314 . S
C745 H786 0.930 1_554 S
C746 C744 1.358 . S
C746 N747 1.279 . S
C746 H787 0.930 . S
N747 C745 1.314 . S
N747 C746 1.279 . S
C748 C750 1.353 . S
C748 N751 1.314 . S
C748 H754 0.930 . S
C749 N751 1.279 . S
C749 C752 1.358 . S
C749 H755 0.930 . S
C750 C748 1.353 . S
C750 C753 1.348 . S
C750 H788 0.929 . S
N751 Li706 1.990 . S
N751 C748 1.314 . S
N751 C749 1.279 . S
C752 C749 1.358 . S
C752 C753 1.356 . S
C752 H789 0.930 . S
C753 C750 1.348 . S
C753 C752 1.356 . S
H754 C748 0.930 . S
H755 C749 0.930 . S
C756 N757 1.314 . S
C756 C758 1.353 . S
C756 H762 0.930 . S
N757 Li707 1.990 . S
N757 C756 1.314 . S
N757 C760 1.279 . S
C758 C756 1.353 . S
C758 C761 1.348 . S
C758 H790 0.929 . S
C759 C760 1.358 . S
C759 C761 1.356 . S
C759 H791 0.930 . S
C760 N757 1.279 . S
C760 C759 1.358 . S
C760 H763 0.930 . S
C761 C758 1.348 . S
C761 C759 1.356 . S
H762 C756 0.930 . S
H763 C760 0.930 . S
O764 Li704 1.956 . S
O764 Li705 1.970 . S
O764 Li706 1.961 1_554 S
O764 C708 1.325 . S
O765 Li704 1.970 . S
O765 Li705 1.956 . S
O765 Li707 1.961 . S
O765 C714 1.325 . S
O766 Li704 1.961 1_556 S
O766 Li706 1.956 . S
O766 Li707 1.970 1_556 S
O766 C736 1.325 . S
O767 Li705 1.961 . S
O767 Li706 1.970 1_554 S
O767 Li707 1.956 . S
O767 C742 1.325 . S
H768 C710 0.929 . S
H769 C711 0.930 1_556 S
H770 C712 0.930 . S
H771 C713 0.930 1_556 S
H772 C715 0.930 . S
H773 C717 0.929 . S
H774 C718 0.930 . S
H775 C719 0.930 . S
H776 C722 0.930 . S
H777 C725 0.929 1_556 S
H778 C730 0.929 . S
H779 C731 0.930 . S
H780 C738 0.929 . S
H781 C739 0.930 . S
H782 C740 0.930 . S
H783 C741 0.930 . S
H784 C743 0.929 1_556 S
H785 C744 0.930 . S
H786 C745 0.930 1_556 S
H787 C746 0.930 . S
H788 C750 0.929 . S
H789 C752 0.930 . S
H790 C758 0.929 . S
H791 C759 0.930 . S
Li792 N809 1.990 . S
Li792 O852 1.956 . S
Li792 O853 1.970 . S
Li792 O854 1.961 . S
Li793 N817 1.990 . S
Li793 O852 1.970 . S
Li793 O853 1.956 . S
Li793 O855 1.961 . S
Li794 N839 1.990 . S
Li794 O852 1.961 . S
Li794 O854 1.956 . S
Li794 O855 1.970 . S
Li795 N845 1.990 . S
Li795 O853 1.961 . S
Li795 O854 1.970 . S
Li795 O855 1.956 . S
C796 C798 1.348 . S
C796 C799 1.356 . S
C796 O852 1.325 . S
N797 C800 1.314 . S
N797 C801 1.279 . S
C798 C796 1.348 . S
C798 C800 1.353 . S
C798 H856 0.929 . S
C799 C796 1.356 . S
C799 C801 1.358 . S
C799 H857 0.930 . S
C800 N797 1.314 . S
C800 C798 1.353 . S
C800 H858 0.930 . S
C801 N797 1.279 . S
C801 C799 1.358 . S
C801 H859 0.930 . S
C802 C805 1.348 . S
C802 C806 1.356 . S
C802 O853 1.325 . S
C803 N804 1.279 . S
C803 C806 1.358 . S
C803 H860 0.930 . S
N804 C803 1.279 . S
N804 C807 1.314 . S
C805 C802 1.348 . S
C805 C807 1.353 . S
C805 H861 0.929 . S
C806 C802 1.356 . S
C806 C803 1.358 . S
C806 H862 0.930 . S
C807 N804 1.314 . S
C807 C805 1.353 . S
C807 H863 0.930 . S
C808 N809 1.314 . S
C808 C813 1.353 . S
C808 H814 0.930 . S
N809 Li792 1.990 . S
N809 C808 1.314 . S
N809 C811 1.279 . S
C810 C811 1.358 . S
C810 C812 1.356 . S
C810 H864 0.930 . S
C811 N809 1.279 . S
C811 C810 1.358 . S
C811 H815 0.930 . S
C812 C810 1.356 . S
C812 C813 1.348 . S
C813 C808 1.353 . S
C813 C812 1.348 . S
C813 H865 0.929 . S
H814 C808 0.930 . S
H815 C811 0.930 . S
C816 N817 1.314 . S
C816 C818 1.353 . S
C816 H822 0.930 . S
N817 Li793 1.990 . S
N817 C816 1.314 . S
N817 C820 1.279 . S
C818 C816 1.353 . S
C818 C821 1.348 . S
C818 H866 0.929 . S
C819 C820 1.358 . S
C819 C821 1.356 . S
C819 H867 0.930 . S
C820 N817 1.279 . S
C820 C819 1.358 . S
C820 H823 0.930 . S
C821 C818 1.348 . S
C821 C819 1.356 . S
H822 C816 0.930 . S
H823 C820 0.930 . S
C824 C826 1.348 . S
C824 C827 1.356 . S
C824 O854 1.325 . S
N825 C828 1.314 . S
N825 C829 1.279 . S
C826 C824 1.348 . S
C826 C828 1.353 . S
C826 H868 0.929 . S
C827 C824 1.356 . S
C827 C829 1.358 . S
C827 H869 0.930 . S
C828 N825 1.314 . S
C828 C826 1.353 . S
C828 H870 0.930 . S
C829 N825 1.279 . S
C829 C827 1.358 . S
C829 H871 0.930 . S
C830 C831 1.348 . S
C830 C832 1.356 . S
C830 O855 1.325 . S
C831 C830 1.348 . S
C831 C833 1.353 . S
C831 H872 0.929 . S
C832 C830 1.356 . S
C832 C834 1.358 . S
C832 H873 0.930 . S
C833 C831 1.353 . S
C833 N835 1.314 . S
C833 H874 0.930 . S
C834 C832 1.358 . S
C834 N835 1.279 . S
C834 H875 0.930 . S
N835 C833 1.314 . S
N835 C834 1.279 . S
C836 C838 1.353 . S
C836 N839 1.314 . S
C836 H842 0.930 . S
C837 N839 1.279 . S
C837 C840 1.358 . S
C837 H843 0.930 . S
C838 C836 1.353 . S
C838 C841 1.348 . S
C838 H876 0.929 . S
N839 Li794 1.990 . S
N839 C836 1.314 . S
N839 C837 1.279 . S
C840 C837 1.358 . S
C840 C841 1.356 . S
C840 H877 0.930 . S
C841 C838 1.348 . S
C841 C840 1.356 . S
H842 C836 0.930 . S
H843 C837 0.930 . S
C844 N845 1.314 . S
C844 C846 1.353 . S
C844 H850 0.930 . S
N845 Li795 1.990 . S
N845 C844 1.314 . S
N845 C848 1.279 . S
C846 C844 1.353 . S
C846 C849 1.348 . S
C846 H878 0.929 . S
C847 C848 1.358 . S
C847 C849 1.356 . S
C847 H879 0.930 . S
C848 N845 1.279 . S
C848 C847 1.358 . S
C848 H851 0.930 . S
C849 C846 1.348 . S
C849 C847 1.356 . S
H850 C844 0.930 . S
H851 C848 0.930 . S
O852 Li792 1.956 . S
O852 Li793 1.970 . S
O852 Li794 1.961 . S
O852 C796 1.325 . S
O853 Li792 1.970 . S
O853 Li793 1.956 . S
O853 Li795 1.961 . S
O853 C802 1.325 . S
O854 Li792 1.961 . S
O854 Li794 1.956 . S
O854 Li795 1.970 . S
O854 C824 1.325 . S
O855 Li793 1.961 . S
O855 Li794 1.970 . S
O855 Li795 1.956 . S
O855 C830 1.325 . S
H856 C798 0.929 . S
H857 C799 0.930 . S
H858 C800 0.930 . S
H859 C801 0.930 . S
H860 C803 0.930 . S
H861 C805 0.929 . S
H862 C806 0.930 . S
H863 C807 0.930 . S
H864 C810 0.930 . S
H865 C813 0.929 . S
H866 C818 0.929 . S
H867 C819 0.930 . S
H868 C826 0.929 . S
H869 C827 0.930 . S
H870 C828 0.930 . S
H871 C829 0.930 . S
H872 C831 0.929 . S
H873 C832 0.930 . S
H874 C833 0.930 . S
H875 C834 0.930 . S
H876 C838 0.929 . S
H877 C840 0.930 . S
H878 C846 0.929 . S
H879 C847 0.930 . S
Li880 N897 1.990 . S
Li880 O940 1.956 . S
Li880 O941 1.970 . S
Li880 O942 1.961 . S
Li881 N905 1.990 . S
Li881 O940 1.970 . S
Li881 O941 1.956 . S
Li881 O943 1.961 . S
Li882 N927 1.990 . S
Li882 O940 1.961 . S
Li882 O942 1.956 . S
Li882 O943 1.970 . S
Li883 N933 1.990 . S
Li883 O941 1.961 . S
Li883 O942 1.970 . S
Li883 O943 1.956 . S
C884 C886 1.348 . S
C884 C887 1.356 . S
C884 O940 1.325 . S
N885 C888 1.314 . S
N885 C889 1.279 . S
C886 C884 1.348 . S
C886 C888 1.353 . S
C886 H944 0.929 . S
C887 C884 1.356 . S
C887 C889 1.358 . S
C887 H945 0.930 . S
C888 N885 1.314 . S
C888 C886 1.353 . S
C888 H946 0.930 . S
C889 N885 1.279 . S
C889 C887 1.358 . S
C889 H947 0.930 . S
C890 C893 1.348 . S
C890 C894 1.356 . S
C890 O941 1.325 . S
C891 N892 1.279 . S
C891 C894 1.358 . S
C891 H948 0.930 . S
N892 C891 1.279 . S
N892 C895 1.314 . S
C893 C890 1.348 . S
C893 C895 1.353 . S
C893 H949 0.929 . S
C894 C890 1.356 . S
C894 C891 1.358 . S
C894 H950 0.930 . S
C895 N892 1.314 . S
C895 C893 1.353 . S
C895 H951 0.930 . S
C896 N897 1.314 . S
C896 C901 1.353 . S
C896 H902 0.930 . S
N897 Li880 1.990 . S
N897 C896 1.314 . S
N897 C899 1.279 . S
C898 C899 1.358 . S
C898 C900 1.356 . S
C898 H952 0.930 . S
C899 N897 1.279 . S
C899 C898 1.358 . S
C899 H903 0.930 . S
C900 C898 1.356 . S
C900 C901 1.348 . S
C901 C896 1.353 . S
C901 C900 1.348 . S
C901 H953 0.929 . S
H902 C896 0.930 . S
H903 C899 0.930 . S
C904 N905 1.314 . S
C904 C906 1.353 . S
C904 H910 0.930 . S
N905 Li881 1.990 . S
N905 C904 1.314 . S
N905 C908 1.279 . S
C906 C904 1.353 . S
C906 C909 1.348 . S
C906 H954 0.929 . S
C907 C908 1.358 . S
C907 C909 1.356 . S
C907 H955 0.932 . S
C908 N905 1.279 . S
C908 C907 1.358 . S
C908 H911 0.930 . S
C909 C906 1.348 . S
C909 C907 1.356 . S
H910 C904 0.930 . S
H911 C908 0.930 . S
C912 C914 1.348 . S
C912 C915 1.356 . S
C912 O942 1.325 . S
N913 C916 1.314 . S
N913 C917 1.279 . S
C914 C912 1.348 . S
C914 C916 1.353 . S
C914 H956 0.929 . S
C915 C912 1.356 . S
C915 C917 1.358 . S
C915 H957 0.930 . S
C916 N913 1.314 . S
C916 C914 1.353 . S
C916 H958 0.930 . S
C917 N913 1.279 . S
C917 C915 1.358 . S
C917 H959 0.930 . S
C918 C919 1.348 . S
C918 C920 1.356 . S
C918 O943 1.325 . S
C919 C918 1.348 . S
C919 C921 1.353 . S
C919 H960 0.929 . S
C920 C918 1.356 . S
C920 C922 1.358 . S
C920 H961 0.930 . S
C921 C919 1.353 . S
C921 N923 1.314 . S
C921 H962 0.930 . S
C922 C920 1.358 . S
C922 N923 1.279 . S
C922 H963 0.930 . S
N923 C921 1.314 . S
N923 C922 1.279 . S
C924 C926 1.353 . S
C924 N927 1.314 . S
C924 H930 0.930 . S
C925 N927 1.279 . S
C925 C928 1.358 . S
C925 H931 0.930 . S
C926 C924 1.353 . S
C926 C929 1.348 . S
C926 H964 0.929 . S
N927 Li882 1.990 . S
N927 C924 1.314 . S
N927 C925 1.279 . S
C928 C925 1.358 . S
C928 C929 1.356 . S
C928 H965 0.930 . S
C929 C926 1.348 . S
C929 C928 1.356 . S
H930 C924 0.930 . S
H931 C925 0.930 . S
C932 N933 1.314 . S
C932 C934 1.353 . S
C932 H938 0.930 . S
N933 Li883 1.990 . S
N933 C932 1.314 . S
N933 C936 1.279 . S
C934 C932 1.353 . S
C934 C937 1.348 . S
C934 H966 0.929 . S
C935 C936 1.358 . S
C935 C937 1.356 . S
C935 H967 0.930 . S
C936 N933 1.279 . S
C936 C935 1.358 . S
C936 H939 0.930 . S
C937 C934 1.348 . S
C937 C935 1.356 . S
H938 C932 0.930 . S
H939 C936 0.930 . S
O940 Li880 1.956 . S
O940 Li881 1.970 . S
O940 Li882 1.961 . S
O940 C884 1.325 . S
O941 Li880 1.970 . S
O941 Li881 1.956 . S
O941 Li883 1.961 . S
O941 C890 1.325 . S
O942 Li880 1.961 . S
O942 Li882 1.956 . S
O942 Li883 1.970 . S
O942 C912 1.325 . S
O943 Li881 1.961 . S
O943 Li882 1.970 . S
O943 Li883 1.956 . S
O943 C918 1.325 . S
H944 C886 0.929 . S
H945 C887 0.930 . S
H946 C888 0.930 . S
H947 C889 0.930 . S
H948 C891 0.930 . S
H949 C893 0.929 . S
H950 C894 0.930 . S
H951 C895 0.930 . S
H952 C898 0.930 . S
H953 C901 0.929 . S
H954 C906 0.929 . S
H955 C907 0.932 . S
H956 C914 0.929 . S
H957 C915 0.930 . S
H958 C916 0.930 . S
H959 C917 0.930 . S
H960 C919 0.929 . S
H961 C920 0.930 . S
H962 C921 0.930 . S
H963 C922 0.930 . S
H964 C926 0.929 . S
H965 C928 0.930 . S
H966 C934 0.929 . S
H967 C935 0.930 . S
Li968 N985 1.990 . S
Li968 O1028 1.956 . S
Li968 O1029 1.970 . S
Li968 O1030 1.961 . S
Li969 N993 1.990 . S
Li969 O1028 1.970 . S
Li969 O1029 1.956 . S
Li969 O1031 1.961 1_554 S
Li970 N1015 1.990 . S
Li970 O1028 1.961 . S
Li970 O1030 1.956 . S
Li970 O1031 1.970 1_554 S
Li971 N1021 1.990 . S
Li971 O1029 1.961 1_556 S
Li971 O1030 1.970 1_556 S
Li971 O1031 1.956 . S
C972 C974 1.348 . S
C972 C975 1.356 . S
C972 O1028 1.325 . S
N973 C976 1.314 . S
N973 C977 1.279 . S
C974 C972 1.348 . S
C974 C976 1.353 . S
C974 H1032 0.929 . S
C975 C972 1.356 . S
C975 C977 1.358 . S
C975 H1033 0.930 . S
C976 N973 1.314 . S
C976 C974 1.353 . S
C976 H1034 0.930 . S
C977 N973 1.279 . S
C977 C975 1.358 . S
C977 H1035 0.930 . S
C978 C981 1.348 . S
C978 C982 1.356 . S
C978 O1029 1.325 . S
C979 N980 1.279 . S
C979 C982 1.358 . S
C979 H1036 0.930 1_554 S
N980 C979 1.279 . S
N980 C983 1.314 . S
C981 C978 1.348 . S
C981 C983 1.353 . S
C981 H1037 0.929 . S
C982 C978 1.356 . S
C982 C979 1.358 . S
C982 H1038 0.930 1_554 S
C983 N980 1.314 . S
C983 C981 1.353 . S
C983 H1039 0.930 . S
C984 N985 1.314 . S
C984 C989 1.353 . S
C984 H990 0.930 . S
N985 Li968 1.990 . S
N985 C984 1.314 . S
N985 C987 1.279 . S
C986 C987 1.358 . S
C986 C988 1.356 . S
C986 H1040 0.930 . S
C987 N985 1.279 . S
C987 C986 1.358 . S
C987 H991 0.930 . S
C988 C986 1.356 . S
C988 C989 1.348 . S
C989 C984 1.353 . S
C989 C988 1.348 . S
C989 H1041 0.929 . S
H990 C984 0.930 . S
H991 C987 0.930 . S
C992 N993 1.314 . S
C992 C994 1.353 . S
C992 H998 0.930 . S
N993 Li969 1.990 . S
N993 C992 1.314 . S
N993 C996 1.279 . S
C994 C992 1.353 . S
C994 C997 1.348 . S
C994 H1042 0.929 1_554 S
C995 C996 1.358 . S
C995 C997 1.356 . S
C995 H1043 0.930 . S
C996 N993 1.279 . S
C996 C995 1.358 . S
C996 H999 0.930 . S
C997 C994 1.348 . S
C997 C995 1.356 . S
H998 C992 0.930 . S
H999 C996 0.930 . S
C1000 C1002 1.348 . S
C1000 C1003 1.356 . S
C1000 O1030 1.325 . S
N1001 C1004 1.314 . S
N1001 C1005 1.279 . S
C1002 C1000 1.348 . S
C1002 C1004 1.353 . S
C1002 H1044 0.929 1_554 S
C1003 C1000 1.356 . S
C1003 C1005 1.358 . S
C1003 H1045 0.930 . S
C1004 N1001 1.314 . S
C1004 C1002 1.353 . S
C1004 H1046 0.930 1_554 S
C1005 N1001 1.279 . S
C1005 C1003 1.358 . S
C1005 H1047 0.930 . S
C1006 C1007 1.348 . S
C1006 C1008 1.356 . S
C1006 O1031 1.325 . S
C1007 C1006 1.348 . S
C1007 C1009 1.353 . S
C1007 H1048 0.929 . S
C1008 C1006 1.356 . S
C1008 C1010 1.358 . S
C1008 H1049 0.930 . S
C1009 C1007 1.353 . S
C1009 N1011 1.314 . S
C1009 H1050 0.930 . S
C1010 C1008 1.358 . S
C1010 N1011 1.279 . S
C1010 H1051 0.930 . S
N1011 C1009 1.314 . S
N1011 C1010 1.279 . S
C1012 C1014 1.353 . S
C1012 N1015 1.314 . S
C1012 H1018 0.930 . S
C1013 N1015 1.279 . S
C1013 C1016 1.358 . S
C1013 H1019 0.930 . S
C1014 C1012 1.353 . S
C1014 C1017 1.348 . S
C1014 H1052 0.929 . S
N1015 Li970 1.990 . S
N1015 C1012 1.314 . S
N1015 C1013 1.279 . S
C1016 C1013 1.358 . S
C1016 C1017 1.356 . S
C1016 H1053 0.930 . S
C1017 C1014 1.348 . S
C1017 C1016 1.356 . S
H1018 C1012 0.930 . S
H1019 C1013 0.930 . S
C1020 N1021 1.314 . S
C1020 C1022 1.353 . S
C1020 H1026 0.930 . S
N1021 Li971 1.990 . S
N1021 C1020 1.314 . S
N1021 C1024 1.279 . S
C1022 C1020 1.353 . S
C1022 C1025 1.348 . S
C1022 H1054 0.929 . S
C1023 C1024 1.358 . S
C1023 C1025 1.356 . S
C1023 H1055 0.930 . S
C1024 N1021 1.279 . S
C1024 C1023 1.358 . S
C1024 H1027 0.930 . S
C1025 C1022 1.348 . S
C1025 C1023 1.356 . S
H1026 C1020 0.930 . S
H1027 C1024 0.930 . S
O1028 Li968 1.956 . S
O1028 Li969 1.970 . S
O1028 Li970 1.961 . S
O1028 C972 1.325 . S
O1029 Li968 1.970 . S
O1029 Li969 1.956 . S
O1029 Li971 1.961 1_554 S
O1029 C978 1.325 . S
O1030 Li968 1.961 . S
O1030 Li970 1.956 . S
O1030 Li971 1.970 1_554 S
O1030 C1000 1.325 . S
O1031 Li969 1.961 1_556 S
O1031 Li970 1.970 1_556 S
O1031 Li971 1.956 . S
O1031 C1006 1.325 . S
H1032 C974 0.929 . S
H1033 C975 0.930 . S
H1034 C976 0.930 . S
H1035 C977 0.930 . S
H1036 C979 0.930 1_556 S
H1037 C981 0.929 . S
H1038 C982 0.930 1_556 S
H1039 C983 0.930 . S
H1040 C986 0.930 . S
H1041 C989 0.929 . S
H1042 C994 0.929 1_556 S
H1043 C995 0.930 . S
H1044 C1002 0.929 1_556 S
H1045 C1003 0.930 . S
H1046 C1004 0.930 1_556 S
H1047 C1005 0.930 . S
H1048 C1007 0.929 . S
H1049 C1008 0.930 . S
H1050 C1009 0.930 . S
H1051 C1010 0.930 . S
H1052 C1014 0.929 . S
H1053 C1016 0.930 . S
H1054 C1022 0.929 . S
H1055 C1023 0.930 . S
C29 C849 1.890 . S
C117 C937 1.890 1_655 S
C196 C1017 1.890 1_566 S
C293 C585 1.890 . S
C665 C381 1.890 1_655 S
C761 C469 1.890 1_564 S
C909 C57 2.231 1_556 S
C145 C988 2.231 . S
C225 C557 2.231 . S
C321 C636 2.231 1_554 S
C409 C733 2.231 . S
C497 C821 2.231 . S
C929 C20 0.674 . S
C108 C1025 0.674 . S
C205 C577 0.674 . S
C284 C673 0.674 . S
C372 C753 0.674 . S
C460 C841 0.674 . S
C49 C548 2.043 . S
C645 C137 2.042 . S
C233 C724 2.042 1_556 S
C313 C812 2.043 . S
C401 C900 2.042 . S
C997 C489 2.043 1_554 S
