# Generated by pormake.
# Topology rob, (6)-cn, num edge types: 1
# Building blocks:
#     Node 0, Type 0, BuildingBlock: KUMBOL_clean_sbu_1, # of connection points: 6
#     Node 1, Type 0, BuildingBlock: KUMBOL_clean_sbu_1, # of connection points: 6
#     Node 2, Type 0, BuildingBlock: KUMBOL_clean_sbu_1, # of connection points: 6
#     Node 3, Type 0, BuildingBlock: KUMBOL_clean_sbu_1, # of connection points: 6
#     Edge 4, Type (0, 0), BuildingBlock: CIFDUS_clean_linker_0, # of connection points: 2
#     Edge 5, Type (0, 0), BuildingBlock: CIFDUS_clean_linker_0, # of connection points: 2
#     Edge 6, Type (0, 0), BuildingBlock: CIFDUS_clean_linker_0, # of connection points: 2
#     Edge 7, Type (0, 0), BuildingBlock: CIFDUS_clean_linker_0, # of connection points: 2
#     Edge 8, Type (0, 0), BuildingBlock: CIFDUS_clean_linker_0, # of connection points: 2
#     Edge 9, Type (0, 0), BuildingBlock: CIFDUS_clean_linker_0, # of connection points: 2
#     Edge 10, Type (0, 0), BuildingBlock: CIFDUS_clean_linker_0, # of connection points: 2
#     Edge 11, Type (0, 0), BuildingBlock: CIFDUS_clean_linker_0, # of connection points: 2
#     Edge 12, Type (0, 0), BuildingBlock: CIFDUS_clean_linker_0, # of connection points: 2
#     Edge 13, Type (0, 0), BuildingBlock: CIFDUS_clean_linker_0, # of connection points: 2
#     Edge 14, Type (0, 0), BuildingBlock: CIFDUS_clean_linker_0, # of connection points: 2
#     Edge 15, Type (0, 0), BuildingBlock: CIFDUS_clean_linker_0, # of connection points: 2
# Relax obj value: 0.023
# Max RMSD: 0.122
# Mean RMSD: 0.122
data_MOF--net-rob--node1-KUMBOL_clean_sbu_1--edge1-CIFDUS_clean_linker_0
_symmetry_space_group_name_H-M    P1
_symmetry_Int_Tables_number       1
_symmetry_cell_setting            triclinic
loop_
_symmetry_equiv_pos_as_xyz
'x, y, z'
_cell_length_a     16.881295
_cell_length_b     20.092653
_cell_length_c     31.556508
_cell_angle_alpha  109.47594
_cell_angle_beta   90.062339
_cell_angle_gamma 89.857447
loop_
_atom_site_label
_atom_site_type_symbol
_atom_site_fract_x
_atom_site_fract_y
_atom_site_fract_z
_atom_type_partial_charge
C0 C 0.09498 0.44674 0.06032 0.0
C1 C 0.96294 0.40637 0.033 0.0
C2 C 0.04194 0.3917 0.04163 0.0
C3 C 0.93804 0.47676 0.04351 0.0
C4 C 0.0706 0.5173 0.06979 0.0
C5 C 0.99214 0.5318 0.06112 0.0
N6 N 0.17058 0.43133 0.06862 0.0
C7 C 0.22506 0.48353 0.08571 0.0
C8 C 0.12618 0.57125 0.08697 0.0
C9 C 0.20377 0.55426 0.09492 0.0
Gd10 Gd 0.31077 0.17327 0.95012 0.0
Gd11 Gd 0.19671 0.31205 0.05558 0.0
N12 N 0.06791 0.32395 0.03126 0.0
C13 C 0.91165 0.34983 0.01338 0.0
C14 C 0.01758 0.26869 0.01332 0.0
C15 C 0.93915 0.28071 0.00347 0.0
H16 H 0.03738 0.21537 0.00666 0.0
H17 H 0.8997 0.23665 0.98871 0.0
H18 H 0.46988 0.27919 0.99102 0.0
H19 H 0.28439 0.47079 0.09336 0.0
H20 H 0.60972 0.26586 0.00691 0.0
H21 H 0.85077 0.35896 0.00583 0.0
H22 H 0.87788 0.48914 0.03663 0.0
H23 H 0.23044 0.01178 0.92643 0.0
H24 H 0.10983 0.62607 0.09415 0.0
H25 H 0.24692 0.59565 0.1086 0.0
H26 H 0.64573 0.0162 0.96867 0.0
H27 H 0.97381 0.58532 0.06624 0.0
H28 H 0.41839 0.86748 0.92412 0.0
H29 H 0.27657 0.89033 0.91489 0.0
N30 N 0.34452 0.05748 0.94405 0.0
C31 C 0.42263 0.04618 0.94968 0.0
C32 C 0.29203 0.00273 0.93199 0.0
C33 C 0.39841 0.92092 0.92955 0.0
C34 C 0.31816 0.93371 0.92472 0.0
C35 C 0.45175 0.97738 0.94215 0.0
H36 H 0.55516 0.91551 0.94522 0.0
N37 N 0.44361 0.16981 0.97186 0.0
C38 C 0.47353 0.10381 0.96405 0.0
C39 C 0.60363 0.15265 0.9873 0.0
C40 C 0.55455 0.09358 0.97128 0.0
C41 C 0.4919 0.22736 0.98639 0.0
C42 C 0.57206 0.21983 0.99498 0.0
O43 O 0.17038 0.31904 0.98618 0.0
O44 O 0.18503 0.20412 0.94115 0.0
O45 O 0.36526 0.19838 0.89335 0.0
O46 O 0.30725 0.09723 0.88308 0.0
O47 O 0.18355 0.19402 0.04181 0.0
O48 O 0.1903 0.13619 0.96541 0.0
O49 O 0.34081 0.17017 0.02075 0.0
O50 O 0.32358 0.28599 0.06502 0.0
O51 O 0.1319 0.27841 0.10454 0.0
O52 O 0.19335 0.37835 0.12599 0.0
O53 O 0.329 0.29064 0.96294 0.0
O54 O 0.31583 0.35032 0.03945 0.0
C55 C 0.16422 0.26921 0.94666 0.0
C56 C 0.16327 0.14148 0.00565 0.0
C57 C 0.36404 0.11137 0.81585 0.0
C58 C 0.42584 0.12332 0.74802 0.0
C59 C 0.35568 0.0159 0.74408 0.0
C60 C 0.33864 0.04333 0.78979 0.0
C61 C 0.39912 0.05517 0.72338 0.0
C62 C 0.40726 0.15191 0.79451 0.0
C63 C 0.34615 0.13668 0.86502 0.0
C64 C 0.58387 0.02501 0.96293 0.0
C65 C 0.53248 0.9673 0.94883 0.0
H66 H 0.66593 0.14695 0.99371 0.0
C67 C 0.34891 0.22204 0.05955 0.0
C68 C 0.34112 0.34648 0.99901 0.0
C69 C 0.17352 0.32206 0.18067 0.0
C70 C 0.13497 0.30965 0.25299 0.0
C71 C 0.27411 0.30464 0.23086 0.0
C72 C 0.25324 0.31427 0.1905 0.0
C73 C 0.21588 0.30281 0.26194 0.0
C74 C 0.11457 0.31933 0.21184 0.0
C75 C 0.15087 0.33402 0.13843 0.0
H76 H 0.33509 0.96376 0.72458 0.0
H77 H 0.3055 0.01069 0.80473 0.0
H78 H 0.41124 0.03239 0.6877 0.0
H79 H 0.42756 0.20435 0.8139 0.0
H80 H 0.33593 0.29918 0.23831 0.0
H81 H 0.29936 0.3163 0.16714 0.0
H82 H 0.23469 0.29714 0.29336 0.0
H83 H 0.05293 0.32425 0.20373 0.0
C84 C 0.59507 0.94815 0.05939 0.0
C85 C 0.46037 0.91144 0.03564 0.0
C86 C 0.53917 0.89478 0.04314 0.0
C87 C 0.43915 0.9821 0.0434 0.0
C88 C 0.57385 0.019 0.06697 0.0
C89 C 0.4964 0.03524 0.05778 0.0
N90 N 0.66956 0.93103 0.06857 0.0
C91 C 0.7248 0.98226 0.08661 0.0
C92 C 0.63104 0.07161 0.08368 0.0
C93 C 0.70669 0.05316 0.09387 0.0
Gd94 Gd 0.81309 0.67868 0.95091 0.0
Gd95 Gd 0.69132 0.81093 0.05585 0.0
N96 N 0.5616 0.82668 0.03525 0.0
C97 C 0.40533 0.85652 0.02051 0.0
C98 C 0.50756 0.77329 0.02267 0.0
C99 C 0.42897 0.78719 0.01424 0.0
H100 H 0.52527 0.72008 0.01895 0.0
H101 H 0.38654 0.74454 0.00332 0.0
H102 H 0.973 0.77409 0.99757 0.0
H103 H 0.78241 0.96889 0.09636 0.0
H104 H 0.11051 0.75213 0.01648 0.0
H105 H 0.34436 0.86718 0.01407 0.0
H106 H 0.37928 0.996 0.03708 0.0
H107 H 0.72662 0.51949 0.90749 0.0
H108 H 0.6169 0.12664 0.08966 0.0
H109 H 0.75073 0.09361 0.10789 0.0
H110 H 0.12849 0.49954 0.97193 0.0
H111 H 0.48109 0.08869 0.06073 0.0
H112 H 0.89833 0.36362 0.9097 0.0
H113 H 0.76335 0.39456 0.89185 0.0
N114 N 0.83815 0.55886 0.93655 0.0
C115 C 0.91289 0.54314 0.94626 0.0
C116 C 0.78476 0.50671 0.91693 0.0
C117 C 0.882 0.4186 0.91743 0.0
C118 C 0.8057 0.43585 0.90742 0.0
C119 C 0.9368 0.47244 0.93666 0.0
H120 H 0.03189 0.40373 0.94139 0.0
N121 N 0.94121 0.66581 0.97522 0.0
C122 C 0.96615 0.59789 0.96551 0.0
C123 C 0.09668 0.63907 0.9937 0.0
C124 C 0.04472 0.58279 0.97458 0.0
C125 C 0.99241 0.72077 0.99198 0.0
C126 C 0.07043 0.70834 1.00232 0.0
O127 O 0.64926 0.80332 0.98456 0.0
O128 O 0.68683 0.69413 0.93392 0.0
O129 O 0.87682 0.72192 0.90599 0.0
O130 O 0.83179 0.61547 0.88078 0.0
O131 O 0.6904 0.69221 0.03946 0.0
O132 O 0.69455 0.6346 0.96359 0.0
O133 O 0.84572 0.67995 0.02221 0.0
O134 O 0.81891 0.79311 0.06947 0.0
O135 O 0.63487 0.76631 0.10237 0.0
O136 O 0.67341 0.87471 0.12601 0.0
O137 O 0.80892 0.79731 0.96619 0.0
O138 O 0.80998 0.85322 0.04193 0.0
C139 C 0.64602 0.75319 0.94456 0.0
C140 C 0.66354 0.64326 0.00347 0.0
C141 C 0.84325 0.67683 0.8286 0.0
C142 C 0.87726 0.68802 0.75535 0.0
C143 C 0.73939 0.69203 0.77946 0.0
C144 C 0.76283 0.68355 0.81975 0.0
C145 C 0.79575 0.6939 0.74748 0.0
C146 C 0.90037 0.67919 0.79638 0.0
C147 C 0.86773 0.66561 0.87079 0.0
C148 C 0.06871 0.51226 0.96462 0.0
C149 C 0.01434 0.45753 0.94658 0.0
H150 H 0.15728 0.62959 1.00156 0.0
C151 C 0.85084 0.73066 0.06173 0.0
C152 C 0.83741 0.84634 1.00159 0.0
C153 C 0.67243 0.81383 0.17892 0.0
C154 C 0.64838 0.78968 0.24936 0.0
C155 C 0.78265 0.80837 0.22703 0.0
C156 C 0.75393 0.81779 0.18799 0.0
C157 C 0.73063 0.79458 0.25744 0.0
C158 C 0.61954 0.80009 0.20986 0.0
C159 C 0.64273 0.82338 0.13711 0.0
H160 H 0.67705 0.69664 0.7728 0.0
H161 H 0.71811 0.68141 0.84381 0.0
H162 H 0.77509 0.69894 0.7162 0.0
H163 H 0.96256 0.67467 0.80351 0.0
H164 H 0.84569 0.81166 0.23375 0.0
H165 H 0.79544 0.82834 0.16488 0.0
H166 H 0.75497 0.7881 0.28761 0.0
H167 H 0.55658 0.7962 0.20274 0.0
C168 C 0.08325 0.55226 0.44669 0.0
C169 C 0.95045 0.59621 0.47019 0.0
C170 C 0.03031 0.60844 0.46202 0.0
C171 C 0.92479 0.52706 0.46333 0.0
C172 C 0.05781 0.48293 0.44055 0.0
C173 C 0.97873 0.47096 0.44954 0.0
N174 N 0.15923 0.56525 0.43752 0.0
C175 C 0.21223 0.51125 0.42132 0.0
C176 C 0.1127 0.42769 0.42581 0.0
C177 C 0.19005 0.44184 0.4158 0.0
Gd178 Gd 0.31169 0.81447 0.55122 0.0
Gd179 Gd 0.18791 0.68337 0.44716 0.0
N180 N 0.05684 0.67503 0.46879 0.0
C181 C 0.89872 0.6539 0.48504 0.0
C182 C 1.00594 0.73103 0.48117 0.0
C183 C 0.92654 0.72158 0.49032 0.0
H184 H 0.02636 0.78287 0.48391 0.0
H185 H 0.88669 0.76638 0.50096 0.0
H186 H 0.47068 0.71792 0.50359 0.0
H187 H 0.27131 0.52119 0.41183 0.0
H188 H 0.60783 0.73884 0.48383 0.0
H189 H 0.83709 0.64665 0.49199 0.0
H190 H 0.86389 0.51659 0.46989 0.0
H191 H 0.22662 0.97429 0.59586 0.0
H192 H 0.09579 0.37396 0.42171 0.0
H193 H 0.23236 0.3992 0.40338 0.0
H194 H 0.62741 0.99136 0.52931 0.0
H195 H 0.9592 0.41886 0.44723 0.0
H196 H 0.39922 0.12909 0.5942 0.0
H197 H 0.26429 0.09908 0.61236 0.0
N198 N 0.33758 0.9342 0.56613 0.0
C199 C 0.41222 0.94939 0.55614 0.0
C200 C 0.28472 0.98674 0.58633 0.0
C201 C 0.38249 0.07421 0.58613 0.0
C202 C 0.30621 0.05749 0.5963 0.0
C203 C 0.43667 0.01995 0.56617 0.0
H204 H 0.53211 0.08804 0.56144 0.0
N205 N 0.43955 0.82649 0.5264 0.0
C206 C 0.46484 0.89422 0.53619 0.0
C207 C 0.59465 0.85203 0.50695 0.0
C208 C 0.54323 0.90872 0.52662 0.0
C209 C 0.49034 0.77111 0.50922 0.0
C210 C 0.56813 0.78294 0.49836 0.0
O211 O 0.1478 0.69096 0.51863 0.0
O212 O 0.18494 0.80078 0.56826 0.0
O213 O 0.37528 0.76986 0.59564 0.0
O214 O 0.33143 0.87686 0.62139 0.0
O215 O 0.18754 0.80217 0.46261 0.0
O216 O 0.19384 0.85995 0.53862 0.0
O217 O 0.34383 0.81257 0.47978 0.0
O218 O 0.31563 0.69962 0.43288 0.0
O219 O 0.13264 0.72554 0.39903 0.0
O220 O 0.17043 0.61671 0.3776 0.0
O221 O 0.30598 0.69599 0.53597 0.0
O222 O 0.30621 0.63902 0.46042 0.0
C223 C 0.1444 0.74177 0.55828 0.0
C224 C 0.16327 0.85254 0.49878 0.0
C225 C 0.34294 0.81488 0.67323 0.0
C226 C 0.37774 0.80404 0.74654 0.0
C227 C 0.23956 0.80119 0.72293 0.0
C228 C 0.2626 0.80901 0.68242 0.0
C229 C 0.29625 0.79921 0.7548 0.0
C230 C 0.40041 0.81207 0.70525 0.0
C231 C 0.36702 0.82608 0.63102 0.0
C232 C 0.56773 0.97909 0.5369 0.0
C233 C 0.51409 0.03429 0.55586 0.0
H234 H 0.65509 0.86104 0.49872 0.0
C235 C 0.3484 0.76157 0.44035 0.0
C236 C 0.3345 0.64663 0.50073 0.0
C237 C 0.17167 0.67445 0.32302 0.0
C238 C 0.14977 0.69674 0.2518 0.0
C239 C 0.28302 0.67578 0.2748 0.0
C240 C 0.25325 0.66848 0.31419 0.0
C241 C 0.23199 0.68955 0.24385 0.0
C242 C 0.11987 0.68837 0.29163 0.0
C243 C 0.14072 0.66726 0.36517 0.0
H244 H 0.17726 0.79732 0.72987 0.0
H245 H 0.21763 0.81139 0.65849 0.0
H246 H 0.27579 0.79495 0.78629 0.0
H247 H 0.46251 0.81581 0.69776 0.0
H248 H 0.34608 0.67088 0.26823 0.0
H249 H 0.29401 0.65801 0.33775 0.0
H250 H 0.2571 0.69433 0.21342 0.0
H251 H 0.05692 0.69408 0.29866 0.0
C252 C 0.57819 0.05783 0.44647 0.0
C253 C 0.44948 0.1051 0.4764 0.0
C254 C 0.52896 0.11564 0.4664 0.0
C255 C 0.42011 0.03619 0.46587 0.0
C256 C 0.54925 0.98863 0.43687 0.0
C257 C 0.47018 0.97832 0.44679 0.0
N258 N 0.65457 0.06917 0.4372 0.0
C259 C 0.70557 0.01417 0.41921 0.0
C260 C 0.60113 0.9318 0.41853 0.0
C261 C 0.67966 0.94464 0.40975 0.0
Gd262 Gd 0.80767 0.32038 0.55713 0.0
Gd263 Gd 0.68846 0.18699 0.45091 0.0
N264 N 0.55911 0.18198 0.47673 0.0
C265 C 0.40205 0.16416 0.49725 0.0
C266 C 0.51244 0.23969 0.49591 0.0
C267 C 0.43373 0.23172 0.50705 0.0
H268 H 0.53534 0.29188 0.50277 0.0
H269 H 0.39729 0.27774 0.52278 0.0
H270 H 0.96874 0.21586 0.52661 0.0
H271 H 0.76571 0.02383 0.41116 0.0
H272 H 0.10969 0.22748 0.51114 0.0
H273 H 0.34095 0.15817 0.50581 0.0
H274 H 0.35949 0.02704 0.47373 0.0
H275 H 0.72789 0.48299 0.58026 0.0
H276 H 0.5813 0.87791 0.41127 0.0
H277 H 0.72002 0.901 0.39534 0.0
H278 H 0.14272 0.47463 0.53637 0.0
H279 H 0.4481 0.92587 0.44149 0.0
H280 H 0.91509 0.62463 0.57803 0.0
H281 H 0.77374 0.60318 0.58912 0.0
N282 N 0.84133 0.43574 0.56162 0.0
C283 C 0.91944 0.44648 0.55559 0.0
C284 C 0.78915 0.49099 0.57359 0.0
C285 C 0.89515 0.57152 0.57355 0.0
C286 C 0.81519 0.55952 0.57947 0.0
C287 C 0.94839 0.51478 0.56154 0.0
H288 H 0.05156 0.57549 0.55684 0.0
N289 N 0.9416 0.32368 0.53823 0.0
C290 C 0.97091 0.38895 0.54342 0.0
C291 C 0.10197 0.33944 0.52381 0.0
C292 C 0.05202 0.39847 0.53635 0.0
C293 C 0.99078 0.26655 0.52806 0.0
C294 C 0.07124 0.27325 0.51989 0.0
O295 O 0.66252 0.17959 0.52018 0.0
O296 O 0.68059 0.29345 0.566 0.0
O297 O 0.85687 0.29209 0.61419 0.0
O298 O 0.80904 0.39713 0.62384 0.0
O299 O 0.69184 0.30556 0.46534 0.0
O300 O 0.68937 0.36095 0.54129 0.0
O301 O 0.84898 0.31403 0.48609 0.0
O302 O 0.81673 0.20194 0.43775 0.0
O303 O 0.62624 0.22674 0.40358 0.0
O304 O 0.67733 0.12219 0.38052 0.0
O305 O 0.82161 0.20221 0.54291 0.0
O306 O 0.80483 0.14182 0.46636 0.0
C307 C 0.65776 0.22879 0.56 0.0
C308 C 0.66518 0.35604 0.50066 0.0
C309 C 0.86024 0.38017 0.69141 0.0
C310 C 0.92392 0.36877 0.75895 0.0
C311 C 0.85006 0.47489 0.76346 0.0
C312 C 0.83295 0.44752 0.71776 0.0
C313 C 0.89547 0.43625 0.78387 0.0
C314 C 0.90523 0.34016 0.71249 0.0
C315 C 0.8429 0.35537 0.64219 0.0
C316 C 0.08078 0.46637 0.5421 0.0
C317 C 0.02907 0.52417 0.55447 0.0
H318 H 0.16446 0.34456 0.51775 0.0
C319 C 0.85551 0.26172 0.44721 0.0
C320 C 0.83446 0.14725 0.50635 0.0
C321 C 0.66891 0.18276 0.3276 0.0
C322 C 0.64277 0.20504 0.25663 0.0
C323 C 0.77832 0.19549 0.28113 0.0
C324 C 0.75053 0.18458 0.31984 0.0
C325 C 0.72525 0.20539 0.24982 0.0
C326 C 0.61486 0.19274 0.29574 0.0
C327 C 0.64059 0.17065 0.36892 0.0
H328 H 0.82806 0.5265 0.78317 0.0
H329 H 0.79826 0.47968 0.70304 0.0
H330 H 0.90779 0.45898 0.81954 0.0
H331 H 0.92703 0.28827 0.69288 0.0
H332 H 0.84147 0.19645 0.27539 0.0
H333 H 0.79292 0.17721 0.34369 0.0
H334 H 0.74902 0.21338 0.22001 0.0
H335 H 0.55173 0.1924 0.30183 0.0
H336 H 0.57321 0.54726 0.93936 0.0
H337 H 0.62208 0.62254 0.08177 0.0
H338 H 0.52456 0.54144 0.09352 0.0
H339 H 0.42648 0.44663 0.0636 0.0
H340 H 0.37778 0.37055 0.92121 0.0
H341 H 0.47311 0.45373 0.90958 0.0
C342 C 0.56286 0.54562 0.97291 0.0
C343 C 0.60545 0.59119 0.00948 0.0
C344 C 0.50605 0.49857 0.97966 0.0
C345 C 0.5903 0.58861 0.05283 0.0
C346 C 0.53433 0.54201 0.05971 0.0
C347 C 0.43585 0.44887 0.03012 0.0
C348 C 0.3945 0.40219 0.99346 0.0
C349 C 0.4917 0.49667 0.02343 0.0
C350 C 0.40865 0.40549 0.9502 0.0
C351 C 0.46345 0.45312 0.94339 0.0
H352 H 0.42538 0.54911 0.43745 0.0
H353 H 0.37627 0.62806 0.57976 0.0
H354 H 0.47493 0.54824 0.59262 0.0
H355 H 0.57542 0.45465 0.56384 0.0
H356 H 0.62432 0.37498 0.42153 0.0
H357 H 0.52632 0.45548 0.40864 0.0
C358 C 0.43588 0.54856 0.47123 0.0
C359 C 0.39304 0.59502 0.50747 0.0
C360 C 0.49328 0.50216 0.4786 0.0
C361 C 0.40832 0.59362 0.55108 0.0
C362 C 0.46491 0.5477 0.55858 0.0
C363 C 0.5652 0.45526 0.53004 0.0
C364 C 0.6078 0.40851 0.49384 0.0
C365 C 0.50804 0.50178 0.52266 0.0
C366 C 0.59268 0.40991 0.45021 0.0
C367 C 0.53637 0.45611 0.44269 0.0
H368 H 0.07759 0.04103 0.94096 0.0
H369 H 0.12022 0.12168 0.08396 0.0
H370 H 0.02371 0.03952 0.09553 0.0
H371 H 0.92572 0.94452 0.06556 0.0
H372 H 0.88167 0.86453 0.92274 0.0
H373 H 0.97954 0.94558 0.91092 0.0
C374 C 0.0663 0.04027 0.97461 0.0
C375 C 0.10672 0.08785 0.01141 0.0
C376 C 0.00982 0.99279 0.98127 0.0
C377 C 0.09026 0.08618 0.05483 0.0
C378 C 0.03481 0.03901 0.0616 0.0
C379 C 0.93706 0.94509 0.03187 0.0
C380 C 0.89582 0.89811 0.99521 0.0
C381 C 0.99378 0.99225 0.02515 0.0
C382 C 0.91237 0.89949 0.95175 0.0
C383 C 0.96852 0.9461 0.94486 0.0
H384 H 0.91998 0.04831 0.4408 0.0
H385 H 0.87406 0.12229 0.58348 0.0
H386 H 0.97225 0.04028 0.59418 0.0
H387 H 0.07376 0.94822 0.56357 0.0
H388 H 0.12013 0.87436 0.42095 0.0
H389 H 0.02033 0.95495 0.41002 0.0
C390 C 0.93068 0.04584 0.47413 0.0
C391 C 0.88915 0.09162 0.51116 0.0
C392 C 0.98836 -0.00125 0.4803 0.0
C393 C 0.90493 0.08803 0.55422 0.0
C394 C 0.96144 0.04111 0.56049 0.0
C395 C 0.06254 0.95018 0.53016 0.0
C396 C 0.10508 0.90522 0.49329 0.0
C397 C 1.00423 0.99663 0.5239 0.0
C398 C 0.0886 0.90805 0.45012 0.0
C399 C 0.03122 0.95424 0.44372 0.0
H400 H 0.50502 0.13628 0.21768 0.0
H401 H 0.65849 0.30887 0.21993 0.0
H402 H 0.58215 0.32883 0.15981 0.0
H403 H 0.47512 0.29521 0.10397 0.0
H404 H 0.31836 0.12523 0.10108 0.0
H405 H 0.39109 0.10701 0.16396 0.0
C406 C 0.52099 0.17883 0.20542 0.0
C407 C 0.58847 0.22034 0.2232 0.0
C408 C 0.47636 0.19028 0.17032 0.0
C409 C 0.60807 0.27513 0.20655 0.0
C410 C 0.56422 0.28682 0.17212 0.0
C411 C 0.45712 0.2541 0.11713 0.0
C412 C 0.39299 0.21034 0.09721 0.0
C413 C 0.49912 0.24415 0.15321 0.0
C414 C 0.3688 0.15846 0.11525 0.0
C415 C 0.41023 0.14831 0.15134 0.0
H416 H 0.50524 0.85022 0.28441 0.0
H417 H 0.67164 0.68918 0.28855 0.0
H418 H 0.59409 0.66591 0.34715 0.0
H419 H 0.48132 0.69369 0.3998 0.0
H420 H 0.31406 0.85383 0.39661 0.0
H421 H 0.38806 0.87425 0.33509 0.0
C422 C 0.52387 0.80939 0.29769 0.0
C423 C 0.59496 0.77208 0.28214 0.0
C424 C 0.47877 0.79623 0.33189 0.0
C425 C 0.61814 0.71965 0.30019 0.0
C426 C 0.57361 0.70603 0.33372 0.0
C427 C 0.4614 0.73309 0.38557 0.0
C428 C 0.39366 0.77349 0.4033 0.0
C429 C 0.50447 0.74458 0.35034 0.0
C430 C 0.36715 0.82323 0.38403 0.0
C431 C 0.40931 0.83467 0.34875 0.0
H432 H 0.65632 0.83011 0.88819 0.0
H433 H 0.50682 0.68372 0.92379 0.0
H434 H 0.4123 0.68442 0.86497 0.0
H435 H 0.3728 0.72566 0.80309 0.0
H436 H 0.51857 0.8769 0.7692 0.0
H437 H 0.61414 0.87444 0.8269 0.0
C438 C 0.60235 0.79928 0.88332 0.0
C439 C 0.58696 0.75871 0.91116 0.0
C440 C 0.54814 0.80013 0.84933 0.0
C441 C 0.51848 0.71699 0.90364 0.0
C442 C 0.46483 0.71702 0.8698 0.0
C443 C 0.42484 0.75894 0.80848 0.0
C444 C 0.43772 0.80143 0.78133 0.0
C445 C 0.47892 0.75846 0.84245 0.0
C446 C 0.50704 0.84268 0.78869 0.0
C447 C 0.56165 0.84181 0.82209 0.0
H448 H 0.54666 0.29364 0.62409 0.0
H449 H 0.71022 0.11875 0.5831 0.0
H450 H 0.65974 0.07557 0.6417 0.0
H451 H 0.55918 0.07973 0.69876 0.0
H452 H 0.39368 0.25282 0.74041 0.0
H453 H 0.45424 0.30455 0.68781 0.0
C454 C 0.57169 0.24666 0.62853 0.0
C455 C 0.63117 0.20868 0.59887 0.0
C456 C 0.54131 0.22138 0.66211 0.0
C457 C 0.66379 0.14828 0.60516 0.0
C458 C 0.63495 0.1236 0.6387 0.0
C459 C 0.53747 0.1296 0.69698 0.0
C460 C 0.47202 0.16244 0.72351 0.0
C461 C 0.57215 0.15845 0.66644 0.0
C462 C 0.44444 0.22692 0.72077 0.0
C463 C 0.47867 0.25609 0.69034 0.0
H464 H 0.98683 0.79345 0.10029 0.0
H465 H 0.81228 0.64165 0.10707 0.0
H466 H 0.88552 0.62044 0.16875 0.0
H467 H 1.00414 0.64096 0.21829 0.0
H468 H 0.17774 0.79369 0.21044 0.0
H469 H 0.10109 0.81788 0.15176 0.0
C470 C 0.96522 0.75562 0.11531 0.0
C471 C 0.89557 0.71787 0.09865 0.0
C472 C 0.00791 0.74351 0.15048 0.0
C473 C 0.86681 0.67016 0.11888 0.0
C474 C 0.90855 0.65829 0.15422 0.0
C475 C 0.02461 0.68017 0.20416 0.0
C476 C 0.09742 0.71478 0.21867 0.0
C477 C 0.97994 0.69396 0.16998 0.0
C478 C 0.12292 0.76518 0.19956 0.0
C479 C 0.07888 0.77939 0.16602 0.0
H480 H 0.8497 0.33897 0.39081 0.0
H481 H 0.99303 0.18904 0.42733 0.0
H482 H 0.09029 0.18828 0.36963 0.0
H483 H 0.13445 0.22986 0.30878 0.0
H484 H 0.99511 0.38494 0.27429 0.0
H485 H 0.89632 0.38322 0.33041 0.0
C486 C 0.90286 0.30693 0.38633 0.0
C487 C 0.9158 0.26588 0.41417 0.0
C488 C 0.95876 0.30701 0.35303 0.0
C489 C 0.98328 0.22268 0.40718 0.0
C490 C 0.03852 0.22189 0.37398 0.0
C491 C 0.08309 0.26407 0.31367 0.0
C492 C 0.07306 0.30749 0.28685 0.0
C493 C 0.02706 0.26399 0.34677 0.0
C494 C 1.00455 0.35 0.29355 0.0
C495 C 0.94803 0.34953 0.32604 0.0
H496 H 0.05917 0.41312 0.80607 0.0
H497 H 0.89387 0.24037 0.76824 0.0
H498 H 0.95713 0.19047 0.82113 0.0
H499 H 0.05162 0.20324 0.88416 0.0
H500 H 0.21503 0.3777 0.92151 0.0
H501 H 0.16232 0.41858 0.86223 0.0
C502 C 0.03824 0.36362 0.80867 0.0
C503 C 0.97202 0.33035 0.78318 0.0
C504 C 0.07449 0.33581 0.83937 0.0
C505 C 0.94524 0.26649 0.78705 0.0
C506 C 0.981 0.23839 0.81765 0.0
C507 C 0.07607 0.24966 0.87881 0.0
C508 C 0.13608 0.28828 0.90766 0.0
C509 C 0.04437 0.27362 0.84492 0.0
C510 C 0.16808 0.34783 0.90015 0.0
C511 C 0.13802 0.37113 0.86619 0.0
H512 H 0.153 0.66065 0.6122 0.0
H513 H 0.00791 0.81539 0.58181 0.0
H514 H 0.91374 0.81387 0.6405 0.0
H515 H 0.87346 0.76973 0.70095 0.0
H516 H 0.01574 0.61182 0.73048 0.0
H517 H 0.11048 0.61415 0.6724 0.0
C518 C 0.1001 0.69323 0.61822 0.0
C519 C 0.0859 0.73657 0.59196 0.0
C520 C 0.04629 0.69217 0.65228 0.0
C521 C 0.01877 0.78031 0.60087 0.0
C522 C 0.96527 0.77972 0.6346 0.0
C523 C 0.92463 0.7351 0.69454 0.0
C524 C 0.9368 0.69062 0.72048 0.0
C525 C 0.97837 0.73586 0.66054 0.0
C526 C 1.00488 0.64747 0.71185 0.0
C527 C 0.05898 0.64834 0.67827 0.0
loop_
_geom_bond_atom_site_label_1
_geom_bond_atom_site_label_2
_geom_bond_distance
_geom_bond_site_symmetry_2
_ccdc_geom_bond_type
C0 C2 1.422 1_455 S
C0 C4 1.415 . S
C0 N6 1.369 . S
C1 C2 1.421 . S
C1 C3 1.417 . S
C1 C13 1.422 1_554 S
C2 C0 1.422 1_655 S
C2 C1 1.421 . S
C2 N12 1.359 1_655 S
C3 C1 1.417 . S
C3 C5 1.329 . S
C3 H22 0.930 1_554 S
C4 C0 1.415 . S
C4 C5 1.437 1_455 S
C4 C8 1.413 . S
C5 C3 1.329 . S
C5 C4 1.437 1_655 S
C5 H27 0.929 . S
N6 C0 1.369 . S
N6 C7 1.338 . S
N6 Gd11 2.622 . S
C7 N6 1.338 . S
C7 C9 1.378 . S
C7 H19 0.929 . S
C8 C4 1.413 . S
C8 C9 1.348 . S
C8 H24 0.931 . S
C9 C7 1.378 . S
C9 C8 1.348 . S
C9 H25 0.930 . S
Gd10 N30 2.622 . S
Gd10 N37 2.570 . S
Gd10 O44 2.353 . S
Gd10 O45 2.468 . S
Gd10 O46 2.427 . S
Gd10 O48 2.388 . S
Gd10 O49 2.386 1_556 S
Gd10 O53 2.307 . S
Gd10 C63 2.805 . S
Gd11 N6 2.622 . S
Gd11 N12 2.570 . S
Gd11 O43 2.386 1_554 S
Gd11 O47 2.307 . S
Gd11 O50 2.353 . S
Gd11 O51 2.468 . S
Gd11 O52 2.427 . S
Gd11 O54 2.388 . S
Gd11 C75 2.805 . S
N12 C2 1.359 1_455 S
N12 Gd11 2.570 . S
N12 C14 1.343 1_455 S
C13 C1 1.422 1_556 S
C13 C15 1.311 1_556 S
C13 H21 0.931 . S
C14 N12 1.343 1_655 S
C14 C15 1.400 . S
C14 H16 0.931 . S
C15 C13 1.311 1_554 S
C15 C14 1.400 . S
C15 H17 0.932 1_554 S
H16 C14 0.931 . S
H17 C15 0.932 1_556 S
H18 C41 0.931 . S
H19 C7 0.929 . S
H20 C42 0.931 1_554 S
H21 C13 0.931 . S
H22 C3 0.930 1_556 S
H23 C32 0.929 . S
H24 C8 0.931 . S
H25 C9 0.930 . S
H26 C64 0.930 1_554 S
H27 C5 0.929 . S
H28 C33 0.931 . S
H29 C34 0.930 . S
N30 Gd10 2.622 . S
N30 C31 1.369 . S
N30 C32 1.338 1_545 S
C31 N30 1.369 . S
C31 C35 1.415 1_545 S
C31 C38 1.422 . S
C32 H23 0.929 . S
C32 N30 1.338 1_565 S
C32 C34 1.378 . S
C33 H28 0.931 . S
C33 C34 1.348 . S
C33 C35 1.413 . S
C34 H29 0.930 . S
C34 C32 1.378 . S
C34 C33 1.348 . S
C35 C31 1.415 1_565 S
C35 C33 1.413 . S
C35 C65 1.437 . S
H36 C65 0.929 . S
N37 Gd10 2.570 . S
N37 C38 1.359 . S
N37 C41 1.343 . S
C38 C31 1.422 . S
C38 N37 1.359 . S
C38 C40 1.421 . S
C39 C40 1.422 1_554 S
C39 C42 1.313 1_554 S
C39 H66 0.931 . S
C40 C38 1.421 . S
C40 C39 1.422 1_556 S
C40 C64 1.417 . S
C41 H18 0.931 . S
C41 N37 1.343 . S
C41 C42 1.397 . S
C42 H20 0.931 1_556 S
C42 C39 1.313 1_556 S
C42 C41 1.397 . S
O43 Gd11 2.386 1_556 S
O43 C55 1.265 . S
O44 Gd10 2.353 . S
O44 C55 1.242 . S
O45 Gd10 2.468 . S
O45 C63 1.263 . S
O46 Gd10 2.427 . S
O46 C63 1.252 . S
O47 Gd11 2.307 . S
O47 C56 1.261 1_554 S
O48 Gd10 2.388 . S
O48 C56 1.252 . S
O49 Gd10 2.386 1_554 S
O49 C67 1.265 . S
O50 Gd11 2.353 . S
O50 C67 1.242 . S
O51 Gd11 2.468 . S
O51 C75 1.263 . S
O52 Gd11 2.427 . S
O52 C75 1.252 . S
O53 Gd10 2.307 . S
O53 C68 1.261 1_556 S
O54 Gd11 2.388 . S
O54 C68 1.252 . S
C55 O43 1.265 . S
C55 O44 1.242 . S
C56 O47 1.261 1_556 S
C56 O48 1.252 . S
C57 C60 1.394 . S
C57 C62 1.370 . S
C57 C63 1.500 . S
C58 C61 1.383 . S
C58 C62 1.395 . S
C59 C60 1.396 . S
C59 C61 1.365 . S
C59 H76 0.929 . S
C60 C57 1.394 . S
C60 C59 1.396 . S
C60 H77 0.930 . S
C61 C58 1.383 . S
C61 C59 1.365 . S
C61 H78 0.931 . S
C62 C57 1.370 . S
C62 C58 1.395 . S
C62 H79 0.930 . S
C63 Gd10 2.805 . S
C63 O45 1.263 . S
C63 O46 1.252 . S
C63 C57 1.500 . S
C64 H26 0.930 1_556 S
C64 C40 1.417 . S
C64 C65 1.329 1_545 S
C65 C35 1.437 . S
C65 H36 0.929 . S
C65 C64 1.329 1_565 S
H66 C39 0.931 . S
C67 O49 1.265 . S
C67 O50 1.242 . S
C68 O53 1.261 1_554 S
C68 O54 1.252 . S
C69 C72 1.394 . S
C69 C74 1.370 . S
C69 C75 1.500 . S
C70 C73 1.383 . S
C70 C74 1.395 . S
C71 C72 1.396 . S
C71 C73 1.365 . S
C71 H80 0.929 . S
C72 C69 1.394 . S
C72 C71 1.396 . S
C72 H81 0.930 . S
C73 C70 1.383 . S
C73 C71 1.365 . S
C73 H82 0.925 1_455 S
C74 C69 1.370 . S
C74 C70 1.395 . S
C74 H83 0.930 . S
C75 Gd11 2.805 . S
C75 O51 1.263 . S
C75 O52 1.252 . S
C75 C69 1.500 . S
H76 C59 0.929 . S
H77 C60 0.930 . S
H78 C61 0.931 . S
H79 C62 0.930 . S
H80 C71 0.929 . S
H81 C72 0.930 . S
H82 C73 0.925 1_655 S
H83 C74 0.930 . S
C84 C86 1.422 . S
C84 C88 1.415 1_565 S
C84 N90 1.369 . S
C85 C86 1.421 . S
C85 C87 1.417 . S
C85 C97 1.422 1_554 S
C86 C84 1.422 . S
C86 C85 1.421 . S
C86 N96 1.359 . S
C87 C85 1.417 . S
C87 C89 1.329 1_565 S
C87 H106 0.930 1_554 S
C88 C84 1.415 1_545 S
C88 C89 1.437 . S
C88 C92 1.413 . S
C89 C87 1.329 1_545 S
C89 C88 1.437 . S
C89 H111 0.929 . S
N90 C84 1.369 . S
N90 C91 1.338 1_565 S
N90 Gd95 2.622 . S
C91 N90 1.338 1_545 S
C91 C93 1.378 . S
C91 H103 0.929 . S
C92 C88 1.413 . S
C92 C93 1.348 . S
C92 H108 0.931 . S
C93 C91 1.378 . S
C93 C92 1.348 . S
C93 H109 0.930 . S
Gd94 N114 2.622 . S
Gd94 N121 2.570 . S
Gd94 O128 2.353 . S
Gd94 O129 2.468 . S
Gd94 O130 2.427 . S
Gd94 O132 2.388 . S
Gd94 O133 2.386 1_556 S
Gd94 O137 2.307 . S
Gd94 C147 2.805 . S
Gd95 N90 2.622 . S
Gd95 N96 2.570 . S
Gd95 O127 2.386 1_554 S
Gd95 O131 2.307 . S
Gd95 O134 2.353 . S
Gd95 O135 2.468 . S
Gd95 O136 2.427 . S
Gd95 O138 2.388 . S
Gd95 C159 2.805 . S
N96 C86 1.359 . S
N96 Gd95 2.570 . S
N96 C98 1.343 . S
C97 C85 1.422 1_556 S
C97 C99 1.311 1_556 S
C97 H105 0.931 . S
C98 N96 1.343 . S
C98 C99 1.400 . S
C98 H100 0.931 . S
C99 C97 1.311 1_554 S
C99 C98 1.400 . S
C99 H101 0.932 1_554 S
H100 C98 0.931 . S
H101 C99 0.932 1_556 S
H102 C125 0.931 . S
H103 C91 0.929 . S
H104 C126 0.931 1_554 S
H105 C97 0.931 . S
H106 C87 0.930 1_556 S
H107 C116 0.929 . S
H108 C92 0.931 . S
H109 C93 0.930 . S
H110 C148 0.930 1_554 S
H111 C89 0.929 . S
H112 C117 0.931 . S
H113 C118 0.930 . S
N114 Gd94 2.622 . S
N114 C115 1.369 . S
N114 C116 1.338 . S
C115 N114 1.369 . S
C115 C119 1.415 . S
C115 C122 1.422 1_655 S
C116 H107 0.929 . S
C116 N114 1.338 . S
C116 C118 1.378 . S
C117 H112 0.931 . S
C117 C118 1.348 . S
C117 C119 1.413 . S
C118 H113 0.930 . S
C118 C116 1.378 . S
C118 C117 1.348 . S
C119 C115 1.415 . S
C119 C117 1.413 . S
C119 C149 1.437 1_655 S
H120 C149 0.929 . S
N121 Gd94 2.570 . S
N121 C122 1.359 1_655 S
N121 C125 1.343 1_655 S
C122 C115 1.422 1_455 S
C122 N121 1.359 1_455 S
C122 C124 1.421 . S
C123 C124 1.422 1_554 S
C123 C126 1.313 1_554 S
C123 H150 0.931 . S
C124 C122 1.421 . S
C124 C123 1.422 1_556 S
C124 C148 1.417 . S
C125 H102 0.931 . S
C125 N121 1.343 1_455 S
C125 C126 1.397 . S
C126 H104 0.931 1_556 S
C126 C123 1.313 1_556 S
C126 C125 1.397 . S
O127 Gd95 2.386 1_556 S
O127 C139 1.265 . S
O128 Gd94 2.353 . S
O128 C139 1.242 . S
O129 Gd94 2.468 . S
O129 C147 1.263 . S
O130 Gd94 2.427 . S
O130 C147 1.252 . S
O131 Gd95 2.307 . S
O131 C140 1.261 1_554 S
O132 Gd94 2.388 . S
O132 C140 1.252 . S
O133 Gd94 2.386 1_554 S
O133 C151 1.265 . S
O134 Gd95 2.353 . S
O134 C151 1.242 . S
O135 Gd95 2.468 . S
O135 C159 1.263 . S
O136 Gd95 2.427 . S
O136 C159 1.252 . S
O137 Gd94 2.307 . S
O137 C152 1.261 1_556 S
O138 Gd95 2.388 . S
O138 C152 1.252 . S
C139 O127 1.265 . S
C139 O128 1.242 . S
C140 O131 1.261 1_556 S
C140 O132 1.252 . S
C141 C144 1.394 . S
C141 C146 1.370 . S
C141 C147 1.500 . S
C142 C145 1.383 . S
C142 C146 1.395 . S
C143 C144 1.396 . S
C143 C145 1.365 . S
C143 H160 0.929 . S
C144 C141 1.394 . S
C144 C143 1.396 . S
C144 H161 0.930 . S
C145 C142 1.383 . S
C145 C143 1.365 . S
C145 H162 0.925 1_655 S
C146 C141 1.370 . S
C146 C142 1.395 . S
C146 H163 0.930 . S
C147 Gd94 2.805 . S
C147 O129 1.263 . S
C147 O130 1.252 . S
C147 C141 1.500 . S
C148 H110 0.930 1_556 S
C148 C124 1.417 . S
C148 C149 1.329 . S
C149 C119 1.437 1_455 S
C149 H120 0.929 . S
C149 C148 1.329 . S
H150 C123 0.931 . S
C151 O133 1.265 . S
C151 O134 1.242 . S
C152 O137 1.261 1_554 S
C152 O138 1.252 . S
C153 C156 1.394 . S
C153 C158 1.370 . S
C153 C159 1.500 . S
C154 C157 1.383 . S
C154 C158 1.395 . S
C155 C156 1.396 . S
C155 C157 1.365 . S
C155 H164 0.929 . S
C156 C153 1.394 . S
C156 C155 1.396 . S
C156 H165 0.930 . S
C157 C154 1.383 . S
C157 C155 1.365 . S
C157 H166 0.931 . S
C158 C153 1.370 . S
C158 C154 1.395 . S
C158 H167 0.930 . S
C159 Gd95 2.805 . S
C159 O135 1.263 . S
C159 O136 1.252 . S
C159 C153 1.500 . S
H160 C143 0.929 . S
H161 C144 0.930 . S
H162 C145 0.925 1_455 S
H163 C146 0.930 . S
H164 C155 0.929 . S
H165 C156 0.930 . S
H166 C157 0.931 . S
H167 C158 0.930 . S
C168 C170 1.422 1_455 S
C168 C172 1.415 . S
C168 N174 1.369 . S
C169 C170 1.421 . S
C169 C171 1.417 . S
C169 C181 1.422 . S
C170 C168 1.422 1_655 S
C170 C169 1.421 . S
C170 N180 1.359 1_655 S
C171 C169 1.417 . S
C171 C173 1.329 . S
C171 H190 0.930 . S
C172 C168 1.415 . S
C172 C173 1.437 1_455 S
C172 C176 1.413 . S
C173 C171 1.329 . S
C173 C172 1.437 1_655 S
C173 H195 0.929 . S
N174 C168 1.369 . S
N174 C175 1.338 . S
N174 Gd179 2.622 . S
C175 N174 1.338 . S
C175 C177 1.378 . S
C175 H187 0.929 . S
C176 C172 1.413 . S
C176 C177 1.348 . S
C176 H192 0.931 . S
C177 C175 1.378 . S
C177 C176 1.348 . S
C177 H193 0.930 . S
Gd178 N198 2.622 . S
Gd178 N205 2.570 . S
Gd178 O212 2.353 . S
Gd178 O213 2.468 . S
Gd178 O214 2.427 . S
Gd178 O216 2.388 . S
Gd178 O217 2.386 . S
Gd178 O221 2.307 . S
Gd178 C231 2.805 . S
Gd179 N174 2.622 . S
Gd179 N180 2.570 . S
Gd179 O211 2.386 . S
Gd179 O215 2.307 . S
Gd179 O218 2.353 . S
Gd179 O219 2.468 . S
Gd179 O220 2.427 . S
Gd179 O222 2.388 . S
Gd179 C243 2.805 . S
N180 C170 1.359 1_455 S
N180 Gd179 2.570 . S
N180 C182 1.343 1_455 S
C181 C169 1.422 . S
C181 C183 1.321 . S
C181 H189 0.931 . S
C182 N180 1.343 1_655 S
C182 C183 1.390 . S
C182 H184 0.931 . S
C183 C181 1.321 . S
C183 C182 1.390 . S
C183 H185 0.930 . S
H184 C182 0.931 . S
H185 C183 0.930 . S
H186 C209 0.931 . S
H187 C175 0.929 . S
H188 C210 0.930 . S
H189 C181 0.931 . S
H190 C171 0.930 . S
H191 C200 0.929 . S
H192 C176 0.931 . S
H193 C177 0.930 . S
H194 C232 0.930 . S
H195 C173 0.929 . S
H196 C201 0.931 . S
H197 C202 0.930 . S
N198 Gd178 2.622 . S
N198 C199 1.369 . S
N198 C200 1.338 1_565 S
C199 N198 1.369 . S
C199 C203 1.415 1_565 S
C199 C206 1.422 . S
C200 H191 0.929 . S
C200 N198 1.338 1_545 S
C200 C202 1.378 . S
C201 H196 0.931 . S
C201 C202 1.348 . S
C201 C203 1.413 . S
C202 H197 0.930 . S
C202 C200 1.378 . S
C202 C201 1.348 . S
C203 C199 1.415 1_545 S
C203 C201 1.413 . S
C203 C233 1.437 . S
H204 C233 0.929 . S
N205 Gd178 2.570 . S
N205 C206 1.359 . S
N205 C209 1.343 . S
C206 C199 1.422 . S
C206 N205 1.359 . S
C206 C208 1.421 . S
C207 C208 1.422 . S
C207 C210 1.321 . S
C207 H234 0.931 . S
C208 C206 1.421 . S
C208 C207 1.422 . S
C208 C232 1.417 . S
C209 H186 0.931 . S
C209 N205 1.343 . S
C209 C210 1.390 . S
C210 H188 0.930 . S
C210 C207 1.321 . S
C210 C209 1.390 . S
O211 Gd179 2.386 . S
O211 C223 1.265 . S
O212 Gd178 2.353 . S
O212 C223 1.242 . S
O213 Gd178 2.468 . S
O213 C231 1.263 . S
O214 Gd178 2.427 . S
O214 C231 1.252 . S
O215 Gd179 2.307 . S
O215 C224 1.261 . S
O216 Gd178 2.388 . S
O216 C224 1.252 . S
O217 Gd178 2.386 . S
O217 C235 1.265 . S
O218 Gd179 2.353 . S
O218 C235 1.242 . S
O219 Gd179 2.468 . S
O219 C243 1.263 . S
O220 Gd179 2.427 . S
O220 C243 1.252 . S
O221 Gd178 2.307 . S
O221 C236 1.261 . S
O222 Gd179 2.388 . S
O222 C236 1.252 . S
C223 O211 1.265 . S
C223 O212 1.242 . S
C224 O215 1.261 . S
C224 O216 1.252 . S
C225 C228 1.394 . S
C225 C230 1.370 . S
C225 C231 1.500 . S
C226 C229 1.383 . S
C226 C230 1.395 . S
C227 C228 1.396 . S
C227 C229 1.365 . S
C227 H244 0.929 . S
C228 C225 1.394 . S
C228 C227 1.396 . S
C228 H245 0.930 . S
C229 C226 1.383 . S
C229 C227 1.365 . S
C229 H246 0.931 . S
C230 C225 1.370 . S
C230 C226 1.395 . S
C230 H247 0.930 . S
C231 Gd178 2.805 . S
C231 O213 1.263 . S
C231 O214 1.252 . S
C231 C225 1.500 . S
C232 H194 0.930 . S
C232 C208 1.417 . S
C232 C233 1.329 1_565 S
C233 C203 1.437 . S
C233 H204 0.929 . S
C233 C232 1.329 1_545 S
H234 C207 0.931 . S
C235 O217 1.265 . S
C235 O218 1.242 . S
C236 O221 1.261 . S
C236 O222 1.252 . S
C237 C240 1.394 . S
C237 C242 1.370 . S
C237 C243 1.500 . S
C238 C241 1.383 . S
C238 C242 1.395 . S
C239 C240 1.396 . S
C239 C241 1.365 . S
C239 H248 0.929 . S
C240 C237 1.394 . S
C240 C239 1.396 . S
C240 H249 0.930 . S
C241 C238 1.383 . S
C241 C239 1.365 . S
C241 H250 0.925 1_455 S
C242 C237 1.370 . S
C242 C238 1.395 . S
C242 H251 0.930 . S
C243 Gd179 2.805 . S
C243 O219 1.263 . S
C243 O220 1.252 . S
C243 C237 1.500 . S
H244 C227 0.929 . S
H245 C228 0.930 . S
H246 C229 0.931 . S
H247 C230 0.930 . S
H248 C239 0.929 . S
H249 C240 0.930 . S
H250 C241 0.925 1_655 S
H251 C242 0.930 . S
C252 C254 1.422 . S
C252 C256 1.415 1_545 S
C252 N258 1.369 . S
C253 C254 1.421 . S
C253 C255 1.417 . S
C253 C265 1.422 . S
C254 C252 1.422 . S
C254 C253 1.421 . S
C254 N264 1.359 . S
C255 C253 1.417 . S
C255 C257 1.329 1_545 S
C255 H274 0.930 . S
C256 C252 1.415 1_565 S
C256 C257 1.437 . S
C256 C260 1.413 . S
C257 C255 1.329 1_565 S
C257 C256 1.437 . S
C257 H279 0.929 . S
N258 C252 1.369 . S
N258 C259 1.338 1_545 S
N258 Gd263 2.622 . S
C259 N258 1.338 1_565 S
C259 C261 1.378 . S
C259 H271 0.929 . S
C260 C256 1.413 . S
C260 C261 1.348 . S
C260 H276 0.931 . S
C261 C259 1.378 . S
C261 C260 1.348 . S
C261 H277 0.930 . S
Gd262 N282 2.622 . S
Gd262 N289 2.570 . S
Gd262 O296 2.353 . S
Gd262 O297 2.468 . S
Gd262 O298 2.427 . S
Gd262 O300 2.388 . S
Gd262 O301 2.386 . S
Gd262 O305 2.307 . S
Gd262 C315 2.805 . S
Gd263 N258 2.622 . S
Gd263 N264 2.570 . S
Gd263 O295 2.386 . S
Gd263 O299 2.307 . S
Gd263 O302 2.353 . S
Gd263 O303 2.468 . S
Gd263 O304 2.427 . S
Gd263 O306 2.388 . S
Gd263 C327 2.805 . S
N264 C254 1.359 . S
N264 Gd263 2.570 . S
N264 C266 1.343 . S
C265 C253 1.422 . S
C265 C267 1.321 . S
C265 H273 0.931 . S
C266 N264 1.343 . S
C266 C267 1.390 . S
C266 H268 0.931 . S
C267 C265 1.321 . S
C267 C266 1.390 . S
C267 H269 0.930 . S
H268 C266 0.931 . S
H269 C267 0.930 . S
H270 C293 0.931 . S
H271 C259 0.929 . S
H272 C294 0.930 . S
H273 C265 0.931 . S
H274 C255 0.930 . S
H275 C284 0.929 . S
H276 C260 0.931 . S
H277 C261 0.930 . S
H278 C316 0.930 . S
H279 C257 0.929 . S
H280 C285 0.931 . S
H281 C286 0.930 . S
N282 Gd262 2.622 . S
N282 C283 1.369 . S
N282 C284 1.338 . S
C283 N282 1.369 . S
C283 C287 1.415 . S
C283 C290 1.422 1_655 S
C284 H275 0.929 . S
C284 N282 1.338 . S
C284 C286 1.378 . S
C285 H280 0.931 . S
C285 C286 1.348 . S
C285 C287 1.413 . S
C286 H281 0.930 . S
C286 C284 1.378 . S
C286 C285 1.348 . S
C287 C283 1.415 . S
C287 C285 1.413 . S
C287 C317 1.437 1_655 S
H288 C317 0.929 . S
N289 Gd262 2.570 . S
N289 C290 1.359 1_655 S
N289 C293 1.343 1_655 S
C290 C283 1.422 1_455 S
C290 N289 1.359 1_455 S
C290 C292 1.421 . S
C291 C292 1.422 . S
C291 C294 1.321 . S
C291 H318 0.931 . S
C292 C290 1.421 . S
C292 C291 1.422 . S
C292 C316 1.417 . S
C293 H270 0.931 . S
C293 N289 1.343 1_455 S
C293 C294 1.390 . S
C294 H272 0.930 . S
C294 C291 1.321 . S
C294 C293 1.390 . S
O295 Gd263 2.386 . S
O295 C307 1.265 . S
O296 Gd262 2.353 . S
O296 C307 1.242 . S
O297 Gd262 2.468 . S
O297 C315 1.263 . S
O298 Gd262 2.427 . S
O298 C315 1.252 . S
O299 Gd263 2.307 . S
O299 C308 1.261 . S
O300 Gd262 2.388 . S
O300 C308 1.252 . S
O301 Gd262 2.386 . S
O301 C319 1.265 . S
O302 Gd263 2.353 . S
O302 C319 1.242 . S
O303 Gd263 2.468 . S
O303 C327 1.263 . S
O304 Gd263 2.427 . S
O304 C327 1.252 . S
O305 Gd262 2.307 . S
O305 C320 1.261 . S
O306 Gd263 2.388 . S
O306 C320 1.252 . S
C307 O295 1.265 . S
C307 O296 1.242 . S
C308 O299 1.261 . S
C308 O300 1.252 . S
C309 C312 1.394 . S
C309 C314 1.370 . S
C309 C315 1.500 . S
C310 C313 1.383 . S
C310 C314 1.395 . S
C311 C312 1.396 . S
C311 C313 1.365 . S
C311 H328 0.929 . S
C312 C309 1.394 . S
C312 C311 1.396 . S
C312 H329 0.930 . S
C313 C310 1.383 . S
C313 C311 1.365 . S
C313 H330 0.925 1_655 S
C314 C309 1.370 . S
C314 C310 1.395 . S
C314 H331 0.930 . S
C315 Gd262 2.805 . S
C315 O297 1.263 . S
C315 O298 1.252 . S
C315 C309 1.500 . S
C316 H278 0.930 . S
C316 C292 1.417 . S
C316 C317 1.329 . S
C317 C287 1.437 1_455 S
C317 H288 0.929 . S
C317 C316 1.329 . S
H318 C291 0.931 . S
C319 O301 1.265 . S
C319 O302 1.242 . S
C320 O305 1.261 . S
C320 O306 1.252 . S
C321 C324 1.394 . S
C321 C326 1.370 . S
C321 C327 1.500 . S
C322 C325 1.383 . S
C322 C326 1.395 . S
C323 C324 1.396 . S
C323 C325 1.365 . S
C323 H332 0.929 . S
C324 C321 1.394 . S
C324 C323 1.396 . S
C324 H333 0.930 . S
C325 C322 1.383 . S
C325 C323 1.365 . S
C325 H334 0.931 . S
C326 C321 1.370 . S
C326 C322 1.395 . S
C326 H335 0.930 . S
C327 Gd263 2.805 . S
C327 O303 1.263 . S
C327 O304 1.252 . S
C327 C321 1.500 . S
H328 C311 0.929 . S
H329 C312 0.930 . S
H330 C313 0.925 1_455 S
H331 C314 0.930 . S
H332 C323 0.929 . S
H333 C324 0.930 . S
H334 C325 0.931 . S
H335 C326 0.930 . S
H336 C342 0.930 . S
H337 C345 0.930 . S
H338 C346 0.930 . S
H339 C347 0.930 . S
H340 C350 0.930 . S
H341 C351 0.930 . S
C342 H336 0.930 . S
C342 C343 1.355 1_556 S
C342 C344 1.415 . S
C343 C342 1.355 1_554 S
C343 C345 1.419 . S
C344 C342 1.415 . S
C344 C349 1.425 1_556 S
C344 C351 1.409 . S
C345 H337 0.930 . S
C345 C343 1.419 . S
C345 C346 1.362 . S
C346 H338 0.930 . S
C346 C345 1.362 . S
C346 C349 1.409 . S
C347 H339 0.930 . S
C347 C348 1.355 1_554 S
C347 C349 1.415 . S
C348 C347 1.355 1_556 S
C348 C350 1.419 . S
C349 C344 1.425 1_554 S
C349 C346 1.409 . S
C349 C347 1.415 . S
C350 H340 0.930 . S
C350 C348 1.419 . S
C350 C351 1.362 . S
C351 H341 0.930 . S
C351 C344 1.409 . S
C351 C350 1.362 . S
H352 C358 0.930 . S
H353 C361 0.930 . S
H354 C362 0.930 . S
H355 C363 0.930 . S
H356 C366 0.930 . S
H357 C367 0.930 . S
C358 H352 0.930 . S
C358 C359 1.355 . S
C358 C360 1.415 . S
C359 C358 1.355 . S
C359 C361 1.419 . S
C360 C358 1.415 . S
C360 C365 1.425 . S
C360 C367 1.409 . S
C361 H353 0.930 . S
C361 C359 1.419 . S
C361 C362 1.362 . S
C362 H354 0.930 . S
C362 C361 1.362 . S
C362 C365 1.409 . S
C363 H355 0.930 . S
C363 C364 1.355 . S
C363 C365 1.415 . S
C364 C363 1.355 . S
C364 C366 1.419 . S
C365 C360 1.425 . S
C365 C362 1.409 . S
C365 C363 1.415 . S
C366 H356 0.930 . S
C366 C364 1.419 . S
C366 C367 1.362 . S
C367 H357 0.930 . S
C367 C360 1.409 . S
C367 C366 1.362 . S
H368 C374 0.930 . S
H369 C377 0.930 . S
H370 C378 0.930 . S
H371 C379 0.930 . S
H372 C382 0.930 . S
H373 C383 0.930 . S
C374 H368 0.930 . S
C374 C375 1.355 1_556 S
C374 C376 1.415 1_455 S
C375 C374 1.355 1_554 S
C375 C377 1.419 . S
C376 C374 1.415 1_655 S
C376 C381 1.425 1_646 S
C376 C383 1.409 . S
C377 H369 0.930 . S
C377 C375 1.419 . S
C377 C378 1.362 1_545 S
C378 H370 0.930 . S
C378 C377 1.362 1_565 S
C378 C381 1.409 . S
C379 H371 0.930 . S
C379 C380 1.355 1_554 S
C379 C381 1.415 1_655 S
C380 C379 1.355 1_556 S
C380 C382 1.419 . S
C381 C376 1.425 1_464 S
C381 C378 1.409 . S
C381 C379 1.415 1_455 S
C382 H372 0.930 . S
C382 C380 1.419 . S
C382 C383 1.362 1_565 S
C383 H373 0.930 . S
C383 C376 1.409 . S
C383 C382 1.362 1_545 S
H384 C390 0.930 1_565 S
H385 C393 0.930 . S
H386 C394 0.930 . S
H387 C395 0.930 1_545 S
H388 C398 0.930 . S
H389 C399 0.930 . S
C390 H384 0.930 1_545 S
C390 C391 1.355 . S
C390 C392 1.415 1_545 S
C391 C390 1.355 . S
C391 C393 1.419 . S
C392 C390 1.415 1_565 S
C392 C397 1.425 1_665 S
C392 C399 1.409 . S
C393 H385 0.930 . S
C393 C391 1.419 . S
C393 C394 1.362 1_655 S
C394 H386 0.930 . S
C394 C393 1.362 1_455 S
C394 C397 1.409 . S
C395 H387 0.930 1_565 S
C395 C396 1.355 . S
C395 C397 1.415 1_565 S
C396 C395 1.355 . S
C396 C398 1.419 . S
C397 C392 1.425 1_445 S
C397 C394 1.409 . S
C397 C395 1.415 1_545 S
C398 H388 0.930 . S
C398 C396 1.419 . S
C398 C399 1.362 1_455 S
C399 H389 0.930 . S
C399 C392 1.409 . S
C399 C398 1.362 1_655 S
H400 C406 0.930 . S
H401 C409 0.930 . S
H402 C410 0.930 . S
H403 C411 0.930 . S
H404 C414 0.930 . S
H405 C415 0.930 . S
C406 H400 0.930 . S
C406 C407 1.355 . S
C406 C408 1.415 . S
C407 C406 1.355 . S
C407 C409 1.419 . S
C408 C406 1.415 . S
C408 C413 1.425 . S
C408 C415 1.409 . S
C409 H401 0.930 . S
C409 C407 1.419 . S
C409 C410 1.362 . S
C410 H402 0.930 . S
C410 C409 1.362 . S
C410 C413 1.409 . S
C411 H403 0.930 . S
C411 C412 1.355 . S
C411 C413 1.415 . S
C412 C411 1.355 . S
C412 C414 1.419 . S
C413 C408 1.425 . S
C413 C410 1.409 . S
C413 C411 1.415 . S
C414 H404 0.930 . S
C414 C412 1.419 . S
C414 C415 1.362 . S
C415 H405 0.930 . S
C415 C408 1.409 . S
C415 C414 1.362 . S
H416 C422 0.930 . S
H417 C425 0.930 . S
H418 C426 0.930 . S
H419 C427 0.930 . S
H420 C430 0.930 . S
H421 C431 0.930 . S
C422 H416 0.930 . S
C422 C423 1.355 . S
C422 C424 1.415 . S
C423 C422 1.355 . S
C423 C425 1.419 . S
C424 C422 1.415 . S
C424 C429 1.425 . S
C424 C431 1.409 . S
C425 H417 0.930 . S
C425 C423 1.419 . S
C425 C426 1.362 . S
C426 H418 0.930 . S
C426 C425 1.362 . S
C426 C429 1.409 . S
C427 H419 0.930 . S
C427 C428 1.355 . S
C427 C429 1.415 . S
C428 C427 1.355 . S
C428 C430 1.419 . S
C429 C424 1.425 . S
C429 C426 1.409 . S
C429 C427 1.415 . S
C430 H420 0.930 . S
C430 C428 1.419 . S
C430 C431 1.362 . S
C431 H421 0.930 . S
C431 C424 1.409 . S
C431 C430 1.362 . S
H432 C438 0.930 . S
H433 C441 0.930 . S
H434 C442 0.930 . S
H435 C443 0.930 . S
H436 C446 0.930 . S
H437 C447 0.930 . S
C438 H432 0.930 . S
C438 C439 1.355 . S
C438 C440 1.415 . S
C439 C438 1.355 . S
C439 C441 1.419 . S
C440 C438 1.415 . S
C440 C445 1.425 . S
C440 C447 1.409 . S
C441 H433 0.930 . S
C441 C439 1.419 . S
C441 C442 1.362 . S
C442 H434 0.930 . S
C442 C441 1.362 . S
C442 C445 1.409 . S
C443 H435 0.930 . S
C443 C444 1.355 . S
C443 C445 1.415 . S
C444 C443 1.355 . S
C444 C446 1.419 . S
C445 C440 1.425 . S
C445 C442 1.409 . S
C445 C443 1.415 . S
C446 H436 0.930 . S
C446 C444 1.419 . S
C446 C447 1.362 . S
C447 H437 0.930 . S
C447 C440 1.409 . S
C447 C446 1.362 . S
H448 C454 0.930 . S
H449 C457 0.930 . S
H450 C458 0.930 . S
H451 C459 0.930 . S
H452 C462 0.930 . S
H453 C463 0.930 . S
C454 H448 0.930 . S
C454 C455 1.355 . S
C454 C456 1.415 . S
C455 C454 1.355 . S
C455 C457 1.419 . S
C456 C454 1.415 . S
C456 C461 1.425 . S
C456 C463 1.409 . S
C457 H449 0.930 . S
C457 C455 1.419 . S
C457 C458 1.362 . S
C458 H450 0.930 . S
C458 C457 1.362 . S
C458 C461 1.409 . S
C459 H451 0.930 . S
C459 C460 1.355 . S
C459 C461 1.415 . S
C460 C459 1.355 . S
C460 C462 1.419 . S
C461 C456 1.425 . S
C461 C458 1.409 . S
C461 C459 1.415 . S
C462 H452 0.930 . S
C462 C460 1.419 . S
C462 C463 1.362 . S
C463 H453 0.930 . S
C463 C456 1.409 . S
C463 C462 1.362 . S
H464 C470 0.930 . S
H465 C473 0.930 . S
H466 C474 0.930 . S
H467 C475 0.930 . S
H468 C478 0.930 . S
H469 C479 0.930 1_455 S
C470 H464 0.930 . S
C470 C471 1.355 . S
C470 C472 1.415 . S
C471 C470 1.355 . S
C471 C473 1.419 . S
C472 C470 1.415 . S
C472 C477 1.425 . S
C472 C479 1.409 . S
C473 H465 0.930 . S
C473 C471 1.419 . S
C473 C474 1.362 . S
C474 H466 0.930 . S
C474 C473 1.362 . S
C474 C477 1.409 . S
C475 H467 0.930 . S
C475 C476 1.355 . S
C475 C477 1.415 . S
C476 C475 1.355 . S
C476 C478 1.419 1_655 S
C477 C472 1.425 . S
C477 C474 1.409 . S
C477 C475 1.415 . S
C478 H468 0.930 . S
C478 C476 1.419 1_455 S
C478 C479 1.362 1_455 S
C479 H469 0.930 1_655 S
C479 C472 1.409 . S
C479 C478 1.362 1_655 S
H480 C486 0.930 . S
H481 C489 0.930 . S
H482 C490 0.930 1_455 S
H483 C491 0.930 . S
H484 C494 0.930 . S
H485 C495 0.930 . S
C486 H480 0.930 . S
C486 C487 1.355 . S
C486 C488 1.415 . S
C487 C486 1.355 . S
C487 C489 1.419 . S
C488 C486 1.415 . S
C488 C493 1.425 . S
C488 C495 1.409 . S
C489 H481 0.930 . S
C489 C487 1.419 . S
C489 C490 1.362 . S
C490 H482 0.930 1_655 S
C490 C489 1.362 . S
C490 C493 1.409 . S
C491 H483 0.930 . S
C491 C492 1.355 1_455 S
C491 C493 1.415 1_455 S
C492 C491 1.355 1_655 S
C492 C494 1.419 . S
C493 C488 1.425 . S
C493 C490 1.409 . S
C493 C491 1.415 1_655 S
C494 H484 0.930 . S
C494 C492 1.419 . S
C494 C495 1.362 . S
C495 H485 0.930 . S
C495 C488 1.409 . S
C495 C494 1.362 . S
H496 C502 0.930 . S
H497 C505 0.930 . S
H498 C506 0.930 . S
H499 C507 0.930 . S
H500 C510 0.930 . S
H501 C511 0.930 . S
C502 H496 0.930 . S
C502 C503 1.355 . S
C502 C504 1.415 . S
C503 C502 1.355 . S
C503 C505 1.419 1_455 S
C504 C502 1.415 . S
C504 C509 1.425 . S
C504 C511 1.409 . S
C505 H497 0.930 . S
C505 C503 1.419 1_655 S
C505 C506 1.362 . S
C506 H498 0.930 . S
C506 C505 1.362 . S
C506 C509 1.409 1_655 S
C507 H499 0.930 . S
C507 C508 1.355 . S
C507 C509 1.415 . S
C508 C507 1.355 . S
C508 C510 1.419 . S
C509 C504 1.425 . S
C509 C506 1.409 1_455 S
C509 C507 1.415 . S
C510 H500 0.930 . S
C510 C508 1.419 . S
C510 C511 1.362 . S
C511 H501 0.930 . S
C511 C504 1.409 . S
C511 C510 1.362 . S
H512 C518 0.930 . S
H513 C521 0.930 . S
H514 C522 0.930 1_655 S
H515 C523 0.930 1_655 S
H516 C526 0.930 . S
H517 C527 0.930 . S
C518 H512 0.930 . S
C518 C519 1.355 . S
C518 C520 1.415 . S
C519 C518 1.355 . S
C519 C521 1.419 . S
C520 C518 1.415 . S
C520 C525 1.425 . S
C520 C527 1.409 . S
C521 H513 0.930 . S
C521 C519 1.419 . S
C521 C522 1.362 . S
C522 H514 0.930 1_455 S
C522 C521 1.362 . S
C522 C525 1.409 . S
C523 H515 0.930 1_455 S
C523 C524 1.355 . S
C523 C525 1.415 . S
C524 C523 1.355 . S
C524 C526 1.419 . S
C525 C520 1.425 . S
C525 C522 1.409 . S
C525 C523 1.415 . S
C526 H516 0.930 . S
C526 C524 1.419 . S
C526 C527 1.362 . S
C527 H517 0.930 . S
C527 C520 1.409 . S
C527 C526 1.362 . S
C343 C140 1.536 1_554 S
C348 C68 1.536 1_556 S
C359 C236 1.524 . S
C364 C308 1.524 . S
C375 C56 1.536 1_554 S
C380 C152 1.536 1_556 S
C391 C320 1.514 . S
C396 C224 1.514 . S
C407 C322 1.257 . S
C412 C67 1.316 . S
C423 C154 1.241 . S
C428 C235 1.318 . S
C439 C139 1.357 . S
C444 C226 1.251 . S
C455 C307 1.317 . S
C460 C58 1.275 . S
C471 C151 1.323 . S
C476 C238 1.304 1_655 S
C487 C319 1.357 . S
C492 C70 1.253 1_655 S
C503 C310 1.270 1_455 S
C508 C55 1.319 . S
C519 C223 1.358 . S
C524 C142 1.265 1_455 S
