# Generated by pormake.
# Topology uoj, (4)-cn, num edge types: 1
# Building blocks:
#     Node 0, Type 0, BuildingBlock: ICAMEG_clean_sbu_1, # of connection points: 4
#     Node 1, Type 0, BuildingBlock: ICAMEG_clean_sbu_1, # of connection points: 4
#     Node 2, Type 0, BuildingBlock: ICAMEG_clean_sbu_1, # of connection points: 4
#     Node 3, Type 0, BuildingBlock: ICAMEG_clean_sbu_1, # of connection points: 4
#     Node 4, Type 0, BuildingBlock: ICAMEG_clean_sbu_1, # of connection points: 4
#     Node 5, Type 0, BuildingBlock: ICAMEG_clean_sbu_1, # of connection points: 4
#     Node 6, Type 0, BuildingBlock: ICAMEG_clean_sbu_1, # of connection points: 4
#     Node 7, Type 0, BuildingBlock: ICAMEG_clean_sbu_1, # of connection points: 4
#     Edge 8, Type (0, 0), BuildingBlock: KIFKEQ_clean_linker_1, # of connection points: 2
#     Edge 9, Type (0, 0), BuildingBlock: KIFKEQ_clean_linker_1, # of connection points: 2
#     Edge 10, Type (0, 0), BuildingBlock: KIFKEQ_clean_linker_1, # of connection points: 2
#     Edge 11, Type (0, 0), BuildingBlock: KIFKEQ_clean_linker_1, # of connection points: 2
#     Edge 12, Type (0, 0), BuildingBlock: KIFKEQ_clean_linker_1, # of connection points: 2
#     Edge 13, Type (0, 0), BuildingBlock: KIFKEQ_clean_linker_1, # of connection points: 2
#     Edge 14, Type (0, 0), BuildingBlock: KIFKEQ_clean_linker_1, # of connection points: 2
#     Edge 15, Type (0, 0), BuildingBlock: KIFKEQ_clean_linker_1, # of connection points: 2
#     Edge 16, Type (0, 0), BuildingBlock: KIFKEQ_clean_linker_1, # of connection points: 2
#     Edge 17, Type (0, 0), BuildingBlock: KIFKEQ_clean_linker_1, # of connection points: 2
#     Edge 18, Type (0, 0), BuildingBlock: KIFKEQ_clean_linker_1, # of connection points: 2
#     Edge 19, Type (0, 0), BuildingBlock: KIFKEQ_clean_linker_1, # of connection points: 2
#     Edge 20, Type (0, 0), BuildingBlock: KIFKEQ_clean_linker_1, # of connection points: 2
#     Edge 21, Type (0, 0), BuildingBlock: KIFKEQ_clean_linker_1, # of connection points: 2
#     Edge 22, Type (0, 0), BuildingBlock: KIFKEQ_clean_linker_1, # of connection points: 2
#     Edge 23, Type (0, 0), BuildingBlock: KIFKEQ_clean_linker_1, # of connection points: 2
# Relax obj value: 0.080
# Max RMSD: 0.092
# Mean RMSD: 0.091
data_MOF--net-uoj--node1-ICAMEG_clean_sbu_1--edge1-KIFKEQ_clean_linker_1
_symmetry_space_group_name_H-M    P1
_symmetry_Int_Tables_number       1
_symmetry_cell_setting            triclinic
loop_
_symmetry_equiv_pos_as_xyz
'x, y, z'
_cell_length_a     37.243539
_cell_length_b     37.283487
_cell_length_c     34.139971
_cell_angle_alpha  90.101834
_cell_angle_beta   90.015611
_cell_angle_gamma 89.939833
loop_
_atom_site_label
_atom_site_type_symbol
_atom_site_fract_x
_atom_site_fract_y
_atom_site_fract_z
_atom_type_partial_charge
Co0 Co 0.01107 0.29706 0.40411 0.0
Co1 Co 0.08755 0.31177 0.45841 0.0
O2 O 0.04537 0.28311 0.44467 0.0
C3 C 0.96428 0.27923 0.47244 0.0
O4 O 0.98599 0.2967 0.496 0.0
C5 C 0.11882 0.24085 0.44041 0.0
O6 O 0.09948 0.24072 0.40825 0.0
O7 O 0.10261 0.31453 0.40277 0.0
O8 O 0.05028 0.3161 0.37028 0.0
H9 H 0.17483 0.41362 0.44414 0.0
H10 H 0.01232 0.22266 0.43443 0.0
O11 O 0.97069 0.27761 0.4359 0.0
H12 H 0.03334 0.21132 0.29236 0.0
H13 H 0.90235 0.28017 0.31819 0.0
H14 H 0.00133 0.36146 0.35451 0.0
H15 H 0.02334 0.27065 0.32242 0.0
H16 H 0.94662 0.2624 0.36828 0.0
O17 O 0.11648 0.26691 0.46448 0.0
H18 H 0.12122 0.37796 0.42739 0.0
H19 H 0.14492 0.30455 0.51879 0.0
H20 H 0.95786 0.38018 0.30397 0.0
H21 H 0.02176 0.16272 0.40555 0.0
H22 H 0.90791 0.3394 0.28554 0.0
H23 H 0.03253 0.15679 0.33404 0.0
O24 O 0.00475 0.3452 0.42892 0.0
H25 H 0.04534 0.24871 0.57985 0.0
H26 H 0.07821 0.36548 0.52254 0.0
H27 H 0.05836 0.36265 0.59138 0.0
H28 H 0.04183 0.30393 0.62049 0.0
H29 H 0.06501 0.25282 0.511 0.0
H30 H 0.19899 0.33922 0.53634 0.0
H31 H 0.21415 0.39428 0.49899 0.0
O32 O 0.05996 0.35743 0.4521 0.0
C33 C 0.08436 0.31883 0.37159 0.0
C34 C 0.16842 0.38978 0.46077 0.0
C35 C 0.182 0.348 0.51247 0.0
N36 N 0.12971 0.33948 0.47239 0.0
C37 C 0.13801 0.36957 0.45152 0.0
C38 C 0.15139 0.32845 0.50237 0.0
C39 C 0.19049 0.37889 0.49151 0.0
C40 C 0.01671 0.22029 0.40324 0.0
N41 N 0.01738 0.25019 0.38015 0.0
C42 C 0.02215 0.18628 0.38708 0.0
C43 C 0.02824 0.18297 0.34696 0.0
C44 C 0.02875 0.21356 0.32357 0.0
C45 C 0.02325 0.24713 0.34078 0.0
C46 C 0.92401 0.29817 0.32595 0.0
C47 C 0.97977 0.3435 0.34651 0.0
C48 C 0.94908 0.2883 0.3544 0.0
N49 N 0.97661 0.31082 0.36421 0.0
C50 C 0.95519 0.35427 0.31793 0.0
C51 C 0.92715 0.3314 0.30763 0.0
C52 C 0.02803 0.36673 0.44314 0.0
C53 C 0.05256 0.27444 0.56754 0.0
C54 C 0.07091 0.33985 0.53494 0.0
C55 C 0.05979 0.33841 0.57398 0.0
C56 C 0.05055 0.30544 0.5903 0.0
N57 N 0.07287 0.30931 0.51284 0.0
C58 C 0.06385 0.27691 0.52862 0.0
Co59 Co 0.296 0.98836 0.59009 0.0
Co60 Co 0.30912 0.91166 0.53583 0.0
O61 O 0.281 0.9539 0.55032 0.0
C62 C 0.27642 0.03435 0.52184 0.0
O63 O 0.29401 0.01277 0.49821 0.0
C64 C 0.2389 0.88027 0.55696 0.0
O65 O 0.2417 0.89698 0.5907 0.0
O66 O 0.3138 0.89685 0.59151 0.0
O67 O 0.31594 0.94942 0.62357 0.0
H68 H 0.41112 0.82383 0.54632 0.0
H69 H 0.22081 0.98635 0.56182 0.0
O70 O 0.27561 0.02834 0.55848 0.0
H71 H 0.21304 0.96804 0.70456 0.0
H72 H 0.28151 0.09791 0.6753 0.0
H73 H 0.36167 0.99823 0.63789 0.0
H74 H 0.27161 0.97761 0.67269 0.0
H75 H 0.26239 0.05332 0.62612 0.0
O76 O 0.26346 0.88345 0.53117 0.0
H77 H 0.3763 0.8777 0.56431 0.0
H78 H 0.29936 0.85406 0.47618 0.0
H79 H 0.38172 0.04201 0.68751 0.0
H80 H 0.16159 0.97732 0.59249 0.0
H81 H 0.34151 0.09231 0.7065 0.0
H82 H 0.15744 0.96792 0.66436 0.0
O83 O 0.34352 0.99426 0.56389 0.0
H84 H 0.24279 0.9541 0.41636 0.0
H85 H 0.36101 0.9203 0.47001 0.0
H86 H 0.35637 0.93999 0.40125 0.0
H87 H 0.29691 0.95699 0.37399 0.0
H88 H 0.2487 0.93459 0.48506 0.0
H89 H 0.33319 0.79975 0.45741 0.0
H90 H 0.38958 0.78443 0.49249 0.0
O91 O 0.35527 0.93896 0.54064 0.0
C92 C 0.31898 0.91539 0.6224 0.0
C93 C 0.38668 0.83031 0.53068 0.0
C94 C 0.34291 0.81677 0.48082 0.0
N95 N 0.3361 0.86924 0.521 0.0
C96 C 0.36694 0.86086 0.54064 0.0
C97 C 0.32386 0.84752 0.49161 0.0
C98 C 0.37456 0.80819 0.50051 0.0
C99 C 0.21923 0.98249 0.59314 0.0
N100 N 0.24972 0.98236 0.61543 0.0
C101 C 0.18561 0.9773 0.61033 0.0
C102 C 0.18331 0.97199 0.65064 0.0
C103 C 0.21449 0.972 0.6732 0.0
C104 C 0.24764 0.97724 0.65498 0.0
C105 C 0.29926 0.0761 0.66729 0.0
C106 C 0.34395 0.01994 0.64614 0.0
C107 C 0.28864 0.05084 0.63935 0.0
N108 N 0.31084 0.02311 0.62925 0.0
C109 C 0.35548 0.04469 0.67419 0.0
C110 C 0.33292 0.07293 0.6848 0.0
C111 C 0.3648 0.9709 0.54931 0.0
C112 C 0.26883 0.94666 0.42787 0.0
C113 C 0.33507 0.92779 0.4584 0.0
C114 C 0.33259 0.93883 0.41942 0.0
C115 C 0.29921 0.94833 0.40413 0.0
N116 N 0.30513 0.92617 0.48147 0.0
C117 C 0.27231 0.93545 0.4667 0.0
Co118 Co 0.9859 0.70146 0.41655 0.0
Co119 Co 0.90695 0.68593 0.46664 0.0
O120 O 0.94986 0.71479 0.45583 0.0
C121 C 0.02864 0.72255 0.4876 0.0
O122 O 0.00247 0.71264 0.51084 0.0
C123 C 0.87647 0.75754 0.44982 0.0
O124 O 0.89707 0.75851 0.41864 0.0
O125 O 0.89415 0.68439 0.41021 0.0
O126 O 0.94778 0.68364 0.38032 0.0
H127 H 0.82021 0.58466 0.44488 0.0
H128 H 0.98393 0.77518 0.44912 0.0
O129 O 0.0258 0.71932 0.45064 0.0
H130 H 0.96929 0.78988 0.30652 0.0
H131 H 0.09828 0.71878 0.33662 0.0
H132 H 0.99661 0.6383 0.36503 0.0
H133 H 0.97725 0.72979 0.33524 0.0
H134 H 0.05242 0.7359 0.38528 0.0
O135 O 0.87774 0.73072 0.47285 0.0
H136 H 0.87443 0.62061 0.43186 0.0
H137 H 0.84721 0.69181 0.52445 0.0
H138 H 0.04171 0.62028 0.31588 0.0
H139 H 0.97648 0.83584 0.42164 0.0
H140 H 0.09301 0.66066 0.30141 0.0
H141 H 0.96895 0.84348 0.34984 0.0
O142 O 0.9908 0.65274 0.44002 0.0
H143 H 0.94137 0.74625 0.59291 0.0
H144 H 0.91464 0.63054 0.5291 0.0
H145 H 0.93082 0.63174 0.59914 0.0
H146 H 0.94419 0.68992 0.63154 0.0
H147 H 0.92567 0.74377 0.52277 0.0
H148 H 0.79251 0.65681 0.53828 0.0
H149 H 0.77879 0.60272 0.49844 0.0
O150 O 0.93467 0.6403 0.46012 0.0
C151 C 0.9137 0.68059 0.37988 0.0
C152 C 0.82597 0.60807 0.46257 0.0
C153 C 0.81041 0.6486 0.51495 0.0
N154 N 0.86422 0.65801 0.47767 0.0
C155 C 0.85672 0.62844 0.45544 0.0
C156 C 0.8414 0.66833 0.50695 0.0
C157 C 0.80273 0.61825 0.49259 0.0
C158 C 0.98099 0.77829 0.41783 0.0
N159 N 0.98105 0.74892 0.39382 0.0
C160 C 0.97664 0.8127 0.40244 0.0
C161 C 0.97236 0.81697 0.36217 0.0
C162 C 0.97251 0.78691 0.33785 0.0
C163 C 0.97687 0.75291 0.35429 0.0
C164 C 0.07602 0.70098 0.34262 0.0
C165 C 0.01874 0.65611 0.35873 0.0
C166 C 0.05001 0.71049 0.37023 0.0
N167 N 0.02171 0.68822 0.37781 0.0
C168 C 0.04425 0.64572 0.33094 0.0
C169 C 0.07304 0.66838 0.32287 0.0
C170 C 0.96686 0.63099 0.45225 0.0
C171 C 0.93552 0.72074 0.57915 0.0
C172 C 0.92076 0.65594 0.54288 0.0
C173 C 0.92972 0.65646 0.5826 0.0
C174 C 0.93717 0.68912 0.60078 0.0
N175 N 0.91924 0.68707 0.52185 0.0
C176 C 0.92643 0.71919 0.53949 0.0
Co177 Co 0.70105 0.01759 0.5799 0.0
Co178 Co 0.68146 0.09803 0.5354 0.0
O179 O 0.71143 0.05562 0.54251 0.0
C180 C 0.7052 0.95293 0.5295 0.0
O181 O 0.67282 0.94465 0.54175 0.0
C182 C 0.75284 0.12833 0.55295 0.0
O183 O 0.7541 0.10651 0.58306 0.0
O184 O 0.68107 0.1075 0.59251 0.0
O185 O 0.68307 0.05273 0.61975 0.0
H186 H 0.5788 0.18121 0.56542 0.0
H187 H 0.77351 0.02322 0.54433 0.0
O188 O 0.71978 0.98213 0.54062 0.0
H189 H 0.79313 0.03336 0.68676 0.0
H190 H 0.72795 0.9032 0.65292 0.0
H191 H 0.63999 1.00028 0.63207 0.0
H192 H 0.73223 0.02435 0.66027 0.0
H193 H 0.74073 0.95217 0.60649 0.0
O194 O 0.72571 0.12811 0.53015 0.0
H195 H 0.61611 0.12705 0.57373 0.0
H196 H 0.68503 0.16105 0.48199 0.0
H197 H 0.62615 0.95189 0.67886 0.0
H198 H 0.83493 0.03175 0.56959 0.0
H199 H 0.67031 0.90289 0.68951 0.0
H200 H 0.84504 0.03704 0.64128 0.0
O201 O 0.65132 0.01261 0.55837 0.0
H202 H 0.73914 0.06868 0.40624 0.0
H203 H 0.62485 0.09424 0.47372 0.0
H204 H 0.6246 0.08149 0.40279 0.0
H205 H 0.68207 0.06872 0.36857 0.0
H206 H 0.73811 0.08126 0.47722 0.0
H207 H 0.64867 0.21576 0.47288 0.0
H208 H 0.59503 0.22603 0.51467 0.0
O209 O 0.63666 0.06899 0.54108 0.0
C210 C 0.67904 0.08668 0.62197 0.0
C211 C 0.602 0.17695 0.54689 0.0
C212 C 0.64124 0.19637 0.495 0.0
N213 N 0.65242 0.14069 0.52805 0.0
C214 C 0.62312 0.14626 0.55135 0.0
C215 C 0.66175 0.16538 0.50032 0.0
C216 C 0.61115 0.20211 0.51845 0.0
C217 C 0.7777 0.02508 0.57559 0.0
N218 N 0.74926 0.02315 0.60079 0.0
C219 C 0.81254 0.03009 0.58971 0.0
C220 C 0.81819 0.03312 0.62993 0.0
C221 C 0.78907 0.0311 0.65545 0.0
C222 C 0.75461 0.02613 0.64028 0.0
C223 C 0.7085 0.92442 0.64856 0.0
C224 C 0.65936 0.97908 0.63661 0.0
C225 C 0.71559 0.95221 0.62231 0.0
N226 N 0.69114 0.9791 0.61663 0.0
C227 C 0.65137 0.95174 0.66312 0.0
C228 C 0.67616 0.92425 0.66907 0.0
C229 C 0.62853 0.03629 0.54765 0.0
C230 C 0.71394 0.0743 0.4208 0.0
C231 C 0.64994 0.08854 0.45906 0.0
C232 C 0.64965 0.08144 0.41888 0.0
C233 C 0.6819 0.07429 0.39969 0.0
N234 N 0.6815 0.08866 0.47952 0.0
C235 C 0.71321 0.08154 0.46095 0.0
Co236 Co 0.49336 0.79747 0.90601 0.0
Co237 Co 0.41621 0.81261 0.95873 0.0
O238 O 0.45832 0.7835 0.94577 0.0
C239 C 0.53871 0.77709 0.97481 0.0
O240 O 0.51718 0.79474 0.99844 0.0
C241 C 0.38456 0.74186 0.94092 0.0
O242 O 0.40412 0.74129 0.90894 0.0
O243 O 0.40193 0.81501 0.90285 0.0
O244 O 0.45491 0.81775 0.87179 0.0
H245 H 0.32972 0.915 0.94208 0.0
H246 H 0.49049 0.7226 0.93482 0.0
O247 O 0.53293 0.77666 0.9381 0.0
H248 H 0.47143 0.71397 0.7922 0.0
H249 H 0.60297 0.77998 0.82159 0.0
H250 H 0.50477 0.86244 0.85777 0.0
H251 H 0.48183 0.77261 0.82361 0.0
H252 H 0.55779 0.76224 0.87065 0.0
O253 O 0.38692 0.76806 0.9648 0.0
H254 H 0.38333 0.87879 0.92653 0.0
H255 H 0.35808 0.80638 0.01833 0.0
H256 H 0.54918 0.88113 0.80827 0.0
H257 H 0.48064 0.66331 0.90458 0.0
H258 H 0.59874 0.83976 0.78991 0.0
H259 H 0.47085 0.65874 0.83278 0.0
O260 O 0.50004 0.84511 0.93186 0.0
H261 H 0.45647 0.75013 0.08139 0.0
H262 H 0.42509 0.86673 0.02252 0.0
H263 H 0.44405 0.86426 0.09169 0.0
H264 H 0.45982 0.80563 0.12158 0.0
H265 H 0.43772 0.75388 0.01219 0.0
H266 H 0.304 0.84162 0.03469 0.0
H267 H 0.28962 0.89645 0.99652 0.0
O268 O 0.44415 0.85801 0.95246 0.0
C269 C 0.42075 0.81996 0.87221 0.0
C270 C 0.33579 0.89126 0.95905 0.0
C271 C 0.32133 0.85005 0.01099 0.0
N272 N 0.37406 0.84077 0.97181 0.0
C273 C 0.36619 0.87074 0.95048 0.0
C274 C 0.35196 0.83018 0.00157 0.0
C275 C 0.31328 0.88081 0.98957 0.0
C276 C 0.48654 0.72082 0.90352 0.0
N277 N 0.48665 0.75111 0.88103 0.0
C278 C 0.48086 0.68718 0.88658 0.0
C279 C 0.47531 0.68463 0.8463 0.0
C280 C 0.47559 0.71561 0.82353 0.0
C281 C 0.48131 0.7488 0.8415 0.0
C282 C 0.5815 0.79824 0.82934 0.0
C283 C 0.52617 0.84422 0.8498 0.0
C284 C 0.55591 0.78839 0.85721 0.0
N285 N 0.52859 0.81123 0.86697 0.0
C286 C 0.55128 0.85498 0.82182 0.0
C287 C 0.57909 0.83177 0.81155 0.0
C288 C 0.47647 0.86697 0.94492 0.0
C289 C 0.44957 0.77582 0.06873 0.0
C290 C 0.43208 0.84114 0.03526 0.0
C291 C 0.44269 0.83989 0.07448 0.0
C292 C 0.4515 0.80698 0.09124 0.0
N293 N 0.4302 0.81045 0.0134 0.0
C294 C 0.4388 0.77809 0.02962 0.0
Co295 Co 0.81715 0.58931 0.03847 0.0
Co296 Co 0.8029 0.51016 0.08828 0.0
O297 O 0.78886 0.54614 0.04938 0.0
C298 C 0.7453 0.61908 0.05648 0.0
O299 O 0.74467 0.59858 0.0877 0.0
C300 C 0.78237 0.4678 0.01688 0.0
O301 O 0.79298 0.49396 0.99403 0.0
O302 O 0.85157 0.5059 0.06428 0.0
O303 O 0.8632 0.56211 0.04416 0.0
H304 H 0.88531 0.45476 0.18782 0.0
H305 H 0.75894 0.57014 0.98301 0.0
O306 O 0.77196 0.61793 0.03311 0.0
H307 H 0.87035 0.56682 0.90505 0.0
H308 H 0.84429 0.70431 0.96736 0.0
H309 H 0.88246 0.62237 0.07269 0.0
H310 H 0.87206 0.58262 0.9752 0.0
H311 H 0.81005 0.64917 0.98118 0.0
O312 O 0.78515 0.47038 0.05392 0.0
H313 H 0.86652 0.49988 0.13918 0.0
H314 H 0.76933 0.44318 0.11923 0.0
H315 H 0.91767 0.67705 0.05967 0.0
H316 H 0.75593 0.55478 0.91278 0.0
H317 H 0.89861 0.71847 0.00665 0.0
H318 H 0.81195 0.55289 0.87336 0.0
O319 O 0.81894 0.60184 0.09488 0.0
H320 H 0.66825 0.51815 0.08452 0.0
H321 H 0.77499 0.51823 0.16991 0.0
H322 H 0.71494 0.52546 0.19923 0.0
H323 H 0.661 0.52538 0.15642 0.0
H324 H 0.72886 0.51142 0.05642 0.0
H325 H 0.78722 0.39728 0.16738 0.0
H326 H 0.84552 0.403 0.20219 0.0
O327 O 0.82051 0.54831 0.12474 0.0
C328 C 0.87293 0.53003 0.0517 0.0
C329 C 0.85979 0.45203 0.17294 0.0
C330 C 0.80476 0.41975 0.16142 0.0
N331 N 0.81676 0.47432 0.12659 0.0
C332 C 0.84897 0.47754 0.14544 0.0
C333 C 0.79482 0.44578 0.13411 0.0
C334 C 0.83747 0.42297 0.18095 0.0
C335 C 0.78338 0.56977 0.96594 0.0
N336 N 0.81562 0.57727 0.98319 0.0
C337 C 0.78153 0.56087 0.92624 0.0
C338 C 0.81298 0.55975 0.90415 0.0
C339 C 0.84576 0.56751 0.92194 0.0
C340 C 0.84658 0.57626 0.96172 0.0
C341 C 0.85293 0.68642 0.99045 0.0
C342 C 0.8742 0.64009 0.04935 0.0
C343 C 0.83363 0.65518 0.99843 0.0
N344 N 0.8445 0.63236 0.02742 0.0
C345 C 0.89415 0.67109 0.04221 0.0
C346 C 0.88341 0.69434 0.0125 0.0
C347 C 0.82299 0.58242 0.12519 0.0
C348 C 0.69153 0.51816 0.10349 0.0
C349 C 0.75171 0.5184 0.15108 0.0
C350 C 0.71774 0.52236 0.16786 0.0
C351 C 0.68749 0.52227 0.14383 0.0
N352 N 0.75548 0.51438 0.11149 0.0
C353 C 0.72593 0.51422 0.08776 0.0
Co354 Co 0.51435 0.1998 0.91479 0.0
Co355 Co 0.59364 0.18854 0.96532 0.0
O356 O 0.55011 0.21572 0.95295 0.0
C357 C 0.47166 0.22095 0.9853 0.0
O358 O 0.4973 0.20925 0.00831 0.0
C359 C 0.62354 0.25951 0.94379 0.0
O360 O 0.60656 0.25683 0.9102 0.0
O361 O 0.60645 0.18451 0.90898 0.0
O362 O 0.5527 0.18103 0.87946 0.0
H363 H 0.68351 0.08888 0.94971 0.0
H364 H 0.51514 0.27492 0.94321 0.0
O365 O 0.47453 0.21859 0.94827 0.0
H366 H 0.52816 0.28323 0.7998 0.0
H367 H 0.40104 0.21105 0.83505 0.0
H368 H 0.5048 0.13414 0.86687 0.0
H369 H 0.52161 0.22444 0.8319 0.0
H370 H 0.44683 0.23132 0.88234 0.0
O371 O 0.62101 0.23469 0.96928 0.0
H372 H 0.6282 0.12252 0.93451 0.0
H373 H 0.65315 0.19917 0.02253 0.0
H374 H 0.4598 0.11297 0.81914 0.0
H375 H 0.52121 0.33435 0.91233 0.0
H376 H 0.40746 0.15154 0.80296 0.0
H377 H 0.5279 0.33876 0.84011 0.0
O378 O 0.51076 0.15221 0.94099 0.0
H379 H 0.55641 0.25345 0.08795 0.0
H380 H 0.58783 0.13597 0.03078 0.0
H381 H 0.57131 0.13986 0.10061 0.0
H382 H 0.55557 0.19894 0.12966 0.0
H383 H 0.57254 0.24828 0.01811 0.0
H384 H 0.70889 0.16652 0.0385 0.0
H385 H 0.7243 0.11086 0.00207 0.0
O386 O 0.56731 0.14182 0.96123 0.0
C387 C 0.58685 0.1787 0.87903 0.0
C388 C 0.67701 0.113 0.96593 0.0
C389 C 0.69128 0.1566 0.01572 0.0
N390 N 0.63722 0.1625 0.97794 0.0
C391 C 0.64565 0.13207 0.95756 0.0
C392 C 0.6597 0.17499 0.00652 0.0
C393 C 0.6999 0.12537 0.99527 0.0
C394 C 0.5178 0.27663 0.91175 0.0
N395 N 0.51804 0.2462 0.88939 0.0
C396 C 0.52133 0.31035 0.89444 0.0
C397 C 0.52513 0.31281 0.85392 0.0
C398 C 0.52531 0.28167 0.8313 0.0
C399 C 0.52176 0.24841 0.84964 0.0
C400 C 0.42376 0.19402 0.84181 0.0
C401 C 0.48221 0.15117 0.85981 0.0
C402 C 0.44973 0.20531 0.86864 0.0
N403 N 0.47861 0.18403 0.87716 0.0
C404 C 0.45677 0.139 0.83284 0.0
C405 C 0.42739 0.16064 0.8238 0.0
C406 C 0.5353 0.13149 0.95405 0.0
C407 C 0.56332 0.22757 0.07565 0.0
C408 C 0.58073 0.16174 0.04312 0.0
C409 C 0.57156 0.16379 0.08272 0.0
C410 C 0.56278 0.19696 0.09902 0.0
N411 N 0.58117 0.19188 0.02038 0.0
C412 C 0.57266 0.2245 0.03617 0.0
Co413 Co 0.19511 0.41413 0.03695 0.0
Co414 Co 0.20695 0.49081 0.09149 0.0
O415 O 0.22253 0.45673 0.05155 0.0
C416 C 0.26585 0.38339 0.05739 0.0
O417 O 0.26309 0.39971 0.09137 0.0
C418 C 0.22577 0.53707 0.02336 0.0
O419 O 0.20848 0.51522 -0.00021 0.0
O420 O 0.1593 0.49613 0.06535 0.0
O421 O 0.14853 0.44059 0.04231 0.0
H422 H 0.12047 0.54282 0.18924 0.0
H423 H 0.25474 0.43823 0.98585 0.0
O424 O 0.24116 0.38667 0.03176 0.0
H425 H 0.14637 0.44244 0.90294 0.0
H426 H 0.17246 0.30229 0.95797 0.0
H427 H 0.12886 0.37885 0.06589 0.0
H428 H 0.14258 0.42232 0.9716 0.0
H429 H 0.20541 0.35706 0.97678 0.0
O430 O 0.22665 0.53117 0.06002 0.0
H431 H 0.14119 0.49951 0.13942 0.0
H432 H 0.23948 0.55614 0.12772 0.0
H433 H 0.09492 0.32451 0.04787 0.0
H434 H 0.25981 0.45818 0.91722 0.0
H435 H 0.1167 0.2858 0.99353 0.0
H436 H 0.20533 0.46048 0.87531 0.0
O437 O 0.19114 0.39901 0.09255 0.0
H438 H 0.34155 0.48184 0.09399 0.0
H439 H 0.23148 0.47991 0.17403 0.0
H440 H 0.2902 0.47112 0.20592 0.0
H441 H 0.34582 0.47213 0.1658 0.0
H442 H 0.28219 0.49009 0.06329 0.0
H443 H 0.21969 0.60026 0.17712 0.0
H444 H 0.15984 0.59366 0.20838 0.0
O445 O 0.18769 0.45142 0.12481 0.0
C446 C 0.13841 0.47235 0.05099 0.0
C447 C 0.14664 0.54594 0.1759 0.0
C448 C 0.2023 0.57822 0.16905 0.0
N449 N 0.19157 0.52519 0.13081 0.0
C450 C 0.15855 0.52146 0.14774 0.0
C451 C 0.21331 0.55322 0.14099 0.0
C452 C 0.16873 0.57448 0.18659 0.0
C453 C 0.23098 0.43882 0.96768 0.0
N454 N 0.19844 0.42899 0.98266 0.0
C455 C 0.23399 0.45029 0.92889 0.0
C456 C 0.2034 0.45163 0.90541 0.0
C457 C 0.1703 0.44154 0.92091 0.0
C458 C 0.1683 0.43027 0.95984 0.0
C459 C 0.16262 0.31901 0.98161 0.0
C460 C 0.13832 0.36232 0.04199 0.0
C461 C 0.18118 0.35002 0.99241 0.0
N462 N 0.1688 0.37136 0.02208 0.0
C463 C 0.11907 0.3315 0.03202 0.0
C464 C 0.13134 0.30977 0.00156 0.0
C465 C 0.18556 0.41732 0.12351 0.0
C466 C 0.31751 0.48135 0.11179 0.0
C467 C 0.25547 0.48005 0.15635 0.0
C468 C 0.28869 0.47525 0.17459 0.0
C469 C 0.31989 0.47586 0.15207 0.0
N470 N 0.25333 0.48537 0.11683 0.0
C471 C 0.28382 0.4861 0.09459 0.0
H472 H 0.18483 0.44476 0.19762 0.0
H473 H 0.16319 0.34766 0.13218 0.0
H474 H 0.16574 0.41546 0.25744 0.0
H475 H 0.14291 0.31869 0.19261 0.0
H476 H 0.0572 0.31818 0.29729 0.0
H477 H 0.08689 0.3363 0.23721 0.0
H478 H 0.18342 0.36003 0.30213 0.0
H479 H 0.15411 0.34086 0.36272 0.0
C480 C 0.17652 0.41702 0.19597 0.0
C481 C 0.17571 0.39853 0.16002 0.0
C482 C 0.16572 0.40024 0.23037 0.0
C483 C 0.15316 0.36486 0.22951 0.0
C484 C 0.1527 0.34602 0.19385 0.0
C485 C 0.16426 0.36261 0.15939 0.0
C486 C 0.08497 0.3265 0.29889 0.0
C487 C 0.10328 0.32797 0.33491 0.0
C488 C 0.10197 0.33671 0.26435 0.0
C489 C 0.13739 0.34928 0.26519 0.0
C490 C 0.15606 0.35025 0.30091 0.0
C491 C 0.13926 0.33934 0.33548 0.0
H492 H 0.31809 0.94286 0.69644 0.0
H493 H 0.34436 0.8467 0.63133 0.0
H494 H 0.33795 0.91445 0.75648 0.0
H495 H 0.3655 0.81866 0.69204 0.0
H496 H 0.4497 0.82171 0.7987 0.0
H497 H 0.42043 0.83898 0.73795 0.0
H498 H 0.32157 0.85788 0.80054 0.0
H499 H 0.35043 0.8395 0.8617 0.0
C500 C 0.3276 0.9155 0.6949 0.0
C501 C 0.32941 0.89701 0.65899 0.0
C502 C 0.33887 0.89923 0.72943 0.0
C503 C 0.35294 0.8644 0.72875 0.0
C504 C 0.35453 0.84557 0.69312 0.0
C505 C 0.34246 0.86161 0.65852 0.0
C506 C 0.42154 0.8288 0.79962 0.0
C507 C 0.4024 0.82909 0.83515 0.0
C508 C 0.4048 0.83853 0.76472 0.0
C509 C 0.36881 0.84944 0.76472 0.0
C510 C 0.34938 0.84935 0.79996 0.0
C511 C 0.36594 0.83892 0.83486 0.0
H512 H 0.84546 0.65522 0.36777 0.0
H513 H 0.94325 0.68325 0.30676 0.0
H514 H 0.81941 0.63457 0.30588 0.0
H515 H 0.91682 0.66353 0.24535 0.0
H516 H 0.84465 0.65178 0.13724 0.0
H517 H 0.86272 0.67943 0.19916 0.0
H518 H 0.83904 0.58094 0.26004 0.0
H519 H 0.82178 0.5529 0.19846 0.0
C520 C 0.86118 0.65755 0.34121 0.0
C521 C 0.89647 0.67093 0.34228 0.0
C522 C 0.84628 0.64568 0.3059 0.0
C523 C 0.86613 0.64767 0.271 0.0
C524 C 0.90083 0.66216 0.27181 0.0
C525 C 0.91597 0.67335 0.3071 0.0
C526 C 0.84296 0.63609 0.16385 0.0
C527 C 0.83175 0.60009 0.16283 0.0
C528 C 0.85332 0.65194 0.1992 0.0
C529 C 0.85203 0.6323 0.23422 0.0
C530 C 0.83979 0.59676 0.23346 0.0
C531 C 0.83007 0.5807 0.1981 0.0
H532 H 0.55648 0.17764 0.80638 0.0
H533 H 0.65588 0.15494 0.86713 0.0
H534 H 0.58338 0.1584 0.74516 0.0
H535 H 0.68249 0.13458 0.80524 0.0
H536 H 0.68313 0.05471 0.69408 0.0
H537 H 0.66536 0.08006 0.75714 0.0
H538 H 0.63698 0.17945 0.70041 0.0
H539 H 0.6553 0.15465 0.63735 0.0
C540 C 0.58418 0.16892 0.80672 0.0
C541 C 0.60409 0.16816 0.84172 0.0
C542 C 0.59956 0.15794 0.77154 0.0
C543 C 0.63498 0.14527 0.7706 0.0
C544 C 0.65509 0.14436 0.80539 0.0
C545 C 0.63988 0.15608 0.84066 0.0
C546 C 0.67363 0.08215 0.69503 0.0
C547 C 0.67054 0.1026 0.66058 0.0
C548 C 0.66367 0.09666 0.73118 0.0
C549 C 0.64988 0.13161 0.73342 0.0
C550 C 0.64752 0.15236 0.69927 0.0
C551 C 0.65801 0.13812 0.66324 0.0
H552 H 0.26467 0.05449 0.44507 0.0
H553 H 0.24055 0.08413 0.56473 0.0
H554 H 0.22841 0.10533 0.42201 0.0
H555 H 0.20432 0.13353 0.54196 0.0
H556 H 0.12399 0.17546 0.40363 0.0
H557 H 0.16456 0.12597 0.42015 0.0
H558 H 0.21221 0.19095 0.51124 0.0
H559 H 0.17142 0.23963 0.49561 0.0
C560 C 0.25183 0.07181 0.46639 0.0
C561 C 0.25572 0.06532 0.50673 0.0
C562 C 0.2309 0.10072 0.4532 0.0
C563 C 0.21374 0.12364 0.48018 0.0
C564 C 0.21773 0.11692 0.52038 0.0
C565 C 0.23844 0.08831 0.53344 0.0
C566 C 0.14326 0.17912 0.42708 0.0
C567 C 0.14413 0.21124 0.44871 0.0
C568 C 0.16664 0.15089 0.43633 0.0
C569 C 0.19134 0.15441 0.46726 0.0
C570 C 0.19299 0.18708 0.48779 0.0
C571 C 0.16959 0.21504 0.47878 0.0
H572 H 0.21529 0.85659 0.48604 0.0
H573 H 0.19195 0.85117 0.60978 0.0
H574 H 0.16489 0.8173 0.47241 0.0
H575 H 0.14238 0.81014 0.59645 0.0
H576 H 0.03337 0.76604 0.55215 0.0
H577 H 0.08406 0.80416 0.57058 0.0
H578 H 0.14688 0.75792 0.47659 0.0
H579 H 0.09573 0.72169 0.45717 0.0
C580 C 0.19954 0.84668 0.5104 0.0
C581 C 0.20768 0.85688 0.54898 0.0
C582 C 0.17074 0.82382 0.50266 0.0
C583 C 0.14967 0.80993 0.53335 0.0
C584 C 0.15768 0.82046 0.572 0.0
C585 C 0.18622 0.84389 0.57969 0.0
C586 C 0.05825 0.76381 0.5359 0.0
C587 C 0.0606 0.74118 0.5031 0.0
C588 C 0.08737 0.78562 0.54642 0.0
C589 C 0.11954 0.78473 0.52466 0.0
C590 C 0.12229 0.76035 0.49329 0.0
C591 C 0.09308 0.73921 0.48238 0.0
H592 H 0.68829 0.88295 0.51361 0.0
H593 H 0.77329 0.96091 0.50076 0.0
H594 H 0.72856 0.83604 0.48997 0.0
H595 H 0.81356 0.9139 0.4776 0.0
H596 H 0.86956 0.82191 0.4116 0.0
H597 H 0.826 0.86961 0.4249 0.0
H598 H 0.78153 0.80692 0.51941 0.0
H599 H 0.82454 0.75938 0.50608 0.0
C600 C 0.71536 0.89022 0.5052 0.0
C601 C 0.72762 0.92565 0.50943 0.0
C602 C 0.73852 0.86328 0.49192 0.0
C603 C 0.77438 0.87118 0.4824 0.0
C604 C 0.78606 0.90695 0.48453 0.0
C605 C 0.76296 0.93388 0.49797 0.0
C606 C 0.85041 0.81831 0.43515 0.0
C607 C 0.85057 0.78685 0.45779 0.0
C608 C 0.82554 0.84565 0.4428 0.0
C609 C 0.80014 0.84192 0.47301 0.0
C610 C 0.8003 0.81038 0.49549 0.0
C611 C 0.82523 0.78325 0.48805 0.0
H612 H 0.75457 0.18272 0.49987 0.0
H613 H 0.81896 0.13046 0.58839 0.0
H614 H 0.80445 0.22218 0.48448 0.0
H615 H 0.86943 0.16973 0.57222 0.0
H616 H 0.9443 0.26718 0.54918 0.0
H617 H 0.89209 0.23293 0.57216 0.0
H618 H 0.86136 0.21267 0.45213 0.0
H619 H 0.91222 0.24689 0.42945 0.0
C620 C 0.7794 0.17962 0.51606 0.0
C621 C 0.78291 0.15317 0.54505 0.0
C622 C 0.80803 0.20224 0.50718 0.0
C623 C 0.84104 0.19884 0.52684 0.0
C624 C 0.84427 0.17318 0.55676 0.0
C625 C 0.81544 0.15054 0.56581 0.0
C626 C 0.92614 0.25564 0.52784 0.0
C627 C 0.93243 0.2599 0.48751 0.0
C628 C 0.89643 0.23586 0.54096 0.0
C629 C 0.87245 0.22032 0.51394 0.0
C630 C 0.87884 0.22483 0.47376 0.0
C631 C 0.90831 0.24433 0.46074 0.0
H632 H 0.2606 0.58771 0.066 0.0
H633 H 0.23823 0.55626 0.94649 0.0
H634 H 0.29707 0.63675 0.04296 0.0
H635 H 0.27467 0.60675 0.92313 0.0
H636 H 0.37942 0.67604 0.90509 0.0
H637 H 0.33842 0.62708 0.92184 0.0
H638 H 0.29003 0.69367 0.01113 0.0
H639 H 0.33127 0.74182 0.9953 0.0
C640 C 0.26313 0.59143 0.03468 0.0
C641 C 0.24631 0.56801 0.00809 0.0
C642 C 0.28397 0.61985 0.02145 0.0
C643 C 0.28853 0.62592 0.9812 0.0
C644 C 0.27174 0.60264 0.95436 0.0
C645 C 0.2507 0.57394 0.9677 0.0
C646 C 0.3599 0.68016 0.92818 0.0
C647 C 0.35895 0.71258 0.94928 0.0
C648 C 0.33627 0.65224 0.93757 0.0
C649 C 0.31123 0.65636 0.96809 0.0
C650 C 0.30951 0.68933 0.98803 0.0
C651 C 0.33317 0.71698 0.97891 0.0
H652 H 0.67959 0.62368 0.09292 0.0
H653 H 0.74376 0.67184 0.00161 0.0
H654 H 0.62981 0.66397 0.07637 0.0
H655 H 0.69477 0.71222 0.98591 0.0
H656 H 0.588 0.74038 0.93203 0.0
H657 H 0.63714 0.70376 0.95488 0.0
H658 H 0.6092 0.72824 0.07478 0.0
H659 H 0.55867 0.76498 0.05165 0.0
C660 C 0.68319 0.64301 0.06961 0.0
C661 C 0.71545 0.6442 0.04822 0.0
C662 C 0.6548 0.66623 0.06034 0.0
C663 C 0.65823 0.69102 0.02956 0.0
C664 C 0.69098 0.69294 0.00924 0.0
C665 C 0.71913 0.66977 0.01831 0.0
C666 C 0.59217 0.73827 0.96332 0.0
C667 C 0.56938 0.75589 0.98999 0.0
C668 C 0.62062 0.71732 0.97643 0.0
C669 C 0.62737 0.71337 0.01663 0.0
C670 C 0.60458 0.73072 0.04358 0.0
C671 C 0.57584 0.75192 0.03035 0.0
H672 H 0.78195 0.40054 0.04652 0.0
H673 H 0.73958 0.46418 0.95169 0.0
H674 H 0.74527 0.35009 0.02601 0.0
H675 H 0.70098 0.4142 0.93216 0.0
H676 H 0.65312 0.30673 0.89148 0.0
H677 H 0.69434 0.35604 0.90563 0.0
H678 H 0.68549 0.33317 0.02942 0.0
H679 H 0.64609 0.28312 0.01501 0.0
C680 C 0.76477 0.40363 0.02112 0.0
C681 C 0.76349 0.43626 0.00077 0.0
C682 C 0.74336 0.37483 0.00958 0.0
C683 C 0.71936 0.37815 0.97793 0.0
C684 C 0.71919 0.41046 0.95653 0.0
C685 C 0.74128 0.43917 0.96769 0.0
C686 C 0.66006 0.31237 0.92168 0.0
C687 C 0.64664 0.29087 0.9521 0.0
C688 C 0.68359 0.34073 0.92984 0.0
C689 C 0.6938 0.34848 0.96867 0.0
C690 C 0.67931 0.32749 -0.00094 0.0
C691 C 0.65636 0.29889 0.99085 0.0
H692 H 0.4046 0.2228 0.95501 0.0
H693 H 0.46846 0.26337 0.05077 0.0
H694 H 0.35469 0.26047 0.97519 0.0
H695 H 0.41905 0.30296 0.07 0.0
H696 H 0.31205 0.35252 0.10988 0.0
H697 H 0.36071 0.31042 0.09593 0.0
H698 H 0.33917 0.32072 0.97194 0.0
H699 H 0.28968 0.36107 0.98614 0.0
C700 C 0.40783 0.23979 0.98056 0.0
C701 C 0.44037 0.24032 0.00127 0.0
C702 C 0.37936 0.26176 0.9919 0.0
C703 C 0.38296 0.28554 0.02371 0.0
C704 C 0.41513 0.28493 0.04549 0.0
C705 C 0.44349 0.26228 0.03452 0.0
C706 C 0.31785 0.34574 0.07967 0.0
C707 C 0.29689 0.35984 0.04912 0.0
C708 C 0.34584 0.3217 0.07163 0.0
C709 C 0.35373 0.31166 0.0328 0.0
C710 C 0.33331 0.32682 0.00229 0.0
C711 C 0.30507 0.35029 0.01036 0.0
H712 H 0.03136 0.60006 0.471 0.0
H713 H 0.92235 0.57478 0.43852 0.0
H714 H 0.0456 0.53626 0.4734 0.0
H715 H 0.93681 0.51148 0.43774 0.0
H716 H 0.9631 0.39618 0.46301 0.0
H717 H 0.94857 0.45968 0.47012 0.0
H718 H 0.05728 0.48695 0.43654 0.0
H719 H 0.072 0.42378 0.43264 0.0
C720 C 0.01054 0.58079 0.46411 0.0
C721 C 0.97575 0.59239 0.45478 0.0
C722 C 0.01868 0.54411 0.46509 0.0
C723 C 0.99249 0.51815 0.45552 0.0
C724 C 0.95765 0.53013 0.44623 0.0
C725 C 0.94932 0.56666 0.44637 0.0
C726 C 0.9838 0.41593 0.45749 0.0
C727 C 0.01867 0.40507 0.44746 0.0
C728 C 0.97551 0.45245 0.46123 0.0
C729 C 0.00165 0.47902 0.45383 0.0
C730 C 0.0365 0.46776 0.44355 0.0
C731 C 0.04497 0.43135 0.44093 0.0
H732 H 0.59948 0.97175 0.52554 0.0
H733 H 0.57091 0.07835 0.56375 0.0
H734 H 0.53601 0.95621 0.52099 0.0
H735 H 0.50794 0.06248 0.5623 0.0
H736 H 0.39402 0.03641 0.53236 0.0
H737 H 0.45743 0.0517 0.52731 0.0
H738 H 0.48549 0.94184 0.55475 0.0
H739 H 0.42232 0.92646 0.5566 0.0
C740 C 0.57957 0.99173 0.53331 0.0
C741 C 0.59016 0.02629 0.54477 0.0
C742 C 0.54305 0.98283 0.53103 0.0
C743 C 0.51625 0.00798 0.54129 0.0
C744 C 0.52725 0.04249 0.55306 0.0
C745 C 0.56359 0.05161 0.55426 0.0
C746 C 0.41389 0.01557 0.53685 0.0
C747 C 0.40319 0.98026 0.54475 0.0
C748 C 0.45039 0.02432 0.53437 0.0
C749 C 0.47718 0.99817 0.54096 0.0
C750 C 0.46614 0.96275 0.54862 0.0
C751 C 0.4297 0.95387 0.54998 0.0
H752 H 0.4712 0.09992 0.97257 0.0
H753 H 0.58131 0.07565 0.94358 0.0
H754 H 0.45779 0.03605 0.97532 0.0
H755 H 0.5677 0.01212 0.94315 0.0
H756 H 0.54098 0.8963 0.96684 0.0
H757 H 0.55524 0.95982 0.97462 0.0
H758 H 0.44751 0.98722 0.93734 0.0
H759 H 0.43301 0.92413 0.93268 0.0
C760 C 0.49249 0.08085 0.96662 0.0
C761 C 0.52728 0.09279 0.95797 0.0
C762 C 0.48481 0.04411 0.96775 0.0
C763 C 0.51148 0.01837 0.959 0.0
C764 C 0.54644 0.03063 0.95085 0.0
C765 C 0.55429 0.06728 0.95082 0.0
C766 C 0.52044 0.91608 0.96065 0.0
C767 C 0.48587 0.90529 0.9494 0.0
C768 C 0.52858 0.95261 0.9648 0.0
C769 C 0.5026 0.97921 0.95669 0.0
C770 C 0.46811 0.968 0.94504 0.0
C771 C 0.45978 0.93162 0.94196 0.0
H772 H 0.08224 0.42691 0.06059 0.0
H773 H 0.10735 0.53686 0.03282 0.0
H774 H 0.01871 0.44065 0.05904 0.0
H775 H 0.04346 0.55045 0.02802 0.0
H776 H 0.9292 0.57461 0.06487 0.0
H777 H 0.99269 0.56079 0.06276 0.0
H778 H 0.96776 0.45263 0.02522 0.0
H779 H 0.90388 0.46616 0.03056 0.0
C780 C 0.07405 0.45395 0.05325 0.0
C781 C 0.09977 0.48083 0.04688 0.0
C782 C 0.0374 0.46188 0.05203 0.0
C783 C 0.02532 0.49678 0.04337 0.0
C784 C 0.05132 0.52344 0.03579 0.0
C785 C 0.08808 0.51568 0.03815 0.0
C786 C 0.93734 0.5479 0.05604 0.0
C787 C 0.91157 0.52144 0.04794 0.0
C788 C 0.97396 0.53995 0.05447 0.0
C789 C 0.98599 0.50549 0.0437 0.0
C790 C 0.95994 0.47925 0.03458 0.0
C791 C 0.92319 0.48699 0.03728 0.0
loop_
_geom_bond_atom_site_label_1
_geom_bond_atom_site_label_2
_geom_bond_distance
_geom_bond_site_symmetry_2
_ccdc_geom_bond_type
Co0 O2 2.143 . S
Co0 O8 2.074 . S
Co0 O11 2.093 1_455 S
Co0 O24 2.097 . S
Co0 N41 2.151 . S
Co0 N49 2.214 1_455 S
Co1 O2 2.160 . S
Co1 O7 2.058 . S
Co1 O17 2.057 . S
Co1 O32 2.037 . S
Co1 N36 2.145 . S
Co1 N57 2.257 . S
O2 Co0 2.143 . S
O2 Co1 2.160 . S
C3 O4 1.278 1_655 S
C3 O11 1.224 . S
O4 C3 1.278 1_455 S
C5 O6 1.245 . S
C5 O17 1.232 . S
O6 C5 1.245 . S
O7 Co1 2.058 . S
O7 C33 1.269 . S
O8 Co0 2.074 . S
O8 C33 1.257 . S
H9 C34 0.930 . S
H10 C40 0.930 . S
O11 Co0 2.093 1_655 S
O11 C3 1.224 . S
H12 C44 0.929 . S
H13 C46 0.930 . S
H14 C47 0.930 1_455 S
H15 C45 0.929 . S
H16 C48 0.928 . S
O17 Co1 2.057 . S
O17 C5 1.232 . S
H18 C37 0.929 . S
H19 C38 0.929 . S
H20 C50 0.931 . S
H21 C42 0.929 . S
H22 C51 0.930 . S
H23 C43 0.931 . S
O24 Co0 2.097 . S
O24 C52 1.214 . S
H25 C53 0.929 . S
H26 C54 0.929 . S
H27 C55 0.930 . S
H28 C56 0.929 . S
H29 C58 0.930 . S
H30 C35 0.930 . S
H31 C39 0.930 . S
O32 Co1 2.037 . S
O32 C52 1.234 . S
C33 O7 1.269 . S
C33 O8 1.257 . S
C34 H9 0.930 . S
C34 C37 1.388 . S
C34 C39 1.418 . S
C35 H30 0.930 . S
C35 C38 1.404 . S
C35 C39 1.353 . S
N36 Co1 2.145 . S
N36 C37 1.397 . S
N36 C38 1.334 . S
C37 H18 0.929 . S
C37 C34 1.388 . S
C37 N36 1.397 . S
C38 H19 0.929 . S
C38 C35 1.404 . S
C38 N36 1.334 . S
C39 H31 0.930 . S
C39 C34 1.418 . S
C39 C35 1.353 . S
C40 H10 0.930 . S
C40 N41 1.330 . S
C40 C42 1.446 . S
N41 Co0 2.151 . S
N41 C40 1.330 . S
N41 C45 1.418 . S
C42 H21 0.929 . S
C42 C40 1.446 . S
C42 C43 1.332 . S
C43 H23 0.931 . S
C43 C42 1.332 . S
C43 C44 1.267 . S
C44 H12 0.929 . S
C44 C43 1.267 . S
C44 C45 1.251 . S
C45 H15 0.929 . S
C45 N41 1.418 . S
C45 C44 1.251 . S
C46 H13 0.930 . S
C46 C48 1.406 . S
C46 C51 1.261 . S
C47 H14 0.930 1_655 S
C47 N49 1.325 . S
C47 C50 1.357 . S
C48 H16 0.928 . S
C48 C46 1.406 . S
C48 N49 1.261 . S
N49 Co0 2.214 1_655 S
N49 C47 1.325 . S
N49 C48 1.261 . S
C50 H20 0.931 . S
C50 C47 1.357 . S
C50 C51 1.312 . S
C51 H22 0.930 . S
C51 C46 1.261 . S
C51 C50 1.312 . S
C52 O24 1.214 . S
C52 O32 1.234 . S
C53 H25 0.929 . S
C53 C56 1.391 . S
C53 C58 1.391 . S
C54 H26 0.929 . S
C54 C55 1.390 . S
C54 N57 1.391 . S
C55 H27 0.930 . S
C55 C54 1.390 . S
C55 C56 1.392 . S
C56 H28 0.929 . S
C56 C53 1.391 . S
C56 C55 1.392 . S
N57 Co1 2.257 . S
N57 C54 1.391 . S
N57 C58 1.388 . S
C58 H29 0.930 . S
C58 C53 1.391 . S
C58 N57 1.388 . S
Co59 O61 2.143 . S
Co59 O67 2.074 . S
Co59 O70 2.093 1_565 S
Co59 O83 2.097 . S
Co59 N100 2.151 . S
Co59 N108 2.214 1_565 S
Co60 O61 2.160 . S
Co60 O66 2.058 . S
Co60 O76 2.057 . S
Co60 O91 2.037 . S
Co60 N95 2.145 . S
Co60 N116 2.257 . S
O61 Co59 2.143 . S
O61 Co60 2.160 . S
C62 O63 1.278 1_545 S
C62 O70 1.224 . S
O63 C62 1.278 1_565 S
C64 O65 1.245 . S
C64 O76 1.232 . S
O65 C64 1.245 . S
O66 Co60 2.058 . S
O66 C92 1.269 . S
O67 Co59 2.074 . S
O67 C92 1.257 . S
H68 C93 0.930 . S
H69 C99 0.930 . S
O70 Co59 2.093 1_545 S
O70 C62 1.224 . S
H71 C103 0.929 . S
H72 C105 0.930 . S
H73 C106 0.930 1_565 S
H74 C104 0.929 . S
H75 C107 0.928 . S
O76 Co60 2.057 . S
O76 C64 1.232 . S
H77 C96 0.929 . S
H78 C97 0.929 . S
H79 C109 0.931 . S
H80 C101 0.929 . S
H81 C110 0.930 . S
H82 C102 0.931 . S
O83 Co59 2.097 . S
O83 C111 1.214 . S
H84 C112 0.929 . S
H85 C113 0.929 . S
H86 C114 0.930 . S
H87 C115 0.929 . S
H88 C117 0.930 . S
H89 C94 0.930 . S
H90 C98 0.930 . S
O91 Co60 2.037 . S
O91 C111 1.234 . S
C92 O66 1.269 . S
C92 O67 1.257 . S
C93 H68 0.930 . S
C93 C96 1.388 . S
C93 C98 1.418 . S
C94 H89 0.930 . S
C94 C97 1.404 . S
C94 C98 1.353 . S
N95 Co60 2.145 . S
N95 C96 1.397 . S
N95 C97 1.334 . S
C96 H77 0.929 . S
C96 C93 1.388 . S
C96 N95 1.397 . S
C97 H78 0.929 . S
C97 C94 1.404 . S
C97 N95 1.334 . S
C98 H90 0.930 . S
C98 C93 1.418 . S
C98 C94 1.353 . S
C99 H69 0.930 . S
C99 N100 1.330 . S
C99 C101 1.446 . S
N100 Co59 2.151 . S
N100 C99 1.330 . S
N100 C104 1.418 . S
C101 H80 0.929 . S
C101 C99 1.446 . S
C101 C102 1.332 . S
C102 H82 0.931 . S
C102 C101 1.332 . S
C102 C103 1.267 . S
C103 H71 0.929 . S
C103 C102 1.267 . S
C103 C104 1.251 . S
C104 H74 0.929 . S
C104 N100 1.418 . S
C104 C103 1.251 . S
C105 H72 0.930 . S
C105 C107 1.406 . S
C105 C110 1.261 . S
C106 H73 0.930 1_545 S
C106 N108 1.325 . S
C106 C109 1.357 . S
C107 H75 0.928 . S
C107 C105 1.406 . S
C107 N108 1.261 . S
N108 Co59 2.214 1_545 S
N108 C106 1.325 . S
N108 C107 1.261 . S
C109 H79 0.931 . S
C109 C106 1.357 . S
C109 C110 1.312 . S
C110 H81 0.930 . S
C110 C105 1.261 . S
C110 C109 1.312 . S
C111 O83 1.214 . S
C111 O91 1.234 . S
C112 H84 0.929 . S
C112 C115 1.391 . S
C112 C117 1.391 . S
C113 H85 0.929 . S
C113 C114 1.390 . S
C113 N116 1.391 . S
C114 H86 0.930 . S
C114 C113 1.390 . S
C114 C115 1.392 . S
C115 H87 0.929 . S
C115 C112 1.391 . S
C115 C114 1.392 . S
N116 Co60 2.257 . S
N116 C113 1.391 . S
N116 C117 1.388 . S
C117 H88 0.930 . S
C117 C112 1.391 . S
C117 N116 1.388 . S
Co118 O120 2.143 . S
Co118 O126 2.074 . S
Co118 O129 2.093 1_655 S
Co118 O142 2.097 . S
Co118 N159 2.151 . S
Co118 N167 2.214 1_655 S
Co119 O120 2.160 . S
Co119 O125 2.058 . S
Co119 O135 2.057 . S
Co119 O150 2.037 . S
Co119 N154 2.145 . S
Co119 N175 2.257 . S
O120 Co118 2.143 . S
O120 Co119 2.160 . S
C121 O122 1.278 1_455 S
C121 O129 1.224 . S
O122 C121 1.278 1_655 S
C123 O124 1.245 . S
C123 O135 1.232 . S
O124 C123 1.245 . S
O125 Co119 2.058 . S
O125 C151 1.269 . S
O126 Co118 2.074 . S
O126 C151 1.257 . S
H127 C152 0.930 . S
H128 C158 0.930 . S
O129 Co118 2.093 1_455 S
O129 C121 1.224 . S
H130 C162 0.929 . S
H131 C164 0.930 . S
H132 C165 0.930 1_655 S
H133 C163 0.929 . S
H134 C166 0.928 . S
O135 Co119 2.057 . S
O135 C123 1.232 . S
H136 C155 0.929 . S
H137 C156 0.929 . S
H138 C168 0.931 . S
H139 C160 0.929 . S
H140 C169 0.930 . S
H141 C161 0.931 . S
O142 Co118 2.097 . S
O142 C170 1.214 . S
H143 C171 0.929 . S
H144 C172 0.929 . S
H145 C173 0.930 . S
H146 C174 0.929 . S
H147 C176 0.930 . S
H148 C153 0.930 . S
H149 C157 0.930 . S
O150 Co119 2.037 . S
O150 C170 1.234 . S
C151 O125 1.269 . S
C151 O126 1.257 . S
C152 H127 0.930 . S
C152 C155 1.388 . S
C152 C157 1.418 . S
C153 H148 0.930 . S
C153 C156 1.404 . S
C153 C157 1.353 . S
N154 Co119 2.145 . S
N154 C155 1.397 . S
N154 C156 1.334 . S
C155 H136 0.929 . S
C155 C152 1.388 . S
C155 N154 1.397 . S
C156 H137 0.929 . S
C156 C153 1.404 . S
C156 N154 1.334 . S
C157 H149 0.930 . S
C157 C152 1.418 . S
C157 C153 1.353 . S
C158 H128 0.930 . S
C158 N159 1.330 . S
C158 C160 1.446 . S
N159 Co118 2.151 . S
N159 C158 1.330 . S
N159 C163 1.418 . S
C160 H139 0.929 . S
C160 C158 1.446 . S
C160 C161 1.332 . S
C161 H141 0.931 . S
C161 C160 1.332 . S
C161 C162 1.267 . S
C162 H130 0.929 . S
C162 C161 1.267 . S
C162 C163 1.251 . S
C163 H133 0.929 . S
C163 N159 1.418 . S
C163 C162 1.251 . S
C164 H131 0.930 . S
C164 C166 1.406 . S
C164 C169 1.261 . S
C165 H132 0.930 1_455 S
C165 N167 1.325 . S
C165 C168 1.357 . S
C166 H134 0.928 . S
C166 C164 1.406 . S
C166 N167 1.261 . S
N167 Co118 2.214 1_455 S
N167 C165 1.325 . S
N167 C166 1.261 . S
C168 H138 0.931 . S
C168 C165 1.357 . S
C168 C169 1.312 . S
C169 H140 0.930 . S
C169 C164 1.261 . S
C169 C168 1.312 . S
C170 O142 1.214 . S
C170 O150 1.234 . S
C171 H143 0.929 . S
C171 C174 1.391 . S
C171 C176 1.391 . S
C172 H144 0.929 . S
C172 C173 1.390 . S
C172 N175 1.391 . S
C173 H145 0.930 . S
C173 C172 1.390 . S
C173 C174 1.392 . S
C174 H146 0.929 . S
C174 C171 1.391 . S
C174 C173 1.392 . S
N175 Co119 2.257 . S
N175 C172 1.391 . S
N175 C176 1.388 . S
C176 H147 0.930 . S
C176 C171 1.391 . S
C176 N175 1.388 . S
Co177 O179 2.143 . S
Co177 O185 2.074 . S
Co177 O188 2.093 1_545 S
Co177 O201 2.097 . S
Co177 N218 2.151 . S
Co177 N226 2.214 1_545 S
Co178 O179 2.160 . S
Co178 O184 2.058 . S
Co178 O194 2.057 . S
Co178 O209 2.037 . S
Co178 N213 2.145 . S
Co178 N234 2.257 . S
O179 Co177 2.143 . S
O179 Co178 2.160 . S
C180 O181 1.278 1_565 S
C180 O188 1.224 . S
O181 C180 1.278 1_545 S
C182 O183 1.245 . S
C182 O194 1.232 . S
O183 C182 1.245 . S
O184 Co178 2.058 . S
O184 C210 1.269 . S
O185 Co177 2.074 . S
O185 C210 1.257 . S
H186 C211 0.930 . S
H187 C217 0.930 . S
O188 Co177 2.093 1_565 S
O188 C180 1.224 . S
H189 C221 0.929 . S
H190 C223 0.930 . S
H191 C224 0.930 1_545 S
H192 C222 0.929 . S
H193 C225 0.928 . S
O194 Co178 2.057 . S
O194 C182 1.232 . S
H195 C214 0.929 . S
H196 C215 0.929 . S
H197 C227 0.931 . S
H198 C219 0.929 . S
H199 C228 0.930 . S
H200 C220 0.931 . S
O201 Co177 2.097 . S
O201 C229 1.214 . S
H202 C230 0.929 . S
H203 C231 0.929 . S
H204 C232 0.930 . S
H205 C233 0.929 . S
H206 C235 0.930 . S
H207 C212 0.930 . S
H208 C216 0.930 . S
O209 Co178 2.037 . S
O209 C229 1.234 . S
C210 O184 1.269 . S
C210 O185 1.257 . S
C211 H186 0.930 . S
C211 C214 1.388 . S
C211 C216 1.418 . S
C212 H207 0.930 . S
C212 C215 1.404 . S
C212 C216 1.353 . S
N213 Co178 2.145 . S
N213 C214 1.397 . S
N213 C215 1.334 . S
C214 H195 0.929 . S
C214 C211 1.388 . S
C214 N213 1.397 . S
C215 H196 0.929 . S
C215 C212 1.404 . S
C215 N213 1.334 . S
C216 H208 0.930 . S
C216 C211 1.418 . S
C216 C212 1.353 . S
C217 H187 0.930 . S
C217 N218 1.330 . S
C217 C219 1.446 . S
N218 Co177 2.151 . S
N218 C217 1.330 . S
N218 C222 1.418 . S
C219 H198 0.929 . S
C219 C217 1.446 . S
C219 C220 1.332 . S
C220 H200 0.931 . S
C220 C219 1.332 . S
C220 C221 1.267 . S
C221 H189 0.929 . S
C221 C220 1.267 . S
C221 C222 1.251 . S
C222 H192 0.929 . S
C222 N218 1.418 . S
C222 C221 1.251 . S
C223 H190 0.930 . S
C223 C225 1.406 . S
C223 C228 1.261 . S
C224 H191 0.930 1_565 S
C224 N226 1.325 . S
C224 C227 1.357 . S
C225 H193 0.928 . S
C225 C223 1.406 . S
C225 N226 1.261 . S
N226 Co177 2.214 1_565 S
N226 C224 1.325 . S
N226 C225 1.261 . S
C227 H197 0.931 . S
C227 C224 1.357 . S
C227 C228 1.312 . S
C228 H199 0.930 . S
C228 C223 1.261 . S
C228 C227 1.312 . S
C229 O201 1.214 . S
C229 O209 1.234 . S
C230 H202 0.929 . S
C230 C233 1.391 . S
C230 C235 1.391 . S
C231 H203 0.929 . S
C231 C232 1.390 . S
C231 N234 1.391 . S
C232 H204 0.930 . S
C232 C231 1.390 . S
C232 C233 1.392 . S
C233 H205 0.929 . S
C233 C230 1.391 . S
C233 C232 1.392 . S
N234 Co178 2.257 . S
N234 C231 1.391 . S
N234 C235 1.388 . S
C235 H206 0.930 . S
C235 C230 1.391 . S
C235 N234 1.388 . S
Co236 O238 2.143 . S
Co236 O244 2.074 . S
Co236 O247 2.093 . S
Co236 O260 2.097 . S
Co236 N277 2.151 . S
Co236 N285 2.214 . S
Co237 O238 2.160 . S
Co237 O243 2.058 . S
Co237 O253 2.057 . S
Co237 O268 2.037 . S
Co237 N272 2.145 . S
Co237 N293 2.257 1_556 S
O238 Co236 2.143 . S
O238 Co237 2.160 . S
C239 O240 1.278 1_556 S
C239 O247 1.224 . S
O240 C239 1.278 1_554 S
C241 O242 1.245 . S
C241 O253 1.232 . S
O242 C241 1.245 . S
O243 Co237 2.058 . S
O243 C269 1.269 . S
O244 Co236 2.074 . S
O244 C269 1.257 . S
H245 C270 0.930 . S
H246 C276 0.930 . S
O247 Co236 2.093 . S
O247 C239 1.224 . S
H248 C280 0.929 . S
H249 C282 0.930 . S
H250 C283 0.930 . S
H251 C281 0.929 . S
H252 C284 0.928 . S
O253 Co237 2.057 . S
O253 C241 1.232 . S
H254 C273 0.929 . S
H255 C274 0.929 . S
H256 C286 0.931 . S
H257 C278 0.929 . S
H258 C287 0.930 . S
H259 C279 0.931 . S
O260 Co236 2.097 . S
O260 C288 1.214 . S
H261 C289 0.929 . S
H262 C290 0.929 . S
H263 C291 0.930 . S
H264 C292 0.929 . S
H265 C294 0.930 . S
H266 C271 0.930 . S
H267 C275 0.930 . S
O268 Co237 2.037 . S
O268 C288 1.234 . S
C269 O243 1.269 . S
C269 O244 1.257 . S
C270 H245 0.930 . S
C270 C273 1.388 . S
C270 C275 1.418 1_556 S
C271 H266 0.930 . S
C271 C274 1.404 . S
C271 C275 1.353 . S
N272 Co237 2.145 . S
N272 C273 1.397 . S
N272 C274 1.334 1_556 S
C273 H254 0.929 . S
C273 C270 1.388 . S
C273 N272 1.397 . S
C274 H255 0.929 . S
C274 C271 1.404 . S
C274 N272 1.334 1_554 S
C275 H267 0.930 . S
C275 C270 1.418 1_554 S
C275 C271 1.353 . S
C276 H246 0.930 . S
C276 N277 1.330 . S
C276 C278 1.446 . S
N277 Co236 2.151 . S
N277 C276 1.330 . S
N277 C281 1.418 . S
C278 H257 0.929 . S
C278 C276 1.446 . S
C278 C279 1.332 . S
C279 H259 0.931 . S
C279 C278 1.332 . S
C279 C280 1.267 . S
C280 H248 0.929 . S
C280 C279 1.267 . S
C280 C281 1.251 . S
C281 H251 0.929 . S
C281 N277 1.418 . S
C281 C280 1.251 . S
C282 H249 0.930 . S
C282 C284 1.406 . S
C282 C287 1.261 . S
C283 H250 0.930 . S
C283 N285 1.325 . S
C283 C286 1.357 . S
C284 H252 0.928 . S
C284 C282 1.406 . S
C284 N285 1.261 . S
N285 Co236 2.214 . S
N285 C283 1.325 . S
N285 C284 1.261 . S
C286 H256 0.931 . S
C286 C283 1.357 . S
C286 C287 1.312 . S
C287 H258 0.930 . S
C287 C282 1.261 . S
C287 C286 1.312 . S
C288 O260 1.214 . S
C288 O268 1.234 . S
C289 H261 0.929 . S
C289 C292 1.391 . S
C289 C294 1.391 . S
C290 H262 0.929 . S
C290 C291 1.390 . S
C290 N293 1.391 . S
C291 H263 0.930 . S
C291 C290 1.390 . S
C291 C292 1.392 . S
C292 H264 0.929 . S
C292 C289 1.391 . S
C292 C291 1.392 . S
N293 Co237 2.257 1_554 S
N293 C290 1.391 . S
N293 C294 1.388 . S
C294 H265 0.930 . S
C294 C289 1.391 . S
C294 N293 1.388 . S
Co295 O297 2.143 . S
Co295 O303 2.074 . S
Co295 O306 2.093 . S
Co295 O319 2.097 . S
Co295 N336 2.151 1_554 S
Co295 N344 2.214 . S
Co296 O297 2.160 . S
Co296 O302 2.058 . S
Co296 O312 2.057 . S
Co296 O327 2.037 . S
Co296 N331 2.145 . S
Co296 N352 2.257 . S
O297 Co295 2.143 . S
O297 Co296 2.160 . S
C298 O299 1.278 . S
C298 O306 1.224 . S
O299 C298 1.278 . S
C300 O301 1.245 1_554 S
C300 O312 1.232 . S
O301 C300 1.245 1_556 S
O302 Co296 2.058 . S
O302 C328 1.269 . S
O303 Co295 2.074 . S
O303 C328 1.257 . S
H304 C329 0.930 . S
H305 C335 0.930 . S
O306 Co295 2.093 . S
O306 C298 1.224 . S
H307 C339 0.929 . S
H308 C341 0.930 . S
H309 C342 0.930 . S
H310 C340 0.929 . S
H311 C343 0.928 . S
O312 Co296 2.057 . S
O312 C300 1.232 . S
H313 C332 0.929 . S
H314 C333 0.929 . S
H315 C345 0.931 . S
H316 C337 0.929 . S
H317 C346 0.930 . S
H318 C338 0.931 . S
O319 Co295 2.097 . S
O319 C347 1.214 . S
H320 C348 0.929 . S
H321 C349 0.929 . S
H322 C350 0.930 . S
H323 C351 0.929 . S
H324 C353 0.930 . S
H325 C330 0.930 . S
H326 C334 0.930 . S
O327 Co296 2.037 . S
O327 C347 1.234 . S
C328 O302 1.269 . S
C328 O303 1.257 . S
C329 H304 0.930 . S
C329 C332 1.388 . S
C329 C334 1.418 . S
C330 H325 0.930 . S
C330 C333 1.404 . S
C330 C334 1.353 . S
N331 Co296 2.145 . S
N331 C332 1.397 . S
N331 C333 1.334 . S
C332 H313 0.929 . S
C332 C329 1.388 . S
C332 N331 1.397 . S
C333 H314 0.929 . S
C333 C330 1.404 . S
C333 N331 1.334 . S
C334 H326 0.930 . S
C334 C329 1.418 . S
C334 C330 1.353 . S
C335 H305 0.930 . S
C335 N336 1.330 . S
C335 C337 1.446 . S
N336 Co295 2.151 1_556 S
N336 C335 1.330 . S
N336 C340 1.418 . S
C337 H316 0.929 . S
C337 C335 1.446 . S
C337 C338 1.332 . S
C338 H318 0.931 . S
C338 C337 1.332 . S
C338 C339 1.267 . S
C339 H307 0.929 . S
C339 C338 1.267 . S
C339 C340 1.251 . S
C340 H310 0.929 . S
C340 N336 1.418 . S
C340 C339 1.251 . S
C341 H308 0.930 . S
C341 C343 1.406 . S
C341 C346 1.261 1_556 S
C342 H309 0.930 . S
C342 N344 1.325 . S
C342 C345 1.357 . S
C343 H311 0.928 . S
C343 C341 1.406 . S
C343 N344 1.261 1_556 S
N344 Co295 2.214 . S
N344 C342 1.325 . S
N344 C343 1.261 1_554 S
C345 H315 0.931 . S
C345 C342 1.357 . S
C345 C346 1.312 . S
C346 H317 0.930 . S
C346 C341 1.261 1_554 S
C346 C345 1.312 . S
C347 O319 1.214 . S
C347 O327 1.234 . S
C348 H320 0.929 . S
C348 C351 1.391 . S
C348 C353 1.391 . S
C349 H321 0.929 . S
C349 C350 1.390 . S
C349 N352 1.391 . S
C350 H322 0.930 . S
C350 C349 1.390 . S
C350 C351 1.392 . S
C351 H323 0.929 . S
C351 C348 1.391 . S
C351 C350 1.392 . S
N352 Co296 2.257 . S
N352 C349 1.391 . S
N352 C353 1.388 . S
C353 H324 0.930 . S
C353 C348 1.391 . S
C353 N352 1.388 . S
Co354 O356 2.143 . S
Co354 O362 2.074 . S
Co354 O365 2.093 . S
Co354 O378 2.097 . S
Co354 N395 2.151 . S
Co354 N403 2.214 . S
Co355 O356 2.160 . S
Co355 O361 2.058 . S
Co355 O371 2.057 . S
Co355 O386 2.037 . S
Co355 N390 2.145 . S
Co355 N411 2.257 1_556 S
O356 Co354 2.143 . S
O356 Co355 2.160 . S
C357 O358 1.278 1_556 S
C357 O365 1.224 . S
O358 C357 1.278 1_554 S
C359 O360 1.245 . S
C359 O371 1.232 . S
O360 C359 1.245 . S
O361 Co355 2.058 . S
O361 C387 1.269 . S
O362 Co354 2.074 . S
O362 C387 1.257 . S
H363 C388 0.930 . S
H364 C394 0.930 . S
O365 Co354 2.093 . S
O365 C357 1.224 . S
H366 C398 0.929 . S
H367 C400 0.930 . S
H368 C401 0.930 . S
H369 C399 0.929 . S
H370 C402 0.928 . S
O371 Co355 2.057 . S
O371 C359 1.232 . S
H372 C391 0.929 . S
H373 C392 0.929 . S
H374 C404 0.931 . S
H375 C396 0.929 . S
H376 C405 0.930 . S
H377 C397 0.931 . S
O378 Co354 2.097 . S
O378 C406 1.214 . S
H379 C407 0.929 . S
H380 C408 0.929 . S
H381 C409 0.930 . S
H382 C410 0.929 . S
H383 C412 0.930 . S
H384 C389 0.930 . S
H385 C393 0.930 . S
O386 Co355 2.037 . S
O386 C406 1.234 . S
C387 O361 1.269 . S
C387 O362 1.257 . S
C388 H363 0.930 . S
C388 C391 1.388 . S
C388 C393 1.418 1_556 S
C389 H384 0.930 . S
C389 C392 1.404 . S
C389 C393 1.353 . S
N390 Co355 2.145 . S
N390 C391 1.397 . S
N390 C392 1.334 1_556 S
C391 H372 0.929 . S
C391 C388 1.388 . S
C391 N390 1.397 . S
C392 H373 0.929 . S
C392 C389 1.404 . S
C392 N390 1.334 1_554 S
C393 H385 0.930 . S
C393 C388 1.418 1_554 S
C393 C389 1.353 . S
C394 H364 0.930 . S
C394 N395 1.330 . S
C394 C396 1.446 . S
N395 Co354 2.151 . S
N395 C394 1.330 . S
N395 C399 1.418 . S
C396 H375 0.929 . S
C396 C394 1.446 . S
C396 C397 1.332 . S
C397 H377 0.931 . S
C397 C396 1.332 . S
C397 C398 1.267 . S
C398 H366 0.929 . S
C398 C397 1.267 . S
C398 C399 1.251 . S
C399 H369 0.929 . S
C399 N395 1.418 . S
C399 C398 1.251 . S
C400 H367 0.930 . S
C400 C402 1.406 . S
C400 C405 1.261 . S
C401 H368 0.930 . S
C401 N403 1.325 . S
C401 C404 1.357 . S
C402 H370 0.928 . S
C402 C400 1.406 . S
C402 N403 1.261 . S
N403 Co354 2.214 . S
N403 C401 1.325 . S
N403 C402 1.261 . S
C404 H374 0.931 . S
C404 C401 1.357 . S
C404 C405 1.312 . S
C405 H376 0.930 . S
C405 C400 1.261 . S
C405 C404 1.312 . S
C406 O378 1.214 . S
C406 O386 1.234 . S
C407 H379 0.929 . S
C407 C410 1.391 . S
C407 C412 1.391 . S
C408 H380 0.929 . S
C408 C409 1.390 . S
C408 N411 1.391 . S
C409 H381 0.930 . S
C409 C408 1.390 . S
C409 C410 1.392 . S
C410 H382 0.929 . S
C410 C407 1.391 . S
C410 C409 1.392 . S
N411 Co355 2.257 1_554 S
N411 C408 1.391 . S
N411 C412 1.388 . S
C412 H383 0.930 . S
C412 C407 1.391 . S
C412 N411 1.388 . S
Co413 O415 2.143 . S
Co413 O421 2.074 . S
Co413 O424 2.093 . S
Co413 O437 2.097 . S
Co413 N454 2.151 1_554 S
Co413 N462 2.214 . S
Co414 O415 2.160 . S
Co414 O420 2.058 . S
Co414 O430 2.057 . S
Co414 O445 2.037 . S
Co414 N449 2.145 . S
Co414 N470 2.257 . S
O415 Co413 2.143 . S
O415 Co414 2.160 . S
C416 O417 1.278 . S
C416 O424 1.224 . S
O417 C416 1.278 . S
C418 O419 1.245 1_554 S
C418 O430 1.232 . S
O419 C418 1.245 1_556 S
O420 Co414 2.058 . S
O420 C446 1.269 . S
O421 Co413 2.074 . S
O421 C446 1.257 . S
H422 C447 0.930 . S
H423 C453 0.930 . S
O424 Co413 2.093 . S
O424 C416 1.224 . S
H425 C457 0.929 . S
H426 C459 0.930 . S
H427 C460 0.930 . S
H428 C458 0.929 . S
H429 C461 0.928 . S
O430 Co414 2.057 . S
O430 C418 1.232 . S
H431 C450 0.929 . S
H432 C451 0.929 . S
H433 C463 0.931 . S
H434 C455 0.929 . S
H435 C464 0.930 . S
H436 C456 0.931 . S
O437 Co413 2.097 . S
O437 C465 1.214 . S
H438 C466 0.929 . S
H439 C467 0.929 . S
H440 C468 0.930 . S
H441 C469 0.929 . S
H442 C471 0.930 . S
H443 C448 0.930 . S
H444 C452 0.930 . S
O445 Co414 2.037 . S
O445 C465 1.234 . S
C446 O420 1.269 . S
C446 O421 1.257 . S
C447 H422 0.930 . S
C447 C450 1.388 . S
C447 C452 1.418 . S
C448 H443 0.930 . S
C448 C451 1.404 . S
C448 C452 1.353 . S
N449 Co414 2.145 . S
N449 C450 1.397 . S
N449 C451 1.334 . S
C450 H431 0.929 . S
C450 C447 1.388 . S
C450 N449 1.397 . S
C451 H432 0.929 . S
C451 C448 1.404 . S
C451 N449 1.334 . S
C452 H444 0.930 . S
C452 C447 1.418 . S
C452 C448 1.353 . S
C453 H423 0.930 . S
C453 N454 1.330 . S
C453 C455 1.446 . S
N454 Co413 2.151 1_556 S
N454 C453 1.330 . S
N454 C458 1.418 . S
C455 H434 0.929 . S
C455 C453 1.446 . S
C455 C456 1.332 . S
C456 H436 0.931 . S
C456 C455 1.332 . S
C456 C457 1.267 . S
C457 H425 0.929 . S
C457 C456 1.267 . S
C457 C458 1.251 . S
C458 H428 0.929 . S
C458 N454 1.418 . S
C458 C457 1.251 . S
C459 H426 0.930 . S
C459 C461 1.406 . S
C459 C464 1.261 1_556 S
C460 H427 0.930 . S
C460 N462 1.325 . S
C460 C463 1.357 . S
C461 H429 0.928 . S
C461 C459 1.406 . S
C461 N462 1.261 1_556 S
N462 Co413 2.214 . S
N462 C460 1.325 . S
N462 C461 1.261 1_554 S
C463 H433 0.931 . S
C463 C460 1.357 . S
C463 C464 1.312 . S
C464 H435 0.930 . S
C464 C459 1.261 1_554 S
C464 C463 1.312 . S
C465 O437 1.214 . S
C465 O445 1.234 . S
C466 H438 0.929 . S
C466 C469 1.391 . S
C466 C471 1.391 . S
C467 H439 0.929 . S
C467 C468 1.390 . S
C467 N470 1.391 . S
C468 H440 0.930 . S
C468 C467 1.390 . S
C468 C469 1.392 . S
C469 H441 0.929 . S
C469 C466 1.391 . S
C469 C468 1.392 . S
N470 Co414 2.257 . S
N470 C467 1.391 . S
N470 C471 1.388 . S
C471 H442 0.930 . S
C471 C466 1.391 . S
C471 N470 1.388 . S
H472 C480 0.950 . S
H473 C485 0.950 . S
H474 C482 0.950 . S
H475 C484 0.950 . S
H476 C486 0.950 . S
H477 C488 0.950 . S
H478 C490 0.950 . S
H479 C491 0.950 . S
C480 H472 0.950 . S
C480 C481 1.386 . S
C480 C482 1.391 . S
C481 C480 1.386 . S
C481 C485 1.393 . S
C482 H474 0.950 . S
C482 C480 1.391 . S
C482 C483 1.400 . S
C483 C482 1.400 . S
C483 C484 1.398 . S
C483 C489 1.491 . S
C484 H475 0.950 . S
C484 C483 1.398 . S
C484 C485 1.391 . S
C485 H473 0.950 . S
C485 C481 1.393 . S
C485 C484 1.391 . S
C486 H476 0.950 . S
C486 C487 1.386 . S
C486 C488 1.391 . S
C487 C486 1.386 . S
C487 C491 1.393 . S
C488 H477 0.950 . S
C488 C486 1.391 . S
C488 C489 1.400 . S
C489 C483 1.491 . S
C489 C488 1.400 . S
C489 C490 1.398 . S
C490 H478 0.950 . S
C490 C489 1.398 . S
C490 C491 1.391 . S
C491 H479 0.950 . S
C491 C487 1.393 . S
C491 C490 1.391 . S
H492 C500 0.950 . S
H493 C505 0.950 . S
H494 C502 0.950 . S
H495 C504 0.950 . S
H496 C506 0.950 . S
H497 C508 0.950 . S
H498 C510 0.950 . S
H499 C511 0.950 . S
C500 H492 0.950 . S
C500 C501 1.386 . S
C500 C502 1.391 . S
C501 C500 1.386 . S
C501 C505 1.393 . S
C502 H494 0.950 . S
C502 C500 1.391 . S
C502 C503 1.400 . S
C503 C502 1.400 . S
C503 C504 1.398 . S
C503 C509 1.491 . S
C504 H495 0.950 . S
C504 C503 1.398 . S
C504 C505 1.391 . S
C505 H493 0.950 . S
C505 C501 1.393 . S
C505 C504 1.391 . S
C506 H496 0.950 . S
C506 C507 1.386 . S
C506 C508 1.391 . S
C507 C506 1.386 . S
C507 C511 1.393 . S
C508 H497 0.950 . S
C508 C506 1.391 . S
C508 C509 1.400 . S
C509 C503 1.491 . S
C509 C508 1.400 . S
C509 C510 1.398 . S
C510 H498 0.950 . S
C510 C509 1.398 . S
C510 C511 1.391 . S
C511 H499 0.950 . S
C511 C507 1.393 . S
C511 C510 1.391 . S
H512 C520 0.950 . S
H513 C525 0.950 . S
H514 C522 0.950 . S
H515 C524 0.950 . S
H516 C526 0.950 . S
H517 C528 0.950 . S
H518 C530 0.950 . S
H519 C531 0.950 . S
C520 H512 0.950 . S
C520 C521 1.386 . S
C520 C522 1.391 . S
C521 C520 1.386 . S
C521 C525 1.393 . S
C522 H514 0.950 . S
C522 C520 1.391 . S
C522 C523 1.400 . S
C523 C522 1.400 . S
C523 C524 1.398 . S
C523 C529 1.491 . S
C524 H515 0.950 . S
C524 C523 1.398 . S
C524 C525 1.391 . S
C525 H513 0.950 . S
C525 C521 1.393 . S
C525 C524 1.391 . S
C526 H516 0.950 . S
C526 C527 1.386 . S
C526 C528 1.391 . S
C527 C526 1.386 . S
C527 C531 1.393 . S
C528 H517 0.950 . S
C528 C526 1.391 . S
C528 C529 1.400 . S
C529 C523 1.491 . S
C529 C528 1.400 . S
C529 C530 1.398 . S
C530 H518 0.950 . S
C530 C529 1.398 . S
C530 C531 1.391 . S
C531 H519 0.950 . S
C531 C527 1.393 . S
C531 C530 1.391 . S
H532 C540 0.950 . S
H533 C545 0.950 . S
H534 C542 0.950 . S
H535 C544 0.950 . S
H536 C546 0.950 . S
H537 C548 0.950 . S
H538 C550 0.950 . S
H539 C551 0.950 . S
C540 H532 0.950 . S
C540 C541 1.386 . S
C540 C542 1.391 . S
C541 C540 1.386 . S
C541 C545 1.393 . S
C542 H534 0.950 . S
C542 C540 1.391 . S
C542 C543 1.400 . S
C543 C542 1.400 . S
C543 C544 1.398 . S
C543 C549 1.491 . S
C544 H535 0.950 . S
C544 C543 1.398 . S
C544 C545 1.391 . S
C545 H533 0.950 . S
C545 C541 1.393 . S
C545 C544 1.391 . S
C546 H536 0.950 . S
C546 C547 1.386 . S
C546 C548 1.391 . S
C547 C546 1.386 . S
C547 C551 1.393 . S
C548 H537 0.950 . S
C548 C546 1.391 . S
C548 C549 1.400 . S
C549 C543 1.491 . S
C549 C548 1.400 . S
C549 C550 1.398 . S
C550 H538 0.950 . S
C550 C549 1.398 . S
C550 C551 1.391 . S
C551 H539 0.950 . S
C551 C547 1.393 . S
C551 C550 1.391 . S
H552 C560 0.950 . S
H553 C565 0.950 . S
H554 C562 0.950 . S
H555 C564 0.950 . S
H556 C566 0.950 . S
H557 C568 0.950 . S
H558 C570 0.950 . S
H559 C571 0.950 . S
C560 H552 0.950 . S
C560 C561 1.386 . S
C560 C562 1.391 . S
C561 C560 1.386 . S
C561 C565 1.393 . S
C562 H554 0.950 . S
C562 C560 1.391 . S
C562 C563 1.400 . S
C563 C562 1.400 . S
C563 C564 1.398 . S
C563 C569 1.491 . S
C564 H555 0.950 . S
C564 C563 1.398 . S
C564 C565 1.391 . S
C565 H553 0.950 . S
C565 C561 1.393 . S
C565 C564 1.391 . S
C566 H556 0.950 . S
C566 C567 1.386 . S
C566 C568 1.391 . S
C567 C566 1.386 . S
C567 C571 1.393 . S
C568 H557 0.950 . S
C568 C566 1.391 . S
C568 C569 1.400 . S
C569 C563 1.491 . S
C569 C568 1.400 . S
C569 C570 1.398 . S
C570 H558 0.950 . S
C570 C569 1.398 . S
C570 C571 1.391 . S
C571 H559 0.950 . S
C571 C567 1.393 . S
C571 C570 1.391 . S
H572 C580 0.950 . S
H573 C585 0.950 . S
H574 C582 0.950 . S
H575 C584 0.950 . S
H576 C586 0.950 . S
H577 C588 0.950 . S
H578 C590 0.950 . S
H579 C591 0.950 . S
C580 H572 0.950 . S
C580 C581 1.386 . S
C580 C582 1.391 . S
C581 C580 1.386 . S
C581 C585 1.393 . S
C582 H574 0.950 . S
C582 C580 1.391 . S
C582 C583 1.400 . S
C583 C582 1.400 . S
C583 C584 1.398 . S
C583 C589 1.491 . S
C584 H575 0.950 . S
C584 C583 1.398 . S
C584 C585 1.391 . S
C585 H573 0.950 . S
C585 C581 1.393 . S
C585 C584 1.391 . S
C586 H576 0.950 . S
C586 C587 1.386 . S
C586 C588 1.391 . S
C587 C586 1.386 . S
C587 C591 1.393 . S
C588 H577 0.950 . S
C588 C586 1.391 . S
C588 C589 1.400 . S
C589 C583 1.491 . S
C589 C588 1.400 . S
C589 C590 1.398 . S
C590 H578 0.950 . S
C590 C589 1.398 . S
C590 C591 1.391 . S
C591 H579 0.950 . S
C591 C587 1.393 . S
C591 C590 1.391 . S
H592 C600 0.950 . S
H593 C605 0.950 . S
H594 C602 0.950 . S
H595 C604 0.950 . S
H596 C606 0.950 . S
H597 C608 0.950 . S
H598 C610 0.950 . S
H599 C611 0.950 . S
C600 H592 0.950 . S
C600 C601 1.386 . S
C600 C602 1.391 . S
C601 C600 1.386 . S
C601 C605 1.393 . S
C602 H594 0.950 . S
C602 C600 1.391 . S
C602 C603 1.400 . S
C603 C602 1.400 . S
C603 C604 1.398 . S
C603 C609 1.491 . S
C604 H595 0.950 . S
C604 C603 1.398 . S
C604 C605 1.391 . S
C605 H593 0.950 . S
C605 C601 1.393 . S
C605 C604 1.391 . S
C606 H596 0.950 . S
C606 C607 1.386 . S
C606 C608 1.391 . S
C607 C606 1.386 . S
C607 C611 1.393 . S
C608 H597 0.950 . S
C608 C606 1.391 . S
C608 C609 1.400 . S
C609 C603 1.491 . S
C609 C608 1.400 . S
C609 C610 1.398 . S
C610 H598 0.950 . S
C610 C609 1.398 . S
C610 C611 1.391 . S
C611 H599 0.950 . S
C611 C607 1.393 . S
C611 C610 1.391 . S
H612 C620 0.950 . S
H613 C625 0.950 . S
H614 C622 0.950 . S
H615 C624 0.950 . S
H616 C626 0.950 . S
H617 C628 0.950 . S
H618 C630 0.950 . S
H619 C631 0.950 . S
C620 H612 0.950 . S
C620 C621 1.386 . S
C620 C622 1.391 . S
C621 C620 1.386 . S
C621 C625 1.393 . S
C622 H614 0.950 . S
C622 C620 1.391 . S
C622 C623 1.400 . S
C623 C622 1.400 . S
C623 C624 1.398 . S
C623 C629 1.491 . S
C624 H615 0.950 . S
C624 C623 1.398 . S
C624 C625 1.391 . S
C625 H613 0.950 . S
C625 C621 1.393 . S
C625 C624 1.391 . S
C626 H616 0.950 . S
C626 C627 1.386 . S
C626 C628 1.391 . S
C627 C626 1.386 . S
C627 C631 1.393 . S
C628 H617 0.950 . S
C628 C626 1.391 . S
C628 C629 1.400 . S
C629 C623 1.491 . S
C629 C628 1.400 . S
C629 C630 1.398 . S
C630 H618 0.950 . S
C630 C629 1.398 . S
C630 C631 1.391 . S
C631 H619 0.950 . S
C631 C627 1.393 . S
C631 C630 1.391 . S
H632 C640 0.950 . S
H633 C645 0.950 . S
H634 C642 0.950 . S
H635 C644 0.950 . S
H636 C646 0.950 . S
H637 C648 0.950 . S
H638 C650 0.950 . S
H639 C651 0.950 . S
C640 H632 0.950 . S
C640 C641 1.386 . S
C640 C642 1.391 . S
C641 C640 1.386 . S
C641 C645 1.393 . S
C642 H634 0.950 . S
C642 C640 1.391 . S
C642 C643 1.399 1_554 S
C643 C642 1.399 1_556 S
C643 C644 1.398 . S
C643 C649 1.492 . S
C644 H635 0.950 . S
C644 C643 1.398 . S
C644 C645 1.390 1_556 S
C645 H633 0.950 . S
C645 C641 1.393 . S
C645 C644 1.390 1_554 S
C646 H636 0.950 . S
C646 C647 1.386 . S
C646 C648 1.391 . S
C647 C646 1.386 . S
C647 C651 1.393 . S
C648 H637 0.950 . S
C648 C646 1.391 . S
C648 C649 1.400 . S
C649 C643 1.492 . S
C649 C648 1.400 . S
C649 C650 1.398 . S
C650 H638 0.950 . S
C650 C649 1.398 . S
C650 C651 1.391 . S
C651 H639 0.950 . S
C651 C647 1.393 . S
C651 C650 1.391 . S
H652 C660 0.950 . S
H653 C665 0.950 . S
H654 C662 0.950 . S
H655 C664 0.950 . S
H656 C666 0.950 . S
H657 C668 0.950 . S
H658 C670 0.950 . S
H659 C671 0.950 . S
C660 H652 0.950 . S
C660 C661 1.386 . S
C660 C662 1.391 . S
C661 C660 1.386 . S
C661 C665 1.393 1_554 S
C662 H654 0.950 . S
C662 C660 1.391 . S
C662 C663 1.400 . S
C663 C662 1.400 . S
C663 C664 1.398 1_554 S
C663 C669 1.493 . S
C664 H655 0.950 . S
C664 C663 1.398 1_556 S
C664 C665 1.391 . S
C665 H653 0.950 . S
C665 C661 1.393 1_556 S
C665 C664 1.391 . S
C666 H656 0.950 . S
C666 C667 1.386 . S
C666 C668 1.391 . S
C667 C666 1.386 . S
C667 C671 1.393 1_556 S
C668 H657 0.950 . S
C668 C666 1.391 . S
C668 C669 1.385 1_556 S
C669 C663 1.493 . S
C669 C668 1.385 1_554 S
C669 C670 1.411 . S
C670 H658 0.950 . S
C670 C669 1.411 . S
C670 C671 1.391 . S
C671 H659 0.950 . S
C671 C667 1.393 1_554 S
C671 C670 1.391 . S
H672 C680 0.950 . S
H673 C685 0.950 . S
H674 C682 0.950 . S
H675 C684 0.950 . S
H676 C686 0.950 . S
H677 C688 0.950 . S
H678 C690 0.950 . S
H679 C691 0.950 . S
C680 H672 0.950 . S
C680 C681 1.386 . S
C680 C682 1.391 . S
C681 C680 1.386 . S
C681 C685 1.393 1_554 S
C682 H674 0.950 . S
C682 C680 1.391 . S
C682 C683 1.385 1_554 S
C683 C682 1.385 1_556 S
C683 C684 1.412 . S
C683 C689 1.493 . S
C684 H675 0.950 . S
C684 C683 1.412 . S
C684 C685 1.391 . S
C685 H673 0.950 . S
C685 C681 1.393 1_556 S
C685 C684 1.391 . S
C686 H676 0.950 . S
C686 C687 1.386 . S
C686 C688 1.391 . S
C687 C686 1.386 . S
C687 C691 1.393 1_556 S
C688 H677 0.950 . S
C688 C686 1.391 . S
C688 C689 1.400 . S
C689 C683 1.493 . S
C689 C688 1.400 . S
C689 C690 1.398 1_556 S
C690 H678 0.950 . S
C690 C689 1.398 1_554 S
C690 C691 1.391 . S
C691 H679 0.950 . S
C691 C687 1.393 1_554 S
C691 C690 1.391 . S
H692 C700 0.950 . S
H693 C705 0.950 . S
H694 C702 0.950 . S
H695 C704 0.950 . S
H696 C706 0.950 . S
H697 C708 0.950 . S
H698 C710 0.950 . S
H699 C711 0.950 . S
C700 H692 0.950 . S
C700 C701 1.386 . S
C700 C702 1.391 . S
C701 C700 1.386 . S
C701 C705 1.393 1_556 S
C702 H694 0.950 . S
C702 C700 1.391 . S
C702 C703 1.382 1_556 S
C703 C702 1.382 1_554 S
C703 C704 1.414 . S
C703 C709 1.493 . S
C704 H695 0.950 . S
C704 C703 1.414 . S
C704 C705 1.391 . S
C705 H693 0.950 . S
C705 C701 1.393 1_554 S
C705 C704 1.391 . S
C706 H696 0.950 . S
C706 C707 1.386 . S
C706 C708 1.391 . S
C707 C706 1.386 . S
C707 C711 1.393 1_554 S
C708 H697 0.950 . S
C708 C706 1.391 . S
C708 C709 1.400 . S
C709 C703 1.493 . S
C709 C708 1.400 . S
C709 C710 1.398 1_554 S
C710 H698 0.950 . S
C710 C709 1.398 1_556 S
C710 C711 1.391 . S
C711 H699 0.950 . S
C711 C707 1.393 1_556 S
C711 C710 1.391 . S
H712 C720 0.950 1_455 S
H713 C725 0.950 . S
H714 C722 0.950 . S
H715 C724 0.950 . S
H716 C726 0.950 1_655 S
H717 C728 0.950 . S
H718 C730 0.950 . S
H719 C731 0.950 . S
C720 H712 0.950 1_655 S
C720 C721 1.386 . S
C720 C722 1.391 1_655 S
C721 C720 1.386 . S
C721 C725 1.393 . S
C722 H714 0.950 . S
C722 C720 1.391 1_455 S
C722 C723 1.400 1_455 S
C723 C722 1.400 1_655 S
C723 C724 1.398 . S
C723 C729 1.491 1_655 S
C724 H715 0.950 . S
C724 C723 1.398 . S
C724 C725 1.391 . S
C725 H713 0.950 . S
C725 C721 1.393 . S
C725 C724 1.391 . S
C726 H716 0.950 1_455 S
C726 C727 1.386 . S
C726 C728 1.391 1_455 S
C727 C726 1.386 . S
C727 C731 1.393 . S
C728 H717 0.950 . S
C728 C726 1.391 1_655 S
C728 C729 1.400 1_655 S
C729 C723 1.491 1_455 S
C729 C728 1.400 1_455 S
C729 C730 1.398 . S
C730 H718 0.950 . S
C730 C729 1.398 . S
C730 C731 1.391 . S
C731 H719 0.950 . S
C731 C727 1.393 . S
C731 C730 1.391 . S
H732 C740 0.944 1_565 S
H733 C745 0.950 . S
H734 C742 0.950 . S
H735 C744 0.950 . S
H736 C746 0.944 1_545 S
H737 C748 0.950 . S
H738 C750 0.950 . S
H739 C751 0.950 . S
C740 H732 0.944 1_545 S
C740 C741 1.394 . S
C740 C742 1.388 1_545 S
C741 C740 1.394 . S
C741 C745 1.393 . S
C742 H734 0.950 . S
C742 C740 1.388 1_565 S
C742 C743 1.400 1_565 S
C743 C742 1.400 1_545 S
C743 C744 1.398 . S
C743 C749 1.491 1_545 S
C744 H735 0.950 . S
C744 C743 1.398 . S
C744 C745 1.391 . S
C745 H733 0.950 . S
C745 C741 1.393 . S
C745 C744 1.391 . S
C746 H736 0.944 1_565 S
C746 C747 1.394 . S
C746 C748 1.388 1_565 S
C747 C746 1.394 . S
C747 C751 1.393 . S
C748 H737 0.950 . S
C748 C746 1.388 1_545 S
C748 C749 1.400 1_545 S
C749 C743 1.491 1_565 S
C749 C748 1.400 1_565 S
C749 C750 1.398 . S
C750 H738 0.950 . S
C750 C749 1.398 . S
C750 C751 1.391 . S
C751 H739 0.950 . S
C751 C747 1.393 . S
C751 C750 1.391 . S
H752 C760 0.950 . S
H753 C765 0.950 . S
H754 C762 0.950 . S
H755 C764 0.950 . S
H756 C766 0.950 . S
H757 C768 0.950 . S
H758 C770 0.950 . S
H759 C771 0.950 . S
C760 H752 0.950 . S
C760 C761 1.386 . S
C760 C762 1.391 . S
C761 C760 1.386 . S
C761 C765 1.393 1_556 S
C762 H754 0.950 . S
C762 C760 1.391 . S
C762 C763 1.400 . S
C763 C762 1.400 . S
C763 C764 1.398 1_556 S
C763 C769 1.491 1_545 S
C764 H755 0.950 . S
C764 C763 1.398 1_554 S
C764 C765 1.391 . S
C765 H753 0.950 . S
C765 C761 1.393 1_554 S
C765 C764 1.391 . S
C766 H756 0.950 . S
C766 C767 1.386 1_554 S
C766 C768 1.391 . S
C767 C766 1.386 1_556 S
C767 C771 1.393 . S
C768 H757 0.950 . S
C768 C766 1.391 . S
C768 C769 1.400 1_554 S
C769 C763 1.491 1_565 S
C769 C768 1.400 1_556 S
C769 C770 1.398 . S
C770 H758 0.950 . S
C770 C769 1.398 . S
C770 C771 1.391 . S
C771 H759 0.950 . S
C771 C767 1.393 . S
C771 C770 1.391 . S
H772 C780 0.950 . S
H773 C785 0.950 . S
H774 C782 0.950 . S
H775 C784 0.950 . S
H776 C786 0.950 . S
H777 C788 0.950 . S
H778 C790 0.950 . S
H779 C791 0.950 . S
C780 H772 0.950 . S
C780 C781 1.386 . S
C780 C782 1.391 . S
C781 C780 1.386 . S
C781 C785 1.393 1_554 S
C782 H774 0.950 . S
C782 C780 1.391 . S
C782 C783 1.400 . S
C783 C782 1.400 . S
C783 C784 1.398 1_554 S
C783 C789 1.491 1_455 S
C784 H775 0.950 . S
C784 C783 1.398 1_556 S
C784 C785 1.391 . S
C785 H773 0.950 . S
C785 C781 1.393 1_556 S
C785 C784 1.391 . S
C786 H776 0.950 . S
C786 C787 1.386 1_556 S
C786 C788 1.391 . S
C787 C786 1.386 1_554 S
C787 C791 1.393 . S
C788 H777 0.950 . S
C788 C786 1.391 . S
C788 C789 1.400 1_556 S
C789 C783 1.491 1_655 S
C789 C788 1.400 1_554 S
C789 C790 1.398 . S
C790 H778 0.950 . S
C790 C789 1.398 . S
C790 C791 1.391 . S
C791 H779 0.950 . S
C791 C787 1.393 . S
C791 C790 1.391 . S
C481 C465 1.597 . S
C487 C33 1.605 . S
C501 C92 1.612 . S
C507 C269 1.610 . S
C521 C151 1.603 . S
C527 C347 1.596 . S
C541 C387 1.605 . S
C547 C210 1.602 . S
C561 C62 1.525 . S
C567 C5 1.518 . S
C581 C64 1.520 . S
C587 C121 1.528 . S
C601 C180 1.525 . S
C607 C123 1.517 . S
C621 C182 1.507 . S
C627 C3 1.518 . S
C641 C418 1.520 . S
C647 C241 1.505 . S
C661 C298 1.506 . S
C667 C239 1.522 . S
C681 C300 1.522 . S
C687 C359 1.511 . S
C701 C357 1.516 . S
C707 C416 1.504 . S
C721 C170 1.281 . S
C727 C52 1.276 . S
C741 C229 1.271 . S
C747 C111 1.279 . S
C761 C406 1.275 . S
C767 C288 1.278 . S
C781 C446 1.261 . S
C787 C328 1.267 . S
